# Generated by pormake.
# Topology gar, (4,6)-cn, num edge types: 1
# Building blocks:
#     Node 0, Type 0, BuildingBlock: QUQFOY_clean_sbu_1, # of connection points: 4
#     Node 1, Type 0, BuildingBlock: QUQFOY_clean_sbu_1, # of connection points: 4
#     Node 2, Type 0, BuildingBlock: QUQFOY_clean_sbu_1, # of connection points: 4
#     Node 3, Type 0, BuildingBlock: QUQFOY_clean_sbu_1, # of connection points: 4
#     Node 4, Type 0, BuildingBlock: QUQFOY_clean_sbu_1, # of connection points: 4
#     Node 5, Type 0, BuildingBlock: QUQFOY_clean_sbu_1, # of connection points: 4
#     Node 6, Type 0, BuildingBlock: QUQFOY_clean_sbu_1, # of connection points: 4
#     Node 7, Type 0, BuildingBlock: QUQFOY_clean_sbu_1, # of connection points: 4
#     Node 8, Type 0, BuildingBlock: QUQFOY_clean_sbu_1, # of connection points: 4
#     Node 9, Type 0, BuildingBlock: QUQFOY_clean_sbu_1, # of connection points: 4
#     Node 10, Type 0, BuildingBlock: QUQFOY_clean_sbu_1, # of connection points: 4
#     Node 11, Type 0, BuildingBlock: QUQFOY_clean_sbu_1, # of connection points: 4
#     Node 12, Type 0, BuildingBlock: QUQFOY_clean_sbu_1, # of connection points: 4
#     Node 13, Type 0, BuildingBlock: QUQFOY_clean_sbu_1, # of connection points: 4
#     Node 14, Type 0, BuildingBlock: QUQFOY_clean_sbu_1, # of connection points: 4
#     Node 15, Type 0, BuildingBlock: QUQFOY_clean_sbu_1, # of connection points: 4
#     Node 16, Type 0, BuildingBlock: QUQFOY_clean_sbu_1, # of connection points: 4
#     Node 17, Type 0, BuildingBlock: QUQFOY_clean_sbu_1, # of connection points: 4
#     Node 18, Type 0, BuildingBlock: QUQFOY_clean_sbu_1, # of connection points: 4
#     Node 19, Type 0, BuildingBlock: QUQFOY_clean_sbu_1, # of connection points: 4
#     Node 20, Type 0, BuildingBlock: QUQFOY_clean_sbu_1, # of connection points: 4
#     Node 21, Type 0, BuildingBlock: QUQFOY_clean_sbu_1, # of connection points: 4
#     Node 22, Type 0, BuildingBlock: QUQFOY_clean_sbu_1, # of connection points: 4
#     Node 23, Type 0, BuildingBlock: QUQFOY_clean_sbu_1, # of connection points: 4
#     Node 24, Type 1, BuildingBlock: KUMBUR_clean_sbu_0, # of connection points: 6
#     Node 25, Type 1, BuildingBlock: KUMBUR_clean_sbu_0, # of connection points: 6
#     Node 26, Type 1, BuildingBlock: KUMBUR_clean_sbu_0, # of connection points: 6
#     Node 27, Type 1, BuildingBlock: KUMBUR_clean_sbu_0, # of connection points: 6
#     Node 28, Type 1, BuildingBlock: KUMBUR_clean_sbu_0, # of connection points: 6
#     Node 29, Type 1, BuildingBlock: KUMBUR_clean_sbu_0, # of connection points: 6
#     Node 30, Type 1, BuildingBlock: KUMBUR_clean_sbu_0, # of connection points: 6
#     Node 31, Type 1, BuildingBlock: KUMBUR_clean_sbu_0, # of connection points: 6
#     Node 32, Type 1, BuildingBlock: KUMBUR_clean_sbu_0, # of connection points: 6
#     Node 33, Type 1, BuildingBlock: KUMBUR_clean_sbu_0, # of connection points: 6
#     Node 34, Type 1, BuildingBlock: KUMBUR_clean_sbu_0, # of connection points: 6
#     Node 35, Type 1, BuildingBlock: KUMBUR_clean_sbu_0, # of connection points: 6
#     Node 36, Type 1, BuildingBlock: KUMBUR_clean_sbu_0, # of connection points: 6
#     Node 37, Type 1, BuildingBlock: KUMBUR_clean_sbu_0, # of connection points: 6
#     Node 38, Type 1, BuildingBlock: KUMBUR_clean_sbu_0, # of connection points: 6
#     Node 39, Type 1, BuildingBlock: KUMBUR_clean_sbu_0, # of connection points: 6
#     Edge 40, Type (0, 1), BuildingBlock: ZUJKAS_clean_linker_0, # of connection points: 2
#     Edge 41, Type (0, 1), BuildingBlock: ZUJKAS_clean_linker_0, # of connection points: 2
#     Edge 42, Type (0, 1), BuildingBlock: ZUJKAS_clean_linker_0, # of connection points: 2
#     Edge 43, Type (0, 1), BuildingBlock: ZUJKAS_clean_linker_0, # of connection points: 2
#     Edge 44, Type (0, 1), BuildingBlock: ZUJKAS_clean_linker_0, # of connection points: 2
#     Edge 45, Type (0, 1), BuildingBlock: ZUJKAS_clean_linker_0, # of connection points: 2
#     Edge 46, Type (0, 1), BuildingBlock: ZUJKAS_clean_linker_0, # of connection points: 2
#     Edge 47, Type (0, 1), BuildingBlock: ZUJKAS_clean_linker_0, # of connection points: 2
#     Edge 48, Type (0, 1), BuildingBlock: ZUJKAS_clean_linker_0, # of connection points: 2
#     Edge 49, Type (0, 1), BuildingBlock: ZUJKAS_clean_linker_0, # of connection points: 2
#     Edge 50, Type (0, 1), BuildingBlock: ZUJKAS_clean_linker_0, # of connection points: 2
#     Edge 51, Type (0, 1), BuildingBlock: ZUJKAS_clean_linker_0, # of connection points: 2
#     Edge 52, Type (0, 1), BuildingBlock: ZUJKAS_clean_linker_0, # of connection points: 2
#     Edge 53, Type (0, 1), BuildingBlock: ZUJKAS_clean_linker_0, # of connection points: 2
#     Edge 54, Type (0, 1), BuildingBlock: ZUJKAS_clean_linker_0, # of connection points: 2
#     Edge 55, Type (0, 1), BuildingBlock: ZUJKAS_clean_linker_0, # of connection points: 2
#     Edge 56, Type (0, 1), BuildingBlock: ZUJKAS_clean_linker_0, # of connection points: 2
#     Edge 57, Type (0, 1), BuildingBlock: ZUJKAS_clean_linker_0, # of connection points: 2
#     Edge 58, Type (0, 1), BuildingBlock: ZUJKAS_clean_linker_0, # of connection points: 2
#     Edge 59, Type (0, 1), BuildingBlock: ZUJKAS_clean_linker_0, # of connection points: 2
#     Edge 60, Type (0, 1), BuildingBlock: ZUJKAS_clean_linker_0, # of connection points: 2
#     Edge 61, Type (0, 1), BuildingBlock: ZUJKAS_clean_linker_0, # of connection points: 2
#     Edge 62, Type (0, 1), BuildingBlock: ZUJKAS_clean_linker_0, # of connection points: 2
#     Edge 63, Type (0, 1), BuildingBlock: ZUJKAS_clean_linker_0, # of connection points: 2
#     Edge 64, Type (0, 1), BuildingBlock: ZUJKAS_clean_linker_0, # of connection points: 2
#     Edge 65, Type (0, 1), BuildingBlock: ZUJKAS_clean_linker_0, # of connection points: 2
#     Edge 66, Type (0, 1), BuildingBlock: ZUJKAS_clean_linker_0, # of connection points: 2
#     Edge 67, Type (0, 1), BuildingBlock: ZUJKAS_clean_linker_0, # of connection points: 2
#     Edge 68, Type (0, 1), BuildingBlock: ZUJKAS_clean_linker_0, # of connection points: 2
#     Edge 69, Type (0, 1), BuildingBlock: ZUJKAS_clean_linker_0, # of connection points: 2
#     Edge 70, Type (0, 1), BuildingBlock: ZUJKAS_clean_linker_0, # of connection points: 2
#     Edge 71, Type (0, 1), BuildingBlock: ZUJKAS_clean_linker_0, # of connection points: 2
#     Edge 72, Type (0, 1), BuildingBlock: ZUJKAS_clean_linker_0, # of connection points: 2
#     Edge 73, Type (0, 1), BuildingBlock: ZUJKAS_clean_linker_0, # of connection points: 2
#     Edge 74, Type (0, 1), BuildingBlock: ZUJKAS_clean_linker_0, # of connection points: 2
#     Edge 75, Type (0, 1), BuildingBlock: ZUJKAS_clean_linker_0, # of connection points: 2
#     Edge 76, Type (0, 1), BuildingBlock: ZUJKAS_clean_linker_0, # of connection points: 2
#     Edge 77, Type (0, 1), BuildingBlock: ZUJKAS_clean_linker_0, # of connection points: 2
#     Edge 78, Type (0, 1), BuildingBlock: ZUJKAS_clean_linker_0, # of connection points: 2
#     Edge 79, Type (0, 1), BuildingBlock: ZUJKAS_clean_linker_0, # of connection points: 2
#     Edge 80, Type (0, 1), BuildingBlock: ZUJKAS_clean_linker_0, # of connection points: 2
#     Edge 81, Type (0, 1), BuildingBlock: ZUJKAS_clean_linker_0, # of connection points: 2
#     Edge 82, Type (0, 1), BuildingBlock: ZUJKAS_clean_linker_0, # of connection points: 2
#     Edge 83, Type (0, 1), BuildingBlock: ZUJKAS_clean_linker_0, # of connection points: 2
#     Edge 84, Type (0, 1), BuildingBlock: ZUJKAS_clean_linker_0, # of connection points: 2
#     Edge 85, Type (0, 1), BuildingBlock: ZUJKAS_clean_linker_0, # of connection points: 2
#     Edge 86, Type (0, 1), BuildingBlock: ZUJKAS_clean_linker_0, # of connection points: 2
#     Edge 87, Type (0, 1), BuildingBlock: ZUJKAS_clean_linker_0, # of connection points: 2
#     Edge 88, Type (0, 1), BuildingBlock: ZUJKAS_clean_linker_0, # of connection points: 2
#     Edge 89, Type (0, 1), BuildingBlock: ZUJKAS_clean_linker_0, # of connection points: 2
#     Edge 90, Type (0, 1), BuildingBlock: ZUJKAS_clean_linker_0, # of connection points: 2
#     Edge 91, Type (0, 1), BuildingBlock: ZUJKAS_clean_linker_0, # of connection points: 2
#     Edge 92, Type (0, 1), BuildingBlock: ZUJKAS_clean_linker_0, # of connection points: 2
#     Edge 93, Type (0, 1), BuildingBlock: ZUJKAS_clean_linker_0, # of connection points: 2
#     Edge 94, Type (0, 1), BuildingBlock: ZUJKAS_clean_linker_0, # of connection points: 2
#     Edge 95, Type (0, 1), BuildingBlock: ZUJKAS_clean_linker_0, # of connection points: 2
#     Edge 96, Type (0, 1), BuildingBlock: ZUJKAS_clean_linker_0, # of connection points: 2
#     Edge 97, Type (0, 1), BuildingBlock: ZUJKAS_clean_linker_0, # of connection points: 2
#     Edge 98, Type (0, 1), BuildingBlock: ZUJKAS_clean_linker_0, # of connection points: 2
#     Edge 99, Type (0, 1), BuildingBlock: ZUJKAS_clean_linker_0, # of connection points: 2
#     Edge 100, Type (0, 1), BuildingBlock: ZUJKAS_clean_linker_0, # of connection points: 2
#     Edge 101, Type (0, 1), BuildingBlock: ZUJKAS_clean_linker_0, # of connection points: 2
#     Edge 102, Type (0, 1), BuildingBlock: ZUJKAS_clean_linker_0, # of connection points: 2
#     Edge 103, Type (0, 1), BuildingBlock: ZUJKAS_clean_linker_0, # of connection points: 2
#     Edge 104, Type (0, 1), BuildingBlock: ZUJKAS_clean_linker_0, # of connection points: 2
#     Edge 105, Type (0, 1), BuildingBlock: ZUJKAS_clean_linker_0, # of connection points: 2
#     Edge 106, Type (0, 1), BuildingBlock: ZUJKAS_clean_linker_0, # of connection points: 2
#     Edge 107, Type (0, 1), BuildingBlock: ZUJKAS_clean_linker_0, # of connection points: 2
#     Edge 108, Type (0, 1), BuildingBlock: ZUJKAS_clean_linker_0, # of connection points: 2
#     Edge 109, Type (0, 1), BuildingBlock: ZUJKAS_clean_linker_0, # of connection points: 2
#     Edge 110, Type (0, 1), BuildingBlock: ZUJKAS_clean_linker_0, # of connection points: 2
#     Edge 111, Type (0, 1), BuildingBlock: ZUJKAS_clean_linker_0, # of connection points: 2
#     Edge 112, Type (0, 1), BuildingBlock: ZUJKAS_clean_linker_0, # of connection points: 2
#     Edge 113, Type (0, 1), BuildingBlock: ZUJKAS_clean_linker_0, # of connection points: 2
#     Edge 114, Type (0, 1), BuildingBlock: ZUJKAS_clean_linker_0, # of connection points: 2
#     Edge 115, Type (0, 1), BuildingBlock: ZUJKAS_clean_linker_0, # of connection points: 2
#     Edge 116, Type (0, 1), BuildingBlock: ZUJKAS_clean_linker_0, # of connection points: 2
#     Edge 117, Type (0, 1), BuildingBlock: ZUJKAS_clean_linker_0, # of connection points: 2
#     Edge 118, Type (0, 1), BuildingBlock: ZUJKAS_clean_linker_0, # of connection points: 2
#     Edge 119, Type (0, 1), BuildingBlock: ZUJKAS_clean_linker_0, # of connection points: 2
#     Edge 120, Type (0, 1), BuildingBlock: ZUJKAS_clean_linker_0, # of connection points: 2
#     Edge 121, Type (0, 1), BuildingBlock: ZUJKAS_clean_linker_0, # of connection points: 2
#     Edge 122, Type (0, 1), BuildingBlock: ZUJKAS_clean_linker_0, # of connection points: 2
#     Edge 123, Type (0, 1), BuildingBlock: ZUJKAS_clean_linker_0, # of connection points: 2
#     Edge 124, Type (0, 1), BuildingBlock: ZUJKAS_clean_linker_0, # of connection points: 2
#     Edge 125, Type (0, 1), BuildingBlock: ZUJKAS_clean_linker_0, # of connection points: 2
#     Edge 126, Type (0, 1), BuildingBlock: ZUJKAS_clean_linker_0, # of connection points: 2
#     Edge 127, Type (0, 1), BuildingBlock: ZUJKAS_clean_linker_0, # of connection points: 2
#     Edge 128, Type (0, 1), BuildingBlock: ZUJKAS_clean_linker_0, # of connection points: 2
#     Edge 129, Type (0, 1), BuildingBlock: ZUJKAS_clean_linker_0, # of connection points: 2
#     Edge 130, Type (0, 1), BuildingBlock: ZUJKAS_clean_linker_0, # of connection points: 2
#     Edge 131, Type (0, 1), BuildingBlock: ZUJKAS_clean_linker_0, # of connection points: 2
#     Edge 132, Type (0, 1), BuildingBlock: ZUJKAS_clean_linker_0, # of connection points: 2
#     Edge 133, Type (0, 1), BuildingBlock: ZUJKAS_clean_linker_0, # of connection points: 2
#     Edge 134, Type (0, 1), BuildingBlock: ZUJKAS_clean_linker_0, # of connection points: 2
#     Edge 135, Type (0, 1), BuildingBlock: ZUJKAS_clean_linker_0, # of connection points: 2
# Relax obj value: 0.126
# Max RMSD: 0.318
# Mean RMSD: 0.177
data_MOF--net-gar--node1-QUQFOY_clean_sbu_1--node2-KUMBUR_clean_sbu_0--edge1-ZUJKAS_clean_linker_0
_symmetry_space_group_name_H-M    P1
_symmetry_Int_Tables_number       1
_symmetry_cell_setting            triclinic
loop_
_symmetry_equiv_pos_as_xyz
'x, y, z'
_cell_length_a     78.414312
_cell_length_b     73.519045
_cell_length_c     73.427172
_cell_angle_alpha  100.31919
_cell_angle_beta   93.409482
_cell_angle_gamma 104.58144
loop_
_atom_site_label
_atom_site_type_symbol
_atom_site_fract_x
_atom_site_fract_y
_atom_site_fract_z
_atom_type_partial_charge
O0 O 0.09713 0.2901 0.39161 0.0
Cd1 Cd 0.10159 0.3131 0.3782 0.0
Cd2 Cd 0.09863 0.33132 0.41037 0.0
O3 O 0.10605 0.30907 0.41903 0.0
O4 O 0.11176 0.30539 0.35496 0.0
O5 O 0.12669 0.32836 0.37847 0.0
C6 C 0.12627 0.31813 0.36209 0.0
C7 C 0.11206 0.36291 0.42477 0.0
C8 C 0.10191 0.29238 0.40889 0.0
C9 C 0.06927 0.3258 0.38175 0.0
O10 O 0.07268 0.3266 0.39903 0.0
O11 O 0.08061 0.32316 0.37068 0.0
O12 O 0.10182 0.35128 0.43319 0.0
O13 O 0.11535 0.35641 0.40819 0.0
O14 O 1.00224 0.73849 0.66305 0.0
Cd15 Cd 0.00899 0.76624 0.67719 0.0
Cd16 Cd 0.01309 0.77346 0.64545 0.0
O17 O 0.9947 0.74717 0.63738 0.0
O18 O 0.99646 0.76612 0.69958 0.0
O19 O 0.9899 0.77929 0.67596 0.0
C20 C 0.98612 0.77418 0.69151 0.0
C21 C 0.01027 0.79957 0.63336 0.0
C22 C 0.99447 0.73409 0.64662 0.0
C23 C 0.0455 0.7786 0.67068 0.0
O24 O 0.03887 0.77384 0.65374 0.0
O25 O 0.0354 0.77968 0.68349 0.0
O26 O 0.01404 0.78522 0.62319 0.0
O27 O 0.00751 0.79893 0.65042 0.0
O28 O 0.63091 0.81543 0.88771 0.0
Cd29 Cd 0.61312 0.81671 0.90688 0.0
Cd30 Cd 0.59557 0.82553 0.87911 0.0
O31 O 0.6132 0.81563 0.86342 0.0
O32 O 0.61936 0.80119 0.92428 0.0
O33 O 0.59317 0.79362 0.90741 0.0
C34 C 0.60385 0.7895 0.91915 0.0
C35 C 0.56678 0.81953 0.8651 0.0
C36 C 0.62782 0.81401 0.87029 0.0
C37 C 0.61057 0.85619 0.9135 0.0
O38 O 0.60455 0.85202 0.89641 0.0
O39 O 0.61365 0.84334 0.92166 0.0
O40 O 0.57997 0.83103 0.85988 0.0
O41 O 0.56995 0.81086 0.87822 0.0
O42 O 0.5038 0.23042 0.16332 0.0
Cd43 Cd 0.5105 0.25719 0.17957 0.0
Cd44 Cd 0.51701 0.26813 0.14886 0.0
O45 O 0.49982 0.2416 0.13809 0.0
O46 O 0.49659 0.25493 0.20074 0.0
O47 O 0.49237 0.27155 0.1791 0.0
C48 C 0.48733 0.26464 0.19352 0.0
C49 C 0.51576 0.29285 0.13346 0.0
C50 C 0.49797 0.22754 0.1463 0.0
C51 C 0.54766 0.27098 0.17677 0.0
O52 O 0.54233 0.26934 0.15973 0.0
O53 O 0.53656 0.26918 0.18863 0.0
O54 O 0.52154 0.27862 0.12611 0.0
O55 O 0.51023 0.29295 0.14968 0.0
O56 O 0.07656 0.78574 0.11243 0.0
Cd57 Cd 0.07993 0.8114 0.13131 0.0
Cd58 Cd 0.09715 0.82575 0.10208 0.0
O59 O 0.08826 0.79627 0.08833 0.0
O60 O 0.06389 0.80376 0.15072 0.0
O61 O 0.05946 0.82397 0.13337 0.0
C62 C 0.05424 0.81434 0.14603 0.0
C63 C 0.09003 0.85259 0.09093 0.0
C64 C 0.08079 0.78233 0.09592 0.0
C65 C 0.11993 0.82822 0.13857 0.0
O66 O 0.11953 0.83033 0.12163 0.0
O67 O 0.1055 0.82256 0.14562 0.0
O68 O 0.10188 0.84469 0.08415 0.0
O69 O 0.0819 0.84513 0.10377 0.0
O70 O 0.55541 0.77242 0.41652 0.0
Cd71 Cd 0.54039 0.7718 0.43935 0.0
Cd72 Cd 0.5181 0.78499 0.40492 0.0
O73 O 0.54079 0.77986 0.39311 0.0
O74 O 0.55419 0.76053 0.45725 0.0
O75 O 0.52696 0.74567 0.44518 0.0
C76 C 0.54094 0.74556 0.45537 0.0
C77 C 0.49104 0.78256 0.38571 0.0
C78 C 0.55437 0.77564 0.39998 0.0
C79 C 0.53058 0.81097 0.44548 0.0
O80 O 0.52352 0.80672 0.42861 0.0
O81 O 0.53717 0.7991 0.45254 0.0
O82 O 0.50525 0.79615 0.38637 0.0
O83 O 0.49216 0.76976 0.39535 0.0
O84 O 0.58761 0.28279 0.61526 0.0
Cd85 Cd 0.58951 0.30809 0.63397 0.0
Cd86 Cd 0.60617 0.32274 0.6046 0.0
O87 O 0.59706 0.29332 0.59028 0.0
O88 O 0.57288 0.29978 0.65281 0.0
O89 O 0.5685 0.31999 0.63547 0.0
C90 C 0.56306 0.31012 0.64789 0.0
C91 C 0.59939 0.3498 0.59367 0.0
C92 C 0.59105 0.27935 0.59845 0.0
C93 C 0.62925 0.32488 0.64131 0.0
O94 O 0.62859 0.3271 0.62438 0.0
O95 O 0.61489 0.31936 0.64853 0.0
O96 O 0.61158 0.34226 0.58726 0.0
O97 O 0.59074 0.34196 0.60598 0.0
O98 O 0.02841 0.23984 0.92205 0.0
Cd99 Cd 0.02955 0.25951 0.90412 0.0
Cd100 Cd 0.01508 0.2788 0.93784 0.0
O101 O 0.02136 0.2552 0.9481 0.0
O102 O 0.04372 0.25037 0.88385 0.0
O103 O 0.05365 0.27811 0.90335 0.0
C104 C 0.05635 0.26581 0.88966 0.0
C105 C 0.0233 0.31126 0.95548 0.0
C106 C 0.02586 0.24073 0.93918 0.0
C107 C 0.99347 0.26925 0.89867 0.0
O108 O 0.99415 0.27419 0.91636 0.0
O109 O 0.00624 0.26391 0.8913 0.0
O110 O 0.01019 0.29829 0.9591 0.0
O111 O 0.03244 0.30565 0.94258 0.0
O112 O 0.42408 0.05176 0.27887 0.0
Cd113 Cd 0.41486 0.05767 0.30423 0.0
Cd114 Cd 0.44391 0.05546 0.31341 0.0
O115 O 0.45127 0.06666 0.29067 0.0
O116 O 0.3928 0.06239 0.29569 0.0
O117 O 0.4148 0.08494 0.31352 0.0
C118 C 0.3997 0.08012 0.30342 0.0
C119 C 0.45396 0.07009 0.34327 0.0
C120 C 0.43984 0.05991 0.27658 0.0
C121 C 0.41505 0.02285 0.31478 0.0
O122 O 0.4304 0.02683 0.30938 0.0
O123 O 0.40712 0.03591 0.31802 0.0
O124 O 0.46358 0.06161 0.33292 0.0
O125 O 0.43881 0.07115 0.33629 0.0
O126 O 0.31184 0.19848 0.53708 0.0
Cd127 Cd 0.31079 0.17876 0.5129 0.0
Cd128 Cd 0.29782 0.20714 0.49941 0.0
O129 O 0.30542 0.22275 0.52694 0.0
O130 O 0.32345 0.16145 0.5229 0.0
O131 O 0.33295 0.17624 0.5004 0.0
C132 C 0.33524 0.16526 0.51169 0.0
C133 C 0.3046 0.21976 0.47234 0.0
C134 C 0.30957 0.21523 0.54036 0.0
C135 C 0.27229 0.16768 0.49771 0.0
O136 O 0.27458 0.18505 0.49599 0.0
O137 O 0.28538 0.16178 0.50295 0.0
O138 O 0.29334 0.22496 0.48284 0.0
O139 O 0.31276 0.20805 0.47766 0.0
O140 O 0.16921 0.00707 0.73054 0.0
Cd141 Cd 0.1912 0.00675 0.75046 0.0
Cd142 Cd 0.16221 0.02856 0.77613 0.0
O143 O 0.15057 0.02073 0.74685 0.0
O144 O 0.20847 0.99039 0.73853 0.0
O145 O 0.19477 0.98279 0.76187 0.0
C146 C 0.2057 0.97893 0.75017 0.0
C147 C 0.14658 0.0285 0.80545 0.0
C148 C 0.15532 0.0137 0.73103 0.0
C149 C 0.20145 0.05159 0.77065 0.0
O150 O 0.1865 0.04999 0.77744 0.0
O151 O 0.20539 0.03679 0.76127 0.0
O152 O 0.14581 0.0402 0.79441 0.0
O153 O 0.15547 0.01633 0.79982 0.0
O154 O 0.31144 0.94195 0.04079 0.0
Cd155 Cd 0.31191 0.95455 0.01776 0.0
Cd156 Cd 0.31449 0.92174 1.00278 0.0
O157 O 0.30189 0.91265 0.0243 0.0
O158 O 0.30184 0.97645 0.02422 0.0
O159 O 0.28913 0.9509 1.00207 0.0
C160 C 0.28882 0.96738 0.01164 0.0
C161 C 0.31122 0.90294 0.97351 0.0
C162 C 0.30523 0.92408 0.03999 0.0
C163 C 0.3465 0.95426 0.00812 0.0
O164 O 0.34055 0.93671 0.00867 0.0
O165 O 0.33607 0.96495 0.00894 0.0
O166 O 0.31826 0.8984 0.98773 0.0
O167 O 0.30415 0.91715 0.9762 0.0
O168 O 0.30746 0.39652 0.06487 0.0
Cd169 Cd 0.31066 0.41485 0.04618 0.0
Cd170 Cd 0.32101 0.38318 0.02547 0.0
O171 O 0.31111 0.37025 0.04743 0.0
O172 O 0.29837 0.43481 0.05643 0.0
O173 O 0.28888 0.4147 0.02957 0.0
C174 C 0.28666 0.42843 0.0421 0.0
C175 C 0.31466 0.36742 0.99378 0.0
C176 C 0.3074 0.37893 0.06274 0.0
C177 C 0.34883 0.42186 0.03762 0.0
O178 O 0.34524 0.4039 0.03109 0.0
O179 O 0.33667 0.42943 0.04336 0.0
O180 O 0.32494 0.36258 0.00531 0.0
O181 O 0.30714 0.38056 1.00043 0.0
O182 O 0.7957 0.15029 0.0557 0.0
Cd183 Cd 0.79627 0.13238 0.03141 0.0
Cd184 Cd 0.79092 0.15846 0.01467 0.0
O185 O 0.79702 0.17426 0.04115 0.0
O186 O 0.81146 0.11595 0.03575 0.0
O187 O 0.81768 0.13829 0.01835 0.0
C188 C 0.82208 0.12514 0.02565 0.0
C189 C 0.79821 0.1747 0.99069 0.0
C190 C 0.79664 0.16779 0.05605 0.0
C191 C 0.76124 0.12308 0.01194 0.0
O192 O 0.76601 0.1402 0.00953 0.0
O193 O 0.77229 0.11571 0.01906 0.0
O194 O 0.7873 0.17892 1.00203 0.0
O195 O 0.80563 0.16143 0.9932 0.0
O196 O 0.19264 0.53939 0.22423 0.0
Cd197 Cd 0.21143 0.54133 0.24548 0.0
Cd198 Cd 0.18635 0.54494 0.2658 0.0
O199 O 0.17138 0.52987 0.2413 0.0
O200 O 0.2262 0.52451 0.23619 0.0
O201 O 0.20805 0.51936 0.25811 0.0
C202 C 0.21892 0.51372 0.24725 0.0
C203 C 0.17323 0.54114 0.29297 0.0
C204 C 0.17643 0.53197 0.22554 0.0
C205 C 0.21676 0.57932 0.26532 0.0
O206 O 0.20044 0.57295 0.26703 0.0
O207 O 0.22566 0.56793 0.25887 0.0
O208 O 0.16727 0.54936 0.28092 0.0
O209 O 0.18664 0.53442 0.28943 0.0
O210 O 0.81075 0.8968 0.56727 0.0
Cd211 Cd 0.81336 0.91349 0.54696 0.0
Cd212 Cd 0.82568 0.88294 0.53003 0.0
O213 O 0.81532 0.87022 0.5516 0.0
O214 O 0.80065 0.93317 0.55652 0.0
O215 O 0.79135 0.91218 0.53014 0.0
C216 C 0.78893 0.9261 0.54227 0.0
C217 C 0.81872 0.86778 0.49839 0.0
C218 C 0.81109 0.87942 0.56627 0.0
C219 C 0.85189 0.92182 0.54004 0.0
O220 O 0.84973 0.90376 0.53647 0.0
O221 O 0.83873 0.9288 0.54285 0.0
O222 O 0.82915 0.8626 0.50948 0.0
O223 O 0.81157 0.88111 0.50546 0.0
O224 O 0.94164 0.07262 0.23675 0.0
Cd225 Cd 0.91977 0.07335 0.2543 0.0
Cd226 Cd 0.95357 0.05613 0.27725 0.0
O227 O 0.96338 0.06362 0.25129 0.0
O228 O 0.90114 0.0863 0.24269 0.0
O229 O 0.91664 0.10012 0.26912 0.0
C230 C 0.90482 0.1009 0.25641 0.0
C231 C 0.97091 0.05801 0.30778 0.0
C232 C 0.95691 0.06872 0.2369 0.0
C233 C 0.91276 0.0314 0.26615 0.0
O234 O 0.92919 0.03453 0.27205 0.0
O235 O 0.9069 0.04462 0.26028 0.0
O236 O 0.97115 0.0457 0.29291 0.0
O237 O 0.96183 0.07002 0.30538 0.0
O238 O 0.29613 0.64824 0.547 0.0
Cd239 Cd 0.29751 0.6294 0.52345 0.0
Cd240 Cd 0.29715 0.65809 0.50928 0.0
O241 O 0.30927 0.67278 0.53518 0.0
O242 O 0.31112 0.61211 0.53013 0.0
O243 O 0.31993 0.63322 0.51194 0.0
C244 C 0.32305 0.62033 0.52062 0.0
C245 C 0.30251 0.67285 0.484 0.0
C246 C 0.3036 0.66599 0.54905 0.0
C247 C 0.26388 0.62619 0.50651 0.0
O248 O 0.27071 0.64407 0.50812 0.0
O249 O 0.27372 0.61533 0.50883 0.0
O250 O 0.29536 0.67995 0.49788 0.0
O251 O 0.30753 0.65755 0.4847 0.0
O252 O 0.44324 0.57492 0.74054 0.0
Cd253 Cd 0.42038 0.57611 0.75645 0.0
Cd254 Cd 0.4553 0.55969 0.78237 0.0
O255 O 0.46529 0.56733 0.75642 0.0
O256 O 0.40229 0.58865 0.74289 0.0
O257 O 0.4158 0.60277 0.77013 0.0
C258 C 0.40485 0.60331 0.75645 0.0
C259 C 0.47238 0.55976 0.81284 0.0
C260 C 0.45878 0.57168 0.74156 0.0
C261 C 0.41422 0.53467 0.76922 0.0
O262 O 0.4305 0.53875 0.77616 0.0
O263 O 0.40802 0.5472 0.76243 0.0
O264 O 0.47247 0.54801 0.7975 0.0
O265 O 0.46359 0.57217 0.81102 0.0
O266 O 0.69661 0.04606 0.71862 0.0
Cd267 Cd 0.71117 0.04642 0.74283 0.0
Cd268 Cd 0.68255 0.04667 0.75582 0.0
O269 O 0.67304 0.03076 0.72973 0.0
O270 O 0.72885 0.03199 0.73688 0.0
O271 O 0.70534 0.02204 0.75173 0.0
C272 C 0.71913 0.0189 0.74432 0.0
C273 C 0.67078 0.03843 0.78207 0.0
C274 C 0.68076 0.03565 0.71599 0.0
C275 C 0.7103 0.08241 0.76431 0.0
O276 O 0.69383 0.07566 0.75921 0.0
O277 O 0.72061 0.07164 0.76166 0.0
O278 O 0.66206 0.04475 0.7703 0.0
O279 O 0.68593 0.03569 0.7783 0.0
O280 O 0.80859 0.69957 0.04255 0.0
Cd281 Cd 0.80885 0.68068 0.018 0.0
Cd282 Cd 0.79726 0.70999 0.00517 0.0
O283 O 0.80567 0.72536 0.03252 0.0
O284 O 0.82015 0.66174 0.02704 0.0
O285 O 0.83224 0.67946 0.00761 0.0
C286 C 0.83312 0.66676 0.01745 0.0
C287 C 0.804 0.72241 0.97792 0.0
C288 C 0.80785 0.71694 0.0459 0.0
C289 C 0.77085 0.67105 1.00243 0.0
O290 O 0.77343 0.68891 1.00269 0.0
O291 O 0.78382 0.66418 0.00577 0.0
O292 O 0.79314 0.72808 0.9887 0.0
O293 O 0.81175 0.71027 0.98303 0.0
O294 O 0.92226 0.55746 0.78156 0.0
Cd295 Cd 0.91112 0.56082 0.80614 0.0
Cd296 Cd 0.94087 0.56045 0.81847 0.0
O297 O 0.94921 0.57048 0.79536 0.0
O298 O 0.8892 0.56692 0.7984 0.0
O299 O 0.91089 0.58734 0.81834 0.0
C300 C 0.89576 0.58379 0.80854 0.0
C301 C 0.95231 0.57572 0.84822 0.0
C302 C 0.93856 0.5647 0.78056 0.0
C303 C 0.91271 0.52585 0.81754 0.0
O304 O 0.92897 0.53152 0.81522 0.0
O305 O 0.90303 0.53731 0.81771 0.0
O306 O 0.96139 0.56706 0.83733 0.0
O307 O 0.93682 0.57649 0.8419 0.0
O308 O 0.81467 0.44189 0.54941 0.0
Cd309 Cd 0.81305 0.45166 0.52476 0.0
Cd310 Cd 0.816 0.4184 0.51233 0.0
O311 O 0.80437 0.41168 0.53542 0.0
O312 O 0.80244 0.47358 0.52927 0.0
O313 O 0.78925 0.44594 0.51011 0.0
C314 C 0.78891 0.46304 0.51797 0.0
C315 C 0.80871 0.39872 0.48324 0.0
C316 C 0.80851 0.42438 0.55028 0.0
C317 C 0.84746 0.45063 0.51394 0.0
O318 O 0.8423 0.43347 0.51619 0.0
O319 O 0.83645 0.46065 0.51383 0.0
O320 O 0.81624 0.39361 0.49682 0.0
O321 O 0.80406 0.41455 0.48654 0.0
O322 O 0.67086 0.50438 0.23625 0.0
Cd323 Cd 0.69327 0.50468 0.25618 0.0
Cd324 Cd 0.66439 0.52577 0.28185 0.0
O325 O 0.65247 0.51844 0.25257 0.0
O326 O 0.71011 0.48748 0.24462 0.0
O327 O 0.69746 0.48183 0.26911 0.0
C328 C 0.70791 0.47707 0.25721 0.0
C329 C 0.64924 0.52557 0.31151 0.0
C330 C 0.65705 0.51116 0.23672 0.0
C331 C 0.70328 0.54947 0.27583 0.0
O332 O 0.68856 0.54732 0.28309 0.0
O333 O 0.70738 0.53494 0.26613 0.0
O334 O 0.65 0.53864 0.3017 0.0
O335 O 0.6562 0.51209 0.30444 0.0
Tb336 Tb 0.03654 0.0411 0.01452 0.0
C337 C 0.08754 0.10467 0.05516 0.0
C338 C 0.09446 0.12439 0.03208 0.0
C339 C 0.09378 0.13947 0.06412 0.0
C340 C 0.08988 0.10614 0.03696 0.0
C341 C 0.09031 0.12144 0.0691 0.0
C342 C 0.0958 0.14094 0.04562 0.0
C343 C 0.08946 0.10186 0.09218 0.0
N344 N 0.08445 0.08705 0.05952 0.0
C345 C 0.08705 0.08579 0.07791 0.0
C346 C 0.09061 0.11973 0.08775 0.0
Tb347 Tb 0.07967 0.06126 0.03468 0.0
N348 N 0.08869 0.08983 0.02425 0.0
C349 C 0.09344 0.09125 0.00675 0.0
C350 C 0.09803 0.12558 0.01388 0.0
C351 C 0.09783 0.10896 1.00127 0.0
H352 H 0.0868 0.0722 0.08172 0.0
H353 H 0.10118 0.10977 0.98729 0.0
H354 H 0.09906 0.155 0.04204 0.0
H355 H 0.0907 0.10048 0.1066 0.0
H356 H 0.09419 0.07909 0.99668 0.0
H357 H 0.01647 0.99091 0.06055 0.0
H358 H 0.10154 0.13929 0.0096 0.0
H359 H 0.02936 0.03188 0.96737 0.0
H360 H 0.024 0.02217 0.05235 0.0
H361 H 0.02477 1.00421 0.94171 0.0
H362 H 0.09567 0.15243 0.0746 0.0
H363 H 0.01488 0.96183 0.03703 0.0
H364 H 0.01626 0.94705 0.00399 0.0
H365 H 0.09275 0.13224 0.09883 0.0
H366 H 0.01908 0.95071 0.97162 0.0
N367 N 0.02799 0.01207 0.02408 0.0
C368 C 0.0239 0.01014 0.04168 0.0
C369 C 0.01843 0.97577 0.03322 0.0
C370 C 0.02152 0.97754 0.01501 0.0
C371 C 0.01932 0.99213 0.04651 0.0
C372 C 0.02621 0.99607 0.01076 0.0
H373 H 0.02212 0.97188 0.94828 0.0
N374 N 0.03148 0.01607 0.98888 0.0
C375 C 0.02604 1.0023 0.95596 0.0
C376 C 0.0282 0.99816 0.99262 0.0
C377 C 0.02884 0.01802 0.97069 0.0
C378 C 0.02456 0.98411 0.95972 0.0
C379 C 0.025 0.98174 0.97818 0.0
O380 O 0.02005 0.04966 0.99605 0.0
O381 O 0.05882 0.06654 0.0172 0.0
O382 O 0.06167 0.05935 0.05797 0.0
O383 O 0.03289 0.05156 0.04388 0.0
O384 O 0.03526 0.07053 0.02457 0.0
O385 O 0.00932 0.0343 0.01727 0.0
O386 O 0.09517 0.05231 0.05381 0.0
O387 O 0.05748 0.03574 0.0318 0.0
O388 O 0.05427 0.04357 0.99127 0.0
O389 O 0.08303 0.05029 0.00515 0.0
O390 O 0.08111 0.03207 0.02396 0.0
O391 O 0.10726 0.06784 0.03324 0.0
C392 C 0.0509 0.07955 0.02205 0.0
C393 C 0.98899 0.03574 0.99277 0.0
C394 C 0.96042 0.04163 0.98623 0.0
C395 C 0.97708 0.04672 0.99647 0.0
C396 C 0.95555 0.02485 0.97231 0.0
C397 C 0.98422 0.01898 0.97896 0.0
C398 C 0.96745 0.01359 0.96873 0.0
C399 C 0.0443 0.05716 0.05915 0.0
C400 C 0.00609 0.04289 0.00398 0.0
C401 C 0.02133 0.96341 0.98251 0.0
C402 C 0.01963 0.96132 1.00091 0.0
C403 C 0.06549 0.02292 0.02643 0.0
C404 C 0.12674 0.06365 0.05758 0.0
C405 C 0.139 0.05408 0.05069 0.0
C406 C 0.15519 0.05631 0.06114 0.0
C407 C 0.15927 0.06899 0.07854 0.0
C408 C 0.13081 0.07619 0.07495 0.0
C409 C 0.14713 0.07892 0.08534 0.0
C410 C 0.07148 0.04515 0.98993 0.0
C411 C 0.10958 0.05873 0.04643 0.0
H412 H 0.98083 0.05934 0.00762 0.0
H413 H 0.9427 0.02058 0.96417 0.0
H414 H 0.99325 0.01014 0.97618 0.0
H415 H 0.96369 1.00069 0.95798 0.0
H416 H 0.13575 0.04463 0.03708 0.0
H417 H 0.17164 0.07098 0.087 0.0
H418 H 0.12146 0.0837 0.0805 0.0
H419 H 0.15029 0.08856 0.0988 0.0
Tb420 Tb 0.31162 0.79329 0.24221 0.0
C421 C 0.28093 0.84606 0.30098 0.0
C422 C 0.30634 0.87128 0.31674 0.0
C423 C 0.27701 0.87665 0.31643 0.0
C424 C 0.29889 0.85257 0.3062 0.0
C425 C 0.26967 0.85784 0.30637 0.0
C426 C 0.29533 0.88339 0.32157 0.0
C427 C 0.2447 0.83097 0.29305 0.0
N428 N 0.27437 0.82775 0.29153 0.0
C429 C 0.25642 0.81984 0.28815 0.0
C430 C 0.25135 0.85013 0.30203 0.0
Tb431 Tb 0.29429 0.81006 0.28496 0.0
N432 N 0.30899 0.84032 0.30141 0.0
C433 C 0.32672 0.84582 0.30764 0.0
C434 C 0.32455 0.87715 0.32237 0.0
C435 C 0.33476 0.8643 0.31789 0.0
H436 H 0.2511 0.80501 0.28132 0.0
H437 H 0.34885 0.86862 0.3223 0.0
H438 H 0.30081 0.89782 0.32958 0.0
H439 H 0.23053 0.82473 0.28997 0.0
H440 H 0.33506 0.83637 0.30433 0.0
H441 H 0.25814 0.73447 0.20384 0.0
H442 H 0.33081 0.89144 0.33036 0.0
H443 H 0.35496 0.79851 0.2454 0.0
H444 H 0.27202 0.76754 0.22021 0.0
H445 H 0.37537 0.77794 0.23998 0.0
H446 H 0.2686 0.88596 0.32063 0.0
H447 H 0.27553 0.71054 0.2004 0.0
H448 H 0.30486 0.70316 0.20561 0.0
H449 H 0.24225 0.85869 0.30595 0.0
H450 H 0.33691 0.71498 0.21566 0.0
N451 N 0.29716 0.76266 0.22681 0.0
C452 C 0.27991 0.75742 0.21898 0.0
C453 C 0.28172 0.72507 0.20785 0.0
C454 C 0.29958 0.73069 0.21502 0.0
C455 C 0.2719 0.73856 0.20965 0.0
C456 C 0.30703 0.74987 0.22434 0.0
H457 H 0.36343 0.74299 0.22816 0.0
N458 N 0.3316 0.77534 0.23746 0.0
C459 C 0.3612 0.77167 0.23721 0.0
C460 C 0.32493 0.75644 0.22995 0.0
C461 C 0.34957 0.78328 0.24024 0.0
C462 C 0.3544 0.75194 0.23061 0.0
C463 C 0.33607 0.74415 0.22648 0.0
O464 O 0.32871 0.81087 0.22766 0.0
O465 O 0.30935 0.81726 0.26258 0.0
O466 O 0.28057 0.81982 0.263 0.0
O467 O 0.2855 0.79951 0.23648 0.0
O468 O 0.33366 0.81819 0.25331 0.0
O469 O 0.30299 0.7935 0.21458 0.0
O470 O 0.27729 0.79178 0.29899 0.0
O471 O 0.29621 0.78643 0.26413 0.0
O472 O 0.32536 0.78397 0.26451 0.0
O473 O 0.32067 0.80469 0.29066 0.0
O474 O 0.27194 0.78525 0.27314 0.0
O475 O 0.30338 0.80808 0.31193 0.0
C476 C 0.32491 0.8277 0.26365 0.0
C477 C 0.32574 0.80137 0.19535 0.0
C478 C 0.33673 0.81267 0.16805 0.0
C479 C 0.32874 0.81537 0.18451 0.0
C480 C 0.34181 0.79566 0.16253 0.0
C481 C 0.33095 0.78448 0.18992 0.0
C482 C 0.33901 0.78169 0.17353 0.0
C483 C 0.27681 0.81152 0.24501 0.0
C484 C 0.31779 0.80545 0.21255 0.0
C485 C 0.32862 0.72473 0.21825 0.0
C486 C 0.31038 0.71801 0.21251 0.0
C487 C 0.28061 0.77604 0.26236 0.0
C488 C 0.28122 0.79873 0.33154 0.0
C489 C 0.27931 0.78403 0.34156 0.0
C490 C 0.27127 0.78505 0.35815 0.0
C491 C 0.26531 0.80131 0.36471 0.0
C492 C 0.27523 0.81485 0.33814 0.0
C493 C 0.26731 0.81611 0.35473 0.0
C494 C 0.32928 0.79257 0.28237 0.0
C495 C 0.28859 0.79597 0.31374 0.0
H496 H 0.32448 0.82831 0.18874 0.0
H497 H 0.34792 0.79323 0.14979 0.0
H498 H 0.32881 0.77355 0.19825 0.0
H499 H 0.34302 0.76865 0.1693 0.0
H500 H 0.28427 0.77178 0.33642 0.0
H501 H 0.259 0.8025 0.37743 0.0
H502 H 0.27654 0.8263 0.33049 0.0
H503 H 0.26264 0.82854 0.35981 0.0
Tb504 Tb 0.5831 0.04757 0.52305 0.0
C505 C 0.51711 0.01062 0.55782 0.0
C506 C 0.50257 0.98133 0.53584 0.0
C507 C 0.4995 0.98331 0.56883 0.0
C508 C 0.51358 1.00027 0.53982 0.0
C509 C 0.50985 1.00244 0.57254 0.0
C510 C 0.49586 0.97276 0.55049 0.0
C511 C 0.52232 0.03315 0.59313 0.0
N512 N 0.52698 0.02911 0.56074 0.0
C513 C 0.52912 0.04065 0.57804 0.0
C514 C 0.51281 0.0139 0.59042 0.0
Tb515 Tb 0.53811 0.03989 0.53521 0.0
N516 N 0.5201 0.00919 0.52608 0.0
C517 C 0.51502 1.00027 0.50784 0.0
C518 C 0.49817 0.97181 0.51724 0.0
C519 C 0.50425 0.98142 0.50317 0.0
H520 H 0.53644 0.05555 0.58041 0.0
H521 H 0.50066 0.97432 0.4887 0.0
H522 H 0.4875 0.95817 0.54773 0.0
H523 H 0.52439 0.04224 0.60684 0.0
H524 H 0.51951 0.0074 0.49673 0.0
H525 H 0.61975 0.11209 0.57166 0.0
H526 H 0.4897 0.95727 0.5136 0.0
H527 H 0.58596 0.03364 0.47796 0.0
H528 H 0.60173 0.07877 0.56248 0.0
H529 H 0.59785 0.04839 0.45216 0.0
H530 H 0.4939 0.9767 0.57995 0.0
H531 H 0.62981 0.13079 0.54763 0.0
H532 H 0.6318 0.13151 0.51369 0.0
H533 H 0.50747 0.00816 0.60211 0.0
H534 H 0.62598 0.11407 0.48105 0.0
N535 N 0.60082 0.07831 0.53331 0.0
C536 C 0.60588 0.08655 0.55172 0.0
C537 C 0.62178 0.11608 0.54346 0.0
C538 C 0.61751 0.10725 0.52466 0.0
C539 C 0.61619 0.10556 0.55706 0.0
C540 C 0.60701 0.08809 0.52002 0.0
H541 H 0.61359 0.08293 0.45798 0.0
N542 N 0.59438 0.05969 0.49824 0.0
C543 C 0.5995 0.05703 0.46604 0.0
C544 C 0.60373 0.07839 0.50179 0.0
C545 C 0.5928 0.04871 0.48074 0.0
C546 C 0.60834 0.07654 0.46938 0.0
C547 C 0.61081 0.08742 0.48749 0.0
O548 O 0.59556 0.02577 0.51433 0.0
O549 O 0.55869 0.02669 0.52573 0.0
O550 O 0.55272 0.02977 0.55547 0.0
O551 O 0.58116 0.04808 0.55291 0.0
O552 O 0.57175 0.02039 0.50325 0.0
O553 O 0.60649 0.04727 0.53881 0.0
O554 O 0.52567 0.06188 0.54317 0.0
O555 O 0.56251 0.0606 0.53236 0.0
O556 O 0.56809 0.05724 0.50265 0.0
O557 O 0.53978 0.0387 0.50531 0.0
O558 O 0.54959 0.06743 0.55461 0.0
O559 O 0.51481 0.03982 0.51907 0.0
C560 C 0.55829 0.01374 0.51159 0.0
C561 C 0.62631 0.03299 0.52177 0.0
C562 C 0.65122 0.01859 0.51837 0.0
C563 C 0.63515 0.01938 0.52573 0.0
C564 C 0.6584 0.0317 0.50726 0.0
C565 C 0.63394 0.04611 0.51091 0.0
C566 C 0.64988 0.04544 0.50371 0.0
C567 C 0.56941 0.03803 0.56209 0.0
C568 C 0.60851 0.03228 0.52762 0.0
C569 C 0.62056 0.1068 0.49185 0.0
C570 C 0.62388 0.11672 0.51043 0.0
C571 C 0.56307 0.07385 0.54622 0.0
C572 C 0.49494 0.05465 0.53538 0.0
C573 C 0.48615 0.06804 0.53072 0.0
C574 C 0.46994 0.06903 0.53768 0.0
C575 C 0.4626 0.05628 0.54909 0.0
C576 C 0.4872 0.04198 0.5466 0.0
C577 C 0.47113 0.04281 0.55339 0.0
C578 C 0.55134 0.04894 0.49613 0.0
C579 C 0.51279 0.0551 0.52981 0.0
H580 H 0.6293 0.00912 0.53404 0.0
H581 H 0.67077 0.03145 0.5015 0.0
H582 H 0.62746 0.05668 0.50776 0.0
H583 H 0.6556 0.05552 0.49521 0.0
H584 H 0.49214 0.078 0.52219 0.0
H585 H 0.45013 0.05661 0.55456 0.0
H586 H 0.49367 0.03163 0.55033 0.0
H587 H 0.46531 0.03306 0.56216 0.0
Tb588 Tb 0.28622 0.29427 0.7651 0.0
C589 C 0.34512 0.27181 0.79976 0.0
C590 C 0.35454 0.29759 0.82681 0.0
C591 C 0.35697 0.2657 0.82878 0.0
C592 C 0.34704 0.29072 0.80809 0.0
C593 C 0.35073 0.25929 0.8098 0.0
C594 C 0.35888 0.28484 0.83727 0.0
C595 C 0.34639 0.23613 0.781 0.0
N596 N 0.33937 0.26621 0.78133 0.0
C597 C 0.34117 0.24914 0.77163 0.0
C598 C 0.3508 0.24105 0.80026 0.0
Tb599 Tb 0.33007 0.28827 0.76757 0.0
N600 N 0.34282 0.30269 0.7975 0.0
C601 C 0.34724 0.32205 0.80454 0.0
C602 C 0.35808 0.31717 0.83428 0.0
C603 C 0.35471 0.32949 0.82299 0.0
H604 H 0.33751 0.24506 0.75679 0.0
H605 H 0.35778 0.34475 0.82852 0.0
H606 H 0.36436 0.28981 0.85174 0.0
H607 H 0.34698 0.22232 0.77335 0.0
H608 H 0.34488 0.33208 0.7964 0.0
H609 H 0.25083 0.23316 0.71045 0.0
H610 H 0.36392 0.32299 0.84854 0.0
H611 H 0.28057 0.33884 0.76846 0.0
H612 H 0.26219 0.24902 0.74228 0.0
H613 H 0.27688 0.3601 0.7471 0.0
H614 H 0.36107 0.25621 0.83679 0.0
H615 H 0.25176 0.25188 0.6856 0.0
H616 H 0.25792 0.28405 0.67673 0.0
H617 H 0.35498 0.23102 0.80747 0.0
H618 H 0.26549 0.31913 0.68674 0.0
N619 N 0.27173 0.27717 0.73619 0.0
C620 C 0.26368 0.25778 0.73193 0.0
C621 C 0.25722 0.2591 0.69971 0.0
C622 C 0.2638 0.27903 0.70434 0.0
C623 C 0.2567 0.24851 0.71368 0.0
C624 C 0.2708 0.28774 0.72295 0.0
H625 H 0.27213 0.34767 0.71309 0.0
N626 N 0.28009 0.31495 0.74683 0.0
C627 C 0.2768 0.3454 0.74157 0.0
C628 C 0.27533 0.30739 0.72846 0.0
C629 C 0.27911 0.33328 0.75363 0.0
C630 C 0.27415 0.33835 0.72242 0.0
C631 C 0.27263 0.31893 0.71567 0.0
O632 O 0.27377 0.31065 0.78407 0.0
O633 O 0.31109 0.2997 0.78309 0.0
O634 O 0.31208 0.26014 0.77103 0.0
O635 O 0.28347 0.26368 0.76613 0.0
O636 O 0.28805 0.28604 0.792 0.0
O637 O 0.25941 0.28283 0.76849 0.0
O638 O 0.34306 0.29572 0.74438 0.0
O639 O 0.30741 0.28827 0.74909 0.0
O640 O 0.30521 0.32378 0.7689 0.0
O641 O 0.33314 0.31868 0.76572 0.0
O642 O 0.31854 0.26551 0.74363 0.0
O643 O 0.35766 0.2911 0.76747 0.0
C644 C 0.30467 0.29309 0.79677 0.0
C645 C 0.24194 0.30317 0.7811 0.0
C646 C 0.2141 0.30415 0.7947 0.0
C647 C 0.23012 0.29858 0.79454 0.0
C648 C 0.21014 0.31428 0.78121 0.0
C649 C 0.23724 0.31271 0.7675 0.0
C650 C 0.22154 0.31837 0.76769 0.0
C651 C 0.29444 0.25311 0.76916 0.0
C652 C 0.25875 0.29737 0.7812 0.0
C653 C 0.26725 0.31047 0.69682 0.0
C654 C 0.26286 0.2905 0.69115 0.0
C655 C 0.30681 0.27304 0.73735 0.0
C656 C 0.36777 0.28341 0.73796 0.0
C657 C 0.38518 0.29175 0.73397 0.0
C658 C 0.39419 0.28068 0.72226 0.0
C659 C 0.38558 0.26136 0.71469 0.0
C660 C 0.35942 0.26425 0.7296 0.0
C661 C 0.36831 0.2533 0.71821 0.0
C662 C 0.32245 0.33022 0.767 0.0
C663 C 0.35838 0.29456 0.75082 0.0
H664 H 0.23345 0.29083 0.80487 0.0
H665 H 0.19795 0.31867 0.78083 0.0
H666 H 0.24557 0.31562 0.75662 0.0
H667 H 0.21809 0.32584 0.75718 0.0
H668 H 0.39172 0.30662 0.74007 0.0
H669 H 0.39215 0.25256 0.70571 0.0
H670 H 0.34597 0.25768 0.73176 0.0
H671 H 0.36175 0.23848 0.71201 0.0
Tb672 Tb 0.06057 0.06843 0.53386 0.0
C673 C 0.07881 0.00814 0.47493 0.0
C674 C 0.0545 0.99957 0.45044 0.0
C675 C 0.08329 0.99555 0.44313 0.0
C676 C 0.06145 0.00689 0.46927 0.0
C677 C 0.08984 1.00197 0.46204 0.0
C678 C 0.06564 0.99438 0.43733 0.0
C679 C 0.11221 0.00681 0.48775 0.0
N680 N 0.0845 0.01408 0.49336 0.0
C681 C 0.10077 0.01277 0.49998 0.0
C682 C 0.10684 1.00168 0.46865 0.0
Tb683 Tb 0.0647 0.02322 0.51247 0.0
N684 N 0.05108 0.01169 0.48244 0.0
C685 C 0.03319 0.00812 0.47774 0.0
C686 C 0.03645 0.99704 0.44548 0.0
C687 C 0.0257 1.00108 0.45925 0.0
H688 H 0.10518 0.01656 0.51468 0.0
H689 H 0.01163 0.99879 0.45567 0.0
H690 H 0.06058 0.98889 0.42279 0.0
H691 H 0.12517 0.00617 0.49307 0.0
H692 H 0.02451 0.011 0.48801 0.0
H693 H 0.11433 0.09188 0.58985 0.0
H694 H 0.0306 0.9915 0.43118 0.0
H695 H 0.01948 0.07326 0.5326 0.0
H696 H 0.10106 0.08023 0.55746 0.0
H697 H 0.99952 0.08268 0.55489 0.0
H698 H 0.09159 0.99091 0.43298 0.0
H699 H 0.09568 0.09883 0.61478 0.0
H700 H 0.06584 0.10139 0.62377 0.0
H701 H 0.11569 0.99697 0.45922 0.0
H702 H 0.03459 0.09903 0.61425 0.0
N703 N 0.07464 0.07953 0.56365 0.0
C704 C 0.09255 0.08297 0.56802 0.0
C705 C 0.08967 0.09354 0.60051 0.0
C706 C 0.07157 0.09111 0.59586 0.0
C707 C 0.10024 0.08968 0.58648 0.0
C708 C 0.0644 0.08407 0.57708 0.0
H709 H 0.00981 0.09227 0.58858 0.0
N710 N 0.04082 0.0767 0.55344 0.0
C711 C 0.01278 0.08262 0.55985 0.0
C712 C 0.04688 0.08267 0.57178 0.0
C713 C 0.02417 0.07728 0.54724 0.0
C714 C 0.01862 0.08799 0.57885 0.0
C715 C 0.03595 0.08834 0.58502 0.0
O716 O 0.05348 0.0883 0.51972 0.0
O717 O 0.0585 0.04904 0.50684 0.0
O718 O 0.08596 0.04365 0.50277 0.0
O719 O 0.0876 0.07002 0.52627 0.0
O720 O 0.03887 0.06217 0.51129 0.0
O721 O 0.07806 0.09619 0.53743 0.0
O722 O 0.07111 1.00313 0.52679 0.0
O723 O 0.06699 0.04262 0.5396 0.0
O724 O 0.03967 0.04778 0.54358 0.0
O725 O 0.03737 0.02241 0.51893 0.0
O726 O 0.0867 0.02983 0.53467 0.0
O727 O 0.04626 0.99619 0.50972 0.0
C728 C 0.04442 0.05121 0.49866 0.0
C729 C 0.06533 0.12106 0.53168 0.0
C730 C 0.0659 0.15158 0.52272 0.0
C731 C 0.06982 0.13374 0.51948 0.0
C732 C 0.05751 0.15666 0.53853 0.0
C733 C 0.05709 0.12635 0.54745 0.0
C734 C 0.05324 0.14413 0.55085 0.0
C735 C 0.09417 0.06115 0.51214 0.0
C736 C 0.06777 0.10178 0.52633 0.0
C737 C 0.04281 0.09471 0.60385 0.0
C738 C 0.0606 0.09605 0.60927 0.0
C739 C 0.08131 0.04064 0.54753 0.0
C740 C 0.05818 0.97064 0.51447 0.0
C741 C 0.05253 0.95749 0.52589 0.0
C742 C 0.05584 0.93942 0.52221 0.0
C743 C 0.0647 0.93443 0.50681 0.0
C744 C 0.06672 0.96547 0.49888 0.0
C745 C 0.06992 0.94737 0.49506 0.0
C746 C 0.03086 0.03107 0.53321 0.0
C747 C 0.05646 0.99011 0.5204 0.0
H748 H 0.07583 0.12939 0.50707 0.0
H749 H 0.05438 0.17035 0.54143 0.0
H750 H 0.05339 0.11668 0.5569 0.0
H751 H 0.04678 0.14815 0.56297 0.0
H752 H 0.04613 0.96159 0.5381 0.0
H753 H 0.06745 0.92054 0.50383 0.0
H754 H 0.07115 0.97542 0.48989 0.0
H755 H 0.07668 0.94347 0.48314 0.0
Tb756 Tb 0.32758 0.80674 0.75289 0.0
C757 C 0.2858 0.74791 0.77997 0.0
C758 C 0.28956 0.71934 0.76032 0.0
C759 C 0.28828 0.72056 0.79343 0.0
C760 C 0.28785 0.73829 0.76265 0.0
C761 C 0.28524 0.73879 0.79541 0.0
C762 C 0.29043 0.71084 0.77589 0.0
C763 C 0.2755 0.76462 0.81275 0.0
N764 N 0.28242 0.76527 0.78124 0.0
C765 C 0.27595 0.77288 0.79702 0.0
C766 C 0.28062 0.74774 0.81211 0.0
Tb767 Tb 0.28541 0.77843 0.75476 0.0
N768 N 0.2868 0.7469 0.74788 0.0
C769 C 0.28571 0.73643 0.73016 0.0
C770 C 0.28969 0.70922 0.74235 0.0
C771 C 0.28741 0.71768 0.72719 0.0
H772 H 0.27122 0.78554 0.79774 0.0
H773 H 0.28688 0.70973 0.71316 0.0
H774 H 0.29207 0.69646 0.77438 0.0
H775 H 0.27096 0.77117 0.82528 0.0
H776 H 0.2834 0.74211 0.71799 0.0
H777 H 0.31531 0.87207 0.78996 0.0
H778 H 0.29087 0.69464 0.73997 0.0
H779 H 0.35104 0.80037 0.7174 0.0
H780 H 0.31783 0.83899 0.78598 0.0
H781 H 0.36198 0.8174 0.6925 0.0
H782 H 0.28817 0.71351 0.80519 0.0
H783 H 0.32191 0.89008 0.76468 0.0
H784 H 0.33224 0.89122 0.73306 0.0
H785 H 0.28001 0.7412 0.82425 0.0
H786 H 0.34469 0.87614 0.7062 0.0
N787 N 0.32494 0.83761 0.75836 0.0
C788 C 0.32049 0.84645 0.77473 0.0
C789 C 0.3228 0.87541 0.76276 0.0
C790 C 0.32822 0.86668 0.74641 0.0
C791 C 0.31914 0.86532 0.77708 0.0
C792 C 0.32927 0.84758 0.74467 0.0
H793 H 0.35616 0.84871 0.69111 0.0
N794 N 0.33826 0.8213 0.72927 0.0
C795 C 0.35456 0.82358 0.70272 0.0
C796 C 0.33609 0.83908 0.72952 0.0
C797 C 0.34836 0.81399 0.71683 0.0
C798 C 0.35118 0.84121 0.70194 0.0
C799 C 0.34228 0.84944 0.71574 0.0
O800 O 0.35335 0.80312 0.75447 0.0
O801 O 0.31363 0.7779 0.75702 0.0
O802 O 0.29441 0.7995 0.78069 0.0
O803 O 0.32401 0.80207 0.78106 0.0
O804 O 0.33219 0.77974 0.73845 0.0
O805 O 0.34687 0.82529 0.77379 0.0
O806 O 0.26132 0.78156 0.7641 0.0
O807 O 0.30021 0.80853 0.75639 0.0
O808 O 0.31519 0.79974 0.72423 0.0
O809 O 0.29074 0.77478 0.72593 0.0
O810 O 0.27714 0.79876 0.73965 0.0
O811 O 0.26178 0.7624 0.73824 0.0
C812 C 0.32198 0.7677 0.74654 0.0
C813 C 0.37672 0.83023 0.76752 0.0
C814 C 0.40848 0.83899 0.77678 0.0
C815 C 0.39133 0.82776 0.77767 0.0
C816 C 0.41092 0.85274 0.76545 0.0
C817 C 0.37922 0.8443 0.75659 0.0
C818 C 0.3963 0.85544 0.7555 0.0
C819 C 0.31025 0.80353 0.78989 0.0
C820 C 0.35927 0.81744 0.76839 0.0
C821 C 0.34023 0.86803 0.71678 0.0
C822 C 0.33319 0.87663 0.7321 0.0
C823 C 0.28958 0.81417 0.74586 0.0
C824 C 0.23531 0.75668 0.75255 0.0
C825 C 0.21996 0.75732 0.74231 0.0
C826 C 0.20329 0.74664 0.74535 0.0
C827 C 0.2021 0.73497 0.75868 0.0
C828 C 0.23415 0.74476 0.7656 0.0
C829 C 0.21752 0.7339 0.7686 0.0
C830 C 0.30138 0.7855 0.7165 0.0
C831 C 0.25198 0.76951 0.74967 0.0
H832 H 0.38938 0.81681 0.78606 0.0
H833 H 0.42406 0.86154 0.76452 0.0
H834 H 0.36812 0.84669 0.74892 0.0
H835 H 0.39819 0.86619 0.74694 0.0
H836 H 0.22094 0.76675 0.73239 0.0
H837 H 0.1893 0.7267 0.76134 0.0
H838 H 0.24594 0.74403 0.77354 0.0
H839 H 0.21656 0.72481 0.77878 0.0
Tb840 Tb 0.56243 0.03976 0.0521 0.0
C841 C 0.51551 0.0595 0.99249 0.0
C842 C 0.4961 0.02872 0.97734 0.0
C843 C 0.4859 0.05751 0.97893 0.0
C844 C 0.51244 0.03996 0.98717 0.0
C845 C 0.5025 0.06865 0.98802 0.0
C846 C 0.48269 0.03755 0.97364 0.0
C847 C 0.52385 0.09909 1.00033 0.0
N848 N 0.53169 0.06967 1.0012 0.0
C849 C 0.53631 0.08931 0.00445 0.0
C850 C 0.50678 0.08871 0.99232 0.0
Tb851 Tb 0.55111 0.05252 0.00797 0.0
N852 N 0.52579 0.03209 0.99097 0.0
C853 C 0.52406 0.01308 0.98398 0.0
C854 C 0.49392 0.00907 0.97116 0.0
C855 C 0.50807 1.00128 0.97424 0.0
H856 H 0.54944 0.09743 0.01075 0.0
H857 H 0.50665 0.98615 0.96922 0.0
H858 H 0.46997 0.02914 0.96629 0.0
H859 H 0.52743 0.11461 0.00335 0.0
H860 H 0.53472 0.00667 0.98631 0.0
H861 H 0.60886 0.10555 0.08943 0.0
H862 H 0.48154 0.9999 0.96365 0.0
H863 H 0.56181 0.99456 0.05107 0.0
H864 H 0.58056 0.08585 0.07225 0.0
H865 H 0.58207 0.97634 0.0607 0.0
H866 H 0.47564 0.06423 0.97554 0.0
H867 H 0.6326 0.09049 0.09678 0.0
H868 H 0.64234 0.0603 0.09623 0.0
H869 H 0.49718 0.09631 0.98909 0.0
H870 H 0.63504 0.02501 0.08843 0.0
N871 N 0.5881 0.05959 0.06898 0.0
C872 C 0.59065 0.07888 0.07524 0.0
C873 C 0.62016 0.08169 0.08912 0.0
C874 C 0.61709 0.06181 0.08377 0.0
C875 C 0.60677 0.09022 0.08504 0.0
C876 C 0.60071 0.05106 0.07367 0.0
H877 H 0.61243 0.99352 0.07549 0.0
N878 N 0.58064 0.02176 0.05986 0.0
C879 C 0.58646 0.99183 0.06295 0.0
C880 C 0.59681 0.0314 0.06896 0.0
C881 C 0.57501 1.00221 0.05751 0.0
C882 C 0.60359 1.00157 0.07126 0.0
C883 C 0.60888 0.02163 0.07464 0.0
O884 O 0.54472 0.02196 0.06585 0.0
O885 O 0.54308 0.03695 0.02929 0.0
O886 O 0.53663 0.06556 0.02828 0.0
O887 O 0.55312 0.06602 0.05607 0.0
O888 O 0.54192 0.01311 0.03994 0.0
O889 O 0.55679 0.05172 0.07852 0.0
O890 O 0.56684 0.07155 0.99359 0.0
O891 O 0.57064 0.05535 0.03066 0.0
O892 O 0.57648 0.02542 0.03198 0.0
O893 O 0.56133 0.02689 0.00394 0.0
O894 O 0.57114 0.07931 0.02036 0.0
O895 O 0.55811 0.04109 0.98212 0.0
C896 C 0.5342 0.01989 0.02782 0.0
C897 C 0.54837 0.02989 0.09833 0.0
C898 C 0.53533 0.02462 0.12663 0.0
C899 C 0.53503 0.03096 0.10982 0.0
C900 C 0.54914 0.01695 0.13187 0.0
C901 C 0.56234 0.02256 0.10369 0.0
C902 C 0.56266 0.01605 0.12044 0.0
C903 C 0.54107 0.07145 0.04643 0.0
C904 C 0.54643 0.03546 0.08044 0.0
C905 C 0.62549 0.03222 0.08411 0.0
C906 C 0.62963 0.0523 0.08859 0.0
C907 C 0.57925 0.07254 0.03218 0.0
C908 C 0.56353 0.06186 0.96104 0.0
C909 C 0.57663 0.06099 0.94915 0.0
C910 C 0.57446 0.06444 0.93113 0.0
C911 C 0.55887 0.06879 0.92508 0.0
C912 C 0.54802 0.06627 0.95502 0.0
C913 C 0.54575 0.06977 0.93705 0.0
C914 C 0.57271 0.02057 0.01363 0.0
C915 C 0.56663 0.05791 0.97953 0.0
H916 H 0.52417 0.03648 0.10549 0.0
H917 H 0.5496 0.01201 0.14489 0.0
H918 H 0.57281 0.02167 0.09497 0.0
H919 H 0.57339 0.01029 0.12455 0.0
H920 H 0.58842 0.05719 0.95384 0.0
H921 H 0.55689 0.0715 0.91119 0.0
H922 H 0.53775 0.06696 0.96408 0.0
H923 H 0.53378 0.07316 0.93237 0.0
Tb924 Tb 0.31227 0.31262 0.27193 0.0
C925 C 0.24807 0.25185 0.2302 0.0
C926 C 0.22767 0.2505 0.25366 0.0
C927 C 0.2163 0.24114 0.22089 0.0
C928 C 0.24511 0.2549 0.24865 0.0
C929 C 0.23373 0.24437 0.21608 0.0
C930 C 0.21327 0.24419 0.23968 0.0
C931 C 0.25486 0.24095 0.19395 0.0
N932 N 0.26506 0.25447 0.22622 0.0
C933 C 0.26858 0.24805 0.20854 0.0
C934 C 0.23735 0.23939 0.19769 0.0
Tb935 Tb 0.28665 0.26536 0.25096 0.0
N936 N 0.25937 0.26051 0.2617 0.0
C937 C 0.25706 0.26059 0.28002 0.0
C938 C 0.22528 0.25157 0.27251 0.0
C939 C 0.24007 0.25626 0.28569 0.0
H940 H 0.28207 0.24874 0.20567 0.0
H941 H 0.23848 0.25635 0.30023 0.0
H942 H 0.19977 0.2409 0.24324 0.0
H943 H 0.25778 0.23642 0.1799 0.0
H944 H 0.26822 0.26399 0.29041 0.0
H945 H 0.34417 0.35072 0.2203 0.0
H946 H 0.21211 0.24811 0.27694 0.0
H947 H 0.33219 0.30301 0.31004 0.0
H948 H 0.32053 0.34048 0.23921 0.0
H949 H 0.36095 0.30122 0.32146 0.0
H950 H 0.20509 0.23554 0.21024 0.0
H951 H 0.3737 0.34607 0.22752 0.0
H952 H 0.39416 0.33776 0.24987 0.0
H953 H 0.22671 0.23357 0.18643 0.0
H954 H 0.39893 0.32597 0.2784 0.0
N955 N 0.33446 0.32512 0.25425 0.0
C956 C 0.33249 0.33611 0.24133 0.0
C957 C 0.36287 0.34025 0.23511 0.0
C958 C 0.36567 0.33165 0.25007 0.0
C959 C 0.34624 0.34281 0.23095 0.0
C960 C 0.35102 0.32391 0.25933 0.0
H961 H 0.38663 0.31104 0.30426 0.0
N962 N 0.33934 0.30958 0.28369 0.0
C963 C 0.35906 0.30497 0.30802 0.0
C964 C 0.3536 0.31624 0.27475 0.0
C965 C 0.34224 0.30519 0.30084 0.0
C966 C 0.37351 0.31067 0.29838 0.0
C967 C 0.37101 0.317 0.28188 0.0
O968 O 0.31291 0.32698 0.29964 0.0
O969 O 0.28678 0.29194 0.26922 0.0
O970 O 0.28201 0.28255 0.2305 0.0
O971 O 0.30173 0.31261 0.24309 0.0
O972 O 0.28709 0.3191 0.26619 0.0
O973 O 0.3202 0.34269 0.27809 0.0
O974 O 0.29811 0.24353 0.23957 0.0
O975 O 0.31311 0.28454 0.25891 0.0
O976 O 0.30494 0.29651 0.29426 0.0
O977 O 0.29776 0.26473 0.27892 0.0
O978 O 0.30654 0.26965 0.23169 0.0
O979 O 0.27835 0.23842 0.25849 0.0
C980 C 0.27678 0.30256 0.26675 0.0
C981 C 0.30818 0.35773 0.30326 0.0
C982 C 0.28694 0.37624 0.2993 0.0
C983 C 0.2949 0.36174 0.29226 0.0
C984 C 0.29227 0.38646 0.31775 0.0
C985 C 0.31327 0.36796 0.32159 0.0
C986 C 0.30528 0.38223 0.32882 0.0
C987 C 0.29039 0.30036 0.22942 0.0
C988 C 0.31767 0.34383 0.29551 0.0
C989 C 0.38552 0.32495 0.27288 0.0
C990 C 0.38281 0.3317 0.25668 0.0
C991 C 0.31907 0.28142 0.2434 0.0
C992 C 0.28277 0.21144 0.23833 0.0
C993 C 0.29203 0.19897 0.24332 0.0
C994 C 0.28754 0.17977 0.23427 0.0
C995 C 0.27386 0.17304 0.21957 0.0
C996 C 0.26868 0.20472 0.22404 0.0
C997 C 0.26436 0.18554 0.21456 0.0
C998 C 0.3024 0.27799 0.29433 0.0
C999 C 0.28898 0.2313 0.24832 0.0
H1000 H 0.29105 0.3539 0.27808 0.0
H1001 H 0.28682 0.39812 0.32349 0.0
H1002 H 0.32363 0.36514 0.3302 0.0
H1003 H 0.30943 0.39031 0.34291 0.0
H1004 H 0.30294 0.20428 0.2544 0.0
H1005 H 0.27032 0.15819 0.21233 0.0
H1006 H 0.26108 0.21411 0.22025 0.0
H1007 H 0.2536 0.18034 0.20342 0.0
Tb1008 Tb 0.56095 0.56204 0.0377 0.0
C1009 C 0.58396 0.50605 0.97902 0.0
C1010 C 0.56102 0.49785 0.95314 0.0
C1011 C 0.59082 0.49604 0.94752 0.0
C1012 C 0.56671 0.50428 0.97235 0.0
C1013 C 0.59616 0.50156 0.96675 0.0
C1014 C 0.57327 0.49419 0.94072 0.0
C1015 C 0.61741 0.50646 0.99349 0.0
N1016 N 0.58851 0.51117 0.99771 0.0
C1017 C 0.60484 0.51069 0.0051 0.0
C1018 C 0.61315 0.50212 0.97421 0.0
Tb1019 Tb 0.56693 0.51812 0.01555 0.0
N1020 N 0.55526 0.50771 0.98482 0.0
C1021 C 0.53753 0.50351 0.979 0.0
C1022 C 0.54308 0.49465 0.94706 0.0
C1023 C 0.53124 0.49721 0.9601 0.0
H1024 H 0.60848 0.51385 0.01992 0.0
H1025 H 0.51726 0.49443 0.95562 0.0
H1026 H 0.56918 0.48942 0.9259 0.0
H1027 H 0.6304 0.50651 0.99943 0.0
H1028 H 0.52811 0.5054 0.98877 0.0
H1029 H 0.61374 0.58634 0.09473 0.0
H1030 H 0.53818 0.48974 0.93243 0.0
H1031 H 0.51932 0.56521 0.03588 0.0
H1032 H 0.60111 0.57466 0.0622 0.0
H1033 H 0.49856 0.57317 0.05783 0.0
H1034 H 0.60003 0.49268 0.93785 0.0
H1035 H 0.59442 0.59222 0.11928 0.0
H1036 H 0.5641 0.59335 0.12775 0.0
H1037 H 0.62289 0.49875 0.96526 0.0
H1038 H 0.53272 0.58982 0.11771 0.0
N1039 N 0.57437 0.57295 0.06781 0.0
C1040 C 0.59228 0.57694 0.07254 0.0
C1041 C 0.58869 0.58691 0.10492 0.0
C1042 C 0.57055 0.58384 0.09996 0.0
C1043 C 0.59963 0.58366 0.09111 0.0
C1044 C 0.56375 0.57686 0.08106 0.0
H1045 H 0.5082 0.58246 0.09166 0.0
N1046 N 0.54056 0.56917 0.05702 0.0
C1047 C 0.51191 0.57364 0.063 0.0
C1048 C 0.54621 0.57491 0.07546 0.0
C1049 C 0.52378 0.56914 0.05058 0.0
C1050 C 0.51738 0.57883 0.08208 0.0
C1051 C 0.5348 0.57981 0.08852 0.0
O1052 O 0.55297 0.58238 0.02498 0.0
O1053 O 0.55976 0.54366 0.01023 0.0
O1054 O 0.58777 0.53963 0.00677 0.0
O1055 O 0.58845 0.56491 0.03096 0.0
O1056 O 0.53958 0.55587 0.01482 0.0
O1057 O 0.57855 0.5896 0.04089 0.0
O1058 O 0.57274 0.49778 0.02987 0.0
O1059 O 0.56793 0.53642 0.04311 0.0
O1060 O 0.54009 0.5402 0.04609 0.0
O1061 O 0.53909 0.51565 0.02106 0.0
O1062 O 0.58827 0.52461 0.03851 0.0
O1063 O 0.54968 0.49016 0.00991 0.0
C1064 C 0.54556 0.54561 1.002 0.0
C1065 C 0.56587 0.61498 0.03714 0.0
C1066 C 0.56612 0.64576 0.02906 0.0
C1067 C 0.56871 0.62736 0.02455 0.0
C1068 C 0.5606 0.65164 0.04651 0.0
C1069 C 0.56047 0.62098 0.05454 0.0
C1070 C 0.55787 0.63931 0.05919 0.0
C1071 C 0.59558 0.55686 0.01683 0.0
C1072 C 0.56763 0.59558 0.03093 0.0
C1073 C 0.54129 0.58607 0.10745 0.0
C1074 C 0.55915 0.58808 0.11317 0.0
C1075 C 0.58225 0.53473 0.05139 0.0
C1076 C 0.56241 0.46544 0.01568 0.0
C1077 C 0.55803 0.45232 0.02735 0.0
C1078 C 0.56236 0.43472 0.02377 0.0
C1079 C 0.57087 0.43024 0.00788 0.0
C1080 C 0.57089 0.46088 0.99988 0.0
C1081 C 0.57503 0.44326 0.99599 0.0
C1082 C 0.53182 0.52355 0.03519 0.0
C1083 C 0.55915 0.48422 0.02149 0.0
H1084 H 0.57255 0.62243 0.01096 0.0
H1085 H 0.5586 0.66581 0.05043 0.0
H1086 H 0.55812 0.61151 0.06436 0.0
H1087 H 0.55367 0.64396 0.07261 0.0
H1088 H 0.55124 0.45596 0.03938 0.0
H1089 H 0.57453 0.41686 0.00478 0.0
H1090 H 0.57443 0.47091 0.99075 0.0
H1091 H 0.58168 0.43978 0.98386 0.0
Tb1092 Tb 0.83022 0.30805 0.26153 0.0
C1093 C 0.78281 0.24947 0.2984 0.0
C1094 C 0.78693 0.21894 0.28369 0.0
C1095 C 0.77805 0.2231 0.31498 0.0
C1096 C 0.78733 0.23818 0.2834 0.0
C1097 C 0.77768 0.24196 0.31422 0.0
C1098 C 0.7827 0.21161 0.29974 0.0
C1099 C 0.77048 0.27153 0.32644 0.0
N1100 N 0.78231 0.26747 0.29695 0.0
C1101 C 0.77566 0.27832 0.31044 0.0
C1102 C 0.77171 0.25336 0.32845 0.0
Tb1103 Tb 0.79065 0.2772 0.27005 0.0
N1104 N 0.79094 0.24568 0.26804 0.0
C1105 C 0.79302 0.23411 0.25196 0.0
C1106 C 0.79014 0.20744 0.26763 0.0
C1107 C 0.79294 0.215 0.25161 0.0
H1108 H 0.77466 0.2924 0.30916 0.0
H1109 H 0.79505 0.20612 0.23896 0.0
H1110 H 0.78245 0.19692 0.30029 0.0
H1111 H 0.76557 0.28033 0.33721 0.0
H1112 H 0.79516 0.23955 0.23936 0.0
H1113 H 0.82328 0.37841 0.29161 0.0
H1114 H 0.79 0.19261 0.26729 0.0
H1115 H 0.84898 0.29453 0.22374 0.0
H1116 H 0.82466 0.34555 0.29179 0.0
H1117 H 0.85661 0.30595 0.19502 0.0
H1118 H 0.77429 0.21711 0.32706 0.0
H1119 H 0.82759 0.39155 0.26299 0.0
H1120 H 0.83481 0.38709 0.22987 0.0
H1121 H 0.76761 0.24811 0.34081 0.0
H1122 H 0.8438 0.36725 0.2034 0.0
N1123 N 0.82918 0.33934 0.26321 0.0
C1124 C 0.82658 0.35082 0.27909 0.0
C1125 C 0.82811 0.37695 0.26291 0.0
C1126 C 0.83174 0.36558 0.24701 0.0
C1127 C 0.82577 0.36962 0.2791 0.0
C1128 C 0.83234 0.34669 0.24769 0.0
H1129 H 0.85216 0.337 0.19033 0.0
N1130 N 0.83894 0.31811 0.23483 0.0
C1131 C 0.85104 0.31438 0.20549 0.0
C1132 C 0.83739 0.33565 0.23292 0.0
C1133 C 0.84653 0.30786 0.22179 0.0
C1134 C 0.84849 0.3319 0.20288 0.0
C1135 C 0.84197 0.34299 0.21688 0.0
O1136 O 0.85552 0.30323 0.26278 0.0
O1137 O 0.81884 0.27964 0.26822 0.0
O1138 O 0.80811 0.28464 0.296 0.0
O1139 O 0.82525 0.31332 0.29073 0.0
O1140 O 0.83606 0.28096 0.24881 0.0
O1141 O 0.85047 0.32704 0.2812 0.0
O1142 O 0.76482 0.28031 0.2703 0.0
O1143 O 0.80188 0.30533 0.26298 0.0
O1144 O 0.81361 0.30028 0.23528 0.0
O1145 O 0.79501 0.27217 0.24063 0.0
O1146 O 0.7843 0.30432 0.28187 0.0
O1147 O 0.77099 0.25912 0.24925 0.0
C1148 C 0.8269 0.26919 0.25782 0.0
C1149 C 0.87977 0.32987 0.27357 0.0
C1150 C 0.91175 0.33826 0.28182 0.0
C1151 C 0.8945 0.32834 0.28431 0.0
C1152 C 0.91398 0.34992 0.26842 0.0
C1153 C 0.88217 0.34159 0.26033 0.0
C1154 C 0.89925 0.35158 0.25779 0.0
C1155 C 0.81952 0.30156 0.302 0.0
C1156 C 0.86226 0.31817 0.27589 0.0
C1157 C 0.8405 0.3614 0.21567 0.0
C1158 C 0.83539 0.37269 0.23074 0.0
C1159 C 0.79341 0.31587 0.27262 0.0
C1160 C 0.74153 0.25329 0.25691 0.0
C1161 C 0.72741 0.253 0.24428 0.0
C1162 C 0.70992 0.24358 0.24644 0.0
C1163 C 0.70704 0.23303 0.26074 0.0
C1164 C 0.73852 0.24277 0.27107 0.0
C1165 C 0.72133 0.23242 0.27276 0.0
C1166 C 0.80158 0.28381 0.22954 0.0
C1167 C 0.75868 0.26647 0.25592 0.0
H1168 H 0.89247 0.31939 0.29465 0.0
H1169 H 0.9271 0.35753 0.26596 0.0
H1170 H 0.87096 0.34292 0.25191 0.0
H1171 H 0.90109 0.3605 0.24745 0.0
H1172 H 0.73013 0.26088 0.23317 0.0
H1173 H 0.69378 0.22582 0.26315 0.0
H1174 H 0.74928 0.24287 0.28099 0.0
H1175 H 0.71897 0.22447 0.28385 0.0
Tb1176 Tb 0.06472 0.55268 0.55589 0.0
C1177 C 0.01133 0.55699 0.49318 0.0
C1178 C 0.99563 0.52398 0.47971 0.0
C1179 C 0.98137 0.54932 0.47748 0.0
C1180 C 0.0111 0.53771 0.48917 0.0
C1181 C 0.99656 0.56296 0.48703 0.0
C1182 C 0.98087 0.52988 0.47394 0.0
C1183 C 0.01293 0.59573 0.49946 0.0
N1184 N 0.02597 0.56992 0.50292 0.0
C1185 C 0.02715 0.58924 0.50537 0.0
C1186 C 0.99748 0.58252 0.49041 0.0
Tb1187 Tb 0.04936 0.55771 0.50981 0.0
N1188 N 0.02561 0.53232 0.49505 0.0
C1189 C 0.0249 0.51311 0.49209 0.0
C1190 C 0.99521 0.50459 0.47654 0.0
C1191 C 0.00985 0.49917 0.48285 0.0
H1192 H 0.039 0.59983 0.51239 0.0
H1193 H 0.00948 0.48411 0.48086 0.0
H1194 H 0.96896 0.5195 0.46669 0.0
H1195 H 0.01394 0.61094 0.50187 0.0
H1196 H 0.03524 0.50773 0.49746 0.0
H1197 H 0.12023 0.61432 0.58301 0.0
H1198 H 0.98352 0.49368 0.46952 0.0
H1199 H 0.05879 0.50616 0.55814 0.0
H1200 H 0.0899 0.59778 0.56886 0.0
H1201 H 0.07687 0.48571 0.56683 0.0
H1202 H 0.96993 0.55366 0.47275 0.0
H1203 H 0.14088 0.59564 0.59059 0.0
H1204 H 0.14636 0.56361 0.59116 0.0
H1205 H 0.98645 0.5876 0.48582 0.0
H1206 H 0.13465 0.52858 0.58643 0.0
N1207 N 0.09319 0.56963 0.56759 0.0
C1208 C 0.09867 0.58927 0.57181 0.0
C1209 C 0.12759 0.58822 0.58408 0.0
C1210 C 0.1218 0.56819 0.58032 0.0
C1211 C 0.11594 0.5988 0.57992 0.0
C1212 C 0.10424 0.5592 0.57216 0.0
H1213 H 0.10876 0.49947 0.57755 0.0
N1214 N 0.08034 0.5316 0.56271 0.0
C1215 C 0.08292 0.5008 0.5675 0.0
C1216 C 0.09765 0.53953 0.56953 0.0
C1217 C 0.0727 0.51257 0.56251 0.0
C1218 C 0.10092 0.50861 0.57351 0.0
C1219 C 0.10843 0.52825 0.57495 0.0
O1220 O 0.04397 0.54725 0.5729 0.0
O1221 O 0.04308 0.54756 0.53461 0.0
O1222 O 0.0387 0.57442 0.53171 0.0
O1223 O 0.06047 0.58118 0.55628 0.0
O1224 O 0.04251 0.52659 0.54948 0.0
O1225 O 0.0694 0.56552 0.58442 0.0
O1226 O 0.06094 0.58368 0.50162 0.0
O1227 O 0.0699 0.56784 0.53344 0.0
O1228 O 0.0743 0.53278 0.53542 0.0
O1229 O 0.05937 0.53231 0.50629 0.0
O1230 O 0.07754 0.56247 0.50698 0.0
O1231 O 0.05097 0.55625 0.48112 0.0
C1232 C 0.03413 0.53131 0.53625 0.0
C1233 C 0.05306 0.54677 0.60359 0.0
C1234 C 0.03727 0.53676 0.62914 0.0
C1235 C 0.03892 0.54652 0.61432 0.0
C1236 C 0.04982 0.52685 0.63291 0.0
C1237 C 0.06572 0.53714 0.60768 0.0
C1238 C 0.064 0.5271 0.62221 0.0
C1239 C 0.04634 0.58443 0.54817 0.0
C1240 C 0.05386 0.55676 0.58798 0.0
C1241 C 0.12614 0.53703 0.5823 0.0
C1242 C 0.13281 0.55697 0.58501 0.0
C1243 C 0.08306 0.56861 0.52428 0.0
C1244 C 0.06357 0.58487 0.46911 0.0
C1245 C 0.07514 0.57889 0.45705 0.0
C1246 C 0.08036 0.58851 0.44256 0.0
C1247 C 0.07351 0.60396 0.44011 0.0
C1248 C 0.05702 0.60043 0.46669 0.0
C1249 C 0.0619 0.60984 0.45213 0.0
C1250 C 0.06955 0.52576 0.51726 0.0
C1251 C 0.05832 0.5748 0.48417 0.0
H1252 H 0.02912 0.55391 0.61106 0.0
H1253 H 0.04892 0.51935 0.64438 0.0
H1254 H 0.0769 0.53738 0.59974 0.0
H1255 H 0.07376 0.51965 0.6253 0.0
H1256 H 0.08003 0.56672 0.45893 0.0
H1257 H 0.0773 0.61162 0.42905 0.0
H1258 H 0.04801 0.60514 0.47591 0.0
H1259 H 0.05671 0.62177 0.45019 0.0
Tb1260 Tb 0.7813 0.79477 0.27034 0.0
C1261 C 0.84024 0.76968 0.30191 0.0
C1262 C 0.85084 0.79505 0.32911 0.0
C1263 C 0.85347 0.76296 0.32989 0.0
C1264 C 0.84265 0.78846 0.31065 0.0
C1265 C 0.84631 0.75686 0.31113 0.0
C1266 C 0.85571 0.78204 0.33889 0.0
C1267 C 0.84081 0.73435 0.28174 0.0
N1268 N 0.83376 0.76459 0.28367 0.0
C1269 C 0.83523 0.74773 0.2732 0.0
C1270 C 0.84598 0.73876 0.3009 0.0
Tb1271 Tb 0.8248 0.78742 0.27083 0.0
N1272 N 0.83807 0.80058 0.30058 0.0
C1273 C 0.84233 0.81984 0.30783 0.0
C1274 C 0.85436 0.8146 0.33694 0.0
C1275 C 0.85032 0.82709 0.32614 0.0
H1276 H 0.83145 0.74439 0.25833 0.0
H1277 H 0.8533 0.84229 0.33192 0.0
H1278 H 0.8618 0.78676 0.35316 0.0
H1279 H 0.84124 0.72072 0.27353 0.0
H1280 H 0.83935 0.82967 0.29969 0.0
H1281 H 0.74077 0.73473 0.21775 0.0
H1282 H 0.86058 0.82024 0.35109 0.0
H1283 H 0.77941 0.84082 0.27315 0.0
H1284 H 0.75395 0.75075 0.24914 0.0
H1285 H 0.77747 0.86213 0.25143 0.0
H1286 H 0.85798 0.75326 0.33732 0.0
H1287 H 0.74223 0.75289 0.19242 0.0
H1288 H 0.75027 0.78469 0.18277 0.0
H1289 H 0.85053 0.72849 0.30745 0.0
H1290 H 0.76098 0.81982 0.19189 0.0
N1291 N 0.76524 0.77807 0.24203 0.0
C1292 C 0.75583 0.75908 0.23841 0.0
C1293 C 0.74855 0.7601 0.20626 0.0
C1294 C 0.75658 0.77981 0.21033 0.0
C1295 C 0.74776 0.74981 0.2205 0.0
C1296 C 0.76462 0.78851 0.22862 0.0
H1297 H 0.77082 0.84893 0.21761 0.0
N1298 N 0.77637 0.81584 0.25186 0.0
C1299 C 0.77592 0.84702 0.24613 0.0
C1300 C 0.77068 0.80814 0.23368 0.0
C1301 C 0.77732 0.83483 0.2584 0.0
C1302 C 0.77218 0.83953 0.22709 0.0
C1303 C 0.76874 0.81974 0.22071 0.0
O1304 O 0.76987 0.81252 0.28911 0.0
O1305 O 0.80627 0.79873 0.28728 0.0
O1306 O 0.80697 0.76001 0.27557 0.0
O1307 O 0.77849 0.76363 0.26982 0.0
O1308 O 0.78336 0.78546 0.29667 0.0
O1309 O 0.75486 0.7842 0.2757 0.0
O1310 O 0.83956 0.78048 0.24858 0.0
O1311 O 0.8022 0.78969 0.25352 0.0
O1312 O 0.80132 0.82377 0.2761 0.0
O1313 O 0.82679 0.81678 0.26577 0.0
O1314 O 0.81258 0.76666 0.24577 0.0
O1315 O 0.85102 0.8042 0.27062 0.0
C1316 C 0.80011 0.79199 0.30101 0.0
C1317 C 0.73812 0.80571 0.28739 0.0
C1318 C 0.70996 0.80681 0.30038 0.0
C1319 C 0.72568 0.80058 0.30016 0.0
C1320 C 0.70692 0.81801 0.28752 0.0
C1321 C 0.73437 0.81651 0.27454 0.0
C1322 C 0.71893 0.82267 0.27469 0.0
C1323 C 0.78937 0.75293 0.27296 0.0
C1324 C 0.75478 0.79955 0.28759 0.0
C1325 C 0.76224 0.81114 0.20212 0.0
C1326 C 0.75612 0.79116 0.19693 0.0
C1327 C 0.80097 0.775 0.24086 0.0
C1328 C 0.8708 0.78833 0.25548 0.0
C1329 C 0.8832 0.79352 0.24273 0.0
C1330 C 0.8992 0.78775 0.24292 0.0
C1331 C 0.90183 0.7758 0.25524 0.0
C1332 C 0.87479 0.77779 0.26848 0.0
C1333 C 0.88988 0.77113 0.26802 0.0
C1334 C 0.81743 0.82931 0.27051 0.0
C1335 C 0.85383 0.79394 0.25537 0.0
H1336 H 0.72834 0.79203 0.31002 0.0
H1337 H 0.695 0.82292 0.28717 0.0
H1338 H 0.74331 0.82013 0.26432 0.0
H1339 H 0.71621 0.83109 0.26474 0.0
H1340 H 0.88062 0.80237 0.23315 0.0
H1341 H 0.91336 0.77022 0.25528 0.0
H1342 H 0.86636 0.77475 0.27914 0.0
H1343 H 0.89245 0.76249 0.27782 0.0
Tb1344 Tb 0.82538 0.29218 0.74367 0.0
C1345 C 0.79133 0.33904 0.80031 0.0
C1346 C 0.81657 0.36355 0.81743 0.0
C1347 C 0.78737 0.36927 0.81668 0.0
C1348 C 0.80926 0.34539 0.80579 0.0
C1349 C 0.78004 0.35061 0.80624 0.0
C1350 C 0.80563 0.37571 0.82233 0.0
C1351 C 0.7551 0.32319 0.79448 0.0
N1352 N 0.78475 0.32065 0.79108 0.0
C1353 C 0.76689 0.31224 0.78923 0.0
C1354 C 0.76169 0.3426 0.80266 0.0
Tb1355 Tb 0.80476 0.30316 0.78458 0.0
N1356 N 0.81933 0.33314 0.8009 0.0
C1357 C 0.83668 0.33778 0.80813 0.0
C1358 C 0.83442 0.36848 0.82455 0.0
C1359 C 0.84438 0.35532 0.82019 0.0
H1360 H 0.76172 0.29714 0.78322 0.0
H1361 H 0.85798 0.35853 0.82625 0.0
H1362 H 0.81104 0.38981 0.83107 0.0
H1363 H 0.74095 0.31659 0.79238 0.0
H1364 H 0.84462 0.32791 0.80502 0.0
H1365 H 0.77446 0.2556 0.6856 0.0
H1366 H 0.84047 0.38213 0.83384 0.0
H1367 H 0.85843 0.27416 0.75858 0.0
H1368 H 0.79645 0.28319 0.70463 0.0
H1369 H 0.862 0.24315 0.76244 0.0
H1370 H 0.77894 0.37845 0.82122 0.0
H1371 H 0.77315 0.22286 0.69033 0.0
H1372 H 0.7868 0.20151 0.70594 0.0
H1373 H 0.75256 0.35097 0.80702 0.0
H1374 H 0.81085 0.19811 0.72699 0.0
N1375 N 0.80587 0.26705 0.72256 0.0
C1376 C 0.7953 0.26929 0.70799 0.0
C1377 C 0.78247 0.23509 0.69927 0.0
C1378 C 0.79472 0.23261 0.71256 0.0
C1379 C 0.7831 0.25352 0.69665 0.0
C1380 C 0.80657 0.24905 0.72389 0.0
H1381 H 0.8388 0.21351 0.74838 0.0
N1382 N 0.83158 0.26331 0.74567 0.0
C1383 C 0.84978 0.24401 0.7554 0.0
C1384 C 0.81986 0.24712 0.7359 0.0
C1385 C 0.8473 0.26183 0.75376 0.0
C1386 C 0.83675 0.22734 0.74735 0.0
C1387 C 0.8219 0.22871 0.73678 0.0
O1388 O 0.85245 0.30077 0.73951 0.0
O1389 O 0.82481 0.31389 0.76743 0.0
O1390 O 0.78933 0.31154 0.7627 0.0
O1391 O 0.80049 0.30004 0.73516 0.0
O1392 O 0.82643 0.32173 0.74184 0.0
O1393 O 0.83212 0.29081 0.71636 0.0
O1394 O 0.78772 0.28263 0.79658 0.0
O1395 O 0.80978 0.28078 0.76394 0.0
O1396 O 0.8456 0.29851 0.76816 0.0
O1397 O 0.8283 0.29349 0.79225 0.0
O1398 O 0.78392 0.27999 0.76792 0.0
O1399 O 0.81017 0.30317 0.81302 0.0
C1400 C 0.82574 0.32783 0.7593 0.0
C1401 C 0.85913 0.31147 0.71144 0.0
C1402 C 0.86048 0.33396 0.69036 0.0
C1403 C 0.8511 0.32295 0.70229 0.0
C1404 C 0.87813 0.33354 0.6882 0.0
C1405 C 0.87677 0.31159 0.70926 0.0
C1406 C 0.88623 0.32264 0.69776 0.0
C1407 C 0.78866 0.30755 0.74415 0.0
C1408 C 0.84899 0.29754 0.72154 0.0
C1409 C 0.80955 0.21232 0.72639 0.0
C1410 C 0.79591 0.21427 0.71435 0.0
C1411 C 0.79402 0.27059 0.75964 0.0
C1412 C 0.78562 0.29084 0.82857 0.0
C1413 C 0.78206 0.27593 0.83836 0.0
C1414 C 0.77217 0.27688 0.85365 0.0
C1415 C 0.76534 0.29281 0.85867 0.0
C1416 C 0.77914 0.30689 0.834 0.0
C1417 C 0.7688 0.3077 0.84883 0.0
C1418 C 0.84355 0.29475 0.78507 0.0
C1419 C 0.79634 0.28908 0.81301 0.0
H1420 H 0.83752 0.32297 0.70421 0.0
H1421 H 0.88565 0.34123 0.67873 0.0
H1422 H 0.88308 0.30266 0.71605 0.0
H1423 H 0.89975 0.32235 0.69586 0.0
H1424 H 0.7877 0.26393 0.83451 0.0
H1425 H 0.75763 0.29388 0.87038 0.0
H1426 H 0.78218 0.31883 0.82706 0.0
H1427 H 0.76375 0.32007 0.85292 0.0
Tb1428 Tb 0.8127 0.8148 0.77749 0.0
C1429 C 0.74479 0.76557 0.74507 0.0
C1430 C 0.72859 0.7594 0.77136 0.0
C1431 C 0.71273 0.76104 0.74264 0.0
C1432 C 0.74477 0.76304 0.76328 0.0
C1433 C 0.7286 0.76394 0.7344 0.0
C1434 C 0.71272 0.75879 0.76109 0.0
C1435 C 0.74415 0.76463 0.70724 0.0
N1436 N 0.76031 0.76803 0.73733 0.0
C1437 C 0.75967 0.7658 0.71824 0.0
C1438 C 0.72859 0.76415 0.71544 0.0
Tb1439 Tb 0.78513 0.76816 0.75637 0.0
N1440 N 0.76037 0.76352 0.77287 0.0
C1441 C 0.76006 0.75954 0.79048 0.0
C1442 C 0.72863 0.75605 0.78943 0.0
C1443 C 0.74444 0.75616 0.79901 0.0
H1444 H 0.77106 0.76455 0.71111 0.0
H1445 H 0.74457 0.75323 0.81295 0.0
H1446 H 0.7003 0.75616 0.76718 0.0
H1447 H 0.74413 0.76351 0.69234 0.0
H1448 H 0.77137 0.75827 0.79838 0.0
H1449 H 0.85281 0.83365 0.72148 0.0
H1450 H 0.71647 0.75289 0.79592 0.0
H1451 H 0.82654 0.81558 0.82233 0.0
H1452 H 0.82594 0.82205 0.73413 0.0
H1453 H 0.85383 0.81957 0.84148 0.0
H1454 H 0.70028 0.75989 0.73468 0.0
H1455 H 0.88149 0.84201 0.74073 0.0
H1456 H 0.89811 0.84533 0.77147 0.0
H1457 H 0.71646 0.76282 0.70682 0.0
H1458 H 0.89861 0.8388 0.80295 0.0
N1459 N 0.83764 0.82182 0.76136 0.0
C1460 C 0.83761 0.82477 0.74336 0.0
C1461 C 0.86939 0.83624 0.74656 0.0
C1462 C 0.86973 0.83337 0.7648 0.0
C1463 C 0.85327 0.83161 0.73572 0.0
C1464 C 0.85357 0.82552 0.77173 0.0
H1465 H 0.88239 0.82803 0.82863 0.0
N1466 N 0.83809 0.81629 0.79653 0.0
C1467 C 0.85409 0.81986 0.82681 0.0
C1468 C 0.85381 0.82231 0.78968 0.0
C1469 C 0.83834 0.81669 0.8154 0.0
C1470 C 0.87014 0.82473 0.81955 0.0
C1471 C 0.87018 0.82687 0.80109 0.0
O1472 O 0.80922 0.83068 0.80303 0.0
O1473 O 0.78668 0.79471 0.77524 0.0
O1474 O 0.78997 0.78699 0.7357 0.0
O1475 O 0.80223 0.81897 0.75066 0.0
O1476 O 0.78801 0.82226 0.77211 0.0
O1477 O 0.82227 0.84486 0.78228 0.0
O1478 O 0.78761 0.75029 0.73154 0.0
O1479 O 0.81104 0.78844 0.75861 0.0
O1480 O 0.80801 0.79526 0.79764 0.0
O1481 O 0.79566 0.76337 0.78278 0.0
O1482 O 0.81027 0.76076 0.76033 0.0
O1483 O 0.77331 0.73856 0.75291 0.0
C1484 C 0.77737 0.80592 0.77256 0.0
C1485 C 0.80904 0.86275 0.80473 0.0
C1486 C 0.78974 0.88278 0.79887 0.0
C1487 C 0.79709 0.86751 0.79264 0.0
C1488 C 0.79456 0.8932 0.8173 0.0
C1489 C 0.81361 0.87322 0.82305 0.0
C1490 C 0.8064 0.88839 0.82929 0.0
C1491 C 0.79445 0.80567 0.73575 0.0
C1492 C 0.81702 0.847 0.79888 0.0
C1493 C 0.88606 0.83484 0.79426 0.0
C1494 C 0.88577 0.83856 0.77635 0.0
C1495 C 0.82064 0.77747 0.76066 0.0
C1496 C 0.7843 0.71758 0.73126 0.0
C1497 C 0.79721 0.71349 0.74267 0.0
C1498 C 0.80261 0.69666 0.73731 0.0
C1499 C 0.79488 0.68401 0.72043 0.0
C1500 C 0.77677 0.70489 0.71447 0.0
C1501 C 0.78205 0.68816 0.70909 0.0
C1502 C 0.80336 0.77659 0.79769 0.0
C1503 C 0.77831 0.73491 0.73633 0.0
H1504 H 0.79356 0.8594 0.77849 0.0
H1505 H 0.78951 0.90538 0.82237 0.0
H1506 H 0.82284 0.86968 0.83252 0.0
H1507 H 0.8101 0.89654 0.84341 0.0
H1508 H 0.80303 0.72337 0.75561 0.0
H1509 H 0.79849 0.67073 0.71614 0.0
H1510 H 0.76675 0.7079 0.70554 0.0
H1511 H 0.7761 0.67833 0.69618 0.0
Tb1512 Tb 0.54253 0.53331 0.52168 0.0
C1513 C 0.59292 0.60795 0.55811 0.0
C1514 C 0.60138 0.62442 0.53295 0.0
C1515 C 0.60238 0.64296 0.56395 0.0
C1516 C 0.59536 0.60711 0.53948 0.0
C1517 C 0.59683 0.62595 0.57058 0.0
C1518 C 0.60474 0.64219 0.54521 0.0
C1519 C 0.59202 0.60937 0.59595 0.0
N1520 N 0.58777 0.59129 0.5643 0.0
C1521 C 0.58853 0.59199 0.58324 0.0
C1522 C 0.59586 0.62645 0.58957 0.0
Tb1523 Tb 0.58368 0.56315 0.54239 0.0
N1524 N 0.59205 0.58959 0.52784 0.0
C1525 C 0.59417 0.58911 0.50925 0.0
C1526 C 0.60397 0.62353 0.51426 0.0
C1527 C 0.60023 0.60582 0.50238 0.0
H1528 H 0.58603 0.57905 0.58883 0.0
H1529 H 0.60164 0.60497 0.48769 0.0
H1530 H 0.60939 0.65549 0.54037 0.0
H1531 H 0.59194 0.60954 0.61072 0.0
H1532 H 0.59022 0.57636 0.49878 0.0
H1533 H 0.53363 0.4752 0.55976 0.0
H1534 H 0.60861 0.63644 0.5088 0.0
H1535 H 0.53028 0.53126 0.47672 0.0
H1536 H 0.53861 0.50839 0.55665 0.0
H1537 H 0.52249 0.507 0.44778 0.0
H1538 H 0.60535 0.65681 0.57332 0.0
H1539 H 0.53033 0.44956 0.53201 0.0
H1540 H 0.52719 0.43977 0.49733 0.0
H1541 H 0.59878 0.63995 0.59948 0.0
H1542 H 0.52416 0.44842 0.46672 0.0
N1543 N 0.53872 0.50261 0.52696 0.0
C1544 C 0.5371 0.49779 0.54411 0.0
C1545 C 0.53257 0.46432 0.53041 0.0
C1546 C 0.53292 0.46902 0.51281 0.0
C1547 C 0.53432 0.47873 0.54608 0.0
C1548 C 0.53593 0.4885 0.51148 0.0
H1549 H 0.52201 0.47334 0.44817 0.0
N1550 N 0.53561 0.51201 0.49359 0.0
C1551 C 0.52603 0.50301 0.46069 0.0
C1552 C 0.53429 0.49335 0.49422 0.0
C1553 C 0.53066 0.5168 0.47721 0.0
C1554 C 0.52581 0.48404 0.46096 0.0
C1555 C 0.52954 0.47891 0.4779 0.0
O1556 O 0.52348 0.54888 0.52694 0.0
O1557 O 0.55825 0.56325 0.52977 0.0
O1558 O 0.56313 0.56523 0.56276 0.0
O1559 O 0.53987 0.53844 0.55194 0.0
O1560 O 0.54513 0.55412 0.50344 0.0
O1561 O 0.51547 0.51843 0.51808 0.0
O1562 O 0.59573 0.55706 0.56606 0.0
O1563 O 0.56559 0.53457 0.54007 0.0
O1564 O 0.56118 0.53078 0.49961 0.0
O1565 O 0.58843 0.552 0.51306 0.0
O1566 O 0.59101 0.53613 0.53422 0.0
O1567 O 0.61141 0.57364 0.54822 0.0
C1568 C 0.55497 0.5689 0.51482 0.0
C1569 C 0.49645 0.53582 0.50787 0.0
C1570 C 0.47443 0.55233 0.50051 0.0
C1571 C 0.48785 0.55024 0.51283 0.0
C1572 C 0.47004 0.54017 0.48284 0.0
C1573 C 0.49144 0.52332 0.49043 0.0
C1574 C 0.47851 0.52574 0.47789 0.0
C1575 C 0.54795 0.55325 0.56536 0.0
C1576 C 0.51021 0.53392 0.52135 0.0
C1577 C 0.52766 0.45968 0.47912 0.0
C1578 C 0.52938 0.45475 0.49654 0.0
C1579 C 0.57629 0.52436 0.53591 0.0
C1580 C 0.62648 0.5593 0.5686 0.0
C1581 C 0.63439 0.54828 0.55572 0.0
C1582 C 0.64872 0.54186 0.56204 0.0
C1583 C 0.65514 0.54676 0.58103 0.0
C1584 C 0.63314 0.56406 0.58749 0.0
C1585 C 0.64742 0.55787 0.59365 0.0
C1586 C 0.5781 0.53977 0.49839 0.0
C1587 C 0.61149 0.56656 0.56332 0.0
H1588 H 0.49141 0.55965 0.52644 0.0
H1589 H 0.45955 0.5413 0.47317 0.0
H1590 H 0.49729 0.51156 0.48652 0.0
H1591 H 0.47475 0.51611 0.46445 0.0
H1592 H 0.6294 0.5446 0.54108 0.0
H1593 H 0.66627 0.54209 0.58606 0.0
H1594 H 0.62728 0.57269 0.59753 0.0
H1595 H 0.65252 0.56168 0.60825 0.0
Tb1596 Tb 0.08015 0.55168 0.03019 0.0
C1597 C 0.01588 0.51465 0.0681 0.0
C1598 C 0.99923 0.48614 0.04615 0.0
C1599 C 0.99717 0.48811 0.07931 0.0
C1600 C 0.01117 0.5046 0.04999 0.0
C1601 C 0.00878 0.50665 0.08298 0.0
C1602 C 0.99241 0.47787 0.06092 0.0
C1603 C 0.02421 0.53631 0.10388 0.0
N1604 N 0.02701 0.53259 0.07106 0.0
C1605 C 0.0308 0.54371 0.08867 0.0
C1606 C 0.01325 0.51766 0.10106 0.0
Tb1607 Tb 0.03642 0.5435 0.04498 0.0
N1608 N 0.01788 0.51315 0.03609 0.0
C1609 C 0.01252 0.50423 0.01789 0.0
C1610 C 0.99424 0.4767 0.02758 0.0
C1611 C 1.00082 0.48585 0.01339 0.0
H1612 H 0.03919 0.55818 0.09117 0.0
H1613 H 0.99689 0.47878 0.99895 0.0
H1614 H 0.98325 0.46369 0.05825 0.0
H1615 H 0.02754 0.54505 0.11778 0.0
H1616 H 0.01735 0.51106 0.0067 0.0
H1617 H 0.11727 0.61528 0.07973 0.0
H1618 H 0.98512 0.46249 0.02404 0.0
H1619 H 0.08072 0.5393 0.98446 0.0
H1620 H 0.09829 0.58249 0.07006 0.0
H1621 H 0.09285 0.55441 0.95906 0.0
H1622 H 0.9916 0.48169 0.09055 0.0
H1623 H 0.12872 0.63394 0.05612 0.0
H1624 H 0.13141 0.63502 0.02236 0.0
H1625 H 0.00807 0.51202 0.11286 0.0
H1626 H 0.12481 0.61843 0.98948 0.0
N1627 N 0.09822 0.58221 0.04091 0.0
C1628 C 0.10305 0.59019 0.05942 0.0
C1629 C 0.12027 0.61945 0.05171 0.0
C1630 C 0.11604 0.61094 0.03283 0.0
C1631 C 0.11387 0.60895 0.06506 0.0
C1632 C 0.1049 0.59208 0.02786 0.0
H1633 H 0.11058 0.5883 0.96575 0.0
N1634 N 0.09098 0.5645 0.00556 0.0
C1635 C 0.09522 0.56263 0.97318 0.0
C1636 C 0.10114 0.58288 0.00949 0.0
C1637 C 0.08837 0.5541 0.9877 0.0
C1638 C 0.10518 0.58177 0.977 0.0
C1639 C 0.10845 0.59209 0.99537 0.0
O1640 O 0.09334 0.5312 0.01904 0.0
O1641 O 0.05627 0.52997 0.03334 0.0
O1642 O 0.05195 0.5323 0.06352 0.0
O1643 O 0.07977 0.55106 0.06001 0.0
O1644 O 0.06807 0.52564 0.00962 0.0
O1645 O 0.10275 0.5494 0.04581 0.0
O1646 O 0.02472 0.56586 0.05399 0.0
O1647 O 0.06007 0.56463 0.04098 0.0
O1648 O 0.064 0.56204 0.01121 0.0
O1649 O 0.03626 0.54308 0.01503 0.0
O1650 O 0.04887 0.57067 0.0646 0.0
O1651 O 0.01156 0.54296 0.0314 0.0
C1652 C 0.05545 0.51778 0.01837 0.0
C1653 C 0.12387 0.53773 0.0287 0.0
C1654 C 0.15061 0.52615 0.02838 0.0
C1655 C 0.13295 0.52422 0.0325 0.0
C1656 C 0.15883 0.54146 0.02012 0.0
C1657 C 0.13242 0.55282 0.02043 0.0
C1658 C 0.14976 0.55459 0.01611 0.0
C1659 C 0.06897 0.53998 0.06921 0.0
C1660 C 0.10546 0.53587 0.03316 0.0
C1661 C 0.11913 0.61107 1.00012 0.0
C1662 C 0.1229 0.6205 0.01883 0.0
C1663 C 0.06135 0.57769 0.05522 0.0
C1664 C 0.99368 0.55914 0.04994 0.0
C1665 C 0.9826 0.56946 0.04308 0.0
C1666 C 0.96741 0.57173 0.05184 0.0
C1667 C 0.9639 0.56373 0.06776 0.0
C1668 C 0.98936 0.55089 0.06541 0.0
C1669 C 0.97464 0.55326 0.07429 0.0
C1670 C 0.04694 0.55404 0.00566 0.0
C1671 C 0.01061 0.55872 0.04217 0.0
H1672 H 0.12644 0.5125 0.03889 0.0
H1673 H 0.17232 0.5432 0.01668 0.0
H1674 H 0.12571 0.56323 0.01733 0.0
H1675 H 0.15624 0.56626 0.00967 0.0
H1676 H 0.98587 0.5757 0.03103 0.0
H1677 H 0.95292 0.5657 0.07543 0.0
H1678 H 0.99758 0.54304 0.071 0.0
H1679 H 0.97168 0.54718 0.08648 0.0
H1680 H 0.03036 0.20561 0.92296 0.0
H1681 H 0.0356 0.17987 0.93758 0.0
H1682 H 0.03401 0.21344 0.99162 0.0
H1683 H 0.02818 0.23909 0.97693 0.0
H1684 H 0.0613 0.17655 0.96007 0.0
H1685 H 1.00208 0.16459 0.99832 0.0
H1686 H 0.00483 0.17969 0.9813 0.0
H1687 H 0.01589 0.18871 0.0046 0.0
C1688 C 0.03095 0.20758 0.93798 0.0
C1689 C 0.02863 0.22467 0.9486 0.0
C1690 C 0.03404 0.19269 0.94642 0.0
C1691 C 0.03498 0.19415 0.96589 0.0
C1692 C 0.03287 0.21132 0.97658 0.0
H1693 H 0.04911 0.11481 0.04004 0.0
H1694 H 0.04685 0.1426 0.02682 0.0
C1695 C 0.02961 0.2262 0.96811 0.0
C1696 C 0.03854 0.17792 0.97472 0.0
H1697 H 0.02324 0.14802 0.00471 0.0
C1698 C 0.05287 0.17034 0.96979 0.0
C1699 C 0.02781 0.16949 0.98758 0.0
C1700 C 0.0117 0.17589 0.99315 0.0
C1701 C 0.05686 0.15519 0.97737 0.0
C1702 C 0.04601 0.14662 0.99009 0.0
C1703 C 0.03174 0.15428 0.99508 0.0
C1704 C 0.04906 0.12986 0.99839 0.0
C1705 C 0.07312 0.149 0.97198 0.0
C1706 C 0.05135 0.11301 0.98721 0.0
C1707 C 0.05314 0.09718 0.99496 0.0
C1708 C 0.05251 0.09748 0.01416 0.0
C1709 C 0.05011 0.11417 0.0253 0.0
C1710 C 0.04863 0.1301 0.01764 0.0
H1711 H 0.08302 0.16073 0.96771 0.0
H1712 H 0.07954 0.14444 0.98362 0.0
H1713 H 0.06923 0.13677 0.95992 0.0
H1714 H 0.05112 0.11173 0.97229 0.0
H1715 H 0.05426 0.08435 0.98577 0.0
H1716 H 0.14781 0.81527 0.12631 0.0
H1717 H 0.17428 0.81366 0.14468 0.0
H1718 H 0.1583 0.84409 0.19374 0.0
H1719 H 0.13103 0.84414 0.17561 0.0
H1720 H 0.2021 0.83558 0.16223 0.0
H1721 H 0.16721 0.80355 0.21685 0.0
H1722 H 0.15533 0.80668 0.19641 0.0
H1723 H 0.16341 0.82639 0.21604 0.0
C1724 C 0.14998 0.82168 0.14102 0.0
C1725 C 0.13722 0.8298 0.14946 0.0
C1726 C 0.16519 0.82072 0.15162 0.0
C1727 C 0.16836 0.8282 0.17096 0.0
C1728 C 0.15604 0.83732 0.17915 0.0
H1729 H 0.25649 0.83665 0.25558 0.0
H1730 H 0.23086 0.84105 0.23785 0.0
C1731 C 0.1405 0.83767 0.16867 0.0
C1732 C 0.18452 0.82649 0.18229 0.0
H1733 H 0.19857 0.81423 0.22253 0.0
C1734 C 0.20116 0.83077 0.17535 0.0
C1735 C 0.18372 0.82018 0.19955 0.0
C1736 C 0.16643 0.81375 0.20754 0.0
C1737 C 0.2167 0.82914 0.18501 0.0
C1738 C 0.21587 0.8231 0.2023 0.0
C1739 C 0.19937 0.819 0.20938 0.0
C1740 C 0.23184 0.82057 0.21306 0.0
C1741 C 0.23398 0.83419 0.17666 0.0
C1742 C 0.24108 0.80747 0.20529 0.0
C1743 C 0.25571 0.80478 0.21551 0.0
C1744 C 0.26157 0.81504 0.23391 0.0
C1745 C 0.25236 0.82825 0.24162 0.0
C1746 C 0.23766 0.83086 0.23141 0.0
H1747 H 0.23346 0.84339 0.16628 0.0
H1748 H 0.24515 0.84173 0.1876 0.0
H1749 H 0.23674 0.82081 0.16942 0.0
H1750 H 0.2368 0.79902 0.19135 0.0
H1751 H 0.2623 0.79444 0.20896 0.0
H1752 H 0.52268 0.84053 0.432 0.0
H1753 H 0.52561 0.87322 0.4478 0.0
H1754 H 0.54374 0.86025 0.49933 0.0
H1755 H 0.54147 0.82719 0.48319 0.0
H1756 H 0.51003 0.88866 0.47384 0.0
H1757 H 0.58141 0.90818 0.50027 0.0
H1758 H 0.57086 0.88608 0.48411 0.0
H1759 H 0.56803 0.8883 0.50848 0.0
C1760 C 0.52733 0.84443 0.44672 0.0
C1761 C 0.53187 0.83091 0.45619 0.0
C1762 C 0.52899 0.86336 0.45582 0.0
C1763 C 0.53516 0.86966 0.47484 0.0
C1764 C 0.5394 0.85614 0.48456 0.0
H1765 H 0.55211 0.99038 0.53775 0.0
H1766 H 0.54498 0.95494 0.53138 0.0
C1767 C 0.53793 0.83708 0.47533 0.0
C1768 C 0.53684 0.89028 0.484 0.0
H1769 H 0.56633 0.93207 0.5075 0.0
C1770 C 0.52236 0.89802 0.4813 0.0
C1771 C 0.55284 0.90284 0.4939 0.0
C1772 C 0.56923 0.89604 0.49676 0.0
C1773 C 0.52357 0.91768 0.48758 0.0
C1774 C 0.53967 0.93024 0.49698 0.0
C1775 C 0.55393 0.92249 0.50042 0.0
C1776 C 0.54249 0.95166 0.50136 0.0
C1777 C 0.50766 0.92499 0.48383 0.0
C1778 C 0.54324 0.96171 0.48675 0.0
C1779 C 0.54738 0.9818 0.49037 0.0
C1780 C 0.55061 0.99253 0.50872 0.0
C1781 C 0.54931 0.98254 0.52347 0.0
C1782 C 0.5454 0.96228 0.51981 0.0
H1783 H 0.49523 0.91317 0.48042 0.0
H1784 H 0.50623 0.93557 0.49607 0.0
H1785 H 0.50948 0.93232 0.47184 0.0
H1786 H 0.54125 0.95401 0.47242 0.0
H1787 H 0.54854 0.98906 0.47871 0.0
H1788 H 0.53747 0.32771 0.63848 0.0
H1789 H 0.50906 0.32648 0.65142 0.0
H1790 H 0.52124 0.29062 0.68798 0.0
H1791 H 0.54949 0.29184 0.67528 0.0
H1792 H 0.48023 0.29443 0.65259 0.0
H1793 H 0.50857 0.33345 0.72395 0.0
H1794 H 0.52138 0.33392 0.70432 0.0
H1795 H 0.51766 0.31377 0.71573 0.0
C1796 C 0.53416 0.31969 0.64939 0.0
C1797 C 0.54594 0.31004 0.65594 0.0
C1798 C 0.51786 0.31894 0.65674 0.0
C1799 C 0.51304 0.30871 0.67094 0.0
C1800 C 0.52473 0.29896 0.67735 0.0
H1801 H 0.42397 0.26968 0.73031 0.0
H1802 H 0.45263 0.27857 0.71793 0.0
C1803 C 0.54092 0.29962 0.66998 0.0
C1804 C 0.49575 0.30781 0.67896 0.0
H1805 H 0.478 0.316 0.72021 0.0
C1806 C 0.47974 0.2994 0.66733 0.0
C1807 C 0.49499 0.31433 0.69819 0.0
C1808 C 0.51155 0.32455 0.71127 0.0
C1809 C 0.46317 0.29657 0.67454 0.0
C1810 C 0.46249 0.3025 0.69389 0.0
C1811 C 0.47845 0.31138 0.70541 0.0
C1812 C 0.44545 0.29853 0.70256 0.0
C1813 C 0.44653 0.28652 0.66153 0.0
C1814 C 0.43197 0.30724 0.69862 0.0
C1815 C 0.41563 0.30242 0.70602 0.0
C1816 C 0.41242 0.28869 0.71739 0.0
C1817 C 0.42612 0.28045 0.72176 0.0
C1818 C 0.44248 0.28545 0.7146 0.0
H1819 H 0.44946 0.27999 0.64763 0.0
H1820 H 0.43795 0.27512 0.66754 0.0
H1821 H 0.43893 0.29703 0.65962 0.0
H1822 H 0.43395 0.31751 0.68954 0.0
H1823 H 0.40524 0.30877 0.70217 0.0
H1824 H 0.99186 0.80218 0.60205 0.0
H1825 H 0.99793 0.82935 0.58604 0.0
H1826 H 0.0375 0.86228 0.6312 0.0
H1827 H 0.03103 0.83531 0.64753 0.0
H1828 H 0.01194 0.8822 0.6109 0.0
H1829 H 0.05052 0.84044 0.56742 0.0
H1830 H 0.02923 0.82773 0.57281 0.0
H1831 H 0.04711 0.83796 0.59106 0.0
C1832 C 1.0014 0.81548 0.60877 0.0
C1833 C 0.01093 0.81688 0.62596 0.0
C1834 C 0.00487 0.8309 0.59967 0.0
C1835 C 0.0182 0.84765 0.60746 0.0
C1836 C 0.02703 0.84948 0.62513 0.0
H1837 H 0.07712 0.92456 0.54238 0.0
H1838 H 0.06838 0.90392 0.5649 0.0
C1839 C 0.02332 0.83416 0.63442 0.0
C1840 C 0.02444 0.86205 0.59606 0.0
H1841 H 0.04775 0.86897 0.55906 0.0
C1842 C 0.01982 0.87945 0.59959 0.0
C1843 C 0.03496 0.85839 0.58161 0.0
C1844 C 0.04089 0.84019 0.57794 0.0
C1845 C 0.0252 0.89326 0.58864 0.0
C1846 C 0.03514 0.88926 0.57363 0.0
C1847 C 0.04005 0.87198 0.57048 0.0
C1848 C 0.04046 0.90257 0.56079 0.0
C1849 C 0.02039 0.91204 0.59345 0.0
C1850 C 0.02766 0.90848 0.55089 0.0
C1851 C 0.03268 0.92043 0.53826 0.0
C1852 C 0.05049 0.9262 0.53498 0.0
C1853 C 0.06327 0.92005 0.54459 0.0
C1854 C 0.0583 0.90839 0.55749 0.0
H1855 H 0.01804 0.91527 0.60832 0.0
H1856 H 0.03095 0.92413 0.59066 0.0
H1857 H 0.00795 0.9111 0.58486 0.0
H1858 H 0.01376 0.90366 0.55274 0.0
H1859 H 0.02264 0.92501 0.5309 0.0
H1860 H 0.5574 0.83167 0.8342 0.0
H1861 H 0.52781 0.83189 0.82225 0.0
H1862 H 0.50543 0.80335 0.86515 0.0
H1863 H 0.53525 0.80306 0.8774 0.0
H1864 H 0.489 0.79063 0.82064 0.0
H1865 H 0.4985 0.86592 0.85826 0.0
H1866 H 0.51708 0.86006 0.84765 0.0
H1867 H 0.50928 0.84962 0.8669 0.0
C1868 C 0.54621 0.82525 0.84104 0.0
C1869 C 0.54864 0.81745 0.85682 0.0
C1870 C 0.52934 0.82539 0.83417 0.0
C1871 C 0.5146 0.81778 0.84295 0.0
C1872 C 0.51676 0.80929 0.85827 0.0
H1873 H 0.4118 0.83751 0.81354 0.0
H1874 H 0.43638 0.83095 0.83118 0.0
C1875 C 0.53374 0.80911 0.86519 0.0
C1876 C 0.49718 0.81964 0.83632 0.0
H1877 H 0.47455 0.85335 0.83429 0.0
C1878 C 0.48562 0.8042 0.82384 0.0
C1879 C 0.49295 0.83739 0.84062 0.0
C1880 C 0.50501 0.85424 0.85418 0.0
C1881 C 0.47018 0.80636 0.81482 0.0
C1882 C 0.46647 0.82443 0.81836 0.0
C1883 C 0.47758 0.83957 0.83157 0.0
C1884 C 0.45164 0.8282 0.80775 0.0
C1885 C 0.45815 0.78951 0.80127 0.0
C1886 C 0.45239 0.82918 0.7889 0.0
C1887 C 0.43852 0.83314 0.77888 0.0
C1888 C 0.42369 0.83601 0.78758 0.0
C1889 C 0.42307 0.8352 0.80652 0.0
C1890 C 0.43703 0.83147 0.81658 0.0
H1891 H 0.46077 0.77573 0.80304 0.0
H1892 H 0.44402 0.78873 0.80302 0.0
H1893 H 0.46033 0.79136 0.78684 0.0
H1894 H 0.46373 0.82692 0.78198 0.0
H1895 H 0.43922 0.83355 0.76426 0.0
H1896 H 0.49691 0.19439 0.15845 0.0
H1897 H 0.49563 0.16354 0.13882 0.0
H1898 H 0.48351 0.1849 0.08999 0.0
H1899 H 0.48508 0.21605 0.10947 0.0
H1900 H 0.47377 0.13472 0.10789 0.0
H1901 H 0.53574 0.18095 0.08947 0.0
H1902 H 0.52419 0.18916 0.10844 0.0
H1903 H 0.51575 0.18784 0.08482 0.0
C1904 C 0.4934 0.19238 0.1436 0.0
C1905 C 0.49174 0.20781 0.1354 0.0
C1906 C 0.49255 0.17468 0.13243 0.0
C1907 C 0.48991 0.17224 0.11302 0.0
C1908 C 0.48582 0.18675 0.10498 0.0
H1909 H 0.51091 0.07952 0.03393 0.0
H1910 H 0.49657 0.10273 0.04991 0.0
C1911 C 0.48679 0.20452 0.11613 0.0
C1912 C 0.49526 0.15656 0.10152 0.0
H1913 H 0.52921 0.14797 0.07741 0.0
C1914 C 0.48572 0.13754 0.10095 0.0
C1915 C 0.51114 0.16047 0.09297 0.0
C1916 C 0.52243 0.18067 0.09401 0.0
C1917 C 0.49176 0.12221 0.09202 0.0
C1918 C 0.50762 0.12621 0.08359 0.0
C1919 C 0.51701 0.14516 0.08393 0.0
C1920 C 0.51518 0.11098 0.07477 0.0
C1921 C 0.48162 0.10188 0.09212 0.0
C1922 C 0.53038 0.10818 0.08359 0.0
C1923 C 0.53872 0.09507 0.0745 0.0
C1924 C 0.53203 0.08481 0.05638 0.0
C1925 C 0.51656 0.08744 0.04777 0.0
C1926 C 0.50821 0.10049 0.05691 0.0
H1927 H 0.4702 0.10124 0.10047 0.0
H1928 H 0.4766 0.09415 0.07762 0.0
H1929 H 0.49057 0.09423 0.09785 0.0
H1930 H 0.53594 0.11639 0.09737 0.0
H1931 H 0.55057 0.09331 0.0815 0.0
H1932 H 0.16089 0.33453 0.37637 0.0
H1933 H 0.18723 0.3339 0.36003 0.0
H1934 H 0.15375 0.30546 0.30897 0.0
H1935 H 0.12743 0.30576 0.32514 0.0
H1936 H 0.19004 0.29442 0.33807 0.0
H1937 H 0.19509 0.35229 0.29745 0.0
H1938 H 0.18526 0.35293 0.31915 0.0
H1939 H 0.17337 0.33696 0.29837 0.0
C1940 C 0.15917 0.32847 0.36159 0.0
C1941 C 0.14214 0.3201 0.35202 0.0
C1942 C 0.17419 0.32811 0.35232 0.0
C1943 C 0.17232 0.31976 0.33333 0.0
C1944 C 0.15538 0.31213 0.32359 0.0
H1945 H 0.24329 0.2979 0.25087 0.0
H1946 H 0.21725 0.30049 0.2673 0.0
C1947 C 0.14039 0.31224 0.33287 0.0
C1948 C 0.1879 0.31713 0.32401 0.0
H1949 H 0.21378 0.3318 0.2909 0.0
C1950 C 0.19541 0.30268 0.32789 0.0
C1951 C 0.19449 0.32773 0.31053 0.0
C1952 C 0.18676 0.34345 0.3061 0.0
C1953 C 0.20926 0.29827 0.31833 0.0
C1954 C 0.21603 0.30897 0.30488 0.0
C1955 C 0.20853 0.32355 0.30113 0.0
C1956 C 0.2312 0.30569 0.29489 0.0
C1957 C 0.21584 0.28156 0.32203 0.0
C1958 C 0.2476 0.30778 0.30494 0.0
C1959 C 0.26223 0.30596 0.2956 0.0
C1960 C 0.26075 0.30222 0.27608 0.0
C1961 C 0.24451 0.3004 0.26595 0.0
C1962 C 0.22974 0.30194 0.27531 0.0
H1963 H 0.20673 0.27243 0.32984 0.0
H1964 H 0.21718 0.27256 0.30869 0.0
H1965 H 0.229 0.28686 0.33038 0.0
H1966 H 0.24926 0.31144 0.32001 0.0
H1967 H 0.27484 0.308 0.30365 0.0
H1968 H 0.99047 0.06295 0.2308 0.0
H1969 H 0.00563 0.06231 0.20242 0.0
H1970 H 0.96109 0.07314 0.17333 0.0
H1971 H 0.94628 0.07447 0.20174 0.0
H1972 H 1.00261 0.04193 0.16981 0.0
H1973 H 0.99604 0.11036 0.15394 0.0
H1974 H 0.9902 0.10342 0.17553 0.0
H1975 H 0.97466 0.09471 0.15475 0.0
C1976 C 0.98389 0.0655 0.21849 0.0
C1977 C 0.96694 0.06906 0.21923 0.0
C1978 C 0.99268 0.06503 0.20193 0.0
C1979 C 0.98511 0.06811 0.18507 0.0
C1980 C 0.96804 0.07139 0.18579 0.0
H1981 H 0.01091 0.06087 0.06699 0.0
H1982 H 0.99791 0.06365 0.09658 0.0
C1983 C 0.95932 0.072 0.20235 0.0
C1984 C 0.99466 0.06732 0.16693 0.0
H1985 H 0.00433 0.0894 0.12941 0.0
C1986 C 1.00301 0.05253 0.16122 0.0
C1987 C 0.99573 0.08092 0.15502 0.0
C1988 C 0.98886 0.09835 0.1602 0.0
C1989 C 0.0115 0.05068 0.14442 0.0
C1990 C 0.0122 0.06403 0.13236 0.0
C1991 C 1.00399 0.07888 0.13811 0.0
C1992 C 0.02089 0.06265 0.11376 0.0
C1993 C 0.0192 0.03384 0.13948 0.0
C1994 C 0.03863 0.06146 0.1126 0.0
C1995 C 0.04631 0.06003 0.09535 0.0
C1996 C 0.0367 0.05965 0.07824 0.0
C1997 C 0.01905 0.06104 0.07949 0.0
C1998 C 0.01146 0.06268 0.09671 0.0
H1999 H 0.01352 0.02219 0.14692 0.0
H2000 H 0.01683 0.02789 0.12427 0.0
H2001 H 0.03373 0.03863 0.14356 0.0
H2002 H 0.04675 0.06179 0.12515 0.0
H2003 H 0.0598 0.05889 0.09546 0.0
H2004 H 0.29662 0.65382 0.44776 0.0
H2005 H 0.28909 0.66702 0.42077 0.0
H2006 H 0.3007 0.72332 0.45585 0.0
H2007 H 0.30788 0.71025 0.48273 0.0
H2008 H 0.26383 0.70555 0.43543 0.0
H2009 H 0.31937 0.70718 0.39111 0.0
H2010 H 0.31092 0.68678 0.40161 0.0
H2011 H 0.32325 0.70914 0.41597 0.0
C2012 C 0.29818 0.66912 0.44949 0.0
C2013 C 0.30282 0.68109 0.46722 0.0
C2014 C 0.29377 0.67658 0.43414 0.0
C2015 C 0.29428 0.69608 0.43646 0.0
C2016 C 0.30019 0.70822 0.45389 0.0
H2017 H 0.27727 0.78841 0.39581 0.0
H2018 H 0.27899 0.763 0.41264 0.0
C2019 C 0.30437 0.70078 0.46917 0.0
C2020 C 0.28697 0.70381 0.42152 0.0
H2021 H 0.29831 0.72345 0.38385 0.0
C2022 C 0.27115 0.70915 0.42391 0.0
C2023 C 0.29649 0.7082 0.40647 0.0
C2024 C 0.31348 0.70259 0.40348 0.0
C2025 C 0.2652 0.71994 0.41227 0.0
C2026 C 0.27546 0.72564 0.39812 0.0
C2027 C 0.29057 0.71909 0.39485 0.0
C2028 C 0.27201 0.74025 0.38812 0.0
C2029 C 0.24839 0.72584 0.41563 0.0
C2030 C 0.26723 0.73571 0.36886 0.0
C2031 C 0.266 0.75015 0.35924 0.0
C2032 C 0.26989 0.76941 0.3687 0.0
C2033 C 0.274 0.77373 0.38814 0.0
C2034 C 0.27505 0.75925 0.39776 0.0
H2035 H 0.23979 0.71641 0.4236 0.0
H2036 H 0.25184 0.74076 0.42381 0.0
H2037 H 0.2408 0.72547 0.40224 0.0
H2038 H 0.26482 0.72108 0.36125 0.0
H2039 H 0.26246 0.7463 0.3443 0.0
H2040 H 0.65306 1.00474 0.70225 0.0
H2041 H 0.63258 1.00027 0.67438 0.0
H2042 H 0.66428 0.05268 0.66165 0.0
H2043 H 0.68517 0.05674 0.68902 0.0
H2044 H 0.6136 0.02515 0.67122 0.0
H2045 H 0.65245 0.01911 0.61088 0.0
H2046 H 0.66041 0.01634 0.63354 0.0
H2047 H 0.66285 0.0399 0.62847 0.0
C2048 C 0.65588 0.01497 0.69316 0.0
C2049 C 0.67055 0.0311 0.69769 0.0
C2050 C 0.64422 0.01241 0.67731 0.0
C2051 C 0.647 0.02608 0.66596 0.0
C2052 C 0.66215 0.04172 0.66998 0.0
H2053 H 0.59086 0.06602 0.58839 0.0
H2054 H 0.60679 0.06167 0.6162 0.0
C2055 C 0.67402 0.04408 0.68565 0.0
C2056 C 0.63296 0.02538 0.65147 0.0
H2057 H 0.62546 0.02846 0.60615 0.0
C2058 C 0.61607 0.02547 0.65688 0.0
C2059 C 0.63632 0.02594 0.63287 0.0
C2060 C 0.65396 0.02513 0.62607 0.0
C2061 C 0.6026 0.02684 0.64426 0.0
C2062 C 0.60625 0.02814 0.62596 0.0
C2063 C 0.62289 0.02747 0.62035 0.0
C2064 C 0.59348 0.03146 0.61248 0.0
C2065 C 0.58483 0.0277 0.6506 0.0
C2066 C 0.58024 0.01602 0.60191 0.0
C2067 C 0.57111 0.01849 0.58603 0.0
C2068 C 0.57554 0.0363 0.58063 0.0
C2069 C 0.58767 0.05206 0.59215 0.0
C2070 C 0.59661 0.04966 0.60805 0.0
H2071 H 0.58421 0.02678 0.6655 0.0
H2072 H 0.58204 0.04131 0.64852 0.0
H2073 H 0.57425 0.01572 0.64201 0.0
H2074 H 0.57784 1.00188 0.60523 0.0
H2075 H 0.56169 0.00622 0.57726 0.0
H2076 H 0.30065 0.38007 0.96476 0.0
H2077 H 0.29988 0.36776 0.93123 0.0
H2078 H 0.32351 0.32369 0.94318 0.0
H2079 H 0.32457 0.336 0.97665 0.0
H2080 H 0.33487 0.36026 0.91271 0.0
H2081 H 0.27469 0.29868 0.90388 0.0
H2082 H 0.27761 0.32015 0.9215 0.0
H2083 H 0.29036 0.30355 0.92431 0.0
C2084 C 0.30551 0.36763 0.96027 0.0
C2085 C 0.31263 0.35901 0.97345 0.0
C2086 C 0.30514 0.36068 0.94109 0.0
C2087 C 0.31165 0.34482 0.93471 0.0
C2088 C 0.31841 0.33593 0.94779 0.0
H2089 H 0.30935 0.27486 0.82489 0.0
H2090 H 0.31281 0.28807 0.85847 0.0
C2091 C 0.31897 0.34299 0.96694 0.0
C2092 C 0.31179 0.33775 0.91439 0.0
H2093 H 0.29028 0.30204 0.87776 0.0
C2094 C 0.32511 0.34757 0.90501 0.0
C2095 C 0.29917 0.3211 0.90444 0.0
C2096 C 0.28455 0.31018 0.91391 0.0
C2097 C 0.32626 0.34104 0.88597 0.0
C2098 C 0.31348 0.32445 0.87587 0.0
C2099 C 0.30015 0.31469 0.88537 0.0
C2100 C 0.31345 0.31702 0.85547 0.0
C2101 C 0.34148 0.35174 0.87706 0.0
C2102 C 0.3129 0.32882 0.84244 0.0
C2103 C 0.31131 0.32132 0.82326 0.0
C2104 C 0.31023 0.30186 0.81669 0.0
C2105 C 0.31075 0.29004 0.82964 0.0
C2106 C 0.31257 0.29758 0.84881 0.0
H2107 H 0.35293 0.35971 0.88757 0.0
H2108 H 0.34601 0.34187 0.86636 0.0
H2109 H 0.33712 0.36237 0.87025 0.0
H2110 H 0.31294 0.34366 0.84703 0.0
H2111 H 0.31017 0.33053 0.81352 0.0
H2112 H 0.99424 0.03701 0.3168 0.0
H2113 H 0.0077 0.03571 0.34755 0.0
H2114 H 0.98149 0.07667 0.37372 0.0
H2115 H 0.96824 0.07825 0.34302 0.0
H2116 H 0.03054 0.06638 0.37825 0.0
H2117 H 0.9669 0.03127 0.40184 0.0
H2118 H 0.96941 0.03132 0.37754 0.0
H2119 H 0.96743 0.05253 0.39276 0.0
C2120 C 0.99135 0.04589 0.32903 0.0
C2121 C 0.97996 0.05777 0.32695 0.0
C2122 C 0.99917 0.04513 0.34683 0.0
C2123 C 0.99572 0.05592 0.36351 0.0
C2124 C 0.98445 0.06791 0.36145 0.0
H2125 H 0.01417 0.05735 0.48413 0.0
H2126 H 0.00433 0.05909 0.45272 0.0
C2127 C 0.97685 0.06889 0.34365 0.0
C2128 C 1.00359 0.05447 0.38286 0.0
H2129 H 0.9921 0.04005 0.42361 0.0
C2130 C 0.02208 0.06062 0.38817 0.0
C2131 C 0.99294 0.04712 0.39627 0.0
C2132 C 0.97307 0.04003 0.3919 0.0
C2133 C 0.02994 0.06029 0.40621 0.0
C2134 C 0.01929 0.0526 0.41969 0.0
C2135 C 1.00077 0.04612 0.41403 0.0
C2136 C 0.02652 0.05186 0.43975 0.0
C2137 C 0.04963 0.06915 0.4107 0.0
C2138 C 0.04273 0.0474 0.44434 0.0
C2139 C 0.04896 0.0473 0.46307 0.0
C2140 C 0.03876 0.05047 0.478 0.0
C2141 C 0.02252 0.05451 0.47332 0.0
C2142 C 0.01669 0.05537 0.45493 0.0
H2143 H 0.05465 0.07966 0.40183 0.0
H2144 H 0.05308 0.07663 0.42549 0.0
H2145 H 0.05662 0.05772 0.40791 0.0
H2146 H 0.05071 0.04376 0.43349 0.0
H2147 H 0.06172 0.04461 0.46577 0.0
H2148 H 0.2782 0.6599 0.5723 0.0
H2149 H 0.27258 0.68326 0.5976 0.0
H2150 H 0.32 0.72481 0.5898 0.0
H2151 H 0.32509 0.70175 0.5636 0.0
H2152 H 0.28986 0.69987 0.62912 0.0
H2153 H 0.2858 0.75658 0.5902 0.0
H2154 H 0.28622 0.73287 0.57871 0.0
H2155 H 0.30658 0.75081 0.58823 0.0
C2156 C 0.28752 0.67397 0.57609 0.0
C2157 C 0.3021 0.6791 0.56606 0.0
C2158 C 0.2842 0.68734 0.59042 0.0
C2159 C 0.29556 0.70595 0.59519 0.0
C2160 C 0.31066 0.71078 0.58582 0.0
H2161 H 0.32518 0.78852 0.69084 0.0
H2162 H 0.31964 0.77208 0.65837 0.0
C2163 C 0.31374 0.69753 0.57112 0.0
C2164 C 0.29215 0.71991 0.61067 0.0
H2165 H 0.2915 0.76666 0.62385 0.0
C2166 C 0.28983 0.71434 0.62785 0.0
C2167 C 0.29182 0.73869 0.6089 0.0
C2168 C 0.29253 0.74499 0.59044 0.0
C2169 C 0.28837 0.7274 0.64361 0.0
C2170 C 0.2894 0.74653 0.6421 0.0
C2171 C 0.29083 0.75195 0.62482 0.0
C2172 C 0.29139 0.76131 0.65893 0.0
C2173 C 0.28666 0.72095 0.662 0.0
C2174 C 0.27713 0.76151 0.66947 0.0
C2175 C 0.2803 0.77092 0.68805 0.0
C2176 C 0.29773 0.78021 0.69617 0.0
C2177 C 0.31167 0.78171 0.68496 0.0
C2178 C 0.3085 0.77229 0.66639 0.0
H2179 H 0.28753 0.70596 0.66101 0.0
H2180 H 0.2972 0.73051 0.67278 0.0
H2181 H 0.27368 0.72183 0.66679 0.0
H2182 H 0.26384 0.75307 0.66381 0.0
H2183 H 0.26927 0.76981 0.69639 0.0
H2184 H 0.63743 0.03618 0.79113 0.0
H2185 H 0.62801 0.03931 0.82235 0.0
H2186 H 0.68027 0.04064 0.84542 0.0
H2187 H 0.68991 0.03738 0.81403 0.0
H2188 H 0.63852 0.0148 0.85581 0.0
H2189 H 0.65997 0.0944 0.86481 0.0
H2190 H 0.65146 0.08064 0.84174 0.0
H2191 H 0.67204 0.07901 0.85245 0.0
C2192 C 0.64683 0.03672 0.80277 0.0
C2193 C 0.66439 0.03659 0.80021 0.0
C2194 C 0.64144 0.03852 0.82054 0.0
C2195 C 0.65353 0.04031 0.83599 0.0
C2196 C 0.67084 0.03923 0.83352 0.0
H2197 H 0.61029 0.07904 0.93913 0.0
H2198 H 0.63319 0.07285 0.91941 0.0
C2199 C 0.67625 0.03728 0.81564 0.0
C2200 C 0.64796 0.04465 0.85461 0.0
H2201 H 0.63796 0.08143 0.88332 0.0
C2202 C 0.63882 0.02938 0.86225 0.0
C2203 C 0.6486 0.06371 0.86292 0.0
C2204 C 0.65862 0.08048 0.85519 0.0
C2205 C 0.62896 0.03263 0.87719 0.0
C2206 C 0.62804 0.05152 0.88419 0.0
C2207 C 0.63857 0.06694 0.87771 0.0
C2208 C 0.61448 0.05523 0.89627 0.0
C2209 C 0.61887 0.01576 0.88472 0.0
C2210 C 0.5965 0.04786 0.88943 0.0
C2211 C 0.58344 0.05144 0.90054 0.0
C2212 C 0.58822 0.06248 0.91864 0.0
C2213 C 0.60629 0.07032 0.92525 0.0
C2214 C 0.61935 0.06679 0.91409 0.0
H2215 H 0.62516 1.00371 0.88223 0.0
H2216 H 0.61806 0.01987 0.89989 0.0
H2217 H 0.60518 0.01057 0.87751 0.0
H2218 H 0.59257 0.03927 0.8755 0.0
H2219 H 0.56964 0.04511 0.89518 0.0
H2220 H 0.30101 0.34023 0.06314 0.0
H2221 H 0.2947 0.32453 0.08979 0.0
H2222 H 0.29942 0.37951 0.12514 0.0
H2223 H 0.30514 0.39509 0.09872 0.0
H2224 H 0.3142 0.32816 0.12211 0.0
H2225 H 0.25353 0.34989 0.13866 0.0
H2226 H 0.26308 0.35262 0.11723 0.0
H2227 H 0.2716 0.37031 0.13829 0.0
C2228 C 0.30054 0.34894 0.07656 0.0
C2229 C 0.30342 0.36894 0.07864 0.0
C2230 C 0.29693 0.33994 0.09182 0.0
C2231 C 0.29613 0.35073 0.1095 0.0
C2232 C 0.29932 0.37071 0.11161 0.0
H2233 H 0.29229 0.33681 0.2239 0.0
H2234 H 0.29267 0.34771 0.19422 0.0
C2235 C 0.30275 0.37964 0.09641 0.0
C2236 C 0.29281 0.34143 0.126 0.0
H2237 H 0.26811 0.33933 0.1629 0.0
C2238 C 0.30397 0.3304 0.13087 0.0
C2239 C 0.27941 0.34423 0.13752 0.0
C2240 C 0.26612 0.35473 0.13255 0.0
C2241 C 0.30265 0.32289 0.14726 0.0
C2242 C 0.28964 0.32626 0.1591 0.0
C2243 C 0.27819 0.33686 0.15398 0.0
C2244 C 0.2881 0.31938 0.17707 0.0
C2245 C 0.31568 0.31202 0.1521 0.0
C2246 C 0.28481 0.29977 0.17743 0.0
C2247 C 0.28485 0.29356 0.19441 0.0
C2248 C 0.28795 0.30675 0.21148 0.0
C2249 C 0.29027 0.32628 0.21107 0.0
C2250 C 0.29035 0.33252 0.19407 0.0
H2251 H 0.32741 0.31477 0.1442 0.0
H2252 H 0.32033 0.31593 0.16722 0.0
H2253 H 0.30909 0.2964 0.14854 0.0
H2254 H 0.2826 0.28924 0.16456 0.0
H2255 H 0.28326 0.27851 0.19407 0.0
H2256 H 0.28683 1.00316 0.02649 0.0
H2257 H 0.26048 0.01487 0.02737 0.0
H2258 H 0.2297 0.96147 0.99282 0.0
H2259 H 0.25621 0.94939 0.99202 0.0
H2260 H 0.2353 0.01849 0.99889 0.0
H2261 H 0.20636 0.96581 0.0423 0.0
H2262 H 0.22941 0.97072 0.03828 0.0
H2263 H 0.21255 0.95697 0.01989 0.0
C2264 C 0.27454 0.99396 0.01883 0.0
C2265 C 0.27351 0.97526 0.00941 0.0
C2266 C 0.25952 1.00072 0.01929 0.0
C2267 C 0.24317 0.98892 0.01037 0.0
C2268 C 0.24222 0.97065 0.99996 0.0
H2269 H 0.14671 0.01889 0.0428 0.0
H2270 H 0.1663 1.00156 0.02737 0.0
C2271 C 0.25735 0.96384 0.99946 0.0
C2272 C 0.22717 0.99552 0.01368 0.0
H2273 H 0.19344 0.99102 0.04117 0.0
C2274 C 0.22588 0.0123 0.00782 0.0
C2275 C 0.21492 0.98729 0.02524 0.0
C2276 C 0.2158 0.96925 0.03192 0.0
C2277 C 0.21319 0.02168 0.01403 0.0
C2278 C 0.20185 0.01429 0.02679 0.0
C2279 C 0.20235 0.99679 0.03161 0.0
C2280 C 0.19003 0.02494 0.03603 0.0
C2281 C 0.21229 0.03958 0.00712 0.0
C2282 C 0.19698 0.04365 0.04648 0.0
C2283 C 0.18577 0.05376 0.0551 0.0
C2284 C 0.16746 0.04519 0.05359 0.0
C2285 C 0.1607 0.0261 0.04383 0.0
C2286 C 0.17187 0.01611 0.03507 0.0
H2287 H 0.21725 0.03958 0.99326 0.0
H2288 H 0.19853 0.04105 0.00608 0.0
H2289 H 0.22082 0.05231 0.01698 0.0
H2290 H 0.21107 0.05049 0.04792 0.0
H2291 H 0.19138 0.06841 0.06252 0.0
H2292 H 0.75872 0.63237 0.98799 0.0
H2293 H 0.72843 0.61189 0.98637 0.0
H2294 H 0.71167 0.66096 0.01246 0.0
H2295 H 0.74145 0.68152 0.01287 0.0
H2296 H 0.70933 0.60196 0.0115 0.0
H2297 H 0.67218 0.64035 0.97306 0.0
H2298 H 0.69605 0.64622 0.97526 0.0
H2299 H 0.68465 0.65625 0.99351 0.0
C2300 C 0.74844 0.6388 0.99299 0.0
C2301 C 0.75241 0.65861 1.00026 0.0
C2302 C 0.73113 0.62708 0.99214 0.0
C2303 C 0.71747 0.63484 0.99886 0.0
C2304 C 0.7216 0.65462 0.0064 0.0
H2305 H 0.61558 0.59242 0.03481 0.0
H2306 H 0.64481 0.60999 0.02881 0.0
C2307 C 0.73874 0.66639 0.00677 0.0
C2308 C 0.69927 0.62218 0.9991 0.0
H2309 H 0.65506 0.61893 0.99064 0.0
C2310 C 0.69751 0.60555 0.00662 0.0
C2311 C 0.68366 0.62665 0.99268 0.0
C2312 C 0.68425 0.64323 0.983 0.0
C2313 C 0.68076 0.59384 0.00853 0.0
C2314 C 0.66531 0.59889 1.00295 0.0
C2315 C 0.66696 0.61518 0.99505 0.0
C2316 C 0.64738 0.588 0.00612 0.0
C2317 C 0.67962 0.57642 0.01704 0.0
C2318 C 0.63898 0.56984 0.99517 0.0
C2319 C 0.62208 0.55974 0.99844 0.0
C2320 C 0.61336 0.56752 0.01287 0.0
C2321 C 0.62184 0.58583 0.02366 0.0
C2322 C 0.6386 0.59596 0.02025 0.0
H2323 H 0.69287 0.57544 0.02231 0.0
H2324 H 0.67124 0.57672 0.0287 0.0
H2325 H 0.67326 0.56328 0.00641 0.0
H2326 H 0.64547 0.56352 0.98406 0.0
H2327 H 0.61589 0.54587 0.98964 0.0
H2328 H 0.72756 0.46013 0.23146 0.0
H2329 H 0.74166 0.43398 0.23284 0.0
H2330 H 0.72452 0.43041 0.28698 0.0
H2331 H 0.70979 0.45583 0.28517 0.0
H2332 H 0.76693 0.42564 0.24955 0.0
H2333 H 0.71033 0.37546 0.2704 0.0
H2334 H 0.7082 0.3973 0.26385 0.0
H2335 H 0.71685 0.39746 0.28727 0.0
C2336 C 0.72656 0.45372 0.24366 0.0
C2337 C 0.71703 0.46053 0.25808 0.0
C2338 C 0.73484 0.43849 0.2445 0.0
C2339 C 0.7342 0.42899 0.25983 0.0
C2340 C 0.72502 0.4362 0.27443 0.0
H2341 H 0.77826 0.33835 0.29675 0.0
H2342 H 0.76511 0.36439 0.29287 0.0
C2343 C 0.71658 0.45126 0.27349 0.0
C2344 C 0.74325 0.41219 0.26064 0.0
H2345 H 0.73799 0.36802 0.27348 0.0
C2346 C 0.76033 0.41306 0.25469 0.0
C2347 C 0.73531 0.39504 0.26714 0.0
C2348 C 0.71661 0.39112 0.27233 0.0
C2349 C 0.76947 0.39841 0.2556 0.0
C2350 C 0.76166 0.38154 0.2625 0.0
C2351 C 0.74455 0.38058 0.26827 0.0
C2352 C 0.77093 0.36522 0.26458 0.0
C2353 C 0.78788 0.40163 0.24968 0.0
C2354 C 0.77916 0.35592 0.25019 0.0
C2355 C 0.78691 0.34052 0.25245 0.0
C2356 C 0.78703 0.33363 0.26933 0.0
C2357 C 0.77887 0.34298 0.28355 0.0
C2358 C 0.7711 0.35814 0.28128 0.0
H2359 H 0.79401 0.41701 0.24975 0.0
H2360 H 0.7966 0.39658 0.25895 0.0
H2361 H 0.78719 0.39346 0.23527 0.0
H2362 H 0.77918 0.36014 0.23682 0.0
H2363 H 0.79246 0.33375 0.24079 0.0
H2364 H 0.86253 0.48506 0.50463 0.0
H2365 H 0.8942 0.49994 0.50447 0.0
H2366 H 0.90652 0.45057 0.52032 0.0
H2367 H 0.87504 0.43551 0.52029 0.0
H2368 H 0.91927 0.5079 0.53635 0.0
H2369 H 0.93647 0.46 0.47705 0.0
H2370 H 0.91394 0.46095 0.47986 0.0
H2371 H 0.92432 0.44761 0.49318 0.0
C2372 C 0.87199 0.47729 0.50786 0.0
C2373 C 0.86633 0.45914 0.51249 0.0
C2374 C 0.89002 0.48578 0.50772 0.0
C2375 C 0.90257 0.47618 0.51211 0.0
C2376 C 0.89695 0.45796 0.51645 0.0
H2377 H 0.01456 0.49475 0.53322 0.0
H2378 H 0.98222 0.48257 0.52734 0.0
C2379 C 0.87897 0.44944 0.51652 0.0
C2380 C 0.92164 0.4858 0.51385 0.0
H2381 H 0.96057 0.48073 0.49832 0.0
C2382 C 0.92835 0.50215 0.52794 0.0
C2383 C 0.9333 0.47811 0.50286 0.0
C2384 C 0.92665 0.46079 0.48727 0.0
C2385 C 0.94662 0.51051 0.53203 0.0
C2386 C 0.95838 0.50258 0.52125 0.0
C2387 C 0.95155 0.48666 0.50666 0.0
C2388 C 0.97782 0.5101 0.52517 0.0
C2389 C 0.95304 0.52712 0.54841 0.0
C2390 C 0.986 0.52955 0.52605 0.0
C2391 C 0.0043 0.53653 0.53006 0.0
C2392 C 0.01483 0.52402 0.53203 0.0
C2393 C 0.00669 0.50457 0.53126 0.0
C2394 C 0.98829 0.49764 0.52784 0.0
H2395 H 0.94293 0.52745 0.55835 0.0
H2396 H 0.96544 0.52644 0.55606 0.0
H2397 H 0.95567 0.54078 0.54331 0.0
H2398 H 0.97829 0.53936 0.52359 0.0
H2399 H 0.0101 0.55169 0.5314 0.0
H2400 H 0.3833 0.07819 0.27002 0.0
H2401 H 0.3677 0.10026 0.2607 0.0
H2402 H 0.382 0.13649 0.31541 0.0
H2403 H 0.39837 0.11438 0.32485 0.0
H2404 H 0.33954 0.10885 0.2888 0.0
H2405 H 0.38773 0.16894 0.26729 0.0
H2406 H 0.39171 0.14549 0.26418 0.0
H2407 H 0.3931 0.15926 0.28721 0.0
C2408 C 0.38327 0.09094 0.28006 0.0
C2409 C 0.39154 0.09448 0.29827 0.0
C2410 C 0.37458 0.10361 0.27463 0.0
C2411 C 0.37383 0.11985 0.2874 0.0
C2412 C 0.3827 0.124 0.30542 0.0
H2413 H 0.28995 0.17312 0.26897 0.0
H2414 H 0.31147 0.15916 0.28266 0.0
C2415 C 0.39183 0.1114 0.3108 0.0
C2416 C 0.36129 0.13025 0.28227 0.0
H2417 H 0.35715 0.16519 0.25891 0.0
C2418 C 0.34331 0.12143 0.2826 0.0
C2419 C 0.3665 0.14623 0.27383 0.0
C2420 C 0.38581 0.15567 0.27304 0.0
C2421 C 0.3302 0.12777 0.27399 0.0
C2422 C 0.33532 0.14369 0.26536 0.0
C2423 C 0.35336 0.1529 0.26549 0.0
C2424 C 0.32198 0.15128 0.2567 0.0
C2425 C 0.31103 0.11687 0.2735 0.0
C2426 C 0.32079 0.15127 0.23755 0.0
C2427 C 0.30845 0.15925 0.22968 0.0
C2428 C 0.29738 0.16732 0.24099 0.0
C2429 C 0.29823 0.16667 0.26 0.0
C2430 C 0.31053 0.15883 0.26782 0.0
H2431 H 0.3097 0.10224 0.27628 0.0
H2432 H 0.30481 0.12471 0.28438 0.0
H2433 H 0.30358 0.11559 0.25978 0.0
H2434 H 0.32961 0.14546 0.22883 0.0
H2435 H 0.30821 0.16003 0.21507 0.0
H2436 H 0.35393 0.15375 0.48315 0.0
H2437 H 0.37891 0.13924 0.48538 0.0
H2438 H 0.3782 0.14737 0.54495 0.0
H2439 H 0.35277 0.1606 0.54261 0.0
H2440 H 0.41215 0.14993 0.50232 0.0
H2441 H 0.37365 0.09154 0.53335 0.0
H2442 H 0.36342 0.10765 0.52379 0.0
H2443 H 0.37459 0.11452 0.54716 0.0
C2444 C 0.35914 0.15235 0.49668 0.0
C2445 C 0.35117 0.1579 0.51266 0.0
C2446 C 0.37343 0.14411 0.49796 0.0
C2447 C 0.38015 0.14158 0.51529 0.0
C2448 C 0.37286 0.14834 0.53133 0.0
H2449 H 0.45778 0.09392 0.56224 0.0
H2450 H 0.43787 0.1132 0.55536 0.0
C2451 C 0.35835 0.15603 0.53 0.0
C2452 C 0.39439 0.13151 0.51678 0.0
H2453 H 0.40492 0.09598 0.53572 0.0
C2454 C 0.41051 0.13802 0.50947 0.0
C2455 C 0.39228 0.11576 0.5259 0.0
C2456 C 0.37498 0.10684 0.5328 0.0
C2457 C 0.42475 0.12978 0.51178 0.0
C2458 C 0.4228 0.1146 0.52161 0.0
C2459 C 0.40655 0.10781 0.52843 0.0
C2460 C 0.43732 0.10554 0.52543 0.0
C2461 C 0.4419 0.13772 0.50417 0.0
C2462 C 0.44414 0.0952 0.51092 0.0
C2463 C 0.45569 0.08422 0.51487 0.0
C2464 C 0.4604 0.08318 0.53337 0.0
C2465 C 0.45425 0.09429 0.54784 0.0
C2466 C 0.44288 0.10534 0.54392 0.0
H2467 H 0.44264 0.15197 0.50066 0.0
H2468 H 0.45344 0.13908 0.51434 0.0
H2469 H 0.44292 0.12773 0.49128 0.0
H2470 H 0.43983 0.09481 0.49654 0.0
H2471 H 0.46011 0.07569 0.50344 0.0
H2472 H 0.73026 0.56364 0.25464 0.0
H2473 H 0.74551 0.59729 0.25451 0.0
H2474 H 0.71654 0.61611 0.29885 0.0
H2475 H 0.70145 0.58278 0.29912 0.0
H2476 H 0.73328 0.62762 0.24727 0.0
H2477 H 0.76565 0.64839 0.31962 0.0
H2478 H 0.75578 0.62367 0.30847 0.0
H2479 H 0.74215 0.63843 0.31835 0.0
C2480 C 0.72736 0.57488 0.26467 0.0
C2481 C 0.71462 0.57003 0.27708 0.0
C2482 C 0.73605 0.59432 0.26447 0.0
C2483 C 0.73258 0.60977 0.27684 0.0
C2484 C 0.72001 0.60488 0.28936 0.0
H2485 H 0.75603 0.73568 0.28196 0.0
H2486 H 0.74268 0.70176 0.28275 0.0
C2487 C 0.71125 0.58554 0.28946 0.0
C2488 C 0.74156 0.6308 0.2764 0.0
H2489 H 0.76543 0.67402 0.30382 0.0
C2490 C 0.74038 0.63763 0.25968 0.0
C2491 C 0.75102 0.64438 0.29243 0.0
C2492 C 0.75391 0.63836 0.31069 0.0
C2493 C 0.74783 0.6572 0.25871 0.0
C2494 C 0.75697 0.67075 0.27478 0.0
C2495 C 0.75837 0.66395 0.29143 0.0
C2496 C 0.76529 0.69184 0.27441 0.0
C2497 C 0.74579 0.66345 0.24045 0.0
C2498 C 0.7826 0.69813 0.26948 0.0
C2499 C 0.79037 0.71769 0.26913 0.0
C2500 C 0.78117 0.73187 0.27365 0.0
C2501 C 0.76374 0.72548 0.27842 0.0
C2502 C 0.75602 0.70592 0.27891 0.0
H2503 H 0.73789 0.65155 0.22926 0.0
H2504 H 0.73923 0.67531 0.2422 0.0
H2505 H 0.75908 0.66908 0.23605 0.0
H2506 H 0.79017 0.68781 0.26575 0.0
H2507 H 0.80347 0.72155 0.2648 0.0
H2508 H 0.92659 0.49555 0.80724 0.0
H2509 H 0.9105 0.46159 0.80091 0.0
H2510 H 0.86398 0.47621 0.82063 0.0
H2511 H 0.87985 0.51024 0.82677 0.0
H2512 H 0.89195 0.43756 0.82356 0.0
H2513 H 0.84763 0.44737 0.76617 0.0
H2514 H 0.86789 0.46522 0.77629 0.0
H2515 H 0.84854 0.4625 0.78853 0.0
C2516 C 0.91305 0.49153 0.81057 0.0
C2517 C 0.90437 0.50551 0.81723 0.0
C2518 C 0.90388 0.47216 0.80688 0.0
C2519 C 0.88598 0.46659 0.80989 0.0
C2520 C 0.87767 0.48039 0.81782 0.0
H2521 H 0.80934 0.35611 0.7683 0.0
H2522 H 0.82352 0.3897 0.78304 0.0
C2523 C 0.88679 0.49976 0.82141 0.0
C2524 C 0.8759 0.44639 0.80394 0.0
H2525 H 0.84319 0.41626 0.77188 0.0
C2526 C 0.88116 0.4328 0.81237 0.0
C2527 C 0.86193 0.44045 0.78932 0.0
C2528 C 0.85619 0.45458 0.7794 0.0
C2529 C 0.87284 0.41322 0.80657 0.0
C2530 C 0.859 0.40705 0.79163 0.0
C2531 C 0.85361 0.42085 0.78342 0.0
C2532 C 0.85033 0.3865 0.7837 0.0
C2533 C 0.87925 0.39971 0.81672 0.0
C2534 C 0.86057 0.37357 0.77883 0.0
C2535 C 0.85239 0.35432 0.77133 0.0
C2536 C 0.8339 0.34786 0.76791 0.0
C2537 C 0.82362 0.36086 0.77147 0.0
C2538 C 0.83175 0.38 0.77973 0.0
H2539 H 0.88332 0.4063 0.8317 0.0
H2540 H 0.86901 0.38617 0.81572 0.0
H2541 H 0.89105 0.39653 0.81063 0.0
H2542 H 0.8749 0.37834 0.78072 0.0
H2543 H 0.86051 0.34448 0.76796 0.0
H2544 H 0.06671 0.87357 0.10354 0.0
H2545 H 0.06094 0.90169 0.09337 0.0
H2546 H 0.09869 0.89912 0.05336 0.0
H2547 H 0.10468 0.87114 0.06364 0.0
H2548 H 0.10302 0.93613 0.07114 0.0
H2549 H 0.0315 0.90451 0.04747 0.0
H2550 H 0.03753 0.90364 0.0712 0.0
H2551 H 0.04602 0.89013 0.05268 0.0
C2552 C 0.07374 0.87885 0.09248 0.0
C2553 C 0.08613 0.86975 0.08442 0.0
C2554 C 0.07032 0.89501 0.08654 0.0
C2555 C 0.07908 0.90266 0.07224 0.0
C2556 C 0.09159 0.8937 0.06432 0.0
H2557 H 0.06682 0.9884 0.00637 0.0
H2558 H 0.06912 0.9595 0.01773 0.0
C2559 C 0.095 0.87754 0.07023 0.0
C2560 C 0.07556 0.92011 0.0658 0.0
H2561 H 0.04281 0.93778 0.048 0.0
C2562 C 0.08981 0.93637 0.06611 0.0
C2563 C 0.05838 0.9208 0.05904 0.0
C2564 C 0.04248 0.9038 0.05738 0.0
C2565 C 0.08736 0.95299 0.0602 0.0
C2566 C 0.07021 0.95369 0.05362 0.0
C2567 C 0.05596 0.93748 0.05317 0.0
C2568 C 0.06714 0.97088 0.04654 0.0
C2569 C 0.10318 0.96983 0.06089 0.0
C2570 C 0.0649 0.98706 0.05875 0.0
C2571 C 0.06328 1.00358 0.05217 0.0
C2572 C 0.06378 1.00439 0.03315 0.0
C2573 C 0.06593 0.98816 0.02099 0.0
C2574 C 0.06733 0.9716 0.02752 0.0
H2575 H 0.11576 0.96705 0.06587 0.0
H2576 H 0.10429 0.97329 0.04682 0.0
H2577 H 0.10133 0.98264 0.07031 0.0
H2578 H 0.06484 0.9871 0.0735 0.0
H2579 H 0.06225 0.01599 0.06207 0.0
H2580 H 0.95992 0.2446 0.88932 0.0
H2581 H 0.93479 0.24841 0.86989 0.0
H2582 H 0.96696 0.30265 0.86186 0.0
H2583 H 0.99209 0.29859 0.88087 0.0
H2584 H 0.91637 0.27629 0.87409 0.0
H2585 H 0.94771 0.2774 0.80853 0.0
H2586 H 0.95683 0.26956 0.82795 0.0
H2587 H 0.96036 0.29473 0.82814 0.0
C2588 C 0.96165 0.25725 0.88327 0.0
C2589 C 0.97813 0.27117 0.8865 0.0
C2590 C 0.94723 0.25947 0.87216 0.0
C2591 C 0.94882 0.27569 0.86393 0.0
C2592 C 0.96529 0.28971 0.86744 0.0
H2593 H 0.87905 0.31417 0.78858 0.0
H2594 H 0.90371 0.30981 0.80807 0.0
C2595 C 0.97971 0.28743 0.87844 0.0
C2596 C 0.93327 0.27817 0.85214 0.0
H2597 H 0.92028 0.28523 0.80902 0.0
C2598 C 0.91724 0.27816 0.85983 0.0
C2599 C 0.93417 0.28081 0.83348 0.0
C2600 C 0.95062 0.28047 0.82393 0.0
C2601 C 0.9025 0.2812 0.8498 0.0
C2602 C 0.90327 0.28361 0.83098 0.0
C2603 C 0.91933 0.28347 0.8233 0.0
C2604 C 0.88784 0.28643 0.8191 0.0
C2605 C 0.88657 0.2826 0.85997 0.0
C2606 C 0.87036 0.27476 0.81822 0.0
C2607 C 0.85612 0.27774 0.80752 0.0
C2608 C 0.85888 0.29195 0.79663 0.0
C2609 C 0.87637 0.30313 0.79682 0.0
C2610 C 0.89055 0.30056 0.808 0.0
H2611 H 0.89031 0.28728 0.87525 0.0
H2612 H 0.87993 0.29284 0.85519 0.0
H2613 H 0.87696 0.26822 0.85753 0.0
H2614 H 0.86762 0.26309 0.82566 0.0
H2615 H 0.84292 0.26854 0.80741 0.0
H2616 H 0.58513 0.261 0.56078 0.0
H2617 H 0.58128 0.22652 0.54801 0.0
H2618 H 0.59072 0.2171 0.60354 0.0
H2619 H 0.59387 0.25077 0.61621 0.0
H2620 H 0.60236 0.20075 0.5493 0.0
H2621 H 0.54385 0.17838 0.58646 0.0
H2622 H 0.55279 0.20299 0.5845 0.0
H2623 H 0.56252 0.19331 0.60213 0.0
C2624 C 0.58632 0.25153 0.57023 0.0
C2625 C 0.58943 0.25876 0.58961 0.0
C2626 C 0.58416 0.23178 0.56291 0.0
C2627 C 0.58521 0.21886 0.5748 0.0
C2628 C 0.58918 0.22638 0.594 0.0
H2629 H 0.57351 0.09999 0.5782 0.0
H2630 H 0.58006 0.13488 0.58292 0.0
C2631 C 0.59104 0.24583 0.60126 0.0
C2632 C 0.5819 0.19753 0.56767 0.0
H2633 H 0.55805 0.15412 0.57521 0.0
C2634 C 0.59253 0.19053 0.5548 0.0
C2635 C 0.569 0.18396 0.57462 0.0
C2636 C 0.55627 0.19002 0.58753 0.0
C2637 C 0.59128 0.17063 0.5496 0.0
C2638 C 0.57887 0.15717 0.55723 0.0
C2639 C 0.5678 0.16421 0.56948 0.0
C2640 C 0.57739 0.13587 0.55363 0.0
C2641 C 0.6038 0.16434 0.53657 0.0
C2642 C 0.57421 0.12436 0.53551 0.0
C2643 C 0.57082 0.10418 0.53279 0.0
C2644 C 0.57035 0.09504 0.54812 0.0
C2645 C 0.57397 0.10657 0.5661 0.0
C2646 C 0.57762 0.1266 0.5688 0.0
H2647 H 0.61547 0.17639 0.53597 0.0
H2648 H 0.60856 0.15258 0.54084 0.0
H2649 H 0.59673 0.15898 0.52231 0.0
H2650 H 0.57348 0.13083 0.52346 0.0
H2651 H 0.56763 0.0957 0.51876 0.0
H2652 H 0.5613 0.78934 0.36778 0.0
H2653 H 0.58818 0.79215 0.35193 0.0
H2654 H 0.61022 0.76538 0.39172 0.0
H2655 H 0.58357 0.76287 0.40785 0.0
H2656 H 0.6345 0.7966 0.3865 0.0
H2657 H 0.60471 0.7526 0.31732 0.0
H2658 H 0.59448 0.7715 0.32481 0.0
H2659 H 0.59279 0.75252 0.33761 0.0
C2660 C 0.57172 0.78377 0.37303 0.0
C2661 C 0.57007 0.77578 0.38913 0.0
C2662 C 0.58716 0.78533 0.36387 0.0
C2663 C 0.60132 0.77874 0.37037 0.0
C2664 C 0.59959 0.77057 0.38631 0.0
H2665 H 0.69295 0.77117 0.3068 0.0
H2666 H 0.66757 0.76318 0.3249 0.0
C2667 C 0.58423 0.76909 0.39552 0.0
C2668 C 0.61816 0.78111 0.3611 0.0
H2669 H 0.63443 0.77202 0.31904 0.0
C2670 C 0.63443 0.79109 0.37177 0.0
C2671 C 0.61836 0.7737 0.3419 0.0
C2672 C 0.60168 0.76181 0.32977 0.0
C2673 C 0.65058 0.79444 0.36372 0.0
C2674 C 0.65063 0.78785 0.34437 0.0
C2675 C 0.63449 0.77727 0.33383 0.0
C2676 C 0.66707 0.7926 0.33465 0.0
C2677 C 0.66752 0.80498 0.37608 0.0
C2678 C 0.67548 0.81177 0.33417 0.0
C2679 C 0.68987 0.81632 0.32377 0.0
C2680 C 0.6964 0.80185 0.3136 0.0
C2681 C 0.68842 0.78268 0.31462 0.0
C2682 C 0.67381 0.7781 0.32486 0.0
H2683 H 0.6661 0.8043 0.39093 0.0
H2684 H 0.67865 0.79897 0.37177 0.0
H2685 H 0.671 0.8203 0.37495 0.0
H2686 H 0.67052 0.82326 0.34134 0.0
H2687 H 0.69565 0.83123 0.32329 0.0
H2688 H 0.12218 0.29091 0.43966 0.0
H2689 H 0.11837 0.2646 0.45653 0.0
H2690 H 0.07498 0.23063 0.41568 0.0
H2691 H 0.07941 0.25654 0.39825 0.0
H2692 H 0.09081 0.25195 0.47295 0.0
H2693 H 0.09929 0.19045 0.42194 0.0
H2694 H 0.10551 0.2147 0.41807 0.0
H2695 H 0.08275 0.20064 0.41324 0.0
C2696 C 0.11212 0.27763 0.43406 0.0
C2697 C 0.10112 0.2757 0.41765 0.0
C2698 C 0.10993 0.26262 0.44371 0.0
C2699 C 0.0965 0.24551 0.43732 0.0
C2700 C 0.08577 0.24341 0.42064 0.0
H2701 H 0.04487 0.17129 0.50834 0.0
H2702 H 0.0524 0.19331 0.48684 0.0
C2703 C 0.08824 0.25828 0.41074 0.0
C2704 C 0.0926 0.23086 0.44913 0.0
H2705 H 0.08561 0.18303 0.44908 0.0
C2706 C 0.08984 0.23692 0.46772 0.0
C2707 C 0.09138 0.21123 0.44238 0.0
C2708 C 0.09507 0.2039 0.42287 0.0
C2709 C 0.08568 0.22392 0.47964 0.0
C2710 C 0.08381 0.20425 0.47271 0.0
C2711 C 0.08685 0.19813 0.45425 0.0
C2712 C 0.07887 0.18994 0.48464 0.0
C2713 C 0.08353 0.23136 0.49967 0.0
C2714 C 0.09114 0.18048 0.49016 0.0
C2715 C 0.0869 0.16794 0.50245 0.0
C2716 C 0.07029 0.16465 0.50942 0.0
C2717 C 0.05789 0.17384 0.50351 0.0
C2718 C 0.06213 0.18632 0.49117 0.0
H2719 H 0.0889 0.24719 0.50375 0.0
H2720 H 0.06923 0.22771 0.50163 0.0
H2721 H 0.09033 0.22457 0.50916 0.0
H2722 H 0.10414 0.18314 0.48528 0.0
H2723 H 0.09674 0.16112 0.50682 0.0
H2724 H 0.57539 0.27606 0.15554 0.0
H2725 H 0.6054 0.27382 0.16385 0.0
H2726 H 0.59188 0.26607 0.21857 0.0
H2727 H 0.56217 0.26877 0.21064 0.0
H2728 H 0.62459 0.29045 0.21928 0.0
H2729 H 0.616 0.22275 0.16733 0.0
H2730 H 0.61265 0.24284 0.15821 0.0
H2731 H 0.59766 0.23246 0.17344 0.0
C2732 C 0.57891 0.27415 0.16942 0.0
C2733 C 0.56638 0.27243 0.18239 0.0
C2734 C 0.59598 0.2727 0.17407 0.0
C2735 C 0.60065 0.26934 0.19165 0.0
C2736 C 0.58845 0.26855 0.20488 0.0
H2737 H 0.67688 0.21845 0.23458 0.0
H2738 H 0.65128 0.22525 0.21935 0.0
C2739 C 0.57148 0.27013 0.20032 0.0
C2740 C 0.61806 0.26619 0.19643 0.0
H2741 H 0.64315 0.23463 0.18653 0.0
C2742 C 0.62876 0.27836 0.21205 0.0
C2743 C 0.62323 0.25022 0.18704 0.0
C2744 C 0.61176 0.23619 0.17066 0.0
C2745 C 0.6443 0.2747 0.21897 0.0
C2746 C 0.64957 0.25879 0.20955 0.0
C2747 C 0.63909 0.24687 0.19362 0.0
C2748 C 0.66546 0.25383 0.21668 0.0
C2749 C 0.65438 0.28742 0.23683 0.0
C2750 C 0.68197 0.26738 0.21965 0.0
C2751 C 0.69639 0.26391 0.22903 0.0
C2752 C 0.69484 0.2464 0.23497 0.0
C2753 C 0.67852 0.23226 0.23069 0.0
C2754 C 0.66393 0.23601 0.22174 0.0
H2755 H 0.646 0.29536 0.24483 0.0
H2756 H 0.65946 0.27894 0.24589 0.0
H2757 H 0.66582 0.29817 0.23345 0.0
H2758 H 0.68354 0.28103 0.21541 0.0
H2759 H 0.7085 0.2754 0.23225 0.0
H2760 H 0.61469 0.86891 0.95131 0.0
H2761 H 0.61398 0.90069 0.96799 0.0
H2762 H 0.61128 0.91966 0.91588 0.0
H2763 H 0.6118 0.88803 0.89909 0.0
H2764 H 0.63492 0.94151 0.96682 0.0
H2765 H 0.5635 0.92072 0.93914 0.0
H2766 H 0.57615 0.90332 0.93919 0.0
H2767 H 0.57904 0.91852 0.92238 0.0
C2768 C 0.6143 0.87997 0.94345 0.0
C2769 C 0.61296 0.87591 0.92389 0.0
C2770 C 0.61397 0.89809 0.95299 0.0
C2771 C 0.61239 0.9123 0.94306 0.0
C2772 C 0.61235 0.90873 0.92369 0.0
H2773 H 0.57257 0.01115 0.97589 0.0
H2774 H 0.58541 0.98752 0.95845 0.0
C2775 C 0.61257 0.89065 0.91415 0.0
C2776 C 0.60854 0.92992 0.95263 0.0
H2777 H 0.57486 0.95127 0.95791 0.0
C2778 C 0.62185 0.9438 0.96488 0.0
C2779 C 0.59147 0.93271 0.9499 0.0
C2780 C 0.57663 0.91801 0.93705 0.0
C2781 C 0.61852 0.96063 0.9745 0.0
C2782 C 0.60129 0.96321 0.9721 0.0
C2783 C 0.58809 0.94933 0.95966 0.0
C2784 C 0.59615 0.97964 0.98283 0.0
C2785 C 0.63353 0.9755 0.98688 0.0
C2786 C 0.59828 0.98341 1.00236 0.0
C2787 C 0.5913 0.99728 0.01241 0.0
C2788 C 0.58143 0.00706 1.00313 0.0
C2789 C 0.57978 1.00365 0.98356 0.0
C2790 C 0.58718 0.99017 0.97353 0.0
H2791 H 0.64657 0.97471 0.98217 0.0
H2792 H 0.6322 0.99024 0.98722 0.0
H2793 H 0.63348 0.97278 1.00127 0.0
H2794 H 0.60479 0.97518 0.00987 0.0
H2795 H 0.59329 0.99991 0.0274 0.0
H2796 H 0.97486 0.76514 0.72392 0.0
H2797 H 0.94582 0.76419 0.73464 0.0
H2798 H 0.93018 0.78441 0.68632 0.0
H2799 H 0.95925 0.78544 0.67537 0.0
H2800 H 0.9319 0.79908 0.73943 0.0
H2801 H 0.88874 0.73486 0.69066 0.0
H2802 H 0.91217 0.73775 0.69624 0.0
H2803 H 0.90495 0.75175 0.68128 0.0
C2804 C 0.9653 0.76949 0.7156 0.0
C2805 C 0.96935 0.77549 0.69887 0.0
C2806 C 0.9487 0.76874 0.72165 0.0
C2807 C 0.93589 0.77381 0.711 0.0
C2808 C 0.93988 0.78005 0.69444 0.0
H2809 H 0.83055 0.78428 0.72746 0.0
H2810 H 0.85919 0.78413 0.71577 0.0
C2811 C 0.95654 0.78089 0.68839 0.0
C2812 C 0.91899 0.77439 0.71828 0.0
H2813 H 0.87462 0.75266 0.71201 0.0
C2814 C 0.91938 0.7888 0.73365 0.0
C2815 C 0.90278 0.76117 0.71026 0.0
C2816 C 0.90199 0.7454 0.69373 0.0
C2817 C 0.90384 0.79051 0.74126 0.0
C2818 C 0.88755 0.77726 0.73348 0.0
C2819 C 0.88716 0.76276 0.71801 0.0
C2820 C 0.87073 0.77846 0.74097 0.0
C2821 C 0.90476 0.80763 0.75625 0.0
C2822 C 0.8678 0.77526 0.75895 0.0
C2823 C 0.85163 0.77573 0.76573 0.0
C2824 C 0.83828 0.77944 0.7546 0.0
C2825 C 0.84106 0.78225 0.73651 0.0
C2826 C 0.85725 0.78193 0.72978 0.0
H2827 H 0.91858 0.81629 0.76119 0.0
H2828 H 0.89762 0.81671 0.75018 0.0
H2829 H 0.89828 0.80331 0.76838 0.0
H2830 H 0.8779 0.77205 0.76759 0.0
H2831 H 0.84942 0.77292 0.77952 0.0
H2832 H 0.15085 0.01017 0.83507 0.0
H2833 H 0.13812 0.01249 0.86499 0.0
H2834 H 0.10997 0.05124 0.84868 0.0
H2835 H 0.12289 0.04919 0.8189 0.0
H2836 H 0.14031 0.04415 0.89473 0.0
H2837 H 0.06978 0.01337 0.86685 0.0
H2838 H 0.08759 0.01091 0.85291 0.0
H2839 H 0.08133 0.03306 0.85702 0.0
C2840 C 0.14189 0.01916 0.83768 0.0
C2841 C 0.13806 0.02939 0.82401 0.0
C2842 C 0.13453 0.02054 0.85507 0.0
C2843 C 0.12263 0.03189 0.85965 0.0
C2844 C 0.11873 0.04204 0.84593 0.0
H2845 H 0.05863 0.0518 0.9559 0.0
H2846 H 0.07101 0.04909 0.92584 0.0
C2847 C 0.1263 0.04091 0.82867 0.0
C2848 C 0.11481 0.03348 0.87867 0.0
H2849 H 0.07565 0.02638 0.8991 0.0
C2850 C 0.12613 0.04016 0.89555 0.0
C2851 C 0.09627 0.02862 0.88047 0.0
C2852 C 0.08297 0.02093 0.86341 0.0
C2853 C 0.11976 0.04258 0.91351 0.0
C2854 C 0.10115 0.0373 0.91544 0.0
C2855 C 0.08984 0.03053 0.89843 0.0
C2856 C 0.09321 0.03886 0.93456 0.0
C2857 C 0.13337 0.05179 0.93014 0.0
C2858 C 0.10076 0.0338 0.95037 0.0
C2859 C 0.09386 0.03595 0.96794 0.0
C2860 C 0.0785 0.04245 0.97066 0.0
C2861 C 0.0704 0.0467 0.95475 0.0
C2862 C 0.07762 0.04509 0.93727 0.0
H2863 H 0.14549 0.06111 0.92614 0.0
H2864 H 0.12811 0.06068 0.94109 0.0
H2865 H 0.13745 0.04044 0.93599 0.0
H2866 H 0.11205 0.02792 0.94924 0.0
H2867 H 0.10052 0.03215 0.97947 0.0
H2868 H 0.78434 0.39675 0.56246 0.0
H2869 H 0.78847 0.38358 0.59035 0.0
H2870 H 0.84038 0.42349 0.60458 0.0
H2871 H 0.83565 0.4375 0.57767 0.0
H2872 H 0.81116 0.36531 0.59644 0.0
H2873 H 0.82533 0.42773 0.65474 0.0
H2874 H 0.81659 0.42876 0.63177 0.0
H2875 H 0.84007 0.43241 0.63744 0.0
C2876 C 0.79633 0.40308 0.57199 0.0
C2877 C 0.80954 0.41832 0.56822 0.0
C2878 C 0.79874 0.39553 0.58783 0.0
C2879 C 0.81461 0.40277 0.59986 0.0
C2880 C 0.82772 0.41815 0.59608 0.0
H2881 H 0.87559 0.36806 0.68001 0.0
H2882 H 0.86236 0.38393 0.65888 0.0
C2883 C 0.82506 0.4261 0.58061 0.0
C2884 C 0.81832 0.39292 0.61504 0.0
H2885 H 0.83589 0.40083 0.66035 0.0
C2886 C 0.81624 0.37303 0.61052 0.0
C2887 C 0.82502 0.40297 0.63342 0.0
C2888 C 0.8267 0.42411 0.63964 0.0
C2889 C 0.8215 0.36309 0.6235 0.0
C2890 C 0.82884 0.37329 0.64166 0.0
C2891 C 0.83034 0.39304 0.6464 0.0
C2892 C 0.83627 0.36407 0.65547 0.0
C2893 C 0.81995 0.34196 0.61728 0.0
C2894 C 0.82592 0.34785 0.66099 0.0
C2895 C 0.83362 0.33828 0.67262 0.0
C2896 C 0.85176 0.34503 0.67937 0.0
C2897 C 0.86175 0.36201 0.6747 0.0
C2898 C 0.85414 0.3713 0.66277 0.0
H2899 H 0.81817 0.33747 0.60186 0.0
H2900 H 0.83187 0.33823 0.62273 0.0
H2901 H 0.80821 0.33355 0.62267 0.0
H2902 H 0.81197 0.34233 0.65598 0.0
H2903 H 0.82542 0.32524 0.67576 0.0
H2904 H 0.439 0.05171 0.36903 0.0
H2905 H 0.45465 0.05159 0.39889 0.0
H2906 H 0.49693 0.09917 0.3914 0.0
H2907 H 0.48157 0.09889 0.36127 0.0
H2908 H 0.49876 0.05416 0.38878 0.0
H2909 H 0.48013 0.09417 0.45315 0.0
H2910 H 0.46374 0.08138 0.4337 0.0
H2911 H 0.47969 0.10293 0.43167 0.0
C2912 C 0.45112 0.06285 0.37435 0.0
C2913 C 0.45918 0.07544 0.36319 0.0
C2914 C 0.46002 0.06272 0.3913 0.0
C2915 C 0.47681 0.07542 0.39717 0.0
C2916 C 0.48385 0.08946 0.38703 0.0
H2917 H 0.5599 0.08121 0.48182 0.0
H2918 H 0.54316 0.08752 0.45538 0.0
C2919 C 0.47512 0.08934 0.36994 0.0
C2920 C 0.4888 0.07098 0.41067 0.0
H2921 H 0.50348 0.07965 0.45669 0.0
C2922 C 0.49987 0.05972 0.40365 0.0
C2923 C 0.48989 0.07819 0.42989 0.0
C2924 C 0.47776 0.08985 0.43772 0.0
C2925 C 0.51239 0.05569 0.41552 0.0
C2926 C 0.51373 0.0632 0.43475 0.0
C2927 C 0.50252 0.07429 0.4418 0.0
C2928 C 0.52588 0.05866 0.44804 0.0
C2929 C 0.52413 0.04356 0.40752 0.0
C2930 C 0.52194 0.04022 0.45195 0.0
C2931 C 0.53129 0.03668 0.46698 0.0
C2932 C 0.54466 0.05155 0.47814 0.0
C2933 C 0.54961 0.06959 0.47329 0.0
C2934 C 0.54006 0.0732 0.45835 0.0
H2935 H 0.52376 0.042 0.39215 0.0
H2936 H 0.53805 0.04987 0.4139 0.0
H2937 H 0.51956 0.02903 0.41072 0.0
H2938 H 0.51096 0.0289 0.44409 0.0
H2939 H 0.5275 0.02258 0.47041 0.0
H2940 H 0.81841 0.75561 0.06253 0.0
H2941 H 0.8178 0.76984 0.09552 0.0
H2942 H 0.79459 0.71349 0.10604 0.0
H2943 H 0.79596 0.69933 0.07381 0.0
H2944 H 0.79152 0.77052 0.11797 0.0
H2945 H 0.83514 0.73135 0.14589 0.0
H2946 H 0.83248 0.73197 0.12147 0.0
H2947 H 0.81661 0.71495 0.13111 0.0
C2948 C 0.81335 0.74631 0.07199 0.0
C2949 C 0.80761 0.7263 0.06561 0.0
C2950 C 0.81295 0.75444 0.09082 0.0
C2951 C 0.80661 0.74271 0.10351 0.0
C2952 C 0.80021 0.72284 0.09684 0.0
H2953 H 0.78562 0.74269 0.21587 0.0
H2954 H 0.78602 0.73749 0.18212 0.0
C2955 C 0.80095 0.71475 0.0783 0.0
C2956 C 0.80639 0.75085 0.12368 0.0
H2957 H 0.8169 0.7438 0.16726 0.0
C2958 C 0.79726 0.76488 0.12878 0.0
C2959 C 0.81409 0.74374 0.13793 0.0
C2960 C 0.82529 0.72984 0.13382 0.0
C2961 C 0.79467 0.77101 0.14754 0.0
C2962 C 0.80146 0.76298 0.16159 0.0
C2963 C 0.81133 0.7497 0.15653 0.0
C2964 C 0.79808 0.76727 0.18155 0.0
C2965 C 0.78409 0.78544 0.15205 0.0
C2966 C 0.80399 0.78591 0.19256 0.0
C2967 C 0.80332 0.78896 0.21196 0.0
C2968 C 0.79687 0.77338 0.22062 0.0
C2969 C 0.79029 0.75497 0.20949 0.0
C2970 C 0.79068 0.75199 0.19021 0.0
H2971 H 0.7764 0.78688 0.13944 0.0
H2972 H 0.77481 0.78135 0.16237 0.0
H2973 H 0.79328 0.79968 0.15821 0.0
H2974 H 0.81012 0.79792 0.18639 0.0
H2975 H 0.809 0.80321 0.22029 0.0
H2976 H 0.12653 0.02908 0.72494 0.0
H2977 H 0.11275 0.03367 0.69575 0.0
H2978 H 0.14878 0.00794 0.66523 0.0
H2979 H 0.16222 1.00291 0.69421 0.0
H2980 H 0.12103 0.05348 0.67001 0.0
H2981 H 0.10648 0.97899 0.63125 0.0
H2982 H 0.114 0.98537 0.65578 0.0
H2983 H 0.1297 0.98818 0.6388 0.0
C2984 C 0.13141 0.02401 0.71204 0.0
C2985 C 0.14556 0.0152 0.7125 0.0
C2986 C 0.12347 0.02683 0.69506 0.0
C2987 C 0.12911 0.02091 0.67748 0.0
C2988 C 0.14335 0.01224 0.678 0.0
H2989 H 0.11224 0.03537 0.56128 0.0
H2990 H 0.12209 0.03104 0.59196 0.0
C2991 C 0.15126 0.00939 0.69493 0.0
C2992 C 0.12055 0.02414 0.65897 0.0
H2993 H 0.10522 1.00255 0.61297 0.0
C2994 C 0.11744 0.04212 0.65771 0.0
C2995 C 0.11541 0.00969 0.64231 0.0
C2996 C 0.11637 0.98943 0.64211 0.0
C2997 C 0.11026 0.04605 0.64081 0.0
C2998 C 0.10573 0.03178 0.6241 0.0
C2999 C 0.10859 0.01378 0.62539 0.0
C3000 C 0.09914 0.03543 0.60504 0.0
C3001 C 0.10811 0.06584 0.64074 0.0
C3002 C 0.08262 0.03953 0.60122 0.0
C3003 C 0.07662 0.04175 0.58307 0.0
C3004 C 0.08706 0.0404 0.56802 0.0
C3005 C 0.10363 0.0367 0.57216 0.0
C3006 C 0.1094 0.03413 0.58998 0.0
H3007 H 0.11434 0.07617 0.65382 0.0
H3008 H 0.11405 0.07132 0.62876 0.0
H3009 H 0.09378 0.06513 0.63908 0.0
H3010 H 0.07406 0.04052 0.61218 0.0
H3011 H 0.06367 0.04417 0.58079 0.0
H3012 H 0.80951 0.4123 0.45105 0.0
H3013 H 0.81357 0.39542 0.42035 0.0
H3014 H 0.81016 0.34393 0.44198 0.0
H3015 H 0.80665 0.36087 0.47278 0.0
H3016 H 0.8397 0.35404 0.42286 0.0
H3017 H 0.77789 0.35472 0.38183 0.0
H3018 H 0.79101 0.37767 0.39454 0.0
H3019 H 0.78055 0.3597 0.40698 0.0
C3020 C 0.80915 0.39724 0.4491 0.0
C3021 C 0.80762 0.38779 0.46418 0.0
C3022 C 0.81154 0.38765 0.43161 0.0
C3023 C 0.81206 0.36842 0.42894 0.0
C3024 C 0.80985 0.3588 0.44383 0.0
H3025 H 0.8089 0.28367 0.33083 0.0
H3026 H 0.80972 0.29964 0.36328 0.0
C3027 C 0.80772 0.36842 0.46133 0.0
C3028 C 0.8156 0.3584 0.41087 0.0
H3029 H 0.79876 0.3423 0.36529 0.0
C3030 C 0.83073 0.35142 0.41027 0.0
C3031 C 0.80392 0.35515 0.39451 0.0
C3032 C 0.78735 0.36206 0.39443 0.0
C3033 C 0.83441 0.34115 0.39364 0.0
C3034 C 0.82261 0.33775 0.37745 0.0
C3035 C 0.80764 0.34488 0.37795 0.0
C3036 C 0.82554 0.32714 0.35955 0.0
C3037 C 0.85079 0.33393 0.39332 0.0
C3038 C 0.83473 0.33724 0.34714 0.0
C3039 C 0.83389 0.32835 0.32859 0.0
C3040 C 0.82372 0.30926 0.3222 0.0
C3041 C 0.81613 0.29861 0.33517 0.0
C3042 C 0.8168 0.30761 0.35373 0.0
H3043 H 0.8586 0.3376 0.40723 0.0
H3044 H 0.84695 0.31811 0.38847 0.0
H3045 H 0.85933 0.34023 0.38327 0.0
H3046 H 0.84159 0.35233 0.35153 0.0
H3047 H 0.84037 0.33685 0.3191 0.0
H3048 H 0.42114 0.03804 0.24425 0.0
H3049 H 0.43258 0.03199 0.21418 0.0
H3050 H 0.48168 0.07458 0.2361 0.0
H3051 H 0.47055 0.08041 0.26641 0.0
H3052 H 0.44971 0.05425 0.18773 0.0
H3053 H 0.49327 0.02149 0.22617 0.0
H3054 H 0.47444 0.02805 0.23561 0.0
H3055 H 0.49492 0.04607 0.23627 0.0
C3056 C 0.43422 0.04644 0.24255 0.0
C3057 C 0.44519 0.05932 0.25774 0.0
C3058 C 0.44066 0.04303 0.22536 0.0
C3059 C 0.45801 0.0526 0.2232 0.0
C3060 C 0.4683 0.0669 0.23774 0.0
H3061 H 0.52402 0.05635 0.13737 0.0
H3062 H 0.50125 0.06011 0.15784 0.0
C3063 C 0.46198 0.07015 0.25501 0.0
C3064 C 0.46634 0.04557 0.20703 0.0
H3065 H 0.49952 0.02496 0.19563 0.0
C3066 C 0.46051 0.0477 0.18932 0.0
C3067 C 0.47998 0.03647 0.20922 0.0
C3068 C 0.48593 0.03268 0.22781 0.0
C3069 C 0.46878 0.04185 0.17374 0.0
C3070 C 0.48327 0.034 0.17623 0.0
C3071 C 0.48841 0.03101 0.1938 0.0
C3072 C 0.49465 0.03065 0.16149 0.0
C3073 C 0.46206 0.04427 0.15489 0.0
C3074 C 0.49867 0.01292 0.15707 0.0
C3075 C 0.51197 0.01086 0.14571 0.0
C3076 C 0.52128 0.0265 0.13861 0.0
C3077 C 0.51689 0.04406 0.14263 0.0
C3078 C 0.50374 0.04615 0.15408 0.0
H3079 H 0.44777 0.04389 0.15417 0.0
H3080 H 0.46947 0.05843 0.1524 0.0
H3081 H 0.46394 0.03293 0.1436 0.0
H3082 H 0.49189 1.00088 0.16288 0.0
H3083 H 0.51502 0.99714 0.14253 0.0
H3084 H 0.79223 0.75055 0.96549 0.0
H3085 H 0.79394 0.7592 0.93488 0.0
H3086 H 0.82271 0.71726 0.91827 0.0
H3087 H 0.82129 0.70868 0.94909 0.0
H3088 H 0.8363 0.75229 0.9063 0.0
H3089 H 0.76348 0.72563 0.88781 0.0
H3090 H 0.77004 0.74275 0.9094 0.0
H3091 H 0.77476 0.7198 0.90723 0.0
C3092 C 0.79903 0.74321 0.9554 0.0
C3093 C 0.8065 0.72879 0.9598 0.0
C3094 C 0.79991 0.74811 0.93781 0.0
C3095 C 0.80812 0.73862 0.92402 0.0
C3096 C 0.8162 0.72473 0.92857 0.0
H3097 H 0.80671 0.74181 0.80416 0.0
H3098 H 0.80874 0.73183 0.83433 0.0
C3099 C 0.81538 0.71985 0.94624 0.0
C3100 C 0.80784 0.74292 0.90481 0.0
H3101 H 0.7797 0.7434 0.86744 0.0
C3102 C 0.82392 0.75018 0.89776 0.0
C3103 C 0.79171 0.74011 0.8935 0.0
C3104 C 0.77401 0.73148 0.89975 0.0
C3105 C 0.82423 0.75521 0.88007 0.0
C3106 C 0.80811 0.75284 0.86906 0.0
C3107 C 0.79207 0.74525 0.8759 0.0
C3108 C 0.80758 0.75894 0.85074 0.0
C3109 C 0.84175 0.76343 0.8733 0.0
C3110 C 0.80603 0.77737 0.8499 0.0
C3111 C 0.80471 0.78303 0.83273 0.0
C3112 C 0.80516 0.7705 0.81594 0.0
C3113 C 0.80656 0.75193 0.8168 0.0
C3114 C 0.80778 0.74622 0.83404 0.0
H3115 H 0.8532 0.7637 0.88311 0.0
H3116 H 0.84267 0.75485 0.85949 0.0
H3117 H 0.84262 0.77829 0.87146 0.0
H3118 H 0.80556 0.78732 0.86255 0.0
H3119 H 0.80279 0.79707 0.83264 0.0
H3120 H 0.82911 0.09099 0.02467 0.0
H3121 H 0.85766 0.08388 0.02218 0.0
H3122 H 0.88209 0.14277 0.01937 0.0
H3123 H 0.85313 0.14979 0.02108 0.0
H3124 H 0.89202 0.11841 0.99375 0.0
H3125 H 0.89919 0.09615 0.06086 0.0
H3126 H 0.87786 0.08337 0.04873 0.0
H3127 H 0.88333 0.10914 0.05583 0.0
C3128 C 0.84059 0.10242 0.02357 0.0
C3129 C 0.83909 0.12091 0.02313 0.0
C3130 C 0.8569 0.09843 0.02241 0.0
C3131 C 0.87206 0.11299 0.02134 0.0
C3132 C 0.87055 0.13146 0.02054 0.0
H3133 H 0.96907 0.08068 0.99312 0.0
H3134 H 0.95047 0.10138 0.00453 0.0
C3135 C 0.85407 0.13539 0.02135 0.0
C3136 C 0.88901 0.10813 0.01938 0.0
H3137 H 0.91325 0.08077 0.0356 0.0
C3138 C 0.89704 0.11065 1.00314 0.0
C3139 C 0.89567 0.09835 0.03187 0.0
C3140 C 0.88865 0.09682 0.05039 0.0
C3141 C 0.91038 0.10184 0.99804 0.0
C3142 C 0.91566 0.09033 0.00956 0.0
C3143 C 0.90878 0.08926 0.02663 0.0
C3144 C 0.92709 0.07796 1.00331 0.0
C3145 C 0.91786 0.1038 0.9798 0.0
C3146 C 0.92 0.05797 0.99904 0.0
C3147 C 0.93062 0.04605 0.99274 0.0
C3148 C 0.94846 0.05403 0.99069 0.0
C3149 C 0.95537 0.07412 0.9947 0.0
C3150 C 0.94481 0.08598 1.00115 0.0
H3151 H 0.91058 0.11114 0.97137 0.0
H3152 H 0.93194 0.1123 0.98262 0.0
H3153 H 0.91741 0.08947 0.97148 0.0
H3154 H 0.90625 0.05163 1.00064 0.0
H3155 H 0.92505 0.03064 0.99002 0.0
H3156 H 0.36332 0.45949 0.05548 0.0
H3157 H 0.39419 0.47857 0.05764 0.0
H3158 H 0.40741 0.43059 0.02424 0.0
H3159 H 0.37678 0.41137 0.02229 0.0
H3160 H 0.43182 0.44766 0.05506 0.0
H3161 H 0.41913 0.5029 0.01732 0.0
H3162 H 0.4067 0.49969 0.03682 0.0
H3163 H 0.40274 0.48055 0.01676 0.0
C3164 C 0.37276 0.45302 0.0485 0.0
C3165 C 0.36746 0.43386 0.03865 0.0
C3166 C 0.39043 0.464 0.04968 0.0
C3167 C 0.40316 0.45614 0.0409 0.0
C3168 C 0.39789 0.43702 0.03113 0.0
H3169 H 0.50807 0.4944 0.01081 0.0
H3170 H 0.47717 0.47943 0.01394 0.0
C3171 C 0.3803 0.42603 0.03001 0.0
C3172 C 0.42202 0.46758 0.04199 0.0
H3173 H 0.44871 0.507 0.02954 0.0
C3174 C 0.43547 0.4607 0.04959 0.0
C3175 C 0.42688 0.4846 0.03479 0.0
C3176 C 0.41316 0.49235 0.02581 0.0
C3177 C 0.45352 0.47023 0.05001 0.0
C3178 C 0.45833 0.48708 0.04267 0.0
C3179 C 0.44496 0.49417 0.03533 0.0
C3180 C 0.47719 0.49654 0.04112 0.0
C3181 C 0.46748 0.46211 0.05797 0.0
C3182 C 0.48752 0.5112 0.05541 0.0
C3183 C 0.50532 0.51995 0.05365 0.0
C3184 C 0.51311 0.51412 0.03758 0.0
C3185 C 0.50265 0.49931 0.0234 0.0
C3186 C 0.48491 0.49071 0.02513 0.0
H3187 H 0.46163 0.44918 0.06366 0.0
H3188 H 0.47578 0.45822 0.04695 0.0
H3189 H 0.47634 0.47316 0.06922 0.0
H3190 H 0.48183 0.51586 0.06792 0.0
H3191 H 0.51298 0.53119 0.06491 0.0
H3192 H 0.38292 0.61022 0.728 0.0
H3193 H 0.36915 0.63673 0.72752 0.0
H3194 H 0.39118 0.66127 0.78431 0.0
H3195 H 0.40548 0.63523 0.78449 0.0
H3196 H 0.34537 0.65092 0.74074 0.0
H3197 H 0.40415 0.71047 0.76987 0.0
H3198 H 0.40564 0.68616 0.76354 0.0
H3199 H 0.39872 0.69462 0.78579 0.0
C3200 C 0.38506 0.62129 0.74044 0.0
C3201 C 0.39579 0.62005 0.75624 0.0
C3202 C 0.37697 0.63677 0.74019 0.0
C3203 C 0.37905 0.65219 0.75569 0.0
C3204 C 0.38947 0.65064 0.77162 0.0
H3205 H 0.32955 0.75354 0.77911 0.0
H3206 H 0.34253 0.72654 0.78177 0.0
C3207 C 0.39767 0.63525 0.77183 0.0
C3208 C 0.37014 0.66919 0.75521 0.0
H3209 H 0.37671 0.71863 0.76808 0.0
C3210 C 0.35252 0.66565 0.74669 0.0
C3211 C 0.37871 0.68908 0.76277 0.0
C3212 C 0.39789 0.69538 0.77082 0.0
C3213 C 0.34364 0.6805 0.74583 0.0
C3214 C 0.35213 0.70023 0.75361 0.0
C3215 C 0.36967 0.70385 0.76218 0.0
C3216 C 0.34333 0.71702 0.75223 0.0
C3217 C 0.32478 0.67485 0.73691 0.0
C3218 C 0.33901 0.72159 0.73488 0.0
C3219 C 0.33168 0.73729 0.73339 0.0
C3220 C 0.32762 0.74927 0.74905 0.0
C3221 C 0.33179 0.74471 0.7665 0.0
C3222 C 0.3395 0.72911 0.76803 0.0
H3223 H 0.31889 0.65908 0.73416 0.0
H3224 H 0.31653 0.68191 0.74603 0.0
H3225 H 0.32435 0.67974 0.72349 0.0
H3226 H 0.34178 0.71323 0.72225 0.0
H3227 H 0.32927 0.74021 0.71966 0.0
H3228 H 0.24496 0.59046 0.50961 0.0
H3229 H 0.21396 0.58114 0.51556 0.0
H3230 H 0.20832 0.6365 0.5089 0.0
H3231 H 0.23929 0.64605 0.50291 0.0
H3232 H 0.19826 0.62328 0.54428 0.0
H3233 H 0.16793 0.57149 0.47841 0.0
H3234 H 0.18826 0.5689 0.48898 0.0
H3235 H 0.18839 0.58998 0.47982 0.0
C3236 C 0.23703 0.60049 0.50894 0.0
C3237 C 0.24456 0.61901 0.50589 0.0
C3238 C 0.2194 0.59518 0.51244 0.0
C3239 C 0.20912 0.60826 0.51279 0.0
C3240 C 0.21625 0.62636 0.5088 0.0
H3241 H 0.1024 0.60532 0.53234 0.0
H3242 H 0.1348 0.61639 0.53459 0.0
C3243 C 0.23386 0.63168 0.50525 0.0
C3244 C 0.19107 0.60323 0.51801 0.0
H3245 H 0.14999 0.57373 0.50279 0.0
C3246 C 0.18762 0.61247 0.53529 0.0
C3247 C 0.17745 0.58916 0.50614 0.0
C3248 C 0.18056 0.57935 0.48722 0.0
C3249 C 0.17068 0.60766 0.54118 0.0
C3250 C 0.15708 0.59346 0.52931 0.0
C3251 C 0.1606 0.5844 0.51198 0.0
C3252 C 0.13871 0.58814 0.53376 0.0
C3253 C 0.16753 0.61745 0.56005 0.0
C3254 C 0.13035 0.56871 0.53285 0.0
C3255 C 0.11198 0.56238 0.53091 0.0
C3256 C 0.10181 0.57551 0.53089 0.0
C3257 C 0.11016 0.59512 0.53301 0.0
C3258 C 0.12859 0.60144 0.53448 0.0
H3259 H 0.18015 0.62466 0.56912 0.0
H3260 H 0.16049 0.62848 0.55834 0.0
H3261 H 0.15911 0.60695 0.56711 0.0
H3262 H 0.13799 0.55824 0.53201 0.0
H3263 H 0.10583 0.54716 0.52857 0.0
H3264 H 0.74001 1.00343 0.7214 0.0
H3265 H 0.74742 0.97299 0.72089 0.0
H3266 H 0.71555 0.96284 0.76589 0.0
H3267 H 0.70755 0.99285 0.76594 0.0
H3268 H 0.76552 0.96608 0.7485 0.0
H3269 H 0.70177 0.9103 0.73377 0.0
H3270 H 0.70393 0.93428 0.72978 0.0
H3271 H 0.70092 0.92911 0.75264 0.0
C3272 C 0.73445 0.99458 0.73104 0.0
C3273 C 0.72335 1.0005 0.74383 0.0
C3274 C 0.73855 0.97715 0.73061 0.0
C3275 C 0.73175 0.96548 0.74308 0.0
C3276 C 0.72046 0.97128 0.7557 0.0
H3277 H 0.7599 0.89411 0.80645 0.0
H3278 H 0.74417 0.91016 0.78759 0.0
C3279 C 0.71612 0.98857 0.75593 0.0
C3280 C 0.73848 0.94878 0.74484 0.0
H3281 H 0.72568 0.90268 0.75125 0.0
C3282 C 0.75686 0.95203 0.74857 0.0
C3283 C 0.72712 0.93051 0.74491 0.0
C3284 C 0.70735 0.92581 0.73985 0.0
C3285 C 0.76413 0.93801 0.75385 0.0
C3286 C 0.75268 0.92013 0.7551 0.0
C3287 C 0.73438 0.91642 0.75024 0.0
C3288 C 0.7593 0.90653 0.76414 0.0
C3289 C 0.78388 0.94302 0.75941 0.0
C3290 C 0.77241 0.8984 0.75677 0.0
C3291 C 0.78172 0.88962 0.7677 0.0
C3292 C 0.77785 0.88867 0.78603 0.0
C3293 C 0.7635 0.89513 0.79259 0.0
C3294 C 0.75434 0.90406 0.78174 0.0
H3295 H 0.79036 0.9585 0.76036 0.0
H3296 H 0.78667 0.9393 0.77308 0.0
H3297 H 0.79004 0.93468 0.74888 0.0
H3298 H 0.7762 0.89996 0.74307 0.0
H3299 H 0.79266 0.88473 0.76222 0.0
H3300 H 0.76359 0.91784 0.51218 0.0
H3301 H 0.73784 0.93088 0.50938 0.0
H3302 H 0.75214 0.96329 0.56566 0.0
H3303 H 0.77803 0.95086 0.56835 0.0
H3304 H 0.70863 0.92973 0.52851 0.0
H3305 H 0.74921 1.00497 0.53782 0.0
H3306 H 0.75878 0.98492 0.53393 0.0
H3307 H 0.75358 0.99389 0.55681 0.0
C3308 C 0.76129 0.92782 0.52392 0.0
C3309 C 0.77307 0.93355 0.54037 0.0
C3310 C 0.74651 0.93521 0.52233 0.0
C3311 C 0.74321 0.94842 0.53717 0.0
C3312 C 0.75463 0.95358 0.55382 0.0
H3313 H 0.66406 0.01369 0.5521 0.0
H3314 H 0.68461 0.99439 0.55772 0.0
C3315 C 0.76944 0.94638 0.55535 0.0
C3316 C 0.72811 0.95715 0.53521 0.0
H3317 H 0.71822 1.00027 0.53827 0.0
C3318 C 0.71074 0.94515 0.53059 0.0
C3319 C 0.7308 0.97729 0.53788 0.0
C3320 C 0.74911 0.99102 0.5417 0.0
C3321 C 0.69608 0.95278 0.52876 0.0
C3322 C 0.69883 0.97289 0.53162 0.0
C3323 C 0.71612 0.98485 0.53632 0.0
C3324 C 0.68422 0.98196 0.52862 0.0
C3325 C 0.67771 0.93938 0.52391 0.0
C3326 C 0.67699 0.98114 0.51045 0.0
C3327 C 0.66551 0.99233 0.50722 0.0
C3328 C 0.66086 1.00439 0.52212 0.0
C3329 C 0.66731 1.00439 0.5404 0.0
C3330 C 0.67906 0.99342 0.5436 0.0
H3331 H 0.67741 0.92452 0.52537 0.0
H3332 H 0.66835 0.94458 0.53296 0.0
H3333 H 0.67296 0.93903 0.50928 0.0
H3334 H 0.68093 0.97258 0.49868 0.0
H3335 H 0.66074 0.99209 0.49301 0.0
H3336 H 0.37699 0.51789 0.76296 0.0
H3337 H 0.36061 0.48438 0.76283 0.0
H3338 H 0.41007 0.47034 0.7721 0.0
H3339 H 0.42616 0.50336 0.7731 0.0
H3340 H 0.35662 0.44969 0.74342 0.0
H3341 H 0.38816 0.44697 0.81153 0.0
H3342 H 0.39144 0.46911 0.80329 0.0
H3343 H 0.40471 0.45279 0.7962 0.0
C3344 C 0.3844 0.50774 0.76517 0.0
C3345 C 0.40313 0.51397 0.76843 0.0
C3346 C 0.37495 0.48834 0.76506 0.0
C3347 C 0.38379 0.47431 0.76812 0.0
C3348 C 0.40248 0.48049 0.77058 0.0
H3349 H 0.35715 0.34849 0.7628 0.0
H3350 H 0.37091 0.38237 0.76296 0.0
C3351 C 0.41183 0.49973 0.77097 0.0
C3352 C 0.37388 0.45338 0.76849 0.0
H3353 H 0.37321 0.41661 0.79217 0.0
C3354 C 0.36022 0.44268 0.75428 0.0
C3355 C 0.37812 0.44353 0.78253 0.0
C3356 C 0.39126 0.45376 0.79933 0.0
C3357 C 0.35138 0.42295 0.75346 0.0
C3358 C 0.35604 0.41308 0.76718 0.0
C3359 C 0.36953 0.42374 0.78144 0.0
C3360 C 0.34721 0.39184 0.76698 0.0
C3361 C 0.33734 0.41256 0.73751 0.0
C3362 C 0.32914 0.3852 0.76954 0.0
C3363 C 0.32119 0.36561 0.76984 0.0
C3364 C 0.33081 0.35159 0.7672 0.0
C3365 C 0.34896 0.35839 0.76475 0.0
C3366 C 0.35697 0.37802 0.76481 0.0
H3367 H 0.33741 0.42083 0.72624 0.0
H3368 H 0.33925 0.3983 0.73159 0.0
H3369 H 0.32411 0.41016 0.7427 0.0
H3370 H 0.32114 0.39528 0.77167 0.0
H3371 H 0.30751 0.36162 0.77243 0.0
H3372 H 0.25182 0.5987 0.27269 0.0
H3373 H 0.26468 0.633 0.27393 0.0
H3374 H 0.21214 0.64036 0.26475 0.0
H3375 H 0.19929 0.60657 0.2644 0.0
H3376 H 0.26172 0.65033 0.24556 0.0
H3377 H 0.23385 0.68578 0.30508 0.0
H3378 H 0.23295 0.6606 0.30127 0.0
H3379 H 0.2167 0.6688 0.28894 0.0
C3380 C 0.24307 0.6078 0.2714 0.0
C3381 C 0.22461 0.60009 0.2685 0.0
C3382 C 0.25039 0.6273 0.27209 0.0
C3383 C 0.23933 0.6392 0.26969 0.0
C3384 C 0.22089 0.63156 0.26722 0.0
H3385 H 0.24803 0.75243 0.25084 0.0
H3386 H 0.23871 0.71775 0.24956 0.0
C3387 C 0.21357 0.61221 0.26691 0.0
C3388 C 0.24694 0.65912 0.2678 0.0
H3389 H 0.2444 0.70485 0.28264 0.0
C3390 C 0.25817 0.66233 0.25384 0.0
C3391 C 0.24214 0.67464 0.27857 0.0
C3392 C 0.23089 0.67229 0.29442 0.0
C3393 C 0.26431 0.68066 0.24995 0.0
C3394 C 0.25904 0.69599 0.26033 0.0
C3395 C 0.24812 0.69287 0.27452 0.0
C3396 C 0.26512 0.71568 0.25734 0.0
C3397 C 0.27586 0.68339 0.23441 0.0
C3398 C 0.28304 0.72567 0.26176 0.0
C3399 C 0.28833 0.74533 0.26244 0.0
C3400 C 0.27573 0.75513 0.25867 0.0
C3401 C 0.25791 0.74501 0.25362 0.0
C3402 C 0.25263 0.72532 0.25283 0.0
H3403 H 0.27584 0.66952 0.22541 0.0
H3404 H 0.27128 0.69243 0.22566 0.0
H3405 H 0.28972 0.69084 0.2404 0.0
H3406 H 0.29275 0.71852 0.26576 0.0
H3407 H 0.30207 0.75295 0.26683 0.0
H3408 H 0.57066 0.73413 0.46436 0.0
H3409 H 0.57269 0.70549 0.47606 0.0
H3410 H 0.5162 0.69025 0.47863 0.0
H3411 H 0.51404 0.71816 0.46561 0.0
H3412 H 0.56827 0.6921 0.50509 0.0
H3413 H 0.51765 0.63997 0.45259 0.0
H3414 H 0.52518 0.66481 0.45104 0.0
H3415 H 0.50847 0.65725 0.46601 0.0
C3416 C 0.55862 0.72463 0.46733 0.0
C3417 C 0.54214 0.72851 0.46377 0.0
C3418 C 0.55979 0.70813 0.47412 0.0
C3419 C 0.54457 0.69496 0.47792 0.0
C3420 C 0.52818 0.69936 0.47515 0.0
H3421 H 0.55506 0.60249 0.54025 0.0
H3422 H 0.5528 0.63335 0.53293 0.0
C3423 C 0.52694 0.7156 0.46786 0.0
C3424 C 0.546 0.67688 0.48474 0.0
H3425 H 0.52819 0.62804 0.47758 0.0
C3426 C 0.55945 0.67813 0.49897 0.0
C3427 C 0.53479 0.65827 0.47688 0.0
C3428 C 0.52085 0.65493 0.46067 0.0
C3429 C 0.562 0.66175 0.50533 0.0
C3430 C 0.55052 0.64326 0.49777 0.0
C3431 C 0.53701 0.64203 0.48368 0.0
C3432 C 0.55289 0.62484 0.50308 0.0
C3433 C 0.57756 0.66434 0.51949 0.0
C3434 C 0.55352 0.60932 0.48903 0.0
C3435 C 0.55467 0.59172 0.49323 0.0
C3436 C 0.55548 0.58882 0.5117 0.0
C3437 C 0.55495 0.60427 0.52593 0.0
C3438 C 0.55369 0.62203 0.52168 0.0
H3439 H 0.58754 0.67832 0.52049 0.0
H3440 H 0.57289 0.66384 0.5334 0.0
H3441 H 0.58411 0.65268 0.51582 0.0
H3442 H 0.55297 0.61074 0.47459 0.0
H3443 H 0.55487 0.58017 0.48184 0.0
H3444 H 0.66165 0.32558 0.62812 0.0
H3445 H 0.6889 0.32359 0.64488 0.0
H3446 H 0.66417 0.3259 0.6958 0.0
H3447 H 0.63672 0.32709 0.67897 0.0
H3448 H 0.71263 0.34481 0.67213 0.0
H3449 H 0.68034 0.27939 0.69725 0.0
H3450 H 0.66887 0.28865 0.68058 0.0
H3451 H 0.67076 0.29871 0.70511 0.0
C3452 C 0.66201 0.32582 0.64293 0.0
C3453 C 0.64676 0.3264 0.65206 0.0
C3454 C 0.67769 0.32461 0.65256 0.0
C3455 C 0.67872 0.32399 0.67167 0.0
C3456 C 0.66377 0.32558 0.68099 0.0
H3457 H 0.75832 0.31606 0.75605 0.0
H3458 H 0.73304 0.32026 0.73827 0.0
C3459 C 0.64803 0.32652 0.67133 0.0
C3460 C 0.69527 0.32163 0.68174 0.0
H3461 H 0.70995 0.29527 0.71042 0.0
C3462 C 0.71198 0.33386 0.68037 0.0
C3463 C 0.69478 0.30731 0.69256 0.0
C3464 C 0.67776 0.29265 0.69382 0.0
C3465 C 0.72784 0.33257 0.68979 0.0
C3466 C 0.72726 0.31848 0.70085 0.0
C3467 C 0.7106 0.30616 0.70208 0.0
C3468 C 0.74355 0.31656 0.71172 0.0
C3469 C 0.74503 0.34677 0.68824 0.0
C3470 C 0.75836 0.31312 0.70308 0.0
C3471 C 0.77312 0.31068 0.71348 0.0
C3472 C 0.77353 0.3114 0.73287 0.0
C3473 C 0.75878 0.31519 0.74136 0.0
C3474 C 0.74409 0.31759 0.73105 0.0
H3475 H 0.74277 0.35956 0.68344 0.0
H3476 H 0.75347 0.35161 0.70181 0.0
H3477 H 0.75241 0.3398 0.67794 0.0
H3478 H 0.75842 0.31199 0.68818 0.0
H3479 H 0.78421 0.30829 0.70626 0.0
H3480 H 0.04808 0.34263 0.94873 0.0
H3481 H 0.05212 0.37668 0.96225 0.0
H3482 H 0.01062 0.36138 0.99702 0.0
H3483 H 0.00643 0.32731 0.9835 0.0
H3484 H 0.02304 0.39606 0.96129 0.0
H3485 H 0.05208 0.40151 0.03365 0.0
H3486 H 0.05312 0.38236 0.01484 0.0
H3487 H 0.03259 0.38228 0.02439 0.0
C3488 C 0.03994 0.34643 0.95942 0.0
C3489 C 0.02693 0.33203 0.96497 0.0
C3490 C 0.04226 0.36599 0.96716 0.0
C3491 C 0.03182 0.37179 0.98086 0.0
C3492 C 0.01908 0.35743 0.98673 0.0
H3493 H 0.04146 0.4917 0.04141 0.0
H3494 H 0.03315 0.45631 0.03276 0.0
C3495 C 0.01665 0.33786 0.97889 0.0
C3496 C 0.0334 0.3928 0.98787 0.0
H3497 H 0.0473 0.4297 0.02588 0.0
C3498 C 0.02834 0.4034 0.97543 0.0
C3499 C 0.03974 0.40241 0.00648 0.0
C3500 C 0.0448 0.39168 0.02069 0.0
C3501 C 0.02948 0.42313 0.9809 0.0
C3502 C 0.03711 0.43326 0.99919 0.0
C3503 C 0.04171 0.42243 0.01183 0.0
C3504 C 0.04128 0.45499 0.00489 0.0
C3505 C 0.02179 0.43252 0.96694 0.0
C3506 C 0.04889 0.46654 0.99261 0.0
C3507 C 0.05221 0.4865 0.99699 0.0
C3508 C 0.0493 0.49616 0.01443 0.0
C3509 C 0.04295 0.48489 0.02749 0.0
C3510 C 0.03856 0.46454 0.02261 0.0
H3511 H 0.01032 0.42212 0.95791 0.0
H3512 H 0.01726 0.44493 0.9738 0.0
H3513 H 0.03192 0.43736 0.95765 0.0
H3514 H 0.05254 0.46018 0.97948 0.0
H3515 H 0.05773 0.49448 0.98669 0.0
H3516 H 0.0422 0.79847 0.17534 0.0
H3517 H 0.01416 0.79757 0.18855 0.0
H3518 H 0.99976 0.82953 0.14915 0.0
H3519 H 0.02799 0.83065 0.1358 0.0
H3520 H 0.99965 0.83705 0.19986 0.0
H3521 H 0.95821 0.77354 0.14886 0.0
H3522 H 0.98142 0.77562 0.15477 0.0
H3523 H 0.97514 0.79162 0.14159 0.0
C3524 C 0.03315 0.8054 0.16947 0.0
C3525 C 0.03743 0.81467 0.15449 0.0
C3526 C 0.01708 0.80483 0.17704 0.0
C3527 C 0.00481 0.81337 0.16978 0.0
C3528 C 0.00901 0.82278 0.15493 0.0
H3529 H 0.89672 0.79338 0.20639 0.0
H3530 H 0.92119 0.80224 0.18738 0.0
C3531 C 0.02519 0.82347 0.14737 0.0
C3532 C 0.98779 0.81252 0.17808 0.0
H3533 H 0.94533 0.78445 0.17546 0.0
C3534 C 0.98769 0.82571 0.1944 0.0
C3535 C 0.97211 0.79796 0.17079 0.0
C3536 C 0.97151 0.78381 0.15301 0.0
C3537 C 0.97255 0.8243 0.20401 0.0
C3538 C 0.95719 0.80882 0.19755 0.0
C3539 C 0.95703 0.79622 0.18063 0.0
C3540 C 0.94203 0.80446 0.20906 0.0
C3541 C 0.97328 0.83949 0.22107 0.0
C3542 C 0.9454 0.80268 0.22754 0.0
C3543 C 0.93157 0.79808 0.23847 0.0
C3544 C 0.91371 0.79438 0.23115 0.0
C3545 C 0.91024 0.79622 0.21261 0.0
C3546 C 0.92425 0.80114 0.20166 0.0
H3547 H 0.98218 0.85349 0.21982 0.0
H3548 H 0.95995 0.84147 0.22343 0.0
H3549 H 0.97878 0.83526 0.23345 0.0
H3550 H 0.95882 0.80455 0.23356 0.0
H3551 H 0.93499 0.79726 0.25274 0.0
H3552 H 0.51956 0.29253 0.09699 0.0
H3553 H 0.52479 0.31976 0.08146 0.0
H3554 H 0.51942 0.35675 0.13221 0.0
H3555 H 0.51406 0.32935 0.14802 0.0
H3556 H 0.50279 0.3482 0.0792 0.0
H3557 H 0.57122 0.37829 0.11599 0.0
H3558 H 0.55948 0.35339 0.11406 0.0
H3559 H 0.55285 0.37169 0.12928 0.0
C3560 C 0.51926 0.30639 0.10483 0.0
C3561 C 0.51654 0.30888 0.12376 0.0
C3562 C 0.5222 0.3219 0.09591 0.0
C3563 C 0.52263 0.34019 0.10577 0.0
C3564 C 0.51921 0.34268 0.12447 0.0
H3565 H 0.56471 0.4434 0.06185 0.0
H3566 H 0.55392 0.42178 0.08276 0.0
C3567 C 0.51609 0.32705 0.13342 0.0
C3568 C 0.52773 0.35659 0.09645 0.0
H3569 H 0.56365 0.39185 0.09113 0.0
C3570 C 0.51599 0.35798 0.08195 0.0
C3571 C 0.54493 0.36928 0.10021 0.0
C3572 C 0.55797 0.3682 0.11568 0.0
C3573 C 0.52119 0.37145 0.07067 0.0
C3574 C 0.53878 0.38334 0.07365 0.0
C3575 C 0.55025 0.38254 0.08873 0.0
C3576 C 0.54568 0.39631 0.06096 0.0
C3577 C 0.50779 0.37272 0.05565 0.0
C3578 C 0.54515 0.38907 0.04183 0.0
C3579 C 0.551 0.40143 0.02975 0.0
C3580 C 0.55774 0.42124 0.03666 0.0
C3581 C 0.55913 0.42828 0.05599 0.0
C3582 C 0.55309 0.41594 0.068 0.0
H3583 H 0.49402 0.3675 0.05907 0.0
H3584 H 0.50987 0.38767 0.05353 0.0
H3585 H 0.50913 0.36354 0.04236 0.0
H3586 H 0.54001 0.37385 0.03619 0.0
H3587 H 0.54974 0.39554 0.01497 0.0
H3588 H 0.06409 0.34753 0.35707 0.0
H3589 H 0.03583 0.34931 0.34261 0.0
H3590 H 0.00787 0.30891 0.37387 0.0
H3591 H 0.03627 0.30821 0.38931 0.0
H3592 H 0.01246 0.32204 0.32041 0.0
H3593 H 0.97936 0.34654 0.38135 0.0
H3594 H 1.00248 0.34689 0.38338 0.0
H3595 H 0.9856 0.32486 0.38225 0.0
C3596 C 0.05187 0.33934 0.36108 0.0
C3597 C 0.05222 0.32783 0.3743 0.0
C3598 C 0.03574 0.3403 0.3528 0.0
C3599 C 0.01967 0.32939 0.35726 0.0
C3600 C 0.02003 0.31791 0.37059 0.0
H3601 H 0.91691 0.30566 0.29177 0.0
H3602 H 0.94234 0.30262 0.31084 0.0
C3603 C 0.03622 0.3174 0.37931 0.0
C3604 C 1.00277 0.32924 0.34692 0.0
H3605 H 0.96208 0.33736 0.35187 0.0
C3606 C 1.00149 0.32543 0.32735 0.0
C3607 C 0.98836 0.33353 0.35594 0.0
C3608 C 0.98904 0.33836 0.37688 0.0
C3609 C 0.98641 0.32618 0.31661 0.0
C3610 C 0.97218 0.3306 0.32563 0.0
C3611 C 0.97314 0.33396 0.34511 0.0
C3612 C 0.95651 0.33258 0.3149 0.0
C3613 C 0.98584 0.32265 0.29567 0.0
C3614 C 0.9562 0.35046 0.31099 0.0
C3615 C 0.9417 0.35231 0.30019 0.0
C3616 C 0.92727 0.33628 0.29315 0.0
C3617 C 0.92768 0.31836 0.29719 0.0
C3618 C 0.94219 0.31655 0.30802 0.0
H3619 H 0.99787 0.31887 0.29074 0.0
H3620 H 0.97399 0.31085 0.2893 0.0
H3621 H 0.98465 0.33572 0.2907 0.0
H3622 H 0.96725 0.36295 0.3162 0.0
H3623 H 0.9417 0.36634 0.29755 0.0
H3624 H 0.97799 0.71939 0.61124 0.0
H3625 H 0.97736 0.68804 0.59289 0.0
H3626 H 0.99717 0.67199 0.64205 0.0
H3627 H 0.99736 0.70292 0.66053 0.0
H3628 H 0.01041 0.68393 0.59151 0.0
H3629 H 0.96832 0.62052 0.61285 0.0
H3630 H 0.96439 0.64398 0.61843 0.0
H3631 H 0.98081 0.6378 0.63256 0.0
C3632 C 0.98148 0.70887 0.61829 0.0
C3633 C 0.98832 0.7138 0.63716 0.0
C3634 C 0.98103 0.69094 0.6078 0.0
C3635 C 0.98741 0.67782 0.61609 0.0
C3636 C 0.992 0.6818 0.6354 0.0
H3637 H 0.05993 0.61262 0.57917 0.0
H3638 H 0.0447 0.63509 0.5955 0.0
C3639 C 0.99229 0.69964 0.64593 0.0
C3640 C 0.99369 0.66288 0.60441 0.0
H3641 H 0.9946 0.61609 0.59869 0.0
C3642 C 0.00666 0.66901 0.5928 0.0
C3643 C 0.98896 0.64351 0.60631 0.0
C3644 C 0.97472 0.63605 0.61809 0.0
C3645 C 0.01549 0.65643 0.58355 0.0
C3646 C 0.01131 0.63735 0.58612 0.0
C3647 C 0.99791 0.63093 0.59711 0.0
C3648 C 0.02038 0.62371 0.57687 0.0
C3649 C 0.02937 0.6636 0.57124 0.0
C3650 C 0.01159 0.61008 0.5612 0.0
C3651 C 0.02019 0.59745 0.55188 0.0
C3652 C 0.03774 0.59825 0.5581 0.0
C3653 C 0.04647 0.61181 0.57401 0.0
C3654 C 0.03782 0.62456 0.58333 0.0
H3655 H 0.02958 0.67822 0.56904 0.0
H3656 H 0.04265 0.66402 0.57775 0.0
H3657 H 0.02695 0.65367 0.55748 0.0
H3658 H 0.99812 0.60932 0.55611 0.0
H3659 H 0.01292 0.58692 0.53992 0.0
H3660 H 0.62498 0.80723 0.83223 0.0
H3661 H 0.64857 0.80433 0.81237 0.0
H3662 H 0.68544 0.81297 0.86112 0.0
H3663 H 0.66206 0.81562 0.88104 0.0
H3664 H 0.68224 0.83241 0.8138 0.0
H3665 H 0.68963 0.76299 0.82796 0.0
H3666 H 0.67028 0.77135 0.83283 0.0
H3667 H 0.69034 0.78062 0.84855 0.0
C3668 C 0.63809 0.80836 0.8387 0.0
C3669 C 0.64166 0.81148 0.85818 0.0
C3670 C 0.6515 0.80675 0.82736 0.0
C3671 C 0.66856 0.80819 0.83536 0.0
C3672 C 0.6722 0.81145 0.85475 0.0
H3673 H 0.77103 0.8043 0.80778 0.0
H3674 H 0.74372 0.80585 0.82162 0.0
C3675 C 0.65883 0.81297 0.86608 0.0
C3676 C 0.68283 0.80666 0.8236 0.0
H3677 H 0.71307 0.78134 0.81432 0.0
C3678 C 0.68888 0.8211 0.81355 0.0
C3679 C 0.69132 0.79188 0.82349 0.0
C3680 C 0.68497 0.77572 0.83365 0.0
C3681 C 0.70395 0.8217 0.80408 0.0
C3682 C 0.71277 0.80714 0.8044 0.0
C3683 C 0.70623 0.79237 0.81395 0.0
C3684 C 0.72942 0.80741 0.79598 0.0
C3685 C 0.71077 0.83844 0.79478 0.0
C3686 C 0.7305 0.80806 0.77708 0.0
C3687 C 0.74628 0.80776 0.76936 0.0
C3688 C 0.76069 0.80569 0.78023 0.0
C3689 C 0.75973 0.80524 0.79911 0.0
C3690 C 0.74422 0.80619 0.80696 0.0
H3691 H 0.70548 0.85078 0.80022 0.0
H3692 H 0.72547 0.84334 0.79678 0.0
H3693 H 0.70643 0.83397 0.77962 0.0
H3694 H 0.71912 0.80849 0.76824 0.0
H3695 H 0.74708 0.80852 0.75482 0.0
H3696 H 0.49164 0.59427 0.73466 0.0
H3697 H 0.5063 0.59238 0.70584 0.0
H3698 H 0.46371 0.54329 0.67971 0.0
H3699 H 0.44858 0.54625 0.70783 0.0
H3700 H 0.52172 0.5726 0.68544 0.0
H3701 H 0.46344 0.56566 0.63662 0.0
H3702 H 0.46269 0.57082 0.66139 0.0
H3703 H 0.45906 0.54637 0.64892 0.0
C3704 C 0.48524 0.58322 0.72269 0.0
C3705 C 0.46856 0.57064 0.72388 0.0
C3706 C 0.49376 0.58204 0.70594 0.0
C3707 C 0.48623 0.56803 0.68953 0.0
C3708 C 0.46986 0.55502 0.69117 0.0
H3709 H 0.5192 0.52904 0.57728 0.0
H3710 H 0.50546 0.53308 0.60636 0.0
C3711 C 0.46115 0.55654 0.70766 0.0
C3712 C 0.49551 0.56669 0.67121 0.0
H3713 H 0.48794 0.55735 0.62299 0.0
C3714 C 0.51414 0.56944 0.6719 0.0
C3715 C 0.48632 0.56271 0.65286 0.0
C3716 C 0.46683 0.56144 0.64989 0.0
C3717 C 0.52333 0.56779 0.65557 0.0
C3718 C 0.51402 0.56321 0.6373 0.0
C3719 C 0.49547 0.56061 0.63658 0.0
C3720 C 0.52301 0.56086 0.61896 0.0
C3721 C 0.54308 0.57048 0.65819 0.0
C3722 C 0.53763 0.57507 0.61522 0.0
C3723 C 0.54558 0.57279 0.59821 0.0
C3724 C 0.53949 0.55614 0.58393 0.0
C3725 C 0.5247 0.54209 0.58759 0.0
C3726 C 0.51668 0.54443 0.60451 0.0
H3727 H 0.54752 0.56841 0.67214 0.0
H3728 H 0.54726 0.56035 0.6474 0.0
H3729 H 0.54993 0.58533 0.65702 0.0
H3730 H 0.54279 0.58829 0.62536 0.0
H3731 H 0.55637 0.5844 0.59621 0.0
H3732 H 0.80495 0.15912 0.95615 0.0
H3733 H 0.80167 0.17169 0.9276 0.0
H3734 H 0.79261 0.22264 0.96018 0.0
H3735 H 0.79558 0.21017 0.98853 0.0
H3736 H 0.76482 0.18909 0.92325 0.0
H3737 H 0.83275 0.23265 0.9173 0.0
H3738 H 0.82882 0.21088 0.92648 0.0
H3739 H 0.82594 0.23239 0.94031 0.0
C3740 C 0.80278 0.17324 0.9572 0.0
C3741 C 0.80045 0.18371 0.97442 0.0
C3742 C 0.80078 0.18028 0.94095 0.0
C3743 C 0.7968 0.19795 0.94197 0.0
C3744 C 0.79565 0.20894 0.95927 0.0
H3745 H 0.77698 0.28316 0.89145 0.0
H3746 H 0.781 0.26027 0.91052 0.0
C3747 C 0.7974 0.20184 0.9754 0.0
C3748 C 0.79231 0.20461 0.9251 0.0
H3749 H 0.80874 0.23891 0.90047 0.0
C3750 C 0.77443 0.19958 0.9178 0.0
C3751 C 0.80495 0.21834 0.91835 0.0
C3752 C 0.82425 0.22391 0.92588 0.0
C3753 C 0.76867 0.20896 0.90458 0.0
C3754 C 0.78119 0.22356 0.89869 0.0
C3755 C 0.79922 0.22771 0.90517 0.0
C3756 C 0.77577 0.23614 0.88736 0.0
C3757 C 0.7492 0.20421 0.89792 0.0
C3758 C 0.77087 0.22983 0.86818 0.0
C3759 C 0.76838 0.24284 0.85724 0.0
C3760 C 0.77091 0.26232 0.86539 0.0
C3761 C 0.77474 0.26824 0.88479 0.0
C3762 C 0.7772 0.25524 0.89568 0.0
H3763 H 0.74107 0.19299 0.9045 0.0
H3764 H 0.74444 0.21732 0.90105 0.0
H3765 H 0.74713 0.19907 0.88259 0.0
H3766 H 0.76975 0.2151 0.86159 0.0
H3767 H 0.76525 0.23787 0.84232 0.0
H3768 H 0.18122 0.5424 0.19207 0.0
H3769 H 0.15853 0.53781 0.16621 0.0
H3770 H 0.11933 0.5061 0.19582 0.0
H3771 H 0.14189 0.51102 0.22204 0.0
H3772 H 0.13577 0.50484 0.14397 0.0
H3773 H 0.099 0.55007 0.18594 0.0
H3774 H 0.12111 0.54955 0.1937 0.0
H3775 H 0.10247 0.52998 0.195 0.0
C3776 C 0.16782 0.53427 0.19301 0.0
C3777 C 0.16326 0.52724 0.20913 0.0
C3778 C 0.15489 0.53166 0.17825 0.0
C3779 C 0.13726 0.5219 0.17933 0.0
C3780 C 0.13282 0.51401 0.19497 0.0
H3781 H 0.05347 0.514 0.08996 0.0
H3782 H 0.06735 0.50688 0.11778 0.0
C3783 C 0.14572 0.51677 0.20985 0.0
C3784 C 0.12356 0.52085 0.1643 0.0
H3785 H 0.08897 0.53905 0.15412 0.0
C3786 C 0.12532 0.51198 0.14621 0.0
C3787 C 0.11003 0.53031 0.16738 0.0
C3788 C 0.10803 0.54066 0.18651 0.0
C3789 C 0.11434 0.51304 0.13095 0.0
C3790 C 0.10134 0.52315 0.13395 0.0
C3791 C 0.09891 0.53115 0.15207 0.0
C3792 C 0.09223 0.52807 0.11828 0.0
C3793 C 0.11727 0.50425 0.11158 0.0
C3794 C 0.10162 0.54258 0.10988 0.0
C3795 C 0.09384 0.54669 0.09418 0.0
C3796 C 0.07648 0.53636 0.08663 0.0
C3797 C 0.06685 0.52221 0.09549 0.0
C3798 C 0.07472 0.5181 0.1113 0.0
H3799 H 0.12536 0.49385 0.1118 0.0
H3800 H 0.10439 0.49686 0.10306 0.0
H3801 H 0.12434 0.51579 0.1047 0.0
H3802 H 0.11513 0.55046 0.11528 0.0
H3803 H 0.1016 0.55776 0.08782 0.0
H3804 H 0.80285 0.87997 0.4702 0.0
H3805 H 0.80043 0.86738 0.43655 0.0
H3806 H 0.82598 0.82418 0.4469 0.0
H3807 H 0.82862 0.83673 0.48046 0.0
H3808 H 0.83242 0.86206 0.4153 0.0
H3809 H 0.77794 0.79568 0.41106 0.0
H3810 H 0.78114 0.81645 0.42958 0.0
H3811 H 0.79572 0.80117 0.42954 0.0
C3812 C 0.8078 0.86768 0.46534 0.0
C3813 C 0.81591 0.85935 0.47807 0.0
C3814 C 0.80647 0.86055 0.44609 0.0
C3815 C 0.81298 0.84481 0.43922 0.0
C3816 C 0.82078 0.83627 0.45189 0.0
H3817 H 0.80755 0.77447 0.32891 0.0
H3818 H 0.81264 0.78811 0.36244 0.0
C3819 C 0.82228 0.84348 0.47109 0.0
C3820 C 0.81209 0.83756 0.41882 0.0
H3821 H 0.79147 0.7997 0.38377 0.0
C3822 C 0.82345 0.84845 0.40834 0.0
C3823 C 0.80054 0.81972 0.40984 0.0
C3824 C 0.78803 0.80753 0.42047 0.0
C3825 C 0.8238 0.84182 0.38916 0.0
C3826 C 0.812 0.82406 0.38002 0.0
C3827 C 0.80059 0.81325 0.39061 0.0
C3828 C 0.81096 0.81646 0.35952 0.0
C3829 C 0.83727 0.8537 0.37914 0.0
C3830 C 0.80854 0.82777 0.34652 0.0
C3831 C 0.80628 0.82013 0.32736 0.0
C3832 C 0.8061 0.80092 0.32077 0.0
C3833 C 0.80823 0.78949 0.33366 0.0
C3834 C 0.81096 0.79726 0.35282 0.0
H3835 H 0.84893 0.86271 0.38889 0.0
H3836 H 0.842 0.84455 0.36792 0.0
H3837 H 0.83115 0.86351 0.37285 0.0
H3838 H 0.80771 0.84231 0.35114 0.0
H3839 H 0.80389 0.82898 0.31769 0.0
H3840 H 0.46764 0.57613 0.84899 0.0
H3841 H 0.4808 0.57296 0.87918 0.0
H3842 H 0.51101 0.53754 0.85082 0.0
H3843 H 0.4975 0.54021 0.82058 0.0
H3844 H 0.48081 0.53493 0.89268 0.0
H3845 H 0.54866 0.58088 0.89182 0.0
H3846 H 0.52965 0.58374 0.87858 0.0
H3847 H 0.53827 0.56361 0.87099 0.0
C3848 C 0.47714 0.5677 0.84902 0.0
C3849 C 0.48133 0.55854 0.83182 0.0
C3850 C 0.48474 0.56584 0.86654 0.0
C3851 C 0.49726 0.55508 0.86788 0.0
C3852 C 0.50163 0.5461 0.85072 0.0
H3853 H 0.5636 0.54289 0.96894 0.0
H3854 H 0.55232 0.54379 0.93697 0.0
C3855 C 0.49376 0.54764 0.83318 0.0
C3856 C 0.50522 0.55283 0.88696 0.0
H3857 H 0.54354 0.56612 0.91762 0.0
C3858 C 0.49454 0.54185 0.89805 0.0
C3859 C 0.52329 0.56129 0.89437 0.0
C3860 C 0.53575 0.57314 0.88348 0.0
C3861 C 0.50116 0.53901 0.91564 0.0
C3862 C 0.51909 0.54822 0.92361 0.0
C3863 C 0.52985 0.55902 0.91229 0.0
C3864 C 0.52653 0.54722 0.94353 0.0
C3865 C 0.48875 0.52523 0.92498 0.0
C3866 C 0.51652 0.54912 0.95881 0.0
C3867 C 0.52277 0.54789 0.97696 0.0
C3868 C 0.53971 0.54527 0.98138 0.0
C3869 C 0.55029 0.54424 0.96641 0.0
C3870 C 0.54377 0.54501 0.94791 0.0
H3871 H 0.47901 0.51405 0.91454 0.0
H3872 H 0.49601 0.51792 0.93346 0.0
H3873 H 0.48109 0.53316 0.93406 0.0
H3874 H 0.50372 0.55194 0.95692 0.0
H3875 H 0.51417 0.54934 0.98783 0.0
H3876 H 0.77941 0.19529 0.05874 0.0
H3877 H 0.77461 0.21554 0.08707 0.0
H3878 H 0.80338 0.18782 0.12024 0.0
H3879 H 0.80789 0.16697 0.09176 0.0
H3880 H 0.76815 0.19662 0.13251 0.0
H3881 H 0.82069 0.25697 0.11692 0.0
H3882 H 0.80416 0.24284 0.09824 0.0
H3883 H 0.81977 0.23216 0.10805 0.0
C3884 C 0.7848 0.19358 0.07207 0.0
C3885 C 0.79441 0.18001 0.07321 0.0
C3886 C 0.78184 0.20493 0.08815 0.0
C3887 C 0.78872 0.20308 0.10549 0.0
C3888 C 0.79793 0.18922 0.10681 0.0
H3889 H 0.82399 0.26971 0.2092 0.0
H3890 H 0.81794 0.252 0.17715 0.0
C3891 C 0.80064 0.17755 0.09066 0.0
C3892 C 0.7879 0.21704 0.12202 0.0
H3893 H 0.80724 0.26309 0.14415 0.0
C3894 C 0.7765 0.21123 0.13509 0.0
C3895 C 0.79883 0.23597 0.12498 0.0
C3896 C 0.81165 0.24247 0.11141 0.0
C3897 C 0.7763 0.22392 0.15169 0.0
C3898 C 0.78765 0.24272 0.15488 0.0
C3899 C 0.79841 0.24869 0.14137 0.0
C3900 C 0.79125 0.25504 0.17341 0.0
C3901 C 0.76477 0.21688 0.16611 0.0
C3902 C 0.77829 0.26281 0.18162 0.0
C3903 C 0.78186 0.27311 0.19995 0.0
C3904 C 0.79846 0.27586 0.20981 0.0
C3905 C 0.81146 0.26845 0.20143 0.0
C3906 C 0.80791 0.25817 0.18327 0.0
H3907 H 0.7581 0.20128 0.16213 0.0
H3908 H 0.77282 0.21975 0.17979 0.0
H3909 H 0.75443 0.22475 0.16786 0.0
H3910 H 0.76539 0.26051 0.17405 0.0
H3911 H 0.77162 0.27849 0.20657 0.0
H3912 H 0.18679 0.53374 0.32545 0.0
H3913 H 0.1743 0.53665 0.35552 0.0
H3914 H 0.12956 0.55064 0.33001 0.0
H3915 H 0.14174 0.5478 0.30031 0.0
H3916 H 0.1653 0.57214 0.37379 0.0
H3917 H 0.1076 0.50816 0.35899 0.0
H3918 H 0.12704 0.50979 0.34664 0.0
H3919 H 0.11027 0.52099 0.34026 0.0
C3920 C 0.17414 0.53708 0.32626 0.0
C3921 C 0.16522 0.54052 0.31057 0.0
C3922 C 0.16709 0.5388 0.34339 0.0
C3923 C 0.15094 0.54363 0.34483 0.0
C3924 C 0.14189 0.54658 0.32907 0.0
H3925 H 0.07772 0.58379 0.40472 0.0
H3926 H 0.09735 0.57203 0.3837 0.0
C3927 C 0.14892 0.54503 0.31212 0.0
C3928 C 0.14375 0.5471 0.36283 0.0
H3929 H 0.10488 0.5351 0.3818 0.0
C3930 C 0.15233 0.56377 0.37595 0.0
C3931 C 0.12686 0.5361 0.36548 0.0
C3932 C 0.11747 0.51765 0.35217 0.0
C3933 C 0.1437 0.57067 0.39084 0.0
C3934 C 0.1262 0.56045 0.39256 0.0
C3935 C 0.11823 0.54299 0.38028 0.0
C3936 C 0.11517 0.5685 0.40566 0.0
C3937 C 0.15277 0.58948 0.40378 0.0
C3938 C 0.11884 0.57052 0.42493 0.0
C3939 C 0.10768 0.57732 0.43699 0.0
C3940 C 0.09269 0.58217 0.42991 0.0
C3941 C 0.08925 0.58038 0.41059 0.0
C3942 C 0.10038 0.57355 0.39858 0.0
H3943 H 0.1655 0.59676 0.39915 0.0
H3944 H 0.14399 0.59926 0.4048 0.0
H3945 H 0.15557 0.58686 0.41794 0.0
H3946 H 0.13013 0.56654 0.43061 0.0
H3947 H 0.11074 0.57875 0.45184 0.0
H3948 H 0.80876 0.84204 0.56932 0.0
H3949 H 0.80302 0.82767 0.59678 0.0
H3950 H 0.79912 0.88178 0.62792 0.0
H3951 H 0.80443 0.89608 0.60059 0.0
H3952 H 0.82234 0.83713 0.63052 0.0
H3953 H 0.75532 0.8461 0.64029 0.0
H3954 H 0.76544 0.84908 0.6192 0.0
H3955 H 0.771 0.86828 0.63938 0.0
C3956 C 0.8065 0.85084 0.58195 0.0
C3957 C 0.807 0.87024 0.58263 0.0
C3958 C 0.80322 0.84259 0.59767 0.0
C3959 C 0.8003 0.85351 0.61441 0.0
C3960 C 0.80082 0.87286 0.6151 0.0
H3961 H 0.79266 0.84088 0.7294 0.0
H3962 H 0.79325 0.85161 0.69958 0.0
C3963 C 0.80401 0.88108 0.59942 0.0
C3964 C 0.79777 0.8451 0.63147 0.0
H3965 H 0.77078 0.83901 0.66612 0.0
C3966 C 0.81096 0.83736 0.63818 0.0
C3967 C 0.78294 0.84539 0.64156 0.0
C3968 C 0.76778 0.85248 0.63464 0.0
C3969 C 0.81007 0.83055 0.65493 0.0
C3970 C 0.79541 0.83116 0.66519 0.0
C3971 C 0.78207 0.83863 0.65836 0.0
C3972 C 0.79383 0.82427 0.68312 0.0
C3973 C 0.82518 0.82333 0.66177 0.0
C3974 C 0.79353 0.80523 0.68381 0.0
C3975 C 0.79335 0.79914 0.70081 0.0
C3976 C 0.79306 0.8118 0.71755 0.0
C3977 C 0.7928 0.83073 0.71678 0.0
C3978 C 0.7931 0.83686 0.69973 0.0
H3979 H 0.83737 0.82855 0.65514 0.0
H3980 H 0.82833 0.82788 0.67712 0.0
H3981 H 0.82135 0.80742 0.65822 0.0
H3982 H 0.79381 0.79514 0.6712 0.0
H3983 H 0.79416 0.78468 0.70086 0.0
H3984 H 0.78689 0.49993 0.5263 0.0
H3985 H 0.76007 0.51109 0.52705 0.0
H3986 H 0.72821 0.45338 0.50503 0.0
H3987 H 0.7551 0.44203 0.50405 0.0
H3988 H 0.71819 0.48809 0.49134 0.0
H3989 H 0.72669 0.49154 0.56783 0.0
H3990 H 0.74597 0.50246 0.55759 0.0
H3991 H 0.73669 0.47695 0.55161 0.0
C3992 C 0.77422 0.48965 0.52127 0.0
C3993 C 0.77305 0.47007 0.51535 0.0
C3994 C 0.75893 0.49607 0.52166 0.0
C3995 C 0.74223 0.48302 0.51624 0.0
C3996 C 0.74104 0.46365 0.5092 0.0
H3997 H 0.64837 0.50485 0.5609 0.0
H3998 H 0.66889 0.48816 0.54616 0.0
C3999 C 0.75639 0.4572 0.50868 0.0
C4000 C 0.72613 0.4893 0.52019 0.0
H4001 H 0.70432 0.50407 0.55638 0.0
C4002 C 0.71501 0.49148 0.50551 0.0
C4003 C 0.72204 0.49352 0.53869 0.0
C4004 C 0.73336 0.4909 0.55489 0.0
C4005 C 0.70001 0.49825 0.50898 0.0
C4006 C 0.69622 0.50299 0.52756 0.0
C4007 C 0.70721 0.50039 0.54213 0.0
C4008 C 0.68127 0.51116 0.53259 0.0
C4009 C 0.68833 0.50022 0.49279 0.0
C4010 C 0.68097 0.52932 0.52926 0.0
C4011 C 0.66908 0.53877 0.53752 0.0
C4012 C 0.65751 0.5302 0.5493 0.0
C4013 C 0.65707 0.51158 0.55167 0.0
C4014 C 0.66881 0.50211 0.54333 0.0
H4015 H 0.69016 0.49129 0.47953 0.0
H4016 H 0.67414 0.49607 0.49515 0.0
H4017 H 0.69183 0.51542 0.49124 0.0
H4018 H 0.69071 0.53675 0.52137 0.0
H4019 H 0.66984 0.55329 0.53585 0.0
H4020 H 0.24147 0.17447 0.48448 0.0
H4021 H 0.21108 0.15502 0.48424 0.0
H4022 H 0.23097 0.11249 0.50553 0.0
H4023 H 0.26142 0.13179 0.50584 0.0
H4024 H 0.1931 0.11489 0.46703 0.0
H4025 H 0.19837 0.13019 0.54438 0.0
H4026 H 0.21369 0.14419 0.53149 0.0
H4027 H 0.21565 0.12103 0.53433 0.0
C4028 C 0.23943 0.16086 0.4889 0.0
C4029 C 0.25396 0.15479 0.4953 0.0
C4030 C 0.22202 0.14975 0.48873 0.0
C4031 C 0.21876 0.13243 0.49509 0.0
C4032 C 0.23319 0.12593 0.50076 0.0
H4033 H 0.1165 0.047 0.48912 0.0
H4034 H 0.14655 0.06368 0.48418 0.0
C4035 C 0.25061 0.13696 0.50084 0.0
C4036 C 0.20029 0.12165 0.49667 0.0
H4037 H 0.17211 0.1083 0.52853 0.0
C4038 C 0.18847 0.11338 0.48045 0.0
C4039 C 0.19421 0.12 0.51422 0.0
C4040 C 0.20604 0.12943 0.53214 0.0
C4041 C 0.17079 0.10329 0.48131 0.0
C4042 C 0.16484 0.10123 0.49886 0.0
C4043 C 0.17666 0.1097 0.51506 0.0
C4044 C 0.14627 0.091 0.50097 0.0
C4045 C 0.15853 0.09539 0.46346 0.0
C4046 C 0.13612 0.1006 0.51224 0.0
C4047 C 0.11917 0.09093 0.51552 0.0
C4048 C 0.11183 0.07136 0.50753 0.0
C4049 C 0.12177 0.06191 0.49573 0.0
C4050 C 0.13891 0.07155 0.49268 0.0
H4051 H 0.16376 0.10224 0.45189 0.0
H4052 H 0.15712 0.07977 0.45932 0.0
H4053 H 0.14516 0.0975 0.46533 0.0
H4054 H 0.14141 0.11561 0.51872 0.0
H4055 H 0.1119 0.09886 0.52447 0.0
H4056 H 0.23043 0.96757 0.72747 0.0
H4057 H 0.24459 0.94127 0.7275 0.0
H4058 H 0.21652 0.92564 0.77336 0.0
H4059 H 0.20213 0.95162 0.77306 0.0
H4060 H 0.26696 0.93094 0.748 0.0
H4061 H 0.20614 0.87292 0.74527 0.0
H4062 H 0.20535 0.89652 0.74239 0.0
H4063 H 0.20836 0.89154 0.76537 0.0
C4064 C 0.22707 0.95852 0.73755 0.0
C4065 C 0.2147 0.9622 0.75016 0.0
C4066 C 0.23537 0.9432 0.7376 0.0
C4067 C 0.23175 0.93039 0.75014 0.0
C4068 C 0.21956 0.9343 0.76293 0.0
H4069 H 0.2733 0.83142 0.77457 0.0
H4070 H 0.26009 0.8587 0.77574 0.0
C4071 C 0.21128 0.94961 0.76289 0.0
C4072 C 0.24086 0.91357 0.75005 0.0
H4073 H 0.23328 0.86536 0.75216 0.0
C4074 C 0.25935 0.91664 0.74878 0.0
C4075 C 0.23164 0.89432 0.75103 0.0
C4076 C 0.21177 0.88852 0.75089 0.0
C4077 C 0.26847 0.90191 0.74888 0.0
C4078 C 0.25927 0.88279 0.75008 0.0
C4079 C 0.24083 0.87968 0.75137 0.0
C4080 C 0.26839 0.86604 0.74979 0.0
C4081 C 0.28825 0.90722 0.74831 0.0
C4082 C 0.27784 0.86013 0.73492 0.0
C4083 C 0.28536 0.84419 0.73419 0.0
C4084 C 0.28449 0.83352 0.74857 0.0
C4085 C 0.27511 0.83943 0.76349 0.0
C4086 C 0.26726 0.85515 0.76405 0.0
H4087 H 0.29414 0.92299 0.75209 0.0
H4088 H 0.29472 0.90033 0.75796 0.0
H4089 H 0.29124 0.9021 0.73401 0.0
H4090 H 0.27892 0.86745 0.72333 0.0
H4091 H 0.29169 0.83996 0.72201 0.0
H4092 H 0.36465 0.99144 0.00849 0.0
H4093 H 0.3967 1.00386 0.00804 0.0
H4094 H 0.403 0.94675 0.00442 0.0
H4095 H 0.37125 0.93421 0.00477 0.0
H4096 H 0.42166 0.99832 0.03601 0.0
H4097 H 0.43244 0.96824 0.96398 0.0
H4098 H 0.41119 0.97124 0.97017 0.0
H4099 H 0.41866 0.95142 0.97554 0.0
C4100 C 0.37286 0.98153 0.00738 0.0
C4101 C 0.36549 0.9619 0.00678 0.0
C4102 C 0.39108 0.98862 0.00705 0.0
C4103 C 0.402 0.97611 0.00589 0.0
C4104 C 0.39464 0.9565 0.00489 0.0
H4105 H 0.51384 0.98319 0.01718 0.0
H4106 H 0.48126 0.97241 0.01163 0.0
C4107 C 0.37652 0.94942 0.00528 0.0
C4108 C 0.42134 0.98361 0.00783 0.0
H4109 H 0.45803 0.98039 0.98623 0.0
C4110 C 0.42966 0.99464 0.02509 0.0
C4111 C 0.43154 0.97842 0.99357 0.0
C4112 C 0.42303 0.9668 0.9747 0.0
C4113 C 0.44812 1.0002 0.02875 0.0
C4114 C 0.45839 0.99499 0.01449 0.0
C4115 C 0.45004 0.9842 0.9971 0.0
C4116 C 0.47784 1.00115 0.01725 0.0
C4117 C 0.45636 0.01106 0.04802 0.0
C4118 C 0.48645 0.02071 0.02206 0.0
C4119 C 0.50475 0.02671 0.0256 0.0
C4120 C 0.51488 0.01338 0.02344 0.0
C4121 C 0.50628 0.99373 0.01853 0.0
C4122 C 0.48779 0.98762 0.01533 0.0
H4123 H 0.4469 0.00857 0.05857 0.0
H4124 H 0.46842 0.00689 0.0523 0.0
H4125 H 0.46016 0.02667 0.04808 0.0
H4126 H 0.47901 0.03136 0.02333 0.0
H4127 H 0.51075 0.04179 0.03026 0.0
H4128 H 0.9044 0.62051 0.82921 0.0
H4129 H 0.8906 0.64617 0.82471 0.0
H4130 H 0.85408 0.60693 0.78005 0.0
H4131 H 0.86728 0.58138 0.78467 0.0
H4132 H 0.88801 0.66043 0.79183 0.0
H4133 H 0.82139 0.63031 0.81179 0.0
H4134 H 0.8404 0.62223 0.81829 0.0
H4135 H 0.82826 0.61303 0.7955 0.0
C4136 C 0.89321 0.61733 0.81869 0.0
C4137 C 0.88677 0.59892 0.80744 0.0
C4138 C 0.88542 0.63197 0.81611 0.0
C4139 C 0.87114 0.62826 0.80231 0.0
C4140 C 0.86475 0.6099 0.79114 0.0
H4141 H 0.82978 0.68143 0.72704 0.0
H4142 H 0.84883 0.66945 0.74666 0.0
C4143 C 0.87237 0.59532 0.79378 0.0
C4144 C 0.86332 0.6436 0.79852 0.0
H4145 H 0.82314 0.65212 0.79046 0.0
C4146 C 0.87391 0.65898 0.79199 0.0
C4147 C 0.84498 0.64174 0.79895 0.0
C4148 C 0.83315 0.62603 0.8067 0.0
C4149 C 0.86633 0.67175 0.78448 0.0
C4150 C 0.84774 0.66879 0.78336 0.0
C4151 C 0.83739 0.6543 0.79123 0.0
C4152 C 0.83838 0.67891 0.77227 0.0
C4153 C 0.87818 0.68783 0.77725 0.0
C4154 C 0.82614 0.68809 0.78016 0.0
C4155 C 0.81494 0.69456 0.76889 0.0
C4156 C 0.8158 0.69186 0.74955 0.0
C4157 C 0.82866 0.68346 0.74185 0.0
C4158 C 0.83977 0.67692 0.7531 0.0
H4159 H 0.89175 0.69225 0.78477 0.0
H4160 H 0.8793 0.68282 0.7623 0.0
H4161 H 0.87275 0.70052 0.77862 0.0
H4162 H 0.82475 0.68954 0.7949 0.0
H4163 H 0.80507 0.70083 0.77522 0.0
H4164 H 0.83731 0.63905 0.03619 0.0
H4165 H 0.86249 0.62536 0.03819 0.0
H4166 H 0.88931 0.66159 1.00282 0.0
H4167 H 0.86398 0.6755 1.00071 0.0
H4168 H 0.87698 0.6064 0.00606 0.0
H4169 H 0.92643 0.66965 0.04976 0.0
H4170 H 0.90289 0.66729 0.04912 0.0
H4171 H 0.91425 0.67289 0.02954 0.0
C4172 C 0.84852 0.64417 0.0288 0.0
C4173 C 0.84855 0.65838 0.01824 0.0
C4174 C 0.86295 0.63632 0.02999 0.0
C4175 C 0.87787 0.64254 0.02081 0.0
C4176 C 0.87803 0.65673 0.01022 0.0
H4177 H 0.97524 0.60355 0.03518 0.0
H4178 H 0.95472 0.62094 0.02492 0.0
C4179 C 0.86349 0.66458 0.00894 0.0
C4180 C 0.89282 0.63349 0.02199 0.0
H4181 H 0.93469 0.64074 0.04322 0.0
C4182 C 0.88968 0.61397 0.01402 0.0
C4183 C 0.9095 0.64342 0.03208 0.0
C4184 C 0.9136 0.66447 0.04072 0.0
C4185 C 0.90248 0.60395 0.01634 0.0
C4186 C 0.91872 0.61349 0.02759 0.0
C4187 C 0.92223 0.6333 0.03478 0.0
C4188 C 0.93143 0.60279 0.03322 0.0
C4189 C 0.89835 0.58317 0.00666 0.0
C4190 C 0.92534 0.58685 0.04143 0.0
C4191 C 0.93688 0.5766 0.04681 0.0
C4192 C 0.95512 0.58231 0.04481 0.0
C4193 C 0.96131 0.59846 0.03674 0.0
C4194 C 0.94959 0.60858 0.03103 0.0
H4195 H 0.88941 0.58037 0.99356 0.0
H4196 H 0.91057 0.57886 1.00327 0.0
H4197 H 0.89137 0.57399 0.01584 0.0
H4198 H 0.91156 0.58233 0.04385 0.0
H4199 H 0.93136 0.56412 0.05259 0.0
H4200 H 0.20005 0.08559 0.79314 0.0
H4201 H 0.21667 0.11853 0.79286 0.0
H4202 H 0.24656 0.09734 0.75058 0.0
H4203 H 0.22989 0.06424 0.75075 0.0
H4204 H 0.25148 0.13916 0.80011 0.0
H4205 H 0.2297 0.13597 0.72621 0.0
H4206 H 0.21966 0.11764 0.73861 0.0
H4207 H 0.24052 0.11783 0.72959 0.0
C4208 C 0.21027 0.08778 0.78385 0.0
C4209 C 0.21345 0.07181 0.772 0.0
C4210 C 0.21984 0.10685 0.78368 0.0
C4211 C 0.23286 0.11094 0.77145 0.0
C4212 C 0.23643 0.09501 0.75994 0.0
H4213 H 0.30902 0.22174 0.76388 0.0
H4214 H 0.29488 0.18804 0.76464 0.0
C4215 C 0.22695 0.07587 0.76022 0.0
C4216 C 0.24247 0.1317 0.7708 0.0
H4217 H 0.25127 0.16422 0.74176 0.0
C4218 C 0.25139 0.14449 0.78728 0.0
C4219 C 0.24246 0.13925 0.75423 0.0
C4220 C 0.23245 0.12707 0.73617 0.0
C4221 C 0.26031 0.16399 0.78753 0.0
C4222 C 0.26044 0.17142 0.77097 0.0
C4223 C 0.25146 0.15875 0.75452 0.0
C4224 C 0.26938 0.19236 0.77068 0.0
C4225 C 0.26957 0.17675 0.80563 0.0
C4226 C 0.26004 0.20649 0.77384 0.0
C4227 C 0.2682 0.22594 0.77348 0.0
C4228 C 0.28612 0.23217 0.77008 0.0
C4229 C 0.29545 0.21795 0.76696 0.0
C4230 C 0.28724 0.19844 0.76723 0.0
H4231 H 0.26879 0.16893 0.8173 0.0
H4232 H 0.28373 0.18296 0.80406 0.0
H4233 H 0.26351 0.18888 0.8092 0.0
H4234 H 0.24632 0.20248 0.77657 0.0
H4235 H 0.26037 0.23617 0.77596 0.0
H4236 H 0.38396 0.01038 0.32901 0.0
H4237 H 0.36449 0.97771 0.32231 0.0
H4238 H 0.40354 0.95788 0.29124 0.0
H4239 H 0.42314 0.99046 0.2978 0.0
H4240 H 0.35356 0.95493 0.28208 0.0
H4241 H 0.38804 0.92185 0.33015 0.0
H4242 H 0.39052 0.94741 0.33384 0.0
H4243 H 0.4019 0.93622 0.31651 0.0
C4244 C 0.38853 0.99899 0.32103 0.0
C4245 C 0.40504 1.00291 0.3139 0.0
C4246 C 0.37737 0.98045 0.31715 0.0
C4247 C 0.38266 0.96565 0.30625 0.0
C4248 C 0.39939 0.96928 0.29976 0.0
H4249 H 0.35801 0.84944 0.26532 0.0
H4250 H 0.36857 0.8841 0.27329 0.0
C4251 C 0.41059 0.98782 0.30364 0.0
C4252 C 0.37056 0.94638 0.30109 0.0
H4253 H 0.36659 0.90079 0.30671 0.0
C4254 C 0.35619 0.94297 0.28746 0.0
C4255 C 0.37409 0.93116 0.30847 0.0
C4256 C 0.3894 0.93428 0.32317 0.0
C4257 C 0.34602 0.92422 0.27982 0.0
C4258 C 0.35023 0.90884 0.28652 0.0
C4259 C 0.36364 0.91261 0.30133 0.0
C4260 C 0.34267 0.88859 0.27739 0.0
C4261 C 0.33162 0.92107 0.26411 0.0
C4262 C 0.3244 0.87974 0.27549 0.0
C4263 C 0.31823 0.85981 0.26986 0.0
C4264 C 0.33039 0.84867 0.26748 0.0
C4265 C 0.34843 0.8577 0.26795 0.0
C4266 C 0.35446 0.87749 0.2725 0.0
H4267 H 0.33286 0.934 0.25789 0.0
H4268 H 0.33186 0.90878 0.25296 0.0
H4269 H 0.31853 0.91782 0.26957 0.0
H4270 H 0.31502 0.88798 0.27921 0.0
H4271 H 0.30413 0.85313 0.2684 0.0
H4272 H 0.61799 0.38754 0.60547 0.0
H4273 H 0.61266 0.4161 0.59571 0.0
H4274 H 0.56822 0.3801 0.55741 0.0
H4275 H 0.5732 0.35166 0.56778 0.0
H4276 H 0.61401 0.42875 0.56483 0.0
H4277 H 0.54432 0.41857 0.57999 0.0
H4278 H 0.5579 0.40419 0.58741 0.0
H4279 H 0.54745 0.39863 0.56383 0.0
C4280 C 0.60698 0.38574 0.59509 0.0
C4281 C 0.59594 0.36724 0.58759 0.0
C4282 C 0.60392 0.40215 0.58941 0.0
C4283 C 0.58975 0.40072 0.57596 0.0
C4284 C 0.5789 0.38208 0.56822 0.0
H4285 H 0.57977 0.49148 0.51397 0.0
H4286 H 0.58266 0.46173 0.52328 0.0
C4287 C 0.58185 0.36566 0.57406 0.0
C4288 C 0.58678 0.41859 0.56981 0.0
H4289 H 0.55556 0.44321 0.56337 0.0
C4290 C 0.60118 0.43178 0.56459 0.0
C4291 C 0.57012 0.42309 0.56945 0.0
C4292 C 0.55411 0.41049 0.57564 0.0
C4293 C 0.59939 0.44877 0.55895 0.0
C4294 C 0.58273 0.45304 0.55832 0.0
C4295 C 0.56835 0.44005 0.56367 0.0
C4296 C 0.5802 0.47105 0.55243 0.0
C4297 C 0.61549 0.46236 0.55399 0.0
C4298 C 0.57768 0.48644 0.56553 0.0
C4299 C 0.57604 0.50354 0.56018 0.0
C4300 C 0.57643 0.50561 0.54147 0.0
C4301 C 0.57904 0.49027 0.52841 0.0
C4302 C 0.58076 0.47323 0.53376 0.0
H4303 H 0.62791 0.45841 0.5574 0.0
H4304 H 0.61395 0.46223 0.53884 0.0
H4305 H 0.61675 0.47724 0.5615 0.0
H4306 H 0.57732 0.48538 0.58003 0.0
H4307 H 0.57455 0.51522 0.57072 0.0
H4308 H 0.45922 0.75423 0.37853 0.0
H4309 H 0.43156 0.75423 0.36093 0.0
H4310 H 0.45623 0.81058 0.35135 0.0
H4311 H 0.48391 0.81039 0.36835 0.0
H4312 H 0.40887 0.77591 0.3657 0.0
H4313 H 0.43636 0.78472 0.29925 0.0
H4314 H 0.4487 0.77936 0.31818 0.0
H4315 H 0.44789 0.80364 0.3182 0.0
C4316 C 0.45882 0.76656 0.37253 0.0
C4317 C 0.47402 0.7822 0.37475 0.0
C4318 C 0.4429 0.76658 0.36247 0.0
C4319 C 0.44166 0.78223 0.35429 0.0
C4320 C 0.45676 0.798 0.35686 0.0
H4321 H 0.34496 0.81144 0.31766 0.0
H4322 H 0.37116 0.80793 0.33494 0.0
C4323 C 0.47267 0.79793 0.36676 0.0
C4324 C 0.42462 0.78228 0.34345 0.0
H4325 H 0.4076 0.7896 0.302 0.0
C4326 C 0.40866 0.77883 0.35174 0.0
C4327 C 0.42396 0.78577 0.32503 0.0
C4328 C 0.4401 0.78838 0.31456 0.0
C4329 C 0.39244 0.77928 0.34247 0.0
C4330 C 0.39198 0.78358 0.32438 0.0
C4331 C 0.40781 0.78652 0.3159 0.0
C4332 C 0.37532 0.78517 0.31402 0.0
C4333 C 0.37585 0.77481 0.35206 0.0
C4334 C 0.36869 0.7737 0.29627 0.0
C4335 C 0.35356 0.77568 0.28627 0.0
C4336 C 0.34474 0.78946 0.29351 0.0
C4337 C 0.35128 0.80072 0.31142 0.0
C4338 C 0.36632 0.79864 0.32146 0.0
H4339 H 0.37729 0.76665 0.36316 0.0
H4340 H 0.37311 0.78844 0.35866 0.0
H4341 H 0.36424 0.76639 0.34196 0.0
H4342 H 0.37521 0.76312 0.29011 0.0
H4343 H 0.34879 0.76637 0.27282 0.0
H4344 H 0.0562 0.75075 0.10169 0.0
H4345 H 0.05474 0.71684 0.09086 0.0
H4346 H 0.09874 0.73264 0.05929 0.0
H4347 H 0.10014 0.76682 0.06988 0.0
H4348 H 0.05609 0.69426 0.04688 0.0
H4349 H 0.10821 0.6986 0.1036 0.0
H4350 H 0.09328 0.71377 0.10653 0.0
H4351 H 0.11011 0.71799 0.09117 0.0
C4352 C 0.06539 0.74709 0.09214 0.0
C4353 C 0.07826 0.76169 0.08665 0.0
C4354 C 0.06453 0.7276 0.08597 0.0
C4355 C 0.07665 0.72204 0.07429 0.0
C4356 C 0.08918 0.73648 0.06824 0.0
H4357 H 0.06942 0.59886 0.02728 0.0
H4358 H 0.07516 0.63377 0.03031 0.0
C4359 C 0.0899 0.75607 0.07423 0.0
C4360 C 0.07675 0.70127 0.06954 0.0
H4361 H 0.09504 0.66828 0.08485 0.0
C4362 C 0.06473 0.68857 0.05502 0.0
C4363 C 0.08782 0.69372 0.08029 0.0
C4364 C 0.10063 0.70659 0.09633 0.0
C4365 C 0.06327 0.6686 0.05122 0.0
C4366 C 0.07436 0.66095 0.06203 0.0
C4367 C 0.08656 0.67385 0.07638 0.0
C4368 C 0.07255 0.63963 0.05989 0.0
C4369 C 0.04925 0.65585 0.03616 0.0
C4370 C 0.07023 0.631 0.07552 0.0
C4371 C 0.06755 0.61113 0.07387 0.0
C4372 C 0.06709 0.59905 0.05654 0.0
C4373 C 0.06992 0.60763 0.0409 0.0
C4374 C 0.07287 0.62768 0.0426 0.0
H4375 H 0.03899 0.66305 0.03263 0.0
H4376 H 0.05554 0.65222 0.02335 0.0
H4377 H 0.0426 0.64229 0.04043 0.0
H4378 H 0.06994 0.6396 0.08906 0.0
H4379 H 0.06529 0.60509 0.08621 0.0
H4380 H 0.08249 0.29949 0.89233 0.0
H4381 H 0.1103 0.30435 0.87791 0.0
H4382 H 0.09744 0.24378 0.85449 0.0
H4383 H 0.06933 0.23907 0.86804 0.0
H4384 H 0.13898 0.29264 0.8813 0.0
H4385 H 0.10857 0.2629 0.80857 0.0
H4386 H 0.09546 0.26726 0.82739 0.0
H4387 H 0.10301 0.24581 0.82331 0.0
C4388 C 0.08552 0.28724 0.88396 0.0
C4389 C 0.07347 0.26894 0.88113 0.0
C4390 C 0.1015 0.29001 0.87574 0.0
C4391 C 0.10598 0.27454 0.8646 0.0
C4392 C 0.09419 0.25615 0.86234 0.0
H4393 H 0.19837 0.26877 0.80231 0.0
H4394 H 0.17335 0.26063 0.8208 0.0
C4395 C 0.07808 0.25343 0.87025 0.0
C4396 C 0.12295 0.27766 0.85554 0.0
H4397 H 0.13986 0.26985 0.81367 0.0
C4398 C 0.13908 0.28768 0.86649 0.0
C4399 C 0.12337 0.27119 0.83617 0.0
C4400 C 0.10667 0.26137 0.82315 0.0
C4401 C 0.15536 0.29135 0.85871 0.0
C4402 C 0.15569 0.28495 0.83939 0.0
C4403 C 0.13969 0.27465 0.8285 0.0
C4404 C 0.1722 0.28992 0.82992 0.0
C4405 C 0.17215 0.302 0.87127 0.0
C4406 C 0.18011 0.30909 0.82899 0.0
C4407 C 0.19426 0.31372 0.81831 0.0
C4408 C 0.20103 0.29933 0.80838 0.0
C4409 C 0.19363 0.28021 0.80994 0.0
C4410 C 0.17924 0.27554 0.82043 0.0
H4411 H 0.17049 0.30159 0.88612 0.0
H4412 H 0.1833 0.29589 0.86729 0.0
H4413 H 0.17574 0.31725 0.86987 0.0
H4414 H 0.17486 0.32046 0.83592 0.0
H4415 H 0.19961 0.32857 0.81737 0.0
H4416 H 0.57137 0.77186 0.92822 0.0
H4417 H 0.56438 0.74445 0.94391 0.0
H4418 H 0.61775 0.73914 0.94069 0.0
H4419 H 0.62503 0.76716 0.92618 0.0
H4420 H 0.56461 0.70746 0.93649 0.0
H4421 H 0.61593 0.74636 0.99545 0.0
H4422 H 0.6097 0.75788 0.97741 0.0
H4423 H 0.62486 0.74315 0.97358 0.0
C4424 C 0.58153 0.76474 0.93085 0.0
C4425 C 0.59881 0.77178 0.92646 0.0
C4426 C 0.57754 0.7491 0.93974 0.0
C4427 C 0.59072 0.74014 0.944 0.0
C4428 C 0.60759 0.74629 0.93821 0.0
H4429 H 0.59388 0.65245 0.00824 0.0
H4430 H 0.59898 0.67347 0.98565 0.0
C4431 C 0.6117 0.76221 0.92985 0.0
C4432 C 0.58715 0.72514 0.95539 0.0
H4433 H 0.60163 0.71407 0.99574 0.0
C4434 C 0.57267 0.70891 0.94947 0.0
C4435 C 0.59768 0.72709 0.97237 0.0
C4436 C 0.61279 0.74464 0.98018 0.0
C4437 C 0.56851 0.69455 0.96004 0.0
C4438 C 0.57906 0.69657 0.97693 0.0
C4439 C 0.59364 0.7126 0.98272 0.0
C4440 C 0.57503 0.68258 0.98926 0.0
C4441 C 0.55297 0.67727 0.95306 0.0
C4442 C 0.55992 0.68091 0.99883 0.0
C4443 C 0.55702 0.66901 0.01184 0.0
C4444 C 0.56917 0.65857 0.01543 0.0
C4445 C 0.5842 0.66018 0.00565 0.0
C4446 C 0.58714 0.67216 0.99275 0.0
H4447 H 0.54855 0.67586 0.93809 0.0
H4448 H 0.5564 0.66394 0.95504 0.0
H4449 H 0.54171 0.67869 0.96115 0.0
H4450 H 0.55059 0.68912 0.99651 0.0
H4451 H 0.54524 0.66789 0.01902 0.0
H4452 H 0.06373 0.78906 0.70534 0.0
H4453 H 0.09299 0.78542 0.71408 0.0
H4454 H 0.0993 0.76761 0.65624 0.0
H4455 H 0.06994 0.77126 0.64723 0.0
H4456 H 0.09797 0.74589 0.70039 0.0
H4457 H 0.14889 0.80631 0.68271 0.0
H4458 H 0.12732 0.80877 0.68824 0.0
H4459 H 0.12939 0.79433 0.66653 0.0
C4460 C 0.07147 0.78483 0.69442 0.0
C4461 C 0.06442 0.78021 0.67561 0.0
C4462 C 0.08819 0.78279 0.69945 0.0
C4463 C 0.09819 0.77625 0.68579 0.0
C4464 C 0.09177 0.77285 0.66693 0.0
H4465 H 0.1958 0.74219 0.70785 0.0
H4466 H 0.17038 0.74851 0.69131 0.0
C4467 C 0.075 0.77489 0.66185 0.0
C4468 C 0.114 0.77046 0.69158 0.0
H4469 H 0.1592 0.78436 0.69736 0.0
C4470 C 0.11137 0.7542 0.69962 0.0
C4471 C 0.13135 0.78121 0.69021 0.0
C4472 C 0.13458 0.79869 0.68151 0.0
C4473 C 0.12573 0.74873 0.70698 0.0
C4474 C 0.1431 0.76005 0.70658 0.0
C4475 C 0.1458 0.77584 0.69775 0.0
C4476 C 0.15844 0.75628 0.71633 0.0
C4477 C 0.12222 0.731 0.71534 0.0
C4478 C 0.16001 0.75855 0.7358 0.0
C4479 C 0.17428 0.75472 0.74519 0.0
C4480 C 0.18732 0.7488 0.73525 0.0
C4481 C 0.1858 0.74664 0.71576 0.0
C4482 C 0.17142 0.75033 0.70634 0.0
H4483 H 0.10867 0.72148 0.71059 0.0
H4484 H 0.13204 0.72276 0.71167 0.0
H4485 H 0.12345 0.73531 0.73074 0.0
H4486 H 0.15023 0.76346 0.74373 0.0
H4487 H 0.17543 0.75692 0.76025 0.0
H4488 H 0.12264 0.3788 0.46114 0.0
H4489 H 0.12235 0.41107 0.47657 0.0
H4490 H 0.11223 0.42518 0.42318 0.0
H4491 H 0.11298 0.39297 0.40759 0.0
H4492 H 0.13533 0.45767 0.45943 0.0
H4493 H 0.06729 0.41378 0.46501 0.0
H4494 H 0.08561 0.40434 0.47049 0.0
H4495 H 0.08038 0.40661 0.44703 0.0
C4496 C 0.12117 0.38908 0.45269 0.0
C4497 C 0.1177 0.38346 0.43325 0.0
C4498 C 0.12105 0.40749 0.46149 0.0
C4499 C 0.11713 0.42034 0.45098 0.0
C4500 C 0.11544 0.41545 0.43147 0.0
H4501 H 0.06085 0.50528 0.48156 0.0
H4502 H 0.07383 0.48098 0.46569 0.0
C4503 C 0.11587 0.39708 0.4226 0.0
C4504 C 0.11091 0.43658 0.46033 0.0
H4505 H 0.07503 0.44615 0.48009 0.0
C4506 C 0.12218 0.45525 0.46397 0.0
C4507 C 0.09366 0.43325 0.46598 0.0
C4508 C 0.08091 0.41346 0.46189 0.0
C4509 C 0.1166 0.47075 0.47348 0.0
C4510 C 0.0995 0.46726 0.47951 0.0
C4511 C 0.08821 0.44864 0.4756 0.0
C4512 C 0.09256 0.4828 0.48919 0.0
C4513 C 0.12879 0.49075 0.4768 0.0
C4514 C 0.09868 0.49164 0.5078 0.0
C4515 C 0.09106 0.50542 0.51713 0.0
C4516 C 0.07726 0.51058 0.50794 0.0
C4517 C 0.07131 0.50164 0.48923 0.0
C4518 C 0.0788 0.48781 0.48002 0.0
H4519 H 0.14064 0.4914 0.46912 0.0
H4520 H 0.1216 0.50079 0.4725 0.0
H4521 H 0.13328 0.49577 0.49191 0.0
H4522 H 0.10917 0.48771 0.51514 0.0
H4523 H 0.09614 0.51214 0.53142 0.0
H4524 H 0.47298 0.25055 0.22263 0.0
H4525 H 0.44333 0.24914 0.2317 0.0
H4526 H 0.43354 0.27966 0.18887 0.0
H4527 H 0.46308 0.2808 0.1794 0.0
H4528 H 0.43014 0.27834 0.24452 0.0
H4529 H 0.38933 0.23457 0.18015 0.0
H4530 H 0.41261 0.23627 0.18481 0.0
H4531 H 0.40571 0.25462 0.17546 0.0
C4532 C 0.46456 0.25704 0.21518 0.0
C4533 C 0.47035 0.26584 0.20034 0.0
C4534 C 0.44759 0.25607 0.22028 0.0
C4535 C 0.43617 0.26387 0.21064 0.0
C4536 C 0.44203 0.27308 0.19611 0.0
H4537 H 0.3383 0.29213 0.21612 0.0
H4538 H 0.36705 0.28647 0.20972 0.0
C4539 C 0.459 0.274 0.19094 0.0
C4540 C 0.41864 0.26381 0.21675 0.0
H4541 H 0.37486 0.25336 0.20108 0.0
C4542 C 0.41799 0.27272 0.23511 0.0
C4543 C 0.40285 0.25598 0.20454 0.0
C4544 C 0.4026 0.24462 0.18521 0.0
C4545 C 0.40209 0.27524 0.24132 0.0
C4546 C 0.38643 0.2688 0.22868 0.0
C4547 C 0.38695 0.25882 0.2106 0.0
C4548 C 0.3696 0.27308 0.2334 0.0
C4549 C 0.40266 0.28515 0.26124 0.0
C4550 C 0.36161 0.2676 0.2489 0.0
C4551 C 0.34563 0.2716 0.25296 0.0
C4552 C 0.33721 0.28057 0.24124 0.0
C4553 C 0.34493 0.28566 0.22555 0.0
C4554 C 0.36118 0.28224 0.22182 0.0
H4555 H 0.41549 0.29613 0.26603 0.0
H4556 H 0.39186 0.2921 0.26326 0.0
H4557 H 0.40129 0.27435 0.27024 0.0
H4558 H 0.36762 0.26007 0.25772 0.0
H4559 H 0.33948 0.26699 0.26478 0.0
H4560 H 0.62752 0.49655 0.32648 0.0
H4561 H 0.61499 0.49867 0.35645 0.0
H4562 H 0.64282 0.55869 0.37115 0.0
H4563 H 0.6536 0.55687 0.34054 0.0
H4564 H 0.62107 0.5022 0.38928 0.0
H4565 H 0.60262 0.56979 0.39129 0.0
H4566 H 0.61018 0.55835 0.3708 0.0
H4567 H 0.62588 0.57415 0.38965 0.0
C4568 C 0.63073 0.51034 0.33595 0.0
C4569 C 0.64148 0.52659 0.33046 0.0
C4570 C 0.62353 0.51159 0.35346 0.0
C4571 C 0.62706 0.52908 0.36681 0.0
C4572 C 0.63852 0.5451 0.36147 0.0
H4573 H 0.6105 0.55887 0.48753 0.0
H4574 H 0.6213 0.55607 0.45672 0.0
C4575 C 0.6451 0.544 0.3437 0.0
C4576 C 0.61936 0.53031 0.38612 0.0
H4577 H 0.60415 0.55965 0.42025 0.0
C4578 C 0.61725 0.51482 0.39568 0.0
C4579 C 0.61381 0.54644 0.39541 0.0
C4580 C 0.61304 0.56298 0.38615 0.0
C4581 C 0.61057 0.51518 0.4135 0.0
C4582 C 0.6059 0.53161 0.42301 0.0
C4583 C 0.60786 0.54704 0.41356 0.0
C4584 C 0.59901 0.53306 0.4425 0.0
C4585 C 0.60877 0.49785 0.42226 0.0
C4586 C 0.58264 0.52118 0.4457 0.0
C4587 C 0.57617 0.52302 0.46356 0.0
C4588 C 0.58569 0.53676 0.47931 0.0
C4589 C 0.60232 0.54825 0.47614 0.0
C4590 C 0.60864 0.54664 0.45823 0.0
H4591 H 0.61575 0.48767 0.41513 0.0
H4592 H 0.61408 0.50224 0.43721 0.0
H4593 H 0.59452 0.49021 0.42143 0.0
H4594 H 0.57459 0.51054 0.43423 0.0
H4595 H 0.56357 0.51352 0.46496 0.0
H4596 H 0.3193 0.94334 0.07525 0.0
H4597 H 0.3269 0.92886 0.10108 0.0
H4598 H 0.29995 0.87268 0.0691 0.0
H4599 H 0.29233 0.88688 0.04322 0.0
H4600 H 0.30546 0.899 0.12119 0.0
H4601 H 0.35525 0.87639 0.07822 0.0
H4602 H 0.34535 0.89517 0.07406 0.0
H4603 H 0.33328 0.87042 0.06628 0.0
C4604 C 0.31452 0.92795 0.07392 0.0
C4605 C 0.30549 0.9162 0.05707 0.0
C4606 C 0.31893 0.91974 0.08867 0.0
C4607 C 0.31428 0.89976 0.08671 0.0
C4608 C 0.30383 0.88815 0.07065 0.0
H4609 H 0.32621 0.80652 0.13108 0.0
H4610 H 0.32374 0.83072 0.11291 0.0
C4611 C 0.29945 0.8963 0.05592 0.0
C4612 C 0.32175 0.89073 0.10041 0.0
H4613 H 0.34866 0.86141 0.10413 0.0
C4614 C 0.31511 0.891 0.1177 0.0
C4615 C 0.33453 0.88065 0.09574 0.0
C4616 C 0.34268 0.88074 0.07763 0.0
C4617 C 0.32 0.88016 0.13 0.0
C4618 C 0.33197 0.86908 0.1248 0.0
C4619 C 0.3394 0.86983 0.10798 0.0
C4620 C 0.33536 0.85493 0.13547 0.0
C4621 C 0.31155 0.87978 0.14792 0.0
C4622 C 0.34335 0.86063 0.1539 0.0
C4623 C 0.34476 0.84681 0.16428 0.0
C4624 C 0.33836 0.82716 0.15627 0.0
C4625 C 0.3314 0.82156 0.13748 0.0
C4626 C 0.32988 0.83535 0.12717 0.0
H4627 H 0.30037 0.88655 0.1483 0.0
H4628 H 0.30657 0.86481 0.14991 0.0
H4629 H 0.32161 0.88776 0.15982 0.0
H4630 H 0.34804 0.87569 0.16038 0.0
H4631 H 0.35033 0.85145 0.17874 0.0
H4632 H 0.98384 0.59999 0.86334 0.0
H4633 H 0.9986 0.60101 0.89397 0.0
H4634 H 0.95072 0.56439 0.9073 0.0
H4635 H 0.9357 0.56392 0.87685 0.0
H4636 H 0.97732 0.59595 0.93939 0.0
H4637 H 1.00349 0.54318 0.8928 0.0
H4638 H 1.00389 0.56528 0.88533 0.0
H4639 H 0.98303 0.54873 0.88655 0.0
C4640 C 0.97625 0.59304 0.87323 0.0
C4641 C 0.95874 0.58197 0.86798 0.0
C4642 C 0.98465 0.59359 0.89064 0.0
C4643 C 0.97573 0.58263 0.90266 0.0
C4644 C 0.95769 0.57307 0.89819 0.0
H4645 H 0.02072 0.52927 0.98122 0.0
H4646 H 1.00341 0.5367 0.95618 0.0
C4647 C 0.94915 0.57286 0.88088 0.0
C4648 C 0.98616 0.57796 0.91758 0.0
H4649 H 0.01584 0.55227 0.92415 0.0
C4650 C 0.98577 0.58645 0.93616 0.0
C4651 C 0.99677 0.56517 0.91316 0.0
C4652 C 0.99681 0.5549 0.89341 0.0
C4653 C 0.99628 0.58283 0.95052 0.0
C4654 C 0.00751 0.57076 0.94595 0.0
C4655 C 0.00746 0.56186 0.92743 0.0
C4656 C 0.01876 0.5663 0.9603 0.0
C4657 C 0.99515 0.59162 0.97046 0.0
C4658 C 0.03352 0.58036 0.97026 0.0
C4659 C 0.04363 0.57606 0.98441 0.0
C4660 C 0.03883 0.55777 0.98876 0.0
C4661 C 0.02453 0.54354 0.97818 0.0
C4662 C 0.01463 0.54775 0.96396 0.0
H4663 H 0.98362 0.59779 0.97185 0.0
H4664 H 0.99409 0.58072 0.97935 0.0
H4665 H 0.00742 0.60324 0.97581 0.0
H4666 H 0.03698 0.59468 0.96732 0.0
H4667 H 0.05456 0.58725 0.9925 0.0
H4668 H 0.30569 0.19796 0.57011 0.0
H4669 H 0.30498 0.21202 0.60246 0.0
H4670 H 0.31422 0.26813 0.58882 0.0
H4671 H 0.3141 0.25379 0.5558 0.0
H4672 H 0.32929 0.23614 0.62675 0.0
H4673 H 0.27387 0.26971 0.6191 0.0
H4674 H 0.27906 0.25352 0.60005 0.0
H4675 H 0.2923 0.27799 0.60658 0.0
C4676 C 0.3076 0.21333 0.57387 0.0
C4677 C 0.31 0.22473 0.56023 0.0
C4678 C 0.30715 0.22138 0.5925 0.0
C4679 C 0.30931 0.24117 0.59829 0.0
C4680 C 0.31203 0.25276 0.58478 0.0
H4681 H 0.31179 0.30031 0.7154 0.0
H4682 H 0.3123 0.29438 0.68133 0.0
C4683 C 0.31214 0.24458 0.56589 0.0
C4684 C 0.30911 0.24918 0.61855 0.0
H4685 H 0.28729 0.27315 0.6496 0.0
C4686 C 0.32012 0.2443 0.63165 0.0
C4687 C 0.29732 0.26005 0.62518 0.0
C4688 C 0.28485 0.26553 0.61204 0.0
C4689 C 0.31932 0.24937 0.65092 0.0
C4690 C 0.30704 0.25952 0.6575 0.0
C4691 C 0.29659 0.26523 0.64456 0.0
C4692 C 0.30447 0.26343 0.67771 0.0
C4693 C 0.33164 0.24364 0.66407 0.0
C4694 C 0.29918 0.24809 0.68692 0.0
C4695 C 0.29889 0.25146 0.70624 0.0
C4696 C 0.30339 0.27024 0.71681 0.0
C4697 C 0.30784 0.28569 0.70754 0.0
C4698 C 0.30824 0.2823 0.68811 0.0
H4699 H 0.34348 0.24119 0.65749 0.0
H4700 H 0.33614 0.25475 0.67703 0.0
H4701 H 0.32452 0.23003 0.66792 0.0
H4702 H 0.29589 0.23342 0.67922 0.0
H4703 H 0.29569 0.2393 0.71307 0.0
H4704 H 0.66181 0.49739 0.19958 0.0
H4705 H 0.64795 0.50187 0.17039 0.0
H4706 H 0.61565 0.5327 0.2015 0.0
H4707 H 0.62962 0.52846 0.23066 0.0
H4708 H 0.61689 0.49191 0.15043 0.0
H4709 H 0.63142 0.57071 0.17 0.0
H4710 H 0.64058 0.55697 0.18402 0.0
H4711 H 0.61832 0.55909 0.18593 0.0
C4712 C 0.6517 0.50508 0.20039 0.0
C4713 C 0.64713 0.51245 0.21813 0.0
C4714 C 0.64365 0.50772 0.18337 0.0
C4715 C 0.6307 0.51815 0.18297 0.0
C4716 C 0.62583 0.52512 0.20069 0.0
H4717 H 0.56416 0.53726 0.08454 0.0
H4718 H 0.57468 0.53394 0.11606 0.0
C4719 C 0.63381 0.5224 0.21769 0.0
C4720 C 0.62238 0.52147 0.16432 0.0
H4721 H 0.61238 0.556 0.14203 0.0
C4722 C 0.61601 0.50603 0.14884 0.0
C4723 C 0.62091 0.53977 0.16129 0.0
C4724 C 0.62832 0.55762 0.17609 0.0
C4725 C 0.60838 0.50822 0.13135 0.0
C4726 C 0.6068 0.52643 0.12843 0.0
C4727 C 0.61309 0.54188 0.14382 0.0
C4728 C 0.60009 0.52969 0.10918 0.0
C4729 C 0.60185 0.4908 0.11591 0.0
C4730 C 0.61055 0.52895 0.09424 0.0
C4731 C 0.60469 0.53132 0.07633 0.0
C4732 C 0.58788 0.53441 0.07197 0.0
C4733 C 0.57726 0.53528 0.08693 0.0
C4734 C 0.58333 0.53321 0.10516 0.0
H4735 H 0.60104 0.47726 0.12095 0.0
H4736 H 0.58856 0.49031 0.10935 0.0
H4737 H 0.61107 0.49168 0.105 0.0
H4738 H 0.62347 0.5264 0.09637 0.0
H4739 H 0.61349 0.5304 0.06557 0.0
H4740 H 0.33772 0.88711 0.96387 0.0
H4741 H 0.34326 0.87357 0.93272 0.0
H4742 H 0.29553 0.88411 0.90969 0.0
H4743 H 0.29048 0.89877 0.94091 0.0
H4744 H 0.32487 0.8432 0.91032 0.0
H4745 H 0.32886 0.90379 0.87453 0.0
H4746 H 0.32921 0.90672 0.8995 0.0
H4747 H 0.30844 0.89858 0.88472 0.0
C4748 C 0.32838 0.88652 0.95215 0.0
C4749 C 0.31353 0.89374 0.95473 0.0
C4750 C 0.33165 0.87892 0.93437 0.0
C4751 C 0.31999 0.87812 0.91886 0.0
C4752 C 0.30501 0.88514 0.92141 0.0
H4753 H 0.28712 0.81818 0.81017 0.0
H4754 H 0.29288 0.83672 0.84191 0.0
C4755 C 0.30196 0.89322 0.93923 0.0
C4756 C 0.32269 0.86845 0.90025 0.0
H4757 H 0.32148 0.87211 0.85461 0.0
C4758 C 0.32449 0.84967 0.89819 0.0
C4759 C 0.32256 0.87704 0.88451 0.0
C4760 C 0.32238 0.89772 0.88598 0.0
C4761 C 0.32479 0.83873 0.8806 0.0
C4762 C 0.32313 0.84682 0.86478 0.0
C4763 C 0.32248 0.86596 0.86688 0.0
C4764 C 0.31996 0.83504 0.84591 0.0
C4765 C 0.32589 0.81831 0.87892 0.0
C4766 C 0.33328 0.82781 0.83789 0.0
C4767 C 0.32993 0.81688 0.81981 0.0
C4768 C 0.31325 0.81318 0.80959 0.0
C4769 C 0.29994 0.82036 0.81781 0.0
C4770 C 0.30328 0.83117 0.83585 0.0
H4771 H 0.32522 0.81359 0.89248 0.0
H4772 H 0.31497 0.80842 0.86877 0.0
H4773 H 0.33861 0.81705 0.87367 0.0
H4774 H 0.34628 0.83086 0.84548 0.0
H4775 H 0.34049 0.81168 0.81373 0.0
H4776 H 0.9209 0.54543 0.74675 0.0
H4777 H 0.93375 0.53974 0.71744 0.0
H4778 H 0.98419 0.57706 0.74358 0.0
H4779 H 0.9716 0.58253 0.7731 0.0
H4780 H 0.95259 0.56307 0.69422 0.0
H4781 H 0.99351 0.52398 0.72757 0.0
H4782 H 0.97513 0.53074 0.73792 0.0
H4783 H 0.99628 0.5481 0.73996 0.0
C4784 C 0.93465 0.55271 0.74619 0.0
C4785 C 0.94537 0.56414 0.76228 0.0
C4786 C 0.94193 0.54945 0.72944 0.0
C4787 C 0.95995 0.55765 0.72858 0.0
C4788 C 0.97031 0.5703 0.74419 0.0
H4789 H 0.02692 0.56846 0.64346 0.0
H4790 H 0.00467 0.57091 0.66487 0.0
C4791 C 0.96311 0.57343 0.76099 0.0
C4792 C 0.96834 0.55169 0.71195 0.0
H4793 H 1.00093 0.53099 0.69817 0.0
C4794 C 0.96306 0.55591 0.69496 0.0
C4795 C 0.98156 0.54181 0.71293 0.0
C4796 C 0.98685 0.53569 0.73052 0.0
C4797 C 0.97145 0.55142 0.67907 0.0
C4798 C 0.98558 0.54281 0.68045 0.0
C4799 C 0.99016 0.5377 0.6972 0.0
C4800 C 0.99699 0.54061 0.66542 0.0
C4801 C 0.96522 0.55606 0.66105 0.0
C4802 C 1.00021 0.52277 0.65883 0.0
C4803 C 0.01311 0.52136 0.64674 0.0
C4804 C 0.02293 0.53779 0.6411 0.0
C4805 C 0.01934 0.55551 0.64736 0.0
C4806 C 0.00654 0.55692 0.65948 0.0
H4807 H 0.95106 0.55619 0.66054 0.0
H4808 H 0.97312 0.57056 0.65995 0.0
H4809 H 0.9669 0.54557 0.64883 0.0
H4810 H 0.99306 0.51006 0.66344 0.0
H4811 H 0.01553 0.50752 0.64196 0.0
H4812 H 0.32035 0.20485 0.44277 0.0
H4813 H 0.32204 0.21396 0.41214 0.0
H4814 H 0.29621 0.25821 0.43029 0.0
H4815 H 0.29424 0.2491 0.46076 0.0
H4816 H 0.28524 0.21999 0.38935 0.0
H4817 H 0.34795 0.27873 0.4049 0.0
H4818 H 0.3445 0.25812 0.41583 0.0
H4819 H 0.33298 0.276 0.42258 0.0
C4820 C 0.31521 0.21667 0.44033 0.0
C4821 C 0.30717 0.22624 0.45429 0.0
C4822 C 0.31613 0.2218 0.42278 0.0
C4823 C 0.30925 0.23677 0.41893 0.0
C4824 C 0.30161 0.24662 0.43295 0.0
H4825 H 0.30369 0.29872 0.32977 0.0
H4826 H 0.30581 0.2879 0.35931 0.0
C4827 C 0.30051 0.24139 0.45039 0.0
C4828 C 0.30938 0.2418 0.40012 0.0
H4829 H 0.33143 0.27426 0.37576 0.0
C4830 C 0.29541 0.23173 0.38628 0.0
C4831 C 0.32259 0.25718 0.3962 0.0
C4832 C 0.33796 0.2682 0.41056 0.0
C4833 C 0.29407 0.23693 0.36878 0.0
C4834 C 0.30721 0.2525 0.36486 0.0
C4835 C 0.32133 0.26238 0.37868 0.0
C4836 C 0.30627 0.25908 0.34675 0.0
C4837 C 0.27823 0.22613 0.35489 0.0
C4838 C 0.30604 0.24663 0.32975 0.0
C4839 C 0.30473 0.25276 0.31281 0.0
C4840 C 0.30384 0.27159 0.31243 0.0
C4841 C 0.30437 0.28414 0.32949 0.0
C4842 C 0.30561 0.27796 0.34642 0.0
H4843 H 0.26727 0.21804 0.36162 0.0
H4844 H 0.27316 0.23604 0.34762 0.0
H4845 H 0.2822 0.21565 0.34428 0.0
H4846 H 0.30696 0.23214 0.32956 0.0
H4847 H 0.30456 0.24273 0.3 0.0
H4848 H 0.34883 0.63028 0.49805 0.0
H4849 H 0.37743 0.62253 0.49815 0.0
H4850 H 0.36487 0.59325 0.54356 0.0
H4851 H 0.33613 0.60039 0.5432 0.0
H4852 H 0.40565 0.63101 0.52602 0.0
H4853 H 0.37551 0.55243 0.50433 0.0
H4854 H 0.36289 0.56968 0.50326 0.0
H4855 H 0.36787 0.5632 0.52506 0.0
C4856 C 0.35215 0.6221 0.50797 0.0
C4857 C 0.34019 0.61566 0.52041 0.0
C4858 C 0.36849 0.6178 0.50809 0.0
C4859 C 0.37307 0.60711 0.52069 0.0
C4860 C 0.36137 0.60117 0.53348 0.0
H4861 H 0.46052 0.55757 0.53348 0.0
H4862 H 0.43838 0.57502 0.54137 0.0
C4863 C 0.34497 0.60524 0.53323 0.0
C4864 C 0.38985 0.60161 0.52006 0.0
H4865 H 0.4065 0.56268 0.51252 0.0
C4866 C 0.40589 0.61609 0.52307 0.0
C4867 C 0.39001 0.58211 0.51616 0.0
C4868 C 0.37316 0.56595 0.51184 0.0
C4869 C 0.42218 0.61151 0.52228 0.0
C4870 C 0.42225 0.59205 0.51843 0.0
C4871 C 0.40627 0.57761 0.51566 0.0
C4872 C 0.43857 0.58599 0.51594 0.0
C4873 C 0.43919 0.62733 0.52557 0.0
C4874 C 0.44623 0.5869 0.49925 0.0
C4875 C 0.45878 0.57685 0.49463 0.0
C4876 C 0.4638 0.56581 0.50669 0.0
C4877 C 0.45701 0.56609 0.524 0.0
C4878 C 0.44439 0.57603 0.52854 0.0
H4879 H 0.43704 0.64156 0.53116 0.0
H4880 H 0.44894 0.62435 0.53544 0.0
H4881 H 0.44503 0.62795 0.51221 0.0
H4882 H 0.44166 0.59434 0.48929 0.0
H4883 H 0.46396 0.57699 0.48129 0.0
H4884 H 0.88193 0.92066 0.55973 0.0
H4885 H 0.91192 0.94162 0.56127 0.0
H4886 H 0.89277 0.97154 0.52239 0.0
H4887 H 0.86255 0.95159 0.52217 0.0
H4888 H 0.93384 0.94599 0.53803 0.0
H4889 H 0.92069 0.017 0.55752 0.0
H4890 H 0.90403 0.99508 0.55756 0.0
H4891 H 0.90776 1.00365 0.5362 0.0
C4892 C 0.88414 0.93195 0.55178 0.0
C4893 C 0.86993 0.93471 0.54104 0.0
C4894 C 0.9013 0.94391 0.55259 0.0
C4895 C 0.90477 0.95862 0.54229 0.0
C4896 C 0.89053 0.96097 0.53114 0.0
H4897 H 1.00261 0.0176 0.50685 0.0
H4898 H 0.97216 1.00096 0.51055 0.0
C4899 C 0.87324 0.94943 0.53085 0.0
C4900 C 0.92335 0.97071 0.5426 0.0
H4901 H 0.94877 0.01687 0.54631 0.0
C4902 C 0.93702 0.9615 0.5401 0.0
C4903 C 0.9278 0.99106 0.54537 0.0
C4904 C 0.91431 1.00226 0.54951 0.0
C4905 C 0.9547 0.97191 0.53989 0.0
C4906 C 0.95891 0.99205 0.54196 0.0
C4907 C 0.94545 1.00138 0.54468 0.0
C4908 C 0.97711 1.0034 0.54027 0.0
C4909 C 0.96886 0.96137 0.53726 0.0
C4910 C 0.98991 0.01066 0.55586 0.0
C4911 C 0.00736 0.02035 0.55379 0.0
C4912 C 0.01226 0.02256 0.53605 0.0
C4913 C 0.99928 0.0157 0.52061 0.0
C4914 C 0.98187 0.00631 0.52271 0.0
H4915 H 0.96348 0.94563 0.53589 0.0
H4916 H 0.9753 0.96418 0.52461 0.0
H4917 H 0.97926 0.9668 0.54933 0.0
H4918 H 0.98647 0.00851 0.56954 0.0
H4919 H 0.01714 0.0255 0.56589 0.0
H4920 H 0.91127 0.13537 0.28289 0.0
H4921 H 0.89742 0.16209 0.28429 0.0
H4922 H 0.86434 0.13257 0.23343 0.0
H4923 H 0.87805 0.10585 0.23211 0.0
H4924 H 0.8953 0.18874 0.26475 0.0
H4925 H 0.82585 0.14624 0.26092 0.0
H4926 H 0.84418 0.13606 0.26429 0.0
H4927 H 0.83651 0.13811 0.24131 0.0
C4928 C 0.90097 0.13436 0.27197 0.0
C4929 C 0.89598 0.11782 0.25743 0.0
C4930 C 0.89293 0.14995 0.27277 0.0
C4931 C 0.87919 0.14992 0.25922 0.0
C4932 C 0.87434 0.13343 0.24459 0.0
H4933 H 0.84002 0.24683 0.23148 0.0
H4934 H 0.85188 0.21926 0.23282 0.0
C4935 C 0.88245 0.11791 0.24373 0.0
C4936 C 0.87043 0.16702 0.26021 0.0
H4937 H 0.83015 0.17864 0.25727 0.0
C4938 C 0.88102 0.18627 0.26318 0.0
C4939 C 0.85166 0.16477 0.2584 0.0
C4940 C 0.83886 0.14523 0.25624 0.0
C4941 C 0.87375 0.20246 0.26378 0.0
C4942 C 0.85507 0.20015 0.2616 0.0
C4943 C 0.84442 0.18101 0.25899 0.0
C4944 C 0.84672 0.21725 0.26103 0.0
C4945 C 0.88622 0.22227 0.26676 0.0
C4946 C 0.83931 0.22613 0.27633 0.0
C4947 C 0.83245 0.24246 0.27565 0.0
C4948 C 0.83235 0.25052 0.25947 0.0
C4949 C 0.83953 0.24135 0.24424 0.0
C4950 C 0.84647 0.22532 0.24498 0.0
H4951 H 0.90023 0.22227 0.27008 0.0
H4952 H 0.88518 0.22817 0.25397 0.0
H4953 H 0.88241 0.23197 0.27827 0.0
H4954 H 0.83913 0.22066 0.28908 0.0
H4955 H 0.8275 0.24893 0.28794 0.0
H4956 H 0.74551 0.09707 0.03179 0.0
H4957 H 0.71428 0.08899 0.037 0.0
H4958 H 0.70299 0.12104 0.99617 0.0
H4959 H 0.73437 0.12955 0.99101 0.0
H4960 H 0.69548 0.12401 0.04609 0.0
H4961 H 0.66673 0.06184 0.98745 0.0
H4962 H 0.68951 0.06764 0.99748 0.0
H4963 H 0.6829 0.08236 0.98294 0.0
C4964 C 0.7363 0.10187 0.02344 0.0
C4965 C 0.74227 0.11387 0.01094 0.0
C4966 C 0.71858 0.09747 0.02665 0.0
C4967 C 0.70666 0.10471 0.01712 0.0
C4968 C 0.71224 0.11555 0.00369 0.0
H4969 H 0.59968 0.109 0.03586 0.0
H4970 H 0.63188 0.1189 0.03508 0.0
C4971 C 0.73003 0.12019 1.00064 0.0
C4972 C 0.68842 0.10136 0.02166 0.0
H4973 H 0.64701 0.07272 0.00673 0.0
C4974 C 0.68478 0.11281 0.0376 0.0
C4975 C 0.67484 0.08666 0.01052 0.0
C4976 C 0.67855 0.07379 0.99365 0.0
C4977 C 0.66754 0.10976 0.04277 0.0
C4978 C 0.65384 0.09516 0.03143 0.0
C4979 C 0.65761 0.08388 0.01541 0.0
C4980 C 0.63542 0.09075 0.03582 0.0
C4981 C 0.6642 0.12181 0.06041 0.0
C4982 C 0.62694 0.07181 0.03665 0.0
C4983 C 0.60869 0.06605 0.03618 0.0
C4984 C 0.59862 0.07928 0.03591 0.0
C4985 C 0.60723 0.09859 0.0364 0.0
C4986 C 0.62558 0.10429 0.03616 0.0
H4987 H 0.67661 0.12857 0.06995 0.0
H4988 H 0.6588 0.13345 0.05681 0.0
H4989 H 0.65439 0.11309 0.0679 0.0
H4990 H 0.63434 0.06115 0.03634 0.0
H4991 H 0.60259 0.05105 0.03524 0.0
H4992 H 0.21374 0.49222 0.27399 0.0
H4993 H 0.2203 0.46134 0.27352 0.0
H4994 H 0.23721 0.46156 0.21867 0.0
H4995 H 0.23134 0.49278 0.21934 0.0
H4996 H 0.20876 0.42537 0.24933 0.0
H4997 H 0.28098 0.45879 0.24913 0.0
H4998 H 0.2654 0.47298 0.25332 0.0
H4999 H 0.26653 0.46076 0.23011 0.0
C5000 C 0.21886 0.48567 0.26185 0.0
C5001 C 0.2224 0.49499 0.24688 0.0
C5002 C 0.22245 0.468 0.26152 0.0
C5003 C 0.22941 0.45936 0.24614 0.0
C5004 C 0.23216 0.46822 0.23079 0.0
H5005 H 0.28756 0.37717 0.26213 0.0
H5006 H 0.26935 0.39073 0.24336 0.0
C5007 C 0.22887 0.48605 0.23124 0.0
C5008 C 0.23517 0.44195 0.24708 0.0
H5009 H 0.27255 0.4273 0.25325 0.0
C5010 C 0.22267 0.42558 0.24986 0.0
C5011 C 0.25329 0.44228 0.24752 0.0
C5012 C 0.26738 0.45965 0.24499 0.0
C5013 C 0.22797 0.40989 0.25421 0.0
C5014 C 0.24623 0.41085 0.25606 0.0
C5015 C 0.25854 0.42659 0.25182 0.0
C5016 C 0.25337 0.39763 0.26526 0.0
C5017 C 0.21405 0.39277 0.25737 0.0
C5018 C 0.24994 0.3963 0.28358 0.0
C5019 C 0.26011 0.3882 0.2943 0.0
C5020 C 0.27416 0.38168 0.28701 0.0
C5021 C 0.27677 0.38188 0.26823 0.0
C5022 C 0.26639 0.38968 0.25743 0.0
H5023 H 0.20147 0.39065 0.24846 0.0
H5024 H 0.21849 0.37944 0.25445 0.0
H5025 H 0.21118 0.39532 0.27209 0.0
H5026 H 0.24025 0.40274 0.29009 0.0
H5027 H 0.25749 0.38788 0.30857 0.0
H5028 H 0.25726 0.41545 0.01604 0.0
H5029 H 0.23153 0.42873 0.01403 0.0
H5030 H 0.25483 0.47242 0.06263 0.0
H5031 H 0.28043 0.45929 0.06484 0.0
H5032 H 0.20785 0.43838 0.04633 0.0
H5033 H 0.24497 0.49939 0.01686 0.0
H5034 H 0.25117 0.4771 0.01481 0.0
H5035 H 0.25611 0.49401 0.03656 0.0
C5036 C 0.25691 0.42789 0.02629 0.0
C5037 C 0.27103 0.43639 0.04051 0.0
C5038 C 0.24214 0.43538 0.02519 0.0
C5039 C 0.24126 0.45157 0.03818 0.0
C5040 C 0.25522 0.45993 0.05246 0.0
H5041 H 0.18145 0.5352 0.0509 0.0
H5042 H 0.20156 0.51511 0.05407 0.0
C5043 C 0.2699 0.45242 0.05365 0.0
C5044 C 0.2263 0.4605 0.03644 0.0
H5045 H 0.21682 0.50045 0.02573 0.0
C5046 C 0.2097 0.45188 0.0417 0.0
C5047 C 0.22874 0.47809 0.03041 0.0
C5048 C 0.24615 0.48772 0.0242 0.0
C5049 C 0.19569 0.46078 0.04169 0.0
C5050 C 0.19827 0.47862 0.03596 0.0
C5051 C 0.21478 0.48689 0.03027 0.0
C5052 C 0.1845 0.48954 0.03622 0.0
C5053 C 0.17851 0.45136 0.04845 0.0
C5054 C 0.16782 0.48179 0.02563 0.0
C5055 C 0.15612 0.4933 0.02404 0.0
C5056 C 0.16102 0.5128 0.0328 0.0
C5057 C 0.17733 0.52023 0.044 0.0
C5058 C 0.18886 0.50875 0.04576 0.0
H5059 H 0.1802 0.44063 0.05682 0.0
H5060 H 0.17308 0.46218 0.05702 0.0
H5061 H 0.16865 0.44381 0.03626 0.0
H5062 H 0.16419 0.46716 0.01783 0.0
H5063 H 0.14372 0.48727 0.01512 0.0
H5064 H 0.92197 0.99741 0.25948 0.0
H5065 H 0.90475 0.96487 0.25964 0.0
H5066 H 0.85964 0.986 0.27334 0.0
H5067 H 0.87672 0.01865 0.27187 0.0
H5068 H 0.89244 0.94622 0.28218 0.0
H5069 H 0.83132 0.94173 0.23825 0.0
H5070 H 0.85062 0.96173 0.24062 0.0
H5071 H 0.83539 0.96089 0.25815 0.0
C5072 C 0.90827 0.99523 0.26227 0.0
C5073 C 0.90093 0.0111 0.26548 0.0
C5074 C 0.89829 0.97631 0.26247 0.0
C5075 C 0.88039 0.97207 0.26622 0.0
C5076 C 0.87303 0.98802 0.26965 0.0
H5077 H 0.80699 0.86263 0.28463 0.0
H5078 H 0.82134 0.8962 0.28349 0.0
C5079 C 0.88296 0.00703 0.26898 0.0
C5080 C 0.87018 0.95129 0.26718 0.0
H5081 H 0.83033 0.91637 0.25448 0.0
C5082 C 0.8789 0.93988 0.27589 0.0
C5083 C 0.85229 0.94218 0.25923 0.0
C5084 C 0.84191 0.95218 0.24838 0.0
C5085 C 0.87062 0.9205 0.27694 0.0
C5086 C 0.85278 0.9115 0.26911 0.0
C5087 C 0.8439 0.92287 0.26064 0.0
C5088 C 0.8434 0.89042 0.26932 0.0
C5089 C 0.88116 0.9099 0.28685 0.0
C5090 C 0.85044 0.87523 0.26152 0.0
C5091 C 0.84203 0.85583 0.26194 0.0
C5092 C 0.82607 0.85048 0.27012 0.0
C5093 C 0.81895 0.86567 0.27785 0.0
C5094 C 0.82732 0.88515 0.2773 0.0
H5095 H 0.89237 0.91992 0.29655 0.0
H5096 H 0.87266 0.90042 0.29484 0.0
H5097 H 0.88678 0.90084 0.2764 0.0
H5098 H 0.8625 0.87834 0.25488 0.0
H5099 H 0.84815 0.84491 0.2557 0.0
H5100 H 0.7387 0.09953 0.79006 0.0
H5101 H 0.75403 0.1338 0.79794 0.0
H5102 H 0.71443 0.1452 0.76142 0.0
H5103 H 0.69865 0.11128 0.75441 0.0
H5104 H 0.76855 0.15019 0.7723 0.0
H5105 H 0.72348 0.19165 0.80127 0.0
H5106 H 0.71904 0.16616 0.8004 0.0
H5107 H 0.71241 0.1751 0.78052 0.0
C5108 C 0.73305 0.10953 0.78423 0.0
C5109 C 0.71769 0.10295 0.77153 0.0
C5110 C 0.74172 0.12903 0.78879 0.0
C5111 C 0.73529 0.14205 0.7804 0.0
C5112 C 0.71935 0.13553 0.76853 0.0
H5113 H 0.76533 0.24396 0.74089 0.0
H5114 H 0.75344 0.21171 0.74698 0.0
C5115 C 0.71044 0.11612 0.76435 0.0
C5116 C 0.74675 0.16142 0.78097 0.0
H5117 H 0.74525 0.20751 0.78255 0.0
C5118 C 0.76365 0.16286 0.775 0.0
C5119 C 0.74036 0.17789 0.78456 0.0
C5120 C 0.72289 0.1776 0.79224 0.0
C5121 C 0.77372 0.17998 0.77101 0.0
C5122 C 0.76665 0.19599 0.77319 0.0
C5123 C 0.75037 0.19497 0.78046 0.0
C5124 C 0.77541 0.21374 0.76725 0.0
C5125 C 0.79128 0.18047 0.76346 0.0
C5126 C 0.79198 0.22503 0.7761 0.0
C5127 C 0.79891 0.24314 0.77229 0.0
C5128 C 0.78922 0.25016 0.75977 0.0
C5129 C 0.77304 0.23857 0.75036 0.0
C5130 C 0.76625 0.22033 0.75393 0.0
H5131 H 0.79304 0.16586 0.759 0.0
H5132 H 0.7925 0.18775 0.75144 0.0
H5133 H 0.8022 0.18864 0.77446 0.0
H5134 H 0.79904 0.22031 0.78668 0.0
H5135 H 0.81126 0.25212 0.78003 0.0
loop_
_geom_bond_atom_site_label_1
_geom_bond_atom_site_label_2
_geom_bond_distance
_geom_bond_site_symmetry_2
_ccdc_geom_bond_type
O0 Cd1 2.223 . S
O0 C8 1.315 . S
Cd1 O0 2.223 . S
Cd1 O4 2.297 . S
Cd1 O5 2.439 . S
Cd1 O11 2.240 . S
Cd2 O3 2.240 . S
Cd2 O10 2.223 . S
Cd2 O12 2.297 . S
Cd2 O13 2.439 . S
O3 Cd2 2.240 . S
O3 C8 1.279 . S
O4 Cd1 2.297 . S
O4 C6 1.247 . S
O5 Cd1 2.439 . S
O5 C6 1.208 . S
C6 O4 1.247 . S
C6 O5 1.208 . S
C7 O12 1.247 . S
C7 O13 1.208 . S
C8 O0 1.315 . S
C8 O3 1.279 . S
C9 O10 1.315 . S
C9 O11 1.279 . S
O10 Cd2 2.223 . S
O10 C9 1.315 . S
O11 Cd1 2.240 . S
O11 C9 1.279 . S
O12 Cd2 2.297 . S
O12 C7 1.247 . S
O13 Cd2 2.439 . S
O13 C7 1.208 . S
O14 Cd15 2.241 . S
O14 C22 1.320 . S
Cd15 O14 2.241 . S
Cd15 O18 2.297 . S
Cd15 O19 2.439 . S
Cd15 O25 2.240 1_655 S
Cd16 O17 2.240 1_455 S
Cd16 O24 2.223 . S
Cd16 O26 2.297 . S
Cd16 O27 2.454 . S
O17 Cd16 2.240 1_655 S
O17 C22 1.279 . S
O18 Cd15 2.297 . S
O18 C20 1.247 . S
O19 Cd15 2.439 . S
O19 C20 1.208 . S
C20 O18 1.247 . S
C20 O19 1.208 . S
C21 O26 1.247 . S
C21 O27 1.226 . S
C22 O14 1.320 . S
C22 O17 1.279 . S
C23 O24 1.315 . S
C23 O25 1.279 . S
O24 Cd16 2.223 . S
O24 C23 1.315 . S
O25 Cd15 2.240 1_455 S
O25 C23 1.279 . S
O26 Cd16 2.297 . S
O26 C21 1.247 . S
O27 Cd16 2.454 . S
O27 C21 1.226 . S
O28 Cd29 2.223 . S
O28 C36 1.315 . S
Cd29 O28 2.223 . S
Cd29 O32 2.297 . S
Cd29 O33 2.439 . S
Cd29 O39 2.240 . S
Cd30 O31 2.240 . S
Cd30 O38 2.223 . S
Cd30 O40 2.297 . S
Cd30 O41 2.439 . S
O31 Cd30 2.240 . S
O31 C36 1.279 . S
O32 Cd29 2.297 . S
O32 C34 1.247 . S
O33 Cd29 2.439 . S
O33 C34 1.208 . S
C34 O32 1.247 . S
C34 O33 1.208 . S
C35 O40 1.247 . S
C35 O41 1.208 . S
C36 O28 1.315 . S
C36 O31 1.279 . S
C37 O38 1.315 . S
C37 O39 1.279 . S
O38 Cd30 2.223 . S
O38 C37 1.315 . S
O39 Cd29 2.240 . S
O39 C37 1.279 . S
O40 Cd30 2.297 . S
O40 C35 1.247 . S
O41 Cd30 2.439 . S
O41 C35 1.208 . S
O42 Cd43 2.223 . S
O42 C50 1.315 . S
Cd43 O42 2.223 . S
Cd43 O46 2.297 . S
Cd43 O47 2.439 . S
Cd43 O53 2.240 . S
Cd44 O45 2.240 . S
Cd44 O52 2.223 . S
Cd44 O54 2.297 . S
Cd44 O55 2.439 . S
O45 Cd44 2.240 . S
O45 C50 1.279 . S
O46 Cd43 2.297 . S
O46 C48 1.247 . S
O47 Cd43 2.439 . S
O47 C48 1.208 . S
C48 O46 1.247 . S
C48 O47 1.208 . S
C49 O54 1.247 . S
C49 O55 1.208 . S
C50 O42 1.315 . S
C50 O45 1.279 . S
C51 O52 1.315 . S
C51 O53 1.279 . S
O52 Cd44 2.223 . S
O52 C51 1.315 . S
O53 Cd43 2.240 . S
O53 C51 1.279 . S
O54 Cd44 2.297 . S
O54 C49 1.247 . S
O55 Cd44 2.439 . S
O55 C49 1.208 . S
O56 Cd57 2.223 . S
O56 C64 1.315 . S
Cd57 O56 2.223 . S
Cd57 O60 2.297 . S
Cd57 O61 2.439 . S
Cd57 O67 2.240 . S
Cd58 O59 2.240 . S
Cd58 O66 2.223 . S
Cd58 O68 2.297 . S
Cd58 O69 2.439 . S
O59 Cd58 2.240 . S
O59 C64 1.279 . S
O60 Cd57 2.297 . S
O60 C62 1.247 . S
O61 Cd57 2.439 . S
O61 C62 1.208 . S
C62 O60 1.247 . S
C62 O61 1.208 . S
C63 O68 1.247 . S
C63 O69 1.208 . S
C64 O56 1.315 . S
C64 O59 1.279 . S
C65 O66 1.315 . S
C65 O67 1.279 . S
O66 Cd58 2.223 . S
O66 C65 1.315 . S
O67 Cd57 2.240 . S
O67 C65 1.279 . S
O68 Cd58 2.297 . S
O68 C63 1.247 . S
O69 Cd58 2.439 . S
O69 C63 1.208 . S
O70 Cd71 2.223 . S
O70 C78 1.315 . S
Cd71 O70 2.223 . S
Cd71 O74 2.297 . S
Cd71 O75 2.439 . S
Cd71 O81 2.240 . S
Cd72 O73 2.240 . S
Cd72 O80 2.223 . S
Cd72 O82 2.297 . S
Cd72 O83 2.439 . S
O73 Cd72 2.240 . S
O73 C78 1.279 . S
O74 Cd71 2.297 . S
O74 C76 1.247 . S
O75 Cd71 2.439 . S
O75 C76 1.208 . S
C76 O74 1.247 . S
C76 O75 1.208 . S
C77 O82 1.247 . S
C77 O83 1.208 . S
C78 O70 1.315 . S
C78 O73 1.279 . S
C79 O80 1.315 . S
C79 O81 1.279 . S
O80 Cd72 2.223 . S
O80 C79 1.315 . S
O81 Cd71 2.240 . S
O81 C79 1.279 . S
O82 Cd72 2.297 . S
O82 C77 1.247 . S
O83 Cd72 2.439 . S
O83 C77 1.208 . S
O84 Cd85 2.223 . S
O84 C92 1.315 . S
Cd85 O84 2.223 . S
Cd85 O88 2.297 . S
Cd85 O89 2.439 . S
Cd85 O95 2.240 . S
Cd86 O87 2.240 . S
Cd86 O94 2.223 . S
Cd86 O96 2.297 . S
Cd86 O97 2.439 . S
O87 Cd86 2.240 . S
O87 C92 1.279 . S
O88 Cd85 2.297 . S
O88 C90 1.247 . S
O89 Cd85 2.439 . S
O89 C90 1.208 . S
C90 O88 1.247 . S
C90 O89 1.208 . S
C91 O96 1.247 . S
C91 O97 1.208 . S
C92 O84 1.315 . S
C92 O87 1.279 . S
C93 O94 1.315 . S
C93 O95 1.279 . S
O94 Cd86 2.223 . S
O94 C93 1.315 . S
O95 Cd85 2.240 . S
O95 C93 1.279 . S
O96 Cd86 2.297 . S
O96 C91 1.247 . S
O97 Cd86 2.439 . S
O97 C91 1.208 . S
O98 Cd99 2.223 . S
O98 C106 1.315 . S
Cd99 O98 2.223 . S
Cd99 O102 2.297 . S
Cd99 O103 2.439 . S
Cd99 O109 2.240 . S
Cd100 O101 2.240 . S
Cd100 O108 2.223 1_455 S
Cd100 O110 2.297 . S
Cd100 O111 2.439 . S
O101 Cd100 2.240 . S
O101 C106 1.279 . S
O102 Cd99 2.297 . S
O102 C104 1.247 . S
O103 Cd99 2.439 . S
O103 C104 1.208 . S
C104 O102 1.247 . S
C104 O103 1.208 . S
C105 O110 1.247 . S
C105 O111 1.208 . S
C106 O98 1.315 . S
C106 O101 1.279 . S
C107 O108 1.315 . S
C107 O109 1.279 1_655 S
O108 Cd100 2.223 1_655 S
O108 C107 1.315 . S
O109 Cd99 2.240 . S
O109 C107 1.279 1_455 S
O110 Cd100 2.297 . S
O110 C105 1.247 . S
O111 Cd100 2.439 . S
O111 C105 1.208 . S
O112 Cd113 2.223 . S
O112 C120 1.315 . S
Cd113 O112 2.223 . S
Cd113 O116 2.297 . S
Cd113 O117 2.439 . S
Cd113 O123 2.240 . S
Cd114 O115 2.240 . S
Cd114 O122 2.223 . S
Cd114 O124 2.297 . S
Cd114 O125 2.439 . S
O115 Cd114 2.240 . S
O115 C120 1.279 . S
O116 Cd113 2.297 . S
O116 C118 1.247 . S
O117 Cd113 2.439 . S
O117 C118 1.208 . S
C118 O116 1.247 . S
C118 O117 1.208 . S
C119 O124 1.247 . S
C119 O125 1.208 . S
C120 O112 1.315 . S
C120 O115 1.279 . S
C121 O122 1.315 . S
C121 O123 1.279 . S
O122 Cd114 2.223 . S
O122 C121 1.315 . S
O123 Cd113 2.240 . S
O123 C121 1.279 . S
O124 Cd114 2.297 . S
O124 C119 1.247 . S
O125 Cd114 2.439 . S
O125 C119 1.208 . S
O126 Cd127 2.223 . S
O126 C134 1.315 . S
Cd127 O126 2.223 . S
Cd127 O130 2.297 . S
Cd127 O131 2.439 . S
Cd127 O137 2.240 . S
Cd128 O129 2.240 . S
Cd128 O136 2.223 . S
Cd128 O138 2.297 . S
Cd128 O139 2.439 . S
O129 Cd128 2.240 . S
O129 C134 1.279 . S
O130 Cd127 2.297 . S
O130 C132 1.247 . S
O131 Cd127 2.439 . S
O131 C132 1.208 . S
C132 O130 1.247 . S
C132 O131 1.208 . S
C133 O138 1.247 . S
C133 O139 1.208 . S
C134 O126 1.315 . S
C134 O129 1.279 . S
C135 O136 1.315 . S
C135 O137 1.279 . S
O136 Cd128 2.223 . S
O136 C135 1.315 . S
O137 Cd127 2.240 . S
O137 C135 1.279 . S
O138 Cd128 2.297 . S
O138 C133 1.247 . S
O139 Cd128 2.439 . S
O139 C133 1.208 . S
O140 Cd141 2.223 1_545 S
O140 C148 1.315 1_545 S
Cd141 O140 2.223 1_565 S
Cd141 O144 2.297 . S
Cd141 O145 2.439 . S
Cd141 O151 2.240 1_565 S
Cd142 O143 2.240 1_545 S
Cd142 O150 2.223 . S
Cd142 O152 2.297 . S
Cd142 O153 2.439 1_545 S
O143 Cd142 2.240 1_565 S
O143 C148 1.279 . S
O144 Cd141 2.297 . S
O144 C146 1.247 . S
O145 Cd141 2.439 . S
O145 C146 1.208 . S
C146 O144 1.247 . S
C146 O145 1.208 . S
C147 O152 1.247 . S
C147 O153 1.208 1_545 S
C148 O140 1.315 1_565 S
C148 O143 1.279 . S
C149 O150 1.315 . S
C149 O151 1.279 . S
O150 Cd142 2.223 . S
O150 C149 1.315 . S
O151 Cd141 2.240 1_545 S
O151 C149 1.279 . S
O152 Cd142 2.297 . S
O152 C147 1.247 . S
O153 Cd142 2.439 1_565 S
O153 C147 1.208 1_565 S
O154 Cd155 2.223 . S
O154 C162 1.315 . S
Cd155 O154 2.223 . S
Cd155 O158 2.297 . S
Cd155 O159 2.439 . S
Cd155 O165 2.240 . S
Cd156 O157 2.240 1_556 S
Cd156 O164 2.223 1_556 S
Cd156 O166 2.297 . S
Cd156 O167 2.439 . S
O157 Cd156 2.240 1_554 S
O157 C162 1.279 . S
O158 Cd155 2.297 . S
O158 C160 1.247 . S
O159 Cd155 2.439 . S
O159 C160 1.208 . S
C160 O158 1.247 . S
C160 O159 1.208 . S
C161 O166 1.247 . S
C161 O167 1.208 . S
C162 O154 1.315 . S
C162 O157 1.279 . S
C163 O164 1.315 . S
C163 O165 1.279 . S
O164 Cd156 2.223 1_554 S
O164 C163 1.315 . S
O165 Cd155 2.240 . S
O165 C163 1.279 . S
O166 Cd156 2.297 . S
O166 C161 1.247 . S
O167 Cd156 2.439 . S
O167 C161 1.208 . S
O168 Cd169 2.223 . S
O168 C176 1.315 . S
Cd169 O168 2.223 . S
Cd169 O172 2.297 . S
Cd169 O173 2.439 . S
Cd169 O179 2.240 . S
Cd170 O171 2.240 . S
Cd170 O178 2.223 . S
Cd170 O180 2.297 1_554 S
Cd170 O181 2.439 1_554 S
O171 Cd170 2.240 . S
O171 C176 1.279 . S
O172 Cd169 2.297 . S
O172 C174 1.247 . S
O173 Cd169 2.439 . S
O173 C174 1.208 . S
C174 O172 1.247 . S
C174 O173 1.208 . S
C175 O180 1.247 . S
C175 O181 1.208 . S
C176 O168 1.315 . S
C176 O171 1.279 . S
C177 O178 1.315 . S
C177 O179 1.279 . S
O178 Cd170 2.223 . S
O178 C177 1.315 . S
O179 Cd169 2.240 . S
O179 C177 1.279 . S
O180 Cd170 2.297 1_556 S
O180 C175 1.247 . S
O181 Cd170 2.439 1_556 S
O181 C175 1.208 . S
O182 Cd183 2.223 . S
O182 C190 1.315 . S
Cd183 O182 2.223 . S
Cd183 O186 2.297 . S
Cd183 O187 2.439 . S
Cd183 O193 2.240 . S
Cd184 O185 2.240 . S
Cd184 O192 2.223 . S
Cd184 O194 2.297 1_554 S
Cd184 O195 2.439 1_554 S
O185 Cd184 2.240 . S
O185 C190 1.279 . S
O186 Cd183 2.297 . S
O186 C188 1.247 . S
O187 Cd183 2.439 . S
O187 C188 1.208 . S
C188 O186 1.247 . S
C188 O187 1.208 . S
C189 O194 1.247 . S
C189 O195 1.208 . S
C190 O182 1.315 . S
C190 O185 1.279 . S
C191 O192 1.315 . S
C191 O193 1.279 . S
O192 Cd184 2.223 . S
O192 C191 1.315 . S
O193 Cd183 2.240 . S
O193 C191 1.279 . S
O194 Cd184 2.297 1_556 S
O194 C189 1.247 . S
O195 Cd184 2.439 1_556 S
O195 C189 1.208 . S
O196 Cd197 2.223 . S
O196 C204 1.315 . S
Cd197 O196 2.223 . S
Cd197 O200 2.297 . S
Cd197 O201 2.439 . S
Cd197 O207 2.240 . S
Cd198 O199 2.240 . S
Cd198 O206 2.223 . S
Cd198 O208 2.297 . S
Cd198 O209 2.439 . S
O199 Cd198 2.240 . S
O199 C204 1.279 . S
O200 Cd197 2.297 . S
O200 C202 1.247 . S
O201 Cd197 2.439 . S
O201 C202 1.208 . S
C202 O200 1.247 . S
C202 O201 1.208 . S
C203 O208 1.247 . S
C203 O209 1.208 . S
C204 O196 1.315 . S
C204 O199 1.279 . S
C205 O206 1.315 . S
C205 O207 1.279 . S
O206 Cd198 2.223 . S
O206 C205 1.315 . S
O207 Cd197 2.240 . S
O207 C205 1.279 . S
O208 Cd198 2.297 . S
O208 C203 1.247 . S
O209 Cd198 2.439 . S
O209 C203 1.208 . S
O210 Cd211 2.223 . S
O210 C218 1.315 . S
Cd211 O210 2.223 . S
Cd211 O214 2.297 . S
Cd211 O215 2.439 . S
Cd211 O221 2.240 . S
Cd212 O213 2.240 . S
Cd212 O220 2.223 . S
Cd212 O222 2.297 . S
Cd212 O223 2.439 . S
O213 Cd212 2.240 . S
O213 C218 1.279 . S
O214 Cd211 2.297 . S
O214 C216 1.247 . S
O215 Cd211 2.439 . S
O215 C216 1.208 . S
C216 O214 1.247 . S
C216 O215 1.208 . S
C217 O222 1.247 . S
C217 O223 1.208 . S
C218 O210 1.315 . S
C218 O213 1.279 . S
C219 O220 1.315 . S
C219 O221 1.279 . S
O220 Cd212 2.223 . S
O220 C219 1.315 . S
O221 Cd211 2.240 . S
O221 C219 1.279 . S
O222 Cd212 2.297 . S
O222 C217 1.247 . S
O223 Cd212 2.439 . S
O223 C217 1.208 . S
O224 Cd225 2.223 . S
O224 C232 1.315 . S
Cd225 O224 2.223 . S
Cd225 O228 2.297 . S
Cd225 O229 2.439 . S
Cd225 O235 2.240 . S
Cd226 O227 2.240 . S
Cd226 O234 2.223 . S
Cd226 O236 2.297 . S
Cd226 O237 2.439 . S
O227 Cd226 2.240 . S
O227 C232 1.279 . S
O228 Cd225 2.297 . S
O228 C230 1.247 . S
O229 Cd225 2.439 . S
O229 C230 1.208 . S
C230 O228 1.247 . S
C230 O229 1.208 . S
C231 O236 1.247 . S
C231 O237 1.208 . S
C232 O224 1.315 . S
C232 O227 1.279 . S
C233 O234 1.315 . S
C233 O235 1.279 . S
O234 Cd226 2.223 . S
O234 C233 1.315 . S
O235 Cd225 2.240 . S
O235 C233 1.279 . S
O236 Cd226 2.297 . S
O236 C231 1.247 . S
O237 Cd226 2.439 . S
O237 C231 1.208 . S
O238 Cd239 2.223 . S
O238 C246 1.315 . S
Cd239 O238 2.223 . S
Cd239 O242 2.297 . S
Cd239 O243 2.439 . S
Cd239 O249 2.240 . S
Cd240 O241 2.240 . S
Cd240 O248 2.223 . S
Cd240 O250 2.297 . S
Cd240 O251 2.439 . S
O241 Cd240 2.240 . S
O241 C246 1.279 . S
O242 Cd239 2.297 . S
O242 C244 1.247 . S
O243 Cd239 2.439 . S
O243 C244 1.208 . S
C244 O242 1.247 . S
C244 O243 1.208 . S
C245 O250 1.247 . S
C245 O251 1.208 . S
C246 O238 1.315 . S
C246 O241 1.279 . S
C247 O248 1.315 . S
C247 O249 1.279 . S
O248 Cd240 2.223 . S
O248 C247 1.315 . S
O249 Cd239 2.240 . S
O249 C247 1.279 . S
O250 Cd240 2.297 . S
O250 C245 1.247 . S
O251 Cd240 2.439 . S
O251 C245 1.208 . S
O252 Cd253 2.223 . S
O252 C260 1.315 . S
Cd253 O252 2.223 . S
Cd253 O256 2.297 . S
Cd253 O257 2.439 . S
Cd253 O263 2.240 . S
Cd254 O255 2.240 . S
Cd254 O262 2.223 . S
Cd254 O264 2.297 . S
Cd254 O265 2.439 . S
O255 Cd254 2.240 . S
O255 C260 1.279 . S
O256 Cd253 2.297 . S
O256 C258 1.247 . S
O257 Cd253 2.439 . S
O257 C258 1.208 . S
C258 O256 1.247 . S
C258 O257 1.208 . S
C259 O264 1.247 . S
C259 O265 1.208 . S
C260 O252 1.315 . S
C260 O255 1.279 . S
C261 O262 1.315 . S
C261 O263 1.279 . S
O262 Cd254 2.223 . S
O262 C261 1.315 . S
O263 Cd253 2.240 . S
O263 C261 1.279 . S
O264 Cd254 2.297 . S
O264 C259 1.247 . S
O265 Cd254 2.439 . S
O265 C259 1.208 . S
O266 Cd267 2.223 . S
O266 C274 1.315 . S
Cd267 O266 2.223 . S
Cd267 O270 2.297 . S
Cd267 O271 2.439 . S
Cd267 O277 2.240 . S
Cd268 O269 2.240 . S
Cd268 O276 2.223 . S
Cd268 O278 2.297 . S
Cd268 O279 2.439 . S
O269 Cd268 2.240 . S
O269 C274 1.279 . S
O270 Cd267 2.297 . S
O270 C272 1.247 . S
O271 Cd267 2.439 . S
O271 C272 1.208 . S
C272 O270 1.247 . S
C272 O271 1.208 . S
C273 O278 1.247 . S
C273 O279 1.208 . S
C274 O266 1.315 . S
C274 O269 1.279 . S
C275 O276 1.315 . S
C275 O277 1.279 . S
O276 Cd268 2.223 . S
O276 C275 1.315 . S
O277 Cd267 2.240 . S
O277 C275 1.279 . S
O278 Cd268 2.297 . S
O278 C273 1.247 . S
O279 Cd268 2.439 . S
O279 C273 1.208 . S
O280 Cd281 2.223 . S
O280 C288 1.315 . S
Cd281 O280 2.223 . S
Cd281 O284 2.297 . S
Cd281 O285 2.439 1_554 S
Cd281 O291 2.240 1_554 S
Cd282 O283 2.240 1_556 S
Cd282 O290 2.223 1_556 S
Cd282 O292 2.297 . S
Cd282 O293 2.439 . S
O283 Cd282 2.240 1_554 S
O283 C288 1.279 . S
O284 Cd281 2.297 . S
O284 C286 1.247 . S
O285 Cd281 2.439 1_556 S
O285 C286 1.208 1_556 S
C286 O284 1.247 . S
C286 O285 1.208 1_554 S
C287 O292 1.247 . S
C287 O293 1.208 . S
C288 O280 1.315 . S
C288 O283 1.279 . S
C289 O290 1.315 1_556 S
C289 O291 1.302 . S
O290 Cd282 2.223 1_554 S
O290 C289 1.315 1_554 S
O291 Cd281 2.240 1_556 S
O291 C289 1.302 . S
O292 Cd282 2.297 . S
O292 C287 1.247 . S
O293 Cd282 2.439 . S
O293 C287 1.208 . S
O294 Cd295 2.223 . S
O294 C302 1.315 . S
Cd295 O294 2.223 . S
Cd295 O298 2.297 . S
Cd295 O299 2.439 . S
Cd295 O305 2.240 . S
Cd296 O297 2.240 . S
Cd296 O304 2.223 . S
Cd296 O306 2.297 . S
Cd296 O307 2.439 . S
O297 Cd296 2.240 . S
O297 C302 1.279 . S
O298 Cd295 2.297 . S
O298 C300 1.247 . S
O299 Cd295 2.439 . S
O299 C300 1.208 . S
C300 O298 1.247 . S
C300 O299 1.208 . S
C301 O306 1.247 . S
C301 O307 1.208 . S
C302 O294 1.315 . S
C302 O297 1.279 . S
C303 O304 1.315 . S
C303 O305 1.279 . S
O304 Cd296 2.223 . S
O304 C303 1.315 . S
O305 Cd295 2.240 . S
O305 C303 1.279 . S
O306 Cd296 2.297 . S
O306 C301 1.247 . S
O307 Cd296 2.439 . S
O307 C301 1.208 . S
O308 Cd309 2.223 . S
O308 C316 1.315 . S
Cd309 O308 2.223 . S
Cd309 O312 2.297 . S
Cd309 O313 2.439 . S
Cd309 O319 2.240 . S
Cd310 O311 2.240 . S
Cd310 O318 2.223 . S
Cd310 O320 2.297 . S
Cd310 O321 2.439 . S
O311 Cd310 2.240 . S
O311 C316 1.279 . S
O312 Cd309 2.297 . S
O312 C314 1.247 . S
O313 Cd309 2.439 . S
O313 C314 1.208 . S
C314 O312 1.247 . S
C314 O313 1.208 . S
C315 O320 1.247 . S
C315 O321 1.208 . S
C316 O308 1.315 . S
C316 O311 1.279 . S
C317 O318 1.315 . S
C317 O319 1.279 . S
O318 Cd310 2.223 . S
O318 C317 1.315 . S
O319 Cd309 2.240 . S
O319 C317 1.279 . S
O320 Cd310 2.297 . S
O320 C315 1.247 . S
O321 Cd310 2.439 . S
O321 C315 1.208 . S
O322 Cd323 2.223 . S
O322 C330 1.315 . S
Cd323 O322 2.223 . S
Cd323 O326 2.297 . S
Cd323 O327 2.439 . S
Cd323 O333 2.240 . S
Cd324 O325 2.240 . S
Cd324 O332 2.223 . S
Cd324 O334 2.297 . S
Cd324 O335 2.439 . S
O325 Cd324 2.240 . S
O325 C330 1.279 . S
O326 Cd323 2.297 . S
O326 C328 1.247 . S
O327 Cd323 2.439 . S
O327 C328 1.208 . S
C328 O326 1.247 . S
C328 O327 1.208 . S
C329 O334 1.247 . S
C329 O335 1.208 . S
C330 O322 1.315 . S
C330 O325 1.279 . S
C331 O332 1.315 . S
C331 O333 1.279 . S
O332 Cd324 2.223 . S
O332 C331 1.315 . S
O333 Cd323 2.240 . S
O333 C331 1.279 . S
O334 Cd324 2.297 . S
O334 C329 1.247 . S
O335 Cd324 2.439 . S
O335 C329 1.208 . S
Tb336 N367 2.660 . S
Tb336 N374 2.600 1_554 S
Tb336 O380 2.546 1_554 S
Tb336 O381 2.610 . S
Tb336 O383 2.320 . S
Tb336 O384 2.552 . S
Tb336 O385 2.470 . S
Tb336 O387 2.362 . S
Tb336 O388 2.421 1_554 S
Tb336 C400 2.833 1_455 S
C337 C340 1.432 . S
C337 C341 1.414 . S
C337 N344 1.359 . S
C338 C340 1.417 . S
C338 C342 1.432 . S
C338 C350 1.410 . S
C339 C341 1.444 . S
C339 C342 1.317 . S
C339 H362 0.929 . S
C340 C337 1.432 . S
C340 C338 1.417 . S
C340 N348 1.360 . S
C341 C337 1.414 . S
C341 C339 1.444 . S
C341 C346 1.385 . S
C342 C338 1.432 . S
C342 C339 1.317 . S
C342 H354 0.930 . S
C343 C345 1.392 . S
C343 C346 1.370 . S
C343 H355 0.931 . S
N344 C337 1.359 . S
N344 C345 1.327 . S
N344 Tb347 2.600 . S
C345 C343 1.392 . S
C345 N344 1.327 . S
C345 H352 0.930 . S
C346 C341 1.385 . S
C346 C343 1.370 . S
C346 H365 0.930 . S
Tb347 N344 2.600 . S
Tb347 N348 2.660 . S
Tb347 O381 2.362 . S
Tb347 O382 2.421 . S
Tb347 O386 2.546 . S
Tb347 O387 2.610 . S
Tb347 O389 2.320 . S
Tb347 O390 2.552 . S
Tb347 O391 2.413 . S
Tb347 C411 2.833 . S
N348 C340 1.360 . S
N348 Tb347 2.660 . S
N348 C349 1.305 . S
C349 N348 1.305 . S
C349 C351 1.407 1_554 S
C349 H356 0.930 1_554 S
C350 C338 1.410 . S
C350 C351 1.345 1_554 S
C350 H358 0.964 . S
C351 C349 1.407 1_556 S
C351 C350 1.345 1_556 S
C351 H353 0.930 . S
H352 C345 0.930 . S
H353 C351 0.930 . S
H354 C342 0.930 . S
H355 C343 0.931 . S
H356 C349 0.930 1_556 S
H357 C371 0.930 . S
H358 C350 0.964 . S
H359 C377 0.930 . S
H360 C368 0.930 . S
H361 C375 0.931 . S
H362 C339 0.929 . S
H363 C369 0.923 1_655 S
H364 C402 0.930 . S
H365 C346 0.930 . S
H366 C401 0.929 . S
N367 Tb336 2.660 . S
N367 C368 1.305 . S
N367 C372 1.360 1_545 S
C368 H360 0.930 . S
C368 N367 1.305 . S
C368 C371 1.407 1_545 S
C369 H363 0.923 1_455 S
C369 C370 1.413 1_455 S
C369 C371 1.353 . S
C370 C369 1.413 1_655 S
C370 C372 1.408 1_655 S
C370 C402 1.440 . S
C371 H357 0.930 . S
C371 C368 1.407 1_565 S
C371 C369 1.353 . S
C372 N367 1.360 1_565 S
C372 C370 1.408 1_455 S
C372 C376 1.432 1_554 S
H373 C378 0.930 . S
N374 Tb336 2.600 1_556 S
N374 C376 1.359 1_545 S
N374 C377 1.327 . S
C375 H361 0.931 . S
C375 C377 1.392 1_565 S
C375 C378 1.370 1_455 S
C376 C372 1.432 1_556 S
C376 N374 1.359 1_565 S
C376 C379 1.414 1_455 S
C377 H359 0.930 . S
C377 N374 1.327 . S
C377 C375 1.392 1_545 S
C378 H373 0.930 . S
C378 C375 1.370 1_655 S
C378 C379 1.385 . S
C379 C376 1.414 1_655 S
C379 C378 1.385 . S
C379 C401 1.444 . S
O380 Tb336 2.546 1_556 S
O380 C400 1.251 1_456 S
O381 Tb336 2.610 . S
O381 Tb347 2.362 . S
O381 C392 1.283 . S
O382 Tb347 2.421 . S
O382 C399 1.262 . S
O383 Tb336 2.320 . S
O383 C399 1.260 . S
O384 Tb336 2.552 . S
O384 C392 1.243 . S
O385 Tb336 2.470 . S
O385 C400 1.242 1_455 S
O386 Tb347 2.546 . S
O386 C411 1.251 . S
O387 Tb336 2.362 . S
O387 Tb347 2.610 . S
O387 C403 1.283 . S
O388 Tb336 2.421 1_556 S
O388 C410 1.262 . S
O389 Tb347 2.320 . S
O389 C410 1.260 1_554 S
O390 Tb347 2.552 . S
O390 C403 1.243 . S
O391 Tb347 2.413 . S
O391 C411 1.256 . S
C392 O381 1.283 . S
C392 O384 1.243 . S
C393 C395 1.382 1_556 S
C393 C397 1.393 . S
C393 C400 1.500 1_556 S
C394 C395 1.400 . S
C394 C396 1.384 1_554 S
C395 C393 1.382 1_554 S
C395 C394 1.400 . S
C395 H412 0.930 . S
C396 C394 1.384 1_556 S
C396 C398 1.392 . S
C396 H413 0.931 . S
C397 C393 1.393 . S
C397 C398 1.401 . S
C397 H414 0.930 . S
C398 C396 1.392 . S
C398 C397 1.401 . S
C398 H415 0.930 . S
C399 O382 1.262 . S
C399 O383 1.260 . S
C400 Tb336 2.833 1_655 S
C400 O380 1.251 1_654 S
C400 O385 1.242 1_655 S
C400 C393 1.500 1_554 S
C401 H366 0.929 . S
C401 C379 1.444 . S
C401 C402 1.317 1_556 S
C402 H364 0.930 . S
C402 C370 1.440 . S
C402 C401 1.317 1_554 S
C403 O387 1.283 . S
C403 O390 1.243 . S
C404 C405 1.382 . S
C404 C408 1.393 . S
C404 C411 1.500 . S
C405 C404 1.382 . S
C405 C406 1.400 . S
C405 H416 0.930 . S
C406 C405 1.400 . S
C406 C407 1.384 . S
C407 C406 1.384 . S
C407 C409 1.392 . S
C407 H417 0.931 . S
C408 C404 1.393 . S
C408 C409 1.401 . S
C408 H418 0.930 . S
C409 C407 1.392 . S
C409 C408 1.401 . S
C409 H419 0.930 . S
C410 O388 1.262 . S
C410 O389 1.260 1_556 S
C411 Tb347 2.833 . S
C411 O386 1.251 . S
C411 O391 1.256 . S
C411 C404 1.500 . S
H412 C395 0.930 . S
H413 C396 0.931 . S
H414 C397 0.930 . S
H415 C398 0.930 . S
H416 C405 0.930 . S
H417 C407 0.931 . S
H418 C408 0.930 . S
H419 C409 0.930 . S
Tb420 N451 2.660 . S
Tb420 N458 2.600 . S
Tb420 O464 2.546 . S
Tb420 O465 2.610 . S
Tb420 O467 2.320 . S
Tb420 O468 2.552 . S
Tb420 O469 2.413 . S
Tb420 O471 2.362 . S
Tb420 O472 2.421 . S
Tb420 C484 2.833 . S
C421 C424 1.432 . S
C421 C425 1.414 . S
C421 N428 1.359 . S
C422 C424 1.417 . S
C422 C426 1.432 . S
C422 C434 1.410 . S
C423 C425 1.444 . S
C423 C426 1.317 . S
C423 H446 0.929 . S
C424 C421 1.432 . S
C424 C422 1.417 . S
C424 N432 1.360 . S
C425 C421 1.414 . S
C425 C423 1.444 . S
C425 C430 1.385 . S
C426 C422 1.432 . S
C426 C423 1.317 . S
C426 H438 0.930 . S
C427 C429 1.392 . S
C427 C430 1.370 . S
C427 H439 0.931 . S
N428 C421 1.359 . S
N428 C429 1.327 . S
N428 Tb431 2.600 . S
C429 C427 1.392 . S
C429 N428 1.327 . S
C429 H436 0.930 . S
C430 C425 1.385 . S
C430 C427 1.370 . S
C430 H449 0.930 . S
Tb431 N428 2.600 . S
Tb431 N432 2.660 . S
Tb431 O465 2.362 . S
Tb431 O466 2.421 . S
Tb431 O470 2.546 . S
Tb431 O471 2.610 . S
Tb431 O473 2.320 . S
Tb431 O474 2.552 . S
Tb431 O475 2.413 . S
Tb431 C495 2.833 . S
N432 C424 1.360 . S
N432 Tb431 2.660 . S
N432 C433 1.305 . S
C433 N432 1.305 . S
C433 C435 1.407 . S
C433 H440 0.930 . S
C434 C422 1.410 . S
C434 C435 1.345 . S
C434 H442 0.930 . S
C435 C433 1.407 . S
C435 C434 1.345 . S
C435 H437 0.930 . S
H436 C429 0.930 . S
H437 C435 0.930 . S
H438 C426 0.930 . S
H439 C427 0.931 . S
H440 C433 0.930 . S
H441 C455 0.930 . S
H442 C434 0.930 . S
H443 C461 0.930 . S
H444 C452 0.930 . S
H445 C459 0.931 . S
H446 C423 0.929 . S
H447 C453 0.930 . S
H448 C486 0.930 . S
H449 C430 0.930 . S
H450 C485 0.929 . S
N451 Tb420 2.660 . S
N451 C452 1.305 . S
N451 C456 1.360 . S
C452 H444 0.930 . S
C452 N451 1.305 . S
C452 C455 1.407 . S
C453 H447 0.930 . S
C453 C454 1.410 . S
C453 C455 1.345 . S
C454 C453 1.410 . S
C454 C456 1.417 . S
C454 C486 1.432 . S
C455 H441 0.930 . S
C455 C452 1.407 . S
C455 C453 1.345 . S
C456 N451 1.360 . S
C456 C454 1.417 . S
C456 C460 1.432 . S
H457 C462 0.930 . S
N458 Tb420 2.600 . S
N458 C460 1.359 . S
N458 C461 1.327 . S
C459 H445 0.931 . S
C459 C461 1.392 . S
C459 C462 1.370 . S
C460 C456 1.432 . S
C460 N458 1.359 . S
C460 C463 1.414 . S
C461 H443 0.930 . S
C461 N458 1.327 . S
C461 C459 1.392 . S
C462 H457 0.930 . S
C462 C459 1.370 . S
C462 C463 1.385 . S
C463 C460 1.414 . S
C463 C462 1.385 . S
C463 C485 1.444 . S
O464 Tb420 2.546 . S
O464 C484 1.251 . S
O465 Tb420 2.610 . S
O465 Tb431 2.362 . S
O465 C476 1.283 . S
O466 Tb431 2.421 . S
O466 C483 1.262 . S
O467 Tb420 2.320 . S
O467 C483 1.260 . S
O468 Tb420 2.552 . S
O468 C476 1.243 . S
O469 Tb420 2.413 . S
O469 C484 1.256 . S
O470 Tb431 2.546 . S
O470 C495 1.251 . S
O471 Tb420 2.362 . S
O471 Tb431 2.610 . S
O471 C487 1.283 . S
O472 Tb420 2.421 . S
O472 C494 1.262 . S
O473 Tb431 2.320 . S
O473 C494 1.260 . S
O474 Tb431 2.552 . S
O474 C487 1.243 . S
O475 Tb431 2.413 . S
O475 C495 1.256 . S
C476 O465 1.283 . S
C476 O468 1.243 . S
C477 C479 1.382 . S
C477 C481 1.393 . S
C477 C484 1.500 . S
C478 C479 1.400 . S
C478 C480 1.384 . S
C479 C477 1.382 . S
C479 C478 1.400 . S
C479 H496 0.930 . S
C480 C478 1.384 . S
C480 C482 1.392 . S
C480 H497 0.931 . S
C481 C477 1.393 . S
C481 C482 1.401 . S
C481 H498 0.930 . S
C482 C480 1.392 . S
C482 C481 1.401 . S
C482 H499 0.930 . S
C483 O466 1.262 . S
C483 O467 1.260 . S
C484 Tb420 2.833 . S
C484 O464 1.251 . S
C484 O469 1.256 . S
C484 C477 1.500 . S
C485 H450 0.929 . S
C485 C463 1.444 . S
C485 C486 1.317 . S
C486 H448 0.930 . S
C486 C454 1.432 . S
C486 C485 1.317 . S
C487 O471 1.283 . S
C487 O474 1.243 . S
C488 C489 1.382 . S
C488 C492 1.393 . S
C488 C495 1.500 . S
C489 C488 1.382 . S
C489 C490 1.400 . S
C489 H500 0.930 . S
C490 C489 1.400 . S
C490 C491 1.384 . S
C491 C490 1.384 . S
C491 C493 1.392 . S
C491 H501 0.931 . S
C492 C488 1.393 . S
C492 C493 1.401 . S
C492 H502 0.930 . S
C493 C491 1.392 . S
C493 C492 1.401 . S
C493 H503 0.930 . S
C494 O472 1.262 . S
C494 O473 1.260 . S
C495 Tb431 2.833 . S
C495 O470 1.251 . S
C495 O475 1.256 . S
C495 C488 1.500 . S
H496 C479 0.930 . S
H497 C480 0.931 . S
H498 C481 0.930 . S
H499 C482 0.930 . S
H500 C489 0.930 . S
H501 C491 0.931 . S
H502 C492 0.930 . S
H503 C493 0.930 . S
Tb504 N535 2.660 . S
Tb504 N542 2.600 . S
Tb504 O548 2.546 . S
Tb504 O549 2.610 . S
Tb504 O551 2.320 . S
Tb504 O552 2.552 . S
Tb504 O553 2.413 . S
Tb504 O555 2.362 . S
Tb504 O556 2.421 . S
Tb504 C568 2.833 . S
C505 C508 1.432 . S
C505 C509 1.414 . S
C505 N512 1.359 1_565 S
C506 C508 1.417 . S
C506 C510 1.432 . S
C506 C518 1.410 . S
C507 C509 1.444 . S
C507 C510 1.317 . S
C507 H530 0.929 . S
C508 C505 1.432 . S
C508 C506 1.417 . S
C508 N516 1.360 1_565 S
C509 C505 1.414 . S
C509 C507 1.444 . S
C509 C514 1.385 . S
C510 C506 1.432 . S
C510 C507 1.317 . S
C510 H522 0.930 . S
C511 C513 1.392 . S
C511 C514 1.370 1_545 S
C511 H523 0.931 . S
N512 C505 1.359 1_545 S
N512 C513 1.327 . S
N512 Tb515 2.600 . S
C513 C511 1.392 . S
C513 N512 1.327 . S
C513 H520 0.930 . S
C514 C509 1.385 . S
C514 C511 1.370 1_565 S
C514 H533 0.930 . S
Tb515 N512 2.600 . S
Tb515 N516 2.660 . S
Tb515 O549 2.362 . S
Tb515 O550 2.421 . S
Tb515 O554 2.546 . S
Tb515 O555 2.610 . S
Tb515 O557 2.320 . S
Tb515 O558 2.552 . S
Tb515 O559 2.413 . S
Tb515 C579 2.833 . S
N516 C508 1.360 1_545 S
N516 Tb515 2.660 . S
N516 C517 1.305 1_545 S
C517 N516 1.305 1_565 S
C517 C519 1.407 . S
C517 H524 0.930 1_565 S
C518 C506 1.410 . S
C518 C519 1.345 . S
C518 H526 0.930 . S
C519 C517 1.407 . S
C519 C518 1.345 . S
C519 H521 0.930 . S
H520 C513 0.930 . S
H521 C519 0.930 . S
H522 C510 0.930 . S
H523 C511 0.931 . S
H524 C517 0.930 1_545 S
H525 C539 0.930 . S
H526 C518 0.930 . S
H527 C545 0.930 . S
H528 C536 0.930 . S
H529 C543 0.931 . S
H530 C507 0.929 . S
H531 C537 0.930 . S
H532 C570 0.930 . S
H533 C514 0.930 . S
H534 C569 0.929 . S
N535 Tb504 2.660 . S
N535 C536 1.305 . S
N535 C540 1.360 . S
C536 H528 0.930 . S
C536 N535 1.305 . S
C536 C539 1.407 . S
C537 H531 0.930 . S
C537 C538 1.410 . S
C537 C539 1.345 . S
C538 C537 1.410 . S
C538 C540 1.417 . S
C538 C570 1.432 . S
C539 H525 0.930 . S
C539 C536 1.407 . S
C539 C537 1.345 . S
C540 N535 1.360 . S
C540 C538 1.417 . S
C540 C544 1.432 . S
H541 C546 0.930 . S
N542 Tb504 2.600 . S
N542 C544 1.359 . S
N542 C545 1.327 . S
C543 H529 0.931 . S
C543 C545 1.392 . S
C543 C546 1.370 . S
C544 C540 1.432 . S
C544 N542 1.359 . S
C544 C547 1.414 . S
C545 H527 0.930 . S
C545 N542 1.327 . S
C545 C543 1.392 . S
C546 H541 0.930 . S
C546 C543 1.370 . S
C546 C547 1.385 . S
C547 C544 1.414 . S
C547 C546 1.385 . S
C547 C569 1.444 . S
O548 Tb504 2.546 . S
O548 C568 1.251 . S
O549 Tb504 2.610 . S
O549 Tb515 2.362 . S
O549 C560 1.283 . S
O550 Tb515 2.421 . S
O550 C567 1.262 . S
O551 Tb504 2.320 . S
O551 C567 1.260 . S
O552 Tb504 2.552 . S
O552 C560 1.243 . S
O553 Tb504 2.413 . S
O553 C568 1.256 . S
O554 Tb515 2.546 . S
O554 C579 1.251 . S
O555 Tb504 2.362 . S
O555 Tb515 2.610 . S
O555 C571 1.283 . S
O556 Tb504 2.421 . S
O556 C578 1.262 . S
O557 Tb515 2.320 . S
O557 C578 1.260 . S
O558 Tb515 2.552 . S
O558 C571 1.243 . S
O559 Tb515 2.413 . S
O559 C579 1.256 . S
C560 O549 1.283 . S
C560 O552 1.243 . S
C561 C563 1.382 . S
C561 C565 1.393 . S
C561 C568 1.500 . S
C562 C563 1.400 . S
C562 C564 1.384 . S
C563 C561 1.382 . S
C563 C562 1.400 . S
C563 H580 0.930 . S
C564 C562 1.384 . S
C564 C566 1.392 . S
C564 H581 0.931 1_545 S
C565 C561 1.393 . S
C565 C566 1.401 . S
C565 H582 0.930 . S
C566 C564 1.392 . S
C566 C565 1.401 . S
C566 H583 0.930 . S
C567 O550 1.262 . S
C567 O551 1.260 . S
C568 Tb504 2.833 . S
C568 O548 1.251 . S
C568 O553 1.256 . S
C568 C561 1.500 . S
C569 H534 0.929 . S
C569 C547 1.444 . S
C569 C570 1.317 . S
C570 H532 0.930 . S
C570 C538 1.432 . S
C570 C569 1.317 . S
C571 O555 1.283 . S
C571 O558 1.243 . S
C572 C573 1.382 . S
C572 C576 1.393 . S
C572 C579 1.500 . S
C573 C572 1.382 . S
C573 C574 1.400 . S
C573 H584 0.930 . S
C574 C573 1.400 . S
C574 C575 1.384 . S
C575 C574 1.384 . S
C575 C577 1.392 . S
C575 H585 0.931 . S
C576 C572 1.393 . S
C576 C577 1.401 . S
C576 H586 0.930 . S
C577 C575 1.392 . S
C577 C576 1.401 . S
C577 H587 0.930 . S
C578 O556 1.262 . S
C578 O557 1.260 . S
C579 Tb515 2.833 . S
C579 O554 1.251 . S
C579 O559 1.256 . S
C579 C572 1.500 . S
H580 C563 0.930 . S
H581 C564 0.931 1_565 S
H582 C565 0.930 . S
H583 C566 0.930 . S
H584 C573 0.930 . S
H585 C575 0.931 . S
H586 C576 0.930 . S
H587 C577 0.930 . S
Tb588 N619 2.660 . S
Tb588 N626 2.600 . S
Tb588 O632 2.546 . S
Tb588 O633 2.610 . S
Tb588 O635 2.320 . S
Tb588 O636 2.552 . S
Tb588 O637 2.413 . S
Tb588 O639 2.362 . S
Tb588 O640 2.421 . S
Tb588 C652 2.833 . S
C589 C592 1.432 . S
C589 C593 1.414 . S
C589 N596 1.359 . S
C590 C592 1.417 . S
C590 C594 1.432 . S
C590 C602 1.410 . S
C591 C593 1.444 . S
C591 C594 1.317 . S
C591 H614 0.929 . S
C592 C589 1.432 . S
C592 C590 1.417 . S
C592 N600 1.360 . S
C593 C589 1.414 . S
C593 C591 1.444 . S
C593 C598 1.385 . S
C594 C590 1.432 . S
C594 C591 1.317 . S
C594 H606 0.930 . S
C595 C597 1.392 . S
C595 C598 1.370 . S
C595 H607 0.931 . S
N596 C589 1.359 . S
N596 C597 1.327 . S
N596 Tb599 2.600 . S
C597 C595 1.392 . S
C597 N596 1.327 . S
C597 H604 0.930 . S
C598 C593 1.385 . S
C598 C595 1.370 . S
C598 H617 0.930 . S
Tb599 N596 2.600 . S
Tb599 N600 2.660 . S
Tb599 O633 2.362 . S
Tb599 O634 2.421 . S
Tb599 O638 2.546 . S
Tb599 O639 2.610 . S
Tb599 O641 2.320 . S
Tb599 O642 2.552 . S
Tb599 O643 2.413 . S
Tb599 C663 2.833 . S
N600 C592 1.360 . S
N600 Tb599 2.660 . S
N600 C601 1.305 . S
C601 N600 1.305 . S
C601 C603 1.407 . S
C601 H608 0.930 . S
C602 C590 1.410 . S
C602 C603 1.345 . S
C602 H610 0.930 . S
C603 C601 1.407 . S
C603 C602 1.345 . S
C603 H605 0.930 . S
H604 C597 0.930 . S
H605 C603 0.930 . S
H606 C594 0.930 . S
H607 C595 0.931 . S
H608 C601 0.930 . S
H609 C623 0.930 . S
H610 C602 0.930 . S
H611 C629 0.930 . S
H612 C620 0.930 . S
H613 C627 0.931 . S
H614 C591 0.929 . S
H615 C621 0.930 . S
H616 C654 0.930 . S
H617 C598 0.930 . S
H618 C653 0.929 . S
N619 Tb588 2.660 . S
N619 C620 1.305 . S
N619 C624 1.360 . S
C620 H612 0.930 . S
C620 N619 1.305 . S
C620 C623 1.407 . S
C621 H615 0.930 . S
C621 C622 1.410 . S
C621 C623 1.345 . S
C622 C621 1.410 . S
C622 C624 1.417 . S
C622 C654 1.432 . S
C623 H609 0.930 . S
C623 C620 1.407 . S
C623 C621 1.345 . S
C624 N619 1.360 . S
C624 C622 1.417 . S
C624 C628 1.432 . S
H625 C630 0.930 . S
N626 Tb588 2.600 . S
N626 C628 1.359 . S
N626 C629 1.327 . S
C627 H613 0.931 . S
C627 C629 1.392 . S
C627 C630 1.370 . S
C628 C624 1.432 . S
C628 N626 1.359 . S
C628 C631 1.414 . S
C629 H611 0.930 . S
C629 N626 1.327 . S
C629 C627 1.392 . S
C630 H625 0.930 . S
C630 C627 1.370 . S
C630 C631 1.385 . S
C631 C628 1.414 . S
C631 C630 1.385 . S
C631 C653 1.444 . S
O632 Tb588 2.546 . S
O632 C652 1.251 . S
O633 Tb588 2.610 . S
O633 Tb599 2.362 . S
O633 C644 1.283 . S
O634 Tb599 2.421 . S
O634 C651 1.262 . S
O635 Tb588 2.320 . S
O635 C651 1.260 . S
O636 Tb588 2.552 . S
O636 C644 1.243 . S
O637 Tb588 2.413 . S
O637 C652 1.256 . S
O638 Tb599 2.546 . S
O638 C663 1.251 . S
O639 Tb588 2.362 . S
O639 Tb599 2.610 . S
O639 C655 1.283 . S
O640 Tb588 2.421 . S
O640 C662 1.262 . S
O641 Tb599 2.320 . S
O641 C662 1.260 . S
O642 Tb599 2.552 . S
O642 C655 1.243 . S
O643 Tb599 2.413 . S
O643 C663 1.256 . S
C644 O633 1.283 . S
C644 O636 1.243 . S
C645 C647 1.382 . S
C645 C649 1.393 . S
C645 C652 1.500 . S
C646 C647 1.400 . S
C646 C648 1.384 . S
C647 C645 1.382 . S
C647 C646 1.400 . S
C647 H664 0.930 . S
C648 C646 1.384 . S
C648 C650 1.392 . S
C648 H665 0.931 . S
C649 C645 1.393 . S
C649 C650 1.401 . S
C649 H666 0.930 . S
C650 C648 1.392 . S
C650 C649 1.401 . S
C650 H667 0.930 . S
C651 O634 1.262 . S
C651 O635 1.260 . S
C652 Tb588 2.833 . S
C652 O632 1.251 . S
C652 O637 1.256 . S
C652 C645 1.500 . S
C653 H618 0.929 . S
C653 C631 1.444 . S
C653 C654 1.317 . S
C654 H616 0.930 . S
C654 C622 1.432 . S
C654 C653 1.317 . S
C655 O639 1.283 . S
C655 O642 1.243 . S
C656 C657 1.382 . S
C656 C660 1.393 . S
C656 C663 1.500 . S
C657 C656 1.382 . S
C657 C658 1.400 . S
C657 H668 0.930 . S
C658 C657 1.400 . S
C658 C659 1.384 . S
C659 C658 1.384 . S
C659 C661 1.392 . S
C659 H669 0.931 . S
C660 C656 1.393 . S
C660 C661 1.401 . S
C660 H670 0.930 . S
C661 C659 1.392 . S
C661 C660 1.401 . S
C661 H671 0.930 . S
C662 O640 1.262 . S
C662 O641 1.260 . S
C663 Tb599 2.833 . S
C663 O638 1.251 . S
C663 O643 1.256 . S
C663 C656 1.500 . S
H664 C647 0.930 . S
H665 C648 0.931 . S
H666 C649 0.930 . S
H667 C650 0.930 . S
H668 C657 0.930 . S
H669 C659 0.931 . S
H670 C660 0.930 . S
H671 C661 0.930 . S
Tb672 N703 2.660 . S
Tb672 N710 2.600 . S
Tb672 O716 2.546 . S
Tb672 O717 2.610 . S
Tb672 O719 2.320 . S
Tb672 O720 2.552 . S
Tb672 O721 2.413 . S
Tb672 O723 2.362 . S
Tb672 O724 2.421 . S
Tb672 C736 2.833 . S
C673 C676 1.432 . S
C673 C677 1.414 . S
C673 N680 1.359 1_565 S
C674 C676 1.417 . S
C674 C678 1.432 . S
C674 C686 1.410 . S
C675 C677 1.444 . S
C675 C678 1.317 . S
C675 H698 0.929 . S
C676 C673 1.432 . S
C676 C674 1.417 . S
C676 N684 1.360 . S
C677 C673 1.414 . S
C677 C675 1.444 . S
C677 C682 1.385 . S
C678 C674 1.432 . S
C678 C675 1.317 . S
C678 H690 0.930 . S
C679 C681 1.392 1_565 S
C679 C682 1.370 . S
C679 H691 0.922 . S
N680 C673 1.359 1_545 S
N680 C681 1.327 . S
N680 Tb683 2.600 . S
C681 C679 1.392 1_545 S
C681 N680 1.327 . S
C681 H688 0.930 . S
C682 C677 1.385 . S
C682 C679 1.370 . S
C682 H701 0.930 . S
Tb683 N680 2.600 . S
Tb683 N684 2.660 1_545 S
Tb683 O717 2.362 . S
Tb683 O718 2.421 . S
Tb683 O722 2.546 1_545 S
Tb683 O723 2.610 . S
Tb683 O725 2.320 . S
Tb683 O726 2.552 . S
Tb683 O727 2.413 1_545 S
Tb683 C747 2.833 1_545 S
N684 C676 1.360 . S
N684 Tb683 2.660 1_565 S
N684 C685 1.305 . S
C685 N684 1.305 . S
C685 C687 1.407 . S
C685 H692 0.930 1_565 S
C686 C674 1.410 . S
C686 C687 1.345 . S
C686 H694 0.930 . S
C687 C685 1.407 . S
C687 C686 1.345 . S
C687 H689 0.890 1_455 S
H688 C681 0.930 . S
H689 C687 0.890 1_655 S
H690 C678 0.930 . S
H691 C679 0.922 . S
H692 C685 0.930 1_545 S
H693 C707 0.930 . S
H694 C686 0.930 . S
H695 C713 0.930 . S
H696 C704 0.930 . S
H697 C711 0.931 . S
H698 C675 0.929 . S
H699 C705 0.930 . S
H700 C738 0.930 . S
H701 C682 0.930 . S
H702 C737 0.929 . S
N703 Tb672 2.660 . S
N703 C704 1.305 . S
N703 C708 1.360 . S
C704 H696 0.930 . S
C704 N703 1.305 . S
C704 C707 1.407 . S
C705 H699 0.930 . S
C705 C706 1.410 . S
C705 C707 1.345 . S
C706 C705 1.410 . S
C706 C708 1.417 . S
C706 C738 1.432 . S
C707 H693 0.930 . S
C707 C704 1.407 . S
C707 C705 1.345 . S
C708 N703 1.360 . S
C708 C706 1.417 . S
C708 C712 1.432 . S
H709 C714 0.930 . S
N710 Tb672 2.600 . S
N710 C712 1.359 . S
N710 C713 1.327 . S
C711 H697 0.931 . S
C711 C713 1.392 . S
C711 C714 1.370 . S
C712 C708 1.432 . S
C712 N710 1.359 . S
C712 C715 1.414 . S
C713 H695 0.930 . S
C713 N710 1.327 . S
C713 C711 1.392 . S
C714 H709 0.930 . S
C714 C711 1.370 . S
C714 C715 1.385 . S
C715 C712 1.414 . S
C715 C714 1.385 . S
C715 C737 1.444 . S
O716 Tb672 2.546 . S
O716 C736 1.251 . S
O717 Tb672 2.610 . S
O717 Tb683 2.362 . S
O717 C728 1.283 . S
O718 Tb683 2.421 . S
O718 C735 1.262 . S
O719 Tb672 2.320 . S
O719 C735 1.260 . S
O720 Tb672 2.552 . S
O720 C728 1.243 . S
O721 Tb672 2.413 . S
O721 C736 1.256 . S
O722 Tb683 2.546 1_565 S
O722 C747 1.251 . S
O723 Tb672 2.362 . S
O723 Tb683 2.610 . S
O723 C739 1.283 . S
O724 Tb672 2.421 . S
O724 C746 1.262 . S
O725 Tb683 2.320 . S
O725 C746 1.260 . S
O726 Tb683 2.552 . S
O726 C739 1.243 . S
O727 Tb683 2.413 1_565 S
O727 C747 1.256 . S
C728 O717 1.283 . S
C728 O720 1.243 . S
C729 C731 1.382 . S
C729 C733 1.393 . S
C729 C736 1.500 . S
C730 C731 1.400 . S
C730 C732 1.384 . S
C731 C729 1.382 . S
C731 C730 1.400 . S
C731 H748 0.930 . S
C732 C730 1.384 . S
C732 C734 1.392 . S
C732 H749 0.931 . S
C733 C729 1.393 . S
C733 C734 1.401 . S
C733 H750 0.930 . S
C734 C732 1.392 . S
C734 C733 1.401 . S
C734 H751 0.930 . S
C735 O718 1.262 . S
C735 O719 1.260 . S
C736 Tb672 2.833 . S
C736 O716 1.251 . S
C736 O721 1.256 . S
C736 C729 1.500 . S
C737 H702 0.929 . S
C737 C715 1.444 . S
C737 C738 1.317 . S
C738 H700 0.930 . S
C738 C706 1.432 . S
C738 C737 1.317 . S
C739 O723 1.283 . S
C739 O726 1.243 . S
C740 C741 1.382 . S
C740 C744 1.393 . S
C740 C747 1.500 . S
C741 C740 1.382 . S
C741 C742 1.400 . S
C741 H752 0.930 . S
C742 C741 1.400 . S
C742 C743 1.384 . S
C743 C742 1.384 . S
C743 C745 1.392 . S
C743 H753 0.931 . S
C744 C740 1.393 . S
C744 C745 1.401 . S
C744 H754 0.930 . S
C745 C743 1.392 . S
C745 C744 1.401 . S
C745 H755 0.930 . S
C746 O724 1.262 . S
C746 O725 1.260 . S
C747 Tb683 2.833 1_565 S
C747 O722 1.251 . S
C747 O727 1.256 . S
C747 C740 1.500 . S
H748 C731 0.930 . S
H749 C732 0.931 . S
H750 C733 0.930 . S
H751 C734 0.930 . S
H752 C741 0.930 . S
H753 C743 0.931 . S
H754 C744 0.930 . S
H755 C745 0.930 . S
Tb756 N787 2.660 . S
Tb756 N794 2.600 . S
Tb756 O800 2.546 . S
Tb756 O801 2.610 . S
Tb756 O803 2.320 . S
Tb756 O804 2.552 . S
Tb756 O805 2.413 . S
Tb756 O807 2.362 . S
Tb756 O808 2.421 . S
Tb756 C820 2.833 . S
C757 C760 1.432 . S
C757 C761 1.414 . S
C757 N764 1.359 . S
C758 C760 1.417 . S
C758 C762 1.432 . S
C758 C770 1.410 . S
C759 C761 1.444 . S
C759 C762 1.317 . S
C759 H782 0.929 . S
C760 C757 1.432 . S
C760 C758 1.417 . S
C760 N768 1.360 . S
C761 C757 1.414 . S
C761 C759 1.444 . S
C761 C766 1.385 . S
C762 C758 1.432 . S
C762 C759 1.317 . S
C762 H774 0.930 . S
C763 C765 1.392 . S
C763 C766 1.370 . S
C763 H775 0.931 . S
N764 C757 1.359 . S
N764 C765 1.327 . S
N764 Tb767 2.600 . S
C765 C763 1.392 . S
C765 N764 1.327 . S
C765 H772 0.930 . S
C766 C761 1.385 . S
C766 C763 1.370 . S
C766 H785 0.930 . S
Tb767 N764 2.600 . S
Tb767 N768 2.660 . S
Tb767 O801 2.362 . S
Tb767 O802 2.421 . S
Tb767 O806 2.546 . S
Tb767 O807 2.610 . S
Tb767 O809 2.320 . S
Tb767 O810 2.552 . S
Tb767 O811 2.413 . S
Tb767 C831 2.833 . S
N768 C760 1.360 . S
N768 Tb767 2.660 . S
N768 C769 1.305 . S
C769 N768 1.305 . S
C769 C771 1.407 . S
C769 H776 0.930 . S
C770 C758 1.410 . S
C770 C771 1.345 . S
C770 H778 0.930 . S
C771 C769 1.407 . S
C771 C770 1.345 . S
C771 H773 0.930 . S
H772 C765 0.930 . S
H773 C771 0.930 . S
H774 C762 0.930 . S
H775 C763 0.931 . S
H776 C769 0.930 . S
H777 C791 0.930 . S
H778 C770 0.930 . S
H779 C797 0.930 . S
H780 C788 0.930 . S
H781 C795 0.931 . S
H782 C759 0.929 . S
H783 C789 0.930 . S
H784 C822 0.930 . S
H785 C766 0.930 . S
H786 C821 0.929 . S
N787 Tb756 2.660 . S
N787 C788 1.305 . S
N787 C792 1.360 . S
C788 H780 0.930 . S
C788 N787 1.305 . S
C788 C791 1.407 . S
C789 H783 0.930 . S
C789 C790 1.410 . S
C789 C791 1.345 . S
C790 C789 1.410 . S
C790 C792 1.417 . S
C790 C822 1.432 . S
C791 H777 0.930 . S
C791 C788 1.407 . S
C791 C789 1.345 . S
C792 N787 1.360 . S
C792 C790 1.417 . S
C792 C796 1.432 . S
H793 C798 0.930 . S
N794 Tb756 2.600 . S
N794 C796 1.359 . S
N794 C797 1.327 . S
C795 H781 0.931 . S
C795 C797 1.392 . S
C795 C798 1.370 . S
C796 C792 1.432 . S
C796 N794 1.359 . S
C796 C799 1.414 . S
C797 H779 0.930 . S
C797 N794 1.327 . S
C797 C795 1.392 . S
C798 H793 0.930 . S
C798 C795 1.370 . S
C798 C799 1.385 . S
C799 C796 1.414 . S
C799 C798 1.385 . S
C799 C821 1.444 . S
O800 Tb756 2.546 . S
O800 C820 1.251 . S
O801 Tb756 2.610 . S
O801 Tb767 2.362 . S
O801 C812 1.283 . S
O802 Tb767 2.421 . S
O802 C819 1.262 . S
O803 Tb756 2.320 . S
O803 C819 1.260 . S
O804 Tb756 2.552 . S
O804 C812 1.243 . S
O805 Tb756 2.413 . S
O805 C820 1.256 . S
O806 Tb767 2.546 . S
O806 C831 1.251 . S
O807 Tb756 2.362 . S
O807 Tb767 2.610 . S
O807 C823 1.283 . S
O808 Tb756 2.421 . S
O808 C830 1.262 . S
O809 Tb767 2.320 . S
O809 C830 1.260 . S
O810 Tb767 2.552 . S
O810 C823 1.243 . S
O811 Tb767 2.413 . S
O811 C831 1.256 . S
C812 O801 1.283 . S
C812 O804 1.243 . S
C813 C815 1.382 . S
C813 C817 1.393 . S
C813 C820 1.500 . S
C814 C815 1.400 . S
C814 C816 1.384 . S
C815 C813 1.382 . S
C815 C814 1.400 . S
C815 H832 0.930 . S
C816 C814 1.384 . S
C816 C818 1.392 . S
C816 H833 0.931 . S
C817 C813 1.393 . S
C817 C818 1.401 . S
C817 H834 0.930 . S
C818 C816 1.392 . S
C818 C817 1.401 . S
C818 H835 0.930 . S
C819 O802 1.262 . S
C819 O803 1.260 . S
C820 Tb756 2.833 . S
C820 O800 1.251 . S
C820 O805 1.256 . S
C820 C813 1.500 . S
C821 H786 0.929 . S
C821 C799 1.444 . S
C821 C822 1.317 . S
C822 H784 0.930 . S
C822 C790 1.432 . S
C822 C821 1.317 . S
C823 O807 1.283 . S
C823 O810 1.243 . S
C824 C825 1.382 . S
C824 C828 1.393 . S
C824 C831 1.500 . S
C825 C824 1.382 . S
C825 C826 1.400 . S
C825 H836 0.930 . S
C826 C825 1.400 . S
C826 C827 1.384 . S
C827 C826 1.384 . S
C827 C829 1.392 . S
C827 H837 0.931 . S
C828 C824 1.393 . S
C828 C829 1.401 . S
C828 H838 0.930 . S
C829 C827 1.392 . S
C829 C828 1.401 . S
C829 H839 0.930 . S
C830 O808 1.262 . S
C830 O809 1.260 . S
C831 Tb767 2.833 . S
C831 O806 1.251 . S
C831 O811 1.256 . S
C831 C824 1.500 . S
H832 C815 0.930 . S
H833 C816 0.931 . S
H834 C817 0.930 . S
H835 C818 0.930 . S
H836 C825 0.930 . S
H837 C827 0.931 . S
H838 C828 0.930 . S
H839 C829 0.930 . S
Tb840 N871 2.660 . S
Tb840 N878 2.600 . S
Tb840 O884 2.546 . S
Tb840 O885 2.610 . S
Tb840 O887 2.320 . S
Tb840 O888 2.552 . S
Tb840 O889 2.413 . S
Tb840 O891 2.362 . S
Tb840 O892 2.421 . S
Tb840 C904 2.833 . S
C841 C844 1.432 . S
C841 C845 1.414 . S
C841 N848 1.359 . S
C842 C844 1.417 . S
C842 C846 1.432 . S
C842 C854 1.410 1_545 S
C843 C845 1.444 . S
C843 C846 1.317 . S
C843 H866 0.929 . S
C844 C841 1.432 . S
C844 C842 1.417 . S
C844 N852 1.360 . S
C845 C841 1.414 . S
C845 C843 1.444 . S
C845 C850 1.385 . S
C846 C842 1.432 . S
C846 C843 1.317 . S
C846 H858 0.930 . S
C847 C849 1.392 . S
C847 C850 1.370 . S
C847 H859 0.931 . S
N848 C841 1.359 . S
N848 C849 1.327 . S
N848 Tb851 2.600 1_556 S
C849 C847 1.392 . S
C849 N848 1.327 . S
C849 H856 0.930 1_556 S
C850 C845 1.385 . S
C850 C847 1.370 . S
C850 H869 0.930 . S
Tb851 N848 2.600 1_554 S
Tb851 N852 2.660 1_554 S
Tb851 O885 2.362 . S
Tb851 O886 2.421 . S
Tb851 O890 2.546 1_554 S
Tb851 O891 2.610 . S
Tb851 O893 2.321 1_554 S
Tb851 O894 2.552 . S
Tb851 O895 2.413 1_554 S
Tb851 C915 2.833 1_554 S
N852 C844 1.360 . S
N852 Tb851 2.660 1_556 S
N852 C853 1.305 . S
C853 N852 1.305 . S
C853 C855 1.407 1_545 S
C853 H860 0.930 . S
C854 C842 1.410 1_565 S
C854 C855 1.345 . S
C854 H862 0.930 . S
C855 C853 1.407 1_565 S
C855 C854 1.345 . S
C855 H857 0.930 . S
H856 C849 0.930 1_554 S
H857 C855 0.930 . S
H858 C846 0.930 . S
H859 C847 0.931 . S
H860 C853 0.930 . S
H861 C875 0.930 . S
H862 C854 0.930 . S
H863 C881 0.930 1_565 S
H864 C872 0.930 . S
H865 C879 0.931 . S
H866 C843 0.929 . S
H867 C873 0.930 . S
H868 C906 0.930 . S
H869 C850 0.930 . S
H870 C905 0.929 . S
N871 Tb840 2.660 . S
N871 C872 1.305 . S
N871 C876 1.360 . S
C872 H864 0.930 . S
C872 N871 1.305 . S
C872 C875 1.407 . S
C873 H867 0.930 . S
C873 C874 1.410 . S
C873 C875 1.345 . S
C874 C873 1.410 . S
C874 C876 1.417 . S
C874 C906 1.432 . S
C875 H861 0.930 . S
C875 C872 1.407 . S
C875 C873 1.345 . S
C876 N871 1.360 . S
C876 C874 1.417 . S
C876 C880 1.432 . S
H877 C882 0.919 1_565 S
N878 Tb840 2.600 . S
N878 C880 1.359 . S
N878 C881 1.327 . S
C879 H865 0.931 . S
C879 C881 1.392 1_565 S
C879 C882 1.370 1_565 S
C880 C876 1.432 . S
C880 N878 1.359 . S
C880 C883 1.414 . S
C881 H863 0.930 1_545 S
C881 N878 1.327 . S
C881 C879 1.392 1_545 S
C882 H877 0.919 1_545 S
C882 C879 1.370 1_545 S
C882 C883 1.385 . S
C883 C880 1.414 . S
C883 C882 1.385 . S
C883 C905 1.444 . S
O884 Tb840 2.546 . S
O884 C904 1.251 . S
O885 Tb840 2.610 . S
O885 Tb851 2.362 . S
O885 C896 1.283 . S
O886 Tb851 2.421 . S
O886 C903 1.262 . S
O887 Tb840 2.320 . S
O887 C903 1.260 . S
O888 Tb840 2.552 . S
O888 C896 1.243 . S
O889 Tb840 2.413 . S
O889 C904 1.256 . S
O890 Tb851 2.546 1_556 S
O890 C915 1.251 . S
O891 Tb840 2.362 . S
O891 Tb851 2.610 . S
O891 C907 1.283 . S
O892 Tb840 2.421 . S
O892 C914 1.262 . S
O893 Tb851 2.321 1_556 S
O893 C914 1.254 1_556 S
O894 Tb851 2.552 . S
O894 C907 1.243 . S
O895 Tb851 2.413 1_556 S
O895 C915 1.256 . S
C896 O885 1.283 . S
C896 O888 1.243 . S
C897 C899 1.382 . S
C897 C901 1.393 . S
C897 C904 1.500 . S
C898 C899 1.400 . S
C898 C900 1.384 . S
C899 C897 1.382 . S
C899 C898 1.400 . S
C899 H916 0.930 . S
C900 C898 1.384 . S
C900 C902 1.405 . S
C900 H917 0.931 . S
C901 C897 1.393 . S
C901 C902 1.407 . S
C901 H918 0.930 1_545 S
C902 C900 1.405 . S
C902 C901 1.407 . S
C902 H919 0.911 1_545 S
C903 O886 1.262 . S
C903 O887 1.260 . S
C904 Tb840 2.833 . S
C904 O884 1.251 . S
C904 O889 1.256 . S
C904 C897 1.500 . S
C905 H870 0.929 . S
C905 C883 1.444 . S
C905 C906 1.317 . S
C906 H868 0.930 . S
C906 C874 1.432 . S
C906 C905 1.317 . S
C907 O891 1.283 . S
C907 O894 1.243 . S
C908 C909 1.382 . S
C908 C912 1.393 . S
C908 C915 1.500 . S
C909 C908 1.382 . S
C909 C910 1.400 . S
C909 H920 0.930 . S
C910 C909 1.400 . S
C910 C911 1.384 . S
C911 C910 1.384 . S
C911 C913 1.392 . S
C911 H921 0.931 . S
C912 C908 1.393 . S
C912 C913 1.401 . S
C912 H922 0.930 . S
C913 C911 1.392 . S
C913 C912 1.401 . S
C913 H923 0.930 . S
C914 O892 1.262 . S
C914 O893 1.254 1_554 S
C915 Tb851 2.833 1_556 S
C915 O890 1.251 . S
C915 O895 1.256 . S
C915 C908 1.500 . S
H916 C899 0.930 . S
H917 C900 0.931 . S
H918 C901 0.930 1_565 S
H919 C902 0.911 1_565 S
H920 C909 0.930 . S
H921 C911 0.931 . S
H922 C912 0.930 . S
H923 C913 0.930 . S
Tb924 N955 2.660 . S
Tb924 N962 2.600 . S
Tb924 O968 2.546 . S
Tb924 O969 2.610 . S
Tb924 O971 2.320 . S
Tb924 O972 2.552 . S
Tb924 O973 2.413 . S
Tb924 O975 2.362 . S
Tb924 O976 2.421 . S
Tb924 C988 2.833 . S
C925 C928 1.432 . S
C925 C929 1.414 . S
C925 N932 1.359 . S
C926 C928 1.417 . S
C926 C930 1.432 . S
C926 C938 1.410 . S
C927 C929 1.444 . S
C927 C930 1.317 . S
C927 H950 0.929 . S
C928 C925 1.432 . S
C928 C926 1.417 . S
C928 N936 1.360 . S
C929 C925 1.414 . S
C929 C927 1.444 . S
C929 C934 1.385 . S
C930 C926 1.432 . S
C930 C927 1.317 . S
C930 H942 0.930 . S
C931 C933 1.392 . S
C931 C934 1.370 . S
C931 H943 0.931 . S
N932 C925 1.359 . S
N932 C933 1.327 . S
N932 Tb935 2.600 . S
C933 C931 1.392 . S
C933 N932 1.327 . S
C933 H940 0.930 . S
C934 C929 1.385 . S
C934 C931 1.370 . S
C934 H953 0.930 . S
Tb935 N932 2.600 . S
Tb935 N936 2.660 . S
Tb935 O969 2.362 . S
Tb935 O970 2.421 . S
Tb935 O974 2.546 . S
Tb935 O975 2.610 . S
Tb935 O977 2.320 . S
Tb935 O978 2.552 . S
Tb935 O979 2.413 . S
Tb935 C999 2.833 . S
N936 C928 1.360 . S
N936 Tb935 2.660 . S
N936 C937 1.305 . S
C937 N936 1.305 . S
C937 C939 1.407 . S
C937 H944 0.930 . S
C938 C926 1.410 . S
C938 C939 1.345 . S
C938 H946 0.930 . S
C939 C937 1.407 . S
C939 C938 1.345 . S
C939 H941 0.930 . S
H940 C933 0.930 . S
H941 C939 0.930 . S
H942 C930 0.930 . S
H943 C931 0.931 . S
H944 C937 0.930 . S
H945 C959 0.930 . S
H946 C938 0.930 . S
H947 C965 0.930 . S
H948 C956 0.930 . S
H949 C963 0.931 . S
H950 C927 0.929 . S
H951 C957 0.930 . S
H952 C990 0.930 . S
H953 C934 0.930 . S
H954 C989 0.929 . S
N955 Tb924 2.660 . S
N955 C956 1.305 . S
N955 C960 1.360 . S
C956 H948 0.930 . S
C956 N955 1.305 . S
C956 C959 1.407 . S
C957 H951 0.930 . S
C957 C958 1.410 . S
C957 C959 1.345 . S
C958 C957 1.410 . S
C958 C960 1.417 . S
C958 C990 1.432 . S
C959 H945 0.930 . S
C959 C956 1.407 . S
C959 C957 1.345 . S
C960 N955 1.360 . S
C960 C958 1.417 . S
C960 C964 1.432 . S
H961 C966 0.930 . S
N962 Tb924 2.600 . S
N962 C964 1.359 . S
N962 C965 1.327 . S
C963 H949 0.931 . S
C963 C965 1.392 . S
C963 C966 1.370 . S
C964 C960 1.432 . S
C964 N962 1.359 . S
C964 C967 1.414 . S
C965 H947 0.930 . S
C965 N962 1.327 . S
C965 C963 1.392 . S
C966 H961 0.930 . S
C966 C963 1.370 . S
C966 C967 1.385 . S
C967 C964 1.414 . S
C967 C966 1.385 . S
C967 C989 1.444 . S
O968 Tb924 2.546 . S
O968 C988 1.251 . S
O969 Tb924 2.610 . S
O969 Tb935 2.362 . S
O969 C980 1.283 . S
O970 Tb935 2.421 . S
O970 C987 1.262 . S
O971 Tb924 2.320 . S
O971 C987 1.260 . S
O972 Tb924 2.552 . S
O972 C980 1.243 . S
O973 Tb924 2.413 . S
O973 C988 1.256 . S
O974 Tb935 2.546 . S
O974 C999 1.251 . S
O975 Tb924 2.362 . S
O975 Tb935 2.610 . S
O975 C991 1.283 . S
O976 Tb924 2.421 . S
O976 C998 1.262 . S
O977 Tb935 2.320 . S
O977 C998 1.260 . S
O978 Tb935 2.552 . S
O978 C991 1.243 . S
O979 Tb935 2.413 . S
O979 C999 1.256 . S
C980 O969 1.283 . S
C980 O972 1.243 . S
C981 C983 1.382 . S
C981 C985 1.393 . S
C981 C988 1.500 . S
C982 C983 1.400 . S
C982 C984 1.384 . S
C983 C981 1.382 . S
C983 C982 1.400 . S
C983 H1000 0.930 . S
C984 C982 1.384 . S
C984 C986 1.392 . S
C984 H1001 0.931 . S
C985 C981 1.393 . S
C985 C986 1.401 . S
C985 H1002 0.930 . S
C986 C984 1.392 . S
C986 C985 1.401 . S
C986 H1003 0.930 . S
C987 O970 1.262 . S
C987 O971 1.260 . S
C988 Tb924 2.833 . S
C988 O968 1.251 . S
C988 O973 1.256 . S
C988 C981 1.500 . S
C989 H954 0.929 . S
C989 C967 1.444 . S
C989 C990 1.317 . S
C990 H952 0.930 . S
C990 C958 1.432 . S
C990 C989 1.317 . S
C991 O975 1.283 . S
C991 O978 1.243 . S
C992 C993 1.382 . S
C992 C996 1.393 . S
C992 C999 1.500 . S
C993 C992 1.382 . S
C993 C994 1.400 . S
C993 H1004 0.930 . S
C994 C993 1.400 . S
C994 C995 1.384 . S
C995 C994 1.384 . S
C995 C997 1.392 . S
C995 H1005 0.931 . S
C996 C992 1.393 . S
C996 C997 1.401 . S
C996 H1006 0.930 . S
C997 C995 1.392 . S
C997 C996 1.401 . S
C997 H1007 0.930 . S
C998 O976 1.262 . S
C998 O977 1.260 . S
C999 Tb935 2.833 . S
C999 O974 1.251 . S
C999 O979 1.256 . S
C999 C992 1.500 . S
H1000 C983 0.930 . S
H1001 C984 0.931 . S
H1002 C985 0.930 . S
H1003 C986 0.930 . S
H1004 C993 0.930 . S
H1005 C995 0.931 . S
H1006 C996 0.930 . S
H1007 C997 0.930 . S
Tb1008 N1039 2.660 . S
Tb1008 N1046 2.600 . S
Tb1008 O1052 2.546 . S
Tb1008 O1053 2.610 . S
Tb1008 O1055 2.320 . S
Tb1008 O1056 2.552 1_554 S
Tb1008 O1057 2.413 . S
Tb1008 O1059 2.362 . S
Tb1008 O1060 2.421 . S
Tb1008 C1072 2.833 . S
C1009 C1012 1.432 . S
C1009 C1013 1.414 . S
C1009 N1016 1.359 . S
C1010 C1012 1.417 . S
C1010 C1014 1.432 . S
C1010 C1022 1.410 . S
C1011 C1013 1.444 . S
C1011 C1014 1.317 . S
C1011 H1034 0.929 . S
C1012 C1009 1.432 . S
C1012 C1010 1.417 . S
C1012 N1020 1.360 . S
C1013 C1009 1.414 . S
C1013 C1011 1.444 . S
C1013 C1018 1.385 . S
C1014 C1010 1.432 . S
C1014 C1011 1.317 . S
C1014 H1026 0.930 . S
C1015 C1017 1.392 . S
C1015 C1018 1.370 . S
C1015 H1027 0.931 . S
N1016 C1009 1.359 . S
N1016 C1017 1.327 . S
N1016 Tb1019 2.600 1_556 S
C1017 C1015 1.392 . S
C1017 N1016 1.327 . S
C1017 H1024 0.930 . S
C1018 C1013 1.385 . S
C1018 C1015 1.370 . S
C1018 H1037 0.930 . S
Tb1019 N1016 2.600 1_554 S
Tb1019 N1020 2.660 1_554 S
Tb1019 O1053 2.362 . S
Tb1019 O1054 2.421 . S
Tb1019 O1058 2.546 . S
Tb1019 O1059 2.610 . S
Tb1019 O1061 2.320 . S
Tb1019 O1062 2.552 . S
Tb1019 O1063 2.413 . S
Tb1019 C1083 2.833 . S
N1020 C1012 1.360 . S
N1020 Tb1019 2.660 1_556 S
N1020 C1021 1.305 . S
C1021 N1020 1.305 . S
C1021 C1023 1.407 . S
C1021 H1028 0.930 . S
C1022 C1010 1.410 . S
C1022 C1023 1.345 . S
C1022 H1030 0.930 . S
C1023 C1021 1.407 . S
C1023 C1022 1.345 . S
C1023 H1025 0.930 . S
H1024 C1017 0.930 . S
H1025 C1023 0.930 . S
H1026 C1014 0.930 . S
H1027 C1015 0.931 . S
H1028 C1021 0.930 . S
H1029 C1043 0.930 . S
H1030 C1022 0.930 . S
H1031 C1049 0.930 . S
H1032 C1040 0.930 . S
H1033 C1047 0.931 . S
H1034 C1011 0.929 . S
H1035 C1041 0.930 . S
H1036 C1074 0.930 . S
H1037 C1018 0.930 . S
H1038 C1073 0.929 . S
N1039 Tb1008 2.660 . S
N1039 C1040 1.305 . S
N1039 C1044 1.360 . S
C1040 H1032 0.930 . S
C1040 N1039 1.305 . S
C1040 C1043 1.407 . S
C1041 H1035 0.930 . S
C1041 C1042 1.410 . S
C1041 C1043 1.345 . S
C1042 C1041 1.410 . S
C1042 C1044 1.417 . S
C1042 C1074 1.432 . S
C1043 H1029 0.930 . S
C1043 C1040 1.407 . S
C1043 C1041 1.345 . S
C1044 N1039 1.360 . S
C1044 C1042 1.417 . S
C1044 C1048 1.432 . S
H1045 C1050 0.930 . S
N1046 Tb1008 2.600 . S
N1046 C1048 1.359 . S
N1046 C1049 1.327 . S
C1047 H1033 0.931 . S
C1047 C1049 1.392 . S
C1047 C1050 1.370 . S
C1048 C1044 1.432 . S
C1048 N1046 1.359 . S
C1048 C1051 1.414 . S
C1049 H1031 0.930 . S
C1049 N1046 1.327 . S
C1049 C1047 1.392 . S
C1050 H1045 0.930 . S
C1050 C1047 1.370 . S
C1050 C1051 1.385 . S
C1051 C1048 1.414 . S
C1051 C1050 1.385 . S
C1051 C1073 1.444 . S
O1052 Tb1008 2.546 . S
O1052 C1072 1.251 . S
O1053 Tb1008 2.610 . S
O1053 Tb1019 2.362 . S
O1053 C1064 1.283 1_554 S
O1054 Tb1019 2.421 . S
O1054 C1071 1.262 . S
O1055 Tb1008 2.320 . S
O1055 C1071 1.260 . S
O1056 Tb1008 2.552 1_556 S
O1056 C1064 1.243 . S
O1057 Tb1008 2.413 . S
O1057 C1072 1.256 . S
O1058 Tb1019 2.546 . S
O1058 C1083 1.251 . S
O1059 Tb1008 2.362 . S
O1059 Tb1019 2.610 . S
O1059 C1075 1.283 . S
O1060 Tb1008 2.421 . S
O1060 C1082 1.262 . S
O1061 Tb1019 2.320 . S
O1061 C1082 1.260 . S
O1062 Tb1019 2.552 . S
O1062 C1075 1.243 . S
O1063 Tb1019 2.413 . S
O1063 C1083 1.256 . S
C1064 O1053 1.283 1_556 S
C1064 O1056 1.243 . S
C1065 C1067 1.382 . S
C1065 C1069 1.393 . S
C1065 C1072 1.500 . S
C1066 C1067 1.400 . S
C1066 C1068 1.384 . S
C1067 C1065 1.382 . S
C1067 C1066 1.400 . S
C1067 H1084 0.930 . S
C1068 C1066 1.384 . S
C1068 C1070 1.392 . S
C1068 H1085 0.931 . S
C1069 C1065 1.393 . S
C1069 C1070 1.401 . S
C1069 H1086 0.930 . S
C1070 C1068 1.392 . S
C1070 C1069 1.401 . S
C1070 H1087 0.930 . S
C1071 O1054 1.262 . S
C1071 O1055 1.260 . S
C1072 Tb1008 2.833 . S
C1072 O1052 1.251 . S
C1072 O1057 1.256 . S
C1072 C1065 1.500 . S
C1073 H1038 0.929 . S
C1073 C1051 1.444 . S
C1073 C1074 1.317 . S
C1074 H1036 0.930 . S
C1074 C1042 1.432 . S
C1074 C1073 1.317 . S
C1075 O1059 1.283 . S
C1075 O1062 1.243 . S
C1076 C1077 1.382 . S
C1076 C1080 1.393 . S
C1076 C1083 1.500 . S
C1077 C1076 1.382 . S
C1077 C1078 1.400 . S
C1077 H1088 0.930 . S
C1078 C1077 1.400 . S
C1078 C1079 1.384 . S
C1079 C1078 1.384 . S
C1079 C1081 1.392 . S
C1079 H1089 0.931 . S
C1080 C1076 1.393 . S
C1080 C1081 1.401 . S
C1080 H1090 0.930 . S
C1081 C1079 1.392 . S
C1081 C1080 1.401 . S
C1081 H1091 0.930 . S
C1082 O1060 1.262 . S
C1082 O1061 1.260 . S
C1083 Tb1019 2.833 . S
C1083 O1058 1.251 . S
C1083 O1063 1.256 . S
C1083 C1076 1.500 . S
H1084 C1067 0.930 . S
H1085 C1068 0.931 . S
H1086 C1069 0.930 . S
H1087 C1070 0.930 . S
H1088 C1077 0.930 . S
H1089 C1079 0.931 . S
H1090 C1080 0.930 . S
H1091 C1081 0.930 . S
Tb1092 N1123 2.660 . S
Tb1092 N1130 2.600 . S
Tb1092 O1136 2.546 . S
Tb1092 O1137 2.610 . S
Tb1092 O1139 2.320 . S
Tb1092 O1140 2.552 . S
Tb1092 O1141 2.413 . S
Tb1092 O1143 2.362 . S
Tb1092 O1144 2.421 . S
Tb1092 C1156 2.833 . S
C1093 C1096 1.432 . S
C1093 C1097 1.414 . S
C1093 N1100 1.359 . S
C1094 C1096 1.417 . S
C1094 C1098 1.432 . S
C1094 C1106 1.410 . S
C1095 C1097 1.444 . S
C1095 C1098 1.317 . S
C1095 H1118 0.929 . S
C1096 C1093 1.432 . S
C1096 C1094 1.417 . S
C1096 N1104 1.360 . S
C1097 C1093 1.414 . S
C1097 C1095 1.444 . S
C1097 C1102 1.385 . S
C1098 C1094 1.432 . S
C1098 C1095 1.317 . S
C1098 H1110 0.930 . S
C1099 C1101 1.392 . S
C1099 C1102 1.370 . S
C1099 H1111 0.931 . S
N1100 C1093 1.359 . S
N1100 C1101 1.327 . S
N1100 Tb1103 2.600 . S
C1101 C1099 1.392 . S
C1101 N1100 1.327 . S
C1101 H1108 0.930 . S
C1102 C1097 1.385 . S
C1102 C1099 1.370 . S
C1102 H1121 0.930 . S
Tb1103 N1100 2.600 . S
Tb1103 N1104 2.660 . S
Tb1103 O1137 2.362 . S
Tb1103 O1138 2.421 . S
Tb1103 O1142 2.546 . S
Tb1103 O1143 2.610 . S
Tb1103 O1145 2.320 . S
Tb1103 O1146 2.552 . S
Tb1103 O1147 2.413 . S
Tb1103 C1167 2.833 . S
N1104 C1096 1.360 . S
N1104 Tb1103 2.660 . S
N1104 C1105 1.305 . S
C1105 N1104 1.305 . S
C1105 C1107 1.407 . S
C1105 H1112 0.930 . S
C1106 C1094 1.410 . S
C1106 C1107 1.345 . S
C1106 H1114 0.930 . S
C1107 C1105 1.407 . S
C1107 C1106 1.345 . S
C1107 H1109 0.930 . S
H1108 C1101 0.930 . S
H1109 C1107 0.930 . S
H1110 C1098 0.930 . S
H1111 C1099 0.931 . S
H1112 C1105 0.930 . S
H1113 C1127 0.930 . S
H1114 C1106 0.930 . S
H1115 C1133 0.930 . S
H1116 C1124 0.930 . S
H1117 C1131 0.931 . S
H1118 C1095 0.929 . S
H1119 C1125 0.930 . S
H1120 C1158 0.930 . S
H1121 C1102 0.930 . S
H1122 C1157 0.929 . S
N1123 Tb1092 2.660 . S
N1123 C1124 1.305 . S
N1123 C1128 1.360 . S
C1124 H1116 0.930 . S
C1124 N1123 1.305 . S
C1124 C1127 1.407 . S
C1125 H1119 0.930 . S
C1125 C1126 1.410 . S
C1125 C1127 1.345 . S
C1126 C1125 1.410 . S
C1126 C1128 1.417 . S
C1126 C1158 1.432 . S
C1127 H1113 0.930 . S
C1127 C1124 1.407 . S
C1127 C1125 1.345 . S
C1128 N1123 1.360 . S
C1128 C1126 1.417 . S
C1128 C1132 1.432 . S
H1129 C1134 0.930 . S
N1130 Tb1092 2.600 . S
N1130 C1132 1.359 . S
N1130 C1133 1.327 . S
C1131 H1117 0.931 . S
C1131 C1133 1.392 . S
C1131 C1134 1.370 . S
C1132 C1128 1.432 . S
C1132 N1130 1.359 . S
C1132 C1135 1.414 . S
C1133 H1115 0.930 . S
C1133 N1130 1.327 . S
C1133 C1131 1.392 . S
C1134 H1129 0.930 . S
C1134 C1131 1.370 . S
C1134 C1135 1.385 . S
C1135 C1132 1.414 . S
C1135 C1134 1.385 . S
C1135 C1157 1.444 . S
O1136 Tb1092 2.546 . S
O1136 C1156 1.251 . S
O1137 Tb1092 2.610 . S
O1137 Tb1103 2.362 . S
O1137 C1148 1.283 . S
O1138 Tb1103 2.421 . S
O1138 C1155 1.262 . S
O1139 Tb1092 2.320 . S
O1139 C1155 1.260 . S
O1140 Tb1092 2.552 . S
O1140 C1148 1.243 . S
O1141 Tb1092 2.413 . S
O1141 C1156 1.256 . S
O1142 Tb1103 2.546 . S
O1142 C1167 1.251 . S
O1143 Tb1092 2.362 . S
O1143 Tb1103 2.610 . S
O1143 C1159 1.283 . S
O1144 Tb1092 2.421 . S
O1144 C1166 1.262 . S
O1145 Tb1103 2.320 . S
O1145 C1166 1.260 . S
O1146 Tb1103 2.552 . S
O1146 C1159 1.243 . S
O1147 Tb1103 2.413 . S
O1147 C1167 1.256 . S
C1148 O1137 1.283 . S
C1148 O1140 1.243 . S
C1149 C1151 1.382 . S
C1149 C1153 1.393 . S
C1149 C1156 1.500 . S
C1150 C1151 1.400 . S
C1150 C1152 1.384 . S
C1151 C1149 1.382 . S
C1151 C1150 1.400 . S
C1151 H1168 0.930 . S
C1152 C1150 1.384 . S
C1152 C1154 1.392 . S
C1152 H1169 0.931 . S
C1153 C1149 1.393 . S
C1153 C1154 1.401 . S
C1153 H1170 0.930 . S
C1154 C1152 1.392 . S
C1154 C1153 1.401 . S
C1154 H1171 0.930 . S
C1155 O1138 1.262 . S
C1155 O1139 1.260 . S
C1156 Tb1092 2.833 . S
C1156 O1136 1.251 . S
C1156 O1141 1.256 . S
C1156 C1149 1.500 . S
C1157 H1122 0.929 . S
C1157 C1135 1.444 . S
C1157 C1158 1.317 . S
C1158 H1120 0.930 . S
C1158 C1126 1.432 . S
C1158 C1157 1.317 . S
C1159 O1143 1.283 . S
C1159 O1146 1.243 . S
C1160 C1161 1.382 . S
C1160 C1164 1.393 . S
C1160 C1167 1.500 . S
C1161 C1160 1.382 . S
C1161 C1162 1.400 . S
C1161 H1172 0.930 . S
C1162 C1161 1.400 . S
C1162 C1163 1.384 . S
C1163 C1162 1.384 . S
C1163 C1165 1.392 . S
C1163 H1173 0.931 . S
C1164 C1160 1.393 . S
C1164 C1165 1.401 . S
C1164 H1174 0.930 . S
C1165 C1163 1.392 . S
C1165 C1164 1.401 . S
C1165 H1175 0.930 . S
C1166 O1144 1.262 . S
C1166 O1145 1.260 . S
C1167 Tb1103 2.833 . S
C1167 O1142 1.251 . S
C1167 O1147 1.256 . S
C1167 C1160 1.500 . S
H1168 C1151 0.930 . S
H1169 C1152 0.931 . S
H1170 C1153 0.930 . S
H1171 C1154 0.930 . S
H1172 C1161 0.930 . S
H1173 C1163 0.931 . S
H1174 C1164 0.930 . S
H1175 C1165 0.930 . S
Tb1176 N1207 2.660 . S
Tb1176 N1214 2.600 . S
Tb1176 O1220 2.546 . S
Tb1176 O1221 2.610 . S
Tb1176 O1223 2.320 . S
Tb1176 O1224 2.552 . S
Tb1176 O1225 2.413 . S
Tb1176 O1227 2.362 . S
Tb1176 O1228 2.421 . S
Tb1176 C1240 2.833 . S
C1177 C1180 1.432 . S
C1177 C1181 1.414 1_455 S
C1177 N1184 1.359 . S
C1178 C1180 1.417 1_655 S
C1178 C1182 1.432 . S
C1178 C1190 1.410 . S
C1179 C1181 1.444 . S
C1179 C1182 1.317 . S
C1179 H1202 0.929 . S
C1180 C1177 1.432 . S
C1180 C1178 1.417 1_455 S
C1180 N1188 1.360 . S
C1181 C1177 1.414 1_655 S
C1181 C1179 1.444 . S
C1181 C1186 1.379 . S
C1182 C1178 1.432 . S
C1182 C1179 1.317 . S
C1182 H1194 0.930 . S
C1183 C1185 1.392 . S
C1183 C1186 1.333 1_455 S
C1183 H1195 0.931 . S
N1184 C1177 1.359 . S
N1184 C1185 1.327 . S
N1184 Tb1187 2.600 . S
C1185 C1183 1.392 . S
C1185 N1184 1.327 . S
C1185 H1192 0.930 . S
C1186 C1181 1.379 . S
C1186 C1183 1.333 1_655 S
C1186 H1205 0.973 . S
Tb1187 N1184 2.600 . S
Tb1187 N1188 2.660 . S
Tb1187 O1221 2.362 . S
Tb1187 O1222 2.421 . S
Tb1187 O1226 2.546 . S
Tb1187 O1227 2.610 . S
Tb1187 O1229 2.320 . S
Tb1187 O1230 2.552 . S
Tb1187 O1231 2.413 . S
Tb1187 C1251 2.833 . S
N1188 C1180 1.360 . S
N1188 Tb1187 2.660 . S
N1188 C1189 1.305 . S
C1189 N1188 1.305 . S
C1189 C1191 1.407 . S
C1189 H1196 0.930 . S
C1190 C1178 1.410 . S
C1190 C1191 1.345 1_655 S
C1190 H1198 0.930 . S
C1191 C1189 1.407 . S
C1191 C1190 1.345 1_455 S
C1191 H1193 0.930 . S
H1192 C1185 0.930 . S
H1193 C1191 0.930 . S
H1194 C1182 0.930 . S
H1195 C1183 0.931 . S
H1196 C1189 0.930 . S
H1197 C1211 0.930 . S
H1198 C1190 0.930 . S
H1199 C1217 0.930 . S
H1200 C1208 0.930 . S
H1201 C1215 0.931 . S
H1202 C1179 0.929 . S
H1203 C1209 0.930 . S
H1204 C1242 0.930 . S
H1205 C1186 0.973 . S
H1206 C1241 0.929 . S
N1207 Tb1176 2.660 . S
N1207 C1208 1.305 . S
N1207 C1212 1.360 . S
C1208 H1200 0.930 . S
C1208 N1207 1.305 . S
C1208 C1211 1.407 . S
C1209 H1203 0.930 . S
C1209 C1210 1.410 . S
C1209 C1211 1.345 . S
C1210 C1209 1.410 . S
C1210 C1212 1.417 . S
C1210 C1242 1.432 . S
C1211 H1197 0.930 . S
C1211 C1208 1.407 . S
C1211 C1209 1.345 . S
C1212 N1207 1.360 . S
C1212 C1210 1.417 . S
C1212 C1216 1.432 . S
H1213 C1218 0.930 . S
N1214 Tb1176 2.600 . S
N1214 C1216 1.359 . S
N1214 C1217 1.327 . S
C1215 H1201 0.931 . S
C1215 C1217 1.392 . S
C1215 C1218 1.370 . S
C1216 C1212 1.432 . S
C1216 N1214 1.359 . S
C1216 C1219 1.414 . S
C1217 H1199 0.930 . S
C1217 N1214 1.327 . S
C1217 C1215 1.392 . S
C1218 H1213 0.930 . S
C1218 C1215 1.370 . S
C1218 C1219 1.385 . S
C1219 C1216 1.414 . S
C1219 C1218 1.385 . S
C1219 C1241 1.444 . S
O1220 Tb1176 2.546 . S
O1220 C1240 1.251 . S
O1221 Tb1176 2.610 . S
O1221 Tb1187 2.362 . S
O1221 C1232 1.283 . S
O1222 Tb1187 2.421 . S
O1222 C1239 1.262 . S
O1223 Tb1176 2.320 . S
O1223 C1239 1.260 . S
O1224 Tb1176 2.552 . S
O1224 C1232 1.243 . S
O1225 Tb1176 2.413 . S
O1225 C1240 1.256 . S
O1226 Tb1187 2.546 . S
O1226 C1251 1.251 . S
O1227 Tb1176 2.362 . S
O1227 Tb1187 2.610 . S
O1227 C1243 1.283 . S
O1228 Tb1176 2.421 . S
O1228 C1250 1.262 . S
O1229 Tb1187 2.320 . S
O1229 C1250 1.260 . S
O1230 Tb1187 2.552 . S
O1230 C1243 1.243 . S
O1231 Tb1187 2.413 . S
O1231 C1251 1.256 . S
C1232 O1221 1.283 . S
C1232 O1224 1.243 . S
C1233 C1235 1.382 . S
C1233 C1237 1.393 . S
C1233 C1240 1.500 . S
C1234 C1235 1.400 . S
C1234 C1236 1.384 . S
C1235 C1233 1.382 . S
C1235 C1234 1.400 . S
C1235 H1252 0.930 . S
C1236 C1234 1.384 . S
C1236 C1238 1.392 . S
C1236 H1253 0.931 . S
C1237 C1233 1.393 . S
C1237 C1238 1.401 . S
C1237 H1254 0.930 . S
C1238 C1236 1.392 . S
C1238 C1237 1.401 . S
C1238 H1255 0.930 . S
C1239 O1222 1.262 . S
C1239 O1223 1.260 . S
C1240 Tb1176 2.833 . S
C1240 O1220 1.251 . S
C1240 O1225 1.256 . S
C1240 C1233 1.500 . S
C1241 H1206 0.929 . S
C1241 C1219 1.444 . S
C1241 C1242 1.317 . S
C1242 H1204 0.930 . S
C1242 C1210 1.432 . S
C1242 C1241 1.317 . S
C1243 O1227 1.283 . S
C1243 O1230 1.243 . S
C1244 C1245 1.382 . S
C1244 C1248 1.393 . S
C1244 C1251 1.500 . S
C1245 C1244 1.382 . S
C1245 C1246 1.400 . S
C1245 H1256 0.930 . S
C1246 C1245 1.400 . S
C1246 C1247 1.384 . S
C1247 C1246 1.384 . S
C1247 C1249 1.392 . S
C1247 H1257 0.931 . S
C1248 C1244 1.393 . S
C1248 C1249 1.401 . S
C1248 H1258 0.930 . S
C1249 C1247 1.392 . S
C1249 C1248 1.401 . S
C1249 H1259 0.930 . S
C1250 O1228 1.262 . S
C1250 O1229 1.260 . S
C1251 Tb1187 2.833 . S
C1251 O1226 1.251 . S
C1251 O1231 1.256 . S
C1251 C1244 1.500 . S
H1252 C1235 0.930 . S
H1253 C1236 0.931 . S
H1254 C1237 0.930 . S
H1255 C1238 0.930 . S
H1256 C1245 0.930 . S
H1257 C1247 0.931 . S
H1258 C1248 0.930 . S
H1259 C1249 0.930 . S
Tb1260 N1291 2.660 . S
Tb1260 N1298 2.600 . S
Tb1260 O1304 2.546 . S
Tb1260 O1305 2.610 . S
Tb1260 O1307 2.320 . S
Tb1260 O1308 2.552 . S
Tb1260 O1309 2.413 . S
Tb1260 O1311 2.362 . S
Tb1260 O1312 2.421 . S
Tb1260 C1324 2.833 . S
C1261 C1264 1.432 . S
C1261 C1265 1.414 . S
C1261 N1268 1.359 . S
C1262 C1264 1.417 . S
C1262 C1266 1.432 . S
C1262 C1274 1.410 . S
C1263 C1265 1.444 . S
C1263 C1266 1.317 . S
C1263 H1286 0.929 . S
C1264 C1261 1.432 . S
C1264 C1262 1.417 . S
C1264 N1272 1.360 . S
C1265 C1261 1.414 . S
C1265 C1263 1.444 . S
C1265 C1270 1.385 . S
C1266 C1262 1.432 . S
C1266 C1263 1.317 . S
C1266 H1278 0.930 . S
C1267 C1269 1.392 . S
C1267 C1270 1.370 . S
C1267 H1279 0.931 . S
N1268 C1261 1.359 . S
N1268 C1269 1.327 . S
N1268 Tb1271 2.600 . S
C1269 C1267 1.392 . S
C1269 N1268 1.327 . S
C1269 H1276 0.930 . S
C1270 C1265 1.385 . S
C1270 C1267 1.370 . S
C1270 H1289 0.930 . S
Tb1271 N1268 2.600 . S
Tb1271 N1272 2.660 . S
Tb1271 O1305 2.362 . S
Tb1271 O1306 2.421 . S
Tb1271 O1310 2.546 . S
Tb1271 O1311 2.610 . S
Tb1271 O1313 2.320 . S
Tb1271 O1314 2.552 . S
Tb1271 O1315 2.413 . S
Tb1271 C1335 2.833 . S
N1272 C1264 1.360 . S
N1272 Tb1271 2.660 . S
N1272 C1273 1.305 . S
C1273 N1272 1.305 . S
C1273 C1275 1.407 . S
C1273 H1280 0.930 . S
C1274 C1262 1.410 . S
C1274 C1275 1.345 . S
C1274 H1282 0.930 . S
C1275 C1273 1.407 . S
C1275 C1274 1.345 . S
C1275 H1277 0.930 . S
H1276 C1269 0.930 . S
H1277 C1275 0.930 . S
H1278 C1266 0.930 . S
H1279 C1267 0.931 . S
H1280 C1273 0.930 . S
H1281 C1295 0.930 . S
H1282 C1274 0.930 . S
H1283 C1301 0.930 . S
H1284 C1292 0.930 . S
H1285 C1299 0.931 . S
H1286 C1263 0.929 . S
H1287 C1293 0.930 . S
H1288 C1326 0.930 . S
H1289 C1270 0.930 . S
H1290 C1325 0.929 . S
N1291 Tb1260 2.660 . S
N1291 C1292 1.305 . S
N1291 C1296 1.360 . S
C1292 H1284 0.930 . S
C1292 N1291 1.305 . S
C1292 C1295 1.407 . S
C1293 H1287 0.930 . S
C1293 C1294 1.410 . S
C1293 C1295 1.345 . S
C1294 C1293 1.410 . S
C1294 C1296 1.417 . S
C1294 C1326 1.432 . S
C1295 H1281 0.930 . S
C1295 C1292 1.407 . S
C1295 C1293 1.345 . S
C1296 N1291 1.360 . S
C1296 C1294 1.417 . S
C1296 C1300 1.432 . S
H1297 C1302 0.930 . S
N1298 Tb1260 2.600 . S
N1298 C1300 1.359 . S
N1298 C1301 1.327 . S
C1299 H1285 0.931 . S
C1299 C1301 1.392 . S
C1299 C1302 1.370 . S
C1300 C1296 1.432 . S
C1300 N1298 1.359 . S
C1300 C1303 1.414 . S
C1301 H1283 0.930 . S
C1301 N1298 1.327 . S
C1301 C1299 1.392 . S
C1302 H1297 0.930 . S
C1302 C1299 1.370 . S
C1302 C1303 1.385 . S
C1303 C1300 1.414 . S
C1303 C1302 1.385 . S
C1303 C1325 1.444 . S
O1304 Tb1260 2.546 . S
O1304 C1324 1.251 . S
O1305 Tb1260 2.610 . S
O1305 Tb1271 2.362 . S
O1305 C1316 1.283 . S
O1306 Tb1271 2.421 . S
O1306 C1323 1.262 . S
O1307 Tb1260 2.320 . S
O1307 C1323 1.260 . S
O1308 Tb1260 2.552 . S
O1308 C1316 1.243 . S
O1309 Tb1260 2.413 . S
O1309 C1324 1.256 . S
O1310 Tb1271 2.546 . S
O1310 C1335 1.251 . S
O1311 Tb1260 2.362 . S
O1311 Tb1271 2.610 . S
O1311 C1327 1.283 . S
O1312 Tb1260 2.421 . S
O1312 C1334 1.262 . S
O1313 Tb1271 2.320 . S
O1313 C1334 1.260 . S
O1314 Tb1271 2.552 . S
O1314 C1327 1.243 . S
O1315 Tb1271 2.413 . S
O1315 C1335 1.256 . S
C1316 O1305 1.283 . S
C1316 O1308 1.243 . S
C1317 C1319 1.382 . S
C1317 C1321 1.393 . S
C1317 C1324 1.500 . S
C1318 C1319 1.400 . S
C1318 C1320 1.384 . S
C1319 C1317 1.382 . S
C1319 C1318 1.400 . S
C1319 H1336 0.930 . S
C1320 C1318 1.384 . S
C1320 C1322 1.392 . S
C1320 H1337 0.931 . S
C1321 C1317 1.393 . S
C1321 C1322 1.401 . S
C1321 H1338 0.930 . S
C1322 C1320 1.392 . S
C1322 C1321 1.401 . S
C1322 H1339 0.930 . S
C1323 O1306 1.262 . S
C1323 O1307 1.260 . S
C1324 Tb1260 2.833 . S
C1324 O1304 1.251 . S
C1324 O1309 1.256 . S
C1324 C1317 1.500 . S
C1325 H1290 0.929 . S
C1325 C1303 1.444 . S
C1325 C1326 1.317 . S
C1326 H1288 0.930 . S
C1326 C1294 1.432 . S
C1326 C1325 1.317 . S
C1327 O1311 1.283 . S
C1327 O1314 1.243 . S
C1328 C1329 1.382 . S
C1328 C1332 1.393 . S
C1328 C1335 1.500 . S
C1329 C1328 1.382 . S
C1329 C1330 1.400 . S
C1329 H1340 0.930 . S
C1330 C1329 1.400 . S
C1330 C1331 1.384 . S
C1331 C1330 1.384 . S
C1331 C1333 1.392 . S
C1331 H1341 0.931 . S
C1332 C1328 1.393 . S
C1332 C1333 1.401 . S
C1332 H1342 0.930 . S
C1333 C1331 1.392 . S
C1333 C1332 1.401 . S
C1333 H1343 0.930 . S
C1334 O1312 1.262 . S
C1334 O1313 1.260 . S
C1335 Tb1271 2.833 . S
C1335 O1310 1.251 . S
C1335 O1315 1.256 . S
C1335 C1328 1.500 . S
H1336 C1319 0.930 . S
H1337 C1320 0.931 . S
H1338 C1321 0.930 . S
H1339 C1322 0.930 . S
H1340 C1329 0.930 . S
H1341 C1331 0.931 . S
H1342 C1332 0.930 . S
H1343 C1333 0.930 . S
Tb1344 N1375 2.660 . S
Tb1344 N1382 2.600 . S
Tb1344 O1388 2.546 . S
Tb1344 O1389 2.610 . S
Tb1344 O1391 2.320 . S
Tb1344 O1392 2.552 . S
Tb1344 O1393 2.413 . S
Tb1344 O1395 2.362 . S
Tb1344 O1396 2.421 . S
Tb1344 C1408 2.833 . S
C1345 C1348 1.432 . S
C1345 C1349 1.414 . S
C1345 N1352 1.359 . S
C1346 C1348 1.417 . S
C1346 C1350 1.432 . S
C1346 C1358 1.410 . S
C1347 C1349 1.444 . S
C1347 C1350 1.317 . S
C1347 H1370 0.929 . S
C1348 C1345 1.432 . S
C1348 C1346 1.417 . S
C1348 N1356 1.360 . S
C1349 C1345 1.414 . S
C1349 C1347 1.444 . S
C1349 C1354 1.385 . S
C1350 C1346 1.432 . S
C1350 C1347 1.317 . S
C1350 H1362 0.930 . S
C1351 C1353 1.392 . S
C1351 C1354 1.370 . S
C1351 H1363 0.931 . S
N1352 C1345 1.359 . S
N1352 C1353 1.327 . S
N1352 Tb1355 2.600 . S
C1353 C1351 1.392 . S
C1353 N1352 1.327 . S
C1353 H1360 0.930 . S
C1354 C1349 1.385 . S
C1354 C1351 1.370 . S
C1354 H1373 0.930 . S
Tb1355 N1352 2.600 . S
Tb1355 N1356 2.660 . S
Tb1355 O1389 2.362 . S
Tb1355 O1390 2.421 . S
Tb1355 O1394 2.546 . S
Tb1355 O1395 2.610 . S
Tb1355 O1397 2.320 . S
Tb1355 O1398 2.552 . S
Tb1355 O1399 2.413 . S
Tb1355 C1419 2.833 . S
N1356 C1348 1.360 . S
N1356 Tb1355 2.660 . S
N1356 C1357 1.305 . S
C1357 N1356 1.305 . S
C1357 C1359 1.407 . S
C1357 H1364 0.930 . S
C1358 C1346 1.410 . S
C1358 C1359 1.345 . S
C1358 H1366 0.930 . S
C1359 C1357 1.407 . S
C1359 C1358 1.345 . S
C1359 H1361 0.930 . S
H1360 C1353 0.930 . S
H1361 C1359 0.930 . S
H1362 C1350 0.930 . S
H1363 C1351 0.931 . S
H1364 C1357 0.930 . S
H1365 C1379 0.930 . S
H1366 C1358 0.930 . S
H1367 C1385 0.930 . S
H1368 C1376 0.930 . S
H1369 C1383 0.931 . S
H1370 C1347 0.929 . S
H1371 C1377 0.930 . S
H1372 C1410 0.930 . S
H1373 C1354 0.930 . S
H1374 C1409 0.929 . S
N1375 Tb1344 2.660 . S
N1375 C1376 1.305 . S
N1375 C1380 1.360 . S
C1376 H1368 0.930 . S
C1376 N1375 1.305 . S
C1376 C1379 1.407 . S
C1377 H1371 0.930 . S
C1377 C1378 1.410 . S
C1377 C1379 1.345 . S
C1378 C1377 1.410 . S
C1378 C1380 1.417 . S
C1378 C1410 1.432 . S
C1379 H1365 0.930 . S
C1379 C1376 1.407 . S
C1379 C1377 1.345 . S
C1380 N1375 1.360 . S
C1380 C1378 1.417 . S
C1380 C1384 1.432 . S
H1381 C1386 0.930 . S
N1382 Tb1344 2.600 . S
N1382 C1384 1.359 . S
N1382 C1385 1.327 . S
C1383 H1369 0.931 . S
C1383 C1385 1.392 . S
C1383 C1386 1.370 . S
C1384 C1380 1.432 . S
C1384 N1382 1.359 . S
C1384 C1387 1.414 . S
C1385 H1367 0.930 . S
C1385 N1382 1.327 . S
C1385 C1383 1.392 . S
C1386 H1381 0.930 . S
C1386 C1383 1.370 . S
C1386 C1387 1.385 . S
C1387 C1384 1.414 . S
C1387 C1386 1.385 . S
C1387 C1409 1.444 . S
O1388 Tb1344 2.546 . S
O1388 C1408 1.251 . S
O1389 Tb1344 2.610 . S
O1389 Tb1355 2.362 . S
O1389 C1400 1.283 . S
O1390 Tb1355 2.421 . S
O1390 C1407 1.262 . S
O1391 Tb1344 2.320 . S
O1391 C1407 1.260 . S
O1392 Tb1344 2.552 . S
O1392 C1400 1.243 . S
O1393 Tb1344 2.413 . S
O1393 C1408 1.256 . S
O1394 Tb1355 2.546 . S
O1394 C1419 1.251 . S
O1395 Tb1344 2.362 . S
O1395 Tb1355 2.610 . S
O1395 C1411 1.283 . S
O1396 Tb1344 2.421 . S
O1396 C1418 1.262 . S
O1397 Tb1355 2.320 . S
O1397 C1418 1.260 . S
O1398 Tb1355 2.552 . S
O1398 C1411 1.243 . S
O1399 Tb1355 2.413 . S
O1399 C1419 1.256 . S
C1400 O1389 1.283 . S
C1400 O1392 1.243 . S
C1401 C1403 1.382 . S
C1401 C1405 1.393 . S
C1401 C1408 1.500 . S
C1402 C1403 1.400 . S
C1402 C1404 1.384 . S
C1403 C1401 1.382 . S
C1403 C1402 1.400 . S
C1403 H1420 0.930 . S
C1404 C1402 1.384 . S
C1404 C1406 1.392 . S
C1404 H1421 0.931 . S
C1405 C1401 1.393 . S
C1405 C1406 1.401 . S
C1405 H1422 0.930 . S
C1406 C1404 1.392 . S
C1406 C1405 1.401 . S
C1406 H1423 0.930 . S
C1407 O1390 1.262 . S
C1407 O1391 1.260 . S
C1408 Tb1344 2.833 . S
C1408 O1388 1.251 . S
C1408 O1393 1.256 . S
C1408 C1401 1.500 . S
C1409 H1374 0.929 . S
C1409 C1387 1.444 . S
C1409 C1410 1.317 . S
C1410 H1372 0.930 . S
C1410 C1378 1.432 . S
C1410 C1409 1.317 . S
C1411 O1395 1.283 . S
C1411 O1398 1.243 . S
C1412 C1413 1.382 . S
C1412 C1416 1.393 . S
C1412 C1419 1.500 . S
C1413 C1412 1.382 . S
C1413 C1414 1.400 . S
C1413 H1424 0.930 . S
C1414 C1413 1.400 . S
C1414 C1415 1.384 . S
C1415 C1414 1.384 . S
C1415 C1417 1.392 . S
C1415 H1425 0.931 . S
C1416 C1412 1.393 . S
C1416 C1417 1.401 . S
C1416 H1426 0.930 . S
C1417 C1415 1.392 . S
C1417 C1416 1.401 . S
C1417 H1427 0.930 . S
C1418 O1396 1.262 . S
C1418 O1397 1.260 . S
C1419 Tb1355 2.833 . S
C1419 O1394 1.251 . S
C1419 O1399 1.256 . S
C1419 C1412 1.500 . S
H1420 C1403 0.930 . S
H1421 C1404 0.931 . S
H1422 C1405 0.930 . S
H1423 C1406 0.930 . S
H1424 C1413 0.930 . S
H1425 C1415 0.931 . S
H1426 C1416 0.930 . S
H1427 C1417 0.930 . S
Tb1428 N1459 2.660 . S
Tb1428 N1466 2.600 . S
Tb1428 O1472 2.546 . S
Tb1428 O1473 2.610 . S
Tb1428 O1475 2.320 . S
Tb1428 O1476 2.552 . S
Tb1428 O1477 2.413 . S
Tb1428 O1479 2.362 . S
Tb1428 O1480 2.421 . S
Tb1428 C1492 2.833 . S
C1429 C1432 1.432 . S
C1429 C1433 1.414 . S
C1429 N1436 1.359 . S
C1430 C1432 1.417 . S
C1430 C1434 1.432 . S
C1430 C1442 1.410 . S
C1431 C1433 1.444 . S
C1431 C1434 1.317 . S
C1431 H1454 0.929 . S
C1432 C1429 1.432 . S
C1432 C1430 1.417 . S
C1432 N1440 1.360 . S
C1433 C1429 1.414 . S
C1433 C1431 1.444 . S
C1433 C1438 1.385 . S
C1434 C1430 1.432 . S
C1434 C1431 1.317 . S
C1434 H1446 0.930 . S
C1435 C1437 1.392 . S
C1435 C1438 1.370 . S
C1435 H1447 0.931 . S
N1436 C1429 1.359 . S
N1436 C1437 1.327 . S
N1436 Tb1439 2.600 . S
C1437 C1435 1.392 . S
C1437 N1436 1.327 . S
C1437 H1444 0.930 . S
C1438 C1433 1.385 . S
C1438 C1435 1.370 . S
C1438 H1457 0.930 . S
Tb1439 N1436 2.600 . S
Tb1439 N1440 2.660 . S
Tb1439 O1473 2.362 . S
Tb1439 O1474 2.421 . S
Tb1439 O1478 2.546 . S
Tb1439 O1479 2.610 . S
Tb1439 O1481 2.320 . S
Tb1439 O1482 2.552 . S
Tb1439 O1483 2.413 . S
Tb1439 C1503 2.833 . S
N1440 C1432 1.360 . S
N1440 Tb1439 2.660 . S
N1440 C1441 1.305 . S
C1441 N1440 1.305 . S
C1441 C1443 1.407 . S
C1441 H1448 0.930 . S
C1442 C1430 1.410 . S
C1442 C1443 1.345 . S
C1442 H1450 0.930 . S
C1443 C1441 1.407 . S
C1443 C1442 1.345 . S
C1443 H1445 0.930 . S
H1444 C1437 0.930 . S
H1445 C1443 0.930 . S
H1446 C1434 0.930 . S
H1447 C1435 0.931 . S
H1448 C1441 0.930 . S
H1449 C1463 0.930 . S
H1450 C1442 0.930 . S
H1451 C1469 0.930 . S
H1452 C1460 0.930 . S
H1453 C1467 0.931 . S
H1454 C1431 0.929 . S
H1455 C1461 0.930 . S
H1456 C1494 0.930 . S
H1457 C1438 0.930 . S
H1458 C1493 0.929 . S
N1459 Tb1428 2.660 . S
N1459 C1460 1.305 . S
N1459 C1464 1.360 . S
C1460 H1452 0.930 . S
C1460 N1459 1.305 . S
C1460 C1463 1.407 . S
C1461 H1455 0.930 . S
C1461 C1462 1.410 . S
C1461 C1463 1.345 . S
C1462 C1461 1.410 . S
C1462 C1464 1.417 . S
C1462 C1494 1.432 . S
C1463 H1449 0.930 . S
C1463 C1460 1.407 . S
C1463 C1461 1.345 . S
C1464 N1459 1.360 . S
C1464 C1462 1.417 . S
C1464 C1468 1.432 . S
H1465 C1470 0.930 . S
N1466 Tb1428 2.600 . S
N1466 C1468 1.359 . S
N1466 C1469 1.327 . S
C1467 H1453 0.931 . S
C1467 C1469 1.392 . S
C1467 C1470 1.370 . S
C1468 C1464 1.432 . S
C1468 N1466 1.359 . S
C1468 C1471 1.414 . S
C1469 H1451 0.930 . S
C1469 N1466 1.327 . S
C1469 C1467 1.392 . S
C1470 H1465 0.930 . S
C1470 C1467 1.370 . S
C1470 C1471 1.385 . S
C1471 C1468 1.414 . S
C1471 C1470 1.385 . S
C1471 C1493 1.444 . S
O1472 Tb1428 2.546 . S
O1472 C1492 1.251 . S
O1473 Tb1428 2.610 . S
O1473 Tb1439 2.362 . S
O1473 C1484 1.283 . S
O1474 Tb1439 2.421 . S
O1474 C1491 1.262 . S
O1475 Tb1428 2.320 . S
O1475 C1491 1.260 . S
O1476 Tb1428 2.552 . S
O1476 C1484 1.243 . S
O1477 Tb1428 2.413 . S
O1477 C1492 1.256 . S
O1478 Tb1439 2.546 . S
O1478 C1503 1.251 . S
O1479 Tb1428 2.362 . S
O1479 Tb1439 2.610 . S
O1479 C1495 1.283 . S
O1480 Tb1428 2.421 . S
O1480 C1502 1.262 . S
O1481 Tb1439 2.320 . S
O1481 C1502 1.260 . S
O1482 Tb1439 2.552 . S
O1482 C1495 1.243 . S
O1483 Tb1439 2.413 . S
O1483 C1503 1.256 . S
C1484 O1473 1.283 . S
C1484 O1476 1.243 . S
C1485 C1487 1.382 . S
C1485 C1489 1.393 . S
C1485 C1492 1.500 . S
C1486 C1487 1.400 . S
C1486 C1488 1.384 . S
C1487 C1485 1.382 . S
C1487 C1486 1.400 . S
C1487 H1504 0.930 . S
C1488 C1486 1.384 . S
C1488 C1490 1.392 . S
C1488 H1505 0.931 . S
C1489 C1485 1.393 . S
C1489 C1490 1.401 . S
C1489 H1506 0.930 . S
C1490 C1488 1.392 . S
C1490 C1489 1.401 . S
C1490 H1507 0.930 . S
C1491 O1474 1.262 . S
C1491 O1475 1.260 . S
C1492 Tb1428 2.833 . S
C1492 O1472 1.251 . S
C1492 O1477 1.256 . S
C1492 C1485 1.500 . S
C1493 H1458 0.929 . S
C1493 C1471 1.444 . S
C1493 C1494 1.317 . S
C1494 H1456 0.930 . S
C1494 C1462 1.432 . S
C1494 C1493 1.317 . S
C1495 O1479 1.283 . S
C1495 O1482 1.243 . S
C1496 C1497 1.382 . S
C1496 C1500 1.393 . S
C1496 C1503 1.500 . S
C1497 C1496 1.382 . S
C1497 C1498 1.400 . S
C1497 H1508 0.930 . S
C1498 C1497 1.400 . S
C1498 C1499 1.384 . S
C1499 C1498 1.384 . S
C1499 C1501 1.392 . S
C1499 H1509 0.931 . S
C1500 C1496 1.393 . S
C1500 C1501 1.401 . S
C1500 H1510 0.930 . S
C1501 C1499 1.392 . S
C1501 C1500 1.401 . S
C1501 H1511 0.930 . S
C1502 O1480 1.262 . S
C1502 O1481 1.260 . S
C1503 Tb1439 2.833 . S
C1503 O1478 1.251 . S
C1503 O1483 1.256 . S
C1503 C1496 1.500 . S
H1504 C1487 0.930 . S
H1505 C1488 0.931 . S
H1506 C1489 0.930 . S
H1507 C1490 0.930 . S
H1508 C1497 0.930 . S
H1509 C1499 0.931 . S
H1510 C1500 0.930 . S
H1511 C1501 0.930 . S
Tb1512 N1543 2.660 . S
Tb1512 N1550 2.600 . S
Tb1512 O1556 2.546 . S
Tb1512 O1557 2.610 . S
Tb1512 O1559 2.320 . S
Tb1512 O1560 2.552 . S
Tb1512 O1561 2.413 . S
Tb1512 O1563 2.362 . S
Tb1512 O1564 2.421 . S
Tb1512 C1576 2.833 . S
C1513 C1516 1.432 . S
C1513 C1517 1.414 . S
C1513 N1520 1.359 . S
C1514 C1516 1.417 . S
C1514 C1518 1.432 . S
C1514 C1526 1.410 . S
C1515 C1517 1.444 . S
C1515 C1518 1.317 . S
C1515 H1538 0.929 . S
C1516 C1513 1.432 . S
C1516 C1514 1.417 . S
C1516 N1524 1.360 . S
C1517 C1513 1.414 . S
C1517 C1515 1.444 . S
C1517 C1522 1.385 . S
C1518 C1514 1.432 . S
C1518 C1515 1.317 . S
C1518 H1530 0.930 . S
C1519 C1521 1.392 . S
C1519 C1522 1.370 . S
C1519 H1531 0.931 . S
N1520 C1513 1.359 . S
N1520 C1521 1.327 . S
N1520 Tb1523 2.600 . S
C1521 C1519 1.392 . S
C1521 N1520 1.327 . S
C1521 H1528 0.930 . S
C1522 C1517 1.385 . S
C1522 C1519 1.370 . S
C1522 H1541 0.930 . S
Tb1523 N1520 2.600 . S
Tb1523 N1524 2.660 . S
Tb1523 O1557 2.362 . S
Tb1523 O1558 2.421 . S
Tb1523 O1562 2.546 . S
Tb1523 O1563 2.610 . S
Tb1523 O1565 2.320 . S
Tb1523 O1566 2.552 . S
Tb1523 O1567 2.413 . S
Tb1523 C1587 2.833 . S
N1524 C1516 1.360 . S
N1524 Tb1523 2.660 . S
N1524 C1525 1.305 . S
C1525 N1524 1.305 . S
C1525 C1527 1.407 . S
C1525 H1532 0.930 . S
C1526 C1514 1.410 . S
C1526 C1527 1.345 . S
C1526 H1534 0.930 . S
C1527 C1525 1.407 . S
C1527 C1526 1.345 . S
C1527 H1529 0.930 . S
H1528 C1521 0.930 . S
H1529 C1527 0.930 . S
H1530 C1518 0.930 . S
H1531 C1519 0.931 . S
H1532 C1525 0.930 . S
H1533 C1547 0.930 . S
H1534 C1526 0.930 . S
H1535 C1553 0.930 . S
H1536 C1544 0.930 . S
H1537 C1551 0.931 . S
H1538 C1515 0.929 . S
H1539 C1545 0.930 . S
H1540 C1578 0.930 . S
H1541 C1522 0.930 . S
H1542 C1577 0.929 . S
N1543 Tb1512 2.660 . S
N1543 C1544 1.305 . S
N1543 C1548 1.360 . S
C1544 H1536 0.930 . S
C1544 N1543 1.305 . S
C1544 C1547 1.407 . S
C1545 H1539 0.930 . S
C1545 C1546 1.410 . S
C1545 C1547 1.345 . S
C1546 C1545 1.410 . S
C1546 C1548 1.417 . S
C1546 C1578 1.432 . S
C1547 H1533 0.930 . S
C1547 C1544 1.407 . S
C1547 C1545 1.345 . S
C1548 N1543 1.360 . S
C1548 C1546 1.417 . S
C1548 C1552 1.432 . S
H1549 C1554 0.930 . S
N1550 Tb1512 2.600 . S
N1550 C1552 1.359 . S
N1550 C1553 1.327 . S
C1551 H1537 0.931 . S
C1551 C1553 1.392 . S
C1551 C1554 1.370 . S
C1552 C1548 1.432 . S
C1552 N1550 1.359 . S
C1552 C1555 1.414 . S
C1553 H1535 0.930 . S
C1553 N1550 1.327 . S
C1553 C1551 1.392 . S
C1554 H1549 0.930 . S
C1554 C1551 1.370 . S
C1554 C1555 1.385 . S
C1555 C1552 1.414 . S
C1555 C1554 1.385 . S
C1555 C1577 1.444 . S
O1556 Tb1512 2.546 . S
O1556 C1576 1.251 . S
O1557 Tb1512 2.610 . S
O1557 Tb1523 2.362 . S
O1557 C1568 1.283 . S
O1558 Tb1523 2.421 . S
O1558 C1575 1.262 . S
O1559 Tb1512 2.320 . S
O1559 C1575 1.260 . S
O1560 Tb1512 2.552 . S
O1560 C1568 1.243 . S
O1561 Tb1512 2.413 . S
O1561 C1576 1.256 . S
O1562 Tb1523 2.546 . S
O1562 C1587 1.251 . S
O1563 Tb1512 2.362 . S
O1563 Tb1523 2.610 . S
O1563 C1579 1.283 . S
O1564 Tb1512 2.421 . S
O1564 C1586 1.262 . S
O1565 Tb1523 2.320 . S
O1565 C1586 1.260 . S
O1566 Tb1523 2.552 . S
O1566 C1579 1.243 . S
O1567 Tb1523 2.413 . S
O1567 C1587 1.256 . S
C1568 O1557 1.283 . S
C1568 O1560 1.243 . S
C1569 C1571 1.382 . S
C1569 C1573 1.393 . S
C1569 C1576 1.500 . S
C1570 C1571 1.400 . S
C1570 C1572 1.384 . S
C1571 C1569 1.382 . S
C1571 C1570 1.400 . S
C1571 H1588 0.930 . S
C1572 C1570 1.384 . S
C1572 C1574 1.392 . S
C1572 H1589 0.931 . S
C1573 C1569 1.393 . S
C1573 C1574 1.401 . S
C1573 H1590 0.930 . S
C1574 C1572 1.392 . S
C1574 C1573 1.401 . S
C1574 H1591 0.930 . S
C1575 O1558 1.262 . S
C1575 O1559 1.260 . S
C1576 Tb1512 2.833 . S
C1576 O1556 1.251 . S
C1576 O1561 1.256 . S
C1576 C1569 1.500 . S
C1577 H1542 0.929 . S
C1577 C1555 1.444 . S
C1577 C1578 1.317 . S
C1578 H1540 0.930 . S
C1578 C1546 1.432 . S
C1578 C1577 1.317 . S
C1579 O1563 1.283 . S
C1579 O1566 1.243 . S
C1580 C1581 1.382 . S
C1580 C1584 1.393 . S
C1580 C1587 1.500 . S
C1581 C1580 1.382 . S
C1581 C1582 1.400 . S
C1581 H1592 0.930 . S
C1582 C1581 1.400 . S
C1582 C1583 1.384 . S
C1583 C1582 1.384 . S
C1583 C1585 1.392 . S
C1583 H1593 0.931 . S
C1584 C1580 1.393 . S
C1584 C1585 1.401 . S
C1584 H1594 0.930 . S
C1585 C1583 1.392 . S
C1585 C1584 1.401 . S
C1585 H1595 0.930 . S
C1586 O1564 1.262 . S
C1586 O1565 1.260 . S
C1587 Tb1523 2.833 . S
C1587 O1562 1.251 . S
C1587 O1567 1.256 . S
C1587 C1580 1.500 . S
H1588 C1571 0.930 . S
H1589 C1572 0.931 . S
H1590 C1573 0.930 . S
H1591 C1574 0.930 . S
H1592 C1581 0.930 . S
H1593 C1583 0.931 . S
H1594 C1584 0.930 . S
H1595 C1585 0.930 . S
Tb1596 N1627 2.660 . S
Tb1596 N1634 2.600 . S
Tb1596 O1640 2.546 . S
Tb1596 O1641 2.610 . S
Tb1596 O1643 2.320 . S
Tb1596 O1644 2.552 . S
Tb1596 O1645 2.413 . S
Tb1596 O1647 2.362 . S
Tb1596 O1648 2.421 . S
Tb1596 C1660 2.833 . S
C1597 C1600 1.432 1_455 S
C1597 C1601 1.414 1_455 S
C1597 N1604 1.359 . S
C1598 C1600 1.417 . S
C1598 C1602 1.432 . S
C1598 C1610 1.410 . S
C1599 C1601 1.444 . S
C1599 C1602 1.317 . S
C1599 H1622 0.929 . S
C1600 C1597 1.432 1_655 S
C1600 C1598 1.417 . S
C1600 N1608 1.360 1_655 S
C1601 C1597 1.414 1_655 S
C1601 C1599 1.444 . S
C1601 C1606 1.385 . S
C1602 C1598 1.432 . S
C1602 C1599 1.317 . S
C1602 H1614 0.930 . S
C1603 C1605 1.392 . S
C1603 C1606 1.370 1_455 S
C1603 H1615 0.931 . S
N1604 C1597 1.359 . S
N1604 C1605 1.327 . S
N1604 Tb1607 2.600 . S
C1605 C1603 1.392 . S
C1605 N1604 1.327 . S
C1605 H1612 0.930 . S
C1606 C1601 1.385 . S
C1606 C1603 1.370 1_655 S
C1606 H1625 0.930 . S
Tb1607 N1604 2.600 . S
Tb1607 N1608 2.660 . S
Tb1607 O1641 2.362 . S
Tb1607 O1642 2.421 . S
Tb1607 O1646 2.546 . S
Tb1607 O1647 2.610 . S
Tb1607 O1649 2.320 . S
Tb1607 O1650 2.552 . S
Tb1607 O1651 2.413 . S
Tb1607 C1671 2.784 1_455 S
N1608 C1600 1.360 1_455 S
N1608 Tb1607 2.660 . S
N1608 C1609 1.305 . S
C1609 N1608 1.305 . S
C1609 C1611 1.407 1_455 S
C1609 H1616 0.930 . S
C1610 C1598 1.410 . S
C1610 C1611 1.345 . S
C1610 H1618 0.930 . S
C1611 C1609 1.407 1_655 S
C1611 C1610 1.345 . S
C1611 H1613 0.930 1_554 S
H1612 C1605 0.930 . S
H1613 C1611 0.930 1_556 S
H1614 C1602 0.930 . S
H1615 C1603 0.931 . S
H1616 C1609 0.930 . S
H1617 C1631 0.930 . S
H1618 C1610 0.930 . S
H1619 C1637 0.930 . S
H1620 C1628 0.930 . S
H1621 C1635 0.931 . S
H1622 C1599 0.929 . S
H1623 C1629 0.930 . S
H1624 C1662 0.930 . S
H1625 C1606 0.930 . S
H1626 C1661 0.929 . S
N1627 Tb1596 2.660 . S
N1627 C1628 1.305 . S
N1627 C1632 1.360 . S
C1628 H1620 0.930 . S
C1628 N1627 1.305 . S
C1628 C1631 1.407 . S
C1629 H1623 0.930 . S
C1629 C1630 1.410 . S
C1629 C1631 1.345 . S
C1630 C1629 1.410 . S
C1630 C1632 1.417 . S
C1630 C1662 1.432 . S
C1631 H1617 0.930 . S
C1631 C1628 1.407 . S
C1631 C1629 1.345 . S
C1632 N1627 1.360 . S
C1632 C1630 1.417 . S
C1632 C1636 1.432 . S
H1633 C1638 0.930 . S
N1634 Tb1596 2.600 . S
N1634 C1636 1.359 . S
N1634 C1637 1.327 1_554 S
C1635 H1621 0.931 . S
C1635 C1637 1.392 . S
C1635 C1638 1.370 . S
C1636 C1632 1.432 . S
C1636 N1634 1.359 . S
C1636 C1639 1.414 . S
C1637 H1619 0.930 . S
C1637 N1634 1.327 1_556 S
C1637 C1635 1.392 . S
C1638 H1633 0.930 . S
C1638 C1635 1.370 . S
C1638 C1639 1.385 1_556 S
C1639 C1636 1.414 . S
C1639 C1638 1.385 1_554 S
C1639 C1661 1.444 . S
O1640 Tb1596 2.546 . S
O1640 C1660 1.251 . S
O1641 Tb1596 2.610 . S
O1641 Tb1607 2.362 . S
O1641 C1652 1.283 . S
O1642 Tb1607 2.421 . S
O1642 C1659 1.262 . S
O1643 Tb1596 2.320 . S
O1643 C1659 1.260 . S
O1644 Tb1596 2.552 . S
O1644 C1652 1.243 . S
O1645 Tb1596 2.413 . S
O1645 C1660 1.256 . S
O1646 Tb1607 2.546 . S
O1646 C1671 1.218 1_455 S
O1647 Tb1596 2.362 . S
O1647 Tb1607 2.610 . S
O1647 C1663 1.283 . S
O1648 Tb1596 2.421 . S
O1648 C1670 1.262 . S
O1649 Tb1607 2.320 . S
O1649 C1670 1.260 . S
O1650 Tb1607 2.552 . S
O1650 C1663 1.243 . S
O1651 Tb1607 2.413 . S
O1651 C1671 1.243 1_455 S
C1652 O1641 1.283 . S
C1652 O1644 1.243 . S
C1653 C1655 1.382 . S
C1653 C1657 1.393 1_554 S
C1653 C1660 1.500 . S
C1654 C1655 1.400 . S
C1654 C1656 1.384 . S
C1655 C1653 1.382 . S
C1655 C1654 1.400 . S
C1655 H1672 0.930 . S
C1656 C1654 1.384 . S
C1656 C1658 1.392 1_554 S
C1656 H1673 0.931 . S
C1657 C1653 1.393 1_556 S
C1657 C1658 1.401 . S
C1657 H1674 0.930 . S
C1658 C1656 1.392 1_556 S
C1658 C1657 1.401 . S
C1658 H1675 0.930 . S
C1659 O1642 1.262 . S
C1659 O1643 1.260 . S
C1660 Tb1596 2.833 . S
C1660 O1640 1.251 . S
C1660 O1645 1.256 . S
C1660 C1653 1.500 . S
C1661 H1626 0.929 . S
C1661 C1639 1.444 . S
C1661 C1662 1.317 . S
C1662 H1624 0.930 . S
C1662 C1630 1.432 . S
C1662 C1661 1.317 . S
C1663 O1647 1.283 . S
C1663 O1650 1.243 . S
C1664 C1665 1.382 . S
C1664 C1668 1.393 . S
C1664 C1671 1.549 . S
C1665 C1664 1.382 . S
C1665 C1666 1.400 . S
C1665 H1676 0.930 . S
C1666 C1665 1.400 . S
C1666 C1667 1.384 . S
C1667 C1666 1.384 . S
C1667 C1669 1.392 . S
C1667 H1677 0.931 . S
C1668 C1664 1.393 . S
C1668 C1669 1.401 . S
C1668 H1678 0.930 . S
C1669 C1667 1.392 . S
C1669 C1668 1.401 . S
C1669 H1679 0.930 . S
C1670 O1648 1.262 . S
C1670 O1649 1.260 . S
C1671 Tb1607 2.784 1_655 S
C1671 O1646 1.218 1_655 S
C1671 O1651 1.243 1_655 S
C1671 C1664 1.549 . S
H1672 C1655 0.930 . S
H1673 C1656 0.931 . S
H1674 C1657 0.930 . S
H1675 C1658 0.930 . S
H1676 C1665 0.930 . S
H1677 C1667 0.931 . S
H1678 C1668 0.930 . S
H1679 C1669 0.930 . S
H1680 C1688 0.929 . S
H1681 C1690 0.930 . S
H1682 C1692 0.930 . S
H1683 C1695 0.929 . S
H1684 C1698 0.930 . S
H1685 C1700 0.960 1_554 S
H1686 C1700 0.960 1_655 S
H1687 C1700 0.960 . S
C1688 H1680 0.929 . S
C1688 C1689 1.377 . S
C1688 C1690 1.384 . S
C1689 C1688 1.377 . S
C1689 C1695 1.390 . S
C1690 H1681 0.930 . S
C1690 C1688 1.384 . S
C1690 C1691 1.372 . S
C1691 C1690 1.372 . S
C1691 C1692 1.400 . S
C1691 C1696 1.490 . S
C1692 H1682 0.930 . S
C1692 C1691 1.400 . S
C1692 C1695 1.386 . S
H1693 C1709 0.930 . S
H1694 C1710 0.931 . S
C1695 H1683 0.929 . S
C1695 C1689 1.390 . S
C1695 C1692 1.386 . S
C1696 C1691 1.490 . S
C1696 C1698 1.395 . S
C1696 C1699 1.403 . S
H1697 C1703 0.930 1_554 S
C1698 H1684 0.930 . S
C1698 C1696 1.395 . S
C1698 C1701 1.403 . S
C1699 C1696 1.403 . S
C1699 C1700 1.524 . S
C1699 C1703 1.400 . S
C1700 H1685 0.960 1_556 S
C1700 H1686 0.960 1_455 S
C1700 H1687 0.960 . S
C1700 C1699 1.524 . S
C1701 C1698 1.403 . S
C1701 C1702 1.392 . S
C1701 C1705 1.495 . S
C1702 C1701 1.392 . S
C1702 C1703 1.385 . S
C1702 C1704 1.478 . S
C1703 H1697 0.930 1_556 S
C1703 C1699 1.400 . S
C1703 C1702 1.385 . S
C1704 C1702 1.478 . S
C1704 C1706 1.381 . S
C1704 C1710 1.383 1_556 S
C1705 C1701 1.495 . S
C1705 H1711 0.959 . S
C1705 H1712 0.961 . S
C1705 H1713 0.960 . S
C1706 C1704 1.381 . S
C1706 C1707 1.394 . S
C1706 H1714 0.930 . S
C1707 C1706 1.394 . S
C1707 C1708 1.383 1_556 S
C1707 H1715 0.929 . S
C1708 C1707 1.383 1_554 S
C1708 C1709 1.377 . S
C1709 H1693 0.930 . S
C1709 C1708 1.377 . S
C1709 C1710 1.379 . S
C1710 H1694 0.931 . S
C1710 C1704 1.383 1_554 S
C1710 C1709 1.379 . S
H1711 C1705 0.959 . S
H1712 C1705 0.961 . S
H1713 C1705 0.960 . S
H1714 C1706 0.930 . S
H1715 C1707 0.929 . S
H1716 C1724 0.929 . S
H1717 C1726 0.930 . S
H1718 C1728 0.930 . S
H1719 C1731 0.929 . S
H1720 C1734 0.930 . S
H1721 C1736 0.960 . S
H1722 C1736 0.960 . S
H1723 C1736 0.960 . S
C1724 H1716 0.929 . S
C1724 C1725 1.377 . S
C1724 C1726 1.384 . S
C1725 C1724 1.377 . S
C1725 C1731 1.390 . S
C1726 H1717 0.930 . S
C1726 C1724 1.384 . S
C1726 C1727 1.372 . S
C1727 C1726 1.372 . S
C1727 C1728 1.400 . S
C1727 C1732 1.490 . S
C1728 H1718 0.930 . S
C1728 C1727 1.400 . S
C1728 C1731 1.386 . S
H1729 C1745 0.930 . S
H1730 C1746 0.931 . S
C1731 H1719 0.929 . S
C1731 C1725 1.390 . S
C1731 C1728 1.386 . S
C1732 C1727 1.490 . S
C1732 C1734 1.395 . S
C1732 C1735 1.403 . S
H1733 C1739 0.930 . S
C1734 H1720 0.930 . S
C1734 C1732 1.395 . S
C1734 C1737 1.403 . S
C1735 C1732 1.403 . S
C1735 C1736 1.524 . S
C1735 C1739 1.400 . S
C1736 H1721 0.960 . S
C1736 H1722 0.960 . S
C1736 H1723 0.960 . S
C1736 C1735 1.524 . S
C1737 C1734 1.403 . S
C1737 C1738 1.392 . S
C1737 C1741 1.495 . S
C1738 C1737 1.392 . S
C1738 C1739 1.385 . S
C1738 C1740 1.478 . S
C1739 H1733 0.930 . S
C1739 C1735 1.400 . S
C1739 C1738 1.385 . S
C1740 C1738 1.478 . S
C1740 C1742 1.381 . S
C1740 C1746 1.383 . S
C1741 C1737 1.495 . S
C1741 H1747 0.959 . S
C1741 H1748 0.961 . S
C1741 H1749 0.960 . S
C1742 C1740 1.381 . S
C1742 C1743 1.394 . S
C1742 H1750 0.930 . S
C1743 C1742 1.394 . S
C1743 C1744 1.383 . S
C1743 H1751 0.929 . S
C1744 C1743 1.383 . S
C1744 C1745 1.377 . S
C1745 H1729 0.930 . S
C1745 C1744 1.377 . S
C1745 C1746 1.379 . S
C1746 H1730 0.931 . S
C1746 C1740 1.383 . S
C1746 C1745 1.379 . S
H1747 C1741 0.959 . S
H1748 C1741 0.961 . S
H1749 C1741 0.960 . S
H1750 C1742 0.930 . S
H1751 C1743 0.929 . S
H1752 C1760 0.929 . S
H1753 C1762 0.930 . S
H1754 C1764 0.930 . S
H1755 C1767 0.929 . S
H1756 C1770 0.930 . S
H1757 C1772 0.960 . S
H1758 C1772 0.960 . S
H1759 C1772 0.960 . S
C1760 H1752 0.929 . S
C1760 C1761 1.377 . S
C1760 C1762 1.384 . S
C1761 C1760 1.377 . S
C1761 C1767 1.390 . S
C1762 H1753 0.930 . S
C1762 C1760 1.384 . S
C1762 C1763 1.372 . S
C1763 C1762 1.372 . S
C1763 C1764 1.400 . S
C1763 C1768 1.490 . S
C1764 H1754 0.930 . S
C1764 C1763 1.400 . S
C1764 C1767 1.386 . S
H1765 C1781 0.930 . S
H1766 C1782 0.931 . S
C1767 H1755 0.929 . S
C1767 C1761 1.390 . S
C1767 C1764 1.386 . S
C1768 C1763 1.490 . S
C1768 C1770 1.395 . S
C1768 C1771 1.403 . S
H1769 C1775 0.930 . S
C1770 H1756 0.930 . S
C1770 C1768 1.395 . S
C1770 C1773 1.403 . S
C1771 C1768 1.403 . S
C1771 C1772 1.524 . S
C1771 C1775 1.400 . S
C1772 H1757 0.960 . S
C1772 H1758 0.960 . S
C1772 H1759 0.960 . S
C1772 C1771 1.524 . S
C1773 C1770 1.403 . S
C1773 C1774 1.392 . S
C1773 C1777 1.495 . S
C1774 C1773 1.392 . S
C1774 C1775 1.385 . S
C1774 C1776 1.478 . S
C1775 H1769 0.930 . S
C1775 C1771 1.400 . S
C1775 C1774 1.385 . S
C1776 C1774 1.478 . S
C1776 C1778 1.381 . S
C1776 C1782 1.383 . S
C1777 C1773 1.495 . S
C1777 H1783 0.959 . S
C1777 H1784 0.961 . S
C1777 H1785 0.960 . S
C1778 C1776 1.381 . S
C1778 C1779 1.394 . S
C1778 H1786 0.930 . S
C1779 C1778 1.394 . S
C1779 C1780 1.383 . S
C1779 H1787 0.929 . S
C1780 C1779 1.383 . S
C1780 C1781 1.377 . S
C1781 H1765 0.930 . S
C1781 C1780 1.377 . S
C1781 C1782 1.379 . S
C1782 H1766 0.931 . S
C1782 C1776 1.383 . S
C1782 C1781 1.379 . S
H1783 C1777 0.959 . S
H1784 C1777 0.961 . S
H1785 C1777 0.960 . S
H1786 C1778 0.930 . S
H1787 C1779 0.929 . S
H1788 C1796 0.929 . S
H1789 C1798 0.930 . S
H1790 C1800 0.930 . S
H1791 C1803 0.929 . S
H1792 C1806 0.930 . S
H1793 C1808 0.960 . S
H1794 C1808 0.960 . S
H1795 C1808 0.960 . S
C1796 H1788 0.929 . S
C1796 C1797 1.377 . S
C1796 C1798 1.384 . S
C1797 C1796 1.377 . S
C1797 C1803 1.390 . S
C1798 H1789 0.930 . S
C1798 C1796 1.384 . S
C1798 C1799 1.372 . S
C1799 C1798 1.372 . S
C1799 C1800 1.400 . S
C1799 C1804 1.490 . S
C1800 H1790 0.930 . S
C1800 C1799 1.400 . S
C1800 C1803 1.386 . S
H1801 C1817 0.930 . S
H1802 C1818 0.931 . S
C1803 H1791 0.929 . S
C1803 C1797 1.390 . S
C1803 C1800 1.386 . S
C1804 C1799 1.490 . S
C1804 C1806 1.395 . S
C1804 C1807 1.403 . S
H1805 C1811 0.930 . S
C1806 H1792 0.930 . S
C1806 C1804 1.395 . S
C1806 C1809 1.403 . S
C1807 C1804 1.403 . S
C1807 C1808 1.524 . S
C1807 C1811 1.400 . S
C1808 H1793 0.960 . S
C1808 H1794 0.960 . S
C1808 H1795 0.960 . S
C1808 C1807 1.524 . S
C1809 C1806 1.403 . S
C1809 C1810 1.392 . S
C1809 C1813 1.495 . S
C1810 C1809 1.392 . S
C1810 C1811 1.385 . S
C1810 C1812 1.478 . S
C1811 H1805 0.930 . S
C1811 C1807 1.400 . S
C1811 C1810 1.385 . S
C1812 C1810 1.478 . S
C1812 C1814 1.381 . S
C1812 C1818 1.383 . S
C1813 C1809 1.495 . S
C1813 H1819 0.959 . S
C1813 H1820 0.961 . S
C1813 H1821 0.960 . S
C1814 C1812 1.381 . S
C1814 C1815 1.394 . S
C1814 H1822 0.930 . S
C1815 C1814 1.394 . S
C1815 C1816 1.383 . S
C1815 H1823 0.929 . S
C1816 C1815 1.383 . S
C1816 C1817 1.377 . S
C1817 H1801 0.930 . S
C1817 C1816 1.377 . S
C1817 C1818 1.379 . S
C1818 H1802 0.931 . S
C1818 C1812 1.383 . S
C1818 C1817 1.379 . S
H1819 C1813 0.959 . S
H1820 C1813 0.961 . S
H1821 C1813 0.960 . S
H1822 C1814 0.930 . S
H1823 C1815 0.929 . S
H1824 C1832 0.913 1_655 S
H1825 C1834 0.930 1_655 S
H1826 C1836 0.930 . S
H1827 C1839 0.929 . S
H1828 C1842 0.930 . S
H1829 C1844 0.960 . S
H1830 C1844 0.960 . S
H1831 C1844 0.960 . S
C1832 H1824 0.913 1_455 S
C1832 C1833 1.393 . S
C1832 C1834 1.384 . S
C1833 C1832 1.393 . S
C1833 C1839 1.390 . S
C1834 H1825 0.930 1_455 S
C1834 C1832 1.384 . S
C1834 C1835 1.372 . S
C1835 C1834 1.372 . S
C1835 C1836 1.400 . S
C1835 C1840 1.490 . S
C1836 H1826 0.930 . S
C1836 C1835 1.400 . S
C1836 C1839 1.386 . S
H1837 C1853 0.930 . S
H1838 C1854 0.931 . S
C1839 H1827 0.929 . S
C1839 C1833 1.390 . S
C1839 C1836 1.386 . S
C1840 C1835 1.490 . S
C1840 C1842 1.395 . S
C1840 C1843 1.403 . S
H1841 C1847 0.930 . S
C1842 H1828 0.930 . S
C1842 C1840 1.395 . S
C1842 C1845 1.403 . S
C1843 C1840 1.403 . S
C1843 C1844 1.524 . S
C1843 C1847 1.400 . S
C1844 H1829 0.960 . S
C1844 H1830 0.960 . S
C1844 H1831 0.960 . S
C1844 C1843 1.524 . S
C1845 C1842 1.403 . S
C1845 C1846 1.392 . S
C1845 C1849 1.495 . S
C1846 C1845 1.392 . S
C1846 C1847 1.385 . S
C1846 C1848 1.478 . S
C1847 H1841 0.930 . S
C1847 C1843 1.400 . S
C1847 C1846 1.385 . S
C1848 C1846 1.478 . S
C1848 C1850 1.381 . S
C1848 C1854 1.383 . S
C1849 C1845 1.495 . S
C1849 H1855 0.959 . S
C1849 H1856 0.961 . S
C1849 H1857 0.960 . S
C1850 C1848 1.381 . S
C1850 C1851 1.394 . S
C1850 H1858 0.930 . S
C1851 C1850 1.394 . S
C1851 C1852 1.383 . S
C1851 H1859 0.929 . S
C1852 C1851 1.383 . S
C1852 C1853 1.377 . S
C1853 H1837 0.930 . S
C1853 C1852 1.377 . S
C1853 C1854 1.379 . S
C1854 H1838 0.931 . S
C1854 C1848 1.383 . S
C1854 C1853 1.379 . S
H1855 C1849 0.959 . S
H1856 C1849 0.961 . S
H1857 C1849 0.960 . S
H1858 C1850 0.930 . S
H1859 C1851 0.929 . S
H1860 C1868 0.929 . S
H1861 C1870 0.930 . S
H1862 C1872 0.930 . S
H1863 C1875 0.929 . S
H1864 C1878 0.930 . S
H1865 C1880 0.960 . S
H1866 C1880 0.960 . S
H1867 C1880 0.960 . S
C1868 H1860 0.929 . S
C1868 C1869 1.377 . S
C1868 C1870 1.384 . S
C1869 C1868 1.377 . S
C1869 C1875 1.390 . S
C1870 H1861 0.930 . S
C1870 C1868 1.384 . S
C1870 C1871 1.372 . S
C1871 C1870 1.372 . S
C1871 C1872 1.400 . S
C1871 C1876 1.490 . S
C1872 H1862 0.930 . S
C1872 C1871 1.400 . S
C1872 C1875 1.386 . S
H1873 C1889 0.930 . S
H1874 C1890 0.931 . S
C1875 H1863 0.929 . S
C1875 C1869 1.390 . S
C1875 C1872 1.386 . S
C1876 C1871 1.490 . S
C1876 C1878 1.395 . S
C1876 C1879 1.403 . S
H1877 C1883 0.930 . S
C1878 H1864 0.930 . S
C1878 C1876 1.395 . S
C1878 C1881 1.403 . S
C1879 C1876 1.403 . S
C1879 C1880 1.524 . S
C1879 C1883 1.400 . S
C1880 H1865 0.960 . S
C1880 H1866 0.960 . S
C1880 H1867 0.960 . S
C1880 C1879 1.524 . S
C1881 C1878 1.403 . S
C1881 C1882 1.392 . S
C1881 C1885 1.495 . S
C1882 C1881 1.392 . S
C1882 C1883 1.385 . S
C1882 C1884 1.478 . S
C1883 H1877 0.930 . S
C1883 C1879 1.400 . S
C1883 C1882 1.385 . S
C1884 C1882 1.478 . S
C1884 C1886 1.381 . S
C1884 C1890 1.383 . S
C1885 C1881 1.495 . S
C1885 H1891 0.959 . S
C1885 H1892 0.961 . S
C1885 H1893 0.960 . S
C1886 C1884 1.381 . S
C1886 C1887 1.394 . S
C1886 H1894 0.930 . S
C1887 C1886 1.394 . S
C1887 C1888 1.383 . S
C1887 H1895 0.929 . S
C1888 C1887 1.383 . S
C1888 C1889 1.377 . S
C1889 H1873 0.930 . S
C1889 C1888 1.377 . S
C1889 C1890 1.379 . S
C1890 H1874 0.931 . S
C1890 C1884 1.383 . S
C1890 C1889 1.379 . S
H1891 C1885 0.959 . S
H1892 C1885 0.961 . S
H1893 C1885 0.960 . S
H1894 C1886 0.930 . S
H1895 C1887 0.929 . S
H1896 C1904 0.929 . S
H1897 C1906 0.930 . S
H1898 C1908 0.930 . S
H1899 C1911 0.929 . S
H1900 C1914 0.930 . S
H1901 C1916 0.960 . S
H1902 C1916 0.960 . S
H1903 C1916 0.960 . S
C1904 H1896 0.929 . S
C1904 C1905 1.377 . S
C1904 C1906 1.384 . S
C1905 C1904 1.377 . S
C1905 C1911 1.390 . S
C1906 H1897 0.930 . S
C1906 C1904 1.384 . S
C1906 C1907 1.372 . S
C1907 C1906 1.372 . S
C1907 C1908 1.400 . S
C1907 C1912 1.490 . S
C1908 H1898 0.930 . S
C1908 C1907 1.400 . S
C1908 C1911 1.386 . S
H1909 C1925 0.930 . S
H1910 C1926 0.931 . S
C1911 H1899 0.929 . S
C1911 C1905 1.390 . S
C1911 C1908 1.386 . S
C1912 C1907 1.490 . S
C1912 C1914 1.395 . S
C1912 C1915 1.403 . S
H1913 C1919 0.930 . S
C1914 H1900 0.930 . S
C1914 C1912 1.395 . S
C1914 C1917 1.403 . S
C1915 C1912 1.403 . S
C1915 C1916 1.524 . S
C1915 C1919 1.400 . S
C1916 H1901 0.960 . S
C1916 H1902 0.960 . S
C1916 H1903 0.960 . S
C1916 C1915 1.524 . S
C1917 C1914 1.403 . S
C1917 C1918 1.392 . S
C1917 C1921 1.495 . S
C1918 C1917 1.392 . S
C1918 C1919 1.385 . S
C1918 C1920 1.478 . S
C1919 H1913 0.930 . S
C1919 C1915 1.400 . S
C1919 C1918 1.385 . S
C1920 C1918 1.478 . S
C1920 C1922 1.381 . S
C1920 C1926 1.383 . S
C1921 C1917 1.495 . S
C1921 H1927 0.959 . S
C1921 H1928 0.961 . S
C1921 H1929 0.960 . S
C1922 C1920 1.381 . S
C1922 C1923 1.394 . S
C1922 H1930 0.930 . S
C1923 C1922 1.394 . S
C1923 C1924 1.383 . S
C1923 H1931 0.929 . S
C1924 C1923 1.383 . S
C1924 C1925 1.377 . S
C1925 H1909 0.930 . S
C1925 C1924 1.377 . S
C1925 C1926 1.379 . S
C1926 H1910 0.931 . S
C1926 C1920 1.383 . S
C1926 C1925 1.379 . S
H1927 C1921 0.959 . S
H1928 C1921 0.961 . S
H1929 C1921 0.960 . S
H1930 C1922 0.930 . S
H1931 C1923 0.929 . S
H1932 C1940 0.929 . S
H1933 C1942 0.930 . S
H1934 C1944 0.930 . S
H1935 C1947 0.929 . S
H1936 C1950 0.930 . S
H1937 C1952 0.960 . S
H1938 C1952 0.960 . S
H1939 C1952 0.960 . S
C1940 H1932 0.929 . S
C1940 C1941 1.377 . S
C1940 C1942 1.384 . S
C1941 C1940 1.377 . S
C1941 C1947 1.390 . S
C1942 H1933 0.930 . S
C1942 C1940 1.384 . S
C1942 C1943 1.372 . S
C1943 C1942 1.372 . S
C1943 C1944 1.400 . S
C1943 C1948 1.490 . S
C1944 H1934 0.930 . S
C1944 C1943 1.400 . S
C1944 C1947 1.386 . S
H1945 C1961 0.930 . S
H1946 C1962 0.931 . S
C1947 H1935 0.929 . S
C1947 C1941 1.390 . S
C1947 C1944 1.386 . S
C1948 C1943 1.490 . S
C1948 C1950 1.395 . S
C1948 C1951 1.403 . S
H1949 C1955 0.930 . S
C1950 H1936 0.930 . S
C1950 C1948 1.395 . S
C1950 C1953 1.403 . S
C1951 C1948 1.403 . S
C1951 C1952 1.524 . S
C1951 C1955 1.400 . S
C1952 H1937 0.960 . S
C1952 H1938 0.960 . S
C1952 H1939 0.960 . S
C1952 C1951 1.524 . S
C1953 C1950 1.403 . S
C1953 C1954 1.392 . S
C1953 C1957 1.495 . S
C1954 C1953 1.392 . S
C1954 C1955 1.385 . S
C1954 C1956 1.478 . S
C1955 H1949 0.930 . S
C1955 C1951 1.400 . S
C1955 C1954 1.385 . S
C1956 C1954 1.478 . S
C1956 C1958 1.381 . S
C1956 C1962 1.383 . S
C1957 C1953 1.495 . S
C1957 H1963 0.959 . S
C1957 H1964 0.961 . S
C1957 H1965 0.960 . S
C1958 C1956 1.381 . S
C1958 C1959 1.394 . S
C1958 H1966 0.930 . S
C1959 C1958 1.394 . S
C1959 C1960 1.383 . S
C1959 H1967 0.929 . S
C1960 C1959 1.383 . S
C1960 C1961 1.377 . S
C1961 H1945 0.930 . S
C1961 C1960 1.377 . S
C1961 C1962 1.379 . S
C1962 H1946 0.931 . S
C1962 C1956 1.383 . S
C1962 C1961 1.379 . S
H1963 C1957 0.959 . S
H1964 C1957 0.961 . S
H1965 C1957 0.960 . S
H1966 C1958 0.930 . S
H1967 C1959 0.929 . S
H1968 C1976 0.929 . S
H1969 C1978 0.930 1_455 S
H1970 C1980 0.930 . S
H1971 C1983 0.929 . S
H1972 C1986 0.930 . S
H1973 C1988 0.960 . S
H1974 C1988 0.960 . S
H1975 C1988 0.960 . S
C1976 H1968 0.929 . S
C1976 C1977 1.377 . S
C1976 C1978 1.384 . S
C1977 C1976 1.377 . S
C1977 C1983 1.390 . S
C1978 H1969 0.930 1_655 S
C1978 C1976 1.384 . S
C1978 C1979 1.372 . S
C1979 C1978 1.372 . S
C1979 C1980 1.400 . S
C1979 C1984 1.490 . S
C1980 H1970 0.930 . S
C1980 C1979 1.400 . S
C1980 C1983 1.386 . S
H1981 C1997 0.930 . S
H1982 C1998 0.931 1_655 S
C1983 H1971 0.929 . S
C1983 C1977 1.390 . S
C1983 C1980 1.386 . S
C1984 C1979 1.490 . S
C1984 C1986 1.395 . S
C1984 C1987 1.403 . S
H1985 C1991 0.930 . S
C1986 H1972 0.930 . S
C1986 C1984 1.395 . S
C1986 C1989 1.403 1_655 S
C1987 C1984 1.403 . S
C1987 C1988 1.524 . S
C1987 C1991 1.400 1_655 S
C1988 H1973 0.960 . S
C1988 H1974 0.960 . S
C1988 H1975 0.960 . S
C1988 C1987 1.524 . S
C1989 C1986 1.403 1_455 S
C1989 C1990 1.392 . S
C1989 C1993 1.495 . S
C1990 C1989 1.392 . S
C1990 C1991 1.385 . S
C1990 C1992 1.478 . S
C1991 H1985 0.930 . S
C1991 C1987 1.400 1_455 S
C1991 C1990 1.385 . S
C1992 C1990 1.478 . S
C1992 C1994 1.381 . S
C1992 C1998 1.383 . S
C1993 C1989 1.495 . S
C1993 H1999 0.959 . S
C1993 H2000 0.961 . S
C1993 H2001 0.960 . S
C1994 C1992 1.381 . S
C1994 C1995 1.394 . S
C1994 H2002 0.930 . S
C1995 C1994 1.394 . S
C1995 C1996 1.383 . S
C1995 H2003 0.929 . S
C1996 C1995 1.383 . S
C1996 C1997 1.377 . S
C1997 H1981 0.930 . S
C1997 C1996 1.377 . S
C1997 C1998 1.379 . S
C1998 H1982 0.931 1_455 S
C1998 C1992 1.383 . S
C1998 C1997 1.379 . S
H1999 C1993 0.959 . S
H2000 C1993 0.961 . S
H2001 C1993 0.960 . S
H2002 C1994 0.930 . S
H2003 C1995 0.929 . S
H2004 C2012 0.929 . S
H2005 C2014 0.930 . S
H2006 C2016 0.930 . S
H2007 C2019 0.929 . S
H2008 C2022 0.930 . S
H2009 C2024 0.960 . S
H2010 C2024 0.960 . S
H2011 C2024 0.960 . S
C2012 H2004 0.929 . S
C2012 C2013 1.377 . S
C2012 C2014 1.384 . S
C2013 C2012 1.377 . S
C2013 C2019 1.390 . S
C2014 H2005 0.930 . S
C2014 C2012 1.384 . S
C2014 C2015 1.372 . S
C2015 C2014 1.372 . S
C2015 C2016 1.400 . S
C2015 C2020 1.490 . S
C2016 H2006 0.930 . S
C2016 C2015 1.400 . S
C2016 C2019 1.386 . S
H2017 C2033 0.930 . S
H2018 C2034 0.931 . S
C2019 H2007 0.929 . S
C2019 C2013 1.390 . S
C2019 C2016 1.386 . S
C2020 C2015 1.490 . S
C2020 C2022 1.395 . S
C2020 C2023 1.403 . S
H2021 C2027 0.930 . S
C2022 H2008 0.930 . S
C2022 C2020 1.395 . S
C2022 C2025 1.403 . S
C2023 C2020 1.403 . S
C2023 C2024 1.524 . S
C2023 C2027 1.400 . S
C2024 H2009 0.960 . S
C2024 H2010 0.960 . S
C2024 H2011 0.960 . S
C2024 C2023 1.524 . S
C2025 C2022 1.403 . S
C2025 C2026 1.392 . S
C2025 C2029 1.495 . S
C2026 C2025 1.392 . S
C2026 C2027 1.385 . S
C2026 C2028 1.478 . S
C2027 H2021 0.930 . S
C2027 C2023 1.400 . S
C2027 C2026 1.385 . S
C2028 C2026 1.478 . S
C2028 C2030 1.381 . S
C2028 C2034 1.383 . S
C2029 C2025 1.495 . S
C2029 H2035 0.959 . S
C2029 H2036 0.961 . S
C2029 H2037 0.960 . S
C2030 C2028 1.381 . S
C2030 C2031 1.394 . S
C2030 H2038 0.930 . S
C2031 C2030 1.394 . S
C2031 C2032 1.383 . S
C2031 H2039 0.929 . S
C2032 C2031 1.383 . S
C2032 C2033 1.377 . S
C2033 H2017 0.930 . S
C2033 C2032 1.377 . S
C2033 C2034 1.379 . S
C2034 H2018 0.931 . S
C2034 C2028 1.383 . S
C2034 C2033 1.379 . S
H2035 C2029 0.959 . S
H2036 C2029 0.961 . S
H2037 C2029 0.960 . S
H2038 C2030 0.930 . S
H2039 C2031 0.929 . S
H2040 C2048 0.929 . S
H2041 C2050 0.930 . S
H2042 C2052 0.930 . S
H2043 C2055 0.929 . S
H2044 C2058 0.930 . S
H2045 C2060 0.960 . S
H2046 C2060 0.960 . S
H2047 C2060 0.960 . S
C2048 H2040 0.929 . S
C2048 C2049 1.377 . S
C2048 C2050 1.384 . S
C2049 C2048 1.377 . S
C2049 C2055 1.390 . S
C2050 H2041 0.930 . S
C2050 C2048 1.384 . S
C2050 C2051 1.372 . S
C2051 C2050 1.372 . S
C2051 C2052 1.400 . S
C2051 C2056 1.490 . S
C2052 H2042 0.930 . S
C2052 C2051 1.400 . S
C2052 C2055 1.386 . S
H2053 C2069 0.930 . S
H2054 C2070 0.931 . S
C2055 H2043 0.929 . S
C2055 C2049 1.390 . S
C2055 C2052 1.386 . S
C2056 C2051 1.490 . S
C2056 C2058 1.395 . S
C2056 C2059 1.403 . S
H2057 C2063 0.930 . S
C2058 H2044 0.930 . S
C2058 C2056 1.395 . S
C2058 C2061 1.403 . S
C2059 C2056 1.403 . S
C2059 C2060 1.524 . S
C2059 C2063 1.400 . S
C2060 H2045 0.960 . S
C2060 H2046 0.960 . S
C2060 H2047 0.960 . S
C2060 C2059 1.524 . S
C2061 C2058 1.403 . S
C2061 C2062 1.392 . S
C2061 C2065 1.495 . S
C2062 C2061 1.392 . S
C2062 C2063 1.385 . S
C2062 C2064 1.478 . S
C2063 H2057 0.930 . S
C2063 C2059 1.400 . S
C2063 C2062 1.385 . S
C2064 C2062 1.478 . S
C2064 C2066 1.381 . S
C2064 C2070 1.383 . S
C2065 C2061 1.495 . S
C2065 H2071 0.959 . S
C2065 H2072 0.961 . S
C2065 H2073 0.960 . S
C2066 C2064 1.381 . S
C2066 C2067 1.394 . S
C2066 H2074 0.930 . S
C2067 C2066 1.394 . S
C2067 C2068 1.383 . S
C2067 H2075 0.929 . S
C2068 C2067 1.383 . S
C2068 C2069 1.377 . S
C2069 H2053 0.930 . S
C2069 C2068 1.377 . S
C2069 C2070 1.379 . S
C2070 H2054 0.931 . S
C2070 C2064 1.383 . S
C2070 C2069 1.379 . S
H2071 C2065 0.959 . S
H2072 C2065 0.961 . S
H2073 C2065 0.960 . S
H2074 C2066 0.930 . S
H2075 C2067 0.929 . S
H2076 C2084 0.929 . S
H2077 C2086 0.930 . S
H2078 C2088 0.930 . S
H2079 C2091 0.929 . S
H2080 C2094 0.930 . S
H2081 C2096 0.960 . S
H2082 C2096 0.960 . S
H2083 C2096 0.960 . S
C2084 H2076 0.929 . S
C2084 C2085 1.377 . S
C2084 C2086 1.384 . S
C2085 C2084 1.377 . S
C2085 C2091 1.390 . S
C2086 H2077 0.930 . S
C2086 C2084 1.384 . S
C2086 C2087 1.372 . S
C2087 C2086 1.372 . S
C2087 C2088 1.400 . S
C2087 C2092 1.490 . S
C2088 H2078 0.930 . S
C2088 C2087 1.400 . S
C2088 C2091 1.386 . S
H2089 C2105 0.930 . S
H2090 C2106 0.931 . S
C2091 H2079 0.929 . S
C2091 C2085 1.390 . S
C2091 C2088 1.386 . S
C2092 C2087 1.490 . S
C2092 C2094 1.395 . S
C2092 C2095 1.403 . S
H2093 C2099 0.930 . S
C2094 H2080 0.930 . S
C2094 C2092 1.395 . S
C2094 C2097 1.403 . S
C2095 C2092 1.403 . S
C2095 C2096 1.524 . S
C2095 C2099 1.400 . S
C2096 H2081 0.960 . S
C2096 H2082 0.960 . S
C2096 H2083 0.960 . S
C2096 C2095 1.524 . S
C2097 C2094 1.403 . S
C2097 C2098 1.392 . S
C2097 C2101 1.495 . S
C2098 C2097 1.392 . S
C2098 C2099 1.385 . S
C2098 C2100 1.478 . S
C2099 H2093 0.930 . S
C2099 C2095 1.400 . S
C2099 C2098 1.385 . S
C2100 C2098 1.478 . S
C2100 C2102 1.381 . S
C2100 C2106 1.383 . S
C2101 C2097 1.495 . S
C2101 H2107 0.959 . S
C2101 H2108 0.961 . S
C2101 H2109 0.960 . S
C2102 C2100 1.381 . S
C2102 C2103 1.394 . S
C2102 H2110 0.930 . S
C2103 C2102 1.394 . S
C2103 C2104 1.383 . S
C2103 H2111 0.929 . S
C2104 C2103 1.383 . S
C2104 C2105 1.377 . S
C2105 H2089 0.930 . S
C2105 C2104 1.377 . S
C2105 C2106 1.379 . S
C2106 H2090 0.931 . S
C2106 C2100 1.383 . S
C2106 C2105 1.379 . S
H2107 C2101 0.959 . S
H2108 C2101 0.961 . S
H2109 C2101 0.960 . S
H2110 C2102 0.930 . S
H2111 C2103 0.929 . S
H2112 C2120 0.929 . S
H2113 C2122 0.930 . S
H2114 C2124 0.930 . S
H2115 C2127 0.929 . S
H2116 C2130 0.930 . S
H2117 C2132 0.960 . S
H2118 C2132 0.960 . S
H2119 C2132 0.960 . S
C2120 H2112 0.929 . S
C2120 C2121 1.377 . S
C2120 C2122 1.384 . S
C2121 C2120 1.377 . S
C2121 C2127 1.390 . S
C2122 H2113 0.930 . S
C2122 C2120 1.384 . S
C2122 C2123 1.372 . S
C2123 C2122 1.372 . S
C2123 C2124 1.400 . S
C2123 C2128 1.484 1_655 S
C2124 H2114 0.930 . S
C2124 C2123 1.400 . S
C2124 C2127 1.386 . S
H2125 C2141 0.930 . S
H2126 C2142 0.931 . S
C2127 H2115 0.929 . S
C2127 C2121 1.390 . S
C2127 C2124 1.386 . S
C2128 C2123 1.484 1_455 S
C2128 C2130 1.405 . S
C2128 C2131 1.398 1_455 S
H2129 C2135 0.930 1_655 S
C2130 H2116 0.930 . S
C2130 C2128 1.405 . S
C2130 C2133 1.403 . S
C2131 C2128 1.398 1_655 S
C2131 C2132 1.524 . S
C2131 C2135 1.400 1_655 S
C2132 H2117 0.960 . S
C2132 H2118 0.960 . S
C2132 H2119 0.960 . S
C2132 C2131 1.524 . S
C2133 C2130 1.403 . S
C2133 C2134 1.392 . S
C2133 C2137 1.495 . S
C2134 C2133 1.392 . S
C2134 C2135 1.385 . S
C2134 C2136 1.478 . S
C2135 H2129 0.930 1_455 S
C2135 C2131 1.400 1_455 S
C2135 C2134 1.385 . S
C2136 C2134 1.478 . S
C2136 C2138 1.381 . S
C2136 C2142 1.383 . S
C2137 C2133 1.495 . S
C2137 H2143 0.959 . S
C2137 H2144 0.961 . S
C2137 H2145 0.960 . S
C2138 C2136 1.381 . S
C2138 C2139 1.394 . S
C2138 H2146 0.930 . S
C2139 C2138 1.394 . S
C2139 C2140 1.383 . S
C2139 H2147 0.929 . S
C2140 C2139 1.383 . S
C2140 C2141 1.377 . S
C2141 H2125 0.930 . S
C2141 C2140 1.377 . S
C2141 C2142 1.379 . S
C2142 H2126 0.931 . S
C2142 C2136 1.383 . S
C2142 C2141 1.379 . S
H2143 C2137 0.959 . S
H2144 C2137 0.961 . S
H2145 C2137 0.960 . S
H2146 C2138 0.930 . S
H2147 C2139 0.929 . S
H2148 C2156 0.929 . S
H2149 C2158 0.930 . S
H2150 C2160 0.930 . S
H2151 C2163 0.929 . S
H2152 C2166 0.930 . S
H2153 C2168 0.960 . S
H2154 C2168 0.960 . S
H2155 C2168 0.960 . S
C2156 H2148 0.929 . S
C2156 C2157 1.377 . S
C2156 C2158 1.384 . S
C2157 C2156 1.377 . S
C2157 C2163 1.390 . S
C2158 H2149 0.930 . S
C2158 C2156 1.384 . S
C2158 C2159 1.372 . S
C2159 C2158 1.372 . S
C2159 C2160 1.400 . S
C2159 C2164 1.490 . S
C2160 H2150 0.930 . S
C2160 C2159 1.400 . S
C2160 C2163 1.386 . S
H2161 C2177 0.930 . S
H2162 C2178 0.931 . S
C2163 H2151 0.929 . S
C2163 C2157 1.390 . S
C2163 C2160 1.386 . S
C2164 C2159 1.490 . S
C2164 C2166 1.395 . S
C2164 C2167 1.403 . S
H2165 C2171 0.930 . S
C2166 H2152 0.930 . S
C2166 C2164 1.395 . S
C2166 C2169 1.403 . S
C2167 C2164 1.403 . S
C2167 C2168 1.524 . S
C2167 C2171 1.400 . S
C2168 H2153 0.960 . S
C2168 H2154 0.960 . S
C2168 H2155 0.960 . S
C2168 C2167 1.524 . S
C2169 C2166 1.403 . S
C2169 C2170 1.392 . S
C2169 C2173 1.495 . S
C2170 C2169 1.392 . S
C2170 C2171 1.385 . S
C2170 C2172 1.478 . S
C2171 H2165 0.930 . S
C2171 C2167 1.400 . S
C2171 C2170 1.385 . S
C2172 C2170 1.478 . S
C2172 C2174 1.381 . S
C2172 C2178 1.383 . S
C2173 C2169 1.495 . S
C2173 H2179 0.959 . S
C2173 H2180 0.961 . S
C2173 H2181 0.960 . S
C2174 C2172 1.381 . S
C2174 C2175 1.394 . S
C2174 H2182 0.930 . S
C2175 C2174 1.394 . S
C2175 C2176 1.383 . S
C2175 H2183 0.929 . S
C2176 C2175 1.383 . S
C2176 C2177 1.377 . S
C2177 H2161 0.930 . S
C2177 C2176 1.377 . S
C2177 C2178 1.379 . S
C2178 H2162 0.931 . S
C2178 C2172 1.383 . S
C2178 C2177 1.379 . S
H2179 C2173 0.959 . S
H2180 C2173 0.961 . S
H2181 C2173 0.960 . S
H2182 C2174 0.930 . S
H2183 C2175 0.929 . S
H2184 C2192 0.929 . S
H2185 C2194 0.930 . S
H2186 C2196 0.930 . S
H2187 C2199 0.929 . S
H2188 C2202 0.930 . S
H2189 C2204 0.960 . S
H2190 C2204 0.960 . S
H2191 C2204 0.960 . S
C2192 H2184 0.929 . S
C2192 C2193 1.377 . S
C2192 C2194 1.384 . S
C2193 C2192 1.377 . S
C2193 C2199 1.390 . S
C2194 H2185 0.930 . S
C2194 C2192 1.384 . S
C2194 C2195 1.372 . S
C2195 C2194 1.372 . S
C2195 C2196 1.400 . S
C2195 C2200 1.490 . S
C2196 H2186 0.930 . S
C2196 C2195 1.400 . S
C2196 C2199 1.386 . S
H2197 C2213 0.930 . S
H2198 C2214 0.931 . S
C2199 H2187 0.929 . S
C2199 C2193 1.390 . S
C2199 C2196 1.386 . S
C2200 C2195 1.490 . S
C2200 C2202 1.395 . S
C2200 C2203 1.403 . S
H2201 C2207 0.930 . S
C2202 H2188 0.930 . S
C2202 C2200 1.395 . S
C2202 C2205 1.403 . S
C2203 C2200 1.403 . S
C2203 C2204 1.524 . S
C2203 C2207 1.400 . S
C2204 H2189 0.960 . S
C2204 H2190 0.960 . S
C2204 H2191 0.960 . S
C2204 C2203 1.524 . S
C2205 C2202 1.403 . S
C2205 C2206 1.392 . S
C2205 C2209 1.495 . S
C2206 C2205 1.392 . S
C2206 C2207 1.385 . S
C2206 C2208 1.478 . S
C2207 H2201 0.930 . S
C2207 C2203 1.400 . S
C2207 C2206 1.385 . S
C2208 C2206 1.478 . S
C2208 C2210 1.381 . S
C2208 C2214 1.383 . S
C2209 C2205 1.495 . S
C2209 H2215 0.959 . S
C2209 H2216 0.961 . S
C2209 H2217 0.960 . S
C2210 C2208 1.381 . S
C2210 C2211 1.394 . S
C2210 H2218 0.930 . S
C2211 C2210 1.394 . S
C2211 C2212 1.383 . S
C2211 H2219 0.929 . S
C2212 C2211 1.383 . S
C2212 C2213 1.377 . S
C2213 H2197 0.930 . S
C2213 C2212 1.377 . S
C2213 C2214 1.379 . S
C2214 H2198 0.931 . S
C2214 C2208 1.383 . S
C2214 C2213 1.379 . S
H2215 C2209 0.959 . S
H2216 C2209 0.961 . S
H2217 C2209 0.960 . S
H2218 C2210 0.930 . S
H2219 C2211 0.929 . S
H2220 C2228 0.929 . S
H2221 C2230 0.930 . S
H2222 C2232 0.930 . S
H2223 C2235 0.929 . S
H2224 C2238 0.930 . S
H2225 C2240 0.960 . S
H2226 C2240 0.960 . S
H2227 C2240 0.960 . S
C2228 H2220 0.929 . S
C2228 C2229 1.377 . S
C2228 C2230 1.384 . S
C2229 C2228 1.377 . S
C2229 C2235 1.390 . S
C2230 H2221 0.930 . S
C2230 C2228 1.384 . S
C2230 C2231 1.372 . S
C2231 C2230 1.372 . S
C2231 C2232 1.400 . S
C2231 C2236 1.490 . S
C2232 H2222 0.930 . S
C2232 C2231 1.400 . S
C2232 C2235 1.386 . S
H2233 C2249 0.930 . S
H2234 C2250 0.931 . S
C2235 H2223 0.929 . S
C2235 C2229 1.390 . S
C2235 C2232 1.386 . S
C2236 C2231 1.490 . S
C2236 C2238 1.395 . S
C2236 C2239 1.403 . S
H2237 C2243 0.930 . S
C2238 H2224 0.930 . S
C2238 C2236 1.395 . S
C2238 C2241 1.403 . S
C2239 C2236 1.403 . S
C2239 C2240 1.524 . S
C2239 C2243 1.400 . S
C2240 H2225 0.960 . S
C2240 H2226 0.960 . S
C2240 H2227 0.960 . S
C2240 C2239 1.524 . S
C2241 C2238 1.403 . S
C2241 C2242 1.392 . S
C2241 C2245 1.495 . S
C2242 C2241 1.392 . S
C2242 C2243 1.385 . S
C2242 C2244 1.478 . S
C2243 H2237 0.930 . S
C2243 C2239 1.400 . S
C2243 C2242 1.385 . S
C2244 C2242 1.478 . S
C2244 C2246 1.381 . S
C2244 C2250 1.383 . S
C2245 C2241 1.495 . S
C2245 H2251 0.959 . S
C2245 H2252 0.961 . S
C2245 H2253 0.960 . S
C2246 C2244 1.381 . S
C2246 C2247 1.394 . S
C2246 H2254 0.930 . S
C2247 C2246 1.394 . S
C2247 C2248 1.383 . S
C2247 H2255 0.929 . S
C2248 C2247 1.383 . S
C2248 C2249 1.377 . S
C2249 H2233 0.930 . S
C2249 C2248 1.377 . S
C2249 C2250 1.379 . S
C2250 H2234 0.931 . S
C2250 C2244 1.383 . S
C2250 C2249 1.379 . S
H2251 C2245 0.959 . S
H2252 C2245 0.961 . S
H2253 C2245 0.960 . S
H2254 C2246 0.930 . S
H2255 C2247 0.929 . S
H2256 C2264 0.929 . S
H2257 C2266 0.930 . S
H2258 C2268 0.928 . S
H2259 C2271 0.929 1_556 S
H2260 C2274 0.930 1_545 S
H2261 C2276 0.960 . S
H2262 C2276 0.960 . S
H2263 C2276 0.960 . S
C2264 H2256 0.929 . S
C2264 C2265 1.377 . S
C2264 C2266 1.384 . S
C2265 C2264 1.377 . S
C2265 C2271 1.390 . S
C2266 H2257 0.930 . S
C2266 C2264 1.384 . S
C2266 C2267 1.372 . S
C2267 C2266 1.372 . S
C2267 C2268 1.400 . S
C2267 C2272 1.490 . S
C2268 H2258 0.928 . S
C2268 C2267 1.400 . S
C2268 C2271 1.386 . S
H2269 C2285 0.930 . S
H2270 C2286 0.936 1_565 S
C2271 H2259 0.929 1_554 S
C2271 C2265 1.390 . S
C2271 C2268 1.386 . S
C2272 C2267 1.490 . S
C2272 C2274 1.395 . S
C2272 C2275 1.403 . S
H2273 C2279 0.930 . S
C2274 H2260 0.930 1_565 S
C2274 C2272 1.395 . S
C2274 C2277 1.403 1_565 S
C2275 C2272 1.403 . S
C2275 C2276 1.524 . S
C2275 C2279 1.400 . S
C2276 H2261 0.960 . S
C2276 H2262 0.960 . S
C2276 H2263 0.960 . S
C2276 C2275 1.524 . S
C2277 C2274 1.403 1_545 S
C2277 C2278 1.380 1_545 S
C2277 C2281 1.495 . S
C2278 C2277 1.380 1_565 S
C2278 C2279 1.428 . S
C2278 C2280 1.450 1_565 S
C2279 H2273 0.930 . S
C2279 C2275 1.400 . S
C2279 C2278 1.428 . S
C2280 C2278 1.450 1_545 S
C2280 C2282 1.381 . S
C2280 C2286 1.382 . S
C2281 C2277 1.495 . S
C2281 H2287 0.959 . S
C2281 H2288 0.961 . S
C2281 H2289 0.960 . S
C2282 C2280 1.381 . S
C2282 C2283 1.394 . S
C2282 H2290 0.930 . S
C2283 C2282 1.394 . S
C2283 C2284 1.383 . S
C2283 H2291 0.929 . S
C2284 C2283 1.383 . S
C2284 C2285 1.377 . S
C2285 H2269 0.930 . S
C2285 C2284 1.377 . S
C2285 C2286 1.376 . S
C2286 H2270 0.936 1_545 S
C2286 C2280 1.382 . S
C2286 C2285 1.376 . S
H2287 C2281 0.959 . S
H2288 C2281 0.961 . S
H2289 C2281 0.960 . S
H2290 C2282 0.930 . S
H2291 C2283 0.929 . S
H2292 C2300 0.929 . S
H2293 C2302 0.930 . S
H2294 C2304 0.930 . S
H2295 C2307 0.929 . S
H2296 C2310 0.930 . S
H2297 C2312 0.960 . S
H2298 C2312 0.960 . S
H2299 C2312 0.960 1_554 S
C2300 H2292 0.929 . S
C2300 C2301 1.368 1_556 S
C2300 C2302 1.384 . S
C2301 C2300 1.368 1_554 S
C2301 C2307 1.404 . S
C2302 H2293 0.930 . S
C2302 C2300 1.384 . S
C2302 C2303 1.372 1_556 S
C2303 C2302 1.372 1_554 S
C2303 C2304 1.400 . S
C2303 C2308 1.490 . S
C2304 H2294 0.930 . S
C2304 C2303 1.400 . S
C2304 C2307 1.386 . S
H2305 C2321 0.930 . S
H2306 C2322 0.931 . S
C2307 H2295 0.929 . S
C2307 C2301 1.404 . S
C2307 C2304 1.386 . S
C2308 C2303 1.490 . S
C2308 C2310 1.395 . S
C2308 C2311 1.403 . S
H2309 C2315 0.933 . S
C2310 H2296 0.930 . S
C2310 C2308 1.395 . S
C2310 C2313 1.403 . S
C2311 C2308 1.403 . S
C2311 C2312 1.523 1_554 S
C2311 C2315 1.400 . S
C2312 H2297 0.960 . S
C2312 H2298 0.960 . S
C2312 H2299 0.960 1_556 S
C2312 C2311 1.523 1_556 S
C2313 C2310 1.403 . S
C2313 C2314 1.392 . S
C2313 C2317 1.495 . S
C2314 C2313 1.392 . S
C2314 C2315 1.385 . S
C2314 C2316 1.478 . S
C2315 H2309 0.933 . S
C2315 C2311 1.400 . S
C2315 C2314 1.385 . S
C2316 C2314 1.478 . S
C2316 C2318 1.381 1_554 S
C2316 C2322 1.383 . S
C2317 C2313 1.495 . S
C2317 H2323 0.959 . S
C2317 H2324 0.961 . S
C2317 H2325 0.996 . S
C2318 C2316 1.381 1_556 S
C2318 C2319 1.394 . S
C2318 H2326 0.930 . S
C2319 C2318 1.394 . S
C2319 C2320 1.383 1_556 S
C2319 H2327 0.929 . S
C2320 C2319 1.383 1_554 S
C2320 C2321 1.377 . S
C2321 H2305 0.930 . S
C2321 C2320 1.377 . S
C2321 C2322 1.379 . S
C2322 H2306 0.931 . S
C2322 C2316 1.383 . S
C2322 C2321 1.379 . S
H2323 C2317 0.959 . S
H2324 C2317 0.961 . S
H2325 C2317 0.996 . S
H2326 C2318 0.930 . S
H2327 C2319 0.929 . S
H2328 C2336 0.929 . S
H2329 C2338 0.930 . S
H2330 C2340 0.930 . S
H2331 C2343 0.929 . S
H2332 C2346 0.930 . S
H2333 C2348 0.960 . S
H2334 C2348 0.960 . S
H2335 C2348 0.960 . S
C2336 H2328 0.929 . S
C2336 C2337 1.377 . S
C2336 C2338 1.384 . S
C2337 C2336 1.377 . S
C2337 C2343 1.390 . S
C2338 H2329 0.930 . S
C2338 C2336 1.384 . S
C2338 C2339 1.372 . S
C2339 C2338 1.372 . S
C2339 C2340 1.400 . S
C2339 C2344 1.490 . S
C2340 H2330 0.930 . S
C2340 C2339 1.400 . S
C2340 C2343 1.386 . S
H2341 C2357 0.930 . S
H2342 C2358 0.931 . S
C2343 H2331 0.929 . S
C2343 C2337 1.390 . S
C2343 C2340 1.386 . S
C2344 C2339 1.490 . S
C2344 C2346 1.395 . S
C2344 C2347 1.403 . S
H2345 C2351 0.930 . S
C2346 H2332 0.930 . S
C2346 C2344 1.395 . S
C2346 C2349 1.403 . S
C2347 C2344 1.403 . S
C2347 C2348 1.524 . S
C2347 C2351 1.400 . S
C2348 H2333 0.960 . S
C2348 H2334 0.960 . S
C2348 H2335 0.960 . S
C2348 C2347 1.524 . S
C2349 C2346 1.403 . S
C2349 C2350 1.392 . S
C2349 C2353 1.495 . S
C2350 C2349 1.392 . S
C2350 C2351 1.385 . S
C2350 C2352 1.478 . S
C2351 H2345 0.930 . S
C2351 C2347 1.400 . S
C2351 C2350 1.385 . S
C2352 C2350 1.478 . S
C2352 C2354 1.381 . S
C2352 C2358 1.383 . S
C2353 C2349 1.495 . S
C2353 H2359 0.959 . S
C2353 H2360 0.961 . S
C2353 H2361 0.960 . S
C2354 C2352 1.381 . S
C2354 C2355 1.394 . S
C2354 H2362 0.930 . S
C2355 C2354 1.394 . S
C2355 C2356 1.383 . S
C2355 H2363 0.929 . S
C2356 C2355 1.383 . S
C2356 C2357 1.377 . S
C2357 H2341 0.930 . S
C2357 C2356 1.377 . S
C2357 C2358 1.379 . S
C2358 H2342 0.931 . S
C2358 C2352 1.383 . S
C2358 C2357 1.379 . S
H2359 C2353 0.959 . S
H2360 C2353 0.961 . S
H2361 C2353 0.960 . S
H2362 C2354 0.930 . S
H2363 C2355 0.929 . S
H2364 C2372 0.929 . S
H2365 C2374 0.930 . S
H2366 C2376 0.930 . S
H2367 C2379 0.929 . S
H2368 C2382 0.930 . S
H2369 C2384 0.960 . S
H2370 C2384 0.960 . S
H2371 C2384 0.960 . S
C2372 H2364 0.929 . S
C2372 C2373 1.377 . S
C2372 C2374 1.384 . S
C2373 C2372 1.377 . S
C2373 C2379 1.390 . S
C2374 H2365 0.930 . S
C2374 C2372 1.384 . S
C2374 C2375 1.372 . S
C2375 C2374 1.372 . S
C2375 C2376 1.400 . S
C2375 C2380 1.490 . S
C2376 H2366 0.930 . S
C2376 C2375 1.400 . S
C2376 C2379 1.386 . S
H2377 C2393 0.930 . S
H2378 C2394 0.931 . S
C2379 H2367 0.929 . S
C2379 C2373 1.390 . S
C2379 C2376 1.386 . S
C2380 C2375 1.490 . S
C2380 C2382 1.395 . S
C2380 C2383 1.403 . S
H2381 C2387 0.930 . S
C2382 H2368 0.930 . S
C2382 C2380 1.395 . S
C2382 C2385 1.403 . S
C2383 C2380 1.403 . S
C2383 C2384 1.524 . S
C2383 C2387 1.400 . S
C2384 H2369 0.960 . S
C2384 H2370 0.960 . S
C2384 H2371 0.960 . S
C2384 C2383 1.524 . S
C2385 C2382 1.403 . S
C2385 C2386 1.392 . S
C2385 C2389 1.495 . S
C2386 C2385 1.392 . S
C2386 C2387 1.385 . S
C2386 C2388 1.478 . S
C2387 H2381 0.930 . S
C2387 C2383 1.400 . S
C2387 C2386 1.385 . S
C2388 C2386 1.478 . S
C2388 C2390 1.381 . S
C2388 C2394 1.383 . S
C2389 C2385 1.495 . S
C2389 H2395 0.959 . S
C2389 H2396 0.961 . S
C2389 H2397 0.960 . S
C2390 C2388 1.381 . S
C2390 C2391 1.361 1_655 S
C2390 H2398 0.930 . S
C2391 C2390 1.361 1_455 S
C2391 C2392 1.410 . S
C2391 H2399 0.937 . S
C2392 C2391 1.410 . S
C2392 C2393 1.377 . S
C2393 H2377 0.930 . S
C2393 C2392 1.377 . S
C2393 C2394 1.379 1_455 S
C2394 H2378 0.931 . S
C2394 C2388 1.383 . S
C2394 C2393 1.379 1_655 S
H2395 C2389 0.959 . S
H2396 C2389 0.961 . S
H2397 C2389 0.960 . S
H2398 C2390 0.930 . S
H2399 C2391 0.937 . S
H2400 C2408 0.929 . S
H2401 C2410 0.930 . S
H2402 C2412 0.930 . S
H2403 C2415 0.929 . S
H2404 C2418 0.930 . S
H2405 C2420 0.960 . S
H2406 C2420 0.960 . S
H2407 C2420 0.960 . S
C2408 H2400 0.929 . S
C2408 C2409 1.377 . S
C2408 C2410 1.384 . S
C2409 C2408 1.377 . S
C2409 C2415 1.390 . S
C2410 H2401 0.930 . S
C2410 C2408 1.384 . S
C2410 C2411 1.372 . S
C2411 C2410 1.372 . S
C2411 C2412 1.400 . S
C2411 C2416 1.490 . S
C2412 H2402 0.930 . S
C2412 C2411 1.400 . S
C2412 C2415 1.386 . S
H2413 C2429 0.930 . S
H2414 C2430 0.931 . S
C2415 H2403 0.929 . S
C2415 C2409 1.390 . S
C2415 C2412 1.386 . S
C2416 C2411 1.490 . S
C2416 C2418 1.395 . S
C2416 C2419 1.403 . S
H2417 C2423 0.930 . S
C2418 H2404 0.930 . S
C2418 C2416 1.395 . S
C2418 C2421 1.403 . S
C2419 C2416 1.403 . S
C2419 C2420 1.524 . S
C2419 C2423 1.400 . S
C2420 H2405 0.960 . S
C2420 H2406 0.960 . S
C2420 H2407 0.960 . S
C2420 C2419 1.524 . S
C2421 C2418 1.403 . S
C2421 C2422 1.392 . S
C2421 C2425 1.495 . S
C2422 C2421 1.392 . S
C2422 C2423 1.385 . S
C2422 C2424 1.478 . S
C2423 H2417 0.930 . S
C2423 C2419 1.400 . S
C2423 C2422 1.385 . S
C2424 C2422 1.478 . S
C2424 C2426 1.381 . S
C2424 C2430 1.383 . S
C2425 C2421 1.495 . S
C2425 H2431 0.959 . S
C2425 H2432 0.961 . S
C2425 H2433 0.960 . S
C2426 C2424 1.381 . S
C2426 C2427 1.394 . S
C2426 H2434 0.930 . S
C2427 C2426 1.394 . S
C2427 C2428 1.383 . S
C2427 H2435 0.929 . S
C2428 C2427 1.383 . S
C2428 C2429 1.377 . S
C2429 H2413 0.930 . S
C2429 C2428 1.377 . S
C2429 C2430 1.379 . S
C2430 H2414 0.931 . S
C2430 C2424 1.383 . S
C2430 C2429 1.379 . S
H2431 C2425 0.959 . S
H2432 C2425 0.961 . S
H2433 C2425 0.960 . S
H2434 C2426 0.930 . S
H2435 C2427 0.929 . S
H2436 C2444 0.929 . S
H2437 C2446 0.930 . S
H2438 C2448 0.930 . S
H2439 C2451 0.929 . S
H2440 C2454 0.930 . S
H2441 C2456 0.960 . S
H2442 C2456 0.960 . S
H2443 C2456 0.960 . S
C2444 H2436 0.929 . S
C2444 C2445 1.377 . S
C2444 C2446 1.384 . S
C2445 C2444 1.377 . S
C2445 C2451 1.390 . S
C2446 H2437 0.930 . S
C2446 C2444 1.384 . S
C2446 C2447 1.372 . S
C2447 C2446 1.372 . S
C2447 C2448 1.400 . S
C2447 C2452 1.490 . S
C2448 H2438 0.930 . S
C2448 C2447 1.400 . S
C2448 C2451 1.386 . S
H2449 C2465 0.930 . S
H2450 C2466 0.931 . S
C2451 H2439 0.929 . S
C2451 C2445 1.390 . S
C2451 C2448 1.386 . S
C2452 C2447 1.490 . S
C2452 C2454 1.395 . S
C2452 C2455 1.403 . S
H2453 C2459 0.930 . S
C2454 H2440 0.930 . S
C2454 C2452 1.395 . S
C2454 C2457 1.403 . S
C2455 C2452 1.403 . S
C2455 C2456 1.524 . S
C2455 C2459 1.400 . S
C2456 H2441 0.960 . S
C2456 H2442 0.960 . S
C2456 H2443 0.960 . S
C2456 C2455 1.524 . S
C2457 C2454 1.403 . S
C2457 C2458 1.392 . S
C2457 C2461 1.495 . S
C2458 C2457 1.392 . S
C2458 C2459 1.385 . S
C2458 C2460 1.478 . S
C2459 H2453 0.930 . S
C2459 C2455 1.400 . S
C2459 C2458 1.385 . S
C2460 C2458 1.478 . S
C2460 C2462 1.381 . S
C2460 C2466 1.383 . S
C2461 C2457 1.495 . S
C2461 H2467 0.959 . S
C2461 H2468 0.961 . S
C2461 H2469 0.960 . S
C2462 C2460 1.381 . S
C2462 C2463 1.394 . S
C2462 H2470 0.930 . S
C2463 C2462 1.394 . S
C2463 C2464 1.383 . S
C2463 H2471 0.929 . S
C2464 C2463 1.383 . S
C2464 C2465 1.377 . S
C2465 H2449 0.930 . S
C2465 C2464 1.377 . S
C2465 C2466 1.379 . S
C2466 H2450 0.931 . S
C2466 C2460 1.383 . S
C2466 C2465 1.379 . S
H2467 C2461 0.959 . S
H2468 C2461 0.961 . S
H2469 C2461 0.960 . S
H2470 C2462 0.930 . S
H2471 C2463 0.929 . S
H2472 C2480 0.929 . S
H2473 C2482 0.930 . S
H2474 C2484 0.930 . S
H2475 C2487 0.929 . S
H2476 C2490 0.930 . S
H2477 C2492 0.960 . S
H2478 C2492 0.960 . S
H2479 C2492 0.960 . S
C2480 H2472 0.929 . S
C2480 C2481 1.377 . S
C2480 C2482 1.384 . S
C2481 C2480 1.377 . S
C2481 C2487 1.390 . S
C2482 H2473 0.930 . S
C2482 C2480 1.384 . S
C2482 C2483 1.372 . S
C2483 C2482 1.372 . S
C2483 C2484 1.400 . S
C2483 C2488 1.490 . S
C2484 H2474 0.930 . S
C2484 C2483 1.400 . S
C2484 C2487 1.386 . S
H2485 C2501 0.930 . S
H2486 C2502 0.931 . S
C2487 H2475 0.929 . S
C2487 C2481 1.390 . S
C2487 C2484 1.386 . S
C2488 C2483 1.490 . S
C2488 C2490 1.395 . S
C2488 C2491 1.403 . S
H2489 C2495 0.930 . S
C2490 H2476 0.930 . S
C2490 C2488 1.395 . S
C2490 C2493 1.403 . S
C2491 C2488 1.403 . S
C2491 C2492 1.524 . S
C2491 C2495 1.400 . S
C2492 H2477 0.960 . S
C2492 H2478 0.960 . S
C2492 H2479 0.960 . S
C2492 C2491 1.524 . S
C2493 C2490 1.403 . S
C2493 C2494 1.392 . S
C2493 C2497 1.495 . S
C2494 C2493 1.392 . S
C2494 C2495 1.385 . S
C2494 C2496 1.478 . S
C2495 H2489 0.930 . S
C2495 C2491 1.400 . S
C2495 C2494 1.385 . S
C2496 C2494 1.478 . S
C2496 C2498 1.381 . S
C2496 C2502 1.383 . S
C2497 C2493 1.495 . S
C2497 H2503 0.959 . S
C2497 H2504 0.961 . S
C2497 H2505 0.960 . S
C2498 C2496 1.381 . S
C2498 C2499 1.394 . S
C2498 H2506 0.930 . S
C2499 C2498 1.394 . S
C2499 C2500 1.383 . S
C2499 H2507 0.929 . S
C2500 C2499 1.383 . S
C2500 C2501 1.377 . S
C2501 H2485 0.930 . S
C2501 C2500 1.377 . S
C2501 C2502 1.379 . S
C2502 H2486 0.931 . S
C2502 C2496 1.383 . S
C2502 C2501 1.379 . S
H2503 C2497 0.959 . S
H2504 C2497 0.961 . S
H2505 C2497 0.960 . S
H2506 C2498 0.930 . S
H2507 C2499 0.929 . S
H2508 C2516 0.929 . S
H2509 C2518 0.930 . S
H2510 C2520 0.930 . S
H2511 C2523 0.929 . S
H2512 C2526 0.930 . S
H2513 C2528 0.960 . S
H2514 C2528 0.960 . S
H2515 C2528 0.960 . S
C2516 H2508 0.929 . S
C2516 C2517 1.377 . S
C2516 C2518 1.384 . S
C2517 C2516 1.377 . S
C2517 C2523 1.390 . S
C2518 H2509 0.930 . S
C2518 C2516 1.384 . S
C2518 C2519 1.372 . S
C2519 C2518 1.372 . S
C2519 C2520 1.400 . S
C2519 C2524 1.490 . S
C2520 H2510 0.930 . S
C2520 C2519 1.400 . S
C2520 C2523 1.386 . S
H2521 C2537 0.930 . S
H2522 C2538 0.931 . S
C2523 H2511 0.929 . S
C2523 C2517 1.390 . S
C2523 C2520 1.386 . S
C2524 C2519 1.490 . S
C2524 C2526 1.395 . S
C2524 C2527 1.403 . S
H2525 C2531 0.930 . S
C2526 H2512 0.930 . S
C2526 C2524 1.395 . S
C2526 C2529 1.403 . S
C2527 C2524 1.403 . S
C2527 C2528 1.524 . S
C2527 C2531 1.400 . S
C2528 H2513 0.960 . S
C2528 H2514 0.960 . S
C2528 H2515 0.960 . S
C2528 C2527 1.524 . S
C2529 C2526 1.403 . S
C2529 C2530 1.392 . S
C2529 C2533 1.495 . S
C2530 C2529 1.392 . S
C2530 C2531 1.385 . S
C2530 C2532 1.478 . S
C2531 H2525 0.930 . S
C2531 C2527 1.400 . S
C2531 C2530 1.385 . S
C2532 C2530 1.478 . S
C2532 C2534 1.381 . S
C2532 C2538 1.383 . S
C2533 C2529 1.495 . S
C2533 H2539 0.959 . S
C2533 H2540 0.961 . S
C2533 H2541 0.960 . S
C2534 C2532 1.381 . S
C2534 C2535 1.394 . S
C2534 H2542 0.930 . S
C2535 C2534 1.394 . S
C2535 C2536 1.383 . S
C2535 H2543 0.929 . S
C2536 C2535 1.383 . S
C2536 C2537 1.377 . S
C2537 H2521 0.930 . S
C2537 C2536 1.377 . S
C2537 C2538 1.379 . S
C2538 H2522 0.931 . S
C2538 C2532 1.383 . S
C2538 C2537 1.379 . S
H2539 C2533 0.959 . S
H2540 C2533 0.961 . S
H2541 C2533 0.960 . S
H2542 C2534 0.930 . S
H2543 C2535 0.929 . S
H2544 C2552 0.929 . S
H2545 C2554 0.930 . S
H2546 C2556 0.930 . S
H2547 C2559 0.929 . S
H2548 C2562 0.930 . S
H2549 C2564 0.960 . S
H2550 C2564 0.960 . S
H2551 C2564 0.960 . S
C2552 H2544 0.929 . S
C2552 C2553 1.377 . S
C2552 C2554 1.384 . S
C2553 C2552 1.377 . S
C2553 C2559 1.390 . S
C2554 H2545 0.930 . S
C2554 C2552 1.384 . S
C2554 C2555 1.372 . S
C2555 C2554 1.372 . S
C2555 C2556 1.400 . S
C2555 C2560 1.490 . S
C2556 H2546 0.930 . S
C2556 C2555 1.400 . S
C2556 C2559 1.386 . S
H2557 C2573 0.930 . S
H2558 C2574 0.931 . S
C2559 H2547 0.929 . S
C2559 C2553 1.390 . S
C2559 C2556 1.386 . S
C2560 C2555 1.490 . S
C2560 C2562 1.395 . S
C2560 C2563 1.403 . S
H2561 C2567 0.930 . S
C2562 H2548 0.930 . S
C2562 C2560 1.395 . S
C2562 C2565 1.403 . S
C2563 C2560 1.403 . S
C2563 C2564 1.524 . S
C2563 C2567 1.400 . S
C2564 H2549 0.960 . S
C2564 H2550 0.960 . S
C2564 H2551 0.960 . S
C2564 C2563 1.524 . S
C2565 C2562 1.403 . S
C2565 C2566 1.392 . S
C2565 C2569 1.495 . S
C2566 C2565 1.392 . S
C2566 C2567 1.385 . S
C2566 C2568 1.478 . S
C2567 H2561 0.930 . S
C2567 C2563 1.400 . S
C2567 C2566 1.385 . S
C2568 C2566 1.478 . S
C2568 C2570 1.381 . S
C2568 C2574 1.383 . S
C2569 C2565 1.495 . S
C2569 H2575 0.959 . S
C2569 H2576 0.961 . S
C2569 H2577 0.960 . S
C2570 C2568 1.381 . S
C2570 C2571 1.391 1_565 S
C2570 H2578 0.930 . S
C2571 C2570 1.391 1_545 S
C2571 C2572 1.384 1_545 S
C2571 H2579 0.932 . S
C2572 C2571 1.384 1_565 S
C2572 C2573 1.377 . S
C2573 H2557 0.930 . S
C2573 C2572 1.377 . S
C2573 C2574 1.379 . S
C2574 H2558 0.931 . S
C2574 C2568 1.383 . S
C2574 C2573 1.379 . S
H2575 C2569 0.959 . S
H2576 C2569 0.961 . S
H2577 C2569 0.960 . S
H2578 C2570 0.930 . S
H2579 C2571 0.932 . S
H2580 C2588 0.929 . S
H2581 C2590 0.930 . S
H2582 C2592 0.930 . S
H2583 C2595 0.929 . S
H2584 C2598 0.930 . S
H2585 C2600 0.960 . S
H2586 C2600 0.960 . S
H2587 C2600 0.960 . S
C2588 H2580 0.929 . S
C2588 C2589 1.377 . S
C2588 C2590 1.384 . S
C2589 C2588 1.377 . S
C2589 C2595 1.390 . S
C2590 H2581 0.930 . S
C2590 C2588 1.384 . S
C2590 C2591 1.372 . S
C2591 C2590 1.372 . S
C2591 C2592 1.400 . S
C2591 C2596 1.490 . S
C2592 H2582 0.930 . S
C2592 C2591 1.400 . S
C2592 C2595 1.386 . S
H2593 C2609 0.930 . S
H2594 C2610 0.931 . S
C2595 H2583 0.929 . S
C2595 C2589 1.390 . S
C2595 C2592 1.386 . S
C2596 C2591 1.490 . S
C2596 C2598 1.395 . S
C2596 C2599 1.403 . S
H2597 C2603 0.930 . S
C2598 H2584 0.930 . S
C2598 C2596 1.395 . S
C2598 C2601 1.403 . S
C2599 C2596 1.403 . S
C2599 C2600 1.524 . S
C2599 C2603 1.400 . S
C2600 H2585 0.960 . S
C2600 H2586 0.960 . S
C2600 H2587 0.960 . S
C2600 C2599 1.524 . S
C2601 C2598 1.403 . S
C2601 C2602 1.392 . S
C2601 C2605 1.495 . S
C2602 C2601 1.392 . S
C2602 C2603 1.385 . S
C2602 C2604 1.478 . S
C2603 H2597 0.930 . S
C2603 C2599 1.400 . S
C2603 C2602 1.385 . S
C2604 C2602 1.478 . S
C2604 C2606 1.381 . S
C2604 C2610 1.383 . S
C2605 C2601 1.495 . S
C2605 H2611 0.959 . S
C2605 H2612 0.961 . S
C2605 H2613 0.960 . S
C2606 C2604 1.381 . S
C2606 C2607 1.394 . S
C2606 H2614 0.930 . S
C2607 C2606 1.394 . S
C2607 C2608 1.383 . S
C2607 H2615 0.929 . S
C2608 C2607 1.383 . S
C2608 C2609 1.377 . S
C2609 H2593 0.930 . S
C2609 C2608 1.377 . S
C2609 C2610 1.379 . S
C2610 H2594 0.931 . S
C2610 C2604 1.383 . S
C2610 C2609 1.379 . S
H2611 C2605 0.959 . S
H2612 C2605 0.961 . S
H2613 C2605 0.960 . S
H2614 C2606 0.930 . S
H2615 C2607 0.929 . S
H2616 C2624 0.929 . S
H2617 C2626 0.930 . S
H2618 C2628 0.930 . S
H2619 C2631 0.929 . S
H2620 C2634 0.930 . S
H2621 C2636 0.960 . S
H2622 C2636 0.960 . S
H2623 C2636 0.960 . S
C2624 H2616 0.929 . S
C2624 C2625 1.377 . S
C2624 C2626 1.384 . S
C2625 C2624 1.377 . S
C2625 C2631 1.390 . S
C2626 H2617 0.930 . S
C2626 C2624 1.384 . S
C2626 C2627 1.372 . S
C2627 C2626 1.372 . S
C2627 C2628 1.400 . S
C2627 C2632 1.490 . S
C2628 H2618 0.930 . S
C2628 C2627 1.400 . S
C2628 C2631 1.386 . S
H2629 C2645 0.930 . S
H2630 C2646 0.931 . S
C2631 H2619 0.929 . S
C2631 C2625 1.390 . S
C2631 C2628 1.386 . S
C2632 C2627 1.490 . S
C2632 C2634 1.395 . S
C2632 C2635 1.403 . S
H2633 C2639 0.930 . S
C2634 H2620 0.930 . S
C2634 C2632 1.395 . S
C2634 C2637 1.403 . S
C2635 C2632 1.403 . S
C2635 C2636 1.524 . S
C2635 C2639 1.400 . S
C2636 H2621 0.960 . S
C2636 H2622 0.960 . S
C2636 H2623 0.960 . S
C2636 C2635 1.524 . S
C2637 C2634 1.403 . S
C2637 C2638 1.392 . S
C2637 C2641 1.495 . S
C2638 C2637 1.392 . S
C2638 C2639 1.385 . S
C2638 C2640 1.478 . S
C2639 H2633 0.930 . S
C2639 C2635 1.400 . S
C2639 C2638 1.385 . S
C2640 C2638 1.478 . S
C2640 C2642 1.381 . S
C2640 C2646 1.383 . S
C2641 C2637 1.495 . S
C2641 H2647 0.959 . S
C2641 H2648 0.961 . S
C2641 H2649 0.960 . S
C2642 C2640 1.381 . S
C2642 C2643 1.394 . S
C2642 H2650 0.930 . S
C2643 C2642 1.394 . S
C2643 C2644 1.383 . S
C2643 H2651 0.929 . S
C2644 C2643 1.383 . S
C2644 C2645 1.377 . S
C2645 H2629 0.930 . S
C2645 C2644 1.377 . S
C2645 C2646 1.379 . S
C2646 H2630 0.931 . S
C2646 C2640 1.383 . S
C2646 C2645 1.379 . S
H2647 C2641 0.959 . S
H2648 C2641 0.961 . S
H2649 C2641 0.960 . S
H2650 C2642 0.930 . S
H2651 C2643 0.929 . S
H2652 C2660 0.929 . S
H2653 C2662 0.930 . S
H2654 C2664 0.930 . S
H2655 C2667 0.929 . S
H2656 C2670 0.930 . S
H2657 C2672 0.960 . S
H2658 C2672 0.960 . S
H2659 C2672 0.960 . S
C2660 H2652 0.929 . S
C2660 C2661 1.377 . S
C2660 C2662 1.384 . S
C2661 C2660 1.377 . S
C2661 C2667 1.390 . S
C2662 H2653 0.930 . S
C2662 C2660 1.384 . S
C2662 C2663 1.372 . S
C2663 C2662 1.372 . S
C2663 C2664 1.400 . S
C2663 C2668 1.490 . S
C2664 H2654 0.930 . S
C2664 C2663 1.400 . S
C2664 C2667 1.386 . S
H2665 C2681 0.930 . S
H2666 C2682 0.931 . S
C2667 H2655 0.929 . S
C2667 C2661 1.390 . S
C2667 C2664 1.386 . S
C2668 C2663 1.490 . S
C2668 C2670 1.395 . S
C2668 C2671 1.403 . S
H2669 C2675 0.930 . S
C2670 H2656 0.930 . S
C2670 C2668 1.395 . S
C2670 C2673 1.403 . S
C2671 C2668 1.403 . S
C2671 C2672 1.524 . S
C2671 C2675 1.400 . S
C2672 H2657 0.960 . S
C2672 H2658 0.960 . S
C2672 H2659 0.960 . S
C2672 C2671 1.524 . S
C2673 C2670 1.403 . S
C2673 C2674 1.392 . S
C2673 C2677 1.495 . S
C2674 C2673 1.392 . S
C2674 C2675 1.385 . S
C2674 C2676 1.478 . S
C2675 H2669 0.930 . S
C2675 C2671 1.400 . S
C2675 C2674 1.385 . S
C2676 C2674 1.478 . S
C2676 C2678 1.381 . S
C2676 C2682 1.383 . S
C2677 C2673 1.495 . S
C2677 H2683 0.959 . S
C2677 H2684 0.961 . S
C2677 H2685 0.960 . S
C2678 C2676 1.381 . S
C2678 C2679 1.394 . S
C2678 H2686 0.930 . S
C2679 C2678 1.394 . S
C2679 C2680 1.383 . S
C2679 H2687 0.929 . S
C2680 C2679 1.383 . S
C2680 C2681 1.377 . S
C2681 H2665 0.930 . S
C2681 C2680 1.377 . S
C2681 C2682 1.379 . S
C2682 H2666 0.931 . S
C2682 C2676 1.383 . S
C2682 C2681 1.379 . S
H2683 C2677 0.959 . S
H2684 C2677 0.961 . S
H2685 C2677 0.960 . S
H2686 C2678 0.930 . S
H2687 C2679 0.929 . S
H2688 C2696 0.929 . S
H2689 C2698 0.930 . S
H2690 C2700 0.930 . S
H2691 C2703 0.929 . S
H2692 C2706 0.930 . S
H2693 C2708 0.960 . S
H2694 C2708 0.960 . S
H2695 C2708 0.960 . S
C2696 H2688 0.929 . S
C2696 C2697 1.377 . S
C2696 C2698 1.384 . S
C2697 C2696 1.377 . S
C2697 C2703 1.390 . S
C2698 H2689 0.930 . S
C2698 C2696 1.384 . S
C2698 C2699 1.372 . S
C2699 C2698 1.372 . S
C2699 C2700 1.400 . S
C2699 C2704 1.490 . S
C2700 H2690 0.930 . S
C2700 C2699 1.400 . S
C2700 C2703 1.386 . S
H2701 C2717 0.930 . S
H2702 C2718 0.931 . S
C2703 H2691 0.929 . S
C2703 C2697 1.390 . S
C2703 C2700 1.386 . S
C2704 C2699 1.490 . S
C2704 C2706 1.395 . S
C2704 C2707 1.403 . S
H2705 C2711 0.930 . S
C2706 H2692 0.930 . S
C2706 C2704 1.395 . S
C2706 C2709 1.403 . S
C2707 C2704 1.403 . S
C2707 C2708 1.524 . S
C2707 C2711 1.400 . S
C2708 H2693 0.960 . S
C2708 H2694 0.960 . S
C2708 H2695 0.960 . S
C2708 C2707 1.524 . S
C2709 C2706 1.403 . S
C2709 C2710 1.392 . S
C2709 C2713 1.495 . S
C2710 C2709 1.392 . S
C2710 C2711 1.385 . S
C2710 C2712 1.478 . S
C2711 H2705 0.930 . S
C2711 C2707 1.400 . S
C2711 C2710 1.385 . S
C2712 C2710 1.478 . S
C2712 C2714 1.381 . S
C2712 C2718 1.383 . S
C2713 C2709 1.495 . S
C2713 H2719 0.959 . S
C2713 H2720 0.961 . S
C2713 H2721 0.960 . S
C2714 C2712 1.381 . S
C2714 C2715 1.394 . S
C2714 H2722 0.930 . S
C2715 C2714 1.394 . S
C2715 C2716 1.383 . S
C2715 H2723 0.929 . S
C2716 C2715 1.383 . S
C2716 C2717 1.377 . S
C2717 H2701 0.930 . S
C2717 C2716 1.377 . S
C2717 C2718 1.379 . S
C2718 H2702 0.931 . S
C2718 C2712 1.383 . S
C2718 C2717 1.379 . S
H2719 C2713 0.959 . S
H2720 C2713 0.961 . S
H2721 C2713 0.960 . S
H2722 C2714 0.930 . S
H2723 C2715 0.929 . S
H2724 C2732 0.929 . S
H2725 C2734 0.930 . S
H2726 C2736 0.930 . S
H2727 C2739 0.929 . S
H2728 C2742 0.930 . S
H2729 C2744 0.960 . S
H2730 C2744 0.960 . S
H2731 C2744 0.960 . S
C2732 H2724 0.929 . S
C2732 C2733 1.377 . S
C2732 C2734 1.384 . S
C2733 C2732 1.377 . S
C2733 C2739 1.390 . S
C2734 H2725 0.930 . S
C2734 C2732 1.384 . S
C2734 C2735 1.372 . S
C2735 C2734 1.372 . S
C2735 C2736 1.400 . S
C2735 C2740 1.490 . S
C2736 H2726 0.930 . S
C2736 C2735 1.400 . S
C2736 C2739 1.386 . S
H2737 C2753 0.930 . S
H2738 C2754 0.931 . S
C2739 H2727 0.929 . S
C2739 C2733 1.390 . S
C2739 C2736 1.386 . S
C2740 C2735 1.490 . S
C2740 C2742 1.395 . S
C2740 C2743 1.403 . S
H2741 C2747 0.930 . S
C2742 H2728 0.930 . S
C2742 C2740 1.395 . S
C2742 C2745 1.403 . S
C2743 C2740 1.403 . S
C2743 C2744 1.524 . S
C2743 C2747 1.400 . S
C2744 H2729 0.960 . S
C2744 H2730 0.960 . S
C2744 H2731 0.960 . S
C2744 C2743 1.524 . S
C2745 C2742 1.403 . S
C2745 C2746 1.392 . S
C2745 C2749 1.495 . S
C2746 C2745 1.392 . S
C2746 C2747 1.385 . S
C2746 C2748 1.478 . S
C2747 H2741 0.930 . S
C2747 C2743 1.400 . S
C2747 C2746 1.385 . S
C2748 C2746 1.478 . S
C2748 C2750 1.381 . S
C2748 C2754 1.383 . S
C2749 C2745 1.495 . S
C2749 H2755 0.959 . S
C2749 H2756 0.961 . S
C2749 H2757 0.960 . S
C2750 C2748 1.381 . S
C2750 C2751 1.394 . S
C2750 H2758 0.930 . S
C2751 C2750 1.394 . S
C2751 C2752 1.383 . S
C2751 H2759 0.929 . S
C2752 C2751 1.383 . S
C2752 C2753 1.377 . S
C2753 H2737 0.930 . S
C2753 C2752 1.377 . S
C2753 C2754 1.379 . S
C2754 H2738 0.931 . S
C2754 C2748 1.383 . S
C2754 C2753 1.379 . S
H2755 C2749 0.959 . S
H2756 C2749 0.961 . S
H2757 C2749 0.960 . S
H2758 C2750 0.930 . S
H2759 C2751 0.929 . S
H2760 C2768 0.929 . S
H2761 C2770 0.930 . S
H2762 C2772 0.930 . S
H2763 C2775 0.929 . S
H2764 C2778 0.930 . S
H2765 C2780 0.960 . S
H2766 C2780 0.960 . S
H2767 C2780 0.960 . S
C2768 H2760 0.929 . S
C2768 C2769 1.377 . S
C2768 C2770 1.384 . S
C2769 C2768 1.377 . S
C2769 C2775 1.390 . S
C2770 H2761 0.930 . S
C2770 C2768 1.384 . S
C2770 C2771 1.372 . S
C2771 C2770 1.372 . S
C2771 C2772 1.400 . S
C2771 C2776 1.490 . S
C2772 H2762 0.930 . S
C2772 C2771 1.400 . S
C2772 C2775 1.386 . S
H2773 C2789 0.910 1_545 S
H2774 C2790 0.931 . S
C2775 H2763 0.929 . S
C2775 C2769 1.390 . S
C2775 C2772 1.386 . S
C2776 C2771 1.490 . S
C2776 C2778 1.395 . S
C2776 C2779 1.403 . S
H2777 C2783 0.930 . S
C2778 H2764 0.930 . S
C2778 C2776 1.395 . S
C2778 C2781 1.403 . S
C2779 C2776 1.403 . S
C2779 C2780 1.524 . S
C2779 C2783 1.400 . S
C2780 H2765 0.960 . S
C2780 H2766 0.960 . S
C2780 H2767 0.960 . S
C2780 C2779 1.524 . S
C2781 C2778 1.403 . S
C2781 C2782 1.392 . S
C2781 C2785 1.495 . S
C2782 C2781 1.392 . S
C2782 C2783 1.385 . S
C2782 C2784 1.478 . S
C2783 H2777 0.930 . S
C2783 C2779 1.400 . S
C2783 C2782 1.385 . S
C2784 C2782 1.478 . S
C2784 C2786 1.385 . S
C2784 C2790 1.383 . S
C2785 C2781 1.495 . S
C2785 H2791 0.959 . S
C2785 H2792 0.961 . S
C2785 H2793 0.960 . S
C2786 C2784 1.385 . S
C2786 C2787 1.392 1_556 S
C2786 H2794 0.928 1_556 S
C2787 C2786 1.392 1_554 S
C2787 C2788 1.372 1_565 S
C2787 H2795 0.929 . S
C2788 C2787 1.372 1_545 S
C2788 C2789 1.382 1_544 S
C2789 H2773 0.910 1_565 S
C2789 C2788 1.382 1_566 S
C2789 C2790 1.396 . S
C2790 H2774 0.931 . S
C2790 C2784 1.383 . S
C2790 C2789 1.396 . S
H2791 C2785 0.959 . S
H2792 C2785 0.961 . S
H2793 C2785 0.960 . S
H2794 C2786 0.928 1_554 S
H2795 C2787 0.929 . S
H2796 C2804 0.929 . S
H2797 C2806 0.930 . S
H2798 C2808 0.930 . S
H2799 C2811 0.929 . S
H2800 C2814 0.930 . S
H2801 C2816 0.960 . S
H2802 C2816 0.960 . S
H2803 C2816 0.960 . S
C2804 H2796 0.929 . S
C2804 C2805 1.377 . S
C2804 C2806 1.384 . S
C2805 C2804 1.377 . S
C2805 C2811 1.390 . S
C2806 H2797 0.930 . S
C2806 C2804 1.384 . S
C2806 C2807 1.372 . S
C2807 C2806 1.372 . S
C2807 C2808 1.400 . S
C2807 C2812 1.490 . S
C2808 H2798 0.930 . S
C2808 C2807 1.400 . S
C2808 C2811 1.386 . S
H2809 C2825 0.930 . S
H2810 C2826 0.931 . S
C2811 H2799 0.929 . S
C2811 C2805 1.390 . S
C2811 C2808 1.386 . S
C2812 C2807 1.490 . S
C2812 C2814 1.395 . S
C2812 C2815 1.403 . S
H2813 C2819 0.930 . S
C2814 H2800 0.930 . S
C2814 C2812 1.395 . S
C2814 C2817 1.403 . S
C2815 C2812 1.403 . S
C2815 C2816 1.524 . S
C2815 C2819 1.400 . S
C2816 H2801 0.960 . S
C2816 H2802 0.960 . S
C2816 H2803 0.960 . S
C2816 C2815 1.524 . S
C2817 C2814 1.403 . S
C2817 C2818 1.392 . S
C2817 C2821 1.495 . S
C2818 C2817 1.392 . S
C2818 C2819 1.385 . S
C2818 C2820 1.478 . S
C2819 H2813 0.930 . S
C2819 C2815 1.400 . S
C2819 C2818 1.385 . S
C2820 C2818 1.478 . S
C2820 C2822 1.381 . S
C2820 C2826 1.383 . S
C2821 C2817 1.495 . S
C2821 H2827 0.959 . S
C2821 H2828 0.961 . S
C2821 H2829 0.960 . S
C2822 C2820 1.381 . S
C2822 C2823 1.394 . S
C2822 H2830 0.930 . S
C2823 C2822 1.394 . S
C2823 C2824 1.383 . S
C2823 H2831 0.929 . S
C2824 C2823 1.383 . S
C2824 C2825 1.377 . S
C2825 H2809 0.930 . S
C2825 C2824 1.377 . S
C2825 C2826 1.379 . S
C2826 H2810 0.931 . S
C2826 C2820 1.383 . S
C2826 C2825 1.379 . S
H2827 C2821 0.959 . S
H2828 C2821 0.961 . S
H2829 C2821 0.960 . S
H2830 C2822 0.930 . S
H2831 C2823 0.929 . S
H2832 C2840 0.929 . S
H2833 C2842 0.920 1_565 S
H2834 C2844 0.930 . S
H2835 C2847 0.929 . S
H2836 C2850 0.930 . S
H2837 C2852 0.960 . S
H2838 C2852 0.960 1_565 S
H2839 C2852 0.960 . S
C2840 H2832 0.929 . S
C2840 C2841 1.377 1_565 S
C2840 C2842 1.383 1_565 S
C2841 C2840 1.377 1_545 S
C2841 C2847 1.390 . S
C2842 H2833 0.920 1_545 S
C2842 C2840 1.383 1_545 S
C2842 C2843 1.382 . S
C2843 C2842 1.382 . S
C2843 C2844 1.400 . S
C2843 C2848 1.490 . S
C2844 H2834 0.930 . S
C2844 C2843 1.400 . S
C2844 C2847 1.386 . S
H2845 C2861 0.930 . S
H2846 C2862 0.931 . S
C2847 H2835 0.929 . S
C2847 C2841 1.390 . S
C2847 C2844 1.386 . S
C2848 C2843 1.490 . S
C2848 C2850 1.395 . S
C2848 C2851 1.403 . S
H2849 C2855 0.930 . S
C2850 H2836 0.930 . S
C2850 C2848 1.395 . S
C2850 C2853 1.403 . S
C2851 C2848 1.403 . S
C2851 C2852 1.524 . S
C2851 C2855 1.400 . S
C2852 H2837 0.960 . S
C2852 H2838 0.960 1_545 S
C2852 H2839 0.960 . S
C2852 C2851 1.524 . S
C2853 C2850 1.403 . S
C2853 C2854 1.392 . S
C2853 C2857 1.495 . S
C2854 C2853 1.392 . S
C2854 C2855 1.385 . S
C2854 C2856 1.478 . S
C2855 H2849 0.930 . S
C2855 C2851 1.400 . S
C2855 C2854 1.385 . S
C2856 C2854 1.478 . S
C2856 C2858 1.381 . S
C2856 C2862 1.383 . S
C2857 C2853 1.495 . S
C2857 H2863 0.959 . S
C2857 H2864 0.961 . S
C2857 H2865 0.960 . S
C2858 C2856 1.381 . S
C2858 C2859 1.394 . S
C2858 H2866 0.930 . S
C2859 C2858 1.394 . S
C2859 C2860 1.383 . S
C2859 H2867 0.929 . S
C2860 C2859 1.383 . S
C2860 C2861 1.377 . S
C2861 H2845 0.930 . S
C2861 C2860 1.377 . S
C2861 C2862 1.379 . S
C2862 H2846 0.931 . S
C2862 C2856 1.383 . S
C2862 C2861 1.379 . S
H2863 C2857 0.959 . S
H2864 C2857 0.961 . S
H2865 C2857 0.960 . S
H2866 C2858 0.930 . S
H2867 C2859 0.929 . S
H2868 C2876 0.929 . S
H2869 C2878 0.930 . S
H2870 C2880 0.930 . S
H2871 C2883 0.929 . S
H2872 C2886 0.930 . S
H2873 C2888 0.960 . S
H2874 C2888 0.960 . S
H2875 C2888 0.960 . S
C2876 H2868 0.929 . S
C2876 C2877 1.377 . S
C2876 C2878 1.384 . S
C2877 C2876 1.377 . S
C2877 C2883 1.390 . S
C2878 H2869 0.930 . S
C2878 C2876 1.384 . S
C2878 C2879 1.372 . S
C2879 C2878 1.372 . S
C2879 C2880 1.400 . S
C2879 C2884 1.490 . S
C2880 H2870 0.930 . S
C2880 C2879 1.400 . S
C2880 C2883 1.386 . S
H2881 C2897 0.930 . S
H2882 C2898 0.931 . S
C2883 H2871 0.929 . S
C2883 C2877 1.390 . S
C2883 C2880 1.386 . S
C2884 C2879 1.490 . S
C2884 C2886 1.395 . S
C2884 C2887 1.403 . S
H2885 C2891 0.930 . S
C2886 H2872 0.930 . S
C2886 C2884 1.395 . S
C2886 C2889 1.403 . S
C2887 C2884 1.403 . S
C2887 C2888 1.524 . S
C2887 C2891 1.400 . S
C2888 H2873 0.960 . S
C2888 H2874 0.960 . S
C2888 H2875 0.960 . S
C2888 C2887 1.524 . S
C2889 C2886 1.403 . S
C2889 C2890 1.392 . S
C2889 C2893 1.495 . S
C2890 C2889 1.392 . S
C2890 C2891 1.385 . S
C2890 C2892 1.478 . S
C2891 H2885 0.930 . S
C2891 C2887 1.400 . S
C2891 C2890 1.385 . S
C2892 C2890 1.478 . S
C2892 C2894 1.381 . S
C2892 C2898 1.383 . S
C2893 C2889 1.495 . S
C2893 H2899 0.959 . S
C2893 H2900 0.961 . S
C2893 H2901 0.960 . S
C2894 C2892 1.381 . S
C2894 C2895 1.394 . S
C2894 H2902 0.930 . S
C2895 C2894 1.394 . S
C2895 C2896 1.383 . S
C2895 H2903 0.929 . S
C2896 C2895 1.383 . S
C2896 C2897 1.377 . S
C2897 H2881 0.930 . S
C2897 C2896 1.377 . S
C2897 C2898 1.379 . S
C2898 H2882 0.931 . S
C2898 C2892 1.383 . S
C2898 C2897 1.379 . S
H2899 C2893 0.959 . S
H2900 C2893 0.961 . S
H2901 C2893 0.960 . S
H2902 C2894 0.930 . S
H2903 C2895 0.929 . S
H2904 C2912 0.929 . S
H2905 C2914 0.930 . S
H2906 C2916 0.930 . S
H2907 C2919 0.929 . S
H2908 C2922 0.930 . S
H2909 C2924 0.960 . S
H2910 C2924 0.960 . S
H2911 C2924 0.960 . S
C2912 H2904 0.929 . S
C2912 C2913 1.377 . S
C2912 C2914 1.384 . S
C2913 C2912 1.377 . S
C2913 C2919 1.390 . S
C2914 H2905 0.930 . S
C2914 C2912 1.384 . S
C2914 C2915 1.372 . S
C2915 C2914 1.372 . S
C2915 C2916 1.400 . S
C2915 C2920 1.490 . S
C2916 H2906 0.930 . S
C2916 C2915 1.400 . S
C2916 C2919 1.386 . S
H2917 C2933 0.930 . S
H2918 C2934 0.931 . S
C2919 H2907 0.929 . S
C2919 C2913 1.390 . S
C2919 C2916 1.386 . S
C2920 C2915 1.490 . S
C2920 C2922 1.395 . S
C2920 C2923 1.403 . S
H2921 C2927 0.930 . S
C2922 H2908 0.930 . S
C2922 C2920 1.395 . S
C2922 C2925 1.403 . S
C2923 C2920 1.403 . S
C2923 C2924 1.524 . S
C2923 C2927 1.400 . S
C2924 H2909 0.960 . S
C2924 H2910 0.960 . S
C2924 H2911 0.960 . S
C2924 C2923 1.524 . S
C2925 C2922 1.403 . S
C2925 C2926 1.392 . S
C2925 C2929 1.495 . S
C2926 C2925 1.392 . S
C2926 C2927 1.385 . S
C2926 C2928 1.478 . S
C2927 H2921 0.930 . S
C2927 C2923 1.400 . S
C2927 C2926 1.385 . S
C2928 C2926 1.478 . S
C2928 C2930 1.381 . S
C2928 C2934 1.383 . S
C2929 C2925 1.495 . S
C2929 H2935 0.959 . S
C2929 H2936 0.961 . S
C2929 H2937 0.960 . S
C2930 C2928 1.381 . S
C2930 C2931 1.394 . S
C2930 H2938 0.930 . S
C2931 C2930 1.394 . S
C2931 C2932 1.383 . S
C2931 H2939 0.929 . S
C2932 C2931 1.383 . S
C2932 C2933 1.377 . S
C2933 H2917 0.930 . S
C2933 C2932 1.377 . S
C2933 C2934 1.379 . S
C2934 H2918 0.931 . S
C2934 C2928 1.383 . S
C2934 C2933 1.379 . S
H2935 C2929 0.959 . S
H2936 C2929 0.961 . S
H2937 C2929 0.960 . S
H2938 C2930 0.930 . S
H2939 C2931 0.929 . S
H2940 C2948 0.929 . S
H2941 C2950 0.930 . S
H2942 C2952 0.930 . S
H2943 C2955 0.929 . S
H2944 C2958 0.930 . S
H2945 C2960 0.960 . S
H2946 C2960 0.960 . S
H2947 C2960 0.960 . S
C2948 H2940 0.929 . S
C2948 C2949 1.377 . S
C2948 C2950 1.384 . S
C2949 C2948 1.377 . S
C2949 C2955 1.390 . S
C2950 H2941 0.930 . S
C2950 C2948 1.384 . S
C2950 C2951 1.372 . S
C2951 C2950 1.372 . S
C2951 C2952 1.400 . S
C2951 C2956 1.490 . S
C2952 H2942 0.930 . S
C2952 C2951 1.400 . S
C2952 C2955 1.386 . S
H2953 C2969 0.930 . S
H2954 C2970 0.931 . S
C2955 H2943 0.929 . S
C2955 C2949 1.390 . S
C2955 C2952 1.386 . S
C2956 C2951 1.490 . S
C2956 C2958 1.395 . S
C2956 C2959 1.403 . S
H2957 C2963 0.930 . S
C2958 H2944 0.930 . S
C2958 C2956 1.395 . S
C2958 C2961 1.403 . S
C2959 C2956 1.403 . S
C2959 C2960 1.524 . S
C2959 C2963 1.400 . S
C2960 H2945 0.960 . S
C2960 H2946 0.960 . S
C2960 H2947 0.960 . S
C2960 C2959 1.524 . S
C2961 C2958 1.403 . S
C2961 C2962 1.392 . S
C2961 C2965 1.495 . S
C2962 C2961 1.392 . S
C2962 C2963 1.385 . S
C2962 C2964 1.478 . S
C2963 H2957 0.930 . S
C2963 C2959 1.400 . S
C2963 C2962 1.385 . S
C2964 C2962 1.478 . S
C2964 C2966 1.381 . S
C2964 C2970 1.383 . S
C2965 C2961 1.495 . S
C2965 H2971 0.959 . S
C2965 H2972 0.961 . S
C2965 H2973 0.960 . S
C2966 C2964 1.381 . S
C2966 C2967 1.394 . S
C2966 H2974 0.930 . S
C2967 C2966 1.394 . S
C2967 C2968 1.383 . S
C2967 H2975 0.929 . S
C2968 C2967 1.383 . S
C2968 C2969 1.377 . S
C2969 H2953 0.930 . S
C2969 C2968 1.377 . S
C2969 C2970 1.379 . S
C2970 H2954 0.931 . S
C2970 C2964 1.383 . S
C2970 C2969 1.379 . S
H2971 C2965 0.959 . S
H2972 C2965 0.961 . S
H2973 C2965 0.960 . S
H2974 C2966 0.930 . S
H2975 C2967 0.929 . S
H2976 C2984 0.929 . S
H2977 C2986 0.930 . S
H2978 C2988 0.945 . S
H2979 C2991 0.929 . S
H2980 C2994 0.930 . S
H2981 C2996 0.960 . S
H2982 C2996 0.960 . S
H2983 C2996 0.960 . S
C2984 H2976 0.929 . S
C2984 C2985 1.377 . S
C2984 C2986 1.384 . S
C2985 C2984 1.377 . S
C2985 C2991 1.390 1_545 S
C2986 H2977 0.930 . S
C2986 C2984 1.384 . S
C2986 C2987 1.372 . S
C2987 C2986 1.372 . S
C2987 C2988 1.360 1_545 S
C2987 C2992 1.490 . S
C2988 H2978 0.945 . S
C2988 C2987 1.360 1_565 S
C2988 C2991 1.413 . S
H2989 C3005 0.930 . S
H2990 C3006 0.931 . S
C2991 H2979 0.929 . S
C2991 C2985 1.390 1_565 S
C2991 C2988 1.413 . S
C2992 C2987 1.490 . S
C2992 C2994 1.395 . S
C2992 C2995 1.415 . S
H2993 C2999 0.930 1_565 S
C2994 H2980 0.930 . S
C2994 C2992 1.395 . S
C2994 C2997 1.403 . S
C2995 C2992 1.415 . S
C2995 C2996 1.498 1_545 S
C2995 C2999 1.415 . S
C2996 H2981 0.960 . S
C2996 H2982 0.960 . S
C2996 H2983 0.960 . S
C2996 C2995 1.498 1_565 S
C2997 C2994 1.403 . S
C2997 C2998 1.392 . S
C2997 C3001 1.495 . S
C2998 C2997 1.392 . S
C2998 C2999 1.385 . S
C2998 C3000 1.478 . S
C2999 H2993 0.930 1_545 S
C2999 C2995 1.415 . S
C2999 C2998 1.385 . S
C3000 C2998 1.478 . S
C3000 C3002 1.381 . S
C3000 C3006 1.383 . S
C3001 C2997 1.495 . S
C3001 H3007 0.959 . S
C3001 H3008 0.961 . S
C3001 H3009 0.960 . S
C3002 C3000 1.381 . S
C3002 C3003 1.394 . S
C3002 H3010 0.930 . S
C3003 C3002 1.394 . S
C3003 C3004 1.383 . S
C3003 H3011 0.929 . S
C3004 C3003 1.383 . S
C3004 C3005 1.377 . S
C3005 H2989 0.930 . S
C3005 C3004 1.377 . S
C3005 C3006 1.379 . S
C3006 H2990 0.931 . S
C3006 C3000 1.383 . S
C3006 C3005 1.379 . S
H3007 C3001 0.959 . S
H3008 C3001 0.961 . S
H3009 C3001 0.960 . S
H3010 C3002 0.930 . S
H3011 C3003 0.929 . S
H3012 C3020 0.929 . S
H3013 C3022 0.930 . S
H3014 C3024 0.930 . S
H3015 C3027 0.929 . S
H3016 C3030 0.930 . S
H3017 C3032 0.960 . S
H3018 C3032 0.960 . S
H3019 C3032 0.960 . S
C3020 H3012 0.929 . S
C3020 C3021 1.377 . S
C3020 C3022 1.384 . S
C3021 C3020 1.377 . S
C3021 C3027 1.390 . S
C3022 H3013 0.930 . S
C3022 C3020 1.384 . S
C3022 C3023 1.372 . S
C3023 C3022 1.372 . S
C3023 C3024 1.400 . S
C3023 C3028 1.490 . S
C3024 H3014 0.930 . S
C3024 C3023 1.400 . S
C3024 C3027 1.386 . S
H3025 C3041 0.930 . S
H3026 C3042 0.931 . S
C3027 H3015 0.929 . S
C3027 C3021 1.390 . S
C3027 C3024 1.386 . S
C3028 C3023 1.490 . S
C3028 C3030 1.395 . S
C3028 C3031 1.403 . S
H3029 C3035 0.930 . S
C3030 H3016 0.930 . S
C3030 C3028 1.395 . S
C3030 C3033 1.403 . S
C3031 C3028 1.403 . S
C3031 C3032 1.524 . S
C3031 C3035 1.400 . S
C3032 H3017 0.960 . S
C3032 H3018 0.960 . S
C3032 H3019 0.960 . S
C3032 C3031 1.524 . S
C3033 C3030 1.403 . S
C3033 C3034 1.392 . S
C3033 C3037 1.495 . S
C3034 C3033 1.392 . S
C3034 C3035 1.385 . S
C3034 C3036 1.478 . S
C3035 H3029 0.930 . S
C3035 C3031 1.400 . S
C3035 C3034 1.385 . S
C3036 C3034 1.478 . S
C3036 C3038 1.381 . S
C3036 C3042 1.383 . S
C3037 C3033 1.495 . S
C3037 H3043 0.959 . S
C3037 H3044 0.961 . S
C3037 H3045 0.960 . S
C3038 C3036 1.381 . S
C3038 C3039 1.394 . S
C3038 H3046 0.930 . S
C3039 C3038 1.394 . S
C3039 C3040 1.383 . S
C3039 H3047 0.929 . S
C3040 C3039 1.383 . S
C3040 C3041 1.377 . S
C3041 H3025 0.930 . S
C3041 C3040 1.377 . S
C3041 C3042 1.379 . S
C3042 H3026 0.931 . S
C3042 C3036 1.383 . S
C3042 C3041 1.379 . S
H3043 C3037 0.959 . S
H3044 C3037 0.961 . S
H3045 C3037 0.960 . S
H3046 C3038 0.930 . S
H3047 C3039 0.929 . S
H3048 C3056 0.929 . S
H3049 C3058 0.930 . S
H3050 C3060 0.930 . S
H3051 C3063 0.929 . S
H3052 C3066 0.930 . S
H3053 C3068 0.960 . S
H3054 C3068 0.960 . S
H3055 C3068 0.960 . S
C3056 H3048 0.929 . S
C3056 C3057 1.377 . S
C3056 C3058 1.384 . S
C3057 C3056 1.377 . S
C3057 C3063 1.390 . S
C3058 H3049 0.930 . S
C3058 C3056 1.384 . S
C3058 C3059 1.372 . S
C3059 C3058 1.372 . S
C3059 C3060 1.400 . S
C3059 C3064 1.490 . S
C3060 H3050 0.930 . S
C3060 C3059 1.400 . S
C3060 C3063 1.386 . S
H3061 C3077 0.930 . S
H3062 C3078 0.931 . S
C3063 H3051 0.929 . S
C3063 C3057 1.390 . S
C3063 C3060 1.386 . S
C3064 C3059 1.490 . S
C3064 C3066 1.395 . S
C3064 C3067 1.403 . S
H3065 C3071 0.930 . S
C3066 H3052 0.930 . S
C3066 C3064 1.395 . S
C3066 C3069 1.403 . S
C3067 C3064 1.403 . S
C3067 C3068 1.524 . S
C3067 C3071 1.400 . S
C3068 H3053 0.960 . S
C3068 H3054 0.960 . S
C3068 H3055 0.960 . S
C3068 C3067 1.524 . S
C3069 C3066 1.403 . S
C3069 C3070 1.392 . S
C3069 C3073 1.495 . S
C3070 C3069 1.392 . S
C3070 C3071 1.385 . S
C3070 C3072 1.478 . S
C3071 H3065 0.930 . S
C3071 C3067 1.400 . S
C3071 C3070 1.385 . S
C3072 C3070 1.478 . S
C3072 C3074 1.381 . S
C3072 C3078 1.383 . S
C3073 C3069 1.495 . S
C3073 H3079 0.959 . S
C3073 H3080 0.961 . S
C3073 H3081 0.960 . S
C3074 C3072 1.381 . S
C3074 C3075 1.394 . S
C3074 H3082 0.930 . S
C3075 C3074 1.394 . S
C3075 C3076 1.383 . S
C3075 H3083 0.929 . S
C3076 C3075 1.383 . S
C3076 C3077 1.377 . S
C3077 H3061 0.930 . S
C3077 C3076 1.377 . S
C3077 C3078 1.379 . S
C3078 H3062 0.931 . S
C3078 C3072 1.383 . S
C3078 C3077 1.379 . S
H3079 C3073 0.959 . S
H3080 C3073 0.961 . S
H3081 C3073 0.960 . S
H3082 C3074 0.930 . S
H3083 C3075 0.929 . S
H3084 C3092 0.929 . S
H3085 C3094 0.930 . S
H3086 C3096 0.930 . S
H3087 C3099 0.929 . S
H3088 C3102 0.930 . S
H3089 C3104 0.960 . S
H3090 C3104 0.960 . S
H3091 C3104 0.960 . S
C3092 H3084 0.929 . S
C3092 C3093 1.377 . S
C3092 C3094 1.384 . S
C3093 C3092 1.377 . S
C3093 C3099 1.390 . S
C3094 H3085 0.930 . S
C3094 C3092 1.384 . S
C3094 C3095 1.372 . S
C3095 C3094 1.372 . S
C3095 C3096 1.400 . S
C3095 C3100 1.490 . S
C3096 H3086 0.930 . S
C3096 C3095 1.400 . S
C3096 C3099 1.386 . S
H3097 C3113 0.930 . S
H3098 C3114 0.931 . S
C3099 H3087 0.929 . S
C3099 C3093 1.390 . S
C3099 C3096 1.386 . S
C3100 C3095 1.490 . S
C3100 C3102 1.395 . S
C3100 C3103 1.403 . S
H3101 C3107 0.930 . S
C3102 H3088 0.930 . S
C3102 C3100 1.395 . S
C3102 C3105 1.403 . S
C3103 C3100 1.403 . S
C3103 C3104 1.524 . S
C3103 C3107 1.400 . S
C3104 H3089 0.960 . S
C3104 H3090 0.960 . S
C3104 H3091 0.960 . S
C3104 C3103 1.524 . S
C3105 C3102 1.403 . S
C3105 C3106 1.392 . S
C3105 C3109 1.495 . S
C3106 C3105 1.392 . S
C3106 C3107 1.385 . S
C3106 C3108 1.478 . S
C3107 H3101 0.930 . S
C3107 C3103 1.400 . S
C3107 C3106 1.385 . S
C3108 C3106 1.478 . S
C3108 C3110 1.381 . S
C3108 C3114 1.383 . S
C3109 C3105 1.495 . S
C3109 H3115 0.959 . S
C3109 H3116 0.961 . S
C3109 H3117 0.960 . S
C3110 C3108 1.381 . S
C3110 C3111 1.394 . S
C3110 H3118 0.930 . S
C3111 C3110 1.394 . S
C3111 C3112 1.383 . S
C3111 H3119 0.929 . S
C3112 C3111 1.383 . S
C3112 C3113 1.377 . S
C3113 H3097 0.930 . S
C3113 C3112 1.377 . S
C3113 C3114 1.379 . S
C3114 H3098 0.931 . S
C3114 C3108 1.383 . S
C3114 C3113 1.379 . S
H3115 C3109 0.959 . S
H3116 C3109 0.961 . S
H3117 C3109 0.960 . S
H3118 C3110 0.930 . S
H3119 C3111 0.929 . S
H3120 C3128 0.929 . S
H3121 C3130 0.898 1_556 S
H3122 C3132 0.930 . S
H3123 C3135 0.929 . S
H3124 C3138 0.930 1_556 S
H3125 C3140 0.960 . S
H3126 C3140 0.960 . S
H3127 C3140 0.960 . S
C3128 H3120 0.929 . S
C3128 C3129 1.377 . S
C3128 C3130 1.384 . S
C3129 C3128 1.377 . S
C3129 C3135 1.390 . S
C3130 H3121 0.898 1_554 S
C3130 C3128 1.384 . S
C3130 C3131 1.372 . S
C3131 C3130 1.372 . S
C3131 C3132 1.400 . S
C3131 C3136 1.490 . S
C3132 H3122 0.930 . S
C3132 C3131 1.400 . S
C3132 C3135 1.386 . S
H3133 C3149 0.930 . S
H3134 C3150 0.931 . S
C3135 H3123 0.929 . S
C3135 C3129 1.390 . S
C3135 C3132 1.386 . S
C3136 C3131 1.490 . S
C3136 C3138 1.395 . S
C3136 C3139 1.403 . S
H3137 C3143 0.930 . S
C3138 H3124 0.930 1_554 S
C3138 C3136 1.395 . S
C3138 C3141 1.403 1_554 S
C3139 C3136 1.403 . S
C3139 C3140 1.524 . S
C3139 C3143 1.400 . S
C3140 H3125 0.960 . S
C3140 H3126 0.960 . S
C3140 H3127 0.960 . S
C3140 C3139 1.524 . S
C3141 C3138 1.403 1_556 S
C3141 C3142 1.386 1_556 S
C3141 C3145 1.502 . S
C3142 C3141 1.386 1_554 S
C3142 C3143 1.385 . S
C3142 C3144 1.478 . S
C3143 H3137 0.930 . S
C3143 C3139 1.400 . S
C3143 C3142 1.385 . S
C3144 C3142 1.478 . S
C3144 C3146 1.381 . S
C3144 C3150 1.383 . S
C3145 C3141 1.502 . S
C3145 H3151 0.959 . S
C3145 H3152 0.961 . S
C3145 H3153 0.960 . S
C3146 C3144 1.381 . S
C3146 C3147 1.394 . S
C3146 H3154 0.930 1_554 S
C3147 C3146 1.394 . S
C3147 C3148 1.383 . S
C3147 H3155 0.929 1_554 S
C3148 C3147 1.383 . S
C3148 C3149 1.377 . S
C3149 H3133 0.930 . S
C3149 C3148 1.377 . S
C3149 C3150 1.379 . S
C3150 H3134 0.931 . S
C3150 C3144 1.383 . S
C3150 C3149 1.379 . S
H3151 C3145 0.959 . S
H3152 C3145 0.961 . S
H3153 C3145 0.960 . S
H3154 C3146 0.930 1_556 S
H3155 C3147 0.929 1_556 S
H3156 C3164 0.929 . S
H3157 C3166 0.930 . S
H3158 C3168 0.930 . S
H3159 C3171 0.929 . S
H3160 C3174 0.930 . S
H3161 C3176 0.960 . S
H3162 C3176 0.960 . S
H3163 C3176 0.960 . S
C3164 H3156 0.929 . S
C3164 C3165 1.377 . S
C3164 C3166 1.384 . S
C3165 C3164 1.377 . S
C3165 C3171 1.390 . S
C3166 H3157 0.930 . S
C3166 C3164 1.384 . S
C3166 C3167 1.372 . S
C3167 C3166 1.372 . S
C3167 C3168 1.400 . S
C3167 C3172 1.490 . S
C3168 H3158 0.930 . S
C3168 C3167 1.400 . S
C3168 C3171 1.386 . S
H3169 C3185 0.930 . S
H3170 C3186 0.931 . S
C3171 H3159 0.929 . S
C3171 C3165 1.390 . S
C3171 C3168 1.386 . S
C3172 C3167 1.490 . S
C3172 C3174 1.395 . S
C3172 C3175 1.403 . S
H3173 C3179 0.930 . S
C3174 H3160 0.930 . S
C3174 C3172 1.395 . S
C3174 C3177 1.403 . S
C3175 C3172 1.403 . S
C3175 C3176 1.524 . S
C3175 C3179 1.400 . S
C3176 H3161 0.960 . S
C3176 H3162 0.960 . S
C3176 H3163 0.960 . S
C3176 C3175 1.524 . S
C3177 C3174 1.403 . S
C3177 C3178 1.392 . S
C3177 C3181 1.495 . S
C3178 C3177 1.392 . S
C3178 C3179 1.385 . S
C3178 C3180 1.478 . S
C3179 H3173 0.930 . S
C3179 C3175 1.400 . S
C3179 C3178 1.385 . S
C3180 C3178 1.478 . S
C3180 C3182 1.381 . S
C3180 C3186 1.383 . S
C3181 C3177 1.495 . S
C3181 H3187 0.959 . S
C3181 H3188 0.961 . S
C3181 H3189 0.960 . S
C3182 C3180 1.381 . S
C3182 C3183 1.394 . S
C3182 H3190 0.930 . S
C3183 C3182 1.394 . S
C3183 C3184 1.383 . S
C3183 H3191 0.929 . S
C3184 C3183 1.383 . S
C3184 C3185 1.377 . S
C3185 H3169 0.930 . S
C3185 C3184 1.377 . S
C3185 C3186 1.379 . S
C3186 H3170 0.931 . S
C3186 C3180 1.383 . S
C3186 C3185 1.379 . S
H3187 C3181 0.959 . S
H3188 C3181 0.961 . S
H3189 C3181 0.960 . S
H3190 C3182 0.930 . S
H3191 C3183 0.929 . S
H3192 C3200 0.929 . S
H3193 C3202 0.930 . S
H3194 C3204 0.930 . S
H3195 C3207 0.929 . S
H3196 C3210 0.930 . S
H3197 C3212 0.960 . S
H3198 C3212 0.960 . S
H3199 C3212 0.960 . S
C3200 H3192 0.929 . S
C3200 C3201 1.377 . S
C3200 C3202 1.384 . S
C3201 C3200 1.377 . S
C3201 C3207 1.390 . S
C3202 H3193 0.930 . S
C3202 C3200 1.384 . S
C3202 C3203 1.372 . S
C3203 C3202 1.372 . S
C3203 C3204 1.400 . S
C3203 C3208 1.490 . S
C3204 H3194 0.930 . S
C3204 C3203 1.400 . S
C3204 C3207 1.386 . S
H3205 C3221 0.930 . S
H3206 C3222 0.931 . S
C3207 H3195 0.929 . S
C3207 C3201 1.390 . S
C3207 C3204 1.386 . S
C3208 C3203 1.490 . S
C3208 C3210 1.395 . S
C3208 C3211 1.403 . S
H3209 C3215 0.930 . S
C3210 H3196 0.930 . S
C3210 C3208 1.395 . S
C3210 C3213 1.403 . S
C3211 C3208 1.403 . S
C3211 C3212 1.524 . S
C3211 C3215 1.400 . S
C3212 H3197 0.960 . S
C3212 H3198 0.960 . S
C3212 H3199 0.960 . S
C3212 C3211 1.524 . S
C3213 C3210 1.403 . S
C3213 C3214 1.392 . S
C3213 C3217 1.495 . S
C3214 C3213 1.392 . S
C3214 C3215 1.385 . S
C3214 C3216 1.478 . S
C3215 H3209 0.930 . S
C3215 C3211 1.400 . S
C3215 C3214 1.385 . S
C3216 C3214 1.478 . S
C3216 C3218 1.381 . S
C3216 C3222 1.383 . S
C3217 C3213 1.495 . S
C3217 H3223 0.959 . S
C3217 H3224 0.961 . S
C3217 H3225 0.960 . S
C3218 C3216 1.381 . S
C3218 C3219 1.394 . S
C3218 H3226 0.930 . S
C3219 C3218 1.394 . S
C3219 C3220 1.383 . S
C3219 H3227 0.929 . S
C3220 C3219 1.383 . S
C3220 C3221 1.377 . S
C3221 H3205 0.930 . S
C3221 C3220 1.377 . S
C3221 C3222 1.379 . S
C3222 H3206 0.931 . S
C3222 C3216 1.383 . S
C3222 C3221 1.379 . S
H3223 C3217 0.959 . S
H3224 C3217 0.961 . S
H3225 C3217 0.960 . S
H3226 C3218 0.930 . S
H3227 C3219 0.929 . S
H3228 C3236 0.929 . S
H3229 C3238 0.930 . S
H3230 C3240 0.930 . S
H3231 C3243 0.929 . S
H3232 C3246 0.930 . S
H3233 C3248 0.960 . S
H3234 C3248 0.960 . S
H3235 C3248 0.960 . S
C3236 H3228 0.929 . S
C3236 C3237 1.377 . S
C3236 C3238 1.384 . S
C3237 C3236 1.377 . S
C3237 C3243 1.390 . S
C3238 H3229 0.930 . S
C3238 C3236 1.384 . S
C3238 C3239 1.372 . S
C3239 C3238 1.372 . S
C3239 C3240 1.400 . S
C3239 C3244 1.490 . S
C3240 H3230 0.930 . S
C3240 C3239 1.400 . S
C3240 C3243 1.386 . S
H3241 C3257 0.930 . S
H3242 C3258 0.931 . S
C3243 H3231 0.929 . S
C3243 C3237 1.390 . S
C3243 C3240 1.386 . S
C3244 C3239 1.490 . S
C3244 C3246 1.395 . S
C3244 C3247 1.403 . S
H3245 C3251 0.930 . S
C3246 H3232 0.930 . S
C3246 C3244 1.395 . S
C3246 C3249 1.403 . S
C3247 C3244 1.403 . S
C3247 C3248 1.524 . S
C3247 C3251 1.400 . S
C3248 H3233 0.960 . S
C3248 H3234 0.960 . S
C3248 H3235 0.960 . S
C3248 C3247 1.524 . S
C3249 C3246 1.403 . S
C3249 C3250 1.392 . S
C3249 C3253 1.495 . S
C3250 C3249 1.392 . S
C3250 C3251 1.385 . S
C3250 C3252 1.478 . S
C3251 H3245 0.930 . S
C3251 C3247 1.400 . S
C3251 C3250 1.385 . S
C3252 C3250 1.478 . S
C3252 C3254 1.381 . S
C3252 C3258 1.383 . S
C3253 C3249 1.495 . S
C3253 H3259 0.959 . S
C3253 H3260 0.961 . S
C3253 H3261 0.960 . S
C3254 C3252 1.381 . S
C3254 C3255 1.394 . S
C3254 H3262 0.930 . S
C3255 C3254 1.394 . S
C3255 C3256 1.383 . S
C3255 H3263 0.929 . S
C3256 C3255 1.383 . S
C3256 C3257 1.377 . S
C3257 H3241 0.930 . S
C3257 C3256 1.377 . S
C3257 C3258 1.379 . S
C3258 H3242 0.931 . S
C3258 C3252 1.383 . S
C3258 C3257 1.379 . S
H3259 C3253 0.959 . S
H3260 C3253 0.961 . S
H3261 C3253 0.960 . S
H3262 C3254 0.930 . S
H3263 C3255 0.929 . S
H3264 C3272 0.929 . S
H3265 C3274 0.930 . S
H3266 C3276 0.930 . S
H3267 C3279 0.929 . S
H3268 C3282 0.930 . S
H3269 C3284 0.960 . S
H3270 C3284 0.960 . S
H3271 C3284 0.960 . S
C3272 H3264 0.929 . S
C3272 C3273 1.371 1_565 S
C3272 C3274 1.384 . S
C3273 C3272 1.371 1_545 S
C3273 C3279 1.382 1_545 S
C3274 H3265 0.930 . S
C3274 C3272 1.384 . S
C3274 C3275 1.372 . S
C3275 C3274 1.372 . S
C3275 C3276 1.400 . S
C3275 C3280 1.490 . S
C3276 H3266 0.930 . S
C3276 C3275 1.400 . S
C3276 C3279 1.386 . S
H3277 C3293 0.930 . S
H3278 C3294 0.931 . S
C3279 H3267 0.929 . S
C3279 C3273 1.382 1_565 S
C3279 C3276 1.386 . S
C3280 C3275 1.490 . S
C3280 C3282 1.395 . S
C3280 C3283 1.403 . S
H3281 C3287 0.930 . S
C3282 H3268 0.930 . S
C3282 C3280 1.395 . S
C3282 C3285 1.403 . S
C3283 C3280 1.403 . S
C3283 C3284 1.524 . S
C3283 C3287 1.400 . S
C3284 H3269 0.960 . S
C3284 H3270 0.960 . S
C3284 H3271 0.960 . S
C3284 C3283 1.524 . S
C3285 C3282 1.403 . S
C3285 C3286 1.392 . S
C3285 C3289 1.495 . S
C3286 C3285 1.392 . S
C3286 C3287 1.385 . S
C3286 C3288 1.478 . S
C3287 H3281 0.930 . S
C3287 C3283 1.400 . S
C3287 C3286 1.385 . S
C3288 C3286 1.478 . S
C3288 C3290 1.381 . S
C3288 C3294 1.383 . S
C3289 C3285 1.495 . S
C3289 H3295 0.959 . S
C3289 H3296 0.961 . S
C3289 H3297 0.960 . S
C3290 C3288 1.381 . S
C3290 C3291 1.394 . S
C3290 H3298 0.930 . S
C3291 C3290 1.394 . S
C3291 C3292 1.383 . S
C3291 H3299 0.929 . S
C3292 C3291 1.383 . S
C3292 C3293 1.377 . S
C3293 H3277 0.930 . S
C3293 C3292 1.377 . S
C3293 C3294 1.379 . S
C3294 H3278 0.931 . S
C3294 C3288 1.383 . S
C3294 C3293 1.379 . S
H3295 C3289 0.959 . S
H3296 C3289 0.961 . S
H3297 C3289 0.960 . S
H3298 C3290 0.930 . S
H3299 C3291 0.929 . S
H3300 C3308 0.929 . S
H3301 C3310 0.930 . S
H3302 C3312 0.930 . S
H3303 C3315 0.929 . S
H3304 C3318 0.930 . S
H3305 C3320 0.960 . S
H3306 C3320 0.960 . S
H3307 C3320 0.960 . S
C3308 H3300 0.929 . S
C3308 C3309 1.377 . S
C3308 C3310 1.384 . S
C3309 C3308 1.377 . S
C3309 C3315 1.390 . S
C3310 H3301 0.930 . S
C3310 C3308 1.384 . S
C3310 C3311 1.372 . S
C3311 C3310 1.372 . S
C3311 C3312 1.400 . S
C3311 C3316 1.490 . S
C3312 H3302 0.930 . S
C3312 C3311 1.400 . S
C3312 C3315 1.386 . S
H3313 C3329 0.930 1_545 S
H3314 C3330 0.931 . S
C3315 H3303 0.929 . S
C3315 C3309 1.390 . S
C3315 C3312 1.386 . S
C3316 C3311 1.490 . S
C3316 C3318 1.395 . S
C3316 C3319 1.403 . S
H3317 C3323 0.930 . S
C3318 H3304 0.930 . S
C3318 C3316 1.395 . S
C3318 C3321 1.403 . S
C3319 C3316 1.403 . S
C3319 C3320 1.524 . S
C3319 C3323 1.400 . S
C3320 H3305 0.960 . S
C3320 H3306 0.960 . S
C3320 H3307 0.960 . S
C3320 C3319 1.524 . S
C3321 C3318 1.403 . S
C3321 C3322 1.392 . S
C3321 C3325 1.495 . S
C3322 C3321 1.392 . S
C3322 C3323 1.385 . S
C3322 C3324 1.478 . S
C3323 H3317 0.930 . S
C3323 C3319 1.400 . S
C3323 C3322 1.385 . S
C3324 C3322 1.478 . S
C3324 C3326 1.381 . S
C3324 C3330 1.383 . S
C3325 C3321 1.495 . S
C3325 H3331 0.959 . S
C3325 H3332 0.961 . S
C3325 H3333 0.960 . S
C3326 C3324 1.381 . S
C3326 C3327 1.394 . S
C3326 H3334 0.930 . S
C3327 C3326 1.394 . S
C3327 C3328 1.383 . S
C3327 H3335 0.929 . S
C3328 C3327 1.383 . S
C3328 C3329 1.377 . S
C3329 H3313 0.930 1_565 S
C3329 C3328 1.377 . S
C3329 C3330 1.379 . S
C3330 H3314 0.931 . S
C3330 C3324 1.383 . S
C3330 C3329 1.379 . S
H3331 C3325 0.959 . S
H3332 C3325 0.961 . S
H3333 C3325 0.960 . S
H3334 C3326 0.930 . S
H3335 C3327 0.929 . S
H3336 C3344 0.929 . S
H3337 C3346 0.930 . S
H3338 C3348 0.930 . S
H3339 C3351 0.929 . S
H3340 C3354 0.930 . S
H3341 C3356 0.960 . S
H3342 C3356 0.960 . S
H3343 C3356 0.960 . S
C3344 H3336 0.929 . S
C3344 C3345 1.377 . S
C3344 C3346 1.384 . S
C3345 C3344 1.377 . S
C3345 C3351 1.390 . S
C3346 H3337 0.930 . S
C3346 C3344 1.384 . S
C3346 C3347 1.372 . S
C3347 C3346 1.372 . S
C3347 C3348 1.400 . S
C3347 C3352 1.490 . S
C3348 H3338 0.930 . S
C3348 C3347 1.400 . S
C3348 C3351 1.386 . S
H3349 C3365 0.930 . S
H3350 C3366 0.931 . S
C3351 H3339 0.929 . S
C3351 C3345 1.390 . S
C3351 C3348 1.386 . S
C3352 C3347 1.490 . S
C3352 C3354 1.395 . S
C3352 C3355 1.403 . S
H3353 C3359 0.930 . S
C3354 H3340 0.930 . S
C3354 C3352 1.395 . S
C3354 C3357 1.403 . S
C3355 C3352 1.403 . S
C3355 C3356 1.524 . S
C3355 C3359 1.400 . S
C3356 H3341 0.960 . S
C3356 H3342 0.960 . S
C3356 H3343 0.960 . S
C3356 C3355 1.524 . S
C3357 C3354 1.403 . S
C3357 C3358 1.392 . S
C3357 C3361 1.495 . S
C3358 C3357 1.392 . S
C3358 C3359 1.385 . S
C3358 C3360 1.478 . S
C3359 H3353 0.930 . S
C3359 C3355 1.400 . S
C3359 C3358 1.385 . S
C3360 C3358 1.478 . S
C3360 C3362 1.381 . S
C3360 C3366 1.383 . S
C3361 C3357 1.495 . S
C3361 H3367 0.959 . S
C3361 H3368 0.961 . S
C3361 H3369 0.960 . S
C3362 C3360 1.381 . S
C3362 C3363 1.394 . S
C3362 H3370 0.930 . S
C3363 C3362 1.394 . S
C3363 C3364 1.383 . S
C3363 H3371 0.929 . S
C3364 C3363 1.383 . S
C3364 C3365 1.377 . S
C3365 H3349 0.930 . S
C3365 C3364 1.377 . S
C3365 C3366 1.379 . S
C3366 H3350 0.931 . S
C3366 C3360 1.383 . S
C3366 C3365 1.379 . S
H3367 C3361 0.959 . S
H3368 C3361 0.961 . S
H3369 C3361 0.960 . S
H3370 C3362 0.930 . S
H3371 C3363 0.929 . S
H3372 C3380 0.929 . S
H3373 C3382 0.930 . S
H3374 C3384 0.930 . S
H3375 C3387 0.929 . S
H3376 C3390 0.930 . S
H3377 C3392 0.960 . S
H3378 C3392 0.960 . S
H3379 C3392 0.960 . S
C3380 H3372 0.929 . S
C3380 C3381 1.377 . S
C3380 C3382 1.384 . S
C3381 C3380 1.377 . S
C3381 C3387 1.390 . S
C3382 H3373 0.930 . S
C3382 C3380 1.384 . S
C3382 C3383 1.372 . S
C3383 C3382 1.372 . S
C3383 C3384 1.400 . S
C3383 C3388 1.490 . S
C3384 H3374 0.930 . S
C3384 C3383 1.400 . S
C3384 C3387 1.386 . S
H3385 C3401 0.930 . S
H3386 C3402 0.931 . S
C3387 H3375 0.929 . S
C3387 C3381 1.390 . S
C3387 C3384 1.386 . S
C3388 C3383 1.490 . S
C3388 C3390 1.395 . S
C3388 C3391 1.403 . S
H3389 C3395 0.930 . S
C3390 H3376 0.930 . S
C3390 C3388 1.395 . S
C3390 C3393 1.403 . S
C3391 C3388 1.403 . S
C3391 C3392 1.524 . S
C3391 C3395 1.400 . S
C3392 H3377 0.960 . S
C3392 H3378 0.960 . S
C3392 H3379 0.960 . S
C3392 C3391 1.524 . S
C3393 C3390 1.403 . S
C3393 C3394 1.392 . S
C3393 C3397 1.495 . S
C3394 C3393 1.392 . S
C3394 C3395 1.385 . S
C3394 C3396 1.478 . S
C3395 H3389 0.930 . S
C3395 C3391 1.400 . S
C3395 C3394 1.385 . S
C3396 C3394 1.478 . S
C3396 C3398 1.381 . S
C3396 C3402 1.383 . S
C3397 C3393 1.495 . S
C3397 H3403 0.959 . S
C3397 H3404 0.961 . S
C3397 H3405 0.960 . S
C3398 C3396 1.381 . S
C3398 C3399 1.394 . S
C3398 H3406 0.930 . S
C3399 C3398 1.394 . S
C3399 C3400 1.383 . S
C3399 H3407 0.929 . S
C3400 C3399 1.383 . S
C3400 C3401 1.377 . S
C3401 H3385 0.930 . S
C3401 C3400 1.377 . S
C3401 C3402 1.379 . S
C3402 H3386 0.931 . S
C3402 C3396 1.383 . S
C3402 C3401 1.379 . S
H3403 C3397 0.959 . S
H3404 C3397 0.961 . S
H3405 C3397 0.960 . S
H3406 C3398 0.930 . S
H3407 C3399 0.929 . S
H3408 C3416 0.929 . S
H3409 C3418 0.930 . S
H3410 C3420 0.930 . S
H3411 C3423 0.929 . S
H3412 C3426 0.930 . S
H3413 C3428 0.960 . S
H3414 C3428 0.960 . S
H3415 C3428 0.960 . S
C3416 H3408 0.929 . S
C3416 C3417 1.377 . S
C3416 C3418 1.384 . S
C3417 C3416 1.377 . S
C3417 C3423 1.390 . S
C3418 H3409 0.930 . S
C3418 C3416 1.384 . S
C3418 C3419 1.372 . S
C3419 C3418 1.372 . S
C3419 C3420 1.400 . S
C3419 C3424 1.490 . S
C3420 H3410 0.930 . S
C3420 C3419 1.400 . S
C3420 C3423 1.386 . S
H3421 C3437 0.930 . S
H3422 C3438 0.931 . S
C3423 H3411 0.929 . S
C3423 C3417 1.390 . S
C3423 C3420 1.386 . S
C3424 C3419 1.490 . S
C3424 C3426 1.395 . S
C3424 C3427 1.403 . S
H3425 C3431 0.930 . S
C3426 H3412 0.930 . S
C3426 C3424 1.395 . S
C3426 C3429 1.403 . S
C3427 C3424 1.403 . S
C3427 C3428 1.524 . S
C3427 C3431 1.400 . S
C3428 H3413 0.960 . S
C3428 H3414 0.960 . S
C3428 H3415 0.960 . S
C3428 C3427 1.524 . S
C3429 C3426 1.403 . S
C3429 C3430 1.392 . S
C3429 C3433 1.495 . S
C3430 C3429 1.392 . S
C3430 C3431 1.385 . S
C3430 C3432 1.478 . S
C3431 H3425 0.930 . S
C3431 C3427 1.400 . S
C3431 C3430 1.385 . S
C3432 C3430 1.478 . S
C3432 C3434 1.381 . S
C3432 C3438 1.383 . S
C3433 C3429 1.495 . S
C3433 H3439 0.959 . S
C3433 H3440 0.961 . S
C3433 H3441 0.960 . S
C3434 C3432 1.381 . S
C3434 C3435 1.394 . S
C3434 H3442 0.930 . S
C3435 C3434 1.394 . S
C3435 C3436 1.383 . S
C3435 H3443 0.929 . S
C3436 C3435 1.383 . S
C3436 C3437 1.377 . S
C3437 H3421 0.930 . S
C3437 C3436 1.377 . S
C3437 C3438 1.379 . S
C3438 H3422 0.931 . S
C3438 C3432 1.383 . S
C3438 C3437 1.379 . S
H3439 C3433 0.959 . S
H3440 C3433 0.961 . S
H3441 C3433 0.960 . S
H3442 C3434 0.930 . S
H3443 C3435 0.929 . S
H3444 C3452 0.929 . S
H3445 C3454 0.930 . S
H3446 C3456 0.930 . S
H3447 C3459 0.929 . S
H3448 C3462 0.930 . S
H3449 C3464 0.960 . S
H3450 C3464 0.960 . S
H3451 C3464 0.960 . S
C3452 H3444 0.929 . S
C3452 C3453 1.377 . S
C3452 C3454 1.384 . S
C3453 C3452 1.377 . S
C3453 C3459 1.390 . S
C3454 H3445 0.930 . S
C3454 C3452 1.384 . S
C3454 C3455 1.372 . S
C3455 C3454 1.372 . S
C3455 C3456 1.400 . S
C3455 C3460 1.490 . S
C3456 H3446 0.930 . S
C3456 C3455 1.400 . S
C3456 C3459 1.386 . S
H3457 C3473 0.930 . S
H3458 C3474 0.931 . S
C3459 H3447 0.929 . S
C3459 C3453 1.390 . S
C3459 C3456 1.386 . S
C3460 C3455 1.490 . S
C3460 C3462 1.395 . S
C3460 C3463 1.403 . S
H3461 C3467 0.930 . S
C3462 H3448 0.930 . S
C3462 C3460 1.395 . S
C3462 C3465 1.403 . S
C3463 C3460 1.403 . S
C3463 C3464 1.524 . S
C3463 C3467 1.400 . S
C3464 H3449 0.960 . S
C3464 H3450 0.960 . S
C3464 H3451 0.960 . S
C3464 C3463 1.524 . S
C3465 C3462 1.403 . S
C3465 C3466 1.392 . S
C3465 C3469 1.495 . S
C3466 C3465 1.392 . S
C3466 C3467 1.385 . S
C3466 C3468 1.478 . S
C3467 H3461 0.930 . S
C3467 C3463 1.400 . S
C3467 C3466 1.385 . S
C3468 C3466 1.478 . S
C3468 C3470 1.381 . S
C3468 C3474 1.383 . S
C3469 C3465 1.495 . S
C3469 H3475 0.959 . S
C3469 H3476 0.961 . S
C3469 H3477 0.960 . S
C3470 C3468 1.381 . S
C3470 C3471 1.394 . S
C3470 H3478 0.930 . S
C3471 C3470 1.394 . S
C3471 C3472 1.383 . S
C3471 H3479 0.929 . S
C3472 C3471 1.383 . S
C3472 C3473 1.377 . S
C3473 H3457 0.930 . S
C3473 C3472 1.377 . S
C3473 C3474 1.379 . S
C3474 H3458 0.931 . S
C3474 C3468 1.383 . S
C3474 C3473 1.379 . S
H3475 C3469 0.959 . S
H3476 C3469 0.961 . S
H3477 C3469 0.960 . S
H3478 C3470 0.930 . S
H3479 C3471 0.929 . S
H3480 C3488 0.929 . S
H3481 C3490 0.930 . S
H3482 C3492 0.930 . S
H3483 C3495 0.929 . S
H3484 C3498 0.930 . S
H3485 C3500 0.960 . S
H3486 C3500 0.960 . S
H3487 C3500 0.960 . S
C3488 H3480 0.929 . S
C3488 C3489 1.377 . S
C3488 C3490 1.384 . S
C3489 C3488 1.377 . S
C3489 C3495 1.390 . S
C3490 H3481 0.930 . S
C3490 C3488 1.384 . S
C3490 C3491 1.372 . S
C3491 C3490 1.372 . S
C3491 C3492 1.400 . S
C3491 C3496 1.490 . S
C3492 H3482 0.930 . S
C3492 C3491 1.400 . S
C3492 C3495 1.386 . S
H3493 C3509 0.930 . S
H3494 C3510 0.931 . S
C3495 H3483 0.929 . S
C3495 C3489 1.390 . S
C3495 C3492 1.386 . S
C3496 C3491 1.490 . S
C3496 C3498 1.395 . S
C3496 C3499 1.403 1_556 S
H3497 C3503 0.930 . S
C3498 H3484 0.930 . S
C3498 C3496 1.395 . S
C3498 C3501 1.403 . S
C3499 C3496 1.403 1_554 S
C3499 C3500 1.524 . S
C3499 C3503 1.400 . S
C3500 H3485 0.960 . S
C3500 H3486 0.960 . S
C3500 H3487 0.960 . S
C3500 C3499 1.524 . S
C3501 C3498 1.403 . S
C3501 C3502 1.363 1_556 S
C3501 C3505 1.495 . S
C3502 C3501 1.363 1_554 S
C3502 C3503 1.408 . S
C3502 C3504 1.486 . S
C3503 H3497 0.930 . S
C3503 C3499 1.400 . S
C3503 C3502 1.408 . S
C3504 C3502 1.486 . S
C3504 C3506 1.381 . S
C3504 C3510 1.383 . S
C3505 C3501 1.495 . S
C3505 H3511 0.959 . S
C3505 H3512 0.961 . S
C3505 H3513 0.960 . S
C3506 C3504 1.381 . S
C3506 C3507 1.394 . S
C3506 H3514 0.930 . S
C3507 C3506 1.394 . S
C3507 C3508 1.383 . S
C3507 H3515 0.929 . S
C3508 C3507 1.383 . S
C3508 C3509 1.377 . S
C3509 H3493 0.930 . S
C3509 C3508 1.377 . S
C3509 C3510 1.379 . S
C3510 H3494 0.931 . S
C3510 C3504 1.383 . S
C3510 C3509 1.379 . S
H3511 C3505 0.959 . S
H3512 C3505 0.961 . S
H3513 C3505 0.960 . S
H3514 C3506 0.930 . S
H3515 C3507 0.929 . S
H3516 C3524 0.929 . S
H3517 C3526 0.930 . S
H3518 C3528 0.930 . S
H3519 C3531 0.929 . S
H3520 C3534 0.930 . S
H3521 C3536 0.960 . S
H3522 C3536 0.960 . S
H3523 C3536 0.960 . S
C3524 H3516 0.929 . S
C3524 C3525 1.377 . S
C3524 C3526 1.384 . S
C3525 C3524 1.377 . S
C3525 C3531 1.390 . S
C3526 H3517 0.930 . S
C3526 C3524 1.384 . S
C3526 C3527 1.372 1_455 S
C3527 C3526 1.372 1_655 S
C3527 C3528 1.400 . S
C3527 C3532 1.490 . S
C3528 H3518 0.930 . S
C3528 C3527 1.400 . S
C3528 C3531 1.386 1_655 S
H3529 C3545 0.930 . S
H3530 C3546 0.931 . S
C3531 H3519 0.929 . S
C3531 C3525 1.390 . S
C3531 C3528 1.386 1_455 S
C3532 C3527 1.490 . S
C3532 C3534 1.395 . S
C3532 C3535 1.403 . S
H3533 C3539 0.930 . S
C3534 H3520 0.930 . S
C3534 C3532 1.395 . S
C3534 C3537 1.403 . S
C3535 C3532 1.403 . S
C3535 C3536 1.524 . S
C3535 C3539 1.400 . S
C3536 H3521 0.960 . S
C3536 H3522 0.960 . S
C3536 H3523 0.960 . S
C3536 C3535 1.524 . S
C3537 C3534 1.403 . S
C3537 C3538 1.392 . S
C3537 C3541 1.495 . S
C3538 C3537 1.392 . S
C3538 C3539 1.385 . S
C3538 C3540 1.478 . S
C3539 H3533 0.930 . S
C3539 C3535 1.400 . S
C3539 C3538 1.385 . S
C3540 C3538 1.478 . S
C3540 C3542 1.381 . S
C3540 C3546 1.383 . S
C3541 C3537 1.495 . S
C3541 H3547 0.959 . S
C3541 H3548 0.961 . S
C3541 H3549 0.960 . S
C3542 C3540 1.381 . S
C3542 C3543 1.394 . S
C3542 H3550 0.930 . S
C3543 C3542 1.394 . S
C3543 C3544 1.383 . S
C3543 H3551 0.929 . S
C3544 C3543 1.383 . S
C3544 C3545 1.377 . S
C3545 H3529 0.930 . S
C3545 C3544 1.377 . S
C3545 C3546 1.379 . S
C3546 H3530 0.931 . S
C3546 C3540 1.383 . S
C3546 C3545 1.379 . S
H3547 C3541 0.959 . S
H3548 C3541 0.961 . S
H3549 C3541 0.960 . S
H3550 C3542 0.930 . S
H3551 C3543 0.929 . S
H3552 C3560 0.929 . S
H3553 C3562 0.930 . S
H3554 C3564 0.930 . S
H3555 C3567 0.929 . S
H3556 C3570 0.930 . S
H3557 C3572 0.960 . S
H3558 C3572 0.960 . S
H3559 C3572 0.960 . S
C3560 H3552 0.929 . S
C3560 C3561 1.377 . S
C3560 C3562 1.384 . S
C3561 C3560 1.377 . S
C3561 C3567 1.390 . S
C3562 H3553 0.930 . S
C3562 C3560 1.384 . S
C3562 C3563 1.372 . S
C3563 C3562 1.372 . S
C3563 C3564 1.400 . S
C3563 C3568 1.490 . S
C3564 H3554 0.930 . S
C3564 C3563 1.400 . S
C3564 C3567 1.386 . S
H3565 C3581 0.930 . S
H3566 C3582 0.931 . S
C3567 H3555 0.929 . S
C3567 C3561 1.390 . S
C3567 C3564 1.386 . S
C3568 C3563 1.490 . S
C3568 C3570 1.395 . S
C3568 C3571 1.403 . S
H3569 C3575 0.930 . S
C3570 H3556 0.930 . S
C3570 C3568 1.395 . S
C3570 C3573 1.403 . S
C3571 C3568 1.403 . S
C3571 C3572 1.524 . S
C3571 C3575 1.400 . S
C3572 H3557 0.960 . S
C3572 H3558 0.960 . S
C3572 H3559 0.960 . S
C3572 C3571 1.524 . S
C3573 C3570 1.403 . S
C3573 C3574 1.392 . S
C3573 C3577 1.495 . S
C3574 C3573 1.392 . S
C3574 C3575 1.385 . S
C3574 C3576 1.478 . S
C3575 H3569 0.930 . S
C3575 C3571 1.400 . S
C3575 C3574 1.385 . S
C3576 C3574 1.478 . S
C3576 C3578 1.381 . S
C3576 C3582 1.383 . S
C3577 C3573 1.495 . S
C3577 H3583 0.959 . S
C3577 H3584 0.961 . S
C3577 H3585 0.960 . S
C3578 C3576 1.381 . S
C3578 C3579 1.394 . S
C3578 H3586 0.930 . S
C3579 C3578 1.394 . S
C3579 C3580 1.383 . S
C3579 H3587 0.929 . S
C3580 C3579 1.383 . S
C3580 C3581 1.377 . S
C3581 H3565 0.930 . S
C3581 C3580 1.377 . S
C3581 C3582 1.379 . S
C3582 H3566 0.931 . S
C3582 C3576 1.383 . S
C3582 C3581 1.379 . S
H3583 C3577 0.959 . S
H3584 C3577 0.961 . S
H3585 C3577 0.960 . S
H3586 C3578 0.930 . S
H3587 C3579 0.929 . S
H3588 C3596 0.929 . S
H3589 C3598 0.930 . S
H3590 C3600 0.930 . S
H3591 C3603 0.929 . S
H3592 C3606 0.930 . S
H3593 C3608 0.960 . S
H3594 C3608 0.960 . S
H3595 C3608 0.960 . S
C3596 H3588 0.929 . S
C3596 C3597 1.377 . S
C3596 C3598 1.384 . S
C3597 C3596 1.377 . S
C3597 C3603 1.390 . S
C3598 H3589 0.930 . S
C3598 C3596 1.384 . S
C3598 C3599 1.372 . S
C3599 C3598 1.372 . S
C3599 C3600 1.400 . S
C3599 C3604 1.490 . S
C3600 H3590 0.930 . S
C3600 C3599 1.400 . S
C3600 C3603 1.386 . S
H3601 C3617 0.930 . S
H3602 C3618 0.931 . S
C3603 H3591 0.929 . S
C3603 C3597 1.390 . S
C3603 C3600 1.386 . S
C3604 C3599 1.490 . S
C3604 C3606 1.395 . S
C3604 C3607 1.403 1_455 S
H3605 C3611 0.930 . S
C3606 H3592 0.930 . S
C3606 C3604 1.395 . S
C3606 C3609 1.403 1_455 S
C3607 C3604 1.403 1_655 S
C3607 C3608 1.524 . S
C3607 C3611 1.400 . S
C3608 H3593 0.960 . S
C3608 H3594 0.960 . S
C3608 H3595 0.960 . S
C3608 C3607 1.524 . S
C3609 C3606 1.403 1_655 S
C3609 C3610 1.392 . S
C3609 C3613 1.495 . S
C3610 C3609 1.392 . S
C3610 C3611 1.385 . S
C3610 C3612 1.478 . S
C3611 H3605 0.930 . S
C3611 C3607 1.400 . S
C3611 C3610 1.385 . S
C3612 C3610 1.478 . S
C3612 C3614 1.381 . S
C3612 C3618 1.383 . S
C3613 C3609 1.495 . S
C3613 H3619 0.982 . S
C3613 H3620 0.961 . S
C3613 H3621 0.960 . S
C3614 C3612 1.381 . S
C3614 C3615 1.394 . S
C3614 H3622 0.930 . S
C3615 C3614 1.394 . S
C3615 C3616 1.383 . S
C3615 H3623 0.929 . S
C3616 C3615 1.383 . S
C3616 C3617 1.377 . S
C3617 H3601 0.930 . S
C3617 C3616 1.377 . S
C3617 C3618 1.379 . S
C3618 H3602 0.931 . S
C3618 C3612 1.383 . S
C3618 C3617 1.379 . S
H3619 C3613 0.982 . S
H3620 C3613 0.961 . S
H3621 C3613 0.960 . S
H3622 C3614 0.930 . S
H3623 C3615 0.929 . S
H3624 C3632 0.929 . S
H3625 C3634 0.930 . S
H3626 C3636 0.930 . S
H3627 C3639 0.929 . S
H3628 C3642 0.930 . S
H3629 C3644 0.960 . S
H3630 C3644 0.960 . S
H3631 C3644 0.960 1_455 S
C3632 H3624 0.929 . S
C3632 C3633 1.377 . S
C3632 C3634 1.384 . S
C3633 C3632 1.377 . S
C3633 C3639 1.390 1_655 S
C3634 H3625 0.930 . S
C3634 C3632 1.384 . S
C3634 C3635 1.372 1_655 S
C3635 C3634 1.372 1_455 S
C3635 C3636 1.400 . S
C3635 C3640 1.490 . S
C3636 H3626 0.930 . S
C3636 C3635 1.400 . S
C3636 C3639 1.386 . S
H3637 C3653 0.930 . S
H3638 C3654 0.931 . S
C3639 H3627 0.929 . S
C3639 C3633 1.390 1_455 S
C3639 C3636 1.386 . S
C3640 C3635 1.490 . S
C3640 C3642 1.395 . S
C3640 C3643 1.403 . S
H3641 C3647 0.930 . S
C3642 H3628 0.930 . S
C3642 C3640 1.395 . S
C3642 C3645 1.403 . S
C3643 C3640 1.403 . S
C3643 C3644 1.524 1_455 S
C3643 C3647 1.400 . S
C3644 H3629 0.960 . S
C3644 H3630 0.960 . S
C3644 H3631 0.960 1_655 S
C3644 C3643 1.524 1_655 S
C3645 C3642 1.403 . S
C3645 C3646 1.392 . S
C3645 C3649 1.495 . S
C3646 C3645 1.392 . S
C3646 C3647 1.385 . S
C3646 C3648 1.478 . S
C3647 H3641 0.930 . S
C3647 C3643 1.400 . S
C3647 C3646 1.385 . S
C3648 C3646 1.478 . S
C3648 C3650 1.381 . S
C3648 C3654 1.383 . S
C3649 C3645 1.495 . S
C3649 H3655 0.959 . S
C3649 H3656 0.961 . S
C3649 H3657 0.960 . S
C3650 C3648 1.381 . S
C3650 C3651 1.394 . S
C3650 H3658 0.930 . S
C3651 C3650 1.394 . S
C3651 C3652 1.383 . S
C3651 H3659 0.929 . S
C3652 C3651 1.383 . S
C3652 C3653 1.377 . S
C3653 H3637 0.930 . S
C3653 C3652 1.377 . S
C3653 C3654 1.379 . S
C3654 H3638 0.931 . S
C3654 C3648 1.383 . S
C3654 C3653 1.379 . S
H3655 C3649 0.959 . S
H3656 C3649 0.961 . S
H3657 C3649 0.960 . S
H3658 C3650 0.930 . S
H3659 C3651 0.929 . S
H3660 C3668 0.929 . S
H3661 C3670 0.930 . S
H3662 C3672 0.930 . S
H3663 C3675 0.929 . S
H3664 C3678 0.930 . S
H3665 C3680 0.960 . S
H3666 C3680 0.960 . S
H3667 C3680 0.960 . S
C3668 H3660 0.929 . S
C3668 C3669 1.377 . S
C3668 C3670 1.384 . S
C3669 C3668 1.377 . S
C3669 C3675 1.390 . S
C3670 H3661 0.930 . S
C3670 C3668 1.384 . S
C3670 C3671 1.372 . S
C3671 C3670 1.372 . S
C3671 C3672 1.400 . S
C3671 C3676 1.490 . S
C3672 H3662 0.930 . S
C3672 C3671 1.400 . S
C3672 C3675 1.386 . S
H3673 C3689 0.930 . S
H3674 C3690 0.931 . S
C3675 H3663 0.929 . S
C3675 C3669 1.390 . S
C3675 C3672 1.386 . S
C3676 C3671 1.490 . S
C3676 C3678 1.395 . S
C3676 C3679 1.403 . S
H3677 C3683 0.930 . S
C3678 H3664 0.930 . S
C3678 C3676 1.395 . S
C3678 C3681 1.403 . S
C3679 C3676 1.403 . S
C3679 C3680 1.524 . S
C3679 C3683 1.400 . S
C3680 H3665 0.960 . S
C3680 H3666 0.960 . S
C3680 H3667 0.960 . S
C3680 C3679 1.524 . S
C3681 C3678 1.403 . S
C3681 C3682 1.392 . S
C3681 C3685 1.495 . S
C3682 C3681 1.392 . S
C3682 C3683 1.385 . S
C3682 C3684 1.478 . S
C3683 H3677 0.930 . S
C3683 C3679 1.400 . S
C3683 C3682 1.385 . S
C3684 C3682 1.478 . S
C3684 C3686 1.381 . S
C3684 C3690 1.383 . S
C3685 C3681 1.495 . S
C3685 H3691 0.959 . S
C3685 H3692 0.961 . S
C3685 H3693 0.960 . S
C3686 C3684 1.381 . S
C3686 C3687 1.394 . S
C3686 H3694 0.930 . S
C3687 C3686 1.394 . S
C3687 C3688 1.383 . S
C3687 H3695 0.929 . S
C3688 C3687 1.383 . S
C3688 C3689 1.377 . S
C3689 H3673 0.930 . S
C3689 C3688 1.377 . S
C3689 C3690 1.379 . S
C3690 H3674 0.931 . S
C3690 C3684 1.383 . S
C3690 C3689 1.379 . S
H3691 C3685 0.959 . S
H3692 C3685 0.961 . S
H3693 C3685 0.960 . S
H3694 C3686 0.930 . S
H3695 C3687 0.929 . S
H3696 C3704 0.929 . S
H3697 C3706 0.930 . S
H3698 C3708 0.930 . S
H3699 C3711 0.929 . S
H3700 C3714 0.930 . S
H3701 C3716 0.960 . S
H3702 C3716 0.960 . S
H3703 C3716 0.960 . S
C3704 H3696 0.929 . S
C3704 C3705 1.377 . S
C3704 C3706 1.384 . S
C3705 C3704 1.377 . S
C3705 C3711 1.390 . S
C3706 H3697 0.930 . S
C3706 C3704 1.384 . S
C3706 C3707 1.372 . S
C3707 C3706 1.372 . S
C3707 C3708 1.400 . S
C3707 C3712 1.490 . S
C3708 H3698 0.930 . S
C3708 C3707 1.400 . S
C3708 C3711 1.386 . S
H3709 C3725 0.930 . S
H3710 C3726 0.931 . S
C3711 H3699 0.929 . S
C3711 C3705 1.390 . S
C3711 C3708 1.386 . S
C3712 C3707 1.490 . S
C3712 C3714 1.395 . S
C3712 C3715 1.403 . S
H3713 C3719 0.930 . S
C3714 H3700 0.930 . S
C3714 C3712 1.395 . S
C3714 C3717 1.403 . S
C3715 C3712 1.403 . S
C3715 C3716 1.524 . S
C3715 C3719 1.400 . S
C3716 H3701 0.960 . S
C3716 H3702 0.960 . S
C3716 H3703 0.960 . S
C3716 C3715 1.524 . S
C3717 C3714 1.403 . S
C3717 C3718 1.392 . S
C3717 C3721 1.495 . S
C3718 C3717 1.392 . S
C3718 C3719 1.385 . S
C3718 C3720 1.478 . S
C3719 H3713 0.930 . S
C3719 C3715 1.400 . S
C3719 C3718 1.385 . S
C3720 C3718 1.478 . S
C3720 C3722 1.381 . S
C3720 C3726 1.383 . S
C3721 C3717 1.495 . S
C3721 H3727 0.959 . S
C3721 H3728 0.961 . S
C3721 H3729 0.960 . S
C3722 C3720 1.381 . S
C3722 C3723 1.394 . S
C3722 H3730 0.930 . S
C3723 C3722 1.394 . S
C3723 C3724 1.383 . S
C3723 H3731 0.929 . S
C3724 C3723 1.383 . S
C3724 C3725 1.377 . S
C3725 H3709 0.930 . S
C3725 C3724 1.377 . S
C3725 C3726 1.379 . S
C3726 H3710 0.931 . S
C3726 C3720 1.383 . S
C3726 C3725 1.379 . S
H3727 C3721 0.959 . S
H3728 C3721 0.961 . S
H3729 C3721 0.960 . S
H3730 C3722 0.930 . S
H3731 C3723 0.929 . S
H3732 C3740 0.929 . S
H3733 C3742 0.930 . S
H3734 C3744 0.930 . S
H3735 C3747 0.929 . S
H3736 C3750 0.930 . S
H3737 C3752 0.960 . S
H3738 C3752 0.960 . S
H3739 C3752 0.960 . S
C3740 H3732 0.929 . S
C3740 C3741 1.377 . S
C3740 C3742 1.384 . S
C3741 C3740 1.377 . S
C3741 C3747 1.390 . S
C3742 H3733 0.930 . S
C3742 C3740 1.384 . S
C3742 C3743 1.372 . S
C3743 C3742 1.372 . S
C3743 C3744 1.400 . S
C3743 C3748 1.490 . S
C3744 H3734 0.930 . S
C3744 C3743 1.400 . S
C3744 C3747 1.386 . S
H3745 C3761 0.930 . S
H3746 C3762 0.931 . S
C3747 H3735 0.929 . S
C3747 C3741 1.390 . S
C3747 C3744 1.386 . S
C3748 C3743 1.490 . S
C3748 C3750 1.395 . S
C3748 C3751 1.403 . S
H3749 C3755 0.930 . S
C3750 H3736 0.930 . S
C3750 C3748 1.395 . S
C3750 C3753 1.403 . S
C3751 C3748 1.403 . S
C3751 C3752 1.524 . S
C3751 C3755 1.400 . S
C3752 H3737 0.960 . S
C3752 H3738 0.960 . S
C3752 H3739 0.960 . S
C3752 C3751 1.524 . S
C3753 C3750 1.403 . S
C3753 C3754 1.392 . S
C3753 C3757 1.495 . S
C3754 C3753 1.392 . S
C3754 C3755 1.385 . S
C3754 C3756 1.478 . S
C3755 H3749 0.930 . S
C3755 C3751 1.400 . S
C3755 C3754 1.385 . S
C3756 C3754 1.478 . S
C3756 C3758 1.381 . S
C3756 C3762 1.383 . S
C3757 C3753 1.495 . S
C3757 H3763 0.959 . S
C3757 H3764 0.961 . S
C3757 H3765 0.960 . S
C3758 C3756 1.381 . S
C3758 C3759 1.394 . S
C3758 H3766 0.930 . S
C3759 C3758 1.394 . S
C3759 C3760 1.383 . S
C3759 H3767 0.929 . S
C3760 C3759 1.383 . S
C3760 C3761 1.377 . S
C3761 H3745 0.930 . S
C3761 C3760 1.377 . S
C3761 C3762 1.379 . S
C3762 H3746 0.931 . S
C3762 C3756 1.383 . S
C3762 C3761 1.379 . S
H3763 C3757 0.959 . S
H3764 C3757 0.961 . S
H3765 C3757 0.960 . S
H3766 C3758 0.930 . S
H3767 C3759 0.929 . S
H3768 C3776 0.929 . S
H3769 C3778 0.930 . S
H3770 C3780 0.930 . S
H3771 C3783 0.929 . S
H3772 C3786 0.930 . S
H3773 C3788 0.960 . S
H3774 C3788 0.960 . S
H3775 C3788 0.960 . S
C3776 H3768 0.929 . S
C3776 C3777 1.377 . S
C3776 C3778 1.384 . S
C3777 C3776 1.377 . S
C3777 C3783 1.390 . S
C3778 H3769 0.930 . S
C3778 C3776 1.384 . S
C3778 C3779 1.372 . S
C3779 C3778 1.372 . S
C3779 C3780 1.400 . S
C3779 C3784 1.490 . S
C3780 H3770 0.930 . S
C3780 C3779 1.400 . S
C3780 C3783 1.386 . S
H3781 C3797 0.930 . S
H3782 C3798 0.931 . S
C3783 H3771 0.929 . S
C3783 C3777 1.390 . S
C3783 C3780 1.386 . S
C3784 C3779 1.490 . S
C3784 C3786 1.395 . S
C3784 C3787 1.403 . S
H3785 C3791 0.930 . S
C3786 H3772 0.930 . S
C3786 C3784 1.395 . S
C3786 C3789 1.403 . S
C3787 C3784 1.403 . S
C3787 C3788 1.524 . S
C3787 C3791 1.400 . S
C3788 H3773 0.960 . S
C3788 H3774 0.960 . S
C3788 H3775 0.960 . S
C3788 C3787 1.524 . S
C3789 C3786 1.403 . S
C3789 C3790 1.392 . S
C3789 C3793 1.495 . S
C3790 C3789 1.392 . S
C3790 C3791 1.385 . S
C3790 C3792 1.478 . S
C3791 H3785 0.930 . S
C3791 C3787 1.400 . S
C3791 C3790 1.385 . S
C3792 C3790 1.478 . S
C3792 C3794 1.381 . S
C3792 C3798 1.383 . S
C3793 C3789 1.495 . S
C3793 H3799 0.959 . S
C3793 H3800 0.961 . S
C3793 H3801 0.960 . S
C3794 C3792 1.381 . S
C3794 C3795 1.394 . S
C3794 H3802 0.930 . S
C3795 C3794 1.394 . S
C3795 C3796 1.383 . S
C3795 H3803 0.929 . S
C3796 C3795 1.383 . S
C3796 C3797 1.377 . S
C3797 H3781 0.930 . S
C3797 C3796 1.377 . S
C3797 C3798 1.379 . S
C3798 H3782 0.931 . S
C3798 C3792 1.383 . S
C3798 C3797 1.379 . S
H3799 C3793 0.959 . S
H3800 C3793 0.961 . S
H3801 C3793 0.960 . S
H3802 C3794 0.930 . S
H3803 C3795 0.929 . S
H3804 C3812 0.929 . S
H3805 C3814 0.930 . S
H3806 C3816 0.930 . S
H3807 C3819 0.929 . S
H3808 C3822 0.930 . S
H3809 C3824 0.960 . S
H3810 C3824 0.960 . S
H3811 C3824 0.960 . S
C3812 H3804 0.929 . S
C3812 C3813 1.377 . S
C3812 C3814 1.384 . S
C3813 C3812 1.377 . S
C3813 C3819 1.390 . S
C3814 H3805 0.930 . S
C3814 C3812 1.384 . S
C3814 C3815 1.372 . S
C3815 C3814 1.372 . S
C3815 C3816 1.400 . S
C3815 C3820 1.490 . S
C3816 H3806 0.930 . S
C3816 C3815 1.400 . S
C3816 C3819 1.386 . S
H3817 C3833 0.930 . S
H3818 C3834 0.931 . S
C3819 H3807 0.929 . S
C3819 C3813 1.390 . S
C3819 C3816 1.386 . S
C3820 C3815 1.490 . S
C3820 C3822 1.395 . S
C3820 C3823 1.403 . S
H3821 C3827 0.930 . S
C3822 H3808 0.930 . S
C3822 C3820 1.395 . S
C3822 C3825 1.403 . S
C3823 C3820 1.403 . S
C3823 C3824 1.524 . S
C3823 C3827 1.400 . S
C3824 H3809 0.960 . S
C3824 H3810 0.960 . S
C3824 H3811 0.960 . S
C3824 C3823 1.524 . S
C3825 C3822 1.403 . S
C3825 C3826 1.392 . S
C3825 C3829 1.495 . S
C3826 C3825 1.392 . S
C3826 C3827 1.385 . S
C3826 C3828 1.478 . S
C3827 H3821 0.930 . S
C3827 C3823 1.400 . S
C3827 C3826 1.385 . S
C3828 C3826 1.478 . S
C3828 C3830 1.381 . S
C3828 C3834 1.383 . S
C3829 C3825 1.495 . S
C3829 H3835 0.959 . S
C3829 H3836 0.961 . S
C3829 H3837 0.960 . S
C3830 C3828 1.381 . S
C3830 C3831 1.394 . S
C3830 H3838 0.930 . S
C3831 C3830 1.394 . S
C3831 C3832 1.383 . S
C3831 H3839 0.929 . S
C3832 C3831 1.383 . S
C3832 C3833 1.377 . S
C3833 H3817 0.930 . S
C3833 C3832 1.377 . S
C3833 C3834 1.379 . S
C3834 H3818 0.931 . S
C3834 C3828 1.383 . S
C3834 C3833 1.379 . S
H3835 C3829 0.959 . S
H3836 C3829 0.961 . S
H3837 C3829 0.960 . S
H3838 C3830 0.930 . S
H3839 C3831 0.929 . S
H3840 C3848 0.929 . S
H3841 C3850 0.930 . S
H3842 C3852 0.930 . S
H3843 C3855 0.929 . S
H3844 C3858 0.930 . S
H3845 C3860 0.960 . S
H3846 C3860 0.960 . S
H3847 C3860 0.960 . S
C3848 H3840 0.929 . S
C3848 C3849 1.377 . S
C3848 C3850 1.384 . S
C3849 C3848 1.377 . S
C3849 C3855 1.390 . S
C3850 H3841 0.930 . S
C3850 C3848 1.384 . S
C3850 C3851 1.372 . S
C3851 C3850 1.372 . S
C3851 C3852 1.400 . S
C3851 C3856 1.490 . S
C3852 H3842 0.930 . S
C3852 C3851 1.400 . S
C3852 C3855 1.386 . S
H3853 C3869 0.930 . S
H3854 C3870 0.931 . S
C3855 H3843 0.929 . S
C3855 C3849 1.390 . S
C3855 C3852 1.386 . S
C3856 C3851 1.490 . S
C3856 C3858 1.395 . S
C3856 C3859 1.403 . S
H3857 C3863 0.930 . S
C3858 H3844 0.930 . S
C3858 C3856 1.395 . S
C3858 C3861 1.403 . S
C3859 C3856 1.403 . S
C3859 C3860 1.524 . S
C3859 C3863 1.400 . S
C3860 H3845 0.960 . S
C3860 H3846 0.960 . S
C3860 H3847 0.960 . S
C3860 C3859 1.524 . S
C3861 C3858 1.403 . S
C3861 C3862 1.392 . S
C3861 C3865 1.495 . S
C3862 C3861 1.392 . S
C3862 C3863 1.385 . S
C3862 C3864 1.478 . S
C3863 H3857 0.930 . S
C3863 C3859 1.400 . S
C3863 C3862 1.385 . S
C3864 C3862 1.478 . S
C3864 C3866 1.381 . S
C3864 C3870 1.383 . S
C3865 C3861 1.495 . S
C3865 H3871 0.959 . S
C3865 H3872 0.961 . S
C3865 H3873 0.960 . S
C3866 C3864 1.381 . S
C3866 C3867 1.394 . S
C3866 H3874 0.930 . S
C3867 C3866 1.394 . S
C3867 C3868 1.383 . S
C3867 H3875 0.929 . S
C3868 C3867 1.383 . S
C3868 C3869 1.377 . S
C3869 H3853 0.930 . S
C3869 C3868 1.377 . S
C3869 C3870 1.379 . S
C3870 H3854 0.931 . S
C3870 C3864 1.383 . S
C3870 C3869 1.379 . S
H3871 C3865 0.959 . S
H3872 C3865 0.961 . S
H3873 C3865 0.960 . S
H3874 C3866 0.930 . S
H3875 C3867 0.929 . S
H3876 C3884 0.929 . S
H3877 C3886 0.930 . S
H3878 C3888 0.930 . S
H3879 C3891 0.929 . S
H3880 C3894 0.930 . S
H3881 C3896 0.960 . S
H3882 C3896 0.960 . S
H3883 C3896 0.960 . S
C3884 H3876 0.929 . S
C3884 C3885 1.377 . S
C3884 C3886 1.384 . S
C3885 C3884 1.377 . S
C3885 C3891 1.390 . S
C3886 H3877 0.930 . S
C3886 C3884 1.384 . S
C3886 C3887 1.372 . S
C3887 C3886 1.372 . S
C3887 C3888 1.400 . S
C3887 C3892 1.490 . S
C3888 H3878 0.930 . S
C3888 C3887 1.400 . S
C3888 C3891 1.386 . S
H3889 C3905 0.930 . S
H3890 C3906 0.931 . S
C3891 H3879 0.929 . S
C3891 C3885 1.390 . S
C3891 C3888 1.386 . S
C3892 C3887 1.490 . S
C3892 C3894 1.395 . S
C3892 C3895 1.403 . S
H3893 C3899 0.930 . S
C3894 H3880 0.930 . S
C3894 C3892 1.395 . S
C3894 C3897 1.403 . S
C3895 C3892 1.403 . S
C3895 C3896 1.524 . S
C3895 C3899 1.400 . S
C3896 H3881 0.960 . S
C3896 H3882 0.960 . S
C3896 H3883 0.960 . S
C3896 C3895 1.524 . S
C3897 C3894 1.403 . S
C3897 C3898 1.392 . S
C3897 C3901 1.495 . S
C3898 C3897 1.392 . S
C3898 C3899 1.385 . S
C3898 C3900 1.478 . S
C3899 H3893 0.930 . S
C3899 C3895 1.400 . S
C3899 C3898 1.385 . S
C3900 C3898 1.478 . S
C3900 C3902 1.381 . S
C3900 C3906 1.383 . S
C3901 C3897 1.495 . S
C3901 H3907 0.959 . S
C3901 H3908 0.961 . S
C3901 H3909 0.960 . S
C3902 C3900 1.381 . S
C3902 C3903 1.394 . S
C3902 H3910 0.930 . S
C3903 C3902 1.394 . S
C3903 C3904 1.383 . S
C3903 H3911 0.929 . S
C3904 C3903 1.383 . S
C3904 C3905 1.377 . S
C3905 H3889 0.930 . S
C3905 C3904 1.377 . S
C3905 C3906 1.379 . S
C3906 H3890 0.931 . S
C3906 C3900 1.383 . S
C3906 C3905 1.379 . S
H3907 C3901 0.959 . S
H3908 C3901 0.961 . S
H3909 C3901 0.960 . S
H3910 C3902 0.930 . S
H3911 C3903 0.929 . S
H3912 C3920 0.929 . S
H3913 C3922 0.930 . S
H3914 C3924 0.930 . S
H3915 C3927 0.929 . S
H3916 C3930 0.930 . S
H3917 C3932 0.960 . S
H3918 C3932 0.960 . S
H3919 C3932 0.960 . S
C3920 H3912 0.929 . S
C3920 C3921 1.377 . S
C3920 C3922 1.384 . S
C3921 C3920 1.377 . S
C3921 C3927 1.390 . S
C3922 H3913 0.930 . S
C3922 C3920 1.384 . S
C3922 C3923 1.372 . S
C3923 C3922 1.372 . S
C3923 C3924 1.400 . S
C3923 C3928 1.490 . S
C3924 H3914 0.930 . S
C3924 C3923 1.400 . S
C3924 C3927 1.386 . S
H3925 C3941 0.930 . S
H3926 C3942 0.931 . S
C3927 H3915 0.929 . S
C3927 C3921 1.390 . S
C3927 C3924 1.386 . S
C3928 C3923 1.490 . S
C3928 C3930 1.395 . S
C3928 C3931 1.403 . S
H3929 C3935 0.930 . S
C3930 H3916 0.930 . S
C3930 C3928 1.395 . S
C3930 C3933 1.403 . S
C3931 C3928 1.403 . S
C3931 C3932 1.524 . S
C3931 C3935 1.400 . S
C3932 H3917 0.960 . S
C3932 H3918 0.960 . S
C3932 H3919 0.960 . S
C3932 C3931 1.524 . S
C3933 C3930 1.403 . S
C3933 C3934 1.392 . S
C3933 C3937 1.495 . S
C3934 C3933 1.392 . S
C3934 C3935 1.385 . S
C3934 C3936 1.478 . S
C3935 H3929 0.930 . S
C3935 C3931 1.400 . S
C3935 C3934 1.385 . S
C3936 C3934 1.478 . S
C3936 C3938 1.381 . S
C3936 C3942 1.383 . S
C3937 C3933 1.495 . S
C3937 H3943 0.959 . S
C3937 H3944 0.961 . S
C3937 H3945 0.960 . S
C3938 C3936 1.381 . S
C3938 C3939 1.394 . S
C3938 H3946 0.930 . S
C3939 C3938 1.394 . S
C3939 C3940 1.383 . S
C3939 H3947 0.929 . S
C3940 C3939 1.383 . S
C3940 C3941 1.377 . S
C3941 H3925 0.930 . S
C3941 C3940 1.377 . S
C3941 C3942 1.379 . S
C3942 H3926 0.931 . S
C3942 C3936 1.383 . S
C3942 C3941 1.379 . S
H3943 C3937 0.959 . S
H3944 C3937 0.961 . S
H3945 C3937 0.960 . S
H3946 C3938 0.930 . S
H3947 C3939 0.929 . S
H3948 C3956 0.929 . S
H3949 C3958 0.930 . S
H3950 C3960 0.930 . S
H3951 C3963 0.929 . S
H3952 C3966 0.930 . S
H3953 C3968 0.960 . S
H3954 C3968 0.960 . S
H3955 C3968 0.960 . S
C3956 H3948 0.929 . S
C3956 C3957 1.377 . S
C3956 C3958 1.384 . S
C3957 C3956 1.377 . S
C3957 C3963 1.390 . S
C3958 H3949 0.930 . S
C3958 C3956 1.384 . S
C3958 C3959 1.372 . S
C3959 C3958 1.372 . S
C3959 C3960 1.400 . S
C3959 C3964 1.490 . S
C3960 H3950 0.930 . S
C3960 C3959 1.400 . S
C3960 C3963 1.386 . S
H3961 C3977 0.930 . S
H3962 C3978 0.931 . S
C3963 H3951 0.929 . S
C3963 C3957 1.390 . S
C3963 C3960 1.386 . S
C3964 C3959 1.490 . S
C3964 C3966 1.395 . S
C3964 C3967 1.403 . S
H3965 C3971 0.930 . S
C3966 H3952 0.930 . S
C3966 C3964 1.395 . S
C3966 C3969 1.403 . S
C3967 C3964 1.403 . S
C3967 C3968 1.524 . S
C3967 C3971 1.400 . S
C3968 H3953 0.960 . S
C3968 H3954 0.960 . S
C3968 H3955 0.960 . S
C3968 C3967 1.524 . S
C3969 C3966 1.403 . S
C3969 C3970 1.392 . S
C3969 C3973 1.495 . S
C3970 C3969 1.392 . S
C3970 C3971 1.385 . S
C3970 C3972 1.478 . S
C3971 H3965 0.930 . S
C3971 C3967 1.400 . S
C3971 C3970 1.385 . S
C3972 C3970 1.478 . S
C3972 C3974 1.381 . S
C3972 C3978 1.383 . S
C3973 C3969 1.495 . S
C3973 H3979 0.959 . S
C3973 H3980 0.961 . S
C3973 H3981 0.960 . S
C3974 C3972 1.381 . S
C3974 C3975 1.394 . S
C3974 H3982 0.930 . S
C3975 C3974 1.394 . S
C3975 C3976 1.383 . S
C3975 H3983 0.929 . S
C3976 C3975 1.383 . S
C3976 C3977 1.377 . S
C3977 H3961 0.930 . S
C3977 C3976 1.377 . S
C3977 C3978 1.379 . S
C3978 H3962 0.931 . S
C3978 C3972 1.383 . S
C3978 C3977 1.379 . S
H3979 C3973 0.959 . S
H3980 C3973 0.961 . S
H3981 C3973 0.960 . S
H3982 C3974 0.930 . S
H3983 C3975 0.929 . S
H3984 C3992 0.929 . S
H3985 C3994 0.930 . S
H3986 C3996 0.930 . S
H3987 C3999 0.929 . S
H3988 C4002 0.930 . S
H3989 C4004 0.960 . S
H3990 C4004 0.960 . S
H3991 C4004 0.960 . S
C3992 H3984 0.929 . S
C3992 C3993 1.377 . S
C3992 C3994 1.384 . S
C3993 C3992 1.377 . S
C3993 C3999 1.390 . S
C3994 H3985 0.930 . S
C3994 C3992 1.384 . S
C3994 C3995 1.372 . S
C3995 C3994 1.372 . S
C3995 C3996 1.400 . S
C3995 C4000 1.490 . S
C3996 H3986 0.930 . S
C3996 C3995 1.400 . S
C3996 C3999 1.386 . S
H3997 C4013 0.930 . S
H3998 C4014 0.931 . S
C3999 H3987 0.929 . S
C3999 C3993 1.390 . S
C3999 C3996 1.386 . S
C4000 C3995 1.490 . S
C4000 C4002 1.395 . S
C4000 C4003 1.403 . S
H4001 C4007 0.930 . S
C4002 H3988 0.930 . S
C4002 C4000 1.395 . S
C4002 C4005 1.403 . S
C4003 C4000 1.403 . S
C4003 C4004 1.524 . S
C4003 C4007 1.400 . S
C4004 H3989 0.960 . S
C4004 H3990 0.960 . S
C4004 H3991 0.960 . S
C4004 C4003 1.524 . S
C4005 C4002 1.403 . S
C4005 C4006 1.392 . S
C4005 C4009 1.495 . S
C4006 C4005 1.392 . S
C4006 C4007 1.385 . S
C4006 C4008 1.478 . S
C4007 H4001 0.930 . S
C4007 C4003 1.400 . S
C4007 C4006 1.385 . S
C4008 C4006 1.478 . S
C4008 C4010 1.381 . S
C4008 C4014 1.383 . S
C4009 C4005 1.495 . S
C4009 H4015 0.959 . S
C4009 H4016 0.961 . S
C4009 H4017 0.960 . S
C4010 C4008 1.381 . S
C4010 C4011 1.394 . S
C4010 H4018 0.930 . S
C4011 C4010 1.394 . S
C4011 C4012 1.383 . S
C4011 H4019 0.929 . S
C4012 C4011 1.383 . S
C4012 C4013 1.377 . S
C4013 H3997 0.930 . S
C4013 C4012 1.377 . S
C4013 C4014 1.379 . S
C4014 H3998 0.931 . S
C4014 C4008 1.383 . S
C4014 C4013 1.379 . S
H4015 C4009 0.959 . S
H4016 C4009 0.961 . S
H4017 C4009 0.960 . S
H4018 C4010 0.930 . S
H4019 C4011 0.929 . S
H4020 C4028 0.929 . S
H4021 C4030 0.930 . S
H4022 C4032 0.930 . S
H4023 C4035 0.929 . S
H4024 C4038 0.930 . S
H4025 C4040 0.960 . S
H4026 C4040 0.960 . S
H4027 C4040 0.960 . S
C4028 H4020 0.929 . S
C4028 C4029 1.377 . S
C4028 C4030 1.384 . S
C4029 C4028 1.377 . S
C4029 C4035 1.390 . S
C4030 H4021 0.930 . S
C4030 C4028 1.384 . S
C4030 C4031 1.372 . S
C4031 C4030 1.372 . S
C4031 C4032 1.400 . S
C4031 C4036 1.490 . S
C4032 H4022 0.930 . S
C4032 C4031 1.400 . S
C4032 C4035 1.386 . S
H4033 C4049 0.930 . S
H4034 C4050 0.931 . S
C4035 H4023 0.929 . S
C4035 C4029 1.390 . S
C4035 C4032 1.386 . S
C4036 C4031 1.490 . S
C4036 C4038 1.395 . S
C4036 C4039 1.403 . S
H4037 C4043 0.930 . S
C4038 H4024 0.930 . S
C4038 C4036 1.395 . S
C4038 C4041 1.403 . S
C4039 C4036 1.403 . S
C4039 C4040 1.524 . S
C4039 C4043 1.400 . S
C4040 H4025 0.960 . S
C4040 H4026 0.960 . S
C4040 H4027 0.960 . S
C4040 C4039 1.524 . S
C4041 C4038 1.403 . S
C4041 C4042 1.392 . S
C4041 C4045 1.495 . S
C4042 C4041 1.392 . S
C4042 C4043 1.385 . S
C4042 C4044 1.478 . S
C4043 H4037 0.930 . S
C4043 C4039 1.400 . S
C4043 C4042 1.385 . S
C4044 C4042 1.478 . S
C4044 C4046 1.381 . S
C4044 C4050 1.383 . S
C4045 C4041 1.495 . S
C4045 H4051 0.959 . S
C4045 H4052 0.961 . S
C4045 H4053 0.960 . S
C4046 C4044 1.381 . S
C4046 C4047 1.394 . S
C4046 H4054 0.930 . S
C4047 C4046 1.394 . S
C4047 C4048 1.383 . S
C4047 H4055 0.929 . S
C4048 C4047 1.383 . S
C4048 C4049 1.377 . S
C4049 H4033 0.930 . S
C4049 C4048 1.377 . S
C4049 C4050 1.379 . S
C4050 H4034 0.931 . S
C4050 C4044 1.383 . S
C4050 C4049 1.379 . S
H4051 C4045 0.959 . S
H4052 C4045 0.961 . S
H4053 C4045 0.960 . S
H4054 C4046 0.930 . S
H4055 C4047 0.929 . S
H4056 C4064 0.929 . S
H4057 C4066 0.930 . S
H4058 C4068 0.930 . S
H4059 C4071 0.929 . S
H4060 C4074 0.930 . S
H4061 C4076 0.960 . S
H4062 C4076 0.960 . S
H4063 C4076 0.960 . S
C4064 H4056 0.929 . S
C4064 C4065 1.377 . S
C4064 C4066 1.384 . S
C4065 C4064 1.377 . S
C4065 C4071 1.390 . S
C4066 H4057 0.930 . S
C4066 C4064 1.384 . S
C4066 C4067 1.372 . S
C4067 C4066 1.372 . S
C4067 C4068 1.400 . S
C4067 C4072 1.490 . S
C4068 H4058 0.930 . S
C4068 C4067 1.400 . S
C4068 C4071 1.386 . S
H4069 C4085 0.930 . S
H4070 C4086 0.931 . S
C4071 H4059 0.929 . S
C4071 C4065 1.390 . S
C4071 C4068 1.386 . S
C4072 C4067 1.490 . S
C4072 C4074 1.395 . S
C4072 C4075 1.403 . S
H4073 C4079 0.930 . S
C4074 H4060 0.930 . S
C4074 C4072 1.395 . S
C4074 C4077 1.403 . S
C4075 C4072 1.403 . S
C4075 C4076 1.524 . S
C4075 C4079 1.400 . S
C4076 H4061 0.960 . S
C4076 H4062 0.960 . S
C4076 H4063 0.960 . S
C4076 C4075 1.524 . S
C4077 C4074 1.403 . S
C4077 C4078 1.392 . S
C4077 C4081 1.495 . S
C4078 C4077 1.392 . S
C4078 C4079 1.385 . S
C4078 C4080 1.478 . S
C4079 H4073 0.930 . S
C4079 C4075 1.400 . S
C4079 C4078 1.385 . S
C4080 C4078 1.478 . S
C4080 C4082 1.381 . S
C4080 C4086 1.383 . S
C4081 C4077 1.495 . S
C4081 H4087 0.959 . S
C4081 H4088 0.961 . S
C4081 H4089 0.960 . S
C4082 C4080 1.381 . S
C4082 C4083 1.394 . S
C4082 H4090 0.930 . S
C4083 C4082 1.394 . S
C4083 C4084 1.383 . S
C4083 H4091 0.929 . S
C4084 C4083 1.383 . S
C4084 C4085 1.377 . S
C4085 H4069 0.930 . S
C4085 C4084 1.377 . S
C4085 C4086 1.379 . S
C4086 H4070 0.931 . S
C4086 C4080 1.383 . S
C4086 C4085 1.379 . S
H4087 C4081 0.959 . S
H4088 C4081 0.961 . S
H4089 C4081 0.960 . S
H4090 C4082 0.930 . S
H4091 C4083 0.929 . S
H4092 C4100 0.929 . S
H4093 C4102 0.930 . S
H4094 C4104 0.930 . S
H4095 C4107 0.929 . S
H4096 C4110 0.930 . S
H4097 C4112 0.960 . S
H4098 C4112 0.960 . S
H4099 C4112 0.960 . S
C4100 H4092 0.929 . S
C4100 C4101 1.377 . S
C4100 C4102 1.384 . S
C4101 C4100 1.377 . S
C4101 C4107 1.390 . S
C4102 H4093 0.930 . S
C4102 C4100 1.384 . S
C4102 C4103 1.372 . S
C4103 C4102 1.372 . S
C4103 C4104 1.400 . S
C4103 C4108 1.490 . S
C4104 H4094 0.930 . S
C4104 C4103 1.400 . S
C4104 C4107 1.386 . S
H4105 C4121 0.930 . S
H4106 C4122 0.931 1_565 S
C4107 H4095 0.929 . S
C4107 C4101 1.390 . S
C4107 C4104 1.386 . S
C4108 C4103 1.490 . S
C4108 C4110 1.395 . S
C4108 C4111 1.403 . S
H4109 C4115 0.967 . S
C4110 H4096 0.930 . S
C4110 C4108 1.395 . S
C4110 C4113 1.403 1_565 S
C4111 C4108 1.403 . S
C4111 C4112 1.524 1_554 S
C4111 C4115 1.400 . S
C4112 H4097 0.960 . S
C4112 H4098 0.960 . S
C4112 H4099 0.960 . S
C4112 C4111 1.524 1_556 S
C4113 C4110 1.403 1_545 S
C4113 C4114 1.377 1_545 S
C4113 C4117 1.495 . S
C4114 C4113 1.377 1_565 S
C4114 C4115 1.418 . S
C4114 C4116 1.465 1_565 S
C4115 H4109 0.967 . S
C4115 C4111 1.400 . S
C4115 C4114 1.418 . S
C4116 C4114 1.465 1_545 S
C4116 C4118 1.381 . S
C4116 C4122 1.383 . S
C4117 C4113 1.495 . S
C4117 H4123 0.959 . S
C4117 H4124 0.961 . S
C4117 H4125 0.960 . S
C4118 C4116 1.381 . S
C4118 C4119 1.394 . S
C4118 H4126 0.930 . S
C4119 C4118 1.394 . S
C4119 C4120 1.383 . S
C4119 H4127 0.929 . S
C4120 C4119 1.383 . S
C4120 C4121 1.377 . S
C4121 H4105 0.930 . S
C4121 C4120 1.377 . S
C4121 C4122 1.379 . S
C4122 H4106 0.931 1_545 S
C4122 C4116 1.383 . S
C4122 C4121 1.379 . S
H4123 C4117 0.959 . S
H4124 C4117 0.961 . S
H4125 C4117 0.960 . S
H4126 C4118 0.930 . S
H4127 C4119 0.929 . S
H4128 C4136 0.929 . S
H4129 C4138 0.930 . S
H4130 C4140 0.930 . S
H4131 C4143 0.929 . S
H4132 C4146 0.930 . S
H4133 C4148 0.960 . S
H4134 C4148 0.960 . S
H4135 C4148 0.960 . S
C4136 H4128 0.929 . S
C4136 C4137 1.377 . S
C4136 C4138 1.384 . S
C4137 C4136 1.377 . S
C4137 C4143 1.390 . S
C4138 H4129 0.930 . S
C4138 C4136 1.384 . S
C4138 C4139 1.372 . S
C4139 C4138 1.372 . S
C4139 C4140 1.400 . S
C4139 C4144 1.490 . S
C4140 H4130 0.930 . S
C4140 C4139 1.400 . S
C4140 C4143 1.386 . S
H4141 C4157 0.930 . S
H4142 C4158 0.931 . S
C4143 H4131 0.929 . S
C4143 C4137 1.390 . S
C4143 C4140 1.386 . S
C4144 C4139 1.490 . S
C4144 C4146 1.395 . S
C4144 C4147 1.403 . S
H4145 C4151 0.930 . S
C4146 H4132 0.930 . S
C4146 C4144 1.395 . S
C4146 C4149 1.403 . S
C4147 C4144 1.403 . S
C4147 C4148 1.524 . S
C4147 C4151 1.400 . S
C4148 H4133 0.960 . S
C4148 H4134 0.960 . S
C4148 H4135 0.960 . S
C4148 C4147 1.524 . S
C4149 C4146 1.403 . S
C4149 C4150 1.392 . S
C4149 C4153 1.495 . S
C4150 C4149 1.392 . S
C4150 C4151 1.385 . S
C4150 C4152 1.478 . S
C4151 H4145 0.930 . S
C4151 C4147 1.400 . S
C4151 C4150 1.385 . S
C4152 C4150 1.478 . S
C4152 C4154 1.381 . S
C4152 C4158 1.383 . S
C4153 C4149 1.495 . S
C4153 H4159 0.959 . S
C4153 H4160 0.961 . S
C4153 H4161 0.960 . S
C4154 C4152 1.381 . S
C4154 C4155 1.394 . S
C4154 H4162 0.930 . S
C4155 C4154 1.394 . S
C4155 C4156 1.383 . S
C4155 H4163 0.929 . S
C4156 C4155 1.383 . S
C4156 C4157 1.377 . S
C4157 H4141 0.930 . S
C4157 C4156 1.377 . S
C4157 C4158 1.379 . S
C4158 H4142 0.931 . S
C4158 C4152 1.383 . S
C4158 C4157 1.379 . S
H4159 C4153 0.959 . S
H4160 C4153 0.961 . S
H4161 C4153 0.960 . S
H4162 C4154 0.930 . S
H4163 C4155 0.929 . S
H4164 C4172 0.929 . S
H4165 C4174 0.930 . S
H4166 C4176 0.913 1_556 S
H4167 C4179 0.897 1_556 S
H4168 C4182 0.930 . S
H4169 C4184 0.960 . S
H4170 C4184 0.960 . S
H4171 C4184 0.960 . S
C4172 H4164 0.929 . S
C4172 C4173 1.377 . S
C4172 C4174 1.384 . S
C4173 C4172 1.377 . S
C4173 C4179 1.410 . S
C4174 H4165 0.930 . S
C4174 C4172 1.384 . S
C4174 C4175 1.372 . S
C4175 C4174 1.372 . S
C4175 C4176 1.400 . S
C4175 C4180 1.490 . S
C4176 H4166 0.913 1_554 S
C4176 C4175 1.400 . S
C4176 C4179 1.398 . S
H4177 C4193 0.930 . S
H4178 C4194 0.931 . S
C4179 H4167 0.897 1_554 S
C4179 C4173 1.410 . S
C4179 C4176 1.398 . S
C4180 C4175 1.490 . S
C4180 C4182 1.395 . S
C4180 C4183 1.403 . S
H4181 C4187 0.930 . S
C4182 H4168 0.930 . S
C4182 C4180 1.395 . S
C4182 C4185 1.403 . S
C4183 C4180 1.403 . S
C4183 C4184 1.524 . S
C4183 C4187 1.400 . S
C4184 H4169 0.960 . S
C4184 H4170 0.960 . S
C4184 H4171 0.960 . S
C4184 C4183 1.524 . S
C4185 C4182 1.403 . S
C4185 C4186 1.392 . S
C4185 C4189 1.495 . S
C4186 C4185 1.392 . S
C4186 C4187 1.385 . S
C4186 C4188 1.478 . S
C4187 H4181 0.930 . S
C4187 C4183 1.400 . S
C4187 C4186 1.385 . S
C4188 C4186 1.478 . S
C4188 C4190 1.381 . S
C4188 C4194 1.383 . S
C4189 C4185 1.495 . S
C4189 H4195 0.959 . S
C4189 H4196 0.961 . S
C4189 H4197 0.960 . S
C4190 C4188 1.381 . S
C4190 C4191 1.394 . S
C4190 H4198 0.930 . S
C4191 C4190 1.394 . S
C4191 C4192 1.383 . S
C4191 H4199 0.929 . S
C4192 C4191 1.383 . S
C4192 C4193 1.377 . S
C4193 H4177 0.930 . S
C4193 C4192 1.377 . S
C4193 C4194 1.379 . S
C4194 H4178 0.931 . S
C4194 C4188 1.383 . S
C4194 C4193 1.379 . S
H4195 C4189 0.959 . S
H4196 C4189 0.961 . S
H4197 C4189 0.960 . S
H4198 C4190 0.930 . S
H4199 C4191 0.929 . S
H4200 C4208 0.929 . S
H4201 C4210 0.930 . S
H4202 C4212 0.930 . S
H4203 C4215 0.929 . S
H4204 C4218 0.930 . S
H4205 C4220 0.960 . S
H4206 C4220 0.960 . S
H4207 C4220 0.960 . S
C4208 H4200 0.929 . S
C4208 C4209 1.377 . S
C4208 C4210 1.384 . S
C4209 C4208 1.377 . S
C4209 C4215 1.390 . S
C4210 H4201 0.930 . S
C4210 C4208 1.384 . S
C4210 C4211 1.372 . S
C4211 C4210 1.372 . S
C4211 C4212 1.400 . S
C4211 C4216 1.490 . S
C4212 H4202 0.930 . S
C4212 C4211 1.400 . S
C4212 C4215 1.386 . S
H4213 C4229 0.930 . S
H4214 C4230 0.931 . S
C4215 H4203 0.929 . S
C4215 C4209 1.390 . S
C4215 C4212 1.386 . S
C4216 C4211 1.490 . S
C4216 C4218 1.395 . S
C4216 C4219 1.403 . S
H4217 C4223 0.930 . S
C4218 H4204 0.930 . S
C4218 C4216 1.395 . S
C4218 C4221 1.403 . S
C4219 C4216 1.403 . S
C4219 C4220 1.524 . S
C4219 C4223 1.400 . S
C4220 H4205 0.960 . S
C4220 H4206 0.960 . S
C4220 H4207 0.960 . S
C4220 C4219 1.524 . S
C4221 C4218 1.403 . S
C4221 C4222 1.392 . S
C4221 C4225 1.495 . S
C4222 C4221 1.392 . S
C4222 C4223 1.385 . S
C4222 C4224 1.478 . S
C4223 H4217 0.930 . S
C4223 C4219 1.400 . S
C4223 C4222 1.385 . S
C4224 C4222 1.478 . S
C4224 C4226 1.381 . S
C4224 C4230 1.383 . S
C4225 C4221 1.495 . S
C4225 H4231 0.959 . S
C4225 H4232 0.961 . S
C4225 H4233 0.960 . S
C4226 C4224 1.381 . S
C4226 C4227 1.394 . S
C4226 H4234 0.930 . S
C4227 C4226 1.394 . S
C4227 C4228 1.383 . S
C4227 H4235 0.929 . S
C4228 C4227 1.383 . S
C4228 C4229 1.377 . S
C4229 H4213 0.930 . S
C4229 C4228 1.377 . S
C4229 C4230 1.379 . S
C4230 H4214 0.931 . S
C4230 C4224 1.383 . S
C4230 C4229 1.379 . S
H4231 C4225 0.959 . S
H4232 C4225 0.961 . S
H4233 C4225 0.960 . S
H4234 C4226 0.930 . S
H4235 C4227 0.929 . S
H4236 C4244 0.929 . S
H4237 C4246 0.930 . S
H4238 C4248 0.930 . S
H4239 C4251 0.929 . S
H4240 C4254 0.930 . S
H4241 C4256 0.960 . S
H4242 C4256 0.960 . S
H4243 C4256 0.960 . S
C4244 H4236 0.929 . S
C4244 C4245 1.377 . S
C4244 C4246 1.384 . S
C4245 C4244 1.377 . S
C4245 C4251 1.390 . S
C4246 H4237 0.930 . S
C4246 C4244 1.384 . S
C4246 C4247 1.372 . S
C4247 C4246 1.372 . S
C4247 C4248 1.400 . S
C4247 C4252 1.490 . S
C4248 H4238 0.930 . S
C4248 C4247 1.400 . S
C4248 C4251 1.386 . S
H4249 C4265 0.930 . S
H4250 C4266 0.931 . S
C4251 H4239 0.929 . S
C4251 C4245 1.390 . S
C4251 C4248 1.386 . S
C4252 C4247 1.490 . S
C4252 C4254 1.395 . S
C4252 C4255 1.403 . S
H4253 C4259 0.930 . S
C4254 H4240 0.930 . S
C4254 C4252 1.395 . S
C4254 C4257 1.403 . S
C4255 C4252 1.403 . S
C4255 C4256 1.524 . S
C4255 C4259 1.400 . S
C4256 H4241 0.960 . S
C4256 H4242 0.960 . S
C4256 H4243 0.960 . S
C4256 C4255 1.524 . S
C4257 C4254 1.403 . S
C4257 C4258 1.392 . S
C4257 C4261 1.495 . S
C4258 C4257 1.392 . S
C4258 C4259 1.385 . S
C4258 C4260 1.478 . S
C4259 H4253 0.930 . S
C4259 C4255 1.400 . S
C4259 C4258 1.385 . S
C4260 C4258 1.478 . S
C4260 C4262 1.381 . S
C4260 C4266 1.383 . S
C4261 C4257 1.495 . S
C4261 H4267 0.959 . S
C4261 H4268 0.961 . S
C4261 H4269 0.960 . S
C4262 C4260 1.381 . S
C4262 C4263 1.394 . S
C4262 H4270 0.930 . S
C4263 C4262 1.394 . S
C4263 C4264 1.383 . S
C4263 H4271 0.929 . S
C4264 C4263 1.383 . S
C4264 C4265 1.377 . S
C4265 H4249 0.930 . S
C4265 C4264 1.377 . S
C4265 C4266 1.379 . S
C4266 H4250 0.931 . S
C4266 C4260 1.383 . S
C4266 C4265 1.379 . S
H4267 C4261 0.959 . S
H4268 C4261 0.961 . S
H4269 C4261 0.960 . S
H4270 C4262 0.930 . S
H4271 C4263 0.929 . S
H4272 C4280 0.929 . S
H4273 C4282 0.930 . S
H4274 C4284 0.930 . S
H4275 C4287 0.929 . S
H4276 C4290 0.930 . S
H4277 C4292 0.960 . S
H4278 C4292 0.960 . S
H4279 C4292 0.960 . S
C4280 H4272 0.929 . S
C4280 C4281 1.377 . S
C4280 C4282 1.384 . S
C4281 C4280 1.377 . S
C4281 C4287 1.390 . S
C4282 H4273 0.930 . S
C4282 C4280 1.384 . S
C4282 C4283 1.372 . S
C4283 C4282 1.372 . S
C4283 C4284 1.400 . S
C4283 C4288 1.490 . S
C4284 H4274 0.930 . S
C4284 C4283 1.400 . S
C4284 C4287 1.386 . S
H4285 C4301 0.930 . S
H4286 C4302 0.931 . S
C4287 H4275 0.929 . S
C4287 C4281 1.390 . S
C4287 C4284 1.386 . S
C4288 C4283 1.490 . S
C4288 C4290 1.395 . S
C4288 C4291 1.403 . S
H4289 C4295 0.930 . S
C4290 H4276 0.930 . S
C4290 C4288 1.395 . S
C4290 C4293 1.403 . S
C4291 C4288 1.403 . S
C4291 C4292 1.524 . S
C4291 C4295 1.400 . S
C4292 H4277 0.960 . S
C4292 H4278 0.960 . S
C4292 H4279 0.960 . S
C4292 C4291 1.524 . S
C4293 C4290 1.403 . S
C4293 C4294 1.392 . S
C4293 C4297 1.495 . S
C4294 C4293 1.392 . S
C4294 C4295 1.385 . S
C4294 C4296 1.478 . S
C4295 H4289 0.930 . S
C4295 C4291 1.400 . S
C4295 C4294 1.385 . S
C4296 C4294 1.478 . S
C4296 C4298 1.381 . S
C4296 C4302 1.383 . S
C4297 C4293 1.495 . S
C4297 H4303 0.959 . S
C4297 H4304 0.961 . S
C4297 H4305 0.960 . S
C4298 C4296 1.381 . S
C4298 C4299 1.394 . S
C4298 H4306 0.930 . S
C4299 C4298 1.394 . S
C4299 C4300 1.383 . S
C4299 H4307 0.929 . S
C4300 C4299 1.383 . S
C4300 C4301 1.377 . S
C4301 H4285 0.930 . S
C4301 C4300 1.377 . S
C4301 C4302 1.379 . S
C4302 H4286 0.931 . S
C4302 C4296 1.383 . S
C4302 C4301 1.379 . S
H4303 C4297 0.959 . S
H4304 C4297 0.961 . S
H4305 C4297 0.960 . S
H4306 C4298 0.930 . S
H4307 C4299 0.929 . S
H4308 C4316 0.929 . S
H4309 C4318 0.930 . S
H4310 C4320 0.930 . S
H4311 C4323 0.929 . S
H4312 C4326 0.930 . S
H4313 C4328 0.960 . S
H4314 C4328 0.960 . S
H4315 C4328 0.960 . S
C4316 H4308 0.929 . S
C4316 C4317 1.377 . S
C4316 C4318 1.384 . S
C4317 C4316 1.377 . S
C4317 C4323 1.390 . S
C4318 H4309 0.930 . S
C4318 C4316 1.384 . S
C4318 C4319 1.372 . S
C4319 C4318 1.372 . S
C4319 C4320 1.400 . S
C4319 C4324 1.490 . S
C4320 H4310 0.930 . S
C4320 C4319 1.400 . S
C4320 C4323 1.386 . S
H4321 C4337 0.930 . S
H4322 C4338 0.931 . S
C4323 H4311 0.929 . S
C4323 C4317 1.390 . S
C4323 C4320 1.386 . S
C4324 C4319 1.490 . S
C4324 C4326 1.395 . S
C4324 C4327 1.403 . S
H4325 C4331 0.930 . S
C4326 H4312 0.930 . S
C4326 C4324 1.395 . S
C4326 C4329 1.403 . S
C4327 C4324 1.403 . S
C4327 C4328 1.524 . S
C4327 C4331 1.400 . S
C4328 H4313 0.960 . S
C4328 H4314 0.960 . S
C4328 H4315 0.960 . S
C4328 C4327 1.524 . S
C4329 C4326 1.403 . S
C4329 C4330 1.392 . S
C4329 C4333 1.495 . S
C4330 C4329 1.392 . S
C4330 C4331 1.385 . S
C4330 C4332 1.478 . S
C4331 H4325 0.930 . S
C4331 C4327 1.400 . S
C4331 C4330 1.385 . S
C4332 C4330 1.478 . S
C4332 C4334 1.381 . S
C4332 C4338 1.383 . S
C4333 C4329 1.495 . S
C4333 H4339 0.959 . S
C4333 H4340 0.961 . S
C4333 H4341 0.960 . S
C4334 C4332 1.381 . S
C4334 C4335 1.394 . S
C4334 H4342 0.930 . S
C4335 C4334 1.394 . S
C4335 C4336 1.383 . S
C4335 H4343 0.929 . S
C4336 C4335 1.383 . S
C4336 C4337 1.377 . S
C4337 H4321 0.930 . S
C4337 C4336 1.377 . S
C4337 C4338 1.379 . S
C4338 H4322 0.931 . S
C4338 C4332 1.383 . S
C4338 C4337 1.379 . S
H4339 C4333 0.959 . S
H4340 C4333 0.961 . S
H4341 C4333 0.960 . S
H4342 C4334 0.930 . S
H4343 C4335 0.929 . S
H4344 C4352 0.929 . S
H4345 C4354 0.930 . S
H4346 C4356 0.930 . S
H4347 C4359 0.929 . S
H4348 C4362 0.930 . S
H4349 C4364 0.960 . S
H4350 C4364 0.960 . S
H4351 C4364 0.960 . S
C4352 H4344 0.929 . S
C4352 C4353 1.377 . S
C4352 C4354 1.384 . S
C4353 C4352 1.377 . S
C4353 C4359 1.390 . S
C4354 H4345 0.930 . S
C4354 C4352 1.384 . S
C4354 C4355 1.372 . S
C4355 C4354 1.372 . S
C4355 C4356 1.400 . S
C4355 C4360 1.490 . S
C4356 H4346 0.930 . S
C4356 C4355 1.400 . S
C4356 C4359 1.386 . S
H4357 C4373 0.930 . S
H4358 C4374 0.931 . S
C4359 H4347 0.929 . S
C4359 C4353 1.390 . S
C4359 C4356 1.386 . S
C4360 C4355 1.490 . S
C4360 C4362 1.395 . S
C4360 C4363 1.403 . S
H4361 C4367 0.930 . S
C4362 H4348 0.930 . S
C4362 C4360 1.395 . S
C4362 C4365 1.403 . S
C4363 C4360 1.403 . S
C4363 C4364 1.524 . S
C4363 C4367 1.400 . S
C4364 H4349 0.960 . S
C4364 H4350 0.960 . S
C4364 H4351 0.960 . S
C4364 C4363 1.524 . S
C4365 C4362 1.403 . S
C4365 C4366 1.392 . S
C4365 C4369 1.495 . S
C4366 C4365 1.392 . S
C4366 C4367 1.385 . S
C4366 C4368 1.478 . S
C4367 H4361 0.930 . S
C4367 C4363 1.400 . S
C4367 C4366 1.385 . S
C4368 C4366 1.478 . S
C4368 C4370 1.381 . S
C4368 C4374 1.383 . S
C4369 C4365 1.495 . S
C4369 H4375 0.959 . S
C4369 H4376 0.961 . S
C4369 H4377 0.960 . S
C4370 C4368 1.381 . S
C4370 C4371 1.394 . S
C4370 H4378 0.930 . S
C4371 C4370 1.394 . S
C4371 C4372 1.383 . S
C4371 H4379 0.929 . S
C4372 C4371 1.383 . S
C4372 C4373 1.377 . S
C4373 H4357 0.930 . S
C4373 C4372 1.377 . S
C4373 C4374 1.379 . S
C4374 H4358 0.931 . S
C4374 C4368 1.383 . S
C4374 C4373 1.379 . S
H4375 C4369 0.959 . S
H4376 C4369 0.961 . S
H4377 C4369 0.960 . S
H4378 C4370 0.930 . S
H4379 C4371 0.929 . S
H4380 C4388 0.929 . S
H4381 C4390 0.930 . S
H4382 C4392 0.930 . S
H4383 C4395 0.929 . S
H4384 C4398 0.930 . S
H4385 C4400 0.960 . S
H4386 C4400 0.960 . S
H4387 C4400 0.960 . S
C4388 H4380 0.929 . S
C4388 C4389 1.377 . S
C4388 C4390 1.384 . S
C4389 C4388 1.377 . S
C4389 C4395 1.390 . S
C4390 H4381 0.930 . S
C4390 C4388 1.384 . S
C4390 C4391 1.372 . S
C4391 C4390 1.372 . S
C4391 C4392 1.400 . S
C4391 C4396 1.490 . S
C4392 H4382 0.930 . S
C4392 C4391 1.400 . S
C4392 C4395 1.386 . S
H4393 C4409 0.930 . S
H4394 C4410 0.931 . S
C4395 H4383 0.929 . S
C4395 C4389 1.390 . S
C4395 C4392 1.386 . S
C4396 C4391 1.490 . S
C4396 C4398 1.395 . S
C4396 C4399 1.403 . S
H4397 C4403 0.930 . S
C4398 H4384 0.930 . S
C4398 C4396 1.395 . S
C4398 C4401 1.403 . S
C4399 C4396 1.403 . S
C4399 C4400 1.524 . S
C4399 C4403 1.400 . S
C4400 H4385 0.960 . S
C4400 H4386 0.960 . S
C4400 H4387 0.960 . S
C4400 C4399 1.524 . S
C4401 C4398 1.403 . S
C4401 C4402 1.392 . S
C4401 C4405 1.495 . S
C4402 C4401 1.392 . S
C4402 C4403 1.385 . S
C4402 C4404 1.478 . S
C4403 H4397 0.930 . S
C4403 C4399 1.400 . S
C4403 C4402 1.385 . S
C4404 C4402 1.478 . S
C4404 C4406 1.381 . S
C4404 C4410 1.383 . S
C4405 C4401 1.495 . S
C4405 H4411 0.959 . S
C4405 H4412 0.961 . S
C4405 H4413 0.960 . S
C4406 C4404 1.381 . S
C4406 C4407 1.394 . S
C4406 H4414 0.930 . S
C4407 C4406 1.394 . S
C4407 C4408 1.383 . S
C4407 H4415 0.929 . S
C4408 C4407 1.383 . S
C4408 C4409 1.377 . S
C4409 H4393 0.930 . S
C4409 C4408 1.377 . S
C4409 C4410 1.379 . S
C4410 H4394 0.931 . S
C4410 C4404 1.383 . S
C4410 C4409 1.379 . S
H4411 C4405 0.959 . S
H4412 C4405 0.961 . S
H4413 C4405 0.960 . S
H4414 C4406 0.930 . S
H4415 C4407 0.929 . S
H4416 C4424 0.929 . S
H4417 C4426 0.930 . S
H4418 C4428 0.930 . S
H4419 C4431 0.929 . S
H4420 C4434 0.930 . S
H4421 C4436 0.960 . S
H4422 C4436 0.960 . S
H4423 C4436 0.960 . S
C4424 H4416 0.929 . S
C4424 C4425 1.377 . S
C4424 C4426 1.384 . S
C4425 C4424 1.377 . S
C4425 C4431 1.390 . S
C4426 H4417 0.930 . S
C4426 C4424 1.384 . S
C4426 C4427 1.372 . S
C4427 C4426 1.372 . S
C4427 C4428 1.400 . S
C4427 C4432 1.490 . S
C4428 H4418 0.930 . S
C4428 C4427 1.400 . S
C4428 C4431 1.386 . S
H4429 C4445 0.930 . S
H4430 C4446 0.931 . S
C4431 H4419 0.929 . S
C4431 C4425 1.390 . S
C4431 C4428 1.386 . S
C4432 C4427 1.490 . S
C4432 C4434 1.395 . S
C4432 C4435 1.403 . S
H4433 C4439 0.930 . S
C4434 H4420 0.930 . S
C4434 C4432 1.395 . S
C4434 C4437 1.403 . S
C4435 C4432 1.403 . S
C4435 C4436 1.524 . S
C4435 C4439 1.400 . S
C4436 H4421 0.960 . S
C4436 H4422 0.960 . S
C4436 H4423 0.960 . S
C4436 C4435 1.524 . S
C4437 C4434 1.403 . S
C4437 C4438 1.392 . S
C4437 C4441 1.495 . S
C4438 C4437 1.392 . S
C4438 C4439 1.385 . S
C4438 C4440 1.478 . S
C4439 H4433 0.930 . S
C4439 C4435 1.400 . S
C4439 C4438 1.385 . S
C4440 C4438 1.478 . S
C4440 C4442 1.381 . S
C4440 C4446 1.383 . S
C4441 C4437 1.495 . S
C4441 H4447 0.959 . S
C4441 H4448 0.961 . S
C4441 H4449 0.960 . S
C4442 C4440 1.381 . S
C4442 C4443 1.394 . S
C4442 H4450 0.930 . S
C4443 C4442 1.394 . S
C4443 C4444 1.383 . S
C4443 H4451 0.929 1_556 S
C4444 C4443 1.383 . S
C4444 C4445 1.377 . S
C4445 H4429 0.930 . S
C4445 C4444 1.377 . S
C4445 C4446 1.379 . S
C4446 H4430 0.931 . S
C4446 C4440 1.383 . S
C4446 C4445 1.379 . S
H4447 C4441 0.959 . S
H4448 C4441 0.961 . S
H4449 C4441 0.960 . S
H4450 C4442 0.930 . S
H4451 C4443 0.929 1_554 S
H4452 C4460 0.929 . S
H4453 C4462 0.930 . S
H4454 C4464 0.930 . S
H4455 C4467 0.929 . S
H4456 C4470 0.930 . S
H4457 C4472 0.960 . S
H4458 C4472 0.960 . S
H4459 C4472 0.960 . S
C4460 H4452 0.929 . S
C4460 C4461 1.377 . S
C4460 C4462 1.384 . S
C4461 C4460 1.377 . S
C4461 C4467 1.390 . S
C4462 H4453 0.930 . S
C4462 C4460 1.384 . S
C4462 C4463 1.372 . S
C4463 C4462 1.372 . S
C4463 C4464 1.400 . S
C4463 C4468 1.490 . S
C4464 H4454 0.930 . S
C4464 C4463 1.400 . S
C4464 C4467 1.386 . S
H4465 C4481 0.930 . S
H4466 C4482 0.931 . S
C4467 H4455 0.929 . S
C4467 C4461 1.390 . S
C4467 C4464 1.386 . S
C4468 C4463 1.490 . S
C4468 C4470 1.395 . S
C4468 C4471 1.403 . S
H4469 C4475 0.930 . S
C4470 H4456 0.930 . S
C4470 C4468 1.395 . S
C4470 C4473 1.403 . S
C4471 C4468 1.403 . S
C4471 C4472 1.524 . S
C4471 C4475 1.400 . S
C4472 H4457 0.960 . S
C4472 H4458 0.960 . S
C4472 H4459 0.960 . S
C4472 C4471 1.524 . S
C4473 C4470 1.403 . S
C4473 C4474 1.392 . S
C4473 C4477 1.495 . S
C4474 C4473 1.392 . S
C4474 C4475 1.385 . S
C4474 C4476 1.478 . S
C4475 H4469 0.930 . S
C4475 C4471 1.400 . S
C4475 C4474 1.385 . S
C4476 C4474 1.478 . S
C4476 C4478 1.381 . S
C4476 C4482 1.383 . S
C4477 C4473 1.495 . S
C4477 H4483 0.959 . S
C4477 H4484 0.961 . S
C4477 H4485 0.960 . S
C4478 C4476 1.381 . S
C4478 C4479 1.394 . S
C4478 H4486 0.930 . S
C4479 C4478 1.394 . S
C4479 C4480 1.383 . S
C4479 H4487 0.929 . S
C4480 C4479 1.383 . S
C4480 C4481 1.377 . S
C4481 H4465 0.930 . S
C4481 C4480 1.377 . S
C4481 C4482 1.379 . S
C4482 H4466 0.931 . S
C4482 C4476 1.383 . S
C4482 C4481 1.379 . S
H4483 C4477 0.959 . S
H4484 C4477 0.961 . S
H4485 C4477 0.960 . S
H4486 C4478 0.930 . S
H4487 C4479 0.929 . S
H4488 C4496 0.929 . S
H4489 C4498 0.930 . S
H4490 C4500 0.930 . S
H4491 C4503 0.929 . S
H4492 C4506 0.930 . S
H4493 C4508 0.960 . S
H4494 C4508 0.960 . S
H4495 C4508 0.960 . S
C4496 H4488 0.929 . S
C4496 C4497 1.377 . S
C4496 C4498 1.384 . S
C4497 C4496 1.377 . S
C4497 C4503 1.390 . S
C4498 H4489 0.930 . S
C4498 C4496 1.384 . S
C4498 C4499 1.372 . S
C4499 C4498 1.372 . S
C4499 C4500 1.400 . S
C4499 C4504 1.490 . S
C4500 H4490 0.930 . S
C4500 C4499 1.400 . S
C4500 C4503 1.386 . S
H4501 C4517 0.930 . S
H4502 C4518 0.931 . S
C4503 H4491 0.929 . S
C4503 C4497 1.390 . S
C4503 C4500 1.386 . S
C4504 C4499 1.490 . S
C4504 C4506 1.395 . S
C4504 C4507 1.403 . S
H4505 C4511 0.930 . S
C4506 H4492 0.930 . S
C4506 C4504 1.395 . S
C4506 C4509 1.403 . S
C4507 C4504 1.403 . S
C4507 C4508 1.524 . S
C4507 C4511 1.400 . S
C4508 H4493 0.960 . S
C4508 H4494 0.960 . S
C4508 H4495 0.960 . S
C4508 C4507 1.524 . S
C4509 C4506 1.403 . S
C4509 C4510 1.392 . S
C4509 C4513 1.495 . S
C4510 C4509 1.392 . S
C4510 C4511 1.385 . S
C4510 C4512 1.478 . S
C4511 H4505 0.930 . S
C4511 C4507 1.400 . S
C4511 C4510 1.385 . S
C4512 C4510 1.478 . S
C4512 C4514 1.381 . S
C4512 C4518 1.383 . S
C4513 C4509 1.495 . S
C4513 H4519 0.959 . S
C4513 H4520 0.961 . S
C4513 H4521 0.960 . S
C4514 C4512 1.381 . S
C4514 C4515 1.394 . S
C4514 H4522 0.930 . S
C4515 C4514 1.394 . S
C4515 C4516 1.383 . S
C4515 H4523 0.929 . S
C4516 C4515 1.383 . S
C4516 C4517 1.377 . S
C4517 H4501 0.930 . S
C4517 C4516 1.377 . S
C4517 C4518 1.379 . S
C4518 H4502 0.931 . S
C4518 C4512 1.383 . S
C4518 C4517 1.379 . S
H4519 C4513 0.959 . S
H4520 C4513 0.961 . S
H4521 C4513 0.960 . S
H4522 C4514 0.930 . S
H4523 C4515 0.929 . S
H4524 C4532 0.929 . S
H4525 C4534 0.930 . S
H4526 C4536 0.930 . S
H4527 C4539 0.929 . S
H4528 C4542 0.930 . S
H4529 C4544 0.960 . S
H4530 C4544 0.960 . S
H4531 C4544 0.960 . S
C4532 H4524 0.929 . S
C4532 C4533 1.377 . S
C4532 C4534 1.384 . S
C4533 C4532 1.377 . S
C4533 C4539 1.390 . S
C4534 H4525 0.930 . S
C4534 C4532 1.384 . S
C4534 C4535 1.372 . S
C4535 C4534 1.372 . S
C4535 C4536 1.400 . S
C4535 C4540 1.490 . S
C4536 H4526 0.930 . S
C4536 C4535 1.400 . S
C4536 C4539 1.386 . S
H4537 C4553 0.930 . S
H4538 C4554 0.931 . S
C4539 H4527 0.929 . S
C4539 C4533 1.390 . S
C4539 C4536 1.386 . S
C4540 C4535 1.490 . S
C4540 C4542 1.395 . S
C4540 C4543 1.403 . S
H4541 C4547 0.930 . S
C4542 H4528 0.930 . S
C4542 C4540 1.395 . S
C4542 C4545 1.403 . S
C4543 C4540 1.403 . S
C4543 C4544 1.524 . S
C4543 C4547 1.400 . S
C4544 H4529 0.960 . S
C4544 H4530 0.960 . S
C4544 H4531 0.960 . S
C4544 C4543 1.524 . S
C4545 C4542 1.403 . S
C4545 C4546 1.392 . S
C4545 C4549 1.495 . S
C4546 C4545 1.392 . S
C4546 C4547 1.385 . S
C4546 C4548 1.478 . S
C4547 H4541 0.930 . S
C4547 C4543 1.400 . S
C4547 C4546 1.385 . S
C4548 C4546 1.478 . S
C4548 C4550 1.381 . S
C4548 C4554 1.383 . S
C4549 C4545 1.495 . S
C4549 H4555 0.959 . S
C4549 H4556 0.961 . S
C4549 H4557 0.960 . S
C4550 C4548 1.381 . S
C4550 C4551 1.394 . S
C4550 H4558 0.930 . S
C4551 C4550 1.394 . S
C4551 C4552 1.383 . S
C4551 H4559 0.929 . S
C4552 C4551 1.383 . S
C4552 C4553 1.377 . S
C4553 H4537 0.930 . S
C4553 C4552 1.377 . S
C4553 C4554 1.379 . S
C4554 H4538 0.931 . S
C4554 C4548 1.383 . S
C4554 C4553 1.379 . S
H4555 C4549 0.959 . S
H4556 C4549 0.961 . S
H4557 C4549 0.960 . S
H4558 C4550 0.930 . S
H4559 C4551 0.929 . S
H4560 C4568 0.929 . S
H4561 C4570 0.930 . S
H4562 C4572 0.930 . S
H4563 C4575 0.929 . S
H4564 C4578 0.930 . S
H4565 C4580 0.960 . S
H4566 C4580 0.960 . S
H4567 C4580 0.960 . S
C4568 H4560 0.929 . S
C4568 C4569 1.377 . S
C4568 C4570 1.384 . S
C4569 C4568 1.377 . S
C4569 C4575 1.390 . S
C4570 H4561 0.930 . S
C4570 C4568 1.384 . S
C4570 C4571 1.372 . S
C4571 C4570 1.372 . S
C4571 C4572 1.400 . S
C4571 C4576 1.490 . S
C4572 H4562 0.930 . S
C4572 C4571 1.400 . S
C4572 C4575 1.386 . S
H4573 C4589 0.930 . S
H4574 C4590 0.931 . S
C4575 H4563 0.929 . S
C4575 C4569 1.390 . S
C4575 C4572 1.386 . S
C4576 C4571 1.490 . S
C4576 C4578 1.395 . S
C4576 C4579 1.403 . S
H4577 C4583 0.930 . S
C4578 H4564 0.930 . S
C4578 C4576 1.395 . S
C4578 C4581 1.403 . S
C4579 C4576 1.403 . S
C4579 C4580 1.524 . S
C4579 C4583 1.400 . S
C4580 H4565 0.960 . S
C4580 H4566 0.960 . S
C4580 H4567 0.960 . S
C4580 C4579 1.524 . S
C4581 C4578 1.403 . S
C4581 C4582 1.392 . S
C4581 C4585 1.495 . S
C4582 C4581 1.392 . S
C4582 C4583 1.385 . S
C4582 C4584 1.478 . S
C4583 H4577 0.930 . S
C4583 C4579 1.400 . S
C4583 C4582 1.385 . S
C4584 C4582 1.478 . S
C4584 C4586 1.381 . S
C4584 C4590 1.383 . S
C4585 C4581 1.495 . S
C4585 H4591 0.959 . S
C4585 H4592 0.961 . S
C4585 H4593 0.960 . S
C4586 C4584 1.381 . S
C4586 C4587 1.394 . S
C4586 H4594 0.930 . S
C4587 C4586 1.394 . S
C4587 C4588 1.383 . S
C4587 H4595 0.929 . S
C4588 C4587 1.383 . S
C4588 C4589 1.377 . S
C4589 H4573 0.930 . S
C4589 C4588 1.377 . S
C4589 C4590 1.379 . S
C4590 H4574 0.931 . S
C4590 C4584 1.383 . S
C4590 C4589 1.379 . S
H4591 C4585 0.959 . S
H4592 C4585 0.961 . S
H4593 C4585 0.960 . S
H4594 C4586 0.930 . S
H4595 C4587 0.929 . S
H4596 C4604 0.929 . S
H4597 C4606 0.930 . S
H4598 C4608 0.930 . S
H4599 C4611 0.929 . S
H4600 C4614 0.930 . S
H4601 C4616 0.960 . S
H4602 C4616 0.960 . S
H4603 C4616 0.960 . S
C4604 H4596 0.929 . S
C4604 C4605 1.377 . S
C4604 C4606 1.384 . S
C4605 C4604 1.377 . S
C4605 C4611 1.390 . S
C4606 H4597 0.930 . S
C4606 C4604 1.384 . S
C4606 C4607 1.372 . S
C4607 C4606 1.372 . S
C4607 C4608 1.400 . S
C4607 C4612 1.490 . S
C4608 H4598 0.930 . S
C4608 C4607 1.400 . S
C4608 C4611 1.386 . S
H4609 C4625 0.930 . S
H4610 C4626 0.931 . S
C4611 H4599 0.929 . S
C4611 C4605 1.390 . S
C4611 C4608 1.386 . S
C4612 C4607 1.490 . S
C4612 C4614 1.395 . S
C4612 C4615 1.403 . S
H4613 C4619 0.930 . S
C4614 H4600 0.930 . S
C4614 C4612 1.395 . S
C4614 C4617 1.403 . S
C4615 C4612 1.403 . S
C4615 C4616 1.524 . S
C4615 C4619 1.400 . S
C4616 H4601 0.960 . S
C4616 H4602 0.960 . S
C4616 H4603 0.960 . S
C4616 C4615 1.524 . S
C4617 C4614 1.403 . S
C4617 C4618 1.392 . S
C4617 C4621 1.495 . S
C4618 C4617 1.392 . S
C4618 C4619 1.385 . S
C4618 C4620 1.478 . S
C4619 H4613 0.930 . S
C4619 C4615 1.400 . S
C4619 C4618 1.385 . S
C4620 C4618 1.478 . S
C4620 C4622 1.381 . S
C4620 C4626 1.383 . S
C4621 C4617 1.495 . S
C4621 H4627 0.959 . S
C4621 H4628 0.961 . S
C4621 H4629 0.960 . S
C4622 C4620 1.381 . S
C4622 C4623 1.394 . S
C4622 H4630 0.930 . S
C4623 C4622 1.394 . S
C4623 C4624 1.383 . S
C4623 H4631 0.929 . S
C4624 C4623 1.383 . S
C4624 C4625 1.377 . S
C4625 H4609 0.930 . S
C4625 C4624 1.377 . S
C4625 C4626 1.379 . S
C4626 H4610 0.931 . S
C4626 C4620 1.383 . S
C4626 C4625 1.379 . S
H4627 C4621 0.959 . S
H4628 C4621 0.961 . S
H4629 C4621 0.960 . S
H4630 C4622 0.930 . S
H4631 C4623 0.929 . S
H4632 C4640 0.929 . S
H4633 C4642 0.930 . S
H4634 C4644 0.930 . S
H4635 C4647 0.929 . S
H4636 C4650 0.930 . S
H4637 C4652 0.960 1_455 S
H4638 C4652 0.960 . S
H4639 C4652 0.960 . S
C4640 H4632 0.929 . S
C4640 C4641 1.377 . S
C4640 C4642 1.384 . S
C4641 C4640 1.377 . S
C4641 C4647 1.390 . S
C4642 H4633 0.930 . S
C4642 C4640 1.384 . S
C4642 C4643 1.372 . S
C4643 C4642 1.372 . S
C4643 C4644 1.400 . S
C4643 C4648 1.490 . S
C4644 H4634 0.930 . S
C4644 C4643 1.400 . S
C4644 C4647 1.386 . S
H4645 C4661 0.930 . S
H4646 C4662 0.931 1_655 S
C4647 H4635 0.929 . S
C4647 C4641 1.390 . S
C4647 C4644 1.386 . S
C4648 C4643 1.490 . S
C4648 C4650 1.395 . S
C4648 C4651 1.403 . S
H4649 C4655 0.898 1_455 S
C4650 H4636 0.930 . S
C4650 C4648 1.395 . S
C4650 C4653 1.403 . S
C4651 C4648 1.403 . S
C4651 C4652 1.524 . S
C4651 C4655 1.418 . S
C4652 H4637 0.960 1_655 S
C4652 H4638 0.960 . S
C4652 H4639 0.960 . S
C4652 C4651 1.524 . S
C4653 C4650 1.403 . S
C4653 C4654 1.392 . S
C4653 C4657 1.495 . S
C4654 C4653 1.392 . S
C4654 C4655 1.399 . S
C4654 C4656 1.478 1_655 S
C4655 H4649 0.898 1_655 S
C4655 C4651 1.418 . S
C4655 C4654 1.399 . S
C4656 C4654 1.478 1_455 S
C4656 C4658 1.381 . S
C4656 C4662 1.383 . S
C4657 C4653 1.495 . S
C4657 H4663 0.959 . S
C4657 H4664 0.961 . S
C4657 H4665 0.960 . S
C4658 C4656 1.381 . S
C4658 C4659 1.394 . S
C4658 H4666 0.930 . S
C4659 C4658 1.394 . S
C4659 C4660 1.383 . S
C4659 H4667 0.929 . S
C4660 C4659 1.383 . S
C4660 C4661 1.377 . S
C4661 H4645 0.930 . S
C4661 C4660 1.377 . S
C4661 C4662 1.379 . S
C4662 H4646 0.931 1_455 S
C4662 C4656 1.383 . S
C4662 C4661 1.379 . S
H4663 C4657 0.959 . S
H4664 C4657 0.961 . S
H4665 C4657 0.960 . S
H4666 C4658 0.930 . S
H4667 C4659 0.929 . S
H4668 C4676 0.929 . S
H4669 C4678 0.930 . S
H4670 C4680 0.930 . S
H4671 C4683 0.929 . S
H4672 C4686 0.930 . S
H4673 C4688 0.960 . S
H4674 C4688 0.960 . S
H4675 C4688 0.960 . S
C4676 H4668 0.929 . S
C4676 C4677 1.377 . S
C4676 C4678 1.384 . S
C4677 C4676 1.377 . S
C4677 C4683 1.390 . S
C4678 H4669 0.930 . S
C4678 C4676 1.384 . S
C4678 C4679 1.372 . S
C4679 C4678 1.372 . S
C4679 C4680 1.400 . S
C4679 C4684 1.490 . S
C4680 H4670 0.930 . S
C4680 C4679 1.400 . S
C4680 C4683 1.386 . S
H4681 C4697 0.930 . S
H4682 C4698 0.931 . S
C4683 H4671 0.929 . S
C4683 C4677 1.390 . S
C4683 C4680 1.386 . S
C4684 C4679 1.490 . S
C4684 C4686 1.395 . S
C4684 C4687 1.403 . S
H4685 C4691 0.930 . S
C4686 H4672 0.930 . S
C4686 C4684 1.395 . S
C4686 C4689 1.403 . S
C4687 C4684 1.403 . S
C4687 C4688 1.524 . S
C4687 C4691 1.400 . S
C4688 H4673 0.960 . S
C4688 H4674 0.960 . S
C4688 H4675 0.960 . S
C4688 C4687 1.524 . S
C4689 C4686 1.403 . S
C4689 C4690 1.392 . S
C4689 C4693 1.495 . S
C4690 C4689 1.392 . S
C4690 C4691 1.385 . S
C4690 C4692 1.478 . S
C4691 H4685 0.930 . S
C4691 C4687 1.400 . S
C4691 C4690 1.385 . S
C4692 C4690 1.478 . S
C4692 C4694 1.381 . S
C4692 C4698 1.383 . S
C4693 C4689 1.495 . S
C4693 H4699 0.959 . S
C4693 H4700 0.961 . S
C4693 H4701 0.960 . S
C4694 C4692 1.381 . S
C4694 C4695 1.394 . S
C4694 H4702 0.930 . S
C4695 C4694 1.394 . S
C4695 C4696 1.383 . S
C4695 H4703 0.929 . S
C4696 C4695 1.383 . S
C4696 C4697 1.377 . S
C4697 H4681 0.930 . S
C4697 C4696 1.377 . S
C4697 C4698 1.379 . S
C4698 H4682 0.931 . S
C4698 C4692 1.383 . S
C4698 C4697 1.379 . S
H4699 C4693 0.959 . S
H4700 C4693 0.961 . S
H4701 C4693 0.960 . S
H4702 C4694 0.930 . S
H4703 C4695 0.929 . S
H4704 C4712 0.929 . S
H4705 C4714 0.930 . S
H4706 C4716 0.930 . S
H4707 C4719 0.929 . S
H4708 C4722 0.930 . S
H4709 C4724 0.960 . S
H4710 C4724 0.960 . S
H4711 C4724 0.960 . S
C4712 H4704 0.929 . S
C4712 C4713 1.377 . S
C4712 C4714 1.384 . S
C4713 C4712 1.377 . S
C4713 C4719 1.390 . S
C4714 H4705 0.930 . S
C4714 C4712 1.384 . S
C4714 C4715 1.372 . S
C4715 C4714 1.372 . S
C4715 C4716 1.400 . S
C4715 C4720 1.490 . S
C4716 H4706 0.930 . S
C4716 C4715 1.400 . S
C4716 C4719 1.386 . S
H4717 C4733 0.930 . S
H4718 C4734 0.931 . S
C4719 H4707 0.929 . S
C4719 C4713 1.390 . S
C4719 C4716 1.386 . S
C4720 C4715 1.490 . S
C4720 C4722 1.395 . S
C4720 C4723 1.403 . S
H4721 C4727 0.930 . S
C4722 H4708 0.930 . S
C4722 C4720 1.395 . S
C4722 C4725 1.403 . S
C4723 C4720 1.403 . S
C4723 C4724 1.524 . S
C4723 C4727 1.400 . S
C4724 H4709 0.960 . S
C4724 H4710 0.960 . S
C4724 H4711 0.960 . S
C4724 C4723 1.524 . S
C4725 C4722 1.403 . S
C4725 C4726 1.392 . S
C4725 C4729 1.495 . S
C4726 C4725 1.392 . S
C4726 C4727 1.385 . S
C4726 C4728 1.478 . S
C4727 H4721 0.930 . S
C4727 C4723 1.400 . S
C4727 C4726 1.385 . S
C4728 C4726 1.478 . S
C4728 C4730 1.381 . S
C4728 C4734 1.383 . S
C4729 C4725 1.495 . S
C4729 H4735 0.959 . S
C4729 H4736 0.961 . S
C4729 H4737 0.960 . S
C4730 C4728 1.381 . S
C4730 C4731 1.394 . S
C4730 H4738 0.930 . S
C4731 C4730 1.394 . S
C4731 C4732 1.383 . S
C4731 H4739 0.929 . S
C4732 C4731 1.383 . S
C4732 C4733 1.377 . S
C4733 H4717 0.930 . S
C4733 C4732 1.377 . S
C4733 C4734 1.379 . S
C4734 H4718 0.931 . S
C4734 C4728 1.383 . S
C4734 C4733 1.379 . S
H4735 C4729 0.959 . S
H4736 C4729 0.961 . S
H4737 C4729 0.960 . S
H4738 C4730 0.930 . S
H4739 C4731 0.929 . S
H4740 C4748 0.929 . S
H4741 C4750 0.930 . S
H4742 C4752 0.930 . S
H4743 C4755 0.929 . S
H4744 C4758 0.930 . S
H4745 C4760 0.960 . S
H4746 C4760 0.960 . S
H4747 C4760 0.960 . S
C4748 H4740 0.929 . S
C4748 C4749 1.377 . S
C4748 C4750 1.384 . S
C4749 C4748 1.377 . S
C4749 C4755 1.390 . S
C4750 H4741 0.930 . S
C4750 C4748 1.384 . S
C4750 C4751 1.372 . S
C4751 C4750 1.372 . S
C4751 C4752 1.400 . S
C4751 C4756 1.490 . S
C4752 H4742 0.930 . S
C4752 C4751 1.400 . S
C4752 C4755 1.386 . S
H4753 C4769 0.930 . S
H4754 C4770 0.931 . S
C4755 H4743 0.929 . S
C4755 C4749 1.390 . S
C4755 C4752 1.386 . S
C4756 C4751 1.490 . S
C4756 C4758 1.395 . S
C4756 C4759 1.403 . S
H4757 C4763 0.930 . S
C4758 H4744 0.930 . S
C4758 C4756 1.395 . S
C4758 C4761 1.403 . S
C4759 C4756 1.403 . S
C4759 C4760 1.524 . S
C4759 C4763 1.400 . S
C4760 H4745 0.960 . S
C4760 H4746 0.960 . S
C4760 H4747 0.960 . S
C4760 C4759 1.524 . S
C4761 C4758 1.403 . S
C4761 C4762 1.392 . S
C4761 C4765 1.495 . S
C4762 C4761 1.392 . S
C4762 C4763 1.385 . S
C4762 C4764 1.478 . S
C4763 H4757 0.930 . S
C4763 C4759 1.400 . S
C4763 C4762 1.385 . S
C4764 C4762 1.478 . S
C4764 C4766 1.381 . S
C4764 C4770 1.383 . S
C4765 C4761 1.495 . S
C4765 H4771 0.959 . S
C4765 H4772 0.961 . S
C4765 H4773 0.960 . S
C4766 C4764 1.381 . S
C4766 C4767 1.394 . S
C4766 H4774 0.930 . S
C4767 C4766 1.394 . S
C4767 C4768 1.383 . S
C4767 H4775 0.929 . S
C4768 C4767 1.383 . S
C4768 C4769 1.377 . S
C4769 H4753 0.930 . S
C4769 C4768 1.377 . S
C4769 C4770 1.379 . S
C4770 H4754 0.931 . S
C4770 C4764 1.383 . S
C4770 C4769 1.379 . S
H4771 C4765 0.959 . S
H4772 C4765 0.961 . S
H4773 C4765 0.960 . S
H4774 C4766 0.930 . S
H4775 C4767 0.929 . S
H4776 C4784 0.929 . S
H4777 C4786 0.930 . S
H4778 C4788 0.930 . S
H4779 C4791 0.929 . S
H4780 C4794 0.930 . S
H4781 C4796 1.003 . S
H4782 C4796 0.960 . S
H4783 C4796 0.960 . S
C4784 H4776 0.929 . S
C4784 C4785 1.377 . S
C4784 C4786 1.384 . S
C4785 C4784 1.377 . S
C4785 C4791 1.390 . S
C4786 H4777 0.930 . S
C4786 C4784 1.384 . S
C4786 C4787 1.372 . S
C4787 C4786 1.372 . S
C4787 C4788 1.400 . S
C4787 C4792 1.490 . S
C4788 H4778 0.930 . S
C4788 C4787 1.400 . S
C4788 C4791 1.386 . S
H4789 C4805 0.930 . S
H4790 C4806 0.931 . S
C4791 H4779 0.929 . S
C4791 C4785 1.390 . S
C4791 C4788 1.386 . S
C4792 C4787 1.490 . S
C4792 C4794 1.395 . S
C4792 C4795 1.403 . S
H4793 C4799 0.930 . S
C4794 H4780 0.930 . S
C4794 C4792 1.395 . S
C4794 C4797 1.403 . S
C4795 C4792 1.403 . S
C4795 C4796 1.524 . S
C4795 C4799 1.400 . S
C4796 H4781 1.003 . S
C4796 H4782 0.960 . S
C4796 H4783 0.960 . S
C4796 C4795 1.524 . S
C4797 C4794 1.403 . S
C4797 C4798 1.392 . S
C4797 C4801 1.495 . S
C4798 C4797 1.392 . S
C4798 C4799 1.385 . S
C4798 C4800 1.478 . S
C4799 H4793 0.930 . S
C4799 C4795 1.400 . S
C4799 C4798 1.385 . S
C4800 C4798 1.478 . S
C4800 C4802 1.381 . S
C4800 C4806 1.383 1_655 S
C4801 C4797 1.495 . S
C4801 H4807 0.959 . S
C4801 H4808 0.961 . S
C4801 H4809 0.960 . S
C4802 C4800 1.381 . S
C4802 C4803 1.394 . S
C4802 H4810 0.930 . S
C4803 C4802 1.394 . S
C4803 C4804 1.383 1_655 S
C4803 H4811 0.929 . S
C4804 C4803 1.383 1_455 S
C4804 C4805 1.377 . S
C4805 H4789 0.930 . S
C4805 C4804 1.377 . S
C4805 C4806 1.379 . S
C4806 H4790 0.931 . S
C4806 C4800 1.383 1_455 S
C4806 C4805 1.379 . S
H4807 C4801 0.959 . S
H4808 C4801 0.961 . S
H4809 C4801 0.960 . S
H4810 C4802 0.930 . S
H4811 C4803 0.929 . S
H4812 C4820 0.929 . S
H4813 C4822 0.930 . S
H4814 C4824 0.930 . S
H4815 C4827 0.929 . S
H4816 C4830 0.930 . S
H4817 C4832 0.960 . S
H4818 C4832 0.960 . S
H4819 C4832 0.960 . S
C4820 H4812 0.929 . S
C4820 C4821 1.377 . S
C4820 C4822 1.384 . S
C4821 C4820 1.377 . S
C4821 C4827 1.390 . S
C4822 H4813 0.930 . S
C4822 C4820 1.384 . S
C4822 C4823 1.372 . S
C4823 C4822 1.372 . S
C4823 C4824 1.400 . S
C4823 C4828 1.490 . S
C4824 H4814 0.930 . S
C4824 C4823 1.400 . S
C4824 C4827 1.386 . S
H4825 C4841 0.930 . S
H4826 C4842 0.931 . S
C4827 H4815 0.929 . S
C4827 C4821 1.390 . S
C4827 C4824 1.386 . S
C4828 C4823 1.490 . S
C4828 C4830 1.395 . S
C4828 C4831 1.403 . S
H4829 C4835 0.930 . S
C4830 H4816 0.930 . S
C4830 C4828 1.395 . S
C4830 C4833 1.403 . S
C4831 C4828 1.403 . S
C4831 C4832 1.524 . S
C4831 C4835 1.400 . S
C4832 H4817 0.960 . S
C4832 H4818 0.960 . S
C4832 H4819 0.960 . S
C4832 C4831 1.524 . S
C4833 C4830 1.403 . S
C4833 C4834 1.392 . S
C4833 C4837 1.495 . S
C4834 C4833 1.392 . S
C4834 C4835 1.385 . S
C4834 C4836 1.478 . S
C4835 H4829 0.930 . S
C4835 C4831 1.400 . S
C4835 C4834 1.385 . S
C4836 C4834 1.478 . S
C4836 C4838 1.381 . S
C4836 C4842 1.383 . S
C4837 C4833 1.495 . S
C4837 H4843 0.959 . S
C4837 H4844 0.961 . S
C4837 H4845 0.960 . S
C4838 C4836 1.381 . S
C4838 C4839 1.394 . S
C4838 H4846 0.930 . S
C4839 C4838 1.394 . S
C4839 C4840 1.383 . S
C4839 H4847 0.929 . S
C4840 C4839 1.383 . S
C4840 C4841 1.377 . S
C4841 H4825 0.930 . S
C4841 C4840 1.377 . S
C4841 C4842 1.379 . S
C4842 H4826 0.931 . S
C4842 C4836 1.383 . S
C4842 C4841 1.379 . S
H4843 C4837 0.959 . S
H4844 C4837 0.961 . S
H4845 C4837 0.960 . S
H4846 C4838 0.930 . S
H4847 C4839 0.929 . S
H4848 C4856 0.929 . S
H4849 C4858 0.930 . S
H4850 C4860 0.930 . S
H4851 C4863 0.929 . S
H4852 C4866 0.930 . S
H4853 C4868 0.960 . S
H4854 C4868 0.960 . S
H4855 C4868 0.960 . S
C4856 H4848 0.929 . S
C4856 C4857 1.377 . S
C4856 C4858 1.384 . S
C4857 C4856 1.377 . S
C4857 C4863 1.390 . S
C4858 H4849 0.930 . S
C4858 C4856 1.384 . S
C4858 C4859 1.372 . S
C4859 C4858 1.372 . S
C4859 C4860 1.400 . S
C4859 C4864 1.490 . S
C4860 H4850 0.930 . S
C4860 C4859 1.400 . S
C4860 C4863 1.386 . S
H4861 C4877 0.930 . S
H4862 C4878 0.931 . S
C4863 H4851 0.929 . S
C4863 C4857 1.390 . S
C4863 C4860 1.386 . S
C4864 C4859 1.490 . S
C4864 C4866 1.395 . S
C4864 C4867 1.403 . S
H4865 C4871 0.930 . S
C4866 H4852 0.930 . S
C4866 C4864 1.395 . S
C4866 C4869 1.403 . S
C4867 C4864 1.403 . S
C4867 C4868 1.524 . S
C4867 C4871 1.400 . S
C4868 H4853 0.960 . S
C4868 H4854 0.960 . S
C4868 H4855 0.960 . S
C4868 C4867 1.524 . S
C4869 C4866 1.403 . S
C4869 C4870 1.392 . S
C4869 C4873 1.495 . S
C4870 C4869 1.392 . S
C4870 C4871 1.385 . S
C4870 C4872 1.478 . S
C4871 H4865 0.930 . S
C4871 C4867 1.400 . S
C4871 C4870 1.385 . S
C4872 C4870 1.478 . S
C4872 C4874 1.381 . S
C4872 C4878 1.383 . S
C4873 C4869 1.495 . S
C4873 H4879 0.959 . S
C4873 H4880 0.961 . S
C4873 H4881 0.960 . S
C4874 C4872 1.381 . S
C4874 C4875 1.394 . S
C4874 H4882 0.930 . S
C4875 C4874 1.394 . S
C4875 C4876 1.383 . S
C4875 H4883 0.929 . S
C4876 C4875 1.383 . S
C4876 C4877 1.377 . S
C4877 H4861 0.930 . S
C4877 C4876 1.377 . S
C4877 C4878 1.379 . S
C4878 H4862 0.931 . S
C4878 C4872 1.383 . S
C4878 C4877 1.379 . S
H4879 C4873 0.959 . S
H4880 C4873 0.961 . S
H4881 C4873 0.960 . S
H4882 C4874 0.930 . S
H4883 C4875 0.929 . S
H4884 C4892 0.929 . S
H4885 C4894 0.930 . S
H4886 C4896 0.930 . S
H4887 C4899 0.929 . S
H4888 C4902 0.930 . S
H4889 C4904 0.960 . S
H4890 C4904 0.960 . S
H4891 C4904 0.960 . S
C4892 H4884 0.929 . S
C4892 C4893 1.377 . S
C4892 C4894 1.384 . S
C4893 C4892 1.377 . S
C4893 C4899 1.390 . S
C4894 H4885 0.930 . S
C4894 C4892 1.384 . S
C4894 C4895 1.372 . S
C4895 C4894 1.372 . S
C4895 C4896 1.400 . S
C4895 C4900 1.490 . S
C4896 H4886 0.930 . S
C4896 C4895 1.400 . S
C4896 C4899 1.386 . S
H4897 C4913 0.954 . S
H4898 C4914 0.931 . S
C4899 H4887 0.929 . S
C4899 C4893 1.390 . S
C4899 C4896 1.386 . S
C4900 C4895 1.490 . S
C4900 C4902 1.395 . S
C4900 C4903 1.403 . S
H4901 C4907 0.930 . S
C4902 H4888 0.930 . S
C4902 C4900 1.395 . S
C4902 C4905 1.403 . S
C4903 C4900 1.403 . S
C4903 C4904 1.524 . S
C4903 C4907 1.400 . S
C4904 H4889 0.960 . S
C4904 H4890 0.960 . S
C4904 H4891 0.960 . S
C4904 C4903 1.524 . S
C4905 C4902 1.403 . S
C4905 C4906 1.392 . S
C4905 C4909 1.495 . S
C4906 C4905 1.392 . S
C4906 C4907 1.385 . S
C4906 C4908 1.478 . S
C4907 H4901 0.930 . S
C4907 C4903 1.400 . S
C4907 C4906 1.385 . S
C4908 C4906 1.478 . S
C4908 C4910 1.381 . S
C4908 C4914 1.383 . S
C4909 C4905 1.495 . S
C4909 H4915 0.959 . S
C4909 H4916 0.961 . S
C4909 H4917 0.960 . S
C4910 C4908 1.381 . S
C4910 C4911 1.378 1_565 S
C4910 H4918 0.930 . S
C4911 C4910 1.378 1_545 S
C4911 C4912 1.404 . S
C4911 H4919 0.929 1_655 S
C4912 C4911 1.404 . S
C4912 C4913 1.389 . S
C4913 H4897 0.954 . S
C4913 C4912 1.389 . S
C4913 C4914 1.358 1_545 S
C4914 H4898 0.931 . S
C4914 C4908 1.383 . S
C4914 C4913 1.358 1_565 S
H4915 C4909 0.959 . S
H4916 C4909 0.961 . S
H4917 C4909 0.960 . S
H4918 C4910 0.930 . S
H4919 C4911 0.929 1_455 S
H4920 C4928 0.929 . S
H4921 C4930 0.930 . S
H4922 C4932 0.930 . S
H4923 C4935 0.929 . S
H4924 C4938 0.930 . S
H4925 C4940 0.960 . S
H4926 C4940 0.960 . S
H4927 C4940 0.960 . S
C4928 H4920 0.929 . S
C4928 C4929 1.377 . S
C4928 C4930 1.384 . S
C4929 C4928 1.377 . S
C4929 C4935 1.390 . S
C4930 H4921 0.930 . S
C4930 C4928 1.384 . S
C4930 C4931 1.372 . S
C4931 C4930 1.372 . S
C4931 C4932 1.400 . S
C4931 C4936 1.490 . S
C4932 H4922 0.930 . S
C4932 C4931 1.400 . S
C4932 C4935 1.386 . S
H4933 C4949 0.930 . S
H4934 C4950 0.931 . S
C4935 H4923 0.929 . S
C4935 C4929 1.390 . S
C4935 C4932 1.386 . S
C4936 C4931 1.490 . S
C4936 C4938 1.395 . S
C4936 C4939 1.403 . S
H4937 C4943 0.930 . S
C4938 H4924 0.930 . S
C4938 C4936 1.395 . S
C4938 C4941 1.403 . S
C4939 C4936 1.403 . S
C4939 C4940 1.524 . S
C4939 C4943 1.400 . S
C4940 H4925 0.960 . S
C4940 H4926 0.960 . S
C4940 H4927 0.960 . S
C4940 C4939 1.524 . S
C4941 C4938 1.403 . S
C4941 C4942 1.392 . S
C4941 C4945 1.495 . S
C4942 C4941 1.392 . S
C4942 C4943 1.385 . S
C4942 C4944 1.478 . S
C4943 H4937 0.930 . S
C4943 C4939 1.400 . S
C4943 C4942 1.385 . S
C4944 C4942 1.478 . S
C4944 C4946 1.381 . S
C4944 C4950 1.383 . S
C4945 C4941 1.495 . S
C4945 H4951 0.959 . S
C4945 H4952 0.961 . S
C4945 H4953 0.960 . S
C4946 C4944 1.381 . S
C4946 C4947 1.394 . S
C4946 H4954 0.930 . S
C4947 C4946 1.394 . S
C4947 C4948 1.383 . S
C4947 H4955 0.929 . S
C4948 C4947 1.383 . S
C4948 C4949 1.377 . S
C4949 H4933 0.930 . S
C4949 C4948 1.377 . S
C4949 C4950 1.379 . S
C4950 H4934 0.931 . S
C4950 C4944 1.383 . S
C4950 C4949 1.379 . S
H4951 C4945 0.959 . S
H4952 C4945 0.961 . S
H4953 C4945 0.960 . S
H4954 C4946 0.930 . S
H4955 C4947 0.929 . S
H4956 C4964 0.929 . S
H4957 C4966 0.930 . S
H4958 C4968 0.930 1_556 S
H4959 C4971 0.929 1_556 S
H4960 C4974 0.930 . S
H4961 C4976 0.960 1_556 S
H4962 C4976 0.960 . S
H4963 C4976 0.960 1_556 S
C4964 H4956 0.929 . S
C4964 C4965 1.377 . S
C4964 C4966 1.384 . S
C4965 C4964 1.377 . S
C4965 C4971 1.390 . S
C4966 H4957 0.930 . S
C4966 C4964 1.384 . S
C4966 C4967 1.372 . S
C4967 C4966 1.372 . S
C4967 C4968 1.400 . S
C4967 C4972 1.490 . S
C4968 H4958 0.930 1_554 S
C4968 C4967 1.400 . S
C4968 C4971 1.386 . S
H4969 C4985 0.944 . S
H4970 C4986 0.934 . S
C4971 H4959 0.929 1_554 S
C4971 C4965 1.390 . S
C4971 C4968 1.386 . S
C4972 C4967 1.490 . S
C4972 C4974 1.395 . S
C4972 C4975 1.403 . S
H4973 C4979 0.930 . S
C4974 H4960 0.930 . S
C4974 C4972 1.395 . S
C4974 C4977 1.403 . S
C4975 C4972 1.403 . S
C4975 C4976 1.524 . S
C4975 C4979 1.400 . S
C4976 H4961 0.960 1_554 S
C4976 H4962 0.960 . S
C4976 H4963 0.960 1_554 S
C4976 C4975 1.524 . S
C4977 C4974 1.403 . S
C4977 C4978 1.392 . S
C4977 C4981 1.495 . S
C4978 C4977 1.392 . S
C4978 C4979 1.385 . S
C4978 C4980 1.478 . S
C4979 H4973 0.930 . S
C4979 C4975 1.400 . S
C4979 C4978 1.385 . S
C4980 C4978 1.478 . S
C4980 C4982 1.381 . S
C4980 C4986 1.383 . S
C4981 C4977 1.495 . S
C4981 H4987 0.959 . S
C4981 H4988 0.961 . S
C4981 H4989 0.960 . S
C4982 C4980 1.381 . S
C4982 C4983 1.394 . S
C4982 H4990 0.930 . S
C4983 C4982 1.394 . S
C4983 C4984 1.383 . S
C4983 H4991 0.929 . S
C4984 C4983 1.383 . S
C4984 C4985 1.377 . S
C4985 H4969 0.944 . S
C4985 C4984 1.377 . S
C4985 C4986 1.379 . S
C4986 H4970 0.934 . S
C4986 C4980 1.383 . S
C4986 C4985 1.379 . S
H4987 C4981 0.959 . S
H4988 C4981 0.961 . S
H4989 C4981 0.960 . S
H4990 C4982 0.930 . S
H4991 C4983 0.929 . S
H4992 C5000 0.929 . S
H4993 C5002 0.930 . S
H4994 C5004 0.930 . S
H4995 C5007 0.929 . S
H4996 C5010 0.930 . S
H4997 C5012 0.960 . S
H4998 C5012 0.960 . S
H4999 C5012 0.960 . S
C5000 H4992 0.929 . S
C5000 C5001 1.377 . S
C5000 C5002 1.384 . S
C5001 C5000 1.377 . S
C5001 C5007 1.390 . S
C5002 H4993 0.930 . S
C5002 C5000 1.384 . S
C5002 C5003 1.372 . S
C5003 C5002 1.372 . S
C5003 C5004 1.400 . S
C5003 C5008 1.490 . S
C5004 H4994 0.930 . S
C5004 C5003 1.400 . S
C5004 C5007 1.386 . S
H5005 C5021 0.930 . S
H5006 C5022 0.931 . S
C5007 H4995 0.929 . S
C5007 C5001 1.390 . S
C5007 C5004 1.386 . S
C5008 C5003 1.490 . S
C5008 C5010 1.395 . S
C5008 C5011 1.403 . S
H5009 C5015 0.930 . S
C5010 H4996 0.930 . S
C5010 C5008 1.395 . S
C5010 C5013 1.403 . S
C5011 C5008 1.403 . S
C5011 C5012 1.524 . S
C5011 C5015 1.400 . S
C5012 H4997 0.960 . S
C5012 H4998 0.960 . S
C5012 H4999 0.960 . S
C5012 C5011 1.524 . S
C5013 C5010 1.403 . S
C5013 C5014 1.392 . S
C5013 C5017 1.495 . S
C5014 C5013 1.392 . S
C5014 C5015 1.385 . S
C5014 C5016 1.478 . S
C5015 H5009 0.930 . S
C5015 C5011 1.400 . S
C5015 C5014 1.385 . S
C5016 C5014 1.478 . S
C5016 C5018 1.381 . S
C5016 C5022 1.383 . S
C5017 C5013 1.495 . S
C5017 H5023 0.959 . S
C5017 H5024 0.961 . S
C5017 H5025 0.960 . S
C5018 C5016 1.381 . S
C5018 C5019 1.394 . S
C5018 H5026 0.930 . S
C5019 C5018 1.394 . S
C5019 C5020 1.383 . S
C5019 H5027 0.929 . S
C5020 C5019 1.383 . S
C5020 C5021 1.377 . S
C5021 H5005 0.930 . S
C5021 C5020 1.377 . S
C5021 C5022 1.379 . S
C5022 H5006 0.931 . S
C5022 C5016 1.383 . S
C5022 C5021 1.379 . S
H5023 C5017 0.959 . S
H5024 C5017 0.961 . S
H5025 C5017 0.960 . S
H5026 C5018 0.930 . S
H5027 C5019 0.929 . S
H5028 C5036 0.929 . S
H5029 C5038 0.930 . S
H5030 C5040 0.930 . S
H5031 C5043 0.929 . S
H5032 C5046 0.930 . S
H5033 C5048 0.960 . S
H5034 C5048 0.960 . S
H5035 C5048 0.960 . S
C5036 H5028 0.929 . S
C5036 C5037 1.377 . S
C5036 C5038 1.384 . S
C5037 C5036 1.377 . S
C5037 C5043 1.390 . S
C5038 H5029 0.930 . S
C5038 C5036 1.384 . S
C5038 C5039 1.372 . S
C5039 C5038 1.372 . S
C5039 C5040 1.400 . S
C5039 C5044 1.490 . S
C5040 H5030 0.930 . S
C5040 C5039 1.400 . S
C5040 C5043 1.386 . S
H5041 C5057 0.930 . S
H5042 C5058 0.931 . S
C5043 H5031 0.929 . S
C5043 C5037 1.390 . S
C5043 C5040 1.386 . S
C5044 C5039 1.490 . S
C5044 C5046 1.395 . S
C5044 C5047 1.403 . S
H5045 C5051 0.930 . S
C5046 H5032 0.930 . S
C5046 C5044 1.395 . S
C5046 C5049 1.403 . S
C5047 C5044 1.403 . S
C5047 C5048 1.524 . S
C5047 C5051 1.400 . S
C5048 H5033 0.960 . S
C5048 H5034 0.960 . S
C5048 H5035 0.960 . S
C5048 C5047 1.524 . S
C5049 C5046 1.403 . S
C5049 C5050 1.392 . S
C5049 C5053 1.495 . S
C5050 C5049 1.392 . S
C5050 C5051 1.385 . S
C5050 C5052 1.478 . S
C5051 H5045 0.930 . S
C5051 C5047 1.400 . S
C5051 C5050 1.385 . S
C5052 C5050 1.478 . S
C5052 C5054 1.381 . S
C5052 C5058 1.383 . S
C5053 C5049 1.495 . S
C5053 H5059 0.959 . S
C5053 H5060 0.961 . S
C5053 H5061 0.960 . S
C5054 C5052 1.381 . S
C5054 C5055 1.394 . S
C5054 H5062 0.930 . S
C5055 C5054 1.394 . S
C5055 C5056 1.383 . S
C5055 H5063 0.929 . S
C5056 C5055 1.383 . S
C5056 C5057 1.377 . S
C5057 H5041 0.930 . S
C5057 C5056 1.377 . S
C5057 C5058 1.379 . S
C5058 H5042 0.931 . S
C5058 C5052 1.383 . S
C5058 C5057 1.379 . S
H5059 C5053 0.959 . S
H5060 C5053 0.961 . S
H5061 C5053 0.960 . S
H5062 C5054 0.930 . S
H5063 C5055 0.929 . S
H5064 C5072 0.929 . S
H5065 C5074 0.930 . S
H5066 C5076 0.930 . S
H5067 C5079 0.889 1_545 S
H5068 C5082 0.930 . S
H5069 C5084 0.960 . S
H5070 C5084 0.960 . S
H5071 C5084 0.960 . S
C5072 H5064 0.929 . S
C5072 C5073 1.377 1_565 S
C5072 C5074 1.384 . S
C5073 C5072 1.377 1_545 S
C5073 C5079 1.384 1_545 S
C5074 H5065 0.930 . S
C5074 C5072 1.384 . S
C5074 C5075 1.372 . S
C5075 C5074 1.372 . S
C5075 C5076 1.400 . S
C5075 C5080 1.490 . S
C5076 H5066 0.930 . S
C5076 C5075 1.400 . S
C5076 C5079 1.434 . S
H5077 C5093 0.930 . S
H5078 C5094 0.931 . S
C5079 H5067 0.889 1_565 S
C5079 C5073 1.384 1_565 S
C5079 C5076 1.434 . S
C5080 C5075 1.490 . S
C5080 C5082 1.395 . S
C5080 C5083 1.403 . S
H5081 C5087 0.930 . S
C5082 H5068 0.930 . S
C5082 C5080 1.395 . S
C5082 C5085 1.403 . S
C5083 C5080 1.403 . S
C5083 C5084 1.524 . S
C5083 C5087 1.400 . S
C5084 H5069 0.960 . S
C5084 H5070 0.960 . S
C5084 H5071 0.960 . S
C5084 C5083 1.524 . S
C5085 C5082 1.403 . S
C5085 C5086 1.392 . S
C5085 C5089 1.495 . S
C5086 C5085 1.392 . S
C5086 C5087 1.385 . S
C5086 C5088 1.478 . S
C5087 H5081 0.930 . S
C5087 C5083 1.400 . S
C5087 C5086 1.385 . S
C5088 C5086 1.478 . S
C5088 C5090 1.381 . S
C5088 C5094 1.383 . S
C5089 C5085 1.495 . S
C5089 H5095 0.959 . S
C5089 H5096 0.961 . S
C5089 H5097 0.960 . S
C5090 C5088 1.381 . S
C5090 C5091 1.394 . S
C5090 H5098 0.930 . S
C5091 C5090 1.394 . S
C5091 C5092 1.383 . S
C5091 H5099 0.929 . S
C5092 C5091 1.383 . S
C5092 C5093 1.377 . S
C5093 H5077 0.930 . S
C5093 C5092 1.377 . S
C5093 C5094 1.379 . S
C5094 H5078 0.931 . S
C5094 C5088 1.383 . S
C5094 C5093 1.379 . S
H5095 C5089 0.959 . S
H5096 C5089 0.961 . S
H5097 C5089 0.960 . S
H5098 C5090 0.930 . S
H5099 C5091 0.929 . S
H5100 C5108 0.929 . S
H5101 C5110 0.930 . S
H5102 C5112 0.930 . S
H5103 C5115 0.929 . S
H5104 C5118 0.930 . S
H5105 C5120 0.960 . S
H5106 C5120 0.960 . S
H5107 C5120 0.960 . S
C5108 H5100 0.929 . S
C5108 C5109 1.377 . S
C5108 C5110 1.384 . S
C5109 C5108 1.377 . S
C5109 C5115 1.390 . S
C5110 H5101 0.930 . S
C5110 C5108 1.384 . S
C5110 C5111 1.372 . S
C5111 C5110 1.372 . S
C5111 C5112 1.400 . S
C5111 C5116 1.490 . S
C5112 H5102 0.930 . S
C5112 C5111 1.400 . S
C5112 C5115 1.386 . S
H5113 C5129 0.930 . S
H5114 C5130 0.931 . S
C5115 H5103 0.929 . S
C5115 C5109 1.390 . S
C5115 C5112 1.386 . S
C5116 C5111 1.490 . S
C5116 C5118 1.395 . S
C5116 C5119 1.403 . S
H5117 C5123 0.930 . S
C5118 H5104 0.930 . S
C5118 C5116 1.395 . S
C5118 C5121 1.403 . S
C5119 C5116 1.403 . S
C5119 C5120 1.524 . S
C5119 C5123 1.400 . S
C5120 H5105 0.960 . S
C5120 H5106 0.960 . S
C5120 H5107 0.960 . S
C5120 C5119 1.524 . S
C5121 C5118 1.403 . S
C5121 C5122 1.392 . S
C5121 C5125 1.495 . S
C5122 C5121 1.392 . S
C5122 C5123 1.385 . S
C5122 C5124 1.478 . S
C5123 H5117 0.930 . S
C5123 C5119 1.400 . S
C5123 C5122 1.385 . S
C5124 C5122 1.478 . S
C5124 C5126 1.381 . S
C5124 C5130 1.383 . S
C5125 C5121 1.495 . S
C5125 H5131 0.959 . S
C5125 H5132 0.961 . S
C5125 H5133 0.960 . S
C5126 C5124 1.381 . S
C5126 C5127 1.394 . S
C5126 H5134 0.930 . S
C5127 C5126 1.394 . S
C5127 C5128 1.383 . S
C5127 H5135 0.929 . S
C5128 C5127 1.383 . S
C5128 C5129 1.377 . S
C5129 H5113 0.930 . S
C5129 C5128 1.377 . S
C5129 C5130 1.379 . S
C5130 H5114 0.931 . S
C5130 C5124 1.383 . S
C5130 C5129 1.379 . S
H5131 C5125 0.959 . S
H5132 C5125 0.961 . S
H5133 C5125 0.960 . S
H5134 C5126 0.930 . S
H5135 C5127 0.929 . S
C1689 C106 1.939 . S
C1708 C392 1.805 . S
C1725 C65 2.197 . S
C1744 C483 2.116 . S
C1761 C79 1.769 . S
C1780 C560 1.668 1_565 S
C1816 C658 1.342 . S
C1797 C90 1.420 . S
C1833 C21 1.318 . S
C1852 C742 1.331 . S
C1888 C814 0.856 . S
C1869 C35 0.879 . S
C1924 C903 0.680 . S
C1905 C50 0.629 . S
C1941 C6 1.347 . S
C1960 C980 1.231 . S
C1996 C399 2.109 . S
C1977 C232 2.244 . S
C2013 C245 0.626 . S
C2032 C490 0.548 . S
C2068 C567 1.223 . S
C2049 C274 1.274 . S
C2104 C644 1.463 . S
C2085 C175 1.553 . S
C2121 C231 1.749 . S
C2140 C728 1.683 . S
C2176 C830 0.948 . S
C2157 C246 1.067 . S
C2212 C910 0.729 . S
C2193 C273 0.609 . S
C2248 C987 1.414 . S
C2229 C176 1.557 . S
C2284 C406 1.464 . S
C2265 C160 1.524 . S
C2301 C289 1.988 1_554 S
C2320 C1071 1.916 . S
C2356 C1159 2.220 . S
C2337 C328 2.314 . S
C2392 C1232 0.641 . S
C2373 C317 0.522 . S
C2409 C118 0.805 . S
C2428 C994 0.816 . S
C2445 C132 1.404 . S
C2464 C574 1.442 . S
C2481 C331 2.419 . S
C2500 C1323 2.321 . S
C2536 C1400 0.918 . S
C2517 C303 0.990 . S
C2572 C403 1.393 1_565 S
C2553 C63 1.538 . S
C2608 C1418 2.568 . S
C2589 C107 2.578 . S
C2625 C92 1.583 . S
C2644 C571 1.557 . S
C2661 C78 2.086 . S
C2680 C1318 1.904 . S
C2716 C730 1.789 . S
C2697 C8 1.922 . S
C2733 C51 1.198 . S
C2752 C1162 1.079 . S
C2788 C914 1.158 . S
C2769 C37 1.094 . S
C2824 C1495 1.201 . S
C2805 C20 1.248 . S
C2860 C410 2.004 . S
C2841 C147 2.063 . S
C2896 C1402 0.757 . S
C2877 C316 0.753 . S
C2913 C119 1.147 . S
C2932 C578 1.137 . S
C2949 C288 1.738 . S
C2968 C1327 1.672 . S
C2985 C148 2.263 1_545 S
C3004 C739 2.097 . S
C3040 C1155 1.108 . S
C3021 C315 1.119 . S
C3057 C120 0.934 . S
C3076 C898 0.936 . S
C3093 C287 1.458 . S
C3112 C1502 1.422 . S
C3129 C188 1.388 . S
C3148 C394 1.281 . S
C3165 C177 2.357 . S
C3184 C1082 2.302 . S
C3201 C258 2.461 . S
C3220 C812 2.375 . S
C3237 C247 0.539 . S
C3256 C1243 0.628 . S
C3292 C1486 0.549 . S
C3273 C272 0.600 . S
C3309 C216 1.283 . S
C3328 C562 1.276 1_565 S
C3364 C662 2.596 . S
C3345 C261 2.657 . S
C3400 C487 0.933 . S
C3381 C205 0.910 . S
C3417 C76 1.532 . S
C3436 C1568 1.467 . S
C3472 C1407 2.212 . S
C3453 C93 2.283 . S
C3489 C105 1.366 . S
C3508 C1652 1.231 . S
C3525 C62 1.460 . S
C3544 C1330 1.381 . S
C3561 C49 1.291 . S
C3580 C1078 1.290 . S
C3616 C1150 1.165 . S
C3597 C9 1.283 . S
C3652 C1239 0.549 . S
C3633 C22 0.572 . S
C3688 C1484 1.570 . S
C3669 C36 1.749 . S
C3724 C1575 2.038 . S
C3705 C260 2.144 . S
C3741 C189 0.533 . S
C3760 C1414 0.517 . S
C3796 C1659 1.137 . S
C3777 C204 1.180 . S
C3832 C1316 1.280 . S
C3813 C217 1.376 . S
C3868 C1064 1.923 . S
C3849 C259 2.034 . S
C3885 C190 1.164 . S
C3904 C1166 1.085 . S
C3940 C1246 0.734 . S
C3921 C203 0.736 . S
C3957 C218 1.664 . S
C3976 C1491 1.509 . S
C4012 C1582 1.457 . S
C3993 C314 1.467 . S
C4029 C135 2.108 . S
C4048 C735 2.044 . S
C4084 C823 2.084 . S
C4065 C146 2.201 . S
C4120 C896 0.597 . S
C4101 C163 0.556 . S
C4156 C1498 0.839 . S
C4137 C300 0.814 . S
C4173 C286 1.360 . S
C4192 C1666 1.381 . S
C4228 C651 2.250 . S
C4209 C149 2.311 . S
C4264 C476 0.929 . S
C4245 C121 0.917 1_565 S
C4281 C91 1.513 . S
C4300 C1579 1.384 . S
C4336 C494 2.155 . S
C4317 C77 2.099 . S
C4353 C64 1.547 . S
C4372 C1663 1.522 . S
C4389 C104 1.676 . S
C4408 C646 1.581 . S
C4425 C34 1.486 . S
C4444 C1066 1.433 1_556 S
C4480 C826 1.044 . S
C4461 C23 1.192 . S
C4497 C7 0.777 . S
C4516 C1250 0.823 . S
C4533 C48 1.214 . S
C4552 C991 1.178 . S
C4588 C1586 2.002 . S
C4569 C329 2.039 . S
C4605 C162 0.791 . S
C4624 C478 0.843 . S
C4660 C1670 1.170 1_556 S
C4641 C301 1.140 . S
C4677 C134 1.767 . S
C4696 C655 1.647 . S
C4713 C330 2.230 . S
C4732 C1075 2.048 . S
C4768 C819 1.120 . S
C4749 C161 1.120 . S
C4785 C302 0.968 . S
C4804 C1234 0.964 . S
C4840 C998 1.353 . S
C4821 C133 1.462 . S
C4876 C1570 1.532 . S
C4857 C244 1.614 . S
C4912 C746 2.222 1_655 S
C4893 C219 2.285 . S
C4929 C230 2.101 . S
C4948 C1148 1.966 . S
C4984 C907 0.580 . S
C4965 C191 0.520 . S
C5001 C202 0.752 . S
C5020 C982 0.776 . S
C5037 C174 1.527 . S
C5056 C1654 1.504 . S
C5092 C1334 2.542 . S
C5073 C233 2.614 . S
C5128 C1411 0.902 . S
C5109 C275 0.898 . S
