# Generated by pormake.
# Topology zzz, (3,6)-cn, num edge types: 1
# Building blocks:
#     Node 0, Type 0, BuildingBlock: WUSLED_clean_sbu_0, # of connection points: 3
#     Node 1, Type 0, BuildingBlock: WUSLED_clean_sbu_0, # of connection points: 3
#     Node 2, Type 0, BuildingBlock: WUSLED_clean_sbu_0, # of connection points: 3
#     Node 3, Type 0, BuildingBlock: WUSLED_clean_sbu_0, # of connection points: 3
#     Node 4, Type 0, BuildingBlock: WUSLED_clean_sbu_0, # of connection points: 3
#     Node 5, Type 0, BuildingBlock: WUSLED_clean_sbu_0, # of connection points: 3
#     Node 6, Type 0, BuildingBlock: WUSLED_clean_sbu_0, # of connection points: 3
#     Node 7, Type 0, BuildingBlock: WUSLED_clean_sbu_0, # of connection points: 3
#     Node 8, Type 1, BuildingBlock: KUMJIN_clean_sbu_1, # of connection points: 6
#     Node 9, Type 1, BuildingBlock: KUMJIN_clean_sbu_1, # of connection points: 6
#     Node 10, Type 1, BuildingBlock: KUMJIN_clean_sbu_1, # of connection points: 6
#     Node 11, Type 1, BuildingBlock: KUMJIN_clean_sbu_1, # of connection points: 6
#     Edge 12, Type (0, 1), BuildingBlock: XUDNAN_clean_linker_2, # of connection points: 2
#     Edge 13, Type (0, 1), BuildingBlock: XUDNAN_clean_linker_2, # of connection points: 2
#     Edge 14, Type (0, 1), BuildingBlock: XUDNAN_clean_linker_2, # of connection points: 2
#     Edge 15, Type (0, 1), BuildingBlock: XUDNAN_clean_linker_2, # of connection points: 2
#     Edge 16, Type (0, 1), BuildingBlock: XUDNAN_clean_linker_2, # of connection points: 2
#     Edge 17, Type (0, 1), BuildingBlock: XUDNAN_clean_linker_2, # of connection points: 2
#     Edge 18, Type (0, 1), BuildingBlock: XUDNAN_clean_linker_2, # of connection points: 2
#     Edge 19, Type (0, 1), BuildingBlock: XUDNAN_clean_linker_2, # of connection points: 2
#     Edge 20, Type (0, 1), BuildingBlock: XUDNAN_clean_linker_2, # of connection points: 2
#     Edge 21, Type (0, 1), BuildingBlock: XUDNAN_clean_linker_2, # of connection points: 2
#     Edge 22, Type (0, 1), BuildingBlock: XUDNAN_clean_linker_2, # of connection points: 2
#     Edge 23, Type (0, 1), BuildingBlock: XUDNAN_clean_linker_2, # of connection points: 2
#     Edge 24, Type (0, 1), BuildingBlock: XUDNAN_clean_linker_2, # of connection points: 2
#     Edge 25, Type (0, 1), BuildingBlock: XUDNAN_clean_linker_2, # of connection points: 2
#     Edge 26, Type (0, 1), BuildingBlock: XUDNAN_clean_linker_2, # of connection points: 2
#     Edge 27, Type (0, 1), BuildingBlock: XUDNAN_clean_linker_2, # of connection points: 2
#     Edge 28, Type (0, 1), BuildingBlock: XUDNAN_clean_linker_2, # of connection points: 2
#     Edge 29, Type (0, 1), BuildingBlock: XUDNAN_clean_linker_2, # of connection points: 2
#     Edge 30, Type (0, 1), BuildingBlock: XUDNAN_clean_linker_2, # of connection points: 2
#     Edge 31, Type (0, 1), BuildingBlock: XUDNAN_clean_linker_2, # of connection points: 2
#     Edge 32, Type (0, 1), BuildingBlock: XUDNAN_clean_linker_2, # of connection points: 2
#     Edge 33, Type (0, 1), BuildingBlock: XUDNAN_clean_linker_2, # of connection points: 2
#     Edge 34, Type (0, 1), BuildingBlock: XUDNAN_clean_linker_2, # of connection points: 2
#     Edge 35, Type (0, 1), BuildingBlock: XUDNAN_clean_linker_2, # of connection points: 2
# Relax obj value: 0.287
# Max RMSD: 0.199
# Mean RMSD: 0.174
data_MOF--net-zzz--node1-WUSLED_clean_sbu_0--node2-KUMJIN_clean_sbu_1--edge1-XUDNAN_clean_linker_2
_symmetry_space_group_name_H-M    P1
_symmetry_Int_Tables_number       1
_symmetry_cell_setting            triclinic
loop_
_symmetry_equiv_pos_as_xyz
'x, y, z'
_cell_length_a     60.861092
_cell_length_b     60.996044
_cell_length_c     22.390099
_cell_angle_alpha  90.013038
_cell_angle_beta   89.870092
_cell_angle_gamma 90.194815
loop_
_atom_site_label
_atom_site_type_symbol
_atom_site_fract_x
_atom_site_fract_y
_atom_site_fract_z
_atom_type_partial_charge
C0 C 0.7945 0.53308 0.32179 0.0
C1 C 0.81427 0.52415 0.29975 0.0
C2 C 0.83446 0.53717 0.38758 0.0
C3 C 0.83398 0.52616 0.33224 0.0
C4 C 0.81465 0.54609 0.40926 0.0
C5 C 0.79504 0.54403 0.37701 0.0
U6 U 0.75014 0.54209 0.19755 0.0
O7 O 0.72852 0.51662 0.16074 0.0
O8 O 0.71389 0.5455 0.203 0.0
C9 C 0.71047 0.52786 0.17036 0.0
C10 C 0.7729 0.52936 0.29156 0.0
C11 C 0.69518 0.52982 0.11855 0.0
C12 C 0.65797 0.5354 0.08011 0.0
C13 C 0.67318 0.53616 0.12739 0.0
C14 C 0.68659 0.52256 1.01388 0.0
C15 C 0.6644 0.52798 0.02322 0.0
C16 C 0.70179 0.52358 0.06069 0.0
C17 C 0.79125 0.57865 0.11446 0.0
C18 C 0.8153 0.59964 0.04962 0.0
C19 C 0.83064 0.57339 0.11911 0.0
C20 C 0.80961 0.56887 0.14099 0.0
C21 C 0.83352 0.58779 0.07051 0.0
C22 C 0.79425 0.59494 0.07117 0.0
C23 C 0.76933 0.56913 0.12275 0.0
O24 O 0.75869 0.54558 0.29287 0.0
O25 O 0.77293 0.51884 0.24027 0.0
O26 O 0.76846 0.5478 0.11492 0.0
O27 O 0.75792 0.57591 0.16906 0.0
H28 H 0.81453 0.51536 0.25774 0.0
H29 H 0.84887 0.51921 0.31379 0.0
H30 H 0.81414 0.55432 0.45209 0.0
H31 H 0.7801 0.55068 0.39606 0.0
H32 H 0.64097 0.53954 0.0888 0.0
H33 H 0.66757 0.54098 0.1714 0.0
H34 H 0.69208 0.51692 0.97048 0.0
H35 H 0.71858 0.51873 0.05181 0.0
H36 H 0.81706 0.61112 1.013 0.0
H37 H 0.84423 0.56388 0.13623 0.0
H38 H 0.80754 0.5563 0.17478 0.0
H39 H 0.78021 0.60275 0.05057 0.0
C40 C 1.00518 0.80029 0.31895 0.0
C41 C 1.00705 0.81868 0.28145 0.0
C42 C 1.00667 0.84359 0.36792 0.0
C43 C 1.00768 0.83999 0.30554 0.0
C44 C 1.00406 0.8251 0.40503 0.0
C45 C 1.00335 0.80381 0.38086 0.0
U46 U 0.99685 0.75277 0.2022 0.0
O47 O 0.02056 0.72674 0.18049 0.0
O48 O 0.98829 0.71785 0.21667 0.0
C49 C 1.00652 0.71082 0.19149 0.0
C50 C 1.0068 0.77736 0.29579 0.0
C51 C 1.0042 0.69355 0.14446 0.0
C52 C 0.99397 0.65609 0.11714 0.0
C53 C 0.99575 0.67285 0.15989 0.0
C54 C 1.0093 0.68017 0.0421 0.0
C55 C 1.00069 0.65944 0.05749 0.0
C56 C 1.01096 0.69702 0.08491 0.0
C57 C 0.97129 0.79296 0.08981 0.0
C58 C 0.96814 0.81703 1.00457 0.0
C59 C 0.97104 0.83236 0.10415 0.0
C60 C 0.97165 0.81116 0.12802 0.0
C61 C 0.97049 0.83553 0.04177 0.0
C62 C 0.96847 0.79599 0.02849 0.0
C63 C 0.97759 0.77115 0.11043 0.0
O64 O 0.98848 0.76597 0.29158 0.0
O65 O 0.02023 0.77395 0.25063 0.0
O66 O 0.99891 0.76825 0.11423 0.0
O67 O 0.96659 0.7628 0.15568 0.0
H68 H 1.00853 0.81657 0.23358 0.0
H69 H 1.00923 0.85368 0.27504 0.0
H70 H 1.00343 0.82695 0.45309 0.0
H71 H 1.00202 0.78995 0.41094 0.0
H72 H 0.98756 0.64033 0.1312 0.0
H73 H 0.9906 0.66958 0.20538 0.0
H74 H 0.01444 0.68351 0.99666 0.0
H75 H 0.01754 0.71276 0.07128 0.0
H76 H 0.96802 0.81852 0.95641 0.0
H77 H 0.9724 0.84618 0.13428 0.0
H78 H 0.97373 0.809 0.17568 0.0
H79 H 0.96827 0.78205 0.99845 0.0
C80 C 0.7317 0.01567 0.28845 0.0
C81 C 0.72467 0.99502 0.30894 0.0
C82 C 0.69077 1.01088 0.34988 0.0
C83 C 0.70455 0.99268 0.33929 0.0
C84 C 0.69779 0.03148 0.32847 0.0
C85 C 0.71796 0.03381 0.29834 0.0
U86 U 0.7814 1.00265 0.18194 0.0
O87 O 0.80239 0.02675 0.13583 0.0
O88 O 0.81703 1.00446 0.20123 0.0
C89 C 0.82057 0.01969 0.16073 0.0
C90 C 0.7539 0.01916 0.26154 0.0
C91 C 0.83991 0.01691 0.12061 0.0
C92 C 0.87866 0.02454 0.10165 0.0
C93 C 0.86051 0.02428 0.14027 0.0
C94 C 0.85633 1.00902 0.02303 0.0
C95 C 0.87677 0.01742 0.042 0.0
C96 C 0.83805 1.00885 0.06186 0.0
C97 C 0.74841 0.95568 0.11037 0.0
C98 C 0.73005 0.92724 0.0533 0.0
C99 C 0.70859 0.95429 0.10682 0.0
C100 C 0.72792 0.96378 0.12864 0.0
C101 C 0.70951 0.93661 0.0664 0.0
C102 C 0.74935 0.93678 0.07495 0.0
C103 C 0.76851 0.96865 0.11908 0.0
O104 O 0.76921 1.00476 0.27446 0.0
O105 O 0.75474 0.02572 0.20564 0.0
O106 O 0.76726 0.98899 0.10018 0.0
O107 O 0.7785 0.96676 0.1708 0.0
H108 H 0.73489 0.9807 0.30252 0.0
H109 H 0.70008 0.97657 0.35565 0.0
H110 H 0.68767 0.04586 0.33465 0.0
H111 H 0.72299 0.04996 0.28342 0.0
H112 H 0.89416 0.03081 0.11824 0.0
H113 H 0.86244 0.03055 0.18526 0.0
H114 H 0.85421 1.0035 0.97743 0.0
H115 H 0.82233 1.00307 0.04544 0.0
H116 H 0.73127 0.91347 0.02291 0.0
H117 H 0.69309 0.96206 0.11746 0.0
H118 H 0.72692 0.97838 0.15607 0.0
H119 H 0.76506 0.93029 0.06062 0.0
C120 C 0.53 0.73994 0.32538 0.0
C121 C 0.52558 0.72107 0.29136 0.0
C122 C 0.52598 0.69796 0.3814 0.0
C123 C 0.52369 0.70041 0.31891 0.0
C124 C 0.53129 0.7168 0.41489 0.0
C125 C 0.53322 0.73745 0.38725 0.0
U126 U 0.53972 0.78572 0.20334 0.0
O127 O 0.51666 0.8121 0.17951 0.0
O128 O 0.54891 0.82052 0.21571 0.0
C129 C 0.53088 0.82783 0.19043 0.0
C130 C 0.52921 0.76247 0.29917 0.0
C131 C 0.53382 0.84427 0.14188 0.0
C132 C 0.52963 0.88176 0.10492 0.0
C133 C 0.52736 0.86613 0.15075 0.0
C134 C 0.54484 0.85392 0.04024 0.0
C135 C 0.53846 0.87595 0.04885 0.0
C136 C 0.54255 0.83832 0.08609 0.0
C137 C 0.566 0.74475 0.09148 0.0
C138 C 0.58415 0.72408 1.01317 0.0
C139 C 0.5588 0.70584 0.08058 0.0
C140 C 0.55563 0.72552 0.11133 0.0
C141 C 0.57233 0.70517 0.02952 0.0
C142 C 0.58096 0.74373 0.04392 0.0
C143 C 0.55897 0.76636 0.11269 0.0
O144 O 0.54786 0.77326 0.29363 0.0
O145 O 0.5159 0.76562 0.25376 0.0
O146 O 0.53761 0.7691 0.11694 0.0
O147 O 0.56999 0.77512 0.15716 0.0
H148 H 0.52299 0.72234 0.24368 0.0
H149 H 0.52006 0.68634 0.29108 0.0
H150 H 0.53303 0.71579 0.46292 0.0
H151 H 0.53649 0.7517 0.41477 0.0
H152 H 0.52473 0.89849 0.11383 0.0
H153 H 0.52053 0.87115 0.19332 0.0
H154 H 0.55134 0.84858 0.99764 0.0
H155 H 0.5475 0.82154 0.07786 0.0
H156 H 0.59487 0.72399 0.97448 0.0
H157 H 0.54929 0.69162 0.09402 0.0
H158 H 0.54399 0.72604 0.14794 0.0
H159 H 0.58912 0.75845 0.02811 0.0
C160 C 0.23358 0.51506 0.97645 0.0
C161 C 0.21373 0.52443 0.99649 0.0
C162 C 0.19384 0.50953 0.91035 0.0
C163 C 0.19413 0.52169 0.96389 0.0
C164 C 0.21373 0.50024 0.89054 0.0
C165 C 0.23323 0.50302 0.92287 0.0
U166 U 0.27916 0.50334 0.0948 0.0
O167 O 0.3152 0.50272 0.0844 0.0
O168 O 0.29996 0.52723 0.14268 0.0
C169 C 0.31836 0.51823 0.12441 0.0
C170 C 0.25499 0.51934 1.00734 0.0
C171 C 0.33486 0.51376 0.17164 0.0
C172 C 0.36508 0.52675 0.23411 0.0
C173 C 0.34912 0.53059 0.19018 0.0
C174 C 0.35266 0.48916 0.24237 0.0
C175 C 0.36724 0.50591 0.26048 0.0
C176 C 0.33662 0.49306 0.19863 0.0
C177 C 0.23917 0.46255 0.16083 0.0
C178 C 0.2112 0.44881 0.22836 0.0
C179 C 0.20076 0.46994 0.14135 0.0
C180 C 0.22276 0.47115 0.12378 0.0
C181 C 0.19507 0.46023 0.19622 0.0
C182 C 0.23321 0.45009 0.21086 0.0
C183 C 0.26142 0.47167 0.15781 0.0
O184 O 0.25444 0.52701 0.06227 0.0
O185 O 0.27054 0.50469 0.99945 0.0
O186 O 0.27277 0.46801 0.10877 0.0
O187 O 0.2623 0.49216 0.17553 0.0
H188 H 0.21335 0.53409 0.03705 0.0
H189 H 0.17917 0.52899 0.98087 0.0
H190 H 0.2144 0.49115 0.84904 0.0
H191 H 0.2482 0.49598 0.9051 0.0
H192 H 0.37608 0.53999 0.2463 0.0
H193 H 0.34804 0.54672 0.17021 0.0
H194 H 0.35356 0.473 0.2622 0.0
H195 H 0.32567 0.47985 0.18572 0.0
H196 H 0.2073 0.44129 0.27093 0.0
H197 H 0.18859 0.47876 0.11565 0.0
H198 H 0.22711 0.48092 0.08507 0.0
H199 H 0.24572 0.44346 0.24007 0.0
C200 C 0.02294 0.24153 0.96767 0.0
C201 C 0.041 0.23816 0.92936 0.0
C202 C 0.0288 0.20067 0.90627 0.0
C203 C 0.04386 0.21815 0.89929 0.0
C204 C 1.01078 0.204 0.94494 0.0
C205 C 1.00788 0.22411 0.975 0.0
U206 U 0.03211 0.29018 0.08025 0.0
O207 O 0.03329 0.32601 0.0646 0.0
O208 O 1.00694 0.3118 0.11906 0.0
C209 C 0.01687 0.32986 0.10152 0.0
C210 C 0.01841 0.26369 0.9943 0.0
C211 C 0.02026 0.34733 0.14777 0.0
C212 C 0.03216 0.3845 0.17364 0.0
C213 C 0.02959 0.3676 0.13152 0.0
C214 C 0.01586 0.36151 0.24964 0.0
C215 C 0.02535 0.38176 0.23345 0.0
C216 C 0.01338 0.34455 0.20752 0.0
C217 C 0.07162 0.25365 0.16649 0.0
C218 C 0.08621 0.23136 0.24649 0.0
C219 C 0.06451 0.21459 0.16807 0.0
C220 C 0.06298 0.23481 0.1392 0.0
C221 C 0.0746 0.21317 0.22438 0.0
C222 C 0.08461 0.25159 0.21771 0.0
C223 C 0.06191 0.27503 0.1537 0.0
O224 O 1.00927 0.26445 0.04761 0.0
O225 O 0.03343 0.27901 0.98673 0.0
O226 O 0.06701 0.28447 0.10272 0.0
O227 O 0.04084 0.27578 0.1661 0.0
H228 H 0.05277 0.25118 0.92136 0.0
H229 H 0.05772 0.21665 0.86919 0.0
H230 H 0.99889 0.19103 0.95226 0.0
H231 H 0.99359 0.22615 1.00332 0.0
H232 H 0.03921 0.3999 0.15892 0.0
H233 H 0.03478 0.37047 0.08586 0.0
H234 H 1.0106 0.35861 0.2952 0.0
H235 H 1.006 0.32926 0.22195 0.0
H236 H 0.09407 0.23071 0.28983 0.0
H237 H 0.05559 0.20071 0.14997 0.0
H238 H 0.05285 0.23616 0.09962 0.0
H239 H 0.09132 0.26602 0.23935 0.0
C240 C 0.2982 0.03105 0.96311 0.0
C241 C 0.31841 0.03504 0.99159 0.0
C242 C 0.33789 0.03321 0.89555 0.0
C243 C 0.33809 0.03603 0.95815 0.0
C244 C 0.31757 0.02881 0.86787 0.0
C245 C 0.29808 0.02778 0.90114 0.0
U246 U 0.26022 0.03823 0.1027 0.0
O247 O 0.23231 0.01744 0.13171 0.0
O248 O 0.22664 0.05153 0.10525 0.0
C249 C 0.21812 0.03361 0.12853 0.0
C250 C 0.27691 0.03039 0.99581 0.0
C251 C 0.20265 0.03631 0.17983 0.0
C252 C 0.17313 0.02117 0.24184 0.0
C253 C 0.18954 0.0185 0.19821 0.0
C254 C 0.18284 0.05947 0.25075 0.0
C255 C 0.16924 0.0418 0.26792 0.0
C256 C 0.19931 0.05678 0.20739 0.0
C257 C 0.30192 0.05762 0.23503 0.0
C258 C 0.3295 0.04706 0.30754 0.0
C259 C 0.32722 0.08481 0.2748 0.0
C260 C 0.30917 0.07945 0.23907 0.0
C261 C 0.33833 0.06841 0.3068 0.0
C262 C 0.31147 0.04173 0.27199 0.0
C263 C 0.28682 0.05081 0.18701 0.0
O264 O 0.27458 0.01528 0.03718 0.0
O265 O 0.26857 0.04938 1.01165 0.0
O266 O 0.27687 0.06493 0.15191 0.0
O267 O 0.28229 0.03004 0.1769 0.0
H268 H 0.31895 0.03761 0.03944 0.0
H269 H 0.35334 0.03955 0.98108 0.0
H270 H 0.31669 0.02611 0.82013 0.0
H271 H 0.28276 0.02453 0.87814 0.0
H272 H 0.16291 1.00722 0.25338 0.0
H273 H 0.19155 1.00258 0.1775 0.0
H274 H 0.18059 0.07554 0.27041 0.0
H275 H 0.20908 0.07089 0.19456 0.0
H276 H 0.33767 0.03393 0.33119 0.0
H277 H 0.33344 0.10147 0.27403 0.0
H278 H 0.30191 0.09209 0.21154 0.0
H279 H 0.30607 0.0248 0.2703 0.0
C280 C 0.51735 0.29619 0.96522 0.0
C281 C 0.52077 0.31696 0.99157 0.0
C282 C 0.51584 0.33536 0.89503 0.0
C283 C 0.51987 0.33631 0.95697 0.0
C284 C 0.51151 0.31465 0.86962 0.0
C285 C 0.51232 0.29546 0.904 0.0
U286 U 0.50377 0.24961 0.08103 0.0
O287 O 0.50562 0.2135 0.0728 0.0
O288 O 0.52753 0.23082 0.1343 0.0
C289 C 0.52041 0.21171 0.11533 0.0
C290 C 0.52129 0.2751 0.99802 0.0
C291 C 0.5162 0.19515 0.16282 0.0
C292 C 0.52832 0.1628 0.21799 0.0
C293 C 0.53083 0.17761 0.17033 0.0
C294 C 0.49611 0.18254 0.25088 0.0
C295 C 0.51111 0.1652 0.25968 0.0
C296 C 0.49866 0.19735 0.2032 0.0
C297 C 0.45954 0.28747 0.13282 0.0
C298 C 0.43838 0.31459 0.18669 0.0
C299 C 0.46893 0.32589 0.12442 0.0
C300 C 0.47176 0.30429 0.10603 0.0
C301 C 0.45341 0.33109 0.16915 0.0
C302 C 0.44182 0.29277 0.16989 0.0
C303 C 0.46899 0.26544 0.13462 0.0
O304 O 0.52683 0.27603 0.05474 0.0
O305 O 0.50791 0.25868 0.98625 0.0
O306 O 0.46772 0.25375 0.0854 0.0
O307 O 0.48866 0.26527 0.15862 0.0
H308 H 0.52482 0.31827 0.0385 0.0
H309 H 0.52336 0.35189 0.97819 0.0
H310 H 0.50799 0.31318 0.82238 0.0
H311 H 0.50972 0.27985 0.88196 0.0
H312 H 0.54036 0.14993 0.22328 0.0
H313 H 0.54459 0.17564 0.14002 0.0
H314 H 0.48242 0.18482 0.28116 0.0
H315 H 0.48716 0.21076 0.1985 0.0
H316 H 0.42531 0.31803 0.21812 0.0
H317 H 0.4808 0.33773 0.10836 0.0
H318 H 0.48538 0.30043 0.07666 0.0
H319 H 0.43194 0.27996 0.19013 0.0
Eu320 Eu 0.99182 0.03558 0.57952 0.0
C321 C 0.04886 0.0278 0.81531 0.0
N322 N 0.05637 0.02783 0.75833 0.0
C323 C 0.08648 0.05103 0.78645 0.0
C324 C 0.05918 0.04052 0.85976 0.0
C325 C 0.07565 0.03808 0.74404 0.0
C326 C 0.07788 0.05272 0.84421 0.0
C327 C 0.02543 1.01106 0.89016 0.0
C328 C 0.03234 0.01321 0.8303 0.0
C329 C 0.03436 0.02499 0.93388 0.0
C330 C 0.05126 0.03969 0.91872 0.0
Eu331 Eu 0.03603 1.00727 0.68806 0.0
N332 N 0.02466 0.99957 0.78731 0.0
C333 C 1.01066 0.99422 0.9047 0.0
C334 C 1.01172 0.98201 0.80205 0.0
C335 C 1.00419 0.97931 0.86067 0.0
H336 H 0.08212 0.0369 0.6991 0.0
H337 H 0.9934 0.96576 0.87182 0.0
H338 H 0.94653 0.03268 0.66974 0.0
H339 H 1.00116 0.99756 0.36084 0.0
H340 H 1.00669 0.97046 0.76801 0.0
H341 H 1.00491 0.99203 0.95015 0.0
H342 H 1.0078 0.02518 0.44021 0.0
H343 H 0.10134 0.05979 0.77448 0.0
H344 H 0.02905 0.02383 0.98 0.0
H345 H 0.05873 0.0496 0.95337 0.0
H346 H 0.91637 1.00688 0.69055 0.0
H347 H 0.08632 0.06269 0.87705 0.0
H348 H 0.97358 0.96818 0.37677 0.0
N349 N 0.96003 0.01361 0.5988 0.0
C350 C 0.95602 0.99707 0.55964 0.0
C351 C 0.92769 1.00362 0.65431 0.0
C352 C 0.93851 0.9822 0.56864 0.0
C353 C 0.94515 0.01801 0.64302 0.0
C354 C 0.92469 0.98528 0.61791 0.0
N355 N 0.98426 1.01137 0.49951 0.0
C356 C 0.99545 0.0126 0.44665 0.0
C357 C 0.96408 0.97997 0.46434 0.0
C358 C 0.96836 0.99609 0.50793 0.0
C359 C 0.9763 0.98035 0.41127 0.0
C360 C 0.99184 0.99694 0.40204 0.0
H361 H 0.91104 0.97427 0.62643 0.0
H362 H 0.92161 0.95366 0.53339 0.0
H363 H 0.94409 0.95168 0.44201 0.0
O364 O 0.99426 0.06062 0.51107 0.0
O365 O 1.0119 1.005 0.55802 0.0
O366 O 1.01042 0.98576 0.64339 0.0
O367 O 0.96372 0.05663 0.55815 0.0
O368 O 0.02658 0.04284 0.54799 0.0
O369 O 0.05159 0.02234 0.60437 0.0
O370 O 0.0606 0.98578 0.72735 0.0
O371 O 0.03887 0.04472 0.67823 0.0
O372 O 1.00414 0.05759 0.65517 0.0
O373 O 0.05417 0.98377 0.63298 0.0
O374 O 0.9991 1.00433 0.70386 0.0
O375 O 0.98555 0.03766 0.67928 0.0
C376 C 1.00969 0.98605 0.58509 0.0
C377 C 0.97543 0.09291 0.53463 0.0
C378 C 0.99295 0.12835 0.51847 0.0
C379 C 0.97806 0.13814 0.55806 0.0
C380 C 0.96065 0.10279 0.57479 0.0
C381 C 0.96202 0.12532 0.58633 0.0
C382 C 0.99144 0.10592 0.50661 0.0
C383 C 0.04648 0.03518 0.55878 0.0
C384 C 0.97522 0.0691 0.52279 0.0
C385 C 0.93477 0.96542 0.52682 0.0
C386 C 0.94754 0.96432 0.47471 0.0
C387 C 0.02382 0.06029 0.67884 0.0
C388 C 0.05815 0.95051 0.68439 0.0
C389 C 0.04113 0.92072 0.7406 0.0
C390 C 0.04316 0.90698 0.69055 0.0
C391 C 0.06031 0.93658 0.63484 0.0
C392 C 0.04893 0.94227 0.73732 0.0
C393 C 0.05297 0.91486 0.63816 0.0
C394 C 0.98728 0.02151 0.7175 0.0
C395 C 0.06285 0.97414 0.67898 0.0
H396 H 0.97887 0.15558 0.567 0.0
H397 H 0.94818 0.09316 0.59738 0.0
H398 H 0.9506 0.13285 0.61722 0.0
H399 H 1.0028 0.09864 0.47493 0.0
H400 H 0.03731 0.8902 0.69213 0.0
H401 H 0.06713 0.94264 0.59323 0.0
H402 H 0.04693 0.95288 0.7757 0.0
H403 H 0.05456 0.90424 0.59968 0.0
Eu404 Eu 0.5332 0.03999 0.71594 0.0
C405 C 0.48052 0.96025 0.67204 0.0
N406 N 0.50081 0.9626 0.64794 0.0
C407 C 0.51158 0.92794 0.6889 0.0
C408 C 0.47527 0.94218 0.70866 0.0
C409 C 0.51583 0.94607 0.65228 0.0
C410 C 0.4914 0.92628 0.71858 0.0
C411 C 0.44242 0.97133 0.67198 0.0
C412 C 0.46442 0.97465 0.65427 0.0
C413 C 0.43738 0.95457 0.71291 0.0
C414 C 0.45383 0.94001 0.73136 0.0
Eu415 Eu 0.50821 0.99644 0.59922 0.0
N416 N 0.46993 0.99042 0.61429 0.0
C417 C 0.42608 0.98408 0.64531 0.0
C418 C 0.45391 1.00144 0.58398 0.0
C419 C 0.43179 0.99869 0.59969 0.0
H420 H 0.53157 0.94755 0.63007 0.0
H421 H 0.41919 1.00803 0.57729 0.0
H422 H 0.50446 0.03359 0.84282 0.0
H423 H 0.56547 0.11605 0.62153 0.0
H424 H 0.45835 0.01328 0.55011 0.0
H425 H 0.40897 0.98206 0.6576 0.0
H426 H 0.56404 0.07602 0.6401 0.0
H427 H 0.5239 0.91536 0.69453 0.0
H428 H 0.42066 0.95206 0.7282 0.0
H429 H 0.44955 0.92651 0.76065 0.0
H430 H 0.48055 0.05564 0.90895 0.0
H431 H 0.4881 0.9122 0.74671 0.0
H432 H 0.53979 0.14073 0.67469 0.0
N433 N 0.51233 0.06038 0.7858 0.0
C434 C 0.51092 0.08227 0.77666 0.0
C435 C 0.48886 0.06332 0.87161 0.0
C436 C 0.49776 0.09559 0.8136 0.0
C437 C 0.50234 0.05089 0.83402 0.0
C438 C 0.48628 0.08573 0.86081 0.0
N439 N 0.53744 0.0782 0.7014 0.0
C440 C 0.55285 0.08677 0.66352 0.0
C441 C 0.52427 0.1144 0.72436 0.0
C442 C 0.52396 0.09152 0.73293 0.0
C443 C 0.53907 0.12322 0.68277 0.0
C444 C 0.55365 0.10936 0.65283 0.0
H445 H 0.47595 0.09537 0.89021 0.0
H446 H 0.48691 0.12882 0.8309 0.0
H447 H 0.51015 0.14532 0.75254 0.0
O448 O 0.56212 0.02042 0.73852 0.0
O449 O 0.52403 0.05525 0.62673 0.0
O450 O 0.50711 0.03108 0.55964 0.0
O451 O 0.55582 0.05098 0.78478 0.0
O452 O 0.55315 0.03401 0.63024 0.0
O453 O 0.54441 0.99808 0.62071 0.0
O454 O 0.52397 0.99713 0.51168 0.0
O455 O 0.53085 0.98649 0.67642 0.0
O456 O 0.51842 1.00817 0.75102 0.0
O457 O 0.49943 0.97268 0.52986 0.0
O458 O 0.48643 0.02398 0.63569 0.0
O459 O 0.49889 0.02628 0.73115 0.0
C460 C 0.51459 0.05071 0.57509 0.0
C461 C 0.56872 0.02121 0.8428 0.0
C462 C 0.58352 0.9907 0.90197 0.0
C463 C 0.57414 1.00046 0.95336 0.0
C464 C 0.55944 0.03019 0.89475 0.0
C465 C 0.56197 0.01971 0.94939 0.0
C466 C 0.58 1.0012 0.84642 0.0
C467 C 0.55667 0.01484 0.60515 0.0
C468 C 0.56673 0.03261 0.78475 0.0
C469 C 0.4971 0.11831 0.80343 0.0
C470 C 0.51034 0.12771 0.75883 0.0
C471 C 0.52603 0.98923 0.73324 0.0
C472 C 0.5019 0.98621 0.43191 0.0
C473 C 0.47716 1.00815 0.37123 0.0
C474 C 0.48354 0.99602 0.32065 0.0
C475 C 0.50807 0.97423 0.38127 0.0
C476 C 0.48651 1.00315 0.42681 0.0
C477 C 0.4989 0.97916 0.32579 0.0
C478 C 0.48285 0.02784 0.69262 0.0
C479 C 0.51207 0.98144 0.4896 0.0
H480 H 0.5766 0.994 0.99766 0.0
H481 H 0.55034 0.04541 0.89349 0.0
H482 H 0.55498 0.0269 0.98933 0.0
H483 H 0.58612 0.99421 0.80535 0.0
H484 H 0.4764 0.99935 0.27733 0.0
H485 H 0.52003 0.96117 0.38461 0.0
H486 H 0.48209 0.01265 0.46587 0.0
H487 H 0.50366 0.96986 0.28669 0.0
Eu488 Eu 0.53794 0.50763 0.56656 0.0
C489 C 0.47758 0.49939 0.79975 0.0
N490 N 0.47441 0.50318 0.74062 0.0
C491 C 0.44346 0.47875 0.74024 0.0
C492 C 0.46416 0.48438 0.83107 0.0
C493 C 0.45713 0.49383 0.71112 0.0
C494 C 0.44713 0.47382 0.8003 0.0
C495 C 0.49701 0.50803 0.89131 0.0
C496 C 0.49383 0.51109 0.82947 0.0
C497 C 0.48434 0.49237 0.92206 0.0
C498 C 0.46793 0.48061 0.89205 0.0
Eu499 Eu 0.49846 0.52863 0.69522 0.0
N500 N 0.50557 0.52642 0.79884 0.0
C501 C 0.51226 0.52135 0.92088 0.0
C502 C 0.51946 0.54033 0.82819 0.0
C503 C 0.52323 0.53783 0.88936 0.0
H504 H 0.45411 0.49771 0.66484 0.0
H505 H 0.53433 0.5488 0.91236 0.0
H506 H 0.58859 0.51572 0.62875 0.0
H507 H 0.5041 0.54451 0.36534 0.0
H508 H 0.52753 0.55354 0.80467 0.0
H509 H 0.51511 0.51957 0.96839 0.0
H510 H 0.50676 0.51725 0.44724 0.0
H511 H 0.43007 0.47101 0.71643 0.0
H512 H 0.48672 0.48964 0.96943 0.0
H513 H 0.45798 0.46892 0.91665 0.0
H514 H 0.61787 0.54347 0.62595 0.0
H515 H 0.43649 0.46217 0.82278 0.0
H516 H 0.53134 0.57465 0.3585 0.0
N517 N 0.56853 0.53191 0.5645 0.0
C518 C 0.56779 0.54794 0.52219 0.0
C519 C 0.60371 0.54513 0.59717 0.0
C520 C 0.58465 0.56379 0.51766 0.0
C521 C 0.58674 0.52963 0.59951 0.0
C522 C 0.60249 0.5625 0.5568 0.0
N523 N 0.53474 0.53237 0.48622 0.0
C524 C 0.5187 0.53036 0.44398 0.0
C525 C 0.54976 0.56382 0.43567 0.0
C526 C 0.55063 0.54796 0.48136 0.0
C527 C 0.5326 0.56271 0.39414 0.0
C528 C 0.51718 0.54573 0.39785 0.0
H529 H 0.61575 0.57437 0.55478 0.0
H530 H 0.59624 0.59242 0.46954 0.0
H531 H 0.56563 0.59251 0.398 0.0
O532 O 0.53104 0.4817 0.50426 0.0
O533 O 0.51698 0.53823 0.56338 0.0
O534 O 0.52228 0.55309 0.65345 0.0
O535 O 0.56532 0.49132 0.51805 0.0
O536 O 0.50321 0.49441 0.56186 0.0
O537 O 0.48155 0.52066 0.6065 0.0
O538 O 0.47878 0.5503 0.75094 0.0
O539 O 0.50156 0.49095 0.68837 0.0
O540 O 0.53549 0.48408 0.64494 0.0
O541 O 0.47598 0.55231 0.65485 0.0
O542 O 0.53525 0.53459 0.71074 0.0
O543 O 0.55242 0.50647 0.65999 0.0
C544 C 0.52088 0.55568 0.59562 0.0
C545 C 0.5574 0.46191 0.44552 0.0
C546 C 0.54518 0.43305 0.37788 0.0
C547 C 0.56657 0.43151 0.35468 0.0
C548 C 0.57881 0.46005 0.42281 0.0
C549 C 0.58333 0.44486 0.3775 0.0
C550 C 0.5408 0.44824 0.4231 0.0
C551 C 0.4847 0.50528 0.56606 0.0
C552 C 0.55147 0.4788 0.48957 0.0
C553 C 0.58352 0.58002 0.4733 0.0
C554 C 0.56611 0.58005 0.43245 0.0
C555 C 0.51844 0.47791 0.67756 0.0
C556 C 0.47652 0.58537 0.70843 0.0
C557 C 0.49968 0.6152 0.74537 0.0
C558 C 0.48509 0.63034 0.7194 0.0
C559 C 0.46222 0.60059 0.68277 0.0
C560 C 0.49564 0.59275 0.73703 0.0
C561 C 0.46671 0.62301 0.68755 0.0
C562 C 0.55123 0.52018 0.70551 0.0
C563 C 0.4718 0.56177 0.70575 0.0
H564 H 0.57033 0.41984 0.31967 0.0
H565 H 0.59188 0.47052 0.43921 0.0
H566 H 0.59983 0.44355 0.35975 0.0
H567 H 0.52414 0.4497 0.43991 0.0
H568 H 0.48734 0.64781 0.7252 0.0
H569 H 0.4476 0.59516 0.65948 0.0
H570 H 0.50715 0.58085 0.7541 0.0
H571 H 0.45556 0.63478 0.66802 0.0
Eu572 Eu 0.02439 0.54656 0.59865 0.0
C573 C 0.03639 0.45467 0.72329 0.0
N574 N 0.02096 0.45999 0.68199 0.0
C575 C 0.02488 0.42483 0.63551 0.0
C576 C 0.0471 0.43421 0.72128 0.0
C577 C 0.01472 0.4453 0.63932 0.0
C578 C 0.04125 0.41931 0.67643 0.0
C579 C 0.05777 0.46484 0.81059 0.0
C580 C 0.04163 0.4698 0.76758 0.0
C581 C 0.06857 0.44454 0.80839 0.0
C582 C 0.06324 0.42928 0.76392 0.0
Eu583 Eu 1.00508 0.49503 0.69129 0.0
N584 N 0.03142 0.48962 0.7675 0.0
C585 C 0.06278 0.48055 0.85413 0.0
C586 C 0.03558 0.5046 0.81132 0.0
C587 C 0.0515 0.50044 0.85474 0.0
H588 H 1.00162 0.4492 0.6088 0.0
H589 H 0.05504 0.51256 0.88872 0.0
H590 H 0.02624 0.59255 0.68077 0.0
H591 H 0.97531 0.52733 0.40045 0.0
H592 H 0.02669 0.51978 0.81311 0.0
H593 H 0.0752 0.47743 0.88763 0.0
H594 H 1.00389 0.52117 0.4759 0.0
H595 H 0.01999 0.41328 0.60129 0.0
H596 H 0.0811 0.44051 0.84085 0.0
H597 H 0.07169 0.41367 0.76291 0.0
H598 H 1.00686 0.62795 0.68744 0.0
H599 H 0.04909 0.40342 0.67339 0.0
H600 H 0.95404 0.5618 0.40117 0.0
N601 N 1.0076 0.58121 0.60683 0.0
C602 C 0.99214 0.58604 0.56515 0.0
C603 C 1.00245 0.61626 0.65309 0.0
C604 C 0.98081 0.60617 0.56684 0.0
C605 C 0.0132 0.59608 0.64971 0.0
C606 C 0.98609 0.62128 0.61169 0.0
N607 N 0.99811 0.55111 0.52167 0.0
C608 C 0.99446 0.53598 0.47789 0.0
C609 C 0.97108 0.57505 0.47801 0.0
C610 C 0.98736 0.57065 0.52113 0.0
C611 C 0.96654 0.55911 0.43474 0.0
C612 C 0.97843 0.53959 0.43438 0.0
H613 H 0.97776 0.63692 0.61448 0.0
H614 H 0.95564 0.62588 0.52479 0.0
H615 H 0.94708 0.59862 0.44725 0.0
O616 O 0.04357 0.54879 0.51725 0.0
O617 O 0.98785 0.54354 0.62126 0.0
O618 O 0.98101 0.50665 0.62042 0.0
O619 O 0.04876 0.57278 0.58677 0.0
O620 O 0.03174 0.51232 0.56057 0.0
O621 O 1.00356 0.48969 0.5913 0.0
O622 O 0.98703 0.49195 0.7743 0.0
O623 O 0.04179 0.49832 0.6701 0.0
O624 O 0.04839 0.5353 0.66995 0.0
O625 O 0.97935 0.46999 0.70168 0.0
O626 O 0.99796 0.52919 0.72983 0.0
O627 O 0.02598 0.55203 0.69883 0.0
C628 C 0.97455 0.52689 0.61178 0.0
C629 C 0.07986 0.56158 0.52996 0.0
C630 C 0.11054 0.54253 0.48304 0.0
C631 C 0.12529 0.55628 0.51341 0.0
C632 C 0.09482 0.57517 0.56028 0.0
C633 C 0.11742 0.57241 0.55221 0.0
C634 C 0.08793 0.54518 0.49164 0.0
C635 C 0.01952 0.49454 0.55388 0.0
C636 C 0.05593 0.56475 0.5365 0.0
C637 C 0.96457 0.61054 0.52403 0.0
C638 C 0.95971 0.59503 0.47981 0.0
C639 C 0.05492 0.51514 0.6796 0.0
C640 C 0.94972 0.4828 0.76152 0.0
C641 C 0.92132 0.50607 0.80563 0.0
C642 C 0.90518 0.49312 0.77753 0.0
C643 C 0.93337 0.47005 0.73412 0.0
C644 C 0.94351 0.50081 0.79686 0.0
C645 C 0.91123 0.4753 0.7419 0.0
C646 C 1.01011 0.54702 0.7365 0.0
C647 C 0.97322 0.47753 0.75352 0.0
H648 H 0.14285 0.55452 0.50708 0.0
H649 H 0.08907 0.58799 0.58987 0.0
H650 H 0.12887 0.58294 0.57563 0.0
H651 H 0.07667 0.53477 0.46698 0.0
H652 H 0.88787 0.4964 0.78406 0.0
H653 H 0.93771 0.45606 0.70674 0.0
H654 H 0.956 0.51091 0.81761 0.0
H655 H 0.89868 0.46538 0.72074 0.0
H656 H 0.15459 0.01478 0.35979 0.0
H657 H 0.14064 0.07642 0.27105 0.0
H658 H 0.10884 0.08203 0.33771 0.0
H659 H 0.09842 0.99806 0.38053 0.0
H660 H 0.10291 0.98607 0.45302 0.0
H661 H 0.12498 0.98707 0.39934 0.0
H662 H 0.14941 1.00755 0.47594 0.0
H663 H 0.12738 1.00664 0.52981 0.0
H664 H 0.13957 0.03256 0.50943 0.0
H665 H 0.07717 0.08015 0.41067 0.0
H666 H 0.04899 0.07145 0.48678 0.0
H667 H 0.08377 1.01165 0.53111 0.0
C668 C 0.14486 0.02946 0.35436 0.0
C669 C 0.15034 0.04522 0.31008 0.0
C670 C 0.13714 0.06426 0.30502 0.0
C671 C 0.1189 0.06755 0.34254 0.0
C672 C 0.11398 0.05173 0.38552 0.0
C673 C 0.12663 0.03311 0.3919 0.0
C674 C 0.11765 0.01863 0.44162 0.0
C675 C 0.11057 0.99613 0.41715 0.0
C676 C 0.13451 0.01621 0.4922 0.0
C677 C 0.09791 0.03194 0.46183 0.0
C678 C 0.09604 0.05093 0.42863 0.0
C679 C 0.07861 0.06541 0.43727 0.0
C680 C 0.06264 0.06031 0.48063 0.0
C681 C 0.06423 0.041 0.51554 0.0
C682 C 0.08228 0.02676 0.50606 0.0
H683 H 0.51982 0.1204 0.26903 0.0
H684 H 0.49911 0.1766 0.37387 0.0
H685 H 0.49674 0.15324 0.46328 0.0
H686 H 0.48565 0.08049 0.34217 0.0
H687 H 0.50586 0.05888 0.34088 0.0
H688 H 0.50608 0.07972 0.28381 0.0
H689 H 0.54642 0.08927 0.30905 0.0
H690 H 0.54645 0.06822 0.36551 0.0
H691 H 0.55369 0.096 0.38491 0.0
H692 H 0.49813 0.12438 0.54301 0.0
H693 H 0.50173 0.09158 0.60658 0.0
H694 H 0.52039 0.05304 0.45189 0.0
C695 C 0.51487 0.12786 0.31077 0.0
C696 C 0.50945 0.15051 0.31363 0.0
C697 C 0.5029 0.15935 0.36954 0.0
C698 C 0.50168 0.1462 0.42097 0.0
C699 C 0.50707 0.12407 0.41648 0.0
C700 C 0.51353 0.11491 0.36288 0.0
C701 C 0.51844 0.0906 0.37071 0.0
C702 C 0.50309 0.07658 0.33204 0.0
C703 C 0.54269 0.08574 0.35671 0.0
C704 C 0.51351 0.08749 0.43687 0.0
C705 C 0.50724 0.10715 0.46239 0.0
C706 C 0.50281 0.10887 0.5233 0.0
C707 C 0.50492 0.09012 0.55913 0.0
C708 C 0.51113 0.06968 0.53428 0.0
C709 C 0.51524 0.06834 0.47202 0.0
H710 H 0.3823 0.53251 0.35261 0.0
H711 H 0.39306 0.46926 0.26877 0.0
H712 H 0.42299 0.46177 0.33988 0.0
H713 H 0.43927 0.54499 0.37966 0.0
H714 H 0.43438 0.55795 0.45078 0.0
H715 H 0.41336 0.55823 0.39427 0.0
H716 H 0.38593 0.54044 0.46866 0.0
H717 H 0.40691 0.54006 0.52531 0.0
H718 H 0.39306 0.51502 0.50472 0.0
H719 H 0.45302 0.46169 0.41708 0.0
H720 H 0.48026 0.46868 0.49633 0.0
H721 H 0.44998 0.53165 0.53251 0.0
C722 C 0.39096 0.51709 0.34908 0.0
C723 C 0.3851 0.50143 0.30492 0.0
C724 C 0.39685 0.4814 0.30253 0.0
C725 C 0.41402 0.47703 0.34261 0.0
C726 C 0.41934 0.49278 0.38539 0.0
C727 C 0.40812 0.51239 0.38911 0.0
C728 C 0.41729 0.52656 0.43918 0.0
C729 C 0.42663 0.54821 0.41448 0.0
C730 C 0.39975 0.53076 0.48732 0.0
C731 C 0.43548 0.51192 0.4627 0.0
C732 C 0.4364 0.49253 0.43084 0.0
C733 C 0.45231 0.47673 0.44266 0.0
C734 C 0.46774 0.48087 0.48787 0.0
C735 C 0.46718 0.5006 0.52136 0.0
C736 C 0.45065 0.51622 0.50863 0.0
H737 H 0.99729 0.39487 0.32507 0.0
H738 H 0.06058 0.40979 0.24475 0.0
H739 H 0.06578 0.43998 0.3167 0.0
H740 H 0.98137 0.45058 0.35437 0.0
H741 H 0.96839 0.44453 0.42493 0.0
H742 H 0.96959 0.42385 0.36759 0.0
H743 H 0.98867 0.39734 0.44134 0.0
H744 H 0.98757 0.41797 0.4989 0.0
H745 H 0.01351 0.40593 0.47845 0.0
H746 H 0.06423 0.46897 0.39785 0.0
H747 H 0.05597 0.49405 0.48143 0.0
H748 H 0.99355 0.46089 0.50912 0.0
C749 C 0.01234 0.40434 0.32283 0.0
C750 C 0.02846 0.39985 0.27851 0.0
C751 C 0.04777 0.41297 0.27723 0.0
C752 C 0.05097 0.43014 0.31831 0.0
C753 C 0.03473 0.43419 0.36092 0.0
C754 C 0.01579 0.42166 0.36355 0.0
C755 C 1.00083 0.42963 0.41356 0.0
C756 C 0.97873 0.43762 0.38861 0.0
C757 C 0.99745 0.41164 0.46085 0.0
C758 C 0.01427 0.44859 0.43842 0.0
C759 C 0.03382 0.45089 0.40752 0.0
C760 C 0.04896 0.46725 0.4223 0.0
C761 C 0.04408 0.4815 0.46992 0.0
C762 C 0.0242 0.47943 0.50269 0.0
C763 C 1.00908 0.46277 0.486 0.0
H764 H 0.89311 0.98886 0.95496 0.0
H765 H 0.90284 0.05361 0.03114 0.0
H766 H 0.93351 0.06019 0.96157 0.0
H767 H 0.95205 0.97748 0.92915 0.0
H768 H 0.94729 0.9633 0.85972 0.0
H769 H 0.92658 0.96292 0.91741 0.0
H770 H 0.89814 0.97835 0.84255 0.0
H771 H 0.9188 0.97879 0.78486 0.0
H772 H 0.90414 1.00351 0.80344 0.0
H773 H 0.96149 0.06117 0.88037 0.0
H774 H 0.9854 0.05612 0.79225 0.0
H775 H 0.95958 0.99042 0.76823 0.0
C776 C 0.90177 1.00437 0.95708 0.0
C777 C 0.89557 0.02064 0.99928 0.0
C778 C 0.9074 0.04071 1.00031 0.0
C779 C 0.92486 0.04466 0.96071 0.0
C780 C 0.93063 0.02834 0.92014 0.0
C781 C 0.91958 1.00852 0.91803 0.0
C782 C 0.92908 0.99402 0.86892 0.0
C783 C 0.93935 0.9732 0.8954 0.0
C784 C 0.91149 0.98834 0.82217 0.0
C785 C 0.9467 1.00906 0.84293 0.0
C786 C 0.94731 0.02873 0.87357 0.0
C787 C 0.96134 0.04574 0.85652 0.0
C788 C 0.97486 0.04275 0.80639 0.0
C789 C 0.97454 0.02284 0.774 0.0
C790 C 0.96048 1.00564 0.79305 0.0
H791 H 0.51102 0.9107 0.01858 0.0
H792 H 0.57231 0.87955 0.96752 0.0
H793 H 0.57631 0.90568 0.88421 0.0
H794 H 0.49149 0.92175 0.87202 0.0
H795 H 0.48006 0.94815 0.88992 0.0
H796 H 0.48212 0.92742 0.94689 0.0
H797 H 0.50451 0.95422 1.01345 0.0
H798 H 0.50237 0.97502 0.9566 0.0
H799 H 0.529 0.96692 0.98367 0.0
H800 H 0.5723 0.93348 0.80107 0.0
H801 H 0.56176 0.96238 0.72924 0.0
H802 H 0.50461 0.97758 0.83716 0.0
C803 C 0.52545 0.90948 0.99045 0.0
C804 C 0.5412 0.89267 0.99976 0.0
C805 C 0.55969 0.89177 0.96103 0.0
C806 C 0.56222 0.90671 0.91363 0.0
C807 C 0.54623 0.92273 0.90521 0.0
C808 C 0.52831 0.92439 0.94291 0.0
C809 C 0.51344 0.94311 0.92362 0.0
C810 C 0.49042 0.93459 0.90716 0.0
C811 C 0.51227 0.96087 0.97225 0.0
C812 C 0.5256 0.95147 0.86876 0.0
C813 C 0.54444 0.93939 0.85879 0.0
C814 C 0.55772 0.94317 0.80893 0.0
C815 C 0.55156 0.95958 0.76824 0.0
C816 C 0.5325 0.97236 0.77787 0.0
C817 C 0.51949 0.96833 0.82921 0.0
H818 H 0.63272 0.55578 0.97492 0.0
H819 H 0.65879 0.4898 0.96347 0.0
H820 H 0.63231 0.48104 0.88384 0.0
H821 H 0.57521 0.54226 0.94591 0.0
H822 H 0.57063 0.56624 0.90039 0.0
H823 H 0.59101 0.56688 0.95851 0.0
H824 H 0.62002 0.57888 0.87979 0.0
H825 H 0.59952 0.57762 0.82194 0.0
H826 H 0.62448 0.56202 0.81476 0.0
H827 H 0.60375 0.47901 0.80607 0.0
H828 H 0.57484 0.48388 0.73108 0.0
H829 H 0.56675 0.5516 0.78682 0.0
C830 C 0.63269 0.53948 0.95574 0.0
C831 C 0.64789 0.52343 0.97545 0.0
C832 C 0.64749 0.50237 0.94885 0.0
C833 C 0.63243 0.49722 0.90372 0.0
C834 C 0.61783 0.51333 0.88494 0.0
C835 C 0.61784 0.5341 0.90958 0.0
C836 C 0.60077 0.54846 0.87885 0.0
C837 C 0.58336 0.55641 0.92361 0.0
C838 C 0.61187 0.56789 0.84694 0.0
C839 C 0.59102 0.53234 0.83401 0.0
C840 C 0.60125 0.51223 0.83862 0.0
C841 C 0.59562 0.49468 0.80197 0.0
C842 C 0.57917 0.49768 0.7592 0.0
C843 C 0.56833 0.51809 0.75285 0.0
C844 C 0.57439 0.53568 0.79106 0.0
H845 H 0.02937 0.64741 0.96596 0.0
H846 H 0.96627 0.63063 0.04469 0.0
H847 H 0.96207 0.60047 0.97227 0.0
H848 H 0.01393 0.63595 0.81178 0.0
H849 H 0.04024 0.62459 0.79193 0.0
H850 H 0.03842 0.64518 0.84948 0.0
H851 H 0.05797 0.61915 0.92358 0.0
H852 H 0.05987 0.59851 0.86626 0.0
H853 H 0.04684 0.59214 0.93655 0.0
H854 H 0.96452 0.57183 0.89126 0.0
H855 H 0.97349 0.54704 0.80786 0.0
H856 H 0.03532 0.58141 0.78132 0.0
C857 C 0.01457 0.63753 0.9677 0.0
C858 C 0.99821 0.64148 1.01177 0.0
C859 C 0.97924 0.62787 1.01242 0.0
C860 C 0.97662 0.61072 0.97107 0.0
C861 C 0.99309 0.60716 0.92882 0.0
C862 C 1.01171 0.62018 0.92669 0.0
C863 C 0.02703 0.61258 0.87696 0.0
C864 C 0.03008 0.63065 0.82975 0.0
C865 C 0.04924 0.60516 0.90237 0.0
C866 C 0.01414 0.59328 0.85174 0.0
C867 C 0.99457 0.59052 0.88224 0.0
C868 C 0.97983 0.57387 0.86717 0.0
C869 C 0.98514 0.55975 0.81969 0.0
C870 C 1.00509 0.56217 0.7874 0.0
C871 C 0.0198 0.57919 0.80425 0.0
H872 H 0.03289 0.2013 0.24827 0.0
H873 H 0.10019 0.18815 0.29964 0.0
H874 H 0.08666 0.16492 0.38327 0.0
H875 H 0.01297 0.20825 0.39236 0.0
H876 H 0.98647 0.19605 0.37829 0.0
H877 H 1.00134 0.20907 0.3184 0.0
H878 H 0.99959 0.17341 0.25546 0.0
H879 H 0.98413 0.16045 0.31441 0.0
H880 H 1.00909 0.14804 0.28744 0.0
H881 H 0.06505 0.144 0.46297 0.0
H882 H 0.03744 0.12688 0.53038 0.0
H883 H 0.98503 0.15708 0.42951 0.0
C884 C 0.04483 0.19288 0.27568 0.0
C885 C 0.06758 0.19594 0.2667 0.0
C886 C 0.0827 0.18555 0.30529 0.0
C887 C 0.07515 0.1725 0.35291 0.0
C888 C 0.0525 0.17041 0.36151 0.0
C889 C 0.03762 0.18029 0.32369 0.0
C890 C 0.01421 0.17691 0.34432 0.0
C891 C 1.00311 0.19888 0.35922 0.0
C892 C 1.00098 0.16392 0.29764 0.0
C893 C 0.01812 0.16356 0.39991 0.0
C894 C 0.04028 0.15978 0.40902 0.0
C895 C 0.04771 0.14705 0.45654 0.0
C896 C 0.03202 0.13758 0.49476 0.0
C897 C 1.00935 0.1413 0.48557 0.0
C898 C 1.00236 0.15464 0.4382 0.0
H899 H 0.3579 0.05246 0.40865 0.0
H900 H 0.37075 0.0909 0.24935 0.0
H901 H 0.41028 0.08621 0.26378 0.0
H902 H 0.41307 0.06894 0.48926 0.0
H903 H 0.4156 0.04176 0.5196 0.0
H904 H 0.3888 0.05391 0.51109 0.0
H905 H 0.37582 0.02087 0.44843 0.0
H906 H 0.40219 1.00824 0.45647 0.0
H907 H 0.3912 0.01302 0.38289 0.0
H908 H 0.44514 0.06707 0.27214 0.0
H909 H 0.4746 0.03997 0.28587 0.0
H910 H 0.44131 0.01467 0.44276 0.0
C911 C 0.36914 0.06077 0.37865 0.0
C912 C 0.36118 0.07199 0.32787 0.0
C913 C 0.37632 0.08253 0.28915 0.0
C914 C 0.39893 0.07986 0.29683 0.0
C915 C 0.40622 0.06704 0.34418 0.0
C916 C 0.39186 0.05829 0.38595 0.0
C917 C 0.40366 0.04261 0.42749 0.0
C918 C 0.40538 0.05239 0.4906 0.0
C919 C 0.39256 0.01986 0.42878 0.0
C920 C 0.42603 0.04183 0.39771 0.0
C921 C 0.42732 0.05651 0.35075 0.0
C922 C 0.44478 0.05623 0.31038 0.0
C923 C 0.46132 0.04062 0.3181 0.0
C924 C 0.46047 0.02564 0.36619 0.0
C925 C 0.44277 0.02655 0.40702 0.0
H926 H 0.47245 0.37103 0.13737 0.0
H927 H 0.44317 0.33664 0.28844 0.0
H928 H 0.45926 0.36333 0.3561 0.0
H929 H 0.52199 0.37431 0.1991 0.0
H930 H 0.52995 0.4009 0.17121 0.0
H931 H 0.51026 0.38467 0.13088 0.0
H932 H 0.48181 0.41609 0.136 0.0
H933 H 0.50166 0.43279 0.17489 0.0
H934 H 0.47492 0.42805 0.20723 0.0
H935 H 0.48511 0.38706 0.40979 0.0
H936 H 0.5166 0.40908 0.44478 0.0
H937 H 0.53285 0.42578 0.26158 0.0
C938 C 0.46892 0.36925 0.18447 0.0
C939 C 0.45663 0.35119 0.20661 0.0
C940 C 0.4521 0.35021 0.26889 0.0
C941 C 0.46143 0.36532 0.30841 0.0
C942 C 0.47532 0.38137 0.28544 0.0
C943 C 0.47882 0.38372 0.22482 0.0
C944 C 0.49723 0.39994 0.21239 0.0
C945 C 0.51595 0.38931 0.17629 0.0
C946 C 0.48837 0.42044 0.18076 0.0
C947 C 0.50439 0.40518 0.27553 0.0
C948 C 0.49112 0.39473 0.3169 0.0
C949 C 0.49529 0.39578 0.37793 0.0
C950 C 0.51328 0.40816 0.39733 0.0
C951 C 0.52704 0.41909 0.3558 0.0
C952 C 0.52257 0.41751 0.29413 0.0
H953 H 0.18181 0.50189 0.21027 0.0
H954 H 0.16508 0.43518 0.25925 0.0
H955 H 0.13778 0.44928 0.33215 0.0
H956 H 0.18404 0.52089 0.3506 0.0
H957 H 0.17338 0.54787 0.33579 0.0
H958 H 0.18715 0.53299 0.27757 0.0
H959 H 0.15313 0.53641 0.20886 0.0
H960 H 0.13936 0.55191 0.26628 0.0
H961 H 0.12658 0.52768 0.23581 0.0
H962 H 0.11577 0.47115 0.40829 0.0
H963 H 0.10204 0.49844 0.4816 0.0
H964 H 0.13643 0.55006 0.38651 0.0
C965 C 0.17159 0.4902 0.23401 0.0
C966 C 0.17504 0.46746 0.22802 0.0
C967 C 0.16226 0.45267 0.26239 0.0
C968 C 0.1468 0.46055 0.30386 0.0
C969 C 0.14456 0.4832 0.31055 0.0
C970 C 0.15659 0.49778 0.2762 0.0
C971 C 0.15379 0.52114 0.29732 0.0
C972 C 0.1759 0.53129 0.31646 0.0
C973 C 0.14254 0.53511 0.24921 0.0
C974 C 0.13887 0.51746 0.35024 0.0
C975 C 0.13324 0.49559 0.35651 0.0
C976 C 0.11999 0.48831 0.40348 0.0
C977 C 0.11238 0.50383 0.44494 0.0
C978 C 0.11851 0.52616 0.43971 0.0
C979 C 0.13179 0.533 0.39166 0.0
H980 H 0.95625 0.85319 0.93531 0.0
H981 H 0.99992 0.86575 0.08474 0.0
H982 H 0.01852 0.89434 0.02691 0.0
H983 H 0.99526 0.85125 0.83401 0.0
H984 H 0.98119 0.86421 0.77274 0.0
H985 H 0.96566 0.85064 0.83018 0.0
H986 H 0.94379 0.88615 0.85167 0.0
H987 H 0.95881 0.89976 0.79278 0.0
H988 H 0.95836 0.91132 0.86685 0.0
H989 H 0.03838 0.91409 0.94777 0.0
H990 H 0.05621 0.92592 0.85415 0.0
H991 H 1.002 0.89875 0.75241 0.0
C992 C 0.96923 0.86246 0.95664 0.0
C993 C 0.97659 0.857 1.01467 0.0
C994 C 0.99356 0.86971 0.04097 0.0
C995 C 1.00442 0.88599 1.00815 0.0
C996 C 0.9981 0.88948 0.94922 0.0
C997 C 0.98061 0.87839 0.92387 0.0
C998 C 0.97948 0.88245 0.85711 0.0
C999 C 0.98047 0.86085 0.82148 0.0
C1000 C 0.95888 0.89571 0.84118 0.0
C1001 C 1.00009 0.896 0.84834 0.0
C1002 C 1.01016 0.90047 0.90229 0.0
C1003 C 0.03035 0.91121 0.9054 0.0
C1004 C 0.04042 0.91771 0.85204 0.0
C1005 C 0.03045 0.91318 0.79629 0.0
C1006 C 1.00998 0.90229 0.79453 0.0
H1007 H 0.66634 0.9323 0.102 0.0
H1008 H 0.70868 0.93071 0.94615 0.0
H1009 H 0.67656 0.93339 0.88115 0.0
H1010 H 0.61484 0.90489 0.01974 0.0
H1011 H 0.59673 0.92227 0.06217 0.0
H1012 H 0.62146 0.91178 0.09592 0.0
H1013 H 0.63329 0.95142 0.12243 0.0
H1014 H 0.60897 0.96203 0.08837 0.0
H1015 H 0.63555 0.97156 0.06372 0.0
H1016 H 0.64438 0.95015 0.83808 0.0
H1017 H 0.61464 0.97526 0.81977 0.0
H1018 H 0.58844 0.96136 0.99728 0.0
C1019 C 0.66863 0.93136 0.05411 0.0
C1020 C 0.69001 0.93123 0.02929 0.0
C1021 C 0.69251 0.93037 0.96645 0.0
C1022 C 0.67427 0.93191 0.92893 0.0
C1023 C 0.65351 0.93374 0.95469 0.0
C1024 C 0.65041 0.93261 1.0159 0.0
C1025 C 0.62695 0.9385 0.03237 0.0
C1026 C 0.61425 0.91814 0.05382 0.0
C1027 C 0.62618 0.95698 0.07941 0.0
C1028 C 0.61847 0.94608 0.9722 0.0
C1029 C 0.63381 0.94254 0.92778 0.0
C1030 C 0.63177 0.95216 0.87176 0.0
C1031 C 0.6144 0.96666 0.86182 0.0
C1032 C 0.59877 0.97135 0.9074 0.0
C1033 C 0.60018 0.95933 0.96158 0.0
H1034 H 0.56751 0.70638 0.90887 0.0
H1035 H 0.57257 0.66133 0.05786 0.0
H1036 H 0.56136 0.63084 0.99196 0.0
H1037 H 0.52081 0.68828 0.85634 0.0
H1038 H 0.52634 0.6909 0.77752 0.0
H1039 H 0.54087 0.70784 0.82976 0.0
H1040 H 0.57813 0.69389 0.789 0.0
H1041 H 0.56371 0.67707 0.73553 0.0
H1042 H 0.58335 0.66485 0.7855 0.0
H1043 H 0.5413 0.60803 0.9193 0.0
H1044 H 0.51514 0.59422 0.84563 0.0
H1045 H 0.52442 0.65326 0.73962 0.0
C1046 C 0.56744 0.68991 0.92687 0.0
C1047 C 0.57109 0.68616 0.98834 0.0
C1048 C 0.56988 0.66452 1.01087 0.0
C1049 C 0.56368 0.6471 0.97363 0.0
C1050 C 0.55901 0.65157 0.91389 0.0
C1051 C 0.56122 0.67241 0.89028 0.0
C1052 C 0.55199 0.6736 0.82752 0.0
C1053 C 0.53393 0.69118 0.82259 0.0
C1054 C 0.5704 0.67758 0.78167 0.0
C1055 C 0.54262 0.65072 0.82147 0.0
C1056 C 0.54739 0.6381 0.87105 0.0
C1057 C 0.53813 0.61745 0.87929 0.0
C1058 C 0.52325 0.60969 0.83663 0.0
C1059 C 0.51774 0.62248 0.78579 0.0
C1060 C 0.52818 0.643 0.77763 0.0
H1061 H 0.83583 0.58514 0.94976 0.0
H1062 H 0.87651 0.58491 0.10843 0.0
H1063 H 0.90736 0.57025 0.04905 0.0
H1064 H 0.84845 0.53723 0.90206 0.0
H1065 H 0.84921 0.54232 0.82278 0.0
H1066 H 0.83298 0.55952 0.87028 0.0
H1067 H 0.85354 0.59411 0.83292 0.0
H1068 H 0.86953 0.57711 0.7834 0.0
H1069 H 0.88313 0.59508 0.83555 0.0
H1070 H 0.92919 0.5466 0.98163 0.0
H1071 H 0.94127 0.51843 0.91055 0.0
H1072 H 0.88706 0.53495 0.79333 0.0
C1073 C 0.85161 0.58335 0.97139 0.0
C1074 C 0.85378 0.58627 0.03371 0.0
C1075 C 0.87448 0.58279 0.06073 0.0
C1076 C 0.89212 0.57456 0.02723 0.0
C1077 C 0.88887 0.57026 0.96666 0.0
C1078 C 0.86926 0.57507 0.93859 0.0
C1079 C 0.86854 0.56567 0.87599 0.0
C1080 C 0.84863 0.55028 0.86738 0.0
C1081 C 0.86871 0.58409 0.82919 0.0
C1082 C 0.88992 0.55316 0.87518 0.0
C1083 C 0.90171 0.55651 0.92713 0.0
C1084 C 0.92052 0.54447 0.93988 0.0
C1085 C 0.92725 0.52844 0.89901 0.0
C1086 C 0.91519 0.52449 0.84587 0.0
C1087 C 0.89662 0.53749 0.83345 0.0
H1088 H 0.99734 0.17211 0.85807 0.0
H1089 H 0.06783 0.18009 0.87974 0.0
H1090 H 0.07394 0.14629 0.82222 0.0
H1091 H 0.99718 0.11262 0.87422 0.0
H1092 H 0.97589 0.10832 0.8196 0.0
H1093 H 0.97676 0.13346 0.86184 0.0
H1094 H 0.97759 0.1558 0.76327 0.0
H1095 H 0.9767 0.13066 0.72108 0.0
H1096 H 0.99855 0.15013 0.7084 0.0
H1097 H 0.07282 0.11195 0.75915 0.0
H1098 H 0.06422 0.07862 0.70115 0.0
H1099 H 0.99461 0.09081 0.72486 0.0
C1100 C 0.01408 0.16671 0.85132 0.0
C1101 C 0.03209 0.17928 0.8733 0.0
C1102 C 0.05368 0.17137 0.86256 0.0
C1103 C 0.05736 0.15198 0.83008 0.0
C1104 C 0.03934 0.14027 0.8085 0.0
C1105 C 0.01809 0.1472 0.81904 0.0
C1106 C 1.00167 0.13126 0.79133 0.0
C1107 C 0.98701 0.1208 0.83963 0.0
C1108 C 0.98781 0.14265 0.74317 0.0
C1109 C 0.01702 0.11439 0.76366 0.0
C1110 C 0.03869 0.12 0.7739 0.0
C1111 C 0.05588 0.10724 0.75183 0.0
C1112 C 0.05084 0.08812 0.71943 0.0
C1113 C 0.0288 0.0815 0.70993 0.0
C1114 C 1.01168 0.09516 0.73169 0.0
H1115 H 0.38027 0.0181 0.91885 0.0
H1116 H 0.34214 0.0537 0.78728 0.0
H1117 H 0.37475 0.05635 0.72237 0.0
H1118 H 0.43136 0.04877 0.89813 0.0
H1119 H 0.44859 0.02502 0.90704 0.0
H1120 H 0.42228 0.02616 0.94396 0.0
H1121 H 0.41128 0.98941 0.89337 0.0
H1122 H 0.43753 0.98845 0.85608 0.0
H1123 H 0.41256 0.98716 0.81313 0.0
H1124 H 0.4113 0.05439 0.66939 0.0
H1125 H 0.44949 0.04878 0.63451 0.0
H1126 H 0.46466 0.01528 0.80006 0.0
C1127 C 0.37883 0.02665 0.87669 0.0
C1128 C 0.35838 0.03551 0.85827 0.0
C1129 C 0.35734 0.04639 0.80228 0.0
C1130 C 0.37587 0.04811 0.76505 0.0
C1131 C 0.39559 0.03896 0.78405 0.0
C1132 C 0.39728 0.02851 0.83865 0.0
C1133 C 0.42048 0.01989 0.84776 0.0
C1134 C 0.43131 0.03061 0.90248 0.0
C1135 C 0.42045 0.99474 0.8529 0.0
C1136 C 0.43151 0.02728 0.79014 0.0
C1137 C 0.4168 0.03814 0.75384 0.0
C1138 C 0.42297 0.04602 0.69768 0.0
C1139 C 0.44469 0.04273 0.67812 0.0
C1140 C 0.46006 0.03165 0.71448 0.0
C1141 C 0.45333 0.024 0.77145 0.0
H1142 H 0.5001 0.37812 0.9126 0.0
H1143 H 0.53681 0.3379 0.78759 0.0
H1144 H 0.54038 0.36936 0.71961 0.0
H1145 H 0.4703 0.40901 0.80006 0.0
H1146 H 0.47134 0.43456 0.84027 0.0
H1147 H 0.47162 0.40902 0.88053 0.0
H1148 H 0.50768 0.42069 0.9328 0.0
H1149 H 0.50748 0.44627 0.89255 0.0
H1150 H 0.53109 0.42859 0.88816 0.0
H1151 H 0.54088 0.40491 0.66502 0.0
H1152 H 0.53789 0.44258 0.62648 0.0
H1153 H 0.50043 0.46108 0.78344 0.0
C1154 C 0.50897 0.37599 0.87104 0.0
C1155 C 0.51797 0.35524 0.85548 0.0
C1156 C 0.52937 0.35331 0.80038 0.0
C1157 C 0.53162 0.3712 0.76142 0.0
C1158 C 0.52237 0.3912 0.77753 0.0
C1159 C 0.51125 0.39382 0.83093 0.0
C1160 C 0.50272 0.41726 0.83636 0.0
C1161 C 0.4775 0.41746 0.83948 0.0
C1162 C 0.51285 0.42888 0.89071 0.0
C1163 C 0.51097 0.42731 0.778 0.0
C1164 C 0.5223 0.41188 0.74504 0.0
C1165 C 0.53197 0.4171 0.69037 0.0
C1166 C 0.5302 0.43864 0.66885 0.0
C1167 C 0.51871 0.45495 0.70136 0.0
C1168 C 0.50885 0.44903 0.7567 0.0
H1169 H 0.16033 0.5394 0.88709 0.0
H1170 H 0.1801 0.47221 0.853 0.0
H1171 H 0.14758 0.46694 0.7893 0.0
H1172 H 0.10104 0.52786 0.89309 0.0
H1173 H 0.09369 0.55324 0.85725 0.0
H1174 H 0.11833 0.55173 0.90155 0.0
H1175 H 0.14111 0.56559 0.81101 0.0
H1176 H 0.11654 0.56688 0.76644 0.0
H1177 H 0.13965 0.55095 0.74114 0.0
H1178 H 0.11339 0.46885 0.72712 0.0
H1179 H 0.07895 0.47748 0.67436 0.0
H1180 H 0.08023 0.54318 0.74865 0.0
C1181 C 0.1577 0.52349 0.86684 0.0
C1182 C 0.17311 0.50629 0.87489 0.0
C1183 C 0.16896 0.48582 0.84689 0.0
C1184 C 0.1504 0.4826 0.81074 0.0
C1185 C 0.13586 0.49994 0.80283 0.0
C1186 C 0.13913 0.51995 0.8304 0.0
C1187 C 0.12085 0.53584 0.81405 0.0
C1188 C 0.1077 0.54257 0.86981 0.0
C1189 C 0.1301 0.55601 0.78121 0.0
C1190 C 0.10702 0.52171 0.77253 0.0
C1191 C 0.11599 0.50103 0.76691 0.0
C1192 C 0.10622 0.48499 0.73131 0.0
C1193 C 0.08663 0.49006 0.70141 0.0
C1194 C 0.07679 0.51098 0.70724 0.0
C1195 C 0.08739 0.52709 0.74278 0.0
H1196 H 0.98704 0.86239 0.46917 0.0
H1197 H 0.03375 0.87645 0.32709 0.0
H1198 H 0.03974 0.91327 0.36866 0.0
H1199 H 0.96381 0.91693 0.47627 0.0
H1200 H 0.96077 0.91735 0.55638 0.0
H1201 H 0.95951 0.8917 0.51647 0.0
H1202 H 0.99 0.87629 0.58207 0.0
H1203 H 0.99288 0.90171 0.62247 0.0
H1204 H 0.01627 0.88978 0.58522 0.0
H1205 H 0.04055 0.94891 0.42345 0.0
H1206 H 0.03622 0.98114 0.48864 0.0
H1207 H 0.99043 0.94485 0.59999 0.0
C1208 C 0.99862 0.87314 0.44684 0.0
C1209 C 1.00972 0.86626 0.39397 0.0
C1210 C 0.02457 0.88117 0.36648 0.0
C1211 C 0.02828 0.90219 0.39019 0.0
C1212 C 0.01714 0.90836 0.44194 0.0
C1213 C 1.00257 0.89435 0.47008 0.0
C1214 C 0.99269 0.90538 0.52514 0.0
C1215 C 0.96771 0.908 0.51817 0.0
C1216 C 0.99829 0.89255 0.58214 0.0
C1217 C 1.00423 0.92761 0.52383 0.0
C1218 C 0.0181 0.92893 0.47495 0.0
C1219 C 0.02986 0.94799 0.46205 0.0
C1220 C 0.02727 0.96627 0.49943 0.0
C1221 C 0.01316 0.96554 0.54983 0.0
C1222 C 1.00166 0.94578 0.56251 0.0
H1223 H 0.67008 0.03991 0.4285 0.0
H1224 H 0.66202 0.97599 0.34549 0.0
H1225 H 0.62754 0.97062 0.40109 0.0
H1226 H 0.64856 0.02567 0.57243 0.0
H1227 H 0.63434 0.05121 0.58384 0.0
H1228 H 0.65857 0.0504 0.53752 0.0
H1229 H 0.63676 0.06739 0.44995 0.0
H1230 H 0.61247 0.06831 0.49611 0.0
H1231 H 0.61175 0.05436 0.42517 0.0
H1232 H 0.59458 0.97123 0.46786 0.0
H1233 H 0.5644 0.97835 0.53818 0.0
H1234 H 0.59156 0.04283 0.57567 0.0
C1235 C 0.66099 0.02487 0.42133 0.0
C1236 C 0.66922 1.00827 0.38262 0.0
C1237 C 0.65665 0.98879 0.37559 0.0
C1238 C 0.63683 0.98563 0.40674 0.0
C1239 C 0.62941 1.00214 0.44474 0.0
C1240 C 0.64096 0.02147 0.4519 0.0
C1241 C 0.62912 0.03654 0.4957 0.0
C1242 C 0.64351 0.04123 0.55063 0.0
C1243 C 0.62211 0.05792 0.46488 0.0
C1244 C 0.60923 0.02257 0.51227 0.0
C1245 C 0.60987 1.00276 0.48231 0.0
C1246 C 0.59383 0.98675 0.49114 0.0
C1247 C 0.57668 0.99101 0.53144 0.0
C1248 C 0.57533 1.01125 0.56253 0.0
C1249 C 0.59191 0.02727 0.55243 0.0
H1250 H 0.54672 0.67859 0.48007 0.0
H1251 H 0.49424 0.66791 0.35198 0.0
H1252 H 0.48611 0.6323 0.39835 0.0
H1253 H 0.56572 0.62456 0.48359 0.0
H1254 H 0.57111 0.62243 0.56257 0.0
H1255 H 0.5726 0.64868 0.52588 0.0
H1256 H 0.5441 0.66559 0.59676 0.0
H1257 H 0.54307 0.64005 0.63723 0.0
H1258 H 0.51815 0.6519 0.60854 0.0
H1259 H 0.48373 0.59757 0.45539 0.0
H1260 H 0.48883 0.56445 0.51617 0.0
H1261 H 0.54276 0.59578 0.60992 0.0
C1262 C 0.53334 0.6689 0.46217 0.0
C1263 C 0.52131 0.67626 0.41144 0.0
C1264 C 0.50411 0.66273 0.38954 0.0
C1265 C 0.49914 0.64247 0.41616 0.0
C1266 C 0.51132 0.63572 0.46542 0.0
C1267 C 0.52806 0.64845 0.48852 0.0
C1268 C 0.53909 0.6366 0.54055 0.0
C1269 C 0.56358 0.63282 0.52741 0.0
C1270 C 0.53591 0.6493 0.59923 0.0
C1271 C 0.52627 0.61505 0.54181 0.0
C1272 C 0.5101 0.61522 0.49853 0.0
C1273 C 0.49626 0.59731 0.48959 0.0
C1274 C 0.49928 0.57852 0.52456 0.0
C1275 C 0.51609 0.57746 0.56819 0.0
C1276 C 0.52952 0.59621 0.57774 0.0
H1277 H 0.86795 0.50675 0.40537 0.0
H1278 H 0.84854 0.57321 0.45007 0.0
H1279 H 0.8814 0.57714 0.51316 0.0
H1280 H 0.88935 0.49226 0.54867 0.0
H1281 H 0.91229 0.47682 0.52016 0.0
H1282 H 0.88749 0.47904 0.47681 0.0
H1283 H 0.90987 0.4946 0.3876 0.0
H1284 H 0.93473 0.49221 0.43066 0.0
H1285 H 0.92723 0.51826 0.39884 0.0
H1286 H 0.91597 0.57402 0.57306 0.0
H1287 H 0.9507 0.56439 0.62292 0.0
H1288 H 0.94878 0.50008 0.5402 0.0
C1289 C 0.87072 0.52222 0.42786 0.0
C1290 C 0.85532 0.5396 0.4229 0.0
C1291 C 0.85967 0.55947 0.45375 0.0
C1292 C 0.87843 0.56193 0.48957 0.0
C1293 C 0.89296 0.54443 0.49434 0.0
C1294 C 0.88948 0.52499 0.46405 0.0
C1295 C 0.90781 0.50876 0.47737 0.0
C1296 C 0.89868 0.48799 0.50754 0.0
C1297 C 0.92066 0.50313 0.42021 0.0
C1298 C 0.92189 0.52203 0.52036 0.0
C1299 C 0.91301 0.5426 0.52921 0.0
C1300 C 0.92305 0.55795 0.56643 0.0
C1301 C 0.9428 0.55231 0.59467 0.0
C1302 C 0.95251 0.53147 0.58572 0.0
C1303 C 0.94167 0.51605 0.54855 0.0
loop_
_geom_bond_atom_site_label_1
_geom_bond_atom_site_label_2
_geom_bond_distance
_geom_bond_site_symmetry_2
_ccdc_geom_bond_type
C0 C1 1.264 . S
C0 C5 1.479 . S
C0 C10 1.465 . S
C1 C0 1.264 . S
C1 C3 1.339 . S
C1 H28 0.931 . S
C2 C3 1.395 . S
C2 C4 1.320 . S
C3 C1 1.339 . S
C3 C2 1.395 . S
C3 H29 0.929 . S
C4 C2 1.320 . S
C4 C5 1.405 . S
C4 H30 0.930 . S
C5 C0 1.479 . S
C5 C4 1.405 . S
C5 H31 0.931 . S
U6 O7 2.454 . S
U6 O8 2.458 . S
U6 C9 2.984 . S
U6 C10 2.847 . S
U6 C23 2.882 . S
U6 O24 2.441 . S
U6 O25 2.420 . S
U6 O26 2.455 . S
U6 O27 2.449 . S
O7 U6 2.454 . S
O7 C9 1.353 . S
O8 U6 2.458 . S
O8 C9 1.286 . S
C9 U6 2.984 . S
C9 O7 1.353 . S
C9 O8 1.286 . S
C9 C11 1.363 . S
C10 C0 1.465 . S
C10 U6 2.847 . S
C10 O24 1.249 . S
C10 O25 1.202 . S
C11 C9 1.363 . S
C11 C13 1.408 . S
C11 C16 1.342 . S
C12 C13 1.310 . S
C12 C15 1.461 . S
C12 H32 0.932 . S
C13 C11 1.408 . S
C13 C12 1.310 . S
C13 H33 0.930 . S
C14 C15 1.474 . S
C14 C16 1.285 . S
C14 H34 0.929 . S
C15 C12 1.461 . S
C15 C14 1.474 . S
C16 C11 1.342 . S
C16 C14 1.285 . S
C16 H35 0.930 . S
C17 C20 1.424 . S
C17 C22 1.245 . S
C17 C23 1.428 . S
C18 C21 1.260 . S
C18 C22 1.477 1_556 S
C18 H36 0.932 . S
C19 C20 1.384 . S
C19 C21 1.479 1_554 S
C19 H37 0.929 . S
C20 C17 1.424 . S
C20 C19 1.384 . S
C20 H38 0.928 . S
C21 C18 1.260 . S
C21 C19 1.479 1_556 S
C22 C17 1.245 . S
C22 C18 1.477 1_554 S
C22 H39 0.932 . S
C23 U6 2.882 . S
C23 C17 1.428 . S
C23 O26 1.301 . S
C23 O27 1.282 . S
O24 U6 2.441 . S
O24 C10 1.249 . S
O25 U6 2.420 . S
O25 C10 1.202 . S
O26 U6 2.455 . S
O26 C23 1.301 . S
O27 U6 2.449 . S
O27 C23 1.282 . S
H28 C1 0.931 . S
H29 C3 0.929 . S
H30 C4 0.930 . S
H31 C5 0.931 . S
H32 C12 0.932 . S
H33 C13 0.930 . S
H34 C14 0.929 . S
H35 C16 0.930 . S
H36 C18 0.932 . S
H37 C19 0.929 . S
H38 C20 0.928 . S
H39 C22 0.932 . S
C40 C41 1.264 . S
C40 C45 1.479 . S
C40 C50 1.465 . S
C41 C40 1.264 . S
C41 C43 1.339 . S
C41 H68 0.931 . S
C42 C43 1.395 . S
C42 C44 1.320 . S
C43 C41 1.339 . S
C43 C42 1.395 . S
C43 H69 0.929 . S
C44 C42 1.320 . S
C44 C45 1.405 . S
C44 H70 0.930 . S
C45 C40 1.479 . S
C45 C44 1.405 . S
C45 H71 0.931 . S
U46 O47 2.454 . S
U46 O48 2.458 . S
U46 C49 2.984 . S
U46 C50 2.847 . S
U46 C63 2.882 . S
U46 O64 2.441 . S
U46 O65 2.420 . S
U46 O66 2.455 . S
U46 O67 2.449 . S
O47 U46 2.454 . S
O47 C49 1.353 . S
O48 U46 2.458 . S
O48 C49 1.286 . S
C49 U46 2.984 . S
C49 O47 1.353 . S
C49 O48 1.286 . S
C49 C51 1.363 . S
C50 C40 1.465 . S
C50 U46 2.847 . S
C50 O64 1.249 . S
C50 O65 1.202 . S
C51 C49 1.363 . S
C51 C53 1.408 . S
C51 C56 1.342 . S
C52 C53 1.310 . S
C52 C55 1.461 . S
C52 H72 0.932 . S
C53 C51 1.408 . S
C53 C52 1.310 . S
C53 H73 0.930 . S
C54 C55 1.474 . S
C54 C56 1.285 . S
C54 H74 0.929 . S
C55 C52 1.461 . S
C55 C54 1.474 . S
C56 C51 1.342 . S
C56 C54 1.285 . S
C56 H75 0.930 . S
C57 C60 1.424 . S
C57 C62 1.245 . S
C57 C63 1.428 . S
C58 C61 1.260 . S
C58 C62 1.477 1_556 S
C58 H76 0.932 . S
C59 C60 1.384 . S
C59 C61 1.479 1_554 S
C59 H77 0.929 . S
C60 C57 1.424 . S
C60 C59 1.384 . S
C60 H78 0.928 . S
C61 C58 1.260 . S
C61 C59 1.479 1_556 S
C62 C57 1.245 . S
C62 C58 1.477 1_554 S
C62 H79 0.932 . S
C63 U46 2.882 . S
C63 C57 1.428 . S
C63 O66 1.301 . S
C63 O67 1.282 . S
O64 U46 2.441 . S
O64 C50 1.249 . S
O65 U46 2.420 . S
O65 C50 1.202 . S
O66 U46 2.455 . S
O66 C63 1.301 . S
O67 U46 2.449 . S
O67 C63 1.282 . S
H68 C41 0.931 . S
H69 C43 0.929 . S
H70 C44 0.930 . S
H71 C45 0.931 . S
H72 C52 0.932 . S
H73 C53 0.930 . S
H74 C54 0.929 . S
H75 C56 0.930 . S
H76 C58 0.932 . S
H77 C59 0.929 . S
H78 C60 0.928 . S
H79 C62 0.932 . S
C80 C81 1.264 . S
C80 C85 1.479 . S
C80 C90 1.465 . S
C81 C80 1.264 . S
C81 C83 1.339 . S
C81 H108 0.931 . S
C82 C83 1.395 . S
C82 C84 1.320 . S
C83 C81 1.339 . S
C83 C82 1.395 . S
C83 H109 0.929 . S
C84 C82 1.320 . S
C84 C85 1.405 . S
C84 H110 0.930 . S
C85 C80 1.479 . S
C85 C84 1.405 . S
C85 H111 0.931 . S
U86 O87 2.454 . S
U86 O88 2.458 . S
U86 C89 2.984 . S
U86 C90 2.847 . S
U86 C103 2.882 . S
U86 O104 2.441 . S
U86 O105 2.420 . S
U86 O106 2.455 . S
U86 O107 2.449 . S
O87 U86 2.454 . S
O87 C89 1.353 . S
O88 U86 2.458 . S
O88 C89 1.286 . S
C89 U86 2.984 . S
C89 O87 1.353 . S
C89 O88 1.286 . S
C89 C91 1.363 . S
C90 C80 1.465 . S
C90 U86 2.847 . S
C90 O104 1.249 . S
C90 O105 1.202 . S
C91 C89 1.363 . S
C91 C93 1.408 . S
C91 C96 1.342 . S
C92 C93 1.310 . S
C92 C95 1.461 . S
C92 H112 0.932 . S
C93 C91 1.408 . S
C93 C92 1.310 . S
C93 H113 0.930 . S
C94 C95 1.474 . S
C94 C96 1.285 . S
C94 H114 0.929 . S
C95 C92 1.461 . S
C95 C94 1.474 . S
C96 C91 1.342 . S
C96 C94 1.285 . S
C96 H115 0.930 . S
C97 C100 1.424 . S
C97 C102 1.245 . S
C97 C103 1.428 . S
C98 C101 1.260 . S
C98 C102 1.477 1_556 S
C98 H116 0.932 . S
C99 C100 1.384 . S
C99 C101 1.479 1_554 S
C99 H117 0.929 . S
C100 C97 1.424 . S
C100 C99 1.384 . S
C100 H118 0.928 . S
C101 C98 1.260 . S
C101 C99 1.479 1_556 S
C102 C97 1.245 . S
C102 C98 1.477 1_554 S
C102 H119 0.932 . S
C103 U86 2.882 . S
C103 C97 1.428 . S
C103 O106 1.301 . S
C103 O107 1.282 . S
O104 U86 2.441 . S
O104 C90 1.249 . S
O105 U86 2.420 . S
O105 C90 1.202 . S
O106 U86 2.455 . S
O106 C103 1.301 . S
O107 U86 2.449 . S
O107 C103 1.282 . S
H108 C81 0.931 . S
H109 C83 0.929 . S
H110 C84 0.930 . S
H111 C85 0.931 . S
H112 C92 0.932 . S
H113 C93 0.930 . S
H114 C94 0.929 . S
H115 C96 0.930 . S
H116 C98 0.932 . S
H117 C99 0.929 . S
H118 C100 0.928 . S
H119 C102 0.932 . S
C120 C121 1.264 . S
C120 C125 1.479 . S
C120 C130 1.465 . S
C121 C120 1.264 . S
C121 C123 1.339 . S
C121 H148 0.931 . S
C122 C123 1.395 . S
C122 C124 1.320 . S
C123 C121 1.339 . S
C123 C122 1.395 . S
C123 H149 0.929 . S
C124 C122 1.320 . S
C124 C125 1.405 . S
C124 H150 0.930 . S
C125 C120 1.479 . S
C125 C124 1.405 . S
C125 H151 0.931 . S
U126 O127 2.454 . S
U126 O128 2.458 . S
U126 C129 2.984 . S
U126 C130 2.847 . S
U126 C143 2.882 . S
U126 O144 2.441 . S
U126 O145 2.420 . S
U126 O146 2.455 . S
U126 O147 2.449 . S
O127 U126 2.454 . S
O127 C129 1.353 . S
O128 U126 2.458 . S
O128 C129 1.286 . S
C129 U126 2.984 . S
C129 O127 1.353 . S
C129 O128 1.286 . S
C129 C131 1.363 . S
C130 C120 1.465 . S
C130 U126 2.847 . S
C130 O144 1.249 . S
C130 O145 1.202 . S
C131 C129 1.363 . S
C131 C133 1.408 . S
C131 C136 1.342 . S
C132 C133 1.310 . S
C132 C135 1.461 . S
C132 H152 0.932 . S
C133 C131 1.408 . S
C133 C132 1.310 . S
C133 H153 0.930 . S
C134 C135 1.474 . S
C134 C136 1.285 . S
C134 H154 0.929 . S
C135 C132 1.461 . S
C135 C134 1.474 . S
C136 C131 1.342 . S
C136 C134 1.285 . S
C136 H155 0.930 . S
C137 C140 1.424 . S
C137 C142 1.245 . S
C137 C143 1.428 . S
C138 C141 1.260 1_556 S
C138 C142 1.477 1_556 S
C138 H156 0.932 . S
C139 C140 1.384 . S
C139 C141 1.480 . S
C139 H157 0.929 . S
C140 C137 1.424 . S
C140 C139 1.384 . S
C140 H158 0.928 . S
C141 C138 1.260 1_554 S
C141 C139 1.480 . S
C142 C137 1.245 . S
C142 C138 1.477 1_554 S
C142 H159 0.932 . S
C143 U126 2.882 . S
C143 C137 1.428 . S
C143 O146 1.301 . S
C143 O147 1.282 . S
O144 U126 2.441 . S
O144 C130 1.249 . S
O145 U126 2.420 . S
O145 C130 1.202 . S
O146 U126 2.455 . S
O146 C143 1.301 . S
O147 U126 2.449 . S
O147 C143 1.282 . S
H148 C121 0.931 . S
H149 C123 0.929 . S
H150 C124 0.930 . S
H151 C125 0.931 . S
H152 C132 0.932 . S
H153 C133 0.930 . S
H154 C134 0.929 . S
H155 C136 0.930 . S
H156 C138 0.932 . S
H157 C139 0.929 . S
H158 C140 0.928 . S
H159 C142 0.932 . S
C160 C161 1.264 . S
C160 C165 1.479 . S
C160 C170 1.465 . S
C161 C160 1.264 . S
C161 C163 1.339 . S
C161 H188 0.931 . S
C162 C163 1.395 . S
C162 C164 1.320 . S
C163 C161 1.339 . S
C163 C162 1.395 . S
C163 H189 0.929 . S
C164 C162 1.320 . S
C164 C165 1.405 . S
C164 H190 0.930 . S
C165 C160 1.479 . S
C165 C164 1.405 . S
C165 H191 0.931 . S
U166 O167 2.454 . S
U166 O168 2.458 . S
U166 C169 2.984 . S
U166 C170 2.847 1_554 S
U166 C183 2.882 . S
U166 O184 2.441 1_554 S
U166 O185 2.420 1_554 S
U166 O186 2.455 . S
U166 O187 2.449 . S
O167 U166 2.454 . S
O167 C169 1.353 . S
O168 U166 2.458 . S
O168 C169 1.286 . S
C169 U166 2.984 . S
C169 O167 1.353 . S
C169 O168 1.286 . S
C169 C171 1.363 . S
C170 C160 1.465 . S
C170 U166 2.847 1_556 S
C170 O184 1.249 . S
C170 O185 1.202 . S
C171 C169 1.363 . S
C171 C173 1.408 . S
C171 C176 1.342 . S
C172 C173 1.310 . S
C172 C175 1.461 . S
C172 H192 0.932 . S
C173 C171 1.408 . S
C173 C172 1.310 . S
C173 H193 0.937 . S
C174 C175 1.474 . S
C174 C176 1.285 . S
C174 H194 0.929 . S
C175 C172 1.461 . S
C175 C174 1.474 . S
C176 C171 1.342 . S
C176 C174 1.285 . S
C176 H195 0.930 . S
C177 C180 1.424 . S
C177 C182 1.245 . S
C177 C183 1.428 . S
C178 C181 1.260 . S
C178 C182 1.477 . S
C178 H196 0.932 . S
C179 C180 1.384 . S
C179 C181 1.479 . S
C179 H197 0.929 . S
C180 C177 1.424 . S
C180 C179 1.384 . S
C180 H198 0.928 . S
C181 C178 1.260 . S
C181 C179 1.479 . S
C182 C177 1.245 . S
C182 C178 1.477 . S
C182 H199 0.932 . S
C183 U166 2.882 . S
C183 C177 1.428 . S
C183 O186 1.301 . S
C183 O187 1.282 . S
O184 U166 2.441 1_556 S
O184 C170 1.249 . S
O185 U166 2.420 1_556 S
O185 C170 1.202 . S
O186 U166 2.455 . S
O186 C183 1.301 . S
O187 U166 2.449 . S
O187 C183 1.282 . S
H188 C161 0.931 . S
H189 C163 0.929 . S
H190 C164 0.930 . S
H191 C165 0.931 . S
H192 C172 0.932 . S
H193 C173 0.937 . S
H194 C174 0.929 . S
H195 C176 0.930 . S
H196 C178 0.932 . S
H197 C179 0.929 . S
H198 C180 0.928 . S
H199 C182 0.932 . S
C200 C201 1.264 . S
C200 C205 1.479 . S
C200 C210 1.465 . S
C201 C200 1.264 . S
C201 C203 1.339 . S
C201 H228 0.931 . S
C202 C203 1.395 . S
C202 C204 1.320 . S
C203 C201 1.339 . S
C203 C202 1.395 . S
C203 H229 0.929 . S
C204 C202 1.320 . S
C204 C205 1.405 . S
C204 H230 0.930 . S
C205 C200 1.479 . S
C205 C204 1.405 . S
C205 H231 0.931 . S
U206 O207 2.454 . S
U206 O208 2.458 . S
U206 C209 2.984 . S
U206 C210 2.847 1_554 S
U206 C223 2.882 . S
U206 O224 2.441 1_554 S
U206 O225 2.420 1_554 S
U206 O226 2.455 . S
U206 O227 2.449 . S
O207 U206 2.454 . S
O207 C209 1.353 . S
O208 U206 2.458 . S
O208 C209 1.286 . S
C209 U206 2.984 . S
C209 O207 1.353 . S
C209 O208 1.286 . S
C209 C211 1.363 . S
C210 C200 1.465 . S
C210 U206 2.847 1_556 S
C210 O224 1.249 . S
C210 O225 1.202 . S
C211 C209 1.363 . S
C211 C213 1.408 . S
C211 C216 1.342 . S
C212 C213 1.310 . S
C212 C215 1.461 . S
C212 H232 0.932 . S
C213 C211 1.408 . S
C213 C212 1.310 . S
C213 H233 0.930 . S
C214 C215 1.474 . S
C214 C216 1.285 . S
C214 H234 0.929 . S
C215 C212 1.461 . S
C215 C214 1.474 . S
C216 C211 1.342 . S
C216 C214 1.285 . S
C216 H235 0.930 . S
C217 C220 1.424 . S
C217 C222 1.245 . S
C217 C223 1.428 . S
C218 C221 1.260 . S
C218 C222 1.477 . S
C218 H236 0.932 . S
C219 C220 1.384 . S
C219 C221 1.479 . S
C219 H237 0.929 . S
C220 C217 1.424 . S
C220 C219 1.384 . S
C220 H238 0.928 . S
C221 C218 1.260 . S
C221 C219 1.479 . S
C222 C217 1.245 . S
C222 C218 1.477 . S
C222 H239 0.932 . S
C223 U206 2.882 . S
C223 C217 1.428 . S
C223 O226 1.301 . S
C223 O227 1.282 . S
O224 U206 2.441 1_556 S
O224 C210 1.249 . S
O225 U206 2.420 1_556 S
O225 C210 1.202 . S
O226 U206 2.455 . S
O226 C223 1.301 . S
O227 U206 2.449 . S
O227 C223 1.282 . S
H228 C201 0.931 . S
H229 C203 0.929 . S
H230 C204 0.930 . S
H231 C205 0.931 . S
H232 C212 0.932 . S
H233 C213 0.930 . S
H234 C214 0.929 . S
H235 C216 0.930 . S
H236 C218 0.932 . S
H237 C219 0.929 . S
H238 C220 0.928 . S
H239 C222 0.932 . S
C240 C241 1.264 . S
C240 C245 1.479 . S
C240 C250 1.465 . S
C241 C240 1.264 . S
C241 C243 1.339 . S
C241 H268 0.931 . S
C242 C243 1.395 . S
C242 C244 1.320 . S
C243 C241 1.339 . S
C243 C242 1.395 . S
C243 H269 0.929 . S
C244 C242 1.320 . S
C244 C245 1.405 . S
C244 H270 0.930 . S
C245 C240 1.479 . S
C245 C244 1.405 . S
C245 H271 0.931 . S
U246 O247 2.454 . S
U246 O248 2.458 . S
U246 C249 2.984 . S
U246 C250 2.847 1_554 S
U246 C263 2.882 . S
U246 O264 2.441 1_554 S
U246 O265 2.420 1_554 S
U246 O266 2.455 . S
U246 O267 2.449 . S
O247 U246 2.454 . S
O247 C249 1.353 . S
O248 U246 2.458 . S
O248 C249 1.286 . S
C249 U246 2.984 . S
C249 O247 1.353 . S
C249 O248 1.286 . S
C249 C251 1.363 . S
C250 C240 1.465 . S
C250 U246 2.847 1_556 S
C250 O264 1.249 . S
C250 O265 1.202 . S
C251 C249 1.363 . S
C251 C253 1.408 . S
C251 C256 1.342 . S
C252 C253 1.310 . S
C252 C255 1.461 . S
C252 H272 0.932 . S
C253 C251 1.408 . S
C253 C252 1.310 . S
C253 H273 0.930 . S
C254 C255 1.474 . S
C254 C256 1.285 . S
C254 H274 0.929 . S
C255 C252 1.461 . S
C255 C254 1.474 . S
C256 C251 1.342 . S
C256 C254 1.285 . S
C256 H275 0.930 . S
C257 C260 1.424 . S
C257 C262 1.245 . S
C257 C263 1.428 . S
C258 C261 1.260 . S
C258 C262 1.477 . S
C258 H276 0.932 . S
C259 C260 1.384 . S
C259 C261 1.479 . S
C259 H277 0.929 . S
C260 C257 1.424 . S
C260 C259 1.384 . S
C260 H278 0.928 . S
C261 C258 1.260 . S
C261 C259 1.479 . S
C262 C257 1.245 . S
C262 C258 1.477 . S
C262 H279 0.932 . S
C263 U246 2.882 . S
C263 C257 1.428 . S
C263 O266 1.301 . S
C263 O267 1.282 . S
O264 U246 2.441 1_556 S
O264 C250 1.249 . S
O265 U246 2.420 1_556 S
O265 C250 1.202 . S
O266 U246 2.455 . S
O266 C263 1.301 . S
O267 U246 2.449 . S
O267 C263 1.282 . S
H268 C241 0.931 . S
H269 C243 0.929 . S
H270 C244 0.930 . S
H271 C245 0.931 . S
H272 C252 0.932 . S
H273 C253 0.930 . S
H274 C254 0.929 . S
H275 C256 0.930 . S
H276 C258 0.932 . S
H277 C259 0.929 . S
H278 C260 0.928 . S
H279 C262 0.932 . S
C280 C281 1.264 . S
C280 C285 1.479 . S
C280 C290 1.465 . S
C281 C280 1.264 . S
C281 C283 1.339 . S
C281 H308 0.931 . S
C282 C283 1.395 . S
C282 C284 1.320 . S
C283 C281 1.339 . S
C283 C282 1.395 . S
C283 H309 0.929 . S
C284 C282 1.320 . S
C284 C285 1.405 . S
C284 H310 0.930 . S
C285 C280 1.479 . S
C285 C284 1.405 . S
C285 H311 0.931 . S
U286 O287 2.454 . S
U286 O288 2.458 . S
U286 C289 2.984 . S
U286 C290 2.847 1_554 S
U286 C303 2.882 . S
U286 O304 2.441 1_554 S
U286 O305 2.420 1_554 S
U286 O306 2.455 . S
U286 O307 2.449 . S
O287 U286 2.454 . S
O287 C289 1.353 . S
O288 U286 2.458 . S
O288 C289 1.286 . S
C289 U286 2.984 . S
C289 O287 1.353 . S
C289 O288 1.286 . S
C289 C291 1.363 . S
C290 C280 1.465 . S
C290 U286 2.847 1_556 S
C290 O304 1.249 . S
C290 O305 1.202 . S
C291 C289 1.363 . S
C291 C293 1.408 . S
C291 C296 1.342 . S
C292 C293 1.310 . S
C292 C295 1.461 . S
C292 H312 0.932 . S
C293 C291 1.408 . S
C293 C292 1.310 . S
C293 H313 0.914 1_554 S
C294 C295 1.474 . S
C294 C296 1.285 . S
C294 H314 0.929 . S
C295 C292 1.461 . S
C295 C294 1.474 . S
C296 C291 1.342 . S
C296 C294 1.285 . S
C296 H315 0.930 . S
C297 C300 1.424 . S
C297 C302 1.245 . S
C297 C303 1.428 . S
C298 C301 1.260 . S
C298 C302 1.477 . S
C298 H316 0.932 . S
C299 C300 1.384 . S
C299 C301 1.479 . S
C299 H317 0.929 . S
C300 C297 1.424 . S
C300 C299 1.384 . S
C300 H318 0.928 . S
C301 C298 1.260 . S
C301 C299 1.479 . S
C302 C297 1.245 . S
C302 C298 1.477 . S
C302 H319 0.932 . S
C303 U286 2.882 . S
C303 C297 1.428 . S
C303 O306 1.301 . S
C303 O307 1.282 . S
O304 U286 2.441 1_556 S
O304 C290 1.249 . S
O305 U286 2.420 1_556 S
O305 C290 1.202 . S
O306 U286 2.455 . S
O306 C303 1.301 . S
O307 U286 2.449 . S
O307 C303 1.282 . S
H308 C281 0.931 . S
H309 C283 0.929 . S
H310 C284 0.930 . S
H311 C285 0.931 . S
H312 C292 0.932 . S
H313 C293 0.914 1_556 S
H314 C294 0.929 . S
H315 C296 0.930 . S
H316 C298 0.932 . S
H317 C299 0.929 . S
H318 C300 0.928 . S
H319 C302 0.932 . S
Eu320 N349 2.600 . S
Eu320 N355 2.562 . S
Eu320 O364 2.462 . S
Eu320 O365 2.373 1_545 S
Eu320 O367 2.432 . S
Eu320 O368 2.291 1_655 S
Eu320 O372 2.335 1_655 S
Eu320 O375 2.372 . S
Eu320 C384 2.787 . S
C321 N322 1.377 . S
C321 C324 1.405 . S
C321 C328 1.448 . S
N322 C321 1.377 . S
N322 C325 1.316 1_545 S
N322 Eu331 2.594 1_545 S
C323 C325 1.397 1_545 S
C323 C326 1.367 . S
C323 H343 0.931 . S
C324 C321 1.405 . S
C324 C326 1.403 . S
C324 C330 1.439 . S
C325 N322 1.316 1_565 S
C325 C323 1.397 1_565 S
C325 H336 0.930 . S
C326 C323 1.367 . S
C326 C324 1.403 . S
C326 H347 0.929 . S
C327 C328 1.430 . S
C327 C329 1.387 . S
C327 C333 1.404 . S
C328 C321 1.448 . S
C328 C327 1.430 . S
C328 N332 1.351 . S
C329 C327 1.387 . S
C329 C330 1.374 . S
C329 H344 0.931 . S
C330 C324 1.439 . S
C330 C329 1.374 . S
C330 H345 0.931 . S
Eu331 N322 2.594 1_565 S
Eu331 N332 2.562 1_565 S
Eu331 O366 2.335 . S
Eu331 O369 2.372 . S
Eu331 O370 2.462 . S
Eu331 O371 2.373 1_565 S
Eu331 O373 2.432 . S
Eu331 O374 2.291 1_465 S
Eu331 C395 2.787 . S
N332 C328 1.351 . S
N332 Eu331 2.562 1_545 S
N332 C334 1.325 . S
C333 C327 1.404 . S
C333 C335 1.366 . S
C333 H341 0.930 . S
C334 N332 1.325 . S
C334 C335 1.416 . S
C334 H340 0.929 1_455 S
C335 C333 1.366 . S
C335 C334 1.416 . S
C335 H337 0.937 . S
H336 C325 0.930 . S
H337 C335 0.937 . S
H338 C353 0.930 . S
H339 C360 0.936 1_455 S
H340 C334 0.929 1_655 S
H341 C333 0.930 . S
H342 C356 0.929 1_455 S
H343 C323 0.931 . S
H344 C329 0.931 . S
H345 C330 0.931 . S
H346 C351 0.931 . S
H347 C326 0.929 . S
H348 C359 0.930 . S
N349 Eu320 2.600 . S
N349 C350 1.365 . S
N349 C353 1.319 . S
C350 N349 1.365 . S
C350 C352 1.405 1_545 S
C350 C358 1.448 . S
C351 H346 0.931 . S
C351 C353 1.397 . S
C351 C354 1.390 . S
C352 C350 1.405 1_565 S
C352 C354 1.398 1_565 S
C352 C385 1.439 . S
C353 H338 0.930 . S
C353 N349 1.319 . S
C353 C351 1.397 . S
C354 C351 1.390 . S
C354 C352 1.398 1_545 S
C354 H361 0.915 1_545 S
N355 Eu320 2.562 . S
N355 C356 1.325 . S
N355 C358 1.351 . S
C356 H342 0.929 1_655 S
C356 N355 1.325 . S
C356 C360 1.395 1_545 S
C357 C358 1.430 1_565 S
C357 C359 1.404 . S
C357 C386 1.387 . S
C358 C350 1.448 . S
C358 N355 1.351 . S
C358 C357 1.430 1_545 S
C359 H348 0.930 . S
C359 C357 1.404 . S
C359 C360 1.383 . S
C360 H339 0.936 1_655 S
C360 C356 1.395 1_565 S
C360 C359 1.383 . S
H361 C354 0.915 1_565 S
H362 C385 0.931 . S
H363 C386 0.931 . S
O364 Eu320 2.462 . S
O364 C384 1.252 . S
O365 Eu320 2.373 1_565 S
O365 C376 1.249 . S
O366 Eu331 2.335 . S
O366 C376 1.264 1_455 S
O367 Eu320 2.432 . S
O367 C384 1.268 . S
O368 Eu320 2.291 1_455 S
O368 C383 1.255 . S
O369 Eu331 2.372 . S
O369 C383 1.257 1_565 S
O370 Eu331 2.462 . S
O370 C395 1.252 . S
O371 Eu331 2.373 1_545 S
O371 C387 1.249 . S
O372 Eu320 2.335 1_455 S
O372 C387 1.264 . S
O373 Eu331 2.432 . S
O373 C395 1.268 . S
O374 Eu331 2.291 1_645 S
O374 C394 1.255 . S
O375 Eu320 2.372 . S
O375 C394 1.257 . S
C376 O365 1.249 . S
C376 O366 1.264 1_655 S
C377 C380 1.382 . S
C377 C382 1.390 . S
C377 C384 1.506 . S
C378 C379 1.398 . S
C378 C382 1.392 . S
C379 C378 1.398 . S
C379 C381 1.372 . S
C379 H396 0.931 . S
C380 C377 1.382 . S
C380 C381 1.390 . S
C380 H397 0.931 . S
C381 C379 1.372 . S
C381 C380 1.390 . S
C381 H398 0.929 . S
C382 C377 1.390 . S
C382 C378 1.392 . S
C382 H399 0.930 1_655 S
C383 O368 1.255 . S
C383 O369 1.257 1_545 S
C384 Eu320 2.787 . S
C384 O364 1.252 . S
C384 O367 1.268 . S
C384 C377 1.506 . S
C385 C352 1.439 . S
C385 H362 0.931 . S
C385 C386 1.374 . S
C386 C357 1.387 . S
C386 H363 0.931 . S
C386 C385 1.374 . S
C387 O371 1.249 . S
C387 O372 1.264 . S
C388 C391 1.382 . S
C388 C392 1.390 . S
C388 C395 1.506 . S
C389 C390 1.398 . S
C389 C392 1.392 . S
C390 C389 1.398 . S
C390 C393 1.372 . S
C390 H400 0.931 . S
C391 C388 1.382 . S
C391 C393 1.390 . S
C391 H401 0.931 . S
C392 C388 1.390 . S
C392 C389 1.392 . S
C392 H402 0.925 . S
C393 C390 1.372 . S
C393 C391 1.390 . S
C393 H403 0.929 . S
C394 O374 1.255 . S
C394 O375 1.257 . S
C395 Eu331 2.787 . S
C395 O370 1.252 . S
C395 O373 1.268 . S
C395 C388 1.506 . S
H396 C379 0.931 . S
H397 C380 0.931 . S
H398 C381 0.929 . S
H399 C382 0.930 1_455 S
H400 C390 0.931 . S
H401 C391 0.931 . S
H402 C392 0.925 . S
H403 C393 0.929 . S
Eu404 N433 2.600 . S
Eu404 N439 2.562 . S
Eu404 O448 2.462 . S
Eu404 O449 2.373 . S
Eu404 O451 2.432 . S
Eu404 O452 2.291 . S
Eu404 O456 2.335 1_545 S
Eu404 O459 2.372 . S
Eu404 C468 2.787 . S
C405 N406 1.365 . S
C405 C408 1.405 . S
C405 C412 1.448 . S
N406 C405 1.365 . S
N406 C409 1.319 . S
N406 Eu415 2.600 . S
C407 C409 1.397 . S
C407 C410 1.367 . S
C407 H427 0.931 . S
C408 C405 1.405 . S
C408 C410 1.403 . S
C408 C414 1.439 . S
C409 N406 1.319 . S
C409 C407 1.397 . S
C409 H420 0.930 . S
C410 C407 1.367 . S
C410 C408 1.403 . S
C410 H431 0.929 . S
C411 C412 1.430 . S
C411 C413 1.387 . S
C411 C417 1.404 . S
C412 C405 1.448 . S
C412 C411 1.430 . S
C412 N416 1.351 . S
C413 C411 1.387 . S
C413 C414 1.374 . S
C413 H428 0.931 . S
C414 C408 1.439 . S
C414 C413 1.374 . S
C414 H429 0.931 . S
Eu415 N406 2.600 . S
Eu415 N416 2.562 . S
Eu415 O450 2.335 1_565 S
Eu415 O453 2.372 . S
Eu415 O454 2.462 . S
Eu415 O455 2.373 . S
Eu415 O457 2.432 . S
Eu415 O458 2.291 1_565 S
Eu415 C479 2.787 . S
N416 C412 1.351 . S
N416 Eu415 2.562 . S
N416 C418 1.325 . S
C417 C411 1.404 . S
C417 C419 1.366 . S
C417 H425 0.930 . S
C418 N416 1.325 . S
C418 C419 1.416 . S
C418 H424 0.929 . S
C419 C417 1.366 . S
C419 C418 1.416 . S
C419 H421 0.930 . S
H420 C409 0.930 . S
H421 C419 0.930 . S
H422 C437 0.930 . S
H423 C444 0.930 . S
H424 C418 0.929 . S
H425 C417 0.930 . S
H426 C440 0.929 . S
H427 C407 0.931 . S
H428 C413 0.931 . S
H429 C414 0.931 . S
H430 C435 0.931 . S
H431 C410 0.929 . S
H432 C443 0.930 . S
N433 Eu404 2.600 . S
N433 C434 1.365 . S
N433 C437 1.319 . S
C434 N433 1.365 . S
C434 C436 1.405 . S
C434 C442 1.448 . S
C435 H430 0.931 . S
C435 C437 1.397 . S
C435 C438 1.367 . S
C436 C434 1.405 . S
C436 C438 1.403 . S
C436 C469 1.439 . S
C437 H422 0.930 . S
C437 N433 1.319 . S
C437 C435 1.397 . S
C438 C435 1.367 . S
C438 C436 1.403 . S
C438 H445 0.929 . S
N439 Eu404 2.562 . S
N439 C440 1.325 . S
N439 C442 1.351 . S
C440 H426 0.929 . S
C440 N439 1.325 . S
C440 C444 1.416 . S
C441 C442 1.430 . S
C441 C443 1.404 . S
C441 C470 1.387 . S
C442 C434 1.448 . S
C442 N439 1.351 . S
C442 C441 1.430 . S
C443 H432 0.930 . S
C443 C441 1.404 . S
C443 C444 1.366 . S
C444 H423 0.930 . S
C444 C440 1.416 . S
C444 C443 1.366 . S
H445 C438 0.929 . S
H446 C469 0.931 . S
H447 C470 0.931 . S
O448 Eu404 2.462 . S
O448 C468 1.252 . S
O449 Eu404 2.373 . S
O449 C460 1.249 . S
O450 Eu415 2.335 1_545 S
O450 C460 1.264 . S
O451 Eu404 2.432 . S
O451 C468 1.268 . S
O452 Eu404 2.291 . S
O452 C467 1.233 1_545 S
O453 Eu415 2.372 . S
O453 C467 1.272 . S
O454 Eu415 2.462 . S
O454 C479 1.252 . S
O455 Eu415 2.373 . S
O455 C471 1.249 . S
O456 Eu404 2.335 1_565 S
O456 C471 1.264 . S
O457 Eu415 2.432 . S
O457 C479 1.268 . S
O458 Eu415 2.291 1_545 S
O458 C478 1.255 . S
O459 Eu404 2.372 . S
O459 C478 1.257 . S
C460 O449 1.249 . S
C460 O450 1.264 . S
C461 C464 1.382 . S
C461 C466 1.390 . S
C461 C468 1.506 . S
C462 C463 1.398 . S
C462 C466 1.392 . S
C463 C462 1.398 . S
C463 C465 1.372 . S
C463 H480 0.931 . S
C464 C461 1.382 . S
C464 C465 1.390 . S
C464 H481 0.931 . S
C465 C463 1.372 . S
C465 C464 1.390 . S
C465 H482 0.929 . S
C466 C461 1.390 . S
C466 C462 1.392 . S
C466 H483 0.930 . S
C467 O452 1.233 1_565 S
C467 O453 1.272 . S
C468 Eu404 2.787 . S
C468 O448 1.252 . S
C468 O451 1.268 . S
C468 C461 1.506 . S
C469 C436 1.439 . S
C469 H446 0.931 . S
C469 C470 1.374 . S
C470 C441 1.387 . S
C470 H447 0.931 . S
C470 C469 1.374 . S
C471 O455 1.249 . S
C471 O456 1.264 . S
C472 C475 1.382 . S
C472 C476 1.390 1_565 S
C472 C479 1.506 . S
C473 C474 1.398 1_545 S
C473 C476 1.392 . S
C474 C473 1.398 1_565 S
C474 C477 1.372 . S
C474 H484 0.931 . S
C475 C472 1.382 . S
C475 C477 1.390 . S
C475 H485 0.931 . S
C476 C472 1.390 1_545 S
C476 C473 1.392 . S
C476 H486 0.930 . S
C477 C474 1.372 . S
C477 C475 1.390 . S
C477 H487 0.929 . S
C478 O458 1.255 . S
C478 O459 1.257 . S
C479 Eu415 2.787 . S
C479 O454 1.252 . S
C479 O457 1.268 . S
C479 C472 1.506 . S
H480 C463 0.931 . S
H481 C464 0.931 . S
H482 C465 0.929 . S
H483 C466 0.930 . S
H484 C474 0.931 . S
H485 C475 0.931 . S
H486 C476 0.930 . S
H487 C477 0.929 . S
Eu488 N517 2.600 . S
Eu488 N523 2.562 . S
Eu488 O532 2.462 . S
Eu488 O533 2.373 . S
Eu488 O535 2.432 . S
Eu488 O536 2.291 . S
Eu488 O540 2.335 . S
Eu488 O543 2.372 . S
Eu488 C552 2.787 . S
C489 N490 1.365 . S
C489 C492 1.405 . S
C489 C496 1.448 . S
N490 C489 1.365 . S
N490 C493 1.319 . S
N490 Eu499 2.600 . S
C491 C493 1.397 . S
C491 C494 1.367 . S
C491 H511 0.931 . S
C492 C489 1.405 . S
C492 C494 1.403 . S
C492 C498 1.439 . S
C493 N490 1.319 . S
C493 C491 1.397 . S
C493 H504 0.930 . S
C494 C491 1.367 . S
C494 C492 1.403 . S
C494 H515 0.929 . S
C495 C496 1.430 . S
C495 C497 1.387 . S
C495 C501 1.404 . S
C496 C489 1.448 . S
C496 C495 1.430 . S
C496 N500 1.351 . S
C497 C495 1.387 . S
C497 C498 1.374 . S
C497 H512 0.931 . S
C498 C492 1.439 . S
C498 C497 1.374 . S
C498 H513 0.931 . S
Eu499 N490 2.600 . S
Eu499 N500 2.562 . S
Eu499 O534 2.335 . S
Eu499 O537 2.372 . S
Eu499 O538 2.462 . S
Eu499 O539 2.373 . S
Eu499 O541 2.432 . S
Eu499 O542 2.291 . S
Eu499 C563 2.787 . S
N500 C496 1.351 . S
N500 Eu499 2.562 . S
N500 C502 1.325 . S
C501 C495 1.404 . S
C501 C503 1.366 . S
C501 H509 0.930 . S
C502 N500 1.325 . S
C502 C503 1.416 . S
C502 H508 0.929 . S
C503 C501 1.366 . S
C503 C502 1.416 . S
C503 H505 0.930 . S
H504 C493 0.930 . S
H505 C503 0.930 . S
H506 C521 0.930 . S
H507 C528 0.930 . S
H508 C502 0.929 . S
H509 C501 0.930 . S
H510 C524 0.929 . S
H511 C491 0.931 . S
H512 C497 0.931 . S
H513 C498 0.931 . S
H514 C519 0.931 . S
H515 C494 0.929 . S
H516 C527 0.930 . S
N517 Eu488 2.600 . S
N517 C518 1.365 . S
N517 C521 1.319 . S
C518 N517 1.365 . S
C518 C520 1.405 . S
C518 C526 1.448 . S
C519 H514 0.931 . S
C519 C521 1.397 . S
C519 C522 1.367 . S
C520 C518 1.405 . S
C520 C522 1.403 . S
C520 C553 1.439 . S
C521 H506 0.930 . S
C521 N517 1.319 . S
C521 C519 1.397 . S
C522 C519 1.367 . S
C522 C520 1.403 . S
C522 H529 0.929 . S
N523 Eu488 2.562 . S
N523 C524 1.325 . S
N523 C526 1.351 . S
C524 H510 0.929 . S
C524 N523 1.325 . S
C524 C528 1.416 . S
C525 C526 1.430 . S
C525 C527 1.404 . S
C525 C554 1.387 . S
C526 C518 1.448 . S
C526 N523 1.351 . S
C526 C525 1.430 . S
C527 H516 0.930 . S
C527 C525 1.404 . S
C527 C528 1.366 . S
C528 H507 0.930 . S
C528 C524 1.416 . S
C528 C527 1.366 . S
H529 C522 0.929 . S
H530 C553 0.931 . S
H531 C554 0.931 . S
O532 Eu488 2.462 . S
O532 C552 1.252 . S
O533 Eu488 2.373 . S
O533 C544 1.249 . S
O534 Eu499 2.335 . S
O534 C544 1.264 . S
O535 Eu488 2.432 . S
O535 C552 1.268 . S
O536 Eu488 2.291 . S
O536 C551 1.255 . S
O537 Eu499 2.372 . S
O537 C551 1.257 . S
O538 Eu499 2.462 . S
O538 C563 1.252 . S
O539 Eu499 2.373 . S
O539 C555 1.249 . S
O540 Eu488 2.335 . S
O540 C555 1.264 . S
O541 Eu499 2.432 . S
O541 C563 1.268 . S
O542 Eu499 2.291 . S
O542 C562 1.255 . S
O543 Eu488 2.372 . S
O543 C562 1.257 . S
C544 O533 1.249 . S
C544 O534 1.264 . S
C545 C548 1.382 . S
C545 C550 1.390 . S
C545 C552 1.506 . S
C546 C547 1.398 . S
C546 C550 1.392 . S
C547 C546 1.398 . S
C547 C549 1.372 . S
C547 H564 0.931 . S
C548 C545 1.382 . S
C548 C549 1.390 . S
C548 H565 0.931 . S
C549 C547 1.372 . S
C549 C548 1.390 . S
C549 H566 0.929 . S
C550 C545 1.390 . S
C550 C546 1.392 . S
C550 H567 0.930 . S
C551 O536 1.255 . S
C551 O537 1.257 . S
C552 Eu488 2.787 . S
C552 O532 1.252 . S
C552 O535 1.268 . S
C552 C545 1.506 . S
C553 C520 1.439 . S
C553 H530 0.931 . S
C553 C554 1.374 . S
C554 C525 1.387 . S
C554 H531 0.931 . S
C554 C553 1.374 . S
C555 O539 1.249 . S
C555 O540 1.264 . S
C556 C559 1.382 . S
C556 C560 1.390 . S
C556 C563 1.506 . S
C557 C558 1.398 . S
C557 C560 1.392 . S
C558 C557 1.398 . S
C558 C561 1.372 . S
C558 H568 0.931 . S
C559 C556 1.382 . S
C559 C561 1.390 . S
C559 H569 0.931 . S
C560 C556 1.390 . S
C560 C557 1.392 . S
C560 H570 0.930 . S
C561 C558 1.372 . S
C561 C559 1.390 . S
C561 H571 0.929 . S
C562 O542 1.255 . S
C562 O543 1.257 . S
C563 Eu499 2.787 . S
C563 O538 1.252 . S
C563 O541 1.268 . S
C563 C556 1.506 . S
H564 C547 0.931 . S
H565 C548 0.931 . S
H566 C549 0.929 . S
H567 C550 0.930 . S
H568 C558 0.931 . S
H569 C559 0.931 . S
H570 C560 0.930 . S
H571 C561 0.929 . S
Eu572 N601 2.600 . S
Eu572 N607 2.562 . S
Eu572 O616 2.462 . S
Eu572 O617 2.373 1_455 S
Eu572 O619 2.432 . S
Eu572 O620 2.291 . S
Eu572 O624 2.335 . S
Eu572 O627 2.372 . S
Eu572 C636 2.787 . S
C573 N574 1.365 1_455 S
C573 C576 1.405 . S
C573 C580 1.448 . S
N574 C573 1.365 1_655 S
N574 C577 1.319 . S
N574 Eu583 2.600 . S
C575 C577 1.397 1_455 S
C575 C578 1.367 . S
C575 H595 0.930 1_455 S
C576 C573 1.405 . S
C576 C578 1.403 . S
C576 C582 1.439 . S
C577 N574 1.319 . S
C577 C575 1.397 1_655 S
C577 H588 0.930 . S
C578 C575 1.367 . S
C578 C576 1.403 . S
C578 H599 0.929 . S
C579 C580 1.430 . S
C579 C581 1.387 . S
C579 C585 1.404 . S
C580 C573 1.448 . S
C580 C579 1.430 . S
C580 N584 1.371 . S
C581 C579 1.387 . S
C581 C582 1.374 . S
C581 H596 0.931 . S
C582 C576 1.439 . S
C582 C581 1.374 . S
C582 H597 0.931 . S
Eu583 N574 2.600 . S
Eu583 N584 2.545 1_655 S
Eu583 O618 2.335 . S
Eu583 O621 2.372 . S
Eu583 O622 2.462 . S
Eu583 O623 2.373 1_655 S
Eu583 O625 2.432 . S
Eu583 O626 2.302 . S
Eu583 C647 2.787 . S
N584 C580 1.371 . S
N584 Eu583 2.545 1_455 S
N584 C586 1.332 . S
C585 C579 1.404 . S
C585 C587 1.366 . S
C585 H593 0.930 . S
C586 N584 1.332 . S
C586 C587 1.416 . S
C586 H592 0.929 1_455 S
C587 C585 1.366 . S
C587 C586 1.416 . S
C587 H589 0.930 . S
H588 C577 0.930 . S
H589 C587 0.930 . S
H590 C605 0.930 . S
H591 C612 0.930 . S
H592 C586 0.929 1_655 S
H593 C585 0.930 . S
H594 C608 0.929 . S
H595 C575 0.930 1_655 S
H596 C581 0.931 . S
H597 C582 0.931 . S
H598 C603 0.931 . S
H599 C578 0.929 . S
H600 C611 0.930 . S
N601 Eu572 2.600 . S
N601 C602 1.365 . S
N601 C605 1.319 . S
C602 N601 1.365 . S
C602 C604 1.405 1_455 S
C602 C610 1.448 . S
C603 H598 0.931 . S
C603 C605 1.397 . S
C603 C606 1.348 1_455 S
C604 C602 1.405 1_655 S
C604 C606 1.410 . S
C604 C637 1.439 . S
C605 H590 0.930 . S
C605 N601 1.319 . S
C605 C603 1.397 . S
C606 C603 1.348 1_655 S
C606 C604 1.410 . S
C606 H613 0.944 . S
N607 Eu572 2.562 . S
N607 C608 1.325 . S
N607 C610 1.351 . S
C608 H594 0.929 . S
C608 N607 1.325 . S
C608 C612 1.416 1_455 S
C609 C610 1.430 1_655 S
C609 C611 1.404 . S
C609 C638 1.387 . S
C610 C602 1.448 . S
C610 N607 1.351 . S
C610 C609 1.430 1_455 S
C611 H600 0.930 . S
C611 C609 1.404 . S
C611 C612 1.366 . S
C612 H591 0.930 . S
C612 C608 1.416 1_655 S
C612 C611 1.366 . S
H613 C606 0.944 . S
H614 C637 0.931 . S
H615 C638 0.931 . S
O616 Eu572 2.462 . S
O616 C636 1.252 . S
O617 Eu572 2.373 1_655 S
O617 C628 1.249 . S
O618 Eu583 2.335 . S
O618 C628 1.264 . S
O619 Eu572 2.432 . S
O619 C636 1.268 . S
O620 Eu572 2.291 . S
O620 C635 1.255 . S
O621 Eu583 2.372 . S
O621 C635 1.257 1_655 S
O622 Eu583 2.462 . S
O622 C647 1.252 . S
O623 Eu583 2.373 1_455 S
O623 C639 1.249 . S
O624 Eu572 2.335 . S
O624 C639 1.264 . S
O625 Eu583 2.432 . S
O625 C647 1.268 . S
O626 Eu583 2.302 . S
O626 C646 1.248 1_655 S
O627 Eu572 2.372 . S
O627 C646 1.257 . S
C628 O617 1.249 . S
C628 O618 1.264 . S
C629 C632 1.382 . S
C629 C634 1.390 . S
C629 C636 1.506 . S
C630 C631 1.398 . S
C630 C634 1.392 . S
C631 C630 1.398 . S
C631 C633 1.372 . S
C631 H648 0.931 . S
C632 C629 1.382 . S
C632 C633 1.390 . S
C632 H649 0.931 . S
C633 C631 1.372 . S
C633 C632 1.390 . S
C633 H650 0.929 . S
C634 C629 1.390 . S
C634 C630 1.392 . S
C634 H651 0.930 . S
C635 O620 1.255 . S
C635 O621 1.257 1_455 S
C636 Eu572 2.787 . S
C636 O616 1.252 . S
C636 O619 1.268 . S
C636 C629 1.506 . S
C637 C604 1.439 . S
C637 H614 0.931 . S
C637 C638 1.374 . S
C638 C609 1.387 . S
C638 H615 0.931 . S
C638 C637 1.374 . S
C639 O623 1.249 . S
C639 O624 1.264 . S
C640 C643 1.382 . S
C640 C644 1.390 . S
C640 C647 1.506 . S
C641 C642 1.398 . S
C641 C644 1.392 . S
C642 C641 1.398 . S
C642 C645 1.372 . S
C642 H652 0.931 . S
C643 C640 1.382 . S
C643 C645 1.390 . S
C643 H653 0.931 . S
C644 C640 1.390 . S
C644 C641 1.392 . S
C644 H654 0.930 . S
C645 C642 1.372 . S
C645 C643 1.390 . S
C645 H655 0.929 . S
C646 O626 1.248 1_455 S
C646 O627 1.257 . S
C647 Eu583 2.787 . S
C647 O622 1.252 . S
C647 O625 1.268 . S
C647 C640 1.506 . S
H648 C631 0.931 . S
H649 C632 0.931 . S
H650 C633 0.929 . S
H651 C634 0.930 . S
H652 C642 0.931 . S
H653 C643 0.931 . S
H654 C644 0.930 . S
H655 C645 0.929 . S
H656 C668 0.930 . S
H657 C670 0.930 . S
H658 C671 0.930 . S
H659 C675 0.959 1_545 S
H660 C675 0.959 . S
H661 C675 0.961 . S
H662 C676 0.960 . S
H663 C676 0.961 . S
H664 C676 0.959 . S
H665 C679 0.929 . S
H666 C680 0.931 . S
H667 C682 0.930 1_565 S
C668 H656 0.930 . S
C668 C669 1.399 . S
C668 C673 1.399 . S
C669 C668 1.399 . S
C669 C670 1.376 . S
C670 H657 0.930 . S
C670 C669 1.376 . S
C670 C671 1.388 . S
C671 H658 0.930 . S
C671 C670 1.388 . S
C671 C672 1.390 . S
C672 C671 1.390 . S
C672 C673 1.394 . S
C672 C678 1.465 . S
C673 C668 1.399 . S
C673 C672 1.394 . S
C673 C674 1.516 . S
C674 C673 1.516 . S
C674 C675 1.502 1_545 S
C674 C676 1.561 1_545 S
C674 C677 1.526 . S
C675 H659 0.959 1_565 S
C675 H660 0.959 . S
C675 H661 0.961 . S
C675 C674 1.502 1_565 S
C676 H662 0.960 . S
C676 H663 0.961 . S
C676 H664 0.959 . S
C676 C674 1.561 1_565 S
C677 C674 1.526 . S
C677 C678 1.396 . S
C677 C682 1.390 . S
C678 C672 1.465 . S
C678 C677 1.396 . S
C678 C679 1.399 . S
C679 H665 0.929 . S
C679 C678 1.399 . S
C679 C680 1.385 . S
C680 H666 0.931 . S
C680 C679 1.385 . S
C680 C681 1.389 . S
C681 C680 1.389 . S
C681 C682 1.387 . S
C682 H667 0.930 1_545 S
C682 C677 1.390 . S
C682 C681 1.387 . S
H683 C695 0.930 . S
H684 C697 0.930 . S
H685 C698 0.930 . S
H686 C702 0.959 . S
H687 C702 0.959 . S
H688 C702 0.961 . S
H689 C703 0.960 . S
H690 C703 0.961 . S
H691 C703 0.959 . S
H692 C706 0.929 . S
H693 C707 0.931 . S
H694 C709 0.930 . S
C695 H683 0.930 . S
C695 C696 1.399 . S
C695 C700 1.399 . S
C696 C695 1.399 . S
C696 C697 1.376 . S
C697 H684 0.930 . S
C697 C696 1.376 . S
C697 C698 1.388 . S
C698 H685 0.930 . S
C698 C697 1.388 . S
C698 C699 1.390 . S
C699 C698 1.390 . S
C699 C700 1.394 . S
C699 C705 1.465 . S
C700 C695 1.399 . S
C700 C699 1.394 . S
C700 C701 1.516 . S
C701 C700 1.516 . S
C701 C702 1.502 . S
C701 C703 1.561 . S
C701 C704 1.526 . S
C702 H686 0.959 . S
C702 H687 0.959 . S
C702 H688 0.961 . S
C702 C701 1.502 . S
C703 H689 0.960 . S
C703 H690 0.961 . S
C703 H691 0.959 . S
C703 C701 1.561 . S
C704 C701 1.526 . S
C704 C705 1.396 . S
C704 C709 1.390 . S
C705 C699 1.465 . S
C705 C704 1.396 . S
C705 C706 1.399 . S
C706 H692 0.929 . S
C706 C705 1.399 . S
C706 C707 1.385 . S
C707 H693 0.931 . S
C707 C706 1.385 . S
C707 C708 1.389 . S
C708 C707 1.389 . S
C708 C709 1.387 . S
C709 H694 0.930 . S
C709 C704 1.390 . S
C709 C708 1.387 . S
H710 C722 0.930 . S
H711 C724 0.930 . S
H712 C725 0.930 . S
H713 C729 0.959 . S
H714 C729 0.959 . S
H715 C729 0.961 . S
H716 C730 0.960 . S
H717 C730 0.961 . S
H718 C730 0.959 . S
H719 C733 0.929 . S
H720 C734 0.931 . S
H721 C736 0.930 . S
C722 H710 0.930 . S
C722 C723 1.399 . S
C722 C727 1.399 . S
C723 C722 1.399 . S
C723 C724 1.376 . S
C724 H711 0.930 . S
C724 C723 1.376 . S
C724 C725 1.388 . S
C725 H712 0.930 . S
C725 C724 1.388 . S
C725 C726 1.390 . S
C726 C725 1.390 . S
C726 C727 1.394 . S
C726 C732 1.465 . S
C727 C722 1.399 . S
C727 C726 1.394 . S
C727 C728 1.516 . S
C728 C727 1.516 . S
C728 C729 1.502 . S
C728 C730 1.561 . S
C728 C731 1.526 . S
C729 H713 0.959 . S
C729 H714 0.959 . S
C729 H715 0.961 . S
C729 C728 1.502 . S
C730 H716 0.960 . S
C730 H717 0.961 . S
C730 H718 0.959 . S
C730 C728 1.561 . S
C731 C728 1.526 . S
C731 C732 1.396 . S
C731 C736 1.390 . S
C732 C726 1.465 . S
C732 C731 1.396 . S
C732 C733 1.399 . S
C733 H719 0.929 . S
C733 C732 1.399 . S
C733 C734 1.385 . S
C734 H720 0.931 . S
C734 C733 1.385 . S
C734 C735 1.389 . S
C735 C734 1.389 . S
C735 C736 1.387 . S
C736 H721 0.930 . S
C736 C731 1.390 . S
C736 C735 1.387 . S
H737 C749 0.930 . S
H738 C751 0.930 . S
H739 C752 0.930 . S
H740 C756 0.959 . S
H741 C756 0.959 . S
H742 C756 0.961 . S
H743 C757 0.960 . S
H744 C757 0.953 1_655 S
H745 C757 0.959 . S
H746 C760 0.929 . S
H747 C761 0.931 . S
H748 C763 0.930 1_655 S
C749 H737 0.930 . S
C749 C750 1.399 . S
C749 C754 1.399 . S
C750 C749 1.399 . S
C750 C751 1.376 . S
C751 H738 0.930 . S
C751 C750 1.376 . S
C751 C752 1.388 . S
C752 H739 0.930 . S
C752 C751 1.388 . S
C752 C753 1.390 . S
C753 C752 1.390 . S
C753 C754 1.394 . S
C753 C759 1.465 . S
C754 C749 1.399 . S
C754 C753 1.394 . S
C754 C755 1.516 . S
C755 C754 1.516 . S
C755 C756 1.502 1_455 S
C755 C757 1.561 . S
C755 C758 1.526 . S
C756 H740 0.959 . S
C756 H741 0.959 . S
C756 H742 0.961 . S
C756 C755 1.502 1_655 S
C757 H743 0.960 . S
C757 H744 0.953 1_455 S
C757 H745 0.959 . S
C757 C755 1.561 . S
C758 C755 1.526 . S
C758 C759 1.396 . S
C758 C763 1.390 . S
C759 C753 1.465 . S
C759 C758 1.396 . S
C759 C760 1.399 . S
C760 H746 0.929 . S
C760 C759 1.399 . S
C760 C761 1.385 . S
C761 H747 0.931 . S
C761 C760 1.385 . S
C761 C762 1.389 . S
C762 C761 1.389 . S
C762 C763 1.387 . S
C763 H748 0.930 1_455 S
C763 C758 1.390 . S
C763 C762 1.387 . S
H764 C776 0.930 . S
H765 C778 0.930 1_545 S
H766 C779 0.930 . S
H767 C783 0.959 . S
H768 C783 0.959 . S
H769 C783 0.961 . S
H770 C784 0.960 . S
H771 C784 0.961 . S
H772 C784 0.959 . S
H773 C787 0.929 . S
H774 C788 0.931 . S
H775 C790 0.930 . S
C776 H764 0.930 . S
C776 C777 1.399 . S
C776 C781 1.399 1_554 S
C777 C776 1.399 . S
C777 C778 1.376 . S
C778 H765 0.930 1_565 S
C778 C777 1.376 . S
C778 C779 1.388 1_564 S
C779 H766 0.930 . S
C779 C778 1.388 1_546 S
C779 C780 1.390 1_545 S
C780 C779 1.390 1_565 S
C780 C781 1.394 . S
C780 C786 1.465 . S
C781 C776 1.399 1_556 S
C781 C780 1.394 . S
C781 C782 1.516 . S
C782 C781 1.516 . S
C782 C783 1.502 . S
C782 C784 1.561 . S
C782 C785 1.526 . S
C783 H767 0.959 . S
C783 H768 0.959 . S
C783 H769 0.961 . S
C783 C782 1.502 . S
C784 H770 0.960 . S
C784 H771 0.961 . S
C784 H772 0.959 . S
C784 C782 1.561 . S
C785 C782 1.526 . S
C785 C786 1.396 . S
C785 C790 1.390 . S
C786 C780 1.465 . S
C786 C785 1.396 . S
C786 C787 1.399 1_565 S
C787 H773 0.929 . S
C787 C786 1.399 1_545 S
C787 C788 1.385 . S
C788 H774 0.931 . S
C788 C787 1.385 . S
C788 C789 1.389 1_545 S
C789 C788 1.389 1_565 S
C789 C790 1.387 . S
C790 H775 0.930 . S
C790 C785 1.390 . S
C790 C789 1.387 . S
H791 C803 0.930 . S
H792 C805 0.930 . S
H793 C806 0.930 . S
H794 C810 0.959 . S
H795 C810 0.959 . S
H796 C810 0.961 1_554 S
H797 C811 0.960 1_554 S
H798 C811 0.961 . S
H799 C811 0.959 . S
H800 C814 0.929 . S
H801 C815 0.931 . S
H802 C817 0.930 . S
C803 H791 0.930 . S
C803 C804 1.399 . S
C803 C808 1.399 1_554 S
C804 C803 1.399 . S
C804 C805 1.376 . S
C805 H792 0.930 . S
C805 C804 1.376 . S
C805 C806 1.388 1_554 S
C806 H793 0.930 . S
C806 C805 1.388 1_556 S
C806 C807 1.390 . S
C807 C806 1.390 . S
C807 C808 1.394 . S
C807 C813 1.465 . S
C808 C803 1.399 1_556 S
C808 C807 1.394 . S
C808 C809 1.516 . S
C809 C808 1.516 . S
C809 C810 1.502 . S
C809 C811 1.561 . S
C809 C812 1.526 . S
C810 H794 0.959 . S
C810 H795 0.959 . S
C810 H796 0.961 1_556 S
C810 C809 1.502 . S
C811 H797 0.960 1_556 S
C811 H798 0.961 . S
C811 H799 0.959 . S
C811 C809 1.561 . S
C812 C809 1.526 . S
C812 C813 1.396 . S
C812 C817 1.390 . S
C813 C807 1.465 . S
C813 C812 1.396 . S
C813 C814 1.399 . S
C814 H800 0.929 . S
C814 C813 1.399 . S
C814 C815 1.385 . S
C815 H801 0.931 . S
C815 C814 1.385 . S
C815 C816 1.389 . S
C816 C815 1.389 . S
C816 C817 1.387 . S
C817 H802 0.930 . S
C817 C812 1.390 . S
C817 C816 1.387 . S
H818 C830 0.930 . S
H819 C832 0.930 . S
H820 C833 0.930 . S
H821 C837 0.959 . S
H822 C837 0.959 . S
H823 C837 0.961 . S
H824 C838 0.960 . S
H825 C838 0.961 . S
H826 C838 0.959 . S
H827 C841 0.929 . S
H828 C842 0.931 . S
H829 C844 0.930 . S
C830 H818 0.930 . S
C830 C831 1.399 . S
C830 C835 1.399 1_554 S
C831 C830 1.399 . S
C831 C832 1.376 . S
C832 H819 0.930 . S
C832 C831 1.376 . S
C832 C833 1.388 1_554 S
C833 H820 0.930 . S
C833 C832 1.388 1_556 S
C833 C834 1.390 . S
C834 C833 1.390 . S
C834 C835 1.394 . S
C834 C840 1.465 . S
C835 C830 1.399 1_556 S
C835 C834 1.394 . S
C835 C836 1.516 . S
C836 C835 1.516 . S
C836 C837 1.502 . S
C836 C838 1.561 . S
C836 C839 1.526 . S
C837 H821 0.959 . S
C837 H822 0.959 . S
C837 H823 0.961 . S
C837 C836 1.502 . S
C838 H824 0.960 . S
C838 H825 0.961 . S
C838 H826 0.959 . S
C838 C836 1.561 . S
C839 C836 1.526 . S
C839 C840 1.396 . S
C839 C844 1.390 . S
C840 C834 1.465 . S
C840 C839 1.396 . S
C840 C841 1.399 . S
C841 H827 0.929 . S
C841 C840 1.399 . S
C841 C842 1.385 . S
C842 H828 0.931 . S
C842 C841 1.385 . S
C842 C843 1.389 . S
C843 C842 1.389 . S
C843 C844 1.387 . S
C844 H829 0.930 . S
C844 C839 1.390 . S
C844 C843 1.387 . S
H845 C857 0.930 . S
H846 C859 0.930 . S
H847 C860 0.930 . S
H848 C864 0.959 . S
H849 C864 0.959 . S
H850 C864 0.961 . S
H851 C865 0.960 . S
H852 C865 0.961 . S
H853 C865 0.959 . S
H854 C868 0.929 . S
H855 C869 0.931 . S
H856 C871 0.930 1_455 S
C857 H845 0.930 . S
C857 C858 1.399 . S
C857 C862 1.399 1_554 S
C858 C857 1.399 . S
C858 C859 1.376 . S
C859 H846 0.930 . S
C859 C858 1.376 . S
C859 C860 1.388 . S
C860 H847 0.930 . S
C860 C859 1.388 . S
C860 C861 1.390 1_554 S
C861 C860 1.390 1_556 S
C861 C862 1.394 . S
C861 C867 1.465 . S
C862 C857 1.399 1_556 S
C862 C861 1.394 . S
C862 C863 1.516 . S
C863 C862 1.516 . S
C863 C864 1.502 . S
C863 C865 1.561 1_655 S
C863 C866 1.526 . S
C864 H848 0.959 . S
C864 H849 0.959 . S
C864 H850 0.961 . S
C864 C863 1.502 . S
C865 H851 0.960 . S
C865 H852 0.961 . S
C865 H853 0.959 . S
C865 C863 1.561 1_455 S
C866 C863 1.526 . S
C866 C867 1.396 . S
C866 C871 1.390 . S
C867 C861 1.465 . S
C867 C866 1.396 . S
C867 C868 1.399 . S
C868 H854 0.929 . S
C868 C867 1.399 . S
C868 C869 1.385 . S
C869 H855 0.931 . S
C869 C868 1.385 . S
C869 C870 1.389 . S
C870 C869 1.389 . S
C870 C871 1.387 . S
C871 H856 0.930 1_655 S
C871 C866 1.390 . S
C871 C870 1.387 . S
H872 C884 0.930 . S
H873 C886 0.930 . S
H874 C887 0.930 . S
H875 C891 0.959 . S
H876 C891 0.959 . S
H877 C891 0.961 . S
H878 C892 0.962 . S
H879 C892 0.961 1_655 S
H880 C892 0.959 . S
H881 C895 0.929 . S
H882 C896 0.931 . S
H883 C898 0.930 . S
C884 H872 0.930 . S
C884 C885 1.399 . S
C884 C889 1.399 . S
C885 C884 1.399 . S
C885 C886 1.376 . S
C886 H873 0.930 . S
C886 C885 1.376 . S
C886 C887 1.388 . S
C887 H874 0.930 . S
C887 C886 1.388 . S
C887 C888 1.390 . S
C888 C887 1.390 . S
C888 C889 1.394 . S
C888 C894 1.465 . S
C889 C884 1.399 . S
C889 C888 1.394 . S
C889 C890 1.516 . S
C890 C889 1.516 . S
C890 C891 1.502 1_455 S
C890 C892 1.561 . S
C890 C893 1.526 . S
C891 H875 0.959 . S
C891 H876 0.959 . S
C891 H877 0.961 . S
C891 C890 1.502 1_655 S
C892 H878 0.962 . S
C892 H879 0.961 1_455 S
C892 H880 0.959 . S
C892 C890 1.561 . S
C893 C890 1.526 . S
C893 C894 1.396 . S
C893 C898 1.390 1_455 S
C894 C888 1.465 . S
C894 C893 1.396 . S
C894 C895 1.399 . S
C895 H881 0.929 . S
C895 C894 1.399 . S
C895 C896 1.385 . S
C896 H882 0.931 . S
C896 C895 1.385 . S
C896 C897 1.389 . S
C897 C896 1.389 . S
C897 C898 1.387 1_455 S
C898 H883 0.930 . S
C898 C893 1.390 1_655 S
C898 C897 1.387 1_655 S
H899 C911 0.930 . S
H900 C913 0.930 . S
H901 C914 0.930 . S
H902 C918 0.959 . S
H903 C918 0.959 . S
H904 C918 0.961 . S
H905 C919 0.960 . S
H906 C919 0.961 1_565 S
H907 C919 0.959 1_565 S
H908 C922 0.929 . S
H909 C923 0.931 . S
H910 C925 0.930 . S
C911 H899 0.930 . S
C911 C912 1.399 . S
C911 C916 1.399 . S
C912 C911 1.399 . S
C912 C913 1.376 . S
C913 H900 0.930 . S
C913 C912 1.376 . S
C913 C914 1.388 . S
C914 H901 0.930 . S
C914 C913 1.388 . S
C914 C915 1.390 . S
C915 C914 1.390 . S
C915 C916 1.394 . S
C915 C921 1.465 . S
C916 C911 1.399 . S
C916 C915 1.394 . S
C916 C917 1.516 . S
C917 C916 1.516 . S
C917 C918 1.502 . S
C917 C919 1.561 . S
C917 C920 1.526 . S
C918 H902 0.959 . S
C918 H903 0.959 . S
C918 H904 0.961 . S
C918 C917 1.502 . S
C919 H905 0.960 . S
C919 H906 0.961 1_545 S
C919 H907 0.959 1_545 S
C919 C917 1.561 . S
C920 C917 1.526 . S
C920 C921 1.396 . S
C920 C925 1.390 . S
C921 C915 1.465 . S
C921 C920 1.396 . S
C921 C922 1.399 . S
C922 H908 0.929 . S
C922 C921 1.399 . S
C922 C923 1.385 . S
C923 H909 0.931 . S
C923 C922 1.385 . S
C923 C924 1.389 . S
C924 C923 1.389 . S
C924 C925 1.387 . S
C925 H910 0.930 . S
C925 C920 1.390 . S
C925 C924 1.387 . S
H926 C938 0.930 . S
H927 C940 0.930 . S
H928 C941 0.930 . S
H929 C945 0.959 . S
H930 C945 0.959 . S
H931 C945 0.961 . S
H932 C946 0.960 . S
H933 C946 0.961 . S
H934 C946 0.959 . S
H935 C949 0.929 . S
H936 C950 0.931 . S
H937 C952 0.930 . S
C938 H926 0.930 . S
C938 C939 1.399 . S
C938 C943 1.399 . S
C939 C938 1.399 . S
C939 C940 1.376 . S
C940 H927 0.930 . S
C940 C939 1.376 . S
C940 C941 1.388 . S
C941 H928 0.930 . S
C941 C940 1.388 . S
C941 C942 1.390 . S
C942 C941 1.390 . S
C942 C943 1.394 . S
C942 C948 1.465 . S
C943 C938 1.399 . S
C943 C942 1.394 . S
C943 C944 1.516 . S
C944 C943 1.516 . S
C944 C945 1.502 . S
C944 C946 1.561 . S
C944 C947 1.526 . S
C945 H929 0.959 . S
C945 H930 0.959 . S
C945 H931 0.961 . S
C945 C944 1.502 . S
C946 H932 0.960 . S
C946 H933 0.961 . S
C946 H934 0.959 . S
C946 C944 1.561 . S
C947 C944 1.526 . S
C947 C948 1.396 . S
C947 C952 1.390 . S
C948 C942 1.465 . S
C948 C947 1.396 . S
C948 C949 1.399 . S
C949 H935 0.929 . S
C949 C948 1.399 . S
C949 C950 1.385 . S
C950 H936 0.931 . S
C950 C949 1.385 . S
C950 C951 1.389 . S
C951 C950 1.389 . S
C951 C952 1.387 . S
C952 H937 0.930 . S
C952 C947 1.390 . S
C952 C951 1.387 . S
H953 C965 0.930 . S
H954 C967 0.930 . S
H955 C968 0.930 . S
H956 C972 0.959 . S
H957 C972 0.959 . S
H958 C972 0.961 . S
H959 C973 0.960 . S
H960 C973 0.961 . S
H961 C973 0.959 . S
H962 C976 0.929 . S
H963 C977 0.931 . S
H964 C979 0.930 . S
C965 H953 0.930 . S
C965 C966 1.399 . S
C965 C970 1.399 . S
C966 C965 1.399 . S
C966 C967 1.376 . S
C967 H954 0.930 . S
C967 C966 1.376 . S
C967 C968 1.388 . S
C968 H955 0.930 . S
C968 C967 1.388 . S
C968 C969 1.390 . S
C969 C968 1.390 . S
C969 C970 1.394 . S
C969 C975 1.465 . S
C970 C965 1.399 . S
C970 C969 1.394 . S
C970 C971 1.516 . S
C971 C970 1.516 . S
C971 C972 1.502 . S
C971 C973 1.561 . S
C971 C974 1.526 . S
C972 H956 0.959 . S
C972 H957 0.959 . S
C972 H958 0.961 . S
C972 C971 1.502 . S
C973 H959 0.960 . S
C973 H960 0.961 . S
C973 H961 0.959 . S
C973 C971 1.561 . S
C974 C971 1.526 . S
C974 C975 1.396 . S
C974 C979 1.390 . S
C975 C969 1.465 . S
C975 C974 1.396 . S
C975 C976 1.399 . S
C976 H962 0.929 . S
C976 C975 1.399 . S
C976 C977 1.385 . S
C977 H963 0.931 . S
C977 C976 1.385 . S
C977 C978 1.389 . S
C978 C977 1.389 . S
C978 C979 1.387 . S
C979 H964 0.930 . S
C979 C974 1.390 . S
C979 C978 1.387 . S
H980 C992 0.930 . S
H981 C994 0.930 . S
H982 C995 0.897 1_455 S
H983 C999 0.959 . S
H984 C999 0.959 . S
H985 C999 0.961 . S
H986 C1000 0.960 . S
H987 C1000 0.961 . S
H988 C1000 0.959 . S
H989 C1003 0.929 . S
H990 C1004 0.931 . S
H991 C1006 0.930 . S
C992 H980 0.930 . S
C992 C993 1.399 . S
C992 C997 1.399 . S
C993 C992 1.399 . S
C993 C994 1.376 1_556 S
C994 H981 0.930 . S
C994 C993 1.376 1_554 S
C994 C995 1.388 . S
C995 H982 0.897 1_655 S
C995 C994 1.388 . S
C995 C996 1.390 1_554 S
C996 C995 1.390 1_556 S
C996 C997 1.394 . S
C996 C1002 1.465 . S
C997 C992 1.399 . S
C997 C996 1.394 . S
C997 C998 1.516 . S
C998 C997 1.516 . S
C998 C999 1.502 . S
C998 C1000 1.561 . S
C998 C1001 1.526 . S
C999 H983 0.959 . S
C999 H984 0.959 . S
C999 H985 0.961 . S
C999 C998 1.502 . S
C1000 H986 0.960 . S
C1000 H987 0.961 . S
C1000 H988 0.959 . S
C1000 C998 1.561 . S
C1001 C998 1.526 . S
C1001 C1002 1.396 . S
C1001 C1006 1.390 . S
C1002 C996 1.465 . S
C1002 C1001 1.396 . S
C1002 C1003 1.399 1_655 S
C1003 H989 0.929 . S
C1003 C1002 1.399 1_455 S
C1003 C1004 1.385 . S
C1004 H990 0.931 . S
C1004 C1003 1.385 . S
C1004 C1005 1.389 . S
C1005 C1004 1.389 . S
C1005 C1006 1.387 1_455 S
C1006 H991 0.930 . S
C1006 C1001 1.390 . S
C1006 C1005 1.387 1_655 S
H1007 C1019 0.930 1_554 S
H1008 C1021 0.930 . S
H1009 C1022 0.930 . S
H1010 C1026 0.959 . S
H1011 C1026 0.959 . S
H1012 C1026 0.961 . S
H1013 C1027 0.960 . S
H1014 C1027 0.961 . S
H1015 C1027 0.959 1_545 S
H1016 C1030 0.929 . S
H1017 C1031 0.931 . S
H1018 C1033 0.924 1_565 S
C1019 H1007 0.930 1_556 S
C1019 C1020 1.399 . S
C1019 C1024 1.399 . S
C1020 C1019 1.399 . S
C1020 C1021 1.376 . S
C1021 H1008 0.930 . S
C1021 C1020 1.376 . S
C1021 C1022 1.388 . S
C1022 H1009 0.930 . S
C1022 C1021 1.388 . S
C1022 C1023 1.390 . S
C1023 C1022 1.390 . S
C1023 C1024 1.394 . S
C1023 C1029 1.485 . S
C1024 C1019 1.399 . S
C1024 C1023 1.394 . S
C1024 C1025 1.516 . S
C1025 C1024 1.516 . S
C1025 C1026 1.502 . S
C1025 C1027 1.561 1_556 S
C1025 C1028 1.526 . S
C1026 H1010 0.959 . S
C1026 H1011 0.959 . S
C1026 H1012 0.961 . S
C1026 C1025 1.502 . S
C1027 H1013 0.960 . S
C1027 H1014 0.961 . S
C1027 H1015 0.959 1_565 S
C1027 C1025 1.561 1_554 S
C1028 C1025 1.526 . S
C1028 C1029 1.408 . S
C1028 C1033 1.381 1_565 S
C1029 C1023 1.485 . S
C1029 C1028 1.408 . S
C1029 C1030 1.373 1_565 S
C1030 H1016 0.929 . S
C1030 C1029 1.373 1_545 S
C1030 C1031 1.385 . S
C1031 H1017 0.931 . S
C1031 C1030 1.385 . S
C1031 C1032 1.389 . S
C1032 C1031 1.389 . S
C1032 C1033 1.402 . S
C1033 H1018 0.924 1_545 S
C1033 C1028 1.381 1_545 S
C1033 C1032 1.402 . S
H1034 C1046 0.930 . S
H1035 C1048 0.930 . S
H1036 C1049 0.931 . S
H1037 C1053 0.959 . S
H1038 C1053 0.959 . S
H1039 C1053 0.961 . S
H1040 C1054 0.960 . S
H1041 C1054 0.961 . S
H1042 C1054 0.959 . S
H1043 C1057 0.929 . S
H1044 C1058 0.931 . S
H1045 C1060 0.930 . S
C1046 H1034 0.930 . S
C1046 C1047 1.399 . S
C1046 C1051 1.399 . S
C1047 C1046 1.399 . S
C1047 C1048 1.376 1_556 S
C1048 H1035 0.930 . S
C1048 C1047 1.376 1_554 S
C1048 C1049 1.389 . S
C1049 H1036 0.931 . S
C1049 C1048 1.389 . S
C1049 C1050 1.388 1_554 S
C1050 C1049 1.388 1_556 S
C1050 C1051 1.394 . S
C1050 C1056 1.465 . S
C1051 C1046 1.399 . S
C1051 C1050 1.394 . S
C1051 C1052 1.516 . S
C1052 C1051 1.516 . S
C1052 C1053 1.502 . S
C1052 C1054 1.561 . S
C1052 C1055 1.526 . S
C1053 H1037 0.959 . S
C1053 H1038 0.959 . S
C1053 H1039 0.961 . S
C1053 C1052 1.502 . S
C1054 H1040 0.960 . S
C1054 H1041 0.961 . S
C1054 H1042 0.959 . S
C1054 C1052 1.561 . S
C1055 C1052 1.526 . S
C1055 C1056 1.396 . S
C1055 C1060 1.390 . S
C1056 C1050 1.465 . S
C1056 C1055 1.396 . S
C1056 C1057 1.399 . S
C1057 H1043 0.929 . S
C1057 C1056 1.399 . S
C1057 C1058 1.385 . S
C1058 H1044 0.931 . S
C1058 C1057 1.385 . S
C1058 C1059 1.389 . S
C1059 C1058 1.389 . S
C1059 C1060 1.387 . S
C1060 H1045 0.930 . S
C1060 C1055 1.390 . S
C1060 C1059 1.387 . S
H1061 C1073 0.930 . S
H1062 C1075 0.930 . S
H1063 C1076 0.930 . S
H1064 C1080 0.959 . S
H1065 C1080 0.959 . S
H1066 C1080 0.961 . S
H1067 C1081 0.960 . S
H1068 C1081 0.961 . S
H1069 C1081 0.959 . S
H1070 C1084 0.929 . S
H1071 C1085 0.931 . S
H1072 C1087 0.930 . S
C1073 H1061 0.930 . S
C1073 C1074 1.399 . S
C1073 C1078 1.399 . S
C1074 C1073 1.399 . S
C1074 C1075 1.376 1_556 S
C1075 H1062 0.930 . S
C1075 C1074 1.376 1_554 S
C1075 C1076 1.388 . S
C1076 H1063 0.930 . S
C1076 C1075 1.388 . S
C1076 C1077 1.390 1_554 S
C1077 C1076 1.390 1_556 S
C1077 C1078 1.394 . S
C1077 C1083 1.465 . S
C1078 C1073 1.399 . S
C1078 C1077 1.394 . S
C1078 C1079 1.516 . S
C1079 C1078 1.516 . S
C1079 C1080 1.502 . S
C1079 C1081 1.561 . S
C1079 C1082 1.526 . S
C1080 H1064 0.959 . S
C1080 H1065 0.959 . S
C1080 H1066 0.961 . S
C1080 C1079 1.502 . S
C1081 H1067 0.960 . S
C1081 H1068 0.961 . S
C1081 H1069 0.959 . S
C1081 C1079 1.561 . S
C1082 C1079 1.526 . S
C1082 C1083 1.396 . S
C1082 C1087 1.390 . S
C1083 C1077 1.465 . S
C1083 C1082 1.396 . S
C1083 C1084 1.399 . S
C1084 H1070 0.929 . S
C1084 C1083 1.399 . S
C1084 C1085 1.385 . S
C1085 H1071 0.931 . S
C1085 C1084 1.385 . S
C1085 C1086 1.389 . S
C1086 C1085 1.389 . S
C1086 C1087 1.387 . S
C1087 H1072 0.930 . S
C1087 C1082 1.390 . S
C1087 C1086 1.387 . S
H1088 C1100 0.930 . S
H1089 C1102 0.930 . S
H1090 C1103 0.930 . S
H1091 C1107 0.959 1_655 S
H1092 C1107 0.959 . S
H1093 C1107 0.961 . S
H1094 C1108 0.960 . S
H1095 C1108 0.961 . S
H1096 C1108 0.959 . S
H1097 C1111 0.929 . S
H1098 C1112 0.931 . S
H1099 C1114 0.930 . S
C1100 H1088 0.930 . S
C1100 C1101 1.399 . S
C1100 C1105 1.399 . S
C1101 C1100 1.399 . S
C1101 C1102 1.376 . S
C1102 H1089 0.930 . S
C1102 C1101 1.376 . S
C1102 C1103 1.388 . S
C1103 H1090 0.930 . S
C1103 C1102 1.388 . S
C1103 C1104 1.390 . S
C1104 C1103 1.390 . S
C1104 C1105 1.394 . S
C1104 C1110 1.465 . S
C1105 C1100 1.399 . S
C1105 C1104 1.394 . S
C1105 C1106 1.516 . S
C1106 C1105 1.516 . S
C1106 C1107 1.502 . S
C1106 C1108 1.561 . S
C1106 C1109 1.526 . S
C1107 H1091 0.959 1_455 S
C1107 H1092 0.959 . S
C1107 H1093 0.961 . S
C1107 C1106 1.502 . S
C1108 H1094 0.960 . S
C1108 H1095 0.961 . S
C1108 H1096 0.959 . S
C1108 C1106 1.561 . S
C1109 C1106 1.526 . S
C1109 C1110 1.396 . S
C1109 C1114 1.390 . S
C1110 C1104 1.465 . S
C1110 C1109 1.396 . S
C1110 C1111 1.399 . S
C1111 H1097 0.929 . S
C1111 C1110 1.399 . S
C1111 C1112 1.385 . S
C1112 H1098 0.931 . S
C1112 C1111 1.385 . S
C1112 C1113 1.389 . S
C1113 C1112 1.389 . S
C1113 C1114 1.387 . S
C1114 H1099 0.930 . S
C1114 C1109 1.390 . S
C1114 C1113 1.387 . S
H1115 C1127 0.930 . S
H1116 C1129 0.930 . S
H1117 C1130 0.930 . S
H1118 C1134 0.959 . S
H1119 C1134 0.959 1_565 S
H1120 C1134 0.957 1_565 S
H1121 C1135 0.960 . S
H1122 C1135 0.961 . S
H1123 C1135 0.959 . S
H1124 C1138 0.929 . S
H1125 C1139 0.931 . S
H1126 C1141 0.930 . S
C1127 H1115 0.930 . S
C1127 C1128 1.399 . S
C1127 C1132 1.399 . S
C1128 C1127 1.399 . S
C1128 C1129 1.376 . S
C1129 H1116 0.930 . S
C1129 C1128 1.376 . S
C1129 C1130 1.388 . S
C1130 H1117 0.930 . S
C1130 C1129 1.388 . S
C1130 C1131 1.390 . S
C1131 C1130 1.390 . S
C1131 C1132 1.394 . S
C1131 C1137 1.465 . S
C1132 C1127 1.399 . S
C1132 C1131 1.394 . S
C1132 C1133 1.516 . S
C1133 C1132 1.516 . S
C1133 C1134 1.502 . S
C1133 C1135 1.561 1_545 S
C1133 C1136 1.526 . S
C1134 H1118 0.959 . S
C1134 H1119 0.959 1_545 S
C1134 H1120 0.957 1_545 S
C1134 C1133 1.502 . S
C1135 H1121 0.960 . S
C1135 H1122 0.961 . S
C1135 H1123 0.959 . S
C1135 C1133 1.561 1_565 S
C1136 C1133 1.526 . S
C1136 C1137 1.396 . S
C1136 C1141 1.390 . S
C1137 C1131 1.465 . S
C1137 C1136 1.396 . S
C1137 C1138 1.399 . S
C1138 H1124 0.929 . S
C1138 C1137 1.399 . S
C1138 C1139 1.385 . S
C1139 H1125 0.931 . S
C1139 C1138 1.385 . S
C1139 C1140 1.389 . S
C1140 C1139 1.389 . S
C1140 C1141 1.387 . S
C1141 H1126 0.930 . S
C1141 C1136 1.390 . S
C1141 C1140 1.387 . S
H1142 C1154 0.930 . S
H1143 C1156 0.930 . S
H1144 C1157 0.930 . S
H1145 C1161 0.959 . S
H1146 C1161 0.959 . S
H1147 C1161 0.961 . S
H1148 C1162 0.960 . S
H1149 C1162 0.961 . S
H1150 C1162 0.959 . S
H1151 C1165 0.929 . S
H1152 C1166 0.931 . S
H1153 C1168 0.930 . S
C1154 H1142 0.930 . S
C1154 C1155 1.399 . S
C1154 C1159 1.399 . S
C1155 C1154 1.399 . S
C1155 C1156 1.376 . S
C1156 H1143 0.930 . S
C1156 C1155 1.376 . S
C1156 C1157 1.388 . S
C1157 H1144 0.930 . S
C1157 C1156 1.388 . S
C1157 C1158 1.390 . S
C1158 C1157 1.390 . S
C1158 C1159 1.394 . S
C1158 C1164 1.465 . S
C1159 C1154 1.399 . S
C1159 C1158 1.394 . S
C1159 C1160 1.516 . S
C1160 C1159 1.516 . S
C1160 C1161 1.502 . S
C1160 C1162 1.561 . S
C1160 C1163 1.526 . S
C1161 H1145 0.959 . S
C1161 H1146 0.959 . S
C1161 H1147 0.961 . S
C1161 C1160 1.502 . S
C1162 H1148 0.960 . S
C1162 H1149 0.961 . S
C1162 H1150 0.959 . S
C1162 C1160 1.561 . S
C1163 C1160 1.526 . S
C1163 C1164 1.396 . S
C1163 C1168 1.390 . S
C1164 C1158 1.465 . S
C1164 C1163 1.396 . S
C1164 C1165 1.399 . S
C1165 H1151 0.929 . S
C1165 C1164 1.399 . S
C1165 C1166 1.385 . S
C1166 H1152 0.931 . S
C1166 C1165 1.385 . S
C1166 C1167 1.389 . S
C1167 C1166 1.389 . S
C1167 C1168 1.387 . S
C1168 H1153 0.930 . S
C1168 C1163 1.390 . S
C1168 C1167 1.387 . S
H1169 C1181 0.930 . S
H1170 C1183 0.930 . S
H1171 C1184 0.930 . S
H1172 C1188 0.959 . S
H1173 C1188 0.959 . S
H1174 C1188 0.961 . S
H1175 C1189 0.960 . S
H1176 C1189 0.961 . S
H1177 C1189 0.959 . S
H1178 C1192 0.929 . S
H1179 C1193 0.931 . S
H1180 C1195 0.930 . S
C1181 H1169 0.930 . S
C1181 C1182 1.399 . S
C1181 C1186 1.399 . S
C1182 C1181 1.399 . S
C1182 C1183 1.376 . S
C1183 H1170 0.930 . S
C1183 C1182 1.376 . S
C1183 C1184 1.388 . S
C1184 H1171 0.930 . S
C1184 C1183 1.388 . S
C1184 C1185 1.390 . S
C1185 C1184 1.390 . S
C1185 C1186 1.394 . S
C1185 C1191 1.465 . S
C1186 C1181 1.399 . S
C1186 C1185 1.394 . S
C1186 C1187 1.516 . S
C1187 C1186 1.516 . S
C1187 C1188 1.502 . S
C1187 C1189 1.561 . S
C1187 C1190 1.526 . S
C1188 H1172 0.959 . S
C1188 H1173 0.959 . S
C1188 H1174 0.961 . S
C1188 C1187 1.502 . S
C1189 H1175 0.960 . S
C1189 H1176 0.961 . S
C1189 H1177 0.959 . S
C1189 C1187 1.561 . S
C1190 C1187 1.526 . S
C1190 C1191 1.396 . S
C1190 C1195 1.390 . S
C1191 C1185 1.465 . S
C1191 C1190 1.396 . S
C1191 C1192 1.399 . S
C1192 H1178 0.929 . S
C1192 C1191 1.399 . S
C1192 C1193 1.385 . S
C1193 H1179 0.931 . S
C1193 C1192 1.385 . S
C1193 C1194 1.389 . S
C1194 C1193 1.389 . S
C1194 C1195 1.387 . S
C1195 H1180 0.930 . S
C1195 C1190 1.390 . S
C1195 C1194 1.387 . S
H1196 C1208 0.930 . S
H1197 C1210 0.930 . S
H1198 C1211 0.930 . S
H1199 C1215 0.959 . S
H1200 C1215 0.959 . S
H1201 C1215 0.961 . S
H1202 C1216 0.960 . S
H1203 C1216 0.961 . S
H1204 C1216 0.959 1_455 S
H1205 C1219 0.929 . S
H1206 C1220 0.931 . S
H1207 C1222 0.930 . S
C1208 H1196 0.930 . S
C1208 C1209 1.399 . S
C1208 C1213 1.399 . S
C1209 C1208 1.399 . S
C1209 C1210 1.376 . S
C1210 H1197 0.930 . S
C1210 C1209 1.376 . S
C1210 C1211 1.388 . S
C1211 H1198 0.930 . S
C1211 C1210 1.388 . S
C1211 C1212 1.390 . S
C1212 C1211 1.390 . S
C1212 C1213 1.394 . S
C1212 C1218 1.465 . S
C1213 C1208 1.399 . S
C1213 C1212 1.394 . S
C1213 C1214 1.516 . S
C1214 C1213 1.516 . S
C1214 C1215 1.502 . S
C1214 C1216 1.561 . S
C1214 C1217 1.526 . S
C1215 H1199 0.959 . S
C1215 H1200 0.959 . S
C1215 H1201 0.961 . S
C1215 C1214 1.502 . S
C1216 H1202 0.960 . S
C1216 H1203 0.961 . S
C1216 H1204 0.959 1_655 S
C1216 C1214 1.561 . S
C1217 C1214 1.526 . S
C1217 C1218 1.396 . S
C1217 C1222 1.390 . S
C1218 C1212 1.465 . S
C1218 C1217 1.396 . S
C1218 C1219 1.399 . S
C1219 H1205 0.929 . S
C1219 C1218 1.399 . S
C1219 C1220 1.385 . S
C1220 H1206 0.931 . S
C1220 C1219 1.385 . S
C1220 C1221 1.389 . S
C1221 C1220 1.389 . S
C1221 C1222 1.387 . S
C1222 H1207 0.930 . S
C1222 C1217 1.390 . S
C1222 C1221 1.387 . S
H1223 C1235 0.930 . S
H1224 C1237 0.930 . S
H1225 C1238 0.930 . S
H1226 C1242 0.959 . S
H1227 C1242 0.959 . S
H1228 C1242 0.961 . S
H1229 C1243 0.966 . S
H1230 C1243 0.961 . S
H1231 C1243 0.959 . S
H1232 C1246 0.929 . S
H1233 C1247 0.931 . S
H1234 C1249 0.930 . S
C1235 H1223 0.930 . S
C1235 C1236 1.399 . S
C1235 C1240 1.399 . S
C1236 C1235 1.399 . S
C1236 C1237 1.376 . S
C1237 H1224 0.930 . S
C1237 C1236 1.376 . S
C1237 C1238 1.388 . S
C1238 H1225 0.930 . S
C1238 C1237 1.388 . S
C1238 C1239 1.390 . S
C1239 C1238 1.390 . S
C1239 C1240 1.394 . S
C1239 C1245 1.465 . S
C1240 C1235 1.399 . S
C1240 C1239 1.394 . S
C1240 C1241 1.516 . S
C1241 C1240 1.516 . S
C1241 C1242 1.502 . S
C1241 C1243 1.561 1_565 S
C1241 C1244 1.526 . S
C1242 H1226 0.959 . S
C1242 H1227 0.959 . S
C1242 H1228 0.961 . S
C1242 C1241 1.502 . S
C1243 H1229 0.966 . S
C1243 H1230 0.961 . S
C1243 H1231 0.959 . S
C1243 C1241 1.561 1_545 S
C1244 C1241 1.526 . S
C1244 C1245 1.396 . S
C1244 C1249 1.390 . S
C1245 C1239 1.465 . S
C1245 C1244 1.396 . S
C1245 C1246 1.399 . S
C1246 H1232 0.929 . S
C1246 C1245 1.399 . S
C1246 C1247 1.385 . S
C1247 H1233 0.931 . S
C1247 C1246 1.385 . S
C1247 C1248 1.389 . S
C1248 C1247 1.389 . S
C1248 C1249 1.387 . S
C1249 H1234 0.930 . S
C1249 C1244 1.390 . S
C1249 C1248 1.387 . S
H1250 C1262 0.930 . S
H1251 C1264 0.930 . S
H1252 C1265 0.930 . S
H1253 C1269 0.959 . S
H1254 C1269 0.959 . S
H1255 C1269 0.961 . S
H1256 C1270 0.960 . S
H1257 C1270 0.961 . S
H1258 C1270 0.959 . S
H1259 C1273 0.929 . S
H1260 C1274 0.931 . S
H1261 C1276 0.930 . S
C1262 H1250 0.930 . S
C1262 C1263 1.399 . S
C1262 C1267 1.399 . S
C1263 C1262 1.399 . S
C1263 C1264 1.376 . S
C1264 H1251 0.930 . S
C1264 C1263 1.376 . S
C1264 C1265 1.388 . S
C1265 H1252 0.930 . S
C1265 C1264 1.388 . S
C1265 C1266 1.390 . S
C1266 C1265 1.390 . S
C1266 C1267 1.394 . S
C1266 C1272 1.465 . S
C1267 C1262 1.399 . S
C1267 C1266 1.394 . S
C1267 C1268 1.516 . S
C1268 C1267 1.516 . S
C1268 C1269 1.502 . S
C1268 C1270 1.561 . S
C1268 C1271 1.526 . S
C1269 H1253 0.959 . S
C1269 H1254 0.959 . S
C1269 H1255 0.961 . S
C1269 C1268 1.502 . S
C1270 H1256 0.960 . S
C1270 H1257 0.961 . S
C1270 H1258 0.959 . S
C1270 C1268 1.561 . S
C1271 C1268 1.526 . S
C1271 C1272 1.396 . S
C1271 C1276 1.390 . S
C1272 C1266 1.465 . S
C1272 C1271 1.396 . S
C1272 C1273 1.399 . S
C1273 H1259 0.929 . S
C1273 C1272 1.399 . S
C1273 C1274 1.385 . S
C1274 H1260 0.931 . S
C1274 C1273 1.385 . S
C1274 C1275 1.389 . S
C1275 C1274 1.389 . S
C1275 C1276 1.387 . S
C1276 H1261 0.930 . S
C1276 C1271 1.390 . S
C1276 C1275 1.387 . S
H1277 C1289 0.930 . S
H1278 C1291 0.930 . S
H1279 C1292 0.930 . S
H1280 C1296 0.959 . S
H1281 C1296 0.959 . S
H1282 C1296 0.961 . S
H1283 C1297 0.960 . S
H1284 C1297 0.961 . S
H1285 C1297 0.959 . S
H1286 C1300 0.929 . S
H1287 C1301 0.931 . S
H1288 C1303 0.930 . S
C1289 H1277 0.930 . S
C1289 C1290 1.399 . S
C1289 C1294 1.399 . S
C1290 C1289 1.399 . S
C1290 C1291 1.376 . S
C1291 H1278 0.930 . S
C1291 C1290 1.376 . S
C1291 C1292 1.388 . S
C1292 H1279 0.930 . S
C1292 C1291 1.388 . S
C1292 C1293 1.390 . S
C1293 C1292 1.390 . S
C1293 C1294 1.394 . S
C1293 C1299 1.465 . S
C1294 C1289 1.399 . S
C1294 C1293 1.394 . S
C1294 C1295 1.516 . S
C1295 C1294 1.516 . S
C1295 C1296 1.502 . S
C1295 C1297 1.561 . S
C1295 C1298 1.526 . S
C1296 H1280 0.959 . S
C1296 H1281 0.959 . S
C1296 H1282 0.961 . S
C1296 C1295 1.502 . S
C1297 H1283 0.960 . S
C1297 H1284 0.961 . S
C1297 H1285 0.959 . S
C1297 C1295 1.561 . S
C1298 C1295 1.526 . S
C1298 C1299 1.396 . S
C1298 C1303 1.390 . S
C1299 C1293 1.465 . S
C1299 C1298 1.396 . S
C1299 C1300 1.399 . S
C1300 H1286 0.929 . S
C1300 C1299 1.399 . S
C1300 C1301 1.385 . S
C1301 H1287 0.931 . S
C1301 C1300 1.385 . S
C1301 C1302 1.389 . S
C1302 C1301 1.389 . S
C1302 C1303 1.387 . S
C1303 H1288 0.930 . S
C1303 C1298 1.390 . S
C1303 C1302 1.387 . S
C669 C255 2.365 . S
C681 C383 2.572 . S
C708 C460 2.582 . S
C696 C295 2.375 . S
C735 C551 2.569 . S
C723 C175 2.369 . S
C762 C635 2.538 . S
C750 C215 2.379 . S
C789 C394 2.551 1_565 S
C777 C95 2.356 . S
C804 C135 2.381 . S
C816 C471 2.570 . S
C831 C15 2.349 . S
C843 C562 2.554 . S
C858 C55 2.401 . S
C870 C646 2.520 1_655 S
C897 C378 0.582 1_455 S
C885 C221 0.521 . S
C924 C473 0.413 . S
C912 C261 0.383 . S
C951 C546 0.439 . S
C939 C301 0.552 . S
C966 C181 0.488 . S
C978 C630 0.588 . S
C993 C61 0.485 . S
C1005 C389 0.521 . S
C1032 C462 0.651 . S
C1020 C101 0.507 . S
C1059 C557 0.601 . S
C1047 C141 0.615 1_556 S
C1074 C21 0.551 . S
C1086 C641 0.562 . S
C1101 C202 2.881 . S
C1113 C387 3.153 . S
C1128 C242 2.933 . S
C1140 C478 3.205 . S
C1167 C555 3.152 . S
C1155 C282 2.946 . S
C1194 C639 3.146 . S
C1182 C162 2.962 . S
C1209 C42 2.835 . S
C1221 C376 3.154 . S
C1248 C467 3.212 . S
C1236 C82 2.833 . S
C1275 C544 3.176 . S
C1263 C122 2.856 . S
C1290 C2 2.919 . S
C1302 C628 3.147 . S
