# Generated by pormake.
# Topology gar, (4,6)-cn, num edge types: 1
# Building blocks:
#     Node 0, Type 0, BuildingBlock: QUQFOY_clean_sbu_3, # of connection points: 4
#     Node 1, Type 0, BuildingBlock: QUQFOY_clean_sbu_3, # of connection points: 4
#     Node 2, Type 0, BuildingBlock: QUQFOY_clean_sbu_3, # of connection points: 4
#     Node 3, Type 0, BuildingBlock: QUQFOY_clean_sbu_3, # of connection points: 4
#     Node 4, Type 0, BuildingBlock: QUQFOY_clean_sbu_3, # of connection points: 4
#     Node 5, Type 0, BuildingBlock: QUQFOY_clean_sbu_3, # of connection points: 4
#     Node 6, Type 0, BuildingBlock: QUQFOY_clean_sbu_3, # of connection points: 4
#     Node 7, Type 0, BuildingBlock: QUQFOY_clean_sbu_3, # of connection points: 4
#     Node 8, Type 0, BuildingBlock: QUQFOY_clean_sbu_3, # of connection points: 4
#     Node 9, Type 0, BuildingBlock: QUQFOY_clean_sbu_3, # of connection points: 4
#     Node 10, Type 0, BuildingBlock: QUQFOY_clean_sbu_3, # of connection points: 4
#     Node 11, Type 0, BuildingBlock: QUQFOY_clean_sbu_3, # of connection points: 4
#     Node 12, Type 0, BuildingBlock: QUQFOY_clean_sbu_3, # of connection points: 4
#     Node 13, Type 0, BuildingBlock: QUQFOY_clean_sbu_3, # of connection points: 4
#     Node 14, Type 0, BuildingBlock: QUQFOY_clean_sbu_3, # of connection points: 4
#     Node 15, Type 0, BuildingBlock: QUQFOY_clean_sbu_3, # of connection points: 4
#     Node 16, Type 0, BuildingBlock: QUQFOY_clean_sbu_3, # of connection points: 4
#     Node 17, Type 0, BuildingBlock: QUQFOY_clean_sbu_3, # of connection points: 4
#     Node 18, Type 0, BuildingBlock: QUQFOY_clean_sbu_3, # of connection points: 4
#     Node 19, Type 0, BuildingBlock: QUQFOY_clean_sbu_3, # of connection points: 4
#     Node 20, Type 0, BuildingBlock: QUQFOY_clean_sbu_3, # of connection points: 4
#     Node 21, Type 0, BuildingBlock: QUQFOY_clean_sbu_3, # of connection points: 4
#     Node 22, Type 0, BuildingBlock: QUQFOY_clean_sbu_3, # of connection points: 4
#     Node 23, Type 0, BuildingBlock: QUQFOY_clean_sbu_3, # of connection points: 4
#     Node 24, Type 1, BuildingBlock: BETGAK_clean_sbu_0, # of connection points: 6
#     Node 25, Type 1, BuildingBlock: BETGAK_clean_sbu_0, # of connection points: 6
#     Node 26, Type 1, BuildingBlock: BETGAK_clean_sbu_0, # of connection points: 6
#     Node 27, Type 1, BuildingBlock: BETGAK_clean_sbu_0, # of connection points: 6
#     Node 28, Type 1, BuildingBlock: BETGAK_clean_sbu_0, # of connection points: 6
#     Node 29, Type 1, BuildingBlock: BETGAK_clean_sbu_0, # of connection points: 6
#     Node 30, Type 1, BuildingBlock: BETGAK_clean_sbu_0, # of connection points: 6
#     Node 31, Type 1, BuildingBlock: BETGAK_clean_sbu_0, # of connection points: 6
#     Node 32, Type 1, BuildingBlock: BETGAK_clean_sbu_0, # of connection points: 6
#     Node 33, Type 1, BuildingBlock: BETGAK_clean_sbu_0, # of connection points: 6
#     Node 34, Type 1, BuildingBlock: BETGAK_clean_sbu_0, # of connection points: 6
#     Node 35, Type 1, BuildingBlock: BETGAK_clean_sbu_0, # of connection points: 6
#     Node 36, Type 1, BuildingBlock: BETGAK_clean_sbu_0, # of connection points: 6
#     Node 37, Type 1, BuildingBlock: BETGAK_clean_sbu_0, # of connection points: 6
#     Node 38, Type 1, BuildingBlock: BETGAK_clean_sbu_0, # of connection points: 6
#     Node 39, Type 1, BuildingBlock: BETGAK_clean_sbu_0, # of connection points: 6
#     Edge 40, Type (0, 1), BuildingBlock: AJUNOK_clean_linker_0, # of connection points: 2
#     Edge 41, Type (0, 1), BuildingBlock: AJUNOK_clean_linker_0, # of connection points: 2
#     Edge 42, Type (0, 1), BuildingBlock: AJUNOK_clean_linker_0, # of connection points: 2
#     Edge 43, Type (0, 1), BuildingBlock: AJUNOK_clean_linker_0, # of connection points: 2
#     Edge 44, Type (0, 1), BuildingBlock: AJUNOK_clean_linker_0, # of connection points: 2
#     Edge 45, Type (0, 1), BuildingBlock: AJUNOK_clean_linker_0, # of connection points: 2
#     Edge 46, Type (0, 1), BuildingBlock: AJUNOK_clean_linker_0, # of connection points: 2
#     Edge 47, Type (0, 1), BuildingBlock: AJUNOK_clean_linker_0, # of connection points: 2
#     Edge 48, Type (0, 1), BuildingBlock: AJUNOK_clean_linker_0, # of connection points: 2
#     Edge 49, Type (0, 1), BuildingBlock: AJUNOK_clean_linker_0, # of connection points: 2
#     Edge 50, Type (0, 1), BuildingBlock: AJUNOK_clean_linker_0, # of connection points: 2
#     Edge 51, Type (0, 1), BuildingBlock: AJUNOK_clean_linker_0, # of connection points: 2
#     Edge 52, Type (0, 1), BuildingBlock: AJUNOK_clean_linker_0, # of connection points: 2
#     Edge 53, Type (0, 1), BuildingBlock: AJUNOK_clean_linker_0, # of connection points: 2
#     Edge 54, Type (0, 1), BuildingBlock: AJUNOK_clean_linker_0, # of connection points: 2
#     Edge 55, Type (0, 1), BuildingBlock: AJUNOK_clean_linker_0, # of connection points: 2
#     Edge 56, Type (0, 1), BuildingBlock: AJUNOK_clean_linker_0, # of connection points: 2
#     Edge 57, Type (0, 1), BuildingBlock: AJUNOK_clean_linker_0, # of connection points: 2
#     Edge 58, Type (0, 1), BuildingBlock: AJUNOK_clean_linker_0, # of connection points: 2
#     Edge 59, Type (0, 1), BuildingBlock: AJUNOK_clean_linker_0, # of connection points: 2
#     Edge 60, Type (0, 1), BuildingBlock: AJUNOK_clean_linker_0, # of connection points: 2
#     Edge 61, Type (0, 1), BuildingBlock: AJUNOK_clean_linker_0, # of connection points: 2
#     Edge 62, Type (0, 1), BuildingBlock: AJUNOK_clean_linker_0, # of connection points: 2
#     Edge 63, Type (0, 1), BuildingBlock: AJUNOK_clean_linker_0, # of connection points: 2
#     Edge 64, Type (0, 1), BuildingBlock: AJUNOK_clean_linker_0, # of connection points: 2
#     Edge 65, Type (0, 1), BuildingBlock: AJUNOK_clean_linker_0, # of connection points: 2
#     Edge 66, Type (0, 1), BuildingBlock: AJUNOK_clean_linker_0, # of connection points: 2
#     Edge 67, Type (0, 1), BuildingBlock: AJUNOK_clean_linker_0, # of connection points: 2
#     Edge 68, Type (0, 1), BuildingBlock: AJUNOK_clean_linker_0, # of connection points: 2
#     Edge 69, Type (0, 1), BuildingBlock: AJUNOK_clean_linker_0, # of connection points: 2
#     Edge 70, Type (0, 1), BuildingBlock: AJUNOK_clean_linker_0, # of connection points: 2
#     Edge 71, Type (0, 1), BuildingBlock: AJUNOK_clean_linker_0, # of connection points: 2
#     Edge 72, Type (0, 1), BuildingBlock: AJUNOK_clean_linker_0, # of connection points: 2
#     Edge 73, Type (0, 1), BuildingBlock: AJUNOK_clean_linker_0, # of connection points: 2
#     Edge 74, Type (0, 1), BuildingBlock: AJUNOK_clean_linker_0, # of connection points: 2
#     Edge 75, Type (0, 1), BuildingBlock: AJUNOK_clean_linker_0, # of connection points: 2
#     Edge 76, Type (0, 1), BuildingBlock: AJUNOK_clean_linker_0, # of connection points: 2
#     Edge 77, Type (0, 1), BuildingBlock: AJUNOK_clean_linker_0, # of connection points: 2
#     Edge 78, Type (0, 1), BuildingBlock: AJUNOK_clean_linker_0, # of connection points: 2
#     Edge 79, Type (0, 1), BuildingBlock: AJUNOK_clean_linker_0, # of connection points: 2
#     Edge 80, Type (0, 1), BuildingBlock: AJUNOK_clean_linker_0, # of connection points: 2
#     Edge 81, Type (0, 1), BuildingBlock: AJUNOK_clean_linker_0, # of connection points: 2
#     Edge 82, Type (0, 1), BuildingBlock: AJUNOK_clean_linker_0, # of connection points: 2
#     Edge 83, Type (0, 1), BuildingBlock: AJUNOK_clean_linker_0, # of connection points: 2
#     Edge 84, Type (0, 1), BuildingBlock: AJUNOK_clean_linker_0, # of connection points: 2
#     Edge 85, Type (0, 1), BuildingBlock: AJUNOK_clean_linker_0, # of connection points: 2
#     Edge 86, Type (0, 1), BuildingBlock: AJUNOK_clean_linker_0, # of connection points: 2
#     Edge 87, Type (0, 1), BuildingBlock: AJUNOK_clean_linker_0, # of connection points: 2
#     Edge 88, Type (0, 1), BuildingBlock: AJUNOK_clean_linker_0, # of connection points: 2
#     Edge 89, Type (0, 1), BuildingBlock: AJUNOK_clean_linker_0, # of connection points: 2
#     Edge 90, Type (0, 1), BuildingBlock: AJUNOK_clean_linker_0, # of connection points: 2
#     Edge 91, Type (0, 1), BuildingBlock: AJUNOK_clean_linker_0, # of connection points: 2
#     Edge 92, Type (0, 1), BuildingBlock: AJUNOK_clean_linker_0, # of connection points: 2
#     Edge 93, Type (0, 1), BuildingBlock: AJUNOK_clean_linker_0, # of connection points: 2
#     Edge 94, Type (0, 1), BuildingBlock: AJUNOK_clean_linker_0, # of connection points: 2
#     Edge 95, Type (0, 1), BuildingBlock: AJUNOK_clean_linker_0, # of connection points: 2
#     Edge 96, Type (0, 1), BuildingBlock: AJUNOK_clean_linker_0, # of connection points: 2
#     Edge 97, Type (0, 1), BuildingBlock: AJUNOK_clean_linker_0, # of connection points: 2
#     Edge 98, Type (0, 1), BuildingBlock: AJUNOK_clean_linker_0, # of connection points: 2
#     Edge 99, Type (0, 1), BuildingBlock: AJUNOK_clean_linker_0, # of connection points: 2
#     Edge 100, Type (0, 1), BuildingBlock: AJUNOK_clean_linker_0, # of connection points: 2
#     Edge 101, Type (0, 1), BuildingBlock: AJUNOK_clean_linker_0, # of connection points: 2
#     Edge 102, Type (0, 1), BuildingBlock: AJUNOK_clean_linker_0, # of connection points: 2
#     Edge 103, Type (0, 1), BuildingBlock: AJUNOK_clean_linker_0, # of connection points: 2
#     Edge 104, Type (0, 1), BuildingBlock: AJUNOK_clean_linker_0, # of connection points: 2
#     Edge 105, Type (0, 1), BuildingBlock: AJUNOK_clean_linker_0, # of connection points: 2
#     Edge 106, Type (0, 1), BuildingBlock: AJUNOK_clean_linker_0, # of connection points: 2
#     Edge 107, Type (0, 1), BuildingBlock: AJUNOK_clean_linker_0, # of connection points: 2
#     Edge 108, Type (0, 1), BuildingBlock: AJUNOK_clean_linker_0, # of connection points: 2
#     Edge 109, Type (0, 1), BuildingBlock: AJUNOK_clean_linker_0, # of connection points: 2
#     Edge 110, Type (0, 1), BuildingBlock: AJUNOK_clean_linker_0, # of connection points: 2
#     Edge 111, Type (0, 1), BuildingBlock: AJUNOK_clean_linker_0, # of connection points: 2
#     Edge 112, Type (0, 1), BuildingBlock: AJUNOK_clean_linker_0, # of connection points: 2
#     Edge 113, Type (0, 1), BuildingBlock: AJUNOK_clean_linker_0, # of connection points: 2
#     Edge 114, Type (0, 1), BuildingBlock: AJUNOK_clean_linker_0, # of connection points: 2
#     Edge 115, Type (0, 1), BuildingBlock: AJUNOK_clean_linker_0, # of connection points: 2
#     Edge 116, Type (0, 1), BuildingBlock: AJUNOK_clean_linker_0, # of connection points: 2
#     Edge 117, Type (0, 1), BuildingBlock: AJUNOK_clean_linker_0, # of connection points: 2
#     Edge 118, Type (0, 1), BuildingBlock: AJUNOK_clean_linker_0, # of connection points: 2
#     Edge 119, Type (0, 1), BuildingBlock: AJUNOK_clean_linker_0, # of connection points: 2
#     Edge 120, Type (0, 1), BuildingBlock: AJUNOK_clean_linker_0, # of connection points: 2
#     Edge 121, Type (0, 1), BuildingBlock: AJUNOK_clean_linker_0, # of connection points: 2
#     Edge 122, Type (0, 1), BuildingBlock: AJUNOK_clean_linker_0, # of connection points: 2
#     Edge 123, Type (0, 1), BuildingBlock: AJUNOK_clean_linker_0, # of connection points: 2
#     Edge 124, Type (0, 1), BuildingBlock: AJUNOK_clean_linker_0, # of connection points: 2
#     Edge 125, Type (0, 1), BuildingBlock: AJUNOK_clean_linker_0, # of connection points: 2
#     Edge 126, Type (0, 1), BuildingBlock: AJUNOK_clean_linker_0, # of connection points: 2
#     Edge 127, Type (0, 1), BuildingBlock: AJUNOK_clean_linker_0, # of connection points: 2
#     Edge 128, Type (0, 1), BuildingBlock: AJUNOK_clean_linker_0, # of connection points: 2
#     Edge 129, Type (0, 1), BuildingBlock: AJUNOK_clean_linker_0, # of connection points: 2
#     Edge 130, Type (0, 1), BuildingBlock: AJUNOK_clean_linker_0, # of connection points: 2
#     Edge 131, Type (0, 1), BuildingBlock: AJUNOK_clean_linker_0, # of connection points: 2
#     Edge 132, Type (0, 1), BuildingBlock: AJUNOK_clean_linker_0, # of connection points: 2
#     Edge 133, Type (0, 1), BuildingBlock: AJUNOK_clean_linker_0, # of connection points: 2
#     Edge 134, Type (0, 1), BuildingBlock: AJUNOK_clean_linker_0, # of connection points: 2
#     Edge 135, Type (0, 1), BuildingBlock: AJUNOK_clean_linker_0, # of connection points: 2
# Relax obj value: 0.250
# Max RMSD: 0.350
# Mean RMSD: 0.169
data_MOF--net-gar--node1-QUQFOY_clean_sbu_3--node2-BETGAK_clean_sbu_0--edge1-AJUNOK_clean_linker_0
_symmetry_space_group_name_H-M    P1
_symmetry_Int_Tables_number       1
_symmetry_cell_setting            triclinic
loop_
_symmetry_equiv_pos_as_xyz
'x, y, z'
_cell_length_a     48.941138
_cell_length_b     43.732475
_cell_length_c     43.473933
_cell_angle_alpha  100.38244
_cell_angle_beta   95.695249
_cell_angle_gamma 102.87435
loop_
_atom_site_label
_atom_site_type_symbol
_atom_site_fract_x
_atom_site_fract_y
_atom_site_fract_z
_atom_type_partial_charge
C0 C 0.10793 0.38149 0.35256 0.0
O1 O 0.12449 0.40134 0.34061 0.0
Cd2 Cd 0.17278 0.42163 0.36303 0.0
O3 O 0.11635 0.37091 0.37613 0.0
Cd4 Cd 0.15866 0.37195 0.40975 0.0
C5 C 0.15899 0.44801 0.43762 0.0
O6 O 0.17948 0.36966 0.36367 0.0
O7 O 0.206 0.36256 0.40317 0.0
O8 O 0.12892 0.32021 0.40547 0.0
C9 C 0.20219 0.36363 0.37406 0.0
O10 O 0.16356 0.4535 0.41067 0.0
C11 C 0.1331 0.3211 0.43488 0.0
O12 O 0.15882 0.42099 0.44428 0.0
O13 O 0.15071 0.34524 0.45244 0.0
C14 C 0.95823 0.76243 0.70255 0.0
O15 O 0.96465 0.73919 0.71268 0.0
Cd16 Cd 1.00733 0.72514 0.70519 0.0
O17 O 0.97203 0.77584 0.68328 0.0
Cd18 Cd 1.01268 0.76571 0.65826 0.0
C19 C 1.00868 0.68954 0.63053 0.0
O20 O 0.04036 0.77481 0.70927 0.0
O21 O 0.05882 0.75689 0.66851 0.0
O22 O 0.03715 0.81921 0.65882 0.0
C23 C 0.06208 0.77096 0.69723 0.0
O24 O 1.0118 0.6882 0.65948 0.0
C25 C 0.03432 0.81583 0.62914 0.0
O26 O 1.00358 0.71417 0.62189 0.0
O27 O 0.01839 0.78983 0.61276 0.0
C28 C 0.60939 0.87856 0.85349 0.0
O29 O 0.62743 0.89648 0.8413 0.0
Cd30 Cd 0.67391 0.9163 0.86589 0.0
O31 O 0.61673 0.86938 0.87846 0.0
Cd32 Cd 0.66034 0.8725 0.91228 0.0
C33 C 0.65822 0.94623 0.93826 0.0
O34 O 0.67804 0.86285 0.8644 0.0
O35 O 0.70936 0.86871 0.90499 0.0
O36 O 0.62529 0.82541 0.91258 0.0
C37 C 0.70197 0.86025 0.87527 0.0
O38 O 0.66141 0.94971 0.91042 0.0
C39 C 0.63596 0.82232 0.93921 0.0
O40 O 0.66061 0.92089 0.94711 0.0
O41 O 0.65941 0.84153 0.95229 0.0
C42 C 0.45839 0.26123 0.20295 0.0
O43 O 0.46525 0.23751 0.21165 0.0
Cd44 Cd 0.5086 0.22485 0.20654 0.0
O45 O 0.47208 0.27572 0.18425 0.0
Cd46 Cd 0.51306 0.26606 0.15971 0.0
C47 C 0.50851 0.18996 0.13223 0.0
O48 O 0.54208 0.27386 0.21058 0.0
O49 O 0.55995 0.26009 0.16798 0.0
O50 O 0.53132 0.32114 0.15866 0.0
C51 C 0.56356 0.27141 0.19736 0.0
O52 O 0.51287 0.18879 0.16109 0.0
C53 C 0.53375 0.31571 0.12958 0.0
O54 O 0.50238 0.21421 0.12377 0.0
O55 O 0.52291 0.28755 0.11364 0.0
C56 C 0.07591 0.81685 0.1648 0.0
O57 O 0.09024 0.80295 0.18102 0.0
Cd58 Cd 0.13881 0.80336 0.17931 0.0
O59 O 0.08744 0.83401 0.14647 0.0
Cd60 Cd 0.13483 0.84903 0.12646 0.0
C61 C 0.12546 0.76753 0.10032 0.0
O62 O 0.16743 0.85459 0.17745 0.0
O63 O 0.18776 0.84715 0.13648 0.0
O64 O 0.1319 0.9065 0.12586 0.0
C65 C 0.19001 0.85145 0.1665 0.0
O66 O 0.1321 0.76696 0.12917 0.0
C67 C 0.12286 0.90266 0.09658 0.0
O68 O 0.12331 0.79349 0.09169 0.0
O69 O 0.12166 0.87505 0.0802 0.0
C70 C 0.48156 0.80409 0.3837 0.0
O71 O 0.50198 0.82239 0.37505 0.0
Cd72 Cd 0.55112 0.83982 0.39325 0.0
O73 O 0.48713 0.78932 0.40618 0.0
Cd74 Cd 0.5387 0.79056 0.44205 0.0
C75 C 0.54856 0.87221 0.47101 0.0
O76 O 0.56973 0.7965 0.40131 0.0
O77 O 0.59148 0.81442 0.44863 0.0
O78 O 0.54729 0.73502 0.44185 0.0
C79 C 0.59316 0.80795 0.41936 0.0
O80 O 0.55295 0.87489 0.44319 0.0
C81 C 0.54675 0.73467 0.47094 0.0
O82 O 0.54208 0.84462 0.47836 0.0
O83 O 0.53985 0.75859 0.48673 0.0
C84 C 0.57662 0.31916 0.6653 0.0
O85 O 0.59464 0.31631 0.68691 0.0
Cd86 Cd 0.64045 0.31164 0.68069 0.0
O87 O 0.58475 0.32833 0.64065 0.0
Cd88 Cd 0.63367 0.34778 0.62331 0.0
C89 C 0.62473 0.26812 0.6019 0.0
O90 O 0.66822 0.35985 0.6743 0.0
O91 O 0.68641 0.34264 0.63442 0.0
O92 O 0.62489 0.40318 0.62416 0.0
C93 C 0.68968 0.3519 0.66435 0.0
O94 O 0.63102 0.27241 0.63172 0.0
C95 C 0.62139 0.40171 0.59451 0.0
O96 O 0.62303 0.29192 0.58912 0.0
O97 O 0.62586 0.37675 0.57772 0.0
C98 C 0.98148 0.30359 0.88375 0.0
O99 O 1.00255 0.31962 0.87418 0.0
Cd100 Cd 0.05139 0.33327 0.89027 0.0
O101 O 0.98623 0.28973 0.90716 0.0
Cd102 Cd 0.03781 0.28998 0.94221 0.0
C103 C 0.05094 0.37058 0.96767 0.0
O104 O 0.06927 0.29078 0.90134 0.0
O105 O 0.08986 0.31775 0.94698 0.0
O106 O 0.04245 0.23297 0.94253 0.0
C107 C 0.09225 0.30664 0.91863 0.0
O108 O 0.05534 0.36939 0.93925 0.0
C109 C 0.04614 0.23474 0.97223 0.0
O110 O 0.04187 0.34473 0.97747 0.0
O111 O 0.04338 0.26084 0.9886 0.0
C112 C 0.50237 0.05449 0.37689 0.0
O113 O 0.51079 0.03245 0.36043 0.0
Cd114 Cd 0.50629 1.00788 0.30816 0.0
O115 O 0.48673 0.07009 0.36534 0.0
Cd116 Cd 0.46202 0.05193 0.31511 0.0
C117 C 0.44167 0.98059 0.32048 0.0
O118 O 0.49175 0.04122 0.27776 0.0
O119 O 0.44634 1.01763 0.2668 0.0
O120 O 0.45702 0.10037 0.30582 0.0
C121 C 0.47057 0.02348 0.25828 0.0
O122 O 0.46094 0.9743 0.30465 0.0
C123 C 0.43023 0.09045 0.29935 0.0
O124 O 0.44265 1.00844 0.33566 0.0
O125 O 0.41829 0.06341 0.30475 0.0
C126 C 0.3508 0.18526 0.53362 0.0
O127 O 0.33213 0.1667 0.54438 0.0
Cd128 Cd 0.28456 0.16635 0.54719 0.0
O129 O 0.34453 0.20625 0.51903 0.0
Cd130 Cd 0.29932 0.22414 0.50502 0.0
C131 C 0.30061 0.24641 0.5861 0.0
O132 O 0.26402 0.17071 0.49775 0.0
O133 O 0.24591 0.21074 0.50815 0.0
O134 O 0.30071 0.22502 0.44637 0.0
C135 C 0.24189 0.18033 0.50245 0.0
O136 O 0.29131 0.21642 0.58405 0.0
C137 C 0.31095 0.25493 0.44925 0.0
O138 O 0.30728 0.25758 0.56174 0.0
O139 O 0.31509 0.27117 0.47743 0.0
C140 C 0.15831 0.05823 0.85655 0.0
O141 O 0.15253 0.07838 0.84087 0.0
Cd142 Cd 0.1784 0.07883 0.79503 0.0
O143 O 0.1756 0.04174 0.84431 0.0
Cd144 Cd 0.20518 0.04095 0.78587 0.0
C145 C 0.23541 0.13061 0.79032 0.0
O146 O 0.15763 0.04031 0.7454 0.0
O147 O 0.19614 0.05122 0.72702 0.0
O148 O 0.21262 0.97784 0.77117 0.0
C149 C 0.16933 0.04673 0.72156 0.0
O150 O 0.20933 0.13034 0.78974 0.0
C151 C 0.23911 0.9816 0.78031 0.0
O152 O 0.24191 0.10341 0.79173 0.0
O153 O 0.25054 1.01142 0.79138 0.0
C154 C 0.41218 1.01812 1.00261 0.0
O155 O 0.40075 0.03401 0.98585 0.0
Cd156 Cd 0.35053 1.01507 0.97336 0.0
O157 O 0.39771 0.99527 1.01224 0.0
Cd158 Cd 0.35307 0.96716 1.01491 0.0
C159 C 0.35054 0.93829 0.94105 0.0
O160 O 0.33335 1.01102 0.02271 0.0
O161 O 0.3053 0.96332 0.01923 0.0
O162 O 0.3776 0.97908 0.06549 0.0
C163 C 0.3098 0.99369 0.02614 0.0
O164 O 0.34684 0.96509 0.93666 0.0
C165 C 0.37415 0.94959 0.06567 0.0
O166 O 0.35344 0.93219 0.96824 0.0
O167 O 0.35792 0.92861 0.04331 0.0
C168 C 0.41938 0.4754 0.04875 0.0
O169 O 0.40264 0.4867 0.03241 0.0
Cd170 Cd 0.35314 0.46668 1.01412 0.0
O171 O 0.40943 0.45063 0.06051 0.0
Cd172 Cd 0.35687 0.41315 0.06108 0.0
C173 C 0.35365 0.38893 0.98006 0.0
O174 O 0.33008 0.45341 0.05649 0.0
O175 O 0.30449 0.40509 0.04498 0.0
O176 O 0.3578 0.41181 0.12 0.0
C177 C 0.30565 0.43469 0.04802 0.0
O178 O 0.35149 0.41708 0.97858 0.0
C179 C 0.34951 0.3815 0.11653 0.0
O180 O 0.35674 0.38022 1.00657 0.0
O181 O 0.34637 0.366 0.08814 0.0
C182 C 0.85143 0.12802 0.04461 0.0
O183 O 0.84028 0.11378 0.06491 0.0
Cd184 Cd 0.79892 0.12231 0.08593 0.0
O185 O 0.84188 0.14931 0.03475 0.0
Cd186 Cd 0.80481 0.16732 0.04951 0.0
C187 C 0.8158 0.19962 0.12149 0.0
O188 O 0.76641 0.12129 0.04196 0.0
O189 O 0.76242 0.16835 0.06587 0.0
O190 O 0.78807 0.16786 0.9981 0.0
C191 C 0.75118 0.14072 0.04903 0.0
O192 O 0.80371 0.17158 0.12431 0.0
C193 C 0.79336 0.19815 1.00452 0.0
O194 O 0.82413 0.20418 0.09582 0.0
O195 O 0.8066 0.21358 0.03129 0.0
C196 C 0.15715 0.60544 0.28293 0.0
O197 O 0.13858 0.605 0.26031 0.0
Cd198 Cd 0.15331 0.60563 0.2127 0.0
O199 O 0.18042 0.59841 0.27869 0.0
Cd200 Cd 0.20482 0.57946 0.23799 0.0
C201 C 0.21571 0.65486 0.25127 0.0
O202 O 0.16671 0.55556 0.20552 0.0
O203 O 0.20043 0.57539 0.18115 0.0
O204 O 0.21199 0.53942 0.26111 0.0
C205 C 0.17457 0.561 0.18003 0.0
O206 O 0.19211 0.65286 0.23485 0.0
C207 C 0.23864 0.54791 0.26143 0.0
O208 O 0.22423 0.63043 0.25412 0.0
O209 O 0.24894 0.57008 0.24751 0.0
C210 C 0.92097 0.97261 0.54815 0.0
O211 O 0.9035 0.98259 0.53147 0.0
Cd212 Cd 0.85402 0.9621 0.5176 0.0
O213 O 0.91169 0.9483 0.56075 0.0
Cd214 Cd 0.85852 0.91124 0.55988 0.0
C215 C 0.85232 0.88556 0.48033 0.0
O216 O 0.8316 0.95239 0.5615 0.0
O217 O 0.8086 0.90617 0.53473 0.0
O218 O 0.86391 0.90716 0.61819 0.0
C219 C 0.80835 0.9348 0.54623 0.0
O220 O 0.8477 0.91291 0.47971 0.0
C221 C 0.84781 0.87924 0.61489 0.0
O222 O 0.8596 0.87779 0.50643 0.0
O223 O 0.83803 0.86521 0.58644 0.0
C224 C 1.00849 0.08036 0.34224 0.0
O225 O 0.01515 0.06154 0.32022 0.0
Cd226 Cd 0.98493 0.05941 0.27252 0.0
O227 O 0.99036 0.09631 0.33337 0.0
Cd228 Cd 0.96019 0.09601 0.27043 0.0
C229 C 0.92816 1.00651 0.26877 0.0
O230 O 1.00758 0.09343 0.23803 0.0
O231 O 0.96987 0.08552 0.20729 0.0
O232 O 0.95046 0.15766 0.29193 0.0
C233 C 0.99668 0.08901 0.20912 0.0
O234 O 0.9528 1.00505 0.26291 0.0
C235 C 0.92637 0.15609 0.27619 0.0
O236 O 0.92341 0.03513 0.27283 0.0
O237 O 0.91748 0.12835 0.25786 0.0
C238 C 0.34982 0.62533 0.54817 0.0
O239 O 0.33877 0.61326 0.56975 0.0
Cd240 Cd 0.295 0.62086 0.58469 0.0
O241 O 0.34067 0.64581 0.53632 0.0
Cd242 Cd 0.30552 0.66784 0.55 0.0
C243 C 0.31307 0.69797 0.62069 0.0
O244 O 0.2659 0.62208 0.53869 0.0
O245 O 0.26099 0.66932 0.55986 0.0
O246 O 0.29883 0.66963 0.49791 0.0
C247 C 0.25006 0.64114 0.54425 0.0
O248 O 0.29855 0.67016 0.62104 0.0
C249 C 0.29753 0.69859 0.50454 0.0
O250 O 0.32564 0.70289 0.59743 0.0
O251 O 0.30524 0.71444 0.5327 0.0
C252 C 0.5086 0.58138 0.84179 0.0
O253 O 0.51956 0.56641 0.82066 0.0
Cd254 Cd 0.48818 0.55784 0.77225 0.0
O255 O 0.48755 0.59303 0.8319 0.0
Cd256 Cd 0.45867 0.59515 0.76929 0.0
C257 C 0.42733 0.50639 0.76979 0.0
O258 O 0.50603 0.59467 0.73732 0.0
O259 O 0.46807 0.58213 0.70608 0.0
O260 O 0.45193 0.65889 0.78466 0.0
C261 C 0.49509 0.58799 0.70821 0.0
O262 O 0.45293 0.50539 0.76825 0.0
C263 C 0.4255 0.65575 0.77548 0.0
O264 O 0.42178 0.53431 0.7702 0.0
O265 O 0.41387 0.6261 0.76356 0.0
C266 C 0.66437 0.11054 0.79166 0.0
O267 O 0.64511 0.11239 0.77081 0.0
Cd268 Cd 0.64994 0.1034 0.71735 0.0
O269 O 0.68475 0.09893 0.78438 0.0
Cd270 Cd 0.70456 0.07956 0.74147 0.0
C271 C 0.714 0.15248 0.74525 0.0
O272 O 0.66707 0.05674 0.70588 0.0
O273 O 0.70375 0.08014 0.68686 0.0
O274 O 0.7128 0.03889 0.76192 0.0
C275 C 0.67796 0.06436 0.68227 0.0
O276 O 0.69252 0.14681 0.72409 0.0
C277 C 0.73945 0.04888 0.76311 0.0
O278 O 0.71868 0.13227 0.76094 0.0
O279 O 0.74963 0.07202 0.75023 0.0
C280 C 0.84859 0.68487 0.03232 0.0
O281 O 0.82838 0.66546 0.03994 0.0
Cd282 Cd 0.78227 0.66612 0.04718 0.0
O283 O 0.84394 0.70791 0.01974 0.0
Cd284 Cd 0.79738 0.724 1.00349 0.0
C285 C 0.80246 0.74705 0.08434 0.0
O286 O 0.76249 0.67101 0.99886 0.0
O287 O 0.74299 0.71015 1.00287 0.0
O288 O 0.81144 0.7257 0.94903 0.0
C289 C 0.73995 0.68023 1.00123 0.0
O290 O 0.7936 0.71721 0.08334 0.0
C291 C 0.80957 0.75411 0.94833 0.0
O292 O 0.80683 0.75784 0.05926 0.0
O293 O 0.80162 0.76883 0.97254 0.0
C294 C 0.99733 0.54882 0.87841 0.0
O295 O 1.00999 0.53308 0.85964 0.0
Cd296 Cd 1.01123 0.51724 0.80588 0.0
O297 O 0.97878 0.56253 0.86953 0.0
Cd298 Cd 0.95768 0.55393 0.81838 0.0
C299 C 0.94596 0.47666 0.80766 0.0
O300 O 0.99301 0.55618 0.78848 0.0
O301 O 0.95099 0.52743 0.76628 0.0
O302 O 0.95018 0.60205 0.81352 0.0
C303 C 0.97681 0.53832 0.76436 0.0
O304 O 0.96896 0.47526 0.79684 0.0
C305 C 0.92397 0.59004 0.80364 0.0
O306 O 0.94006 0.50228 0.82049 0.0
O307 O 0.91268 0.56178 0.80664 0.0
C308 C 0.91204 0.52052 0.50753 0.0
O309 O 0.89952 0.53846 0.49481 0.0
Cd310 Cd 0.85104 0.5123 0.47762 0.0
O311 O 0.89809 0.49523 0.51384 0.0
Cd312 Cd 0.85316 0.46737 0.51703 0.0
C313 C 0.85146 0.43539 0.44492 0.0
O314 O 0.83099 0.50915 0.52566 0.0
O315 O 0.80469 0.46036 0.51972 0.0
O316 O 0.87757 0.47928 0.56771 0.0
C317 C 0.80769 0.49044 0.52771 0.0
O318 O 0.85188 0.46327 0.43997 0.0
C319 C 0.87451 0.44978 0.56764 0.0
O320 O 0.85076 0.42987 0.47225 0.0
O321 O 0.85868 0.42887 0.54497 0.0
C322 C 0.65878 0.55752 0.35717 0.0
O323 O 0.65261 0.57893 0.34353 0.0
Cd324 Cd 0.67751 0.58037 0.29658 0.0
O325 O 0.67551 0.54125 0.3432 0.0
Cd326 Cd 0.70484 0.54038 0.28501 0.0
C327 C 0.73509 0.63028 0.29071 0.0
O328 O 0.65743 0.54368 0.24581 0.0
O329 O 0.69477 0.5457 0.22476 0.0
O330 O 0.71243 0.47697 0.27265 0.0
C331 C 0.66875 0.5463 0.22082 0.0
O332 O 0.7093 0.63065 0.29169 0.0
C333 C 0.73921 0.48127 0.28044 0.0
O334 O 0.74145 0.60283 0.29096 0.0
O335 O 0.75058 0.51136 0.28965 0.0
La336 La 0.05688 0.05055 0.0155 0.0
La337 La 0.10808 0.08654 0.05594 0.0
C338 C 1.00456 0.03359 0.99902 0.0
C339 C 0.98473 0.05381 0.99783 0.0
C340 C 0.96267 0.0455 0.97255 0.0
C341 C 0.94202 0.06261 0.97242 0.0
C342 C 0.94357 0.08805 0.99757 0.0
C343 C 0.96702 0.0985 0.02138 0.0
C344 C 0.98786 0.0816 0.0213 0.0
C345 C 0.09652 0.052 0.97506 0.0
C346 C 0.07525 0.1271 0.02227 0.0
C347 C 0.16068 0.10282 0.07207 0.0
C348 C 0.18105 0.08287 0.07161 0.0
C349 C 0.20379 0.09066 0.0962 0.0
C350 C 0.2249 0.07399 0.09464 0.0
C351 C 0.22302 0.04935 0.06862 0.0
C352 C 0.19921 0.03958 0.0453 0.0
C353 C 0.17809 0.05618 0.04686 0.0
C354 C 0.06816 0.08515 0.0966 0.0
C355 C 0.09053 1.01012 0.04862 0.0
O356 O 0.02249 0.03636 0.97892 0.0
O357 O 0.01658 0.03332 0.02715 0.0
O358 O 0.07013 0.03642 0.96865 0.0
O359 O 0.10025 0.06456 1.00524 0.0
O360 O 0.05645 0.09964 1.01064 0.0
O361 O 0.09821 0.12863 0.04169 0.0
O362 O 0.14282 0.09858 0.0921 0.0
O363 O 0.14839 0.10455 0.04454 0.0
O364 O 0.09468 0.10045 0.10266 0.0
O365 O 0.06442 0.07248 0.06637 0.0
O366 O 0.10911 0.03775 0.05959 0.0
O367 O 0.06714 1.00837 0.02974 0.0
H368 H 0.96073 0.02489 0.95372 0.0
H369 H 0.92378 0.05458 0.95407 0.0
H370 H 0.96809 0.11804 0.04116 0.0
H371 H 1.00562 0.08937 0.0402 0.0
H372 H 0.20582 0.11051 0.11587 0.0
H373 H 0.24335 0.08142 0.11271 0.0
H374 H 0.19781 1.02036 0.02512 0.0
H375 H 0.16018 0.04905 0.02811 0.0
La376 La 0.34606 0.81517 0.25572 0.0
La377 La 0.31447 0.82311 0.30353 0.0
C378 C 0.37284 0.81668 0.21024 0.0
C379 C 0.37896 0.83974 0.19094 0.0
C380 C 0.4065 0.84734 0.1839 0.0
C381 C 0.41477 0.87232 0.16895 0.0
C382 C 0.39524 0.88925 0.16061 0.0
C383 C 0.36753 0.88197 0.16797 0.0
C384 C 0.35947 0.85746 0.18374 0.0
C385 C 0.37273 0.804 0.30785 0.0
C386 C 0.34418 0.88411 0.29016 0.0
C387 C 0.29131 0.82264 0.35161 0.0
C388 C 0.28574 0.80119 0.37215 0.0
C389 C 0.26295 0.80256 0.38868 0.0
C390 C 0.255 0.78019 0.40661 0.0
C391 C 0.26997 0.75681 0.40762 0.0
C392 C 0.29185 0.75416 0.38963 0.0
C393 C 0.29967 0.77646 0.37147 0.0
C394 C 0.27964 0.82652 0.25335 0.0
C395 C 0.30867 0.75772 0.2665 0.0
O396 O 0.38451 0.82805 0.23951 0.0
O397 O 0.34644 0.80081 0.20728 0.0
O398 O 0.36877 0.78654 0.27978 0.0
O399 O 0.36003 0.8264 0.30639 0.0
O400 O 0.34672 0.86568 0.26359 0.0
O401 O 0.33374 0.87195 0.31269 0.0
O402 O 0.27822 0.80958 0.32316 0.0
O403 O 0.31781 0.83764 0.35261 0.0
O404 O 0.27573 0.83199 0.2822 0.0
O405 O 0.30438 0.82221 0.25256 0.0
O406 O 0.31553 0.77408 0.29533 0.0
O407 O 0.31492 0.77132 0.2432 0.0
H408 H 0.42174 0.83425 0.19051 0.0
H409 H 0.43607 0.87788 0.16306 0.0
H410 H 0.35204 0.8946 0.16082 0.0
H411 H 0.33834 0.85241 0.19023 0.0
H412 H 0.25156 0.82106 0.3879 0.0
H413 H 0.23854 0.78226 0.42123 0.0
H414 H 0.3039 0.73631 0.39129 0.0
H415 H 0.31656 0.77476 0.35743 0.0
La416 La 0.61375 0.06608 0.52997 0.0
La417 La 0.5545 0.07167 0.54424 0.0
C418 C 0.66201 0.0561 0.52792 0.0
C419 C 0.67601 0.02963 0.5228 0.0
C420 C 0.69053 0.02536 0.49662 0.0
C421 C 0.70964 1.00592 0.49552 0.0
C422 C 0.71435 0.99085 0.5207 0.0
C423 C 0.69788 0.9927 0.54524 0.0
C424 C 0.67873 1.01185 0.54625 0.0
C425 C 0.57659 0.06181 0.48228 0.0
C426 C 0.56547 1.00336 0.53255 0.0
C427 C 0.50668 0.083 0.54279 0.0
C428 C 0.49341 0.10971 0.55034 0.0
C429 C 0.47792 0.11152 0.57581 0.0
C430 C 0.45867 0.13069 0.57766 0.0
C431 C 0.45507 0.14809 0.55414 0.0
C432 C 0.47247 0.14879 0.53058 0.0
C433 C 0.49167 0.12978 0.52872 0.0
C434 C 0.59258 0.07934 0.59274 0.0
C435 C 0.60168 0.13431 0.54022 0.0
O436 O 0.64631 0.05988 0.50339 0.0
O437 O 0.65083 0.06078 0.55406 0.0
O438 O 0.6033 0.07443 0.48335 0.0
O439 O 0.572 0.05074 0.50609 0.0
O440 O 0.59301 1.01768 0.5363 0.0
O441 O 0.54586 1.01971 0.53081 0.0
O442 O 0.5183 0.07291 0.56628 0.0
O443 O 0.52168 0.08391 0.51954 0.0
O444 O 0.56595 0.06664 0.59249 0.0
O445 O 0.59624 0.088 0.56762 0.0
O446 O 0.57443 0.12011 0.53822 0.0
O447 O 0.62159 0.11821 0.54147 0.0
H448 H 0.68856 0.03873 0.47815 0.0
H449 H 0.7222 1.00461 0.47637 0.0
H450 H 0.70117 0.98091 0.56469 0.0
H451 H 0.66758 1.01433 0.56652 0.0
H452 H 0.47896 0.09625 0.59272 0.0
H453 H 0.44502 0.1299 0.5958 0.0
H454 H 0.46946 0.16184 0.51206 0.0
H455 H 0.5033 0.1289 0.50876 0.0
La456 La 0.30488 0.33095 0.7858 0.0
La457 La 0.35828 0.31105 0.78213 0.0
C458 C 0.25695 0.33792 0.79788 0.0
C459 C 0.23836 0.33804 0.82264 0.0
C460 C 0.2237 0.36226 0.82688 0.0
C461 C 0.20215 0.36075 0.84577 0.0
C462 C 0.19499 0.33496 0.86085 0.0
C463 C 0.21069 0.31157 0.85822 0.0
C464 C 0.23234 0.31306 0.83924 0.0
C465 C 0.34804 0.3781 0.77608 0.0
C466 C 0.34491 0.33338 0.84913 0.0
C467 C 0.40841 0.31387 0.77158 0.0
C468 C 0.42428 0.30649 0.74506 0.0
C469 C 0.43132 0.27691 0.7375 0.0
C470 C 0.45065 0.27269 0.71633 0.0
C471 C 0.46463 0.29855 0.7037 0.0
C472 C 0.45557 0.32715 0.70945 0.0
C473 C 0.4355 0.33091 0.72951 0.0
C474 C 0.31675 0.25696 0.7827 0.0
C475 C 0.31704 0.30399 0.71922 0.0
O476 O 0.27946 0.36163 0.80211 0.0
O477 O 0.26165 0.31055 0.78491 0.0
O478 O 0.32186 0.37067 0.76254 0.0
O479 O 0.3493 0.35826 0.79436 0.0
O480 O 0.31935 0.33237 0.83528 0.0
O481 O 0.36527 0.32799 0.83287 0.0
O482 O 0.39337 0.2903 0.78215 0.0
O483 O 0.39557 0.33689 0.77049 0.0
O484 O 0.3435 0.25896 0.7819 0.0
O485 O 0.31473 0.28575 0.78353 0.0
O486 O 0.34323 0.30793 0.73266 0.0
O487 O 0.29665 0.30792 0.736 0.0
H488 H 0.22797 0.38161 0.81423 0.0
H489 H 0.19019 0.3789 0.84737 0.0
H490 H 0.20538 0.29149 0.86978 0.0
H491 H 0.2434 0.29407 0.83651 0.0
H492 H 0.42269 0.2574 0.74871 0.0
H493 H 0.45516 0.24938 0.71088 0.0
H494 H 0.46531 0.34772 0.70032 0.0
H495 H 0.43026 0.35394 0.73444 0.0
La496 La 0.08105 0.09883 0.54892 0.0
La497 La 0.0922 0.04274 0.52309 0.0
C498 C 0.07715 0.15561 0.55671 0.0
C499 C 0.07968 0.17652 0.53408 0.0
C500 C 0.06212 0.19761 0.53367 0.0
C501 C 0.06547 0.21915 0.51364 0.0
C502 C 0.08659 0.21971 0.49413 0.0
C503 C 0.1033 0.19749 0.49338 0.0
C504 C 0.09914 0.17522 0.51246 0.0
C505 C 0.03929 0.04925 0.55421 0.0
C506 C 0.0637 0.0725 0.47241 0.0
C507 C 0.09268 0.98516 0.51408 0.0
C508 C 0.09152 0.96419 0.53637 0.0
C509 C 0.10637 0.94038 0.53228 0.0
C510 C 0.10231 0.91707 0.55025 0.0
C511 C 0.08346 0.9179 0.57224 0.0
C512 C 0.07047 0.94329 0.57853 0.0
C513 C 0.07488 0.96686 0.56087 0.0
C514 C 0.13427 0.09155 0.51716 0.0
C515 C 0.11043 0.06833 0.59917 0.0
O516 O 0.05515 0.13128 0.54981 0.0
O517 O 0.10019 0.14752 0.56588 0.0
O518 O 0.0496 0.07531 0.57556 0.0
O519 O 0.05213 0.05252 0.53059 0.0
O520 O 0.07038 0.09739 0.49681 0.0
O521 O 0.06961 0.04557 0.47729 0.0
O522 O 0.11576 1.00804 0.51844 0.0
O523 O 0.06971 0.99495 0.50856 0.0
O524 O 0.12406 0.06509 0.49632 0.0
O525 O 0.12135 0.08947 0.541 0.0
O526 O 0.10335 0.04343 0.57488 0.0
O527 O 0.10499 0.09563 0.59431 0.0
H528 H 0.04621 0.19778 0.54927 0.0
H529 H 0.05221 0.23597 0.51403 0.0
H530 H 0.12 0.19785 0.4787 0.0
H531 H 0.11134 0.1574 0.51055 0.0
H532 H 0.12002 0.93901 0.51421 0.0
H533 H 0.11263 0.89755 0.54587 0.0
H534 H 0.05601 0.94395 0.59587 0.0
H535 H 0.06455 0.98629 0.56551 0.0
La536 La 0.35884 0.84151 0.77683 0.0
La537 La 0.30596 0.79751 0.78622 0.0
C538 C 0.40904 0.87322 0.79069 0.0
C539 C 0.43614 0.8645 0.79647 0.0
C540 C 0.45097 0.85611 0.77152 0.0
C541 C 0.47781 0.85085 0.77787 0.0
C542 C 0.49032 0.85451 0.80924 0.0
C543 C 0.47464 0.86048 0.83393 0.0
C544 C 0.4478 0.86548 0.8276 0.0
C545 C 0.32893 0.80324 0.72578 0.0
C546 C 0.36097 0.76647 0.78453 0.0
C547 C 0.25503 0.76814 0.77113 0.0
C548 C 0.22757 0.77637 0.76808 0.0
C549 C 0.21081 0.77602 0.79246 0.0
C550 C 0.18329 0.77985 0.78713 0.0
C551 C 0.17273 0.78438 0.7576 0.0
C552 C 0.18991 0.78658 0.73393 0.0
C553 C 0.21705 0.78244 0.73902 0.0
C554 C 0.33669 0.83392 0.83749 0.0
C555 C 0.30422 0.87237 0.77741 0.0
O556 O 0.39562 0.86522 0.76159 0.0
O557 O 0.39209 0.8679 0.81168 0.0
O558 O 0.34379 0.83208 0.72607 0.0
O559 O 0.33322 0.79725 0.75253 0.0
O560 O 0.37477 0.79699 0.78442 0.0
O561 O 0.33257 0.76043 0.78373 0.0
O562 O 0.2689 0.77093 0.79944 0.0
O563 O 0.27142 0.77928 0.7517 0.0
O564 O 0.32057 0.80564 0.83672 0.0
O565 O 0.33203 0.84092 0.81115 0.0
O566 O 0.29061 0.84243 0.77932 0.0
O567 O 0.33236 0.87819 0.77719 0.0
H568 H 0.4423 0.85463 0.74724 0.0
H569 H 0.48933 0.84542 0.75839 0.0
H570 H 0.48378 0.86336 0.85834 0.0
H571 H 0.43676 0.87152 0.84728 0.0
H572 H 0.2185 0.77156 0.81504 0.0
H573 H 0.16991 0.77806 0.80546 0.0
H574 H 0.18179 0.78977 0.71089 0.0
H575 H 0.22931 0.78278 0.7196 0.0
La576 La 0.58805 0.06237 0.06437 0.0
La577 La 0.57641 0.07595 1.00288 0.0
C578 C 0.58491 0.05149 0.11773 0.0
C579 C 0.55997 0.03532 0.12894 0.0
C580 C 0.55632 1.00291 0.1301 0.0
C581 C 0.53198 0.98653 0.13923 0.0
C582 C 0.51199 1.003 0.14943 0.0
C583 C 0.51482 0.03498 0.14613 0.0
C584 C 0.53843 0.05085 0.1354 0.0
C585 C 0.61041 0.03057 0.02138 0.0
C586 C 0.52971 0.02797 0.02 0.0
C587 C 0.58255 0.09109 0.95163 0.0
C588 C 0.60851 0.10929 0.94373 0.0
C589 C 0.61118 0.14158 0.94275 0.0
C590 C 0.63383 0.15791 0.9307 0.0
C591 C 0.65287 0.14129 0.91805 0.0
C592 C 0.65303 0.11091 0.92442 0.0
C593 C 0.6308 0.09486 0.93723 0.0
C594 C 0.5539 0.10681 0.04577 0.0
C595 C 0.63448 0.10979 0.04759 0.0
O596 O 0.59386 0.0331 0.09581 0.0
O597 O 0.58434 0.07947 0.11125 0.0
O598 O 0.62252 0.04252 0.05008 0.0
O599 O 0.58612 0.03553 0.01761 0.0
O600 O 0.54329 0.03902 0.04914 0.0
O601 O 0.54151 0.03521 0.99562 0.0
O602 O 0.57094 0.10703 0.97279 0.0
O603 O 0.58322 0.06279 0.95657 0.0
O604 O 0.54118 0.09449 0.01728 0.0
O605 O 0.57843 0.1025 0.04913 0.0
O606 O 0.62091 0.09922 0.01864 0.0
O607 O 0.62367 0.10177 0.072 0.0
H608 H 0.57237 0.99024 0.12409 0.0
H609 H 0.52978 0.9616 0.14034 0.0
H610 H 0.49998 0.0487 0.15398 0.0
H611 H 0.54016 0.07554 0.13335 0.0
H612 H 0.59469 0.15345 0.94897 0.0
H613 H 0.63357 0.18141 0.92614 0.0
H614 H 0.6675 0.0974 0.91503 0.0
H615 H 0.62998 0.07036 0.93937 0.0
La616 La 0.34135 0.35043 0.29916 0.0
La617 La 0.31446 0.28242 0.26751 0.0
C618 C 0.35333 0.40925 0.31789 0.0
C619 C 0.33527 0.43039 0.31483 0.0
C620 C 0.3373 0.456 0.33992 0.0
C621 C 0.3201 0.47672 0.33742 0.0
C622 C 0.30093 0.47116 0.31004 0.0
C623 C 0.2975 0.44454 0.28557 0.0
C624 C 0.31461 0.42378 0.28807 0.0
C625 C 0.33881 0.3094 0.33762 0.0
C626 C 0.27442 0.32338 0.28837 0.0
C627 C 0.3032 0.22317 0.25971 0.0
C628 C 0.3233 0.20324 0.25893 0.0
C629 C 0.32386 0.18189 0.23089 0.0
C630 C 0.34314 0.16291 0.23023 0.0
C631 C 0.36208 0.16598 0.25741 0.0
C632 C 0.36212 0.18782 0.28515 0.0
C633 C 0.34309 0.20669 0.28585 0.0
C634 C 0.32155 0.31664 0.22228 0.0
C635 C 0.37965 0.31086 0.27253 0.0
O636 O 0.34513 0.38939 0.33614 0.0
O637 O 0.35996 0.39555 0.29131 0.0
O638 O 0.36037 0.33308 0.33828 0.0
O639 O 0.32037 0.30922 0.31513 0.0
O640 O 0.29611 0.34839 0.29065 0.0
O641 O 0.27625 0.29369 0.27978 0.0
O642 O 0.30147 0.2377 0.23611 0.0
O643 O 0.30433 0.24205 0.28697 0.0
O644 O 0.30869 0.28665 0.21774 0.0
O645 O 0.32775 0.32639 0.25186 0.0
O646 O 0.35976 0.28616 0.27543 0.0
O647 O 0.37645 0.3401 0.2778 0.0
H648 H 0.35256 0.46028 0.36099 0.0
H649 H 0.32254 0.49769 0.35603 0.0
H650 H 0.28261 0.44077 0.26418 0.0
H651 H 0.31222 0.40328 0.26893 0.0
H652 H 0.30926 0.17973 0.20974 0.0
H653 H 0.34313 0.14572 0.20888 0.0
H654 H 0.37651 0.18974 0.30648 0.0
H655 H 0.34377 0.22358 0.30763 0.0
La656 La 0.58057 0.59651 0.04706 0.0
La657 La 0.5921 0.54075 0.0203 0.0
C658 C 0.57963 0.65425 0.05487 0.0
C659 C 0.57739 0.67418 0.03184 0.0
C660 C 0.56743 0.70163 0.03996 0.0
C661 C 0.57122 0.72456 0.02142 0.0
C662 C 0.58487 0.71964 0.99487 0.0
C663 C 0.59144 0.69049 0.98444 0.0
C664 C 0.58773 0.6677 1.00298 0.0
C665 C 0.53854 0.54765 0.05208 0.0
C666 C 0.56073 0.56957 0.97066 0.0
C667 C 0.59464 0.48364 1.01164 0.0
C668 C 0.59395 0.46325 0.03459 0.0
C669 C 0.60893 0.43956 0.03155 0.0
C670 C 0.60563 0.41759 0.05116 0.0
C671 C 0.58592 0.41807 0.07257 0.0
C672 C 0.57266 0.44359 0.07713 0.0
C673 C 0.57779 0.46686 0.05927 0.0
C674 C 0.63336 0.59012 0.01534 0.0
C675 C 0.60947 0.56582 0.09724 0.0
O676 O 0.55725 0.63142 0.0543 0.0
O677 O 0.60299 0.64455 0.05686 0.0
O678 O 0.54878 0.57385 0.07334 0.0
O679 O 0.55169 0.55012 0.0284 0.0
O680 O 0.56519 0.59357 0.9956 0.0
O681 O 0.56955 0.54383 0.97444 0.0
O682 O 0.61708 0.50734 0.01598 0.0
O683 O 0.57122 0.49239 1.00556 0.0
O684 O 0.62261 0.5649 0.99313 0.0
O685 O 0.62094 0.58687 0.03933 0.0
O686 O 0.60562 0.54231 0.07189 0.0
O687 O 0.60147 0.59211 0.09347 0.0
H688 H 0.55865 0.70633 0.06173 0.0
H689 H 0.56566 0.74706 0.02912 0.0
H690 H 0.60104 0.68648 0.96317 0.0
H691 H 0.59468 0.64617 0.99596 0.0
H692 H 0.62269 0.43771 1.01363 0.0
H693 H 0.61782 0.39972 0.04869 0.0
H694 H 0.55747 0.44508 0.09351 0.0
H695 H 0.56813 0.48685 0.06385 0.0
La696 La 0.85898 0.34111 0.27755 0.0
La697 La 0.80641 0.29693 0.28586 0.0
C698 C 0.90952 0.37147 0.28985 0.0
C699 C 0.93573 0.36085 0.29461 0.0
C700 C 0.955 0.36409 0.27293 0.0
C701 C 0.98178 0.35894 0.27993 0.0
C702 C 0.98939 0.35081 0.30875 0.0
C703 C 0.9693 0.3444 0.32893 0.0
C704 C 0.9425 0.34918 0.32184 0.0
C705 C 0.82904 0.30489 0.22584 0.0
C706 C 0.86108 0.26591 0.28422 0.0
C707 C 0.75622 0.26454 0.27413 0.0
C708 C 0.7288 0.272 0.26737 0.0
C709 C 0.71344 0.28092 0.29164 0.0
C710 C 0.68699 0.28686 0.28425 0.0
C711 C 0.6759 0.28404 0.25261 0.0
C712 C 0.69137 0.27535 0.22846 0.0
C713 C 0.71763 0.26961 0.23576 0.0
C714 C 0.83682 0.33322 0.33751 0.0
C715 C 0.80409 0.3715 0.27722 0.0
O716 O 0.89554 0.36383 0.26106 0.0
O717 O 0.89298 0.36739 0.31139 0.0
O718 O 0.84341 0.33419 0.22751 0.0
O719 O 0.83344 0.2974 0.25189 0.0
O720 O 0.87496 0.29656 0.28508 0.0
O721 O 0.83274 0.25982 0.2829 0.0
O722 O 0.76998 0.2745 0.303 0.0
O723 O 0.77271 0.26944 0.25279 0.0
O724 O 0.82268 0.30381 0.33579 0.0
O725 O 0.83194 0.3408 0.31159 0.0
O726 O 0.79023 0.34096 0.27698 0.0
O727 O 0.83247 0.37773 0.2789 0.0
H728 H 0.94997 0.37236 0.25152 0.0
H729 H 0.99725 0.36395 0.26417 0.0
H730 H 0.975 0.33788 0.35118 0.0
H731 H 0.92781 0.34551 0.33866 0.0
H732 H 0.72164 0.28293 0.31617 0.0
H733 H 0.67509 0.29329 0.30308 0.0
H734 H 0.68282 0.27199 0.20378 0.0
H735 H 0.72888 0.26265 0.21645 0.0
La736 La 0.08477 0.56087 0.56307 0.0
La737 La 0.07872 0.57547 0.50208 0.0
C738 C 0.07509 0.54945 0.61448 0.0
C739 C 0.05158 0.52666 0.62114 0.0
C740 C 0.05717 0.50029 0.63224 0.0
C741 C 0.03732 0.48307 0.64703 0.0
C742 C 1.01281 0.49346 0.65138 0.0
C743 C 1.00423 0.51409 0.63332 0.0
C744 C 0.02417 0.53169 0.61874 0.0
C745 C 0.10684 0.5262 0.52216 0.0
C746 C 0.02923 0.52806 0.51364 0.0
C747 C 0.09189 0.58607 0.45127 0.0
C748 C 0.11322 0.61104 0.44387 0.0
C749 C 0.10691 0.63961 0.43895 0.0
C750 C 0.1235 0.6579 0.42161 0.0
C751 C 0.14534 0.64654 0.40885 0.0
C752 C 0.15566 0.62283 0.42061 0.0
C753 C 0.1391 0.60442 0.43757 0.0
C754 C 0.05617 0.60927 0.54278 0.0
C755 C 0.1346 0.6086 0.55127 0.0
O756 O 0.09207 0.53628 0.59824 0.0
O757 O 0.06926 0.57434 0.60493 0.0
O758 O 0.11735 0.53645 0.55153 0.0
O759 O 0.08373 0.53353 0.51692 0.0
O760 O 0.04065 0.53798 0.54358 0.0
O761 O 0.04378 0.53459 0.491 0.0
O762 O 0.06977 0.59395 0.4621 0.0
O763 O 0.10263 0.56773 0.46689 0.0
O764 O 0.04522 0.59898 0.51339 0.0
O765 O 0.07961 0.60255 0.54777 0.0
O766 O 0.12118 0.60281 0.52238 0.0
O767 O 0.12316 0.59722 0.57397 0.0
H768 H 0.07797 0.49545 0.63291 0.0
H769 H 0.04379 0.46686 0.66076 0.0
H770 H 0.98491 0.52181 0.63645 0.0
H771 H 0.01905 0.55115 0.60886 0.0
H772 H 0.08751 0.64565 0.44484 0.0
H773 H 0.11574 0.67651 0.41283 0.0
H774 H 0.17286 0.61404 0.41124 0.0
H775 H 0.14486 0.58292 0.44214 0.0
La776 La 0.8028 0.82944 0.28265 0.0
La777 La 0.85951 0.80851 0.28253 0.0
C778 C 0.75247 0.82844 0.29175 0.0
C779 C 0.73568 0.83205 0.31815 0.0
C780 C 0.72157 0.85683 0.32161 0.0
C781 C 0.70139 0.85768 0.34215 0.0
C782 C 0.69503 0.83384 0.35986 0.0
C783 C 0.71057 0.81025 0.35812 0.0
C784 C 0.73076 0.80934 0.33746 0.0
C785 C 0.84581 0.8814 0.28009 0.0
C786 C 0.8426 0.83408 0.34763 0.0
C787 C 0.90956 0.80892 0.27375 0.0
C788 C 0.92573 0.80456 0.24714 0.0
C789 C 0.94101 0.78095 0.2453 0.0
C790 C 0.96111 0.78007 0.22482 0.0
C791 C 0.96598 0.8025 0.20525 0.0
C792 C 0.94882 0.82438 0.2051 0.0
C793 C 0.92885 0.82549 0.22594 0.0
C794 C 0.81615 0.75662 0.28408 0.0
C795 C 0.8201 0.80299 0.21758 0.0
O796 O 0.77071 0.85406 0.28856 0.0
O797 O 0.76223 0.8028 0.28605 0.0
O798 O 0.81905 0.88026 0.27977 0.0
O799 O 0.84675 0.85243 0.28143 0.0
O800 O 0.81793 0.83456 0.33242 0.0
O801 O 0.86341 0.82677 0.33298 0.0
O802 O 0.8913 0.78355 0.2774 0.0
O803 O 0.90008 0.83478 0.27907 0.0
O804 O 0.84295 0.75753 0.28577 0.0
O805 O 0.81562 0.78566 0.28284 0.0
O806 O 0.84477 0.80269 0.23277 0.0
O807 O 0.79938 0.81119 0.23202 0.0
H808 H 0.72511 0.87473 0.30719 0.0
H809 H 0.68996 0.87631 0.34328 0.0
H810 H 0.70597 0.79141 0.37134 0.0
H811 H 0.74143 0.79001 0.33556 0.0
H812 H 0.93875 0.76444 0.26125 0.0
H813 H 0.97417 0.76325 0.22614 0.0
H814 H 0.9518 0.84162 0.18994 0.0
H815 H 0.91695 0.84366 0.22648 0.0
La816 La 0.84232 0.3167 0.75952 0.0
La817 La 0.81235 0.32249 0.80422 0.0
C818 C 0.86985 0.31959 0.71454 0.0
C819 C 0.87652 0.34177 0.69464 0.0
C820 C 0.90402 0.34793 0.68728 0.0
C821 C 0.91258 0.37141 0.67068 0.0
C822 C 0.89355 0.3886 0.66183 0.0
C823 C 0.86577 0.38249 0.66902 0.0
C824 C 0.8573 0.35924 0.68605 0.0
C825 C 0.87121 0.30432 0.81028 0.0
C826 C 0.84736 0.38311 0.79796 0.0
C827 C 0.78218 0.31781 0.84678 0.0
C828 C 0.77489 0.29453 0.86528 0.0
C829 C 0.75453 0.298 0.88489 0.0
C830 C 0.74908 0.27762 0.90541 0.0
C831 C 0.76403 0.2541 0.90564 0.0
C832 C 0.78243 0.24849 0.8839 0.0
C833 C 0.78826 0.26923 0.86382 0.0
C834 C 0.7845 0.33585 0.75384 0.0
C835 C 0.80831 0.25635 0.76806 0.0
O836 O 0.88075 0.33161 0.74386 0.0
O837 O 0.84347 0.30383 0.7111 0.0
O838 O 0.86667 0.28797 0.78168 0.0
O839 O 0.85796 0.32635 0.8102 0.0
O840 O 0.84247 0.36683 0.76881 0.0
O841 O 0.83959 0.36855 0.8202 0.0
O842 O 0.77266 0.30698 0.81699 0.0
O843 O 0.80868 0.33362 0.85213 0.0
O844 O 0.78977 0.35252 0.78228 0.0
O845 O 0.79696 0.31313 0.75337 0.0
O846 O 0.81312 0.27293 0.79677 0.0
O847 O 0.81517 0.27052 0.74539 0.0
H848 H 0.91893 0.33482 0.69475 0.0
H849 H 0.93375 0.37591 0.66435 0.0
H850 H 0.8507 0.39527 0.66106 0.0
H851 H 0.83612 0.35497 0.69245 0.0
H852 H 0.74421 0.31756 0.88562 0.0
H853 H 0.73546 0.28209 0.92303 0.0
H854 H 0.79455 0.23062 0.88504 0.0
H855 H 0.80438 0.26674 0.84899 0.0
La856 La 0.84099 0.84813 0.79718 0.0
La857 La 0.81494 0.7848 0.76621 0.0
C858 C 0.85176 0.90716 0.81536 0.0
C859 C 0.8323 0.9273 0.8147 0.0
C860 C 0.83635 0.95413 0.83905 0.0
C861 C 0.81974 0.97558 0.83691 0.0
C862 C 0.79905 0.9695 0.8107 0.0
C863 C 0.79301 0.94121 0.78781 0.0
C864 C 0.80982 0.92006 0.78967 0.0
C865 C 0.83597 0.80856 0.83712 0.0
C866 C 0.77455 0.82401 0.78677 0.0
C867 C 0.80465 0.72555 0.74923 0.0
C868 C 0.82455 0.70576 0.75056 0.0
C869 C 0.82271 0.68038 0.72522 0.0
C870 C 0.84083 0.66034 0.7269 0.0
C871 C 0.8611 0.66648 0.75356 0.0
C872 C 0.86417 0.6929 0.7782 0.0
C873 C 0.84593 0.71266 0.77671 0.0
C874 C 0.81951 0.82421 0.72602 0.0
C875 C 0.88152 0.80946 0.77697 0.0
O876 O 0.84728 0.88758 0.83463 0.0
O877 O 0.85595 0.8934 0.78761 0.0
O878 O 0.85835 0.83118 0.83774 0.0
O879 O 0.818 0.80858 0.8143 0.0
O880 O 0.79626 0.84709 0.78463 0.0
O881 O 0.77675 0.79435 0.7814 0.0
O882 O 0.80875 0.74463 0.72943 0.0
O883 O 0.80022 0.73984 0.77667 0.0
O884 O 0.79751 0.80111 0.72554 0.0
O885 O 0.83776 0.8246 0.74883 0.0
O886 O 0.85981 0.78591 0.77814 0.0
O887 O 0.87906 0.83896 0.78191 0.0
H888 H 0.85326 0.95926 0.85869 0.0
H889 H 0.82418 0.99777 0.8544 0.0
H890 H 0.77687 0.93684 0.76742 0.0
H891 H 0.80637 0.89943 0.77053 0.0
H892 H 0.80677 0.67559 0.70466 0.0
H893 H 0.83856 0.63965 0.70804 0.0
H894 H 0.87973 0.69726 0.79913 0.0
H895 H 0.84799 0.7325 0.79641 0.0
La896 La 0.55709 0.55103 0.5154 0.0
La897 La 0.60733 0.58711 0.55536 0.0
C898 C 0.50487 0.53274 0.49679 0.0
C899 C 0.48441 0.55215 0.4967 0.0
C900 C 0.45822 0.53991 0.47758 0.0
C901 C 0.43751 0.55696 0.48013 0.0
C902 C 0.44339 0.58681 0.50111 0.0
C903 C 0.47078 0.60066 0.5174 0.0
C904 C 0.49098 0.58302 0.51592 0.0
C905 C 0.59594 0.5521 0.47427 0.0
C906 C 0.5753 0.62743 0.52139 0.0
C907 C 0.6596 0.60554 0.57395 0.0
C908 C 0.68142 0.58788 0.5693 0.0
C909 C 0.70253 0.59081 0.59461 0.0
C910 C 0.72232 0.5725 0.59148 0.0
C911 C 0.72095 0.55095 0.56302 0.0
C912 C 0.69967 0.54765 0.53773 0.0
C913 C 0.67972 0.5657 0.54099 0.0
C914 C 0.56726 0.58592 0.59616 0.0
C915 C 0.5913 0.51068 0.54727 0.0
O916 O 0.52353 0.5385 0.47798 0.0
O917 O 0.5164 0.53122 0.5247 0.0
O918 O 0.56993 0.53551 0.46917 0.0
O919 O 0.60073 0.56542 0.50435 0.0
O920 O 0.55607 0.60014 0.51098 0.0
O921 O 0.5986 0.62888 0.53993 0.0
O922 O 0.6413 0.59416 0.59136 0.0
O923 O 0.64744 0.6124 0.54876 0.0
O924 O 0.59355 0.60178 0.60186 0.0
O925 O 0.56359 0.57297 0.5661 0.0
O926 O 0.61029 0.53826 0.55578 0.0
O927 O 0.5667 0.50908 0.53091 0.0
H928 H 0.45321 0.51636 0.46225 0.0
H929 H 0.41637 0.54543 0.4678 0.0
H930 H 0.47566 0.62374 0.53361 0.0
H931 H 0.51099 0.59276 0.53124 0.0
H932 H 0.7035 0.60705 0.61689 0.0
H933 H 0.73863 0.57508 0.6112 0.0
H934 H 0.69868 0.53147 0.51537 0.0
H935 H 0.66296 0.56217 0.52152 0.0
La936 La 0.11325 0.5685 0.02799 0.0
La937 La 0.05249 0.56815 0.04092 0.0
C938 C 0.16144 0.55906 0.022 0.0
C939 C 0.17647 0.53346 0.02087 0.0
C940 C 0.18799 0.52374 0.99351 0.0
C941 C 0.20651 0.5037 0.99372 0.0
C942 C 0.21366 0.49312 0.02132 0.0
C943 C 0.20125 0.50191 0.0483 0.0
C944 C 0.18255 0.52158 0.04799 0.0
C945 C 0.07503 0.56203 0.98079 0.0
C946 C 0.0688 0.50323 0.03221 0.0
C947 C 1.0035 0.57655 0.04016 0.0
C948 C 0.98994 0.60354 0.04549 0.0
C949 C 0.98131 0.61323 0.07478 0.0
C950 C 0.96402 0.63472 0.07793 0.0
C951 C 0.9536 0.64536 0.05137 0.0
C952 C 0.96441 0.63769 0.02294 0.0
C953 C 0.98266 0.6174 0.02019 0.0
C954 C 0.08925 0.5756 0.08996 0.0
C955 C 0.09792 0.63418 0.03949 0.0
O956 O 0.14206 0.55634 0.99801 0.0
O957 O 0.15379 0.56975 0.04903 0.0
O958 O 0.10026 0.58001 0.98273 0.0
O959 O 0.07231 0.54962 1.00393 0.0
O960 O 0.0955 0.5209 0.03867 0.0
O961 O 0.0473 0.51658 0.02821 0.0
O962 O 0.01781 0.5712 0.0649 0.0
O963 O 0.01604 0.573 1.01489 0.0
O964 O 0.06289 0.56074 0.08781 0.0
O965 O 0.09372 0.58663 0.06605 0.0
O966 O 0.07105 0.6173 0.03507 0.0
O967 O 0.11932 0.62021 0.0408 0.0
H968 H 0.18355 0.53269 0.97236 0.0
H969 H 0.21578 0.4971 0.97265 0.0
H970 H 0.2069 0.49467 0.07014 0.0
H971 H 0.17401 0.52866 0.06948 0.0
H972 H 0.987 0.60335 0.09495 0.0
H973 H 0.95805 0.64184 0.10094 0.0
H974 H 0.95733 0.64543 1.00193 0.0
H975 H 0.98945 0.61091 0.99747 0.0
C976 C 0.0643 0.18415 0.96773 0.0
C977 C 0.0545 0.20822 0.98653 0.0
C978 C 0.07168 0.15877 0.97987 0.0
C979 C 0.07039 0.15632 1.0115 0.0
H980 H 0.066 0.1846 0.94316 0.0
H981 H 0.0778 0.14044 0.9641 0.0
S982 S 0.04586 0.21168 0.07108 0.0
N983 N 0.04374 0.22702 0.03908 0.0
N984 N 0.05818 0.17956 0.06143 0.0
C985 C 0.06121 0.18018 0.03083 0.0
C986 C 0.05327 0.20601 0.01851 0.0
C987 C 0.22295 0.81635 0.18119 0.0
C988 C 0.21492 0.8459 0.18683 0.0
C989 C 0.24499 0.81021 0.20144 0.0
C990 C 0.26032 0.83362 0.2279 0.0
H991 H 0.21141 0.79738 0.16162 0.0
H992 H 0.24927 0.78668 0.19696 0.0
S993 S 0.24905 0.91477 0.25302 0.0
N994 N 0.22507 0.89858 0.22131 0.0
N995 N 0.26628 0.88727 0.2581 0.0
C996 C 0.25286 0.8631 0.23335 0.0
C997 C 0.23034 0.86921 0.21326 0.0
C998 C 0.53043 0.92082 0.48333 0.0
C999 C 0.5485 0.90226 0.49302 0.0
C1000 C 0.53446 0.95318 0.4979 0.0
C1001 C 0.557 0.96815 0.52251 0.0
H1002 H 0.51413 0.91075 0.46299 0.0
H1003 H 0.52116 0.96697 0.48827 0.0
S1004 S 0.60948 0.93071 0.55765 0.0
N1005 N 0.58915 0.90146 0.52967 0.0
N1006 N 0.59635 0.96222 0.55708 0.0
C1007 C 0.57421 0.94965 0.53342 0.0
C1008 C 0.57011 0.91669 0.51871 0.0
C1009 C 0.52528 0.32285 0.65663 0.0
C1010 C 0.54615 0.30918 0.66918 0.0
C1011 C 0.498 0.31701 0.66575 0.0
C1012 C 0.49077 0.29792 0.68827 0.0
H1013 H 0.53037 0.33927 0.64095 0.0
H1014 H 0.48289 0.3287 0.65602 0.0
S1015 S 0.53656 0.25113 0.72227 0.0
N1016 N 0.55585 0.27028 0.69947 0.0
N1017 N 0.50655 0.26225 0.71942 0.0
C1018 C 0.51093 0.28205 0.69865 0.0
C1019 C 0.53806 0.28702 0.68842 0.0
C1020 C 0.04065 0.83989 0.5824 0.0
C1021 C 0.04917 0.8409 0.61444 0.0
C1022 C 0.05307 0.86453 0.56826 0.0
C1023 C 0.07438 0.8904 0.58583 0.0
H1024 H 0.02368 0.82059 0.56843 0.0
H1025 H 0.04526 0.86404 0.5439 0.0
S1026 S 0.10743 0.90244 0.6684 0.0
N1027 N 0.08276 0.86843 0.66219 0.0
N1028 N 0.1056 0.9151 0.63489 0.0
C1029 C 0.0843 0.89109 0.61706 0.0
C1030 C 0.0718 0.86608 0.63163 0.0
C1031 C 0.55935 0.84795 0.85132 0.0
C1032 C 0.5794 0.86955 0.83945 0.0
C1033 C 0.53045 0.84166 0.84012 0.0
C1034 C 0.52077 0.85686 0.81686 0.0
H1035 H 0.56584 0.83644 0.86991 0.0
H1036 H 0.51552 0.82559 0.85037 0.0
S1037 S 0.56476 0.91526 0.7783 0.0
N1038 N 0.58762 0.90523 0.80259 0.0
N1039 N 0.53336 0.89447 0.78259 0.0
C1040 C 0.54066 0.87781 0.80433 0.0
C1041 C 0.56999 0.88388 0.81539 0.0
C1042 C 0.50261 0.14791 0.08379 0.0
C1043 C 0.51982 0.16853 0.11036 0.0
C1044 C 0.51392 0.12723 0.06335 0.0
C1045 C 0.54271 0.12722 0.06883 0.0
H1046 H 0.48039 0.14758 0.07898 0.0
H1047 H 0.50007 0.1113 0.04302 0.0
S1048 S 0.59674 0.1787 0.13455 0.0
N1049 N 0.56696 0.18892 0.14092 0.0
N1050 N 0.5884 0.15021 0.10217 0.0
C1051 C 0.56019 0.14796 0.09533 0.0
C1052 C 0.54865 0.16877 0.11617 0.0
C1053 C 0.23164 0.32672 0.3548 0.0
C1054 C 0.22015 0.35284 0.35159 0.0
C1055 C 0.24707 0.31483 0.33204 0.0
C1056 C 0.25167 0.32917 0.30585 0.0
H1057 H 0.22865 0.31543 0.37487 0.0
H1058 H 0.2568 0.29562 0.33592 0.0
S1059 S 0.22591 0.39738 0.28655 0.0
N1060 N 0.21365 0.3918 0.31971 0.0
N1061 N 0.24365 0.36983 0.27769 0.0
C1062 C 0.23988 0.35462 0.30213 0.0
C1063 C 0.22385 0.36642 0.32486 0.0
C1064 C 0.04436 0.09602 0.1829 0.0
C1065 C 1.01411 0.08731 0.17954 0.0
C1066 C 0.06044 0.09483 0.15652 0.0
C1067 C 0.04825 0.08422 0.12384 0.0
H1068 H 0.05613 0.10432 0.2065 0.0
H1069 H 0.0833 0.10247 0.16214 0.0
S1070 S 0.96995 0.05673 0.09997 0.0
N1071 N 0.97301 0.0667 0.13891 0.0
N1072 N 1.00249 0.06353 0.09102 0.0
C1073 C 0.01806 0.07466 0.12006 0.0
C1074 C 1.00154 0.07645 0.14701 0.0
C1075 C 0.29049 0.74609 0.48663 0.0
C1076 C 0.28577 0.71268 0.4809 0.0
C1077 C 0.28204 0.76051 0.46301 0.0
C1078 C 0.26875 0.74159 0.43362 0.0
H1079 H 0.30219 0.76123 0.50864 0.0
H1080 H 0.28815 0.78648 0.46675 0.0
S1081 S 0.24667 0.65369 0.40902 0.0
N1082 N 0.26252 0.66092 0.44586 0.0
N1083 N 0.24814 0.6892 0.4004 0.0
C1084 C 0.26159 0.70843 0.42839 0.0
C1085 C 0.26977 0.69354 0.45251 0.0
C1086 C 0.63033 0.04903 0.65349 0.0
C1087 C 0.65843 0.06693 0.65623 0.0
C1088 C 0.6091 0.05426 0.63345 0.0
C1089 C 0.61531 0.07709 0.61505 0.0
H1090 H 0.62439 0.03135 0.66774 0.0
H1091 H 0.58772 0.03991 0.63211 0.0
S1092 S 0.6851 0.13214 0.61469 0.0
N1093 N 0.69135 0.11002 0.64036 0.0
N1094 N 0.65092 0.11921 0.60107 0.0
C1095 C 0.64323 0.09564 0.61738 0.0
C1096 C 0.66504 0.09057 0.63833 0.0
C1097 C 0.33077 0.34501 0.93368 0.0
C1098 C 0.35504 0.36811 0.94989 0.0
C1099 C 0.32856 0.33246 0.90122 0.0
C1100 C 0.35049 0.34253 0.88393 0.0
H1101 H 0.3126 0.33834 0.94557 0.0
H1102 H 0.30893 0.31587 0.88921 0.0
S1103 S 0.41834 0.40288 0.9158 0.0
N1104 N 0.40144 0.40044 0.94665 0.0
N1105 N 0.39747 0.37688 0.88564 0.0
C1106 C 0.37541 0.36464 0.90015 0.0
C1107 C 0.37756 0.37746 0.93316 0.0
C1108 C 0.02974 0.05206 0.38271 0.0
C1109 C 0.02098 0.07983 0.37684 0.0
C1110 C 0.043 0.04963 0.4128 0.0
C1111 C 0.04912 0.07507 0.43972 0.0
H1112 H 0.02629 0.03142 0.3635 0.0
H1113 H 0.04871 0.02744 0.41476 0.0
S1114 S 0.0313 0.15341 0.43964 0.0
N1115 N 0.01995 0.13359 0.40276 0.0
N1116 N 0.04456 0.12905 0.45818 0.0
C1117 C 0.04034 0.10282 0.43458 0.0
C1118 C 0.02652 0.10525 0.40387 0.0
C1119 C 0.32904 0.75602 0.64496 0.0
C1120 C 0.3144 0.72489 0.64656 0.0
C1121 C 0.3319 0.78181 0.67007 0.0
C1122 C 0.32099 0.77708 0.69785 0.0
H1123 H 0.33884 0.76053 0.62442 0.0
H1124 H 0.34404 0.80521 0.66829 0.0
S1125 S 0.27873 0.70014 0.71252 0.0
N1126 N 0.28552 0.69137 0.67611 0.0
N1127 N 0.29485 0.73835 0.72526 0.0
C1128 C 0.30582 0.74597 0.69942 0.0
C1129 C 0.30146 0.72022 0.67316 0.0
C1130 C 0.64185 0.13669 0.83304 0.0
C1131 C 0.66512 0.12537 0.82446 0.0
C1132 C 0.64028 0.14767 0.86446 0.0
C1133 C 0.66183 0.14722 0.88828 0.0
H1134 H 0.62383 0.13516 0.81569 0.0
H1135 H 0.62039 0.1526 0.87 0.0
S1136 S 0.73055 0.12813 0.87756 0.0
N1137 N 0.71315 0.12099 0.84144 0.0
N1138 N 0.70922 0.14074 0.90128 0.0
C1139 C 0.68686 0.14017 0.87979 0.0
C1140 C 0.68865 0.12906 0.84762 0.0
C1141 C 0.34656 0.38253 0.17542 0.0
C1142 C 0.34319 0.365 0.14389 0.0
C1143 C 0.33999 0.36724 0.20094 0.0
C1144 C 0.3294 0.33373 0.19604 0.0
H1145 H 0.35423 0.40838 0.18047 0.0
H1146 H 0.34294 0.38178 0.22453 0.0
S1147 S 0.31802 0.27626 0.11894 0.0
N1148 N 0.32926 0.31168 0.11018 0.0
N1149 N 0.31735 0.28345 0.15737 0.0
C1150 C 0.32644 0.31597 0.16486 0.0
C1151 C 0.33313 0.33139 0.13908 0.0
C1152 C 0.28639 0.03778 0.03216 0.0
C1153 C 0.28936 1.00886 0.03993 0.0
C1154 C 0.26553 0.05185 0.04322 0.0
C1155 C 0.24767 0.03749 0.06263 0.0
H1156 H 0.29943 0.0488 0.01642 0.0
H1157 H 0.26254 0.0733 0.03558 0.0
S1158 S 0.25121 0.96579 0.09497 0.0
N1159 N 0.276 0.96893 0.07173 0.0
N1160 N 0.23642 0.99595 0.09276 0.0
C1161 C 0.25188 1.0101 0.07259 0.0
C1162 C 0.27295 0.99554 0.06111 0.0
C1163 C 0.71257 0.63705 0.02778 0.0
C1164 C 0.71285 0.65841 1.00671 0.0
C1165 C 0.68695 0.61604 0.03195 0.0
C1166 C 0.66057 0.61457 1.01433 0.0
H1167 H 0.73222 0.63661 0.04129 0.0
H1168 H 0.688 0.60018 0.04829 0.0
S1169 S 0.65007 0.66401 0.95554 0.0
N1170 N 0.68416 0.67673 0.96905 0.0
N1171 N 0.63737 0.63557 0.97431 0.0
C1172 C 0.661 0.6354 0.99317 0.0
C1173 C 0.68661 0.65769 0.99008 0.0
C1174 C 0.74304 0.41966 0.26801 0.0
C1175 C 0.75611 0.45323 0.27933 0.0
C1176 C 0.758 0.39421 0.26742 0.0
C1177 C 0.78774 0.39958 0.27764 0.0
H1178 H 0.72056 0.41263 0.25941 0.0
H1179 H 0.74585 0.36971 0.25847 0.0
S1180 S 0.83343 0.48182 0.31115 0.0
N1181 N 0.80207 0.48881 0.30223 0.0
N1182 N 0.82911 0.44264 0.30077 0.0
C1183 C 0.80109 0.43285 0.28909 0.0
C1184 C 0.78585 0.45874 0.28998 0.0
C1185 C 0.95531 0.50701 0.52888 0.0
C1186 C 0.94251 0.52472 0.51027 0.0
C1187 C 0.98313 0.5053 0.52736 0.0
C1188 C 0.99879 0.52113 0.50719 0.0
H1189 H 0.94373 0.4942 0.5446 0.0
H1190 H 0.99281 0.49265 0.54293 0.0
S1191 S 0.97534 0.5717 0.45496 0.0
N1192 N 0.94774 0.55939 0.47242 0.0
N1193 N 0.99999 0.55517 0.46838 0.0
C1194 C 0.98617 0.53852 0.48817 0.0
C1195 C 0.95811 0.54098 0.4904 0.0
C1196 C 0.38501 0.09495 0.2724 0.0
C1197 C 0.41377 0.10878 0.28434 0.0
C1198 C 0.36849 0.11292 0.25974 0.0
C1199 C 0.38055 0.14481 0.25877 0.0
H1200 H 0.37494 0.07065 0.27392 0.0
H1201 H 0.34588 0.10277 0.25311 0.0
S1202 S 0.45515 0.19044 0.28286 0.0
N1203 N 0.45413 0.15486 0.29102 0.0
N1204 N 0.42252 0.18872 0.26742 0.0
C1205 C 0.40953 0.158 0.26812 0.0
C1206 C 0.42635 0.13988 0.281 0.0
C1207 C 0.38042 0.14715 0.52516 0.0
C1208 C 0.37912 0.179 0.53597 0.0
C1209 C 0.40514 0.13736 0.53177 0.0
C1210 C 0.42936 0.15913 0.54949 0.0
H1211 H 0.36184 0.1294 0.51215 0.0
H1212 H 0.4053 0.11256 0.52308 0.0
S1213 S 0.43744 0.24439 0.58502 0.0
N1214 N 0.40441 0.23211 0.56657 0.0
N1215 N 0.45132 0.21309 0.57847 0.0
C1216 C 0.42879 0.19093 0.56051 0.0
C1217 C 0.4035 0.20111 0.55383 0.0
C1218 C 0.78436 0.67276 0.30365 0.0
C1219 C 0.75604 0.66213 0.28817 0.0
C1220 C 0.80229 0.70337 0.30277 0.0
C1221 C 0.79356 0.726 0.28659 0.0
H1222 H 0.79281 0.65752 0.31708 0.0
H1223 H 0.82372 0.70941 0.31513 0.0
S1224 S 0.72217 0.70898 0.23894 0.0
N1225 N 0.72087 0.67679 0.25413 0.0
N1226 N 0.75398 0.733 0.25235 0.0
C1227 C 0.76534 0.71544 0.27051 0.0
C1228 C 0.74703 0.6842 0.27141 0.0
C1229 C 0.89965 0.4487 0.78113 0.0
C1230 C 0.92326 0.44917 0.80236 0.0
C1231 C 0.87353 0.42958 0.78267 0.0
C1232 C 0.87079 0.41034 0.8051 0.0
H1233 H 0.90124 0.46418 0.76416 0.0
H1234 H 0.85565 0.42857 0.76529 0.0
S1235 S 0.92716 0.40436 0.86604 0.0
N1236 N 0.94307 0.4308 0.84676 0.0
N1237 N 0.89368 0.39286 0.84924 0.0
C1238 C 0.89436 0.41098 0.82682 0.0
C1239 C 0.9209 0.43071 0.82523 0.0
C1240 C 0.1246 0.96125 0.09867 0.0
C1241 C 0.11384 0.92904 0.08283 0.0
C1242 C 0.11664 0.98662 0.08728 0.0
C1243 C 0.09698 0.98143 0.05966 0.0
H1244 H 0.13971 0.9671 0.12008 0.0
H1245 H 0.12608 1.01077 0.10063 0.0
S1246 S 0.06053 0.9017 1.00989 0.0
N1247 N 0.08125 0.89339 0.03804 0.0
N1248 N 0.06584 0.94115 0.01727 0.0
C1249 C 0.08526 0.94937 0.04383 0.0
C1250 C 0.09383 0.9233 0.05516 0.0
C1251 C 0.92614 0.29577 0.87764 0.0
C1252 C 0.95238 0.30302 0.86592 0.0
C1253 C 0.90018 0.29782 0.86057 0.0
C1254 C 0.89903 0.30734 0.83108 0.0
H1255 H 0.92556 0.28858 0.90016 0.0
H1256 H 0.88067 0.2912 0.87024 0.0
S1257 S 0.96109 0.33067 0.79002 0.0
N1258 N 0.97443 0.32091 0.8221 0.0
N1259 N 0.92692 0.3255 0.79187 0.0
C1260 C 0.92501 0.31538 0.81957 0.0
C1261 C 0.95112 0.31302 0.83643 0.0
C1262 C 0.61374 0.20974 0.60116 0.0
C1263 C 0.61853 0.23433 0.58376 0.0
C1264 C 0.60956 0.1776 0.58679 0.0
C1265 C 0.60963 0.16847 0.55429 0.0
H1266 H 0.61303 0.21518 0.62634 0.0
H1267 H 0.60565 0.15965 0.60117 0.0
S1268 S 0.61917 0.22111 0.49692 0.0
N1269 N 0.6218 0.24608 0.53121 0.0
N1270 N 0.61373 0.18476 0.50451 0.0
C1271 C 0.61387 0.19193 0.53623 0.0
C1272 C 0.6182 0.22509 0.55082 0.0
C1273 C 0.61901 0.82448 0.37581 0.0
C1274 C 0.62009 0.81802 0.40644 0.0
C1275 C 0.64357 0.83129 0.3616 0.0
C1276 C 0.6702 0.83146 0.37727 0.0
H1277 H 0.59891 0.82375 0.36242 0.0
H1278 H 0.64147 0.83506 0.33761 0.0
S1279 S 0.68552 0.82059 0.45916 0.0
N1280 N 0.65078 0.81574 0.45322 0.0
N1281 N 0.69679 0.82802 0.42608 0.0
C1282 C 0.67191 0.82685 0.40845 0.0
C1283 C 0.64693 0.82034 0.42318 0.0
C1284 C 0.11189 0.30196 0.47917 0.0
C1285 C 0.11799 0.2952 0.44816 0.0
C1286 C 0.09953 0.27724 0.49331 0.0
C1287 C 0.09326 0.24527 0.47677 0.0
H1288 H 0.11729 0.32636 0.4928 0.0
H1289 H 0.09642 0.283 0.51782 0.0
S1290 S 0.10226 0.21558 0.39411 0.0
N1291 N 0.11469 0.25486 0.40046 0.0
N1292 N 0.09132 0.20817 0.42733 0.0
C1293 C 0.09758 0.23842 0.44519 0.0
C1294 C 0.11002 0.26354 0.43074 0.0
C1295 C 0.59663 0.26537 0.24088 0.0
C1296 C 0.59151 0.27976 0.21533 0.0
C1297 C 0.62436 0.26884 0.25488 0.0
C1298 C 0.64724 0.28733 0.24391 0.0
H1299 H 0.57938 0.24968 0.24855 0.0
H1300 H 0.62797 0.2553 0.27279 0.0
S1301 S 0.64369 0.3341 0.18125 0.0
N1302 N 0.61046 0.31543 0.18157 0.0
N1303 N 0.66266 0.32379 0.20941 0.0
C1304 C 0.6419 0.30418 0.22035 0.0
C1305 C 0.61389 0.29983 0.20551 0.0
C1306 C 0.65633 0.97724 0.99113 0.0
C1307 C 0.64669 0.96896 0.9586 0.0
C1308 C 0.64429 0.99739 1.01115 0.0
C1309 C 0.62125 1.00833 0.99949 0.0
H1310 H 0.67348 0.96841 1.00107 0.0
H1311 H 0.65292 1.00407 0.03603 0.0
S1312 S 0.5845 0.98741 0.91688 0.0
N1313 N 0.61159 0.97074 0.91567 0.0
N1314 N 0.58622 1.00468 0.9543 0.0
C1315 C 0.60994 0.99799 0.96737 0.0
C1316 C 0.62339 0.97923 0.94661 0.0
C1317 C 0.94931 0.79665 0.74999 0.0
C1318 C 0.93933 0.77831 0.71918 0.0
C1319 C 0.93077 0.80842 0.76872 0.0
C1320 C 0.90195 0.80135 0.757 0.0
H1321 H 0.97135 0.80089 0.75997 0.0
H1322 H 0.93868 0.82165 0.7927 0.0
S1323 S 0.86627 0.7572 0.677 0.0
N1324 N 0.89972 0.7557 0.67716 0.0
N1325 N 0.86467 0.77806 0.71212 0.0
C1326 C 0.89216 0.78472 0.72564 0.0
C1327 C 0.91097 0.77293 0.70669 0.0
C1328 C 0.14333 0.03174 0.90634 0.0
C1329 C 0.1447 0.05651 0.88859 0.0
C1330 C 0.12938 0.03105 0.93452 0.0
C1331 C 0.11633 0.05551 0.94829 0.0
H1332 H 0.15245 1.01196 0.89795 0.0
H1333 H 0.12837 1.01048 0.94537 0.0
S1334 S 0.11072 0.12453 0.91102 0.0
N1335 N 0.12898 0.10545 0.88783 0.0
N1336 N 0.10433 0.10383 0.93882 0.0
C1337 C 0.11718 0.0798 0.93049 0.0
C1338 C 0.13085 0.08044 0.90181 0.0
C1339 C 0.89663 0.4108 0.58597 0.0
C1340 C 0.88864 0.43982 0.5929 0.0
C1341 C 0.90286 0.39579 0.6101 0.0
C1342 C 0.90104 0.40983 0.64112 0.0
H1343 H 0.89558 0.39838 0.56175 0.0
H1344 H 0.90552 0.37155 0.60412 0.0
S1345 S 0.88713 0.48826 0.67151 0.0
N1346 N 0.88401 0.48462 0.63274 0.0
N1347 N 0.89594 0.45565 0.67863 0.0
C1348 C 0.89714 0.44071 0.64871 0.0
C1349 C 0.89073 0.45605 0.6242 0.0
C1350 C 0.54482 0.08145 0.41055 0.0
C1351 C 0.51639 0.06566 0.40816 0.0
C1352 C 0.56391 0.08025 0.43537 0.0
C1353 C 0.55496 0.06322 0.45826 0.0
H1354 H 0.55283 0.09194 0.39143 0.0
H1355 H 0.58606 0.09149 0.43563 0.0
S1356 S 0.48154 1.01843 0.462 0.0
N1357 N 0.47901 0.03393 0.43021 0.0
N1358 N 0.51547 0.02985 0.47713 0.0
C1359 C 0.5261 0.04792 0.45667 0.0
C1360 C 0.5065 0.04991 0.4315 0.0
C1361 C 0.82952 0.75925 0.13768 0.0
C1362 C 0.81043 0.76761 0.11632 0.0
C1363 C 0.83242 0.77117 0.17014 0.0
C1364 C 0.81619 0.79188 0.18283 0.0
H1365 H 0.84142 0.74205 0.12931 0.0
H1366 H 0.84691 0.76307 0.18546 0.0
S1367 S 0.76441 0.82269 0.13679 0.0
N1368 N 0.77601 0.79902 0.10972 0.0
N1369 N 0.78129 0.82156 0.17128 0.0
C1370 C 0.79758 0.80127 0.16174 0.0
C1371 C 0.79486 0.78925 0.12834 0.0
C1372 C 0.12573 0.03551 0.67638 0.0
C1373 C 0.15361 0.05296 0.69085 0.0
C1374 C 0.11214 0.04082 0.64751 0.0
C1375 C 0.12475 0.06486 0.63162 0.0
H1376 H 0.11442 1.01681 0.68695 0.0
H1377 H 0.09128 0.02579 0.63749 0.0
S1378 S 0.19658 0.11927 0.65996 0.0
N1379 N 0.19262 0.0963 0.68628 0.0
N1380 N 0.16706 0.10726 0.63433 0.0
C1381 C 0.1521 0.0833 0.64645 0.0
C1382 C 0.16632 0.07714 0.67515 0.0
C1383 C 0.86105 0.41473 0.39118 0.0
C1384 C 0.85071 0.40872 0.41895 0.0
C1385 C 0.85794 0.38968 0.36522 0.0
C1386 C 0.84503 0.35782 0.3666 0.0
H1387 H 0.87072 0.43898 0.38912 0.0
H1388 H 0.86432 0.39575 0.34355 0.0
S1389 S 0.81533 0.3296 0.43429 0.0
N1390 N 0.82768 0.36867 0.44674 0.0
N1391 N 0.82266 0.32162 0.39796 0.0
C1392 C 0.83597 0.3514 0.39472 0.0
C1393 C 0.83868 0.37687 0.42099 0.0
C1394 C 0.45897 1.00961 0.20118 0.0
C1395 C 0.47441 1.0062 0.22856 0.0
C1396 C 0.46784 1.0012 0.17219 0.0
C1397 C 0.49304 0.99089 0.17085 0.0
H1398 H 0.44197 1.0218 0.20255 0.0
H1399 H 0.45777 1.00774 0.15185 0.0
S1400 S 0.53222 0.96496 0.23523 0.0
N1401 N 0.50871 0.98145 0.25186 0.0
N1402 N 0.52703 0.96737 0.19777 0.0
C1403 C 0.50484 0.98137 0.19739 0.0
C1404 C 0.49538 0.98932 0.2266 0.0
C1405 C 0.84378 0.78354 0.91702 0.0
C1406 C 0.81578 0.7689 0.92035 0.0
C1407 C 0.85003 0.79647 0.89023 0.0
C1408 C 0.82864 0.79488 0.86536 0.0
H1409 H 0.86106 0.78495 0.93524 0.0
H1410 H 0.87189 0.80754 0.88886 0.0
S1411 S 0.75159 0.76096 0.86349 0.0
N1412 N 0.76637 0.75509 0.89709 0.0
N1413 N 0.77789 0.77885 0.84691 0.0
C1414 C 0.80047 0.78085 0.86872 0.0
C1415 C 0.79413 0.76799 0.89611 0.0
C1416 C 0.87405 0.08582 0.02448 0.0
C1417 C 0.87407 0.11829 0.03016 0.0
C1418 C 0.89588 0.07576 1.01113 0.0
C1419 C 0.91814 0.0981 1.00346 0.0
H1420 H 0.85733 0.06823 0.03079 0.0
H1421 H 0.89622 0.05073 1.00847 0.0
S1422 S 0.9258 0.185 1.01001 0.0
N1423 N 0.89613 0.17233 0.02408 0.0
N1424 N 0.93808 0.15297 0.99959 0.0
C1425 C 0.91758 0.13026 1.00726 0.0
C1426 C 0.89514 0.14053 0.02046 0.0
C1427 C 0.45836 0.5263 0.05684 0.0
C1428 C 0.45057 0.49245 0.05269 0.0
C1429 C 0.48642 0.5436 0.05629 0.0
C1430 C 0.50829 0.52807 0.05026 0.0
H1431 H 0.44241 0.53972 0.06041 0.0
H1432 H 0.49089 0.56951 0.06012 0.0
S1433 S 0.49906 0.43972 0.0339 0.0
N1434 N 0.46745 0.44414 0.04096 0.0
N1435 N 0.5191 0.47625 0.03714 0.0
C1436 C 0.50057 0.49421 0.04464 0.0
C1437 C 0.47218 0.47657 0.04661 0.0
C1438 C 0.37912 0.67945 0.77047 0.0
C1439 C 0.40925 0.68454 0.77834 0.0
C1440 C 0.36408 0.70496 0.77286 0.0
C1441 C 0.37755 0.73845 0.783 0.0
H1442 H 0.36658 0.65504 0.76225 0.0
H1443 H 0.34131 0.69809 0.76613 0.0
S1444 S 0.4558 0.76751 0.80728 0.0
N1445 N 0.4513 0.72818 0.79777 0.0
N1446 N 0.42404 0.7743 0.80121 0.0
C1447 C 0.40756 0.74403 0.79083 0.0
C1448 C 0.42285 0.71807 0.78887 0.0
C1449 C 0.2035 0.6509 0.53507 0.0
C1450 C 0.22007 0.62976 0.54119 0.0
C1451 C 0.17586 0.64553 0.54135 0.0
C1452 C 0.16466 0.61932 0.5544 0.0
H1453 H 0.21228 0.6721 0.52621 0.0
H1454 H 0.16297 0.6614 0.53535 0.0
S1455 S 0.19887 0.55515 0.57071 0.0
N1456 N 0.22299 0.58005 0.55721 0.0
N1457 N 0.17121 0.5709 0.57124 0.0
C1458 C 0.18094 0.59769 0.55997 0.0
C1459 C 0.20863 0.60244 0.55231 0.0
C1460 C 0.7824 0.02964 0.76766 0.0
C1461 C 0.75769 0.03399 0.77947 0.0
C1462 C 0.79715 1.0099 0.77976 0.0
C1463 C 0.78733 0.99484 0.8038 0.0
H1464 H 0.78918 0.03965 0.7478 0.0
H1465 H 0.81523 1.00481 0.76915 0.0
S1466 S 0.72686 1.00365 0.84584 0.0
N1467 N 0.72637 0.02607 0.81913 0.0
N1468 N 0.75424 0.98784 0.84139 0.0
C1469 C 0.76422 1.00115 0.8175 0.0
C1470 C 0.74926 1.02125 0.80537 0.0
C1471 C 0.78191 0.9767 0.55755 0.0
C1472 C 0.78453 0.94882 0.53749 0.0
C1473 C 0.75947 0.99053 0.55124 0.0
C1474 C 0.739 0.97726 0.52439 0.0
H1475 H 0.79697 0.98755 0.57881 0.0
H1476 H 0.75786 1.01157 0.56778 0.0
S1477 S 0.73799 0.90762 0.46153 0.0
N1478 N 0.76591 0.91024 0.4876 0.0
N1479 N 0.7238 0.93711 0.47579 0.0
C1480 C 0.742 0.95064 0.503 0.0
C1481 C 0.76472 0.93609 0.50959 0.0
C1482 C 0.4091 0.4593 0.79831 0.0
C1483 C 0.40555 0.47492 0.77247 0.0
C1484 C 0.39149 0.42845 0.79991 0.0
C1485 C 0.3692 0.41055 0.77537 0.0
H1486 H 0.42591 0.47113 0.81773 0.0
H1487 H 0.39539 0.41876 0.8207 0.0
S1488 S 0.35274 0.43663 0.70038 0.0
N1489 N 0.37861 0.46687 0.72051 0.0
N1490 N 0.34678 0.41038 0.72331 0.0
C1491 C 0.36612 0.42538 0.74924 0.0
C1492 C 0.38374 0.45673 0.74773 0.0
C1493 C 0.2353 0.70954 0.24587 0.0
C1494 C 0.2366 0.68486 0.26197 0.0
C1495 C 0.25977 0.73249 0.24567 0.0
C1496 C 0.28552 0.73095 0.26174 0.0
H1497 H 0.21593 0.70986 0.23164 0.0
H1498 H 0.25852 0.75162 0.23327 0.0
S1499 S 0.29861 0.67722 0.31455 0.0
N1500 N 0.26455 0.66458 0.30022 0.0
N1501 N 0.31082 0.70788 0.29839 0.0
C1502 C 0.28667 0.70866 0.28041 0.0
C1503 C 0.26189 0.68574 0.28133 0.0
C1504 C 0.57476 0.69219 0.47305 0.0
C1505 C 0.55491 0.70833 0.48554 0.0
C1506 C 0.5824 0.66713 0.48576 0.0
C1507 C 0.57021 0.6567 0.51121 0.0
H1508 H 0.58453 0.69897 0.45319 0.0
H1509 H 0.59734 0.6552 0.475 0.0
S1510 S 0.51815 0.69052 0.55344 0.0
N1511 N 0.52433 0.71205 0.52614 0.0
N1512 N 0.53798 0.66449 0.54891 0.0
C1513 C 0.55086 0.67267 0.52428 0.0
C1514 C 0.54347 0.69859 0.51182 0.0
C1515 C 0.73249 0.32768 0.67685 0.0
C1516 C 0.71375 0.34684 0.68692 0.0
C1517 C 0.75465 0.32296 0.69823 0.0
C1518 C 0.75949 0.33752 0.73075 0.0
H1519 H 0.73003 0.31612 0.65218 0.0
H1520 H 0.76843 0.30838 0.68906 0.0
S1521 S 0.71501 0.38687 0.77037 0.0
N1522 N 0.70091 0.37808 0.73282 0.0
N1523 N 0.74164 0.3696 0.77203 0.0
C1524 C 0.74022 0.35553 0.74116 0.0
C1525 C 0.71775 0.36009 0.71966 0.0
C1526 C 0.03972 0.41211 1.01029 0.0
C1527 C 0.05712 0.40326 0.98799 0.0
C1528 C 0.04318 0.44465 0.02493 0.0
C1529 C 0.06452 0.46891 0.01809 0.0
H1530 H 0.02272 0.39408 0.01547 0.0
H1531 H 0.02915 0.45086 0.04147 0.0
S1532 S 0.114 0.45878 0.95995 0.0
N1533 N 0.09612 0.42202 0.95979 0.0
N1534 N 0.10116 0.48229 0.98561 0.0
C1535 C 0.08149 0.46033 0.99552 0.0
C1536 C 0.07833 0.42772 0.98113 0.0
C1537 C 0.03601 0.84004 0.18069 0.0
C1538 C 0.0457 0.81317 0.1683 0.0
C1539 C 1.0094 0.83643 0.19099 0.0
C1540 C 0.99134 0.80581 0.18868 0.0
H1541 H 0.04984 0.86388 0.18447 0.0
H1542 H 1.00374 0.85774 0.20258 0.0
S1543 S 1.00477 0.72818 0.15204 0.0
N1544 N 0.03401 0.75517 0.1507 0.0
N1545 N 0.98347 0.74848 0.1686 0.0
C1546 C 0.9999 0.77892 0.1738 0.0
C1547 C 0.02719 0.78258 0.16394 0.0
C1548 C 0.55586 0.37283 0.1321 0.0
C1549 C 0.54949 0.34089 0.11554 0.0
C1550 C 0.56978 0.39751 0.11895 0.0
C1551 C 0.57722 0.3912 0.08844 0.0
H1552 H 0.54951 0.37899 0.15514 0.0
H1553 H 0.57385 0.42184 0.13244 0.0
S1554 S 0.57053 0.3107 0.03833 0.0
N1555 N 0.55634 0.30345 0.06996 0.0
N1556 N 0.58036 0.3501 0.04364 0.0
C1557 C 0.57279 0.35906 0.07254 0.0
C1558 C 0.55929 0.33382 0.08645 0.0
C1559 C 0.06044 0.38913 0.357 0.0
C1560 C 0.07794 0.37252 0.34105 0.0
C1561 C 0.03139 0.38099 0.34687 0.0
C1562 C 0.01928 0.35597 0.32067 0.0
H1563 H 0.06932 0.40868 0.37715 0.0
H1564 H 0.01841 0.39489 0.35903 0.0
S1565 S 0.05607 0.30332 0.27336 0.0
N1566 N 0.08148 0.32858 0.2998 0.0
N1567 N 0.02636 0.31356 0.28022 0.0
C1568 C 0.03649 0.33862 0.30515 0.0
C1569 C 0.0661 0.34679 0.3156 0.0
C1570 C 1.0039 0.64968 0.58031 0.0
C1571 C 0.01997 0.66757 0.60893 0.0
C1572 C 0.0157 0.62994 0.55931 0.0
C1573 C 0.04396 0.62831 0.56618 0.0
H1574 H 0.98225 0.65097 0.57418 0.0
H1575 H 1.00274 0.61619 0.5374 0.0
S1576 S 0.09512 0.67235 0.63753 0.0
N1577 N 0.06556 0.68349 0.64287 0.0
N1578 N 0.08783 0.64656 0.60329 0.0
C1579 C 0.06019 0.64608 0.59484 0.0
C1580 C 0.04815 0.66587 0.61621 0.0
C1581 C 0.74902 0.86518 0.85766 0.0
C1582 C 0.72031 0.84949 0.85339 0.0
C1583 C 0.76602 0.85701 0.8352 0.0
C1584 C 0.75492 0.83265 0.80804 0.0
H1585 H 0.75821 0.88442 0.87796 0.0
H1586 H 0.78822 0.86959 0.83948 0.0
S1587 S 0.68135 0.78262 0.78772 0.0
N1588 N 0.68137 0.80801 0.82084 0.0
N1589 N 0.71412 0.79111 0.77951 0.0
C1590 C 0.72652 0.81577 0.80423 0.0
C1591 C 0.70895 0.82478 0.82663 0.0
C1592 C 0.5419 0.60315 0.68136 0.0
C1593 C 0.51277 0.5867 0.67881 0.0
C1594 C 0.55809 0.60253 0.65507 0.0
C1595 C 0.54725 0.58508 0.62334 0.0
H1596 H 0.55258 0.61725 0.7042 0.0
H1597 H 0.57996 0.61623 0.66 0.0
S1598 S 0.47332 0.53405 0.60268 0.0
N1599 N 0.47483 0.55004 0.64048 0.0
N1600 N 0.50466 0.54846 0.59278 0.0
C1601 C 0.51845 0.56762 0.62055 0.0
C1602 C 0.50173 0.56856 0.64737 0.0
C1603 C 0.75902 0.19988 0.9608 0.0
C1604 C 0.78407 0.21472 0.9819 0.0
C1605 C 0.75103 0.21435 0.93685 0.0
C1606 C 0.76812 0.24332 0.93403 0.0
H1607 H 0.7461 0.17675 0.9623 0.0
H1608 H 0.73246 0.20243 0.91963 0.0
S1609 S 0.83424 0.2924 0.98459 0.0
N1610 N 0.82468 0.26052 1.00002 0.0
N1611 N 0.80958 0.28779 0.95414 0.0
C1612 C 0.79219 0.25936 0.95596 0.0
C1613 C 0.80024 0.24484 0.98034 0.0
C1614 C 0.1605 0.58101 0.13271 0.0
C1615 C 0.15282 0.56409 0.15632 0.0
C1616 C 0.13966 0.5875 0.11253 0.0
C1617 C 0.11099 0.57571 0.11461 0.0
H1618 H 0.18253 0.58998 0.13036 0.0
H1619 H 0.14591 0.60187 0.09546 0.0
S1620 S 0.0803 0.54073 0.17822 0.0
N1621 N 0.11447 0.54294 0.18506 0.0
N1622 N 0.07605 0.55471 0.14591 0.0
C1623 C 0.1032 0.56198 0.13973 0.0
C1624 C 0.12398 0.55573 0.16062 0.0
C1625 C 0.8237 0.8561 0.42958 0.0
C1626 C 0.84976 0.8641 0.44938 0.0
C1627 C 0.82175 0.8451 0.39707 0.0
C1628 C 0.8459 0.84214 0.38271 0.0
H1629 H 0.80485 0.86019 0.43907 0.0
H1630 H 0.80109 0.84017 0.38304 0.0
S1631 S 0.91921 0.85901 0.42488 0.0
N1632 N 0.90008 0.8672 0.45311 0.0
N1633 N 0.89679 0.84675 0.39154 0.0
C1634 C 0.87205 0.84869 0.4025 0.0
C1635 C 0.87387 0.85964 0.43593 0.0
C1636 C 0.50464 0.56704 0.89757 0.0
C1637 C 0.5207 0.58268 0.87676 0.0
C1638 C 0.51731 0.56238 0.92725 0.0
C1639 C 0.54695 0.57284 0.93811 0.0
H1640 H 0.4821 0.55721 0.89038 0.0
H1641 H 0.50367 0.55014 0.94171 0.0
S1642 S 0.59933 0.61297 0.89299 0.0
N1643 N 0.56883 0.60722 0.8701 0.0
N1644 N 0.59169 0.59837 0.92441 0.0
C1645 C 0.5631 0.58794 0.91752 0.0
C1646 C 0.55038 0.59273 0.88752 0.0
C1647 C 0.80449 0.22314 0.17328 0.0
C1648 C 0.81818 0.22731 0.14701 0.0
C1649 C 0.80711 0.24886 0.19824 0.0
C1650 C 0.8223 0.27994 0.19715 0.0
H1651 H 0.79239 0.19972 0.17514 0.0
H1652 H 0.79849 0.24361 0.21904 0.0
S1653 S 0.8621 0.30357 0.13378 0.0
N1654 N 0.84783 0.26481 0.12136 0.0
N1655 N 0.85144 0.31345 0.16814 0.0
C1656 C 0.83525 0.28466 0.17063 0.0
C1657 C 0.83339 0.2583 0.14551 0.0
C1658 C 0.1769 0.63767 0.33588 0.0
C1659 C 0.15338 0.61852 0.31441 0.0
C1660 C 0.17342 0.65124 0.36614 0.0
C1661 C 0.14664 0.64523 0.37561 0.0
H1662 H 0.19806 0.64187 0.32944 0.0
H1663 H 0.19185 0.66426 0.38307 0.0
S1664 S 0.0787 0.5966 0.32702 0.0
N1665 N 0.1028 0.59509 0.30328 0.0
N1666 N 0.09601 0.61927 0.36095 0.0
C1667 C 0.12277 0.62709 0.35369 0.0
C1668 C 0.12633 0.61378 0.32285 0.0
C1669 C 0.85854 0.87418 0.67208 0.0
C1670 C 0.84047 0.8642 0.64278 0.0
C1671 C 0.8519 0.861 0.69866 0.0
C1672 C 0.82647 0.83775 0.69753 0.0
H1673 H 0.8782 0.89226 0.67446 0.0
H1674 H 0.86673 0.86932 0.72039 0.0
S1675 S 0.77165 0.80283 0.62705 0.0
N1676 N 0.79588 0.82883 0.61471 0.0
N1677 N 0.78345 0.80474 0.6644 0.0
C1678 C 0.80831 0.82734 0.66847 0.0
C1679 C 0.81522 0.84038 0.64128 0.0
C1680 C 0.79235 0.53621 0.55564 0.0
C1681 C 0.7855 0.5038 0.54015 0.0
C1682 C 0.7713 0.55092 0.56482 0.0
C1683 C 0.7429 0.53358 0.55875 0.0
H1684 H 0.81399 0.55065 0.55983 0.0
H1685 H 0.77712 0.57637 0.57516 0.0
S1686 S 0.71455 0.44722 0.52325 0.0
N1687 N 0.74895 0.45396 0.52207 0.0
N1688 N 0.70911 0.48192 0.53997 0.0
C1689 C 0.73598 0.50069 0.54538 0.0
C1690 C 0.75743 0.48565 0.53592 0.0
C1691 C 0.20909 0.12434 0.49648 0.0
C1692 C 0.215 0.15789 0.50793 0.0
C1693 C 0.18351 0.10326 0.50022 0.0
C1694 C 0.1629 0.11423 0.51684 0.0
H1695 H 0.22404 0.11427 0.48373 0.0
H1696 H 0.17986 0.07798 0.48988 0.0
S1697 S 0.17073 0.19883 0.55739 0.0
N1698 N 0.19894 0.20039 0.5393 0.0
N1699 N 0.15332 0.16071 0.54948 0.0
C1700 C 0.16994 0.14725 0.5309 0.0
C1701 C 0.19519 0.16898 0.52564 0.0
C1702 C 0.28485 0.95845 0.7916 0.0
C1703 C 0.25561 0.95326 0.77875 0.0
C1704 C 0.30008 0.93325 0.79075 0.0
C1705 C 0.2876 0.90007 0.77731 0.0
H1706 H 0.29645 0.98265 0.80281 0.0
H1707 H 0.32208 0.94004 0.80144 0.0
S1708 S 0.21252 0.87134 0.73811 0.0
N1709 N 0.21585 0.91023 0.75026 0.0
N1710 N 0.24342 0.86452 0.74951 0.0
C1711 C 0.25856 0.89444 0.76421 0.0
C1712 C 0.24313 0.92012 0.76466 0.0
C1713 C 0.4571 0.02827 0.03709 0.0
C1714 C 0.44212 1.02095 1.00651 0.0
C1715 C 0.48523 0.02685 0.04169 0.0
C1716 C 0.49892 1.01794 0.01575 0.0
H1717 H 0.4471 0.03544 0.05744 0.0
H1718 H 0.49663 0.03473 0.06553 0.0
S1719 S 0.46497 0.9864 0.93238 0.0
N1720 N 0.43983 0.99719 0.9512 0.0
N1721 N 0.49344 0.99513 0.95928 0.0
C1722 C 0.483 1.00719 0.9854 0.0
C1723 C 0.45433 1.00867 0.9809 0.0
C1724 C 0.87826 0.59762 0.78168 0.0
C1725 C 0.90795 0.60738 0.7868 0.0
C1726 C 0.86272 0.61563 0.76761 0.0
C1727 C 0.87672 0.6433 0.75832 0.0
H1728 H 0.86702 0.577 0.78984 0.0
H1729 H 0.83983 0.60929 0.76605 0.0
S1730 S 0.95352 0.67477 0.76035 0.0
N1731 N 0.95058 0.64296 0.77639 0.0
N1732 N 0.92079 0.67767 0.75109 0.0
C1733 C 0.90611 0.65171 0.76075 0.0
C1734 C 0.92196 0.63337 0.77474 0.0
C1735 C 0.90079 0.6919 0.02624 0.0
C1736 C 0.87751 0.68042 0.04111 0.0
C1737 C 0.9263 0.68255 0.03176 0.0
C1738 C 0.92917 0.66069 0.05154 0.0
H1739 H 0.899 0.70708 1.00941 0.0
H1740 H 0.94352 0.69156 0.0194 0.0
S1741 S 0.87576 0.62865 0.10049 0.0
N1742 N 0.86115 0.65163 0.08153 0.0
N1743 N 0.90674 0.63043 0.08821 0.0
C1744 C 0.90658 0.65096 0.06814 0.0
C1745 C 0.88141 0.66175 0.06379 0.0
C1746 C 0.24685 0.18853 0.77885 0.0
C1747 C 0.2567 0.16281 0.78868 0.0
C1748 C 0.26527 0.21884 0.77734 0.0
C1749 C 0.29513 0.22578 0.78566 0.0
H1750 H 0.22434 0.18517 0.77184 0.0
H1751 H 0.25593 0.23667 0.76907 0.0
S1752 S 0.33285 0.16952 0.81552 0.0
N1753 N 0.29942 0.14881 0.80838 0.0
N1754 N 0.33304 0.20428 0.8058 0.0
C1755 C 0.3051 0.20067 0.79597 0.0
C1756 C 0.28646 0.16992 0.79742 0.0
C1757 C 0.40279 0.9468 0.28168 0.0
C1758 C 0.41448 0.95883 0.31342 0.0
C1759 C 0.37593 0.9268 0.27396 0.0
C1760 C 0.3613 0.91662 0.29785 0.0
H1761 H 0.41456 0.95254 0.26276 0.0
H1762 H 0.3682 0.91626 0.2492 0.0
S1763 S 0.38097 0.94892 0.38443 0.0
N1764 N 0.40801 0.9661 0.36852 0.0
N1765 N 0.35769 0.92574 0.35451 0.0
C1766 C 0.37143 0.93179 0.32972 0.0
C1767 C 0.39844 0.9532 0.3374 0.0
C1768 C 0.58659 0.42565 0.56412 0.0
C1769 C 0.6138 0.42858 0.5807 0.0
C1770 C 0.5792 0.45179 0.55287 0.0
C1771 C 0.59883 0.48191 0.55748 0.0
H1772 H 0.57071 0.40319 0.56038 0.0
H1773 H 0.55792 0.44847 0.54091 0.0
S1774 S 0.67281 0.50168 0.59916 0.0
N1775 N 0.65999 0.46393 0.60091 0.0
N1776 N 0.64697 0.51221 0.57975 0.0
C1777 C 0.62609 0.48468 0.57375 0.0
C1778 C 0.63332 0.45837 0.58535 0.0
C1779 C 0.45141 0.81364 0.33715 0.0
C1780 C 0.45216 0.80221 0.36583 0.0
C1781 C 0.42615 0.81567 0.31969 0.0
C1782 C 0.39962 0.80668 0.32971 0.0
H1783 H 0.47081 0.82115 0.32754 0.0
H1784 H 0.42745 0.82394 0.2977 0.0
S1785 S 0.3873 0.77452 0.40158 0.0
N1786 N 0.4221 0.78131 0.40266 0.0
N1787 N 0.37503 0.78521 0.36945 0.0
C1788 C 0.39947 0.79518 0.35792 0.0
C1789 C 0.42539 0.79287 0.37598 0.0
C1790 C 0.13411 0.72348 0.05991 0.0
C1791 C 0.11566 0.73599 0.07859 0.0
C1792 C 0.12819 0.69045 0.04648 0.0
C1793 C 0.10347 0.66918 0.05111 0.0
H1794 H 0.15393 0.73898 0.05716 0.0
H1795 H 0.14329 0.68143 0.03308 0.0
S1796 S 0.04984 0.68979 0.10046 0.0
N1797 N 0.07246 0.72442 0.10198 0.0
N1798 N 0.06167 0.66279 0.0776 0.0
C1799 C 0.08498 0.68157 0.06977 0.0
C1800 C 0.09093 0.7149 0.08319 0.0
C1801 C 0.11922 0.30319 0.87272 0.0
C1802 C 0.11882 0.31628 0.90472 0.0
C1803 C 0.14384 0.30997 0.85869 0.0
C1804 C 0.16906 0.33029 0.87598 0.0
H1805 H 0.10043 0.28702 0.85835 0.0
H1806 H 0.14325 0.29885 0.83417 0.0
S1807 S 0.17924 0.37468 0.95882 0.0
N1808 N 0.14594 0.35344 0.95243 0.0
N1809 N 0.19207 0.36605 0.92546 0.0
C1810 C 0.16893 0.34502 0.90735 0.0
C1811 C 0.14385 0.33805 0.9219 0.0
C1812 C 0.63859 0.78495 0.97464 0.0
C1813 C 0.62197 0.79708 0.95405 0.0
C1814 C 0.62619 0.7597 0.98799 0.0
C1815 C 0.59686 0.74655 0.98146 0.0
H1816 H 0.66136 0.79442 0.97983 0.0
H1817 H 0.63954 0.75024 1.00331 0.0
S1818 S 0.54371 0.77129 0.9319 0.0
N1819 N 0.57436 0.79524 0.92927 0.0
N1820 N 0.55125 0.74762 0.95536 0.0
C1821 C 0.57983 0.75897 0.96205 0.0
C1822 C 0.59238 0.7844 0.94799 0.0
C1823 C 0.10757 0.8056 0.72524 0.0
C1824 C 0.08845 0.7754 0.71721 0.0
C1825 C 0.13468 0.80904 0.74098 0.0
C1826 C 0.14282 0.78239 0.74911 0.0
H1827 H 0.10202 0.82616 0.71798 0.0
H1828 H 0.14981 0.83214 0.74535 0.0
S1829 S 0.0994 0.69864 0.73314 0.0
N1830 N 0.0784 0.71897 0.71866 0.0
N1831 N 0.12964 0.72515 0.74828 0.0
C1832 C 0.1233 0.75237 0.74215 0.0
C1833 C 0.09589 0.74894 0.72606 0.0
C1834 C 0.15473 0.47554 0.4913 0.0
C1835 C 0.14716 0.4701 0.4585 0.0
C1836 C 0.14135 0.49389 0.51157 0.0
C1837 C 0.11901 0.50584 0.49974 0.0
H1838 H 0.17109 0.46563 0.50133 0.0
H1839 H 0.14825 0.4982 0.53676 0.0
S1840 S 0.08793 0.4928 0.41556 0.0
N1841 N 0.11505 0.47617 0.41484 0.0
N1842 N 0.08699 0.50645 0.4533 0.0
C1843 C 0.10988 0.49855 0.46701 0.0
C1844 C 0.12475 0.48172 0.44626 0.0
C1845 C 0.43462 0.26879 0.25017 0.0
C1846 C 0.43866 0.27571 0.22027 0.0
C1847 C 0.41701 0.28254 0.26833 0.0
C1848 C 0.4032 0.30398 0.25744 0.0
H1849 H 0.44505 0.25247 0.25975 0.0
H1850 H 0.41337 0.27548 0.29053 0.0
S1851 S 0.40638 0.33052 0.18128 0.0
N1852 N 0.42755 0.30585 0.18081 0.0
N1853 N 0.39431 0.33221 0.21555 0.0
C1854 C 0.40764 0.31228 0.22827 0.0
C1855 C 0.42545 0.29795 0.20947 0.0
C1856 C 0.61829 0.53323 0.38831 0.0
C1857 C 0.64576 0.55309 0.38873 0.0
C1858 C 0.60364 0.53315 0.41566 0.0
C1859 C 0.61467 0.55311 0.4463 0.0
H1860 H 0.60733 0.51792 0.3661 0.0
H1861 H 0.58269 0.51725 0.41234 0.0
S1862 S 0.68424 0.61317 0.46098 0.0
N1863 N 0.68203 0.59576 0.42345 0.0
N1864 N 0.65517 0.59548 0.47349 0.0
C1865 C 0.64182 0.57372 0.44699 0.0
C1866 C 0.65682 0.57382 0.41897 0.0
C1867 C 0.38796 0.95489 0.122 0.0
C1868 C 0.38852 0.93992 0.09091 0.0
C1869 C 0.39477 0.94038 0.14647 0.0
C1870 C 0.40188 0.91084 0.13969 0.0
H1871 H 0.37955 0.97589 0.12708 0.0
H1872 H 0.39113 0.95008 0.17005 0.0
S1873 S 0.41393 0.86786 0.06258 0.0
N1874 N 0.40283 0.89904 0.05487 0.0
N1875 N 0.41486 0.87064 0.10107 0.0
C1876 C 0.40656 0.89835 0.10919 0.0
C1877 C 0.39979 0.91322 0.08445 0.0
C1878 C 0.02411 0.5841 0.92551 0.0
C1879 C 1.00727 0.55364 0.91101 0.0
C1880 C 0.04632 0.58701 0.94907 0.0
C1881 C 0.05116 0.55954 0.95834 0.0
H1882 H 0.02233 0.60499 0.91605 0.0
H1883 H 0.06038 0.61039 0.95904 0.0
S1884 S 1.00924 0.47547 0.93088 0.0
N1885 N 0.99398 0.49644 0.90961 0.0
N1886 N 0.03539 0.50192 0.95526 0.0
C1887 C 0.03222 0.52953 0.94673 0.0
C1888 C 1.00995 0.52659 0.92264 0.0
C1889 C 0.28276 0.2571 0.63749 0.0
C1890 C 0.30315 0.26694 0.61811 0.0
C1891 C 0.28646 0.27047 0.6699 0.0
C1892 C 0.31094 0.29408 0.6844 0.0
H1893 H 0.26419 0.23773 0.62772 0.0
H1894 H 0.27083 0.26092 0.68395 0.0
S1895 S 0.36992 0.3306 0.64503 0.0
N1896 N 0.34817 0.30361 0.61619 0.0
N1897 N 0.35494 0.32874 0.67724 0.0
C1898 C 0.3309 0.3054 0.66536 0.0
C1899 C 0.32707 0.29194 0.63217 0.0
C1900 C 0.62594 0.5582 0.18641 0.0
C1901 C 0.65325 0.55142 0.18924 0.0
C1902 C 0.61232 0.56387 0.15763 0.0
C1903 C 0.6247 0.56257 0.12931 0.0
H1904 H 0.61486 0.55931 0.20676 0.0
H1905 H 0.59152 0.56863 0.15745 0.0
S1906 S 0.69622 0.54834 0.12303 0.0
N1907 N 0.69218 0.54598 0.15987 0.0
N1908 N 0.66685 0.55559 0.1072 0.0
C1909 C 0.65194 0.55643 0.13193 0.0
C1910 C 0.66597 0.5512 0.16117 0.0
C1911 C 0.32291 0.90108 0.89415 0.0
C1912 C 0.34862 0.91274 0.91432 0.0
C1913 C 0.31924 0.87457 0.86984 0.0
C1914 C 0.34124 0.85925 0.86514 0.0
H1915 H 0.30539 0.91212 0.89762 0.0
H1916 H 0.29913 0.86613 0.85433 0.0
S1917 S 0.41386 0.88367 0.90949 0.0
N1918 N 0.39714 0.90909 0.92742 0.0
N1919 N 0.39047 0.85931 0.88029 0.0
C1920 C 0.36754 0.87147 0.88436 0.0
C1921 C 0.37115 0.89829 0.90956 0.0
C1922 C 0.97397 0.4941 0.71956 0.0
C1923 C 0.98889 0.52382 0.73867 0.0
C1924 C 0.98331 0.48233 0.69185 0.0
C1925 C 1.00777 0.4999 0.68351 0.0
H1926 H 0.95431 0.48071 0.72514 0.0
H1927 H 0.97052 0.46076 0.67597 0.0
S1928 S 0.05574 0.57712 0.72787 0.0
N1929 N 0.03033 0.56887 0.7495 0.0
N1930 N 0.04825 0.54681 0.6971 0.0
C1931 C 0.02426 0.52826 0.70391 0.0
C1932 C 1.01467 0.5402 0.73185 0.0
C1933 C 0.30081 0.25825 0.39145 0.0
C1934 C 0.31804 0.26979 0.42121 0.0
C1935 C 0.30732 0.27138 0.36479 0.0
C1936 C 0.33196 0.29589 0.36622 0.0
H1937 H 0.28186 0.2391 0.38881 0.0
H1938 H 0.29294 0.26204 0.34285 0.0
S1939 S 0.38419 0.33511 0.43815 0.0
N1940 N 0.36067 0.30811 0.45021 0.0
N1941 N 0.37318 0.33183 0.40031 0.0
C1942 C 0.34923 0.30783 0.39579 0.0
C1943 C 0.34227 0.29502 0.4231 0.0
C1944 C 0.39642 0.61521 0.55648 0.0
C1945 C 0.37298 0.61532 0.53568 0.0
C1946 C 0.4197 0.60723 0.54474 0.0
C1947 C 0.42005 0.59935 0.5119 0.0
H1948 H 0.39677 0.62148 0.58184 0.0
H1949 H 0.43713 0.6062 0.56162 0.0
S1950 S 0.36256 0.59604 0.44815 0.0
N1951 N 0.35027 0.6069 0.48138 0.0
N1952 N 0.39475 0.59218 0.45887 0.0
C1953 C 0.39652 0.59969 0.49087 0.0
C1954 C 0.37274 0.60773 0.50292 0.0
C1955 C 0.97483 0.97709 0.55018 0.0
C1956 C 0.95177 0.99152 0.55255 0.0
C1957 C 1.00279 0.99544 0.5496 0.0
C1958 C 1.00925 0.02914 0.5522 0.0
H1959 H 0.97115 0.95135 0.54761 0.0
H1960 H 0.01938 0.98297 0.54701 0.0
S1961 S 0.95642 0.07827 0.55606 0.0
N1962 N 0.93768 0.04176 0.5555 0.0
N1963 N 0.98938 0.07537 0.55496 0.0
C1964 C 0.98633 0.04356 0.55406 0.0
C1965 C 0.95802 0.02506 0.55418 0.0
C1966 C 0.88632 0.18453 0.25602 0.0
C1967 C 0.9097 0.1845 0.27882 0.0
C1968 C 0.87099 0.20976 0.25789 0.0
C1969 C 0.87749 0.23785 0.28267 0.0
H1970 H 0.87966 0.16462 0.23591 0.0
H1971 H 0.85388 0.20728 0.23908 0.0
S1972 S 0.93431 0.25079 0.35069 0.0
N1973 N 0.93646 0.21652 0.32884 0.0
N1974 N 0.90882 0.26234 0.33162 0.0
C1975 C 0.90043 0.23817 0.30571 0.0
C1976 C 0.91592 0.2124 0.30404 0.0
C1977 C 0.70861 0.10458 0.05657 0.0
C1978 C 0.72123 0.13037 0.04387 0.0
C1979 C 0.68041 0.0999 0.06048 0.0
C1980 C 0.66443 0.12026 0.0506 0.0
H1981 H 0.7209 0.08916 0.065 0.0
H1982 H 0.67099 0.0798 0.07048 0.0
S1983 S 0.68783 0.18875 1.01287 0.0
N1984 N 0.71632 0.17524 0.0197 0.0
N1985 N 0.66221 0.16539 0.02608 0.0
C1986 C 0.67662 0.14524 0.03671 0.0
C1987 C 0.70542 0.1504 0.03326 0.0
C1988 C 0.24409 0.51072 0.29561 0.0
C1989 C 0.25663 0.53238 0.27776 0.0
C1990 C 0.25949 0.4922 0.30855 0.0
C1991 C 0.28768 0.49562 0.30431 0.0
H1992 H 0.22192 0.50691 0.29849 0.0
H1993 H 0.24903 0.47397 0.3203 0.0
S1994 S 0.33147 0.55108 0.26339 0.0
N1995 N 0.29973 0.55834 0.25919 0.0
N1996 N 0.32884 0.52275 0.28418 0.0
C1997 C 0.30126 0.51857 0.28874 0.0
C1998 C 0.2856 0.53738 0.27526 0.0
C1999 C 0.28455 0.47215 0.02177 0.0
C2000 C 0.28086 0.44645 0.03761 0.0
C2001 C 0.2621 0.48593 1.01444 0.0
C2002 C 0.23535 0.47462 0.02309 0.0
H2003 H 0.30507 0.48218 0.01562 0.0
H2004 H 0.26613 0.50656 1.00348 0.0
S2005 S 0.21349 0.40555 0.06089 0.0
N2006 N 0.24747 0.40836 0.05876 0.0
N2007 N 0.20537 0.43432 0.04476 0.0
C2008 C 0.23087 0.44768 0.03687 0.0
C2009 C 0.2536 0.43353 0.04419 0.0
C2010 C 0.91578 0.94578 0.27263 0.0
C2011 C 0.90684 0.9748 0.27201 0.0
C2012 C 0.89721 0.91599 0.27553 0.0
C2013 C 0.86799 0.91278 0.27789 0.0
H2014 H 0.93773 0.94597 0.27094 0.0
H2015 H 0.90599 0.89542 0.2757 0.0
S2016 S 0.83278 0.98033 0.27855 0.0
N2017 N 0.86577 0.99693 0.27495 0.0
N2018 N 0.83179 0.94275 0.28014 0.0
C2019 C 0.85902 0.94167 0.27771 0.0
C2020 C 0.87786 0.97184 0.27489 0.0
C2021 C 0.73407 0.21013 0.7553 0.0
C2022 C 0.7375 0.17904 0.74738 0.0
C2023 C 0.75777 0.23562 0.76176 0.0
C2024 C 0.78477 0.22989 0.7606 0.0
H2025 H 0.71336 0.21457 0.75757 0.0
H2026 H 0.75507 0.25978 0.76796 0.0
S2027 S 0.80447 0.15325 0.74086 0.0
N2028 N 0.76959 0.14372 0.73844 0.0
N2029 N 0.81426 0.19276 0.75057 0.0
C2030 C 0.7885 0.19934 0.75216 0.0
C2031 C 0.76461 0.17338 0.74564 0.0
loop_
_geom_bond_atom_site_label_1
_geom_bond_atom_site_label_2
_geom_bond_distance
_geom_bond_site_symmetry_2
_ccdc_geom_bond_type
C0 O1 1.306 . S
C0 O3 1.160 . S
O1 C0 1.306 . S
O1 Cd2 2.228 . S
Cd2 O1 2.228 . S
Cd2 O6 2.273 . S
Cd2 O10 2.277 . S
O3 C0 1.160 . S
O3 Cd4 2.203 . S
Cd4 O3 2.203 . S
Cd4 O6 2.411 . S
Cd4 O7 2.333 . S
Cd4 O8 2.352 . S
Cd4 O12 2.277 . S
Cd4 O13 2.356 . S
C5 O10 1.209 . S
C5 O12 1.226 . S
O6 Cd2 2.273 . S
O6 Cd4 2.411 . S
O6 C9 1.320 . S
O7 Cd4 2.333 . S
O7 C9 1.214 . S
O8 Cd4 2.352 . S
O8 C11 1.258 . S
C9 O6 1.320 . S
C9 O7 1.214 . S
O10 Cd2 2.277 . S
O10 C5 1.209 . S
C11 O8 1.258 . S
C11 O13 1.282 . S
O12 Cd4 2.277 . S
O12 C5 1.226 . S
O13 Cd4 2.356 . S
O13 C11 1.282 . S
C14 O15 1.306 . S
C14 O17 1.160 . S
O15 C14 1.306 . S
O15 Cd16 2.228 1_655 S
Cd16 O15 2.228 1_455 S
Cd16 O20 2.273 . S
Cd16 O24 2.277 1_455 S
O17 C14 1.160 . S
O17 Cd18 2.203 1_655 S
Cd18 O17 2.203 1_455 S
Cd18 O20 2.411 . S
Cd18 O21 2.333 . S
Cd18 O22 2.352 . S
Cd18 O26 2.277 1_455 S
Cd18 O27 2.356 . S
C19 O24 1.209 . S
C19 O26 1.226 . S
O20 Cd16 2.273 . S
O20 Cd18 2.411 . S
O20 C23 1.320 . S
O21 Cd18 2.333 . S
O21 C23 1.214 . S
O22 Cd18 2.352 . S
O22 C25 1.258 . S
C23 O20 1.320 . S
C23 O21 1.214 . S
O24 Cd16 2.277 1_655 S
O24 C19 1.209 . S
C25 O22 1.258 . S
C25 O27 1.282 . S
O26 Cd18 2.277 1_655 S
O26 C19 1.226 . S
O27 Cd18 2.356 . S
O27 C25 1.282 . S
C28 O29 1.306 . S
C28 O31 1.160 . S
O29 C28 1.306 . S
O29 Cd30 2.228 . S
Cd30 O29 2.228 . S
Cd30 O34 2.273 . S
Cd30 O38 2.277 . S
O31 C28 1.160 . S
O31 Cd32 2.203 . S
Cd32 O31 2.203 . S
Cd32 O34 2.411 . S
Cd32 O35 2.333 . S
Cd32 O36 2.352 . S
Cd32 O40 2.277 . S
Cd32 O41 2.356 . S
C33 O38 1.209 . S
C33 O40 1.226 . S
O34 Cd30 2.273 . S
O34 Cd32 2.411 . S
O34 C37 1.320 . S
O35 Cd32 2.333 . S
O35 C37 1.214 . S
O36 Cd32 2.352 . S
O36 C39 1.258 . S
C37 O34 1.320 . S
C37 O35 1.214 . S
O38 Cd30 2.277 . S
O38 C33 1.209 . S
C39 O36 1.258 . S
C39 O41 1.282 . S
O40 Cd32 2.277 . S
O40 C33 1.226 . S
O41 Cd32 2.356 . S
O41 C39 1.282 . S
C42 O43 1.306 . S
C42 O45 1.160 . S
O43 C42 1.306 . S
O43 Cd44 2.228 . S
Cd44 O43 2.228 . S
Cd44 O48 2.273 . S
Cd44 O52 2.277 . S
O45 C42 1.160 . S
O45 Cd46 2.203 . S
Cd46 O45 2.203 . S
Cd46 O48 2.411 . S
Cd46 O49 2.333 . S
Cd46 O50 2.352 . S
Cd46 O54 2.277 . S
Cd46 O55 2.356 . S
C47 O52 1.209 . S
C47 O54 1.226 . S
O48 Cd44 2.273 . S
O48 Cd46 2.411 . S
O48 C51 1.320 . S
O49 Cd46 2.333 . S
O49 C51 1.214 . S
O50 Cd46 2.352 . S
O50 C53 1.258 . S
C51 O48 1.320 . S
C51 O49 1.214 . S
O52 Cd44 2.277 . S
O52 C47 1.209 . S
C53 O50 1.258 . S
C53 O55 1.282 . S
O54 Cd46 2.277 . S
O54 C47 1.226 . S
O55 Cd46 2.356 . S
O55 C53 1.282 . S
C56 O57 1.306 . S
C56 O59 1.160 . S
O57 C56 1.306 . S
O57 Cd58 2.228 . S
Cd58 O57 2.228 . S
Cd58 O62 2.273 . S
Cd58 O66 2.277 . S
O59 C56 1.160 . S
O59 Cd60 2.203 . S
Cd60 O59 2.203 . S
Cd60 O62 2.411 . S
Cd60 O63 2.333 . S
Cd60 O64 2.352 . S
Cd60 O68 2.277 . S
Cd60 O69 2.356 . S
C61 O66 1.209 . S
C61 O68 1.226 . S
O62 Cd58 2.273 . S
O62 Cd60 2.411 . S
O62 C65 1.320 . S
O63 Cd60 2.333 . S
O63 C65 1.214 . S
O64 Cd60 2.352 . S
O64 C67 1.258 . S
C65 O62 1.320 . S
C65 O63 1.214 . S
O66 Cd58 2.277 . S
O66 C61 1.209 . S
C67 O64 1.258 . S
C67 O69 1.282 . S
O68 Cd60 2.277 . S
O68 C61 1.226 . S
O69 Cd60 2.356 . S
O69 C67 1.282 . S
C70 O71 1.306 . S
C70 O73 1.160 . S
O71 C70 1.306 . S
O71 Cd72 2.228 . S
Cd72 O71 2.228 . S
Cd72 O76 2.273 . S
Cd72 O80 2.277 . S
O73 C70 1.160 . S
O73 Cd74 2.203 . S
Cd74 O73 2.203 . S
Cd74 O76 2.411 . S
Cd74 O77 2.333 . S
Cd74 O78 2.352 . S
Cd74 O82 2.277 . S
Cd74 O83 2.356 . S
C75 O80 1.209 . S
C75 O82 1.226 . S
O76 Cd72 2.273 . S
O76 Cd74 2.411 . S
O76 C79 1.320 . S
O77 Cd74 2.333 . S
O77 C79 1.214 . S
O78 Cd74 2.352 . S
O78 C81 1.258 . S
C79 O76 1.320 . S
C79 O77 1.214 . S
O80 Cd72 2.277 . S
O80 C75 1.209 . S
C81 O78 1.258 . S
C81 O83 1.282 . S
O82 Cd74 2.277 . S
O82 C75 1.226 . S
O83 Cd74 2.356 . S
O83 C81 1.282 . S
C84 O85 1.306 . S
C84 O87 1.160 . S
O85 C84 1.306 . S
O85 Cd86 2.228 . S
Cd86 O85 2.228 . S
Cd86 O90 2.273 . S
Cd86 O94 2.277 . S
O87 C84 1.160 . S
O87 Cd88 2.203 . S
Cd88 O87 2.203 . S
Cd88 O90 2.411 . S
Cd88 O91 2.333 . S
Cd88 O92 2.352 . S
Cd88 O96 2.277 . S
Cd88 O97 2.356 . S
C89 O94 1.209 . S
C89 O96 1.226 . S
O90 Cd86 2.273 . S
O90 Cd88 2.411 . S
O90 C93 1.320 . S
O91 Cd88 2.333 . S
O91 C93 1.214 . S
O92 Cd88 2.352 . S
O92 C95 1.258 . S
C93 O90 1.320 . S
C93 O91 1.214 . S
O94 Cd86 2.277 . S
O94 C89 1.209 . S
C95 O92 1.258 . S
C95 O97 1.282 . S
O96 Cd88 2.277 . S
O96 C89 1.226 . S
O97 Cd88 2.356 . S
O97 C95 1.282 . S
C98 O99 1.306 . S
C98 O101 1.160 . S
O99 C98 1.306 . S
O99 Cd100 2.228 1_655 S
Cd100 O99 2.228 1_455 S
Cd100 O104 2.273 . S
Cd100 O108 2.277 . S
O101 C98 1.160 . S
O101 Cd102 2.203 1_655 S
Cd102 O101 2.203 1_455 S
Cd102 O104 2.411 . S
Cd102 O105 2.333 . S
Cd102 O106 2.352 . S
Cd102 O110 2.277 . S
Cd102 O111 2.356 . S
C103 O108 1.209 . S
C103 O110 1.226 . S
O104 Cd100 2.273 . S
O104 Cd102 2.411 . S
O104 C107 1.320 . S
O105 Cd102 2.333 . S
O105 C107 1.214 . S
O106 Cd102 2.352 . S
O106 C109 1.258 . S
C107 O104 1.320 . S
C107 O105 1.214 . S
O108 Cd100 2.277 . S
O108 C103 1.209 . S
C109 O106 1.258 . S
C109 O111 1.282 . S
O110 Cd102 2.277 . S
O110 C103 1.226 . S
O111 Cd102 2.356 . S
O111 C109 1.282 . S
C112 O113 1.306 1_545 S
C112 O115 1.160 . S
O113 C112 1.306 1_565 S
O113 Cd114 2.228 . S
Cd114 O113 2.228 . S
Cd114 O118 2.273 1_565 S
Cd114 O122 2.277 . S
O115 C112 1.160 . S
O115 Cd116 2.203 . S
Cd116 O115 2.203 . S
Cd116 O118 2.411 . S
Cd116 O119 2.333 1_545 S
Cd116 O120 2.352 . S
Cd116 O124 2.277 1_545 S
Cd116 O125 2.356 . S
C117 O122 1.209 . S
C117 O124 1.226 . S
O118 Cd114 2.273 1_545 S
O118 Cd116 2.411 . S
O118 C121 1.320 1_545 S
O119 Cd116 2.333 1_565 S
O119 C121 1.214 . S
O120 Cd116 2.352 . S
O120 C123 1.258 . S
C121 O118 1.320 1_565 S
C121 O119 1.214 . S
O122 Cd114 2.277 . S
O122 C117 1.209 . S
C123 O120 1.258 . S
C123 O125 1.282 . S
O124 Cd116 2.277 1_565 S
O124 C117 1.226 . S
O125 Cd116 2.356 . S
O125 C123 1.282 . S
C126 O127 1.306 . S
C126 O129 1.160 . S
O127 C126 1.306 . S
O127 Cd128 2.228 . S
Cd128 O127 2.228 . S
Cd128 O132 2.273 . S
Cd128 O136 2.277 . S
O129 C126 1.160 . S
O129 Cd130 2.203 . S
Cd130 O129 2.203 . S
Cd130 O132 2.411 . S
Cd130 O133 2.333 . S
Cd130 O134 2.352 . S
Cd130 O138 2.277 . S
Cd130 O139 2.356 . S
C131 O136 1.209 . S
C131 O138 1.226 . S
O132 Cd128 2.273 . S
O132 Cd130 2.411 . S
O132 C135 1.320 . S
O133 Cd130 2.333 . S
O133 C135 1.214 . S
O134 Cd130 2.352 . S
O134 C137 1.258 . S
C135 O132 1.320 . S
C135 O133 1.214 . S
O136 Cd128 2.277 . S
O136 C131 1.209 . S
C137 O134 1.258 . S
C137 O139 1.282 . S
O138 Cd130 2.277 . S
O138 C131 1.226 . S
O139 Cd130 2.356 . S
O139 C137 1.282 . S
C140 O141 1.306 . S
C140 O143 1.160 . S
O141 C140 1.306 . S
O141 Cd142 2.228 . S
Cd142 O141 2.228 . S
Cd142 O146 2.273 . S
Cd142 O150 2.277 . S
O143 C140 1.160 . S
O143 Cd144 2.203 . S
Cd144 O143 2.203 . S
Cd144 O146 2.411 . S
Cd144 O147 2.333 . S
Cd144 O148 2.352 1_545 S
Cd144 O152 2.277 . S
Cd144 O153 2.356 1_545 S
C145 O150 1.209 . S
C145 O152 1.226 . S
O146 Cd142 2.273 . S
O146 Cd144 2.411 . S
O146 C149 1.320 . S
O147 Cd144 2.333 . S
O147 C149 1.214 . S
O148 Cd144 2.352 1_565 S
O148 C151 1.258 . S
C149 O146 1.320 . S
C149 O147 1.214 . S
O150 Cd142 2.277 . S
O150 C145 1.209 . S
C151 O148 1.258 . S
C151 O153 1.282 . S
O152 Cd144 2.277 . S
O152 C145 1.226 . S
O153 Cd144 2.356 1_565 S
O153 C151 1.282 . S
C154 O155 1.313 1_554 S
C154 O157 1.160 . S
O155 C154 1.313 1_556 S
O155 Cd156 2.236 . S
Cd156 O155 2.236 . S
Cd156 O160 2.284 1_556 S
Cd156 O164 2.307 . S
O157 C154 1.160 . S
O157 Cd158 2.203 . S
Cd158 O157 2.203 . S
Cd158 O160 2.411 . S
Cd158 O161 2.333 . S
Cd158 O162 2.352 . S
Cd158 O166 2.277 1_554 S
Cd158 O167 2.356 . S
C159 O164 1.209 . S
C159 O166 1.226 . S
O160 Cd156 2.284 1_554 S
O160 Cd158 2.411 . S
O160 C163 1.318 . S
O161 Cd158 2.333 . S
O161 C163 1.217 . S
O162 Cd158 2.352 . S
O162 C165 1.258 . S
C163 O160 1.318 . S
C163 O161 1.217 . S
O164 Cd156 2.307 . S
O164 C159 1.209 . S
C165 O162 1.258 . S
C165 O167 1.282 . S
O166 Cd158 2.277 1_556 S
O166 C159 1.226 . S
O167 Cd158 2.356 . S
O167 C165 1.282 . S
C168 O169 1.306 . S
C168 O171 1.160 . S
O169 C168 1.306 . S
O169 Cd170 2.228 1_554 S
Cd170 O169 2.228 1_556 S
Cd170 O174 2.273 1_556 S
Cd170 O178 2.277 . S
O171 C168 1.160 . S
O171 Cd172 2.203 . S
Cd172 O171 2.203 . S
Cd172 O174 2.411 . S
Cd172 O175 2.333 . S
Cd172 O176 2.352 . S
Cd172 O180 2.277 1_554 S
Cd172 O181 2.356 . S
C173 O178 1.209 . S
C173 O180 1.226 . S
O174 Cd170 2.273 1_554 S
O174 Cd172 2.411 . S
O174 C177 1.320 . S
O175 Cd172 2.333 . S
O175 C177 1.214 . S
O176 Cd172 2.352 . S
O176 C179 1.258 . S
C177 O174 1.320 . S
C177 O175 1.214 . S
O178 Cd170 2.277 . S
O178 C173 1.209 . S
C179 O176 1.258 . S
C179 O181 1.282 . S
O180 Cd172 2.277 1_556 S
O180 C173 1.226 . S
O181 Cd172 2.356 . S
O181 C179 1.282 . S
C182 O183 1.306 . S
C182 O185 1.160 . S
O183 C182 1.306 . S
O183 Cd184 2.228 . S
Cd184 O183 2.228 . S
Cd184 O188 2.273 . S
Cd184 O192 2.277 . S
O185 C182 1.160 . S
O185 Cd186 2.203 . S
Cd186 O185 2.203 . S
Cd186 O188 2.411 . S
Cd186 O189 2.333 . S
Cd186 O190 2.352 1_554 S
Cd186 O194 2.277 . S
Cd186 O195 2.356 . S
C187 O192 1.209 . S
C187 O194 1.226 . S
O188 Cd184 2.273 . S
O188 Cd186 2.411 . S
O188 C191 1.320 . S
O189 Cd186 2.333 . S
O189 C191 1.214 . S
O190 Cd186 2.352 1_556 S
O190 C193 1.258 . S
C191 O188 1.320 . S
C191 O189 1.214 . S
O192 Cd184 2.277 . S
O192 C187 1.209 . S
C193 O190 1.258 . S
C193 O195 1.282 1_556 S
O194 Cd186 2.277 . S
O194 C187 1.226 . S
O195 Cd186 2.356 . S
O195 C193 1.282 1_554 S
C196 O197 1.306 . S
C196 O199 1.160 . S
O197 C196 1.306 . S
O197 Cd198 2.228 . S
Cd198 O197 2.228 . S
Cd198 O202 2.273 . S
Cd198 O206 2.277 . S
O199 C196 1.160 . S
O199 Cd200 2.203 . S
Cd200 O199 2.203 . S
Cd200 O202 2.411 . S
Cd200 O203 2.333 . S
Cd200 O204 2.352 . S
Cd200 O208 2.277 . S
Cd200 O209 2.356 . S
C201 O206 1.209 . S
C201 O208 1.226 . S
O202 Cd198 2.273 . S
O202 Cd200 2.411 . S
O202 C205 1.320 . S
O203 Cd200 2.333 . S
O203 C205 1.214 . S
O204 Cd200 2.352 . S
O204 C207 1.258 . S
C205 O202 1.320 . S
C205 O203 1.214 . S
O206 Cd198 2.277 . S
O206 C201 1.209 . S
C207 O204 1.258 . S
C207 O209 1.282 . S
O208 Cd200 2.277 . S
O208 C201 1.226 . S
O209 Cd200 2.356 . S
O209 C207 1.282 . S
C210 O211 1.306 . S
C210 O213 1.160 . S
O211 C210 1.306 . S
O211 Cd212 2.228 . S
Cd212 O211 2.228 . S
Cd212 O216 2.273 . S
Cd212 O220 2.277 . S
O213 C210 1.160 . S
O213 Cd214 2.203 . S
Cd214 O213 2.203 . S
Cd214 O216 2.411 . S
Cd214 O217 2.333 . S
Cd214 O218 2.352 . S
Cd214 O222 2.277 . S
Cd214 O223 2.356 . S
C215 O220 1.209 . S
C215 O222 1.226 . S
O216 Cd212 2.273 . S
O216 Cd214 2.411 . S
O216 C219 1.320 . S
O217 Cd214 2.333 . S
O217 C219 1.214 . S
O218 Cd214 2.352 . S
O218 C221 1.258 . S
C219 O216 1.320 . S
C219 O217 1.214 . S
O220 Cd212 2.277 . S
O220 C215 1.209 . S
C221 O218 1.258 . S
C221 O223 1.282 . S
O222 Cd214 2.277 . S
O222 C215 1.226 . S
O223 Cd214 2.356 . S
O223 C221 1.282 . S
C224 O225 1.306 1_655 S
C224 O227 1.160 . S
O225 C224 1.306 1_455 S
O225 Cd226 2.228 . S
Cd226 O225 2.228 . S
Cd226 O230 2.273 1_455 S
Cd226 O234 2.277 1_455 S
O227 C224 1.160 . S
O227 Cd228 2.203 . S
Cd228 O227 2.203 . S
Cd228 O230 2.411 . S
Cd228 O231 2.333 . S
Cd228 O232 2.352 . S
Cd228 O236 2.277 . S
Cd228 O237 2.356 . S
C229 O234 1.209 . S
C229 O236 1.226 . S
O230 Cd226 2.273 1_655 S
O230 Cd228 2.411 . S
O230 C233 1.320 . S
O231 Cd228 2.333 . S
O231 C233 1.214 . S
O232 Cd228 2.352 . S
O232 C235 1.258 . S
C233 O230 1.320 . S
C233 O231 1.214 . S
O234 Cd226 2.277 1_655 S
O234 C229 1.209 . S
C235 O232 1.258 . S
C235 O237 1.282 . S
O236 Cd228 2.277 . S
O236 C229 1.226 . S
O237 Cd228 2.356 . S
O237 C235 1.282 . S
C238 O239 1.306 . S
C238 O241 1.160 . S
O239 C238 1.306 . S
O239 Cd240 2.228 . S
Cd240 O239 2.228 . S
Cd240 O244 2.273 . S
Cd240 O248 2.277 . S
O241 C238 1.160 . S
O241 Cd242 2.203 . S
Cd242 O241 2.203 . S
Cd242 O244 2.411 . S
Cd242 O245 2.333 . S
Cd242 O246 2.352 . S
Cd242 O250 2.277 . S
Cd242 O251 2.356 . S
C243 O248 1.209 . S
C243 O250 1.226 . S
O244 Cd240 2.273 . S
O244 Cd242 2.411 . S
O244 C247 1.320 . S
O245 Cd242 2.333 . S
O245 C247 1.214 . S
O246 Cd242 2.352 . S
O246 C249 1.258 . S
C247 O244 1.320 . S
C247 O245 1.214 . S
O248 Cd240 2.277 . S
O248 C243 1.209 . S
C249 O246 1.258 . S
C249 O251 1.282 . S
O250 Cd242 2.277 . S
O250 C243 1.226 . S
O251 Cd242 2.356 . S
O251 C249 1.282 . S
C252 O253 1.306 . S
C252 O255 1.160 . S
O253 C252 1.306 . S
O253 Cd254 2.228 . S
Cd254 O253 2.228 . S
Cd254 O258 2.273 . S
Cd254 O262 2.277 . S
O255 C252 1.160 . S
O255 Cd256 2.203 . S
Cd256 O255 2.203 . S
Cd256 O258 2.411 . S
Cd256 O259 2.333 . S
Cd256 O260 2.352 . S
Cd256 O264 2.277 . S
Cd256 O265 2.356 . S
C257 O262 1.209 . S
C257 O264 1.226 . S
O258 Cd254 2.273 . S
O258 Cd256 2.411 . S
O258 C261 1.320 . S
O259 Cd256 2.333 . S
O259 C261 1.214 . S
O260 Cd256 2.352 . S
O260 C263 1.258 . S
C261 O258 1.320 . S
C261 O259 1.214 . S
O262 Cd254 2.277 . S
O262 C257 1.209 . S
C263 O260 1.258 . S
C263 O265 1.282 . S
O264 Cd256 2.277 . S
O264 C257 1.226 . S
O265 Cd256 2.356 . S
O265 C263 1.282 . S
C266 O267 1.306 . S
C266 O269 1.160 . S
O267 C266 1.306 . S
O267 Cd268 2.228 . S
Cd268 O267 2.228 . S
Cd268 O272 2.273 . S
Cd268 O276 2.277 . S
O269 C266 1.160 . S
O269 Cd270 2.203 . S
Cd270 O269 2.203 . S
Cd270 O272 2.411 . S
Cd270 O273 2.333 . S
Cd270 O274 2.352 . S
Cd270 O278 2.277 . S
Cd270 O279 2.356 . S
C271 O276 1.209 . S
C271 O278 1.226 . S
O272 Cd268 2.273 . S
O272 Cd270 2.411 . S
O272 C275 1.320 . S
O273 Cd270 2.333 . S
O273 C275 1.214 . S
O274 Cd270 2.352 . S
O274 C277 1.258 . S
C275 O272 1.320 . S
C275 O273 1.214 . S
O276 Cd268 2.277 . S
O276 C271 1.209 . S
C277 O274 1.258 . S
C277 O279 1.282 . S
O278 Cd270 2.277 . S
O278 C271 1.226 . S
O279 Cd270 2.356 . S
O279 C277 1.282 . S
C280 O281 1.306 . S
C280 O283 1.160 . S
O281 C280 1.306 . S
O281 Cd282 2.228 . S
Cd282 O281 2.228 . S
Cd282 O286 2.273 . S
Cd282 O290 2.277 . S
O283 C280 1.160 . S
O283 Cd284 2.203 . S
Cd284 O283 2.203 . S
Cd284 O286 2.411 . S
Cd284 O287 2.332 . S
Cd284 O288 2.352 1_554 S
Cd284 O292 2.277 . S
Cd284 O293 2.356 1_554 S
C285 O290 1.209 . S
C285 O292 1.226 . S
O286 Cd282 2.273 . S
O286 Cd284 2.411 . S
O286 C289 1.320 . S
O287 Cd284 2.332 . S
O287 C289 1.217 . S
O288 Cd284 2.352 1_556 S
O288 C291 1.258 . S
C289 O286 1.320 . S
C289 O287 1.217 . S
O290 Cd282 2.277 . S
O290 C285 1.209 . S
C291 O288 1.258 . S
C291 O293 1.282 . S
O292 Cd284 2.277 . S
O292 C285 1.226 . S
O293 Cd284 2.356 1_556 S
O293 C291 1.282 . S
C294 O295 1.306 . S
C294 O297 1.160 . S
O295 C294 1.306 . S
O295 Cd296 2.228 . S
Cd296 O295 2.228 . S
Cd296 O300 2.273 . S
Cd296 O304 2.277 . S
O297 C294 1.160 . S
O297 Cd298 2.203 . S
Cd298 O297 2.203 . S
Cd298 O300 2.411 . S
Cd298 O301 2.333 . S
Cd298 O302 2.352 . S
Cd298 O306 2.277 . S
Cd298 O307 2.356 . S
C299 O304 1.209 . S
C299 O306 1.226 . S
O300 Cd296 2.273 . S
O300 Cd298 2.411 . S
O300 C303 1.320 . S
O301 Cd298 2.333 . S
O301 C303 1.214 . S
O302 Cd298 2.352 . S
O302 C305 1.258 . S
C303 O300 1.320 . S
C303 O301 1.214 . S
O304 Cd296 2.277 . S
O304 C299 1.209 . S
C305 O302 1.258 . S
C305 O307 1.282 . S
O306 Cd298 2.277 . S
O306 C299 1.226 . S
O307 Cd298 2.356 . S
O307 C305 1.282 . S
C308 O309 1.306 . S
C308 O311 1.160 . S
O309 C308 1.306 . S
O309 Cd310 2.228 . S
Cd310 O309 2.228 . S
Cd310 O314 2.273 . S
Cd310 O318 2.277 . S
O311 C308 1.160 . S
O311 Cd312 2.203 . S
Cd312 O311 2.203 . S
Cd312 O314 2.411 . S
Cd312 O315 2.333 . S
Cd312 O316 2.352 . S
Cd312 O320 2.277 . S
Cd312 O321 2.356 . S
C313 O318 1.209 . S
C313 O320 1.226 . S
O314 Cd310 2.273 . S
O314 Cd312 2.411 . S
O314 C317 1.320 . S
O315 Cd312 2.333 . S
O315 C317 1.214 . S
O316 Cd312 2.352 . S
O316 C319 1.258 . S
C317 O314 1.320 . S
C317 O315 1.214 . S
O318 Cd310 2.277 . S
O318 C313 1.209 . S
C319 O316 1.258 . S
C319 O321 1.282 . S
O320 Cd312 2.277 . S
O320 C313 1.226 . S
O321 Cd312 2.356 . S
O321 C319 1.282 . S
C322 O323 1.306 . S
C322 O325 1.160 . S
O323 C322 1.306 . S
O323 Cd324 2.228 . S
Cd324 O323 2.228 . S
Cd324 O328 2.273 . S
Cd324 O332 2.277 . S
O325 C322 1.160 . S
O325 Cd326 2.203 . S
Cd326 O325 2.203 . S
Cd326 O328 2.411 . S
Cd326 O329 2.333 . S
Cd326 O330 2.352 . S
Cd326 O334 2.277 . S
Cd326 O335 2.356 . S
C327 O332 1.209 . S
C327 O334 1.226 . S
O328 Cd324 2.273 . S
O328 Cd326 2.411 . S
O328 C331 1.320 . S
O329 Cd326 2.333 . S
O329 C331 1.214 . S
O330 Cd326 2.352 . S
O330 C333 1.258 . S
C331 O328 1.320 . S
C331 O329 1.214 . S
O332 Cd324 2.277 . S
O332 C327 1.209 . S
C333 O330 1.258 . S
C333 O335 1.282 . S
O334 Cd326 2.277 . S
O334 C327 1.226 . S
O335 Cd326 2.356 . S
O335 C333 1.282 . S
La336 C338 2.927 1_454 S
La336 O356 2.516 1_454 S
La336 O357 2.630 1_455 S
La336 O358 2.544 1_554 S
La336 O359 2.753 1_554 S
La336 O360 2.466 1_554 S
La336 O365 2.489 . S
La336 O367 2.507 1_545 S
La337 C347 2.928 . S
La337 O359 2.482 1_554 S
La337 O361 2.503 . S
La337 O362 2.521 . S
La337 O363 2.628 . S
La337 O364 2.554 . S
La337 O365 2.757 . S
La337 O366 2.470 . S
C338 La336 2.927 1_656 S
C338 C339 1.503 . S
C338 O356 1.261 . S
C338 O357 1.243 1_556 S
C339 C338 1.503 . S
C339 C340 1.394 . S
C339 C344 1.373 1_556 S
C340 C339 1.394 . S
C340 C341 1.380 . S
C340 H368 0.930 . S
C341 C340 1.380 . S
C341 C342 1.376 . S
C341 H369 0.930 . S
C342 C341 1.376 . S
C342 C343 1.370 . S
C343 C342 1.370 . S
C343 C344 1.396 1_556 S
C343 H370 0.929 1_556 S
C344 C339 1.373 1_554 S
C344 C343 1.396 1_554 S
C344 H371 0.929 . S
C345 O358 1.240 . S
C345 O359 1.289 . S
C346 O360 1.258 1_554 S
C346 O361 1.256 . S
C347 La337 2.928 . S
C347 C348 1.503 . S
C347 O362 1.261 . S
C347 O363 1.243 . S
C348 C347 1.503 . S
C348 C349 1.394 . S
C348 C353 1.373 . S
C349 C348 1.394 . S
C349 C350 1.380 . S
C349 H372 0.930 . S
C350 C349 1.380 . S
C350 C351 1.376 . S
C350 H373 0.930 . S
C351 C350 1.376 . S
C351 C352 1.370 . S
C352 C351 1.370 . S
C352 C353 1.396 . S
C352 H374 0.929 1_545 S
C353 C348 1.373 . S
C353 C352 1.396 . S
C353 H375 0.929 . S
C354 O364 1.240 . S
C354 O365 1.289 . S
C355 O366 1.258 1_565 S
C355 O367 1.256 . S
O356 La336 2.516 1_656 S
O356 C338 1.261 . S
O357 La336 2.630 1_655 S
O357 C338 1.243 1_554 S
O358 La336 2.544 1_556 S
O358 C345 1.240 . S
O359 La336 2.753 1_556 S
O359 La337 2.482 1_556 S
O359 C345 1.289 . S
O360 La336 2.466 1_556 S
O360 C346 1.258 1_556 S
O361 La337 2.503 . S
O361 C346 1.256 . S
O362 La337 2.521 . S
O362 C347 1.261 . S
O363 La337 2.628 . S
O363 C347 1.243 . S
O364 La337 2.554 . S
O364 C354 1.240 . S
O365 La336 2.489 . S
O365 La337 2.757 . S
O365 C354 1.289 . S
O366 La337 2.470 . S
O366 C355 1.258 1_545 S
O367 La336 2.507 1_565 S
O367 C355 1.256 . S
H368 C340 0.930 . S
H369 C341 0.930 . S
H370 C343 0.929 1_554 S
H371 C344 0.929 . S
H372 C349 0.930 . S
H373 C350 0.930 . S
H374 C352 0.929 1_565 S
H375 C353 0.929 . S
La376 C378 2.928 . S
La376 O396 2.521 . S
La376 O397 2.628 . S
La376 O398 2.554 . S
La376 O399 2.757 . S
La376 O400 2.470 . S
La376 O405 2.482 . S
La376 O407 2.503 . S
La377 C387 2.928 . S
La377 O399 2.482 . S
La377 O401 2.503 . S
La377 O402 2.521 . S
La377 O403 2.628 . S
La377 O404 2.554 . S
La377 O405 2.757 . S
La377 O406 2.470 . S
C378 La376 2.928 . S
C378 C379 1.503 . S
C378 O396 1.261 . S
C378 O397 1.243 . S
C379 C378 1.503 . S
C379 C380 1.394 . S
C379 C384 1.373 . S
C380 C379 1.394 . S
C380 C381 1.380 . S
C380 H408 0.930 . S
C381 C380 1.380 . S
C381 C382 1.376 . S
C381 H409 0.930 . S
C382 C381 1.376 . S
C382 C383 1.370 . S
C383 C382 1.370 . S
C383 C384 1.396 . S
C383 H410 0.929 . S
C384 C379 1.373 . S
C384 C383 1.396 . S
C384 H411 0.929 . S
C385 O398 1.240 . S
C385 O399 1.289 . S
C386 O400 1.258 . S
C386 O401 1.256 . S
C387 La377 2.928 . S
C387 C388 1.503 . S
C387 O402 1.261 . S
C387 O403 1.243 . S
C388 C387 1.503 . S
C388 C389 1.394 . S
C388 C393 1.373 . S
C389 C388 1.394 . S
C389 C390 1.380 . S
C389 H412 0.930 . S
C390 C389 1.380 . S
C390 C391 1.376 . S
C390 H413 0.930 . S
C391 C390 1.376 . S
C391 C392 1.370 . S
C392 C391 1.370 . S
C392 C393 1.396 . S
C392 H414 0.929 . S
C393 C388 1.373 . S
C393 C392 1.396 . S
C393 H415 0.929 . S
C394 O404 1.240 . S
C394 O405 1.289 . S
C395 O406 1.258 . S
C395 O407 1.256 . S
O396 La376 2.521 . S
O396 C378 1.261 . S
O397 La376 2.628 . S
O397 C378 1.243 . S
O398 La376 2.554 . S
O398 C385 1.240 . S
O399 La376 2.757 . S
O399 La377 2.482 . S
O399 C385 1.289 . S
O400 La376 2.470 . S
O400 C386 1.258 . S
O401 La377 2.503 . S
O401 C386 1.256 . S
O402 La377 2.521 . S
O402 C387 1.261 . S
O403 La377 2.628 . S
O403 C387 1.243 . S
O404 La377 2.554 . S
O404 C394 1.240 . S
O405 La376 2.482 . S
O405 La377 2.757 . S
O405 C394 1.289 . S
O406 La377 2.470 . S
O406 C395 1.258 . S
O407 La376 2.503 . S
O407 C395 1.256 . S
H408 C380 0.930 . S
H409 C381 0.930 . S
H410 C383 0.929 . S
H411 C384 0.929 . S
H412 C389 0.930 . S
H413 C390 0.930 . S
H414 C392 0.929 . S
H415 C393 0.929 . S
La416 C418 2.928 . S
La416 O436 2.521 . S
La416 O437 2.628 . S
La416 O438 2.554 . S
La416 O439 2.757 . S
La416 O440 2.470 1_545 S
La416 O445 2.482 . S
La416 O447 2.503 . S
La417 C427 2.928 . S
La417 O439 2.482 . S
La417 O441 2.503 1_545 S
La417 O442 2.521 . S
La417 O443 2.628 . S
La417 O444 2.554 . S
La417 O445 2.757 . S
La417 O446 2.470 . S
C418 La416 2.928 . S
C418 C419 1.503 1_545 S
C418 O436 1.261 . S
C418 O437 1.243 . S
C419 C418 1.503 1_565 S
C419 C420 1.394 . S
C419 C424 1.373 . S
C420 C419 1.394 . S
C420 C421 1.380 . S
C420 H448 0.924 1_565 S
C421 C420 1.380 . S
C421 C422 1.376 . S
C421 H449 0.930 . S
C422 C421 1.376 . S
C422 C423 1.370 . S
C423 C422 1.370 . S
C423 C424 1.396 . S
C423 H450 0.929 . S
C424 C419 1.373 . S
C424 C423 1.396 . S
C424 H451 0.929 . S
C425 O438 1.240 . S
C425 O439 1.289 . S
C426 O440 1.258 . S
C426 O441 1.256 . S
C427 La417 2.928 . S
C427 C428 1.503 . S
C427 O442 1.261 . S
C427 O443 1.243 . S
C428 C427 1.503 . S
C428 C429 1.394 . S
C428 C433 1.373 . S
C429 C428 1.394 . S
C429 C430 1.380 . S
C429 H452 0.930 . S
C430 C429 1.380 . S
C430 C431 1.376 . S
C430 H453 0.930 . S
C431 C430 1.376 . S
C431 C432 1.370 . S
C432 C431 1.370 . S
C432 C433 1.396 . S
C432 H454 0.929 . S
C433 C428 1.373 . S
C433 C432 1.396 . S
C433 H455 0.929 . S
C434 O444 1.240 . S
C434 O445 1.289 . S
C435 O446 1.258 . S
C435 O447 1.256 . S
O436 La416 2.521 . S
O436 C418 1.261 . S
O437 La416 2.628 . S
O437 C418 1.243 . S
O438 La416 2.554 . S
O438 C425 1.240 . S
O439 La416 2.757 . S
O439 La417 2.482 . S
O439 C425 1.289 . S
O440 La416 2.470 1_565 S
O440 C426 1.258 . S
O441 La417 2.503 1_565 S
O441 C426 1.256 . S
O442 La417 2.521 . S
O442 C427 1.261 . S
O443 La417 2.628 . S
O443 C427 1.243 . S
O444 La417 2.554 . S
O444 C434 1.240 . S
O445 La416 2.482 . S
O445 La417 2.757 . S
O445 C434 1.289 . S
O446 La417 2.470 . S
O446 C435 1.258 . S
O447 La416 2.503 . S
O447 C435 1.256 . S
H448 C420 0.924 1_545 S
H449 C421 0.930 . S
H450 C423 0.929 . S
H451 C424 0.929 . S
H452 C429 0.930 . S
H453 C430 0.930 . S
H454 C432 0.929 . S
H455 C433 0.929 . S
La456 C458 2.928 . S
La456 O476 2.521 . S
La456 O477 2.628 . S
La456 O478 2.554 . S
La456 O479 2.757 . S
La456 O480 2.470 . S
La456 O485 2.482 . S
La456 O487 2.503 . S
La457 C467 2.928 . S
La457 O479 2.482 . S
La457 O481 2.503 . S
La457 O482 2.521 . S
La457 O483 2.628 . S
La457 O484 2.554 . S
La457 O485 2.757 . S
La457 O486 2.470 . S
C458 La456 2.928 . S
C458 C459 1.503 . S
C458 O476 1.261 . S
C458 O477 1.243 . S
C459 C458 1.503 . S
C459 C460 1.394 . S
C459 C464 1.373 . S
C460 C459 1.394 . S
C460 C461 1.380 . S
C460 H488 0.930 . S
C461 C460 1.380 . S
C461 C462 1.376 . S
C461 H489 0.930 . S
C462 C461 1.376 . S
C462 C463 1.370 . S
C463 C462 1.370 . S
C463 C464 1.396 . S
C463 H490 0.929 . S
C464 C459 1.373 . S
C464 C463 1.396 . S
C464 H491 0.929 . S
C465 O478 1.240 . S
C465 O479 1.289 . S
C466 O480 1.258 . S
C466 O481 1.256 . S
C467 La457 2.928 . S
C467 C468 1.503 . S
C467 O482 1.261 . S
C467 O483 1.243 . S
C468 C467 1.503 . S
C468 C469 1.394 . S
C468 C473 1.373 . S
C469 C468 1.394 . S
C469 C470 1.380 . S
C469 H492 0.930 . S
C470 C469 1.380 . S
C470 C471 1.376 . S
C470 H493 0.930 . S
C471 C470 1.376 . S
C471 C472 1.370 . S
C472 C471 1.370 . S
C472 C473 1.396 . S
C472 H494 0.929 . S
C473 C468 1.373 . S
C473 C472 1.396 . S
C473 H495 0.929 . S
C474 O484 1.240 . S
C474 O485 1.289 . S
C475 O486 1.258 . S
C475 O487 1.256 . S
O476 La456 2.521 . S
O476 C458 1.261 . S
O477 La456 2.628 . S
O477 C458 1.243 . S
O478 La456 2.554 . S
O478 C465 1.240 . S
O479 La456 2.757 . S
O479 La457 2.482 . S
O479 C465 1.289 . S
O480 La456 2.470 . S
O480 C466 1.258 . S
O481 La457 2.503 . S
O481 C466 1.256 . S
O482 La457 2.521 . S
O482 C467 1.261 . S
O483 La457 2.628 . S
O483 C467 1.243 . S
O484 La457 2.554 . S
O484 C474 1.240 . S
O485 La456 2.482 . S
O485 La457 2.757 . S
O485 C474 1.289 . S
O486 La457 2.470 . S
O486 C475 1.258 . S
O487 La456 2.503 . S
O487 C475 1.256 . S
H488 C460 0.930 . S
H489 C461 0.930 . S
H490 C463 0.929 . S
H491 C464 0.929 . S
H492 C469 0.930 . S
H493 C470 0.930 . S
H494 C472 0.929 . S
H495 C473 0.929 . S
La496 C498 2.928 . S
La496 O516 2.521 . S
La496 O517 2.628 . S
La496 O518 2.554 . S
La496 O519 2.757 . S
La496 O520 2.470 . S
La496 O525 2.482 . S
La496 O527 2.503 . S
La497 C507 2.928 1_545 S
La497 O519 2.482 . S
La497 O521 2.503 . S
La497 O522 2.521 1_545 S
La497 O523 2.628 1_545 S
La497 O524 2.554 . S
La497 O525 2.757 . S
La497 O526 2.470 . S
C498 La496 2.928 . S
C498 C499 1.503 . S
C498 O516 1.261 . S
C498 O517 1.243 . S
C499 C498 1.503 . S
C499 C500 1.394 . S
C499 C504 1.373 . S
C500 C499 1.394 . S
C500 C501 1.380 . S
C500 H528 0.930 . S
C501 C500 1.380 . S
C501 C502 1.376 . S
C501 H529 0.930 . S
C502 C501 1.376 . S
C502 C503 1.370 . S
C503 C502 1.370 . S
C503 C504 1.396 . S
C503 H530 0.929 . S
C504 C499 1.373 . S
C504 C503 1.396 . S
C504 H531 0.929 . S
C505 O518 1.240 . S
C505 O519 1.289 . S
C506 O520 1.258 . S
C506 O521 1.256 . S
C507 La497 2.928 1_565 S
C507 C508 1.503 . S
C507 O522 1.261 . S
C507 O523 1.243 . S
C508 C507 1.503 . S
C508 C509 1.394 . S
C508 C513 1.373 . S
C509 C508 1.394 . S
C509 C510 1.380 . S
C509 H532 0.930 . S
C510 C509 1.380 . S
C510 C511 1.376 . S
C510 H533 0.930 . S
C511 C510 1.376 . S
C511 C512 1.370 . S
C512 C511 1.370 . S
C512 C513 1.396 . S
C512 H534 0.929 . S
C513 C508 1.373 . S
C513 C512 1.396 . S
C513 H535 0.929 . S
C514 O524 1.240 . S
C514 O525 1.289 . S
C515 O526 1.258 . S
C515 O527 1.256 . S
O516 La496 2.521 . S
O516 C498 1.261 . S
O517 La496 2.628 . S
O517 C498 1.243 . S
O518 La496 2.554 . S
O518 C505 1.240 . S
O519 La496 2.757 . S
O519 La497 2.482 . S
O519 C505 1.289 . S
O520 La496 2.470 . S
O520 C506 1.258 . S
O521 La497 2.503 . S
O521 C506 1.256 . S
O522 La497 2.521 1_565 S
O522 C507 1.261 . S
O523 La497 2.628 1_565 S
O523 C507 1.243 . S
O524 La497 2.554 . S
O524 C514 1.240 . S
O525 La496 2.482 . S
O525 La497 2.757 . S
O525 C514 1.289 . S
O526 La497 2.470 . S
O526 C515 1.258 . S
O527 La496 2.503 . S
O527 C515 1.256 . S
H528 C500 0.930 . S
H529 C501 0.930 . S
H530 C503 0.929 . S
H531 C504 0.929 . S
H532 C509 0.930 . S
H533 C510 0.930 . S
H534 C512 0.929 . S
H535 C513 0.929 . S
La536 C538 2.928 . S
La536 O556 2.521 . S
La536 O557 2.628 . S
La536 O558 2.554 . S
La536 O559 2.757 . S
La536 O560 2.470 . S
La536 O565 2.482 . S
La536 O567 2.503 . S
La537 C547 2.928 . S
La537 O559 2.482 . S
La537 O561 2.503 . S
La537 O562 2.521 . S
La537 O563 2.628 . S
La537 O564 2.554 . S
La537 O565 2.757 . S
La537 O566 2.470 . S
C538 La536 2.928 . S
C538 C539 1.503 . S
C538 O556 1.261 . S
C538 O557 1.243 . S
C539 C538 1.503 . S
C539 C540 1.394 . S
C539 C544 1.373 . S
C540 C539 1.394 . S
C540 C541 1.380 . S
C540 H568 0.930 . S
C541 C540 1.380 . S
C541 C542 1.376 . S
C541 H569 0.930 . S
C542 C541 1.376 . S
C542 C543 1.370 . S
C543 C542 1.370 . S
C543 C544 1.396 . S
C543 H570 0.929 . S
C544 C539 1.373 . S
C544 C543 1.396 . S
C544 H571 0.929 . S
C545 O558 1.240 . S
C545 O559 1.289 . S
C546 O560 1.258 . S
C546 O561 1.256 . S
C547 La537 2.928 . S
C547 C548 1.503 . S
C547 O562 1.261 . S
C547 O563 1.243 . S
C548 C547 1.503 . S
C548 C549 1.394 . S
C548 C553 1.373 . S
C549 C548 1.394 . S
C549 C550 1.380 . S
C549 H572 0.930 . S
C550 C549 1.380 . S
C550 C551 1.376 . S
C550 H573 0.930 . S
C551 C550 1.376 . S
C551 C552 1.370 . S
C552 C551 1.370 . S
C552 C553 1.396 . S
C552 H574 0.929 . S
C553 C548 1.373 . S
C553 C552 1.396 . S
C553 H575 0.929 . S
C554 O564 1.240 . S
C554 O565 1.289 . S
C555 O566 1.258 . S
C555 O567 1.256 . S
O556 La536 2.521 . S
O556 C538 1.261 . S
O557 La536 2.628 . S
O557 C538 1.243 . S
O558 La536 2.554 . S
O558 C545 1.240 . S
O559 La536 2.757 . S
O559 La537 2.482 . S
O559 C545 1.289 . S
O560 La536 2.470 . S
O560 C546 1.258 . S
O561 La537 2.503 . S
O561 C546 1.256 . S
O562 La537 2.521 . S
O562 C547 1.261 . S
O563 La537 2.628 . S
O563 C547 1.243 . S
O564 La537 2.554 . S
O564 C554 1.240 . S
O565 La536 2.482 . S
O565 La537 2.757 . S
O565 C554 1.289 . S
O566 La537 2.470 . S
O566 C555 1.258 . S
O567 La536 2.503 . S
O567 C555 1.256 . S
H568 C540 0.930 . S
H569 C541 0.930 . S
H570 C543 0.929 . S
H571 C544 0.929 . S
H572 C549 0.930 . S
H573 C550 0.930 . S
H574 C552 0.929 . S
H575 C553 0.929 . S
La576 C578 2.928 . S
La576 O596 2.521 . S
La576 O597 2.628 . S
La576 O598 2.554 1_545 S
La576 O599 2.757 1_554 S
La576 O600 2.470 . S
La576 O605 2.482 . S
La576 O607 2.503 . S
La577 C587 2.928 . S
La577 O599 2.482 . S
La577 O601 2.503 . S
La577 O602 2.521 . S
La577 O603 2.628 . S
La577 O604 2.554 1_556 S
La577 O605 2.757 1_556 S
La577 O606 2.470 1_556 S
C578 La576 2.928 . S
C578 C579 1.503 . S
C578 O596 1.261 . S
C578 O597 1.243 . S
C579 C578 1.503 . S
C579 C580 1.394 1_545 S
C579 C584 1.373 . S
C580 C579 1.394 1_565 S
C580 C581 1.380 . S
C580 H608 0.930 . S
C581 C580 1.380 . S
C581 C582 1.376 . S
C581 H609 0.930 . S
C582 C581 1.376 . S
C582 C583 1.370 1_565 S
C583 C582 1.370 1_545 S
C583 C584 1.396 . S
C583 H610 0.929 . S
C584 C579 1.373 . S
C584 C583 1.396 . S
C584 H611 0.929 . S
C585 O598 1.273 . S
C585 O599 1.279 1_564 S
C586 O600 1.258 . S
C586 O601 1.256 1_554 S
C587 La577 2.928 . S
C587 C588 1.503 . S
C587 O602 1.261 . S
C587 O603 1.243 . S
C588 C587 1.503 . S
C588 C589 1.394 . S
C588 C593 1.373 . S
C589 C588 1.394 . S
C589 C590 1.380 . S
C589 H612 0.930 . S
C590 C589 1.380 . S
C590 C591 1.376 . S
C590 H613 0.930 . S
C591 C590 1.376 . S
C591 C592 1.370 . S
C592 C591 1.370 . S
C592 C593 1.396 . S
C592 H614 0.929 . S
C593 C588 1.373 . S
C593 C592 1.396 . S
C593 H615 0.929 . S
C594 O604 1.240 . S
C594 O605 1.289 . S
C595 O606 1.258 . S
C595 O607 1.256 . S
O596 La576 2.521 . S
O596 C578 1.261 . S
O597 La576 2.628 . S
O597 C578 1.243 . S
O598 La576 2.554 1_565 S
O598 C585 1.273 . S
O599 La576 2.757 1_556 S
O599 La577 2.482 . S
O599 C585 1.279 1_546 S
O600 La576 2.470 . S
O600 C586 1.258 . S
O601 La577 2.503 . S
O601 C586 1.256 1_556 S
O602 La577 2.521 . S
O602 C587 1.261 . S
O603 La577 2.628 . S
O603 C587 1.243 . S
O604 La577 2.554 1_554 S
O604 C594 1.240 . S
O605 La576 2.482 . S
O605 La577 2.757 1_554 S
O605 C594 1.289 . S
O606 La577 2.470 1_554 S
O606 C595 1.258 . S
O607 La576 2.503 . S
O607 C595 1.256 . S
H608 C580 0.930 . S
H609 C581 0.930 . S
H610 C583 0.929 . S
H611 C584 0.929 . S
H612 C589 0.930 . S
H613 C590 0.930 . S
H614 C592 0.929 . S
H615 C593 0.929 . S
La616 C618 2.928 . S
La616 O636 2.521 . S
La616 O637 2.628 . S
La616 O638 2.554 . S
La616 O639 2.757 . S
La616 O640 2.470 . S
La616 O645 2.482 . S
La616 O647 2.503 . S
La617 C627 2.928 . S
La617 O639 2.482 . S
La617 O641 2.503 . S
La617 O642 2.521 . S
La617 O643 2.628 . S
La617 O644 2.554 . S
La617 O645 2.757 . S
La617 O646 2.470 . S
C618 La616 2.928 . S
C618 C619 1.503 . S
C618 O636 1.261 . S
C618 O637 1.243 . S
C619 C618 1.503 . S
C619 C620 1.394 . S
C619 C624 1.373 . S
C620 C619 1.394 . S
C620 C621 1.380 . S
C620 H648 0.930 . S
C621 C620 1.380 . S
C621 C622 1.376 . S
C621 H649 0.930 . S
C622 C621 1.376 . S
C622 C623 1.370 . S
C623 C622 1.370 . S
C623 C624 1.396 . S
C623 H650 0.929 . S
C624 C619 1.373 . S
C624 C623 1.396 . S
C624 H651 0.929 . S
C625 O638 1.240 . S
C625 O639 1.289 . S
C626 O640 1.258 . S
C626 O641 1.256 . S
C627 La617 2.928 . S
C627 C628 1.503 . S
C627 O642 1.261 . S
C627 O643 1.243 . S
C628 C627 1.503 . S
C628 C629 1.394 . S
C628 C633 1.373 . S
C629 C628 1.394 . S
C629 C630 1.380 . S
C629 H652 0.930 . S
C630 C629 1.380 . S
C630 C631 1.376 . S
C630 H653 0.930 . S
C631 C630 1.376 . S
C631 C632 1.370 . S
C632 C631 1.370 . S
C632 C633 1.396 . S
C632 H654 0.929 . S
C633 C628 1.373 . S
C633 C632 1.396 . S
C633 H655 0.929 . S
C634 O644 1.240 . S
C634 O645 1.289 . S
C635 O646 1.258 . S
C635 O647 1.256 . S
O636 La616 2.521 . S
O636 C618 1.261 . S
O637 La616 2.628 . S
O637 C618 1.243 . S
O638 La616 2.554 . S
O638 C625 1.240 . S
O639 La616 2.757 . S
O639 La617 2.482 . S
O639 C625 1.289 . S
O640 La616 2.470 . S
O640 C626 1.258 . S
O641 La617 2.503 . S
O641 C626 1.256 . S
O642 La617 2.521 . S
O642 C627 1.261 . S
O643 La617 2.628 . S
O643 C627 1.243 . S
O644 La617 2.554 . S
O644 C634 1.240 . S
O645 La616 2.482 . S
O645 La617 2.757 . S
O645 C634 1.289 . S
O646 La617 2.470 . S
O646 C635 1.258 . S
O647 La616 2.503 . S
O647 C635 1.256 . S
H648 C620 0.930 . S
H649 C621 0.930 . S
H650 C623 0.929 . S
H651 C624 0.929 . S
H652 C629 0.930 . S
H653 C630 0.930 . S
H654 C632 0.929 . S
H655 C633 0.929 . S
La656 C658 2.928 . S
La656 O676 2.521 . S
La656 O677 2.628 . S
La656 O678 2.554 . S
La656 O679 2.757 . S
La656 O680 2.470 1_554 S
La656 O685 2.482 . S
La656 O687 2.503 . S
La657 C667 2.949 . S
La657 O679 2.497 . S
La657 O681 2.474 1_554 S
La657 O682 2.532 . S
La657 O683 2.654 . S
La657 O684 2.546 . S
La657 O685 2.752 . S
La657 O686 2.501 . S
C658 La656 2.928 . S
C658 C659 1.503 1_554 S
C658 O676 1.261 . S
C658 O677 1.243 . S
C659 C658 1.503 1_556 S
C659 C660 1.400 . S
C659 C664 1.373 . S
C660 C659 1.400 . S
C660 C661 1.397 . S
C660 H688 0.908 1_556 S
C661 C660 1.397 . S
C661 C662 1.376 . S
C661 H689 0.930 . S
C662 C661 1.376 . S
C662 C663 1.370 . S
C663 C662 1.370 . S
C663 C664 1.396 . S
C663 H690 0.929 . S
C664 C659 1.373 . S
C664 C663 1.396 . S
C664 H691 0.929 . S
C665 O678 1.240 . S
C665 O679 1.289 . S
C666 O680 1.258 . S
C666 O681 1.256 . S
C667 La657 2.949 . S
C667 C668 1.503 . S
C667 O682 1.261 . S
C667 O683 1.243 . S
C668 C667 1.503 . S
C668 C669 1.394 . S
C668 C673 1.373 . S
C669 C668 1.394 . S
C669 C670 1.380 . S
C669 H692 0.930 . S
C670 C669 1.380 . S
C670 C671 1.376 . S
C670 H693 0.930 . S
C671 C670 1.376 . S
C671 C672 1.370 . S
C672 C671 1.370 . S
C672 C673 1.396 . S
C672 H694 0.929 . S
C673 C668 1.373 . S
C673 C672 1.396 . S
C673 H695 0.929 . S
C674 O684 1.240 . S
C674 O685 1.289 . S
C675 O686 1.258 . S
C675 O687 1.256 . S
O676 La656 2.521 . S
O676 C658 1.261 . S
O677 La656 2.628 . S
O677 C658 1.243 . S
O678 La656 2.554 . S
O678 C665 1.240 . S
O679 La656 2.757 . S
O679 La657 2.497 . S
O679 C665 1.289 . S
O680 La656 2.470 1_556 S
O680 C666 1.258 . S
O681 La657 2.474 1_556 S
O681 C666 1.256 . S
O682 La657 2.532 . S
O682 C667 1.261 . S
O683 La657 2.654 . S
O683 C667 1.243 . S
O684 La657 2.546 . S
O684 C674 1.240 . S
O685 La656 2.482 . S
O685 La657 2.752 . S
O685 C674 1.289 . S
O686 La657 2.501 . S
O686 C675 1.258 . S
O687 La656 2.503 . S
O687 C675 1.256 . S
H688 C660 0.908 1_554 S
H689 C661 0.930 . S
H690 C663 0.929 . S
H691 C664 0.929 . S
H692 C669 0.930 . S
H693 C670 0.930 . S
H694 C672 0.929 . S
H695 C673 0.929 . S
La696 C698 2.928 . S
La696 O716 2.521 . S
La696 O717 2.628 . S
La696 O718 2.554 . S
La696 O719 2.757 . S
La696 O720 2.470 . S
La696 O725 2.482 . S
La696 O727 2.503 . S
La697 C707 2.928 . S
La697 O719 2.482 . S
La697 O721 2.503 . S
La697 O722 2.521 . S
La697 O723 2.628 . S
La697 O724 2.554 . S
La697 O725 2.757 . S
La697 O726 2.470 . S
C698 La696 2.928 . S
C698 C699 1.503 . S
C698 O716 1.261 . S
C698 O717 1.243 . S
C699 C698 1.503 . S
C699 C700 1.394 . S
C699 C704 1.373 . S
C700 C699 1.394 . S
C700 C701 1.380 . S
C700 H728 0.930 . S
C701 C700 1.380 . S
C701 C702 1.376 1_655 S
C701 H729 0.910 1_655 S
C702 C701 1.376 1_455 S
C702 C703 1.370 1_455 S
C703 C702 1.370 1_655 S
C703 C704 1.396 . S
C703 H730 0.929 . S
C704 C699 1.373 . S
C704 C703 1.396 . S
C704 H731 0.929 . S
C705 O718 1.240 . S
C705 O719 1.289 . S
C706 O720 1.258 . S
C706 O721 1.256 . S
C707 La697 2.928 . S
C707 C708 1.503 . S
C707 O722 1.261 . S
C707 O723 1.243 . S
C708 C707 1.503 . S
C708 C709 1.394 . S
C708 C713 1.373 . S
C709 C708 1.394 . S
C709 C710 1.380 . S
C709 H732 0.930 . S
C710 C709 1.380 . S
C710 C711 1.376 . S
C710 H733 0.930 . S
C711 C710 1.376 . S
C711 C712 1.370 . S
C712 C711 1.370 . S
C712 C713 1.396 . S
C712 H734 0.929 . S
C713 C708 1.373 . S
C713 C712 1.396 . S
C713 H735 0.929 . S
C714 O724 1.240 . S
C714 O725 1.289 . S
C715 O726 1.258 . S
C715 O727 1.256 . S
O716 La696 2.521 . S
O716 C698 1.261 . S
O717 La696 2.628 . S
O717 C698 1.243 . S
O718 La696 2.554 . S
O718 C705 1.240 . S
O719 La696 2.757 . S
O719 La697 2.482 . S
O719 C705 1.289 . S
O720 La696 2.470 . S
O720 C706 1.258 . S
O721 La697 2.503 . S
O721 C706 1.256 . S
O722 La697 2.521 . S
O722 C707 1.261 . S
O723 La697 2.628 . S
O723 C707 1.243 . S
O724 La697 2.554 . S
O724 C714 1.240 . S
O725 La696 2.482 . S
O725 La697 2.757 . S
O725 C714 1.289 . S
O726 La697 2.470 . S
O726 C715 1.258 . S
O727 La696 2.503 . S
O727 C715 1.256 . S
H728 C700 0.930 . S
H729 C701 0.910 1_455 S
H730 C703 0.929 . S
H731 C704 0.929 . S
H732 C709 0.930 . S
H733 C710 0.930 . S
H734 C712 0.929 . S
H735 C713 0.929 . S
La736 C738 2.928 . S
La736 O756 2.521 . S
La736 O757 2.628 . S
La736 O758 2.554 . S
La736 O759 2.757 . S
La736 O760 2.470 . S
La736 O765 2.482 . S
La736 O767 2.503 . S
La737 C747 2.928 . S
La737 O759 2.482 . S
La737 O761 2.503 . S
La737 O762 2.521 . S
La737 O763 2.628 . S
La737 O764 2.554 . S
La737 O765 2.757 . S
La737 O766 2.470 . S
C738 La736 2.928 . S
C738 C739 1.503 . S
C738 O756 1.261 . S
C738 O757 1.243 . S
C739 C738 1.503 . S
C739 C740 1.394 . S
C739 C744 1.373 . S
C740 C739 1.394 . S
C740 C741 1.380 . S
C740 H768 0.930 . S
C741 C740 1.380 . S
C741 C742 1.376 1_455 S
C741 H769 0.930 . S
C742 C741 1.376 1_655 S
C742 C743 1.370 . S
C743 C742 1.370 . S
C743 C744 1.396 1_655 S
C743 H770 0.929 . S
C744 C739 1.373 . S
C744 C743 1.396 1_455 S
C744 H771 0.944 . S
C745 O758 1.240 . S
C745 O759 1.289 . S
C746 O760 1.258 . S
C746 O761 1.256 . S
C747 La737 2.928 . S
C747 C748 1.503 . S
C747 O762 1.261 . S
C747 O763 1.243 . S
C748 C747 1.503 . S
C748 C749 1.394 . S
C748 C753 1.373 . S
C749 C748 1.394 . S
C749 C750 1.380 . S
C749 H772 0.930 . S
C750 C749 1.380 . S
C750 C751 1.376 . S
C750 H773 0.930 . S
C751 C750 1.376 . S
C751 C752 1.370 . S
C752 C751 1.370 . S
C752 C753 1.396 . S
C752 H774 0.929 . S
C753 C748 1.373 . S
C753 C752 1.396 . S
C753 H775 0.929 . S
C754 O764 1.240 . S
C754 O765 1.289 . S
C755 O766 1.258 . S
C755 O767 1.256 . S
O756 La736 2.521 . S
O756 C738 1.261 . S
O757 La736 2.628 . S
O757 C738 1.243 . S
O758 La736 2.554 . S
O758 C745 1.240 . S
O759 La736 2.757 . S
O759 La737 2.482 . S
O759 C745 1.289 . S
O760 La736 2.470 . S
O760 C746 1.258 . S
O761 La737 2.503 . S
O761 C746 1.256 . S
O762 La737 2.521 . S
O762 C747 1.261 . S
O763 La737 2.628 . S
O763 C747 1.243 . S
O764 La737 2.554 . S
O764 C754 1.240 . S
O765 La736 2.482 . S
O765 La737 2.757 . S
O765 C754 1.289 . S
O766 La737 2.470 . S
O766 C755 1.258 . S
O767 La736 2.503 . S
O767 C755 1.256 . S
H768 C740 0.930 . S
H769 C741 0.930 . S
H770 C743 0.929 . S
H771 C744 0.944 . S
H772 C749 0.930 . S
H773 C750 0.930 . S
H774 C752 0.929 . S
H775 C753 0.929 . S
La776 C778 2.928 . S
La776 O796 2.521 . S
La776 O797 2.628 . S
La776 O798 2.554 . S
La776 O799 2.757 . S
La776 O800 2.470 . S
La776 O805 2.482 . S
La776 O807 2.503 . S
La777 C787 2.928 . S
La777 O799 2.482 . S
La777 O801 2.503 . S
La777 O802 2.521 . S
La777 O803 2.628 . S
La777 O804 2.554 . S
La777 O805 2.757 . S
La777 O806 2.470 . S
C778 La776 2.928 . S
C778 C779 1.503 . S
C778 O796 1.261 . S
C778 O797 1.243 . S
C779 C778 1.503 . S
C779 C780 1.394 . S
C779 C784 1.373 . S
C780 C779 1.394 . S
C780 C781 1.380 . S
C780 H808 0.930 . S
C781 C780 1.380 . S
C781 C782 1.376 . S
C781 H809 0.930 . S
C782 C781 1.376 . S
C782 C783 1.370 . S
C783 C782 1.370 . S
C783 C784 1.396 . S
C783 H810 0.929 . S
C784 C779 1.373 . S
C784 C783 1.396 . S
C784 H811 0.929 . S
C785 O798 1.240 . S
C785 O799 1.289 . S
C786 O800 1.258 . S
C786 O801 1.256 . S
C787 La777 2.928 . S
C787 C788 1.503 . S
C787 O802 1.261 . S
C787 O803 1.243 . S
C788 C787 1.503 . S
C788 C789 1.394 . S
C788 C793 1.373 . S
C789 C788 1.394 . S
C789 C790 1.380 . S
C789 H812 0.930 . S
C790 C789 1.380 . S
C790 C791 1.376 . S
C790 H813 0.930 . S
C791 C790 1.376 . S
C791 C792 1.370 . S
C792 C791 1.370 . S
C792 C793 1.396 . S
C792 H814 0.929 . S
C793 C788 1.373 . S
C793 C792 1.396 . S
C793 H815 0.929 . S
C794 O804 1.240 . S
C794 O805 1.289 . S
C795 O806 1.258 . S
C795 O807 1.256 . S
O796 La776 2.521 . S
O796 C778 1.261 . S
O797 La776 2.628 . S
O797 C778 1.243 . S
O798 La776 2.554 . S
O798 C785 1.240 . S
O799 La776 2.757 . S
O799 La777 2.482 . S
O799 C785 1.289 . S
O800 La776 2.470 . S
O800 C786 1.258 . S
O801 La777 2.503 . S
O801 C786 1.256 . S
O802 La777 2.521 . S
O802 C787 1.261 . S
O803 La777 2.628 . S
O803 C787 1.243 . S
O804 La777 2.554 . S
O804 C794 1.240 . S
O805 La776 2.482 . S
O805 La777 2.757 . S
O805 C794 1.289 . S
O806 La777 2.470 . S
O806 C795 1.258 . S
O807 La776 2.503 . S
O807 C795 1.256 . S
H808 C780 0.930 . S
H809 C781 0.930 . S
H810 C783 0.929 . S
H811 C784 0.929 . S
H812 C789 0.930 . S
H813 C790 0.930 . S
H814 C792 0.929 . S
H815 C793 0.929 . S
La816 C818 2.928 . S
La816 O836 2.521 . S
La816 O837 2.628 . S
La816 O838 2.554 . S
La816 O839 2.757 . S
La816 O840 2.470 . S
La816 O845 2.482 . S
La816 O847 2.503 . S
La817 C827 2.928 . S
La817 O839 2.482 . S
La817 O841 2.503 . S
La817 O842 2.521 . S
La817 O843 2.628 . S
La817 O844 2.554 . S
La817 O845 2.757 . S
La817 O846 2.470 . S
C818 La816 2.928 . S
C818 C819 1.503 . S
C818 O836 1.261 . S
C818 O837 1.243 . S
C819 C818 1.503 . S
C819 C820 1.394 . S
C819 C824 1.373 . S
C820 C819 1.394 . S
C820 C821 1.380 . S
C820 H848 0.930 . S
C821 C820 1.380 . S
C821 C822 1.376 . S
C821 H849 0.930 . S
C822 C821 1.376 . S
C822 C823 1.370 . S
C823 C822 1.370 . S
C823 C824 1.396 . S
C823 H850 0.929 . S
C824 C819 1.373 . S
C824 C823 1.396 . S
C824 H851 0.929 . S
C825 O838 1.240 . S
C825 O839 1.289 . S
C826 O840 1.258 . S
C826 O841 1.256 . S
C827 La817 2.928 . S
C827 C828 1.503 . S
C827 O842 1.261 . S
C827 O843 1.243 . S
C828 C827 1.503 . S
C828 C829 1.394 . S
C828 C833 1.373 . S
C829 C828 1.394 . S
C829 C830 1.380 . S
C829 H852 0.930 . S
C830 C829 1.380 . S
C830 C831 1.376 . S
C830 H853 0.930 . S
C831 C830 1.376 . S
C831 C832 1.370 . S
C832 C831 1.370 . S
C832 C833 1.396 . S
C832 H854 0.929 . S
C833 C828 1.373 . S
C833 C832 1.396 . S
C833 H855 0.929 . S
C834 O844 1.240 . S
C834 O845 1.289 . S
C835 O846 1.258 . S
C835 O847 1.256 . S
O836 La816 2.521 . S
O836 C818 1.261 . S
O837 La816 2.628 . S
O837 C818 1.243 . S
O838 La816 2.554 . S
O838 C825 1.240 . S
O839 La816 2.757 . S
O839 La817 2.482 . S
O839 C825 1.289 . S
O840 La816 2.470 . S
O840 C826 1.258 . S
O841 La817 2.503 . S
O841 C826 1.256 . S
O842 La817 2.521 . S
O842 C827 1.261 . S
O843 La817 2.628 . S
O843 C827 1.243 . S
O844 La817 2.554 . S
O844 C834 1.240 . S
O845 La816 2.482 . S
O845 La817 2.757 . S
O845 C834 1.289 . S
O846 La817 2.470 . S
O846 C835 1.258 . S
O847 La816 2.503 . S
O847 C835 1.256 . S
H848 C820 0.930 . S
H849 C821 0.930 . S
H850 C823 0.929 . S
H851 C824 0.929 . S
H852 C829 0.930 . S
H853 C830 0.930 . S
H854 C832 0.929 . S
H855 C833 0.929 . S
La856 C858 2.928 . S
La856 O876 2.521 . S
La856 O877 2.628 . S
La856 O878 2.554 . S
La856 O879 2.757 . S
La856 O880 2.470 . S
La856 O885 2.482 . S
La856 O887 2.503 . S
La857 C867 2.928 . S
La857 O879 2.482 . S
La857 O881 2.503 . S
La857 O882 2.521 . S
La857 O883 2.628 . S
La857 O884 2.554 . S
La857 O885 2.757 . S
La857 O886 2.470 . S
C858 La856 2.928 . S
C858 C859 1.503 . S
C858 O876 1.261 . S
C858 O877 1.243 . S
C859 C858 1.503 . S
C859 C860 1.394 . S
C859 C864 1.373 . S
C860 C859 1.394 . S
C860 C861 1.380 . S
C860 H888 0.930 . S
C861 C860 1.380 . S
C861 C862 1.376 . S
C861 H889 0.930 . S
C862 C861 1.376 . S
C862 C863 1.370 . S
C863 C862 1.370 . S
C863 C864 1.396 . S
C863 H890 0.929 . S
C864 C859 1.373 . S
C864 C863 1.396 . S
C864 H891 0.929 . S
C865 O878 1.240 . S
C865 O879 1.289 . S
C866 O880 1.258 . S
C866 O881 1.256 . S
C867 La857 2.928 . S
C867 C868 1.503 . S
C867 O882 1.261 . S
C867 O883 1.243 . S
C868 C867 1.503 . S
C868 C869 1.394 . S
C868 C873 1.373 . S
C869 C868 1.394 . S
C869 C870 1.380 . S
C869 H892 0.930 . S
C870 C869 1.380 . S
C870 C871 1.376 . S
C870 H893 0.930 . S
C871 C870 1.376 . S
C871 C872 1.370 . S
C872 C871 1.370 . S
C872 C873 1.396 . S
C872 H894 0.929 . S
C873 C868 1.373 . S
C873 C872 1.396 . S
C873 H895 0.929 . S
C874 O884 1.240 . S
C874 O885 1.289 . S
C875 O886 1.258 . S
C875 O887 1.256 . S
O876 La856 2.521 . S
O876 C858 1.261 . S
O877 La856 2.628 . S
O877 C858 1.243 . S
O878 La856 2.554 . S
O878 C865 1.240 . S
O879 La856 2.757 . S
O879 La857 2.482 . S
O879 C865 1.289 . S
O880 La856 2.470 . S
O880 C866 1.258 . S
O881 La857 2.503 . S
O881 C866 1.256 . S
O882 La857 2.521 . S
O882 C867 1.261 . S
O883 La857 2.628 . S
O883 C867 1.243 . S
O884 La857 2.554 . S
O884 C874 1.240 . S
O885 La856 2.482 . S
O885 La857 2.757 . S
O885 C874 1.289 . S
O886 La857 2.470 . S
O886 C875 1.258 . S
O887 La856 2.503 . S
O887 C875 1.256 . S
H888 C860 0.930 . S
H889 C861 0.930 . S
H890 C863 0.929 . S
H891 C864 0.929 . S
H892 C869 0.930 . S
H893 C870 0.930 . S
H894 C872 0.929 . S
H895 C873 0.929 . S
La896 C898 2.928 . S
La896 O916 2.521 . S
La896 O917 2.628 . S
La896 O918 2.554 . S
La896 O919 2.757 . S
La896 O920 2.470 . S
La896 O925 2.482 . S
La896 O927 2.503 . S
La897 C907 2.928 . S
La897 O919 2.482 . S
La897 O921 2.503 . S
La897 O922 2.521 . S
La897 O923 2.628 . S
La897 O924 2.554 . S
La897 O925 2.757 . S
La897 O926 2.470 . S
C898 La896 2.928 . S
C898 C899 1.503 . S
C898 O916 1.261 . S
C898 O917 1.243 . S
C899 C898 1.503 . S
C899 C900 1.394 . S
C899 C904 1.373 . S
C900 C899 1.394 . S
C900 C901 1.380 . S
C900 H928 0.930 . S
C901 C900 1.380 . S
C901 C902 1.376 . S
C901 H929 0.930 . S
C902 C901 1.376 . S
C902 C903 1.370 . S
C903 C902 1.370 . S
C903 C904 1.396 . S
C903 H930 0.929 . S
C904 C899 1.373 . S
C904 C903 1.396 . S
C904 H931 0.929 . S
C905 O918 1.240 . S
C905 O919 1.289 . S
C906 O920 1.258 . S
C906 O921 1.256 . S
C907 La897 2.928 . S
C907 C908 1.503 . S
C907 O922 1.261 . S
C907 O923 1.243 . S
C908 C907 1.503 . S
C908 C909 1.394 . S
C908 C913 1.373 . S
C909 C908 1.394 . S
C909 C910 1.380 . S
C909 H932 0.930 . S
C910 C909 1.380 . S
C910 C911 1.376 . S
C910 H933 0.930 . S
C911 C910 1.376 . S
C911 C912 1.370 . S
C912 C911 1.370 . S
C912 C913 1.396 . S
C912 H934 0.929 . S
C913 C908 1.373 . S
C913 C912 1.396 . S
C913 H935 0.929 . S
C914 O924 1.240 . S
C914 O925 1.289 . S
C915 O926 1.258 . S
C915 O927 1.256 . S
O916 La896 2.521 . S
O916 C898 1.261 . S
O917 La896 2.628 . S
O917 C898 1.243 . S
O918 La896 2.554 . S
O918 C905 1.240 . S
O919 La896 2.757 . S
O919 La897 2.482 . S
O919 C905 1.289 . S
O920 La896 2.470 . S
O920 C906 1.258 . S
O921 La897 2.503 . S
O921 C906 1.256 . S
O922 La897 2.521 . S
O922 C907 1.261 . S
O923 La897 2.628 . S
O923 C907 1.243 . S
O924 La897 2.554 . S
O924 C914 1.240 . S
O925 La896 2.482 . S
O925 La897 2.757 . S
O925 C914 1.289 . S
O926 La897 2.470 . S
O926 C915 1.258 . S
O927 La896 2.503 . S
O927 C915 1.256 . S
H928 C900 0.930 . S
H929 C901 0.930 . S
H930 C903 0.929 . S
H931 C904 0.929 . S
H932 C909 0.930 . S
H933 C910 0.930 . S
H934 C912 0.929 . S
H935 C913 0.929 . S
La936 C938 2.928 1_554 S
La936 O956 2.521 1_554 S
La936 O957 2.628 . S
La936 O958 2.554 1_554 S
La936 O959 2.757 1_554 S
La936 O960 2.470 1_554 S
La936 O965 2.482 . S
La936 O967 2.503 . S
La937 C947 2.928 1_455 S
La937 O959 2.482 1_554 S
La937 O961 2.503 . S
La937 O962 2.521 1_455 S
La937 O963 2.628 1_455 S
La937 O964 2.554 . S
La937 O965 2.757 . S
La937 O966 2.470 . S
C938 La936 2.928 1_556 S
C938 C939 1.503 . S
C938 O956 1.261 . S
C938 O957 1.243 1_556 S
C939 C938 1.503 . S
C939 C940 1.394 . S
C939 C944 1.373 1_556 S
C940 C939 1.394 . S
C940 C941 1.380 . S
C940 H968 0.930 . S
C941 C940 1.380 . S
C941 C942 1.376 . S
C941 H969 0.930 . S
C942 C941 1.376 . S
C942 C943 1.370 1_556 S
C943 C942 1.370 1_554 S
C943 C944 1.396 . S
C943 H970 0.929 . S
C944 C939 1.373 1_554 S
C944 C943 1.396 . S
C944 H971 0.929 . S
C945 O958 1.240 . S
C945 O959 1.289 . S
C946 O960 1.258 1_554 S
C946 O961 1.256 . S
C947 La937 2.928 1_655 S
C947 C948 1.503 . S
C947 O962 1.261 . S
C947 O963 1.243 . S
C948 C947 1.503 . S
C948 C949 1.394 . S
C948 C953 1.373 . S
C949 C948 1.394 . S
C949 C950 1.380 . S
C949 H972 0.930 . S
C950 C949 1.380 . S
C950 C951 1.376 . S
C950 H973 0.930 . S
C951 C950 1.376 . S
C951 C952 1.370 . S
C952 C951 1.370 . S
C952 C953 1.396 . S
C952 H974 0.929 . S
C953 C948 1.373 . S
C953 C952 1.396 . S
C953 H975 0.929 . S
C954 O964 1.240 . S
C954 O965 1.289 . S
C955 O966 1.258 . S
C955 O967 1.256 . S
O956 La936 2.521 1_556 S
O956 C938 1.261 . S
O957 La936 2.628 . S
O957 C938 1.243 1_554 S
O958 La936 2.554 1_556 S
O958 C945 1.240 . S
O959 La936 2.757 1_556 S
O959 La937 2.482 1_556 S
O959 C945 1.289 . S
O960 La936 2.470 1_556 S
O960 C946 1.258 1_556 S
O961 La937 2.503 . S
O961 C946 1.256 . S
O962 La937 2.521 1_655 S
O962 C947 1.261 . S
O963 La937 2.628 1_655 S
O963 C947 1.243 . S
O964 La937 2.554 . S
O964 C954 1.240 . S
O965 La936 2.482 . S
O965 La937 2.757 . S
O965 C954 1.289 . S
O966 La937 2.470 . S
O966 C955 1.258 . S
O967 La936 2.503 . S
O967 C955 1.256 . S
H968 C940 0.930 . S
H969 C941 0.930 . S
H970 C943 0.929 . S
H971 C944 0.929 . S
H972 C949 0.930 . S
H973 C950 0.930 . S
H974 C952 0.929 . S
H975 C953 0.929 . S
C976 C977 1.369 . S
C976 C978 1.419 . S
C976 H980 0.930 . S
C977 C976 1.369 . S
C977 C986 1.429 1_556 S
C978 C976 1.419 . S
C978 C979 1.363 . S
C978 H981 0.929 . S
C979 C978 1.363 . S
C979 C985 1.428 1_556 S
H980 C976 0.930 . S
H981 C978 0.929 . S
S982 N983 1.613 . S
S982 N984 1.610 . S
N983 S982 1.613 . S
N983 C986 1.350 . S
N984 S982 1.610 . S
N984 C985 1.351 . S
C985 C979 1.428 1_554 S
C985 N984 1.351 . S
C985 C986 1.434 . S
C986 C977 1.429 1_554 S
C986 N983 1.350 . S
C986 C985 1.434 . S
C987 C988 1.369 . S
C987 C989 1.419 . S
C987 H991 0.930 . S
C988 C987 1.369 . S
C988 C997 1.429 . S
C989 C987 1.419 . S
C989 C990 1.363 . S
C989 H992 0.929 . S
C990 C989 1.363 . S
C990 C996 1.428 . S
H991 C987 0.930 . S
H992 C989 0.929 . S
S993 N994 1.613 . S
S993 N995 1.610 . S
N994 S993 1.613 . S
N994 C997 1.350 . S
N995 S993 1.610 . S
N995 C996 1.351 . S
C996 C990 1.428 . S
C996 N995 1.351 . S
C996 C997 1.434 . S
C997 C988 1.429 . S
C997 N994 1.350 . S
C997 C996 1.434 . S
C998 C999 1.369 . S
C998 C1000 1.419 . S
C998 H1002 0.930 . S
C999 C998 1.369 . S
C999 C1008 1.429 . S
C1000 C998 1.419 . S
C1000 C1001 1.363 . S
C1000 H1003 0.929 . S
C1001 C1000 1.363 . S
C1001 C1007 1.428 . S
H1002 C998 0.930 . S
H1003 C1000 0.929 . S
S1004 N1005 1.613 . S
S1004 N1006 1.610 . S
N1005 S1004 1.613 . S
N1005 C1008 1.350 . S
N1006 S1004 1.610 . S
N1006 C1007 1.351 . S
C1007 C1001 1.428 . S
C1007 N1006 1.351 . S
C1007 C1008 1.434 . S
C1008 C999 1.429 . S
C1008 N1005 1.350 . S
C1008 C1007 1.434 . S
C1009 C1010 1.369 . S
C1009 C1011 1.419 . S
C1009 H1013 0.930 . S
C1010 C1009 1.369 . S
C1010 C1019 1.429 . S
C1011 C1009 1.419 . S
C1011 C1012 1.363 . S
C1011 H1014 0.929 . S
C1012 C1011 1.363 . S
C1012 C1018 1.428 . S
H1013 C1009 0.930 . S
H1014 C1011 0.929 . S
S1015 N1016 1.613 . S
S1015 N1017 1.610 . S
N1016 S1015 1.613 . S
N1016 C1019 1.350 . S
N1017 S1015 1.610 . S
N1017 C1018 1.351 . S
C1018 C1012 1.428 . S
C1018 N1017 1.351 . S
C1018 C1019 1.434 . S
C1019 C1010 1.429 . S
C1019 N1016 1.350 . S
C1019 C1018 1.434 . S
C1020 C1021 1.369 . S
C1020 C1022 1.419 . S
C1020 H1024 0.930 . S
C1021 C1020 1.369 . S
C1021 C1030 1.429 . S
C1022 C1020 1.419 . S
C1022 C1023 1.363 . S
C1022 H1025 0.929 . S
C1023 C1022 1.363 . S
C1023 C1029 1.428 . S
H1024 C1020 0.930 . S
H1025 C1022 0.929 . S
S1026 N1027 1.613 . S
S1026 N1028 1.610 . S
N1027 S1026 1.613 . S
N1027 C1030 1.350 . S
N1028 S1026 1.610 . S
N1028 C1029 1.351 . S
C1029 C1023 1.428 . S
C1029 N1028 1.351 . S
C1029 C1030 1.434 . S
C1030 C1021 1.429 . S
C1030 N1027 1.350 . S
C1030 C1029 1.434 . S
C1031 C1032 1.369 . S
C1031 C1033 1.419 . S
C1031 H1035 0.930 . S
C1032 C1031 1.369 . S
C1032 C1041 1.429 . S
C1033 C1031 1.419 . S
C1033 C1034 1.363 . S
C1033 H1036 0.929 . S
C1034 C1033 1.363 . S
C1034 C1040 1.428 . S
H1035 C1031 0.930 . S
H1036 C1033 0.929 . S
S1037 N1038 1.613 . S
S1037 N1039 1.610 . S
N1038 S1037 1.613 . S
N1038 C1041 1.350 . S
N1039 S1037 1.610 . S
N1039 C1040 1.351 . S
C1040 C1034 1.428 . S
C1040 N1039 1.351 . S
C1040 C1041 1.434 . S
C1041 C1032 1.429 . S
C1041 N1038 1.350 . S
C1041 C1040 1.434 . S
C1042 C1043 1.369 . S
C1042 C1044 1.419 . S
C1042 H1046 0.930 . S
C1043 C1042 1.369 . S
C1043 C1052 1.429 . S
C1044 C1042 1.419 . S
C1044 C1045 1.363 . S
C1044 H1047 0.929 . S
C1045 C1044 1.363 . S
C1045 C1051 1.428 . S
H1046 C1042 0.930 . S
H1047 C1044 0.929 . S
S1048 N1049 1.613 . S
S1048 N1050 1.610 . S
N1049 S1048 1.613 . S
N1049 C1052 1.350 . S
N1050 S1048 1.610 . S
N1050 C1051 1.351 . S
C1051 C1045 1.428 . S
C1051 N1050 1.351 . S
C1051 C1052 1.434 . S
C1052 C1043 1.429 . S
C1052 N1049 1.350 . S
C1052 C1051 1.434 . S
C1053 C1054 1.369 . S
C1053 C1055 1.419 . S
C1053 H1057 0.930 . S
C1054 C1053 1.369 . S
C1054 C1063 1.429 . S
C1055 C1053 1.419 . S
C1055 C1056 1.363 . S
C1055 H1058 0.929 . S
C1056 C1055 1.363 . S
C1056 C1062 1.428 . S
H1057 C1053 0.930 . S
H1058 C1055 0.929 . S
S1059 N1060 1.613 . S
S1059 N1061 1.610 . S
N1060 S1059 1.613 . S
N1060 C1063 1.350 . S
N1061 S1059 1.610 . S
N1061 C1062 1.351 . S
C1062 C1056 1.428 . S
C1062 N1061 1.351 . S
C1062 C1063 1.434 . S
C1063 C1054 1.429 . S
C1063 N1060 1.350 . S
C1063 C1062 1.434 . S
C1064 C1065 1.369 . S
C1064 C1066 1.419 . S
C1064 H1068 0.930 . S
C1065 C1064 1.369 . S
C1065 C1074 1.429 1_455 S
C1066 C1064 1.419 . S
C1066 C1067 1.363 . S
C1066 H1069 0.929 . S
C1067 C1066 1.363 . S
C1067 C1073 1.428 . S
H1068 C1064 0.930 . S
H1069 C1066 0.929 . S
S1070 N1071 1.613 . S
S1070 N1072 1.610 . S
N1071 S1070 1.613 . S
N1071 C1074 1.350 . S
N1072 S1070 1.610 . S
N1072 C1073 1.351 1_655 S
C1073 C1067 1.428 . S
C1073 N1072 1.351 1_455 S
C1073 C1074 1.434 1_455 S
C1074 C1065 1.429 1_655 S
C1074 N1071 1.350 . S
C1074 C1073 1.434 1_655 S
C1075 C1076 1.369 . S
C1075 C1077 1.419 . S
C1075 H1079 0.930 . S
C1076 C1075 1.369 . S
C1076 C1085 1.429 . S
C1077 C1075 1.419 . S
C1077 C1078 1.363 . S
C1077 H1080 0.929 . S
C1078 C1077 1.363 . S
C1078 C1084 1.428 . S
H1079 C1075 0.930 . S
H1080 C1077 0.929 . S
S1081 N1082 1.613 . S
S1081 N1083 1.610 . S
N1082 S1081 1.613 . S
N1082 C1085 1.350 . S
N1083 S1081 1.610 . S
N1083 C1084 1.351 . S
C1084 C1078 1.428 . S
C1084 N1083 1.351 . S
C1084 C1085 1.434 . S
C1085 C1076 1.429 . S
C1085 N1082 1.350 . S
C1085 C1084 1.434 . S
C1086 C1087 1.369 . S
C1086 C1088 1.419 . S
C1086 H1090 0.930 . S
C1087 C1086 1.369 . S
C1087 C1096 1.429 . S
C1088 C1086 1.419 . S
C1088 C1089 1.363 . S
C1088 H1091 0.929 . S
C1089 C1088 1.363 . S
C1089 C1095 1.428 . S
H1090 C1086 0.930 . S
H1091 C1088 0.929 . S
S1092 N1093 1.613 . S
S1092 N1094 1.610 . S
N1093 S1092 1.613 . S
N1093 C1096 1.350 . S
N1094 S1092 1.610 . S
N1094 C1095 1.351 . S
C1095 C1089 1.428 . S
C1095 N1094 1.351 . S
C1095 C1096 1.434 . S
C1096 C1087 1.429 . S
C1096 N1093 1.350 . S
C1096 C1095 1.434 . S
C1097 C1098 1.369 . S
C1097 C1099 1.419 . S
C1097 H1101 0.930 . S
C1098 C1097 1.369 . S
C1098 C1107 1.429 . S
C1099 C1097 1.419 . S
C1099 C1100 1.363 . S
C1099 H1102 0.929 . S
C1100 C1099 1.363 . S
C1100 C1106 1.428 . S
H1101 C1097 0.930 . S
H1102 C1099 0.929 . S
S1103 N1104 1.613 . S
S1103 N1105 1.610 . S
N1104 S1103 1.613 . S
N1104 C1107 1.350 . S
N1105 S1103 1.610 . S
N1105 C1106 1.351 . S
C1106 C1100 1.428 . S
C1106 N1105 1.351 . S
C1106 C1107 1.434 . S
C1107 C1098 1.429 . S
C1107 N1104 1.350 . S
C1107 C1106 1.434 . S
C1108 C1109 1.369 . S
C1108 C1110 1.419 . S
C1108 H1112 0.930 . S
C1109 C1108 1.369 . S
C1109 C1118 1.429 . S
C1110 C1108 1.419 . S
C1110 C1111 1.363 . S
C1110 H1113 0.929 . S
C1111 C1110 1.363 . S
C1111 C1117 1.428 . S
H1112 C1108 0.930 . S
H1113 C1110 0.929 . S
S1114 N1115 1.613 . S
S1114 N1116 1.610 . S
N1115 S1114 1.613 . S
N1115 C1118 1.350 . S
N1116 S1114 1.610 . S
N1116 C1117 1.351 . S
C1117 C1111 1.428 . S
C1117 N1116 1.351 . S
C1117 C1118 1.434 . S
C1118 C1109 1.429 . S
C1118 N1115 1.350 . S
C1118 C1117 1.434 . S
C1119 C1120 1.369 . S
C1119 C1121 1.419 . S
C1119 H1123 0.930 . S
C1120 C1119 1.369 . S
C1120 C1129 1.429 . S
C1121 C1119 1.419 . S
C1121 C1122 1.363 . S
C1121 H1124 0.929 . S
C1122 C1121 1.363 . S
C1122 C1128 1.428 . S
H1123 C1119 0.930 . S
H1124 C1121 0.929 . S
S1125 N1126 1.613 . S
S1125 N1127 1.610 . S
N1126 S1125 1.613 . S
N1126 C1129 1.350 . S
N1127 S1125 1.610 . S
N1127 C1128 1.351 . S
C1128 C1122 1.428 . S
C1128 N1127 1.351 . S
C1128 C1129 1.434 . S
C1129 C1120 1.429 . S
C1129 N1126 1.350 . S
C1129 C1128 1.434 . S
C1130 C1131 1.369 . S
C1130 C1132 1.419 . S
C1130 H1134 0.930 . S
C1131 C1130 1.369 . S
C1131 C1140 1.429 . S
C1132 C1130 1.419 . S
C1132 C1133 1.363 . S
C1132 H1135 0.929 . S
C1133 C1132 1.363 . S
C1133 C1139 1.428 . S
H1134 C1130 0.930 . S
H1135 C1132 0.929 . S
S1136 N1137 1.613 . S
S1136 N1138 1.610 . S
N1137 S1136 1.613 . S
N1137 C1140 1.350 . S
N1138 S1136 1.610 . S
N1138 C1139 1.351 . S
C1139 C1133 1.428 . S
C1139 N1138 1.351 . S
C1139 C1140 1.434 . S
C1140 C1131 1.429 . S
C1140 N1137 1.350 . S
C1140 C1139 1.434 . S
C1141 C1142 1.369 . S
C1141 C1143 1.419 . S
C1141 H1145 0.930 . S
C1142 C1141 1.369 . S
C1142 C1151 1.429 . S
C1143 C1141 1.419 . S
C1143 C1144 1.363 . S
C1143 H1146 0.929 . S
C1144 C1143 1.363 . S
C1144 C1150 1.428 . S
H1145 C1141 0.930 . S
H1146 C1143 0.929 . S
S1147 N1148 1.613 . S
S1147 N1149 1.610 . S
N1148 S1147 1.613 . S
N1148 C1151 1.350 . S
N1149 S1147 1.610 . S
N1149 C1150 1.351 . S
C1150 C1144 1.428 . S
C1150 N1149 1.351 . S
C1150 C1151 1.434 . S
C1151 C1142 1.429 . S
C1151 N1148 1.350 . S
C1151 C1150 1.434 . S
C1152 C1153 1.369 1_545 S
C1152 C1154 1.419 . S
C1152 H1156 0.933 1_554 S
C1153 C1152 1.369 1_565 S
C1153 C1162 1.429 . S
C1154 C1152 1.419 . S
C1154 C1155 1.363 . S
C1154 H1157 0.929 . S
C1155 C1154 1.363 . S
C1155 C1161 1.428 1_545 S
H1156 C1152 0.933 1_556 S
H1157 C1154 0.929 . S
S1158 N1159 1.613 . S
S1158 N1160 1.610 . S
N1159 S1158 1.613 . S
N1159 C1162 1.350 . S
N1160 S1158 1.610 . S
N1160 C1161 1.351 . S
C1161 C1155 1.428 1_565 S
C1161 N1160 1.351 . S
C1161 C1162 1.434 . S
C1162 C1153 1.429 . S
C1162 N1159 1.350 . S
C1162 C1161 1.434 . S
C1163 C1164 1.369 . S
C1163 C1165 1.419 . S
C1163 H1167 0.930 . S
C1164 C1163 1.369 . S
C1164 C1173 1.429 1_554 S
C1165 C1163 1.419 . S
C1165 C1166 1.363 . S
C1165 H1168 0.929 . S
C1166 C1165 1.363 . S
C1166 C1172 1.428 1_554 S
H1167 C1163 0.930 . S
H1168 C1165 0.929 . S
S1169 N1170 1.613 . S
S1169 N1171 1.610 . S
N1170 S1169 1.613 . S
N1170 C1173 1.350 . S
N1171 S1169 1.610 . S
N1171 C1172 1.351 . S
C1172 C1166 1.428 1_556 S
C1172 N1171 1.351 . S
C1172 C1173 1.434 . S
C1173 C1164 1.429 1_556 S
C1173 N1170 1.350 . S
C1173 C1172 1.434 . S
C1174 C1175 1.369 . S
C1174 C1176 1.419 . S
C1174 H1178 0.930 . S
C1175 C1174 1.369 . S
C1175 C1184 1.429 . S
C1176 C1174 1.419 . S
C1176 C1177 1.363 . S
C1176 H1179 0.929 . S
C1177 C1176 1.363 . S
C1177 C1183 1.428 . S
H1178 C1174 0.930 . S
H1179 C1176 0.929 . S
S1180 N1181 1.613 . S
S1180 N1182 1.610 . S
N1181 S1180 1.613 . S
N1181 C1184 1.350 . S
N1182 S1180 1.610 . S
N1182 C1183 1.351 . S
C1183 C1177 1.428 . S
C1183 N1182 1.351 . S
C1183 C1184 1.434 . S
C1184 C1175 1.429 . S
C1184 N1181 1.350 . S
C1184 C1183 1.434 . S
C1185 C1186 1.369 . S
C1185 C1187 1.419 . S
C1185 H1189 0.930 . S
C1186 C1185 1.369 . S
C1186 C1195 1.429 . S
C1187 C1185 1.419 . S
C1187 C1188 1.363 . S
C1187 H1190 0.929 . S
C1188 C1187 1.363 . S
C1188 C1194 1.428 . S
H1189 C1185 0.930 . S
H1190 C1187 0.929 . S
S1191 N1192 1.613 . S
S1191 N1193 1.610 . S
N1192 S1191 1.613 . S
N1192 C1195 1.350 . S
N1193 S1191 1.610 . S
N1193 C1194 1.351 . S
C1194 C1188 1.428 . S
C1194 N1193 1.351 . S
C1194 C1195 1.434 . S
C1195 C1186 1.429 . S
C1195 N1192 1.350 . S
C1195 C1194 1.434 . S
C1196 C1197 1.369 . S
C1196 C1198 1.419 . S
C1196 H1200 0.930 . S
C1197 C1196 1.369 . S
C1197 C1206 1.429 . S
C1198 C1196 1.419 . S
C1198 C1199 1.363 . S
C1198 H1201 0.929 . S
C1199 C1198 1.363 . S
C1199 C1205 1.428 . S
H1200 C1196 0.930 . S
H1201 C1198 0.929 . S
S1202 N1203 1.613 . S
S1202 N1204 1.610 . S
N1203 S1202 1.613 . S
N1203 C1206 1.350 . S
N1204 S1202 1.610 . S
N1204 C1205 1.351 . S
C1205 C1199 1.428 . S
C1205 N1204 1.351 . S
C1205 C1206 1.434 . S
C1206 C1197 1.429 . S
C1206 N1203 1.350 . S
C1206 C1205 1.434 . S
C1207 C1208 1.369 . S
C1207 C1209 1.419 . S
C1207 H1211 0.930 . S
C1208 C1207 1.369 . S
C1208 C1217 1.429 . S
C1209 C1207 1.419 . S
C1209 C1210 1.363 . S
C1209 H1212 0.929 . S
C1210 C1209 1.363 . S
C1210 C1216 1.428 . S
H1211 C1207 0.930 . S
H1212 C1209 0.929 . S
S1213 N1214 1.613 . S
S1213 N1215 1.610 . S
N1214 S1213 1.613 . S
N1214 C1217 1.350 . S
N1215 S1213 1.610 . S
N1215 C1216 1.351 . S
C1216 C1210 1.428 . S
C1216 N1215 1.351 . S
C1216 C1217 1.434 . S
C1217 C1208 1.429 . S
C1217 N1214 1.350 . S
C1217 C1216 1.434 . S
C1218 C1219 1.369 . S
C1218 C1220 1.419 . S
C1218 H1222 0.930 . S
C1219 C1218 1.369 . S
C1219 C1228 1.429 . S
C1220 C1218 1.419 . S
C1220 C1221 1.363 . S
C1220 H1223 0.929 . S
C1221 C1220 1.363 . S
C1221 C1227 1.428 . S
H1222 C1218 0.930 . S
H1223 C1220 0.929 . S
S1224 N1225 1.613 . S
S1224 N1226 1.610 . S
N1225 S1224 1.613 . S
N1225 C1228 1.350 . S
N1226 S1224 1.610 . S
N1226 C1227 1.351 . S
C1227 C1221 1.428 . S
C1227 N1226 1.351 . S
C1227 C1228 1.434 . S
C1228 C1219 1.429 . S
C1228 N1225 1.350 . S
C1228 C1227 1.434 . S
C1229 C1230 1.369 . S
C1229 C1231 1.419 . S
C1229 H1233 0.930 . S
C1230 C1229 1.369 . S
C1230 C1239 1.429 . S
C1231 C1229 1.419 . S
C1231 C1232 1.363 . S
C1231 H1234 0.929 . S
C1232 C1231 1.363 . S
C1232 C1238 1.428 . S
H1233 C1229 0.930 . S
H1234 C1231 0.929 . S
S1235 N1236 1.613 . S
S1235 N1237 1.610 . S
N1236 S1235 1.613 . S
N1236 C1239 1.350 . S
N1237 S1235 1.610 . S
N1237 C1238 1.351 . S
C1238 C1232 1.428 . S
C1238 N1237 1.351 . S
C1238 C1239 1.434 . S
C1239 C1230 1.429 . S
C1239 N1236 1.350 . S
C1239 C1238 1.434 . S
C1240 C1241 1.369 . S
C1240 C1242 1.419 . S
C1240 H1244 0.930 . S
C1241 C1240 1.369 . S
C1241 C1250 1.429 . S
C1242 C1240 1.419 . S
C1242 C1243 1.363 . S
C1242 H1245 0.929 . S
C1243 C1242 1.363 . S
C1243 C1249 1.428 . S
H1244 C1240 0.930 . S
H1245 C1242 0.929 . S
S1246 N1247 1.613 1_556 S
S1246 N1248 1.610 . S
N1247 S1246 1.613 1_554 S
N1247 C1250 1.350 . S
N1248 S1246 1.610 . S
N1248 C1249 1.351 1_556 S
C1249 C1243 1.428 . S
C1249 N1248 1.351 1_554 S
C1249 C1250 1.434 . S
C1250 C1241 1.429 . S
C1250 N1247 1.350 . S
C1250 C1249 1.434 . S
C1251 C1252 1.369 . S
C1251 C1253 1.419 . S
C1251 H1255 0.930 . S
C1252 C1251 1.369 . S
C1252 C1261 1.429 . S
C1253 C1251 1.419 . S
C1253 C1254 1.363 . S
C1253 H1256 0.929 . S
C1254 C1253 1.363 . S
C1254 C1260 1.428 . S
H1255 C1251 0.930 . S
H1256 C1253 0.929 . S
S1257 N1258 1.613 . S
S1257 N1259 1.610 . S
N1258 S1257 1.613 . S
N1258 C1261 1.350 . S
N1259 S1257 1.610 . S
N1259 C1260 1.351 . S
C1260 C1254 1.428 . S
C1260 N1259 1.351 . S
C1260 C1261 1.434 . S
C1261 C1252 1.429 . S
C1261 N1258 1.350 . S
C1261 C1260 1.434 . S
C1262 C1263 1.369 . S
C1262 C1264 1.419 . S
C1262 H1266 0.930 . S
C1263 C1262 1.369 . S
C1263 C1272 1.429 . S
C1264 C1262 1.419 . S
C1264 C1265 1.363 . S
C1264 H1267 0.929 . S
C1265 C1264 1.363 . S
C1265 C1271 1.428 . S
H1266 C1262 0.930 . S
H1267 C1264 0.929 . S
S1268 N1269 1.613 . S
S1268 N1270 1.610 . S
N1269 S1268 1.613 . S
N1269 C1272 1.350 . S
N1270 S1268 1.610 . S
N1270 C1271 1.351 . S
C1271 C1265 1.428 . S
C1271 N1270 1.351 . S
C1271 C1272 1.434 . S
C1272 C1263 1.429 . S
C1272 N1269 1.350 . S
C1272 C1271 1.434 . S
C1273 C1274 1.369 . S
C1273 C1275 1.419 . S
C1273 H1277 0.930 . S
C1274 C1273 1.369 . S
C1274 C1283 1.429 . S
C1275 C1273 1.419 . S
C1275 C1276 1.363 . S
C1275 H1278 0.929 . S
C1276 C1275 1.363 . S
C1276 C1282 1.428 . S
H1277 C1273 0.930 . S
H1278 C1275 0.929 . S
S1279 N1280 1.613 . S
S1279 N1281 1.610 . S
N1280 S1279 1.613 . S
N1280 C1283 1.350 . S
N1281 S1279 1.610 . S
N1281 C1282 1.351 . S
C1282 C1276 1.428 . S
C1282 N1281 1.351 . S
C1282 C1283 1.434 . S
C1283 C1274 1.429 . S
C1283 N1280 1.350 . S
C1283 C1282 1.434 . S
C1284 C1285 1.369 . S
C1284 C1286 1.419 . S
C1284 H1288 0.930 . S
C1285 C1284 1.369 . S
C1285 C1294 1.429 . S
C1286 C1284 1.419 . S
C1286 C1287 1.363 . S
C1286 H1289 0.929 . S
C1287 C1286 1.363 . S
C1287 C1293 1.428 . S
H1288 C1284 0.930 . S
H1289 C1286 0.929 . S
S1290 N1291 1.613 . S
S1290 N1292 1.610 . S
N1291 S1290 1.613 . S
N1291 C1294 1.350 . S
N1292 S1290 1.610 . S
N1292 C1293 1.351 . S
C1293 C1287 1.428 . S
C1293 N1292 1.351 . S
C1293 C1294 1.434 . S
C1294 C1285 1.429 . S
C1294 N1291 1.350 . S
C1294 C1293 1.434 . S
C1295 C1296 1.369 . S
C1295 C1297 1.419 . S
C1295 H1299 0.930 . S
C1296 C1295 1.369 . S
C1296 C1305 1.429 . S
C1297 C1295 1.419 . S
C1297 C1298 1.363 . S
C1297 H1300 0.929 . S
C1298 C1297 1.363 . S
C1298 C1304 1.428 . S
H1299 C1295 0.930 . S
H1300 C1297 0.929 . S
S1301 N1302 1.613 . S
S1301 N1303 1.610 . S
N1302 S1301 1.613 . S
N1302 C1305 1.350 . S
N1303 S1301 1.610 . S
N1303 C1304 1.351 . S
C1304 C1298 1.428 . S
C1304 N1303 1.351 . S
C1304 C1305 1.434 . S
C1305 C1296 1.429 . S
C1305 N1302 1.350 . S
C1305 C1304 1.434 . S
C1306 C1307 1.369 . S
C1306 C1308 1.419 . S
C1306 H1310 0.930 . S
C1307 C1306 1.369 . S
C1307 C1316 1.429 . S
C1308 C1306 1.419 . S
C1308 C1309 1.363 . S
C1308 H1311 0.929 1_556 S
C1309 C1308 1.363 . S
C1309 C1315 1.428 . S
H1310 C1306 0.930 . S
H1311 C1308 0.929 1_554 S
S1312 N1313 1.613 . S
S1312 N1314 1.610 . S
N1313 S1312 1.613 . S
N1313 C1316 1.350 . S
N1314 S1312 1.610 . S
N1314 C1315 1.351 . S
C1315 C1309 1.428 . S
C1315 N1314 1.351 . S
C1315 C1316 1.434 . S
C1316 C1307 1.429 . S
C1316 N1313 1.350 . S
C1316 C1315 1.434 . S
C1317 C1318 1.369 . S
C1317 C1319 1.419 . S
C1317 H1321 0.930 . S
C1318 C1317 1.369 . S
C1318 C1327 1.429 . S
C1319 C1317 1.419 . S
C1319 C1320 1.363 . S
C1319 H1322 0.929 . S
C1320 C1319 1.363 . S
C1320 C1326 1.428 . S
H1321 C1317 0.930 . S
H1322 C1319 0.929 . S
S1323 N1324 1.613 . S
S1323 N1325 1.610 . S
N1324 S1323 1.613 . S
N1324 C1327 1.350 . S
N1325 S1323 1.610 . S
N1325 C1326 1.351 . S
C1326 C1320 1.428 . S
C1326 N1325 1.351 . S
C1326 C1327 1.434 . S
C1327 C1318 1.429 . S
C1327 N1324 1.350 . S
C1327 C1326 1.434 . S
C1328 C1329 1.369 . S
C1328 C1330 1.419 . S
C1328 H1332 0.930 1_545 S
C1329 C1328 1.369 . S
C1329 C1338 1.429 . S
C1330 C1328 1.419 . S
C1330 C1331 1.363 . S
C1330 H1333 0.929 1_545 S
C1331 C1330 1.363 . S
C1331 C1337 1.428 . S
H1332 C1328 0.930 1_565 S
H1333 C1330 0.929 1_565 S
S1334 N1335 1.613 . S
S1334 N1336 1.610 . S
N1335 S1334 1.613 . S
N1335 C1338 1.350 . S
N1336 S1334 1.610 . S
N1336 C1337 1.351 . S
C1337 C1331 1.428 . S
C1337 N1336 1.351 . S
C1337 C1338 1.434 . S
C1338 C1329 1.429 . S
C1338 N1335 1.350 . S
C1338 C1337 1.434 . S
C1339 C1340 1.369 . S
C1339 C1341 1.419 . S
C1339 H1343 0.930 . S
C1340 C1339 1.369 . S
C1340 C1349 1.429 . S
C1341 C1339 1.419 . S
C1341 C1342 1.363 . S
C1341 H1344 0.929 . S
C1342 C1341 1.363 . S
C1342 C1348 1.428 . S
H1343 C1339 0.930 . S
H1344 C1341 0.929 . S
S1345 N1346 1.613 . S
S1345 N1347 1.610 . S
N1346 S1345 1.613 . S
N1346 C1349 1.350 . S
N1347 S1345 1.610 . S
N1347 C1348 1.351 . S
C1348 C1342 1.428 . S
C1348 N1347 1.351 . S
C1348 C1349 1.434 . S
C1349 C1340 1.429 . S
C1349 N1346 1.350 . S
C1349 C1348 1.434 . S
C1350 C1351 1.369 . S
C1350 C1352 1.419 . S
C1350 H1354 0.930 . S
C1351 C1350 1.369 . S
C1351 C1360 1.429 . S
C1352 C1350 1.419 . S
C1352 C1353 1.363 . S
C1352 H1355 0.929 . S
C1353 C1352 1.363 . S
C1353 C1359 1.428 . S
H1354 C1350 0.930 . S
H1355 C1352 0.929 . S
S1356 N1357 1.613 . S
S1356 N1358 1.610 . S
N1357 S1356 1.613 . S
N1357 C1360 1.350 . S
N1358 S1356 1.610 . S
N1358 C1359 1.351 . S
C1359 C1353 1.428 . S
C1359 N1358 1.351 . S
C1359 C1360 1.434 . S
C1360 C1351 1.429 . S
C1360 N1357 1.350 . S
C1360 C1359 1.434 . S
C1361 C1362 1.369 . S
C1361 C1363 1.419 . S
C1361 H1365 0.930 . S
C1362 C1361 1.369 . S
C1362 C1371 1.429 . S
C1363 C1361 1.419 . S
C1363 C1364 1.363 . S
C1363 H1366 0.929 . S
C1364 C1363 1.363 . S
C1364 C1370 1.428 . S
H1365 C1361 0.930 . S
H1366 C1363 0.929 . S
S1367 N1368 1.613 . S
S1367 N1369 1.610 . S
N1368 S1367 1.613 . S
N1368 C1371 1.350 . S
N1369 S1367 1.610 . S
N1369 C1370 1.351 . S
C1370 C1364 1.428 . S
C1370 N1369 1.351 . S
C1370 C1371 1.434 . S
C1371 C1362 1.429 . S
C1371 N1368 1.350 . S
C1371 C1370 1.434 . S
C1372 C1373 1.371 . S
C1372 C1374 1.426 . S
C1372 H1376 0.920 1_545 S
C1373 C1372 1.371 . S
C1373 C1382 1.429 . S
C1374 C1372 1.426 . S
C1374 C1375 1.363 . S
C1374 H1377 0.929 1_545 S
C1375 C1374 1.363 . S
C1375 C1381 1.428 . S
H1376 C1372 0.920 1_565 S
H1377 C1374 0.929 1_565 S
S1378 N1379 1.613 . S
S1378 N1380 1.610 . S
N1379 S1378 1.613 . S
N1379 C1382 1.350 . S
N1380 S1378 1.610 . S
N1380 C1381 1.351 . S
C1381 C1375 1.428 . S
C1381 N1380 1.351 . S
C1381 C1382 1.434 . S
C1382 C1373 1.429 . S
C1382 N1379 1.350 . S
C1382 C1381 1.434 . S
C1383 C1384 1.369 . S
C1383 C1385 1.419 . S
C1383 H1387 0.930 . S
C1384 C1383 1.369 . S
C1384 C1393 1.429 . S
C1385 C1383 1.419 . S
C1385 C1386 1.363 . S
C1385 H1388 0.929 . S
C1386 C1385 1.363 . S
C1386 C1392 1.428 . S
H1387 C1383 0.930 . S
H1388 C1385 0.929 . S
S1389 N1390 1.613 . S
S1389 N1391 1.610 . S
N1390 S1389 1.613 . S
N1390 C1393 1.350 . S
N1391 S1389 1.610 . S
N1391 C1392 1.351 . S
C1392 C1386 1.428 . S
C1392 N1391 1.351 . S
C1392 C1393 1.434 . S
C1393 C1384 1.429 . S
C1393 N1390 1.350 . S
C1393 C1392 1.434 . S
C1394 C1395 1.369 1_545 S
C1394 C1396 1.418 1_545 S
C1394 H1398 0.930 . S
C1395 C1394 1.369 1_565 S
C1395 C1404 1.429 . S
C1396 C1394 1.418 1_565 S
C1396 C1397 1.364 . S
C1396 H1399 0.928 1_565 S
C1397 C1396 1.364 . S
C1397 C1403 1.428 . S
H1398 C1394 0.930 . S
H1399 C1396 0.928 1_545 S
S1400 N1401 1.613 . S
S1400 N1402 1.610 . S
N1401 S1400 1.613 . S
N1401 C1404 1.350 . S
N1402 S1400 1.610 . S
N1402 C1403 1.351 . S
C1403 C1397 1.428 . S
C1403 N1402 1.351 . S
C1403 C1404 1.434 . S
C1404 C1395 1.429 . S
C1404 N1401 1.350 . S
C1404 C1403 1.434 . S
C1405 C1406 1.369 . S
C1405 C1407 1.419 . S
C1405 H1409 0.930 . S
C1406 C1405 1.369 . S
C1406 C1415 1.429 . S
C1407 C1405 1.419 . S
C1407 C1408 1.363 . S
C1407 H1410 0.929 . S
C1408 C1407 1.363 . S
C1408 C1414 1.428 . S
H1409 C1405 0.930 . S
H1410 C1407 0.929 . S
S1411 N1412 1.613 . S
S1411 N1413 1.610 . S
N1412 S1411 1.613 . S
N1412 C1415 1.350 . S
N1413 S1411 1.610 . S
N1413 C1414 1.351 . S
C1414 C1408 1.428 . S
C1414 N1413 1.351 . S
C1414 C1415 1.434 . S
C1415 C1406 1.429 . S
C1415 N1412 1.350 . S
C1415 C1414 1.434 . S
C1416 C1417 1.369 . S
C1416 C1418 1.419 1_554 S
C1416 H1420 0.930 . S
C1417 C1416 1.369 . S
C1417 C1426 1.429 . S
C1418 C1416 1.419 1_556 S
C1418 C1419 1.363 . S
C1418 H1421 0.929 . S
C1419 C1418 1.363 . S
C1419 C1425 1.428 . S
H1420 C1416 0.930 . S
H1421 C1418 0.929 . S
S1422 N1423 1.613 1_556 S
S1422 N1424 1.610 . S
N1423 S1422 1.613 1_554 S
N1423 C1426 1.350 . S
N1424 S1422 1.610 . S
N1424 C1425 1.351 . S
C1425 C1419 1.428 . S
C1425 N1424 1.351 . S
C1425 C1426 1.434 1_556 S
C1426 C1417 1.429 . S
C1426 N1423 1.350 . S
C1426 C1425 1.434 1_554 S
C1427 C1428 1.369 . S
C1427 C1429 1.419 . S
C1427 H1431 0.930 . S
C1428 C1427 1.369 . S
C1428 C1437 1.429 . S
C1429 C1427 1.419 . S
C1429 C1430 1.363 . S
C1429 H1432 0.929 . S
C1430 C1429 1.363 . S
C1430 C1436 1.428 . S
H1431 C1427 0.930 . S
H1432 C1429 0.929 . S
S1433 N1434 1.613 . S
S1433 N1435 1.610 . S
N1434 S1433 1.613 . S
N1434 C1437 1.350 . S
N1435 S1433 1.610 . S
N1435 C1436 1.351 . S
C1436 C1430 1.428 . S
C1436 N1435 1.351 . S
C1436 C1437 1.434 . S
C1437 C1428 1.429 . S
C1437 N1434 1.350 . S
C1437 C1436 1.434 . S
C1438 C1439 1.369 . S
C1438 C1440 1.419 . S
C1438 H1442 0.930 . S
C1439 C1438 1.369 . S
C1439 C1448 1.429 . S
C1440 C1438 1.419 . S
C1440 C1441 1.363 . S
C1440 H1443 0.929 . S
C1441 C1440 1.363 . S
C1441 C1447 1.428 . S
H1442 C1438 0.930 . S
H1443 C1440 0.929 . S
S1444 N1445 1.613 . S
S1444 N1446 1.610 . S
N1445 S1444 1.613 . S
N1445 C1448 1.350 . S
N1446 S1444 1.610 . S
N1446 C1447 1.351 . S
C1447 C1441 1.428 . S
C1447 N1446 1.351 . S
C1447 C1448 1.434 . S
C1448 C1439 1.429 . S
C1448 N1445 1.350 . S
C1448 C1447 1.434 . S
C1449 C1450 1.369 . S
C1449 C1451 1.419 . S
C1449 H1453 0.930 . S
C1450 C1449 1.369 . S
C1450 C1459 1.429 . S
C1451 C1449 1.419 . S
C1451 C1452 1.363 . S
C1451 H1454 0.929 . S
C1452 C1451 1.363 . S
C1452 C1458 1.428 . S
H1453 C1449 0.930 . S
H1454 C1451 0.929 . S
S1455 N1456 1.613 . S
S1455 N1457 1.610 . S
N1456 S1455 1.613 . S
N1456 C1459 1.350 . S
N1457 S1455 1.610 . S
N1457 C1458 1.351 . S
C1458 C1452 1.428 . S
C1458 N1457 1.351 . S
C1458 C1459 1.434 . S
C1459 C1450 1.429 . S
C1459 N1456 1.350 . S
C1459 C1458 1.434 . S
C1460 C1461 1.369 . S
C1460 C1462 1.408 1_545 S
C1460 H1464 0.930 . S
C1461 C1460 1.369 . S
C1461 C1470 1.429 . S
C1462 C1460 1.408 1_565 S
C1462 C1463 1.367 . S
C1462 H1465 0.937 . S
C1463 C1462 1.367 . S
C1463 C1469 1.428 1_565 S
H1464 C1460 0.930 . S
H1465 C1462 0.937 . S
S1466 N1467 1.613 . S
S1466 N1468 1.610 . S
N1467 S1466 1.613 . S
N1467 C1470 1.350 . S
N1468 S1466 1.610 . S
N1468 C1469 1.351 . S
C1469 C1463 1.428 1_545 S
C1469 N1468 1.351 . S
C1469 C1470 1.434 . S
C1470 C1461 1.429 . S
C1470 N1467 1.350 . S
C1470 C1469 1.434 . S
C1471 C1472 1.369 . S
C1471 C1473 1.419 . S
C1471 H1475 0.930 . S
C1472 C1471 1.369 . S
C1472 C1481 1.429 . S
C1473 C1471 1.419 . S
C1473 C1474 1.363 . S
C1473 H1476 0.929 . S
C1474 C1473 1.363 . S
C1474 C1480 1.428 . S
H1475 C1471 0.930 . S
H1476 C1473 0.929 . S
S1477 N1478 1.613 . S
S1477 N1479 1.610 . S
N1478 S1477 1.613 . S
N1478 C1481 1.350 . S
N1479 S1477 1.610 . S
N1479 C1480 1.351 . S
C1480 C1474 1.428 . S
C1480 N1479 1.351 . S
C1480 C1481 1.434 . S
C1481 C1472 1.429 . S
C1481 N1478 1.350 . S
C1481 C1480 1.434 . S
C1482 C1483 1.369 . S
C1482 C1484 1.419 . S
C1482 H1486 0.930 . S
C1483 C1482 1.369 . S
C1483 C1492 1.429 . S
C1484 C1482 1.419 . S
C1484 C1485 1.363 . S
C1484 H1487 0.929 . S
C1485 C1484 1.363 . S
C1485 C1491 1.428 . S
H1486 C1482 0.930 . S
H1487 C1484 0.929 . S
S1488 N1489 1.613 . S
S1488 N1490 1.610 . S
N1489 S1488 1.613 . S
N1489 C1492 1.350 . S
N1490 S1488 1.610 . S
N1490 C1491 1.351 . S
C1491 C1485 1.428 . S
C1491 N1490 1.351 . S
C1491 C1492 1.434 . S
C1492 C1483 1.429 . S
C1492 N1489 1.350 . S
C1492 C1491 1.434 . S
C1493 C1494 1.369 . S
C1493 C1495 1.419 . S
C1493 H1497 0.930 . S
C1494 C1493 1.369 . S
C1494 C1503 1.429 . S
C1495 C1493 1.419 . S
C1495 C1496 1.363 . S
C1495 H1498 0.929 . S
C1496 C1495 1.363 . S
C1496 C1502 1.428 . S
H1497 C1493 0.930 . S
H1498 C1495 0.929 . S
S1499 N1500 1.613 . S
S1499 N1501 1.610 . S
N1500 S1499 1.613 . S
N1500 C1503 1.350 . S
N1501 S1499 1.610 . S
N1501 C1502 1.351 . S
C1502 C1496 1.428 . S
C1502 N1501 1.351 . S
C1502 C1503 1.434 . S
C1503 C1494 1.429 . S
C1503 N1500 1.350 . S
C1503 C1502 1.434 . S
C1504 C1505 1.369 . S
C1504 C1506 1.419 . S
C1504 H1508 0.930 . S
C1505 C1504 1.369 . S
C1505 C1514 1.429 . S
C1506 C1504 1.419 . S
C1506 C1507 1.363 . S
C1506 H1509 0.929 . S
C1507 C1506 1.363 . S
C1507 C1513 1.428 . S
H1508 C1504 0.930 . S
H1509 C1506 0.929 . S
S1510 N1511 1.613 . S
S1510 N1512 1.610 . S
N1511 S1510 1.613 . S
N1511 C1514 1.350 . S
N1512 S1510 1.610 . S
N1512 C1513 1.351 . S
C1513 C1507 1.428 . S
C1513 N1512 1.351 . S
C1513 C1514 1.434 . S
C1514 C1505 1.429 . S
C1514 N1511 1.350 . S
C1514 C1513 1.434 . S
C1515 C1516 1.369 . S
C1515 C1517 1.419 . S
C1515 H1519 0.930 . S
C1516 C1515 1.369 . S
C1516 C1525 1.429 . S
C1517 C1515 1.419 . S
C1517 C1518 1.363 . S
C1517 H1520 0.929 . S
C1518 C1517 1.363 . S
C1518 C1524 1.428 . S
H1519 C1515 0.930 . S
H1520 C1517 0.929 . S
S1521 N1522 1.613 . S
S1521 N1523 1.610 . S
N1522 S1521 1.613 . S
N1522 C1525 1.350 . S
N1523 S1521 1.610 . S
N1523 C1524 1.351 . S
C1524 C1518 1.428 . S
C1524 N1523 1.351 . S
C1524 C1525 1.434 . S
C1525 C1516 1.429 . S
C1525 N1522 1.350 . S
C1525 C1524 1.434 . S
C1526 C1527 1.369 . S
C1526 C1528 1.419 1_556 S
C1526 H1530 0.930 1_556 S
C1527 C1526 1.369 . S
C1527 C1536 1.429 . S
C1528 C1526 1.419 1_554 S
C1528 C1529 1.363 . S
C1528 H1531 0.929 . S
C1529 C1528 1.363 . S
C1529 C1535 1.428 1_554 S
H1530 C1526 0.930 1_554 S
H1531 C1528 0.929 . S
S1532 N1533 1.613 . S
S1532 N1534 1.610 . S
N1533 S1532 1.613 . S
N1533 C1536 1.350 . S
N1534 S1532 1.610 . S
N1534 C1535 1.351 . S
C1535 C1529 1.428 1_556 S
C1535 N1534 1.351 . S
C1535 C1536 1.434 . S
C1536 C1527 1.429 . S
C1536 N1533 1.350 . S
C1536 C1535 1.434 . S
C1537 C1538 1.369 . S
C1537 C1539 1.419 1_455 S
C1537 H1541 0.930 . S
C1538 C1537 1.369 . S
C1538 C1547 1.429 . S
C1539 C1537 1.419 1_655 S
C1539 C1540 1.363 . S
C1539 H1542 0.929 . S
C1540 C1539 1.363 . S
C1540 C1546 1.428 . S
H1541 C1537 0.930 . S
H1542 C1539 0.929 . S
S1543 N1544 1.613 . S
S1543 N1545 1.610 1_455 S
N1544 S1543 1.613 . S
N1544 C1547 1.350 . S
N1545 S1543 1.610 1_655 S
N1545 C1546 1.351 . S
C1546 C1540 1.428 . S
C1546 N1545 1.351 . S
C1546 C1547 1.434 1_655 S
C1547 C1538 1.429 . S
C1547 N1544 1.350 . S
C1547 C1546 1.434 1_455 S
C1548 C1549 1.369 . S
C1548 C1550 1.419 . S
C1548 H1552 0.930 . S
C1549 C1548 1.369 . S
C1549 C1558 1.429 . S
C1550 C1548 1.419 . S
C1550 C1551 1.363 . S
C1550 H1553 0.929 . S
C1551 C1550 1.363 . S
C1551 C1557 1.428 . S
H1552 C1548 0.930 . S
H1553 C1550 0.929 . S
S1554 N1555 1.613 . S
S1554 N1556 1.610 . S
N1555 S1554 1.613 . S
N1555 C1558 1.350 . S
N1556 S1554 1.610 . S
N1556 C1557 1.351 . S
C1557 C1551 1.428 . S
C1557 N1556 1.351 . S
C1557 C1558 1.434 . S
C1558 C1549 1.429 . S
C1558 N1555 1.350 . S
C1558 C1557 1.434 . S
C1559 C1560 1.369 . S
C1559 C1561 1.419 . S
C1559 H1563 0.930 . S
C1560 C1559 1.369 . S
C1560 C1569 1.429 . S
C1561 C1559 1.419 . S
C1561 C1562 1.363 . S
C1561 H1564 0.929 . S
C1562 C1561 1.363 . S
C1562 C1568 1.428 . S
H1563 C1559 0.930 . S
H1564 C1561 0.929 . S
S1565 N1566 1.613 . S
S1565 N1567 1.610 . S
N1566 S1565 1.613 . S
N1566 C1569 1.350 . S
N1567 S1565 1.610 . S
N1567 C1568 1.351 . S
C1568 C1562 1.428 . S
C1568 N1567 1.351 . S
C1568 C1569 1.434 . S
C1569 C1560 1.429 . S
C1569 N1566 1.350 . S
C1569 C1568 1.434 . S
C1570 C1571 1.369 1_655 S
C1570 C1572 1.419 1_655 S
C1570 H1574 0.930 . S
C1571 C1570 1.369 1_455 S
C1571 C1580 1.429 . S
C1572 C1570 1.419 1_455 S
C1572 C1573 1.363 . S
C1572 H1575 0.929 . S
C1573 C1572 1.363 . S
C1573 C1579 1.428 . S
H1574 C1570 0.930 . S
H1575 C1572 0.929 . S
S1576 N1577 1.613 . S
S1576 N1578 1.610 . S
N1577 S1576 1.613 . S
N1577 C1580 1.350 . S
N1578 S1576 1.610 . S
N1578 C1579 1.351 . S
C1579 C1573 1.428 . S
C1579 N1578 1.351 . S
C1579 C1580 1.434 . S
C1580 C1571 1.429 . S
C1580 N1577 1.350 . S
C1580 C1579 1.434 . S
C1581 C1582 1.369 . S
C1581 C1583 1.419 . S
C1581 H1585 0.930 . S
C1582 C1581 1.369 . S
C1582 C1591 1.429 . S
C1583 C1581 1.419 . S
C1583 C1584 1.363 . S
C1583 H1586 0.929 . S
C1584 C1583 1.363 . S
C1584 C1590 1.428 . S
H1585 C1581 0.930 . S
H1586 C1583 0.929 . S
S1587 N1588 1.613 . S
S1587 N1589 1.610 . S
N1588 S1587 1.613 . S
N1588 C1591 1.350 . S
N1589 S1587 1.610 . S
N1589 C1590 1.351 . S
C1590 C1584 1.428 . S
C1590 N1589 1.351 . S
C1590 C1591 1.434 . S
C1591 C1582 1.429 . S
C1591 N1588 1.350 . S
C1591 C1590 1.434 . S
C1592 C1593 1.369 . S
C1592 C1594 1.419 . S
C1592 H1596 0.930 . S
C1593 C1592 1.369 . S
C1593 C1602 1.429 . S
C1594 C1592 1.419 . S
C1594 C1595 1.363 . S
C1594 H1597 0.929 . S
C1595 C1594 1.363 . S
C1595 C1601 1.428 . S
H1596 C1592 0.930 . S
H1597 C1594 0.929 . S
S1598 N1599 1.613 . S
S1598 N1600 1.610 . S
N1599 S1598 1.613 . S
N1599 C1602 1.350 . S
N1600 S1598 1.610 . S
N1600 C1601 1.351 . S
C1601 C1595 1.428 . S
C1601 N1600 1.351 . S
C1601 C1602 1.434 . S
C1602 C1593 1.429 . S
C1602 N1599 1.350 . S
C1602 C1601 1.434 . S
C1603 C1604 1.369 . S
C1603 C1605 1.419 . S
C1603 H1607 0.930 . S
C1604 C1603 1.369 . S
C1604 C1613 1.429 . S
C1605 C1603 1.419 . S
C1605 C1606 1.363 . S
C1605 H1608 0.929 . S
C1606 C1605 1.363 . S
C1606 C1612 1.428 . S
H1607 C1603 0.930 . S
H1608 C1605 0.929 . S
S1609 N1610 1.613 . S
S1609 N1611 1.610 . S
N1610 S1609 1.613 . S
N1610 C1613 1.350 . S
N1611 S1609 1.610 . S
N1611 C1612 1.351 . S
C1612 C1606 1.428 . S
C1612 N1611 1.351 . S
C1612 C1613 1.434 . S
C1613 C1604 1.429 . S
C1613 N1610 1.350 . S
C1613 C1612 1.434 . S
C1614 C1615 1.369 . S
C1614 C1616 1.419 . S
C1614 H1618 0.930 . S
C1615 C1614 1.369 . S
C1615 C1624 1.429 . S
C1616 C1614 1.419 . S
C1616 C1617 1.363 . S
C1616 H1619 0.929 . S
C1617 C1616 1.363 . S
C1617 C1623 1.428 . S
H1618 C1614 0.930 . S
H1619 C1616 0.929 . S
S1620 N1621 1.613 . S
S1620 N1622 1.610 . S
N1621 S1620 1.613 . S
N1621 C1624 1.350 . S
N1622 S1620 1.610 . S
N1622 C1623 1.351 . S
C1623 C1617 1.428 . S
C1623 N1622 1.351 . S
C1623 C1624 1.434 . S
C1624 C1615 1.429 . S
C1624 N1621 1.350 . S
C1624 C1623 1.434 . S
C1625 C1626 1.369 . S
C1625 C1627 1.419 . S
C1625 H1629 0.930 . S
C1626 C1625 1.369 . S
C1626 C1635 1.429 . S
C1627 C1625 1.419 . S
C1627 C1628 1.363 . S
C1627 H1630 0.929 . S
C1628 C1627 1.363 . S
C1628 C1634 1.428 . S
H1629 C1625 0.930 . S
H1630 C1627 0.929 . S
S1631 N1632 1.613 . S
S1631 N1633 1.610 . S
N1632 S1631 1.613 . S
N1632 C1635 1.350 . S
N1633 S1631 1.610 . S
N1633 C1634 1.351 . S
C1634 C1628 1.428 . S
C1634 N1633 1.351 . S
C1634 C1635 1.434 . S
C1635 C1626 1.429 . S
C1635 N1632 1.350 . S
C1635 C1634 1.434 . S
C1636 C1637 1.369 . S
C1636 C1638 1.419 . S
C1636 H1640 0.930 . S
C1637 C1636 1.369 . S
C1637 C1646 1.429 . S
C1638 C1636 1.419 . S
C1638 C1639 1.363 . S
C1638 H1641 0.929 . S
C1639 C1638 1.363 . S
C1639 C1645 1.428 . S
H1640 C1636 0.930 . S
H1641 C1638 0.929 . S
S1642 N1643 1.613 . S
S1642 N1644 1.610 . S
N1643 S1642 1.613 . S
N1643 C1646 1.350 . S
N1644 S1642 1.610 . S
N1644 C1645 1.351 . S
C1645 C1639 1.428 . S
C1645 N1644 1.351 . S
C1645 C1646 1.434 . S
C1646 C1637 1.429 . S
C1646 N1643 1.350 . S
C1646 C1645 1.434 . S
C1647 C1648 1.369 . S
C1647 C1649 1.419 . S
C1647 H1651 0.930 . S
C1648 C1647 1.369 . S
C1648 C1657 1.429 . S
C1649 C1647 1.419 . S
C1649 C1650 1.363 . S
C1649 H1652 0.929 . S
C1650 C1649 1.363 . S
C1650 C1656 1.428 . S
H1651 C1647 0.930 . S
H1652 C1649 0.929 . S
S1653 N1654 1.613 . S
S1653 N1655 1.610 . S
N1654 S1653 1.613 . S
N1654 C1657 1.350 . S
N1655 S1653 1.610 . S
N1655 C1656 1.351 . S
C1656 C1650 1.428 . S
C1656 N1655 1.351 . S
C1656 C1657 1.434 . S
C1657 C1648 1.429 . S
C1657 N1654 1.350 . S
C1657 C1656 1.434 . S
C1658 C1659 1.369 . S
C1658 C1660 1.419 . S
C1658 H1662 0.930 . S
C1659 C1658 1.369 . S
C1659 C1668 1.429 . S
C1660 C1658 1.419 . S
C1660 C1661 1.363 . S
C1660 H1663 0.929 . S
C1661 C1660 1.363 . S
C1661 C1667 1.428 . S
H1662 C1658 0.930 . S
H1663 C1660 0.929 . S
S1664 N1665 1.613 . S
S1664 N1666 1.610 . S
N1665 S1664 1.613 . S
N1665 C1668 1.350 . S
N1666 S1664 1.610 . S
N1666 C1667 1.351 . S
C1667 C1661 1.428 . S
C1667 N1666 1.351 . S
C1667 C1668 1.434 . S
C1668 C1659 1.429 . S
C1668 N1665 1.350 . S
C1668 C1667 1.434 . S
C1669 C1670 1.369 . S
C1669 C1671 1.419 . S
C1669 H1673 0.930 . S
C1670 C1669 1.369 . S
C1670 C1679 1.429 . S
C1671 C1669 1.419 . S
C1671 C1672 1.363 . S
C1671 H1674 0.929 . S
C1672 C1671 1.363 . S
C1672 C1678 1.428 . S
H1673 C1669 0.930 . S
H1674 C1671 0.929 . S
S1675 N1676 1.613 . S
S1675 N1677 1.610 . S
N1676 S1675 1.613 . S
N1676 C1679 1.350 . S
N1677 S1675 1.610 . S
N1677 C1678 1.351 . S
C1678 C1672 1.428 . S
C1678 N1677 1.351 . S
C1678 C1679 1.434 . S
C1679 C1670 1.429 . S
C1679 N1676 1.350 . S
C1679 C1678 1.434 . S
C1680 C1681 1.369 . S
C1680 C1682 1.419 . S
C1680 H1684 0.930 . S
C1681 C1680 1.369 . S
C1681 C1690 1.429 . S
C1682 C1680 1.419 . S
C1682 C1683 1.363 . S
C1682 H1685 0.929 . S
C1683 C1682 1.363 . S
C1683 C1689 1.428 . S
H1684 C1680 0.930 . S
H1685 C1682 0.929 . S
S1686 N1687 1.613 . S
S1686 N1688 1.610 . S
N1687 S1686 1.613 . S
N1687 C1690 1.350 . S
N1688 S1686 1.610 . S
N1688 C1689 1.351 . S
C1689 C1683 1.428 . S
C1689 N1688 1.351 . S
C1689 C1690 1.434 . S
C1690 C1681 1.429 . S
C1690 N1687 1.350 . S
C1690 C1689 1.434 . S
C1691 C1692 1.369 . S
C1691 C1693 1.419 . S
C1691 H1695 0.930 . S
C1692 C1691 1.369 . S
C1692 C1701 1.429 . S
C1693 C1691 1.419 . S
C1693 C1694 1.363 . S
C1693 H1696 0.929 . S
C1694 C1693 1.363 . S
C1694 C1700 1.428 . S
H1695 C1691 0.930 . S
H1696 C1693 0.929 . S
S1697 N1698 1.613 . S
S1697 N1699 1.610 . S
N1698 S1697 1.613 . S
N1698 C1701 1.350 . S
N1699 S1697 1.610 . S
N1699 C1700 1.351 . S
C1700 C1694 1.428 . S
C1700 N1699 1.351 . S
C1700 C1701 1.434 . S
C1701 C1692 1.429 . S
C1701 N1698 1.350 . S
C1701 C1700 1.434 . S
C1702 C1703 1.369 . S
C1702 C1704 1.419 . S
C1702 H1706 0.930 . S
C1703 C1702 1.369 . S
C1703 C1712 1.429 . S
C1704 C1702 1.419 . S
C1704 C1705 1.363 . S
C1704 H1707 0.929 . S
C1705 C1704 1.363 . S
C1705 C1711 1.428 . S
H1706 C1702 0.930 . S
H1707 C1704 0.929 . S
S1708 N1709 1.613 . S
S1708 N1710 1.610 . S
N1709 S1708 1.613 . S
N1709 C1712 1.350 . S
N1710 S1708 1.610 . S
N1710 C1711 1.351 . S
C1711 C1705 1.428 . S
C1711 N1710 1.351 . S
C1711 C1712 1.434 . S
C1712 C1703 1.429 . S
C1712 N1709 1.350 . S
C1712 C1711 1.434 . S
C1713 C1714 1.369 1_545 S
C1713 C1715 1.419 . S
C1713 H1717 0.930 . S
C1714 C1713 1.369 1_565 S
C1714 C1723 1.429 1_554 S
C1715 C1713 1.419 . S
C1715 C1716 1.363 . S
C1715 H1718 0.929 . S
C1716 C1715 1.363 . S
C1716 C1722 1.428 1_544 S
H1717 C1713 0.930 . S
H1718 C1715 0.929 . S
S1719 N1720 1.613 . S
S1719 N1721 1.610 . S
N1720 S1719 1.613 . S
N1720 C1723 1.350 . S
N1721 S1719 1.610 . S
N1721 C1722 1.351 . S
C1722 C1716 1.428 1_566 S
C1722 N1721 1.351 . S
C1722 C1723 1.434 . S
C1723 C1714 1.429 1_556 S
C1723 N1720 1.350 . S
C1723 C1722 1.434 . S
C1724 C1725 1.369 . S
C1724 C1726 1.419 . S
C1724 H1728 0.930 . S
C1725 C1724 1.369 . S
C1725 C1734 1.429 . S
C1726 C1724 1.419 . S
C1726 C1727 1.363 . S
C1726 H1729 0.929 . S
C1727 C1726 1.363 . S
C1727 C1733 1.428 . S
H1728 C1724 0.930 . S
H1729 C1726 0.929 . S
S1730 N1731 1.613 . S
S1730 N1732 1.610 . S
N1731 S1730 1.613 . S
N1731 C1734 1.350 . S
N1732 S1730 1.610 . S
N1732 C1733 1.351 . S
C1733 C1727 1.428 . S
C1733 N1732 1.351 . S
C1733 C1734 1.434 . S
C1734 C1725 1.429 . S
C1734 N1731 1.350 . S
C1734 C1733 1.434 . S
C1735 C1736 1.369 . S
C1735 C1737 1.419 . S
C1735 H1739 0.930 . S
C1736 C1735 1.369 . S
C1736 C1745 1.429 . S
C1737 C1735 1.419 . S
C1737 C1738 1.363 . S
C1737 H1740 0.929 . S
C1738 C1737 1.363 . S
C1738 C1744 1.428 . S
H1739 C1735 0.930 . S
H1740 C1737 0.929 . S
S1741 N1742 1.613 . S
S1741 N1743 1.610 . S
N1742 S1741 1.613 . S
N1742 C1745 1.350 . S
N1743 S1741 1.610 . S
N1743 C1744 1.351 . S
C1744 C1738 1.428 . S
C1744 N1743 1.351 . S
C1744 C1745 1.434 . S
C1745 C1736 1.429 . S
C1745 N1742 1.350 . S
C1745 C1744 1.434 . S
C1746 C1747 1.369 . S
C1746 C1748 1.419 . S
C1746 H1750 0.930 . S
C1747 C1746 1.369 . S
C1747 C1756 1.429 . S
C1748 C1746 1.419 . S
C1748 C1749 1.363 . S
C1748 H1751 0.929 . S
C1749 C1748 1.363 . S
C1749 C1755 1.428 . S
H1750 C1746 0.930 . S
H1751 C1748 0.929 . S
S1752 N1753 1.613 . S
S1752 N1754 1.610 . S
N1753 S1752 1.613 . S
N1753 C1756 1.350 . S
N1754 S1752 1.610 . S
N1754 C1755 1.351 . S
C1755 C1749 1.428 . S
C1755 N1754 1.351 . S
C1755 C1756 1.434 . S
C1756 C1747 1.429 . S
C1756 N1753 1.350 . S
C1756 C1755 1.434 . S
C1757 C1758 1.369 . S
C1757 C1759 1.419 . S
C1757 H1761 0.930 . S
C1758 C1757 1.369 . S
C1758 C1767 1.429 . S
C1759 C1757 1.419 . S
C1759 C1760 1.363 . S
C1759 H1762 0.929 . S
C1760 C1759 1.363 . S
C1760 C1766 1.428 . S
H1761 C1757 0.930 . S
H1762 C1759 0.929 . S
S1763 N1764 1.613 . S
S1763 N1765 1.610 . S
N1764 S1763 1.613 . S
N1764 C1767 1.350 . S
N1765 S1763 1.610 . S
N1765 C1766 1.351 . S
C1766 C1760 1.428 . S
C1766 N1765 1.351 . S
C1766 C1767 1.434 . S
C1767 C1758 1.429 . S
C1767 N1764 1.350 . S
C1767 C1766 1.434 . S
C1768 C1769 1.369 . S
C1768 C1770 1.419 . S
C1768 H1772 0.930 . S
C1769 C1768 1.369 . S
C1769 C1778 1.429 . S
C1770 C1768 1.419 . S
C1770 C1771 1.363 . S
C1770 H1773 0.929 . S
C1771 C1770 1.363 . S
C1771 C1777 1.428 . S
H1772 C1768 0.930 . S
H1773 C1770 0.929 . S
S1774 N1775 1.613 . S
S1774 N1776 1.610 . S
N1775 S1774 1.613 . S
N1775 C1778 1.350 . S
N1776 S1774 1.610 . S
N1776 C1777 1.351 . S
C1777 C1771 1.428 . S
C1777 N1776 1.351 . S
C1777 C1778 1.434 . S
C1778 C1769 1.429 . S
C1778 N1775 1.350 . S
C1778 C1777 1.434 . S
C1779 C1780 1.369 . S
C1779 C1781 1.419 . S
C1779 H1783 0.930 . S
C1780 C1779 1.369 . S
C1780 C1789 1.429 . S
C1781 C1779 1.419 . S
C1781 C1782 1.363 . S
C1781 H1784 0.929 . S
C1782 C1781 1.363 . S
C1782 C1788 1.428 . S
H1783 C1779 0.930 . S
H1784 C1781 0.929 . S
S1785 N1786 1.613 . S
S1785 N1787 1.610 . S
N1786 S1785 1.613 . S
N1786 C1789 1.350 . S
N1787 S1785 1.610 . S
N1787 C1788 1.351 . S
C1788 C1782 1.428 . S
C1788 N1787 1.351 . S
C1788 C1789 1.434 . S
C1789 C1780 1.429 . S
C1789 N1786 1.350 . S
C1789 C1788 1.434 . S
C1790 C1791 1.369 . S
C1790 C1792 1.419 . S
C1790 H1794 0.930 . S
C1791 C1790 1.369 . S
C1791 C1800 1.429 . S
C1792 C1790 1.419 . S
C1792 C1793 1.363 . S
C1792 H1795 0.929 . S
C1793 C1792 1.363 . S
C1793 C1799 1.428 . S
H1794 C1790 0.930 . S
H1795 C1792 0.929 . S
S1796 N1797 1.613 . S
S1796 N1798 1.610 . S
N1797 S1796 1.613 . S
N1797 C1800 1.350 . S
N1798 S1796 1.610 . S
N1798 C1799 1.351 . S
C1799 C1793 1.428 . S
C1799 N1798 1.351 . S
C1799 C1800 1.434 . S
C1800 C1791 1.429 . S
C1800 N1797 1.350 . S
C1800 C1799 1.434 . S
C1801 C1802 1.369 . S
C1801 C1803 1.419 . S
C1801 H1805 0.930 . S
C1802 C1801 1.369 . S
C1802 C1811 1.429 . S
C1803 C1801 1.419 . S
C1803 C1804 1.363 . S
C1803 H1806 0.929 . S
C1804 C1803 1.363 . S
C1804 C1810 1.428 . S
H1805 C1801 0.930 . S
H1806 C1803 0.929 . S
S1807 N1808 1.613 . S
S1807 N1809 1.610 . S
N1808 S1807 1.613 . S
N1808 C1811 1.350 . S
N1809 S1807 1.610 . S
N1809 C1810 1.351 . S
C1810 C1804 1.428 . S
C1810 N1809 1.351 . S
C1810 C1811 1.434 . S
C1811 C1802 1.429 . S
C1811 N1808 1.350 . S
C1811 C1810 1.434 . S
C1812 C1813 1.369 . S
C1812 C1814 1.419 . S
C1812 H1816 0.930 . S
C1813 C1812 1.369 . S
C1813 C1822 1.429 . S
C1814 C1812 1.419 . S
C1814 C1815 1.363 . S
C1814 H1817 0.929 . S
C1815 C1814 1.363 . S
C1815 C1821 1.428 . S
H1816 C1812 0.930 . S
H1817 C1814 0.929 . S
S1818 N1819 1.613 . S
S1818 N1820 1.610 . S
N1819 S1818 1.613 . S
N1819 C1822 1.350 . S
N1820 S1818 1.610 . S
N1820 C1821 1.351 . S
C1821 C1815 1.428 . S
C1821 N1820 1.351 . S
C1821 C1822 1.434 . S
C1822 C1813 1.429 . S
C1822 N1819 1.350 . S
C1822 C1821 1.434 . S
C1823 C1824 1.369 . S
C1823 C1825 1.419 . S
C1823 H1827 0.930 . S
C1824 C1823 1.369 . S
C1824 C1833 1.429 . S
C1825 C1823 1.419 . S
C1825 C1826 1.363 . S
C1825 H1828 0.929 . S
C1826 C1825 1.363 . S
C1826 C1832 1.428 . S
H1827 C1823 0.930 . S
H1828 C1825 0.929 . S
S1829 N1830 1.613 . S
S1829 N1831 1.610 . S
N1830 S1829 1.613 . S
N1830 C1833 1.350 . S
N1831 S1829 1.610 . S
N1831 C1832 1.351 . S
C1832 C1826 1.428 . S
C1832 N1831 1.351 . S
C1832 C1833 1.434 . S
C1833 C1824 1.429 . S
C1833 N1830 1.350 . S
C1833 C1832 1.434 . S
C1834 C1835 1.369 . S
C1834 C1836 1.419 . S
C1834 H1838 0.930 . S
C1835 C1834 1.369 . S
C1835 C1844 1.429 . S
C1836 C1834 1.419 . S
C1836 C1837 1.363 . S
C1836 H1839 0.929 . S
C1837 C1836 1.363 . S
C1837 C1843 1.428 . S
H1838 C1834 0.930 . S
H1839 C1836 0.929 . S
S1840 N1841 1.613 . S
S1840 N1842 1.610 . S
N1841 S1840 1.613 . S
N1841 C1844 1.350 . S
N1842 S1840 1.610 . S
N1842 C1843 1.351 . S
C1843 C1837 1.428 . S
C1843 N1842 1.351 . S
C1843 C1844 1.434 . S
C1844 C1835 1.429 . S
C1844 N1841 1.350 . S
C1844 C1843 1.434 . S
C1845 C1846 1.369 . S
C1845 C1847 1.419 . S
C1845 H1849 0.930 . S
C1846 C1845 1.369 . S
C1846 C1855 1.429 . S
C1847 C1845 1.419 . S
C1847 C1848 1.363 . S
C1847 H1850 0.929 . S
C1848 C1847 1.363 . S
C1848 C1854 1.428 . S
H1849 C1845 0.930 . S
H1850 C1847 0.929 . S
S1851 N1852 1.613 . S
S1851 N1853 1.610 . S
N1852 S1851 1.613 . S
N1852 C1855 1.350 . S
N1853 S1851 1.610 . S
N1853 C1854 1.351 . S
C1854 C1848 1.428 . S
C1854 N1853 1.351 . S
C1854 C1855 1.434 . S
C1855 C1846 1.429 . S
C1855 N1852 1.350 . S
C1855 C1854 1.434 . S
C1856 C1857 1.369 . S
C1856 C1858 1.419 . S
C1856 H1860 0.930 . S
C1857 C1856 1.369 . S
C1857 C1866 1.429 . S
C1858 C1856 1.419 . S
C1858 C1859 1.363 . S
C1858 H1861 0.929 . S
C1859 C1858 1.363 . S
C1859 C1865 1.428 . S
H1860 C1856 0.930 . S
H1861 C1858 0.929 . S
S1862 N1863 1.613 . S
S1862 N1864 1.610 . S
N1863 S1862 1.613 . S
N1863 C1866 1.350 . S
N1864 S1862 1.610 . S
N1864 C1865 1.351 . S
C1865 C1859 1.428 . S
C1865 N1864 1.351 . S
C1865 C1866 1.434 . S
C1866 C1857 1.429 . S
C1866 N1863 1.350 . S
C1866 C1865 1.434 . S
C1867 C1868 1.369 . S
C1867 C1869 1.419 . S
C1867 H1871 0.930 . S
C1868 C1867 1.369 . S
C1868 C1877 1.429 . S
C1869 C1867 1.419 . S
C1869 C1870 1.363 . S
C1869 H1872 0.929 . S
C1870 C1869 1.363 . S
C1870 C1876 1.428 . S
H1871 C1867 0.930 . S
H1872 C1869 0.929 . S
S1873 N1874 1.613 . S
S1873 N1875 1.610 . S
N1874 S1873 1.613 . S
N1874 C1877 1.350 . S
N1875 S1873 1.610 . S
N1875 C1876 1.351 . S
C1876 C1870 1.428 . S
C1876 N1875 1.351 . S
C1876 C1877 1.434 . S
C1877 C1868 1.429 . S
C1877 N1874 1.350 . S
C1877 C1876 1.434 . S
C1878 C1879 1.369 1_455 S
C1878 C1880 1.419 . S
C1878 H1882 0.930 . S
C1879 C1878 1.369 1_655 S
C1879 C1888 1.429 . S
C1880 C1878 1.419 . S
C1880 C1881 1.363 . S
C1880 H1883 0.929 . S
C1881 C1880 1.363 . S
C1881 C1887 1.428 . S
H1882 C1878 0.930 . S
H1883 C1880 0.929 . S
S1884 N1885 1.613 . S
S1884 N1886 1.610 1_655 S
N1885 S1884 1.613 . S
N1885 C1888 1.350 . S
N1886 S1884 1.610 1_455 S
N1886 C1887 1.351 . S
C1887 C1881 1.428 . S
C1887 N1886 1.351 . S
C1887 C1888 1.434 1_455 S
C1888 C1879 1.429 . S
C1888 N1885 1.350 . S
C1888 C1887 1.434 1_655 S
C1889 C1890 1.369 . S
C1889 C1891 1.419 . S
C1889 H1893 0.930 . S
C1890 C1889 1.369 . S
C1890 C1899 1.429 . S
C1891 C1889 1.419 . S
C1891 C1892 1.363 . S
C1891 H1894 0.929 . S
C1892 C1891 1.363 . S
C1892 C1898 1.428 . S
H1893 C1889 0.930 . S
H1894 C1891 0.929 . S
S1895 N1896 1.613 . S
S1895 N1897 1.610 . S
N1896 S1895 1.613 . S
N1896 C1899 1.350 . S
N1897 S1895 1.610 . S
N1897 C1898 1.351 . S
C1898 C1892 1.428 . S
C1898 N1897 1.351 . S
C1898 C1899 1.434 . S
C1899 C1890 1.429 . S
C1899 N1896 1.350 . S
C1899 C1898 1.434 . S
C1900 C1901 1.369 . S
C1900 C1902 1.419 . S
C1900 H1904 0.930 . S
C1901 C1900 1.369 . S
C1901 C1910 1.429 . S
C1902 C1900 1.419 . S
C1902 C1903 1.363 . S
C1902 H1905 0.929 . S
C1903 C1902 1.363 . S
C1903 C1909 1.428 . S
H1904 C1900 0.930 . S
H1905 C1902 0.929 . S
S1906 N1907 1.613 . S
S1906 N1908 1.610 . S
N1907 S1906 1.613 . S
N1907 C1910 1.350 . S
N1908 S1906 1.610 . S
N1908 C1909 1.351 . S
C1909 C1903 1.428 . S
C1909 N1908 1.351 . S
C1909 C1910 1.434 . S
C1910 C1901 1.429 . S
C1910 N1907 1.350 . S
C1910 C1909 1.434 . S
C1911 C1912 1.369 . S
C1911 C1913 1.419 . S
C1911 H1915 0.930 . S
C1912 C1911 1.369 . S
C1912 C1921 1.429 . S
C1913 C1911 1.419 . S
C1913 C1914 1.363 . S
C1913 H1916 0.929 . S
C1914 C1913 1.363 . S
C1914 C1920 1.428 . S
H1915 C1911 0.930 . S
H1916 C1913 0.929 . S
S1917 N1918 1.613 . S
S1917 N1919 1.610 . S
N1918 S1917 1.613 . S
N1918 C1921 1.350 . S
N1919 S1917 1.610 . S
N1919 C1920 1.351 . S
C1920 C1914 1.428 . S
C1920 N1919 1.351 . S
C1920 C1921 1.434 . S
C1921 C1912 1.429 . S
C1921 N1918 1.350 . S
C1921 C1920 1.434 . S
C1922 C1923 1.369 . S
C1922 C1924 1.419 . S
C1922 H1926 0.930 . S
C1923 C1922 1.369 . S
C1923 C1932 1.429 . S
C1924 C1922 1.419 . S
C1924 C1925 1.363 . S
C1924 H1927 0.929 . S
C1925 C1924 1.363 . S
C1925 C1931 1.428 . S
H1926 C1922 0.930 . S
H1927 C1924 0.929 . S
S1928 N1929 1.613 . S
S1928 N1930 1.610 . S
N1929 S1928 1.613 . S
N1929 C1932 1.350 1_455 S
N1930 S1928 1.610 . S
N1930 C1931 1.351 1_455 S
C1931 C1925 1.428 . S
C1931 N1930 1.351 1_655 S
C1931 C1932 1.434 . S
C1932 C1923 1.429 . S
C1932 N1929 1.350 1_655 S
C1932 C1931 1.434 . S
C1933 C1934 1.369 . S
C1933 C1935 1.419 . S
C1933 H1937 0.930 . S
C1934 C1933 1.369 . S
C1934 C1943 1.429 . S
C1935 C1933 1.419 . S
C1935 C1936 1.363 . S
C1935 H1938 0.929 . S
C1936 C1935 1.363 . S
C1936 C1942 1.428 . S
H1937 C1933 0.930 . S
H1938 C1935 0.929 . S
S1939 N1940 1.613 . S
S1939 N1941 1.610 . S
N1940 S1939 1.613 . S
N1940 C1943 1.350 . S
N1941 S1939 1.610 . S
N1941 C1942 1.351 . S
C1942 C1936 1.428 . S
C1942 N1941 1.351 . S
C1942 C1943 1.434 . S
C1943 C1934 1.429 . S
C1943 N1940 1.350 . S
C1943 C1942 1.434 . S
C1944 C1945 1.369 . S
C1944 C1946 1.419 . S
C1944 H1948 0.930 . S
C1945 C1944 1.369 . S
C1945 C1954 1.429 . S
C1946 C1944 1.419 . S
C1946 C1947 1.363 . S
C1946 H1949 0.929 . S
C1947 C1946 1.363 . S
C1947 C1953 1.428 . S
H1948 C1944 0.930 . S
H1949 C1946 0.929 . S
S1950 N1951 1.613 . S
S1950 N1952 1.610 . S
N1951 S1950 1.613 . S
N1951 C1954 1.350 . S
N1952 S1950 1.610 . S
N1952 C1953 1.351 . S
C1953 C1947 1.428 . S
C1953 N1952 1.351 . S
C1953 C1954 1.434 . S
C1954 C1945 1.429 . S
C1954 N1951 1.350 . S
C1954 C1953 1.434 . S
C1955 C1956 1.369 . S
C1955 C1957 1.419 . S
C1955 H1959 0.930 . S
C1956 C1955 1.369 . S
C1956 C1965 1.429 . S
C1957 C1955 1.419 . S
C1957 C1958 1.363 . S
C1957 H1960 0.948 . S
C1958 C1957 1.363 . S
C1958 C1964 1.428 1_565 S
H1959 C1955 0.930 . S
H1960 C1957 0.948 . S
S1961 N1962 1.613 1_545 S
S1961 N1963 1.610 . S
N1962 S1961 1.613 1_565 S
N1962 C1965 1.350 . S
N1963 S1961 1.610 . S
N1963 C1964 1.351 . S
C1964 C1958 1.428 1_545 S
C1964 N1963 1.351 . S
C1964 C1965 1.434 1_545 S
C1965 C1956 1.429 . S
C1965 N1962 1.350 . S
C1965 C1964 1.434 1_565 S
C1966 C1967 1.369 . S
C1966 C1968 1.419 . S
C1966 H1970 0.930 . S
C1967 C1966 1.369 . S
C1967 C1976 1.429 . S
C1968 C1966 1.419 . S
C1968 C1969 1.363 . S
C1968 H1971 0.929 . S
C1969 C1968 1.363 . S
C1969 C1975 1.428 . S
H1970 C1966 0.930 . S
H1971 C1968 0.929 . S
S1972 N1973 1.613 . S
S1972 N1974 1.610 . S
N1973 S1972 1.613 . S
N1973 C1976 1.350 . S
N1974 S1972 1.610 . S
N1974 C1975 1.351 . S
C1975 C1969 1.428 . S
C1975 N1974 1.351 . S
C1975 C1976 1.434 . S
C1976 C1967 1.429 . S
C1976 N1973 1.350 . S
C1976 C1975 1.434 . S
C1977 C1978 1.369 . S
C1977 C1979 1.419 . S
C1977 H1981 0.930 . S
C1978 C1977 1.369 . S
C1978 C1987 1.429 . S
C1979 C1977 1.419 . S
C1979 C1980 1.363 . S
C1979 H1982 0.929 . S
C1980 C1979 1.363 . S
C1980 C1986 1.428 . S
H1981 C1977 0.930 . S
H1982 C1979 0.929 . S
S1983 N1984 1.613 . S
S1983 N1985 1.610 . S
N1984 S1983 1.613 . S
N1984 C1987 1.350 . S
N1985 S1983 1.610 . S
N1985 C1986 1.351 . S
C1986 C1980 1.428 . S
C1986 N1985 1.351 . S
C1986 C1987 1.434 . S
C1987 C1978 1.429 . S
C1987 N1984 1.350 . S
C1987 C1986 1.434 . S
C1988 C1989 1.369 . S
C1988 C1990 1.419 . S
C1988 H1992 0.930 . S
C1989 C1988 1.369 . S
C1989 C1998 1.429 . S
C1990 C1988 1.419 . S
C1990 C1991 1.363 . S
C1990 H1993 0.929 . S
C1991 C1990 1.363 . S
C1991 C1997 1.428 . S
H1992 C1988 0.930 . S
H1993 C1990 0.929 . S
S1994 N1995 1.613 . S
S1994 N1996 1.610 . S
N1995 S1994 1.613 . S
N1995 C1998 1.350 . S
N1996 S1994 1.610 . S
N1996 C1997 1.351 . S
C1997 C1991 1.428 . S
C1997 N1996 1.351 . S
C1997 C1998 1.434 . S
C1998 C1989 1.429 . S
C1998 N1995 1.350 . S
C1998 C1997 1.434 . S
C1999 C2000 1.369 1_556 S
C1999 C2001 1.419 . S
C1999 H2003 0.930 . S
C2000 C1999 1.369 1_554 S
C2000 C2009 1.429 . S
C2001 C1999 1.419 . S
C2001 C2002 1.363 . S
C2001 H2004 0.929 . S
C2002 C2001 1.363 . S
C2002 C2008 1.428 1_556 S
H2003 C1999 0.930 . S
H2004 C2001 0.929 . S
S2005 N2006 1.613 . S
S2005 N2007 1.610 . S
N2006 S2005 1.613 . S
N2006 C2009 1.350 . S
N2007 S2005 1.610 . S
N2007 C2008 1.351 . S
C2008 C2002 1.428 1_554 S
C2008 N2007 1.351 . S
C2008 C2009 1.434 . S
C2009 C2000 1.429 . S
C2009 N2006 1.350 . S
C2009 C2008 1.434 . S
C2010 C2011 1.369 . S
C2010 C2012 1.419 . S
C2010 H2014 0.930 . S
C2011 C2010 1.369 . S
C2011 C2020 1.429 . S
C2012 C2010 1.419 . S
C2012 C2013 1.363 . S
C2012 H2015 0.929 . S
C2013 C2012 1.363 . S
C2013 C2019 1.428 . S
H2014 C2010 0.930 . S
H2015 C2012 0.929 . S
S2016 N2017 1.613 . S
S2016 N2018 1.610 . S
N2017 S2016 1.613 . S
N2017 C2020 1.350 . S
N2018 S2016 1.610 . S
N2018 C2019 1.351 . S
C2019 C2013 1.428 . S
C2019 N2018 1.351 . S
C2019 C2020 1.434 . S
C2020 C2011 1.429 . S
C2020 N2017 1.350 . S
C2020 C2019 1.434 . S
C2021 C2022 1.369 . S
C2021 C2023 1.419 . S
C2021 H2025 0.930 . S
C2022 C2021 1.369 . S
C2022 C2031 1.429 . S
C2023 C2021 1.419 . S
C2023 C2024 1.363 . S
C2023 H2026 0.929 . S
C2024 C2023 1.363 . S
C2024 C2030 1.428 . S
H2025 C2021 0.930 . S
H2026 C2023 0.929 . S
S2027 N2028 1.613 . S
S2027 N2029 1.610 . S
N2028 S2027 1.613 . S
N2028 C2031 1.350 . S
N2029 S2027 1.610 . S
N2029 C2030 1.351 . S
C2030 C2024 1.428 . S
C2030 N2029 1.351 . S
C2030 C2031 1.434 . S
C2031 C2022 1.429 . S
C2031 N2028 1.350 . S
C2031 C2030 1.434 . S
C977 C109 2.327 . S
C979 C346 2.302 1_556 S
C988 C65 2.225 . S
C990 C394 2.244 . S
C999 C75 1.413 . S
C1001 C426 1.361 . S
C1012 C471 1.378 . S
C1010 C84 1.384 . S
C1021 C25 1.669 . S
C1023 C511 1.612 . S
C1034 C542 0.805 . S
C1032 C28 0.802 . S
C1045 C594 1.682 . S
C1043 C47 1.551 . S
C1054 C9 2.061 . S
C1056 C626 1.979 . S
C1067 C354 2.612 . S
C1065 C233 2.615 1_455 S
C1076 C249 0.904 . S
C1078 C391 0.869 . S
C1089 C434 1.291 . S
C1087 C275 1.289 . S
C1100 C466 1.485 . S
C1098 C173 1.517 . S
C1109 C224 2.074 1_455 S
C1111 C506 2.087 . S
C1122 C545 1.489 . S
C1120 C243 1.480 . S
C1133 C591 0.621 . S
C1131 C266 0.600 . S
C1144 C634 2.173 . S
C1142 C179 2.167 . S
C1155 C351 1.709 . S
C1153 C163 1.750 . S
C1164 C289 1.970 . S
C1166 C674 1.979 . S
C1177 C715 2.619 . S
C1175 C333 2.673 . S
C1188 C746 0.707 1_655 S
C1186 C308 0.707 . S
C1197 C123 1.909 . S
C1199 C631 1.851 . S
C1208 C126 1.665 . S
C1210 C431 1.654 . S
C1219 C327 2.268 . S
C1221 C794 2.267 . S
C1232 C826 0.816 . S
C1230 C299 0.863 . S
C1243 C355 2.312 . S
C1241 C67 2.348 . S
C1254 C825 2.257 . S
C1252 C98 2.172 . S
C1263 C89 1.437 . S
C1265 C435 1.392 . S
C1274 C79 1.448 . S
C1276 C782 1.411 . S
C1287 C502 1.595 . S
C1285 C11 1.687 . S
C1296 C51 0.808 . S
C1298 C711 0.791 . S
C1309 C585 1.715 1_556 S
C1307 C33 1.626 . S
C1320 C875 1.936 . S
C1318 C14 2.036 . S
C1331 C345 2.588 . S
C1329 C140 2.576 . S
C1342 C822 0.843 . S
C1340 C319 0.884 . S
C1351 C112 1.296 . S
C1353 C425 1.309 . S
C1362 C285 1.533 . S
C1364 C795 1.507 . S
C1373 C149 2.133 . S
C1375 C515 2.100 . S
C1386 C714 1.497 . S
C1384 C313 1.488 . S
C1395 C121 0.593 . S
C1397 C582 0.629 . S
C1406 C291 2.200 . S
C1408 C865 2.186 . S
C1417 C182 1.801 . S
C1419 C342 1.694 . S
C1428 C168 1.924 . S
C1430 C665 1.985 . S
C1439 C263 2.716 . S
C1441 C546 2.658 . S
C1450 C247 0.778 . S
C1452 C755 0.773 . S
C1463 C862 1.830 . S
C1461 C277 1.901 . S
C1472 C219 1.715 . S
C1474 C422 1.661 . S
C1485 C465 2.298 . S
C1483 C257 2.305 . S
C1496 C395 0.809 . S
C1494 C201 0.811 . S
C1505 C81 2.328 . S
C1507 C906 2.302 . S
C1518 C834 2.243 . S
C1516 C93 2.224 . S
C1527 C103 1.411 . S
C1529 C946 1.357 . S
C1538 C56 1.386 . S
C1540 C791 1.379 . S
C1549 C53 1.662 . S
C1551 C671 1.617 . S
C1562 C702 0.809 . S
C1560 C0 0.801 . S
C1573 C754 1.682 . S
C1571 C19 1.551 1_455 S
C1584 C866 1.978 . S
C1582 C37 2.057 . S
C1595 C914 2.612 . S
C1593 C261 2.616 . S
C1604 C193 0.897 . S
C1606 C831 0.867 . S
C1617 C954 1.292 . S
C1615 C205 1.285 . S
C1628 C786 1.486 . S
C1626 C215 1.518 . S
C1639 C666 2.090 . S
C1637 C252 2.070 . S
C1648 C187 1.475 . S
C1650 C705 1.486 . S
C1661 C751 0.626 . S
C1659 C196 0.590 . S
C1670 C221 2.167 . S
C1672 C874 2.175 . S
C1683 C911 1.704 . S
C1681 C317 1.753 . S
C1692 C135 1.969 . S
C1694 C514 1.979 . S
C1705 C555 2.620 . S
C1703 C151 2.676 . S
C1716 C586 0.706 . S
C1714 C154 0.705 . S
C1727 C871 1.856 . S
C1725 C305 1.907 . S
C1736 C280 1.659 . S
C1738 C951 1.657 . S
C1749 C474 2.265 . S
C1747 C145 2.270 . S
C1760 C386 0.825 . S
C1758 C117 0.859 . S
C1769 C95 2.351 . S
C1771 C915 2.309 . S
C1782 C385 2.258 . S
C1780 C70 2.179 . S
C1791 C61 1.435 . S
C1793 C955 1.387 . S
C1802 C107 1.447 . S
C1804 C462 1.413 . S
C1813 C39 1.679 . S
C1815 C662 1.603 . S
C1826 C551 0.800 . S
C1824 C23 0.807 . S
C1835 C5 1.626 . S
C1837 C745 1.736 . S
C1846 C42 2.033 . S
C1848 C635 1.938 . S
C1859 C905 2.589 . S
C1857 C322 2.578 . S
C1868 C165 0.868 . S
C1870 C382 0.850 . S
C1881 C945 1.307 . S
C1879 C294 1.295 . S
C1890 C131 1.532 . S
C1892 C475 1.508 . S
C1901 C331 2.134 . S
C1903 C675 2.099 . S
C1914 C554 1.499 . S
C1912 C159 1.497 . S
C1923 C303 0.596 . S
C1925 C742 0.617 . S
C1936 C625 2.187 . S
C1934 C137 2.198 . S
C1947 C902 1.695 . S
C1945 C238 1.801 . S
C1958 C505 1.985 1_665 S
C1956 C210 1.918 . S
C1967 C235 2.715 . S
C1969 C706 2.659 . S
C1980 C595 0.773 . S
C1978 C191 0.765 . S
C1989 C207 1.907 . S
C1991 C622 1.823 . S
C2000 C177 1.719 . S
C2002 C942 1.655 . S
C2013 C785 2.298 . S
C2011 C229 2.304 1_565 S
C2024 C835 0.810 . S
C2022 C271 0.809 . S
