# Generated by pormake.
# Topology ocu, (6,8)-cn, num edge types: 1
# Building blocks:
#     Node 0, Type 0, BuildingBlock: KUMBOL_clean_sbu_1, # of connection points: 6
#     Node 1, Type 0, BuildingBlock: KUMBOL_clean_sbu_1, # of connection points: 6
#     Node 2, Type 0, BuildingBlock: KUMBOL_clean_sbu_1, # of connection points: 6
#     Node 3, Type 0, BuildingBlock: KUMBOL_clean_sbu_1, # of connection points: 6
#     Node 4, Type 0, BuildingBlock: KUMBOL_clean_sbu_1, # of connection points: 6
#     Node 5, Type 0, BuildingBlock: KUMBOL_clean_sbu_1, # of connection points: 6
#     Node 6, Type 0, BuildingBlock: KUMBOL_clean_sbu_1, # of connection points: 6
#     Node 7, Type 0, BuildingBlock: KUMBOL_clean_sbu_1, # of connection points: 6
#     Node 8, Type 1, BuildingBlock: GIZVER_clean_sbu_0, # of connection points: 8
#     Node 9, Type 1, BuildingBlock: GIZVER_clean_sbu_0, # of connection points: 8
#     Node 10, Type 1, BuildingBlock: GIZVER_clean_sbu_0, # of connection points: 8
#     Node 11, Type 1, BuildingBlock: GIZVER_clean_sbu_0, # of connection points: 8
#     Node 12, Type 1, BuildingBlock: GIZVER_clean_sbu_0, # of connection points: 8
#     Node 13, Type 1, BuildingBlock: GIZVER_clean_sbu_0, # of connection points: 8
#     Edge 14, Type (0, 1), BuildingBlock: UVAHIK_clean_linker_0, # of connection points: 2
#     Edge 15, Type (0, 1), BuildingBlock: UVAHIK_clean_linker_0, # of connection points: 2
#     Edge 16, Type (0, 1), BuildingBlock: UVAHIK_clean_linker_0, # of connection points: 2
#     Edge 17, Type (0, 1), BuildingBlock: UVAHIK_clean_linker_0, # of connection points: 2
#     Edge 18, Type (0, 1), BuildingBlock: UVAHIK_clean_linker_0, # of connection points: 2
#     Edge 19, Type (0, 1), BuildingBlock: UVAHIK_clean_linker_0, # of connection points: 2
#     Edge 20, Type (0, 1), BuildingBlock: UVAHIK_clean_linker_0, # of connection points: 2
#     Edge 21, Type (0, 1), BuildingBlock: UVAHIK_clean_linker_0, # of connection points: 2
#     Edge 22, Type (0, 1), BuildingBlock: UVAHIK_clean_linker_0, # of connection points: 2
#     Edge 23, Type (0, 1), BuildingBlock: UVAHIK_clean_linker_0, # of connection points: 2
#     Edge 24, Type (0, 1), BuildingBlock: UVAHIK_clean_linker_0, # of connection points: 2
#     Edge 25, Type (0, 1), BuildingBlock: UVAHIK_clean_linker_0, # of connection points: 2
#     Edge 26, Type (0, 1), BuildingBlock: UVAHIK_clean_linker_0, # of connection points: 2
#     Edge 27, Type (0, 1), BuildingBlock: UVAHIK_clean_linker_0, # of connection points: 2
#     Edge 28, Type (0, 1), BuildingBlock: UVAHIK_clean_linker_0, # of connection points: 2
#     Edge 29, Type (0, 1), BuildingBlock: UVAHIK_clean_linker_0, # of connection points: 2
#     Edge 30, Type (0, 1), BuildingBlock: UVAHIK_clean_linker_0, # of connection points: 2
#     Edge 31, Type (0, 1), BuildingBlock: UVAHIK_clean_linker_0, # of connection points: 2
#     Edge 32, Type (0, 1), BuildingBlock: UVAHIK_clean_linker_0, # of connection points: 2
#     Edge 33, Type (0, 1), BuildingBlock: UVAHIK_clean_linker_0, # of connection points: 2
#     Edge 34, Type (0, 1), BuildingBlock: UVAHIK_clean_linker_0, # of connection points: 2
#     Edge 35, Type (0, 1), BuildingBlock: UVAHIK_clean_linker_0, # of connection points: 2
#     Edge 36, Type (0, 1), BuildingBlock: UVAHIK_clean_linker_0, # of connection points: 2
#     Edge 37, Type (0, 1), BuildingBlock: UVAHIK_clean_linker_0, # of connection points: 2
#     Edge 38, Type (0, 1), BuildingBlock: UVAHIK_clean_linker_0, # of connection points: 2
#     Edge 39, Type (0, 1), BuildingBlock: UVAHIK_clean_linker_0, # of connection points: 2
#     Edge 40, Type (0, 1), BuildingBlock: UVAHIK_clean_linker_0, # of connection points: 2
#     Edge 41, Type (0, 1), BuildingBlock: UVAHIK_clean_linker_0, # of connection points: 2
#     Edge 42, Type (0, 1), BuildingBlock: UVAHIK_clean_linker_0, # of connection points: 2
#     Edge 43, Type (0, 1), BuildingBlock: UVAHIK_clean_linker_0, # of connection points: 2
#     Edge 44, Type (0, 1), BuildingBlock: UVAHIK_clean_linker_0, # of connection points: 2
#     Edge 45, Type (0, 1), BuildingBlock: UVAHIK_clean_linker_0, # of connection points: 2
#     Edge 46, Type (0, 1), BuildingBlock: UVAHIK_clean_linker_0, # of connection points: 2
#     Edge 47, Type (0, 1), BuildingBlock: UVAHIK_clean_linker_0, # of connection points: 2
#     Edge 48, Type (0, 1), BuildingBlock: UVAHIK_clean_linker_0, # of connection points: 2
#     Edge 49, Type (0, 1), BuildingBlock: UVAHIK_clean_linker_0, # of connection points: 2
#     Edge 50, Type (0, 1), BuildingBlock: UVAHIK_clean_linker_0, # of connection points: 2
#     Edge 51, Type (0, 1), BuildingBlock: UVAHIK_clean_linker_0, # of connection points: 2
#     Edge 52, Type (0, 1), BuildingBlock: UVAHIK_clean_linker_0, # of connection points: 2
#     Edge 53, Type (0, 1), BuildingBlock: UVAHIK_clean_linker_0, # of connection points: 2
#     Edge 54, Type (0, 1), BuildingBlock: UVAHIK_clean_linker_0, # of connection points: 2
#     Edge 55, Type (0, 1), BuildingBlock: UVAHIK_clean_linker_0, # of connection points: 2
#     Edge 56, Type (0, 1), BuildingBlock: UVAHIK_clean_linker_0, # of connection points: 2
#     Edge 57, Type (0, 1), BuildingBlock: UVAHIK_clean_linker_0, # of connection points: 2
#     Edge 58, Type (0, 1), BuildingBlock: UVAHIK_clean_linker_0, # of connection points: 2
#     Edge 59, Type (0, 1), BuildingBlock: UVAHIK_clean_linker_0, # of connection points: 2
#     Edge 60, Type (0, 1), BuildingBlock: UVAHIK_clean_linker_0, # of connection points: 2
#     Edge 61, Type (0, 1), BuildingBlock: UVAHIK_clean_linker_0, # of connection points: 2
# Relax obj value: 0.149
# Max RMSD: 0.215
# Mean RMSD: 0.171
data_MOF--net-ocu--node1-KUMBOL_clean_sbu_1--node2-GIZVER_clean_sbu_0--edge1-UVAHIK_clean_linker_0
_symmetry_space_group_name_H-M    P1
_symmetry_Int_Tables_number       1
_symmetry_cell_setting            triclinic
loop_
_symmetry_equiv_pos_as_xyz
'x, y, z'
_cell_length_a     53.444617
_cell_length_b     55.869785
_cell_length_c     43.445545
_cell_angle_alpha  99.387282
_cell_angle_beta   80.890642
_cell_angle_gamma 107.68242
loop_
_atom_site_label
_atom_site_type_symbol
_atom_site_fract_x
_atom_site_fract_y
_atom_site_fract_z
_atom_type_partial_charge
C0 C 0.31557 0.32618 0.32264 0.0
C1 C 0.2805 0.32417 0.36602 0.0
C2 C 0.29186 0.31287 0.33813 0.0
C3 C 0.2931 0.34916 0.37788 0.0
C4 C 0.32838 0.3512 0.33462 0.0
C5 C 0.31696 0.36264 0.36222 0.0
N6 N 0.32616 0.31463 0.29598 0.0
C7 C 0.34982 0.32671 0.28064 0.0
C8 C 0.35237 0.36393 0.31856 0.0
C9 C 0.36319 0.35158 0.29153 0.0
Gd10 Gd 0.25547 0.25531 0.21014 0.0
Gd11 Gd 0.30188 0.27324 0.27928 0.0
N12 N 0.27976 0.28888 0.32563 0.0
C13 C 0.25682 0.30998 0.38117 0.0
C14 C 0.25733 0.2746 0.34102 0.0
C15 C 0.24534 0.28502 0.36876 0.0
H16 H 0.24868 0.2552 0.33207 0.0
H17 H 0.22732 0.27375 0.38065 0.0
H18 H 0.30737 0.28499 0.16083 0.0
H19 H 0.35865 0.31695 0.26035 0.0
H20 H 0.33543 0.27365 0.11376 0.0
H21 H 0.24745 0.318 0.40264 0.0
H22 H 0.28461 0.35821 0.39922 0.0
H23 H 0.2075 0.20218 0.22374 0.0
H24 H 0.36282 0.38318 0.32701 0.0
H25 H 0.38191 0.36114 0.27922 0.0
H26 H 0.29592 0.18487 0.08653 0.0
H27 H 0.32649 0.38187 0.37173 0.0
H28 H 0.21903 0.14325 0.1516 0.0
H29 H 0.19377 0.15758 0.20018 0.0
N30 N 0.24065 0.2127 0.18964 0.0
C31 C 0.25449 0.20542 0.16253 0.0
C32 C 0.21897 0.19599 0.20301 0.0
C33 C 0.22522 0.16281 0.16197 0.0
C34 C 0.21098 0.17079 0.18947 0.0
C35 C 0.24726 0.18017 0.14812 0.0
H36 H 0.25715 0.15361 0.10936 0.0
N37 N 0.2835 0.24727 0.16461 0.0
C38 C 0.27656 0.22314 0.14974 0.0
C39 C 0.31342 0.23421 0.1095 0.0
C40 C 0.29164 0.2159 0.12206 0.0
C41 C 0.30365 0.26547 0.15127 0.0
C42 C 0.31922 0.25916 0.12395 0.0
O43 O 0.27398 0.29769 0.2811 0.0
O44 O 0.23794 0.27382 0.25554 0.0
O45 O 0.2484 0.27858 0.17876 0.0
O46 O 0.21746 0.2457 0.19232 0.0
O47 O 0.26882 0.23644 0.27811 0.0
O48 O 0.23433 0.24074 0.25535 0.0
O49 O 0.28058 0.22941 0.21457 0.0
O50 O 0.31824 0.25713 0.23181 0.0
O51 O 0.30525 0.24298 0.30257 0.0
O52 O 0.33796 0.2769 0.29917 0.0
O53 O 0.2847 0.29449 0.21581 0.0
O54 O 0.32004 0.2877 0.23322 0.0
C55 C 0.24923 0.29297 0.27563 0.0
C56 C 0.24354 0.23044 0.27461 0.0
C57 C 0.20473 0.28101 0.18462 0.0
C58 C 0.18386 0.30909 0.16758 0.0
C59 C 0.17513 0.3001 0.22176 0.0
C60 C 0.19164 0.28434 0.21496 0.0
C61 C 0.17138 0.31257 0.19829 0.0
C62 C 0.20052 0.29318 0.16081 0.0
C63 C 0.22361 0.26583 0.17809 0.0
C64 C 0.28448 0.19075 0.10772 0.0
C65 C 0.26236 0.17295 0.12069 0.0
H66 H 0.32549 0.22941 0.08828 0.0
C67 C 0.30619 0.23549 0.21633 0.0
C68 C 0.30995 0.30134 0.21958 0.0
C69 C 0.33262 0.25526 0.34329 0.0
C70 C 0.3494 0.23828 0.38149 0.0
C71 C 0.32434 0.26871 0.39903 0.0
C72 C 0.32162 0.26987 0.36794 0.0
C73 C 0.33799 0.25289 0.40584 0.0
C74 C 0.34679 0.23967 0.35013 0.0
C75 C 0.32868 0.25535 0.31053 0.0
H76 H 0.16527 0.30269 0.2453 0.0
H77 H 0.19429 0.27478 0.23337 0.0
H78 H 0.15846 0.32471 0.20401 0.0
H79 H 0.21059 0.29073 0.13731 0.0
H80 H 0.31569 0.27999 0.41791 0.0
H81 H 0.31079 0.28203 0.36329 0.0
H82 H 0.3398 0.25218 0.43014 0.0
H83 H 0.35519 0.22819 0.33119 0.0
C84 C 0.84972 0.26031 0.17991 0.0
C85 C 0.88489 0.2983 0.19326 0.0
C86 C 0.86137 0.27971 0.20216 0.0
C87 C 0.89617 0.29739 0.16178 0.0
C88 C 0.86112 0.25924 0.14832 0.0
C89 C 0.88434 0.27791 0.13939 0.0
N90 N 0.82685 0.24286 0.18901 0.0
C91 C 0.81476 0.22348 0.16801 0.0
C92 C 0.84867 0.23956 0.12657 0.0
C93 C 0.82546 0.22156 0.13649 0.0
Gd94 Gd 0.75151 0.28083 0.26469 0.0
Gd95 Gd 0.81013 0.24818 0.24206 0.0
N96 N 0.84965 0.28049 0.23238 0.0
C97 C 0.89648 0.31719 0.21634 0.0
C98 C 0.86205 0.29766 0.25525 0.0
C99 C 0.88524 0.31659 0.24756 0.0
H100 H 0.85477 0.29642 0.27953 0.0
H101 H 0.89467 0.33045 0.26581 0.0
H102 H 0.70747 0.22673 0.23868 0.0
H103 H 0.79705 0.20927 0.17558 0.0
H104 H 0.66699 0.19621 0.25938 0.0
H105 H 0.91449 0.33185 0.21045 0.0
H106 H 0.91412 0.31162 0.15453 0.0
H107 H 0.76594 0.32904 0.32205 0.0
H108 H 0.85683 0.23808 0.10209 0.0
H109 H 0.81581 0.20617 0.11989 0.0
H110 H 0.64932 0.23237 0.36562 0.0
H111 H 0.89331 0.27747 0.1152 0.0
H112 H 0.70874 0.31166 0.40205 0.0
H113 H 0.74911 0.34032 0.37708 0.0
N114 N 0.7364 0.29382 0.31654 0.0
C115 C 0.71385 0.2781 0.32953 0.0
C116 C 0.74885 0.31607 0.33305 0.0
C117 C 0.71628 0.30647 0.37804 0.0
C118 C 0.73912 0.32266 0.36406 0.0
C119 C 0.70323 0.28395 0.36072 0.0
H120 H 0.67157 0.27141 0.39752 0.0
N121 N 0.71236 0.25072 0.28175 0.0
C122 C 0.70131 0.25605 0.31154 0.0
C123 C 0.66559 0.21742 0.30537 0.0
C124 C 0.67778 0.23938 0.32427 0.0
C125 C 0.69984 0.23001 0.26281 0.0
C126 C 0.67656 0.21285 0.27441 0.0
O127 O 0.80565 0.27491 0.21034 0.0
O128 O 0.79093 0.30471 0.24446 0.0
O129 O 0.72809 0.28445 0.23024 0.0
O130 O 0.73623 0.31325 0.27028 0.0
O131 O 0.80786 0.2722 0.28967 0.0
O132 O 0.79008 0.30341 0.28244 0.0
O133 O 0.75387 0.25304 0.29608 0.0
O134 O 0.7712 0.22406 0.263 0.0
O135 O 0.83151 0.23836 0.27448 0.0
O136 O 0.82664 0.21655 0.22876 0.0
O137 O 0.75306 0.25564 0.21799 0.0
O138 O 0.7718 0.22471 0.22393 0.0
C139 C 0.80511 0.29839 0.21869 0.0
C140 C 0.80441 0.29491 0.2976 0.0
C141 C 0.73412 0.32632 0.22217 0.0
C142 C 0.72106 0.34757 0.18542 0.0
C143 C 0.76675 0.35999 0.19668 0.0
C144 C 0.76015 0.34196 0.2176 0.0
C145 C 0.74733 0.3629 0.18072 0.0
C146 C 0.71481 0.32896 0.20582 0.0
C147 C 0.72674 0.3068 0.24336 0.0
C148 C 0.66727 0.24504 0.3554 0.0
C149 C 0.67997 0.26726 0.37357 0.0
H150 H 0.64759 0.20406 0.31433 0.0
C151 C 0.756 0.22999 0.28806 0.0
C152 C 0.75587 0.2327 0.21054 0.0
C153 C 0.82464 0.19437 0.27123 0.0
C154 C 0.83163 0.16785 0.30681 0.0
C155 C 0.79345 0.15315 0.27723 0.0
C156 C 0.8014 0.17564 0.26374 0.0
C157 C 0.80855 0.14908 0.29822 0.0
C158 C 0.8393 0.19065 0.2932 0.0
C159 C 0.83374 0.2179 0.25642 0.0
H160 H 0.78685 0.37202 0.19323 0.0
H161 H 0.77527 0.34035 0.23029 0.0
H162 H 0.75273 0.37765 0.16549 0.0
H163 H 0.69483 0.31657 0.20923 0.0
H164 H 0.7757 0.13865 0.27105 0.0
H165 H 0.7895 0.17828 0.24727 0.0
H166 H 0.80225 0.13095 0.30717 0.0
H167 H 0.85659 0.20571 0.29961 0.0
C168 C 0.83842 0.78735 0.16698 0.0
C169 C 0.82381 0.75607 0.12285 0.0
C170 C 0.81811 0.76943 0.1523 0.0
C171 C 0.85006 0.76077 0.10862 0.0
C172 C 0.86474 0.79233 0.15256 0.0
C173 C 0.87044 0.77889 0.12338 0.0
N174 N 0.83251 0.79926 0.19591 0.0
C175 C 0.85162 0.81753 0.21073 0.0
C176 C 0.88459 0.81047 0.16812 0.0
C177 C 0.87796 0.82326 0.19721 0.0
Gd178 Gd 0.77213 0.7441 0.28501 0.0
Gd179 Gd 0.78777 0.7889 0.21611 0.0
N180 N 0.79287 0.76504 0.16683 0.0
C181 C 0.80293 0.7385 0.10844 0.0
C182 C 0.77235 0.74905 0.15196 0.0
C183 C 0.77706 0.73521 0.12289 0.0
H184 H 0.75227 0.74741 0.16183 0.0
H185 H 0.76068 0.72229 0.11144 0.0
H186 H 0.79609 0.78573 0.34443 0.0
H187 H 0.84662 0.82799 0.23278 0.0
H188 H 0.78002 0.80329 0.39739 0.0
H189 H 0.80649 0.72782 0.08585 0.0
H190 H 0.85479 0.75058 0.08607 0.0
H191 H 0.72366 0.69113 0.26521 0.0
H192 H 0.90505 0.81486 0.1578 0.0
H193 H 0.8931 0.83762 0.20917 0.0
H194 H 0.68737 0.75889 0.40996 0.0
H195 H 0.89057 0.78234 0.11204 0.0
H196 H 0.65496 0.69069 0.33081 0.0
H197 H 0.67671 0.67168 0.28261 0.0
N198 N 0.72774 0.72271 0.30076 0.0
C199 C 0.71661 0.73257 0.3283 0.0
C200 C 0.71407 0.70047 0.28519 0.0
C201 C 0.67537 0.69981 0.32266 0.0
C202 C 0.68756 0.68905 0.29542 0.0
C203 C 0.69009 0.72144 0.33996 0.0
H204 H 0.65911 0.72341 0.37826 0.0
N205 N 0.75806 0.76224 0.3347 0.0
C206 C 0.73238 0.75266 0.3461 0.0
C207 C 0.7396 0.78078 0.39445 0.0
C208 C 0.72229 0.76201 0.37609 0.0
C209 C 0.77539 0.77944 0.35313 0.0
C210 C 0.76636 0.78926 0.38309 0.0
O211 O 0.81374 0.76317 0.21795 0.0
O212 O 0.78494 0.7275 0.2361 0.0
O213 O 0.80576 0.74102 0.30462 0.0
O214 O 0.76963 0.71046 0.30595 0.0
O215 O 0.74746 0.75989 0.21857 0.0
O216 O 0.75232 0.72663 0.24052 0.0
O217 O 0.75974 0.78071 0.29627 0.0
O218 O 0.74975 0.78615 0.24899 0.0
O219 O 0.77547 0.80428 0.17993 0.0
O220 O 0.79611 0.82945 0.21695 0.0
O221 O 0.81123 0.77407 0.27811 0.0
O222 O 0.80339 0.808 0.26222 0.0
C223 C 0.80605 0.73838 0.21784 0.0
C224 C 0.74015 0.73584 0.22308 0.0
C225 C 0.80999 0.7002 0.30189 0.0
C226 C 0.84312 0.68165 0.31271 0.0
C227 C 0.82676 0.67157 0.26162 0.0
C228 C 0.81008 0.68701 0.27156 0.0
C229 C 0.84334 0.66902 0.28195 0.0
C230 C 0.82632 0.69727 0.32256 0.0
C231 C 0.79421 0.71819 0.31158 0.0
C232 C 0.69558 0.75178 0.38713 0.0
C233 C 0.67949 0.73159 0.36905 0.0
H234 H 0.73264 0.78839 0.41767 0.0
C235 C 0.74743 0.79049 0.27981 0.0
C236 C 0.81501 0.79857 0.2799 0.0
C237 C 0.76255 0.84157 0.19873 0.0
C238 C 0.72856 0.85451 0.17918 0.0
C239 C 0.7387 0.86829 0.23308 0.0
C240 C 0.75769 0.85522 0.22814 0.0
C241 C 0.72426 0.86798 0.20892 0.0
C242 C 0.74799 0.84144 0.17421 0.0
C243 C 0.78258 0.82741 0.19368 0.0
H244 H 0.82684 0.66154 0.2381 0.0
H245 H 0.79733 0.6888 0.25562 0.0
H246 H 0.85597 0.65678 0.27386 0.0
H247 H 0.82632 0.70748 0.34603 0.0
H248 H 0.73515 0.87874 0.25581 0.0
H249 H 0.76841 0.85572 0.24752 0.0
H250 H 0.70997 0.8787 0.21345 0.0
H251 H 0.75155 0.83091 0.1515 0.0
C252 C 0.29799 0.72712 0.31048 0.0
C253 C 0.27347 0.68297 0.29946 0.0
C254 C 0.28414 0.70747 0.29042 0.0
C255 C 0.27597 0.6788 0.32971 0.0
C256 C 0.30188 0.72272 0.34018 0.0
C257 C 0.29015 0.69865 0.35004 0.0
N258 N 0.30929 0.75004 0.29998 0.0
C259 C 0.32731 0.76831 0.31645 0.0
C260 C 0.3183 0.74234 0.35851 0.0
C261 C 0.33154 0.76506 0.34627 0.0
Gd262 Gd 0.24225 0.79108 0.26503 0.0
Gd263 Gd 0.29809 0.7544 0.25114 0.0
N264 N 0.28187 0.71222 0.26151 0.0
C265 C 0.26115 0.66333 0.27754 0.0
C266 C 0.27115 0.69302 0.23945 0.0
C267 C 0.26038 0.66831 0.24723 0.0
H268 H 0.27036 0.69695 0.21614 0.0
H269 H 0.25135 0.65318 0.22995 0.0
H270 H 0.25636 0.83729 0.32635 0.0
H271 H 0.33884 0.7853 0.30652 0.0
H272 H 0.27683 0.88336 0.3342 0.0
H273 H 0.25269 0.64422 0.28356 0.0
H274 H 0.26761 0.66017 0.33729 0.0
H275 H 0.21994 0.77797 0.19477 0.0
H276 H 0.32181 0.73975 0.38147 0.0
H277 H 0.34532 0.77992 0.35955 0.0
H278 H 0.28474 0.90905 0.2321 0.0
H279 H 0.29263 0.69499 0.37295 0.0
H280 H 0.2455 0.84613 0.15097 0.0
H281 H 0.22259 0.80027 0.14904 0.0
N282 N 0.2416 0.81084 0.22169 0.0
C283 C 0.2529 0.83625 0.22397 0.0
C284 C 0.22986 0.798 0.19575 0.0
C285 C 0.24431 0.83647 0.17107 0.0
C286 C 0.23135 0.81057 0.16989 0.0
C287 C 0.25496 0.84972 0.19849 0.0
H288 H 0.2693 0.88658 0.18192 0.0
N289 N 0.25803 0.83536 0.27678 0.0
C290 C 0.26174 0.84882 0.25221 0.0
C291 C 0.27904 0.88773 0.28539 0.0
C292 C 0.27268 0.87534 0.25574 0.0
C293 C 0.26197 0.8476 0.30625 0.0
C294 C 0.27311 0.87384 0.31089 0.0
O295 O 0.25607 0.73563 0.26967 0.0
O296 O 0.24572 0.76831 0.30178 0.0
O297 O 0.20984 0.80692 0.28383 0.0
O298 O 0.20185 0.76661 0.27034 0.0
O299 O 0.2715 0.74382 0.21194 0.0
O300 O 0.23284 0.75442 0.23324 0.0
O301 O 0.27237 0.79413 0.22131 0.0
O302 O 0.3093 0.79471 0.24123 0.0
O303 O 0.31693 0.74678 0.20409 0.0
O304 O 0.3372 0.74873 0.24502 0.0
O305 O 0.26797 0.79897 0.30469 0.0
O306 O 0.30738 0.79362 0.27862 0.0
C307 C 0.24254 0.74397 0.29467 0.0
C308 C 0.24603 0.74139 0.2125 0.0
C309 C 0.18105 0.78009 0.3187 0.0
C310 C 0.18359 0.79089 0.37512 0.0
C311 C 0.14552 0.75867 0.35537 0.0
C312 C 0.15636 0.76249 0.32446 0.0
C313 C 0.15876 0.77306 0.38061 0.0
C314 C 0.19509 0.79299 0.34399 0.0
C315 C 0.19308 0.78469 0.28657 0.0
C316 C 0.27603 0.88872 0.22994 0.0
C317 C 0.26718 0.87593 0.20138 0.0
H318 H 0.28748 0.90808 0.28909 0.0
C319 C 0.29785 0.80335 0.2228 0.0
C320 C 0.29389 0.80405 0.30223 0.0
C321 C 0.36093 0.74139 0.19362 0.0
C322 C 0.38044 0.73077 0.14078 0.0
C323 C 0.40816 0.74679 0.18307 0.0
C324 C 0.38596 0.74839 0.20419 0.0
C325 C 0.40549 0.73821 0.15139 0.0
C326 C 0.35823 0.73223 0.16196 0.0
C327 C 0.3382 0.74615 0.21459 0.0
H328 H 0.12637 0.74513 0.35982 0.0
H329 H 0.14555 0.75179 0.30517 0.0
H330 H 0.149 0.77096 0.40423 0.0
H331 H 0.21482 0.80548 0.33936 0.0
H332 H 0.42747 0.75237 0.19121 0.0
H333 H 0.38849 0.75574 0.22851 0.0
H334 H 0.42284 0.73688 0.1353 0.0
H335 H 0.33896 0.72665 0.15358 0.0
C336 C 0.35331 0.74034 0.67868 0.0
C337 C 0.3939 0.77348 0.68809 0.0
C338 C 0.36801 0.75963 0.69853 0.0
C339 C 0.40428 0.76858 0.65671 0.0
C340 C 0.36429 0.73435 0.6477 0.0
C341 C 0.38949 0.74906 0.63654 0.0
N342 N 0.32924 0.72614 0.69048 0.0
C343 C 0.31667 0.70402 0.67365 0.0
C344 C 0.35014 0.71306 0.62935 0.0
C345 C 0.3265 0.69754 0.64263 0.0
Gd346 Gd 0.2595 0.778 0.74225 0.0
Gd347 Gd 0.31366 0.74044 0.74206 0.0
N348 N 0.35738 0.76402 0.72866 0.0
C349 C 0.40885 0.79123 0.7098 0.0
C350 C 0.37237 0.77994 0.75046 0.0
C351 C 0.39822 0.7941 0.74127 0.0
H352 H 0.36402 0.78211 0.77471 0.0
H353 H 0.40985 0.80726 0.75839 0.0
H354 H 0.21999 0.74167 0.68895 0.0
H355 H 0.29919 0.69107 0.68408 0.0
H356 H 0.17617 0.71031 0.68818 0.0
H357 H 0.42885 0.80223 0.70271 0.0
H358 H 0.42403 0.77922 0.64809 0.0
H359 H 0.26187 0.80847 0.81496 0.0
H360 H 0.35788 0.70781 0.60545 0.0
H361 H 0.31605 0.68033 0.62916 0.0
H362 H 0.13793 0.71606 0.79582 0.0
H363 H 0.3981 0.74492 0.6127 0.0
H364 H 0.18829 0.77796 0.86986 0.0
H365 H 0.23325 0.80791 0.8656 0.0
N366 N 0.23362 0.77872 0.79118 0.0
C367 C 0.20863 0.76287 0.79268 0.0
C368 C 0.24239 0.79517 0.8167 0.0
C369 C 0.20076 0.77813 0.84761 0.0
C370 C 0.22617 0.795 0.84533 0.0
C371 C 0.19164 0.76184 0.82107 0.0
H372 H 0.15297 0.74337 0.84374 0.0
N373 N 0.21701 0.74949 0.73859 0.0
C374 C 0.20028 0.74742 0.76571 0.0
C375 C 0.16615 0.71646 0.73829 0.0
C376 C 0.17451 0.73063 0.76638 0.0
C377 C 0.20808 0.73743 0.71083 0.0
C378 C 0.18287 0.72024 0.71028 0.0
O379 O 0.3273 0.77965 0.72785 0.0
O380 O 0.29306 0.77999 0.70296 0.0
O381 O 0.23849 0.79282 0.71487 0.0
O382 O 0.26225 0.81826 0.74914 0.0
O383 O 0.30699 0.7683 0.78472 0.0
O384 O 0.29474 0.80017 0.76826 0.0
O385 O 0.25653 0.75292 0.77993 0.0
O386 O 0.27081 0.71979 0.7536 0.0
O387 O 0.32027 0.73195 0.7866 0.0
O388 O 0.33222 0.71118 0.74313 0.0
O389 O 0.2664 0.75162 0.69798 0.0
O390 O 0.27827 0.72023 0.71563 0.0
C391 C 0.31801 0.78855 0.70751 0.0
C392 C 0.30743 0.79225 0.7865 0.0
C393 C 0.22422 0.82774 0.73807 0.0
C394 C 0.19348 0.8462 0.72127 0.0
C395 C 0.18864 0.83738 0.77525 0.0
C396 C 0.21062 0.82804 0.76845 0.0
C397 C 0.17997 0.84627 0.75178 0.0
C398 C 0.21572 0.83702 0.7147 0.0
C399 C 0.24564 0.8157 0.72905 0.0
C400 C 0.15772 0.729 0.79481 0.0
C401 C 0.16624 0.74462 0.82207 0.0
H402 H 0.14652 0.70333 0.7378 0.0
C403 C 0.25433 0.7286 0.77466 0.0
C404 C 0.26727 0.72806 0.69559 0.0
C405 C 0.31907 0.68969 0.78753 0.0
C406 C 0.32749 0.65874 0.81498 0.0
C407 C 0.28533 0.65009 0.79437 0.0
C408 C 0.29387 0.67348 0.78278 0.0
C409 C 0.3021 0.64256 0.81003 0.0
C410 C 0.33535 0.68265 0.80429 0.0
C411 C 0.32969 0.71335 0.7736 0.0
H412 H 0.17815 0.83752 0.79869 0.0
H413 H 0.21669 0.82078 0.78674 0.0
H414 H 0.16288 0.85343 0.75755 0.0
H415 H 0.22596 0.83634 0.69106 0.0
H416 H 0.26593 0.63748 0.79052 0.0
H417 H 0.28107 0.67872 0.76975 0.0
H418 H 0.29537 0.62384 0.81744 0.0
H419 H 0.35445 0.69583 0.80841 0.0
C420 C 0.34488 0.29613 0.6718 0.0
C421 C 0.3401 0.26136 0.62944 0.0
C422 C 0.32987 0.27318 0.65773 0.0
C423 C 0.36582 0.27261 0.61587 0.0
C424 C 0.37059 0.30762 0.658 0.0
C425 C 0.38103 0.29565 0.63013 0.0
N426 N 0.3342 0.3074 0.69865 0.0
C427 C 0.34785 0.33041 0.71245 0.0
C428 C 0.38496 0.33093 0.67249 0.0
C429 C 0.37348 0.34242 0.69974 0.0
Gd430 Gd 0.27417 0.24221 0.7875 0.0
Gd431 Gd 0.29135 0.28535 0.71804 0.0
N432 N 0.30519 0.26244 0.67174 0.0
C433 C 0.3241 0.23865 0.61556 0.0
C434 C 0.28907 0.24101 0.65755 0.0
C435 C 0.29838 0.22857 0.62953 0.0
H436 H 0.26905 0.23353 0.66771 0.0
H437 H 0.28566 0.21132 0.6186 0.0
H438 H 0.29629 0.29373 0.83814 0.0
H439 H 0.33881 0.33978 0.73294 0.0
H440 H 0.27966 0.31551 0.88763 0.0
H441 H 0.33125 0.22896 0.59384 0.0
H442 H 0.37408 0.26374 0.59423 0.0
H443 H 0.22646 0.18801 0.77167 0.0
H444 H 0.40478 0.34035 0.66262 0.0
H445 H 0.38429 0.36063 0.71081 0.0
H446 H 0.19109 0.2631 0.91122 0.0
H447 H 0.40078 0.30417 0.61925 0.0
H448 H 0.16028 0.18725 0.84165 0.0
H449 H 0.18087 0.16722 0.79334 0.0
N450 N 0.23102 0.22028 0.80615 0.0
C451 C 0.2203 0.23139 0.8331 0.0
C452 C 0.21738 0.19736 0.79212 0.0
C453 C 0.18014 0.1967 0.83193 0.0
C454 C 0.19167 0.18535 0.80461 0.0
C455 C 0.19454 0.21986 0.84672 0.0
H456 H 0.16431 0.22303 0.88554 0.0
N457 N 0.2601 0.26494 0.83376 0.0
C458 C 0.23535 0.25416 0.84756 0.0
C459 C 0.24117 0.28824 0.89028 0.0
C460 C 0.22512 0.26572 0.87605 0.0
C461 C 0.27625 0.2862 0.84825 0.0
C462 C 0.26692 0.2984 0.87645 0.0
O463 O 0.31534 0.25706 0.71586 0.0
O464 O 0.28901 0.22321 0.74104 0.0
O465 O 0.30627 0.2407 0.81142 0.0
O466 O 0.27092 0.20904 0.80981 0.0
O467 O 0.25102 0.25681 0.72603 0.0
O468 O 0.25624 0.22224 0.74322 0.0
O469 O 0.25065 0.27122 0.79004 0.0
O470 O 0.27758 0.30464 0.76456 0.0
O471 O 0.25853 0.28693 0.69556 0.0
O472 O 0.2943 0.31823 0.69534 0.0
O473 O 0.3146 0.27046 0.77955 0.0
O474 O 0.30985 0.30519 0.76212 0.0
C475 C 0.3096 0.23331 0.72145 0.0
C476 C 0.24493 0.23221 0.72588 0.0
C477 C 0.29471 0.21643 0.8538 0.0
C478 C 0.31632 0.20556 0.89298 0.0
C479 C 0.27829 0.22186 0.90909 0.0
C480 C 0.27651 0.22342 0.87783 0.0
C481 C 0.29806 0.21305 0.9167 0.0
C482 C 0.31456 0.20748 0.86147 0.0
C483 C 0.29367 0.21874 0.82074 0.0
C484 C 0.19935 0.25442 0.88943 0.0
C485 C 0.18409 0.23159 0.87479 0.0
H486 H 0.23402 0.29773 0.91216 0.0
C487 C 0.25679 0.29497 0.78407 0.0
C488 C 0.32091 0.29506 0.77961 0.0
C489 C 0.26911 0.31034 0.65255 0.0
C490 C 0.24625 0.32067 0.61429 0.0
C491 C 0.28329 0.30313 0.59681 0.0
C492 C 0.28621 0.3023 0.62794 0.0
C493 C 0.26342 0.31219 0.58995 0.0
C494 C 0.24921 0.31957 0.64564 0.0
C495 C 0.27111 0.30862 0.68547 0.0
H496 H 0.26413 0.22729 0.92748 0.0
H497 H 0.26088 0.22994 0.87253 0.0
H498 H 0.29862 0.21147 0.94109 0.0
H499 H 0.32868 0.2021 0.84291 0.0
H500 H 0.29658 0.29687 0.57794 0.0
H501 H 0.30181 0.29542 0.63266 0.0
H502 H 0.26187 0.3131 0.56564 0.0
H503 H 0.23589 0.32569 0.66467 0.0
C504 C 0.79472 0.20531 0.81489 0.0
C505 C 0.76242 0.16464 0.80395 0.0
C506 C 0.77899 0.18769 0.7941 0.0
C507 C 0.76165 0.15972 0.83483 0.0
C508 C 0.794 0.20041 0.8459 0.0
C509 C 0.77741 0.17754 0.85572 0.0
N510 N 0.81011 0.22759 0.80507 0.0
C511 C 0.82595 0.24538 0.82452 0.0
C512 C 0.80979 0.2188 0.86623 0.0
C513 C 0.82589 0.24134 0.85545 0.0
Gd514 Gd 0.76744 0.27771 0.74016 0.0
Gd515 Gd 0.80955 0.23215 0.75268 0.0
N516 N 0.77983 0.19309 0.76441 0.0
C517 C 0.74718 0.14711 0.78241 0.0
C518 C 0.76656 0.17519 0.74276 0.0
C519 C 0.74955 0.15227 0.75156 0.0
H520 H 0.76971 0.1779 0.7184 0.0
H521 H 0.73872 0.13837 0.73436 0.0
H522 H 0.81669 0.3305 0.75846 0.0
H523 H 0.83885 0.26256 0.8161 0.0
H524 H 0.84458 0.36772 0.73384 0.0
H525 H 0.73409 0.12927 0.78912 0.0
H526 H 0.74891 0.14218 0.84279 0.0
H527 H 0.72421 0.24538 0.68963 0.0
H528 H 0.80976 0.21575 0.89024 0.0
H529 H 0.83836 0.25554 0.87091 0.0
H530 H 0.81169 0.35825 0.63472 0.0
H531 H 0.77651 0.17349 0.87949 0.0
H532 H 0.74037 0.28482 0.60891 0.0
H533 H 0.71448 0.24827 0.6369 0.0
N534 N 0.75609 0.27913 0.69073 0.0
C535 C 0.77019 0.29964 0.67609 0.0
C536 C 0.7361 0.26097 0.67723 0.0
C537 C 0.74491 0.28347 0.63189 0.0
C538 C 0.73031 0.26276 0.64756 0.0
C539 C 0.76505 0.30231 0.64617 0.0
H540 H 0.77652 0.32588 0.60842 0.0
N541 N 0.79521 0.31429 0.71932 0.0
C542 C 0.79014 0.31787 0.69093 0.0
C543 C 0.82527 0.35719 0.69173 0.0
C544 C 0.80525 0.33929 0.67623 0.0
C545 C 0.81391 0.33227 0.73511 0.0
C546 C 0.82948 0.35374 0.72139 0.0
O547 O 0.7789 0.24142 0.79172 0.0
O548 O 0.74633 0.24339 0.76505 0.0
O549 O 0.7559 0.30579 0.77512 0.0
O550 O 0.72914 0.28404 0.74143 0.0
O551 O 0.78785 0.22221 0.7091 0.0
O552 O 0.75099 0.23594 0.72653 0.0
O553 O 0.79948 0.27264 0.70069 0.0
O554 O 0.83124 0.26434 0.72405 0.0
O555 O 0.82611 0.20296 0.7268 0.0
O556 O 0.84923 0.23213 0.75861 0.0
O557 O 0.79263 0.2899 0.78079 0.0
O558 O 0.8281 0.27353 0.76505 0.0
C559 C 0.75374 0.23633 0.78868 0.0
C560 C 0.76322 0.22136 0.70712 0.0
C561 C 0.71012 0.29428 0.79311 0.0
C562 C 0.69431 0.29945 0.84919 0.0
C563 C 0.66326 0.27946 0.81061 0.0
C564 C 0.68399 0.28294 0.78636 0.0
C565 C 0.66823 0.28795 0.84169 0.0
C566 C 0.71514 0.30173 0.82458 0.0
C567 C 0.73193 0.29947 0.76737 0.0
C568 C 0.80016 0.342 0.64643 0.0
C569 C 0.78015 0.32355 0.63144 0.0
H570 H 0.83745 0.37379 0.68113 0.0
C571 C 0.82425 0.27432 0.70254 0.0
C572 C 0.81721 0.29022 0.78199 0.0
C573 C 0.87104 0.22016 0.71005 0.0
C574 C 0.8849 0.22578 0.6547 0.0
C575 C 0.91691 0.22605 0.6893 0.0
C576 C 0.89691 0.22183 0.71436 0.0
C577 C 0.91095 0.22748 0.65957 0.0
C578 C 0.86554 0.22374 0.68084 0.0
C579 C 0.8495 0.21415 0.7356 0.0
H580 H 0.64313 0.27089 0.80521 0.0
H581 H 0.67954 0.27703 0.76234 0.0
H582 H 0.6514 0.28632 0.8595 0.0
H583 H 0.73536 0.30987 0.82977 0.0
H584 H 0.93689 0.2271 0.69257 0.0
H585 H 0.90155 0.2196 0.73693 0.0
H586 H 0.92664 0.22859 0.64034 0.0
H587 H 0.84571 0.22369 0.67829 0.0
C588 C 0.80851 0.82091 0.83284 0.0
C589 C 0.77214 0.81118 0.87437 0.0
C590 C 0.78665 0.80351 0.84649 0.0
C591 C 0.7796 0.83652 0.88803 0.0
C592 C 0.8162 0.84629 0.84668 0.0
C593 C 0.80157 0.85401 0.87424 0.0
N594 N 0.82206 0.81302 0.80586 0.0
C595 C 0.84391 0.82925 0.79206 0.0
C596 C 0.83836 0.86318 0.83232 0.0
C597 C 0.85234 0.85458 0.80497 0.0
Gd598 Gd 0.75813 0.75279 0.71836 0.0
Gd599 Gd 0.80615 0.7704 0.78586 0.0
N600 N 0.77951 0.77917 0.83233 0.0
C601 C 0.75063 0.79311 0.88782 0.0
C602 C 0.7596 0.76123 0.84641 0.0
C603 C 0.74457 0.76796 0.874 0.0
H604 H 0.75562 0.74162 0.83706 0.0
H605 H 0.72853 0.75369 0.88481 0.0
H606 H 0.80942 0.77461 0.66428 0.0
H607 H 0.85514 0.82257 0.77141 0.0
H608 H 0.83047 0.75855 0.61396 0.0
H609 H 0.73897 0.79825 0.90923 0.0
H610 H 0.76859 0.84276 0.90936 0.0
H611 H 0.70422 0.70578 0.73792 0.0
H612 H 0.84492 0.88283 0.84225 0.0
H613 H 0.86967 0.86742 0.79392 0.0
H614 H 0.7767 0.67295 0.59306 0.0
H615 H 0.80712 0.87346 0.88514 0.0
H616 H 0.70204 0.64208 0.6677 0.0
H617 H 0.68307 0.66142 0.71773 0.0
N618 N 0.73573 0.71092 0.70085 0.0
C619 C 0.74611 0.70092 0.67287 0.0
C620 C 0.71317 0.69724 0.71669 0.0
C621 C 0.71162 0.66143 0.67671 0.0
C622 C 0.70091 0.67224 0.70502 0.0
C623 C 0.73437 0.67582 0.66012 0.0
H624 H 0.73689 0.64663 0.62122 0.0
N625 N 0.78003 0.73974 0.67027 0.0
C626 C 0.76865 0.71583 0.65692 0.0
C627 C 0.80256 0.72143 0.61258 0.0
C628 C 0.77988 0.70592 0.62792 0.0
C629 C 0.80147 0.75525 0.65479 0.0
C630 C 0.81325 0.74626 0.62596 0.0
O631 O 0.78045 0.79604 0.78272 0.0
O632 O 0.74243 0.7683 0.76655 0.0
O633 O 0.75134 0.78268 0.69709 0.0
O634 O 0.72199 0.74632 0.69757 0.0
O635 O 0.77659 0.73141 0.78087 0.0
O636 O 0.74057 0.73768 0.76431 0.0
O637 O 0.78636 0.7284 0.71502 0.0
O638 O 0.82278 0.75267 0.73956 0.0
O639 O 0.814 0.74522 0.81399 0.0
O640 O 0.84475 0.7788 0.80195 0.0
O641 O 0.79095 0.78992 0.71889 0.0
O642 O 0.82591 0.78511 0.74031 0.0
C643 C 0.75469 0.78975 0.78221 0.0
C644 C 0.75115 0.72457 0.77819 0.0
C645 C 0.70646 0.78197 0.70206 0.0
C646 C 0.67982 0.80804 0.69226 0.0
C647 C 0.67238 0.79109 0.7422 0.0
C648 C 0.69231 0.77934 0.73198 0.0
C649 C 0.66613 0.80533 0.72255 0.0
C650 C 0.70013 0.79626 0.68219 0.0
C651 C 0.72748 0.76947 0.69141 0.0
C652 C 0.76828 0.6809 0.61526 0.0
C653 C 0.74561 0.66589 0.63132 0.0
H654 H 0.81179 0.71451 0.59027 0.0
C655 C 0.81116 0.73307 0.7203 0.0
C656 C 0.8163 0.79616 0.72233 0.0
C657 C 0.8455 0.76388 0.84978 0.0
C658 C 0.8628 0.75003 0.89057 0.0
C659 C 0.8497 0.78894 0.90084 0.0
C660 C 0.84268 0.78521 0.87045 0.0
C661 C 0.85966 0.77152 0.9109 0.0
C662 C 0.8556 0.74637 0.85991 0.0
C663 C 0.8379 0.75944 0.81771 0.0
H664 H 0.66156 0.78896 0.76533 0.0
H665 H 0.69653 0.76795 0.74727 0.0
H666 H 0.6502 0.81383 0.73089 0.0
H667 H 0.7111 0.7983 0.65908 0.0
H668 H 0.84752 0.80549 0.91662 0.0
H669 H 0.8352 0.79901 0.86314 0.0
H670 H 0.86532 0.7751 0.93445 0.0
H671 H 0.85757 0.72977 0.844 0.0
Co672 Co 0.06552 0.97238 0.48736 0.0
Co673 Co 0.06165 0.99875 0.54251 0.0
Co674 Co 0.03046 0.01606 0.50176 0.0
O675 O 0.06226 1.00548 0.50205 0.0
H676 H 0.07829 0.01855 0.49666 0.0
O677 O 0.99876 0.02691 0.50142 0.0
Co678 Co 0.99734 0.06104 0.51357 0.0
Co679 Co 0.99988 0.03186 0.45986 0.0
H680 H 0.98254 0.01444 0.50781 0.0
O681 O 0.09144 0.99842 0.55763 0.0
O682 O 0.06257 0.96556 0.53219 0.0
O683 O 0.03082 0.99878 0.57185 0.0
O684 O 1.0074 0.99194 0.53206 0.0
O685 O 0.04185 0.04277 0.53683 0.0
O686 O 0.99232 0.09125 0.52437 0.0
O687 O 0.9619 0.05368 0.51495 0.0
O688 O 0.03524 0.07381 0.51615 0.0
O689 O 0.05344 0.03999 0.47123 0.0
O690 O 0.03044 0.02994 0.43075 0.0
O691 O 1.00059 0.06555 0.46786 0.0
O692 O 0.9707 0.03263 0.44395 0.0
C693 C 0.09658 0.95727 0.47772 0.0
C694 C 1.01453 0.96585 0.4682 0.0
C695 C 1.00898 0.99 0.56055 0.0
C696 C 0.0826 0.97429 0.54877 0.0
C697 C 0.96791 0.07828 0.52136 0.0
C698 C 0.04704 0.06624 0.53449 0.0
C699 C 0.05211 0.04004 0.44214 0.0
C700 C 0.98034 0.05683 0.4516 0.0
O701 O 0.0726 0.94321 0.474 0.0
O702 O 0.10096 0.98155 0.48604 0.0
O703 O 1.01903 0.98937 0.4667 0.0
O704 O 1.02767 0.95809 0.48471 0.0
Co705 Co 0.56093 0.96384 0.97376 0.0
Co706 Co 0.5601 0.98273 0.03211 0.0
Co707 Co 0.5307 1.01226 1.00068 0.0
O708 O 0.56096 0.99702 0.99651 0.0
H709 H 0.57788 1.00943 0.99278 0.0
O710 O 0.50037 0.02737 0.0048 0.0
Co711 Co 0.50025 0.06053 0.02717 0.0
Co712 Co 0.50134 0.04141 0.96917 0.0
H713 H 0.48346 0.01493 0.00848 0.0
O714 O 0.59092 0.98206 0.04373 0.0
O715 O 0.56349 0.95135 0.01377 0.0
O716 O 0.52909 0.97849 0.06219 0.0
O717 O 0.5059 0.98876 0.03084 0.0
O718 O 0.54619 0.03737 0.03584 0.0
O719 O 0.49731 0.08991 0.04868 0.0
O720 O 0.46417 0.05518 0.03706 0.0
O721 O 0.53822 0.07083 0.02197 0.0
O722 O 0.55548 0.03596 0.97069 0.0
O723 O 0.5321 0.04542 0.93893 0.0
O724 O 0.49812 0.07296 0.98691 0.0
O725 O 0.47095 0.04187 0.95686 0.0
C726 C 0.58902 0.94579 0.95017 0.0
C727 C 0.50947 0.96325 0.96549 0.0
C728 C 0.50721 0.97903 0.05502 0.0
C729 C 0.58438 0.95921 0.02906 0.0
C730 C 0.47207 0.07856 0.05053 0.0
C731 C 0.55187 0.0613 0.03557 0.0
C732 C 0.55407 0.04562 0.94649 0.0
C733 C 0.47795 0.06507 0.97039 0.0
O734 O 0.56376 0.93446 0.9521 0.0
O735 O 0.59696 0.96921 0.96347 0.0
O736 O 0.51526 0.98721 0.96545 0.0
O737 O 0.52287 0.95356 0.97925 0.0
Co738 Co 0.06259 0.46914 0.97035 0.0
Co739 Co 0.06179 0.487 0.02928 0.0
Co740 Co 0.03043 0.51581 0.99941 0.0
O741 O 0.06159 0.50164 0.99415 0.0
H742 H 0.07814 0.51454 0.99043 0.0
O743 O 0.99939 0.53013 0.0047 0.0
Co744 Co 0.99966 0.56338 0.02706 0.0
Co745 Co 0.99842 0.54324 0.9685 0.0
H746 H 0.98281 0.51756 0.00955 0.0
O747 O 0.09285 0.48543 0.03979 0.0
O748 O 0.06481 0.45575 0.00961 0.0
O749 O 0.03106 0.48189 0.06005 0.0
O750 O 1.00692 0.49114 0.02887 0.0
O751 O 0.04599 0.54048 0.03492 0.0
O752 O 0.99677 0.59279 0.04882 0.0
O753 O 0.96367 0.55808 0.03655 0.0
O754 O 0.03744 0.57373 0.02168 0.0
O755 O 0.05355 0.54047 0.96983 0.0
O756 O 1.02844 0.54581 0.93671 0.0
O757 O 0.9983 0.57576 0.98689 0.0
O758 O 0.96763 0.54732 0.95909 0.0
C759 C 0.09154 0.45247 0.94618 0.0
C760 C 1.01001 0.46725 0.96378 0.0
C761 C 1.00892 0.48161 0.05286 0.0
C762 C 0.08564 0.46274 0.02486 0.0
C763 C 0.97156 0.58131 0.0504 0.0
C764 C 0.05184 0.56431 0.03409 0.0
C765 C 0.05095 0.54811 0.94465 0.0
C766 C 0.97703 0.57012 0.97279 0.0
O767 O 0.06648 0.44045 0.94724 0.0
O768 O 0.09873 0.4755 0.96083 0.0
O769 O 1.01507 0.49113 0.96391 0.0
O770 O 1.02479 0.45785 0.97565 0.0
Co771 Co 0.56188 0.46527 0.00614 0.0
Co772 Co 0.55428 0.49839 0.05497 0.0
Co773 Co 0.534 0.51149 1.00041 0.0
O774 O 0.56188 0.49982 0.01181 0.0
H775 H 0.57926 0.51127 0.00722 0.0
O776 O 0.50602 0.52327 0.98935 0.0
Co777 Co 0.50787 0.55838 0.99353 0.0
Co778 Co 0.51356 0.52324 0.94601 0.0
H779 H 0.48847 0.5124 0.99472 0.0
O780 O 0.5785 0.49678 0.07942 0.0
O781 O 0.55109 0.46415 0.05221 0.0
O782 O 0.52184 0.50428 0.07623 0.0
O783 O 0.5054 0.49174 0.03096 0.0
O784 O 0.54311 0.5412 0.03252 0.0
O785 O 0.50635 0.58968 0.99634 0.0
O786 O 0.47331 0.5534 0.99044 0.0
O787 O 0.54483 0.56914 1.00082 0.0
O788 O 0.56261 0.53107 0.96968 0.0
O789 O 0.54615 0.51787 0.92453 0.0
O790 O 0.51522 0.55673 0.94636 0.0
O791 O 0.48779 0.52139 0.92273 0.0
C792 C 0.59008 0.44784 0.00747 0.0
C793 C 0.51663 0.45935 0.97438 0.0
C794 C 0.50222 0.49417 0.06095 0.0
C795 C 0.5682 0.47258 0.07262 0.0
C796 C 0.48172 0.57807 0.99289 0.0
C797 C 0.55199 0.56357 0.02491 0.0
C798 C 0.56573 0.5286 0.9397 0.0
C799 C 0.49653 0.54589 0.92809 0.0
O800 O 0.56624 0.43454 0.00186 0.0
O801 O 0.59591 0.47245 0.01224 0.0
O802 O 0.52495 0.48203 0.96796 0.0
O803 O 0.52541 0.45268 0.99639 0.0
Co804 Co 0.07699 0.48224 0.50051 0.0
Co805 Co 0.06375 0.48114 0.44745 0.0
Co806 Co 1.03007 0.5123 0.50104 0.0
O807 O 0.04479 0.48247 0.48659 0.0
H808 H 0.03118 0.46664 0.48862 0.0
O809 O 1.01541 0.5421 0.51531 0.0
Co810 Co 0.98429 0.54448 0.5003 0.0
Co811 Co 0.99554 0.54298 0.55398 0.0
H812 H 1.02941 0.5578 0.51447 0.0
O813 O 0.06391 0.45019 0.42436 0.0
O814 O 0.09377 0.47426 0.45639 0.0
O815 O 0.07306 0.51202 0.4288 0.0
O816 O 0.05193 0.53345 0.4668 0.0
O817 O 1.00146 0.49526 0.47366 0.0
O818 O 0.95746 0.54949 0.48554 0.0
O819 O 0.99584 0.57812 0.49697 0.0
O820 O 0.96847 0.50918 0.50039 0.0
O821 O 1.00811 0.49105 0.53526 0.0
O822 O 0.98481 0.51159 0.57163 0.0
O823 O 0.96663 0.55104 0.54415 0.0
O824 O 0.99544 0.57368 0.57809 0.0
C825 C 0.09034 0.45649 0.51636 0.0
C826 C 0.08338 0.53316 0.51863 0.0
C827 C 0.06714 0.5322 0.44092 0.0
C828 C 0.08609 0.45433 0.43583 0.0
C829 C 0.97289 0.57256 0.48651 0.0
C830 C 0.97684 0.49225 0.48217 0.0
C831 C 0.99165 0.49176 0.56018 0.0
C832 C 0.97392 0.57037 0.56556 0.0
O833 O 0.10478 0.47978 0.51539 0.0
O834 O 0.06726 0.44897 0.50585 0.0
O835 O 0.05886 0.52939 0.5285 0.0
O836 O 0.09113 0.51731 0.49782 0.0
Co837 Co 0.57576 0.98192 0.4997 0.0
Co838 Co 0.55871 0.97758 0.44725 0.0
Co839 Co 0.5303 0.01421 0.49916 0.0
O840 O 0.54281 0.98282 0.48778 0.0
H841 H 0.52867 0.96784 0.49235 0.0
O842 O 0.51793 0.04568 0.51058 0.0
Co843 Co 0.48522 0.04692 0.49862 0.0
Co844 Co 0.50198 0.05094 0.55108 0.0
H845 H 0.53217 0.06062 0.50612 0.0
O846 O 0.55796 0.94525 0.42747 0.0
O847 O 0.58978 0.97197 0.45499 0.0
O848 O 0.56755 1.00614 0.42435 0.0
O849 O 0.55277 0.03208 0.46287 0.0
O850 O 0.50073 0.9974 0.47291 0.0
O851 O 0.45686 0.0507 0.48608 0.0
O852 O 0.4962 0.0798 0.49166 0.0
O853 O 0.46971 1.01207 0.503 0.0
O854 O 0.50779 0.9963 0.53543 0.0
O855 O 0.49262 0.02229 0.5735 0.0
O856 O 0.47104 0.05668 0.54326 0.0
O857 O 0.50253 0.08302 0.57153 0.0
C858 C 0.58898 0.95567 0.51523 0.0
C859 C 0.5841 0.03305 0.51635 0.0
C860 C 0.56511 0.02788 0.43567 0.0
C861 C 0.58125 0.95082 0.43669 0.0
C862 C 0.47219 0.07358 0.48397 0.0
C863 C 0.47642 0.99522 0.48279 0.0
C864 C 0.49509 1.00055 0.56238 0.0
C865 C 0.4793 0.07752 0.56216 0.0
O866 O 0.60426 0.97847 0.51241 0.0
O867 O 0.56509 0.94912 0.50705 0.0
O868 O 0.55971 0.03093 0.52553 0.0
O869 O 0.59095 0.01682 0.49522 0.0
C870 C 0.19758 0.20346 0.2902 0.0
C871 C 0.2249 0.21039 0.29233 0.0
C872 C 0.18029 0.18386 0.30599 0.0
C873 C 0.17105 0.15037 0.37361 0.0
H874 H 0.12385 0.09508 0.32593 0.0
C875 C 0.0996 0.06578 0.43294 0.0
C876 C 0.07429 0.05614 0.42298 0.0
C877 C 0.11969 0.08295 0.41612 0.0
C878 C 0.1366 0.1105 0.33977 0.0
H879 H 0.25521 0.20282 0.31408 0.0
H880 H 0.22479 0.16916 0.34231 0.0
H881 H 0.15464 0.12942 0.29926 0.0
H882 H 0.05031 0.05686 0.38739 0.0
H883 H 0.08465 0.08722 0.35903 0.0
H884 H 0.15237 0.13226 0.41437 0.0
C885 C 0.21697 0.17863 0.32788 0.0
C886 C 0.15431 0.1301 0.32439 0.0
C887 C 0.23434 0.19788 0.31161 0.0
C888 C 0.06966 0.06365 0.39557 0.0
C889 C 0.08952 0.08106 0.37912 0.0
C890 C 0.15298 0.131 0.38915 0.0
C891 C 0.18985 0.17124 0.32487 0.0
C892 C 0.17155 0.15026 0.34119 0.0
C893 C 0.11477 0.09115 0.38925 0.0
C894 C 0.13532 0.11089 0.37248 0.0
H895 H 0.18949 0.21306 0.27626 0.0
H896 H 0.15936 0.1787 0.3037 0.0
H897 H 0.18412 0.16582 0.38707 0.0
H898 H 0.10379 0.06029 0.45394 0.0
H899 H 0.139 0.08993 0.42436 0.0
C900 C 0.83631 0.14688 0.35204 0.0
C901 C 0.84796 0.16324 0.32899 0.0
C902 C 0.85182 0.14058 0.37067 0.0
C903 C 0.92212 0.14202 0.37253 0.0
H904 H 0.89146 0.1125 0.44947 0.0
C905 C 0.9794 0.09963 0.4417 0.0
C906 C 0.96644 0.07394 0.44413 0.0
C907 C 0.96607 0.11507 0.43291 0.0
C908 C 0.90044 0.12118 0.42835 0.0
H909 H 0.88556 0.18689 0.30918 0.0
H910 H 0.91198 0.17805 0.34358 0.0
H911 H 0.86678 0.13332 0.42577 0.0
H912 H 0.92908 0.04463 0.44112 0.0
H913 H 0.90589 0.07161 0.42644 0.0
H914 H 0.95617 0.13047 0.37615 0.0
C915 C 0.89094 0.16879 0.3461 0.0
C916 C 0.88612 0.13272 0.4143 0.0
C917 C 0.87552 0.17437 0.32666 0.0
C918 C 0.93973 0.06426 0.43895 0.0
C919 C 0.92633 0.07975 0.43089 0.0
C920 C 0.93681 0.13138 0.38732 0.0
C921 C 0.87948 0.15115 0.36774 0.0
C922 C 0.8963 0.14248 0.38547 0.0
C923 C 0.93948 0.10513 0.4272 0.0
C924 C 0.92581 0.12026 0.41486 0.0
H925 H 0.81513 0.13846 0.35552 0.0
H926 H 0.84196 0.1267 0.3866 0.0
H927 H 0.93071 0.14871 0.35014 0.0
H928 H 0.99993 0.10757 0.44578 0.0
H929 H 0.97655 0.13466 0.43027 0.0
C930 C 0.85067 0.80596 0.31465 0.0
C931 C 0.83517 0.81584 0.29964 0.0
C932 C 0.86955 0.82191 0.33345 0.0
C933 C 0.90997 0.88856 0.34853 0.0
H934 H 0.91949 0.86782 0.42583 0.0
C935 C 0.97699 0.95711 0.43608 0.0
C936 C 0.99315 0.94778 0.45078 0.0
C937 C 0.95752 0.94072 0.41847 0.0
C938 C 0.91734 0.87378 0.40414 0.0
H939 H 0.82745 0.85044 0.29292 0.0
H940 H 0.86038 0.87832 0.32586 0.0
H941 H 0.88581 0.8403 0.39377 0.0
H942 H 1.00102 0.91359 0.45876 0.0
H943 H 0.96704 0.88481 0.42762 0.0
H944 H 0.9415 0.92198 0.35877 0.0
C945 C 0.85808 0.85817 0.32277 0.0
C946 C 0.89796 0.858 0.38573 0.0
C947 C 0.83911 0.84217 0.30395 0.0
C948 C 0.98894 0.92144 0.44781 0.0
C949 C 0.96938 0.90495 0.43004 0.0
C950 C 0.92933 0.90431 0.3669 0.0
C951 C 0.87356 0.84824 0.3378 0.0
C952 C 0.89399 0.86519 0.35767 0.0
C953 C 0.95359 0.91442 0.41485 0.0
C954 C 0.93325 0.89721 0.39503 0.0
H955 H 0.84835 0.78582 0.31183 0.0
H956 H 0.88133 0.81357 0.34419 0.0
H957 H 0.90786 0.89455 0.32683 0.0
H958 H 0.97937 0.97724 0.43802 0.0
H959 H 0.94543 0.94873 0.40778 0.0
C960 C 0.20803 0.83515 0.3947 0.0
C961 C 0.19555 0.81006 0.40083 0.0
C962 C 0.21334 0.85469 0.4191 0.0
C963 C 0.21294 0.89618 0.46983 0.0
H964 H 0.14383 0.87804 0.51751 0.0
C965 C 0.14279 0.95931 0.48569 0.0
C966 C 0.11745 0.94505 0.478 0.0
C967 C 0.16084 0.9472 0.49112 0.0
C968 C 0.16334 0.88354 0.50457 0.0
H969 H 0.18312 0.7855 0.4376 0.0
H970 H 0.19217 0.81985 0.48059 0.0
H971 H 0.16686 0.84637 0.50085 0.0
H972 H 0.09165 0.90696 0.46865 0.0
H973 H 0.12303 0.88607 0.47677 0.0
H974 H 0.20725 0.93242 0.46963 0.0
C975 C 0.19708 0.82446 0.45671 0.0
C976 C 0.17692 0.86537 0.49531 0.0
C977 C 0.19173 0.80472 0.43205 0.0
C978 C 0.11092 0.91857 0.47465 0.0
C979 C 0.1288 0.90657 0.48003 0.0
C980 C 0.19887 0.91413 0.4781 0.0
C981 C 0.20593 0.8499 0.45057 0.0
C982 C 0.2004 0.87068 0.4745 0.0
C983 C 0.15379 0.92066 0.48897 0.0
C984 C 0.17278 0.90699 0.49269 0.0
H985 H 0.21139 0.84039 0.37116 0.0
H986 H 0.22029 0.87374 0.41276 0.0
H987 H 0.23197 0.90147 0.45582 0.0
H988 H 0.14834 0.9798 0.48864 0.0
H989 H 0.18003 0.95859 0.49758 0.0
C990 C 0.20257 0.87268 0.67724 0.0
C991 C 0.18442 0.8556 0.69626 0.0
C992 C 0.1939 0.88257 0.65473 0.0
C993 C 0.13977 0.87433 0.60775 0.0
H994 H 0.15906 0.94759 0.61998 0.0
C995 C 0.08349 0.93201 0.56051 0.0
C996 C 0.09664 0.95731 0.55625 0.0
C997 C 0.0965 0.91726 0.5714 0.0
C998 C 0.15394 0.92716 0.61537 0.0
H999 H 0.14324 0.83449 0.70558 0.0
H1000 H 0.12808 0.85176 0.66599 0.0
H1001 H 0.17788 0.9257 0.64964 0.0
H1002 H 0.13433 0.98625 0.5567 0.0
H1003 H 0.15739 0.96029 0.57339 0.0
H1004 H 0.11588 0.87577 0.57327 0.0
C1005 C 0.14897 0.85749 0.66863 0.0
C1006 C 0.16468 0.91461 0.63268 0.0
C1007 C 0.15758 0.84787 0.69149 0.0
C1008 C 0.12346 0.967 0.56071 0.0
C1009 C 0.13665 0.9521 0.5705 0.0
C1010 C 0.12932 0.88693 0.58989 0.0
C1011 C 0.16698 0.8753 0.65048 0.0
C1012 C 0.15739 0.88812 0.62948 0.0
C1013 C 0.12308 0.92741 0.57749 0.0
C1014 C 0.13594 0.91357 0.59384 0.0
H1015 H 0.22336 0.87898 0.68045 0.0
H1016 H 0.20818 0.89625 0.64098 0.0
H1017 H 0.13398 0.85383 0.60476 0.0
H1018 H 0.06282 0.92406 0.55703 0.0
H1019 H 0.08526 0.89839 0.57652 0.0
C1020 C 0.21925 0.18908 0.7025 0.0
C1021 C 0.22391 0.2155 0.70687 0.0
C1022 C 0.20024 0.17355 0.68348 0.0
C1023 C 0.14138 0.17262 0.64673 0.0
H1024 H 0.15656 0.11481 0.59336 0.0
C1025 C 0.07278 0.11076 0.55413 0.0
C1026 C 0.06804 0.08442 0.55238 0.0
C1027 C 0.09209 0.12746 0.57208 0.0
C1028 C 0.15187 0.13075 0.6083 0.0
H1029 H 0.21202 0.24621 0.69447 0.0
H1030 H 0.17927 0.21926 0.66111 0.0
H1031 H 0.18909 0.14211 0.62685 0.0
H1032 H 0.08029 0.05512 0.568 0.0
H1033 H 0.11356 0.084 0.59899 0.0
H1034 H 0.10412 0.16118 0.62806 0.0
C1035 C 0.18998 0.21044 0.67276 0.0
C1036 C 0.17055 0.14641 0.62762 0.0
C1037 C 0.20896 0.22595 0.69181 0.0
C1038 C 0.0833 0.07526 0.5687 0.0
C1039 C 0.1026 0.09188 0.58639 0.0
C1040 C 0.1227 0.15697 0.62732 0.0
C1041 C 0.18541 0.18401 0.66819 0.0
C1042 C 0.16552 0.16748 0.6473 0.0
C1043 C 0.10725 0.11821 0.58846 0.0
C1044 C 0.12761 0.1357 0.60801 0.0
H1045 H 0.23055 0.18035 0.71341 0.0
H1046 H 0.19709 0.15327 0.68087 0.0
H1047 H 0.13662 0.18847 0.6618 0.0
H1048 H 0.06141 0.11848 0.54192 0.0
H1049 H 0.09529 0.14764 0.57292 0.0
C1050 C 0.85176 0.20558 0.61577 0.0
C1051 C 0.87707 0.22132 0.62217 0.0
C1052 C 0.84765 0.19313 0.58565 0.0
C1053 C 0.88952 0.17505 0.51218 0.0
H1054 H 0.86479 0.11171 0.54814 0.0
C1055 C 0.92179 0.0788 0.51657 0.0
C1056 C 0.94832 0.09186 0.52041 0.0
C1057 C 0.90412 0.09202 0.51318 0.0
C1058 C 0.87134 0.12888 0.53695 0.0
H1059 H 0.91519 0.24169 0.59981 0.0
H1060 H 0.90914 0.21811 0.5487 0.0
H1061 H 0.8448 0.14489 0.5688 0.0
H1062 H 0.97724 0.12889 0.52278 0.0
H1063 H 0.94661 0.15172 0.51768 0.0
H1064 H 0.91823 0.15944 0.48274 0.0
C1065 C 0.89234 0.21494 0.56662 0.0
C1066 C 0.85973 0.1482 0.54879 0.0
C1067 C 0.89615 0.22817 0.59646 0.0
C1068 C 0.95688 0.11822 0.52029 0.0
C1069 C 0.9394 0.1313 0.51664 0.0
C1070 C 0.9014 0.1558 0.50062 0.0
C1071 C 0.86906 0.19507 0.56193 0.0
C1072 C 0.87068 0.17248 0.5389 0.0
C1073 C 0.91279 0.11845 0.51327 0.0
C1074 C 0.89394 0.13346 0.51499 0.0
H1075 H 0.8358 0.20024 0.63424 0.0
H1076 H 0.82879 0.17924 0.58233 0.0
H1077 H 0.89747 0.19299 0.50275 0.0
H1078 H 0.91473 0.05842 0.51603 0.0
H1079 H 0.88367 0.08164 0.51078 0.0
C1080 C 0.86231 0.8217 0.70468 0.0
C1081 C 0.83486 0.81639 0.70477 0.0
C1082 C 0.8798 0.84087 0.68841 0.0
C1083 C 0.88295 0.89769 0.65159 0.0
H1084 H 0.95136 0.88989 0.61442 0.0
C1085 C 0.96122 0.96455 0.56886 0.0
C1086 C 0.98667 0.97303 0.57862 0.0
C1087 C 0.94112 0.94622 0.58405 0.0
C1088 C 0.93232 0.89229 0.62474 0.0
H1089 H 0.80435 0.82673 0.68693 0.0
H1090 H 0.83486 0.85945 0.65756 0.0
H1091 H 0.91935 0.85558 0.6399 0.0
H1092 H 1.01072 0.96925 0.61247 0.0
H1093 H 0.9759 0.93707 0.63829 0.0
H1094 H 0.89609 0.93433 0.63539 0.0
C1095 C 0.8429 0.84938 0.67094 0.0
C1096 C 0.914 0.87273 0.63957 0.0
C1097 C 0.82537 0.83042 0.68762 0.0
C1098 C 0.99136 0.96329 0.60437 0.0
C1099 C 0.97149 0.94472 0.61908 0.0
C1100 C 0.90118 0.91712 0.63622 0.0
C1101 C 0.87038 0.85494 0.67119 0.0
C1102 C 0.88922 0.8753 0.65373 0.0
C1103 C 0.94634 0.93576 0.60879 0.0
C1104 C 0.92617 0.91472 0.62316 0.0
H1105 H 0.87041 0.81108 0.71721 0.0
H1106 H 0.90075 0.84479 0.68968 0.0
H1107 H 0.86424 0.90054 0.66249 0.0
H1108 H 0.957 0.97165 0.54908 0.0
H1109 H 0.92183 0.93954 0.57573 0.0
C1110 C 0.30966 0.19331 0.18655 0.0
C1111 C 0.32202 0.21826 0.19917 0.0
C1112 C 0.32462 0.17737 0.17015 0.0
C1113 C 0.39243 0.16909 0.1603 0.0
H1114 H 0.37043 0.12404 0.08548 0.0
C1115 C 0.46312 0.11786 0.08161 0.0
C1116 C 0.45315 0.09295 0.06714 0.0
C1117 C 0.4462 0.13194 0.09736 0.0
C1118 C 0.37676 0.13623 0.10656 0.0
H1119 H 0.3602 0.24571 0.20437 0.0
H1120 H 0.38614 0.21807 0.17629 0.0
H1121 H 0.34308 0.15074 0.11321 0.0
H1122 H 0.417 0.06365 0.05773 0.0
H1123 H 0.38728 0.08821 0.08558 0.0
H1124 H 0.42595 0.15466 0.15397 0.0
C1125 C 0.3648 0.21067 0.17906 0.0
C1126 C 0.36102 0.15164 0.12252 0.0
C1127 C 0.34985 0.22665 0.19517 0.0
C1128 C 0.42549 0.08268 0.06869 0.0
C1129 C 0.40842 0.09689 0.08453 0.0
C1130 C 0.40807 0.15369 0.14447 0.0
C1131 C 0.35249 0.18572 0.16628 0.0
C1132 C 0.36874 0.16856 0.14951 0.0
C1133 C 0.41853 0.12174 0.09939 0.0
C1134 C 0.40074 0.13717 0.11708 0.0
H1135 H 0.28836 0.18589 0.18965 0.0
H1136 H 0.31429 0.15827 0.16111 0.0
H1137 H 0.39888 0.1813 0.18133 0.0
H1138 H 0.48423 0.12669 0.08082 0.0
H1139 H 0.45499 0.1511 0.10769 0.0
C1140 C 0.832 0.31307 0.16885 0.0
C1141 C 0.82304 0.31854 0.20065 0.0
C1142 C 0.85019 0.33188 0.15247 0.0
C1143 C 0.90156 0.39268 0.16572 0.0
H1144 H 0.89607 0.39874 0.07961 0.0
C1145 C 0.97704 0.47177 0.10101 0.0
C1146 C 0.98486 0.46565 0.06911 0.0
C1147 C 0.95536 0.45528 0.11673 0.0
C1148 C 0.89814 0.39719 0.10353 0.0
H1149 H 0.82559 0.34819 0.24002 0.0
H1150 H 0.85694 0.38107 0.21137 0.0
H1151 H 0.86221 0.36685 0.10727 0.0
H1152 H 0.97661 0.43776 0.02847 0.0
H1153 H 0.93968 0.40835 0.05596 0.0
H1154 H 0.93774 0.42238 0.16196 0.0
C1155 C 0.85027 0.36216 0.19917 0.0
C1156 C 0.87863 0.37889 0.11941 0.0
C1157 C 0.8321 0.34337 0.21551 0.0
C1158 C 0.97062 0.44297 0.05303 0.0
C1159 C 0.94935 0.42621 0.06884 0.0
C1160 C 0.92117 0.4108 0.14979 0.0
C1161 C 0.85978 0.35661 0.16754 0.0
C1162 C 0.88015 0.37637 0.15069 0.0
C1163 C 0.94151 0.43198 0.10105 0.0
C1164 C 0.91985 0.41331 0.1184 0.0
H1165 H 0.82517 0.29416 0.15671 0.0
H1166 H 0.85727 0.32689 0.12822 0.0
H1167 H 0.90357 0.39101 0.18964 0.0
H1168 H 0.98777 0.48924 0.11379 0.0
H1169 H 0.94962 0.46075 0.14128 0.0
C1170 C 0.72517 0.85836 0.12289 0.0
C1171 C 0.71301 0.85494 0.15366 0.0
C1172 C 0.71124 0.86242 0.10035 0.0
C1173 C 0.64351 0.86266 0.086 0.0
H1174 H 0.68354 0.91821 0.03913 0.0
C1175 C 0.59133 0.91582 0.02436 0.0
C1176 C 0.60054 0.94227 0.03141 0.0
C1177 C 0.60585 0.90028 0.03055 0.0
C1178 C 0.67202 0.90261 0.05196 0.0
H1179 H 0.67594 0.85087 0.18391 0.0
H1180 H 0.65216 0.85883 0.14543 0.0
H1181 H 0.70652 0.89889 0.06731 0.0
H1182 H 0.6331 0.97312 0.04841 0.0
H1183 H 0.65786 0.94647 0.05933 0.0
H1184 H 0.60881 0.86782 0.07251 0.0
C1185 C 0.67232 0.85821 0.1383 0.0
C1186 C 0.68529 0.89124 0.06787 0.0
C1187 C 0.68615 0.85402 0.16067 0.0
C1188 C 0.62518 0.95282 0.04299 0.0
C1189 C 0.63963 0.93745 0.04896 0.0
C1190 C 0.6302 0.87424 0.07031 0.0
C1191 C 0.68483 0.8632 0.10804 0.0
C1192 C 0.67116 0.87175 0.08617 0.0
C1193 C 0.62999 0.91095 0.04351 0.0
C1194 C 0.64422 0.89507 0.05417 0.0
H1195 H 0.74581 0.85913 0.11662 0.0
H1196 H 0.72145 0.86569 0.07715 0.0
H1197 H 0.63196 0.84726 0.0991 0.0
H1198 H 0.57251 0.90711 0.01519 0.0
H1199 H 0.59796 0.87993 0.02575 0.0
C1200 C 0.24181 0.70973 0.16326 0.0
C1201 C 0.23018 0.7219 0.19016 0.0
C1202 C 0.22586 0.69196 0.14229 0.0
C1203 C 0.15877 0.67523 0.11866 0.0
H1204 H 0.16781 0.60924 0.08569 0.0
C1205 C 0.09049 0.57286 0.06479 0.0
C1206 C 0.07642 0.58131 0.04615 0.0
C1207 C 0.11267 0.58963 0.07776 0.0
C1208 C 0.16504 0.62761 0.09476 0.0
H1209 H 0.1926 0.72366 0.2169 0.0
H1210 H 0.16542 0.69311 0.18097 0.0
H1211 H 0.20037 0.63937 0.11776 0.0
H1212 H 0.07567 0.6136 0.02485 0.0
H1213 H 0.11445 0.64247 0.04671 0.0
H1214 H 0.12307 0.6635 0.0973 0.0
C1215 C 0.1867 0.69768 0.17542 0.0
C1216 C 0.18383 0.64493 0.1128 0.0
C1217 C 0.20243 0.71526 0.19611 0.0
C1218 C 0.08573 0.60653 0.03956 0.0
C1219 C 0.10798 0.62315 0.05219 0.0
C1220 C 0.1401 0.65805 0.10081 0.0
C1221 C 0.19811 0.68616 0.14797 0.0
C1222 C 0.18051 0.66871 0.12553 0.0
C1223 C 0.12134 0.61514 0.07214 0.0
C1224 C 0.14271 0.63386 0.08898 0.0
H1225 H 0.26311 0.71425 0.15816 0.0
H1226 H 0.23518 0.68326 0.12133 0.0
H1227 H 0.15583 0.69354 0.12778 0.0
H1228 H 0.08391 0.55351 0.07018 0.0
H1229 H 0.12233 0.58283 0.09319 0.0
C1230 C 0.33041 0.83718 0.80698 0.0
C1231 C 0.32449 0.81106 0.80844 0.0
C1232 C 0.34842 0.85465 0.82581 0.0
C1233 C 0.38315 0.86111 0.89617 0.0
H1234 H 0.43404 0.91718 0.85815 0.0
C1235 C 0.47869 0.92022 0.95039 0.0
C1236 C 0.48661 0.94653 0.94946 0.0
C1237 C 0.45756 0.9045 0.93462 0.0
C1238 C 0.41979 0.90181 0.86928 0.0
H1239 H 0.33237 0.78295 0.83164 0.0
H1240 H 0.36385 0.81316 0.86386 0.0
H1241 H 0.39928 0.88865 0.82848 0.0
H1242 H 0.47812 0.97692 0.93144 0.0
H1243 H 0.44137 0.94952 0.90403 0.0
H1244 H 0.40403 0.87405 0.93674 0.0
C1245 C 0.35442 0.82031 0.84853 0.0
C1246 C 0.39977 0.88545 0.85227 0.0
C1247 C 0.33641 0.80291 0.82982 0.0
C1248 C 0.47268 0.95674 0.93261 0.0
C1249 C 0.45166 0.94101 0.91672 0.0
C1250 C 0.40323 0.8774 0.91311 0.0
C1251 C 0.36092 0.84641 0.84658 0.0
C1252 C 0.3813 0.86473 0.86538 0.0
C1253 C 0.44389 0.91468 0.91741 0.0
C1254 C 0.42193 0.89785 0.8998 0.0
H1255 H 0.32162 0.84416 0.79079 0.0
H1256 H 0.35264 0.87462 0.82397 0.0
H1257 H 0.36903 0.84567 0.90729 0.0
H1258 H 0.48893 0.91167 0.96311 0.0
H1259 H 0.45228 0.88428 0.93538 0.0
C1260 C 0.21751 0.30272 0.82156 0.0
C1261 C 0.24065 0.31198 0.80128 0.0
C1262 C 0.20289 0.31891 0.83807 0.0
C1263 C 0.18657 0.37765 0.8342 0.0
H1264 H 0.16556 0.37882 0.92396 0.0
C1265 C 0.10504 0.4225 0.90158 0.0
C1266 C 0.11114 0.43924 0.92909 0.0
C1267 C 0.12218 0.40847 0.88618 0.0
C1268 C 0.17136 0.3788 0.89891 0.0
H1269 H 0.26565 0.34588 0.78185 0.0
H1270 H 0.23956 0.37367 0.80946 0.0
H1271 H 0.19214 0.35094 0.89689 0.0
H1272 H 0.14003 0.45388 0.96227 0.0
H1273 H 0.16967 0.42857 0.93591 0.0
H1274 H 0.16507 0.40482 0.83598 0.0
C1275 C 0.23314 0.35392 0.81319 0.0
C1276 C 0.18644 0.36268 0.88335 0.0
C1277 C 0.24814 0.33788 0.79733 0.0
C1278 C 0.13491 0.44146 0.9409 0.0
C1279 C 0.15176 0.4268 0.92594 0.0
C1280 C 0.17098 0.39328 0.8496 0.0
C1281 C 0.2104 0.34473 0.83399 0.0
C1282 C 0.19432 0.36191 0.85075 0.0
C1283 C 0.14563 0.41012 0.89829 0.0
C1284 C 0.16317 0.39413 0.8822 0.0
H1285 H 0.21041 0.28285 0.82446 0.0
H1286 H 0.18527 0.31105 0.85348 0.0
H1287 H 0.19214 0.37749 0.8091 0.0
H1288 H 0.08685 0.42021 0.89192 0.0
H1289 H 0.1167 0.39575 0.86513 0.0
C1290 C 0.73702 0.21596 0.83839 0.0
C1291 C 0.73403 0.21765 0.80735 0.0
C1292 C 0.71965 0.1965 0.85461 0.0
C1293 C 0.67192 0.13266 0.83939 0.0
H1294 H 0.64669 0.14368 0.92775 0.0
C1295 C 0.57836 0.06612 0.89897 0.0
C1296 C 0.57855 0.06091 0.9295 0.0
C1297 C 0.59998 0.08342 0.88446 0.0
C1298 C 0.65386 0.1402 0.90316 0.0
H1299 H 0.70982 0.20103 0.76945 0.0
H1300 H 0.6794 0.1676 0.79765 0.0
H1301 H 0.6786 0.17838 0.90241 0.0
H1302 H 0.60194 0.06945 0.96849 0.0
H1303 H 0.63969 0.09996 0.94316 0.0
H1304 H 0.64651 0.09473 0.83995 0.0
C1305 C 0.69547 0.18078 0.80939 0.0
C1306 C 0.67217 0.16011 0.88861 0.0
C1307 C 0.71271 0.20021 0.79333 0.0
C1308 C 0.60126 0.07284 0.94482 0.0
C1309 C 0.62277 0.09051 0.93046 0.0
C1310 C 0.65347 0.11287 0.85386 0.0
C1311 C 0.69895 0.17832 0.84004 0.0
C1312 C 0.68104 0.15674 0.85635 0.0
C1313 C 0.6222 0.09626 0.90028 0.0
C1314 C 0.64387 0.1165 0.88578 0.0
H1315 H 0.75316 0.22933 0.84986 0.0
H1316 H 0.72302 0.19523 0.87813 0.0
H1317 H 0.67886 0.12909 0.81475 0.0
H1318 H 0.56116 0.05731 0.88655 0.0
H1319 H 0.5988 0.08755 0.86132 0.0
C1320 C 0.86592 0.72453 0.93179 0.0
C1321 C 0.8738 0.73172 0.90137 0.0
C1322 C 0.87679 0.70792 0.94232 0.0
C1323 C 0.93492 0.68321 0.92751 0.0
H1324 H 0.88959 0.6288 0.97331 0.0
C1325 C 0.93917 0.58272 0.95985 0.0
C1326 C 0.96407 0.58976 0.97085 0.0
C1327 C 0.9277 0.60107 0.95531 0.0
C1328 C 0.90251 0.64393 0.9606 0.0
H1329 H 0.89939 0.72704 0.8582 0.0
H1330 H 0.91816 0.69784 0.87646 0.0
H1331 H 0.87056 0.65838 0.95631 0.0
H1332 H 0.99595 0.62167 0.98703 0.0
H1333 H 0.97595 0.65384 0.97877 0.0
H1334 H 0.96677 0.66843 0.93123 0.0
C1335 C 0.9037 0.70524 0.89227 0.0
C1336 C 0.89164 0.66098 0.95104 0.0
C1337 C 0.89271 0.72175 0.88167 0.0
C1338 C 0.97682 0.61563 0.97832 0.0
C1339 C 0.96544 0.63404 0.97346 0.0
C1340 C 0.94582 0.66627 0.93728 0.0
C1341 C 0.89593 0.69818 0.92276 0.0
C1342 C 0.90766 0.68065 0.93403 0.0
C1343 C 0.94091 0.62694 0.96144 0.0
C1344 C 0.92969 0.64624 0.95358 0.0
H1345 H 0.85121 0.73166 0.94747 0.0
H1346 H 0.87047 0.703 0.96599 0.0
H1347 H 0.94786 0.69833 0.9148 0.0
H1348 H 0.92868 0.56297 0.9541 0.0
H1349 H 0.90888 0.59494 0.94585 0.0
C1350 C 0.18419 0.34878 0.14798 0.0
C1351 C 0.17949 0.32241 0.143 0.0
C1352 C 0.17804 0.36133 0.12621 0.0
C1353 C 0.13129 0.35287 0.07139 0.0
H1354 H 0.178 0.41617 0.04568 0.0
C1355 C 0.0923 0.41912 0.01429 0.0
C1356 C 0.10038 0.44463 0.02733 0.0
C1357 C 0.10507 0.4019 0.01974 0.0
C1358 C 0.16464 0.39855 0.05268 0.0
H1359 H 0.16509 0.28844 0.1113 0.0
H1360 H 0.15353 0.31044 0.07338 0.0
H1361 H 0.19485 0.39021 0.07251 0.0
H1362 H 0.1292 0.47223 0.05483 0.0
H1363 H 0.15067 0.44253 0.06489 0.0
H1364 H 0.10058 0.36195 0.05365 0.0
C1365 C 0.16232 0.32135 0.09397 0.0
C1366 C 0.17438 0.38365 0.06789 0.0
C1367 C 0.16901 0.30882 0.11551 0.0
C1368 C 0.12224 0.45272 0.04456 0.0
C1369 C 0.13485 0.43562 0.05007 0.0
C1370 C 0.12141 0.36798 0.05657 0.0
C1371 C 0.16661 0.34771 0.09927 0.0
C1372 C 0.1576 0.36107 0.07828 0.0
C1373 C 0.12617 0.40987 0.03831 0.0
C1374 C 0.13774 0.39148 0.04807 0.0
H1375 H 0.19227 0.35964 0.16901 0.0
H1376 H 0.18129 0.38162 0.13106 0.0
H1377 H 0.1179 0.33558 0.07929 0.0
H1378 H 0.07572 0.41233 1.00059 0.0
H1379 H 0.09809 0.38228 0.00992 0.0
C1380 C 0.22344 0.68553 0.77925 0.0
C1381 C 0.2335 0.71055 0.79285 0.0
C1382 C 0.20426 0.66796 0.79628 0.0
C1383 C 0.15544 0.66255 0.86832 0.0
H1384 H 0.15636 0.59239 0.8526 0.0
C1385 C 0.09238 0.58383 0.94451 0.0
C1386 C 0.07437 0.56436 0.92762 0.0
C1387 C 0.11268 0.60152 0.92877 0.0
C1388 C 0.15592 0.61192 0.85714 0.0
H1389 H 0.23171 0.73685 0.83505 0.0
H1390 H 0.19858 0.70609 0.86529 0.0
H1391 H 0.19023 0.62411 0.8246 0.0
H1392 H 0.06386 0.54748 0.88123 0.0
H1393 H 0.10047 0.57771 0.85348 0.0
H1394 H 0.12155 0.65012 0.90181 0.0
C1395 C 0.20495 0.70007 0.84114 0.0
C1396 C 0.17515 0.63013 0.84095 0.0
C1397 C 0.22398 0.71774 0.82388 0.0
C1398 C 0.0776 0.56228 0.89469 0.0
C1399 C 0.09843 0.57952 0.8789 0.0
C1400 C 0.13654 0.64438 0.88498 0.0
C1401 C 0.19492 0.67484 0.82762 0.0
C1402 C 0.175 0.65567 0.84597 0.0
C1403 C 0.11577 0.59957 0.89586 0.0
C1404 C 0.13648 0.61891 0.87925 0.0
H1405 H 0.23026 0.67952 0.75526 0.0
H1406 H 0.19664 0.649 0.78467 0.0
H1407 H 0.15433 0.68185 0.87255 0.0
H1408 H 0.09007 0.58602 0.96994 0.0
H1409 H 0.12585 0.61685 0.94229 0.0
C1410 C 0.34976 0.20519 0.92766 0.0
C1411 C 0.33622 0.19463 0.90114 0.0
C1412 C 0.36674 0.19353 0.93678 0.0
C1413 C 0.37599 0.13084 0.93172 0.0
H1414 H 0.44652 0.16555 0.95438 0.0
C1415 C 0.44691 0.0751 0.94086 0.0
C1416 C 0.46346 0.08253 0.96491 0.0
C1417 C 0.43239 0.09052 0.93538 0.0
C1418 C 0.42671 0.15567 0.94861 0.0
H1419 H 0.33042 0.16389 0.86301 0.0
H1420 H 0.36004 0.14364 0.87884 0.0
H1421 H 0.41973 0.18969 0.93963 0.0
H1422 H 0.47826 0.11256 1.00159 0.0
H1423 H 0.45201 0.1395 0.99252 0.0
H1424 H 0.38249 0.09697 0.94086 0.0
C1425 C 0.35742 0.16087 0.89267 0.0
C1426 C 0.41144 0.16947 0.94004 0.0
C1427 C 0.34065 0.17261 0.88342 0.0
C1428 C 0.46552 0.10619 0.98305 0.0
C1429 C 0.45061 0.12166 0.97773 0.0
C1430 C 0.39104 0.11717 0.94052 0.0
C1431 C 0.37028 0.17094 0.91974 0.0
C1432 C 0.38616 0.15704 0.9308 0.0
C1433 C 0.4336 0.11379 0.95401 0.0
C1434 C 0.41685 0.12924 0.94828 0.0
H1435 H 0.34697 0.22231 0.9416 0.0
H1436 H 0.37637 0.20169 0.95775 0.0
H1437 H 0.35632 0.12084 0.92552 0.0
H1438 H 0.44515 0.05726 0.92596 0.0
H1439 H 0.42019 0.08415 0.91628 0.0
C1440 C 0.86166 0.3155 0.79653 0.0
C1441 C 0.83406 0.31043 0.80248 0.0
C1442 C 0.87803 0.33323 0.81649 0.0
C1443 C 0.90672 0.357 0.8725 0.0
H1444 H 0.89708 0.42258 0.90666 0.0
C1445 C 0.9773 0.42455 0.9556 0.0
C1446 C 0.98624 0.45007 0.95028 0.0
C1447 C 0.95577 0.40793 0.94155 0.0
C1448 C 0.90008 0.40435 0.89721 0.0
H1449 H 0.80197 0.3207 0.83346 0.0
H1450 H 0.83085 0.35172 0.86903 0.0
H1451 H 0.86541 0.39315 0.8732 0.0
H1452 H 0.97899 0.47836 0.92685 0.0
H1453 H 0.94198 0.44914 0.90139 0.0
H1454 H 0.94184 0.3683 0.89501 0.0
C1455 C 0.8397 0.34195 0.84864 0.0
C1456 C 0.88177 0.38741 0.87833 0.0
C1457 C 0.82318 0.32418 0.82837 0.0
C1458 C 0.97263 0.45878 0.93136 0.0
C1459 C 0.95125 0.44206 0.91696 0.0
C1460 C 0.92499 0.37388 0.89112 0.0
C1461 C 0.86731 0.34627 0.84319 0.0
C1462 C 0.8852 0.36372 0.86531 0.0
C1463 C 0.94286 0.41631 0.92143 0.0
C1464 C 0.92212 0.39789 0.90346 0.0
H1465 H 0.87074 0.30559 0.77647 0.0
H1466 H 0.89922 0.33662 0.81106 0.0
H1467 H 0.90968 0.33871 0.86334 0.0
H1468 H 0.98708 0.41729 0.97042 0.0
H1469 H 0.94947 0.38838 0.94614 0.0
C1470 C 0.71158 0.79734 0.80836 0.0
C1471 C 0.73906 0.80669 0.80053 0.0
C1472 C 0.69667 0.81325 0.82468 0.0
C1473 C 0.70126 0.8746 0.87613 0.0
H1474 H 0.63311 0.86683 0.84946 0.0
C1475 C 0.63553 0.94228 0.93018 0.0
C1476 C 0.60792 0.93137 0.93369 0.0
C1477 C 0.6526 0.92812 0.91419 0.0
C1478 C 0.6519 0.86915 0.85767 0.0
H1479 H 0.7724 0.84032 0.80478 0.0
H1480 H 0.74654 0.86794 0.83383 0.0
H1481 H 0.6603 0.84028 0.82211 0.0
H1482 H 0.57697 0.89654 0.92358 0.0
H1483 H 0.60623 0.8722 0.89666 0.0
H1484 H 0.69265 0.90336 0.91196 0.0
C1485 C 0.73642 0.84825 0.82712 0.0
C1486 C 0.66761 0.85383 0.84182 0.0
C1487 C 0.7513 0.83235 0.81039 0.0
C1488 C 0.59802 0.90587 0.92118 0.0
C1489 C 0.61494 0.89182 0.90538 0.0
C1490 C 0.68543 0.8899 0.89217 0.0
C1491 C 0.70877 0.83903 0.83418 0.0
C1492 C 0.69245 0.8561 0.8509 0.0
C1493 C 0.64254 0.90266 0.90125 0.0
C1494 C 0.66031 0.88727 0.88342 0.0
H1495 H 0.70149 0.77758 0.80203 0.0
H1496 H 0.67557 0.80521 0.83017 0.0
H1497 H 0.72016 0.87687 0.88404 0.0
H1498 H 0.64396 0.96179 0.93957 0.0
H1499 H 0.67366 0.93733 0.9115 0.0
C1500 C 0.84863 0.73291 0.18654 0.0
C1501 C 0.82217 0.72232 0.1984 0.0
C1502 C 0.86381 0.71764 0.16899 0.0
C1503 C 0.85879 0.65057 0.12925 0.0
H1504 H 0.93458 0.67379 0.13085 0.0
C1505 C 0.92821 0.59252 0.05686 0.0
C1506 C 0.9526 0.59527 0.06742 0.0
C1507 C 0.91184 0.60765 0.07184 0.0
C1508 C 0.91342 0.66654 0.13039 0.0
H1509 H 0.79094 0.68704 0.20043 0.0
H1510 H 0.81755 0.66035 0.17214 0.0
H1511 H 0.90764 0.69976 0.15895 0.0
H1512 H 0.97835 0.61543 0.10273 0.0
H1513 H 0.94956 0.64026 0.12989 0.0
H1514 H 0.86454 0.61656 0.10231 0.0
C1515 C 0.82665 0.68058 0.17517 0.0
C1516 C 0.89778 0.68196 0.14617 0.0
C1517 C 0.81133 0.69596 0.19201 0.0
C1518 C 0.9598 0.61293 0.09379 0.0
C1519 C 0.94325 0.62752 0.1092 0.0
C1520 C 0.87442 0.63487 0.11398 0.0
C1521 C 0.8533 0.69105 0.16334 0.0
C1522 C 0.8701 0.67439 0.14595 0.0
C1523 C 0.91912 0.62563 0.09827 0.0
C1524 C 0.9021 0.64249 0.11427 0.0
H1525 H 0.85787 0.75303 0.19126 0.0
H1526 H 0.88387 0.72692 0.15991 0.0
H1527 H 0.83775 0.64388 0.12767 0.0
H1528 H 0.92222 0.57933 0.03634 0.0
H1529 H 0.89379 0.60559 0.06208 0.0
C1530 C 0.30999 0.82799 0.17607 0.0
C1531 C 0.31406 0.82513 0.20628 0.0
C1532 C 0.32816 0.84685 0.15941 0.0
C1533 C 0.39869 0.88195 0.1559 0.0
H1534 H 0.38338 0.92613 0.10591 0.0
C1535 C 0.4829 0.96076 0.10395 0.0
C1536 C 0.48247 0.9654 0.07326 0.0
C1537 C 0.46055 0.94549 0.12004 0.0
C1538 C 0.38799 0.91375 0.11952 0.0
H1539 H 0.33891 0.84098 0.2437 0.0
H1540 H 0.37017 0.87362 0.21509 0.0
H1541 H 0.3469 0.89593 0.13373 0.0
H1542 H 0.45782 0.95818 0.03571 0.0
H1543 H 0.41892 0.93092 0.06351 0.0
H1544 H 0.43946 0.89899 0.14157 0.0
C1545 C 0.35352 0.86106 0.20376 0.0
C1546 C 0.36707 0.89647 0.13546 0.0
C1547 C 0.33556 0.84234 0.2202 0.0
C1548 C 0.45876 0.95511 0.05944 0.0
C1549 C 0.43641 0.93949 0.07543 0.0
C1550 C 0.41944 0.89896 0.13992 0.0
C1551 C 0.35063 0.86303 0.17278 0.0
C1552 C 0.37225 0.88067 0.15426 0.0
C1553 C 0.4372 0.934 0.10571 0.0
C1554 C 0.41451 0.91543 0.12188 0.0
H1555 H 0.29355 0.81494 0.1648 0.0
H1556 H 0.32534 0.84794 0.13559 0.0
H1557 H 0.4034 0.86961 0.1695 0.0
H1558 H 0.50071 0.96863 0.11544 0.0
H1559 H 0.46176 0.9424 0.14365 0.0
C1560 C 0.72386 0.22314 0.17063 0.0
C1561 C 0.73887 0.21463 0.18798 0.0
C1562 C 0.70585 0.20592 0.15173 0.0
C1563 C 0.66567 0.13913 0.14321 0.0
H1564 H 0.65468 0.15424 0.06323 0.0
C1565 C 0.59094 0.06821 0.06492 0.0
C1566 C 0.5751 0.07825 0.05068 0.0
C1567 C 0.61238 0.08421 0.07989 0.0
C1568 C 0.65733 0.14982 0.08565 0.0
H1569 H 0.74714 0.18128 0.19836 0.0
H1570 H 0.71595 0.15129 0.16507 0.0
H1571 H 0.68986 0.18319 0.09201 0.0
H1572 H 0.56975 0.11309 0.04076 0.0
H1573 H 0.6069 0.14092 0.0671 0.0
H1574 H 0.63294 0.10596 0.13708 0.0
C1575 C 0.71789 0.17129 0.1664 0.0
C1576 C 0.67753 0.16642 0.10214 0.0
C1577 C 0.73597 0.18852 0.18526 0.0
C1578 C 0.58149 0.10467 0.05142 0.0
C1579 C 0.60294 0.12065 0.06639 0.0
C1580 C 0.64545 0.12254 0.12672 0.0
C1581 C 0.70235 0.17975 0.14971 0.0
C1582 C 0.68182 0.1614 0.13127 0.0
C1583 C 0.61858 0.11065 0.08098 0.0
C1584 C 0.64086 0.12778 0.09785 0.0
H1585 H 0.72554 0.2431 0.17219 0.0
H1586 H 0.69402 0.21312 0.13952 0.0
H1587 H 0.66812 0.13484 0.16578 0.0
H1588 H 0.58673 0.04796 0.06466 0.0
H1589 H 0.6242 0.07582 0.09048 0.0
C1590 C 0.74441 0.68473 0.80183 0.0
C1591 C 0.73379 0.70264 0.79365 0.0
C1592 C 0.72813 0.66429 0.817 0.0
C1593 C 0.69166 0.63163 0.86528 0.0
H1594 H 0.62195 0.59801 0.8397 0.0
C1595 C 0.60818 0.56376 0.93895 0.0
C1596 C 0.59026 0.54364 0.92273 0.0
C1597 C 0.62825 0.58118 0.92246 0.0
C1598 C 0.64148 0.60694 0.84692 0.0
H1599 H 0.69788 0.71361 0.79589 0.0
H1600 H 0.66948 0.67795 0.8222 0.0
H1601 H 0.65139 0.63234 0.81209 0.0
H1602 H 0.58079 0.52483 0.87649 0.0
H1603 H 0.61606 0.55481 0.84786 0.0
H1604 H 0.6817 0.60603 0.90004 0.0
C1605 C 0.69031 0.67938 0.81633 0.0
C1606 C 0.65823 0.62689 0.83134 0.0
C1607 C 0.70658 0.69981 0.80121 0.0
C1608 C 0.59407 0.54027 0.88972 0.0
C1609 C 0.61416 0.55758 0.87329 0.0
C1610 C 0.67485 0.61165 0.88093 0.0
C1611 C 0.70087 0.66134 0.82438 0.0
C1612 C 0.68345 0.6396 0.84046 0.0
C1613 C 0.63089 0.57874 0.88944 0.0
C1614 C 0.64951 0.59913 0.872 0.0
H1615 H 0.76532 0.68641 0.79635 0.0
H1616 H 0.73686 0.65061 0.82259 0.0
H1617 H 0.71089 0.64117 0.87307 0.0
H1618 H 0.60576 0.56698 0.96438 0.0
H1619 H 0.64072 0.5973 0.93566 0.0
C1620 C 0.33741 0.63394 0.85279 0.0
C1621 C 0.34636 0.65052 0.8297 0.0
C1622 C 0.35528 0.62566 0.86554 0.0
C1623 C 0.42457 0.62126 0.84924 0.0
H1624 H 0.40821 0.59987 0.93229 0.0
C1625 C 0.49449 0.58433 0.90695 0.0
C1626 C 0.48177 0.56081 0.91773 0.0
C1627 C 0.47963 0.59806 0.89753 0.0
C1628 C 0.41326 0.60623 0.90929 0.0
H1629 H 0.38156 0.67129 0.80205 0.0
H1630 H 0.41245 0.65893 0.82621 0.0
H1631 H 0.37967 0.62021 0.91476 0.0
H1632 H 0.44388 0.53327 0.92777 0.0
H1633 H 0.41804 0.55748 0.91228 0.0
H1634 H 0.45869 0.60786 0.8445 0.0
C1635 C 0.39158 0.65141 0.83371 0.0
C1636 C 0.39665 0.61747 0.89893 0.0
C1637 C 0.37372 0.65902 0.82029 0.0
C1638 C 0.45415 0.5513 0.91926 0.0
C1639 C 0.43934 0.56523 0.91072 0.0
C1640 C 0.44164 0.61079 0.86006 0.0
C1641 C 0.38264 0.63424 0.85609 0.0
C1642 C 0.40168 0.62455 0.86842 0.0
C1643 C 0.45191 0.58868 0.89975 0.0
C1644 C 0.43582 0.60272 0.88991 0.0
H1645 H 0.31659 0.62722 0.86105 0.0
H1646 H 0.34746 0.61211 0.88233 0.0
H1647 H 0.42894 0.62587 0.82536 0.0
H1648 H 0.51579 0.59196 0.90568 0.0
H1649 H 0.48968 0.61618 0.88917 0.0
C1650 C 0.34745 0.33807 0.80229 0.0
C1651 C 0.34184 0.31156 0.79885 0.0
C1652 C 0.36649 0.3534 0.8214 0.0
C1653 C 0.4017 0.35239 0.88789 0.0
H1654 H 0.45075 0.41363 0.85944 0.0
C1655 C 0.48932 0.41497 0.95655 0.0
C1656 C 0.49563 0.4413 0.95649 0.0
C1657 C 0.47049 0.3984 0.93785 0.0
C1658 C 0.43701 0.39678 0.86802 0.0
H1659 H 0.35204 0.2805 0.81301 0.0
H1660 H 0.38504 0.3072 0.84624 0.0
H1661 H 0.4182 0.38666 0.82585 0.0
H1662 H 0.48609 0.4708 0.93774 0.0
H1663 H 0.45323 0.44227 0.90614 0.0
H1664 H 0.42034 0.36269 0.93026 0.0
C1665 C 0.37463 0.31613 0.83431 0.0
C1666 C 0.41833 0.38127 0.84866 0.0
C1667 C 0.35575 0.30082 0.81506 0.0
C1668 C 0.48211 0.45063 0.93808 0.0
C1669 C 0.46329 0.43419 0.91969 0.0
C1670 C 0.42033 0.36801 0.90739 0.0
C1671 C 0.38024 0.34262 0.83777 0.0
C1672 C 0.40034 0.35894 0.85837 0.0
C1673 C 0.45747 0.40783 0.91883 0.0
C1674 C 0.43813 0.39053 0.89782 0.0
H1675 H 0.33686 0.34702 0.79064 0.0
H1676 H 0.37007 0.37373 0.82384 0.0
H1677 H 0.38797 0.33544 0.89626 0.0
H1678 H 0.49937 0.40716 0.97043 0.0
H1679 H 0.46665 0.37821 0.93771 0.0
C1680 C 0.68121 0.30345 0.90782 0.0
C1681 C 0.69934 0.31166 0.88181 0.0
C1682 C 0.68165 0.31888 0.93656 0.0
C1683 C 0.70161 0.38772 0.95804 0.0
H1684 H 0.65143 0.36707 0.0302 0.0
C1685 C 0.60288 0.40853 0.00795 0.0
C1686 C 0.60996 0.43503 0.01002 0.0
C1687 C 0.62197 0.39619 0.00786 0.0
C1688 C 0.66598 0.37332 0.01063 0.0
H1689 H 0.73531 0.34083 0.86802 0.0
H1690 H 0.73749 0.36595 0.91846 0.0
H1691 H 0.67513 0.33797 1.00075 0.0
H1692 H 0.64213 0.46952 0.01638 0.0
H1693 H 0.67573 0.44778 0.01523 0.0
H1694 H 0.69161 0.42252 0.96702 0.0
C1695 C 0.72159 0.34853 0.91604 0.0
C1696 C 0.67938 0.35657 0.99349 0.0
C1697 C 0.72054 0.33367 0.88692 0.0
C1698 C 0.63618 0.44903 0.01415 0.0
C1699 C 0.65536 0.43664 0.01381 0.0
C1700 C 0.68865 0.40456 0.9755 0.0
C1701 C 0.70082 0.34256 0.94031 0.0
C1702 C 0.69557 0.36276 0.96534 0.0
C1703 C 0.64857 0.41008 0.00964 0.0
C1704 C 0.66916 0.39675 1.00037 0.0
H1705 H 0.66545 0.28593 0.90554 0.0
H1706 H 0.66543 0.31309 0.95463 0.0
H1707 H 0.71392 0.39361 0.93678 0.0
H1708 H 0.58274 0.39721 0.00537 0.0
H1709 H 0.61615 0.3757 0.00421 0.0
C1710 C 0.67522 0.35118 0.18875 0.0
C1711 C 0.69982 0.3521 0.17101 0.0
C1712 C 0.65603 0.35795 0.17674 0.0
C1713 C 0.63673 0.3731 0.10575 0.0
H1714 H 0.61162 0.42291 0.16528 0.0
C1715 C 0.56797 0.42852 0.07835 0.0
C1716 C 0.57834 0.45488 0.08532 0.0
C1717 C 0.57925 0.41209 0.08852 0.0
C1718 C 0.61829 0.40888 0.1485 0.0
H1719 H 0.72289 0.35924 0.12592 0.0
H1720 H 0.68954 0.37201 0.10531 0.0
H1721 H 0.6377 0.39973 0.18227 0.0
H1722 H 0.60819 0.48461 0.10905 0.0
H1723 H 0.62736 0.45601 0.12715 0.0
H1724 H 0.6179 0.38322 0.07173 0.0
C1725 C 0.68507 0.3657 0.12838 0.0
C1726 C 0.63302 0.39544 0.15825 0.0
C1727 C 0.7043 0.35877 0.14035 0.0
C1728 C 0.59963 0.46443 0.10336 0.0
C1729 C 0.61064 0.44807 0.11376 0.0
C1730 C 0.62174 0.3865 0.09602 0.0
C1731 C 0.66109 0.36606 0.14688 0.0
C1732 C 0.64286 0.37779 0.13686 0.0
C1733 C 0.60066 0.42181 0.10632 0.0
C1734 C 0.61305 0.40496 0.11718 0.0
H1735 H 0.67115 0.34637 0.21254 0.0
H1736 H 0.63758 0.35777 0.19136 0.0
H1737 H 0.64394 0.35946 0.08888 0.0
H1738 H 0.55153 0.42061 0.06453 0.0
H1739 H 0.57124 0.39185 0.08259 0.0
C1740 C 0.70198 0.72758 0.19183 0.0
C1741 C 0.71887 0.71818 0.20521 0.0
C1742 C 0.68348 0.71144 0.17263 0.0
C1743 C 0.64564 0.64492 0.15415 0.0
H1744 H 0.64217 0.6643 0.07352 0.0
C1745 C 0.5858 0.57371 0.06245 0.0
C1746 C 0.57218 0.58226 0.04335 0.0
C1747 C 0.60362 0.5908 0.08159 0.0
C1748 C 0.64251 0.6587 0.09612 0.0
H1749 H 0.72924 0.6842 0.20889 0.0
H1750 H 0.69625 0.65591 0.1764 0.0
H1751 H 0.67243 0.69296 0.10898 0.0
H1752 H 0.56703 0.61566 0.02906 0.0
H1753 H 0.59771 0.64573 0.06325 0.0
H1754 H 0.61544 0.61101 0.14192 0.0
C1755 C 0.69743 0.67585 0.18076 0.0
C1756 C 0.65997 0.67514 0.11642 0.0
C1757 C 0.71624 0.69206 0.19958 0.0
C1758 C 0.57728 0.60847 0.04341 0.0
C1759 C 0.59496 0.62569 0.06298 0.0
C1760 C 0.62797 0.62865 0.13408 0.0
C1761 C 0.68108 0.6854 0.16671 0.0
C1762 C 0.66191 0.66832 0.14555 0.0
C1763 C 0.60815 0.61707 0.08268 0.0
C1764 C 0.62634 0.63511 0.10455 0.0
H1765 H 0.70337 0.74758 0.1957 0.0
H1766 H 0.67098 0.71934 0.16245 0.0
H1767 H 0.64637 0.63929 0.17662 0.0
H1768 H 0.58268 0.55364 0.06271 0.0
H1769 H 0.61387 0.5833 0.09556 0.0
C1770 C 0.39137 0.73377 0.08338 0.0
C1771 C 0.37738 0.71996 0.10796 0.0
C1772 C 0.39307 0.72161 0.05273 0.0
C1773 C 0.37874 0.65618 0.0075 0.0
H1774 H 0.45521 0.6761 0.99534 0.0
C1775 C 0.43738 0.58585 0.99892 0.0
C1776 C 0.46449 0.59304 0.98865 0.0
C1777 C 0.42211 0.60189 0.99737 0.0
C1778 C 0.43384 0.67017 0.99718 0.0
H1779 H 0.35161 0.68381 0.12 0.0
H1780 H 0.35598 0.66208 0.06724 0.0
H1781 H 0.43305 0.7063 0.02044 0.0
H1782 H 0.4964 0.62082 0.9654 0.0
H1783 H 0.4695 0.64746 0.96 0.0
H1784 H 0.38009 0.61926 0.98572 0.0
C1785 C 0.36503 0.68233 0.07081 0.0
C1786 C 0.4209 0.68783 0.01177 0.0
C1787 C 0.36277 0.69466 0.10125 0.0
C1788 C 0.47562 0.61523 0.97434 0.0
C1789 C 0.46019 0.63056 0.97136 0.0
C1790 C 0.39177 0.63841 0.99259 0.0
C1791 C 0.38181 0.69526 0.04664 0.0
C1792 C 0.39334 0.68049 0.01957 0.0
C1793 C 0.4336 0.62493 0.9845 0.0
C1794 C 0.41954 0.64475 0.9896 0.0
H1795 H 0.40225 0.75353 0.08816 0.0
H1796 H 0.4054 0.73231 0.03445 0.0
H1797 H 0.35738 0.65018 0.01216 0.0
H1798 H 0.42837 0.56863 0.00975 0.0
H1799 H 0.40176 0.59687 0.00794 0.0
C1800 C 0.3177 0.3419 0.19708 0.0
C1801 C 0.32779 0.32351 0.20501 0.0
C1802 C 0.33451 0.36253 0.18263 0.0
C1803 C 0.40492 0.39907 0.16987 0.0
H1804 H 0.38373 0.42087 0.10023 0.0
C1805 C 0.47315 0.48372 0.11088 0.0
C1806 C 0.47719 0.47997 0.07789 0.0
C1807 C 0.45221 0.46724 0.12738 0.0
C1808 C 0.38993 0.41499 0.11963 0.0
H1809 H 0.36327 0.3119 0.20304 0.0
H1810 H 0.39255 0.34784 0.17807 0.0
H1811 H 0.35316 0.38627 0.12703 0.0
H1812 H 0.46133 0.45687 0.0363 0.0
H1813 H 0.42493 0.42792 0.06514 0.0
H1814 H 0.44195 0.42705 0.16193 0.0
C1815 C 0.37176 0.34668 0.18361 0.0
C1816 C 0.37233 0.39533 0.13517 0.0
C1817 C 0.35497 0.32607 0.19797 0.0
C1818 C 0.45875 0.46034 0.06172 0.0
C1819 C 0.43785 0.44374 0.07827 0.0
C1820 C 0.42246 0.41869 0.1544 0.0
C1821 C 0.36175 0.36517 0.17577 0.0
C1822 C 0.37976 0.38695 0.16024 0.0
C1823 C 0.43487 0.44651 0.11132 0.0
C1824 C 0.41529 0.42677 0.12892 0.0
H1825 H 0.29681 0.34042 0.20216 0.0
H1826 H 0.32621 0.37655 0.17713 0.0
H1827 H 0.41116 0.3933 0.18933 0.0
H1828 H 0.48681 0.49883 0.12406 0.0
H1829 H 0.45011 0.47028 0.15281 0.0
C1830 C 0.81546 0.69357 0.6841 0.0
C1831 C 0.82721 0.71623 0.70256 0.0
C1832 C 0.83066 0.67802 0.66731 0.0
C1833 C 0.90124 0.678 0.63932 0.0
H1834 H 0.87101 0.60515 0.62788 0.0
C1835 C 0.9659 0.60923 0.59922 0.0
C1836 C 0.95673 0.58747 0.57798 0.0
C1837 C 0.94979 0.62491 0.61218 0.0
C1838 C 0.87972 0.62548 0.63051 0.0
H1839 H 0.86451 0.73967 0.7182 0.0
H1840 H 0.89065 0.71239 0.69015 0.0
H1841 H 0.84385 0.63202 0.65505 0.0
H1842 H 0.92315 0.56557 0.55349 0.0
H1843 H 0.89489 0.59288 0.57634 0.0
H1844 H 0.93728 0.67134 0.61543 0.0
C1845 C 0.86977 0.70689 0.68762 0.0
C1846 C 0.86407 0.64102 0.64614 0.0
C1847 C 0.85462 0.72255 0.70411 0.0
C1848 C 0.93093 0.58207 0.5698 0.0
C1849 C 0.91465 0.59769 0.58307 0.0
C1850 C 0.91691 0.66247 0.62399 0.0
C1851 C 0.85814 0.68436 0.66875 0.0
C1852 C 0.87458 0.6676 0.65108 0.0
C1853 C 0.92382 0.61934 0.60457 0.0
C1854 C 0.90651 0.63593 0.61952 0.0
H1855 H 0.7944 0.68764 0.68272 0.0
H1856 H 0.82076 0.66108 0.65296 0.0
H1857 H 0.91012 0.69829 0.64173 0.0
H1858 H 0.98561 0.61414 0.60615 0.0
H1859 H 0.95757 0.64118 0.62883 0.0
C1860 C 0.35892 0.82468 0.70526 0.0
C1861 C 0.33567 0.81037 0.6923 0.0
C1862 C 0.37635 0.84492 0.69106 0.0
C1863 C 0.39556 0.87271 0.61642 0.0
H1864 H 0.43014 0.93216 0.67036 0.0
C1865 C 0.46272 0.98235 0.60679 0.0
C1866 C 0.47996 0.9788 0.57956 0.0
C1867 C 0.44578 0.96165 0.62077 0.0
C1868 C 0.42055 0.91581 0.65491 0.0
H1869 H 0.31203 0.80648 0.65464 0.0
H1870 H 0.34236 0.84261 0.62999 0.0
H1871 H 0.39767 0.89708 0.69356 0.0
H1872 H 0.49363 0.95057 0.54647 0.0
H1873 H 0.46451 0.91444 0.57146 0.0
H1874 H 0.41791 0.89191 0.57769 0.0
C1875 C 0.34735 0.83764 0.65084 0.0
C1876 C 0.40212 0.89554 0.66824 0.0
C1877 C 0.32989 0.81712 0.66506 0.0
C1878 C 0.48057 0.95403 0.56738 0.0
C1879 C 0.46368 0.93329 0.5815 0.0
C1880 C 0.41394 0.8931 0.60304 0.0
C1881 C 0.3708 0.85176 0.66374 0.0
C1882 C 0.38952 0.87367 0.64919 0.0
C1883 C 0.44577 0.93685 0.60806 0.0
C1884 C 0.42669 0.91488 0.62215 0.0
H1885 H 0.36364 0.82045 0.72668 0.0
H1886 H 0.39434 0.85511 0.70145 0.0
H1887 H 0.38638 0.85605 0.6011 0.0
H1888 H 0.46156 1.00111 0.61678 0.0
H1889 H 0.43206 0.96511 0.64097 0.0
C1890 C 0.2226 0.35415 0.62399 0.0
C1891 C 0.22603 0.33152 0.60693 0.0
C1892 C 0.2052 0.36554 0.61553 0.0
C1893 C 0.14845 0.35518 0.57162 0.0
H1894 H 0.17795 0.42679 0.56426 0.0
C1895 C 0.0971 0.41383 0.5162 0.0
C1896 C 0.10084 0.43918 0.52927 0.0
C1897 C 0.11023 0.39886 0.52654 0.0
C1898 C 0.16915 0.40689 0.56666 0.0
H1899 H 0.21295 0.30247 0.56853 0.0
H1900 H 0.18248 0.32249 0.5537 0.0
H1901 H 0.20428 0.40409 0.58155 0.0
H1902 H 0.11956 0.46832 0.56461 0.0
H1903 H 0.14134 0.4422 0.58351 0.0
H1904 H 0.11311 0.35816 0.55698 0.0
C1905 C 0.19333 0.33138 0.57359 0.0
C1906 C 0.18433 0.39387 0.57651 0.0
C1907 C 0.21093 0.32006 0.5819 0.0
C1908 C 0.11667 0.44891 0.55382 0.0
C1909 C 0.12932 0.43397 0.56447 0.0
C1910 C 0.13306 0.36833 0.562 0.0
C1911 C 0.19069 0.3545 0.58994 0.0
C1912 C 0.17414 0.36794 0.57932 0.0
C1913 C 0.12701 0.40901 0.55035 0.0
C1914 C 0.14317 0.39443 0.55969 0.0
H1915 H 0.23405 0.36353 0.64325 0.0
H1916 H 0.20335 0.38324 0.62876 0.0
H1917 H 0.1401 0.33517 0.57362 0.0
H1918 H 0.08509 0.40599 0.49707 0.0
H1919 H 0.10807 0.37975 0.51507 0.0
C1920 C 0.75935 0.18868 0.65927 0.0
C1921 C 0.74737 0.20122 0.68547 0.0
C1922 C 0.74379 0.16947 0.63943 0.0
C1923 C 0.67639 0.12481 0.63866 0.0
H1924 H 0.69044 0.12214 0.54801 0.0
C1925 C 0.59718 0.0688 0.55902 0.0
C1926 C 0.6046 0.05301 0.53279 0.0
C1927 C 0.61628 0.08629 0.57616 0.0
C1928 C 0.68645 0.12251 0.57329 0.0
H1929 H 0.70971 0.20322 0.71147 0.0
H1930 H 0.68292 0.17042 0.67694 0.0
H1931 H 0.72132 0.15328 0.5811 0.0
H1932 H 0.63811 0.04397 0.50332 0.0
H1933 H 0.67152 0.07478 0.53329 0.0
H1934 H 0.64133 0.09452 0.63104 0.0
C1935 C 0.70422 0.17505 0.67176 0.0
C1936 C 0.70416 0.14027 0.59222 0.0
C1937 C 0.71965 0.19411 0.69142 0.0
C1938 C 0.63169 0.05577 0.52347 0.0
C1939 C 0.65085 0.07346 0.54055 0.0
C1940 C 0.65871 0.10725 0.61983 0.0
C1941 C 0.71602 0.16236 0.64562 0.0
C1942 C 0.699 0.14194 0.62516 0.0
C1943 C 0.64329 0.08857 0.56741 0.0
C1944 C 0.66324 0.10621 0.58697 0.0
H1945 H 0.78068 0.19372 0.65414 0.0
H1946 H 0.75348 0.15995 0.61954 0.0
H1947 H 0.67215 0.12516 0.66393 0.0
H1948 H 0.57654 0.06734 0.56679 0.0
H1949 H 0.60987 0.09799 0.59644 0.0
C1950 C 0.83282 0.30383 0.34148 0.0
C1951 C 0.81929 0.31248 0.32233 0.0
C1952 C 0.84852 0.32091 0.363 0.0
C1953 C 0.8581 0.38102 0.41149 0.0
H1954 H 0.93367 0.39074 0.39367 0.0
C1955 C 0.93247 0.47045 0.4642 0.0
C1956 C 0.95749 0.46941 0.46885 0.0
C1957 C 0.91471 0.44933 0.44982 0.0
C1958 C 0.91263 0.38798 0.39965 0.0
H1959 H 0.81179 0.34596 0.31098 0.0
H1960 H 0.83789 0.37531 0.34978 0.0
H1961 H 0.90357 0.35666 0.36339 0.0
H1962 H 0.98315 0.44519 0.46357 0.0
H1963 H 0.95171 0.40788 0.43993 0.0
H1964 H 0.86673 0.41182 0.44809 0.0
C1965 C 0.83638 0.35535 0.34789 0.0
C1966 C 0.89544 0.36849 0.3821 0.0
C1967 C 0.82128 0.33846 0.32584 0.0
C1968 C 0.96408 0.44659 0.45986 0.0
C1969 C 0.94608 0.42525 0.44611 0.0
C1970 C 0.87521 0.40015 0.42955 0.0
C1971 C 0.8504 0.34678 0.3663 0.0
C1972 C 0.86812 0.36523 0.38747 0.0
C1973 C 0.92127 0.42642 0.44037 0.0
C1974 C 0.90281 0.40434 0.42339 0.0
H1975 H 0.8318 0.28398 0.3393 0.0
H1976 H 0.8593 0.31396 0.37697 0.0
H1977 H 0.83702 0.37871 0.41606 0.0
H1978 H 0.92694 0.48788 0.4707 0.0
H1979 H 0.89615 0.45133 0.4453 0.0
C1980 C 0.71558 0.81618 0.27969 0.0
C1981 C 0.73055 0.80699 0.29639 0.0
C1982 C 0.70019 0.83201 0.29512 0.0
C1983 C 0.68873 0.87197 0.37257 0.0
H1984 H 0.62554 0.87046 0.33845 0.0
C1985 C 0.62612 0.94209 0.42584 0.0
C1986 C 0.59877 0.93415 0.42345 0.0
C1987 C 0.64249 0.92689 0.41111 0.0
C1988 C 0.64289 0.87103 0.34878 0.0
H1989 H 0.74097 0.808 0.34276 0.0
H1990 H 0.7132 0.83393 0.36986 0.0
H1991 H 0.65222 0.84335 0.31226 0.0
H1992 H 0.56724 0.90319 0.40469 0.0
H1993 H 0.59516 0.87662 0.38035 0.0
H1994 H 0.67863 0.89885 0.40992 0.0
C1995 C 0.71375 0.82961 0.34461 0.0
C1996 C 0.65866 0.85563 0.33322 0.0
C1997 C 0.72948 0.81416 0.32905 0.0
C1998 C 0.58822 0.91022 0.40682 0.0
C1999 C 0.60444 0.89496 0.39246 0.0
C2000 C 0.67275 0.88717 0.38836 0.0
C2001 C 0.69882 0.83899 0.32798 0.0
C2002 C 0.68194 0.85574 0.34474 0.0
C2003 C 0.632 0.90311 0.39378 0.0
C2004 C 0.64945 0.88698 0.37683 0.0
H2005 H 0.71586 0.81129 0.25449 0.0
H2006 H 0.68965 0.83903 0.28098 0.0
H2007 H 0.7066 0.87321 0.38224 0.0
H2008 H 0.63504 0.96036 0.43841 0.0
H2009 H 0.66352 0.93418 0.4127 0.0
C2010 C 0.21279 0.70019 0.29722 0.0
C2011 C 0.22128 0.7252 0.31172 0.0
C2012 C 0.19465 0.68143 0.31334 0.0
C2013 C 0.14201 0.66763 0.3783 0.0
H2014 H 0.16236 0.60578 0.37118 0.0
C2015 C 0.08132 0.57977 0.44273 0.0
C2016 C 0.08062 0.55575 0.42611 0.0
C2017 C 0.09705 0.6019 0.43029 0.0
C2018 C 0.15614 0.62275 0.37314 0.0
H2019 H 0.21597 0.75046 0.35412 0.0
H2020 H 0.18339 0.71737 0.38246 0.0
H2021 H 0.19233 0.64208 0.34773 0.0
H2022 H 0.09478 0.5364 0.3825 0.0
H2023 H 0.12153 0.57471 0.36068 0.0
H2024 H 0.10549 0.64794 0.40336 0.0
C2025 C 0.19134 0.71241 0.35857 0.0
C2026 C 0.17343 0.64364 0.35982 0.0
C2027 C 0.20993 0.73132 0.34237 0.0
C2028 C 0.09501 0.55449 0.39616 0.0
C2029 C 0.11057 0.57653 0.38372 0.0
C2030 C 0.12453 0.64655 0.39161 0.0
C2031 C 0.18409 0.68712 0.3444 0.0
C2032 C 0.16641 0.66615 0.36165 0.0
C2033 C 0.1124 0.60052 0.40093 0.0
C2034 C 0.13119 0.62366 0.3886 0.0
H2035 H 0.22035 0.69491 0.27329 0.0
H2036 H 0.18898 0.66229 0.30146 0.0
H2037 H 0.13606 0.68473 0.38002 0.0
H2038 H 0.07058 0.58149 0.46593 0.0
H2039 H 0.09801 0.62002 0.44423 0.0
C2040 C 0.38945 0.22263 0.37575 0.0
C2041 C 0.36339 0.22121 0.38911 0.0
C2042 C 0.40291 0.2072 0.38428 0.0
C2043 C 0.39224 0.14708 0.41363 0.0
H2044 H 0.45928 0.17682 0.44764 0.0
C2045 C 0.43427 0.08844 0.4769 0.0
C2046 C 0.4617 0.09221 0.47365 0.0
C2047 C 0.42373 0.1049 0.46577 0.0
C2048 C 0.44082 0.1681 0.4377 0.0
H2049 H 0.33074 0.2023 0.42115 0.0
H2050 H 0.35396 0.17485 0.43537 0.0
H2051 H 0.43837 0.20378 0.42803 0.0
H2052 H 0.49971 0.11646 0.45666 0.0
H2053 H 0.48128 0.14489 0.43599 0.0
H2054 H 0.39463 0.11142 0.42239 0.0
C2055 C 0.36408 0.18806 0.41864 0.0
C2056 C 0.42884 0.18359 0.42657 0.0
C2057 C 0.35085 0.2038 0.41062 0.0
C2058 C 0.47848 0.11315 0.45953 0.0
C2059 C 0.46787 0.12947 0.44781 0.0
C2060 C 0.40436 0.13157 0.42422 0.0
C2061 C 0.39028 0.18973 0.40574 0.0
C2062 C 0.4042 0.17325 0.415 0.0
C2063 C 0.44029 0.12534 0.45043 0.0
C2064 C 0.42854 0.1419 0.43708 0.0
H2065 H 0.39955 0.23602 0.35922 0.0
H2066 H 0.42307 0.20874 0.37394 0.0
H2067 H 0.37342 0.13861 0.40438 0.0
H2068 H 0.42082 0.07269 0.48814 0.0
H2069 H 0.40248 0.1015 0.46924 0.0
C2070 C 0.67048 0.81406 0.63936 0.0
C2071 C 0.67251 0.8229 0.67136 0.0
C2072 C 0.66222 0.82748 0.62028 0.0
C2073 C 0.65563 0.89096 0.61593 0.0
H2074 H 0.60565 0.85502 0.55661 0.0
C2075 C 0.62601 0.94397 0.53168 0.0
C2076 C 0.59902 0.93778 0.52806 0.0
C2077 C 0.63551 0.92866 0.54644 0.0
C2078 C 0.61951 0.86533 0.57317 0.0
H2079 H 0.66814 0.85317 0.7081 0.0
H2080 H 0.65343 0.87627 0.6751 0.0
H2081 H 0.62136 0.83124 0.58815 0.0
H2082 H 0.56099 0.91 0.53602 0.0
H2083 H 0.57756 0.88328 0.5623 0.0
H2084 H 0.65334 0.92502 0.60175 0.0
C2085 C 0.65834 0.85907 0.66461 0.0
C2086 C 0.62875 0.8517 0.59099 0.0
C2087 C 0.66653 0.84566 0.68365 0.0
C2088 C 0.58189 0.91529 0.53846 0.0
C2089 C 0.59142 0.89995 0.55343 0.0
C2090 C 0.64644 0.90454 0.59815 0.0
C2091 C 0.65595 0.85011 0.63272 0.0
C2092 C 0.64681 0.86438 0.61275 0.0
C2093 C 0.61828 0.90676 0.55818 0.0
C2094 C 0.62822 0.89194 0.57657 0.0
H2095 H 0.67472 0.79648 0.62921 0.0
H2096 H 0.66085 0.82018 0.59574 0.0
H2097 H 0.66974 0.90136 0.63218 0.0
H2098 H 0.63986 0.96097 0.52355 0.0
H2099 H 0.65641 0.93417 0.54898 0.0
C2100 C 0.72516 0.21482 0.33515 0.0
C2101 C 0.73744 0.20945 0.30484 0.0
C2102 C 0.70522 0.19594 0.34942 0.0
C2103 C 0.65693 0.13384 0.32974 0.0
H2104 H 0.6513 0.12912 0.41874 0.0
C2105 C 0.59303 0.04592 0.38814 0.0
C2106 C 0.57979 0.04972 0.41838 0.0
C2107 C 0.60995 0.06644 0.37366 0.0
C2108 C 0.65237 0.13042 0.39394 0.0
H2109 H 0.73945 0.17977 0.26633 0.0
H2110 H 0.70535 0.14668 0.29159 0.0
H2111 H 0.68663 0.16252 0.39546 0.0
H2112 H 0.57301 0.07833 0.45644 0.0
H2113 H 0.60249 0.11407 0.43105 0.0
H2114 H 0.62296 0.10137 0.32818 0.0
C2115 C 0.7105 0.16565 0.304 0.0
C2116 C 0.67264 0.14955 0.38058 0.0
C2117 C 0.73033 0.18454 0.2897 0.0
C2118 C 0.58292 0.07465 0.43317 0.0
C2119 C 0.59997 0.09515 0.41875 0.0
C2120 C 0.63674 0.11464 0.34308 0.0
C2121 C 0.69735 0.17122 0.33378 0.0
C2122 C 0.67533 0.15134 0.34825 0.0
C2123 C 0.61411 0.09121 0.38915 0.0
C2124 C 0.63436 0.11259 0.37528 0.0
H2125 H 0.73042 0.2338 0.34752 0.0
H2126 H 0.69543 0.20095 0.37229 0.0
H2127 H 0.65806 0.13502 0.30489 0.0
H2128 H 0.59107 0.02701 0.37601 0.0
H2129 H 0.62067 0.06277 0.35092 0.0
C2130 C 0.88708 0.68081 0.32513 0.0
C2131 C 0.86007 0.67801 0.33448 0.0
C2132 C 0.90266 0.67552 0.3447 0.0
C2133 C 0.90207 0.66075 0.42633 0.0
H2134 H 0.95425 0.62712 0.38488 0.0
C2135 C 0.9368 0.59019 0.48 0.0
C2136 C 0.96387 0.59194 0.47572 0.0
C2137 C 0.92732 0.60621 0.4664 0.0
C2138 C 0.94008 0.63688 0.39682 0.0
H2139 H 0.82821 0.66788 0.37172 0.0
H2140 H 0.85488 0.65755 0.40534 0.0
H2141 H 0.93135 0.64421 0.35362 0.0
H2142 H 1.00244 0.61232 0.45482 0.0
H2143 H 0.98565 0.63996 0.42996 0.0
H2144 H 0.90978 0.65169 0.46941 0.0
C2145 C 0.86448 0.66462 0.38342 0.0
C2146 C 0.92692 0.6468 0.37891 0.0
C2147 C 0.84905 0.67039 0.36407 0.0
C2148 C 0.98149 0.61069 0.45856 0.0
C2149 C 0.97189 0.62637 0.44426 0.0
C2150 C 0.91491 0.65041 0.44417 0.0
C2151 C 0.89147 0.66677 0.37386 0.0
C2152 C 0.90735 0.65849 0.39332 0.0
C2153 C 0.94464 0.62397 0.44766 0.0
C2154 C 0.93373 0.63802 0.42953 0.0
H2155 H 0.89613 0.68698 0.30255 0.0
H2156 H 0.92343 0.67807 0.33673 0.0
H2157 H 0.88768 0.67014 0.43848 0.0
H2158 H 0.92282 0.57596 0.49325 0.0
H2159 H 0.90622 0.60381 0.46924 0.0
C2160 C 0.29767 0.8306 0.35523 0.0
C2161 C 0.30919 0.82353 0.32503 0.0
C2162 C 0.31312 0.84837 0.3766 0.0
C2163 C 0.38099 0.87204 0.39536 0.0
H2164 H 0.36645 0.9352 0.43184 0.0
C2165 C 0.46213 0.95711 0.44342 0.0
C2166 C 0.45559 0.9736 0.46935 0.0
C2167 C 0.44241 0.93753 0.42966 0.0
C2168 C 0.37058 0.91745 0.42239 0.0
H2169 H 0.34579 0.83006 0.29347 0.0
H2170 H 0.37247 0.8602 0.3307 0.0
H2171 H 0.33425 0.90314 0.4014 0.0
H2172 H 0.42312 0.98195 0.50172 0.0
H2173 H 0.38875 0.94741 0.47811 0.0
H2174 H 0.41719 0.88601 0.41599 0.0
C2175 C 0.35162 0.85209 0.33792 0.0
C2176 C 0.35212 0.89915 0.40495 0.0
C2177 C 0.33624 0.83482 0.31657 0.0
C2178 C 0.42886 0.96968 0.48163 0.0
C2179 C 0.40911 0.94996 0.46798 0.0
C2180 C 0.39924 0.89012 0.41303 0.0
C2181 C 0.34034 0.85886 0.3682 0.0
C2182 C 0.35755 0.87661 0.39059 0.0
C2183 C 0.41561 0.93373 0.44165 0.0
C2184 C 0.39467 0.91338 0.42602 0.0
H2185 H 0.27693 0.82209 0.36255 0.0
H2186 H 0.304 0.85338 0.39988 0.0
H2187 H 0.38545 0.85463 0.3848 0.0
H2188 H 0.48249 0.95962 0.43325 0.0
H2189 H 0.44819 0.92576 0.40907 0.0
C2190 C 0.20526 0.30115 0.29716 0.0
C2191 C 0.23308 0.30951 0.29397 0.0
C2192 C 0.1901 0.31684 0.31359 0.0
C2193 C 0.19183 0.37299 0.37374 0.0
H2194 H 0.13191 0.37612 0.33639 0.0
C2195 C 0.13037 0.44434 0.42734 0.0
C2196 C 0.10343 0.43741 0.42291 0.0
C2197 C 0.14664 0.42894 0.4129 0.0
C2198 C 0.14821 0.37527 0.34769 0.0
H2199 H 0.26658 0.34108 0.30675 0.0
H2200 H 0.24019 0.36807 0.33616 0.0
H2201 H 0.15872 0.34906 0.30968 0.0
H2202 H 0.07242 0.40793 0.40096 0.0
H2203 H 0.10007 0.38102 0.3771 0.0
H2204 H 0.18105 0.39885 0.41209 0.0
C2205 C 0.23005 0.34939 0.32559 0.0
C2206 C 0.16377 0.3597 0.33212 0.0
C2207 C 0.24524 0.33384 0.30867 0.0
C2208 C 0.09311 0.41422 0.40462 0.0
C2209 C 0.1092 0.39877 0.39056 0.0
C2210 C 0.17604 0.3884 0.38958 0.0
C2211 C 0.20221 0.34128 0.32798 0.0
C2212 C 0.1858 0.35821 0.34486 0.0
C2213 C 0.13642 0.40598 0.39382 0.0
C2214 C 0.15381 0.38977 0.37692 0.0
H2215 H 0.19507 0.28229 0.28728 0.0
H2216 H 0.16875 0.30963 0.31536 0.0
H2217 H 0.20848 0.37225 0.3845 0.0
H2218 H 0.13908 0.462 0.44128 0.0
H2219 H 0.16742 0.43547 0.41606 0.0
C2220 C 0.31878 0.19077 0.70444 0.0
C2221 C 0.3264 0.21714 0.70372 0.0
C2222 C 0.33464 0.17575 0.68778 0.0
C2223 C 0.40383 0.1806 0.64804 0.0
H2224 H 0.37252 0.11074 0.61554 0.0
C2225 C 0.46907 0.11345 0.60033 0.0
C2226 C 0.46141 0.09374 0.57596 0.0
C2227 C 0.45235 0.12827 0.61442 0.0
C2228 C 0.38173 0.13029 0.62406 0.0
H2229 H 0.35741 0.24819 0.6851 0.0
H2230 H 0.38405 0.22225 0.655 0.0
H2231 H 0.34415 0.13661 0.6418 0.0
H2232 H 0.42981 0.0746 0.54722 0.0
H2233 H 0.40092 0.10092 0.57107 0.0
H2234 H 0.44128 0.17466 0.6294 0.0
C2235 C 0.36609 0.21296 0.66889 0.0
C2236 C 0.36534 0.14515 0.63971 0.0
C2237 C 0.35043 0.22796 0.68586 0.0
C2238 C 0.43646 0.08954 0.5659 0.0
C2239 C 0.41974 0.1046 0.57986 0.0
C2240 C 0.42015 0.16584 0.63221 0.0
C2241 C 0.35865 0.18655 0.66964 0.0
C2242 C 0.37607 0.17058 0.65221 0.0
C2243 C 0.42735 0.12423 0.60452 0.0
C2244 C 0.4095 0.1403 0.62018 0.0
H2245 H 0.30053 0.18163 0.718 0.0
H2246 H 0.32819 0.15566 0.68965 0.0
H2247 H 0.41321 0.19985 0.65748 0.0
H2248 H 0.48797 0.11728 0.60904 0.0
H2249 H 0.45899 0.14265 0.63365 0.0
C2250 C 0.84028 0.29791 0.65519 0.0
C2251 C 0.84525 0.29169 0.68327 0.0
C2252 C 0.85854 0.31752 0.64004 0.0
C2253 C 0.91216 0.37593 0.65863 0.0
H2254 H 0.92427 0.37687 0.56843 0.0
C2255 C 0.98123 0.4445 0.56012 0.0
C2256 C 0.97837 0.46807 0.5749 0.0
C2257 C 0.96677 0.42204 0.5727 0.0
C2258 C 0.92136 0.37686 0.59366 0.0
H2259 H 0.8743 0.29985 0.71602 0.0
H2260 H 0.9062 0.33357 0.68946 0.0
H2261 H 0.89648 0.33852 0.5902 0.0
H2262 H 0.95823 0.48626 0.61494 0.0
H2263 H 0.93318 0.44738 0.6366 0.0
H2264 H 0.93711 0.41409 0.66222 0.0
C2265 C 0.88789 0.32386 0.67953 0.0
C2266 C 0.90515 0.35492 0.60617 0.0
C2267 C 0.86969 0.30427 0.6946 0.0
C2268 C 0.96111 0.46856 0.6029 0.0
C2269 C 0.94676 0.44618 0.61547 0.0
C2270 C 0.9283 0.3978 0.64616 0.0
C2271 C 0.88224 0.3313 0.65259 0.0
C2272 C 0.90026 0.35419 0.63886 0.0
C2273 C 0.94918 0.42256 0.60044 0.0
C2274 C 0.93299 0.39868 0.61352 0.0
H2275 H 0.82179 0.28832 0.64561 0.0
H2276 H 0.85343 0.32268 0.61939 0.0
H2277 H 0.90857 0.37629 0.68392 0.0
H2278 H 0.99421 0.4433 0.53846 0.0
H2279 H 0.96939 0.40426 0.56066 0.0
C2280 C 0.2429 0.68333 0.678 0.0
C2281 C 0.2523 0.70878 0.67235 0.0
C2282 C 0.22656 0.66532 0.65807 0.0
C2283 C 0.17904 0.65914 0.60297 0.0
H2284 H 0.18623 0.59122 0.58136 0.0
C2285 C 0.13049 0.55841 0.5232 0.0
C2286 C 0.10339 0.55532 0.53264 0.0
C2287 C 0.14956 0.57834 0.53751 0.0
C2288 C 0.18406 0.61015 0.5869 0.0
H2289 H 0.25308 0.73501 0.64033 0.0
H2290 H 0.22421 0.70342 0.60543 0.0
H2291 H 0.21903 0.62352 0.6102 0.0
H2292 H 0.07513 0.57137 0.56389 0.0
H2293 H 0.10851 0.60615 0.58905 0.0
H2294 H 0.14392 0.64564 0.57974 0.0
C2295 C 0.22926 0.69757 0.62564 0.0
C2296 C 0.20275 0.62861 0.60367 0.0
C2297 C 0.24586 0.7156 0.6455 0.0
C2298 C 0.09582 0.57313 0.55613 0.0
C2299 C 0.11495 0.59315 0.57041 0.0
C2300 C 0.16023 0.6406 0.5863 0.0
C2301 C 0.21918 0.67228 0.63195 0.0
C2302 C 0.20034 0.65325 0.61215 0.0
C2303 C 0.14205 0.59575 0.56158 0.0
C2304 C 0.16244 0.61585 0.57825 0.0
H2305 H 0.24747 0.67738 0.69843 0.0
H2306 H 0.21895 0.64606 0.66377 0.0
H2307 H 0.1765 0.67789 0.60942 0.0
H2308 H 0.13709 0.54519 0.50502 0.0
H2309 H 0.17025 0.58003 0.5298 0.0
loop_
_geom_bond_atom_site_label_1
_geom_bond_atom_site_label_2
_geom_bond_distance
_geom_bond_site_symmetry_2
_ccdc_geom_bond_type
C0 C2 1.422 . S
C0 C4 1.415 . S
C0 N6 1.369 . S
C1 C2 1.421 . S
C1 C3 1.417 . S
C1 C13 1.422 . S
C2 C0 1.422 . S
C2 C1 1.421 . S
C2 N12 1.359 . S
C3 C1 1.417 . S
C3 C5 1.329 . S
C3 H22 0.930 . S
C4 C0 1.415 . S
C4 C5 1.437 . S
C4 C8 1.413 . S
C5 C3 1.329 . S
C5 C4 1.437 . S
C5 H27 0.929 . S
N6 C0 1.369 . S
N6 C7 1.338 . S
N6 Gd11 2.622 . S
C7 N6 1.338 . S
C7 C9 1.378 . S
C7 H19 0.929 . S
C8 C4 1.413 . S
C8 C9 1.348 . S
C8 H24 0.931 . S
C9 C7 1.378 . S
C9 C8 1.348 . S
C9 H25 0.930 . S
Gd10 N30 2.622 . S
Gd10 N37 2.570 . S
Gd10 O44 2.353 . S
Gd10 O45 2.468 . S
Gd10 O46 2.427 . S
Gd10 O48 2.388 . S
Gd10 O49 2.386 . S
Gd10 O53 2.307 . S
Gd10 C63 2.805 . S
Gd11 N6 2.622 . S
Gd11 N12 2.570 . S
Gd11 O43 2.386 . S
Gd11 O47 2.307 . S
Gd11 O50 2.353 . S
Gd11 O51 2.468 . S
Gd11 O52 2.427 . S
Gd11 O54 2.388 . S
Gd11 C75 2.805 . S
N12 C2 1.359 . S
N12 Gd11 2.570 . S
N12 C14 1.343 . S
C13 C1 1.422 . S
C13 C15 1.321 . S
C13 H21 0.931 . S
C14 N12 1.343 . S
C14 C15 1.390 . S
C14 H16 0.931 . S
C15 C13 1.321 . S
C15 C14 1.390 . S
C15 H17 0.930 . S
H16 C14 0.931 . S
H17 C15 0.930 . S
H18 C41 0.931 . S
H19 C7 0.929 . S
H20 C42 0.930 . S
H21 C13 0.931 . S
H22 C3 0.930 . S
H23 C32 0.929 . S
H24 C8 0.931 . S
H25 C9 0.930 . S
H26 C64 0.930 . S
H27 C5 0.929 . S
H28 C33 0.931 . S
H29 C34 0.930 . S
N30 Gd10 2.622 . S
N30 C31 1.369 . S
N30 C32 1.338 . S
C31 N30 1.369 . S
C31 C35 1.415 . S
C31 C38 1.422 . S
C32 H23 0.929 . S
C32 N30 1.338 . S
C32 C34 1.378 . S
C33 H28 0.931 . S
C33 C34 1.348 . S
C33 C35 1.413 . S
C34 H29 0.930 . S
C34 C32 1.378 . S
C34 C33 1.348 . S
C35 C31 1.415 . S
C35 C33 1.413 . S
C35 C65 1.437 . S
H36 C65 0.929 . S
N37 Gd10 2.570 . S
N37 C38 1.359 . S
N37 C41 1.343 . S
C38 C31 1.422 . S
C38 N37 1.359 . S
C38 C40 1.421 . S
C39 C40 1.422 . S
C39 C42 1.321 . S
C39 H66 0.931 . S
C40 C38 1.421 . S
C40 C39 1.422 . S
C40 C64 1.417 . S
C41 H18 0.931 . S
C41 N37 1.343 . S
C41 C42 1.390 . S
C42 H20 0.930 . S
C42 C39 1.321 . S
C42 C41 1.390 . S
O43 Gd11 2.386 . S
O43 C55 1.265 . S
O44 Gd10 2.353 . S
O44 C55 1.242 . S
O45 Gd10 2.468 . S
O45 C63 1.263 . S
O46 Gd10 2.427 . S
O46 C63 1.252 . S
O47 Gd11 2.307 . S
O47 C56 1.261 . S
O48 Gd10 2.388 . S
O48 C56 1.252 . S
O49 Gd10 2.386 . S
O49 C67 1.265 . S
O50 Gd11 2.353 . S
O50 C67 1.242 . S
O51 Gd11 2.468 . S
O51 C75 1.263 . S
O52 Gd11 2.427 . S
O52 C75 1.252 . S
O53 Gd10 2.307 . S
O53 C68 1.261 . S
O54 Gd11 2.388 . S
O54 C68 1.252 . S
C55 O43 1.265 . S
C55 O44 1.242 . S
C56 O47 1.261 . S
C56 O48 1.252 . S
C57 C60 1.394 . S
C57 C62 1.370 . S
C57 C63 1.500 . S
C58 C61 1.383 . S
C58 C62 1.395 . S
C59 C60 1.396 . S
C59 C61 1.365 . S
C59 H76 0.929 . S
C60 C57 1.394 . S
C60 C59 1.396 . S
C60 H77 0.930 . S
C61 C58 1.383 . S
C61 C59 1.365 . S
C61 H78 0.931 . S
C62 C57 1.370 . S
C62 C58 1.395 . S
C62 H79 0.930 . S
C63 Gd10 2.805 . S
C63 O45 1.263 . S
C63 O46 1.252 . S
C63 C57 1.500 . S
C64 H26 0.930 . S
C64 C40 1.417 . S
C64 C65 1.329 . S
C65 C35 1.437 . S
C65 H36 0.929 . S
C65 C64 1.329 . S
H66 C39 0.931 . S
C67 O49 1.265 . S
C67 O50 1.242 . S
C68 O53 1.261 . S
C68 O54 1.252 . S
C69 C72 1.394 . S
C69 C74 1.370 . S
C69 C75 1.500 . S
C70 C73 1.383 . S
C70 C74 1.395 . S
C71 C72 1.396 . S
C71 C73 1.365 . S
C71 H80 0.929 . S
C72 C69 1.394 . S
C72 C71 1.396 . S
C72 H81 0.930 . S
C73 C70 1.383 . S
C73 C71 1.365 . S
C73 H82 0.931 . S
C74 C69 1.370 . S
C74 C70 1.395 . S
C74 H83 0.930 . S
C75 Gd11 2.805 . S
C75 O51 1.263 . S
C75 O52 1.252 . S
C75 C69 1.500 . S
H76 C59 0.929 . S
H77 C60 0.930 . S
H78 C61 0.931 . S
H79 C62 0.930 . S
H80 C71 0.929 . S
H81 C72 0.930 . S
H82 C73 0.931 . S
H83 C74 0.930 . S
C84 C86 1.422 . S
C84 C88 1.415 . S
C84 N90 1.369 . S
C85 C86 1.421 . S
C85 C87 1.417 . S
C85 C97 1.422 . S
C86 C84 1.422 . S
C86 C85 1.421 . S
C86 N96 1.359 . S
C87 C85 1.417 . S
C87 C89 1.329 . S
C87 H106 0.930 . S
C88 C84 1.415 . S
C88 C89 1.437 . S
C88 C92 1.413 . S
C89 C87 1.329 . S
C89 C88 1.437 . S
C89 H111 0.929 . S
N90 C84 1.369 . S
N90 C91 1.338 . S
N90 Gd95 2.622 . S
C91 N90 1.338 . S
C91 C93 1.378 . S
C91 H103 0.929 . S
C92 C88 1.413 . S
C92 C93 1.348 . S
C92 H108 0.931 . S
C93 C91 1.378 . S
C93 C92 1.348 . S
C93 H109 0.930 . S
Gd94 N114 2.622 . S
Gd94 N121 2.570 . S
Gd94 O128 2.353 . S
Gd94 O129 2.468 . S
Gd94 O130 2.427 . S
Gd94 O132 2.388 . S
Gd94 O133 2.386 . S
Gd94 O137 2.307 . S
Gd94 C147 2.805 . S
Gd95 N90 2.622 . S
Gd95 N96 2.570 . S
Gd95 O127 2.386 . S
Gd95 O131 2.307 . S
Gd95 O134 2.353 . S
Gd95 O135 2.468 . S
Gd95 O136 2.427 . S
Gd95 O138 2.388 . S
Gd95 C159 2.805 . S
N96 C86 1.359 . S
N96 Gd95 2.570 . S
N96 C98 1.343 . S
C97 C85 1.422 . S
C97 C99 1.321 . S
C97 H105 0.931 . S
C98 N96 1.343 . S
C98 C99 1.390 . S
C98 H100 0.931 . S
C99 C97 1.321 . S
C99 C98 1.390 . S
C99 H101 0.930 . S
H100 C98 0.931 . S
H101 C99 0.930 . S
H102 C125 0.931 . S
H103 C91 0.929 . S
H104 C126 0.930 . S
H105 C97 0.931 . S
H106 C87 0.930 . S
H107 C116 0.929 . S
H108 C92 0.931 . S
H109 C93 0.930 . S
H110 C148 0.930 . S
H111 C89 0.929 . S
H112 C117 0.931 . S
H113 C118 0.930 . S
N114 Gd94 2.622 . S
N114 C115 1.369 . S
N114 C116 1.338 . S
C115 N114 1.369 . S
C115 C119 1.415 . S
C115 C122 1.422 . S
C116 H107 0.929 . S
C116 N114 1.338 . S
C116 C118 1.378 . S
C117 H112 0.931 . S
C117 C118 1.348 . S
C117 C119 1.413 . S
C118 H113 0.930 . S
C118 C116 1.378 . S
C118 C117 1.348 . S
C119 C115 1.415 . S
C119 C117 1.413 . S
C119 C149 1.437 . S
H120 C149 0.929 . S
N121 Gd94 2.570 . S
N121 C122 1.359 . S
N121 C125 1.343 . S
C122 C115 1.422 . S
C122 N121 1.359 . S
C122 C124 1.421 . S
C123 C124 1.422 . S
C123 C126 1.321 . S
C123 H150 0.931 . S
C124 C122 1.421 . S
C124 C123 1.422 . S
C124 C148 1.417 . S
C125 H102 0.931 . S
C125 N121 1.343 . S
C125 C126 1.390 . S
C126 H104 0.930 . S
C126 C123 1.321 . S
C126 C125 1.390 . S
O127 Gd95 2.386 . S
O127 C139 1.265 . S
O128 Gd94 2.353 . S
O128 C139 1.242 . S
O129 Gd94 2.468 . S
O129 C147 1.263 . S
O130 Gd94 2.427 . S
O130 C147 1.252 . S
O131 Gd95 2.307 . S
O131 C140 1.261 . S
O132 Gd94 2.388 . S
O132 C140 1.252 . S
O133 Gd94 2.386 . S
O133 C151 1.265 . S
O134 Gd95 2.353 . S
O134 C151 1.242 . S
O135 Gd95 2.468 . S
O135 C159 1.263 . S
O136 Gd95 2.427 . S
O136 C159 1.252 . S
O137 Gd94 2.307 . S
O137 C152 1.261 . S
O138 Gd95 2.388 . S
O138 C152 1.252 . S
C139 O127 1.265 . S
C139 O128 1.242 . S
C140 O131 1.261 . S
C140 O132 1.252 . S
C141 C144 1.394 . S
C141 C146 1.370 . S
C141 C147 1.500 . S
C142 C145 1.383 . S
C142 C146 1.395 . S
C143 C144 1.396 . S
C143 C145 1.365 . S
C143 H160 0.929 . S
C144 C141 1.394 . S
C144 C143 1.396 . S
C144 H161 0.930 . S
C145 C142 1.383 . S
C145 C143 1.365 . S
C145 H162 0.931 . S
C146 C141 1.370 . S
C146 C142 1.395 . S
C146 H163 0.930 . S
C147 Gd94 2.805 . S
C147 O129 1.263 . S
C147 O130 1.252 . S
C147 C141 1.500 . S
C148 H110 0.930 . S
C148 C124 1.417 . S
C148 C149 1.329 . S
C149 C119 1.437 . S
C149 H120 0.929 . S
C149 C148 1.329 . S
H150 C123 0.931 . S
C151 O133 1.265 . S
C151 O134 1.242 . S
C152 O137 1.261 . S
C152 O138 1.252 . S
C153 C156 1.394 . S
C153 C158 1.370 . S
C153 C159 1.500 . S
C154 C157 1.383 . S
C154 C158 1.395 . S
C155 C156 1.396 . S
C155 C157 1.365 . S
C155 H164 0.929 . S
C156 C153 1.394 . S
C156 C155 1.396 . S
C156 H165 0.930 . S
C157 C154 1.383 . S
C157 C155 1.365 . S
C157 H166 0.931 . S
C158 C153 1.370 . S
C158 C154 1.395 . S
C158 H167 0.930 . S
C159 Gd95 2.805 . S
C159 O135 1.263 . S
C159 O136 1.252 . S
C159 C153 1.500 . S
H160 C143 0.929 . S
H161 C144 0.930 . S
H162 C145 0.931 . S
H163 C146 0.930 . S
H164 C155 0.929 . S
H165 C156 0.930 . S
H166 C157 0.931 . S
H167 C158 0.930 . S
C168 C170 1.422 . S
C168 C172 1.415 . S
C168 N174 1.369 . S
C169 C170 1.421 . S
C169 C171 1.417 . S
C169 C181 1.422 . S
C170 C168 1.422 . S
C170 C169 1.421 . S
C170 N180 1.359 . S
C171 C169 1.417 . S
C171 C173 1.329 . S
C171 H190 0.930 . S
C172 C168 1.415 . S
C172 C173 1.437 . S
C172 C176 1.413 . S
C173 C171 1.329 . S
C173 C172 1.437 . S
C173 H195 0.929 . S
N174 C168 1.369 . S
N174 C175 1.338 . S
N174 Gd179 2.622 . S
C175 N174 1.338 . S
C175 C177 1.378 . S
C175 H187 0.929 . S
C176 C172 1.413 . S
C176 C177 1.348 . S
C176 H192 0.931 . S
C177 C175 1.378 . S
C177 C176 1.348 . S
C177 H193 0.930 . S
Gd178 N198 2.622 . S
Gd178 N205 2.570 . S
Gd178 O212 2.353 . S
Gd178 O213 2.468 . S
Gd178 O214 2.427 . S
Gd178 O216 2.388 . S
Gd178 O217 2.386 . S
Gd178 O221 2.307 . S
Gd178 C231 2.805 . S
Gd179 N174 2.622 . S
Gd179 N180 2.570 . S
Gd179 O211 2.386 . S
Gd179 O215 2.307 . S
Gd179 O218 2.353 . S
Gd179 O219 2.468 . S
Gd179 O220 2.427 . S
Gd179 O222 2.388 . S
Gd179 C243 2.805 . S
N180 C170 1.359 . S
N180 Gd179 2.570 . S
N180 C182 1.343 . S
C181 C169 1.422 . S
C181 C183 1.321 . S
C181 H189 0.931 . S
C182 N180 1.343 . S
C182 C183 1.390 . S
C182 H184 0.931 . S
C183 C181 1.321 . S
C183 C182 1.390 . S
C183 H185 0.930 . S
H184 C182 0.931 . S
H185 C183 0.930 . S
H186 C209 0.931 . S
H187 C175 0.929 . S
H188 C210 0.930 . S
H189 C181 0.931 . S
H190 C171 0.930 . S
H191 C200 0.929 . S
H192 C176 0.931 . S
H193 C177 0.930 . S
H194 C232 0.930 . S
H195 C173 0.929 . S
H196 C201 0.931 . S
H197 C202 0.930 . S
N198 Gd178 2.622 . S
N198 C199 1.369 . S
N198 C200 1.338 . S
C199 N198 1.369 . S
C199 C203 1.415 . S
C199 C206 1.422 . S
C200 H191 0.929 . S
C200 N198 1.338 . S
C200 C202 1.378 . S
C201 H196 0.931 . S
C201 C202 1.348 . S
C201 C203 1.413 . S
C202 H197 0.930 . S
C202 C200 1.378 . S
C202 C201 1.348 . S
C203 C199 1.415 . S
C203 C201 1.413 . S
C203 C233 1.437 . S
H204 C233 0.929 . S
N205 Gd178 2.570 . S
N205 C206 1.359 . S
N205 C209 1.343 . S
C206 C199 1.422 . S
C206 N205 1.359 . S
C206 C208 1.421 . S
C207 C208 1.422 . S
C207 C210 1.321 . S
C207 H234 0.931 . S
C208 C206 1.421 . S
C208 C207 1.422 . S
C208 C232 1.417 . S
C209 H186 0.931 . S
C209 N205 1.343 . S
C209 C210 1.390 . S
C210 H188 0.930 . S
C210 C207 1.321 . S
C210 C209 1.390 . S
O211 Gd179 2.386 . S
O211 C223 1.265 . S
O212 Gd178 2.353 . S
O212 C223 1.242 . S
O213 Gd178 2.468 . S
O213 C231 1.263 . S
O214 Gd178 2.427 . S
O214 C231 1.252 . S
O215 Gd179 2.307 . S
O215 C224 1.261 . S
O216 Gd178 2.388 . S
O216 C224 1.252 . S
O217 Gd178 2.386 . S
O217 C235 1.265 . S
O218 Gd179 2.353 . S
O218 C235 1.242 . S
O219 Gd179 2.468 . S
O219 C243 1.263 . S
O220 Gd179 2.427 . S
O220 C243 1.252 . S
O221 Gd178 2.307 . S
O221 C236 1.261 . S
O222 Gd179 2.388 . S
O222 C236 1.252 . S
C223 O211 1.265 . S
C223 O212 1.242 . S
C224 O215 1.261 . S
C224 O216 1.252 . S
C225 C228 1.394 . S
C225 C230 1.370 . S
C225 C231 1.500 . S
C226 C229 1.383 . S
C226 C230 1.395 . S
C227 C228 1.396 . S
C227 C229 1.365 . S
C227 H244 0.929 . S
C228 C225 1.394 . S
C228 C227 1.396 . S
C228 H245 0.930 . S
C229 C226 1.383 . S
C229 C227 1.365 . S
C229 H246 0.931 . S
C230 C225 1.370 . S
C230 C226 1.395 . S
C230 H247 0.930 . S
C231 Gd178 2.805 . S
C231 O213 1.263 . S
C231 O214 1.252 . S
C231 C225 1.500 . S
C232 H194 0.930 . S
C232 C208 1.417 . S
C232 C233 1.329 . S
C233 C203 1.437 . S
C233 H204 0.929 . S
C233 C232 1.329 . S
H234 C207 0.931 . S
C235 O217 1.265 . S
C235 O218 1.242 . S
C236 O221 1.261 . S
C236 O222 1.252 . S
C237 C240 1.394 . S
C237 C242 1.370 . S
C237 C243 1.500 . S
C238 C241 1.383 . S
C238 C242 1.395 . S
C239 C240 1.396 . S
C239 C241 1.365 . S
C239 H248 0.929 . S
C240 C237 1.394 . S
C240 C239 1.396 . S
C240 H249 0.930 . S
C241 C238 1.383 . S
C241 C239 1.365 . S
C241 H250 0.931 . S
C242 C237 1.370 . S
C242 C238 1.395 . S
C242 H251 0.930 . S
C243 Gd179 2.805 . S
C243 O219 1.263 . S
C243 O220 1.252 . S
C243 C237 1.500 . S
H244 C227 0.929 . S
H245 C228 0.930 . S
H246 C229 0.931 . S
H247 C230 0.930 . S
H248 C239 0.929 . S
H249 C240 0.930 . S
H250 C241 0.931 . S
H251 C242 0.930 . S
C252 C254 1.422 . S
C252 C256 1.415 . S
C252 N258 1.369 . S
C253 C254 1.421 . S
C253 C255 1.417 . S
C253 C265 1.422 . S
C254 C252 1.422 . S
C254 C253 1.421 . S
C254 N264 1.359 . S
C255 C253 1.417 . S
C255 C257 1.329 . S
C255 H274 0.930 . S
C256 C252 1.415 . S
C256 C257 1.437 . S
C256 C260 1.413 . S
C257 C255 1.329 . S
C257 C256 1.437 . S
C257 H279 0.929 . S
N258 C252 1.369 . S
N258 C259 1.338 . S
N258 Gd263 2.622 . S
C259 N258 1.338 . S
C259 C261 1.378 . S
C259 H271 0.929 . S
C260 C256 1.413 . S
C260 C261 1.348 . S
C260 H276 0.931 . S
C261 C259 1.378 . S
C261 C260 1.348 . S
C261 H277 0.930 . S
Gd262 N282 2.622 . S
Gd262 N289 2.570 . S
Gd262 O296 2.353 . S
Gd262 O297 2.468 . S
Gd262 O298 2.427 . S
Gd262 O300 2.388 . S
Gd262 O301 2.386 . S
Gd262 O305 2.307 . S
Gd262 C315 2.805 . S
Gd263 N258 2.622 . S
Gd263 N264 2.570 . S
Gd263 O295 2.386 . S
Gd263 O299 2.307 . S
Gd263 O302 2.353 . S
Gd263 O303 2.468 . S
Gd263 O304 2.427 . S
Gd263 O306 2.388 . S
Gd263 C327 2.805 . S
N264 C254 1.359 . S
N264 Gd263 2.570 . S
N264 C266 1.343 . S
C265 C253 1.422 . S
C265 C267 1.321 . S
C265 H273 0.931 . S
C266 N264 1.343 . S
C266 C267 1.390 . S
C266 H268 0.931 . S
C267 C265 1.321 . S
C267 C266 1.390 . S
C267 H269 0.930 . S
H268 C266 0.931 . S
H269 C267 0.930 . S
H270 C293 0.931 . S
H271 C259 0.929 . S
H272 C294 0.930 . S
H273 C265 0.931 . S
H274 C255 0.930 . S
H275 C284 0.929 . S
H276 C260 0.931 . S
H277 C261 0.930 . S
H278 C316 0.930 . S
H279 C257 0.929 . S
H280 C285 0.931 . S
H281 C286 0.930 . S
N282 Gd262 2.622 . S
N282 C283 1.369 . S
N282 C284 1.338 . S
C283 N282 1.369 . S
C283 C287 1.415 . S
C283 C290 1.422 . S
C284 H275 0.929 . S
C284 N282 1.338 . S
C284 C286 1.378 . S
C285 H280 0.931 . S
C285 C286 1.348 . S
C285 C287 1.413 . S
C286 H281 0.930 . S
C286 C284 1.378 . S
C286 C285 1.348 . S
C287 C283 1.415 . S
C287 C285 1.413 . S
C287 C317 1.437 . S
H288 C317 0.929 . S
N289 Gd262 2.570 . S
N289 C290 1.359 . S
N289 C293 1.343 . S
C290 C283 1.422 . S
C290 N289 1.359 . S
C290 C292 1.421 . S
C291 C292 1.422 . S
C291 C294 1.321 . S
C291 H318 0.931 . S
C292 C290 1.421 . S
C292 C291 1.422 . S
C292 C316 1.417 . S
C293 H270 0.931 . S
C293 N289 1.343 . S
C293 C294 1.390 . S
C294 H272 0.930 . S
C294 C291 1.321 . S
C294 C293 1.390 . S
O295 Gd263 2.386 . S
O295 C307 1.265 . S
O296 Gd262 2.353 . S
O296 C307 1.242 . S
O297 Gd262 2.468 . S
O297 C315 1.263 . S
O298 Gd262 2.427 . S
O298 C315 1.252 . S
O299 Gd263 2.307 . S
O299 C308 1.261 . S
O300 Gd262 2.388 . S
O300 C308 1.252 . S
O301 Gd262 2.386 . S
O301 C319 1.265 . S
O302 Gd263 2.353 . S
O302 C319 1.242 . S
O303 Gd263 2.468 . S
O303 C327 1.263 . S
O304 Gd263 2.427 . S
O304 C327 1.252 . S
O305 Gd262 2.307 . S
O305 C320 1.261 . S
O306 Gd263 2.388 . S
O306 C320 1.252 . S
C307 O295 1.265 . S
C307 O296 1.242 . S
C308 O299 1.261 . S
C308 O300 1.252 . S
C309 C312 1.394 . S
C309 C314 1.370 . S
C309 C315 1.500 . S
C310 C313 1.383 . S
C310 C314 1.395 . S
C311 C312 1.396 . S
C311 C313 1.365 . S
C311 H328 0.929 . S
C312 C309 1.394 . S
C312 C311 1.396 . S
C312 H329 0.930 . S
C313 C310 1.383 . S
C313 C311 1.365 . S
C313 H330 0.931 . S
C314 C309 1.370 . S
C314 C310 1.395 . S
C314 H331 0.930 . S
C315 Gd262 2.805 . S
C315 O297 1.263 . S
C315 O298 1.252 . S
C315 C309 1.500 . S
C316 H278 0.930 . S
C316 C292 1.417 . S
C316 C317 1.329 . S
C317 C287 1.437 . S
C317 H288 0.929 . S
C317 C316 1.329 . S
H318 C291 0.931 . S
C319 O301 1.265 . S
C319 O302 1.242 . S
C320 O305 1.261 . S
C320 O306 1.252 . S
C321 C324 1.394 . S
C321 C326 1.370 . S
C321 C327 1.500 . S
C322 C325 1.383 . S
C322 C326 1.395 . S
C323 C324 1.396 . S
C323 C325 1.365 . S
C323 H332 0.929 . S
C324 C321 1.394 . S
C324 C323 1.396 . S
C324 H333 0.930 . S
C325 C322 1.383 . S
C325 C323 1.365 . S
C325 H334 0.931 . S
C326 C321 1.370 . S
C326 C322 1.395 . S
C326 H335 0.930 . S
C327 Gd263 2.805 . S
C327 O303 1.263 . S
C327 O304 1.252 . S
C327 C321 1.500 . S
H328 C311 0.929 . S
H329 C312 0.930 . S
H330 C313 0.931 . S
H331 C314 0.930 . S
H332 C323 0.929 . S
H333 C324 0.930 . S
H334 C325 0.931 . S
H335 C326 0.930 . S
C336 C338 1.422 . S
C336 C340 1.415 . S
C336 N342 1.369 . S
C337 C338 1.421 . S
C337 C339 1.417 . S
C337 C349 1.422 . S
C338 C336 1.422 . S
C338 C337 1.421 . S
C338 N348 1.359 . S
C339 C337 1.417 . S
C339 C341 1.329 . S
C339 H358 0.930 . S
C340 C336 1.415 . S
C340 C341 1.437 . S
C340 C344 1.413 . S
C341 C339 1.329 . S
C341 C340 1.437 . S
C341 H363 0.929 . S
N342 C336 1.369 . S
N342 C343 1.338 . S
N342 Gd347 2.622 . S
C343 N342 1.338 . S
C343 C345 1.378 . S
C343 H355 0.929 . S
C344 C340 1.413 . S
C344 C345 1.348 . S
C344 H360 0.931 . S
C345 C343 1.378 . S
C345 C344 1.348 . S
C345 H361 0.930 . S
Gd346 N366 2.622 . S
Gd346 N373 2.570 . S
Gd346 O380 2.353 . S
Gd346 O381 2.468 . S
Gd346 O382 2.427 . S
Gd346 O384 2.388 . S
Gd346 O385 2.386 . S
Gd346 O389 2.307 . S
Gd346 C399 2.805 . S
Gd347 N342 2.622 . S
Gd347 N348 2.570 . S
Gd347 O379 2.386 . S
Gd347 O383 2.307 . S
Gd347 O386 2.353 . S
Gd347 O387 2.468 . S
Gd347 O388 2.427 . S
Gd347 O390 2.388 . S
Gd347 C411 2.805 . S
N348 C338 1.359 . S
N348 Gd347 2.570 . S
N348 C350 1.343 . S
C349 C337 1.422 . S
C349 C351 1.321 . S
C349 H357 0.931 . S
C350 N348 1.343 . S
C350 C351 1.390 . S
C350 H352 0.931 . S
C351 C349 1.321 . S
C351 C350 1.390 . S
C351 H353 0.930 . S
H352 C350 0.931 . S
H353 C351 0.930 . S
H354 C377 0.931 . S
H355 C343 0.929 . S
H356 C378 0.930 . S
H357 C349 0.931 . S
H358 C339 0.930 . S
H359 C368 0.929 . S
H360 C344 0.931 . S
H361 C345 0.930 . S
H362 C400 0.930 . S
H363 C341 0.929 . S
H364 C369 0.931 . S
H365 C370 0.930 . S
N366 Gd346 2.622 . S
N366 C367 1.369 . S
N366 C368 1.338 . S
C367 N366 1.369 . S
C367 C371 1.415 . S
C367 C374 1.422 . S
C368 H359 0.929 . S
C368 N366 1.338 . S
C368 C370 1.378 . S
C369 H364 0.931 . S
C369 C370 1.348 . S
C369 C371 1.413 . S
C370 H365 0.930 . S
C370 C368 1.378 . S
C370 C369 1.348 . S
C371 C367 1.415 . S
C371 C369 1.413 . S
C371 C401 1.437 . S
H372 C401 0.929 . S
N373 Gd346 2.570 . S
N373 C374 1.359 . S
N373 C377 1.343 . S
C374 C367 1.422 . S
C374 N373 1.359 . S
C374 C376 1.421 . S
C375 C376 1.422 . S
C375 C378 1.321 . S
C375 H402 0.931 . S
C376 C374 1.421 . S
C376 C375 1.422 . S
C376 C400 1.417 . S
C377 H354 0.931 . S
C377 N373 1.343 . S
C377 C378 1.390 . S
C378 H356 0.930 . S
C378 C375 1.321 . S
C378 C377 1.390 . S
O379 Gd347 2.386 . S
O379 C391 1.265 . S
O380 Gd346 2.353 . S
O380 C391 1.242 . S
O381 Gd346 2.468 . S
O381 C399 1.263 . S
O382 Gd346 2.427 . S
O382 C399 1.252 . S
O383 Gd347 2.307 . S
O383 C392 1.261 . S
O384 Gd346 2.388 . S
O384 C392 1.252 . S
O385 Gd346 2.386 . S
O385 C403 1.265 . S
O386 Gd347 2.353 . S
O386 C403 1.242 . S
O387 Gd347 2.468 . S
O387 C411 1.263 . S
O388 Gd347 2.427 . S
O388 C411 1.252 . S
O389 Gd346 2.307 . S
O389 C404 1.261 . S
O390 Gd347 2.388 . S
O390 C404 1.252 . S
C391 O379 1.265 . S
C391 O380 1.242 . S
C392 O383 1.261 . S
C392 O384 1.252 . S
C393 C396 1.394 . S
C393 C398 1.370 . S
C393 C399 1.500 . S
C394 C397 1.383 . S
C394 C398 1.395 . S
C395 C396 1.396 . S
C395 C397 1.365 . S
C395 H412 0.929 . S
C396 C393 1.394 . S
C396 C395 1.396 . S
C396 H413 0.930 . S
C397 C394 1.383 . S
C397 C395 1.365 . S
C397 H414 0.931 . S
C398 C393 1.370 . S
C398 C394 1.395 . S
C398 H415 0.930 . S
C399 Gd346 2.805 . S
C399 O381 1.263 . S
C399 O382 1.252 . S
C399 C393 1.500 . S
C400 H362 0.930 . S
C400 C376 1.417 . S
C400 C401 1.329 . S
C401 C371 1.437 . S
C401 H372 0.929 . S
C401 C400 1.329 . S
H402 C375 0.931 . S
C403 O385 1.265 . S
C403 O386 1.242 . S
C404 O389 1.261 . S
C404 O390 1.252 . S
C405 C408 1.394 . S
C405 C410 1.370 . S
C405 C411 1.500 . S
C406 C409 1.383 . S
C406 C410 1.395 . S
C407 C408 1.396 . S
C407 C409 1.365 . S
C407 H416 0.929 . S
C408 C405 1.394 . S
C408 C407 1.396 . S
C408 H417 0.930 . S
C409 C406 1.383 . S
C409 C407 1.365 . S
C409 H418 0.931 . S
C410 C405 1.370 . S
C410 C406 1.395 . S
C410 H419 0.930 . S
C411 Gd347 2.805 . S
C411 O387 1.263 . S
C411 O388 1.252 . S
C411 C405 1.500 . S
H412 C395 0.929 . S
H413 C396 0.930 . S
H414 C397 0.931 . S
H415 C398 0.930 . S
H416 C407 0.929 . S
H417 C408 0.930 . S
H418 C409 0.931 . S
H419 C410 0.930 . S
C420 C422 1.422 . S
C420 C424 1.415 . S
C420 N426 1.369 . S
C421 C422 1.421 . S
C421 C423 1.417 . S
C421 C433 1.422 . S
C422 C420 1.422 . S
C422 C421 1.421 . S
C422 N432 1.359 . S
C423 C421 1.417 . S
C423 C425 1.329 . S
C423 H442 0.930 . S
C424 C420 1.415 . S
C424 C425 1.437 . S
C424 C428 1.413 . S
C425 C423 1.329 . S
C425 C424 1.437 . S
C425 H447 0.929 . S
N426 C420 1.369 . S
N426 C427 1.338 . S
N426 Gd431 2.622 . S
C427 N426 1.338 . S
C427 C429 1.378 . S
C427 H439 0.929 . S
C428 C424 1.413 . S
C428 C429 1.348 . S
C428 H444 0.931 . S
C429 C427 1.378 . S
C429 C428 1.348 . S
C429 H445 0.930 . S
Gd430 N450 2.622 . S
Gd430 N457 2.570 . S
Gd430 O464 2.353 . S
Gd430 O465 2.468 . S
Gd430 O466 2.427 . S
Gd430 O468 2.388 . S
Gd430 O469 2.386 . S
Gd430 O473 2.307 . S
Gd430 C483 2.805 . S
Gd431 N426 2.622 . S
Gd431 N432 2.570 . S
Gd431 O463 2.386 . S
Gd431 O467 2.307 . S
Gd431 O470 2.353 . S
Gd431 O471 2.468 . S
Gd431 O472 2.427 . S
Gd431 O474 2.388 . S
Gd431 C495 2.805 . S
N432 C422 1.359 . S
N432 Gd431 2.570 . S
N432 C434 1.343 . S
C433 C421 1.422 . S
C433 C435 1.321 . S
C433 H441 0.931 . S
C434 N432 1.343 . S
C434 C435 1.390 . S
C434 H436 0.931 . S
C435 C433 1.321 . S
C435 C434 1.390 . S
C435 H437 0.930 . S
H436 C434 0.931 . S
H437 C435 0.930 . S
H438 C461 0.931 . S
H439 C427 0.929 . S
H440 C462 0.930 . S
H441 C433 0.931 . S
H442 C423 0.930 . S
H443 C452 0.929 . S
H444 C428 0.931 . S
H445 C429 0.930 . S
H446 C484 0.930 . S
H447 C425 0.929 . S
H448 C453 0.931 . S
H449 C454 0.930 . S
N450 Gd430 2.622 . S
N450 C451 1.369 . S
N450 C452 1.338 . S
C451 N450 1.369 . S
C451 C455 1.415 . S
C451 C458 1.422 . S
C452 H443 0.929 . S
C452 N450 1.338 . S
C452 C454 1.378 . S
C453 H448 0.931 . S
C453 C454 1.348 . S
C453 C455 1.413 . S
C454 H449 0.930 . S
C454 C452 1.378 . S
C454 C453 1.348 . S
C455 C451 1.415 . S
C455 C453 1.413 . S
C455 C485 1.437 . S
H456 C485 0.929 . S
N457 Gd430 2.570 . S
N457 C458 1.359 . S
N457 C461 1.343 . S
C458 C451 1.422 . S
C458 N457 1.359 . S
C458 C460 1.421 . S
C459 C460 1.422 . S
C459 C462 1.321 . S
C459 H486 0.931 . S
C460 C458 1.421 . S
C460 C459 1.422 . S
C460 C484 1.417 . S
C461 H438 0.931 . S
C461 N457 1.343 . S
C461 C462 1.390 . S
C462 H440 0.930 . S
C462 C459 1.321 . S
C462 C461 1.390 . S
O463 Gd431 2.386 . S
O463 C475 1.265 . S
O464 Gd430 2.353 . S
O464 C475 1.242 . S
O465 Gd430 2.468 . S
O465 C483 1.263 . S
O466 Gd430 2.427 . S
O466 C483 1.252 . S
O467 Gd431 2.307 . S
O467 C476 1.261 . S
O468 Gd430 2.388 . S
O468 C476 1.252 . S
O469 Gd430 2.386 . S
O469 C487 1.265 . S
O470 Gd431 2.353 . S
O470 C487 1.242 . S
O471 Gd431 2.468 . S
O471 C495 1.263 . S
O472 Gd431 2.427 . S
O472 C495 1.252 . S
O473 Gd430 2.307 . S
O473 C488 1.261 . S
O474 Gd431 2.388 . S
O474 C488 1.252 . S
C475 O463 1.265 . S
C475 O464 1.242 . S
C476 O467 1.261 . S
C476 O468 1.252 . S
C477 C480 1.394 . S
C477 C482 1.370 . S
C477 C483 1.500 . S
C478 C481 1.383 . S
C478 C482 1.395 . S
C479 C480 1.396 . S
C479 C481 1.365 . S
C479 H496 0.929 . S
C480 C477 1.394 . S
C480 C479 1.396 . S
C480 H497 0.930 . S
C481 C478 1.383 . S
C481 C479 1.365 . S
C481 H498 0.931 . S
C482 C477 1.370 . S
C482 C478 1.395 . S
C482 H499 0.930 . S
C483 Gd430 2.805 . S
C483 O465 1.263 . S
C483 O466 1.252 . S
C483 C477 1.500 . S
C484 H446 0.930 . S
C484 C460 1.417 . S
C484 C485 1.329 . S
C485 C455 1.437 . S
C485 H456 0.929 . S
C485 C484 1.329 . S
H486 C459 0.931 . S
C487 O469 1.265 . S
C487 O470 1.242 . S
C488 O473 1.261 . S
C488 O474 1.252 . S
C489 C492 1.394 . S
C489 C494 1.370 . S
C489 C495 1.500 . S
C490 C493 1.383 . S
C490 C494 1.395 . S
C491 C492 1.396 . S
C491 C493 1.365 . S
C491 H500 0.929 . S
C492 C489 1.394 . S
C492 C491 1.396 . S
C492 H501 0.930 . S
C493 C490 1.383 . S
C493 C491 1.365 . S
C493 H502 0.931 . S
C494 C489 1.370 . S
C494 C490 1.395 . S
C494 H503 0.930 . S
C495 Gd431 2.805 . S
C495 O471 1.263 . S
C495 O472 1.252 . S
C495 C489 1.500 . S
H496 C479 0.929 . S
H497 C480 0.930 . S
H498 C481 0.931 . S
H499 C482 0.930 . S
H500 C491 0.929 . S
H501 C492 0.930 . S
H502 C493 0.931 . S
H503 C494 0.930 . S
C504 C506 1.422 . S
C504 C508 1.415 . S
C504 N510 1.369 . S
C505 C506 1.421 . S
C505 C507 1.417 . S
C505 C517 1.422 . S
C506 C504 1.422 . S
C506 C505 1.421 . S
C506 N516 1.359 . S
C507 C505 1.417 . S
C507 C509 1.329 . S
C507 H526 0.930 . S
C508 C504 1.415 . S
C508 C509 1.437 . S
C508 C512 1.413 . S
C509 C507 1.329 . S
C509 C508 1.437 . S
C509 H531 0.929 . S
N510 C504 1.369 . S
N510 C511 1.338 . S
N510 Gd515 2.622 . S
C511 N510 1.338 . S
C511 C513 1.378 . S
C511 H523 0.929 . S
C512 C508 1.413 . S
C512 C513 1.348 . S
C512 H528 0.931 . S
C513 C511 1.378 . S
C513 C512 1.348 . S
C513 H529 0.930 . S
Gd514 N534 2.622 . S
Gd514 N541 2.570 . S
Gd514 O548 2.353 . S
Gd514 O549 2.468 . S
Gd514 O550 2.427 . S
Gd514 O552 2.388 . S
Gd514 O553 2.386 . S
Gd514 O557 2.307 . S
Gd514 C567 2.805 . S
Gd515 N510 2.622 . S
Gd515 N516 2.570 . S
Gd515 O547 2.386 . S
Gd515 O551 2.307 . S
Gd515 O554 2.353 . S
Gd515 O555 2.468 . S
Gd515 O556 2.427 . S
Gd515 O558 2.388 . S
Gd515 C579 2.805 . S
N516 C506 1.359 . S
N516 Gd515 2.570 . S
N516 C518 1.343 . S
C517 C505 1.422 . S
C517 C519 1.321 . S
C517 H525 0.931 . S
C518 N516 1.343 . S
C518 C519 1.390 . S
C518 H520 0.931 . S
C519 C517 1.321 . S
C519 C518 1.390 . S
C519 H521 0.930 . S
H520 C518 0.931 . S
H521 C519 0.930 . S
H522 C545 0.931 . S
H523 C511 0.929 . S
H524 C546 0.930 . S
H525 C517 0.931 . S
H526 C507 0.930 . S
H527 C536 0.929 . S
H528 C512 0.931 . S
H529 C513 0.930 . S
H530 C568 0.930 . S
H531 C509 0.929 . S
H532 C537 0.931 . S
H533 C538 0.930 . S
N534 Gd514 2.622 . S
N534 C535 1.369 . S
N534 C536 1.338 . S
C535 N534 1.369 . S
C535 C539 1.415 . S
C535 C542 1.422 . S
C536 H527 0.929 . S
C536 N534 1.338 . S
C536 C538 1.378 . S
C537 H532 0.931 . S
C537 C538 1.348 . S
C537 C539 1.413 . S
C538 H533 0.930 . S
C538 C536 1.378 . S
C538 C537 1.348 . S
C539 C535 1.415 . S
C539 C537 1.413 . S
C539 C569 1.437 . S
H540 C569 0.929 . S
N541 Gd514 2.570 . S
N541 C542 1.359 . S
N541 C545 1.343 . S
C542 C535 1.422 . S
C542 N541 1.359 . S
C542 C544 1.421 . S
C543 C544 1.422 . S
C543 C546 1.321 . S
C543 H570 0.931 . S
C544 C542 1.421 . S
C544 C543 1.422 . S
C544 C568 1.417 . S
C545 H522 0.931 . S
C545 N541 1.343 . S
C545 C546 1.390 . S
C546 H524 0.930 . S
C546 C543 1.321 . S
C546 C545 1.390 . S
O547 Gd515 2.386 . S
O547 C559 1.265 . S
O548 Gd514 2.353 . S
O548 C559 1.242 . S
O549 Gd514 2.468 . S
O549 C567 1.263 . S
O550 Gd514 2.427 . S
O550 C567 1.252 . S
O551 Gd515 2.307 . S
O551 C560 1.261 . S
O552 Gd514 2.388 . S
O552 C560 1.252 . S
O553 Gd514 2.386 . S
O553 C571 1.265 . S
O554 Gd515 2.353 . S
O554 C571 1.242 . S
O555 Gd515 2.468 . S
O555 C579 1.263 . S
O556 Gd515 2.427 . S
O556 C579 1.252 . S
O557 Gd514 2.307 . S
O557 C572 1.261 . S
O558 Gd515 2.388 . S
O558 C572 1.252 . S
C559 O547 1.265 . S
C559 O548 1.242 . S
C560 O551 1.261 . S
C560 O552 1.252 . S
C561 C564 1.394 . S
C561 C566 1.370 . S
C561 C567 1.500 . S
C562 C565 1.383 . S
C562 C566 1.395 . S
C563 C564 1.396 . S
C563 C565 1.365 . S
C563 H580 0.929 . S
C564 C561 1.394 . S
C564 C563 1.396 . S
C564 H581 0.930 . S
C565 C562 1.383 . S
C565 C563 1.365 . S
C565 H582 0.931 . S
C566 C561 1.370 . S
C566 C562 1.395 . S
C566 H583 0.930 . S
C567 Gd514 2.805 . S
C567 O549 1.263 . S
C567 O550 1.252 . S
C567 C561 1.500 . S
C568 H530 0.930 . S
C568 C544 1.417 . S
C568 C569 1.329 . S
C569 C539 1.437 . S
C569 H540 0.929 . S
C569 C568 1.329 . S
H570 C543 0.931 . S
C571 O553 1.265 . S
C571 O554 1.242 . S
C572 O557 1.261 . S
C572 O558 1.252 . S
C573 C576 1.394 . S
C573 C578 1.370 . S
C573 C579 1.500 . S
C574 C577 1.383 . S
C574 C578 1.395 . S
C575 C576 1.396 . S
C575 C577 1.365 . S
C575 H584 0.929 . S
C576 C573 1.394 . S
C576 C575 1.396 . S
C576 H585 0.930 . S
C577 C574 1.383 . S
C577 C575 1.365 . S
C577 H586 0.931 . S
C578 C573 1.370 . S
C578 C574 1.395 . S
C578 H587 0.930 . S
C579 Gd515 2.805 . S
C579 O555 1.263 . S
C579 O556 1.252 . S
C579 C573 1.500 . S
H580 C563 0.929 . S
H581 C564 0.930 . S
H582 C565 0.931 . S
H583 C566 0.930 . S
H584 C575 0.929 . S
H585 C576 0.930 . S
H586 C577 0.931 . S
H587 C578 0.930 . S
C588 C590 1.422 . S
C588 C592 1.415 . S
C588 N594 1.369 . S
C589 C590 1.421 . S
C589 C591 1.417 . S
C589 C601 1.422 . S
C590 C588 1.422 . S
C590 C589 1.421 . S
C590 N600 1.359 . S
C591 C589 1.417 . S
C591 C593 1.329 . S
C591 H610 0.930 . S
C592 C588 1.415 . S
C592 C593 1.437 . S
C592 C596 1.413 . S
C593 C591 1.329 . S
C593 C592 1.437 . S
C593 H615 0.929 . S
N594 C588 1.369 . S
N594 C595 1.338 . S
N594 Gd599 2.622 . S
C595 N594 1.338 . S
C595 C597 1.378 . S
C595 H607 0.929 . S
C596 C592 1.413 . S
C596 C597 1.348 . S
C596 H612 0.931 . S
C597 C595 1.378 . S
C597 C596 1.348 . S
C597 H613 0.930 . S
Gd598 N618 2.622 . S
Gd598 N625 2.570 . S
Gd598 O632 2.353 . S
Gd598 O633 2.468 . S
Gd598 O634 2.427 . S
Gd598 O636 2.388 . S
Gd598 O637 2.386 . S
Gd598 O641 2.307 . S
Gd598 C651 2.805 . S
Gd599 N594 2.622 . S
Gd599 N600 2.570 . S
Gd599 O631 2.386 . S
Gd599 O635 2.307 . S
Gd599 O638 2.353 . S
Gd599 O639 2.468 . S
Gd599 O640 2.427 . S
Gd599 O642 2.388 . S
Gd599 C663 2.805 . S
N600 C590 1.359 . S
N600 Gd599 2.570 . S
N600 C602 1.343 . S
C601 C589 1.422 . S
C601 C603 1.321 . S
C601 H609 0.931 . S
C602 N600 1.343 . S
C602 C603 1.390 . S
C602 H604 0.931 . S
C603 C601 1.321 . S
C603 C602 1.390 . S
C603 H605 0.930 . S
H604 C602 0.931 . S
H605 C603 0.930 . S
H606 C629 0.931 . S
H607 C595 0.929 . S
H608 C630 0.930 . S
H609 C601 0.931 . S
H610 C591 0.930 . S
H611 C620 0.929 . S
H612 C596 0.931 . S
H613 C597 0.930 . S
H614 C652 0.930 . S
H615 C593 0.929 . S
H616 C621 0.931 . S
H617 C622 0.930 . S
N618 Gd598 2.622 . S
N618 C619 1.369 . S
N618 C620 1.338 . S
C619 N618 1.369 . S
C619 C623 1.415 . S
C619 C626 1.422 . S
C620 H611 0.929 . S
C620 N618 1.338 . S
C620 C622 1.378 . S
C621 H616 0.931 . S
C621 C622 1.348 . S
C621 C623 1.413 . S
C622 H617 0.930 . S
C622 C620 1.378 . S
C622 C621 1.348 . S
C623 C619 1.415 . S
C623 C621 1.413 . S
C623 C653 1.437 . S
H624 C653 0.929 . S
N625 Gd598 2.570 . S
N625 C626 1.359 . S
N625 C629 1.343 . S
C626 C619 1.422 . S
C626 N625 1.359 . S
C626 C628 1.421 . S
C627 C628 1.422 . S
C627 C630 1.321 . S
C627 H654 0.931 . S
C628 C626 1.421 . S
C628 C627 1.422 . S
C628 C652 1.417 . S
C629 H606 0.931 . S
C629 N625 1.343 . S
C629 C630 1.390 . S
C630 H608 0.930 . S
C630 C627 1.321 . S
C630 C629 1.390 . S
O631 Gd599 2.386 . S
O631 C643 1.265 . S
O632 Gd598 2.353 . S
O632 C643 1.242 . S
O633 Gd598 2.468 . S
O633 C651 1.263 . S
O634 Gd598 2.427 . S
O634 C651 1.252 . S
O635 Gd599 2.307 . S
O635 C644 1.261 . S
O636 Gd598 2.388 . S
O636 C644 1.252 . S
O637 Gd598 2.386 . S
O637 C655 1.265 . S
O638 Gd599 2.353 . S
O638 C655 1.242 . S
O639 Gd599 2.468 . S
O639 C663 1.263 . S
O640 Gd599 2.427 . S
O640 C663 1.252 . S
O641 Gd598 2.307 . S
O641 C656 1.261 . S
O642 Gd599 2.388 . S
O642 C656 1.252 . S
C643 O631 1.265 . S
C643 O632 1.242 . S
C644 O635 1.261 . S
C644 O636 1.252 . S
C645 C648 1.394 . S
C645 C650 1.370 . S
C645 C651 1.500 . S
C646 C649 1.383 . S
C646 C650 1.395 . S
C647 C648 1.396 . S
C647 C649 1.365 . S
C647 H664 0.929 . S
C648 C645 1.394 . S
C648 C647 1.396 . S
C648 H665 0.930 . S
C649 C646 1.383 . S
C649 C647 1.365 . S
C649 H666 0.931 . S
C650 C645 1.370 . S
C650 C646 1.395 . S
C650 H667 0.930 . S
C651 Gd598 2.805 . S
C651 O633 1.263 . S
C651 O634 1.252 . S
C651 C645 1.500 . S
C652 H614 0.930 . S
C652 C628 1.417 . S
C652 C653 1.329 . S
C653 C623 1.437 . S
C653 H624 0.929 . S
C653 C652 1.329 . S
H654 C627 0.931 . S
C655 O637 1.265 . S
C655 O638 1.242 . S
C656 O641 1.261 . S
C656 O642 1.252 . S
C657 C660 1.394 . S
C657 C662 1.370 . S
C657 C663 1.500 . S
C658 C661 1.383 . S
C658 C662 1.395 . S
C659 C660 1.396 . S
C659 C661 1.365 . S
C659 H668 0.929 . S
C660 C657 1.394 . S
C660 C659 1.396 . S
C660 H669 0.930 . S
C661 C658 1.383 . S
C661 C659 1.365 . S
C661 H670 0.931 . S
C662 C657 1.370 . S
C662 C658 1.395 . S
C662 H671 0.930 . S
C663 Gd599 2.805 . S
C663 O639 1.263 . S
C663 O640 1.252 . S
C663 C657 1.500 . S
H664 C647 0.929 . S
H665 C648 0.930 . S
H666 C649 0.931 . S
H667 C650 0.930 . S
H668 C659 0.929 . S
H669 C660 0.930 . S
H670 C661 0.931 . S
H671 C662 0.930 . S
Co672 O675 2.042 . S
Co672 O682 2.264 . S
Co672 O701 2.286 . S
Co672 O702 2.069 . S
Co672 O704 2.015 1_455 S
Co673 O675 2.122 . S
Co673 O681 2.073 . S
Co673 O682 2.327 . S
Co673 O683 1.976 1_455 S
Co674 O675 2.084 1_545 S
Co674 O677 2.090 1_455 S
Co674 O684 2.106 1_445 S
Co674 O685 2.150 . S
Co674 O689 2.117 . S
Co674 O703 2.137 1_445 S
O675 Co672 2.042 . S
O675 Co673 2.122 . S
O675 Co674 2.084 1_565 S
O675 H676 0.980 . S
H676 O675 0.980 . S
O677 Co674 2.090 1_655 S
O677 Co678 2.042 . S
O677 Co679 2.122 . S
O677 H680 0.980 . S
Co678 O677 2.042 . S
Co678 O686 2.286 . S
Co678 O687 2.069 . S
Co678 O688 2.015 1_655 S
Co678 O691 2.264 . S
Co679 O677 2.122 . S
Co679 O690 1.976 1_655 S
Co679 O691 2.327 . S
Co679 O692 2.073 . S
H680 O677 0.980 . S
O681 Co673 2.073 . S
O681 C696 1.245 . S
O682 Co672 2.264 . S
O682 Co673 2.327 . S
O682 C696 1.257 . S
O683 Co673 1.976 1_655 S
O683 C695 1.251 . S
O684 Co674 2.106 1_665 S
O684 C695 1.274 . S
O685 Co674 2.150 . S
O685 C698 1.246 . S
O686 Co678 2.286 . S
O686 C697 1.259 . S
O687 Co678 2.069 . S
O687 C697 1.289 . S
O688 Co678 2.015 1_455 S
O688 C698 1.257 . S
O689 Co674 2.117 . S
O689 C699 1.274 . S
O690 Co679 1.976 1_455 S
O690 C699 1.251 . S
O691 Co678 2.264 . S
O691 Co679 2.327 . S
O691 C700 1.257 . S
O692 Co679 2.073 . S
O692 C700 1.245 . S
C693 O701 1.259 . S
C693 O702 1.289 . S
C694 O703 1.246 . S
C694 O704 1.257 . S
C695 O683 1.251 . S
C695 O684 1.274 . S
C696 O681 1.245 . S
C696 O682 1.257 . S
C697 O686 1.259 . S
C697 O687 1.289 . S
C698 O685 1.246 . S
C698 O688 1.257 . S
C699 O689 1.274 . S
C699 O690 1.251 . S
C700 O691 1.257 . S
C700 O692 1.245 . S
O701 Co672 2.286 . S
O701 C693 1.259 . S
O702 Co672 2.069 . S
O702 C693 1.289 . S
O703 Co674 2.137 1_665 S
O703 C694 1.246 . S
O704 Co672 2.015 1_655 S
O704 C694 1.257 . S
Co705 O708 2.042 1_556 S
Co705 O715 2.264 1_556 S
Co705 O734 2.286 . S
Co705 O735 2.069 . S
Co705 O737 2.015 . S
Co706 O708 2.122 . S
Co706 O714 2.073 . S
Co706 O715 2.327 . S
Co706 O716 1.976 . S
Co707 O708 2.079 1_545 S
Co707 O710 2.095 1_554 S
Co707 O717 2.109 1_545 S
Co707 O718 2.148 . S
Co707 O722 2.114 1_554 S
Co707 O736 2.139 1_544 S
O708 Co705 2.042 1_554 S
O708 Co706 2.122 . S
O708 Co707 2.079 1_565 S
O708 H709 0.980 . S
H709 O708 0.980 . S
O710 Co707 2.095 1_556 S
O710 Co711 2.042 1_556 S
O710 Co712 2.122 . S
O710 H713 0.980 . S
Co711 O710 2.042 1_554 S
Co711 O719 2.286 . S
Co711 O720 2.069 . S
Co711 O721 2.015 . S
Co711 O724 2.264 1_554 S
Co712 O710 2.122 . S
Co712 O723 1.976 . S
Co712 O724 2.327 . S
Co712 O725 2.073 . S
H713 O710 0.980 . S
O714 Co706 2.073 . S
O714 C729 1.245 . S
O715 Co705 2.264 1_554 S
O715 Co706 2.327 . S
O715 C729 1.257 . S
O716 Co706 1.976 . S
O716 C728 1.251 . S
O717 Co707 2.109 1_565 S
O717 C728 1.274 . S
O718 Co707 2.148 . S
O718 C731 1.246 . S
O719 Co711 2.286 . S
O719 C730 1.259 . S
O720 Co711 2.069 . S
O720 C730 1.289 . S
O721 Co711 2.015 . S
O721 C731 1.257 . S
O722 Co707 2.114 1_556 S
O722 C732 1.274 . S
O723 Co712 1.976 . S
O723 C732 1.251 . S
O724 Co711 2.264 1_556 S
O724 Co712 2.327 . S
O724 C733 1.257 . S
O725 Co712 2.073 . S
O725 C733 1.245 . S
C726 O734 1.259 . S
C726 O735 1.289 . S
C727 O736 1.246 . S
C727 O737 1.257 . S
C728 O716 1.251 . S
C728 O717 1.274 . S
C729 O714 1.245 . S
C729 O715 1.257 . S
C730 O719 1.259 . S
C730 O720 1.289 . S
C731 O718 1.246 . S
C731 O721 1.257 . S
C732 O722 1.274 . S
C732 O723 1.251 . S
C733 O724 1.257 . S
C733 O725 1.245 . S
O734 Co705 2.286 . S
O734 C726 1.259 . S
O735 Co705 2.069 . S
O735 C726 1.289 . S
O736 Co707 2.139 1_566 S
O736 C727 1.246 . S
O737 Co705 2.015 . S
O737 C727 1.257 . S
Co738 O741 2.042 1_556 S
Co738 O748 2.264 1_556 S
Co738 O767 2.286 . S
Co738 O768 2.069 . S
Co738 O770 2.015 1_455 S
Co739 O741 2.122 . S
Co739 O747 2.073 . S
Co739 O748 2.327 . S
Co739 O749 1.976 1_455 S
Co740 O741 2.092 . S
Co740 O743 2.082 1_454 S
Co740 O750 2.108 1_455 S
Co740 O751 2.146 . S
Co740 O755 2.114 1_554 S
Co740 O769 2.141 1_454 S
O741 Co738 2.042 1_554 S
O741 Co739 2.122 . S
O741 Co740 2.092 . S
O741 H742 0.980 . S
H742 O741 0.980 . S
O743 Co740 2.082 1_656 S
O743 Co744 2.042 1_556 S
O743 Co745 2.122 . S
O743 H746 0.980 . S
Co744 O743 2.042 1_554 S
Co744 O752 2.286 . S
Co744 O753 2.069 . S
Co744 O754 2.015 1_655 S
Co744 O757 2.264 1_554 S
Co745 O743 2.122 . S
Co745 O756 1.976 1_655 S
Co745 O757 2.327 . S
Co745 O758 2.073 . S
H746 O743 0.980 . S
O747 Co739 2.073 . S
O747 C762 1.245 . S
O748 Co738 2.264 1_554 S
O748 Co739 2.327 . S
O748 C762 1.257 . S
O749 Co739 1.976 1_655 S
O749 C761 1.251 . S
O750 Co740 2.108 1_655 S
O750 C761 1.274 . S
O751 Co740 2.146 . S
O751 C764 1.246 . S
O752 Co744 2.286 . S
O752 C763 1.259 . S
O753 Co744 2.069 . S
O753 C763 1.289 . S
O754 Co744 2.015 1_455 S
O754 C764 1.257 . S
O755 Co740 2.114 1_556 S
O755 C765 1.274 . S
O756 Co745 1.976 1_455 S
O756 C765 1.251 . S
O757 Co744 2.264 1_556 S
O757 Co745 2.327 . S
O757 C766 1.257 . S
O758 Co745 2.073 . S
O758 C766 1.245 . S
C759 O767 1.259 . S
C759 O768 1.289 . S
C760 O769 1.246 . S
C760 O770 1.257 . S
C761 O749 1.251 . S
C761 O750 1.274 . S
C762 O747 1.245 . S
C762 O748 1.257 . S
C763 O752 1.259 . S
C763 O753 1.289 . S
C764 O751 1.246 . S
C764 O754 1.257 . S
C765 O755 1.274 . S
C765 O756 1.251 . S
C766 O757 1.257 . S
C766 O758 1.245 . S
O767 Co738 2.286 . S
O767 C759 1.259 . S
O768 Co738 2.069 . S
O768 C759 1.289 . S
O769 Co740 2.141 1_656 S
O769 C760 1.246 . S
O770 Co738 2.015 1_655 S
O770 C760 1.257 . S
Co771 O774 2.042 1_556 S
Co771 O781 2.264 1_556 S
Co771 O800 2.286 . S
Co771 O801 2.069 . S
Co771 O803 2.015 . S
Co772 O774 2.122 . S
Co772 O780 2.073 . S
Co772 O781 2.327 . S
Co772 O782 1.976 . S
Co773 O774 2.087 . S
Co773 O776 2.087 1_554 S
Co773 O783 2.111 . S
Co773 O784 2.143 . S
Co773 O788 2.111 1_554 S
Co773 O802 2.143 1_554 S
O774 Co771 2.042 1_554 S
O774 Co772 2.122 . S
O774 Co773 2.087 . S
O774 H775 0.980 . S
H775 O774 0.980 . S
O776 Co773 2.087 1_556 S
O776 Co777 2.042 1_556 S
O776 Co778 2.122 . S
O776 H779 0.980 . S
Co777 O776 2.042 1_554 S
Co777 O785 2.286 . S
Co777 O786 2.069 . S
Co777 O787 2.015 . S
Co777 O790 2.264 1_554 S
Co778 O776 2.122 . S
Co778 O789 1.976 . S
Co778 O790 2.327 . S
Co778 O791 2.073 . S
H779 O776 0.980 . S
O780 Co772 2.073 . S
O780 C795 1.245 . S
O781 Co771 2.264 1_554 S
O781 Co772 2.327 . S
O781 C795 1.257 . S
O782 Co772 1.976 . S
O782 C794 1.251 . S
O783 Co773 2.111 . S
O783 C794 1.274 . S
O784 Co773 2.143 . S
O784 C797 1.246 . S
O785 Co777 2.286 . S
O785 C796 1.259 . S
O786 Co777 2.069 . S
O786 C796 1.289 . S
O787 Co777 2.015 . S
O787 C797 1.257 . S
O788 Co773 2.111 1_556 S
O788 C798 1.274 . S
O789 Co778 1.976 . S
O789 C798 1.251 . S
O790 Co777 2.264 1_556 S
O790 Co778 2.327 . S
O790 C799 1.257 . S
O791 Co778 2.073 . S
O791 C799 1.245 . S
C792 O800 1.259 . S
C792 O801 1.289 . S
C793 O802 1.246 . S
C793 O803 1.257 . S
C794 O782 1.251 . S
C794 O783 1.274 . S
C795 O780 1.245 . S
C795 O781 1.257 . S
C796 O785 1.259 . S
C796 O786 1.289 . S
C797 O784 1.246 . S
C797 O787 1.257 . S
C798 O788 1.274 . S
C798 O789 1.251 . S
C799 O790 1.257 . S
C799 O791 1.245 . S
O800 Co771 2.286 . S
O800 C792 1.259 . S
O801 Co771 2.069 . S
O801 C792 1.289 . S
O802 Co773 2.143 1_556 S
O802 C793 1.246 . S
O803 Co771 2.015 . S
O803 C793 1.257 . S
Co804 O807 2.042 . S
Co804 O814 2.264 . S
Co804 O833 2.286 . S
Co804 O834 2.069 . S
Co804 O836 2.015 . S
Co805 O807 2.122 . S
Co805 O813 2.073 . S
Co805 O814 2.327 . S
Co805 O815 1.976 . S
Co806 O807 2.092 . S
Co806 O809 2.082 1_455 S
Co806 O816 2.113 . S
Co806 O817 2.140 1_455 S
Co806 O821 2.110 1_455 S
Co806 O835 2.147 . S
O807 Co804 2.042 . S
O807 Co805 2.122 . S
O807 Co806 2.092 . S
O807 H808 0.980 . S
H808 O807 0.980 . S
O809 Co806 2.082 1_655 S
O809 Co810 2.042 . S
O809 Co811 2.122 . S
O809 H812 0.980 . S
Co810 O809 2.042 . S
Co810 O818 2.286 . S
Co810 O819 2.069 . S
Co810 O820 2.015 . S
Co810 O823 2.264 . S
Co811 O809 2.122 . S
Co811 O822 1.976 . S
Co811 O823 2.327 . S
Co811 O824 2.073 . S
H812 O809 0.980 . S
O813 Co805 2.073 . S
O813 C828 1.245 . S
O814 Co804 2.264 . S
O814 Co805 2.327 . S
O814 C828 1.257 . S
O815 Co805 1.976 . S
O815 C827 1.251 . S
O816 Co806 2.113 . S
O816 C827 1.274 . S
O817 Co806 2.140 1_655 S
O817 C830 1.246 . S
O818 Co810 2.286 . S
O818 C829 1.259 . S
O819 Co810 2.069 . S
O819 C829 1.289 . S
O820 Co810 2.015 . S
O820 C830 1.257 . S
O821 Co806 2.110 1_655 S
O821 C831 1.274 . S
O822 Co811 1.976 . S
O822 C831 1.251 . S
O823 Co810 2.264 . S
O823 Co811 2.327 . S
O823 C832 1.257 . S
O824 Co811 2.073 . S
O824 C832 1.245 . S
C825 O833 1.259 . S
C825 O834 1.289 . S
C826 O835 1.246 . S
C826 O836 1.257 . S
C827 O815 1.251 . S
C827 O816 1.274 . S
C828 O813 1.245 . S
C828 O814 1.257 . S
C829 O818 1.259 . S
C829 O819 1.289 . S
C830 O817 1.246 . S
C830 O820 1.257 . S
C831 O821 1.274 . S
C831 O822 1.251 . S
C832 O823 1.257 . S
C832 O824 1.245 . S
O833 Co804 2.286 . S
O833 C825 1.259 . S
O834 Co804 2.069 . S
O834 C825 1.289 . S
O835 Co806 2.147 . S
O835 C826 1.246 . S
O836 Co804 2.015 . S
O836 C826 1.257 . S
Co837 O840 2.042 . S
Co837 O847 2.264 . S
Co837 O866 2.286 . S
Co837 O867 2.069 . S
Co837 O869 2.015 1_565 S
Co838 O840 2.122 . S
Co838 O846 2.073 . S
Co838 O847 2.327 . S
Co838 O848 1.976 1_565 S
Co839 O840 2.079 1_545 S
Co839 O842 2.095 . S
Co839 O849 2.117 . S
Co839 O850 2.140 1_545 S
Co839 O854 2.106 1_545 S
Co839 O868 2.147 . S
O840 Co837 2.042 . S
O840 Co838 2.122 . S
O840 Co839 2.079 1_565 S
O840 H841 0.980 . S
H841 O840 0.980 . S
O842 Co839 2.095 . S
O842 Co843 2.042 . S
O842 Co844 2.122 . S
O842 H845 0.980 . S
Co843 O842 2.042 . S
Co843 O851 2.286 . S
Co843 O852 2.069 . S
Co843 O853 2.015 1_545 S
Co843 O856 2.264 . S
Co844 O842 2.122 . S
Co844 O855 1.976 1_545 S
Co844 O856 2.327 . S
Co844 O857 2.073 . S
H845 O842 0.980 . S
O846 Co838 2.073 . S
O846 C861 1.245 . S
O847 Co837 2.264 . S
O847 Co838 2.327 . S
O847 C861 1.257 . S
O848 Co838 1.976 1_545 S
O848 C860 1.251 . S
O849 Co839 2.117 . S
O849 C860 1.274 . S
O850 Co839 2.140 1_565 S
O850 C863 1.246 . S
O851 Co843 2.286 . S
O851 C862 1.259 . S
O852 Co843 2.069 . S
O852 C862 1.289 . S
O853 Co843 2.015 1_565 S
O853 C863 1.257 . S
O854 Co839 2.106 1_565 S
O854 C864 1.274 . S
O855 Co844 1.976 1_565 S
O855 C864 1.251 . S
O856 Co843 2.264 . S
O856 Co844 2.327 . S
O856 C865 1.257 . S
O857 Co844 2.073 . S
O857 C865 1.245 . S
C858 O866 1.259 . S
C858 O867 1.289 . S
C859 O868 1.246 . S
C859 O869 1.257 . S
C860 O848 1.251 . S
C860 O849 1.274 . S
C861 O846 1.245 . S
C861 O847 1.257 . S
C862 O851 1.259 . S
C862 O852 1.289 . S
C863 O850 1.246 . S
C863 O853 1.257 . S
C864 O854 1.274 . S
C864 O855 1.251 . S
C865 O856 1.257 . S
C865 O857 1.245 . S
O866 Co837 2.286 . S
O866 C858 1.259 . S
O867 Co837 2.069 . S
O867 C858 1.289 . S
O868 Co839 2.147 . S
O868 C859 1.246 . S
O869 Co837 2.015 1_545 S
O869 C859 1.257 . S
C870 C871 1.349 . S
C870 C872 1.327 . S
C870 H895 0.950 . S
C871 C870 1.349 . S
C871 C887 1.349 . S
C872 C870 1.327 . S
C872 C891 1.429 . S
C872 H896 0.950 . S
C873 C890 1.574 . S
C873 C892 1.368 . S
C873 H897 0.949 . S
H874 C878 0.949 . S
C875 C876 1.349 . S
C875 C877 1.327 . S
C875 H898 0.950 . S
C876 C875 1.349 . S
C876 C888 1.349 . S
C877 C875 1.327 . S
C877 C893 1.429 . S
C877 H899 0.950 . S
C878 H874 0.949 . S
C878 C886 1.574 . S
C878 C894 1.368 . S
H879 C887 0.950 . S
H880 C885 0.950 . S
H881 C886 0.949 . S
H882 C888 0.950 . S
H883 C889 0.950 . S
H884 C890 0.949 . S
C885 H880 0.950 . S
C885 C887 1.327 . S
C885 C891 1.429 . S
C886 C878 1.574 . S
C886 H881 0.949 . S
C886 C892 1.368 . S
C887 C871 1.349 . S
C887 H879 0.950 . S
C887 C885 1.327 . S
C888 C876 1.349 . S
C888 H882 0.950 . S
C888 C889 1.327 . S
C889 H883 0.950 . S
C889 C888 1.327 . S
C889 C893 1.429 . S
C890 C873 1.574 . S
C890 H884 0.949 . S
C890 C894 1.368 . S
C891 C872 1.429 . S
C891 C885 1.429 . S
C891 C892 1.523 . S
C892 C873 1.368 . S
C892 C886 1.368 . S
C892 C891 1.523 . S
C893 C877 1.429 . S
C893 C889 1.429 . S
C893 C894 1.523 . S
C894 C878 1.368 . S
C894 C890 1.368 . S
C894 C893 1.523 . S
H895 C870 0.950 . S
H896 C872 0.950 . S
H897 C873 0.949 . S
H898 C875 0.950 . S
H899 C877 0.950 . S
C900 C901 1.349 . S
C900 C902 1.327 . S
C900 H925 0.950 . S
C901 C900 1.349 . S
C901 C917 1.349 . S
C902 C900 1.327 . S
C902 C921 1.429 . S
C902 H926 0.950 . S
C903 C920 1.574 . S
C903 C922 1.368 . S
C903 H927 0.949 . S
H904 C908 0.949 . S
C905 C906 1.349 . S
C905 C907 1.327 . S
C905 H928 0.950 . S
C906 C905 1.349 . S
C906 C918 1.349 . S
C907 C905 1.327 . S
C907 C923 1.429 . S
C907 H929 0.950 . S
C908 H904 0.949 . S
C908 C916 1.574 . S
C908 C924 1.368 . S
H909 C917 0.950 . S
H910 C915 0.950 . S
H911 C916 0.949 . S
H912 C918 0.950 . S
H913 C919 0.950 . S
H914 C920 0.949 . S
C915 H910 0.950 . S
C915 C917 1.327 . S
C915 C921 1.429 . S
C916 C908 1.574 . S
C916 H911 0.949 . S
C916 C922 1.368 . S
C917 C901 1.349 . S
C917 H909 0.950 . S
C917 C915 1.327 . S
C918 C906 1.349 . S
C918 H912 0.950 . S
C918 C919 1.327 . S
C919 H913 0.950 . S
C919 C918 1.327 . S
C919 C923 1.429 . S
C920 C903 1.574 . S
C920 H914 0.949 . S
C920 C924 1.368 . S
C921 C902 1.429 . S
C921 C915 1.429 . S
C921 C922 1.523 . S
C922 C903 1.368 . S
C922 C916 1.368 . S
C922 C921 1.523 . S
C923 C907 1.429 . S
C923 C919 1.429 . S
C923 C924 1.523 . S
C924 C908 1.368 . S
C924 C920 1.368 . S
C924 C923 1.523 . S
H925 C900 0.950 . S
H926 C902 0.950 . S
H927 C903 0.949 . S
H928 C905 0.950 . S
H929 C907 0.950 . S
C930 C931 1.349 . S
C930 C932 1.327 . S
C930 H955 0.950 . S
C931 C930 1.349 . S
C931 C947 1.349 . S
C932 C930 1.327 . S
C932 C951 1.429 . S
C932 H956 0.950 . S
C933 C950 1.574 . S
C933 C952 1.368 . S
C933 H957 0.949 . S
H934 C938 0.949 . S
C935 C936 1.349 . S
C935 C937 1.327 . S
C935 H958 0.950 . S
C936 C935 1.349 . S
C936 C948 1.349 . S
C937 C935 1.327 . S
C937 C953 1.429 . S
C937 H959 0.950 . S
C938 H934 0.949 . S
C938 C946 1.574 . S
C938 C954 1.368 . S
H939 C947 0.950 . S
H940 C945 0.950 . S
H941 C946 0.949 . S
H942 C948 0.950 . S
H943 C949 0.950 . S
H944 C950 0.949 . S
C945 H940 0.950 . S
C945 C947 1.327 . S
C945 C951 1.429 . S
C946 C938 1.574 . S
C946 H941 0.949 . S
C946 C952 1.368 . S
C947 C931 1.349 . S
C947 H939 0.950 . S
C947 C945 1.327 . S
C948 C936 1.349 . S
C948 H942 0.950 . S
C948 C949 1.327 . S
C949 H943 0.950 . S
C949 C948 1.327 . S
C949 C953 1.429 . S
C950 C933 1.574 . S
C950 H944 0.949 . S
C950 C954 1.368 . S
C951 C932 1.429 . S
C951 C945 1.429 . S
C951 C952 1.523 . S
C952 C933 1.368 . S
C952 C946 1.368 . S
C952 C951 1.523 . S
C953 C937 1.429 . S
C953 C949 1.429 . S
C953 C954 1.523 . S
C954 C938 1.368 . S
C954 C950 1.368 . S
C954 C953 1.523 . S
H955 C930 0.950 . S
H956 C932 0.950 . S
H957 C933 0.949 . S
H958 C935 0.950 . S
H959 C937 0.950 . S
C960 C961 1.349 . S
C960 C962 1.327 . S
C960 H985 0.950 . S
C961 C960 1.349 . S
C961 C977 1.349 . S
C962 C960 1.327 . S
C962 C981 1.429 . S
C962 H986 0.950 . S
C963 C980 1.574 . S
C963 C982 1.368 . S
C963 H987 0.949 . S
H964 C968 0.949 . S
C965 C966 1.349 . S
C965 C967 1.327 . S
C965 H988 0.950 . S
C966 C965 1.349 . S
C966 C978 1.349 . S
C967 C965 1.327 . S
C967 C983 1.429 . S
C967 H989 0.950 . S
C968 H964 0.949 . S
C968 C976 1.574 . S
C968 C984 1.368 . S
H969 C977 0.950 . S
H970 C975 0.950 . S
H971 C976 0.949 . S
H972 C978 0.950 . S
H973 C979 0.950 . S
H974 C980 0.949 . S
C975 H970 0.950 . S
C975 C977 1.327 . S
C975 C981 1.429 . S
C976 C968 1.574 . S
C976 H971 0.949 . S
C976 C982 1.368 . S
C977 C961 1.349 . S
C977 H969 0.950 . S
C977 C975 1.327 . S
C978 C966 1.349 . S
C978 H972 0.950 . S
C978 C979 1.327 . S
C979 H973 0.950 . S
C979 C978 1.327 . S
C979 C983 1.429 . S
C980 C963 1.574 . S
C980 H974 0.949 . S
C980 C984 1.368 . S
C981 C962 1.429 . S
C981 C975 1.429 . S
C981 C982 1.523 . S
C982 C963 1.368 . S
C982 C976 1.368 . S
C982 C981 1.523 . S
C983 C967 1.429 . S
C983 C979 1.429 . S
C983 C984 1.523 . S
C984 C968 1.368 . S
C984 C980 1.368 . S
C984 C983 1.523 . S
H985 C960 0.950 . S
H986 C962 0.950 . S
H987 C963 0.949 . S
H988 C965 0.950 . S
H989 C967 0.950 . S
C990 C991 1.349 . S
C990 C992 1.327 . S
C990 H1015 0.950 . S
C991 C990 1.349 . S
C991 C1007 1.349 . S
C992 C990 1.327 . S
C992 C1011 1.429 . S
C992 H1016 0.950 . S
C993 C1010 1.574 . S
C993 C1012 1.368 . S
C993 H1017 0.949 . S
H994 C998 0.949 . S
C995 C996 1.349 . S
C995 C997 1.327 . S
C995 H1018 0.950 . S
C996 C995 1.349 . S
C996 C1008 1.349 . S
C997 C995 1.327 . S
C997 C1013 1.429 . S
C997 H1019 0.950 . S
C998 H994 0.949 . S
C998 C1006 1.574 . S
C998 C1014 1.368 . S
H999 C1007 0.950 . S
H1000 C1005 0.950 . S
H1001 C1006 0.949 . S
H1002 C1008 0.950 . S
H1003 C1009 0.950 . S
H1004 C1010 0.949 . S
C1005 H1000 0.950 . S
C1005 C1007 1.327 . S
C1005 C1011 1.429 . S
C1006 C998 1.574 . S
C1006 H1001 0.949 . S
C1006 C1012 1.368 . S
C1007 C991 1.349 . S
C1007 H999 0.950 . S
C1007 C1005 1.327 . S
C1008 C996 1.349 . S
C1008 H1002 0.950 . S
C1008 C1009 1.327 . S
C1009 H1003 0.950 . S
C1009 C1008 1.327 . S
C1009 C1013 1.429 . S
C1010 C993 1.574 . S
C1010 H1004 0.949 . S
C1010 C1014 1.368 . S
C1011 C992 1.429 . S
C1011 C1005 1.429 . S
C1011 C1012 1.523 . S
C1012 C993 1.368 . S
C1012 C1006 1.368 . S
C1012 C1011 1.523 . S
C1013 C997 1.429 . S
C1013 C1009 1.429 . S
C1013 C1014 1.523 . S
C1014 C998 1.368 . S
C1014 C1010 1.368 . S
C1014 C1013 1.523 . S
H1015 C990 0.950 . S
H1016 C992 0.950 . S
H1017 C993 0.949 . S
H1018 C995 0.950 . S
H1019 C997 0.950 . S
C1020 C1021 1.349 . S
C1020 C1022 1.327 . S
C1020 H1045 0.950 . S
C1021 C1020 1.349 . S
C1021 C1037 1.349 . S
C1022 C1020 1.327 . S
C1022 C1041 1.429 . S
C1022 H1046 0.950 . S
C1023 C1040 1.574 . S
C1023 C1042 1.368 . S
C1023 H1047 0.949 . S
H1024 C1028 0.949 . S
C1025 C1026 1.349 . S
C1025 C1027 1.327 . S
C1025 H1048 0.950 . S
C1026 C1025 1.349 . S
C1026 C1038 1.349 . S
C1027 C1025 1.327 . S
C1027 C1043 1.429 . S
C1027 H1049 0.950 . S
C1028 H1024 0.949 . S
C1028 C1036 1.574 . S
C1028 C1044 1.368 . S
H1029 C1037 0.950 . S
H1030 C1035 0.950 . S
H1031 C1036 0.949 . S
H1032 C1038 0.950 . S
H1033 C1039 0.950 . S
H1034 C1040 0.949 . S
C1035 H1030 0.950 . S
C1035 C1037 1.327 . S
C1035 C1041 1.429 . S
C1036 C1028 1.574 . S
C1036 H1031 0.949 . S
C1036 C1042 1.368 . S
C1037 C1021 1.349 . S
C1037 H1029 0.950 . S
C1037 C1035 1.327 . S
C1038 C1026 1.349 . S
C1038 H1032 0.950 . S
C1038 C1039 1.327 . S
C1039 H1033 0.950 . S
C1039 C1038 1.327 . S
C1039 C1043 1.429 . S
C1040 C1023 1.574 . S
C1040 H1034 0.949 . S
C1040 C1044 1.368 . S
C1041 C1022 1.429 . S
C1041 C1035 1.429 . S
C1041 C1042 1.523 . S
C1042 C1023 1.368 . S
C1042 C1036 1.368 . S
C1042 C1041 1.523 . S
C1043 C1027 1.429 . S
C1043 C1039 1.429 . S
C1043 C1044 1.523 . S
C1044 C1028 1.368 . S
C1044 C1040 1.368 . S
C1044 C1043 1.523 . S
H1045 C1020 0.950 . S
H1046 C1022 0.950 . S
H1047 C1023 0.949 . S
H1048 C1025 0.950 . S
H1049 C1027 0.950 . S
C1050 C1051 1.349 . S
C1050 C1052 1.327 . S
C1050 H1075 0.950 . S
C1051 C1050 1.349 . S
C1051 C1067 1.349 . S
C1052 C1050 1.327 . S
C1052 C1071 1.429 . S
C1052 H1076 0.950 . S
C1053 C1070 1.574 . S
C1053 C1072 1.368 . S
C1053 H1077 0.949 . S
H1054 C1058 0.949 . S
C1055 C1056 1.349 . S
C1055 C1057 1.327 . S
C1055 H1078 0.950 . S
C1056 C1055 1.349 . S
C1056 C1068 1.349 . S
C1057 C1055 1.327 . S
C1057 C1073 1.429 . S
C1057 H1079 0.950 . S
C1058 H1054 0.949 . S
C1058 C1066 1.574 . S
C1058 C1074 1.368 . S
H1059 C1067 0.950 . S
H1060 C1065 0.950 . S
H1061 C1066 0.949 . S
H1062 C1068 0.950 . S
H1063 C1069 0.950 . S
H1064 C1070 0.949 . S
C1065 H1060 0.950 . S
C1065 C1067 1.327 . S
C1065 C1071 1.429 . S
C1066 C1058 1.574 . S
C1066 H1061 0.949 . S
C1066 C1072 1.368 . S
C1067 C1051 1.349 . S
C1067 H1059 0.950 . S
C1067 C1065 1.327 . S
C1068 C1056 1.349 . S
C1068 H1062 0.950 . S
C1068 C1069 1.327 . S
C1069 H1063 0.950 . S
C1069 C1068 1.327 . S
C1069 C1073 1.429 . S
C1070 C1053 1.574 . S
C1070 H1064 0.949 . S
C1070 C1074 1.368 . S
C1071 C1052 1.429 . S
C1071 C1065 1.429 . S
C1071 C1072 1.523 . S
C1072 C1053 1.368 . S
C1072 C1066 1.368 . S
C1072 C1071 1.523 . S
C1073 C1057 1.429 . S
C1073 C1069 1.429 . S
C1073 C1074 1.523 . S
C1074 C1058 1.368 . S
C1074 C1070 1.368 . S
C1074 C1073 1.523 . S
H1075 C1050 0.950 . S
H1076 C1052 0.950 . S
H1077 C1053 0.949 . S
H1078 C1055 0.950 . S
H1079 C1057 0.950 . S
C1080 C1081 1.349 . S
C1080 C1082 1.327 . S
C1080 H1105 0.950 . S
C1081 C1080 1.349 . S
C1081 C1097 1.349 . S
C1082 C1080 1.327 . S
C1082 C1101 1.429 . S
C1082 H1106 0.950 . S
C1083 C1100 1.574 . S
C1083 C1102 1.368 . S
C1083 H1107 0.949 . S
H1084 C1088 0.949 . S
C1085 C1086 1.349 . S
C1085 C1087 1.327 . S
C1085 H1108 0.950 . S
C1086 C1085 1.349 . S
C1086 C1098 1.349 . S
C1087 C1085 1.327 . S
C1087 C1103 1.429 . S
C1087 H1109 0.950 . S
C1088 H1084 0.949 . S
C1088 C1096 1.574 . S
C1088 C1104 1.368 . S
H1089 C1097 0.950 . S
H1090 C1095 0.950 . S
H1091 C1096 0.949 . S
H1092 C1098 0.950 . S
H1093 C1099 0.950 . S
H1094 C1100 0.949 . S
C1095 H1090 0.950 . S
C1095 C1097 1.327 . S
C1095 C1101 1.429 . S
C1096 C1088 1.574 . S
C1096 H1091 0.949 . S
C1096 C1102 1.368 . S
C1097 C1081 1.349 . S
C1097 H1089 0.950 . S
C1097 C1095 1.327 . S
C1098 C1086 1.349 . S
C1098 H1092 0.950 . S
C1098 C1099 1.327 . S
C1099 H1093 0.950 . S
C1099 C1098 1.327 . S
C1099 C1103 1.429 . S
C1100 C1083 1.574 . S
C1100 H1094 0.949 . S
C1100 C1104 1.368 . S
C1101 C1082 1.429 . S
C1101 C1095 1.429 . S
C1101 C1102 1.523 . S
C1102 C1083 1.368 . S
C1102 C1096 1.368 . S
C1102 C1101 1.523 . S
C1103 C1087 1.429 . S
C1103 C1099 1.429 . S
C1103 C1104 1.523 . S
C1104 C1088 1.368 . S
C1104 C1100 1.368 . S
C1104 C1103 1.523 . S
H1105 C1080 0.950 . S
H1106 C1082 0.950 . S
H1107 C1083 0.949 . S
H1108 C1085 0.950 . S
H1109 C1087 0.950 . S
C1110 C1111 1.349 . S
C1110 C1112 1.327 . S
C1110 H1135 0.950 . S
C1111 C1110 1.349 . S
C1111 C1127 1.349 . S
C1112 C1110 1.327 . S
C1112 C1131 1.429 . S
C1112 H1136 0.950 . S
C1113 C1130 1.574 . S
C1113 C1132 1.368 . S
C1113 H1137 0.949 . S
H1114 C1118 0.949 . S
C1115 C1116 1.349 . S
C1115 C1117 1.327 . S
C1115 H1138 0.950 . S
C1116 C1115 1.349 . S
C1116 C1128 1.349 . S
C1117 C1115 1.327 . S
C1117 C1133 1.429 . S
C1117 H1139 0.950 . S
C1118 H1114 0.949 . S
C1118 C1126 1.574 . S
C1118 C1134 1.368 . S
H1119 C1127 0.950 . S
H1120 C1125 0.950 . S
H1121 C1126 0.949 . S
H1122 C1128 0.950 . S
H1123 C1129 0.950 . S
H1124 C1130 0.949 . S
C1125 H1120 0.950 . S
C1125 C1127 1.327 . S
C1125 C1131 1.429 . S
C1126 C1118 1.574 . S
C1126 H1121 0.949 . S
C1126 C1132 1.368 . S
C1127 C1111 1.349 . S
C1127 H1119 0.950 . S
C1127 C1125 1.327 . S
C1128 C1116 1.349 . S
C1128 H1122 0.950 . S
C1128 C1129 1.327 . S
C1129 H1123 0.950 . S
C1129 C1128 1.327 . S
C1129 C1133 1.429 . S
C1130 C1113 1.574 . S
C1130 H1124 0.949 . S
C1130 C1134 1.368 . S
C1131 C1112 1.429 . S
C1131 C1125 1.429 . S
C1131 C1132 1.523 . S
C1132 C1113 1.368 . S
C1132 C1126 1.368 . S
C1132 C1131 1.523 . S
C1133 C1117 1.429 . S
C1133 C1129 1.429 . S
C1133 C1134 1.523 . S
C1134 C1118 1.368 . S
C1134 C1130 1.368 . S
C1134 C1133 1.523 . S
H1135 C1110 0.950 . S
H1136 C1112 0.950 . S
H1137 C1113 0.949 . S
H1138 C1115 0.950 . S
H1139 C1117 0.950 . S
C1140 C1141 1.349 . S
C1140 C1142 1.327 . S
C1140 H1165 0.950 . S
C1141 C1140 1.349 . S
C1141 C1157 1.349 . S
C1142 C1140 1.327 . S
C1142 C1161 1.429 . S
C1142 H1166 0.950 . S
C1143 C1160 1.574 . S
C1143 C1162 1.368 . S
C1143 H1167 0.949 . S
H1144 C1148 0.949 . S
C1145 C1146 1.349 . S
C1145 C1147 1.327 . S
C1145 H1168 0.950 . S
C1146 C1145 1.349 . S
C1146 C1158 1.349 . S
C1147 C1145 1.327 . S
C1147 C1163 1.429 . S
C1147 H1169 0.950 . S
C1148 H1144 0.949 . S
C1148 C1156 1.574 . S
C1148 C1164 1.368 . S
H1149 C1157 0.950 . S
H1150 C1155 0.950 . S
H1151 C1156 0.949 . S
H1152 C1158 0.950 . S
H1153 C1159 0.950 . S
H1154 C1160 0.949 . S
C1155 H1150 0.950 . S
C1155 C1157 1.327 . S
C1155 C1161 1.429 . S
C1156 C1148 1.574 . S
C1156 H1151 0.949 . S
C1156 C1162 1.368 . S
C1157 C1141 1.349 . S
C1157 H1149 0.950 . S
C1157 C1155 1.327 . S
C1158 C1146 1.349 . S
C1158 H1152 0.950 . S
C1158 C1159 1.327 . S
C1159 H1153 0.950 . S
C1159 C1158 1.327 . S
C1159 C1163 1.429 . S
C1160 C1143 1.574 . S
C1160 H1154 0.949 . S
C1160 C1164 1.368 . S
C1161 C1142 1.429 . S
C1161 C1155 1.429 . S
C1161 C1162 1.523 . S
C1162 C1143 1.368 . S
C1162 C1156 1.368 . S
C1162 C1161 1.523 . S
C1163 C1147 1.429 . S
C1163 C1159 1.429 . S
C1163 C1164 1.523 . S
C1164 C1148 1.368 . S
C1164 C1160 1.368 . S
C1164 C1163 1.523 . S
H1165 C1140 0.950 . S
H1166 C1142 0.950 . S
H1167 C1143 0.949 . S
H1168 C1145 0.950 . S
H1169 C1147 0.950 . S
C1170 C1171 1.349 . S
C1170 C1172 1.327 . S
C1170 H1195 0.950 . S
C1171 C1170 1.349 . S
C1171 C1187 1.349 . S
C1172 C1170 1.327 . S
C1172 C1191 1.429 . S
C1172 H1196 0.950 . S
C1173 C1190 1.574 . S
C1173 C1192 1.368 . S
C1173 H1197 0.949 . S
H1174 C1178 0.949 . S
C1175 C1176 1.349 . S
C1175 C1177 1.327 . S
C1175 H1198 0.950 . S
C1176 C1175 1.349 . S
C1176 C1188 1.349 . S
C1177 C1175 1.327 . S
C1177 C1193 1.429 . S
C1177 H1199 0.950 . S
C1178 H1174 0.949 . S
C1178 C1186 1.574 . S
C1178 C1194 1.368 . S
H1179 C1187 0.950 . S
H1180 C1185 0.950 . S
H1181 C1186 0.949 . S
H1182 C1188 0.950 . S
H1183 C1189 0.950 . S
H1184 C1190 0.949 . S
C1185 H1180 0.950 . S
C1185 C1187 1.327 . S
C1185 C1191 1.429 . S
C1186 C1178 1.574 . S
C1186 H1181 0.949 . S
C1186 C1192 1.368 . S
C1187 C1171 1.349 . S
C1187 H1179 0.950 . S
C1187 C1185 1.327 . S
C1188 C1176 1.349 . S
C1188 H1182 0.950 . S
C1188 C1189 1.327 . S
C1189 H1183 0.950 . S
C1189 C1188 1.327 . S
C1189 C1193 1.429 . S
C1190 C1173 1.574 . S
C1190 H1184 0.949 . S
C1190 C1194 1.368 . S
C1191 C1172 1.429 . S
C1191 C1185 1.429 . S
C1191 C1192 1.523 . S
C1192 C1173 1.368 . S
C1192 C1186 1.368 . S
C1192 C1191 1.523 . S
C1193 C1177 1.429 . S
C1193 C1189 1.429 . S
C1193 C1194 1.523 . S
C1194 C1178 1.368 . S
C1194 C1190 1.368 . S
C1194 C1193 1.523 . S
H1195 C1170 0.950 . S
H1196 C1172 0.950 . S
H1197 C1173 0.949 . S
H1198 C1175 0.950 . S
H1199 C1177 0.950 . S
C1200 C1201 1.349 . S
C1200 C1202 1.327 . S
C1200 H1225 0.950 . S
C1201 C1200 1.349 . S
C1201 C1217 1.349 . S
C1202 C1200 1.327 . S
C1202 C1221 1.429 . S
C1202 H1226 0.950 . S
C1203 C1220 1.574 . S
C1203 C1222 1.368 . S
C1203 H1227 0.949 . S
H1204 C1208 0.949 . S
C1205 C1206 1.349 . S
C1205 C1207 1.327 . S
C1205 H1228 0.950 . S
C1206 C1205 1.349 . S
C1206 C1218 1.349 . S
C1207 C1205 1.327 . S
C1207 C1223 1.429 . S
C1207 H1229 0.950 . S
C1208 H1204 0.949 . S
C1208 C1216 1.574 . S
C1208 C1224 1.368 . S
H1209 C1217 0.950 . S
H1210 C1215 0.950 . S
H1211 C1216 0.949 . S
H1212 C1218 0.950 . S
H1213 C1219 0.950 . S
H1214 C1220 0.949 . S
C1215 H1210 0.950 . S
C1215 C1217 1.327 . S
C1215 C1221 1.429 . S
C1216 C1208 1.574 . S
C1216 H1211 0.949 . S
C1216 C1222 1.368 . S
C1217 C1201 1.349 . S
C1217 H1209 0.950 . S
C1217 C1215 1.327 . S
C1218 C1206 1.349 . S
C1218 H1212 0.950 . S
C1218 C1219 1.327 . S
C1219 H1213 0.950 . S
C1219 C1218 1.327 . S
C1219 C1223 1.429 . S
C1220 C1203 1.574 . S
C1220 H1214 0.949 . S
C1220 C1224 1.368 . S
C1221 C1202 1.429 . S
C1221 C1215 1.429 . S
C1221 C1222 1.523 . S
C1222 C1203 1.368 . S
C1222 C1216 1.368 . S
C1222 C1221 1.523 . S
C1223 C1207 1.429 . S
C1223 C1219 1.429 . S
C1223 C1224 1.523 . S
C1224 C1208 1.368 . S
C1224 C1220 1.368 . S
C1224 C1223 1.523 . S
H1225 C1200 0.950 . S
H1226 C1202 0.950 . S
H1227 C1203 0.949 . S
H1228 C1205 0.950 . S
H1229 C1207 0.950 . S
C1230 C1231 1.349 . S
C1230 C1232 1.327 . S
C1230 H1255 0.950 . S
C1231 C1230 1.349 . S
C1231 C1247 1.349 . S
C1232 C1230 1.327 . S
C1232 C1251 1.429 . S
C1232 H1256 0.950 . S
C1233 C1250 1.574 . S
C1233 C1252 1.368 . S
C1233 H1257 0.949 . S
H1234 C1238 0.949 . S
C1235 C1236 1.349 . S
C1235 C1237 1.327 . S
C1235 H1258 0.950 . S
C1236 C1235 1.349 . S
C1236 C1248 1.349 . S
C1237 C1235 1.327 . S
C1237 C1253 1.429 . S
C1237 H1259 0.950 . S
C1238 H1234 0.949 . S
C1238 C1246 1.574 . S
C1238 C1254 1.368 . S
H1239 C1247 0.950 . S
H1240 C1245 0.950 . S
H1241 C1246 0.949 . S
H1242 C1248 0.950 . S
H1243 C1249 0.950 . S
H1244 C1250 0.949 . S
C1245 H1240 0.950 . S
C1245 C1247 1.327 . S
C1245 C1251 1.429 . S
C1246 C1238 1.574 . S
C1246 H1241 0.949 . S
C1246 C1252 1.368 . S
C1247 C1231 1.349 . S
C1247 H1239 0.950 . S
C1247 C1245 1.327 . S
C1248 C1236 1.349 . S
C1248 H1242 0.950 . S
C1248 C1249 1.327 . S
C1249 H1243 0.950 . S
C1249 C1248 1.327 . S
C1249 C1253 1.429 . S
C1250 C1233 1.574 . S
C1250 H1244 0.949 . S
C1250 C1254 1.368 . S
C1251 C1232 1.429 . S
C1251 C1245 1.429 . S
C1251 C1252 1.523 . S
C1252 C1233 1.368 . S
C1252 C1246 1.368 . S
C1252 C1251 1.523 . S
C1253 C1237 1.429 . S
C1253 C1249 1.429 . S
C1253 C1254 1.523 . S
C1254 C1238 1.368 . S
C1254 C1250 1.368 . S
C1254 C1253 1.523 . S
H1255 C1230 0.950 . S
H1256 C1232 0.950 . S
H1257 C1233 0.949 . S
H1258 C1235 0.950 . S
H1259 C1237 0.950 . S
C1260 C1261 1.349 . S
C1260 C1262 1.327 . S
C1260 H1285 0.950 . S
C1261 C1260 1.349 . S
C1261 C1277 1.349 . S
C1262 C1260 1.327 . S
C1262 C1281 1.429 . S
C1262 H1286 0.950 . S
C1263 C1280 1.574 . S
C1263 C1282 1.368 . S
C1263 H1287 0.949 . S
H1264 C1268 0.949 . S
C1265 C1266 1.349 . S
C1265 C1267 1.327 . S
C1265 H1288 0.950 . S
C1266 C1265 1.349 . S
C1266 C1278 1.349 . S
C1267 C1265 1.327 . S
C1267 C1283 1.429 . S
C1267 H1289 0.950 . S
C1268 H1264 0.949 . S
C1268 C1276 1.574 . S
C1268 C1284 1.368 . S
H1269 C1277 0.950 . S
H1270 C1275 0.950 . S
H1271 C1276 0.949 . S
H1272 C1278 0.950 . S
H1273 C1279 0.950 . S
H1274 C1280 0.949 . S
C1275 H1270 0.950 . S
C1275 C1277 1.327 . S
C1275 C1281 1.429 . S
C1276 C1268 1.574 . S
C1276 H1271 0.949 . S
C1276 C1282 1.368 . S
C1277 C1261 1.349 . S
C1277 H1269 0.950 . S
C1277 C1275 1.327 . S
C1278 C1266 1.349 . S
C1278 H1272 0.950 . S
C1278 C1279 1.327 . S
C1279 H1273 0.950 . S
C1279 C1278 1.327 . S
C1279 C1283 1.429 . S
C1280 C1263 1.574 . S
C1280 H1274 0.949 . S
C1280 C1284 1.368 . S
C1281 C1262 1.429 . S
C1281 C1275 1.429 . S
C1281 C1282 1.523 . S
C1282 C1263 1.368 . S
C1282 C1276 1.368 . S
C1282 C1281 1.523 . S
C1283 C1267 1.429 . S
C1283 C1279 1.429 . S
C1283 C1284 1.523 . S
C1284 C1268 1.368 . S
C1284 C1280 1.368 . S
C1284 C1283 1.523 . S
H1285 C1260 0.950 . S
H1286 C1262 0.950 . S
H1287 C1263 0.949 . S
H1288 C1265 0.950 . S
H1289 C1267 0.950 . S
C1290 C1291 1.349 . S
C1290 C1292 1.327 . S
C1290 H1315 0.950 . S
C1291 C1290 1.349 . S
C1291 C1307 1.349 . S
C1292 C1290 1.327 . S
C1292 C1311 1.429 . S
C1292 H1316 0.950 . S
C1293 C1310 1.574 . S
C1293 C1312 1.368 . S
C1293 H1317 0.949 . S
H1294 C1298 0.949 . S
C1295 C1296 1.349 . S
C1295 C1297 1.327 . S
C1295 H1318 0.950 . S
C1296 C1295 1.349 . S
C1296 C1308 1.349 . S
C1297 C1295 1.327 . S
C1297 C1313 1.429 . S
C1297 H1319 0.950 . S
C1298 H1294 0.949 . S
C1298 C1306 1.574 . S
C1298 C1314 1.368 . S
H1299 C1307 0.950 . S
H1300 C1305 0.950 . S
H1301 C1306 0.949 . S
H1302 C1308 0.950 . S
H1303 C1309 0.950 . S
H1304 C1310 0.949 . S
C1305 H1300 0.950 . S
C1305 C1307 1.327 . S
C1305 C1311 1.429 . S
C1306 C1298 1.574 . S
C1306 H1301 0.949 . S
C1306 C1312 1.368 . S
C1307 C1291 1.349 . S
C1307 H1299 0.950 . S
C1307 C1305 1.327 . S
C1308 C1296 1.349 . S
C1308 H1302 0.950 . S
C1308 C1309 1.327 . S
C1309 H1303 0.950 . S
C1309 C1308 1.327 . S
C1309 C1313 1.429 . S
C1310 C1293 1.574 . S
C1310 H1304 0.949 . S
C1310 C1314 1.368 . S
C1311 C1292 1.429 . S
C1311 C1305 1.429 . S
C1311 C1312 1.523 . S
C1312 C1293 1.368 . S
C1312 C1306 1.368 . S
C1312 C1311 1.523 . S
C1313 C1297 1.429 . S
C1313 C1309 1.429 . S
C1313 C1314 1.523 . S
C1314 C1298 1.368 . S
C1314 C1310 1.368 . S
C1314 C1313 1.523 . S
H1315 C1290 0.950 . S
H1316 C1292 0.950 . S
H1317 C1293 0.949 . S
H1318 C1295 0.950 . S
H1319 C1297 0.950 . S
C1320 C1321 1.349 . S
C1320 C1322 1.327 . S
C1320 H1345 0.950 . S
C1321 C1320 1.349 . S
C1321 C1337 1.349 . S
C1322 C1320 1.327 . S
C1322 C1341 1.429 . S
C1322 H1346 0.950 . S
C1323 C1340 1.574 . S
C1323 C1342 1.368 . S
C1323 H1347 0.949 . S
H1324 C1328 0.949 . S
C1325 C1326 1.349 . S
C1325 C1327 1.327 . S
C1325 H1348 0.950 . S
C1326 C1325 1.349 . S
C1326 C1338 1.349 . S
C1327 C1325 1.327 . S
C1327 C1343 1.429 . S
C1327 H1349 0.950 . S
C1328 H1324 0.949 . S
C1328 C1336 1.574 . S
C1328 C1344 1.368 . S
H1329 C1337 0.950 . S
H1330 C1335 0.950 . S
H1331 C1336 0.949 . S
H1332 C1338 0.950 1_554 S
H1333 C1339 0.950 . S
H1334 C1340 0.949 . S
C1335 H1330 0.950 . S
C1335 C1337 1.327 . S
C1335 C1341 1.429 . S
C1336 C1328 1.574 . S
C1336 H1331 0.949 . S
C1336 C1342 1.368 . S
C1337 C1321 1.349 . S
C1337 H1329 0.950 . S
C1337 C1335 1.327 . S
C1338 C1326 1.349 . S
C1338 H1332 0.950 1_556 S
C1338 C1339 1.327 . S
C1339 H1333 0.950 . S
C1339 C1338 1.327 . S
C1339 C1343 1.429 . S
C1340 C1323 1.574 . S
C1340 H1334 0.949 . S
C1340 C1344 1.368 . S
C1341 C1322 1.429 . S
C1341 C1335 1.429 . S
C1341 C1342 1.523 . S
C1342 C1323 1.368 . S
C1342 C1336 1.368 . S
C1342 C1341 1.523 . S
C1343 C1327 1.429 . S
C1343 C1339 1.429 . S
C1343 C1344 1.523 . S
C1344 C1328 1.368 . S
C1344 C1340 1.368 . S
C1344 C1343 1.523 . S
H1345 C1320 0.950 . S
H1346 C1322 0.950 . S
H1347 C1323 0.949 . S
H1348 C1325 0.950 . S
H1349 C1327 0.950 . S
C1350 C1351 1.349 . S
C1350 C1352 1.327 . S
C1350 H1375 0.950 . S
C1351 C1350 1.349 . S
C1351 C1367 1.349 . S
C1352 C1350 1.327 . S
C1352 C1371 1.429 . S
C1352 H1376 0.950 . S
C1353 C1370 1.574 . S
C1353 C1372 1.368 . S
C1353 H1377 0.949 . S
H1354 C1358 0.949 . S
C1355 C1356 1.349 . S
C1355 C1357 1.327 . S
C1355 H1378 0.950 . S
C1356 C1355 1.349 . S
C1356 C1368 1.349 . S
C1357 C1355 1.327 . S
C1357 C1373 1.429 . S
C1357 H1379 0.950 . S
C1358 H1354 0.949 . S
C1358 C1366 1.574 . S
C1358 C1374 1.368 . S
H1359 C1367 0.950 . S
H1360 C1365 0.950 . S
H1361 C1366 0.949 . S
H1362 C1368 0.950 . S
H1363 C1369 0.950 . S
H1364 C1370 0.949 . S
C1365 H1360 0.950 . S
C1365 C1367 1.327 . S
C1365 C1371 1.429 . S
C1366 C1358 1.574 . S
C1366 H1361 0.949 . S
C1366 C1372 1.368 . S
C1367 C1351 1.349 . S
C1367 H1359 0.950 . S
C1367 C1365 1.327 . S
C1368 C1356 1.349 . S
C1368 H1362 0.950 . S
C1368 C1369 1.327 . S
C1369 H1363 0.950 . S
C1369 C1368 1.327 . S
C1369 C1373 1.429 . S
C1370 C1353 1.574 . S
C1370 H1364 0.949 . S
C1370 C1374 1.368 . S
C1371 C1352 1.429 . S
C1371 C1365 1.429 . S
C1371 C1372 1.523 . S
C1372 C1353 1.368 . S
C1372 C1366 1.368 . S
C1372 C1371 1.523 . S
C1373 C1357 1.429 . S
C1373 C1369 1.429 . S
C1373 C1374 1.523 . S
C1374 C1358 1.368 . S
C1374 C1370 1.368 . S
C1374 C1373 1.523 . S
H1375 C1350 0.950 . S
H1376 C1352 0.950 . S
H1377 C1353 0.949 . S
H1378 C1355 0.950 . S
H1379 C1357 0.950 . S
C1380 C1381 1.349 . S
C1380 C1382 1.327 . S
C1380 H1405 0.950 . S
C1381 C1380 1.349 . S
C1381 C1397 1.349 . S
C1382 C1380 1.327 . S
C1382 C1401 1.429 . S
C1382 H1406 0.950 . S
C1383 C1400 1.574 . S
C1383 C1402 1.368 . S
C1383 H1407 0.949 . S
H1384 C1388 0.949 . S
C1385 C1386 1.349 . S
C1385 C1387 1.327 . S
C1385 H1408 0.950 . S
C1386 C1385 1.349 . S
C1386 C1398 1.349 . S
C1387 C1385 1.327 . S
C1387 C1403 1.429 . S
C1387 H1409 0.950 . S
C1388 H1384 0.949 . S
C1388 C1396 1.574 . S
C1388 C1404 1.368 . S
H1389 C1397 0.950 . S
H1390 C1395 0.950 . S
H1391 C1396 0.949 . S
H1392 C1398 0.950 . S
H1393 C1399 0.950 . S
H1394 C1400 0.949 . S
C1395 H1390 0.950 . S
C1395 C1397 1.327 . S
C1395 C1401 1.429 . S
C1396 C1388 1.574 . S
C1396 H1391 0.949 . S
C1396 C1402 1.368 . S
C1397 C1381 1.349 . S
C1397 H1389 0.950 . S
C1397 C1395 1.327 . S
C1398 C1386 1.349 . S
C1398 H1392 0.950 . S
C1398 C1399 1.327 . S
C1399 H1393 0.950 . S
C1399 C1398 1.327 . S
C1399 C1403 1.429 . S
C1400 C1383 1.574 . S
C1400 H1394 0.949 . S
C1400 C1404 1.368 . S
C1401 C1382 1.429 . S
C1401 C1395 1.429 . S
C1401 C1402 1.523 . S
C1402 C1383 1.368 . S
C1402 C1396 1.368 . S
C1402 C1401 1.523 . S
C1403 C1387 1.429 . S
C1403 C1399 1.429 . S
C1403 C1404 1.523 . S
C1404 C1388 1.368 . S
C1404 C1400 1.368 . S
C1404 C1403 1.523 . S
H1405 C1380 0.950 . S
H1406 C1382 0.950 . S
H1407 C1383 0.949 . S
H1408 C1385 0.950 . S
H1409 C1387 0.950 . S
C1410 C1411 1.349 . S
C1410 C1412 1.327 . S
C1410 H1435 0.950 . S
C1411 C1410 1.349 . S
C1411 C1427 1.349 . S
C1412 C1410 1.327 . S
C1412 C1431 1.429 . S
C1412 H1436 0.950 . S
C1413 C1430 1.574 . S
C1413 C1432 1.368 . S
C1413 H1437 0.949 . S
H1414 C1418 0.949 . S
C1415 C1416 1.349 . S
C1415 C1417 1.327 . S
C1415 H1438 0.950 . S
C1416 C1415 1.349 . S
C1416 C1428 1.349 . S
C1417 C1415 1.327 . S
C1417 C1433 1.429 . S
C1417 H1439 0.950 . S
C1418 H1414 0.949 . S
C1418 C1426 1.574 . S
C1418 C1434 1.368 . S
H1419 C1427 0.950 . S
H1420 C1425 0.950 . S
H1421 C1426 0.949 . S
H1422 C1428 0.950 . S
H1423 C1429 0.950 . S
H1424 C1430 0.949 . S
C1425 H1420 0.950 . S
C1425 C1427 1.327 . S
C1425 C1431 1.429 . S
C1426 C1418 1.574 . S
C1426 H1421 0.949 . S
C1426 C1432 1.368 . S
C1427 C1411 1.349 . S
C1427 H1419 0.950 . S
C1427 C1425 1.327 . S
C1428 C1416 1.349 . S
C1428 H1422 0.950 . S
C1428 C1429 1.327 . S
C1429 H1423 0.950 . S
C1429 C1428 1.327 . S
C1429 C1433 1.429 . S
C1430 C1413 1.574 . S
C1430 H1424 0.949 . S
C1430 C1434 1.368 . S
C1431 C1412 1.429 . S
C1431 C1425 1.429 . S
C1431 C1432 1.523 . S
C1432 C1413 1.368 . S
C1432 C1426 1.368 . S
C1432 C1431 1.523 . S
C1433 C1417 1.429 . S
C1433 C1429 1.429 . S
C1433 C1434 1.523 . S
C1434 C1418 1.368 . S
C1434 C1430 1.368 . S
C1434 C1433 1.523 . S
H1435 C1410 0.950 . S
H1436 C1412 0.950 . S
H1437 C1413 0.949 . S
H1438 C1415 0.950 . S
H1439 C1417 0.950 . S
C1440 C1441 1.349 . S
C1440 C1442 1.327 . S
C1440 H1465 0.950 . S
C1441 C1440 1.349 . S
C1441 C1457 1.349 . S
C1442 C1440 1.327 . S
C1442 C1461 1.429 . S
C1442 H1466 0.950 . S
C1443 C1460 1.574 . S
C1443 C1462 1.368 . S
C1443 H1467 0.949 . S
H1444 C1448 0.949 . S
C1445 C1446 1.349 . S
C1445 C1447 1.327 . S
C1445 H1468 0.950 . S
C1446 C1445 1.349 . S
C1446 C1458 1.349 . S
C1447 C1445 1.327 . S
C1447 C1463 1.429 . S
C1447 H1469 0.950 . S
C1448 H1444 0.949 . S
C1448 C1456 1.574 . S
C1448 C1464 1.368 . S
H1449 C1457 0.950 . S
H1450 C1455 0.950 . S
H1451 C1456 0.949 . S
H1452 C1458 0.950 . S
H1453 C1459 0.950 . S
H1454 C1460 0.949 . S
C1455 H1450 0.950 . S
C1455 C1457 1.327 . S
C1455 C1461 1.429 . S
C1456 C1448 1.574 . S
C1456 H1451 0.949 . S
C1456 C1462 1.368 . S
C1457 C1441 1.349 . S
C1457 H1449 0.950 . S
C1457 C1455 1.327 . S
C1458 C1446 1.349 . S
C1458 H1452 0.950 . S
C1458 C1459 1.327 . S
C1459 H1453 0.950 . S
C1459 C1458 1.327 . S
C1459 C1463 1.429 . S
C1460 C1443 1.574 . S
C1460 H1454 0.949 . S
C1460 C1464 1.368 . S
C1461 C1442 1.429 . S
C1461 C1455 1.429 . S
C1461 C1462 1.523 . S
C1462 C1443 1.368 . S
C1462 C1456 1.368 . S
C1462 C1461 1.523 . S
C1463 C1447 1.429 . S
C1463 C1459 1.429 . S
C1463 C1464 1.523 . S
C1464 C1448 1.368 . S
C1464 C1460 1.368 . S
C1464 C1463 1.523 . S
H1465 C1440 0.950 . S
H1466 C1442 0.950 . S
H1467 C1443 0.949 . S
H1468 C1445 0.950 . S
H1469 C1447 0.950 . S
C1470 C1471 1.349 . S
C1470 C1472 1.327 . S
C1470 H1495 0.950 . S
C1471 C1470 1.349 . S
C1471 C1487 1.349 . S
C1472 C1470 1.327 . S
C1472 C1491 1.429 . S
C1472 H1496 0.950 . S
C1473 C1490 1.574 . S
C1473 C1492 1.368 . S
C1473 H1497 0.949 . S
H1474 C1478 0.949 . S
C1475 C1476 1.349 . S
C1475 C1477 1.327 . S
C1475 H1498 0.950 . S
C1476 C1475 1.349 . S
C1476 C1488 1.349 . S
C1477 C1475 1.327 . S
C1477 C1493 1.429 . S
C1477 H1499 0.950 . S
C1478 H1474 0.949 . S
C1478 C1486 1.574 . S
C1478 C1494 1.368 . S
H1479 C1487 0.950 . S
H1480 C1485 0.950 . S
H1481 C1486 0.949 . S
H1482 C1488 0.950 . S
H1483 C1489 0.950 . S
H1484 C1490 0.949 . S
C1485 H1480 0.950 . S
C1485 C1487 1.327 . S
C1485 C1491 1.429 . S
C1486 C1478 1.574 . S
C1486 H1481 0.949 . S
C1486 C1492 1.368 . S
C1487 C1471 1.349 . S
C1487 H1479 0.950 . S
C1487 C1485 1.327 . S
C1488 C1476 1.349 . S
C1488 H1482 0.950 . S
C1488 C1489 1.327 . S
C1489 H1483 0.950 . S
C1489 C1488 1.327 . S
C1489 C1493 1.429 . S
C1490 C1473 1.574 . S
C1490 H1484 0.949 . S
C1490 C1494 1.368 . S
C1491 C1472 1.429 . S
C1491 C1485 1.429 . S
C1491 C1492 1.523 . S
C1492 C1473 1.368 . S
C1492 C1486 1.368 . S
C1492 C1491 1.523 . S
C1493 C1477 1.429 . S
C1493 C1489 1.429 . S
C1493 C1494 1.523 . S
C1494 C1478 1.368 . S
C1494 C1490 1.368 . S
C1494 C1493 1.523 . S
H1495 C1470 0.950 . S
H1496 C1472 0.950 . S
H1497 C1473 0.949 . S
H1498 C1475 0.950 . S
H1499 C1477 0.950 . S
C1500 C1501 1.349 . S
C1500 C1502 1.327 . S
C1500 H1525 0.950 . S
C1501 C1500 1.349 . S
C1501 C1517 1.349 . S
C1502 C1500 1.327 . S
C1502 C1521 1.429 . S
C1502 H1526 0.950 . S
C1503 C1520 1.574 . S
C1503 C1522 1.368 . S
C1503 H1527 0.949 . S
H1504 C1508 0.949 . S
C1505 C1506 1.349 . S
C1505 C1507 1.327 . S
C1505 H1528 0.950 . S
C1506 C1505 1.349 . S
C1506 C1518 1.349 . S
C1507 C1505 1.327 . S
C1507 C1523 1.429 . S
C1507 H1529 0.950 . S
C1508 H1504 0.949 . S
C1508 C1516 1.574 . S
C1508 C1524 1.368 . S
H1509 C1517 0.950 . S
H1510 C1515 0.950 . S
H1511 C1516 0.949 . S
H1512 C1518 0.950 . S
H1513 C1519 0.950 . S
H1514 C1520 0.949 . S
C1515 H1510 0.950 . S
C1515 C1517 1.327 . S
C1515 C1521 1.429 . S
C1516 C1508 1.574 . S
C1516 H1511 0.949 . S
C1516 C1522 1.368 . S
C1517 C1501 1.349 . S
C1517 H1509 0.950 . S
C1517 C1515 1.327 . S
C1518 C1506 1.349 . S
C1518 H1512 0.950 . S
C1518 C1519 1.327 . S
C1519 H1513 0.950 . S
C1519 C1518 1.327 . S
C1519 C1523 1.429 . S
C1520 C1503 1.574 . S
C1520 H1514 0.949 . S
C1520 C1524 1.368 . S
C1521 C1502 1.429 . S
C1521 C1515 1.429 . S
C1521 C1522 1.523 . S
C1522 C1503 1.368 . S
C1522 C1516 1.368 . S
C1522 C1521 1.523 . S
C1523 C1507 1.429 . S
C1523 C1519 1.429 . S
C1523 C1524 1.523 . S
C1524 C1508 1.368 . S
C1524 C1520 1.368 . S
C1524 C1523 1.523 . S
H1525 C1500 0.950 . S
H1526 C1502 0.950 . S
H1527 C1503 0.949 . S
H1528 C1505 0.950 . S
H1529 C1507 0.950 . S
C1530 C1531 1.349 . S
C1530 C1532 1.327 . S
C1530 H1555 0.950 . S
C1531 C1530 1.349 . S
C1531 C1547 1.349 . S
C1532 C1530 1.327 . S
C1532 C1551 1.429 . S
C1532 H1556 0.950 . S
C1533 C1550 1.574 . S
C1533 C1552 1.368 . S
C1533 H1557 0.949 . S
H1534 C1538 0.949 . S
C1535 C1536 1.349 . S
C1535 C1537 1.327 . S
C1535 H1558 0.950 . S
C1536 C1535 1.349 . S
C1536 C1548 1.349 . S
C1537 C1535 1.327 . S
C1537 C1553 1.429 . S
C1537 H1559 0.950 . S
C1538 H1534 0.949 . S
C1538 C1546 1.574 . S
C1538 C1554 1.368 . S
H1539 C1547 0.950 . S
H1540 C1545 0.950 . S
H1541 C1546 0.949 . S
H1542 C1548 0.950 . S
H1543 C1549 0.950 . S
H1544 C1550 0.949 . S
C1545 H1540 0.950 . S
C1545 C1547 1.327 . S
C1545 C1551 1.429 . S
C1546 C1538 1.574 . S
C1546 H1541 0.949 . S
C1546 C1552 1.368 . S
C1547 C1531 1.349 . S
C1547 H1539 0.950 . S
C1547 C1545 1.327 . S
C1548 C1536 1.349 . S
C1548 H1542 0.950 . S
C1548 C1549 1.327 . S
C1549 H1543 0.950 . S
C1549 C1548 1.327 . S
C1549 C1553 1.429 . S
C1550 C1533 1.574 . S
C1550 H1544 0.949 . S
C1550 C1554 1.368 . S
C1551 C1532 1.429 . S
C1551 C1545 1.429 . S
C1551 C1552 1.523 . S
C1552 C1533 1.368 . S
C1552 C1546 1.368 . S
C1552 C1551 1.523 . S
C1553 C1537 1.429 . S
C1553 C1549 1.429 . S
C1553 C1554 1.523 . S
C1554 C1538 1.368 . S
C1554 C1550 1.368 . S
C1554 C1553 1.523 . S
H1555 C1530 0.950 . S
H1556 C1532 0.950 . S
H1557 C1533 0.949 . S
H1558 C1535 0.950 . S
H1559 C1537 0.950 . S
C1560 C1561 1.349 . S
C1560 C1562 1.327 . S
C1560 H1585 0.950 . S
C1561 C1560 1.349 . S
C1561 C1577 1.349 . S
C1562 C1560 1.327 . S
C1562 C1581 1.429 . S
C1562 H1586 0.950 . S
C1563 C1580 1.574 . S
C1563 C1582 1.368 . S
C1563 H1587 0.949 . S
H1564 C1568 0.949 . S
C1565 C1566 1.349 . S
C1565 C1567 1.327 . S
C1565 H1588 0.950 . S
C1566 C1565 1.349 . S
C1566 C1578 1.349 . S
C1567 C1565 1.327 . S
C1567 C1583 1.429 . S
C1567 H1589 0.950 . S
C1568 H1564 0.949 . S
C1568 C1576 1.574 . S
C1568 C1584 1.368 . S
H1569 C1577 0.950 . S
H1570 C1575 0.950 . S
H1571 C1576 0.949 . S
H1572 C1578 0.950 . S
H1573 C1579 0.950 . S
H1574 C1580 0.949 . S
C1575 H1570 0.950 . S
C1575 C1577 1.327 . S
C1575 C1581 1.429 . S
C1576 C1568 1.574 . S
C1576 H1571 0.949 . S
C1576 C1582 1.368 . S
C1577 C1561 1.349 . S
C1577 H1569 0.950 . S
C1577 C1575 1.327 . S
C1578 C1566 1.349 . S
C1578 H1572 0.950 . S
C1578 C1579 1.327 . S
C1579 H1573 0.950 . S
C1579 C1578 1.327 . S
C1579 C1583 1.429 . S
C1580 C1563 1.574 . S
C1580 H1574 0.949 . S
C1580 C1584 1.368 . S
C1581 C1562 1.429 . S
C1581 C1575 1.429 . S
C1581 C1582 1.523 . S
C1582 C1563 1.368 . S
C1582 C1576 1.368 . S
C1582 C1581 1.523 . S
C1583 C1567 1.429 . S
C1583 C1579 1.429 . S
C1583 C1584 1.523 . S
C1584 C1568 1.368 . S
C1584 C1580 1.368 . S
C1584 C1583 1.523 . S
H1585 C1560 0.950 . S
H1586 C1562 0.950 . S
H1587 C1563 0.949 . S
H1588 C1565 0.950 . S
H1589 C1567 0.950 . S
C1590 C1591 1.349 . S
C1590 C1592 1.327 . S
C1590 H1615 0.950 . S
C1591 C1590 1.349 . S
C1591 C1607 1.349 . S
C1592 C1590 1.327 . S
C1592 C1611 1.429 . S
C1592 H1616 0.950 . S
C1593 C1610 1.574 . S
C1593 C1612 1.368 . S
C1593 H1617 0.949 . S
H1594 C1598 0.949 . S
C1595 C1596 1.349 . S
C1595 C1597 1.327 . S
C1595 H1618 0.950 . S
C1596 C1595 1.349 . S
C1596 C1608 1.349 . S
C1597 C1595 1.327 . S
C1597 C1613 1.429 . S
C1597 H1619 0.950 . S
C1598 H1594 0.949 . S
C1598 C1606 1.574 . S
C1598 C1614 1.368 . S
H1599 C1607 0.950 . S
H1600 C1605 0.950 . S
H1601 C1606 0.949 . S
H1602 C1608 0.950 . S
H1603 C1609 0.950 . S
H1604 C1610 0.949 . S
C1605 H1600 0.950 . S
C1605 C1607 1.327 . S
C1605 C1611 1.429 . S
C1606 C1598 1.574 . S
C1606 H1601 0.949 . S
C1606 C1612 1.368 . S
C1607 C1591 1.349 . S
C1607 H1599 0.950 . S
C1607 C1605 1.327 . S
C1608 C1596 1.349 . S
C1608 H1602 0.950 . S
C1608 C1609 1.327 . S
C1609 H1603 0.950 . S
C1609 C1608 1.327 . S
C1609 C1613 1.429 . S
C1610 C1593 1.574 . S
C1610 H1604 0.949 . S
C1610 C1614 1.368 . S
C1611 C1592 1.429 . S
C1611 C1605 1.429 . S
C1611 C1612 1.523 . S
C1612 C1593 1.368 . S
C1612 C1606 1.368 . S
C1612 C1611 1.523 . S
C1613 C1597 1.429 . S
C1613 C1609 1.429 . S
C1613 C1614 1.523 . S
C1614 C1598 1.368 . S
C1614 C1610 1.368 . S
C1614 C1613 1.523 . S
H1615 C1590 0.950 . S
H1616 C1592 0.950 . S
H1617 C1593 0.949 . S
H1618 C1595 0.950 . S
H1619 C1597 0.950 . S
C1620 C1621 1.349 . S
C1620 C1622 1.327 . S
C1620 H1645 0.950 . S
C1621 C1620 1.349 . S
C1621 C1637 1.349 . S
C1622 C1620 1.327 . S
C1622 C1641 1.429 . S
C1622 H1646 0.950 . S
C1623 C1640 1.574 . S
C1623 C1642 1.368 . S
C1623 H1647 0.949 . S
H1624 C1628 0.949 . S
C1625 C1626 1.349 . S
C1625 C1627 1.327 . S
C1625 H1648 0.950 . S
C1626 C1625 1.349 . S
C1626 C1638 1.349 . S
C1627 C1625 1.327 . S
C1627 C1643 1.429 . S
C1627 H1649 0.950 . S
C1628 H1624 0.949 . S
C1628 C1636 1.574 . S
C1628 C1644 1.368 . S
H1629 C1637 0.950 . S
H1630 C1635 0.950 . S
H1631 C1636 0.949 . S
H1632 C1638 0.950 . S
H1633 C1639 0.950 . S
H1634 C1640 0.949 . S
C1635 H1630 0.950 . S
C1635 C1637 1.327 . S
C1635 C1641 1.429 . S
C1636 C1628 1.574 . S
C1636 H1631 0.949 . S
C1636 C1642 1.368 . S
C1637 C1621 1.349 . S
C1637 H1629 0.950 . S
C1637 C1635 1.327 . S
C1638 C1626 1.349 . S
C1638 H1632 0.950 . S
C1638 C1639 1.327 . S
C1639 H1633 0.950 . S
C1639 C1638 1.327 . S
C1639 C1643 1.429 . S
C1640 C1623 1.574 . S
C1640 H1634 0.949 . S
C1640 C1644 1.368 . S
C1641 C1622 1.429 . S
C1641 C1635 1.429 . S
C1641 C1642 1.523 . S
C1642 C1623 1.368 . S
C1642 C1636 1.368 . S
C1642 C1641 1.523 . S
C1643 C1627 1.429 . S
C1643 C1639 1.429 . S
C1643 C1644 1.523 . S
C1644 C1628 1.368 . S
C1644 C1640 1.368 . S
C1644 C1643 1.523 . S
H1645 C1620 0.950 . S
H1646 C1622 0.950 . S
H1647 C1623 0.949 . S
H1648 C1625 0.950 . S
H1649 C1627 0.950 . S
C1650 C1651 1.349 . S
C1650 C1652 1.327 . S
C1650 H1675 0.950 . S
C1651 C1650 1.349 . S
C1651 C1667 1.349 . S
C1652 C1650 1.327 . S
C1652 C1671 1.429 . S
C1652 H1676 0.950 . S
C1653 C1670 1.574 . S
C1653 C1672 1.368 . S
C1653 H1677 0.949 . S
H1654 C1658 0.949 . S
C1655 C1656 1.349 . S
C1655 C1657 1.327 . S
C1655 H1678 0.950 . S
C1656 C1655 1.349 . S
C1656 C1668 1.349 . S
C1657 C1655 1.327 . S
C1657 C1673 1.429 . S
C1657 H1679 0.950 . S
C1658 H1654 0.949 . S
C1658 C1666 1.574 . S
C1658 C1674 1.368 . S
H1659 C1667 0.950 . S
H1660 C1665 0.950 . S
H1661 C1666 0.949 . S
H1662 C1668 0.950 . S
H1663 C1669 0.950 . S
H1664 C1670 0.949 . S
C1665 H1660 0.950 . S
C1665 C1667 1.327 . S
C1665 C1671 1.429 . S
C1666 C1658 1.574 . S
C1666 H1661 0.949 . S
C1666 C1672 1.368 . S
C1667 C1651 1.349 . S
C1667 H1659 0.950 . S
C1667 C1665 1.327 . S
C1668 C1656 1.349 . S
C1668 H1662 0.950 . S
C1668 C1669 1.327 . S
C1669 H1663 0.950 . S
C1669 C1668 1.327 . S
C1669 C1673 1.429 . S
C1670 C1653 1.574 . S
C1670 H1664 0.949 . S
C1670 C1674 1.368 . S
C1671 C1652 1.429 . S
C1671 C1665 1.429 . S
C1671 C1672 1.523 . S
C1672 C1653 1.368 . S
C1672 C1666 1.368 . S
C1672 C1671 1.523 . S
C1673 C1657 1.429 . S
C1673 C1669 1.429 . S
C1673 C1674 1.523 . S
C1674 C1658 1.368 . S
C1674 C1670 1.368 . S
C1674 C1673 1.523 . S
H1675 C1650 0.950 . S
H1676 C1652 0.950 . S
H1677 C1653 0.949 . S
H1678 C1655 0.950 . S
H1679 C1657 0.950 . S
C1680 C1681 1.349 . S
C1680 C1682 1.327 . S
C1680 H1705 0.950 . S
C1681 C1680 1.349 . S
C1681 C1697 1.349 . S
C1682 C1680 1.327 . S
C1682 C1701 1.429 . S
C1682 H1706 0.950 . S
C1683 C1700 1.574 . S
C1683 C1702 1.368 . S
C1683 H1707 0.949 . S
H1684 C1688 0.949 . S
C1685 C1686 1.349 . S
C1685 C1687 1.327 . S
C1685 H1708 0.950 . S
C1686 C1685 1.349 . S
C1686 C1698 1.349 . S
C1687 C1685 1.327 . S
C1687 C1703 1.429 . S
C1687 H1709 0.950 . S
C1688 H1684 0.949 . S
C1688 C1696 1.574 . S
C1688 C1704 1.368 . S
H1689 C1697 0.950 . S
H1690 C1695 0.950 . S
H1691 C1696 0.949 . S
H1692 C1698 0.950 . S
H1693 C1699 0.950 . S
H1694 C1700 0.949 . S
C1695 H1690 0.950 . S
C1695 C1697 1.327 . S
C1695 C1701 1.429 . S
C1696 C1688 1.574 . S
C1696 H1691 0.949 . S
C1696 C1702 1.368 . S
C1697 C1681 1.349 . S
C1697 H1689 0.950 . S
C1697 C1695 1.327 . S
C1698 C1686 1.349 . S
C1698 H1692 0.950 . S
C1698 C1699 1.327 . S
C1699 H1693 0.950 . S
C1699 C1698 1.327 . S
C1699 C1703 1.429 . S
C1700 C1683 1.574 . S
C1700 H1694 0.949 . S
C1700 C1704 1.368 . S
C1701 C1682 1.429 . S
C1701 C1695 1.429 . S
C1701 C1702 1.523 . S
C1702 C1683 1.368 . S
C1702 C1696 1.368 . S
C1702 C1701 1.523 . S
C1703 C1687 1.429 . S
C1703 C1699 1.429 . S
C1703 C1704 1.523 . S
C1704 C1688 1.368 . S
C1704 C1700 1.368 . S
C1704 C1703 1.523 . S
H1705 C1680 0.950 . S
H1706 C1682 0.950 . S
H1707 C1683 0.949 . S
H1708 C1685 0.950 . S
H1709 C1687 0.950 . S
C1710 C1711 1.349 . S
C1710 C1712 1.327 . S
C1710 H1735 0.950 . S
C1711 C1710 1.349 . S
C1711 C1727 1.349 . S
C1712 C1710 1.327 . S
C1712 C1731 1.429 . S
C1712 H1736 0.950 . S
C1713 C1730 1.574 . S
C1713 C1732 1.368 . S
C1713 H1737 0.949 . S
H1714 C1718 0.949 . S
C1715 C1716 1.349 . S
C1715 C1717 1.327 . S
C1715 H1738 0.981 . S
C1716 C1715 1.349 . S
C1716 C1728 1.349 . S
C1717 C1715 1.327 . S
C1717 C1733 1.429 . S
C1717 H1739 0.950 . S
C1718 H1714 0.949 . S
C1718 C1726 1.574 . S
C1718 C1734 1.368 . S
H1719 C1727 0.950 . S
H1720 C1725 0.950 . S
H1721 C1726 0.949 . S
H1722 C1728 0.950 . S
H1723 C1729 0.950 . S
H1724 C1730 0.949 . S
C1725 H1720 0.950 . S
C1725 C1727 1.327 . S
C1725 C1731 1.429 . S
C1726 C1718 1.574 . S
C1726 H1721 0.949 . S
C1726 C1732 1.368 . S
C1727 C1711 1.349 . S
C1727 H1719 0.950 . S
C1727 C1725 1.327 . S
C1728 C1716 1.349 . S
C1728 H1722 0.950 . S
C1728 C1729 1.327 . S
C1729 H1723 0.950 . S
C1729 C1728 1.327 . S
C1729 C1733 1.429 . S
C1730 C1713 1.574 . S
C1730 H1724 0.949 . S
C1730 C1734 1.368 . S
C1731 C1712 1.429 . S
C1731 C1725 1.429 . S
C1731 C1732 1.523 . S
C1732 C1713 1.368 . S
C1732 C1726 1.368 . S
C1732 C1731 1.523 . S
C1733 C1717 1.429 . S
C1733 C1729 1.429 . S
C1733 C1734 1.523 . S
C1734 C1718 1.368 . S
C1734 C1730 1.368 . S
C1734 C1733 1.523 . S
H1735 C1710 0.950 . S
H1736 C1712 0.950 . S
H1737 C1713 0.949 . S
H1738 C1715 0.981 . S
H1739 C1717 0.950 . S
C1740 C1741 1.349 . S
C1740 C1742 1.327 . S
C1740 H1765 0.950 . S
C1741 C1740 1.349 . S
C1741 C1757 1.349 . S
C1742 C1740 1.327 . S
C1742 C1761 1.429 . S
C1742 H1766 0.950 . S
C1743 C1760 1.574 . S
C1743 C1762 1.368 . S
C1743 H1767 0.949 . S
H1744 C1748 0.949 . S
C1745 C1746 1.349 . S
C1745 C1747 1.327 . S
C1745 H1768 0.950 . S
C1746 C1745 1.349 . S
C1746 C1758 1.349 . S
C1747 C1745 1.327 . S
C1747 C1763 1.429 . S
C1747 H1769 0.950 . S
C1748 H1744 0.949 . S
C1748 C1756 1.574 . S
C1748 C1764 1.368 . S
H1749 C1757 0.950 . S
H1750 C1755 0.950 . S
H1751 C1756 0.949 . S
H1752 C1758 0.950 . S
H1753 C1759 0.950 . S
H1754 C1760 0.949 . S
C1755 H1750 0.950 . S
C1755 C1757 1.327 . S
C1755 C1761 1.429 . S
C1756 C1748 1.574 . S
C1756 H1751 0.949 . S
C1756 C1762 1.368 . S
C1757 C1741 1.349 . S
C1757 H1749 0.950 . S
C1757 C1755 1.327 . S
C1758 C1746 1.349 . S
C1758 H1752 0.950 . S
C1758 C1759 1.327 . S
C1759 H1753 0.950 . S
C1759 C1758 1.327 . S
C1759 C1763 1.429 . S
C1760 C1743 1.574 . S
C1760 H1754 0.949 . S
C1760 C1764 1.368 . S
C1761 C1742 1.429 . S
C1761 C1755 1.429 . S
C1761 C1762 1.523 . S
C1762 C1743 1.368 . S
C1762 C1756 1.368 . S
C1762 C1761 1.523 . S
C1763 C1747 1.429 . S
C1763 C1759 1.429 . S
C1763 C1764 1.523 . S
C1764 C1748 1.368 . S
C1764 C1760 1.368 . S
C1764 C1763 1.523 . S
H1765 C1740 0.950 . S
H1766 C1742 0.950 . S
H1767 C1743 0.949 . S
H1768 C1745 0.950 . S
H1769 C1747 0.950 . S
C1770 C1771 1.349 . S
C1770 C1772 1.327 . S
C1770 H1795 0.950 . S
C1771 C1770 1.349 . S
C1771 C1787 1.349 . S
C1772 C1770 1.327 . S
C1772 C1791 1.429 . S
C1772 H1796 0.950 . S
C1773 C1790 1.574 . S
C1773 C1792 1.368 . S
C1773 H1797 0.949 . S
H1774 C1778 0.949 . S
C1775 C1776 1.349 . S
C1775 C1777 1.327 . S
C1775 H1798 0.950 . S
C1776 C1775 1.349 . S
C1776 C1788 1.349 . S
C1777 C1775 1.327 . S
C1777 C1793 1.429 . S
C1777 H1799 0.950 . S
C1778 H1774 0.949 . S
C1778 C1786 1.574 . S
C1778 C1794 1.368 . S
H1779 C1787 0.950 . S
H1780 C1785 0.950 . S
H1781 C1786 0.949 . S
H1782 C1788 0.950 . S
H1783 C1789 0.950 . S
H1784 C1790 0.949 . S
C1785 H1780 0.950 . S
C1785 C1787 1.327 . S
C1785 C1791 1.429 . S
C1786 C1778 1.574 . S
C1786 H1781 0.949 . S
C1786 C1792 1.368 . S
C1787 C1771 1.349 . S
C1787 H1779 0.950 . S
C1787 C1785 1.327 . S
C1788 C1776 1.349 . S
C1788 H1782 0.950 . S
C1788 C1789 1.327 . S
C1789 H1783 0.950 . S
C1789 C1788 1.327 . S
C1789 C1793 1.429 . S
C1790 C1773 1.574 . S
C1790 H1784 0.949 . S
C1790 C1794 1.368 . S
C1791 C1772 1.429 . S
C1791 C1785 1.429 . S
C1791 C1792 1.523 . S
C1792 C1773 1.368 . S
C1792 C1786 1.368 . S
C1792 C1791 1.523 . S
C1793 C1777 1.429 . S
C1793 C1789 1.429 . S
C1793 C1794 1.523 . S
C1794 C1778 1.368 . S
C1794 C1790 1.368 . S
C1794 C1793 1.523 . S
H1795 C1770 0.950 . S
H1796 C1772 0.950 . S
H1797 C1773 0.949 . S
H1798 C1775 0.950 . S
H1799 C1777 0.950 . S
C1800 C1801 1.349 . S
C1800 C1802 1.327 . S
C1800 H1825 0.950 . S
C1801 C1800 1.349 . S
C1801 C1817 1.349 . S
C1802 C1800 1.327 . S
C1802 C1821 1.429 . S
C1802 H1826 0.950 . S
C1803 C1820 1.574 . S
C1803 C1822 1.368 . S
C1803 H1827 0.949 . S
H1804 C1808 0.949 . S
C1805 C1806 1.349 . S
C1805 C1807 1.327 . S
C1805 H1828 0.950 . S
C1806 C1805 1.349 . S
C1806 C1818 1.349 . S
C1807 C1805 1.327 . S
C1807 C1823 1.429 . S
C1807 H1829 0.950 . S
C1808 H1804 0.949 . S
C1808 C1816 1.574 . S
C1808 C1824 1.368 . S
H1809 C1817 0.950 . S
H1810 C1815 0.950 . S
H1811 C1816 0.949 . S
H1812 C1818 0.950 . S
H1813 C1819 0.950 . S
H1814 C1820 0.949 . S
C1815 H1810 0.950 . S
C1815 C1817 1.327 . S
C1815 C1821 1.429 . S
C1816 C1808 1.574 . S
C1816 H1811 0.949 . S
C1816 C1822 1.368 . S
C1817 C1801 1.349 . S
C1817 H1809 0.950 . S
C1817 C1815 1.327 . S
C1818 C1806 1.349 . S
C1818 H1812 0.950 . S
C1818 C1819 1.327 . S
C1819 H1813 0.950 . S
C1819 C1818 1.327 . S
C1819 C1823 1.429 . S
C1820 C1803 1.574 . S
C1820 H1814 0.949 . S
C1820 C1824 1.368 . S
C1821 C1802 1.429 . S
C1821 C1815 1.429 . S
C1821 C1822 1.523 . S
C1822 C1803 1.368 . S
C1822 C1816 1.368 . S
C1822 C1821 1.523 . S
C1823 C1807 1.429 . S
C1823 C1819 1.429 . S
C1823 C1824 1.523 . S
C1824 C1808 1.368 . S
C1824 C1820 1.368 . S
C1824 C1823 1.523 . S
H1825 C1800 0.950 . S
H1826 C1802 0.950 . S
H1827 C1803 0.949 . S
H1828 C1805 0.950 . S
H1829 C1807 0.950 . S
C1830 C1831 1.349 . S
C1830 C1832 1.327 . S
C1830 H1855 0.950 . S
C1831 C1830 1.349 . S
C1831 C1847 1.349 . S
C1832 C1830 1.327 . S
C1832 C1851 1.429 . S
C1832 H1856 0.950 . S
C1833 C1850 1.574 . S
C1833 C1852 1.368 . S
C1833 H1857 0.949 . S
H1834 C1838 0.949 . S
C1835 C1836 1.349 . S
C1835 C1837 1.327 . S
C1835 H1858 0.950 . S
C1836 C1835 1.349 . S
C1836 C1848 1.349 . S
C1837 C1835 1.327 . S
C1837 C1853 1.429 . S
C1837 H1859 0.950 . S
C1838 H1834 0.949 . S
C1838 C1846 1.574 . S
C1838 C1854 1.368 . S
H1839 C1847 0.950 . S
H1840 C1845 0.950 . S
H1841 C1846 0.949 . S
H1842 C1848 0.950 . S
H1843 C1849 0.950 . S
H1844 C1850 0.949 . S
C1845 H1840 0.950 . S
C1845 C1847 1.327 . S
C1845 C1851 1.429 . S
C1846 C1838 1.574 . S
C1846 H1841 0.949 . S
C1846 C1852 1.368 . S
C1847 C1831 1.349 . S
C1847 H1839 0.950 . S
C1847 C1845 1.327 . S
C1848 C1836 1.349 . S
C1848 H1842 0.950 . S
C1848 C1849 1.327 . S
C1849 H1843 0.950 . S
C1849 C1848 1.327 . S
C1849 C1853 1.429 . S
C1850 C1833 1.574 . S
C1850 H1844 0.949 . S
C1850 C1854 1.368 . S
C1851 C1832 1.429 . S
C1851 C1845 1.429 . S
C1851 C1852 1.523 . S
C1852 C1833 1.368 . S
C1852 C1846 1.368 . S
C1852 C1851 1.523 . S
C1853 C1837 1.429 . S
C1853 C1849 1.429 . S
C1853 C1854 1.523 . S
C1854 C1838 1.368 . S
C1854 C1850 1.368 . S
C1854 C1853 1.523 . S
H1855 C1830 0.950 . S
H1856 C1832 0.950 . S
H1857 C1833 0.949 . S
H1858 C1835 0.950 . S
H1859 C1837 0.950 . S
C1860 C1861 1.349 . S
C1860 C1862 1.327 . S
C1860 H1885 0.950 . S
C1861 C1860 1.349 . S
C1861 C1877 1.349 . S
C1862 C1860 1.327 . S
C1862 C1881 1.429 . S
C1862 H1886 0.950 . S
C1863 C1880 1.574 . S
C1863 C1882 1.368 . S
C1863 H1887 0.949 . S
H1864 C1868 0.949 . S
C1865 C1866 1.349 . S
C1865 C1867 1.327 . S
C1865 H1888 0.950 . S
C1866 C1865 1.349 . S
C1866 C1878 1.349 . S
C1867 C1865 1.327 . S
C1867 C1883 1.429 . S
C1867 H1889 0.950 . S
C1868 H1864 0.949 . S
C1868 C1876 1.574 . S
C1868 C1884 1.368 . S
H1869 C1877 0.950 . S
H1870 C1875 0.950 . S
H1871 C1876 0.949 . S
H1872 C1878 0.950 . S
H1873 C1879 0.950 . S
H1874 C1880 0.949 . S
C1875 H1870 0.950 . S
C1875 C1877 1.327 . S
C1875 C1881 1.429 . S
C1876 C1868 1.574 . S
C1876 H1871 0.949 . S
C1876 C1882 1.368 . S
C1877 C1861 1.349 . S
C1877 H1869 0.950 . S
C1877 C1875 1.327 . S
C1878 C1866 1.349 . S
C1878 H1872 0.950 . S
C1878 C1879 1.327 . S
C1879 H1873 0.950 . S
C1879 C1878 1.327 . S
C1879 C1883 1.429 . S
C1880 C1863 1.574 . S
C1880 H1874 0.949 . S
C1880 C1884 1.368 . S
C1881 C1862 1.429 . S
C1881 C1875 1.429 . S
C1881 C1882 1.523 . S
C1882 C1863 1.368 . S
C1882 C1876 1.368 . S
C1882 C1881 1.523 . S
C1883 C1867 1.429 . S
C1883 C1879 1.429 . S
C1883 C1884 1.523 . S
C1884 C1868 1.368 . S
C1884 C1880 1.368 . S
C1884 C1883 1.523 . S
H1885 C1860 0.950 . S
H1886 C1862 0.950 . S
H1887 C1863 0.949 . S
H1888 C1865 0.950 . S
H1889 C1867 0.950 . S
C1890 C1891 1.349 . S
C1890 C1892 1.327 . S
C1890 H1915 0.950 . S
C1891 C1890 1.349 . S
C1891 C1907 1.349 . S
C1892 C1890 1.327 . S
C1892 C1911 1.429 . S
C1892 H1916 0.950 . S
C1893 C1910 1.574 . S
C1893 C1912 1.368 . S
C1893 H1917 0.949 . S
H1894 C1898 0.949 . S
C1895 C1896 1.349 . S
C1895 C1897 1.327 . S
C1895 H1918 0.950 . S
C1896 C1895 1.349 . S
C1896 C1908 1.349 . S
C1897 C1895 1.327 . S
C1897 C1913 1.429 . S
C1897 H1919 0.950 . S
C1898 H1894 0.949 . S
C1898 C1906 1.574 . S
C1898 C1914 1.368 . S
H1899 C1907 0.950 . S
H1900 C1905 0.950 . S
H1901 C1906 0.949 . S
H1902 C1908 0.950 . S
H1903 C1909 0.950 . S
H1904 C1910 0.949 . S
C1905 H1900 0.950 . S
C1905 C1907 1.327 . S
C1905 C1911 1.429 . S
C1906 C1898 1.574 . S
C1906 H1901 0.949 . S
C1906 C1912 1.368 . S
C1907 C1891 1.349 . S
C1907 H1899 0.950 . S
C1907 C1905 1.327 . S
C1908 C1896 1.349 . S
C1908 H1902 0.950 . S
C1908 C1909 1.327 . S
C1909 H1903 0.950 . S
C1909 C1908 1.327 . S
C1909 C1913 1.429 . S
C1910 C1893 1.574 . S
C1910 H1904 0.949 . S
C1910 C1914 1.368 . S
C1911 C1892 1.429 . S
C1911 C1905 1.429 . S
C1911 C1912 1.523 . S
C1912 C1893 1.368 . S
C1912 C1906 1.368 . S
C1912 C1911 1.523 . S
C1913 C1897 1.429 . S
C1913 C1909 1.429 . S
C1913 C1914 1.523 . S
C1914 C1898 1.368 . S
C1914 C1910 1.368 . S
C1914 C1913 1.523 . S
H1915 C1890 0.950 . S
H1916 C1892 0.950 . S
H1917 C1893 0.949 . S
H1918 C1895 0.950 . S
H1919 C1897 0.950 . S
C1920 C1921 1.349 . S
C1920 C1922 1.327 . S
C1920 H1945 0.950 . S
C1921 C1920 1.349 . S
C1921 C1937 1.349 . S
C1922 C1920 1.327 . S
C1922 C1941 1.429 . S
C1922 H1946 0.950 . S
C1923 C1940 1.574 . S
C1923 C1942 1.368 . S
C1923 H1947 0.949 . S
H1924 C1928 0.949 . S
C1925 C1926 1.349 . S
C1925 C1927 1.327 . S
C1925 H1948 0.950 . S
C1926 C1925 1.349 . S
C1926 C1938 1.349 . S
C1927 C1925 1.327 . S
C1927 C1943 1.429 . S
C1927 H1949 0.950 . S
C1928 H1924 0.949 . S
C1928 C1936 1.574 . S
C1928 C1944 1.368 . S
H1929 C1937 0.950 . S
H1930 C1935 0.950 . S
H1931 C1936 0.949 . S
H1932 C1938 0.950 . S
H1933 C1939 0.950 . S
H1934 C1940 0.949 . S
C1935 H1930 0.950 . S
C1935 C1937 1.327 . S
C1935 C1941 1.429 . S
C1936 C1928 1.574 . S
C1936 H1931 0.949 . S
C1936 C1942 1.368 . S
C1937 C1921 1.349 . S
C1937 H1929 0.950 . S
C1937 C1935 1.327 . S
C1938 C1926 1.349 . S
C1938 H1932 0.950 . S
C1938 C1939 1.327 . S
C1939 H1933 0.950 . S
C1939 C1938 1.327 . S
C1939 C1943 1.429 . S
C1940 C1923 1.574 . S
C1940 H1934 0.949 . S
C1940 C1944 1.368 . S
C1941 C1922 1.429 . S
C1941 C1935 1.429 . S
C1941 C1942 1.523 . S
C1942 C1923 1.368 . S
C1942 C1936 1.368 . S
C1942 C1941 1.523 . S
C1943 C1927 1.429 . S
C1943 C1939 1.429 . S
C1943 C1944 1.523 . S
C1944 C1928 1.368 . S
C1944 C1940 1.368 . S
C1944 C1943 1.523 . S
H1945 C1920 0.950 . S
H1946 C1922 0.950 . S
H1947 C1923 0.949 . S
H1948 C1925 0.950 . S
H1949 C1927 0.950 . S
C1950 C1951 1.349 . S
C1950 C1952 1.327 . S
C1950 H1975 0.950 . S
C1951 C1950 1.349 . S
C1951 C1967 1.349 . S
C1952 C1950 1.327 . S
C1952 C1971 1.429 . S
C1952 H1976 0.950 . S
C1953 C1970 1.574 . S
C1953 C1972 1.368 . S
C1953 H1977 0.949 . S
H1954 C1958 0.949 . S
C1955 C1956 1.349 . S
C1955 C1957 1.327 . S
C1955 H1978 0.950 . S
C1956 C1955 1.349 . S
C1956 C1968 1.349 . S
C1957 C1955 1.327 . S
C1957 C1973 1.429 . S
C1957 H1979 0.950 . S
C1958 H1954 0.949 . S
C1958 C1966 1.574 . S
C1958 C1974 1.368 . S
H1959 C1967 0.950 . S
H1960 C1965 0.950 . S
H1961 C1966 0.949 . S
H1962 C1968 0.950 . S
H1963 C1969 0.950 . S
H1964 C1970 0.949 . S
C1965 H1960 0.950 . S
C1965 C1967 1.327 . S
C1965 C1971 1.429 . S
C1966 C1958 1.574 . S
C1966 H1961 0.949 . S
C1966 C1972 1.368 . S
C1967 C1951 1.349 . S
C1967 H1959 0.950 . S
C1967 C1965 1.327 . S
C1968 C1956 1.349 . S
C1968 H1962 0.950 . S
C1968 C1969 1.327 . S
C1969 H1963 0.950 . S
C1969 C1968 1.327 . S
C1969 C1973 1.429 . S
C1970 C1953 1.574 . S
C1970 H1964 0.949 . S
C1970 C1974 1.368 . S
C1971 C1952 1.429 . S
C1971 C1965 1.429 . S
C1971 C1972 1.523 . S
C1972 C1953 1.368 . S
C1972 C1966 1.368 . S
C1972 C1971 1.523 . S
C1973 C1957 1.429 . S
C1973 C1969 1.429 . S
C1973 C1974 1.523 . S
C1974 C1958 1.368 . S
C1974 C1970 1.368 . S
C1974 C1973 1.523 . S
H1975 C1950 0.950 . S
H1976 C1952 0.950 . S
H1977 C1953 0.949 . S
H1978 C1955 0.950 . S
H1979 C1957 0.950 . S
C1980 C1981 1.349 . S
C1980 C1982 1.327 . S
C1980 H2005 0.950 . S
C1981 C1980 1.349 . S
C1981 C1997 1.349 . S
C1982 C1980 1.327 . S
C1982 C2001 1.429 . S
C1982 H2006 0.950 . S
C1983 C2000 1.574 . S
C1983 C2002 1.368 . S
C1983 H2007 0.949 . S
H1984 C1988 0.949 . S
C1985 C1986 1.349 . S
C1985 C1987 1.327 . S
C1985 H2008 0.950 . S
C1986 C1985 1.349 . S
C1986 C1998 1.349 . S
C1987 C1985 1.327 . S
C1987 C2003 1.429 . S
C1987 H2009 0.950 . S
C1988 H1984 0.949 . S
C1988 C1996 1.574 . S
C1988 C2004 1.368 . S
H1989 C1997 0.950 . S
H1990 C1995 0.950 . S
H1991 C1996 0.949 . S
H1992 C1998 0.950 . S
H1993 C1999 0.950 . S
H1994 C2000 0.949 . S
C1995 H1990 0.950 . S
C1995 C1997 1.327 . S
C1995 C2001 1.429 . S
C1996 C1988 1.574 . S
C1996 H1991 0.949 . S
C1996 C2002 1.368 . S
C1997 C1981 1.349 . S
C1997 H1989 0.950 . S
C1997 C1995 1.327 . S
C1998 C1986 1.349 . S
C1998 H1992 0.950 . S
C1998 C1999 1.327 . S
C1999 H1993 0.950 . S
C1999 C1998 1.327 . S
C1999 C2003 1.429 . S
C2000 C1983 1.574 . S
C2000 H1994 0.949 . S
C2000 C2004 1.368 . S
C2001 C1982 1.429 . S
C2001 C1995 1.429 . S
C2001 C2002 1.523 . S
C2002 C1983 1.368 . S
C2002 C1996 1.368 . S
C2002 C2001 1.523 . S
C2003 C1987 1.429 . S
C2003 C1999 1.429 . S
C2003 C2004 1.523 . S
C2004 C1988 1.368 . S
C2004 C2000 1.368 . S
C2004 C2003 1.523 . S
H2005 C1980 0.950 . S
H2006 C1982 0.950 . S
H2007 C1983 0.949 . S
H2008 C1985 0.950 . S
H2009 C1987 0.950 . S
C2010 C2011 1.349 . S
C2010 C2012 1.327 . S
C2010 H2035 0.950 . S
C2011 C2010 1.349 . S
C2011 C2027 1.349 . S
C2012 C2010 1.327 . S
C2012 C2031 1.429 . S
C2012 H2036 0.950 . S
C2013 C2030 1.574 . S
C2013 C2032 1.368 . S
C2013 H2037 0.949 . S
H2014 C2018 0.949 . S
C2015 C2016 1.349 . S
C2015 C2017 1.327 . S
C2015 H2038 0.950 . S
C2016 C2015 1.349 . S
C2016 C2028 1.349 . S
C2017 C2015 1.327 . S
C2017 C2033 1.429 . S
C2017 H2039 0.950 . S
C2018 H2014 0.949 . S
C2018 C2026 1.574 . S
C2018 C2034 1.368 . S
H2019 C2027 0.950 . S
H2020 C2025 0.950 . S
H2021 C2026 0.949 . S
H2022 C2028 0.950 . S
H2023 C2029 0.950 . S
H2024 C2030 0.949 . S
C2025 H2020 0.950 . S
C2025 C2027 1.327 . S
C2025 C2031 1.429 . S
C2026 C2018 1.574 . S
C2026 H2021 0.949 . S
C2026 C2032 1.368 . S
C2027 C2011 1.349 . S
C2027 H2019 0.950 . S
C2027 C2025 1.327 . S
C2028 C2016 1.349 . S
C2028 H2022 0.950 . S
C2028 C2029 1.327 . S
C2029 H2023 0.950 . S
C2029 C2028 1.327 . S
C2029 C2033 1.429 . S
C2030 C2013 1.574 . S
C2030 H2024 0.949 . S
C2030 C2034 1.368 . S
C2031 C2012 1.429 . S
C2031 C2025 1.429 . S
C2031 C2032 1.523 . S
C2032 C2013 1.368 . S
C2032 C2026 1.368 . S
C2032 C2031 1.523 . S
C2033 C2017 1.429 . S
C2033 C2029 1.429 . S
C2033 C2034 1.523 . S
C2034 C2018 1.368 . S
C2034 C2030 1.368 . S
C2034 C2033 1.523 . S
H2035 C2010 0.950 . S
H2036 C2012 0.950 . S
H2037 C2013 0.949 . S
H2038 C2015 0.950 . S
H2039 C2017 0.950 . S
C2040 C2041 1.349 . S
C2040 C2042 1.327 . S
C2040 H2065 0.950 . S
C2041 C2040 1.349 . S
C2041 C2057 1.349 . S
C2042 C2040 1.327 . S
C2042 C2061 1.429 . S
C2042 H2066 0.950 . S
C2043 C2060 1.574 . S
C2043 C2062 1.368 . S
C2043 H2067 0.949 . S
H2044 C2048 0.949 . S
C2045 C2046 1.349 . S
C2045 C2047 1.327 . S
C2045 H2068 0.950 . S
C2046 C2045 1.349 . S
C2046 C2058 1.349 . S
C2047 C2045 1.327 . S
C2047 C2063 1.429 . S
C2047 H2069 0.950 . S
C2048 H2044 0.949 . S
C2048 C2056 1.574 . S
C2048 C2064 1.368 . S
H2049 C2057 0.950 . S
H2050 C2055 0.950 . S
H2051 C2056 0.949 . S
H2052 C2058 0.950 . S
H2053 C2059 0.950 . S
H2054 C2060 0.949 . S
C2055 H2050 0.950 . S
C2055 C2057 1.327 . S
C2055 C2061 1.429 . S
C2056 C2048 1.574 . S
C2056 H2051 0.949 . S
C2056 C2062 1.368 . S
C2057 C2041 1.349 . S
C2057 H2049 0.950 . S
C2057 C2055 1.327 . S
C2058 C2046 1.349 . S
C2058 H2052 0.950 . S
C2058 C2059 1.327 . S
C2059 H2053 0.950 . S
C2059 C2058 1.327 . S
C2059 C2063 1.429 . S
C2060 C2043 1.574 . S
C2060 H2054 0.949 . S
C2060 C2064 1.368 . S
C2061 C2042 1.429 . S
C2061 C2055 1.429 . S
C2061 C2062 1.523 . S
C2062 C2043 1.368 . S
C2062 C2056 1.368 . S
C2062 C2061 1.523 . S
C2063 C2047 1.429 . S
C2063 C2059 1.429 . S
C2063 C2064 1.523 . S
C2064 C2048 1.368 . S
C2064 C2060 1.368 . S
C2064 C2063 1.523 . S
H2065 C2040 0.950 . S
H2066 C2042 0.950 . S
H2067 C2043 0.949 . S
H2068 C2045 0.950 . S
H2069 C2047 0.950 . S
C2070 C2071 1.349 . S
C2070 C2072 1.327 . S
C2070 H2095 0.950 . S
C2071 C2070 1.349 . S
C2071 C2087 1.349 . S
C2072 C2070 1.327 . S
C2072 C2091 1.429 . S
C2072 H2096 0.950 . S
C2073 C2090 1.574 . S
C2073 C2092 1.368 . S
C2073 H2097 0.949 . S
H2074 C2078 0.949 . S
C2075 C2076 1.349 . S
C2075 C2077 1.327 . S
C2075 H2098 0.950 . S
C2076 C2075 1.349 . S
C2076 C2088 1.349 . S
C2077 C2075 1.327 . S
C2077 C2093 1.429 . S
C2077 H2099 0.950 . S
C2078 H2074 0.949 . S
C2078 C2086 1.574 . S
C2078 C2094 1.368 . S
H2079 C2087 0.950 . S
H2080 C2085 0.950 . S
H2081 C2086 0.949 . S
H2082 C2088 0.950 . S
H2083 C2089 0.950 . S
H2084 C2090 0.949 . S
C2085 H2080 0.950 . S
C2085 C2087 1.327 . S
C2085 C2091 1.429 . S
C2086 C2078 1.574 . S
C2086 H2081 0.949 . S
C2086 C2092 1.368 . S
C2087 C2071 1.349 . S
C2087 H2079 0.950 . S
C2087 C2085 1.327 . S
C2088 C2076 1.349 . S
C2088 H2082 0.950 . S
C2088 C2089 1.327 . S
C2089 H2083 0.950 . S
C2089 C2088 1.327 . S
C2089 C2093 1.429 . S
C2090 C2073 1.574 . S
C2090 H2084 0.949 . S
C2090 C2094 1.368 . S
C2091 C2072 1.429 . S
C2091 C2085 1.429 . S
C2091 C2092 1.523 . S
C2092 C2073 1.368 . S
C2092 C2086 1.368 . S
C2092 C2091 1.523 . S
C2093 C2077 1.429 . S
C2093 C2089 1.429 . S
C2093 C2094 1.523 . S
C2094 C2078 1.368 . S
C2094 C2090 1.368 . S
C2094 C2093 1.523 . S
H2095 C2070 0.950 . S
H2096 C2072 0.950 . S
H2097 C2073 0.949 . S
H2098 C2075 0.950 . S
H2099 C2077 0.950 . S
C2100 C2101 1.349 . S
C2100 C2102 1.327 . S
C2100 H2125 0.950 . S
C2101 C2100 1.349 . S
C2101 C2117 1.349 . S
C2102 C2100 1.327 . S
C2102 C2121 1.429 . S
C2102 H2126 0.950 . S
C2103 C2120 1.574 . S
C2103 C2122 1.368 . S
C2103 H2127 0.949 . S
H2104 C2108 0.949 . S
C2105 C2106 1.349 . S
C2105 C2107 1.327 . S
C2105 H2128 0.950 . S
C2106 C2105 1.349 . S
C2106 C2118 1.349 . S
C2107 C2105 1.327 . S
C2107 C2123 1.429 . S
C2107 H2129 0.950 . S
C2108 H2104 0.949 . S
C2108 C2116 1.574 . S
C2108 C2124 1.368 . S
H2109 C2117 0.950 . S
H2110 C2115 0.950 . S
H2111 C2116 0.949 . S
H2112 C2118 0.950 . S
H2113 C2119 0.950 . S
H2114 C2120 0.949 . S
C2115 H2110 0.950 . S
C2115 C2117 1.327 . S
C2115 C2121 1.429 . S
C2116 C2108 1.574 . S
C2116 H2111 0.949 . S
C2116 C2122 1.368 . S
C2117 C2101 1.349 . S
C2117 H2109 0.950 . S
C2117 C2115 1.327 . S
C2118 C2106 1.349 . S
C2118 H2112 0.950 . S
C2118 C2119 1.327 . S
C2119 H2113 0.950 . S
C2119 C2118 1.327 . S
C2119 C2123 1.429 . S
C2120 C2103 1.574 . S
C2120 H2114 0.949 . S
C2120 C2124 1.368 . S
C2121 C2102 1.429 . S
C2121 C2115 1.429 . S
C2121 C2122 1.523 . S
C2122 C2103 1.368 . S
C2122 C2116 1.368 . S
C2122 C2121 1.523 . S
C2123 C2107 1.429 . S
C2123 C2119 1.429 . S
C2123 C2124 1.523 . S
C2124 C2108 1.368 . S
C2124 C2120 1.368 . S
C2124 C2123 1.523 . S
H2125 C2100 0.950 . S
H2126 C2102 0.950 . S
H2127 C2103 0.949 . S
H2128 C2105 0.950 . S
H2129 C2107 0.950 . S
C2130 C2131 1.349 . S
C2130 C2132 1.327 . S
C2130 H2155 0.950 . S
C2131 C2130 1.349 . S
C2131 C2147 1.349 . S
C2132 C2130 1.327 . S
C2132 C2151 1.429 . S
C2132 H2156 0.950 . S
C2133 C2150 1.574 . S
C2133 C2152 1.368 . S
C2133 H2157 0.949 . S
H2134 C2138 0.949 . S
C2135 C2136 1.349 . S
C2135 C2137 1.327 . S
C2135 H2158 0.950 . S
C2136 C2135 1.349 . S
C2136 C2148 1.349 . S
C2137 C2135 1.327 . S
C2137 C2153 1.429 . S
C2137 H2159 0.950 . S
C2138 H2134 0.949 . S
C2138 C2146 1.574 . S
C2138 C2154 1.368 . S
H2139 C2147 0.950 . S
H2140 C2145 0.950 . S
H2141 C2146 0.949 . S
H2142 C2148 0.950 . S
H2143 C2149 0.950 . S
H2144 C2150 0.949 . S
C2145 H2140 0.950 . S
C2145 C2147 1.327 . S
C2145 C2151 1.429 . S
C2146 C2138 1.574 . S
C2146 H2141 0.949 . S
C2146 C2152 1.368 . S
C2147 C2131 1.349 . S
C2147 H2139 0.950 . S
C2147 C2145 1.327 . S
C2148 C2136 1.349 . S
C2148 H2142 0.950 . S
C2148 C2149 1.327 . S
C2149 H2143 0.950 . S
C2149 C2148 1.327 . S
C2149 C2153 1.429 . S
C2150 C2133 1.574 . S
C2150 H2144 0.949 . S
C2150 C2154 1.368 . S
C2151 C2132 1.429 . S
C2151 C2145 1.429 . S
C2151 C2152 1.523 . S
C2152 C2133 1.368 . S
C2152 C2146 1.368 . S
C2152 C2151 1.523 . S
C2153 C2137 1.429 . S
C2153 C2149 1.429 . S
C2153 C2154 1.523 . S
C2154 C2138 1.368 . S
C2154 C2150 1.368 . S
C2154 C2153 1.523 . S
H2155 C2130 0.950 . S
H2156 C2132 0.950 . S
H2157 C2133 0.949 . S
H2158 C2135 0.950 . S
H2159 C2137 0.950 . S
C2160 C2161 1.349 . S
C2160 C2162 1.327 . S
C2160 H2185 0.950 . S
C2161 C2160 1.349 . S
C2161 C2177 1.349 . S
C2162 C2160 1.327 . S
C2162 C2181 1.429 . S
C2162 H2186 0.950 . S
C2163 C2180 1.574 . S
C2163 C2182 1.368 . S
C2163 H2187 0.949 . S
H2164 C2168 0.949 . S
C2165 C2166 1.349 . S
C2165 C2167 1.327 . S
C2165 H2188 0.950 . S
C2166 C2165 1.349 . S
C2166 C2178 1.349 . S
C2167 C2165 1.327 . S
C2167 C2183 1.429 . S
C2167 H2189 0.950 . S
C2168 H2164 0.949 . S
C2168 C2176 1.574 . S
C2168 C2184 1.368 . S
H2169 C2177 0.950 . S
H2170 C2175 0.950 . S
H2171 C2176 0.949 . S
H2172 C2178 0.950 . S
H2173 C2179 0.950 . S
H2174 C2180 0.949 . S
C2175 H2170 0.950 . S
C2175 C2177 1.327 . S
C2175 C2181 1.429 . S
C2176 C2168 1.574 . S
C2176 H2171 0.949 . S
C2176 C2182 1.368 . S
C2177 C2161 1.349 . S
C2177 H2169 0.950 . S
C2177 C2175 1.327 . S
C2178 C2166 1.349 . S
C2178 H2172 0.950 . S
C2178 C2179 1.327 . S
C2179 H2173 0.950 . S
C2179 C2178 1.327 . S
C2179 C2183 1.429 . S
C2180 C2163 1.574 . S
C2180 H2174 0.949 . S
C2180 C2184 1.368 . S
C2181 C2162 1.429 . S
C2181 C2175 1.429 . S
C2181 C2182 1.523 . S
C2182 C2163 1.368 . S
C2182 C2176 1.368 . S
C2182 C2181 1.523 . S
C2183 C2167 1.429 . S
C2183 C2179 1.429 . S
C2183 C2184 1.523 . S
C2184 C2168 1.368 . S
C2184 C2180 1.368 . S
C2184 C2183 1.523 . S
H2185 C2160 0.950 . S
H2186 C2162 0.950 . S
H2187 C2163 0.949 . S
H2188 C2165 0.950 . S
H2189 C2167 0.950 . S
C2190 C2191 1.349 . S
C2190 C2192 1.327 . S
C2190 H2215 0.950 . S
C2191 C2190 1.349 . S
C2191 C2207 1.349 . S
C2192 C2190 1.327 . S
C2192 C2211 1.429 . S
C2192 H2216 0.950 . S
C2193 C2210 1.574 . S
C2193 C2212 1.368 . S
C2193 H2217 0.949 . S
H2194 C2198 0.949 . S
C2195 C2196 1.349 . S
C2195 C2197 1.327 . S
C2195 H2218 0.950 . S
C2196 C2195 1.349 . S
C2196 C2208 1.349 . S
C2197 C2195 1.327 . S
C2197 C2213 1.429 . S
C2197 H2219 0.950 . S
C2198 H2194 0.949 . S
C2198 C2206 1.574 . S
C2198 C2214 1.368 . S
H2199 C2207 0.950 . S
H2200 C2205 0.950 . S
H2201 C2206 0.949 . S
H2202 C2208 0.950 . S
H2203 C2209 0.950 . S
H2204 C2210 0.949 . S
C2205 H2200 0.950 . S
C2205 C2207 1.327 . S
C2205 C2211 1.429 . S
C2206 C2198 1.574 . S
C2206 H2201 0.949 . S
C2206 C2212 1.368 . S
C2207 C2191 1.349 . S
C2207 H2199 0.950 . S
C2207 C2205 1.327 . S
C2208 C2196 1.349 . S
C2208 H2202 0.950 . S
C2208 C2209 1.327 . S
C2209 H2203 0.950 . S
C2209 C2208 1.327 . S
C2209 C2213 1.429 . S
C2210 C2193 1.574 . S
C2210 H2204 0.949 . S
C2210 C2214 1.368 . S
C2211 C2192 1.429 . S
C2211 C2205 1.429 . S
C2211 C2212 1.523 . S
C2212 C2193 1.368 . S
C2212 C2206 1.368 . S
C2212 C2211 1.523 . S
C2213 C2197 1.429 . S
C2213 C2209 1.429 . S
C2213 C2214 1.523 . S
C2214 C2198 1.368 . S
C2214 C2210 1.368 . S
C2214 C2213 1.523 . S
H2215 C2190 0.950 . S
H2216 C2192 0.950 . S
H2217 C2193 0.949 . S
H2218 C2195 0.950 . S
H2219 C2197 0.950 . S
C2220 C2221 1.349 . S
C2220 C2222 1.327 . S
C2220 H2245 0.950 . S
C2221 C2220 1.349 . S
C2221 C2237 1.349 . S
C2222 C2220 1.327 . S
C2222 C2241 1.429 . S
C2222 H2246 0.950 . S
C2223 C2240 1.574 . S
C2223 C2242 1.368 . S
C2223 H2247 0.949 . S
H2224 C2228 0.949 . S
C2225 C2226 1.349 . S
C2225 C2227 1.327 . S
C2225 H2248 0.950 . S
C2226 C2225 1.349 . S
C2226 C2238 1.349 . S
C2227 C2225 1.327 . S
C2227 C2243 1.429 . S
C2227 H2249 0.950 . S
C2228 H2224 0.949 . S
C2228 C2236 1.574 . S
C2228 C2244 1.368 . S
H2229 C2237 0.950 . S
H2230 C2235 0.950 . S
H2231 C2236 0.949 . S
H2232 C2238 0.950 . S
H2233 C2239 0.950 . S
H2234 C2240 0.949 . S
C2235 H2230 0.950 . S
C2235 C2237 1.327 . S
C2235 C2241 1.429 . S
C2236 C2228 1.574 . S
C2236 H2231 0.949 . S
C2236 C2242 1.368 . S
C2237 C2221 1.349 . S
C2237 H2229 0.950 . S
C2237 C2235 1.327 . S
C2238 C2226 1.349 . S
C2238 H2232 0.950 . S
C2238 C2239 1.327 . S
C2239 H2233 0.950 . S
C2239 C2238 1.327 . S
C2239 C2243 1.429 . S
C2240 C2223 1.574 . S
C2240 H2234 0.949 . S
C2240 C2244 1.368 . S
C2241 C2222 1.429 . S
C2241 C2235 1.429 . S
C2241 C2242 1.523 . S
C2242 C2223 1.368 . S
C2242 C2236 1.368 . S
C2242 C2241 1.523 . S
C2243 C2227 1.429 . S
C2243 C2239 1.429 . S
C2243 C2244 1.523 . S
C2244 C2228 1.368 . S
C2244 C2240 1.368 . S
C2244 C2243 1.523 . S
H2245 C2220 0.950 . S
H2246 C2222 0.950 . S
H2247 C2223 0.949 . S
H2248 C2225 0.950 . S
H2249 C2227 0.950 . S
C2250 C2251 1.349 . S
C2250 C2252 1.327 . S
C2250 H2275 0.950 . S
C2251 C2250 1.349 . S
C2251 C2267 1.349 . S
C2252 C2250 1.327 . S
C2252 C2271 1.429 . S
C2252 H2276 0.950 . S
C2253 C2270 1.574 . S
C2253 C2272 1.368 . S
C2253 H2277 0.949 . S
H2254 C2258 0.949 . S
C2255 C2256 1.349 . S
C2255 C2257 1.327 . S
C2255 H2278 0.950 . S
C2256 C2255 1.349 . S
C2256 C2268 1.349 . S
C2257 C2255 1.327 . S
C2257 C2273 1.429 . S
C2257 H2279 0.950 . S
C2258 H2254 0.949 . S
C2258 C2266 1.574 . S
C2258 C2274 1.368 . S
H2259 C2267 0.950 . S
H2260 C2265 0.950 . S
H2261 C2266 0.949 . S
H2262 C2268 0.950 . S
H2263 C2269 0.950 . S
H2264 C2270 0.949 . S
C2265 H2260 0.950 . S
C2265 C2267 1.327 . S
C2265 C2271 1.429 . S
C2266 C2258 1.574 . S
C2266 H2261 0.949 . S
C2266 C2272 1.368 . S
C2267 C2251 1.349 . S
C2267 H2259 0.950 . S
C2267 C2265 1.327 . S
C2268 C2256 1.349 . S
C2268 H2262 0.950 . S
C2268 C2269 1.327 . S
C2269 H2263 0.950 . S
C2269 C2268 1.327 . S
C2269 C2273 1.429 . S
C2270 C2253 1.574 . S
C2270 H2264 0.949 . S
C2270 C2274 1.368 . S
C2271 C2252 1.429 . S
C2271 C2265 1.429 . S
C2271 C2272 1.523 . S
C2272 C2253 1.368 . S
C2272 C2266 1.368 . S
C2272 C2271 1.523 . S
C2273 C2257 1.429 . S
C2273 C2269 1.429 . S
C2273 C2274 1.523 . S
C2274 C2258 1.368 . S
C2274 C2270 1.368 . S
C2274 C2273 1.523 . S
H2275 C2250 0.950 . S
H2276 C2252 0.950 . S
H2277 C2253 0.949 . S
H2278 C2255 0.950 . S
H2279 C2257 0.950 . S
C2280 C2281 1.349 . S
C2280 C2282 1.327 . S
C2280 H2305 0.950 . S
C2281 C2280 1.349 . S
C2281 C2297 1.349 . S
C2282 C2280 1.327 . S
C2282 C2301 1.429 . S
C2282 H2306 0.950 . S
C2283 C2300 1.574 . S
C2283 C2302 1.368 . S
C2283 H2307 0.949 . S
H2284 C2288 0.949 . S
C2285 C2286 1.349 . S
C2285 C2287 1.327 . S
C2285 H2308 0.950 . S
C2286 C2285 1.349 . S
C2286 C2298 1.349 . S
C2287 C2285 1.327 . S
C2287 C2303 1.429 . S
C2287 H2309 0.950 . S
C2288 H2284 0.949 . S
C2288 C2296 1.574 . S
C2288 C2304 1.368 . S
H2289 C2297 0.950 . S
H2290 C2295 0.950 . S
H2291 C2296 0.949 . S
H2292 C2298 0.950 . S
H2293 C2299 0.950 . S
H2294 C2300 0.949 . S
C2295 H2290 0.950 . S
C2295 C2297 1.327 . S
C2295 C2301 1.429 . S
C2296 C2288 1.574 . S
C2296 H2291 0.949 . S
C2296 C2302 1.368 . S
C2297 C2281 1.349 . S
C2297 H2289 0.950 . S
C2297 C2295 1.327 . S
C2298 C2286 1.349 . S
C2298 H2292 0.950 . S
C2298 C2299 1.327 . S
C2299 H2293 0.950 . S
C2299 C2298 1.327 . S
C2299 C2303 1.429 . S
C2300 C2283 1.574 . S
C2300 H2294 0.949 . S
C2300 C2304 1.368 . S
C2301 C2282 1.429 . S
C2301 C2295 1.429 . S
C2301 C2302 1.523 . S
C2302 C2283 1.368 . S
C2302 C2296 1.368 . S
C2302 C2301 1.523 . S
C2303 C2287 1.429 . S
C2303 C2299 1.429 . S
C2303 C2304 1.523 . S
C2304 C2288 1.368 . S
C2304 C2300 1.368 . S
C2304 C2303 1.523 . S
H2305 C2280 0.950 . S
H2306 C2282 0.950 . S
H2307 C2283 0.949 . S
H2308 C2285 0.950 . S
H2309 C2287 0.950 . S
C876 C699 1.280 . S
C871 C56 1.370 . S
C906 C700 1.726 . S
C901 C154 1.635 . S
C936 C694 1.474 . S
C931 C236 1.485 . S
C961 C310 0.889 . S
C966 C693 0.351 . S
C991 C394 1.635 . S
C996 C696 1.726 . S
C1026 C698 1.474 . S
C1021 C476 1.485 . S
C1051 C574 0.889 . S
C1056 C697 0.351 . S
C1081 C656 1.370 . S
C1086 C695 1.280 . S
C1116 C730 2.632 . S
C1111 C67 2.633 . S
C1141 C139 1.558 . S
C1146 C761 1.447 . S
C1176 C729 1.419 . S
C1171 C238 1.324 . S
C1206 C764 1.241 . S
C1201 C308 1.215 . S
C1231 C392 1.552 . S
C1236 C727 1.563 . S
C1266 C759 2.647 . S
C1261 C487 2.658 . S
C1291 C559 1.240 . S
C1296 C732 1.156 . S
C1321 C658 1.300 . S
C1326 C766 1.385 . S
C1351 C58 1.299 . S
C1356 C762 1.384 . S
C1381 C403 1.558 . S
C1386 C765 1.449 . S
C1416 C733 1.419 . S
C1411 C478 1.328 . S
C1446 C760 1.241 . S
C1441 C572 1.219 . S
C1471 C643 2.635 . S
C1476 C726 2.633 . S
C1501 C223 2.657 . S
C1506 C763 2.647 . S
C1536 C728 1.156 . S
C1531 C319 1.238 . S
C1561 C152 1.552 . S
C1566 C731 1.560 . S
C1591 C644 1.422 . S
C1596 C798 1.337 . S
C1621 C406 1.236 . S
C1626 C799 1.269 . S
C1656 C793 1.306 . S
C1651 C488 1.311 . S
C1686 C792 0.317 . S
C1681 C562 0.678 . S
C1711 C142 1.236 . S
C1716 C795 1.268 . S
C1746 C797 1.306 . S
C1741 C224 1.308 . S
C1771 C322 0.675 . S
C1776 C796 0.316 . S
C1801 C68 1.422 . S
C1806 C794 1.336 . S
C1831 C655 2.848 . S
C1836 C832 2.758 . S
C1866 C864 1.219 . S
C1861 C391 1.285 . S
C1891 C490 1.204 . S
C1896 C825 1.359 . S
C1921 C560 1.562 . S
C1926 C859 1.564 . S
C1956 C830 1.245 . S
C1951 C140 1.233 . S
C1981 C235 2.859 . S
C1986 C861 2.773 . S
C2016 C827 1.571 . S
C2011 C307 1.648 . S
C2046 C862 1.363 . S
C2041 C70 1.245 . S
C2076 C858 1.363 . S
C2071 C646 1.246 . S
C2101 C151 1.285 . S
C2106 C860 1.219 . S
C2131 C226 1.204 . S
C2136 C829 1.360 . S
C2166 C863 1.564 . S
C2161 C320 1.562 . S
C2191 C55 2.848 . S
C2196 C828 2.758 . S
C2221 C475 2.859 . S
C2226 C865 2.773 . S
C2256 C831 1.571 . S
C2251 C571 1.648 . S
C2286 C826 1.245 . S
C2281 C404 1.232 . S
