# Generated by pormake.
# Topology cor, (4,6)-cn, num edge types: 1
# Building blocks:
#     Node 0, Type 0, BuildingBlock: NAHDIM_clean_sbu_0, # of connection points: 4
#     Node 1, Type 0, BuildingBlock: NAHDIM_clean_sbu_0, # of connection points: 4
#     Node 2, Type 0, BuildingBlock: NAHDIM_clean_sbu_0, # of connection points: 4
#     Node 3, Type 0, BuildingBlock: NAHDIM_clean_sbu_0, # of connection points: 4
#     Node 4, Type 0, BuildingBlock: NAHDIM_clean_sbu_0, # of connection points: 4
#     Node 5, Type 0, BuildingBlock: NAHDIM_clean_sbu_0, # of connection points: 4
#     Node 6, Type 0, BuildingBlock: NAHDIM_clean_sbu_0, # of connection points: 4
#     Node 7, Type 0, BuildingBlock: NAHDIM_clean_sbu_0, # of connection points: 4
#     Node 8, Type 0, BuildingBlock: NAHDIM_clean_sbu_0, # of connection points: 4
#     Node 9, Type 0, BuildingBlock: NAHDIM_clean_sbu_0, # of connection points: 4
#     Node 10, Type 0, BuildingBlock: NAHDIM_clean_sbu_0, # of connection points: 4
#     Node 11, Type 0, BuildingBlock: NAHDIM_clean_sbu_0, # of connection points: 4
#     Node 12, Type 0, BuildingBlock: NAHDIM_clean_sbu_0, # of connection points: 4
#     Node 13, Type 0, BuildingBlock: NAHDIM_clean_sbu_0, # of connection points: 4
#     Node 14, Type 0, BuildingBlock: NAHDIM_clean_sbu_0, # of connection points: 4
#     Node 15, Type 0, BuildingBlock: NAHDIM_clean_sbu_0, # of connection points: 4
#     Node 16, Type 0, BuildingBlock: NAHDIM_clean_sbu_0, # of connection points: 4
#     Node 17, Type 0, BuildingBlock: NAHDIM_clean_sbu_0, # of connection points: 4
#     Node 18, Type 1, BuildingBlock: MIDCAF_clean_sbu_0, # of connection points: 6
#     Node 19, Type 1, BuildingBlock: MIDCAF_clean_sbu_0, # of connection points: 6
#     Node 20, Type 1, BuildingBlock: MIDCAF_clean_sbu_0, # of connection points: 6
#     Node 21, Type 1, BuildingBlock: MIDCAF_clean_sbu_0, # of connection points: 6
#     Node 22, Type 1, BuildingBlock: MIDCAF_clean_sbu_0, # of connection points: 6
#     Node 23, Type 1, BuildingBlock: MIDCAF_clean_sbu_0, # of connection points: 6
#     Node 24, Type 1, BuildingBlock: MIDCAF_clean_sbu_0, # of connection points: 6
#     Node 25, Type 1, BuildingBlock: MIDCAF_clean_sbu_0, # of connection points: 6
#     Node 26, Type 1, BuildingBlock: MIDCAF_clean_sbu_0, # of connection points: 6
#     Node 27, Type 1, BuildingBlock: MIDCAF_clean_sbu_0, # of connection points: 6
#     Node 28, Type 1, BuildingBlock: MIDCAF_clean_sbu_0, # of connection points: 6
#     Node 29, Type 1, BuildingBlock: MIDCAF_clean_sbu_0, # of connection points: 6
#     Edge 30, Type (0, 1), BuildingBlock: UVAHIK_clean_linker_0, # of connection points: 2
#     Edge 31, Type (0, 1), BuildingBlock: UVAHIK_clean_linker_0, # of connection points: 2
#     Edge 32, Type (0, 1), BuildingBlock: UVAHIK_clean_linker_0, # of connection points: 2
#     Edge 33, Type (0, 1), BuildingBlock: UVAHIK_clean_linker_0, # of connection points: 2
#     Edge 34, Type (0, 1), BuildingBlock: UVAHIK_clean_linker_0, # of connection points: 2
#     Edge 35, Type (0, 1), BuildingBlock: UVAHIK_clean_linker_0, # of connection points: 2
#     Edge 36, Type (0, 1), BuildingBlock: UVAHIK_clean_linker_0, # of connection points: 2
#     Edge 37, Type (0, 1), BuildingBlock: UVAHIK_clean_linker_0, # of connection points: 2
#     Edge 38, Type (0, 1), BuildingBlock: UVAHIK_clean_linker_0, # of connection points: 2
#     Edge 39, Type (0, 1), BuildingBlock: UVAHIK_clean_linker_0, # of connection points: 2
#     Edge 40, Type (0, 1), BuildingBlock: UVAHIK_clean_linker_0, # of connection points: 2
#     Edge 41, Type (0, 1), BuildingBlock: UVAHIK_clean_linker_0, # of connection points: 2
#     Edge 42, Type (0, 1), BuildingBlock: UVAHIK_clean_linker_0, # of connection points: 2
#     Edge 43, Type (0, 1), BuildingBlock: UVAHIK_clean_linker_0, # of connection points: 2
#     Edge 44, Type (0, 1), BuildingBlock: UVAHIK_clean_linker_0, # of connection points: 2
#     Edge 45, Type (0, 1), BuildingBlock: UVAHIK_clean_linker_0, # of connection points: 2
#     Edge 46, Type (0, 1), BuildingBlock: UVAHIK_clean_linker_0, # of connection points: 2
#     Edge 47, Type (0, 1), BuildingBlock: UVAHIK_clean_linker_0, # of connection points: 2
#     Edge 48, Type (0, 1), BuildingBlock: UVAHIK_clean_linker_0, # of connection points: 2
#     Edge 49, Type (0, 1), BuildingBlock: UVAHIK_clean_linker_0, # of connection points: 2
#     Edge 50, Type (0, 1), BuildingBlock: UVAHIK_clean_linker_0, # of connection points: 2
#     Edge 51, Type (0, 1), BuildingBlock: UVAHIK_clean_linker_0, # of connection points: 2
#     Edge 52, Type (0, 1), BuildingBlock: UVAHIK_clean_linker_0, # of connection points: 2
#     Edge 53, Type (0, 1), BuildingBlock: UVAHIK_clean_linker_0, # of connection points: 2
#     Edge 54, Type (0, 1), BuildingBlock: UVAHIK_clean_linker_0, # of connection points: 2
#     Edge 55, Type (0, 1), BuildingBlock: UVAHIK_clean_linker_0, # of connection points: 2
#     Edge 56, Type (0, 1), BuildingBlock: UVAHIK_clean_linker_0, # of connection points: 2
#     Edge 57, Type (0, 1), BuildingBlock: UVAHIK_clean_linker_0, # of connection points: 2
#     Edge 58, Type (0, 1), BuildingBlock: UVAHIK_clean_linker_0, # of connection points: 2
#     Edge 59, Type (0, 1), BuildingBlock: UVAHIK_clean_linker_0, # of connection points: 2
#     Edge 60, Type (0, 1), BuildingBlock: UVAHIK_clean_linker_0, # of connection points: 2
#     Edge 61, Type (0, 1), BuildingBlock: UVAHIK_clean_linker_0, # of connection points: 2
#     Edge 62, Type (0, 1), BuildingBlock: UVAHIK_clean_linker_0, # of connection points: 2
#     Edge 63, Type (0, 1), BuildingBlock: UVAHIK_clean_linker_0, # of connection points: 2
#     Edge 64, Type (0, 1), BuildingBlock: UVAHIK_clean_linker_0, # of connection points: 2
#     Edge 65, Type (0, 1), BuildingBlock: UVAHIK_clean_linker_0, # of connection points: 2
#     Edge 66, Type (0, 1), BuildingBlock: UVAHIK_clean_linker_0, # of connection points: 2
#     Edge 67, Type (0, 1), BuildingBlock: UVAHIK_clean_linker_0, # of connection points: 2
#     Edge 68, Type (0, 1), BuildingBlock: UVAHIK_clean_linker_0, # of connection points: 2
#     Edge 69, Type (0, 1), BuildingBlock: UVAHIK_clean_linker_0, # of connection points: 2
#     Edge 70, Type (0, 1), BuildingBlock: UVAHIK_clean_linker_0, # of connection points: 2
#     Edge 71, Type (0, 1), BuildingBlock: UVAHIK_clean_linker_0, # of connection points: 2
#     Edge 72, Type (0, 1), BuildingBlock: UVAHIK_clean_linker_0, # of connection points: 2
#     Edge 73, Type (0, 1), BuildingBlock: UVAHIK_clean_linker_0, # of connection points: 2
#     Edge 74, Type (0, 1), BuildingBlock: UVAHIK_clean_linker_0, # of connection points: 2
#     Edge 75, Type (0, 1), BuildingBlock: UVAHIK_clean_linker_0, # of connection points: 2
#     Edge 76, Type (0, 1), BuildingBlock: UVAHIK_clean_linker_0, # of connection points: 2
#     Edge 77, Type (0, 1), BuildingBlock: UVAHIK_clean_linker_0, # of connection points: 2
#     Edge 78, Type (0, 1), BuildingBlock: UVAHIK_clean_linker_0, # of connection points: 2
#     Edge 79, Type (0, 1), BuildingBlock: UVAHIK_clean_linker_0, # of connection points: 2
#     Edge 80, Type (0, 1), BuildingBlock: UVAHIK_clean_linker_0, # of connection points: 2
#     Edge 81, Type (0, 1), BuildingBlock: UVAHIK_clean_linker_0, # of connection points: 2
#     Edge 82, Type (0, 1), BuildingBlock: UVAHIK_clean_linker_0, # of connection points: 2
#     Edge 83, Type (0, 1), BuildingBlock: UVAHIK_clean_linker_0, # of connection points: 2
#     Edge 84, Type (0, 1), BuildingBlock: UVAHIK_clean_linker_0, # of connection points: 2
#     Edge 85, Type (0, 1), BuildingBlock: UVAHIK_clean_linker_0, # of connection points: 2
#     Edge 86, Type (0, 1), BuildingBlock: UVAHIK_clean_linker_0, # of connection points: 2
#     Edge 87, Type (0, 1), BuildingBlock: UVAHIK_clean_linker_0, # of connection points: 2
#     Edge 88, Type (0, 1), BuildingBlock: UVAHIK_clean_linker_0, # of connection points: 2
#     Edge 89, Type (0, 1), BuildingBlock: UVAHIK_clean_linker_0, # of connection points: 2
#     Edge 90, Type (0, 1), BuildingBlock: UVAHIK_clean_linker_0, # of connection points: 2
#     Edge 91, Type (0, 1), BuildingBlock: UVAHIK_clean_linker_0, # of connection points: 2
#     Edge 92, Type (0, 1), BuildingBlock: UVAHIK_clean_linker_0, # of connection points: 2
#     Edge 93, Type (0, 1), BuildingBlock: UVAHIK_clean_linker_0, # of connection points: 2
#     Edge 94, Type (0, 1), BuildingBlock: UVAHIK_clean_linker_0, # of connection points: 2
#     Edge 95, Type (0, 1), BuildingBlock: UVAHIK_clean_linker_0, # of connection points: 2
#     Edge 96, Type (0, 1), BuildingBlock: UVAHIK_clean_linker_0, # of connection points: 2
#     Edge 97, Type (0, 1), BuildingBlock: UVAHIK_clean_linker_0, # of connection points: 2
#     Edge 98, Type (0, 1), BuildingBlock: UVAHIK_clean_linker_0, # of connection points: 2
#     Edge 99, Type (0, 1), BuildingBlock: UVAHIK_clean_linker_0, # of connection points: 2
#     Edge 100, Type (0, 1), BuildingBlock: UVAHIK_clean_linker_0, # of connection points: 2
#     Edge 101, Type (0, 1), BuildingBlock: UVAHIK_clean_linker_0, # of connection points: 2
# Relax obj value: 0.160
# Max RMSD: 0.188
# Mean RMSD: 0.174
data_MOF--net-cor--node1-NAHDIM_clean_sbu_0--node2-MIDCAF_clean_sbu_0--edge1-UVAHIK_clean_linker_0
_symmetry_space_group_name_H-M    P1
_symmetry_Int_Tables_number       1
_symmetry_cell_setting            triclinic
loop_
_symmetry_equiv_pos_as_xyz
'x, y, z'
_cell_length_a     49.632325
_cell_length_b     49.212961
_cell_length_c     126.99087
_cell_angle_alpha  91.307402
_cell_angle_beta   89.318827
_cell_angle_gamma 121.10007
loop_
_atom_site_label
_atom_site_type_symbol
_atom_site_fract_x
_atom_site_fract_y
_atom_site_fract_z
_atom_type_partial_charge
C0 C 0.71953 0.05461 0.24093 0.0
O1 O 0.70716 0.02974 0.23452 0.0
O2 O 0.68902 0.9755 0.25447 0.0
Zn3 Zn 0.73226 0.01319 0.25152 0.0
O4 O 0.75278 0.01011 0.23807 0.0
C5 C 0.75485 0.99145 0.26758 0.0
O6 O 0.73693 0.96498 0.26223 0.0
O7 O 0.73068 0.05289 0.24969 0.0
C8 C 0.75639 0.98886 0.23359 0.0
O9 O 0.74538 0.96124 0.23803 0.0
C10 C 0.6728 0.95038 0.24894 0.0
O11 O 0.68251 0.94824 0.23947 0.0
O12 O 0.75827 0.01722 0.26422 0.0
C13 C 0.07573 0.73869 0.25651 0.0
O14 O 0.04765 0.71447 0.25865 0.0
O15 O 0.00115 0.72128 0.24671 0.0
Zn16 Zn 0.03939 0.7647 0.24931 0.0
O17 O 0.03453 0.78532 0.26252 0.0
C18 C 0.03952 0.77392 0.22755 0.0
O19 O 0.03436 0.74492 0.22775 0.0
O20 O 0.07804 0.76239 0.25186 0.0
C21 C 0.02356 0.80356 0.26338 0.0
O22 O 0.01293 0.81009 0.25497 0.0
C23 C 0.97375 0.71717 0.24751 0.0
O24 O 0.97052 0.74052 0.25115 0.0
O25 O 0.04426 0.78932 0.2362 0.0
C26 C 0.34949 0.29331 0.24798 0.0
O27 O 0.33375 0.30074 0.24158 0.0
O28 O 0.29611 0.31658 0.2621 0.0
Zn29 Zn 0.29488 0.2754 0.25976 0.0
O30 O 0.27007 0.25246 0.24669 0.0
C31 C 0.28885 0.26755 0.28154 0.0
O32 O 0.3128 0.29675 0.28075 0.0
O33 O 0.33817 0.28299 0.25705 0.0
C34 C 0.24102 0.23211 0.24551 0.0
O35 O 0.22215 0.22336 0.25371 0.0
C36 C 0.27079 0.31699 0.26148 0.0
O37 O 0.24502 0.29138 0.25818 0.0
O38 O 0.27677 0.2512 0.27314 0.0
C39 C 0.3052 0.98897 0.77471 0.0
O40 O 0.29492 0.00335 0.78094 0.0
O41 O 0.36109 0.06358 0.75407 0.0
Zn42 Zn 0.31736 0.03894 0.76002 0.0
O43 O 0.30916 0.06129 0.77215 0.0
C44 C 0.29642 0.05241 0.74114 0.0
O45 O 0.3235 0.07893 0.74255 0.0
O46 O 0.31377 0.99881 0.76538 0.0
C47 C 0.30908 0.08704 0.77172 0.0
O48 O 0.31626 0.10234 0.76281 0.0
C49 C 0.38436 0.09036 0.75682 0.0
O50 O 0.38158 0.10608 0.76484 0.0
O51 O 0.28759 0.03051 0.74785 0.0
C52 C 0.96926 0.32659 0.75304 0.0
O53 O 0.98557 0.34163 0.76151 0.0
O54 O 0.03864 0.32789 0.76057 0.0
Zn55 Zn -0.00013 0.28946 0.75452 0.0
O56 O 0.01045 0.27019 0.74198 0.0
C57 C 0.97863 0.26545 0.77543 0.0
O58 O 0.99112 0.29579 0.77771 0.0
O59 O 0.97062 0.30315 0.74931 0.0
C60 C 0.00707 0.27698 0.73266 0.0
O61 O -0.00153 0.29781 0.73131 0.0
C62 C 0.05255 0.35375 0.75559 0.0
O63 O 0.04271 0.3545 0.7461 0.0
O64 O 0.97904 0.2569 0.76593 0.0
C65 C 0.69869 0.72281 0.77074 0.0
O66 O 0.71884 0.72416 0.77766 0.0
O67 O 0.72224 0.67086 0.75168 0.0
Zn68 Zn 0.74039 0.71638 0.75618 0.0
O69 O 0.77096 0.72825 0.76832 0.0
C70 C 0.77598 0.7318 0.73721 0.0
O71 O 0.77634 0.70648 0.74004 0.0
O72 O 0.70375 0.72096 0.76097 0.0
C73 C 0.80056 0.74052 0.76754 0.0
O74 O 0.81352 0.74569 0.75816 0.0
C75 C 0.69592 0.64759 0.75455 0.0
O76 O 0.6793 0.65199 0.76177 0.0
O77 O 0.76213 0.7421 0.74314 0.0
C78 C 0.38318 0.38878 0.58769 0.0
O79 O 0.38016 0.36688 0.58087 0.0
O80 O 0.37585 0.31933 0.60398 0.0
Zn81 Zn 0.41195 0.36187 0.59933 0.0
O82 O 0.43325 0.35997 0.58584 0.0
C83 C 0.43384 0.37869 0.62058 0.0
O84 O 0.40346 0.36473 0.62238 0.0
O85 O 0.39565 0.39091 0.59659 0.0
C86 C 0.4575 0.35749 0.58533 0.0
O87 O 0.469 0.35346 0.59402 0.0
C88 C 0.3725 0.29234 0.60195 0.0
O89 O 0.39312 0.29046 0.59588 0.0
O90 O 0.44346 0.38067 0.61114 0.0
C91 C 0.75964 0.09053 0.5957 0.0
O92 O 0.73245 0.07927 0.60051 0.0
O93 O 0.69338 0.05933 0.57443 0.0
Zn94 Zn 0.72568 0.10237 0.58042 0.0
O95 O 0.70481 0.11242 0.59238 0.0
C96 C 0.73722 0.12737 0.55933 0.0
O97 O 0.72815 0.09784 0.55679 0.0
O98 O 0.76284 0.10162 0.5865 0.0
C99 C 0.71213 0.14058 0.59481 0.0
O100 O 0.73364 0.16418 0.58925 0.0
C101 C 0.66637 0.05521 0.57259 0.0
O102 O 0.66157 0.07869 0.5746 0.0
O103 O 0.73898 0.13528 0.56902 0.0
C104 C 0.00476 0.6387 0.5734 0.0
O105 O 0.99232 0.65641 0.57224 0.0
O106 O 0.95145 0.64196 0.59313 0.0
Zn107 Zn 0.95129 0.60326 0.58725 0.0
O108 O 0.91591 0.57799 0.57688 0.0
C109 C 0.95822 0.58733 0.60838 0.0
O110 O 0.97545 0.61834 0.60953 0.0
O111 O 0.9918 0.61547 0.57964 0.0
C112 C 0.88822 0.55702 0.57965 0.0
O113 O 0.88145 0.55252 0.58973 0.0
C114 C 0.93413 0.6521 0.58991 0.0
O115 O 0.91514 0.63764 0.58191 0.0
O116 O 0.94602 0.57539 0.59945 0.0
C117 C 0.93962 0.28034 0.08923 0.0
O118 O 0.94522 0.30472 0.09528 0.0
O119 O 0.96899 0.35179 0.06844 0.0
Zn120 Zn 0.92796 0.31559 0.07417 0.0
O121 O 0.91046 0.32943 0.08625 0.0
C122 C 0.90495 0.29345 0.05319 0.0
O123 O 0.93336 0.29809 0.05202 0.0
O124 O 0.93284 0.28009 0.07958 0.0
C125 C 0.88166 0.31041 0.08845 0.0
O126 O 0.8653 0.28495 0.08247 0.0
C127 C 0.99627 0.35809 0.07112 0.0
O128 O -0.00102 0.34139 0.0785 0.0
O129 O 0.89681 0.29884 0.06216 0.0
C130 C 0.63707 0.65775 0.07806 0.0
O131 O 0.66716 0.67874 0.07693 0.0
O132 O 0.70331 0.66088 0.08959 0.0
Zn133 Zn 0.66256 0.62122 0.0857 0.0
O134 O 0.66649 0.59797 0.07299 0.0
C135 C 0.67045 0.58136 0.09874 0.0
O136 O 0.69091 0.58761 0.09113 0.0
O137 O 0.62899 0.63144 0.08233 0.0
C138 C 0.66274 0.60277 0.06347 0.0
O139 O 0.65786 0.62585 0.0613 0.0
C140 C 0.73048 0.66848 0.08622 0.0
O141 O 0.73329 0.65095 0.07885 0.0
O142 O 0.65267 0.59287 0.0983 0.0
C143 C 0.35973 0.08069 0.0959 0.0
O144 O 0.37168 0.06577 0.10061 0.0
O145 O 0.39451 0.04587 0.07764 0.0
Zn146 Zn 0.40902 0.09059 0.08279 0.0
O147 O 0.43649 0.10499 0.09584 0.0
C148 C 0.46044 0.12186 0.06913 0.0
O149 O 0.46779 0.10426 0.07461 0.0
O150 O 0.37122 0.09349 0.08709 0.0
C151 C 0.44612 0.13395 0.09803 0.0
O152 O 0.43905 0.14981 0.09156 0.0
C153 C 0.40766 0.03039 0.07986 0.0
O154 O 0.43152 0.04301 0.08644 0.0
O155 O 0.43454 0.12045 0.07109 0.0
C156 C 0.06037 0.743 0.9107 0.0
O157 O 0.04164 0.7247 0.91816 0.0
O158 O 0.05626 0.67381 0.92025 0.0
Zn159 Zn 0.09547 0.71138 0.91455 0.0
O160 O 0.11125 0.69624 0.9024 0.0
C161 C 0.1174 0.73149 0.93567 0.0
O162 O 0.08724 0.72053 0.93705 0.0
O163 O 0.08489 0.74213 0.90835 0.0
C164 C 0.112 0.67081 0.90229 0.0
O165 O 0.10416 0.6537 0.91082 0.0
C166 C 0.03558 0.65263 0.91418 0.0
O167 O 0.03971 0.65558 0.90394 0.0
O168 O 0.1274 0.73119 0.92641 0.0
C169 C 0.39125 0.41627 0.9326 0.0
O170 O 0.3698 0.41465 0.93915 0.0
O171 O 0.32214 0.38328 0.90967 0.0
Zn172 Zn 0.35389 0.42437 0.9169 0.0
O173 O 0.33389 0.43585 0.9288 0.0
C174 C 0.3778 0.45073 0.89674 0.0
O175 O 0.3716 0.42163 0.895 0.0
O176 O 0.389 0.4201 0.92284 0.0
C177 C 0.30566 0.42969 0.92891 0.0
O178 O 0.28766 0.41571 0.92065 0.0
C179 C 0.31624 0.35624 0.91262 0.0
O180 O 0.33001 0.35435 0.92111 0.0
O181 O 0.37227 0.45828 0.90582 0.0
C182 C 0.69571 0.98702 0.91504 0.0
O183 O 0.6945 0.0085 0.92101 0.0
O184 O 0.63238 0.98582 0.92859 0.0
Zn185 Zn 0.62948 0.94817 0.92073 0.0
O186 O 0.59836 0.935 0.90879 0.0
C187 C 0.62576 0.91397 0.93974 0.0
O188 O 0.65193 0.94031 0.94231 0.0
O189 O 0.67136 0.95942 0.91416 0.0
C190 C 0.57083 0.93025 0.91011 0.0
O191 O 0.56192 0.93346 0.91961 0.0
C192 C 0.62724 0.00513 0.92382 0.0
O193 O 0.62125 0.00103 0.91367 0.0
O194 O 0.61314 0.91183 0.93085 0.0
C195 C 0.62913 0.65926 0.43797 0.0
O196 O 0.63975 0.68441 0.4442 0.0
O197 O 0.66519 0.73303 0.41938 0.0
Zn198 Zn 0.62163 0.70035 0.42424 0.0
O199 O 0.60859 0.71768 0.43657 0.0
C200 C 0.59652 0.71775 0.40784 0.0
O201 O 0.61375 0.74479 0.41297 0.0
O202 O 0.62004 0.66029 0.42873 0.0
C203 C 0.57993 0.70857 0.43834 0.0
O204 O 0.55827 0.68779 0.43185 0.0
C205 C 0.67907 0.76171 0.42266 0.0
O206 O 0.66651 0.76963 0.43039 0.0
O207 O 0.59416 0.69276 0.41152 0.0
C208 C 0.27276 0.93508 0.40416 0.0
O209 O 0.29706 0.9421 0.39812 0.0
O210 O 0.34616 0.96288 0.42293 0.0
Zn211 Zn 0.30935 0.92143 0.41748 0.0
O212 O 0.31986 0.90482 0.40435 0.0
C213 C 0.3196 0.88226 0.43007 0.0
O214 O 0.3444 0.89539 0.42389 0.0
O215 O 0.27235 0.92601 0.41351 0.0
C216 C 0.34318 0.91917 0.39815 0.0
O217 O 0.36584 0.94821 0.40049 0.0
C218 C 0.35859 0.98967 0.41854 0.0
O219 O 0.34744 0.99207 0.40951 0.0
O220 O 0.2986 0.88941 0.42889 0.0
C221 C 0.00926 0.40835 0.43207 0.0
O222 O 0.02674 0.40025 0.43724 0.0
O223 O 0.06305 0.39143 0.41598 0.0
Zn224 Zn 0.06241 0.43163 0.41887 0.0
O225 O 0.09115 0.45788 0.43084 0.0
C226 C 0.06774 0.43898 0.39669 0.0
O227 O 0.0464 0.40863 0.39725 0.0
O228 O 0.01898 0.42175 0.42323 0.0
C229 C 0.11577 0.45849 0.43386 0.0
O230 O 0.12556 0.44185 0.42864 0.0
C231 C 0.06736 0.37329 0.42177 0.0
O232 O 0.07147 0.37906 0.43196 0.0
O233 O 0.07716 0.45551 0.40519 0.0
Zn234 Zn 0.01809 0.01101 0.12347 0.0
Zn235 Zn 0.00293 0.00539 0.16465 0.0
Zn236 Zn 0.01173 0.01005 0.14437 0.0
C237 C 0.98575 0.94551 0.15791 0.0
C238 C 0.06704 0.04707 0.16146 0.0
O239 O 0.9847 0.03026 0.13792 0.0
O240 O 0.99106 0.02876 0.12068 0.0
C241 C 0.98941 0.94794 0.12895 0.0
O242 O 0.99511 0.96069 0.1492 0.0
O243 O 0.98457 0.95944 0.16621 0.0
O244 O 0.04739 0.03304 0.16872 0.0
O245 O 0.05824 0.04205 0.15175 0.0
O246 O 0.00012 0.9649 0.12089 0.0
O247 O 0.99238 0.96105 0.13812 0.0
O248 O 0.06252 0.0409 0.1408 0.0
O249 O 0.06433 0.04002 0.12338 0.0
C250 C 0.07831 0.04945 0.13213 0.0
O251 O 0.97741 0.02485 0.14867 0.0
O252 O 0.97482 0.02223 0.16606 0.0
C253 C 0.97962 0.03572 0.12849 0.0
C254 C 0.96638 0.02818 0.15753 0.0
Zn255 Zn 0.01602 0.04934 0.34121 0.0
Zn256 Zn 0.01289 0.03117 0.38194 0.0
Zn257 Zn 0.01348 0.0369 0.36119 0.0
C258 C 0.04816 0.09536 0.37856 0.0
C259 C 0.9506 0.00586 0.37546 0.0
O260 O 0.02969 0.00749 0.35336 0.0
O261 O 0.03037 0.01998 0.33668 0.0
C262 C 0.05911 0.10569 0.35002 0.0
O263 O 0.04097 0.08451 0.36901 0.0
O264 O 0.03972 0.07639 0.3861 0.0
O265 O 0.96689 0.01154 0.38367 0.0
O266 O 0.96392 0.01375 0.36636 0.0
O267 O 0.04712 0.09475 0.34109 0.0
O268 O 0.04896 0.08779 0.35815 0.0
O269 O 0.96483 0.02067 0.35566 0.0
O270 O 0.97186 0.03626 0.33912 0.0
C271 C 0.95388 0.02344 0.34686 0.0
O272 O 0.03261 0.00605 0.36434 0.0
O273 O 0.0307 0.00325 0.38173 0.0
C274 C 0.03445 0.00426 0.34354 0.0
C275 C 0.03757 0.99586 0.37293 0.0
Zn276 Zn 0.01875 0.02581 0.87133 0.0
Zn277 Zn 0.021 0.0268 0.82989 0.0
Zn278 Zn 0.01951 0.02594 0.85038 0.0
C279 C 0.97814 0.04435 0.83578 0.0
C280 C 0.00162 0.96503 0.83518 0.0
O281 O 0.00649 0.97786 0.85549 0.0
O282 O 0.00415 0.98023 0.87287 0.0
C283 C 0.07995 0.07047 0.8654 0.0
O284 O 0.98751 0.04199 0.84496 0.0
O285 O 0.98809 0.03717 0.82763 0.0
O286 O 0.01 0.98253 0.82723 0.0
O287 O 0.00315 0.97698 0.84445 0.0
O288 O 0.06397 0.05744 0.87354 0.0
O289 O 0.06721 0.06172 0.8562 0.0
O290 O 0.98416 0.03789 0.85593 0.0
O291 O 0.98807 0.03979 0.87332 0.0
C292 C 0.97554 0.04236 0.86511 0.0
O293 O 0.06877 0.0591 0.84518 0.0
O294 O 0.06523 0.06086 0.82789 0.0
C295 C 0.00165 0.96466 0.86453 0.0
C296 C 0.08166 0.0699 0.83616 0.0
Zn297 Zn 0.00999 0.00144 0.66963 0.0
Zn298 Zn 0.02513 0.00778 0.62988 0.0
Zn299 Zn 0.01929 0.00472 0.65062 0.0
C300 C 0.98757 0.94363 0.63453 0.0
C301 C 0.08592 0.03483 0.63848 0.0
O302 O 0.00463 0.03897 0.65567 0.0
O303 O 0.01133 0.04124 0.67291 0.0
C304 C 0.96393 0.94456 0.66241 0.0
O305 O 0.99226 0.9554 0.64398 0.0
O306 O -0.00096 0.96166 0.62674 0.0
O307 O 0.07167 0.02828 0.62977 0.0
O308 O 0.07039 0.0274 0.64721 0.0
O309 O 0.9681 0.96313 0.67003 0.0
O310 O 0.98321 0.95439 0.65456 0.0
O311 O 0.06518 0.0186 0.65789 0.0
O312 O 0.04641 0.99746 0.67338 0.0
C313 C 0.069 0.00978 0.66694 0.0
O314 O 0.00037 0.03398 0.64483 0.0
O315 O 0.00621 0.03419 0.62753 0.0
C316 C 0.00551 0.05152 0.66478 0.0
C317 C 0.99669 0.04218 0.63562 0.0
Zn318 Zn 0.62066 0.2933 0.48837 0.0
Zn319 Zn 0.66061 0.34475 0.45884 0.0
Zn320 Zn 0.65091 0.33491 0.47719 0.0
C321 C 0.71963 0.36601 0.46909 0.0
C322 C 0.61644 0.28011 0.46034 0.0
O323 O 0.62728 0.35674 0.48535 0.0
O324 O 0.60846 0.32014 0.49756 0.0
C325 C 0.67391 0.34588 0.49962 0.0
O326 O 0.70187 0.3533 0.47718 0.0
O327 O 0.70737 0.36569 0.46037 0.0
O328 O 0.63418 0.29976 0.45353 0.0
O329 O 0.61851 0.28926 0.46993 0.0
O330 O 0.64538 0.32453 0.50143 0.0
O331 O 0.68399 0.34923 0.49007 0.0
O332 O 0.68585 0.32274 0.48338 0.0
O333 O 0.64842 0.27406 0.48738 0.0
C334 C 0.6774 0.29406 0.48598 0.0
O335 O 0.64137 0.3735 0.47511 0.0
O336 O 0.64332 0.37319 0.45777 0.0
C337 C 0.61099 0.34506 0.49373 0.0
C338 C 0.6384 0.38385 0.46626 0.0
Zn339 Zn 0.69142 0.34468 0.71011 0.0
Zn340 Zn 0.68716 0.35057 0.66963 0.0
Zn341 Zn 0.6898 0.34719 0.68968 0.0
C342 C 0.66298 0.3857 0.67725 0.0
C343 C 0.75 0.37463 0.67425 0.0
O344 O 0.73956 0.36886 0.69463 0.0
O345 O 0.73743 0.37164 0.712 0.0
C346 C 0.65829 0.28243 0.7029 0.0
O347 O 0.66639 0.37406 0.68578 0.0
O348 O 0.67312 0.38124 0.66863 0.0
O349 O 0.73173 0.36545 0.66642 0.0
O350 O 0.73877 0.37097 0.68365 0.0
O351 O 0.67167 0.2981 0.71118 0.0
O352 O 0.66171 0.29689 0.69421 0.0
O353 O 0.66913 0.37374 0.6968 0.0
O354 O 0.66553 0.36347 0.7138 0.0
C355 C 0.66073 0.37655 0.70622 0.0
O356 O 0.66303 0.29809 0.68308 0.0
O357 O 0.65577 0.3055 0.66651 0.0
C358 C 0.75337 0.37732 0.70366 0.0
C359 C 0.65116 0.28689 0.6739 0.0
Zn360 Zn 0.70015 0.36208 0.21523 0.0
Zn361 Zn 0.681 0.35042 0.15915 0.0
Zn362 Zn 0.69415 0.35824 0.19558 0.0
C363 C 0.706 0.40202 0.17824 0.0
C364 C 0.64134 0.32542 0.18065 0.0
O365 O 0.72215 0.33623 0.19853 0.0
O366 O 0.7271 0.34293 0.21581 0.0
C367 C 0.72579 0.42431 0.20799 0.0
O368 O 0.70989 0.40452 0.18824 0.0
O369 O 0.69568 0.37439 0.17415 0.0
O370 O 0.66627 0.34181 0.17521 0.0
O371 O 0.64473 0.32736 0.19066 0.0
O372 O 0.71984 0.40905 0.21641 0.0
O373 O 0.71816 0.40954 0.19903 0.0
O374 O 0.64569 0.33085 0.20163 0.0
O375 O 0.65458 0.33494 0.21875 0.0
C376 C 0.6354 0.32472 0.21115 0.0
O377 O 0.72041 0.33868 0.1875 0.0
O378 O 0.6981 0.34522 0.17394 0.0
C379 C 0.73238 0.33252 0.20732 0.0
C380 C 0.71648 0.33659 0.17751 0.0
Zn381 Zn 0.73364 0.39083 0.98275 0.0
Zn382 Zn 0.6835 0.34941 0.95236 0.0
Zn383 Zn 0.69399 0.36148 0.97063 0.0
C384 C 0.65987 0.29081 0.96293 0.0
C385 C 0.7484 0.39296 0.95452 0.0
O386 O 0.67256 0.38562 0.97862 0.0
O387 O 0.70342 0.39709 0.99241 0.0
C388 C 0.68115 0.33399 0.99245 0.0
O389 O 0.67427 0.30973 0.9708 0.0
O390 O 0.65986 0.30218 0.9541 0.0
O391 O 0.72894 0.37376 0.94776 0.0
O392 O 0.73915 0.3932 0.9639 0.0
O393 O 0.70158 0.36268 0.99498 0.0
O394 O 0.67877 0.32547 0.98267 0.0
O395 O 0.70599 0.326 0.97602 0.0
O396 O 0.75385 0.36398 0.98058 0.0
C397 C 0.73466 0.33492 0.97847 0.0
O398 O 0.6571 0.37237 0.9682 0.0
O399 O 0.65744 0.36928 0.95088 0.0
C400 C 0.68064 0.39731 0.98795 0.0
C401 C 0.6473 0.37538 0.95924 0.0
Zn402 Zn 0.3478 0.68271 0.8373 0.0
Zn403 Zn 0.35675 0.69473 0.7968 0.0
Zn404 Zn 0.35294 0.68828 0.81743 0.0
C405 C 0.40134 0.67919 0.80259 0.0
C406 C 0.29579 0.64565 0.80108 0.0
O407 O 0.30296 0.65353 0.82158 0.0
O408 O 0.30452 0.64671 0.83863 0.0
C409 C 0.36649 0.74473 0.83422 0.0
O410 O 0.38993 0.67874 0.81181 0.0
O411 O 0.39057 0.68527 0.79461 0.0
O412 O 0.31306 0.66101 0.79343 0.0
O413 O 0.30655 0.65284 0.81056 0.0
O414 O 0.35549 0.72491 0.84152 0.0
O415 O 0.36799 0.73558 0.82474 0.0
O416 O 0.38496 0.67192 0.82264 0.0
O417 O 0.38186 0.6746 0.83996 0.0
C418 C 0.39334 0.66887 0.83191 0.0
O419 O 0.36491 0.73728 0.81376 0.0
O420 O 0.36742 0.73934 0.79638 0.0
C421 C 0.28894 0.64007 0.83022 0.0
C422 C 0.36896 0.7525 0.80519 0.0
Zn423 Zn 0.33198 0.67367 0.03886 0.0
Zn424 Zn 0.33624 0.68019 0.99916 0.0
Zn425 Zn 0.33435 0.67922 0.01937 0.0
C426 C 0.31813 0.72306 0.00548 0.0
C427 C 0.3965 0.69893 0.00487 0.0
O428 O 0.38052 0.68665 0.02458 0.0
O429 O 0.36705 0.66621 0.04041 0.0
C430 C 0.27979 0.61994 0.03272 0.0
O431 O 0.32018 0.71366 0.01469 0.0
O432 O 0.32533 0.71289 0.99737 0.0
O433 O 0.38025 0.69236 0.99662 0.0
O434 O 0.38355 0.69542 0.01401 0.0
O435 O 0.28994 0.63649 0.04107 0.0
O436 O 0.29444 0.63099 0.02393 0.0
O437 O 0.32844 0.71856 0.02556 0.0
O438 O 0.34039 0.71679 0.0421 0.0
C439 C 0.33557 0.73104 0.0349 0.0
O440 O 0.30014 0.6305 0.01317 0.0
O441 O 0.3033 0.63612 0.99588 0.0
C442 C 0.38674 0.67675 0.03299 0.0
C443 C 0.29158 0.61871 0.00377 0.0
Zn444 Zn 0.34197 0.69809 0.55158 0.0
Zn445 Zn 0.36418 0.66117 0.52127 0.0
Zn446 Zn 0.35357 0.68667 0.53384 0.0
C447 C 0.34342 0.69837 0.51157 0.0
C448 C 0.30174 0.6273 0.5224 0.0
O449 O 0.35107 0.64849 0.54192 0.0
O450 O 0.3437 0.6612 0.55792 0.0
C451 C 0.39867 0.75251 0.54405 0.0
O452 O 0.3282 0.69028 0.52037 0.0
O453 O 0.36436 0.69127 0.51002 0.0
O454 O 0.32251 0.61967 0.52291 0.0
O455 O 0.30977 0.65614 0.52478 0.0
O456 O 0.37994 0.74261 0.55181 0.0
O457 O 0.39355 0.73431 0.536 0.0
O458 O 0.30966 0.6852 0.53041 0.0
O459 O 0.30052 0.69264 0.54703 0.0
C460 C 0.29247 0.68833 0.53744 0.0
O461 O 0.40197 0.71562 0.52805 0.0
O462 O 0.40673 0.6737 0.52705 0.0
C463 C 0.34742 0.64284 0.55172 0.0
C464 C 0.41946 0.7036 0.52665 0.0
Zn465 Zn 0.34321 0.6635 0.29011 0.0
Zn466 Zn 0.34764 0.67263 0.3315 0.0
Zn467 Zn 0.34665 0.67027 0.3109 0.0
C468 C 0.40881 0.6935 0.32513 0.0
C469 C 0.30484 0.61076 0.32672 0.0
O470 O 0.32726 0.69869 0.30483 0.0
O471 O 0.32695 0.69192 0.28754 0.0
C472 C 0.40665 0.69125 0.29561 0.0
O473 O 0.39594 0.68784 0.31596 0.0
O474 O 0.39274 0.68926 0.33335 0.0
O475 O 0.31837 0.62784 0.33474 0.0
O476 O 0.31255 0.62263 0.31744 0.0
O477 O 0.3886 0.68021 0.28772 0.0
O478 O 0.39516 0.68935 0.30491 0.0
O479 O 0.31588 0.61947 0.30655 0.0
O480 O 0.31321 0.61725 0.28914 0.0
C481 C 0.3055 0.60341 0.29786 0.0
O482 O 0.33258 0.70444 0.31574 0.0
O483 O 0.33225 0.70237 0.33314 0.0
C484 C 0.3212 0.70396 0.2955 0.0
C485 C 0.32828 0.71355 0.32486 0.0
C486 C 0.25014 0.22343 0.22662 0.0
C487 C 0.22899 0.2184 0.23489 0.0
C488 C 0.23909 0.2102 0.21661 0.0
C489 C 0.16991 0.17779 0.19933 0.0
H490 H 0.20232 0.12832 0.1863 0.0
C491 C 0.11426 0.063 0.17216 0.0
C492 C 0.09925 0.07102 0.16462 0.0
C493 C 0.13894 0.08662 0.17816 0.0
C494 C 0.19342 0.14248 0.18976 0.0
H495 H 0.17965 0.19593 0.23906 0.0
H496 H 0.16032 0.17298 0.22152 0.0
H497 H 0.22623 0.15868 0.20255 0.0
H498 H 0.09971 0.10969 0.1567 0.0
H499 H 0.14285 0.15137 0.16736 0.0
H500 H 0.13625 0.16057 0.18681 0.0
C501 C 0.18548 0.18726 0.22281 0.0
C502 C 0.20708 0.15986 0.19904 0.0
C503 C 0.19653 0.2002 0.23288 0.0
C504 C 0.11124 0.10307 0.16242 0.0
C505 C 0.13564 0.12681 0.16858 0.0
C506 C 0.15648 0.16072 0.18999 0.0
C507 C 0.20665 0.19198 0.2146 0.0
C508 C 0.1948 0.17688 0.20409 0.0
C509 C 0.1486 0.11867 0.17686 0.0
C510 C 0.16747 0.1421 0.18528 0.0
H511 H 0.27533 0.23735 0.2279 0.0
H512 H 0.25592 0.21433 0.21042 0.0
H513 H 0.16024 0.19102 0.20298 0.0
H514 H 0.10514 0.03836 0.17403 0.0
H515 H 0.14829 0.07955 0.1845 0.0
C516 C 0.77269 0.97177 0.21709 0.0
C517 C 0.77335 0.99594 0.2234 0.0
C518 C 0.78921 0.97902 0.20754 0.0
C519 C 0.85908 0.04243 0.19538 0.0
H520 H 0.82513 0.9956 0.16914 0.0
C521 C 0.94444 0.06166 0.16259 0.0
C522 C 0.93987 0.03335 0.15808 0.0
C523 C 0.91961 0.06214 0.16773 0.0
C524 C 0.8351 0.00888 0.1764 0.0
H525 H 0.79147 0.04662 0.22454 0.0
H526 H 0.8208 0.05918 0.20806 0.0
H527 H 0.79048 0.98443 0.18434 0.0
H528 H 0.90563 0.98423 0.15448 0.0
H529 H 0.86274 0.98438 0.16374 0.0
H530 H 0.9039 0.06528 0.18795 0.0
C531 C 0.80733 0.03467 0.21046 0.0
C532 C 0.81517 0.00246 0.18509 0.0
C533 C 0.79052 0.0274 0.21989 0.0
C534 C 0.90949 0.0065 0.15776 0.0
C535 C 0.88486 0.00665 0.16315 0.0
C536 C 0.87907 0.04841 0.1868 0.0
C537 C 0.80703 0.01061 0.20422 0.0
C538 C 0.82713 0.01884 0.1947 0.0
C539 C 0.89017 0.03392 0.16883 0.0
C540 C 0.86758 0.0313 0.17722 0.0
H541 H 0.75954 0.9473 0.21953 0.0
H542 H 0.78886 0.96008 0.20291 0.0
H543 H 0.86898 0.05522 0.20273 0.0
H544 H 0.96782 0.08259 0.16299 0.0
H545 H 0.92434 0.08398 0.17162 0.0
C546 C 0.04589 0.81898 0.21677 0.0
C547 C 0.0365 0.78684 0.21752 0.0
C548 C 0.04086 0.83042 0.20747 0.0
C549 C 0.98712 0.80512 0.18537 0.0
H550 H 0.04912 0.8865 0.17397 0.0
C551 C 0.96132 0.8935 0.16667 0.0
C552 C 0.98182 0.91392 0.15895 0.0
C553 C 0.96523 0.86948 0.17056 0.0
C554 C 0.03171 0.86339 0.17688 0.0
H555 H 0.01496 0.74161 0.20904 0.0
H556 H 0.00569 0.76159 0.1929 0.0
H557 H 0.06436 0.86323 0.18773 0.0
H558 H 0.02005 0.92313 0.14837 0.0
H559 H 0.02731 0.88134 0.15534 0.0
H560 H 0.95401 0.80624 0.17495 0.0
C561 C 0.0171 0.77789 0.19948 0.0
C562 C 0.04038 0.85029 0.18485 0.0
C563 C 0.02255 0.76654 0.20871 0.0
C564 C 0.0039 0.90762 0.15432 0.0
C565 C 0.00823 0.88392 0.15836 0.0
C566 C 0.97833 0.81844 0.17749 0.0
C567 C 0.02595 0.80986 0.1988 0.0
C568 C 0.01797 0.82148 0.18937 0.0
C569 C 0.99004 0.86584 0.16692 0.0
C570 C 0.00035 0.84813 0.17338 0.0
H571 H 0.05669 0.83518 0.22341 0.0
H572 H 0.04763 0.85514 0.2072 0.0
H573 H 0.96934 0.7829 0.18875 0.0
H574 H 0.94406 0.89788 0.17034 0.0
H575 H 0.95087 0.85598 0.17716 0.0
C576 C 0.28299 0.27657 0.30068 0.0
C577 C 0.27415 0.25562 0.29194 0.0
C578 C 0.26706 0.26636 0.31027 0.0
C579 C 0.21387 0.19521 0.32549 0.0
H580 H 0.17875 0.24472 0.33634 0.0
C581 C 0.09191 0.1603 0.34345 0.0
C582 C 0.08838 0.13688 0.35038 0.0
C583 C 0.1218 0.1838 0.34019 0.0
C584 C 0.18887 0.23096 0.33354 0.0
H585 H 0.24258 0.2072 0.28653 0.0
H586 H 0.21496 0.18928 0.30331 0.0
H587 H 0.21799 0.26586 0.32227 0.0
H588 H 0.11304 0.12198 0.36048 0.0
H589 H 0.16554 0.16298 0.35468 0.0
H590 H 0.1835 0.15952 0.33629 0.0
C591 C 0.23425 0.21361 0.30274 0.0
C592 C 0.21136 0.24305 0.3255 0.0
C593 C 0.24992 0.22391 0.29311 0.0
C594 C 0.1152 0.13984 0.35512 0.0
C595 C 0.14521 0.16309 0.35173 0.0
C596 C 0.19166 0.18327 0.33358 0.0
C597 C 0.24227 0.23489 0.31135 0.0
C598 C 0.2231 0.22472 0.32111 0.0
C599 C 0.14861 0.18393 0.34371 0.0
C600 C 0.17796 0.20045 0.3374 0.0
H601 H 0.30157 0.30118 0.30005 0.0
H602 H 0.27383 0.2832 0.31679 0.0
H603 H 0.22283 0.18076 0.32233 0.0
H604 H 0.0715 0.15848 0.33972 0.0
H605 H 0.12356 0.19947 0.33402 0.0
C606 C 0.76464 0.96173 0.28125 0.0
C607 C 0.76899 0.99057 0.27768 0.0
C608 C 0.77719 0.96041 0.29087 0.0
C609 C 0.80923 0.00381 0.31619 0.0
H610 H 0.85489 0.95943 0.31611 0.0
C611 C 0.91223 0.03508 0.34353 0.0
C612 C 0.92052 0.01236 0.34537 0.0
C613 C 0.88501 0.02686 0.33789 0.0
C614 C 0.84154 0.97121 0.31643 0.0
H615 H 0.7897 0.04064 0.2815 0.0
H616 H 0.81203 0.03842 0.29827 0.0
H617 H 0.82559 0.9568 0.30059 0.0
H618 H 0.90599 0.96286 0.34358 0.0
H619 H 0.85753 0.94793 0.3341 0.0
H620 H 0.82605 0.019 0.33195 0.0
C621 C 0.79852 0.01673 0.29367 0.0
C622 C 0.82486 0.96985 0.30746 0.0
C623 C 0.78601 0.01807 0.284 0.0
C624 C 0.89964 0.98061 0.34246 0.0
C625 C 0.87224 0.97226 0.33685 0.0
C626 C 0.82583 0.00504 0.3252 0.0
C627 C 0.79435 0.98789 0.29718 0.0
C628 C 0.80919 0.98679 0.30714 0.0
C629 C 0.8657 0.99572 0.33392 0.0
C630 C 0.84291 0.98946 0.32533 0.0
H631 H 0.75146 0.94003 0.27661 0.0
H632 H 0.77333 0.93779 0.2934 0.0
H633 H 0.79689 0.01664 0.31624 0.0
H634 H 0.92841 0.05985 0.34553 0.0
H635 H 0.88098 0.04565 0.33575 0.0
C636 C 0.0079 0.83439 0.27533 0.0
C637 C 0.02421 0.81831 0.27374 0.0
C638 C 0.00956 0.84924 0.28503 0.0
C639 C 0.00524 0.86472 0.30824 0.0
H640 H 0.08909 0.924 0.31884 0.0
C641 C 0.02371 0.94881 0.34308 0.0
C642 C 0.04189 0.98035 0.33981 0.0
C643 C 0.0243 0.92453 0.3373 0.0
C644 C 0.06552 0.90716 0.31607 0.0
H645 H 0.05476 0.80487 0.28114 0.0
H646 H 0.05803 0.83131 0.29799 0.0
H647 H 0.08232 0.88921 0.30375 0.0
H648 H 0.07709 0.01185 0.32872 0.0
H649 H 0.07897 0.96981 0.31887 0.0
H650 H 0.98853 0.88354 0.32029 0.0
C651 C 0.04388 0.83226 0.29174 0.0
C652 C 0.06163 0.88723 0.30746 0.0
C653 C 0.04189 0.81707 0.2821 0.0
C654 C 0.06291 0.98766 0.33138 0.0
C655 C 0.06401 0.96358 0.32577 0.0
C656 C 0.0091 0.88434 0.31694 0.0
C657 C 0.02787 0.84864 0.29329 0.0
C658 C 0.03152 0.86653 0.30326 0.0
C659 C 0.04361 0.93166 0.32834 0.0
C660 C 0.03935 0.90644 0.32073 0.0
H661 H 0.99403 0.83572 0.26907 0.0
H662 H 0.99725 0.862 0.28597 0.0
H663 H 0.98176 0.84875 0.30522 0.0
H664 H 0.00717 0.94266 0.34953 0.0
H665 H 0.00848 0.90009 0.33947 0.0
C666 C 0.85342 0.76769 0.7763 0.0
C667 C 0.82047 0.75147 0.77713 0.0
C668 C 0.87232 0.78088 0.78524 0.0
C669 C 0.86997 0.81302 0.81129 0.0
H670 H 0.95292 0.82425 0.81381 0.0
C671 C 0.95927 0.90927 0.83894 0.0
C672 C 0.98639 0.93048 0.83331 0.0
C673 C 0.93925 0.8784 0.835 0.0
C674 C 0.92971 0.8211 0.81329 0.0
H675 H 0.78151 0.73483 0.78812 0.0
H676 H 0.81451 0.75768 0.80373 0.0
H677 H 0.91589 0.78636 0.80082 0.0
H678 H 0.0159 0.93516 0.81995 0.0
H679 H 0.9814 0.8817 0.81312 0.0
H680 H 0.8842 0.84886 0.82332 0.0
C681 C 0.82574 0.76061 0.79613 0.0
C682 C 0.90854 0.79951 0.80582 0.0
C683 C 0.80683 0.74744 0.78718 0.0
C684 C 0.995 0.91929 0.8244 0.0
C685 C 0.97522 0.88851 0.82052 0.0
C686 C 0.8911 0.83458 0.81875 0.0
C687 C 0.85872 0.77811 0.79524 0.0
C688 C 0.87888 0.79615 0.80445 0.0
C689 C 0.94624 0.86829 0.82543 0.0
C690 C 0.92168 0.83984 0.81955 0.0
H691 H 0.86472 0.77118 0.76869 0.0
H692 H 0.89761 0.79455 0.78423 0.0
H693 H 0.84746 0.8113 0.81041 0.0
H694 H 0.95207 0.91733 0.84583 0.0
H695 H 0.9173 0.86319 0.83905 0.0
C696 C 0.29357 0.12376 0.78001 0.0
C697 C 0.29746 0.09755 0.78082 0.0
C698 C 0.27883 0.13115 0.78808 0.0
C699 C 0.24967 0.11382 0.81574 0.0
H700 H 0.1821 0.12267 0.80484 0.0
C701 C 0.13467 0.07715 0.83823 0.0
C702 C 0.11603 0.08913 0.83491 0.0
C703 C 0.16437 0.08811 0.83373 0.0
C704 C 0.2013 0.12118 0.80815 0.0
H705 H 0.29075 0.05982 0.79106 0.0
H706 H 0.26478 0.07252 0.80505 0.0
H707 H 0.22045 0.1232 0.79285 0.0
H708 H 0.11499 0.12461 0.82549 0.0
H709 H 0.1676 0.14544 0.81823 0.0
H710 H 0.2298 0.11092 0.83106 0.0
C711 C 0.27327 0.0875 0.79822 0.0
C712 C 0.22335 0.12136 0.80119 0.0
C713 C 0.28796 0.08006 0.79015 0.0
C714 C 0.12897 0.11491 0.82811 0.0
C715 C 0.15892 0.12645 0.82384 0.0
C716 C 0.22766 0.11391 0.82275 0.0
C717 C 0.2677 0.11255 0.79714 0.0
C718 C 0.24735 0.11691 0.80485 0.0
C719 C 0.17603 0.11162 0.82599 0.0
C720 C 0.20268 0.11681 0.81901 0.0
H721 H 0.30086 0.13792 0.77299 0.0
H722 H 0.27529 0.15089 0.78708 0.0
H723 H 0.26813 0.11068 0.81882 0.0
H724 H 0.125 0.05706 0.84342 0.0
H725 H 0.17672 0.07606 0.83564 0.0
C726 C 0.97099 0.25179 0.79458 0.0
C727 C 0.96665 0.24184 0.78394 0.0
C728 C 0.96241 0.22979 0.80261 0.0
C729 C 0.91687 0.14367 0.80837 0.0
H730 H 0.98447 0.16503 0.82802 0.0
C731 C 0.94174 0.05279 0.82505 0.0
C732 C 0.95949 0.05958 0.8343 0.0
C733 C 0.93248 0.07346 0.82162 0.0
C734 C 0.96484 0.1588 0.82285 0.0
H735 H 0.94843 0.20076 0.77343 0.0
H736 H 0.93356 0.16245 0.78742 0.0
H737 H 0.98813 0.20533 0.81642 0.0
H738 H 0.9784 0.09137 0.84786 0.0
H739 H 0.96167 0.12739 0.84197 0.0
H740 H 0.89412 0.09676 0.81454 0.0
C741 C 0.94345 0.18724 0.78956 0.0
C742 C 0.96705 0.18199 0.81614 0.0
C743 C 0.95223 0.20925 0.78153 0.0
C744 C 0.96469 0.08551 0.8407 0.0
C745 C 0.95545 0.10635 0.83724 0.0
C746 C 0.91454 0.12051 0.81515 0.0
C747 C 0.94904 0.19732 0.80019 0.0
C748 C 0.94369 0.17436 0.80854 0.0
C749 C 0.94082 0.10148 0.82736 0.0
C750 C 0.93914 0.12743 0.82216 0.0
H751 H 0.98189 0.27671 0.79672 0.0
H752 H 0.96678 0.23826 0.81072 0.0
H753 H 0.8982 0.13724 0.80274 0.0
H754 H 0.93723 0.03283 0.82 0.0
H755 H 0.92136 0.06881 0.81397 0.0
C756 C 0.81056 0.73857 0.72178 0.0
C757 C 0.79159 0.74767 0.72728 0.0
C758 C 0.82546 0.75323 0.71241 0.0
C759 C 0.82358 0.80031 0.69059 0.0
H760 H 0.91305 0.83234 0.68868 0.0
C761 C 0.90805 0.907 0.66615 0.0
C762 C 0.93749 0.91171 0.66323 0.0
C763 C 0.88585 0.8792 0.67108 0.0
C764 C 0.88792 0.82284 0.68887 0.0
H765 H 0.773 0.779 0.72712 0.0
H766 H 0.79908 0.80463 0.71068 0.0
H767 H 0.88323 0.80001 0.70349 0.0
H768 H 0.96591 0.89014 0.66228 0.0
H769 H 0.92658 0.8407 0.67055 0.0
H770 H 0.8283 0.82351 0.67603 0.0
C771 C 0.80224 0.786 0.71364 0.0
C772 C 0.87085 0.80448 0.69744 0.0
C773 C 0.78754 0.77153 0.7231 0.0
C774 C 0.94313 0.88678 0.66427 0.0
C775 C 0.92081 0.85877 0.66922 0.0
C776 C 0.84058 0.8184 0.68193 0.0
C777 C 0.82154 0.77714 0.70824 0.0
C778 C 0.8387 0.79378 0.69855 0.0
C779 C 0.89268 0.85549 0.67325 0.0
C780 C 0.87321 0.83078 0.68112 0.0
H781 H 0.81415 0.72023 0.72475 0.0
H782 H 0.84002 0.74576 0.7084 0.0
H783 H 0.79868 0.79186 0.69114 0.0
H784 H 0.90337 0.92612 0.66553 0.0
H785 H 0.8647 0.87786 0.67408 0.0
C786 C 0.28649 0.07391 0.72494 0.0
C787 C 0.27705 0.04844 0.73179 0.0
C788 C 0.26855 0.07059 0.71608 0.0
C789 C 0.20726 0.01082 0.69823 0.0
H790 H 0.18895 0.07701 0.69304 0.0
C791 C 0.09842 0.98907 0.67593 0.0
C792 C 0.09912 0.0135 0.67022 0.0
C793 C 0.12514 0.99403 0.68117 0.0
C794 C 0.19441 0.05863 0.69419 0.0
H795 H 0.24143 -0.00062 0.73462 0.0
H796 H 0.20993 0.99361 0.71914 0.0
H797 H 0.2252 0.08423 0.70708 0.0
H798 H 0.12852 0.0618 0.66508 0.0
H799 H 0.17583 0.07065 0.67421 0.0
H800 H 0.17586 0.98489 0.68549 0.0
C801 C 0.23143 0.01609 0.7206 0.0
C802 C 0.21508 0.0627 0.70229 0.0
C803 C 0.24933 0.01946 0.72951 0.0
C804 C 0.1276 0.04247 0.66928 0.0
C805 C 0.15447 0.0476 0.67463 0.0
C806 C 0.1867 0.00681 0.69009 0.0
C807 C 0.24079 0.04167 0.7138 0.0
C808 C 0.22113 0.03851 0.70457 0.0
C809 C 0.15321 0.02369 0.68091 0.0
C810 C 0.17934 0.0303 0.68816 0.0
H811 H 0.30777 0.09657 0.72642 0.0
H812 H 0.27654 0.09065 0.71096 0.0
H813 H 0.21196 0.99203 0.69964 0.0
H814 H 0.07666 0.96652 0.67679 0.0
H815 H 0.12309 0.97519 0.686 0.0
C816 C -0.00097 0.26193 0.71348 0.0
C817 C 0.01004 0.25977 0.72341 0.0
C818 C -0.00044 0.24399 0.70488 0.0
C819 C 0.03615 0.20007 0.69462 0.0
H820 H 0.95747 0.14809 0.67961 0.0
C821 C 0.97572 0.07453 0.67254 0.0
C822 C 0.00052 0.07828 0.66611 0.0
C823 C 0.97593 0.10103 0.6768 0.0
C824 C 0.97971 0.16279 0.68363 0.0
H825 H 0.03121 0.23787 0.73198 0.0
H826 H 0.03251 0.20683 0.71688 0.0
H827 H 0.9617 0.18668 0.69299 0.0
H828 H 0.04399 0.11217 0.65852 0.0
H829 H 0.04467 0.15891 0.66609 0.0
H830 H 0.05383 0.17543 0.68554 0.0
C831 C 0.02342 0.22239 0.71579 0.0
C832 C 0.98217 0.18491 0.69127 0.0
C833 C 0.02252 0.24003 0.72445 0.0
C834 C 0.02439 0.10886 0.66334 0.0
C835 C 0.02492 0.13548 0.66775 0.0
C836 C 0.03382 0.17825 0.68689 0.0
C837 C 0.01152 0.22385 0.70596 0.0
C838 C 0.01016 0.20317 0.69703 0.0
C839 C 0.00134 0.13174 0.67487 0.0
C840 C 0.00532 0.15879 0.68152 0.0
H841 H 0.98924 0.27689 0.7124 0.0
H842 H 0.99044 0.24574 0.69738 0.0
H843 H 0.05808 0.21403 0.69887 0.0
H844 H 0.95736 0.05107 0.67489 0.0
H845 H 0.95757 0.09734 0.68231 0.0
C846 C 0.83417 0.51258 0.57456 0.0
C847 C 0.86475 0.53616 0.5716 0.0
C848 C 0.81274 0.49158 0.56702 0.0
C849 C 0.81009 0.45728 0.54068 0.0
H850 H 0.72263 0.43413 0.54076 0.0
C851 C 0.72689 0.38847 0.50604 0.0
C852 C 0.69543 0.36555 0.50826 0.0
C853 C 0.74704 0.40818 0.51404 0.0
C854 C 0.74687 0.43997 0.54071 0.0
H855 H 0.89648 0.5566 0.55833 0.0
H856 H 0.85912 0.5201 0.54521 0.0
H857 H 0.75846 0.4712 0.55415 0.0
H858 H 0.66049 0.3452 0.52065 0.0
H859 H 0.69586 0.37935 0.53469 0.0
H860 H 0.79863 0.42604 0.5273 0.0
C861 C 0.85183 0.5176 0.55338 0.0
C862 C 0.76741 0.46129 0.54838 0.0
C863 C 0.87318 0.53867 0.5609 0.0
C864 C 0.68463 0.36258 0.51869 0.0
C865 C 0.70484 0.38233 0.52672 0.0
C866 C 0.78956 0.43589 0.53306 0.0
C867 C 0.82148 0.49359 0.55636 0.0
C868 C 0.79933 0.47041 0.54839 0.0
C869 C 0.73628 0.40548 0.52448 0.0
C870 C 0.75774 0.42716 0.53291 0.0
H871 H 0.8269 0.50998 0.58273 0.0
H872 H 0.7896 0.47324 0.56958 0.0
H873 H 0.8344 0.46332 0.54059 0.0
H874 H 0.73596 0.3915 0.49808 0.0
H875 H 0.77093 0.42603 0.51198 0.0
C876 C 0.4668 0.3741 0.56647 0.0
C877 C 0.47395 0.36164 0.57513 0.0
C878 C 0.48319 0.37934 0.55697 0.0
C879 C 0.55571 0.3855 0.54533 0.0
H880 H 0.50957 0.36754 0.51917 0.0
C881 C 0.56385 0.34239 0.5012 0.0
C882 C 0.59646 0.36018 0.49963 0.0
C883 C 0.54993 0.35028 0.50936 0.0
C884 C 0.52288 0.37273 0.52639 0.0
H885 H 0.5037 0.34455 0.58055 0.0
H886 H 0.53142 0.35245 0.5639 0.0
H887 H 0.48322 0.36378 0.53578 0.0
H888 H 0.64018 0.40099 0.50496 0.0
H889 H 0.61579 0.41557 0.5192 0.0
H890 H 0.59474 0.39234 0.53596 0.0
C891 C 0.51382 0.35915 0.5645 0.0
C892 C 0.50782 0.37089 0.53596 0.0
C893 C 0.49769 0.35428 0.57404 0.0
C894 C 0.61484 0.38739 0.5059 0.0
C895 C 0.60089 0.39533 0.51414 0.0
C896 C 0.57068 0.38702 0.53577 0.0
C897 C 0.50692 0.37189 0.55583 0.0
C898 C 0.52379 0.37655 0.54559 0.0
C899 C 0.56841 0.37605 0.51624 0.0
C900 C 0.55424 0.37989 0.52618 0.0
H901 H 0.44886 0.38035 0.56706 0.0
H902 H 0.47746 0.38962 0.55056 0.0
H903 H 0.56906 0.39077 0.55255 0.0
H904 H 0.54937 0.32089 0.49658 0.0
H905 H 0.52501 0.33455 0.51075 0.0
C906 C 0.73431 0.13971 0.5405 0.0
C907 C 0.74261 0.1503 0.55099 0.0
C908 C 0.73681 0.16056 0.53273 0.0
C909 C 0.73921 0.23649 0.52984 0.0
H910 H 0.75284 0.22375 0.50045 0.0
C911 C 0.72243 0.30635 0.4977 0.0
C912 C 0.70003 0.28614 0.4902 0.0
C913 C 0.73702 0.29504 0.50416 0.0
C914 C 0.74921 0.22774 0.50864 0.0
H915 H 0.76143 0.19152 0.56145 0.0
H916 H 0.76664 0.22816 0.54784 0.0
H917 H 0.76085 0.19412 0.51398 0.0
H918 H 0.67688 0.23911 0.48306 0.0
H919 H 0.70284 0.21953 0.49414 0.0
H920 H 0.7271 0.26973 0.52446 0.0
C921 C 0.7574 0.20351 0.54565 0.0
C922 C 0.75357 0.2106 0.5164 0.0
C923 C 0.75459 0.18254 0.55345 0.0
C924 C 0.69439 0.25529 0.48869 0.0
C925 C 0.70926 0.24409 0.49505 0.0
C926 C 0.73521 0.25385 0.52209 0.0
C927 C 0.74799 0.19269 0.53521 0.0
C928 C 0.74771 0.21404 0.52708 0.0
C929 C 0.72963 0.26338 0.50317 0.0
C930 C 0.73933 0.24905 0.51138 0.0
H931 H 0.72488 0.11501 0.53832 0.0
H932 H 0.72879 0.15108 0.52486 0.0
H933 H 0.73402 0.23957 0.53793 0.0
H934 H 0.72682 0.33006 0.49915 0.0
H935 H 0.75279 0.31052 0.51031 0.0
C936 C 0.93356 0.53349 0.6163 0.0
C937 C 0.95047 0.56667 0.61761 0.0
C938 C 0.92323 0.51392 0.62505 0.0
C939 C 0.89776 0.51426 0.65189 0.0
H940 H 0.88862 0.43115 0.65228 0.0
C941 C 0.80456 0.41953 0.6782 0.0
C942 C 0.78415 0.39227 0.67221 0.0
C943 C 0.83481 0.44097 0.67445 0.0
C944 C 0.89117 0.45438 0.65235 0.0
H945 H 0.97123 0.60532 0.62914 0.0
H946 H 0.95283 0.57103 0.64444 0.0
H947 H 0.92394 0.47002 0.63952 0.0
H948 H 0.78021 0.36425 0.65828 0.0
H949 H 0.8324 0.40133 0.65173 0.0
H950 H 0.86343 0.4981 0.66416 0.0
C951 C 0.94753 0.56023 0.63662 0.0
C952 C 0.91137 0.4766 0.64504 0.0
C953 C 0.9581 0.57984 0.62786 0.0
C954 C 0.79547 0.38522 0.66302 0.0
C955 C 0.82558 0.40646 0.6593 0.0
C956 C 0.87741 0.49199 0.65915 0.0
C957 C 0.92941 0.52707 0.63531 0.0
C958 C 0.91382 0.50628 0.64444 0.0
C959 C 0.84504 0.43539 0.66468 0.0
C960 C 0.87275 0.46126 0.65914 0.0
H961 H 0.92741 0.52258 0.60851 0.0
H962 H 0.90897 0.48847 0.62376 0.0
H963 H 0.89897 0.53684 0.6516 0.0
H964 H 0.79631 0.42563 0.68528 0.0
H965 H 0.84941 0.46284 0.67886 0.0
C966 C 0.44562 0.38172 0.63985 0.0
C967 C 0.45638 0.38997 0.62945 0.0
C968 C 0.46698 0.38985 0.64812 0.0
C969 C 0.55097 0.44022 0.6556 0.0
H970 H 0.53608 0.36668 0.67104 0.0
C971 C 0.64893 0.42194 0.66896 0.0
C972 C 0.64366 0.40051 0.67695 0.0
C973 C 0.6261 0.42925 0.66653 0.0
C974 C 0.54041 0.38786 0.6671 0.0
H975 H 0.49799 0.41469 0.61965 0.0
H976 H 0.5352 0.42889 0.63407 0.0
H977 H 0.49479 0.36311 0.66002 0.0
H978 H 0.6116 0.37205 0.6893 0.0
H979 H 0.57206 0.38574 0.68534 0.0
H980 H 0.59705 0.46467 0.6624 0.0
C981 C 0.51027 0.41623 0.63584 0.0
C982 C 0.51666 0.3857 0.66072 0.0
C983 C 0.48894 0.40783 0.62757 0.0
C984 C 0.61646 0.38893 0.68317 0.0
C985 C 0.59361 0.39642 0.68079 0.0
C986 C 0.57466 0.44251 0.66209 0.0
C987 C 0.49952 0.40672 0.64617 0.0
C988 C 0.52218 0.41141 0.65455 0.0
C989 C 0.59742 0.41526 0.67206 0.0
C990 C 0.57019 0.41587 0.66753 0.0
H991 H 0.42067 0.36806 0.64157 0.0
H992 H 0.45805 0.38233 0.65601 0.0
H993 H 0.55564 0.46059 0.65106 0.0
H994 H 0.66976 0.43125 0.66406 0.0
H995 H 0.62996 0.44367 0.65972 0.0
C996 C 0.70257 0.1774 0.60593 0.0
C997 C 0.69698 0.14674 0.60392 0.0
C998 C 0.6886 0.18342 0.61455 0.0
C999 C 0.65513 0.15512 0.64071 0.0
H1000 H 0.62494 0.21284 0.63701 0.0
C1001 C 0.61294 0.23876 0.66386 0.0
C1002 C 0.63792 0.25322 0.67106 0.0
C1003 C 0.60909 0.21374 0.65736 0.0
C1004 C 0.63245 0.19604 0.63824 0.0
H1005 H 0.67239 0.0983 0.60944 0.0
H1006 H 0.64804 0.10899 0.62458 0.0
H1007 H 0.64075 0.19404 0.62177 0.0
H1008 H 0.67567 0.25036 0.67821 0.0
H1009 H 0.66986 0.20754 0.66665 0.0
H1010 H 0.64745 0.15781 0.65726 0.0
C1011 C 0.66328 0.12831 0.61946 0.0
C1012 C 0.64205 0.18568 0.62946 0.0
C1013 C 0.67711 0.1222 0.61076 0.0
C1014 C 0.65616 0.23946 0.67272 0.0
C1015 C 0.65283 0.2149 0.66603 0.0
C1016 C 0.6455 0.16555 0.64955 0.0
C1017 C 0.66878 0.15897 0.62141 0.0
C1018 C 0.65447 0.16599 0.63062 0.0
C1019 C 0.63079 0.2035 0.65774 0.0
C1020 C 0.63488 0.1869 0.64845 0.0
H1021 H 0.7178 0.19684 0.60084 0.0
H1022 H 0.69372 0.20743 0.61594 0.0
H1023 H 0.66457 0.13987 0.64184 0.0
H1024 H 0.59843 0.24889 0.66251 0.0
H1025 H 0.59108 0.20465 0.65133 0.0
C1026 C 0.46313 0.1317 0.11646 0.0
C1027 C 0.46264 0.14939 0.108 0.0
C1028 C 0.47656 0.14675 0.12614 0.0
C1029 C 0.50014 0.22158 0.14119 0.0
H1030 H 0.55599 0.20294 0.15627 0.0
C1031 C 0.60519 0.31226 0.1656 0.0
C1032 C 0.61138 0.30364 0.17532 0.0
C1033 C 0.58011 0.29012 0.1594 0.0
C1034 C 0.53988 0.20791 0.15227 0.0
H1035 H 0.4769 0.19677 0.10293 0.0
H1036 H 0.50078 0.22285 0.11953 0.0
H1037 H 0.52634 0.16971 0.1411 0.0
H1038 H 0.59578 0.26563 0.18644 0.0
H1039 H 0.55204 0.22615 0.17532 0.0
H1040 H 0.51525 0.26097 0.15195 0.0
C1041 C 0.49001 0.19732 0.11889 0.0
C1042 C 0.52295 0.18894 0.14358 0.0
C1043 C 0.47656 0.18237 0.10931 0.0
C1044 C 0.59121 0.27281 0.17899 0.0
C1045 C 0.56644 0.25028 0.17263 0.0
C1046 C 0.51727 0.24066 0.14979 0.0
C1047 C 0.48973 0.17971 0.1275 0.0
C1048 C 0.50377 0.1963 0.1377 0.0
C1049 C 0.56109 0.25868 0.16269 0.0
C1050 C 0.53805 0.23463 0.1552 0.0
H1051 H 0.45245 0.10621 0.1157 0.0
H1052 H 0.476 0.1325 0.13261 0.0
H1053 H 0.48489 0.22738 0.13703 0.0
H1054 H 0.62051 0.33589 0.16261 0.0
H1055 H 0.5767 0.29715 0.15174 0.0
C1056 C 0.83405 0.29908 0.0988 0.0
C1057 C 0.86698 0.31528 0.09794 0.0
C1058 C 0.81975 0.30205 0.10792 0.0
C1059 C 0.83055 0.31843 0.13615 0.0
H1060 H 0.76267 0.33494 0.13322 0.0
C1061 C 0.76552 0.33773 0.17166 0.0
C1062 C 0.73372 0.3276 0.17009 0.0
C1063 C 0.78329 0.33529 0.16341 0.0
C1064 C 0.78122 0.32978 0.13421 0.0
H1065 H 0.91082 0.34717 0.10603 0.0
H1066 H 0.8856 0.352 0.12213 0.0
H1067 H 0.79128 0.33404 0.1177 0.0
H1068 H 0.69474 0.3044 0.15915 0.0
H1069 H 0.72498 0.29862 0.14504 0.0
H1070 H 0.81989 0.31338 0.15268 0.0
C1071 C 0.87099 0.33716 0.11567 0.0
C1072 C 0.79776 0.32953 0.12529 0.0
C1073 C 0.88537 0.3346 0.10643 0.0
C1074 C 0.71936 0.31275 0.1605 0.0
C1075 C 0.73683 0.30981 0.15238 0.0
C1076 C 0.81369 0.31833 0.14511 0.0
C1077 C 0.83802 0.32092 0.11647 0.0
C1078 C 0.82231 0.32346 0.12614 0.0
C1079 C 0.76933 0.32233 0.15353 0.0
C1080 C 0.78845 0.3235 0.14421 0.0
H1081 H 0.81923 0.28398 0.09241 0.0
H1082 H 0.79429 0.28907 0.10836 0.0
H1083 H 0.84934 0.31356 0.137 0.0
H1084 H 0.7771 0.34943 0.17899 0.0
H1085 H 0.80824 0.34511 0.1646 0.0
C1086 C 0.65876 0.56525 0.11773 0.0
C1087 C 0.66982 0.5625 0.10775 0.0
C1088 C 0.66119 0.54926 0.12635 0.0
C1089 C 0.66845 0.48094 0.13276 0.0
H1090 H 0.71079 0.52694 0.1584 0.0
C1091 C 0.71502 0.42708 0.16087 0.0
C1092 C 0.70885 0.42767 0.17165 0.0
C1093 C 0.71088 0.44614 0.15394 0.0
C1094 C 0.69857 0.5137 0.15134 0.0
H1095 H 0.69129 0.54031 0.09892 0.0
H1096 H 0.69487 0.51213 0.11379 0.0
H1097 H 0.69915 0.55375 0.14465 0.0
H1098 H 0.69556 0.45014 0.1838 0.0
H1099 H 0.68788 0.48356 0.17156 0.0
H1100 H 0.6678 0.44103 0.13926 0.0
C1101 C 0.6845 0.52667 0.11502 0.0
C1102 C 0.69185 0.529 0.1435 0.0
C1103 C 0.68254 0.54292 0.1065 0.0
C1104 C 0.70061 0.4494 0.17551 0.0
C1105 C 0.69611 0.4684 0.1685 0.0
C1106 C 0.67496 0.46569 0.14056 0.0
C1107 C 0.67413 0.52983 0.12505 0.0
C1108 C 0.67745 0.51294 0.13402 0.0
C1109 C 0.7 0.46597 0.15758 0.0
C1110 C 0.69093 0.48209 0.14982 0.0
H1111 H 0.64907 0.58039 0.11893 0.0
H1112 H 0.65292 0.552 0.13401 0.0
H1113 H 0.65681 0.4678 0.12562 0.0
H1114 H 0.72181 0.41083 0.15772 0.0
H1115 H 0.71514 0.44445 0.14563 0.0
C1116 C 0.4764 0.16393 0.05552 0.0
C1117 C 0.48243 0.14312 0.061 0.0
C1118 C 0.49776 0.18423 0.04799 0.0
C1119 C 0.55656 0.23749 0.0374 0.0
H1120 H 0.5963 0.20609 0.01826 0.0
C1121 C 0.6614 0.32113 0.011 0.0
C1122 C 0.66051 0.31117 1.00049 0.0
C1123 C 0.63995 0.30027 0.01837 0.0
C1124 C 0.58529 0.21519 0.0235 0.0
H1125 H 0.5156 0.12728 0.06281 0.0
H1126 H 0.55268 0.16262 0.04977 0.0
H1127 H 0.55709 0.17022 0.0308 0.0
H1128 H 0.63704 0.27118 0.98953 0.0
H1129 H 0.59969 0.23483 0.0024 0.0
H1130 H 0.5845 0.28239 0.03 0.0
C1131 C 0.53136 0.16309 0.0512 0.0
C1132 C 0.56302 0.19471 0.03076 0.0
C1133 C 0.51014 0.14294 0.05873 0.0
C1134 C 0.63834 0.27963 0.99757 0.0
C1135 C 0.61699 0.25873 0.00496 0.0
C1136 C 0.57892 0.25802 0.03016 0.0
C1137 C 0.52548 0.184 0.04574 0.0
C1138 C 0.54846 0.20563 0.03781 0.0
C1139 C 0.61726 0.26893 0.01541 0.0
C1140 C 0.5936 0.24713 0.02314 0.0
H1141 H 0.45527 0.16464 0.05708 0.0
H1142 H 0.49241 0.19988 0.04384 0.0
H1143 H 0.54599 0.24673 0.04278 0.0
H1144 H 0.67828 0.34523 0.01351 0.0
H1145 H 0.64112 0.30871 0.0264 0.0
C1146 C 0.89522 0.28561 0.03374 0.0
C1147 C 0.88383 0.28493 0.04398 0.0
C1148 C 0.87646 0.28096 0.02497 0.0
C1149 C 0.79542 0.25233 0.01591 0.0
H1150 H 0.83645 0.32221 0.99662 0.0
C1151 C 0.72816 0.29279 0.99037 0.0
C1152 C 0.74351 0.31216 0.98175 0.0
C1153 C 0.74279 0.28002 0.9961 0.0
C1154 C 0.82459 0.30187 1.00167 0.0
H1155 H 0.84313 0.27698 0.05305 0.0
H1156 H 0.81034 0.26875 0.03771 0.0
H1157 H 0.86681 0.31735 0.01039 0.0
H1158 H 0.78427 0.33071 0.97161 0.0
H1159 H 0.80881 0.30645 0.98105 0.0
H1160 H 0.75303 0.23699 0.00723 0.0
C1161 C 0.8338 0.27288 0.03648 0.0
C1162 C 0.84213 0.29925 0.00965 0.0
C1163 C 0.85268 0.27784 0.04527 0.0
C1164 C 0.77199 0.31572 0.97823 0.0
C1165 C 0.78624 0.30226 0.98378 0.0
C1166 C 0.77786 0.25463 0.00779 0.0
C1167 C 0.84579 0.2752 0.02625 0.0
C1168 C 0.82763 0.27497 0.01701 0.0
C1169 C 0.77288 0.28606 0.9932 0.0
C1170 C 0.79205 0.27997 1.00071 0.0
H1171 H 0.91905 0.29085 0.03247 0.0
H1172 H 0.88621 0.28265 0.01717 0.0
H1173 H 0.78372 0.23317 0.02143 0.0
H1174 H 0.70636 0.29009 0.99332 0.0
H1175 H 0.73164 0.26785 0.0033 0.0
C1176 C 0.65832 0.58622 0.04439 0.0
C1177 C 0.66152 0.58092 0.05502 0.0
C1178 C 0.65617 0.56483 0.0365 0.0
C1179 C 0.6746 0.5018 0.03166 0.0
H1180 H 0.61746 0.47757 0.00796 0.0
C1181 C 0.65749 0.4018 0.00469 0.0
C1182 C 0.66362 0.40951 0.99403 0.0
C1183 C 0.65078 0.42 0.01154 0.0
C1184 C 0.63356 0.48425 0.01453 0.0
H1185 H 0.6645 0.54876 0.0657 0.0
H1186 H 0.66027 0.51145 0.05204 0.0
H1187 H 0.62028 0.51614 0.02119 0.0
H1188 H 0.6647 0.44018 0.98188 0.0
H1189 H 0.65327 0.47267 0.99399 0.0
H1190 H 0.68788 0.4701 0.02512 0.0
C1191 C 0.66007 0.5324 0.04973 0.0
C1192 C 0.6353 0.50639 0.02207 0.0
C1193 C 0.66239 0.55378 0.05759 0.0
C1194 C 0.65986 0.43377 0.99009 0.0
C1195 C 0.65344 0.45236 0.99701 0.0
C1196 C 0.6727 0.47968 0.02422 0.0
C1197 C 0.65711 0.5377 0.03908 0.0
C1198 C 0.65566 0.51515 0.03078 0.0
C1199 C 0.65058 0.44662 0.0079 0.0
C1200 C 0.65193 0.47033 0.01564 0.0
H1201 H 0.65752 0.60689 0.04215 0.0
H1202 H 0.65424 0.5698 0.02837 0.0
H1203 H 0.69118 0.50862 0.03808 0.0
H1204 H 0.66003 0.38301 0.00787 0.0
H1205 H 0.64786 0.41452 0.01985 0.0
C1206 C 0.5585 0.9173 0.8909 0.0
C1207 C 0.54919 0.92136 0.90103 0.0
C1208 C 0.53758 0.90749 0.88242 0.0
C1209 C 0.453 0.86196 0.87724 0.0
H1210 H 0.47826 0.88825 0.84845 0.0
C1211 C 0.36862 0.7884 0.84496 0.0
C1212 C 0.38239 0.77852 0.83726 0.0
C1213 C 0.38727 0.81568 0.85107 0.0
C1214 C 0.47079 0.88069 0.85645 0.0
H1215 H 0.51103 0.91964 0.91009 0.0
H1216 H 0.47458 0.90259 0.8953 0.0
H1217 H 0.51514 0.91676 0.86288 0.0
H1218 H 0.4255 0.79106 0.82898 0.0
H1219 H 0.45843 0.83799 0.83989 0.0
H1220 H 0.40953 0.82498 0.87096 0.0
C1221 C 0.49794 0.90662 0.89394 0.0
C1222 C 0.49194 0.897 0.86471 0.0
C1223 C 0.51885 0.91641 0.90242 0.0
C1224 C 0.41437 0.79836 0.83486 0.0
C1225 C 0.43325 0.82528 0.84116 0.0
C1226 C 0.43201 0.84563 0.86903 0.0
C1227 C 0.50687 0.90152 0.88388 0.0
C1228 C 0.48349 0.88731 0.87518 0.0
C1229 C 0.42018 0.83294 0.84981 0.0
C1230 C 0.4408 0.85425 0.85848 0.0
H1231 H 0.58175 0.92104 0.88954 0.0
H1232 H 0.5451 0.90341 0.87482 0.0
H1233 H 0.44584 0.85348 0.88518 0.0
H1234 H 0.34389 0.77352 0.84687 0.0
H1235 H 0.37622 0.82158 0.85739 0.0
C1236 C 0.126 0.63493 0.89246 0.0
C1237 C 0.11989 0.6598 0.89242 0.0
C1238 C 0.13389 0.62499 0.88313 0.0
C1239 C 0.1674 0.65491 0.85687 0.0
H1240 H 0.14885 0.56875 0.85226 0.0
C1241 C 0.23739 0.63436 0.82615 0.0
C1242 C 0.25437 0.62276 0.83118 0.0
C1243 C 0.20918 0.62929 0.83054 0.0
C1244 C 0.15391 0.59284 0.85336 0.0
H1245 H 0.11587 0.69276 0.88245 0.0
H1246 H 0.12894 0.67505 0.86619 0.0
H1247 H 0.12316 0.58051 0.86669 0.0
H1248 H 0.25269 0.59214 0.84346 0.0
H1249 H 0.20369 0.58303 0.85103 0.0
H1250 H 0.19907 0.66762 0.8439 0.0
C1251 C 0.12847 0.66371 0.87346 0.0
C1252 C 0.13942 0.59965 0.86168 0.0
C1253 C 0.12094 0.67387 0.88279 0.0
C1254 C 0.24018 0.60164 0.83951 0.0
C1255 C 0.21197 0.59642 0.84385 0.0
C1256 C 0.18171 0.64809 0.84854 0.0
C1257 C 0.13553 0.63946 0.87351 0.0
C1258 C 0.14687 0.63101 0.86377 0.0
C1259 C 0.19758 0.61234 0.83994 0.0
C1260 C 0.17605 0.61721 0.84691 0.0
H1261 H 0.12531 0.62356 0.89975 0.0
H1262 H 0.13966 0.60662 0.88353 0.0
H1263 H 0.17409 0.6794 0.85826 0.0
H1264 H 0.24771 0.65057 0.81967 0.0
H1265 H 0.19815 0.64121 0.82719 0.0
C1266 C 0.40218 0.50631 0.89018 0.0
C1267 C 0.38995 0.47384 0.8881 0.0
C1268 C 0.41258 0.52782 0.88192 0.0
C1269 C 0.39691 0.53195 0.85442 0.0
H1270 H 0.4719 0.61573 0.85617 0.0
C1271 C 0.40665 0.62733 0.82768 0.0
C1272 C 0.41235 0.6542 0.83361 0.0
C1273 C 0.41475 0.60625 0.83176 0.0
C1274 C 0.45088 0.59242 0.85552 0.0
H1275 H 0.37955 0.43857 0.87574 0.0
H1276 H 0.39704 0.47609 0.86134 0.0
H1277 H 0.46322 0.57602 0.86911 0.0
H1278 H 0.43489 0.68264 0.8476 0.0
H1279 H 0.44871 0.64635 0.85473 0.0
H1280 H 0.38314 0.54869 0.8414 0.0
C1281 C 0.39879 0.48487 0.86936 0.0
C1282 C 0.44597 0.56971 0.86294 0.0
C1283 C 0.38883 0.46343 0.87761 0.0
C1284 C 0.42999 0.66189 0.84292 0.0
C1285 C 0.43803 0.64097 0.84699 0.0
C1286 C 0.40155 0.55477 0.8471 0.0
C1287 C 0.41057 0.51724 0.87142 0.0
C1288 C 0.41842 0.5396 0.86266 0.0
C1289 C 0.42864 0.61183 0.84182 0.0
C1290 C 0.42802 0.58574 0.8478 0.0
H1291 H 0.40348 0.51509 0.89817 0.0
H1292 H 0.42119 0.5526 0.88374 0.0
H1293 H 0.37538 0.50896 0.85403 0.0
H1294 H 0.39315 0.62093 0.82045 0.0
H1295 H 0.40796 0.58446 0.82742 0.0
C1296 C 0.57865 0.86301 0.94547 0.0
C1297 C 0.60941 0.88823 0.94747 0.0
C1298 C 0.5621 0.84004 0.95305 0.0
C1299 C 0.55975 0.82687 0.98177 0.0
H1300 H 0.49598 0.74184 0.97287 0.0
C1301 C 0.44888 0.74781 0.00606 0.0
C1302 C 0.43081 0.71531 0.00357 0.0
C1303 C 0.47788 0.76695 1.00111 0.0
C1304 C 0.51409 0.76513 0.97565 0.0
H1305 H 0.6473 0.90844 0.95891 0.0
H1306 H 0.61866 0.8678 0.97206 0.0
H1307 H 0.53264 0.77798 0.9601 0.0
H1308 H 0.43011 0.6765 0.99502 0.0
H1309 H 0.48181 0.7092 0.98705 0.0
H1310 H 0.54146 0.81373 0.99739 0.0
C1311 C 0.60706 0.86619 0.9647 0.0
C1312 C 0.53485 0.78621 0.9682 0.0
C1313 C 0.62357 0.88939 0.95713 0.0
C1314 C 0.44377 0.70155 0.99708 0.0
C1315 C 0.47314 0.72049 0.99236 0.0
C1316 C 0.53922 0.80556 0.98928 0.0
C1317 C 0.57593 0.84137 0.96281 0.0
C1318 C 0.5572 0.81773 0.97107 0.0
C1319 C 0.48955 0.75377 0.9937 0.0
C1320 C 0.51535 0.77467 0.98627 0.0
H1321 H 0.5669 0.86145 0.93815 0.0
H1322 H 0.53799 0.82179 0.95134 0.0
H1323 H 0.57663 0.85093 0.98431 0.0
H1324 H 0.43906 0.75899 0.01092 0.0
H1325 H 0.48952 0.79236 0.0024 0.0
C1326 C 0.1713 0.75494 0.94362 0.0
C1327 C 0.13866 0.74121 0.94491 0.0
C1328 C 0.19083 0.76167 0.95238 0.0
C1329 C 0.18843 0.73286 0.9787 0.0
H1330 H 0.27148 0.80794 0.98166 0.0
C1331 C 0.27375 0.7325 0.00821 0.0
C1332 C 0.30317 0.74181 0.00371 0.0
C1333 C 0.25388 0.74123 0.00356 0.0
C1334 C 0.24837 0.78677 0.98096 0.0
H1335 H 0.10112 0.72479 0.95647 0.0
H1336 H 0.13514 0.7361 0.97168 0.0
H1337 H 0.23607 0.80526 0.96793 0.0
H1338 H 0.33628 0.77011 0.9916 0.0
H1339 H 0.30201 0.78495 0.98346 0.0
H1340 H 0.20108 0.7133 0.99118 0.0
C1341 C 0.14559 0.74166 0.9639 0.0
C1342 C 0.2281 0.78531 0.97309 0.0
C1343 C 0.12614 0.73527 0.95517 0.0
C1344 C 0.31373 0.76275 0.99525 0.0
C1345 C 0.29393 0.77128 0.99058 0.0
C1346 C 0.2088 0.73411 0.98646 0.0
C1347 C 0.17808 0.7545 0.96259 0.0
C1348 C 0.19821 0.758 0.97172 0.0
C1349 C 0.26302 0.7591 0.99428 0.0
C1350 C 0.23943 0.76072 0.98752 0.0
H1351 H 0.18171 0.75988 0.93583 0.0
H1352 H 0.21574 0.77129 0.95111 0.0
H1353 H 0.16563 0.71137 0.97779 0.0
H1354 H 0.26491 0.71609 0.01467 0.0
H1355 H 0.23056 0.7321 0.00681 0.0
C1356 C 0.31078 0.44846 0.9477 0.0
C1357 C 0.29347 0.43856 0.93826 0.0
C1358 C 0.30005 0.4581 0.95641 0.0
C1359 C 0.25443 0.49494 0.96256 0.0
H1360 H 0.26287 0.47674 0.99148 0.0
C1361 C 0.24775 0.57231 0.9946 0.0
C1362 C 0.27286 0.58432 1.00173 0.0
C1363 C 0.23874 0.54435 0.98885 0.0
C1364 C 0.26038 0.48214 0.98346 0.0
H1365 H 0.25083 0.43015 0.93068 0.0
H1366 H 0.2324 0.44759 0.94585 0.0
H1367 H 0.27095 0.44794 0.97705 0.0
H1368 H 0.306 0.57516 0.00935 0.0
H1369 H 0.29144 0.52726 0.99908 0.0
H1370 H 0.24614 0.53053 0.96871 0.0
C1371 C 0.25423 0.44777 0.9465 0.0
C1372 C 0.26495 0.46556 0.9752 0.0
C1373 C 0.26479 0.43778 0.93781 0.0
C1374 C 0.28629 0.56609 0.00396 0.0
C1375 C 0.27793 0.53858 0.998 0.0
C1376 C 0.2503 0.51178 0.97077 0.0
C1377 C 0.27193 0.45837 0.95585 0.0
C1378 C 0.26276 0.47236 0.96466 0.0
C1379 C 0.25553 0.5286 0.98985 0.0
C1380 C 0.254 0.50626 0.98136 0.0
H1381 H 0.33287 0.44916 0.94834 0.0
H1382 H 0.31442 0.46651 0.96346 0.0
H1383 H 0.25295 0.50102 0.95452 0.0
H1384 H 0.23708 0.58607 0.99276 0.0
H1385 H 0.22046 0.53671 0.98297 0.0
C1386 C 0.12535 0.49857 0.4481 0.0
C1387 C 0.13161 0.4759 0.44369 0.0
C1388 C 0.13906 0.51395 0.45765 0.0
C1389 C 0.17226 0.50481 0.48192 0.0
H1390 H 0.21748 0.59668 0.48399 0.0
C1391 C 0.26497 0.57518 0.5137 0.0
C1392 C 0.27209 0.60584 0.5167 0.0
C1393 C 0.24174 0.55745 0.50621 0.0
C1394 C 0.2043 0.57099 0.48368 0.0
H1395 H 0.15713 0.45159 0.44587 0.0
H1396 H 0.18078 0.47822 0.46265 0.0
H1397 H 0.18986 0.56999 0.46777 0.0
H1398 H 0.25834 0.64077 0.51491 0.0
H1399 H 0.21692 0.6093 0.50208 0.0
H1400 H 0.18646 0.50558 0.4978 0.0
C1401 C 0.16527 0.48405 0.45867 0.0
C1402 C 0.18868 0.55574 0.47433 0.0
C1403 C 0.15196 0.46903 0.44903 0.0
C1404 C 0.25352 0.61726 0.51275 0.0
C1405 C 0.23003 0.59936 0.50528 0.0
C1406 C 0.18747 0.52001 0.49132 0.0
C1407 C 0.15888 0.50658 0.46308 0.0
C1408 C 0.17317 0.52256 0.47328 0.0
C1409 C 0.22478 0.56979 0.50159 0.0
C1410 C 0.20442 0.55336 0.49224 0.0
H1411 H 0.10977 0.5044 0.44417 0.0
H1412 H 0.13371 0.53118 0.4609 0.0
H1413 H 0.15997 0.47914 0.48137 0.0
H1414 H 0.27871 0.56558 0.51664 0.0
H1415 H 0.23866 0.53495 0.50356 0.0
C1416 C 0.59379 0.7404 0.45526 0.0
C1417 C 0.57094 0.71993 0.44788 0.0
C1418 C 0.58496 0.74956 0.46456 0.0
C1419 C 0.5182 0.75178 0.47726 0.0
H1420 H 0.55356 0.74389 0.50326 0.0
C1421 C 0.45873 0.74937 0.51597 0.0
C1422 C 0.4508 0.72205 0.52166 0.0
C1423 C 0.48258 0.76053 0.50838 0.0
C1424 C 0.54362 0.74647 0.49608 0.0
H1425 H 0.52099 0.69374 0.44439 0.0
H1426 H 0.5056 0.70934 0.4606 0.0
H1427 H 0.57564 0.74006 0.48642 0.0
H1428 H 0.46427 0.68759 0.52486 0.0
H1429 H 0.50537 0.70666 0.51163 0.0
H1430 H 0.4848 0.75595 0.48681 0.0
C1431 C 0.5304 0.7187 0.45916 0.0
C1432 C 0.55644 0.74453 0.48642 0.0
C1433 C 0.5392 0.70952 0.44989 0.0
C1434 C 0.46965 0.70853 0.52053 0.0
C1435 C 0.49339 0.71962 0.51294 0.0
C1436 C 0.50533 0.75362 0.4869 0.0
C1437 C 0.55311 0.73857 0.46667 0.0
C1438 C 0.54311 0.74599 0.47689 0.0
C1439 C 0.49887 0.74455 0.50634 0.0
C1440 C 0.51714 0.74985 0.49642 0.0
H1441 H 0.61849 0.74896 0.45393 0.0
H1442 H 0.60306 0.76509 0.47014 0.0
H1443 H 0.50777 0.75363 0.47007 0.0
H1444 H 0.44474 0.76044 0.51669 0.0
H1445 H 0.48674 0.7803 0.5036 0.0
C1446 C 0.29397 0.85019 0.44629 0.0
C1447 C 0.31746 0.86087 0.43849 0.0
C1448 C 0.29373 0.83163 0.45455 0.0
C1449 C 0.34768 0.8142 0.4686 0.0
H1450 H 0.27204 0.74014 0.47887 0.0
C1451 C 0.35455 0.72425 0.49412 0.0
C1452 C 0.33601 0.71413 0.50327 0.0
C1453 C 0.34963 0.74137 0.48658 0.0
C1454 C 0.29328 0.76099 0.47615 0.0
H1455 H 0.35826 0.85932 0.43303 0.0
H1456 H 0.35755 0.8269 0.44724 0.0
H1457 H 0.26821 0.77171 0.46493 0.0
H1458 H 0.29692 0.71303 0.5115 0.0
H1459 H 0.28825 0.74311 0.49819 0.0
H1460 H 0.37285 0.80341 0.47962 0.0
C1461 C 0.33975 0.83337 0.44716 0.0
C1462 C 0.2911 0.77906 0.46818 0.0
C1463 C 0.34004 0.85185 0.43896 0.0
C1464 C 0.31166 0.72061 0.50454 0.0
C1465 C 0.30661 0.7377 0.49692 0.0
C1466 C 0.34985 0.79618 0.47648 0.0
C1467 C 0.31699 0.8235 0.45516 0.0
C1468 C 0.31841 0.80549 0.46417 0.0
C1469 C 0.32601 0.74879 0.48797 0.0
C1470 C 0.3228 0.76902 0.48019 0.0
H1471 H 0.27622 0.85672 0.44613 0.0
H1472 H 0.2759 0.82443 0.46062 0.0
H1473 H 0.36909 0.83491 0.4659 0.0
H1474 H 0.37341 0.71955 0.49285 0.0
H1475 H 0.36458 0.74908 0.47966 0.0
C1476 C 0.07995 0.43163 0.37803 0.0
C1477 C 0.08406 0.45216 0.38657 0.0
C1478 C 0.09828 0.44322 0.36894 0.0
C1479 C 0.14935 0.51549 0.35399 0.0
H1480 H 0.19581 0.47433 0.34627 0.0
C1481 C 0.27652 0.5614 0.33697 0.0
C1482 C 0.27682 0.57924 0.32846 0.0
C1483 C 0.24806 0.5379 0.34123 0.0
C1484 C 0.18262 0.48574 0.34821 0.0
H1485 H 0.10953 0.50122 0.39203 0.0
H1486 H 0.14119 0.52156 0.37605 0.0
H1487 H 0.1543 0.45078 0.35959 0.0
H1488 H 0.2479 0.58461 0.31705 0.0
H1489 H 0.19786 0.54374 0.32464 0.0
H1490 H 0.17848 0.55111 0.34292 0.0
C1491 C 0.12384 0.49645 0.37644 0.0
C1492 C 0.15884 0.47226 0.35581 0.0
C1493 C 0.10581 0.48479 0.3856 0.0
C1494 C 0.24827 0.57099 0.32357 0.0
C1495 C 0.21968 0.54788 0.32798 0.0
C1496 C 0.17279 0.52871 0.34627 0.0
C1497 C 0.12077 0.47567 0.36812 0.0
C1498 C 0.14265 0.48754 0.35901 0.0
C1499 C 0.21937 0.53224 0.33716 0.0
C1500 C 0.19031 0.51448 0.34354 0.0
H1501 H 0.06343 0.40634 0.37851 0.0
H1502 H 0.09528 0.42672 0.36262 0.0
H1503 H 0.13708 0.52763 0.35625 0.0
H1504 H 0.29826 0.56745 0.34089 0.0
H1505 H 0.24861 0.52633 0.34831 0.0
C1506 C 0.58674 0.74576 0.39357 0.0
C1507 C 0.58227 0.71733 0.39759 0.0
C1508 C 0.57437 0.74609 0.38379 0.0
C1509 C 0.54264 0.70051 0.35878 0.0
H1510 H 0.50111 0.74878 0.35732 0.0
C1511 C 0.4473 0.67761 0.32854 0.0
C1512 C 0.44153 0.7021 0.32663 0.0
C1513 C 0.47256 0.68323 0.3349 0.0
C1514 C 0.5133 0.73582 0.35743 0.0
H1515 H 0.56146 0.66692 0.39441 0.0
H1516 H 0.5393 0.66741 0.37735 0.0
H1517 H 0.52735 0.74998 0.37341 0.0
H1518 H 0.45924 0.75223 0.32874 0.0
H1519 H 0.50447 0.76266 0.33934 0.0
H1520 H 0.52772 0.68571 0.34281 0.0
C1521 C 0.55279 0.68954 0.38174 0.0
C1522 C 0.52823 0.73635 0.36674 0.0
C1523 C 0.56522 0.68919 0.39156 0.0
C1524 C 0.46353 0.73308 0.33001 0.0
C1525 C 0.48904 0.73884 0.33625 0.0
C1526 C 0.52772 0.70003 0.34941 0.0
C1527 C 0.55713 0.718 0.37776 0.0
C1528 C 0.54272 0.7184 0.36759 0.0
C1529 C 0.49248 0.71354 0.33941 0.0
C1530 C 0.51246 0.71736 0.34867 0.0
H1531 H 0.59997 0.76795 0.39795 0.0
H1532 H 0.57852 0.7685 0.38092 0.0
H1533 H 0.554 0.68676 0.35914 0.0
H1534 H 0.43021 0.6534 0.32618 0.0
H1535 H 0.47435 0.66312 0.33714 0.0
C1536 C 0.31654 0.87425 0.38517 0.0
C1537 C 0.34213 0.90454 0.38774 0.0
C1538 C 0.31398 0.86094 0.37516 0.0
C1539 C 0.36054 0.86227 0.35259 0.0
H1540 H 0.27757 0.80755 0.34055 0.0
C1541 C 0.34177 0.76885 0.32162 0.0
C1542 C 0.32149 0.73914 0.32604 0.0
C1543 C 0.34181 0.79576 0.32549 0.0
C1544 C 0.30097 0.82319 0.34369 0.0
H1545 H 0.38528 0.94456 0.3818 0.0
H1546 H 0.38092 0.92094 0.36424 0.0
H1547 H 0.2844 0.84356 0.3552 0.0
H1548 H 0.28312 0.7132 0.33692 0.0
H1549 H 0.28236 0.75965 0.34342 0.0
H1550 H 0.37678 0.84057 0.34148 0.0
C1551 C 0.36282 0.90766 0.37002 0.0
C1552 C 0.30487 0.8436 0.35212 0.0
C1553 C 0.36535 0.92111 0.38008 0.0
C1554 C 0.29892 0.73596 0.33342 0.0
C1555 C 0.29846 0.76259 0.3371 0.0
C1556 C 0.35666 0.84193 0.34412 0.0
C1557 C 0.33692 0.87751 0.36744 0.0
C1558 C 0.33437 0.86206 0.35702 0.0
C1559 C 0.32108 0.79297 0.33362 0.0
C1560 C 0.32654 0.821 0.33996 0.0
H1561 H 0.29824 0.86075 0.39087 0.0
H1562 H 0.29418 0.83731 0.37354 0.0
H1563 H 0.38356 0.87617 0.35619 0.0
H1564 H 0.35949 0.77173 0.31595 0.0
H1565 H 0.35939 0.81891 0.32265 0.0
C1566 C 0.32535 0.07266 0.11147 0.0
C1567 C 0.33455 0.08365 0.10116 0.0
C1568 C 0.30177 0.07533 0.11659 0.0
C1569 C 0.25626 0.11595 0.11577 0.0
H1570 H 0.19407 0.0421 0.13093 0.0
C1571 C 0.12932 0.08476 0.12326 0.0
C1572 C 0.11304 0.06687 0.13208 0.0
C1573 C 0.16079 0.09421 0.1216 0.0
C1574 C 0.21158 0.06328 0.12697 0.0
H1575 H 0.32647 0.1065 0.08821 0.0
H1576 H 0.28461 0.11048 0.09708 0.0
H1577 H 0.23965 0.04289 0.12344 0.0
H1578 H 0.11757 0.04697 0.14652 0.0
H1579 H 0.17287 0.06404 0.14375 0.0
H1580 H 0.22732 0.13576 0.11901 0.0
C1581 C 0.29607 0.10027 0.10126 0.0
C1582 C 0.23773 0.06368 0.12261 0.0
C1583 C 0.31985 0.09773 0.09613 0.0
C1584 C 0.12959 0.06106 0.13972 0.0
C1585 C 0.16114 0.07044 0.13804 0.0
C1586 C 0.23 0.11552 0.12012 0.0
C1587 C 0.28661 0.08888 0.11153 0.0
C1588 C 0.26011 0.08976 0.1168 0.0
C1589 C 0.17662 0.08582 0.12872 0.0
C1590 C 0.20704 0.0889 0.1256 0.0
H1591 H 0.33641 0.06202 0.11564 0.0
H1592 H 0.29547 0.06679 0.12456 0.0
H1593 H 0.27335 0.13665 0.1115 0.0
H1594 H 0.11713 0.08965 0.11726 0.0
H1595 H 0.17184 0.10587 0.11432 0.0
C1596 C 0.94829 0.25382 0.10432 0.0
C1597 C 0.93981 0.25297 0.09374 0.0
C1598 C 0.94787 0.22777 0.10868 0.0
C1599 C 0.9508 0.15667 0.10098 0.0
H1600 H 0.92315 0.13105 0.12968 0.0
C1601 C 0.94781 0.0483 0.11686 0.0
C1602 C 0.9632 0.05296 0.12653 0.0
C1603 C 0.9389 0.06943 0.11366 0.0
C1604 C 0.93101 0.13801 0.12167 0.0
H1605 H 0.92382 0.22389 0.07947 0.0
H1606 H 0.92279 0.17837 0.08708 0.0
H1607 H 0.92041 0.17509 0.1223 0.0
H1608 H 0.97927 0.08197 0.14078 0.0
H1609 H 0.96389 0.11929 0.13514 0.0
H1610 H 0.96182 0.12013 0.10034 0.0
C1611 C 0.93024 0.19936 0.09198 0.0
C1612 C 0.92954 0.16327 0.11744 0.0
C1613 C 0.93075 0.22544 0.08762 0.0
C1614 C 0.96717 0.07767 0.13333 0.0
C1615 C 0.95845 0.09909 0.13008 0.0
C1616 C 0.95219 0.1315 0.10518 0.0
C1617 C 0.93891 0.20025 0.10255 0.0
C1618 C 0.93952 0.17293 0.10705 0.0
C1619 C 0.94554 0.09595 0.12 0.0
C1620 C 0.94234 0.12184 0.11556 0.0
H1621 H 0.95539 0.27468 0.10926 0.0
H1622 H 0.95512 0.22944 0.11679 0.0
H1623 H 0.95933 0.16389 0.09304 0.0
H1624 H 0.94414 0.0292 0.11152 0.0
H1625 H 0.92819 0.06586 0.10598 0.0
C1626 C 0.75562 0.70773 0.10105 0.0
C1627 C 0.75865 0.69502 0.0914 0.0
C1628 C 0.78206 0.73182 0.10627 0.0
C1629 C 0.8695 0.77266 0.10721 0.0
H1630 H 0.86141 0.83884 0.12129 0.0
C1631 C 0.97221 0.89854 0.11822 0.0
C1632 C 0.96931 0.9132 0.12744 0.0
C1633 C 0.94854 0.86782 0.11532 0.0
C1634 C 0.86394 0.82024 0.11757 0.0
H1635 H 0.79188 0.69774 0.07962 0.0
H1636 H 0.83812 0.74082 0.08853 0.0
H1637 H 0.81592 0.79474 0.11272 0.0
H1638 H 0.94035 0.90631 0.14121 0.0
H1639 H 0.89926 0.85257 0.13622 0.0
H1640 H 0.91816 0.7994 0.11173 0.0
C1641 C 0.81531 0.73155 0.09221 0.0
C1642 C 0.83781 0.79489 0.11263 0.0
C1643 C 0.78879 0.70706 0.08705 0.0
C1644 C 0.94356 0.89559 0.13414 0.0
C1645 C 0.91979 0.86494 0.13121 0.0
C1646 C 0.89581 0.79831 0.11207 0.0
C1647 C 0.81227 0.74424 0.1019 0.0
C1648 C 0.84021 0.7708 0.10734 0.0
C1649 C 0.9214 0.85133 0.12155 0.0
C1650 C 0.89328 0.82241 0.11727 0.0
H1651 H 0.73279 0.69869 0.10471 0.0
H1652 H 0.77878 0.74046 0.1138 0.0
H1653 H 0.87213 0.7543 0.10336 0.0
H1654 H 0.99185 0.91156 0.11291 0.0
H1655 H 0.9504 0.858 0.10782 0.0
C1656 C 0.07712 0.32806 0.42269 0.0
C1657 C 0.06943 0.34693 0.41678 0.0
C1658 C 0.07974 0.30375 0.41778 0.0
C1659 C 0.05327 0.25144 0.39425 0.0
H1660 H 0.11999 0.23612 0.40138 0.0
C1661 C 0.0588 0.14939 0.37412 0.0
C1662 C 0.06247 0.12963 0.38102 0.0
C1663 C 0.06586 0.17965 0.37745 0.0
C1664 C 0.10117 0.24005 0.39932 0.0
H1665 H 0.05868 0.35513 0.40105 0.0
H1666 H 0.06323 0.31295 0.39257 0.0
H1667 H 0.11861 0.28073 0.40966 0.0
H1668 H 0.07857 0.12697 0.39655 0.0
H1669 H 0.09021 0.17929 0.40242 0.0
H1670 H 0.0352 0.21044 0.38417 0.0
C1671 C 0.06698 0.3167 0.401 0.0
C1672 C 0.10033 0.26553 0.40409 0.0
C1673 C 0.06446 0.34097 0.40588 0.0
C1674 C 0.07541 0.14161 0.39105 0.0
C1675 C 0.08228 0.17175 0.3944 0.0
C1676 C 0.05401 0.22596 0.38952 0.0
C1677 C 0.07457 0.29775 0.40688 0.0
C1678 C 0.07621 0.27133 0.40166 0.0
C1679 C 0.07641 0.19063 0.38779 0.0
C1680 C 0.0778 0.21975 0.39206 0.0
H1681 H 0.08119 0.33209 0.43109 0.0
H1682 H 0.0853 0.28931 0.42254 0.0
H1683 H 0.03411 0.25498 0.39231 0.0
H1684 H 0.04838 0.14078 0.36642 0.0
H1685 H 0.06162 0.19384 0.37208 0.0
C1686 C 0.7214 0.8184 0.42021 0.0
C1687 C 0.70585 0.78665 0.41665 0.0
C1688 C 0.74447 0.84245 0.41402 0.0
C1689 C 0.79857 0.85676 0.39175 0.0
H1690 H 0.80438 0.93844 0.3916 0.0
C1691 C 0.89857 0.96047 0.36971 0.0
C1692 C 0.91617 0.98661 0.3765 0.0
C1693 C 0.86797 0.93692 0.37245 0.0
C1694 C 0.80289 0.91569 0.39151 0.0
H1695 H 0.70266 0.75519 0.40382 0.0
H1696 H 0.74265 0.79715 0.39299 0.0
H1697 H 0.76153 0.89456 0.40112 0.0
H1698 H 0.91504 0.01027 0.39093 0.0
H1699 H 0.86164 0.96959 0.39565 0.0
H1700 H 0.84029 0.87808 0.38233 0.0
C1701 C 0.73731 0.80347 0.40063 0.0
C1702 C 0.77854 0.89063 0.39703 0.0
C1703 C 0.71436 0.77939 0.40685 0.0
C1704 C 0.90182 0.99034 0.38555 0.0
C1705 C 0.87121 0.96706 0.38823 0.0
C1706 C 0.82279 0.88175 0.38618 0.0
C1707 C 0.75239 0.83534 0.40409 0.0
C1708 C 0.77657 0.8611 0.39744 0.0
C1709 C 0.85453 0.93939 0.38197 0.0
C1710 C 0.82566 0.9117 0.38621 0.0
H1711 H 0.71546 0.82478 0.42773 0.0
H1712 H 0.75613 0.86665 0.41704 0.0
H1713 H 0.79797 0.83447 0.39197 0.0
H1714 H 0.90938 0.9568 0.3628 0.0
H1715 H 0.85552 0.91593 0.36743 0.0
C1716 C 0.24804 0.94745 0.3895 0.0
C1717 C 0.24615 0.93678 0.39982 0.0
C1718 C 0.22312 0.94878 0.38515 0.0
C1719 C 0.13814 0.91812 0.38776 0.0
H1720 H 0.15853 0.99482 0.37316 0.0
C1721 C 0.05051 0.95923 0.38159 0.0
C1722 C 0.05406 0.97805 0.37293 0.0
C1723 C 0.07087 0.94803 0.38303 0.0
C1724 C 0.15236 0.97288 0.37698 0.0
H1725 H 0.21638 0.91887 0.41363 0.0
H1726 H 0.17272 0.92155 0.40603 0.0
H1727 H 0.20064 0.9885 0.37979 0.0
H1728 H 0.08035 0.99809 0.35858 0.0
H1729 H 0.11554 0.97777 0.36092 0.0
H1730 H 0.08975 0.90282 0.38512 0.0
C1731 C 0.19351 0.92856 0.40129 0.0
C1732 C 0.17655 0.96935 0.38084 0.0
C1733 C 0.21859 0.92728 0.40568 0.0
C1734 C 0.07681 0.98336 0.36527 0.0
C1735 C 0.09725 0.9721 0.3667 0.0
C1736 C 0.11388 0.9216 0.38385 0.0
C1737 C 0.19561 0.93948 0.39099 0.0
C1738 C 0.16973 0.94219 0.38643 0.0
C1739 C 0.09531 0.95543 0.37583 0.0
C1740 C 0.12071 0.9493 0.37858 0.0
H1741 H 0.26884 0.95479 0.38473 0.0
H1742 H 0.22532 0.95694 0.37716 0.0
H1743 H 0.13217 0.89668 0.39188 0.0
H1744 H 0.03305 0.95462 0.3876 0.0
H1745 H 0.06874 0.93548 0.39018 0.0
C1746 C 0.72426 0.97515 0.9009 0.0
C1747 C 0.72453 0.99557 0.90889 0.0
C1748 C 0.75125 0.98388 0.89488 0.0
C1749 C 0.83693 0.03368 0.89612 0.0
H1750 H 0.8342 0.02267 0.86573 0.0
C1751 C 0.95033 0.06873 0.87414 0.0
C1752 C 0.94872 0.04707 0.86644 0.0
C1753 C 0.92298 0.06735 0.87773 0.0
C1754 C 0.83537 0.0257 0.87421 0.0
H1755 H 0.75339 0.04118 0.91679 0.0
H1756 H 0.80052 0.05609 0.90641 0.0
H1757 H 0.78602 0.00897 0.87543 0.0
H1758 H 0.91785 0.00853 0.85588 0.0
H1759 H 0.86971 0.00505 0.86244 0.0
H1760 H 0.88558 0.04899 0.89513 0.0
C1761 C 0.77942 0.03338 0.90479 0.0
C1762 C 0.80776 0.01787 0.87976 0.0
C1763 C 0.75239 0.02483 0.91073 0.0
C1764 C 0.91963 0.02564 0.86177 0.0
C1765 C 0.89204 0.02368 0.86557 0.0
C1766 C 0.86434 0.04112 0.89062 0.0
C1767 C 0.77916 0.01302 0.8968 0.0
C1768 C 0.8083 0.02176 0.89078 0.0
C1769 C 0.89327 0.04354 0.87397 0.0
C1770 C 0.86405 0.03729 0.87959 0.0
H1771 H 0.70313 0.95251 0.89923 0.0
H1772 H 0.75046 0.96757 0.88884 0.0
H1773 H 0.838 0.03643 0.90462 0.0
H1774 H 0.9726 0.08562 0.8778 0.0
H1775 H 0.92506 0.08388 0.8839 0.0
C1776 C 0.02664 0.7663 0.90761 0.0
C1777 C 0.05179 0.76254 0.90449 0.0
C1778 C 0.01791 0.78387 0.90153 0.0
C1779 C 0.04838 0.845 0.88091 0.0
H1780 H 0.96093 0.82139 0.87916 0.0
C1781 C 0.01361 0.9229 0.85899 0.0
C1782 C 0.99704 0.9327 0.86552 0.0
C1783 C 0.01588 0.89671 0.86167 0.0
C1784 C 0.98542 0.82815 0.87953 0.0
H1785 H 0.08725 0.77395 0.89244 0.0
H1786 H 0.07168 0.80397 0.88175 0.0
H1787 H 0.97474 0.78701 0.88823 0.0
H1788 H 0.96763 0.92137 0.8794 0.0
H1789 H 0.97115 0.87552 0.88398 0.0
H1790 H 0.05906 0.88633 0.87234 0.0
C1791 C 0.05906 0.79397 0.88901 0.0
C1792 C 0.9934 0.80862 0.8848 0.0
C1793 C 0.06796 0.77666 0.89513 0.0
C1794 C 0.98057 0.9143 0.87424 0.0
C1795 C 0.98251 0.88797 0.87684 0.0
C1796 C 0.04037 0.86434 0.87557 0.0
C1797 C 0.03395 0.79787 0.89212 0.0
C1798 C 0.02507 0.81716 0.88576 0.0
C1799 C 0.00131 0.87973 0.87085 0.0
C1800 C 0.00888 0.85649 0.87501 0.0
H1801 H 0.01373 0.75578 0.91478 0.0
H1802 H -0.00114 0.78685 0.9043 0.0
H1803 H 0.07304 0.85264 0.88159 0.0
H1804 H 0.0268 0.93685 0.85229 0.0
H1805 H 0.03028 0.89068 0.85685 0.0
C1806 C 0.28719 0.29724 0.90971 0.0
C1807 C 0.29541 0.32744 0.90621 0.0
C1808 C 0.26809 0.27014 0.90354 0.0
C1809 C 0.20988 0.2409 0.88194 0.0
H1810 H 0.22333 0.16995 0.88155 0.0
C1811 C 0.12399 0.1242 0.86027 0.0
C1812 C 0.11224 0.09781 0.86681 0.0
C1813 C 0.15134 0.15274 0.86308 0.0
C1814 C 0.21936 0.18962 0.88155 0.0
H1815 H 0.29027 0.35289 0.8934 0.0
H1816 H 0.25731 0.3057 0.8826 0.0
H1817 H 0.26082 0.21936 0.89065 0.0
H1818 H 0.12096 0.07968 0.88094 0.0
H1819 H 0.16858 0.12916 0.88581 0.0
H1820 H 0.16807 0.21094 0.87304 0.0
C1821 C 0.2652 0.30286 0.89019 0.0
C1822 C 0.24071 0.21786 0.88682 0.0
C1823 C 0.28418 0.32995 0.89638 0.0
C1824 C 0.12951 0.0997 0.87576 0.0
C1825 C 0.1569 0.12803 0.87852 0.0
C1826 C 0.18862 0.21272 0.87664 0.0
C1827 C 0.25688 0.2726 0.8937 0.0
C1828 C 0.23584 0.24361 0.88729 0.0
C1829 C 0.16746 0.15521 0.87244 0.0
C1830 C 0.19273 0.18652 0.87658 0.0
H1831 H 0.29538 0.29446 0.91725 0.0
H1832 H 0.26169 0.24718 0.90659 0.0
H1833 H 0.20515 0.26007 0.88223 0.0
H1834 H 0.11092 0.12356 0.85341 0.0
H1835 H 0.1591 0.17323 0.85819 0.0
C1836 C 0.95207 0.69239 0.60472 0.0
C1837 C 0.935 0.6796 0.59531 0.0
C1838 C 0.95291 0.71832 0.60982 0.0
C1839 C 0.94469 0.78658 0.60456 0.0
H1840 H 0.93793 0.79155 0.63492 0.0
C1841 C 0.95182 0.89625 0.62355 0.0
C1842 C 0.971 0.90908 0.63249 0.0
C1843 C 0.94185 0.8654 0.62003 0.0
C1844 C 0.94007 0.79064 0.62644 0.0
H1845 H 0.90514 0.68388 0.58396 0.0
H1846 H 0.90685 0.72929 0.59282 0.0
H1847 H 0.9323 0.74352 0.62663 0.0
H1848 H 0.99371 0.89946 0.64507 0.0
H1849 H 0.97691 0.84561 0.63884 0.0
H1850 H 0.95356 0.83382 0.60428 0.0
C1851 C 0.91966 0.71929 0.59623 0.0
C1852 C 0.93682 0.76311 0.62169 0.0
C1853 C 0.91862 0.6932 0.59117 0.0
C1854 C 0.97845 0.88985 0.63826 0.0
C1855 C 0.96889 0.85903 0.63464 0.0
C1856 C 0.94818 0.81411 0.60929 0.0
C1857 C 0.93691 0.73221 0.60559 0.0
C1858 C 0.93919 0.76084 0.61069 0.0
C1859 C 0.95148 0.84689 0.62523 0.0
C1860 C 0.94598 0.81661 0.6203 0.0
H1861 H 0.96488 0.68242 0.60815 0.0
H1862 H 0.96668 0.72794 0.61695 0.0
H1863 H 0.94721 0.78584 0.59609 0.0
H1864 H 0.94566 0.91062 0.61899 0.0
H1865 H 0.92766 0.85657 0.61296 0.0
C1866 C 0.33896 0.23304 0.6034 0.0
C1867 C 0.34613 0.26349 0.60675 0.0
C1868 C 0.31394 0.20593 0.60795 0.0
C1869 C 0.26281 0.17775 0.6315 0.0
H1870 H 0.20294 0.11154 0.61262 0.0
C1871 C 0.13596 0.08364 0.64381 0.0
C1872 C 0.12053 0.05452 0.63828 0.0
C1873 C 0.16699 0.10668 0.64127 0.0
C1874 C 0.2197 0.12932 0.61808 0.0
H1875 H 0.33299 0.2893 0.61766 0.0
H1876 H 0.28953 0.24207 0.62558 0.0
H1877 H 0.25016 0.15649 0.60549 0.0
H1878 H 0.12583 0.02551 0.62637 0.0
H1879 H 0.18039 0.06483 0.62229 0.0
H1880 H 0.23225 0.15067 0.64411 0.0
C1881 C 0.30328 0.23915 0.61947 0.0
C1882 C 0.24678 0.15525 0.61394 0.0
C1883 C 0.32803 0.26621 0.61485 0.0
C1884 C 0.13734 0.0478 0.63077 0.0
C1885 C 0.16845 0.07055 0.62834 0.0
C1886 C 0.23582 0.15161 0.63566 0.0
C1887 C 0.29582 0.2087 0.61603 0.0
C1888 C 0.2684 0.18001 0.62058 0.0
C1889 C 0.18319 0.1009 0.63317 0.0
C1890 C 0.21363 0.12723 0.62899 0.0
H1891 H 0.35247 0.23011 0.5972 0.0
H1892 H 0.30886 0.18278 0.60518 0.0
H1893 H 0.27927 0.19631 0.63683 0.0
H1894 H 0.12322 0.08963 0.64946 0.0
H1895 H 0.17734 0.12976 0.64512 0.0
C1896 C 0.81493 0.10112 0.5959 0.0
C1897 C 0.7861 0.09069 0.60106 0.0
C1898 C 0.83963 0.10092 0.60104 0.0
C1899 C 0.85488 0.06266 0.62301 0.0
H1900 H 0.94183 0.12843 0.61844 0.0
C1901 C 0.95574 0.05473 0.6415 0.0
C1902 C 0.97875 0.05827 0.63418 0.0
C1903 C 0.93457 0.06442 0.63903 0.0
C1904 C 0.91766 0.1099 0.6198 0.0
H1905 H 0.76088 0.07249 0.61575 0.0
H1906 H 0.80393 0.07249 0.6247 0.0
H1907 H 0.89966 0.13334 0.61079 0.0
H1908 H -0.00086 0.0769 0.61891 0.0
H1909 H 0.9624 0.09369 0.61462 0.0
H1910 H 0.87281 0.03886 0.63181 0.0
C1911 C 0.80735 0.08034 0.61664 0.0
C1912 C 0.8935 0.11263 0.61538 0.0
C1913 C 0.78267 0.08045 0.6115 0.0
C1914 C 0.98157 0.07371 0.6247 0.0
C1915 C 0.96059 0.08353 0.62226 0.0
C1916 C 0.87901 0.05997 0.62745 0.0
C1917 C 0.83609 0.09036 0.61145 0.0
C1918 C 0.86181 0.08876 0.61677 0.0
C1919 C 0.93614 0.07799 0.62923 0.0
C1920 C 0.91071 0.08326 0.62574 0.0
H1921 H 0.81834 0.10915 0.58786 0.0
H1922 H 0.86128 0.1084 0.59675 0.0
H1923 H 0.8308 0.0436 0.62414 0.0
H1924 H 0.95278 0.04271 0.64884 0.0
H1925 H 0.91622 0.06021 0.64463 0.0
C1926 C 0.96858 0.3872 0.44634 0.0
C1927 C 0.98023 0.40435 0.437 0.0
C1928 C 0.94243 0.38501 0.45144 0.0
C1929 C 0.89773 0.42561 0.45405 0.0
H1930 H 0.83004 0.34457 0.46388 0.0
C1931 C 0.77305 0.40021 0.46165 0.0
C1932 C 0.75377 0.37796 0.46918 0.0
C1933 C 0.80358 0.40683 0.45984 0.0
C1934 C 0.84903 0.36755 0.46142 0.0
H1935 H 0.97325 0.43233 0.42562 0.0
H1936 H 0.92751 0.42848 0.43452 0.0
H1937 H 0.87683 0.34816 0.45602 0.0
H1938 H 0.75218 0.34687 0.48122 0.0
H1939 H 0.80597 0.35862 0.47819 0.0
H1940 H 0.86989 0.44499 0.45932 0.0
C1941 C 0.93884 0.41695 0.43794 0.0
C1942 C 0.87577 0.36954 0.45684 0.0
C1943 C 0.96486 0.41892 0.43279 0.0
C1944 C 0.7665 0.36416 0.47542 0.0
C1945 C 0.79719 0.37065 0.47357 0.0
C1946 C 0.87112 0.42367 0.45868 0.0
C1947 C 0.92747 0.40016 0.44736 0.0
C1948 C 0.90009 0.39845 0.45289 0.0
C1949 C 0.81571 0.39131 0.46551 0.0
C1950 C 0.84607 0.39446 0.46219 0.0
H1951 H 0.97987 0.37569 0.4498 0.0
H1952 H 0.93433 0.37203 0.4587 0.0
H1953 H 0.9164 0.44836 0.45129 0.0
H1954 H 0.76394 0.41137 0.45673 0.0
H1955 H 0.81691 0.42264 0.45351 0.0
C1956 C 0.63809 0.62944 0.45192 0.0
C1957 C 0.6278 0.63025 0.44172 0.0
C1958 C 0.63722 0.60226 0.45545 0.0
C1959 C 0.63543 0.53044 0.44536 0.0
H1960 H 0.61014 0.49984 0.47379 0.0
C1961 C 0.616 0.41035 0.45627 0.0
C1962 C 0.63017 0.40868 0.46555 0.0
C1963 C 0.61316 0.43651 0.45438 0.0
C1964 C 0.61751 0.50829 0.46586 0.0
H1965 H 0.60798 0.60283 0.4273 0.0
H1966 H 0.60625 0.55542 0.43346 0.0
H1967 H 0.61045 0.54747 0.46832 0.0
H1968 H 0.65047 0.43208 0.48049 0.0
H1969 H 0.64584 0.47855 0.47712 0.0
H1970 H 0.6426 0.4916 0.44284 0.0
C1971 C 0.61543 0.57597 0.4387 0.0
C1972 C 0.61771 0.53555 0.46272 0.0
C1973 C 0.61629 0.60312 0.43517 0.0
C1974 C 0.63949 0.43281 0.47327 0.0
C1975 C 0.63686 0.45936 0.47132 0.0
C1976 C 0.63521 0.50333 0.44848 0.0
C1977 C 0.62611 0.57526 0.44885 0.0
C1978 C 0.62637 0.54673 0.45239 0.0
C1979 C 0.62471 0.46195 0.46167 0.0
C1980 C 0.62587 0.49164 0.45871 0.0
H1981 H 0.64707 0.64991 0.45719 0.0
H1982 H 0.64591 0.60266 0.46327 0.0
H1983 H 0.64302 0.5388 0.43744 0.0
H1984 H 0.60806 0.39184 0.45025 0.0
H1985 H 0.6028 0.43726 0.44702 0.0
C1986 C 0.40511 0.04493 0.41758 0.0
C1987 C 0.38587 0.01775 0.42349 0.0
C1988 C 0.43125 0.07122 0.42221 0.0
C1989 C 0.46291 0.11247 0.44724 0.0
H1990 H 0.54333 0.15124 0.43285 0.0
C1991 C 0.57348 0.22422 0.46428 0.0
C1992 C 0.5924 0.24745 0.45694 0.0
C1993 C 0.54965 0.19401 0.46085 0.0
C1994 C 0.521 0.14094 0.43694 0.0
H1995 H 0.37866 0.99696 0.43892 0.0
H1996 H 0.42405 0.04332 0.44705 0.0
H1997 H 0.49843 0.10323 0.42547 0.0
H1998 H 0.60131 0.25702 0.44026 0.0
H1999 H 0.55963 0.2052 0.43434 0.0
H2000 H 0.48496 0.15082 0.45849 0.0
C2001 C 0.41897 0.04406 0.43883 0.0
C2002 C 0.49535 0.11338 0.43271 0.0
C2003 C 0.3931 0.01754 0.43415 0.0
C2004 C 0.58733 0.23968 0.44615 0.0
C2005 C 0.56347 0.20974 0.44274 0.0
C2006 C 0.4885 0.14035 0.45141 0.0
C2007 C 0.43839 0.07105 0.43287 0.0
C2008 C 0.46597 0.09913 0.43774 0.0
C2009 C 0.54417 0.18652 0.45002 0.0
C2010 C 0.51775 0.15523 0.44621 0.0
H2011 H 0.4002 0.04579 0.40935 0.0
H2012 H 0.44572 0.09188 0.41748 0.0
H2013 H 0.44043 0.10198 0.45125 0.0
H2014 H 0.57689 0.22944 0.47266 0.0
H2015 H 0.53551 0.17659 0.46669 0.0
C2016 C 0.65647 0.5892 0.75289 0.0
C2017 C 0.68311 0.61657 0.74905 0.0
C2018 C 0.64442 0.5601 0.74749 0.0
C2019 C 0.64435 0.52451 0.7216 0.0
H2020 H 0.6367 0.45485 0.73765 0.0
C2021 C 0.66239 0.42738 0.70366 0.0
C2022 C 0.64887 0.39793 0.70857 0.0
C2023 C 0.65659 0.45066 0.70755 0.0
C2024 C 0.63778 0.47361 0.73303 0.0
H2025 H 0.71757 0.63505 0.73642 0.0
H2026 H 0.69651 0.58449 0.72705 0.0
H2027 H 0.64547 0.50261 0.74679 0.0
H2028 H 0.61666 0.36848 0.72072 0.0
H2029 H 0.60559 0.4087 0.7273 0.0
H2030 H 0.63742 0.49585 0.7078 0.0
C2031 C 0.68486 0.5855 0.73419 0.0
C2032 C 0.64296 0.50108 0.7383 0.0
C2033 C 0.69713 0.61438 0.73964 0.0
C2034 C 0.62753 0.39117 0.71686 0.0
C2035 C 0.62139 0.41428 0.72066 0.0
C2036 C 0.63883 0.49688 0.71631 0.0
C2037 C 0.65851 0.55805 0.73808 0.0
C2038 C 0.64739 0.52718 0.73262 0.0
C2039 C 0.63704 0.44481 0.71639 0.0
C2040 C 0.63661 0.47152 0.72194 0.0
H2041 H 0.64512 0.5902 0.7601 0.0
H2042 H 0.62408 0.53923 0.75065 0.0
H2043 H 0.64725 0.5442 0.71705 0.0
H2044 H 0.67924 0.43327 0.69734 0.0
H2045 H 0.66932 0.47393 0.7041 0.0
C2046 C 0.41676 0.08598 0.74239 0.0
C2047 C 0.41389 0.10383 0.75067 0.0
C2048 C 0.44411 0.09875 0.73631 0.0
C2049 C 0.52779 0.16291 0.73632 0.0
H2050 H 0.52046 0.15104 0.70595 0.0
C2051 C 0.63734 0.23111 0.71187 0.0
C2052 C 0.63398 0.24873 0.70401 0.0
C2053 C 0.61091 0.2045 0.71597 0.0
C2054 C 0.52293 0.15446 0.71442 0.0
H2055 H 0.43763 0.14905 0.75909 0.0
H2056 H 0.48525 0.17157 0.7484 0.0
H2057 H 0.47335 0.12448 0.71691 0.0
H2058 H 0.60115 0.25023 0.69331 0.0
H2059 H 0.55489 0.20443 0.70064 0.0
H2060 H 0.57689 0.19427 0.7339 0.0
C2061 C 0.4665 0.14746 0.74671 0.0
C2062 C 0.49596 0.13906 0.72071 0.0
C2063 C 0.43913 0.13464 0.75281 0.0
C2064 C 0.60437 0.237 0.69937 0.0
C2065 C 0.57779 0.2107 0.70361 0.0
C2066 C 0.55466 0.17836 0.73005 0.0
C2067 C 0.46925 0.12969 0.73836 0.0
C2068 C 0.49804 0.1437 0.73172 0.0
C2069 C 0.58062 0.19552 0.71244 0.0
C2070 C 0.55256 0.17486 0.719 0.0
H2071 H 0.39779 0.06207 0.74055 0.0
H2072 H 0.44561 0.0843 0.73004 0.0
H2073 H 0.5303 0.16656 0.74478 0.0
H2074 H 0.66004 0.23952 0.71549 0.0
H2075 H 0.61404 0.19261 0.7225 0.0
C2076 C 0.95143 0.36544 0.75093 0.0
C2077 C 0.95228 0.33882 0.74717 0.0
C2078 C 0.93656 0.37776 0.74511 0.0
C2079 C 0.9074 0.3779 0.71838 0.0
H2080 H 0.84918 0.39483 0.73346 0.0
C2081 C 0.8002 0.37317 0.69955 0.0
C2082 C 0.78714 0.38916 0.70474 0.0
C2083 C 0.8281 0.37628 0.70328 0.0
C2084 C 0.86592 0.39112 0.7291 0.0
H2085 H 0.93832 0.30438 0.73429 0.0
H2086 H 0.91209 0.3256 0.72423 0.0
H2087 H 0.88212 0.38126 0.74319 0.0
H2088 H 0.7947 0.42412 0.71682 0.0
H2089 H 0.84422 0.43097 0.72296 0.0
H2090 H 0.89046 0.38697 0.70423 0.0
C2091 C 0.92329 0.33723 0.73161 0.0
C2092 C 0.88474 0.38314 0.73471 0.0
C2093 C 0.93802 0.32485 0.73745 0.0
C2094 C 0.80427 0.41132 0.71278 0.0
C2095 C 0.83241 0.41492 0.71636 0.0
C2096 C 0.88864 0.38608 0.71273 0.0
C2097 C 0.92236 0.36379 0.73537 0.0
C2098 C 0.90515 0.37573 0.72941 0.0
C2099 C 0.84345 0.39577 0.71215 0.0
C2100 C 0.86715 0.39212 0.71802 0.0
H2101 H 0.96238 0.3769 0.75836 0.0
H2102 H 0.93636 0.39836 0.74818 0.0
H2103 H 0.9233 0.37276 0.71409 0.0
H2104 H 0.78727 0.35582 0.69336 0.0
H2105 H 0.83588 0.36118 0.69981 0.0
C2106 C 0.39413 0.28418 0.25075 0.0
C2107 C 0.37809 0.29389 0.24422 0.0
C2108 C 0.41999 0.28292 0.24692 0.0
C2109 C 0.45772 0.27842 0.22219 0.0
H2110 H 0.53213 0.31184 0.23965 0.0
C2111 C 0.58097 0.31157 0.20654 0.0
C2112 C 0.60145 0.3092 0.21348 0.0
C2113 C 0.55084 0.30368 0.20987 0.0
C2114 C 0.51135 0.3018 0.23473 0.0
H2115 H 0.37686 0.31023 0.2286 0.0
H2116 H 0.42215 0.30839 0.22199 0.0
H2117 H 0.48592 0.31122 0.2465 0.0
H2118 H 0.60539 0.29349 0.2289 0.0
H2119 H 0.55265 0.2788 0.23457 0.0
H2120 H 0.48347 0.26943 0.21035 0.0
C2121 C 0.41445 0.30129 0.23001 0.0
C2122 C 0.48487 0.30156 0.23866 0.0
C2123 C 0.38867 0.30263 0.23384 0.0
C2124 C 0.59027 0.29604 0.22343 0.0
C2125 C 0.56014 0.28786 0.22671 0.0
C2126 C 0.48425 0.27858 0.21825 0.0
C2127 C 0.4303 0.29127 0.23648 0.0
C2128 C 0.45787 0.29014 0.23241 0.0
C2129 C 0.54064 0.29301 0.22017 0.0
C2130 C 0.51146 0.29047 0.22446 0.0
H2131 H 0.38648 0.27714 0.25877 0.0
H2132 H 0.4316 0.27489 0.25208 0.0
H2133 H 0.43707 0.26906 0.21724 0.0
H2134 H 0.58896 0.32168 0.19882 0.0
H2135 H 0.53643 0.30795 0.20463 0.0
C2136 C 0.74104 0.11305 0.24343 0.0
C2137 C 0.72382 0.08505 0.23736 0.0
C2138 C 0.74716 0.14214 0.2396 0.0
C2139 C 0.7501 0.18221 0.21483 0.0
H2140 H 0.74208 0.24072 0.23365 0.0
C2141 C 0.73484 0.28516 0.20126 0.0
C2142 C 0.74547 0.31166 0.20806 0.0
C2143 C 0.73895 0.26009 0.20396 0.0
C2144 C 0.7451 0.22501 0.22831 0.0
H2145 H 0.699 0.06558 0.22258 0.0
H2146 H 0.70916 0.11611 0.21602 0.0
H2147 H 0.73428 0.19144 0.24043 0.0
H2148 H 0.77218 0.33464 0.22225 0.0
H2149 H 0.78036 0.29159 0.22673 0.0
H2150 H 0.76023 0.21567 0.20265 0.0
C2151 C 0.7185 0.11574 0.22364 0.0
C2152 C 0.7405 0.19664 0.23222 0.0
C2153 C 0.7124 0.0867 0.22747 0.0
C2154 C 0.76336 0.31428 0.21693 0.0
C2155 C 0.76777 0.28947 0.21955 0.0
C2156 C 0.7547 0.21068 0.21091 0.0
C2157 C 0.73616 0.14386 0.22962 0.0
C2158 C 0.74261 0.17473 0.22551 0.0
C2159 C 0.75404 0.26133 0.21343 0.0
C2160 C 0.75202 0.23232 0.2176 0.0
H2161 H 0.75035 0.11264 0.25106 0.0
H2162 H 0.76105 0.16339 0.24438 0.0
H2163 H 0.75237 0.16604 0.20949 0.0
H2164 H 0.72088 0.28246 0.19439 0.0
H2165 H 0.72814 0.2388 0.19904 0.0
C2166 C 0.91559 0.68034 0.24581 0.0
C2167 C 0.94627 0.68811 0.24312 0.0
C2168 C 0.88958 0.65404 0.24112 0.0
C2169 C 0.86437 0.60291 0.21758 0.0
H2170 H 0.79931 0.54009 0.23551 0.0
C2171 C 0.77246 0.47605 0.20306 0.0
C2172 C 0.74432 0.45913 0.20873 0.0
C2173 C 0.79478 0.5073 0.20606 0.0
C2174 C 0.81671 0.55768 0.23031 0.0
H2175 H 0.97381 0.67458 0.23336 0.0
H2176 H 0.92825 0.6288 0.22509 0.0
H2177 H 0.84306 0.58768 0.24336 0.0
H2178 H 0.71562 0.46211 0.22112 0.0
H2179 H 0.7533 0.51722 0.22586 0.0
H2180 H 0.83794 0.57319 0.20449 0.0
C2181 C 0.92443 0.64306 0.23084 0.0
C2182 C 0.84197 0.58487 0.23486 0.0
C2183 C 0.95044 0.66903 0.23567 0.0
C2184 C 0.73734 0.47475 0.21669 0.0
C2185 C 0.75919 0.50617 0.21949 0.0
C2186 C 0.83877 0.57591 0.21298 0.0
C2187 C 0.89378 0.63537 0.23352 0.0
C2188 C 0.86624 0.6075 0.22856 0.0
C2189 C 0.78896 0.52226 0.21465 0.0
C2190 C 0.81476 0.55268 0.2193 0.0
H2191 H 0.91167 0.69467 0.25151 0.0
H2192 H 0.86616 0.64859 0.24331 0.0
H2193 H 0.8827 0.62026 0.21254 0.0
H2194 H 0.7784 0.46428 0.19696 0.0
H2195 H 0.81738 0.51874 0.20213 0.0
C2196 C 0.61288 0.0467 0.92515 0.0
C2197 C 0.62723 0.0315 0.92962 0.0
C2198 C 0.61311 0.07196 0.93043 0.0
C2199 C 0.62801 0.11426 0.95637 0.0
H2200 H 0.63955 0.18247 0.93858 0.0
C2201 C 0.66242 0.24409 0.96909 0.0
C2202 C 0.6471 0.25635 0.96338 0.0
C2203 C 0.65602 0.21322 0.96691 0.0
C2204 C 0.63598 0.16346 0.94365 0.0
H2205 H 0.65264 0.03045 0.94322 0.0
H2206 H 0.6541 0.07555 0.95232 0.0
H2207 H 0.63789 0.1364 0.93066 0.0
H2208 H 0.61033 0.24493 0.95202 0.0
H2209 H 0.59885 0.19122 0.94837 0.0
H2210 H 0.62729 0.14259 0.96942 0.0
C2211 C 0.64205 0.06746 0.94482 0.0
C2212 C 0.63491 0.13694 0.93911 0.0
C2213 C 0.64142 0.04178 0.93958 0.0
C2214 C 0.62284 0.23621 0.9564 0.0
C2215 C 0.61633 0.20552 0.95429 0.0
C2216 C 0.62948 0.14121 0.96096 0.0
C2217 C 0.62822 0.08312 0.94024 0.0
C2218 C 0.63041 0.11172 0.94536 0.0
C2219 C 0.63409 0.19441 0.95906 0.0
C2220 C 0.63296 0.16578 0.95459 0.0
H2221 H 0.60128 0.03898 0.91757 0.0
H2222 H 0.60144 0.08281 0.92678 0.0
H2223 H 0.62444 0.09523 0.96141 0.0
H2224 H 0.68115 0.25912 0.97451 0.0
H2225 H 0.66995 0.20512 0.97072 0.0
C2226 C 0.98632 0.59957 0.91203 0.0
C2227 C 0.00738 0.62486 0.91862 0.0
C2228 C 0.95966 0.57335 0.91622 0.0
C2229 C 0.92494 0.53166 0.9412 0.0
H2230 H 0.84684 0.49583 0.92558 0.0
C2231 C 0.80178 0.44086 0.9581 0.0
C2232 C 0.78083 0.41643 0.9512 0.0
C2233 C 0.83103 0.46505 0.95448 0.0
C2234 C 0.86855 0.50532 0.92998 0.0
H2235 H 0.01706 0.64249 0.93479 0.0
H2236 H 0.97018 0.59704 0.94206 0.0
H2237 H 0.8944 0.54074 0.91853 0.0
H2238 H 0.77494 0.39723 0.93526 0.0
H2239 H 0.82582 0.43916 0.92902 0.0
H2240 H 0.89864 0.49634 0.95275 0.0
C2241 C 0.97454 0.59718 0.93368 0.0
C2242 C 0.89584 0.53105 0.92593 0.0
C2243 C 0.00131 0.62333 0.9295 0.0
C2244 C 0.79034 0.41586 0.94077 0.0
C2245 C 0.81944 0.43998 0.93716 0.0
C2246 C 0.89751 0.50594 0.94529 0.0
C2247 C 0.95334 0.57192 0.92709 0.0
C2248 C 0.9244 0.54448 0.93147 0.0
C2249 C 0.83977 0.46522 0.9439 0.0
C2250 C 0.86908 0.49243 0.93968 0.0
H2251 H 0.99046 0.5999 0.90363 0.0
H2252 H 0.94409 0.55407 0.91094 0.0
H2253 H 0.94663 0.54122 0.94561 0.0
H2254 H 0.79518 0.44192 0.9662 0.0
H2255 H 0.84621 0.48427 0.95985 0.0
C2256 C 0.44021 0.41462 0.92944 0.0
C2257 C 0.41758 0.4133 0.93649 0.0
C2258 C 0.46474 0.41121 0.93303 0.0
C2259 C 0.51002 0.41651 0.95659 0.0
H2260 H 0.53178 0.36482 0.93922 0.0
C2261 C 0.60435 0.38283 0.9669 0.0
C2262 C 0.62354 0.38479 0.95836 0.0
C2263 C 0.57911 0.3876 0.96537 0.0
C2264 C 0.5261 0.37947 0.94413 0.0
H2265 H 0.40327 0.40788 0.9529 0.0
H2266 H 0.44616 0.40167 0.95915 0.0
H2267 H 0.48742 0.36988 0.93432 0.0
H2268 H 0.63297 0.39584 0.94177 0.0
H2269 H 0.58958 0.40426 0.93919 0.0
H2270 H 0.54915 0.42609 0.96638 0.0
C2271 C 0.44495 0.40556 0.95085 0.0
C2272 C 0.50072 0.38242 0.94131 0.0
C2273 C 0.4203 0.40894 0.94726 0.0
C2274 C 0.61829 0.39352 0.94848 0.0
C2275 C 0.59333 0.39826 0.94698 0.0
C2276 C 0.53555 0.41349 0.95944 0.0
C2277 C 0.46724 0.40634 0.94375 0.0
C2278 C 0.49279 0.40152 0.94736 0.0
C2279 C 0.57285 0.39433 0.95529 0.0
C2280 C 0.54423 0.39552 0.95308 0.0
H2281 H 0.43896 0.41816 0.92111 0.0
H2282 H 0.48187 0.4125 0.92738 0.0
H2283 H 0.50446 0.43143 0.9614 0.0
H2284 H 0.60793 0.37628 0.97462 0.0
H2285 H 0.56373 0.38461 0.97193 0.0
C2286 C 0.64379 0.7105 0.76737 0.0
C2287 C 0.66886 0.71985 0.77439 0.0
C2288 C 0.61476 0.70511 0.77101 0.0
C2289 C 0.56696 0.68813 0.79542 0.0
H2290 H 0.51763 0.71017 0.77804 0.0
C2291 C 0.45272 0.68649 0.80869 0.0
C2292 C 0.42882 0.67543 0.80107 0.0
C2293 C 0.4816 0.6892 0.80617 0.0
C2294 C 0.531 0.70358 0.78295 0.0
H2295 H 0.68338 0.73175 0.79072 0.0
H2296 H 0.63307 0.72322 0.79703 0.0
H2297 H 0.56941 0.72248 0.7721 0.0
H2298 H 0.41541 0.65624 0.78519 0.0
H2299 H 0.46543 0.66075 0.78086 0.0
H2300 H 0.52839 0.66976 0.80635 0.0
C2301 C 0.63553 0.71926 0.78874 0.0
C2302 C 0.5607 0.7106 0.77953 0.0
C2303 C 0.66448 0.72443 0.78511 0.0
C2304 C 0.43351 0.66513 0.79119 0.0
C2305 C 0.46221 0.66788 0.78868 0.0
C2306 C 0.53724 0.68134 0.79888 0.0
C2307 C 0.61017 0.7092 0.78176 0.0
C2308 C 0.57898 0.70269 0.78565 0.0
C2309 C 0.48697 0.68106 0.79599 0.0
C2310 C 0.51882 0.68865 0.79261 0.0
H2311 H 0.64627 0.70649 0.75908 0.0
H2312 H 0.59568 0.69694 0.76542 0.0
H2313 H 0.58021 0.68136 0.80029 0.0
H2314 H 0.44997 0.69509 0.81631 0.0
H2315 H 0.50032 0.69946 0.81196 0.0
C2316 C 0.3283 0.95427 0.77306 0.0
C2317 C 0.31103 0.96466 0.77895 0.0
C2318 C 0.33681 0.934 0.77746 0.0
C2319 C 0.31672 0.8756 0.79809 0.0
H2320 H 0.40222 0.89481 0.79366 0.0
C2321 C 0.35614 0.79183 0.81294 0.0
C2322 C 0.37166 0.78386 0.80527 0.0
C2323 C 0.35264 0.81802 0.81159 0.0
C2324 C 0.37824 0.88905 0.79495 0.0
H2325 H 0.2882 0.96095 0.79398 0.0
H2326 H 0.30274 0.92511 0.8016 0.0
H2327 H 0.3864 0.93076 0.78715 0.0
H2328 H 0.39747 0.79816 0.79056 0.0
H2329 H 0.39124 0.84338 0.78816 0.0
H2330 H 0.30815 0.83329 0.80554 0.0
C2331 C 0.30982 0.93287 0.79359 0.0
C2332 C 0.36918 0.90962 0.7912 0.0
C2333 C 0.30152 0.95341 0.78922 0.0
C2334 C 0.38541 0.80375 0.79662 0.0
C2335 C 0.38195 0.82983 0.79527 0.0
C2336 C 0.32572 0.85487 0.80178 0.0
C2337 C 0.32803 0.92342 0.78782 0.0
C2338 C 0.33815 0.90278 0.79254 0.0
C2339 C 0.36458 0.83667 0.80255 0.0
C2340 C 0.35642 0.86099 0.80005 0.0
H2341 H 0.336 0.96243 0.76512 0.0
H2342 H 0.35037 0.92666 0.77274 0.0
H2343 H 0.29261 0.86966 0.7992 0.0
H2344 H 0.34478 0.77664 0.81958 0.0
H2345 H 0.33948 0.82288 0.81742 0.0
C2346 C 0.08703 0.38306 0.77114 0.0
C2347 C 0.07719 0.38334 0.76082 0.0
C2348 C 0.10906 0.41136 0.77625 0.0
C2349 C 0.17071 0.49437 0.77084 0.0
H2350 H 0.1607 0.50957 0.80034 0.0
C2351 C 0.24931 0.61668 0.78932 0.0
C2352 C 0.26444 0.61773 0.79872 0.0
C2353 C 0.22354 0.5883 0.78566 0.0
C2354 C 0.16385 0.50554 0.79212 0.0
H2355 H 0.08278 0.41362 0.7478 0.0
H2356 H 0.12079 0.46281 0.75672 0.0
H2357 H 0.12246 0.45905 0.79183 0.0
H2358 H 0.26316 0.59035 0.81204 0.0
H2359 H 0.21785 0.54045 0.80563 0.0
H2360 H 0.21192 0.54064 0.77106 0.0
C2361 C 0.11192 0.44072 0.76082 0.0
C2362 C 0.14205 0.4766 0.78725 0.0
C2363 C 0.09001 0.41249 0.75571 0.0
C2364 C 0.25177 0.59032 0.80482 0.0
C2365 C 0.22592 0.56172 0.80112 0.0
C2366 C 0.19231 0.52319 0.77567 0.0
C2367 C 0.12171 0.44055 0.77116 0.0
C2368 C 0.14514 0.47079 0.77652 0.0
C2369 C 0.21242 0.5602 0.79128 0.0
C2370 C 0.18902 0.52927 0.78633 0.0
H2371 H 0.07757 0.361 0.77531 0.0
H2372 H 0.11637 0.41032 0.78416 0.0
H2373 H 0.17427 0.49046 0.76264 0.0
H2374 H 0.25835 0.63754 0.78451 0.0
H2375 H 0.21313 0.58807 0.77818 0.0
C2376 C 0.41364 0.98345 0.07629 0.0
C2377 C 0.39784 -0.00031 0.07439 0.0
C2378 C 0.40578 0.95558 0.07066 0.0
C2379 C 0.34319 0.89009 0.05464 0.0
H2380 H 0.41161 0.87803 0.04607 0.0
C2381 C 0.32626 0.77649 0.03224 0.0
C2382 C 0.34167 0.76331 0.03737 0.0
C2383 C 0.33226 0.80685 0.03522 0.0
C2384 C 0.39224 0.88112 0.04837 0.0
H2385 H 0.36083 0.99889 0.06519 0.0
H2386 H 0.34722 0.95025 0.05534 0.0
H2387 H 0.42332 0.92782 0.05457 0.0
H2388 H 0.37606 0.77195 0.04942 0.0
H2389 H 0.38662 0.82429 0.05444 0.0
H2390 H 0.31216 0.84287 0.04855 0.0
C2391 C 0.3656 0.95903 0.06123 0.0
C2392 C 0.39893 0.90954 0.05331 0.0
C2393 C 0.37349 0.98698 0.06687 0.0
C2394 C 0.36356 0.78124 0.04534 0.0
C2395 C 0.36987 0.81143 0.04817 0.0
C2396 C 0.33648 0.86155 0.04964 0.0
C2397 C 0.38193 0.94322 0.06297 0.0
C2398 C 0.37451 0.91407 0.05679 0.0
C2399 C 0.35429 0.82461 0.0432 0.0
C2400 C 0.36097 0.85648 0.04674 0.0
H2401 H 0.43239 0.99244 0.08205 0.0
H2402 H 0.41841 0.94366 0.07236 0.0
H2403 H 0.32381 0.89279 0.05722 0.0
H2404 H 0.30914 0.76314 0.02616 0.0
H2405 H 0.31987 0.81648 0.03127 0.0
C2406 C 0.02172 0.39682 0.05644 0.0
C2407 C 0.0246 0.3829 0.06558 0.0
C2408 C 0.0485 0.41944 0.05103 0.0
C2409 C 0.13461 0.45087 0.04845 0.0
H2410 H 0.13716 0.5248 0.03724 0.0
C2411 C 0.24815 0.57003 0.04245 0.0
C2412 C 0.25177 0.58776 0.03347 0.0
C2413 C 0.22018 0.54157 0.04426 0.0
C2414 C 0.1366 0.50398 0.04014 0.0
H2415 H 0.05795 0.38224 0.07629 0.0
H2416 H 0.10449 0.42217 0.06708 0.0
H2417 H 0.08846 0.48258 0.04493 0.0
H2418 H 0.22937 0.58925 0.01916 0.0
H2419 H 0.17956 0.53928 0.02247 0.0
H2420 H 0.18323 0.47313 0.04411 0.0
C2421 C 0.0816 0.41508 0.06388 0.0
C2422 C 0.10869 0.47976 0.04457 0.0
C2423 C 0.05485 0.39234 0.06924 0.0
C2424 C 0.2272 0.57586 0.02609 0.0
C2425 C 0.19873 0.54749 0.02803 0.0
C2426 C 0.16252 0.47518 0.04411 0.0
C2427 C 0.07883 0.42883 0.05466 0.0
C2428 C 0.10754 0.45322 0.04903 0.0
C2429 C 0.19485 0.53035 0.03723 0.0
C2430 C 0.16402 0.50232 0.04012 0.0
H2431 H -0.00125 0.38994 0.05336 0.0
H2432 H 0.04538 0.4292 0.04391 0.0
H2433 H 0.13445 0.43045 0.05153 0.0
H2434 H 0.26678 0.57867 0.04825 0.0
H2435 H 0.21785 0.52914 0.05146 0.0
C2436 C 0.58147 0.6384 0.07264 0.0
C2437 C 0.61327 0.66274 0.07296 0.0
C2438 C 0.55967 0.64186 0.06686 0.0
C2439 C 0.54532 0.70085 0.0548 0.0
H2440 H 0.48313 0.62743 0.03874 0.0
C2441 C 0.4454 0.70099 0.03132 0.0
C2442 C 0.41565 0.67557 0.03412 0.0
C2443 C 0.47269 0.70094 0.03412 0.0
C2444 C 0.50042 0.64819 0.04315 0.0
H2445 H 0.64687 0.71027 0.06771 0.0
H2446 H 0.60875 0.71627 0.05764 0.0
H2447 H 0.52421 0.62484 0.04816 0.0
H2448 H 0.39081 0.62954 0.04142 0.0
H2449 H 0.43784 0.62917 0.0461 0.0
H2450 H 0.52085 0.72386 0.04998 0.0
C2451 C 0.6007 0.69453 0.06188 0.0
C2452 C 0.52382 0.64664 0.04861 0.0
C2453 C 0.62254 0.69104 0.06764 0.0
C2454 C 0.4135 0.64948 0.03919 0.0
C2455 C 0.44048 0.64919 0.04182 0.0
C2456 C 0.52182 0.7024 0.04933 0.0
C2457 C 0.56911 0.66976 0.06126 0.0
C2458 C 0.54603 0.67263 0.05474 0.0
C2459 C 0.47042 0.67517 0.03955 0.0
C2460 C 0.49861 0.67576 0.04368 0.0
H2461 H 0.57349 0.61632 0.07666 0.0
H2462 H 0.53537 0.62256 0.06673 0.0
H2463 H 0.56205 0.72128 0.05946 0.0
H2464 H 0.4476 0.72149 0.0275 0.0
H2465 H 0.4955 0.72125 0.03224 0.0
C2466 C 0.04189 0.62213 0.56667 0.0
C2467 C 0.03273 0.6448 0.56718 0.0
C2468 C 0.06791 0.62751 0.56066 0.0
C2469 C 0.14256 0.69109 0.55059 0.0
H2470 H 0.14062 0.62407 0.53333 0.0
C2471 C 0.25708 0.70829 0.53326 0.0
C2472 C 0.26125 0.68265 0.53488 0.0
C2473 C 0.22705 0.7042 0.53406 0.0
C2474 C 0.14163 0.64304 0.53813 0.0
H2475 H 0.04373 0.69093 0.56177 0.0
H2476 H 0.08966 0.70058 0.55143 0.0
H2477 H 0.09219 0.61589 0.54144 0.0
H2478 H 0.23789 0.63252 0.53801 0.0
H2479 H 0.18565 0.62522 0.53957 0.0
H2480 H 0.19209 0.71765 0.54784 0.0
C2481 C 0.07651 0.67857 0.55564 0.0
C2482 C 0.11386 0.63834 0.54276 0.0
C2483 C 0.05021 0.67301 0.56155 0.0
C2484 C 0.23496 0.65248 0.53657 0.0
C2485 C 0.20502 0.64838 0.53745 0.0
C2486 C 0.17038 0.69568 0.54606 0.0
C2487 C 0.08559 0.65584 0.55512 0.0
C2488 C 0.11419 0.66206 0.54923 0.0
C2489 C 0.20085 0.67449 0.53667 0.0
C2490 C 0.17046 0.67143 0.53997 0.0
H2491 H 0.02888 0.60009 0.57088 0.0
H2492 H 0.07461 0.60976 0.56053 0.0
H2493 H 0.14358 0.70971 0.5556 0.0
H2494 H 0.27724 0.73185 0.53207 0.0
H2495 H 0.22465 0.72469 0.53318 0.0
C2496 C 0.3757 0.43437 0.59211 0.0
C2497 C 0.37457 0.41219 0.58469 0.0
C2498 C 0.36956 0.45777 0.58908 0.0
C2499 C 0.33549 0.48038 0.5674 0.0
H2500 H 0.38953 0.56539 0.57887 0.0
C2501 C 0.34761 0.59238 0.54893 0.0
C2502 C 0.34782 0.61519 0.55585 0.0
C2503 C 0.34848 0.56653 0.55283 0.0
C2504 C 0.37402 0.5417 0.57569 0.0
H2505 H 0.36553 0.39681 0.5683 0.0
H2506 H 0.35557 0.43794 0.56296 0.0
H2507 H 0.39499 0.52198 0.58506 0.0
H2508 H 0.34892 0.62862 0.57231 0.0
H2509 H 0.3507 0.58357 0.5791 0.0
H2510 H 0.31519 0.50049 0.55781 0.0
C2511 C 0.36058 0.43699 0.57117 0.0
C2512 C 0.37705 0.51677 0.57926 0.0
C2513 C 0.36649 0.41347 0.57423 0.0
C2514 C 0.34875 0.61148 0.56676 0.0
C2515 C 0.34992 0.58578 0.57066 0.0
C2516 C 0.33265 0.50538 0.56377 0.0
C2517 C 0.36236 0.45965 0.57853 0.0
C2518 C 0.35796 0.48582 0.57511 0.0
C2519 C 0.34987 0.56309 0.56373 0.0
C2520 C 0.35202 0.53632 0.56784 0.0
H2521 H 0.38165 0.43388 0.60026 0.0
H2522 H 0.37059 0.47449 0.59499 0.0
H2523 H 0.32002 0.45677 0.56416 0.0
H2524 H 0.34685 0.59451 0.54048 0.0
H2525 H 0.34873 0.54956 0.5473 0.0
C2526 C 0.64593 0.00081 0.56457 0.0
C2527 C 0.64035 0.02438 0.56855 0.0
C2528 C 0.6209 0.97152 0.56096 0.0
C2529 C 0.53682 0.9181 0.56494 0.0
H2530 H 0.53631 0.88029 0.53776 0.0
C2531 C 0.42435 0.80893 0.54988 0.0
C2532 C 0.42667 0.78473 0.54471 0.0
C2533 C 0.45114 0.83855 0.55181 0.0
C2534 C 0.53624 0.89032 0.54543 0.0
H2535 H 0.60423 0.03582 0.57174 0.0
H2536 H 0.56075 0.98471 0.56563 0.0
H2537 H 0.5825 0.93098 0.54321 0.0
H2538 H 0.45865 0.77255 0.53734 0.0
H2539 H 0.50592 0.82429 0.5409 0.0
H2540 H 0.49126 0.87757 0.5674 0.0
C2541 C 0.58442 0.98888 0.56529 0.0
C2542 C 0.56265 0.91934 0.54852 0.0
C2543 C 0.60936 0.01819 0.56875 0.0
C2544 C 0.45622 0.79102 0.54117 0.0
C2545 C 0.48326 0.82064 0.54325 0.0
C2546 C 0.5107 0.88906 0.56193 0.0
C2547 C 0.58988 0.96519 0.56142 0.0
C2548 C 0.56293 0.93369 0.55825 0.0
C2549 C 0.4811 0.84453 0.54883 0.0
C2550 C 0.50976 0.87499 0.55206 0.0
H2551 H 0.66958 0.00495 0.56427 0.0
H2552 H 0.6257 0.95357 0.55805 0.0
H2553 H 0.53667 0.92835 0.57257 0.0
H2554 H 0.40176 0.80475 0.5526 0.0
H2555 H 0.44836 0.8566 0.55582 0.0
C2556 C 0.24413 0.3483 0.2631 0.0
C2557 C 0.26927 0.34432 0.26575 0.0
C2558 C 0.24161 0.373 0.26766 0.0
C2559 C 0.26368 0.42551 0.2908 0.0
H2560 H 0.25897 0.48441 0.27231 0.0
C2561 C 0.29856 0.55235 0.30372 0.0
C2562 C 0.28787 0.56854 0.29775 0.0
C2563 C 0.28857 0.52067 0.30127 0.0
C2564 C 0.25933 0.46784 0.27767 0.0
H2565 H 0.31128 0.3628 0.27534 0.0
H2566 H 0.30659 0.40574 0.28341 0.0
H2567 H 0.25725 0.43772 0.26488 0.0
H2568 H 0.25556 0.56377 0.28556 0.0
H2569 H 0.23629 0.50793 0.28179 0.0
H2570 H 0.26559 0.4554 0.30363 0.0
C2571 C 0.28895 0.38979 0.27777 0.0
C2572 C 0.25863 0.44117 0.27336 0.0
C2573 C 0.29181 0.36547 0.27306 0.0
C2574 C 0.26438 0.55175 0.29017 0.0
C2575 C 0.25372 0.51989 0.28793 0.0
C2576 C 0.26379 0.45193 0.29516 0.0
C2577 C 0.26383 0.39374 0.27512 0.0
C2578 C 0.26152 0.42018 0.27985 0.0
C2579 C 0.26719 0.50453 0.29296 0.0
C2580 C 0.26236 0.47389 0.28863 0.0
H2581 H 0.22637 0.33229 0.25751 0.0
H2582 H 0.22205 0.37565 0.26549 0.0
H2583 H 0.26557 0.40936 0.29598 0.0
H2584 H 0.31683 0.56493 0.30958 0.0
H2585 H 0.29959 0.50985 0.30535 0.0
C2586 C 0.63625 0.92461 0.26414 0.0
C2587 C 0.64588 0.92231 0.25386 0.0
C2588 C 0.6129 0.89766 0.26923 0.0
C2589 C 0.54722 0.81584 0.26416 0.0
H2590 H 0.55568 0.80558 0.29392 0.0
C2591 C 0.45326 0.70498 0.28444 0.0
C2592 C 0.4408 0.7108 0.29361 0.0
C2593 C 0.48234 0.72828 0.28052 0.0
C2594 C 0.55298 0.80815 0.28562 0.0
H2595 H 0.63811 0.88985 0.24082 0.0
H2596 H 0.59744 0.84279 0.2497 0.0
H2597 H 0.59729 0.85187 0.28487 0.0
H2598 H 0.45029 0.74436 0.30643 0.0
H2599 H 0.50112 0.78531 0.29956 0.0
H2600 H 0.50284 0.77258 0.26489 0.0
C2601 C 0.60778 0.86552 0.25381 0.0
C2602 C 0.57673 0.83471 0.28043 0.0
C2603 C 0.63112 0.89251 0.24871 0.0
C2604 C 0.45942 0.73912 0.29939 0.0
C2605 C 0.48851 0.76265 0.29541 0.0
C2606 C 0.52359 0.78934 0.26933 0.0
C2607 C 0.5986 0.86772 0.26417 0.0
C2608 C 0.57399 0.83899 0.26965 0.0
C2609 C 0.49944 0.75807 0.28563 0.0
C2610 C 0.52606 0.7852 0.28013 0.0
H2611 H 0.64707 0.9472 0.26835 0.0
H2612 H 0.60598 0.90034 0.27712 0.0
H2613 H 0.54405 0.81861 0.25591 0.0
H2614 H 0.4395 0.6832 0.27988 0.0
H2615 H 0.49054 0.72365 0.27314 0.0
C2616 C 0.10255 0.7124 0.26412 0.0
C2617 C 0.10408 0.74006 0.26069 0.0
C2618 C 0.12857 0.71399 0.26888 0.0
C2619 C 0.17922 0.72418 0.28405 0.0
H2620 H 0.26389 0.78319 0.27444 0.0
C2621 C 0.28312 0.72035 0.30137 0.0
C2622 C 0.30432 0.72096 0.29383 0.0
C2623 C 0.26219 0.73021 0.29878 0.0
C2624 C 0.24041 0.7665 0.27722 0.0
H2625 H 0.13414 0.79114 0.2595 0.0
H2626 H 0.17922 0.79408 0.26807 0.0
H2627 H 0.21965 0.78298 0.26637 0.0
H2628 H 0.32171 0.73438 0.27791 0.0
H2629 H 0.28481 0.75037 0.27327 0.0
H2630 H 0.19965 0.70611 0.29435 0.0
C2631 C 0.15823 0.771 0.26688 0.0
C2632 C 0.21497 0.76663 0.27266 0.0
C2633 C 0.13233 0.76933 0.26198 0.0
C2634 C 0.30559 0.73356 0.2839 0.0
C2635 C 0.2845 0.74303 0.28127 0.0
C2636 C 0.20457 0.72373 0.28849 0.0
C2637 C 0.15661 0.74336 0.27049 0.0
C2638 C 0.18396 0.74499 0.27586 0.0
C2639 C 0.26171 0.74037 0.28854 0.0
C2640 C 0.23548 0.7444 0.28498 0.0
H2641 H 0.08116 0.68948 0.26318 0.0
H2642 H 0.12664 0.69207 0.27127 0.0
H2643 H 0.15578 0.70773 0.28692 0.0
H2644 H 0.28105 0.71012 0.309 0.0
H2645 H 0.24538 0.72841 0.30466 0.0
loop_
_geom_bond_atom_site_label_1
_geom_bond_atom_site_label_2
_geom_bond_distance
_geom_bond_site_symmetry_2
_ccdc_geom_bond_type
C0 O1 1.160 . S
C0 O7 1.185 . S
O1 C0 1.160 . S
O2 Zn3 1.899 1_565 S
O2 C10 1.284 . S
Zn3 O2 1.899 1_545 S
Zn3 O4 2.032 . S
Zn3 O7 2.086 . S
Zn3 O12 1.977 . S
O4 Zn3 2.032 . S
O4 C8 1.278 . S
C5 O6 1.203 1_545 S
C5 O12 1.267 . S
O6 C5 1.203 1_565 S
O7 C0 1.185 . S
O7 Zn3 2.086 . S
C8 O4 1.278 . S
C8 O9 1.211 1_545 S
O9 C8 1.211 1_565 S
C10 O2 1.284 . S
C10 O11 1.273 . S
O11 C10 1.273 . S
O12 Zn3 1.977 . S
O12 C5 1.267 . S
C13 O14 1.160 . S
C13 O20 1.185 . S
O14 C13 1.160 . S
O15 Zn16 1.899 1_655 S
O15 C23 1.284 . S
Zn16 O15 1.899 1_455 S
Zn16 O17 2.032 . S
Zn16 O20 2.086 . S
Zn16 O25 1.977 . S
O17 Zn16 2.032 . S
O17 C21 1.278 . S
C18 O19 1.203 1_455 S
C18 O25 1.267 . S
O19 C18 1.203 1_655 S
O20 C13 1.185 . S
O20 Zn16 2.086 . S
C21 O17 1.278 . S
C21 O22 1.211 1_455 S
O22 C21 1.211 1_655 S
C23 O15 1.284 . S
C23 O24 1.273 . S
O24 C23 1.273 . S
O25 Zn16 1.977 . S
O25 C18 1.267 . S
C26 O27 1.160 . S
C26 O33 1.185 . S
O27 C26 1.160 . S
O28 Zn29 1.899 . S
O28 C36 1.284 . S
Zn29 O28 1.899 . S
Zn29 O30 2.032 . S
Zn29 O33 2.086 . S
Zn29 O38 1.977 . S
O30 Zn29 2.032 . S
O30 C34 1.278 . S
C31 O32 1.203 . S
C31 O38 1.267 . S
O32 C31 1.203 . S
O33 C26 1.185 . S
O33 Zn29 2.086 . S
C34 O30 1.278 . S
C34 O35 1.211 . S
O35 C34 1.211 . S
C36 O28 1.284 . S
C36 O37 1.273 . S
O37 C36 1.273 . S
O38 Zn29 1.977 . S
O38 C31 1.267 . S
C39 O40 1.160 . S
C39 O46 1.185 . S
O40 C39 1.160 . S
O41 Zn42 1.899 . S
O41 C49 1.284 . S
Zn42 O41 1.899 . S
Zn42 O43 2.032 . S
Zn42 O46 2.086 1_545 S
Zn42 O51 1.977 1_545 S
O43 Zn42 2.032 . S
O43 C47 1.278 . S
C44 O45 1.203 . S
C44 O51 1.267 1_545 S
O45 C44 1.203 . S
O46 C39 1.185 . S
O46 Zn42 2.086 1_565 S
C47 O43 1.278 . S
C47 O48 1.211 . S
O48 C47 1.211 . S
C49 O41 1.284 . S
C49 O50 1.273 . S
O50 C49 1.273 . S
O51 Zn42 1.977 1_565 S
O51 C44 1.267 1_565 S
C52 O53 1.160 . S
C52 O59 1.185 . S
O53 C52 1.160 . S
O54 Zn55 1.899 . S
O54 C62 1.284 . S
Zn55 O54 1.899 . S
Zn55 O56 2.032 . S
Zn55 O59 2.086 1_455 S
Zn55 O64 1.977 1_455 S
O56 Zn55 2.032 . S
O56 C60 1.278 . S
C57 O58 1.203 . S
C57 O64 1.267 1_455 S
O58 C57 1.203 . S
O59 C52 1.185 . S
O59 Zn55 2.086 1_655 S
C60 O56 1.278 . S
C60 O61 1.211 . S
O61 C60 1.211 . S
C62 O54 1.284 . S
C62 O63 1.273 . S
O63 C62 1.273 . S
O64 Zn55 1.977 1_655 S
O64 C57 1.267 1_655 S
C65 O66 1.160 . S
C65 O72 1.185 . S
O66 C65 1.160 . S
O67 Zn68 1.899 . S
O67 C75 1.284 . S
Zn68 O67 1.899 . S
Zn68 O69 2.032 . S
Zn68 O72 2.086 . S
Zn68 O77 1.977 . S
O69 Zn68 2.032 . S
O69 C73 1.278 . S
C70 O71 1.203 . S
C70 O77 1.267 . S
O71 C70 1.203 . S
O72 C65 1.185 . S
O72 Zn68 2.086 . S
C73 O69 1.278 . S
C73 O74 1.211 . S
O74 C73 1.211 . S
C75 O67 1.284 . S
C75 O76 1.273 . S
O76 C75 1.273 . S
O77 Zn68 1.977 . S
O77 C70 1.267 . S
C78 O79 1.160 . S
C78 O85 1.185 . S
O79 C78 1.160 . S
O80 Zn81 1.899 . S
O80 C88 1.284 . S
Zn81 O80 1.899 . S
Zn81 O82 2.032 . S
Zn81 O85 2.086 . S
Zn81 O90 1.977 . S
O82 Zn81 2.032 . S
O82 C86 1.278 . S
C83 O84 1.203 . S
C83 O90 1.267 . S
O84 C83 1.203 . S
O85 C78 1.185 . S
O85 Zn81 2.086 . S
C86 O82 1.278 . S
C86 O87 1.211 . S
O87 C86 1.211 . S
C88 O80 1.284 . S
C88 O89 1.273 . S
O89 C88 1.273 . S
O90 Zn81 1.977 . S
O90 C83 1.267 . S
C91 O92 1.160 . S
C91 O98 1.185 . S
O92 C91 1.160 . S
O93 Zn94 1.899 . S
O93 C101 1.284 . S
Zn94 O93 1.899 . S
Zn94 O95 2.032 . S
Zn94 O98 2.086 . S
Zn94 O103 1.977 . S
O95 Zn94 2.032 . S
O95 C99 1.278 . S
C96 O97 1.203 . S
C96 O103 1.267 . S
O97 C96 1.203 . S
O98 C91 1.185 . S
O98 Zn94 2.086 . S
C99 O95 1.278 . S
C99 O100 1.211 . S
O100 C99 1.211 . S
C101 O93 1.284 . S
C101 O102 1.273 . S
O102 C101 1.273 . S
O103 Zn94 1.977 . S
O103 C96 1.267 . S
C104 O105 1.160 . S
C104 O111 1.185 . S
O105 C104 1.160 . S
O106 Zn107 1.899 . S
O106 C114 1.284 . S
Zn107 O106 1.899 . S
Zn107 O108 2.032 . S
Zn107 O111 2.086 1_655 S
Zn107 O116 1.977 . S
O108 Zn107 2.032 . S
O108 C112 1.278 . S
C109 O110 1.203 . S
C109 O116 1.267 . S
O110 C109 1.203 . S
O111 C104 1.185 . S
O111 Zn107 2.086 1_455 S
C112 O108 1.278 . S
C112 O113 1.211 . S
O113 C112 1.211 . S
C114 O106 1.284 . S
C114 O115 1.273 . S
O115 C114 1.273 . S
O116 Zn107 1.977 . S
O116 C109 1.267 . S
C117 O118 1.167 . S
C117 O124 1.185 . S
O118 C117 1.167 . S
O119 Zn120 1.899 1_455 S
O119 C127 1.284 . S
Zn120 O119 1.899 1_655 S
Zn120 O121 2.032 . S
Zn120 O124 2.086 . S
Zn120 O129 1.977 . S
O121 Zn120 2.032 . S
O121 C125 1.278 . S
C122 O123 1.203 . S
C122 O129 1.267 . S
O123 C122 1.203 . S
O124 C117 1.185 . S
O124 Zn120 2.086 . S
C125 O121 1.278 . S
C125 O126 1.211 . S
O126 C125 1.211 . S
C127 O119 1.284 . S
C127 O128 1.275 . S
O128 C127 1.275 . S
O129 Zn120 1.977 . S
O129 C122 1.267 . S
C130 O131 1.160 . S
C130 O137 1.185 . S
O131 C130 1.160 . S
O132 Zn133 1.899 . S
O132 C140 1.284 . S
Zn133 O132 1.899 . S
Zn133 O134 2.032 . S
Zn133 O137 2.086 . S
Zn133 O142 1.977 . S
O134 Zn133 2.032 . S
O134 C138 1.278 . S
C135 O136 1.203 . S
C135 O142 1.267 . S
O136 C135 1.203 . S
O137 C130 1.185 . S
O137 Zn133 2.086 . S
C138 O134 1.278 . S
C138 O139 1.211 . S
O139 C138 1.211 . S
C140 O132 1.284 . S
C140 O141 1.273 . S
O141 C140 1.273 . S
O142 Zn133 1.977 . S
O142 C135 1.267 . S
C143 O144 1.160 . S
C143 O150 1.185 . S
O144 C143 1.160 . S
O145 Zn146 1.899 . S
O145 C153 1.284 . S
Zn146 O145 1.899 . S
Zn146 O147 2.032 . S
Zn146 O150 2.086 . S
Zn146 O155 1.977 . S
O147 Zn146 2.032 . S
O147 C151 1.278 . S
C148 O149 1.203 . S
C148 O155 1.267 . S
O149 C148 1.203 . S
O150 C143 1.185 . S
O150 Zn146 2.086 . S
C151 O147 1.278 . S
C151 O152 1.211 . S
O152 C151 1.211 . S
C153 O145 1.284 . S
C153 O154 1.273 . S
O154 C153 1.273 . S
O155 Zn146 1.977 . S
O155 C148 1.267 . S
C156 O157 1.160 . S
C156 O163 1.185 . S
O157 C156 1.160 . S
O158 Zn159 1.899 . S
O158 C166 1.284 . S
Zn159 O158 1.899 . S
Zn159 O160 2.032 . S
Zn159 O163 2.086 . S
Zn159 O168 1.977 . S
O160 Zn159 2.032 . S
O160 C164 1.278 . S
C161 O162 1.203 . S
C161 O168 1.267 . S
O162 C161 1.203 . S
O163 C156 1.185 . S
O163 Zn159 2.086 . S
C164 O160 1.278 . S
C164 O165 1.211 . S
O165 C164 1.211 . S
C166 O158 1.284 . S
C166 O167 1.273 . S
O167 C166 1.273 . S
O168 Zn159 1.977 . S
O168 C161 1.267 . S
C169 O170 1.160 . S
C169 O176 1.185 . S
O170 C169 1.160 . S
O171 Zn172 1.899 . S
O171 C179 1.284 . S
Zn172 O171 1.899 . S
Zn172 O173 2.032 . S
Zn172 O176 2.086 . S
Zn172 O181 1.977 . S
O173 Zn172 2.032 . S
O173 C177 1.278 . S
C174 O175 1.203 . S
C174 O181 1.267 . S
O175 C174 1.203 . S
O176 C169 1.185 . S
O176 Zn172 2.086 . S
C177 O173 1.278 . S
C177 O178 1.211 . S
O178 C177 1.211 . S
C179 O171 1.284 . S
C179 O180 1.273 . S
O180 C179 1.273 . S
O181 Zn172 1.977 . S
O181 C174 1.267 . S
C182 O183 1.160 1_565 S
C182 O189 1.185 . S
O183 C182 1.160 1_545 S
O184 Zn185 1.899 1_545 S
O184 C192 1.284 . S
Zn185 O184 1.899 1_565 S
Zn185 O186 2.032 . S
Zn185 O189 2.086 . S
Zn185 O194 1.977 . S
O186 Zn185 2.032 . S
O186 C190 1.278 . S
C187 O188 1.203 . S
C187 O194 1.267 . S
O188 C187 1.203 . S
O189 C182 1.185 . S
O189 Zn185 2.086 . S
C190 O186 1.278 . S
C190 O191 1.211 . S
O191 C190 1.211 . S
C192 O184 1.284 . S
C192 O193 1.273 . S
O193 C192 1.273 . S
O194 Zn185 1.977 . S
O194 C187 1.267 . S
C195 O196 1.160 . S
C195 O202 1.185 . S
O196 C195 1.160 . S
O197 Zn198 1.899 . S
O197 C205 1.284 . S
Zn198 O197 1.899 . S
Zn198 O199 2.032 . S
Zn198 O202 2.086 . S
Zn198 O207 1.977 . S
O199 Zn198 2.032 . S
O199 C203 1.278 . S
C200 O201 1.203 . S
C200 O207 1.267 . S
O201 C200 1.203 . S
O202 C195 1.185 . S
O202 Zn198 2.086 . S
C203 O199 1.278 . S
C203 O204 1.211 . S
O204 C203 1.211 . S
C205 O197 1.284 . S
C205 O206 1.273 . S
O206 C205 1.273 . S
O207 Zn198 1.977 . S
O207 C200 1.267 . S
C208 O209 1.160 1_565 S
C208 O215 1.185 . S
O209 C208 1.160 1_545 S
O210 Zn211 1.899 1_545 S
O210 C218 1.284 . S
Zn211 O210 1.899 1_565 S
Zn211 O212 2.032 . S
Zn211 O215 2.086 . S
Zn211 O220 1.977 . S
O212 Zn211 2.032 . S
O212 C216 1.278 . S
C213 O214 1.203 . S
C213 O220 1.267 . S
O214 C213 1.203 . S
O215 C208 1.185 . S
O215 Zn211 2.086 . S
C216 O212 1.278 . S
C216 O217 1.211 . S
O217 C216 1.211 . S
C218 O210 1.284 . S
C218 O219 1.273 . S
O219 C218 1.273 . S
O220 Zn211 1.977 . S
O220 C213 1.267 . S
C221 O222 1.150 . S
C221 O228 1.185 . S
O222 C221 1.150 . S
O223 Zn224 1.899 . S
O223 C231 1.284 . S
Zn224 O223 1.899 . S
Zn224 O225 2.032 . S
Zn224 O228 2.086 . S
Zn224 O233 1.977 . S
O225 Zn224 2.032 . S
O225 C229 1.278 . S
C226 O227 1.203 . S
C226 O233 1.267 . S
O227 C226 1.203 . S
O228 C221 1.185 . S
O228 Zn224 2.086 . S
C229 O225 1.278 . S
C229 O230 1.211 . S
O230 C229 1.211 . S
C231 O223 1.284 . S
C231 O232 1.273 . S
O232 C231 1.273 . S
O233 Zn224 1.977 . S
O233 C226 1.267 . S
Zn234 O240 1.920 1_455 S
Zn234 O246 1.898 1_445 S
Zn234 O249 1.905 . S
Zn235 O243 1.903 1_545 S
Zn235 O244 1.898 . S
Zn235 O252 1.920 1_455 S
Zn236 O239 2.080 . S
Zn236 O242 2.114 1_545 S
Zn236 O245 2.120 . S
Zn236 O247 2.120 1_445 S
Zn236 O248 2.114 . S
Zn236 O251 2.080 1_455 S
C237 O242 1.166 . S
C237 O243 1.186 . S
C238 O244 1.167 . S
C238 O245 1.299 . S
O239 Zn236 2.080 . S
O239 C253 1.305 1_455 S
O240 Zn234 1.920 1_655 S
O240 C253 1.234 . S
C241 O246 1.167 . S
C241 O247 1.299 . S
O242 Zn236 2.114 1_565 S
O242 C237 1.166 . S
O243 Zn235 1.903 1_565 S
O243 C237 1.186 . S
O244 Zn235 1.898 . S
O244 C238 1.167 . S
O245 Zn236 2.120 . S
O245 C238 1.299 . S
O246 Zn234 1.898 1_665 S
O246 C241 1.167 . S
O247 Zn236 2.120 1_665 S
O247 C241 1.299 . S
O248 Zn236 2.114 . S
O248 C250 1.166 . S
O249 Zn234 1.905 . S
O249 C250 1.182 . S
C250 O248 1.166 . S
C250 O249 1.182 . S
O251 Zn236 2.080 1_655 S
O251 C254 1.305 . S
O252 Zn235 1.920 1_655 S
O252 C254 1.234 . S
C253 O239 1.305 1_655 S
C253 O240 1.234 . S
C254 O251 1.305 . S
C254 O252 1.234 . S
Zn255 O261 1.920 1_545 S
Zn255 O267 1.898 . S
Zn255 O270 1.905 1_455 S
Zn256 O264 1.905 . S
Zn256 O265 1.898 1_445 S
Zn256 O273 1.929 . S
Zn257 O260 2.080 1_545 S
Zn257 O263 2.114 . S
Zn257 O266 2.120 1_445 S
Zn257 O268 2.120 . S
Zn257 O269 2.114 1_455 S
Zn257 O272 2.080 . S
C258 O263 1.166 . S
C258 O264 1.182 . S
C259 O265 1.167 . S
C259 O266 1.299 . S
O260 Zn257 2.080 1_565 S
O260 C274 1.305 . S
O261 Zn255 1.920 1_565 S
O261 C274 1.234 . S
C262 O267 1.167 . S
C262 O268 1.299 . S
O263 Zn257 2.114 . S
O263 C258 1.166 . S
O264 Zn256 1.905 . S
O264 C258 1.182 . S
O265 Zn256 1.898 1_665 S
O265 C259 1.167 . S
O266 Zn257 2.120 1_665 S
O266 C259 1.299 . S
O267 Zn255 1.898 . S
O267 C262 1.167 . S
O268 Zn257 2.120 . S
O268 C262 1.299 . S
O269 Zn257 2.114 1_655 S
O269 C271 1.166 . S
O270 Zn255 1.905 1_655 S
O270 C271 1.182 . S
C271 O269 1.166 . S
C271 O270 1.182 . S
O272 Zn257 2.080 . S
O272 C275 1.305 . S
O273 Zn256 1.929 . S
O273 C275 1.233 . S
C274 O260 1.305 . S
C274 O261 1.234 . S
C275 O272 1.305 . S
C275 O273 1.233 . S
Zn276 O282 1.920 1_545 S
Zn276 O288 1.898 . S
Zn276 O291 1.905 1_455 S
Zn277 O285 1.905 . S
Zn277 O286 1.898 1_445 S
Zn277 O294 1.920 . S
Zn278 O281 2.080 1_545 S
Zn278 O284 2.114 . S
Zn278 O287 2.120 1_445 S
Zn278 O289 2.120 . S
Zn278 O290 2.114 1_455 S
Zn278 O293 2.080 . S
C279 O284 1.166 . S
C279 O285 1.182 . S
C280 O286 1.167 . S
C280 O287 1.299 . S
O281 Zn278 2.080 1_565 S
O281 C295 1.305 . S
O282 Zn276 1.920 1_565 S
O282 C295 1.234 . S
C283 O288 1.167 . S
C283 O289 1.299 . S
O284 Zn278 2.114 . S
O284 C279 1.166 . S
O285 Zn277 1.905 . S
O285 C279 1.182 . S
O286 Zn277 1.898 1_665 S
O286 C280 1.167 . S
O287 Zn278 2.120 1_665 S
O287 C280 1.299 . S
O288 Zn276 1.898 . S
O288 C283 1.167 . S
O289 Zn278 2.120 . S
O289 C283 1.299 . S
O290 Zn278 2.114 1_655 S
O290 C292 1.166 . S
O291 Zn276 1.905 1_655 S
O291 C292 1.182 . S
C292 O290 1.166 . S
C292 O291 1.182 . S
O293 Zn278 2.080 . S
O293 C296 1.305 . S
O294 Zn277 1.920 . S
O294 C296 1.234 . S
C295 O281 1.305 . S
C295 O282 1.234 . S
C296 O293 1.305 . S
C296 O294 1.234 . S
Zn297 O303 1.920 . S
Zn297 O309 1.898 1_445 S
Zn297 O312 1.905 . S
Zn298 O306 1.905 1_545 S
Zn298 O307 1.898 . S
Zn298 O315 1.920 1_455 S
Zn299 O302 2.080 . S
Zn299 O305 2.114 1_545 S
Zn299 O308 2.120 . S
Zn299 O310 2.120 1_445 S
Zn299 O311 2.114 . S
Zn299 O314 2.080 1_455 S
C300 O305 1.166 . S
C300 O306 1.182 . S
C301 O307 1.167 . S
C301 O308 1.299 . S
O302 Zn299 2.080 . S
O302 C316 1.305 . S
O303 Zn297 1.920 . S
O303 C316 1.234 . S
C304 O309 1.167 . S
C304 O310 1.299 . S
O305 Zn299 2.114 1_565 S
O305 C300 1.166 . S
O306 Zn298 1.905 1_565 S
O306 C300 1.182 . S
O307 Zn298 1.898 . S
O307 C301 1.167 . S
O308 Zn299 2.120 . S
O308 C301 1.299 . S
O309 Zn297 1.898 1_665 S
O309 C304 1.167 . S
O310 Zn299 2.120 1_665 S
O310 C304 1.299 . S
O311 Zn299 2.114 . S
O311 C313 1.166 . S
O312 Zn297 1.905 . S
O312 C313 1.182 . S
C313 O311 1.166 . S
C313 O312 1.182 . S
O314 Zn299 2.080 1_655 S
O314 C317 1.305 . S
O315 Zn298 1.920 1_655 S
O315 C317 1.234 . S
C316 O302 1.305 . S
C316 O303 1.234 . S
C317 O314 1.305 . S
C317 O315 1.234 . S
Zn318 O324 1.920 . S
Zn318 O330 1.898 . S
Zn318 O333 1.905 . S
Zn319 O327 1.905 . S
Zn319 O328 1.898 . S
Zn319 O336 1.920 . S
Zn320 O323 2.080 . S
Zn320 O326 2.114 . S
Zn320 O329 2.120 . S
Zn320 O331 2.120 . S
Zn320 O332 2.114 . S
Zn320 O335 2.080 . S
C321 O326 1.166 . S
C321 O327 1.182 . S
C322 O328 1.167 . S
C322 O329 1.299 . S
O323 Zn320 2.080 . S
O323 C337 1.305 . S
O324 Zn318 1.920 . S
O324 C337 1.234 . S
C325 O330 1.167 . S
C325 O331 1.299 . S
O326 Zn320 2.114 . S
O326 C321 1.166 . S
O327 Zn319 1.905 . S
O327 C321 1.182 . S
O328 Zn319 1.898 . S
O328 C322 1.167 . S
O329 Zn320 2.120 . S
O329 C322 1.299 . S
O330 Zn318 1.898 . S
O330 C325 1.167 . S
O331 Zn320 2.120 . S
O331 C325 1.299 . S
O332 Zn320 2.114 . S
O332 C334 1.166 . S
O333 Zn318 1.905 . S
O333 C334 1.182 . S
C334 O332 1.166 . S
C334 O333 1.182 . S
O335 Zn320 2.080 . S
O335 C338 1.305 . S
O336 Zn319 1.920 . S
O336 C338 1.234 . S
C337 O323 1.305 . S
C337 O324 1.234 . S
C338 O335 1.305 . S
C338 O336 1.234 . S
Zn339 O345 1.920 . S
Zn339 O351 1.898 . S
Zn339 O354 1.905 . S
Zn340 O348 1.905 . S
Zn340 O349 1.898 . S
Zn340 O357 1.920 . S
Zn341 O344 2.080 . S
Zn341 O347 2.114 . S
Zn341 O350 2.120 . S
Zn341 O352 2.120 . S
Zn341 O353 2.114 . S
Zn341 O356 2.080 . S
C342 O347 1.166 . S
C342 O348 1.182 . S
C343 O349 1.167 . S
C343 O350 1.299 . S
O344 Zn341 2.080 . S
O344 C358 1.305 . S
O345 Zn339 1.920 . S
O345 C358 1.234 . S
C346 O351 1.167 . S
C346 O352 1.299 . S
O347 Zn341 2.114 . S
O347 C342 1.166 . S
O348 Zn340 1.905 . S
O348 C342 1.182 . S
O349 Zn340 1.898 . S
O349 C343 1.167 . S
O350 Zn341 2.120 . S
O350 C343 1.299 . S
O351 Zn339 1.898 . S
O351 C346 1.167 . S
O352 Zn341 2.120 . S
O352 C346 1.299 . S
O353 Zn341 2.114 . S
O353 C355 1.166 . S
O354 Zn339 1.905 . S
O354 C355 1.182 . S
C355 O353 1.166 . S
C355 O354 1.182 . S
O356 Zn341 2.080 . S
O356 C359 1.305 . S
O357 Zn340 1.920 . S
O357 C359 1.234 . S
C358 O344 1.305 . S
C358 O345 1.234 . S
C359 O356 1.305 . S
C359 O357 1.234 . S
Zn360 O366 1.920 . S
Zn360 O372 1.898 . S
Zn360 O375 1.905 . S
Zn361 O369 1.905 . S
Zn361 O370 1.898 . S
Zn361 O378 1.920 . S
Zn362 O365 2.080 . S
Zn362 O368 2.114 . S
Zn362 O371 2.120 . S
Zn362 O373 2.120 . S
Zn362 O374 2.114 . S
Zn362 O377 2.080 . S
C363 O368 1.166 . S
C363 O369 1.182 . S
C364 O370 1.167 . S
C364 O371 1.299 . S
O365 Zn362 2.080 . S
O365 C379 1.305 . S
O366 Zn360 1.920 . S
O366 C379 1.234 . S
C367 O372 1.167 . S
C367 O373 1.299 . S
O368 Zn362 2.114 . S
O368 C363 1.166 . S
O369 Zn361 1.905 . S
O369 C363 1.182 . S
O370 Zn361 1.898 . S
O370 C364 1.167 . S
O371 Zn362 2.120 . S
O371 C364 1.299 . S
O372 Zn360 1.898 . S
O372 C367 1.167 . S
O373 Zn362 2.120 . S
O373 C367 1.299 . S
O374 Zn362 2.114 . S
O374 C376 1.166 . S
O375 Zn360 1.905 . S
O375 C376 1.182 . S
C376 O374 1.166 . S
C376 O375 1.182 . S
O377 Zn362 2.080 . S
O377 C380 1.305 . S
O378 Zn361 1.920 . S
O378 C380 1.234 . S
C379 O365 1.305 . S
C379 O366 1.234 . S
C380 O377 1.305 . S
C380 O378 1.234 . S
Zn381 O387 1.920 . S
Zn381 O393 1.898 . S
Zn381 O396 1.905 . S
Zn382 O390 1.905 . S
Zn382 O391 1.898 . S
Zn382 O399 1.920 . S
Zn383 O386 2.080 . S
Zn383 O389 2.114 . S
Zn383 O392 2.120 . S
Zn383 O394 2.120 . S
Zn383 O395 2.114 . S
Zn383 O398 2.080 . S
C384 O389 1.166 . S
C384 O390 1.182 . S
C385 O391 1.167 . S
C385 O392 1.299 . S
O386 Zn383 2.080 . S
O386 C400 1.305 . S
O387 Zn381 1.920 . S
O387 C400 1.234 1_554 S
C388 O393 1.167 1_556 S
C388 O394 1.299 . S
O389 Zn383 2.114 . S
O389 C384 1.166 . S
O390 Zn382 1.905 . S
O390 C384 1.182 . S
O391 Zn382 1.898 . S
O391 C385 1.167 . S
O392 Zn383 2.120 . S
O392 C385 1.299 . S
O393 Zn381 1.898 . S
O393 C388 1.167 1_554 S
O394 Zn383 2.120 . S
O394 C388 1.299 . S
O395 Zn383 2.114 . S
O395 C397 1.166 . S
O396 Zn381 1.905 . S
O396 C397 1.182 1_554 S
C397 O395 1.166 . S
C397 O396 1.182 1_556 S
O398 Zn383 2.080 . S
O398 C401 1.305 . S
O399 Zn382 1.920 . S
O399 C401 1.234 . S
C400 O386 1.305 . S
C400 O387 1.234 1_556 S
C401 O398 1.305 . S
C401 O399 1.234 . S
Zn402 O408 1.920 . S
Zn402 O414 1.898 . S
Zn402 O417 1.905 . S
Zn403 O411 1.905 . S
Zn403 O412 1.898 . S
Zn403 O420 1.920 . S
Zn404 O407 2.080 . S
Zn404 O410 2.114 . S
Zn404 O413 2.120 . S
Zn404 O415 2.120 . S
Zn404 O416 2.114 . S
Zn404 O419 2.080 . S
C405 O410 1.166 . S
C405 O411 1.182 . S
C406 O412 1.167 . S
C406 O413 1.299 . S
O407 Zn404 2.080 . S
O407 C421 1.305 . S
O408 Zn402 1.920 . S
O408 C421 1.234 . S
C409 O414 1.167 . S
C409 O415 1.299 . S
O410 Zn404 2.114 . S
O410 C405 1.166 . S
O411 Zn403 1.905 . S
O411 C405 1.182 . S
O412 Zn403 1.898 . S
O412 C406 1.167 . S
O413 Zn404 2.120 . S
O413 C406 1.299 . S
O414 Zn402 1.898 . S
O414 C409 1.167 . S
O415 Zn404 2.120 . S
O415 C409 1.299 . S
O416 Zn404 2.114 . S
O416 C418 1.166 . S
O417 Zn402 1.905 . S
O417 C418 1.182 . S
C418 O416 1.166 . S
C418 O417 1.182 . S
O419 Zn404 2.080 . S
O419 C422 1.305 . S
O420 Zn403 1.920 . S
O420 C422 1.234 . S
C421 O407 1.305 . S
C421 O408 1.234 . S
C422 O419 1.305 . S
C422 O420 1.234 . S
Zn423 O429 1.920 . S
Zn423 O435 1.898 . S
Zn423 O438 1.905 . S
Zn424 O432 1.905 . S
Zn424 O433 1.898 . S
Zn424 O441 1.920 . S
Zn425 O428 2.080 . S
Zn425 O431 2.114 . S
Zn425 O434 2.120 . S
Zn425 O436 2.120 . S
Zn425 O437 2.114 . S
Zn425 O440 2.080 . S
C426 O431 1.166 . S
C426 O432 1.182 1_554 S
C427 O433 1.167 1_554 S
C427 O434 1.299 . S
O428 Zn425 2.080 . S
O428 C442 1.305 . S
O429 Zn423 1.920 . S
O429 C442 1.234 . S
C430 O435 1.167 . S
C430 O436 1.299 . S
O431 Zn425 2.114 . S
O431 C426 1.166 . S
O432 Zn424 1.905 . S
O432 C426 1.182 1_556 S
O433 Zn424 1.898 . S
O433 C427 1.167 1_556 S
O434 Zn425 2.120 . S
O434 C427 1.299 . S
O435 Zn423 1.898 . S
O435 C430 1.167 . S
O436 Zn425 2.120 . S
O436 C430 1.299 . S
O437 Zn425 2.114 . S
O437 C439 1.166 . S
O438 Zn423 1.905 . S
O438 C439 1.182 . S
C439 O437 1.166 . S
C439 O438 1.182 . S
O440 Zn425 2.080 . S
O440 C443 1.305 . S
O441 Zn424 1.920 . S
O441 C443 1.234 1_556 S
C442 O428 1.305 . S
C442 O429 1.234 . S
C443 O440 1.305 . S
C443 O441 1.234 1_554 S
Zn444 O450 1.920 . S
Zn444 O456 1.898 . S
Zn444 O459 1.905 . S
Zn445 O453 1.905 . S
Zn445 O454 1.898 . S
Zn445 O462 1.920 . S
Zn446 O449 2.080 . S
Zn446 O452 2.114 . S
Zn446 O455 2.120 . S
Zn446 O457 2.120 . S
Zn446 O458 2.114 . S
Zn446 O461 2.080 . S
C447 O452 1.166 . S
C447 O453 1.182 . S
C448 O454 1.167 . S
C448 O455 1.299 . S
O449 Zn446 2.080 . S
O449 C463 1.305 . S
O450 Zn444 1.920 . S
O450 C463 1.234 . S
C451 O456 1.167 . S
C451 O457 1.299 . S
O452 Zn446 2.114 . S
O452 C447 1.166 . S
O453 Zn445 1.905 . S
O453 C447 1.182 . S
O454 Zn445 1.898 . S
O454 C448 1.167 . S
O455 Zn446 2.120 . S
O455 C448 1.299 . S
O456 Zn444 1.898 . S
O456 C451 1.167 . S
O457 Zn446 2.120 . S
O457 C451 1.299 . S
O458 Zn446 2.114 . S
O458 C460 1.166 . S
O459 Zn444 1.905 . S
O459 C460 1.182 . S
C460 O458 1.166 . S
C460 O459 1.182 . S
O461 Zn446 2.080 . S
O461 C464 1.305 . S
O462 Zn445 1.920 . S
O462 C464 1.234 . S
C463 O449 1.305 . S
C463 O450 1.234 . S
C464 O461 1.305 . S
C464 O462 1.234 . S
Zn465 O471 1.920 . S
Zn465 O477 1.898 . S
Zn465 O480 1.905 . S
Zn466 O474 1.905 . S
Zn466 O475 1.898 . S
Zn466 O483 1.920 . S
Zn467 O470 2.080 . S
Zn467 O473 2.114 . S
Zn467 O476 2.120 . S
Zn467 O478 2.120 . S
Zn467 O479 2.114 . S
Zn467 O482 2.080 . S
C468 O473 1.166 . S
C468 O474 1.182 . S
C469 O475 1.167 . S
C469 O476 1.299 . S
O470 Zn467 2.080 . S
O470 C484 1.305 . S
O471 Zn465 1.920 . S
O471 C484 1.234 . S
C472 O477 1.167 . S
C472 O478 1.299 . S
O473 Zn467 2.114 . S
O473 C468 1.166 . S
O474 Zn466 1.905 . S
O474 C468 1.182 . S
O475 Zn466 1.898 . S
O475 C469 1.167 . S
O476 Zn467 2.120 . S
O476 C469 1.299 . S
O477 Zn465 1.898 . S
O477 C472 1.167 . S
O478 Zn467 2.120 . S
O478 C472 1.299 . S
O479 Zn467 2.114 . S
O479 C481 1.166 . S
O480 Zn465 1.905 . S
O480 C481 1.182 . S
C481 O479 1.166 . S
C481 O480 1.182 . S
O482 Zn467 2.080 . S
O482 C485 1.305 . S
O483 Zn466 1.920 . S
O483 C485 1.234 . S
C484 O470 1.305 . S
C484 O471 1.234 . S
C485 O482 1.305 . S
C485 O483 1.234 . S
C486 C487 1.349 . S
C486 C488 1.327 . S
C486 H511 0.950 . S
C487 C486 1.349 . S
C487 C503 1.349 . S
C488 C486 1.327 . S
C488 C507 1.429 . S
C488 H512 0.950 . S
C489 C506 1.574 . S
C489 C508 1.368 . S
C489 H513 0.949 . S
H490 C494 0.949 . S
C491 C492 1.349 . S
C491 C493 1.327 . S
C491 H514 0.950 . S
C492 C491 1.349 . S
C492 C504 1.349 . S
C493 C491 1.327 . S
C493 C509 1.429 . S
C493 H515 0.950 . S
C494 H490 0.949 . S
C494 C502 1.574 . S
C494 C510 1.368 . S
H495 C503 0.950 . S
H496 C501 0.950 . S
H497 C502 0.949 . S
H498 C504 0.950 . S
H499 C505 0.950 . S
H500 C506 0.949 . S
C501 H496 0.950 . S
C501 C503 1.327 . S
C501 C507 1.429 . S
C502 C494 1.574 . S
C502 H497 0.949 . S
C502 C508 1.368 . S
C503 C487 1.349 . S
C503 H495 0.950 . S
C503 C501 1.327 . S
C504 C492 1.349 . S
C504 H498 0.950 . S
C504 C505 1.327 . S
C505 H499 0.950 . S
C505 C504 1.327 . S
C505 C509 1.429 . S
C506 C489 1.574 . S
C506 H500 0.949 . S
C506 C510 1.368 . S
C507 C488 1.429 . S
C507 C501 1.429 . S
C507 C508 1.523 . S
C508 C489 1.368 . S
C508 C502 1.368 . S
C508 C507 1.523 . S
C509 C493 1.429 . S
C509 C505 1.429 . S
C509 C510 1.523 . S
C510 C494 1.368 . S
C510 C506 1.368 . S
C510 C509 1.523 . S
H511 C486 0.950 . S
H512 C488 0.950 . S
H513 C489 0.949 . S
H514 C491 0.950 . S
H515 C493 0.950 . S
C516 C517 1.349 1_565 S
C516 C518 1.327 . S
C516 H541 0.950 . S
C517 C516 1.349 1_545 S
C517 C533 1.349 . S
C518 C516 1.327 . S
C518 C537 1.429 1_565 S
C518 H542 0.950 . S
C519 C536 1.574 . S
C519 C538 1.368 . S
C519 H543 0.949 . S
H520 C524 0.949 . S
C521 C522 1.349 . S
C521 C523 1.327 . S
C521 H544 0.950 . S
C522 C521 1.349 . S
C522 C534 1.349 . S
C523 C521 1.327 . S
C523 C539 1.429 . S
C523 H545 0.950 . S
C524 H520 0.949 . S
C524 C532 1.574 . S
C524 C540 1.368 1_565 S
H525 C533 0.950 . S
H526 C531 0.950 . S
H527 C532 0.949 . S
H528 C534 0.950 1_565 S
H529 C535 0.950 1_565 S
H530 C536 0.949 . S
C531 H526 0.950 . S
C531 C533 1.327 . S
C531 C537 1.429 . S
C532 C524 1.574 . S
C532 H527 0.949 . S
C532 C538 1.368 1_565 S
C533 C517 1.349 . S
C533 H525 0.950 . S
C533 C531 1.327 . S
C534 C522 1.349 . S
C534 H528 0.950 1_545 S
C534 C535 1.327 . S
C535 H529 0.950 1_545 S
C535 C534 1.327 . S
C535 C539 1.429 . S
C536 C519 1.574 . S
C536 H530 0.949 . S
C536 C540 1.368 . S
C537 C518 1.429 1_545 S
C537 C531 1.429 . S
C537 C538 1.523 . S
C538 C519 1.368 . S
C538 C532 1.368 1_545 S
C538 C537 1.523 . S
C539 C523 1.429 . S
C539 C535 1.429 . S
C539 C540 1.523 . S
C540 C524 1.368 1_545 S
C540 C536 1.368 . S
C540 C539 1.523 . S
H541 C516 0.950 . S
H542 C518 0.950 . S
H543 C519 0.949 . S
H544 C521 0.950 . S
H545 C523 0.950 . S
C546 C547 1.349 . S
C546 C548 1.327 . S
C546 H571 0.950 . S
C547 C546 1.349 . S
C547 C563 1.349 . S
C548 C546 1.327 . S
C548 C567 1.429 . S
C548 H572 0.950 . S
C549 C566 1.574 . S
C549 C568 1.368 1_655 S
C549 H573 0.949 . S
H550 C554 0.949 . S
C551 C552 1.349 1_655 S
C551 C553 1.327 . S
C551 H574 0.950 . S
C552 C551 1.349 1_455 S
C552 C564 1.349 . S
C553 C551 1.327 . S
C553 C569 1.429 1_655 S
C553 H575 0.950 . S
C554 H550 0.949 . S
C554 C562 1.574 . S
C554 C570 1.368 . S
H555 C563 0.950 1_655 S
H556 C561 0.950 1_655 S
H557 C562 0.949 . S
H558 C564 0.950 . S
H559 C565 0.950 . S
H560 C566 0.949 . S
C561 H556 0.950 1_455 S
C561 C563 1.327 . S
C561 C567 1.429 . S
C562 C554 1.574 . S
C562 H557 0.949 . S
C562 C568 1.368 . S
C563 C547 1.349 . S
C563 H555 0.950 1_455 S
C563 C561 1.327 . S
C564 C552 1.349 . S
C564 H558 0.950 . S
C564 C565 1.327 . S
C565 H559 0.950 . S
C565 C564 1.327 . S
C565 C569 1.429 . S
C566 C549 1.574 . S
C566 H560 0.949 . S
C566 C570 1.368 1_655 S
C567 C548 1.429 . S
C567 C561 1.429 . S
C567 C568 1.523 . S
C568 C549 1.368 1_455 S
C568 C562 1.368 . S
C568 C567 1.523 . S
C569 C553 1.429 1_455 S
C569 C565 1.429 . S
C569 C570 1.523 . S
C570 C554 1.368 . S
C570 C566 1.368 1_455 S
C570 C569 1.523 . S
H571 C546 0.950 . S
H572 C548 0.950 . S
H573 C549 0.949 . S
H574 C551 0.950 . S
H575 C553 0.950 . S
C576 C577 1.349 . S
C576 C578 1.327 . S
C576 H601 0.950 . S
C577 C576 1.349 . S
C577 C593 1.349 . S
C578 C576 1.327 . S
C578 C597 1.429 . S
C578 H602 0.950 . S
C579 C596 1.574 . S
C579 C598 1.368 . S
C579 H603 0.949 . S
H580 C584 0.949 . S
C581 C582 1.349 . S
C581 C583 1.327 . S
C581 H604 0.950 . S
C582 C581 1.349 . S
C582 C594 1.349 . S
C583 C581 1.327 . S
C583 C599 1.429 . S
C583 H605 0.950 . S
C584 H580 0.949 . S
C584 C592 1.574 . S
C584 C600 1.368 . S
H585 C593 0.950 . S
H586 C591 0.950 . S
H587 C592 0.949 . S
H588 C594 0.950 . S
H589 C595 0.950 . S
H590 C596 0.949 . S
C591 H586 0.950 . S
C591 C593 1.327 . S
C591 C597 1.429 . S
C592 C584 1.574 . S
C592 H587 0.949 . S
C592 C598 1.368 . S
C593 C577 1.349 . S
C593 H585 0.950 . S
C593 C591 1.327 . S
C594 C582 1.349 . S
C594 H588 0.950 . S
C594 C595 1.327 . S
C595 H589 0.950 . S
C595 C594 1.327 . S
C595 C599 1.429 . S
C596 C579 1.574 . S
C596 H590 0.949 . S
C596 C600 1.368 . S
C597 C578 1.429 . S
C597 C591 1.429 . S
C597 C598 1.523 . S
C598 C579 1.368 . S
C598 C592 1.368 . S
C598 C597 1.523 . S
C599 C583 1.429 . S
C599 C595 1.429 . S
C599 C600 1.523 . S
C600 C584 1.368 . S
C600 C596 1.368 . S
C600 C599 1.523 . S
H601 C576 0.950 . S
H602 C578 0.950 . S
H603 C579 0.949 . S
H604 C581 0.950 . S
H605 C583 0.950 . S
C606 C607 1.349 . S
C606 C608 1.327 . S
C606 H631 0.950 . S
C607 C606 1.349 . S
C607 C623 1.349 . S
C608 C606 1.327 . S
C608 C627 1.429 . S
C608 H632 0.950 . S
C609 C626 1.574 . S
C609 C628 1.368 . S
C609 H633 0.949 . S
H610 C614 0.949 1_565 S
C611 C612 1.349 . S
C611 C613 1.327 . S
C611 H634 0.950 . S
C612 C611 1.349 . S
C612 C624 1.349 1_545 S
C613 C611 1.327 . S
C613 C629 1.429 . S
C613 H635 0.950 . S
C614 H610 0.949 1_545 S
C614 C622 1.574 . S
C614 C630 1.368 . S
H615 C623 0.950 . S
H616 C621 0.950 . S
H617 C622 0.949 1_565 S
H618 C624 0.950 . S
H619 C625 0.950 . S
H620 C626 0.949 . S
C621 H616 0.950 . S
C621 C623 1.327 . S
C621 C627 1.429 . S
C622 C614 1.574 . S
C622 H617 0.949 1_545 S
C622 C628 1.368 . S
C623 C607 1.349 . S
C623 H615 0.950 . S
C623 C621 1.327 . S
C624 C612 1.349 1_565 S
C624 H618 0.950 . S
C624 C625 1.327 . S
C625 H619 0.950 . S
C625 C624 1.327 . S
C625 C629 1.429 1_565 S
C626 C609 1.574 . S
C626 H620 0.949 . S
C626 C630 1.368 . S
C627 C608 1.429 . S
C627 C621 1.429 . S
C627 C628 1.523 . S
C628 C609 1.368 . S
C628 C622 1.368 . S
C628 C627 1.523 . S
C629 C613 1.429 . S
C629 C625 1.429 1_545 S
C629 C630 1.523 . S
C630 C614 1.368 . S
C630 C626 1.368 . S
C630 C629 1.523 . S
H631 C606 0.950 . S
H632 C608 0.950 . S
H633 C609 0.949 . S
H634 C611 0.950 . S
H635 C613 0.950 . S
C636 C637 1.349 . S
C636 C638 1.327 . S
C636 H661 0.950 1_455 S
C637 C636 1.349 . S
C637 C653 1.349 . S
C638 C636 1.327 . S
C638 C657 1.429 . S
C638 H662 0.950 . S
C639 C656 1.574 . S
C639 C658 1.368 . S
C639 H663 0.949 . S
H640 C644 0.949 . S
C641 C642 1.349 . S
C641 C643 1.327 . S
C641 H664 0.950 . S
C642 C641 1.349 . S
C642 C654 1.349 . S
C643 C641 1.327 . S
C643 C659 1.429 . S
C643 H665 0.950 . S
C644 H640 0.949 . S
C644 C652 1.574 . S
C644 C660 1.368 . S
H645 C653 0.950 . S
H646 C651 0.950 . S
H647 C652 0.949 . S
H648 C654 0.950 . S
H649 C655 0.950 . S
H650 C656 0.949 . S
C651 H646 0.950 . S
C651 C653 1.327 . S
C651 C657 1.429 . S
C652 C644 1.574 . S
C652 H647 0.949 . S
C652 C658 1.368 . S
C653 C637 1.349 . S
C653 H645 0.950 . S
C653 C651 1.327 . S
C654 C642 1.349 . S
C654 H648 0.950 . S
C654 C655 1.327 . S
C655 H649 0.950 . S
C655 C654 1.327 . S
C655 C659 1.429 . S
C656 C639 1.574 . S
C656 H650 0.949 . S
C656 C660 1.368 . S
C657 C638 1.429 . S
C657 C651 1.429 . S
C657 C658 1.523 . S
C658 C639 1.368 . S
C658 C652 1.368 . S
C658 C657 1.523 . S
C659 C643 1.429 . S
C659 C655 1.429 . S
C659 C660 1.523 . S
C660 C644 1.368 . S
C660 C656 1.368 . S
C660 C659 1.523 . S
H661 C636 0.950 1_655 S
H662 C638 0.950 . S
H663 C639 0.949 . S
H664 C641 0.950 . S
H665 C643 0.950 . S
C666 C667 1.349 . S
C666 C668 1.327 . S
C666 H691 0.950 . S
C667 C666 1.349 . S
C667 C683 1.349 . S
C668 C666 1.327 . S
C668 C687 1.429 . S
C668 H692 0.950 . S
C669 C686 1.574 . S
C669 C688 1.368 . S
C669 H693 0.949 . S
H670 C674 0.949 . S
C671 C672 1.349 . S
C671 C673 1.327 . S
C671 H694 0.950 . S
C672 C671 1.349 . S
C672 C684 1.349 . S
C673 C671 1.327 . S
C673 C689 1.429 . S
C673 H695 0.950 . S
C674 H670 0.949 . S
C674 C682 1.574 . S
C674 C690 1.368 . S
H675 C683 0.950 . S
H676 C681 0.950 . S
H677 C682 0.949 . S
H678 C684 0.950 . S
H679 C685 0.950 . S
H680 C686 0.949 . S
C681 H676 0.950 . S
C681 C683 1.327 . S
C681 C687 1.429 . S
C682 C674 1.574 . S
C682 H677 0.949 . S
C682 C688 1.368 . S
C683 C667 1.349 . S
C683 H675 0.950 . S
C683 C681 1.327 . S
C684 C672 1.349 . S
C684 H678 0.950 . S
C684 C685 1.327 . S
C685 H679 0.950 . S
C685 C684 1.327 . S
C685 C689 1.429 . S
C686 C669 1.574 . S
C686 H680 0.949 . S
C686 C690 1.368 . S
C687 C668 1.429 . S
C687 C681 1.429 . S
C687 C688 1.523 . S
C688 C669 1.368 . S
C688 C682 1.368 . S
C688 C687 1.523 . S
C689 C673 1.429 . S
C689 C685 1.429 . S
C689 C690 1.523 . S
C690 C674 1.368 . S
C690 C686 1.368 . S
C690 C689 1.523 . S
H691 C666 0.950 . S
H692 C668 0.950 . S
H693 C669 0.949 . S
H694 C671 0.950 . S
H695 C673 0.950 . S
C696 C697 1.349 . S
C696 C698 1.327 . S
C696 H721 0.950 . S
C697 C696 1.349 . S
C697 C713 1.349 . S
C698 C696 1.327 . S
C698 C717 1.429 . S
C698 H722 0.950 . S
C699 C716 1.574 . S
C699 C718 1.368 1_565 S
C699 H723 0.949 . S
H700 C704 0.949 . S
C701 C702 1.349 1_565 S
C701 C703 1.327 . S
C701 H724 0.950 . S
C702 C701 1.349 1_545 S
C702 C714 1.349 . S
C703 C701 1.327 . S
C703 C719 1.429 1_565 S
C703 H725 0.950 . S
C704 H700 0.949 . S
C704 C712 1.574 . S
C704 C720 1.368 . S
H705 C713 0.950 1_565 S
H706 C711 0.950 1_565 S
H707 C712 0.949 . S
H708 C714 0.950 . S
H709 C715 0.950 . S
H710 C716 0.949 . S
C711 H706 0.950 1_545 S
C711 C713 1.327 . S
C711 C717 1.429 . S
C712 C704 1.574 . S
C712 H707 0.949 . S
C712 C718 1.368 . S
C713 C697 1.349 . S
C713 H705 0.950 1_545 S
C713 C711 1.327 . S
C714 C702 1.349 . S
C714 H708 0.950 . S
C714 C715 1.327 . S
C715 H709 0.950 . S
C715 C714 1.327 . S
C715 C719 1.429 . S
C716 C699 1.574 . S
C716 H710 0.949 . S
C716 C720 1.368 1_565 S
C717 C698 1.429 . S
C717 C711 1.429 . S
C717 C718 1.523 . S
C718 C699 1.368 1_545 S
C718 C712 1.368 . S
C718 C717 1.523 . S
C719 C703 1.429 1_545 S
C719 C715 1.429 . S
C719 C720 1.523 . S
C720 C704 1.368 . S
C720 C716 1.368 1_545 S
C720 C719 1.523 . S
H721 C696 0.950 . S
H722 C698 0.950 . S
H723 C699 0.949 . S
H724 C701 0.950 . S
H725 C703 0.950 . S
C726 C727 1.349 . S
C726 C728 1.327 . S
C726 H751 0.950 . S
C727 C726 1.349 . S
C727 C743 1.349 1_455 S
C728 C726 1.327 . S
C728 C747 1.429 . S
C728 H752 0.950 . S
C729 C746 1.574 . S
C729 C748 1.368 1_655 S
C729 H753 0.949 . S
H730 C734 0.949 . S
C731 C732 1.349 . S
C731 C733 1.329 1_455 S
C731 H754 0.950 1_455 S
C732 C731 1.349 . S
C732 C744 1.349 . S
C733 C731 1.329 1_655 S
C733 C749 1.431 1_655 S
C733 H755 0.945 . S
C734 H730 0.949 . S
C734 C742 1.574 . S
C734 C750 1.368 . S
H735 C743 0.950 . S
H736 C741 0.950 . S
H737 C742 0.949 . S
H738 C744 0.950 . S
H739 C745 0.950 . S
H740 C746 0.949 . S
C741 H736 0.950 . S
C741 C743 1.327 . S
C741 C747 1.429 1_655 S
C742 C734 1.574 . S
C742 H737 0.949 . S
C742 C748 1.368 . S
C743 C727 1.349 1_655 S
C743 H735 0.950 . S
C743 C741 1.327 . S
C744 C732 1.349 . S
C744 H738 0.950 . S
C744 C745 1.327 . S
C745 H739 0.950 . S
C745 C744 1.327 . S
C745 C749 1.429 . S
C746 C729 1.574 . S
C746 H740 0.949 . S
C746 C750 1.368 1_655 S
C747 C728 1.429 . S
C747 C741 1.429 1_455 S
C747 C748 1.523 . S
C748 C729 1.368 1_455 S
C748 C742 1.368 . S
C748 C747 1.523 . S
C749 C733 1.431 1_455 S
C749 C745 1.429 . S
C749 C750 1.523 . S
C750 C734 1.368 . S
C750 C746 1.368 1_455 S
C750 C749 1.523 . S
H751 C726 0.950 . S
H752 C728 0.950 . S
H753 C729 0.949 . S
H754 C731 0.950 1_655 S
H755 C733 0.945 . S
C756 C757 1.349 . S
C756 C758 1.327 . S
C756 H781 0.950 . S
C757 C756 1.349 . S
C757 C773 1.349 . S
C758 C756 1.327 . S
C758 C777 1.429 . S
C758 H782 0.950 . S
C759 C776 1.574 . S
C759 C778 1.368 . S
C759 H783 0.949 . S
H760 C764 0.949 . S
C761 C762 1.349 . S
C761 C763 1.327 . S
C761 H784 0.950 . S
C762 C761 1.349 . S
C762 C774 1.349 . S
C763 C761 1.327 . S
C763 C779 1.429 . S
C763 H785 0.950 . S
C764 H760 0.949 . S
C764 C772 1.574 . S
C764 C780 1.368 . S
H765 C773 0.950 . S
H766 C771 0.950 . S
H767 C772 0.949 . S
H768 C774 0.950 . S
H769 C775 0.950 . S
H770 C776 0.949 . S
C771 H766 0.950 . S
C771 C773 1.327 . S
C771 C777 1.429 . S
C772 C764 1.574 . S
C772 H767 0.949 . S
C772 C778 1.368 . S
C773 C757 1.349 . S
C773 H765 0.950 . S
C773 C771 1.327 . S
C774 C762 1.349 . S
C774 H768 0.950 . S
C774 C775 1.327 . S
C775 H769 0.950 . S
C775 C774 1.327 . S
C775 C779 1.429 . S
C776 C759 1.574 . S
C776 H770 0.949 . S
C776 C780 1.368 . S
C777 C758 1.429 . S
C777 C771 1.429 . S
C777 C778 1.523 . S
C778 C759 1.368 . S
C778 C772 1.368 . S
C778 C777 1.523 . S
C779 C763 1.429 . S
C779 C775 1.429 . S
C779 C780 1.523 . S
C780 C764 1.368 . S
C780 C776 1.368 . S
C780 C779 1.523 . S
H781 C756 0.950 . S
H782 C758 0.950 . S
H783 C759 0.949 . S
H784 C761 0.950 . S
H785 C763 0.950 . S
C786 C787 1.349 . S
C786 C788 1.327 . S
C786 H811 0.950 . S
C787 C786 1.349 . S
C787 C803 1.349 1_545 S
C788 C786 1.327 . S
C788 C807 1.429 . S
C788 H812 0.950 . S
C789 C806 1.574 . S
C789 C808 1.368 1_565 S
C789 H813 0.949 . S
H790 C794 0.949 . S
C791 C792 1.349 . S
C791 C793 1.327 1_545 S
C791 H814 0.950 1_545 S
C792 C791 1.349 . S
C792 C804 1.349 . S
C793 C791 1.327 1_565 S
C793 C809 1.429 1_565 S
C793 H815 0.950 . S
C794 H790 0.949 . S
C794 C802 1.574 . S
C794 C810 1.368 . S
H795 C803 0.950 . S
H796 C801 0.950 . S
H797 C802 0.949 . S
H798 C804 0.950 . S
H799 C805 0.950 . S
H800 C806 0.949 . S
C801 H796 0.950 . S
C801 C803 1.327 . S
C801 C807 1.429 1_565 S
C802 C794 1.574 . S
C802 H797 0.949 . S
C802 C808 1.368 . S
C803 C787 1.349 1_565 S
C803 H795 0.950 . S
C803 C801 1.327 . S
C804 C792 1.349 . S
C804 H798 0.950 . S
C804 C805 1.327 . S
C805 H799 0.950 . S
C805 C804 1.327 . S
C805 C809 1.429 . S
C806 C789 1.574 . S
C806 H800 0.949 . S
C806 C810 1.368 1_565 S
C807 C788 1.429 . S
C807 C801 1.429 1_545 S
C807 C808 1.523 . S
C808 C789 1.368 1_545 S
C808 C802 1.368 . S
C808 C807 1.523 . S
C809 C793 1.429 1_545 S
C809 C805 1.429 . S
C809 C810 1.523 . S
C810 C794 1.368 . S
C810 C806 1.368 1_545 S
C810 C809 1.523 . S
H811 C786 0.950 . S
H812 C788 0.950 . S
H813 C789 0.949 . S
H814 C791 0.950 1_565 S
H815 C793 0.950 . S
C816 C817 1.349 . S
C816 C818 1.327 . S
C816 H841 0.950 . S
C817 C816 1.349 . S
C817 C833 1.349 . S
C818 C816 1.327 . S
C818 C837 1.429 . S
C818 H842 0.950 . S
C819 C836 1.574 . S
C819 C838 1.368 1_655 S
C819 H843 0.949 . S
H820 C824 0.949 . S
C821 C822 1.349 1_655 S
C821 C823 1.327 . S
C821 H844 0.950 . S
C822 C821 1.349 1_455 S
C822 C834 1.349 . S
C823 C821 1.327 . S
C823 C839 1.429 1_655 S
C823 H845 0.950 . S
C824 H820 0.949 . S
C824 C832 1.574 . S
C824 C840 1.368 . S
H825 C833 0.950 1_655 S
H826 C831 0.950 . S
H827 C832 0.949 . S
H828 C834 0.950 . S
H829 C835 0.950 . S
H830 C836 0.949 . S
C831 H826 0.950 . S
C831 C833 1.327 1_655 S
C831 C837 1.429 1_655 S
C832 C824 1.574 . S
C832 H827 0.949 . S
C832 C838 1.368 . S
C833 C817 1.349 . S
C833 H825 0.950 1_455 S
C833 C831 1.327 1_455 S
C834 C822 1.349 . S
C834 H828 0.950 . S
C834 C835 1.327 . S
C835 H829 0.950 . S
C835 C834 1.327 . S
C835 C839 1.429 . S
C836 C819 1.574 . S
C836 H830 0.949 . S
C836 C840 1.368 1_655 S
C837 C818 1.429 . S
C837 C831 1.429 1_455 S
C837 C838 1.523 . S
C838 C819 1.368 1_455 S
C838 C832 1.368 . S
C838 C837 1.523 . S
C839 C823 1.429 1_455 S
C839 C835 1.429 . S
C839 C840 1.523 . S
C840 C824 1.368 . S
C840 C836 1.368 1_455 S
C840 C839 1.523 . S
H841 C816 0.950 . S
H842 C818 0.950 . S
H843 C819 0.949 . S
H844 C821 0.950 . S
H845 C823 0.950 . S
C846 C847 1.349 . S
C846 C848 1.327 . S
C846 H871 0.950 . S
C847 C846 1.349 . S
C847 C863 1.349 . S
C848 C846 1.327 . S
C848 C867 1.429 . S
C848 H872 0.950 . S
C849 C866 1.574 . S
C849 C868 1.368 . S
C849 H873 0.949 . S
H850 C854 0.949 . S
C851 C852 1.349 . S
C851 C853 1.327 . S
C851 H874 0.950 . S
C852 C851 1.349 . S
C852 C864 1.349 . S
C853 C851 1.327 . S
C853 C869 1.429 . S
C853 H875 0.950 . S
C854 H850 0.949 . S
C854 C862 1.574 . S
C854 C870 1.368 . S
H855 C863 0.950 . S
H856 C861 0.950 . S
H857 C862 0.949 . S
H858 C864 0.950 . S
H859 C865 0.950 . S
H860 C866 0.949 . S
C861 H856 0.950 . S
C861 C863 1.327 . S
C861 C867 1.429 . S
C862 C854 1.574 . S
C862 H857 0.949 . S
C862 C868 1.368 . S
C863 C847 1.349 . S
C863 H855 0.950 . S
C863 C861 1.327 . S
C864 C852 1.349 . S
C864 H858 0.950 . S
C864 C865 1.327 . S
C865 H859 0.950 . S
C865 C864 1.327 . S
C865 C869 1.429 . S
C866 C849 1.574 . S
C866 H860 0.949 . S
C866 C870 1.368 . S
C867 C848 1.429 . S
C867 C861 1.429 . S
C867 C868 1.523 . S
C868 C849 1.368 . S
C868 C862 1.368 . S
C868 C867 1.523 . S
C869 C853 1.429 . S
C869 C865 1.429 . S
C869 C870 1.523 . S
C870 C854 1.368 . S
C870 C866 1.368 . S
C870 C869 1.523 . S
H871 C846 0.950 . S
H872 C848 0.950 . S
H873 C849 0.949 . S
H874 C851 0.950 . S
H875 C853 0.950 . S
C876 C877 1.349 . S
C876 C878 1.327 . S
C876 H901 0.950 . S
C877 C876 1.349 . S
C877 C893 1.349 . S
C878 C876 1.327 . S
C878 C897 1.429 . S
C878 H902 0.950 . S
C879 C896 1.574 . S
C879 C898 1.368 . S
C879 H903 0.949 . S
H880 C884 0.949 . S
C881 C882 1.349 . S
C881 C883 1.327 . S
C881 H904 0.950 . S
C882 C881 1.349 . S
C882 C894 1.349 . S
C883 C881 1.327 . S
C883 C899 1.429 . S
C883 H905 0.950 . S
C884 H880 0.949 . S
C884 C892 1.574 . S
C884 C900 1.368 . S
H885 C893 0.950 . S
H886 C891 0.950 . S
H887 C892 0.949 . S
H888 C894 0.950 . S
H889 C895 0.950 . S
H890 C896 0.949 . S
C891 H886 0.950 . S
C891 C893 1.327 . S
C891 C897 1.429 . S
C892 C884 1.574 . S
C892 H887 0.949 . S
C892 C898 1.368 . S
C893 C877 1.349 . S
C893 H885 0.950 . S
C893 C891 1.327 . S
C894 C882 1.349 . S
C894 H888 0.950 . S
C894 C895 1.327 . S
C895 H889 0.950 . S
C895 C894 1.327 . S
C895 C899 1.429 . S
C896 C879 1.574 . S
C896 H890 0.949 . S
C896 C900 1.368 . S
C897 C878 1.429 . S
C897 C891 1.429 . S
C897 C898 1.523 . S
C898 C879 1.368 . S
C898 C892 1.368 . S
C898 C897 1.523 . S
C899 C883 1.429 . S
C899 C895 1.429 . S
C899 C900 1.523 . S
C900 C884 1.368 . S
C900 C896 1.368 . S
C900 C899 1.523 . S
H901 C876 0.950 . S
H902 C878 0.950 . S
H903 C879 0.949 . S
H904 C881 0.950 . S
H905 C883 0.950 . S
C906 C907 1.349 . S
C906 C908 1.327 . S
C906 H931 0.950 . S
C907 C906 1.349 . S
C907 C923 1.349 . S
C908 C906 1.327 . S
C908 C927 1.429 . S
C908 H932 0.950 . S
C909 C926 1.574 . S
C909 C928 1.368 . S
C909 H933 0.949 . S
H910 C914 0.949 . S
C911 C912 1.349 . S
C911 C913 1.327 . S
C911 H934 0.950 . S
C912 C911 1.349 . S
C912 C924 1.349 . S
C913 C911 1.327 . S
C913 C929 1.429 . S
C913 H935 0.950 . S
C914 H910 0.949 . S
C914 C922 1.574 . S
C914 C930 1.368 . S
H915 C923 0.950 . S
H916 C921 0.950 . S
H917 C922 0.949 . S
H918 C924 0.950 . S
H919 C925 0.950 . S
H920 C926 0.949 . S
C921 H916 0.950 . S
C921 C923 1.327 . S
C921 C927 1.429 . S
C922 C914 1.574 . S
C922 H917 0.949 . S
C922 C928 1.368 . S
C923 C907 1.349 . S
C923 H915 0.950 . S
C923 C921 1.327 . S
C924 C912 1.349 . S
C924 H918 0.950 . S
C924 C925 1.327 . S
C925 H919 0.950 . S
C925 C924 1.327 . S
C925 C929 1.429 . S
C926 C909 1.574 . S
C926 H920 0.949 . S
C926 C930 1.368 . S
C927 C908 1.429 . S
C927 C921 1.429 . S
C927 C928 1.523 . S
C928 C909 1.368 . S
C928 C922 1.368 . S
C928 C927 1.523 . S
C929 C913 1.429 . S
C929 C925 1.429 . S
C929 C930 1.523 . S
C930 C914 1.368 . S
C930 C926 1.368 . S
C930 C929 1.523 . S
H931 C906 0.950 . S
H932 C908 0.950 . S
H933 C909 0.949 . S
H934 C911 0.950 . S
H935 C913 0.950 . S
C936 C937 1.349 . S
C936 C938 1.327 . S
C936 H961 0.950 . S
C937 C936 1.349 . S
C937 C953 1.349 . S
C938 C936 1.327 . S
C938 C957 1.429 . S
C938 H962 0.950 . S
C939 C956 1.574 . S
C939 C958 1.368 . S
C939 H963 0.949 . S
H940 C944 0.949 . S
C941 C942 1.349 . S
C941 C943 1.327 . S
C941 H964 0.950 . S
C942 C941 1.349 . S
C942 C954 1.349 . S
C943 C941 1.327 . S
C943 C959 1.429 . S
C943 H965 0.950 . S
C944 H940 0.949 . S
C944 C952 1.574 . S
C944 C960 1.368 . S
H945 C953 0.950 . S
H946 C951 0.950 . S
H947 C952 0.949 . S
H948 C954 0.950 . S
H949 C955 0.950 . S
H950 C956 0.949 . S
C951 H946 0.950 . S
C951 C953 1.327 . S
C951 C957 1.429 . S
C952 C944 1.574 . S
C952 H947 0.949 . S
C952 C958 1.368 . S
C953 C937 1.349 . S
C953 H945 0.950 . S
C953 C951 1.327 . S
C954 C942 1.349 . S
C954 H948 0.950 . S
C954 C955 1.327 . S
C955 H949 0.950 . S
C955 C954 1.327 . S
C955 C959 1.429 . S
C956 C939 1.574 . S
C956 H950 0.949 . S
C956 C960 1.368 . S
C957 C938 1.429 . S
C957 C951 1.429 . S
C957 C958 1.523 . S
C958 C939 1.368 . S
C958 C952 1.368 . S
C958 C957 1.523 . S
C959 C943 1.429 . S
C959 C955 1.429 . S
C959 C960 1.523 . S
C960 C944 1.368 . S
C960 C956 1.368 . S
C960 C959 1.523 . S
H961 C936 0.950 . S
H962 C938 0.950 . S
H963 C939 0.949 . S
H964 C941 0.950 . S
H965 C943 0.950 . S
C966 C967 1.349 . S
C966 C968 1.327 . S
C966 H991 0.950 . S
C967 C966 1.349 . S
C967 C983 1.349 . S
C968 C966 1.327 . S
C968 C987 1.429 . S
C968 H992 0.950 . S
C969 C986 1.574 . S
C969 C988 1.368 . S
C969 H993 0.949 . S
H970 C974 0.949 . S
C971 C972 1.349 . S
C971 C973 1.327 . S
C971 H994 0.950 . S
C972 C971 1.349 . S
C972 C984 1.349 . S
C973 C971 1.327 . S
C973 C989 1.429 . S
C973 H995 0.950 . S
C974 H970 0.949 . S
C974 C982 1.574 . S
C974 C990 1.368 . S
H975 C983 0.950 . S
H976 C981 0.950 . S
H977 C982 0.949 . S
H978 C984 0.950 . S
H979 C985 0.950 . S
H980 C986 0.949 . S
C981 H976 0.950 . S
C981 C983 1.327 . S
C981 C987 1.429 . S
C982 C974 1.574 . S
C982 H977 0.949 . S
C982 C988 1.368 . S
C983 C967 1.349 . S
C983 H975 0.950 . S
C983 C981 1.327 . S
C984 C972 1.349 . S
C984 H978 0.950 . S
C984 C985 1.327 . S
C985 H979 0.950 . S
C985 C984 1.327 . S
C985 C989 1.429 . S
C986 C969 1.574 . S
C986 H980 0.949 . S
C986 C990 1.368 . S
C987 C968 1.429 . S
C987 C981 1.429 . S
C987 C988 1.523 . S
C988 C969 1.368 . S
C988 C982 1.368 . S
C988 C987 1.523 . S
C989 C973 1.429 . S
C989 C985 1.429 . S
C989 C990 1.523 . S
C990 C974 1.368 . S
C990 C986 1.368 . S
C990 C989 1.523 . S
H991 C966 0.950 . S
H992 C968 0.950 . S
H993 C969 0.949 . S
H994 C971 0.950 . S
H995 C973 0.950 . S
C996 C997 1.349 . S
C996 C998 1.327 . S
C996 H1021 0.950 . S
C997 C996 1.349 . S
C997 C1013 1.349 . S
C998 C996 1.327 . S
C998 C1017 1.429 . S
C998 H1022 0.950 . S
C999 C1016 1.574 . S
C999 C1018 1.368 . S
C999 H1023 0.949 . S
H1000 C1004 0.949 . S
C1001 C1002 1.349 . S
C1001 C1003 1.327 . S
C1001 H1024 0.950 . S
C1002 C1001 1.349 . S
C1002 C1014 1.349 . S
C1003 C1001 1.327 . S
C1003 C1019 1.429 . S
C1003 H1025 0.950 . S
C1004 H1000 0.949 . S
C1004 C1012 1.574 . S
C1004 C1020 1.368 . S
H1005 C1013 0.950 . S
H1006 C1011 0.950 . S
H1007 C1012 0.949 . S
H1008 C1014 0.950 . S
H1009 C1015 0.950 . S
H1010 C1016 0.949 . S
C1011 H1006 0.950 . S
C1011 C1013 1.327 . S
C1011 C1017 1.429 . S
C1012 C1004 1.574 . S
C1012 H1007 0.949 . S
C1012 C1018 1.368 . S
C1013 C997 1.349 . S
C1013 H1005 0.950 . S
C1013 C1011 1.327 . S
C1014 C1002 1.349 . S
C1014 H1008 0.950 . S
C1014 C1015 1.327 . S
C1015 H1009 0.950 . S
C1015 C1014 1.327 . S
C1015 C1019 1.429 . S
C1016 C999 1.574 . S
C1016 H1010 0.949 . S
C1016 C1020 1.368 . S
C1017 C998 1.429 . S
C1017 C1011 1.429 . S
C1017 C1018 1.523 . S
C1018 C999 1.368 . S
C1018 C1012 1.368 . S
C1018 C1017 1.523 . S
C1019 C1003 1.429 . S
C1019 C1015 1.429 . S
C1019 C1020 1.523 . S
C1020 C1004 1.368 . S
C1020 C1016 1.368 . S
C1020 C1019 1.523 . S
H1021 C996 0.950 . S
H1022 C998 0.950 . S
H1023 C999 0.949 . S
H1024 C1001 0.950 . S
H1025 C1003 0.950 . S
C1026 C1027 1.349 . S
C1026 C1028 1.327 . S
C1026 H1051 0.950 . S
C1027 C1026 1.349 . S
C1027 C1043 1.349 . S
C1028 C1026 1.327 . S
C1028 C1047 1.429 . S
C1028 H1052 0.950 . S
C1029 C1046 1.574 . S
C1029 C1048 1.368 . S
C1029 H1053 0.949 . S
H1030 C1034 0.949 . S
C1031 C1032 1.349 . S
C1031 C1033 1.327 . S
C1031 H1054 0.950 . S
C1032 C1031 1.349 . S
C1032 C1044 1.349 . S
C1033 C1031 1.327 . S
C1033 C1049 1.429 . S
C1033 H1055 0.950 . S
C1034 H1030 0.949 . S
C1034 C1042 1.574 . S
C1034 C1050 1.368 . S
H1035 C1043 0.950 . S
H1036 C1041 0.950 . S
H1037 C1042 0.949 . S
H1038 C1044 0.950 . S
H1039 C1045 0.950 . S
H1040 C1046 0.949 . S
C1041 H1036 0.950 . S
C1041 C1043 1.327 . S
C1041 C1047 1.429 . S
C1042 C1034 1.574 . S
C1042 H1037 0.949 . S
C1042 C1048 1.368 . S
C1043 C1027 1.349 . S
C1043 H1035 0.950 . S
C1043 C1041 1.327 . S
C1044 C1032 1.349 . S
C1044 H1038 0.950 . S
C1044 C1045 1.327 . S
C1045 H1039 0.950 . S
C1045 C1044 1.327 . S
C1045 C1049 1.429 . S
C1046 C1029 1.574 . S
C1046 H1040 0.949 . S
C1046 C1050 1.368 . S
C1047 C1028 1.429 . S
C1047 C1041 1.429 . S
C1047 C1048 1.523 . S
C1048 C1029 1.368 . S
C1048 C1042 1.368 . S
C1048 C1047 1.523 . S
C1049 C1033 1.429 . S
C1049 C1045 1.429 . S
C1049 C1050 1.523 . S
C1050 C1034 1.368 . S
C1050 C1046 1.368 . S
C1050 C1049 1.523 . S
H1051 C1026 0.950 . S
H1052 C1028 0.950 . S
H1053 C1029 0.949 . S
H1054 C1031 0.950 . S
H1055 C1033 0.950 . S
C1056 C1057 1.349 . S
C1056 C1058 1.327 . S
C1056 H1081 0.950 . S
C1057 C1056 1.349 . S
C1057 C1073 1.349 . S
C1058 C1056 1.327 . S
C1058 C1077 1.429 . S
C1058 H1082 0.950 . S
C1059 C1076 1.574 . S
C1059 C1078 1.368 . S
C1059 H1083 0.949 . S
H1060 C1064 0.949 . S
C1061 C1062 1.349 . S
C1061 C1063 1.327 . S
C1061 H1084 0.950 . S
C1062 C1061 1.349 . S
C1062 C1074 1.349 . S
C1063 C1061 1.327 . S
C1063 C1079 1.429 . S
C1063 H1085 0.950 . S
C1064 H1060 0.949 . S
C1064 C1072 1.574 . S
C1064 C1080 1.368 . S
H1065 C1073 0.950 . S
H1066 C1071 0.950 . S
H1067 C1072 0.949 . S
H1068 C1074 0.950 . S
H1069 C1075 0.950 . S
H1070 C1076 0.949 . S
C1071 H1066 0.950 . S
C1071 C1073 1.327 . S
C1071 C1077 1.429 . S
C1072 C1064 1.574 . S
C1072 H1067 0.949 . S
C1072 C1078 1.368 . S
C1073 C1057 1.349 . S
C1073 H1065 0.950 . S
C1073 C1071 1.327 . S
C1074 C1062 1.349 . S
C1074 H1068 0.950 . S
C1074 C1075 1.327 . S
C1075 H1069 0.950 . S
C1075 C1074 1.327 . S
C1075 C1079 1.429 . S
C1076 C1059 1.574 . S
C1076 H1070 0.949 . S
C1076 C1080 1.368 . S
C1077 C1058 1.429 . S
C1077 C1071 1.429 . S
C1077 C1078 1.523 . S
C1078 C1059 1.368 . S
C1078 C1072 1.368 . S
C1078 C1077 1.523 . S
C1079 C1063 1.429 . S
C1079 C1075 1.429 . S
C1079 C1080 1.523 . S
C1080 C1064 1.368 . S
C1080 C1076 1.368 . S
C1080 C1079 1.523 . S
H1081 C1056 0.950 . S
H1082 C1058 0.950 . S
H1083 C1059 0.949 . S
H1084 C1061 0.950 . S
H1085 C1063 0.950 . S
C1086 C1087 1.349 . S
C1086 C1088 1.327 . S
C1086 H1111 0.950 . S
C1087 C1086 1.349 . S
C1087 C1103 1.349 . S
C1088 C1086 1.327 . S
C1088 C1107 1.429 . S
C1088 H1112 0.950 . S
C1089 C1106 1.574 . S
C1089 C1108 1.368 . S
C1089 H1113 0.949 . S
H1090 C1094 0.949 . S
C1091 C1092 1.349 . S
C1091 C1093 1.327 . S
C1091 H1114 0.950 . S
C1092 C1091 1.349 . S
C1092 C1104 1.349 . S
C1093 C1091 1.327 . S
C1093 C1109 1.429 . S
C1093 H1115 0.950 . S
C1094 H1090 0.949 . S
C1094 C1102 1.574 . S
C1094 C1110 1.368 . S
H1095 C1103 0.950 . S
H1096 C1101 0.950 . S
H1097 C1102 0.949 . S
H1098 C1104 0.950 . S
H1099 C1105 0.950 . S
H1100 C1106 0.949 . S
C1101 H1096 0.950 . S
C1101 C1103 1.327 . S
C1101 C1107 1.429 . S
C1102 C1094 1.574 . S
C1102 H1097 0.949 . S
C1102 C1108 1.368 . S
C1103 C1087 1.349 . S
C1103 H1095 0.950 . S
C1103 C1101 1.327 . S
C1104 C1092 1.349 . S
C1104 H1098 0.950 . S
C1104 C1105 1.327 . S
C1105 H1099 0.950 . S
C1105 C1104 1.327 . S
C1105 C1109 1.429 . S
C1106 C1089 1.574 . S
C1106 H1100 0.949 . S
C1106 C1110 1.368 . S
C1107 C1088 1.429 . S
C1107 C1101 1.429 . S
C1107 C1108 1.523 . S
C1108 C1089 1.368 . S
C1108 C1102 1.368 . S
C1108 C1107 1.523 . S
C1109 C1093 1.429 . S
C1109 C1105 1.429 . S
C1109 C1110 1.523 . S
C1110 C1094 1.368 . S
C1110 C1106 1.368 . S
C1110 C1109 1.523 . S
H1111 C1086 0.950 . S
H1112 C1088 0.950 . S
H1113 C1089 0.949 . S
H1114 C1091 0.950 . S
H1115 C1093 0.950 . S
C1116 C1117 1.349 . S
C1116 C1118 1.327 . S
C1116 H1141 0.950 . S
C1117 C1116 1.349 . S
C1117 C1133 1.349 . S
C1118 C1116 1.327 . S
C1118 C1137 1.429 . S
C1118 H1142 0.950 . S
C1119 C1136 1.574 . S
C1119 C1138 1.368 . S
C1119 H1143 0.949 . S
H1120 C1124 0.949 . S
C1121 C1122 1.349 1_554 S
C1121 C1123 1.327 . S
C1121 H1144 0.950 . S
C1122 C1121 1.349 1_556 S
C1122 C1134 1.349 . S
C1123 C1121 1.327 . S
C1123 C1139 1.429 . S
C1123 H1145 0.950 . S
C1124 H1120 0.949 . S
C1124 C1132 1.574 . S
C1124 C1140 1.368 . S
H1125 C1133 0.950 . S
H1126 C1131 0.950 . S
H1127 C1132 0.949 . S
H1128 C1134 0.950 . S
H1129 C1135 0.948 . S
H1130 C1136 0.949 . S
C1131 H1126 0.950 . S
C1131 C1133 1.327 . S
C1131 C1137 1.429 . S
C1132 C1124 1.574 . S
C1132 H1127 0.949 . S
C1132 C1138 1.368 . S
C1133 C1117 1.349 . S
C1133 H1125 0.950 . S
C1133 C1131 1.327 . S
C1134 C1122 1.349 . S
C1134 H1128 0.950 . S
C1134 C1135 1.327 1_556 S
C1135 H1129 0.948 . S
C1135 C1134 1.327 1_554 S
C1135 C1139 1.429 . S
C1136 C1119 1.574 . S
C1136 H1130 0.949 . S
C1136 C1140 1.368 . S
C1137 C1118 1.429 . S
C1137 C1131 1.429 . S
C1137 C1138 1.523 . S
C1138 C1119 1.368 . S
C1138 C1132 1.368 . S
C1138 C1137 1.523 . S
C1139 C1123 1.429 . S
C1139 C1135 1.429 . S
C1139 C1140 1.523 . S
C1140 C1124 1.368 . S
C1140 C1136 1.368 . S
C1140 C1139 1.523 . S
H1141 C1116 0.950 . S
H1142 C1118 0.950 . S
H1143 C1119 0.949 . S
H1144 C1121 0.950 . S
H1145 C1123 0.950 . S
C1146 C1147 1.349 . S
C1146 C1148 1.327 . S
C1146 H1171 0.950 . S
C1147 C1146 1.349 . S
C1147 C1163 1.349 . S
C1148 C1146 1.327 . S
C1148 C1167 1.429 . S
C1148 H1172 0.950 . S
C1149 C1166 1.574 . S
C1149 C1168 1.368 . S
C1149 H1173 0.949 . S
H1150 C1154 0.949 . S
C1151 C1152 1.349 1_554 S
C1151 C1153 1.327 . S
C1151 H1174 0.950 . S
C1152 C1151 1.349 1_556 S
C1152 C1164 1.349 . S
C1153 C1151 1.327 . S
C1153 C1169 1.429 . S
C1153 H1175 0.950 . S
C1154 H1150 0.949 . S
C1154 C1162 1.574 . S
C1154 C1170 1.368 . S
H1155 C1163 0.950 . S
H1156 C1161 0.950 . S
H1157 C1162 0.949 . S
H1158 C1164 0.950 . S
H1159 C1165 0.950 . S
H1160 C1166 0.949 . S
C1161 H1156 0.950 . S
C1161 C1163 1.327 . S
C1161 C1167 1.429 . S
C1162 C1154 1.574 . S
C1162 H1157 0.949 . S
C1162 C1168 1.368 . S
C1163 C1147 1.349 . S
C1163 H1155 0.950 . S
C1163 C1161 1.327 . S
C1164 C1152 1.349 . S
C1164 H1158 0.950 . S
C1164 C1165 1.327 1_556 S
C1165 H1159 0.950 . S
C1165 C1164 1.327 1_554 S
C1165 C1169 1.429 . S
C1166 C1149 1.574 . S
C1166 H1160 0.949 . S
C1166 C1170 1.368 . S
C1167 C1148 1.429 . S
C1167 C1161 1.429 . S
C1167 C1168 1.523 . S
C1168 C1149 1.368 . S
C1168 C1162 1.368 . S
C1168 C1167 1.523 . S
C1169 C1153 1.429 . S
C1169 C1165 1.429 . S
C1169 C1170 1.523 . S
C1170 C1154 1.368 . S
C1170 C1166 1.368 . S
C1170 C1169 1.523 . S
H1171 C1146 0.950 . S
H1172 C1148 0.950 . S
H1173 C1149 0.949 . S
H1174 C1151 0.950 . S
H1175 C1153 0.950 . S
C1176 C1177 1.349 . S
C1176 C1178 1.327 . S
C1176 H1201 0.950 . S
C1177 C1176 1.349 . S
C1177 C1193 1.349 . S
C1178 C1176 1.327 . S
C1178 C1197 1.429 . S
C1178 H1202 0.950 . S
C1179 C1196 1.574 . S
C1179 C1198 1.368 . S
C1179 H1203 0.949 . S
H1180 C1184 0.949 . S
C1181 C1182 1.349 1_554 S
C1181 C1183 1.327 . S
C1181 H1204 0.950 . S
C1182 C1181 1.349 1_556 S
C1182 C1194 1.343 1_556 S
C1183 C1181 1.327 . S
C1183 C1199 1.429 . S
C1183 H1205 0.950 . S
C1184 H1180 0.949 . S
C1184 C1192 1.574 . S
C1184 C1200 1.368 . S
H1185 C1193 0.950 . S
H1186 C1191 0.950 . S
H1187 C1192 0.949 . S
H1188 C1194 0.928 1_556 S
H1189 C1195 0.950 . S
H1190 C1196 0.949 . S
C1191 H1186 0.950 . S
C1191 C1193 1.327 . S
C1191 C1197 1.429 . S
C1192 C1184 1.574 . S
C1192 H1187 0.949 . S
C1192 C1198 1.368 . S
C1193 C1177 1.349 . S
C1193 H1185 0.950 . S
C1193 C1191 1.327 . S
C1194 C1182 1.343 1_554 S
C1194 H1188 0.928 1_554 S
C1194 C1195 1.356 . S
C1195 H1189 0.950 . S
C1195 C1194 1.356 . S
C1195 C1199 1.429 . S
C1196 C1179 1.574 . S
C1196 H1190 0.949 . S
C1196 C1200 1.368 . S
C1197 C1178 1.429 . S
C1197 C1191 1.429 . S
C1197 C1198 1.523 . S
C1198 C1179 1.368 . S
C1198 C1192 1.368 . S
C1198 C1197 1.523 . S
C1199 C1183 1.429 . S
C1199 C1195 1.429 . S
C1199 C1200 1.523 . S
C1200 C1184 1.368 . S
C1200 C1196 1.368 . S
C1200 C1199 1.523 . S
H1201 C1176 0.950 . S
H1202 C1178 0.950 . S
H1203 C1179 0.949 . S
H1204 C1181 0.950 . S
H1205 C1183 0.950 . S
C1206 C1207 1.349 . S
C1206 C1208 1.327 . S
C1206 H1231 0.950 . S
C1207 C1206 1.349 . S
C1207 C1223 1.349 . S
C1208 C1206 1.327 . S
C1208 C1227 1.429 . S
C1208 H1232 0.950 . S
C1209 C1226 1.574 . S
C1209 C1228 1.368 . S
C1209 H1233 0.949 . S
H1210 C1214 0.949 . S
C1211 C1212 1.349 . S
C1211 C1213 1.327 . S
C1211 H1234 0.950 . S
C1212 C1211 1.349 . S
C1212 C1224 1.349 . S
C1213 C1211 1.327 . S
C1213 C1229 1.429 . S
C1213 H1235 0.950 . S
C1214 H1210 0.949 . S
C1214 C1222 1.574 . S
C1214 C1230 1.368 . S
H1215 C1223 0.950 . S
H1216 C1221 0.950 . S
H1217 C1222 0.949 . S
H1218 C1224 0.950 . S
H1219 C1225 0.950 . S
H1220 C1226 0.949 . S
C1221 H1216 0.950 . S
C1221 C1223 1.327 . S
C1221 C1227 1.429 . S
C1222 C1214 1.574 . S
C1222 H1217 0.949 . S
C1222 C1228 1.368 . S
C1223 C1207 1.349 . S
C1223 H1215 0.950 . S
C1223 C1221 1.327 . S
C1224 C1212 1.349 . S
C1224 H1218 0.950 . S
C1224 C1225 1.327 . S
C1225 H1219 0.950 . S
C1225 C1224 1.327 . S
C1225 C1229 1.429 . S
C1226 C1209 1.574 . S
C1226 H1220 0.949 . S
C1226 C1230 1.368 . S
C1227 C1208 1.429 . S
C1227 C1221 1.429 . S
C1227 C1228 1.523 . S
C1228 C1209 1.368 . S
C1228 C1222 1.368 . S
C1228 C1227 1.523 . S
C1229 C1213 1.429 . S
C1229 C1225 1.429 . S
C1229 C1230 1.523 . S
C1230 C1214 1.368 . S
C1230 C1226 1.368 . S
C1230 C1229 1.523 . S
H1231 C1206 0.950 . S
H1232 C1208 0.950 . S
H1233 C1209 0.949 . S
H1234 C1211 0.950 . S
H1235 C1213 0.950 . S
C1236 C1237 1.349 . S
C1236 C1238 1.327 . S
C1236 H1261 0.950 . S
C1237 C1236 1.349 . S
C1237 C1253 1.349 . S
C1238 C1236 1.327 . S
C1238 C1257 1.429 . S
C1238 H1262 0.950 . S
C1239 C1256 1.574 . S
C1239 C1258 1.368 . S
C1239 H1263 0.949 . S
H1240 C1244 0.949 . S
C1241 C1242 1.349 . S
C1241 C1243 1.327 . S
C1241 H1264 0.950 . S
C1242 C1241 1.349 . S
C1242 C1254 1.349 . S
C1243 C1241 1.327 . S
C1243 C1259 1.429 . S
C1243 H1265 0.950 . S
C1244 H1240 0.949 . S
C1244 C1252 1.574 . S
C1244 C1260 1.368 . S
H1245 C1253 0.950 . S
H1246 C1251 0.950 . S
H1247 C1252 0.949 . S
H1248 C1254 0.950 . S
H1249 C1255 0.950 . S
H1250 C1256 0.949 . S
C1251 H1246 0.950 . S
C1251 C1253 1.327 . S
C1251 C1257 1.429 . S
C1252 C1244 1.574 . S
C1252 H1247 0.949 . S
C1252 C1258 1.368 . S
C1253 C1237 1.349 . S
C1253 H1245 0.950 . S
C1253 C1251 1.327 . S
C1254 C1242 1.349 . S
C1254 H1248 0.950 . S
C1254 C1255 1.327 . S
C1255 H1249 0.950 . S
C1255 C1254 1.327 . S
C1255 C1259 1.429 . S
C1256 C1239 1.574 . S
C1256 H1250 0.949 . S
C1256 C1260 1.368 . S
C1257 C1238 1.429 . S
C1257 C1251 1.429 . S
C1257 C1258 1.523 . S
C1258 C1239 1.368 . S
C1258 C1252 1.368 . S
C1258 C1257 1.523 . S
C1259 C1243 1.429 . S
C1259 C1255 1.429 . S
C1259 C1260 1.523 . S
C1260 C1244 1.368 . S
C1260 C1256 1.368 . S
C1260 C1259 1.523 . S
H1261 C1236 0.950 . S
H1262 C1238 0.950 . S
H1263 C1239 0.949 . S
H1264 C1241 0.950 . S
H1265 C1243 0.950 . S
C1266 C1267 1.349 . S
C1266 C1268 1.327 . S
C1266 H1291 0.950 . S
C1267 C1266 1.349 . S
C1267 C1283 1.349 . S
C1268 C1266 1.327 . S
C1268 C1287 1.429 . S
C1268 H1292 0.950 . S
C1269 C1286 1.574 . S
C1269 C1288 1.368 . S
C1269 H1293 0.949 . S
H1270 C1274 0.949 . S
C1271 C1272 1.349 . S
C1271 C1273 1.327 . S
C1271 H1294 0.950 . S
C1272 C1271 1.349 . S
C1272 C1284 1.349 . S
C1273 C1271 1.327 . S
C1273 C1289 1.429 . S
C1273 H1295 0.950 . S
C1274 H1270 0.949 . S
C1274 C1282 1.574 . S
C1274 C1290 1.368 . S
H1275 C1283 0.950 . S
H1276 C1281 0.950 . S
H1277 C1282 0.949 . S
H1278 C1284 0.950 . S
H1279 C1285 0.950 . S
H1280 C1286 0.949 . S
C1281 H1276 0.950 . S
C1281 C1283 1.327 . S
C1281 C1287 1.429 . S
C1282 C1274 1.574 . S
C1282 H1277 0.949 . S
C1282 C1288 1.368 . S
C1283 C1267 1.349 . S
C1283 H1275 0.950 . S
C1283 C1281 1.327 . S
C1284 C1272 1.349 . S
C1284 H1278 0.950 . S
C1284 C1285 1.327 . S
C1285 H1279 0.950 . S
C1285 C1284 1.327 . S
C1285 C1289 1.429 . S
C1286 C1269 1.574 . S
C1286 H1280 0.949 . S
C1286 C1290 1.368 . S
C1287 C1268 1.429 . S
C1287 C1281 1.429 . S
C1287 C1288 1.523 . S
C1288 C1269 1.368 . S
C1288 C1282 1.368 . S
C1288 C1287 1.523 . S
C1289 C1273 1.429 . S
C1289 C1285 1.429 . S
C1289 C1290 1.523 . S
C1290 C1274 1.368 . S
C1290 C1286 1.368 . S
C1290 C1289 1.523 . S
H1291 C1266 0.950 . S
H1292 C1268 0.950 . S
H1293 C1269 0.949 . S
H1294 C1271 0.950 . S
H1295 C1273 0.950 . S
C1296 C1297 1.349 . S
C1296 C1298 1.327 . S
C1296 H1321 0.950 . S
C1297 C1296 1.349 . S
C1297 C1313 1.349 . S
C1298 C1296 1.327 . S
C1298 C1317 1.429 . S
C1298 H1322 0.950 . S
C1299 C1316 1.574 . S
C1299 C1318 1.368 . S
C1299 H1323 0.949 . S
H1300 C1304 0.949 . S
C1301 C1302 1.367 . S
C1301 C1303 1.251 1_554 S
C1301 H1324 1.021 . S
C1302 C1301 1.367 . S
C1302 C1314 1.349 1_554 S
C1303 C1301 1.251 1_556 S
C1303 C1319 1.429 . S
C1303 H1325 0.950 . S
C1304 H1300 0.949 . S
C1304 C1312 1.574 . S
C1304 C1320 1.368 . S
H1305 C1313 0.950 . S
H1306 C1311 0.950 . S
H1307 C1312 0.949 . S
H1308 C1314 0.950 . S
H1309 C1315 0.950 . S
H1310 C1316 0.949 . S
C1311 H1306 0.950 . S
C1311 C1313 1.327 . S
C1311 C1317 1.429 . S
C1312 C1304 1.574 . S
C1312 H1307 0.949 . S
C1312 C1318 1.368 . S
C1313 C1297 1.349 . S
C1313 H1305 0.950 . S
C1313 C1311 1.327 . S
C1314 C1302 1.349 1_556 S
C1314 H1308 0.950 . S
C1314 C1315 1.327 . S
C1315 H1309 0.950 . S
C1315 C1314 1.327 . S
C1315 C1319 1.429 . S
C1316 C1299 1.574 . S
C1316 H1310 0.949 . S
C1316 C1320 1.368 . S
C1317 C1298 1.429 . S
C1317 C1311 1.429 . S
C1317 C1318 1.523 . S
C1318 C1299 1.368 . S
C1318 C1312 1.368 . S
C1318 C1317 1.523 . S
C1319 C1303 1.429 . S
C1319 C1315 1.429 . S
C1319 C1320 1.523 . S
C1320 C1304 1.368 . S
C1320 C1316 1.368 . S
C1320 C1319 1.523 . S
H1321 C1296 0.950 . S
H1322 C1298 0.950 . S
H1323 C1299 0.949 . S
H1324 C1301 1.021 . S
H1325 C1303 0.950 . S
C1326 C1327 1.349 . S
C1326 C1328 1.327 . S
C1326 H1351 0.950 . S
C1327 C1326 1.349 . S
C1327 C1343 1.349 . S
C1328 C1326 1.327 . S
C1328 C1347 1.429 . S
C1328 H1352 0.950 . S
C1329 C1346 1.574 . S
C1329 C1348 1.368 . S
C1329 H1353 0.949 . S
H1330 C1334 0.949 . S
C1331 C1332 1.349 1_556 S
C1331 C1333 1.327 . S
C1331 H1354 0.950 . S
C1332 C1331 1.349 1_554 S
C1332 C1344 1.349 . S
C1333 C1331 1.327 . S
C1333 C1349 1.429 . S
C1333 H1355 0.950 . S
C1334 H1330 0.949 . S
C1334 C1342 1.574 . S
C1334 C1350 1.368 . S
H1335 C1343 0.950 . S
H1336 C1341 0.950 . S
H1337 C1342 0.949 . S
H1338 C1344 0.950 . S
H1339 C1345 0.950 . S
H1340 C1346 0.949 . S
C1341 H1336 0.950 . S
C1341 C1343 1.327 . S
C1341 C1347 1.429 . S
C1342 C1334 1.574 . S
C1342 H1337 0.949 . S
C1342 C1348 1.368 . S
C1343 C1327 1.349 . S
C1343 H1335 0.950 . S
C1343 C1341 1.327 . S
C1344 C1332 1.349 . S
C1344 H1338 0.950 . S
C1344 C1345 1.327 1_554 S
C1345 H1339 0.950 . S
C1345 C1344 1.327 1_556 S
C1345 C1349 1.429 . S
C1346 C1329 1.574 . S
C1346 H1340 0.949 . S
C1346 C1350 1.368 . S
C1347 C1328 1.429 . S
C1347 C1341 1.429 . S
C1347 C1348 1.523 . S
C1348 C1329 1.368 . S
C1348 C1342 1.368 . S
C1348 C1347 1.523 . S
C1349 C1333 1.429 . S
C1349 C1345 1.429 . S
C1349 C1350 1.523 . S
C1350 C1334 1.368 . S
C1350 C1346 1.368 . S
C1350 C1349 1.523 . S
H1351 C1326 0.950 . S
H1352 C1328 0.950 . S
H1353 C1329 0.949 . S
H1354 C1331 0.950 . S
H1355 C1333 0.950 . S
C1356 C1357 1.349 . S
C1356 C1358 1.327 . S
C1356 H1381 0.950 . S
C1357 C1356 1.349 . S
C1357 C1373 1.349 . S
C1358 C1356 1.327 . S
C1358 C1377 1.429 . S
C1358 H1382 0.950 . S
C1359 C1376 1.574 . S
C1359 C1378 1.368 . S
C1359 H1383 0.949 . S
H1360 C1364 0.949 . S
C1361 C1362 1.349 1_556 S
C1361 C1363 1.327 . S
C1361 H1384 0.950 . S
C1362 C1361 1.349 1_554 S
C1362 C1374 1.349 . S
C1363 C1361 1.327 . S
C1363 C1379 1.429 . S
C1363 H1385 0.950 . S
C1364 H1360 0.949 . S
C1364 C1372 1.574 . S
C1364 C1380 1.368 . S
H1365 C1373 0.950 . S
H1366 C1371 0.950 . S
H1367 C1372 0.949 . S
H1368 C1374 0.950 . S
H1369 C1375 0.950 . S
H1370 C1376 0.949 . S
C1371 H1366 0.950 . S
C1371 C1373 1.327 . S
C1371 C1377 1.429 . S
C1372 C1364 1.574 . S
C1372 H1367 0.949 . S
C1372 C1378 1.368 . S
C1373 C1357 1.349 . S
C1373 H1365 0.950 . S
C1373 C1371 1.327 . S
C1374 C1362 1.349 . S
C1374 H1368 0.950 . S
C1374 C1375 1.327 1_554 S
C1375 H1369 0.950 . S
C1375 C1374 1.327 1_556 S
C1375 C1379 1.429 . S
C1376 C1359 1.574 . S
C1376 H1370 0.949 . S
C1376 C1380 1.368 . S
C1377 C1358 1.429 . S
C1377 C1371 1.429 . S
C1377 C1378 1.523 . S
C1378 C1359 1.368 . S
C1378 C1372 1.368 . S
C1378 C1377 1.523 . S
C1379 C1363 1.429 . S
C1379 C1375 1.429 . S
C1379 C1380 1.523 . S
C1380 C1364 1.368 . S
C1380 C1376 1.368 . S
C1380 C1379 1.523 . S
H1381 C1356 0.950 . S
H1382 C1358 0.950 . S
H1383 C1359 0.949 . S
H1384 C1361 0.950 . S
H1385 C1363 0.950 . S
C1386 C1387 1.349 . S
C1386 C1388 1.327 . S
C1386 H1411 0.950 . S
C1387 C1386 1.349 . S
C1387 C1403 1.349 . S
C1388 C1386 1.327 . S
C1388 C1407 1.429 . S
C1388 H1412 0.950 . S
C1389 C1406 1.574 . S
C1389 C1408 1.368 . S
C1389 H1413 0.949 . S
H1390 C1394 0.949 . S
C1391 C1392 1.349 . S
C1391 C1393 1.327 . S
C1391 H1414 0.950 . S
C1392 C1391 1.349 . S
C1392 C1404 1.349 . S
C1393 C1391 1.327 . S
C1393 C1409 1.429 . S
C1393 H1415 0.950 . S
C1394 H1390 0.949 . S
C1394 C1402 1.574 . S
C1394 C1410 1.368 . S
H1395 C1403 0.950 . S
H1396 C1401 0.950 . S
H1397 C1402 0.949 . S
H1398 C1404 0.950 . S
H1399 C1405 0.950 . S
H1400 C1406 0.949 . S
C1401 H1396 0.950 . S
C1401 C1403 1.327 . S
C1401 C1407 1.429 . S
C1402 C1394 1.574 . S
C1402 H1397 0.949 . S
C1402 C1408 1.368 . S
C1403 C1387 1.349 . S
C1403 H1395 0.950 . S
C1403 C1401 1.327 . S
C1404 C1392 1.349 . S
C1404 H1398 0.950 . S
C1404 C1405 1.327 . S
C1405 H1399 0.950 . S
C1405 C1404 1.327 . S
C1405 C1409 1.429 . S
C1406 C1389 1.574 . S
C1406 H1400 0.949 . S
C1406 C1410 1.368 . S
C1407 C1388 1.429 . S
C1407 C1401 1.429 . S
C1407 C1408 1.523 . S
C1408 C1389 1.368 . S
C1408 C1402 1.368 . S
C1408 C1407 1.523 . S
C1409 C1393 1.429 . S
C1409 C1405 1.429 . S
C1409 C1410 1.523 . S
C1410 C1394 1.368 . S
C1410 C1406 1.368 . S
C1410 C1409 1.523 . S
H1411 C1386 0.950 . S
H1412 C1388 0.950 . S
H1413 C1389 0.949 . S
H1414 C1391 0.950 . S
H1415 C1393 0.950 . S
C1416 C1417 1.349 . S
C1416 C1418 1.327 . S
C1416 H1441 0.950 . S
C1417 C1416 1.349 . S
C1417 C1433 1.349 . S
C1418 C1416 1.327 . S
C1418 C1437 1.429 . S
C1418 H1442 0.950 . S
C1419 C1436 1.574 . S
C1419 C1438 1.368 . S
C1419 H1443 0.949 . S
H1420 C1424 0.949 . S
C1421 C1422 1.349 . S
C1421 C1423 1.327 . S
C1421 H1444 0.950 . S
C1422 C1421 1.349 . S
C1422 C1434 1.349 . S
C1423 C1421 1.327 . S
C1423 C1439 1.429 . S
C1423 H1445 0.950 . S
C1424 H1420 0.949 . S
C1424 C1432 1.574 . S
C1424 C1440 1.368 . S
H1425 C1433 0.950 . S
H1426 C1431 0.950 . S
H1427 C1432 0.949 . S
H1428 C1434 0.950 . S
H1429 C1435 0.950 . S
H1430 C1436 0.949 . S
C1431 H1426 0.950 . S
C1431 C1433 1.327 . S
C1431 C1437 1.429 . S
C1432 C1424 1.574 . S
C1432 H1427 0.949 . S
C1432 C1438 1.368 . S
C1433 C1417 1.349 . S
C1433 H1425 0.950 . S
C1433 C1431 1.327 . S
C1434 C1422 1.349 . S
C1434 H1428 0.950 . S
C1434 C1435 1.327 . S
C1435 H1429 0.950 . S
C1435 C1434 1.327 . S
C1435 C1439 1.429 . S
C1436 C1419 1.574 . S
C1436 H1430 0.949 . S
C1436 C1440 1.368 . S
C1437 C1418 1.429 . S
C1437 C1431 1.429 . S
C1437 C1438 1.523 . S
C1438 C1419 1.368 . S
C1438 C1432 1.368 . S
C1438 C1437 1.523 . S
C1439 C1423 1.429 . S
C1439 C1435 1.429 . S
C1439 C1440 1.523 . S
C1440 C1424 1.368 . S
C1440 C1436 1.368 . S
C1440 C1439 1.523 . S
H1441 C1416 0.950 . S
H1442 C1418 0.950 . S
H1443 C1419 0.949 . S
H1444 C1421 0.950 . S
H1445 C1423 0.950 . S
C1446 C1447 1.349 . S
C1446 C1448 1.327 . S
C1446 H1471 0.950 . S
C1447 C1446 1.349 . S
C1447 C1463 1.349 . S
C1448 C1446 1.327 . S
C1448 C1467 1.429 . S
C1448 H1472 0.950 . S
C1449 C1466 1.574 . S
C1449 C1468 1.368 . S
C1449 H1473 0.949 . S
H1450 C1454 0.949 . S
C1451 C1452 1.349 . S
C1451 C1453 1.327 . S
C1451 H1474 0.950 . S
C1452 C1451 1.349 . S
C1452 C1464 1.349 . S
C1453 C1451 1.327 . S
C1453 C1469 1.429 . S
C1453 H1475 0.950 . S
C1454 H1450 0.949 . S
C1454 C1462 1.574 . S
C1454 C1470 1.368 . S
H1455 C1463 0.950 . S
H1456 C1461 0.950 . S
H1457 C1462 0.949 . S
H1458 C1464 0.950 . S
H1459 C1465 0.950 . S
H1460 C1466 0.949 . S
C1461 H1456 0.950 . S
C1461 C1463 1.327 . S
C1461 C1467 1.429 . S
C1462 C1454 1.574 . S
C1462 H1457 0.949 . S
C1462 C1468 1.368 . S
C1463 C1447 1.349 . S
C1463 H1455 0.950 . S
C1463 C1461 1.327 . S
C1464 C1452 1.349 . S
C1464 H1458 0.950 . S
C1464 C1465 1.327 . S
C1465 H1459 0.950 . S
C1465 C1464 1.327 . S
C1465 C1469 1.429 . S
C1466 C1449 1.574 . S
C1466 H1460 0.949 . S
C1466 C1470 1.368 . S
C1467 C1448 1.429 . S
C1467 C1461 1.429 . S
C1467 C1468 1.523 . S
C1468 C1449 1.368 . S
C1468 C1462 1.368 . S
C1468 C1467 1.523 . S
C1469 C1453 1.429 . S
C1469 C1465 1.429 . S
C1469 C1470 1.523 . S
C1470 C1454 1.368 . S
C1470 C1466 1.368 . S
C1470 C1469 1.523 . S
H1471 C1446 0.950 . S
H1472 C1448 0.950 . S
H1473 C1449 0.949 . S
H1474 C1451 0.950 . S
H1475 C1453 0.950 . S
C1476 C1477 1.349 . S
C1476 C1478 1.327 . S
C1476 H1501 0.950 . S
C1477 C1476 1.349 . S
C1477 C1493 1.349 . S
C1478 C1476 1.327 . S
C1478 C1497 1.429 . S
C1478 H1502 0.950 . S
C1479 C1496 1.574 . S
C1479 C1498 1.368 . S
C1479 H1503 0.949 . S
H1480 C1484 0.949 . S
C1481 C1482 1.349 . S
C1481 C1483 1.327 . S
C1481 H1504 0.950 . S
C1482 C1481 1.349 . S
C1482 C1494 1.349 . S
C1483 C1481 1.327 . S
C1483 C1499 1.429 . S
C1483 H1505 0.950 . S
C1484 H1480 0.949 . S
C1484 C1492 1.574 . S
C1484 C1500 1.368 . S
H1485 C1493 0.950 . S
H1486 C1491 0.950 . S
H1487 C1492 0.949 . S
H1488 C1494 0.950 . S
H1489 C1495 0.950 . S
H1490 C1496 0.949 . S
C1491 H1486 0.950 . S
C1491 C1493 1.327 . S
C1491 C1497 1.429 . S
C1492 C1484 1.574 . S
C1492 H1487 0.949 . S
C1492 C1498 1.368 . S
C1493 C1477 1.349 . S
C1493 H1485 0.950 . S
C1493 C1491 1.327 . S
C1494 C1482 1.349 . S
C1494 H1488 0.950 . S
C1494 C1495 1.327 . S
C1495 H1489 0.950 . S
C1495 C1494 1.327 . S
C1495 C1499 1.429 . S
C1496 C1479 1.574 . S
C1496 H1490 0.949 . S
C1496 C1500 1.368 . S
C1497 C1478 1.429 . S
C1497 C1491 1.429 . S
C1497 C1498 1.523 . S
C1498 C1479 1.368 . S
C1498 C1492 1.368 . S
C1498 C1497 1.523 . S
C1499 C1483 1.429 . S
C1499 C1495 1.429 . S
C1499 C1500 1.523 . S
C1500 C1484 1.368 . S
C1500 C1496 1.368 . S
C1500 C1499 1.523 . S
H1501 C1476 0.950 . S
H1502 C1478 0.950 . S
H1503 C1479 0.949 . S
H1504 C1481 0.950 . S
H1505 C1483 0.950 . S
C1506 C1507 1.349 . S
C1506 C1508 1.327 . S
C1506 H1531 0.950 . S
C1507 C1506 1.349 . S
C1507 C1523 1.349 . S
C1508 C1506 1.327 . S
C1508 C1527 1.429 . S
C1508 H1532 0.950 . S
C1509 C1526 1.574 . S
C1509 C1528 1.368 . S
C1509 H1533 0.949 . S
H1510 C1514 0.949 . S
C1511 C1512 1.349 . S
C1511 C1513 1.327 . S
C1511 H1534 0.950 . S
C1512 C1511 1.349 . S
C1512 C1524 1.349 . S
C1513 C1511 1.327 . S
C1513 C1529 1.429 . S
C1513 H1535 0.950 . S
C1514 H1510 0.949 . S
C1514 C1522 1.574 . S
C1514 C1530 1.368 . S
H1515 C1523 0.950 . S
H1516 C1521 0.950 . S
H1517 C1522 0.949 . S
H1518 C1524 0.950 . S
H1519 C1525 0.950 . S
H1520 C1526 0.949 . S
C1521 H1516 0.950 . S
C1521 C1523 1.327 . S
C1521 C1527 1.429 . S
C1522 C1514 1.574 . S
C1522 H1517 0.949 . S
C1522 C1528 1.368 . S
C1523 C1507 1.349 . S
C1523 H1515 0.950 . S
C1523 C1521 1.327 . S
C1524 C1512 1.349 . S
C1524 H1518 0.950 . S
C1524 C1525 1.327 . S
C1525 H1519 0.950 . S
C1525 C1524 1.327 . S
C1525 C1529 1.429 . S
C1526 C1509 1.574 . S
C1526 H1520 0.949 . S
C1526 C1530 1.368 . S
C1527 C1508 1.429 . S
C1527 C1521 1.429 . S
C1527 C1528 1.523 . S
C1528 C1509 1.368 . S
C1528 C1522 1.368 . S
C1528 C1527 1.523 . S
C1529 C1513 1.429 . S
C1529 C1525 1.429 . S
C1529 C1530 1.523 . S
C1530 C1514 1.368 . S
C1530 C1526 1.368 . S
C1530 C1529 1.523 . S
H1531 C1506 0.950 . S
H1532 C1508 0.950 . S
H1533 C1509 0.949 . S
H1534 C1511 0.950 . S
H1535 C1513 0.950 . S
C1536 C1537 1.349 . S
C1536 C1538 1.327 . S
C1536 H1561 0.950 . S
C1537 C1536 1.349 . S
C1537 C1553 1.349 . S
C1538 C1536 1.327 . S
C1538 C1557 1.429 . S
C1538 H1562 0.950 . S
C1539 C1556 1.574 . S
C1539 C1558 1.368 . S
C1539 H1563 0.949 . S
H1540 C1544 0.949 . S
C1541 C1542 1.349 . S
C1541 C1543 1.327 . S
C1541 H1564 0.950 . S
C1542 C1541 1.349 . S
C1542 C1554 1.349 . S
C1543 C1541 1.327 . S
C1543 C1559 1.429 . S
C1543 H1565 0.950 . S
C1544 H1540 0.949 . S
C1544 C1552 1.574 . S
C1544 C1560 1.368 . S
H1545 C1553 0.950 . S
H1546 C1551 0.950 . S
H1547 C1552 0.949 . S
H1548 C1554 0.950 . S
H1549 C1555 0.950 . S
H1550 C1556 0.949 . S
C1551 H1546 0.950 . S
C1551 C1553 1.327 . S
C1551 C1557 1.429 . S
C1552 C1544 1.574 . S
C1552 H1547 0.949 . S
C1552 C1558 1.368 . S
C1553 C1537 1.349 . S
C1553 H1545 0.950 . S
C1553 C1551 1.327 . S
C1554 C1542 1.349 . S
C1554 H1548 0.950 . S
C1554 C1555 1.327 . S
C1555 H1549 0.950 . S
C1555 C1554 1.327 . S
C1555 C1559 1.429 . S
C1556 C1539 1.574 . S
C1556 H1550 0.949 . S
C1556 C1560 1.368 . S
C1557 C1538 1.429 . S
C1557 C1551 1.429 . S
C1557 C1558 1.523 . S
C1558 C1539 1.368 . S
C1558 C1552 1.368 . S
C1558 C1557 1.523 . S
C1559 C1543 1.429 . S
C1559 C1555 1.429 . S
C1559 C1560 1.523 . S
C1560 C1544 1.368 . S
C1560 C1556 1.368 . S
C1560 C1559 1.523 . S
H1561 C1536 0.950 . S
H1562 C1538 0.950 . S
H1563 C1539 0.949 . S
H1564 C1541 0.950 . S
H1565 C1543 0.950 . S
C1566 C1567 1.349 . S
C1566 C1568 1.327 . S
C1566 H1591 0.950 . S
C1567 C1566 1.349 . S
C1567 C1583 1.349 . S
C1568 C1566 1.327 . S
C1568 C1587 1.429 . S
C1568 H1592 0.950 . S
C1569 C1586 1.574 . S
C1569 C1588 1.368 . S
C1569 H1593 0.949 . S
H1570 C1574 0.956 . S
C1571 C1572 1.349 . S
C1571 C1573 1.327 . S
C1571 H1594 0.950 . S
C1572 C1571 1.349 . S
C1572 C1584 1.349 . S
C1573 C1571 1.327 . S
C1573 C1589 1.429 . S
C1573 H1595 0.950 . S
C1574 H1570 0.956 . S
C1574 C1582 1.574 . S
C1574 C1590 1.368 . S
H1575 C1583 0.950 . S
H1576 C1581 0.950 . S
H1577 C1582 0.949 . S
H1578 C1584 0.950 1_565 S
H1579 C1585 0.950 1_565 S
H1580 C1586 0.949 . S
C1581 H1576 0.950 . S
C1581 C1583 1.327 . S
C1581 C1587 1.429 . S
C1582 C1574 1.574 . S
C1582 H1577 0.949 . S
C1582 C1588 1.368 . S
C1583 C1567 1.349 . S
C1583 H1575 0.950 . S
C1583 C1581 1.327 . S
C1584 C1572 1.349 . S
C1584 H1578 0.950 1_545 S
C1584 C1585 1.327 . S
C1585 H1579 0.950 1_545 S
C1585 C1584 1.327 . S
C1585 C1589 1.429 . S
C1586 C1569 1.574 . S
C1586 H1580 0.949 . S
C1586 C1590 1.368 . S
C1587 C1568 1.429 . S
C1587 C1581 1.429 . S
C1587 C1588 1.523 . S
C1588 C1569 1.368 . S
C1588 C1582 1.368 . S
C1588 C1587 1.523 . S
C1589 C1573 1.429 . S
C1589 C1585 1.429 . S
C1589 C1590 1.523 . S
C1590 C1574 1.368 . S
C1590 C1586 1.368 . S
C1590 C1589 1.523 . S
H1591 C1566 0.950 . S
H1592 C1568 0.950 . S
H1593 C1569 0.949 . S
H1594 C1571 0.950 . S
H1595 C1573 0.950 . S
C1596 C1597 1.349 . S
C1596 C1598 1.327 . S
C1596 H1621 0.950 . S
C1597 C1596 1.349 . S
C1597 C1613 1.349 . S
C1598 C1596 1.327 . S
C1598 C1617 1.429 . S
C1598 H1622 0.950 . S
C1599 C1616 1.574 . S
C1599 C1618 1.368 . S
C1599 H1623 0.949 . S
H1600 C1604 0.949 . S
C1601 C1602 1.349 . S
C1601 C1603 1.327 . S
C1601 H1624 0.950 . S
C1602 C1601 1.349 . S
C1602 C1614 1.349 . S
C1603 C1601 1.327 . S
C1603 C1619 1.429 . S
C1603 H1625 0.950 . S
C1604 H1600 0.949 . S
C1604 C1612 1.574 . S
C1604 C1620 1.368 . S
H1605 C1613 0.950 . S
H1606 C1611 0.950 . S
H1607 C1612 0.949 . S
H1608 C1614 0.950 . S
H1609 C1615 0.950 . S
H1610 C1616 0.949 . S
C1611 H1606 0.950 . S
C1611 C1613 1.327 . S
C1611 C1617 1.429 . S
C1612 C1604 1.574 . S
C1612 H1607 0.949 . S
C1612 C1618 1.368 . S
C1613 C1597 1.349 . S
C1613 H1605 0.950 . S
C1613 C1611 1.327 . S
C1614 C1602 1.349 . S
C1614 H1608 0.950 . S
C1614 C1615 1.327 . S
C1615 H1609 0.950 . S
C1615 C1614 1.327 . S
C1615 C1619 1.429 . S
C1616 C1599 1.574 . S
C1616 H1610 0.949 . S
C1616 C1620 1.368 . S
C1617 C1598 1.429 . S
C1617 C1611 1.429 . S
C1617 C1618 1.523 . S
C1618 C1599 1.368 . S
C1618 C1612 1.368 . S
C1618 C1617 1.523 . S
C1619 C1603 1.429 . S
C1619 C1615 1.429 . S
C1619 C1620 1.523 . S
C1620 C1604 1.368 . S
C1620 C1616 1.368 . S
C1620 C1619 1.523 . S
H1621 C1596 0.950 . S
H1622 C1598 0.950 . S
H1623 C1599 0.949 . S
H1624 C1601 0.950 . S
H1625 C1603 0.950 . S
C1626 C1627 1.349 . S
C1626 C1628 1.327 . S
C1626 H1651 0.950 . S
C1627 C1626 1.349 . S
C1627 C1643 1.349 . S
C1628 C1626 1.327 . S
C1628 C1647 1.429 . S
C1628 H1652 0.950 . S
C1629 C1646 1.574 . S
C1629 C1648 1.368 . S
C1629 H1653 0.949 . S
H1630 C1634 0.949 . S
C1631 C1632 1.349 . S
C1631 C1633 1.327 . S
C1631 H1654 0.950 . S
C1632 C1631 1.349 . S
C1632 C1644 1.349 . S
C1633 C1631 1.327 . S
C1633 C1649 1.429 . S
C1633 H1655 0.950 . S
C1634 H1630 0.949 . S
C1634 C1642 1.574 . S
C1634 C1650 1.368 . S
H1635 C1643 0.950 . S
H1636 C1641 0.950 . S
H1637 C1642 0.949 . S
H1638 C1644 0.950 . S
H1639 C1645 0.950 . S
H1640 C1646 0.949 . S
C1641 H1636 0.950 . S
C1641 C1643 1.327 . S
C1641 C1647 1.429 . S
C1642 C1634 1.574 . S
C1642 H1637 0.949 . S
C1642 C1648 1.368 . S
C1643 C1627 1.349 . S
C1643 H1635 0.950 . S
C1643 C1641 1.327 . S
C1644 C1632 1.349 . S
C1644 H1638 0.950 . S
C1644 C1645 1.327 . S
C1645 H1639 0.950 . S
C1645 C1644 1.327 . S
C1645 C1649 1.429 . S
C1646 C1629 1.574 . S
C1646 H1640 0.949 . S
C1646 C1650 1.368 . S
C1647 C1628 1.429 . S
C1647 C1641 1.429 . S
C1647 C1648 1.523 . S
C1648 C1629 1.368 . S
C1648 C1642 1.368 . S
C1648 C1647 1.523 . S
C1649 C1633 1.429 . S
C1649 C1645 1.429 . S
C1649 C1650 1.523 . S
C1650 C1634 1.368 . S
C1650 C1646 1.368 . S
C1650 C1649 1.523 . S
H1651 C1626 0.950 . S
H1652 C1628 0.950 . S
H1653 C1629 0.949 . S
H1654 C1631 0.950 . S
H1655 C1633 0.950 . S
C1656 C1657 1.349 . S
C1656 C1658 1.327 . S
C1656 H1681 0.950 . S
C1657 C1656 1.349 . S
C1657 C1673 1.349 . S
C1658 C1656 1.327 . S
C1658 C1677 1.429 . S
C1658 H1682 0.950 . S
C1659 C1676 1.574 . S
C1659 C1678 1.368 . S
C1659 H1683 0.949 . S
H1660 C1664 0.949 . S
C1661 C1662 1.349 . S
C1661 C1663 1.327 . S
C1661 H1684 0.950 . S
C1662 C1661 1.349 . S
C1662 C1674 1.349 . S
C1663 C1661 1.327 . S
C1663 C1679 1.429 . S
C1663 H1685 0.950 . S
C1664 H1660 0.949 . S
C1664 C1672 1.574 . S
C1664 C1680 1.368 . S
H1665 C1673 0.950 . S
H1666 C1671 0.950 . S
H1667 C1672 0.949 . S
H1668 C1674 0.950 . S
H1669 C1675 0.950 . S
H1670 C1676 0.949 . S
C1671 H1666 0.950 . S
C1671 C1673 1.327 . S
C1671 C1677 1.429 . S
C1672 C1664 1.574 . S
C1672 H1667 0.949 . S
C1672 C1678 1.368 . S
C1673 C1657 1.349 . S
C1673 H1665 0.950 . S
C1673 C1671 1.327 . S
C1674 C1662 1.349 . S
C1674 H1668 0.950 . S
C1674 C1675 1.327 . S
C1675 H1669 0.950 . S
C1675 C1674 1.327 . S
C1675 C1679 1.429 . S
C1676 C1659 1.574 . S
C1676 H1670 0.949 . S
C1676 C1680 1.368 . S
C1677 C1658 1.429 . S
C1677 C1671 1.429 . S
C1677 C1678 1.523 . S
C1678 C1659 1.368 . S
C1678 C1672 1.368 . S
C1678 C1677 1.523 . S
C1679 C1663 1.429 . S
C1679 C1675 1.429 . S
C1679 C1680 1.523 . S
C1680 C1664 1.368 . S
C1680 C1676 1.368 . S
C1680 C1679 1.523 . S
H1681 C1656 0.950 . S
H1682 C1658 0.950 . S
H1683 C1659 0.949 . S
H1684 C1661 0.950 . S
H1685 C1663 0.950 . S
C1686 C1687 1.349 . S
C1686 C1688 1.327 . S
C1686 H1711 0.950 . S
C1687 C1686 1.349 . S
C1687 C1703 1.349 . S
C1688 C1686 1.327 . S
C1688 C1707 1.429 . S
C1688 H1712 0.950 . S
C1689 C1706 1.574 . S
C1689 C1708 1.368 . S
C1689 H1713 0.949 . S
H1690 C1694 0.949 . S
C1691 C1692 1.349 . S
C1691 C1693 1.327 . S
C1691 H1714 0.950 . S
C1692 C1691 1.349 . S
C1692 C1704 1.349 . S
C1693 C1691 1.327 . S
C1693 C1709 1.429 . S
C1693 H1715 0.950 . S
C1694 H1690 0.949 . S
C1694 C1702 1.574 . S
C1694 C1710 1.368 . S
H1695 C1703 0.950 . S
H1696 C1701 0.950 . S
H1697 C1702 0.949 . S
H1698 C1704 0.950 . S
H1699 C1705 0.950 . S
H1700 C1706 0.949 . S
C1701 H1696 0.950 . S
C1701 C1703 1.327 . S
C1701 C1707 1.429 . S
C1702 C1694 1.574 . S
C1702 H1697 0.949 . S
C1702 C1708 1.368 . S
C1703 C1687 1.349 . S
C1703 H1695 0.950 . S
C1703 C1701 1.327 . S
C1704 C1692 1.349 . S
C1704 H1698 0.950 . S
C1704 C1705 1.327 . S
C1705 H1699 0.950 . S
C1705 C1704 1.327 . S
C1705 C1709 1.429 . S
C1706 C1689 1.574 . S
C1706 H1700 0.949 . S
C1706 C1710 1.368 . S
C1707 C1688 1.429 . S
C1707 C1701 1.429 . S
C1707 C1708 1.523 . S
C1708 C1689 1.368 . S
C1708 C1702 1.368 . S
C1708 C1707 1.523 . S
C1709 C1693 1.429 . S
C1709 C1705 1.429 . S
C1709 C1710 1.523 . S
C1710 C1694 1.368 . S
C1710 C1706 1.368 . S
C1710 C1709 1.523 . S
H1711 C1686 0.950 . S
H1712 C1688 0.950 . S
H1713 C1689 0.949 . S
H1714 C1691 0.950 . S
H1715 C1693 0.950 . S
C1716 C1717 1.349 1_545 S
C1716 C1718 1.327 . S
C1716 H1741 0.950 . S
C1717 C1716 1.349 1_565 S
C1717 C1733 1.349 . S
C1718 C1716 1.327 . S
C1718 C1737 1.429 1_545 S
C1718 H1742 0.950 . S
C1719 C1736 1.574 . S
C1719 C1738 1.368 . S
C1719 H1743 0.949 . S
H1720 C1724 0.949 . S
C1721 C1722 1.349 . S
C1721 C1723 1.327 . S
C1721 H1744 0.950 . S
C1722 C1721 1.349 . S
C1722 C1734 1.349 1_565 S
C1723 C1721 1.327 . S
C1723 C1739 1.429 . S
C1723 H1745 0.950 . S
C1724 H1720 0.949 . S
C1724 C1732 1.574 . S
C1724 C1740 1.368 1_545 S
H1725 C1733 0.950 . S
H1726 C1731 0.950 . S
H1727 C1732 0.949 . S
H1728 C1734 0.950 . S
H1729 C1735 0.950 . S
H1730 C1736 0.949 . S
C1731 H1726 0.950 . S
C1731 C1733 1.327 . S
C1731 C1737 1.429 . S
C1732 C1724 1.574 . S
C1732 H1727 0.949 . S
C1732 C1738 1.368 1_545 S
C1733 C1717 1.349 . S
C1733 H1725 0.950 . S
C1733 C1731 1.327 . S
C1734 C1722 1.349 1_545 S
C1734 H1728 0.950 . S
C1734 C1735 1.327 . S
C1735 H1729 0.950 . S
C1735 C1734 1.327 . S
C1735 C1739 1.429 1_545 S
C1736 C1719 1.574 . S
C1736 H1730 0.949 . S
C1736 C1740 1.368 . S
C1737 C1718 1.429 1_565 S
C1737 C1731 1.429 . S
C1737 C1738 1.523 . S
C1738 C1719 1.368 . S
C1738 C1732 1.368 1_565 S
C1738 C1737 1.523 . S
C1739 C1723 1.429 . S
C1739 C1735 1.429 1_565 S
C1739 C1740 1.523 . S
C1740 C1724 1.368 1_565 S
C1740 C1736 1.368 . S
C1740 C1739 1.523 . S
H1741 C1716 0.950 . S
H1742 C1718 0.950 . S
H1743 C1719 0.949 . S
H1744 C1721 0.950 . S
H1745 C1723 0.950 . S
C1746 C1747 1.349 . S
C1746 C1748 1.327 . S
C1746 H1771 0.950 . S
C1747 C1746 1.349 . S
C1747 C1763 1.349 1_565 S
C1748 C1746 1.327 . S
C1748 C1767 1.429 . S
C1748 H1772 0.950 . S
C1749 C1766 1.574 . S
C1749 C1768 1.368 1_545 S
C1749 H1773 0.949 . S
H1750 C1754 0.949 . S
C1751 C1752 1.334 1_545 S
C1751 C1753 1.327 . S
C1751 H1774 0.950 . S
C1752 C1751 1.334 1_565 S
C1752 C1764 1.356 . S
C1753 C1751 1.327 . S
C1753 C1769 1.429 1_545 S
C1753 H1775 0.950 . S
C1754 H1750 0.949 . S
C1754 C1762 1.574 . S
C1754 C1770 1.368 . S
H1755 C1763 0.950 . S
H1756 C1761 0.950 . S
H1757 C1762 0.949 . S
H1758 C1764 0.950 . S
H1759 C1765 0.950 . S
H1760 C1766 0.949 . S
C1761 H1756 0.950 . S
C1761 C1763 1.327 . S
C1761 C1767 1.429 1_545 S
C1762 C1754 1.574 . S
C1762 H1757 0.949 . S
C1762 C1768 1.368 . S
C1763 C1747 1.349 1_545 S
C1763 H1755 0.950 . S
C1763 C1761 1.327 . S
C1764 C1752 1.356 . S
C1764 H1758 0.950 . S
C1764 C1765 1.327 . S
C1765 H1759 0.950 . S
C1765 C1764 1.327 . S
C1765 C1769 1.429 . S
C1766 C1749 1.574 . S
C1766 H1760 0.949 . S
C1766 C1770 1.368 1_545 S
C1767 C1748 1.429 . S
C1767 C1761 1.429 1_565 S
C1767 C1768 1.523 . S
C1768 C1749 1.368 1_565 S
C1768 C1762 1.368 . S
C1768 C1767 1.523 . S
C1769 C1753 1.429 1_565 S
C1769 C1765 1.429 . S
C1769 C1770 1.523 . S
C1770 C1754 1.368 . S
C1770 C1766 1.368 1_565 S
C1770 C1769 1.523 . S
H1771 C1746 0.950 . S
H1772 C1748 0.950 . S
H1773 C1749 0.949 . S
H1774 C1751 0.950 . S
H1775 C1753 0.950 . S
C1776 C1777 1.349 . S
C1776 C1778 1.327 . S
C1776 H1801 0.950 . S
C1777 C1776 1.349 . S
C1777 C1793 1.349 . S
C1778 C1776 1.327 . S
C1778 C1797 1.429 . S
C1778 H1802 0.950 . S
C1779 C1796 1.574 . S
C1779 C1798 1.368 . S
C1779 H1803 0.949 . S
H1780 C1784 0.949 . S
C1781 C1782 1.349 . S
C1781 C1783 1.327 . S
C1781 H1804 0.950 . S
C1782 C1781 1.349 . S
C1782 C1794 1.349 . S
C1783 C1781 1.327 . S
C1783 C1799 1.429 . S
C1783 H1805 0.950 . S
C1784 H1780 0.949 . S
C1784 C1792 1.574 . S
C1784 C1800 1.368 . S
H1785 C1793 0.950 . S
H1786 C1791 0.950 . S
H1787 C1792 0.949 . S
H1788 C1794 0.950 . S
H1789 C1795 0.950 . S
H1790 C1796 0.949 . S
C1791 H1786 0.950 . S
C1791 C1793 1.327 . S
C1791 C1797 1.429 . S
C1792 C1784 1.574 . S
C1792 H1787 0.949 . S
C1792 C1798 1.368 . S
C1793 C1777 1.349 . S
C1793 H1785 0.950 . S
C1793 C1791 1.327 . S
C1794 C1782 1.349 . S
C1794 H1788 0.950 . S
C1794 C1795 1.327 . S
C1795 H1789 0.950 . S
C1795 C1794 1.327 . S
C1795 C1799 1.429 . S
C1796 C1779 1.574 . S
C1796 H1790 0.949 . S
C1796 C1800 1.368 . S
C1797 C1778 1.429 . S
C1797 C1791 1.429 . S
C1797 C1798 1.523 . S
C1798 C1779 1.368 . S
C1798 C1792 1.368 . S
C1798 C1797 1.523 . S
C1799 C1783 1.429 . S
C1799 C1795 1.429 . S
C1799 C1800 1.523 . S
C1800 C1784 1.368 . S
C1800 C1796 1.368 . S
C1800 C1799 1.523 . S
H1801 C1776 0.950 . S
H1802 C1778 0.950 . S
H1803 C1779 0.949 . S
H1804 C1781 0.950 . S
H1805 C1783 0.950 . S
C1806 C1807 1.349 . S
C1806 C1808 1.327 . S
C1806 H1831 0.950 . S
C1807 C1806 1.349 . S
C1807 C1823 1.349 . S
C1808 C1806 1.327 . S
C1808 C1827 1.429 . S
C1808 H1832 0.950 . S
C1809 C1826 1.574 . S
C1809 C1828 1.368 . S
C1809 H1833 0.949 . S
H1810 C1814 0.949 . S
C1811 C1812 1.349 . S
C1811 C1813 1.327 . S
C1811 H1834 0.950 . S
C1812 C1811 1.349 . S
C1812 C1824 1.349 . S
C1813 C1811 1.327 . S
C1813 C1829 1.429 . S
C1813 H1835 0.950 . S
C1814 H1810 0.949 . S
C1814 C1822 1.574 . S
C1814 C1830 1.368 . S
H1815 C1823 0.950 . S
H1816 C1821 0.950 . S
H1817 C1822 0.949 . S
H1818 C1824 0.950 . S
H1819 C1825 0.950 . S
H1820 C1826 0.949 . S
C1821 H1816 0.950 . S
C1821 C1823 1.327 . S
C1821 C1827 1.429 . S
C1822 C1814 1.574 . S
C1822 H1817 0.949 . S
C1822 C1828 1.368 . S
C1823 C1807 1.349 . S
C1823 H1815 0.950 . S
C1823 C1821 1.327 . S
C1824 C1812 1.349 . S
C1824 H1818 0.950 . S
C1824 C1825 1.327 . S
C1825 H1819 0.950 . S
C1825 C1824 1.327 . S
C1825 C1829 1.429 . S
C1826 C1809 1.574 . S
C1826 H1820 0.949 . S
C1826 C1830 1.368 . S
C1827 C1808 1.429 . S
C1827 C1821 1.429 . S
C1827 C1828 1.523 . S
C1828 C1809 1.368 . S
C1828 C1822 1.368 . S
C1828 C1827 1.523 . S
C1829 C1813 1.429 . S
C1829 C1825 1.429 . S
C1829 C1830 1.523 . S
C1830 C1814 1.368 . S
C1830 C1826 1.368 . S
C1830 C1829 1.523 . S
H1831 C1806 0.950 . S
H1832 C1808 0.950 . S
H1833 C1809 0.949 . S
H1834 C1811 0.950 . S
H1835 C1813 0.950 . S
C1836 C1837 1.349 . S
C1836 C1838 1.327 . S
C1836 H1861 0.950 . S
C1837 C1836 1.349 . S
C1837 C1853 1.349 . S
C1838 C1836 1.327 . S
C1838 C1857 1.429 . S
C1838 H1862 0.950 1_655 S
C1839 C1856 1.574 . S
C1839 C1858 1.368 . S
C1839 H1863 0.949 . S
H1840 C1844 0.949 . S
C1841 C1842 1.349 . S
C1841 C1843 1.327 . S
C1841 H1864 0.950 . S
C1842 C1841 1.349 . S
C1842 C1854 1.349 1_655 S
C1843 C1841 1.327 . S
C1843 C1859 1.429 . S
C1843 H1865 0.950 . S
C1844 H1840 0.949 . S
C1844 C1852 1.574 1_455 S
C1844 C1860 1.368 1_455 S
H1845 C1853 0.950 . S
H1846 C1851 0.950 . S
H1847 C1852 0.949 1_455 S
H1848 C1854 0.950 . S
H1849 C1855 0.950 . S
H1850 C1856 0.949 . S
C1851 H1846 0.950 . S
C1851 C1853 1.327 . S
C1851 C1857 1.429 . S
C1852 C1844 1.574 1_655 S
C1852 H1847 0.949 1_655 S
C1852 C1858 1.368 . S
C1853 C1837 1.349 . S
C1853 H1845 0.950 . S
C1853 C1851 1.327 . S
C1854 C1842 1.349 1_455 S
C1854 H1848 0.950 . S
C1854 C1855 1.327 . S
C1855 H1849 0.950 . S
C1855 C1854 1.327 . S
C1855 C1859 1.429 1_455 S
C1856 C1839 1.574 . S
C1856 H1850 0.949 . S
C1856 C1860 1.368 . S
C1857 C1838 1.429 . S
C1857 C1851 1.429 . S
C1857 C1858 1.523 . S
C1858 C1839 1.368 . S
C1858 C1852 1.368 . S
C1858 C1857 1.523 . S
C1859 C1843 1.429 . S
C1859 C1855 1.429 1_655 S
C1859 C1860 1.523 . S
C1860 C1844 1.368 1_655 S
C1860 C1856 1.368 . S
C1860 C1859 1.523 . S
H1861 C1836 0.950 . S
H1862 C1838 0.950 1_455 S
H1863 C1839 0.949 . S
H1864 C1841 0.950 . S
H1865 C1843 0.950 . S
C1866 C1867 1.349 . S
C1866 C1868 1.327 . S
C1866 H1891 0.950 . S
C1867 C1866 1.349 . S
C1867 C1883 1.349 . S
C1868 C1866 1.327 . S
C1868 C1887 1.429 . S
C1868 H1892 0.950 . S
C1869 C1886 1.574 . S
C1869 C1888 1.368 . S
C1869 H1893 0.949 . S
H1870 C1874 0.949 . S
C1871 C1872 1.349 . S
C1871 C1873 1.327 . S
C1871 H1894 0.950 . S
C1872 C1871 1.349 . S
C1872 C1884 1.349 . S
C1873 C1871 1.327 . S
C1873 C1889 1.429 . S
C1873 H1895 0.950 . S
C1874 H1870 0.949 . S
C1874 C1882 1.574 . S
C1874 C1890 1.368 . S
H1875 C1883 0.950 . S
H1876 C1881 0.950 . S
H1877 C1882 0.949 . S
H1878 C1884 0.950 . S
H1879 C1885 0.950 . S
H1880 C1886 0.949 . S
C1881 H1876 0.950 . S
C1881 C1883 1.327 . S
C1881 C1887 1.429 . S
C1882 C1874 1.574 . S
C1882 H1877 0.949 . S
C1882 C1888 1.368 . S
C1883 C1867 1.349 . S
C1883 H1875 0.950 . S
C1883 C1881 1.327 . S
C1884 C1872 1.349 . S
C1884 H1878 0.950 . S
C1884 C1885 1.327 . S
C1885 H1879 0.950 . S
C1885 C1884 1.327 . S
C1885 C1889 1.429 . S
C1886 C1869 1.574 . S
C1886 H1880 0.949 . S
C1886 C1890 1.368 . S
C1887 C1868 1.429 . S
C1887 C1881 1.429 . S
C1887 C1888 1.523 . S
C1888 C1869 1.368 . S
C1888 C1882 1.368 . S
C1888 C1887 1.523 . S
C1889 C1873 1.429 . S
C1889 C1885 1.429 . S
C1889 C1890 1.523 . S
C1890 C1874 1.368 . S
C1890 C1886 1.368 . S
C1890 C1889 1.523 . S
H1891 C1866 0.950 . S
H1892 C1868 0.950 . S
H1893 C1869 0.949 . S
H1894 C1871 0.950 . S
H1895 C1873 0.950 . S
C1896 C1897 1.349 . S
C1896 C1898 1.327 . S
C1896 H1921 0.950 . S
C1897 C1896 1.349 . S
C1897 C1913 1.349 . S
C1898 C1896 1.327 . S
C1898 C1917 1.429 . S
C1898 H1922 0.950 . S
C1899 C1916 1.574 . S
C1899 C1918 1.368 . S
C1899 H1923 0.949 . S
H1900 C1904 0.949 . S
C1901 C1902 1.349 . S
C1901 C1903 1.327 . S
C1901 H1924 0.950 1_545 S
C1902 C1901 1.349 . S
C1902 C1914 1.349 . S
C1903 C1901 1.327 . S
C1903 C1919 1.429 . S
C1903 H1925 0.950 1_545 S
C1904 H1900 0.949 . S
C1904 C1912 1.574 . S
C1904 C1920 1.368 . S
H1905 C1913 0.950 . S
H1906 C1911 0.950 . S
H1907 C1912 0.949 . S
H1908 C1914 0.950 . S
H1909 C1915 0.950 . S
H1910 C1916 0.949 . S
C1911 H1906 0.950 . S
C1911 C1913 1.327 . S
C1911 C1917 1.429 . S
C1912 C1904 1.574 . S
C1912 H1907 0.949 . S
C1912 C1918 1.368 . S
C1913 C1897 1.349 . S
C1913 H1905 0.950 . S
C1913 C1911 1.327 . S
C1914 C1902 1.349 . S
C1914 H1908 0.950 . S
C1914 C1915 1.327 . S
C1915 H1909 0.950 . S
C1915 C1914 1.327 . S
C1915 C1919 1.429 . S
C1916 C1899 1.574 . S
C1916 H1910 0.949 . S
C1916 C1920 1.368 . S
C1917 C1898 1.429 . S
C1917 C1911 1.429 . S
C1917 C1918 1.523 . S
C1918 C1899 1.368 . S
C1918 C1912 1.368 . S
C1918 C1917 1.523 . S
C1919 C1903 1.429 . S
C1919 C1915 1.429 . S
C1919 C1920 1.523 . S
C1920 C1904 1.368 . S
C1920 C1916 1.368 . S
C1920 C1919 1.523 . S
H1921 C1896 0.950 . S
H1922 C1898 0.950 . S
H1923 C1899 0.949 . S
H1924 C1901 0.950 1_565 S
H1925 C1903 0.950 1_565 S
C1926 C1927 1.349 . S
C1926 C1928 1.327 . S
C1926 H1951 0.950 . S
C1927 C1926 1.349 . S
C1927 C1943 1.349 . S
C1928 C1926 1.327 . S
C1928 C1947 1.429 . S
C1928 H1952 0.950 . S
C1929 C1946 1.574 . S
C1929 C1948 1.368 . S
C1929 H1953 0.949 . S
H1930 C1934 0.949 . S
C1931 C1932 1.349 . S
C1931 C1933 1.327 . S
C1931 H1954 0.950 . S
C1932 C1931 1.349 . S
C1932 C1944 1.349 . S
C1933 C1931 1.327 . S
C1933 C1949 1.429 . S
C1933 H1955 0.950 . S
C1934 H1930 0.949 . S
C1934 C1942 1.574 . S
C1934 C1950 1.368 . S
H1935 C1943 0.950 . S
H1936 C1941 0.950 . S
H1937 C1942 0.949 . S
H1938 C1944 0.950 . S
H1939 C1945 0.950 . S
H1940 C1946 0.949 . S
C1941 H1936 0.950 . S
C1941 C1943 1.327 . S
C1941 C1947 1.429 . S
C1942 C1934 1.574 . S
C1942 H1937 0.949 . S
C1942 C1948 1.368 . S
C1943 C1927 1.349 . S
C1943 H1935 0.950 . S
C1943 C1941 1.327 . S
C1944 C1932 1.349 . S
C1944 H1938 0.950 . S
C1944 C1945 1.327 . S
C1945 H1939 0.950 . S
C1945 C1944 1.327 . S
C1945 C1949 1.429 . S
C1946 C1929 1.574 . S
C1946 H1940 0.949 . S
C1946 C1950 1.368 . S
C1947 C1928 1.429 . S
C1947 C1941 1.429 . S
C1947 C1948 1.523 . S
C1948 C1929 1.368 . S
C1948 C1942 1.368 . S
C1948 C1947 1.523 . S
C1949 C1933 1.429 . S
C1949 C1945 1.429 . S
C1949 C1950 1.523 . S
C1950 C1934 1.368 . S
C1950 C1946 1.368 . S
C1950 C1949 1.523 . S
H1951 C1926 0.950 . S
H1952 C1928 0.950 . S
H1953 C1929 0.949 . S
H1954 C1931 0.950 . S
H1955 C1933 0.950 . S
C1956 C1957 1.349 . S
C1956 C1958 1.327 . S
C1956 H1981 0.950 . S
C1957 C1956 1.349 . S
C1957 C1973 1.349 . S
C1958 C1956 1.327 . S
C1958 C1977 1.429 . S
C1958 H1982 0.950 . S
C1959 C1976 1.574 . S
C1959 C1978 1.368 . S
C1959 H1983 0.949 . S
H1960 C1964 0.949 . S
C1961 C1962 1.349 . S
C1961 C1963 1.327 . S
C1961 H1984 0.950 . S
C1962 C1961 1.349 . S
C1962 C1974 1.349 . S
C1963 C1961 1.327 . S
C1963 C1979 1.429 . S
C1963 H1985 0.950 . S
C1964 H1960 0.949 . S
C1964 C1972 1.574 . S
C1964 C1980 1.368 . S
H1965 C1973 0.950 . S
H1966 C1971 0.950 . S
H1967 C1972 0.949 . S
H1968 C1974 0.950 . S
H1969 C1975 0.950 . S
H1970 C1976 0.949 . S
C1971 H1966 0.950 . S
C1971 C1973 1.327 . S
C1971 C1977 1.429 . S
C1972 C1964 1.574 . S
C1972 H1967 0.949 . S
C1972 C1978 1.368 . S
C1973 C1957 1.349 . S
C1973 H1965 0.950 . S
C1973 C1971 1.327 . S
C1974 C1962 1.349 . S
C1974 H1968 0.950 . S
C1974 C1975 1.327 . S
C1975 H1969 0.950 . S
C1975 C1974 1.327 . S
C1975 C1979 1.429 . S
C1976 C1959 1.574 . S
C1976 H1970 0.949 . S
C1976 C1980 1.368 . S
C1977 C1958 1.429 . S
C1977 C1971 1.429 . S
C1977 C1978 1.523 . S
C1978 C1959 1.368 . S
C1978 C1972 1.368 . S
C1978 C1977 1.523 . S
C1979 C1963 1.429 . S
C1979 C1975 1.429 . S
C1979 C1980 1.523 . S
C1980 C1964 1.368 . S
C1980 C1976 1.368 . S
C1980 C1979 1.523 . S
H1981 C1956 0.950 . S
H1982 C1958 0.950 . S
H1983 C1959 0.949 . S
H1984 C1961 0.950 . S
H1985 C1963 0.950 . S
C1986 C1987 1.349 . S
C1986 C1988 1.327 . S
C1986 H2011 0.950 . S
C1987 C1986 1.349 . S
C1987 C2003 1.349 . S
C1988 C1986 1.327 . S
C1988 C2007 1.429 . S
C1988 H2012 0.950 . S
C1989 C2006 1.574 . S
C1989 C2008 1.368 . S
C1989 H2013 0.949 . S
H1990 C1994 0.949 . S
C1991 C1992 1.349 . S
C1991 C1993 1.327 . S
C1991 H2014 0.950 . S
C1992 C1991 1.349 . S
C1992 C2004 1.349 . S
C1993 C1991 1.327 . S
C1993 C2009 1.429 . S
C1993 H2015 0.950 . S
C1994 H1990 0.949 . S
C1994 C2002 1.574 . S
C1994 C2010 1.368 . S
H1995 C2003 0.950 . S
H1996 C2001 0.950 . S
H1997 C2002 0.949 . S
H1998 C2004 0.950 . S
H1999 C2005 0.950 . S
H2000 C2006 0.949 . S
C2001 H1996 0.950 . S
C2001 C2003 1.327 . S
C2001 C2007 1.429 . S
C2002 C1994 1.574 . S
C2002 H1997 0.949 . S
C2002 C2008 1.368 . S
C2003 C1987 1.349 . S
C2003 H1995 0.950 . S
C2003 C2001 1.327 . S
C2004 C1992 1.349 . S
C2004 H1998 0.950 . S
C2004 C2005 1.327 . S
C2005 H1999 0.950 . S
C2005 C2004 1.327 . S
C2005 C2009 1.429 . S
C2006 C1989 1.574 . S
C2006 H2000 0.949 . S
C2006 C2010 1.368 . S
C2007 C1988 1.429 . S
C2007 C2001 1.429 . S
C2007 C2008 1.523 . S
C2008 C1989 1.368 . S
C2008 C2002 1.368 . S
C2008 C2007 1.523 . S
C2009 C1993 1.429 . S
C2009 C2005 1.429 . S
C2009 C2010 1.523 . S
C2010 C1994 1.368 . S
C2010 C2006 1.368 . S
C2010 C2009 1.523 . S
H2011 C1986 0.950 . S
H2012 C1988 0.950 . S
H2013 C1989 0.949 . S
H2014 C1991 0.950 . S
H2015 C1993 0.950 . S
C2016 C2017 1.349 . S
C2016 C2018 1.327 . S
C2016 H2041 0.950 . S
C2017 C2016 1.349 . S
C2017 C2033 1.349 . S
C2018 C2016 1.327 . S
C2018 C2037 1.429 . S
C2018 H2042 0.950 . S
C2019 C2036 1.574 . S
C2019 C2038 1.368 . S
C2019 H2043 0.949 . S
H2020 C2024 0.949 . S
C2021 C2022 1.349 . S
C2021 C2023 1.327 . S
C2021 H2044 0.950 . S
C2022 C2021 1.349 . S
C2022 C2034 1.349 . S
C2023 C2021 1.327 . S
C2023 C2039 1.429 . S
C2023 H2045 0.950 . S
C2024 H2020 0.949 . S
C2024 C2032 1.574 . S
C2024 C2040 1.368 . S
H2025 C2033 0.950 . S
H2026 C2031 0.950 . S
H2027 C2032 0.949 . S
H2028 C2034 0.950 . S
H2029 C2035 0.950 . S
H2030 C2036 0.949 . S
C2031 H2026 0.950 . S
C2031 C2033 1.327 . S
C2031 C2037 1.429 . S
C2032 C2024 1.574 . S
C2032 H2027 0.949 . S
C2032 C2038 1.368 . S
C2033 C2017 1.349 . S
C2033 H2025 0.950 . S
C2033 C2031 1.327 . S
C2034 C2022 1.349 . S
C2034 H2028 0.950 . S
C2034 C2035 1.327 . S
C2035 H2029 0.950 . S
C2035 C2034 1.327 . S
C2035 C2039 1.429 . S
C2036 C2019 1.574 . S
C2036 H2030 0.949 . S
C2036 C2040 1.368 . S
C2037 C2018 1.429 . S
C2037 C2031 1.429 . S
C2037 C2038 1.523 . S
C2038 C2019 1.368 . S
C2038 C2032 1.368 . S
C2038 C2037 1.523 . S
C2039 C2023 1.429 . S
C2039 C2035 1.429 . S
C2039 C2040 1.523 . S
C2040 C2024 1.368 . S
C2040 C2036 1.368 . S
C2040 C2039 1.523 . S
H2041 C2016 0.950 . S
H2042 C2018 0.950 . S
H2043 C2019 0.949 . S
H2044 C2021 0.950 . S
H2045 C2023 0.950 . S
C2046 C2047 1.349 . S
C2046 C2048 1.327 . S
C2046 H2071 0.950 . S
C2047 C2046 1.349 . S
C2047 C2063 1.349 . S
C2048 C2046 1.327 . S
C2048 C2067 1.429 . S
C2048 H2072 0.950 . S
C2049 C2066 1.574 . S
C2049 C2068 1.368 . S
C2049 H2073 0.949 . S
H2050 C2054 0.949 . S
C2051 C2052 1.349 . S
C2051 C2053 1.327 . S
C2051 H2074 0.950 . S
C2052 C2051 1.349 . S
C2052 C2064 1.349 . S
C2053 C2051 1.327 . S
C2053 C2069 1.429 . S
C2053 H2075 0.950 . S
C2054 H2050 0.949 . S
C2054 C2062 1.574 . S
C2054 C2070 1.368 . S
H2055 C2063 0.950 . S
H2056 C2061 0.950 . S
H2057 C2062 0.949 . S
H2058 C2064 0.950 . S
H2059 C2065 0.950 . S
H2060 C2066 0.949 . S
C2061 H2056 0.950 . S
C2061 C2063 1.327 . S
C2061 C2067 1.429 . S
C2062 C2054 1.574 . S
C2062 H2057 0.949 . S
C2062 C2068 1.368 . S
C2063 C2047 1.349 . S
C2063 H2055 0.950 . S
C2063 C2061 1.327 . S
C2064 C2052 1.349 . S
C2064 H2058 0.950 . S
C2064 C2065 1.327 . S
C2065 H2059 0.950 . S
C2065 C2064 1.327 . S
C2065 C2069 1.429 . S
C2066 C2049 1.574 . S
C2066 H2060 0.949 . S
C2066 C2070 1.368 . S
C2067 C2048 1.429 . S
C2067 C2061 1.429 . S
C2067 C2068 1.523 . S
C2068 C2049 1.368 . S
C2068 C2062 1.368 . S
C2068 C2067 1.523 . S
C2069 C2053 1.429 . S
C2069 C2065 1.429 . S
C2069 C2070 1.523 . S
C2070 C2054 1.368 . S
C2070 C2066 1.368 . S
C2070 C2069 1.523 . S
H2071 C2046 0.950 . S
H2072 C2048 0.950 . S
H2073 C2049 0.949 . S
H2074 C2051 0.950 . S
H2075 C2053 0.950 . S
C2076 C2077 1.349 . S
C2076 C2078 1.327 . S
C2076 H2101 0.950 . S
C2077 C2076 1.349 . S
C2077 C2093 1.349 . S
C2078 C2076 1.327 . S
C2078 C2097 1.429 . S
C2078 H2102 0.950 . S
C2079 C2096 1.574 . S
C2079 C2098 1.368 . S
C2079 H2103 0.949 . S
H2080 C2084 0.949 . S
C2081 C2082 1.349 . S
C2081 C2083 1.327 . S
C2081 H2104 0.950 . S
C2082 C2081 1.349 . S
C2082 C2094 1.349 . S
C2083 C2081 1.327 . S
C2083 C2099 1.429 . S
C2083 H2105 0.950 . S
C2084 H2080 0.949 . S
C2084 C2092 1.574 . S
C2084 C2100 1.368 . S
H2085 C2093 0.950 . S
H2086 C2091 0.950 . S
H2087 C2092 0.949 . S
H2088 C2094 0.950 . S
H2089 C2095 0.950 . S
H2090 C2096 0.949 . S
C2091 H2086 0.950 . S
C2091 C2093 1.327 . S
C2091 C2097 1.429 . S
C2092 C2084 1.574 . S
C2092 H2087 0.949 . S
C2092 C2098 1.368 . S
C2093 C2077 1.349 . S
C2093 H2085 0.950 . S
C2093 C2091 1.327 . S
C2094 C2082 1.349 . S
C2094 H2088 0.950 . S
C2094 C2095 1.327 . S
C2095 H2089 0.950 . S
C2095 C2094 1.327 . S
C2095 C2099 1.429 . S
C2096 C2079 1.574 . S
C2096 H2090 0.949 . S
C2096 C2100 1.368 . S
C2097 C2078 1.429 . S
C2097 C2091 1.429 . S
C2097 C2098 1.523 . S
C2098 C2079 1.368 . S
C2098 C2092 1.368 . S
C2098 C2097 1.523 . S
C2099 C2083 1.429 . S
C2099 C2095 1.429 . S
C2099 C2100 1.523 . S
C2100 C2084 1.368 . S
C2100 C2096 1.368 . S
C2100 C2099 1.523 . S
H2101 C2076 0.950 . S
H2102 C2078 0.950 . S
H2103 C2079 0.949 . S
H2104 C2081 0.950 . S
H2105 C2083 0.950 . S
C2106 C2107 1.349 . S
C2106 C2108 1.327 . S
C2106 H2131 0.950 . S
C2107 C2106 1.349 . S
C2107 C2123 1.349 . S
C2108 C2106 1.327 . S
C2108 C2127 1.429 . S
C2108 H2132 0.950 . S
C2109 C2126 1.574 . S
C2109 C2128 1.368 . S
C2109 H2133 0.949 . S
H2110 C2114 0.949 . S
C2111 C2112 1.349 . S
C2111 C2113 1.327 . S
C2111 H2134 0.950 . S
C2112 C2111 1.349 . S
C2112 C2124 1.349 . S
C2113 C2111 1.327 . S
C2113 C2129 1.429 . S
C2113 H2135 0.950 . S
C2114 H2110 0.949 . S
C2114 C2122 1.574 . S
C2114 C2130 1.368 . S
H2115 C2123 0.950 . S
H2116 C2121 0.950 . S
H2117 C2122 0.949 . S
H2118 C2124 0.950 . S
H2119 C2125 0.950 . S
H2120 C2126 0.949 . S
C2121 H2116 0.950 . S
C2121 C2123 1.327 . S
C2121 C2127 1.429 . S
C2122 C2114 1.574 . S
C2122 H2117 0.949 . S
C2122 C2128 1.368 . S
C2123 C2107 1.349 . S
C2123 H2115 0.950 . S
C2123 C2121 1.327 . S
C2124 C2112 1.349 . S
C2124 H2118 0.950 . S
C2124 C2125 1.327 . S
C2125 H2119 0.950 . S
C2125 C2124 1.327 . S
C2125 C2129 1.429 . S
C2126 C2109 1.574 . S
C2126 H2120 0.949 . S
C2126 C2130 1.368 . S
C2127 C2108 1.429 . S
C2127 C2121 1.429 . S
C2127 C2128 1.523 . S
C2128 C2109 1.368 . S
C2128 C2122 1.368 . S
C2128 C2127 1.523 . S
C2129 C2113 1.429 . S
C2129 C2125 1.429 . S
C2129 C2130 1.523 . S
C2130 C2114 1.368 . S
C2130 C2126 1.368 . S
C2130 C2129 1.523 . S
H2131 C2106 0.950 . S
H2132 C2108 0.950 . S
H2133 C2109 0.949 . S
H2134 C2111 0.950 . S
H2135 C2113 0.950 . S
C2136 C2137 1.349 . S
C2136 C2138 1.327 . S
C2136 H2161 0.950 . S
C2137 C2136 1.349 . S
C2137 C2153 1.349 . S
C2138 C2136 1.327 . S
C2138 C2157 1.429 . S
C2138 H2162 0.950 . S
C2139 C2156 1.574 . S
C2139 C2158 1.368 . S
C2139 H2163 0.949 . S
H2140 C2144 0.949 . S
C2141 C2142 1.349 . S
C2141 C2143 1.327 . S
C2141 H2164 0.950 . S
C2142 C2141 1.349 . S
C2142 C2154 1.349 . S
C2143 C2141 1.327 . S
C2143 C2159 1.429 . S
C2143 H2165 0.950 . S
C2144 H2140 0.949 . S
C2144 C2152 1.574 . S
C2144 C2160 1.368 . S
H2145 C2153 0.950 . S
H2146 C2151 0.950 . S
H2147 C2152 0.949 . S
H2148 C2154 0.950 . S
H2149 C2155 0.950 . S
H2150 C2156 0.949 . S
C2151 H2146 0.950 . S
C2151 C2153 1.327 . S
C2151 C2157 1.429 . S
C2152 C2144 1.574 . S
C2152 H2147 0.949 . S
C2152 C2158 1.368 . S
C2153 C2137 1.349 . S
C2153 H2145 0.950 . S
C2153 C2151 1.327 . S
C2154 C2142 1.349 . S
C2154 H2148 0.950 . S
C2154 C2155 1.327 . S
C2155 H2149 0.950 . S
C2155 C2154 1.327 . S
C2155 C2159 1.429 . S
C2156 C2139 1.574 . S
C2156 H2150 0.949 . S
C2156 C2160 1.368 . S
C2157 C2138 1.429 . S
C2157 C2151 1.429 . S
C2157 C2158 1.523 . S
C2158 C2139 1.368 . S
C2158 C2152 1.368 . S
C2158 C2157 1.523 . S
C2159 C2143 1.429 . S
C2159 C2155 1.429 . S
C2159 C2160 1.523 . S
C2160 C2144 1.368 . S
C2160 C2156 1.368 . S
C2160 C2159 1.523 . S
H2161 C2136 0.950 . S
H2162 C2138 0.950 . S
H2163 C2139 0.949 . S
H2164 C2141 0.950 . S
H2165 C2143 0.950 . S
C2166 C2167 1.349 . S
C2166 C2168 1.327 . S
C2166 H2191 0.950 . S
C2167 C2166 1.349 . S
C2167 C2183 1.349 . S
C2168 C2166 1.327 . S
C2168 C2187 1.429 . S
C2168 H2192 0.950 . S
C2169 C2186 1.574 . S
C2169 C2188 1.368 . S
C2169 H2193 0.949 . S
H2170 C2174 0.949 . S
C2171 C2172 1.349 . S
C2171 C2173 1.327 . S
C2171 H2194 0.950 . S
C2172 C2171 1.349 . S
C2172 C2184 1.349 . S
C2173 C2171 1.327 . S
C2173 C2189 1.429 . S
C2173 H2195 0.950 . S
C2174 H2170 0.949 . S
C2174 C2182 1.574 . S
C2174 C2190 1.368 . S
H2175 C2183 0.950 . S
H2176 C2181 0.950 . S
H2177 C2182 0.949 . S
H2178 C2184 0.950 . S
H2179 C2185 0.950 . S
H2180 C2186 0.949 . S
C2181 H2176 0.950 . S
C2181 C2183 1.327 . S
C2181 C2187 1.429 . S
C2182 C2174 1.574 . S
C2182 H2177 0.949 . S
C2182 C2188 1.368 . S
C2183 C2167 1.349 . S
C2183 H2175 0.950 . S
C2183 C2181 1.327 . S
C2184 C2172 1.349 . S
C2184 H2178 0.950 . S
C2184 C2185 1.327 . S
C2185 H2179 0.950 . S
C2185 C2184 1.327 . S
C2185 C2189 1.429 . S
C2186 C2169 1.574 . S
C2186 H2180 0.949 . S
C2186 C2190 1.368 . S
C2187 C2168 1.429 . S
C2187 C2181 1.429 . S
C2187 C2188 1.523 . S
C2188 C2169 1.368 . S
C2188 C2182 1.368 . S
C2188 C2187 1.523 . S
C2189 C2173 1.429 . S
C2189 C2185 1.429 . S
C2189 C2190 1.523 . S
C2190 C2174 1.368 . S
C2190 C2186 1.368 . S
C2190 C2189 1.523 . S
H2191 C2166 0.950 . S
H2192 C2168 0.950 . S
H2193 C2169 0.949 . S
H2194 C2171 0.950 . S
H2195 C2173 0.950 . S
C2196 C2197 1.349 . S
C2196 C2198 1.327 . S
C2196 H2221 0.950 . S
C2197 C2196 1.349 . S
C2197 C2213 1.349 . S
C2198 C2196 1.327 . S
C2198 C2217 1.429 . S
C2198 H2222 0.950 . S
C2199 C2216 1.574 . S
C2199 C2218 1.368 . S
C2199 H2223 0.949 . S
H2200 C2204 0.949 . S
C2201 C2202 1.349 . S
C2201 C2203 1.327 . S
C2201 H2224 0.950 . S
C2202 C2201 1.349 . S
C2202 C2214 1.349 . S
C2203 C2201 1.327 . S
C2203 C2219 1.429 . S
C2203 H2225 0.950 . S
C2204 H2200 0.949 . S
C2204 C2212 1.574 . S
C2204 C2220 1.368 . S
H2205 C2213 0.950 . S
H2206 C2211 0.950 . S
H2207 C2212 0.949 . S
H2208 C2214 0.950 . S
H2209 C2215 0.950 . S
H2210 C2216 0.949 . S
C2211 H2206 0.950 . S
C2211 C2213 1.327 . S
C2211 C2217 1.429 . S
C2212 C2204 1.574 . S
C2212 H2207 0.949 . S
C2212 C2218 1.368 . S
C2213 C2197 1.349 . S
C2213 H2205 0.950 . S
C2213 C2211 1.327 . S
C2214 C2202 1.349 . S
C2214 H2208 0.950 . S
C2214 C2215 1.327 . S
C2215 H2209 0.950 . S
C2215 C2214 1.327 . S
C2215 C2219 1.429 . S
C2216 C2199 1.574 . S
C2216 H2210 0.949 . S
C2216 C2220 1.368 . S
C2217 C2198 1.429 . S
C2217 C2211 1.429 . S
C2217 C2218 1.523 . S
C2218 C2199 1.368 . S
C2218 C2212 1.368 . S
C2218 C2217 1.523 . S
C2219 C2203 1.429 . S
C2219 C2215 1.429 . S
C2219 C2220 1.523 . S
C2220 C2204 1.368 . S
C2220 C2216 1.368 . S
C2220 C2219 1.523 . S
H2221 C2196 0.950 . S
H2222 C2198 0.950 . S
H2223 C2199 0.949 . S
H2224 C2201 0.950 . S
H2225 C2203 0.950 . S
C2226 C2227 1.349 . S
C2226 C2228 1.327 . S
C2226 H2251 0.950 . S
C2227 C2226 1.349 . S
C2227 C2243 1.349 . S
C2228 C2226 1.327 . S
C2228 C2247 1.429 . S
C2228 H2252 0.950 . S
C2229 C2246 1.574 . S
C2229 C2248 1.368 . S
C2229 H2253 0.949 . S
H2230 C2234 0.949 . S
C2231 C2232 1.349 . S
C2231 C2233 1.327 . S
C2231 H2254 0.950 . S
C2232 C2231 1.349 . S
C2232 C2244 1.349 . S
C2233 C2231 1.327 . S
C2233 C2249 1.429 . S
C2233 H2255 0.950 . S
C2234 H2230 0.949 . S
C2234 C2242 1.574 . S
C2234 C2250 1.368 . S
H2235 C2243 0.950 . S
H2236 C2241 0.950 . S
H2237 C2242 0.949 . S
H2238 C2244 0.950 . S
H2239 C2245 0.950 . S
H2240 C2246 0.949 . S
C2241 H2236 0.950 . S
C2241 C2243 1.327 . S
C2241 C2247 1.429 . S
C2242 C2234 1.574 . S
C2242 H2237 0.949 . S
C2242 C2248 1.368 . S
C2243 C2227 1.349 . S
C2243 H2235 0.950 . S
C2243 C2241 1.327 . S
C2244 C2232 1.349 . S
C2244 H2238 0.950 . S
C2244 C2245 1.327 . S
C2245 H2239 0.950 . S
C2245 C2244 1.327 . S
C2245 C2249 1.429 . S
C2246 C2229 1.574 . S
C2246 H2240 0.949 . S
C2246 C2250 1.368 . S
C2247 C2228 1.429 . S
C2247 C2241 1.429 . S
C2247 C2248 1.523 . S
C2248 C2229 1.368 . S
C2248 C2242 1.368 . S
C2248 C2247 1.523 . S
C2249 C2233 1.429 . S
C2249 C2245 1.429 . S
C2249 C2250 1.523 . S
C2250 C2234 1.368 . S
C2250 C2246 1.368 . S
C2250 C2249 1.523 . S
H2251 C2226 0.950 . S
H2252 C2228 0.950 . S
H2253 C2229 0.949 . S
H2254 C2231 0.950 . S
H2255 C2233 0.950 . S
C2256 C2257 1.349 . S
C2256 C2258 1.327 . S
C2256 H2281 0.950 . S
C2257 C2256 1.349 . S
C2257 C2273 1.349 . S
C2258 C2256 1.327 . S
C2258 C2277 1.429 . S
C2258 H2282 0.950 . S
C2259 C2276 1.574 . S
C2259 C2278 1.368 . S
C2259 H2283 0.949 . S
H2260 C2264 0.949 . S
C2261 C2262 1.349 . S
C2261 C2263 1.327 . S
C2261 H2284 0.950 . S
C2262 C2261 1.349 . S
C2262 C2274 1.349 . S
C2263 C2261 1.327 . S
C2263 C2279 1.429 . S
C2263 H2285 0.950 . S
C2264 H2260 0.949 . S
C2264 C2272 1.574 . S
C2264 C2280 1.368 . S
H2265 C2273 0.950 . S
H2266 C2271 0.950 . S
H2267 C2272 0.949 . S
H2268 C2274 0.950 . S
H2269 C2275 0.950 . S
H2270 C2276 0.949 . S
C2271 H2266 0.950 . S
C2271 C2273 1.327 . S
C2271 C2277 1.429 . S
C2272 C2264 1.574 . S
C2272 H2267 0.949 . S
C2272 C2278 1.368 . S
C2273 C2257 1.349 . S
C2273 H2265 0.950 . S
C2273 C2271 1.327 . S
C2274 C2262 1.349 . S
C2274 H2268 0.950 . S
C2274 C2275 1.327 . S
C2275 H2269 0.950 . S
C2275 C2274 1.327 . S
C2275 C2279 1.429 . S
C2276 C2259 1.574 . S
C2276 H2270 0.949 . S
C2276 C2280 1.368 . S
C2277 C2258 1.429 . S
C2277 C2271 1.429 . S
C2277 C2278 1.523 . S
C2278 C2259 1.368 . S
C2278 C2272 1.368 . S
C2278 C2277 1.523 . S
C2279 C2263 1.429 . S
C2279 C2275 1.429 . S
C2279 C2280 1.523 . S
C2280 C2264 1.368 . S
C2280 C2276 1.368 . S
C2280 C2279 1.523 . S
H2281 C2256 0.950 . S
H2282 C2258 0.950 . S
H2283 C2259 0.949 . S
H2284 C2261 0.950 . S
H2285 C2263 0.950 . S
C2286 C2287 1.349 . S
C2286 C2288 1.327 . S
C2286 H2311 0.950 . S
C2287 C2286 1.349 . S
C2287 C2303 1.349 . S
C2288 C2286 1.327 . S
C2288 C2307 1.429 . S
C2288 H2312 0.950 . S
C2289 C2306 1.574 . S
C2289 C2308 1.368 . S
C2289 H2313 0.949 . S
H2290 C2294 0.949 . S
C2291 C2292 1.349 . S
C2291 C2293 1.327 . S
C2291 H2314 0.950 . S
C2292 C2291 1.349 . S
C2292 C2304 1.349 . S
C2293 C2291 1.327 . S
C2293 C2309 1.429 . S
C2293 H2315 0.950 . S
C2294 H2290 0.949 . S
C2294 C2302 1.574 . S
C2294 C2310 1.368 . S
H2295 C2303 0.950 . S
H2296 C2301 0.950 . S
H2297 C2302 0.949 . S
H2298 C2304 0.950 . S
H2299 C2305 0.950 . S
H2300 C2306 0.949 . S
C2301 H2296 0.950 . S
C2301 C2303 1.327 . S
C2301 C2307 1.429 . S
C2302 C2294 1.574 . S
C2302 H2297 0.949 . S
C2302 C2308 1.368 . S
C2303 C2287 1.349 . S
C2303 H2295 0.950 . S
C2303 C2301 1.327 . S
C2304 C2292 1.349 . S
C2304 H2298 0.950 . S
C2304 C2305 1.327 . S
C2305 H2299 0.950 . S
C2305 C2304 1.327 . S
C2305 C2309 1.429 . S
C2306 C2289 1.574 . S
C2306 H2300 0.949 . S
C2306 C2310 1.368 . S
C2307 C2288 1.429 . S
C2307 C2301 1.429 . S
C2307 C2308 1.523 . S
C2308 C2289 1.368 . S
C2308 C2302 1.368 . S
C2308 C2307 1.523 . S
C2309 C2293 1.429 . S
C2309 C2305 1.429 . S
C2309 C2310 1.523 . S
C2310 C2294 1.368 . S
C2310 C2306 1.368 . S
C2310 C2309 1.523 . S
H2311 C2286 0.950 . S
H2312 C2288 0.950 . S
H2313 C2289 0.949 . S
H2314 C2291 0.950 . S
H2315 C2293 0.950 . S
C2316 C2317 1.349 . S
C2316 C2318 1.327 . S
C2316 H2341 0.950 . S
C2317 C2316 1.349 . S
C2317 C2333 1.349 . S
C2318 C2316 1.327 . S
C2318 C2337 1.429 . S
C2318 H2342 0.950 . S
C2319 C2336 1.574 . S
C2319 C2338 1.368 . S
C2319 H2343 0.949 . S
H2320 C2324 0.949 . S
C2321 C2322 1.349 . S
C2321 C2323 1.327 . S
C2321 H2344 0.950 . S
C2322 C2321 1.349 . S
C2322 C2334 1.349 . S
C2323 C2321 1.327 . S
C2323 C2339 1.429 . S
C2323 H2345 0.950 . S
C2324 H2320 0.949 . S
C2324 C2332 1.574 . S
C2324 C2340 1.368 . S
H2325 C2333 0.950 . S
H2326 C2331 0.950 . S
H2327 C2332 0.949 . S
H2328 C2334 0.950 . S
H2329 C2335 0.950 . S
H2330 C2336 0.949 . S
C2331 H2326 0.950 . S
C2331 C2333 1.327 . S
C2331 C2337 1.429 . S
C2332 C2324 1.574 . S
C2332 H2327 0.949 . S
C2332 C2338 1.368 . S
C2333 C2317 1.349 . S
C2333 H2325 0.950 . S
C2333 C2331 1.327 . S
C2334 C2322 1.349 . S
C2334 H2328 0.950 . S
C2334 C2335 1.327 . S
C2335 H2329 0.950 . S
C2335 C2334 1.327 . S
C2335 C2339 1.429 . S
C2336 C2319 1.574 . S
C2336 H2330 0.949 . S
C2336 C2340 1.368 . S
C2337 C2318 1.429 . S
C2337 C2331 1.429 . S
C2337 C2338 1.523 . S
C2338 C2319 1.368 . S
C2338 C2332 1.368 . S
C2338 C2337 1.523 . S
C2339 C2323 1.429 . S
C2339 C2335 1.429 . S
C2339 C2340 1.523 . S
C2340 C2324 1.368 . S
C2340 C2336 1.368 . S
C2340 C2339 1.523 . S
H2341 C2316 0.950 . S
H2342 C2318 0.950 . S
H2343 C2319 0.949 . S
H2344 C2321 0.950 . S
H2345 C2323 0.950 . S
C2346 C2347 1.349 . S
C2346 C2348 1.327 . S
C2346 H2371 0.950 . S
C2347 C2346 1.349 . S
C2347 C2363 1.349 . S
C2348 C2346 1.327 . S
C2348 C2367 1.429 . S
C2348 H2372 0.950 . S
C2349 C2366 1.574 . S
C2349 C2368 1.368 . S
C2349 H2373 0.949 . S
H2350 C2354 0.949 . S
C2351 C2352 1.349 . S
C2351 C2353 1.327 . S
C2351 H2374 0.950 . S
C2352 C2351 1.349 . S
C2352 C2364 1.349 . S
C2353 C2351 1.327 . S
C2353 C2369 1.429 . S
C2353 H2375 0.950 . S
C2354 H2350 0.949 . S
C2354 C2362 1.574 . S
C2354 C2370 1.368 . S
H2355 C2363 0.950 . S
H2356 C2361 0.950 . S
H2357 C2362 0.949 . S
H2358 C2364 0.950 . S
H2359 C2365 0.950 . S
H2360 C2366 0.949 . S
C2361 H2356 0.950 . S
C2361 C2363 1.327 . S
C2361 C2367 1.429 . S
C2362 C2354 1.574 . S
C2362 H2357 0.949 . S
C2362 C2368 1.368 . S
C2363 C2347 1.349 . S
C2363 H2355 0.950 . S
C2363 C2361 1.327 . S
C2364 C2352 1.349 . S
C2364 H2358 0.950 . S
C2364 C2365 1.327 . S
C2365 H2359 0.950 . S
C2365 C2364 1.327 . S
C2365 C2369 1.429 . S
C2366 C2349 1.574 . S
C2366 H2360 0.949 . S
C2366 C2370 1.368 . S
C2367 C2348 1.429 . S
C2367 C2361 1.429 . S
C2367 C2368 1.523 . S
C2368 C2349 1.368 . S
C2368 C2362 1.368 . S
C2368 C2367 1.523 . S
C2369 C2353 1.429 . S
C2369 C2365 1.429 . S
C2369 C2370 1.523 . S
C2370 C2354 1.368 . S
C2370 C2366 1.368 . S
C2370 C2369 1.523 . S
H2371 C2346 0.950 . S
H2372 C2348 0.950 . S
H2373 C2349 0.949 . S
H2374 C2351 0.950 . S
H2375 C2353 0.950 . S
C2376 C2377 1.349 . S
C2376 C2378 1.327 . S
C2376 H2401 0.950 1_565 S
C2377 C2376 1.349 . S
C2377 C2393 1.349 . S
C2378 C2376 1.327 . S
C2378 C2397 1.429 . S
C2378 H2402 0.950 . S
C2379 C2396 1.574 . S
C2379 C2398 1.368 . S
C2379 H2403 0.949 . S
H2380 C2384 0.949 . S
C2381 C2382 1.349 . S
C2381 C2383 1.327 . S
C2381 H2404 0.950 . S
C2382 C2381 1.349 . S
C2382 C2394 1.349 . S
C2383 C2381 1.327 . S
C2383 C2399 1.429 . S
C2383 H2405 0.950 . S
C2384 H2380 0.949 . S
C2384 C2392 1.574 . S
C2384 C2400 1.368 . S
H2385 C2393 0.950 . S
H2386 C2391 0.950 . S
H2387 C2392 0.949 . S
H2388 C2394 0.950 . S
H2389 C2395 0.950 . S
H2390 C2396 0.949 . S
C2391 H2386 0.950 . S
C2391 C2393 1.327 . S
C2391 C2397 1.429 . S
C2392 C2384 1.574 . S
C2392 H2387 0.949 . S
C2392 C2398 1.368 . S
C2393 C2377 1.349 . S
C2393 H2385 0.950 . S
C2393 C2391 1.327 . S
C2394 C2382 1.349 . S
C2394 H2388 0.950 . S
C2394 C2395 1.327 . S
C2395 H2389 0.950 . S
C2395 C2394 1.327 . S
C2395 C2399 1.429 . S
C2396 C2379 1.574 . S
C2396 H2390 0.949 . S
C2396 C2400 1.368 . S
C2397 C2378 1.429 . S
C2397 C2391 1.429 . S
C2397 C2398 1.523 . S
C2398 C2379 1.368 . S
C2398 C2392 1.368 . S
C2398 C2397 1.523 . S
C2399 C2383 1.429 . S
C2399 C2395 1.429 . S
C2399 C2400 1.523 . S
C2400 C2384 1.368 . S
C2400 C2396 1.368 . S
C2400 C2399 1.523 . S
H2401 C2376 0.950 1_545 S
H2402 C2378 0.950 . S
H2403 C2379 0.949 . S
H2404 C2381 0.950 . S
H2405 C2383 0.950 . S
C2406 C2407 1.349 . S
C2406 C2408 1.327 . S
C2406 H2431 0.950 . S
C2407 C2406 1.349 . S
C2407 C2423 1.349 . S
C2408 C2406 1.327 . S
C2408 C2427 1.429 . S
C2408 H2432 0.950 . S
C2409 C2426 1.574 . S
C2409 C2428 1.368 . S
C2409 H2433 0.949 . S
H2410 C2414 0.949 . S
C2411 C2412 1.349 . S
C2411 C2413 1.327 . S
C2411 H2434 0.950 . S
C2412 C2411 1.349 . S
C2412 C2424 1.349 . S
C2413 C2411 1.327 . S
C2413 C2429 1.429 . S
C2413 H2435 0.950 . S
C2414 H2410 0.949 . S
C2414 C2422 1.574 . S
C2414 C2430 1.368 . S
H2415 C2423 0.950 . S
H2416 C2421 0.950 . S
H2417 C2422 0.949 . S
H2418 C2424 0.950 . S
H2419 C2425 0.950 . S
H2420 C2426 0.949 . S
C2421 H2416 0.950 . S
C2421 C2423 1.327 . S
C2421 C2427 1.429 . S
C2422 C2414 1.574 . S
C2422 H2417 0.949 . S
C2422 C2428 1.368 . S
C2423 C2407 1.349 . S
C2423 H2415 0.950 . S
C2423 C2421 1.327 . S
C2424 C2412 1.349 . S
C2424 H2418 0.950 . S
C2424 C2425 1.327 . S
C2425 H2419 0.950 . S
C2425 C2424 1.327 . S
C2425 C2429 1.429 . S
C2426 C2409 1.574 . S
C2426 H2420 0.949 . S
C2426 C2430 1.368 . S
C2427 C2408 1.429 . S
C2427 C2421 1.429 . S
C2427 C2428 1.523 . S
C2428 C2409 1.368 . S
C2428 C2422 1.368 . S
C2428 C2427 1.523 . S
C2429 C2413 1.429 . S
C2429 C2425 1.429 . S
C2429 C2430 1.523 . S
C2430 C2414 1.368 . S
C2430 C2426 1.368 . S
C2430 C2429 1.523 . S
H2431 C2406 0.950 . S
H2432 C2408 0.950 . S
H2433 C2409 0.949 . S
H2434 C2411 0.950 . S
H2435 C2413 0.950 . S
C2436 C2437 1.349 . S
C2436 C2438 1.327 . S
C2436 H2461 0.950 . S
C2437 C2436 1.349 . S
C2437 C2453 1.349 . S
C2438 C2436 1.327 . S
C2438 C2457 1.429 . S
C2438 H2462 0.950 . S
C2439 C2456 1.574 . S
C2439 C2458 1.368 . S
C2439 H2463 0.949 . S
H2440 C2444 0.949 . S
C2441 C2442 1.349 . S
C2441 C2443 1.327 . S
C2441 H2464 0.950 . S
C2442 C2441 1.349 . S
C2442 C2454 1.349 . S
C2443 C2441 1.327 . S
C2443 C2459 1.429 . S
C2443 H2465 0.950 . S
C2444 H2440 0.949 . S
C2444 C2452 1.574 . S
C2444 C2460 1.368 . S
H2445 C2453 0.950 . S
H2446 C2451 0.950 . S
H2447 C2452 0.949 . S
H2448 C2454 0.950 . S
H2449 C2455 0.950 . S
H2450 C2456 0.949 . S
C2451 H2446 0.950 . S
C2451 C2453 1.327 . S
C2451 C2457 1.429 . S
C2452 C2444 1.574 . S
C2452 H2447 0.949 . S
C2452 C2458 1.368 . S
C2453 C2437 1.349 . S
C2453 H2445 0.950 . S
C2453 C2451 1.327 . S
C2454 C2442 1.349 . S
C2454 H2448 0.950 . S
C2454 C2455 1.327 . S
C2455 H2449 0.950 . S
C2455 C2454 1.327 . S
C2455 C2459 1.429 . S
C2456 C2439 1.574 . S
C2456 H2450 0.949 . S
C2456 C2460 1.368 . S
C2457 C2438 1.429 . S
C2457 C2451 1.429 . S
C2457 C2458 1.523 . S
C2458 C2439 1.368 . S
C2458 C2452 1.368 . S
C2458 C2457 1.523 . S
C2459 C2443 1.429 . S
C2459 C2455 1.429 . S
C2459 C2460 1.523 . S
C2460 C2444 1.368 . S
C2460 C2456 1.368 . S
C2460 C2459 1.523 . S
H2461 C2436 0.950 . S
H2462 C2438 0.950 . S
H2463 C2439 0.949 . S
H2464 C2441 0.950 . S
H2465 C2443 0.950 . S
C2466 C2467 1.349 . S
C2466 C2468 1.327 . S
C2466 H2491 0.950 . S
C2467 C2466 1.349 . S
C2467 C2483 1.349 . S
C2468 C2466 1.327 . S
C2468 C2487 1.429 . S
C2468 H2492 0.950 . S
C2469 C2486 1.574 . S
C2469 C2488 1.368 . S
C2469 H2493 0.949 . S
H2470 C2474 0.949 . S
C2471 C2472 1.349 . S
C2471 C2473 1.327 . S
C2471 H2494 0.950 . S
C2472 C2471 1.349 . S
C2472 C2484 1.349 . S
C2473 C2471 1.327 . S
C2473 C2489 1.429 . S
C2473 H2495 0.950 . S
C2474 H2470 0.949 . S
C2474 C2482 1.574 . S
C2474 C2490 1.368 . S
H2475 C2483 0.950 . S
H2476 C2481 0.950 . S
H2477 C2482 0.949 . S
H2478 C2484 0.950 . S
H2479 C2485 0.950 . S
H2480 C2486 0.949 . S
C2481 H2476 0.950 . S
C2481 C2483 1.327 . S
C2481 C2487 1.429 . S
C2482 C2474 1.574 . S
C2482 H2477 0.949 . S
C2482 C2488 1.368 . S
C2483 C2467 1.349 . S
C2483 H2475 0.950 . S
C2483 C2481 1.327 . S
C2484 C2472 1.349 . S
C2484 H2478 0.950 . S
C2484 C2485 1.327 . S
C2485 H2479 0.950 . S
C2485 C2484 1.327 . S
C2485 C2489 1.429 . S
C2486 C2469 1.574 . S
C2486 H2480 0.949 . S
C2486 C2490 1.368 . S
C2487 C2468 1.429 . S
C2487 C2481 1.429 . S
C2487 C2488 1.523 . S
C2488 C2469 1.368 . S
C2488 C2482 1.368 . S
C2488 C2487 1.523 . S
C2489 C2473 1.429 . S
C2489 C2485 1.429 . S
C2489 C2490 1.523 . S
C2490 C2474 1.368 . S
C2490 C2486 1.368 . S
C2490 C2489 1.523 . S
H2491 C2466 0.950 . S
H2492 C2468 0.950 . S
H2493 C2469 0.949 . S
H2494 C2471 0.950 . S
H2495 C2473 0.950 . S
C2496 C2497 1.349 . S
C2496 C2498 1.327 . S
C2496 H2521 0.950 . S
C2497 C2496 1.349 . S
C2497 C2513 1.349 . S
C2498 C2496 1.327 . S
C2498 C2517 1.429 . S
C2498 H2522 0.950 . S
C2499 C2516 1.574 . S
C2499 C2518 1.368 . S
C2499 H2523 0.949 . S
H2500 C2504 0.949 . S
C2501 C2502 1.349 . S
C2501 C2503 1.327 . S
C2501 H2524 0.950 . S
C2502 C2501 1.349 . S
C2502 C2514 1.349 . S
C2503 C2501 1.327 . S
C2503 C2519 1.429 . S
C2503 H2525 0.950 . S
C2504 H2500 0.949 . S
C2504 C2512 1.574 . S
C2504 C2520 1.368 . S
H2505 C2513 0.950 . S
H2506 C2511 0.950 . S
H2507 C2512 0.949 . S
H2508 C2514 0.950 . S
H2509 C2515 0.950 . S
H2510 C2516 0.949 . S
C2511 H2506 0.950 . S
C2511 C2513 1.327 . S
C2511 C2517 1.429 . S
C2512 C2504 1.574 . S
C2512 H2507 0.949 . S
C2512 C2518 1.368 . S
C2513 C2497 1.349 . S
C2513 H2505 0.950 . S
C2513 C2511 1.327 . S
C2514 C2502 1.349 . S
C2514 H2508 0.950 . S
C2514 C2515 1.327 . S
C2515 H2509 0.950 . S
C2515 C2514 1.327 . S
C2515 C2519 1.429 . S
C2516 C2499 1.574 . S
C2516 H2510 0.949 . S
C2516 C2520 1.368 . S
C2517 C2498 1.429 . S
C2517 C2511 1.429 . S
C2517 C2518 1.523 . S
C2518 C2499 1.368 . S
C2518 C2512 1.368 . S
C2518 C2517 1.523 . S
C2519 C2503 1.429 . S
C2519 C2515 1.429 . S
C2519 C2520 1.523 . S
C2520 C2504 1.368 . S
C2520 C2516 1.368 . S
C2520 C2519 1.523 . S
H2521 C2496 0.950 . S
H2522 C2498 0.950 . S
H2523 C2499 0.949 . S
H2524 C2501 0.950 . S
H2525 C2503 0.950 . S
C2526 C2527 1.349 . S
C2526 C2528 1.327 . S
C2526 H2551 0.950 1_565 S
C2527 C2526 1.349 . S
C2527 C2543 1.349 . S
C2528 C2526 1.327 . S
C2528 C2547 1.429 . S
C2528 H2552 0.950 . S
C2529 C2546 1.574 . S
C2529 C2548 1.368 . S
C2529 H2553 0.949 . S
H2530 C2534 0.949 . S
C2531 C2532 1.349 . S
C2531 C2533 1.327 . S
C2531 H2554 0.950 . S
C2532 C2531 1.349 . S
C2532 C2544 1.349 . S
C2533 C2531 1.327 . S
C2533 C2549 1.429 . S
C2533 H2555 0.950 . S
C2534 H2530 0.949 . S
C2534 C2542 1.574 . S
C2534 C2550 1.368 . S
H2535 C2543 0.950 . S
H2536 C2541 0.950 . S
H2537 C2542 0.949 . S
H2538 C2544 0.950 . S
H2539 C2545 0.950 . S
H2540 C2546 0.949 . S
C2541 H2536 0.950 . S
C2541 C2543 1.327 . S
C2541 C2547 1.429 . S
C2542 C2534 1.574 . S
C2542 H2537 0.949 . S
C2542 C2548 1.368 . S
C2543 C2527 1.349 . S
C2543 H2535 0.950 . S
C2543 C2541 1.327 . S
C2544 C2532 1.349 . S
C2544 H2538 0.950 . S
C2544 C2545 1.327 . S
C2545 H2539 0.950 . S
C2545 C2544 1.327 . S
C2545 C2549 1.429 . S
C2546 C2529 1.574 . S
C2546 H2540 0.949 . S
C2546 C2550 1.368 . S
C2547 C2528 1.429 . S
C2547 C2541 1.429 . S
C2547 C2548 1.523 . S
C2548 C2529 1.368 . S
C2548 C2542 1.368 . S
C2548 C2547 1.523 . S
C2549 C2533 1.429 . S
C2549 C2545 1.429 . S
C2549 C2550 1.523 . S
C2550 C2534 1.368 . S
C2550 C2546 1.368 . S
C2550 C2549 1.523 . S
H2551 C2526 0.950 1_545 S
H2552 C2528 0.950 . S
H2553 C2529 0.949 . S
H2554 C2531 0.950 . S
H2555 C2533 0.950 . S
C2556 C2557 1.349 . S
C2556 C2558 1.327 . S
C2556 H2581 0.950 . S
C2557 C2556 1.349 . S
C2557 C2573 1.349 . S
C2558 C2556 1.327 . S
C2558 C2577 1.429 . S
C2558 H2582 0.950 . S
C2559 C2576 1.574 . S
C2559 C2578 1.368 . S
C2559 H2583 0.949 . S
H2560 C2564 0.949 . S
C2561 C2562 1.349 . S
C2561 C2563 1.327 . S
C2561 H2584 0.950 . S
C2562 C2561 1.349 . S
C2562 C2574 1.349 . S
C2563 C2561 1.327 . S
C2563 C2579 1.429 . S
C2563 H2585 0.950 . S
C2564 H2560 0.949 . S
C2564 C2572 1.574 . S
C2564 C2580 1.368 . S
H2565 C2573 0.950 . S
H2566 C2571 0.950 . S
H2567 C2572 0.949 . S
H2568 C2574 0.950 . S
H2569 C2575 0.950 . S
H2570 C2576 0.949 . S
C2571 H2566 0.950 . S
C2571 C2573 1.327 . S
C2571 C2577 1.429 . S
C2572 C2564 1.574 . S
C2572 H2567 0.949 . S
C2572 C2578 1.368 . S
C2573 C2557 1.349 . S
C2573 H2565 0.950 . S
C2573 C2571 1.327 . S
C2574 C2562 1.349 . S
C2574 H2568 0.950 . S
C2574 C2575 1.327 . S
C2575 H2569 0.950 . S
C2575 C2574 1.327 . S
C2575 C2579 1.429 . S
C2576 C2559 1.574 . S
C2576 H2570 0.949 . S
C2576 C2580 1.368 . S
C2577 C2558 1.429 . S
C2577 C2571 1.429 . S
C2577 C2578 1.523 . S
C2578 C2559 1.368 . S
C2578 C2572 1.368 . S
C2578 C2577 1.523 . S
C2579 C2563 1.429 . S
C2579 C2575 1.429 . S
C2579 C2580 1.523 . S
C2580 C2564 1.368 . S
C2580 C2576 1.368 . S
C2580 C2579 1.523 . S
H2581 C2556 0.950 . S
H2582 C2558 0.950 . S
H2583 C2559 0.949 . S
H2584 C2561 0.950 . S
H2585 C2563 0.950 . S
C2586 C2587 1.349 . S
C2586 C2588 1.327 . S
C2586 H2611 0.950 . S
C2587 C2586 1.349 . S
C2587 C2603 1.349 . S
C2588 C2586 1.327 . S
C2588 C2607 1.429 . S
C2588 H2612 0.950 . S
C2589 C2606 1.574 . S
C2589 C2608 1.368 . S
C2589 H2613 0.949 . S
H2590 C2594 0.949 . S
C2591 C2592 1.349 . S
C2591 C2593 1.327 . S
C2591 H2614 0.950 . S
C2592 C2591 1.349 . S
C2592 C2604 1.349 . S
C2593 C2591 1.327 . S
C2593 C2609 1.429 . S
C2593 H2615 0.950 . S
C2594 H2590 0.949 . S
C2594 C2602 1.574 . S
C2594 C2610 1.368 . S
H2595 C2603 0.950 . S
H2596 C2601 0.950 . S
H2597 C2602 0.949 . S
H2598 C2604 0.950 . S
H2599 C2605 0.950 . S
H2600 C2606 0.949 . S
C2601 H2596 0.950 . S
C2601 C2603 1.327 . S
C2601 C2607 1.429 . S
C2602 C2594 1.574 . S
C2602 H2597 0.949 . S
C2602 C2608 1.368 . S
C2603 C2587 1.349 . S
C2603 H2595 0.950 . S
C2603 C2601 1.327 . S
C2604 C2592 1.349 . S
C2604 H2598 0.950 . S
C2604 C2605 1.327 . S
C2605 H2599 0.950 . S
C2605 C2604 1.327 . S
C2605 C2609 1.429 . S
C2606 C2589 1.574 . S
C2606 H2600 0.949 . S
C2606 C2610 1.368 . S
C2607 C2588 1.429 . S
C2607 C2601 1.429 . S
C2607 C2608 1.523 . S
C2608 C2589 1.368 . S
C2608 C2602 1.368 . S
C2608 C2607 1.523 . S
C2609 C2593 1.429 . S
C2609 C2605 1.429 . S
C2609 C2610 1.523 . S
C2610 C2594 1.368 . S
C2610 C2606 1.368 . S
C2610 C2609 1.523 . S
H2611 C2586 0.950 . S
H2612 C2588 0.950 . S
H2613 C2589 0.949 . S
H2614 C2591 0.950 . S
H2615 C2593 0.950 . S
C2616 C2617 1.349 . S
C2616 C2618 1.327 . S
C2616 H2641 0.950 . S
C2617 C2616 1.349 . S
C2617 C2633 1.349 . S
C2618 C2616 1.327 . S
C2618 C2637 1.429 . S
C2618 H2642 0.950 . S
C2619 C2636 1.574 . S
C2619 C2638 1.368 . S
C2619 H2643 0.949 . S
H2620 C2624 0.949 . S
C2621 C2622 1.349 . S
C2621 C2623 1.327 . S
C2621 H2644 0.950 . S
C2622 C2621 1.349 . S
C2622 C2634 1.349 . S
C2623 C2621 1.327 . S
C2623 C2639 1.429 . S
C2623 H2645 0.950 . S
C2624 H2620 0.949 . S
C2624 C2632 1.574 . S
C2624 C2640 1.368 . S
H2625 C2633 0.950 . S
H2626 C2631 0.950 . S
H2627 C2632 0.949 . S
H2628 C2634 0.950 . S
H2629 C2635 0.950 . S
H2630 C2636 0.949 . S
C2631 H2626 0.950 . S
C2631 C2633 1.327 . S
C2631 C2637 1.429 . S
C2632 C2624 1.574 . S
C2632 H2627 0.949 . S
C2632 C2638 1.368 . S
C2633 C2617 1.349 . S
C2633 H2625 0.950 . S
C2633 C2631 1.327 . S
C2634 C2622 1.349 . S
C2634 H2628 0.950 . S
C2634 C2635 1.327 . S
C2635 H2629 0.950 . S
C2635 C2634 1.327 . S
C2635 C2639 1.429 . S
C2636 C2619 1.574 . S
C2636 H2630 0.949 . S
C2636 C2640 1.368 . S
C2637 C2618 1.429 . S
C2637 C2631 1.429 . S
C2637 C2638 1.523 . S
C2638 C2619 1.368 . S
C2638 C2632 1.368 . S
C2638 C2637 1.523 . S
C2639 C2623 1.429 . S
C2639 C2635 1.429 . S
C2639 C2640 1.523 . S
C2640 C2624 1.368 . S
C2640 C2636 1.368 . S
C2640 C2639 1.523 . S
H2641 C2616 0.950 . S
H2642 C2618 0.950 . S
H2643 C2619 0.949 . S
H2644 C2621 0.950 . S
H2645 C2623 0.950 . S
C487 C34 1.184 . S
C492 C238 1.072 . S
C517 C8 1.180 . S
C522 C254 1.075 . S
C552 C237 1.073 . S
C547 C18 1.174 . S
C582 C262 1.055 . S
C577 C31 1.169 . S
C607 C5 1.201 . S
C612 C271 1.096 . S
C642 C274 1.079 . S
C637 C21 1.187 . S
C667 C73 1.184 . S
C672 C280 1.072 . S
C702 C296 1.075 . S
C697 C47 1.180 . S
C732 C279 1.073 . S
C727 C57 1.174 . S
C757 C70 1.168 . S
C762 C304 1.055 . S
C792 C313 1.096 . S
C787 C44 1.201 . S
C822 C316 1.079 . S
C817 C60 1.187 . S
C852 C325 1.072 . S
C847 C112 1.185 . S
C882 C337 1.075 . S
C877 C86 1.180 . S
C912 C334 1.073 . S
C907 C96 1.174 . S
C937 C109 1.169 . S
C942 C343 1.055 . S
C972 C342 1.096 . S
C967 C83 1.201 . S
C997 C99 1.187 . S
C1002 C359 1.079 . S
C1032 C364 1.072 . S
C1027 C151 1.184 . S
C1062 C380 1.075 . S
C1057 C125 1.180 . S
C1087 C135 1.174 . S
C1092 C363 1.073 . S
C1122 C388 1.055 . S
C1117 C148 1.169 . S
C1152 C397 1.096 . S
C1147 C122 1.201 . S
C1177 C138 1.187 . S
C1182 C400 1.079 . S
C1207 C190 1.184 . S
C1212 C409 1.072 . S
C1242 C421 1.075 . S
C1237 C164 1.180 . S
C1272 C418 1.073 . S
C1267 C174 1.174 . S
C1297 C187 1.169 . S
C1302 C427 1.055 . S
C1332 C426 1.096 . S
C1327 C161 1.201 . S
C1357 C177 1.187 . S
C1362 C443 1.079 . S
C1392 C448 1.072 . S
C1387 C229 1.185 . S
C1422 C464 1.075 . S
C1417 C203 1.180 . S
C1447 C213 1.174 . S
C1452 C447 1.073 . S
C1482 C469 1.055 . S
C1477 C226 1.169 . S
C1512 C468 1.096 . S
C1507 C200 1.201 . S
C1542 C485 1.079 . S
C1537 C216 1.187 . S
C1572 C250 1.342 . S
C1567 C143 1.411 . S
C1597 C117 1.438 . S
C1602 C253 1.362 . S
C1632 C241 1.290 . S
C1627 C140 1.383 . S
C1657 C231 1.432 . S
C1662 C258 1.352 . S
C1687 C205 1.453 . S
C1692 C259 1.357 . S
C1722 C275 1.382 1_565 S
C1717 C208 1.450 . S
C1752 C292 1.349 1_565 S
C1747 C182 1.410 . S
C1782 C295 1.362 . S
C1777 C156 1.438 . S
C1807 C179 1.383 . S
C1812 C283 1.290 . S
C1842 C300 1.352 1_655 S
C1837 C114 1.432 . S
C1867 C88 1.453 . S
C1872 C301 1.358 . S
C1897 C91 1.450 . S
C1902 C317 1.382 . S
C1927 C221 1.410 1_655 S
C1932 C321 1.342 . S
C1957 C195 1.438 . S
C1962 C338 1.362 . S
C1992 C322 1.290 . S
C1987 C218 1.383 . S
C2022 C355 1.352 . S
C2017 C75 1.432 . S
C2052 C346 1.357 . S
C2047 C49 1.453 . S
C2077 C52 1.450 . S
C2082 C358 1.382 . S
C2112 C376 1.342 . S
C2107 C26 1.410 . S
C2142 C379 1.362 . S
C2137 C0 1.438 . S
C2167 C23 1.383 . S
C2172 C367 1.290 . S
C2202 C384 1.352 . S
C2197 C192 1.432 . S
C2232 C385 1.358 . S
C2227 C166 1.453 1_655 S
C2262 C401 1.382 . S
C2257 C169 1.450 . S
C2292 C405 1.342 . S
C2287 C65 1.410 . S
C2322 C422 1.363 . S
C2317 C39 1.439 . S
C2347 C62 1.383 . S
C2352 C406 1.290 . S
C2377 C153 1.432 1_565 S
C2382 C439 1.352 . S
C2407 C127 1.453 . S
C2412 C430 1.358 . S
C2442 C442 1.382 . S
C2437 C130 1.449 . S
C2467 C104 1.410 . S
C2472 C460 1.342 . S
C2497 C78 1.438 . S
C2502 C463 1.362 . S
C2532 C451 1.290 . S
C2527 C101 1.383 1_565 S
C2562 C481 1.352 . S
C2557 C36 1.432 . S
C2592 C472 1.357 . S
C2587 C10 1.453 . S
C2617 C13 1.450 . S
C2622 C484 1.382 . S
