# Generated by pormake.
# Topology ocu, (6,8)-cn, num edge types: 1
# Building blocks:
#     Node 0, Type 0, BuildingBlock: CUWYAW_clean_sbu_0, # of connection points: 6
#     Node 1, Type 0, BuildingBlock: CUWYAW_clean_sbu_0, # of connection points: 6
#     Node 2, Type 0, BuildingBlock: CUWYAW_clean_sbu_0, # of connection points: 6
#     Node 3, Type 0, BuildingBlock: CUWYAW_clean_sbu_0, # of connection points: 6
#     Node 4, Type 0, BuildingBlock: CUWYAW_clean_sbu_0, # of connection points: 6
#     Node 5, Type 0, BuildingBlock: CUWYAW_clean_sbu_0, # of connection points: 6
#     Node 6, Type 0, BuildingBlock: CUWYAW_clean_sbu_0, # of connection points: 6
#     Node 7, Type 0, BuildingBlock: CUWYAW_clean_sbu_0, # of connection points: 6
#     Node 8, Type 1, BuildingBlock: AJUNOK_clean_sbu_0, # of connection points: 8
#     Node 9, Type 1, BuildingBlock: AJUNOK_clean_sbu_0, # of connection points: 8
#     Node 10, Type 1, BuildingBlock: AJUNOK_clean_sbu_0, # of connection points: 8
#     Node 11, Type 1, BuildingBlock: AJUNOK_clean_sbu_0, # of connection points: 8
#     Node 12, Type 1, BuildingBlock: AJUNOK_clean_sbu_0, # of connection points: 8
#     Node 13, Type 1, BuildingBlock: AJUNOK_clean_sbu_0, # of connection points: 8
#     Edge 14, Type (0, 1), BuildingBlock: TEMPAE_clean_linker_10, # of connection points: 2
#     Edge 15, Type (0, 1), BuildingBlock: TEMPAE_clean_linker_10, # of connection points: 2
#     Edge 16, Type (0, 1), BuildingBlock: TEMPAE_clean_linker_10, # of connection points: 2
#     Edge 17, Type (0, 1), BuildingBlock: TEMPAE_clean_linker_10, # of connection points: 2
#     Edge 18, Type (0, 1), BuildingBlock: TEMPAE_clean_linker_10, # of connection points: 2
#     Edge 19, Type (0, 1), BuildingBlock: TEMPAE_clean_linker_10, # of connection points: 2
#     Edge 20, Type (0, 1), BuildingBlock: TEMPAE_clean_linker_10, # of connection points: 2
#     Edge 21, Type (0, 1), BuildingBlock: TEMPAE_clean_linker_10, # of connection points: 2
#     Edge 22, Type (0, 1), BuildingBlock: TEMPAE_clean_linker_10, # of connection points: 2
#     Edge 23, Type (0, 1), BuildingBlock: TEMPAE_clean_linker_10, # of connection points: 2
#     Edge 24, Type (0, 1), BuildingBlock: TEMPAE_clean_linker_10, # of connection points: 2
#     Edge 25, Type (0, 1), BuildingBlock: TEMPAE_clean_linker_10, # of connection points: 2
#     Edge 26, Type (0, 1), BuildingBlock: TEMPAE_clean_linker_10, # of connection points: 2
#     Edge 27, Type (0, 1), BuildingBlock: TEMPAE_clean_linker_10, # of connection points: 2
#     Edge 28, Type (0, 1), BuildingBlock: TEMPAE_clean_linker_10, # of connection points: 2
#     Edge 29, Type (0, 1), BuildingBlock: TEMPAE_clean_linker_10, # of connection points: 2
#     Edge 30, Type (0, 1), BuildingBlock: TEMPAE_clean_linker_10, # of connection points: 2
#     Edge 31, Type (0, 1), BuildingBlock: TEMPAE_clean_linker_10, # of connection points: 2
#     Edge 32, Type (0, 1), BuildingBlock: TEMPAE_clean_linker_10, # of connection points: 2
#     Edge 33, Type (0, 1), BuildingBlock: TEMPAE_clean_linker_10, # of connection points: 2
#     Edge 34, Type (0, 1), BuildingBlock: TEMPAE_clean_linker_10, # of connection points: 2
#     Edge 35, Type (0, 1), BuildingBlock: TEMPAE_clean_linker_10, # of connection points: 2
#     Edge 36, Type (0, 1), BuildingBlock: TEMPAE_clean_linker_10, # of connection points: 2
#     Edge 37, Type (0, 1), BuildingBlock: TEMPAE_clean_linker_10, # of connection points: 2
#     Edge 38, Type (0, 1), BuildingBlock: TEMPAE_clean_linker_10, # of connection points: 2
#     Edge 39, Type (0, 1), BuildingBlock: TEMPAE_clean_linker_10, # of connection points: 2
#     Edge 40, Type (0, 1), BuildingBlock: TEMPAE_clean_linker_10, # of connection points: 2
#     Edge 41, Type (0, 1), BuildingBlock: TEMPAE_clean_linker_10, # of connection points: 2
#     Edge 42, Type (0, 1), BuildingBlock: TEMPAE_clean_linker_10, # of connection points: 2
#     Edge 43, Type (0, 1), BuildingBlock: TEMPAE_clean_linker_10, # of connection points: 2
#     Edge 44, Type (0, 1), BuildingBlock: TEMPAE_clean_linker_10, # of connection points: 2
#     Edge 45, Type (0, 1), BuildingBlock: TEMPAE_clean_linker_10, # of connection points: 2
#     Edge 46, Type (0, 1), BuildingBlock: TEMPAE_clean_linker_10, # of connection points: 2
#     Edge 47, Type (0, 1), BuildingBlock: TEMPAE_clean_linker_10, # of connection points: 2
#     Edge 48, Type (0, 1), BuildingBlock: TEMPAE_clean_linker_10, # of connection points: 2
#     Edge 49, Type (0, 1), BuildingBlock: TEMPAE_clean_linker_10, # of connection points: 2
#     Edge 50, Type (0, 1), BuildingBlock: TEMPAE_clean_linker_10, # of connection points: 2
#     Edge 51, Type (0, 1), BuildingBlock: TEMPAE_clean_linker_10, # of connection points: 2
#     Edge 52, Type (0, 1), BuildingBlock: TEMPAE_clean_linker_10, # of connection points: 2
#     Edge 53, Type (0, 1), BuildingBlock: TEMPAE_clean_linker_10, # of connection points: 2
#     Edge 54, Type (0, 1), BuildingBlock: TEMPAE_clean_linker_10, # of connection points: 2
#     Edge 55, Type (0, 1), BuildingBlock: TEMPAE_clean_linker_10, # of connection points: 2
#     Edge 56, Type (0, 1), BuildingBlock: TEMPAE_clean_linker_10, # of connection points: 2
#     Edge 57, Type (0, 1), BuildingBlock: TEMPAE_clean_linker_10, # of connection points: 2
#     Edge 58, Type (0, 1), BuildingBlock: TEMPAE_clean_linker_10, # of connection points: 2
#     Edge 59, Type (0, 1), BuildingBlock: TEMPAE_clean_linker_10, # of connection points: 2
#     Edge 60, Type (0, 1), BuildingBlock: TEMPAE_clean_linker_10, # of connection points: 2
#     Edge 61, Type (0, 1), BuildingBlock: TEMPAE_clean_linker_10, # of connection points: 2
# Relax obj value: 0.181
# Max RMSD: 0.215
# Mean RMSD: 0.167
data_MOF--net-ocu--node1-CUWYAW_clean_sbu_0--node2-AJUNOK_clean_sbu_0--edge1-TEMPAE_clean_linker_10
_symmetry_space_group_name_H-M    P1
_symmetry_Int_Tables_number       1
_symmetry_cell_setting            triclinic
loop_
_symmetry_equiv_pos_as_xyz
'x, y, z'
_cell_length_a     45.963836
_cell_length_b     45.626585
_cell_length_c     37.067591
_cell_angle_alpha  92.474714
_cell_angle_beta   107.784
_cell_angle_gamma 108.67764
loop_
_atom_site_label
_atom_site_type_symbol
_atom_site_fract_x
_atom_site_fract_y
_atom_site_fract_z
_atom_type_partial_charge
C0 C 0.33226 0.33133 0.37864 0.0
Eu1 Eu 0.30314 0.29122 0.31569 0.0
C2 C 0.31822 0.34532 0.4021 0.0
C3 C 0.32715 0.37795 0.40877 0.0
C4 C 0.30985 0.39143 0.42487 0.0
C5 C 0.28356 0.37239 0.43477 0.0
C6 C 0.27549 0.33979 0.42944 0.0
C7 C 0.29255 0.32632 0.41303 0.0
C8 C 0.32872 0.30193 0.25681 0.0
C9 C 0.24136 0.31128 0.26616 0.0
C10 C 0.23416 0.21308 0.19043 0.0
Eu11 Eu 0.26202 0.25234 0.25408 0.0
C12 C 0.25015 0.20315 0.16642 0.0
C13 C 0.23641 0.17306 0.14498 0.0
C14 C 0.25395 0.16267 0.1258 0.0
C15 C 0.28507 0.18249 0.12795 0.0
C16 C 0.29863 0.21262 0.14903 0.0
C17 C 0.28135 0.22285 0.16842 0.0
C18 C 0.23465 0.24138 0.31111 0.0
C19 C 0.32433 0.23261 0.30426 0.0
O20 O 0.32643 0.30135 0.37772 0.0
O21 O 0.32813 0.33949 0.3447 0.0
O22 O 0.34434 0.29854 0.29086 0.0
O23 O 0.29967 0.29802 0.25459 0.0
O24 O 0.26116 0.31228 0.30127 0.0
O25 O 0.23996 0.29071 0.23902 0.0
O26 O 0.23702 0.2425 0.19234 0.0
O27 O 0.24029 0.20428 0.22406 0.0
O28 O 0.21965 0.24348 0.27623 0.0
O29 O 0.26435 0.24613 0.31521 0.0
O30 O 0.304 0.23106 0.26923 0.0
O31 O 0.32611 0.25363 0.3311 0.0
H32 H 0.34652 0.3929 0.39991 0.0
H33 H 0.31627 0.41664 0.42825 0.0
H34 H 0.25562 0.32465 0.43734 0.0
H35 H 0.28481 0.30101 0.4077 0.0
H36 H 0.21266 0.15747 0.14394 0.0
H37 H 0.24354 0.13918 0.10976 0.0
H38 H 0.32288 0.22786 0.15126 0.0
H39 H 0.29269 0.24588 0.18576 0.0
C40 C 0.8379 0.30059 0.20424 0.0
Eu41 Eu 0.80362 0.2815 0.24755 0.0
C42 C 0.82485 0.31113 0.16788 0.0
C43 C 0.82989 0.30202 0.13441 0.0
C44 C 0.81669 0.31252 0.10026 0.0
C45 C 0.79881 0.33279 0.09947 0.0
C46 C 0.78973 0.33718 0.13176 0.0
C47 C 0.80342 0.32742 0.1656 0.0
C48 C 0.74794 0.23327 0.21469 0.0
C49 C 0.7425 0.3043 0.23689 0.0
C50 C 0.73443 0.24425 0.3443 0.0
Eu51 Eu 0.76552 0.26256 0.29878 0.0
C52 C 0.75161 0.23963 0.38311 0.0
C53 C 0.7616 0.26294 0.4148 0.0
C54 C 0.7766 0.25783 0.45162 0.0
C55 C 0.77746 0.2277 0.45729 0.0
C56 C 0.77584 0.20837 0.42541 0.0
C57 C 0.76214 0.21391 0.38847 0.0
C58 C 0.82162 0.31111 0.33082 0.0
C59 C 0.82494 0.23882 0.31101 0.0
O60 O 0.84171 0.31834 0.2354 0.0
O61 O 0.82359 0.27087 0.20441 0.0
O62 O 0.75867 0.25634 0.19769 0.0
O63 O 0.7668 0.23621 0.24844 0.0
O64 O 0.77189 0.31161 0.23407 0.0
O65 O 0.73229 0.28205 0.25639 0.0
O66 O 0.73194 0.2246 0.31564 0.0
O67 O 0.74243 0.27337 0.33824 0.0
O68 O 0.81049 0.28905 0.34876 0.0
O69 O 0.80234 0.30787 0.29744 0.0
O70 O 0.79617 0.23257 0.31482 0.0
O71 O 0.835 0.25959 0.28962 0.0
H72 H 0.84479 0.28774 0.13495 0.0
H73 H 0.82281 0.30685 0.07553 0.0
H74 H 0.77546 0.35167 0.13317 0.0
H75 H 0.79873 0.33454 0.1907 0.0
H76 H 0.75663 0.28451 0.4114 0.0
H77 H 0.78121 0.27499 0.47571 0.0
H78 H 0.77983 0.18632 0.42823 0.0
H79 H 0.75788 0.19689 0.3644 0.0
C80 C 0.81943 0.77264 0.39961 0.0
Eu81 Eu 0.79436 0.76739 0.32624 0.0
C82 C 0.83375 0.75153 0.42071 0.0
C83 C 0.81724 0.71894 0.41068 0.0
C84 C 0.83431 0.69859 0.42014 0.0
C85 C 0.86795 0.71065 0.43957 0.0
C86 C 0.88382 0.74292 0.45279 0.0
C87 C 0.86674 0.76331 0.44347 0.0
C88 C 0.74284 0.71853 0.28271 0.0
C89 C 0.82137 0.73339 0.26983 0.0
C90 C 0.74482 0.76935 0.1698 0.0
Eu91 Eu 0.77032 0.77427 0.2433 0.0
C92 C 0.72578 0.78677 0.14732 0.0
C93 C 0.74188 0.81496 0.13647 0.0
C94 C 0.72533 0.83514 0.12298 0.0
C95 C 0.69262 0.82712 0.11998 0.0
C96 C 0.67588 0.79832 0.12843 0.0
C97 C 0.69231 0.77806 0.14179 0.0
C98 C 0.82204 0.82199 0.28833 0.0
C99 C 0.74533 0.80969 0.30015 0.0
O100 O 0.83577 0.78787 0.37866 0.0
O101 O 0.78793 0.76091 0.38138 0.0
O102 O 0.76624 0.71532 0.31055 0.0
O103 O 0.74705 0.74685 0.28031 0.0
O104 O 0.82448 0.7416 0.30627 0.0
O105 O 0.80129 0.74241 0.24193 0.0
O106 O 0.7308 0.7506 0.19016 0.0
O107 O 0.77536 0.78595 0.18895 0.0
O108 O 0.79813 0.8263 0.26222 0.0
O109 O 0.81743 0.7935 0.28856 0.0
O110 O 0.73882 0.79778 0.26383 0.0
O111 O 0.76856 0.80411 0.32787 0.0
H112 H 0.79178 0.70919 0.39286 0.0
H113 H 0.82171 0.67372 0.40992 0.0
H114 H 0.90978 0.75248 0.46857 0.0
H115 H 0.87987 0.78834 0.45118 0.0
H116 H 0.76761 0.82214 0.14018 0.0
H117 H 0.73821 0.85731 0.11597 0.0
H118 H 0.65033 0.79188 0.12549 0.0
H119 H 0.67917 0.75636 0.14952 0.0
C120 C 0.25914 0.84656 0.32117 0.0
Eu121 Eu 0.2673 0.79844 0.29206 0.0
C122 C 0.24115 0.85016 0.34672 0.0
C123 C 0.21033 0.85275 0.33132 0.0
C124 C 0.19278 0.85551 0.35511 0.0
C125 C 0.20589 0.85602 0.39478 0.0
C126 C 0.23652 0.85307 0.41022 0.0
C127 C 0.25403 0.85012 0.38638 0.0
C128 C 0.22788 0.75947 0.22674 0.0
C129 C 0.24125 0.73196 0.32032 0.0
C130 C 0.30082 0.69948 0.24254 0.0
Eu131 Eu 0.29188 0.74752 0.27085 0.0
C132 C 0.31827 0.69513 0.21654 0.0
C133 C 0.35089 0.69702 0.23166 0.0
C134 C 0.36764 0.69316 0.20733 0.0
C135 C 0.35207 0.6871 0.16737 0.0
C136 C 0.31955 0.6855 0.15213 0.0
C137 C 0.30276 0.68947 0.17651 0.0
C138 C 0.33091 0.78678 0.3364 0.0
C139 C 0.3169 0.81348 0.2416 0.0
O140 O 0.28479 0.8388 0.33623 0.0
O141 O 0.24139 0.83129 0.2866 0.0
O142 O 0.21716 0.77095 0.25048 0.0
O143 O 0.25856 0.76973 0.2379 0.0
O144 O 0.24437 0.76194 0.32462 0.0
O145 O 0.25561 0.72124 0.29942 0.0
O146 O 0.27469 0.70651 0.2275 0.0
O147 O 0.31891 0.7157 0.27654 0.0
O148 O 0.34192 0.7762 0.31228 0.0
O149 O 0.30027 0.77595 0.32506 0.0
O150 O 0.31234 0.78324 0.23591 0.0
O151 O 0.30436 0.82474 0.26438 0.0
H152 H 0.1999 0.85297 0.30091 0.0
H153 H 0.16955 0.85861 0.34267 0.0
H154 H 0.24716 0.85371 0.44079 0.0
H155 H 0.27775 0.84811 0.39914 0.0
H156 H 0.36343 0.70111 0.26236 0.0
H157 H 0.39242 0.69364 0.21992 0.0
H158 H 0.30697 0.68064 0.12141 0.0
H159 H 0.27758 0.6878 0.16398 0.0
C160 C 0.34903 0.82862 0.73001 0.0
Eu161 Eu 0.30861 0.78882 0.7532 0.0
C162 C 0.33917 0.84865 0.70241 0.0
C163 C 0.33743 0.84222 0.66436 0.0
C164 C 0.32983 0.8621 0.6386 0.0
C165 C 0.32653 0.88987 0.65168 0.0
C166 C 0.32124 0.89253 0.68679 0.0
C167 C 0.32836 0.87239 0.71254 0.0
C168 C 0.26414 0.73634 0.70699 0.0
C169 C 0.23903 0.79691 0.73007 0.0
C170 C 0.2176 0.70808 0.80624 0.0
Eu171 Eu 0.25974 0.74898 0.78574 0.0
C172 C 0.2258 0.69539 0.84195 0.0
C173 C 0.2475 0.71547 0.8761 0.0
C174 C 0.25191 0.70435 0.91091 0.0
C175 C 0.23285 0.67375 0.91159 0.0
C176 C 0.21785 0.65215 0.87738 0.0
C177 C 0.21333 0.66318 0.84231 0.0
C178 C 0.30249 0.80221 0.83171 0.0
C179 C 0.3305 0.74321 0.81287 0.0
O180 O 0.34703 0.83418 0.76406 0.0
O181 O 0.33793 0.79876 0.71609 0.0
O182 O 0.2729 0.7628 0.69476 0.0
O183 O 0.2795 0.73912 0.74197 0.0
O184 O 0.2705 0.81141 0.73689 0.0
O185 O 0.22823 0.76956 0.74147 0.0
O186 O 0.22977 0.70032 0.78135 0.0
O187 O 0.22081 0.73779 0.81007 0.0
O188 O 0.29231 0.77646 0.84471 0.0
O189 O 0.28848 0.79931 0.79644 0.0
O190 O 0.29952 0.7297 0.80897 0.0
O191 O 0.34057 0.7681 0.79664 0.0
H192 H 0.34369 0.82291 0.6551 0.0
H193 H 0.33283 0.8588 0.61098 0.0
H194 H 0.31764 0.91329 0.69696 0.0
H195 H 0.3273 0.8767 0.741 0.0
H196 H 0.25876 0.74025 0.87654 0.0
H197 H 0.26447 0.72114 0.93715 0.0
H198 H 0.20396 0.62801 0.8776 0.0
H199 H 0.19817 0.64706 0.81597 0.0
C200 C 0.32545 0.24372 0.7095 0.0
Eu201 Eu 0.29911 0.2656 0.75272 0.0
C202 C 0.34067 0.22271 0.69699 0.0
C203 C 0.36675 0.2362 0.6838 0.0
C204 C 0.38132 0.21777 0.66988 0.0
C205 C 0.3706 0.18507 0.66906 0.0
C206 C 0.34419 0.17143 0.68221 0.0
C207 C 0.3293 0.19005 0.69591 0.0
C208 C 0.32499 0.32473 0.79019 0.0
C209 C 0.3118 0.24107 0.83593 0.0
C210 C 0.25509 0.3106 0.86926 0.0
Eu211 Eu 0.26781 0.2846 0.81425 0.0
C212 C 0.23301 0.32647 0.87653 0.0
C213 C 0.2086 0.31104 0.89163 0.0
C214 C 0.18985 0.32669 0.90213 0.0
C215 C 0.19508 0.35841 0.89819 0.0
C216 C 0.21925 0.37368 0.88252 0.0
C217 C 0.23792 0.358 0.87193 0.0
C218 C 0.22928 0.23539 0.75932 0.0
C219 C 0.249 0.30181 0.72836 0.0
O220 O 0.29394 0.23392 0.70303 0.0
O221 O 0.34243 0.26478 0.74031 0.0
O222 O 0.32498 0.31751 0.75607 0.0
O223 O 0.31477 0.30062 0.80421 0.0
O224 O 0.31228 0.23838 0.80041 0.0
O225 O 0.29881 0.25933 0.84914 0.0
O226 O 0.27662 0.32563 0.8539 0.0
O227 O 0.24298 0.28032 0.85689 0.0
O228 O 0.21775 0.25219 0.77628 0.0
O229 O 0.25952 0.24288 0.77504 0.0
O230 O 0.25411 0.31056 0.76505 0.0
O231 O 0.25986 0.28125 0.71575 0.0
H232 H 0.37566 0.26124 0.68371 0.0
H233 H 0.40079 0.22934 0.65912 0.0
H234 H 0.33521 0.14643 0.68234 0.0
H235 H 0.30901 0.17896 0.70562 0.0
H236 H 0.20431 0.28691 0.89598 0.0
H237 H 0.17124 0.31382 0.91346 0.0
H238 H 0.22449 0.39814 0.87943 0.0
H239 H 0.25672 0.3709 0.86089 0.0
C240 C 0.74835 0.34053 0.79291 0.0
Eu241 Eu 0.76934 0.29596 0.78105 0.0
C242 C 0.728 0.34451 0.81521 0.0
C243 C 0.69398 0.32932 0.80117 0.0
C244 C 0.67513 0.33326 0.82285 0.0
C245 C 0.69004 0.35229 0.85888 0.0
C246 C 0.72407 0.36673 0.87341 0.0
C247 C 0.74289 0.36304 0.85165 0.0
C248 C 0.74239 0.24931 0.72004 0.0
C249 C 0.74132 0.23873 0.82704 0.0
C250 C 0.81979 0.20344 0.77933 0.0
Eu251 Eu 0.79742 0.24682 0.79156 0.0
C252 C 0.83928 0.20041 0.75533 0.0
C253 C 0.87324 0.21611 0.7684 0.0
C254 C 0.89152 0.21317 0.74555 0.0
C255 C 0.87621 0.19447 0.70932 0.0
C256 C 0.84219 0.17965 0.69561 0.0
C257 C 0.82387 0.18247 0.71852 0.0
C258 C 0.8243 0.29331 0.85289 0.0
C259 C 0.82528 0.30386 0.74595 0.0
O260 O 0.77697 0.34014 0.81321 0.0
O261 O 0.73414 0.31943 0.76196 0.0
O262 O 0.74978 0.27881 0.71678 0.0
O263 O 0.7491 0.24589 0.75489 0.0
O264 O 0.7433 0.26722 0.81898 0.0
O265 O 0.75857 0.22403 0.81659 0.0
O266 O 0.79001 0.20195 0.76082 0.0
O267 O 0.8344 0.22534 0.80946 0.0
O268 O 0.81773 0.26382 0.85581 0.0
O269 O 0.81748 0.29682 0.81805 0.0
O270 O 0.82063 0.27426 0.75054 0.0
O271 O 0.81042 0.31948 0.75973 0.0
H272 H 0.68182 0.31471 0.77331 0.0
H273 H 0.64885 0.3221 0.81112 0.0
H274 H 0.73599 0.38205 0.90083 0.0
H275 H 0.76909 0.375 0.86317 0.0
H276 H 0.88584 0.23034 0.79648 0.0
H277 H 0.91778 0.22472 0.75664 0.0
H278 H 0.82994 0.16464 0.668 0.0
H279 H 0.79772 0.17021 0.70763 0.0
C280 C 0.7922 0.83384 0.88169 0.0
Eu281 Eu 0.7948 0.80255 0.82311 0.0
C282 C 0.77229 0.85268 0.88611 0.0
C283 C 0.78031 0.88389 0.8793 0.0
C284 C 0.76048 0.90098 0.8819 0.0
C285 C 0.73231 0.88727 0.89144 0.0
C286 C 0.72456 0.85623 0.89874 0.0
C287 C 0.74438 0.83915 0.8962 0.0
C288 C 0.83175 0.82472 0.77684 0.0
C289 C 0.74058 0.80274 0.74097 0.0
C290 C 0.77977 0.72097 0.69099 0.0
Eu291 Eu 0.77489 0.75008 0.74947 0.0
C292 C 0.7962 0.69926 0.68504 0.0
C293 C 0.77984 0.67371 0.65535 0.0
C294 C 0.79629 0.65489 0.64675 0.0
C295 C 0.82955 0.6616 0.66744 0.0
C296 C 0.8455 0.68652 0.69822 0.0
C297 C 0.82894 0.70505 0.7071 0.0
C298 C 0.73722 0.72788 0.79488 0.0
C299 C 0.82766 0.74855 0.83195 0.0
O300 O 0.77664 0.80378 0.87062 0.0
O301 O 0.81362 0.84517 0.86476 0.0
O302 O 0.8352 0.83993 0.80916 0.0
O303 O 0.80978 0.79815 0.77251 0.0
O304 O 0.75338 0.81208 0.77872 0.0
O305 O 0.74649 0.78054 0.72322 0.0
O306 O 0.79906 0.74918 0.70814 0.0
O307 O 0.75479 0.71032 0.70278 0.0
O308 O 0.73424 0.71265 0.76272 0.0
O309 O 0.75933 0.75454 0.79977 0.0
O310 O 0.81285 0.73749 0.7948 0.0
O311 O 0.82474 0.77298 0.84935 0.0
H312 H 0.80171 0.89506 0.87158 0.0
H313 H 0.76698 0.92481 0.87594 0.0
H314 H 0.70335 0.84521 0.90688 0.0
H315 H 0.7377 0.81526 0.90193 0.0
H316 H 0.75455 0.66876 0.63819 0.0
H317 H 0.78311 0.63543 0.62342 0.0
H318 H 0.87114 0.69255 0.71454 0.0
H319 H 0.84212 0.72454 0.73042 0.0
Cd320 Cd 1.01393 0.9812 0.58446 0.0
Cd321 Cd 0.05234 0.06754 0.49209 0.0
C322 C 0.08079 0.96744 0.62353 0.0
N323 N 0.05121 0.95412 0.59546 0.0
C324 C 0.0613 0.90606 0.58903 0.0
C325 C 0.09165 0.91898 0.61874 0.0
C326 C 0.10154 0.95042 0.63526 0.0
C327 C 0.04138 0.92411 0.57785 0.0
H328 H 0.08796 0.99092 0.63812 0.0
H329 H 0.01745 0.91373 0.55626 0.0
C330 C 0.99434 0.99438 0.48177 0.0
C331 C 0.98665 0.07753 0.43963 0.0
C332 C 0.96433 0.09263 0.42564 0.0
C333 C 0.96766 0.12065 0.44662 0.0
C334 C 0.99301 0.13209 0.48217 0.0
C335 C 1.01472 0.11612 0.49518 0.0
N336 N 1.01139 0.08958 0.47366 0.0
H337 H 0.98493 0.05679 0.42261 0.0
H338 H 0.03488 0.12544 0.52189 0.0
C339 C 0.06152 0.01287 0.44509 0.0
N340 N 0.07352 0.03103 0.48001 0.0
C341 C 0.10945 1.00363 0.5054 0.0
C342 C 0.09706 0.98408 0.46996 0.0
C343 C 0.07301 0.98895 0.4394 0.0
C344 C 0.09731 0.02728 0.50975 0.0
H345 H 0.04264 0.01665 0.42199 0.0
H346 H 0.10669 0.04258 0.53687 0.0
C347 C 0.07112 0.04921 0.58688 0.0
C348 C 0.96962 0.94016 0.61956 0.0
N349 N 0.9963 0.02102 0.59568 0.0
C350 C 1.01149 0.04356 0.62716 0.0
C351 C 1.00032 0.06828 0.62992 0.0
C352 C 0.97297 0.06904 0.60043 0.0
C353 C 0.95745 0.04516 0.56873 0.0
C354 C 0.96974 0.02123 0.56686 0.0
C355 C 0.09831 0.11092 0.46101 0.0
O356 O 1.00558 0.99524 0.5179 0.0
O357 O 1.00602 0.01767 0.46587 0.0
O358 O 0.05225 0.04601 0.55286 0.0
O359 O 0.0638 0.02889 0.60837 0.0
O360 O 0.96065 0.94065 0.58346 0.0
O361 O 0.99854 0.9581 0.63889 0.0
O362 O 0.1001 0.1168 0.4959 0.0
O363 O 0.07583 0.08579 0.44142 0.0
H364 H 0.0323 0.04247 0.64989 0.0
H365 H 0.95815 1.0027 0.54242 0.0
H366 H 0.05235 0.88185 0.57565 0.0
H367 H 0.12487 0.96171 0.65773 0.0
H368 H 0.94553 0.08317 0.39786 0.0
H369 H 0.99637 0.15342 0.49949 0.0
H370 H 0.12855 1.0009 0.52926 0.0
H371 H 0.06301 0.97424 0.41166 0.0
H372 H 1.01227 0.0861 0.65519 0.0
H373 H 0.93602 0.04498 0.54585 0.0
Cd374 Cd 0.47311 0.00652 0.05513 0.0
Cd375 Cd 0.53255 0.06605 0.97469 0.0
C376 C 0.53002 0.98317 0.08057 0.0
N377 N 0.50641 0.98104 0.04688 0.0
C378 C 0.52804 0.95283 0.01299 0.0
C379 C 0.55252 0.95493 0.04751 0.0
C380 C 0.55377 0.97049 0.08149 0.0
C381 C 0.50503 0.96648 0.01326 0.0
H382 H 0.53015 0.99453 0.10684 0.0
H383 H 0.48615 0.96506 0.98682 0.0
C384 C 0.46347 0.01185 0.95559 0.0
C385 C 0.48751 0.10046 0.92899 0.0
C386 C 0.46723 0.11802 0.921 0.0
C387 C 0.45897 0.12958 0.95068 0.0
C388 C 0.4713 0.12326 0.98786 0.0
C389 C 0.49163 0.1056 0.99459 0.0
N390 N 0.49914 0.0947 0.96521 0.0
H391 H 0.49395 0.09126 0.90634 0.0
H392 H 0.50147 0.10066 0.02314 0.0
C393 C 0.54091 0.00969 0.93132 0.0
N394 N 0.552 0.02662 0.96689 0.0
C395 C 0.59693 0.00873 0.98653 0.0
C396 C 0.58716 0.99249 0.94931 0.0
C397 C 0.55813 0.99215 0.92193 0.0
C398 C 0.5789 0.02594 0.9947 0.0
H399 H 0.52006 0.01159 0.90943 0.0
H400 H 0.58766 0.04059 0.02221 0.0
C401 C 0.54027 0.06207 0.07589 0.0
C402 C 0.43597 0.9631 0.09396 0.0
N403 N 0.44957 0.0437 0.04775 0.0
C404 C 0.45978 0.06711 0.0775 0.0
C405 C 0.44496 0.08946 0.07478 0.0
C406 C 0.4194 0.08749 0.04112 0.0
C407 C 0.41028 0.06372 0.01026 0.0
C408 C 0.42565 0.04171 0.01438 0.0
C409 C 0.58024 0.10892 0.94699 0.0
O410 O 0.47634 0.01909 0.99167 0.0
O411 O 0.47885 0.0271 0.93504 0.0
O412 O 0.5293 0.0565 0.03954 0.0
O413 O 0.52322 0.04719 0.09505 0.0
O414 O 0.42347 0.96434 0.05851 0.0
O415 O 0.46497 0.98181 0.11099 0.0
O416 O 0.58308 0.11245 0.98243 0.0
O417 O 0.55557 0.08635 0.92535 0.0
H418 H 0.47868 0.06779 0.10378 0.0
H419 H 0.41795 0.0226 0.99138 0.0
H420 H 0.52651 0.94041 0.98651 0.0
H421 H 0.5721 0.97164 0.10865 0.0
H422 H 0.45773 0.12216 0.89188 0.0
H423 H 0.46552 0.13212 0.01137 0.0
H424 H 0.61944 0.00993 0.00824 0.0
H425 H 0.5497 0.97969 0.89303 0.0
H426 H 0.45225 0.107 0.09955 0.0
H427 H 0.3908 0.06156 0.98379 0.0
Cd428 Cd 1.00724 0.51489 0.16138 0.0
Cd429 Cd 1.01115 0.54538 0.03427 0.0
C430 C 0.08049 0.49917 0.20788 0.0
N431 N 0.04989 0.48677 0.18084 0.0
C432 C 0.06136 0.43878 0.17056 0.0
C433 C 0.09294 0.45056 0.1987 0.0
C434 C 0.10208 0.48174 0.21702 0.0
C435 C 0.04066 0.45694 0.16218 0.0
H436 H 0.08847 0.52272 0.2229 0.0
H437 H 0.01679 0.4468 0.1404 0.0
C438 C 0.9608 0.48219 0.05212 0.0
C439 C 0.95439 0.56244 0.97189 0.0
C440 C 0.93793 0.58193 0.95442 0.0
C441 C 0.9399 0.60901 0.97619 0.0
C442 C 0.9573 0.61472 0.01583 0.0
C443 C 0.97347 0.59463 0.03212 0.0
N444 N 0.97213 0.56933 0.00997 0.0
H445 H 0.95454 0.54279 0.95463 0.0
H446 H 0.98875 0.6003 0.06201 0.0
C447 C 0.02114 0.4933 0.9784 0.0
N448 N 0.03406 0.50947 0.01475 0.0
C449 C 0.07912 0.49096 0.02762 0.0
C450 C 0.06706 0.47483 0.98982 0.0
C451 C 0.03724 0.47586 0.96535 0.0
C452 C 0.06227 0.50815 0.03944 0.0
H453 H 0.9989 0.49487 0.95898 0.0
H454 H 0.07219 0.52107 0.06819 0.0
C455 C 0.05213 0.56723 0.13236 0.0
C456 C 0.96253 0.48021 0.19371 0.0
N457 N 0.98367 0.55911 0.17415 0.0
C458 C 0.99447 0.57631 0.21006 0.0
C459 C 0.97892 0.59664 0.21979 0.0
C460 C 0.95085 0.59966 0.19312 0.0
C461 C 0.94098 0.5826 0.15593 0.0
C462 C 0.95798 0.56345 0.14691 0.0
C463 C 0.05128 0.58841 0.00461 0.0
O464 O 0.97606 0.49288 0.08814 0.0
O465 O 0.96708 0.49844 0.02664 0.0
O466 O 0.02995 0.54871 0.10347 0.0
O467 O 0.05282 0.56096 0.16552 0.0
O468 O 0.9678 0.46827 0.16584 0.0
O469 O 0.983 0.50678 0.21161 0.0
O470 O 0.05227 0.59447 0.03891 0.0
O471 O 0.03038 0.56287 0.98425 0.0
H472 H 1.0148 0.57367 0.23212 0.0
H473 H 0.94899 0.55045 0.11826 0.0
H474 H 0.05247 0.41551 0.1544 0.0
H475 H 0.12569 0.49269 0.23906 0.0
H476 H 0.92455 0.57632 0.9239 0.0
H477 H 0.95991 0.63544 0.03372 0.0
H478 H 0.10154 0.49051 0.04798 0.0
H479 H 0.02692 0.46423 0.93588 0.0
H480 H 0.98823 0.60907 0.24881 0.0
H481 H 0.91997 0.58391 0.13365 0.0
Cd482 Cd 0.5101 0.4783 0.07451 0.0
Cd483 Cd 0.55649 0.56913 0.98854 0.0
C484 C 0.56857 0.46064 0.12877 0.0
N485 N 0.55074 0.45532 0.09081 0.0
C486 C 0.57733 0.42062 0.07804 0.0
C487 C 0.59561 0.42514 0.11737 0.0
C488 C 0.59118 0.44585 0.14267 0.0
C489 C 0.55489 0.43599 0.06532 0.0
H490 H 0.56454 0.47582 0.14851 0.0
H491 H 0.54029 0.43196 0.03528 0.0
C492 C 0.49354 0.4992 0.97536 0.0
C493 C 0.48745 0.5816 0.95723 0.0
C494 C 0.46681 0.59839 0.94376 0.0
C495 C 0.47897 0.63119 0.95218 0.0
C496 C 0.51152 0.64618 0.97623 0.0
C497 C 0.53149 0.62838 0.98897 0.0
N498 N 0.51942 0.59669 0.97862 0.0
H499 H 0.47794 0.55663 0.9488 0.0
H500 H 0.55707 0.64002 0.00543 0.0
C501 C 0.56176 0.51046 0.94315 0.0
N502 N 0.57564 0.5308 0.97662 0.0
C503 C 0.61273 0.50458 0.00253 0.0
C504 C 0.59815 0.48272 0.96884 0.0
C505 C 0.57249 0.48572 0.93881 0.0
C506 C 0.60079 0.52858 0.00593 0.0
H507 H 0.54216 0.51324 0.92011 0.0
H508 H 0.61139 0.54543 0.03199 0.0
C509 C 0.57075 0.54787 0.08527 0.0
C510 C 0.46578 0.43619 0.10937 0.0
N511 N 0.49171 0.51728 0.08654 0.0
C512 C 0.50481 0.53631 0.12095 0.0
C513 C 0.49419 0.56099 0.1263 0.0
C514 C 0.46973 0.56565 0.096 0.0
C515 C 0.45648 0.54536 0.06098 0.0
C516 C 0.46785 0.52107 0.05692 0.0
C517 C 0.60038 0.61062 0.95304 0.0
O518 O 0.5062 0.4976 0.01066 0.0
O519 O 0.50767 0.52174 0.96017 0.0
O520 O 0.55679 0.5471 0.04974 0.0
O521 O 0.55963 0.52543 0.10253 0.0
O522 O 0.46016 0.43187 0.07315 0.0
O523 O 0.49121 0.45934 0.12845 0.0
O524 O 0.60975 0.61 0.98919 0.0
O525 O 0.57133 0.59266 0.93407 0.0
H526 H 0.52364 0.53247 0.14404 0.0
H527 H 0.4576 0.50512 0.03016 0.0
H528 H 0.58013 0.40518 0.05735 0.0
H529 H 0.60421 0.4498 0.17322 0.0
H530 H 0.44176 0.58581 0.92583 0.0
H531 H 0.52194 0.67147 0.98333 0.0
H532 H 0.63294 0.50297 0.02585 0.0
H533 H 0.56139 0.46948 0.91211 0.0
H534 H 0.50492 0.57621 0.15374 0.0
H535 H 0.43703 0.5478 0.03732 0.0
Cd536 Cd 0.0266 0.47519 0.5917 0.0
Cd537 Cd 0.08926 0.54432 0.51648 0.0
C538 C 0.09651 0.46696 0.61938 0.0
N539 N 0.06511 0.4517 0.59643 0.0
C540 C 0.07712 0.40598 0.58362 0.0
C541 C 0.1094 0.42092 0.60834 0.0
C542 C 0.11926 0.45216 0.62517 0.0
C543 C 0.0552 0.422 0.57798 0.0
H544 H 0.10399 0.49021 0.63449 0.0
H545 H 0.02997 0.41035 0.56022 0.0
C546 C 0.02024 0.48421 0.49104 0.0
C547 C 0.04127 0.5661 0.54437 0.0
C548 C 0.02252 0.58387 0.54695 0.0
C549 C 0.03234 0.61468 0.54006 0.0
C550 C 0.0634 0.62889 0.53757 0.0
C551 C 0.08207 0.61036 0.53643 0.0
N552 N 0.06973 0.57923 0.53766 0.0
H553 H 0.03156 0.54124 0.54403 0.0
H554 H 0.10466 0.62012 0.53076 0.0
C555 C 0.11018 0.48569 0.53261 0.0
N556 N 0.12379 0.51722 0.53509 0.0
C557 C 0.17577 0.51399 0.5427 0.0
C558 C 0.1615 0.48129 0.53588 0.0
C559 C 0.12894 0.46699 0.53323 0.0
C560 C 0.15617 0.53173 0.54196 0.0
H561 H 0.08426 0.47495 0.52688 0.0
H562 H 0.16626 0.55678 0.54366 0.0
C563 C 0.0855 0.53788 0.60842 0.0
C564 C 0.98184 0.42826 0.61818 0.0
N565 N 0.99838 0.50874 0.59331 0.0
C566 C 1.00711 0.52913 0.62586 0.0
C567 C 0.98889 0.54782 0.62819 0.0
C568 C 0.96074 0.54445 0.59741 0.0
C569 C 0.95173 0.52286 0.56441 0.0
C570 C 0.97136 0.50531 0.56278 0.0
C571 C 0.12223 0.58435 0.47082 0.0
O572 O 0.02879 0.48618 0.52723 0.0
O573 O 0.0382 0.5034 0.4758 0.0
O574 O 0.07953 0.52434 0.57504 0.0
O575 O 0.0708 0.52318 0.62981 0.0
O576 O 0.97458 0.43169 0.58294 0.0
O577 O 1.0101 0.44549 0.64041 0.0
O578 O 0.13402 0.5882 0.50728 0.0
O579 O 0.09521 0.56181 0.45528 0.0
H580 H 0.02757 0.53025 0.65057 0.0
H581 H 0.96464 0.48833 0.53767 0.0
H582 H 0.06849 0.38175 0.57042 0.0
H583 H 0.14405 0.46467 0.64395 0.0
H584 H 0.99832 0.57247 0.54808 0.0
H585 H 0.07119 0.65268 0.53164 0.0
H586 H 0.20092 0.52549 0.54462 0.0
H587 H 0.11735 0.44172 0.52759 0.0
H588 H 0.99586 0.56376 0.6544 0.0
H589 H 0.9298 0.51957 0.54042 0.0
Cd590 Cd 0.54771 0.99504 0.52762 0.0
Cd591 Cd 0.55808 0.0279 0.40784 0.0
C592 C 0.61188 0.98189 0.58069 0.0
N593 N 0.58505 0.96884 0.54881 0.0
C594 C 0.59321 0.91951 0.55008 0.0
C595 C 0.62036 0.93194 0.58392 0.0
C596 C 0.63007 0.96386 0.59861 0.0
C597 C 0.5758 0.93841 0.53302 0.0
H598 H 0.61817 0.00584 0.59341 0.0
H599 H 0.5539 0.92838 0.50822 0.0
C600 C 0.51172 0.9724 0.4291 0.0
C601 C 0.48493 0.04462 0.3664 0.0
C602 C 0.46335 0.06205 0.35711 0.0
C603 C 0.4724 0.0931 0.37557 0.0
C604 C 0.50343 0.10456 0.40465 0.0
C605 C 0.52382 0.08608 0.41386 0.0
N606 N 0.51518 0.05662 0.3943 0.0
H607 H 0.47738 0.02146 0.3505 0.0
H608 H 0.54698 0.09586 0.43679 0.0
C609 C 0.57509 0.9723 0.35487 0.0
N610 N 0.58376 0.98702 0.39163 0.0
C611 C 0.62538 0.96234 0.41049 0.0
C612 C 0.61743 0.94717 0.37264 0.0
C613 C 0.59125 0.95266 0.345 0.0
C614 C 0.60863 0.98186 0.41918 0.0
H615 H 0.55576 0.97612 0.33246 0.0
H616 H 0.61634 0.99349 0.44833 0.0
C617 C 0.60177 0.06087 0.51753 0.0
C618 C 0.51054 0.9623 0.56874 0.0
N619 N 0.52509 0.03322 0.54194 0.0
C620 C 0.53917 0.05144 0.57714 0.0
C621 C 0.52325 0.06917 0.5899 0.0
C622 C 0.49248 0.06852 0.56627 0.0
C623 C 0.47939 0.05084 0.52927 0.0
C624 C 0.49608 0.03331 0.51771 0.0
C625 C 0.59112 0.06936 0.36765 0.0
O626 O 0.53241 0.99101 0.45879 0.0
O627 O 0.51313 0.97905 0.39669 0.0
O628 O 0.58999 0.05426 0.48052 0.0
O629 O 0.59185 0.04197 0.53893 0.0
O630 O 0.50294 0.95264 0.53323 0.0
O631 O 0.53717 0.98488 0.58508 0.0
O632 O 0.60327 0.05125 0.38673 0.0
O633 O 0.56069 0.06278 0.36001 0.0
H634 H 0.56208 0.05097 0.59622 0.0
H635 H 0.48517 0.01884 0.48986 0.0
H636 H 0.58497 0.89519 0.53743 0.0
H637 H 0.65048 0.97442 0.62487 0.0
H638 H 0.43996 0.05146 0.33455 0.0
H639 H 0.51201 0.12784 0.42073 0.0
H640 H 0.64521 0.96001 0.4336 0.0
H641 H 0.5829 0.94177 0.31543 0.0
H642 H 0.53465 0.08272 0.61843 0.0
H643 H 0.45574 0.04941 0.50998 0.0
C644 C 0.23179 0.22331 0.37474 0.0
C645 C 0.21638 0.2237 0.33574 0.0
C646 C 0.21414 0.20635 0.3973 0.0
C647 C 0.1802 0.18864 0.38059 0.0
C648 C 0.16469 0.1889 0.34115 0.0
C649 C 0.1827 0.20651 0.31958 0.0
C650 C 0.23189 0.20725 0.43914 0.0
C651 C 0.12889 0.17029 0.32143 0.0
C652 C 0.1371 0.11885 0.42353 0.0
C653 C 0.12126 0.13168 0.44337 0.0
C654 C 0.15726 0.13728 0.40457 0.0
C655 C 0.16093 0.16936 0.40376 0.0
C656 C 0.14473 0.18238 0.4236 0.0
C657 C 0.12569 0.16364 0.44363 0.0
C658 C 0.17429 0.12216 0.38482 0.0
C659 C 0.14666 0.21594 0.42262 0.0
H660 H 0.25766 0.23649 0.38775 0.0
H661 H 0.17031 0.20632 0.28952 0.0
H662 H 0.22003 0.21594 0.45704 0.0
H663 H 0.23044 0.18324 0.4448 0.0
H664 H 0.25797 0.22253 0.44827 0.0
H665 H 0.12024 0.17304 0.29076 0.0
H666 H 0.12423 0.14506 0.32307 0.0
H667 H 0.1142 0.17776 0.33622 0.0
H668 H 0.1338 0.0942 0.42298 0.0
H669 H 0.11316 0.17372 0.45823 0.0
H670 H 0.20078 0.13603 0.39469 0.0
H671 H 0.16462 0.12179 0.35342 0.0
H672 H 0.17102 0.09777 0.39034 0.0
H673 H 0.17251 0.23184 0.43339 0.0
H674 H 0.13345 0.22296 0.44005 0.0
H675 H 0.136 0.21925 0.39258 0.0
C676 C 0.84754 0.21756 0.36977 0.0
C677 C 0.84647 0.22277 0.33244 0.0
C678 C 0.8673 0.20179 0.39053 0.0
C679 C 0.88557 0.19001 0.37302 0.0
C680 C 0.88421 0.19495 0.3351 0.0
C681 C 0.86514 0.21181 0.31552 0.0
C682 C 0.86877 0.19793 0.43124 0.0
C683 C 0.90247 0.18194 0.31495 0.0
C684 C 0.9591 0.17135 0.43293 0.0
C685 C 0.94603 0.13866 0.43027 0.0
C686 C 0.93954 0.18842 0.41526 0.0
C687 C 0.90608 0.17247 0.39418 0.0
C688 C 0.89253 0.1396 0.39219 0.0
C689 C 0.91262 0.12313 0.41028 0.0
C690 C 0.95487 0.22348 0.41844 0.0
C691 C 0.85694 0.1217 0.37017 0.0
H692 H 0.83326 0.22629 0.38297 0.0
H693 H 0.86402 0.21558 0.28652 0.0
H694 H 0.86067 0.17272 0.43392 0.0
H695 H 0.89432 0.20884 0.45097 0.0
H696 H 0.8533 0.20872 0.44076 0.0
H697 H 0.89816 0.18707 0.28513 0.0
H698 H 0.92904 0.19195 0.33107 0.0
H699 H 0.89486 0.15617 0.31406 0.0
H700 H 0.98492 0.18356 0.44786 0.0
H701 H 0.90219 0.09796 0.40855 0.0
H702 H 0.94102 0.23538 0.42954 0.0
H703 H 0.95383 0.22983 0.38964 0.0
H704 H 0.98074 0.23259 0.43763 0.0
H705 H 0.84139 0.13106 0.38145 0.0
H706 H 0.85005 0.09626 0.37183 0.0
H707 H 0.85146 0.12478 0.33957 0.0
C708 C 0.87479 0.8413 0.34031 0.0
C709 C 0.84533 0.84519 0.3209 0.0
C710 C 0.89736 0.86263 0.37243 0.0
C711 C 0.88958 0.88774 0.38551 0.0
C712 C 0.85868 0.89017 0.36782 0.0
C713 C 0.83712 0.86922 0.33477 0.0
C714 C 0.93036 0.85967 0.39034 0.0
C715 C 0.84927 0.91602 0.38227 0.0
C716 C 0.95033 0.94327 0.47451 0.0
C717 C 0.96715 0.96707 0.45793 0.0
C718 C 0.92455 0.91703 0.45135 0.0
C719 C 0.91596 0.91494 0.41109 0.0
C720 C 0.93298 0.93888 0.39435 0.0
C721 C 0.95831 0.96475 0.41805 0.0
C722 C 0.90633 0.89199 0.46983 0.0
C723 C 0.92465 0.93711 0.35134 0.0
H724 H 0.88055 0.8221 0.32962 0.0
H725 H 0.81391 0.87152 0.3199 0.0
H726 H 0.9489 0.87801 0.38236 0.0
H727 H 0.93779 0.86336 0.42207 0.0
H728 H 0.93062 0.83642 0.38056 0.0
H729 H 0.82242 0.91018 0.37182 0.0
H730 H 0.8583 0.92069 0.41408 0.0
H731 H 0.86047 0.93789 0.37196 0.0
H732 H 0.95717 0.94519 0.50545 0.0
H733 H 0.97144 0.98305 0.40519 0.0
H734 H 0.90358 0.86836 0.45719 0.0
H735 H 0.88142 0.89258 0.46434 0.0
H736 H 0.91872 0.89531 0.50134 0.0
H737 H 0.92604 0.91524 0.3389 0.0
H738 H 0.94125 0.95731 0.34326 0.0
H739 H 0.89932 0.93659 0.33804 0.0
C740 C 0.15571 0.85086 0.41039 0.0
C741 C 0.18961 0.86444 0.41998 0.0
C742 C 0.13879 0.86531 0.42617 0.0
C743 C 0.15637 0.894 0.45139 0.0
C744 C 0.19085 0.90532 0.46512 0.0
C745 C 0.20718 0.89027 0.44919 0.0
C746 C 0.10202 0.85198 0.4124 0.0
C747 C 0.21035 0.93554 0.49275 0.0
C748 C 0.12013 0.95729 0.43263 0.0
C749 C 0.11036 0.95962 0.46447 0.0
C750 C 0.13466 0.93553 0.42791 0.0
C751 C 0.13934 0.9156 0.45576 0.0
C752 C 0.12911 0.91756 0.48779 0.0
C753 C 0.11452 0.93959 0.49169 0.0
C754 C 0.14584 0.93455 0.39363 0.0
C755 C 0.13328 0.89655 0.51785 0.0
H756 H 0.14227 0.83041 0.38835 0.0
H757 H 0.23345 0.90069 0.45676 0.0
H758 H 0.09287 0.85401 0.43651 0.0
H759 H 0.09214 0.86548 0.39068 0.0
H760 H 0.09251 0.827 0.39906 0.0
H761 H 0.23649 0.93826 0.50542 0.0
H762 H 0.20875 0.9556 0.47731 0.0
H763 H 0.20036 0.93671 0.51628 0.0
H764 H 0.11726 0.97315 0.41194 0.0
H765 H 0.10649 0.94125 0.5161 0.0
H766 H 0.13382 0.91081 0.37632 0.0
H767 H 0.17256 0.93966 0.40343 0.0
H768 H 0.14028 0.95173 0.37478 0.0
H769 H 0.11182 0.87449 0.50861 0.0
H770 H 0.13479 0.90781 0.54584 0.0
H771 H 0.15542 0.89037 0.52206 0.0
C772 C 0.22777 0.8411 0.69759 0.0
C773 C 0.21606 0.81274 0.71085 0.0
C774 C 0.20714 0.85752 0.68119 0.0
C775 C 0.17381 0.84542 0.67789 0.0
C776 C 0.16163 0.81652 0.69052 0.0
C777 C 0.18286 0.8005 0.70677 0.0
C778 C 0.22124 0.88821 0.66816 0.0
C779 C 0.12629 0.80286 0.68759 0.0
C780 C 0.1296 0.90369 0.67316 0.0
C781 C 0.11229 0.89963 0.63371 0.0
C782 C 0.14944 0.8861 0.68785 0.0
C783 C 0.1521 0.86367 0.66261 0.0
C784 C 0.13453 0.85919 0.62284 0.0
C785 C 0.11471 0.87704 0.60894 0.0
C786 C 0.1677 0.89164 0.73045 0.0
C787 C 0.13695 0.83578 0.59489 0.0
H788 H 0.25332 0.85082 0.70039 0.0
H789 H 0.17353 0.77865 0.71687 0.0
H790 H 0.20698 0.88775 0.63786 0.0
H791 H 0.21959 0.90757 0.68567 0.0
H792 H 0.24719 0.89352 0.6707 0.0
H793 H 0.12029 0.77963 0.69726 0.0
H794 H 0.12059 0.819 0.70537 0.0
H795 H 0.11026 0.80032 0.65753 0.0
H796 H 0.12736 0.92042 0.69284 0.0
H797 H 0.10149 0.87359 0.57849 0.0
H798 H 0.19432 0.89917 0.73585 0.0
H799 H 0.16067 0.86954 0.74231 0.0
H800 H 0.16286 0.90978 0.74628 0.0
H801 H 0.16263 0.84196 0.59598 0.0
H802 H 0.12148 0.8348 0.56492 0.0
H803 H 0.12947 0.81209 0.60302 0.0
C804 C 0.21794 0.20555 0.69665 0.0
C805 C 0.20948 0.20879 0.72929 0.0
C806 C 0.20019 0.17939 0.66829 0.0
C807 C 0.17296 0.15659 0.67279 0.0
C808 C 0.16417 0.15987 0.70583 0.0
C809 C 0.18263 0.18624 0.7338 0.0
C810 C 0.21016 0.17661 0.6334 0.0
C811 C 0.1352 0.13568 0.71151 0.0
C812 C 0.09907 0.1056 0.59378 0.0
C813 C 0.1007 0.07636 0.60138 0.0
C814 C 0.12443 0.1328 0.61458 0.0
C815 C 0.15206 0.13009 0.64227 0.0
C816 C 0.15568 0.10063 0.64579 0.0
C817 C 0.1293 0.07372 0.62581 0.0
C818 C 0.11968 0.16391 0.61043 0.0
C819 C 0.18587 0.09733 0.67342 0.0
H820 H 0.23779 0.22382 0.69272 0.0
H821 H 0.17642 0.18904 0.7594 0.0
H822 H 0.2084 0.15225 0.62525 0.0
H823 H 0.19351 0.18274 0.60877 0.0
H824 H 0.23546 0.1926 0.63826 0.0
H825 H 0.13176 0.14201 0.73881 0.0
H826 H 0.11261 0.13293 0.68741 0.0
H827 H 0.13843 0.1126 0.71168 0.0
H828 H 0.07676 0.10719 0.57434 0.0
H829 H 0.13049 0.05077 0.63051 0.0
H830 H 0.14225 0.18217 0.61002 0.0
H831 H 0.11392 0.17158 0.63544 0.0
H832 H 0.09938 0.16242 0.58391 0.0
H833 H 0.20815 0.1165 0.67377 0.0
H834 H 0.18811 0.07448 0.66595 0.0
H835 H 0.18458 0.09873 0.70282 0.0
C836 C 0.88832 0.18637 0.64906 0.0
C837 C 0.89588 0.18623 0.68864 0.0
C838 C 0.90313 0.17294 0.62845 0.0
C839 C 0.92502 0.15839 0.64795 0.0
C840 C 0.93424 0.16007 0.68829 0.0
C841 C 0.91972 0.17427 0.70818 0.0
C842 C 0.89366 0.17244 0.58564 0.0
C843 C 0.95705 0.14431 0.71012 0.0
C844 C 0.92674 0.08328 0.60523 0.0
C845 C 0.9587 0.09286 0.60483 0.0
C846 C 0.91435 0.10503 0.61631 0.0
C847 C 0.93437 0.13708 0.62642 0.0
C848 C 0.96555 0.14716 0.62243 0.0
C849 C 0.97767 0.12472 0.61226 0.0
C850 C 0.88114 0.09324 0.6208 0.0
C851 C 0.98697 0.18128 0.63161 0.0
H852 H 0.87001 0.19591 0.63411 0.0
H853 H 0.92525 0.17389 0.73873 0.0
H854 H 0.91503 0.17597 0.57611 0.0
H855 H 0.87516 0.1493 0.57076 0.0
H856 H 0.88302 0.19074 0.57654 0.0
H857 H 0.96339 0.14974 0.74167 0.0
H858 H 0.94537 0.11853 0.70146 0.0
H859 H 0.97994 0.15164 0.70327 0.0
H860 H 0.91227 0.0585 0.59952 0.0
H861 H 1.0023 0.13192 0.61136 0.0
H862 H 0.86614 0.10697 0.60661 0.0
H863 H 0.884 0.09622 0.65172 0.0
H864 H 0.86768 0.06809 0.60854 0.0
H865 H 0.97242 0.19623 0.62049 0.0
H866 H 1.00696 0.18584 0.61935 0.0
H867 H 0.9981 0.18834 0.66318 0.0
C868 C 0.87469 0.86906 0.76369 0.0
C869 C 0.85068 0.8389 0.75096 0.0
C870 C 0.89265 0.8844 0.74079 0.0
C871 C 0.8875 0.86923 0.70399 0.0
C872 C 0.86344 0.83869 0.69089 0.0
C873 C 0.84499 0.8243 0.71406 0.0
C874 C 0.91706 0.91719 0.75605 0.0
C875 C 0.85721 0.82105 0.65235 0.0
C876 C 0.91577 0.92019 0.63182 0.0
C877 C 0.94758 0.92018 0.63876 0.0
C878 C 0.89597 0.90372 0.65248 0.0
C879 C 0.90747 0.88545 0.67976 0.0
C880 C 0.93913 0.88436 0.68555 0.0
C881 C 0.95893 0.90222 0.66583 0.0
C882 C 0.86321 0.90696 0.64621 0.0
C883 C 0.9523 0.86449 0.71296 0.0
H884 H 0.87933 0.88111 0.79183 0.0
H885 H 0.82594 0.80186 0.70291 0.0
H886 H 0.94198 0.91741 0.75958 0.0
H887 H 0.91171 0.93316 0.73528 0.0
H888 H 0.91693 0.92658 0.78413 0.0
H889 H 0.84 0.7966 0.64763 0.0
H890 H 0.84688 0.8332 0.62921 0.0
H891 H 0.88049 0.82053 0.64982 0.0
H892 H 0.90685 0.93425 0.61137 0.0
H893 H 0.98339 0.9019 0.67137 0.0
H894 H 0.86278 0.91754 0.67349 0.0
H895 H 0.84365 0.88359 0.63743 0.0
H896 H 0.85757 0.9218 0.62399 0.0
H897 H 0.95654 0.87425 0.74279 0.0
H898 H 0.9756 0.8633 0.71121 0.0
H899 H 0.93423 0.84033 0.70679 0.0
C900 C 0.30802 0.18194 0.07597 0.0
C901 C 0.30433 0.17148 0.1097 0.0
C902 C 0.32733 0.17234 0.05883 0.0
C903 C 0.34334 0.15223 0.07642 0.0
C904 C 0.34024 0.14235 0.11123 0.0
C905 C 0.32043 0.15199 0.12736 0.0
C906 C 0.32995 0.18316 0.02169 0.0
C907 C 0.35754 0.12136 0.13121 0.0
C908 C 0.36555 0.09361 0.02742 0.0
C909 C 0.39963 0.10735 0.04079 0.0
C910 C 0.34641 0.10961 0.0354 0.0
C911 C 0.3619 0.13969 0.05785 0.0
C912 C 0.39599 0.15493 0.06803 0.0
C913 C 0.41451 0.13858 0.05894 0.0
C914 C 0.30994 0.0931 0.02293 0.0
C915 C 0.41333 0.18705 0.09196 0.0
H916 H 0.29557 0.1974 0.06298 0.0
H917 H 0.31771 0.14459 0.15394 0.0
H918 H 0.35585 0.19272 0.02349 0.0
H919 H 0.31721 0.16292 0.99813 0.0
H920 H 0.3189 0.20142 0.01419 0.0
H921 H 0.35427 0.11771 0.15937 0.0
H922 H 0.34802 0.09818 0.1129 0.0
H923 H 0.38404 0.13159 0.13589 0.0
H924 H 0.35386 0.06949 0.01325 0.0
H925 H 0.44084 0.14948 0.06836 0.0
H926 H 0.29694 0.10943 0.01255 0.0
H927 H 0.30322 0.08434 0.0478 0.0
H928 H 0.30133 0.07284 -0.00017 0.0
H929 H 0.39928 0.20276 0.08281 0.0
H930 H 0.43816 0.19807 0.09037 0.0
H931 H 0.41576 0.18492 0.12237 0.0
C932 C 0.78546 0.37919 0.07831 0.0
C933 C 0.79949 0.35679 0.07287 0.0
C934 C 0.80642 0.40884 0.09937 0.0
C935 C 0.84032 0.41657 0.10727 0.0
C936 C 0.85138 0.39773 0.08704 0.0
C937 C 0.82916 0.36871 0.06615 0.0
C938 C 0.79308 0.42909 0.11791 0.0
C939 C 0.88714 0.40507 0.09315 0.0
C940 C 0.91182 0.48715 0.16084 0.0
C941 C 0.9282 0.47294 0.1889 0.0
C942 C 0.88064 0.47036 0.13515 0.0
C943 C 0.86455 0.43986 0.14069 0.0
C944 C 0.8783 0.42869 0.1747 0.0
C945 C 0.9108 0.4448 0.19765 0.0
C946 C 0.86739 0.48354 0.09953 0.0
C947 C 0.86063 0.3975 0.18357 0.0
H948 H 0.76005 0.37125 0.07635 0.0
H949 H 0.83831 0.35289 0.0544 0.0
H950 H 0.7982 0.42633 0.1486 0.0
H951 H 0.80512 0.45413 0.11675 0.0
H952 H 0.7663 0.42249 0.10397 0.0
H953 H 0.89085 0.39199 0.07 0.0
H954 H 0.89989 0.43053 0.09513 0.0
H955 H 0.89866 0.39793 0.1206 0.0
H956 H 0.92549 0.5089 0.15436 0.0
H957 H 0.92341 0.43388 0.21958 0.0
H958 H 0.84697 0.49057 0.1017 0.0
H959 H 0.8579 0.46585 0.07334 0.0
H960 H 0.88618 0.5045 0.09577 0.0
H961 H 0.83474 0.39479 0.17821 0.0
H962 H 0.87177 0.39491 0.21384 0.0
H963 H 0.8616 0.3786 0.16463 0.0
C964 C 0.66137 0.8482 0.0686 0.0
C965 C 0.67554 0.84864 0.10766 0.0
C966 C 0.64191 0.86614 0.05581 0.0
C967 C 0.63733 0.88531 0.08315 0.0
C968 C 0.65194 0.88586 0.12295 0.0
C969 C 0.67111 0.8674 0.13479 0.0
C970 C 0.62498 0.8624 0.01313 0.0
C971 C 0.6459 0.90452 0.15283 0.0
C972 C 0.60744 0.95246 0.06021 0.0
C973 C 0.57385 0.93702 0.04998 0.0
C974 C 0.62864 0.93571 0.06963 0.0
C975 C 0.61559 0.90317 0.07037 0.0
C976 C 0.58151 0.88764 0.06011 0.0
C977 C 0.56092 0.90477 0.04909 0.0
C978 C 0.66481 0.95347 0.08047 0.0
C979 C 0.56692 0.85338 0.06272 0.0
H980 H 0.66455 0.8329 0.04803 0.0
H981 H 0.68195 0.86694 0.16509 0.0
H982 H 0.6131 0.87984 0.00448 0.0
H983 H 0.64264 0.86363 0.99794 0.0
H984 H 0.60602 0.83868 0.0032 0.0
H985 H 0.65698 0.90027 0.18235 0.0
H986 H 0.65624 0.92989 0.15191 0.0
H987 H 0.61928 0.89843 0.14668 0.0
H988 H 0.6171 0.97768 0.06178 0.0
H989 H 0.5348 0.89339 0.04219 0.0
H990 H 0.67859 0.93814 0.0771 0.0
H991 H 0.67455 0.96491 0.11082 0.0
H992 H 0.6694 0.97236 0.06276 0.0
H993 H 0.57043 0.83882 0.04083 0.0
H994 H 0.54038 0.84598 0.05807 0.0
H995 H 0.57937 0.84846 0.0913 0.0
C996 C 0.20488 0.70261 0.20689 0.0
C997 C 0.20717 0.73227 0.19754 0.0
C998 C 0.18007 0.67594 0.18385 0.0
C999 C 0.15658 0.67931 0.15072 0.0
C1000 C 0.16032 0.7093 0.13958 0.0
C1001 C 0.1857 0.7356 0.16344 0.0
C1002 C 0.17707 0.64474 0.19774 0.0
C1003 C 0.13632 0.71461 0.10479 0.0
C1004 C 0.09779 0.59741 0.11099 0.0
C1005 C 0.07472 0.59675 0.12857 0.0
C1006 C 0.12262 0.62564 0.113 0.0
C1007 C 0.12505 0.65313 0.1349 0.0
C1008 C 0.10026 0.65267 0.15038 0.0
C1009 C 0.07522 0.6244 0.14667 0.0
C1010 C 0.14735 0.62508 0.09424 0.0
C1011 C 0.10169 0.68121 0.17418 0.0
H1012 H 0.22082 0.7003 0.23385 0.0
H1013 H 0.1875 0.75885 0.15657 0.0
H1014 H 0.15298 0.63407 0.20134 0.0
H1015 H 0.17905 0.62842 0.17639 0.0
H1016 H 0.19635 0.64685 0.22554 0.0
H1017 H 0.14975 0.72967 0.08813 0.0
H1018 H 0.11877 0.6925 0.08602 0.0
H1019 H 0.12259 0.72777 0.11398 0.0
H1020 H 0.09711 0.57582 0.09679 0.0
H1021 H 0.05696 0.62351 0.1599 0.0
H1022 H 0.16301 0.61255 0.11029 0.0
H1023 H 0.16308 0.64888 0.09288 0.0
H1024 H 0.13477 0.61167 0.06476 0.0
H1025 H 0.12543 0.69106 0.19793 0.0
H1026 H 0.08189 0.67592 0.18679 0.0
H1027 H 0.09932 0.69953 0.15601 0.0
C1028 C 0.31002 0.85298 0.86544 0.0
C1029 C 0.32365 0.8321 0.85502 0.0
C1030 C 0.32982 0.88369 0.88285 0.0
C1031 C 0.36367 0.89327 0.88926 0.0
C1032 C 0.3775 0.8718 0.8794 0.0
C1033 C 0.35712 0.84126 0.8622 0.0
C1034 C 0.3145 0.90607 0.89322 0.0
C1035 C 0.41366 0.88125 0.88641 0.0
C1036 C 0.41794 0.97701 0.89893 0.0
C1037 C 0.43388 0.98407 0.93865 0.0
C1038 C 0.39301 0.9481 0.88249 0.0
C1039 C 0.38499 0.9257 0.90641 0.0
C1040 C 0.3999 0.93333 0.94662 0.0
C1041 C 0.42344 0.96291 0.9623 0.0
C1042 C 0.37664 0.94084 0.83947 0.0
C1043 C 0.39248 0.90971 0.97293 0.0
H1044 H 0.28384 0.84549 0.85901 0.0
H1045 H 0.36714 0.8248 0.85331 0.0
H1046 H 0.3262 0.91603 0.92411 0.0
H1047 H 0.31853 0.92593 0.87686 0.0
H1048 H 0.28785 0.89459 0.88706 0.0
H1049 H 0.42053 0.86129 0.87842 0.0
H1050 H 0.42115 0.89995 0.86947 0.0
H1051 H 0.42765 0.89092 0.91712 0.0
H1052 H 0.42556 0.99362 0.88065 0.0
H1053 H 0.43534 0.96853 0.99307 0.0
H1054 H 0.34978 0.93022 0.8319 0.0
H1055 H 0.38489 0.92356 0.82739 0.0
H1056 H 0.38237 0.9621 0.82565 0.0
H1057 H 0.36728 0.90494 0.97303 0.0
H1058 H 0.40957 0.91798 0.00287 0.0
H1059 H 0.39396 0.88719 0.9627 0.0
C1060 C 0.16646 0.39823 0.89078 0.0
C1061 C 0.176 0.37561 0.91111 0.0
C1062 C 0.14891 0.41469 0.9029 0.0
C1063 C 0.14037 0.4085 0.9362 0.0
C1064 C 0.14989 0.38574 0.95686 0.0
C1065 C 0.16753 0.36972 0.9442 0.0
C1066 C 0.13942 0.43872 0.87992 0.0
C1067 C 0.14158 0.37837 0.99259 0.0
C1068 C 0.12013 0.4698 0.98838 0.0
C1069 C 0.0858 0.4578 0.97588 0.0
C1070 C 0.13807 0.45419 0.97566 0.0
C1071 C 0.12152 0.42575 0.94949 0.0
C1072 C 0.08691 0.41361 0.93648 0.0
C1073 C 0.06958 0.42964 0.94979 0.0
C1074 C 0.17485 0.4682 0.99029 0.0
C1075 C 0.06813 0.38346 0.90859 0.0
H1076 H 0.17234 0.40288 0.86496 0.0
H1077 H 0.17516 0.35286 0.96075 0.0
H1078 H 0.11249 0.43206 0.86924 0.0
H1079 H 0.1496 0.46187 0.89845 0.0
H1080 H 0.14819 0.44119 0.85502 0.0
H1081 H 0.15037 0.35986 0.00526 0.0
H1082 H 0.1526 0.3998 0.01442 0.0
H1083 H 0.11477 0.37054 0.98588 0.0
H1084 H 0.13315 0.49178 0.00784 0.0
H1085 H 0.04319 0.41975 0.94012 0.0
H1086 H 0.18397 0.4728 0.96588 0.0
H1087 H 0.1852 0.45138 0.0052 0.0
H1088 H 0.18414 0.49046 0.01045 0.0
H1089 H 0.07467 0.38539 0.88212 0.0
H1090 H 0.04132 0.37735 0.90056 0.0
H1091 H 0.07481 0.36398 0.92137 0.0
C1092 C 0.68873 0.22656 0.84124 0.0
C1093 C 0.71872 0.22236 0.84734 0.0
C1094 C 0.66618 0.2092 0.85802 0.0
C1095 C 0.67412 0.18777 0.88255 0.0
C1096 C 0.7049 0.18432 0.88976 0.0
C1097 C 0.7265 0.20122 0.87169 0.0
C1098 C 0.63344 0.21314 0.8486 0.0
C1099 C 0.71486 0.16235 0.91618 0.0
C1100 C 0.62656 0.15899 0.95106 0.0
C1101 C 0.60446 0.12946 0.93109 0.0
C1102 C 0.64896 0.17839 0.93545 0.0
C1103 C 0.64981 0.16791 0.89927 0.0
C1104 C 0.62773 0.13798 0.87924 0.0
C1105 C 0.6053 0.11936 0.89517 0.0
C1106 C 0.67176 0.21016 0.95772 0.0
C1107 C 0.62791 0.12544 0.84096 0.0
H1108 H 0.68237 0.2426 0.8222 0.0
H1109 H 0.7497 0.19797 0.87678 0.0
H1110 H 0.61376 0.19055 0.83385 0.0
H1111 H 0.62942 0.21975 0.87535 0.0
H1112 H 0.63121 0.23122 0.82985 0.0
H1113 H 0.74026 0.16357 0.92054 0.0
H1114 H 0.71283 0.16801 0.94452 0.0
H1115 H 0.69819 0.13791 0.90415 0.0
H1116 H 0.6261 0.16711 0.97873 0.0
H1117 H 0.58856 0.09653 0.87953 0.0
H1118 H 0.66823 0.22867 0.94022 0.0
H1119 H 0.69744 0.21164 0.96407 0.0
H1120 H 0.66789 0.21513 0.98516 0.0
H1121 H 0.62364 0.14169 0.82019 0.0
H1122 H 0.60904 0.10187 0.82882 0.0
H1123 H 0.65214 0.12391 0.84408 0.0
C1124 C 0.87702 0.74503 0.88256 0.0
C1125 C 0.84576 0.73041 0.85548 0.0
C1126 C 0.89415 0.72719 0.90393 0.0
C1127 C 0.87913 0.69413 0.89907 0.0
C1128 C 0.84708 0.67957 0.8726 0.0
C1129 C 0.8311 0.69778 0.85071 0.0
C1130 C 0.92857 0.74361 0.93098 0.0
C1131 C 0.82962 0.64463 0.86726 0.0
C1132 C 0.92789 0.6395 0.92181 0.0
C1133 C 0.92534 0.63186 0.95732 0.0
C1134 C 0.91406 0.66059 0.90333 0.0
C1135 C 0.89694 0.67438 0.92049 0.0
C1136 C 0.89489 0.66736 0.95673 0.0
C1137 C 0.90918 0.64633 0.97473 0.0
C1138 C 0.91731 0.66771 0.86504 0.0
C1139 C 0.87669 0.68129 0.97596 0.0
H1140 H 0.88839 0.77026 0.88622 0.0
H1141 H 0.80671 0.6865 0.83018 0.0
H1142 H 0.93073 0.73787 0.96024 0.0
H1143 H 0.94558 0.73526 0.92141 0.0
H1144 H 0.9364 0.76946 0.93246 0.0
H1145 H 0.80398 0.63723 0.84754 0.0
H1146 H 0.84264 0.63215 0.85548 0.0
H1147 H 0.82957 0.63714 0.89533 0.0
H1148 H 0.94096 0.62911 0.90846 0.0
H1149 H 0.90696 0.64059 0.00206 0.0
H1150 H 0.9273 0.69341 0.86575 0.0
H1151 H 0.89291 0.65874 0.84239 0.0
H1152 H 0.93339 0.65698 0.85685 0.0
H1153 H 0.88585 0.70717 0.97828 0.0
H1154 H 0.87901 0.67509 0.00511 0.0
H1155 H 0.85043 0.67275 0.95826 0.0
C1156 C 0.20836 0.3389 0.21933 0.0
C1157 C 0.2204 0.33249 0.25696 0.0
C1158 C 0.18899 0.35846 0.2099 0.0
C1159 C 0.17972 0.37189 0.23816 0.0
C1160 C 0.19155 0.36526 0.27618 0.0
C1161 C 0.2118 0.3464 0.28508 0.0
C1162 C 0.17854 0.36487 0.16924 0.0
C1163 C 0.18235 0.37779 0.30772 0.0
C1164 C 0.15 0.44399 0.22258 0.0
C1165 C 0.11546 0.43053 0.20877 0.0
C1166 C 0.17075 0.42562 0.23176 0.0
C1167 C 0.15755 0.39227 0.22795 0.0
C1168 C 0.1228 0.37854 0.21405 0.0
C1169 C 0.10264 0.39739 0.20468 0.0
C1170 C 0.2072 0.44213 0.24523 0.0
C1171 C 0.10659 0.34351 0.20916 0.0
H1172 H 0.21455 0.32888 0.19693 0.0
H1173 H 0.22037 0.34199 0.31425 0.0
H1174 H 0.15164 0.35426 0.15603 0.0
H1175 H 0.18528 0.39048 0.16898 0.0
H1176 H 0.18979 0.3553 0.15122 0.0
H1177 H 0.19231 0.3701 0.33543 0.0
H1178 H 0.19154 0.40376 0.31189 0.0
H1179 H 0.15539 0.36985 0.29948 0.0
H1180 H 0.16116 0.46917 0.22567 0.0
H1181 H 0.07642 0.38582 0.19469 0.0
H1182 H 0.21769 0.43288 0.22601 0.0
H1183 H 0.21838 0.43744 0.27441 0.0
H1184 H 0.21414 0.46786 0.24593 0.0
H1185 H 0.11284 0.332 0.1871 0.0
H1186 H 0.07961 0.33615 0.20035 0.0
H1187 H 0.11576 0.33491 0.23641 0.0
C1188 C 0.21497 0.65456 0.96605 0.0
C1189 C 0.2125 0.67134 0.93543 0.0
C1190 C 0.19008 0.64688 0.98208 0.0
C1191 C 0.16208 0.65493 0.96536 0.0
C1192 C 0.16086 0.67383 0.93631 0.0
C1193 C 0.18655 0.68239 0.92223 0.0
C1194 C 0.19255 0.62846 0.01501 0.0
C1195 C 0.13112 0.68232 0.9174 0.0
C1196 C 0.08368 0.59385 0.96184 0.0
C1197 C 0.07649 0.60767 0.99086 0.0
C1198 C 0.11143 0.60938 0.95297 0.0
C1199 C 0.13209 0.63946 0.97352 0.0
C1200 C 0.12358 0.65457 0.00064 0.0
C1201 C 0.09586 0.63822 0.00943 0.0
C1202 C 0.119 0.59328 0.92227 0.0
C1203 C 0.14385 0.68746 0.02123 0.0
H1204 H 0.23534 0.64642 0.97613 0.0
H1205 H 0.185 0.69544 0.89833 0.0
H1206 H 0.18644 0.63931 0.03776 0.0
H1207 H 0.17467 0.60423 0.00499 0.0
H1208 H 0.21733 0.6273 0.02755 0.0
H1209 H 0.13527 0.69911 0.89708 0.0
H1210 H 0.11034 0.6608 0.90132 0.0
H1211 H 0.12388 0.69275 0.93931 0.0
H1212 H 0.06857 0.57022 0.94735 0.0
H1213 H 0.08991 0.64896 0.03154 0.0
H1214 H 0.14177 0.58836 0.9353 0.0
H1215 H 0.12301 0.60878 0.90065 0.0
H1216 H 0.09913 0.57082 0.9073 0.0
H1217 H 0.15868 0.68644 0.05066 0.0
H1218 H 0.12762 0.70049 0.02336 0.0
H1219 H 0.1607 0.70095 0.00703 0.0
C1220 C 0.34656 0.23464 0.89911 0.0
C1221 C 0.32649 0.22212 0.86115 0.0
C1222 C 0.36623 0.21896 0.92014 0.0
C1223 C 0.3654 0.19047 0.90245 0.0
C1224 C 0.34249 0.17626 0.86569 0.0
C1225 C 0.32342 0.19244 0.84532 0.0
C1226 C 0.38945 0.23379 0.96007 0.0
C1227 C 0.33976 0.14503 0.84681 0.0
C1228 C 0.44231 0.17196 0.92089 0.0
C1229 C 0.43686 0.1475 0.94227 0.0
C1230 C 0.41977 0.18715 0.90932 0.0
C1231 C 0.39119 0.17752 0.91946 0.0
C1232 C 0.38604 0.15336 0.94192 0.0
C1233 C 0.40917 0.13877 0.95334 0.0
C1234 C 0.42573 0.21235 0.88454 0.0
C1235 C 0.35618 0.14232 0.9537 0.0
H1236 H 0.34856 0.25752 0.91135 0.0
H1237 H 0.30714 0.1825 0.8162 0.0
H1238 H 0.38842 0.21605 0.97967 0.0
H1239 H 0.41478 0.24293 0.95958 0.0
H1240 H 0.38392 0.25344 0.97172 0.0
H1241 H 0.31867 0.13598 0.81967 0.0
H1242 H 0.36238 0.14742 0.84035 0.0
H1243 H 0.33709 0.1275 0.86654 0.0
H1244 H 0.4639 0.17872 0.91253 0.0
H1245 H 0.40484 0.11954 0.96941 0.0
H1246 H 0.424 0.23396 0.89716 0.0
H1247 H 0.4067 0.2044 0.85568 0.0
H1248 H 0.45001 0.2182 0.88104 0.0
H1249 H 0.36298 0.1535 0.98357 0.0
H1250 H 0.34791 0.11656 0.95317 0.0
H1251 H 0.33546 0.14839 0.93561 0.0
C1252 C 0.84916 0.31306 0.92372 0.0
C1253 C 0.8426 0.31932 0.88589 0.0
C1254 C 0.86712 0.33734 0.95526 0.0
C1255 C 0.87909 0.36871 0.94896 0.0
C1256 C 0.87236 0.37512 0.91073 0.0
C1257 C 0.85408 0.35043 0.87975 0.0
C1258 C 0.87343 0.3294 0.99537 0.0
C1259 C 0.88506 0.40806 0.90247 0.0
C1260 C 0.90568 0.44112 0.02358 0.0
C1261 C 0.93965 0.4492 0.03724 0.0
C1262 C 0.88543 0.41358 0.99716 0.0
C1263 C 0.89962 0.39477 0.98206 0.0
C1264 C 0.93395 0.40257 0.99648 0.0
C1265 C 0.95339 0.42933 0.02425 0.0
C1266 C 0.84894 0.40551 0.98404 0.0
C1267 C 0.95048 0.38428 0.98019 0.0
H1268 H 0.84031 0.28908 0.92872 0.0
H1269 H 0.84919 0.35547 0.85063 0.0
H1270 H 0.90002 0.33577 0.01029 0.0
H1271 H 0.8647 0.34333 0.01204 0.0
H1272 H 0.86121 0.30413 0.99561 0.0
H1273 H 0.8781 0.40911 0.87122 0.0
H1274 H 0.87544 0.42339 0.91578 0.0
H1275 H 0.91206 0.41775 0.91531 0.0
H1276 H 0.89504 0.45703 0.03233 0.0
H1277 H 0.97976 0.43638 0.03322 0.0
H1278 H 0.83656 0.38024 0.98396 0.0
H1279 H 0.84019 0.41019 0.95426 0.0
H1280 H 0.8416 0.41941 0.00268 0.0
H1281 H 0.93945 0.35891 0.98069 0.0
H1282 H 0.9771 0.39207 0.99614 0.0
H1283 H 0.9469 0.38732 0.94978 0.0
C1284 C 0.72534 0.93643 0.91356 0.0
C1285 C 0.71135 0.90538 0.89466 0.0
C1286 C 0.70578 0.95295 0.91948 0.0
C1287 C 0.67149 0.93792 0.90644 0.0
C1288 C 0.65717 0.90703 0.886 0.0
C1289 C 0.67729 0.89117 0.88022 0.0
C1290 C 0.72187 0.98598 0.94114 0.0
C1291 C 0.62067 0.89019 0.87192 0.0
C1292 C 0.62384 0.96108 0.96251 0.0
C1293 C 0.60861 0.97838 0.93817 0.0
C1294 C 0.64493 0.94843 0.95273 0.0
C1295 C 0.65076 0.95303 0.91771 0.0
C1296 C 0.63592 0.97092 0.89325 0.0
C1297 C 0.61494 0.98338 0.90376 0.0
C1298 C 0.66091 0.92994 0.97968 0.0
C1299 C 0.64228 0.97694 0.85615 0.0
H1300 H 0.75166 0.94745 0.925 0.0
H1301 H 0.66636 0.86737 0.86495 0.0
H1302 H 0.71015 1.0017 0.92559 0.0
H1303 H 0.71877 0.98643 0.96966 0.0
H1304 H 0.74838 0.99547 0.94551 0.0
H1305 H 0.61328 0.86706 0.85421 0.0
H1306 H 0.61206 0.88648 0.89684 0.0
H1307 H 0.6081 0.90461 0.85466 0.0
H1308 H 0.61898 0.95717 0.98903 0.0
H1309 H 0.60387 0.99747 0.88531 0.0
H1310 H 0.6878 0.94153 0.98976 0.0
H1311 H 0.6551 0.90627 0.9644 0.0
H1312 H 0.65299 0.92765 0.00507 0.0
H1313 H 0.66889 0.98778 0.8618 0.0
H1314 H 0.62999 0.99255 0.84121 0.0
H1315 H 0.63356 0.95445 0.83669 0.0
C1316 C 0.84186 0.7096 0.22157 0.0
C1317 C 0.84085 0.71391 0.25922 0.0
C1318 C 0.8597 0.69199 0.21088 0.0
C1319 C 0.87712 0.67678 0.23779 0.0
C1320 C 0.87596 0.68078 0.27581 0.0
C1321 C 0.8585 0.69917 0.28595 0.0
C1322 C 0.85987 0.68981 0.17025 0.0
C1323 C 0.89297 0.66514 0.30611 0.0
C1324 C 0.89802 0.60705 0.19762 0.0
C1325 C 0.93196 0.61962 0.20413 0.0
C1326 C 0.88046 0.62472 0.20892 0.0
C1327 C 0.89618 0.65693 0.22622 0.0
C1328 C 0.9303 0.66997 0.23187 0.0
C1329 C 0.94755 0.65136 0.22178 0.0
C1330 C 0.84473 0.60852 0.20257 0.0
C1331 C 0.94875 0.70413 0.24806 0.0
H1332 H 0.82878 0.7204 0.20001 0.0
H1333 H 0.85839 0.70163 0.31511 0.0
H1334 H 0.88507 0.69481 0.16999 0.0
H1335 H 0.84507 0.66568 0.15486 0.0
H1336 H 0.84965 0.70631 0.15423 0.0
H1337 H 0.88875 0.66878 0.33365 0.0
H1338 H 0.88431 0.63961 0.29589 0.0
H1339 H 0.9196 0.67449 0.31149 0.0
H1340 H 0.88509 0.58278 0.18435 0.0
H1341 H 0.97347 0.66208 0.22701 0.0
H1342 H 0.83005 0.61831 0.18014 0.0
H1343 H 0.83949 0.6127 0.22927 0.0
H1344 H 0.83665 0.58286 0.19341 0.0
H1345 H 0.93654 0.71869 0.23051 0.0
H1346 H 0.97446 0.71162 0.24883 0.0
H1347 H 0.94863 0.70883 0.2776 0.0
C1348 C 0.33326 0.82494 0.18327 0.0
C1349 C 0.33499 0.83526 0.22036 0.0
C1350 C 0.34898 0.84558 0.16216 0.0
C1351 C 0.36778 0.87728 0.17877 0.0
C1352 C 0.3701 0.88765 0.21657 0.0
C1353 C 0.35337 0.8667 0.23661 0.0
C1354 C 0.34528 0.83348 0.12187 0.0
C1355 C 0.39032 0.92092 0.23592 0.0
C1356 C 0.43383 0.92376 0.13927 0.0
C1357 C 0.41809 0.94074 0.11473 0.0
C1358 C 0.41764 0.90274 0.15963 0.0
C1359 C 0.3852 0.89939 0.15674 0.0
C1360 C 0.36941 0.91701 0.13247 0.0
C1361 C 0.38578 0.93694 0.11122 0.0
C1362 C 0.43527 0.88397 0.18416 0.0
C1363 C 0.33531 0.91508 0.1293 0.0
H1364 H 0.31888 0.80079 0.17031 0.0
H1365 H 0.35505 0.87485 0.26535 0.0
H1366 H 0.33445 0.84731 0.10144 0.0
H1367 H 0.36958 0.83638 0.11977 0.0
H1368 H 0.32959 0.80838 0.11284 0.0
H1369 H 0.39007 0.92526 0.26553 0.0
H1370 H 0.41596 0.92625 0.23724 0.0
H1371 H 0.38101 0.93744 0.21892 0.0
H1372 H 0.45877 0.92652 0.14199 0.0
H1373 H 0.37363 0.9503 0.09267 0.0
H1374 H 0.42109 0.85857 0.17477 0.0
H1375 H 0.43738 0.88952 0.21449 0.0
H1376 H 0.46011 0.88865 0.18271 0.0
H1377 H 0.31817 0.89064 0.1185 0.0
H1378 H 0.3266 0.93065 0.10986 0.0
H1379 H 0.33458 0.92173 0.15808 0.0
C1380 C 0.70815 0.2005 0.15439 0.0
C1381 C 0.7206 0.20498 0.19448 0.0
C1382 C 0.68059 0.17472 0.13424 0.0
C1383 C 0.66507 0.15355 0.15502 0.0
C1384 C 0.6784 0.15721 0.19546 0.0
C1385 C 0.70641 0.18299 0.21485 0.0
C1386 C 0.66718 0.17109 0.09098 0.0
C1387 C 0.6621 0.13496 0.21827 0.0
C1388 C 0.57424 0.11504 0.10976 0.0
C1389 C 0.57193 0.08534 0.09555 0.0
C1390 C 0.60474 0.13761 0.12942 0.0
C1391 C 0.63301 0.12974 0.13475 0.0
C1392 C 0.63058 0.09958 0.12024 0.0
C1393 C 0.59971 0.07749 0.1007 0.0
C1394 C 0.60672 0.1698 0.14433 0.0
C1395 C 0.66041 0.09074 0.12529 0.0
H1396 H 0.71963 0.21742 0.13874 0.0
H1397 H 0.71645 0.18657 0.24589 0.0
H1398 H 0.66147 0.14671 0.07788 0.0
H1399 H 0.6441 0.17604 0.08217 0.0
H1400 H 0.68448 0.18727 0.07914 0.0
H1401 H 0.67717 0.1396 0.24913 0.0
H1402 H 0.6383 0.1373 0.21584 0.0
H1403 H 0.65707 0.11037 0.20657 0.0
H1404 H 0.55224 0.12052 0.10539 0.0
H1405 H 0.5972 0.05404 0.08981 0.0
H1406 H 0.62101 0.18772 0.13105 0.0
H1407 H 0.61959 0.17536 0.17579 0.0
H1408 H 0.58226 0.17177 0.13819 0.0
H1409 H 0.67692 0.10682 0.11253 0.0
H1410 H 0.65408 0.0663 0.11175 0.0
H1411 H 0.67419 0.09326 0.15627 0.0
C1412 C 0.7197 0.72958 0.8546 0.0
C1413 C 0.71832 0.71331 0.8207 0.0
C1414 C 0.70162 0.71469 0.87793 0.0
C1415 C 0.68146 0.68246 0.8675 0.0
C1416 C 0.68005 0.66599 0.83329 0.0
C1417 C 0.69818 0.68146 0.81058 0.0
C1418 C 0.70387 0.73359 0.9137 0.0
C1419 C 0.65935 0.63174 0.82053 0.0
C1420 C 0.65505 0.63415 0.94288 0.0
C1421 C 0.62197 0.6308 0.93328 0.0
C1422 C 0.67461 0.65088 0.92206 0.0
C1423 C 0.66144 0.66592 0.89162 0.0
C1424 C 0.62832 0.66351 0.88286 0.0
C1425 C 0.609 0.64559 0.90307 0.0
C1426 C 0.70918 0.65151 0.93182 0.0
C1427 C 0.61307 0.67962 0.85167 0.0
H1428 H 0.73458 0.75399 0.86283 0.0
H1429 H 0.69661 0.66828 0.7846 0.0
H1430 H 0.67928 0.7334 0.91196 0.0
H1431 H 0.71283 0.72288 0.93915 0.0
H1432 H 0.72045 0.75827 0.91811 0.0
H1433 H 0.66168 0.62184 0.79407 0.0
H1434 H 0.66643 0.61809 0.84361 0.0
H1435 H 0.63333 0.62856 0.81497 0.0
H1436 H 0.66534 0.62258 0.96574 0.0
H1437 H 0.58356 0.64333 0.89534 0.0
H1438 H 0.7264 0.67606 0.93881 0.0
H1439 H 0.71202 0.64025 0.90658 0.0
H1440 H 0.71615 0.63916 0.95643 0.0
H1441 H 0.62853 0.70469 0.85622 0.0
H1442 H 0.58819 0.67805 0.8506 0.0
H1443 H 0.61147 0.66883 0.82341 0.0
C1444 C 0.38684 0.74024 0.83856 0.0
C1445 C 0.35396 0.72939 0.83599 0.0
C1446 C 0.40849 0.72608 0.85926 0.0
C1447 C 0.39703 0.70053 0.87788 0.0
C1448 C 0.36408 0.69004 0.87619 0.0
C1449 C 0.34304 0.70453 0.85534 0.0
C1450 C 0.44346 0.73795 0.86042 0.0
C1451 C 0.35075 0.66288 0.89553 0.0
C1452 C 0.43978 0.64096 0.89435 0.0
C1453 C 0.45835 0.64942 0.93355 0.0
C1454 C 0.42008 0.6576 0.87592 0.0
C1455 C 0.41881 0.68344 0.89713 0.0
C1456 C 0.43753 0.6922 0.93671 0.0
C1457 C 0.45723 0.67519 0.95441 0.0
C1458 C 0.40042 0.64735 0.83374 0.0
C1459 C 0.43647 0.71932 0.96043 0.0
H1460 H 0.39556 0.75946 0.82389 0.0
H1461 H 0.31777 0.69601 0.85394 0.0
H1462 H 0.46025 0.74351 0.89055 0.0
H1463 H 0.44841 0.71942 0.84551 0.0
H1464 H 0.44911 0.75919 0.84656 0.0
H1465 H 0.32523 0.65908 0.89389 0.0
H1466 H 0.35136 0.64112 0.88172 0.0
H1467 H 0.36613 0.66688 0.92615 0.0
H1468 H 0.44091 0.6214 0.87785 0.0
H1469 H 0.47134 0.68171 0.98474 0.0
H1470 H 0.40692 0.667 0.81767 0.0
H1471 H 0.37404 0.6408 0.82943 0.0
H1472 H 0.40447 0.62704 0.82123 0.0
H1473 H 0.44403 0.74104 0.94803 0.0
H1474 H 0.45258 0.72326 0.99078 0.0
H1475 H 0.41114 0.71494 0.95984 0.0
C1476 C 0.37838 0.36386 0.82505 0.0
C1477 C 0.3446 0.35473 0.81398 0.0
C1478 C 0.39811 0.3894 0.85376 0.0
C1479 C 0.3833 0.40559 0.87173 0.0
C1480 C 0.349 0.39708 0.85935 0.0
C1481 C 0.32995 0.37171 0.82999 0.0
C1482 C 0.43476 0.39851 0.86544 0.0
C1483 C 0.33212 0.41341 0.87786 0.0
C1484 C 0.44676 0.44946 0.96467 0.0
C1485 C 0.46117 0.47731 0.95233 0.0
C1486 C 0.41821 0.42668 0.9398 0.0
C1487 C 0.40451 0.43219 0.90218 0.0
C1488 C 0.41665 0.46173 0.89148 0.0
C1489 C 0.44507 0.48396 0.91669 0.0
C1490 C 0.40442 0.3958 0.95247 0.0
C1491 C 0.40165 0.46869 0.85199 0.0
H1492 H 0.38928 0.35026 0.81232 0.0
H1493 H 0.30364 0.36483 0.82001 0.0
H1494 H 0.44595 0.42346 0.86298 0.0
H1495 H 0.44495 0.39582 0.89585 0.0
H1496 H 0.44211 0.384 0.84754 0.0
H1497 H 0.32583 0.40046 0.9007 0.0
H1498 H 0.34758 0.43795 0.89111 0.0
H1499 H 0.309 0.41333 0.85664 0.0
H1500 H 0.45868 0.44472 0.99273 0.0
H1501 H 0.45551 0.50594 0.90748 0.0
H1502 H 0.41143 0.37784 0.93962 0.0
H1503 H 0.37736 0.38775 0.94237 0.0
H1504 H 0.41368 0.3974 0.98418 0.0
H1505 H 0.4073 0.45565 0.83063 0.0
H1506 H 0.41109 0.49406 0.85022 0.0
H1507 H 0.37472 0.46083 0.84395 0.0
C1508 C 0.67719 0.36105 0.91825 0.0
C1509 C 0.67021 0.36114 0.87873 0.0
C1510 C 0.66298 0.37558 0.93848 0.0
C1511 C 0.64221 0.39107 0.91863 0.0
C1512 C 0.63346 0.38933 0.87831 0.0
C1513 C 0.64739 0.37406 0.85878 0.0
C1514 C 0.67198 0.37628 0.98131 0.0
C1515 C 0.61188 0.40611 0.8562 0.0
C1516 C 0.59135 0.42677 0.95514 0.0
C1517 C 0.61137 0.45833 0.96343 0.0
C1518 C 0.60234 0.40378 0.94397 0.0
C1519 C 0.63349 0.41304 0.93994 0.0
C1520 C 0.65447 0.44478 0.95062 0.0
C1521 C 0.64316 0.46709 0.96269 0.0
C1522 C 0.57984 0.37001 0.93392 0.0
C1523 C 0.68765 0.45567 0.946 0.0
H1524 H 0.69477 0.35081 0.93348 0.0
H1525 H 0.64237 0.37438 0.82828 0.0
H1526 H 0.68994 0.39964 0.99623 0.0
H1527 H 0.65023 0.37237 0.9902 0.0
H1528 H 0.68298 0.35834 0.99102 0.0
H1529 H 0.60556 0.4004 0.82469 0.0
H1530 H 0.58894 0.39995 0.86291 0.0
H1531 H 0.62459 0.4318 0.86475 0.0
H1532 H 0.56679 0.42029 0.95617 0.0
H1533 H 0.65836 0.49168 0.96904 0.0
H1534 H 0.5935 0.35427 0.94477 0.0
H1535 H 0.56895 0.36347 0.90228 0.0
H1536 H 0.5597 0.36595 0.94585 0.0
H1537 H 0.702 0.44126 0.95977 0.0
H1538 H 0.70184 0.48065 0.95859 0.0
H1539 H 0.68467 0.45282 0.91504 0.0
C1540 C 0.72576 0.33734 0.18763 0.0
C1541 C 0.72073 0.32139 0.21796 0.0
C1542 C 0.70547 0.35365 0.16945 0.0
C1543 C 0.6799 0.35482 0.18257 0.0
C1544 C 0.67469 0.33879 0.21325 0.0
C1545 C 0.6949 0.32203 0.23026 0.0
C1546 C 0.71214 0.37009 0.13678 0.0
C1547 C 0.64803 0.33974 0.22851 0.0
C1548 C 0.64785 0.4221 0.1626 0.0
C1549 C 0.61814 0.40757 0.13246 0.0
C1550 C 0.66823 0.40533 0.17888 0.0
C1551 C 0.65889 0.37317 0.16474 0.0
C1552 C 0.62942 0.35854 0.13367 0.0
C1553 C 0.6094 0.37583 0.11801 0.0
C1554 C 0.69971 0.42201 0.21145 0.0
C1555 C 0.61903 0.32454 0.11702 0.0
H1556 H 0.74539 0.33682 0.17769 0.0
H1557 H 0.69085 0.30992 0.25379 0.0
H1558 H 0.68956 0.37085 0.11539 0.0
H1559 H 0.72899 0.39454 0.14843 0.0
H1560 H 0.72395 0.35845 0.12175 0.0
H1561 H 0.64705 0.32603 0.25244 0.0
H1562 H 0.65198 0.36436 0.23888 0.0
H1563 H 0.62401 0.33033 0.20523 0.0
H1564 H 0.65524 0.44672 0.17355 0.0
H1565 H 0.58646 0.3642 0.09501 0.0
H1566 H 0.72064 0.42111 0.20306 0.0
H1567 H 0.70009 0.41001 0.23692 0.0
H1568 H 0.70322 0.44692 0.21973 0.0
H1569 H 0.63833 0.32073 0.10738 0.0
H1570 H 0.59583 0.31674 0.09232 0.0
H1571 H 0.61584 0.3096 0.13936 0.0
C1572 C 0.72597 0.68938 0.21809 0.0
C1573 C 0.71977 0.69326 0.25223 0.0
C1574 C 0.70313 0.66704 0.18712 0.0
C1575 C 0.6738 0.6478 0.19112 0.0
C1576 C 0.66757 0.65123 0.22593 0.0
C1577 C 0.69085 0.67419 0.25633 0.0
C1578 C 0.71035 0.66409 0.15026 0.0
C1579 C 0.63639 0.63076 0.23092 0.0
C1580 C 0.59984 0.60449 0.10525 0.0
C1581 C 0.59992 0.57399 0.10674 0.0
C1582 C 0.62467 0.62936 0.1319 0.0
C1583 C 0.65011 0.62313 0.15948 0.0
C1584 C 0.65161 0.59266 0.15868 0.0
C1585 C 0.626 0.56818 0.13253 0.0
C1586 C 0.62236 0.66165 0.13231 0.0
C1587 C 0.67917 0.58561 0.18688 0.0
H1588 H 0.74846 0.70399 0.21524 0.0
H1589 H 0.68634 0.67752 0.28301 0.0
H1590 H 0.71093 0.64036 0.14377 0.0
H1591 H 0.69074 0.667 0.126 0.0
H1592 H 0.73403 0.68173 0.15169 0.0
H1593 H 0.63511 0.63699 0.25956 0.0
H1594 H 0.61503 0.63288 0.20854 0.0
H1595 H 0.63439 0.60584 0.22728 0.0
H1596 H 0.57926 0.60854 0.08515 0.0
H1597 H 0.62577 0.54435 0.13301 0.0
H1598 H 0.64617 0.67963 0.13509 0.0
H1599 H 0.61584 0.66738 0.15753 0.0
H1600 H 0.60356 0.66327 0.106 0.0
H1601 H 0.70308 0.60237 0.18778 0.0
H1602 H 0.67838 0.56142 0.17958 0.0
H1603 H 0.67771 0.58835 0.2161 0.0
C1604 C 0.35266 0.6504 0.11647 0.0
C1605 C 0.36864 0.67832 0.1426 0.0
C1606 C 0.37034 0.6365 0.10135 0.0
C1607 C 0.40464 0.65102 0.1128 0.0
C1608 C 0.42019 0.68117 0.13511 0.0
C1609 C 0.4019 0.69454 0.14985 0.0
C1610 C 0.35284 0.60437 0.07737 0.0
C1611 C 0.45666 0.69754 0.14739 0.0
C1612 C 0.44809 0.59324 0.13459 0.0
C1613 C 0.45625 0.59003 0.10163 0.0
C1614 C 0.43221 0.61388 0.13895 0.0
C1615 C 0.42434 0.63173 0.10953 0.0
C1616 C 0.4335 0.62944 0.07671 0.0
C1617 C 0.44945 0.60851 0.07314 0.0
C1618 C 0.42266 0.61554 0.17438 0.0
C1619 C 0.4258 0.64845 0.04512 0.0
H1620 H 0.32692 0.63781 0.11076 0.0
H1621 H 0.4141 0.71652 0.16945 0.0
H1622 H 0.36242 0.60209 0.05373 0.0
H1623 H 0.35693 0.58645 0.09567 0.0
H1624 H 0.32613 0.59918 0.06495 0.0
H1625 H 0.46385 0.72301 0.15711 0.0
H1626 H 0.46873 0.68725 0.17158 0.0
H1627 H 0.46589 0.69433 0.12369 0.0
H1628 H 0.45294 0.57863 0.15634 0.0
H1629 H 0.45619 0.60622 0.04784 0.0
H1630 H 0.39569 0.60738 0.16609 0.0
H1631 H 0.43242 0.64009 0.18913 0.0
H1632 H 0.43177 0.60095 0.1951 0.0
H1633 H 0.39914 0.64354 0.03357 0.0
H1634 H 0.43411 0.6434 0.02115 0.0
H1635 H 0.43771 0.6738 0.05675 0.0
C1636 C 0.37235 0.31313 0.22578 0.0
C1637 C 0.34603 0.31963 0.23147 0.0
C1638 C 0.39044 0.33073 0.20416 0.0
C1639 C 0.38314 0.35656 0.18872 0.0
C1640 C 0.35656 0.36326 0.19453 0.0
C1641 C 0.3381 0.3445 0.2151 0.0
C1642 C 0.41774 0.32183 0.19822 0.0
C1643 C 0.34822 0.39095 0.18005 0.0
C1644 C 0.45219 0.42156 0.16919 0.0
C1645 C 0.44419 0.41563 0.12907 0.0
C1646 C 0.43265 0.40286 0.18863 0.0
C1647 C 0.40399 0.37711 0.16788 0.0
C1648 C 0.39571 0.37099 0.12735 0.0
C1649 C 0.41571 0.39017 0.10857 0.0
C1650 C 0.44278 0.4108 0.23164 0.0
C1651 C 0.36569 0.34392 0.10372 0.0
H1652 H 0.37878 0.29404 0.23824 0.0
H1653 H 0.31818 0.35013 0.21969 0.0
H1654 H 0.41448 0.3186 0.16721 0.0
H1655 H 0.44142 0.34097 0.2128 0.0
H1656 H 0.41897 0.29994 0.20951 0.0
H1657 H 0.32676 0.393 0.18636 0.0
H1658 H 0.36939 0.41284 0.19356 0.0
H1659 H 0.34307 0.38901 0.14863 0.0
H1660 H 0.47397 0.44101 0.1857 0.0
H1661 H 0.40901 0.38514 0.07769 0.0
H1662 H 0.44734 0.39082 0.24535 0.0
H1663 H 0.42282 0.41492 0.23949 0.0
H1664 H 0.46518 0.43191 0.24367 0.0
H1665 H 0.36726 0.32169 0.11362 0.0
H1666 H 0.36245 0.34197 0.07265 0.0
H1667 H 0.34369 0.34669 0.10768 0.0
C1668 C 0.84226 0.63554 0.6165 0.0
C1669 C 0.84802 0.6439 0.65557 0.0
C1670 C 0.8599 0.61954 0.60453 0.0
C1671 C 0.88446 0.61233 0.63229 0.0
C1672 C 0.89071 0.62096 0.67181 0.0
C1673 C 0.87223 0.63645 0.683 0.0
C1674 C 0.85284 0.61143 0.56213 0.0
C1675 C 0.91687 0.61378 0.70226 0.0
C1676 C 0.90975 0.54551 0.60581 0.0
C1677 C 0.93967 0.56169 0.60159 0.0
C1678 C 0.89128 0.56178 0.61528 0.0
C1679 C 0.90299 0.59493 0.62012 0.0
C1680 C 0.93269 0.61128 0.61433 0.0
C1681 C 0.95091 0.59438 0.60542 0.0
C1682 C 0.85966 0.5436 0.62107 0.0
C1683 C 0.94554 0.64654 0.61843 0.0
H1684 H 0.8243 0.64201 0.5951 0.0
H1685 H 0.87666 0.64259 0.71325 0.0
H1686 H 0.87153 0.62914 0.55377 0.0
H1687 H 0.85395 0.58805 0.55486 0.0
H1688 H 0.82853 0.61178 0.54483 0.0
H1689 H 0.91929 0.62287 0.73172 0.0
H1690 H 0.9112 0.58809 0.69973 0.0
H1691 H 0.94075 0.62424 0.69806 0.0
H1692 H 0.90148 0.52017 0.60317 0.0
H1693 H 0.9742 0.60665 0.6021 0.0
H1694 H 0.83938 0.54973 0.60191 0.0
H1695 H 0.8613 0.55004 0.65103 0.0
H1696 H 0.85361 0.51787 0.61525 0.0
H1697 H 0.92755 0.65454 0.59786 0.0
H1698 H 0.96914 0.65559 0.61317 0.0
H1699 H 0.94898 0.65699 0.64769 0.0
C1700 C 0.34294 0.92067 0.60339 0.0
C1701 C 0.34701 0.91812 0.64197 0.0
C1702 C 0.37032 0.93279 0.5921 0.0
C1703 C 0.40172 0.94059 0.61992 0.0
C1704 C 0.40562 0.94204 0.6593 0.0
C1705 C 0.37791 0.93276 0.66993 0.0
C1706 C 0.36561 0.93458 0.55026 0.0
C1707 C 0.43873 0.95009 0.68991 0.0
C1708 C 0.46372 0.92483 0.58209 0.0
C1709 C 0.48541 0.95526 0.5864 0.0
C1710 C 0.43672 0.91951 0.59426 0.0
C1711 C 0.43043 0.94556 0.60811 0.0
C1712 C 0.4524 0.97625 0.61227 0.0
C1713 C 0.48017 0.9806 0.60242 0.0
C1714 C 0.41506 0.88616 0.59202 0.0
C1715 C 0.4466 0.00501 0.62538 0.0
H1716 H 0.31896 0.90988 0.58183 0.0
H1717 H 0.38106 0.93151 0.69997 0.0
H1718 H 0.3851 0.95501 0.54681 0.0
H1719 H 0.36662 0.91309 0.53639 0.0
H1720 H 0.34151 0.93639 0.53497 0.0
H1721 H 0.43699 0.94649 0.71875 0.0
H1722 H 0.45196 0.93545 0.68263 0.0
H1723 H 0.45358 0.97495 0.69157 0.0
H1724 H 0.46785 0.90538 0.56924 0.0
H1725 H 0.49672 1.00426 0.60499 0.0
H1726 H 0.39302 0.87983 0.56607 0.0
H1727 H 0.40699 0.88331 0.61741 0.0
H1728 H 0.42768 0.86936 0.59008 0.0
H1729 H 0.44343 0.01873 0.60142 0.0
H1730 H 0.46837 0.01981 0.64967 0.0
H1731 H 0.42488 1.00013 0.63441 0.0
C1732 C 0.24341 0.3416 0.68658 0.0
C1733 C 0.22885 0.31489 0.70052 0.0
C1734 C 0.22461 0.35811 0.66609 0.0
C1735 C 0.19055 0.34715 0.65939 0.0
C1736 C 0.17566 0.31897 0.67168 0.0
C1737 C 0.19517 0.3032 0.69237 0.0
C1738 C 0.24219 0.38843 0.65487 0.0
C1739 C 0.13966 0.30704 0.66616 0.0
C1740 C 0.15035 0.40721 0.65908 0.0
C1741 C 0.13171 0.40324 0.62022 0.0
C1742 C 0.17026 0.38962 0.67187 0.0
C1743 C 0.1713 0.36725 0.64517 0.0
C1744 C 0.15303 0.36336 0.60579 0.0
C1745 C 0.13334 0.38149 0.5937 0.0
C1746 C 0.18954 0.39445 0.71415 0.0
C1747 C 0.15354 0.33955 0.57665 0.0
H1748 H 0.2697 0.35061 0.69362 0.0
H1749 H 0.18436 0.28257 0.70385 0.0
H1750 H 0.22572 0.39972 0.63781 0.0
H1751 H 0.25918 0.40514 0.68122 0.0
H1752 H 0.25725 0.38415 0.63825 0.0
H1753 H 0.13142 0.28312 0.67356 0.0
H1754 H 0.1345 0.32305 0.68475 0.0
H1755 H 0.12504 0.30667 0.63608 0.0
H1756 H 0.14864 0.42347 0.67986 0.0
H1757 H 0.11913 0.37855 0.5636 0.0
H1758 H 0.21594 0.40134 0.71838 0.0
H1759 H 0.18229 0.37222 0.72573 0.0
H1760 H 0.18588 0.41281 0.7311 0.0
H1761 H 0.17862 0.33936 0.58231 0.0
H1762 H 0.14408 0.34416 0.5469 0.0
H1763 H 0.138 0.31585 0.57866 0.0
C1764 C 0.72656 0.22491 0.65162 0.0
C1765 C 0.72252 0.22326 0.68758 0.0
C1766 C 0.70816 0.19994 0.62091 0.0
C1767 C 0.68434 0.17314 0.62591 0.0
C1768 C 0.67969 0.17185 0.66201 0.0
C1769 C 0.69921 0.19662 0.69252 0.0
C1770 C 0.71428 0.20214 0.58318 0.0
C1771 C 0.65409 0.14422 0.66851 0.0
C1772 C 0.61412 0.1166 0.54186 0.0
C1773 C 0.62535 0.09186 0.53818 0.0
C1774 C 0.63387 0.14405 0.56854 0.0
C1775 C 0.66483 0.14601 0.59395 0.0
C1776 C 0.67607 0.12081 0.59063 0.0
C1777 C 0.65625 0.09413 0.56278 0.0
C1778 C 0.62107 0.17046 0.57043 0.0
C1779 C 0.70829 0.12128 0.61791 0.0
H1780 H 0.74466 0.24546 0.64778 0.0
H1781 H 0.6958 0.19541 0.72017 0.0
H1782 H 0.71984 0.18148 0.57461 0.0
H1783 H 0.692 0.202 0.56039 0.0
H1784 H 0.7348 0.2237 0.58447 0.0
H1785 H 0.6527 0.14731 0.69776 0.0
H1786 H 0.62978 0.14068 0.64725 0.0
H1787 H 0.65954 0.12258 0.66432 0.0
H1788 H 0.58957 0.11422 0.52425 0.0
H1789 H 0.66419 0.07426 0.56151 0.0
H1790 H 0.63956 0.19298 0.5699 0.0
H1791 H 0.61622 0.17269 0.59777 0.0
H1792 H 0.59818 0.16669 0.54624 0.0
H1793 H 0.72821 0.14292 0.61803 0.0
H1794 H 0.71436 0.10066 0.61036 0.0
H1795 H 0.70744 0.12147 0.64752 0.0
C1796 C 0.87707 0.34738 0.34301 0.0
C1797 C 0.84787 0.33994 0.35048 0.0
C1798 C 0.90432 0.37254 0.36568 0.0
C1799 C 0.90147 0.39082 0.39539 0.0
C1800 C 0.87133 0.38416 0.40165 0.0
C1801 C 0.8448 0.35819 0.37936 0.0
C1802 C 0.93646 0.37851 0.35916 0.0
C1803 C 0.86742 0.4038 0.4325 0.0
C1804 C 0.9786 0.43164 0.47845 0.0
C1805 C 0.9893 0.46095 0.46732 0.0
C1806 C 0.94961 0.40853 0.4554 0.0
C1807 C 0.93066 0.41562 0.42135 0.0
C1808 C 0.94064 0.44575 0.41099 0.0
C1809 C 0.97038 0.46804 0.4339 0.0
C1810 C 0.93993 0.37632 0.46679 0.0
C1811 C 0.92012 0.45424 0.37562 0.0
H1812 H 0.87897 0.33257 0.32078 0.0
H1813 H 0.82183 0.35184 0.38476 0.0
H1814 H 0.94621 0.40291 0.35396 0.0
H1815 H 0.95458 0.37565 0.38521 0.0
H1816 H 0.93423 0.3623 0.33441 0.0
H1817 H 0.84153 0.39738 0.4308 0.0
H1818 H 0.88174 0.40072 0.4612 0.0
H1819 H 0.877 0.42901 0.43018 0.0
H1820 H 0.99346 0.42648 0.50453 0.0
H1821 H 0.97866 0.4911 0.42598 0.0
H1822 H 0.93827 0.35866 0.444 0.0
H1823 H 0.91551 0.36992 0.46986 0.0
H1824 H 0.9576 0.37485 0.49423 0.0
H1825 H 0.9186 0.44011 0.34956 0.0
H1826 H 0.9302 0.47945 0.37339 0.0
H1827 H 0.89487 0.44872 0.37593 0.0
C1828 C 0.69265 0.81709 0.30484 0.0
C1829 C 0.7264 0.82977 0.3104 0.0
C1830 C 0.67516 0.83511 0.3156 0.0
C1831 C 0.69078 0.86765 0.33141 0.0
C1832 C 0.72479 0.88062 0.33656 0.0
C1833 C 0.74193 0.86174 0.32695 0.0
C1834 C 0.63966 0.81898 0.31048 0.0
C1835 C 0.74332 0.91489 0.35211 0.0
C1836 C 0.63768 0.92171 0.32471 0.0
C1837 C 0.63618 0.92653 0.36212 0.0
C1838 C 0.65492 0.90313 0.31466 0.0
C1839 C 0.6718 0.88793 0.34211 0.0
C1840 C 0.67042 0.89255 0.37987 0.0
C1841 C 0.65312 0.9114 0.38922 0.0
C1842 C 0.65535 0.90008 0.27418 0.0
C1843 C 0.68713 0.87716 0.41078 0.0
H1844 H 0.67985 0.79256 0.29274 0.0
H1845 H 0.76772 0.87242 0.3319 0.0
H1846 H 0.63568 0.82199 0.33827 0.0
H1847 H 0.62458 0.82986 0.29011 0.0
H1848 H 0.63098 0.79354 0.2996 0.0
H1849 H 0.76884 0.92231 0.35222 0.0
H1850 H 0.73085 0.9293 0.33463 0.0
H1851 H 0.74375 0.91988 0.38185 0.0
H1852 H 0.62575 0.93304 0.30285 0.0
H1853 H 0.65256 0.91377 0.41815 0.0
H1854 H 0.64463 0.87506 0.26095 0.0
H1855 H 0.68091 0.90892 0.27446 0.0
H1856 H 0.64157 0.91319 0.25588 0.0
H1857 H 0.67696 0.85137 0.40192 0.0
H1858 H 0.68427 0.88271 0.43869 0.0
H1859 H 0.71354 0.88486 0.41485 0.0
C1860 C 0.20392 0.71898 0.36003 0.0
C1861 C 0.22239 0.70977 0.3408 0.0
C1862 C 0.18675 0.69845 0.38009 0.0
C1863 C 0.18822 0.66789 0.3816 0.0
C1864 C 0.2066 0.65838 0.362 0.0
C1865 C 0.22318 0.67923 0.34176 0.0
C1866 C 0.16714 0.70957 0.39993 0.0
C1867 C 0.20925 0.62627 0.36292 0.0
C1868 C 0.17107 0.62683 0.46507 0.0
C1869 C 0.13911 0.60539 0.44775 0.0
C1870 C 0.1873 0.64694 0.44391 0.0
C1871 C 0.1712 0.64618 0.40436 0.0
C1872 C 0.13888 0.62464 0.38672 0.0
C1873 C 0.12339 0.60445 0.40846 0.0
C1874 C 0.22185 0.66901 0.46394 0.0
C1875 C 0.12052 0.62307 0.34484 0.0
H1876 H 0.20284 0.74235 0.35944 0.0
H1877 H 0.23726 0.67165 0.32713 0.0
H1878 H 0.14151 0.69311 0.3898 0.0
H1879 H 0.17717 0.70991 0.43129 0.0
H1880 H 0.16723 0.7334 0.39478 0.0
H1881 H 0.22405 0.62218 0.34582 0.0
H1882 H 0.22058 0.62341 0.39298 0.0
H1883 H 0.18462 0.60796 0.35163 0.0
H1884 H 0.18359 0.62778 0.49531 0.0
H1885 H 0.09871 0.58812 0.39469 0.0
H1886 H 0.2231 0.69359 0.46241 0.0
H1887 H 0.23815 0.66467 0.44927 0.0
H1888 H 0.23127 0.66641 0.49456 0.0
H1889 H 0.11887 0.64631 0.3394 0.0
H1890 H 0.09546 0.6054 0.3354 0.0
H1891 H 0.13388 0.61714 0.32694 0.0
C1892 C 0.34942 0.19293 0.28531 0.0
C1893 C 0.3457 0.2117 0.31378 0.0
C1894 C 0.3696 0.17398 0.29443 0.0
C1895 C 0.38673 0.17254 0.33332 0.0
C1896 C 0.38273 0.19121 0.3621 0.0
C1897 C 0.36295 0.21037 0.35217 0.0
C1898 C 0.37281 0.15554 0.26205 0.0
C1899 C 0.39932 0.19088 0.40394 0.0
C1900 C 0.41617 0.10103 0.35714 0.0
C1901 C 0.45027 0.11333 0.36463 0.0
C1902 C 0.39575 0.1197 0.34767 0.0
C1903 C 0.40869 0.15193 0.34388 0.0
C1904 C 0.44302 0.16434 0.3509 0.0
C1905 C 0.46304 0.14543 0.36156 0.0
C1906 C 0.36002 0.10485 0.34227 0.0
C1907 C 0.45883 0.1979 0.34677 0.0
H1908 H 0.33676 0.19327 0.2555 0.0
H1909 H 0.36077 0.22428 0.37498 0.0
H1910 H 0.39894 0.16171 0.2651 0.0
H1911 H 0.36314 0.13014 0.26329 0.0
H1912 H 0.35952 0.15987 0.23347 0.0
H1913 H 0.39243 0.20477 0.4231 0.0
H1914 H 0.39297 0.16644 0.40998 0.0
H1915 H 0.42617 0.20059 0.41106 0.0
H1916 H 0.40534 0.07666 0.35958 0.0
H1917 H 0.48898 0.15583 0.36675 0.0
H1918 H 0.3451 0.10549 0.31269 0.0
H1919 H 0.35346 0.11836 0.3622 0.0
H1920 H 0.35346 0.08015 0.34743 0.0
H1921 H 0.44628 0.20228 0.31792 0.0
H1922 H 0.48515 0.20393 0.35083 0.0
H1923 H 0.45634 0.21385 0.36816 0.0
C1924 C 0.70872 0.83928 0.734 0.0
C1925 C 0.72011 0.81914 0.71706 0.0
C1926 C 0.69131 0.85648 0.71188 0.0
C1927 C 0.68545 0.85391 0.67182 0.0
C1928 C 0.69641 0.83325 0.65445 0.0
C1929 C 0.71339 0.81605 0.67716 0.0
C1930 C 0.67965 0.87784 0.73152 0.0
C1931 C 0.69093 0.82988 0.61196 0.0
C1932 C 0.61912 0.88116 0.60898 0.0
C1933 C 0.63722 0.91144 0.60504 0.0
C1934 C 0.63442 0.86216 0.63035 0.0
C1935 C 0.66876 0.87354 0.6483 0.0
C1936 C 0.68723 0.90386 0.64398 0.0
C1937 C 0.67128 0.92241 0.62255 0.0
C1938 C 0.61376 0.83003 0.63419 0.0
C1939 C 0.7239 0.91681 0.66219 0.0
H1940 H 0.7136 0.84182 0.76471 0.0
H1941 H 0.72219 0.80077 0.66365 0.0
H1942 H 0.69165 0.90246 0.72848 0.0
H1943 H 0.65298 0.87191 0.71766 0.0
H1944 H 0.68492 0.87626 0.76255 0.0
H1945 H 0.70003 0.81211 0.6026 0.0
H1946 H 0.66456 0.82311 0.59543 0.0
H1947 H 0.70356 0.8527 0.60456 0.0
H1948 H 0.59277 0.87254 0.59612 0.0
H1949 H 0.68557 0.94555 0.61936 0.0
H1950 H 0.61686 0.82856 0.66486 0.0
H1951 H 0.62184 0.81194 0.62361 0.0
H1952 H 0.58743 0.82438 0.618 0.0
H1953 H 0.73082 0.91796 0.69377 0.0
H1954 H 0.7348 0.9406 0.65573 0.0
H1955 H 0.73467 0.90101 0.65187 0.0
C1956 C 0.75736 0.17993 0.48489 0.0
C1957 C 0.76309 0.21218 0.48591 0.0
C1958 C 0.72531 0.15879 0.46679 0.0
C1959 C 0.6999 0.17108 0.4529 0.0
C1960 C 0.70582 0.20275 0.46615 0.0
C1961 C 0.73748 0.22136 0.4892 0.0
C1962 C 0.7193 0.12419 0.45976 0.0
C1963 C 0.68039 0.21807 0.45426 0.0
C1964 C 0.6367 0.11545 0.36483 0.0
C1965 C 0.61177 0.10212 0.37948 0.0
C1966 C 0.66435 0.14085 0.38704 0.0
C1967 C 0.66786 0.15084 0.42549 0.0
C1968 C 0.64141 0.13892 0.43873 0.0
C1969 C 0.6133 0.11539 0.41501 0.0
C1970 C 0.69008 0.15624 0.3699 0.0
C1971 C 0.64396 0.14709 0.47959 0.0
H1972 H 0.77761 0.17159 0.48962 0.0
H1973 H 0.74215 0.24571 0.49878 0.0
H1974 H 0.69568 0.11022 0.46273 0.0
H1975 H 0.71825 0.11737 0.43018 0.0
H1976 H 0.73917 0.11812 0.47999 0.0
H1977 H 0.69091 0.24094 0.4454 0.0
H1978 H 0.65818 0.20364 0.43033 0.0
H1979 H 0.67335 0.22313 0.47929 0.0
H1980 H 0.63542 0.105 0.3373 0.0
H1981 H 0.59453 0.10405 0.42685 0.0
H1982 H 0.71251 0.15105 0.38381 0.0
H1983 H 0.69623 0.18196 0.37504 0.0
H1984 H 0.68185 0.14826 0.33851 0.0
H1985 H 0.65465 0.13146 0.49672 0.0
H1986 H 0.61949 0.14378 0.48137 0.0
H1987 H 0.6599 0.17129 0.49284 0.0
C1988 C 0.87821 0.66258 0.45938 0.0
C1989 C 0.88709 0.69009 0.44377 0.0
C1990 C 0.89917 0.64557 0.46868 0.0
C1991 C 0.92938 0.65685 0.46246 0.0
C1992 C 0.93659 0.68245 0.4426 0.0
C1993 C 0.91519 0.69891 0.43345 0.0
C1994 C 0.89029 0.61705 0.48781 0.0
C1995 C 0.96814 0.69418 0.43417 0.0
C1996 C 1.0019 0.65082 0.53922 0.0
C1997 C 1.00659 0.62629 0.52104 0.0
C1998 C 0.97631 0.6608 0.52024 0.0
C1999 C 0.95554 0.64568 0.4826 0.0
C2000 C 0.96027 0.6207 0.46437 0.0
C2001 C 0.98605 0.61141 0.4839 0.0
C2002 C 0.97154 0.68755 0.54028 0.0
C2003 C 0.93875 0.60424 0.42423 0.0
H2004 H 0.85594 0.65546 0.46635 0.0
H2005 H 0.92114 0.71953 0.4198 0.0
H2006 H 0.8944 0.59737 0.47408 0.0
H2007 H 0.90627 0.62242 0.51832 0.0
H2008 H 0.86441 0.60927 0.48639 0.0
H2009 H 0.96734 0.71059 0.4129 0.0
H2010 H 0.98844 0.70663 0.46109 0.0
H2011 H 0.97376 0.67441 0.42314 0.0
H2012 H 0.01799 0.66189 0.56805 0.0
H2013 H 0.99027 0.59239 0.47021 0.0
H2014 H 0.94666 0.67987 0.54222 0.0
H2015 H 0.97377 0.70718 0.52343 0.0
H2016 H 0.98961 0.6964 0.56967 0.0
H2017 H 0.91265 0.59946 0.42019 0.0
H2018 H 0.94197 0.58176 0.41743 0.0
H2019 H 0.945 0.6195 0.40321 0.0
C2020 C 0.37117 0.81002 0.40134 0.0
C2021 C 0.35108 0.81373 0.3663 0.0
C2022 C 0.39638 0.83614 0.42595 0.0
C2023 C 0.40152 0.86597 0.41426 0.0
C2024 C 0.37847 0.86999 0.38129 0.0
C2025 C 0.35401 0.8436 0.35727 0.0
C2026 C 0.4195 0.83126 0.46197 0.0
C2027 C 0.38239 0.90146 0.368 0.0
C2028 C 0.46759 0.94429 0.45381 0.0
C2029 C 0.4872 0.94363 0.43166 0.0
C2030 C 0.44161 0.91739 0.45285 0.0
C2031 C 0.43449 0.89001 0.42757 0.0
C2032 C 0.4557 0.88882 0.40704 0.0
C2033 C 0.48184 0.91579 0.40938 0.0
C2034 C 0.42062 0.91884 0.4768 0.0
C2035 C 0.44901 0.86006 0.37959 0.0
H2036 H 0.36863 0.78668 0.40826 0.0
H2037 H 0.33904 0.84637 0.32989 0.0
H2038 H 0.44009 0.82731 0.45549 0.0
H2039 H 0.42973 0.85208 0.4846 0.0
H2040 H 0.40712 0.8104 0.47318 0.0
H2041 H 0.35981 0.90121 0.3455 0.0
H2042 H 0.38871 0.92003 0.39225 0.0
H2043 H 0.40248 0.90777 0.35587 0.0
H2044 H 0.4717 0.96611 0.47059 0.0
H2045 H 0.49731 0.91551 0.39245 0.0
H2046 H 0.41742 0.8987 0.4928 0.0
H2047 H 0.39598 0.91712 0.45802 0.0
H2048 H 0.43132 0.94089 0.49764 0.0
H2049 H 0.44486 0.83898 0.39382 0.0
H2050 H 0.46942 0.86223 0.36858 0.0
H2051 H 0.42662 0.8563 0.35471 0.0
C2052 C 0.22986 0.37289 0.43616 0.0
C2053 C 0.26401 0.38645 0.44965 0.0
C2054 C 0.21104 0.38617 0.44991 0.0
C2055 C 0.22691 0.41375 0.4773 0.0
C2056 C 0.2613 0.42762 0.49084 0.0
C2057 C 0.2795 0.41364 0.47698 0.0
C2058 C 0.17432 0.37102 0.43483 0.0
C2059 C 0.27883 0.4574 0.51966 0.0
C2060 C 0.18383 0.46933 0.48727 0.0
C2061 C 0.17753 0.46304 0.52129 0.0
C2062 C 0.19871 0.45244 0.47166 0.0
C2063 C 0.20772 0.42904 0.49097 0.0
C2064 C 0.20063 0.42202 0.52485 0.0
C2065 C 0.18514 0.43904 0.53957 0.0
C2066 C 0.2056 0.46028 0.4352 0.0
C2067 C 0.21015 0.39717 0.54588 0.0
H2068 H 0.21785 0.35217 0.41444 0.0
H2069 H 0.30589 0.42392 0.48764 0.0
H2070 H 0.16503 0.36548 0.45898 0.0
H2071 H 0.16324 0.38749 0.42019 0.0
H2072 H 0.16591 0.34912 0.4143 0.0
H2073 H 0.30577 0.46493 0.52749 0.0
H2074 H 0.2709 0.47656 0.50777 0.0
H2075 H 0.27248 0.45403 0.54613 0.0
H2076 H 0.177 0.48754 0.47285 0.0
H2077 H 0.17963 0.43413 0.56559 0.0
H2078 H 0.19569 0.43882 0.41361 0.0
H2079 H 0.23234 0.46995 0.44129 0.0
H2080 H 0.19491 0.47768 0.42249 0.0
H2081 H 0.19863 0.37428 0.52663 0.0
H2082 H 0.20274 0.39475 0.57164 0.0
H2083 H 0.23696 0.40307 0.55492 0.0
C2084 C 0.36972 0.1355 0.63355 0.0
C2085 C 0.38721 0.16588 0.6545 0.0
C2086 C 0.38524 0.11818 0.61864 0.0
C2087 C 0.41904 0.13159 0.62414 0.0
C2088 C 0.43679 0.16206 0.64543 0.0
C2089 C 0.42089 0.17849 0.66067 0.0
C2090 C 0.36545 0.08548 0.59703 0.0
C2091 C 0.47273 0.17754 0.65194 0.0
C2092 C 0.47261 0.08366 0.61827 0.0
C2093 C 0.47352 0.08479 0.58078 0.0
C2094 C 0.45341 0.097 0.63176 0.0
C2095 C 0.43625 0.11396 0.60827 0.0
C2096 C 0.43766 0.1159 0.57068 0.0
C2097 C 0.45566 0.10082 0.55718 0.0
C2098 C 0.45156 0.09291 0.6713 0.0
C2099 C 0.42088 0.13467 0.54504 0.0
H2100 H 0.34374 0.12537 0.62817 0.0
H2101 H 0.43512 0.20144 0.67764 0.0
H2102 H 0.3656 0.08426 0.56715 0.0
H2103 H 0.37655 0.06864 0.6106 0.0
H2104 H 0.33972 0.07795 0.59622 0.0
H2105 H 0.48267 0.20201 0.66712 0.0
H2106 H 0.48658 0.16403 0.66916 0.0
H2107 H 0.47705 0.17773 0.62406 0.0
H2108 H 0.48639 0.07162 0.63696 0.0
H2109 H 0.45649 0.10234 0.52839 0.0
H2110 H 0.42574 0.08459 0.67009 0.0
H2111 H 0.46415 0.11575 0.69061 0.0
H2112 H 0.46293 0.07596 0.68405 0.0
H2113 H 0.39446 0.12598 0.54094 0.0
H2114 H 0.42389 0.13361 0.51645 0.0
H2115 H 0.43101 0.15954 0.55885 0.0
C2116 C 0.86501 0.35267 0.73623 0.0
C2117 C 0.84792 0.32029 0.72577 0.0
C2118 C 0.88645 0.36897 0.7177 0.0
C2119 C 0.89046 0.35278 0.68707 0.0
C2120 C 0.87291 0.32009 0.67602 0.0
C2121 C 0.85226 0.30417 0.69583 0.0
C2122 C 0.905 0.4036 0.73112 0.0
C2123 C 0.87584 0.30196 0.64309 0.0
C2124 C 0.92467 0.40229 0.61842 0.0
C2125 C 0.958 0.4067 0.63344 0.0
C2126 C 0.90238 0.38462 0.63526 0.0
C2127 C 0.91342 0.37011 0.66723 0.0
C2128 C 0.9469 0.37356 0.68151 0.0
C2129 C 0.96879 0.39219 0.66491 0.0
C2130 C 0.8672 0.38238 0.61963 0.0
C2131 C 0.95977 0.35813 0.71497 0.0
H2132 H 0.86202 0.36529 0.75952 0.0
H2133 H 0.83895 0.27922 0.68734 0.0
H2134 H 0.93162 0.40826 0.74045 0.0
H2135 H 0.89916 0.41681 0.70713 0.0
H2136 H 0.89926 0.41277 0.75536 0.0
H2137 H 0.86024 0.27683 0.63755 0.0
H2138 H 0.86876 0.31224 0.61661 0.0
H2139 H 0.90156 0.30369 0.64924 0.0
H2140 H 0.91622 0.41379 0.59445 0.0
H2141 H 0.9945 0.39544 0.67662 0.0
H2142 H 0.86094 0.3936 0.64193 0.0
H2143 H 0.85089 0.35748 0.61216 0.0
H2144 H 0.86216 0.39394 0.59381 0.0
H2145 H 0.95695 0.36808 0.74101 0.0
H2146 H 0.98591 0.36136 0.72111 0.0
H2147 H 0.94547 0.33267 0.70912 0.0
C2148 C 0.22824 0.68304 0.7039 0.0
C2149 C 0.23328 0.71084 0.6885 0.0
C2150 C 0.19801 0.65919 0.69091 0.0
C2151 C 0.17283 0.66252 0.65989 0.0
C2152 C 0.17748 0.69075 0.64432 0.0
C2153 C 0.20794 0.7149 0.65905 0.0
C2154 C 0.19373 0.62969 0.70901 0.0
C2155 C 0.15093 0.69502 0.61143 0.0
C2156 C 0.13087 0.5826 0.60449 0.0
C2157 C 0.10588 0.57087 0.61965 0.0
C2158 C 0.15052 0.61405 0.61371 0.0
C2159 C 0.14532 0.63394 0.63944 0.0
C2160 C 0.11852 0.62285 0.65258 0.0
C2161 C 0.09911 0.59106 0.64276 0.0
C2162 C 0.17855 0.62542 0.5985 0.0
C2163 C 0.11171 0.64379 0.67908 0.0
H2164 H 0.24803 0.68007 0.72665 0.0
H2165 H 0.21185 0.73682 0.64773 0.0
H2166 H 0.17102 0.62296 0.71629 0.0
H2167 H 0.19166 0.61012 0.68842 0.0
H2168 H 0.2145 0.63251 0.73559 0.0
H2169 H 0.15441 0.72021 0.61073 0.0
H2170 H 0.15156 0.68502 0.58398 0.0
H2171 H 0.12641 0.68269 0.61316 0.0
H2172 H 0.13552 0.56699 0.58604 0.0
H2173 H 0.07891 0.58204 0.65331 0.0
H2174 H 0.20212 0.63223 0.62244 0.0
H2175 H 0.17775 0.6464 0.58478 0.0
H2176 H 0.1782 0.60732 0.57729 0.0
H2177 H 0.12567 0.64337 0.70921 0.0
H2178 H 0.08539 0.63549 0.6758 0.0
H2179 H 0.11926 0.66839 0.67376 0.0
loop_
_geom_bond_atom_site_label_1
_geom_bond_atom_site_label_2
_geom_bond_distance
_geom_bond_site_symmetry_2
_ccdc_geom_bond_type
C0 Eu1 2.835 . S
C0 C2 1.500 . S
C0 O20 1.257 . S
C0 O21 1.260 . S
Eu1 C0 2.835 . S
Eu1 O20 2.473 . S
Eu1 O21 2.480 . S
Eu1 O22 2.430 . S
Eu1 O23 2.670 . S
Eu1 O24 2.394 . S
Eu1 O29 2.355 . S
Eu1 O31 2.374 . S
C2 C0 1.500 . S
C2 C3 1.377 . S
C2 C7 1.377 . S
C3 C2 1.377 . S
C3 C4 1.395 . S
C3 H32 0.931 . S
C4 C3 1.395 . S
C4 C5 1.383 . S
C4 H33 0.931 . S
C5 C4 1.383 . S
C5 C6 1.394 . S
C6 C5 1.394 . S
C6 C7 1.378 . S
C6 H34 0.931 . S
C7 C2 1.377 . S
C7 C6 1.378 . S
C7 H35 0.931 . S
C8 O22 1.259 . S
C8 O23 1.270 . S
C9 O24 1.251 . S
C9 O25 1.251 . S
C10 Eu11 2.835 . S
C10 C12 1.500 . S
C10 O26 1.257 . S
C10 O27 1.260 . S
Eu11 C10 2.835 . S
Eu11 O23 2.355 . S
Eu11 O25 2.374 . S
Eu11 O26 2.473 . S
Eu11 O27 2.480 . S
Eu11 O28 2.430 . S
Eu11 O29 2.670 . S
Eu11 O30 2.394 . S
C12 C10 1.500 . S
C12 C13 1.377 . S
C12 C17 1.377 . S
C13 C12 1.377 . S
C13 C14 1.395 . S
C13 H36 0.931 . S
C14 C13 1.395 . S
C14 C15 1.383 . S
C14 H37 0.931 . S
C15 C14 1.383 . S
C15 C16 1.394 . S
C16 C15 1.394 . S
C16 C17 1.378 . S
C16 H38 0.931 . S
C17 C12 1.377 . S
C17 C16 1.378 . S
C17 H39 0.931 . S
C18 O28 1.259 . S
C18 O29 1.270 . S
C19 O30 1.251 . S
C19 O31 1.251 . S
O20 C0 1.257 . S
O20 Eu1 2.473 . S
O21 C0 1.260 . S
O21 Eu1 2.480 . S
O22 Eu1 2.430 . S
O22 C8 1.259 . S
O23 Eu1 2.670 . S
O23 C8 1.270 . S
O23 Eu11 2.355 . S
O24 Eu1 2.394 . S
O24 C9 1.251 . S
O25 C9 1.251 . S
O25 Eu11 2.374 . S
O26 C10 1.257 . S
O26 Eu11 2.473 . S
O27 C10 1.260 . S
O27 Eu11 2.480 . S
O28 Eu11 2.430 . S
O28 C18 1.259 . S
O29 Eu1 2.355 . S
O29 Eu11 2.670 . S
O29 C18 1.270 . S
O30 Eu11 2.394 . S
O30 C19 1.251 . S
O31 Eu1 2.374 . S
O31 C19 1.251 . S
H32 C3 0.931 . S
H33 C4 0.931 . S
H34 C6 0.931 . S
H35 C7 0.931 . S
H36 C13 0.931 . S
H37 C14 0.931 . S
H38 C16 0.931 . S
H39 C17 0.931 . S
C40 Eu41 2.835 . S
C40 C42 1.500 . S
C40 O60 1.257 . S
C40 O61 1.260 . S
Eu41 C40 2.835 . S
Eu41 O60 2.473 . S
Eu41 O61 2.480 . S
Eu41 O62 2.430 . S
Eu41 O63 2.670 . S
Eu41 O64 2.394 . S
Eu41 O69 2.355 . S
Eu41 O71 2.374 . S
C42 C40 1.500 . S
C42 C43 1.377 . S
C42 C47 1.377 . S
C43 C42 1.377 . S
C43 C44 1.395 . S
C43 H72 0.931 . S
C44 C43 1.395 . S
C44 C45 1.383 . S
C44 H73 0.931 . S
C45 C44 1.383 . S
C45 C46 1.394 . S
C46 C45 1.394 . S
C46 C47 1.378 . S
C46 H74 0.931 . S
C47 C42 1.377 . S
C47 C46 1.378 . S
C47 H75 0.931 . S
C48 O62 1.259 . S
C48 O63 1.270 . S
C49 O64 1.251 . S
C49 O65 1.251 . S
C50 Eu51 2.835 . S
C50 C52 1.500 . S
C50 O66 1.257 . S
C50 O67 1.260 . S
Eu51 C50 2.835 . S
Eu51 O63 2.355 . S
Eu51 O65 2.374 . S
Eu51 O66 2.473 . S
Eu51 O67 2.480 . S
Eu51 O68 2.430 . S
Eu51 O69 2.670 . S
Eu51 O70 2.394 . S
C52 C50 1.500 . S
C52 C53 1.377 . S
C52 C57 1.377 . S
C53 C52 1.377 . S
C53 C54 1.395 . S
C53 H76 0.931 . S
C54 C53 1.395 . S
C54 C55 1.383 . S
C54 H77 0.931 . S
C55 C54 1.383 . S
C55 C56 1.394 . S
C56 C55 1.394 . S
C56 C57 1.378 . S
C56 H78 0.931 . S
C57 C52 1.377 . S
C57 C56 1.378 . S
C57 H79 0.931 . S
C58 O68 1.259 . S
C58 O69 1.270 . S
C59 O70 1.251 . S
C59 O71 1.251 . S
O60 C40 1.257 . S
O60 Eu41 2.473 . S
O61 C40 1.260 . S
O61 Eu41 2.480 . S
O62 Eu41 2.430 . S
O62 C48 1.259 . S
O63 Eu41 2.670 . S
O63 C48 1.270 . S
O63 Eu51 2.355 . S
O64 Eu41 2.394 . S
O64 C49 1.251 . S
O65 C49 1.251 . S
O65 Eu51 2.374 . S
O66 C50 1.257 . S
O66 Eu51 2.473 . S
O67 C50 1.260 . S
O67 Eu51 2.480 . S
O68 Eu51 2.430 . S
O68 C58 1.259 . S
O69 Eu41 2.355 . S
O69 Eu51 2.670 . S
O69 C58 1.270 . S
O70 Eu51 2.394 . S
O70 C59 1.251 . S
O71 Eu41 2.374 . S
O71 C59 1.251 . S
H72 C43 0.931 . S
H73 C44 0.931 . S
H74 C46 0.931 . S
H75 C47 0.931 . S
H76 C53 0.931 . S
H77 C54 0.931 . S
H78 C56 0.931 . S
H79 C57 0.931 . S
C80 Eu81 2.835 . S
C80 C82 1.500 . S
C80 O100 1.257 . S
C80 O101 1.260 . S
Eu81 C80 2.835 . S
Eu81 O100 2.473 . S
Eu81 O101 2.480 . S
Eu81 O102 2.430 . S
Eu81 O103 2.670 . S
Eu81 O104 2.394 . S
Eu81 O109 2.355 . S
Eu81 O111 2.374 . S
C82 C80 1.500 . S
C82 C83 1.377 . S
C82 C87 1.377 . S
C83 C82 1.377 . S
C83 C84 1.395 . S
C83 H112 0.931 . S
C84 C83 1.395 . S
C84 C85 1.383 . S
C84 H113 0.931 . S
C85 C84 1.383 . S
C85 C86 1.394 . S
C86 C85 1.394 . S
C86 C87 1.378 . S
C86 H114 0.931 . S
C87 C82 1.377 . S
C87 C86 1.378 . S
C87 H115 0.931 . S
C88 O102 1.259 . S
C88 O103 1.270 . S
C89 O104 1.251 . S
C89 O105 1.251 . S
C90 Eu91 2.835 . S
C90 C92 1.500 . S
C90 O106 1.257 . S
C90 O107 1.260 . S
Eu91 C90 2.835 . S
Eu91 O103 2.355 . S
Eu91 O105 2.374 . S
Eu91 O106 2.473 . S
Eu91 O107 2.480 . S
Eu91 O108 2.430 . S
Eu91 O109 2.670 . S
Eu91 O110 2.394 . S
C92 C90 1.500 . S
C92 C93 1.377 . S
C92 C97 1.377 . S
C93 C92 1.377 . S
C93 C94 1.395 . S
C93 H116 0.931 . S
C94 C93 1.395 . S
C94 C95 1.383 . S
C94 H117 0.931 . S
C95 C94 1.383 . S
C95 C96 1.394 . S
C96 C95 1.394 . S
C96 C97 1.378 . S
C96 H118 0.931 . S
C97 C92 1.377 . S
C97 C96 1.378 . S
C97 H119 0.931 . S
C98 O108 1.259 . S
C98 O109 1.270 . S
C99 O110 1.251 . S
C99 O111 1.251 . S
O100 C80 1.257 . S
O100 Eu81 2.473 . S
O101 C80 1.260 . S
O101 Eu81 2.480 . S
O102 Eu81 2.430 . S
O102 C88 1.259 . S
O103 Eu81 2.670 . S
O103 C88 1.270 . S
O103 Eu91 2.355 . S
O104 Eu81 2.394 . S
O104 C89 1.251 . S
O105 C89 1.251 . S
O105 Eu91 2.374 . S
O106 C90 1.257 . S
O106 Eu91 2.473 . S
O107 C90 1.260 . S
O107 Eu91 2.480 . S
O108 Eu91 2.430 . S
O108 C98 1.259 . S
O109 Eu81 2.355 . S
O109 Eu91 2.670 . S
O109 C98 1.270 . S
O110 Eu91 2.394 . S
O110 C99 1.251 . S
O111 Eu81 2.374 . S
O111 C99 1.251 . S
H112 C83 0.931 . S
H113 C84 0.931 . S
H114 C86 0.931 . S
H115 C87 0.931 . S
H116 C93 0.931 . S
H117 C94 0.931 . S
H118 C96 0.931 . S
H119 C97 0.931 . S
C120 Eu121 2.835 . S
C120 C122 1.500 . S
C120 O140 1.257 . S
C120 O141 1.260 . S
Eu121 C120 2.835 . S
Eu121 O140 2.473 . S
Eu121 O141 2.480 . S
Eu121 O142 2.430 . S
Eu121 O143 2.670 . S
Eu121 O144 2.394 . S
Eu121 O149 2.355 . S
Eu121 O151 2.374 . S
C122 C120 1.500 . S
C122 C123 1.377 . S
C122 C127 1.377 . S
C123 C122 1.377 . S
C123 C124 1.395 . S
C123 H152 0.931 . S
C124 C123 1.395 . S
C124 C125 1.383 . S
C124 H153 0.931 . S
C125 C124 1.383 . S
C125 C126 1.394 . S
C126 C125 1.394 . S
C126 C127 1.378 . S
C126 H154 0.931 . S
C127 C122 1.377 . S
C127 C126 1.378 . S
C127 H155 0.931 . S
C128 O142 1.259 . S
C128 O143 1.270 . S
C129 O144 1.251 . S
C129 O145 1.251 . S
C130 Eu131 2.835 . S
C130 C132 1.500 . S
C130 O146 1.257 . S
C130 O147 1.260 . S
Eu131 C130 2.835 . S
Eu131 O143 2.355 . S
Eu131 O145 2.374 . S
Eu131 O146 2.473 . S
Eu131 O147 2.480 . S
Eu131 O148 2.430 . S
Eu131 O149 2.670 . S
Eu131 O150 2.394 . S
C132 C130 1.500 . S
C132 C133 1.377 . S
C132 C137 1.377 . S
C133 C132 1.377 . S
C133 C134 1.395 . S
C133 H156 0.931 . S
C134 C133 1.395 . S
C134 C135 1.383 . S
C134 H157 0.931 . S
C135 C134 1.383 . S
C135 C136 1.394 . S
C136 C135 1.394 . S
C136 C137 1.378 . S
C136 H158 0.931 . S
C137 C132 1.377 . S
C137 C136 1.378 . S
C137 H159 0.931 . S
C138 O148 1.259 . S
C138 O149 1.270 . S
C139 O150 1.251 . S
C139 O151 1.251 . S
O140 C120 1.257 . S
O140 Eu121 2.473 . S
O141 C120 1.260 . S
O141 Eu121 2.480 . S
O142 Eu121 2.430 . S
O142 C128 1.259 . S
O143 Eu121 2.670 . S
O143 C128 1.270 . S
O143 Eu131 2.355 . S
O144 Eu121 2.394 . S
O144 C129 1.251 . S
O145 C129 1.251 . S
O145 Eu131 2.374 . S
O146 C130 1.257 . S
O146 Eu131 2.473 . S
O147 C130 1.260 . S
O147 Eu131 2.480 . S
O148 Eu131 2.430 . S
O148 C138 1.259 . S
O149 Eu121 2.355 . S
O149 Eu131 2.670 . S
O149 C138 1.270 . S
O150 Eu131 2.394 . S
O150 C139 1.251 . S
O151 Eu121 2.374 . S
O151 C139 1.251 . S
H152 C123 0.931 . S
H153 C124 0.931 . S
H154 C126 0.931 . S
H155 C127 0.931 . S
H156 C133 0.931 . S
H157 C134 0.931 . S
H158 C136 0.931 . S
H159 C137 0.931 . S
C160 Eu161 2.835 . S
C160 C162 1.500 . S
C160 O180 1.257 . S
C160 O181 1.260 . S
Eu161 C160 2.835 . S
Eu161 O180 2.473 . S
Eu161 O181 2.480 . S
Eu161 O182 2.430 . S
Eu161 O183 2.670 . S
Eu161 O184 2.394 . S
Eu161 O189 2.355 . S
Eu161 O191 2.374 . S
C162 C160 1.500 . S
C162 C163 1.377 . S
C162 C167 1.377 . S
C163 C162 1.377 . S
C163 C164 1.395 . S
C163 H192 0.931 . S
C164 C163 1.395 . S
C164 C165 1.383 . S
C164 H193 0.931 . S
C165 C164 1.383 . S
C165 C166 1.394 . S
C166 C165 1.394 . S
C166 C167 1.378 . S
C166 H194 0.931 . S
C167 C162 1.377 . S
C167 C166 1.378 . S
C167 H195 0.931 . S
C168 O182 1.259 . S
C168 O183 1.270 . S
C169 O184 1.251 . S
C169 O185 1.251 . S
C170 Eu171 2.835 . S
C170 C172 1.500 . S
C170 O186 1.257 . S
C170 O187 1.260 . S
Eu171 C170 2.835 . S
Eu171 O183 2.355 . S
Eu171 O185 2.374 . S
Eu171 O186 2.473 . S
Eu171 O187 2.480 . S
Eu171 O188 2.430 . S
Eu171 O189 2.670 . S
Eu171 O190 2.394 . S
C172 C170 1.500 . S
C172 C173 1.377 . S
C172 C177 1.377 . S
C173 C172 1.377 . S
C173 C174 1.395 . S
C173 H196 0.931 . S
C174 C173 1.395 . S
C174 C175 1.383 . S
C174 H197 0.931 . S
C175 C174 1.383 . S
C175 C176 1.394 . S
C176 C175 1.394 . S
C176 C177 1.378 . S
C176 H198 0.931 . S
C177 C172 1.377 . S
C177 C176 1.378 . S
C177 H199 0.931 . S
C178 O188 1.259 . S
C178 O189 1.270 . S
C179 O190 1.251 . S
C179 O191 1.251 . S
O180 C160 1.257 . S
O180 Eu161 2.473 . S
O181 C160 1.260 . S
O181 Eu161 2.480 . S
O182 Eu161 2.430 . S
O182 C168 1.259 . S
O183 Eu161 2.670 . S
O183 C168 1.270 . S
O183 Eu171 2.355 . S
O184 Eu161 2.394 . S
O184 C169 1.251 . S
O185 C169 1.251 . S
O185 Eu171 2.374 . S
O186 C170 1.257 . S
O186 Eu171 2.473 . S
O187 C170 1.260 . S
O187 Eu171 2.480 . S
O188 Eu171 2.430 . S
O188 C178 1.259 . S
O189 Eu161 2.355 . S
O189 Eu171 2.670 . S
O189 C178 1.270 . S
O190 Eu171 2.394 . S
O190 C179 1.251 . S
O191 Eu161 2.374 . S
O191 C179 1.251 . S
H192 C163 0.931 . S
H193 C164 0.931 . S
H194 C166 0.931 . S
H195 C167 0.931 . S
H196 C173 0.931 . S
H197 C174 0.931 . S
H198 C176 0.931 . S
H199 C177 0.931 . S
C200 Eu201 2.835 . S
C200 C202 1.500 . S
C200 O220 1.257 . S
C200 O221 1.260 . S
Eu201 C200 2.835 . S
Eu201 O220 2.473 . S
Eu201 O221 2.480 . S
Eu201 O222 2.430 . S
Eu201 O223 2.670 . S
Eu201 O224 2.394 . S
Eu201 O229 2.355 . S
Eu201 O231 2.374 . S
C202 C200 1.500 . S
C202 C203 1.377 . S
C202 C207 1.377 . S
C203 C202 1.377 . S
C203 C204 1.395 . S
C203 H232 0.931 . S
C204 C203 1.395 . S
C204 C205 1.383 . S
C204 H233 0.931 . S
C205 C204 1.383 . S
C205 C206 1.394 . S
C206 C205 1.394 . S
C206 C207 1.378 . S
C206 H234 0.931 . S
C207 C202 1.377 . S
C207 C206 1.378 . S
C207 H235 0.931 . S
C208 O222 1.259 . S
C208 O223 1.270 . S
C209 O224 1.251 . S
C209 O225 1.251 . S
C210 Eu211 2.835 . S
C210 C212 1.500 . S
C210 O226 1.257 . S
C210 O227 1.260 . S
Eu211 C210 2.835 . S
Eu211 O223 2.355 . S
Eu211 O225 2.374 . S
Eu211 O226 2.473 . S
Eu211 O227 2.480 . S
Eu211 O228 2.430 . S
Eu211 O229 2.670 . S
Eu211 O230 2.394 . S
C212 C210 1.500 . S
C212 C213 1.377 . S
C212 C217 1.377 . S
C213 C212 1.377 . S
C213 C214 1.395 . S
C213 H236 0.931 . S
C214 C213 1.395 . S
C214 C215 1.383 . S
C214 H237 0.931 . S
C215 C214 1.383 . S
C215 C216 1.394 . S
C216 C215 1.394 . S
C216 C217 1.378 . S
C216 H238 0.931 . S
C217 C212 1.377 . S
C217 C216 1.378 . S
C217 H239 0.931 . S
C218 O228 1.259 . S
C218 O229 1.270 . S
C219 O230 1.251 . S
C219 O231 1.251 . S
O220 C200 1.257 . S
O220 Eu201 2.473 . S
O221 C200 1.260 . S
O221 Eu201 2.480 . S
O222 Eu201 2.430 . S
O222 C208 1.259 . S
O223 Eu201 2.670 . S
O223 C208 1.270 . S
O223 Eu211 2.355 . S
O224 Eu201 2.394 . S
O224 C209 1.251 . S
O225 C209 1.251 . S
O225 Eu211 2.374 . S
O226 C210 1.257 . S
O226 Eu211 2.473 . S
O227 C210 1.260 . S
O227 Eu211 2.480 . S
O228 Eu211 2.430 . S
O228 C218 1.259 . S
O229 Eu201 2.355 . S
O229 Eu211 2.670 . S
O229 C218 1.270 . S
O230 Eu211 2.394 . S
O230 C219 1.251 . S
O231 Eu201 2.374 . S
O231 C219 1.251 . S
H232 C203 0.931 . S
H233 C204 0.931 . S
H234 C206 0.931 . S
H235 C207 0.931 . S
H236 C213 0.931 . S
H237 C214 0.931 . S
H238 C216 0.931 . S
H239 C217 0.931 . S
C240 Eu241 2.835 . S
C240 C242 1.500 . S
C240 O260 1.257 . S
C240 O261 1.260 . S
Eu241 C240 2.835 . S
Eu241 O260 2.473 . S
Eu241 O261 2.480 . S
Eu241 O262 2.430 . S
Eu241 O263 2.670 . S
Eu241 O264 2.394 . S
Eu241 O269 2.355 . S
Eu241 O271 2.374 . S
C242 C240 1.500 . S
C242 C243 1.377 . S
C242 C247 1.377 . S
C243 C242 1.377 . S
C243 C244 1.395 . S
C243 H272 0.931 . S
C244 C243 1.395 . S
C244 C245 1.383 . S
C244 H273 0.931 . S
C245 C244 1.383 . S
C245 C246 1.394 . S
C246 C245 1.394 . S
C246 C247 1.378 . S
C246 H274 0.931 . S
C247 C242 1.377 . S
C247 C246 1.378 . S
C247 H275 0.931 . S
C248 O262 1.259 . S
C248 O263 1.270 . S
C249 O264 1.251 . S
C249 O265 1.251 . S
C250 Eu251 2.835 . S
C250 C252 1.500 . S
C250 O266 1.257 . S
C250 O267 1.260 . S
Eu251 C250 2.835 . S
Eu251 O263 2.355 . S
Eu251 O265 2.374 . S
Eu251 O266 2.473 . S
Eu251 O267 2.480 . S
Eu251 O268 2.430 . S
Eu251 O269 2.670 . S
Eu251 O270 2.394 . S
C252 C250 1.500 . S
C252 C253 1.377 . S
C252 C257 1.377 . S
C253 C252 1.377 . S
C253 C254 1.395 . S
C253 H276 0.931 . S
C254 C253 1.395 . S
C254 C255 1.383 . S
C254 H277 0.931 . S
C255 C254 1.383 . S
C255 C256 1.394 . S
C256 C255 1.394 . S
C256 C257 1.378 . S
C256 H278 0.931 . S
C257 C252 1.377 . S
C257 C256 1.378 . S
C257 H279 0.931 . S
C258 O268 1.259 . S
C258 O269 1.270 . S
C259 O270 1.251 . S
C259 O271 1.251 . S
O260 C240 1.257 . S
O260 Eu241 2.473 . S
O261 C240 1.260 . S
O261 Eu241 2.480 . S
O262 Eu241 2.430 . S
O262 C248 1.259 . S
O263 Eu241 2.670 . S
O263 C248 1.270 . S
O263 Eu251 2.355 . S
O264 Eu241 2.394 . S
O264 C249 1.251 . S
O265 C249 1.251 . S
O265 Eu251 2.374 . S
O266 C250 1.257 . S
O266 Eu251 2.473 . S
O267 C250 1.260 . S
O267 Eu251 2.480 . S
O268 Eu251 2.430 . S
O268 C258 1.259 . S
O269 Eu241 2.355 . S
O269 Eu251 2.670 . S
O269 C258 1.270 . S
O270 Eu251 2.394 . S
O270 C259 1.251 . S
O271 Eu241 2.374 . S
O271 C259 1.251 . S
H272 C243 0.931 . S
H273 C244 0.931 . S
H274 C246 0.931 . S
H275 C247 0.931 . S
H276 C253 0.931 . S
H277 C254 0.931 . S
H278 C256 0.931 . S
H279 C257 0.931 . S
C280 Eu281 2.835 . S
C280 C282 1.500 . S
C280 O300 1.257 . S
C280 O301 1.260 . S
Eu281 C280 2.835 . S
Eu281 O300 2.473 . S
Eu281 O301 2.480 . S
Eu281 O302 2.430 . S
Eu281 O303 2.670 . S
Eu281 O304 2.394 . S
Eu281 O309 2.355 . S
Eu281 O311 2.374 . S
C282 C280 1.500 . S
C282 C283 1.377 . S
C282 C287 1.377 . S
C283 C282 1.377 . S
C283 C284 1.395 . S
C283 H312 0.931 . S
C284 C283 1.395 . S
C284 C285 1.383 . S
C284 H313 0.931 . S
C285 C284 1.383 . S
C285 C286 1.394 . S
C286 C285 1.394 . S
C286 C287 1.378 . S
C286 H314 0.931 . S
C287 C282 1.377 . S
C287 C286 1.378 . S
C287 H315 0.931 . S
C288 O302 1.259 . S
C288 O303 1.270 . S
C289 O304 1.251 . S
C289 O305 1.251 . S
C290 Eu291 2.835 . S
C290 C292 1.500 . S
C290 O306 1.257 . S
C290 O307 1.260 . S
Eu291 C290 2.835 . S
Eu291 O303 2.355 . S
Eu291 O305 2.374 . S
Eu291 O306 2.473 . S
Eu291 O307 2.480 . S
Eu291 O308 2.430 . S
Eu291 O309 2.670 . S
Eu291 O310 2.394 . S
C292 C290 1.500 . S
C292 C293 1.377 . S
C292 C297 1.377 . S
C293 C292 1.377 . S
C293 C294 1.395 . S
C293 H316 0.931 . S
C294 C293 1.395 . S
C294 C295 1.383 . S
C294 H317 0.931 . S
C295 C294 1.383 . S
C295 C296 1.394 . S
C296 C295 1.394 . S
C296 C297 1.378 . S
C296 H318 0.931 . S
C297 C292 1.377 . S
C297 C296 1.378 . S
C297 H319 0.931 . S
C298 O308 1.259 . S
C298 O309 1.270 . S
C299 O310 1.251 . S
C299 O311 1.251 . S
O300 C280 1.257 . S
O300 Eu281 2.473 . S
O301 C280 1.260 . S
O301 Eu281 2.480 . S
O302 Eu281 2.430 . S
O302 C288 1.259 . S
O303 Eu281 2.670 . S
O303 C288 1.270 . S
O303 Eu291 2.355 . S
O304 Eu281 2.394 . S
O304 C289 1.251 . S
O305 C289 1.251 . S
O305 Eu291 2.374 . S
O306 C290 1.257 . S
O306 Eu291 2.473 . S
O307 C290 1.260 . S
O307 Eu291 2.480 . S
O308 Eu291 2.430 . S
O308 C298 1.259 . S
O309 Eu281 2.355 . S
O309 Eu291 2.670 . S
O309 C298 1.270 . S
O310 Eu291 2.394 . S
O310 C299 1.251 . S
O311 Eu281 2.374 . S
O311 C299 1.251 . S
H312 C283 0.931 . S
H313 C284 0.931 . S
H314 C286 0.931 . S
H315 C287 0.931 . S
H316 C293 0.931 . S
H317 C294 0.931 . S
H318 C296 0.931 . S
H319 C297 0.931 . S
Cd320 N323 2.334 1_545 S
Cd320 N349 2.304 1_455 S
Cd320 O356 2.268 1_445 S
Cd320 O359 2.273 . S
Cd320 O360 2.417 1_445 S
Cd320 O361 2.330 1_445 S
Cd321 N336 2.281 1_455 S
Cd321 N340 2.334 . S
Cd321 O357 2.273 1_445 S
Cd321 O358 2.268 . S
Cd321 O362 2.417 . S
Cd321 O363 2.330 . S
C322 N323 1.332 . S
C322 C326 1.381 . S
C322 H328 0.951 . S
N323 Cd320 2.334 1_565 S
N323 C322 1.332 . S
N323 C327 1.328 . S
C324 C325 1.396 . S
C324 C327 1.378 . S
C324 H366 0.931 . S
C325 C324 1.396 . S
C325 C326 1.382 . S
C326 C322 1.381 . S
C326 C325 1.382 . S
C326 H367 0.930 . S
C327 N323 1.328 . S
C327 C324 1.378 . S
C327 H329 0.930 . S
H328 C322 0.951 . S
H329 C327 0.930 . S
C330 O356 1.238 . S
C330 O357 1.253 . S
C331 C332 1.379 . S
C331 N336 1.354 . S
C331 H337 0.929 . S
C332 C331 1.379 . S
C332 C333 1.380 . S
C332 H368 0.929 . S
C333 C332 1.380 . S
C333 C334 1.399 . S
C334 C333 1.399 . S
C334 C335 1.376 1_655 S
C334 H369 0.931 . S
C335 C334 1.376 1_455 S
C335 N336 1.346 1_455 S
C335 H338 0.930 . S
N336 Cd321 2.281 1_655 S
N336 C331 1.354 . S
N336 C335 1.346 1_655 S
H337 C331 0.929 . S
H338 C335 0.930 . S
C339 N340 1.332 1_565 S
C339 C343 1.381 . S
C339 H345 0.931 . S
N340 Cd321 2.334 . S
N340 C339 1.332 1_545 S
N340 C344 1.328 . S
C341 C342 1.396 . S
C341 C344 1.378 1_565 S
C341 H370 0.932 1_565 S
C342 C341 1.396 . S
C342 C343 1.382 . S
C343 C339 1.381 . S
C343 C342 1.382 . S
C343 H371 0.930 . S
C344 N340 1.328 . S
C344 C341 1.378 1_545 S
C344 H346 0.930 . S
H345 C339 0.931 . S
H346 C344 0.930 . S
C347 O358 1.238 . S
C347 O359 1.253 . S
C348 O360 1.239 . S
C348 O361 1.230 . S
N349 Cd320 2.304 1_655 S
N349 C350 1.337 . S
N349 C354 1.338 . S
C350 N349 1.337 . S
C350 C351 1.379 . S
C350 H364 0.910 1_655 S
C351 C350 1.379 . S
C351 C352 1.380 . S
C351 H372 0.929 . S
C352 C351 1.380 . S
C352 C353 1.399 . S
C353 C352 1.399 . S
C353 C354 1.376 . S
C353 H373 0.931 . S
C354 N349 1.338 . S
C354 C353 1.376 . S
C354 H365 0.930 . S
C355 O362 1.239 . S
C355 O363 1.230 . S
O356 Cd320 2.268 1_665 S
O356 C330 1.238 . S
O357 Cd321 2.273 1_665 S
O357 C330 1.253 . S
O358 Cd321 2.268 . S
O358 C347 1.238 . S
O359 Cd320 2.273 . S
O359 C347 1.253 . S
O360 Cd320 2.417 1_665 S
O360 C348 1.239 . S
O361 Cd320 2.330 1_665 S
O361 C348 1.230 . S
O362 Cd321 2.417 . S
O362 C355 1.239 . S
O363 Cd321 2.330 . S
O363 C355 1.230 . S
H364 C350 0.910 1_455 S
H365 C354 0.930 . S
H366 C324 0.931 . S
H367 C326 0.930 . S
H368 C332 0.929 . S
H369 C334 0.931 . S
H370 C341 0.932 1_545 S
H371 C343 0.930 . S
H372 C351 0.929 . S
H373 C353 0.931 . S
Cd374 N377 2.334 1_545 S
Cd374 N403 2.304 . S
Cd374 O410 2.268 1_544 S
Cd374 O413 2.273 . S
Cd374 O414 2.417 1_545 S
Cd374 O415 2.330 . S
Cd375 N390 2.304 . S
Cd375 N394 2.334 . S
Cd375 O411 2.273 . S
Cd375 O412 2.268 1_556 S
Cd375 O416 2.417 . S
Cd375 O417 2.330 . S
C376 N377 1.332 . S
C376 C380 1.381 . S
C376 H382 0.931 1_565 S
N377 Cd374 2.334 1_565 S
N377 C376 1.332 . S
N377 C381 1.328 . S
C378 C379 1.396 . S
C378 C381 1.378 . S
C378 H420 0.915 1_554 S
C379 C378 1.396 . S
C379 C380 1.382 . S
C380 C376 1.381 . S
C380 C379 1.382 . S
C380 H421 0.930 . S
C381 N377 1.328 . S
C381 C378 1.378 . S
C381 H383 0.930 1_554 S
H382 C376 0.931 1_545 S
H383 C381 0.930 1_556 S
C384 O410 1.238 . S
C384 O411 1.253 1_565 S
C385 C386 1.379 . S
C385 N390 1.337 . S
C385 H391 0.929 . S
C386 C385 1.379 . S
C386 C387 1.380 . S
C386 H422 0.929 . S
C387 C386 1.380 . S
C387 C388 1.399 . S
C388 C387 1.399 . S
C388 C389 1.376 . S
C388 H423 0.931 1_556 S
C389 C388 1.376 . S
C389 N390 1.338 . S
C389 H392 0.930 1_556 S
N390 Cd375 2.304 . S
N390 C385 1.337 . S
N390 C389 1.338 . S
H391 C385 0.929 . S
H392 C389 0.930 1_554 S
C393 N394 1.332 1_565 S
C393 C397 1.381 . S
C393 H399 0.931 . S
N394 Cd375 2.334 . S
N394 C393 1.332 1_545 S
N394 C398 1.328 . S
C395 C396 1.414 1_545 S
C395 C398 1.376 . S
C395 H424 0.916 1_556 S
C396 C395 1.414 1_565 S
C396 C397 1.382 . S
C397 C393 1.381 . S
C397 C396 1.382 . S
C397 H425 0.930 . S
C398 N394 1.328 . S
C398 C395 1.376 . S
C398 H400 0.930 1_556 S
H399 C393 0.931 . S
H400 C398 0.930 1_554 S
C401 O412 1.238 . S
C401 O413 1.253 . S
C402 O414 1.239 . S
C402 O415 1.230 1_565 S
N403 Cd374 2.304 . S
N403 C404 1.337 . S
N403 C408 1.338 . S
C404 N403 1.337 . S
C404 C405 1.379 . S
C404 H418 0.929 . S
C405 C404 1.379 . S
C405 C406 1.380 . S
C405 H426 0.929 . S
C406 C405 1.380 . S
C406 C407 1.385 1_554 S
C407 C406 1.385 1_556 S
C407 C408 1.378 1_556 S
C407 H427 0.943 . S
C408 N403 1.338 . S
C408 C407 1.378 1_554 S
C408 H419 0.930 1_554 S
C409 O416 1.239 . S
C409 O417 1.230 . S
O410 Cd374 2.268 1_566 S
O410 C384 1.238 . S
O411 Cd375 2.273 . S
O411 C384 1.253 1_545 S
O412 Cd375 2.268 1_554 S
O412 C401 1.238 . S
O413 Cd374 2.273 . S
O413 C401 1.253 . S
O414 Cd374 2.417 1_565 S
O414 C402 1.239 . S
O415 Cd374 2.330 . S
O415 C402 1.230 1_545 S
O416 Cd375 2.417 . S
O416 C409 1.239 . S
O417 Cd375 2.330 . S
O417 C409 1.230 . S
H418 C404 0.929 . S
H419 C408 0.930 1_556 S
H420 C378 0.915 1_556 S
H421 C380 0.930 . S
H422 C386 0.929 . S
H423 C388 0.931 1_554 S
H424 C395 0.916 1_554 S
H425 C397 0.930 . S
H426 C405 0.929 . S
H427 C407 0.943 . S
Cd428 N431 2.334 1_655 S
Cd428 N457 2.304 . S
Cd428 O464 2.268 . S
Cd428 O467 2.273 1_655 S
Cd428 O468 2.417 . S
Cd428 O469 2.330 . S
Cd429 N444 2.304 1_455 S
Cd429 N448 2.334 . S
Cd429 O465 2.273 1_454 S
Cd429 O466 2.268 . S
Cd429 O470 2.417 . S
Cd429 O471 2.330 1_554 S
C430 N431 1.332 . S
C430 C434 1.381 . S
C430 H436 0.931 . S
N431 Cd428 2.334 1_455 S
N431 C430 1.332 . S
N431 C435 1.328 . S
C432 C433 1.396 . S
C432 C435 1.378 . S
C432 H474 0.931 . S
C433 C432 1.396 . S
C433 C434 1.382 . S
C434 C430 1.381 . S
C434 C433 1.382 . S
C434 H475 0.930 . S
C435 N431 1.328 . S
C435 C432 1.378 . S
C435 H437 0.910 1_455 S
H436 C430 0.931 . S
H437 C435 0.910 1_655 S
C438 O464 1.238 1_556 S
C438 O465 1.253 . S
C439 C440 1.379 . S
C439 N444 1.337 1_556 S
C439 H445 0.929 . S
C440 C439 1.379 . S
C440 C441 1.380 1_556 S
C440 H476 0.929 . S
C441 C440 1.380 1_554 S
C441 C442 1.399 . S
C442 C441 1.399 . S
C442 C443 1.403 . S
C442 H477 0.931 . S
C443 C442 1.403 . S
C443 N444 1.330 . S
C443 H446 0.911 1_655 S
N444 Cd429 2.304 1_655 S
N444 C439 1.337 1_554 S
N444 C443 1.330 . S
H445 C439 0.929 . S
H446 C443 0.911 1_455 S
C447 N448 1.332 1_556 S
C447 C451 1.381 . S
C447 H453 0.931 . S
N448 Cd429 2.334 . S
N448 C447 1.332 1_554 S
N448 C452 1.328 . S
C449 C450 1.396 . S
C449 C452 1.378 . S
C449 H478 0.931 . S
C450 C449 1.396 . S
C450 C451 1.382 1_554 S
C451 C447 1.381 . S
C451 C450 1.382 1_556 S
C451 H479 0.930 . S
C452 N448 1.328 . S
C452 C449 1.378 . S
C452 H454 0.930 . S
H453 C447 0.931 . S
H454 C452 0.930 . S
C455 O466 1.238 . S
C455 O467 1.253 . S
C456 O468 1.239 . S
C456 O469 1.230 . S
N457 Cd428 2.304 . S
N457 C458 1.337 . S
N457 C462 1.338 . S
C458 N457 1.337 . S
C458 C459 1.379 . S
C458 H472 0.929 . S
C459 C458 1.379 . S
C459 C460 1.380 . S
C459 H480 0.929 . S
C460 C459 1.380 . S
C460 C461 1.399 . S
C461 C460 1.399 . S
C461 C462 1.376 . S
C461 H481 0.931 . S
C462 N457 1.338 . S
C462 C461 1.376 . S
C462 H473 0.930 . S
C463 O470 1.239 1_556 S
C463 O471 1.230 . S
O464 Cd428 2.268 . S
O464 C438 1.238 1_554 S
O465 Cd429 2.273 1_656 S
O465 C438 1.253 . S
O466 Cd429 2.268 . S
O466 C455 1.238 . S
O467 Cd428 2.273 1_455 S
O467 C455 1.253 . S
O468 Cd428 2.417 . S
O468 C456 1.239 . S
O469 Cd428 2.330 . S
O469 C456 1.230 . S
O470 Cd429 2.417 . S
O470 C463 1.239 1_554 S
O471 Cd429 2.330 1_556 S
O471 C463 1.230 . S
H472 C458 0.929 . S
H473 C462 0.930 . S
H474 C432 0.931 . S
H475 C434 0.930 . S
H476 C440 0.929 . S
H477 C442 0.931 . S
H478 C449 0.931 . S
H479 C451 0.930 . S
H480 C459 0.929 . S
H481 C461 0.931 . S
Cd482 N485 2.334 . S
Cd482 N511 2.304 . S
Cd482 O518 2.268 . S
Cd482 O521 2.273 . S
Cd482 O522 2.417 . S
Cd482 O523 2.330 . S
Cd483 N498 2.304 . S
Cd483 N502 2.334 . S
Cd483 O519 2.273 . S
Cd483 O520 2.268 1_556 S
Cd483 O524 2.417 . S
Cd483 O525 2.330 . S
C484 N485 1.332 . S
C484 C488 1.381 . S
C484 H490 0.931 . S
N485 Cd482 2.334 . S
N485 C484 1.332 . S
N485 C489 1.328 . S
C486 C487 1.396 . S
C486 C489 1.378 . S
C486 H528 0.931 . S
C487 C486 1.396 . S
C487 C488 1.382 . S
C488 C484 1.381 . S
C488 C487 1.382 . S
C488 H529 0.930 . S
C489 N485 1.328 . S
C489 C486 1.378 . S
C489 H491 0.930 . S
H490 C484 0.931 . S
H491 C489 0.930 . S
C492 O518 1.238 1_556 S
C492 O519 1.253 . S
C493 C494 1.379 . S
C493 N498 1.337 . S
C493 H499 0.929 . S
C494 C493 1.379 . S
C494 C495 1.380 . S
C494 H530 0.929 . S
C495 C494 1.380 . S
C495 C496 1.399 1_556 S
C496 C495 1.399 1_554 S
C496 C497 1.376 . S
C496 H531 0.931 . S
C497 C496 1.376 . S
C497 N498 1.338 1_554 S
C497 H500 0.930 . S
N498 Cd483 2.304 . S
N498 C493 1.337 . S
N498 C497 1.338 1_556 S
H499 C493 0.929 . S
H500 C497 0.930 . S
C501 N502 1.332 . S
C501 C505 1.381 . S
C501 H507 0.931 . S
N502 Cd483 2.334 . S
N502 C501 1.332 . S
N502 C506 1.328 1_556 S
C503 C504 1.396 . S
C503 C506 1.378 . S
C503 H532 0.931 . S
C504 C503 1.396 . S
C504 C505 1.382 1_554 S
C505 C501 1.381 . S
C505 C504 1.382 1_556 S
C505 H533 0.930 . S
C506 N502 1.328 1_554 S
C506 C503 1.378 . S
C506 H508 0.930 . S
H507 C501 0.931 . S
H508 C506 0.930 . S
C509 O520 1.238 . S
C509 O521 1.253 . S
C510 O522 1.239 . S
C510 O523 1.230 . S
N511 Cd482 2.304 . S
N511 C512 1.337 . S
N511 C516 1.338 . S
C512 N511 1.337 . S
C512 C513 1.379 . S
C512 H526 0.929 . S
C513 C512 1.379 . S
C513 C514 1.380 . S
C513 H534 0.929 . S
C514 C513 1.380 . S
C514 C515 1.399 . S
C515 C514 1.399 . S
C515 C516 1.376 . S
C515 H535 0.931 . S
C516 N511 1.338 . S
C516 C515 1.376 . S
C516 H527 0.930 . S
C517 O524 1.239 . S
C517 O525 1.230 . S
O518 Cd482 2.268 . S
O518 C492 1.238 1_554 S
O519 Cd483 2.273 . S
O519 C492 1.253 . S
O520 Cd483 2.268 1_554 S
O520 C509 1.238 . S
O521 Cd482 2.273 . S
O521 C509 1.253 . S
O522 Cd482 2.417 . S
O522 C510 1.239 . S
O523 Cd482 2.330 . S
O523 C510 1.230 . S
O524 Cd483 2.417 . S
O524 C517 1.239 . S
O525 Cd483 2.330 . S
O525 C517 1.230 . S
H526 C512 0.929 . S
H527 C516 0.930 . S
H528 C486 0.931 . S
H529 C488 0.930 . S
H530 C494 0.929 . S
H531 C496 0.931 . S
H532 C503 0.931 . S
H533 C505 0.930 . S
H534 C513 0.929 . S
H535 C515 0.931 . S
Cd536 N539 2.334 . S
Cd536 N565 2.304 1_455 S
Cd536 O572 2.268 . S
Cd536 O575 2.273 . S
Cd536 O576 2.417 1_455 S
Cd536 O577 2.330 . S
Cd537 N552 2.304 . S
Cd537 N556 2.334 . S
Cd537 O573 2.273 . S
Cd537 O574 2.268 . S
Cd537 O578 2.417 . S
Cd537 O579 2.330 . S
C538 N539 1.332 . S
C538 C542 1.381 . S
C538 H544 0.931 . S
N539 Cd536 2.334 . S
N539 C538 1.332 . S
N539 C543 1.328 . S
C540 C541 1.396 . S
C540 C543 1.378 . S
C540 H582 0.931 . S
C541 C540 1.396 . S
C541 C542 1.382 . S
C542 C538 1.381 . S
C542 C541 1.382 . S
C542 H583 0.930 . S
C543 N539 1.328 . S
C543 C540 1.378 . S
C543 H545 0.930 . S
H544 C538 0.931 . S
H545 C543 0.930 . S
C546 O572 1.238 1_655 S
C546 O573 1.253 1_655 S
C547 C548 1.379 . S
C547 N552 1.337 1_655 S
C547 H553 0.929 . S
C548 C547 1.379 . S
C548 C549 1.380 . S
C548 H584 0.929 . S
C549 C548 1.380 . S
C549 C550 1.399 1_655 S
C550 C549 1.399 1_455 S
C550 C551 1.376 . S
C550 H585 0.931 . S
C551 C550 1.376 . S
C551 N552 1.338 . S
C551 H554 0.930 . S
N552 Cd537 2.304 . S
N552 C547 1.337 1_455 S
N552 C551 1.338 . S
H553 C547 0.929 . S
H554 C551 0.930 . S
C555 N556 1.332 . S
C555 C559 1.381 . S
C555 H561 0.931 . S
N556 Cd537 2.334 . S
N556 C555 1.332 . S
N556 C560 1.328 . S
C557 C558 1.396 . S
C557 C560 1.378 . S
C557 H586 0.931 . S
C558 C557 1.396 . S
C558 C559 1.382 . S
C559 C555 1.381 . S
C559 C558 1.382 . S
C559 H587 0.930 . S
C560 N556 1.328 . S
C560 C557 1.378 . S
C560 H562 0.930 . S
H561 C555 0.931 . S
H562 C560 0.930 . S
C563 O574 1.238 . S
C563 O575 1.253 . S
C564 O576 1.239 . S
C564 O577 1.230 1_655 S
N565 Cd536 2.304 1_655 S
N565 C566 1.337 1_655 S
N565 C570 1.338 . S
C566 N565 1.337 1_455 S
C566 C567 1.379 1_455 S
C566 H580 0.929 . S
C567 C566 1.379 1_655 S
C567 C568 1.380 . S
C567 H588 0.929 . S
C568 C567 1.380 . S
C568 C569 1.399 . S
C569 C568 1.399 . S
C569 C570 1.376 . S
C569 H589 0.931 . S
C570 N565 1.338 . S
C570 C569 1.376 . S
C570 H581 0.930 . S
C571 O578 1.239 . S
C571 O579 1.230 . S
O572 Cd536 2.268 . S
O572 C546 1.238 1_455 S
O573 Cd537 2.273 . S
O573 C546 1.253 1_455 S
O574 Cd537 2.268 . S
O574 C563 1.238 . S
O575 Cd536 2.273 . S
O575 C563 1.253 . S
O576 Cd536 2.417 1_655 S
O576 C564 1.239 . S
O577 Cd536 2.330 . S
O577 C564 1.230 1_455 S
O578 Cd537 2.417 . S
O578 C571 1.239 . S
O579 Cd537 2.330 . S
O579 C571 1.230 . S
H580 C566 0.929 . S
H581 C570 0.930 . S
H582 C540 0.931 . S
H583 C542 0.930 . S
H584 C548 0.929 . S
H585 C550 0.931 . S
H586 C557 0.931 . S
H587 C559 0.930 . S
H588 C567 0.929 . S
H589 C569 0.931 . S
Cd590 N593 2.334 . S
Cd590 N619 2.304 1_565 S
Cd590 O626 2.268 . S
Cd590 O629 2.273 1_565 S
Cd590 O630 2.417 . S
Cd590 O631 2.330 . S
Cd591 N606 2.304 . S
Cd591 N610 2.334 1_545 S
Cd591 O627 2.273 1_545 S
Cd591 O628 2.268 . S
Cd591 O632 2.417 . S
Cd591 O633 2.330 . S
C592 N593 1.332 . S
C592 C596 1.381 . S
C592 H598 0.931 . S
N593 Cd590 2.334 . S
N593 C592 1.332 . S
N593 C597 1.328 . S
C594 C595 1.396 . S
C594 C597 1.378 . S
C594 H636 0.931 . S
C595 C594 1.396 . S
C595 C596 1.382 . S
C596 C592 1.381 . S
C596 C595 1.382 . S
C596 H637 0.930 . S
C597 N593 1.328 . S
C597 C594 1.378 . S
C597 H599 0.930 . S
H598 C592 0.931 . S
H599 C597 0.930 . S
C600 O626 1.238 . S
C600 O627 1.253 . S
C601 C602 1.379 . S
C601 N606 1.337 . S
C601 H607 0.929 . S
C602 C601 1.379 . S
C602 C603 1.380 . S
C602 H638 0.929 . S
C603 C602 1.380 . S
C603 C604 1.399 . S
C604 C603 1.399 . S
C604 C605 1.376 . S
C604 H639 0.931 . S
C605 C604 1.376 . S
C605 N606 1.338 . S
C605 H608 0.930 . S
N606 Cd591 2.304 . S
N606 C601 1.337 . S
N606 C605 1.338 . S
H607 C601 0.929 . S
H608 C605 0.930 . S
C609 N610 1.332 . S
C609 C613 1.381 . S
C609 H615 0.931 . S
N610 Cd591 2.334 1_565 S
N610 C609 1.332 . S
N610 C614 1.328 . S
C611 C612 1.396 . S
C611 C614 1.378 . S
C611 H640 0.931 . S
C612 C611 1.396 . S
C612 C613 1.382 . S
C613 C609 1.381 . S
C613 C612 1.382 . S
C613 H641 0.930 . S
C614 N610 1.328 . S
C614 C611 1.378 . S
C614 H616 0.930 1_565 S
H615 C609 0.931 . S
H616 C614 0.930 1_545 S
C617 O628 1.238 . S
C617 O629 1.253 . S
C618 O630 1.239 . S
C618 O631 1.230 . S
N619 Cd590 2.304 1_545 S
N619 C620 1.337 . S
N619 C624 1.338 . S
C620 N619 1.337 . S
C620 C621 1.379 . S
C620 H634 0.929 . S
C621 C620 1.379 . S
C621 C622 1.380 . S
C621 H642 0.929 . S
C622 C621 1.380 . S
C622 C623 1.399 . S
C623 C622 1.399 . S
C623 C624 1.376 . S
C623 H643 0.931 . S
C624 N619 1.338 . S
C624 C623 1.376 . S
C624 H635 0.930 1_545 S
C625 O632 1.239 . S
C625 O633 1.230 . S
O626 Cd590 2.268 . S
O626 C600 1.238 . S
O627 Cd591 2.273 1_565 S
O627 C600 1.253 . S
O628 Cd591 2.268 . S
O628 C617 1.238 . S
O629 Cd590 2.273 1_545 S
O629 C617 1.253 . S
O630 Cd590 2.417 . S
O630 C618 1.239 . S
O631 Cd590 2.330 . S
O631 C618 1.230 . S
O632 Cd591 2.417 . S
O632 C625 1.239 . S
O633 Cd591 2.330 . S
O633 C625 1.230 . S
H634 C620 0.929 . S
H635 C624 0.930 1_565 S
H636 C594 0.931 . S
H637 C596 0.930 . S
H638 C602 0.929 . S
H639 C604 0.931 . S
H640 C611 0.931 . S
H641 C613 0.930 . S
H642 C621 0.929 . S
H643 C623 0.931 . S
C644 C645 1.391 . S
C644 C646 1.394 . S
C644 H660 0.931 . S
C645 C644 1.391 . S
C645 C649 1.376 . S
C646 C644 1.394 . S
C646 C647 1.369 . S
C646 C650 1.531 . S
C647 C646 1.369 . S
C647 C648 1.410 . S
C647 C655 1.503 . S
C648 C647 1.410 . S
C648 C649 1.392 . S
C648 C651 1.511 . S
C649 C645 1.376 . S
C649 C648 1.392 . S
C649 H661 0.929 . S
C650 C646 1.531 . S
C650 H662 0.960 . S
C650 H663 0.962 . S
C650 H664 0.960 . S
C651 C648 1.511 . S
C651 H665 0.961 . S
C651 H666 0.961 . S
C651 H667 0.961 . S
C652 C653 1.370 . S
C652 C654 1.363 . S
C652 H668 0.931 . S
C653 C652 1.370 . S
C653 C657 1.408 . S
C654 C652 1.363 . S
C654 C655 1.370 . S
C654 C658 1.524 . S
C655 C647 1.503 . S
C655 C654 1.370 . S
C655 C656 1.403 . S
C656 C655 1.403 . S
C656 C657 1.404 . S
C656 C659 1.539 . S
C657 C653 1.408 . S
C657 C656 1.404 . S
C657 H669 0.930 . S
C658 C654 1.524 . S
C658 H670 0.956 . S
C658 H671 0.961 . S
C658 H672 0.961 . S
C659 C656 1.539 . S
C659 H673 0.958 . S
C659 H674 0.961 . S
C659 H675 0.960 . S
H660 C644 0.931 . S
H661 C649 0.929 . S
H662 C650 0.960 . S
H663 C650 0.962 . S
H664 C650 0.960 . S
H665 C651 0.961 . S
H666 C651 0.961 . S
H667 C651 0.961 . S
H668 C652 0.931 . S
H669 C657 0.930 . S
H670 C658 0.956 . S
H671 C658 0.961 . S
H672 C658 0.961 . S
H673 C659 0.958 . S
H674 C659 0.961 . S
H675 C659 0.960 . S
C676 C677 1.391 . S
C676 C678 1.394 . S
C676 H692 0.931 . S
C677 C676 1.391 . S
C677 C681 1.376 . S
C678 C676 1.394 . S
C678 C679 1.369 . S
C678 C682 1.531 . S
C679 C678 1.369 . S
C679 C680 1.410 . S
C679 C687 1.503 . S
C680 C679 1.410 . S
C680 C681 1.392 . S
C680 C683 1.511 . S
C681 C677 1.376 . S
C681 C680 1.392 . S
C681 H693 0.929 . S
C682 C678 1.531 . S
C682 H694 0.960 . S
C682 H695 0.962 . S
C682 H696 0.960 . S
C683 C680 1.511 . S
C683 H697 0.961 . S
C683 H698 0.961 . S
C683 H699 0.961 . S
C684 C685 1.370 . S
C684 C686 1.363 . S
C684 H700 0.931 . S
C685 C684 1.370 . S
C685 C689 1.408 . S
C686 C684 1.363 . S
C686 C687 1.370 . S
C686 C690 1.524 . S
C687 C679 1.503 . S
C687 C686 1.370 . S
C687 C688 1.403 . S
C688 C687 1.403 . S
C688 C689 1.404 . S
C688 C691 1.539 . S
C689 C685 1.408 . S
C689 C688 1.404 . S
C689 H701 0.930 . S
C690 C686 1.524 . S
C690 H702 0.956 . S
C690 H703 0.961 . S
C690 H704 0.961 . S
C691 C688 1.539 . S
C691 H705 0.958 . S
C691 H706 0.961 . S
C691 H707 0.960 . S
H692 C676 0.931 . S
H693 C681 0.929 . S
H694 C682 0.960 . S
H695 C682 0.962 . S
H696 C682 0.960 . S
H697 C683 0.961 . S
H698 C683 0.961 . S
H699 C683 0.961 . S
H700 C684 0.931 . S
H701 C689 0.930 . S
H702 C690 0.956 . S
H703 C690 0.961 . S
H704 C690 0.961 . S
H705 C691 0.958 . S
H706 C691 0.961 . S
H707 C691 0.960 . S
C708 C709 1.391 . S
C708 C710 1.394 . S
C708 H724 0.931 . S
C709 C708 1.391 . S
C709 C713 1.376 . S
C710 C708 1.394 . S
C710 C711 1.369 . S
C710 C714 1.531 . S
C711 C710 1.369 . S
C711 C712 1.410 . S
C711 C719 1.503 . S
C712 C711 1.410 . S
C712 C713 1.392 . S
C712 C715 1.511 . S
C713 C709 1.376 . S
C713 C712 1.392 . S
C713 H725 0.929 . S
C714 C710 1.531 . S
C714 H726 0.960 . S
C714 H727 0.962 . S
C714 H728 0.960 . S
C715 C712 1.511 . S
C715 H729 0.961 . S
C715 H730 0.961 . S
C715 H731 0.961 . S
C716 C717 1.370 . S
C716 C718 1.363 . S
C716 H732 0.931 . S
C717 C716 1.370 . S
C717 C721 1.408 . S
C718 C716 1.363 . S
C718 C719 1.370 . S
C718 C722 1.524 . S
C719 C711 1.503 . S
C719 C718 1.370 . S
C719 C720 1.403 . S
C720 C719 1.403 . S
C720 C721 1.404 . S
C720 C723 1.539 . S
C721 C717 1.408 . S
C721 C720 1.404 . S
C721 H733 0.930 . S
C722 C718 1.524 . S
C722 H734 0.956 . S
C722 H735 0.961 . S
C722 H736 0.961 . S
C723 C720 1.539 . S
C723 H737 0.958 . S
C723 H738 0.961 . S
C723 H739 0.960 . S
H724 C708 0.931 . S
H725 C713 0.929 . S
H726 C714 0.960 . S
H727 C714 0.962 . S
H728 C714 0.960 . S
H729 C715 0.961 . S
H730 C715 0.961 . S
H731 C715 0.961 . S
H732 C716 0.931 . S
H733 C721 0.930 . S
H734 C722 0.956 . S
H735 C722 0.961 . S
H736 C722 0.961 . S
H737 C723 0.958 . S
H738 C723 0.961 . S
H739 C723 0.960 . S
C740 C741 1.391 . S
C740 C742 1.394 . S
C740 H756 0.931 . S
C741 C740 1.391 . S
C741 C745 1.376 . S
C742 C740 1.394 . S
C742 C743 1.369 . S
C742 C746 1.531 . S
C743 C742 1.369 . S
C743 C744 1.410 . S
C743 C751 1.503 . S
C744 C743 1.410 . S
C744 C745 1.392 . S
C744 C747 1.511 . S
C745 C741 1.376 . S
C745 C744 1.392 . S
C745 H757 0.929 . S
C746 C742 1.531 . S
C746 H758 0.960 . S
C746 H759 0.962 . S
C746 H760 0.960 . S
C747 C744 1.511 . S
C747 H761 0.961 . S
C747 H762 0.961 . S
C747 H763 0.961 . S
C748 C749 1.370 . S
C748 C750 1.363 . S
C748 H764 0.931 . S
C749 C748 1.370 . S
C749 C753 1.408 . S
C750 C748 1.363 . S
C750 C751 1.370 . S
C750 C754 1.524 . S
C751 C743 1.503 . S
C751 C750 1.370 . S
C751 C752 1.403 . S
C752 C751 1.403 . S
C752 C753 1.404 . S
C752 C755 1.539 . S
C753 C749 1.408 . S
C753 C752 1.404 . S
C753 H765 0.930 . S
C754 C750 1.524 . S
C754 H766 0.956 . S
C754 H767 0.961 . S
C754 H768 0.961 . S
C755 C752 1.539 . S
C755 H769 0.958 . S
C755 H770 0.961 . S
C755 H771 0.960 . S
H756 C740 0.931 . S
H757 C745 0.929 . S
H758 C746 0.960 . S
H759 C746 0.962 . S
H760 C746 0.960 . S
H761 C747 0.961 . S
H762 C747 0.961 . S
H763 C747 0.961 . S
H764 C748 0.931 . S
H765 C753 0.930 . S
H766 C754 0.956 . S
H767 C754 0.961 . S
H768 C754 0.961 . S
H769 C755 0.958 . S
H770 C755 0.961 . S
H771 C755 0.960 . S
C772 C773 1.391 . S
C772 C774 1.394 . S
C772 H788 0.931 . S
C773 C772 1.391 . S
C773 C777 1.376 . S
C774 C772 1.394 . S
C774 C775 1.369 . S
C774 C778 1.531 . S
C775 C774 1.369 . S
C775 C776 1.410 . S
C775 C783 1.503 . S
C776 C775 1.410 . S
C776 C777 1.392 . S
C776 C779 1.511 . S
C777 C773 1.376 . S
C777 C776 1.392 . S
C777 H789 0.929 . S
C778 C774 1.531 . S
C778 H790 0.960 . S
C778 H791 0.962 . S
C778 H792 0.960 . S
C779 C776 1.511 . S
C779 H793 0.961 . S
C779 H794 0.961 . S
C779 H795 0.961 . S
C780 C781 1.370 . S
C780 C782 1.363 . S
C780 H796 0.931 . S
C781 C780 1.370 . S
C781 C785 1.408 . S
C782 C780 1.363 . S
C782 C783 1.370 . S
C782 C786 1.524 . S
C783 C775 1.503 . S
C783 C782 1.370 . S
C783 C784 1.403 . S
C784 C783 1.403 . S
C784 C785 1.404 . S
C784 C787 1.539 . S
C785 C781 1.408 . S
C785 C784 1.404 . S
C785 H797 0.930 . S
C786 C782 1.524 . S
C786 H798 0.956 . S
C786 H799 0.961 . S
C786 H800 0.961 . S
C787 C784 1.539 . S
C787 H801 0.958 . S
C787 H802 0.961 . S
C787 H803 0.960 . S
H788 C772 0.931 . S
H789 C777 0.929 . S
H790 C778 0.960 . S
H791 C778 0.962 . S
H792 C778 0.960 . S
H793 C779 0.961 . S
H794 C779 0.961 . S
H795 C779 0.961 . S
H796 C780 0.931 . S
H797 C785 0.930 . S
H798 C786 0.956 . S
H799 C786 0.961 . S
H800 C786 0.961 . S
H801 C787 0.958 . S
H802 C787 0.961 . S
H803 C787 0.960 . S
C804 C805 1.391 . S
C804 C806 1.394 . S
C804 H820 0.931 . S
C805 C804 1.391 . S
C805 C809 1.376 . S
C806 C804 1.394 . S
C806 C807 1.369 . S
C806 C810 1.531 . S
C807 C806 1.369 . S
C807 C808 1.410 . S
C807 C815 1.503 . S
C808 C807 1.410 . S
C808 C809 1.392 . S
C808 C811 1.511 . S
C809 C805 1.376 . S
C809 C808 1.392 . S
C809 H821 0.929 . S
C810 C806 1.531 . S
C810 H822 0.960 . S
C810 H823 0.962 . S
C810 H824 0.960 . S
C811 C808 1.511 . S
C811 H825 0.961 . S
C811 H826 0.961 . S
C811 H827 0.961 . S
C812 C813 1.370 . S
C812 C814 1.363 . S
C812 H828 0.931 . S
C813 C812 1.370 . S
C813 C817 1.408 . S
C814 C812 1.363 . S
C814 C815 1.370 . S
C814 C818 1.524 . S
C815 C807 1.503 . S
C815 C814 1.370 . S
C815 C816 1.403 . S
C816 C815 1.403 . S
C816 C817 1.404 . S
C816 C819 1.539 . S
C817 C813 1.408 . S
C817 C816 1.404 . S
C817 H829 0.930 . S
C818 C814 1.524 . S
C818 H830 0.956 . S
C818 H831 0.961 . S
C818 H832 0.961 . S
C819 C816 1.539 . S
C819 H833 0.958 . S
C819 H834 0.961 . S
C819 H835 0.960 . S
H820 C804 0.931 . S
H821 C809 0.929 . S
H822 C810 0.960 . S
H823 C810 0.962 . S
H824 C810 0.960 . S
H825 C811 0.961 . S
H826 C811 0.961 . S
H827 C811 0.961 . S
H828 C812 0.931 . S
H829 C817 0.930 . S
H830 C818 0.956 . S
H831 C818 0.961 . S
H832 C818 0.961 . S
H833 C819 0.958 . S
H834 C819 0.961 . S
H835 C819 0.960 . S
C836 C837 1.391 . S
C836 C838 1.394 . S
C836 H852 0.931 . S
C837 C836 1.391 . S
C837 C841 1.376 . S
C838 C836 1.394 . S
C838 C839 1.369 . S
C838 C842 1.531 . S
C839 C838 1.369 . S
C839 C840 1.410 . S
C839 C847 1.503 . S
C840 C839 1.410 . S
C840 C841 1.392 . S
C840 C843 1.511 . S
C841 C837 1.376 . S
C841 C840 1.392 . S
C841 H853 0.929 . S
C842 C838 1.531 . S
C842 H854 0.960 . S
C842 H855 0.962 . S
C842 H856 0.960 . S
C843 C840 1.511 . S
C843 H857 0.961 . S
C843 H858 0.961 . S
C843 H859 0.961 . S
C844 C845 1.370 . S
C844 C846 1.363 . S
C844 H860 0.931 . S
C845 C844 1.370 . S
C845 C849 1.408 . S
C846 C844 1.363 . S
C846 C847 1.370 . S
C846 C850 1.524 . S
C847 C839 1.503 . S
C847 C846 1.370 . S
C847 C848 1.403 . S
C848 C847 1.403 . S
C848 C849 1.404 . S
C848 C851 1.539 . S
C849 C845 1.408 . S
C849 C848 1.404 . S
C849 H861 0.930 . S
C850 C846 1.524 . S
C850 H862 0.956 . S
C850 H863 0.961 . S
C850 H864 0.961 . S
C851 C848 1.539 . S
C851 H865 0.958 . S
C851 H866 0.961 . S
C851 H867 0.960 . S
H852 C836 0.931 . S
H853 C841 0.929 . S
H854 C842 0.960 . S
H855 C842 0.962 . S
H856 C842 0.960 . S
H857 C843 0.961 . S
H858 C843 0.961 . S
H859 C843 0.961 . S
H860 C844 0.931 . S
H861 C849 0.930 . S
H862 C850 0.956 . S
H863 C850 0.961 . S
H864 C850 0.961 . S
H865 C851 0.958 . S
H866 C851 0.961 . S
H867 C851 0.960 . S
C868 C869 1.391 . S
C868 C870 1.394 . S
C868 H884 0.931 . S
C869 C868 1.391 . S
C869 C873 1.376 . S
C870 C868 1.394 . S
C870 C871 1.369 . S
C870 C874 1.531 . S
C871 C870 1.369 . S
C871 C872 1.410 . S
C871 C879 1.503 . S
C872 C871 1.410 . S
C872 C873 1.392 . S
C872 C875 1.511 . S
C873 C869 1.376 . S
C873 C872 1.392 . S
C873 H885 0.929 . S
C874 C870 1.531 . S
C874 H886 0.960 . S
C874 H887 0.962 . S
C874 H888 0.960 . S
C875 C872 1.511 . S
C875 H889 0.961 . S
C875 H890 0.961 . S
C875 H891 0.961 . S
C876 C877 1.370 . S
C876 C878 1.363 . S
C876 H892 0.931 . S
C877 C876 1.370 . S
C877 C881 1.408 . S
C878 C876 1.363 . S
C878 C879 1.370 . S
C878 C882 1.524 . S
C879 C871 1.503 . S
C879 C878 1.370 . S
C879 C880 1.403 . S
C880 C879 1.403 . S
C880 C881 1.404 . S
C880 C883 1.539 . S
C881 C877 1.408 . S
C881 C880 1.404 . S
C881 H893 0.930 . S
C882 C878 1.524 . S
C882 H894 0.956 . S
C882 H895 0.961 . S
C882 H896 0.961 . S
C883 C880 1.539 . S
C883 H897 0.958 . S
C883 H898 0.961 . S
C883 H899 0.960 . S
H884 C868 0.931 . S
H885 C873 0.929 . S
H886 C874 0.960 . S
H887 C874 0.962 . S
H888 C874 0.960 . S
H889 C875 0.961 . S
H890 C875 0.961 . S
H891 C875 0.961 . S
H892 C876 0.931 . S
H893 C881 0.930 . S
H894 C882 0.956 . S
H895 C882 0.961 . S
H896 C882 0.961 . S
H897 C883 0.958 . S
H898 C883 0.961 . S
H899 C883 0.960 . S
C900 C901 1.391 . S
C900 C902 1.394 . S
C900 H916 0.931 . S
C901 C900 1.391 . S
C901 C905 1.376 . S
C902 C900 1.394 . S
C902 C903 1.369 . S
C902 C906 1.531 . S
C903 C902 1.369 . S
C903 C904 1.410 . S
C903 C911 1.503 . S
C904 C903 1.410 . S
C904 C905 1.392 . S
C904 C907 1.511 . S
C905 C901 1.376 . S
C905 C904 1.392 . S
C905 H917 0.929 . S
C906 C902 1.531 . S
C906 H918 0.960 . S
C906 H919 0.962 . S
C906 H920 0.960 . S
C907 C904 1.511 . S
C907 H921 0.961 . S
C907 H922 0.961 . S
C907 H923 0.961 . S
C908 C909 1.370 . S
C908 C910 1.363 . S
C908 H924 0.931 . S
C909 C908 1.370 . S
C909 C913 1.408 . S
C910 C908 1.363 . S
C910 C911 1.370 . S
C910 C914 1.524 . S
C911 C903 1.503 . S
C911 C910 1.370 . S
C911 C912 1.403 . S
C912 C911 1.403 . S
C912 C913 1.404 . S
C912 C915 1.539 . S
C913 C909 1.408 . S
C913 C912 1.404 . S
C913 H925 0.930 . S
C914 C910 1.524 . S
C914 H926 0.956 . S
C914 H927 0.961 . S
C914 H928 0.961 . S
C915 C912 1.539 . S
C915 H929 0.958 . S
C915 H930 0.961 . S
C915 H931 0.960 . S
H916 C900 0.931 . S
H917 C905 0.929 . S
H918 C906 0.960 . S
H919 C906 0.962 . S
H920 C906 0.960 . S
H921 C907 0.961 . S
H922 C907 0.961 . S
H923 C907 0.961 . S
H924 C908 0.931 . S
H925 C913 0.930 . S
H926 C914 0.956 . S
H927 C914 0.961 . S
H928 C914 0.961 . S
H929 C915 0.958 . S
H930 C915 0.961 . S
H931 C915 0.960 . S
C932 C933 1.391 . S
C932 C934 1.394 . S
C932 H948 0.931 . S
C933 C932 1.391 . S
C933 C937 1.376 . S
C934 C932 1.394 . S
C934 C935 1.369 . S
C934 C938 1.531 . S
C935 C934 1.369 . S
C935 C936 1.410 . S
C935 C943 1.503 . S
C936 C935 1.410 . S
C936 C937 1.392 . S
C936 C939 1.511 . S
C937 C933 1.376 . S
C937 C936 1.392 . S
C937 H949 0.929 . S
C938 C934 1.531 . S
C938 H950 0.960 . S
C938 H951 0.962 . S
C938 H952 0.960 . S
C939 C936 1.511 . S
C939 H953 0.961 . S
C939 H954 0.961 . S
C939 H955 0.961 . S
C940 C941 1.370 . S
C940 C942 1.363 . S
C940 H956 0.931 . S
C941 C940 1.370 . S
C941 C945 1.408 . S
C942 C940 1.363 . S
C942 C943 1.370 . S
C942 C946 1.524 . S
C943 C935 1.503 . S
C943 C942 1.370 . S
C943 C944 1.403 . S
C944 C943 1.403 . S
C944 C945 1.404 . S
C944 C947 1.539 . S
C945 C941 1.408 . S
C945 C944 1.404 . S
C945 H957 0.930 . S
C946 C942 1.524 . S
C946 H958 0.956 . S
C946 H959 0.961 . S
C946 H960 0.961 . S
C947 C944 1.539 . S
C947 H961 0.958 . S
C947 H962 0.961 . S
C947 H963 0.960 . S
H948 C932 0.931 . S
H949 C937 0.929 . S
H950 C938 0.960 . S
H951 C938 0.962 . S
H952 C938 0.960 . S
H953 C939 0.961 . S
H954 C939 0.961 . S
H955 C939 0.961 . S
H956 C940 0.931 . S
H957 C945 0.930 . S
H958 C946 0.956 . S
H959 C946 0.961 . S
H960 C946 0.961 . S
H961 C947 0.958 . S
H962 C947 0.961 . S
H963 C947 0.960 . S
C964 C965 1.391 . S
C964 C966 1.394 . S
C964 H980 0.931 . S
C965 C964 1.391 . S
C965 C969 1.376 . S
C966 C964 1.394 . S
C966 C967 1.369 . S
C966 C970 1.531 . S
C967 C966 1.369 . S
C967 C968 1.410 . S
C967 C975 1.503 . S
C968 C967 1.410 . S
C968 C969 1.392 . S
C968 C971 1.511 . S
C969 C965 1.376 . S
C969 C968 1.392 . S
C969 H981 0.929 . S
C970 C966 1.531 . S
C970 H982 0.960 . S
C970 H983 0.962 . S
C970 H984 0.960 . S
C971 C968 1.511 . S
C971 H985 0.961 . S
C971 H986 0.961 . S
C971 H987 0.961 . S
C972 C973 1.370 . S
C972 C974 1.363 . S
C972 H988 0.931 . S
C973 C972 1.370 . S
C973 C977 1.408 . S
C974 C972 1.363 . S
C974 C975 1.370 . S
C974 C978 1.524 . S
C975 C967 1.503 . S
C975 C974 1.370 . S
C975 C976 1.403 . S
C976 C975 1.403 . S
C976 C977 1.404 . S
C976 C979 1.539 . S
C977 C973 1.408 . S
C977 C976 1.404 . S
C977 H989 0.930 . S
C978 C974 1.524 . S
C978 H990 0.956 . S
C978 H991 0.961 . S
C978 H992 0.961 . S
C979 C976 1.539 . S
C979 H993 0.958 . S
C979 H994 0.961 . S
C979 H995 0.960 . S
H980 C964 0.931 . S
H981 C969 0.929 . S
H982 C970 0.960 . S
H983 C970 0.962 . S
H984 C970 0.960 . S
H985 C971 0.961 . S
H986 C971 0.961 . S
H987 C971 0.961 . S
H988 C972 0.931 . S
H989 C977 0.930 . S
H990 C978 0.956 . S
H991 C978 0.961 . S
H992 C978 0.961 . S
H993 C979 0.958 . S
H994 C979 0.961 . S
H995 C979 0.960 . S
C996 C997 1.391 . S
C996 C998 1.394 . S
C996 H1012 0.931 . S
C997 C996 1.391 . S
C997 C1001 1.376 . S
C998 C996 1.394 . S
C998 C999 1.369 . S
C998 C1002 1.531 . S
C999 C998 1.369 . S
C999 C1000 1.410 . S
C999 C1007 1.503 . S
C1000 C999 1.410 . S
C1000 C1001 1.392 . S
C1000 C1003 1.511 . S
C1001 C997 1.376 . S
C1001 C1000 1.392 . S
C1001 H1013 0.929 . S
C1002 C998 1.531 . S
C1002 H1014 0.960 . S
C1002 H1015 0.962 . S
C1002 H1016 0.960 . S
C1003 C1000 1.511 . S
C1003 H1017 0.961 . S
C1003 H1018 0.961 . S
C1003 H1019 0.961 . S
C1004 C1005 1.370 . S
C1004 C1006 1.363 . S
C1004 H1020 0.931 . S
C1005 C1004 1.370 . S
C1005 C1009 1.408 . S
C1006 C1004 1.363 . S
C1006 C1007 1.370 . S
C1006 C1010 1.524 . S
C1007 C999 1.503 . S
C1007 C1006 1.370 . S
C1007 C1008 1.403 . S
C1008 C1007 1.403 . S
C1008 C1009 1.404 . S
C1008 C1011 1.539 . S
C1009 C1005 1.408 . S
C1009 C1008 1.404 . S
C1009 H1021 0.930 . S
C1010 C1006 1.524 . S
C1010 H1022 0.956 . S
C1010 H1023 0.961 . S
C1010 H1024 0.961 . S
C1011 C1008 1.539 . S
C1011 H1025 0.958 . S
C1011 H1026 0.961 . S
C1011 H1027 0.960 . S
H1012 C996 0.931 . S
H1013 C1001 0.929 . S
H1014 C1002 0.960 . S
H1015 C1002 0.962 . S
H1016 C1002 0.960 . S
H1017 C1003 0.961 . S
H1018 C1003 0.961 . S
H1019 C1003 0.961 . S
H1020 C1004 0.931 . S
H1021 C1009 0.930 . S
H1022 C1010 0.956 . S
H1023 C1010 0.961 . S
H1024 C1010 0.961 . S
H1025 C1011 0.958 . S
H1026 C1011 0.961 . S
H1027 C1011 0.960 . S
C1028 C1029 1.391 . S
C1028 C1030 1.394 . S
C1028 H1044 0.931 . S
C1029 C1028 1.391 . S
C1029 C1033 1.376 . S
C1030 C1028 1.394 . S
C1030 C1031 1.369 . S
C1030 C1034 1.531 . S
C1031 C1030 1.369 . S
C1031 C1032 1.410 . S
C1031 C1039 1.503 . S
C1032 C1031 1.410 . S
C1032 C1033 1.392 . S
C1032 C1035 1.511 . S
C1033 C1029 1.376 . S
C1033 C1032 1.392 . S
C1033 H1045 0.929 . S
C1034 C1030 1.531 . S
C1034 H1046 0.960 . S
C1034 H1047 0.962 . S
C1034 H1048 0.960 . S
C1035 C1032 1.511 . S
C1035 H1049 0.961 . S
C1035 H1050 0.961 . S
C1035 H1051 0.961 . S
C1036 C1037 1.370 . S
C1036 C1038 1.363 . S
C1036 H1052 0.931 . S
C1037 C1036 1.370 . S
C1037 C1041 1.408 . S
C1038 C1036 1.363 . S
C1038 C1039 1.370 . S
C1038 C1042 1.524 . S
C1039 C1031 1.503 . S
C1039 C1038 1.370 . S
C1039 C1040 1.403 . S
C1040 C1039 1.403 . S
C1040 C1041 1.404 . S
C1040 C1043 1.539 . S
C1041 C1037 1.408 . S
C1041 C1040 1.404 . S
C1041 H1053 0.930 . S
C1042 C1038 1.524 . S
C1042 H1054 0.956 . S
C1042 H1055 0.961 . S
C1042 H1056 0.961 . S
C1043 C1040 1.539 . S
C1043 H1057 0.958 . S
C1043 H1058 0.961 . S
C1043 H1059 0.960 . S
H1044 C1028 0.931 . S
H1045 C1033 0.929 . S
H1046 C1034 0.960 . S
H1047 C1034 0.962 . S
H1048 C1034 0.960 . S
H1049 C1035 0.961 . S
H1050 C1035 0.961 . S
H1051 C1035 0.961 . S
H1052 C1036 0.931 . S
H1053 C1041 0.930 . S
H1054 C1042 0.956 . S
H1055 C1042 0.961 . S
H1056 C1042 0.961 . S
H1057 C1043 0.958 . S
H1058 C1043 0.961 . S
H1059 C1043 0.960 . S
C1060 C1061 1.391 . S
C1060 C1062 1.394 . S
C1060 H1076 0.931 . S
C1061 C1060 1.391 . S
C1061 C1065 1.376 . S
C1062 C1060 1.394 . S
C1062 C1063 1.369 . S
C1062 C1066 1.531 . S
C1063 C1062 1.369 . S
C1063 C1064 1.410 . S
C1063 C1071 1.503 . S
C1064 C1063 1.410 . S
C1064 C1065 1.392 . S
C1064 C1067 1.511 . S
C1065 C1061 1.376 . S
C1065 C1064 1.392 . S
C1065 H1077 0.929 . S
C1066 C1062 1.531 . S
C1066 H1078 0.960 . S
C1066 H1079 0.962 . S
C1066 H1080 0.960 . S
C1067 C1064 1.511 . S
C1067 H1081 0.961 1_556 S
C1067 H1082 0.961 1_556 S
C1067 H1083 0.961 . S
C1068 C1069 1.370 . S
C1068 C1070 1.363 1_554 S
C1068 H1084 0.931 . S
C1069 C1068 1.370 . S
C1069 C1073 1.408 1_554 S
C1070 C1068 1.363 1_556 S
C1070 C1071 1.370 . S
C1070 C1074 1.523 . S
C1071 C1063 1.503 . S
C1071 C1070 1.370 . S
C1071 C1072 1.403 . S
C1072 C1071 1.403 . S
C1072 C1073 1.404 . S
C1072 C1075 1.539 . S
C1073 C1069 1.408 1_556 S
C1073 C1072 1.404 . S
C1073 H1085 0.930 . S
C1074 C1070 1.523 . S
C1074 H1086 0.961 . S
C1074 H1087 0.960 1_556 S
C1074 H1088 0.958 1_556 S
C1075 C1072 1.539 . S
C1075 H1089 0.958 . S
C1075 H1090 0.961 . S
C1075 H1091 0.960 . S
H1076 C1060 0.931 . S
H1077 C1065 0.929 . S
H1078 C1066 0.960 . S
H1079 C1066 0.962 . S
H1080 C1066 0.960 . S
H1081 C1067 0.961 1_554 S
H1082 C1067 0.961 1_554 S
H1083 C1067 0.961 . S
H1084 C1068 0.931 . S
H1085 C1073 0.930 . S
H1086 C1074 0.961 . S
H1087 C1074 0.960 1_554 S
H1088 C1074 0.958 1_554 S
H1089 C1075 0.958 . S
H1090 C1075 0.961 . S
H1091 C1075 0.960 . S
C1092 C1093 1.391 . S
C1092 C1094 1.394 . S
C1092 H1108 0.931 . S
C1093 C1092 1.391 . S
C1093 C1097 1.376 . S
C1094 C1092 1.394 . S
C1094 C1095 1.369 . S
C1094 C1098 1.531 . S
C1095 C1094 1.369 . S
C1095 C1096 1.410 . S
C1095 C1103 1.503 . S
C1096 C1095 1.410 . S
C1096 C1097 1.392 . S
C1096 C1099 1.511 . S
C1097 C1093 1.376 . S
C1097 C1096 1.392 . S
C1097 H1109 0.929 . S
C1098 C1094 1.531 . S
C1098 H1110 0.960 . S
C1098 H1111 0.962 . S
C1098 H1112 0.960 . S
C1099 C1096 1.511 . S
C1099 H1113 0.961 . S
C1099 H1114 0.961 . S
C1099 H1115 0.961 . S
C1100 C1101 1.370 . S
C1100 C1102 1.363 . S
C1100 H1116 0.931 . S
C1101 C1100 1.370 . S
C1101 C1105 1.408 . S
C1102 C1100 1.363 . S
C1102 C1103 1.370 . S
C1102 C1106 1.524 . S
C1103 C1095 1.503 . S
C1103 C1102 1.370 . S
C1103 C1104 1.403 . S
C1104 C1103 1.403 . S
C1104 C1105 1.404 . S
C1104 C1107 1.539 . S
C1105 C1101 1.408 . S
C1105 C1104 1.404 . S
C1105 H1117 0.930 . S
C1106 C1102 1.524 . S
C1106 H1118 0.956 . S
C1106 H1119 0.961 . S
C1106 H1120 0.961 . S
C1107 C1104 1.539 . S
C1107 H1121 0.958 . S
C1107 H1122 0.961 . S
C1107 H1123 0.960 . S
H1108 C1092 0.931 . S
H1109 C1097 0.929 . S
H1110 C1098 0.960 . S
H1111 C1098 0.962 . S
H1112 C1098 0.960 . S
H1113 C1099 0.961 . S
H1114 C1099 0.961 . S
H1115 C1099 0.961 . S
H1116 C1100 0.931 . S
H1117 C1105 0.930 . S
H1118 C1106 0.956 . S
H1119 C1106 0.961 . S
H1120 C1106 0.961 . S
H1121 C1107 0.958 . S
H1122 C1107 0.961 . S
H1123 C1107 0.960 . S
C1124 C1125 1.391 . S
C1124 C1126 1.394 . S
C1124 H1140 0.931 . S
C1125 C1124 1.391 . S
C1125 C1129 1.376 . S
C1126 C1124 1.394 . S
C1126 C1127 1.369 . S
C1126 C1130 1.531 . S
C1127 C1126 1.369 . S
C1127 C1128 1.410 . S
C1127 C1135 1.503 . S
C1128 C1127 1.410 . S
C1128 C1129 1.392 . S
C1128 C1131 1.511 . S
C1129 C1125 1.376 . S
C1129 C1128 1.392 . S
C1129 H1141 0.929 . S
C1130 C1126 1.531 . S
C1130 H1142 0.960 . S
C1130 H1143 0.962 . S
C1130 H1144 0.960 . S
C1131 C1128 1.511 . S
C1131 H1145 0.961 . S
C1131 H1146 0.961 . S
C1131 H1147 0.961 . S
C1132 C1133 1.370 . S
C1132 C1134 1.363 . S
C1132 H1148 0.931 . S
C1133 C1132 1.370 . S
C1133 C1137 1.408 . S
C1134 C1132 1.363 . S
C1134 C1135 1.370 . S
C1134 C1138 1.524 . S
C1135 C1127 1.503 . S
C1135 C1134 1.370 . S
C1135 C1136 1.403 . S
C1136 C1135 1.403 . S
C1136 C1137 1.404 . S
C1136 C1139 1.539 . S
C1137 C1133 1.408 . S
C1137 C1136 1.404 . S
C1137 H1149 0.930 1_556 S
C1138 C1134 1.524 . S
C1138 H1150 0.956 . S
C1138 H1151 0.961 . S
C1138 H1152 0.961 . S
C1139 C1136 1.539 . S
C1139 H1153 0.958 1_556 S
C1139 H1154 0.961 1_556 S
C1139 H1155 0.960 . S
H1140 C1124 0.931 . S
H1141 C1129 0.929 . S
H1142 C1130 0.960 . S
H1143 C1130 0.962 . S
H1144 C1130 0.960 . S
H1145 C1131 0.961 . S
H1146 C1131 0.961 . S
H1147 C1131 0.961 . S
H1148 C1132 0.931 . S
H1149 C1137 0.930 1_554 S
H1150 C1138 0.956 . S
H1151 C1138 0.961 . S
H1152 C1138 0.961 . S
H1153 C1139 0.958 1_554 S
H1154 C1139 0.961 1_554 S
H1155 C1139 0.960 . S
C1156 C1157 1.391 . S
C1156 C1158 1.394 . S
C1156 H1172 0.931 . S
C1157 C1156 1.391 . S
C1157 C1161 1.376 . S
C1158 C1156 1.394 . S
C1158 C1159 1.369 . S
C1158 C1162 1.531 . S
C1159 C1158 1.369 . S
C1159 C1160 1.410 . S
C1159 C1167 1.503 . S
C1160 C1159 1.410 . S
C1160 C1161 1.392 . S
C1160 C1163 1.511 . S
C1161 C1157 1.376 . S
C1161 C1160 1.392 . S
C1161 H1173 0.929 . S
C1162 C1158 1.531 . S
C1162 H1174 0.960 . S
C1162 H1175 0.962 . S
C1162 H1176 0.960 . S
C1163 C1160 1.511 . S
C1163 H1177 0.961 . S
C1163 H1178 0.961 . S
C1163 H1179 0.961 . S
C1164 C1165 1.370 . S
C1164 C1166 1.363 . S
C1164 H1180 0.931 . S
C1165 C1164 1.370 . S
C1165 C1169 1.408 . S
C1166 C1164 1.363 . S
C1166 C1167 1.370 . S
C1166 C1170 1.524 . S
C1167 C1159 1.503 . S
C1167 C1166 1.370 . S
C1167 C1168 1.403 . S
C1168 C1167 1.403 . S
C1168 C1169 1.404 . S
C1168 C1171 1.539 . S
C1169 C1165 1.408 . S
C1169 C1168 1.404 . S
C1169 H1181 0.930 . S
C1170 C1166 1.524 . S
C1170 H1182 0.956 . S
C1170 H1183 0.961 . S
C1170 H1184 0.961 . S
C1171 C1168 1.539 . S
C1171 H1185 0.958 . S
C1171 H1186 0.961 . S
C1171 H1187 0.960 . S
H1172 C1156 0.931 . S
H1173 C1161 0.929 . S
H1174 C1162 0.960 . S
H1175 C1162 0.962 . S
H1176 C1162 0.960 . S
H1177 C1163 0.961 . S
H1178 C1163 0.961 . S
H1179 C1163 0.961 . S
H1180 C1164 0.931 . S
H1181 C1169 0.930 . S
H1182 C1170 0.956 . S
H1183 C1170 0.961 . S
H1184 C1170 0.961 . S
H1185 C1171 0.958 . S
H1186 C1171 0.961 . S
H1187 C1171 0.960 . S
C1188 C1189 1.391 . S
C1188 C1190 1.394 . S
C1188 H1204 0.931 1_556 S
C1189 C1188 1.391 . S
C1189 C1193 1.376 . S
C1190 C1188 1.394 . S
C1190 C1191 1.369 . S
C1190 C1194 1.531 1_556 S
C1191 C1190 1.369 . S
C1191 C1192 1.410 . S
C1191 C1199 1.503 . S
C1192 C1191 1.410 . S
C1192 C1193 1.392 . S
C1192 C1195 1.511 . S
C1193 C1189 1.376 . S
C1193 C1192 1.392 . S
C1193 H1205 0.929 . S
C1194 C1190 1.531 1_554 S
C1194 H1206 0.960 . S
C1194 H1207 0.962 . S
C1194 H1208 0.960 . S
C1195 C1192 1.511 . S
C1195 H1209 0.961 . S
C1195 H1210 0.961 . S
C1195 H1211 0.961 . S
C1196 C1197 1.370 . S
C1196 C1198 1.363 . S
C1196 H1212 0.931 . S
C1197 C1196 1.370 . S
C1197 C1201 1.408 . S
C1198 C1196 1.363 . S
C1198 C1199 1.370 . S
C1198 C1202 1.524 . S
C1199 C1191 1.503 . S
C1199 C1198 1.370 . S
C1199 C1200 1.403 . S
C1200 C1199 1.403 . S
C1200 C1201 1.404 . S
C1200 C1203 1.539 . S
C1201 C1197 1.408 . S
C1201 C1200 1.404 . S
C1201 H1213 0.930 . S
C1202 C1198 1.524 . S
C1202 H1214 0.956 . S
C1202 H1215 0.961 . S
C1202 H1216 0.961 . S
C1203 C1200 1.539 . S
C1203 H1217 0.958 1_556 S
C1203 H1218 0.961 . S
C1203 H1219 0.960 . S
H1204 C1188 0.931 1_554 S
H1205 C1193 0.929 . S
H1206 C1194 0.960 . S
H1207 C1194 0.962 . S
H1208 C1194 0.960 . S
H1209 C1195 0.961 . S
H1210 C1195 0.961 . S
H1211 C1195 0.961 . S
H1212 C1196 0.931 . S
H1213 C1201 0.930 . S
H1214 C1202 0.956 . S
H1215 C1202 0.961 . S
H1216 C1202 0.961 . S
H1217 C1203 0.958 1_554 S
H1218 C1203 0.961 . S
H1219 C1203 0.960 . S
C1220 C1221 1.391 . S
C1220 C1222 1.394 . S
C1220 H1236 0.931 . S
C1221 C1220 1.391 . S
C1221 C1225 1.376 . S
C1222 C1220 1.394 . S
C1222 C1223 1.369 . S
C1222 C1226 1.531 . S
C1223 C1222 1.369 . S
C1223 C1224 1.410 . S
C1223 C1231 1.503 . S
C1224 C1223 1.410 . S
C1224 C1225 1.392 . S
C1224 C1227 1.511 . S
C1225 C1221 1.376 . S
C1225 C1224 1.392 . S
C1225 H1237 0.929 . S
C1226 C1222 1.531 . S
C1226 H1238 0.960 . S
C1226 H1239 0.962 . S
C1226 H1240 0.960 . S
C1227 C1224 1.511 . S
C1227 H1241 0.961 . S
C1227 H1242 0.961 . S
C1227 H1243 0.961 . S
C1228 C1229 1.370 . S
C1228 C1230 1.363 . S
C1228 H1244 0.931 . S
C1229 C1228 1.370 . S
C1229 C1233 1.408 . S
C1230 C1228 1.363 . S
C1230 C1231 1.370 . S
C1230 C1234 1.524 . S
C1231 C1223 1.503 . S
C1231 C1230 1.370 . S
C1231 C1232 1.403 . S
C1232 C1231 1.403 . S
C1232 C1233 1.404 . S
C1232 C1235 1.539 . S
C1233 C1229 1.408 . S
C1233 C1232 1.404 . S
C1233 H1245 0.930 . S
C1234 C1230 1.524 . S
C1234 H1246 0.956 . S
C1234 H1247 0.961 . S
C1234 H1248 0.961 . S
C1235 C1232 1.539 . S
C1235 H1249 0.958 . S
C1235 H1250 0.961 . S
C1235 H1251 0.960 . S
H1236 C1220 0.931 . S
H1237 C1225 0.929 . S
H1238 C1226 0.960 . S
H1239 C1226 0.962 . S
H1240 C1226 0.960 . S
H1241 C1227 0.961 . S
H1242 C1227 0.961 . S
H1243 C1227 0.961 . S
H1244 C1228 0.931 . S
H1245 C1233 0.930 . S
H1246 C1234 0.956 . S
H1247 C1234 0.961 . S
H1248 C1234 0.961 . S
H1249 C1235 0.958 . S
H1250 C1235 0.961 . S
H1251 C1235 0.960 . S
C1252 C1253 1.391 . S
C1252 C1254 1.394 . S
C1252 H1268 0.931 . S
C1253 C1252 1.391 . S
C1253 C1257 1.376 . S
C1254 C1252 1.394 . S
C1254 C1255 1.369 . S
C1254 C1258 1.531 . S
C1255 C1254 1.369 . S
C1255 C1256 1.410 . S
C1255 C1263 1.503 . S
C1256 C1255 1.410 . S
C1256 C1257 1.392 . S
C1256 C1259 1.511 . S
C1257 C1253 1.376 . S
C1257 C1256 1.392 . S
C1257 H1269 0.929 . S
C1258 C1254 1.531 . S
C1258 H1270 0.960 . S
C1258 H1271 0.962 . S
C1258 H1272 0.960 . S
C1259 C1256 1.511 . S
C1259 H1273 0.961 . S
C1259 H1274 0.961 . S
C1259 H1275 0.961 . S
C1260 C1261 1.370 . S
C1260 C1262 1.363 . S
C1260 H1276 0.931 . S
C1261 C1260 1.370 . S
C1261 C1265 1.408 . S
C1262 C1260 1.363 . S
C1262 C1263 1.370 . S
C1262 C1266 1.524 . S
C1263 C1255 1.503 . S
C1263 C1262 1.370 . S
C1263 C1264 1.403 . S
C1264 C1263 1.403 . S
C1264 C1265 1.404 . S
C1264 C1267 1.539 . S
C1265 C1261 1.408 . S
C1265 C1264 1.404 . S
C1265 H1277 0.930 . S
C1266 C1262 1.524 . S
C1266 H1278 0.956 . S
C1266 H1279 0.961 . S
C1266 H1280 0.961 . S
C1267 C1264 1.539 . S
C1267 H1281 0.958 . S
C1267 H1282 0.961 . S
C1267 H1283 0.960 . S
H1268 C1252 0.931 . S
H1269 C1257 0.929 . S
H1270 C1258 0.960 . S
H1271 C1258 0.962 . S
H1272 C1258 0.960 . S
H1273 C1259 0.961 . S
H1274 C1259 0.961 . S
H1275 C1259 0.961 . S
H1276 C1260 0.931 . S
H1277 C1265 0.930 . S
H1278 C1266 0.956 . S
H1279 C1266 0.961 . S
H1280 C1266 0.961 . S
H1281 C1267 0.958 . S
H1282 C1267 0.961 . S
H1283 C1267 0.960 . S
C1284 C1285 1.391 . S
C1284 C1286 1.394 . S
C1284 H1300 0.931 . S
C1285 C1284 1.391 . S
C1285 C1289 1.376 . S
C1286 C1284 1.394 . S
C1286 C1287 1.369 . S
C1286 C1290 1.531 . S
C1287 C1286 1.369 . S
C1287 C1288 1.410 . S
C1287 C1295 1.503 . S
C1288 C1287 1.410 . S
C1288 C1289 1.392 . S
C1288 C1291 1.511 . S
C1289 C1285 1.376 . S
C1289 C1288 1.392 . S
C1289 H1301 0.929 . S
C1290 C1286 1.531 . S
C1290 H1302 0.960 . S
C1290 H1303 0.962 . S
C1290 H1304 0.960 . S
C1291 C1288 1.511 . S
C1291 H1305 0.961 . S
C1291 H1306 0.961 . S
C1291 H1307 0.961 . S
C1292 C1293 1.370 . S
C1292 C1294 1.363 . S
C1292 H1308 0.927 1_556 S
C1293 C1292 1.370 . S
C1293 C1297 1.408 . S
C1294 C1292 1.363 . S
C1294 C1295 1.370 . S
C1294 C1298 1.524 . S
C1295 C1287 1.503 . S
C1295 C1294 1.370 . S
C1295 C1296 1.403 . S
C1296 C1295 1.403 . S
C1296 C1297 1.404 . S
C1296 C1299 1.539 . S
C1297 C1293 1.408 . S
C1297 C1296 1.404 . S
C1297 H1309 0.930 . S
C1298 C1294 1.524 . S
C1298 H1310 0.956 . S
C1298 H1311 0.961 . S
C1298 H1312 0.960 1_556 S
C1299 C1296 1.539 . S
C1299 H1313 0.944 1_565 S
C1299 H1314 0.961 . S
C1299 H1315 0.960 . S
H1300 C1284 0.931 . S
H1301 C1289 0.929 . S
H1302 C1290 0.960 . S
H1303 C1290 0.962 . S
H1304 C1290 0.960 . S
H1305 C1291 0.961 . S
H1306 C1291 0.961 . S
H1307 C1291 0.961 . S
H1308 C1292 0.927 1_554 S
H1309 C1297 0.930 . S
H1310 C1298 0.956 . S
H1311 C1298 0.961 . S
H1312 C1298 0.960 1_554 S
H1313 C1299 0.944 1_545 S
H1314 C1299 0.961 . S
H1315 C1299 0.960 . S
C1316 C1317 1.391 . S
C1316 C1318 1.394 . S
C1316 H1332 0.931 . S
C1317 C1316 1.391 . S
C1317 C1321 1.376 . S
C1318 C1316 1.394 . S
C1318 C1319 1.369 . S
C1318 C1322 1.531 . S
C1319 C1318 1.369 . S
C1319 C1320 1.410 . S
C1319 C1327 1.503 . S
C1320 C1319 1.410 . S
C1320 C1321 1.392 . S
C1320 C1323 1.511 . S
C1321 C1317 1.376 . S
C1321 C1320 1.392 . S
C1321 H1333 0.929 . S
C1322 C1318 1.531 . S
C1322 H1334 0.960 . S
C1322 H1335 0.962 . S
C1322 H1336 0.960 . S
C1323 C1320 1.511 . S
C1323 H1337 0.961 . S
C1323 H1338 0.961 . S
C1323 H1339 0.961 . S
C1324 C1325 1.370 . S
C1324 C1326 1.363 . S
C1324 H1340 0.931 . S
C1325 C1324 1.370 . S
C1325 C1329 1.408 . S
C1326 C1324 1.363 . S
C1326 C1327 1.370 . S
C1326 C1330 1.524 . S
C1327 C1319 1.503 . S
C1327 C1326 1.370 . S
C1327 C1328 1.403 . S
C1328 C1327 1.403 . S
C1328 C1329 1.404 . S
C1328 C1331 1.539 . S
C1329 C1325 1.408 . S
C1329 C1328 1.404 . S
C1329 H1341 0.930 . S
C1330 C1326 1.524 . S
C1330 H1342 0.956 . S
C1330 H1343 0.961 . S
C1330 H1344 0.961 . S
C1331 C1328 1.539 . S
C1331 H1345 0.958 . S
C1331 H1346 0.961 . S
C1331 H1347 0.960 . S
H1332 C1316 0.931 . S
H1333 C1321 0.929 . S
H1334 C1322 0.960 . S
H1335 C1322 0.962 . S
H1336 C1322 0.960 . S
H1337 C1323 0.961 . S
H1338 C1323 0.961 . S
H1339 C1323 0.961 . S
H1340 C1324 0.931 . S
H1341 C1329 0.930 . S
H1342 C1330 0.956 . S
H1343 C1330 0.961 . S
H1344 C1330 0.961 . S
H1345 C1331 0.958 . S
H1346 C1331 0.961 . S
H1347 C1331 0.960 . S
C1348 C1349 1.391 . S
C1348 C1350 1.394 . S
C1348 H1364 0.931 . S
C1349 C1348 1.391 . S
C1349 C1353 1.376 . S
C1350 C1348 1.394 . S
C1350 C1351 1.369 . S
C1350 C1354 1.531 . S
C1351 C1350 1.369 . S
C1351 C1352 1.410 . S
C1351 C1359 1.503 . S
C1352 C1351 1.410 . S
C1352 C1353 1.392 . S
C1352 C1355 1.511 . S
C1353 C1349 1.376 . S
C1353 C1352 1.392 . S
C1353 H1365 0.929 . S
C1354 C1350 1.531 . S
C1354 H1366 0.960 . S
C1354 H1367 0.962 . S
C1354 H1368 0.960 . S
C1355 C1352 1.511 . S
C1355 H1369 0.961 . S
C1355 H1370 0.961 . S
C1355 H1371 0.961 . S
C1356 C1357 1.370 . S
C1356 C1358 1.363 . S
C1356 H1372 0.931 . S
C1357 C1356 1.370 . S
C1357 C1361 1.408 . S
C1358 C1356 1.363 . S
C1358 C1359 1.370 . S
C1358 C1362 1.524 . S
C1359 C1351 1.503 . S
C1359 C1358 1.370 . S
C1359 C1360 1.403 . S
C1360 C1359 1.403 . S
C1360 C1361 1.404 . S
C1360 C1363 1.539 . S
C1361 C1357 1.408 . S
C1361 C1360 1.404 . S
C1361 H1373 0.930 . S
C1362 C1358 1.524 . S
C1362 H1374 0.956 . S
C1362 H1375 0.961 . S
C1362 H1376 0.961 . S
C1363 C1360 1.539 . S
C1363 H1377 0.958 . S
C1363 H1378 0.961 . S
C1363 H1379 0.960 . S
H1364 C1348 0.931 . S
H1365 C1353 0.929 . S
H1366 C1354 0.960 . S
H1367 C1354 0.962 . S
H1368 C1354 0.960 . S
H1369 C1355 0.961 . S
H1370 C1355 0.961 . S
H1371 C1355 0.961 . S
H1372 C1356 0.931 . S
H1373 C1361 0.930 . S
H1374 C1362 0.956 . S
H1375 C1362 0.961 . S
H1376 C1362 0.961 . S
H1377 C1363 0.958 . S
H1378 C1363 0.961 . S
H1379 C1363 0.960 . S
C1380 C1381 1.391 . S
C1380 C1382 1.394 . S
C1380 H1396 0.931 . S
C1381 C1380 1.391 . S
C1381 C1385 1.376 . S
C1382 C1380 1.394 . S
C1382 C1383 1.369 . S
C1382 C1386 1.531 . S
C1383 C1382 1.369 . S
C1383 C1384 1.410 . S
C1383 C1391 1.503 . S
C1384 C1383 1.410 . S
C1384 C1385 1.392 . S
C1384 C1387 1.511 . S
C1385 C1381 1.376 . S
C1385 C1384 1.392 . S
C1385 H1397 0.929 . S
C1386 C1382 1.531 . S
C1386 H1398 0.960 . S
C1386 H1399 0.962 . S
C1386 H1400 0.960 . S
C1387 C1384 1.511 . S
C1387 H1401 0.961 . S
C1387 H1402 0.961 . S
C1387 H1403 0.961 . S
C1388 C1389 1.370 . S
C1388 C1390 1.363 . S
C1388 H1404 0.931 . S
C1389 C1388 1.370 . S
C1389 C1393 1.408 . S
C1390 C1388 1.363 . S
C1390 C1391 1.370 . S
C1390 C1394 1.524 . S
C1391 C1383 1.503 . S
C1391 C1390 1.370 . S
C1391 C1392 1.403 . S
C1392 C1391 1.403 . S
C1392 C1393 1.404 . S
C1392 C1395 1.539 . S
C1393 C1389 1.408 . S
C1393 C1392 1.404 . S
C1393 H1405 0.930 . S
C1394 C1390 1.524 . S
C1394 H1406 0.956 . S
C1394 H1407 0.961 . S
C1394 H1408 0.961 . S
C1395 C1392 1.539 . S
C1395 H1409 0.958 . S
C1395 H1410 0.961 . S
C1395 H1411 0.960 . S
H1396 C1380 0.931 . S
H1397 C1385 0.929 . S
H1398 C1386 0.960 . S
H1399 C1386 0.962 . S
H1400 C1386 0.960 . S
H1401 C1387 0.961 . S
H1402 C1387 0.961 . S
H1403 C1387 0.961 . S
H1404 C1388 0.931 . S
H1405 C1393 0.930 . S
H1406 C1394 0.956 . S
H1407 C1394 0.961 . S
H1408 C1394 0.961 . S
H1409 C1395 0.958 . S
H1410 C1395 0.961 . S
H1411 C1395 0.960 . S
C1412 C1413 1.391 . S
C1412 C1414 1.394 . S
C1412 H1428 0.931 . S
C1413 C1412 1.391 . S
C1413 C1417 1.376 . S
C1414 C1412 1.394 . S
C1414 C1415 1.369 . S
C1414 C1418 1.531 . S
C1415 C1414 1.369 . S
C1415 C1416 1.410 . S
C1415 C1423 1.503 . S
C1416 C1415 1.410 . S
C1416 C1417 1.392 . S
C1416 C1419 1.511 . S
C1417 C1413 1.376 . S
C1417 C1416 1.392 . S
C1417 H1429 0.929 . S
C1418 C1414 1.531 . S
C1418 H1430 0.960 . S
C1418 H1431 0.962 . S
C1418 H1432 0.960 . S
C1419 C1416 1.511 . S
C1419 H1433 0.961 . S
C1419 H1434 0.961 . S
C1419 H1435 0.961 . S
C1420 C1421 1.370 . S
C1420 C1422 1.363 . S
C1420 H1436 0.931 . S
C1421 C1420 1.370 . S
C1421 C1425 1.408 . S
C1422 C1420 1.363 . S
C1422 C1423 1.370 . S
C1422 C1426 1.524 . S
C1423 C1415 1.503 . S
C1423 C1422 1.370 . S
C1423 C1424 1.403 . S
C1424 C1423 1.403 . S
C1424 C1425 1.404 . S
C1424 C1427 1.539 . S
C1425 C1421 1.408 . S
C1425 C1424 1.404 . S
C1425 H1437 0.930 . S
C1426 C1422 1.524 . S
C1426 H1438 0.956 . S
C1426 H1439 0.961 . S
C1426 H1440 0.961 . S
C1427 C1424 1.539 . S
C1427 H1441 0.958 . S
C1427 H1442 0.961 . S
C1427 H1443 0.960 . S
H1428 C1412 0.931 . S
H1429 C1417 0.929 . S
H1430 C1418 0.960 . S
H1431 C1418 0.962 . S
H1432 C1418 0.960 . S
H1433 C1419 0.961 . S
H1434 C1419 0.961 . S
H1435 C1419 0.961 . S
H1436 C1420 0.931 . S
H1437 C1425 0.930 . S
H1438 C1426 0.956 . S
H1439 C1426 0.961 . S
H1440 C1426 0.961 . S
H1441 C1427 0.958 . S
H1442 C1427 0.961 . S
H1443 C1427 0.960 . S
C1444 C1445 1.391 . S
C1444 C1446 1.394 . S
C1444 H1460 0.931 . S
C1445 C1444 1.391 . S
C1445 C1449 1.376 . S
C1446 C1444 1.394 . S
C1446 C1447 1.369 . S
C1446 C1450 1.531 . S
C1447 C1446 1.369 . S
C1447 C1448 1.410 . S
C1447 C1455 1.503 . S
C1448 C1447 1.410 . S
C1448 C1449 1.392 . S
C1448 C1451 1.511 . S
C1449 C1445 1.376 . S
C1449 C1448 1.392 . S
C1449 H1461 0.929 . S
C1450 C1446 1.531 . S
C1450 H1462 0.960 . S
C1450 H1463 0.962 . S
C1450 H1464 0.960 . S
C1451 C1448 1.511 . S
C1451 H1465 0.961 . S
C1451 H1466 0.961 . S
C1451 H1467 0.961 . S
C1452 C1453 1.370 . S
C1452 C1454 1.363 . S
C1452 H1468 0.931 . S
C1453 C1452 1.370 . S
C1453 C1457 1.408 . S
C1454 C1452 1.363 . S
C1454 C1455 1.370 . S
C1454 C1458 1.524 . S
C1455 C1447 1.503 . S
C1455 C1454 1.370 . S
C1455 C1456 1.403 . S
C1456 C1455 1.403 . S
C1456 C1457 1.404 . S
C1456 C1459 1.539 . S
C1457 C1453 1.408 . S
C1457 C1456 1.404 . S
C1457 H1469 0.930 1_556 S
C1458 C1454 1.524 . S
C1458 H1470 0.956 . S
C1458 H1471 0.961 . S
C1458 H1472 0.961 . S
C1459 C1456 1.539 . S
C1459 H1473 0.958 . S
C1459 H1474 0.961 1_556 S
C1459 H1475 0.960 . S
H1460 C1444 0.931 . S
H1461 C1449 0.929 . S
H1462 C1450 0.960 . S
H1463 C1450 0.962 . S
H1464 C1450 0.960 . S
H1465 C1451 0.961 . S
H1466 C1451 0.961 . S
H1467 C1451 0.961 . S
H1468 C1452 0.931 . S
H1469 C1457 0.930 1_554 S
H1470 C1458 0.956 . S
H1471 C1458 0.961 . S
H1472 C1458 0.961 . S
H1473 C1459 0.958 . S
H1474 C1459 0.961 1_554 S
H1475 C1459 0.960 . S
C1476 C1477 1.391 . S
C1476 C1478 1.394 . S
C1476 H1492 0.931 . S
C1477 C1476 1.391 . S
C1477 C1481 1.376 . S
C1478 C1476 1.394 . S
C1478 C1479 1.369 . S
C1478 C1482 1.531 . S
C1479 C1478 1.369 . S
C1479 C1480 1.410 . S
C1479 C1487 1.503 . S
C1480 C1479 1.410 . S
C1480 C1481 1.392 . S
C1480 C1483 1.511 . S
C1481 C1477 1.376 . S
C1481 C1480 1.392 . S
C1481 H1493 0.929 . S
C1482 C1478 1.531 . S
C1482 H1494 0.960 . S
C1482 H1495 0.962 . S
C1482 H1496 0.960 . S
C1483 C1480 1.511 . S
C1483 H1497 0.961 . S
C1483 H1498 0.961 . S
C1483 H1499 0.961 . S
C1484 C1485 1.370 . S
C1484 C1486 1.363 . S
C1484 H1500 0.931 . S
C1485 C1484 1.370 . S
C1485 C1489 1.408 . S
C1486 C1484 1.363 . S
C1486 C1487 1.370 . S
C1486 C1490 1.524 . S
C1487 C1479 1.503 . S
C1487 C1486 1.370 . S
C1487 C1488 1.403 . S
C1488 C1487 1.403 . S
C1488 C1489 1.404 . S
C1488 C1491 1.539 . S
C1489 C1485 1.408 . S
C1489 C1488 1.404 . S
C1489 H1501 0.930 . S
C1490 C1486 1.524 . S
C1490 H1502 0.956 . S
C1490 H1503 0.961 . S
C1490 H1504 0.961 . S
C1491 C1488 1.539 . S
C1491 H1505 0.958 . S
C1491 H1506 0.961 . S
C1491 H1507 0.960 . S
H1492 C1476 0.931 . S
H1493 C1481 0.929 . S
H1494 C1482 0.960 . S
H1495 C1482 0.962 . S
H1496 C1482 0.960 . S
H1497 C1483 0.961 . S
H1498 C1483 0.961 . S
H1499 C1483 0.961 . S
H1500 C1484 0.931 . S
H1501 C1489 0.930 . S
H1502 C1490 0.956 . S
H1503 C1490 0.961 . S
H1504 C1490 0.961 . S
H1505 C1491 0.958 . S
H1506 C1491 0.961 . S
H1507 C1491 0.960 . S
C1508 C1509 1.391 . S
C1508 C1510 1.394 . S
C1508 H1524 0.931 . S
C1509 C1508 1.391 . S
C1509 C1513 1.376 . S
C1510 C1508 1.394 . S
C1510 C1511 1.369 . S
C1510 C1514 1.531 . S
C1511 C1510 1.369 . S
C1511 C1512 1.410 . S
C1511 C1519 1.503 . S
C1512 C1511 1.410 . S
C1512 C1513 1.392 . S
C1512 C1515 1.511 . S
C1513 C1509 1.376 . S
C1513 C1512 1.392 . S
C1513 H1525 0.929 . S
C1514 C1510 1.531 . S
C1514 H1526 0.960 . S
C1514 H1527 0.962 . S
C1514 H1528 0.960 . S
C1515 C1512 1.511 . S
C1515 H1529 0.961 . S
C1515 H1530 0.961 . S
C1515 H1531 0.961 . S
C1516 C1517 1.370 . S
C1516 C1518 1.363 . S
C1516 H1532 0.931 . S
C1517 C1516 1.370 . S
C1517 C1521 1.408 . S
C1518 C1516 1.363 . S
C1518 C1519 1.370 . S
C1518 C1522 1.524 . S
C1519 C1511 1.503 . S
C1519 C1518 1.370 . S
C1519 C1520 1.403 . S
C1520 C1519 1.403 . S
C1520 C1521 1.404 . S
C1520 C1523 1.539 . S
C1521 C1517 1.408 . S
C1521 C1520 1.404 . S
C1521 H1533 0.930 . S
C1522 C1518 1.524 . S
C1522 H1534 0.956 . S
C1522 H1535 0.961 . S
C1522 H1536 0.961 . S
C1523 C1520 1.539 . S
C1523 H1537 0.958 . S
C1523 H1538 0.961 . S
C1523 H1539 0.960 . S
H1524 C1508 0.931 . S
H1525 C1513 0.929 . S
H1526 C1514 0.960 . S
H1527 C1514 0.962 . S
H1528 C1514 0.960 . S
H1529 C1515 0.961 . S
H1530 C1515 0.961 . S
H1531 C1515 0.961 . S
H1532 C1516 0.931 . S
H1533 C1521 0.930 . S
H1534 C1522 0.956 . S
H1535 C1522 0.961 . S
H1536 C1522 0.961 . S
H1537 C1523 0.958 . S
H1538 C1523 0.961 . S
H1539 C1523 0.960 . S
C1540 C1541 1.391 . S
C1540 C1542 1.394 . S
C1540 H1556 0.931 . S
C1541 C1540 1.391 . S
C1541 C1545 1.376 . S
C1542 C1540 1.394 . S
C1542 C1543 1.369 . S
C1542 C1546 1.531 . S
C1543 C1542 1.369 . S
C1543 C1544 1.410 . S
C1543 C1551 1.503 . S
C1544 C1543 1.410 . S
C1544 C1545 1.392 . S
C1544 C1547 1.511 . S
C1545 C1541 1.376 . S
C1545 C1544 1.392 . S
C1545 H1557 0.929 . S
C1546 C1542 1.531 . S
C1546 H1558 0.960 . S
C1546 H1559 0.962 . S
C1546 H1560 0.960 . S
C1547 C1544 1.511 . S
C1547 H1561 0.961 . S
C1547 H1562 0.961 . S
C1547 H1563 0.961 . S
C1548 C1549 1.370 . S
C1548 C1550 1.363 . S
C1548 H1564 0.931 . S
C1549 C1548 1.370 . S
C1549 C1553 1.408 . S
C1550 C1548 1.363 . S
C1550 C1551 1.370 . S
C1550 C1554 1.524 . S
C1551 C1543 1.503 . S
C1551 C1550 1.370 . S
C1551 C1552 1.403 . S
C1552 C1551 1.403 . S
C1552 C1553 1.404 . S
C1552 C1555 1.539 . S
C1553 C1549 1.408 . S
C1553 C1552 1.404 . S
C1553 H1565 0.930 . S
C1554 C1550 1.524 . S
C1554 H1566 0.956 . S
C1554 H1567 0.961 . S
C1554 H1568 0.961 . S
C1555 C1552 1.539 . S
C1555 H1569 0.958 . S
C1555 H1570 0.961 . S
C1555 H1571 0.960 . S
H1556 C1540 0.931 . S
H1557 C1545 0.929 . S
H1558 C1546 0.960 . S
H1559 C1546 0.962 . S
H1560 C1546 0.960 . S
H1561 C1547 0.961 . S
H1562 C1547 0.961 . S
H1563 C1547 0.961 . S
H1564 C1548 0.931 . S
H1565 C1553 0.930 . S
H1566 C1554 0.956 . S
H1567 C1554 0.961 . S
H1568 C1554 0.961 . S
H1569 C1555 0.958 . S
H1570 C1555 0.961 . S
H1571 C1555 0.960 . S
C1572 C1573 1.391 . S
C1572 C1574 1.394 . S
C1572 H1588 0.931 . S
C1573 C1572 1.391 . S
C1573 C1577 1.376 . S
C1574 C1572 1.394 . S
C1574 C1575 1.369 . S
C1574 C1578 1.531 . S
C1575 C1574 1.369 . S
C1575 C1576 1.410 . S
C1575 C1583 1.503 . S
C1576 C1575 1.410 . S
C1576 C1577 1.392 . S
C1576 C1579 1.511 . S
C1577 C1573 1.376 . S
C1577 C1576 1.392 . S
C1577 H1589 0.929 . S
C1578 C1574 1.531 . S
C1578 H1590 0.960 . S
C1578 H1591 0.962 . S
C1578 H1592 0.960 . S
C1579 C1576 1.511 . S
C1579 H1593 0.961 . S
C1579 H1594 0.961 . S
C1579 H1595 0.961 . S
C1580 C1581 1.370 . S
C1580 C1582 1.363 . S
C1580 H1596 0.931 . S
C1581 C1580 1.370 . S
C1581 C1585 1.408 . S
C1582 C1580 1.363 . S
C1582 C1583 1.370 . S
C1582 C1586 1.524 . S
C1583 C1575 1.503 . S
C1583 C1582 1.370 . S
C1583 C1584 1.403 . S
C1584 C1583 1.403 . S
C1584 C1585 1.404 . S
C1584 C1587 1.539 . S
C1585 C1581 1.408 . S
C1585 C1584 1.404 . S
C1585 H1597 0.930 . S
C1586 C1582 1.524 . S
C1586 H1598 0.956 . S
C1586 H1599 0.961 . S
C1586 H1600 0.961 . S
C1587 C1584 1.539 . S
C1587 H1601 0.958 . S
C1587 H1602 0.961 . S
C1587 H1603 0.960 . S
H1588 C1572 0.931 . S
H1589 C1577 0.929 . S
H1590 C1578 0.960 . S
H1591 C1578 0.962 . S
H1592 C1578 0.960 . S
H1593 C1579 0.961 . S
H1594 C1579 0.961 . S
H1595 C1579 0.961 . S
H1596 C1580 0.931 . S
H1597 C1585 0.930 . S
H1598 C1586 0.956 . S
H1599 C1586 0.961 . S
H1600 C1586 0.961 . S
H1601 C1587 0.958 . S
H1602 C1587 0.961 . S
H1603 C1587 0.960 . S
C1604 C1605 1.391 . S
C1604 C1606 1.394 . S
C1604 H1620 0.931 . S
C1605 C1604 1.391 . S
C1605 C1609 1.376 . S
C1606 C1604 1.394 . S
C1606 C1607 1.369 . S
C1606 C1610 1.531 . S
C1607 C1606 1.369 . S
C1607 C1608 1.410 . S
C1607 C1615 1.503 . S
C1608 C1607 1.410 . S
C1608 C1609 1.392 . S
C1608 C1611 1.511 . S
C1609 C1605 1.376 . S
C1609 C1608 1.392 . S
C1609 H1621 0.929 . S
C1610 C1606 1.531 . S
C1610 H1622 0.960 . S
C1610 H1623 0.962 . S
C1610 H1624 0.960 . S
C1611 C1608 1.511 . S
C1611 H1625 0.961 . S
C1611 H1626 0.961 . S
C1611 H1627 0.961 . S
C1612 C1613 1.370 . S
C1612 C1614 1.363 . S
C1612 H1628 0.931 . S
C1613 C1612 1.370 . S
C1613 C1617 1.408 . S
C1614 C1612 1.363 . S
C1614 C1615 1.370 . S
C1614 C1618 1.524 . S
C1615 C1607 1.503 . S
C1615 C1614 1.370 . S
C1615 C1616 1.403 . S
C1616 C1615 1.403 . S
C1616 C1617 1.404 . S
C1616 C1619 1.539 . S
C1617 C1613 1.408 . S
C1617 C1616 1.404 . S
C1617 H1629 0.930 . S
C1618 C1614 1.524 . S
C1618 H1630 0.956 . S
C1618 H1631 0.961 . S
C1618 H1632 0.961 . S
C1619 C1616 1.539 . S
C1619 H1633 0.958 . S
C1619 H1634 0.961 . S
C1619 H1635 0.960 . S
H1620 C1604 0.931 . S
H1621 C1609 0.929 . S
H1622 C1610 0.960 . S
H1623 C1610 0.962 . S
H1624 C1610 0.960 . S
H1625 C1611 0.961 . S
H1626 C1611 0.961 . S
H1627 C1611 0.961 . S
H1628 C1612 0.931 . S
H1629 C1617 0.930 . S
H1630 C1618 0.956 . S
H1631 C1618 0.961 . S
H1632 C1618 0.961 . S
H1633 C1619 0.958 . S
H1634 C1619 0.961 . S
H1635 C1619 0.960 . S
C1636 C1637 1.391 . S
C1636 C1638 1.394 . S
C1636 H1652 0.931 . S
C1637 C1636 1.391 . S
C1637 C1641 1.376 . S
C1638 C1636 1.394 . S
C1638 C1639 1.369 . S
C1638 C1642 1.531 . S
C1639 C1638 1.369 . S
C1639 C1640 1.410 . S
C1639 C1647 1.503 . S
C1640 C1639 1.410 . S
C1640 C1641 1.392 . S
C1640 C1643 1.511 . S
C1641 C1637 1.376 . S
C1641 C1640 1.392 . S
C1641 H1653 0.929 . S
C1642 C1638 1.531 . S
C1642 H1654 0.960 . S
C1642 H1655 0.962 . S
C1642 H1656 0.960 . S
C1643 C1640 1.511 . S
C1643 H1657 0.961 . S
C1643 H1658 0.961 . S
C1643 H1659 0.961 . S
C1644 C1645 1.370 . S
C1644 C1646 1.363 . S
C1644 H1660 0.931 . S
C1645 C1644 1.370 . S
C1645 C1649 1.408 . S
C1646 C1644 1.363 . S
C1646 C1647 1.370 . S
C1646 C1650 1.524 . S
C1647 C1639 1.503 . S
C1647 C1646 1.370 . S
C1647 C1648 1.403 . S
C1648 C1647 1.403 . S
C1648 C1649 1.404 . S
C1648 C1651 1.539 . S
C1649 C1645 1.408 . S
C1649 C1648 1.404 . S
C1649 H1661 0.930 . S
C1650 C1646 1.524 . S
C1650 H1662 0.956 . S
C1650 H1663 0.961 . S
C1650 H1664 0.961 . S
C1651 C1648 1.539 . S
C1651 H1665 0.958 . S
C1651 H1666 0.961 . S
C1651 H1667 0.960 . S
H1652 C1636 0.931 . S
H1653 C1641 0.929 . S
H1654 C1642 0.960 . S
H1655 C1642 0.962 . S
H1656 C1642 0.960 . S
H1657 C1643 0.961 . S
H1658 C1643 0.961 . S
H1659 C1643 0.961 . S
H1660 C1644 0.931 . S
H1661 C1649 0.930 . S
H1662 C1650 0.956 . S
H1663 C1650 0.961 . S
H1664 C1650 0.961 . S
H1665 C1651 0.958 . S
H1666 C1651 0.961 . S
H1667 C1651 0.960 . S
C1668 C1669 1.391 . S
C1668 C1670 1.394 . S
C1668 H1684 0.931 . S
C1669 C1668 1.391 . S
C1669 C1673 1.376 . S
C1670 C1668 1.394 . S
C1670 C1671 1.369 . S
C1670 C1674 1.531 . S
C1671 C1670 1.369 . S
C1671 C1672 1.410 . S
C1671 C1679 1.503 . S
C1672 C1671 1.410 . S
C1672 C1673 1.392 . S
C1672 C1675 1.511 . S
C1673 C1669 1.376 . S
C1673 C1672 1.392 . S
C1673 H1685 0.929 . S
C1674 C1670 1.531 . S
C1674 H1686 0.960 . S
C1674 H1687 0.962 . S
C1674 H1688 0.960 . S
C1675 C1672 1.511 . S
C1675 H1689 0.961 . S
C1675 H1690 0.961 . S
C1675 H1691 0.961 . S
C1676 C1677 1.370 . S
C1676 C1678 1.363 . S
C1676 H1692 0.931 . S
C1677 C1676 1.370 . S
C1677 C1681 1.408 . S
C1678 C1676 1.363 . S
C1678 C1679 1.370 . S
C1678 C1682 1.524 . S
C1679 C1671 1.503 . S
C1679 C1678 1.370 . S
C1679 C1680 1.403 . S
C1680 C1679 1.403 . S
C1680 C1681 1.404 . S
C1680 C1683 1.539 . S
C1681 C1677 1.408 . S
C1681 C1680 1.404 . S
C1681 H1693 0.930 . S
C1682 C1678 1.524 . S
C1682 H1694 0.956 . S
C1682 H1695 0.961 . S
C1682 H1696 0.961 . S
C1683 C1680 1.539 . S
C1683 H1697 0.958 . S
C1683 H1698 0.961 . S
C1683 H1699 0.960 . S
H1684 C1668 0.931 . S
H1685 C1673 0.929 . S
H1686 C1674 0.960 . S
H1687 C1674 0.962 . S
H1688 C1674 0.960 . S
H1689 C1675 0.961 . S
H1690 C1675 0.961 . S
H1691 C1675 0.961 . S
H1692 C1676 0.931 . S
H1693 C1681 0.930 . S
H1694 C1682 0.956 . S
H1695 C1682 0.961 . S
H1696 C1682 0.961 . S
H1697 C1683 0.958 . S
H1698 C1683 0.961 . S
H1699 C1683 0.960 . S
C1700 C1701 1.391 . S
C1700 C1702 1.394 . S
C1700 H1716 0.931 . S
C1701 C1700 1.391 . S
C1701 C1705 1.376 . S
C1702 C1700 1.394 . S
C1702 C1703 1.369 . S
C1702 C1706 1.531 . S
C1703 C1702 1.369 . S
C1703 C1704 1.410 . S
C1703 C1711 1.503 . S
C1704 C1703 1.410 . S
C1704 C1705 1.392 . S
C1704 C1707 1.511 . S
C1705 C1701 1.376 . S
C1705 C1704 1.392 . S
C1705 H1717 0.929 . S
C1706 C1702 1.531 . S
C1706 H1718 0.960 . S
C1706 H1719 0.962 . S
C1706 H1720 0.960 . S
C1707 C1704 1.511 . S
C1707 H1721 0.961 . S
C1707 H1722 0.961 . S
C1707 H1723 0.961 . S
C1708 C1709 1.370 . S
C1708 C1710 1.363 . S
C1708 H1724 0.931 . S
C1709 C1708 1.370 . S
C1709 C1713 1.408 . S
C1710 C1708 1.363 . S
C1710 C1711 1.370 . S
C1710 C1714 1.524 . S
C1711 C1703 1.503 . S
C1711 C1710 1.370 . S
C1711 C1712 1.403 . S
C1712 C1711 1.403 . S
C1712 C1713 1.404 . S
C1712 C1715 1.539 . S
C1713 C1709 1.408 . S
C1713 C1712 1.404 . S
C1713 H1725 0.930 . S
C1714 C1710 1.524 . S
C1714 H1726 0.956 . S
C1714 H1727 0.961 . S
C1714 H1728 0.961 . S
C1715 C1712 1.539 . S
C1715 H1729 0.958 . S
C1715 H1730 0.961 . S
C1715 H1731 0.960 . S
H1716 C1700 0.931 . S
H1717 C1705 0.929 . S
H1718 C1706 0.960 . S
H1719 C1706 0.962 . S
H1720 C1706 0.960 . S
H1721 C1707 0.961 . S
H1722 C1707 0.961 . S
H1723 C1707 0.961 . S
H1724 C1708 0.931 . S
H1725 C1713 0.930 . S
H1726 C1714 0.956 . S
H1727 C1714 0.961 . S
H1728 C1714 0.961 . S
H1729 C1715 0.958 . S
H1730 C1715 0.961 . S
H1731 C1715 0.960 . S
C1732 C1733 1.391 . S
C1732 C1734 1.394 . S
C1732 H1748 0.931 . S
C1733 C1732 1.391 . S
C1733 C1737 1.376 . S
C1734 C1732 1.394 . S
C1734 C1735 1.369 . S
C1734 C1738 1.531 . S
C1735 C1734 1.369 . S
C1735 C1736 1.410 . S
C1735 C1743 1.503 . S
C1736 C1735 1.410 . S
C1736 C1737 1.392 . S
C1736 C1739 1.511 . S
C1737 C1733 1.376 . S
C1737 C1736 1.392 . S
C1737 H1749 0.929 . S
C1738 C1734 1.531 . S
C1738 H1750 0.960 . S
C1738 H1751 0.962 . S
C1738 H1752 0.960 . S
C1739 C1736 1.511 . S
C1739 H1753 0.961 . S
C1739 H1754 0.961 . S
C1739 H1755 0.961 . S
C1740 C1741 1.370 . S
C1740 C1742 1.363 . S
C1740 H1756 0.931 . S
C1741 C1740 1.370 . S
C1741 C1745 1.408 . S
C1742 C1740 1.363 . S
C1742 C1743 1.370 . S
C1742 C1746 1.524 . S
C1743 C1735 1.503 . S
C1743 C1742 1.370 . S
C1743 C1744 1.403 . S
C1744 C1743 1.403 . S
C1744 C1745 1.404 . S
C1744 C1747 1.539 . S
C1745 C1741 1.408 . S
C1745 C1744 1.404 . S
C1745 H1757 0.930 . S
C1746 C1742 1.524 . S
C1746 H1758 0.956 . S
C1746 H1759 0.961 . S
C1746 H1760 0.961 . S
C1747 C1744 1.539 . S
C1747 H1761 0.958 . S
C1747 H1762 0.961 . S
C1747 H1763 0.960 . S
H1748 C1732 0.931 . S
H1749 C1737 0.929 . S
H1750 C1738 0.960 . S
H1751 C1738 0.962 . S
H1752 C1738 0.960 . S
H1753 C1739 0.961 . S
H1754 C1739 0.961 . S
H1755 C1739 0.961 . S
H1756 C1740 0.931 . S
H1757 C1745 0.930 . S
H1758 C1746 0.956 . S
H1759 C1746 0.961 . S
H1760 C1746 0.961 . S
H1761 C1747 0.958 . S
H1762 C1747 0.961 . S
H1763 C1747 0.960 . S
C1764 C1765 1.391 . S
C1764 C1766 1.394 . S
C1764 H1780 0.931 . S
C1765 C1764 1.391 . S
C1765 C1769 1.376 . S
C1766 C1764 1.394 . S
C1766 C1767 1.369 . S
C1766 C1770 1.531 . S
C1767 C1766 1.369 . S
C1767 C1768 1.410 . S
C1767 C1775 1.503 . S
C1768 C1767 1.410 . S
C1768 C1769 1.392 . S
C1768 C1771 1.511 . S
C1769 C1765 1.376 . S
C1769 C1768 1.392 . S
C1769 H1781 0.929 . S
C1770 C1766 1.531 . S
C1770 H1782 0.960 . S
C1770 H1783 0.962 . S
C1770 H1784 0.960 . S
C1771 C1768 1.511 . S
C1771 H1785 0.961 . S
C1771 H1786 0.961 . S
C1771 H1787 0.961 . S
C1772 C1773 1.370 . S
C1772 C1774 1.363 . S
C1772 H1788 0.931 . S
C1773 C1772 1.370 . S
C1773 C1777 1.408 . S
C1774 C1772 1.363 . S
C1774 C1775 1.370 . S
C1774 C1778 1.524 . S
C1775 C1767 1.503 . S
C1775 C1774 1.370 . S
C1775 C1776 1.403 . S
C1776 C1775 1.403 . S
C1776 C1777 1.404 . S
C1776 C1779 1.539 . S
C1777 C1773 1.408 . S
C1777 C1776 1.404 . S
C1777 H1789 0.930 . S
C1778 C1774 1.524 . S
C1778 H1790 0.956 . S
C1778 H1791 0.961 . S
C1778 H1792 0.961 . S
C1779 C1776 1.539 . S
C1779 H1793 0.958 . S
C1779 H1794 0.961 . S
C1779 H1795 0.960 . S
H1780 C1764 0.931 . S
H1781 C1769 0.929 . S
H1782 C1770 0.960 . S
H1783 C1770 0.962 . S
H1784 C1770 0.960 . S
H1785 C1771 0.961 . S
H1786 C1771 0.961 . S
H1787 C1771 0.961 . S
H1788 C1772 0.931 . S
H1789 C1777 0.930 . S
H1790 C1778 0.956 . S
H1791 C1778 0.961 . S
H1792 C1778 0.961 . S
H1793 C1779 0.958 . S
H1794 C1779 0.961 . S
H1795 C1779 0.960 . S
C1796 C1797 1.391 . S
C1796 C1798 1.394 . S
C1796 H1812 0.931 . S
C1797 C1796 1.391 . S
C1797 C1801 1.376 . S
C1798 C1796 1.394 . S
C1798 C1799 1.369 . S
C1798 C1802 1.531 . S
C1799 C1798 1.369 . S
C1799 C1800 1.410 . S
C1799 C1807 1.503 . S
C1800 C1799 1.410 . S
C1800 C1801 1.392 . S
C1800 C1803 1.511 . S
C1801 C1797 1.376 . S
C1801 C1800 1.392 . S
C1801 H1813 0.929 . S
C1802 C1798 1.531 . S
C1802 H1814 0.960 . S
C1802 H1815 0.962 . S
C1802 H1816 0.960 . S
C1803 C1800 1.511 . S
C1803 H1817 0.961 . S
C1803 H1818 0.961 . S
C1803 H1819 0.961 . S
C1804 C1805 1.370 . S
C1804 C1806 1.363 . S
C1804 H1820 0.931 . S
C1805 C1804 1.370 . S
C1805 C1809 1.408 . S
C1806 C1804 1.363 . S
C1806 C1807 1.370 . S
C1806 C1810 1.524 . S
C1807 C1799 1.503 . S
C1807 C1806 1.370 . S
C1807 C1808 1.403 . S
C1808 C1807 1.403 . S
C1808 C1809 1.404 . S
C1808 C1811 1.539 . S
C1809 C1805 1.408 . S
C1809 C1808 1.404 . S
C1809 H1821 0.930 . S
C1810 C1806 1.524 . S
C1810 H1822 0.956 . S
C1810 H1823 0.961 . S
C1810 H1824 0.961 . S
C1811 C1808 1.539 . S
C1811 H1825 0.958 . S
C1811 H1826 0.961 . S
C1811 H1827 0.960 . S
H1812 C1796 0.931 . S
H1813 C1801 0.929 . S
H1814 C1802 0.960 . S
H1815 C1802 0.962 . S
H1816 C1802 0.960 . S
H1817 C1803 0.961 . S
H1818 C1803 0.961 . S
H1819 C1803 0.961 . S
H1820 C1804 0.931 . S
H1821 C1809 0.930 . S
H1822 C1810 0.956 . S
H1823 C1810 0.961 . S
H1824 C1810 0.961 . S
H1825 C1811 0.958 . S
H1826 C1811 0.961 . S
H1827 C1811 0.960 . S
C1828 C1829 1.391 . S
C1828 C1830 1.394 . S
C1828 H1844 0.931 . S
C1829 C1828 1.391 . S
C1829 C1833 1.376 . S
C1830 C1828 1.394 . S
C1830 C1831 1.369 . S
C1830 C1834 1.531 . S
C1831 C1830 1.369 . S
C1831 C1832 1.410 . S
C1831 C1839 1.503 . S
C1832 C1831 1.410 . S
C1832 C1833 1.392 . S
C1832 C1835 1.511 . S
C1833 C1829 1.376 . S
C1833 C1832 1.392 . S
C1833 H1845 0.929 . S
C1834 C1830 1.531 . S
C1834 H1846 0.960 . S
C1834 H1847 0.962 . S
C1834 H1848 0.960 . S
C1835 C1832 1.511 . S
C1835 H1849 0.961 . S
C1835 H1850 0.961 . S
C1835 H1851 0.961 . S
C1836 C1837 1.370 . S
C1836 C1838 1.363 . S
C1836 H1852 0.931 . S
C1837 C1836 1.370 . S
C1837 C1841 1.408 . S
C1838 C1836 1.363 . S
C1838 C1839 1.370 . S
C1838 C1842 1.524 . S
C1839 C1831 1.503 . S
C1839 C1838 1.370 . S
C1839 C1840 1.403 . S
C1840 C1839 1.403 . S
C1840 C1841 1.404 . S
C1840 C1843 1.539 . S
C1841 C1837 1.408 . S
C1841 C1840 1.404 . S
C1841 H1853 0.930 . S
C1842 C1838 1.524 . S
C1842 H1854 0.956 . S
C1842 H1855 0.961 . S
C1842 H1856 0.961 . S
C1843 C1840 1.539 . S
C1843 H1857 0.958 . S
C1843 H1858 0.961 . S
C1843 H1859 0.960 . S
H1844 C1828 0.931 . S
H1845 C1833 0.929 . S
H1846 C1834 0.960 . S
H1847 C1834 0.962 . S
H1848 C1834 0.960 . S
H1849 C1835 0.961 . S
H1850 C1835 0.961 . S
H1851 C1835 0.961 . S
H1852 C1836 0.931 . S
H1853 C1841 0.930 . S
H1854 C1842 0.956 . S
H1855 C1842 0.961 . S
H1856 C1842 0.961 . S
H1857 C1843 0.958 . S
H1858 C1843 0.961 . S
H1859 C1843 0.960 . S
C1860 C1861 1.391 . S
C1860 C1862 1.394 . S
C1860 H1876 0.931 . S
C1861 C1860 1.391 . S
C1861 C1865 1.376 . S
C1862 C1860 1.394 . S
C1862 C1863 1.369 . S
C1862 C1866 1.531 . S
C1863 C1862 1.369 . S
C1863 C1864 1.410 . S
C1863 C1871 1.503 . S
C1864 C1863 1.410 . S
C1864 C1865 1.392 . S
C1864 C1867 1.511 . S
C1865 C1861 1.376 . S
C1865 C1864 1.392 . S
C1865 H1877 0.929 . S
C1866 C1862 1.531 . S
C1866 H1878 0.960 . S
C1866 H1879 0.962 . S
C1866 H1880 0.960 . S
C1867 C1864 1.511 . S
C1867 H1881 0.961 . S
C1867 H1882 0.961 . S
C1867 H1883 0.961 . S
C1868 C1869 1.370 . S
C1868 C1870 1.363 . S
C1868 H1884 0.931 . S
C1869 C1868 1.370 . S
C1869 C1873 1.408 . S
C1870 C1868 1.363 . S
C1870 C1871 1.370 . S
C1870 C1874 1.524 . S
C1871 C1863 1.503 . S
C1871 C1870 1.370 . S
C1871 C1872 1.403 . S
C1872 C1871 1.403 . S
C1872 C1873 1.404 . S
C1872 C1875 1.539 . S
C1873 C1869 1.408 . S
C1873 C1872 1.404 . S
C1873 H1885 0.930 . S
C1874 C1870 1.524 . S
C1874 H1886 0.956 . S
C1874 H1887 0.961 . S
C1874 H1888 0.961 . S
C1875 C1872 1.539 . S
C1875 H1889 0.958 . S
C1875 H1890 0.961 . S
C1875 H1891 0.960 . S
H1876 C1860 0.931 . S
H1877 C1865 0.929 . S
H1878 C1866 0.960 . S
H1879 C1866 0.962 . S
H1880 C1866 0.960 . S
H1881 C1867 0.961 . S
H1882 C1867 0.961 . S
H1883 C1867 0.961 . S
H1884 C1868 0.931 . S
H1885 C1873 0.930 . S
H1886 C1874 0.956 . S
H1887 C1874 0.961 . S
H1888 C1874 0.961 . S
H1889 C1875 0.958 . S
H1890 C1875 0.961 . S
H1891 C1875 0.960 . S
C1892 C1893 1.391 . S
C1892 C1894 1.394 . S
C1892 H1908 0.931 . S
C1893 C1892 1.391 . S
C1893 C1897 1.376 . S
C1894 C1892 1.394 . S
C1894 C1895 1.369 . S
C1894 C1898 1.531 . S
C1895 C1894 1.369 . S
C1895 C1896 1.410 . S
C1895 C1903 1.503 . S
C1896 C1895 1.410 . S
C1896 C1897 1.392 . S
C1896 C1899 1.511 . S
C1897 C1893 1.376 . S
C1897 C1896 1.392 . S
C1897 H1909 0.929 . S
C1898 C1894 1.531 . S
C1898 H1910 0.960 . S
C1898 H1911 0.962 . S
C1898 H1912 0.960 . S
C1899 C1896 1.511 . S
C1899 H1913 0.961 . S
C1899 H1914 0.961 . S
C1899 H1915 0.961 . S
C1900 C1901 1.370 . S
C1900 C1902 1.363 . S
C1900 H1916 0.931 . S
C1901 C1900 1.370 . S
C1901 C1905 1.408 . S
C1902 C1900 1.363 . S
C1902 C1903 1.370 . S
C1902 C1906 1.524 . S
C1903 C1895 1.503 . S
C1903 C1902 1.370 . S
C1903 C1904 1.403 . S
C1904 C1903 1.403 . S
C1904 C1905 1.404 . S
C1904 C1907 1.539 . S
C1905 C1901 1.408 . S
C1905 C1904 1.404 . S
C1905 H1917 0.930 . S
C1906 C1902 1.524 . S
C1906 H1918 0.956 . S
C1906 H1919 0.961 . S
C1906 H1920 0.961 . S
C1907 C1904 1.539 . S
C1907 H1921 0.958 . S
C1907 H1922 0.961 . S
C1907 H1923 0.960 . S
H1908 C1892 0.931 . S
H1909 C1897 0.929 . S
H1910 C1898 0.960 . S
H1911 C1898 0.962 . S
H1912 C1898 0.960 . S
H1913 C1899 0.961 . S
H1914 C1899 0.961 . S
H1915 C1899 0.961 . S
H1916 C1900 0.931 . S
H1917 C1905 0.930 . S
H1918 C1906 0.956 . S
H1919 C1906 0.961 . S
H1920 C1906 0.961 . S
H1921 C1907 0.958 . S
H1922 C1907 0.961 . S
H1923 C1907 0.960 . S
C1924 C1925 1.391 . S
C1924 C1926 1.394 . S
C1924 H1940 0.931 . S
C1925 C1924 1.391 . S
C1925 C1929 1.376 . S
C1926 C1924 1.394 . S
C1926 C1927 1.369 . S
C1926 C1930 1.531 . S
C1927 C1926 1.369 . S
C1927 C1928 1.410 . S
C1927 C1935 1.503 . S
C1928 C1927 1.410 . S
C1928 C1929 1.392 . S
C1928 C1931 1.511 . S
C1929 C1925 1.376 . S
C1929 C1928 1.392 . S
C1929 H1941 0.929 . S
C1930 C1926 1.531 . S
C1930 H1942 0.960 . S
C1930 H1943 0.962 . S
C1930 H1944 0.960 . S
C1931 C1928 1.511 . S
C1931 H1945 0.961 . S
C1931 H1946 0.961 . S
C1931 H1947 0.961 . S
C1932 C1933 1.370 . S
C1932 C1934 1.363 . S
C1932 H1948 0.931 . S
C1933 C1932 1.370 . S
C1933 C1937 1.408 . S
C1934 C1932 1.363 . S
C1934 C1935 1.370 . S
C1934 C1938 1.524 . S
C1935 C1927 1.503 . S
C1935 C1934 1.370 . S
C1935 C1936 1.403 . S
C1936 C1935 1.403 . S
C1936 C1937 1.404 . S
C1936 C1939 1.539 . S
C1937 C1933 1.408 . S
C1937 C1936 1.404 . S
C1937 H1949 0.930 . S
C1938 C1934 1.524 . S
C1938 H1950 0.956 . S
C1938 H1951 0.961 . S
C1938 H1952 0.961 . S
C1939 C1936 1.539 . S
C1939 H1953 0.958 . S
C1939 H1954 0.961 . S
C1939 H1955 0.960 . S
H1940 C1924 0.931 . S
H1941 C1929 0.929 . S
H1942 C1930 0.960 . S
H1943 C1930 0.962 . S
H1944 C1930 0.960 . S
H1945 C1931 0.961 . S
H1946 C1931 0.961 . S
H1947 C1931 0.961 . S
H1948 C1932 0.931 . S
H1949 C1937 0.930 . S
H1950 C1938 0.956 . S
H1951 C1938 0.961 . S
H1952 C1938 0.961 . S
H1953 C1939 0.958 . S
H1954 C1939 0.961 . S
H1955 C1939 0.960 . S
C1956 C1957 1.391 . S
C1956 C1958 1.394 . S
C1956 H1972 0.931 . S
C1957 C1956 1.391 . S
C1957 C1961 1.376 . S
C1958 C1956 1.394 . S
C1958 C1959 1.369 . S
C1958 C1962 1.531 . S
C1959 C1958 1.369 . S
C1959 C1960 1.410 . S
C1959 C1967 1.503 . S
C1960 C1959 1.410 . S
C1960 C1961 1.392 . S
C1960 C1963 1.511 . S
C1961 C1957 1.376 . S
C1961 C1960 1.392 . S
C1961 H1973 0.929 . S
C1962 C1958 1.531 . S
C1962 H1974 0.960 . S
C1962 H1975 0.962 . S
C1962 H1976 0.960 . S
C1963 C1960 1.511 . S
C1963 H1977 0.961 . S
C1963 H1978 0.961 . S
C1963 H1979 0.961 . S
C1964 C1965 1.370 . S
C1964 C1966 1.363 . S
C1964 H1980 0.931 . S
C1965 C1964 1.370 . S
C1965 C1969 1.408 . S
C1966 C1964 1.363 . S
C1966 C1967 1.370 . S
C1966 C1970 1.524 . S
C1967 C1959 1.503 . S
C1967 C1966 1.370 . S
C1967 C1968 1.403 . S
C1968 C1967 1.403 . S
C1968 C1969 1.404 . S
C1968 C1971 1.539 . S
C1969 C1965 1.408 . S
C1969 C1968 1.404 . S
C1969 H1981 0.930 . S
C1970 C1966 1.524 . S
C1970 H1982 0.956 . S
C1970 H1983 0.961 . S
C1970 H1984 0.961 . S
C1971 C1968 1.539 . S
C1971 H1985 0.958 . S
C1971 H1986 0.961 . S
C1971 H1987 0.960 . S
H1972 C1956 0.931 . S
H1973 C1961 0.929 . S
H1974 C1962 0.960 . S
H1975 C1962 0.962 . S
H1976 C1962 0.960 . S
H1977 C1963 0.961 . S
H1978 C1963 0.961 . S
H1979 C1963 0.961 . S
H1980 C1964 0.931 . S
H1981 C1969 0.930 . S
H1982 C1970 0.956 . S
H1983 C1970 0.961 . S
H1984 C1970 0.961 . S
H1985 C1971 0.958 . S
H1986 C1971 0.961 . S
H1987 C1971 0.960 . S
C1988 C1989 1.391 . S
C1988 C1990 1.394 . S
C1988 H2004 0.931 . S
C1989 C1988 1.391 . S
C1989 C1993 1.376 . S
C1990 C1988 1.394 . S
C1990 C1991 1.369 . S
C1990 C1994 1.531 . S
C1991 C1990 1.369 . S
C1991 C1992 1.410 . S
C1991 C1999 1.503 . S
C1992 C1991 1.410 . S
C1992 C1993 1.392 . S
C1992 C1995 1.511 . S
C1993 C1989 1.376 . S
C1993 C1992 1.392 . S
C1993 H2005 0.929 . S
C1994 C1990 1.531 . S
C1994 H2006 0.960 . S
C1994 H2007 0.962 . S
C1994 H2008 0.960 . S
C1995 C1992 1.511 . S
C1995 H2009 0.961 . S
C1995 H2010 0.961 . S
C1995 H2011 0.961 . S
C1996 C1997 1.370 . S
C1996 C1998 1.363 . S
C1996 H2012 0.931 . S
C1997 C1996 1.370 . S
C1997 C2001 1.408 . S
C1998 C1996 1.363 . S
C1998 C1999 1.370 . S
C1998 C2002 1.524 . S
C1999 C1991 1.503 . S
C1999 C1998 1.370 . S
C1999 C2000 1.403 . S
C2000 C1999 1.403 . S
C2000 C2001 1.404 . S
C2000 C2003 1.539 . S
C2001 C1997 1.408 . S
C2001 C2000 1.404 . S
C2001 H2013 0.930 . S
C2002 C1998 1.524 . S
C2002 H2014 0.956 . S
C2002 H2015 0.961 . S
C2002 H2016 0.961 . S
C2003 C2000 1.539 . S
C2003 H2017 0.958 . S
C2003 H2018 0.961 . S
C2003 H2019 0.960 . S
H2004 C1988 0.931 . S
H2005 C1993 0.929 . S
H2006 C1994 0.960 . S
H2007 C1994 0.962 . S
H2008 C1994 0.960 . S
H2009 C1995 0.961 . S
H2010 C1995 0.961 . S
H2011 C1995 0.961 . S
H2012 C1996 0.931 . S
H2013 C2001 0.930 . S
H2014 C2002 0.956 . S
H2015 C2002 0.961 . S
H2016 C2002 0.961 . S
H2017 C2003 0.958 . S
H2018 C2003 0.961 . S
H2019 C2003 0.960 . S
C2020 C2021 1.391 . S
C2020 C2022 1.394 . S
C2020 H2036 0.931 . S
C2021 C2020 1.391 . S
C2021 C2025 1.376 . S
C2022 C2020 1.394 . S
C2022 C2023 1.369 . S
C2022 C2026 1.531 . S
C2023 C2022 1.369 . S
C2023 C2024 1.410 . S
C2023 C2031 1.503 . S
C2024 C2023 1.410 . S
C2024 C2025 1.392 . S
C2024 C2027 1.511 . S
C2025 C2021 1.376 . S
C2025 C2024 1.392 . S
C2025 H2037 0.929 . S
C2026 C2022 1.531 . S
C2026 H2038 0.960 . S
C2026 H2039 0.962 . S
C2026 H2040 0.960 . S
C2027 C2024 1.511 . S
C2027 H2041 0.961 . S
C2027 H2042 0.961 . S
C2027 H2043 0.961 . S
C2028 C2029 1.370 . S
C2028 C2030 1.363 . S
C2028 H2044 0.931 . S
C2029 C2028 1.370 . S
C2029 C2033 1.408 . S
C2030 C2028 1.363 . S
C2030 C2031 1.370 . S
C2030 C2034 1.524 . S
C2031 C2023 1.503 . S
C2031 C2030 1.370 . S
C2031 C2032 1.403 . S
C2032 C2031 1.403 . S
C2032 C2033 1.404 . S
C2032 C2035 1.539 . S
C2033 C2029 1.408 . S
C2033 C2032 1.404 . S
C2033 H2045 0.930 . S
C2034 C2030 1.524 . S
C2034 H2046 0.956 . S
C2034 H2047 0.961 . S
C2034 H2048 0.961 . S
C2035 C2032 1.539 . S
C2035 H2049 0.958 . S
C2035 H2050 0.961 . S
C2035 H2051 0.960 . S
H2036 C2020 0.931 . S
H2037 C2025 0.929 . S
H2038 C2026 0.960 . S
H2039 C2026 0.962 . S
H2040 C2026 0.960 . S
H2041 C2027 0.961 . S
H2042 C2027 0.961 . S
H2043 C2027 0.961 . S
H2044 C2028 0.931 . S
H2045 C2033 0.930 . S
H2046 C2034 0.956 . S
H2047 C2034 0.961 . S
H2048 C2034 0.961 . S
H2049 C2035 0.958 . S
H2050 C2035 0.961 . S
H2051 C2035 0.960 . S
C2052 C2053 1.391 . S
C2052 C2054 1.394 . S
C2052 H2068 0.931 . S
C2053 C2052 1.391 . S
C2053 C2057 1.376 . S
C2054 C2052 1.394 . S
C2054 C2055 1.369 . S
C2054 C2058 1.531 . S
C2055 C2054 1.369 . S
C2055 C2056 1.410 . S
C2055 C2063 1.503 . S
C2056 C2055 1.410 . S
C2056 C2057 1.392 . S
C2056 C2059 1.511 . S
C2057 C2053 1.376 . S
C2057 C2056 1.392 . S
C2057 H2069 0.929 . S
C2058 C2054 1.531 . S
C2058 H2070 0.960 . S
C2058 H2071 0.962 . S
C2058 H2072 0.960 . S
C2059 C2056 1.511 . S
C2059 H2073 0.961 . S
C2059 H2074 0.961 . S
C2059 H2075 0.961 . S
C2060 C2061 1.370 . S
C2060 C2062 1.363 . S
C2060 H2076 0.931 . S
C2061 C2060 1.370 . S
C2061 C2065 1.408 . S
C2062 C2060 1.363 . S
C2062 C2063 1.370 . S
C2062 C2066 1.524 . S
C2063 C2055 1.503 . S
C2063 C2062 1.370 . S
C2063 C2064 1.403 . S
C2064 C2063 1.403 . S
C2064 C2065 1.404 . S
C2064 C2067 1.539 . S
C2065 C2061 1.408 . S
C2065 C2064 1.404 . S
C2065 H2077 0.930 . S
C2066 C2062 1.524 . S
C2066 H2078 0.956 . S
C2066 H2079 0.961 . S
C2066 H2080 0.961 . S
C2067 C2064 1.539 . S
C2067 H2081 0.958 . S
C2067 H2082 0.961 . S
C2067 H2083 0.960 . S
H2068 C2052 0.931 . S
H2069 C2057 0.929 . S
H2070 C2058 0.960 . S
H2071 C2058 0.962 . S
H2072 C2058 0.960 . S
H2073 C2059 0.961 . S
H2074 C2059 0.961 . S
H2075 C2059 0.961 . S
H2076 C2060 0.931 . S
H2077 C2065 0.930 . S
H2078 C2066 0.956 . S
H2079 C2066 0.961 . S
H2080 C2066 0.961 . S
H2081 C2067 0.958 . S
H2082 C2067 0.961 . S
H2083 C2067 0.960 . S
C2084 C2085 1.391 . S
C2084 C2086 1.394 . S
C2084 H2100 0.931 . S
C2085 C2084 1.391 . S
C2085 C2089 1.376 . S
C2086 C2084 1.394 . S
C2086 C2087 1.369 . S
C2086 C2090 1.531 . S
C2087 C2086 1.369 . S
C2087 C2088 1.410 . S
C2087 C2095 1.503 . S
C2088 C2087 1.410 . S
C2088 C2089 1.392 . S
C2088 C2091 1.511 . S
C2089 C2085 1.376 . S
C2089 C2088 1.392 . S
C2089 H2101 0.929 . S
C2090 C2086 1.531 . S
C2090 H2102 0.960 . S
C2090 H2103 0.962 . S
C2090 H2104 0.960 . S
C2091 C2088 1.511 . S
C2091 H2105 0.961 . S
C2091 H2106 0.961 . S
C2091 H2107 0.961 . S
C2092 C2093 1.370 . S
C2092 C2094 1.363 . S
C2092 H2108 0.931 . S
C2093 C2092 1.370 . S
C2093 C2097 1.408 . S
C2094 C2092 1.363 . S
C2094 C2095 1.370 . S
C2094 C2098 1.524 . S
C2095 C2087 1.503 . S
C2095 C2094 1.370 . S
C2095 C2096 1.403 . S
C2096 C2095 1.403 . S
C2096 C2097 1.404 . S
C2096 C2099 1.539 . S
C2097 C2093 1.408 . S
C2097 C2096 1.404 . S
C2097 H2109 0.930 . S
C2098 C2094 1.524 . S
C2098 H2110 0.956 . S
C2098 H2111 0.961 . S
C2098 H2112 0.961 . S
C2099 C2096 1.539 . S
C2099 H2113 0.958 . S
C2099 H2114 0.961 . S
C2099 H2115 0.960 . S
H2100 C2084 0.931 . S
H2101 C2089 0.929 . S
H2102 C2090 0.960 . S
H2103 C2090 0.962 . S
H2104 C2090 0.960 . S
H2105 C2091 0.961 . S
H2106 C2091 0.961 . S
H2107 C2091 0.961 . S
H2108 C2092 0.931 . S
H2109 C2097 0.930 . S
H2110 C2098 0.956 . S
H2111 C2098 0.961 . S
H2112 C2098 0.961 . S
H2113 C2099 0.958 . S
H2114 C2099 0.961 . S
H2115 C2099 0.960 . S
C2116 C2117 1.391 . S
C2116 C2118 1.394 . S
C2116 H2132 0.931 . S
C2117 C2116 1.391 . S
C2117 C2121 1.376 . S
C2118 C2116 1.394 . S
C2118 C2119 1.369 . S
C2118 C2122 1.531 . S
C2119 C2118 1.369 . S
C2119 C2120 1.410 . S
C2119 C2127 1.503 . S
C2120 C2119 1.410 . S
C2120 C2121 1.392 . S
C2120 C2123 1.511 . S
C2121 C2117 1.376 . S
C2121 C2120 1.392 . S
C2121 H2133 0.929 . S
C2122 C2118 1.531 . S
C2122 H2134 0.960 . S
C2122 H2135 0.962 . S
C2122 H2136 0.960 . S
C2123 C2120 1.511 . S
C2123 H2137 0.961 . S
C2123 H2138 0.961 . S
C2123 H2139 0.961 . S
C2124 C2125 1.370 . S
C2124 C2126 1.363 . S
C2124 H2140 0.931 . S
C2125 C2124 1.370 . S
C2125 C2129 1.408 . S
C2126 C2124 1.363 . S
C2126 C2127 1.370 . S
C2126 C2130 1.524 . S
C2127 C2119 1.503 . S
C2127 C2126 1.370 . S
C2127 C2128 1.403 . S
C2128 C2127 1.403 . S
C2128 C2129 1.404 . S
C2128 C2131 1.539 . S
C2129 C2125 1.408 . S
C2129 C2128 1.404 . S
C2129 H2141 0.930 . S
C2130 C2126 1.524 . S
C2130 H2142 0.956 . S
C2130 H2143 0.961 . S
C2130 H2144 0.961 . S
C2131 C2128 1.539 . S
C2131 H2145 0.958 . S
C2131 H2146 0.961 . S
C2131 H2147 0.960 . S
H2132 C2116 0.931 . S
H2133 C2121 0.929 . S
H2134 C2122 0.960 . S
H2135 C2122 0.962 . S
H2136 C2122 0.960 . S
H2137 C2123 0.961 . S
H2138 C2123 0.961 . S
H2139 C2123 0.961 . S
H2140 C2124 0.931 . S
H2141 C2129 0.930 . S
H2142 C2130 0.956 . S
H2143 C2130 0.961 . S
H2144 C2130 0.961 . S
H2145 C2131 0.958 . S
H2146 C2131 0.961 . S
H2147 C2131 0.960 . S
C2148 C2149 1.391 . S
C2148 C2150 1.394 . S
C2148 H2164 0.931 . S
C2149 C2148 1.391 . S
C2149 C2153 1.376 . S
C2150 C2148 1.394 . S
C2150 C2151 1.369 . S
C2150 C2154 1.531 . S
C2151 C2150 1.369 . S
C2151 C2152 1.410 . S
C2151 C2159 1.503 . S
C2152 C2151 1.410 . S
C2152 C2153 1.392 . S
C2152 C2155 1.511 . S
C2153 C2149 1.376 . S
C2153 C2152 1.392 . S
C2153 H2165 0.929 . S
C2154 C2150 1.531 . S
C2154 H2166 0.960 . S
C2154 H2167 0.962 . S
C2154 H2168 0.960 . S
C2155 C2152 1.511 . S
C2155 H2169 0.961 . S
C2155 H2170 0.961 . S
C2155 H2171 0.961 . S
C2156 C2157 1.370 . S
C2156 C2158 1.363 . S
C2156 H2172 0.931 . S
C2157 C2156 1.370 . S
C2157 C2161 1.408 . S
C2158 C2156 1.363 . S
C2158 C2159 1.370 . S
C2158 C2162 1.524 . S
C2159 C2151 1.503 . S
C2159 C2158 1.370 . S
C2159 C2160 1.403 . S
C2160 C2159 1.403 . S
C2160 C2161 1.404 . S
C2160 C2163 1.539 . S
C2161 C2157 1.408 . S
C2161 C2160 1.404 . S
C2161 H2173 0.930 . S
C2162 C2158 1.524 . S
C2162 H2174 0.956 . S
C2162 H2175 0.961 . S
C2162 H2176 0.961 . S
C2163 C2160 1.539 . S
C2163 H2177 0.958 . S
C2163 H2178 0.961 . S
C2163 H2179 0.960 . S
H2164 C2148 0.931 . S
H2165 C2153 0.929 . S
H2166 C2154 0.960 . S
H2167 C2154 0.962 . S
H2168 C2154 0.960 . S
H2169 C2155 0.961 . S
H2170 C2155 0.961 . S
H2171 C2155 0.961 . S
H2172 C2156 0.931 . S
H2173 C2161 0.930 . S
H2174 C2162 0.956 . S
H2175 C2162 0.961 . S
H2176 C2162 0.961 . S
H2177 C2163 0.958 . S
H2178 C2163 0.961 . S
H2179 C2163 0.960 . S
C653 C355 2.409 . S
C645 C18 2.383 . S
C685 C333 2.608 . S
C677 C59 2.608 . S
C717 C330 0.682 . S
C709 C98 0.636 . S
C741 C125 1.094 . S
C749 C342 1.070 . S
C773 C169 2.511 . S
C781 C325 2.516 . S
C813 C347 0.702 . S
C805 C218 0.718 . S
C837 C255 1.329 . S
C845 C352 1.253 . S
C869 C288 2.386 . S
C877 C348 2.413 . S
C909 C406 1.000 . S
C901 C15 1.034 . S
C933 C45 0.724 . S
C941 C456 0.844 . S
C973 C379 0.469 . S
C965 C95 0.385 . S
C1005 C455 0.469 . S
C997 C128 0.456 . S
C1029 C178 0.579 . S
C1037 C384 0.489 . S
C1069 C450 1.682 . S
C1061 C215 1.769 . S
C1093 C249 2.132 . S
C1101 C409 2.214 . S
C1125 C299 2.290 . S
C1133 C441 2.294 1_556 S
C1157 C9 2.874 . S
C1165 C433 2.880 . S
C1189 C175 0.536 . S
C1197 C463 0.517 . S
C1229 C387 1.803 . S
C1221 C209 1.815 . S
C1261 C438 1.050 . S
C1253 C258 1.038 . S
C1285 C285 1.490 . S
C1293 C396 1.435 . S
C1317 C89 3.349 . S
C1325 C460 3.313 . S
C1357 C402 2.546 . S
C1349 C139 2.451 . S
C1381 C48 1.019 . S
C1389 C401 1.034 . S
C1413 C298 2.383 . S
C1421 C517 2.410 . S
C1445 C179 2.508 . S
C1453 C495 2.518 . S
C1485 C492 0.699 . S
C1477 C208 0.664 . S
C1517 C504 1.246 1_556 S
C1509 C245 1.288 . S
C1541 C49 2.579 . S
C1549 C487 2.607 . S
C1581 C509 0.696 . S
C1573 C88 0.668 . S
C1605 C135 1.095 . S
C1613 C514 1.073 . S
C1637 C8 2.395 . S
C1645 C510 2.408 . S
C1669 C295 1.452 . S
C1677 C568 1.448 . S
C1709 C618 0.504 . S
C1701 C165 0.562 . S
C1733 C219 1.789 . S
C1741 C541 1.793 . S
C1765 C248 1.059 . S
C1773 C617 1.046 . S
C1805 C546 1.024 . S
C1797 C58 1.023 . S
C1829 C99 3.325 . S
C1837 C612 3.305 . S
C1869 C571 2.542 . S
C1861 C129 2.438 . S
C1901 C603 2.871 . S
C1893 C19 2.872 . S
C1933 C595 2.290 . S
C1925 C289 2.288 . S
C1957 C55 0.862 . S
C1965 C625 0.783 . S
C1989 C85 0.435 . S
C1997 C549 0.445 . S
C2029 C600 0.480 . S
C2021 C138 0.483 . S
C2053 C5 1.044 . S
C2061 C558 1.038 . S
C2085 C205 1.769 . S
C2093 C622 1.714 . S
C2125 C564 2.225 . S
C2117 C259 2.162 . S
C2157 C563 0.495 . S
C2149 C168 0.608 . S
