# Generated by pormake.
# Topology iac, (4,6)-cn, num edge types: 1
# Building blocks:
#     Node 0, Type 0, BuildingBlock: CEKHIL_clean_sbu_0, # of connection points: 4
#     Node 1, Type 0, BuildingBlock: CEKHIL_clean_sbu_0, # of connection points: 4
#     Node 2, Type 0, BuildingBlock: CEKHIL_clean_sbu_0, # of connection points: 4
#     Node 3, Type 0, BuildingBlock: CEKHIL_clean_sbu_0, # of connection points: 4
#     Node 4, Type 0, BuildingBlock: CEKHIL_clean_sbu_0, # of connection points: 4
#     Node 5, Type 0, BuildingBlock: CEKHIL_clean_sbu_0, # of connection points: 4
#     Node 6, Type 0, BuildingBlock: CEKHIL_clean_sbu_0, # of connection points: 4
#     Node 7, Type 0, BuildingBlock: CEKHIL_clean_sbu_0, # of connection points: 4
#     Node 8, Type 0, BuildingBlock: CEKHIL_clean_sbu_0, # of connection points: 4
#     Node 9, Type 0, BuildingBlock: CEKHIL_clean_sbu_0, # of connection points: 4
#     Node 10, Type 0, BuildingBlock: CEKHIL_clean_sbu_0, # of connection points: 4
#     Node 11, Type 0, BuildingBlock: CEKHIL_clean_sbu_0, # of connection points: 4
#     Node 12, Type 0, BuildingBlock: CEKHIL_clean_sbu_0, # of connection points: 4
#     Node 13, Type 0, BuildingBlock: CEKHIL_clean_sbu_0, # of connection points: 4
#     Node 14, Type 0, BuildingBlock: CEKHIL_clean_sbu_0, # of connection points: 4
#     Node 15, Type 0, BuildingBlock: CEKHIL_clean_sbu_0, # of connection points: 4
#     Node 16, Type 0, BuildingBlock: CEKHIL_clean_sbu_0, # of connection points: 4
#     Node 17, Type 0, BuildingBlock: CEKHIL_clean_sbu_0, # of connection points: 4
#     Node 18, Type 0, BuildingBlock: CEKHIL_clean_sbu_0, # of connection points: 4
#     Node 19, Type 0, BuildingBlock: CEKHIL_clean_sbu_0, # of connection points: 4
#     Node 20, Type 0, BuildingBlock: CEKHIL_clean_sbu_0, # of connection points: 4
#     Node 21, Type 0, BuildingBlock: CEKHIL_clean_sbu_0, # of connection points: 4
#     Node 22, Type 0, BuildingBlock: CEKHIL_clean_sbu_0, # of connection points: 4
#     Node 23, Type 0, BuildingBlock: CEKHIL_clean_sbu_0, # of connection points: 4
#     Node 24, Type 1, BuildingBlock: FUNLAD_clean_sbu_0, # of connection points: 6
#     Node 25, Type 1, BuildingBlock: FUNLAD_clean_sbu_0, # of connection points: 6
#     Node 26, Type 1, BuildingBlock: FUNLAD_clean_sbu_0, # of connection points: 6
#     Node 27, Type 1, BuildingBlock: FUNLAD_clean_sbu_0, # of connection points: 6
#     Node 28, Type 1, BuildingBlock: FUNLAD_clean_sbu_0, # of connection points: 6
#     Node 29, Type 1, BuildingBlock: FUNLAD_clean_sbu_0, # of connection points: 6
#     Node 30, Type 1, BuildingBlock: FUNLAD_clean_sbu_0, # of connection points: 6
#     Node 31, Type 1, BuildingBlock: FUNLAD_clean_sbu_0, # of connection points: 6
#     Node 32, Type 1, BuildingBlock: FUNLAD_clean_sbu_0, # of connection points: 6
#     Node 33, Type 1, BuildingBlock: FUNLAD_clean_sbu_0, # of connection points: 6
#     Node 34, Type 1, BuildingBlock: FUNLAD_clean_sbu_0, # of connection points: 6
#     Node 35, Type 1, BuildingBlock: FUNLAD_clean_sbu_0, # of connection points: 6
#     Node 36, Type 1, BuildingBlock: FUNLAD_clean_sbu_0, # of connection points: 6
#     Node 37, Type 1, BuildingBlock: FUNLAD_clean_sbu_0, # of connection points: 6
#     Node 38, Type 1, BuildingBlock: FUNLAD_clean_sbu_0, # of connection points: 6
#     Node 39, Type 1, BuildingBlock: FUNLAD_clean_sbu_0, # of connection points: 6
#     Edge 40, Type (0, 1), BuildingBlock: OJICUG_clean_linker_0, # of connection points: 2
#     Edge 41, Type (0, 1), BuildingBlock: OJICUG_clean_linker_0, # of connection points: 2
#     Edge 42, Type (0, 1), BuildingBlock: OJICUG_clean_linker_0, # of connection points: 2
#     Edge 43, Type (0, 1), BuildingBlock: OJICUG_clean_linker_0, # of connection points: 2
#     Edge 44, Type (0, 1), BuildingBlock: OJICUG_clean_linker_0, # of connection points: 2
#     Edge 45, Type (0, 1), BuildingBlock: OJICUG_clean_linker_0, # of connection points: 2
#     Edge 46, Type (0, 1), BuildingBlock: OJICUG_clean_linker_0, # of connection points: 2
#     Edge 47, Type (0, 1), BuildingBlock: OJICUG_clean_linker_0, # of connection points: 2
#     Edge 48, Type (0, 1), BuildingBlock: OJICUG_clean_linker_0, # of connection points: 2
#     Edge 49, Type (0, 1), BuildingBlock: OJICUG_clean_linker_0, # of connection points: 2
#     Edge 50, Type (0, 1), BuildingBlock: OJICUG_clean_linker_0, # of connection points: 2
#     Edge 51, Type (0, 1), BuildingBlock: OJICUG_clean_linker_0, # of connection points: 2
#     Edge 52, Type (0, 1), BuildingBlock: OJICUG_clean_linker_0, # of connection points: 2
#     Edge 53, Type (0, 1), BuildingBlock: OJICUG_clean_linker_0, # of connection points: 2
#     Edge 54, Type (0, 1), BuildingBlock: OJICUG_clean_linker_0, # of connection points: 2
#     Edge 55, Type (0, 1), BuildingBlock: OJICUG_clean_linker_0, # of connection points: 2
#     Edge 56, Type (0, 1), BuildingBlock: OJICUG_clean_linker_0, # of connection points: 2
#     Edge 57, Type (0, 1), BuildingBlock: OJICUG_clean_linker_0, # of connection points: 2
#     Edge 58, Type (0, 1), BuildingBlock: OJICUG_clean_linker_0, # of connection points: 2
#     Edge 59, Type (0, 1), BuildingBlock: OJICUG_clean_linker_0, # of connection points: 2
#     Edge 60, Type (0, 1), BuildingBlock: OJICUG_clean_linker_0, # of connection points: 2
#     Edge 61, Type (0, 1), BuildingBlock: OJICUG_clean_linker_0, # of connection points: 2
#     Edge 62, Type (0, 1), BuildingBlock: OJICUG_clean_linker_0, # of connection points: 2
#     Edge 63, Type (0, 1), BuildingBlock: OJICUG_clean_linker_0, # of connection points: 2
#     Edge 64, Type (0, 1), BuildingBlock: OJICUG_clean_linker_0, # of connection points: 2
#     Edge 65, Type (0, 1), BuildingBlock: OJICUG_clean_linker_0, # of connection points: 2
#     Edge 66, Type (0, 1), BuildingBlock: OJICUG_clean_linker_0, # of connection points: 2
#     Edge 67, Type (0, 1), BuildingBlock: OJICUG_clean_linker_0, # of connection points: 2
#     Edge 68, Type (0, 1), BuildingBlock: OJICUG_clean_linker_0, # of connection points: 2
#     Edge 69, Type (0, 1), BuildingBlock: OJICUG_clean_linker_0, # of connection points: 2
#     Edge 70, Type (0, 1), BuildingBlock: OJICUG_clean_linker_0, # of connection points: 2
#     Edge 71, Type (0, 1), BuildingBlock: OJICUG_clean_linker_0, # of connection points: 2
#     Edge 72, Type (0, 1), BuildingBlock: OJICUG_clean_linker_0, # of connection points: 2
#     Edge 73, Type (0, 1), BuildingBlock: OJICUG_clean_linker_0, # of connection points: 2
#     Edge 74, Type (0, 1), BuildingBlock: OJICUG_clean_linker_0, # of connection points: 2
#     Edge 75, Type (0, 1), BuildingBlock: OJICUG_clean_linker_0, # of connection points: 2
#     Edge 76, Type (0, 1), BuildingBlock: OJICUG_clean_linker_0, # of connection points: 2
#     Edge 77, Type (0, 1), BuildingBlock: OJICUG_clean_linker_0, # of connection points: 2
#     Edge 78, Type (0, 1), BuildingBlock: OJICUG_clean_linker_0, # of connection points: 2
#     Edge 79, Type (0, 1), BuildingBlock: OJICUG_clean_linker_0, # of connection points: 2
#     Edge 80, Type (0, 1), BuildingBlock: OJICUG_clean_linker_0, # of connection points: 2
#     Edge 81, Type (0, 1), BuildingBlock: OJICUG_clean_linker_0, # of connection points: 2
#     Edge 82, Type (0, 1), BuildingBlock: OJICUG_clean_linker_0, # of connection points: 2
#     Edge 83, Type (0, 1), BuildingBlock: OJICUG_clean_linker_0, # of connection points: 2
#     Edge 84, Type (0, 1), BuildingBlock: OJICUG_clean_linker_0, # of connection points: 2
#     Edge 85, Type (0, 1), BuildingBlock: OJICUG_clean_linker_0, # of connection points: 2
#     Edge 86, Type (0, 1), BuildingBlock: OJICUG_clean_linker_0, # of connection points: 2
#     Edge 87, Type (0, 1), BuildingBlock: OJICUG_clean_linker_0, # of connection points: 2
#     Edge 88, Type (0, 1), BuildingBlock: OJICUG_clean_linker_0, # of connection points: 2
#     Edge 89, Type (0, 1), BuildingBlock: OJICUG_clean_linker_0, # of connection points: 2
#     Edge 90, Type (0, 1), BuildingBlock: OJICUG_clean_linker_0, # of connection points: 2
#     Edge 91, Type (0, 1), BuildingBlock: OJICUG_clean_linker_0, # of connection points: 2
#     Edge 92, Type (0, 1), BuildingBlock: OJICUG_clean_linker_0, # of connection points: 2
#     Edge 93, Type (0, 1), BuildingBlock: OJICUG_clean_linker_0, # of connection points: 2
#     Edge 94, Type (0, 1), BuildingBlock: OJICUG_clean_linker_0, # of connection points: 2
#     Edge 95, Type (0, 1), BuildingBlock: OJICUG_clean_linker_0, # of connection points: 2
#     Edge 96, Type (0, 1), BuildingBlock: OJICUG_clean_linker_0, # of connection points: 2
#     Edge 97, Type (0, 1), BuildingBlock: OJICUG_clean_linker_0, # of connection points: 2
#     Edge 98, Type (0, 1), BuildingBlock: OJICUG_clean_linker_0, # of connection points: 2
#     Edge 99, Type (0, 1), BuildingBlock: OJICUG_clean_linker_0, # of connection points: 2
#     Edge 100, Type (0, 1), BuildingBlock: OJICUG_clean_linker_0, # of connection points: 2
#     Edge 101, Type (0, 1), BuildingBlock: OJICUG_clean_linker_0, # of connection points: 2
#     Edge 102, Type (0, 1), BuildingBlock: OJICUG_clean_linker_0, # of connection points: 2
#     Edge 103, Type (0, 1), BuildingBlock: OJICUG_clean_linker_0, # of connection points: 2
#     Edge 104, Type (0, 1), BuildingBlock: OJICUG_clean_linker_0, # of connection points: 2
#     Edge 105, Type (0, 1), BuildingBlock: OJICUG_clean_linker_0, # of connection points: 2
#     Edge 106, Type (0, 1), BuildingBlock: OJICUG_clean_linker_0, # of connection points: 2
#     Edge 107, Type (0, 1), BuildingBlock: OJICUG_clean_linker_0, # of connection points: 2
#     Edge 108, Type (0, 1), BuildingBlock: OJICUG_clean_linker_0, # of connection points: 2
#     Edge 109, Type (0, 1), BuildingBlock: OJICUG_clean_linker_0, # of connection points: 2
#     Edge 110, Type (0, 1), BuildingBlock: OJICUG_clean_linker_0, # of connection points: 2
#     Edge 111, Type (0, 1), BuildingBlock: OJICUG_clean_linker_0, # of connection points: 2
#     Edge 112, Type (0, 1), BuildingBlock: OJICUG_clean_linker_0, # of connection points: 2
#     Edge 113, Type (0, 1), BuildingBlock: OJICUG_clean_linker_0, # of connection points: 2
#     Edge 114, Type (0, 1), BuildingBlock: OJICUG_clean_linker_0, # of connection points: 2
#     Edge 115, Type (0, 1), BuildingBlock: OJICUG_clean_linker_0, # of connection points: 2
#     Edge 116, Type (0, 1), BuildingBlock: OJICUG_clean_linker_0, # of connection points: 2
#     Edge 117, Type (0, 1), BuildingBlock: OJICUG_clean_linker_0, # of connection points: 2
#     Edge 118, Type (0, 1), BuildingBlock: OJICUG_clean_linker_0, # of connection points: 2
#     Edge 119, Type (0, 1), BuildingBlock: OJICUG_clean_linker_0, # of connection points: 2
#     Edge 120, Type (0, 1), BuildingBlock: OJICUG_clean_linker_0, # of connection points: 2
#     Edge 121, Type (0, 1), BuildingBlock: OJICUG_clean_linker_0, # of connection points: 2
#     Edge 122, Type (0, 1), BuildingBlock: OJICUG_clean_linker_0, # of connection points: 2
#     Edge 123, Type (0, 1), BuildingBlock: OJICUG_clean_linker_0, # of connection points: 2
#     Edge 124, Type (0, 1), BuildingBlock: OJICUG_clean_linker_0, # of connection points: 2
#     Edge 125, Type (0, 1), BuildingBlock: OJICUG_clean_linker_0, # of connection points: 2
#     Edge 126, Type (0, 1), BuildingBlock: OJICUG_clean_linker_0, # of connection points: 2
#     Edge 127, Type (0, 1), BuildingBlock: OJICUG_clean_linker_0, # of connection points: 2
#     Edge 128, Type (0, 1), BuildingBlock: OJICUG_clean_linker_0, # of connection points: 2
#     Edge 129, Type (0, 1), BuildingBlock: OJICUG_clean_linker_0, # of connection points: 2
#     Edge 130, Type (0, 1), BuildingBlock: OJICUG_clean_linker_0, # of connection points: 2
#     Edge 131, Type (0, 1), BuildingBlock: OJICUG_clean_linker_0, # of connection points: 2
#     Edge 132, Type (0, 1), BuildingBlock: OJICUG_clean_linker_0, # of connection points: 2
#     Edge 133, Type (0, 1), BuildingBlock: OJICUG_clean_linker_0, # of connection points: 2
#     Edge 134, Type (0, 1), BuildingBlock: OJICUG_clean_linker_0, # of connection points: 2
#     Edge 135, Type (0, 1), BuildingBlock: OJICUG_clean_linker_0, # of connection points: 2
# Relax obj value: 0.364
# Max RMSD: 0.309
# Mean RMSD: 0.140
data_MOF--net-iac--node1-CEKHIL_clean_sbu_0--node2-FUNLAD_clean_sbu_0--edge1-OJICUG_clean_linker_0
_symmetry_space_group_name_H-M    P1
_symmetry_Int_Tables_number       1
_symmetry_cell_setting            triclinic
loop_
_symmetry_equiv_pos_as_xyz
'x, y, z'
_cell_length_a     40.479202
_cell_length_b     38.606389
_cell_length_c     44.356012
_cell_angle_alpha  89.266691
_cell_angle_beta   92.151906
_cell_angle_gamma 89.970311
loop_
_atom_site_label
_atom_site_type_symbol
_atom_site_fract_x
_atom_site_fract_y
_atom_site_fract_z
_atom_type_partial_charge
Co0 Co 0.07147 0.22115 0.1573 0.0
O1 O 0.02654 0.2075 0.16171 0.0
O2 O 0.068 0.1956 0.19459 0.0
C3 C 0.06147 0.27569 0.14409 0.0
O4 O 0.12021 0.23272 0.16106 0.0
Co5 Co 0.09789 0.24514 0.09557 0.0
O6 O 0.1351 0.26417 0.12066 0.0
C7 C 0.07625 0.17343 0.10569 0.0
C8 C 0.03667 0.19361 0.18721 0.0
C9 C 0.14 0.25341 0.1477 0.0
O10 O 0.07887 0.17796 0.13429 0.0
O11 O 0.08067 0.1976 0.08625 0.0
O12 O 0.06242 0.26694 0.1725 0.0
O13 O 0.0636 0.25101 0.12486 0.0
Co14 Co 0.07014 0.78099 0.39804 0.0
O15 O 0.1191 0.78001 0.40256 0.0
O16 O 0.0919 0.76837 0.36055 0.0
C17 C 0.06298 0.83272 0.42352 0.0
O18 O 0.02082 0.78107 0.38108 0.0
Co19 Co 0.02051 0.78206 0.44964 0.0
O20 O 0.98514 0.78859 0.418 0.0
C21 C 0.06021 0.71898 0.43991 0.0
C22 C 0.12059 0.77166 0.37431 0.0
C23 C 0.99086 0.7853 0.39014 0.0
O24 O 0.06789 0.73009 0.41322 0.0
O25 O 0.04469 0.73769 0.45833 0.0
O26 O 0.0712 0.8328 0.39537 0.0
O27 O 0.06072 0.80226 0.43516 0.0
Co28 Co 0.59684 0.73588 0.67345 0.0
O29 O 0.54968 0.74078 0.67075 0.0
O30 O 0.57843 0.71283 0.70741 0.0
C31 C 0.6101 0.79036 0.66282 0.0
O32 O 0.64494 0.72701 0.68483 0.0
Co33 Co 0.64052 0.74711 0.61802 0.0
O34 O 0.67622 0.75142 0.64964 0.0
C35 C 0.59136 0.69141 0.6197 0.0
C36 C 0.55006 0.72272 0.69569 0.0
C37 C 0.67233 0.73999 0.67631 0.0
O38 O 0.59233 0.69304 0.64863 0.0
O39 O 0.60705 0.71259 0.60308 0.0
O40 O 0.60173 0.78223 0.69005 0.0
O41 O 0.60658 0.76658 0.64276 0.0
Co42 Co 0.57174 0.28015 0.89714 0.0
O43 O 0.62069 0.27918 0.902 0.0
O44 O 0.59379 0.26688 0.85998 0.0
C45 C 0.56405 0.33217 0.92215 0.0
O46 O 0.52254 0.27976 0.87986 0.0
Co47 Co 0.52166 0.28148 0.94839 0.0
O48 O 0.48637 0.28673 0.91648 0.0
C49 C 0.56237 0.21897 0.93971 0.0
C50 C 0.62237 0.27011 0.87392 0.0
C51 C 0.49242 0.28342 0.88868 0.0
O52 O 0.5696 0.22956 0.91278 0.0
O53 O 0.54678 0.23787 0.95793 0.0
O54 O 0.57261 0.33199 0.89408 0.0
O55 O 0.56186 0.3018 0.93398 0.0
Co56 Co 0.17698 1.00098 0.26521 0.0
O57 O 0.17945 0.95165 0.27198 0.0
O58 O 0.2165 0.98323 0.24818 0.0
C59 C 0.16384 0.01616 0.312 0.0
O60 O 0.1847 0.05175 0.25521 0.0
Co61 Co 0.11185 0.04272 0.27148 0.0
O62 O 0.14217 0.08304 0.27123 0.0
C63 C 0.1182 0.99376 0.22194 0.0
C64 C 0.20728 0.9532 0.25828 0.0
C65 C 0.17143 0.0808 0.26179 0.0
O66 O 0.14988 0.99308 0.22658 0.0
O67 O 0.09867 0.00919 0.23937 0.0
O68 O 0.19445 0.00943 0.30631 0.0
O69 O 0.14243 0.00994 0.29051 0.0
Co70 Co 0.30191 0.90834 0.55232 0.0
O71 O 0.25419 0.90388 0.54991 0.0
O72 O 0.28037 0.94979 0.56757 0.0
C73 C 0.3112 0.89059 0.50529 0.0
O74 O 0.35155 0.92213 0.55612 0.0
Co75 Co 0.34566 0.84212 0.54564 0.0
O76 O 0.38203 0.87587 0.54323 0.0
C77 C 0.30805 0.85159 0.60035 0.0
C78 C 0.2523 0.93477 0.56073 0.0
C79 C 0.37952 0.90774 0.5499 0.0
O80 O 0.30283 0.8839 0.59351 0.0
O81 O 0.32115 0.83045 0.58235 0.0
O82 O 0.30225 0.92241 0.5096 0.0
O83 O 0.31039 0.87039 0.52853 0.0
Co84 Co 0.4304 0.03192 0.7504 0.0
O85 O 0.43432 0.08196 0.75126 0.0
O86 O 0.38911 0.05363 0.73692 0.0
C87 C 0.45381 0.02144 0.79666 0.0
O88 O 0.41503 0.98099 0.74899 0.0
Co89 Co 0.4907 0.98213 0.75454 0.0
O90 O 0.45731 0.94699 0.76524 0.0
C91 C 0.47898 0.02685 0.70043 0.0
C92 C 0.40341 0.08315 0.74231 0.0
C93 C 0.4266 0.95167 0.75919 0.0
O94 O 0.44877 0.0323 0.70788 0.0
O95 O 0.49974 0.01002 0.71747 0.0
O96 O 0.42295 0.03073 0.79388 0.0
O97 O 0.46975 0.02171 0.77206 0.0
Co98 Co 0.3221 0.12084 0.02647 0.0
O99 O 0.36545 0.11967 0.01092 0.0
O100 O 0.34454 0.08068 0.0425 0.0
C101 C 0.29614 0.13448 0.98267 0.0
O102 O 0.27869 0.11244 0.04611 0.0
Co103 Co 0.27706 0.18581 0.0258 0.0
O104 O 0.24264 0.1489 0.02364 0.0
C105 C 0.33558 0.18083 0.06766 0.0
C106 C 0.36912 0.09137 0.02688 0.0
C107 C 0.24965 0.11956 0.03558 0.0
O108 O 0.33897 0.14863 0.06157 0.0
O109 O 0.31383 0.20043 0.05441 0.0
O110 O 0.30405 0.10235 0.98852 0.0
O111 O 0.30582 0.15704 0.00233 0.0
Co112 Co 0.79913 0.40932 0.05233 0.0
O113 O 0.75151 0.40345 0.05158 0.0
O114 O 0.77717 0.45109 0.0661 0.0
C115 C 0.80715 0.38854 0.00587 0.0
O116 O 0.8481 0.42565 0.05375 0.0
Co117 Co 0.84592 0.3454 0.04712 0.0
O118 O 0.87974 0.38092 0.03971 0.0
C119 C 0.8093 0.35547 0.10261 0.0
C120 C 0.7493 0.43509 0.06071 0.0
C121 C 0.87606 0.41286 0.04565 0.0
O122 O 0.80215 0.38717 0.09474 0.0
O123 O 0.82344 0.33449 0.08512 0.0
O124 O 0.7975 0.42038 0.00887 0.0
O125 O 0.80814 0.37007 0.03021 0.0
Co126 Co 0.92838 0.53542 0.25104 0.0
O127 O 0.93105 0.58548 0.25216 0.0
O128 O 0.88639 0.55624 0.23791 0.0
C129 C 0.95198 0.5262 0.29721 0.0
O130 O 0.91454 0.48397 0.24959 0.0
Co131 Co 0.98991 0.48763 0.25564 0.0
O132 O 0.95756 0.45165 0.26686 0.0
C133 C 0.97682 0.53072 0.20062 0.0
C134 C 0.90005 0.58605 0.24358 0.0
C135 C 0.9268 0.45522 0.26041 0.0
O136 O 0.94675 0.53647 0.20844 0.0
O137 O 0.99784 0.51426 0.21768 0.0
O138 O 0.92069 0.53354 0.2944 0.0
O139 O 0.96814 0.52695 0.27276 0.0
Co140 Co 0.83517 0.63988 0.53718 0.0
O141 O 0.87384 0.62658 0.51696 0.0
O142 O 0.8486 0.5949 0.55164 0.0
C143 C 0.80752 0.65937 0.49617 0.0
O144 O 0.79487 0.64488 0.5618 0.0
Co145 Co 0.80884 0.7142 0.54175 0.0
O146 O 0.7658 0.68885 0.54252 0.0
C147 C 0.86574 0.69186 0.5807 0.0
C148 C 0.8725 0.59833 0.53309 0.0
C149 C 0.7672 0.65798 0.55285 0.0
O150 O 0.86268 0.66121 0.57025 0.0
O151 O 0.84777 0.71744 0.57132 0.0
O152 O 0.80834 0.62641 0.50243 0.0
O153 O 0.82507 0.67952 0.51372 0.0
Co154 Co 0.68743 0.49572 0.7629 0.0
O155 O 0.68555 0.44587 0.76387 0.0
O156 O 0.72663 0.47726 0.74605 0.0
C157 C 0.6717 0.50254 0.81053 0.0
O158 O 0.70041 0.54607 0.75906 0.0
Co159 Co 0.62923 0.5455 0.77347 0.0
O160 O 0.66612 0.57676 0.78649 0.0
C161 C 0.63204 0.5059 0.71658 0.0
C162 C 0.71469 0.44699 0.7525 0.0
C163 C 0.69427 0.57237 0.7752 0.0
O164 O 0.66234 0.4969 0.72259 0.0
O165 O 0.61453 0.52286 0.73483 0.0
O166 O 0.7025 0.49602 0.80546 0.0
O167 O 0.65166 0.50356 0.7873 0.0
Co168 Co 0.03993 0.80645 0.89258 0.0
O169 O 0.07211 0.84154 0.88624 0.0
O170 O 0.035 0.82381 0.85167 0.0
C171 C 0.02512 0.82455 0.93786 0.0
O172 O 1.00301 0.77112 0.89277 0.0
Co173 Co 0.04996 0.75478 0.95024 0.0
O174 O 1.00531 0.73814 0.93563 0.0
C175 C 0.088 0.7536 0.89913 0.0
C176 C 0.06034 0.84333 0.85867 0.0
C177 C 0.99154 0.74757 0.91039 0.0
O178 O 0.07075 0.76986 0.87898 0.0
O179 O 0.08928 0.76673 0.92528 0.0
O180 O 1.01239 0.8392 0.91348 0.0
O181 O 0.04787 0.80197 0.93401 0.0
Co182 Co 0.04727 0.27643 0.66126 0.0
O183 O 0.99847 0.27372 0.65818 0.0
O184 O 0.02735 0.26311 0.69979 0.0
C185 C 0.04933 0.32933 0.63583 0.0
O186 O 0.09739 0.27756 0.67582 0.0
Co187 Co 0.09386 0.28454 0.60758 0.0
O188 O 0.12998 0.29249 0.63793 0.0
C189 C 0.06502 0.21509 0.62181 0.0
C190 C 0.99815 0.26644 0.68683 0.0
C191 C 0.12635 0.28501 0.66564 0.0
O192 O 0.05216 0.22593 0.64652 0.0
O193 O 0.07922 0.23548 0.60336 0.0
O194 O 0.04377 0.3278 0.66451 0.0
O195 O 0.05297 0.29964 0.62371 0.0
Co196 Co 0.50467 0.32055 0.3917 0.0
O197 O 0.55163 0.32529 0.39357 0.0
O198 O 0.52054 0.32518 0.3512 0.0
C199 C 0.49944 0.35853 0.42862 0.0
O200 O 0.45567 0.31602 0.38151 0.0
Co201 Co 0.4643 0.29837 0.44701 0.0
O202 O 0.4249 0.31144 0.42239 0.0
C203 C 0.49174 0.24652 0.40458 0.0
C204 C 0.54962 0.32823 0.36447 0.0
C205 C 0.42768 0.3124 0.39397 0.0
O206 O 0.50769 0.26927 0.38974 0.0
O207 O 0.47455 0.25321 0.42749 0.0
O208 O 0.50105 0.36917 0.4008 0.0
O209 O 0.50059 0.32559 0.43333 0.0
Co210 Co 0.54573 0.77734 0.1605 0.0
O211 O 0.49686 0.77679 0.15682 0.0
O212 O 0.52471 0.76469 0.19868 0.0
C213 C 0.55002 0.83017 0.13536 0.0
O214 O 0.59571 0.77664 0.17593 0.0
Co215 Co 0.59361 0.78325 0.10786 0.0
O216 O 0.6293 0.79087 0.13862 0.0
C217 C 0.55861 0.71645 0.11912 0.0
C218 C 0.49585 0.76941 0.18542 0.0
C219 C 0.62501 0.7837 0.16628 0.0
O220 O 0.54839 0.72682 0.14507 0.0
O221 O 0.57409 0.7364 0.1012 0.0
O222 O 0.54409 0.82875 0.16398 0.0
O223 O 0.5529 0.8004 0.12316 0.0
Co224 Co 0.92462 0.00918 0.82626 0.0
O225 O 0.92954 0.05864 0.82367 0.0
O226 O 0.88478 0.03006 0.80829 0.0
C227 C 0.94392 0.00532 0.87468 0.0
O228 O 0.91019 0.9585 0.82681 0.0
Co229 Co 0.98627 0.96204 0.84021 0.0
O230 O 0.95297 0.92482 0.84293 0.0
C231 C 0.9715 0.98748 0.77755 0.0
C232 C 0.89926 0.0597 0.81314 0.0
C233 C 0.92283 0.92881 0.83425 0.0
O234 O 0.94457 0.00244 0.78529 0.0
O235 O 0.99188 0.97296 0.79654 0.0
O236 O 0.91324 0.01336 0.86862 0.0
O237 O 0.96212 0.00235 0.85165 0.0
Co238 Co 0.81247 0.13166 0.48992 0.0
O239 O 0.86024 0.1353 0.49252 0.0
O240 O 0.83306 0.0867 0.49968 0.0
C241 C 0.80787 0.16405 0.44662 0.0
O242 O 0.76309 0.11762 0.4895 0.0
Co243 Co 0.76674 0.19727 0.48868 0.0
O244 O 0.73009 0.16425 0.48248 0.0
C245 C 0.79082 0.16436 0.54686 0.0
C246 C 0.86147 0.10235 0.49833 0.0
C247 C 0.73408 0.13186 0.487 0.0
O248 O 0.80884 0.14202 0.53384 0.0
O249 O 0.77385 0.18803 0.53296 0.0
O250 O 0.81421 0.13105 0.44569 0.0
O251 O 0.80553 0.17644 0.47319 0.0
Co252 Co 0.68727 0.02178 0.32752 0.0
O253 O 0.68458 0.97206 0.32241 0.0
O254 O 0.72829 0.00387 0.31262 0.0
C255 C 0.66333 0.0188 0.3734 0.0
O256 O 0.70148 0.07282 0.32906 0.0
Co257 Co 0.62788 0.07046 0.33907 0.0
O258 O 0.65928 0.10932 0.33552 0.0
C259 C 0.64053 0.04504 0.27722 0.0
C260 C 0.71494 0.97335 0.31393 0.0
C261 C 0.68936 0.10371 0.32977 0.0
O262 O 0.6684 0.03091 0.28545 0.0
O263 O 0.62065 0.05821 0.29573 0.0
O264 O 0.69497 0.01359 0.37149 0.0
O265 O 0.64797 0.02623 0.34834 0.0
Co266 Co 0.76238 0.87761 0.01054 0.0
O267 O 0.73757 0.89908 0.04122 0.0
O268 O 0.7639 0.92663 0.005 0.0
C269 C 0.72445 0.83713 -0.00216 0.0
O270 O 0.78786 0.86399 0.9743 0.0
Co271 Co 0.78827 0.80336 0.00569 0.0
O272 O 0.82276 0.8219 0.97847 0.0
C273 C 0.81942 0.85235 0.04958 0.0
C274 C 0.7443 0.92801 0.02737 0.0
C275 C 0.81787 0.85402 0.97377 0.0
O276 O 0.80266 0.87774 0.03803 0.0
O277 O 0.81531 0.82087 0.04141 0.0
O278 O 0.72153 0.86884 0.98786 0.0
O279 O 0.74931 0.83111 0.0164 0.0
Co280 Co 0.31037 0.63256 0.9886 0.0
O281 O 0.35819 0.63547 0.98914 0.0
O282 O 0.33082 0.58736 -0.00216 0.0
C283 C 0.30394 0.66464 0.94521 0.0
O284 O 0.2608 0.61944 0.99029 0.0
Co285 Co 0.26633 0.69941 0.98926 0.0
O286 O 0.22882 0.66708 0.98509 0.0
C287 C 0.29345 0.66684 0.04639 0.0
C288 C 0.3593 0.60259 0.99525 0.0
C289 C 0.23214 0.63454 0.9892 0.0
O290 O 0.30931 0.64333 0.03265 0.0
O291 O 0.27658 0.69108 0.03324 0.0
O292 O 0.30974 0.63154 0.94427 0.0
O293 O 0.30336 0.67731 0.97183 0.0
Co294 Co 0.18972 0.5179 0.82629 0.0
O295 O 0.18868 0.46779 0.82422 0.0
O296 O 0.23251 0.4999 0.81558 0.0
C297 C 0.16194 0.51944 0.87008 0.0
O298 O 0.20178 0.56959 0.82554 0.0
Co299 Co 0.12662 0.5645 0.8285 0.0
O300 O 0.15729 0.60423 0.82733 0.0
C301 C 0.14947 0.53706 0.77038 0.0
C302 C 0.21955 0.46919 0.81729 0.0
C303 C 0.18815 0.59986 0.82427 0.0
O304 O 0.17537 0.52266 0.78265 0.0
O305 O 0.12708 0.55238 0.78484 0.0
O306 O 0.19374 0.5142 0.87074 0.0
O307 O 0.14829 0.52306 0.84363 0.0
Co308 Co 0.26756 0.39577 0.50368 0.0
O309 O 0.2409 0.4112 0.53557 0.0
O310 O 0.27112 0.44499 0.50658 0.0
C311 C 0.22894 0.36173 0.48191 0.0
O312 O 0.29553 0.38842 0.46774 0.0
Co313 Co 0.29105 0.32266 0.48975 0.0
O314 O 0.32959 0.34527 0.47032 0.0
C315 C 0.32051 0.36065 0.54206 0.0
C316 C 0.24914 0.44225 0.52701 0.0
C317 C 0.32533 0.37779 0.46831 0.0
O318 O 0.30556 0.38839 0.53311 0.0
O319 O 0.31604 0.33134 0.52925 0.0
O320 O 0.22877 0.39498 0.47735 0.0
O321 O 0.25165 0.34964 0.50068 0.0
Co322 Co 0.4169 0.51519 0.32377 0.0
O323 O 0.42403 0.5645 0.32216 0.0
O324 O 0.37754 0.53815 0.30788 0.0
C325 C 0.43908 0.50975 0.3714 0.0
O326 O 0.39863 0.46615 0.32292 0.0
Co327 Co 0.47302 0.46211 0.33248 0.0
O328 O 0.43804 0.42617 0.33187 0.0
C329 C 0.46083 0.49521 0.27276 0.0
C330 C 0.39348 0.56695 0.31241 0.0
C331 C 0.40802 0.43448 0.32598 0.0
O332 O 0.43411 0.50925 0.28179 0.0
O333 O 0.48116 0.47842 0.29023 0.0
O334 O 0.40835 0.51859 0.36667 0.0
O335 O 0.45569 0.50521 0.34742 0.0
C336 C 0.9995 0.98537 0.99531 0.0
N337 N 0.95482 0.97071 0.0768 0.0
C338 C 0.93325 0.99069 0.06 0.0
C339 C 0.90712 0.97491 0.04405 0.0
C340 C 0.90219 0.93908 0.04769 0.0
C341 C 0.91959 0.92185 0.07156 0.0
C342 C 0.94614 0.93845 0.08614 0.0
Zn343 Zn 1.00209 0.97424 0.0626 0.0
C344 C 0.02311 0.90437 0.0391 0.0
N345 N 0.0963 0.97735 0.02563 0.0
C346 C 0.09852 0.00347 0.00496 0.0
C347 C 0.12374 0.96372 0.03991 0.0
C348 C 0.15441 0.97959 0.03648 0.0
C349 C 0.15636 0.00965 0.01837 0.0
C350 C 0.12838 0.01999 0.00092 0.0
Zn351 Zn 0.05074 0.97122 0.04239 0.0
O352 O 0.98234 0.98837 0.01844 0.0
C353 C 0.03016 0.04161 0.06441 0.0
O354 O 0.0296 0.97698 -0.00121 0.0
H355 H 0.12142 0.94287 0.05621 0.0
H356 H 0.9402 0.01676 0.05364 0.0
H357 H 0.07655 0.01468 0.99429 0.0
O358 O 1.00538 0.02619 0.07498 0.0
O359 O 0.05032 0.02498 0.04891 0.0
H360 H 0.96321 0.92327 0.10024 0.0
O361 O 0.07154 0.9649 0.08584 0.0
O362 O 0.02298 0.96058 0.10597 0.0
O363 O 0.05113 0.91851 0.03626 0.0
O364 O 0.99942 0.92177 0.04915 0.0
C365 C 0.05443 0.96047 0.10893 0.0
H366 H 0.89392 0.9898 0.02663 0.0
H367 H 0.91528 0.89478 0.07663 0.0
H368 H 0.17563 0.97022 0.04977 0.0
H369 H 0.12828 0.04315 0.98691 0.0
C370 C 0.37046 0.77231 0.25099 0.0
N371 N 0.27769 0.73382 0.22184 0.0
C372 C 0.28655 0.75159 0.19676 0.0
C373 C 0.28748 0.73501 0.1693 0.0
C374 C 0.27896 0.69999 0.16765 0.0
C375 C 0.26676 0.68298 0.19299 0.0
C376 C 0.2665 0.70059 0.22034 0.0
Zn377 Zn 0.29524 0.75431 0.2609 0.0
C378 C 0.32976 0.7001 0.29831 0.0
N379 N 0.34026 0.7973 0.33896 0.0
C380 C 0.35237 0.83018 0.33958 0.0
C381 C 0.33345 0.77978 0.36473 0.0
C382 C 0.33653 0.79608 0.3924 0.0
C383 C 0.34649 0.83088 0.39361 0.0
C384 C 0.35555 0.8477 0.36692 0.0
Zn385 Zn 0.32184 0.7765 0.3002 0.0
O386 O 0.34362 0.76106 0.23861 0.0
C387 C 0.28623 0.83001 0.26226 0.0
O388 O 0.36942 0.78241 0.27822 0.0
H389 H 0.32307 0.75402 0.36368 0.0
H390 H 0.29594 0.7777 0.19848 0.0
H391 H 0.3574 0.84365 0.31873 0.0
O392 O 0.27852 0.80356 0.24695 0.0
O393 O 0.30568 0.82673 0.28525 0.0
H394 H 0.25997 0.6869 0.24068 0.0
O395 O 0.27353 0.7705 0.32247 0.0
O396 O 0.24767 0.74803 0.28328 0.0
O397 O 0.33802 0.72594 0.31437 0.0
O398 O 0.311 0.70477 0.27513 0.0
C399 C 0.24666 0.75893 0.31034 0.0
H400 H 0.29638 0.74893 0.14985 0.0
H401 H 0.25962 0.65597 0.19209 0.0
H402 H 0.3287 0.7823 0.41232 0.0
H403 H 0.36354 0.87446 0.36702 0.0
C404 C 0.53574 0.04824 0.58504 0.0
N405 N 0.59989 0.96776 0.56754 0.0
C406 C 0.61499 0.97675 0.59425 0.0
C407 C 0.62805 0.95121 0.61372 0.0
C408 C 0.62601 0.91656 0.605 0.0
C409 C 0.61207 0.90836 0.57651 0.0
C410 C 0.59886 0.93452 0.55811 0.0
Zn411 Zn 0.57483 0.00304 0.54266 0.0
C412 C 0.50277 0.98148 0.53209 0.0
N413 N 0.5198 0.07677 0.49372 0.0
C414 C 0.52768 0.11074 0.49629 0.0
C415 C 0.50374 0.06415 0.46862 0.0
C416 C 0.49754 0.08557 0.4436 0.0
C417 C 0.50845 0.11978 0.44476 0.0
C418 C 0.52229 0.1329 0.47177 0.0
Zn419 Zn 0.54396 0.04269 0.52055 0.0
O420 O 0.55705 0.0243 0.58299 0.0
C421 C 0.61578 0.06404 0.52957 0.0
O422 O 0.5254 0.06413 0.56119 0.0
H423 H 0.49834 0.03681 0.46692 0.0
H424 H 0.61558 0.00355 0.60105 0.0
H425 H 0.54049 0.12 0.51645 0.0
O426 O 0.61766 0.03494 0.54314 0.0
O427 O 0.58745 0.07503 0.52045 0.0
H428 H 0.58635 0.92814 0.53694 0.0
O429 O 0.56207 0.02168 0.48031 0.0
O430 O 0.59387 0.98258 0.50229 0.0
O431 O 0.50165 0.01132 0.51999 0.0
O432 O 0.53072 0.96979 0.54189 0.0
C433 C 0.58445 0.9989 0.47851 0.0
H434 H 0.63844 0.95822 0.63567 0.0
H435 H 0.60936 0.88175 0.56935 0.0
H436 H 0.48605 0.07519 0.4232 0.0
H437 H 0.5298 0.15977 0.47351 0.0
C438 C 0.33499 0.21348 0.75461 0.0
N439 N 0.27828 0.24181 0.82546 0.0
C440 C 0.26188 0.21138 0.82117 0.0
C441 C 0.25293 0.19131 0.84588 0.0
C442 C 0.26066 0.20309 0.87501 0.0
C443 C 0.27538 0.23583 0.87866 0.0
C444 C 0.28416 0.25482 0.85341 0.0
Zn445 Zn 0.29916 0.26508 0.79021 0.0
C446 C 0.37299 0.28392 0.80738 0.0
N447 N 0.34578 0.31231 0.71671 0.0
C448 C 0.34118 0.29223 0.69197 0.0
C449 C 0.35965 0.34436 0.71467 0.0
C450 C 0.36832 0.3577 0.68646 0.0
C451 C 0.36319 0.33738 0.66062 0.0
C452 C 0.35016 0.304 0.66388 0.0
Zn453 Zn 0.32594 0.29164 0.75442 0.0
O454 O 0.31471 0.21522 0.77562 0.0
C455 C 0.25159 0.27374 0.73816 0.0
O456 O 0.3437 0.24133 0.74168 0.0
H457 H 0.36263 0.3601 0.73459 0.0
H458 H 0.2574 0.20172 0.79862 0.0
H459 H 0.32881 0.26755 0.69356 0.0
O460 O 0.25273 0.261 0.76472 0.0
O461 O 0.27829 0.28625 0.72804 0.0
H462 H 0.29741 0.27896 0.85614 0.0
O463 O 0.30888 0.34152 0.76841 0.0
O464 O 0.28315 0.31467 0.80456 0.0
O465 O 0.3723 0.29724 0.78088 0.0
O466 O 0.3465 0.26986 0.81656 0.0
C467 C 0.29007 0.3427 0.79078 0.0
H468 H 0.24161 0.16621 0.84229 0.0
H469 H 0.28234 0.24556 0.9008 0.0
H470 H 0.37773 0.38387 0.68467 0.0
H471 H 0.34451 0.28794 0.64451 0.0
C472 C 0.12089 0.9953 0.55045 0.0
N473 N 0.08232 0.05397 0.47788 0.0
C474 C 0.11354 0.06698 0.47711 0.0
C475 C 0.1289 0.07082 0.44956 0.0
C476 C 0.11172 0.06143 0.42281 0.0
C477 C 0.07844 0.05141 0.42425 0.0
C478 C 0.06422 0.04776 0.45212 0.0
Zn479 Zn 0.06558 0.03137 0.51597 0.0
C480 C 0.04934 0.95484 0.50055 0.0
N481 N 0.02955 0.98019 0.59407 0.0
C482 C 0.051 0.9845 0.61812 0.0
C483 C 0.99729 0.97183 0.5983 0.0
C484 C 0.98534 0.96937 0.62759 0.0
C485 C 1.00693 0.97512 0.65258 0.0
C486 C 0.04029 0.98178 0.64746 0.0
Zn487 Zn 0.04568 1.00107 0.55408 0.0
O488 O 0.1153 0.0158 0.52825 0.0
C489 C 0.0625 0.07799 0.56784 0.0
O490 O 0.09655 0.98502 0.56557 0.0
H491 H 0.98028 0.96923 0.57909 0.0
H492 H 0.12749 0.07171 0.49792 0.0
H493 H 0.076 0.99299 0.61487 0.0
O494 O 0.07204 0.07777 0.54083 0.0
O495 O 0.05112 0.05007 0.579 0.0
H496 H 0.03975 0.03675 0.4532 0.0
O497 O 0.99582 0.01669 0.54131 0.0
O498 O 0.01545 0.04764 0.50437 0.0
O499 O 0.04031 0.95288 0.52792 0.0
O500 O 0.05944 0.98395 0.49077 0.0
C501 C 0.99079 0.03765 0.51925 0.0
H502 H 0.15446 0.07905 0.44935 0.0
H503 H 0.06431 0.04337 0.40435 0.0
H504 H 0.95941 0.96399 0.63063 0.0
H505 H 0.05771 0.98709 0.66596 0.0
C506 C 0.29305 0.79494 0.72021 0.0
N507 N 0.36198 0.73184 0.7657 0.0
C508 C 0.36544 0.71801 0.73795 0.0
C509 C 0.39651 0.70777 0.72889 0.0
C510 C 0.42406 0.71062 0.74902 0.0
C511 C 0.41866 0.7204 0.77884 0.0
C512 C 0.38758 0.73194 0.78646 0.0
Zn513 Zn 0.32064 0.75942 0.77446 0.0
C514 C 0.3402 0.83513 0.78495 0.0
N515 N 0.23781 0.82157 0.79332 0.0
C516 C 0.21436 0.82125 0.77049 0.0
C517 C 0.23253 0.83836 0.81943 0.0
C518 C 0.20192 0.85389 0.82391 0.0
C519 C 0.1768 0.85283 0.80097 0.0
C520 C 0.18416 0.83769 0.77347 0.0
Zn521 Zn 0.27975 0.79375 0.7868 0.0
O522 O 0.31339 0.77129 0.72816 0.0
C523 C 0.26111 0.71777 0.77798 0.0
O524 O 0.2756 0.80848 0.74001 0.0
H525 H 0.25146 0.83832 0.83729 0.0
H526 H 0.34467 0.71723 0.72195 0.0
H527 H 0.21829 0.80703 0.75015 0.0
O528 O 0.29126 0.71439 0.77155 0.0
O529 O 0.24965 0.74809 0.78174 0.0
H530 H 0.38469 0.74307 0.80841 0.0
O531 O 0.28481 0.77815 0.834 0.0
O532 O 0.32673 0.74695 0.82016 0.0
O533 O 0.31027 0.83872 0.79225 0.0
O534 O 0.35045 0.80513 0.77818 0.0
C535 C 0.3071 0.75554 0.84034 0.0
H536 H 0.39901 0.70034 0.70566 0.0
H537 H 0.43867 0.72155 0.79567 0.0
H538 H 0.19754 0.86462 0.84581 0.0
H539 H 0.16616 0.83675 0.75484 0.0
C540 C 0.55657 0.95716 0.06141 0.0
N541 N 0.57809 0.05568 0.09239 0.0
C542 C 0.55708 0.04687 0.11442 0.0
C543 C 0.56708 0.04962 0.14456 0.0
C544 C 0.59907 0.06132 0.15212 0.0
C545 C 0.61943 0.07269 0.1291 0.0
C546 C 0.60822 0.06989 0.09907 0.0
Zn547 Zn 0.56817 0.03464 0.05144 0.0
C548 C 0.63 0.00716 0.02679 0.0
N549 N 0.54929 0.98534 0.9672 0.0
C550 C 0.51992 0.96857 0.96307 0.0
C551 C 0.5663 0.99712 0.94328 0.0
C552 C 0.55213 0.99577 0.91416 0.0
C553 C 0.52014 0.98217 0.90962 0.0
C554 C 0.50474 0.9668 0.9343 0.0
Zn555 Zn 0.56048 0.0067 0.00836 0.0
O556 O 0.56095 0.98602 0.0744 0.0
C557 C 0.49876 0.03484 0.03326 0.0
O558 O 0.55513 0.9569 0.03255 0.0
H559 H 0.58937 0.01079 0.94705 0.0
H560 H 0.53362 0.03481 0.10874 0.0
H561 H 0.50671 0.9595 0.9824 0.0
O562 O 0.51799 0.04619 0.05403 0.0
O563 O 0.5102 0.01737 0.01207 0.0
H564 H 0.62457 0.07661 0.08119 0.0
O565 O 0.56593 0.05637 0.98546 0.0
O566 O 0.57556 0.08333 0.02802 0.0
O567 O 0.61125 0.99719 0.00497 0.0
O568 O 0.61797 0.02265 0.0488 0.0
C569 C 0.57241 0.08438 -0.00073 0.0
H570 H 0.55075 0.0403 0.16168 0.0
H571 H 0.64411 0.0823 0.13422 0.0
H572 H 0.56491 0.00809 0.89588 0.0
H573 H 0.48035 0.95547 0.93171 0.0
C574 C 0.25332 0.20284 0.26948 0.0
N575 N 0.33846 0.24468 0.23309 0.0
C576 C 0.34608 0.21095 0.22834 0.0
C577 C 0.363 0.20183 0.20287 0.0
C578 C 0.37291 0.22788 0.18262 0.0
C579 C 0.37035 0.26255 0.19152 0.0
C580 C 0.35182 0.27047 0.2163 0.0
Zn581 Zn 0.30277 0.25628 0.26249 0.0
C582 C 0.24371 0.28893 0.23086 0.0
N583 N 0.23018 0.28495 0.32337 0.0
C584 C 0.22095 0.2581 0.34142 0.0
C585 C 0.21968 0.31775 0.32814 0.0
C586 C 0.20273 0.32515 0.35407 0.0
C587 C 0.19632 0.29833 0.37491 0.0
C588 C 0.20305 0.26415 0.36691 0.0
Zn589 Zn 0.2652 0.27542 0.29299 0.0
O590 O 0.28006 0.20686 0.25588 0.0
C591 C 0.32507 0.24604 0.32423 0.0
O592 O 0.24344 0.22684 0.28604 0.0
H593 H 0.22691 0.33862 0.3133 0.0
H594 H 0.33664 0.19079 0.24276 0.0
H595 H 0.22975 0.23216 0.33775 0.0
O596 O 0.33271 0.23777 0.29779 0.0
O597 O 0.29627 0.25747 0.32851 0.0
H598 H 0.34615 0.29726 0.2205 0.0
O599 O 0.28747 0.32468 0.29991 0.0
O600 O 0.32541 0.30511 0.27056 0.0
O601 O 0.23512 0.29399 0.2577 0.0
O602 O 0.27184 0.27562 0.22638 0.0
C603 C 0.31522 0.32845 0.28786 0.0
H604 H 0.36476 0.1746 0.1977 0.0
H605 H 0.37921 0.28359 0.17764 0.0
H606 H 0.19813 0.35203 0.35914 0.0
H607 H 0.19789 0.24264 0.38193 0.0
C608 C 0.61809 0.49591 0.04922 0.0
N609 N 0.58176 0.55304 0.97386 0.0
C610 C 0.61469 0.56008 0.97285 0.0
C611 C 0.63085 0.55773 0.94562 0.0
C612 C 0.61264 0.54915 0.91916 0.0
C613 C 0.57799 0.5479 0.92027 0.0
C614 C 0.56306 0.54917 0.948 0.0
Zn615 Zn 0.5631 0.53182 0.01245 0.0
C616 C 0.5481 0.45497 -0.0019 0.0
N617 N 0.52591 0.48146 0.09166 0.0
C618 C 0.54733 0.48151 0.11612 0.0
C619 C 0.49278 0.47796 0.09548 0.0
C620 C 0.48005 0.47813 0.12449 0.0
C621 C 0.50162 0.48121 0.14996 0.0
C622 C 0.53576 0.48071 0.14532 0.0
Zn623 Zn 0.54372 0.50191 0.05157 0.0
O624 O 0.61259 0.51647 0.02704 0.0
C625 C 0.55865 0.57963 0.06386 0.0
O626 O 0.59369 0.48541 0.06407 0.0
H627 H 0.47576 0.47773 0.07615 0.0
H628 H 0.62921 0.56389 0.99348 0.0
H629 H 0.57346 0.48503 0.11347 0.0
O630 O 0.56737 0.57906 0.03654 0.0
O631 O 0.54948 0.55132 0.07615 0.0
H632 H 0.53704 0.54332 0.94892 0.0
O633 O 0.4943 0.51832 0.03747 0.0
O634 O 0.51328 0.54735 -0.00086 0.0
O635 O 0.53852 0.4534 0.02535 0.0
O636 O 0.55826 0.48396 0.98813 0.0
C637 C 0.48888 0.53807 0.01465 0.0
H638 H 0.65754 0.55952 0.94596 0.0
H639 H 0.56264 0.54298 0.90027 0.0
H640 H 0.45351 0.47813 0.12664 0.0
H641 H 0.55364 0.48156 0.16407 0.0
C642 C 0.79462 0.29778 0.22283 0.0
N643 N 0.864 0.23223 0.26685 0.0
C644 C 0.86475 0.21589 0.23995 0.0
C645 C 0.89332 0.19893 0.23163 0.0
C646 C 0.92121 0.19756 0.25165 0.0
C647 C 0.91844 0.21206 0.28037 0.0
C648 C 0.88998 0.23015 0.28716 0.0
Zn649 Zn 0.82373 0.26097 0.27675 0.0
C650 C 0.84339 0.3365 0.2872 0.0
N651 N 0.74088 0.32149 0.2988 0.0
C652 C 0.716 0.32137 0.27726 0.0
C653 C 0.73566 0.33279 0.32712 0.0
C654 C 0.70378 0.34152 0.33535 0.0
C655 C 0.67721 0.33926 0.31401 0.0
C656 C 0.68411 0.33095 0.28423 0.0
Zn657 Zn 0.7828 0.29498 0.2895 0.0
O658 O 0.81507 0.27402 0.23052 0.0
C659 C 0.76351 0.21952 0.28087 0.0
O660 O 0.77708 0.31092 0.24284 0.0
H661 H 0.75566 0.33263 0.34397 0.0
H662 H 0.84362 0.21709 0.22433 0.0
H663 H 0.72001 0.31144 0.25508 0.0
O664 O 0.79358 0.21591 0.27427 0.0
O665 O 0.75237 0.24994 0.28449 0.0
H666 H 0.88918 0.24329 0.30847 0.0
O667 O 0.78953 0.27807 0.33631 0.0
O668 O 0.83153 0.24757 0.32204 0.0
O669 O 0.81352 0.3397 0.29489 0.0
O670 O 0.85395 0.30663 0.28022 0.0
C671 C 0.81207 0.25576 0.34242 0.0
H672 H 0.89378 0.18883 0.20903 0.0
H673 H 0.93849 0.21085 0.29717 0.0
H674 H 0.69986 0.34748 0.35872 0.0
H675 H 0.66474 0.32973 0.26678 0.0
C676 C 0.05563 0.45634 0.56183 0.0
N677 N 0.07545 0.55584 0.5919 0.0
C678 C 0.05723 0.54432 0.61511 0.0
C679 C 0.0706 0.54453 0.64438 0.0
C680 C 0.10286 0.5568 0.64961 0.0
C681 C 0.1194 0.57267 0.62591 0.0
C682 C 0.10502 0.57196 0.59686 0.0
Zn683 Zn 0.06525 0.53403 0.55147 0.0
C684 C 0.12785 0.50847 0.52662 0.0
N685 N 0.04728 0.48383 0.46739 0.0
C686 C 0.01637 0.47075 0.46239 0.0
C687 C 0.0666 0.49212 0.44396 0.0
C688 C 0.05355 0.49142 0.41439 0.0
C689 C 0.01982 0.48373 0.40893 0.0
C690 C 1.00185 0.47113 0.43333 0.0
Zn691 Zn 0.05836 0.50576 0.50847 0.0
O692 O 0.05985 0.48525 0.57475 0.0
C693 C 0.99598 0.53196 0.53461 0.0
O694 O 0.05383 0.45603 0.53297 0.0
H695 H 0.09111 0.50249 0.44824 0.0
H696 H 0.03388 0.53145 0.61065 0.0
H697 H 1.00152 0.46357 0.48123 0.0
O698 O 0.0152 0.54367 0.5552 0.0
O699 O 1.00767 0.51569 0.51282 0.0
H700 H 0.11903 0.58091 0.57799 0.0
O701 O 0.06304 0.55541 0.48497 0.0
O702 O 0.0709 0.58276 0.52759 0.0
O703 O 0.10955 0.4972 0.505 0.0
O704 O 0.11521 0.52391 0.5483 0.0
C705 C 0.06845 0.58366 0.49881 0.0
H706 H 0.0568 0.533 0.6624 0.0
H707 H 0.14421 0.58275 0.6293 0.0
H708 H 0.06926 0.49939 0.39637 0.0
H709 H 0.97597 0.46445 0.4308 0.0
C710 C 0.83156 0.71589 0.25965 0.0
N711 N 0.77643 0.7504 0.33103 0.0
C712 C 0.75927 0.72017 0.3319 0.0
C713 C 0.75161 0.70534 0.35968 0.0
C714 C 0.7622 0.72174 0.38651 0.0
C715 C 0.77746 0.75432 0.38451 0.0
C716 C 0.78429 0.76818 0.3565 0.0
Zn717 Zn 0.79652 0.7691 0.29334 0.0
C718 C 0.8708 0.78815 0.30971 0.0
N719 N 0.84419 0.81393 0.21972 0.0
C720 C 0.84069 0.79396 0.19485 0.0
C721 C 0.85882 0.84568 0.21856 0.0
C722 C 0.86917 0.85911 0.19101 0.0
C723 C 0.8651 0.83909 0.16496 0.0
C724 C 0.85142 0.80583 0.16733 0.0
Zn725 Zn 0.82344 0.79468 0.25721 0.0
O726 O 0.81165 0.71803 0.28104 0.0
C727 C 0.74896 0.77586 0.24132 0.0
O728 O 0.83999 0.7435 0.24607 0.0
H729 H 0.86119 0.86113 0.23869 0.0
H730 H 0.75316 0.70667 0.31122 0.0
H731 H 0.82811 0.76934 0.19595 0.0
O732 O 0.74994 0.76366 0.26814 0.0
O733 O 0.77565 0.78853 0.23118 0.0
H734 H 0.79802 0.79212 0.35529 0.0
O735 O 0.80718 0.84552 0.269 0.0
O736 O 0.78056 0.81975 0.30493 0.0
O737 O 0.87011 0.80078 0.28302 0.0
O738 O 0.84419 0.77476 0.31916 0.0
C739 C 0.78764 0.84733 0.29069 0.0
H740 H 0.73934 0.68044 0.36015 0.0
H741 H 0.78678 0.76784 0.40429 0.0
H742 H 0.87899 0.88516 0.18981 0.0
H743 H 0.84668 0.79004 0.14761 0.0
C744 C 0.87345 0.26425 0.75346 0.0
N745 N 0.78081 0.22508 0.72406 0.0
C746 C 0.7898 0.2424 0.69879 0.0
C747 C 0.78886 0.22598 0.67122 0.0
C748 C 0.77841 0.19156 0.66967 0.0
C749 C 0.76678 0.17486 0.69538 0.0
C750 C 0.76836 0.19233 0.72281 0.0
Zn751 Zn 0.79816 0.2459 0.76296 0.0
C752 C 0.8323 0.19177 0.80086 0.0
N753 N 0.84201 0.29009 0.84131 0.0
C754 C 0.85311 0.32337 0.84202 0.0
C755 C 0.83452 0.27277 0.86701 0.0
C756 C 0.83565 0.28963 0.89452 0.0
C757 C 0.84445 0.32479 0.8957 0.0
C758 C 0.85442 0.3414 0.8692 0.0
Zn759 Zn 0.82445 0.26869 0.80224 0.0
O760 O 0.8468 0.25248 0.74111 0.0
C761 C 0.78967 0.32162 0.76302 0.0
O762 O 0.87226 0.2745 0.78065 0.0
H763 H 0.82488 0.2467 0.86589 0.0
H764 H 0.80022 0.26811 0.70031 0.0
H765 H 0.85866 0.33675 0.82125 0.0
O766 O 0.78194 0.29484 0.74822 0.0
O767 O 0.80862 0.31879 0.78641 0.0
H768 H 0.76178 0.17898 0.74331 0.0
O769 O 0.77588 0.26328 0.82396 0.0
O770 O 0.75018 0.24035 0.78494 0.0
O771 O 0.84046 0.21776 0.81687 0.0
O772 O 0.81357 0.19636 0.77764 0.0
C773 C 0.74899 0.25189 0.81178 0.0
H774 H 0.79754 0.23952 0.65148 0.0
H775 H 0.75824 0.1483 0.69451 0.0
H776 H 0.82721 0.27588 0.91422 0.0
H777 H 0.86169 0.36839 0.86923 0.0
C778 C 0.79669 0.67221 0.80141 0.0
N779 N 0.8714 0.72442 0.75599 0.0
C780 C 0.88849 0.69478 0.75138 0.0
C781 C 0.90422 0.69012 0.72417 0.0
C782 C 0.90123 0.71576 0.70126 0.0
C783 C 0.88641 0.74745 0.70835 0.0
C784 C 0.87184 0.75124 0.7359 0.0
Zn785 Zn 0.84001 0.73024 0.79016 0.0
C786 C 0.77594 0.75731 0.76649 0.0
N787 N 0.77437 0.74971 0.8591 0.0
C788 C 0.76835 0.72302 0.87846 0.0
C789 C 0.75675 0.77957 0.85952 0.0
C790 C 0.73336 0.78434 0.88122 0.0
C791 C 0.72749 0.75782 0.90252 0.0
C792 C 0.74442 0.72627 0.89999 0.0
Zn793 Zn 0.80706 0.74366 0.8264 0.0
O794 O 0.81889 0.68004 0.78296 0.0
C795 C 0.8717 0.71541 0.84944 0.0
O796 O 0.79041 0.69311 0.82215 0.0
H797 H 0.76135 0.80006 0.84338 0.0
H798 H 0.88832 0.67403 0.768 0.0
H799 H 0.78235 0.69924 0.87747 0.0
O800 O 0.87497 0.71078 0.82141 0.0
O801 O 0.84506 0.72865 0.85846 0.0
H802 H 0.85856 0.77487 0.74016 0.0
O803 O 0.82351 0.79559 0.8303 0.0
O804 O 0.86003 0.78042 0.79768 0.0
O805 O 0.76975 0.75797 0.79428 0.0
O806 O 0.80467 0.74931 0.75874 0.0
C807 C 0.84862 0.80292 0.81518 0.0
H808 H 0.91648 0.66572 0.72046 0.0
H809 H 0.88297 0.76824 0.69197 0.0
H810 H 0.72169 0.80949 0.88222 0.0
H811 H 0.74044 0.70481 0.91537 0.0
C812 C 0.50554 0.52226 0.48874 0.0
N813 N 0.46565 0.49348 0.56989 0.0
C814 C 0.44112 0.51231 0.55587 0.0
C815 C 0.41422 0.49532 0.54237 0.0
C816 C 0.41184 0.45905 0.54524 0.0
C817 C 0.43349 0.44209 0.56623 0.0
C818 C 0.46081 0.45992 0.57816 0.0
Zn819 Zn 0.5114 0.50612 0.55624 0.0
C820 C 0.54072 0.44448 0.52532 0.0
N821 N 0.60304 0.52769 0.51937 0.0
C822 C 0.6044 0.55753 0.50286 0.0
C823 C 0.63057 0.5135 0.53293 0.0
C824 C 0.65992 0.5322 0.53416 0.0
C825 C 0.66082 0.56533 0.52068 0.0
C826 C 0.63341 0.57676 0.50296 0.0
Zn827 Zn 0.55865 0.51351 0.53433 0.0
O828 O 0.48926 0.51984 0.51259 0.0
C829 C 0.52954 0.57679 0.56274 0.0
O830 O 0.53682 0.5214 0.49098 0.0
H831 H 0.6289 0.48954 0.54568 0.0
H832 H 0.44536 0.53918 0.54999 0.0
H833 H 0.58213 0.56838 0.49233 0.0
O834 O 0.50721 0.55693 0.5724 0.0
O835 O 0.55111 0.5649 0.54569 0.0
H836 H 0.48052 0.44555 0.58976 0.0
O837 O 0.58058 0.50438 0.57788 0.0
O838 O 0.53366 0.49174 0.59845 0.0
O839 O 0.56613 0.46326 0.52278 0.0
O840 O 0.51633 0.45565 0.53949 0.0
C841 C 0.5649 0.49506 0.60083 0.0
H842 H 0.39816 0.51018 0.5271 0.0
H843 H 0.43149 0.41461 0.57093 0.0
H844 H 0.68045 0.52217 0.54797 0.0
H845 H 0.63346 0.6016 0.49133 0.0
C846 C 0.03068 0.55157 0.08329 0.0
N847 N 0.08868 0.46787 0.0588 0.0
C848 C 0.09596 0.46795 0.08901 0.0
C849 C 0.09665 0.43683 0.10531 0.0
C850 C 0.09074 0.4058 0.08991 0.0
C851 C 0.08887 0.40636 0.05829 0.0
C852 C 0.08695 0.43787 0.04314 0.0
Zn853 Zn 0.06865 0.51008 0.03804 0.0
C854 C 0.99457 0.49354 0.02351 0.0
N855 N 0.01853 0.59316 0.99459 0.0
C856 C 0.03083 0.62418 0.00362 0.0
C857 C 1.00925 0.58754 0.96521 0.0
C858 C 0.01929 0.61056 0.94282 0.0
C859 C 0.03784 0.63965 0.9514 0.0
C860 C 0.04097 0.64799 0.98212 0.0
Zn861 Zn 0.03825 0.55193 0.01743 0.0
O862 O 0.05156 0.52751 0.07988 0.0
C863 C 0.11285 0.56729 0.03073 0.0
O864 O 0.02057 0.56925 0.06032 0.0
H865 H 0.9993 0.56263 0.95865 0.0
H866 H 0.098 0.49211 0.10097 0.0
H867 H 0.03792 0.62804 0.0271 0.0
O868 O 0.11373 0.53731 0.04281 0.0
O869 O 0.08497 0.57963 0.02159 0.0
H870 H 0.08075 0.438 0.01927 0.0
O871 O 0.05603 0.5345 0.97504 0.0
O872 O 0.08673 0.49409 0.99635 0.0
O873 O 0.9932 0.52421 0.01286 0.0
O874 O 0.0225 0.48156 0.03296 0.0
C875 C 0.07815 0.51144 0.97298 0.0
H876 H 0.09872 0.43743 0.1297 0.0
H877 H 0.08566 0.38279 0.04551 0.0
H878 H 0.01571 0.60381 0.9193 0.0
H879 H 0.05396 0.6711 0.98949 0.0
C880 C 0.04306 0.12003 0.11248 0.0
C881 C 0.06443 0.13976 0.09487 0.0
H882 H 0.01431 0.07377 0.11596 0.0
C883 C 0.07227 0.12826 0.06615 0.0
H884 H 0.03611 0.12875 0.13448 0.0
C885 C 0.05986 0.09682 0.05563 0.0
C886 C 0.03882 0.0769 0.0734 0.0
H887 H 0.08841 0.14325 0.05207 0.0
H888 H 0.06714 0.08781 0.03381 0.0
C889 C 0.03008 0.08897 0.10168 0.0
C890 C 0.1839 0.77413 0.3728 0.0
C891 C 0.15301 0.76698 0.35834 0.0
H892 H 0.23682 0.77731 0.36959 0.0
C893 C 0.15355 0.75599 0.32806 0.0
H894 H 0.18493 0.78269 0.39596 0.0
C895 C 0.18358 0.75261 0.31284 0.0
C896 C 0.21445 0.76027 0.32715 0.0
H897 H 0.13057 0.75017 0.31589 0.0
H898 H 0.1825 0.74448 0.28955 0.0
C899 C 0.21391 0.77098 0.35752 0.0
C900 C 0.64406 0.8269 0.63011 0.0
C901 C 0.62328 0.82428 0.65464 0.0
H902 H 0.6631 0.85975 0.59589 0.0
C903 C 0.61128 0.85441 0.6677 0.0
H904 H 0.654 0.80413 0.61981 0.0
C905 C 0.61605 0.88643 0.6535 0.0
C906 C 0.63318 0.88817 0.62653 0.0
H907 H 0.59537 0.85288 0.68677 0.0
H908 H 0.60324 0.90891 0.66163 0.0
C909 C 0.64945 0.85877 0.61644 0.0
C910 C 0.43111 0.27516 0.87749 0.0
C911 C 0.46273 0.28287 0.8667 0.0
H912 H 0.37908 0.2692 0.86793 0.0
C913 C 0.46458 0.29089 0.83567 0.0
H914 H 0.42824 0.26863 0.90107 0.0
C915 C 0.4357 0.29176 0.81643 0.0
C916 C 0.40414 0.28403 0.82748 0.0
H917 H 0.48822 0.2971 0.82633 0.0
H918 H 0.43816 0.29826 0.7928 0.0
C919 C 0.40259 0.27547 0.85833 0.0
C920 C 0.0632 0.89822 0.4312 0.0
C921 C 0.05724 0.86453 0.44212 0.0
H922 H 0.0653 0.95265 0.44065 0.0
C923 C 0.04705 0.86106 0.47217 0.0
H924 H 0.07113 0.90213 0.40836 0.0
C925 C 0.04359 0.89008 0.49083 0.0
C926 C 0.05029 0.92373 0.48019 0.0
H927 H 0.04218 0.83564 0.4816 0.0
H928 H 0.03631 0.886 0.51385 0.0
C929 C 0.05984 0.92728 0.44991 0.0
C930 C 0.51357 0.7336 0.73748 0.0
C931 C 0.51968 0.71579 0.71111 0.0
H932 H 0.47845 0.74699 0.76957 0.0
C933 C 0.4959 0.69326 0.69877 0.0
H934 H 0.53181 0.75125 0.74708 0.0
C935 C 0.46555 0.68936 0.71238 0.0
C936 C 0.45823 0.70897 0.73788 0.0
H937 H 0.50064 0.67912 0.67842 0.0
H938 H 0.44759 0.67179 0.70233 0.0
C939 C 0.483 0.73064 0.75055 0.0
C940 C 0.56524 0.15323 0.93591 0.0
C941 C 0.57161 0.18384 0.95194 0.0
H942 H 0.5603 0.09769 0.93822 0.0
C943 C 0.58137 0.18085 0.98272 0.0
H944 H 0.55719 0.15455 0.91236 0.0
C945 C 0.58285 0.14864 0.99758 0.0
C946 C 0.57457 0.1181 0.98222 0.0
H947 H 0.58649 0.20386 0.99582 0.0
H948 H 0.58939 0.14789 0.02148 0.0
C949 C 0.56669 0.12068 0.9509 0.0
C950 C 0.15966 0.28193 0.19423 0.0
C951 C 0.167 0.26835 0.16613 0.0
H952 H 0.17828 0.3015 0.23609 0.0
C953 C 0.19975 0.26819 0.15697 0.0
H954 H 0.13439 0.28287 0.20144 0.0
C955 C 0.22529 0.27828 0.17717 0.0
C956 C 0.21805 0.28932 0.20636 0.0
H957 H 0.20572 0.25819 0.13512 0.0
H958 H 0.25065 0.27523 0.17068 0.0
C959 C 0.18485 0.29294 0.21393 0.0
C960 C 0.12176 0.97193 0.16913 0.0
C961 C 0.10301 0.97838 0.1944 0.0
H962 H 0.12096 0.96057 0.12207 0.0
C963 C 0.06857 0.973 0.19236 0.0
H964 H 0.14832 0.97551 0.17006 0.0
C965 C 0.05287 0.96434 0.16498 0.0
C966 C 0.07126 0.96097 0.13904 0.0
H967 H 0.05344 0.97702 0.21164 0.0
H968 H 0.02615 0.96241 0.1638 0.0
C969 C 0.10601 0.96334 0.14165 0.0
C970 C 0.31815 0.89664 0.44956 0.0
C971 C 0.32435 0.87849 0.47679 0.0
H972 H 0.32037 0.89557 0.40138 0.0
C973 C 0.34216 0.84728 0.47659 0.0
H974 H 0.30464 0.92088 0.44916 0.0
C975 C 0.35191 0.83336 0.4496 0.0
C976 C 0.34343 0.84992 0.42209 0.0
H977 H 0.34782 0.83286 0.49718 0.0
H978 H 0.3647 0.80869 0.45017 0.0
C979 C 0.32747 0.88233 0.4223 0.0
C980 C 0.52638 0.04293 0.6687 0.0
C981 C 0.49187 0.03978 0.6712 0.0
H982 H 0.56705 0.0488 0.63966 0.0
C983 C 0.47153 0.04618 0.64527 0.0
H984 H 0.54298 0.03901 0.68817 0.0
C985 C 0.48572 0.05261 0.61712 0.0
C986 C 0.52036 0.05273 0.61459 0.0
H987 H 0.44492 0.04411 0.64635 0.0
H988 H 0.46968 0.05475 0.59707 0.0
C989 C 0.54035 0.04901 0.64087 0.0
C990 C 0.28259 0.12954 0.92776 0.0
C991 C 0.27758 0.14567 0.95532 0.0
H992 H 0.28082 0.13571 0.87974 0.0
C993 C 0.25929 0.17654 0.95582 0.0
H994 H 0.29655 0.10565 0.92695 0.0
C995 C 0.24961 0.19326 0.92904 0.0
C996 C 0.25884 0.17977 0.90143 0.0
H997 H 0.25467 0.18927 0.97683 0.0
H998 H 0.2378 0.21839 0.93003 0.0
C999 C 0.2734 0.14668 0.9008 0.0
C1000 C 0.12413 0.05157 0.33986 0.0
C1001 C 0.15387 0.03285 0.33991 0.0
H1002 H 0.08851 0.07732 0.36586 0.0
C1003 C 0.17246 0.02861 0.36703 0.0
H1004 H 0.10944 0.05582 0.31931 0.0
C1005 C 0.15994 0.04034 0.39409 0.0
C1006 C 0.12894 0.05696 0.39421 0.0
H1007 H 0.19556 0.0144 0.36761 0.0
H1008 H 0.17347 0.03429 0.41502 0.0
C1009 C 0.11206 0.06394 0.36661 0.0
C1010 C 0.30864 0.80232 0.63737 0.0
C1011 C 0.30061 0.83722 0.63064 0.0
H1012 H 0.31236 0.76184 0.67056 0.0
C1013 C 0.28701 0.85737 0.65327 0.0
H1014 H 0.31888 0.78562 0.62064 0.0
C1015 C 0.28278 0.84314 0.68221 0.0
C1016 C 0.29244 0.80873 0.68897 0.0
H1017 H 0.28041 0.8842 0.64888 0.0
H1018 H 0.27333 0.85949 0.69959 0.0
C1019 C 0.30483 0.78842 0.66609 0.0
C1020 C 0.50209 0.99611 0.82589 0.0
C1021 C 0.46948 0.00873 0.82537 0.0
H1022 H 0.54332 0.97682 0.85267 0.0
C1023 C 0.45265 0.00967 0.85243 0.0
H1024 H 0.51568 0.99472 0.80537 0.0
C1025 C 0.46863 0.99948 0.87967 0.0
C1026 C 0.50173 0.98806 0.88033 0.0
H1027 H 0.42748 0.01917 0.85271 0.0
H1028 H 0.45549 0.00202 0.90035 0.0
C1029 C 0.518 0.98584 0.85302 0.0
C1030 C 0.35185 0.23043 0.10002 0.0
C1031 C 0.35512 0.19529 0.09321 0.0
H1032 H 0.35534 0.26872 0.13346 0.0
C1033 C 0.37383 0.17371 0.11308 0.0
H1034 H 0.33867 0.24812 0.08469 0.0
C1035 C 0.38457 0.18592 0.1413 0.0
C1036 C 0.37604 0.21955 0.15018 0.0
H1037 H 0.3779 0.14672 0.10794 0.0
H1038 H 0.39676 0.16799 0.15705 0.0
C1039 C 0.3621 0.24245 0.12819 0.0
C1040 C 0.22061 0.06778 0.05524 0.0
C1041 C 0.22651 0.09093 0.03152 0.0
H1042 H 0.19325 0.02386 0.06984 0.0
C1043 C 0.21297 0.08455 0.00262 0.0
H1044 H 0.23167 0.07195 0.07753 0.0
C1045 C 0.19263 0.05601 0.99768 0.0
C1046 C 0.18443 0.03408 0.02183 0.0
H1047 H 0.2185 0.10141 0.98374 0.0
H1048 H 0.18243 0.05183 0.9751 0.0
C1049 C 0.19927 0.03983 0.05057 0.0
C1050 C 0.71214 0.48705 0.05228 0.0
C1051 C 0.71646 0.45244 0.06195 0.0
H1052 H 0.67765 0.52774 0.04004 0.0
C1053 C 0.68835 0.43327 0.06955 0.0
H1054 H 0.73324 0.50236 0.04591 0.0
C1055 C 0.65664 0.44808 0.06704 0.0
C1056 C 0.65209 0.48208 0.05584 0.0
H1057 H 0.69083 0.4065 0.07691 0.0
H1058 H 0.63551 0.4323 0.07248 0.0
C1059 C 0.68028 0.50151 0.04878 0.0
C1060 C 0.91855 0.39176 0.27113 0.0
C1061 C 0.90483 0.42506 0.26665 0.0
H1062 H 0.91026 0.33816 0.28133 0.0
C1063 C 0.87068 0.42925 0.27041 0.0
H1064 H 0.94473 0.38742 0.26861 0.0
C1065 C 0.85088 0.40085 0.27839 0.0
C1066 C 0.86468 0.3675 0.28245 0.0
H1067 H 0.85931 0.45453 0.26755 0.0
H1068 H 0.82462 0.40488 0.28067 0.0
C1069 C 0.89878 0.36343 0.27867 0.0
C1070 C 0.91394 0.56186 0.56043 0.0
C1071 C 0.89955 0.57358 0.53294 0.0
H1072 H 0.95697 0.53953 0.58251 0.0
C1073 C 0.9146 0.56644 0.50581 0.0
H1074 H 0.90263 0.56748 0.58159 0.0
C1075 C 0.94504 0.54972 0.50626 0.0
C1076 C 0.96106 0.54119 0.53395 0.0
H1077 H 0.90368 0.57544 0.48444 0.0
H1078 H 0.9572 0.5461 0.48517 0.0
C1079 C 0.94492 0.54616 0.56098 0.0
C1080 C 0.1797 0.14342 0.27268 0.0
C1081 C 0.19179 0.1126 0.26075 0.0
H1082 H 0.18968 0.1956 0.28494 0.0
C1083 C 0.22426 0.11199 0.25035 0.0
H1084 H 0.15492 0.14494 0.28096 0.0
C1085 C 0.24441 0.14142 0.25258 0.0
C1086 C 0.2325 0.17173 0.26556 0.0
H1087 H 0.23435 0.08861 0.24105 0.0
H1088 H 0.26944 0.14021 0.24483 0.0
C1089 C 0.19982 0.1725 0.27517 0.0
C1090 C 0.41059 0.96279 0.53843 0.0
C1091 C 0.41066 0.92825 0.54865 0.0
H1092 H 0.43943 0.00626 0.52446 0.0
C1093 C 0.44141 0.91153 0.5539 0.0
H1094 H 0.38745 0.97628 0.53377 0.0
C1095 C 0.47125 0.92856 0.54853 0.0
C1096 C 0.47121 0.9627 0.53731 0.0
H1097 H 0.44242 0.88485 0.56177 0.0
H1098 H 0.49431 0.91481 0.55282 0.0
C1099 C 0.44047 0.97972 0.53266 0.0
C1100 C 0.84801 0.61906 0.25324 0.0
C1101 C 0.88078 0.6188 0.24373 0.0
H1102 H 0.80687 0.64999 0.26644 0.0
C1103 C 0.8962 0.65057 0.23759 0.0
H1104 H 0.83562 0.59498 0.25847 0.0
C1105 C 0.87949 0.68192 0.24138 0.0
C1106 C 0.84733 0.68233 0.25238 0.0
H1107 H 0.92147 0.65119 0.23037 0.0
H1108 H 0.89237 0.70595 0.23697 0.0
C1109 C 0.83163 0.65053 0.25799 0.0
C1110 C 0.72034 0.38381 0.7437 0.0
C1111 C 0.73503 0.41567 0.75071 0.0
H1112 H 0.72682 0.32899 0.74112 0.0
C1113 C 0.76883 0.4169 0.75913 0.0
H1114 H 0.69429 0.38234 0.73728 0.0
C1115 C 0.78723 0.38633 0.7623 0.0
C1116 C 0.77231 0.35435 0.75599 0.0
H1117 H 0.78055 0.44127 0.76495 0.0
H1118 H 0.81281 0.38759 0.77033 0.0
C1119 C 0.739 0.35343 0.74579 0.0
C1120 C 0.99076 0.85757 0.9729 0.0
C1121 C 0.01781 0.83594 0.96823 0.0
H1122 H 0.97026 0.89546 0.0014 0.0
C1123 C 0.04105 0.82943 0.99198 0.0
H1124 H 0.97226 0.86242 0.95506 0.0
C1125 C 0.04029 0.8487 0.01822 0.0
C1126 C 0.01573 0.87378 0.02117 0.0
H1127 H 0.06189 0.81233 0.98908 0.0
H1128 H 0.06077 0.84671 0.03461 0.0
C1129 C 0.98941 0.87603 -0.00039 0.0
C1130 C 0.96645 0.26766 0.73577 0.0
C1131 C 0.96633 0.2647 0.70404 0.0
H1132 H 0.93811 0.2706 0.77592 0.0
C1133 C 0.93516 0.26174 0.68889 0.0
H1134 H 0.98968 0.27028 0.74845 0.0
C1135 C 0.90542 0.26143 0.70478 0.0
C1136 C 0.90548 0.2649 0.73647 0.0
H1137 H 0.93368 0.25954 0.66456 0.0
H1138 H 0.8822 0.25883 0.69207 0.0
C1139 C 0.93665 0.26809 0.75162 0.0
C1140 C 0.5273 0.19588 0.39876 0.0
C1141 C 0.49548 0.2101 0.39759 0.0
H1142 H 0.55656 0.15306 0.41508 0.0
C1143 C 0.46786 0.1885 0.40042 0.0
H1144 H 0.54882 0.21221 0.39624 0.0
C1145 C 0.47225 0.15476 0.41108 0.0
C1146 C 0.50421 0.14316 0.41883 0.0
H1147 H 0.44307 0.19919 0.39892 0.0
H1148 H 0.45083 0.14014 0.41779 0.0
C1149 C 0.5317 0.16215 0.40956 0.0
C1150 C 0.6865 0.79347 0.17564 0.0
C1151 C 0.65594 0.78223 0.18678 0.0
H1152 H 0.73874 0.80018 0.18332 0.0
C1153 C 0.65642 0.76855 0.21645 0.0
H1154 H 0.68771 0.80428 0.15306 0.0
C1155 C 0.68639 0.76603 0.23404 0.0
C1156 C 0.71687 0.77716 0.22259 0.0
H1157 H 0.63374 0.75942 0.22601 0.0
H1158 H 0.68563 0.75541 0.25672 0.0
C1159 C 0.71618 0.79103 0.1931 0.0
C1160 C 0.0896 0.16751 0.59219 0.0
C1161 C 0.0656 0.17761 0.61273 0.0
H1162 H 0.10715 0.12929 0.56226 0.0
C1163 C 0.042 0.15271 0.62094 0.0
H1164 H 0.10882 0.18527 0.58559 0.0
C1165 C 0.0416 0.11949 0.60755 0.0
C1166 C 0.06451 0.1108 0.5855 0.0
H1167 H 0.02316 0.15931 0.63658 0.0
H1168 H 0.02249 0.10124 0.61339 0.0
C1169 C 0.08882 0.1351 0.57866 0.0
C1170 C 0.603 0.35849 0.36034 0.0
C1171 C 0.57954 0.33543 0.34802 0.0
H1172 H 0.65164 0.37943 0.35822 0.0
C1173 C 0.5867 0.31679 0.32228 0.0
H1174 H 0.59765 0.37339 0.38012 0.0
C1175 C 0.61806 0.31922 0.31033 0.0
C1176 C 0.64243 0.34104 0.32354 0.0
H1177 H 0.56895 0.29864 0.31269 0.0
H1178 H 0.62363 0.30236 0.29189 0.0
C1179 C 0.63398 0.36169 0.34794 0.0
C1180 C 0.55404 0.86137 0.08519 0.0
C1181 C 0.55201 0.86297 0.11688 0.0
H1182 H 0.55662 0.88914 0.04299 0.0
C1183 C 0.55103 0.8959 0.12998 0.0
H1184 H 0.55468 0.83655 0.07413 0.0
C1185 C 0.55231 0.92622 0.11198 0.0
C1186 C 0.55425 0.92459 0.08024 0.0
H1187 H 0.54936 0.89829 0.15418 0.0
H1188 H 0.55173 0.95106 0.12302 0.0
C1189 C 0.55499 0.89163 0.06718 0.0
C1190 C 0.93137 0.73569 0.91383 0.0
C1191 C 0.96131 0.73011 0.89975 0.0
H1192 H 0.87851 0.73475 0.90882 0.0
C1193 C 0.9613 0.71286 0.8722 0.0
H1194 H 0.93101 0.74921 0.93507 0.0
C1195 C 0.93164 0.70378 0.85759 0.0
C1196 C 0.90137 0.71308 0.86976 0.0
H1197 H 0.98411 0.70846 0.86089 0.0
H1198 H 0.93256 0.6925 0.8354 0.0
C1199 C 0.90143 0.72733 0.89883 0.0
C1200 C 0.93746 0.00296 0.9307 0.0
C1201 C 0.95746 0.99974 0.90567 0.0
H1202 H 0.93507 1.00097 0.97891 0.0
C1203 C 0.99111 0.99181 0.9104 0.0
H1204 H 0.91142 0.00907 0.92767 0.0
C1205 C 1.00462 0.98735 0.93952 0.0
C1206 C 0.98478 0.99068 0.96464 0.0
H1207 H 1.00719 0.98921 0.89158 0.0
H1208 H 0.0307 0.9813 0.94229 0.0
C1209 C 0.95101 0.99843 0.95999 0.0
C1210 C 0.75596 0.16623 0.59119 0.0
C1211 C 0.78752 0.16229 0.57951 0.0
H1212 H 0.72832 0.17758 0.6301 0.0
C1213 C 0.81542 0.16075 0.59908 0.0
H1214 H 0.7341 0.16699 0.57632 0.0
C1215 C 0.81204 0.16695 0.62975 0.0
C1216 C 0.7807 0.17391 0.6409 0.0
H1217 H 0.8399 0.15769 0.59038 0.0
H1218 H 0.83403 0.16893 0.64433 0.0
C1219 C 0.75255 0.17186 0.62183 0.0
C1220 C 0.65773 0.99665 0.42719 0.0
C1221 C 0.64405 0.01251 0.40086 0.0
H1222 H 0.64927 0.97874 0.4724 0.0
C1223 C 0.61005 0.02038 0.39966 0.0
H1224 H 0.6837 0.98983 0.42869 0.0
C1225 C 0.59038 0.01347 0.42416 0.0
C1226 C 0.60396 0.99841 0.45079 0.0
H1227 H 0.59844 0.03231 0.37972 0.0
H1228 H 0.56458 0.02105 0.42256 0.0
C1229 C 0.63783 0.98963 0.45195 0.0
C1230 C 0.83456 0.8845 0.09629 0.0
C1231 C 0.8422 0.85892 0.07543 0.0
H1232 H 0.83739 0.89865 0.14274 0.0
C1233 C 0.86771 0.83528 0.08261 0.0
H1234 H 0.81547 0.90355 0.09101 0.0
C1235 C 0.88101 0.8332 0.11198 0.0
C1236 C 0.86806 0.85401 0.13444 0.0
H1237 H 0.87487 0.81609 0.06647 0.0
H1238 H 0.89755 0.81194 0.11804 0.0
C1239 C 0.84745 0.88198 0.12588 0.0
C1240 C 0.95915 0.99925 0.72178 0.0
C1241 C 0.97922 0.9844 0.74512 0.0
H1242 H 0.95199 0.00775 0.67392 0.0
C1243 C 1.00682 0.96463 0.73729 0.0
H1244 H 0.93754 0.01431 0.72691 0.0
C1245 C 0.01464 0.96046 0.70728 0.0
C1246 C 0.99534 0.97606 0.68398 0.0
H1247 H 0.02272 0.95219 0.75438 0.0
H1248 H 0.03625 0.94528 0.70231 0.0
C1249 C 0.96717 0.99512 0.69144 0.0
C1250 C 0.82382 0.17739 0.39392 0.0
C1251 C 0.80743 0.18717 0.41971 0.0
H1252 H 0.83905 0.19176 0.35002 0.0
C1253 C 0.79306 0.22041 0.42046 0.0
H1254 H 0.83541 0.15216 0.39276 0.0
C1255 C 0.7948 0.24328 0.39569 0.0
C1256 C 0.81182 0.23369 0.37009 0.0
H1257 H 0.78034 0.22869 0.44017 0.0
H1258 H 0.78296 0.2684 0.39659 0.0
C1259 C 0.8263 0.20044 0.36959 0.0
C1260 C 0.65181 0.03872 0.22203 0.0
C1261 C 0.63079 0.04869 0.24489 0.0
H1262 H 0.65826 0.03526 0.17434 0.0
C1263 C 0.60026 0.06439 0.23673 0.0
H1264 H 0.67556 0.02687 0.22755 0.0
C1265 C 0.59077 0.06967 0.20666 0.0
C1266 C 0.61135 0.05921 0.18383 0.0
H1267 H 0.58341 0.07278 0.25358 0.0
H1268 H 0.56705 0.08168 0.20124 0.0
C1269 C 0.64213 0.04397 0.19166 0.0
C1270 C 0.68837 0.81627 0.9554 0.0
C1271 C 0.70936 0.80872 0.98051 0.0
H1272 H 0.67519 0.80291 0.91 0.0
C1273 C 0.72331 0.77557 0.98351 0.0
H1274 H 0.67577 0.84099 0.95324 0.0
C1275 C 0.72413 0.75443 0.9584 0.0
C1276 C 0.71035 0.76632 0.93053 0.0
H1277 H 0.73811 0.76824 0.00343 0.0
H1278 H 0.74007 0.73195 0.96005 0.0
C1279 C 0.68829 0.79452 0.93055 0.0
C1280 C 0.87362 0.86481 -0.00194 0.0
C1281 C 0.84407 0.87801 0.98488 0.0
H1282 H 0.915 0.87367 0.02798 0.0
C1283 C 0.83704 0.9134 0.988 0.0
H1284 H 0.88061 0.83799 0.99522 0.0
C1285 C 0.85572 0.93348 0.00834 0.0
C1286 C 0.88297 0.91898 0.02459 0.0
H1287 H 0.81559 0.92485 0.97653 0.0
H1288 H 0.84778 0.95976 0.0122 0.0
C1289 C 0.8929 0.88512 0.01758 0.0
C1290 C 0.39535 0.55311 0.01554 0.0
C1291 C 0.39172 0.58414 -0.00125 0.0
H1292 H 0.42885 0.51438 0.03409 0.0
C1293 C 0.41997 0.59857 0.98594 0.0
H1294 H 0.37416 0.54133 0.02576 0.0
C1295 C 0.45107 0.58282 0.99011 0.0
C1296 C 0.45507 0.5525 0.0078 0.0
H1297 H 0.41811 0.62233 0.97273 0.0
H1298 H 0.47221 0.59511 0.98023 0.0
C1299 C 0.42673 0.53771 0.02032 0.0
C1300 C 0.19296 0.66328 0.81115 0.0
C1301 C 0.20781 0.63032 0.8141 0.0
H1302 H 0.19747 0.71614 0.79673 0.0
C1303 C 0.23992 0.62614 0.80354 0.0
H1304 H 0.16816 0.66761 0.81867 0.0
C1305 C 0.25662 0.65407 0.79044 0.0
C1306 C 0.24169 0.68697 0.78751 0.0
H1307 H 0.25206 0.60113 0.80497 0.0
H1308 H 0.28153 0.64997 0.78311 0.0
C1309 C 0.20962 0.69113 0.79808 0.0
C1310 C 0.21383 0.48785 0.50459 0.0
C1311 C 0.22567 0.47032 0.5308 0.0
H1312 H 0.17206 0.51251 0.48225 0.0
C1313 C 0.20766 0.4715 0.5571 0.0
H1314 H 0.22721 0.48693 0.4839 0.0
C1315 C 0.17655 0.48693 0.55625 0.0
C1316 C 0.16292 0.50006 0.52885 0.0
H1317 H 0.21627 0.4578 0.57737 0.0
H1318 H 0.16195 0.48561 0.57623 0.0
C1319 C 0.18216 0.50194 0.5034 0.0
C1320 C 0.86865 0.89662 0.83372 0.0
C1321 C 0.90293 0.89715 0.8297 0.0
H1322 H 0.82433 0.86582 0.83286 0.0
C1323 C 0.91867 0.86688 0.82044 0.0
H1324 H 0.85595 0.91968 0.84079 0.0
C1325 C 0.90067 0.83674 0.81516 0.0
C1326 C 0.86657 0.83581 0.81967 0.0
H1327 H 0.945 0.86659 0.81681 0.0
H1328 H 0.91368 0.81388 0.80806 0.0
C1329 C 0.85064 0.86593 0.82921 0.0
C1330 C 0.70627 0.08164 0.51304 0.0
C1331 C 0.70395 0.11188 0.49501 0.0
H1332 H 0.6806 0.04341 0.53881 0.0
C1333 C 0.67234 0.12626 0.48891 0.0
H1334 H 0.73015 0.07012 0.51868 0.0
C1335 C 0.64406 0.11142 0.50093 0.0
C1336 C 0.64638 0.08167 0.5195 0.0
H1337 H 0.66943 0.1496 0.47526 0.0
H1338 H 0.62028 0.12327 0.49548 0.0
C1339 C 0.67786 0.06674 0.52512 0.0
C1340 C 0.22773 0.40499 0.8221 0.0
C1341 C 0.23879 0.43728 0.81159 0.0
H1342 H 0.23557 0.35019 0.8244 0.0
C1343 C 0.26794 0.43852 0.79528 0.0
H1344 H 0.2055 0.40313 0.83488 0.0
C1345 C 0.28503 0.40796 0.78881 0.0
C1346 C 0.27374 0.3756 0.79913 0.0
H1347 H 0.2771 0.46302 0.78687 0.0
H1348 H 0.30693 0.40964 0.77557 0.0
C1349 C 0.24513 0.37462 0.81622 0.0
C1350 C 0.34647 0.60404 0.29302 0.0
C1351 C 0.3769 0.6009 0.30904 0.0
H1352 H 0.30756 0.63799 0.2772 0.0
C1353 C 0.39075 0.63025 0.32304 0.0
H1354 H 0.33512 0.5818 0.28219 0.0
C1355 C 0.37461 0.66225 0.32082 0.0
C1356 C 0.3446 0.6656 0.30412 0.0
H1357 H 0.414 0.62849 0.33587 0.0
H1358 H 0.38616 0.68455 0.33139 0.0
C1359 C 0.33062 0.63615 0.29034 0.0
C1360 C 0.57057 0.66184 0.57317 0.0
C1361 C 0.57097 0.66455 0.60474 0.0
H1362 H 0.55549 0.63216 0.53481 0.0
C1363 C 0.55143 0.64178 0.62151 0.0
H1364 H 0.58471 0.67939 0.55945 0.0
C1365 C 0.53403 0.61502 0.60714 0.0
C1366 C 0.53617 0.61072 0.57591 0.0
H1367 H 0.55061 0.64372 0.64582 0.0
H1368 H 0.52135 0.5961 0.62074 0.0
C1369 C 0.55336 0.63516 0.55893 0.0
C1370 C 0.68578 0.27079 0.87307 0.0
C1371 C 0.6549 0.26416 0.85841 0.0
H1372 H 0.73883 0.27223 0.87045 0.0
C1373 C 0.65555 0.2522 0.82842 0.0
H1374 H 0.68674 0.28002 0.89604 0.0
C1375 C 0.6857 0.2474 0.81366 0.0
C1376 C 0.71658 0.25452 0.82817 0.0
H1377 H 0.63258 0.2467 0.81612 0.0
H1378 H 0.68471 0.23861 0.79056 0.0
C1379 C 0.71591 0.26621 0.85826 0.0
C1380 C 0.04802 0.32201 0.10761 0.0
C1381 C 0.06502 0.31137 0.13406 0.0
H1382 H 0.04192 0.36099 0.07369 0.0
C1383 C 0.08892 0.33294 0.14772 0.0
H1384 H 0.02936 0.30562 0.09696 0.0
C1385 C 0.09739 0.36408 0.13367 0.0
C1386 C 0.08151 0.37396 0.10619 0.0
H1387 H 0.10241 0.32477 0.16811 0.0
H1388 H 0.11708 0.37964 0.14364 0.0
C1389 C 0.05576 0.35333 0.09407 0.0
C1390 C 0.96273 0.79313 0.33728 0.0
C1391 C 0.96097 0.78548 0.36839 0.0
H1392 H 0.93611 0.8007 0.29453 0.0
C1393 C 0.92926 0.77887 0.37949 0.0
H1394 H 0.98643 0.79851 0.32771 0.0
C1395 C 0.90059 0.77982 0.36055 0.0
C1396 C 0.90208 0.78793 0.32961 0.0
H1397 H 0.92643 0.77268 0.40313 0.0
H1398 H 0.87703 0.77433 0.37037 0.0
C1399 C 0.93371 0.79461 0.31825 0.0
C1400 C 0.54716 0.36082 0.97041 0.0
C1401 C 0.55778 0.36411 0.94047 0.0
H1402 H 0.53553 0.38603 0.01176 0.0
C1403 C 0.5636 0.39777 0.9294 0.0
H1404 H 0.54239 0.33543 0.97995 0.0
C1405 C 0.55966 0.42696 0.94786 0.0
C1406 C 0.54965 0.42361 0.97804 0.0
H1407 H 0.57185 0.40158 0.90665 0.0
H1408 H 0.56504 0.4523 0.93849 0.0
C1409 C 0.54311 0.38997 0.98882 0.0
C1410 C 1.01235 0.19984 0.23662 0.0
C1411 C 1.01237 0.18297 0.20894 0.0
H1412 H 0.98338 0.21892 0.27147 0.0
C1413 C 0.98472 0.16378 0.19931 0.0
H1414 H 0.03351 0.21502 0.24425 0.0
C1415 C 0.95597 0.16458 0.21567 0.0
C1416 C 0.95396 0.18625 0.24089 0.0
H1417 H 0.98454 0.15031 0.17802 0.0
H1418 H 0.93465 0.15045 0.20702 0.0
C1419 C 0.98326 0.20196 0.25228 0.0
C1420 C 0.06189 0.65309 0.43566 0.0
C1421 C 0.06899 0.68351 0.45179 0.0
H1422 H 0.05595 0.5976 0.43776 0.0
C1423 C 0.07881 0.6801 0.48253 0.0
H1424 H 0.05372 0.65471 0.41215 0.0
C1425 C 0.07968 0.64778 0.49724 0.0
C1426 C 0.07077 0.61746 0.4818 0.0
H1427 H 0.08444 0.70291 0.49574 0.0
H1428 H 0.08636 0.64679 0.52112 0.0
C1429 C 0.06281 0.62039 0.45051 0.0
C1430 C 0.69179 0.74482 0.72997 0.0
C1431 C 0.69906 0.74499 0.69922 0.0
H1432 H 0.71025 0.75005 0.77539 0.0
C1433 C 0.73127 0.75296 0.69073 0.0
H1434 H 0.66699 0.73961 0.7372 0.0
C1435 C 0.75605 0.75921 0.71268 0.0
C1436 C 0.74892 0.75805 0.74344 0.0
H1437 H 0.73745 0.75384 0.66718 0.0
H1438 H 0.78099 0.76396 0.70559 0.0
C1439 C 0.71642 0.75152 0.75185 0.0
C1440 C 0.5814 0.4936 0.68502 0.0
C1441 C 0.61597 0.4974 0.68717 0.0
H1442 H 0.5382 0.48918 0.65613 0.0
C1443 C 0.63402 0.4961 0.66083 0.0
H1444 H 0.56687 0.494 0.70504 0.0
C1445 C 0.61746 0.49361 0.63265 0.0
C1446 C 0.58267 0.49188 0.63046 0.0
H1447 H 0.66066 0.49891 0.66186 0.0
H1448 H 0.63185 0.49438 0.61254 0.0
C1449 C 0.56494 0.49066 0.657 0.0
C1450 C 0.81437 0.39215 0.94987 0.0
C1451 C 0.81977 0.3748 0.97762 0.0
H1452 H 0.81791 0.38977 0.90183 0.0
C1453 C 0.83679 0.34306 0.97834 0.0
H1454 H 0.80145 0.41674 0.9487 0.0
C1455 C 0.84694 0.32816 0.95187 0.0
C1456 C 0.83972 0.34421 0.92385 0.0
H1457 H 0.84171 0.3291 -0.00068 0.0
H1458 H 0.85944 0.30334 0.95327 0.0
C1459 C 0.82412 0.37687 0.92312 0.0
C1460 C 0.02373 0.54383 0.16726 0.0
C1461 C 0.98925 0.54274 0.17086 0.0
H1462 H 0.06353 0.54804 0.13709 0.0
C1463 C 0.96839 0.55061 0.14555 0.0
H1464 H 0.04085 0.53873 0.18616 0.0
C1465 C 0.98186 0.55679 0.11702 0.0
C1466 C 0.01632 0.55512 0.11344 0.0
H1467 H 0.9418 0.55016 0.14743 0.0
H1468 H 0.96529 0.5604 0.09749 0.0
C1469 C 0.03696 0.5496 0.13907 0.0
C1470 C 0.78461 0.65272 0.44402 0.0
C1471 C 0.78846 0.6729 0.46994 0.0
H1472 H 0.77338 0.65251 0.39676 0.0
C1473 C 0.77641 0.70689 0.46966 0.0
H1474 H 0.79346 0.62623 0.44392 0.0
C1475 C 0.76325 0.72152 0.44298 0.0
C1476 C 0.76361 0.70295 0.41589 0.0
H1477 H 0.77844 0.72264 0.48966 0.0
H1478 H 0.75528 0.7483 0.44313 0.0
C1479 C 0.77263 0.66774 0.41704 0.0
C1480 C 0.67533 0.53772 0.85766 0.0
C1481 C 0.65974 0.51209 0.8401 0.0
H1482 H 0.67206 0.57089 0.89589 0.0
C1483 C 0.62961 0.4983 0.84892 0.0
H1484 H 0.69838 0.5491 0.85083 0.0
C1485 C 0.61489 0.51009 0.87468 0.0
C1486 C 0.62936 0.53693 0.89184 0.0
H1487 H 0.61722 0.47845 0.83565 0.0
H1488 H 0.59206 0.49792 0.88107 0.0
C1489 C 0.66012 0.55027 0.88328 0.0
C1490 C 0.78808 0.36087 0.15585 0.0
C1491 C 0.80236 0.34121 0.13322 0.0
H1492 H 0.77383 0.36234 0.20213 0.0
C1493 C 0.81115 0.30649 0.14007 0.0
H1494 H 0.78085 0.38752 0.15144 0.0
C1495 C 0.80726 0.2923 0.16871 0.0
C1496 C 0.79408 0.31206 0.19159 0.0
H1497 H 0.82189 0.29004 0.12344 0.0
H1498 H 0.8153 0.26587 0.17308 0.0
C1499 C 0.78386 0.34634 0.18479 0.0
C1500 C 0.95555 0.4885 0.34345 0.0
C1501 C 0.9683 0.5154 0.32589 0.0
H1502 H 0.96271 0.45554 0.38217 0.0
C1503 C 0.99829 0.53079 0.3348 0.0
H1504 H 0.93272 0.47578 0.33648 0.0
C1505 C 0.01496 0.52029 0.36142 0.0
C1506 C 1.00275 0.49301 0.37932 0.0
H1507 H 1.00853 0.55159 0.32142 0.0
H1508 H 0.03703 0.53443 0.36812 0.0
C1509 C 0.97287 0.477 0.36966 0.0
C1510 C 0.89811 0.72866 0.61721 0.0
C1511 C 0.88653 0.69601 0.60836 0.0
H1512 H 0.9159 0.75997 0.65359 0.0
C1513 C 0.88992 0.66795 0.62869 0.0
H1514 H 0.89684 0.75049 0.60162 0.0
C1515 C 0.89912 0.67358 0.65877 0.0
C1516 C 0.90589 0.70734 0.66893 0.0
H1517 H 0.8818 0.64222 0.62235 0.0
H1518 H 0.89707 0.65193 0.67428 0.0
C1519 C 0.9087 0.73404 0.64713 0.0
C1520 C 0.70721 0.64711 0.54203 0.0
C1521 C 0.73937 0.63438 0.547 0.0
H1522 H 0.65694 0.6351 0.53052 0.0
C1523 C 0.7457 0.59898 0.54285 0.0
H1524 H 0.70178 0.67432 0.54496 0.0
C1525 C 0.7205 0.57682 0.53326 0.0
C1526 C 0.68821 0.58936 0.52837 0.0
H1527 H 0.77044 0.58848 0.54593 0.0
H1528 H 0.72645 0.54991 0.52947 0.0
C1529 C 0.68175 0.62472 0.53317 0.0
C1530 C 0.21505 0.98688 0.55328 0.0
C1531 C 0.21954 0.95218 0.56258 0.0
H1532 H 0.18032 0.02753 0.54151 0.0
C1533 C 0.19151 0.9328 0.57009 0.0
H1534 H 0.23607 0.00235 0.54695 0.0
C1535 C 0.15972 0.94747 0.56782 0.0
C1536 C 0.15498 0.98154 0.55692 0.0
H1537 H 0.19411 0.90593 0.57713 0.0
H1538 H 0.13867 0.9315 0.57315 0.0
C1539 C 0.18309 1.00121 0.55 0.0
C1540 C 0.41668 0.88848 0.76962 0.0
C1541 C 0.40381 0.92215 0.76523 0.0
H1542 H 0.40705 0.83513 0.77958 0.0
C1543 C 0.36973 0.92724 0.76879 0.0
H1544 H 0.44277 0.88342 0.76723 0.0
C1545 C 0.34916 0.89935 0.7765 0.0
C1546 C 0.36214 0.86565 0.7805 0.0
H1547 H 0.359 0.95284 0.76596 0.0
H1548 H 0.32298 0.90404 0.77862 0.0
C1549 C 0.39618 0.86069 0.77695 0.0
C1550 C 0.41459 0.06255 0.05628 0.0
C1551 C 0.4006 0.07322 0.0283 0.0
H1552 H 0.45778 0.04239 0.07988 0.0
C1553 C 0.4179 0.06873 0.00192 0.0
H1554 H 0.40145 0.06614 0.07685 0.0
C1555 C 0.44935 0.05423 0.00352 0.0
C1556 C 0.46416 0.0453 0.03165 0.0
H1557 H 0.40727 0.07688 0.98018 0.0
H1558 H 0.46272 0.05163 0.98295 0.0
C1559 C 0.44659 0.04918 0.05802 0.0
C1560 C 0.74853 0.59987 0.76315 0.0
C1561 C 0.72118 0.59721 0.78177 0.0
H1562 H 0.79436 0.62566 0.75477 0.0
C1563 C 0.72079 0.61677 0.80811 0.0
H1564 H 0.74965 0.58466 0.74286 0.0
C1565 C 0.74671 0.63917 0.81539 0.0
C1566 C 0.77343 0.64319 0.79617 0.0
H1567 H 0.70052 0.61463 0.8233 0.0
H1568 H 0.74509 0.65429 0.83569 0.0
C1569 C 0.77433 0.62294 0.77014 0.0
C1570 C 0.93749 0.4199 0.04497 0.0
C1571 C 0.90585 0.43513 0.04208 0.0
H1572 H 0.98971 0.42588 0.04117 0.0
C1573 C 0.90353 0.46999 0.03264 0.0
H1574 H 0.94034 0.39312 0.05221 0.0
C1575 C 0.93218 0.4888 0.02572 0.0
C1576 C 0.96376 0.47325 0.02837 0.0
H1577 H 0.8796 0.4824 0.0298 0.0
H1578 H 0.92959 0.51561 0.01853 0.0
C1579 C 0.96593 0.43865 0.03839 0.0
C1580 C 0.40077 0.14784 0.73612 0.0
C1581 C 0.38468 0.11625 0.7415 0.0
H1582 H 0.39728 0.2033 0.73507 0.0
C1583 C 0.35119 0.11682 0.74887 0.0
H1584 H 0.42657 0.14819 0.73045 0.0
C1585 C 0.33467 0.1484 0.7524 0.0
C1586 C 0.35098 0.18002 0.74764 0.0
H1587 H 0.33821 0.09289 0.7534 0.0
H1588 H 0.3093 0.14809 0.75937 0.0
C1589 C 0.38395 0.17936 0.73867 0.0
C1590 C 0.21413 0.89035 0.24898 0.0
C1591 C 0.22834 0.92249 0.25582 0.0
H1592 H 0.22197 0.83593 0.24446 0.0
C1593 C 0.26253 0.92468 0.26219 0.0
H1594 H 0.1878 0.88817 0.24401 0.0
C1595 C 0.28198 0.89468 0.26338 0.0
C1596 C 0.26763 0.8624 0.257 0.0
H1597 H 0.27388 0.94932 0.26773 0.0
H1598 H 0.30799 0.89657 0.26985 0.0
C1599 C 0.23373 0.86062 0.24902 0.0
C1600 C 0.4958 0.37557 0.48191 0.0
C1601 C 0.50888 0.38098 0.45343 0.0
H1602 H 0.49635 0.3915 0.52801 0.0
C1603 C 0.53533 0.40378 0.44995 0.0
H1604 H 0.4759 0.35723 0.48497 0.0
C1605 C 0.54824 0.42161 0.47462 0.0
C1606 C 0.53417 0.41772 0.50295 0.0
H1607 H 0.54649 0.40728 0.42829 0.0
H1608 H 0.56792 0.44004 0.47097 0.0
C1609 C 0.50802 0.39433 0.50652 0.0
C1610 C 0.46366 0.77222 0.234 0.0
C1611 C 0.46375 0.76913 0.20229 0.0
H1612 H 0.43507 0.77642 0.27388 0.0
C1613 C 0.43263 0.76746 0.18687 0.0
H1614 H 0.48686 0.77387 0.24688 0.0
C1615 C 0.40273 0.76843 0.2025 0.0
C1616 C 0.40261 0.772 0.23418 0.0
H1617 H 0.43132 0.76521 0.16254 0.0
H1618 H 0.37954 0.76668 0.18961 0.0
C1619 C 0.43375 0.77395 0.24958 0.0
C1620 C 0.05561 0.70058 0.88741 0.0
C1621 C 0.08487 0.7156 0.89939 0.0
H1622 H 0.01636 0.66479 0.89588 0.0
C1623 C 0.1035 0.69725 0.92157 0.0
H1624 H 0.0415 0.71335 0.86929 0.0
C1625 C 0.08919 0.66963 0.93666 0.0
C1626 C 0.05648 0.65986 0.92929 0.0
H1627 H 0.12671 0.70758 0.9305 0.0
H1628 H 0.10239 0.65835 0.95606 0.0
C1629 C 0.04105 0.67301 0.90275 0.0
C1630 C 0.18802 0.29443 0.67407 0.0
C1631 C 0.15766 0.28306 0.68553 0.0
H1632 H 0.24049 0.30029 0.68092 0.0
C1633 C 0.15867 0.26833 0.71482 0.0
H1634 H 0.18879 0.30598 0.65173 0.0
C1635 C 0.18896 0.26486 0.73173 0.0
C1636 C 0.21925 0.27604 0.71995 0.0
H1637 H 0.13615 0.25902 0.72455 0.0
H1638 H 0.18859 0.25342 0.75413 0.0
C1639 C 0.21806 0.29103 0.69087 0.0
C1640 C 0.55465 0.64997 0.12511 0.0
C1641 C 0.55324 0.68043 0.10719 0.0
H1642 H 0.55755 0.59394 0.12572 0.0
C1643 C 0.55158 0.67659 0.07556 0.0
H1644 H 0.55622 0.65172 0.14947 0.0
C1645 C 0.5534 0.64415 0.06217 0.0
C1646 C 0.55626 0.61372 0.07969 0.0
H1647 H 0.54996 0.69912 0.06075 0.0
H1648 H 0.55267 0.64304 0.03776 0.0
C1649 C 0.55586 0.61689 0.11146 0.0
C1650 C 0.08552 0.83992 0.80928 0.0
C1651 C 0.08115 0.85859 0.83566 0.0
H1652 H 0.11985 0.82237 0.778 0.0
C1653 C 0.10471 0.88356 0.8444 0.0
H1654 H 0.06761 0.82064 0.80195 0.0
C1655 C 0.13488 0.88521 0.83024 0.0
C1656 C 0.14196 0.86144 0.80761 0.0
H1657 H 0.10148 0.89879 0.86443 0.0
H1658 H 0.15371 0.90262 0.83911 0.0
C1659 C 0.11591 0.84093 0.79557 0.0
C1660 C 0.05296 0.36057 0.58566 0.0
C1661 C 0.05114 0.36217 0.61736 0.0
H1662 H 0.05541 0.38832 0.54344 0.0
C1663 C 0.05046 0.3951 0.63049 0.0
H1664 H 0.0534 0.33575 0.57458 0.0
C1665 C 0.05183 0.42542 0.61248 0.0
C1666 C 0.05354 0.42378 0.58072 0.0
H1667 H 0.04901 0.39749 0.6547 0.0
H1668 H 0.05147 0.45026 0.62354 0.0
C1669 C 0.05399 0.39082 0.56765 0.0
C1670 C 0.36851 0.29495 0.38663 0.0
C1671 C 0.40054 0.29709 0.37567 0.0
H1672 H 0.31945 0.27541 0.37969 0.0
C1673 C 0.40821 0.27818 0.34997 0.0
H1674 H 0.36215 0.3085 0.40686 0.0
C1675 C 0.38435 0.25804 0.33528 0.0
C1676 C 0.35188 0.25705 0.34534 0.0
H1677 H 0.43296 0.27818 0.34148 0.0
H1678 H 0.39105 0.24475 0.31503 0.0
C1679 C 0.34436 0.2752 0.37155 0.0
C1680 C 0.4375 0.51787 0.42747 0.0
C1681 C 0.45572 0.51194 0.40166 0.0
H1682 H 0.43887 0.52614 0.47524 0.0
C1683 C 0.49038 0.51053 0.40466 0.0
H1684 H 0.41076 0.51923 0.42588 0.0
C1685 C 0.50649 0.51518 0.43274 0.0
C1686 C 0.48835 0.52103 0.45862 0.0
H1687 H 0.50519 0.5062 0.38522 0.0
H1688 H 0.53322 0.51355 0.43421 0.0
C1689 C 0.45363 0.52217 0.45569 0.0
C1690 C 0.26088 0.66209 0.09188 0.0
C1691 C 0.29198 0.66519 0.07911 0.0
H1692 H 0.2325 0.67009 0.13103 0.0
C1693 C 0.31978 0.6734 0.09724 0.0
H1694 H 0.23918 0.65583 0.07794 0.0
C1695 C 0.31587 0.6819 0.12736 0.0
C1696 C 0.28423 0.68181 0.13943 0.0
H1697 H 0.34383 0.67615 0.08755 0.0
H1698 H 0.3371 0.69092 0.14064 0.0
C1699 C 0.25704 0.67011 0.12207 0.0
C1700 C 0.15211 0.50083 0.92363 0.0
C1701 C 0.1412 0.51784 0.89693 0.0
H1702 H 0.14025 0.48428 0.96826 0.0
C1703 C 0.10869 0.53087 0.89489 0.0
H1704 H 0.17684 0.49012 0.92573 0.0
C1705 C 0.08771 0.5275 0.91909 0.0
C1706 C 0.09847 0.51043 0.94581 0.0
H1707 H 0.09942 0.54396 0.87454 0.0
H1708 H 0.06317 0.53872 0.917 0.0
C1709 C 0.13088 0.49694 0.94774 0.0
C1710 C 0.33476 0.38667 0.59206 0.0
C1711 C 0.34126 0.36191 0.57006 0.0
H1712 H 0.33754 0.39842 0.63907 0.0
C1713 C 0.36403 0.33534 0.57704 0.0
H1714 H 0.31778 0.40787 0.58714 0.0
C1715 C 0.37614 0.33058 0.60664 0.0
C1716 C 0.36493 0.35179 0.62968 0.0
H1717 H 0.37029 0.31654 0.56024 0.0
H1718 H 0.39102 0.30786 0.6121 0.0
C1719 C 0.34642 0.38153 0.62182 0.0
C1720 C 0.4975 0.51135 0.23123 0.0
C1721 C 0.46811 0.49619 0.24048 0.0
H1722 H 0.53019 0.52012 0.19541 0.0
C1723 C 0.44857 0.47746 0.21957 0.0
H1724 H 0.51302 0.52575 0.24707 0.0
C1725 C 0.45906 0.47276 0.19009 0.0
C1726 C 0.48914 0.48711 0.18088 0.0
H1727 H 0.42608 0.46495 0.22649 0.0
H1728 H 0.44416 0.45685 0.17498 0.0
C1729 C 0.50759 0.50742 0.2017 0.0
C1730 C 0.3175 0.67693 0.89173 0.0
C1731 C 0.30275 0.68753 0.91812 0.0
H1732 H 0.33124 0.69038 0.84721 0.0
C1733 C 0.28949 0.72128 0.91917 0.0
H1734 H 0.32816 0.65128 0.89028 0.0
C1735 C 0.29089 0.74391 0.89417 0.0
C1736 C 0.3065 0.73351 0.86804 0.0
H1737 H 0.27803 0.73018 0.93934 0.0
H1738 H 0.28008 0.7695 0.89536 0.0
C1739 C 0.31966 0.69969 0.86719 0.0
C1740 C 0.14973 0.57117 0.72336 0.0
C1741 C 0.14558 0.53897 0.73772 0.0
H1742 H 0.13924 0.60219 0.68377 0.0
C1743 C 0.13049 0.51169 0.7221 0.0
H1744 H 0.16089 0.59263 0.73553 0.0
C1745 C 0.11774 0.51724 0.69282 0.0
C1746 C 0.11988 0.55017 0.67904 0.0
H1747 H 0.12665 0.48691 0.73317 0.0
H1748 H 0.10513 0.49614 0.68135 0.0
C1749 C 0.13717 0.5767 0.69401 0.0
C1750 C 0.22091 0.30565 0.45615 0.0
C1751 C 0.21014 0.33947 0.46102 0.0
H1752 H 0.2245 0.26535 0.42447 0.0
C1753 C 0.18565 0.35416 0.44153 0.0
H1754 H 0.23916 0.29341 0.47128 0.0
C1755 C 0.17651 0.33774 0.41471 0.0
C1756 C 0.19228 0.30687 0.40702 0.0
H1757 H 0.17607 0.37985 0.44547 0.0
H1758 H 0.16014 0.35114 0.39858 0.0
C1759 C 0.21211 0.28941 0.42922 0.0
C1760 C 0.38021 0.38592 0.49524 0.0
C1761 C 0.35098 0.40023 0.48241 0.0
H1762 H 0.42243 0.39312 0.52441 0.0
C1763 C 0.34369 0.43506 0.48789 0.0
H1764 H 0.38707 0.35937 0.49092 0.0
C1765 C 0.36253 0.45374 0.50899 0.0
C1766 C 0.39065 0.43881 0.52358 0.0
H1767 H 0.32224 0.44734 0.47713 0.0
H1768 H 0.35433 0.47956 0.51417 0.0
C1769 C 0.39998 0.4051 0.51531 0.0
C1770 C 0.89717 0.05257 0.51861 0.0
C1771 C 0.89394 0.08416 0.50258 0.0
H1772 H 0.93024 0.01324 0.53685 0.0
C1773 C 0.92256 0.0992 0.49101 0.0
H1774 H 0.87566 0.04029 0.52786 0.0
C1775 C 0.95359 0.08343 0.49554 0.0
C1776 C 0.95713 0.05244 0.51237 0.0
H1777 H 0.92104 0.1234 0.47839 0.0
H1778 H 0.975 0.09613 0.48651 0.0
C1779 C 0.92846 0.0371 0.52377 0.0
C1780 C 0.74106 0.12843 0.30735 0.0
C1781 C 0.70944 0.13353 0.3188 0.0
H1782 H 0.78258 0.15111 0.28574 0.0
C1783 C 0.69533 0.16684 0.31604 0.0
H1784 H 0.75263 0.10313 0.30861 0.0
C1785 C 0.71219 0.19413 0.30232 0.0
C1786 C 0.7438 0.18912 0.29095 0.0
H1787 H 0.67092 0.1719 0.32418 0.0
H1788 H 0.70056 0.21941 0.30115 0.0
C1789 C 0.75803 0.15586 0.29368 0.0
C1790 C 0.70599 0.96256 0.0571 0.0
C1791 C 0.72293 0.9581 0.03048 0.0
H1792 H 0.66283 0.98305 0.07671 0.0
C1793 C 0.71271 0.9764 0.00414 0.0
H1794 H 0.71352 0.94864 0.07758 0.0
C1795 C 0.68308 0.99469 0.00325 0.0
C1796 C 0.66438 0.99606 0.02906 0.0
H1797 H 0.72541 0.9733 0.98327 0.0
H1798 H 0.67375 0.00578 0.98204 0.0
C1799 C 0.67701 0.98202 0.05649 0.0
C1800 C 0.3495 0.41311 0.31865 0.0
C1801 C 0.38378 0.40678 0.31861 0.0
H1802 H 0.30064 0.39314 0.30915 0.0
C1803 C 0.39491 0.37462 0.30857 0.0
H1804 H 0.34016 0.43769 0.32623 0.0
C1805 C 0.37246 0.34984 0.29791 0.0
C1806 C 0.33824 0.3562 0.29763 0.0
H1807 H 0.42108 0.36889 0.30804 0.0
H1808 H 0.38199 0.32538 0.29023 0.0
C1809 C 0.32689 0.38781 0.30868 0.0
C1810 C 0.17058 0.63159 0.99431 0.0
C1811 C 0.2017 0.61523 0.99766 0.0
H1812 H 0.11899 0.63026 0.00311 0.0
C1813 C 0.20344 0.58309 0.01301 0.0
H1814 H 0.16801 0.65643 0.98282 0.0
C1815 C 0.17492 0.56804 0.02487 0.0
C1816 C 0.14397 0.58481 0.02179 0.0
H1817 H 0.22693 0.56993 0.0165 0.0
H1818 H 0.17709 0.54307 0.03618 0.0
C1819 C 0.14232 0.61674 0.00627 0.0
C1820 C 0.72313 0.90924 0.31874 0.0
C1821 C 0.73391 0.94142 0.30779 0.0
H1822 H 0.73198 0.85475 0.3226 0.0
C1823 C 0.76332 0.94275 0.29184 0.0
H1824 H 0.70077 0.90734 0.33134 0.0
C1825 C 0.78116 0.91235 0.28646 0.0
C1826 C 0.77034 0.88016 0.29753 0.0
H1827 H 0.77232 0.96721 0.2832 0.0
H1828 H 0.80337 0.91405 0.27364 0.0
C1829 C 0.74125 0.87909 0.31393 0.0
C1830 C 0.89443 0.12261 0.82479 0.0
C1831 C 0.88146 0.09317 0.81017 0.0
H1832 H 0.88861 0.17652 0.83413 0.0
C1833 C 0.85097 0.0959 0.79419 0.0
H1834 H 0.91768 0.12125 0.83767 0.0
C1835 C 0.83436 0.12774 0.79207 0.0
C1836 C 0.84758 0.15729 0.8064 0.0
H1837 H 0.84022 0.07362 0.78294 0.0
H1838 H 0.81134 0.12933 0.77884 0.0
C1839 C 0.87757 0.15422 0.82314 0.0
loop_
_geom_bond_atom_site_label_1
_geom_bond_atom_site_label_2
_geom_bond_distance
_geom_bond_site_symmetry_2
_ccdc_geom_bond_type
Co0 O1 2.216 . S
Co0 O2 2.091 . S
Co0 O4 2.004 . S
Co0 O10 2.021 . S
Co0 O12 2.137 . S
Co0 O13 2.244 . S
O1 Co0 2.216 . S
O1 C8 1.247 . S
O2 Co0 2.091 . S
O2 C8 1.261 . S
C3 O12 1.247 . S
C3 O13 1.272 . S
O4 Co0 2.004 . S
O4 C9 1.259 . S
Co5 O6 2.061 . S
Co5 O11 2.052 . S
Co5 O13 2.135 . S
O6 Co5 2.061 . S
O6 C9 1.235 . S
C7 O10 1.238 . S
C7 O11 1.241 . S
C8 O1 1.247 . S
C8 O2 1.261 . S
C9 O4 1.259 . S
C9 O6 1.235 . S
O10 Co0 2.021 . S
O10 C7 1.238 . S
O11 Co5 2.052 . S
O11 C7 1.241 . S
O12 Co0 2.137 . S
O12 C3 1.247 . S
O13 Co0 2.244 . S
O13 C3 1.272 . S
O13 Co5 2.135 . S
Co14 O15 2.216 . S
Co14 O16 2.091 . S
Co14 O18 2.004 . S
Co14 O24 2.021 . S
Co14 O26 2.137 . S
Co14 O27 2.244 . S
O15 Co14 2.216 . S
O15 C22 1.247 . S
O16 Co14 2.091 . S
O16 C22 1.261 . S
C17 O26 1.247 . S
C17 O27 1.272 . S
O18 Co14 2.004 . S
O18 C23 1.259 1_455 S
Co19 O20 2.061 . S
Co19 O25 2.052 1_655 S
Co19 O27 2.135 1_655 S
O20 Co19 2.061 . S
O20 C23 1.235 . S
C21 O24 1.238 . S
C21 O25 1.241 . S
C22 O15 1.247 . S
C22 O16 1.261 . S
C23 O18 1.259 1_655 S
C23 O20 1.235 . S
O24 Co14 2.021 . S
O24 C21 1.238 . S
O25 Co19 2.052 1_455 S
O25 C21 1.241 . S
O26 Co14 2.137 . S
O26 C17 1.247 . S
O27 Co14 2.244 . S
O27 C17 1.272 . S
O27 Co19 2.135 1_455 S
Co28 O29 2.216 . S
Co28 O30 2.091 . S
Co28 O32 2.004 . S
Co28 O38 2.021 . S
Co28 O40 2.137 . S
Co28 O41 2.244 . S
O29 Co28 2.216 . S
O29 C36 1.247 . S
O30 Co28 2.091 . S
O30 C36 1.261 . S
C31 O40 1.247 . S
C31 O41 1.272 . S
O32 Co28 2.004 . S
O32 C37 1.259 . S
Co33 O34 2.061 . S
Co33 O39 2.052 . S
Co33 O41 2.135 . S
O34 Co33 2.061 . S
O34 C37 1.235 . S
C35 O38 1.238 . S
C35 O39 1.241 . S
C36 O29 1.247 . S
C36 O30 1.261 . S
C37 O32 1.259 . S
C37 O34 1.235 . S
O38 Co28 2.021 . S
O38 C35 1.238 . S
O39 Co33 2.052 . S
O39 C35 1.241 . S
O40 Co28 2.137 . S
O40 C31 1.247 . S
O41 Co28 2.244 . S
O41 C31 1.272 . S
O41 Co33 2.135 . S
Co42 O43 2.216 . S
Co42 O44 2.091 . S
Co42 O46 2.004 . S
Co42 O52 2.021 . S
Co42 O54 2.137 . S
Co42 O55 2.244 . S
O43 Co42 2.216 . S
O43 C50 1.247 . S
O44 Co42 2.091 . S
O44 C50 1.261 . S
C45 O54 1.247 . S
C45 O55 1.272 . S
O46 Co42 2.004 . S
O46 C51 1.259 . S
Co47 O48 2.061 . S
Co47 O53 2.052 . S
Co47 O55 2.135 . S
O48 Co47 2.061 . S
O48 C51 1.235 . S
C49 O52 1.238 . S
C49 O53 1.241 . S
C50 O43 1.247 . S
C50 O44 1.261 . S
C51 O46 1.259 . S
C51 O48 1.235 . S
O52 Co42 2.021 . S
O52 C49 1.238 . S
O53 Co47 2.052 . S
O53 C49 1.241 . S
O54 Co42 2.137 . S
O54 C45 1.247 . S
O55 Co42 2.244 . S
O55 C45 1.272 . S
O55 Co47 2.135 . S
Co56 O57 2.216 1_545 S
Co56 O58 2.091 1_545 S
Co56 O60 2.004 . S
Co56 O66 2.021 . S
Co56 O68 2.137 . S
Co56 O69 2.244 . S
O57 Co56 2.216 1_565 S
O57 C64 1.247 . S
O58 Co56 2.091 1_565 S
O58 C64 1.261 . S
C59 O68 1.247 . S
C59 O69 1.272 . S
O60 Co56 2.004 . S
O60 C65 1.259 . S
Co61 O62 2.061 . S
Co61 O67 2.052 . S
Co61 O69 2.135 . S
O62 Co61 2.061 . S
O62 C65 1.235 . S
C63 O66 1.238 . S
C63 O67 1.241 . S
C64 O57 1.247 . S
C64 O58 1.261 . S
C65 O60 1.259 . S
C65 O62 1.235 . S
O66 Co56 2.021 . S
O66 C63 1.238 . S
O67 Co61 2.052 . S
O67 C63 1.241 . S
O68 Co56 2.137 . S
O68 C59 1.247 . S
O69 Co56 2.244 . S
O69 C59 1.272 . S
O69 Co61 2.135 . S
Co70 O71 2.216 . S
Co70 O72 2.091 . S
Co70 O74 2.004 . S
Co70 O80 2.021 . S
Co70 O82 2.137 . S
Co70 O83 2.244 . S
O71 Co70 2.216 . S
O71 C78 1.247 . S
O72 Co70 2.091 . S
O72 C78 1.261 . S
C73 O82 1.247 . S
C73 O83 1.272 . S
O74 Co70 2.004 . S
O74 C79 1.259 . S
Co75 O76 2.061 . S
Co75 O81 2.052 . S
Co75 O83 2.135 . S
O76 Co75 2.061 . S
O76 C79 1.235 . S
C77 O80 1.238 . S
C77 O81 1.241 . S
C78 O71 1.247 . S
C78 O72 1.261 . S
C79 O74 1.259 . S
C79 O76 1.235 . S
O80 Co70 2.021 . S
O80 C77 1.238 . S
O81 Co75 2.052 . S
O81 C77 1.241 . S
O82 Co70 2.137 . S
O82 C73 1.247 . S
O83 Co70 2.244 . S
O83 C73 1.272 . S
O83 Co75 2.135 . S
Co84 O85 2.216 . S
Co84 O86 2.091 . S
Co84 O88 2.004 1_545 S
Co84 O94 2.021 . S
Co84 O96 2.137 . S
Co84 O97 2.244 . S
O85 Co84 2.216 . S
O85 C92 1.247 . S
O86 Co84 2.091 . S
O86 C92 1.261 . S
C87 O96 1.247 . S
C87 O97 1.272 . S
O88 Co84 2.004 1_565 S
O88 C93 1.259 . S
Co89 O90 2.061 . S
Co89 O95 2.052 . S
Co89 O97 2.135 1_565 S
O90 Co89 2.061 . S
O90 C93 1.235 . S
C91 O94 1.238 . S
C91 O95 1.241 1_545 S
C92 O85 1.247 . S
C92 O86 1.261 . S
C93 O88 1.259 . S
C93 O90 1.235 . S
O94 Co84 2.021 . S
O94 C91 1.238 . S
O95 Co89 2.052 . S
O95 C91 1.241 1_565 S
O96 Co84 2.137 . S
O96 C87 1.247 . S
O97 Co84 2.244 . S
O97 C87 1.272 . S
O97 Co89 2.135 1_545 S
Co98 O99 2.216 . S
Co98 O100 2.091 . S
Co98 O102 2.004 . S
Co98 O108 2.021 . S
Co98 O110 2.137 1_554 S
Co98 O111 2.244 . S
O99 Co98 2.216 . S
O99 C106 1.247 . S
O100 Co98 2.091 . S
O100 C106 1.261 . S
C101 O110 1.247 . S
C101 O111 1.272 1_556 S
O102 Co98 2.004 . S
O102 C107 1.259 . S
Co103 O104 2.061 . S
Co103 O109 2.052 . S
Co103 O111 2.135 . S
O104 Co103 2.061 . S
O104 C107 1.235 . S
C105 O108 1.238 . S
C105 O109 1.241 . S
C106 O99 1.247 . S
C106 O100 1.261 . S
C107 O102 1.259 . S
C107 O104 1.235 . S
O108 Co98 2.021 . S
O108 C105 1.238 . S
O109 Co103 2.052 . S
O109 C105 1.241 . S
O110 Co98 2.137 1_556 S
O110 C101 1.247 . S
O111 Co98 2.244 . S
O111 C101 1.272 1_554 S
O111 Co103 2.135 . S
Co112 O113 2.216 . S
Co112 O114 2.091 . S
Co112 O116 2.004 . S
Co112 O122 2.021 . S
Co112 O124 2.137 . S
Co112 O125 2.244 . S
O113 Co112 2.216 . S
O113 C120 1.247 . S
O114 Co112 2.091 . S
O114 C120 1.261 . S
C115 O124 1.247 . S
C115 O125 1.272 . S
O116 Co112 2.004 . S
O116 C121 1.259 . S
Co117 O118 2.061 . S
Co117 O123 2.052 . S
Co117 O125 2.135 . S
O118 Co117 2.061 . S
O118 C121 1.235 . S
C119 O122 1.238 . S
C119 O123 1.241 . S
C120 O113 1.247 . S
C120 O114 1.261 . S
C121 O116 1.259 . S
C121 O118 1.235 . S
O122 Co112 2.021 . S
O122 C119 1.238 . S
O123 Co117 2.052 . S
O123 C119 1.241 . S
O124 Co112 2.137 . S
O124 C115 1.247 . S
O125 Co112 2.244 . S
O125 C115 1.272 . S
O125 Co117 2.135 . S
Co126 O127 2.216 . S
Co126 O128 2.091 . S
Co126 O130 2.004 . S
Co126 O136 2.021 . S
Co126 O138 2.137 . S
Co126 O139 2.244 . S
O127 Co126 2.216 . S
O127 C134 1.247 . S
O128 Co126 2.091 . S
O128 C134 1.261 . S
C129 O138 1.247 . S
C129 O139 1.272 . S
O130 Co126 2.004 . S
O130 C135 1.259 . S
Co131 O132 2.061 . S
Co131 O137 2.052 . S
Co131 O139 2.135 . S
O132 Co131 2.061 . S
O132 C135 1.235 . S
C133 O136 1.238 . S
C133 O137 1.241 . S
C134 O127 1.247 . S
C134 O128 1.261 . S
C135 O130 1.259 . S
C135 O132 1.235 . S
O136 Co126 2.021 . S
O136 C133 1.238 . S
O137 Co131 2.052 . S
O137 C133 1.241 . S
O138 Co126 2.137 . S
O138 C129 1.247 . S
O139 Co126 2.244 . S
O139 C129 1.272 . S
O139 Co131 2.135 . S
Co140 O141 2.216 . S
Co140 O142 2.091 . S
Co140 O144 2.004 . S
Co140 O150 2.021 . S
Co140 O152 2.137 . S
Co140 O153 2.244 . S
O141 Co140 2.216 . S
O141 C148 1.247 . S
O142 Co140 2.091 . S
O142 C148 1.261 . S
C143 O152 1.247 . S
C143 O153 1.272 . S
O144 Co140 2.004 . S
O144 C149 1.259 . S
Co145 O146 2.061 . S
Co145 O151 2.052 . S
Co145 O153 2.135 . S
O146 Co145 2.061 . S
O146 C149 1.235 . S
C147 O150 1.238 . S
C147 O151 1.241 . S
C148 O141 1.247 . S
C148 O142 1.261 . S
C149 O144 1.259 . S
C149 O146 1.235 . S
O150 Co140 2.021 . S
O150 C147 1.238 . S
O151 Co145 2.052 . S
O151 C147 1.241 . S
O152 Co140 2.137 . S
O152 C143 1.247 . S
O153 Co140 2.244 . S
O153 C143 1.272 . S
O153 Co145 2.135 . S
Co154 O155 2.216 . S
Co154 O156 2.091 . S
Co154 O158 2.004 . S
Co154 O164 2.021 . S
Co154 O166 2.137 . S
Co154 O167 2.244 . S
O155 Co154 2.216 . S
O155 C162 1.247 . S
O156 Co154 2.091 . S
O156 C162 1.261 . S
C157 O166 1.247 . S
C157 O167 1.272 . S
O158 Co154 2.004 . S
O158 C163 1.259 . S
Co159 O160 2.061 . S
Co159 O165 2.052 . S
Co159 O167 2.135 . S
O160 Co159 2.061 . S
O160 C163 1.235 . S
C161 O164 1.238 . S
C161 O165 1.241 . S
C162 O155 1.247 . S
C162 O156 1.261 . S
C163 O158 1.259 . S
C163 O160 1.235 . S
O164 Co154 2.021 . S
O164 C161 1.238 . S
O165 Co159 2.052 . S
O165 C161 1.241 . S
O166 Co154 2.137 . S
O166 C157 1.247 . S
O167 Co154 2.244 . S
O167 C157 1.272 . S
O167 Co159 2.135 . S
Co168 O169 2.216 . S
Co168 O170 2.091 . S
Co168 O172 2.004 1_455 S
Co168 O178 2.021 . S
Co168 O180 2.137 . S
Co168 O181 2.244 1_455 S
O169 Co168 2.216 . S
O169 C176 1.247 . S
O170 Co168 2.091 . S
O170 C176 1.261 . S
C171 O180 1.248 . S
C171 O181 1.271 1_455 S
O172 Co168 2.004 1_655 S
O172 C177 1.259 . S
Co173 O174 2.061 . S
Co173 O179 2.052 . S
Co173 O181 2.135 . S
O174 Co173 2.061 . S
O174 C177 1.235 . S
C175 O178 1.238 1_655 S
C175 O179 1.241 . S
C176 O169 1.247 . S
C176 O170 1.261 . S
C177 O172 1.259 . S
C177 O174 1.235 . S
O178 Co168 2.021 . S
O178 C175 1.238 1_455 S
O179 Co173 2.052 . S
O179 C175 1.241 . S
O180 Co168 2.137 . S
O180 C171 1.248 . S
O181 Co168 2.244 1_655 S
O181 C171 1.271 1_655 S
O181 Co173 2.135 . S
Co182 O183 2.216 1_455 S
Co182 O184 2.091 . S
Co182 O186 2.004 . S
Co182 O192 2.021 . S
Co182 O194 2.137 . S
Co182 O195 2.244 . S
O183 Co182 2.216 1_655 S
O183 C190 1.247 . S
O184 Co182 2.091 . S
O184 C190 1.261 1_455 S
C185 O194 1.247 . S
C185 O195 1.272 . S
O186 Co182 2.004 . S
O186 C191 1.259 . S
Co187 O188 2.061 . S
Co187 O193 2.052 . S
Co187 O195 2.135 . S
O188 Co187 2.061 . S
O188 C191 1.235 . S
C189 O192 1.238 . S
C189 O193 1.241 . S
C190 O183 1.247 . S
C190 O184 1.261 1_655 S
C191 O186 1.259 . S
C191 O188 1.235 . S
O192 Co182 2.021 . S
O192 C189 1.238 . S
O193 Co187 2.052 . S
O193 C189 1.241 . S
O194 Co182 2.137 . S
O194 C185 1.247 . S
O195 Co182 2.244 . S
O195 C185 1.272 . S
O195 Co187 2.135 . S
Co196 O197 2.216 . S
Co196 O198 2.091 . S
Co196 O200 2.004 . S
Co196 O206 2.021 . S
Co196 O208 2.137 . S
Co196 O209 2.244 . S
O197 Co196 2.216 . S
O197 C204 1.247 . S
O198 Co196 2.091 . S
O198 C204 1.261 . S
C199 O208 1.247 . S
C199 O209 1.272 . S
O200 Co196 2.004 . S
O200 C205 1.259 . S
Co201 O202 2.061 . S
Co201 O207 2.052 . S
Co201 O209 2.135 . S
O202 Co201 2.061 . S
O202 C205 1.235 . S
C203 O206 1.238 . S
C203 O207 1.241 . S
C204 O197 1.247 . S
C204 O198 1.261 . S
C205 O200 1.259 . S
C205 O202 1.235 . S
O206 Co196 2.021 . S
O206 C203 1.238 . S
O207 Co201 2.052 . S
O207 C203 1.241 . S
O208 Co196 2.137 . S
O208 C199 1.247 . S
O209 Co196 2.244 . S
O209 C199 1.272 . S
O209 Co201 2.135 . S
Co210 O211 2.216 . S
Co210 O212 2.091 . S
Co210 O214 2.004 . S
Co210 O220 2.021 . S
Co210 O222 2.137 . S
Co210 O223 2.244 . S
O211 Co210 2.216 . S
O211 C218 1.247 . S
O212 Co210 2.091 . S
O212 C218 1.261 . S
C213 O222 1.247 . S
C213 O223 1.272 . S
O214 Co210 2.004 . S
O214 C219 1.259 . S
Co215 O216 2.061 . S
Co215 O221 2.052 . S
Co215 O223 2.135 . S
O216 Co215 2.061 . S
O216 C219 1.235 . S
C217 O220 1.238 . S
C217 O221 1.241 . S
C218 O211 1.247 . S
C218 O212 1.261 . S
C219 O214 1.259 . S
C219 O216 1.235 . S
O220 Co210 2.021 . S
O220 C217 1.238 . S
O221 Co215 2.052 . S
O221 C217 1.241 . S
O222 Co210 2.137 . S
O222 C213 1.247 . S
O223 Co210 2.244 . S
O223 C213 1.272 . S
O223 Co215 2.135 . S
Co224 O225 2.216 . S
Co224 O226 2.091 . S
Co224 O228 2.004 1_545 S
Co224 O234 2.021 . S
Co224 O236 2.137 . S
Co224 O237 2.244 1_545 S
O225 Co224 2.216 . S
O225 C232 1.247 . S
O226 Co224 2.091 . S
O226 C232 1.261 . S
C227 O236 1.247 . S
C227 O237 1.272 1_545 S
O228 Co224 2.004 1_565 S
O228 C233 1.259 . S
Co229 O230 2.061 . S
Co229 O235 2.052 . S
Co229 O237 2.135 . S
O230 Co229 2.061 . S
O230 C233 1.235 . S
C231 O234 1.231 1_565 S
C231 O235 1.253 . S
C232 O225 1.247 . S
C232 O226 1.261 . S
C233 O228 1.259 . S
C233 O230 1.235 . S
O234 Co224 2.021 . S
O234 C231 1.231 1_545 S
O235 Co229 2.052 . S
O235 C231 1.253 . S
O236 Co224 2.137 . S
O236 C227 1.247 . S
O237 Co224 2.244 1_565 S
O237 C227 1.272 1_565 S
O237 Co229 2.135 . S
Co238 O239 2.216 . S
Co238 O240 2.091 . S
Co238 O242 2.004 . S
Co238 O248 2.021 . S
Co238 O250 2.137 . S
Co238 O251 2.244 . S
O239 Co238 2.216 . S
O239 C246 1.247 . S
O240 Co238 2.091 . S
O240 C246 1.261 . S
C241 O250 1.247 . S
C241 O251 1.272 . S
O242 Co238 2.004 . S
O242 C247 1.259 . S
Co243 O244 2.061 . S
Co243 O249 2.052 . S
Co243 O251 2.135 . S
O244 Co243 2.061 . S
O244 C247 1.235 . S
C245 O248 1.238 . S
C245 O249 1.241 . S
C246 O239 1.247 . S
C246 O240 1.261 . S
C247 O242 1.259 . S
C247 O244 1.235 . S
O248 Co238 2.021 . S
O248 C245 1.238 . S
O249 Co243 2.052 . S
O249 C245 1.241 . S
O250 Co238 2.137 . S
O250 C241 1.247 . S
O251 Co238 2.244 . S
O251 C241 1.272 . S
O251 Co243 2.135 . S
Co252 O253 2.216 1_545 S
Co252 O254 2.091 1_545 S
Co252 O256 2.004 . S
Co252 O262 2.021 . S
Co252 O264 2.137 . S
Co252 O265 2.244 . S
O253 Co252 2.216 1_565 S
O253 C260 1.247 . S
O254 Co252 2.091 1_565 S
O254 C260 1.261 . S
C255 O264 1.247 . S
C255 O265 1.272 . S
O256 Co252 2.004 . S
O256 C261 1.259 . S
Co257 O258 2.061 . S
Co257 O263 2.052 . S
Co257 O265 2.135 . S
O258 Co257 2.061 . S
O258 C261 1.235 . S
C259 O262 1.238 . S
C259 O263 1.241 . S
C260 O253 1.247 . S
C260 O254 1.261 . S
C261 O256 1.259 . S
C261 O258 1.235 . S
O262 Co252 2.021 . S
O262 C259 1.238 . S
O263 Co257 2.052 . S
O263 C259 1.241 . S
O264 Co252 2.137 . S
O264 C255 1.247 . S
O265 Co252 2.244 . S
O265 C255 1.272 . S
O265 Co257 2.135 . S
Co266 O267 2.216 . S
Co266 O268 2.091 . S
Co266 O270 2.004 . S
Co266 O276 2.021 . S
Co266 O278 2.137 1_554 S
Co266 O279 2.244 . S
O267 Co266 2.216 . S
O267 C274 1.247 . S
O268 Co266 2.091 . S
O268 C274 1.261 . S
C269 O278 1.247 . S
C269 O279 1.272 1_556 S
O270 Co266 2.004 . S
O270 C275 1.259 . S
Co271 O272 2.061 . S
Co271 O277 2.052 . S
Co271 O279 2.135 . S
O272 Co271 2.061 . S
O272 C275 1.235 . S
C273 O276 1.238 . S
C273 O277 1.241 . S
C274 O267 1.247 . S
C274 O268 1.261 . S
C275 O270 1.259 . S
C275 O272 1.235 . S
O276 Co266 2.021 . S
O276 C273 1.238 . S
O277 Co271 2.052 . S
O277 C273 1.241 . S
O278 Co266 2.137 1_556 S
O278 C269 1.247 . S
O279 Co266 2.244 . S
O279 C269 1.272 1_554 S
O279 Co271 2.135 . S
Co280 O281 2.216 . S
Co280 O282 2.091 1_556 S
Co280 O284 2.004 . S
Co280 O290 2.021 1_556 S
Co280 O292 2.137 . S
Co280 O293 2.244 . S
O281 Co280 2.216 . S
O281 C288 1.247 1_556 S
O282 Co280 2.091 1_554 S
O282 C288 1.261 . S
C283 O292 1.247 . S
C283 O293 1.272 . S
O284 Co280 2.004 . S
O284 C289 1.259 . S
Co285 O286 2.062 1_556 S
Co285 O291 2.052 1_556 S
Co285 O293 2.135 . S
O286 Co285 2.062 1_554 S
O286 C289 1.235 1_554 S
C287 O290 1.238 . S
C287 O291 1.241 . S
C288 O281 1.247 1_554 S
C288 O282 1.261 . S
C289 O284 1.259 . S
C289 O286 1.235 1_556 S
O290 Co280 2.021 1_554 S
O290 C287 1.238 . S
O291 Co285 2.052 1_554 S
O291 C287 1.241 . S
O292 Co280 2.137 . S
O292 C283 1.247 . S
O293 Co280 2.244 . S
O293 C283 1.272 . S
O293 Co285 2.135 . S
Co294 O295 2.216 . S
Co294 O296 2.091 . S
Co294 O298 2.004 . S
Co294 O304 2.021 . S
Co294 O306 2.137 . S
Co294 O307 2.244 . S
O295 Co294 2.216 . S
O295 C302 1.247 . S
O296 Co294 2.091 . S
O296 C302 1.261 . S
C297 O306 1.247 . S
C297 O307 1.272 . S
O298 Co294 2.004 . S
O298 C303 1.259 . S
Co299 O300 2.061 . S
Co299 O305 2.052 . S
Co299 O307 2.135 . S
O300 Co299 2.061 . S
O300 C303 1.235 . S
C301 O304 1.238 . S
C301 O305 1.241 . S
C302 O295 1.247 . S
C302 O296 1.261 . S
C303 O298 1.259 . S
C303 O300 1.235 . S
O304 Co294 2.021 . S
O304 C301 1.238 . S
O305 Co299 2.052 . S
O305 C301 1.241 . S
O306 Co294 2.137 . S
O306 C297 1.247 . S
O307 Co294 2.244 . S
O307 C297 1.272 . S
O307 Co299 2.135 . S
Co308 O309 2.216 . S
Co308 O310 2.091 . S
Co308 O312 2.004 . S
Co308 O318 2.021 . S
Co308 O320 2.137 . S
Co308 O321 2.244 . S
O309 Co308 2.216 . S
O309 C316 1.247 . S
O310 Co308 2.091 . S
O310 C316 1.261 . S
C311 O320 1.247 . S
C311 O321 1.272 . S
O312 Co308 2.004 . S
O312 C317 1.259 . S
Co313 O314 2.061 . S
Co313 O319 2.052 . S
Co313 O321 2.135 . S
O314 Co313 2.061 . S
O314 C317 1.235 . S
C315 O318 1.238 . S
C315 O319 1.241 . S
C316 O309 1.247 . S
C316 O310 1.261 . S
C317 O312 1.259 . S
C317 O314 1.235 . S
O318 Co308 2.021 . S
O318 C315 1.238 . S
O319 Co313 2.052 . S
O319 C315 1.241 . S
O320 Co308 2.137 . S
O320 C311 1.247 . S
O321 Co308 2.244 . S
O321 C311 1.272 . S
O321 Co313 2.135 . S
Co322 O323 2.216 . S
Co322 O324 2.091 . S
Co322 O326 2.004 . S
Co322 O332 2.021 . S
Co322 O334 2.137 . S
Co322 O335 2.244 . S
O323 Co322 2.216 . S
O323 C330 1.247 . S
O324 Co322 2.091 . S
O324 C330 1.261 . S
C325 O334 1.247 . S
C325 O335 1.272 . S
O326 Co322 2.004 . S
O326 C331 1.259 . S
Co327 O328 2.061 . S
Co327 O333 2.052 . S
Co327 O335 2.135 . S
O328 Co327 2.061 . S
O328 C331 1.235 . S
C329 O332 1.238 . S
C329 O333 1.241 . S
C330 O323 1.247 . S
C330 O324 1.261 . S
C331 O326 1.259 . S
C331 O328 1.235 . S
O332 Co322 2.021 . S
O332 C329 1.238 . S
O333 Co327 2.052 . S
O333 C329 1.241 . S
O334 Co322 2.137 . S
O334 C325 1.247 . S
O335 Co322 2.244 . S
O335 C325 1.272 . S
O335 Co327 2.135 . S
C336 O352 1.257 1_455 S
C336 O354 1.254 . S
N337 C338 1.333 1_565 S
N337 C342 1.307 . S
N337 Zn343 2.020 1_665 S
C338 N337 1.333 1_545 S
C338 C339 1.379 . S
C338 H356 0.952 . S
C339 C338 1.379 . S
C339 C340 1.390 1_545 S
C339 H366 0.949 . S
C340 C339 1.390 1_565 S
C340 C341 1.357 . S
C341 C340 1.357 . S
C341 C342 1.370 . S
C341 H367 0.950 . S
C342 N337 1.307 . S
C342 C341 1.370 . S
C342 H360 0.948 . S
Zn343 N337 2.020 1_445 S
Zn343 O352 2.031 1_454 S
Zn343 O358 2.034 . S
Zn343 O362 2.025 1_545 S
Zn343 O364 2.024 1_545 S
C344 O363 1.246 . S
C344 O364 1.249 . S
N345 C346 1.307 1_554 S
N345 C347 1.333 . S
N345 Zn351 2.020 . S
C346 N345 1.307 1_556 S
C346 C350 1.370 . S
C346 H357 0.948 . S
C347 N345 1.333 . S
C347 C348 1.379 . S
C347 H355 0.952 . S
C348 C347 1.379 . S
C348 C349 1.392 1_554 S
C348 H368 0.949 . S
C349 C348 1.392 1_556 S
C349 C350 1.356 . S
C350 C346 1.370 . S
C350 C349 1.356 . S
C350 H369 0.950 . S
Zn351 N345 2.020 . S
Zn351 O354 2.025 1_554 S
Zn351 O359 2.024 . S
Zn351 O361 2.039 . S
Zn351 O363 2.034 1_545 S
O352 C336 1.257 1_655 S
O352 Zn343 2.031 1_656 S
C353 O358 1.246 . S
C353 O359 1.249 . S
O354 C336 1.254 . S
O354 Zn351 2.025 1_556 S
H355 C347 0.952 . S
H356 C338 0.952 . S
H357 C346 0.948 . S
O358 Zn343 2.034 . S
O358 C353 1.246 . S
O359 Zn351 2.024 . S
O359 C353 1.249 . S
H360 C342 0.948 . S
O361 Zn351 2.039 . S
O361 C365 1.251 1_545 S
O362 Zn343 2.025 1_565 S
O362 C365 1.254 . S
O363 C344 1.246 . S
O363 Zn351 2.034 1_565 S
O364 Zn343 2.024 1_565 S
O364 C344 1.249 . S
C365 O361 1.251 1_565 S
C365 O362 1.254 . S
H366 C339 0.949 . S
H367 C341 0.950 . S
H368 C348 0.949 . S
H369 C350 0.950 . S
C370 O386 1.251 . S
C370 O388 1.254 . S
N371 C372 1.333 . S
N371 C376 1.307 . S
N371 Zn377 2.020 . S
C372 N371 1.333 . S
C372 C373 1.379 . S
C372 H390 0.952 . S
C373 C372 1.379 . S
C373 C374 1.390 . S
C373 H400 0.949 . S
C374 C373 1.390 . S
C374 C375 1.357 . S
C375 C374 1.357 . S
C375 C376 1.370 . S
C375 H401 0.950 . S
C376 N371 1.307 . S
C376 C375 1.370 . S
C376 H394 0.948 . S
Zn377 N371 2.020 . S
Zn377 O386 2.039 . S
Zn377 O392 2.034 . S
Zn377 O396 2.025 . S
Zn377 O398 2.024 . S
C378 O397 1.246 . S
C378 O398 1.249 . S
N379 C380 1.307 . S
N379 C381 1.333 . S
N379 Zn385 2.020 . S
C380 N379 1.307 . S
C380 C384 1.370 . S
C380 H391 0.948 . S
C381 N379 1.333 . S
C381 C382 1.379 . S
C381 H389 0.952 . S
C382 C381 1.379 . S
C382 C383 1.390 . S
C382 H402 0.949 . S
C383 C382 1.390 . S
C383 C384 1.357 . S
C384 C380 1.370 . S
C384 C383 1.357 . S
C384 H403 0.950 . S
Zn385 N379 2.020 . S
Zn385 O388 2.025 . S
Zn385 O393 2.024 . S
Zn385 O395 2.039 . S
Zn385 O397 2.034 . S
O386 C370 1.251 . S
O386 Zn377 2.039 . S
C387 O392 1.246 . S
C387 O393 1.249 . S
O388 C370 1.254 . S
O388 Zn385 2.025 . S
H389 C381 0.952 . S
H390 C372 0.952 . S
H391 C380 0.948 . S
O392 Zn377 2.034 . S
O392 C387 1.246 . S
O393 Zn385 2.024 . S
O393 C387 1.249 . S
H394 C376 0.948 . S
O395 Zn385 2.039 . S
O395 C399 1.251 . S
O396 Zn377 2.025 . S
O396 C399 1.254 . S
O397 C378 1.246 . S
O397 Zn385 2.034 . S
O398 Zn377 2.024 . S
O398 C378 1.249 . S
C399 O395 1.251 . S
C399 O396 1.254 . S
H400 C373 0.949 . S
H401 C375 0.950 . S
H402 C382 0.949 . S
H403 C384 0.950 . S
C404 O420 1.250 . S
C404 O422 1.254 . S
N405 C406 1.333 . S
N405 C410 1.307 . S
N405 Zn411 2.020 . S
C406 N405 1.333 . S
C406 C407 1.379 . S
C406 H424 0.952 . S
C407 C406 1.379 . S
C407 C408 1.390 . S
C407 H434 0.949 . S
C408 C407 1.390 . S
C408 C409 1.357 . S
C409 C408 1.357 . S
C409 C410 1.370 . S
C409 H435 0.950 . S
C410 N405 1.307 . S
C410 C409 1.370 . S
C410 H428 0.948 . S
Zn411 N405 2.020 . S
Zn411 O420 2.039 1_565 S
Zn411 O426 2.034 1_565 S
Zn411 O430 2.025 . S
Zn411 O432 2.024 . S
C412 O431 1.246 1_565 S
C412 O432 1.249 . S
N413 C414 1.307 . S
N413 C415 1.333 . S
N413 Zn419 2.020 . S
C414 N413 1.307 . S
C414 C418 1.370 . S
C414 H425 0.948 . S
C415 N413 1.333 . S
C415 C416 1.379 . S
C415 H423 0.952 . S
C416 C415 1.379 . S
C416 C417 1.390 . S
C416 H436 0.949 . S
C417 C416 1.390 . S
C417 C418 1.357 . S
C418 C414 1.370 . S
C418 C417 1.357 . S
C418 H437 0.950 . S
Zn419 N413 2.020 . S
Zn419 O422 2.025 . S
Zn419 O427 2.024 . S
Zn419 O429 2.039 . S
Zn419 O431 2.034 . S
O420 C404 1.250 . S
O420 Zn411 2.039 1_545 S
C421 O426 1.246 . S
C421 O427 1.249 . S
O422 C404 1.254 . S
O422 Zn419 2.025 . S
H423 C415 0.952 . S
H424 C406 0.952 . S
H425 C414 0.948 . S
O426 Zn411 2.034 1_545 S
O426 C421 1.246 . S
O427 Zn419 2.024 . S
O427 C421 1.249 . S
H428 C410 0.948 . S
O429 Zn419 2.039 . S
O429 C433 1.273 . S
O430 Zn411 2.025 . S
O430 C433 1.236 1_565 S
O431 C412 1.246 1_545 S
O431 Zn419 2.034 . S
O432 Zn411 2.024 . S
O432 C412 1.249 . S
C433 O429 1.273 . S
C433 O430 1.236 1_545 S
H434 C407 0.949 . S
H435 C409 0.950 . S
H436 C416 0.949 . S
H437 C418 0.950 . S
C438 O454 1.251 . S
C438 O456 1.254 . S
N439 C440 1.333 . S
N439 C444 1.307 . S
N439 Zn445 2.020 . S
C440 N439 1.333 . S
C440 C441 1.379 . S
C440 H458 0.952 . S
C441 C440 1.379 . S
C441 C442 1.390 . S
C441 H468 0.949 . S
C442 C441 1.390 . S
C442 C443 1.357 . S
C443 C442 1.357 . S
C443 C444 1.370 . S
C443 H469 0.950 . S
C444 N439 1.307 . S
C444 C443 1.370 . S
C444 H462 0.948 . S
Zn445 N439 2.020 . S
Zn445 O454 2.039 . S
Zn445 O460 2.034 . S
Zn445 O464 2.025 . S
Zn445 O466 2.024 . S
C446 O465 1.246 . S
C446 O466 1.249 . S
N447 C448 1.307 . S
N447 C449 1.333 . S
N447 Zn453 2.020 . S
C448 N447 1.307 . S
C448 C452 1.370 . S
C448 H459 0.948 . S
C449 N447 1.333 . S
C449 C450 1.379 . S
C449 H457 0.952 . S
C450 C449 1.379 . S
C450 C451 1.390 . S
C450 H470 0.949 . S
C451 C450 1.390 . S
C451 C452 1.357 . S
C452 C448 1.370 . S
C452 C451 1.357 . S
C452 H471 0.950 . S
Zn453 N447 2.020 . S
Zn453 O456 2.025 . S
Zn453 O461 2.024 . S
Zn453 O463 2.039 . S
Zn453 O465 2.034 . S
O454 C438 1.251 . S
O454 Zn445 2.039 . S
C455 O460 1.246 . S
C455 O461 1.249 . S
O456 C438 1.254 . S
O456 Zn453 2.025 . S
H457 C449 0.952 . S
H458 C440 0.952 . S
H459 C448 0.948 . S
O460 Zn445 2.034 . S
O460 C455 1.246 . S
O461 Zn453 2.024 . S
O461 C455 1.249 . S
H462 C444 0.948 . S
O463 Zn453 2.039 . S
O463 C467 1.251 . S
O464 Zn445 2.025 . S
O464 C467 1.254 . S
O465 C446 1.246 . S
O465 Zn453 2.034 . S
O466 Zn445 2.024 . S
O466 C446 1.249 . S
C467 O463 1.251 . S
C467 O464 1.254 . S
H468 C441 0.949 . S
H469 C443 0.950 . S
H470 C450 0.949 . S
H471 C452 0.950 . S
C472 O488 1.251 1_565 S
C472 O490 1.254 . S
N473 C474 1.333 . S
N473 C478 1.307 . S
N473 Zn479 2.020 . S
C474 N473 1.333 . S
C474 C475 1.379 . S
C474 H492 0.952 . S
C475 C474 1.379 . S
C475 C476 1.390 . S
C475 H502 0.949 . S
C476 C475 1.390 . S
C476 C477 1.357 . S
C477 C476 1.357 . S
C477 C478 1.370 . S
C477 H503 0.950 . S
C478 N473 1.307 . S
C478 C477 1.370 . S
C478 H496 0.948 . S
Zn479 N473 2.020 . S
Zn479 O488 2.039 . S
Zn479 O494 2.034 . S
Zn479 O498 2.025 . S
Zn479 O500 2.024 1_545 S
C480 O499 1.246 . S
C480 O500 1.249 . S
N481 C482 1.307 . S
N481 C483 1.333 1_455 S
N481 Zn487 2.020 1_565 S
C482 N481 1.307 . S
C482 C486 1.370 . S
C482 H493 0.948 . S
C483 N481 1.333 1_655 S
C483 C484 1.379 . S
C483 H491 0.952 . S
C484 C483 1.379 . S
C484 C485 1.390 . S
C484 H504 0.949 . S
C485 C484 1.390 . S
C485 C486 1.357 1_655 S
C486 C482 1.370 . S
C486 C485 1.357 1_455 S
C486 H505 0.950 . S
Zn487 N481 2.020 1_545 S
Zn487 O490 2.025 1_545 S
Zn487 O495 2.024 . S
Zn487 O497 2.039 1_455 S
Zn487 O499 2.034 1_545 S
O488 C472 1.251 1_545 S
O488 Zn479 2.039 . S
C489 O494 1.246 . S
C489 O495 1.249 . S
O490 C472 1.254 . S
O490 Zn487 2.025 1_565 S
H491 C483 0.952 . S
H492 C474 0.952 . S
H493 C482 0.948 . S
O494 Zn479 2.034 . S
O494 C489 1.246 . S
O495 Zn487 2.024 . S
O495 C489 1.249 . S
H496 C478 0.948 . S
O497 Zn487 2.039 1_655 S
O497 C501 1.251 . S
O498 Zn479 2.025 . S
O498 C501 1.254 1_455 S
O499 C480 1.246 . S
O499 Zn487 2.034 1_565 S
O500 Zn479 2.024 1_565 S
O500 C480 1.249 . S
C501 O497 1.251 . S
C501 O498 1.254 1_655 S
H502 C475 0.949 . S
H503 C477 0.950 . S
H504 C484 0.949 . S
H505 C486 0.950 . S
C506 O522 1.251 . S
C506 O524 1.254 . S
N507 C508 1.333 . S
N507 C512 1.307 . S
N507 Zn513 2.020 . S
C508 N507 1.333 . S
C508 C509 1.379 . S
C508 H526 0.952 . S
C509 C508 1.379 . S
C509 C510 1.390 . S
C509 H536 0.949 . S
C510 C509 1.390 . S
C510 C511 1.357 . S
C511 C510 1.357 . S
C511 C512 1.370 . S
C511 H537 0.950 . S
C512 N507 1.307 . S
C512 C511 1.370 . S
C512 H530 0.948 . S
Zn513 N507 2.020 . S
Zn513 O522 2.039 . S
Zn513 O528 2.034 . S
Zn513 O532 2.025 . S
Zn513 O534 2.024 . S
C514 O533 1.246 . S
C514 O534 1.249 . S
N515 C516 1.307 . S
N515 C517 1.333 . S
N515 Zn521 2.020 . S
C516 N515 1.307 . S
C516 C520 1.370 . S
C516 H527 0.948 . S
C517 N515 1.333 . S
C517 C518 1.379 . S
C517 H525 0.952 . S
C518 C517 1.379 . S
C518 C519 1.390 . S
C518 H538 0.949 . S
C519 C518 1.390 . S
C519 C520 1.357 . S
C520 C516 1.370 . S
C520 C519 1.357 . S
C520 H539 0.950 . S
Zn521 N515 2.020 . S
Zn521 O524 2.025 . S
Zn521 O529 2.024 . S
Zn521 O531 2.039 . S
Zn521 O533 2.034 . S
O522 C506 1.251 . S
O522 Zn513 2.039 . S
C523 O528 1.246 . S
C523 O529 1.249 . S
O524 C506 1.254 . S
O524 Zn521 2.025 . S
H525 C517 0.952 . S
H526 C508 0.952 . S
H527 C516 0.948 . S
O528 Zn513 2.034 . S
O528 C523 1.246 . S
O529 Zn521 2.024 . S
O529 C523 1.249 . S
H530 C512 0.948 . S
O531 Zn521 2.039 . S
O531 C535 1.251 . S
O532 Zn513 2.025 . S
O532 C535 1.254 . S
O533 C514 1.246 . S
O533 Zn521 2.034 . S
O534 Zn513 2.024 . S
O534 C514 1.249 . S
C535 O531 1.251 . S
C535 O532 1.254 . S
H536 C509 0.949 . S
H537 C511 0.950 . S
H538 C518 0.949 . S
H539 C520 0.950 . S
C540 O556 1.251 . S
C540 O558 1.254 . S
N541 C542 1.333 . S
N541 C546 1.307 . S
N541 Zn547 2.020 . S
C542 N541 1.333 . S
C542 C543 1.379 . S
C542 H560 0.952 . S
C543 C542 1.379 . S
C543 C544 1.390 . S
C543 H570 0.949 . S
C544 C543 1.390 . S
C544 C545 1.357 . S
C545 C544 1.357 . S
C545 C546 1.370 . S
C545 H571 0.950 . S
C546 N541 1.307 . S
C546 C545 1.370 . S
C546 H564 0.948 . S
Zn547 N541 2.020 . S
Zn547 O556 2.039 1_545 S
Zn547 O562 2.034 . S
Zn547 O566 2.025 . S
Zn547 O568 2.024 . S
C548 O567 1.246 . S
C548 O568 1.249 1_565 S
N549 C550 1.307 . S
N549 C551 1.333 1_565 S
N549 Zn555 2.020 1_566 S
C550 N549 1.307 . S
C550 C554 1.370 . S
C550 H561 0.948 . S
C551 N549 1.333 1_545 S
C551 C552 1.379 1_545 S
C551 H559 0.952 . S
C552 C551 1.379 1_565 S
C552 C553 1.390 . S
C552 H572 0.949 1_565 S
C553 C552 1.390 . S
C553 C554 1.357 . S
C554 C550 1.370 . S
C554 C553 1.357 . S
C554 H573 0.950 . S
Zn555 N549 2.020 1_544 S
Zn555 O558 2.025 1_545 S
Zn555 O563 2.024 . S
Zn555 O565 2.039 1_554 S
Zn555 O567 2.034 1_545 S
O556 C540 1.251 . S
O556 Zn547 2.039 1_565 S
C557 O562 1.246 . S
C557 O563 1.249 . S
O558 C540 1.254 . S
O558 Zn555 2.025 1_565 S
H559 C551 0.952 . S
H560 C542 0.952 . S
H561 C550 0.948 . S
O562 Zn547 2.034 . S
O562 C557 1.246 . S
O563 Zn555 2.024 . S
O563 C557 1.249 . S
H564 C546 0.948 . S
O565 Zn555 2.039 1_556 S
O565 C569 1.251 1_556 S
O566 Zn547 2.025 . S
O566 C569 1.254 . S
O567 C548 1.246 . S
O567 Zn555 2.034 1_565 S
O568 Zn547 2.024 . S
O568 C548 1.249 1_545 S
C569 O565 1.251 1_554 S
C569 O566 1.254 . S
H570 C543 0.949 . S
H571 C545 0.950 . S
H572 C552 0.949 1_545 S
H573 C554 0.950 . S
C574 O590 1.251 . S
C574 O592 1.254 . S
N575 C576 1.333 . S
N575 C580 1.307 . S
N575 Zn581 2.020 . S
C576 N575 1.333 . S
C576 C577 1.379 . S
C576 H594 0.952 . S
C577 C576 1.379 . S
C577 C578 1.390 . S
C577 H604 0.949 . S
C578 C577 1.390 . S
C578 C579 1.357 . S
C579 C578 1.357 . S
C579 C580 1.370 . S
C579 H605 0.950 . S
C580 N575 1.307 . S
C580 C579 1.370 . S
C580 H598 0.948 . S
Zn581 N575 2.020 . S
Zn581 O590 2.039 . S
Zn581 O596 2.034 . S
Zn581 O600 2.025 . S
Zn581 O602 2.024 . S
C582 O601 1.246 . S
C582 O602 1.249 . S
N583 C584 1.307 . S
N583 C585 1.333 . S
N583 Zn589 2.020 . S
C584 N583 1.307 . S
C584 C588 1.370 . S
C584 H595 0.948 . S
C585 N583 1.333 . S
C585 C586 1.379 . S
C585 H593 0.952 . S
C586 C585 1.379 . S
C586 C587 1.390 . S
C586 H606 0.949 . S
C587 C586 1.390 . S
C587 C588 1.357 . S
C588 C584 1.370 . S
C588 C587 1.357 . S
C588 H607 0.950 . S
Zn589 N583 2.020 . S
Zn589 O592 2.025 . S
Zn589 O597 2.024 . S
Zn589 O599 2.039 . S
Zn589 O601 2.034 . S
O590 C574 1.251 . S
O590 Zn581 2.039 . S
C591 O596 1.246 . S
C591 O597 1.249 . S
O592 C574 1.254 . S
O592 Zn589 2.025 . S
H593 C585 0.952 . S
H594 C576 0.952 . S
H595 C584 0.948 . S
O596 Zn581 2.034 . S
O596 C591 1.246 . S
O597 Zn589 2.024 . S
O597 C591 1.249 . S
H598 C580 0.948 . S
O599 Zn589 2.039 . S
O599 C603 1.251 . S
O600 Zn581 2.025 . S
O600 C603 1.254 . S
O601 C582 1.246 . S
O601 Zn589 2.034 . S
O602 Zn581 2.024 . S
O602 C582 1.249 . S
C603 O599 1.251 . S
C603 O600 1.254 . S
H604 C577 0.949 . S
H605 C579 0.950 . S
H606 C586 0.949 . S
H607 C588 0.950 . S
C608 O624 1.251 . S
C608 O626 1.254 . S
N609 C610 1.333 . S
N609 C614 1.307 . S
N609 Zn615 2.020 1_556 S
C610 N609 1.333 . S
C610 C611 1.379 . S
C610 H628 0.952 . S
C611 C610 1.379 . S
C611 C612 1.390 . S
C611 H638 0.949 . S
C612 C611 1.390 . S
C612 C613 1.357 . S
C613 C612 1.357 . S
C613 C614 1.370 . S
C613 H639 0.950 . S
C614 N609 1.307 . S
C614 C613 1.370 . S
C614 H632 0.948 . S
Zn615 N609 2.020 1_554 S
Zn615 O624 2.039 . S
Zn615 O630 2.034 . S
Zn615 O634 2.026 1_554 S
Zn615 O636 2.024 1_554 S
C616 O635 1.246 . S
C616 O636 1.249 1_554 S
N617 C618 1.307 . S
N617 C619 1.333 . S
N617 Zn623 2.020 . S
C618 N617 1.307 . S
C618 C622 1.370 . S
C618 H629 0.948 . S
C619 N617 1.333 . S
C619 C620 1.379 . S
C619 H627 0.952 . S
C620 C619 1.379 . S
C620 C621 1.390 . S
C620 H640 0.949 . S
C621 C620 1.390 . S
C621 C622 1.357 . S
C622 C618 1.370 . S
C622 C621 1.357 . S
C622 H641 0.950 . S
Zn623 N617 2.020 . S
Zn623 O626 2.025 . S
Zn623 O631 2.024 . S
Zn623 O633 2.039 . S
Zn623 O635 2.034 . S
O624 C608 1.251 . S
O624 Zn615 2.039 . S
C625 O630 1.246 . S
C625 O631 1.249 . S
O626 C608 1.254 . S
O626 Zn623 2.025 . S
H627 C619 0.952 . S
H628 C610 0.952 . S
H629 C618 0.948 . S
O630 Zn615 2.034 . S
O630 C625 1.246 . S
O631 Zn623 2.024 . S
O631 C625 1.249 . S
H632 C614 0.948 . S
O633 Zn623 2.039 . S
O633 C637 1.251 . S
O634 Zn615 2.026 1_556 S
O634 C637 1.257 1_556 S
O635 C616 1.246 . S
O635 Zn623 2.034 . S
O636 Zn615 2.024 1_556 S
O636 C616 1.249 1_556 S
C637 O633 1.251 . S
C637 O634 1.257 1_554 S
H638 C611 0.949 . S
H639 C613 0.950 . S
H640 C620 0.949 . S
H641 C622 0.950 . S
C642 O658 1.251 . S
C642 O660 1.254 . S
N643 C644 1.333 . S
N643 C648 1.307 . S
N643 Zn649 2.020 . S
C644 N643 1.333 . S
C644 C645 1.379 . S
C644 H662 0.952 . S
C645 C644 1.379 . S
C645 C646 1.390 . S
C645 H672 0.949 . S
C646 C645 1.390 . S
C646 C647 1.357 . S
C647 C646 1.357 . S
C647 C648 1.370 . S
C647 H673 0.950 . S
C648 N643 1.307 . S
C648 C647 1.370 . S
C648 H666 0.948 . S
Zn649 N643 2.020 . S
Zn649 O658 2.039 . S
Zn649 O664 2.034 . S
Zn649 O668 2.025 . S
Zn649 O670 2.024 . S
C650 O669 1.246 . S
C650 O670 1.249 . S
N651 C652 1.307 . S
N651 C653 1.333 . S
N651 Zn657 2.020 . S
C652 N651 1.307 . S
C652 C656 1.370 . S
C652 H663 0.948 . S
C653 N651 1.333 . S
C653 C654 1.379 . S
C653 H661 0.952 . S
C654 C653 1.379 . S
C654 C655 1.390 . S
C654 H674 0.949 . S
C655 C654 1.390 . S
C655 C656 1.357 . S
C656 C652 1.370 . S
C656 C655 1.357 . S
C656 H675 0.950 . S
Zn657 N651 2.020 . S
Zn657 O660 2.025 . S
Zn657 O665 2.024 . S
Zn657 O667 2.039 . S
Zn657 O669 2.034 . S
O658 C642 1.251 . S
O658 Zn649 2.039 . S
C659 O664 1.246 . S
C659 O665 1.249 . S
O660 C642 1.254 . S
O660 Zn657 2.025 . S
H661 C653 0.952 . S
H662 C644 0.952 . S
H663 C652 0.948 . S
O664 Zn649 2.034 . S
O664 C659 1.246 . S
O665 Zn657 2.024 . S
O665 C659 1.249 . S
H666 C648 0.948 . S
O667 Zn657 2.039 . S
O667 C671 1.251 . S
O668 Zn649 2.025 . S
O668 C671 1.254 . S
O669 C650 1.246 . S
O669 Zn657 2.034 . S
O670 Zn649 2.024 . S
O670 C650 1.249 . S
C671 O667 1.251 . S
C671 O668 1.254 . S
H672 C645 0.949 . S
H673 C647 0.950 . S
H674 C654 0.949 . S
H675 C656 0.950 . S
C676 O692 1.251 . S
C676 O694 1.254 . S
N677 C678 1.333 . S
N677 C682 1.307 . S
N677 Zn683 2.020 . S
C678 N677 1.333 . S
C678 C679 1.379 . S
C678 H696 0.952 . S
C679 C678 1.379 . S
C679 C680 1.390 . S
C679 H706 0.949 . S
C680 C679 1.390 . S
C680 C681 1.357 . S
C681 C680 1.357 . S
C681 C682 1.370 . S
C681 H707 0.950 . S
C682 N677 1.307 . S
C682 C681 1.370 . S
C682 H700 0.948 . S
Zn683 N677 2.020 . S
Zn683 O692 2.039 . S
Zn683 O698 2.034 . S
Zn683 O702 2.025 . S
Zn683 O704 2.024 . S
C684 O703 1.246 . S
C684 O704 1.249 . S
N685 C686 1.307 1_455 S
N685 C687 1.333 . S
N685 Zn691 2.020 . S
C686 N685 1.307 1_655 S
C686 C690 1.370 . S
C686 H697 0.948 . S
C687 N685 1.333 . S
C687 C688 1.379 . S
C687 H695 0.952 . S
C688 C687 1.379 . S
C688 C689 1.390 1_455 S
C688 H708 0.949 . S
C689 C688 1.390 1_655 S
C689 C690 1.357 . S
C690 C686 1.370 . S
C690 C689 1.357 . S
C690 H709 0.950 . S
Zn691 N685 2.020 . S
Zn691 O694 2.025 . S
Zn691 O699 2.024 1_455 S
Zn691 O701 2.039 . S
Zn691 O703 2.034 . S
O692 C676 1.251 . S
O692 Zn683 2.039 . S
C693 O698 1.246 1_655 S
C693 O699 1.249 . S
O694 C676 1.254 . S
O694 Zn691 2.025 . S
H695 C687 0.952 . S
H696 C678 0.952 . S
H697 C686 0.948 . S
O698 Zn683 2.034 . S
O698 C693 1.246 1_455 S
O699 Zn691 2.024 1_655 S
O699 C693 1.249 . S
H700 C682 0.948 . S
O701 Zn691 2.039 . S
O701 C705 1.251 . S
O702 Zn683 2.025 . S
O702 C705 1.254 . S
O703 C684 1.246 . S
O703 Zn691 2.034 . S
O704 Zn683 2.024 . S
O704 C684 1.249 . S
C705 O701 1.251 . S
C705 O702 1.254 . S
H706 C679 0.949 . S
H707 C681 0.950 . S
H708 C688 0.949 . S
H709 C690 0.950 . S
C710 O726 1.251 . S
C710 O728 1.254 . S
N711 C712 1.333 . S
N711 C716 1.307 . S
N711 Zn717 2.020 . S
C712 N711 1.333 . S
C712 C713 1.379 . S
C712 H730 0.952 . S
C713 C712 1.379 . S
C713 C714 1.390 . S
C713 H740 0.949 . S
C714 C713 1.390 . S
C714 C715 1.357 . S
C715 C714 1.357 . S
C715 C716 1.370 . S
C715 H741 0.950 . S
C716 N711 1.307 . S
C716 C715 1.370 . S
C716 H734 0.948 . S
Zn717 N711 2.020 . S
Zn717 O726 2.039 . S
Zn717 O732 2.034 . S
Zn717 O736 2.025 . S
Zn717 O738 2.024 . S
C718 O737 1.246 . S
C718 O738 1.249 . S
N719 C720 1.307 . S
N719 C721 1.333 . S
N719 Zn725 2.020 . S
C720 N719 1.307 . S
C720 C724 1.370 . S
C720 H731 0.948 . S
C721 N719 1.333 . S
C721 C722 1.379 . S
C721 H729 0.952 . S
C722 C721 1.379 . S
C722 C723 1.390 . S
C722 H742 0.949 . S
C723 C722 1.390 . S
C723 C724 1.357 . S
C724 C720 1.370 . S
C724 C723 1.357 . S
C724 H743 0.950 . S
Zn725 N719 2.020 . S
Zn725 O728 2.025 . S
Zn725 O733 2.024 . S
Zn725 O735 2.039 . S
Zn725 O737 2.034 . S
O726 C710 1.251 . S
O726 Zn717 2.039 . S
C727 O732 1.246 . S
C727 O733 1.249 . S
O728 C710 1.254 . S
O728 Zn725 2.025 . S
H729 C721 0.952 . S
H730 C712 0.952 . S
H731 C720 0.948 . S
O732 Zn717 2.034 . S
O732 C727 1.246 . S
O733 Zn725 2.024 . S
O733 C727 1.249 . S
H734 C716 0.948 . S
O735 Zn725 2.039 . S
O735 C739 1.251 . S
O736 Zn717 2.025 . S
O736 C739 1.254 . S
O737 C718 1.246 . S
O737 Zn725 2.034 . S
O738 Zn717 2.024 . S
O738 C718 1.249 . S
C739 O735 1.251 . S
C739 O736 1.254 . S
H740 C713 0.949 . S
H741 C715 0.950 . S
H742 C722 0.949 . S
H743 C724 0.950 . S
C744 O760 1.251 . S
C744 O762 1.254 . S
N745 C746 1.333 . S
N745 C750 1.307 . S
N745 Zn751 2.020 . S
C746 N745 1.333 . S
C746 C747 1.379 . S
C746 H764 0.952 . S
C747 C746 1.379 . S
C747 C748 1.390 . S
C747 H774 0.949 . S
C748 C747 1.390 . S
C748 C749 1.357 . S
C749 C748 1.357 . S
C749 C750 1.370 . S
C749 H775 0.950 . S
C750 N745 1.307 . S
C750 C749 1.370 . S
C750 H768 0.948 . S
Zn751 N745 2.020 . S
Zn751 O760 2.039 . S
Zn751 O766 2.034 . S
Zn751 O770 2.025 . S
Zn751 O772 2.024 . S
C752 O771 1.246 . S
C752 O772 1.249 . S
N753 C754 1.307 . S
N753 C755 1.333 . S
N753 Zn759 2.020 . S
C754 N753 1.307 . S
C754 C758 1.370 . S
C754 H765 0.948 . S
C755 N753 1.333 . S
C755 C756 1.379 . S
C755 H763 0.952 . S
C756 C755 1.379 . S
C756 C757 1.390 . S
C756 H776 0.949 . S
C757 C756 1.390 . S
C757 C758 1.357 . S
C758 C754 1.370 . S
C758 C757 1.357 . S
C758 H777 0.950 . S
Zn759 N753 2.020 . S
Zn759 O762 2.025 . S
Zn759 O767 2.024 . S
Zn759 O769 2.039 . S
Zn759 O771 2.034 . S
O760 C744 1.251 . S
O760 Zn751 2.039 . S
C761 O766 1.246 . S
C761 O767 1.249 . S
O762 C744 1.254 . S
O762 Zn759 2.025 . S
H763 C755 0.952 . S
H764 C746 0.952 . S
H765 C754 0.948 . S
O766 Zn751 2.034 . S
O766 C761 1.246 . S
O767 Zn759 2.024 . S
O767 C761 1.249 . S
H768 C750 0.948 . S
O769 Zn759 2.039 . S
O769 C773 1.251 . S
O770 Zn751 2.025 . S
O770 C773 1.254 . S
O771 C752 1.246 . S
O771 Zn759 2.034 . S
O772 Zn751 2.024 . S
O772 C752 1.249 . S
C773 O769 1.251 . S
C773 O770 1.254 . S
H774 C747 0.949 . S
H775 C749 0.950 . S
H776 C756 0.949 . S
H777 C758 0.950 . S
C778 O794 1.251 . S
C778 O796 1.254 . S
N779 C780 1.333 . S
N779 C784 1.307 . S
N779 Zn785 2.020 . S
C780 N779 1.333 . S
C780 C781 1.379 . S
C780 H798 0.952 . S
C781 C780 1.379 . S
C781 C782 1.390 . S
C781 H808 0.949 . S
C782 C781 1.390 . S
C782 C783 1.357 . S
C783 C782 1.357 . S
C783 C784 1.370 . S
C783 H809 0.950 . S
C784 N779 1.307 . S
C784 C783 1.370 . S
C784 H802 0.948 . S
Zn785 N779 2.020 . S
Zn785 O794 2.039 . S
Zn785 O800 2.034 . S
Zn785 O804 2.025 . S
Zn785 O806 2.024 . S
C786 O805 1.246 . S
C786 O806 1.249 . S
N787 C788 1.307 . S
N787 C789 1.333 . S
N787 Zn793 2.020 . S
C788 N787 1.307 . S
C788 C792 1.370 . S
C788 H799 0.948 . S
C789 N787 1.333 . S
C789 C790 1.379 . S
C789 H797 0.952 . S
C790 C789 1.379 . S
C790 C791 1.390 . S
C790 H810 0.949 . S
C791 C790 1.390 . S
C791 C792 1.357 . S
C792 C788 1.370 . S
C792 C791 1.357 . S
C792 H811 0.950 . S
Zn793 N787 2.020 . S
Zn793 O796 2.025 . S
Zn793 O801 2.024 . S
Zn793 O803 2.039 . S
Zn793 O805 2.034 . S
O794 C778 1.251 . S
O794 Zn785 2.039 . S
C795 O800 1.246 . S
C795 O801 1.249 . S
O796 C778 1.254 . S
O796 Zn793 2.025 . S
H797 C789 0.952 . S
H798 C780 0.952 . S
H799 C788 0.948 . S
O800 Zn785 2.034 . S
O800 C795 1.246 . S
O801 Zn793 2.024 . S
O801 C795 1.249 . S
H802 C784 0.948 . S
O803 Zn793 2.039 . S
O803 C807 1.251 . S
O804 Zn785 2.025 . S
O804 C807 1.254 . S
O805 C786 1.246 . S
O805 Zn793 2.034 . S
O806 Zn785 2.024 . S
O806 C786 1.249 . S
C807 O803 1.251 . S
C807 O804 1.254 . S
H808 C781 0.949 . S
H809 C783 0.950 . S
H810 C790 0.949 . S
H811 C792 0.950 . S
C812 O828 1.251 . S
C812 O830 1.254 . S
N813 C814 1.333 . S
N813 C818 1.307 . S
N813 Zn819 2.020 . S
C814 N813 1.333 . S
C814 C815 1.379 . S
C814 H832 0.952 . S
C815 C814 1.379 . S
C815 C816 1.390 . S
C815 H842 0.949 . S
C816 C815 1.390 . S
C816 C817 1.357 . S
C817 C816 1.357 . S
C817 C818 1.370 . S
C817 H843 0.950 . S
C818 N813 1.307 . S
C818 C817 1.370 . S
C818 H836 0.948 . S
Zn819 N813 2.020 . S
Zn819 O828 2.039 . S
Zn819 O834 2.034 . S
Zn819 O838 2.025 . S
Zn819 O840 2.024 . S
C820 O839 1.246 . S
C820 O840 1.249 . S
N821 C822 1.307 . S
N821 C823 1.333 . S
N821 Zn827 2.020 . S
C822 N821 1.307 . S
C822 C826 1.370 . S
C822 H833 0.948 . S
C823 N821 1.333 . S
C823 C824 1.379 . S
C823 H831 0.952 . S
C824 C823 1.379 . S
C824 C825 1.390 . S
C824 H844 0.949 . S
C825 C824 1.390 . S
C825 C826 1.357 . S
C826 C822 1.370 . S
C826 C825 1.357 . S
C826 H845 0.950 . S
Zn827 N821 2.020 . S
Zn827 O830 2.025 . S
Zn827 O835 2.024 . S
Zn827 O837 2.039 . S
Zn827 O839 2.034 . S
O828 C812 1.251 . S
O828 Zn819 2.039 . S
C829 O834 1.246 . S
C829 O835 1.249 . S
O830 C812 1.254 . S
O830 Zn827 2.025 . S
H831 C823 0.952 . S
H832 C814 0.952 . S
H833 C822 0.948 . S
O834 Zn819 2.034 . S
O834 C829 1.246 . S
O835 Zn827 2.024 . S
O835 C829 1.249 . S
H836 C818 0.948 . S
O837 Zn827 2.039 . S
O837 C841 1.251 . S
O838 Zn819 2.025 . S
O838 C841 1.254 . S
O839 C820 1.246 . S
O839 Zn827 2.034 . S
O840 Zn819 2.024 . S
O840 C820 1.249 . S
C841 O837 1.251 . S
C841 O838 1.254 . S
H842 C815 0.949 . S
H843 C817 0.950 . S
H844 C824 0.949 . S
H845 C826 0.950 . S
C846 O862 1.251 . S
C846 O864 1.254 . S
N847 C848 1.333 . S
N847 C852 1.307 . S
N847 Zn853 2.020 . S
C848 N847 1.333 . S
C848 C849 1.379 . S
C848 H866 0.952 . S
C849 C848 1.379 . S
C849 C850 1.390 . S
C849 H876 0.949 . S
C850 C849 1.390 . S
C850 C851 1.357 . S
C851 C850 1.357 . S
C851 C852 1.370 . S
C851 H877 0.950 . S
C852 N847 1.307 . S
C852 C851 1.370 . S
C852 H870 0.948 . S
Zn853 N847 2.020 . S
Zn853 O862 2.039 . S
Zn853 O868 2.034 . S
Zn853 O872 2.027 1_554 S
Zn853 O874 2.024 . S
C854 O873 1.246 . S
C854 O874 1.249 1_655 S
N855 C856 1.307 . S
N855 C857 1.333 1_554 S
N855 Zn861 2.020 . S
C856 N855 1.307 . S
C856 C860 1.370 . S
C856 H867 0.948 . S
C857 N855 1.333 1_556 S
C857 C858 1.383 . S
C857 H865 0.952 . S
C858 C857 1.383 . S
C858 C859 1.388 1_455 S
C858 H878 0.947 1_455 S
C859 C858 1.388 1_655 S
C859 C860 1.357 1_656 S
C860 C856 1.370 . S
C860 C859 1.357 1_454 S
C860 H879 0.950 . S
Zn861 N855 2.020 . S
Zn861 O864 2.025 . S
Zn861 O869 2.024 . S
Zn861 O871 2.039 1_554 S
Zn861 O873 2.034 1_455 S
O862 C846 1.251 . S
O862 Zn853 2.039 . S
C863 O868 1.246 . S
C863 O869 1.249 . S
O864 C846 1.254 . S
O864 Zn861 2.025 . S
H865 C857 0.952 . S
H866 C848 0.952 . S
H867 C856 0.948 . S
O868 Zn853 2.034 . S
O868 C863 1.246 . S
O869 Zn861 2.024 . S
O869 C863 1.249 . S
H870 C852 0.948 . S
O871 Zn861 2.039 1_556 S
O871 C875 1.251 . S
O872 Zn853 2.027 1_556 S
O872 C875 1.252 . S
O873 C854 1.246 . S
O873 Zn861 2.034 1_655 S
O874 Zn853 2.024 . S
O874 C854 1.249 1_455 S
C875 O871 1.251 . S
C875 O872 1.252 . S
H876 C849 0.949 . S
H877 C851 0.950 . S
H878 C858 0.947 1_655 S
H879 C860 0.950 . S
C880 C881 1.387 . S
C880 H884 0.950 . S
C880 C889 1.390 . S
C881 C880 1.387 . S
C881 C883 1.387 . S
H882 C889 0.950 . S
C883 C881 1.387 . S
C883 C885 1.390 . S
C883 H887 0.950 . S
H884 C880 0.950 . S
C885 C883 1.390 . S
C885 C886 1.387 . S
C885 H888 0.950 . S
C886 C885 1.387 . S
C886 C889 1.387 . S
H887 C883 0.950 . S
H888 C885 0.950 . S
C889 C880 1.390 . S
C889 H882 0.950 . S
C889 C886 1.387 . S
C890 C891 1.387 . S
C890 H894 0.950 . S
C890 C899 1.390 . S
C891 C890 1.387 . S
C891 C893 1.387 . S
H892 C899 0.950 . S
C893 C891 1.387 . S
C893 C895 1.390 . S
C893 H897 0.950 . S
H894 C890 0.950 . S
C895 C893 1.390 . S
C895 C896 1.387 . S
C895 H898 0.950 . S
C896 C895 1.387 . S
C896 C899 1.387 . S
H897 C893 0.950 . S
H898 C895 0.950 . S
C899 C890 1.390 . S
C899 H892 0.950 . S
C899 C896 1.387 . S
C900 C901 1.387 . S
C900 H904 0.950 . S
C900 C909 1.390 . S
C901 C900 1.387 . S
C901 C903 1.387 . S
H902 C909 0.950 . S
C903 C901 1.387 . S
C903 C905 1.390 . S
C903 H907 0.950 . S
H904 C900 0.950 . S
C905 C903 1.390 . S
C905 C906 1.387 . S
C905 H908 0.950 . S
C906 C905 1.387 . S
C906 C909 1.387 . S
H907 C903 0.950 . S
H908 C905 0.950 . S
C909 C900 1.390 . S
C909 H902 0.950 . S
C909 C906 1.387 . S
C910 C911 1.387 . S
C910 H914 0.950 . S
C910 C919 1.390 . S
C911 C910 1.387 . S
C911 C913 1.387 . S
H912 C919 0.950 . S
C913 C911 1.387 . S
C913 C915 1.390 . S
C913 H917 0.950 . S
H914 C910 0.950 . S
C915 C913 1.390 . S
C915 C916 1.387 . S
C915 H918 0.950 . S
C916 C915 1.387 . S
C916 C919 1.387 . S
H917 C913 0.950 . S
H918 C915 0.950 . S
C919 C910 1.390 . S
C919 H912 0.950 . S
C919 C916 1.387 . S
C920 C921 1.387 . S
C920 H924 0.950 . S
C920 C929 1.390 . S
C921 C920 1.387 . S
C921 C923 1.387 . S
H922 C929 0.950 . S
C923 C921 1.387 . S
C923 C925 1.390 . S
C923 H927 0.950 1_455 S
H924 C920 0.950 . S
C925 C923 1.390 . S
C925 C926 1.387 . S
C925 H928 0.950 1_455 S
C926 C925 1.387 . S
C926 C929 1.387 . S
H927 C923 0.950 1_655 S
H928 C925 0.950 1_655 S
C929 C920 1.390 . S
C929 H922 0.950 . S
C929 C926 1.387 . S
C930 C931 1.387 . S
C930 H934 0.950 . S
C930 C939 1.390 . S
C931 C930 1.387 . S
C931 C933 1.387 . S
H932 C939 0.950 . S
C933 C931 1.387 . S
C933 C935 1.390 . S
C933 H937 0.950 . S
H934 C930 0.950 . S
C935 C933 1.390 . S
C935 C936 1.387 . S
C935 H938 0.950 . S
C936 C935 1.387 . S
C936 C939 1.387 . S
H937 C933 0.950 . S
H938 C935 0.950 . S
C939 C930 1.390 . S
C939 H932 0.950 . S
C939 C936 1.387 . S
C940 C941 1.387 . S
C940 H944 0.950 . S
C940 C949 1.390 . S
C941 C940 1.387 . S
C941 C943 1.387 . S
H942 C949 0.950 . S
C943 C941 1.387 . S
C943 C945 1.390 . S
C943 H947 0.950 . S
H944 C940 0.950 . S
C945 C943 1.390 . S
C945 C946 1.387 . S
C945 H948 0.950 . S
C946 C945 1.387 . S
C946 C949 1.387 . S
H947 C943 0.950 . S
H948 C945 0.950 . S
C949 C940 1.390 . S
C949 H942 0.950 . S
C949 C946 1.387 . S
C950 C951 1.387 . S
C950 H954 0.950 . S
C950 C959 1.390 . S
C951 C950 1.387 . S
C951 C953 1.387 . S
H952 C959 0.950 . S
C953 C951 1.387 . S
C953 C955 1.390 . S
C953 H957 0.950 . S
H954 C950 0.950 . S
C955 C953 1.390 . S
C955 C956 1.387 . S
C955 H958 0.950 . S
C956 C955 1.387 . S
C956 C959 1.387 . S
H957 C953 0.950 . S
H958 C955 0.950 . S
C959 C950 1.390 . S
C959 H952 0.950 . S
C959 C956 1.387 . S
C960 C961 1.387 1_565 S
C960 H964 0.950 . S
C960 C969 1.390 . S
C961 C960 1.387 1_545 S
C961 C963 1.387 . S
H962 C969 0.950 . S
C963 C961 1.387 . S
C963 C965 1.390 . S
C963 H967 0.950 . S
H964 C960 0.950 . S
C965 C963 1.390 . S
C965 C966 1.387 1_545 S
C965 H968 0.950 . S
C966 C965 1.387 1_565 S
C966 C969 1.387 . S
H967 C963 0.950 . S
H968 C965 0.950 . S
C969 C960 1.390 . S
C969 H962 0.950 . S
C969 C966 1.387 . S
C970 C971 1.387 . S
C970 H974 0.950 . S
C970 C979 1.390 . S
C971 C970 1.387 . S
C971 C973 1.387 . S
H972 C979 0.950 . S
C973 C971 1.387 . S
C973 C975 1.390 . S
C973 H977 0.950 . S
H974 C970 0.950 . S
C975 C973 1.390 . S
C975 C976 1.387 . S
C975 H978 0.950 . S
C976 C975 1.387 . S
C976 C979 1.387 . S
H977 C973 0.950 . S
H978 C975 0.950 . S
C979 C970 1.390 . S
C979 H972 0.950 . S
C979 C976 1.387 . S
C980 C981 1.387 1_565 S
C980 H984 0.950 . S
C980 C989 1.390 . S
C981 C980 1.387 1_545 S
C981 C983 1.387 . S
H982 C989 0.950 . S
C983 C981 1.387 . S
C983 C985 1.390 . S
C983 H987 0.950 . S
H984 C980 0.950 . S
C985 C983 1.390 . S
C985 C986 1.387 . S
C985 H988 0.950 . S
C986 C985 1.387 . S
C986 C989 1.387 1_545 S
H987 C983 0.950 . S
H988 C985 0.950 . S
C989 C980 1.390 . S
C989 H982 0.950 . S
C989 C986 1.387 1_565 S
C990 C991 1.387 . S
C990 H994 0.950 . S
C990 C999 1.390 . S
C991 C990 1.387 . S
C991 C993 1.387 . S
H992 C999 0.950 . S
C993 C991 1.387 . S
C993 C995 1.390 . S
C993 H997 0.950 . S
H994 C990 0.950 . S
C995 C993 1.390 . S
C995 C996 1.387 . S
C995 H998 0.950 . S
C996 C995 1.387 . S
C996 C999 1.387 . S
H997 C993 0.950 . S
H998 C995 0.950 . S
C999 C990 1.390 . S
C999 H992 0.950 . S
C999 C996 1.387 . S
C1000 C1001 1.387 . S
C1000 H1004 0.950 . S
C1000 C1009 1.390 . S
C1001 C1000 1.387 . S
C1001 C1003 1.387 . S
H1002 C1009 0.950 . S
C1003 C1001 1.387 . S
C1003 C1005 1.390 . S
C1003 H1007 0.950 1_545 S
H1004 C1000 0.950 . S
C1005 C1003 1.390 . S
C1005 C1006 1.387 . S
C1005 H1008 0.950 . S
C1006 C1005 1.387 . S
C1006 C1009 1.387 . S
H1007 C1003 0.950 1_565 S
H1008 C1005 0.950 . S
C1009 C1000 1.390 . S
C1009 H1002 0.950 . S
C1009 C1006 1.387 . S
C1010 C1011 1.387 . S
C1010 H1014 0.950 . S
C1010 C1019 1.390 . S
C1011 C1010 1.387 . S
C1011 C1013 1.387 . S
H1012 C1019 0.950 . S
C1013 C1011 1.387 . S
C1013 C1015 1.390 . S
C1013 H1017 0.950 . S
H1014 C1010 0.950 . S
C1015 C1013 1.390 . S
C1015 C1016 1.387 . S
C1015 H1018 0.950 . S
C1016 C1015 1.387 . S
C1016 C1019 1.387 . S
H1017 C1013 0.950 . S
H1018 C1015 0.950 . S
C1019 C1010 1.390 . S
C1019 H1012 0.950 . S
C1019 C1016 1.387 . S
C1020 C1021 1.387 1_565 S
C1020 H1024 0.950 . S
C1020 C1029 1.390 . S
C1021 C1020 1.387 1_545 S
C1021 C1023 1.387 . S
H1022 C1029 0.950 . S
C1023 C1021 1.387 . S
C1023 C1025 1.390 . S
C1023 H1027 0.950 . S
H1024 C1020 0.950 . S
C1025 C1023 1.390 . S
C1025 C1026 1.387 1_545 S
C1025 H1028 0.950 . S
C1026 C1025 1.387 1_565 S
C1026 C1029 1.387 . S
H1027 C1023 0.950 . S
H1028 C1025 0.950 . S
C1029 C1020 1.390 . S
C1029 H1022 0.950 . S
C1029 C1026 1.387 . S
C1030 C1031 1.387 . S
C1030 H1034 0.950 . S
C1030 C1039 1.390 . S
C1031 C1030 1.387 . S
C1031 C1033 1.387 . S
H1032 C1039 0.950 . S
C1033 C1031 1.387 . S
C1033 C1035 1.390 . S
C1033 H1037 0.950 . S
H1034 C1030 0.950 . S
C1035 C1033 1.390 . S
C1035 C1036 1.387 . S
C1035 H1038 0.950 . S
C1036 C1035 1.387 . S
C1036 C1039 1.387 . S
H1037 C1033 0.950 . S
H1038 C1035 0.950 . S
C1039 C1030 1.390 . S
C1039 H1032 0.950 . S
C1039 C1036 1.387 . S
C1040 C1041 1.387 . S
C1040 H1044 0.950 . S
C1040 C1049 1.390 . S
C1041 C1040 1.387 . S
C1041 C1043 1.387 . S
H1042 C1049 0.950 . S
C1043 C1041 1.387 . S
C1043 C1045 1.390 1_554 S
C1043 H1047 0.950 1_554 S
H1044 C1040 0.950 . S
C1045 C1043 1.390 1_556 S
C1045 C1046 1.388 . S
C1045 H1048 0.950 . S
C1046 C1045 1.388 . S
C1046 C1049 1.386 1_556 S
H1047 C1043 0.950 1_556 S
H1048 C1045 0.950 . S
C1049 C1040 1.390 . S
C1049 H1042 0.950 . S
C1049 C1046 1.386 1_554 S
C1050 C1051 1.387 . S
C1050 H1054 0.950 . S
C1050 C1059 1.390 . S
C1051 C1050 1.387 . S
C1051 C1053 1.387 . S
H1052 C1059 0.950 . S
C1053 C1051 1.387 . S
C1053 C1055 1.390 . S
C1053 H1057 0.950 . S
H1054 C1050 0.950 . S
C1055 C1053 1.390 . S
C1055 C1056 1.387 . S
C1055 H1058 0.950 . S
C1056 C1055 1.387 . S
C1056 C1059 1.387 . S
H1057 C1053 0.950 . S
H1058 C1055 0.950 . S
C1059 C1050 1.390 . S
C1059 H1052 0.950 . S
C1059 C1056 1.387 . S
C1060 C1061 1.387 . S
C1060 H1064 0.950 . S
C1060 C1069 1.390 . S
C1061 C1060 1.387 . S
C1061 C1063 1.387 . S
H1062 C1069 0.950 . S
C1063 C1061 1.387 . S
C1063 C1065 1.390 . S
C1063 H1067 0.950 . S
H1064 C1060 0.950 . S
C1065 C1063 1.390 . S
C1065 C1066 1.387 . S
C1065 H1068 0.950 . S
C1066 C1065 1.387 . S
C1066 C1069 1.387 . S
H1067 C1063 0.950 . S
H1068 C1065 0.950 . S
C1069 C1060 1.390 . S
C1069 H1062 0.950 . S
C1069 C1066 1.387 . S
C1070 C1071 1.387 . S
C1070 H1074 0.950 . S
C1070 C1079 1.390 . S
C1071 C1070 1.387 . S
C1071 C1073 1.387 . S
H1072 C1079 0.950 . S
C1073 C1071 1.387 . S
C1073 C1075 1.390 . S
C1073 H1077 0.950 . S
H1074 C1070 0.950 . S
C1075 C1073 1.390 . S
C1075 C1076 1.387 . S
C1075 H1078 0.950 . S
C1076 C1075 1.387 . S
C1076 C1079 1.387 . S
H1077 C1073 0.950 . S
H1078 C1075 0.950 . S
C1079 C1070 1.390 . S
C1079 H1072 0.950 . S
C1079 C1076 1.387 . S
C1080 C1081 1.387 . S
C1080 H1084 0.950 . S
C1080 C1089 1.390 . S
C1081 C1080 1.387 . S
C1081 C1083 1.387 . S
H1082 C1089 0.950 . S
C1083 C1081 1.387 . S
C1083 C1085 1.390 . S
C1083 H1087 0.950 . S
H1084 C1080 0.950 . S
C1085 C1083 1.390 . S
C1085 C1086 1.387 . S
C1085 H1088 0.950 . S
C1086 C1085 1.387 . S
C1086 C1089 1.387 . S
H1087 C1083 0.950 . S
H1088 C1085 0.950 . S
C1089 C1080 1.390 . S
C1089 H1082 0.950 . S
C1089 C1086 1.387 . S
C1090 C1091 1.387 . S
C1090 H1094 0.950 . S
C1090 C1099 1.390 . S
C1091 C1090 1.387 . S
C1091 C1093 1.387 . S
H1092 C1099 0.950 1_545 S
C1093 C1091 1.387 . S
C1093 C1095 1.390 . S
C1093 H1097 0.950 . S
H1094 C1090 0.950 . S
C1095 C1093 1.390 . S
C1095 C1096 1.387 . S
C1095 H1098 0.950 . S
C1096 C1095 1.387 . S
C1096 C1099 1.387 . S
H1097 C1093 0.950 . S
H1098 C1095 0.950 . S
C1099 C1090 1.390 . S
C1099 H1092 0.950 1_565 S
C1099 C1096 1.387 . S
C1100 C1101 1.387 . S
C1100 H1104 0.950 . S
C1100 C1109 1.390 . S
C1101 C1100 1.387 . S
C1101 C1103 1.387 . S
H1102 C1109 0.950 . S
C1103 C1101 1.387 . S
C1103 C1105 1.390 . S
C1103 H1107 0.950 . S
H1104 C1100 0.950 . S
C1105 C1103 1.390 . S
C1105 C1106 1.387 . S
C1105 H1108 0.950 . S
C1106 C1105 1.387 . S
C1106 C1109 1.387 . S
H1107 C1103 0.950 . S
H1108 C1105 0.950 . S
C1109 C1100 1.390 . S
C1109 H1102 0.950 . S
C1109 C1106 1.387 . S
C1110 C1111 1.387 . S
C1110 H1114 0.950 . S
C1110 C1119 1.390 . S
C1111 C1110 1.387 . S
C1111 C1113 1.387 . S
H1112 C1119 0.950 . S
C1113 C1111 1.387 . S
C1113 C1115 1.390 . S
C1113 H1117 0.950 . S
H1114 C1110 0.950 . S
C1115 C1113 1.390 . S
C1115 C1116 1.387 . S
C1115 H1118 0.950 . S
C1116 C1115 1.387 . S
C1116 C1119 1.387 . S
H1117 C1113 0.950 . S
H1118 C1115 0.950 . S
C1119 C1110 1.390 . S
C1119 H1112 0.950 . S
C1119 C1116 1.387 . S
C1120 C1121 1.387 . S
C1120 H1124 0.950 . S
C1120 C1129 1.390 . S
C1121 C1120 1.387 . S
C1121 C1123 1.387 1_455 S
H1122 C1129 0.950 . S
C1123 C1121 1.387 1_655 S
C1123 C1125 1.390 1_655 S
C1123 H1127 0.950 . S
H1124 C1120 0.950 . S
C1125 C1123 1.390 1_455 S
C1125 C1126 1.387 . S
C1125 H1128 0.950 1_556 S
C1126 C1125 1.387 . S
C1126 C1129 1.387 . S
H1127 C1123 0.950 . S
H1128 C1125 0.950 1_554 S
C1129 C1120 1.390 . S
C1129 H1122 0.950 . S
C1129 C1126 1.387 . S
C1130 C1131 1.387 . S
C1130 H1134 0.950 . S
C1130 C1139 1.390 . S
C1131 C1130 1.387 . S
C1131 C1133 1.387 . S
H1132 C1139 0.950 . S
C1133 C1131 1.387 . S
C1133 C1135 1.390 . S
C1133 H1137 0.950 . S
H1134 C1130 0.950 . S
C1135 C1133 1.390 . S
C1135 C1136 1.387 . S
C1135 H1138 0.950 . S
C1136 C1135 1.387 . S
C1136 C1139 1.387 . S
H1137 C1133 0.950 . S
H1138 C1135 0.950 . S
C1139 C1130 1.390 . S
C1139 H1132 0.950 . S
C1139 C1136 1.387 . S
C1140 C1141 1.387 . S
C1140 H1144 0.950 . S
C1140 C1149 1.390 . S
C1141 C1140 1.387 . S
C1141 C1143 1.387 . S
H1142 C1149 0.950 . S
C1143 C1141 1.387 . S
C1143 C1145 1.390 . S
C1143 H1147 0.950 . S
H1144 C1140 0.950 . S
C1145 C1143 1.390 . S
C1145 C1146 1.387 . S
C1145 H1148 0.950 . S
C1146 C1145 1.387 . S
C1146 C1149 1.387 . S
H1147 C1143 0.950 . S
H1148 C1145 0.950 . S
C1149 C1140 1.390 . S
C1149 H1142 0.950 . S
C1149 C1146 1.387 . S
C1150 C1151 1.387 . S
C1150 H1154 0.950 . S
C1150 C1159 1.390 . S
C1151 C1150 1.387 . S
C1151 C1153 1.387 . S
H1152 C1159 0.950 . S
C1153 C1151 1.387 . S
C1153 C1155 1.390 . S
C1153 H1157 0.950 . S
H1154 C1150 0.950 . S
C1155 C1153 1.390 . S
C1155 C1156 1.387 . S
C1155 H1158 0.950 . S
C1156 C1155 1.387 . S
C1156 C1159 1.387 . S
H1157 C1153 0.950 . S
H1158 C1155 0.950 . S
C1159 C1150 1.390 . S
C1159 H1152 0.950 . S
C1159 C1156 1.387 . S
C1160 C1161 1.387 . S
C1160 H1164 0.950 . S
C1160 C1169 1.390 . S
C1161 C1160 1.387 . S
C1161 C1163 1.387 . S
H1162 C1169 0.950 . S
C1163 C1161 1.387 . S
C1163 C1165 1.390 . S
C1163 H1167 0.950 1_455 S
H1164 C1160 0.950 . S
C1165 C1163 1.390 . S
C1165 C1166 1.387 . S
C1165 H1168 0.950 . S
C1166 C1165 1.387 . S
C1166 C1169 1.387 . S
H1167 C1163 0.950 1_655 S
H1168 C1165 0.950 . S
C1169 C1160 1.390 . S
C1169 H1162 0.950 . S
C1169 C1166 1.387 . S
C1170 C1171 1.387 . S
C1170 H1174 0.950 . S
C1170 C1179 1.390 . S
C1171 C1170 1.387 . S
C1171 C1173 1.387 . S
H1172 C1179 0.950 . S
C1173 C1171 1.387 . S
C1173 C1175 1.390 . S
C1173 H1177 0.950 . S
H1174 C1170 0.950 . S
C1175 C1173 1.390 . S
C1175 C1176 1.387 . S
C1175 H1178 0.950 . S
C1176 C1175 1.387 . S
C1176 C1179 1.387 . S
H1177 C1173 0.950 . S
H1178 C1175 0.950 . S
C1179 C1170 1.390 . S
C1179 H1172 0.950 . S
C1179 C1176 1.387 . S
C1180 C1181 1.387 . S
C1180 H1184 0.950 . S
C1180 C1189 1.390 . S
C1181 C1180 1.387 . S
C1181 C1183 1.387 . S
H1182 C1189 0.950 . S
C1183 C1181 1.387 . S
C1183 C1185 1.390 . S
C1183 H1187 0.950 . S
H1184 C1180 0.950 . S
C1185 C1183 1.390 . S
C1185 C1186 1.387 . S
C1185 H1188 0.950 . S
C1186 C1185 1.387 . S
C1186 C1189 1.387 . S
H1187 C1183 0.950 . S
H1188 C1185 0.950 . S
C1189 C1180 1.390 . S
C1189 H1182 0.950 . S
C1189 C1186 1.387 . S
C1190 C1191 1.387 . S
C1190 H1194 0.950 . S
C1190 C1199 1.390 . S
C1191 C1190 1.387 . S
C1191 C1193 1.387 . S
H1192 C1199 0.950 . S
C1193 C1191 1.387 . S
C1193 C1195 1.390 . S
C1193 H1197 0.950 . S
H1194 C1190 0.950 . S
C1195 C1193 1.390 . S
C1195 C1196 1.387 . S
C1195 H1198 0.950 . S
C1196 C1195 1.387 . S
C1196 C1199 1.387 . S
H1197 C1193 0.950 . S
H1198 C1195 0.950 . S
C1199 C1190 1.390 . S
C1199 H1192 0.950 . S
C1199 C1196 1.387 . S
C1200 C1201 1.387 1_565 S
C1200 H1204 0.950 . S
C1200 C1209 1.390 . S
C1201 C1200 1.387 1_545 S
C1201 C1203 1.387 . S
H1202 C1209 0.950 . S
C1203 C1201 1.387 . S
C1203 C1205 1.390 . S
C1203 H1207 0.950 . S
H1204 C1200 0.950 . S
C1205 C1203 1.390 . S
C1205 C1206 1.392 . S
C1205 H1208 0.957 . S
C1206 C1205 1.392 . S
C1206 C1209 1.395 1_545 S
H1207 C1203 0.950 . S
H1208 C1205 0.957 . S
C1209 C1200 1.390 . S
C1209 H1202 0.950 . S
C1209 C1206 1.395 1_565 S
C1210 C1211 1.387 . S
C1210 H1214 0.950 . S
C1210 C1219 1.390 . S
C1211 C1210 1.387 . S
C1211 C1213 1.387 . S
H1212 C1219 0.950 . S
C1213 C1211 1.387 . S
C1213 C1215 1.390 . S
C1213 H1217 0.950 . S
H1214 C1210 0.950 . S
C1215 C1213 1.390 . S
C1215 C1216 1.387 . S
C1215 H1218 0.950 . S
C1216 C1215 1.387 . S
C1216 C1219 1.387 . S
H1217 C1213 0.950 . S
H1218 C1215 0.950 . S
C1219 C1210 1.390 . S
C1219 H1212 0.950 . S
C1219 C1216 1.387 . S
C1220 C1221 1.387 1_565 S
C1220 H1224 0.950 . S
C1220 C1229 1.390 . S
C1221 C1220 1.387 1_545 S
C1221 C1223 1.387 . S
H1222 C1229 0.950 . S
C1223 C1221 1.387 . S
C1223 C1225 1.390 . S
C1223 H1227 0.950 . S
H1224 C1220 0.950 . S
C1225 C1223 1.390 . S
C1225 C1226 1.387 . S
C1225 H1228 0.950 . S
C1226 C1225 1.387 . S
C1226 C1229 1.387 1_545 S
H1227 C1223 0.950 . S
H1228 C1225 0.950 . S
C1229 C1220 1.390 . S
C1229 H1222 0.950 . S
C1229 C1226 1.387 1_565 S
C1230 C1231 1.387 . S
C1230 H1234 0.950 . S
C1230 C1239 1.390 . S
C1231 C1230 1.387 . S
C1231 C1233 1.387 . S
H1232 C1239 0.950 . S
C1233 C1231 1.387 . S
C1233 C1235 1.390 . S
C1233 H1237 0.950 . S
H1234 C1230 0.950 . S
C1235 C1233 1.390 . S
C1235 C1236 1.387 . S
C1235 H1238 0.950 . S
C1236 C1235 1.387 . S
C1236 C1239 1.387 . S
H1237 C1233 0.950 . S
H1238 C1235 0.950 . S
C1239 C1230 1.390 . S
C1239 H1232 0.950 . S
C1239 C1236 1.387 . S
C1240 C1241 1.387 1_545 S
C1240 H1244 0.950 . S
C1240 C1249 1.385 1_545 S
C1241 C1240 1.387 1_565 S
C1241 C1243 1.387 . S
H1242 C1249 0.944 1_545 S
C1243 C1241 1.387 . S
C1243 C1245 1.390 . S
C1243 H1247 0.950 . S
H1244 C1240 0.950 . S
C1245 C1243 1.390 . S
C1245 C1246 1.387 . S
C1245 H1248 0.950 1_655 S
C1246 C1245 1.387 . S
C1246 C1249 1.398 . S
H1247 C1243 0.950 . S
H1248 C1245 0.950 1_455 S
C1249 C1240 1.385 1_565 S
C1249 H1242 0.944 1_565 S
C1249 C1246 1.398 . S
C1250 C1251 1.387 . S
C1250 H1254 0.950 . S
C1250 C1259 1.390 . S
C1251 C1250 1.387 . S
C1251 C1253 1.387 . S
H1252 C1259 0.950 . S
C1253 C1251 1.387 . S
C1253 C1255 1.390 . S
C1253 H1257 0.950 . S
H1254 C1250 0.950 . S
C1255 C1253 1.390 . S
C1255 C1256 1.387 . S
C1255 H1258 0.950 . S
C1256 C1255 1.387 . S
C1256 C1259 1.387 . S
H1257 C1253 0.950 . S
H1258 C1255 0.950 . S
C1259 C1250 1.390 . S
C1259 H1252 0.950 . S
C1259 C1256 1.387 . S
C1260 C1261 1.387 . S
C1260 H1264 0.950 . S
C1260 C1269 1.390 . S
C1261 C1260 1.387 . S
C1261 C1263 1.387 . S
H1262 C1269 0.950 . S
C1263 C1261 1.387 . S
C1263 C1265 1.390 . S
C1263 H1267 0.950 . S
H1264 C1260 0.950 . S
C1265 C1263 1.390 . S
C1265 C1266 1.387 . S
C1265 H1268 0.950 . S
C1266 C1265 1.387 . S
C1266 C1269 1.387 . S
H1267 C1263 0.950 . S
H1268 C1265 0.950 . S
C1269 C1260 1.390 . S
C1269 H1262 0.950 . S
C1269 C1266 1.387 . S
C1270 C1271 1.387 . S
C1270 H1274 0.950 . S
C1270 C1279 1.390 . S
C1271 C1270 1.387 . S
C1271 C1273 1.387 . S
H1272 C1279 0.950 . S
C1273 C1271 1.387 . S
C1273 C1275 1.390 . S
C1273 H1277 0.950 . S
H1274 C1270 0.950 . S
C1275 C1273 1.390 . S
C1275 C1276 1.387 . S
C1275 H1278 0.950 . S
C1276 C1275 1.387 . S
C1276 C1279 1.387 . S
H1277 C1273 0.950 . S
H1278 C1275 0.950 . S
C1279 C1270 1.390 . S
C1279 H1272 0.950 . S
C1279 C1276 1.387 . S
C1280 C1281 1.387 . S
C1280 H1284 0.950 . S
C1280 C1289 1.390 . S
C1281 C1280 1.387 . S
C1281 C1283 1.387 . S
H1282 C1289 0.950 . S
C1283 C1281 1.387 . S
C1283 C1285 1.393 . S
C1283 H1287 0.950 1_565 S
H1284 C1280 0.950 . S
C1285 C1283 1.393 . S
C1285 C1286 1.394 . S
C1285 H1288 0.940 1_565 S
C1286 C1285 1.394 . S
C1286 C1289 1.387 . S
H1287 C1283 0.950 1_545 S
H1288 C1285 0.940 1_545 S
C1289 C1280 1.390 . S
C1289 H1282 0.950 . S
C1289 C1286 1.387 . S
C1290 C1291 1.387 . S
C1290 H1294 0.950 . S
C1290 C1299 1.390 . S
C1291 C1290 1.387 . S
C1291 C1293 1.387 1_554 S
H1292 C1299 0.950 . S
C1293 C1291 1.387 1_556 S
C1293 C1295 1.390 . S
C1293 H1297 0.950 . S
H1294 C1290 0.950 . S
C1295 C1293 1.390 . S
C1295 C1296 1.387 1_556 S
C1295 H1298 0.950 . S
C1296 C1295 1.387 1_554 S
C1296 C1299 1.387 . S
H1297 C1293 0.950 . S
H1298 C1295 0.950 . S
C1299 C1290 1.390 . S
C1299 H1292 0.950 . S
C1299 C1296 1.387 . S
C1300 C1301 1.387 . S
C1300 H1304 0.950 . S
C1300 C1309 1.390 . S
C1301 C1300 1.387 . S
C1301 C1303 1.387 . S
H1302 C1309 0.950 . S
C1303 C1301 1.387 . S
C1303 C1305 1.390 . S
C1303 H1307 0.950 . S
H1304 C1300 0.950 . S
C1305 C1303 1.390 . S
C1305 C1306 1.387 . S
C1305 H1308 0.950 . S
C1306 C1305 1.387 . S
C1306 C1309 1.387 . S
H1307 C1303 0.950 . S
H1308 C1305 0.950 . S
C1309 C1300 1.390 . S
C1309 H1302 0.950 . S
C1309 C1306 1.387 . S
C1310 C1311 1.387 . S
C1310 H1314 0.950 . S
C1310 C1319 1.390 . S
C1311 C1310 1.387 . S
C1311 C1313 1.387 . S
H1312 C1319 0.950 . S
C1313 C1311 1.387 . S
C1313 C1315 1.390 . S
C1313 H1317 0.950 . S
H1314 C1310 0.950 . S
C1315 C1313 1.390 . S
C1315 C1316 1.387 . S
C1315 H1318 0.950 . S
C1316 C1315 1.387 . S
C1316 C1319 1.387 . S
H1317 C1313 0.950 . S
H1318 C1315 0.950 . S
C1319 C1310 1.390 . S
C1319 H1312 0.950 . S
C1319 C1316 1.387 . S
C1320 C1321 1.387 . S
C1320 H1324 0.950 . S
C1320 C1329 1.390 . S
C1321 C1320 1.387 . S
C1321 C1323 1.387 . S
H1322 C1329 0.950 . S
C1323 C1321 1.387 . S
C1323 C1325 1.390 . S
C1323 H1327 0.950 . S
H1324 C1320 0.950 . S
C1325 C1323 1.390 . S
C1325 C1326 1.387 . S
C1325 H1328 0.950 . S
C1326 C1325 1.387 . S
C1326 C1329 1.387 . S
H1327 C1323 0.950 . S
H1328 C1325 0.950 . S
C1329 C1320 1.390 . S
C1329 H1322 0.950 . S
C1329 C1326 1.387 . S
C1330 C1331 1.387 . S
C1330 H1334 0.950 . S
C1330 C1339 1.390 . S
C1331 C1330 1.387 . S
C1331 C1333 1.387 . S
H1332 C1339 0.950 . S
C1333 C1331 1.387 . S
C1333 C1335 1.390 . S
C1333 H1337 0.950 . S
H1334 C1330 0.950 . S
C1335 C1333 1.390 . S
C1335 C1336 1.387 . S
C1335 H1338 0.950 . S
C1336 C1335 1.387 . S
C1336 C1339 1.387 . S
H1337 C1333 0.950 . S
H1338 C1335 0.950 . S
C1339 C1330 1.390 . S
C1339 H1332 0.950 . S
C1339 C1336 1.387 . S
C1340 C1341 1.387 . S
C1340 H1344 0.950 . S
C1340 C1349 1.390 . S
C1341 C1340 1.387 . S
C1341 C1343 1.387 . S
H1342 C1349 0.950 . S
C1343 C1341 1.387 . S
C1343 C1345 1.390 . S
C1343 H1347 0.950 . S
H1344 C1340 0.950 . S
C1345 C1343 1.390 . S
C1345 C1346 1.387 . S
C1345 H1348 0.950 . S
C1346 C1345 1.387 . S
C1346 C1349 1.387 . S
H1347 C1343 0.950 . S
H1348 C1345 0.950 . S
C1349 C1340 1.390 . S
C1349 H1342 0.950 . S
C1349 C1346 1.387 . S
C1350 C1351 1.387 . S
C1350 H1354 0.950 . S
C1350 C1359 1.390 . S
C1351 C1350 1.387 . S
C1351 C1353 1.387 . S
H1352 C1359 0.950 . S
C1353 C1351 1.387 . S
C1353 C1355 1.390 . S
C1353 H1357 0.950 . S
H1354 C1350 0.950 . S
C1355 C1353 1.390 . S
C1355 C1356 1.387 . S
C1355 H1358 0.950 . S
C1356 C1355 1.387 . S
C1356 C1359 1.387 . S
H1357 C1353 0.950 . S
H1358 C1355 0.950 . S
C1359 C1350 1.390 . S
C1359 H1352 0.950 . S
C1359 C1356 1.387 . S
C1360 C1361 1.387 . S
C1360 H1364 0.950 . S
C1360 C1369 1.390 . S
C1361 C1360 1.387 . S
C1361 C1363 1.387 . S
H1362 C1369 0.950 . S
C1363 C1361 1.387 . S
C1363 C1365 1.390 . S
C1363 H1367 0.950 . S
H1364 C1360 0.950 . S
C1365 C1363 1.390 . S
C1365 C1366 1.387 . S
C1365 H1368 0.950 . S
C1366 C1365 1.387 . S
C1366 C1369 1.387 . S
H1367 C1363 0.950 . S
H1368 C1365 0.950 . S
C1369 C1360 1.390 . S
C1369 H1362 0.950 . S
C1369 C1366 1.387 . S
C1370 C1371 1.387 . S
C1370 H1374 0.950 . S
C1370 C1379 1.390 . S
C1371 C1370 1.387 . S
C1371 C1373 1.387 . S
H1372 C1379 0.950 . S
C1373 C1371 1.387 . S
C1373 C1375 1.390 . S
C1373 H1377 0.950 . S
H1374 C1370 0.950 . S
C1375 C1373 1.390 . S
C1375 C1376 1.387 . S
C1375 H1378 0.950 . S
C1376 C1375 1.387 . S
C1376 C1379 1.387 . S
H1377 C1373 0.950 . S
H1378 C1375 0.950 . S
C1379 C1370 1.390 . S
C1379 H1372 0.950 . S
C1379 C1376 1.387 . S
C1380 C1381 1.387 . S
C1380 H1384 0.950 . S
C1380 C1389 1.390 . S
C1381 C1380 1.387 . S
C1381 C1383 1.387 . S
H1382 C1389 0.950 . S
C1383 C1381 1.387 . S
C1383 C1385 1.390 . S
C1383 H1387 0.950 . S
H1384 C1380 0.950 . S
C1385 C1383 1.390 . S
C1385 C1386 1.387 . S
C1385 H1388 0.950 . S
C1386 C1385 1.387 . S
C1386 C1389 1.387 . S
H1387 C1383 0.950 . S
H1388 C1385 0.950 . S
C1389 C1380 1.390 . S
C1389 H1382 0.950 . S
C1389 C1386 1.387 . S
C1390 C1391 1.387 . S
C1390 H1394 0.950 . S
C1390 C1399 1.390 . S
C1391 C1390 1.387 . S
C1391 C1393 1.387 . S
H1392 C1399 0.950 . S
C1393 C1391 1.387 . S
C1393 C1395 1.390 . S
C1393 H1397 0.950 . S
H1394 C1390 0.950 . S
C1395 C1393 1.390 . S
C1395 C1396 1.387 . S
C1395 H1398 0.950 . S
C1396 C1395 1.387 . S
C1396 C1399 1.387 . S
H1397 C1393 0.950 . S
H1398 C1395 0.950 . S
C1399 C1390 1.390 . S
C1399 H1392 0.950 . S
C1399 C1396 1.387 . S
C1400 C1401 1.387 . S
C1400 H1404 0.950 . S
C1400 C1409 1.390 . S
C1401 C1400 1.387 . S
C1401 C1403 1.387 . S
H1402 C1409 0.950 1_554 S
C1403 C1401 1.387 . S
C1403 C1405 1.390 . S
C1403 H1407 0.950 . S
H1404 C1400 0.950 . S
C1405 C1403 1.390 . S
C1405 C1406 1.387 . S
C1405 H1408 0.950 . S
C1406 C1405 1.387 . S
C1406 C1409 1.387 . S
H1407 C1403 0.950 . S
H1408 C1405 0.950 . S
C1409 C1400 1.390 . S
C1409 H1402 0.950 1_556 S
C1409 C1406 1.387 . S
C1410 C1411 1.387 1_655 S
C1410 H1414 0.935 1_655 S
C1410 C1419 1.390 . S
C1411 C1410 1.387 1_455 S
C1411 C1413 1.387 1_455 S
H1412 C1419 0.950 . S
C1413 C1411 1.387 1_655 S
C1413 C1415 1.390 . S
C1413 H1417 0.950 . S
H1414 C1410 0.935 1_455 S
C1415 C1413 1.390 . S
C1415 C1416 1.387 . S
C1415 H1418 0.950 . S
C1416 C1415 1.387 . S
C1416 C1419 1.387 . S
H1417 C1413 0.950 . S
H1418 C1415 0.950 . S
C1419 C1410 1.390 . S
C1419 H1412 0.950 . S
C1419 C1416 1.387 . S
C1420 C1421 1.387 . S
C1420 H1424 0.950 . S
C1420 C1429 1.390 . S
C1421 C1420 1.387 . S
C1421 C1423 1.387 . S
H1422 C1429 0.950 . S
C1423 C1421 1.387 . S
C1423 C1425 1.390 . S
C1423 H1427 0.950 . S
H1424 C1420 0.950 . S
C1425 C1423 1.390 . S
C1425 C1426 1.387 . S
C1425 H1428 0.950 . S
C1426 C1425 1.387 . S
C1426 C1429 1.387 . S
H1427 C1423 0.950 . S
H1428 C1425 0.950 . S
C1429 C1420 1.390 . S
C1429 H1422 0.950 . S
C1429 C1426 1.387 . S
C1430 C1431 1.387 . S
C1430 H1434 0.950 . S
C1430 C1439 1.390 . S
C1431 C1430 1.387 . S
C1431 C1433 1.387 . S
H1432 C1439 0.950 . S
C1433 C1431 1.387 . S
C1433 C1435 1.390 . S
C1433 H1437 0.950 . S
H1434 C1430 0.950 . S
C1435 C1433 1.390 . S
C1435 C1436 1.387 . S
C1435 H1438 0.950 . S
C1436 C1435 1.387 . S
C1436 C1439 1.387 . S
H1437 C1433 0.950 . S
H1438 C1435 0.950 . S
C1439 C1430 1.390 . S
C1439 H1432 0.950 . S
C1439 C1436 1.387 . S
C1440 C1441 1.387 . S
C1440 H1444 0.950 . S
C1440 C1449 1.390 . S
C1441 C1440 1.387 . S
C1441 C1443 1.387 . S
H1442 C1449 0.950 . S
C1443 C1441 1.387 . S
C1443 C1445 1.390 . S
C1443 H1447 0.950 . S
H1444 C1440 0.950 . S
C1445 C1443 1.390 . S
C1445 C1446 1.387 . S
C1445 H1448 0.950 . S
C1446 C1445 1.387 . S
C1446 C1449 1.387 . S
H1447 C1443 0.950 . S
H1448 C1445 0.950 . S
C1449 C1440 1.390 . S
C1449 H1442 0.950 . S
C1449 C1446 1.387 . S
C1450 C1451 1.387 . S
C1450 H1454 0.950 . S
C1450 C1459 1.390 . S
C1451 C1450 1.387 . S
C1451 C1453 1.387 . S
H1452 C1459 0.950 . S
C1453 C1451 1.387 . S
C1453 C1455 1.390 . S
C1453 H1457 0.950 1_556 S
H1454 C1450 0.950 . S
C1455 C1453 1.390 . S
C1455 C1456 1.387 . S
C1455 H1458 0.950 . S
C1456 C1455 1.387 . S
C1456 C1459 1.387 . S
H1457 C1453 0.950 1_554 S
H1458 C1455 0.950 . S
C1459 C1450 1.390 . S
C1459 H1452 0.950 . S
C1459 C1456 1.387 . S
C1460 C1461 1.387 . S
C1460 H1464 0.950 . S
C1460 C1469 1.390 . S
C1461 C1460 1.387 . S
C1461 C1463 1.387 . S
H1462 C1469 0.950 . S
C1463 C1461 1.387 . S
C1463 C1465 1.390 . S
C1463 H1467 0.950 . S
H1464 C1460 0.950 . S
C1465 C1463 1.390 . S
C1465 C1466 1.387 . S
C1465 H1468 0.950 . S
C1466 C1465 1.387 . S
C1466 C1469 1.387 . S
H1467 C1463 0.950 . S
H1468 C1465 0.950 . S
C1469 C1460 1.390 . S
C1469 H1462 0.950 . S
C1469 C1466 1.387 . S
C1470 C1471 1.387 . S
C1470 H1474 0.950 . S
C1470 C1479 1.390 . S
C1471 C1470 1.387 . S
C1471 C1473 1.387 . S
H1472 C1479 0.950 . S
C1473 C1471 1.387 . S
C1473 C1475 1.390 . S
C1473 H1477 0.950 . S
H1474 C1470 0.950 . S
C1475 C1473 1.390 . S
C1475 C1476 1.387 . S
C1475 H1478 0.950 . S
C1476 C1475 1.387 . S
C1476 C1479 1.387 . S
H1477 C1473 0.950 . S
H1478 C1475 0.950 . S
C1479 C1470 1.390 . S
C1479 H1472 0.950 . S
C1479 C1476 1.387 . S
C1480 C1481 1.387 . S
C1480 H1484 0.950 . S
C1480 C1489 1.390 . S
C1481 C1480 1.387 . S
C1481 C1483 1.387 . S
H1482 C1489 0.950 . S
C1483 C1481 1.387 . S
C1483 C1485 1.390 . S
C1483 H1487 0.950 . S
H1484 C1480 0.950 . S
C1485 C1483 1.390 . S
C1485 C1486 1.387 . S
C1485 H1488 0.950 . S
C1486 C1485 1.387 . S
C1486 C1489 1.387 . S
H1487 C1483 0.950 . S
H1488 C1485 0.950 . S
C1489 C1480 1.390 . S
C1489 H1482 0.950 . S
C1489 C1486 1.387 . S
C1490 C1491 1.387 . S
C1490 H1494 0.950 . S
C1490 C1499 1.390 . S
C1491 C1490 1.387 . S
C1491 C1493 1.387 . S
H1492 C1499 0.950 . S
C1493 C1491 1.387 . S
C1493 C1495 1.390 . S
C1493 H1497 0.950 . S
H1494 C1490 0.950 . S
C1495 C1493 1.390 . S
C1495 C1496 1.387 . S
C1495 H1498 0.950 . S
C1496 C1495 1.387 . S
C1496 C1499 1.387 . S
H1497 C1493 0.950 . S
H1498 C1495 0.950 . S
C1499 C1490 1.390 . S
C1499 H1492 0.950 . S
C1499 C1496 1.387 . S
C1500 C1501 1.387 . S
C1500 H1504 0.950 . S
C1500 C1509 1.390 . S
C1501 C1500 1.387 . S
C1501 C1503 1.387 . S
H1502 C1509 0.950 . S
C1503 C1501 1.387 . S
C1503 C1505 1.390 . S
C1503 H1507 0.950 . S
H1504 C1500 0.950 . S
C1505 C1503 1.390 . S
C1505 C1506 1.387 . S
C1505 H1508 0.950 . S
C1506 C1505 1.387 . S
C1506 C1509 1.387 . S
H1507 C1503 0.950 . S
H1508 C1505 0.950 . S
C1509 C1500 1.390 . S
C1509 H1502 0.950 . S
C1509 C1506 1.387 . S
C1510 C1511 1.387 . S
C1510 H1514 0.950 . S
C1510 C1519 1.390 . S
C1511 C1510 1.387 . S
C1511 C1513 1.387 . S
H1512 C1519 0.950 . S
C1513 C1511 1.387 . S
C1513 C1515 1.390 . S
C1513 H1517 0.950 . S
H1514 C1510 0.950 . S
C1515 C1513 1.390 . S
C1515 C1516 1.387 . S
C1515 H1518 0.950 . S
C1516 C1515 1.387 . S
C1516 C1519 1.387 . S
H1517 C1513 0.950 . S
H1518 C1515 0.950 . S
C1519 C1510 1.390 . S
C1519 H1512 0.950 . S
C1519 C1516 1.387 . S
C1520 C1521 1.387 . S
C1520 H1524 0.950 . S
C1520 C1529 1.390 . S
C1521 C1520 1.387 . S
C1521 C1523 1.387 . S
H1522 C1529 0.950 . S
C1523 C1521 1.387 . S
C1523 C1525 1.390 . S
C1523 H1527 0.950 . S
H1524 C1520 0.950 . S
C1525 C1523 1.390 . S
C1525 C1526 1.387 . S
C1525 H1528 0.950 . S
C1526 C1525 1.387 . S
C1526 C1529 1.387 . S
H1527 C1523 0.950 . S
H1528 C1525 0.950 . S
C1529 C1520 1.390 . S
C1529 H1522 0.950 . S
C1529 C1526 1.387 . S
C1530 C1531 1.387 . S
C1530 H1534 0.950 . S
C1530 C1539 1.390 . S
C1531 C1530 1.387 . S
C1531 C1533 1.387 . S
H1532 C1539 0.950 . S
C1533 C1531 1.387 . S
C1533 C1535 1.390 . S
C1533 H1537 0.950 . S
H1534 C1530 0.950 . S
C1535 C1533 1.390 . S
C1535 C1536 1.387 . S
C1535 H1538 0.950 . S
C1536 C1535 1.387 . S
C1536 C1539 1.387 . S
H1537 C1533 0.950 . S
H1538 C1535 0.950 . S
C1539 C1530 1.390 . S
C1539 H1532 0.950 . S
C1539 C1536 1.387 . S
C1540 C1541 1.387 . S
C1540 H1544 0.950 . S
C1540 C1549 1.390 . S
C1541 C1540 1.387 . S
C1541 C1543 1.387 . S
H1542 C1549 0.950 . S
C1543 C1541 1.387 . S
C1543 C1545 1.390 . S
C1543 H1547 0.950 . S
H1544 C1540 0.950 . S
C1545 C1543 1.390 . S
C1545 C1546 1.387 . S
C1545 H1548 0.950 . S
C1546 C1545 1.387 . S
C1546 C1549 1.387 . S
H1547 C1543 0.950 . S
H1548 C1545 0.950 . S
C1549 C1540 1.390 . S
C1549 H1542 0.950 . S
C1549 C1546 1.387 . S
C1550 C1551 1.387 . S
C1550 H1554 0.950 . S
C1550 C1559 1.390 . S
C1551 C1550 1.387 . S
C1551 C1553 1.387 . S
H1552 C1559 0.950 . S
C1553 C1551 1.387 . S
C1553 C1555 1.390 . S
C1553 H1557 0.950 1_554 S
H1554 C1550 0.950 . S
C1555 C1553 1.390 . S
C1555 C1556 1.387 . S
C1555 H1558 0.950 . S
C1556 C1555 1.387 . S
C1556 C1559 1.387 . S
H1557 C1553 0.950 1_556 S
H1558 C1555 0.950 . S
C1559 C1550 1.390 . S
C1559 H1552 0.950 . S
C1559 C1556 1.387 . S
C1560 C1561 1.387 . S
C1560 H1564 0.950 . S
C1560 C1569 1.390 . S
C1561 C1560 1.387 . S
C1561 C1563 1.387 . S
H1562 C1569 0.950 . S
C1563 C1561 1.387 . S
C1563 C1565 1.390 . S
C1563 H1567 0.950 . S
H1564 C1560 0.950 . S
C1565 C1563 1.390 . S
C1565 C1566 1.387 . S
C1565 H1568 0.950 . S
C1566 C1565 1.387 . S
C1566 C1569 1.387 . S
H1567 C1563 0.950 . S
H1568 C1565 0.950 . S
C1569 C1560 1.390 . S
C1569 H1562 0.950 . S
C1569 C1566 1.387 . S
C1570 C1571 1.387 . S
C1570 H1574 0.950 . S
C1570 C1579 1.390 . S
C1571 C1570 1.387 . S
C1571 C1573 1.387 . S
H1572 C1579 0.950 1_556 S
C1573 C1571 1.387 . S
C1573 C1575 1.390 . S
C1573 H1577 0.950 . S
H1574 C1570 0.950 . S
C1575 C1573 1.390 . S
C1575 C1576 1.387 . S
C1575 H1578 0.950 . S
C1576 C1575 1.387 . S
C1576 C1579 1.387 . S
H1577 C1573 0.950 . S
H1578 C1575 0.950 . S
C1579 C1570 1.390 . S
C1579 H1572 0.950 1_554 S
C1579 C1576 1.387 . S
C1580 C1581 1.387 . S
C1580 H1584 0.950 . S
C1580 C1589 1.390 . S
C1581 C1580 1.387 . S
C1581 C1583 1.387 . S
H1582 C1589 0.950 . S
C1583 C1581 1.387 . S
C1583 C1585 1.390 . S
C1583 H1587 0.950 . S
H1584 C1580 0.950 . S
C1585 C1583 1.390 . S
C1585 C1586 1.387 . S
C1585 H1588 0.950 . S
C1586 C1585 1.387 . S
C1586 C1589 1.387 . S
H1587 C1583 0.950 . S
H1588 C1585 0.950 . S
C1589 C1580 1.390 . S
C1589 H1582 0.950 . S
C1589 C1586 1.387 . S
C1590 C1591 1.387 . S
C1590 H1594 0.950 . S
C1590 C1599 1.390 . S
C1591 C1590 1.387 . S
C1591 C1593 1.387 . S
H1592 C1599 0.950 . S
C1593 C1591 1.387 . S
C1593 C1595 1.390 . S
C1593 H1597 0.950 . S
H1594 C1590 0.950 . S
C1595 C1593 1.390 . S
C1595 C1596 1.387 . S
C1595 H1598 0.950 . S
C1596 C1595 1.387 . S
C1596 C1599 1.387 . S
H1597 C1593 0.950 . S
H1598 C1595 0.950 . S
C1599 C1590 1.390 . S
C1599 H1592 0.950 . S
C1599 C1596 1.387 . S
C1600 C1601 1.387 . S
C1600 H1604 0.950 . S
C1600 C1609 1.390 . S
C1601 C1600 1.387 . S
C1601 C1603 1.387 . S
H1602 C1609 0.950 . S
C1603 C1601 1.387 . S
C1603 C1605 1.390 . S
C1603 H1607 0.950 . S
H1604 C1600 0.950 . S
C1605 C1603 1.390 . S
C1605 C1606 1.387 . S
C1605 H1608 0.950 . S
C1606 C1605 1.387 . S
C1606 C1609 1.387 . S
H1607 C1603 0.950 . S
H1608 C1605 0.950 . S
C1609 C1600 1.390 . S
C1609 H1602 0.950 . S
C1609 C1606 1.387 . S
C1610 C1611 1.387 . S
C1610 H1614 0.950 . S
C1610 C1619 1.390 . S
C1611 C1610 1.387 . S
C1611 C1613 1.387 . S
H1612 C1619 0.950 . S
C1613 C1611 1.387 . S
C1613 C1615 1.390 . S
C1613 H1617 0.950 . S
H1614 C1610 0.950 . S
C1615 C1613 1.390 . S
C1615 C1616 1.387 . S
C1615 H1618 0.950 . S
C1616 C1615 1.387 . S
C1616 C1619 1.387 . S
H1617 C1613 0.950 . S
H1618 C1615 0.950 . S
C1619 C1610 1.390 . S
C1619 H1612 0.950 . S
C1619 C1616 1.387 . S
C1620 C1621 1.380 1_655 S
C1620 H1624 0.950 . S
C1620 C1629 1.390 . S
C1621 C1620 1.380 1_455 S
C1621 C1623 1.394 . S
H1622 C1629 0.950 . S
C1623 C1621 1.394 . S
C1623 C1625 1.390 . S
C1623 H1627 0.950 . S
H1624 C1620 0.950 . S
C1625 C1623 1.390 . S
C1625 C1626 1.387 1_455 S
C1625 H1628 0.950 . S
C1626 C1625 1.387 1_655 S
C1626 C1629 1.387 . S
H1627 C1623 0.950 . S
H1628 C1625 0.950 . S
C1629 C1620 1.390 . S
C1629 H1622 0.950 . S
C1629 C1626 1.387 . S
C1630 C1631 1.387 . S
C1630 H1634 0.950 . S
C1630 C1639 1.390 . S
C1631 C1630 1.387 . S
C1631 C1633 1.387 . S
H1632 C1639 0.950 . S
C1633 C1631 1.387 . S
C1633 C1635 1.390 . S
C1633 H1637 0.950 . S
H1634 C1630 0.950 . S
C1635 C1633 1.390 . S
C1635 C1636 1.387 . S
C1635 H1638 0.950 . S
C1636 C1635 1.387 . S
C1636 C1639 1.387 . S
H1637 C1633 0.950 . S
H1638 C1635 0.950 . S
C1639 C1630 1.390 . S
C1639 H1632 0.950 . S
C1639 C1636 1.387 . S
C1640 C1641 1.387 . S
C1640 H1644 0.950 . S
C1640 C1649 1.390 . S
C1641 C1640 1.387 . S
C1641 C1643 1.387 . S
H1642 C1649 0.950 . S
C1643 C1641 1.387 . S
C1643 C1645 1.390 . S
C1643 H1647 0.950 . S
H1644 C1640 0.950 . S
C1645 C1643 1.390 . S
C1645 C1646 1.387 . S
C1645 H1648 0.950 . S
C1646 C1645 1.387 . S
C1646 C1649 1.387 . S
H1647 C1643 0.950 . S
H1648 C1645 0.950 . S
C1649 C1640 1.390 . S
C1649 H1642 0.950 . S
C1649 C1646 1.387 . S
C1650 C1651 1.387 . S
C1650 H1654 0.950 . S
C1650 C1659 1.390 . S
C1651 C1650 1.387 . S
C1651 C1653 1.387 . S
H1652 C1659 0.950 . S
C1653 C1651 1.387 . S
C1653 C1655 1.390 . S
C1653 H1657 0.950 . S
H1654 C1650 0.950 . S
C1655 C1653 1.390 . S
C1655 C1656 1.387 . S
C1655 H1658 0.950 . S
C1656 C1655 1.387 . S
C1656 C1659 1.387 . S
H1657 C1653 0.950 . S
H1658 C1655 0.950 . S
C1659 C1650 1.390 . S
C1659 H1652 0.950 . S
C1659 C1656 1.387 . S
C1660 C1661 1.387 . S
C1660 H1664 0.950 1_455 S
C1660 C1669 1.390 . S
C1661 C1660 1.387 . S
C1661 C1663 1.387 . S
H1662 C1669 0.950 1_655 S
C1663 C1661 1.387 . S
C1663 C1665 1.390 . S
C1663 H1667 0.950 . S
H1664 C1660 0.950 1_655 S
C1665 C1663 1.390 . S
C1665 C1666 1.387 . S
C1665 H1668 0.950 . S
C1666 C1665 1.387 . S
C1666 C1669 1.387 . S
H1667 C1663 0.950 . S
H1668 C1665 0.950 . S
C1669 C1660 1.390 . S
C1669 H1662 0.950 1_455 S
C1669 C1666 1.387 . S
C1670 C1671 1.387 . S
C1670 H1674 0.950 . S
C1670 C1679 1.390 . S
C1671 C1670 1.387 . S
C1671 C1673 1.387 . S
H1672 C1679 0.950 . S
C1673 C1671 1.387 . S
C1673 C1675 1.390 . S
C1673 H1677 0.950 . S
H1674 C1670 0.950 . S
C1675 C1673 1.390 . S
C1675 C1676 1.387 . S
C1675 H1678 0.950 . S
C1676 C1675 1.387 . S
C1676 C1679 1.387 . S
H1677 C1673 0.950 . S
H1678 C1675 0.950 . S
C1679 C1670 1.390 . S
C1679 H1672 0.950 . S
C1679 C1676 1.387 . S
C1680 C1681 1.387 . S
C1680 H1684 0.950 . S
C1680 C1689 1.390 . S
C1681 C1680 1.387 . S
C1681 C1683 1.387 . S
H1682 C1689 0.950 . S
C1683 C1681 1.387 . S
C1683 C1685 1.390 . S
C1683 H1687 0.950 . S
H1684 C1680 0.950 . S
C1685 C1683 1.390 . S
C1685 C1686 1.387 . S
C1685 H1688 0.950 . S
C1686 C1685 1.387 . S
C1686 C1689 1.387 . S
H1687 C1683 0.950 . S
H1688 C1685 0.950 . S
C1689 C1680 1.390 . S
C1689 H1682 0.950 . S
C1689 C1686 1.387 . S
C1690 C1691 1.387 . S
C1690 H1694 0.950 . S
C1690 C1699 1.390 . S
C1691 C1690 1.387 . S
C1691 C1693 1.387 . S
H1692 C1699 0.950 . S
C1693 C1691 1.387 . S
C1693 C1695 1.390 . S
C1693 H1697 0.950 . S
H1694 C1690 0.950 . S
C1695 C1693 1.390 . S
C1695 C1696 1.387 . S
C1695 H1698 0.950 . S
C1696 C1695 1.387 . S
C1696 C1699 1.387 . S
H1697 C1693 0.950 . S
H1698 C1695 0.950 . S
C1699 C1690 1.390 . S
C1699 H1692 0.950 . S
C1699 C1696 1.387 . S
C1700 C1701 1.387 . S
C1700 H1704 0.950 . S
C1700 C1709 1.390 . S
C1701 C1700 1.387 . S
C1701 C1703 1.387 . S
H1702 C1709 0.950 . S
C1703 C1701 1.387 . S
C1703 C1705 1.390 . S
C1703 H1707 0.950 . S
H1704 C1700 0.950 . S
C1705 C1703 1.390 . S
C1705 C1706 1.387 . S
C1705 H1708 0.950 . S
C1706 C1705 1.387 . S
C1706 C1709 1.387 . S
H1707 C1703 0.950 . S
H1708 C1705 0.950 . S
C1709 C1700 1.390 . S
C1709 H1702 0.950 . S
C1709 C1706 1.387 . S
C1710 C1711 1.387 . S
C1710 H1714 0.950 . S
C1710 C1719 1.390 . S
C1711 C1710 1.387 . S
C1711 C1713 1.387 . S
H1712 C1719 0.950 . S
C1713 C1711 1.387 . S
C1713 C1715 1.390 . S
C1713 H1717 0.950 . S
H1714 C1710 0.950 . S
C1715 C1713 1.390 . S
C1715 C1716 1.387 . S
C1715 H1718 0.950 . S
C1716 C1715 1.387 . S
C1716 C1719 1.387 . S
H1717 C1713 0.950 . S
H1718 C1715 0.950 . S
C1719 C1710 1.390 . S
C1719 H1712 0.950 . S
C1719 C1716 1.387 . S
C1720 C1721 1.387 . S
C1720 H1724 0.950 . S
C1720 C1729 1.390 . S
C1721 C1720 1.387 . S
C1721 C1723 1.387 . S
H1722 C1729 0.950 . S
C1723 C1721 1.387 . S
C1723 C1725 1.390 . S
C1723 H1727 0.950 . S
H1724 C1720 0.950 . S
C1725 C1723 1.390 . S
C1725 C1726 1.387 . S
C1725 H1728 0.950 . S
C1726 C1725 1.387 . S
C1726 C1729 1.387 . S
H1727 C1723 0.950 . S
H1728 C1725 0.950 . S
C1729 C1720 1.390 . S
C1729 H1722 0.950 . S
C1729 C1726 1.387 . S
C1730 C1731 1.387 . S
C1730 H1734 0.950 . S
C1730 C1739 1.390 . S
C1731 C1730 1.387 . S
C1731 C1733 1.387 . S
H1732 C1739 0.950 . S
C1733 C1731 1.387 . S
C1733 C1735 1.390 . S
C1733 H1737 0.950 . S
H1734 C1730 0.950 . S
C1735 C1733 1.390 . S
C1735 C1736 1.387 . S
C1735 H1738 0.950 . S
C1736 C1735 1.387 . S
C1736 C1739 1.387 . S
H1737 C1733 0.950 . S
H1738 C1735 0.950 . S
C1739 C1730 1.390 . S
C1739 H1732 0.950 . S
C1739 C1736 1.387 . S
C1740 C1741 1.387 . S
C1740 H1744 0.950 . S
C1740 C1749 1.390 . S
C1741 C1740 1.387 . S
C1741 C1743 1.387 . S
H1742 C1749 0.950 . S
C1743 C1741 1.387 . S
C1743 C1745 1.390 . S
C1743 H1747 0.950 . S
H1744 C1740 0.950 . S
C1745 C1743 1.390 . S
C1745 C1746 1.387 . S
C1745 H1748 0.950 . S
C1746 C1745 1.387 . S
C1746 C1749 1.387 . S
H1747 C1743 0.950 . S
H1748 C1745 0.950 . S
C1749 C1740 1.390 . S
C1749 H1742 0.950 . S
C1749 C1746 1.387 . S
C1750 C1751 1.387 . S
C1750 H1754 0.950 . S
C1750 C1759 1.390 . S
C1751 C1750 1.387 . S
C1751 C1753 1.387 . S
H1752 C1759 0.950 . S
C1753 C1751 1.387 . S
C1753 C1755 1.390 . S
C1753 H1757 0.950 . S
H1754 C1750 0.950 . S
C1755 C1753 1.390 . S
C1755 C1756 1.387 . S
C1755 H1758 0.950 . S
C1756 C1755 1.387 . S
C1756 C1759 1.387 . S
H1757 C1753 0.950 . S
H1758 C1755 0.950 . S
C1759 C1750 1.390 . S
C1759 H1752 0.950 . S
C1759 C1756 1.387 . S
C1760 C1761 1.387 . S
C1760 H1764 0.950 . S
C1760 C1769 1.390 . S
C1761 C1760 1.387 . S
C1761 C1763 1.387 . S
H1762 C1769 0.950 . S
C1763 C1761 1.387 . S
C1763 C1765 1.390 . S
C1763 H1767 0.950 . S
H1764 C1760 0.950 . S
C1765 C1763 1.390 . S
C1765 C1766 1.387 . S
C1765 H1768 0.950 . S
C1766 C1765 1.387 . S
C1766 C1769 1.387 . S
H1767 C1763 0.950 . S
H1768 C1765 0.950 . S
C1769 C1760 1.390 . S
C1769 H1762 0.950 . S
C1769 C1766 1.387 . S
C1770 C1771 1.387 . S
C1770 H1774 0.950 . S
C1770 C1779 1.390 . S
C1771 C1770 1.387 . S
C1771 C1773 1.387 . S
H1772 C1779 0.950 . S
C1773 C1771 1.387 . S
C1773 C1775 1.390 . S
C1773 H1777 0.950 . S
H1774 C1770 0.950 . S
C1775 C1773 1.390 . S
C1775 C1776 1.387 . S
C1775 H1778 0.950 . S
C1776 C1775 1.387 . S
C1776 C1779 1.387 . S
H1777 C1773 0.950 . S
H1778 C1775 0.950 . S
C1779 C1770 1.390 . S
C1779 H1772 0.950 . S
C1779 C1776 1.387 . S
C1780 C1781 1.387 . S
C1780 H1784 0.950 . S
C1780 C1789 1.390 . S
C1781 C1780 1.387 . S
C1781 C1783 1.387 . S
H1782 C1789 0.950 . S
C1783 C1781 1.387 . S
C1783 C1785 1.390 . S
C1783 H1787 0.950 . S
H1784 C1780 0.950 . S
C1785 C1783 1.390 . S
C1785 C1786 1.387 . S
C1785 H1788 0.950 . S
C1786 C1785 1.387 . S
C1786 C1789 1.387 . S
H1787 C1783 0.950 . S
H1788 C1785 0.950 . S
C1789 C1780 1.390 . S
C1789 H1782 0.950 . S
C1789 C1786 1.387 . S
C1790 C1791 1.387 . S
C1790 H1794 0.950 1_554 S
C1790 C1799 1.390 1_554 S
C1791 C1790 1.387 . S
C1791 C1793 1.387 . S
H1792 C1799 0.950 . S
C1793 C1791 1.387 . S
C1793 C1795 1.390 . S
C1793 H1797 0.950 . S
H1794 C1790 0.950 1_556 S
C1795 C1793 1.390 . S
C1795 C1796 1.387 . S
C1795 H1798 0.950 1_565 S
C1796 C1795 1.387 . S
C1796 C1799 1.387 1_554 S
H1797 C1793 0.950 . S
H1798 C1795 0.950 1_545 S
C1799 C1790 1.390 1_556 S
C1799 H1792 0.950 . S
C1799 C1796 1.387 1_556 S
C1800 C1801 1.387 . S
C1800 H1804 0.950 . S
C1800 C1809 1.390 . S
C1801 C1800 1.387 . S
C1801 C1803 1.387 . S
H1802 C1809 0.950 . S
C1803 C1801 1.387 . S
C1803 C1805 1.390 . S
C1803 H1807 0.950 . S
H1804 C1800 0.950 . S
C1805 C1803 1.390 . S
C1805 C1806 1.387 . S
C1805 H1808 0.950 . S
C1806 C1805 1.387 . S
C1806 C1809 1.387 . S
H1807 C1803 0.950 . S
H1808 C1805 0.950 . S
C1809 C1800 1.390 . S
C1809 H1802 0.950 . S
C1809 C1806 1.387 . S
C1810 C1811 1.386 1_556 S
C1810 H1814 0.955 . S
C1810 C1819 1.386 1_556 S
C1811 C1810 1.386 1_554 S
C1811 C1813 1.387 . S
H1812 C1819 0.950 . S
C1813 C1811 1.387 . S
C1813 C1815 1.390 . S
C1813 H1817 0.950 . S
H1814 C1810 0.955 . S
C1815 C1813 1.390 . S
C1815 C1816 1.387 . S
C1815 H1818 0.950 . S
C1816 C1815 1.387 . S
C1816 C1819 1.387 . S
H1817 C1813 0.950 . S
H1818 C1815 0.950 . S
C1819 C1810 1.386 1_554 S
C1819 H1812 0.950 . S
C1819 C1816 1.387 . S
C1820 C1821 1.387 . S
C1820 H1824 0.950 . S
C1820 C1829 1.390 . S
C1821 C1820 1.387 . S
C1821 C1823 1.387 . S
H1822 C1829 0.950 . S
C1823 C1821 1.387 . S
C1823 C1825 1.390 . S
C1823 H1827 0.950 . S
H1824 C1820 0.950 . S
C1825 C1823 1.390 . S
C1825 C1826 1.387 . S
C1825 H1828 0.950 . S
C1826 C1825 1.387 . S
C1826 C1829 1.387 . S
H1827 C1823 0.950 . S
H1828 C1825 0.950 . S
C1829 C1820 1.390 . S
C1829 H1822 0.950 . S
C1829 C1826 1.387 . S
C1830 C1831 1.387 . S
C1830 H1834 0.950 . S
C1830 C1839 1.390 . S
C1831 C1830 1.387 . S
C1831 C1833 1.387 . S
H1832 C1839 0.950 . S
C1833 C1831 1.387 . S
C1833 C1835 1.390 . S
C1833 H1837 0.950 . S
H1834 C1830 0.950 . S
C1835 C1833 1.390 . S
C1835 C1836 1.387 . S
C1835 H1838 0.950 . S
C1836 C1835 1.387 . S
C1836 C1839 1.387 . S
H1837 C1833 0.950 . S
H1838 C1835 0.950 . S
C1839 C1830 1.390 . S
C1839 H1832 0.950 . S
C1839 C1836 1.387 . S
C886 C353 1.319 . S
C881 C7 1.301 . S
C891 C22 1.978 . S
C896 C399 1.962 . S
C901 C31 1.061 . S
C906 C408 1.048 . S
C916 C446 1.785 . S
C911 C51 1.841 . S
C921 C17 1.806 . S
C926 C480 1.760 . S
C936 C510 0.955 . S
C931 C36 0.962 . S
C946 C569 1.765 1_556 S
C941 C49 1.739 . S
C951 C9 1.259 . S
C956 C582 1.247 . S
C961 C63 1.584 . S
C966 C365 1.542 . S
C971 C73 1.340 . S
C976 C383 1.312 . S
C986 C404 1.840 . S
C981 C91 1.830 . S
C996 C442 1.122 . S
C991 C101 1.166 . S
C1001 C59 1.442 . S
C1006 C476 1.394 . S
C1016 C506 1.754 . S
C1011 C77 1.757 . S
C1026 C553 1.382 . S
C1021 C87 1.426 . S
C1036 C578 0.910 . S
C1031 C105 0.905 . S
C1046 C349 0.898 . S
C1041 C107 0.902 . S
C1056 C608 1.692 . S
C1051 C120 1.686 . S
C1061 C135 1.581 . S
C1066 C650 1.575 . S
C1076 C693 0.563 . S
C1071 C148 0.544 . S
C1081 C65 1.555 . S
C1086 C574 1.505 . S
C1096 C412 1.666 . S
C1091 C79 1.660 . S
C1101 C134 1.431 . S
C1106 C710 1.448 . S
C1116 C761 1.660 . S
C1111 C162 1.653 . S
C1121 C171 1.300 . S
C1126 C344 1.293 1_556 S
C1136 C744 1.929 . S
C1131 C190 1.937 . S
C1141 C203 1.021 . S
C1146 C417 1.042 . S
C1151 C219 1.805 . S
C1156 C727 1.742 . S
C1166 C489 1.729 . S
C1161 C189 1.686 . S
C1176 C655 0.938 . S
C1171 C204 0.944 . S
C1186 C540 1.725 . S
C1181 C213 1.748 . S
C1196 C795 1.228 . S
C1191 C177 1.262 . S
C1206 C336 1.500 1_655 S
C1201 C227 1.555 . S
C1211 C245 1.255 . S
C1216 C748 1.300 . S
C1226 C433 1.803 . S
C1221 C255 1.847 . S
C1231 C273 1.031 . S
C1236 C723 1.110 . S
C1241 C231 1.357 . S
C1246 C485 1.376 . S
C1251 C241 1.757 . S
C1256 C671 1.719 . S
C1266 C544 1.365 . S
C1261 C259 1.321 . S
C1271 C269 0.909 . S
C1276 C791 0.894 . S
C1281 C275 0.897 . S
C1286 C340 0.889 . S
C1291 C288 1.665 . S
C1296 C637 1.663 . S
C1301 C303 1.572 . S
C1306 C523 1.550 . S
C1311 C316 0.523 . S
C1316 C684 0.539 . S
C1326 C807 1.478 . S
C1321 C233 1.541 . S
C1336 C421 1.641 . S
C1331 C247 1.652 . S
C1346 C467 1.418 . S
C1341 C302 1.413 . S
C1356 C378 1.632 . S
C1351 C330 1.632 . S
C1361 C35 1.296 . S
C1366 C829 1.317 . S
C1376 C773 1.962 . S
C1371 C50 1.978 . S
C1386 C850 1.046 . S
C1381 C3 1.061 . S
C1391 C23 1.841 . S
C1396 C718 1.783 . S
C1401 C45 1.806 . S
C1406 C616 1.761 1_556 S
C1416 C646 0.954 . S
C1411 C8 0.962 . S
C1426 C705 1.766 . S
C1421 C21 1.740 . S
C1436 C786 1.248 . S
C1431 C37 1.260 . S
C1446 C841 1.541 . S
C1441 C161 1.582 . S
C1451 C115 1.339 1_556 S
C1456 C757 1.310 . S
C1461 C133 1.830 . S
C1466 C846 1.840 1_655 S
C1476 C714 1.122 . S
C1471 C143 1.167 . S
C1486 C612 1.395 . S
C1481 C157 1.442 . S
C1491 C119 1.758 . S
C1496 C642 1.755 . S
C1506 C689 1.382 . S
C1501 C129 1.426 . S
C1511 C147 0.910 . S
C1516 C782 0.911 . S
C1526 C825 0.902 . S
C1521 C149 0.905 . S
C1536 C472 1.692 . S
C1531 C78 1.686 . S
C1546 C514 1.575 . S
C1541 C93 1.581 . S
C1551 C106 0.544 . S
C1556 C557 0.562 . S
C1566 C778 1.502 . S
C1561 C163 1.554 . S
C1571 C121 1.661 . S
C1576 C854 1.668 . S
C1586 C438 1.449 . S
C1581 C92 1.432 . S
C1596 C387 1.660 . S
C1591 C64 1.653 . S
C1601 C199 1.303 . S
C1606 C820 1.297 . S
C1616 C370 1.929 . S
C1611 C218 1.937 . S
C1626 C859 1.040 . S
C1621 C175 1.014 1_455 S
C1631 C191 1.805 . S
C1636 C455 1.745 . S
C1641 C217 1.686 . S
C1646 C625 1.729 . S
C1651 C176 0.945 . S
C1656 C519 0.935 . S
C1661 C185 1.748 . S
C1666 C676 1.725 . S
C1671 C205 1.257 . S
C1676 C591 1.227 . S
C1686 C812 1.509 . S
C1681 C325 1.555 . S
C1691 C287 1.255 . S
C1696 C374 1.300 . S
C1706 C875 1.802 . S
C1701 C297 1.847 . S
C1711 C315 1.035 . S
C1716 C451 1.113 . S
C1721 C329 1.359 . S
C1726 C621 1.378 . S
C1736 C535 1.718 . S
C1731 C283 1.757 . S
C1741 C301 1.323 . S
C1746 C680 1.367 . S
C1756 C587 0.898 . S
C1751 C311 0.912 . S
C1766 C816 0.889 . S
C1761 C317 0.898 . S
C1776 C501 1.663 . S
C1771 C246 1.665 . S
C1781 C261 1.574 . S
C1786 C659 1.552 . S
C1796 C548 0.539 . S
C1791 C274 0.523 . S
C1806 C603 1.479 . S
C1801 C331 1.541 . S
C1811 C289 1.649 1_554 S
C1816 C863 1.640 . S
C1826 C739 1.418 . S
C1821 C260 1.413 . S
C1836 C752 1.632 . S
C1831 C232 1.631 . S
