# Generated by pormake.
# Topology myd, (4,6)-cn, num edge types: 1
# Building blocks:
#     Node 0, Type 0, BuildingBlock: KOZSID_clean_sbu_0, # of connection points: 4
#     Node 1, Type 0, BuildingBlock: KOZSID_clean_sbu_0, # of connection points: 4
#     Node 2, Type 0, BuildingBlock: KOZSID_clean_sbu_0, # of connection points: 4
#     Node 3, Type 0, BuildingBlock: KOZSID_clean_sbu_0, # of connection points: 4
#     Node 4, Type 0, BuildingBlock: KOZSID_clean_sbu_0, # of connection points: 4
#     Node 5, Type 0, BuildingBlock: KOZSID_clean_sbu_0, # of connection points: 4
#     Node 6, Type 0, BuildingBlock: KOZSID_clean_sbu_0, # of connection points: 4
#     Node 7, Type 0, BuildingBlock: KOZSID_clean_sbu_0, # of connection points: 4
#     Node 8, Type 0, BuildingBlock: KOZSID_clean_sbu_0, # of connection points: 4
#     Node 9, Type 0, BuildingBlock: KOZSID_clean_sbu_0, # of connection points: 4
#     Node 10, Type 0, BuildingBlock: KOZSID_clean_sbu_0, # of connection points: 4
#     Node 11, Type 0, BuildingBlock: KOZSID_clean_sbu_0, # of connection points: 4
#     Node 12, Type 1, BuildingBlock: CUWYAW_clean_sbu_0, # of connection points: 6
#     Node 13, Type 1, BuildingBlock: CUWYAW_clean_sbu_0, # of connection points: 6
#     Node 14, Type 1, BuildingBlock: CUWYAW_clean_sbu_0, # of connection points: 6
#     Node 15, Type 1, BuildingBlock: CUWYAW_clean_sbu_0, # of connection points: 6
#     Node 16, Type 1, BuildingBlock: CUWYAW_clean_sbu_0, # of connection points: 6
#     Node 17, Type 1, BuildingBlock: CUWYAW_clean_sbu_0, # of connection points: 6
#     Node 18, Type 1, BuildingBlock: CUWYAW_clean_sbu_0, # of connection points: 6
#     Node 19, Type 1, BuildingBlock: CUWYAW_clean_sbu_0, # of connection points: 6
#     Edge 20, Type (0, 1), BuildingBlock: ZUJKAS_clean_linker_0, # of connection points: 2
#     Edge 21, Type (0, 1), BuildingBlock: ZUJKAS_clean_linker_0, # of connection points: 2
#     Edge 22, Type (0, 1), BuildingBlock: ZUJKAS_clean_linker_0, # of connection points: 2
#     Edge 23, Type (0, 1), BuildingBlock: ZUJKAS_clean_linker_0, # of connection points: 2
#     Edge 24, Type (0, 1), BuildingBlock: ZUJKAS_clean_linker_0, # of connection points: 2
#     Edge 25, Type (0, 1), BuildingBlock: ZUJKAS_clean_linker_0, # of connection points: 2
#     Edge 26, Type (0, 1), BuildingBlock: ZUJKAS_clean_linker_0, # of connection points: 2
#     Edge 27, Type (0, 1), BuildingBlock: ZUJKAS_clean_linker_0, # of connection points: 2
#     Edge 28, Type (0, 1), BuildingBlock: ZUJKAS_clean_linker_0, # of connection points: 2
#     Edge 29, Type (0, 1), BuildingBlock: ZUJKAS_clean_linker_0, # of connection points: 2
#     Edge 30, Type (0, 1), BuildingBlock: ZUJKAS_clean_linker_0, # of connection points: 2
#     Edge 31, Type (0, 1), BuildingBlock: ZUJKAS_clean_linker_0, # of connection points: 2
#     Edge 32, Type (0, 1), BuildingBlock: ZUJKAS_clean_linker_0, # of connection points: 2
#     Edge 33, Type (0, 1), BuildingBlock: ZUJKAS_clean_linker_0, # of connection points: 2
#     Edge 34, Type (0, 1), BuildingBlock: ZUJKAS_clean_linker_0, # of connection points: 2
#     Edge 35, Type (0, 1), BuildingBlock: ZUJKAS_clean_linker_0, # of connection points: 2
#     Edge 36, Type (0, 1), BuildingBlock: ZUJKAS_clean_linker_0, # of connection points: 2
#     Edge 37, Type (0, 1), BuildingBlock: ZUJKAS_clean_linker_0, # of connection points: 2
#     Edge 38, Type (0, 1), BuildingBlock: ZUJKAS_clean_linker_0, # of connection points: 2
#     Edge 39, Type (0, 1), BuildingBlock: ZUJKAS_clean_linker_0, # of connection points: 2
#     Edge 40, Type (0, 1), BuildingBlock: ZUJKAS_clean_linker_0, # of connection points: 2
#     Edge 41, Type (0, 1), BuildingBlock: ZUJKAS_clean_linker_0, # of connection points: 2
#     Edge 42, Type (0, 1), BuildingBlock: ZUJKAS_clean_linker_0, # of connection points: 2
#     Edge 43, Type (0, 1), BuildingBlock: ZUJKAS_clean_linker_0, # of connection points: 2
#     Edge 44, Type (0, 1), BuildingBlock: ZUJKAS_clean_linker_0, # of connection points: 2
#     Edge 45, Type (0, 1), BuildingBlock: ZUJKAS_clean_linker_0, # of connection points: 2
#     Edge 46, Type (0, 1), BuildingBlock: ZUJKAS_clean_linker_0, # of connection points: 2
#     Edge 47, Type (0, 1), BuildingBlock: ZUJKAS_clean_linker_0, # of connection points: 2
#     Edge 48, Type (0, 1), BuildingBlock: ZUJKAS_clean_linker_0, # of connection points: 2
#     Edge 49, Type (0, 1), BuildingBlock: ZUJKAS_clean_linker_0, # of connection points: 2
#     Edge 50, Type (0, 1), BuildingBlock: ZUJKAS_clean_linker_0, # of connection points: 2
#     Edge 51, Type (0, 1), BuildingBlock: ZUJKAS_clean_linker_0, # of connection points: 2
#     Edge 52, Type (0, 1), BuildingBlock: ZUJKAS_clean_linker_0, # of connection points: 2
#     Edge 53, Type (0, 1), BuildingBlock: ZUJKAS_clean_linker_0, # of connection points: 2
#     Edge 54, Type (0, 1), BuildingBlock: ZUJKAS_clean_linker_0, # of connection points: 2
#     Edge 55, Type (0, 1), BuildingBlock: ZUJKAS_clean_linker_0, # of connection points: 2
#     Edge 56, Type (0, 1), BuildingBlock: ZUJKAS_clean_linker_0, # of connection points: 2
#     Edge 57, Type (0, 1), BuildingBlock: ZUJKAS_clean_linker_0, # of connection points: 2
#     Edge 58, Type (0, 1), BuildingBlock: ZUJKAS_clean_linker_0, # of connection points: 2
#     Edge 59, Type (0, 1), BuildingBlock: ZUJKAS_clean_linker_0, # of connection points: 2
#     Edge 60, Type (0, 1), BuildingBlock: ZUJKAS_clean_linker_0, # of connection points: 2
#     Edge 61, Type (0, 1), BuildingBlock: ZUJKAS_clean_linker_0, # of connection points: 2
#     Edge 62, Type (0, 1), BuildingBlock: ZUJKAS_clean_linker_0, # of connection points: 2
#     Edge 63, Type (0, 1), BuildingBlock: ZUJKAS_clean_linker_0, # of connection points: 2
#     Edge 64, Type (0, 1), BuildingBlock: ZUJKAS_clean_linker_0, # of connection points: 2
#     Edge 65, Type (0, 1), BuildingBlock: ZUJKAS_clean_linker_0, # of connection points: 2
#     Edge 66, Type (0, 1), BuildingBlock: ZUJKAS_clean_linker_0, # of connection points: 2
#     Edge 67, Type (0, 1), BuildingBlock: ZUJKAS_clean_linker_0, # of connection points: 2
# Relax obj value: 0.302
# Max RMSD: 0.366
# Mean RMSD: 0.184
data_MOF--net-myd--node1-KOZSID_clean_sbu_0--node2-CUWYAW_clean_sbu_0--edge1-ZUJKAS_clean_linker_0
_symmetry_space_group_name_H-M    P1
_symmetry_Int_Tables_number       1
_symmetry_cell_setting            triclinic
loop_
_symmetry_equiv_pos_as_xyz
'x, y, z'
_cell_length_a     67.924072
_cell_length_b     67.255719
_cell_length_c     67.589599
_cell_angle_alpha  89.675959
_cell_angle_beta   88.8573
_cell_angle_gamma 88.036043
loop_
_atom_site_label
_atom_site_type_symbol
_atom_site_fract_x
_atom_site_fract_y
_atom_site_fract_z
_atom_type_partial_charge
C0 C 0.02536 0.33974 0.37264 0.0
C1 C 0.007 0.34332 0.38154 0.0
C2 C 0.99447 0.33046 0.37323 0.0
C3 C 1.00583 0.31964 0.35991 0.0
N4 N 0.02498 0.32453 0.35939 0.0
Co5 Co 0.04637 0.31238 0.3418 0.0
N6 N 0.0273 0.29566 0.32763 0.0
C7 C 0.00765 0.29519 0.33106 0.0
C8 C 0.99828 0.2824 0.31897 0.0
C9 C 0.01285 0.27411 0.30716 0.0
C10 C 0.03035 0.28227 0.31284 0.0
N11 N 0.0679 0.30034 0.32449 0.0
C12 C 0.06727 0.2862 0.31032 0.0
C13 C 0.08597 0.28128 0.30275 0.0
C14 C 0.09881 0.29281 0.31235 0.0
C15 C 0.08732 0.30394 0.32528 0.0
N16 N 0.06527 0.32959 0.35591 0.0
C17 C 0.08496 0.32997 0.35262 0.0
C18 C 0.09402 0.34435 0.363 0.0
C19 C 0.07926 0.35401 0.37342 0.0
C20 C 0.06191 0.3448 0.36899 0.0
N21 N 0.05098 0.28966 0.36122 0.0
C22 C 0.05814 0.25148 0.37964 0.0
C23 C 0.07354 0.26416 0.37468 0.0
C24 C 0.06969 0.28299 0.36588 0.0
C25 C 0.03897 0.25924 0.37653 0.0
C26 C 0.03578 0.2781 0.36761 0.0
N27 N 0.04183 0.33406 0.32156 0.0
C28 C 0.05432 0.35463 0.29461 0.0
C29 C 0.03523 0.35998 0.28846 0.0
C30 C 0.01956 0.3528 0.29997 0.0
C31 C 0.02312 0.34005 0.31624 0.0
C32 C 0.05724 0.34202 0.31111 0.0
H33 H 0.01049 0.3348 0.32402 0.0
H34 H 0.07218 0.33856 0.31494 0.0
H35 H 0.08216 0.29166 0.36247 0.0
H36 H 0.02079 0.28269 0.36542 0.0
C37 C 0.99859 0.30631 0.34629 0.0
C38 C 0.04254 0.35156 0.37701 0.0
C39 C 0.04948 0.27663 0.30395 0.0
C40 C 0.0943 0.31781 0.33843 0.0
H41 H 1.00296 0.35436 0.3926 0.0
H42 H 0.97878 0.3296 0.37607 0.0
H43 H 0.98276 0.27928 0.31893 0.0
H44 H 0.01084 0.26315 0.29577 0.0
H45 H 0.09004 0.2703 0.29163 0.0
H46 H 0.11465 0.2929 0.31031 0.0
H47 H 0.10944 0.34794 0.36243 0.0
H48 H 0.08114 0.36679 0.38272 0.0
H49 H 0.08869 0.25956 0.37742 0.0
H50 H 0.02631 0.25051 0.3802 0.0
H51 H 0.06706 0.36011 0.28672 0.0
H52 H 1.00445 0.35642 0.29609 0.0
C53 C 1.00463 0.71953 0.21543 0.0
C54 C 0.98584 0.71684 0.20842 0.0
C55 C 0.97343 0.72946 0.21884 0.0
C56 C 0.98531 0.73918 0.23149 0.0
N57 N 1.00461 0.73373 0.22959 0.0
Co58 Co 0.02692 0.74398 0.24515 0.0
N59 N 0.00842 0.7612 0.26158 0.0
C60 C 0.98852 0.76207 0.26111 0.0
C61 C 0.98001 0.77602 0.27361 0.0
C62 C 0.99544 0.78494 0.28219 0.0
C63 C 0.01246 0.77588 0.27431 0.0
N64 N 0.04926 0.75467 0.2604 0.0
C65 C 0.0493 0.77042 0.2728 0.0
C66 C 0.06817 0.77436 0.27882 0.0
C67 C 0.08058 0.76084 0.26955 0.0
C68 C 0.06862 0.74955 0.25838 0.0
N69 N 0.04538 0.72639 0.22894 0.0
C70 C 0.06518 0.72442 0.23062 0.0
C71 C 0.07377 0.71039 0.21828 0.0
C72 C 0.05853 0.70268 0.20833 0.0
C73 C 0.04146 0.71256 0.21514 0.0
N74 N 0.02994 0.76634 0.22606 0.0
C75 C 0.0365 0.80402 0.20915 0.0
C76 C 0.05186 0.78976 0.21079 0.0
C77 C 0.04823 0.77109 0.219 0.0
C78 C 0.01742 0.79824 0.21411 0.0
C79 C 0.01446 0.77935 0.22228 0.0
N80 N 0.02401 0.72201 0.26482 0.0
C81 C 0.03874 0.69894 0.28834 0.0
C82 C 0.02026 0.69414 0.29603 0.0
C83 C 1.00363 0.70274 0.28708 0.0
C84 C 1.00583 0.71645 0.27159 0.0
C85 C 0.04026 0.71264 0.27282 0.0
H86 H 0.99257 0.72262 0.26558 0.0
H87 H 0.05477 0.71558 0.26779 0.0
H88 H 0.06067 0.7611 0.2204 0.0
H89 H 0.99971 0.77599 0.22642 0.0
C90 C 0.97856 0.75199 0.24655 0.0
C91 C 0.0218 0.70754 0.20888 0.0
C92 C 0.03205 0.78302 0.27771 0.0
C93 C 0.07522 0.73551 0.24438 0.0
H94 H 0.9815 0.70642 0.19729 0.0
H95 H 0.95756 0.73086 0.21782 0.0
H96 H 0.96452 0.78013 0.2753 0.0
H97 H 0.99436 0.79737 0.29229 0.0
H98 H 0.07263 0.78627 0.28825 0.0
H99 H 0.09651 0.76003 0.27005 0.0
H100 H 0.08921 0.70596 0.21702 0.0
H101 H 0.05983 0.69078 0.19761 0.0
H102 H 0.06676 0.79316 0.20633 0.0
H103 H 1.00492 0.80857 0.21277 0.0
H104 H 0.05209 0.69222 0.29433 0.0
H105 H 0.98896 0.69942 0.2924 0.0
C106 C 0.38471 0.02698 0.33475 0.0
C107 C 0.38845 1.00714 0.33948 0.0
C108 C 0.37956 0.99618 0.32545 0.0
C109 C 0.37084 1.00983 0.31294 0.0
N110 N 0.37403 0.02888 0.31785 0.0
Co111 Co 0.36206 0.05324 0.30474 0.0
N112 N 0.34402 0.0373 0.28829 0.0
C113 C 0.34387 0.01722 0.28749 0.0
C114 C 0.3299 1.01021 0.27521 0.0
C115 C 0.32038 0.0268 0.26786 0.0
C116 C 0.32902 0.04311 0.27616 0.0
N117 N 0.35003 0.07766 0.29188 0.0
C118 C 0.33456 0.07992 0.27933 0.0
C119 C 0.33094 0.09984 0.27473 0.0
C120 C 0.34458 0.11041 0.28445 0.0
C121 C 0.35571 0.09651 0.29457 0.0
N122 N 0.37961 0.06907 0.32191 0.0
C123 C 0.3817 0.08896 0.32107 0.0
C124 C 0.39303 0.09605 0.33589 0.0
C125 C 0.39803 0.07979 0.34722 0.0
C126 C 0.38941 0.06363 0.3387 0.0
N127 N 0.38267 0.05185 0.2827 0.0
C128 C 0.40566 0.05235 0.24679 0.0
C129 C 0.40411 0.06891 0.25925 0.0
C130 C 0.39285 0.0683 0.27693 0.0
C131 C 0.3966 0.0351 0.25347 0.0
C132 C 0.38557 0.0351 0.27131 0.0
N133 N 0.34166 0.05483 0.32591 0.0
C134 C 0.32262 0.07408 0.35 0.0
C135 C 0.3126 0.05724 0.35612 0.0
C136 C 0.31751 0.03913 0.34684 0.0
C137 C 0.33203 0.03825 0.33195 0.0
C138 C 0.33689 0.07258 0.33492 0.0
H139 H 0.33523 0.02405 0.3254 0.0
H140 H 0.34393 0.08596 0.33077 0.0
H141 H 0.39234 0.08155 0.28538 0.0
H142 H 0.37932 0.02137 0.27529 0.0
C143 C 0.35663 1.0054 0.29904 0.0
C144 C 0.39054 0.04348 0.34741 0.0
C145 C 0.32263 0.06379 0.27176 0.0
C146 C 0.37029 0.1008 0.30818 0.0
H147 H 0.39601 1.00117 0.35225 0.0
H148 H 0.37838 0.98017 0.32525 0.0
H149 H 0.32683 0.99486 0.27214 0.0
H150 H 0.3084 0.02684 0.25753 0.0
H151 H 0.31941 0.10619 0.2656 0.0
H152 H 0.3458 0.12641 0.28463 0.0
H153 H 0.39626 0.11139 0.33884 0.0
H154 H 0.40647 0.07991 0.36063 0.0
H155 H 0.41098 0.08266 0.25512 0.0
H156 H 0.39791 0.02152 0.24493 0.0
H157 H 0.31957 0.0884 0.35686 0.0
H158 H 0.30996 0.0257 0.35077 0.0
C159 C 0.66037 0.52893 0.32469 0.0
C160 C 0.64742 0.51403 0.32078 0.0
C161 C 0.65104 0.49923 0.33447 0.0
C162 C 0.666 0.50591 0.34585 0.0
N163 N 0.6718 0.524 0.34019 0.0
Co164 Co 0.6935 0.53901 0.35125 0.0
N165 N 0.70576 0.51444 0.36249 0.0
C166 C 0.69685 0.49703 0.3654 0.0
C167 C 0.70904 0.48266 0.37357 0.0
C168 C 0.72655 0.4917 0.37626 0.0
C169 C 0.72405 0.5112 0.3696 0.0
N170 N 0.71498 0.55433 0.36234 0.0
C171 C 0.73242 0.54782 0.36968 0.0
C172 C 0.74302 0.56369 0.37638 0.0
C173 C 0.73154 0.58058 0.37346 0.0
C174 C 0.71464 0.57418 0.36512 0.0
N175 N 0.68104 0.56328 0.33979 0.0
C176 C 0.68384 0.58218 0.34507 0.0
C177 C 0.67385 0.59565 0.33319 0.0
C178 C 0.66436 0.58438 0.31962 0.0
C179 C 0.66915 0.56472 0.32407 0.0
N180 N 0.67828 0.5432 0.37611 0.0
C181 C 0.65918 0.5526 0.41241 0.0
C182 C 0.64913 0.55456 0.39446 0.0
C183 C 0.65898 0.54981 0.37644 0.0
C184 C 0.67859 0.54499 0.41171 0.0
C185 C 0.68774 0.54044 0.39363 0.0
N186 N 0.70924 0.535 0.32678 0.0
C187 C 0.73258 0.54779 0.30299 0.0
C188 C 0.7361 0.52879 0.29496 0.0
C189 C 0.72503 0.51314 0.30262 0.0
C190 C 0.7117 0.51656 0.31848 0.0
C191 C 0.71916 0.55057 0.31876 0.0
H192 H 0.70383 0.50414 0.32444 0.0
H193 H 0.71721 0.5653 0.32479 0.0
H194 H 0.65117 0.55189 0.36277 0.0
H195 H 0.70278 0.53512 0.39395 0.0
C196 C 0.67801 0.49405 0.35807 0.0
C197 C 0.66196 0.54756 0.31365 0.0
C198 C 0.73804 0.52684 0.37332 0.0
C199 C 0.69945 0.58646 0.35744 0.0
H200 H 0.63683 0.51363 0.30907 0.0
H201 H 0.64455 0.48475 0.33507 0.0
H202 H 0.7057 0.46737 0.37693 0.0
H203 H 0.73948 0.48494 0.38301 0.0
H204 H 0.75729 0.56304 0.38325 0.0
H205 H 0.73523 0.59572 0.37674 0.0
H206 H 0.67448 0.6117 0.33344 0.0
H207 H 0.65526 0.5899 0.30767 0.0
H208 H 0.63404 0.56028 0.39428 0.0
H209 H 0.68685 0.54267 0.42512 0.0
H210 H 0.7403 0.56049 0.29728 0.0
H211 H 0.72716 0.49818 0.29695 0.0
C212 C 0.39994 0.39431 1.00407 0.0
C213 C 0.4046 0.39998 0.98481 0.0
C214 C 0.39258 0.38989 0.97276 0.0
C215 C 0.38121 0.37876 0.98527 0.0
N216 N 0.38504 0.38129 1.00464 0.0
Co217 Co 0.37203 0.3676 0.02771 0.0
N218 N 0.35567 0.35145 0.0098 0.0
C219 C 0.35601 0.35172 0.98979 0.0
C220 C 0.3429 0.3393 0.98154 0.0
C221 C 0.33342 0.33073 0.99723 0.0
C222 C 0.34128 0.33855 0.0142 0.0
N223 N 0.35903 0.35405 0.05082 0.0
C224 C 0.34423 0.34101 0.05135 0.0
C225 C 0.33888 0.33607 0.07066 0.0
C226 C 0.35066 0.34639 0.08274 0.0
C227 C 0.3624 0.35707 0.07022 0.0
N228 N 0.38859 0.38373 0.04555 0.0
C229 C 0.38842 0.38328 0.06557 0.0
C230 C 0.40203 0.39511 0.07383 0.0
C231 C 0.41168 0.40352 0.05819 0.0
C232 C 0.4033 0.3964 0.04116 0.0
N233 N 0.35034 0.38846 0.02862 0.0
C234 C 0.3127 0.40779 0.03185 0.0
C235 C 0.32472 0.40528 0.04834 0.0
C236 C 0.34342 0.39594 0.04635 0.0
C237 C 0.32087 0.40238 0.01339 0.0
C238 C 0.33965 0.39304 0.01209 0.0
N239 N 0.39299 0.34608 0.02693 0.0
C240 C 0.41248 0.32096 0.0443 0.0
C241 C 0.41697 0.3108 0.02669 0.0
C242 C 0.41044 0.31951 1.00904 0.0
C243 C 0.39867 0.33705 1.00949 0.0
C244 C 0.40076 0.33849 0.04407 0.0
H245 H 0.39384 0.3427 0.99556 0.0
H246 H 0.39775 0.34533 0.058 0.0
H247 H 0.35165 0.39415 0.05955 0.0
H248 H 0.34478 0.38879 0.99769 0.0
C249 C 0.36788 0.36477 0.97922 0.0
C250 C 0.4104 0.40145 0.02122 0.0
C251 C 0.33417 0.33369 0.03409 0.0
C252 C 0.37608 0.37073 0.07619 0.0
H253 H 0.41577 0.41012 0.97994 0.0
H254 H 0.39249 0.39024 0.95675 0.0
H255 H 0.34021 0.33711 0.96599 0.0
H256 H 0.32178 0.3202 0.99629 0.0
H257 H 0.32736 0.32636 0.07556 0.0
H258 H 0.35034 0.34649 0.09876 0.0
H259 H 0.40497 0.39697 0.08938 0.0
H260 H 0.42384 0.4134 0.05926 0.0
H261 H 0.31954 0.41004 0.06286 0.0
H262 H 0.31246 0.40434 1.00002 0.0
H263 H 0.41774 0.31525 0.05834 0.0
H264 H 0.41364 0.31241 0.99495 0.0
C265 C 0.29208 0.7274 0.53601 0.0
C266 C 0.28982 0.71406 0.52069 0.0
C267 C 0.30507 0.71696 0.5075 0.0
C268 C 0.31574 0.73181 0.51551 0.0
N269 N 0.30816 0.73838 0.53291 0.0
Co270 Co 0.31862 0.75963 0.54949 0.0
N271 N 0.33374 0.77044 0.52674 0.0
C272 C 0.33815 0.76094 0.50962 0.0
C273 C 0.34869 0.77222 0.4965 0.0
C274 C 0.35136 0.78978 0.50606 0.0
C275 C 0.34235 0.78815 0.52463 0.0
N276 N 0.32905 0.78073 0.56625 0.0
C277 C 0.33845 0.79741 0.56096 0.0
C278 C 0.34379 0.80788 0.57758 0.0
C279 C 0.33773 0.79715 0.59376 0.0
C280 C 0.32907 0.78079 0.58619 0.0
N281 N 0.30332 0.74849 0.57201 0.0
C282 C 0.30627 0.75167 0.59133 0.0
C283 C 0.29289 0.7423 0.60337 0.0
C284 C 0.28081 0.73266 0.5908 0.0
C285 C 0.28758 0.73666 0.57175 0.0
N286 N 0.34191 0.74216 0.55634 0.0
C287 C 0.37601 0.7191 0.56761 0.0
C288 C 0.35705 0.71108 0.56808 0.0
C289 C 0.3403 0.72275 0.56233 0.0
C290 C 0.3772 0.73895 0.5613 0.0
C291 C 0.36028 0.75001 0.55582 0.0
N292 N 0.29588 0.77774 0.54284 0.0
C293 C 0.27219 0.80374 0.55298 0.0
C294 C 0.26714 0.80801 0.53328 0.0
C295 C 0.27637 0.79596 0.51857 0.0
C296 C 0.29053 0.78099 0.52362 0.0
C297 C 0.28641 0.78872 0.5574 0.0
H298 H 0.29759 0.77245 0.51185 0.0
H299 H 0.2901 0.78638 0.57269 0.0
H300 H 0.32604 0.71612 0.56285 0.0
H301 H 0.36221 0.76518 0.55139 0.0
C302 C 0.33003 0.74263 0.50545 0.0
C303 C 0.27933 0.72866 0.55368 0.0
C304 C 0.345 0.80228 0.54072 0.0
C305 C 0.31882 0.76656 0.59714 0.0
H306 H 0.27831 0.70347 0.51917 0.0
H307 H 0.30745 0.70984 0.4933 0.0
H308 H 0.35357 0.76831 0.48164 0.0
H309 H 0.35957 0.80213 0.5003 0.0
H310 H 0.35172 0.82156 0.57797 0.0
H311 H 0.33923 0.80099 0.60917 0.0
H312 H 0.29138 0.74326 0.61931 0.0
H313 H 0.26836 0.72389 0.59515 0.0
H314 H 0.35512 0.69581 0.57266 0.0
H315 H 0.39116 0.74624 0.56096 0.0
H316 H 0.2653 0.812 0.5651 0.0
H317 H 0.27324 0.79843 0.50309 0.0
C318 C 0.88976 0.87629 0.49923 0.0
C319 C 0.89401 0.88187 0.47985 0.0
C320 C 0.8814 0.87211 0.46816 0.0
C321 C 0.87012 0.86123 0.48098 0.0
N322 N 0.87456 0.86361 0.50022 0.0
Co323 Co 0.86192 0.85008 0.52361 0.0
N324 N 0.84456 0.83447 0.50619 0.0
C325 C 0.84411 0.83507 0.4862 0.0
C326 C 0.83015 0.82337 0.47834 0.0
C327 C 0.82094 0.81495 0.49426 0.0
C328 C 0.82991 0.822 0.51099 0.0
N329 N 0.84941 0.83665 0.54704 0.0
C330 C 0.8343 0.824 0.54799 0.0
C331 C 0.82993 0.81847 0.56736 0.0
C332 C 0.84244 0.82829 0.57911 0.0
C333 C 0.85374 0.83914 0.56629 0.0
N334 N 0.87942 0.86574 0.54096 0.0
C335 C 0.87987 0.86513 0.56096 0.0
C336 C 0.89394 0.87668 0.56885 0.0
C337 C 0.90323 0.88506 0.55297 0.0
C338 C 0.89419 0.87821 0.53619 0.0
N339 N 0.84062 0.87141 0.52536 0.0
C340 C 0.80325 0.8914 0.52964 0.0
C341 C 0.81548 0.8881 0.54588 0.0
C342 C 0.83403 0.87846 0.54338 0.0
C343 C 0.81112 0.88634 0.51094 0.0
C344 C 0.82974 0.87667 0.50913 0.0
N345 N 0.88239 0.828 0.52203 0.0
C346 C 0.90189 0.80224 0.53859 0.0
C347 C 0.90513 0.7918 0.5209 0.0
C348 C 0.89799 0.8007 0.50355 0.0
C349 C 0.88689 0.81868 0.50444 0.0
C350 C 0.89078 0.82022 0.5388 0.0
H351 H 0.88157 0.82443 0.49073 0.0
H352 H 0.88876 0.82726 0.55277 0.0
H353 H 0.84242 0.87607 0.55642 0.0
H354 H 0.8346 0.87273 0.49455 0.0
C355 C 0.85609 0.84779 0.47533 0.0
C356 C 0.90081 0.88329 0.51607 0.0
C357 C 0.8233 0.8173 0.5311 0.0
C358 C 0.8678 0.85256 0.57189 0.0
H359 H 0.90524 0.89179 0.47466 0.0
H360 H 0.88081 0.87255 0.45217 0.0
H361 H 0.82667 0.82165 0.46289 0.0
H362 H 0.80867 0.80515 0.49362 0.0
H363 H 0.81862 0.80861 0.5725 0.0
H364 H 0.84294 0.82791 0.5951 0.0
H365 H 0.89743 0.87832 0.5843 0.0
H366 H 0.9156 0.89472 0.55371 0.0
H367 H 0.81062 0.89253 0.5606 0.0
H368 H 0.80259 0.88886 0.49773 0.0
H369 H 0.90768 0.79646 0.55238 0.0
H370 H 0.90019 0.79345 0.48939 0.0
C371 C 0.52614 0.85046 0.8803 0.0
C372 C 0.50781 0.85414 0.88924 0.0
C373 C 0.49538 0.84081 0.88157 0.0
C374 C 0.50676 0.82965 0.86855 0.0
N375 N 0.52583 0.83479 0.86759 0.0
Co376 Co 0.54721 0.82224 0.85022 0.0
N377 N 0.52832 0.80421 0.83745 0.0
C378 C 0.50877 0.80338 0.84136 0.0
C379 C 0.49967 0.78909 0.83082 0.0
C380 C 0.51432 0.78013 0.81961 0.0
C381 C 0.53158 0.78956 0.82393 0.0
N382 N 0.56868 0.80984 0.83309 0.0
C383 C 0.5682 0.79463 0.82005 0.0
C384 C 0.58664 0.79052 0.81147 0.0
C385 C 0.59928 0.80329 0.8197 0.0
C386 C 0.58789 0.81449 0.83268 0.0
N387 N 0.56594 0.84062 0.86304 0.0
C388 C 0.58551 0.84143 0.85919 0.0
C389 C 0.59447 0.85627 0.86903 0.0
C390 C 0.57975 0.86575 0.87968 0.0
C391 C 0.56253 0.85602 0.87589 0.0
N392 N 0.55277 0.80075 0.87066 0.0
C393 C 0.56107 0.76372 0.89075 0.0
C394 C 0.57615 0.77616 0.8843 0.0
C395 C 0.57174 0.79445 0.8747 0.0
C396 C 0.54169 0.77119 0.88825 0.0
C397 C 0.53795 0.78951 0.87845 0.0
N398 N 0.54173 0.84273 0.82895 0.0
C399 C 0.55329 0.86263 0.80104 0.0
C400 C 0.53403 0.86676 0.79455 0.0
C401 C 0.51873 0.85934 0.80649 0.0
C402 C 0.52283 0.84757 0.82335 0.0
C403 C 0.55673 0.85096 0.81811 0.0
H404 H 0.51044 0.84224 0.83148 0.0
H405 H 0.57177 0.84842 0.82201 0.0
H406 H 0.58399 0.80297 0.87009 0.0
H407 H 0.52282 0.79391 0.87671 0.0
C408 C 0.49967 0.81527 0.85596 0.0
C409 C 0.54322 0.86255 0.8842 0.0
C410 C 0.55081 0.78345 0.81556 0.0
C411 C 0.59481 0.8291 0.84507 0.0
H412 H 0.50375 0.86549 0.89999 0.0
H413 H 0.47977 0.83973 0.88474 0.0
H414 H 0.48433 0.78526 0.83163 0.0
H415 H 0.51255 0.76774 0.80974 0.0
H416 H 0.5906 0.7793 0.80055 0.0
H417 H 0.61495 0.80414 0.81677 0.0
H418 H 0.60978 0.86022 0.86799 0.0
H419 H 0.58151 0.87874 0.88874 0.0
H420 H 0.59145 0.77176 0.88645 0.0
H421 H 0.5293 0.76259 0.89308 0.0
H422 H 0.56588 0.86783 0.79271 0.0
H423 H 0.50347 0.8625 0.80292 0.0
C424 C 0.54522 0.2841 0.73562 0.0
C425 C 0.56387 0.28805 0.72816 0.0
C426 C 0.57598 0.27217 0.73341 0.0
C427 C 0.56416 0.25951 0.74389 0.0
N428 N 0.54542 0.26648 0.74542 0.0
Co429 Co 0.52377 0.254 0.76049 0.0
N430 N 0.54251 0.23835 0.77697 0.0
C431 C 0.56158 0.2343 0.77226 0.0
C432 C 0.57083 0.22236 0.786 0.0
C433 C 0.55664 0.21849 0.80008 0.0
C434 C 0.53941 0.22839 0.79418 0.0
N435 N 0.50197 0.24147 0.77533 0.0
C436 C 0.50214 0.23139 0.79277 0.0
C437 C 0.48335 0.22529 0.7978 0.0
C438 C 0.47127 0.23125 0.78267 0.0
C439 C 0.4832 0.24082 0.76933 0.0
N440 N 0.5053 0.26986 0.74398 0.0
C441 C 0.48629 0.26612 0.74098 0.0
C442 C 0.47714 0.2806 0.72961 0.0
C443 C 0.49132 0.29422 0.72537 0.0
C444 C 0.50834 0.28728 0.73447 0.0
N445 N 0.52382 0.23225 0.74134 0.0
C446 C 0.521 0.20107 0.71428 0.0
C447 C 0.52306 0.22072 0.70767 0.0
C448 C 0.52446 0.23609 0.72144 0.0
C449 C 0.52105 0.19738 0.73469 0.0
C450 C 0.52245 0.21307 0.74789 0.0
N451 N 0.52349 0.27569 0.77945 0.0
C452 C 0.50531 0.30267 0.79514 0.0
C453 C 0.52289 0.3115 0.80011 0.0
C454 C 0.54078 0.30124 0.79581 0.0
C455 C 0.54074 0.28325 0.78559 0.0
C456 C 0.50593 0.28479 0.78486 0.0
H457 H 0.55468 0.27599 0.78175 0.0
H458 H 0.49218 0.27888 0.78043 0.0
H459 H 0.52567 0.25113 0.71601 0.0
H460 H 0.52208 0.20963 0.76346 0.0
C461 C 0.57078 0.24404 0.75634 0.0
C462 C 0.52742 0.29691 0.73322 0.0
C463 C 0.52003 0.22598 0.80391 0.0
C464 C 0.47683 0.252 0.75286 0.0
H465 H 0.56847 0.30112 0.72018 0.0
H466 H 0.59178 0.27076 0.73108 0.0
H467 H 0.58614 0.21734 0.78599 0.0
H468 H 0.55865 0.20903 0.81294 0.0
H469 H 0.47881 0.21721 0.81091 0.0
H470 H 0.45554 0.2294 0.78186 0.0
H471 H 0.46171 0.28182 0.72591 0.0
H472 H 0.48936 0.30778 0.71683 0.0
H473 H 0.52305 0.22431 0.69203 0.0
H474 H 0.51994 0.18241 0.74051 0.0
H475 H 0.49114 0.3098 0.79865 0.0
H476 H 0.55474 0.30748 0.79943 0.0
C477 C 0.88294 0.52904 0.83801 0.0
C478 C 0.88679 0.50939 0.8434 0.0
C479 C 0.87639 0.49797 0.83093 0.0
C480 C 0.86686 0.51119 0.81855 0.0
N481 N 0.87095 0.53034 0.82204 0.0
Co482 Co 0.85901 0.55426 0.8083 0.0
N483 N 0.8388 0.53816 0.79482 0.0
C484 C 0.83741 0.51818 0.79601 0.0
C485 C 0.82135 0.51114 0.7867 0.0
C486 C 0.8118 0.52761 0.77918 0.0
C487 C 0.82276 0.5439 0.78406 0.0
N488 N 0.84711 0.57821 0.7946 0.0
C489 C 0.8308 0.58034 0.78315 0.0
C490 C 0.82845 0.59973 0.77626 0.0
C491 C 0.84344 0.61021 0.78384 0.0
C492 C 0.85426 0.59672 0.79479 0.0
N493 N 0.87866 0.57033 0.82272 0.0
C494 C 0.88132 0.59004 0.8204 0.0
C495 C 0.89387 0.59764 0.83386 0.0
C496 C 0.89913 0.58198 0.84586 0.0
C497 C 0.8896 0.56554 0.83898 0.0
N498 N 0.87773 0.55031 0.78494 0.0
C499 C 0.89882 0.54788 0.74809 0.0
C500 C 0.89963 0.56462 0.76014 0.0
C501 C 0.88939 0.56537 0.77836 0.0
C502 C 0.88834 0.5318 0.75547 0.0
C503 C 0.87806 0.5333 0.77372 0.0
N504 N 0.84058 0.55843 0.83087 0.0
C505 C 0.82522 0.58046 0.85506 0.0
C506 C 0.81552 0.56468 0.864 0.0
C507 C 0.81856 0.54565 0.85591 0.0
C508 C 0.83118 0.54285 0.83952 0.0
C509 C 0.83735 0.57708 0.83851 0.0
H510 H 0.8332 0.52802 0.83403 0.0
H511 H 0.84412 0.58976 0.83219 0.0
H512 H 0.89105 0.57854 0.78659 0.0
H513 H 0.87021 0.52056 0.77813 0.0
C514 C 0.85101 0.50654 0.80672 0.0
C515 C 0.89047 0.54594 0.84894 0.0
C516 C 0.81726 0.56448 0.77821 0.0
C517 C 0.86985 0.60134 0.80709 0.0
H518 H 0.89558 0.50394 0.8556 0.0
H519 H 0.87482 0.48202 0.83176 0.0
H520 H 0.81685 0.49589 0.78589 0.0
H521 H 0.79814 0.52753 0.77126 0.0
H522 H 0.817 0.60575 0.76682 0.0
H523 H 0.84586 0.62595 0.78199 0.0
H524 H 0.8978 0.613 0.8355 0.0
H525 H 0.90831 0.58282 0.8587 0.0
H526 H 0.90812 0.57723 0.75552 0.0
H527 H 0.88747 0.51831 0.7469 0.0
H528 H 0.82365 0.59543 0.86083 0.0
H529 H 0.81109 0.53295 0.86198 0.0
C530 C 0.18889 0.06948 0.88226 0.0
C531 C 0.18638 0.08921 0.88789 0.0
C532 C 0.19713 0.10009 0.87469 0.0
C533 C 0.20546 0.08645 0.86172 0.0
N534 N 0.20025 0.06763 0.86559 0.0
Co535 Co 0.20959 0.04317 0.85104 0.0
N536 N 0.23067 0.05788 0.83638 0.0
C537 C 0.23415 0.07749 0.83796 0.0
C538 C 0.24937 0.08361 0.82606 0.0
C539 C 0.25599 0.06694 0.81624 0.0
C540 C 0.24437 0.05149 0.8227 0.0
N541 N 0.21839 0.01881 0.83589 0.0
C542 C 0.23251 0.01624 0.82147 0.0
C543 C 0.23271 0.99708 0.81393 0.0
C544 C 0.21797 0.98738 0.82358 0.0
C545 C 0.20965 1.00105 0.83648 0.0
N546 N 0.18943 0.02832 0.86691 0.0
C547 C 0.18516 1.00896 0.86491 0.0
C548 C 0.1729 1.00208 0.87958 0.0
C549 C 0.16963 0.01782 0.89207 0.0
C550 C 0.17994 0.03355 0.88415 0.0
N551 N 0.1905 0.04928 0.82955 0.0
C552 C 0.17086 0.05086 0.79326 0.0
C553 C 0.1659 0.03699 0.80776 0.0
C554 C 0.17556 0.03669 0.82578 0.0
C555 C 0.18401 0.06547 0.79815 0.0
C556 C 0.1934 0.06456 0.81636 0.0
N557 N 0.22832 0.03683 0.87215 0.0
C558 C 0.23963 0.01355 0.89696 0.0
C559 C 0.24837 0.02876 0.90734 0.0
C560 C 0.248 0.04787 0.89893 0.0
C561 C 0.23788 0.05158 0.88146 0.0
C562 C 0.23016 0.01782 0.8793 0.0
H563 H 0.23739 0.06656 0.876 0.0
H564 H 0.22366 1.00566 0.87206 0.0
H565 H 0.171 0.02565 0.83602 0.0
H566 H 0.20346 0.07599 0.81896 0.0
C567 C 0.22152 0.09007 0.84915 0.0
C568 C 0.18137 0.05288 0.8939 0.0
C569 C 0.24587 0.03147 0.81423 0.0
C570 C 0.19449 0.99731 0.85017 0.0
H571 H 0.1784 0.09498 0.90078 0.0
H572 H 0.19983 0.11583 0.87545 0.0
H573 H 0.25454 0.09856 0.82418 0.0
H574 H 0.26759 0.06643 0.80505 0.0
H575 H 0.24243 0.99079 0.80257 0.0
H576 H 0.21392 0.97211 0.82154 0.0
H577 H 0.16783 0.98711 0.88156 0.0
H578 H 0.16122 0.01743 0.90581 0.0
H579 H 0.15502 0.02597 0.805 0.0
H580 H 0.18794 0.07691 0.78758 0.0
H581 H 0.23947 0.99848 0.90263 0.0
H582 H 0.25528 0.06003 0.90583 0.0
C583 C 0.80208 0.23915 0.03668 0.0
C584 C 0.79801 0.22619 0.0215 0.0
C585 C 0.81223 0.22869 1.00711 0.0
C586 C 0.82406 0.24306 0.01422 0.0
N587 N 0.8182 0.24969 0.0322 0.0
Co588 Co 0.83038 0.27092 0.04756 0.0
N589 N 0.8437 0.28138 0.02351 0.0
C590 C 0.84632 0.27182 1.00613 0.0
C591 C 0.85573 0.28293 0.992 0.0
C592 C 0.85959 0.30043 1.00115 0.0
C593 C 0.85241 0.29892 0.0205 0.0
N594 N 0.8425 0.29198 0.06313 0.0
C595 C 0.85194 0.30834 0.05691 0.0
C596 C 0.85885 0.31877 0.0729 0.0
C597 C 0.85379 0.30832 0.08962 0.0
C598 C 0.84411 0.29216 0.08297 0.0
N599 N 0.81679 0.26016 0.07133 0.0
C600 C 0.8214 0.26334 0.09027 0.0
C601 C 0.80875 0.25436 0.10343 0.0
C602 C 0.79538 0.24503 0.09199 0.0
C603 C 0.80063 0.24892 0.07246 0.0
N604 N 0.85402 0.2532 0.05261 0.0
C605 C 0.88898 0.23023 0.06144 0.0
C606 C 0.87005 0.22225 0.06361 0.0
C607 C 0.85286 0.2339 0.05906 0.0
C608 C 0.88965 0.24996 0.05471 0.0
C609 C 0.87234 0.26094 0.05042 0.0
N610 N 0.80739 0.28934 0.04275 0.0
C611 C 0.785 0.31562 0.05487 0.0
C612 C 0.77872 0.32043 0.03565 0.0
C613 C 0.78662 0.30841 0.02019 0.0
C614 C 0.80072 0.293 0.02403 0.0
C615 C 0.7992 0.30026 0.05805 0.0
H616 H 0.80669 0.28447 0.0117 0.0
H617 H 0.80395 0.29765 0.07298 0.0
H618 H 0.83863 0.22734 0.06092 0.0
H619 H 0.87397 0.276 0.04561 0.0
C620 C 0.83755 0.25367 1.00286 0.0
C621 C 0.79072 0.24099 0.05528 0.0
C622 C 0.85726 0.31277 0.0362 0.0
C623 C 0.83461 0.2781 0.09486 0.0
H624 H 0.78588 0.21626 0.02064 0.0
H625 H 0.81304 0.2218 0.99267 0.0
H626 H 0.85912 0.27893 0.97679 0.0
H627 H 0.86749 0.3126 0.99459 0.0
H628 H 0.86724 0.33216 0.07249 0.0
H629 H 0.85668 0.31217 0.10479 0.0
H630 H 0.80857 0.25539 0.11941 0.0
H631 H 0.78311 0.23651 0.09733 0.0
H632 H 0.86848 0.20707 0.06862 0.0
H633 H 0.90354 0.25729 0.05313 0.0
H634 H 0.77914 0.32375 0.06757 0.0
H635 H 0.78251 0.31124 1.00502 0.0
C636 C 0.08734 0.07148 0.15594 0.0
Eu637 Eu 0.10434 0.09914 0.13488 0.0
C638 C 0.08594 0.0496 0.15796 0.0
C639 C 0.08014 0.0377 0.1422 0.0
C640 C 0.07715 0.01735 0.14509 0.0
C641 C 0.07993 1.00844 0.16377 0.0
C642 C 0.08617 0.02033 0.17937 0.0
C643 C 0.08908 0.04065 0.17649 0.0
C644 C 0.11806 0.09117 0.09711 0.0
C645 C 0.15043 0.10195 0.14664 0.0
C646 C 0.14687 0.15387 0.09292 0.0
Eu647 Eu 0.12727 0.131 0.11702 0.0
C648 C 0.15135 0.17389 0.08554 0.0
C649 C 0.15175 0.19018 0.09843 0.0
C650 C 0.16137 0.20742 0.09268 0.0
C651 C 0.17081 0.20864 0.07398 0.0
C652 C 0.16888 0.19293 0.06058 0.0
C653 C 0.15925 0.17572 0.06634 0.0
C654 C 0.11437 0.14044 0.15434 0.0
C655 C 0.07883 0.13371 0.1134 0.0
O656 O 0.10386 0.07937 0.16079 0.0
O657 O 0.07954 0.08002 0.14043 0.0
O658 O 0.10108 0.0862 0.10401 0.0
O659 O 0.1275 0.09896 0.11068 0.0
O660 O 0.13264 0.09717 0.15292 0.0
O661 O 0.15235 0.11205 0.12993 0.0
O662 O 0.13072 0.14535 0.08776 0.0
O663 O 0.15189 0.1497 0.11104 0.0
O664 O 0.13066 0.14628 0.14632 0.0
O665 O 0.10467 0.13145 0.14168 0.0
O666 O 0.09597 0.13874 0.10518 0.0
O667 O 0.07875 0.12059 0.12807 0.0
H668 H 0.07761 0.04414 0.12771 0.0
H669 H 0.07261 1.00861 0.13268 0.0
H670 H 0.08823 0.01407 0.19401 0.0
H671 H 0.09337 0.04952 0.18893 0.0
H672 H 0.14576 0.18909 0.11336 0.0
H673 H 0.16225 0.21941 0.10322 0.0
H674 H 0.17605 0.19324 0.04613 0.0
H675 H 0.15929 0.16325 0.05625 0.0
C676 C 0.9269 0.50014 0.09069 0.0
Eu677 Eu 0.96453 0.4935 0.08307 0.0
C678 C 0.91299 0.50246 0.10768 0.0
C679 C 0.91951 0.50329 0.12725 0.0
C680 C 0.90585 0.50478 0.14311 0.0
C681 C 0.88541 0.50534 0.13971 0.0
C682 C 0.87908 0.50467 0.12001 0.0
C683 C 0.89271 0.50323 0.10423 0.0
C684 C 0.98759 0.46994 0.10723 0.0
C685 C 0.99184 0.52944 0.0973 0.0
C686 C 0.04628 0.48335 0.07236 0.0
Eu687 Eu 0.00848 0.49205 0.07123 0.0
C688 C 0.06552 0.47631 0.06343 0.0
C689 C 0.07878 0.48998 0.05542 0.0
C690 C 0.09827 0.48403 0.05048 0.0
C691 C 0.10512 0.46427 0.05358 0.0
C692 C 0.0916 0.45045 0.06088 0.0
C693 C 0.07212 0.4564 0.06578 0.0
C694 C 0.98748 0.50752 0.03927 0.0
C695 C 0.98009 0.46105 0.0525 0.0
O696 O 0.93936 0.51428 0.08753 0.0
O697 O 0.93502 0.48244 0.08811 0.0
O698 O 0.97011 0.46591 0.1016 0.0
O699 O 0.99216 0.48676 0.10015 0.0
O700 O 0.97394 0.52247 0.09625 0.0
O701 O 0.00742 0.51999 0.08947 0.0
O702 O 0.03266 0.47048 0.07641 0.0
O703 O 0.03897 0.50104 0.06774 0.0
O704 O 1.00652 0.50503 0.03968 0.0
O705 O 0.98077 0.50213 0.05601 0.0
O706 O 0.99757 0.46277 0.0604 0.0
O707 O 0.96566 0.47426 0.05607 0.0
H708 H 0.93513 0.50259 0.13024 0.0
H709 H 0.91129 0.50509 0.15805 0.0
H710 H 0.86353 0.50541 0.11673 0.0
H711 H 0.88736 0.50262 0.08925 0.0
H712 H 0.07438 0.50552 0.05374 0.0
H713 H 0.10822 0.49518 0.04511 0.0
H714 H 0.09618 0.43505 0.06319 0.0
H715 H 0.06245 0.4455 0.07215 0.0
C716 C 0.12352 0.03493 0.5241 0.0
Eu717 Eu 0.11087 0.01939 0.49162 0.0
C718 C 0.12382 0.03221 0.54583 0.0
C719 C 0.1095 0.04203 0.55788 0.0
C720 C 0.111 0.04164 0.57844 0.0
C721 C 0.12694 0.03155 0.58745 0.0
C722 C 0.14092 0.02117 0.57546 0.0
C723 C 0.13943 0.02156 0.55485 0.0
C724 C 0.07561 1.00058 0.49065 0.0
C725 C 0.1296 0.97417 0.48528 0.0
C726 C 0.08706 0.98172 0.4251 0.0
Eu727 Eu 0.10376 0.99944 0.45403 0.0
C728 C 0.07848 0.98007 0.40535 0.0
C729 C 0.09027 0.98132 0.3881 0.0
C730 C 0.08373 0.97381 0.37023 0.0
C731 C 0.06535 0.96485 0.36937 0.0
C732 C 0.05284 0.96548 0.38619 0.0
C733 C 0.05938 0.97298 0.40402 0.0
C734 C 0.13998 0.01436 0.45536 0.0
C735 C 0.09468 0.04811 0.45655 0.0
O736 O 0.13415 0.02256 0.51309 0.0
O737 O 0.10662 0.03985 0.51623 0.0
O738 O 0.07794 0.01758 0.49893 0.0
O739 O 0.09198 0.99402 0.48409 0.0
O740 O 0.13066 0.9912 0.49493 0.0
O741 O 0.11747 0.97281 0.4703 0.0
O742 O 0.07692 0.99023 0.43963 0.0
O743 O 0.10613 0.98331 0.42643 0.0
O744 O 0.13608 0.99799 0.44641 0.0
O745 O 0.12441 0.02305 0.46184 0.0
O746 O 0.09113 0.03134 0.44704 0.0
O747 O 0.10451 0.0472 0.47324 0.0
H748 H 0.09739 0.05052 0.55142 0.0
H749 H 0.09985 0.04956 0.58729 0.0
H750 H 0.15349 0.01343 0.58194 0.0
H751 H 0.15085 0.01406 0.54598 0.0
H752 H 0.10507 0.98677 0.38867 0.0
H753 H 0.09357 0.97383 0.35742 0.0
H754 H 0.03866 0.95858 0.38612 0.0
H755 H 0.05008 0.9717 0.41716 0.0
C756 C 0.04883 0.58652 0.53549 0.0
Eu757 Eu 0.02148 0.56713 0.51808 0.0
C758 C 0.06871 0.59475 0.53364 0.0
C759 C 0.08151 0.59255 0.54959 0.0
C760 C 0.09937 0.60229 0.54958 0.0
C761 C 0.10487 0.61454 0.53359 0.0
C762 C 0.09228 0.61621 0.51729 0.0
C763 C 0.07437 0.60642 0.51732 0.0
C764 C 0.02692 0.53162 0.49848 0.0
C765 C 0.00954 0.57445 0.47322 0.0
C766 C 0.96109 0.51992 0.49036 0.0
Eu767 Eu 0.9835 0.54741 0.50305 0.0
C768 C 0.94038 0.51495 0.492 0.0
C769 C 0.92837 0.52218 0.50768 0.0
C770 C 0.90831 0.51828 0.50828 0.0
C771 C 0.90002 0.50725 0.49311 0.0
C772 C 0.91237 0.49952 0.47783 0.0
C773 C 0.93239 0.50332 0.47733 0.0
C774 C 0.97418 0.58608 0.5121 0.0
C775 C 0.9876 0.5515 0.55021 0.0
O776 O 0.03471 0.59507 0.52521 0.0
O777 O 0.04738 0.56717 0.5369 0.0
O778 O 0.03914 0.54603 0.49733 0.0
O779 O 0.01329 0.5363 0.51074 0.0
O780 O 0.01815 0.58226 0.4886 0.0
O781 O 0.99865 0.55848 0.47493 0.0
O782 O 0.97106 0.51835 0.50669 0.0
O783 O 0.96493 0.53597 0.48011 0.0
O784 O 0.96152 0.5736 0.50579 0.0
O785 O 0.99074 0.5771 0.51368 0.0
O786 O 0.97698 0.54477 0.53569 0.0
O787 O 1.00467 0.56015 0.54694 0.0
H788 H 0.07736 0.5838 0.56243 0.0
H789 H 0.10849 0.60083 0.5625 0.0
H790 H 0.09615 0.62526 0.5046 0.0
H791 H 0.06477 0.60839 0.5048 0.0
H792 H 0.93441 0.5312 0.51917 0.0
H793 H 0.89921 0.52434 0.52028 0.0
H794 H 0.90646 0.49138 0.46564 0.0
H795 H 0.94153 0.49768 0.46514 0.0
C796 C 0.42072 1.00589 0.59479 0.0
Eu797 Eu 0.45743 0.99482 0.5865 0.0
C798 C 0.40717 1.00762 0.61223 0.0
C799 C 0.4121 0.9991 0.63057 0.0
C800 C 0.39889 1.00058 0.6468 0.0
C801 C 0.38041 0.01063 0.6451 0.0
C802 C 0.37563 0.01918 0.62664 0.0
C803 C 0.38885 0.01768 0.61044 0.0
C804 C 0.47864 0.97123 0.61244 0.0
C805 C 0.48857 0.02874 0.59602 0.0
C806 C 0.53842 0.97622 0.57441 0.0
Eu807 Eu 0.5011 0.98754 0.57386 0.0
C808 C 0.55761 0.96838 0.56578 0.0
C809 C 0.57112 0.98132 0.55692 0.0
C810 C 0.59048 0.97473 0.55205 0.0
C811 C 0.59702 0.95501 0.55601 0.0
C812 C 0.58327 0.94193 0.56429 0.0
C813 C 0.56391 0.94852 0.56915 0.0
C814 C 0.48071 1.00258 0.54116 0.0
C815 C 0.46889 0.95791 0.55977 0.0
O816 O 0.43521 0.01818 0.59377 0.0
O817 O 0.42631 0.98791 0.58941 0.0
O818 O 0.46035 0.96933 0.60819 0.0
O819 O 0.48497 0.98642 0.60338 0.0
O820 O 0.46992 0.02444 0.59403 0.0
O821 O 0.50309 0.01619 0.59079 0.0
O822 O 0.52403 0.96419 0.57836 0.0
O823 O 0.53215 0.99434 0.57003 0.0
O824 O 0.4994 0.99787 0.54136 0.0
O825 O 0.47396 0.99936 0.55846 0.0
O826 O 0.48673 0.95863 0.56713 0.0
O827 O 0.45604 0.97298 0.56172 0.0
H828 H 0.42614 0.99119 0.6323 0.0
H829 H 0.40307 0.99355 0.66062 0.0
H830 H 0.36175 0.02729 0.62472 0.0
H831 H 0.38472 0.02439 0.59645 0.0
H832 H 0.56701 0.99682 0.55444 0.0
H833 H 0.60055 0.98539 0.54595 0.0
H834 H 0.58753 0.92657 0.56731 0.0
H835 H 0.55408 0.93818 0.57621 0.0
C836 C 0.57855 0.56312 0.67767 0.0
Eu837 Eu 0.59014 0.59233 0.65497 0.0
C838 C 0.56841 0.54402 0.67964 0.0
C839 C 0.56733 0.53074 0.66375 0.0
C840 C 0.56099 0.51128 0.66693 0.0
C841 C 0.55575 0.50458 0.6861 0.0
C842 C 0.5562 0.51829 0.70178 0.0
C843 C 0.56241 0.53772 0.69856 0.0
C844 C 0.59908 0.58562 0.6159 0.0
C845 C 0.63598 0.6008 0.66594 0.0
C846 C 0.63255 0.64731 0.61187 0.0
Eu847 Eu 0.60974 0.62567 0.63386 0.0
C848 C 0.63872 0.66541 0.60126 0.0
C849 C 0.6422 0.68301 0.61154 0.0
C850 C 0.65287 0.69815 0.60251 0.0
C851 C 0.66029 0.69597 0.58303 0.0
C852 C 0.65544 0.679 0.57231 0.0
C853 C 0.64483 0.66386 0.58136 0.0
C854 C 0.58841 0.63821 0.66595 0.0
C855 C 0.56235 0.6227 0.62997 0.0
O856 O 0.59499 0.56281 0.66728 0.0
O857 O 0.56827 0.57988 0.67577 0.0
O858 O 0.58299 0.58022 0.62459 0.0
O859 O 0.60989 0.59358 0.62825 0.0
O860 O 0.61968 0.59161 0.6709 0.0
O861 O 0.63603 0.61376 0.65121 0.0
O862 O 0.61979 0.63543 0.60428 0.0
O863 O 0.63233 0.6474 0.63123 0.0
O864 O 0.59014 0.64819 0.64957 0.0
O865 O 0.59892 0.62228 0.66525 0.0
O866 O 0.57892 0.62749 0.62049 0.0
O867 O 0.56303 0.61114 0.64598 0.0
H868 H 0.57202 0.53519 0.64901 0.0
H869 H 0.56053 0.50139 0.65438 0.0
H870 H 0.55263 0.5138 0.71679 0.0
H871 H 0.56342 0.54756 0.71111 0.0
H872 H 0.63778 0.68462 0.62695 0.0
H873 H 0.65639 0.71093 0.61127 0.0
H874 H 0.66059 0.67701 0.55715 0.0
H875 H 0.64245 0.65039 0.57314 0.0
C876 C 0.63377 0.54865 0.04014 0.0
Eu877 Eu 0.62191 0.53465 1.00663 0.0
C878 C 0.63473 0.5443 0.06158 0.0
C879 C 0.61774 0.54529 0.07382 0.0
C880 C 0.61927 0.54354 0.09436 0.0
C881 C 0.6378 0.54077 0.10309 0.0
C882 C 0.65469 0.53913 0.09078 0.0
C883 C 0.65317 0.54096 0.07025 0.0
C884 C 0.58629 0.51718 1.00268 0.0
C885 C 0.64214 0.49002 0.99772 0.0
C886 C 0.603 0.50155 0.93561 0.0
Eu887 Eu 0.61652 0.517 0.96756 0.0
C888 C 0.58595 0.50078 0.92265 0.0
C889 C 0.58945 0.49888 0.90226 0.0
C890 C 0.57463 0.49254 0.89004 0.0
C891 C 0.55606 0.48791 0.89807 0.0
C892 C 0.552 0.49184 0.9182 0.0
C893 C 0.56685 0.49823 0.93043 0.0
C894 C 0.65266 0.53159 0.97205 0.0
C895 C 0.60458 0.56403 0.9733 0.0
O896 O 0.64507 0.53783 0.02824 0.0
O897 O 0.61649 0.55293 0.03275 0.0
O898 O 0.58869 0.53343 0.01233 0.0
O899 O 0.60276 0.51047 0.99654 0.0
O900 O 0.64056 0.50551 0.00983 0.0
O901 O 0.63282 0.49029 0.98074 0.0
O902 O 0.60092 0.49381 0.95328 0.0
O903 O 0.61351 0.51748 0.9353 0.0
O904 O 0.64932 0.51561 0.96222 0.0
O905 O 0.63674 0.54 0.97784 0.0
O906 O 0.59962 0.54731 0.96459 0.0
O907 O 0.61622 0.56296 0.98876 0.0
H908 H 0.6033 0.5479 0.06762 0.0
H909 H 0.60596 0.54462 0.10344 0.0
H910 H 0.66919 0.53724 0.09704 0.0
H911 H 0.66652 0.54038 0.06119 0.0
H912 H 0.60409 0.50074 0.89602 0.0
H913 H 0.57836 0.48953 0.87467 0.0
H914 H 0.53775 0.48868 0.92475 0.0
H915 H 0.56377 0.49976 0.94615 0.0
C916 C 0.56418 0.09596 0.03163 0.0
Eu917 Eu 0.53163 0.0816 0.01868 0.0
C918 C 0.57862 0.11207 0.03153 0.0
C919 C 0.59706 0.10864 0.02213 0.0
C920 C 0.61212 0.12211 0.02397 0.0
C921 C 0.60925 0.13949 0.0353 0.0
C922 C 0.59059 0.14322 0.04433 0.0
C923 C 0.57547 0.12962 0.04253 0.0
C924 C 0.52968 0.04326 1.00344 0.0
C925 C 0.51832 0.09549 0.97454 0.0
C926 C 0.45736 0.05855 0.99044 0.0
Eu927 Eu 0.4888 0.07288 1.00496 0.0
C928 C 0.43826 0.05301 0.99892 0.0
C929 C 0.42854 0.06464 0.01358 0.0
C930 C 0.41031 0.05906 0.02135 0.0
C931 C 0.40176 0.04161 0.01481 0.0
C932 C 0.41192 0.02969 1.00065 0.0
C933 C 0.42999 0.03538 0.99276 0.0
C934 C 0.49223 0.10825 0.02383 0.0
C935 C 0.49869 0.06563 0.05095 0.0
O936 O 0.54712 0.09841 0.04095 0.0
O937 O 0.56317 0.08526 0.01558 0.0
O938 O 0.54538 0.05041 0.01073 0.0
O939 O 0.51651 0.05652 1.00588 0.0
O940 O 0.53016 0.09859 0.98953 0.0
O941 O 0.503 0.08386 0.97636 0.0
O942 O 0.47243 0.04735 0.99602 0.0
O943 O 0.461 0.07758 0.98996 0.0
O944 O 0.47718 0.0969 0.02562 0.0
O945 O 0.50471 0.10048 0.01175 0.0
O946 O 0.48756 0.06045 0.03609 0.0
O947 O 0.51544 0.07498 0.04795 0.0
H948 H 0.60013 0.09507 0.0139 0.0
H949 H 0.6263 0.11841 0.01712 0.0
H950 H 0.58771 0.15653 0.05298 0.0
H951 H 0.56151 0.13264 0.05014 0.0
H952 H 0.43489 0.07814 0.01884 0.0
H953 H 0.40272 0.06852 0.03217 0.0
H954 H 0.40548 0.0164 0.99498 0.0
H955 H 0.43739 0.02614 0.98162 0.0
H956 H 0.03592 0.22968 0.40664 0.0
H957 H 0.04185 0.19564 0.41861 0.0
H958 H 0.09475 0.19071 0.38253 0.0
H959 H 0.08897 0.22472 0.37053 0.0
H960 H 0.04375 0.15996 0.40176 0.0
H961 H 0.11674 0.17144 0.43372 0.0
H962 H 0.10112 0.19188 0.42537 0.0
H963 H 0.11611 0.17765 0.40791 0.0
C964 C 0.04884 0.22146 0.40113 0.0
C965 C 0.06198 0.23045 0.38758 0.0
C966 C 0.05227 0.2018 0.40811 0.0
C967 C 0.069 0.19031 0.40191 0.0
C968 C 0.08201 0.19914 0.38819 0.0
H969 H 0.08011 0.05837 0.41937 0.0
H970 H 0.07381 0.09185 0.40556 0.0
C971 C 0.07864 0.21881 0.38126 0.0
C972 C 0.07261 0.16916 0.40954 0.0
H973 H 0.10695 0.13799 0.43157 0.0
C974 C 0.0576 0.15525 0.40829 0.0
C975 C 0.09053 0.16264 0.41842 0.0
C976 C 0.10697 0.17672 0.42165 0.0
C977 C 0.06001 0.13538 0.41533 0.0
C978 C 0.07815 0.1287 0.42366 0.0
C979 C 0.09308 0.14268 0.42506 0.0
C980 C 0.08172 0.10776 0.43188 0.0
C981 C 0.04274 0.12194 0.4143 0.0
C982 C 0.08878 0.10497 0.45119 0.0
C983 C 0.09259 0.08579 0.45903 0.0
C984 C 0.08955 0.06847 0.44792 0.0
C985 C 0.08246 0.07117 0.42857 0.0
C986 C 0.07872 0.09047 0.42065 0.0
H987 H 0.02859 0.1306 0.41306 0.0
H988 H 0.04451 0.1124 0.40101 0.0
H989 H 0.04184 0.11218 0.42756 0.0
H990 H 0.09133 0.11774 0.46037 0.0
H991 H 0.09805 0.0846 0.47395 0.0
H992 H 0.02001 0.38562 0.37034 0.0
H993 H 0.01638 0.41557 0.39081 0.0
H994 H 0.057 0.38952 0.43265 0.0
H995 H 0.05944 0.35906 0.41287 0.0
H996 H 0.03059 0.40785 0.45262 0.0
H997 H 0.05079 0.46097 0.39367 0.0
H998 H 0.02942 0.44771 0.38729 0.0
H999 H 0.05276 0.43446 0.39005 0.0
C1000 C 0.02813 0.3863 0.38394 0.0
C1001 C 0.04032 0.37002 0.38973 0.0
C1002 C 0.02627 0.40361 0.39558 0.0
C1003 C 0.03691 0.40542 0.41316 0.0
C1004 C 0.04873 0.38889 0.41915 0.0
H1005 H 0.05476 0.5209 0.47012 0.0
H1006 H 0.05723 0.49046 0.45032 0.0
C1007 C 0.05026 0.37144 0.40772 0.0
C1008 C 0.03546 0.42415 0.42556 0.0
H1009 H 0.03736 0.47507 0.42344 0.0
C1010 C 0.0322 0.42251 0.44615 0.0
C1011 C 0.03786 0.44352 0.41751 0.0
C1012 C 0.04312 0.44678 0.39597 0.0
C1013 C 0.03117 0.43931 0.45869 0.0
C1014 C 0.03257 0.45875 0.45051 0.0
C1015 C 0.03599 0.46039 0.42993 0.0
C1016 C 0.03104 0.47746 0.46293 0.0
C1017 C 0.0293 0.43579 0.48071 0.0
C1018 C 0.01546 0.48082 0.47676 0.0
C1019 C 0.01436 0.49808 0.4885 0.0
C1020 C 0.02834 0.51295 0.48634 0.0
C1021 C 0.04369 0.50983 0.47226 0.0
C1022 C 0.04505 0.49237 0.4608 0.0
H1023 H 0.03522 0.42077 0.48488 0.0
H1024 H 0.03723 0.44702 0.48916 0.0
H1025 H 0.01349 0.4366 0.4852 0.0
H1026 H 1.00401 0.47013 0.47849 0.0
H1027 H 1.00257 0.4997 0.49935 0.0
H1028 H 0.06722 0.82624 0.2206 0.0
H1029 H 0.07392 0.86069 0.21193 0.0
H1030 H 0.02178 0.86408 0.17657 0.0
H1031 H 0.015 0.82946 0.18507 0.0
H1032 H 0.08033 0.87769 0.17466 0.0
H1033 H 0.0148 0.9129 0.21246 0.0
H1034 H 0.0229 0.8875 0.2172 0.0
H1035 H 0.00938 0.89364 0.19528 0.0
C1036 C 0.05726 0.8342 0.21079 0.0
C1037 C 0.04061 0.82498 0.20343 0.0
C1038 C 0.06106 0.85397 0.20596 0.0
C1039 C 0.04826 0.86507 0.19378 0.0
C1040 C 0.03167 0.85594 0.1863 0.0
H1041 H 0.04922 0.98738 0.14987 0.0
H1042 H 0.04194 0.95249 0.15629 0.0
C1043 C 0.02783 0.83612 0.19115 0.0
C1044 C 0.05257 0.88607 0.18868 0.0
H1045 H 0.03465 0.93401 0.19298 0.0
C1046 C 0.07035 0.89001 0.17869 0.0
C1047 C 0.03956 0.90215 0.19395 0.0
C1048 C 0.02066 0.89894 0.20547 0.0
C1049 C 0.07538 0.90953 0.17363 0.0
C1050 C 0.06241 0.92562 0.17897 0.0
C1051 C 0.04456 0.92168 0.18885 0.0
C1052 C 0.06721 0.94667 0.17467 0.0
C1053 C 0.09439 0.91272 0.1623 0.0
C1054 C 0.0838 0.95506 0.18295 0.0
C1055 C 0.08806 0.97498 0.17923 0.0
C1056 C 0.07579 0.987 0.1672 0.0
C1057 C 0.05917 0.97851 0.15894 0.0
C1058 C 0.0549 0.9586 0.16271 0.0
H1059 H 0.09995 0.8989 0.15484 0.0
H1060 H 0.09247 0.92463 0.15099 0.0
H1061 H 0.10576 0.91732 0.17274 0.0
H1062 H 0.09334 0.94627 0.19249 0.0
H1063 H 0.10103 0.98096 0.18574 0.0
H1064 H 0.03059 0.70144 0.16975 0.0
H1065 H 0.0254 0.6713 0.15035 0.0
H1066 H 1.00112 0.64282 0.20228 0.0
H1067 H 1.00657 0.67287 0.22167 0.0
H1068 H 0.02847 0.61868 0.18144 0.0
H1069 H 0.97235 0.65195 0.1314 0.0
H1070 H 0.99492 0.66508 0.13204 0.0
H1071 H 0.97947 0.6639 0.15389 0.0
C1072 C 0.02418 0.68868 0.17692 0.0
C1073 C 0.01899 0.68929 0.1971 0.0
C1074 C 0.0211 0.67157 0.16586 0.0
C1075 C 0.01263 0.65491 0.17481 0.0
C1076 C 0.00761 0.65552 0.19506 0.0
H1077 H 0.96401 0.55268 0.11718 0.0
H1078 H 0.96919 0.58294 0.13607 0.0
C1079 C 0.01069 0.67262 0.2061 0.0
C1080 C 0.00925 0.6367 0.1632 0.0
H1081 H 0.98432 0.61924 0.12383 0.0
C1082 C 0.01881 0.61878 0.16886 0.0
C1083 C 0.99643 0.63682 0.14694 0.0
C1084 C 0.98504 0.65541 0.14077 0.0
C1085 C 0.0161 0.60104 0.15854 0.0
C1086 C 1.00372 0.60127 0.14194 0.0
C1087 C 0.99394 0.61913 0.13645 0.0
C1088 C 1.00061 0.5831 0.13018 0.0
C1089 C 0.02626 0.58212 0.16573 0.0
C1090 C 0.0165 0.57332 0.12032 0.0
C1091 C 0.01361 0.55602 0.10953 0.0
C1092 C 0.99472 0.54817 0.10826 0.0
C1093 C 0.97876 0.55824 0.11786 0.0
C1094 C 0.98168 0.57556 0.12866 0.0
H1095 H 0.03091 0.58337 0.18133 0.0
H1096 H 0.0165 0.56929 0.16458 0.0
H1097 H 0.03965 0.57898 0.15644 0.0
H1098 H 0.03116 0.5791 0.12094 0.0
H1099 H 0.02624 0.54878 0.10224 0.0
H1100 H 0.4396 0.07188 0.23634 0.0
H1101 H 0.4558 0.07399 0.2037 0.0
H1102 H 0.41221 0.03651 0.17945 0.0
H1103 H 0.39565 0.03473 0.21183 0.0
H1104 H 0.47248 0.04444 0.17913 0.0
H1105 H 0.41069 0.08353 0.14118 0.0
H1106 H 0.41166 0.08141 0.16778 0.0
H1107 H 0.40389 0.06087 0.15327 0.0
C1108 C 0.4333 0.06421 0.22406 0.0
C1109 C 0.41616 0.05318 0.22692 0.0
C1110 C 0.4427 0.06534 0.20535 0.0
C1111 C 0.43514 0.05568 0.18887 0.0
C1112 C 0.41822 0.04444 0.19172 0.0
H1113 H 0.46589 0.04562 0.06309 0.0
H1114 H 0.45163 0.04293 0.09643 0.0
C1115 C 0.40887 0.04323 0.21042 0.0
C1116 C 0.44503 0.05714 0.16882 0.0
H1117 H 0.43717 0.07131 0.12075 0.0
C1118 C 0.46477 0.05043 0.1664 0.0
C1119 C 0.4351 0.06492 0.15206 0.0
C1120 C 0.41423 0.07328 0.15366 0.0
C1121 C 0.4746 0.05076 0.14776 0.0
C1122 C 0.46463 0.05846 0.13096 0.0
C1123 C 0.44492 0.06532 0.13346 0.0
C1124 C 0.47417 0.05939 0.11067 0.0
C1125 C 0.4954 0.04225 0.14618 0.0
C1126 C 0.49175 0.0695 0.10723 0.0
C1127 C 0.50011 0.07092 0.08806 0.0
C1128 C 0.49102 0.06245 0.07169 0.0
C1129 C 0.47348 0.05225 0.07521 0.0
C1130 C 0.4652 0.05077 0.09437 0.0
H1131 H 0.49877 0.03183 0.15858 0.0
H1132 H 0.498 0.03423 0.13201 0.0
H1133 H 0.50584 0.05455 0.14682 0.0
H1134 H 0.49881 0.07677 0.11931 0.0
H1135 H 0.51343 0.07915 0.08601 0.0
H1136 H 0.62739 0.54603 0.29386 0.0
H1137 H 0.62329 0.5447 0.25784 0.0
H1138 H 0.68606 0.54947 0.24912 0.0
H1139 H 0.69012 0.55078 0.2851 0.0
H1140 H 0.66315 0.57432 0.22401 0.0
H1141 H 0.63938 0.49613 0.22317 0.0
H1142 H 0.62541 0.51219 0.23978 0.0
H1143 H 0.65104 0.50682 0.2442 0.0
C1144 C 0.64025 0.54673 0.28417 0.0
C1145 C 0.65907 0.54822 0.29205 0.0
C1146 C 0.63793 0.54593 0.26369 0.0
C1147 C 0.65443 0.54661 0.25087 0.0
C1148 C 0.67318 0.54879 0.25878 0.0
H1149 H 0.66123 0.51624 0.12588 0.0
H1150 H 0.6656 0.51771 0.16175 0.0
C1151 C 0.67548 0.54957 0.27925 0.0
C1152 C 0.65214 0.54507 0.2292 0.0
H1153 H 0.6371 0.51418 0.19296 0.0
C1154 C 0.65748 0.56117 0.21719 0.0
C1155 C 0.64505 0.52776 0.22036 0.0
C1156 C 0.64005 0.50964 0.23248 0.0
C1157 C 0.65551 0.5606 0.19657 0.0
C1158 C 0.64777 0.54356 0.18781 0.0
C1159 C 0.64283 0.52729 0.19977 0.0
C1160 C 0.64473 0.54237 0.16622 0.0
C1161 C 0.66196 0.57811 0.18431 0.0
C1162 C 0.63128 0.5555 0.15697 0.0
C1163 C 0.62877 0.55472 0.13653 0.0
C1164 C 0.63964 0.54074 0.12496 0.0
C1165 C 0.65281 0.52732 0.13436 0.0
C1166 C 0.65526 0.52808 0.15483 0.0
H1167 H 0.67193 0.58768 0.19258 0.0
H1168 H 0.66962 0.57306 0.17047 0.0
H1169 H 0.64879 0.58732 0.18017 0.0
H1170 H 0.6228 0.56645 0.16556 0.0
H1171 H 0.61866 0.56539 0.12974 0.0
H1172 H 0.37361 0.05235 0.38396 0.0
H1173 H 0.38701 0.04626 0.41719 0.0
H1174 H 0.43988 0.02004 0.39072 0.0
H1175 H 0.42649 0.02617 0.35762 0.0
H1176 H 0.39955 0.01108 0.43726 0.0
H1177 H 0.46251 0.06054 0.42797 0.0
H1178 H 0.4421 0.06115 0.41127 0.0
H1179 H 0.46132 0.04219 0.40889 0.0
C1180 C 0.38812 0.04532 0.38524 0.0
C1181 C 0.39891 0.03976 0.36797 0.0
C1182 C 0.3958 0.04176 0.40434 0.0
C1183 C 0.41471 0.03282 0.40687 0.0
C1184 C 0.42545 0.02724 0.38954 0.0
H1185 H 0.49485 1.00194 0.50313 0.0
H1186 H 0.47789 1.00893 0.47229 0.0
C1187 C 0.41771 0.03066 0.37048 0.0
C1188 C 0.42322 0.02934 0.4274 0.0
H1189 H 0.46279 0.03948 0.45617 0.0
C1190 C 0.41334 0.0174 0.4414 0.0
C1191 C 0.44122 0.03749 0.43323 0.0
C1192 C 0.45235 0.05121 0.41966 0.0
C1193 C 0.42121 0.01281 0.46034 0.0
C1194 C 0.43941 0.02078 0.4661 0.0
C1195 C 0.44899 0.03309 0.45217 0.0
C1196 C 0.44937 0.016 0.48581 0.0
C1197 C 0.41021 0.99871 0.47361 0.0
C1198 C 0.43944 0.01751 0.50443 0.0
C1199 C 0.44926 0.01314 0.52242 0.0
C1200 C 0.46947 1.0075 0.52246 0.0
C1201 C 0.47935 1.00627 0.50392 0.0
C1202 C 0.46956 0.01035 0.48607 0.0
H1203 H 0.4002 0.98942 0.46507 0.0
H1204 H 0.4205 0.9887 0.48186 0.0
H1205 H 0.40102 1.00744 0.48444 0.0
H1206 H 0.42411 0.02238 0.50519 0.0
H1207 H 0.44107 0.01438 0.53629 0.0
H1208 H 0.62196 0.54544 0.42741 0.0
H1209 H 0.60895 0.55282 0.46092 0.0
H1210 H 0.66342 0.58002 0.47514 0.0
H1211 H 0.67618 0.57325 0.44183 0.0
H1212 H 0.62417 0.53912 0.49638 0.0
H1213 H 0.62351 0.62139 0.4953 0.0
H1214 H 0.62585 0.60678 0.473 0.0
H1215 H 0.64701 0.61054 0.488 0.0
C1216 C 0.63096 0.55337 0.43757 0.0
C1217 C 0.65015 0.55866 0.43192 0.0
C1218 C 0.62357 0.55746 0.45676 0.0
C1219 C 0.6351 0.5672 0.47057 0.0
C1220 C 0.65405 0.57286 0.46475 0.0
H1221 H 0.63292 0.59519 0.59581 0.0
H1222 H 0.64068 0.59062 0.56047 0.0
C1223 C 0.66142 0.56876 0.44569 0.0
C1224 C 0.628 0.57039 0.49142 0.0
H1225 H 0.6216 0.60592 0.52726 0.0
C1226 C 0.62334 0.55376 0.50306 0.0
C1227 C 0.62704 0.58948 0.50025 0.0
C1228 C 0.63093 0.60808 0.48844 0.0
C1229 C 0.61844 0.55558 0.52334 0.0
C1230 C 0.61783 0.57463 0.53224 0.0
C1231 C 0.62216 0.5913 0.52053 0.0
C1232 C 0.61294 0.57754 0.55371 0.0
C1233 C 0.61469 0.53698 0.53521 0.0
C1234 C 0.59466 0.572 0.56171 0.0
C1235 C 0.59022 0.5746 0.5819 0.0
C1236 C 0.6039 0.58291 0.59452 0.0
C1237 C 0.62209 0.58871 0.58648 0.0
C1238 C 0.62653 0.58611 0.56627 0.0
H1239 H 0.62068 0.52341 0.52758 0.0
H1240 H 0.62134 0.53773 0.55005 0.0
H1241 H 0.59857 0.53544 0.53729 0.0
H1242 H 0.58375 0.56577 0.5523 0.0
H1243 H 0.57601 0.57014 0.58761 0.0
H1244 H 0.29117 0.43284 1.00725 0.0
H1245 H 0.25631 0.4432 0.01053 0.0
H1246 H 0.25136 0.4089 0.06435 0.0
H1247 H 0.28607 0.3985 0.06121 0.0
H1248 H 0.2232 0.42097 0.01135 0.0
H1249 H 0.22749 0.46193 0.08191 0.0
H1250 H 0.24914 0.45437 0.06759 0.0
H1251 H 0.23711 0.43681 0.08351 0.0
C1252 C 0.2827 0.42752 0.01982 0.0
C1253 C 0.29162 0.41497 0.03407 0.0
C1254 C 0.26273 0.43351 0.0217 0.0
C1255 C 0.25118 0.42717 0.03789 0.0
C1256 C 0.26 0.4145 0.05202 0.0
H1257 H 0.12845 0.43941 0.0763 0.0
H1258 H 0.1634 0.43044 0.07156 0.0
C1259 C 0.27994 0.40857 0.05019 0.0
C1260 C 0.22981 0.43324 0.03971 0.0
H1261 H 0.19531 0.45518 0.07092 0.0
C1262 C 0.21715 0.4286 0.02431 0.0
C1263 C 0.22179 0.44319 0.05662 0.0
C1264 C 0.2346 0.44955 0.07327 0.0
C1265 C 0.19674 0.43313 0.02558 0.0
C1266 C 0.1887 0.44287 0.04259 0.0
C1267 C 0.20138 0.44766 0.05791 0.0
C1268 C 0.16718 0.44802 0.04495 0.0
C1269 C 0.18386 0.42689 1.00894 0.0
C1270 C 0.15752 0.461 0.03164 0.0
C1271 C 0.13741 0.4661 0.03424 0.0
C1272 C 0.12644 0.45837 0.05027 0.0
C1273 C 0.13622 0.44539 0.06357 0.0
C1274 C 0.15631 0.44036 0.06098 0.0
H1275 H 0.19129 0.41527 0.99955 0.0
H1276 H 0.16975 0.42112 0.01477 0.0
H1277 H 0.18041 0.43998 0.99941 0.0
H1278 H 0.1656 0.46743 0.01934 0.0
H1279 H 0.13045 0.47606 0.02364 0.0
H1280 H 0.24493 0.74088 0.53708 0.0
H1281 H 0.21465 0.72215 0.53439 0.0
H1282 H 0.24189 0.67332 0.56663 0.0
H1283 H 0.27193 0.69226 0.56964 0.0
H1284 H 0.21003 0.68706 0.51609 0.0
H1285 H 0.18943 0.67892 0.59538 0.0
H1286 H 0.20761 0.6961 0.58682 0.0
H1287 H 0.21413 0.67011 0.58979 0.0
C1288 C 0.24418 0.72632 0.54395 0.0
C1289 C 0.26044 0.71814 0.55398 0.0
C1290 C 0.22698 0.71559 0.54232 0.0
C1291 C 0.22581 0.69643 0.55061 0.0
C1292 C 0.24217 0.68826 0.56061 0.0
H1293 H 0.14093 0.60271 0.54821 0.0
H1294 H 0.17011 0.62266 0.55167 0.0
C1295 C 0.25932 0.69905 0.56232 0.0
C1296 C 0.20791 0.68461 0.54785 0.0
H1297 H 0.17255 0.65884 0.57273 0.0
C1298 C 0.20175 0.68103 0.52849 0.0
C1299 C 0.1971 0.67667 0.56401 0.0
C1300 C 0.20226 0.68079 0.58517 0.0
C1301 C 0.18538 0.66942 0.52486 0.0
C1302 C 0.17471 0.66134 0.54101 0.0
C1303 C 0.1808 0.66496 0.56036 0.0
C1304 C 0.15714 0.64911 0.53819 0.0
C1305 C 0.17991 0.66553 0.50374 0.0
C1306 C 0.14011 0.65734 0.52948 0.0
C1307 C 0.12333 0.64601 0.52757 0.0
C1308 C 0.12318 0.62619 0.53443 0.0
C1309 C 0.14039 0.61796 0.54297 0.0
C1310 C 0.15713 0.62932 0.5449 0.0
H1311 H 0.19219 0.66862 0.49319 0.0
H1312 H 0.17564 0.64987 0.50187 0.0
H1313 H 0.16711 0.67536 0.49981 0.0
H1314 H 0.13963 0.67269 0.52454 0.0
H1315 H 0.11028 0.65299 0.52127 0.0
H1316 H 0.90564 0.92254 0.52503 0.0
H1317 H 0.93515 0.94228 0.5199 0.0
H1318 H 0.96594 0.89113 0.49448 0.0
H1319 H 0.9364 0.87146 0.49957 0.0
H1320 H 0.97279 0.93619 0.53489 0.0
H1321 H 0.97615 0.93392 0.45288 0.0
H1322 H 0.95459 0.92697 0.467 0.0
H1323 H 0.97544 0.9099 0.46455 0.0
C1324 C 0.91872 0.91558 0.51831 0.0
C1325 C 0.91875 0.89547 0.51271 0.0
C1326 C 0.93559 0.92685 0.51537 0.0
C1327 C 0.95281 0.91836 0.50654 0.0
C1328 C 0.95281 0.89822 0.50094 0.0
H1329 H 0.07019 0.96249 0.47804 0.0
H1330 H 0.04067 0.94268 0.48211 0.0
C1331 C 0.93596 0.88694 0.50395 0.0
C1332 C 0.97087 0.9304 0.50374 0.0
H1333 H 1.0034 0.94757 0.46875 0.0
C1334 C 0.97941 0.93875 0.52041 0.0
C1335 C 0.97969 0.93371 0.48487 0.0
C1336 C 0.97094 0.92582 0.46626 0.0
C1337 C 0.99656 0.94995 0.51881 0.0
C1338 C 1.00531 0.95343 0.49992 0.0
C1339 C 0.9968 0.94501 0.48324 0.0
C1340 C 0.02323 0.96573 0.49716 0.0
C1341 C 1.00545 0.95747 0.53751 0.0
C1342 C 0.02333 0.9855 0.50386 0.0
C1343 C 0.04024 0.99683 0.50162 0.0
C1344 C 0.05746 0.98874 0.49245 0.0
C1345 C 0.05722 0.96914 0.48528 0.0
C1346 C 0.04031 0.9578 0.48758 0.0
H1347 H 1.00072 0.94875 0.55068 0.0
H1348 H 0.0218 0.95682 0.5365 0.0
H1349 H 1.00048 0.97318 0.53988 0.0
H1350 H 0.01026 0.99226 0.5108 0.0
H1351 H 0.03984 0.01193 0.50714 0.0
H1352 H 0.41382 0.72077 0.55179 0.0
H1353 H 0.44401 0.70373 0.56269 0.0
H1354 H 0.41112 0.67355 0.60823 0.0
H1355 H 0.3807 0.69069 0.59742 0.0
H1356 H 0.46325 0.7049 0.59692 0.0
H1357 H 0.44235 0.62701 0.58533 0.0
H1358 H 0.42806 0.64792 0.5758 0.0
H1359 H 0.42559 0.64076 0.6014 0.0
C1360 C 0.41285 0.71057 0.56419 0.0
C1361 C 0.39448 0.70735 0.57367 0.0
C1362 C 0.4303 0.70069 0.5704 0.0
C1363 C 0.43017 0.68701 0.58624 0.0
C1364 C 0.41185 0.68358 0.59568 0.0
H1365 H 0.52501 0.61723 0.64581 0.0
H1366 H 0.49354 0.63266 0.63562 0.0
C1367 C 0.39432 0.69349 0.58945 0.0
C1368 C 0.44925 0.677 0.59307 0.0
H1369 H 0.47241 0.63161 0.60171 0.0
C1370 C 0.46518 0.68885 0.59786 0.0
C1371 C 0.45212 0.65601 0.59451 0.0
C1372 C 0.43621 0.64214 0.58882 0.0
C1373 C 0.48346 0.68051 0.60416 0.0
C1374 C 0.4864 0.65952 0.60541 0.0
C1375 C 0.47043 0.64765 0.60081 0.0
C1376 C 0.50586 0.64968 0.61139 0.0
C1377 C 0.49932 0.69441 0.60992 0.0
C1378 C 0.52359 0.65356 0.6011 0.0
C1379 C 0.54171 0.64469 0.60691 0.0
C1380 C 0.54279 0.63147 0.62318 0.0
C1381 C 0.52497 0.62728 0.63323 0.0
C1382 C 0.50684 0.63615 0.62738 0.0
H1383 H 0.49307 0.70938 0.61388 0.0
H1384 H 0.50778 0.68842 0.62266 0.0
H1385 H 0.50969 0.69625 0.5972 0.0
H1386 H 0.52345 0.66347 0.58842 0.0
H1387 H 0.55494 0.64832 0.59865 0.0
H1388 H 0.59134 0.73654 0.88111 0.0
H1389 H 0.59788 0.70314 0.89448 0.0
H1390 H 0.54762 0.71032 0.93397 0.0
H1391 H 0.54089 0.74365 0.92056 0.0
H1392 H 0.60753 0.68839 0.929 0.0
H1393 H 0.53555 0.65748 0.91194 0.0
H1394 H 0.54287 0.68134 0.90263 0.0
H1395 H 0.53292 0.679 0.92742 0.0
C1396 C 0.58167 0.73117 0.89273 0.0
C1397 C 0.56545 0.74315 0.89953 0.0
C1398 C 0.58541 0.71184 0.90037 0.0
C1399 C 0.57308 0.70361 0.91509 0.0
C1400 C 0.55712 0.7157 0.92221 0.0
H1401 H 0.60969 0.60089 0.98953 0.0
H1402 H 0.60198 0.63377 0.97566 0.0
C1403 C 0.55329 0.735 0.91451 0.0
C1404 C 0.57721 0.68273 0.92317 0.0
H1405 H 0.55613 0.63788 0.93317 0.0
C1406 C 0.59622 0.6774 0.92982 0.0
C1407 C 0.56279 0.66787 0.92406 0.0
C1408 C 0.54246 0.6716 0.91594 0.0
C1409 C 0.60103 0.65822 0.93753 0.0
C1410 C 0.58636 0.64367 0.93929 0.0
C1411 C 0.56746 0.64884 0.93223 0.0
C1412 C 0.59034 0.62313 0.94824 0.0
C1413 C 0.62209 0.65366 0.94321 0.0
C1414 C 0.58562 0.60562 0.93816 0.0
C1415 C 0.58976 0.58653 0.94633 0.0
C1416 C 0.59873 0.58426 0.9649 0.0
C1417 C 0.60296 0.6018 0.97515 0.0
C1418 C 0.59871 0.62081 0.96707 0.0
H1419 H 0.63245 0.6634 0.93513 0.0
H1420 H 0.62366 0.6564 0.95926 0.0
H1421 H 0.6265 0.63792 0.94011 0.0
H1422 H 0.57903 0.60668 0.92372 0.0
H1423 H 0.58624 0.57353 0.93788 0.0
H1424 H 0.52102 0.89665 0.87679 0.0
H1425 H 0.51732 0.92698 0.89695 0.0
H1426 H 0.55652 0.9009 0.93999 0.0
H1427 H 0.55985 0.87042 0.92009 0.0
H1428 H 0.50454 0.93097 0.93968 0.0
H1429 H 0.58039 0.95622 0.92451 0.0
H1430 H 0.56864 0.93868 0.90883 0.0
H1431 H 0.5783 0.93071 0.9322 0.0
C1432 C 0.5288 0.89738 0.89058 0.0
C1433 C 0.54093 0.88116 0.89668 0.0
C1434 C 0.52667 0.91474 0.90212 0.0
C1435 C 0.5368 0.91646 0.91997 0.0
C1436 C 0.54873 0.90016 0.92619 0.0
H1437 H 0.5553 0.01126 1.00493 0.0
H1438 H 0.55578 0.98083 0.98523 0.0
C1439 C 0.55066 0.88272 0.91479 0.0
C1440 C 0.53498 0.93523 0.93204 0.0
H1441 H 0.56122 0.97447 0.94802 0.0
C1442 C 0.51691 0.94053 0.94145 0.0
C1443 C 0.55107 0.94778 0.9345 0.0
C1444 C 0.5707 0.94325 0.9244 0.0
C1445 C 0.51467 0.95759 0.9536 0.0
C1446 C 0.53078 0.97027 0.95603 0.0
C1447 C 0.54878 0.96498 0.94638 0.0
C1448 C 0.52959 0.98873 0.96879 0.0
C1449 C 0.49519 0.96135 0.96427 0.0
C1450 C 0.51473 1.00371 0.96643 0.0
C1451 C 0.51426 0.02111 0.97806 0.0
C1452 C 0.52882 0.02419 0.99215 0.0
C1453 C 0.54373 1.00934 0.99438 0.0
C1454 C 0.54406 0.99189 0.98299 0.0
H1455 H 0.48688 0.94748 0.96594 0.0
H1456 H 0.49726 0.96767 0.9792 0.0
H1457 H 0.48605 0.97207 0.95556 0.0
H1458 H 0.50372 1.00225 0.95523 0.0
H1459 H 0.50292 0.03246 0.97548 0.0
H1460 H 0.51518 0.32898 0.75514 0.0
H1461 H 0.5177 0.36442 0.74672 0.0
H1462 H 0.54536 0.34839 0.69075 0.0
H1463 H 0.5419 0.31311 0.6988 0.0
H1464 H 0.5487 0.38633 0.74023 0.0
H1465 H 0.50539 0.3882 0.67182 0.0
H1466 H 0.50578 0.36705 0.68835 0.0
H1467 H 0.52535 0.37012 0.67031 0.0
C1468 C 0.52159 0.33312 0.74097 0.0
C1469 C 0.52858 0.31837 0.72773 0.0
C1470 C 0.52309 0.35336 0.73617 0.0
C1471 C 0.53149 0.35926 0.71793 0.0
C1472 C 0.53839 0.3444 0.70468 0.0
H1473 H 0.57153 0.47073 0.66813 0.0
H1474 H 0.56482 0.43601 0.67583 0.0
C1475 C 0.53669 0.3242 0.70941 0.0
C1476 C 0.53374 0.38085 0.71309 0.0
H1477 H 0.52532 0.41627 0.67732 0.0
C1478 C 0.54339 0.39287 0.72655 0.0
C1479 C 0.52679 0.38958 0.69526 0.0
C1480 C 0.51507 0.37811 0.68072 0.0
C1481 C 0.54672 0.41306 0.72247 0.0
C1482 C 0.54023 0.42159 0.70445 0.0
C1483 C 0.53043 0.40969 0.69106 0.0
C1484 C 0.54358 0.44281 0.69925 0.0
C1485 C 0.55755 0.4251 0.73726 0.0
C1486 C 0.53354 0.45827 0.70954 0.0
C1487 C 0.53708 0.47822 0.70496 0.0
C1488 C 0.55087 0.48326 0.69003 0.0
C1489 C 0.56061 0.46763 0.6795 0.0
C1490 C 0.55692 0.44768 0.684 0.0
H1491 H 0.56441 0.4156 0.74892 0.0
H1492 H 0.5692 0.43369 0.7297 0.0
H1493 H 0.54705 0.43589 0.74453 0.0
H1494 H 0.52295 0.45489 0.72117 0.0
H1495 H 0.52895 0.4897 0.71317 0.0
H1496 H 0.53998 0.19418 0.6785 0.0
H1497 H 0.53612 0.16601 0.65617 0.0
H1498 H 0.49235 0.14226 0.69599 0.0
H1499 H 0.49595 0.17032 0.7182 0.0
H1500 H 0.52166 0.11424 0.684 0.0
H1501 H 0.48955 0.15514 0.6199 0.0
H1502 H 0.51228 0.16431 0.62879 0.0
H1503 H 0.49049 0.16592 0.64426 0.0
C1504 C 0.52935 0.18309 0.68236 0.0
C1505 C 0.51835 0.18447 0.7002 0.0
C1506 C 0.52717 0.167 0.66959 0.0
C1507 C 0.51385 0.15211 0.67437 0.0
C1508 C 0.50276 0.15355 0.69205 0.0
H1509 H 0.46303 0.05919 0.6073 0.0
H1510 H 0.47056 0.08928 0.62536 0.0
C1511 C 0.50492 0.16957 0.70478 0.0
C1512 C 0.51173 0.13464 0.66136 0.0
H1513 H 0.49602 0.12063 0.61596 0.0
C1514 C 0.51616 0.11562 0.66908 0.0
C1515 C 0.50438 0.13651 0.64198 0.0
C1516 C 0.49873 0.15653 0.63321 0.0
C1517 C 0.51328 0.0984 0.65801 0.0
C1518 C 0.50604 0.10025 0.63858 0.0
C1519 C 0.50172 0.11927 0.6308 0.0
C1520 C 0.50189 0.08256 0.62653 0.0
C1521 C 0.51742 0.07833 0.66745 0.0
C1522 C 0.51708 0.069 0.6208 0.0
C1523 C 0.51284 0.05175 0.61045 0.0
C1524 C 0.49331 0.04775 0.6056 0.0
C1525 C 0.47822 0.06171 0.61085 0.0
C1526 C 0.48249 0.07896 0.62115 0.0
H1527 H 0.5187 0.07939 0.68377 0.0
H1528 H 0.50562 0.06789 0.66411 0.0
H1529 H 0.53154 0.07194 0.66138 0.0
H1530 H 0.53219 0.07166 0.62453 0.0
H1531 H 0.52484 0.04139 0.6066 0.0
H1532 H 0.89842 0.57742 0.72 0.0
H1533 H 0.91377 0.57707 0.68698 0.0
H1534 H 0.93713 0.51761 0.69757 0.0
H1535 H 0.92119 0.51768 0.73042 0.0
H1536 H 0.94979 0.57502 0.67401 0.0
H1537 H 0.91369 0.50896 0.64523 0.0
H1538 H 0.90633 0.5203 0.66844 0.0
H1539 H 0.92735 0.50324 0.66707 0.0
C1540 C 0.90682 0.56424 0.71531 0.0
C1541 C 0.90846 0.54754 0.72792 0.0
C1542 C 0.9156 0.56404 0.69634 0.0
C1543 C 0.92642 0.54719 0.6894 0.0
C1544 C 0.9284 0.53061 0.70213 0.0
H1545 H 0.00691 0.55542 0.58544 0.0
H1546 H 0.99297 0.5539 0.61911 0.0
C1547 C 0.91935 0.53069 0.72103 0.0
C1548 C 0.93584 0.54726 0.66906 0.0
H1549 H 0.94016 0.52123 0.62569 0.0
C1550 C 0.9476 0.56326 0.66345 0.0
C1551 C 0.93284 0.53216 0.65497 0.0
C1552 C 0.9192 0.51532 0.65913 0.0
C1553 C 0.9564 0.56455 0.64441 0.0
C1554 C 0.95409 0.54901 0.63061 0.0
C1555 C 0.94225 0.53306 0.6362 0.0
C1556 C 0.96304 0.54934 0.61007 0.0
C1557 C 0.96749 0.58298 0.63916 0.0
C1558 C 0.95123 0.54641 0.59354 0.0
C1559 C 0.9593 0.54675 0.57427 0.0
C1560 C 0.97943 0.5502 0.57089 0.0
C1561 C 0.99133 0.55291 0.58742 0.0
C1562 C 0.98329 0.55224 0.60674 0.0
H1563 H 0.96269 0.59576 0.64864 0.0
H1564 H 0.98344 0.58004 0.64154 0.0
H1565 H 0.96539 0.58732 0.62345 0.0
H1566 H 0.9356 0.54409 0.5955 0.0
H1567 H 0.94959 0.54468 0.56199 0.0
H1568 H 0.16852 0.01705 0.77164 0.0
H1569 H 0.15938 0.01403 0.73706 0.0
H1570 H 0.14798 0.07745 0.73385 0.0
H1571 H 0.15731 0.08062 0.76852 0.0
H1572 H 0.12528 0.02374 0.71757 0.0
H1573 H 0.18724 0.0678 0.68841 0.0
H1574 H 0.18598 0.05903 0.71367 0.0
H1575 H 0.17175 0.08076 0.70627 0.0
C1576 C 0.16379 0.03034 0.76367 0.0
C1577 C 0.16365 0.04909 0.77279 0.0
C1578 C 0.15868 0.02859 0.74388 0.0
C1579 C 0.15334 0.04554 0.7328 0.0
C1580 C 0.15252 0.06423 0.74202 0.0
H1581 H 0.12199 0.0645 0.61059 0.0
H1582 H 0.12737 0.06728 0.64609 0.0
C1583 C 0.15777 0.06602 0.76182 0.0
C1584 C 0.14892 0.04358 0.71154 0.0
H1585 H 0.16367 0.05818 0.66527 0.0
C1586 C 0.13368 0.03123 0.70612 0.0
C1587 C 0.16003 0.05326 0.69664 0.0
C1588 C 0.17729 0.0658 0.70147 0.0
C1589 C 0.12902 0.02859 0.68618 0.0
C1590 C 0.14001 0.03841 0.67134 0.0
C1591 C 0.15524 0.05074 0.67674 0.0
C1592 C 0.1359 0.03626 0.65007 0.0
C1593 C 0.11219 0.01558 0.68115 0.0
C1594 C 0.13898 0.01788 0.64057 0.0
C1595 C 0.13584 0.01622 0.62026 0.0
C1596 C 0.12958 0.03292 0.60915 0.0
C1597 C 0.12646 0.05128 0.61879 0.0
C1598 C 0.12966 0.05293 0.63903 0.0
H1599 H 0.10257 0.01265 0.69426 0.0
H1600 H 0.10308 0.02256 0.66936 0.0
H1601 H 0.1182 1.00108 0.67555 0.0
H1602 H 0.14409 1.00491 0.6488 0.0
H1603 H 0.13831 1.00187 0.61327 0.0
H1604 H 0.92927 0.54998 0.85986 0.0
H1605 H 0.94414 0.54372 0.89229 0.0
H1606 H 0.88746 0.52814 0.91635 0.0
H1607 H 0.87274 0.53412 0.88385 0.0
H1608 H 0.93941 0.5599 0.92789 0.0
H1609 H 0.91888 0.48138 0.93616 0.0
H1610 H 0.91597 0.49488 0.91322 0.0
H1611 H 0.89792 0.49793 0.93295 0.0
C1612 C 0.91996 0.54531 0.87209 0.0
C1613 C 0.89971 0.54275 0.86915 0.0
C1614 C 0.92851 0.54164 0.89074 0.0
C1615 C 0.9172 0.53503 0.90712 0.0
C1616 C 0.89688 0.53265 0.90415 0.0
H1617 H 0.94704 0.50681 0.0327 0.0
H1618 H 0.92964 0.51379 1.00156 0.0
C1619 C 0.88835 0.53628 0.88549 0.0
C1620 C 0.92657 0.53111 0.92717 0.0
H1621 H 0.93237 0.49632 0.9644 0.0
C1622 C 0.93786 0.54591 0.93573 0.0
C1623 C 0.92474 0.51295 0.93789 0.0
C1624 C 0.91389 0.4958 0.92953 0.0
C1625 C 0.94696 0.54325 0.95435 0.0
C1626 C 0.94523 0.52507 0.96499 0.0
C1627 C 0.9338 0.51032 0.95656 0.0
C1628 C 0.95575 0.52088 0.98438 0.0
C1629 C 0.95804 0.56029 0.96262 0.0
C1630 C 0.97636 0.52218 0.98551 0.0
C1631 C 0.98629 0.51818 1.00331 0.0
C1632 C 0.97609 0.51266 0.02077 0.0
C1633 C 0.95546 0.51121 0.01972 0.0
C1634 C 0.94548 0.51514 1.00179 0.0
H1635 H 0.95293 0.57478 0.95622 0.0
H1636 H 0.95633 0.56104 0.97898 0.0
H1637 H 0.97393 0.55814 0.95884 0.0
H1638 H 0.98493 0.52602 0.97246 0.0
H1639 H 1.00217 0.51926 1.0033 0.0
H1640 H 0.14434 0.05085 0.91084 0.0
H1641 H 0.1344 0.05713 0.9454 0.0
H1642 H 0.19444 0.06982 0.95909 0.0
H1643 H 0.20448 0.06265 0.92467 0.0
H1644 H 0.17875 0.04811 0.98798 0.0
H1645 H 0.12576 0.10993 0.97131 0.0
H1646 H 0.11981 0.08744 0.95901 0.0
H1647 H 0.14245 0.09943 0.95277 0.0
C1648 C 0.15543 0.05472 0.92132 0.0
C1649 C 0.17522 0.05601 0.91513 0.0
C1650 C 0.1497 0.05862 0.94104 0.0
C1651 C 0.16355 0.0644 0.95496 0.0
C1652 C 0.18339 0.0655 0.94876 0.0
H1653 H 0.15459 0.09853 0.08092 0.0
H1654 H 0.16635 0.09224 0.0468 0.0
C1655 C 0.18914 0.06143 0.92907 0.0
C1656 C 0.15742 0.06905 0.97595 0.0
H1657 H 0.12476 0.09715 1.00431 0.0
C1658 C 0.16704 0.05896 0.9915 0.0
C1659 C 0.14221 0.08331 0.98077 0.0
C1660 C 0.13211 0.0958 0.9651 0.0
C1661 C 0.16154 0.06227 0.0115 0.0
C1662 C 0.14604 0.07617 0.01623 0.0
C1663 C 0.13655 0.08641 1.00074 0.0
C1664 C 0.13913 0.07998 0.0371 0.0
C1665 C 0.17202 0.05048 0.02741 0.0
C1666 C 0.11983 0.07554 0.04304 0.0
C1667 C 0.11312 0.07907 0.06252 0.0
C1668 C 0.12548 0.08732 0.07653 0.0
C1669 C 0.14475 0.09201 0.07055 0.0
C1670 C 0.15151 0.08835 0.05105 0.0
H1671 H 0.18065 0.03753 0.02126 0.0
H1672 H 0.18233 0.06022 0.03498 0.0
H1673 H 0.16133 0.04504 0.03867 0.0
H1674 H 0.10994 0.06918 0.0326 0.0
H1675 H 0.09817 0.07539 0.06659 0.0
H1676 H 0.78173 0.91721 0.50562 0.0
H1677 H 0.74722 0.92857 0.50969 0.0
H1678 H 0.74242 0.89418 0.56344 0.0
H1679 H 0.77677 0.88273 0.55949 0.0
H1680 H 0.71319 0.90771 0.51116 0.0
H1681 H 0.72047 0.94767 0.5819 0.0
H1682 H 0.74155 0.93958 0.56701 0.0
H1683 H 0.72931 0.92226 0.58304 0.0
C1684 C 0.77338 0.91204 0.51834 0.0
C1685 C 0.7823 0.89915 0.53232 0.0
C1686 C 0.75358 0.91862 0.52067 0.0
C1687 C 0.74214 0.91259 0.53708 0.0
C1688 C 0.75095 0.89958 0.55094 0.0
H1689 H 0.62035 0.92987 0.57868 0.0
H1690 H 0.6549 0.91963 0.57321 0.0
C1691 C 0.77072 0.89304 0.54865 0.0
C1692 C 0.72092 0.91939 0.53944 0.0
H1693 H 0.6878 0.94228 0.57155 0.0
C1694 C 0.7077 0.91541 0.52431 0.0
C1695 C 0.71356 0.92945 0.55658 0.0
C1696 C 0.72698 0.93518 0.57298 0.0
C1697 C 0.68742 0.92067 0.52607 0.0
C1698 C 0.68005 0.93055 0.54331 0.0
C1699 C 0.6933 0.93467 0.55835 0.0
C1700 C 0.65866 0.93654 0.54617 0.0
C1701 C 0.67398 0.91503 0.50966 0.0
C1702 C 0.64903 0.94962 0.5329 0.0
C1703 C 0.62911 0.95543 0.53592 0.0
C1704 C 0.61821 0.9484 0.55236 0.0
C1705 C 0.62797 0.93536 0.56565 0.0
C1706 C 0.64788 0.92959 0.56263 0.0
H1707 H 0.68073 0.90304 0.50024 0.0
H1708 H 0.65967 0.90997 0.51571 0.0
H1709 H 0.67105 0.92821 0.5001 0.0
H1710 H 0.65699 0.95556 0.52028 0.0
H1711 H 0.62222 0.96539 0.52527 0.0
H1712 H 0.75481 0.26008 0.05778 0.0
H1713 H 0.72224 0.24518 0.05778 0.0
H1714 H 0.75028 0.18662 0.05626 0.0
H1715 H 0.78266 0.20155 0.05708 0.0
H1716 H 0.70663 0.22383 0.03004 0.0
H1717 H 0.70915 0.17777 0.09789 0.0
H1718 H 0.72701 0.1964 0.09254 0.0
H1719 H 0.7298 0.17197 0.08179 0.0
C1720 C 0.75388 0.24403 0.05788 0.0
C1721 C 0.77111 0.23191 0.05738 0.0
C1722 C 0.73532 0.23551 0.05777 0.0
C1723 C 0.73368 0.21471 0.05724 0.0
C1724 C 0.75101 0.20264 0.05717 0.0
H1725 H 0.63843 0.14963 1.00864 0.0
H1726 H 0.66751 0.16878 0.0146 0.0
C1727 C 0.76952 0.21116 0.05748 0.0
C1728 C 0.71401 0.20568 0.05538 0.0
H1729 H 0.68491 0.16932 0.07417 0.0
C1730 C 0.70181 0.21207 0.03986 0.0
C1731 C 0.70742 0.19053 0.06831 0.0
C1732 C 0.71895 0.18393 0.08618 0.0
C1733 C 0.68364 0.20333 0.03653 0.0
C1734 C 0.67767 0.18731 0.04869 0.0
C1735 C 0.68953 0.18139 0.06464 0.0
C1736 C 0.65947 0.17616 0.0449 0.0
C1737 C 0.67099 0.21155 0.02009 0.0
C1738 C 0.64532 0.1734 0.06004 0.0
C1739 C 0.62879 0.16199 0.05681 0.0
C1740 C 0.62601 0.153 0.03834 0.0
C1741 C 0.64008 0.15609 0.02313 0.0
C1742 C 0.65665 0.16734 0.02643 0.0
H1743 H 0.67409 0.22739 0.01694 0.0
H1744 H 0.67433 0.20301 1.00637 0.0
H1745 H 0.65506 0.21044 0.02379 0.0
H1746 H 0.64717 0.17991 0.07448 0.0
H1747 H 0.61853 0.15973 0.06901 0.0
H1748 H 0.44644 0.38977 1.00575 0.0
H1749 H 0.47603 0.40963 1.00165 0.0
H1750 H 0.44404 0.46068 0.02583 0.0
H1751 H 0.41451 0.44081 0.02992 0.0
H1752 H 0.48222 0.44512 0.98008 0.0
H1753 H 0.49305 0.45652 0.06031 0.0
H1754 H 0.47691 0.4381 0.05106 0.0
H1755 H 0.46894 0.46385 0.05192 0.0
C1756 C 0.4458 0.40524 0.01017 0.0
C1757 C 0.42829 0.41372 0.01836 0.0
C1758 C 0.46268 0.41658 1.00782 0.0
C1759 C 0.46244 0.43661 0.01373 0.0
C1760 C 0.44478 0.44518 0.02153 0.0
H1761 H 0.5501 0.52855 0.01811 0.0
H1762 H 0.5201 0.50926 0.01969 0.0
C1763 C 0.4279 0.43386 0.02381 0.0
C1764 C 0.48061 0.44852 0.01171 0.0
H1765 H 0.51331 0.47465 0.0383 0.0
C1766 C 0.48906 0.45152 0.99282 0.0
C1767 C 0.4896 0.45692 0.0283 0.0
C1768 C 0.48181 0.45358 0.04907 0.0
C1769 C 0.50591 0.463 0.99002 0.0
C1770 C 0.51491 0.47142 1.00663 0.0
C1771 C 0.50647 0.46833 0.02552 0.0
C1772 C 0.53308 0.48341 1.00485 0.0
C1773 C 0.51355 0.46644 0.9692 0.0
C1774 C 0.55054 0.4754 0.99606 0.0
C1775 C 0.56768 0.48647 0.99506 0.0
C1776 C 0.56788 0.50575 1.00303 0.0
C1777 C 0.55044 0.51376 0.01181 0.0
C1778 C 0.53328 0.50271 0.01275 0.0
H1779 H 0.50196 0.46429 0.95812 0.0
H1780 H 0.51918 0.48166 0.96737 0.0
H1781 H 0.52583 0.45558 0.9659 0.0
H1782 H 0.55104 0.46041 0.99029 0.0
H1783 H 0.5809 0.47979 0.98833 0.0
H1784 H 0.9256 0.23221 0.0429 0.0
H1785 H 0.95676 0.21579 0.05179 0.0
H1786 H 0.92754 0.18513 0.0995 0.0
H1787 H 0.89615 0.20181 0.09087 0.0
H1788 H 0.9781 0.21734 0.08556 0.0
H1789 H 0.95808 0.13925 0.07336 0.0
H1790 H 0.94309 0.1601 0.06478 0.0
H1791 H 0.94189 0.15256 0.09034 0.0
C1792 C 0.92562 0.22208 0.0554 0.0
C1793 C 0.90798 0.21863 0.06617 0.0
C1794 C 0.94364 0.21254 0.06043 0.0
C1795 C 0.94482 0.19893 0.07628 0.0
C1796 C 0.92724 0.19519 0.08695 0.0
H1797 H 0.04179 0.12799 0.12911 0.0
H1798 H 0.01038 0.14398 0.12019 0.0
C1799 C 0.90913 0.2048 0.08195 0.0
C1800 C 0.9645 0.18923 0.08175 0.0
H1801 H 0.98899 0.14413 0.08787 0.0
C1802 C 0.98043 0.20131 0.08598 0.0
C1803 C 0.96788 0.16828 0.08243 0.0
C1804 C 0.95192 0.15425 0.07732 0.0
C1805 C 0.9992 0.1932 0.09114 0.0
C1806 C 1.00264 0.17224 0.09168 0.0
C1807 C 0.98668 0.16016 0.08749 0.0
C1808 C 0.02239 0.16252 0.09699 0.0
C1809 C 0.01498 0.2073 0.09662 0.0
C1810 C 0.0401 0.16717 0.08692 0.0
C1811 C 0.05835 0.15798 0.0921 0.0
C1812 C 0.05951 0.14368 0.10742 0.0
C1813 C 0.04174 0.13889 0.11726 0.0
C1814 C 0.02358 0.14808 0.11212 0.0
H1815 H 0.00858 0.22202 0.10123 0.0
H1816 H 0.02408 0.20117 0.10883 0.0
H1817 H 0.02477 0.20973 0.08355 0.0
H1818 H 0.03983 0.1778 0.07484 0.0
H1819 H 0.07155 0.16206 0.08402 0.0
H1820 H 0.04377 0.23705 0.30951 0.0
H1821 H 0.04998 0.2101 0.28554 0.0
H1822 H 0.06613 0.25327 0.24113 0.0
H1823 H 0.05919 0.28017 0.26488 0.0
H1824 H 0.04481 0.22409 0.22559 0.0
H1825 H 0.10522 0.19095 0.27067 0.0
H1826 H 0.08161 0.19244 0.28307 0.0
H1827 H 0.09372 0.21489 0.2762 0.0
C1828 C 0.04835 0.24069 0.29451 0.0
C1829 C 0.05118 0.26054 0.28896 0.0
C1830 C 0.05207 0.22533 0.28091 0.0
C1831 C 0.05897 0.22962 0.26166 0.0
C1832 C 0.06092 0.24958 0.25591 0.0
H1833 H 0.13197 0.16538 0.17938 0.0
H1834 H 0.11661 0.18477 0.20629 0.0
C1835 C 0.057 0.26492 0.26943 0.0
C1836 C 0.06504 0.21346 0.24767 0.0
H1837 H 0.09856 0.17495 0.24082 0.0
C1838 C 0.05645 0.21322 0.22895 0.0
C1839 C 0.08037 0.1994 0.25205 0.0
C1840 C 0.09092 0.19946 0.2715 0.0
C1841 C 0.06311 0.19971 0.2143 0.0
C1842 C 0.07848 0.18571 0.21866 0.0
C1843 C 0.08667 0.18557 0.23757 0.0
C1844 C 0.08775 0.17258 0.20323 0.0
C1845 C 0.05429 0.20123 0.194 0.0
C1846 C 0.07678 0.15882 0.19288 0.0
C1847 C 0.08554 0.14777 0.17733 0.0
C1848 C 0.10544 0.15023 0.17202 0.0
C1849 C 0.11657 0.16328 0.18304 0.0
C1850 C 0.10782 0.17435 0.19845 0.0
H1851 H 0.04573 0.21544 0.19191 0.0
H1852 H 0.06595 0.20007 0.18228 0.0
H1853 H 0.04415 0.18883 0.19202 0.0
H1854 H 0.06139 0.15685 0.19662 0.0
H1855 H 0.07665 0.13769 0.16918 0.0
H1856 H 0.00676 0.38969 0.28221 0.0
H1857 H 1.00063 0.40927 0.25221 0.0
H1858 H 0.04929 0.37839 0.22257 0.0
H1859 H 0.05575 0.35904 0.25269 0.0
H1860 H 0.0496 0.41612 0.21212 0.0
H1861 H 0.97303 0.39253 0.20423 0.0
H1862 H 0.97651 0.40458 0.22741 0.0
H1863 H 0.98937 0.38128 0.22208 0.0
C1864 C 0.01612 0.38691 0.2693 0.0
C1865 C 0.03171 0.37253 0.27007 0.0
C1866 C 0.01253 0.39815 0.25199 0.0
C1867 C 0.02413 0.39517 0.23465 0.0
C1868 C 0.03997 0.38111 0.23552 0.0
H1869 H 0.98377 0.43128 0.11744 0.0
H1870 H 0.99412 0.41395 0.14749 0.0
C1871 C 0.0437 0.37001 0.2529 0.0
C1872 C 0.01981 0.40657 0.21571 0.0
H1873 H 0.9831 0.41881 0.18325 0.0
C1874 C 0.03504 0.41663 0.20582 0.0
C1875 C 1.00093 0.40719 0.20701 0.0
C1876 C 0.98409 0.39565 0.2156 0.0
C1877 C 0.03194 0.42721 0.18787 0.0
C1878 C 0.01288 0.42839 0.17954 0.0
C1879 C 0.99771 0.41826 0.18944 0.0
C1880 C 0.00832 0.43907 0.16022 0.0
C1881 C 0.04939 0.43646 0.17773 0.0
C1882 C 0.01307 0.45911 0.15664 0.0
C1883 C 0.00746 0.46903 0.13899 0.0
C1884 C 0.99659 0.45931 0.12463 0.0
C1885 C 0.99217 0.43927 0.1281 0.0
C1886 C 0.99801 0.42932 0.14546 0.0
H1887 H 0.06351 0.42927 0.18244 0.0
H1888 H 0.04853 0.43535 0.16139 0.0
H1889 H 0.04965 0.45242 0.18175 0.0
H1890 H 0.02052 0.46737 0.16777 0.0
H1891 H 0.01083 0.48455 0.13702 0.0
H1892 H 0.04339 0.79646 0.31348 0.0
H1893 H 0.04607 0.8312 0.32374 0.0
H1894 H 0.02749 0.85102 0.26597 0.0
H1895 H 0.0253 0.8162 0.25561 0.0
H1896 H 0.0587 0.87148 0.2788 0.0
H1897 H 1.00077 0.86977 0.33734 0.0
H1898 H 0.01921 0.8504 0.34074 0.0
H1899 H 1.00412 0.85034 0.31914 0.0
C1900 C 0.04 0.80831 0.30304 0.0
C1901 C 0.03424 0.80389 0.28382 0.0
C1902 C 0.04132 0.82807 0.30891 0.0
C1903 C 0.03659 0.84368 0.29573 0.0
C1904 C 0.03105 0.83921 0.2764 0.0
H1905 H 0.02976 0.96095 0.3513 0.0
H1906 H 0.02101 0.93434 0.32881 0.0
C1907 C 0.02981 0.81942 0.27051 0.0
C1908 C 0.03788 0.86461 0.30212 0.0
H1909 H 0.02353 0.89632 0.33925 0.0
C1910 C 0.05079 0.87705 0.29184 0.0
C1911 C 0.02714 0.87205 0.31878 0.0
C1912 C 0.01187 0.86 0.32949 0.0
C1913 C 0.05423 0.8963 0.2986 0.0
C1914 C 0.0448 0.90307 0.31629 0.0
C1915 C 0.03093 0.89109 0.32579 0.0
C1916 C 0.05058 0.92139 0.32647 0.0
C1917 C 0.06815 0.90904 0.28688 0.0
C1918 C 0.07016 0.92325 0.33221 0.0
C1919 C 0.07518 0.93841 0.34497 0.0
C1920 C 0.06066 0.95191 0.35248 0.0
C1921 C 0.04124 0.95071 0.34585 0.0
C1922 C 0.03624 0.93555 0.33298 0.0
H1923 H 0.06804 0.90532 0.27089 0.0
H1924 H 0.06432 0.92513 0.28865 0.0
H1925 H 0.08338 0.90617 0.29211 0.0
H1926 H 0.08138 0.91221 0.32788 0.0
H1927 H 0.09018 0.93859 0.35008 0.0
H1928 H 0.99396 0.66452 0.3028 0.0
H1929 H 0.99102 0.64322 0.33226 0.0
H1930 H 0.03975 0.67223 0.35834 0.0
H1931 H 0.04255 0.69375 0.32926 0.0
H1932 H 0.02079 0.6168 0.34925 0.0
H1933 H 0.99536 0.67643 0.40112 0.0
H1934 H 0.99444 0.67933 0.37457 0.0
H1935 H 0.0173 0.68184 0.38711 0.0
C1936 C 1.00394 0.66646 0.31488 0.0
C1937 C 0.01849 0.68085 0.31366 0.0
C1938 C 1.00231 0.65421 0.33164 0.0
C1939 C 0.01502 0.6563 0.34757 0.0
C1940 C 0.02962 0.67053 0.34633 0.0
H1941 H 0.0336 0.60481 0.46302 0.0
H1942 H 0.03471 0.62337 0.43191 0.0
C1943 C 0.03133 0.68269 0.32959 0.0
C1944 C 0.01328 0.64352 0.36547 0.0
H1945 H 1.00489 0.64532 0.41542 0.0
C1946 C 0.01716 0.62296 0.36372 0.0
C1947 C 0.00855 0.65163 0.3843 0.0
C1948 C 1.00349 0.67349 0.38695 0.0
C1949 C 0.0171 0.61038 0.38042 0.0
C1950 C 0.01264 0.61854 0.39932 0.0
C1951 C 0.00841 0.63907 0.40096 0.0
C1952 C 0.01266 0.60624 0.4177 0.0
C1953 C 0.0225 0.5886 0.37775 0.0
C1954 C 0.99996 0.5903 0.42008 0.0
C1955 C 0.9994 0.5795 0.43787 0.0
C1956 C 0.01136 0.58459 0.45371 0.0
C1957 C 0.02419 0.60043 0.45117 0.0
C1958 C 0.02482 0.61112 0.43338 0.0
H1959 H 0.03053 0.58577 0.3635 0.0
H1960 H 0.03179 0.58291 0.39002 0.0
H1961 H 0.00884 0.58001 0.37772 0.0
H1962 H 0.99012 0.58652 0.40839 0.0
H1963 H 0.98919 0.56754 0.43937 0.0
H1964 H 0.28378 0.05523 0.27913 0.0
H1965 H 0.25519 0.06101 0.25785 0.0
H1966 H 0.29257 0.08831 0.21396 0.0
H1967 H 0.32121 0.08187 0.23495 0.0
H1968 H 0.23664 0.09323 0.24372 0.0
H1969 H 0.26562 0.051 0.17888 0.0
H1970 H 0.27758 0.04994 0.20246 0.0
H1971 H 0.28149 0.07045 0.18574 0.0
C1972 C 0.2859 0.06241 0.2649 0.0
C1973 C 0.30488 0.0681 0.25884 0.0
C1974 C 0.26948 0.06576 0.25268 0.0
C1975 C 0.27145 0.07482 0.23389 0.0
C1976 C 0.29042 0.08081 0.228 0.0
H1977 H 0.18938 0.11101 0.1395 0.0
H1978 H 0.2179 0.10448 0.16054 0.0
C1979 C 0.30686 0.07735 0.24018 0.0
C1980 C 0.25371 0.07827 0.22077 0.0
H1981 H 0.23649 0.0709 0.17396 0.0
C1982 C 0.23666 0.0882 0.22851 0.0
C1983 C 0.25335 0.07183 0.20077 0.0
C1984 C 0.27041 0.06004 0.19151 0.0
C1985 C 0.21976 0.0922 0.21694 0.0
C1986 C 0.21945 0.08584 0.19692 0.0
C1987 C 0.23649 0.07591 0.18918 0.0
C1988 C 0.20176 0.08945 0.18379 0.0
C1989 C 0.20258 0.10377 0.22622 0.0
C1990 C 0.18291 0.0829 0.1893 0.0
C1991 C 0.16646 0.08663 0.1772 0.0
C1992 C 0.16826 0.09692 0.15903 0.0
C1993 C 0.18722 0.10305 0.1533 0.0
C1994 C 0.20367 0.09931 0.16542 0.0
H1995 H 0.20714 0.11247 0.23918 0.0
H1996 H 0.19562 0.11416 0.21539 0.0
H1997 H 0.19136 0.09324 0.23146 0.0
H1998 H 0.18086 0.07478 0.20302 0.0
H1999 H 0.15225 0.08153 0.18222 0.0
H2000 H 0.73527 0.50458 0.26218 0.0
H2001 H 0.76108 0.49921 0.23668 0.0
H2002 H 0.79779 0.54027 0.26628 0.0
H2003 H 0.77245 0.54524 0.29205 0.0
H2004 H 0.77764 0.52672 0.21102 0.0
H2005 H 0.8354 0.49248 0.25835 0.0
H2006 H 0.80995 0.49518 0.26639 0.0
H2007 H 0.8258 0.51603 0.26727 0.0
C2008 C 0.74893 0.51228 0.26342 0.0
C2009 C 0.75169 0.52536 0.27924 0.0
C2010 C 0.76365 0.50927 0.24875 0.0
C2011 C 0.78156 0.51909 0.24966 0.0
C2012 C 0.78431 0.5322 0.26539 0.0
H2013 H 0.88663 0.52743 0.17387 0.0
H2014 H 0.8616 0.53034 0.20044 0.0
C2015 C 0.76963 0.53524 0.28001 0.0
C2016 C 0.79707 0.51622 0.23386 0.0
H2017 H 0.84546 0.50207 0.22584 0.0
C2018 C 0.79243 0.52119 0.21425 0.0
C2019 C 0.81644 0.5091 0.23804 0.0
C2020 C 0.8222 0.50271 0.25862 0.0
C2021 C 0.80664 0.51964 0.19883 0.0
C2022 C 0.82601 0.51255 0.203 0.0
C2023 C 0.83066 0.50754 0.22261 0.0
C2024 C 0.84159 0.51017 0.18718 0.0
C2025 C 0.80089 0.52616 0.17828 0.0
C2026 C 0.83897 0.49749 0.17108 0.0
C2027 C 0.85326 0.49576 0.1559 0.0
C2028 C 0.87064 0.50657 0.15646 0.0
C2029 C 0.87351 0.5188 0.17294 0.0
C2030 C 0.85916 0.52055 0.18813 0.0
H2031 H 0.78751 0.53615 0.17855 0.0
H2032 H 0.81304 0.53401 0.17068 0.0
H2033 H 0.79761 0.51287 0.16944 0.0
H2034 H 0.82582 0.48889 0.17024 0.0
H2035 H 0.8507 0.48583 0.14373 0.0
H2036 H 0.28507 0.08751 0.36217 0.0
H2037 H 0.25784 0.0887 0.38628 0.0
H2038 H 0.27621 0.03078 0.40827 0.0
H2039 H 0.30415 0.03002 0.38513 0.0
H2040 H 0.22847 0.06497 0.38661 0.0
H2041 H 0.26318 0.05785 0.45938 0.0
H2042 H 0.27705 0.06398 0.43723 0.0
H2043 H 0.27248 0.0384 0.44341 0.0
C2044 C 0.2837 0.07529 0.37255 0.0
C2045 C 0.29681 0.05863 0.37165 0.0
C2046 C 0.26804 0.07596 0.38627 0.0
C2047 C 0.26513 0.06 0.39934 0.0
C2048 C 0.27843 0.04355 0.39875 0.0
H2049 H 0.17508 0.99612 0.44688 0.0
H2050 H 0.20578 0.01178 0.43722 0.0
C2051 C 0.2942 0.04295 0.3852 0.0
C2052 C 0.24691 0.05925 0.41174 0.0
H2053 H 0.22985 0.04518 0.4574 0.0
C2054 C 0.22875 0.06125 0.40224 0.0
C2055 C 0.24723 0.05452 0.43217 0.0
C2056 C 0.26607 0.0538 0.44365 0.0
C2057 C 0.21108 0.05707 0.4122 0.0
C2058 C 0.21163 0.05073 0.43214 0.0
C2059 C 0.22956 0.04998 0.44206 0.0
C2060 C 0.19426 0.04184 0.44161 0.0
C2061 C 0.19206 0.05806 0.40099 0.0
C2062 C 0.1779 0.05365 0.44787 0.0
C2063 C 0.16033 0.0447 0.45353 0.0
C2064 C 0.15899 0.02392 0.45268 0.0
C2065 C 0.17574 0.01218 0.44747 0.0
C2066 C 0.19327 0.02108 0.44207 0.0
H2067 H 0.19428 0.0627 0.38533 0.0
H2068 H 0.18524 0.04329 0.40129 0.0
H2069 H 0.18153 0.06884 0.40825 0.0
H2070 H 0.17847 0.06972 0.44754 0.0
H2071 H 0.14757 0.05404 0.45752 0.0
H2072 H 0.73154 0.52799 0.41277 0.0
H2073 H 0.75564 0.52305 0.43891 0.0
H2074 H 0.80124 0.51125 0.39472 0.0
H2075 H 0.777 0.51654 0.36841 0.0
H2076 H 0.78086 0.49062 0.44838 0.0
H2077 H 0.82127 0.55801 0.42685 0.0
H2078 H 0.79723 0.55295 0.41756 0.0
H2079 H 0.81887 0.54066 0.40701 0.0
C2080 C 0.74671 0.52426 0.40872 0.0
C2081 C 0.75267 0.52276 0.38877 0.0
C2082 C 0.76038 0.52138 0.42359 0.0
C2083 C 0.78016 0.51702 0.41867 0.0
C2084 C 0.78603 0.5149 0.39871 0.0
H2085 H 0.87908 0.47563 0.48087 0.0
H2086 H 0.84594 0.47766 0.46778 0.0
C2087 C 0.77231 0.51785 0.38377 0.0
C2088 C 0.79477 0.51556 0.43445 0.0
H2089 H 0.83648 0.53639 0.4503 0.0
C2090 C 0.79298 0.50069 0.44897 0.0
C2091 C 0.81012 0.52911 0.43543 0.0
C2092 C 0.81193 0.54622 0.42101 0.0
C2093 C 0.80681 0.49845 0.46402 0.0
C2094 C 0.82288 0.51123 0.46425 0.0
C2095 C 0.82412 0.5266 0.45016 0.0
C2096 C 0.8398 0.50795 0.47738 0.0
C2097 C 0.80412 0.48241 0.47943 0.0
C2098 C 0.84706 0.524 0.48784 0.0
C2099 C 0.86624 0.5231 0.49479 0.0
C2100 C 0.87839 0.50604 0.49147 0.0
C2101 C 0.8702 0.48914 0.48321 0.0
C2102 C 0.85111 0.49016 0.476 0.0
H2103 H 0.78829 0.47925 0.48172 0.0
H2104 H 0.81176 0.46848 0.47427 0.0
H2105 H 0.81035 0.48661 0.49382 0.0
H2106 H 0.83851 0.53786 0.48907 0.0
H2107 H 0.87206 0.53642 0.50105 0.0
H2108 H 0.29622 0.34548 0.02712 0.0
H2109 H 0.26643 0.32617 0.03225 0.0
H2110 H 0.30227 0.27614 0.0524 0.0
H2111 H 0.33204 0.29535 0.04688 0.0
H2112 H 0.27374 0.26536 0.02632 0.0
H2113 H 0.24113 0.31336 0.08591 0.0
H2114 H 0.24675 0.32623 0.06324 0.0
H2115 H 0.26638 0.31511 0.07743 0.0
C2116 C 0.29762 0.33033 0.0326 0.0
C2117 C 0.31624 0.32184 0.03678 0.0
C2118 C 0.28066 0.31938 0.03565 0.0
C2119 C 0.2821 0.29983 0.04304 0.0
C2120 C 0.30081 0.29123 0.0468 0.0
H2121 H 0.19698 0.22524 0.09869 0.0
H2122 H 0.22252 0.24862 0.09022 0.0
C2123 C 0.31775 0.30216 0.0437 0.0
C2124 C 0.26418 0.28823 0.04684 0.0
H2125 H 0.22178 0.28718 0.07487 0.0
C2126 C 0.26233 0.27016 0.03687 0.0
C2127 C 0.24941 0.29443 0.06077 0.0
C2128 C 0.25102 0.31324 0.07261 0.0
C2129 C 0.24618 0.25805 0.04051 0.0
C2130 C 0.23129 0.26437 0.05425 0.0
C2131 C 0.23309 0.28249 0.06417 0.0
C2132 C 0.21446 0.25171 0.05954 0.0
C2133 C 0.24556 0.23829 0.03012 0.0
C2134 C 0.20098 0.24618 0.04525 0.0
C2135 C 0.18622 0.23284 0.05008 0.0
C2136 C 0.18457 0.2249 0.06933 0.0
C2137 C 0.19757 0.23124 0.0838 0.0
C2138 C 0.21231 0.24452 0.07895 0.0
H2139 H 0.26012 0.23372 0.02351 0.0
H2140 H 0.24081 0.22645 0.04051 0.0
H2141 H 0.23478 0.23945 0.01802 0.0
H2142 H 0.2021 0.25189 0.03027 0.0
H2143 H 0.1763 0.22849 0.03865 0.0
H2144 H 0.24032 0.81111 0.50268 0.0
H2145 H 0.21761 0.83891 0.49458 0.0
H2146 H 0.23764 0.87141 0.54463 0.0
H2147 H 0.2609 0.84416 0.55235 0.0
H2148 H 0.18656 0.85616 0.51436 0.0
H2149 H 0.24208 0.91359 0.50284 0.0
H2150 H 0.24882 0.8875 0.50499 0.0
H2151 H 0.24343 0.9021 0.5268 0.0
C2152 C 0.24019 0.82424 0.51187 0.0
C2153 C 0.25277 0.82508 0.52824 0.0
C2154 C 0.22697 0.8402 0.50726 0.0
C2155 C 0.22592 0.85768 0.5187 0.0
C2156 C 0.23828 0.85847 0.53516 0.0
H2157 H 0.15577 0.97059 0.51605 0.0
H2158 H 0.17818 0.94248 0.52411 0.0
C2159 C 0.25148 0.84256 0.53977 0.0
C2160 C 0.21168 0.87479 0.51374 0.0
H2161 H 0.2086 0.92508 0.50446 0.0
C2162 C 0.19147 0.87119 0.51208 0.0
C2163 C 0.21778 0.89461 0.51077 0.0
C2164 C 0.23922 0.8997 0.51124 0.0
C2165 C 0.17736 0.88664 0.50806 0.0
C2166 C 0.18345 0.90647 0.50511 0.0
C2167 C 0.20368 0.91006 0.50673 0.0
C2168 C 0.16921 0.92364 0.50029 0.0
C2169 C 0.15592 0.88155 0.50767 0.0
C2170 C 0.15653 0.92289 0.48406 0.0
C2171 C 0.14352 0.93899 0.47948 0.0
C2172 C 0.14284 0.95656 0.49083 0.0
C2173 C 0.15564 0.95738 0.50697 0.0
C2174 C 0.16861 0.94122 0.51159 0.0
H2175 H 0.15309 0.86768 0.51611 0.0
H2176 H 0.14634 0.89375 0.51392 0.0
H2177 H 0.15167 0.8791 0.49213 0.0
H2178 H 0.1569 0.90993 0.47463 0.0
H2179 H 0.13418 0.93775 0.46678 0.0
H2180 H 0.93136 0.77572 0.49312 0.0
H2181 H 0.94591 0.74191 0.49206 0.0
H2182 H 0.91593 0.72789 0.54691 0.0
H2183 H 0.90135 0.7616 0.54811 0.0
H2184 H 0.95407 0.71279 0.54611 0.0
H2185 H 0.91657 0.69284 0.47715 0.0
H2186 H 0.93145 0.7143 0.47481 0.0
H2187 H 0.91001 0.71509 0.49088 0.0
C2188 C 0.92778 0.76545 0.50494 0.0
C2189 C 0.91504 0.7715 0.52065 0.0
C2190 C 0.93613 0.74606 0.5043 0.0
C2191 C 0.9318 0.73213 0.51924 0.0
C2192 C 0.91952 0.73828 0.53519 0.0
H2193 H 0.93802 0.60422 0.51272 0.0
H2194 H 0.92941 0.63963 0.51507 0.0
C2195 C 0.91124 0.75766 0.53588 0.0
C2196 C 0.93966 0.71107 0.51813 0.0
H2197 H 0.93923 0.66896 0.48999 0.0
C2198 C 0.95089 0.70323 0.5338 0.0
C2199 C 0.93536 0.69843 0.50219 0.0
C2200 C 0.92254 0.70548 0.48538 0.0
C2201 C 0.95781 0.6832 0.53401 0.0
C2202 C 0.95367 0.67063 0.51796 0.0
C2203 C 0.94258 0.67855 0.50224 0.0
C2204 C 0.95943 0.64892 0.51767 0.0
C2205 C 0.9689 0.6755 0.55175 0.0
C2206 C 0.97925 0.64208 0.51851 0.0
C2207 C 0.98423 0.6216 0.51732 0.0
C2208 C 0.9695 0.60764 0.51509 0.0
C2209 C 0.94974 0.61455 0.51446 0.0
C2210 C 0.94478 0.63486 0.51574 0.0
H2211 H 0.9668 0.68552 0.56469 0.0
H2212 H 0.96412 0.66042 0.55606 0.0
H2213 H 0.98487 0.67446 0.54799 0.0
H2214 H 0.9909 0.65257 0.5196 0.0
H2215 H 0.99959 0.61677 0.51761 0.0
H2216 H 0.38385 0.79254 0.54093 0.0
H2217 H 0.41147 0.81491 0.53764 0.0
H2218 H 0.37046 0.865 0.53222 0.0
H2219 H 0.3427 0.84247 0.53529 0.0
H2220 H 0.40506 0.86305 0.50389 0.0
H2221 H 0.42397 0.85373 0.58344 0.0
H2222 H 0.42175 0.83159 0.56897 0.0
H2223 H 0.40033 0.84716 0.57417 0.0
C2224 C 0.38083 0.80834 0.53894 0.0
C2225 C 0.36136 0.816 0.5384 0.0
C2226 C 0.39652 0.82102 0.53705 0.0
C2227 C 0.39289 0.8415 0.53477 0.0
C2228 C 0.37343 0.84916 0.53389 0.0
H2229 H 0.43552 0.95337 0.53908 0.0
H2230 H 0.42201 0.9224 0.52837 0.0
C2231 C 0.35768 0.83642 0.53575 0.0
C2232 C 0.40933 0.85516 0.53447 0.0
H2233 H 0.44145 0.87694 0.56493 0.0
C2234 C 0.41327 0.86594 0.51712 0.0
C2235 C 0.42018 0.8585 0.55167 0.0
C2236 C 0.41638 0.84726 0.5707 0.0
C2237 C 0.42717 0.88085 0.51684 0.0
C2238 C 0.43692 0.88527 0.53448 0.0
C2239 C 0.43397 0.87349 0.55141 0.0
C2240 C 0.44725 0.904 0.53695 0.0
C2241 C 0.43084 0.89212 0.49784 0.0
C2242 C 0.46602 0.90399 0.54528 0.0
C2243 C 0.47371 0.92176 0.55176 0.0
C2244 C 0.46259 0.93969 0.55014 0.0
C2245 C 0.44437 0.93977 0.54069 0.0
C2246 C 0.43674 0.92207 0.53425 0.0
H2247 H 0.429 0.88241 0.4848 0.0
H2248 H 0.41989 0.90468 0.49674 0.0
H2249 H 0.44586 0.89816 0.49721 0.0
H2250 H 0.47425 0.89012 0.54766 0.0
H2251 H 0.48783 0.92128 0.55895 0.0
H2252 H 0.5686 0.74738 0.82319 0.0
H2253 H 0.57408 0.71939 0.80018 0.0
H2254 H 0.54278 0.7525 0.75511 0.0
H2255 H 0.53766 0.78053 0.77797 0.0
H2256 H 0.54773 0.69618 0.77855 0.0
H2257 H 0.59665 0.73928 0.72906 0.0
H2258 H 0.58973 0.7474 0.75371 0.0
H2259 H 0.57306 0.75141 0.73361 0.0
C2260 C 0.56284 0.74851 0.80838 0.0
C2261 C 0.55279 0.76599 0.8022 0.0
C2262 C 0.56591 0.73258 0.79531 0.0
C2263 C 0.55907 0.73398 0.77587 0.0
C2264 C 0.54846 0.75124 0.76994 0.0
H2265 H 0.56204 0.66893 0.66834 0.0
H2266 H 0.55415 0.68986 0.69699 0.0
C2267 C 0.54544 0.76716 0.78297 0.0
C2268 C 0.56358 0.71778 0.76148 0.0
H2269 H 0.58574 0.70864 0.71655 0.0
C2270 C 0.55618 0.6988 0.76506 0.0
C2271 C 0.57483 0.72119 0.74403 0.0
C2272 C 0.5842 0.74086 0.73992 0.0
C2273 C 0.559 0.6834 0.75115 0.0
C2274 C 0.56957 0.68712 0.73337 0.0
C2275 C 0.57748 0.70589 0.73014 0.0
C2276 C 0.57187 0.67227 0.71727 0.0
C2277 C 0.55012 0.66351 0.75517 0.0
C2278 C 0.58399 0.65504 0.71933 0.0
C2279 C 0.58847 0.64292 0.70288 0.0
C2280 C 0.58104 0.64809 0.68422 0.0
C2281 C 0.56806 0.66469 0.68254 0.0
C2282 C 0.56355 0.67666 0.69888 0.0
H2283 H 0.53997 0.66391 0.76827 0.0
H2284 H 0.54192 0.65862 0.7421 0.0
H2285 H 0.56208 0.65224 0.75791 0.0
H2286 H 0.59076 0.65153 0.73335 0.0
H2287 H 0.59861 0.63025 0.70452 0.0
H2288 H 0.50277 0.8639 0.76891 0.0
H2289 H 0.49614 0.88262 0.73859 0.0
H2290 H 0.54946 0.9144 0.74554 0.0
H2291 H 0.55596 0.89632 0.77633 0.0
H2292 H 0.49124 0.92471 0.73317 0.0
H2293 H 0.55425 0.89477 0.68751 0.0
H2294 H 0.54594 0.88266 0.70994 0.0
H2295 H 0.56028 0.90453 0.71127 0.0
C2296 C 0.51308 0.87501 0.76431 0.0
C2297 C 0.52998 0.87837 0.77555 0.0
C2298 C 0.5093 0.88565 0.74669 0.0
C2299 C 0.52238 0.89986 0.73939 0.0
C2300 C 0.53926 0.90329 0.75046 0.0
H2301 H 0.51472 0.97653 0.63079 0.0
H2302 H 0.52657 0.96032 0.6615 0.0
C2303 C 0.54298 0.89279 0.76821 0.0
C2304 C 0.5179 0.91145 0.72068 0.0
H2305 H 0.53399 0.91984 0.67291 0.0
C2306 C 0.50065 0.92361 0.72004 0.0
C2307 C 0.53017 0.91037 0.70343 0.0
C2308 C 0.54864 0.89729 0.70287 0.0
C2309 C 0.49536 0.93452 0.70289 0.0
C2310 C 0.50726 0.93297 0.6854 0.0
C2311 C 0.52476 0.92115 0.68614 0.0
C2312 C 0.50094 0.94242 0.66606 0.0
C2313 C 0.47705 0.94786 0.7038 0.0
C2314 C 0.48291 0.93752 0.65786 0.0
C2315 C 0.47623 0.94664 0.6404 0.0
C2316 C 0.48731 0.96105 0.63033 0.0
C2317 C 0.50572 0.96561 0.63812 0.0
C2318 C 0.51249 0.95631 0.65572 0.0
H2319 H 0.4734 0.95252 0.71923 0.0
H2320 H 0.47877 0.96139 0.69453 0.0
H2321 H 0.46442 0.93961 0.69827 0.0
H2322 H 0.47383 0.92657 0.66505 0.0
H2323 H 0.46209 0.94248 0.6349 0.0
H2324 H 0.49926 0.34343 0.78979 0.0
H2325 H 0.49903 0.37708 0.80334 0.0
H2326 H 0.54572 0.35935 0.84266 0.0
H2327 H 0.54581 0.32549 0.82953 0.0
H2328 H 0.49371 0.38924 0.84487 0.0
H2329 H 0.56561 0.40897 0.81101 0.0
H2330 H 0.55148 0.38862 0.80227 0.0
H2331 H 0.56598 0.38562 0.8241 0.0
C2332 C 0.5093 0.34659 0.80153 0.0
C2333 C 0.52252 0.33177 0.80866 0.0
C2334 C 0.5092 0.36585 0.80914 0.0
C2335 C 0.52246 0.37065 0.82382 0.0
C2336 C 0.53556 0.35591 0.83111 0.0
H2337 H 0.53656 0.45545 0.91091 0.0
H2338 H 0.52318 0.42982 0.89048 0.0
C2339 C 0.53562 0.33662 0.82358 0.0
C2340 C 0.52269 0.39108 0.83161 0.0
H2341 H 0.55278 0.4301 0.83671 0.0
C2342 C 0.50648 0.39835 0.8429 0.0
C2343 C 0.53918 0.40302 0.82859 0.0
C2344 C 0.5565 0.39629 0.81568 0.0
C2345 C 0.50686 0.41689 0.85229 0.0
C2346 C 0.52397 0.42821 0.85045 0.0
C2347 C 0.53967 0.4214 0.83816 0.0
C2348 C 0.52711 0.44582 0.86288 0.0
C2349 C 0.48912 0.42398 0.8644 0.0
C2350 C 0.53325 0.46366 0.85424 0.0
C2351 C 0.54098 0.47845 0.86596 0.0
C2352 C 0.54284 0.47552 0.88647 0.0
C2353 C 0.53509 0.45837 0.89522 0.0
C2354 C 0.52739 0.44363 0.88352 0.0
H2355 H 0.47539 0.41779 0.8587 0.0
H2356 H 0.49077 0.41874 0.8799 0.0
H2357 H 0.48757 0.44047 0.86443 0.0
H2358 H 0.53317 0.46562 0.83832 0.0
H2359 H 0.54664 0.49159 0.85882 0.0
H2360 H 0.53231 0.23389 0.84118 0.0
H2361 H 0.53314 0.21134 0.86994 0.0
H2362 H 0.50599 0.16627 0.83559 0.0
H2363 H 0.50604 0.18842 0.80671 0.0
H2364 H 0.50512 0.1938 0.89138 0.0
H2365 H 0.55242 0.135 0.85592 0.0
H2366 H 0.54838 0.15918 0.84476 0.0
H2367 H 0.53043 0.14027 0.84235 0.0
C2368 C 0.52644 0.21919 0.8399 0.0
C2369 C 0.51884 0.21298 0.82187 0.0
C2370 C 0.52694 0.2063 0.85629 0.0
C2371 C 0.51995 0.18691 0.85491 0.0
C2372 C 0.51193 0.18092 0.83697 0.0
H2373 H 0.49983 0.09112 0.93913 0.0
H2374 H 0.50089 0.11326 0.91023 0.0
C2375 C 0.51165 0.1937 0.82055 0.0
C2376 C 0.52091 0.17303 0.87224 0.0
H2377 H 0.53692 0.12643 0.88667 0.0
C2378 C 0.51221 0.17914 0.89035 0.0
C2379 C 0.53025 0.15386 0.87103 0.0
C2380 C 0.54107 0.14676 0.85253 0.0
C2381 C 0.5122 0.16652 0.90704 0.0
C2382 C 0.52116 0.14727 0.90566 0.0
C2383 C 0.52995 0.14115 0.88765 0.0
C2384 C 0.52145 0.13328 0.92279 0.0
C2385 C 0.50229 0.17369 0.92599 0.0
C2386 C 0.53304 0.1369 0.93925 0.0
C2387 C 0.53265 0.12417 0.95573 0.0
C2388 C 0.52053 0.10758 0.95614 0.0
C2389 C 0.50932 0.10373 0.93937 0.0
C2390 C 0.50988 0.11638 0.92282 0.0
H2391 H 0.49331 0.1876 0.92377 0.0
H2392 H 0.49267 0.16209 0.93223 0.0
H2393 H 0.51369 0.17661 0.93705 0.0
H2394 H 0.54223 0.14976 0.93945 0.0
H2395 H 0.54141 0.1277 0.96837 0.0
H2396 H 0.78542 0.58946 0.78773 0.0
H2397 H 0.75531 0.59623 0.76902 0.0
H2398 H 0.7767 0.55581 0.72355 0.0
H2399 H 0.80732 0.55015 0.74165 0.0
H2400 H 0.75959 0.58433 0.70594 0.0
H2401 H 0.70759 0.56531 0.76634 0.0
H2402 H 0.72253 0.58548 0.77322 0.0
H2403 H 0.7338 0.56124 0.76852 0.0
C2404 C 0.78372 0.58208 0.77369 0.0
C2405 C 0.79876 0.56899 0.76643 0.0
C2406 C 0.76626 0.58574 0.76305 0.0
C2407 C 0.76304 0.57609 0.74494 0.0
C2408 C 0.77838 0.56339 0.73747 0.0
H2409 H 0.64501 0.5702 0.69217 0.0
H2410 H 0.67549 0.56408 0.71045 0.0
C2411 C 0.79595 0.56003 0.74794 0.0
C2412 C 0.7441 0.57945 0.73355 0.0
H2413 H 0.69357 0.5812 0.73809 0.0
C2414 C 0.7452 0.58352 0.71308 0.0
C2415 C 0.72499 0.5781 0.74239 0.0
C2416 C 0.72212 0.57208 0.76376 0.0
C2417 C 0.72818 0.58644 0.70148 0.0
C2418 C 0.70909 0.58614 0.71052 0.0
C2419 C 0.70797 0.5818 0.73094 0.0
C2420 C 0.69023 0.58996 0.69913 0.0
C2421 C 0.73101 0.58911 0.67943 0.0
C2422 C 0.68775 0.60671 0.68666 0.0
C2423 C 0.67038 0.61003 0.67586 0.0
C2424 C 0.65457 0.59702 0.67748 0.0
C2425 C 0.65678 0.58057 0.69038 0.0
C2426 C 0.67431 0.57707 0.70095 0.0
H2427 H 0.74524 0.58222 0.67415 0.0
H2428 H 0.71895 0.58246 0.67113 0.0
H2429 H 0.73128 0.60523 0.67589 0.0
H2430 H 0.69921 0.61745 0.68535 0.0
H2431 H 0.66927 0.62305 0.6664 0.0
H2432 H 0.23658 0.02535 0.7756 0.0
H2433 H 0.25917 0.02044 0.74703 0.0
H2434 H 0.3088 0.02449 0.78545 0.0
H2435 H 0.28619 0.02892 0.81402 0.0
H2436 H 0.28637 0.0452 0.73176 0.0
H2437 H 0.32445 0.97495 0.75484 0.0
H2438 H 0.3021 0.98431 0.7669 0.0
H2439 H 0.32547 0.99427 0.77294 0.0
C2440 C 0.25233 0.02487 0.77792 0.0
C2441 C 0.25967 0.02733 0.79701 0.0
C2442 C 0.26524 0.02216 0.76159 0.0
C2443 C 0.28579 0.02177 0.764 0.0
C2444 C 0.29309 0.02422 0.78315 0.0
H2445 H 0.38866 0.016 0.68446 0.0
H2446 H 0.36559 0.01864 0.71265 0.0
C2447 C 0.28017 0.02686 0.79948 0.0
C2448 C 0.29951 0.01968 0.74641 0.0
H2449 H 0.3386 0.99196 0.72734 0.0
C2450 C 0.29769 0.03345 0.73076 0.0
C2451 C 0.31439 1.00441 0.74499 0.0
C2452 C 0.31664 0.98853 0.76071 0.0
C2453 C 0.3105 0.03267 0.71408 0.0
C2454 C 0.32543 0.01746 0.71272 0.0
C2455 C 0.32722 1.00365 0.72833 0.0
C2456 C 0.33942 0.01571 0.69534 0.0
C2457 C 0.30824 0.04849 0.6983 0.0
C2458 C 0.33254 0.01289 0.67611 0.0
C2459 C 0.34575 0.01125 0.65989 0.0
C2460 C 0.36625 0.01227 0.66246 0.0
C2461 C 0.37307 0.01489 0.68181 0.0
C2462 C 0.35985 0.01651 0.698 0.0
H2463 H 0.29986 0.06185 0.70391 0.0
H2464 H 0.32283 0.05313 0.69259 0.0
H2465 H 0.30004 0.04245 0.68577 0.0
H2466 H 0.31692 0.01173 0.67364 0.0
H2467 H 0.33986 1.00885 0.64536 0.0
H2468 H 0.79112 0.59729 0.87146 0.0
H2469 H 0.76765 0.60216 0.89879 0.0
H2470 H 0.78431 0.54425 0.92206 0.0
H2471 H 0.80903 0.53997 0.89577 0.0
H2472 H 0.73712 0.58193 0.90361 0.0
H2473 H 0.77808 0.57336 0.9726 0.0
H2474 H 0.7904 0.57735 0.94906 0.0
H2475 H 0.78427 0.55259 0.95697 0.0
C2476 C 0.79037 0.58586 0.88276 0.0
C2477 C 0.802 0.56817 0.8813 0.0
C2478 C 0.77682 0.58866 0.89837 0.0
C2479 C 0.7744 0.57375 0.91271 0.0
C2480 C 0.78629 0.55628 0.91156 0.0
H2481 H 0.6882 0.51363 0.96535 0.0
H2482 H 0.71886 0.52969 0.95653 0.0
C2483 C 0.80011 0.55362 0.89618 0.0
C2484 C 0.75749 0.57494 0.9269 0.0
H2485 H 0.74382 0.56192 0.97395 0.0
C2486 C 0.73863 0.57828 0.91917 0.0
C2487 C 0.7594 0.57035 0.94726 0.0
C2488 C 0.77919 0.56845 0.95694 0.0
C2489 C 0.72166 0.57519 0.93069 0.0
C2490 C 0.72366 0.5686 0.95046 0.0
C2491 C 0.74241 0.56689 0.95873 0.0
C2492 C 0.70693 0.55961 0.96094 0.0
C2493 C 0.70177 0.57724 0.92114 0.0
C2494 C 0.69041 0.57118 0.9672 0.0
C2495 C 0.67283 0.562 0.9723 0.0
C2496 C 0.6717 0.54123 0.97093 0.0
C2497 C 0.68871 0.52969 0.96626 0.0
C2498 C 0.70624 0.53882 0.96138 0.0
H2499 H 0.70292 0.58156 0.90528 0.0
H2500 H 0.69405 0.56298 0.92228 0.0
H2501 H 0.69256 0.58875 0.929 0.0
H2502 H 0.69076 0.58727 0.96693 0.0
H2503 H 0.65986 0.57117 0.97598 0.0
H2504 H 0.2677 0.99435 0.9196 0.0
H2505 H 0.28527 0.98866 0.9501 0.0
H2506 H 0.2702 0.04867 0.96859 0.0
H2507 H 0.25071 0.0538 0.93915 0.0
H2508 H 0.31621 1.0066 0.95607 0.0
H2509 H 0.26847 0.02283 0.02107 0.0
H2510 H 0.25851 0.01888 0.99688 0.0
H2511 H 0.26644 0.04314 1.00393 0.0
C2512 C 0.26734 1.00612 0.93045 0.0
C2513 C 0.25793 0.02469 0.92664 0.0
C2514 C 0.27752 1.00283 0.94794 0.0
C2515 C 0.27898 0.01815 0.96179 0.0
C2516 C 0.26892 0.0364 0.95845 0.0
H2517 H 0.36994 0.06716 0.01466 0.0
H2518 H 0.33611 0.05752 0.01011 0.0
C2519 C 0.25824 0.03952 0.94123 0.0
C2520 C 0.294 0.01646 0.97738 0.0
H2521 H 0.30365 0.02997 0.02478 0.0
C2522 C 0.31329 0.01103 0.97128 0.0
C2523 C 0.29028 0.02236 0.99723 0.0
C2524 C 0.26972 0.02691 1.00515 0.0
C2525 C 0.32913 0.01278 0.9839 0.0
C2526 C 0.3256 0.02003 1.0033 0.0
C2527 C 0.30624 0.02437 0.00991 0.0
C2528 C 0.3423 0.02616 0.01515 0.0
C2529 C 0.34973 1.00833 0.97579 0.0
C2530 C 0.35647 0.01191 0.0213 0.0
C2531 C 0.37592 0.01736 0.0237 0.0
C2532 C 0.38119 0.03712 0.02019 0.0
C2533 C 0.3663 0.05181 0.01735 0.0
C2534 C 0.3469 0.04633 0.01482 0.0
H2535 H 0.34992 1.00499 0.95971 0.0
H2536 H 0.35927 0.02114 0.97822 0.0
H2537 H 0.35627 0.99524 0.98363 0.0
H2538 H 0.35307 0.99629 0.02175 0.0
H2539 H 0.38713 1.00584 0.02626 0.0
H2540 H 0.78792 0.83181 0.54514 0.0
H2541 H 0.75802 0.81322 0.55224 0.0
H2542 H 0.78803 0.75921 0.53222 0.0
H2543 H 0.81788 0.77787 0.52501 0.0
H2544 H 0.74918 0.76503 0.51765 0.0
H2545 H 0.75151 0.77457 0.59921 0.0
H2546 H 0.75202 0.79719 0.58497 0.0
H2547 H 0.77231 0.77942 0.58307 0.0
C2548 C 0.788 0.81598 0.54223 0.0
C2549 C 0.80503 0.80616 0.53456 0.0
C2550 C 0.77103 0.80538 0.54636 0.0
C2551 C 0.7709 0.78479 0.54299 0.0
C2552 C 0.78785 0.77507 0.53497 0.0
H2553 H 0.69391 0.68733 0.56145 0.0
H2554 H 0.71916 0.71 0.55045 0.0
C2555 C 0.80483 0.78567 0.53086 0.0
C2556 C 0.75319 0.77329 0.54798 0.0
H2557 H 0.72421 0.75824 0.58675 0.0
C2558 C 0.74368 0.76356 0.53274 0.0
C2559 C 0.74601 0.77148 0.56768 0.0
C2560 C 0.75604 0.78107 0.58474 0.0
C2561 C 0.72716 0.75205 0.53667 0.0
C2562 C 0.7202 0.74991 0.55642 0.0
C2563 C 0.72951 0.75994 0.57161 0.0
C2564 C 0.70401 0.73648 0.56184 0.0
C2565 C 0.71722 0.74242 0.5196 0.0
C2566 C 0.68713 0.74375 0.57214 0.0
C2567 C 0.67256 0.73076 0.57848 0.0
C2568 C 0.67466 0.71022 0.57473 0.0
C2569 C 0.69151 0.70309 0.56418 0.0
C2570 C 0.70603 0.71605 0.55788 0.0
H2571 H 0.72029 0.75026 0.50542 0.0
H2572 H 0.72294 0.72684 0.51809 0.0
H2573 H 0.70102 0.74219 0.52209 0.0
H2574 H 0.68532 0.75945 0.57545 0.0
H2575 H 0.65975 0.73678 0.58647 0.0
H2576 H 0.75066 0.32546 1.00633 0.0
H2577 H 0.72834 0.35406 1.00024 0.0
H2578 H 0.75096 0.38375 0.05086 0.0
H2579 H 0.77403 0.35587 0.05639 0.0
H2580 H 0.69856 0.37073 0.02064 0.0
H2581 H 0.75445 0.42817 0.01219 0.0
H2582 H 0.76106 0.40199 0.01305 0.0
H2583 H 0.75597 0.41558 0.03558 0.0
C2584 C 0.75124 0.33816 0.01603 0.0
C2585 C 0.76451 0.33799 0.03189 0.0
C2586 C 0.73822 0.35459 0.01259 0.0
C2587 C 0.73798 0.37154 0.02479 0.0
C2588 C 0.75098 0.3713 0.04078 0.0
H2589 H 0.66665 0.4842 0.02975 0.0
H2590 H 0.68916 0.45571 0.03659 0.0
C2591 C 0.76407 0.35497 0.04416 0.0
C2592 C 0.72387 0.3891 0.02113 0.0
H2593 H 0.72108 0.43993 0.01524 0.0
C2594 C 0.7036 0.38581 0.01934 0.0
C2595 C 0.7301 0.40903 0.01944 0.0
C2596 C 0.7516 0.41392 0.01996 0.0
C2597 C 0.68961 0.4016 0.01634 0.0
C2598 C 0.69584 0.4215 0.01472 0.0
C2599 C 0.71608 0.42483 0.01655 0.0
C2600 C 0.68173 0.43893 0.01071 0.0
C2601 C 0.66812 0.39678 0.0154 0.0
C2602 C 0.66997 0.43943 0.99378 0.0
C2603 C 0.65703 0.45574 0.98984 0.0
C2604 C 0.65541 0.47226 1.00264 0.0
C2605 C 0.66725 0.47181 0.01957 0.0
C2606 C 0.68026 0.45546 0.02348 0.0
H2607 H 0.66514 0.38228 0.02264 0.0
H2608 H 0.65864 0.40852 0.0226 0.0
H2609 H 0.66389 0.39574 0.99968 0.0
H2610 H 0.67099 0.42728 0.98333 0.0
H2611 H 0.64842 0.45544 0.97654 0.0
H2612 H 0.41182 0.28018 0.05293 0.0
H2613 H 0.42777 0.24705 0.05269 0.0
H2614 H 0.46125 0.26255 1.00035 0.0
H2615 H 0.44558 0.29596 1.00066 0.0
H2616 H 0.42649 0.21912 0.02107 0.0
H2617 H 0.5034 0.23805 0.03795 0.0
H2618 H 0.48264 0.25492 0.04289 0.0
H2619 H 0.49199 0.25173 0.01805 0.0
C2620 C 0.42284 0.27673 0.04155 0.0
C2621 C 0.42747 0.29087 0.02689 0.0
C2622 C 0.43186 0.2577 0.04137 0.0
C2623 C 0.44589 0.25234 0.02665 0.0
C2624 C 0.4507 0.26642 0.01205 0.0
H2625 H 0.50926 0.13862 1.00291 0.0
H2626 H 0.49898 0.174 1.0036 0.0
C2627 C 0.44158 0.28547 0.01214 0.0
C2628 C 0.45462 0.2317 0.02613 0.0
H2629 H 0.49766 0.20431 0.03114 0.0
C2630 C 0.44205 0.21588 0.02329 0.0
C2631 C 0.47497 0.22749 0.02881 0.0
C2632 C 0.48909 0.24388 0.03224 0.0
C2633 C 0.4492 0.19602 0.02304 0.0
C2634 C 0.46946 0.1917 0.02633 0.0
C2635 C 0.48213 0.20755 0.02879 0.0
C2636 C 0.47754 0.17079 0.02744 0.0
C2637 C 0.43497 0.17988 0.01886 0.0
C2638 C 0.46966 0.15735 0.04122 0.0
C2639 C 0.47541 0.13718 0.04076 0.0
C2640 C 0.48946 0.13002 0.02677 0.0
C2641 C 0.49846 0.1437 0.01393 0.0
C2642 C 0.49252 0.16391 0.01425 0.0
H2643 H 0.42187 0.18582 0.01087 0.0
H2644 H 0.44212 0.16776 0.00991 0.0
H2645 H 0.42969 0.17343 0.03307 0.0
H2646 H 0.45853 0.16234 0.05194 0.0
H2647 H 0.46831 0.12701 0.0509 0.0
H2648 H 0.89525 0.29988 0.03219 0.0
H2649 H 0.92421 0.31982 0.02596 0.0
H2650 H 0.88702 0.37313 0.02548 0.0
H2651 H 0.85783 0.35304 0.03156 0.0
H2652 H 0.91915 0.36807 0.99318 0.0
H2653 H 0.94388 0.35696 0.07088 0.0
H2654 H 0.93808 0.33549 0.05662 0.0
H2655 H 0.9188 0.35293 0.06399 0.0
C2656 C 0.89331 0.31585 0.03072 0.0
C2657 C 0.8745 0.32511 0.03246 0.0
C2658 C 0.90978 0.32714 0.02707 0.0
C2659 C 0.90764 0.34782 0.02528 0.0
C2660 C 0.88882 0.3571 0.02671 0.0
H2661 H 0.94875 0.45661 0.02892 0.0
H2662 H 0.93761 0.42576 0.01552 0.0
C2663 C 0.87227 0.34576 0.03032 0.0
C2664 C 0.9251 0.36003 0.02343 0.0
H2665 H 0.96002 0.38036 0.05157 0.0
C2666 C 0.9284 0.37054 1.00578 0.0
C2667 C 0.93739 0.36271 0.03973 0.0
C2668 C 0.93444 0.35153 0.05895 0.0
C2669 C 0.94285 0.3849 1.00453 0.0
C2670 C 0.95372 0.38909 0.02153 0.0
C2671 C 0.95166 0.37717 0.03853 0.0
C2672 C 0.9635 0.40818 0.0239 0.0
C2673 C 0.94567 0.39603 0.98531 0.0
C2674 C 0.98204 0.40877 0.03268 0.0
C2675 C 0.9883 0.42648 0.04083 0.0
C2676 C 0.97599 0.44368 0.04034 0.0
C2677 C 0.95839 0.44347 0.02982 0.0
C2678 C 0.95216 0.42586 0.02178 0.0
H2679 H 0.94391 0.38598 0.97253 0.0
H2680 H 0.93418 0.4081 0.98423 0.0
H2681 H 0.96041 0.40266 0.9842 0.0
H2682 H 0.99096 0.39525 0.03457 0.0
H2683 H 1.00203 0.4263 0.0487 0.0
loop_
_geom_bond_atom_site_label_1
_geom_bond_atom_site_label_2
_geom_bond_distance
_geom_bond_site_symmetry_2
_ccdc_geom_bond_type
C0 C1 1.443 1_455 S
C0 N4 1.376 . S
C0 C38 1.389 . S
C1 C0 1.443 1_655 S
C1 C2 1.340 . S
C1 H41 0.951 . S
C2 C1 1.340 . S
C2 C3 1.439 . S
C2 H42 0.950 . S
C3 C2 1.439 . S
C3 N4 1.374 1_655 S
C3 C37 1.395 . S
N4 C0 1.376 . S
N4 C3 1.374 1_455 S
N4 Co5 2.008 . S
Co5 N4 2.008 . S
Co5 N6 1.995 . S
Co5 N11 2.008 . S
Co5 N16 1.995 . S
Co5 N21 2.282 . S
Co5 N27 2.282 . S
N6 Co5 1.995 . S
N6 C7 1.376 1_455 S
N6 C10 1.383 . S
C7 N6 1.376 1_655 S
C7 C8 1.446 . S
C7 C37 1.391 . S
C8 C7 1.446 . S
C8 C9 1.339 1_655 S
C8 H43 0.949 . S
C9 C8 1.339 1_455 S
C9 C10 1.439 . S
C9 H44 0.950 . S
C10 N6 1.383 . S
C10 C9 1.439 . S
C10 C39 1.392 . S
N11 Co5 2.008 . S
N11 C12 1.376 . S
N11 C15 1.374 . S
C12 N11 1.376 . S
C12 C13 1.443 . S
C12 C39 1.389 . S
C13 C12 1.443 . S
C13 C14 1.340 . S
C13 H45 0.951 . S
C14 C13 1.340 . S
C14 C15 1.439 . S
C14 H46 0.950 . S
C15 N11 1.374 . S
C15 C14 1.439 . S
C15 C40 1.395 . S
N16 Co5 1.995 . S
N16 C17 1.376 . S
N16 C20 1.383 . S
C17 N16 1.376 . S
C17 C18 1.446 . S
C17 C40 1.391 . S
C18 C17 1.446 . S
C18 C19 1.339 . S
C18 H47 0.949 . S
C19 C18 1.339 . S
C19 C20 1.439 . S
C19 H48 0.950 . S
C20 N16 1.383 . S
C20 C19 1.439 . S
C20 C38 1.392 . S
N21 Co5 2.282 . S
N21 C24 1.332 . S
N21 C26 1.332 . S
C22 C23 1.386 . S
C22 C25 1.388 . S
C23 C22 1.386 . S
C23 C24 1.382 . S
C23 H49 0.950 . S
C24 N21 1.332 . S
C24 C23 1.382 . S
C24 H35 0.952 . S
C25 C22 1.388 . S
C25 C26 1.382 . S
C25 H50 0.950 . S
C26 N21 1.332 . S
C26 C25 1.382 . S
C26 H36 0.948 . S
N27 Co5 2.282 . S
N27 C31 1.332 . S
N27 C32 1.332 . S
C28 C29 1.388 . S
C28 C32 1.382 . S
C28 H51 0.950 . S
C29 C28 1.388 . S
C29 C30 1.386 . S
C30 C29 1.386 . S
C30 C31 1.382 . S
C30 H52 0.950 1_455 S
C31 N27 1.332 . S
C31 C30 1.382 . S
C31 H33 0.952 . S
C32 N27 1.332 . S
C32 C28 1.382 . S
C32 H34 0.948 . S
H33 C31 0.952 . S
H34 C32 0.948 . S
H35 C24 0.952 . S
H36 C26 0.948 . S
C37 C3 1.395 . S
C37 C7 1.391 . S
C38 C0 1.389 . S
C38 C20 1.392 . S
C39 C10 1.392 . S
C39 C12 1.389 . S
C40 C15 1.395 . S
C40 C17 1.391 . S
H41 C1 0.951 . S
H42 C2 0.950 . S
H43 C8 0.949 . S
H44 C9 0.950 . S
H45 C13 0.951 . S
H46 C14 0.950 . S
H47 C18 0.949 . S
H48 C19 0.950 . S
H49 C23 0.950 . S
H50 C25 0.950 . S
H51 C28 0.950 . S
H52 C30 0.950 1_655 S
C53 C54 1.443 . S
C53 N57 1.376 . S
C53 C91 1.389 . S
C54 C53 1.443 . S
C54 C55 1.340 . S
C54 H94 0.951 . S
C55 C54 1.340 . S
C55 C56 1.439 . S
C55 H95 0.950 . S
C56 C55 1.439 . S
C56 N57 1.374 . S
C56 C90 1.395 . S
N57 C53 1.376 . S
N57 C56 1.374 . S
N57 Co58 2.008 1_655 S
Co58 N57 2.008 1_455 S
Co58 N59 1.995 1_455 S
Co58 N64 2.008 . S
Co58 N69 1.995 . S
Co58 N74 2.282 . S
Co58 N80 2.282 1_455 S
N59 Co58 1.995 1_655 S
N59 C60 1.376 . S
N59 C63 1.383 . S
C60 N59 1.376 . S
C60 C61 1.446 . S
C60 C90 1.391 . S
C61 C60 1.446 . S
C61 C62 1.339 . S
C61 H96 0.949 . S
C62 C61 1.339 . S
C62 C63 1.439 . S
C62 H97 0.950 . S
C63 N59 1.383 . S
C63 C62 1.439 . S
C63 C92 1.392 1_655 S
N64 Co58 2.008 . S
N64 C65 1.376 . S
N64 C68 1.374 . S
C65 N64 1.376 . S
C65 C66 1.443 . S
C65 C92 1.389 . S
C66 C65 1.443 . S
C66 C67 1.340 . S
C66 H98 0.951 . S
C67 C66 1.340 . S
C67 C68 1.439 . S
C67 H99 0.950 . S
C68 N64 1.374 . S
C68 C67 1.439 . S
C68 C93 1.395 . S
N69 Co58 1.995 . S
N69 C70 1.376 . S
N69 C73 1.383 . S
C70 N69 1.376 . S
C70 C71 1.446 . S
C70 C93 1.391 . S
C71 C70 1.446 . S
C71 C72 1.339 . S
C71 H100 0.949 . S
C72 C71 1.339 . S
C72 C73 1.439 . S
C72 H101 0.950 . S
C73 N69 1.383 . S
C73 C72 1.439 . S
C73 C91 1.392 1_455 S
N74 Co58 2.282 . S
N74 C77 1.332 . S
N74 C79 1.332 1_455 S
C75 C76 1.386 . S
C75 C78 1.388 1_455 S
C76 C75 1.386 . S
C76 C77 1.382 . S
C76 H102 0.950 . S
C77 N74 1.332 . S
C77 C76 1.382 . S
C77 H88 0.952 . S
C78 C75 1.388 1_655 S
C78 C79 1.382 . S
C78 H103 0.950 . S
C79 N74 1.332 1_655 S
C79 C78 1.382 . S
C79 H89 0.948 . S
N80 Co58 2.282 1_655 S
N80 C84 1.332 . S
N80 C85 1.332 1_655 S
C81 C82 1.388 1_455 S
C81 C85 1.382 . S
C81 H104 0.950 . S
C82 C81 1.388 1_655 S
C82 C83 1.386 . S
C83 C82 1.386 . S
C83 C84 1.382 . S
C83 H105 0.950 . S
C84 N80 1.332 . S
C84 C83 1.382 . S
C84 H86 0.952 . S
C85 N80 1.332 1_455 S
C85 C81 1.382 . S
C85 H87 0.948 . S
H86 C84 0.952 . S
H87 C85 0.948 . S
H88 C77 0.952 . S
H89 C79 0.948 . S
C90 C56 1.395 . S
C90 C60 1.391 . S
C91 C53 1.389 . S
C91 C73 1.392 1_655 S
C92 C63 1.392 1_455 S
C92 C65 1.389 . S
C93 C68 1.395 . S
C93 C70 1.391 . S
H94 C54 0.951 . S
H95 C55 0.950 . S
H96 C61 0.949 . S
H97 C62 0.950 . S
H98 C66 0.951 . S
H99 C67 0.950 . S
H100 C71 0.949 . S
H101 C72 0.950 . S
H102 C76 0.950 . S
H103 C78 0.950 . S
H104 C81 0.950 . S
H105 C83 0.950 . S
C106 C107 1.443 . S
C106 N110 1.376 . S
C106 C144 1.389 1_565 S
C107 C106 1.443 . S
C107 C108 1.340 . S
C107 H147 0.951 . S
C108 C107 1.340 . S
C108 C109 1.439 . S
C108 H148 0.950 . S
C109 C108 1.439 . S
C109 N110 1.374 . S
C109 C143 1.395 . S
N110 C106 1.376 . S
N110 C109 1.374 . S
N110 Co111 2.008 1_565 S
Co111 N110 2.008 1_545 S
Co111 N112 1.995 . S
Co111 N117 2.008 . S
Co111 N122 1.995 . S
Co111 N127 2.282 . S
Co111 N133 2.282 . S
N112 Co111 1.995 . S
N112 C113 1.376 1_545 S
N112 C116 1.383 . S
C113 N112 1.376 1_565 S
C113 C114 1.446 . S
C113 C143 1.391 . S
C114 C113 1.446 . S
C114 C115 1.339 . S
C114 H149 0.949 . S
C115 C114 1.339 . S
C115 C116 1.439 1_565 S
C115 H150 0.950 . S
C116 N112 1.383 . S
C116 C115 1.439 1_545 S
C116 C145 1.392 . S
N117 Co111 2.008 . S
N117 C118 1.376 . S
N117 C121 1.374 . S
C118 N117 1.376 . S
C118 C119 1.443 . S
C118 C145 1.389 . S
C119 C118 1.443 . S
C119 C120 1.340 . S
C119 H151 0.951 . S
C120 C119 1.340 . S
C120 C121 1.439 . S
C120 H152 0.950 . S
C121 N117 1.374 . S
C121 C120 1.439 . S
C121 C146 1.395 . S
N122 Co111 1.995 . S
N122 C123 1.376 . S
N122 C126 1.383 . S
C123 N122 1.376 . S
C123 C124 1.446 . S
C123 C146 1.391 . S
C124 C123 1.446 . S
C124 C125 1.339 . S
C124 H153 0.949 . S
C125 C124 1.339 . S
C125 C126 1.439 . S
C125 H154 0.950 . S
C126 N122 1.383 . S
C126 C125 1.439 . S
C126 C144 1.392 . S
N127 Co111 2.282 . S
N127 C130 1.332 . S
N127 C132 1.332 . S
C128 C129 1.386 . S
C128 C131 1.388 . S
C129 C128 1.386 . S
C129 C130 1.382 . S
C129 H155 0.950 . S
C130 N127 1.332 . S
C130 C129 1.382 . S
C130 H141 0.952 . S
C131 C128 1.388 . S
C131 C132 1.382 . S
C131 H156 0.950 . S
C132 N127 1.332 . S
C132 C131 1.382 . S
C132 H142 0.948 1_545 S
N133 Co111 2.282 . S
N133 C137 1.332 1_545 S
N133 C138 1.332 . S
C134 C135 1.388 . S
C134 C138 1.382 . S
C134 H157 0.950 . S
C135 C134 1.388 . S
C135 C136 1.386 1_545 S
C136 C135 1.386 1_565 S
C136 C137 1.382 . S
C136 H158 0.950 . S
C137 N133 1.332 1_565 S
C137 C136 1.382 . S
C137 H139 0.952 . S
C138 N133 1.332 . S
C138 C134 1.382 . S
C138 H140 0.948 . S
H139 C137 0.952 . S
H140 C138 0.948 . S
H141 C130 0.952 . S
H142 C132 0.948 1_565 S
C143 C109 1.395 . S
C143 C113 1.391 . S
C144 C106 1.389 1_545 S
C144 C126 1.392 . S
C145 C116 1.392 . S
C145 C118 1.389 . S
C146 C121 1.395 . S
C146 C123 1.391 . S
H147 C107 0.951 . S
H148 C108 0.950 . S
H149 C114 0.949 . S
H150 C115 0.950 . S
H151 C119 0.951 . S
H152 C120 0.950 . S
H153 C124 0.949 . S
H154 C125 0.950 . S
H155 C129 0.950 . S
H156 C131 0.950 . S
H157 C134 0.950 . S
H158 C136 0.950 . S
C159 C160 1.443 . S
C159 N163 1.376 . S
C159 C197 1.389 . S
C160 C159 1.443 . S
C160 C161 1.340 . S
C160 H200 0.951 . S
C161 C160 1.340 . S
C161 C162 1.439 . S
C161 H201 0.950 . S
C162 C161 1.439 . S
C162 N163 1.374 . S
C162 C196 1.395 . S
N163 C159 1.376 . S
N163 C162 1.374 . S
N163 Co164 2.008 . S
Co164 N163 2.008 . S
Co164 N165 1.995 . S
Co164 N170 2.008 . S
Co164 N175 1.995 . S
Co164 N180 2.282 . S
Co164 N186 2.282 . S
N165 Co164 1.995 . S
N165 C166 1.376 . S
N165 C169 1.383 . S
C166 N165 1.376 . S
C166 C167 1.446 . S
C166 C196 1.391 . S
C167 C166 1.446 . S
C167 C168 1.339 . S
C167 H202 0.949 . S
C168 C167 1.339 . S
C168 C169 1.439 . S
C168 H203 0.950 . S
C169 N165 1.383 . S
C169 C168 1.439 . S
C169 C198 1.392 . S
N170 Co164 2.008 . S
N170 C171 1.376 . S
N170 C174 1.374 . S
C171 N170 1.376 . S
C171 C172 1.443 . S
C171 C198 1.389 . S
C172 C171 1.443 . S
C172 C173 1.340 . S
C172 H204 0.951 . S
C173 C172 1.340 . S
C173 C174 1.439 . S
C173 H205 0.950 . S
C174 N170 1.374 . S
C174 C173 1.439 . S
C174 C199 1.395 . S
N175 Co164 1.995 . S
N175 C176 1.376 . S
N175 C179 1.383 . S
C176 N175 1.376 . S
C176 C177 1.446 . S
C176 C199 1.391 . S
C177 C176 1.446 . S
C177 C178 1.339 . S
C177 H206 0.949 . S
C178 C177 1.339 . S
C178 C179 1.439 . S
C178 H207 0.950 . S
C179 N175 1.383 . S
C179 C178 1.439 . S
C179 C197 1.392 . S
N180 Co164 2.282 . S
N180 C183 1.332 . S
N180 C185 1.332 . S
C181 C182 1.386 . S
C181 C184 1.388 . S
C182 C181 1.386 . S
C182 C183 1.382 . S
C182 H208 0.950 . S
C183 N180 1.332 . S
C183 C182 1.382 . S
C183 H194 0.952 . S
C184 C181 1.388 . S
C184 C185 1.382 . S
C184 H209 0.950 . S
C185 N180 1.332 . S
C185 C184 1.382 . S
C185 H195 0.948 . S
N186 Co164 2.282 . S
N186 C190 1.332 . S
N186 C191 1.332 . S
C187 C188 1.388 . S
C187 C191 1.382 . S
C187 H210 0.950 . S
C188 C187 1.388 . S
C188 C189 1.386 . S
C189 C188 1.386 . S
C189 C190 1.382 . S
C189 H211 0.950 . S
C190 N186 1.332 . S
C190 C189 1.382 . S
C190 H192 0.952 . S
C191 N186 1.332 . S
C191 C187 1.382 . S
C191 H193 0.948 . S
H192 C190 0.952 . S
H193 C191 0.948 . S
H194 C183 0.952 . S
H195 C185 0.948 . S
C196 C162 1.395 . S
C196 C166 1.391 . S
C197 C159 1.389 . S
C197 C179 1.392 . S
C198 C169 1.392 . S
C198 C171 1.389 . S
C199 C174 1.395 . S
C199 C176 1.391 . S
H200 C160 0.951 . S
H201 C161 0.950 . S
H202 C167 0.949 . S
H203 C168 0.950 . S
H204 C172 0.951 . S
H205 C173 0.950 . S
H206 C177 0.949 . S
H207 C178 0.950 . S
H208 C182 0.950 . S
H209 C184 0.950 . S
H210 C187 0.950 . S
H211 C189 0.950 . S
C212 C213 1.443 . S
C212 N216 1.376 . S
C212 C250 1.389 . S
C213 C212 1.443 . S
C213 C214 1.340 . S
C213 H253 0.951 . S
C214 C213 1.340 . S
C214 C215 1.439 . S
C214 H254 0.950 . S
C215 C214 1.439 . S
C215 N216 1.374 . S
C215 C249 1.395 . S
N216 C212 1.376 . S
N216 C215 1.374 . S
N216 Co217 2.008 1_556 S
Co217 N216 2.008 1_554 S
Co217 N218 1.995 1_554 S
Co217 N223 2.008 . S
Co217 N228 1.995 . S
Co217 N233 2.282 . S
Co217 N239 2.282 1_554 S
N218 Co217 1.995 1_556 S
N218 C219 1.376 . S
N218 C222 1.383 . S
C219 N218 1.376 . S
C219 C220 1.446 . S
C219 C249 1.391 . S
C220 C219 1.446 . S
C220 C221 1.339 . S
C220 H255 0.949 . S
C221 C220 1.339 . S
C221 C222 1.439 . S
C221 H256 0.950 . S
C222 N218 1.383 . S
C222 C221 1.439 . S
C222 C251 1.392 1_556 S
N223 Co217 2.008 . S
N223 C224 1.376 . S
N223 C227 1.374 . S
C224 N223 1.376 . S
C224 C225 1.443 . S
C224 C251 1.389 . S
C225 C224 1.443 . S
C225 C226 1.340 . S
C225 H257 0.951 . S
C226 C225 1.340 . S
C226 C227 1.439 . S
C226 H258 0.950 . S
C227 N223 1.374 . S
C227 C226 1.439 . S
C227 C252 1.395 . S
N228 Co217 1.995 . S
N228 C229 1.376 . S
N228 C232 1.383 . S
C229 N228 1.376 . S
C229 C230 1.446 . S
C229 C252 1.391 . S
C230 C229 1.446 . S
C230 C231 1.339 . S
C230 H259 0.949 . S
C231 C230 1.339 . S
C231 C232 1.439 . S
C231 H260 0.950 . S
C232 N228 1.383 . S
C232 C231 1.439 . S
C232 C250 1.392 1_554 S
N233 Co217 2.282 . S
N233 C236 1.332 . S
N233 C238 1.332 1_554 S
C234 C235 1.386 . S
C234 C237 1.388 1_554 S
C235 C234 1.386 . S
C235 C236 1.382 . S
C235 H261 0.950 . S
C236 N233 1.332 . S
C236 C235 1.382 . S
C236 H247 0.952 . S
C237 C234 1.388 1_556 S
C237 C238 1.382 . S
C237 H262 0.950 . S
C238 N233 1.332 1_556 S
C238 C237 1.382 . S
C238 H248 0.948 . S
N239 Co217 2.282 1_556 S
N239 C243 1.332 . S
N239 C244 1.332 1_556 S
C240 C241 1.388 1_554 S
C240 C244 1.382 . S
C240 H263 0.950 . S
C241 C240 1.388 1_556 S
C241 C242 1.386 . S
C242 C241 1.386 . S
C242 C243 1.382 . S
C242 H264 0.950 . S
C243 N239 1.332 . S
C243 C242 1.382 . S
C243 H245 0.952 . S
C244 N239 1.332 1_554 S
C244 C240 1.382 . S
C244 H246 0.948 . S
H245 C243 0.952 . S
H246 C244 0.948 . S
H247 C236 0.952 . S
H248 C238 0.948 . S
C249 C215 1.395 . S
C249 C219 1.391 . S
C250 C212 1.389 . S
C250 C232 1.392 1_556 S
C251 C222 1.392 1_554 S
C251 C224 1.389 . S
C252 C227 1.395 . S
C252 C229 1.391 . S
H253 C213 0.951 . S
H254 C214 0.950 . S
H255 C220 0.949 . S
H256 C221 0.950 . S
H257 C225 0.951 . S
H258 C226 0.950 . S
H259 C230 0.949 . S
H260 C231 0.950 . S
H261 C235 0.950 . S
H262 C237 0.950 . S
H263 C240 0.950 . S
H264 C242 0.950 . S
C265 C266 1.443 . S
C265 N269 1.376 . S
C265 C303 1.389 . S
C266 C265 1.443 . S
C266 C267 1.340 . S
C266 H306 0.951 . S
C267 C266 1.340 . S
C267 C268 1.439 . S
C267 H307 0.950 . S
C268 C267 1.439 . S
C268 N269 1.374 . S
C268 C302 1.395 . S
N269 C265 1.376 . S
N269 C268 1.374 . S
N269 Co270 2.008 . S
Co270 N269 2.008 . S
Co270 N271 1.995 . S
Co270 N276 2.008 . S
Co270 N281 1.995 . S
Co270 N286 2.282 . S
Co270 N292 2.282 . S
N271 Co270 1.995 . S
N271 C272 1.376 . S
N271 C275 1.383 . S
C272 N271 1.376 . S
C272 C273 1.446 . S
C272 C302 1.391 . S
C273 C272 1.446 . S
C273 C274 1.339 . S
C273 H308 0.949 . S
C274 C273 1.339 . S
C274 C275 1.439 . S
C274 H309 0.950 . S
C275 N271 1.383 . S
C275 C274 1.439 . S
C275 C304 1.392 . S
N276 Co270 2.008 . S
N276 C277 1.376 . S
N276 C280 1.374 . S
C277 N276 1.376 . S
C277 C278 1.443 . S
C277 C304 1.389 . S
C278 C277 1.443 . S
C278 C279 1.340 . S
C278 H310 0.951 . S
C279 C278 1.340 . S
C279 C280 1.439 . S
C279 H311 0.950 . S
C280 N276 1.374 . S
C280 C279 1.439 . S
C280 C305 1.395 . S
N281 Co270 1.995 . S
N281 C282 1.376 . S
N281 C285 1.383 . S
C282 N281 1.376 . S
C282 C283 1.446 . S
C282 C305 1.391 . S
C283 C282 1.446 . S
C283 C284 1.339 . S
C283 H312 0.949 . S
C284 C283 1.339 . S
C284 C285 1.439 . S
C284 H313 0.950 . S
C285 N281 1.383 . S
C285 C284 1.439 . S
C285 C303 1.392 . S
N286 Co270 2.282 . S
N286 C289 1.332 . S
N286 C291 1.332 . S
C287 C288 1.386 . S
C287 C290 1.388 . S
C288 C287 1.386 . S
C288 C289 1.382 . S
C288 H314 0.950 . S
C289 N286 1.332 . S
C289 C288 1.382 . S
C289 H300 0.952 . S
C290 C287 1.388 . S
C290 C291 1.382 . S
C290 H315 0.950 . S
C291 N286 1.332 . S
C291 C290 1.382 . S
C291 H301 0.948 . S
N292 Co270 2.282 . S
N292 C296 1.332 . S
N292 C297 1.332 . S
C293 C294 1.388 . S
C293 C297 1.382 . S
C293 H316 0.950 . S
C294 C293 1.388 . S
C294 C295 1.386 . S
C295 C294 1.386 . S
C295 C296 1.382 . S
C295 H317 0.950 . S
C296 N292 1.332 . S
C296 C295 1.382 . S
C296 H298 0.952 . S
C297 N292 1.332 . S
C297 C293 1.382 . S
C297 H299 0.948 . S
H298 C296 0.952 . S
H299 C297 0.948 . S
H300 C289 0.952 . S
H301 C291 0.948 . S
C302 C268 1.395 . S
C302 C272 1.391 . S
C303 C265 1.389 . S
C303 C285 1.392 . S
C304 C275 1.392 . S
C304 C277 1.389 . S
C305 C280 1.395 . S
C305 C282 1.391 . S
H306 C266 0.951 . S
H307 C267 0.950 . S
H308 C273 0.949 . S
H309 C274 0.950 . S
H310 C278 0.951 . S
H311 C279 0.950 . S
H312 C283 0.949 . S
H313 C284 0.950 . S
H314 C288 0.950 . S
H315 C290 0.950 . S
H316 C293 0.950 . S
H317 C295 0.950 . S
C318 C319 1.443 . S
C318 N322 1.376 . S
C318 C356 1.389 . S
C319 C318 1.443 . S
C319 C320 1.340 . S
C319 H359 0.951 . S
C320 C319 1.340 . S
C320 C321 1.439 . S
C320 H360 0.950 . S
C321 C320 1.439 . S
C321 N322 1.374 . S
C321 C355 1.395 . S
N322 C318 1.376 . S
N322 C321 1.374 . S
N322 Co323 2.008 . S
Co323 N322 2.008 . S
Co323 N324 1.995 . S
Co323 N329 2.008 . S
Co323 N334 1.995 . S
Co323 N339 2.282 . S
Co323 N345 2.282 . S
N324 Co323 1.995 . S
N324 C325 1.376 . S
N324 C328 1.383 . S
C325 N324 1.376 . S
C325 C326 1.446 . S
C325 C355 1.391 . S
C326 C325 1.446 . S
C326 C327 1.339 . S
C326 H361 0.949 . S
C327 C326 1.339 . S
C327 C328 1.439 . S
C327 H362 0.950 . S
C328 N324 1.383 . S
C328 C327 1.439 . S
C328 C357 1.392 . S
N329 Co323 2.008 . S
N329 C330 1.376 . S
N329 C333 1.374 . S
C330 N329 1.376 . S
C330 C331 1.443 . S
C330 C357 1.389 . S
C331 C330 1.443 . S
C331 C332 1.340 . S
C331 H363 0.951 . S
C332 C331 1.340 . S
C332 C333 1.439 . S
C332 H364 0.950 . S
C333 N329 1.374 . S
C333 C332 1.439 . S
C333 C358 1.395 . S
N334 Co323 1.995 . S
N334 C335 1.376 . S
N334 C338 1.383 . S
C335 N334 1.376 . S
C335 C336 1.446 . S
C335 C358 1.391 . S
C336 C335 1.446 . S
C336 C337 1.339 . S
C336 H365 0.949 . S
C337 C336 1.339 . S
C337 C338 1.439 . S
C337 H366 0.950 . S
C338 N334 1.383 . S
C338 C337 1.439 . S
C338 C356 1.392 . S
N339 Co323 2.282 . S
N339 C342 1.332 . S
N339 C344 1.332 . S
C340 C341 1.386 . S
C340 C343 1.388 . S
C341 C340 1.386 . S
C341 C342 1.382 . S
C341 H367 0.950 . S
C342 N339 1.332 . S
C342 C341 1.382 . S
C342 H353 0.952 . S
C343 C340 1.388 . S
C343 C344 1.382 . S
C343 H368 0.950 . S
C344 N339 1.332 . S
C344 C343 1.382 . S
C344 H354 0.948 . S
N345 Co323 2.282 . S
N345 C349 1.332 . S
N345 C350 1.332 . S
C346 C347 1.388 . S
C346 C350 1.382 . S
C346 H369 0.950 . S
C347 C346 1.388 . S
C347 C348 1.386 . S
C348 C347 1.386 . S
C348 C349 1.382 . S
C348 H370 0.950 . S
C349 N345 1.332 . S
C349 C348 1.382 . S
C349 H351 0.952 . S
C350 N345 1.332 . S
C350 C346 1.382 . S
C350 H352 0.948 . S
H351 C349 0.952 . S
H352 C350 0.948 . S
H353 C342 0.952 . S
H354 C344 0.948 . S
C355 C321 1.395 . S
C355 C325 1.391 . S
C356 C318 1.389 . S
C356 C338 1.392 . S
C357 C328 1.392 . S
C357 C330 1.389 . S
C358 C333 1.395 . S
C358 C335 1.391 . S
H359 C319 0.951 . S
H360 C320 0.950 . S
H361 C326 0.949 . S
H362 C327 0.950 . S
H363 C331 0.951 . S
H364 C332 0.950 . S
H365 C336 0.949 . S
H366 C337 0.950 . S
H367 C341 0.950 . S
H368 C343 0.950 . S
H369 C346 0.950 . S
H370 C348 0.950 . S
C371 C372 1.443 . S
C371 N375 1.376 . S
C371 C409 1.389 . S
C372 C371 1.443 . S
C372 C373 1.340 . S
C372 H412 0.951 . S
C373 C372 1.340 . S
C373 C374 1.439 . S
C373 H413 0.950 . S
C374 C373 1.439 . S
C374 N375 1.374 . S
C374 C408 1.395 . S
N375 C371 1.376 . S
N375 C374 1.374 . S
N375 Co376 2.008 . S
Co376 N375 2.008 . S
Co376 N377 1.995 . S
Co376 N382 2.008 . S
Co376 N387 1.995 . S
Co376 N392 2.282 . S
Co376 N398 2.282 . S
N377 Co376 1.995 . S
N377 C378 1.376 . S
N377 C381 1.383 . S
C378 N377 1.376 . S
C378 C379 1.446 . S
C378 C408 1.391 . S
C379 C378 1.446 . S
C379 C380 1.339 . S
C379 H414 0.949 . S
C380 C379 1.339 . S
C380 C381 1.439 . S
C380 H415 0.950 . S
C381 N377 1.383 . S
C381 C380 1.439 . S
C381 C410 1.392 . S
N382 Co376 2.008 . S
N382 C383 1.376 . S
N382 C386 1.374 . S
C383 N382 1.376 . S
C383 C384 1.443 . S
C383 C410 1.389 . S
C384 C383 1.443 . S
C384 C385 1.340 . S
C384 H416 0.951 . S
C385 C384 1.340 . S
C385 C386 1.439 . S
C385 H417 0.950 . S
C386 N382 1.374 . S
C386 C385 1.439 . S
C386 C411 1.395 . S
N387 Co376 1.995 . S
N387 C388 1.376 . S
N387 C391 1.383 . S
C388 N387 1.376 . S
C388 C389 1.446 . S
C388 C411 1.391 . S
C389 C388 1.446 . S
C389 C390 1.339 . S
C389 H418 0.949 . S
C390 C389 1.339 . S
C390 C391 1.439 . S
C390 H419 0.950 . S
C391 N387 1.383 . S
C391 C390 1.439 . S
C391 C409 1.392 . S
N392 Co376 2.282 . S
N392 C395 1.332 . S
N392 C397 1.332 . S
C393 C394 1.386 . S
C393 C396 1.388 . S
C394 C393 1.386 . S
C394 C395 1.382 . S
C394 H420 0.950 . S
C395 N392 1.332 . S
C395 C394 1.382 . S
C395 H406 0.952 . S
C396 C393 1.388 . S
C396 C397 1.382 . S
C396 H421 0.950 . S
C397 N392 1.332 . S
C397 C396 1.382 . S
C397 H407 0.948 . S
N398 Co376 2.282 . S
N398 C402 1.332 . S
N398 C403 1.332 . S
C399 C400 1.388 . S
C399 C403 1.382 . S
C399 H422 0.950 . S
C400 C399 1.388 . S
C400 C401 1.386 . S
C401 C400 1.386 . S
C401 C402 1.382 . S
C401 H423 0.950 . S
C402 N398 1.332 . S
C402 C401 1.382 . S
C402 H404 0.952 . S
C403 N398 1.332 . S
C403 C399 1.382 . S
C403 H405 0.948 . S
H404 C402 0.952 . S
H405 C403 0.948 . S
H406 C395 0.952 . S
H407 C397 0.948 . S
C408 C374 1.395 . S
C408 C378 1.391 . S
C409 C371 1.389 . S
C409 C391 1.392 . S
C410 C381 1.392 . S
C410 C383 1.389 . S
C411 C386 1.395 . S
C411 C388 1.391 . S
H412 C372 0.951 . S
H413 C373 0.950 . S
H414 C379 0.949 . S
H415 C380 0.950 . S
H416 C384 0.951 . S
H417 C385 0.950 . S
H418 C389 0.949 . S
H419 C390 0.950 . S
H420 C394 0.950 . S
H421 C396 0.950 . S
H422 C399 0.950 . S
H423 C401 0.950 . S
C424 C425 1.443 . S
C424 N428 1.376 . S
C424 C462 1.389 . S
C425 C424 1.443 . S
C425 C426 1.340 . S
C425 H465 0.951 . S
C426 C425 1.340 . S
C426 C427 1.439 . S
C426 H466 0.950 . S
C427 C426 1.439 . S
C427 N428 1.374 . S
C427 C461 1.395 . S
N428 C424 1.376 . S
N428 C427 1.374 . S
N428 Co429 2.008 . S
Co429 N428 2.008 . S
Co429 N430 1.995 . S
Co429 N435 2.008 . S
Co429 N440 1.995 . S
Co429 N445 2.282 . S
Co429 N451 2.282 . S
N430 Co429 1.995 . S
N430 C431 1.376 . S
N430 C434 1.383 . S
C431 N430 1.376 . S
C431 C432 1.446 . S
C431 C461 1.391 . S
C432 C431 1.446 . S
C432 C433 1.339 . S
C432 H467 0.949 . S
C433 C432 1.339 . S
C433 C434 1.439 . S
C433 H468 0.950 . S
C434 N430 1.383 . S
C434 C433 1.439 . S
C434 C463 1.392 . S
N435 Co429 2.008 . S
N435 C436 1.376 . S
N435 C439 1.374 . S
C436 N435 1.376 . S
C436 C437 1.443 . S
C436 C463 1.389 . S
C437 C436 1.443 . S
C437 C438 1.340 . S
C437 H469 0.951 . S
C438 C437 1.340 . S
C438 C439 1.439 . S
C438 H470 0.950 . S
C439 N435 1.374 . S
C439 C438 1.439 . S
C439 C464 1.395 . S
N440 Co429 1.995 . S
N440 C441 1.376 . S
N440 C444 1.383 . S
C441 N440 1.376 . S
C441 C442 1.446 . S
C441 C464 1.391 . S
C442 C441 1.446 . S
C442 C443 1.339 . S
C442 H471 0.949 . S
C443 C442 1.339 . S
C443 C444 1.439 . S
C443 H472 0.950 . S
C444 N440 1.383 . S
C444 C443 1.439 . S
C444 C462 1.392 . S
N445 Co429 2.282 . S
N445 C448 1.332 . S
N445 C450 1.332 . S
C446 C447 1.386 . S
C446 C449 1.388 . S
C447 C446 1.386 . S
C447 C448 1.382 . S
C447 H473 0.950 . S
C448 N445 1.332 . S
C448 C447 1.382 . S
C448 H459 0.952 . S
C449 C446 1.388 . S
C449 C450 1.382 . S
C449 H474 0.950 . S
C450 N445 1.332 . S
C450 C449 1.382 . S
C450 H460 0.948 . S
N451 Co429 2.282 . S
N451 C455 1.332 . S
N451 C456 1.332 . S
C452 C453 1.388 . S
C452 C456 1.382 . S
C452 H475 0.950 . S
C453 C452 1.388 . S
C453 C454 1.386 . S
C454 C453 1.386 . S
C454 C455 1.382 . S
C454 H476 0.950 . S
C455 N451 1.332 . S
C455 C454 1.382 . S
C455 H457 0.952 . S
C456 N451 1.332 . S
C456 C452 1.382 . S
C456 H458 0.948 . S
H457 C455 0.952 . S
H458 C456 0.948 . S
H459 C448 0.952 . S
H460 C450 0.948 . S
C461 C427 1.395 . S
C461 C431 1.391 . S
C462 C424 1.389 . S
C462 C444 1.392 . S
C463 C434 1.392 . S
C463 C436 1.389 . S
C464 C439 1.395 . S
C464 C441 1.391 . S
H465 C425 0.951 . S
H466 C426 0.950 . S
H467 C432 0.949 . S
H468 C433 0.950 . S
H469 C437 0.951 . S
H470 C438 0.950 . S
H471 C442 0.949 . S
H472 C443 0.950 . S
H473 C447 0.950 . S
H474 C449 0.950 . S
H475 C452 0.950 . S
H476 C454 0.950 . S
C477 C478 1.443 . S
C477 N481 1.376 . S
C477 C515 1.389 . S
C478 C477 1.443 . S
C478 C479 1.340 . S
C478 H518 0.951 . S
C479 C478 1.340 . S
C479 C480 1.439 . S
C479 H519 0.950 . S
C480 C479 1.439 . S
C480 N481 1.374 . S
C480 C514 1.395 . S
N481 C477 1.376 . S
N481 C480 1.374 . S
N481 Co482 2.008 . S
Co482 N481 2.008 . S
Co482 N483 1.995 . S
Co482 N488 2.008 . S
Co482 N493 1.995 . S
Co482 N498 2.282 . S
Co482 N504 2.282 . S
N483 Co482 1.995 . S
N483 C484 1.376 . S
N483 C487 1.383 . S
C484 N483 1.376 . S
C484 C485 1.446 . S
C484 C514 1.391 . S
C485 C484 1.446 . S
C485 C486 1.339 . S
C485 H520 0.949 . S
C486 C485 1.339 . S
C486 C487 1.439 . S
C486 H521 0.950 . S
C487 N483 1.383 . S
C487 C486 1.439 . S
C487 C516 1.392 . S
N488 Co482 2.008 . S
N488 C489 1.376 . S
N488 C492 1.374 . S
C489 N488 1.376 . S
C489 C490 1.443 . S
C489 C516 1.389 . S
C490 C489 1.443 . S
C490 C491 1.340 . S
C490 H522 0.951 . S
C491 C490 1.340 . S
C491 C492 1.439 . S
C491 H523 0.950 . S
C492 N488 1.374 . S
C492 C491 1.439 . S
C492 C517 1.395 . S
N493 Co482 1.995 . S
N493 C494 1.376 . S
N493 C497 1.383 . S
C494 N493 1.376 . S
C494 C495 1.446 . S
C494 C517 1.391 . S
C495 C494 1.446 . S
C495 C496 1.339 . S
C495 H524 0.949 . S
C496 C495 1.339 . S
C496 C497 1.439 . S
C496 H525 0.950 . S
C497 N493 1.383 . S
C497 C496 1.439 . S
C497 C515 1.392 . S
N498 Co482 2.282 . S
N498 C501 1.332 . S
N498 C503 1.332 . S
C499 C500 1.386 . S
C499 C502 1.388 . S
C500 C499 1.386 . S
C500 C501 1.382 . S
C500 H526 0.950 . S
C501 N498 1.332 . S
C501 C500 1.382 . S
C501 H512 0.952 . S
C502 C499 1.388 . S
C502 C503 1.382 . S
C502 H527 0.950 . S
C503 N498 1.332 . S
C503 C502 1.382 . S
C503 H513 0.948 . S
N504 Co482 2.282 . S
N504 C508 1.332 . S
N504 C509 1.332 . S
C505 C506 1.388 . S
C505 C509 1.382 . S
C505 H528 0.950 . S
C506 C505 1.388 . S
C506 C507 1.386 . S
C507 C506 1.386 . S
C507 C508 1.382 . S
C507 H529 0.950 . S
C508 N504 1.332 . S
C508 C507 1.382 . S
C508 H510 0.952 . S
C509 N504 1.332 . S
C509 C505 1.382 . S
C509 H511 0.948 . S
H510 C508 0.952 . S
H511 C509 0.948 . S
H512 C501 0.952 . S
H513 C503 0.948 . S
C514 C480 1.395 . S
C514 C484 1.391 . S
C515 C477 1.389 . S
C515 C497 1.392 . S
C516 C487 1.392 . S
C516 C489 1.389 . S
C517 C492 1.395 . S
C517 C494 1.391 . S
H518 C478 0.951 . S
H519 C479 0.950 . S
H520 C485 0.949 . S
H521 C486 0.950 . S
H522 C490 0.951 . S
H523 C491 0.950 . S
H524 C495 0.949 . S
H525 C496 0.950 . S
H526 C500 0.950 . S
H527 C502 0.950 . S
H528 C505 0.950 . S
H529 C507 0.950 . S
C530 C531 1.443 . S
C530 N534 1.376 . S
C530 C568 1.389 . S
C531 C530 1.443 . S
C531 C532 1.340 . S
C531 H571 0.951 . S
C532 C531 1.340 . S
C532 C533 1.439 . S
C532 H572 0.950 . S
C533 C532 1.439 . S
C533 N534 1.374 . S
C533 C567 1.395 . S
N534 C530 1.376 . S
N534 C533 1.374 . S
N534 Co535 2.008 . S
Co535 N534 2.008 . S
Co535 N536 1.995 . S
Co535 N541 2.008 1_545 S
Co535 N546 1.995 1_545 S
Co535 N551 2.282 1_545 S
Co535 N557 2.282 . S
N536 Co535 1.995 . S
N536 C537 1.376 . S
N536 C540 1.383 . S
C537 N536 1.376 . S
C537 C538 1.446 . S
C537 C567 1.391 . S
C538 C537 1.446 . S
C538 C539 1.339 . S
C538 H573 0.949 . S
C539 C538 1.339 . S
C539 C540 1.439 . S
C539 H574 0.950 . S
C540 N536 1.383 . S
C540 C539 1.439 . S
C540 C569 1.392 1_545 S
N541 Co535 2.008 1_565 S
N541 C542 1.376 . S
N541 C545 1.374 . S
C542 N541 1.376 . S
C542 C543 1.443 . S
C542 C569 1.389 . S
C543 C542 1.443 . S
C543 C544 1.340 . S
C543 H575 0.951 . S
C544 C543 1.340 . S
C544 C545 1.439 . S
C544 H576 0.950 . S
C545 N541 1.374 . S
C545 C544 1.439 . S
C545 C570 1.395 . S
N546 Co535 1.995 1_565 S
N546 C547 1.376 . S
N546 C550 1.383 . S
C547 N546 1.376 . S
C547 C548 1.446 . S
C547 C570 1.391 . S
C548 C547 1.446 . S
C548 C549 1.339 . S
C548 H577 0.949 . S
C549 C548 1.339 . S
C549 C550 1.439 . S
C549 H578 0.950 . S
C550 N546 1.383 . S
C550 C549 1.439 . S
C550 C568 1.392 1_565 S
N551 Co535 2.282 1_565 S
N551 C554 1.332 . S
N551 C556 1.332 1_565 S
C552 C553 1.386 . S
C552 C555 1.388 1_565 S
C553 C552 1.386 . S
C553 C554 1.382 . S
C553 H579 0.950 . S
C554 N551 1.332 . S
C554 C553 1.382 . S
C554 H565 0.952 . S
C555 C552 1.388 1_545 S
C555 C556 1.382 . S
C555 H580 0.950 . S
C556 N551 1.332 1_545 S
C556 C555 1.382 . S
C556 H566 0.948 . S
N557 Co535 2.282 . S
N557 C561 1.332 . S
N557 C562 1.332 1_545 S
C558 C559 1.388 1_565 S
C558 C562 1.382 . S
C558 H581 0.950 . S
C559 C558 1.388 1_545 S
C559 C560 1.386 . S
C560 C559 1.386 . S
C560 C561 1.382 . S
C560 H582 0.950 . S
C561 N557 1.332 . S
C561 C560 1.382 . S
C561 H563 0.952 . S
C562 N557 1.332 1_565 S
C562 C558 1.382 . S
C562 H564 0.948 . S
H563 C561 0.952 . S
H564 C562 0.948 . S
H565 C554 0.952 . S
H566 C556 0.948 . S
C567 C533 1.395 . S
C567 C537 1.391 . S
C568 C530 1.389 . S
C568 C550 1.392 1_545 S
C569 C540 1.392 1_565 S
C569 C542 1.389 . S
C570 C545 1.395 . S
C570 C547 1.391 . S
H571 C531 0.951 . S
H572 C532 0.950 . S
H573 C538 0.949 . S
H574 C539 0.950 . S
H575 C543 0.951 . S
H576 C544 0.950 . S
H577 C548 0.949 . S
H578 C549 0.950 . S
H579 C553 0.950 . S
H580 C555 0.950 . S
H581 C558 0.950 . S
H582 C560 0.950 . S
C583 C584 1.443 . S
C583 N587 1.376 . S
C583 C621 1.389 . S
C584 C583 1.443 . S
C584 C585 1.340 . S
C584 H624 0.951 . S
C585 C584 1.340 . S
C585 C586 1.439 . S
C585 H625 0.950 . S
C586 C585 1.439 . S
C586 N587 1.374 . S
C586 C620 1.395 . S
N587 C583 1.376 . S
N587 C586 1.374 . S
N587 Co588 2.008 1_556 S
Co588 N587 2.008 1_554 S
Co588 N589 1.995 1_554 S
Co588 N594 2.008 . S
Co588 N599 1.995 . S
Co588 N604 2.282 . S
Co588 N610 2.282 1_554 S
N589 Co588 1.995 1_556 S
N589 C590 1.376 . S
N589 C593 1.383 . S
C590 N589 1.376 . S
C590 C591 1.446 . S
C590 C620 1.391 . S
C591 C590 1.446 . S
C591 C592 1.339 . S
C591 H626 0.949 . S
C592 C591 1.339 . S
C592 C593 1.439 . S
C592 H627 0.950 . S
C593 N589 1.383 . S
C593 C592 1.439 . S
C593 C622 1.392 1_556 S
N594 Co588 2.008 . S
N594 C595 1.376 . S
N594 C598 1.374 . S
C595 N594 1.376 . S
C595 C596 1.443 . S
C595 C622 1.389 . S
C596 C595 1.443 . S
C596 C597 1.340 . S
C596 H628 0.951 . S
C597 C596 1.340 . S
C597 C598 1.439 . S
C597 H629 0.950 . S
C598 N594 1.374 . S
C598 C597 1.439 . S
C598 C623 1.395 . S
N599 Co588 1.995 . S
N599 C600 1.376 . S
N599 C603 1.383 . S
C600 N599 1.376 . S
C600 C601 1.446 . S
C600 C623 1.391 . S
C601 C600 1.446 . S
C601 C602 1.339 . S
C601 H630 0.949 . S
C602 C601 1.339 . S
C602 C603 1.439 . S
C602 H631 0.950 . S
C603 N599 1.383 . S
C603 C602 1.439 . S
C603 C621 1.392 1_554 S
N604 Co588 2.282 . S
N604 C607 1.332 . S
N604 C609 1.332 1_554 S
C605 C606 1.386 . S
C605 C608 1.388 1_554 S
C606 C605 1.386 . S
C606 C607 1.382 . S
C606 H632 0.950 . S
C607 N604 1.332 . S
C607 C606 1.382 . S
C607 H618 0.952 . S
C608 C605 1.388 1_556 S
C608 C609 1.382 . S
C608 H633 0.950 . S
C609 N604 1.332 1_556 S
C609 C608 1.382 . S
C609 H619 0.948 . S
N610 Co588 2.282 1_556 S
N610 C614 1.332 . S
N610 C615 1.332 1_556 S
C611 C612 1.388 1_554 S
C611 C615 1.382 . S
C611 H634 0.950 . S
C612 C611 1.388 1_556 S
C612 C613 1.386 . S
C613 C612 1.386 . S
C613 C614 1.382 . S
C613 H635 0.950 . S
C614 N610 1.332 . S
C614 C613 1.382 . S
C614 H616 0.952 . S
C615 N610 1.332 1_554 S
C615 C611 1.382 . S
C615 H617 0.948 . S
H616 C614 0.952 . S
H617 C615 0.948 . S
H618 C607 0.952 . S
H619 C609 0.948 . S
C620 C586 1.395 . S
C620 C590 1.391 . S
C621 C583 1.389 . S
C621 C603 1.392 1_556 S
C622 C593 1.392 1_554 S
C622 C595 1.389 . S
C623 C598 1.395 . S
C623 C600 1.391 . S
H624 C584 0.951 . S
H625 C585 0.950 . S
H626 C591 0.949 . S
H627 C592 0.950 . S
H628 C596 0.951 . S
H629 C597 0.950 . S
H630 C601 0.949 . S
H631 C602 0.950 . S
H632 C606 0.950 . S
H633 C608 0.950 . S
H634 C611 0.950 . S
H635 C613 0.950 . S
C636 Eu637 2.835 . S
C636 C638 1.500 . S
C636 O656 1.257 . S
C636 O657 1.260 . S
Eu637 C636 2.835 . S
Eu637 O656 2.473 . S
Eu637 O657 2.480 . S
Eu637 O658 2.430 . S
Eu637 O659 2.670 . S
Eu637 O660 2.394 . S
Eu637 O665 2.355 . S
Eu637 O667 2.374 . S
C638 C636 1.500 . S
C638 C639 1.377 . S
C638 C643 1.377 . S
C639 C638 1.377 . S
C639 C640 1.395 . S
C639 H668 0.931 . S
C640 C639 1.395 . S
C640 C641 1.383 . S
C640 H669 0.931 1_545 S
C641 C640 1.383 . S
C641 C642 1.394 . S
C642 C641 1.394 . S
C642 C643 1.378 . S
C642 H670 0.931 . S
C643 C638 1.377 . S
C643 C642 1.378 . S
C643 H671 0.931 . S
C644 O658 1.259 . S
C644 O659 1.270 . S
C645 O660 1.251 . S
C645 O661 1.251 . S
C646 Eu647 2.835 . S
C646 C648 1.500 . S
C646 O662 1.257 . S
C646 O663 1.260 . S
Eu647 C646 2.835 . S
Eu647 O659 2.355 . S
Eu647 O661 2.374 . S
Eu647 O662 2.473 . S
Eu647 O663 2.480 . S
Eu647 O664 2.430 . S
Eu647 O665 2.670 . S
Eu647 O666 2.394 . S
C648 C646 1.500 . S
C648 C649 1.377 . S
C648 C653 1.377 . S
C649 C648 1.377 . S
C649 C650 1.395 . S
C649 H672 0.931 . S
C650 C649 1.395 . S
C650 C651 1.383 . S
C650 H673 0.931 . S
C651 C650 1.383 . S
C651 C652 1.394 . S
C652 C651 1.394 . S
C652 C653 1.378 . S
C652 H674 0.931 . S
C653 C648 1.377 . S
C653 C652 1.378 . S
C653 H675 0.931 . S
C654 O664 1.259 . S
C654 O665 1.270 . S
C655 O666 1.251 . S
C655 O667 1.251 . S
O656 C636 1.257 . S
O656 Eu637 2.473 . S
O657 C636 1.260 . S
O657 Eu637 2.480 . S
O658 Eu637 2.430 . S
O658 C644 1.259 . S
O659 Eu637 2.670 . S
O659 C644 1.270 . S
O659 Eu647 2.355 . S
O660 Eu637 2.394 . S
O660 C645 1.251 . S
O661 C645 1.251 . S
O661 Eu647 2.374 . S
O662 C646 1.257 . S
O662 Eu647 2.473 . S
O663 C646 1.260 . S
O663 Eu647 2.480 . S
O664 Eu647 2.430 . S
O664 C654 1.259 . S
O665 Eu637 2.355 . S
O665 Eu647 2.670 . S
O665 C654 1.270 . S
O666 Eu647 2.394 . S
O666 C655 1.251 . S
O667 Eu637 2.374 . S
O667 C655 1.251 . S
H668 C639 0.931 . S
H669 C640 0.931 1_565 S
H670 C642 0.931 . S
H671 C643 0.931 . S
H672 C649 0.931 . S
H673 C650 0.931 . S
H674 C652 0.931 . S
H675 C653 0.931 . S
C676 Eu677 2.835 . S
C676 C678 1.500 . S
C676 O696 1.257 . S
C676 O697 1.260 . S
Eu677 C676 2.835 . S
Eu677 O696 2.473 . S
Eu677 O697 2.480 . S
Eu677 O698 2.430 . S
Eu677 O699 2.670 . S
Eu677 O700 2.394 . S
Eu677 O705 2.355 . S
Eu677 O707 2.374 . S
C678 C676 1.500 . S
C678 C679 1.377 . S
C678 C683 1.377 . S
C679 C678 1.377 . S
C679 C680 1.395 . S
C679 H708 0.931 . S
C680 C679 1.395 . S
C680 C681 1.383 . S
C680 H709 0.931 . S
C681 C680 1.383 . S
C681 C682 1.394 . S
C682 C681 1.394 . S
C682 C683 1.378 . S
C682 H710 0.931 . S
C683 C678 1.377 . S
C683 C682 1.378 . S
C683 H711 0.931 . S
C684 O698 1.259 . S
C684 O699 1.270 . S
C685 O700 1.251 . S
C685 O701 1.251 1_655 S
C686 Eu687 2.835 . S
C686 C688 1.500 . S
C686 O702 1.257 . S
C686 O703 1.260 . S
Eu687 C686 2.835 . S
Eu687 O699 2.355 1_455 S
Eu687 O701 2.374 . S
Eu687 O702 2.473 . S
Eu687 O703 2.480 . S
Eu687 O704 2.430 1_455 S
Eu687 O705 2.670 1_455 S
Eu687 O706 2.394 1_455 S
C688 C686 1.500 . S
C688 C689 1.377 . S
C688 C693 1.377 . S
C689 C688 1.377 . S
C689 C690 1.395 . S
C689 H712 0.931 . S
C690 C689 1.395 . S
C690 C691 1.383 . S
C690 H713 0.931 . S
C691 C690 1.383 . S
C691 C692 1.394 . S
C692 C691 1.394 . S
C692 C693 1.378 . S
C692 H714 0.931 . S
C693 C688 1.377 . S
C693 C692 1.378 . S
C693 H715 0.931 . S
C694 O704 1.259 . S
C694 O705 1.270 . S
C695 O706 1.251 . S
C695 O707 1.251 . S
O696 C676 1.257 . S
O696 Eu677 2.473 . S
O697 C676 1.260 . S
O697 Eu677 2.480 . S
O698 Eu677 2.430 . S
O698 C684 1.259 . S
O699 Eu677 2.670 . S
O699 C684 1.270 . S
O699 Eu687 2.355 1_655 S
O700 Eu677 2.394 . S
O700 C685 1.251 . S
O701 C685 1.251 1_455 S
O701 Eu687 2.374 . S
O702 C686 1.257 . S
O702 Eu687 2.473 . S
O703 C686 1.260 . S
O703 Eu687 2.480 . S
O704 Eu687 2.430 1_655 S
O704 C694 1.259 . S
O705 Eu677 2.355 . S
O705 Eu687 2.670 1_655 S
O705 C694 1.270 . S
O706 Eu687 2.394 1_655 S
O706 C695 1.251 . S
O707 Eu677 2.374 . S
O707 C695 1.251 . S
H708 C679 0.931 . S
H709 C680 0.931 . S
H710 C682 0.931 . S
H711 C683 0.931 . S
H712 C689 0.931 . S
H713 C690 0.931 . S
H714 C692 0.931 . S
H715 C693 0.931 . S
C716 Eu717 2.835 . S
C716 C718 1.500 . S
C716 O736 1.260 . S
C716 O737 1.260 . S
Eu717 C716 2.835 . S
Eu717 O736 2.474 . S
Eu717 O737 2.480 . S
Eu717 O738 2.430 . S
Eu717 O739 2.670 . S
Eu717 O740 2.394 . S
Eu717 O745 2.355 . S
Eu717 O747 2.374 1_565 S
C718 C716 1.500 . S
C718 C719 1.377 . S
C718 C723 1.373 1_565 S
C719 C718 1.377 . S
C719 C720 1.393 1_565 S
C719 H748 0.931 . S
C720 C719 1.393 1_545 S
C720 C721 1.386 . S
C720 H749 0.931 . S
C721 C720 1.386 . S
C721 C722 1.394 . S
C722 C721 1.394 . S
C722 C723 1.382 . S
C722 H750 0.931 . S
C723 C718 1.373 1_545 S
C723 C722 1.382 . S
C723 H751 0.931 . S
C724 O738 1.259 . S
C724 O739 1.270 . S
C725 O740 1.251 . S
C725 O741 1.251 . S
C726 Eu727 2.835 . S
C726 C728 1.500 . S
C726 O742 1.257 . S
C726 O743 1.260 . S
Eu727 C726 2.835 . S
Eu727 O739 2.355 . S
Eu727 O741 2.374 . S
Eu727 O742 2.473 . S
Eu727 O743 2.480 . S
Eu727 O744 2.430 . S
Eu727 O745 2.670 . S
Eu727 O746 2.394 . S
C728 C726 1.500 . S
C728 C729 1.377 . S
C728 C733 1.377 . S
C729 C728 1.377 . S
C729 C730 1.395 . S
C729 H752 0.931 . S
C730 C729 1.395 . S
C730 C731 1.383 . S
C730 H753 0.931 . S
C731 C730 1.383 . S
C731 C732 1.394 . S
C732 C731 1.394 . S
C732 C733 1.378 . S
C732 H754 0.931 . S
C733 C728 1.377 . S
C733 C732 1.378 . S
C733 H755 0.931 . S
C734 O744 1.259 . S
C734 O745 1.270 . S
C735 O746 1.251 1_545 S
C735 O747 1.251 . S
O736 C716 1.260 . S
O736 Eu717 2.474 . S
O737 C716 1.260 . S
O737 Eu717 2.480 . S
O738 Eu717 2.430 . S
O738 C724 1.259 . S
O739 Eu717 2.670 . S
O739 C724 1.270 . S
O739 Eu727 2.355 . S
O740 Eu717 2.394 . S
O740 C725 1.251 . S
O741 C725 1.251 . S
O741 Eu727 2.374 . S
O742 C726 1.257 . S
O742 Eu727 2.473 . S
O743 C726 1.260 . S
O743 Eu727 2.480 . S
O744 Eu727 2.430 . S
O744 C734 1.259 . S
O745 Eu717 2.355 . S
O745 Eu727 2.670 . S
O745 C734 1.270 . S
O746 Eu727 2.394 . S
O746 C735 1.251 1_565 S
O747 Eu717 2.374 1_545 S
O747 C735 1.251 . S
H748 C719 0.931 . S
H749 C720 0.931 . S
H750 C722 0.931 . S
H751 C723 0.931 . S
H752 C729 0.931 . S
H753 C730 0.931 . S
H754 C732 0.931 . S
H755 C733 0.931 . S
C756 Eu757 2.835 . S
C756 C758 1.500 . S
C756 O776 1.257 . S
C756 O777 1.260 . S
Eu757 C756 2.835 . S
Eu757 O776 2.473 . S
Eu757 O777 2.480 . S
Eu757 O778 2.430 . S
Eu757 O779 2.670 . S
Eu757 O780 2.394 . S
Eu757 O785 2.355 1_455 S
Eu757 O787 2.347 1_455 S
C758 C756 1.500 . S
C758 C759 1.377 . S
C758 C763 1.377 . S
C759 C758 1.377 . S
C759 C760 1.395 . S
C759 H788 0.931 . S
C760 C759 1.395 . S
C760 C761 1.383 . S
C760 H789 0.931 . S
C761 C760 1.383 . S
C761 C762 1.394 . S
C762 C761 1.394 . S
C762 C763 1.378 . S
C762 H790 0.931 . S
C763 C758 1.377 . S
C763 C762 1.378 . S
C763 H791 0.931 . S
C764 O778 1.259 . S
C764 O779 1.270 . S
C765 O780 1.251 . S
C765 O781 1.274 . S
C766 Eu767 2.835 . S
C766 C768 1.500 . S
C766 O782 1.257 . S
C766 O783 1.260 . S
Eu767 C766 2.835 . S
Eu767 O779 2.355 1_655 S
Eu767 O781 2.357 1_655 S
Eu767 O782 2.473 . S
Eu767 O783 2.480 . S
Eu767 O784 2.430 . S
Eu767 O785 2.670 . S
Eu767 O786 2.394 . S
C768 C766 1.500 . S
C768 C769 1.377 . S
C768 C773 1.377 . S
C769 C768 1.377 . S
C769 C770 1.395 . S
C769 H792 0.931 . S
C770 C769 1.395 . S
C770 C771 1.383 . S
C770 H793 0.931 . S
C771 C770 1.383 . S
C771 C772 1.394 . S
C772 C771 1.394 . S
C772 C773 1.378 . S
C772 H794 0.931 . S
C773 C768 1.377 . S
C773 C772 1.378 . S
C773 H795 0.931 . S
C774 O784 1.259 . S
C774 O785 1.270 . S
C775 O786 1.251 . S
C775 O787 1.287 . S
O776 C756 1.257 . S
O776 Eu757 2.473 . S
O777 C756 1.260 . S
O777 Eu757 2.480 . S
O778 Eu757 2.430 . S
O778 C764 1.259 . S
O779 Eu757 2.670 . S
O779 C764 1.270 . S
O779 Eu767 2.355 1_455 S
O780 Eu757 2.394 . S
O780 C765 1.251 . S
O781 C765 1.274 . S
O781 Eu767 2.357 1_455 S
O782 C766 1.257 . S
O782 Eu767 2.473 . S
O783 C766 1.260 . S
O783 Eu767 2.480 . S
O784 Eu767 2.430 . S
O784 C774 1.259 . S
O785 Eu757 2.355 1_655 S
O785 Eu767 2.670 . S
O785 C774 1.270 . S
O786 Eu767 2.394 . S
O786 C775 1.251 . S
O787 Eu757 2.347 1_655 S
O787 C775 1.287 . S
H788 C759 0.931 . S
H789 C760 0.931 . S
H790 C762 0.931 . S
H791 C763 0.931 . S
H792 C769 0.931 . S
H793 C770 0.931 . S
H794 C772 0.931 . S
H795 C773 0.931 . S
C796 Eu797 2.835 1_545 S
C796 C798 1.500 . S
C796 O816 1.257 . S
C796 O817 1.260 1_545 S
Eu797 C796 2.835 1_565 S
Eu797 O816 2.473 1_565 S
Eu797 O817 2.480 . S
Eu797 O818 2.430 . S
Eu797 O819 2.670 . S
Eu797 O820 2.394 1_565 S
Eu797 O825 2.355 1_565 S
Eu797 O827 2.374 . S
C798 C796 1.500 . S
C798 C799 1.377 . S
C798 C803 1.377 . S
C799 C798 1.377 . S
C799 C800 1.395 . S
C799 H828 0.931 . S
C800 C799 1.395 . S
C800 C801 1.383 . S
C800 H829 0.931 . S
C801 C800 1.383 . S
C801 C802 1.394 . S
C802 C801 1.394 . S
C802 C803 1.378 . S
C802 H830 0.931 . S
C803 C798 1.377 . S
C803 C802 1.378 . S
C803 H831 0.931 . S
C804 O818 1.259 . S
C804 O819 1.270 . S
C805 O820 1.251 . S
C805 O821 1.251 . S
C806 Eu807 2.835 . S
C806 C808 1.500 . S
C806 O822 1.257 . S
C806 O823 1.260 . S
Eu807 C806 2.835 . S
Eu807 O819 2.355 . S
Eu807 O821 2.374 1_565 S
Eu807 O822 2.473 . S
Eu807 O823 2.480 . S
Eu807 O824 2.430 1_565 S
Eu807 O825 2.670 1_565 S
Eu807 O826 2.394 . S
C808 C806 1.500 . S
C808 C809 1.377 . S
C808 C813 1.377 . S
C809 C808 1.377 . S
C809 C810 1.395 . S
C809 H832 0.931 . S
C810 C809 1.395 . S
C810 C811 1.383 . S
C810 H833 0.931 . S
C811 C810 1.383 . S
C811 C812 1.394 . S
C812 C811 1.394 . S
C812 C813 1.378 . S
C812 H834 0.931 . S
C813 C808 1.377 . S
C813 C812 1.378 . S
C813 H835 0.931 . S
C814 O824 1.259 . S
C814 O825 1.270 . S
C815 O826 1.251 . S
C815 O827 1.251 . S
O816 C796 1.257 . S
O816 Eu797 2.473 1_545 S
O817 C796 1.260 1_565 S
O817 Eu797 2.480 . S
O818 Eu797 2.430 . S
O818 C804 1.259 . S
O819 Eu797 2.670 . S
O819 C804 1.270 . S
O819 Eu807 2.355 . S
O820 Eu797 2.394 1_545 S
O820 C805 1.251 . S
O821 C805 1.251 . S
O821 Eu807 2.374 1_545 S
O822 C806 1.257 . S
O822 Eu807 2.473 . S
O823 C806 1.260 . S
O823 Eu807 2.480 . S
O824 Eu807 2.430 1_545 S
O824 C814 1.259 . S
O825 Eu797 2.355 1_545 S
O825 Eu807 2.670 1_545 S
O825 C814 1.270 . S
O826 Eu807 2.394 . S
O826 C815 1.251 . S
O827 Eu797 2.374 . S
O827 C815 1.251 . S
H828 C799 0.931 . S
H829 C800 0.931 . S
H830 C802 0.931 . S
H831 C803 0.931 . S
H832 C809 0.931 . S
H833 C810 0.931 . S
H834 C812 0.931 . S
H835 C813 0.931 . S
C836 Eu837 2.835 . S
C836 C838 1.500 . S
C836 O856 1.257 . S
C836 O857 1.260 . S
Eu837 C836 2.835 . S
Eu837 O856 2.473 . S
Eu837 O857 2.480 . S
Eu837 O858 2.430 . S
Eu837 O859 2.670 . S
Eu837 O860 2.394 . S
Eu837 O865 2.355 . S
Eu837 O867 2.374 . S
C838 C836 1.500 . S
C838 C839 1.377 . S
C838 C843 1.377 . S
C839 C838 1.377 . S
C839 C840 1.395 . S
C839 H868 0.931 . S
C840 C839 1.395 . S
C840 C841 1.383 . S
C840 H869 0.931 . S
C841 C840 1.383 . S
C841 C842 1.394 . S
C842 C841 1.394 . S
C842 C843 1.378 . S
C842 H870 0.931 . S
C843 C838 1.377 . S
C843 C842 1.378 . S
C843 H871 0.931 . S
C844 O858 1.259 . S
C844 O859 1.270 . S
C845 O860 1.251 . S
C845 O861 1.251 . S
C846 Eu847 2.835 . S
C846 C848 1.500 . S
C846 O862 1.257 . S
C846 O863 1.260 . S
Eu847 C846 2.835 . S
Eu847 O859 2.355 . S
Eu847 O861 2.374 . S
Eu847 O862 2.473 . S
Eu847 O863 2.480 . S
Eu847 O864 2.430 . S
Eu847 O865 2.670 . S
Eu847 O866 2.394 . S
C848 C846 1.500 . S
C848 C849 1.377 . S
C848 C853 1.377 . S
C849 C848 1.377 . S
C849 C850 1.395 . S
C849 H872 0.931 . S
C850 C849 1.395 . S
C850 C851 1.383 . S
C850 H873 0.931 . S
C851 C850 1.383 . S
C851 C852 1.394 . S
C852 C851 1.394 . S
C852 C853 1.378 . S
C852 H874 0.931 . S
C853 C848 1.377 . S
C853 C852 1.378 . S
C853 H875 0.931 . S
C854 O864 1.259 . S
C854 O865 1.270 . S
C855 O866 1.251 . S
C855 O867 1.251 . S
O856 C836 1.257 . S
O856 Eu837 2.473 . S
O857 C836 1.260 . S
O857 Eu837 2.480 . S
O858 Eu837 2.430 . S
O858 C844 1.259 . S
O859 Eu837 2.670 . S
O859 C844 1.270 . S
O859 Eu847 2.355 . S
O860 Eu837 2.394 . S
O860 C845 1.251 . S
O861 C845 1.251 . S
O861 Eu847 2.374 . S
O862 C846 1.257 . S
O862 Eu847 2.473 . S
O863 C846 1.260 . S
O863 Eu847 2.480 . S
O864 Eu847 2.430 . S
O864 C854 1.259 . S
O865 Eu837 2.355 . S
O865 Eu847 2.670 . S
O865 C854 1.270 . S
O866 Eu847 2.394 . S
O866 C855 1.251 . S
O867 Eu837 2.374 . S
O867 C855 1.251 . S
H868 C839 0.931 . S
H869 C840 0.931 . S
H870 C842 0.931 . S
H871 C843 0.931 . S
H872 C849 0.931 . S
H873 C850 0.931 . S
H874 C852 0.931 . S
H875 C853 0.931 . S
C876 Eu877 2.835 . S
C876 C878 1.500 . S
C876 O896 1.257 . S
C876 O897 1.260 . S
Eu877 C876 2.835 . S
Eu877 O896 2.473 . S
Eu877 O897 2.480 . S
Eu877 O898 2.430 . S
Eu877 O899 2.670 . S
Eu877 O900 2.394 . S
Eu877 O905 2.355 1_554 S
Eu877 O907 2.374 1_554 S
C878 C876 1.500 . S
C878 C879 1.377 . S
C878 C883 1.377 . S
C879 C878 1.377 . S
C879 C880 1.395 . S
C879 H908 0.931 . S
C880 C879 1.395 . S
C880 C881 1.383 . S
C880 H909 0.931 . S
C881 C880 1.383 . S
C881 C882 1.394 . S
C882 C881 1.394 . S
C882 C883 1.378 . S
C882 H910 0.931 . S
C883 C878 1.377 . S
C883 C882 1.378 . S
C883 H911 0.931 . S
C884 O898 1.259 . S
C884 O899 1.270 . S
C885 O900 1.251 . S
C885 O901 1.251 . S
C886 Eu887 2.835 . S
C886 C888 1.500 . S
C886 O902 1.257 . S
C886 O903 1.260 . S
Eu887 C886 2.835 . S
Eu887 O899 2.355 1_556 S
Eu887 O901 2.374 1_556 S
Eu887 O902 2.473 . S
Eu887 O903 2.480 . S
Eu887 O904 2.430 . S
Eu887 O905 2.670 . S
Eu887 O906 2.394 . S
C888 C886 1.500 . S
C888 C889 1.377 . S
C888 C893 1.377 . S
C889 C888 1.377 . S
C889 C890 1.395 . S
C889 H912 0.931 . S
C890 C889 1.395 . S
C890 C891 1.383 . S
C890 H913 0.931 . S
C891 C890 1.383 . S
C891 C892 1.394 . S
C892 C891 1.394 . S
C892 C893 1.378 . S
C892 H914 0.931 . S
C893 C888 1.377 . S
C893 C892 1.378 . S
C893 H915 0.931 . S
C894 O904 1.259 . S
C894 O905 1.270 . S
C895 O906 1.251 . S
C895 O907 1.251 . S
O896 C876 1.257 . S
O896 Eu877 2.473 . S
O897 C876 1.260 . S
O897 Eu877 2.480 . S
O898 Eu877 2.430 . S
O898 C884 1.259 . S
O899 Eu877 2.670 . S
O899 C884 1.270 . S
O899 Eu887 2.355 1_554 S
O900 Eu877 2.394 . S
O900 C885 1.251 . S
O901 C885 1.251 . S
O901 Eu887 2.374 1_554 S
O902 C886 1.257 . S
O902 Eu887 2.473 . S
O903 C886 1.260 . S
O903 Eu887 2.480 . S
O904 Eu887 2.430 . S
O904 C894 1.259 . S
O905 Eu877 2.355 1_556 S
O905 Eu887 2.670 . S
O905 C894 1.270 . S
O906 Eu887 2.394 . S
O906 C895 1.251 . S
O907 Eu877 2.374 1_556 S
O907 C895 1.251 . S
H908 C879 0.931 . S
H909 C880 0.931 . S
H910 C882 0.931 . S
H911 C883 0.931 . S
H912 C889 0.931 . S
H913 C890 0.931 . S
H914 C892 0.931 . S
H915 C893 0.931 . S
C916 Eu917 2.835 . S
C916 C918 1.500 . S
C916 O936 1.257 . S
C916 O937 1.260 . S
Eu917 C916 2.835 . S
Eu917 O936 2.473 . S
Eu917 O937 2.480 . S
Eu917 O938 2.430 1_554 S
Eu917 O939 2.670 1_554 S
Eu917 O940 2.394 1_554 S
Eu917 O945 2.355 . S
Eu917 O947 2.374 . S
C918 C916 1.500 . S
C918 C919 1.377 . S
C918 C923 1.377 . S
C919 C918 1.377 . S
C919 C920 1.395 . S
C919 H948 0.931 . S
C920 C919 1.395 . S
C920 C921 1.383 . S
C920 H949 0.931 . S
C921 C920 1.383 . S
C921 C922 1.394 . S
C922 C921 1.394 . S
C922 C923 1.378 . S
C922 H950 0.931 . S
C923 C918 1.377 . S
C923 C922 1.378 . S
C923 H951 0.931 . S
C924 O938 1.259 . S
C924 O939 1.270 . S
C925 O940 1.251 . S
C925 O941 1.251 . S
C926 Eu927 2.835 . S
C926 C928 1.500 . S
C926 O942 1.257 . S
C926 O943 1.260 . S
Eu927 C926 2.835 . S
Eu927 O939 2.355 . S
Eu927 O941 2.374 . S
Eu927 O942 2.473 . S
Eu927 O943 2.480 . S
Eu927 O944 2.430 1_556 S
Eu927 O945 2.670 1_556 S
Eu927 O946 2.394 1_556 S
C928 C926 1.500 . S
C928 C929 1.377 . S
C928 C933 1.377 . S
C929 C928 1.377 . S
C929 C930 1.395 . S
C929 H952 0.931 . S
C930 C929 1.395 . S
C930 C931 1.383 . S
C930 H953 0.931 . S
C931 C930 1.383 . S
C931 C932 1.394 . S
C932 C931 1.394 . S
C932 C933 1.378 . S
C932 H954 0.931 . S
C933 C928 1.377 . S
C933 C932 1.378 . S
C933 H955 0.931 . S
C934 O944 1.259 . S
C934 O945 1.270 . S
C935 O946 1.251 . S
C935 O947 1.251 . S
O936 C916 1.257 . S
O936 Eu917 2.473 . S
O937 C916 1.260 . S
O937 Eu917 2.480 . S
O938 Eu917 2.430 1_556 S
O938 C924 1.259 . S
O939 Eu917 2.670 1_556 S
O939 C924 1.270 . S
O939 Eu927 2.355 . S
O940 Eu917 2.394 1_556 S
O940 C925 1.251 . S
O941 C925 1.251 . S
O941 Eu927 2.374 . S
O942 C926 1.257 . S
O942 Eu927 2.473 . S
O943 C926 1.260 . S
O943 Eu927 2.480 . S
O944 Eu927 2.430 1_554 S
O944 C934 1.259 . S
O945 Eu917 2.355 . S
O945 Eu927 2.670 1_554 S
O945 C934 1.270 . S
O946 Eu927 2.394 1_554 S
O946 C935 1.251 . S
O947 Eu917 2.374 . S
O947 C935 1.251 . S
H948 C919 0.931 . S
H949 C920 0.931 . S
H950 C922 0.931 . S
H951 C923 0.931 . S
H952 C929 0.931 . S
H953 C930 0.931 . S
H954 C932 0.931 . S
H955 C933 0.931 . S
H956 C964 0.929 . S
H957 C966 0.930 . S
H958 C968 0.930 . S
H959 C971 0.929 . S
H960 C974 0.930 . S
H961 C976 0.960 . S
H962 C976 0.960 . S
H963 C976 0.960 . S
C964 H956 0.929 . S
C964 C965 1.377 . S
C964 C966 1.384 . S
C965 C964 1.377 . S
C965 C971 1.390 . S
C966 H957 0.930 . S
C966 C964 1.384 . S
C966 C967 1.372 . S
C967 C966 1.372 . S
C967 C968 1.400 . S
C967 C972 1.490 . S
C968 H958 0.930 . S
C968 C967 1.400 . S
C968 C971 1.386 . S
H969 C985 0.930 . S
H970 C986 0.931 . S
C971 H959 0.929 . S
C971 C965 1.390 . S
C971 C968 1.386 . S
C972 C967 1.490 . S
C972 C974 1.395 . S
C972 C975 1.403 . S
H973 C979 0.930 . S
C974 H960 0.930 . S
C974 C972 1.395 . S
C974 C977 1.403 . S
C975 C972 1.403 . S
C975 C976 1.524 . S
C975 C979 1.400 . S
C976 H961 0.960 . S
C976 H962 0.960 . S
C976 H963 0.960 . S
C976 C975 1.524 . S
C977 C974 1.403 . S
C977 C978 1.392 . S
C977 C981 1.495 . S
C978 C977 1.392 . S
C978 C979 1.385 . S
C978 C980 1.478 . S
C979 H973 0.930 . S
C979 C975 1.400 . S
C979 C978 1.385 . S
C980 C978 1.478 . S
C980 C982 1.381 . S
C980 C986 1.383 . S
C981 C977 1.495 . S
C981 H987 0.959 . S
C981 H988 0.961 . S
C981 H989 0.960 . S
C982 C980 1.381 . S
C982 C983 1.394 . S
C982 H990 0.930 . S
C983 C982 1.394 . S
C983 C984 1.383 . S
C983 H991 0.929 . S
C984 C983 1.383 . S
C984 C985 1.377 . S
C985 H969 0.930 . S
C985 C984 1.377 . S
C985 C986 1.379 . S
C986 H970 0.931 . S
C986 C980 1.383 . S
C986 C985 1.379 . S
H987 C981 0.959 . S
H988 C981 0.961 . S
H989 C981 0.960 . S
H990 C982 0.930 . S
H991 C983 0.929 . S
H992 C1000 0.929 1_655 S
H993 C1002 0.882 1_655 S
H994 C1004 0.930 . S
H995 C1007 0.929 . S
H996 C1010 0.908 1_655 S
H997 C1012 0.960 . S
H998 C1012 0.960 . S
H999 C1012 0.960 . S
C1000 H992 0.929 1_455 S
C1000 C1001 1.377 . S
C1000 C1002 1.385 . S
C1001 C1000 1.377 . S
C1001 C1007 1.390 . S
C1002 H993 0.882 1_455 S
C1002 C1000 1.385 . S
C1002 C1003 1.420 . S
C1003 C1002 1.420 . S
C1003 C1004 1.400 . S
C1003 C1008 1.490 . S
C1004 H994 0.930 . S
C1004 C1003 1.400 . S
C1004 C1007 1.386 . S
H1005 C1021 0.930 . S
H1006 C1022 0.931 . S
C1007 H995 0.929 . S
C1007 C1001 1.390 . S
C1007 C1004 1.386 . S
C1008 C1003 1.490 . S
C1008 C1010 1.417 . S
C1008 C1011 1.403 . S
H1009 C1015 0.930 . S
C1010 H996 0.908 1_455 S
C1010 C1008 1.417 . S
C1010 C1013 1.402 1_455 S
C1011 C1008 1.403 . S
C1011 C1012 1.524 . S
C1011 C1015 1.400 . S
C1012 H997 0.960 . S
C1012 H998 0.960 . S
C1012 H999 0.960 . S
C1012 C1011 1.524 . S
C1013 C1010 1.402 1_655 S
C1013 C1014 1.359 1_655 S
C1013 C1017 1.531 . S
C1014 C1013 1.359 1_455 S
C1014 C1015 1.385 . S
C1014 C1016 1.478 . S
C1015 H1009 0.930 . S
C1015 C1011 1.400 . S
C1015 C1014 1.385 . S
C1016 C1014 1.478 . S
C1016 C1018 1.348 1_455 S
C1016 C1022 1.383 . S
C1017 C1013 1.531 . S
C1017 H1023 0.959 . S
C1017 H1024 0.961 . S
C1017 H1025 0.960 . S
C1018 C1016 1.348 1_655 S
C1018 C1019 1.391 1_655 S
C1018 H1026 0.969 . S
C1019 C1018 1.391 1_455 S
C1019 C1020 1.388 . S
C1019 H1027 0.925 1_455 S
C1020 C1019 1.388 . S
C1020 C1021 1.377 . S
C1021 H1005 0.930 . S
C1021 C1020 1.377 . S
C1021 C1022 1.379 . S
C1022 H1006 0.931 . S
C1022 C1016 1.383 . S
C1022 C1021 1.379 . S
H1023 C1017 0.959 . S
H1024 C1017 0.961 . S
H1025 C1017 0.960 . S
H1026 C1018 0.969 . S
H1027 C1019 0.925 1_655 S
H1028 C1036 0.929 . S
H1029 C1038 0.930 . S
H1030 C1040 0.930 . S
H1031 C1043 0.929 1_655 S
H1032 C1046 0.930 . S
H1033 C1048 0.960 . S
H1034 C1048 0.960 . S
H1035 C1048 0.943 1_655 S
C1036 H1028 0.929 . S
C1036 C1037 1.377 . S
C1036 C1038 1.384 . S
C1037 C1036 1.377 . S
C1037 C1043 1.390 . S
C1038 H1029 0.930 . S
C1038 C1036 1.384 . S
C1038 C1039 1.372 . S
C1039 C1038 1.372 . S
C1039 C1040 1.400 . S
C1039 C1044 1.490 . S
C1040 H1030 0.930 . S
C1040 C1039 1.400 . S
C1040 C1043 1.386 . S
H1041 C1057 0.930 . S
H1042 C1058 0.931 . S
C1043 H1031 0.929 1_455 S
C1043 C1037 1.390 . S
C1043 C1040 1.386 . S
C1044 C1039 1.490 . S
C1044 C1046 1.395 . S
C1044 C1047 1.403 . S
H1045 C1051 0.930 . S
C1046 H1032 0.930 . S
C1046 C1044 1.395 . S
C1046 C1049 1.403 . S
C1047 C1044 1.403 . S
C1047 C1048 1.524 . S
C1047 C1051 1.400 . S
C1048 H1033 0.960 . S
C1048 H1034 0.960 . S
C1048 H1035 0.943 1_455 S
C1048 C1047 1.524 . S
C1049 C1046 1.403 . S
C1049 C1050 1.392 . S
C1049 C1053 1.495 . S
C1050 C1049 1.392 . S
C1050 C1051 1.385 . S
C1050 C1052 1.478 . S
C1051 H1045 0.930 . S
C1051 C1047 1.400 . S
C1051 C1050 1.385 . S
C1052 C1050 1.478 . S
C1052 C1054 1.381 . S
C1052 C1058 1.383 . S
C1053 C1049 1.495 . S
C1053 H1059 0.959 . S
C1053 H1060 0.961 . S
C1053 H1061 0.960 . S
C1054 C1052 1.381 . S
C1054 C1055 1.394 . S
C1054 H1062 0.930 . S
C1055 C1054 1.394 . S
C1055 C1056 1.383 . S
C1055 H1063 0.929 . S
C1056 C1055 1.383 . S
C1056 C1057 1.377 . S
C1057 H1041 0.930 . S
C1057 C1056 1.377 . S
C1057 C1058 1.379 . S
C1058 H1042 0.931 . S
C1058 C1052 1.383 . S
C1058 C1057 1.379 . S
H1059 C1053 0.959 . S
H1060 C1053 0.961 . S
H1061 C1053 0.960 . S
H1062 C1054 0.930 . S
H1063 C1055 0.929 . S
H1064 C1072 0.929 . S
H1065 C1074 0.930 . S
H1066 C1076 0.930 . S
H1067 C1079 0.929 . S
H1068 C1082 0.930 . S
H1069 C1084 0.960 . S
H1070 C1084 0.960 . S
H1071 C1084 0.960 . S
C1072 H1064 0.929 . S
C1072 C1073 1.377 . S
C1072 C1074 1.384 . S
C1073 C1072 1.377 . S
C1073 C1079 1.390 . S
C1074 H1065 0.930 . S
C1074 C1072 1.384 . S
C1074 C1075 1.372 . S
C1075 C1074 1.372 . S
C1075 C1076 1.400 . S
C1075 C1080 1.490 . S
C1076 H1066 0.930 . S
C1076 C1075 1.400 . S
C1076 C1079 1.386 . S
H1077 C1093 0.938 . S
H1078 C1094 0.931 1_455 S
C1079 H1067 0.929 . S
C1079 C1073 1.390 . S
C1079 C1076 1.386 . S
C1080 C1075 1.490 . S
C1080 C1082 1.395 1_655 S
C1080 C1083 1.403 . S
H1081 C1087 0.930 . S
C1082 H1068 0.930 . S
C1082 C1080 1.395 1_455 S
C1082 C1085 1.403 . S
C1083 C1080 1.403 . S
C1083 C1084 1.524 . S
C1083 C1087 1.400 . S
C1084 H1069 0.960 . S
C1084 H1070 0.960 . S
C1084 H1071 0.960 . S
C1084 C1083 1.524 . S
C1085 C1082 1.403 . S
C1085 C1086 1.392 1_455 S
C1085 C1089 1.495 . S
C1086 C1085 1.392 1_655 S
C1086 C1087 1.385 . S
C1086 C1088 1.478 . S
C1087 H1081 0.930 . S
C1087 C1083 1.400 . S
C1087 C1086 1.385 . S
C1088 C1086 1.478 . S
C1088 C1090 1.381 . S
C1088 C1094 1.383 . S
C1089 C1085 1.495 . S
C1089 H1095 0.959 . S
C1089 H1096 0.961 . S
C1089 H1097 0.960 . S
C1090 C1088 1.381 . S
C1090 C1091 1.394 . S
C1090 H1098 0.930 . S
C1091 C1090 1.394 . S
C1091 C1092 1.383 . S
C1091 H1099 0.929 . S
C1092 C1091 1.383 . S
C1092 C1093 1.377 . S
C1093 H1077 0.938 . S
C1093 C1092 1.377 . S
C1093 C1094 1.379 . S
C1094 H1078 0.931 1_655 S
C1094 C1088 1.383 . S
C1094 C1093 1.379 . S
H1095 C1089 0.959 . S
H1096 C1089 0.961 . S
H1097 C1089 0.960 . S
H1098 C1090 0.930 . S
H1099 C1091 0.929 . S
H1100 C1108 0.929 . S
H1101 C1110 0.930 . S
H1102 C1112 0.930 . S
H1103 C1115 0.929 . S
H1104 C1118 0.930 . S
H1105 C1120 0.960 . S
H1106 C1120 0.960 . S
H1107 C1120 0.960 . S
C1108 H1100 0.929 . S
C1108 C1109 1.377 . S
C1108 C1110 1.384 . S
C1109 C1108 1.377 . S
C1109 C1115 1.390 . S
C1110 H1101 0.930 . S
C1110 C1108 1.384 . S
C1110 C1111 1.372 . S
C1111 C1110 1.372 . S
C1111 C1112 1.400 . S
C1111 C1116 1.490 . S
C1112 H1102 0.930 . S
C1112 C1111 1.400 . S
C1112 C1115 1.386 . S
H1113 C1129 0.930 . S
H1114 C1130 0.931 . S
C1115 H1103 0.929 . S
C1115 C1109 1.390 . S
C1115 C1112 1.386 . S
C1116 C1111 1.490 . S
C1116 C1118 1.395 . S
C1116 C1119 1.403 . S
H1117 C1123 0.930 . S
C1118 H1104 0.930 . S
C1118 C1116 1.395 . S
C1118 C1121 1.403 . S
C1119 C1116 1.403 . S
C1119 C1120 1.524 . S
C1119 C1123 1.400 . S
C1120 H1105 0.960 . S
C1120 H1106 0.960 . S
C1120 H1107 0.960 . S
C1120 C1119 1.524 . S
C1121 C1118 1.403 . S
C1121 C1122 1.392 . S
C1121 C1125 1.495 . S
C1122 C1121 1.392 . S
C1122 C1123 1.385 . S
C1122 C1124 1.478 . S
C1123 H1117 0.930 . S
C1123 C1119 1.400 . S
C1123 C1122 1.385 . S
C1124 C1122 1.478 . S
C1124 C1126 1.381 . S
C1124 C1130 1.383 . S
C1125 C1121 1.495 . S
C1125 H1131 0.959 . S
C1125 H1132 0.961 . S
C1125 H1133 0.960 . S
C1126 C1124 1.381 . S
C1126 C1127 1.394 . S
C1126 H1134 0.930 . S
C1127 C1126 1.394 . S
C1127 C1128 1.383 . S
C1127 H1135 0.929 . S
C1128 C1127 1.383 . S
C1128 C1129 1.377 . S
C1129 H1113 0.930 . S
C1129 C1128 1.377 . S
C1129 C1130 1.379 . S
C1130 H1114 0.931 . S
C1130 C1124 1.383 . S
C1130 C1129 1.379 . S
H1131 C1125 0.959 . S
H1132 C1125 0.961 . S
H1133 C1125 0.960 . S
H1134 C1126 0.930 . S
H1135 C1127 0.929 . S
H1136 C1144 0.929 . S
H1137 C1146 0.930 . S
H1138 C1148 0.930 . S
H1139 C1151 0.929 . S
H1140 C1154 0.930 . S
H1141 C1156 0.960 . S
H1142 C1156 0.960 . S
H1143 C1156 0.960 . S
C1144 H1136 0.929 . S
C1144 C1145 1.377 . S
C1144 C1146 1.384 . S
C1145 C1144 1.377 . S
C1145 C1151 1.390 . S
C1146 H1137 0.930 . S
C1146 C1144 1.384 . S
C1146 C1147 1.372 . S
C1147 C1146 1.372 . S
C1147 C1148 1.400 . S
C1147 C1152 1.490 . S
C1148 H1138 0.930 . S
C1148 C1147 1.400 . S
C1148 C1151 1.386 . S
H1149 C1165 0.930 . S
H1150 C1166 0.931 . S
C1151 H1139 0.929 . S
C1151 C1145 1.390 . S
C1151 C1148 1.386 . S
C1152 C1147 1.490 . S
C1152 C1154 1.395 . S
C1152 C1155 1.403 . S
H1153 C1159 0.930 . S
C1154 H1140 0.930 . S
C1154 C1152 1.395 . S
C1154 C1157 1.403 . S
C1155 C1152 1.403 . S
C1155 C1156 1.524 . S
C1155 C1159 1.400 . S
C1156 H1141 0.960 . S
C1156 H1142 0.960 . S
C1156 H1143 0.960 . S
C1156 C1155 1.524 . S
C1157 C1154 1.403 . S
C1157 C1158 1.392 . S
C1157 C1161 1.495 . S
C1158 C1157 1.392 . S
C1158 C1159 1.385 . S
C1158 C1160 1.478 . S
C1159 H1153 0.930 . S
C1159 C1155 1.400 . S
C1159 C1158 1.385 . S
C1160 C1158 1.478 . S
C1160 C1162 1.381 . S
C1160 C1166 1.383 . S
C1161 C1157 1.495 . S
C1161 H1167 0.959 . S
C1161 H1168 0.961 . S
C1161 H1169 0.960 . S
C1162 C1160 1.381 . S
C1162 C1163 1.394 . S
C1162 H1170 0.930 . S
C1163 C1162 1.394 . S
C1163 C1164 1.383 . S
C1163 H1171 0.929 . S
C1164 C1163 1.383 . S
C1164 C1165 1.377 . S
C1165 H1149 0.930 . S
C1165 C1164 1.377 . S
C1165 C1166 1.379 . S
C1166 H1150 0.931 . S
C1166 C1160 1.383 . S
C1166 C1165 1.379 . S
H1167 C1161 0.959 . S
H1168 C1161 0.961 . S
H1169 C1161 0.960 . S
H1170 C1162 0.930 . S
H1171 C1163 0.929 . S
H1172 C1180 0.929 . S
H1173 C1182 0.930 . S
H1174 C1184 0.929 1_565 S
H1175 C1187 0.929 1_565 S
H1176 C1190 0.930 . S
H1177 C1192 0.960 . S
H1178 C1192 0.960 . S
H1179 C1192 0.960 . S
C1180 H1172 0.929 . S
C1180 C1181 1.377 . S
C1180 C1182 1.384 . S
C1181 C1180 1.377 . S
C1181 C1187 1.390 . S
C1182 H1173 0.930 . S
C1182 C1180 1.384 . S
C1182 C1183 1.372 . S
C1183 C1182 1.372 . S
C1183 C1184 1.400 . S
C1183 C1188 1.490 . S
C1184 H1174 0.929 1_545 S
C1184 C1183 1.400 . S
C1184 C1187 1.386 . S
H1185 C1201 0.930 1_565 S
H1186 C1202 0.924 1_565 S
C1187 H1175 0.929 1_545 S
C1187 C1181 1.390 . S
C1187 C1184 1.386 . S
C1188 C1183 1.490 . S
C1188 C1190 1.395 1_545 S
C1188 C1191 1.403 . S
H1189 C1195 0.930 . S
C1190 H1176 0.930 . S
C1190 C1188 1.395 1_565 S
C1190 C1193 1.403 . S
C1191 C1188 1.403 . S
C1191 C1192 1.524 . S
C1191 C1195 1.400 . S
C1192 H1177 0.960 . S
C1192 H1178 0.960 . S
C1192 H1179 0.960 . S
C1192 C1191 1.524 . S
C1193 C1190 1.403 . S
C1193 C1194 1.392 1_565 S
C1193 C1197 1.495 . S
C1194 C1193 1.392 1_545 S
C1194 C1195 1.385 . S
C1194 C1196 1.478 . S
C1195 H1189 0.930 . S
C1195 C1191 1.400 . S
C1195 C1194 1.385 . S
C1196 C1194 1.478 . S
C1196 C1198 1.381 . S
C1196 C1202 1.389 . S
C1197 C1193 1.495 . S
C1197 H1203 0.959 . S
C1197 H1204 0.961 . S
C1197 H1205 0.960 . S
C1198 C1196 1.381 . S
C1198 C1199 1.394 . S
C1198 H1206 0.930 . S
C1199 C1198 1.394 . S
C1199 C1200 1.383 . S
C1199 H1207 0.929 . S
C1200 C1199 1.383 . S
C1200 C1201 1.377 . S
C1201 H1185 0.930 1_545 S
C1201 C1200 1.377 . S
C1201 C1202 1.381 . S
C1202 H1186 0.924 1_545 S
C1202 C1196 1.389 . S
C1202 C1201 1.381 . S
H1203 C1197 0.959 . S
H1204 C1197 0.961 . S
H1205 C1197 0.960 . S
H1206 C1198 0.930 . S
H1207 C1199 0.929 . S
H1208 C1216 0.929 . S
H1209 C1218 0.930 . S
H1210 C1220 0.930 . S
H1211 C1223 0.929 . S
H1212 C1226 0.930 . S
H1213 C1228 0.960 . S
H1214 C1228 0.960 . S
H1215 C1228 0.960 . S
C1216 H1208 0.929 . S
C1216 C1217 1.377 . S
C1216 C1218 1.384 . S
C1217 C1216 1.377 . S
C1217 C1223 1.390 . S
C1218 H1209 0.930 . S
C1218 C1216 1.384 . S
C1218 C1219 1.372 . S
C1219 C1218 1.372 . S
C1219 C1220 1.400 . S
C1219 C1224 1.490 . S
C1220 H1210 0.930 . S
C1220 C1219 1.400 . S
C1220 C1223 1.386 . S
H1221 C1237 0.930 . S
H1222 C1238 0.931 . S
C1223 H1211 0.929 . S
C1223 C1217 1.390 . S
C1223 C1220 1.386 . S
C1224 C1219 1.490 . S
C1224 C1226 1.395 . S
C1224 C1227 1.403 . S
H1225 C1231 0.930 . S
C1226 H1212 0.930 . S
C1226 C1224 1.395 . S
C1226 C1229 1.403 . S
C1227 C1224 1.403 . S
C1227 C1228 1.524 . S
C1227 C1231 1.400 . S
C1228 H1213 0.960 . S
C1228 H1214 0.960 . S
C1228 H1215 0.960 . S
C1228 C1227 1.524 . S
C1229 C1226 1.403 . S
C1229 C1230 1.392 . S
C1229 C1233 1.495 . S
C1230 C1229 1.392 . S
C1230 C1231 1.385 . S
C1230 C1232 1.478 . S
C1231 H1225 0.930 . S
C1231 C1227 1.400 . S
C1231 C1230 1.385 . S
C1232 C1230 1.478 . S
C1232 C1234 1.381 . S
C1232 C1238 1.383 . S
C1233 C1229 1.495 . S
C1233 H1239 0.959 . S
C1233 H1240 0.961 . S
C1233 H1241 0.960 . S
C1234 C1232 1.381 . S
C1234 C1235 1.394 . S
C1234 H1242 0.930 . S
C1235 C1234 1.394 . S
C1235 C1236 1.383 . S
C1235 H1243 0.929 . S
C1236 C1235 1.383 . S
C1236 C1237 1.377 . S
C1237 H1221 0.930 . S
C1237 C1236 1.377 . S
C1237 C1238 1.379 . S
C1238 H1222 0.931 . S
C1238 C1232 1.383 . S
C1238 C1237 1.379 . S
H1239 C1233 0.959 . S
H1240 C1233 0.961 . S
H1241 C1233 0.960 . S
H1242 C1234 0.930 . S
H1243 C1235 0.929 . S
H1244 C1252 0.929 . S
H1245 C1254 0.930 . S
H1246 C1256 0.930 . S
H1247 C1259 0.929 . S
H1248 C1262 0.930 1_556 S
H1249 C1264 0.960 . S
H1250 C1264 0.960 . S
H1251 C1264 0.960 . S
C1252 H1244 0.929 . S
C1252 C1253 1.377 1_556 S
C1252 C1254 1.384 . S
C1253 C1252 1.377 1_554 S
C1253 C1259 1.390 . S
C1254 H1245 0.930 . S
C1254 C1252 1.384 . S
C1254 C1255 1.372 1_556 S
C1255 C1254 1.372 1_554 S
C1255 C1256 1.400 . S
C1255 C1260 1.490 . S
C1256 H1246 0.930 . S
C1256 C1255 1.400 . S
C1256 C1259 1.386 . S
H1257 C1273 0.930 . S
H1258 C1274 0.931 . S
C1259 H1247 0.929 . S
C1259 C1253 1.390 . S
C1259 C1256 1.386 . S
C1260 C1255 1.490 . S
C1260 C1262 1.395 . S
C1260 C1263 1.403 . S
H1261 C1267 0.930 . S
C1262 H1248 0.930 1_554 S
C1262 C1260 1.395 . S
C1262 C1265 1.403 . S
C1263 C1260 1.403 . S
C1263 C1264 1.524 . S
C1263 C1267 1.400 . S
C1264 H1249 0.960 . S
C1264 H1250 0.960 . S
C1264 H1251 0.960 . S
C1264 C1263 1.524 . S
C1265 C1262 1.403 . S
C1265 C1266 1.392 . S
C1265 C1269 1.495 1_554 S
C1266 C1265 1.392 . S
C1266 C1267 1.385 . S
C1266 C1268 1.478 . S
C1267 H1261 0.930 . S
C1267 C1263 1.400 . S
C1267 C1266 1.385 . S
C1268 C1266 1.478 . S
C1268 C1270 1.381 . S
C1268 C1274 1.383 . S
C1269 C1265 1.495 1_556 S
C1269 H1275 0.959 . S
C1269 H1276 0.961 1_556 S
C1269 H1277 0.960 . S
C1270 C1268 1.381 . S
C1270 C1271 1.394 . S
C1270 H1278 0.930 1_554 S
C1271 C1270 1.394 . S
C1271 C1272 1.383 . S
C1271 H1279 0.929 1_554 S
C1272 C1271 1.383 . S
C1272 C1273 1.377 . S
C1273 H1257 0.930 . S
C1273 C1272 1.377 . S
C1273 C1274 1.379 . S
C1274 H1258 0.931 . S
C1274 C1268 1.383 . S
C1274 C1273 1.379 . S
H1275 C1269 0.959 . S
H1276 C1269 0.961 1_554 S
H1277 C1269 0.960 . S
H1278 C1270 0.930 1_556 S
H1279 C1271 0.929 1_556 S
H1280 C1288 0.929 . S
H1281 C1290 0.930 . S
H1282 C1292 0.930 . S
H1283 C1295 0.929 . S
H1284 C1298 0.930 . S
H1285 C1300 0.960 . S
H1286 C1300 0.960 . S
H1287 C1300 0.960 . S
C1288 H1280 0.929 . S
C1288 C1289 1.377 . S
C1288 C1290 1.384 . S
C1289 C1288 1.377 . S
C1289 C1295 1.390 . S
C1290 H1281 0.930 . S
C1290 C1288 1.384 . S
C1290 C1291 1.372 . S
C1291 C1290 1.372 . S
C1291 C1292 1.400 . S
C1291 C1296 1.490 . S
C1292 H1282 0.930 . S
C1292 C1291 1.400 . S
C1292 C1295 1.386 . S
H1293 C1309 0.930 . S
H1294 C1310 0.931 . S
C1295 H1283 0.929 . S
C1295 C1289 1.390 . S
C1295 C1292 1.386 . S
C1296 C1291 1.490 . S
C1296 C1298 1.395 . S
C1296 C1299 1.403 . S
H1297 C1303 0.930 . S
C1298 H1284 0.930 . S
C1298 C1296 1.395 . S
C1298 C1301 1.403 . S
C1299 C1296 1.403 . S
C1299 C1300 1.524 . S
C1299 C1303 1.400 . S
C1300 H1285 0.960 . S
C1300 H1286 0.960 . S
C1300 H1287 0.960 . S
C1300 C1299 1.524 . S
C1301 C1298 1.403 . S
C1301 C1302 1.392 . S
C1301 C1305 1.495 . S
C1302 C1301 1.392 . S
C1302 C1303 1.385 . S
C1302 C1304 1.478 . S
C1303 H1297 0.930 . S
C1303 C1299 1.400 . S
C1303 C1302 1.385 . S
C1304 C1302 1.478 . S
C1304 C1306 1.381 . S
C1304 C1310 1.383 . S
C1305 C1301 1.495 . S
C1305 H1311 0.959 . S
C1305 H1312 0.961 . S
C1305 H1313 0.960 . S
C1306 C1304 1.381 . S
C1306 C1307 1.394 . S
C1306 H1314 0.930 . S
C1307 C1306 1.394 . S
C1307 C1308 1.383 . S
C1307 H1315 0.929 . S
C1308 C1307 1.383 . S
C1308 C1309 1.377 . S
C1309 H1293 0.930 . S
C1309 C1308 1.377 . S
C1309 C1310 1.379 . S
C1310 H1294 0.931 . S
C1310 C1304 1.383 . S
C1310 C1309 1.379 . S
H1311 C1305 0.959 . S
H1312 C1305 0.961 . S
H1313 C1305 0.960 . S
H1314 C1306 0.930 . S
H1315 C1307 0.929 . S
H1316 C1324 0.929 . S
H1317 C1326 0.930 . S
H1318 C1328 0.930 . S
H1319 C1331 0.929 . S
H1320 C1334 0.930 . S
H1321 C1336 0.960 . S
H1322 C1336 0.960 . S
H1323 C1336 0.960 . S
C1324 H1316 0.929 . S
C1324 C1325 1.377 . S
C1324 C1326 1.384 . S
C1325 C1324 1.377 . S
C1325 C1331 1.390 . S
C1326 H1317 0.930 . S
C1326 C1324 1.384 . S
C1326 C1327 1.372 . S
C1327 C1326 1.372 . S
C1327 C1328 1.400 . S
C1327 C1332 1.490 . S
C1328 H1318 0.930 . S
C1328 C1327 1.400 . S
C1328 C1331 1.386 . S
H1329 C1345 0.930 . S
H1330 C1346 0.931 . S
C1331 H1319 0.929 . S
C1331 C1325 1.390 . S
C1331 C1328 1.386 . S
C1332 C1327 1.490 . S
C1332 C1334 1.395 . S
C1332 C1335 1.403 . S
H1333 C1339 0.930 . S
C1334 H1320 0.930 . S
C1334 C1332 1.395 . S
C1334 C1337 1.403 . S
C1335 C1332 1.403 . S
C1335 C1336 1.524 . S
C1335 C1339 1.400 . S
C1336 H1321 0.960 . S
C1336 H1322 0.960 . S
C1336 H1323 0.960 . S
C1336 C1335 1.524 . S
C1337 C1334 1.403 . S
C1337 C1338 1.392 . S
C1337 C1341 1.495 . S
C1338 C1337 1.392 . S
C1338 C1339 1.385 . S
C1338 C1340 1.428 1_655 S
C1339 H1333 0.930 . S
C1339 C1335 1.400 . S
C1339 C1338 1.385 . S
C1340 C1338 1.428 1_455 S
C1340 C1342 1.387 . S
C1340 C1346 1.428 . S
C1341 C1337 1.495 . S
C1341 H1347 0.959 . S
C1341 H1348 0.961 . S
C1341 H1349 0.960 . S
C1342 C1340 1.387 . S
C1342 C1343 1.394 . S
C1342 H1350 0.930 1_455 S
C1343 C1342 1.394 . S
C1343 C1344 1.383 . S
C1343 H1351 0.929 . S
C1344 C1343 1.383 . S
C1344 C1345 1.377 . S
C1345 H1329 0.930 . S
C1345 C1344 1.377 . S
C1345 C1346 1.379 . S
C1346 H1330 0.931 . S
C1346 C1340 1.428 . S
C1346 C1345 1.379 . S
H1347 C1341 0.959 . S
H1348 C1341 0.961 . S
H1349 C1341 0.960 . S
H1350 C1342 0.930 1_655 S
H1351 C1343 0.929 . S
H1352 C1360 0.929 . S
H1353 C1362 0.930 . S
H1354 C1364 0.930 . S
H1355 C1367 0.929 . S
H1356 C1370 0.930 . S
H1357 C1372 0.960 . S
H1358 C1372 0.960 . S
H1359 C1372 0.960 . S
C1360 H1352 0.929 . S
C1360 C1361 1.377 . S
C1360 C1362 1.384 . S
C1361 C1360 1.377 . S
C1361 C1367 1.390 . S
C1362 H1353 0.930 . S
C1362 C1360 1.384 . S
C1362 C1363 1.372 . S
C1363 C1362 1.372 . S
C1363 C1364 1.400 . S
C1363 C1368 1.490 . S
C1364 H1354 0.930 . S
C1364 C1363 1.400 . S
C1364 C1367 1.386 . S
H1365 C1381 0.930 . S
H1366 C1382 0.931 . S
C1367 H1355 0.929 . S
C1367 C1361 1.390 . S
C1367 C1364 1.386 . S
C1368 C1363 1.490 . S
C1368 C1370 1.395 . S
C1368 C1371 1.403 . S
H1369 C1375 0.930 . S
C1370 H1356 0.930 . S
C1370 C1368 1.395 . S
C1370 C1373 1.403 . S
C1371 C1368 1.403 . S
C1371 C1372 1.524 . S
C1371 C1375 1.400 . S
C1372 H1357 0.960 . S
C1372 H1358 0.960 . S
C1372 H1359 0.960 . S
C1372 C1371 1.524 . S
C1373 C1370 1.403 . S
C1373 C1374 1.392 . S
C1373 C1377 1.495 . S
C1374 C1373 1.392 . S
C1374 C1375 1.385 . S
C1374 C1376 1.478 . S
C1375 H1369 0.930 . S
C1375 C1371 1.400 . S
C1375 C1374 1.385 . S
C1376 C1374 1.478 . S
C1376 C1378 1.381 . S
C1376 C1382 1.383 . S
C1377 C1373 1.495 . S
C1377 H1383 0.959 . S
C1377 H1384 0.961 . S
C1377 H1385 0.960 . S
C1378 C1376 1.381 . S
C1378 C1379 1.394 . S
C1378 H1386 0.930 . S
C1379 C1378 1.394 . S
C1379 C1380 1.383 . S
C1379 H1387 0.929 . S
C1380 C1379 1.383 . S
C1380 C1381 1.377 . S
C1381 H1365 0.930 . S
C1381 C1380 1.377 . S
C1381 C1382 1.379 . S
C1382 H1366 0.931 . S
C1382 C1376 1.383 . S
C1382 C1381 1.379 . S
H1383 C1377 0.959 . S
H1384 C1377 0.961 . S
H1385 C1377 0.960 . S
H1386 C1378 0.930 . S
H1387 C1379 0.929 . S
H1388 C1396 0.929 . S
H1389 C1398 0.930 . S
H1390 C1400 0.930 . S
H1391 C1403 0.929 . S
H1392 C1406 0.930 . S
H1393 C1408 0.960 . S
H1394 C1408 0.960 . S
H1395 C1408 0.960 . S
C1396 H1388 0.929 . S
C1396 C1397 1.377 . S
C1396 C1398 1.384 . S
C1397 C1396 1.377 . S
C1397 C1403 1.390 . S
C1398 H1389 0.930 . S
C1398 C1396 1.384 . S
C1398 C1399 1.372 . S
C1399 C1398 1.372 . S
C1399 C1400 1.400 . S
C1399 C1404 1.490 . S
C1400 H1390 0.930 . S
C1400 C1399 1.400 . S
C1400 C1403 1.386 . S
H1401 C1417 0.930 . S
H1402 C1418 0.931 . S
C1403 H1391 0.929 . S
C1403 C1397 1.390 . S
C1403 C1400 1.386 . S
C1404 C1399 1.490 . S
C1404 C1406 1.395 . S
C1404 C1407 1.403 . S
H1405 C1411 0.930 . S
C1406 H1392 0.930 . S
C1406 C1404 1.395 . S
C1406 C1409 1.403 . S
C1407 C1404 1.403 . S
C1407 C1408 1.524 . S
C1407 C1411 1.400 . S
C1408 H1393 0.960 . S
C1408 H1394 0.960 . S
C1408 H1395 0.960 . S
C1408 C1407 1.524 . S
C1409 C1406 1.403 . S
C1409 C1410 1.392 . S
C1409 C1413 1.495 . S
C1410 C1409 1.392 . S
C1410 C1411 1.385 . S
C1410 C1412 1.478 . S
C1411 H1405 0.930 . S
C1411 C1407 1.400 . S
C1411 C1410 1.385 . S
C1412 C1410 1.478 . S
C1412 C1414 1.381 . S
C1412 C1418 1.383 . S
C1413 C1409 1.495 . S
C1413 H1419 0.959 . S
C1413 H1420 0.961 . S
C1413 H1421 0.960 . S
C1414 C1412 1.381 . S
C1414 C1415 1.394 . S
C1414 H1422 0.930 . S
C1415 C1414 1.394 . S
C1415 C1416 1.383 . S
C1415 H1423 0.929 . S
C1416 C1415 1.383 . S
C1416 C1417 1.377 . S
C1417 H1401 0.930 . S
C1417 C1416 1.377 . S
C1417 C1418 1.379 . S
C1418 H1402 0.931 . S
C1418 C1412 1.383 . S
C1418 C1417 1.379 . S
H1419 C1413 0.959 . S
H1420 C1413 0.961 . S
H1421 C1413 0.960 . S
H1422 C1414 0.930 . S
H1423 C1415 0.929 . S
H1424 C1432 0.929 . S
H1425 C1434 0.930 . S
H1426 C1436 0.930 . S
H1427 C1439 0.929 . S
H1428 C1442 0.930 . S
H1429 C1444 0.960 . S
H1430 C1444 0.960 . S
H1431 C1444 0.960 . S
C1432 H1424 0.929 . S
C1432 C1433 1.377 . S
C1432 C1434 1.384 . S
C1433 C1432 1.377 . S
C1433 C1439 1.390 . S
C1434 H1425 0.930 . S
C1434 C1432 1.384 . S
C1434 C1435 1.372 . S
C1435 C1434 1.372 . S
C1435 C1436 1.400 . S
C1435 C1440 1.490 . S
C1436 H1426 0.930 . S
C1436 C1435 1.400 . S
C1436 C1439 1.386 . S
H1437 C1453 0.931 . S
H1438 C1454 0.931 . S
C1439 H1427 0.929 . S
C1439 C1433 1.390 . S
C1439 C1436 1.386 . S
C1440 C1435 1.490 . S
C1440 C1442 1.395 . S
C1440 C1443 1.403 . S
H1441 C1447 0.930 . S
C1442 H1428 0.930 . S
C1442 C1440 1.395 . S
C1442 C1445 1.403 . S
C1443 C1440 1.403 . S
C1443 C1444 1.524 . S
C1443 C1447 1.400 . S
C1444 H1429 0.960 . S
C1444 H1430 0.960 . S
C1444 H1431 0.960 . S
C1444 C1443 1.524 . S
C1445 C1442 1.403 . S
C1445 C1446 1.392 . S
C1445 C1449 1.495 . S
C1446 C1445 1.392 . S
C1446 C1447 1.385 . S
C1446 C1448 1.478 . S
C1447 H1441 0.930 . S
C1447 C1443 1.400 . S
C1447 C1446 1.385 . S
C1448 C1446 1.478 . S
C1448 C1450 1.381 . S
C1448 C1454 1.383 . S
C1449 C1445 1.495 . S
C1449 H1455 0.959 . S
C1449 H1456 0.961 . S
C1449 H1457 0.960 . S
C1450 C1448 1.381 . S
C1450 C1451 1.394 1_565 S
C1450 H1458 0.930 . S
C1451 C1450 1.394 1_545 S
C1451 C1452 1.383 . S
C1451 H1459 0.929 . S
C1452 C1451 1.383 . S
C1452 C1453 1.383 . S
C1453 H1437 0.931 . S
C1453 C1452 1.383 . S
C1453 C1454 1.372 1_545 S
C1454 H1438 0.931 . S
C1454 C1448 1.383 . S
C1454 C1453 1.372 1_565 S
H1455 C1449 0.959 . S
H1456 C1449 0.961 . S
H1457 C1449 0.960 . S
H1458 C1450 0.930 . S
H1459 C1451 0.929 . S
H1460 C1468 0.929 . S
H1461 C1470 0.930 . S
H1462 C1472 0.930 . S
H1463 C1475 0.929 . S
H1464 C1478 0.930 . S
H1465 C1480 0.960 . S
H1466 C1480 0.960 . S
H1467 C1480 0.960 . S
C1468 H1460 0.929 . S
C1468 C1469 1.377 . S
C1468 C1470 1.384 . S
C1469 C1468 1.377 . S
C1469 C1475 1.390 . S
C1470 H1461 0.930 . S
C1470 C1468 1.384 . S
C1470 C1471 1.372 . S
C1471 C1470 1.372 . S
C1471 C1472 1.400 . S
C1471 C1476 1.490 . S
C1472 H1462 0.930 . S
C1472 C1471 1.400 . S
C1472 C1475 1.386 . S
H1473 C1489 0.930 . S
H1474 C1490 0.931 . S
C1475 H1463 0.929 . S
C1475 C1469 1.390 . S
C1475 C1472 1.386 . S
C1476 C1471 1.490 . S
C1476 C1478 1.395 . S
C1476 C1479 1.403 . S
H1477 C1483 0.930 . S
C1478 H1464 0.930 . S
C1478 C1476 1.395 . S
C1478 C1481 1.403 . S
C1479 C1476 1.403 . S
C1479 C1480 1.524 . S
C1479 C1483 1.400 . S
C1480 H1465 0.960 . S
C1480 H1466 0.960 . S
C1480 H1467 0.960 . S
C1480 C1479 1.524 . S
C1481 C1478 1.403 . S
C1481 C1482 1.392 . S
C1481 C1485 1.495 . S
C1482 C1481 1.392 . S
C1482 C1483 1.385 . S
C1482 C1484 1.478 . S
C1483 H1477 0.930 . S
C1483 C1479 1.400 . S
C1483 C1482 1.385 . S
C1484 C1482 1.478 . S
C1484 C1486 1.381 . S
C1484 C1490 1.383 . S
C1485 C1481 1.495 . S
C1485 H1491 0.959 . S
C1485 H1492 0.961 . S
C1485 H1493 0.960 . S
C1486 C1484 1.381 . S
C1486 C1487 1.394 . S
C1486 H1494 0.930 . S
C1487 C1486 1.394 . S
C1487 C1488 1.383 . S
C1487 H1495 0.929 . S
C1488 C1487 1.383 . S
C1488 C1489 1.377 . S
C1489 H1473 0.930 . S
C1489 C1488 1.377 . S
C1489 C1490 1.379 . S
C1490 H1474 0.931 . S
C1490 C1484 1.383 . S
C1490 C1489 1.379 . S
H1491 C1485 0.959 . S
H1492 C1485 0.961 . S
H1493 C1485 0.960 . S
H1494 C1486 0.930 . S
H1495 C1487 0.929 . S
H1496 C1504 0.929 . S
H1497 C1506 0.930 . S
H1498 C1508 0.930 . S
H1499 C1511 0.929 . S
H1500 C1514 0.930 . S
H1501 C1516 0.960 . S
H1502 C1516 0.960 . S
H1503 C1516 0.960 . S
C1504 H1496 0.929 . S
C1504 C1505 1.377 . S
C1504 C1506 1.384 . S
C1505 C1504 1.377 . S
C1505 C1511 1.390 . S
C1506 H1497 0.930 . S
C1506 C1504 1.384 . S
C1506 C1507 1.372 . S
C1507 C1506 1.372 . S
C1507 C1508 1.400 . S
C1507 C1512 1.490 . S
C1508 H1498 0.930 . S
C1508 C1507 1.400 . S
C1508 C1511 1.386 . S
H1509 C1525 0.930 . S
H1510 C1526 0.931 . S
C1511 H1499 0.929 . S
C1511 C1505 1.390 . S
C1511 C1508 1.386 . S
C1512 C1507 1.490 . S
C1512 C1514 1.395 . S
C1512 C1515 1.403 . S
H1513 C1519 0.930 . S
C1514 H1500 0.930 . S
C1514 C1512 1.395 . S
C1514 C1517 1.403 . S
C1515 C1512 1.403 . S
C1515 C1516 1.524 . S
C1515 C1519 1.400 . S
C1516 H1501 0.960 . S
C1516 H1502 0.960 . S
C1516 H1503 0.960 . S
C1516 C1515 1.524 . S
C1517 C1514 1.403 . S
C1517 C1518 1.392 . S
C1517 C1521 1.495 . S
C1518 C1517 1.392 . S
C1518 C1519 1.385 . S
C1518 C1520 1.478 . S
C1519 H1513 0.930 . S
C1519 C1515 1.400 . S
C1519 C1518 1.385 . S
C1520 C1518 1.478 . S
C1520 C1522 1.381 . S
C1520 C1526 1.383 . S
C1521 C1517 1.495 . S
C1521 H1527 0.959 . S
C1521 H1528 0.961 . S
C1521 H1529 0.960 . S
C1522 C1520 1.381 . S
C1522 C1523 1.394 . S
C1522 H1530 0.930 . S
C1523 C1522 1.394 . S
C1523 C1524 1.383 . S
C1523 H1531 0.929 . S
C1524 C1523 1.383 . S
C1524 C1525 1.377 . S
C1525 H1509 0.930 . S
C1525 C1524 1.377 . S
C1525 C1526 1.379 . S
C1526 H1510 0.931 . S
C1526 C1520 1.383 . S
C1526 C1525 1.379 . S
H1527 C1521 0.959 . S
H1528 C1521 0.961 . S
H1529 C1521 0.960 . S
H1530 C1522 0.930 . S
H1531 C1523 0.929 . S
H1532 C1540 0.929 . S
H1533 C1542 0.930 . S
H1534 C1544 0.930 . S
H1535 C1547 0.929 . S
H1536 C1550 0.930 . S
H1537 C1552 0.960 . S
H1538 C1552 0.960 . S
H1539 C1552 0.960 . S
C1540 H1532 0.929 . S
C1540 C1541 1.377 . S
C1540 C1542 1.384 . S
C1541 C1540 1.377 . S
C1541 C1547 1.390 . S
C1542 H1533 0.930 . S
C1542 C1540 1.384 . S
C1542 C1543 1.372 . S
C1543 C1542 1.372 . S
C1543 C1544 1.400 . S
C1543 C1548 1.490 . S
C1544 H1534 0.930 . S
C1544 C1543 1.400 . S
C1544 C1547 1.386 . S
H1545 C1561 0.930 . S
H1546 C1562 0.931 . S
C1547 H1535 0.929 . S
C1547 C1541 1.390 . S
C1547 C1544 1.386 . S
C1548 C1543 1.490 . S
C1548 C1550 1.395 . S
C1548 C1551 1.403 . S
H1549 C1555 0.930 . S
C1550 H1536 0.930 . S
C1550 C1548 1.395 . S
C1550 C1553 1.403 . S
C1551 C1548 1.403 . S
C1551 C1552 1.524 . S
C1551 C1555 1.400 . S
C1552 H1537 0.960 . S
C1552 H1538 0.960 . S
C1552 H1539 0.960 . S
C1552 C1551 1.524 . S
C1553 C1550 1.403 . S
C1553 C1554 1.392 . S
C1553 C1557 1.495 . S
C1554 C1553 1.392 . S
C1554 C1555 1.385 . S
C1554 C1556 1.478 . S
C1555 H1549 0.930 . S
C1555 C1551 1.400 . S
C1555 C1554 1.385 . S
C1556 C1554 1.478 . S
C1556 C1558 1.381 . S
C1556 C1562 1.383 . S
C1557 C1553 1.495 . S
C1557 H1563 0.959 . S
C1557 H1564 0.961 . S
C1557 H1565 0.960 . S
C1558 C1556 1.381 . S
C1558 C1559 1.394 . S
C1558 H1566 0.930 . S
C1559 C1558 1.394 . S
C1559 C1560 1.383 . S
C1559 H1567 0.929 . S
C1560 C1559 1.383 . S
C1560 C1561 1.377 . S
C1561 H1545 0.930 . S
C1561 C1560 1.377 . S
C1561 C1562 1.379 . S
C1562 H1546 0.931 . S
C1562 C1556 1.383 . S
C1562 C1561 1.379 . S
H1563 C1557 0.959 . S
H1564 C1557 0.961 . S
H1565 C1557 0.960 . S
H1566 C1558 0.930 . S
H1567 C1559 0.929 . S
H1568 C1576 0.929 . S
H1569 C1578 0.930 . S
H1570 C1580 0.930 . S
H1571 C1583 0.929 . S
H1572 C1586 0.930 . S
H1573 C1588 0.960 . S
H1574 C1588 0.960 . S
H1575 C1588 0.960 . S
C1576 H1568 0.929 . S
C1576 C1577 1.377 . S
C1576 C1578 1.384 . S
C1577 C1576 1.377 . S
C1577 C1583 1.390 . S
C1578 H1569 0.930 . S
C1578 C1576 1.384 . S
C1578 C1579 1.372 . S
C1579 C1578 1.372 . S
C1579 C1580 1.400 . S
C1579 C1584 1.490 . S
C1580 H1570 0.930 . S
C1580 C1579 1.400 . S
C1580 C1583 1.386 . S
H1581 C1597 0.930 . S
H1582 C1598 0.931 . S
C1583 H1571 0.929 . S
C1583 C1577 1.390 . S
C1583 C1580 1.386 . S
C1584 C1579 1.490 . S
C1584 C1586 1.395 . S
C1584 C1587 1.403 1_565 S
H1585 C1591 0.930 . S
C1586 H1572 0.930 . S
C1586 C1584 1.395 . S
C1586 C1589 1.403 . S
C1587 C1584 1.403 1_545 S
C1587 C1588 1.524 . S
C1587 C1591 1.400 . S
C1588 H1573 0.960 . S
C1588 H1574 0.960 . S
C1588 H1575 0.960 . S
C1588 C1587 1.524 . S
C1589 C1586 1.403 . S
C1589 C1590 1.392 . S
C1589 C1593 1.495 . S
C1590 C1589 1.392 . S
C1590 C1591 1.385 1_565 S
C1590 C1592 1.478 . S
C1591 H1585 0.930 . S
C1591 C1587 1.400 . S
C1591 C1590 1.385 1_545 S
C1592 C1590 1.478 . S
C1592 C1594 1.381 . S
C1592 C1598 1.388 . S
C1593 C1589 1.495 . S
C1593 H1599 0.959 . S
C1593 H1600 0.961 . S
C1593 H1601 0.960 . S
C1594 C1592 1.381 . S
C1594 C1595 1.394 . S
C1594 H1602 0.930 . S
C1595 C1594 1.394 . S
C1595 C1596 1.383 1_565 S
C1595 H1603 0.929 . S
C1596 C1595 1.383 1_545 S
C1596 C1597 1.377 . S
C1597 H1581 0.930 . S
C1597 C1596 1.377 . S
C1597 C1598 1.375 1_545 S
C1598 H1582 0.931 . S
C1598 C1592 1.388 . S
C1598 C1597 1.375 1_565 S
H1599 C1593 0.959 . S
H1600 C1593 0.961 . S
H1601 C1593 0.960 . S
H1602 C1594 0.930 . S
H1603 C1595 0.929 . S
H1604 C1612 0.929 . S
H1605 C1614 0.930 . S
H1606 C1616 0.930 . S
H1607 C1619 0.929 . S
H1608 C1622 0.930 . S
H1609 C1624 0.960 . S
H1610 C1624 0.960 . S
H1611 C1624 0.960 . S
C1612 H1604 0.929 . S
C1612 C1613 1.377 . S
C1612 C1614 1.384 . S
C1613 C1612 1.377 . S
C1613 C1619 1.390 . S
C1614 H1605 0.930 . S
C1614 C1612 1.384 . S
C1614 C1615 1.372 . S
C1615 C1614 1.372 . S
C1615 C1616 1.400 . S
C1615 C1620 1.490 . S
C1616 H1606 0.930 . S
C1616 C1615 1.400 . S
C1616 C1619 1.386 . S
H1617 C1633 0.930 . S
H1618 C1634 0.931 . S
C1619 H1607 0.929 . S
C1619 C1613 1.390 . S
C1619 C1616 1.386 . S
C1620 C1615 1.490 . S
C1620 C1622 1.395 . S
C1620 C1623 1.403 . S
H1621 C1627 0.930 . S
C1622 H1608 0.930 . S
C1622 C1620 1.395 . S
C1622 C1625 1.403 . S
C1623 C1620 1.403 . S
C1623 C1624 1.524 . S
C1623 C1627 1.400 . S
C1624 H1609 0.960 . S
C1624 H1610 0.960 . S
C1624 H1611 0.960 . S
C1624 C1623 1.524 . S
C1625 C1622 1.403 . S
C1625 C1626 1.392 . S
C1625 C1629 1.495 . S
C1626 C1625 1.392 . S
C1626 C1627 1.385 . S
C1626 C1628 1.478 . S
C1627 H1621 0.930 . S
C1627 C1623 1.400 . S
C1627 C1626 1.385 . S
C1628 C1626 1.478 . S
C1628 C1630 1.381 . S
C1628 C1634 1.383 1_556 S
C1629 C1625 1.495 . S
C1629 H1635 0.959 . S
C1629 H1636 0.961 . S
C1629 H1637 0.960 . S
C1630 C1628 1.381 . S
C1630 C1631 1.394 1_556 S
C1630 H1638 0.930 . S
C1631 C1630 1.394 1_554 S
C1631 C1632 1.383 . S
C1631 H1639 0.929 . S
C1632 C1631 1.383 . S
C1632 C1633 1.377 . S
C1633 H1617 0.930 . S
C1633 C1632 1.377 . S
C1633 C1634 1.379 . S
C1634 H1618 0.931 . S
C1634 C1628 1.383 1_554 S
C1634 C1633 1.379 . S
H1635 C1629 0.959 . S
H1636 C1629 0.961 . S
H1637 C1629 0.960 . S
H1638 C1630 0.930 . S
H1639 C1631 0.929 . S
H1640 C1648 0.929 1_565 S
H1641 C1650 0.930 . S
H1642 C1652 0.930 . S
H1643 C1655 0.929 . S
H1644 C1658 0.930 . S
H1645 C1660 0.960 . S
H1646 C1660 0.960 . S
H1647 C1660 0.960 . S
C1648 H1640 0.929 1_545 S
C1648 C1649 1.377 . S
C1648 C1650 1.384 . S
C1649 C1648 1.377 . S
C1649 C1655 1.390 . S
C1650 H1641 0.930 . S
C1650 C1648 1.384 . S
C1650 C1651 1.372 . S
C1651 C1650 1.372 . S
C1651 C1652 1.400 . S
C1651 C1656 1.490 . S
C1652 H1642 0.930 . S
C1652 C1651 1.400 . S
C1652 C1655 1.386 . S
H1653 C1669 0.930 . S
H1654 C1670 0.931 . S
C1655 H1643 0.929 . S
C1655 C1649 1.390 . S
C1655 C1652 1.386 . S
C1656 C1651 1.490 . S
C1656 C1658 1.395 . S
C1656 C1659 1.403 . S
H1657 C1663 0.930 . S
C1658 H1644 0.930 . S
C1658 C1656 1.395 . S
C1658 C1661 1.403 1_556 S
C1659 C1656 1.403 . S
C1659 C1660 1.524 . S
C1659 C1663 1.400 . S
C1660 H1645 0.960 . S
C1660 H1646 0.960 . S
C1660 H1647 0.960 . S
C1660 C1659 1.524 . S
C1661 C1658 1.403 1_554 S
C1661 C1662 1.392 . S
C1661 C1665 1.495 . S
C1662 C1661 1.392 . S
C1662 C1663 1.385 1_554 S
C1662 C1664 1.478 . S
C1663 H1657 0.930 . S
C1663 C1659 1.400 . S
C1663 C1662 1.385 1_556 S
C1664 C1662 1.478 . S
C1664 C1666 1.381 . S
C1664 C1670 1.383 . S
C1665 C1661 1.495 . S
C1665 H1671 0.959 . S
C1665 H1672 0.961 . S
C1665 H1673 0.960 . S
C1666 C1664 1.381 . S
C1666 C1667 1.394 . S
C1666 H1674 0.930 . S
C1667 C1666 1.394 . S
C1667 C1668 1.383 . S
C1667 H1675 0.929 . S
C1668 C1667 1.383 . S
C1668 C1669 1.377 . S
C1669 H1653 0.930 . S
C1669 C1668 1.377 . S
C1669 C1670 1.379 . S
C1670 H1654 0.931 . S
C1670 C1664 1.383 . S
C1670 C1669 1.379 . S
H1671 C1665 0.959 . S
H1672 C1665 0.961 . S
H1673 C1665 0.960 . S
H1674 C1666 0.930 . S
H1675 C1667 0.929 . S
H1676 C1684 0.929 . S
H1677 C1686 0.930 . S
H1678 C1688 0.930 . S
H1679 C1691 0.929 . S
H1680 C1694 0.930 . S
H1681 C1696 0.960 . S
H1682 C1696 0.960 . S
H1683 C1696 0.960 . S
C1684 H1676 0.929 . S
C1684 C1685 1.377 . S
C1684 C1686 1.384 . S
C1685 C1684 1.377 . S
C1685 C1691 1.390 . S
C1686 H1677 0.930 . S
C1686 C1684 1.384 . S
C1686 C1687 1.372 . S
C1687 C1686 1.372 . S
C1687 C1688 1.400 . S
C1687 C1692 1.490 . S
C1688 H1678 0.930 . S
C1688 C1687 1.400 . S
C1688 C1691 1.386 . S
H1689 C1705 0.930 . S
H1690 C1706 0.931 . S
C1691 H1679 0.929 . S
C1691 C1685 1.390 . S
C1691 C1688 1.386 . S
C1692 C1687 1.490 . S
C1692 C1694 1.395 . S
C1692 C1695 1.403 . S
H1693 C1699 0.930 . S
C1694 H1680 0.930 . S
C1694 C1692 1.395 . S
C1694 C1697 1.403 . S
C1695 C1692 1.403 . S
C1695 C1696 1.524 . S
C1695 C1699 1.400 . S
C1696 H1681 0.960 . S
C1696 H1682 0.960 . S
C1696 H1683 0.960 . S
C1696 C1695 1.524 . S
C1697 C1694 1.403 . S
C1697 C1698 1.392 . S
C1697 C1701 1.495 . S
C1698 C1697 1.392 . S
C1698 C1699 1.385 . S
C1698 C1700 1.478 . S
C1699 H1693 0.930 . S
C1699 C1695 1.400 . S
C1699 C1698 1.385 . S
C1700 C1698 1.478 . S
C1700 C1702 1.381 . S
C1700 C1706 1.383 . S
C1701 C1697 1.495 . S
C1701 H1707 0.959 . S
C1701 H1708 0.961 . S
C1701 H1709 0.960 . S
C1702 C1700 1.381 . S
C1702 C1703 1.394 . S
C1702 H1710 0.930 . S
C1703 C1702 1.394 . S
C1703 C1704 1.383 . S
C1703 H1711 0.929 . S
C1704 C1703 1.383 . S
C1704 C1705 1.377 . S
C1705 H1689 0.930 . S
C1705 C1704 1.377 . S
C1705 C1706 1.379 . S
C1706 H1690 0.931 . S
C1706 C1700 1.383 . S
C1706 C1705 1.379 . S
H1707 C1701 0.959 . S
H1708 C1701 0.961 . S
H1709 C1701 0.960 . S
H1710 C1702 0.930 . S
H1711 C1703 0.929 . S
H1712 C1720 0.929 . S
H1713 C1722 0.930 . S
H1714 C1724 0.930 . S
H1715 C1727 0.929 . S
H1716 C1730 0.930 . S
H1717 C1732 0.960 . S
H1718 C1732 0.960 1_554 S
H1719 C1732 0.960 . S
C1720 H1712 0.929 . S
C1720 C1721 1.377 1_554 S
C1720 C1722 1.384 . S
C1721 C1720 1.377 1_556 S
C1721 C1727 1.390 . S
C1722 H1713 0.930 . S
C1722 C1720 1.384 . S
C1722 C1723 1.372 1_554 S
C1723 C1722 1.372 1_556 S
C1723 C1724 1.400 . S
C1723 C1728 1.490 . S
C1724 H1714 0.930 . S
C1724 C1723 1.400 . S
C1724 C1727 1.386 . S
H1725 C1741 0.930 . S
H1726 C1742 0.931 . S
C1727 H1715 0.929 . S
C1727 C1721 1.390 . S
C1727 C1724 1.386 . S
C1728 C1723 1.490 . S
C1728 C1730 1.395 1_556 S
C1728 C1731 1.403 . S
H1729 C1735 0.930 . S
C1730 H1716 0.930 . S
C1730 C1728 1.395 1_554 S
C1730 C1733 1.403 . S
C1731 C1728 1.403 . S
C1731 C1732 1.524 . S
C1731 C1735 1.400 . S
C1732 H1717 0.960 . S
C1732 H1718 0.960 1_556 S
C1732 H1719 0.960 . S
C1732 C1731 1.524 . S
C1733 C1730 1.403 . S
C1733 C1734 1.391 1_554 S
C1733 C1737 1.495 . S
C1734 C1733 1.391 1_556 S
C1734 C1735 1.387 . S
C1734 C1736 1.477 1_556 S
C1735 H1729 0.930 . S
C1735 C1731 1.400 . S
C1735 C1734 1.387 . S
C1736 C1734 1.477 1_554 S
C1736 C1738 1.413 . S
C1736 C1742 1.352 1_554 S
C1737 C1733 1.495 . S
C1737 H1743 0.959 . S
C1737 H1744 0.961 1_554 S
C1737 H1745 0.960 . S
C1738 C1736 1.413 . S
C1738 C1739 1.394 . S
C1738 H1746 0.930 . S
C1739 C1738 1.394 . S
C1739 C1740 1.383 . S
C1739 H1747 0.929 . S
C1740 C1739 1.383 . S
C1740 C1741 1.377 1_554 S
C1741 H1725 0.930 . S
C1741 C1740 1.377 1_556 S
C1741 C1742 1.379 . S
C1742 H1726 0.931 . S
C1742 C1736 1.352 1_556 S
C1742 C1741 1.379 . S
H1743 C1737 0.959 . S
H1744 C1737 0.961 1_556 S
H1745 C1737 0.960 . S
H1746 C1738 0.930 . S
H1747 C1739 0.929 . S
H1748 C1756 0.929 . S
H1749 C1758 0.930 . S
H1750 C1760 0.935 . S
H1751 C1763 0.929 . S
H1752 C1766 0.930 . S
H1753 C1768 0.960 . S
H1754 C1768 0.960 . S
H1755 C1768 0.960 . S
C1756 H1748 0.929 . S
C1756 C1757 1.377 . S
C1756 C1758 1.384 . S
C1757 C1756 1.377 . S
C1757 C1763 1.390 . S
C1758 H1749 0.930 . S
C1758 C1756 1.384 . S
C1758 C1759 1.372 . S
C1759 C1758 1.372 . S
C1759 C1760 1.400 . S
C1759 C1764 1.487 1_556 S
C1760 H1750 0.935 . S
C1760 C1759 1.400 . S
C1760 C1763 1.386 . S
H1761 C1777 0.930 . S
H1762 C1778 0.931 . S
C1763 H1751 0.929 . S
C1763 C1757 1.390 . S
C1763 C1760 1.386 . S
C1764 C1759 1.487 1_554 S
C1764 C1766 1.380 1_554 S
C1764 C1767 1.420 . S
H1765 C1771 0.930 . S
C1766 H1752 0.930 . S
C1766 C1764 1.380 1_556 S
C1766 C1769 1.403 . S
C1767 C1764 1.420 . S
C1767 C1768 1.524 . S
C1767 C1771 1.400 . S
C1768 H1753 0.960 . S
C1768 H1754 0.960 . S
C1768 H1755 0.960 . S
C1768 C1767 1.524 . S
C1769 C1766 1.403 . S
C1769 C1770 1.392 1_556 S
C1769 C1773 1.495 . S
C1770 C1769 1.392 1_554 S
C1770 C1771 1.385 . S
C1770 C1772 1.478 . S
C1771 H1765 0.930 . S
C1771 C1767 1.400 . S
C1771 C1770 1.385 . S
C1772 C1770 1.478 . S
C1772 C1774 1.381 . S
C1772 C1778 1.383 . S
C1773 C1769 1.495 . S
C1773 H1779 0.959 . S
C1773 H1780 0.961 . S
C1773 H1781 0.960 . S
C1774 C1772 1.381 . S
C1774 C1775 1.394 . S
C1774 H1782 0.930 . S
C1775 C1774 1.394 . S
C1775 C1776 1.383 . S
C1775 H1783 0.929 . S
C1776 C1775 1.383 . S
C1776 C1777 1.377 . S
C1777 H1761 0.930 . S
C1777 C1776 1.377 . S
C1777 C1778 1.379 . S
C1778 H1762 0.931 . S
C1778 C1772 1.383 . S
C1778 C1777 1.379 . S
H1779 C1773 0.959 . S
H1780 C1773 0.961 . S
H1781 C1773 0.960 . S
H1782 C1774 0.930 . S
H1783 C1775 0.929 . S
H1784 C1792 0.929 . S
H1785 C1794 0.930 . S
H1786 C1796 0.930 . S
H1787 C1799 0.929 . S
H1788 C1802 0.930 . S
H1789 C1804 0.960 . S
H1790 C1804 0.960 . S
H1791 C1804 0.960 . S
C1792 H1784 0.929 . S
C1792 C1793 1.377 . S
C1792 C1794 1.384 . S
C1793 C1792 1.377 . S
C1793 C1799 1.390 . S
C1794 H1785 0.930 . S
C1794 C1792 1.384 . S
C1794 C1795 1.372 . S
C1795 C1794 1.372 . S
C1795 C1796 1.400 . S
C1795 C1800 1.490 . S
C1796 H1786 0.930 . S
C1796 C1795 1.400 . S
C1796 C1799 1.386 . S
H1797 C1813 0.930 . S
H1798 C1814 0.931 . S
C1799 H1787 0.929 . S
C1799 C1793 1.390 . S
C1799 C1796 1.386 . S
C1800 C1795 1.490 . S
C1800 C1802 1.395 1_655 S
C1800 C1803 1.397 1_655 S
H1801 C1807 0.930 . S
C1802 H1788 0.930 . S
C1802 C1800 1.395 1_455 S
C1802 C1805 1.403 . S
C1803 C1800 1.397 1_455 S
C1803 C1804 1.493 1_455 S
C1803 C1807 1.441 . S
C1804 H1789 0.960 . S
C1804 H1790 0.960 . S
C1804 H1791 0.960 . S
C1804 C1803 1.493 1_655 S
C1805 C1802 1.403 . S
C1805 C1806 1.392 . S
C1805 C1809 1.495 . S
C1806 C1805 1.392 . S
C1806 C1807 1.385 . S
C1806 C1808 1.478 . S
C1807 H1801 0.930 . S
C1807 C1803 1.441 . S
C1807 C1806 1.385 . S
C1808 C1806 1.478 . S
C1808 C1810 1.381 . S
C1808 C1814 1.383 . S
C1809 C1805 1.495 . S
C1809 H1815 0.959 . S
C1809 H1816 0.961 . S
C1809 H1817 0.960 . S
C1810 C1808 1.381 . S
C1810 C1811 1.394 . S
C1810 H1818 0.930 . S
C1811 C1810 1.394 . S
C1811 C1812 1.383 . S
C1811 H1819 0.929 . S
C1812 C1811 1.383 . S
C1812 C1813 1.377 . S
C1813 H1797 0.930 . S
C1813 C1812 1.377 . S
C1813 C1814 1.379 . S
C1814 H1798 0.931 . S
C1814 C1808 1.383 . S
C1814 C1813 1.379 . S
H1815 C1809 0.959 . S
H1816 C1809 0.961 . S
H1817 C1809 0.960 . S
H1818 C1810 0.930 . S
H1819 C1811 0.929 . S
H1820 C1828 0.929 . S
H1821 C1830 0.930 . S
H1822 C1832 0.930 . S
H1823 C1835 0.929 . S
H1824 C1838 0.930 . S
H1825 C1840 0.960 . S
H1826 C1840 0.960 . S
H1827 C1840 0.960 . S
C1828 H1820 0.929 . S
C1828 C1829 1.377 . S
C1828 C1830 1.384 . S
C1829 C1828 1.377 . S
C1829 C1835 1.390 . S
C1830 H1821 0.930 . S
C1830 C1828 1.384 . S
C1830 C1831 1.372 . S
C1831 C1830 1.372 . S
C1831 C1832 1.400 . S
C1831 C1836 1.490 . S
C1832 H1822 0.930 . S
C1832 C1831 1.400 . S
C1832 C1835 1.386 . S
H1833 C1849 0.930 . S
H1834 C1850 0.931 . S
C1835 H1823 0.929 . S
C1835 C1829 1.390 . S
C1835 C1832 1.386 . S
C1836 C1831 1.490 . S
C1836 C1838 1.395 . S
C1836 C1839 1.403 . S
H1837 C1843 0.930 . S
C1838 H1824 0.930 . S
C1838 C1836 1.395 . S
C1838 C1841 1.403 . S
C1839 C1836 1.403 . S
C1839 C1840 1.524 . S
C1839 C1843 1.400 . S
C1840 H1825 0.960 . S
C1840 H1826 0.960 . S
C1840 H1827 0.960 . S
C1840 C1839 1.524 . S
C1841 C1838 1.403 . S
C1841 C1842 1.392 . S
C1841 C1845 1.495 . S
C1842 C1841 1.392 . S
C1842 C1843 1.385 . S
C1842 C1844 1.478 . S
C1843 H1837 0.930 . S
C1843 C1839 1.400 . S
C1843 C1842 1.385 . S
C1844 C1842 1.478 . S
C1844 C1846 1.381 . S
C1844 C1850 1.383 . S
C1845 C1841 1.495 . S
C1845 H1851 0.959 . S
C1845 H1852 0.961 . S
C1845 H1853 0.960 . S
C1846 C1844 1.381 . S
C1846 C1847 1.394 . S
C1846 H1854 0.930 . S
C1847 C1846 1.394 . S
C1847 C1848 1.383 . S
C1847 H1855 0.929 . S
C1848 C1847 1.383 . S
C1848 C1849 1.377 . S
C1849 H1833 0.930 . S
C1849 C1848 1.377 . S
C1849 C1850 1.379 . S
C1850 H1834 0.931 . S
C1850 C1844 1.383 . S
C1850 C1849 1.379 . S
H1851 C1845 0.959 . S
H1852 C1845 0.961 . S
H1853 C1845 0.960 . S
H1854 C1846 0.930 . S
H1855 C1847 0.929 . S
H1856 C1864 0.929 . S
H1857 C1866 0.930 . S
H1858 C1868 0.930 . S
H1859 C1871 0.929 . S
H1860 C1874 0.930 . S
H1861 C1876 0.960 . S
H1862 C1876 0.960 . S
H1863 C1876 0.960 . S
C1864 H1856 0.929 . S
C1864 C1865 1.377 . S
C1864 C1866 1.384 . S
C1865 C1864 1.377 . S
C1865 C1871 1.390 . S
C1866 H1857 0.930 . S
C1866 C1864 1.384 . S
C1866 C1867 1.372 . S
C1867 C1866 1.372 . S
C1867 C1868 1.400 . S
C1867 C1872 1.490 . S
C1868 H1858 0.930 . S
C1868 C1867 1.400 . S
C1868 C1871 1.386 . S
H1869 C1885 0.930 . S
H1870 C1886 0.931 . S
C1871 H1859 0.929 . S
C1871 C1865 1.390 . S
C1871 C1868 1.386 . S
C1872 C1867 1.490 . S
C1872 C1874 1.395 . S
C1872 C1875 1.403 1_455 S
H1873 C1879 0.949 . S
C1874 H1860 0.930 . S
C1874 C1872 1.395 . S
C1874 C1877 1.403 . S
C1875 C1872 1.403 1_655 S
C1875 C1876 1.524 . S
C1875 C1879 1.401 . S
C1876 H1861 0.960 . S
C1876 H1862 0.960 . S
C1876 H1863 0.960 . S
C1876 C1875 1.524 . S
C1877 C1874 1.403 . S
C1877 C1878 1.392 . S
C1877 C1881 1.495 . S
C1878 C1877 1.392 . S
C1878 C1879 1.368 1_455 S
C1878 C1880 1.478 . S
C1879 H1873 0.949 . S
C1879 C1875 1.401 . S
C1879 C1878 1.368 1_655 S
C1880 C1878 1.478 . S
C1880 C1882 1.381 . S
C1880 C1886 1.383 . S
C1881 C1877 1.495 . S
C1881 H1887 0.959 . S
C1881 H1888 0.961 . S
C1881 H1889 0.960 . S
C1882 C1880 1.381 . S
C1882 C1883 1.393 1_455 S
C1882 H1890 0.930 1_455 S
C1883 C1882 1.393 1_655 S
C1883 C1884 1.380 1_655 S
C1883 H1891 0.934 . S
C1884 C1883 1.380 1_455 S
C1884 C1885 1.377 . S
C1885 H1869 0.930 . S
C1885 C1884 1.377 . S
C1885 C1886 1.379 . S
C1886 H1870 0.931 . S
C1886 C1880 1.383 . S
C1886 C1885 1.379 . S
H1887 C1881 0.959 . S
H1888 C1881 0.961 . S
H1889 C1881 0.960 . S
H1890 C1882 0.930 1_655 S
H1891 C1883 0.934 . S
H1892 C1900 0.929 . S
H1893 C1902 0.930 . S
H1894 C1904 0.904 1_655 S
H1895 C1907 0.929 . S
H1896 C1910 0.930 . S
H1897 C1912 0.960 . S
H1898 C1912 0.960 . S
H1899 C1912 0.960 . S
C1900 H1892 0.929 . S
C1900 C1901 1.377 . S
C1900 C1902 1.384 . S
C1901 C1900 1.377 . S
C1901 C1907 1.390 1_455 S
C1902 H1893 0.930 . S
C1902 C1900 1.384 . S
C1902 C1903 1.372 . S
C1903 C1902 1.372 . S
C1903 C1904 1.432 . S
C1903 C1908 1.490 . S
C1904 H1894 0.904 1_455 S
C1904 C1903 1.432 . S
C1904 C1907 1.380 1_455 S
H1905 C1921 0.930 . S
H1906 C1922 0.931 . S
C1907 H1895 0.929 . S
C1907 C1901 1.390 1_655 S
C1907 C1904 1.380 1_655 S
C1908 C1903 1.490 . S
C1908 C1910 1.395 . S
C1908 C1911 1.403 . S
H1909 C1915 0.905 1_655 S
C1910 H1896 0.930 . S
C1910 C1908 1.395 . S
C1910 C1913 1.403 . S
C1911 C1908 1.403 . S
C1911 C1912 1.524 1_455 S
C1911 C1915 1.400 . S
C1912 H1897 0.960 . S
C1912 H1898 0.960 . S
C1912 H1899 0.960 . S
C1912 C1911 1.524 1_655 S
C1913 C1910 1.403 . S
C1913 C1914 1.392 . S
C1913 C1917 1.495 . S
C1914 C1913 1.392 . S
C1914 C1915 1.385 . S
C1914 C1916 1.478 . S
C1915 H1909 0.905 1_455 S
C1915 C1911 1.400 . S
C1915 C1914 1.385 . S
C1916 C1914 1.478 . S
C1916 C1918 1.381 . S
C1916 C1922 1.383 . S
C1917 C1913 1.495 . S
C1917 H1923 0.959 . S
C1917 H1924 0.961 . S
C1917 H1925 0.960 . S
C1918 C1916 1.381 . S
C1918 C1919 1.394 . S
C1918 H1926 0.930 . S
C1919 C1918 1.394 . S
C1919 C1920 1.383 . S
C1919 H1927 0.929 . S
C1920 C1919 1.383 . S
C1920 C1921 1.377 . S
C1921 H1905 0.930 . S
C1921 C1920 1.377 . S
C1921 C1922 1.379 . S
C1922 H1906 0.931 . S
C1922 C1916 1.383 . S
C1922 C1921 1.379 . S
H1923 C1917 0.959 . S
H1924 C1917 0.961 . S
H1925 C1917 0.960 . S
H1926 C1918 0.930 . S
H1927 C1919 0.929 . S
H1928 C1936 0.929 . S
H1929 C1938 0.930 . S
H1930 C1940 0.930 . S
H1931 C1943 0.929 . S
H1932 C1946 0.930 . S
H1933 C1948 0.960 . S
H1934 C1948 0.960 . S
H1935 C1948 0.960 . S
C1936 H1928 0.929 . S
C1936 C1937 1.377 . S
C1936 C1938 1.384 . S
C1937 C1936 1.377 . S
C1937 C1943 1.390 1_655 S
C1938 H1929 0.930 . S
C1938 C1936 1.384 . S
C1938 C1939 1.372 . S
C1939 C1938 1.372 . S
C1939 C1940 1.400 1_655 S
C1939 C1944 1.490 . S
C1940 H1930 0.930 . S
C1940 C1939 1.400 1_455 S
C1940 C1943 1.386 . S
H1941 C1957 0.930 . S
H1942 C1958 0.931 . S
C1943 H1931 0.929 . S
C1943 C1937 1.390 1_455 S
C1943 C1940 1.386 . S
C1944 C1939 1.490 . S
C1944 C1946 1.395 . S
C1944 C1947 1.403 1_655 S
H1945 C1951 0.930 . S
C1946 H1932 0.930 . S
C1946 C1944 1.395 . S
C1946 C1949 1.403 . S
C1947 C1944 1.403 1_455 S
C1947 C1948 1.524 . S
C1947 C1951 1.400 . S
C1948 H1933 0.960 . S
C1948 H1934 0.960 . S
C1948 H1935 0.960 . S
C1948 C1947 1.524 . S
C1949 C1946 1.403 . S
C1949 C1950 1.392 1_655 S
C1949 C1953 1.495 . S
C1950 C1949 1.392 1_455 S
C1950 C1951 1.385 . S
C1950 C1952 1.478 . S
C1951 H1945 0.930 . S
C1951 C1947 1.400 . S
C1951 C1950 1.385 . S
C1952 C1950 1.478 . S
C1952 C1954 1.381 1_455 S
C1952 C1958 1.383 . S
C1953 C1949 1.495 . S
C1953 H1959 0.959 . S
C1953 H1960 0.961 . S
C1953 H1961 0.960 . S
C1954 C1952 1.381 1_655 S
C1954 C1955 1.392 1_655 S
C1954 H1962 0.930 . S
C1955 C1954 1.392 1_455 S
C1955 C1956 1.391 . S
C1955 H1963 0.924 1_455 S
C1956 C1955 1.391 . S
C1956 C1957 1.377 . S
C1957 H1941 0.930 . S
C1957 C1956 1.377 . S
C1957 C1958 1.379 . S
C1958 H1942 0.931 . S
C1958 C1952 1.383 . S
C1958 C1957 1.379 . S
H1959 C1953 0.959 . S
H1960 C1953 0.961 . S
H1961 C1953 0.960 . S
H1962 C1954 0.930 . S
H1963 C1955 0.924 1_655 S
H1964 C1972 0.929 . S
H1965 C1974 0.930 . S
H1966 C1976 0.930 . S
H1967 C1979 0.929 . S
H1968 C1982 0.930 . S
H1969 C1984 0.960 . S
H1970 C1984 0.960 . S
H1971 C1984 0.960 . S
C1972 H1964 0.929 . S
C1972 C1973 1.377 . S
C1972 C1974 1.384 . S
C1973 C1972 1.377 . S
C1973 C1979 1.390 . S
C1974 H1965 0.930 . S
C1974 C1972 1.384 . S
C1974 C1975 1.372 . S
C1975 C1974 1.372 . S
C1975 C1976 1.400 . S
C1975 C1980 1.490 . S
C1976 H1966 0.930 . S
C1976 C1975 1.400 . S
C1976 C1979 1.386 . S
H1977 C1993 0.930 . S
H1978 C1994 0.931 . S
C1979 H1967 0.929 . S
C1979 C1973 1.390 . S
C1979 C1976 1.386 . S
C1980 C1975 1.490 . S
C1980 C1982 1.395 . S
C1980 C1983 1.403 . S
H1981 C1987 0.930 . S
C1982 H1968 0.930 . S
C1982 C1980 1.395 . S
C1982 C1985 1.403 . S
C1983 C1980 1.403 . S
C1983 C1984 1.524 . S
C1983 C1987 1.400 . S
C1984 H1969 0.960 . S
C1984 H1970 0.960 . S
C1984 H1971 0.960 . S
C1984 C1983 1.524 . S
C1985 C1982 1.403 . S
C1985 C1986 1.392 . S
C1985 C1989 1.495 . S
C1986 C1985 1.392 . S
C1986 C1987 1.385 . S
C1986 C1988 1.478 . S
C1987 H1981 0.930 . S
C1987 C1983 1.400 . S
C1987 C1986 1.385 . S
C1988 C1986 1.478 . S
C1988 C1990 1.381 . S
C1988 C1994 1.383 . S
C1989 C1985 1.495 . S
C1989 H1995 0.959 . S
C1989 H1996 0.961 . S
C1989 H1997 0.960 . S
C1990 C1988 1.381 . S
C1990 C1991 1.394 . S
C1990 H1998 0.930 . S
C1991 C1990 1.394 . S
C1991 C1992 1.383 . S
C1991 H1999 0.929 . S
C1992 C1991 1.383 . S
C1992 C1993 1.377 . S
C1993 H1977 0.930 . S
C1993 C1992 1.377 . S
C1993 C1994 1.379 . S
C1994 H1978 0.931 . S
C1994 C1988 1.383 . S
C1994 C1993 1.379 . S
H1995 C1989 0.959 . S
H1996 C1989 0.961 . S
H1997 C1989 0.960 . S
H1998 C1990 0.930 . S
H1999 C1991 0.929 . S
H2000 C2008 0.929 . S
H2001 C2010 0.930 . S
H2002 C2012 0.930 . S
H2003 C2015 0.929 . S
H2004 C2018 0.930 . S
H2005 C2020 0.960 . S
H2006 C2020 0.960 . S
H2007 C2020 0.960 . S
C2008 H2000 0.929 . S
C2008 C2009 1.377 . S
C2008 C2010 1.384 . S
C2009 C2008 1.377 . S
C2009 C2015 1.390 . S
C2010 H2001 0.930 . S
C2010 C2008 1.384 . S
C2010 C2011 1.372 . S
C2011 C2010 1.372 . S
C2011 C2012 1.400 . S
C2011 C2016 1.490 . S
C2012 H2002 0.930 . S
C2012 C2011 1.400 . S
C2012 C2015 1.386 . S
H2013 C2029 0.930 . S
H2014 C2030 0.931 . S
C2015 H2003 0.929 . S
C2015 C2009 1.390 . S
C2015 C2012 1.386 . S
C2016 C2011 1.490 . S
C2016 C2018 1.395 . S
C2016 C2019 1.403 . S
H2017 C2023 0.930 . S
C2018 H2004 0.930 . S
C2018 C2016 1.395 . S
C2018 C2021 1.403 . S
C2019 C2016 1.403 . S
C2019 C2020 1.524 . S
C2019 C2023 1.400 . S
C2020 H2005 0.960 . S
C2020 H2006 0.960 . S
C2020 H2007 0.960 . S
C2020 C2019 1.524 . S
C2021 C2018 1.403 . S
C2021 C2022 1.392 . S
C2021 C2025 1.495 . S
C2022 C2021 1.392 . S
C2022 C2023 1.385 . S
C2022 C2024 1.478 . S
C2023 H2017 0.930 . S
C2023 C2019 1.400 . S
C2023 C2022 1.385 . S
C2024 C2022 1.478 . S
C2024 C2026 1.381 . S
C2024 C2030 1.383 . S
C2025 C2021 1.495 . S
C2025 H2031 0.959 . S
C2025 H2032 0.961 . S
C2025 H2033 0.960 . S
C2026 C2024 1.381 . S
C2026 C2027 1.394 . S
C2026 H2034 0.930 . S
C2027 C2026 1.394 . S
C2027 C2028 1.383 . S
C2027 H2035 0.929 . S
C2028 C2027 1.383 . S
C2028 C2029 1.377 . S
C2029 H2013 0.930 . S
C2029 C2028 1.377 . S
C2029 C2030 1.379 . S
C2030 H2014 0.931 . S
C2030 C2024 1.383 . S
C2030 C2029 1.379 . S
H2031 C2025 0.959 . S
H2032 C2025 0.961 . S
H2033 C2025 0.960 . S
H2034 C2026 0.930 . S
H2035 C2027 0.929 . S
H2036 C2044 0.929 . S
H2037 C2046 0.930 . S
H2038 C2048 0.930 . S
H2039 C2051 0.929 . S
H2040 C2054 0.930 . S
H2041 C2056 0.960 . S
H2042 C2056 0.960 . S
H2043 C2056 0.960 . S
C2044 H2036 0.929 . S
C2044 C2045 1.377 . S
C2044 C2046 1.384 . S
C2045 C2044 1.377 . S
C2045 C2051 1.390 1_545 S
C2046 H2037 0.930 . S
C2046 C2044 1.384 . S
C2046 C2047 1.372 . S
C2047 C2046 1.372 . S
C2047 C2048 1.400 1_545 S
C2047 C2052 1.490 . S
C2048 H2038 0.930 . S
C2048 C2047 1.400 1_565 S
C2048 C2051 1.386 . S
H2049 C2065 0.930 . S
H2050 C2066 0.931 . S
C2051 H2039 0.929 . S
C2051 C2045 1.390 1_565 S
C2051 C2048 1.386 . S
C2052 C2047 1.490 . S
C2052 C2054 1.395 1_545 S
C2052 C2055 1.403 . S
H2053 C2059 0.930 . S
C2054 H2040 0.930 . S
C2054 C2052 1.395 1_565 S
C2054 C2057 1.403 . S
C2055 C2052 1.403 . S
C2055 C2056 1.524 . S
C2055 C2059 1.400 . S
C2056 H2041 0.960 . S
C2056 H2042 0.960 . S
C2056 H2043 0.960 . S
C2056 C2055 1.524 . S
C2057 C2054 1.403 . S
C2057 C2058 1.392 . S
C2057 C2061 1.495 . S
C2058 C2057 1.392 . S
C2058 C2059 1.385 1_565 S
C2058 C2060 1.478 . S
C2059 H2053 0.930 . S
C2059 C2055 1.400 . S
C2059 C2058 1.385 1_545 S
C2060 C2058 1.478 . S
C2060 C2062 1.381 1_565 S
C2060 C2066 1.383 . S
C2061 C2057 1.495 . S
C2061 H2067 0.959 . S
C2061 H2068 0.961 . S
C2061 H2069 0.960 . S
C2062 C2060 1.381 1_545 S
C2062 C2063 1.394 . S
C2062 H2070 0.930 . S
C2063 C2062 1.394 . S
C2063 C2064 1.383 1_545 S
C2063 H2071 0.929 . S
C2064 C2063 1.383 1_565 S
C2064 C2065 1.377 . S
C2065 H2049 0.930 . S
C2065 C2064 1.377 . S
C2065 C2066 1.379 . S
C2066 H2050 0.931 . S
C2066 C2060 1.383 . S
C2066 C2065 1.379 . S
H2067 C2061 0.959 . S
H2068 C2061 0.961 . S
H2069 C2061 0.960 . S
H2070 C2062 0.930 . S
H2071 C2063 0.929 . S
H2072 C2080 0.929 . S
H2073 C2082 0.930 . S
H2074 C2084 0.930 . S
H2075 C2087 0.929 . S
H2076 C2090 0.930 . S
H2077 C2092 0.960 . S
H2078 C2092 0.960 . S
H2079 C2092 0.960 . S
C2080 H2072 0.929 . S
C2080 C2081 1.377 . S
C2080 C2082 1.384 . S
C2081 C2080 1.377 . S
C2081 C2087 1.390 . S
C2082 H2073 0.930 . S
C2082 C2080 1.384 . S
C2082 C2083 1.372 . S
C2083 C2082 1.372 . S
C2083 C2084 1.400 . S
C2083 C2088 1.490 . S
C2084 H2074 0.930 . S
C2084 C2083 1.400 . S
C2084 C2087 1.386 . S
H2085 C2101 0.930 . S
H2086 C2102 0.931 . S
C2087 H2075 0.929 . S
C2087 C2081 1.390 . S
C2087 C2084 1.386 . S
C2088 C2083 1.490 . S
C2088 C2090 1.395 . S
C2088 C2091 1.403 . S
H2089 C2095 0.930 . S
C2090 H2076 0.930 . S
C2090 C2088 1.395 . S
C2090 C2093 1.403 . S
C2091 C2088 1.403 . S
C2091 C2092 1.524 . S
C2091 C2095 1.400 . S
C2092 H2077 0.960 . S
C2092 H2078 0.960 . S
C2092 H2079 0.960 . S
C2092 C2091 1.524 . S
C2093 C2090 1.403 . S
C2093 C2094 1.392 . S
C2093 C2097 1.495 . S
C2094 C2093 1.392 . S
C2094 C2095 1.385 . S
C2094 C2096 1.478 . S
C2095 H2089 0.930 . S
C2095 C2091 1.400 . S
C2095 C2094 1.385 . S
C2096 C2094 1.478 . S
C2096 C2098 1.381 . S
C2096 C2102 1.383 . S
C2097 C2093 1.495 . S
C2097 H2103 0.959 . S
C2097 H2104 0.961 . S
C2097 H2105 0.960 . S
C2098 C2096 1.381 . S
C2098 C2099 1.394 . S
C2098 H2106 0.930 . S
C2099 C2098 1.394 . S
C2099 C2100 1.383 . S
C2099 H2107 0.929 . S
C2100 C2099 1.383 . S
C2100 C2101 1.377 . S
C2101 H2085 0.930 . S
C2101 C2100 1.377 . S
C2101 C2102 1.379 . S
C2102 H2086 0.931 . S
C2102 C2096 1.383 . S
C2102 C2101 1.379 . S
H2103 C2097 0.959 . S
H2104 C2097 0.961 . S
H2105 C2097 0.960 . S
H2106 C2098 0.930 . S
H2107 C2099 0.929 . S
H2108 C2116 0.929 . S
H2109 C2118 0.940 . S
H2110 C2120 0.930 . S
H2111 C2123 0.929 . S
H2112 C2126 0.930 . S
H2113 C2128 0.960 . S
H2114 C2128 0.960 . S
H2115 C2128 0.960 . S
C2116 H2108 0.929 . S
C2116 C2117 1.377 1_556 S
C2116 C2118 1.386 . S
C2117 C2116 1.377 1_554 S
C2117 C2123 1.390 . S
C2118 H2109 0.940 . S
C2118 C2116 1.386 . S
C2118 C2119 1.360 1_556 S
C2119 C2118 1.360 1_554 S
C2119 C2120 1.400 . S
C2119 C2124 1.490 . S
C2120 H2110 0.930 . S
C2120 C2119 1.400 . S
C2120 C2123 1.386 . S
H2121 C2137 0.930 . S
H2122 C2138 0.931 . S
C2123 H2111 0.929 . S
C2123 C2117 1.390 . S
C2123 C2120 1.386 . S
C2124 C2119 1.490 . S
C2124 C2126 1.395 . S
C2124 C2127 1.403 . S
H2125 C2131 0.930 . S
C2126 H2112 0.930 . S
C2126 C2124 1.395 . S
C2126 C2129 1.403 . S
C2127 C2124 1.403 . S
C2127 C2128 1.524 . S
C2127 C2131 1.400 . S
C2128 H2113 0.960 . S
C2128 H2114 0.960 . S
C2128 H2115 0.960 . S
C2128 C2127 1.524 . S
C2129 C2126 1.403 . S
C2129 C2130 1.392 . S
C2129 C2133 1.495 . S
C2130 C2129 1.392 . S
C2130 C2131 1.385 . S
C2130 C2132 1.478 . S
C2131 H2125 0.930 . S
C2131 C2127 1.400 . S
C2131 C2130 1.385 . S
C2132 C2130 1.478 . S
C2132 C2134 1.381 . S
C2132 C2138 1.383 . S
C2133 C2129 1.495 . S
C2133 H2139 0.986 . S
C2133 H2140 0.961 . S
C2133 H2141 0.945 1_554 S
C2134 C2132 1.381 . S
C2134 C2135 1.394 . S
C2134 H2142 0.930 . S
C2135 C2134 1.394 . S
C2135 C2136 1.383 . S
C2135 H2143 0.929 . S
C2136 C2135 1.383 . S
C2136 C2137 1.377 . S
C2137 H2121 0.930 . S
C2137 C2136 1.377 . S
C2137 C2138 1.379 . S
C2138 H2122 0.931 . S
C2138 C2132 1.383 . S
C2138 C2137 1.379 . S
H2139 C2133 0.986 . S
H2140 C2133 0.961 . S
H2141 C2133 0.945 1_556 S
H2142 C2134 0.930 . S
H2143 C2135 0.929 . S
H2144 C2152 0.929 . S
H2145 C2154 0.930 . S
H2146 C2156 0.930 . S
H2147 C2159 0.929 . S
H2148 C2162 0.930 . S
H2149 C2164 0.960 . S
H2150 C2164 0.960 . S
H2151 C2164 0.960 . S
C2152 H2144 0.929 . S
C2152 C2153 1.377 . S
C2152 C2154 1.384 . S
C2153 C2152 1.377 . S
C2153 C2159 1.390 . S
C2154 H2145 0.930 . S
C2154 C2152 1.384 . S
C2154 C2155 1.372 . S
C2155 C2154 1.372 . S
C2155 C2156 1.400 . S
C2155 C2160 1.490 . S
C2156 H2146 0.930 . S
C2156 C2155 1.400 . S
C2156 C2159 1.386 . S
H2157 C2173 0.930 . S
H2158 C2174 0.931 . S
C2159 H2147 0.929 . S
C2159 C2153 1.390 . S
C2159 C2156 1.386 . S
C2160 C2155 1.490 . S
C2160 C2162 1.395 . S
C2160 C2163 1.403 . S
H2161 C2167 0.930 . S
C2162 H2148 0.930 . S
C2162 C2160 1.395 . S
C2162 C2165 1.403 . S
C2163 C2160 1.403 . S
C2163 C2164 1.524 . S
C2163 C2167 1.400 . S
C2164 H2149 0.960 . S
C2164 H2150 0.960 . S
C2164 H2151 0.960 . S
C2164 C2163 1.524 . S
C2165 C2162 1.403 . S
C2165 C2166 1.392 . S
C2165 C2169 1.495 . S
C2166 C2165 1.392 . S
C2166 C2167 1.385 . S
C2166 C2168 1.478 . S
C2167 H2161 0.930 . S
C2167 C2163 1.400 . S
C2167 C2166 1.385 . S
C2168 C2166 1.478 . S
C2168 C2170 1.381 . S
C2168 C2174 1.383 . S
C2169 C2165 1.495 . S
C2169 H2175 0.959 . S
C2169 H2176 0.961 . S
C2169 H2177 0.960 . S
C2170 C2168 1.381 . S
C2170 C2171 1.394 . S
C2170 H2178 0.930 . S
C2171 C2170 1.394 . S
C2171 C2172 1.383 . S
C2171 H2179 0.929 . S
C2172 C2171 1.383 . S
C2172 C2173 1.377 . S
C2173 H2157 0.930 . S
C2173 C2172 1.377 . S
C2173 C2174 1.379 . S
C2174 H2158 0.931 . S
C2174 C2168 1.383 . S
C2174 C2173 1.379 . S
H2175 C2169 0.959 . S
H2176 C2169 0.961 . S
H2177 C2169 0.960 . S
H2178 C2170 0.930 . S
H2179 C2171 0.929 . S
H2180 C2188 0.929 . S
H2181 C2190 0.930 . S
H2182 C2192 0.930 . S
H2183 C2195 0.929 . S
H2184 C2198 0.930 . S
H2185 C2200 0.960 . S
H2186 C2200 0.960 . S
H2187 C2200 0.960 . S
C2188 H2180 0.929 . S
C2188 C2189 1.377 . S
C2188 C2190 1.384 . S
C2189 C2188 1.377 . S
C2189 C2195 1.390 . S
C2190 H2181 0.930 . S
C2190 C2188 1.384 . S
C2190 C2191 1.372 . S
C2191 C2190 1.372 . S
C2191 C2192 1.400 . S
C2191 C2196 1.490 . S
C2192 H2182 0.930 . S
C2192 C2191 1.400 . S
C2192 C2195 1.386 . S
H2193 C2209 0.930 . S
H2194 C2210 0.931 . S
C2195 H2183 0.929 . S
C2195 C2189 1.390 . S
C2195 C2192 1.386 . S
C2196 C2191 1.490 . S
C2196 C2198 1.395 . S
C2196 C2199 1.403 . S
H2197 C2203 0.930 . S
C2198 H2184 0.930 . S
C2198 C2196 1.395 . S
C2198 C2201 1.403 . S
C2199 C2196 1.403 . S
C2199 C2200 1.524 . S
C2199 C2203 1.400 . S
C2200 H2185 0.960 . S
C2200 H2186 0.960 . S
C2200 H2187 0.960 . S
C2200 C2199 1.524 . S
C2201 C2198 1.403 . S
C2201 C2202 1.392 . S
C2201 C2205 1.495 . S
C2202 C2201 1.392 . S
C2202 C2203 1.385 . S
C2202 C2204 1.478 . S
C2203 H2197 0.930 . S
C2203 C2199 1.400 . S
C2203 C2202 1.385 . S
C2204 C2202 1.478 . S
C2204 C2206 1.381 . S
C2204 C2210 1.383 . S
C2205 C2201 1.495 . S
C2205 H2211 0.959 . S
C2205 H2212 0.961 . S
C2205 H2213 0.960 . S
C2206 C2204 1.381 . S
C2206 C2207 1.394 . S
C2206 H2214 0.930 . S
C2207 C2206 1.394 . S
C2207 C2208 1.383 . S
C2207 H2215 0.929 . S
C2208 C2207 1.383 . S
C2208 C2209 1.377 . S
C2209 H2193 0.930 . S
C2209 C2208 1.377 . S
C2209 C2210 1.379 . S
C2210 H2194 0.931 . S
C2210 C2204 1.383 . S
C2210 C2209 1.379 . S
H2211 C2205 0.959 . S
H2212 C2205 0.961 . S
H2213 C2205 0.960 . S
H2214 C2206 0.930 . S
H2215 C2207 0.929 . S
H2216 C2224 0.929 . S
H2217 C2226 0.930 . S
H2218 C2228 0.930 . S
H2219 C2231 0.929 . S
H2220 C2234 0.930 . S
H2221 C2236 0.960 . S
H2222 C2236 0.960 . S
H2223 C2236 0.960 . S
C2224 H2216 0.929 . S
C2224 C2225 1.377 . S
C2224 C2226 1.384 . S
C2225 C2224 1.377 . S
C2225 C2231 1.390 . S
C2226 H2217 0.930 . S
C2226 C2224 1.384 . S
C2226 C2227 1.372 . S
C2227 C2226 1.372 . S
C2227 C2228 1.400 . S
C2227 C2232 1.490 . S
C2228 H2218 0.930 . S
C2228 C2227 1.400 . S
C2228 C2231 1.386 . S
H2229 C2245 0.930 . S
H2230 C2246 0.931 . S
C2231 H2219 0.929 . S
C2231 C2225 1.390 . S
C2231 C2228 1.386 . S
C2232 C2227 1.490 . S
C2232 C2234 1.395 . S
C2232 C2235 1.403 . S
H2233 C2239 0.930 . S
C2234 H2220 0.930 . S
C2234 C2232 1.395 . S
C2234 C2237 1.403 . S
C2235 C2232 1.403 . S
C2235 C2236 1.524 . S
C2235 C2239 1.400 . S
C2236 H2221 0.960 . S
C2236 H2222 0.960 . S
C2236 H2223 0.960 . S
C2236 C2235 1.524 . S
C2237 C2234 1.403 . S
C2237 C2238 1.392 . S
C2237 C2241 1.495 . S
C2238 C2237 1.392 . S
C2238 C2239 1.385 . S
C2238 C2240 1.478 . S
C2239 H2233 0.930 . S
C2239 C2235 1.400 . S
C2239 C2238 1.385 . S
C2240 C2238 1.478 . S
C2240 C2242 1.381 . S
C2240 C2246 1.383 . S
C2241 C2237 1.495 . S
C2241 H2247 0.959 . S
C2241 H2248 0.961 . S
C2241 H2249 0.960 . S
C2242 C2240 1.381 . S
C2242 C2243 1.394 . S
C2242 H2250 0.930 . S
C2243 C2242 1.394 . S
C2243 C2244 1.383 . S
C2243 H2251 0.929 . S
C2244 C2243 1.383 . S
C2244 C2245 1.377 . S
C2245 H2229 0.930 . S
C2245 C2244 1.377 . S
C2245 C2246 1.379 . S
C2246 H2230 0.931 . S
C2246 C2240 1.383 . S
C2246 C2245 1.379 . S
H2247 C2241 0.959 . S
H2248 C2241 0.961 . S
H2249 C2241 0.960 . S
H2250 C2242 0.930 . S
H2251 C2243 0.929 . S
H2252 C2260 0.929 . S
H2253 C2262 0.930 . S
H2254 C2264 0.930 . S
H2255 C2267 0.929 . S
H2256 C2270 0.930 . S
H2257 C2272 0.960 . S
H2258 C2272 0.960 . S
H2259 C2272 0.960 . S
C2260 H2252 0.929 . S
C2260 C2261 1.377 . S
C2260 C2262 1.384 . S
C2261 C2260 1.377 . S
C2261 C2267 1.390 . S
C2262 H2253 0.930 . S
C2262 C2260 1.384 . S
C2262 C2263 1.372 . S
C2263 C2262 1.372 . S
C2263 C2264 1.400 . S
C2263 C2268 1.490 . S
C2264 H2254 0.930 . S
C2264 C2263 1.400 . S
C2264 C2267 1.386 . S
H2265 C2281 0.930 . S
H2266 C2282 0.931 . S
C2267 H2255 0.929 . S
C2267 C2261 1.390 . S
C2267 C2264 1.386 . S
C2268 C2263 1.490 . S
C2268 C2270 1.395 . S
C2268 C2271 1.403 . S
H2269 C2275 0.930 . S
C2270 H2256 0.930 . S
C2270 C2268 1.395 . S
C2270 C2273 1.403 . S
C2271 C2268 1.403 . S
C2271 C2272 1.524 . S
C2271 C2275 1.400 . S
C2272 H2257 0.960 . S
C2272 H2258 0.960 . S
C2272 H2259 0.960 . S
C2272 C2271 1.524 . S
C2273 C2270 1.403 . S
C2273 C2274 1.392 . S
C2273 C2277 1.495 . S
C2274 C2273 1.392 . S
C2274 C2275 1.385 . S
C2274 C2276 1.478 . S
C2275 H2269 0.930 . S
C2275 C2271 1.400 . S
C2275 C2274 1.385 . S
C2276 C2274 1.478 . S
C2276 C2278 1.381 . S
C2276 C2282 1.383 . S
C2277 C2273 1.495 . S
C2277 H2283 0.959 . S
C2277 H2284 0.961 . S
C2277 H2285 0.960 . S
C2278 C2276 1.381 . S
C2278 C2279 1.394 . S
C2278 H2286 0.930 . S
C2279 C2278 1.394 . S
C2279 C2280 1.383 . S
C2279 H2287 0.929 . S
C2280 C2279 1.383 . S
C2280 C2281 1.377 . S
C2281 H2265 0.930 . S
C2281 C2280 1.377 . S
C2281 C2282 1.379 . S
C2282 H2266 0.931 . S
C2282 C2276 1.383 . S
C2282 C2281 1.379 . S
H2283 C2277 0.959 . S
H2284 C2277 0.961 . S
H2285 C2277 0.960 . S
H2286 C2278 0.930 . S
H2287 C2279 0.929 . S
H2288 C2296 0.929 . S
H2289 C2298 0.930 . S
H2290 C2300 0.930 . S
H2291 C2303 0.929 . S
H2292 C2306 0.930 . S
H2293 C2308 0.960 . S
H2294 C2308 0.960 . S
H2295 C2308 0.960 . S
C2296 H2288 0.929 . S
C2296 C2297 1.377 . S
C2296 C2298 1.384 . S
C2297 C2296 1.377 . S
C2297 C2303 1.390 . S
C2298 H2289 0.930 . S
C2298 C2296 1.384 . S
C2298 C2299 1.372 . S
C2299 C2298 1.372 . S
C2299 C2300 1.400 . S
C2299 C2304 1.490 . S
C2300 H2290 0.930 . S
C2300 C2299 1.400 . S
C2300 C2303 1.386 . S
H2301 C2317 0.930 . S
H2302 C2318 0.931 . S
C2303 H2291 0.929 . S
C2303 C2297 1.390 . S
C2303 C2300 1.386 . S
C2304 C2299 1.490 . S
C2304 C2306 1.395 . S
C2304 C2307 1.403 . S
H2305 C2311 0.930 . S
C2306 H2292 0.930 . S
C2306 C2304 1.395 . S
C2306 C2309 1.403 . S
C2307 C2304 1.403 . S
C2307 C2308 1.524 . S
C2307 C2311 1.400 . S
C2308 H2293 0.960 . S
C2308 H2294 0.960 . S
C2308 H2295 0.960 . S
C2308 C2307 1.524 . S
C2309 C2306 1.403 . S
C2309 C2310 1.392 . S
C2309 C2313 1.495 . S
C2310 C2309 1.392 . S
C2310 C2311 1.385 . S
C2310 C2312 1.478 . S
C2311 H2305 0.930 . S
C2311 C2307 1.400 . S
C2311 C2310 1.385 . S
C2312 C2310 1.478 . S
C2312 C2314 1.381 . S
C2312 C2318 1.383 . S
C2313 C2309 1.495 . S
C2313 H2319 0.959 . S
C2313 H2320 0.961 . S
C2313 H2321 0.960 . S
C2314 C2312 1.381 . S
C2314 C2315 1.394 . S
C2314 H2322 0.930 . S
C2315 C2314 1.394 . S
C2315 C2316 1.383 . S
C2315 H2323 0.929 . S
C2316 C2315 1.383 . S
C2316 C2317 1.377 . S
C2317 H2301 0.930 . S
C2317 C2316 1.377 . S
C2317 C2318 1.379 . S
C2318 H2302 0.931 . S
C2318 C2312 1.383 . S
C2318 C2317 1.379 . S
H2319 C2313 0.959 . S
H2320 C2313 0.961 . S
H2321 C2313 0.960 . S
H2322 C2314 0.930 . S
H2323 C2315 0.929 . S
H2324 C2332 0.929 . S
H2325 C2334 0.930 . S
H2326 C2336 0.930 . S
H2327 C2339 0.929 . S
H2328 C2342 0.930 . S
H2329 C2344 0.960 . S
H2330 C2344 0.960 . S
H2331 C2344 0.960 . S
C2332 H2324 0.929 . S
C2332 C2333 1.377 . S
C2332 C2334 1.384 . S
C2333 C2332 1.377 . S
C2333 C2339 1.390 . S
C2334 H2325 0.930 . S
C2334 C2332 1.384 . S
C2334 C2335 1.372 . S
C2335 C2334 1.372 . S
C2335 C2336 1.400 . S
C2335 C2340 1.490 . S
C2336 H2326 0.930 . S
C2336 C2335 1.400 . S
C2336 C2339 1.386 . S
H2337 C2353 0.930 . S
H2338 C2354 0.931 . S
C2339 H2327 0.929 . S
C2339 C2333 1.390 . S
C2339 C2336 1.386 . S
C2340 C2335 1.490 . S
C2340 C2342 1.395 . S
C2340 C2343 1.403 . S
H2341 C2347 0.930 . S
C2342 H2328 0.930 . S
C2342 C2340 1.395 . S
C2342 C2345 1.403 . S
C2343 C2340 1.403 . S
C2343 C2344 1.524 . S
C2343 C2347 1.400 . S
C2344 H2329 0.960 . S
C2344 H2330 0.960 . S
C2344 H2331 0.960 . S
C2344 C2343 1.524 . S
C2345 C2342 1.403 . S
C2345 C2346 1.392 . S
C2345 C2349 1.495 . S
C2346 C2345 1.392 . S
C2346 C2347 1.385 . S
C2346 C2348 1.478 . S
C2347 H2341 0.930 . S
C2347 C2343 1.400 . S
C2347 C2346 1.385 . S
C2348 C2346 1.478 . S
C2348 C2350 1.381 . S
C2348 C2354 1.383 . S
C2349 C2345 1.495 . S
C2349 H2355 0.959 . S
C2349 H2356 0.961 . S
C2349 H2357 0.960 . S
C2350 C2348 1.381 . S
C2350 C2351 1.394 . S
C2350 H2358 0.930 . S
C2351 C2350 1.394 . S
C2351 C2352 1.383 . S
C2351 H2359 0.929 . S
C2352 C2351 1.383 . S
C2352 C2353 1.377 . S
C2353 H2337 0.930 . S
C2353 C2352 1.377 . S
C2353 C2354 1.379 . S
C2354 H2338 0.931 . S
C2354 C2348 1.383 . S
C2354 C2353 1.379 . S
H2355 C2349 0.959 . S
H2356 C2349 0.961 . S
H2357 C2349 0.960 . S
H2358 C2350 0.930 . S
H2359 C2351 0.929 . S
H2360 C2368 0.929 . S
H2361 C2370 0.930 . S
H2362 C2372 0.930 . S
H2363 C2375 0.929 . S
H2364 C2378 0.930 . S
H2365 C2380 0.960 . S
H2366 C2380 0.960 . S
H2367 C2380 0.960 . S
C2368 H2360 0.929 . S
C2368 C2369 1.377 . S
C2368 C2370 1.384 . S
C2369 C2368 1.377 . S
C2369 C2375 1.390 . S
C2370 H2361 0.930 . S
C2370 C2368 1.384 . S
C2370 C2371 1.372 . S
C2371 C2370 1.372 . S
C2371 C2372 1.400 . S
C2371 C2376 1.490 . S
C2372 H2362 0.930 . S
C2372 C2371 1.400 . S
C2372 C2375 1.386 . S
H2373 C2389 0.930 . S
H2374 C2390 0.931 . S
C2375 H2363 0.929 . S
C2375 C2369 1.390 . S
C2375 C2372 1.386 . S
C2376 C2371 1.490 . S
C2376 C2378 1.395 . S
C2376 C2379 1.403 . S
H2377 C2383 0.930 . S
C2378 H2364 0.930 . S
C2378 C2376 1.395 . S
C2378 C2381 1.403 . S
C2379 C2376 1.403 . S
C2379 C2380 1.524 . S
C2379 C2383 1.400 . S
C2380 H2365 0.960 . S
C2380 H2366 0.960 . S
C2380 H2367 0.960 . S
C2380 C2379 1.524 . S
C2381 C2378 1.403 . S
C2381 C2382 1.392 . S
C2381 C2385 1.495 . S
C2382 C2381 1.392 . S
C2382 C2383 1.385 . S
C2382 C2384 1.478 . S
C2383 H2377 0.930 . S
C2383 C2379 1.400 . S
C2383 C2382 1.385 . S
C2384 C2382 1.478 . S
C2384 C2386 1.381 . S
C2384 C2390 1.383 . S
C2385 C2381 1.495 . S
C2385 H2391 0.959 . S
C2385 H2392 0.961 . S
C2385 H2393 0.960 . S
C2386 C2384 1.381 . S
C2386 C2387 1.394 . S
C2386 H2394 0.930 . S
C2387 C2386 1.394 . S
C2387 C2388 1.383 . S
C2387 H2395 0.929 . S
C2388 C2387 1.383 . S
C2388 C2389 1.377 . S
C2389 H2373 0.930 . S
C2389 C2388 1.377 . S
C2389 C2390 1.379 . S
C2390 H2374 0.931 . S
C2390 C2384 1.383 . S
C2390 C2389 1.379 . S
H2391 C2385 0.959 . S
H2392 C2385 0.961 . S
H2393 C2385 0.960 . S
H2394 C2386 0.930 . S
H2395 C2387 0.929 . S
H2396 C2404 0.929 . S
H2397 C2406 0.930 . S
H2398 C2408 0.930 . S
H2399 C2411 0.929 . S
H2400 C2414 0.930 . S
H2401 C2416 0.960 . S
H2402 C2416 0.960 . S
H2403 C2416 0.960 . S
C2404 H2396 0.929 . S
C2404 C2405 1.377 . S
C2404 C2406 1.384 . S
C2405 C2404 1.377 . S
C2405 C2411 1.390 . S
C2406 H2397 0.930 . S
C2406 C2404 1.384 . S
C2406 C2407 1.372 . S
C2407 C2406 1.372 . S
C2407 C2408 1.400 . S
C2407 C2412 1.490 . S
C2408 H2398 0.930 . S
C2408 C2407 1.400 . S
C2408 C2411 1.386 . S
H2409 C2425 0.930 . S
H2410 C2426 0.931 . S
C2411 H2399 0.929 . S
C2411 C2405 1.390 . S
C2411 C2408 1.386 . S
C2412 C2407 1.490 . S
C2412 C2414 1.395 . S
C2412 C2415 1.403 . S
H2413 C2419 0.930 . S
C2414 H2400 0.930 . S
C2414 C2412 1.395 . S
C2414 C2417 1.403 . S
C2415 C2412 1.403 . S
C2415 C2416 1.524 . S
C2415 C2419 1.400 . S
C2416 H2401 0.960 . S
C2416 H2402 0.960 . S
C2416 H2403 0.960 . S
C2416 C2415 1.524 . S
C2417 C2414 1.403 . S
C2417 C2418 1.392 . S
C2417 C2421 1.495 . S
C2418 C2417 1.392 . S
C2418 C2419 1.385 . S
C2418 C2420 1.478 . S
C2419 H2413 0.930 . S
C2419 C2415 1.400 . S
C2419 C2418 1.385 . S
C2420 C2418 1.478 . S
C2420 C2422 1.381 . S
C2420 C2426 1.383 . S
C2421 C2417 1.495 . S
C2421 H2427 0.959 . S
C2421 H2428 0.961 . S
C2421 H2429 0.960 . S
C2422 C2420 1.381 . S
C2422 C2423 1.394 . S
C2422 H2430 0.930 . S
C2423 C2422 1.394 . S
C2423 C2424 1.383 . S
C2423 H2431 0.929 . S
C2424 C2423 1.383 . S
C2424 C2425 1.377 . S
C2425 H2409 0.930 . S
C2425 C2424 1.377 . S
C2425 C2426 1.379 . S
C2426 H2410 0.931 . S
C2426 C2420 1.383 . S
C2426 C2425 1.379 . S
H2427 C2421 0.959 . S
H2428 C2421 0.961 . S
H2429 C2421 0.960 . S
H2430 C2422 0.930 . S
H2431 C2423 0.929 . S
H2432 C2440 0.929 . S
H2433 C2442 0.930 . S
H2434 C2444 0.930 . S
H2435 C2447 0.929 . S
H2436 C2450 0.930 . S
H2437 C2452 0.960 . S
H2438 C2452 0.960 . S
H2439 C2452 0.960 . S
C2440 H2432 0.929 . S
C2440 C2441 1.377 . S
C2440 C2442 1.384 1_565 S
C2441 C2440 1.377 . S
C2441 C2447 1.390 . S
C2442 H2433 0.930 . S
C2442 C2440 1.384 1_545 S
C2442 C2443 1.372 . S
C2443 C2442 1.372 . S
C2443 C2444 1.400 . S
C2443 C2448 1.490 . S
C2444 H2434 0.930 . S
C2444 C2443 1.400 . S
C2444 C2447 1.386 1_545 S
H2445 C2461 0.930 . S
H2446 C2462 0.931 . S
C2447 H2435 0.929 . S
C2447 C2441 1.390 . S
C2447 C2444 1.386 1_565 S
C2448 C2443 1.490 . S
C2448 C2450 1.395 . S
C2448 C2451 1.403 . S
H2449 C2455 0.930 . S
C2450 H2436 0.930 . S
C2450 C2448 1.395 . S
C2450 C2453 1.403 . S
C2451 C2448 1.403 . S
C2451 C2452 1.524 1_545 S
C2451 C2455 1.400 . S
C2452 H2437 0.960 . S
C2452 H2438 0.960 . S
C2452 H2439 0.960 . S
C2452 C2451 1.524 1_565 S
C2453 C2450 1.403 . S
C2453 C2454 1.392 . S
C2453 C2457 1.495 . S
C2454 C2453 1.392 . S
C2454 C2455 1.385 . S
C2454 C2456 1.478 . S
C2455 H2449 0.930 . S
C2455 C2451 1.400 . S
C2455 C2454 1.385 . S
C2456 C2454 1.478 . S
C2456 C2458 1.381 . S
C2456 C2462 1.383 . S
C2457 C2453 1.495 . S
C2457 H2463 0.959 . S
C2457 H2464 0.961 . S
C2457 H2465 0.960 . S
C2458 C2456 1.381 . S
C2458 C2459 1.394 . S
C2458 H2466 0.930 . S
C2459 C2458 1.394 . S
C2459 C2460 1.383 . S
C2459 H2467 0.929 . S
C2460 C2459 1.383 . S
C2460 C2461 1.377 . S
C2461 H2445 0.930 . S
C2461 C2460 1.377 . S
C2461 C2462 1.379 . S
C2462 H2446 0.931 . S
C2462 C2456 1.383 . S
C2462 C2461 1.379 . S
H2463 C2457 0.959 . S
H2464 C2457 0.961 . S
H2465 C2457 0.960 . S
H2466 C2458 0.930 . S
H2467 C2459 0.929 . S
H2468 C2476 0.929 . S
H2469 C2478 0.930 . S
H2470 C2480 0.930 . S
H2471 C2483 0.929 . S
H2472 C2486 0.930 . S
H2473 C2488 0.960 . S
H2474 C2488 0.960 . S
H2475 C2488 0.960 . S
C2476 H2468 0.929 . S
C2476 C2477 1.377 . S
C2476 C2478 1.384 . S
C2477 C2476 1.377 . S
C2477 C2483 1.390 . S
C2478 H2469 0.930 . S
C2478 C2476 1.384 . S
C2478 C2479 1.372 . S
C2479 C2478 1.372 . S
C2479 C2480 1.400 . S
C2479 C2484 1.490 . S
C2480 H2470 0.930 . S
C2480 C2479 1.400 . S
C2480 C2483 1.386 . S
H2481 C2497 0.930 . S
H2482 C2498 0.931 . S
C2483 H2471 0.929 . S
C2483 C2477 1.390 . S
C2483 C2480 1.386 . S
C2484 C2479 1.490 . S
C2484 C2486 1.395 . S
C2484 C2487 1.403 . S
H2485 C2491 0.930 . S
C2486 H2472 0.930 . S
C2486 C2484 1.395 . S
C2486 C2489 1.403 . S
C2487 C2484 1.403 . S
C2487 C2488 1.524 . S
C2487 C2491 1.400 . S
C2488 H2473 0.960 . S
C2488 H2474 0.960 . S
C2488 H2475 0.960 . S
C2488 C2487 1.524 . S
C2489 C2486 1.403 . S
C2489 C2490 1.392 . S
C2489 C2493 1.495 . S
C2490 C2489 1.392 . S
C2490 C2491 1.385 . S
C2490 C2492 1.478 . S
C2491 H2485 0.930 . S
C2491 C2487 1.400 . S
C2491 C2490 1.385 . S
C2492 C2490 1.478 . S
C2492 C2494 1.381 . S
C2492 C2498 1.383 . S
C2493 C2489 1.495 . S
C2493 H2499 0.959 . S
C2493 H2500 0.961 . S
C2493 H2501 0.960 . S
C2494 C2492 1.381 . S
C2494 C2495 1.394 . S
C2494 H2502 0.930 . S
C2495 C2494 1.394 . S
C2495 C2496 1.383 . S
C2495 H2503 0.929 . S
C2496 C2495 1.383 . S
C2496 C2497 1.377 . S
C2497 H2481 0.930 . S
C2497 C2496 1.377 . S
C2497 C2498 1.379 . S
C2498 H2482 0.931 . S
C2498 C2492 1.383 . S
C2498 C2497 1.379 . S
H2499 C2493 0.959 . S
H2500 C2493 0.961 . S
H2501 C2493 0.960 . S
H2502 C2494 0.930 . S
H2503 C2495 0.929 . S
H2504 C2512 0.929 . S
H2505 C2514 0.930 . S
H2506 C2516 0.930 . S
H2507 C2519 0.929 . S
H2508 C2522 0.930 . S
H2509 C2524 0.960 . S
H2510 C2524 0.960 . S
H2511 C2524 0.960 . S
C2512 H2504 0.929 . S
C2512 C2513 1.377 1_565 S
C2512 C2514 1.384 . S
C2513 C2512 1.377 1_545 S
C2513 C2519 1.390 . S
C2514 H2505 0.930 . S
C2514 C2512 1.384 . S
C2514 C2515 1.372 1_565 S
C2515 C2514 1.372 1_545 S
C2515 C2516 1.400 . S
C2515 C2520 1.490 . S
C2516 H2506 0.930 . S
C2516 C2515 1.400 . S
C2516 C2519 1.386 . S
H2517 C2533 0.930 . S
H2518 C2534 0.931 . S
C2519 H2507 0.929 . S
C2519 C2513 1.390 . S
C2519 C2516 1.386 . S
C2520 C2515 1.490 . S
C2520 C2522 1.395 . S
C2520 C2523 1.403 . S
H2521 C2527 0.930 . S
C2522 H2508 0.930 . S
C2522 C2520 1.395 . S
C2522 C2525 1.403 . S
C2523 C2520 1.403 . S
C2523 C2524 1.524 . S
C2523 C2527 1.400 . S
C2524 H2509 0.960 . S
C2524 H2510 0.960 . S
C2524 H2511 0.960 . S
C2524 C2523 1.524 . S
C2525 C2522 1.403 . S
C2525 C2526 1.392 . S
C2525 C2529 1.495 . S
C2526 C2525 1.392 . S
C2526 C2527 1.385 . S
C2526 C2528 1.478 . S
C2527 H2521 0.930 . S
C2527 C2523 1.400 . S
C2527 C2526 1.385 . S
C2528 C2526 1.478 . S
C2528 C2530 1.381 . S
C2528 C2534 1.383 . S
C2529 C2525 1.495 . S
C2529 H2535 0.959 1_545 S
C2529 H2536 0.961 . S
C2529 H2537 0.960 1_545 S
C2530 C2528 1.381 . S
C2530 C2531 1.394 . S
C2530 H2538 0.930 1_545 S
C2531 C2530 1.394 . S
C2531 C2532 1.383 . S
C2531 H2539 0.929 1_545 S
C2532 C2531 1.383 . S
C2532 C2533 1.377 . S
C2533 H2517 0.930 . S
C2533 C2532 1.377 . S
C2533 C2534 1.379 . S
C2534 H2518 0.931 . S
C2534 C2528 1.383 . S
C2534 C2533 1.379 . S
H2535 C2529 0.959 1_565 S
H2536 C2529 0.961 . S
H2537 C2529 0.960 1_565 S
H2538 C2530 0.930 1_565 S
H2539 C2531 0.929 1_565 S
H2540 C2548 0.929 . S
H2541 C2550 0.930 . S
H2542 C2552 0.930 . S
H2543 C2555 0.929 . S
H2544 C2558 0.930 . S
H2545 C2560 0.960 . S
H2546 C2560 0.960 . S
H2547 C2560 0.960 . S
C2548 H2540 0.929 . S
C2548 C2549 1.377 . S
C2548 C2550 1.384 . S
C2549 C2548 1.377 . S
C2549 C2555 1.390 . S
C2550 H2541 0.930 . S
C2550 C2548 1.384 . S
C2550 C2551 1.372 . S
C2551 C2550 1.372 . S
C2551 C2552 1.400 . S
C2551 C2556 1.490 . S
C2552 H2542 0.930 . S
C2552 C2551 1.400 . S
C2552 C2555 1.386 . S
H2553 C2569 0.930 . S
H2554 C2570 0.931 . S
C2555 H2543 0.929 . S
C2555 C2549 1.390 . S
C2555 C2552 1.386 . S
C2556 C2551 1.490 . S
C2556 C2558 1.395 . S
C2556 C2559 1.403 . S
H2557 C2563 0.930 . S
C2558 H2544 0.930 . S
C2558 C2556 1.395 . S
C2558 C2561 1.403 . S
C2559 C2556 1.403 . S
C2559 C2560 1.524 . S
C2559 C2563 1.400 . S
C2560 H2545 0.960 . S
C2560 H2546 0.960 . S
C2560 H2547 0.960 . S
C2560 C2559 1.524 . S
C2561 C2558 1.403 . S
C2561 C2562 1.392 . S
C2561 C2565 1.495 . S
C2562 C2561 1.392 . S
C2562 C2563 1.385 . S
C2562 C2564 1.478 . S
C2563 H2557 0.930 . S
C2563 C2559 1.400 . S
C2563 C2562 1.385 . S
C2564 C2562 1.478 . S
C2564 C2566 1.381 . S
C2564 C2570 1.383 . S
C2565 C2561 1.495 . S
C2565 H2571 0.959 . S
C2565 H2572 0.961 . S
C2565 H2573 0.960 . S
C2566 C2564 1.381 . S
C2566 C2567 1.394 . S
C2566 H2574 0.930 . S
C2567 C2566 1.394 . S
C2567 C2568 1.383 . S
C2567 H2575 0.929 . S
C2568 C2567 1.383 . S
C2568 C2569 1.377 . S
C2569 H2553 0.930 . S
C2569 C2568 1.377 . S
C2569 C2570 1.379 . S
C2570 H2554 0.931 . S
C2570 C2564 1.383 . S
C2570 C2569 1.379 . S
H2571 C2565 0.959 . S
H2572 C2565 0.961 . S
H2573 C2565 0.960 . S
H2574 C2566 0.930 . S
H2575 C2567 0.929 . S
H2576 C2584 0.929 . S
H2577 C2586 0.930 . S
H2578 C2588 0.930 . S
H2579 C2591 0.929 . S
H2580 C2594 0.930 . S
H2581 C2596 0.960 . S
H2582 C2596 0.960 . S
H2583 C2596 0.960 . S
C2584 H2576 0.929 . S
C2584 C2585 1.377 . S
C2584 C2586 1.384 . S
C2585 C2584 1.377 . S
C2585 C2591 1.390 1_556 S
C2586 H2577 0.930 . S
C2586 C2584 1.384 . S
C2586 C2587 1.372 . S
C2587 C2586 1.372 . S
C2587 C2588 1.400 1_556 S
C2587 C2592 1.495 . S
C2588 H2578 0.930 . S
C2588 C2587 1.400 1_554 S
C2588 C2591 1.386 . S
H2589 C2605 0.930 . S
H2590 C2606 0.931 . S
C2591 H2579 0.929 . S
C2591 C2585 1.390 1_554 S
C2591 C2588 1.386 . S
C2592 C2587 1.495 . S
C2592 C2594 1.408 . S
C2592 C2595 1.386 1_556 S
H2593 C2599 0.930 . S
C2594 H2580 0.930 . S
C2594 C2592 1.408 . S
C2594 C2597 1.403 . S
C2595 C2592 1.386 1_554 S
C2595 C2596 1.524 . S
C2595 C2599 1.400 . S
C2596 H2581 0.960 . S
C2596 H2582 0.960 . S
C2596 H2583 0.960 . S
C2596 C2595 1.524 . S
C2597 C2594 1.403 . S
C2597 C2598 1.392 1_556 S
C2597 C2601 1.495 . S
C2598 C2597 1.392 1_554 S
C2598 C2599 1.385 . S
C2598 C2600 1.478 . S
C2599 H2593 0.930 . S
C2599 C2595 1.400 . S
C2599 C2598 1.385 . S
C2600 C2598 1.478 . S
C2600 C2602 1.381 1_554 S
C2600 C2606 1.383 . S
C2601 C2597 1.495 . S
C2601 H2607 0.959 . S
C2601 H2608 0.961 . S
C2601 H2609 0.960 . S
C2602 C2600 1.381 1_556 S
C2602 C2603 1.395 . S
C2602 H2610 0.930 . S
C2603 C2602 1.395 . S
C2603 C2604 1.379 1_556 S
C2603 H2611 0.933 . S
C2604 C2603 1.379 1_554 S
C2604 C2605 1.377 . S
C2605 H2589 0.930 . S
C2605 C2604 1.377 . S
C2605 C2606 1.379 . S
C2606 H2590 0.931 . S
C2606 C2600 1.383 . S
C2606 C2605 1.379 . S
H2607 C2601 0.959 . S
H2608 C2601 0.961 . S
H2609 C2601 0.960 . S
H2610 C2602 0.930 . S
H2611 C2603 0.933 . S
H2612 C2620 0.929 . S
H2613 C2622 0.930 . S
H2614 C2624 0.930 . S
H2615 C2627 0.929 . S
H2616 C2630 0.930 . S
H2617 C2632 0.960 . S
H2618 C2632 0.960 . S
H2619 C2632 0.960 . S
C2620 H2612 0.929 . S
C2620 C2621 1.377 1_554 S
C2620 C2622 1.384 . S
C2621 C2620 1.377 1_556 S
C2621 C2627 1.390 . S
C2622 H2613 0.930 . S
C2622 C2620 1.384 . S
C2622 C2623 1.372 1_554 S
C2623 C2622 1.372 1_556 S
C2623 C2624 1.400 . S
C2623 C2628 1.491 . S
C2624 H2614 0.930 . S
C2624 C2623 1.400 . S
C2624 C2627 1.386 . S
H2625 C2641 0.930 . S
H2626 C2642 0.931 . S
C2627 H2615 0.929 . S
C2627 C2621 1.390 . S
C2627 C2624 1.386 . S
C2628 C2623 1.491 . S
C2628 C2630 1.393 1_556 S
C2628 C2631 1.403 . S
H2629 C2635 0.937 . S
C2630 H2616 0.930 . S
C2630 C2628 1.393 1_554 S
C2630 C2633 1.403 . S
C2631 C2628 1.403 . S
C2631 C2632 1.524 . S
C2631 C2635 1.407 . S
C2632 H2617 0.960 . S
C2632 H2618 0.960 . S
C2632 H2619 0.960 . S
C2632 C2631 1.524 . S
C2633 C2630 1.403 . S
C2633 C2634 1.392 . S
C2633 C2637 1.495 . S
C2634 C2633 1.392 . S
C2634 C2635 1.373 1_554 S
C2634 C2636 1.478 . S
C2635 H2629 0.937 . S
C2635 C2631 1.407 . S
C2635 C2634 1.373 1_556 S
C2636 C2634 1.478 . S
C2636 C2638 1.381 . S
C2636 C2642 1.383 1_554 S
C2637 C2633 1.495 . S
C2637 H2643 0.959 . S
C2637 H2644 0.961 . S
C2637 H2645 0.960 . S
C2638 C2636 1.381 . S
C2638 C2639 1.394 . S
C2638 H2646 0.930 . S
C2639 C2638 1.394 . S
C2639 C2640 1.383 . S
C2639 H2647 0.929 . S
C2640 C2639 1.383 . S
C2640 C2641 1.377 1_554 S
C2641 H2625 0.930 . S
C2641 C2640 1.377 1_556 S
C2641 C2642 1.379 . S
C2642 H2626 0.931 . S
C2642 C2636 1.383 1_556 S
C2642 C2641 1.379 . S
H2643 C2637 0.959 . S
H2644 C2637 0.961 . S
H2645 C2637 0.960 . S
H2646 C2638 0.930 . S
H2647 C2639 0.929 . S
H2648 C2656 0.963 . S
H2649 C2658 0.955 . S
H2650 C2660 0.930 . S
H2651 C2663 0.929 . S
H2652 C2666 0.930 . S
H2653 C2668 0.960 . S
H2654 C2668 0.960 . S
H2655 C2668 0.960 . S
C2656 H2648 0.963 . S
C2656 C2657 1.362 1_556 S
C2656 C2658 1.368 1_556 S
C2657 C2656 1.362 1_554 S
C2657 C2663 1.390 . S
C2658 H2649 0.955 . S
C2658 C2656 1.368 1_554 S
C2658 C2659 1.372 . S
C2659 C2658 1.372 . S
C2659 C2660 1.400 . S
C2659 C2664 1.490 . S
C2660 H2650 0.930 . S
C2660 C2659 1.400 . S
C2660 C2663 1.386 . S
H2661 C2677 0.930 . S
H2662 C2678 0.931 . S
C2663 H2651 0.929 . S
C2663 C2657 1.390 . S
C2663 C2660 1.386 . S
C2664 C2659 1.490 . S
C2664 C2666 1.395 . S
C2664 C2667 1.403 . S
H2665 C2671 0.930 . S
C2666 H2652 0.930 . S
C2666 C2664 1.395 . S
C2666 C2669 1.403 . S
C2667 C2664 1.403 . S
C2667 C2668 1.524 . S
C2667 C2671 1.400 . S
C2668 H2653 0.960 . S
C2668 H2654 0.960 . S
C2668 H2655 0.960 . S
C2668 C2667 1.524 . S
C2669 C2666 1.403 . S
C2669 C2670 1.392 . S
C2669 C2673 1.495 . S
C2670 C2669 1.392 . S
C2670 C2671 1.385 . S
C2670 C2672 1.478 . S
C2671 H2665 0.930 . S
C2671 C2667 1.400 . S
C2671 C2670 1.385 . S
C2672 C2670 1.478 . S
C2672 C2674 1.381 . S
C2672 C2678 1.383 . S
C2673 C2669 1.495 . S
C2673 H2679 0.959 1_554 S
C2673 H2680 0.961 . S
C2673 H2681 0.960 . S
C2674 C2672 1.381 . S
C2674 C2675 1.394 . S
C2674 H2682 0.930 . S
C2675 C2674 1.394 . S
C2675 C2676 1.383 . S
C2675 H2683 0.929 1_655 S
C2676 C2675 1.383 . S
C2676 C2677 1.377 . S
C2677 H2661 0.930 . S
C2677 C2676 1.377 . S
C2677 C2678 1.379 . S
C2678 H2662 0.931 . S
C2678 C2672 1.383 . S
C2678 C2677 1.379 . S
H2679 C2673 0.959 1_556 S
H2680 C2673 0.961 . S
H2681 C2673 0.960 . S
H2682 C2674 0.930 . S
H2683 C2675 0.929 1_455 S
C965 C22 2.465 . S
C984 C735 2.346 . S
C1020 C764 3.233 . S
C1001 C38 3.229 . S
C1056 C641 1.350 1_565 S
C1037 C75 1.356 . S
C1073 C91 1.944 . S
C1092 C685 1.937 . S
C1109 C128 3.221 . S
C1128 C935 3.147 . S
C1145 C197 1.967 . S
C1164 C881 1.983 . S
C1200 C814 2.743 . S
C1181 C144 2.827 . S
C1217 C181 1.136 . S
C1236 C844 1.084 . S
C1272 C691 1.816 . S
C1253 C234 1.824 . S
C1308 C761 2.495 . S
C1289 C303 2.487 . S
C1325 C356 1.992 . S
C1344 C724 2.010 . S
C1361 C287 2.006 . S
C1380 C855 1.982 . S
C1416 C895 2.353 . S
C1397 C393 2.492 . S
C1452 C924 3.139 . S
C1433 C409 3.137 . S
C1469 C462 1.501 . S
C1488 C841 1.515 . S
C1524 C805 1.950 . S
C1505 C446 1.949 . S
C1541 C499 2.991 . S
C1560 C775 2.888 . S
C1577 C552 1.722 . S
C1596 C721 1.741 . S
C1632 C694 2.844 . S
C1613 C515 2.914 . S
C1649 C568 1.490 . S
C1668 C644 1.456 . S
C1704 C811 1.767 . S
C1685 C340 1.769 . S
C1740 C921 2.441 . S
C1721 C621 2.433 . S
C1757 C250 1.769 . S
C1776 C884 1.767 . S
C1793 C605 1.851 . S
C1812 C655 1.784 . S
C1848 C654 1.213 . S
C1829 C39 1.248 . S
C1865 C29 1.759 . S
C1884 C684 1.639 1_455 S
C1920 C731 0.735 . S
C1901 C92 0.731 . S
C1956 C765 1.732 . S
C1937 C82 1.777 . S
C1973 C145 1.939 . S
C1992 C645 1.926 . S
C2009 C188 1.388 . S
C2028 C681 1.333 . S
C2064 C734 0.629 . S
C2045 C135 0.687 . S
C2081 C198 0.660 . S
C2100 C771 0.711 . S
C2117 C251 1.107 . S
C2136 C651 1.031 . S
C2172 C725 2.181 . S
C2153 C294 2.238 . S
C2189 C347 1.756 . S
C2208 C774 1.636 . S
C2225 C304 0.756 . S
C2244 C815 0.713 . S
C2280 C854 1.183 . S
C2261 C410 1.223 . S
C2297 C400 1.753 . S
C2316 C804 1.617 . S
C2333 C453 0.429 . S
C2352 C891 0.630 . S
C2369 C463 2.258 . S
C2388 C925 2.207 . S
C2405 C516 2.068 . S
C2424 C845 2.033 . S
C2460 C801 1.560 . S
C2441 C569 1.626 . S
C2477 C506 0.482 . S
C2496 C894 0.587 . S
C2532 C931 0.489 . S
C2513 C559 0.432 . S
C2568 C851 1.048 . S
C2549 C357 1.049 . S
C2604 C885 2.210 . S
C2585 C612 2.284 . S
C2640 C934 1.492 . S
C2621 C241 1.611 . S
C2657 C622 0.414 . S
C2676 C695 0.424 . S
