# Generated by pormake.
# Topology ocu, (6,8)-cn, num edge types: 1
# Building blocks:
#     Node 0, Type 0, BuildingBlock: FUNLAD_clean_sbu_0, # of connection points: 6
#     Node 1, Type 0, BuildingBlock: FUNLAD_clean_sbu_0, # of connection points: 6
#     Node 2, Type 0, BuildingBlock: FUNLAD_clean_sbu_0, # of connection points: 6
#     Node 3, Type 0, BuildingBlock: FUNLAD_clean_sbu_0, # of connection points: 6
#     Node 4, Type 0, BuildingBlock: FUNLAD_clean_sbu_0, # of connection points: 6
#     Node 5, Type 0, BuildingBlock: FUNLAD_clean_sbu_0, # of connection points: 6
#     Node 6, Type 0, BuildingBlock: FUNLAD_clean_sbu_0, # of connection points: 6
#     Node 7, Type 0, BuildingBlock: FUNLAD_clean_sbu_0, # of connection points: 6
#     Node 8, Type 1, BuildingBlock: VETTIZ_charged_sbu_0, # of connection points: 8
#     Node 9, Type 1, BuildingBlock: VETTIZ_charged_sbu_0, # of connection points: 8
#     Node 10, Type 1, BuildingBlock: VETTIZ_charged_sbu_0, # of connection points: 8
#     Node 11, Type 1, BuildingBlock: VETTIZ_charged_sbu_0, # of connection points: 8
#     Node 12, Type 1, BuildingBlock: VETTIZ_charged_sbu_0, # of connection points: 8
#     Node 13, Type 1, BuildingBlock: VETTIZ_charged_sbu_0, # of connection points: 8
#     Edge 14, Type (0, 1), BuildingBlock: XUDNAN_clean_linker_2, # of connection points: 2
#     Edge 15, Type (0, 1), BuildingBlock: XUDNAN_clean_linker_2, # of connection points: 2
#     Edge 16, Type (0, 1), BuildingBlock: XUDNAN_clean_linker_2, # of connection points: 2
#     Edge 17, Type (0, 1), BuildingBlock: XUDNAN_clean_linker_2, # of connection points: 2
#     Edge 18, Type (0, 1), BuildingBlock: XUDNAN_clean_linker_2, # of connection points: 2
#     Edge 19, Type (0, 1), BuildingBlock: XUDNAN_clean_linker_2, # of connection points: 2
#     Edge 20, Type (0, 1), BuildingBlock: XUDNAN_clean_linker_2, # of connection points: 2
#     Edge 21, Type (0, 1), BuildingBlock: XUDNAN_clean_linker_2, # of connection points: 2
#     Edge 22, Type (0, 1), BuildingBlock: XUDNAN_clean_linker_2, # of connection points: 2
#     Edge 23, Type (0, 1), BuildingBlock: XUDNAN_clean_linker_2, # of connection points: 2
#     Edge 24, Type (0, 1), BuildingBlock: XUDNAN_clean_linker_2, # of connection points: 2
#     Edge 25, Type (0, 1), BuildingBlock: XUDNAN_clean_linker_2, # of connection points: 2
#     Edge 26, Type (0, 1), BuildingBlock: XUDNAN_clean_linker_2, # of connection points: 2
#     Edge 27, Type (0, 1), BuildingBlock: XUDNAN_clean_linker_2, # of connection points: 2
#     Edge 28, Type (0, 1), BuildingBlock: XUDNAN_clean_linker_2, # of connection points: 2
#     Edge 29, Type (0, 1), BuildingBlock: XUDNAN_clean_linker_2, # of connection points: 2
#     Edge 30, Type (0, 1), BuildingBlock: XUDNAN_clean_linker_2, # of connection points: 2
#     Edge 31, Type (0, 1), BuildingBlock: XUDNAN_clean_linker_2, # of connection points: 2
#     Edge 32, Type (0, 1), BuildingBlock: XUDNAN_clean_linker_2, # of connection points: 2
#     Edge 33, Type (0, 1), BuildingBlock: XUDNAN_clean_linker_2, # of connection points: 2
#     Edge 34, Type (0, 1), BuildingBlock: XUDNAN_clean_linker_2, # of connection points: 2
#     Edge 35, Type (0, 1), BuildingBlock: XUDNAN_clean_linker_2, # of connection points: 2
#     Edge 36, Type (0, 1), BuildingBlock: XUDNAN_clean_linker_2, # of connection points: 2
#     Edge 37, Type (0, 1), BuildingBlock: XUDNAN_clean_linker_2, # of connection points: 2
#     Edge 38, Type (0, 1), BuildingBlock: XUDNAN_clean_linker_2, # of connection points: 2
#     Edge 39, Type (0, 1), BuildingBlock: XUDNAN_clean_linker_2, # of connection points: 2
#     Edge 40, Type (0, 1), BuildingBlock: XUDNAN_clean_linker_2, # of connection points: 2
#     Edge 41, Type (0, 1), BuildingBlock: XUDNAN_clean_linker_2, # of connection points: 2
#     Edge 42, Type (0, 1), BuildingBlock: XUDNAN_clean_linker_2, # of connection points: 2
#     Edge 43, Type (0, 1), BuildingBlock: XUDNAN_clean_linker_2, # of connection points: 2
#     Edge 44, Type (0, 1), BuildingBlock: XUDNAN_clean_linker_2, # of connection points: 2
#     Edge 45, Type (0, 1), BuildingBlock: XUDNAN_clean_linker_2, # of connection points: 2
#     Edge 46, Type (0, 1), BuildingBlock: XUDNAN_clean_linker_2, # of connection points: 2
#     Edge 47, Type (0, 1), BuildingBlock: XUDNAN_clean_linker_2, # of connection points: 2
#     Edge 48, Type (0, 1), BuildingBlock: XUDNAN_clean_linker_2, # of connection points: 2
#     Edge 49, Type (0, 1), BuildingBlock: XUDNAN_clean_linker_2, # of connection points: 2
#     Edge 50, Type (0, 1), BuildingBlock: XUDNAN_clean_linker_2, # of connection points: 2
#     Edge 51, Type (0, 1), BuildingBlock: XUDNAN_clean_linker_2, # of connection points: 2
#     Edge 52, Type (0, 1), BuildingBlock: XUDNAN_clean_linker_2, # of connection points: 2
#     Edge 53, Type (0, 1), BuildingBlock: XUDNAN_clean_linker_2, # of connection points: 2
#     Edge 54, Type (0, 1), BuildingBlock: XUDNAN_clean_linker_2, # of connection points: 2
#     Edge 55, Type (0, 1), BuildingBlock: XUDNAN_clean_linker_2, # of connection points: 2
#     Edge 56, Type (0, 1), BuildingBlock: XUDNAN_clean_linker_2, # of connection points: 2
#     Edge 57, Type (0, 1), BuildingBlock: XUDNAN_clean_linker_2, # of connection points: 2
#     Edge 58, Type (0, 1), BuildingBlock: XUDNAN_clean_linker_2, # of connection points: 2
#     Edge 59, Type (0, 1), BuildingBlock: XUDNAN_clean_linker_2, # of connection points: 2
#     Edge 60, Type (0, 1), BuildingBlock: XUDNAN_clean_linker_2, # of connection points: 2
#     Edge 61, Type (0, 1), BuildingBlock: XUDNAN_clean_linker_2, # of connection points: 2
# Relax obj value: 0.149
# Max RMSD: 0.261
# Mean RMSD: 0.155
data_MOF--net-ocu--node1-FUNLAD_clean_sbu_0--node2-VETTIZ_charged_sbu_0--edge1-XUDNAN_clean_linker_2
_symmetry_space_group_name_H-M    P1
_symmetry_Int_Tables_number       1
_symmetry_cell_setting            triclinic
loop_
_symmetry_equiv_pos_as_xyz
'x, y, z'
_cell_length_a     39.117927
_cell_length_b     38.828158
_cell_length_c     38.900248
_cell_angle_alpha  84.095666
_cell_angle_beta   84.268318
_cell_angle_gamma 81.817672
loop_
_atom_site_label
_atom_site_type_symbol
_atom_site_fract_x
_atom_site_fract_y
_atom_site_fract_z
_atom_type_partial_charge
C0 C 0.21657 0.27729 0.3049 0.0
N1 N 0.21218 0.19079 0.25118 0.0
C2 C 0.19756 0.17852 0.28236 0.0
C3 C 0.17257 0.15631 0.284 0.0
C4 C 0.1625 0.1464 0.25332 0.0
C5 C 0.17834 0.15851 0.22134 0.0
C6 C 0.20336 0.18115 0.22085 0.0
Zn7 Zn 0.24638 0.22517 0.25351 0.0
C8 C 0.23572 0.28806 0.20435 0.0
N9 N 0.31542 0.29836 0.26316 0.0
C10 C 0.31622 0.31673 0.29106 0.0
C11 C 0.33487 0.30532 0.23294 0.0
C12 C 0.35556 0.33176 0.22957 0.0
C13 C 0.35551 0.35237 0.25707 0.0
C14 C 0.33587 0.34454 0.28836 0.0
Zn15 Zn 0.28157 0.2632 0.26151 0.0
O16 O 0.21101 0.25107 0.29038 0.0
C17 C 0.29379 0.20144 0.30987 0.0
O18 O 0.245 0.28967 0.29711 0.0
H19 H 0.33294 0.29188 0.21043 0.0
H20 H 0.20494 0.18631 0.30616 0.0
H21 H 0.30035 0.31102 0.31478 0.0
O22 O 0.27006 0.19215 0.29422 0.0
O23 O 0.30343 0.2313 0.30187 0.0
H24 H 0.21541 0.19128 0.19637 0.0
O25 O 0.31737 0.23505 0.22681 0.0
O26 O 0.28201 0.19884 0.21724 0.0
O27 O 0.26005 0.29541 0.22034 0.0
O28 O 0.22377 0.25925 0.21282 0.0
C29 C 0.31161 0.20915 0.2119 0.0
H30 H 0.16097 0.14706 0.30912 0.0
H31 H 0.17109 0.15107 0.19727 0.0
H32 H 0.36937 0.3378 0.20459 0.0
H33 H 0.33475 0.36049 0.30981 0.0
C34 C 0.69555 0.30811 0.24247 0.0
N35 N 0.7326 0.20841 0.21372 0.0
C36 C 0.69776 0.20735 0.21588 0.0
C37 C 0.68375 0.18649 0.19545 0.0
C38 C 0.70566 0.16562 0.17296 0.0
C39 C 0.74164 0.1662 0.17165 0.0
C40 C 0.75466 0.18825 0.1922 0.0
Zn41 Zn 0.74774 0.24193 0.24557 0.0
C42 C 0.79366 0.29259 0.21093 0.0
N43 N 0.76791 0.31415 0.31436 0.0
C44 C 0.74401 0.33796 0.33004 0.0
C45 C 0.80238 0.31307 0.3177 0.0
C46 C 0.81401 0.33631 0.33735 0.0
C47 C 0.79011 0.3616 0.35298 0.0
C48 C 0.75471 0.36247 0.34931 0.0
Zn49 Zn 0.75465 0.2806 0.28207 0.0
O50 O 0.70494 0.27816 0.23188 0.0
C51 C 0.70791 0.23156 0.31645 0.0
O52 O 0.71284 0.31878 0.26431 0.0
H53 H 0.82116 0.2948 0.30428 0.0
H54 H 0.68048 0.22269 0.23365 0.0
H55 H 0.71677 0.33854 0.32694 0.0
O56 O 0.71644 0.21906 0.28737 0.0
O57 O 0.71964 0.25919 0.32222 0.0
H58 H 0.78226 0.18919 0.19101 0.0
O59 O 0.79566 0.24119 0.29924 0.0
O60 O 0.79076 0.20512 0.26067 0.0
O61 O 0.78906 0.30192 0.24164 0.0
O62 O 0.77923 0.26696 0.20384 0.0
C63 C 0.8056 0.21223 0.28627 0.0
H64 H 0.65595 0.18624 0.19767 0.0
H65 H 0.75933 0.15019 0.15466 0.0
H66 H 0.84159 0.33545 0.33918 0.0
H67 H 0.73571 0.38201 0.36086 0.0
C68 C 0.78779 0.69176 0.30529 0.0
N69 N 0.80663 0.79624 0.28615 0.0
C70 C 0.80518 0.79097 0.3214 0.0
C71 C 0.81614 0.81466 0.34097 0.0
C72 C 0.82943 0.84447 0.32461 0.0
C73 C 0.83167 0.84905 0.28803 0.0
C74 C 0.81989 0.82457 0.2692 0.0
Zn75 Zn 0.77818 0.76375 0.26465 0.0
C76 C 0.80852 0.72323 0.20951 0.0
N77 N 0.70887 0.69668 0.2375 0.0
C78 C 0.69668 0.66871 0.25631 0.0
C79 C 0.70361 0.70381 0.20321 0.0
C80 C 0.68581 0.68263 0.18657 0.0
C81 C 0.67414 0.653 0.2049 0.0
C82 C 0.67948 0.64615 0.2403 0.0
Zn83 Zn 0.73979 0.72766 0.25738 0.0
O84 O 0.79834 0.72134 0.29841 0.0
C85 C 0.70877 0.76787 0.31191 0.0
O86 O 0.76155 0.68532 0.29145 0.0
H87 H 0.71444 0.72517 0.18804 0.0
H88 H 0.79334 0.76939 0.33495 0.0
H89 H 0.70129 0.66317 0.2834 0.0
O90 O 0.73726 0.77965 0.30254 0.0
O91 O 0.70119 0.74257 0.29714 0.0
H92 H 0.82007 0.829 0.24127 0.0
O93 O 0.71904 0.77104 0.22446 0.0
O94 O 0.75801 0.80523 0.22942 0.0
O95 O 0.77893 0.71332 0.21772 0.0
O96 O 0.81814 0.74658 0.22583 0.0
C97 C 0.73104 0.7998 0.21622 0.0
H98 H 0.81259 0.81021 0.36895 0.0
H99 H 0.84185 0.87152 0.27412 0.0
H100 H 0.68294 0.6883 0.15907 0.0
H101 H 0.67109 0.62324 0.25518 0.0
C102 C 0.20463 0.80856 0.28756 0.0
N103 N 0.30357 0.77603 0.31878 0.0
C104 C 0.30275 0.81084 0.32125 0.0
C105 C 0.32301 0.82257 0.34382 0.0
C106 C 0.34486 0.79831 0.36358 0.0
C107 C 0.34512 0.76251 0.36089 0.0
C108 C 0.32382 0.75183 0.33836 0.0
Zn109 Zn 0.27379 0.76183 0.28419 0.0
C110 C 0.22734 0.71088 0.31505 0.0
N111 N 0.208 0.73792 0.21178 0.0
C112 C 0.18512 0.75961 0.19267 0.0
C113 C 0.21021 0.7026 0.21192 0.0
C114 C 0.18861 0.68771 0.19315 0.0
C115 C 0.16425 0.70917 0.17368 0.0
C116 C 0.16287 0.74568 0.17326 0.0
Zn117 Zn 0.23823 0.7542 0.24549 0.0
O118 O 0.23402 0.80102 0.29953 0.0
C119 C 0.28334 0.8066 0.21509 0.0
O120 O 0.19761 0.79217 0.26303 0.0
H121 H 0.22804 0.68562 0.22766 0.0
H122 H 0.28688 0.82968 0.30513 0.0
H123 H 0.18358 0.7876 0.1931 0.0
O124 O 0.29506 0.79802 0.24462 0.0
O125 O 0.25777 0.79262 0.20753 0.0
H126 H 0.32393 0.7243 0.336 0.0
O127 O 0.27992 0.71704 0.22819 0.0
O128 O 0.31385 0.72233 0.2683 0.0
O129 O 0.21846 0.71678 0.28425 0.0
O130 O 0.25159 0.72614 0.32347 0.0
C131 C 0.30864 0.70843 0.24148 0.0
H132 H 0.32276 0.85042 0.34461 0.0
H133 H 0.36195 0.74314 0.37563 0.0
H134 H 0.19021 0.65951 0.19501 0.0
H135 H 0.14462 0.76325 0.15839 0.0
C136 C 0.19951 0.80262 0.72778 0.0
N137 N 0.2356 0.69997 0.70206 0.0
C138 C 0.20103 0.69837 0.70295 0.0
C139 C 0.18885 0.67416 0.68497 0.0
C140 C 0.21241 0.65107 0.66592 0.0
C141 C 0.24798 0.65369 0.66471 0.0
C142 C 0.25912 0.67849 0.68322 0.0
Zn143 Zn 0.24968 0.73386 0.73289 0.0
C144 C 0.29654 0.78158 0.69756 0.0
N145 N 0.27316 0.80604 0.79985 0.0
C146 C 0.25161 0.82586 0.82207 0.0
C147 C 0.30805 0.80687 0.79707 0.0
C148 C 0.32266 0.82705 0.81764 0.0
C149 C 0.30131 0.84739 0.84098 0.0
C150 C 0.26526 0.84721 0.84283 0.0
Zn151 Zn 0.25724 0.77245 0.76889 0.0
O152 O 0.20874 0.77324 0.71541 0.0
C153 C 0.21167 0.72287 0.80489 0.0
O154 O 0.2145 0.80968 0.75333 0.0
H155 H 0.3249 0.79161 0.77891 0.0
H156 H 0.18275 0.71559 0.71815 0.0
H157 H 0.22397 0.82499 0.8238 0.0
O158 O 0.21588 0.71327 0.77431 0.0
O159 O 0.22605 0.7487 0.81141 0.0
H160 H 0.2865 0.68017 0.68305 0.0
O161 O 0.29987 0.73588 0.78279 0.0
O162 O 0.29124 0.6956 0.7503 0.0
O163 O 0.28843 0.79415 0.72663 0.0
O164 O 0.28431 0.75423 0.69189 0.0
C165 C 0.3088 0.70592 0.77208 0.0
H166 H 0.16116 0.67364 0.68594 0.0
H167 H 0.26696 0.63633 0.65028 0.0
H168 H 0.35051 0.82703 0.81507 0.0
H169 H 0.24803 0.86284 0.86052 0.0
C170 C 0.27243 0.21121 0.81081 0.0
N171 N 0.29151 0.31353 0.78216 0.0
C172 C 0.29478 0.30961 0.81697 0.0
C173 C 0.31255 0.3318 0.8322 0.0
C174 C 0.32627 0.3592 0.8118 0.0
C175 C 0.32243 0.3632 0.77601 0.0
C176 C 0.30518 0.33959 0.76151 0.0
Zn177 Zn 0.26278 0.27929 0.7646 0.0
C178 C 0.29918 0.23471 0.71354 0.0
N179 N 0.20255 0.20378 0.7388 0.0
C180 C 0.22018 0.17097 0.73761 0.0
C181 C 0.17287 0.21322 0.72269 0.0
C182 C 0.1613 0.19002 0.70255 0.0
C183 C 0.18054 0.15688 0.69882 0.0
C184 C 0.20962 0.14708 0.71777 0.0
Zn185 Zn 0.22861 0.24059 0.75557 0.0
O186 O 0.28468 0.23943 0.80062 0.0
C187 C 0.19168 0.28602 0.80604 0.0
O188 O 0.2459 0.2047 0.79761 0.0
H189 H 0.15935 0.23946 0.72362 0.0
H190 H 0.28277 0.28976 0.83341 0.0
H191 H 0.24412 0.16404 0.7499 0.0
O192 O 0.22173 0.29551 0.80234 0.0
O193 O 0.18511 0.26238 0.78815 0.0
H194 H 0.30205 0.34256 0.73401 0.0
O195 O 0.21236 0.27651 0.71381 0.0
O196 O 0.24016 0.31807 0.7273 0.0
O197 O 0.27187 0.22084 0.72304 0.0
O198 O 0.30334 0.26263 0.72622 0.0
C199 C 0.21991 0.30747 0.70821 0.0
H200 H 0.31423 0.3285 0.86001 0.0
H201 H 0.33236 0.38447 0.75961 0.0
H202 H 0.13832 0.1985 0.68892 0.0
H203 H 0.22552 0.12207 0.71548 0.0
C204 C 0.69935 0.30056 0.77526 0.0
N205 N 0.79872 0.27862 0.8073 0.0
C206 C 0.79461 0.31416 0.80362 0.0
C207 C 0.81 0.33279 0.82485 0.0
C208 C 0.82936 0.31515 0.85126 0.0
C209 C 0.83386 0.27834 0.85454 0.0
C210 C 0.81813 0.2604 0.83206 0.0
Zn211 Zn 0.77189 0.25846 0.77289 0.0
C212 C 0.72957 0.2035 0.8034 0.0
N213 N 0.71031 0.2308 0.69937 0.0
C214 C 0.68963 0.2543 0.67957 0.0
C215 C 0.71218 0.19584 0.69721 0.0
C216 C 0.69201 0.1832 0.67511 0.0
C217 C 0.66939 0.20678 0.65547 0.0
C218 C 0.66859 0.24275 0.65745 0.0
Zn219 Zn 0.73816 0.24736 0.73404 0.0
O220 O 0.72794 0.29358 0.78893 0.0
C221 C 0.78209 0.30001 0.7022 0.0
O222 O 0.69544 0.28553 0.7487 0.0
H223 H 0.72862 0.17764 0.71338 0.0
H224 H 0.77889 0.32853 0.78426 0.0
H225 H 0.68881 0.28198 0.6816 0.0
O226 O 0.79025 0.29606 0.73327 0.0
O227 O 0.7589 0.28315 0.69419 0.0
H228 H 0.82104 0.23215 0.83469 0.0
O229 O 0.78068 0.20981 0.71988 0.0
O230 O 0.81517 0.22361 0.75612 0.0
O231 O 0.71837 0.21093 0.77355 0.0
O232 O 0.75395 0.21908 0.8113 0.0
C233 C 0.81025 0.20598 0.73167 0.0
H234 H 0.80656 0.36102 0.82049 0.0
H235 H 0.84867 0.26368 0.87459 0.0
H236 H 0.6928 0.15524 0.67473 0.0
H237 H 0.65131 0.26161 0.64267 0.0
C238 C 0.69895 0.78989 0.80026 0.0
N239 N 0.6996 0.69925 0.74971 0.0
C240 C 0.68661 0.68715 0.78166 0.0
C241 C 0.67014 0.65758 0.78575 0.0
C242 C 0.66685 0.64019 0.75674 0.0
C243 C 0.67897 0.6537 0.72372 0.0
C244 C 0.69574 0.68359 0.72078 0.0
Zn245 Zn 0.72981 0.73746 0.74989 0.0
C246 C 0.71388 0.79759 0.70167 0.0
N247 N 0.79552 0.81355 0.75717 0.0
C248 C 0.80374 0.82546 0.78667 0.0
C249 C 0.80727 0.82697 0.72527 0.0
C250 C 0.82737 0.85387 0.72194 0.0
C251 C 0.83571 0.86722 0.75168 0.0
C252 C 0.82433 0.85249 0.7845 0.0
Zn253 Zn 0.76439 0.77616 0.75672 0.0
O254 O 0.69326 0.76326 0.78634 0.0
C255 C 0.77895 0.71532 0.80579 0.0
O256 O 0.72804 0.8011 0.79324 0.0
H257 H 0.80079 0.81701 0.70215 0.0
H258 H 0.6902 0.69964 0.80436 0.0
H259 H 0.7941 0.81424 0.81176 0.0
O260 O 0.755 0.70691 0.79005 0.0
O261 O 0.78962 0.74471 0.79722 0.0
H262 H 0.70655 0.69361 0.69567 0.0
O263 O 0.80054 0.75159 0.71964 0.0
O264 O 0.76656 0.71302 0.71288 0.0
O265 O 0.73822 0.80694 0.71632 0.0
O266 O 0.70435 0.7678 0.7104 0.0
C267 C 0.79489 0.72555 0.70489 0.0
H268 H 0.66048 0.64795 0.81153 0.0
H269 H 0.6763 0.64088 0.70087 0.0
H270 H 0.83641 0.8642 0.6962 0.0
H271 H 0.83075 0.86211 0.80789 0.0
Fe272 Fe 0.01583 0.08895 0.49363 0.0
O273 O 0.00851 0.04218 0.51502 0.0
Fe274 Fe 0.04423 0.9992 0.49975 0.0
Fe275 Fe 0.96466 0.02237 0.51177 0.0
O276 O 0.01229 0.04092 0.51528 0.0
O277 O 1.00044 0.97919 0.49804 0.0
O278 O 0.99696 0.98044 0.49741 0.0
Fe279 Fe 0.99477 0.93187 0.51769 0.0
C280 C 0.94995 0.0952 0.54172 0.0
O281 O 0.97335 0.09559 0.46482 0.0
O282 O 0.96198 0.042 0.46039 0.0
O283 O 0.02771 0.92008 0.47508 0.0
O284 O 0.07117 0.95331 0.47996 0.0
O285 O 0.04122 0.01761 0.44875 0.0
O286 O 0.04669 0.07353 0.4506 0.0
O287 O 0.92288 0.99543 0.50422 0.0
O288 O 0.94983 0.94016 0.49325 0.0
C289 C 0.04649 0.04715 0.43386 0.0
O290 O 0.03853 0.92509 0.54477 0.0
O291 O 0.0491 0.9787 0.55073 0.0
O292 O 0.98112 0.10304 0.53397 0.0
O293 O 0.93754 0.06936 0.53014 0.0
C294 C 0.95985 0.0742 0.44946 0.0
C295 C 0.92384 0.96493 0.49235 0.0
C296 C 0.9615 0.97373 0.57801 0.0
O297 O 0.96493 1.00382 0.56307 0.0
O298 O 0.96555 0.9461 0.56222 0.0
C299 C 0.05777 0.93005 0.46543 0.0
O300 O 0.08628 0.02618 0.50552 0.0
O301 O 0.05986 0.08068 0.51945 0.0
C302 C 0.05194 0.94618 0.56068 0.0
C303 C 0.08578 0.0558 0.5189 0.0
Fe304 Fe 0.50611 0.92315 0.03109 0.0
O305 O 0.50931 0.97339 0.0284 0.0
Fe306 Fe 0.46703 0.00771 0.01113 0.0
Fe307 Fe 0.54776 0.99643 1.00146 0.0
O308 O 0.50578 0.97394 0.02931 0.0
O309 O 0.50536 0.03065 0.98389 0.0
O310 O 0.50897 0.03002 0.98285 0.0
Fe311 Fe 0.50816 0.08096 0.98126 0.0
C312 C 0.57785 0.93358 0.05092 0.0
O313 O 0.5412 0.91466 0.98908 0.0
O314 O 0.54864 0.96646 0.96047 0.0
O315 O 0.46548 0.08307 0.95315 0.0
O316 O 0.43148 0.04629 0.98715 0.0
O317 O 0.46492 0.97883 0.97051 0.0
O318 O 0.46636 0.926 0.99877 0.0
O319 O 0.58298 0.02636 0.97021 0.0
O320 O 0.54764 0.07124 0.94255 0.0
C321 C 0.45685 0.94808 0.97381 0.0
O322 O 0.47293 0.0892 0.02326 0.0
O323 O 0.46691 0.03722 0.05205 0.0
O324 O 0.54864 0.92107 0.05919 0.0
O325 O 0.58311 0.95809 0.0261 0.0
C326 C 0.55004 0.93338 0.96177 0.0
C327 C 0.57768 0.05284 0.94672 0.0
C328 C 0.557 0.05662 0.03893 0.0
O329 O 0.54952 0.02561 0.04213 0.0
O330 O 0.54763 0.07843 0.01373 0.0
C331 C 0.43621 0.0709 0.96231 0.0
O332 O 0.43173 0.97812 0.04274 0.0
O333 O 0.46697 0.93299 0.07005 0.0
C334 C 0.46494 0.07029 0.05073 0.0
C335 C 0.43705 0.95173 0.06633 0.0
Fe336 Fe 0.99991 0.58414 0.97862 0.0
O337 O 1.00319 0.53336 0.9861 0.0
Fe338 Fe 0.04667 0.50501 1.00797 0.0
Fe339 Fe 0.96586 0.50806 0.01176 0.0
O340 O 0.00674 0.53316 0.98559 0.0
O341 O 0.00942 0.47977 0.03435 0.0
O342 O 0.0055 0.48008 0.03508 0.0
Fe343 Fe 0.01225 0.42854 0.03971 0.0
C344 C 0.94992 0.5756 0.04442 0.0
O345 O 0.96346 0.57695 0.94677 0.0
O346 O 0.9296 0.54119 0.98222 0.0
O347 O 0.05222 0.42082 1.00106 0.0
O348 O 0.05212 0.47173 0.96876 0.0
O349 O 0.08038 0.53676 0.97702 0.0
O350 O 0.04362 0.57579 0.94442 0.0
O351 O 0.97148 0.47498 0.97321 0.0
O352 O 0.97735 0.42371 1.00466 0.0
C353 C 0.07431 0.56134 0.95184 0.0
O354 O 0.05003 0.43401 0.07077 0.0
O355 O 0.08342 0.47069 0.03597 0.0
O356 O 0.95903 0.59212 0.01576 0.0
O357 O 0.95753 0.54254 0.05024 0.0
C358 C 0.93451 0.56443 0.956 0.0
C359 C 0.96781 0.44283 0.97789 0.0
C360 C 0.93828 0.45091 0.06737 0.0
O361 O 0.93225 0.4757 0.04229 0.0
O362 O 0.96903 0.43643 0.07481 0.0
C363 C 0.05848 0.43851 0.97232 0.0
O364 O 0.0429 0.53861 0.04652 0.0
O365 O 0.03265 0.59008 0.01494 0.0
C366 C 0.07897 0.44646 0.06138 0.0
C367 C 0.04136 0.57181 0.04253 0.0
Fe368 Fe 0.49913 0.50266 0.96785 0.0
O369 O 0.5231 0.47504 1.00697 0.0
Fe370 Fe 0.43079 0.55419 0.0098 0.0
Fe371 Fe 0.57364 0.45884 1.00271 0.0
O372 O 0.47961 0.53536 1.00341 0.0
O373 O 0.48085 0.53677 1.00622 0.0
O374 O 0.52425 0.47636 0.01 0.0
Fe375 Fe 0.50484 0.50944 0.04545 0.0
C376 C 0.54446 0.43562 0.94139 0.0
O377 O 0.53939 0.53113 0.95768 0.0
O378 O 0.58384 0.48923 0.95651 0.0
O379 O 0.48044 0.54766 0.07789 0.0
O380 O 0.44702 0.58672 0.04188 0.0
O381 O 0.44187 0.58089 0.96195 0.0
O382 O 0.47196 0.53655 0.93109 0.0
O383 O 0.58897 0.49456 0.03162 0.0
O384 O 0.54581 0.53804 0.03602 0.0
C385 C 0.45412 0.56735 0.93327 0.0
O386 O 0.46411 0.48142 0.05737 0.0
O387 O 0.41995 0.52411 0.05547 0.0
O388 O 0.5241 0.4648 0.93491 0.0
O389 O 0.55796 0.42599 0.97068 0.0
C390 C 0.56824 0.51803 0.94374 0.0
C391 C 0.57686 0.52481 0.0406 0.0
C392 C 0.55072 0.44507 0.07959 0.0
O393 O 0.56333 0.43197 0.05074 0.0
O394 O 0.53226 0.47559 0.08213 0.0
C395 C 0.46062 0.57711 0.07115 0.0
O396 O 0.41521 0.51848 0.98097 0.0
O397 O 0.45795 0.47434 0.97657 0.0
C398 C 0.43449 0.49526 0.06923 0.0
C399 C 0.42693 0.48801 0.97218 0.0
Fe400 Fe 0.00445 0.4613 0.50577 0.0
O401 O 0.98558 0.49996 0.5353 0.0
Fe402 Fe 0.02542 0.50725 0.42553 0.0
Fe403 Fe 0.98812 0.49654 0.58577 0.0
O404 O 0.02726 0.49852 0.47618 0.0
O405 O 0.02712 0.502 0.47595 0.0
O406 O 0.98562 0.50338 0.53515 0.0
Fe407 Fe 0.00796 0.54052 0.50528 0.0
C408 C 0.95427 0.43475 0.568 0.0
O409 O 0.04808 0.44906 0.53259 0.0
O410 O 0.02502 0.45309 0.587 0.0
O411 O 0.03636 0.57429 0.47035 0.0
O412 O 0.06266 0.53934 0.42801 0.0
O413 O 0.05666 0.45986 0.42746 0.0
O414 O 0.02841 0.42563 0.47038 0.0
O415 O 0.02758 0.52704 0.58587 0.0
O416 O 0.05131 0.52994 0.53154 0.0
C417 C 0.05159 0.43005 0.44425 0.0
O418 O 0.96427 0.55171 0.47838 0.0
O419 O 0.99076 0.55252 0.42518 0.0
O420 O 0.97619 0.42781 0.54106 0.0
O421 O 0.95235 0.46238 0.58473 0.0
C422 C 0.05003 0.44328 0.56518 0.0
C423 C 0.05323 0.53126 0.56367 0.0
C424 C 0.95998 0.57229 0.56611 0.0
O425 O 0.95498 0.54254 0.58302 0.0
O426 O 0.98364 0.57652 0.54038 0.0
C427 C 0.05969 0.56719 0.44456 0.0
O428 O 0.98424 0.47965 0.42426 0.0
O429 O 0.96111 0.47158 0.47897 0.0
C430 C 0.96399 0.55956 0.44588 0.0
C431 C 0.95907 0.47357 0.44642 0.0
Fe432 Fe 0.50693 0.96488 0.51047 0.0
O433 O 0.47931 1.00359 0.53529 0.0
Fe434 Fe 0.53579 0.00613 0.43176 0.0
Fe435 Fe 0.47365 1.00296 0.5862 0.0
O436 O 0.52964 1.0028 0.48253 0.0
O437 O 0.52998 0.006 0.48264 0.0
O438 O 0.47969 0.00677 0.53543 0.0
Fe439 Fe 0.50233 0.04477 0.50748 0.0
C440 C 0.45275 0.93524 0.56657 0.0
O441 O 0.54497 0.96045 0.54343 0.0
O442 O 0.51375 0.96284 0.59448 0.0
O443 O 0.53033 0.08011 0.47446 0.0
O444 O 0.56505 0.04536 0.43645 0.0
O445 O 0.57214 0.96268 0.44141 0.0
O446 O 0.53966 0.92897 0.48082 0.0
O447 O 0.50621 0.03913 0.59054 0.0
O448 O 0.53998 0.04129 0.54119 0.0
C449 C 0.56561 0.93285 0.45751 0.0
O450 O 0.46424 0.04915 0.47452 0.0
O451 O 0.49532 0.04572 0.42337 0.0
O452 O 0.47886 0.92952 0.5432 0.0
O453 O 0.44404 0.96427 0.58108 0.0
C454 C 0.54211 0.95506 0.57618 0.0
C455 C 0.53262 0.04871 0.57231 0.0
C456 C 0.44396 0.07651 0.56121 0.0
O457 O 0.43756 0.0465 0.57689 0.0
O458 O 0.46963 0.08071 0.53758 0.0
C459 C 0.55621 0.07451 0.45077 0.0
O460 O 0.50362 0.96947 0.42766 0.0
O461 O 0.46941 0.96825 0.47663 0.0
C462 C 0.46694 0.0535 0.44168 0.0
C463 C 0.47716 0.95994 0.44585 0.0
H464 H 0.09559 0.16459 0.27289 0.0
H465 H 0.17058 0.07691 0.24568 0.0
H466 H 0.13396 0.03653 0.27936 0.0
H467 H 0.09006 0.14502 0.35107 0.0
H468 H 0.04467 0.15734 0.36363 0.0
H469 H 0.06403 0.1774 0.32458 0.0
H470 H 0.01924 0.15789 0.28874 0.0
H471 H 0.99876 0.13823 0.32809 0.0
H472 H 0.01276 0.11259 0.29194 0.0
H473 H 0.10362 0.00937 0.33105 0.0
H474 H 0.08196 0.99854 0.39254 0.0
H475 H 0.02876 0.10432 0.39051 0.0
C476 C 0.10257 0.13667 0.27195 0.0
C477 C 0.13525 0.12356 0.2565 0.0
C478 C 0.14508 0.08718 0.25669 0.0
C479 C 0.12442 0.06411 0.276 0.0
C480 C 0.0941 0.07803 0.29471 0.0
C481 C 0.08261 0.11366 0.29205 0.0
C482 C 0.05492 0.12326 0.32088 0.0
C483 C 0.06405 0.15239 0.34122 0.0
C484 C 0.01931 0.13359 0.30654 0.0
C485 C 0.05619 0.08867 0.34266 0.0
C486 C 0.07734 0.06241 0.32631 0.0
C487 C 0.08614 0.02943 0.34358 0.0
C488 C 0.07398 0.02354 0.37857 0.0
C489 C 0.05418 0.05089 0.39602 0.0
C490 C 0.04406 0.08319 0.37749 0.0
H491 H 0.84944 0.22306 0.33384 0.0
H492 H 0.82075 0.14207 0.27774 0.0
H493 H 0.85947 0.09773 0.31106 0.0
H494 H 0.9409 0.18466 0.33956 0.0
H495 H 0.94187 0.19837 0.38229 0.0
H496 H 0.91395 0.22375 0.35218 0.0
H497 H 0.86104 0.21867 0.3972 0.0
H498 H 0.88866 0.19321 0.42742 0.0
H499 H 0.85162 0.17602 0.4152 0.0
H500 H 0.89754 0.06134 0.35528 0.0
H501 H 0.93385 0.03738 0.40312 0.0
H502 H 0.93862 0.14282 0.42831 0.0
C503 C 0.8517 0.19608 0.3281 0.0
C504 C 0.832 0.18612 0.30306 0.0
C505 C 0.83571 0.15045 0.29655 0.0
C506 C 0.8576 0.12503 0.31547 0.0
C507 C 0.87606 0.13567 0.3405 0.0
C508 C 0.87369 0.17048 0.34642 0.0
C509 C 0.89546 0.17517 0.37529 0.0
C510 C 0.92479 0.19676 0.3615 0.0
C511 C 0.87284 0.19174 0.40556 0.0
C512 C 0.90968 0.13752 0.38546 0.0
C513 C 0.89835 0.11502 0.36511 0.0
C514 C 0.90689 0.07884 0.37102 0.0
C515 C 0.92743 0.06542 0.39837 0.0
C516 C 0.9393 0.08809 0.41954 0.0
C517 C 0.93039 0.12463 0.41253 0.0
H518 H 0.85883 0.83148 0.38664 0.0
H519 H 0.82275 0.9168 0.31233 0.0
H520 H 0.83592 0.9591 0.35112 0.0
H521 H 0.82198 0.8735 0.46349 0.0
H522 H 0.85778 0.85459 0.48811 0.0
H523 H 0.84553 0.83161 0.45428 0.0
H524 H 0.90803 0.82829 0.42414 0.0
H525 H 0.92056 0.85047 0.45825 0.0
H526 H 0.92747 0.86789 0.41373 0.0
H527 H 0.85664 0.99199 0.39861 0.0
H528 H 0.88629 0.01008 0.44605 0.0
H529 H 0.9015 0.90261 0.49034 0.0
C530 C 0.85301 0.85902 0.37851 0.0
C531 C 0.8394 0.87057 0.34633 0.0
C532 C 0.83349 0.90704 0.3366 0.0
C533 C 0.84046 0.93134 0.35873 0.0
C534 C 0.85288 0.91885 0.39075 0.0
C535 C 0.85904 0.88342 0.40043 0.0
C536 C 0.87324 0.87606 0.43552 0.0
C537 C 0.84813 0.85787 0.4619 0.0
C538 C 0.90946 0.85443 0.43272 0.0
C539 C 0.87496 0.91285 0.44401 0.0
C540 C 0.86305 0.93742 0.41812 0.0
C541 C 0.86539 0.97293 0.41928 0.0
C542 C 0.88186 0.98312 0.44658 0.0
C543 C 0.89581 0.95783 0.47214 0.0
C544 C 0.89057 0.92265 0.47154 0.0
H545 H 0.21373 0.84796 0.3393 0.0
H546 H 0.13596 0.8251 0.27579 0.0
H547 H 0.09071 0.85999 0.31138 0.0
H548 H 0.1671 0.83729 0.41732 0.0
H549 H 0.18145 0.87213 0.43704 0.0
H550 H 0.2087 0.85116 0.40313 0.0
H551 H 0.21132 0.91083 0.36713 0.0
H552 H 0.18449 0.93219 0.40125 0.0
H553 H 0.17159 0.93828 0.35759 0.0
H554 H 0.0537 0.88865 0.35834 0.0
H555 H 0.02659 0.91251 0.41203 0.0
H556 H 0.12814 0.91771 0.44568 0.0
C557 C 0.18731 0.85106 0.33221 0.0
C558 C 0.17831 0.83383 0.30472 0.0
C559 C 0.14344 0.83822 0.29657 0.0
C560 C 0.1176 0.858 0.31663 0.0
C561 C 0.12723 0.87348 0.34437 0.0
C562 C 0.16129 0.8707 0.3519 0.0
C563 C 0.16435 0.8872 0.38497 0.0
C564 C 0.1814 0.86033 0.41221 0.0
C565 C 0.18411 0.91902 0.37726 0.0
C566 C 0.12646 0.89821 0.39583 0.0
C567 C 0.10563 0.89039 0.37173 0.0
C568 C 0.06972 0.89542 0.37709 0.0
C569 C 0.05462 0.90863 0.40791 0.0
C570 C 0.07533 0.91669 0.43316 0.0
C571 C 0.11175 0.91201 0.42673 0.0
H572 H 0.15953 0.79392 0.67585 0.0
H573 H 0.18332 0.87242 0.73821 0.0
H574 H 0.14707 0.91796 0.70357 0.0
H575 H 0.16279 0.84463 0.59551 0.0
H576 H 0.12737 0.82778 0.57954 0.0
H577 H 0.15324 0.80128 0.61065 0.0
H578 H 0.09806 0.79377 0.65194 0.0
H579 H 0.07195 0.82 0.62079 0.0
H580 H 0.0696 0.83195 0.66461 0.0
H581 H 0.11115 0.95599 0.65812 0.0
H582 H 0.07623 0.98142 0.6096 0.0
H583 H 0.07547 0.87733 0.57862 0.0
C584 C 0.15673 0.82059 0.68266 0.0
C585 C 0.1743 0.82943 0.70996 0.0
C586 C 0.16998 0.8648 0.71768 0.0
C587 C 0.14952 0.89093 0.698 0.0
C588 C 0.13319 0.88137 0.67079 0.0
C589 C 0.13627 0.8469 0.66347 0.0
C590 C 0.11674 0.84335 0.63254 0.0
C591 C 0.14152 0.82838 0.60281 0.0
C592 C 0.08734 0.82095 0.64312 0.0
C593 C 0.10254 0.8812 0.62321 0.0
C594 C 0.11229 0.90288 0.64543 0.0
C595 C 0.10312 0.9391 0.64086 0.0
C596 C 0.08338 0.95338 0.6131 0.0
C597 C 0.07285 0.93151 0.59022 0.0
C598 C 0.08267 0.89493 0.59569 0.0
H599 H 0.15893 0.17668 0.63394 0.0
H600 H 0.18392 0.08503 0.70523 0.0
H601 H 0.17227 0.04734 0.66138 0.0
H602 H 0.08778 0.14808 0.6025 0.0
H603 H 0.0962 0.16759 0.55894 0.0
H604 H 0.11009 0.18608 0.59482 0.0
H605 H 0.17291 0.18001 0.56537 0.0
H606 H 0.15921 0.16064 0.52975 0.0
H607 H 0.19383 0.13778 0.55396 0.0
H608 H 0.15304 0.01998 0.61089 0.0
H609 H 0.12217 0.00691 0.56218 0.0
H610 H 0.11022 0.11659 0.5248 0.0
C611 C 0.16185 0.1487 0.64052 0.0
C612 C 0.17232 0.13391 0.67316 0.0
C613 C 0.17628 0.09704 0.68031 0.0
C614 C 0.16982 0.07539 0.6555 0.0
C615 C 0.1597 0.09091 0.6235 0.0
C616 C 0.15556 0.12679 0.61614 0.0
C617 C 0.14192 0.13737 0.58105 0.0
C618 C 0.10692 0.16115 0.58455 0.0
C619 C 0.16857 0.15499 0.55606 0.0
C620 C 0.1378 0.10196 0.57024 0.0
C621 C 0.14882 0.0753 0.59465 0.0
C622 C 0.14488 0.0406 0.59136 0.0
C623 C 0.12764 0.0333 0.56339 0.0
C624 C 0.11414 0.0607 0.53958 0.0
C625 C 0.12081 0.09508 0.5423 0.0
H626 H 0.81962 0.14069 0.70815 0.0
H627 H 0.86484 0.2369 0.70366 0.0
H628 H 0.90381 0.2194 0.65279 0.0
H629 H 0.90665 0.08892 0.68197 0.0
H630 H 0.88811 0.05986 0.65834 0.0
H631 H 0.86419 0.07749 0.69634 0.0
H632 H 0.81225 0.10247 0.6616 0.0
H633 H 0.83445 0.0851 0.62304 0.0
H634 H 0.81877 0.1311 0.62265 0.0
H635 H 0.93008 0.19664 0.59782 0.0
H636 H 0.95498 0.16274 0.54932 0.0
H637 H 0.89792 0.07751 0.59146 0.0
C638 C 0.83877 0.15725 0.69721 0.0
C639 C 0.83973 0.18988 0.7099 0.0
C640 C 0.86447 0.21141 0.69476 0.0
C641 C 0.88629 0.20194 0.66557 0.0
C642 C 0.88367 0.17037 0.65264 0.0
C643 C 0.86176 0.14757 0.66877 0.0
C644 C 0.86547 0.11459 0.65011 0.0
C645 C 0.88202 0.08332 0.67307 0.0
C646 C 0.83065 0.10795 0.63868 0.0
C647 C 0.89042 0.12385 0.6193 0.0
C648 C 0.90062 0.15614 0.62156 0.0
C649 C 0.92296 0.17097 0.59616 0.0
C650 C 0.93676 0.15152 0.56858 0.0
C651 C 0.92858 0.11733 0.56669 0.0
C652 C 0.90435 0.10367 0.59197 0.0
H653 H 0.81912 0.92982 0.71756 0.0
H654 H 0.90087 0.8665 0.77111 0.0
H655 H 0.94345 0.90265 0.7404 0.0
H656 H 0.85976 0.92485 0.64234 0.0
H657 H 0.84457 0.9676 0.6225 0.0
H658 H 0.81911 0.94841 0.6582 0.0
H659 H 0.81922 1.00147 0.69259 0.0
H660 H 0.84439 0.02181 0.65691 0.0
H661 H 0.85957 0.01549 0.69988 0.0
H662 H 0.97768 0.92834 0.69072 0.0
H663 H 0.9999 0.94506 0.6305 0.0
H664 H 0.89709 0.99258 0.60716 0.0
C665 C 0.84567 0.92531 0.72439 0.0
C666 C 0.85692 0.89597 0.74677 0.0
C667 C 0.89183 0.88948 0.75455 0.0
C668 C 0.91616 0.9098 0.73697 0.0
C669 C 0.90489 0.93636 0.71195 0.0
C670 C 0.87019 0.94456 0.70615 0.0
C671 C 0.86526 0.96799 0.67299 0.0
C672 C 0.8461 0.95117 0.64756 0.0
C673 C 0.84602 1.00389 0.68104 0.0
C674 C 0.90267 0.96992 0.65965 0.0
C675 C 0.92519 0.952 0.68278 0.0
C676 C 0.96054 0.94379 0.67311 0.0
C677 C 0.97296 0.95313 0.63887 0.0
C678 C 0.95012 0.97071 0.61499 0.0
C679 C 0.91499 0.98035 0.62573 0.0
H680 H 0.31125 0.14888 0.18024 0.0
H681 H 0.37643 0.22704 0.19491 0.0
H682 H 0.42491 0.19544 0.16067 0.0
H683 H 0.37943 0.07367 0.18423 0.0
H684 H 0.3632 0.05297 0.15094 0.0
H685 H 0.33372 0.08041 0.17846 0.0
H686 H 0.31161 0.11849 0.12438 0.0
H687 H 0.34066 0.09091 0.09678 0.0
H688 H 0.34233 0.13732 0.09289 0.0
H689 H 0.46476 0.15871 0.12181 0.0
H690 H 0.49308 0.11966 0.07804 0.0
H691 H 0.40379 0.06361 0.08962 0.0
C692 C 0.33576 0.15926 0.17633 0.0
C693 C 0.34002 0.19043 0.19027 0.0
C694 C 0.37249 0.20321 0.18452 0.0
C695 C 0.4003 0.18535 0.16527 0.0
C696 C 0.39534 0.15462 0.15212 0.0
C697 C 0.36394 0.14164 0.15724 0.0
C698 C 0.36519 0.10897 0.13866 0.0
C699 C 0.36008 0.07712 0.16463 0.0
C700 C 0.33837 0.11426 0.11157 0.0
C701 C 0.40193 0.10621 0.12161 0.0
C702 C 0.4189 0.13269 0.13006 0.0
C703 C 0.45204 0.1375 0.11543 0.0
C704 C 0.46791 0.11526 0.09071 0.0
C705 C 0.45072 0.08849 0.0812 0.0
C706 C 0.41774 0.08329 0.09742 0.0
H707 H 0.84808 0.32837 0.21783 0.0
H708 H 0.78162 0.30649 0.14229 0.0
H709 H 0.80802 0.34839 0.09872 0.0
H710 H 0.84888 0.41931 0.19265 0.0
H711 H 0.89408 0.4189 0.19849 0.0
H712 H 0.8697 0.3877 0.22386 0.0
H713 H 0.91405 0.33667 0.20234 0.0
H714 H 0.9389 0.36773 0.17746 0.0
H715 H 0.92429 0.33393 0.15639 0.0
H716 H 0.83993 0.39604 0.06421 0.0
H717 H 0.88146 0.43624 0.03873 0.0
H718 H 0.93032 0.42326 0.13529 0.0
C719 C 0.83933 0.33215 0.19199 0.0
C720 C 0.81272 0.31409 0.18348 0.0
C721 C 0.80214 0.31971 0.14934 0.0
C722 C 0.81677 0.34376 0.12452 0.0
C723 C 0.84248 0.36165 0.13396 0.0
C724 C 0.85427 0.35541 0.16666 0.0
C725 C 0.88349 0.37653 0.16975 0.0
C726 C 0.87342 0.40213 0.19786 0.0
C727 C 0.91718 0.35227 0.1769 0.0
C728 C 0.88622 0.39586 0.1338 0.0
C729 C 0.86189 0.38748 0.11371 0.0
C730 C 0.85916 0.40258 0.07973 0.0
C731 C 0.88261 0.42578 0.06557 0.0
C732 C 0.90896 0.43327 0.08506 0.0
C733 C 0.91029 0.41835 0.11981 0.0
H734 H 0.66983 0.79707 0.18985 0.0
H735 H 0.75295 0.86097 0.18485 0.0
H736 H 0.72388 0.90227 0.14036 0.0
H737 H 0.65718 0.8073 0.0998 0.0
H738 H 0.61081 0.80849 0.10708 0.0
H739 H 0.63839 0.78458 0.13826 0.0
H740 H 0.60492 0.8202 0.18686 0.0
H741 H 0.57712 0.84408 0.15588 0.0
H742 H 0.60063 0.86725 0.18147 0.0
H743 H 0.685 0.93589 0.09484 0.0
H744 H 0.63907 0.95991 0.0561 0.0
H745 H 0.58251 0.87305 0.09347 0.0
C746 C 0.68205 0.81974 0.17955 0.0
C747 C 0.71371 0.82577 0.19078 0.0
C748 C 0.72863 0.85588 0.17664 0.0
C749 C 0.71237 0.87938 0.15131 0.0
C750 C 0.68124 0.87235 0.14061 0.0
C751 C 0.66623 0.84331 0.15457 0.0
C752 C 0.63259 0.84148 0.13938 0.0
C753 C 0.63491 0.80851 0.11998 0.0
C754 C 0.60202 0.84339 0.16758 0.0
C755 C 0.63076 0.87413 0.11461 0.0
C756 C 0.65904 0.89161 0.11534 0.0
C757 C 0.6627 0.92242 0.09423 0.0
C758 C 0.63652 0.93584 0.07226 0.0
C759 C 0.60693 0.91862 0.07194 0.0
C760 C 0.6045 0.88718 0.09323 0.0
H761 H 0.17767 0.64993 0.13878 0.0
H762 H 0.09496 0.7314 0.16804 0.0
H763 H 0.05337 0.70203 0.14168 0.0
H764 H 0.14871 0.63746 0.05743 0.0
H765 H 0.16121 0.59082 0.06153 0.0
H766 H 0.18416 0.61856 0.08257 0.0
H767 H 0.17129 0.58298 0.14144 0.0
H768 H 0.14782 0.55545 0.12062 0.0
H769 H 0.12705 0.57818 0.15686 0.0
H770 H 0.02132 0.66489 0.11054 0.0
H771 H 1.00179 0.62416 0.07411 0.0
H772 H 0.10429 0.56464 0.0689 0.0
C773 C 0.15076 0.66154 0.13993 0.0
C774 C 0.13962 0.69303 0.15558 0.0
C775 C 0.10428 0.70761 0.15581 0.0
C776 C 0.08037 0.69088 0.14127 0.0
C777 C 0.09217 0.6595 0.1268 0.0
C778 C 0.12656 0.64505 0.12587 0.0
C779 C 0.13275 0.61148 0.10811 0.0
C780 C 0.1582 0.6148 0.07548 0.0
C781 C 0.14548 0.58017 0.13327 0.0
C782 C 0.09647 0.60944 0.09883 0.0
C783 C 0.07343 0.63738 0.10995 0.0
C784 C 0.03896 0.64261 0.10225 0.0
C785 C 0.02804 0.61929 0.0818 0.0
C786 C 0.05135 0.59088 0.06978 0.0
C787 C 0.08576 0.58545 0.07897 0.0
H788 H 0.35145 0.82462 0.88492 0.0
H789 H 0.28841 0.91805 0.84443 0.0
H790 H 0.32186 0.95437 0.87377 0.0
H791 H 0.35981 0.85557 0.96957 0.0
H792 H 0.40366 0.83408 0.97144 0.0
H793 H 0.3735 0.81595 0.94866 0.0
H794 H 0.41635 0.81715 0.89337 0.0
H795 H 0.44636 0.83586 0.91576 0.0
H796 H 0.43118 0.8578 0.87593 0.0
H797 H 0.36612 0.98025 0.90271 0.0
H798 H 0.4122 0.99388 0.93599 0.0
H799 H 0.44423 0.88309 0.96039 0.0
C800 C 0.34437 0.85272 0.8828 0.0
C801 C 0.3174 0.86872 0.86259 0.0
C802 C 0.30878 0.90545 0.86016 0.0
C803 C 0.32779 0.92619 0.87648 0.0
C804 C 0.3549 0.90963 0.89548 0.0
C805 C 0.36269 0.87367 0.89931 0.0
C806 C 0.39301 0.86229 0.92112 0.0
C807 C 0.38182 0.84071 0.95469 0.0
C808 C 0.42352 0.84208 0.90029 0.0
C809 C 0.40149 0.89748 0.92854 0.0
C810 C 0.37945 0.92446 0.91322 0.0
C811 C 0.38318 0.95932 0.91521 0.0
C812 C 0.40961 0.96679 0.93401 0.0
C813 C 0.43166 0.93955 0.95104 0.0
C814 C 0.4276 0.90447 0.94794 0.0
H815 H 0.1978 0.30638 0.86997 0.0
H816 H 0.1249 0.31049 0.79234 0.0
H817 H 0.08291 0.35135 0.82574 0.0
H818 H 0.1314 0.30836 0.94471 0.0
H819 H 0.15485 0.33372 0.96812 0.0
H820 H 0.17805 0.30409 0.93846 0.0
H821 H 0.20771 0.35502 0.90579 0.0
H822 H 0.18413 0.38493 0.93492 0.0
H823 H 0.18132 0.39372 0.88881 0.0
H824 H 0.05147 0.3968 0.86527 0.0
H825 H 0.02939 0.43516 0.91217 0.0
H826 H 0.12078 0.39703 0.96625 0.0
C827 C 0.17268 0.31536 0.86042 0.0
C828 C 0.16441 0.3052 0.82872 0.0
C829 C 0.13145 0.31757 0.81686 0.0
C830 C 0.10763 0.34102 0.8355 0.0
C831 C 0.11691 0.35121 0.86633 0.0
C832 C 0.14831 0.33797 0.87917 0.0
C833 C 0.15181 0.35234 0.91326 0.0
C834 C 0.15416 0.32287 0.94289 0.0
C835 C 0.1831 0.37271 0.91051 0.0
C836 C 0.11792 0.37649 0.91723 0.0
C837 C 0.09825 0.37584 0.88971 0.0
C838 C 0.06653 0.39717 0.88707 0.0
C839 C 0.05433 0.4191 0.91357 0.0
C840 C 0.07357 0.41911 0.94248 0.0
C841 C 0.10571 0.39754 0.94426 0.0
H842 H 0.66601 0.18184 0.80261 0.0
H843 H 0.75672 0.16582 0.86086 0.0
H844 H 0.73002 0.12136 0.90117 0.0
H845 H 0.60441 0.17643 0.87645 0.0
H846 H 0.57546 0.1552 0.85507 0.0
H847 H 0.60293 0.18375 0.83007 0.0
H848 H 0.62814 0.13387 0.79164 0.0
H849 H 0.60096 0.10504 0.81678 0.0
H850 H 0.64724 0.09262 0.81168 0.0
H851 H 0.69222 0.07802 0.93549 0.0
H852 H 0.64509 0.04596 0.96397 0.0
H853 H 0.57859 0.09292 0.88423 0.0
C854 C 0.68046 0.16881 0.82368 0.0
C855 C 0.7137 0.17715 0.82833 0.0
C856 C 0.73131 0.15988 0.85668 0.0
C857 C 0.71638 0.13443 0.8796 0.0
C858 C 0.68362 0.12673 0.87411 0.0
C859 C 0.66574 0.14384 0.84703 0.0
C860 C 0.63005 0.13263 0.84786 0.0
C861 C 0.60154 0.16385 0.85266 0.0
C862 C 0.6264 0.11499 0.81504 0.0
C863 C 0.63043 0.10656 0.87969 0.0
C864 C 0.6617 0.10304 0.89427 0.0
C865 C 0.66771 0.08062 0.92417 0.0
C866 C 0.64084 0.06223 0.94005 0.0
C867 C 0.60806 0.06665 0.92636 0.0
C868 C 0.6033 0.08872 0.89537 0.0
H869 H 0.83855 0.71789 0.83628 0.0
H870 H 0.75538 0.65508 0.83516 0.0
H871 H 0.78415 0.61017 0.87624 0.0
H872 H 0.906 0.64851 0.83586 0.0
H873 H 0.93137 0.66645 0.8641 0.0
H874 H 0.90243 0.69514 0.83746 0.0
H875 H 0.87143 0.72305 0.89201 0.0
H876 H 0.90052 0.69459 0.91881 0.0
H877 H 0.85433 0.69545 0.92785 0.0
H878 H 0.82436 0.57026 0.91565 0.0
H879 H 0.87281 0.53957 0.94862 0.0
H880 H 0.92866 0.62892 0.92162 0.0
C881 C 0.82607 0.69501 0.84514 0.0
C882 C 0.79475 0.69006 0.83261 0.0
C883 C 0.77946 0.65946 0.84445 0.0
C884 C 0.79554 0.63379 0.86785 0.0
C885 C 0.82683 0.63914 0.87919 0.0
C886 C 0.84182 0.66908 0.86827 0.0
C887 C 0.87643 0.6678 0.88262 0.0
C888 C 0.90577 0.66956 0.85326 0.0
C889 C 0.87561 0.69695 0.90676 0.0
C890 C 0.8789 0.63224 0.90267 0.0
C891 C 0.85001 0.61609 0.90089 0.0
C892 C 0.84711 0.58272 0.9173 0.0
C893 C 0.87467 0.56546 0.93589 0.0
C894 C 0.90471 0.58155 0.93726 0.0
C895 C 0.90639 0.61547 0.92063 0.0
H896 H 0.17595 0.28737 0.17354 0.0
H897 H 0.26018 0.34843 0.17632 0.0
H898 H 0.23132 0.39511 0.13693 0.0
H899 H 0.15882 0.31384 0.08258 0.0
H900 H 0.11268 0.31489 0.09232 0.0
H901 H 0.14209 0.28501 0.11757 0.0
H902 H 0.11239 0.31063 0.17378 0.0
H903 H 0.08318 0.34077 0.14871 0.0
H904 H 0.10943 0.3569 0.1774 0.0
H905 H 0.19048 0.43727 0.09967 0.0
H906 H 0.14138 0.47001 0.06887 0.0
H907 H 0.08506 0.38066 0.09281 0.0
C908 C 0.18871 0.3102 0.16532 0.0
C909 C 0.22032 0.31416 0.17789 0.0
C910 C 0.2359 0.34477 0.16693 0.0
C911 C 0.21976 0.37145 0.14452 0.0
C912 C 0.18811 0.36709 0.13324 0.0
C913 C 0.1729 0.33709 0.14318 0.0
C914 C 0.1379 0.33951 0.12935 0.0
C915 C 0.13789 0.31166 0.10394 0.0
C916 C 0.10904 0.33681 0.15908 0.0
C917 C 0.13542 0.37578 0.11078 0.0
C918 C 0.16465 0.39132 0.11278 0.0
C919 C 0.1675 0.42525 0.09781 0.0
C920 C 0.13957 0.44367 0.08044 0.0
C921 C 0.10921 0.42816 0.07884 0.0
C922 C 0.10758 0.39368 0.094 0.0
H923 H 0.15898 0.68455 0.79916 0.0
H924 H 0.22449 0.71081 0.87346 0.0
H925 H 0.20039 0.66803 0.91772 0.0
H926 H 0.08394 0.67611 0.86126 0.0
H927 H 0.07096 0.64108 0.84069 0.0
H928 H 0.09412 0.67321 0.81532 0.0
H929 H 0.14043 0.62367 0.79393 0.0
H930 H 0.11779 0.59143 0.81986 0.0
H931 H 0.16271 0.59335 0.8252 0.0
H932 H 0.17076 0.61927 0.95317 0.0
H933 H 0.1308 0.57788 0.9797 0.0
H934 H 0.08185 0.58684 0.88345 0.0
C935 C 0.16798 0.68157 0.82488 0.0
C936 C 0.19363 0.70112 0.83285 0.0
C937 C 0.20463 0.69647 0.86684 0.0
C938 C 0.19134 0.6719 0.89204 0.0
C939 C 0.16661 0.6525 0.88309 0.0
C940 C 0.15443 0.65777 0.85054 0.0
C941 C 0.12641 0.63505 0.84796 0.0
C942 C 0.09181 0.65771 0.8409 0.0
C943 C 0.13752 0.60935 0.82008 0.0
C944 C 0.12476 0.61601 0.88407 0.0
C945 C 0.14862 0.62587 0.90378 0.0
C946 C 0.15194 0.61151 0.93793 0.0
C947 C 0.12942 0.58762 0.95269 0.0
C948 C 0.10345 0.57874 0.93358 0.0
C949 C 0.10168 0.59277 0.89861 0.0
H950 H 0.33453 0.21447 0.83552 0.0
H951 H 0.25111 0.15057 0.8439 0.0
H952 H 0.28286 0.108 0.88543 0.0
H953 H 0.40322 0.14451 0.836 0.0
H954 H 0.42973 0.16555 0.86049 0.0
H955 H 0.39937 0.19152 0.83328 0.0
H956 H 0.37067 0.22413 0.8859 0.0
H957 H 0.40103 0.19832 0.91329 0.0
H958 H 0.3551 0.1994 0.92465 0.0
H959 H 0.32505 0.07213 0.92613 0.0
H960 H 0.37413 0.04555 0.95982 0.0
H961 H 0.42975 0.1329 0.92169 0.0
C962 C 0.32264 0.19172 0.84626 0.0
C963 C 0.29019 0.18596 0.83662 0.0
C964 C 0.27588 0.15558 0.85103 0.0
C965 C 0.29372 0.1313 0.87464 0.0
C966 C 0.32584 0.13776 0.88336 0.0
C967 C 0.34013 0.16723 0.86944 0.0
C968 C 0.3755 0.16774 0.88171 0.0
C969 C 0.4036 0.16729 0.85104 0.0
C970 C 0.37556 0.19926 0.90264 0.0
C971 C 0.37914 0.13381 0.90464 0.0
C972 C 0.3502 0.11693 0.90563 0.0
C973 C 0.34784 0.08514 0.92542 0.0
C974 C 0.37587 0.07024 0.94448 0.0
C975 C 0.40604 0.08689 0.94319 0.0
C976 C 0.40734 0.11919 0.92305 0.0
H977 H 0.89369 0.30288 0.87795 0.0
H978 H 0.79786 0.3749 0.87823 0.0
H979 H 0.82442 0.4158 0.90789 0.0
H980 H 0.91261 0.32043 0.96578 0.0
H981 H 0.95876 0.31591 0.95453 0.0
H982 H 0.93208 0.29162 0.93362 0.0
H983 H 0.95639 0.31792 0.87376 0.0
H984 H 0.98252 0.34291 0.89451 0.0
H985 H 0.95242 0.36472 0.86456 0.0
H986 H 0.86243 0.45186 0.93084 0.0
H987 H 0.9065 0.47626 0.9586 0.0
H988 H 0.97604 0.37932 0.95064 0.0
C989 C 0.87809 0.32689 0.88491 0.0
C990 C 0.84399 0.33609 0.87475 0.0
C991 C 0.82443 0.36776 0.88457 0.0
C992 C 0.8392 0.39118 0.90156 0.0
C993 C 0.87331 0.38222 0.90957 0.0
C994 C 0.89225 0.35044 0.90271 0.0
C995 C 0.92814 0.34721 0.91542 0.0
C996 C 0.93318 0.317 0.94405 0.0
C997 C 0.95653 0.34294 0.88526 0.0
C998 C 0.92639 0.38238 0.92978 0.0
C999 C 0.89467 0.40231 0.92547 0.0
C1000 C 0.88721 0.43638 0.93489 0.0
C1001 C 0.9125 0.45016 0.95022 0.0
C1002 C 0.94449 0.42964 0.95656 0.0
C1003 C 0.95166 0.39541 0.94602 0.0
H1004 H 0.70108 0.84977 0.83181 0.0
H1005 H 0.63364 0.77321 0.81863 0.0
H1006 H 0.5862 0.80597 0.85338 0.0
H1007 H 0.67126 0.86246 0.91957 0.0
H1008 H 0.67425 0.90863 0.91509 0.0
H1009 H 0.70234 0.8801 0.88763 0.0
H1010 H 0.68069 0.91822 0.83339 0.0
H1011 H 0.65215 0.94662 0.86076 0.0
H1012 H 0.63493 0.92614 0.82794 0.0
H1013 H 0.54727 0.84453 0.89188 0.0
H1014 H 0.52019 0.88495 0.93489 0.0
H1015 H 0.6116 0.93789 0.92236 0.0
C1016 C 0.67632 0.83991 0.83618 0.0
C1017 C 0.67111 0.80887 0.82247 0.0
C1018 C 0.63832 0.79686 0.82886 0.0
C1019 C 0.61111 0.81541 0.84839 0.0
C1020 C 0.61701 0.84603 0.86123 0.0
C1021 C 0.6488 0.85817 0.85558 0.0
C1022 C 0.64865 0.89096 0.87374 0.0
C1023 C 0.67572 0.88517 0.9006 0.0
C1024 C 0.65445 0.92234 0.84737 0.0
C1025 C 0.61201 0.89491 0.89107 0.0
C1026 C 0.59416 0.86883 0.88317 0.0
C1027 C 0.56076 0.86535 0.89788 0.0
C1028 C 0.54558 0.88841 0.92216 0.0
C1029 C 0.56368 0.91472 0.93127 0.0
C1030 C 0.59693 0.91861 0.91493 0.0
H1031 H 0.8743 0.68531 0.2066 0.0
H1032 H 0.78764 0.72496 0.14592 0.0
H1033 H 0.81431 0.69011 0.09838 0.0
H1034 H 0.94242 0.6802 0.13138 0.0
H1035 H 0.96541 0.64021 0.15004 0.0
H1036 H 0.94151 0.67131 0.17786 0.0
H1037 H 0.90754 0.6225 0.2085 0.0
H1038 H 0.93071 0.59161 0.18007 0.0
H1039 H 0.88401 0.59908 0.18314 0.0
H1040 H 0.84682 0.64884 0.05953 0.0
H1041 H 0.88765 0.60662 0.0275 0.0
H1042 H 0.95426 0.5909 0.112 0.0
C1043 C 0.86179 0.68752 0.18271 0.0
C1044 C 0.8293 0.70842 0.17943 0.0
C1045 C 0.81283 0.70964 0.14851 0.0
C1046 C 0.82764 0.68975 0.12151 0.0
C1047 C 0.85897 0.66849 0.12583 0.0
C1048 C 0.8763 0.66749 0.15528 0.0
C1049 C 0.90908 0.64108 0.15329 0.0
C1050 C 0.94152 0.6593 0.15313 0.0
C1051 C 0.90773 0.61184 0.18303 0.0
C1052 C 0.90703 0.62727 0.11841 0.0
C1053 C 0.87777 0.64361 0.10324 0.0
C1054 C 0.86986 0.6359 0.07104 0.0
C1055 C 0.89303 0.6117 0.05318 0.0
C1056 C 0.92367 0.5952 0.06753 0.0
C1057 C 0.93058 0.60262 0.10085 0.0
H1058 H 0.34858 0.82556 0.2138 0.0
H1059 H 0.25542 0.84605 0.15918 0.0
H1060 H 0.28259 0.88941 0.11802 0.0
H1061 H 0.37136 0.91362 0.20359 0.0
H1062 H 0.41722 0.89933 0.19667 0.0
H1063 H 0.38961 0.8717 0.22295 0.0
H1064 H 0.411 0.82139 0.1839 0.0
H1065 H 0.43887 0.84876 0.15773 0.0
H1066 H 0.40772 0.82906 0.13777 0.0
H1067 H 0.32101 0.93095 0.08221 0.0
H1068 H 0.36862 0.96111 0.05178 0.0
H1069 H 0.43721 0.91109 0.12857 0.0
C1070 C 0.33373 0.83937 0.19337 0.0
C1071 C 0.29965 0.83255 0.18998 0.0
C1072 C 0.28148 0.8508 0.16242 0.0
C1073 C 0.29668 0.87564 0.13899 0.0
C1074 C 0.33029 0.88179 0.14314 0.0
C1075 C 0.34871 0.86379 0.16946 0.0
C1076 C 0.38519 0.87342 0.16707 0.0
C1077 C 0.39118 0.89054 0.1995 0.0
C1078 C 0.41228 0.84125 0.16126 0.0
C1079 C 0.38458 0.89958 0.13526 0.0
C1080 C 0.35256 0.90452 0.12206 0.0
C1081 C 0.34613 0.92725 0.09245 0.0
C1082 C 0.37331 0.94454 0.07544 0.0
C1083 C 0.40677 0.93872 0.08771 0.0
C1084 C 0.412 0.91632 0.11845 0.0
H1085 H 0.65521 0.18578 0.12866 0.0
H1086 H 0.72051 0.09481 0.17089 0.0
H1087 H 0.68881 0.05655 0.14197 0.0
H1088 H 0.57673 0.1495 0.13726 0.0
H1089 H 0.56169 0.17043 0.09697 0.0
H1090 H 0.59034 0.19066 0.11967 0.0
H1091 H 0.63394 0.19264 0.06498 0.0
H1092 H 0.60515 0.17296 0.04192 0.0
H1093 H 0.64941 0.15299 0.04466 0.0
H1094 H 0.64621 0.02833 0.11255 0.0
H1095 H 0.60188 0.01252 0.07822 0.0
H1096 H 0.56672 0.12242 0.05252 0.0
C1097 C 0.6631 0.15781 0.13135 0.0
C1098 C 0.69027 0.1431 0.15188 0.0
C1099 C 0.69998 0.10648 0.15494 0.0
C1100 C 0.68195 0.08462 0.13885 0.0
C1101 C 0.65467 0.09993 0.11946 0.0
C1102 C 0.64577 0.13575 0.11507 0.0
C1103 C 0.61571 0.14573 0.09269 0.0
C1104 C 0.58426 0.16523 0.11286 0.0
C1105 C 0.62672 0.16735 0.05906 0.0
C1106 C 0.60873 0.10991 0.08546 0.0
C1107 C 0.63119 0.08381 0.10145 0.0
C1108 C 0.62882 0.04859 0.09956 0.0
C1109 C 0.6034 0.03986 0.08016 0.0
C1110 C 0.58101 0.06622 0.06243 0.0
C1111 C 0.58363 0.10168 0.0655 0.0
H1112 H 0.69312 0.57834 0.78733 0.0
H1113 H 0.60151 0.63422 0.74393 0.0
H1114 H 0.5653 0.59641 0.78162 0.0
H1115 H 0.65434 0.48765 0.81439 0.0
H1116 H 0.67753 0.48274 0.85275 0.0
H1117 H 0.69652 0.50175 0.81233 0.0
H1118 H 0.70444 0.55513 0.84398 0.0
H1119 H 0.68357 0.5376 0.88369 0.0
H1120 H 0.66689 0.58015 0.86448 0.0
H1121 H 0.53988 0.57387 0.83689 0.0
H1122 H 0.52579 0.55535 0.89792 0.0
H1123 H 0.63266 0.51005 0.90768 0.0
C1124 C 0.66575 0.58034 0.78391 0.0
C1125 C 0.64987 0.60855 0.76271 0.0
C1126 C 0.61396 0.61213 0.75952 0.0
C1127 C 0.59324 0.5909 0.78114 0.0
C1128 C 0.60915 0.56602 0.80511 0.0
C1129 C 0.64484 0.55942 0.80566 0.0
C1130 C 0.65501 0.53645 0.83806 0.0
C1131 C 0.67183 0.49997 0.82882 0.0
C1132 C 0.67884 0.55339 0.85874 0.0
C1133 C 0.61973 0.53486 0.85747 0.0
C1134 C 0.59368 0.55149 0.83766 0.0
C1135 C 0.55976 0.55913 0.85196 0.0
C1136 C 0.55209 0.54891 0.88699 0.0
C1137 C 0.57802 0.5307 0.90751 0.0
C1138 C 0.61221 0.52326 0.89237 0.0
H1139 H 0.31663 0.63693 0.79837 0.0
H1140 H 0.36982 0.72839 0.77752 0.0
H1141 H 0.41845 0.69814 0.80938 0.0
H1142 H 0.33477 0.61999 0.88281 0.0
H1143 H 0.341 0.57297 0.88443 0.0
H1144 H 0.31393 0.59815 0.85364 0.0
H1145 H 0.35102 0.56816 0.80333 0.0
H1146 H 0.37802 0.54261 0.83421 0.0
H1147 H 0.39724 0.56883 0.79848 0.0
H1148 H 0.45558 0.66339 0.85167 0.0
H1149 H 0.47942 0.62505 0.90101 0.0
H1150 H 0.40367 0.55528 0.89498 0.0
C1151 C 0.33929 0.6498 0.79928 0.0
C1152 C 0.33996 0.68465 0.785 0.0
C1153 C 0.36918 0.70148 0.78795 0.0
C1154 C 0.39694 0.68449 0.80592 0.0
C1155 C 0.39512 0.65061 0.82092 0.0
C1156 C 0.36721 0.63321 0.81762 0.0
C1157 C 0.3697 0.59872 0.84009 0.0
C1158 C 0.33798 0.59742 0.86682 0.0
C1159 C 0.37428 0.56775 0.81768 0.0
C1160 C 0.4024 0.60031 0.85749 0.0
C1161 C 0.41693 0.63023 0.84566 0.0
C1162 C 0.44508 0.63938 0.86048 0.0
C1163 C 0.45841 0.61763 0.88845 0.0
C1164 C 0.44369 0.58715 0.90099 0.0
C1165 C 0.41585 0.57804 0.88498 0.0
H1166 H 0.3814 0.34762 0.85177 0.0
H1167 H 0.30312 0.4284 0.81228 0.0
H1168 H 0.32019 0.46961 0.84987 0.0
H1169 H 0.37229 0.36722 0.93789 0.0
H1170 H 0.41775 0.35991 0.94473 0.0
H1171 H 0.40167 0.3372 0.91293 0.0
H1172 H 0.4453 0.36141 0.86508 0.0
H1173 H 0.46211 0.3834 0.89703 0.0
H1174 H 0.44673 0.40784 0.85839 0.0
H1175 H 0.34018 0.499 0.8966 0.0
H1176 H 0.36912 0.51965 0.94208 0.0
H1177 H 0.43864 0.42175 0.94874 0.0
C1178 C 0.36856 0.37429 0.8505 0.0
C1179 C 0.34112 0.38511 0.82908 0.0
C1180 C 0.32451 0.41994 0.82819 0.0
C1181 C 0.33383 0.44334 0.84963 0.0
C1182 C 0.36024 0.43159 0.87128 0.0
C1183 C 0.37811 0.39824 0.87118 0.0
C1184 C 0.40554 0.39243 0.89699 0.0
C1185 C 0.39889 0.36241 0.92478 0.0
C1186 C 0.44208 0.3859 0.87825 0.0
C1187 C 0.39952 0.42737 0.91235 0.0
C1188 C 0.37301 0.44933 0.89729 0.0
C1189 C 0.36137 0.48228 0.90816 0.0
C1190 C 0.37791 0.49363 0.93435 0.0
C1191 C 0.40646 0.47246 0.94904 0.0
C1192 C 0.41703 0.43863 0.93807 0.0
H1193 H 0.70053 0.33057 0.83508 0.0
H1194 H 0.63291 0.32209 0.75534 0.0
H1195 H 0.58459 0.35682 0.78828 0.0
H1196 H 0.64002 0.31855 0.90615 0.0
H1197 H 0.65542 0.3488 0.93124 0.0
H1198 H 0.68469 0.32624 0.89973 0.0
H1199 H 0.69986 0.38539 0.86922 0.0
H1200 H 0.6708 0.40833 0.9007 0.0
H1201 H 0.66554 0.41827 0.8551 0.0
H1202 H 0.54314 0.39316 0.83244 0.0
H1203 H 0.51417 0.42445 0.88254 0.0
H1204 H 0.61005 0.40341 0.93264 0.0
C1205 C 0.67575 0.33625 0.82411 0.0
C1206 C 0.67062 0.32371 0.79247 0.0
C1207 C 0.63754 0.33161 0.77944 0.0
C1208 C 0.60995 0.35127 0.79802 0.0
C1209 C 0.61588 0.36262 0.8296 0.0
C1210 C 0.64814 0.35526 0.84234 0.0
C1211 C 0.64815 0.36878 0.87732 0.0
C1212 C 0.65762 0.3388 0.90524 0.0
C1213 C 0.67253 0.39686 0.87547 0.0
C1214 C 0.61069 0.38442 0.88285 0.0
C1215 C 0.59232 0.38135 0.85501 0.0
C1216 C 0.55734 0.39535 0.85443 0.0
C1217 C 0.54104 0.41295 0.88296 0.0
C1218 C 0.55957 0.41552 0.91187 0.0
C1219 C 0.59477 0.40096 0.91149 0.0
H1220 H 0.68569 0.37777 0.21782 0.0
H1221 H 0.63599 0.28385 0.23485 0.0
H1222 H 0.58774 0.31292 0.2019 0.0
H1223 H 0.60252 0.44287 0.21709 0.0
H1224 H 0.62153 0.47078 0.18269 0.0
H1225 H 0.64838 0.44557 0.21389 0.0
H1226 H 0.68821 0.41831 0.16369 0.0
H1227 H 0.66126 0.44307 0.13255 0.0
H1228 H 0.66967 0.39616 0.13301 0.0
H1229 H 0.55167 0.34657 0.15826 0.0
H1230 H 0.52824 0.3849 0.10878 0.0
H1231 H 0.5986 0.45861 0.12043 0.0
C1232 C 0.66381 0.36407 0.21587 0.0
C1233 C 0.66416 0.32882 0.22929 0.0
C1234 C 0.63592 0.31101 0.22503 0.0
C1235 C 0.60836 0.32732 0.20642 0.0
C1236 C 0.60928 0.36158 0.19219 0.0
C1237 C 0.636 0.38004 0.19698 0.0
C1238 C 0.63263 0.41504 0.17535 0.0
C1239 C 0.62585 0.44536 0.19866 0.0
C1240 C 0.66485 0.4183 0.14963 0.0
C1241 C 0.60093 0.41251 0.15665 0.0
C1242 C 0.58767 0.38158 0.16706 0.0
C1243 C 0.56109 0.37136 0.15062 0.0
C1244 C 0.54797 0.39312 0.12257 0.0
C1245 C 0.56108 0.42486 0.11173 0.0
C1246 C 0.58745 0.43494 0.12925 0.0
H1247 H 0.61982 0.66485 0.16338 0.0
H1248 H 0.69886 0.58436 0.20207 0.0
H1249 H 0.68297 0.54373 0.16328 0.0
H1250 H 0.55599 0.60398 0.15534 0.0
H1251 H 0.54027 0.6285 0.11689 0.0
H1252 H 0.55666 0.65054 0.14907 0.0
H1253 H 0.59996 0.67582 0.10158 0.0
H1254 H 0.58417 0.65324 0.06947 0.0
H1255 H 0.62966 0.64644 0.0762 0.0
H1256 H 0.66344 0.51449 0.11634 0.0
H1257 H 0.6347 0.49363 0.07086 0.0
H1258 H 0.56417 0.59089 0.06472 0.0
C1259 C 0.63323 0.63842 0.16407 0.0
C1260 C 0.66049 0.62755 0.18576 0.0
C1261 C 0.67765 0.59293 0.18597 0.0
C1262 C 0.66899 0.56983 0.16384 0.0
C1263 C 0.64266 0.58158 0.14212 0.0
C1264 C 0.62432 0.61469 0.14266 0.0
C1265 C 0.59686 0.62035 0.11686 0.0
C1266 C 0.56028 0.62618 0.13567 0.0
C1267 C 0.60305 0.65077 0.08941 0.0
C1268 C 0.60337 0.5856 0.10106 0.0
C1269 C 0.63016 0.56388 0.11589 0.0
C1270 C 0.64211 0.53105 0.10486 0.0
C1271 C 0.62566 0.51959 0.07867 0.0
C1272 C 0.59695 0.54052 0.06404 0.0
C1273 C 0.58598 0.57422 0.07526 0.0
H1274 H 0.3085 0.68716 0.17724 0.0
H1275 H 0.37243 0.67917 0.26342 0.0
H1276 H 0.42024 0.64528 0.22911 0.0
H1277 H 0.33803 0.60207 0.14808 0.0
H1278 H 0.336 0.61806 0.10307 0.0
H1279 H 0.30714 0.63927 0.13581 0.0
H1280 H 0.32902 0.69827 0.11332 0.0
H1281 H 0.35843 0.67707 0.08096 0.0
H1282 H 0.3747 0.70158 0.11123 0.0
H1283 H 0.46106 0.61103 0.1836 0.0
H1284 H 0.48965 0.58144 0.13247 0.0
H1285 H 0.39854 0.6178 0.07701 0.0
C1286 C 0.33232 0.67797 0.18928 0.0
C1287 C 0.3366 0.68555 0.22315 0.0
C1288 C 0.3685 0.67342 0.23755 0.0
C1289 C 0.39579 0.65427 0.21822 0.0
C1290 C 0.3908 0.64789 0.18451 0.0
C1291 C 0.35973 0.65952 0.17033 0.0
C1292 C 0.3607 0.65064 0.13339 0.0
C1293 C 0.33389 0.62604 0.1299 0.0
C1294 C 0.35541 0.68387 0.10826 0.0
C1295 C 0.39724 0.63219 0.12871 0.0
C1296 C 0.41433 0.63035 0.15839 0.0
C1297 C 0.44794 0.61269 0.16016 0.0
C1298 C 0.46403 0.59609 0.13102 0.0
C1299 C 0.44666 0.59791 0.10047 0.0
C1300 C 0.41307 0.61667 0.09948 0.0
H1301 H 0.42141 0.35965 0.23223 0.0
H1302 H 0.3217 0.41791 0.26053 0.0
H1303 H 0.33678 0.46794 0.22064 0.0
H1304 H 0.47095 0.44205 0.208 0.0
H1305 H 0.49522 0.42132 0.17224 0.0
H1306 H 0.48423 0.39551 0.212 0.0
H1307 H 0.45531 0.35551 0.17859 0.0
H1308 H 0.46527 0.38031 0.13833 0.0
H1309 H 0.42096 0.37408 0.15185 0.0
H1310 H 0.353 0.50122 0.1654 0.0
H1311 H 0.37431 0.52091 0.10591 0.0
H1312 H 0.46319 0.44017 0.11154 0.0
C1313 C 0.40403 0.38401 0.23182 0.0
C1314 C 0.3706 0.38524 0.24934 0.0
C1315 C 0.34768 0.41683 0.24773 0.0
C1316 C 0.35596 0.44527 0.22481 0.0
C1317 C 0.38751 0.44173 0.20449 0.0
C1318 C 0.4119 0.41237 0.20875 0.0
C1319 C 0.44094 0.41225 0.17987 0.0
C1320 C 0.47484 0.41811 0.19387 0.0
C1321 C 0.44583 0.37856 0.16108 0.0
C1322 C 0.42695 0.44367 0.15673 0.0
C1323 C 0.39676 0.461 0.17184 0.0
C1324 C 0.37723 0.48857 0.15379 0.0
C1325 C 0.38926 0.49918 0.11976 0.0
C1326 C 0.42033 0.48193 0.10391 0.0
C1327 C 0.43933 0.4539 0.12284 0.0
H1328 H 0.79861 0.66207 0.67893 0.0
H1329 H 0.85107 0.75406 0.67256 0.0
H1330 H 0.89646 0.7274 0.63086 0.0
H1331 H 0.87372 0.60134 0.67944 0.0
H1332 H 0.85803 0.57143 0.65419 0.0
H1333 H 0.82784 0.59948 0.68029 0.0
H1334 H 0.79559 0.62385 0.62602 0.0
H1335 H 0.82582 0.59589 0.59969 0.0
H1336 H 0.81936 0.64237 0.58815 0.0
H1337 H 0.93823 0.68883 0.59221 0.0
H1338 H 0.97428 0.64004 0.56378 0.0
H1339 H 0.89457 0.57372 0.59707 0.0
C1340 C 0.81933 0.67685 0.66834 0.0
C1341 C 0.82122 0.71017 0.67885 0.0
C1342 C 0.84911 0.72844 0.66485 0.0
C1343 C 0.87491 0.71362 0.64099 0.0
C1344 C 0.87249 0.68052 0.63141 0.0
C1345 C 0.84543 0.66234 0.64478 0.0
C1346 C 0.85017 0.62612 0.63258 0.0
C1347 C 0.8526 0.59795 0.66346 0.0
C1348 C 0.821 0.62182 0.61028 0.0
C1349 C 0.88448 0.62644 0.61095 0.0
C1350 C 0.89676 0.65818 0.61 0.0
C1351 C 0.92873 0.66393 0.59256 0.0
C1352 C 0.94897 0.63619 0.57639 0.0
C1353 C 0.93728 0.60314 0.57838 0.0
C1354 C 0.90429 0.59867 0.59524 0.0
H1355 H 0.32232 0.84227 0.70234 0.0
H1356 H 0.32487 0.76055 0.63363 0.0
H1357 H 0.36575 0.79023 0.59159 0.0
H1358 H 0.32434 0.91354 0.63642 0.0
H1359 H 0.351 0.93598 0.65939 0.0
H1360 H 0.32217 0.908 0.68314 0.0
H1361 H 0.37385 0.87252 0.71349 0.0
H1362 H 0.40285 0.90035 0.68978 0.0
H1363 H 0.41128 0.85374 0.6875 0.0
H1364 H 0.40819 0.83029 0.55727 0.0
H1365 H 0.44517 0.87614 0.53481 0.0
H1366 H 0.41249 0.92974 0.62752 0.0
C1367 C 0.33131 0.83046 0.67846 0.0
C1368 C 0.32034 0.799 0.67135 0.0
C1369 C 0.33285 0.78467 0.63967 0.0
C1370 C 0.35612 0.80134 0.61567 0.0
C1371 C 0.36651 0.83233 0.62372 0.0
C1372 C 0.35425 0.84666 0.65442 0.0
C1373 C 0.36888 0.88004 0.65747 0.0
C1374 C 0.33987 0.91123 0.65919 0.0
C1375 C 0.3905 0.87642 0.68891 0.0
C1376 C 0.39148 0.88247 0.62373 0.0
C1377 C 0.39007 0.85485 0.60442 0.0
C1378 C 0.40937 0.85197 0.57231 0.0
C1379 C 0.43041 0.87805 0.55979 0.0
C1380 C 0.43174 0.90668 0.57927 0.0
C1381 C 0.41197 0.9085 0.61165 0.0
H1382 H 0.17504 0.36776 0.71259 0.0
H1383 H 0.22792 0.29602 0.64038 0.0
H1384 H 0.19451 0.32776 0.59338 0.0
H1385 H 0.09433 0.36912 0.68451 0.0
H1386 H 0.07895 0.4144 0.68997 0.0
H1387 H 0.11173 0.39115 0.71607 0.0
H1388 H 0.15242 0.43767 0.69507 0.0
H1389 H 0.11955 0.46122 0.66904 0.0
H1390 H 0.16237 0.4479 0.64921 0.0
H1391 H 0.15137 0.36345 0.55586 0.0
H1392 H 0.09995 0.39844 0.53154 0.0
H1393 H 0.07248 0.44434 0.62934 0.0
C1394 C 0.18047 0.35981 0.68649 0.0
C1395 C 0.20465 0.33026 0.67957 0.0
C1396 C 0.21 0.3192 0.64572 0.0
C1397 C 0.19117 0.33704 0.61896 0.0
C1398 C 0.16675 0.36562 0.62666 0.0
C1399 C 0.16133 0.37698 0.65962 0.0
C1400 C 0.13054 0.40539 0.66215 0.0
C1401 C 0.10223 0.39433 0.6898 0.0
C1402 C 0.14193 0.44009 0.66929 0.0
C1403 C 0.11892 0.40742 0.6259 0.0
C1404 C 0.14058 0.38487 0.60557 0.0
C1405 C 0.13439 0.38143 0.57145 0.0
C1406 C 0.10512 0.40136 0.55786 0.0
C1407 C 0.08207 0.42386 0.57862 0.0
C1408 C 0.08946 0.42713 0.61291 0.0
H1409 H 0.68134 0.15588 0.61025 0.0
H1410 H 0.59993 0.22631 0.66048 0.0
H1411 H 0.55583 0.19611 0.63951 0.0
H1412 H 0.63118 0.14573 0.53338 0.0
H1413 H 0.64945 0.10051 0.53244 0.0
H1414 H 0.67444 0.13154 0.54596 0.0
H1415 H 0.68312 0.09256 0.60348 0.0
H1416 H 0.65754 0.06189 0.59058 0.0
H1417 H 0.64566 0.08133 0.63095 0.0
H1418 H 0.52209 0.15211 0.62451 0.0
H1419 H 0.49871 0.10148 0.60755 0.0
H1420 H 0.60072 0.06071 0.56281 0.0
C1421 C 0.65418 0.16556 0.61574 0.0
C1422 C 0.64384 0.19344 0.63674 0.0
C1423 C 0.60822 0.20534 0.64393 0.0
C1424 C 0.58305 0.18827 0.63228 0.0
C1425 C 0.59404 0.1599 0.6129 0.0
C1426 C 0.62867 0.14914 0.60376 0.0
C1427 C 0.63337 0.11644 0.58464 0.0
C1428 C 0.64797 0.12402 0.54686 0.0
C1429 C 0.65627 0.08629 0.60356 0.0
C1430 C 0.59615 0.10934 0.58646 0.0
C1431 C 0.57399 0.13489 0.60278 0.0
C1432 C 0.53895 0.13245 0.61083 0.0
C1433 C 0.52604 0.10338 0.60148 0.0
C1434 C 0.54801 0.07738 0.58385 0.0
C1435 C 0.58345 0.08051 0.57596 0.0
H1436 H 0.8235 0.35198 0.41196 0.0
H1437 H 0.78866 0.43029 0.33099 0.0
H1438 H 0.8232 0.47167 0.35139 0.0
H1439 H 0.82763 0.41613 0.47923 0.0
H1440 H 0.86564 0.3903 0.4954 0.0
H1441 H 0.83332 0.36927 0.47877 0.0
H1442 H 0.88034 0.33942 0.43583 0.0
H1443 H 0.91279 0.3603 0.45207 0.0
H1444 H 0.90665 0.36592 0.40641 0.0
H1445 H 0.87124 0.49844 0.37163 0.0
H1446 H 0.92353 0.512 0.3957 0.0
H1447 H 0.92344 0.41889 0.46731 0.0
C1448 C 0.82205 0.37841 0.39965 0.0
C1449 C 0.80322 0.3884 0.37035 0.0
C1450 C 0.80247 0.42266 0.35395 0.0
C1451 C 0.82208 0.44618 0.36528 0.0
C1452 C 0.84156 0.43514 0.39349 0.0
C1453 C 0.84091 0.40238 0.41113 0.0
C1454 C 0.86626 0.3959 0.43882 0.0
C1455 C 0.84705 0.39272 0.47521 0.0
C1456 C 0.89308 0.36348 0.43289 0.0
C1457 C 0.8828 0.42918 0.43259 0.0
C1458 C 0.86812 0.45157 0.40642 0.0
C1459 C 0.88213 0.48174 0.39295 0.0
C1460 C 0.91188 0.48914 0.40657 0.0
C1461 C 0.92677 0.46681 0.43373 0.0
C1462 C 0.91172 0.43685 0.44726 0.0
H1463 H 0.71142 0.83105 0.33518 0.0
H1464 H 0.65159 0.74394 0.34902 0.0
H1465 H 0.61152 0.77436 0.39317 0.0
H1466 H 0.70121 0.8532 0.42476 0.0
H1467 H 0.69734 0.89949 0.41218 0.0
H1468 H 0.72285 0.86928 0.38444 0.0
H1469 H 0.68658 0.89508 0.33334 0.0
H1470 H 0.66112 0.92543 0.3608 0.0
H1471 H 0.64007 0.89676 0.33878 0.0
H1472 H 0.57688 0.81594 0.4343 0.0
H1473 H 0.54753 0.8666 0.46408 0.0
H1474 H 0.62944 0.92693 0.42067 0.0
C1475 C 0.69019 0.81802 0.34779 0.0
C1476 C 0.68478 0.78494 0.3389 0.0
C1477 C 0.65627 0.76921 0.35555 0.0
C1478 C 0.63353 0.78622 0.38076 0.0
C1479 C 0.63964 0.81894 0.3888 0.0
C1480 C 0.66717 0.83473 0.37253 0.0
C1481 C 0.6667 0.87107 0.38352 0.0
C1482 C 0.69894 0.87337 0.40235 0.0
C1483 C 0.6634 0.8987 0.35225 0.0
C1484 C 0.63421 0.87366 0.40817 0.0
C1485 C 0.61928 0.84314 0.41142 0.0
C1486 C 0.58849 0.83985 0.43208 0.0
C1487 C 0.5721 0.86878 0.44907 0.0
C1488 C 0.58616 0.90083 0.44476 0.0
C1489 C 0.61803 0.90284 0.42459 0.0
H1490 H 0.18522 0.66336 0.30302 0.0
H1491 H 0.22218 0.71042 0.3862 0.0
H1492 H 0.18257 0.68002 0.42879 0.0
H1493 H 0.09703 0.66802 0.33562 0.0
H1494 H 0.09106 0.62637 0.32218 0.0
H1495 H 0.12294 0.65101 0.2986 0.0
H1496 H 0.17077 0.59835 0.30801 0.0
H1497 H 0.13897 0.57336 0.33123 0.0
H1498 H 0.17713 0.57887 0.3514 0.0
H1499 H 0.13481 0.64691 0.46204 0.0
H1500 H 0.08948 0.60906 0.48295 0.0
H1501 H 0.08673 0.58191 0.37801 0.0
C1502 C 0.18534 0.66697 0.33025 0.0
C1503 C 0.20694 0.68931 0.34121 0.0
C1504 C 0.20617 0.69325 0.37713 0.0
C1505 C 0.18353 0.67625 0.40151 0.0
C1506 C 0.16205 0.65498 0.3897 0.0
C1507 C 0.16331 0.64985 0.35491 0.0
C1508 C 0.13806 0.62536 0.34874 0.0
C1509 C 0.11066 0.64381 0.32488 0.0
C1510 C 0.15739 0.59201 0.33398 0.0
C1511 C 0.1221 0.61768 0.38538 0.0
C1512 C 0.13589 0.63525 0.40871 0.0
C1513 C 0.12413 0.63284 0.44394 0.0
C1514 C 0.09819 0.6115 0.4556 0.0
C1515 C 0.08461 0.59241 0.4322 0.0
C1516 C 0.09676 0.5959 0.39664 0.0
H1517 H 0.36265 0.19395 0.31528 0.0
H1518 H 0.26877 0.15166 0.357 0.0
H1519 H 0.3032 0.10807 0.39565 0.0
H1520 H 0.4157 0.11091 0.3125 0.0
H1521 H 0.45399 0.12712 0.32298 0.0
H1522 H 0.42162 0.15588 0.30035 0.0
H1523 H 0.41607 0.19893 0.34797 0.0
H1524 H 0.44857 0.17043 0.37062 0.0
H1525 H 0.40666 0.18328 0.39271 0.0
H1526 H 0.3481 0.07135 0.4313 0.0
H1527 H 0.40038 0.04105 0.45808 0.0
H1528 H 0.46477 0.10416 0.38798 0.0
C1529 C 0.34931 0.17579 0.33293 0.0
C1530 C 0.31315 0.17634 0.33393 0.0
C1531 C 0.29652 0.15163 0.35636 0.0
C1532 C 0.31582 0.12691 0.37825 0.0
C1533 C 0.35162 0.12696 0.37651 0.0
C1534 C 0.3682 0.15049 0.35406 0.0
C1535 C 0.40702 0.14413 0.35576 0.0
C1536 C 0.42567 0.13389 0.32082 0.0
C1537 C 0.42035 0.17609 0.36748 0.0
C1538 C 0.40979 0.11367 0.38319 0.0
C1539 C 0.37755 0.10433 0.39511 0.0
C1540 C 0.37349 0.07811 0.42187 0.0
C1541 C 0.40318 0.06116 0.43691 0.0
C1542 C 0.43633 0.07017 0.42462 0.0
C1543 C 0.43968 0.09643 0.39724 0.0
H1544 H 0.64483 0.80489 0.695 0.0
H1545 H 0.73909 0.84787 0.65588 0.0
H1546 H 0.70508 0.89347 0.61911 0.0
H1547 H 0.60018 0.82165 0.61653 0.0
H1548 H 0.55854 0.83365 0.63952 0.0
H1549 H 0.59084 0.80299 0.66027 0.0
H1550 H 0.58616 0.84199 0.71123 0.0
H1551 H 0.55417 0.87299 0.69044 0.0
H1552 H 0.59295 0.88712 0.70238 0.0
H1553 H 0.66079 0.93345 0.58626 0.0
H1554 H 0.60885 0.96705 0.56156 0.0
H1555 H 0.54331 0.90119 0.62687 0.0
C1556 C 0.65833 0.8235 0.67813 0.0
C1557 C 0.69451 0.82269 0.67756 0.0
C1558 C 0.71135 0.84803 0.65619 0.0
C1559 C 0.69228 0.87395 0.63535 0.0
C1560 C 0.65647 0.87439 0.63692 0.0
C1561 C 0.63964 0.85 0.65795 0.0
C1562 C 0.60077 0.85745 0.65653 0.0
C1563 C 0.58677 0.82713 0.64236 0.0
C1564 C 0.58245 0.86536 0.69227 0.0
C1565 C 0.59834 0.8897 0.63115 0.0
C1566 C 0.63078 0.89883 0.61986 0.0
C1567 C 0.63524 0.92678 0.59514 0.0
C1568 C 0.60574 0.94566 0.58132 0.0
C1569 C 0.57237 0.93682 0.59283 0.0
C1570 C 0.56859 0.90881 0.61831 0.0
H1571 H 0.68396 0.16949 0.31255 0.0
H1572 H 0.67859 0.25285 0.37986 0.0
H1573 H 0.63876 0.22246 0.4224 0.0
H1574 H 0.59562 0.15476 0.32826 0.0
H1575 H 0.60563 0.10814 0.32684 0.0
H1576 H 0.63351 0.13669 0.30243 0.0
H1577 H 0.68612 0.10361 0.33303 0.0
H1578 H 0.65841 0.07494 0.35751 0.0
H1579 H 0.68416 0.09905 0.37975 0.0
H1580 H 0.59772 0.18166 0.45747 0.0
H1581 H 0.56224 0.13493 0.48103 0.0
H1582 H 0.59682 0.07962 0.38973 0.0
C1583 C 0.67452 0.18151 0.33621 0.0
C1584 C 0.68445 0.21367 0.34276 0.0
C1585 C 0.67142 0.22823 0.37421 0.0
C1586 C 0.64873 0.21115 0.39852 0.0
C1587 C 0.63942 0.17945 0.39108 0.0
C1588 C 0.65215 0.16484 0.36063 0.0
C1589 C 0.63871 0.13059 0.35842 0.0
C1590 C 0.61708 0.13269 0.32714 0.0
C1591 C 0.66863 0.10026 0.35711 0.0
C1592 C 0.61626 0.12804 0.39231 0.0
C1593 C 0.61672 0.15637 0.41095 0.0
C1594 C 0.59732 0.15939 0.44299 0.0
C1595 C 0.57714 0.13278 0.45616 0.0
C1596 C 0.57673 0.1034 0.43743 0.0
C1597 C 0.59665 0.1014 0.40508 0.0
H1598 H 0.85719 0.6801 0.30577 0.0
H1599 H 0.76304 0.64501 0.35675 0.0
H1600 H 0.79775 0.60693 0.39974 0.0
H1601 H 0.9118 0.59587 0.31716 0.0
H1602 H 0.94928 0.61613 0.32293 0.0
H1603 H 0.9166 0.63875 0.29621 0.0
H1604 H 0.90999 0.69145 0.3334 0.0
H1605 H 0.94214 0.66876 0.36062 0.0
H1606 H 0.89964 0.68473 0.3796 0.0
H1607 H 0.84374 0.57703 0.44028 0.0
H1608 H 0.89663 0.55215 0.46937 0.0
H1609 H 0.95946 0.60547 0.38848 0.0
C1610 C 0.84391 0.66405 0.32576 0.0
C1611 C 0.80757 0.66542 0.32825 0.0
C1612 C 0.79098 0.644 0.35446 0.0
C1613 C 0.81045 0.62257 0.37901 0.0
C1614 C 0.84637 0.62258 0.37634 0.0
C1615 C 0.86287 0.64226 0.34982 0.0
C1616 C 0.90158 0.6378 0.35208 0.0
C1617 C 0.92095 0.62114 0.32021 0.0
C1618 C 0.91404 0.67276 0.35671 0.0
C1619 C 0.90447 0.61303 0.3845 0.0
C1620 C 0.87244 0.60466 0.39844 0.0
C1621 C 0.86892 0.58319 0.42932 0.0
C1622 C 0.89898 0.56948 0.44584 0.0
C1623 C 0.932 0.57694 0.43109 0.0
C1624 C 0.93455 0.59915 0.40019 0.0
H1625 H 0.33187 0.84772 0.41022 0.0
H1626 H 0.41442 0.77907 0.35941 0.0
H1627 H 0.45779 0.80994 0.38086 0.0
H1628 H 0.3651 0.9227 0.38993 0.0
H1629 H 0.35316 0.94211 0.43031 0.0
H1630 H 0.32835 0.91053 0.41794 0.0
H1631 H 0.33864 0.87191 0.47535 0.0
H1632 H 0.36283 0.90386 0.48842 0.0
H1633 H 0.38226 0.85899 0.48741 0.0
H1634 H 0.49036 0.85525 0.39534 0.0
H1635 H 0.51223 0.90724 0.41104 0.0
H1636 H 0.40981 0.9455 0.4567 0.0
C1637 C 0.35914 0.83844 0.40487 0.0
C1638 C 0.37 0.811 0.38341 0.0
C1639 C 0.40574 0.79968 0.3763 0.0
C1640 C 0.4305 0.81715 0.38824 0.0
C1641 C 0.41897 0.84527 0.40786 0.0
C1642 C 0.38421 0.85525 0.41712 0.0
C1643 C 0.37879 0.88807 0.43615 0.0
C1644 C 0.35495 0.91758 0.41744 0.0
C1645 C 0.3648 0.88022 0.47408 0.0
C1646 C 0.41566 0.8963 0.43386 0.0
C1647 C 0.43835 0.87107 0.41763 0.0
C1648 C 0.47309 0.87463 0.409 0.0
C1649 C 0.48513 0.9045 0.41764 0.0
C1650 C 0.46263 0.93024 0.43514 0.0
C1651 C 0.42752 0.92594 0.44366 0.0
H1652 H 0.21289 0.34067 0.33113 0.0
H1653 H 0.16002 0.24902 0.33654 0.0
H1654 H 0.11456 0.27556 0.3782 0.0
H1655 H 0.1919 0.35965 0.42203 0.0
H1656 H 0.18564 0.4062 0.41088 0.0
H1657 H 0.21586 0.37837 0.3844 0.0
H1658 H 0.18383 0.40338 0.33014 0.0
H1659 H 0.15369 0.4313 0.3564 0.0
H1660 H 0.13794 0.40175 0.33077 0.0
H1661 H 0.07288 0.31387 0.41704 0.0
H1662 H 0.03694 0.36249 0.44585 0.0
H1663 H 0.11699 0.42863 0.41343 0.0
C1664 C 0.19204 0.32596 0.34147 0.0
C1665 C 0.19007 0.29277 0.33072 0.0
C1666 C 0.16204 0.27456 0.34442 0.0
C1667 C 0.1362 0.2893 0.36826 0.0
C1668 C 0.13873 0.32226 0.37812 0.0
C1669 C 0.1659 0.34039 0.36502 0.0
C1670 C 0.16127 0.37645 0.37755 0.0
C1671 C 0.1904 0.38038 0.40006 0.0
C1672 C 0.15903 0.40488 0.34689 0.0
C1673 C 0.1269 0.37608 0.39905 0.0
C1674 C 0.11449 0.34446 0.39966 0.0
C1675 C 0.08246 0.33869 0.41695 0.0
C1676 C 0.06229 0.36632 0.43333 0.0
C1677 C 0.07412 0.39928 0.43167 0.0
C1678 C 0.10716 0.40375 0.41496 0.0
H1679 H 0.29962 0.17112 0.68985 0.0
H1680 H 0.35651 0.26037 0.67802 0.0
H1681 H 0.39733 0.23188 0.63307 0.0
H1682 H 0.37255 0.10638 0.68259 0.0
H1683 H 0.35117 0.07871 0.65968 0.0
H1684 H 0.32616 0.10731 0.68916 0.0
H1685 H 0.28813 0.13496 0.63999 0.0
H1686 H 0.31331 0.10671 0.61016 0.0
H1687 H 0.30842 0.1534 0.59998 0.0
H1688 H 0.43257 0.19197 0.58973 0.0
H1689 H 0.4616 0.14308 0.55691 0.0
H1690 H 0.38075 0.08082 0.59878 0.0
C1691 C 0.32053 0.18493 0.67778 0.0
C1692 C 0.32478 0.21811 0.68739 0.0
C1693 C 0.35276 0.23494 0.6711 0.0
C1694 C 0.37591 0.21904 0.64541 0.0
C1695 C 0.37066 0.18637 0.6364 0.0
C1696 C 0.34373 0.1695 0.6524 0.0
C1697 C 0.34434 0.13392 0.63963 0.0
C1698 C 0.34884 0.10488 0.66954 0.0
C1699 C 0.31161 0.13217 0.62135 0.0
C1700 C 0.37619 0.13297 0.61415 0.0
C1701 C 0.39086 0.16356 0.61219 0.0
C1702 C 0.42114 0.16803 0.59099 0.0
C1703 C 0.43732 0.14016 0.57221 0.0
C1704 C 0.42347 0.10804 0.57517 0.0
C1705 C 0.39203 0.10498 0.59581 0.0
H1706 H 0.82425 0.34827 0.71203 0.0
H1707 H 0.78844 0.29639 0.63152 0.0
H1708 H 0.82953 0.32369 0.58806 0.0
H1709 H 0.83542 0.42976 0.65911 0.0
H1710 H 0.87325 0.4357 0.67959 0.0
H1711 H 0.84026 0.41274 0.70351 0.0
H1712 H 0.88665 0.35966 0.71684 0.0
H1713 H 0.9197 0.38222 0.69252 0.0
H1714 H 0.91298 0.33985 0.68151 0.0
H1715 H 0.87866 0.35419 0.55386 0.0
H1716 H 0.92494 0.39049 0.53159 0.0
H1717 H 0.92611 0.42339 0.63464 0.0
C1718 C 0.82462 0.34303 0.68517 0.0
C1719 C 0.8029 0.32026 0.67523 0.0
C1720 C 0.80445 0.31404 0.63978 0.0
C1721 C 0.82797 0.32922 0.61492 0.0
C1722 C 0.84959 0.35092 0.62578 0.0
C1723 C 0.84759 0.35826 0.66003 0.0
C1724 C 0.87329 0.3826 0.66521 0.0
C1725 C 0.85443 0.41725 0.67757 0.0
C1726 C 0.89972 0.36502 0.69051 0.0
C1727 C 0.89029 0.38772 0.62863 0.0
C1728 C 0.87665 0.36901 0.60619 0.0
C1729 C 0.88921 0.36921 0.57121 0.0
C1730 C 0.9157 0.38967 0.55881 0.0
C1731 C 0.92911 0.40998 0.58123 0.0
C1732 C 0.91628 0.40848 0.61665 0.0
H1733 H 0.1613 0.61116 0.6894 0.0
H1734 H 0.23297 0.63308 0.59992 0.0
H1735 H 0.20472 0.59634 0.56614 0.0
H1736 H 0.15044 0.52029 0.67136 0.0
H1737 H 0.105 0.52681 0.68611 0.0
H1738 H 0.13519 0.54865 0.70514 0.0
H1739 H 0.09849 0.60831 0.69004 0.0
H1740 H 0.06835 0.58683 0.67085 0.0
H1741 H 0.08904 0.62098 0.64572 0.0
H1742 H 0.16317 0.56586 0.53979 0.0
H1743 H 0.11226 0.54329 0.5228 0.0
H1744 H 0.06668 0.54225 0.62937 0.0
C1745 C 0.17151 0.60764 0.66289 0.0
C1746 C 0.19929 0.62497 0.64721 0.0
C1747 C 0.21202 0.61967 0.61254 0.0
C1748 C 0.19609 0.5989 0.59317 0.0
C1749 C 0.16782 0.58335 0.60904 0.0
C1750 C 0.15587 0.58717 0.64326 0.0
C1751 C 0.12284 0.57105 0.65315 0.0
C1752 C 0.12874 0.53984 0.68056 0.0
C1753 C 0.09293 0.59843 0.66565 0.0
C1754 C 0.11699 0.55919 0.61864 0.0
C1755 C 0.1436 0.56587 0.59373 0.0
C1756 C 0.14255 0.55986 0.55922 0.0
C1757 C 0.11337 0.54717 0.54982 0.0
C1758 C 0.08537 0.541 0.57478 0.0
C1759 C 0.08772 0.5464 0.60975 0.0
loop_
_geom_bond_atom_site_label_1
_geom_bond_atom_site_label_2
_geom_bond_distance
_geom_bond_site_symmetry_2
_ccdc_geom_bond_type
C0 O16 1.251 . S
C0 O18 1.254 . S
N1 C2 1.333 . S
N1 C6 1.307 . S
N1 Zn7 2.020 . S
C2 N1 1.333 . S
C2 C3 1.379 . S
C2 H20 0.952 . S
C3 C2 1.379 . S
C3 C4 1.390 . S
C3 H30 0.949 . S
C4 C3 1.390 . S
C4 C5 1.357 . S
C5 C4 1.357 . S
C5 C6 1.370 . S
C5 H31 0.950 . S
C6 N1 1.307 . S
C6 C5 1.370 . S
C6 H24 0.948 . S
Zn7 N1 2.020 . S
Zn7 O16 2.039 . S
Zn7 O22 2.034 . S
Zn7 O26 2.025 . S
Zn7 O28 2.024 . S
C8 O27 1.246 . S
C8 O28 1.249 . S
N9 C10 1.307 . S
N9 C11 1.333 . S
N9 Zn15 2.020 . S
C10 N9 1.307 . S
C10 C14 1.370 . S
C10 H21 0.948 . S
C11 N9 1.333 . S
C11 C12 1.379 . S
C11 H19 0.952 . S
C12 C11 1.379 . S
C12 C13 1.390 . S
C12 H32 0.949 . S
C13 C12 1.390 . S
C13 C14 1.357 . S
C14 C10 1.370 . S
C14 C13 1.357 . S
C14 H33 0.950 . S
Zn15 N9 2.020 . S
Zn15 O18 2.025 . S
Zn15 O23 2.024 . S
Zn15 O25 2.039 . S
Zn15 O27 2.034 . S
O16 C0 1.251 . S
O16 Zn7 2.039 . S
C17 O22 1.246 . S
C17 O23 1.249 . S
O18 C0 1.254 . S
O18 Zn15 2.025 . S
H19 C11 0.952 . S
H20 C2 0.952 . S
H21 C10 0.948 . S
O22 Zn7 2.034 . S
O22 C17 1.246 . S
O23 Zn15 2.024 . S
O23 C17 1.249 . S
H24 C6 0.948 . S
O25 Zn15 2.039 . S
O25 C29 1.251 . S
O26 Zn7 2.025 . S
O26 C29 1.254 . S
O27 C8 1.246 . S
O27 Zn15 2.034 . S
O28 Zn7 2.024 . S
O28 C8 1.249 . S
C29 O25 1.251 . S
C29 O26 1.254 . S
H30 C3 0.949 . S
H31 C5 0.950 . S
H32 C12 0.949 . S
H33 C14 0.950 . S
C34 O50 1.251 . S
C34 O52 1.254 . S
N35 C36 1.333 . S
N35 C40 1.307 . S
N35 Zn41 2.020 . S
C36 N35 1.333 . S
C36 C37 1.379 . S
C36 H54 0.952 . S
C37 C36 1.379 . S
C37 C38 1.390 . S
C37 H64 0.949 . S
C38 C37 1.390 . S
C38 C39 1.357 . S
C39 C38 1.357 . S
C39 C40 1.370 . S
C39 H65 0.950 . S
C40 N35 1.307 . S
C40 C39 1.370 . S
C40 H58 0.948 . S
Zn41 N35 2.020 . S
Zn41 O50 2.039 . S
Zn41 O56 2.034 . S
Zn41 O60 2.025 . S
Zn41 O62 2.024 . S
C42 O61 1.246 . S
C42 O62 1.249 . S
N43 C44 1.307 . S
N43 C45 1.333 . S
N43 Zn49 2.020 . S
C44 N43 1.307 . S
C44 C48 1.370 . S
C44 H55 0.948 . S
C45 N43 1.333 . S
C45 C46 1.379 . S
C45 H53 0.952 . S
C46 C45 1.379 . S
C46 C47 1.390 . S
C46 H66 0.949 . S
C47 C46 1.390 . S
C47 C48 1.357 . S
C48 C44 1.370 . S
C48 C47 1.357 . S
C48 H67 0.950 . S
Zn49 N43 2.020 . S
Zn49 O52 2.025 . S
Zn49 O57 2.024 . S
Zn49 O59 2.039 . S
Zn49 O61 2.034 . S
O50 C34 1.251 . S
O50 Zn41 2.039 . S
C51 O56 1.246 . S
C51 O57 1.249 . S
O52 C34 1.254 . S
O52 Zn49 2.025 . S
H53 C45 0.952 . S
H54 C36 0.952 . S
H55 C44 0.948 . S
O56 Zn41 2.034 . S
O56 C51 1.246 . S
O57 Zn49 2.024 . S
O57 C51 1.249 . S
H58 C40 0.948 . S
O59 Zn49 2.039 . S
O59 C63 1.251 . S
O60 Zn41 2.025 . S
O60 C63 1.254 . S
O61 C42 1.246 . S
O61 Zn49 2.034 . S
O62 Zn41 2.024 . S
O62 C42 1.249 . S
C63 O59 1.251 . S
C63 O60 1.254 . S
H64 C37 0.949 . S
H65 C39 0.950 . S
H66 C46 0.949 . S
H67 C48 0.950 . S
C68 O84 1.251 . S
C68 O86 1.254 . S
N69 C70 1.333 . S
N69 C74 1.307 . S
N69 Zn75 2.020 . S
C70 N69 1.333 . S
C70 C71 1.379 . S
C70 H88 0.952 . S
C71 C70 1.379 . S
C71 C72 1.390 . S
C71 H98 0.949 . S
C72 C71 1.390 . S
C72 C73 1.357 . S
C73 C72 1.357 . S
C73 C74 1.370 . S
C73 H99 0.950 . S
C74 N69 1.307 . S
C74 C73 1.370 . S
C74 H92 0.948 . S
Zn75 N69 2.020 . S
Zn75 O84 2.039 . S
Zn75 O90 2.034 . S
Zn75 O94 2.025 . S
Zn75 O96 2.024 . S
C76 O95 1.246 . S
C76 O96 1.249 . S
N77 C78 1.307 . S
N77 C79 1.333 . S
N77 Zn83 2.020 . S
C78 N77 1.307 . S
C78 C82 1.370 . S
C78 H89 0.948 . S
C79 N77 1.333 . S
C79 C80 1.379 . S
C79 H87 0.952 . S
C80 C79 1.379 . S
C80 C81 1.390 . S
C80 H100 0.949 . S
C81 C80 1.390 . S
C81 C82 1.357 . S
C82 C78 1.370 . S
C82 C81 1.357 . S
C82 H101 0.950 . S
Zn83 N77 2.020 . S
Zn83 O86 2.025 . S
Zn83 O91 2.024 . S
Zn83 O93 2.039 . S
Zn83 O95 2.034 . S
O84 C68 1.251 . S
O84 Zn75 2.039 . S
C85 O90 1.246 . S
C85 O91 1.249 . S
O86 C68 1.254 . S
O86 Zn83 2.025 . S
H87 C79 0.952 . S
H88 C70 0.952 . S
H89 C78 0.948 . S
O90 Zn75 2.034 . S
O90 C85 1.246 . S
O91 Zn83 2.024 . S
O91 C85 1.249 . S
H92 C74 0.948 . S
O93 Zn83 2.039 . S
O93 C97 1.251 . S
O94 Zn75 2.025 . S
O94 C97 1.254 . S
O95 C76 1.246 . S
O95 Zn83 2.034 . S
O96 Zn75 2.024 . S
O96 C76 1.249 . S
C97 O93 1.251 . S
C97 O94 1.254 . S
H98 C71 0.949 . S
H99 C73 0.950 . S
H100 C80 0.949 . S
H101 C82 0.950 . S
C102 O118 1.251 . S
C102 O120 1.254 . S
N103 C104 1.333 . S
N103 C108 1.307 . S
N103 Zn109 2.020 . S
C104 N103 1.333 . S
C104 C105 1.379 . S
C104 H122 0.952 . S
C105 C104 1.379 . S
C105 C106 1.390 . S
C105 H132 0.949 . S
C106 C105 1.390 . S
C106 C107 1.357 . S
C107 C106 1.357 . S
C107 C108 1.370 . S
C107 H133 0.950 . S
C108 N103 1.307 . S
C108 C107 1.370 . S
C108 H126 0.948 . S
Zn109 N103 2.020 . S
Zn109 O118 2.039 . S
Zn109 O124 2.034 . S
Zn109 O128 2.025 . S
Zn109 O130 2.024 . S
C110 O129 1.246 . S
C110 O130 1.249 . S
N111 C112 1.307 . S
N111 C113 1.333 . S
N111 Zn117 2.020 . S
C112 N111 1.307 . S
C112 C116 1.370 . S
C112 H123 0.948 . S
C113 N111 1.333 . S
C113 C114 1.379 . S
C113 H121 0.952 . S
C114 C113 1.379 . S
C114 C115 1.390 . S
C114 H134 0.949 . S
C115 C114 1.390 . S
C115 C116 1.357 . S
C116 C112 1.370 . S
C116 C115 1.357 . S
C116 H135 0.950 . S
Zn117 N111 2.020 . S
Zn117 O120 2.025 . S
Zn117 O125 2.024 . S
Zn117 O127 2.039 . S
Zn117 O129 2.034 . S
O118 C102 1.251 . S
O118 Zn109 2.039 . S
C119 O124 1.246 . S
C119 O125 1.249 . S
O120 C102 1.254 . S
O120 Zn117 2.025 . S
H121 C113 0.952 . S
H122 C104 0.952 . S
H123 C112 0.948 . S
O124 Zn109 2.034 . S
O124 C119 1.246 . S
O125 Zn117 2.024 . S
O125 C119 1.249 . S
H126 C108 0.948 . S
O127 Zn117 2.039 . S
O127 C131 1.251 . S
O128 Zn109 2.025 . S
O128 C131 1.254 . S
O129 C110 1.246 . S
O129 Zn117 2.034 . S
O130 Zn109 2.024 . S
O130 C110 1.249 . S
C131 O127 1.251 . S
C131 O128 1.254 . S
H132 C105 0.949 . S
H133 C107 0.950 . S
H134 C114 0.949 . S
H135 C116 0.950 . S
C136 O152 1.251 . S
C136 O154 1.254 . S
N137 C138 1.333 . S
N137 C142 1.307 . S
N137 Zn143 2.020 . S
C138 N137 1.333 . S
C138 C139 1.379 . S
C138 H156 0.952 . S
C139 C138 1.379 . S
C139 C140 1.390 . S
C139 H166 0.949 . S
C140 C139 1.390 . S
C140 C141 1.357 . S
C141 C140 1.357 . S
C141 C142 1.370 . S
C141 H167 0.950 . S
C142 N137 1.307 . S
C142 C141 1.370 . S
C142 H160 0.948 . S
Zn143 N137 2.020 . S
Zn143 O152 2.039 . S
Zn143 O158 2.034 . S
Zn143 O162 2.025 . S
Zn143 O164 2.024 . S
C144 O163 1.246 . S
C144 O164 1.249 . S
N145 C146 1.307 . S
N145 C147 1.333 . S
N145 Zn151 2.020 . S
C146 N145 1.307 . S
C146 C150 1.370 . S
C146 H157 0.948 . S
C147 N145 1.333 . S
C147 C148 1.379 . S
C147 H155 0.952 . S
C148 C147 1.379 . S
C148 C149 1.390 . S
C148 H168 0.949 . S
C149 C148 1.390 . S
C149 C150 1.357 . S
C150 C146 1.370 . S
C150 C149 1.357 . S
C150 H169 0.950 . S
Zn151 N145 2.020 . S
Zn151 O154 2.025 . S
Zn151 O159 2.024 . S
Zn151 O161 2.039 . S
Zn151 O163 2.034 . S
O152 C136 1.251 . S
O152 Zn143 2.039 . S
C153 O158 1.246 . S
C153 O159 1.249 . S
O154 C136 1.254 . S
O154 Zn151 2.025 . S
H155 C147 0.952 . S
H156 C138 0.952 . S
H157 C146 0.948 . S
O158 Zn143 2.034 . S
O158 C153 1.246 . S
O159 Zn151 2.024 . S
O159 C153 1.249 . S
H160 C142 0.948 . S
O161 Zn151 2.039 . S
O161 C165 1.251 . S
O162 Zn143 2.025 . S
O162 C165 1.254 . S
O163 C144 1.246 . S
O163 Zn151 2.034 . S
O164 Zn143 2.024 . S
O164 C144 1.249 . S
C165 O161 1.251 . S
C165 O162 1.254 . S
H166 C139 0.949 . S
H167 C141 0.950 . S
H168 C148 0.949 . S
H169 C150 0.950 . S
C170 O186 1.251 . S
C170 O188 1.254 . S
N171 C172 1.333 . S
N171 C176 1.307 . S
N171 Zn177 2.020 . S
C172 N171 1.333 . S
C172 C173 1.379 . S
C172 H190 0.952 . S
C173 C172 1.379 . S
C173 C174 1.390 . S
C173 H200 0.949 . S
C174 C173 1.390 . S
C174 C175 1.357 . S
C175 C174 1.357 . S
C175 C176 1.370 . S
C175 H201 0.950 . S
C176 N171 1.307 . S
C176 C175 1.370 . S
C176 H194 0.948 . S
Zn177 N171 2.020 . S
Zn177 O186 2.039 . S
Zn177 O192 2.034 . S
Zn177 O196 2.025 . S
Zn177 O198 2.024 . S
C178 O197 1.246 . S
C178 O198 1.249 . S
N179 C180 1.307 . S
N179 C181 1.333 . S
N179 Zn185 2.020 . S
C180 N179 1.307 . S
C180 C184 1.370 . S
C180 H191 0.948 . S
C181 N179 1.333 . S
C181 C182 1.379 . S
C181 H189 0.952 . S
C182 C181 1.379 . S
C182 C183 1.390 . S
C182 H202 0.949 . S
C183 C182 1.390 . S
C183 C184 1.357 . S
C184 C180 1.370 . S
C184 C183 1.357 . S
C184 H203 0.950 . S
Zn185 N179 2.020 . S
Zn185 O188 2.025 . S
Zn185 O193 2.024 . S
Zn185 O195 2.039 . S
Zn185 O197 2.034 . S
O186 C170 1.251 . S
O186 Zn177 2.039 . S
C187 O192 1.246 . S
C187 O193 1.249 . S
O188 C170 1.254 . S
O188 Zn185 2.025 . S
H189 C181 0.952 . S
H190 C172 0.952 . S
H191 C180 0.948 . S
O192 Zn177 2.034 . S
O192 C187 1.246 . S
O193 Zn185 2.024 . S
O193 C187 1.249 . S
H194 C176 0.948 . S
O195 Zn185 2.039 . S
O195 C199 1.251 . S
O196 Zn177 2.025 . S
O196 C199 1.254 . S
O197 C178 1.246 . S
O197 Zn185 2.034 . S
O198 Zn177 2.024 . S
O198 C178 1.249 . S
C199 O195 1.251 . S
C199 O196 1.254 . S
H200 C173 0.949 . S
H201 C175 0.950 . S
H202 C182 0.949 . S
H203 C184 0.950 . S
C204 O220 1.251 . S
C204 O222 1.254 . S
N205 C206 1.333 . S
N205 C210 1.307 . S
N205 Zn211 2.020 . S
C206 N205 1.333 . S
C206 C207 1.379 . S
C206 H224 0.952 . S
C207 C206 1.379 . S
C207 C208 1.390 . S
C207 H234 0.949 . S
C208 C207 1.390 . S
C208 C209 1.357 . S
C209 C208 1.357 . S
C209 C210 1.370 . S
C209 H235 0.950 . S
C210 N205 1.307 . S
C210 C209 1.370 . S
C210 H228 0.948 . S
Zn211 N205 2.020 . S
Zn211 O220 2.039 . S
Zn211 O226 2.034 . S
Zn211 O230 2.025 . S
Zn211 O232 2.024 . S
C212 O231 1.246 . S
C212 O232 1.249 . S
N213 C214 1.307 . S
N213 C215 1.333 . S
N213 Zn219 2.020 . S
C214 N213 1.307 . S
C214 C218 1.370 . S
C214 H225 0.948 . S
C215 N213 1.333 . S
C215 C216 1.379 . S
C215 H223 0.952 . S
C216 C215 1.379 . S
C216 C217 1.390 . S
C216 H236 0.949 . S
C217 C216 1.390 . S
C217 C218 1.357 . S
C218 C214 1.370 . S
C218 C217 1.357 . S
C218 H237 0.950 . S
Zn219 N213 2.020 . S
Zn219 O222 2.025 . S
Zn219 O227 2.024 . S
Zn219 O229 2.039 . S
Zn219 O231 2.034 . S
O220 C204 1.251 . S
O220 Zn211 2.039 . S
C221 O226 1.246 . S
C221 O227 1.249 . S
O222 C204 1.254 . S
O222 Zn219 2.025 . S
H223 C215 0.952 . S
H224 C206 0.952 . S
H225 C214 0.948 . S
O226 Zn211 2.034 . S
O226 C221 1.246 . S
O227 Zn219 2.024 . S
O227 C221 1.249 . S
H228 C210 0.948 . S
O229 Zn219 2.039 . S
O229 C233 1.251 . S
O230 Zn211 2.025 . S
O230 C233 1.254 . S
O231 C212 1.246 . S
O231 Zn219 2.034 . S
O232 Zn211 2.024 . S
O232 C212 1.249 . S
C233 O229 1.251 . S
C233 O230 1.254 . S
H234 C207 0.949 . S
H235 C209 0.950 . S
H236 C216 0.949 . S
H237 C218 0.950 . S
C238 O254 1.251 . S
C238 O256 1.254 . S
N239 C240 1.333 . S
N239 C244 1.307 . S
N239 Zn245 2.020 . S
C240 N239 1.333 . S
C240 C241 1.379 . S
C240 H258 0.952 . S
C241 C240 1.379 . S
C241 C242 1.390 . S
C241 H268 0.949 . S
C242 C241 1.390 . S
C242 C243 1.357 . S
C243 C242 1.357 . S
C243 C244 1.370 . S
C243 H269 0.950 . S
C244 N239 1.307 . S
C244 C243 1.370 . S
C244 H262 0.948 . S
Zn245 N239 2.020 . S
Zn245 O254 2.039 . S
Zn245 O260 2.034 . S
Zn245 O264 2.025 . S
Zn245 O266 2.024 . S
C246 O265 1.246 . S
C246 O266 1.249 . S
N247 C248 1.307 . S
N247 C249 1.333 . S
N247 Zn253 2.020 . S
C248 N247 1.307 . S
C248 C252 1.370 . S
C248 H259 0.948 . S
C249 N247 1.333 . S
C249 C250 1.379 . S
C249 H257 0.952 . S
C250 C249 1.379 . S
C250 C251 1.390 . S
C250 H270 0.949 . S
C251 C250 1.390 . S
C251 C252 1.357 . S
C252 C248 1.370 . S
C252 C251 1.357 . S
C252 H271 0.950 . S
Zn253 N247 2.020 . S
Zn253 O256 2.025 . S
Zn253 O261 2.024 . S
Zn253 O263 2.039 . S
Zn253 O265 2.034 . S
O254 C238 1.251 . S
O254 Zn245 2.039 . S
C255 O260 1.246 . S
C255 O261 1.249 . S
O256 C238 1.254 . S
O256 Zn253 2.025 . S
H257 C249 0.952 . S
H258 C240 0.952 . S
H259 C248 0.948 . S
O260 Zn245 2.034 . S
O260 C255 1.246 . S
O261 Zn253 2.024 . S
O261 C255 1.249 . S
H262 C244 0.948 . S
O263 Zn253 2.039 . S
O263 C267 1.251 . S
O264 Zn245 2.025 . S
O264 C267 1.254 . S
O265 C246 1.246 . S
O265 Zn253 2.034 . S
O266 Zn245 2.024 . S
O266 C246 1.249 . S
C267 O263 1.251 . S
C267 O264 1.254 . S
H268 C241 0.949 . S
H269 C243 0.950 . S
H270 C250 0.949 . S
H271 C252 0.950 . S
Fe272 O273 1.886 . S
Fe272 O276 1.715 1_655 S
Fe272 O281 2.077 . S
Fe272 O286 1.935 1_655 S
Fe272 O292 2.077 . S
Fe272 O301 1.935 1_655 S
O273 Fe272 1.886 . S
O273 Fe275 1.715 . S
Fe274 O276 1.886 1_565 S
Fe274 O277 1.715 . S
Fe274 O284 1.935 . S
Fe274 O285 2.077 1_565 S
Fe274 O291 1.935 . S
Fe274 O300 2.077 1_565 S
Fe275 O273 1.715 . S
Fe275 O278 1.886 1_545 S
Fe275 O282 1.935 . S
Fe275 O287 2.077 1_545 S
Fe275 O293 1.935 . S
Fe275 O297 2.077 1_545 S
O276 Fe272 1.715 1_455 S
O276 Fe274 1.886 1_545 S
O277 Fe274 1.715 . S
O277 Fe279 1.886 . S
O278 Fe275 1.886 1_565 S
O278 Fe279 1.715 1_655 S
Fe279 O277 1.886 . S
Fe279 O278 1.715 1_455 S
Fe279 O283 2.077 . S
Fe279 O288 1.935 1_455 S
Fe279 O290 2.077 . S
Fe279 O298 1.935 1_455 S
C280 O292 1.381 . S
C280 O293 1.421 . S
O281 Fe272 2.077 . S
O281 C294 1.381 . S
O282 Fe275 1.935 . S
O282 C294 1.421 . S
O283 Fe279 2.077 . S
O283 C299 1.381 . S
O284 Fe274 1.935 . S
O284 C299 1.421 . S
O285 Fe274 2.077 1_545 S
O285 C289 1.381 . S
O286 Fe272 1.935 1_455 S
O286 C289 1.421 . S
O287 Fe275 2.077 1_565 S
O287 C295 1.381 . S
O288 Fe279 1.935 1_655 S
O288 C295 1.421 . S
C289 O285 1.381 . S
C289 O286 1.421 . S
O290 Fe279 2.077 . S
O290 C302 1.381 . S
O291 Fe274 1.935 . S
O291 C302 1.421 . S
O292 Fe272 2.077 . S
O292 C280 1.381 . S
O293 Fe275 1.935 . S
O293 C280 1.421 . S
C294 O281 1.381 . S
C294 O282 1.421 . S
C295 O287 1.381 . S
C295 O288 1.421 . S
C296 O297 1.381 . S
C296 O298 1.421 . S
O297 Fe275 2.077 1_565 S
O297 C296 1.381 . S
O298 Fe279 1.935 1_655 S
O298 C296 1.421 . S
C299 O283 1.381 . S
C299 O284 1.421 . S
O300 Fe274 2.077 1_545 S
O300 C303 1.381 . S
O301 Fe272 1.935 1_455 S
O301 C303 1.421 . S
C302 O290 1.381 . S
C302 O291 1.421 . S
C303 O300 1.381 . S
C303 O301 1.421 . S
Fe304 O305 1.885 1_554 S
Fe304 O308 1.715 . S
Fe304 O313 2.077 1_554 S
Fe304 O318 1.935 1_554 S
Fe304 O324 2.077 . S
Fe304 O333 1.935 . S
O305 Fe304 1.885 1_556 S
O305 Fe307 1.715 . S
Fe306 O308 1.886 1_545 S
Fe306 O309 1.715 . S
Fe306 O316 1.935 1_554 S
Fe306 O317 2.077 1_544 S
Fe306 O323 1.935 . S
Fe306 O332 2.077 1_545 S
Fe307 O305 1.715 . S
Fe307 O310 1.886 1_565 S
Fe307 O314 1.935 . S
Fe307 O319 2.077 1_565 S
Fe307 O325 1.935 1_556 S
Fe307 O329 2.077 1_566 S
O308 Fe304 1.715 . S
O308 Fe306 1.886 1_565 S
O309 Fe306 1.715 . S
O309 Fe311 1.886 1_554 S
O310 Fe307 1.886 1_545 S
O310 Fe311 1.715 . S
Fe311 O309 1.886 1_556 S
Fe311 O310 1.715 . S
Fe311 O315 2.077 . S
Fe311 O320 1.935 . S
Fe311 O322 2.077 1_556 S
Fe311 O330 1.935 1_556 S
C312 O324 1.381 . S
C312 O325 1.421 . S
O313 Fe304 2.077 1_556 S
O313 C326 1.381 . S
O314 Fe307 1.935 . S
O314 C326 1.421 . S
O315 Fe311 2.077 . S
O315 C331 1.381 . S
O316 Fe306 1.935 1_556 S
O316 C331 1.421 . S
O317 Fe306 2.077 1_566 S
O317 C321 1.381 . S
O318 Fe304 1.935 1_556 S
O318 C321 1.421 . S
O319 Fe307 2.077 1_545 S
O319 C327 1.381 . S
O320 Fe311 1.935 . S
O320 C327 1.421 . S
C321 O317 1.381 . S
C321 O318 1.421 . S
O322 Fe311 2.077 1_554 S
O322 C334 1.381 . S
O323 Fe306 1.935 . S
O323 C334 1.421 . S
O324 Fe304 2.077 . S
O324 C312 1.381 . S
O325 Fe307 1.935 1_554 S
O325 C312 1.421 . S
C326 O313 1.381 . S
C326 O314 1.421 . S
C327 O319 1.381 . S
C327 O320 1.421 . S
C328 O329 1.381 . S
C328 O330 1.421 . S
O329 Fe307 2.077 1_544 S
O329 C328 1.381 . S
O330 Fe311 1.935 1_554 S
O330 C328 1.421 . S
C331 O315 1.381 . S
C331 O316 1.421 . S
O332 Fe306 2.077 1_565 S
O332 C335 1.381 . S
O333 Fe304 1.935 . S
O333 C335 1.421 . S
C334 O322 1.381 . S
C334 O323 1.421 . S
C335 O332 1.381 . S
C335 O333 1.421 . S
Fe336 O337 1.886 1_556 S
Fe336 O340 1.715 1_655 S
Fe336 O345 2.077 . S
Fe336 O350 1.935 1_655 S
Fe336 O356 2.077 1_556 S
Fe336 O365 1.935 1_656 S
O337 Fe336 1.886 1_554 S
O337 Fe339 1.715 . S
Fe338 O340 1.886 . S
Fe338 O341 1.715 . S
Fe338 O348 1.935 . S
Fe338 O349 2.077 . S
Fe338 O355 1.935 1_556 S
Fe338 O364 2.077 1_556 S
Fe339 O337 1.715 . S
Fe339 O342 1.886 . S
Fe339 O346 1.935 1_554 S
Fe339 O351 2.077 1_554 S
Fe339 O357 1.935 . S
Fe339 O361 2.077 . S
O340 Fe336 1.715 1_455 S
O340 Fe338 1.886 . S
O341 Fe338 1.715 . S
O341 Fe343 1.885 1_556 S
O342 Fe339 1.886 . S
O342 Fe343 1.715 1_655 S
Fe343 O341 1.885 1_554 S
Fe343 O342 1.715 1_455 S
Fe343 O347 2.077 1_554 S
Fe343 O352 1.935 1_454 S
Fe343 O354 2.077 . S
Fe343 O362 1.935 1_455 S
C344 O356 1.381 . S
C344 O357 1.421 . S
O345 Fe336 2.077 . S
O345 C358 1.381 . S
O346 Fe339 1.935 1_556 S
O346 C358 1.421 . S
O347 Fe343 2.077 1_556 S
O347 C363 1.381 . S
O348 Fe338 1.935 . S
O348 C363 1.421 . S
O349 Fe338 2.077 . S
O349 C353 1.381 . S
O350 Fe336 1.935 1_455 S
O350 C353 1.421 . S
O351 Fe339 2.077 1_556 S
O351 C359 1.381 . S
O352 Fe343 1.935 1_656 S
O352 C359 1.421 . S
C353 O349 1.381 . S
C353 O350 1.421 . S
O354 Fe343 2.077 . S
O354 C366 1.381 . S
O355 Fe338 1.935 1_554 S
O355 C366 1.421 . S
O356 Fe336 2.077 1_554 S
O356 C344 1.381 . S
O357 Fe339 1.935 . S
O357 C344 1.421 . S
C358 O345 1.381 . S
C358 O346 1.421 . S
C359 O351 1.381 . S
C359 O352 1.421 . S
C360 O361 1.381 . S
C360 O362 1.421 . S
O361 Fe339 2.077 . S
O361 C360 1.381 . S
O362 Fe343 1.935 1_655 S
O362 C360 1.421 . S
C363 O347 1.381 . S
C363 O348 1.421 . S
O364 Fe338 2.077 1_554 S
O364 C367 1.381 . S
O365 Fe336 1.935 1_454 S
O365 C367 1.421 . S
C366 O354 1.381 . S
C366 O355 1.421 . S
C367 O364 1.381 . S
C367 O365 1.421 . S
Fe368 O369 1.886 . S
Fe368 O372 1.715 . S
Fe368 O377 2.077 . S
Fe368 O382 1.935 . S
Fe368 O388 2.077 . S
Fe368 O397 1.935 . S
O369 Fe368 1.886 . S
O369 Fe371 1.715 . S
Fe370 O372 1.886 1_554 S
Fe370 O373 1.715 . S
Fe370 O380 1.935 . S
Fe370 O381 2.077 1_554 S
Fe370 O387 1.935 . S
Fe370 O396 2.077 1_554 S
Fe371 O369 1.715 . S
Fe371 O374 1.886 1_556 S
Fe371 O378 1.935 . S
Fe371 O383 2.077 1_556 S
Fe371 O389 1.935 . S
Fe371 O393 2.077 1_556 S
O372 Fe368 1.715 . S
O372 Fe370 1.886 1_556 S
O373 Fe370 1.715 . S
O373 Fe375 1.886 . S
O374 Fe371 1.886 1_554 S
O374 Fe375 1.715 . S
Fe375 O373 1.886 . S
Fe375 O374 1.715 . S
Fe375 O379 2.077 . S
Fe375 O384 1.935 . S
Fe375 O386 2.077 . S
Fe375 O394 1.935 . S
C376 O388 1.381 . S
C376 O389 1.421 . S
O377 Fe368 2.077 . S
O377 C390 1.381 . S
O378 Fe371 1.935 . S
O378 C390 1.421 . S
O379 Fe375 2.077 . S
O379 C395 1.381 . S
O380 Fe370 1.935 . S
O380 C395 1.421 . S
O381 Fe370 2.077 1_556 S
O381 C385 1.381 . S
O382 Fe368 1.935 . S
O382 C385 1.421 . S
O383 Fe371 2.077 1_554 S
O383 C391 1.381 . S
O384 Fe375 1.935 . S
O384 C391 1.421 . S
C385 O381 1.381 . S
C385 O382 1.421 . S
O386 Fe375 2.077 . S
O386 C398 1.381 . S
O387 Fe370 1.935 . S
O387 C398 1.421 . S
O388 Fe368 2.077 . S
O388 C376 1.381 . S
O389 Fe371 1.935 . S
O389 C376 1.421 . S
C390 O377 1.381 . S
C390 O378 1.421 . S
C391 O383 1.381 . S
C391 O384 1.421 . S
C392 O393 1.381 . S
C392 O394 1.421 . S
O393 Fe371 2.077 1_554 S
O393 C392 1.381 . S
O394 Fe375 1.935 . S
O394 C392 1.421 . S
C395 O379 1.381 . S
C395 O380 1.421 . S
O396 Fe370 2.077 1_556 S
O396 C399 1.381 . S
O397 Fe368 1.935 . S
O397 C399 1.421 . S
C398 O386 1.381 . S
C398 O387 1.421 . S
C399 O396 1.381 . S
C399 O397 1.421 . S
Fe400 O401 1.886 . S
Fe400 O404 1.715 . S
Fe400 O409 2.077 . S
Fe400 O414 1.935 . S
Fe400 O420 2.077 1_455 S
Fe400 O429 1.935 1_455 S
O401 Fe400 1.886 . S
O401 Fe403 1.715 1_455 S
Fe402 O404 1.886 . S
Fe402 O405 1.715 1_455 S
Fe402 O412 1.935 . S
Fe402 O413 2.077 . S
Fe402 O419 1.935 1_455 S
Fe402 O428 2.077 1_455 S
Fe403 O401 1.715 1_655 S
Fe403 O406 1.886 . S
Fe403 O410 1.935 1_655 S
Fe403 O415 2.077 1_655 S
Fe403 O421 1.935 . S
Fe403 O425 2.077 . S
O404 Fe400 1.715 . S
O404 Fe402 1.886 . S
O405 Fe402 1.715 1_655 S
O405 Fe407 1.886 . S
O406 Fe403 1.886 . S
O406 Fe407 1.715 . S
Fe407 O405 1.886 . S
Fe407 O406 1.715 . S
Fe407 O411 2.077 1_655 S
Fe407 O416 1.935 1_655 S
Fe407 O418 2.077 . S
Fe407 O426 1.935 . S
C408 O420 1.381 . S
C408 O421 1.421 . S
O409 Fe400 2.077 . S
O409 C422 1.381 . S
O410 Fe403 1.935 1_455 S
O410 C422 1.421 . S
O411 Fe407 2.077 1_455 S
O411 C427 1.381 . S
O412 Fe402 1.935 . S
O412 C427 1.421 . S
O413 Fe402 2.077 . S
O413 C417 1.381 . S
O414 Fe400 1.935 . S
O414 C417 1.421 . S
O415 Fe403 2.077 1_455 S
O415 C423 1.381 . S
O416 Fe407 1.935 1_455 S
O416 C423 1.421 . S
C417 O413 1.381 . S
C417 O414 1.421 . S
O418 Fe407 2.077 . S
O418 C430 1.381 . S
O419 Fe402 1.935 1_655 S
O419 C430 1.421 . S
O420 Fe400 2.077 1_655 S
O420 C408 1.381 . S
O421 Fe403 1.935 . S
O421 C408 1.421 . S
C422 O409 1.381 . S
C422 O410 1.421 . S
C423 O415 1.381 . S
C423 O416 1.421 . S
C424 O425 1.381 . S
C424 O426 1.421 . S
O425 Fe403 2.077 . S
O425 C424 1.381 . S
O426 Fe407 1.935 . S
O426 C424 1.421 . S
C427 O411 1.381 . S
C427 O412 1.421 . S
O428 Fe402 2.077 1_655 S
O428 C431 1.381 . S
O429 Fe400 1.935 1_655 S
O429 C431 1.421 . S
C430 O418 1.381 . S
C430 O419 1.421 . S
C431 O428 1.381 . S
C431 O429 1.421 . S
Fe432 O433 1.886 . S
Fe432 O436 1.715 . S
Fe432 O441 2.077 . S
Fe432 O446 1.935 . S
Fe432 O452 2.077 . S
Fe432 O461 1.935 . S
O433 Fe432 1.886 . S
O433 Fe435 1.715 . S
Fe434 O436 1.886 1_545 S
Fe434 O437 1.715 . S
Fe434 O444 1.935 . S
Fe434 O445 2.077 1_545 S
Fe434 O451 1.935 . S
Fe434 O460 2.077 1_545 S
Fe435 O433 1.715 . S
Fe435 O438 1.886 1_565 S
Fe435 O442 1.935 . S
Fe435 O447 2.077 1_565 S
Fe435 O453 1.935 . S
Fe435 O457 2.077 1_565 S
O436 Fe432 1.715 . S
O436 Fe434 1.886 1_565 S
O437 Fe434 1.715 . S
O437 Fe439 1.886 . S
O438 Fe435 1.886 1_545 S
O438 Fe439 1.715 . S
Fe439 O437 1.886 . S
Fe439 O438 1.715 . S
Fe439 O443 2.077 . S
Fe439 O448 1.935 . S
Fe439 O450 2.077 . S
Fe439 O458 1.935 . S
C440 O452 1.381 . S
C440 O453 1.421 . S
O441 Fe432 2.077 . S
O441 C454 1.381 . S
O442 Fe435 1.935 . S
O442 C454 1.421 . S
O443 Fe439 2.077 . S
O443 C459 1.381 . S
O444 Fe434 1.935 . S
O444 C459 1.421 . S
O445 Fe434 2.077 1_565 S
O445 C449 1.381 . S
O446 Fe432 1.935 . S
O446 C449 1.421 . S
O447 Fe435 2.077 1_545 S
O447 C455 1.381 . S
O448 Fe439 1.935 . S
O448 C455 1.421 . S
C449 O445 1.381 . S
C449 O446 1.421 . S
O450 Fe439 2.077 . S
O450 C462 1.381 . S
O451 Fe434 1.935 . S
O451 C462 1.421 . S
O452 Fe432 2.077 . S
O452 C440 1.381 . S
O453 Fe435 1.935 . S
O453 C440 1.421 . S
C454 O441 1.381 . S
C454 O442 1.421 . S
C455 O447 1.381 . S
C455 O448 1.421 . S
C456 O457 1.381 . S
C456 O458 1.421 . S
O457 Fe435 2.077 1_545 S
O457 C456 1.381 . S
O458 Fe439 1.935 . S
O458 C456 1.421 . S
C459 O443 1.381 . S
C459 O444 1.421 . S
O460 Fe434 2.077 1_565 S
O460 C463 1.381 . S
O461 Fe432 1.935 . S
O461 C463 1.421 . S
C462 O450 1.381 . S
C462 O451 1.421 . S
C463 O460 1.381 . S
C463 O461 1.421 . S
H464 C476 0.930 . S
H465 C478 0.930 . S
H466 C479 0.930 . S
H467 C483 0.959 . S
H468 C483 0.959 . S
H469 C483 0.961 . S
H470 C484 0.960 . S
H471 C484 0.961 . S
H472 C484 0.959 . S
H473 C487 0.929 . S
H474 C488 0.931 . S
H475 C490 0.930 . S
C476 H464 0.930 . S
C476 C477 1.399 . S
C476 C481 1.399 . S
C477 C476 1.399 . S
C477 C478 1.376 . S
C478 H465 0.930 . S
C478 C477 1.376 . S
C478 C479 1.388 . S
C479 H466 0.930 . S
C479 C478 1.388 . S
C479 C480 1.390 . S
C480 C479 1.390 . S
C480 C481 1.394 . S
C480 C486 1.465 . S
C481 C476 1.399 . S
C481 C480 1.394 . S
C481 C482 1.516 . S
C482 C481 1.516 . S
C482 C483 1.502 . S
C482 C484 1.561 . S
C482 C485 1.526 . S
C483 H467 0.959 . S
C483 H468 0.959 . S
C483 H469 0.961 . S
C483 C482 1.502 . S
C484 H470 0.960 . S
C484 H471 0.961 . S
C484 H472 0.959 . S
C484 C482 1.561 . S
C485 C482 1.526 . S
C485 C486 1.396 . S
C485 C490 1.390 . S
C486 C480 1.465 . S
C486 C485 1.396 . S
C486 C487 1.399 . S
C487 H473 0.929 . S
C487 C486 1.399 . S
C487 C488 1.385 . S
C488 H474 0.931 . S
C488 C487 1.385 . S
C488 C489 1.389 . S
C489 C488 1.389 . S
C489 C490 1.387 . S
C490 H475 0.930 . S
C490 C485 1.390 . S
C490 C489 1.387 . S
H491 C503 0.930 . S
H492 C505 0.930 . S
H493 C506 0.930 . S
H494 C510 0.959 . S
H495 C510 0.959 . S
H496 C510 0.961 . S
H497 C511 0.960 . S
H498 C511 0.961 . S
H499 C511 0.959 . S
H500 C514 0.929 . S
H501 C515 0.931 . S
H502 C517 0.930 . S
C503 H491 0.930 . S
C503 C504 1.399 . S
C503 C508 1.399 . S
C504 C503 1.399 . S
C504 C505 1.376 . S
C505 H492 0.930 . S
C505 C504 1.376 . S
C505 C506 1.388 . S
C506 H493 0.930 . S
C506 C505 1.388 . S
C506 C507 1.390 . S
C507 C506 1.390 . S
C507 C508 1.394 . S
C507 C513 1.465 . S
C508 C503 1.399 . S
C508 C507 1.394 . S
C508 C509 1.516 . S
C509 C508 1.516 . S
C509 C510 1.502 . S
C509 C511 1.561 . S
C509 C512 1.526 . S
C510 H494 0.959 . S
C510 H495 0.959 . S
C510 H496 0.961 . S
C510 C509 1.502 . S
C511 H497 0.960 . S
C511 H498 0.961 . S
C511 H499 0.959 . S
C511 C509 1.561 . S
C512 C509 1.526 . S
C512 C513 1.396 . S
C512 C517 1.390 . S
C513 C507 1.465 . S
C513 C512 1.396 . S
C513 C514 1.399 . S
C514 H500 0.929 . S
C514 C513 1.399 . S
C514 C515 1.385 . S
C515 H501 0.931 . S
C515 C514 1.385 . S
C515 C516 1.389 . S
C516 C515 1.389 . S
C516 C517 1.387 . S
C517 H502 0.930 . S
C517 C512 1.390 . S
C517 C516 1.387 . S
H518 C530 0.930 . S
H519 C532 0.930 . S
H520 C533 0.930 . S
H521 C537 0.959 . S
H522 C537 0.959 . S
H523 C537 0.961 . S
H524 C538 0.960 . S
H525 C538 0.961 . S
H526 C538 0.959 . S
H527 C541 0.929 . S
H528 C542 0.931 . S
H529 C544 0.930 . S
C530 H518 0.930 . S
C530 C531 1.399 . S
C530 C535 1.399 . S
C531 C530 1.399 . S
C531 C532 1.376 . S
C532 H519 0.930 . S
C532 C531 1.376 . S
C532 C533 1.388 . S
C533 H520 0.930 . S
C533 C532 1.388 . S
C533 C534 1.390 . S
C534 C533 1.390 . S
C534 C535 1.394 . S
C534 C540 1.465 . S
C535 C530 1.399 . S
C535 C534 1.394 . S
C535 C536 1.516 . S
C536 C535 1.516 . S
C536 C537 1.502 . S
C536 C538 1.561 . S
C536 C539 1.526 . S
C537 H521 0.959 . S
C537 H522 0.959 . S
C537 H523 0.961 . S
C537 C536 1.502 . S
C538 H524 0.960 . S
C538 H525 0.961 . S
C538 H526 0.959 . S
C538 C536 1.561 . S
C539 C536 1.526 . S
C539 C540 1.396 . S
C539 C544 1.390 . S
C540 C534 1.465 . S
C540 C539 1.396 . S
C540 C541 1.399 . S
C541 H527 0.929 . S
C541 C540 1.399 . S
C541 C542 1.385 . S
C542 H528 0.931 . S
C542 C541 1.385 . S
C542 C543 1.389 . S
C543 C542 1.389 . S
C543 C544 1.387 . S
C544 H529 0.930 . S
C544 C539 1.390 . S
C544 C543 1.387 . S
H545 C557 0.930 . S
H546 C559 0.930 . S
H547 C560 0.930 . S
H548 C564 0.959 . S
H549 C564 0.959 . S
H550 C564 0.961 . S
H551 C565 0.960 . S
H552 C565 0.961 . S
H553 C565 0.959 . S
H554 C568 0.929 . S
H555 C569 0.931 . S
H556 C571 0.930 . S
C557 H545 0.930 . S
C557 C558 1.399 . S
C557 C562 1.399 . S
C558 C557 1.399 . S
C558 C559 1.376 . S
C559 H546 0.930 . S
C559 C558 1.376 . S
C559 C560 1.388 . S
C560 H547 0.930 . S
C560 C559 1.388 . S
C560 C561 1.390 . S
C561 C560 1.390 . S
C561 C562 1.394 . S
C561 C567 1.465 . S
C562 C557 1.399 . S
C562 C561 1.394 . S
C562 C563 1.516 . S
C563 C562 1.516 . S
C563 C564 1.502 . S
C563 C565 1.561 . S
C563 C566 1.526 . S
C564 H548 0.959 . S
C564 H549 0.959 . S
C564 H550 0.961 . S
C564 C563 1.502 . S
C565 H551 0.960 . S
C565 H552 0.961 . S
C565 H553 0.959 . S
C565 C563 1.561 . S
C566 C563 1.526 . S
C566 C567 1.396 . S
C566 C571 1.390 . S
C567 C561 1.465 . S
C567 C566 1.396 . S
C567 C568 1.399 . S
C568 H554 0.929 . S
C568 C567 1.399 . S
C568 C569 1.385 . S
C569 H555 0.931 . S
C569 C568 1.385 . S
C569 C570 1.389 . S
C570 C569 1.389 . S
C570 C571 1.387 . S
C571 H556 0.930 . S
C571 C566 1.390 . S
C571 C570 1.387 . S
H572 C584 0.930 . S
H573 C586 0.930 . S
H574 C587 0.930 . S
H575 C591 0.959 . S
H576 C591 0.959 . S
H577 C591 0.961 . S
H578 C592 0.960 . S
H579 C592 0.961 . S
H580 C592 0.959 . S
H581 C595 0.929 . S
H582 C596 0.931 . S
H583 C598 0.930 . S
C584 H572 0.930 . S
C584 C585 1.399 . S
C584 C589 1.399 . S
C585 C584 1.399 . S
C585 C586 1.376 . S
C586 H573 0.930 . S
C586 C585 1.376 . S
C586 C587 1.388 . S
C587 H574 0.930 . S
C587 C586 1.388 . S
C587 C588 1.390 . S
C588 C587 1.390 . S
C588 C589 1.394 . S
C588 C594 1.465 . S
C589 C584 1.399 . S
C589 C588 1.394 . S
C589 C590 1.516 . S
C590 C589 1.516 . S
C590 C591 1.502 . S
C590 C592 1.561 . S
C590 C593 1.526 . S
C591 H575 0.959 . S
C591 H576 0.959 . S
C591 H577 0.961 . S
C591 C590 1.502 . S
C592 H578 0.960 . S
C592 H579 0.961 . S
C592 H580 0.959 . S
C592 C590 1.561 . S
C593 C590 1.526 . S
C593 C594 1.396 . S
C593 C598 1.390 . S
C594 C588 1.465 . S
C594 C593 1.396 . S
C594 C595 1.399 . S
C595 H581 0.929 . S
C595 C594 1.399 . S
C595 C596 1.385 . S
C596 H582 0.931 . S
C596 C595 1.385 . S
C596 C597 1.389 . S
C597 C596 1.389 . S
C597 C598 1.387 . S
C598 H583 0.930 . S
C598 C593 1.390 . S
C598 C597 1.387 . S
H599 C611 0.930 . S
H600 C613 0.930 . S
H601 C614 0.930 . S
H602 C618 0.959 . S
H603 C618 0.959 . S
H604 C618 0.961 . S
H605 C619 0.960 . S
H606 C619 0.961 . S
H607 C619 0.959 . S
H608 C622 0.929 . S
H609 C623 0.931 . S
H610 C625 0.930 . S
C611 H599 0.930 . S
C611 C612 1.399 . S
C611 C616 1.399 . S
C612 C611 1.399 . S
C612 C613 1.376 . S
C613 H600 0.930 . S
C613 C612 1.376 . S
C613 C614 1.388 . S
C614 H601 0.930 . S
C614 C613 1.388 . S
C614 C615 1.390 . S
C615 C614 1.390 . S
C615 C616 1.394 . S
C615 C621 1.465 . S
C616 C611 1.399 . S
C616 C615 1.394 . S
C616 C617 1.516 . S
C617 C616 1.516 . S
C617 C618 1.502 . S
C617 C619 1.561 . S
C617 C620 1.526 . S
C618 H602 0.959 . S
C618 H603 0.959 . S
C618 H604 0.961 . S
C618 C617 1.502 . S
C619 H605 0.960 . S
C619 H606 0.961 . S
C619 H607 0.959 . S
C619 C617 1.561 . S
C620 C617 1.526 . S
C620 C621 1.396 . S
C620 C625 1.390 . S
C621 C615 1.465 . S
C621 C620 1.396 . S
C621 C622 1.399 . S
C622 H608 0.929 . S
C622 C621 1.399 . S
C622 C623 1.385 . S
C623 H609 0.931 . S
C623 C622 1.385 . S
C623 C624 1.389 . S
C624 C623 1.389 . S
C624 C625 1.387 . S
C625 H610 0.930 . S
C625 C620 1.390 . S
C625 C624 1.387 . S
H626 C638 0.930 . S
H627 C640 0.930 . S
H628 C641 0.930 . S
H629 C645 0.959 . S
H630 C645 0.959 . S
H631 C645 0.961 . S
H632 C646 0.960 . S
H633 C646 0.961 . S
H634 C646 0.959 . S
H635 C649 0.929 . S
H636 C650 0.931 . S
H637 C652 0.930 . S
C638 H626 0.930 . S
C638 C639 1.399 . S
C638 C643 1.399 . S
C639 C638 1.399 . S
C639 C640 1.376 . S
C640 H627 0.930 . S
C640 C639 1.376 . S
C640 C641 1.388 . S
C641 H628 0.930 . S
C641 C640 1.388 . S
C641 C642 1.390 . S
C642 C641 1.390 . S
C642 C643 1.394 . S
C642 C648 1.465 . S
C643 C638 1.399 . S
C643 C642 1.394 . S
C643 C644 1.516 . S
C644 C643 1.516 . S
C644 C645 1.502 . S
C644 C646 1.561 . S
C644 C647 1.526 . S
C645 H629 0.959 . S
C645 H630 0.959 . S
C645 H631 0.961 . S
C645 C644 1.502 . S
C646 H632 0.960 . S
C646 H633 0.961 . S
C646 H634 0.959 . S
C646 C644 1.561 . S
C647 C644 1.526 . S
C647 C648 1.396 . S
C647 C652 1.390 . S
C648 C642 1.465 . S
C648 C647 1.396 . S
C648 C649 1.399 . S
C649 H635 0.929 . S
C649 C648 1.399 . S
C649 C650 1.385 . S
C650 H636 0.931 . S
C650 C649 1.385 . S
C650 C651 1.389 . S
C651 C650 1.389 . S
C651 C652 1.387 . S
C652 H637 0.930 . S
C652 C647 1.390 . S
C652 C651 1.387 . S
H653 C665 0.930 . S
H654 C667 0.930 . S
H655 C668 0.930 . S
H656 C672 0.959 . S
H657 C672 0.959 . S
H658 C672 0.961 . S
H659 C673 0.960 . S
H660 C673 0.961 . S
H661 C673 0.959 . S
H662 C676 0.929 . S
H663 C677 0.931 . S
H664 C679 0.930 . S
C665 H653 0.930 . S
C665 C666 1.399 . S
C665 C670 1.399 . S
C666 C665 1.399 . S
C666 C667 1.376 . S
C667 H654 0.930 . S
C667 C666 1.376 . S
C667 C668 1.388 . S
C668 H655 0.930 . S
C668 C667 1.388 . S
C668 C669 1.390 . S
C669 C668 1.390 . S
C669 C670 1.394 . S
C669 C675 1.465 . S
C670 C665 1.399 . S
C670 C669 1.394 . S
C670 C671 1.516 . S
C671 C670 1.516 . S
C671 C672 1.502 . S
C671 C673 1.561 . S
C671 C674 1.526 . S
C672 H656 0.959 . S
C672 H657 0.959 . S
C672 H658 0.961 . S
C672 C671 1.502 . S
C673 H659 0.960 . S
C673 H660 0.961 . S
C673 H661 0.959 . S
C673 C671 1.561 . S
C674 C671 1.526 . S
C674 C675 1.396 . S
C674 C679 1.390 . S
C675 C669 1.465 . S
C675 C674 1.396 . S
C675 C676 1.399 . S
C676 H662 0.929 . S
C676 C675 1.399 . S
C676 C677 1.385 . S
C677 H663 0.931 . S
C677 C676 1.385 . S
C677 C678 1.389 . S
C678 C677 1.389 . S
C678 C679 1.387 . S
C679 H664 0.930 . S
C679 C674 1.390 . S
C679 C678 1.387 . S
H680 C692 0.930 . S
H681 C694 0.930 . S
H682 C695 0.930 . S
H683 C699 0.959 . S
H684 C699 0.959 . S
H685 C699 0.961 . S
H686 C700 0.960 . S
H687 C700 0.961 . S
H688 C700 0.959 . S
H689 C703 0.929 . S
H690 C704 0.931 . S
H691 C706 0.930 . S
C692 H680 0.930 . S
C692 C693 1.399 . S
C692 C697 1.399 . S
C693 C692 1.399 . S
C693 C694 1.376 . S
C694 H681 0.930 . S
C694 C693 1.376 . S
C694 C695 1.388 . S
C695 H682 0.930 . S
C695 C694 1.388 . S
C695 C696 1.390 . S
C696 C695 1.390 . S
C696 C697 1.394 . S
C696 C702 1.465 . S
C697 C692 1.399 . S
C697 C696 1.394 . S
C697 C698 1.516 . S
C698 C697 1.516 . S
C698 C699 1.502 . S
C698 C700 1.561 . S
C698 C701 1.526 . S
C699 H683 0.959 . S
C699 H684 0.959 . S
C699 H685 0.961 . S
C699 C698 1.502 . S
C700 H686 0.960 . S
C700 H687 0.961 . S
C700 H688 0.959 . S
C700 C698 1.561 . S
C701 C698 1.526 . S
C701 C702 1.396 . S
C701 C706 1.390 . S
C702 C696 1.465 . S
C702 C701 1.396 . S
C702 C703 1.399 . S
C703 H689 0.929 . S
C703 C702 1.399 . S
C703 C704 1.385 . S
C704 H690 0.931 . S
C704 C703 1.385 . S
C704 C705 1.389 . S
C705 C704 1.389 . S
C705 C706 1.387 . S
C706 H691 0.930 . S
C706 C701 1.390 . S
C706 C705 1.387 . S
H707 C719 0.930 . S
H708 C721 0.930 . S
H709 C722 0.930 . S
H710 C726 0.959 . S
H711 C726 0.959 . S
H712 C726 0.961 . S
H713 C727 0.960 . S
H714 C727 0.961 . S
H715 C727 0.959 . S
H716 C730 0.929 . S
H717 C731 0.931 . S
H718 C733 0.930 . S
C719 H707 0.930 . S
C719 C720 1.399 . S
C719 C724 1.399 . S
C720 C719 1.399 . S
C720 C721 1.376 . S
C721 H708 0.930 . S
C721 C720 1.376 . S
C721 C722 1.388 . S
C722 H709 0.930 . S
C722 C721 1.388 . S
C722 C723 1.390 . S
C723 C722 1.390 . S
C723 C724 1.394 . S
C723 C729 1.465 . S
C724 C719 1.399 . S
C724 C723 1.394 . S
C724 C725 1.516 . S
C725 C724 1.516 . S
C725 C726 1.502 . S
C725 C727 1.561 . S
C725 C728 1.526 . S
C726 H710 0.959 . S
C726 H711 0.959 . S
C726 H712 0.961 . S
C726 C725 1.502 . S
C727 H713 0.960 . S
C727 H714 0.961 . S
C727 H715 0.959 . S
C727 C725 1.561 . S
C728 C725 1.526 . S
C728 C729 1.396 . S
C728 C733 1.390 . S
C729 C723 1.465 . S
C729 C728 1.396 . S
C729 C730 1.399 . S
C730 H716 0.929 . S
C730 C729 1.399 . S
C730 C731 1.385 . S
C731 H717 0.931 . S
C731 C730 1.385 . S
C731 C732 1.389 . S
C732 C731 1.389 . S
C732 C733 1.387 . S
C733 H718 0.930 . S
C733 C728 1.390 . S
C733 C732 1.387 . S
H734 C746 0.930 . S
H735 C748 0.930 . S
H736 C749 0.930 . S
H737 C753 0.959 . S
H738 C753 0.959 . S
H739 C753 0.961 . S
H740 C754 0.960 . S
H741 C754 0.961 . S
H742 C754 0.959 . S
H743 C757 0.929 . S
H744 C758 0.931 . S
H745 C760 0.930 . S
C746 H734 0.930 . S
C746 C747 1.399 . S
C746 C751 1.399 . S
C747 C746 1.399 . S
C747 C748 1.376 . S
C748 H735 0.930 . S
C748 C747 1.376 . S
C748 C749 1.388 . S
C749 H736 0.930 . S
C749 C748 1.388 . S
C749 C750 1.390 . S
C750 C749 1.390 . S
C750 C751 1.394 . S
C750 C756 1.465 . S
C751 C746 1.399 . S
C751 C750 1.394 . S
C751 C752 1.516 . S
C752 C751 1.516 . S
C752 C753 1.502 . S
C752 C754 1.561 . S
C752 C755 1.526 . S
C753 H737 0.959 . S
C753 H738 0.959 . S
C753 H739 0.961 . S
C753 C752 1.502 . S
C754 H740 0.960 . S
C754 H741 0.961 . S
C754 H742 0.959 . S
C754 C752 1.561 . S
C755 C752 1.526 . S
C755 C756 1.396 . S
C755 C760 1.390 . S
C756 C750 1.465 . S
C756 C755 1.396 . S
C756 C757 1.399 . S
C757 H743 0.929 . S
C757 C756 1.399 . S
C757 C758 1.385 . S
C758 H744 0.931 . S
C758 C757 1.385 . S
C758 C759 1.389 . S
C759 C758 1.389 . S
C759 C760 1.387 . S
C760 H745 0.930 . S
C760 C755 1.390 . S
C760 C759 1.387 . S
H761 C773 0.930 . S
H762 C775 0.930 . S
H763 C776 0.930 . S
H764 C780 0.959 . S
H765 C780 0.959 . S
H766 C780 0.961 . S
H767 C781 0.960 . S
H768 C781 0.961 . S
H769 C781 0.959 . S
H770 C784 0.929 . S
H771 C785 0.931 . S
H772 C787 0.930 . S
C773 H761 0.930 . S
C773 C774 1.399 . S
C773 C778 1.399 . S
C774 C773 1.399 . S
C774 C775 1.376 . S
C775 H762 0.930 . S
C775 C774 1.376 . S
C775 C776 1.388 . S
C776 H763 0.930 . S
C776 C775 1.388 . S
C776 C777 1.390 . S
C777 C776 1.390 . S
C777 C778 1.394 . S
C777 C783 1.465 . S
C778 C773 1.399 . S
C778 C777 1.394 . S
C778 C779 1.516 . S
C779 C778 1.516 . S
C779 C780 1.502 . S
C779 C781 1.561 . S
C779 C782 1.526 . S
C780 H764 0.959 . S
C780 H765 0.959 . S
C780 H766 0.961 . S
C780 C779 1.502 . S
C781 H767 0.960 . S
C781 H768 0.961 . S
C781 H769 0.959 . S
C781 C779 1.561 . S
C782 C779 1.526 . S
C782 C783 1.396 . S
C782 C787 1.390 . S
C783 C777 1.465 . S
C783 C782 1.396 . S
C783 C784 1.399 . S
C784 H770 0.929 . S
C784 C783 1.399 . S
C784 C785 1.385 . S
C785 H771 0.931 . S
C785 C784 1.385 . S
C785 C786 1.389 . S
C786 C785 1.389 . S
C786 C787 1.387 . S
C787 H772 0.930 . S
C787 C782 1.390 . S
C787 C786 1.387 . S
H788 C800 0.930 . S
H789 C802 0.930 . S
H790 C803 0.930 . S
H791 C807 0.959 . S
H792 C807 0.959 . S
H793 C807 0.961 . S
H794 C808 0.960 . S
H795 C808 0.961 . S
H796 C808 0.959 . S
H797 C811 0.929 . S
H798 C812 0.931 . S
H799 C814 0.930 . S
C800 H788 0.930 . S
C800 C801 1.399 . S
C800 C805 1.399 . S
C801 C800 1.399 . S
C801 C802 1.376 . S
C802 H789 0.930 . S
C802 C801 1.376 . S
C802 C803 1.388 . S
C803 H790 0.930 . S
C803 C802 1.388 . S
C803 C804 1.390 . S
C804 C803 1.390 . S
C804 C805 1.394 . S
C804 C810 1.465 . S
C805 C800 1.399 . S
C805 C804 1.394 . S
C805 C806 1.516 . S
C806 C805 1.516 . S
C806 C807 1.502 . S
C806 C808 1.561 . S
C806 C809 1.526 . S
C807 H791 0.959 . S
C807 H792 0.959 . S
C807 H793 0.961 . S
C807 C806 1.502 . S
C808 H794 0.960 . S
C808 H795 0.961 . S
C808 H796 0.959 . S
C808 C806 1.561 . S
C809 C806 1.526 . S
C809 C810 1.396 . S
C809 C814 1.390 . S
C810 C804 1.465 . S
C810 C809 1.396 . S
C810 C811 1.399 . S
C811 H797 0.929 . S
C811 C810 1.399 . S
C811 C812 1.385 . S
C812 H798 0.931 . S
C812 C811 1.385 . S
C812 C813 1.389 . S
C813 C812 1.389 . S
C813 C814 1.387 . S
C814 H799 0.930 . S
C814 C809 1.390 . S
C814 C813 1.387 . S
H815 C827 0.930 . S
H816 C829 0.930 . S
H817 C830 0.930 . S
H818 C834 0.959 . S
H819 C834 0.959 . S
H820 C834 0.961 . S
H821 C835 0.960 . S
H822 C835 0.961 . S
H823 C835 0.959 . S
H824 C838 0.929 . S
H825 C839 0.931 . S
H826 C841 0.930 . S
C827 H815 0.930 . S
C827 C828 1.399 . S
C827 C832 1.399 . S
C828 C827 1.399 . S
C828 C829 1.376 . S
C829 H816 0.930 . S
C829 C828 1.376 . S
C829 C830 1.388 . S
C830 H817 0.930 . S
C830 C829 1.388 . S
C830 C831 1.390 . S
C831 C830 1.390 . S
C831 C832 1.394 . S
C831 C837 1.465 . S
C832 C827 1.399 . S
C832 C831 1.394 . S
C832 C833 1.516 . S
C833 C832 1.516 . S
C833 C834 1.502 . S
C833 C835 1.561 . S
C833 C836 1.526 . S
C834 H818 0.959 . S
C834 H819 0.959 . S
C834 H820 0.961 . S
C834 C833 1.502 . S
C835 H821 0.960 . S
C835 H822 0.961 . S
C835 H823 0.959 . S
C835 C833 1.561 . S
C836 C833 1.526 . S
C836 C837 1.396 . S
C836 C841 1.390 . S
C837 C831 1.465 . S
C837 C836 1.396 . S
C837 C838 1.399 . S
C838 H824 0.929 . S
C838 C837 1.399 . S
C838 C839 1.385 . S
C839 H825 0.931 . S
C839 C838 1.385 . S
C839 C840 1.389 . S
C840 C839 1.389 . S
C840 C841 1.387 . S
C841 H826 0.930 . S
C841 C836 1.390 . S
C841 C840 1.387 . S
H842 C854 0.930 . S
H843 C856 0.930 . S
H844 C857 0.930 . S
H845 C861 0.959 . S
H846 C861 0.959 . S
H847 C861 0.961 . S
H848 C862 0.960 . S
H849 C862 0.961 . S
H850 C862 0.959 . S
H851 C865 0.929 . S
H852 C866 0.931 . S
H853 C868 0.930 . S
C854 H842 0.930 . S
C854 C855 1.399 . S
C854 C859 1.399 . S
C855 C854 1.399 . S
C855 C856 1.376 . S
C856 H843 0.930 . S
C856 C855 1.376 . S
C856 C857 1.388 . S
C857 H844 0.930 . S
C857 C856 1.388 . S
C857 C858 1.390 . S
C858 C857 1.390 . S
C858 C859 1.394 . S
C858 C864 1.465 . S
C859 C854 1.399 . S
C859 C858 1.394 . S
C859 C860 1.516 . S
C860 C859 1.516 . S
C860 C861 1.502 . S
C860 C862 1.561 . S
C860 C863 1.526 . S
C861 H845 0.959 . S
C861 H846 0.959 . S
C861 H847 0.961 . S
C861 C860 1.502 . S
C862 H848 0.960 . S
C862 H849 0.961 . S
C862 H850 0.959 . S
C862 C860 1.561 . S
C863 C860 1.526 . S
C863 C864 1.396 . S
C863 C868 1.390 . S
C864 C858 1.465 . S
C864 C863 1.396 . S
C864 C865 1.399 . S
C865 H851 0.929 . S
C865 C864 1.399 . S
C865 C866 1.385 . S
C866 H852 0.931 . S
C866 C865 1.385 . S
C866 C867 1.389 . S
C867 C866 1.389 . S
C867 C868 1.387 . S
C868 H853 0.930 . S
C868 C863 1.390 . S
C868 C867 1.387 . S
H869 C881 0.930 . S
H870 C883 0.930 . S
H871 C884 0.930 . S
H872 C888 0.959 . S
H873 C888 0.959 . S
H874 C888 0.961 . S
H875 C889 0.960 . S
H876 C889 0.961 . S
H877 C889 0.959 . S
H878 C892 0.929 . S
H879 C893 0.931 . S
H880 C895 0.930 . S
C881 H869 0.930 . S
C881 C882 1.399 . S
C881 C886 1.399 . S
C882 C881 1.399 . S
C882 C883 1.376 . S
C883 H870 0.930 . S
C883 C882 1.376 . S
C883 C884 1.388 . S
C884 H871 0.930 . S
C884 C883 1.388 . S
C884 C885 1.390 . S
C885 C884 1.390 . S
C885 C886 1.394 . S
C885 C891 1.465 . S
C886 C881 1.399 . S
C886 C885 1.394 . S
C886 C887 1.516 . S
C887 C886 1.516 . S
C887 C888 1.502 . S
C887 C889 1.561 . S
C887 C890 1.526 . S
C888 H872 0.959 . S
C888 H873 0.959 . S
C888 H874 0.961 . S
C888 C887 1.502 . S
C889 H875 0.960 . S
C889 H876 0.961 . S
C889 H877 0.959 . S
C889 C887 1.561 . S
C890 C887 1.526 . S
C890 C891 1.396 . S
C890 C895 1.390 . S
C891 C885 1.465 . S
C891 C890 1.396 . S
C891 C892 1.399 . S
C892 H878 0.929 . S
C892 C891 1.399 . S
C892 C893 1.385 . S
C893 H879 0.931 . S
C893 C892 1.385 . S
C893 C894 1.389 . S
C894 C893 1.389 . S
C894 C895 1.387 . S
C895 H880 0.930 . S
C895 C890 1.390 . S
C895 C894 1.387 . S
H896 C908 0.930 . S
H897 C910 0.930 . S
H898 C911 0.930 . S
H899 C915 0.959 . S
H900 C915 0.959 . S
H901 C915 0.961 . S
H902 C916 0.960 . S
H903 C916 0.961 . S
H904 C916 0.959 . S
H905 C919 0.929 . S
H906 C920 0.931 . S
H907 C922 0.930 . S
C908 H896 0.930 . S
C908 C909 1.399 . S
C908 C913 1.399 . S
C909 C908 1.399 . S
C909 C910 1.376 . S
C910 H897 0.930 . S
C910 C909 1.376 . S
C910 C911 1.388 . S
C911 H898 0.930 . S
C911 C910 1.388 . S
C911 C912 1.390 . S
C912 C911 1.390 . S
C912 C913 1.394 . S
C912 C918 1.465 . S
C913 C908 1.399 . S
C913 C912 1.394 . S
C913 C914 1.516 . S
C914 C913 1.516 . S
C914 C915 1.502 . S
C914 C916 1.561 . S
C914 C917 1.526 . S
C915 H899 0.959 . S
C915 H900 0.959 . S
C915 H901 0.961 . S
C915 C914 1.502 . S
C916 H902 0.960 . S
C916 H903 0.961 . S
C916 H904 0.959 . S
C916 C914 1.561 . S
C917 C914 1.526 . S
C917 C918 1.396 . S
C917 C922 1.390 . S
C918 C912 1.465 . S
C918 C917 1.396 . S
C918 C919 1.399 . S
C919 H905 0.929 . S
C919 C918 1.399 . S
C919 C920 1.385 . S
C920 H906 0.931 . S
C920 C919 1.385 . S
C920 C921 1.389 . S
C921 C920 1.389 . S
C921 C922 1.387 . S
C922 H907 0.930 . S
C922 C917 1.390 . S
C922 C921 1.387 . S
H923 C935 0.930 . S
H924 C937 0.930 . S
H925 C938 0.930 . S
H926 C942 0.959 . S
H927 C942 0.959 . S
H928 C942 0.961 . S
H929 C943 0.960 . S
H930 C943 0.961 . S
H931 C943 0.959 . S
H932 C946 0.929 . S
H933 C947 0.931 . S
H934 C949 0.930 . S
C935 H923 0.930 . S
C935 C936 1.399 . S
C935 C940 1.399 . S
C936 C935 1.399 . S
C936 C937 1.376 . S
C937 H924 0.930 . S
C937 C936 1.376 . S
C937 C938 1.388 . S
C938 H925 0.930 . S
C938 C937 1.388 . S
C938 C939 1.390 . S
C939 C938 1.390 . S
C939 C940 1.394 . S
C939 C945 1.465 . S
C940 C935 1.399 . S
C940 C939 1.394 . S
C940 C941 1.516 . S
C941 C940 1.516 . S
C941 C942 1.502 . S
C941 C943 1.561 . S
C941 C944 1.526 . S
C942 H926 0.959 . S
C942 H927 0.959 . S
C942 H928 0.961 . S
C942 C941 1.502 . S
C943 H929 0.960 . S
C943 H930 0.961 . S
C943 H931 0.959 . S
C943 C941 1.561 . S
C944 C941 1.526 . S
C944 C945 1.396 . S
C944 C949 1.390 . S
C945 C939 1.465 . S
C945 C944 1.396 . S
C945 C946 1.399 . S
C946 H932 0.929 . S
C946 C945 1.399 . S
C946 C947 1.385 . S
C947 H933 0.931 . S
C947 C946 1.385 . S
C947 C948 1.389 . S
C948 C947 1.389 . S
C948 C949 1.387 . S
C949 H934 0.930 . S
C949 C944 1.390 . S
C949 C948 1.387 . S
H950 C962 0.930 . S
H951 C964 0.930 . S
H952 C965 0.930 . S
H953 C969 0.959 . S
H954 C969 0.959 . S
H955 C969 0.961 . S
H956 C970 0.960 . S
H957 C970 0.961 . S
H958 C970 0.959 . S
H959 C973 0.929 . S
H960 C974 0.931 . S
H961 C976 0.930 . S
C962 H950 0.930 . S
C962 C963 1.399 . S
C962 C967 1.399 . S
C963 C962 1.399 . S
C963 C964 1.376 . S
C964 H951 0.930 . S
C964 C963 1.376 . S
C964 C965 1.388 . S
C965 H952 0.930 . S
C965 C964 1.388 . S
C965 C966 1.390 . S
C966 C965 1.390 . S
C966 C967 1.394 . S
C966 C972 1.465 . S
C967 C962 1.399 . S
C967 C966 1.394 . S
C967 C968 1.516 . S
C968 C967 1.516 . S
C968 C969 1.502 . S
C968 C970 1.561 . S
C968 C971 1.526 . S
C969 H953 0.959 . S
C969 H954 0.959 . S
C969 H955 0.961 . S
C969 C968 1.502 . S
C970 H956 0.960 . S
C970 H957 0.961 . S
C970 H958 0.959 . S
C970 C968 1.561 . S
C971 C968 1.526 . S
C971 C972 1.396 . S
C971 C976 1.390 . S
C972 C966 1.465 . S
C972 C971 1.396 . S
C972 C973 1.399 . S
C973 H959 0.929 . S
C973 C972 1.399 . S
C973 C974 1.385 . S
C974 H960 0.931 . S
C974 C973 1.385 . S
C974 C975 1.389 . S
C975 C974 1.389 . S
C975 C976 1.387 . S
C976 H961 0.930 . S
C976 C971 1.390 . S
C976 C975 1.387 . S
H977 C989 0.930 . S
H978 C991 0.930 . S
H979 C992 0.930 . S
H980 C996 0.959 . S
H981 C996 0.959 . S
H982 C996 0.961 . S
H983 C997 0.960 . S
H984 C997 0.961 . S
H985 C997 0.959 . S
H986 C1000 0.929 . S
H987 C1001 0.931 . S
H988 C1003 0.930 . S
C989 H977 0.930 . S
C989 C990 1.399 . S
C989 C994 1.399 . S
C990 C989 1.399 . S
C990 C991 1.376 . S
C991 H978 0.930 . S
C991 C990 1.376 . S
C991 C992 1.388 . S
C992 H979 0.930 . S
C992 C991 1.388 . S
C992 C993 1.390 . S
C993 C992 1.390 . S
C993 C994 1.394 . S
C993 C999 1.465 . S
C994 C989 1.399 . S
C994 C993 1.394 . S
C994 C995 1.516 . S
C995 C994 1.516 . S
C995 C996 1.502 . S
C995 C997 1.561 . S
C995 C998 1.526 . S
C996 H980 0.959 . S
C996 H981 0.959 . S
C996 H982 0.961 . S
C996 C995 1.502 . S
C997 H983 0.960 . S
C997 H984 0.961 . S
C997 H985 0.959 . S
C997 C995 1.561 . S
C998 C995 1.526 . S
C998 C999 1.396 . S
C998 C1003 1.390 . S
C999 C993 1.465 . S
C999 C998 1.396 . S
C999 C1000 1.399 . S
C1000 H986 0.929 . S
C1000 C999 1.399 . S
C1000 C1001 1.385 . S
C1001 H987 0.931 . S
C1001 C1000 1.385 . S
C1001 C1002 1.389 . S
C1002 C1001 1.389 . S
C1002 C1003 1.387 . S
C1003 H988 0.930 . S
C1003 C998 1.390 . S
C1003 C1002 1.387 . S
H1004 C1016 0.930 . S
H1005 C1018 0.930 . S
H1006 C1019 0.930 . S
H1007 C1023 0.959 . S
H1008 C1023 0.959 . S
H1009 C1023 0.961 . S
H1010 C1024 0.960 . S
H1011 C1024 0.961 . S
H1012 C1024 0.959 . S
H1013 C1027 0.929 . S
H1014 C1028 0.931 . S
H1015 C1030 0.930 . S
C1016 H1004 0.930 . S
C1016 C1017 1.399 . S
C1016 C1021 1.399 . S
C1017 C1016 1.399 . S
C1017 C1018 1.376 . S
C1018 H1005 0.930 . S
C1018 C1017 1.376 . S
C1018 C1019 1.388 . S
C1019 H1006 0.930 . S
C1019 C1018 1.388 . S
C1019 C1020 1.390 . S
C1020 C1019 1.390 . S
C1020 C1021 1.394 . S
C1020 C1026 1.465 . S
C1021 C1016 1.399 . S
C1021 C1020 1.394 . S
C1021 C1022 1.516 . S
C1022 C1021 1.516 . S
C1022 C1023 1.502 . S
C1022 C1024 1.561 . S
C1022 C1025 1.526 . S
C1023 H1007 0.959 . S
C1023 H1008 0.959 . S
C1023 H1009 0.961 . S
C1023 C1022 1.502 . S
C1024 H1010 0.960 . S
C1024 H1011 0.961 . S
C1024 H1012 0.959 . S
C1024 C1022 1.561 . S
C1025 C1022 1.526 . S
C1025 C1026 1.396 . S
C1025 C1030 1.390 . S
C1026 C1020 1.465 . S
C1026 C1025 1.396 . S
C1026 C1027 1.399 . S
C1027 H1013 0.929 . S
C1027 C1026 1.399 . S
C1027 C1028 1.385 . S
C1028 H1014 0.931 . S
C1028 C1027 1.385 . S
C1028 C1029 1.389 . S
C1029 C1028 1.389 . S
C1029 C1030 1.387 . S
C1030 H1015 0.930 . S
C1030 C1025 1.390 . S
C1030 C1029 1.387 . S
H1031 C1043 0.930 . S
H1032 C1045 0.930 . S
H1033 C1046 0.930 . S
H1034 C1050 0.959 . S
H1035 C1050 0.959 . S
H1036 C1050 0.961 . S
H1037 C1051 0.960 . S
H1038 C1051 0.961 . S
H1039 C1051 0.959 . S
H1040 C1054 0.929 . S
H1041 C1055 0.931 . S
H1042 C1057 0.930 . S
C1043 H1031 0.930 . S
C1043 C1044 1.399 . S
C1043 C1048 1.399 . S
C1044 C1043 1.399 . S
C1044 C1045 1.376 . S
C1045 H1032 0.930 . S
C1045 C1044 1.376 . S
C1045 C1046 1.388 . S
C1046 H1033 0.930 . S
C1046 C1045 1.388 . S
C1046 C1047 1.390 . S
C1047 C1046 1.390 . S
C1047 C1048 1.394 . S
C1047 C1053 1.465 . S
C1048 C1043 1.399 . S
C1048 C1047 1.394 . S
C1048 C1049 1.516 . S
C1049 C1048 1.516 . S
C1049 C1050 1.502 . S
C1049 C1051 1.561 . S
C1049 C1052 1.526 . S
C1050 H1034 0.959 . S
C1050 H1035 0.959 . S
C1050 H1036 0.961 . S
C1050 C1049 1.502 . S
C1051 H1037 0.960 . S
C1051 H1038 0.961 . S
C1051 H1039 0.959 . S
C1051 C1049 1.561 . S
C1052 C1049 1.526 . S
C1052 C1053 1.396 . S
C1052 C1057 1.390 . S
C1053 C1047 1.465 . S
C1053 C1052 1.396 . S
C1053 C1054 1.399 . S
C1054 H1040 0.929 . S
C1054 C1053 1.399 . S
C1054 C1055 1.385 . S
C1055 H1041 0.931 . S
C1055 C1054 1.385 . S
C1055 C1056 1.389 . S
C1056 C1055 1.389 . S
C1056 C1057 1.387 . S
C1057 H1042 0.930 . S
C1057 C1052 1.390 . S
C1057 C1056 1.387 . S
H1058 C1070 0.930 . S
H1059 C1072 0.930 . S
H1060 C1073 0.930 . S
H1061 C1077 0.959 . S
H1062 C1077 0.959 . S
H1063 C1077 0.961 . S
H1064 C1078 0.960 . S
H1065 C1078 0.961 . S
H1066 C1078 0.959 . S
H1067 C1081 0.929 . S
H1068 C1082 0.931 . S
H1069 C1084 0.930 . S
C1070 H1058 0.930 . S
C1070 C1071 1.399 . S
C1070 C1075 1.399 . S
C1071 C1070 1.399 . S
C1071 C1072 1.376 . S
C1072 H1059 0.930 . S
C1072 C1071 1.376 . S
C1072 C1073 1.388 . S
C1073 H1060 0.930 . S
C1073 C1072 1.388 . S
C1073 C1074 1.390 . S
C1074 C1073 1.390 . S
C1074 C1075 1.394 . S
C1074 C1080 1.465 . S
C1075 C1070 1.399 . S
C1075 C1074 1.394 . S
C1075 C1076 1.516 . S
C1076 C1075 1.516 . S
C1076 C1077 1.502 . S
C1076 C1078 1.561 . S
C1076 C1079 1.526 . S
C1077 H1061 0.959 . S
C1077 H1062 0.959 . S
C1077 H1063 0.961 . S
C1077 C1076 1.502 . S
C1078 H1064 0.960 . S
C1078 H1065 0.961 . S
C1078 H1066 0.959 . S
C1078 C1076 1.561 . S
C1079 C1076 1.526 . S
C1079 C1080 1.396 . S
C1079 C1084 1.390 . S
C1080 C1074 1.465 . S
C1080 C1079 1.396 . S
C1080 C1081 1.399 . S
C1081 H1067 0.929 . S
C1081 C1080 1.399 . S
C1081 C1082 1.385 . S
C1082 H1068 0.931 . S
C1082 C1081 1.385 . S
C1082 C1083 1.389 . S
C1083 C1082 1.389 . S
C1083 C1084 1.387 . S
C1084 H1069 0.930 . S
C1084 C1079 1.390 . S
C1084 C1083 1.387 . S
H1085 C1097 0.930 . S
H1086 C1099 0.930 . S
H1087 C1100 0.930 . S
H1088 C1104 0.959 . S
H1089 C1104 0.959 . S
H1090 C1104 0.961 . S
H1091 C1105 0.960 . S
H1092 C1105 0.961 . S
H1093 C1105 0.959 . S
H1094 C1108 0.929 . S
H1095 C1109 0.931 . S
H1096 C1111 0.930 . S
C1097 H1085 0.930 . S
C1097 C1098 1.399 . S
C1097 C1102 1.399 . S
C1098 C1097 1.399 . S
C1098 C1099 1.376 . S
C1099 H1086 0.930 . S
C1099 C1098 1.376 . S
C1099 C1100 1.388 . S
C1100 H1087 0.930 . S
C1100 C1099 1.388 . S
C1100 C1101 1.390 . S
C1101 C1100 1.390 . S
C1101 C1102 1.394 . S
C1101 C1107 1.465 . S
C1102 C1097 1.399 . S
C1102 C1101 1.394 . S
C1102 C1103 1.516 . S
C1103 C1102 1.516 . S
C1103 C1104 1.502 . S
C1103 C1105 1.561 . S
C1103 C1106 1.526 . S
C1104 H1088 0.959 . S
C1104 H1089 0.959 . S
C1104 H1090 0.961 . S
C1104 C1103 1.502 . S
C1105 H1091 0.960 . S
C1105 H1092 0.961 . S
C1105 H1093 0.959 . S
C1105 C1103 1.561 . S
C1106 C1103 1.526 . S
C1106 C1107 1.396 . S
C1106 C1111 1.390 . S
C1107 C1101 1.465 . S
C1107 C1106 1.396 . S
C1107 C1108 1.399 . S
C1108 H1094 0.929 . S
C1108 C1107 1.399 . S
C1108 C1109 1.385 . S
C1109 H1095 0.931 . S
C1109 C1108 1.385 . S
C1109 C1110 1.389 . S
C1110 C1109 1.389 . S
C1110 C1111 1.387 . S
C1111 H1096 0.930 . S
C1111 C1106 1.390 . S
C1111 C1110 1.387 . S
H1112 C1124 0.930 . S
H1113 C1126 0.930 . S
H1114 C1127 0.930 . S
H1115 C1131 0.959 . S
H1116 C1131 0.959 . S
H1117 C1131 0.961 . S
H1118 C1132 0.960 . S
H1119 C1132 0.961 . S
H1120 C1132 0.959 . S
H1121 C1135 0.929 . S
H1122 C1136 0.931 . S
H1123 C1138 0.930 . S
C1124 H1112 0.930 . S
C1124 C1125 1.399 . S
C1124 C1129 1.399 . S
C1125 C1124 1.399 . S
C1125 C1126 1.376 . S
C1126 H1113 0.930 . S
C1126 C1125 1.376 . S
C1126 C1127 1.388 . S
C1127 H1114 0.930 . S
C1127 C1126 1.388 . S
C1127 C1128 1.390 . S
C1128 C1127 1.390 . S
C1128 C1129 1.394 . S
C1128 C1134 1.465 . S
C1129 C1124 1.399 . S
C1129 C1128 1.394 . S
C1129 C1130 1.516 . S
C1130 C1129 1.516 . S
C1130 C1131 1.502 . S
C1130 C1132 1.561 . S
C1130 C1133 1.526 . S
C1131 H1115 0.959 . S
C1131 H1116 0.959 . S
C1131 H1117 0.961 . S
C1131 C1130 1.502 . S
C1132 H1118 0.960 . S
C1132 H1119 0.961 . S
C1132 H1120 0.959 . S
C1132 C1130 1.561 . S
C1133 C1130 1.526 . S
C1133 C1134 1.396 . S
C1133 C1138 1.390 . S
C1134 C1128 1.465 . S
C1134 C1133 1.396 . S
C1134 C1135 1.399 . S
C1135 H1121 0.929 . S
C1135 C1134 1.399 . S
C1135 C1136 1.385 . S
C1136 H1122 0.931 . S
C1136 C1135 1.385 . S
C1136 C1137 1.389 . S
C1137 C1136 1.389 . S
C1137 C1138 1.387 . S
C1138 H1123 0.930 . S
C1138 C1133 1.390 . S
C1138 C1137 1.387 . S
H1139 C1151 0.930 . S
H1140 C1153 0.930 . S
H1141 C1154 0.930 . S
H1142 C1158 0.959 . S
H1143 C1158 0.959 . S
H1144 C1158 0.961 . S
H1145 C1159 0.960 . S
H1146 C1159 0.961 . S
H1147 C1159 0.959 . S
H1148 C1162 0.929 . S
H1149 C1163 0.931 . S
H1150 C1165 0.930 . S
C1151 H1139 0.930 . S
C1151 C1152 1.399 . S
C1151 C1156 1.399 . S
C1152 C1151 1.399 . S
C1152 C1153 1.376 . S
C1153 H1140 0.930 . S
C1153 C1152 1.376 . S
C1153 C1154 1.388 . S
C1154 H1141 0.930 . S
C1154 C1153 1.388 . S
C1154 C1155 1.390 . S
C1155 C1154 1.390 . S
C1155 C1156 1.394 . S
C1155 C1161 1.465 . S
C1156 C1151 1.399 . S
C1156 C1155 1.394 . S
C1156 C1157 1.516 . S
C1157 C1156 1.516 . S
C1157 C1158 1.502 . S
C1157 C1159 1.561 . S
C1157 C1160 1.526 . S
C1158 H1142 0.959 . S
C1158 H1143 0.959 . S
C1158 H1144 0.961 . S
C1158 C1157 1.502 . S
C1159 H1145 0.960 . S
C1159 H1146 0.961 . S
C1159 H1147 0.959 . S
C1159 C1157 1.561 . S
C1160 C1157 1.526 . S
C1160 C1161 1.396 . S
C1160 C1165 1.390 . S
C1161 C1155 1.465 . S
C1161 C1160 1.396 . S
C1161 C1162 1.399 . S
C1162 H1148 0.929 . S
C1162 C1161 1.399 . S
C1162 C1163 1.385 . S
C1163 H1149 0.931 . S
C1163 C1162 1.385 . S
C1163 C1164 1.389 . S
C1164 C1163 1.389 . S
C1164 C1165 1.387 . S
C1165 H1150 0.930 . S
C1165 C1160 1.390 . S
C1165 C1164 1.387 . S
H1166 C1178 0.930 . S
H1167 C1180 0.930 . S
H1168 C1181 0.930 . S
H1169 C1185 0.959 . S
H1170 C1185 0.959 . S
H1171 C1185 0.961 . S
H1172 C1186 0.960 . S
H1173 C1186 0.961 . S
H1174 C1186 0.959 . S
H1175 C1189 0.929 . S
H1176 C1190 0.931 . S
H1177 C1192 0.930 . S
C1178 H1166 0.930 . S
C1178 C1179 1.399 . S
C1178 C1183 1.399 . S
C1179 C1178 1.399 . S
C1179 C1180 1.376 . S
C1180 H1167 0.930 . S
C1180 C1179 1.376 . S
C1180 C1181 1.388 . S
C1181 H1168 0.930 . S
C1181 C1180 1.388 . S
C1181 C1182 1.390 . S
C1182 C1181 1.390 . S
C1182 C1183 1.394 . S
C1182 C1188 1.465 . S
C1183 C1178 1.399 . S
C1183 C1182 1.394 . S
C1183 C1184 1.516 . S
C1184 C1183 1.516 . S
C1184 C1185 1.502 . S
C1184 C1186 1.561 . S
C1184 C1187 1.526 . S
C1185 H1169 0.959 . S
C1185 H1170 0.959 . S
C1185 H1171 0.961 . S
C1185 C1184 1.502 . S
C1186 H1172 0.960 . S
C1186 H1173 0.961 . S
C1186 H1174 0.959 . S
C1186 C1184 1.561 . S
C1187 C1184 1.526 . S
C1187 C1188 1.396 . S
C1187 C1192 1.390 . S
C1188 C1182 1.465 . S
C1188 C1187 1.396 . S
C1188 C1189 1.399 . S
C1189 H1175 0.929 . S
C1189 C1188 1.399 . S
C1189 C1190 1.385 . S
C1190 H1176 0.931 . S
C1190 C1189 1.385 . S
C1190 C1191 1.389 . S
C1191 C1190 1.389 . S
C1191 C1192 1.387 . S
C1192 H1177 0.930 . S
C1192 C1187 1.390 . S
C1192 C1191 1.387 . S
H1193 C1205 0.930 . S
H1194 C1207 0.930 . S
H1195 C1208 0.930 . S
H1196 C1212 0.959 . S
H1197 C1212 0.959 . S
H1198 C1212 0.961 . S
H1199 C1213 0.960 . S
H1200 C1213 0.961 . S
H1201 C1213 0.959 . S
H1202 C1216 0.929 . S
H1203 C1217 0.931 . S
H1204 C1219 0.930 . S
C1205 H1193 0.930 . S
C1205 C1206 1.399 . S
C1205 C1210 1.399 . S
C1206 C1205 1.399 . S
C1206 C1207 1.376 . S
C1207 H1194 0.930 . S
C1207 C1206 1.376 . S
C1207 C1208 1.388 . S
C1208 H1195 0.930 . S
C1208 C1207 1.388 . S
C1208 C1209 1.390 . S
C1209 C1208 1.390 . S
C1209 C1210 1.394 . S
C1209 C1215 1.465 . S
C1210 C1205 1.399 . S
C1210 C1209 1.394 . S
C1210 C1211 1.516 . S
C1211 C1210 1.516 . S
C1211 C1212 1.502 . S
C1211 C1213 1.561 . S
C1211 C1214 1.526 . S
C1212 H1196 0.959 . S
C1212 H1197 0.959 . S
C1212 H1198 0.961 . S
C1212 C1211 1.502 . S
C1213 H1199 0.960 . S
C1213 H1200 0.961 . S
C1213 H1201 0.959 . S
C1213 C1211 1.561 . S
C1214 C1211 1.526 . S
C1214 C1215 1.396 . S
C1214 C1219 1.390 . S
C1215 C1209 1.465 . S
C1215 C1214 1.396 . S
C1215 C1216 1.399 . S
C1216 H1202 0.929 . S
C1216 C1215 1.399 . S
C1216 C1217 1.385 . S
C1217 H1203 0.931 . S
C1217 C1216 1.385 . S
C1217 C1218 1.389 . S
C1218 C1217 1.389 . S
C1218 C1219 1.387 . S
C1219 H1204 0.930 . S
C1219 C1214 1.390 . S
C1219 C1218 1.387 . S
H1220 C1232 0.930 . S
H1221 C1234 0.930 . S
H1222 C1235 0.930 . S
H1223 C1239 0.959 . S
H1224 C1239 0.959 . S
H1225 C1239 0.961 . S
H1226 C1240 0.960 . S
H1227 C1240 0.961 . S
H1228 C1240 0.959 . S
H1229 C1243 0.929 . S
H1230 C1244 0.931 . S
H1231 C1246 0.930 . S
C1232 H1220 0.930 . S
C1232 C1233 1.399 . S
C1232 C1237 1.399 . S
C1233 C1232 1.399 . S
C1233 C1234 1.376 . S
C1234 H1221 0.930 . S
C1234 C1233 1.376 . S
C1234 C1235 1.388 . S
C1235 H1222 0.930 . S
C1235 C1234 1.388 . S
C1235 C1236 1.390 . S
C1236 C1235 1.390 . S
C1236 C1237 1.394 . S
C1236 C1242 1.465 . S
C1237 C1232 1.399 . S
C1237 C1236 1.394 . S
C1237 C1238 1.516 . S
C1238 C1237 1.516 . S
C1238 C1239 1.502 . S
C1238 C1240 1.561 . S
C1238 C1241 1.526 . S
C1239 H1223 0.959 . S
C1239 H1224 0.959 . S
C1239 H1225 0.961 . S
C1239 C1238 1.502 . S
C1240 H1226 0.960 . S
C1240 H1227 0.961 . S
C1240 H1228 0.959 . S
C1240 C1238 1.561 . S
C1241 C1238 1.526 . S
C1241 C1242 1.396 . S
C1241 C1246 1.390 . S
C1242 C1236 1.465 . S
C1242 C1241 1.396 . S
C1242 C1243 1.399 . S
C1243 H1229 0.929 . S
C1243 C1242 1.399 . S
C1243 C1244 1.385 . S
C1244 H1230 0.931 . S
C1244 C1243 1.385 . S
C1244 C1245 1.389 . S
C1245 C1244 1.389 . S
C1245 C1246 1.387 . S
C1246 H1231 0.930 . S
C1246 C1241 1.390 . S
C1246 C1245 1.387 . S
H1247 C1259 0.930 . S
H1248 C1261 0.930 . S
H1249 C1262 0.930 . S
H1250 C1266 0.959 . S
H1251 C1266 0.959 . S
H1252 C1266 0.961 . S
H1253 C1267 0.960 . S
H1254 C1267 0.961 . S
H1255 C1267 0.959 . S
H1256 C1270 0.929 . S
H1257 C1271 0.931 . S
H1258 C1273 0.930 . S
C1259 H1247 0.930 . S
C1259 C1260 1.399 . S
C1259 C1264 1.399 . S
C1260 C1259 1.399 . S
C1260 C1261 1.376 . S
C1261 H1248 0.930 . S
C1261 C1260 1.376 . S
C1261 C1262 1.388 . S
C1262 H1249 0.930 . S
C1262 C1261 1.388 . S
C1262 C1263 1.390 . S
C1263 C1262 1.390 . S
C1263 C1264 1.394 . S
C1263 C1269 1.465 . S
C1264 C1259 1.399 . S
C1264 C1263 1.394 . S
C1264 C1265 1.516 . S
C1265 C1264 1.516 . S
C1265 C1266 1.502 . S
C1265 C1267 1.561 . S
C1265 C1268 1.526 . S
C1266 H1250 0.959 . S
C1266 H1251 0.959 . S
C1266 H1252 0.961 . S
C1266 C1265 1.502 . S
C1267 H1253 0.960 . S
C1267 H1254 0.961 . S
C1267 H1255 0.959 . S
C1267 C1265 1.561 . S
C1268 C1265 1.526 . S
C1268 C1269 1.396 . S
C1268 C1273 1.390 . S
C1269 C1263 1.465 . S
C1269 C1268 1.396 . S
C1269 C1270 1.399 . S
C1270 H1256 0.929 . S
C1270 C1269 1.399 . S
C1270 C1271 1.385 . S
C1271 H1257 0.931 . S
C1271 C1270 1.385 . S
C1271 C1272 1.389 . S
C1272 C1271 1.389 . S
C1272 C1273 1.387 . S
C1273 H1258 0.930 . S
C1273 C1268 1.390 . S
C1273 C1272 1.387 . S
H1274 C1286 0.930 . S
H1275 C1288 0.930 . S
H1276 C1289 0.930 . S
H1277 C1293 0.959 . S
H1278 C1293 0.959 . S
H1279 C1293 0.961 . S
H1280 C1294 0.960 . S
H1281 C1294 0.961 . S
H1282 C1294 0.959 . S
H1283 C1297 0.929 . S
H1284 C1298 0.931 . S
H1285 C1300 0.930 . S
C1286 H1274 0.930 . S
C1286 C1287 1.399 . S
C1286 C1291 1.399 . S
C1287 C1286 1.399 . S
C1287 C1288 1.376 . S
C1288 H1275 0.930 . S
C1288 C1287 1.376 . S
C1288 C1289 1.388 . S
C1289 H1276 0.930 . S
C1289 C1288 1.388 . S
C1289 C1290 1.390 . S
C1290 C1289 1.390 . S
C1290 C1291 1.394 . S
C1290 C1296 1.465 . S
C1291 C1286 1.399 . S
C1291 C1290 1.394 . S
C1291 C1292 1.516 . S
C1292 C1291 1.516 . S
C1292 C1293 1.502 . S
C1292 C1294 1.561 . S
C1292 C1295 1.526 . S
C1293 H1277 0.959 . S
C1293 H1278 0.959 . S
C1293 H1279 0.961 . S
C1293 C1292 1.502 . S
C1294 H1280 0.960 . S
C1294 H1281 0.961 . S
C1294 H1282 0.959 . S
C1294 C1292 1.561 . S
C1295 C1292 1.526 . S
C1295 C1296 1.396 . S
C1295 C1300 1.390 . S
C1296 C1290 1.465 . S
C1296 C1295 1.396 . S
C1296 C1297 1.399 . S
C1297 H1283 0.929 . S
C1297 C1296 1.399 . S
C1297 C1298 1.385 . S
C1298 H1284 0.931 . S
C1298 C1297 1.385 . S
C1298 C1299 1.389 . S
C1299 C1298 1.389 . S
C1299 C1300 1.387 . S
C1300 H1285 0.930 . S
C1300 C1295 1.390 . S
C1300 C1299 1.387 . S
H1301 C1313 0.930 . S
H1302 C1315 0.930 . S
H1303 C1316 0.930 . S
H1304 C1320 0.959 . S
H1305 C1320 0.959 . S
H1306 C1320 0.961 . S
H1307 C1321 0.960 . S
H1308 C1321 0.961 . S
H1309 C1321 0.959 . S
H1310 C1324 0.929 . S
H1311 C1325 0.931 . S
H1312 C1327 0.930 . S
C1313 H1301 0.930 . S
C1313 C1314 1.399 . S
C1313 C1318 1.399 . S
C1314 C1313 1.399 . S
C1314 C1315 1.376 . S
C1315 H1302 0.930 . S
C1315 C1314 1.376 . S
C1315 C1316 1.388 . S
C1316 H1303 0.930 . S
C1316 C1315 1.388 . S
C1316 C1317 1.390 . S
C1317 C1316 1.390 . S
C1317 C1318 1.394 . S
C1317 C1323 1.465 . S
C1318 C1313 1.399 . S
C1318 C1317 1.394 . S
C1318 C1319 1.516 . S
C1319 C1318 1.516 . S
C1319 C1320 1.502 . S
C1319 C1321 1.561 . S
C1319 C1322 1.526 . S
C1320 H1304 0.959 . S
C1320 H1305 0.959 . S
C1320 H1306 0.961 . S
C1320 C1319 1.502 . S
C1321 H1307 0.960 . S
C1321 H1308 0.961 . S
C1321 H1309 0.959 . S
C1321 C1319 1.561 . S
C1322 C1319 1.526 . S
C1322 C1323 1.396 . S
C1322 C1327 1.390 . S
C1323 C1317 1.465 . S
C1323 C1322 1.396 . S
C1323 C1324 1.399 . S
C1324 H1310 0.929 . S
C1324 C1323 1.399 . S
C1324 C1325 1.385 . S
C1325 H1311 0.931 . S
C1325 C1324 1.385 . S
C1325 C1326 1.389 . S
C1326 C1325 1.389 . S
C1326 C1327 1.387 . S
C1327 H1312 0.930 . S
C1327 C1322 1.390 . S
C1327 C1326 1.387 . S
H1328 C1340 0.930 . S
H1329 C1342 0.930 . S
H1330 C1343 0.930 . S
H1331 C1347 0.959 . S
H1332 C1347 0.959 . S
H1333 C1347 0.961 . S
H1334 C1348 0.960 . S
H1335 C1348 0.961 . S
H1336 C1348 0.959 . S
H1337 C1351 0.929 . S
H1338 C1352 0.931 . S
H1339 C1354 0.930 . S
C1340 H1328 0.930 . S
C1340 C1341 1.399 . S
C1340 C1345 1.399 . S
C1341 C1340 1.399 . S
C1341 C1342 1.376 . S
C1342 H1329 0.930 . S
C1342 C1341 1.376 . S
C1342 C1343 1.388 . S
C1343 H1330 0.930 . S
C1343 C1342 1.388 . S
C1343 C1344 1.390 . S
C1344 C1343 1.390 . S
C1344 C1345 1.394 . S
C1344 C1350 1.465 . S
C1345 C1340 1.399 . S
C1345 C1344 1.394 . S
C1345 C1346 1.516 . S
C1346 C1345 1.516 . S
C1346 C1347 1.502 . S
C1346 C1348 1.561 . S
C1346 C1349 1.526 . S
C1347 H1331 0.959 . S
C1347 H1332 0.959 . S
C1347 H1333 0.961 . S
C1347 C1346 1.502 . S
C1348 H1334 0.960 . S
C1348 H1335 0.961 . S
C1348 H1336 0.959 . S
C1348 C1346 1.561 . S
C1349 C1346 1.526 . S
C1349 C1350 1.396 . S
C1349 C1354 1.390 . S
C1350 C1344 1.465 . S
C1350 C1349 1.396 . S
C1350 C1351 1.399 . S
C1351 H1337 0.929 . S
C1351 C1350 1.399 . S
C1351 C1352 1.385 . S
C1352 H1338 0.931 . S
C1352 C1351 1.385 . S
C1352 C1353 1.389 . S
C1353 C1352 1.389 . S
C1353 C1354 1.387 . S
C1354 H1339 0.930 . S
C1354 C1349 1.390 . S
C1354 C1353 1.387 . S
H1355 C1367 0.930 . S
H1356 C1369 0.930 . S
H1357 C1370 0.930 . S
H1358 C1374 0.959 . S
H1359 C1374 0.959 . S
H1360 C1374 0.961 . S
H1361 C1375 0.960 . S
H1362 C1375 0.961 . S
H1363 C1375 0.959 . S
H1364 C1378 0.929 . S
H1365 C1379 0.931 . S
H1366 C1381 0.930 . S
C1367 H1355 0.930 . S
C1367 C1368 1.399 . S
C1367 C1372 1.399 . S
C1368 C1367 1.399 . S
C1368 C1369 1.376 . S
C1369 H1356 0.930 . S
C1369 C1368 1.376 . S
C1369 C1370 1.388 . S
C1370 H1357 0.930 . S
C1370 C1369 1.388 . S
C1370 C1371 1.390 . S
C1371 C1370 1.390 . S
C1371 C1372 1.394 . S
C1371 C1377 1.465 . S
C1372 C1367 1.399 . S
C1372 C1371 1.394 . S
C1372 C1373 1.516 . S
C1373 C1372 1.516 . S
C1373 C1374 1.502 . S
C1373 C1375 1.561 . S
C1373 C1376 1.526 . S
C1374 H1358 0.959 . S
C1374 H1359 0.959 . S
C1374 H1360 0.961 . S
C1374 C1373 1.502 . S
C1375 H1361 0.960 . S
C1375 H1362 0.961 . S
C1375 H1363 0.959 . S
C1375 C1373 1.561 . S
C1376 C1373 1.526 . S
C1376 C1377 1.396 . S
C1376 C1381 1.390 . S
C1377 C1371 1.465 . S
C1377 C1376 1.396 . S
C1377 C1378 1.399 . S
C1378 H1364 0.929 . S
C1378 C1377 1.399 . S
C1378 C1379 1.385 . S
C1379 H1365 0.931 . S
C1379 C1378 1.385 . S
C1379 C1380 1.389 . S
C1380 C1379 1.389 . S
C1380 C1381 1.387 . S
C1381 H1366 0.930 . S
C1381 C1376 1.390 . S
C1381 C1380 1.387 . S
H1382 C1394 0.930 . S
H1383 C1396 0.930 . S
H1384 C1397 0.930 . S
H1385 C1401 0.959 . S
H1386 C1401 0.959 . S
H1387 C1401 0.961 . S
H1388 C1402 0.960 . S
H1389 C1402 0.961 . S
H1390 C1402 0.959 . S
H1391 C1405 0.929 . S
H1392 C1406 0.931 . S
H1393 C1408 0.930 . S
C1394 H1382 0.930 . S
C1394 C1395 1.399 . S
C1394 C1399 1.399 . S
C1395 C1394 1.399 . S
C1395 C1396 1.376 . S
C1396 H1383 0.930 . S
C1396 C1395 1.376 . S
C1396 C1397 1.388 . S
C1397 H1384 0.930 . S
C1397 C1396 1.388 . S
C1397 C1398 1.390 . S
C1398 C1397 1.390 . S
C1398 C1399 1.394 . S
C1398 C1404 1.465 . S
C1399 C1394 1.399 . S
C1399 C1398 1.394 . S
C1399 C1400 1.516 . S
C1400 C1399 1.516 . S
C1400 C1401 1.502 . S
C1400 C1402 1.561 . S
C1400 C1403 1.526 . S
C1401 H1385 0.959 . S
C1401 H1386 0.959 . S
C1401 H1387 0.961 . S
C1401 C1400 1.502 . S
C1402 H1388 0.960 . S
C1402 H1389 0.961 . S
C1402 H1390 0.959 . S
C1402 C1400 1.561 . S
C1403 C1400 1.526 . S
C1403 C1404 1.396 . S
C1403 C1408 1.390 . S
C1404 C1398 1.465 . S
C1404 C1403 1.396 . S
C1404 C1405 1.399 . S
C1405 H1391 0.929 . S
C1405 C1404 1.399 . S
C1405 C1406 1.385 . S
C1406 H1392 0.931 . S
C1406 C1405 1.385 . S
C1406 C1407 1.389 . S
C1407 C1406 1.389 . S
C1407 C1408 1.387 . S
C1408 H1393 0.930 . S
C1408 C1403 1.390 . S
C1408 C1407 1.387 . S
H1409 C1421 0.930 . S
H1410 C1423 0.930 . S
H1411 C1424 0.930 . S
H1412 C1428 0.959 . S
H1413 C1428 0.959 . S
H1414 C1428 0.961 . S
H1415 C1429 0.960 . S
H1416 C1429 0.961 . S
H1417 C1429 0.959 . S
H1418 C1432 0.929 . S
H1419 C1433 0.931 . S
H1420 C1435 0.930 . S
C1421 H1409 0.930 . S
C1421 C1422 1.399 . S
C1421 C1426 1.399 . S
C1422 C1421 1.399 . S
C1422 C1423 1.376 . S
C1423 H1410 0.930 . S
C1423 C1422 1.376 . S
C1423 C1424 1.388 . S
C1424 H1411 0.930 . S
C1424 C1423 1.388 . S
C1424 C1425 1.390 . S
C1425 C1424 1.390 . S
C1425 C1426 1.394 . S
C1425 C1431 1.465 . S
C1426 C1421 1.399 . S
C1426 C1425 1.394 . S
C1426 C1427 1.516 . S
C1427 C1426 1.516 . S
C1427 C1428 1.502 . S
C1427 C1429 1.561 . S
C1427 C1430 1.526 . S
C1428 H1412 0.959 . S
C1428 H1413 0.959 . S
C1428 H1414 0.961 . S
C1428 C1427 1.502 . S
C1429 H1415 0.960 . S
C1429 H1416 0.961 . S
C1429 H1417 0.959 . S
C1429 C1427 1.561 . S
C1430 C1427 1.526 . S
C1430 C1431 1.396 . S
C1430 C1435 1.390 . S
C1431 C1425 1.465 . S
C1431 C1430 1.396 . S
C1431 C1432 1.399 . S
C1432 H1418 0.929 . S
C1432 C1431 1.399 . S
C1432 C1433 1.385 . S
C1433 H1419 0.931 . S
C1433 C1432 1.385 . S
C1433 C1434 1.389 . S
C1434 C1433 1.389 . S
C1434 C1435 1.387 . S
C1435 H1420 0.930 . S
C1435 C1430 1.390 . S
C1435 C1434 1.387 . S
H1436 C1448 0.930 . S
H1437 C1450 0.930 . S
H1438 C1451 0.930 . S
H1439 C1455 0.959 . S
H1440 C1455 0.959 . S
H1441 C1455 0.961 . S
H1442 C1456 0.960 . S
H1443 C1456 0.961 . S
H1444 C1456 0.959 . S
H1445 C1459 0.929 . S
H1446 C1460 0.931 . S
H1447 C1462 0.930 . S
C1448 H1436 0.930 . S
C1448 C1449 1.399 . S
C1448 C1453 1.399 . S
C1449 C1448 1.399 . S
C1449 C1450 1.376 . S
C1450 H1437 0.930 . S
C1450 C1449 1.376 . S
C1450 C1451 1.388 . S
C1451 H1438 0.930 . S
C1451 C1450 1.388 . S
C1451 C1452 1.390 . S
C1452 C1451 1.390 . S
C1452 C1453 1.394 . S
C1452 C1458 1.465 . S
C1453 C1448 1.399 . S
C1453 C1452 1.394 . S
C1453 C1454 1.516 . S
C1454 C1453 1.516 . S
C1454 C1455 1.502 . S
C1454 C1456 1.561 . S
C1454 C1457 1.526 . S
C1455 H1439 0.959 . S
C1455 H1440 0.959 . S
C1455 H1441 0.961 . S
C1455 C1454 1.502 . S
C1456 H1442 0.960 . S
C1456 H1443 0.961 . S
C1456 H1444 0.959 . S
C1456 C1454 1.561 . S
C1457 C1454 1.526 . S
C1457 C1458 1.396 . S
C1457 C1462 1.390 . S
C1458 C1452 1.465 . S
C1458 C1457 1.396 . S
C1458 C1459 1.399 . S
C1459 H1445 0.929 . S
C1459 C1458 1.399 . S
C1459 C1460 1.385 . S
C1460 H1446 0.931 . S
C1460 C1459 1.385 . S
C1460 C1461 1.389 . S
C1461 C1460 1.389 . S
C1461 C1462 1.387 . S
C1462 H1447 0.930 . S
C1462 C1457 1.390 . S
C1462 C1461 1.387 . S
H1463 C1475 0.930 . S
H1464 C1477 0.930 . S
H1465 C1478 0.930 . S
H1466 C1482 0.959 . S
H1467 C1482 0.959 . S
H1468 C1482 0.961 . S
H1469 C1483 0.960 . S
H1470 C1483 0.961 . S
H1471 C1483 0.959 . S
H1472 C1486 0.929 . S
H1473 C1487 0.931 . S
H1474 C1489 0.930 . S
C1475 H1463 0.930 . S
C1475 C1476 1.399 . S
C1475 C1480 1.399 . S
C1476 C1475 1.399 . S
C1476 C1477 1.376 . S
C1477 H1464 0.930 . S
C1477 C1476 1.376 . S
C1477 C1478 1.388 . S
C1478 H1465 0.930 . S
C1478 C1477 1.388 . S
C1478 C1479 1.390 . S
C1479 C1478 1.390 . S
C1479 C1480 1.394 . S
C1479 C1485 1.465 . S
C1480 C1475 1.399 . S
C1480 C1479 1.394 . S
C1480 C1481 1.516 . S
C1481 C1480 1.516 . S
C1481 C1482 1.502 . S
C1481 C1483 1.561 . S
C1481 C1484 1.526 . S
C1482 H1466 0.959 . S
C1482 H1467 0.959 . S
C1482 H1468 0.961 . S
C1482 C1481 1.502 . S
C1483 H1469 0.960 . S
C1483 H1470 0.961 . S
C1483 H1471 0.959 . S
C1483 C1481 1.561 . S
C1484 C1481 1.526 . S
C1484 C1485 1.396 . S
C1484 C1489 1.390 . S
C1485 C1479 1.465 . S
C1485 C1484 1.396 . S
C1485 C1486 1.399 . S
C1486 H1472 0.929 . S
C1486 C1485 1.399 . S
C1486 C1487 1.385 . S
C1487 H1473 0.931 . S
C1487 C1486 1.385 . S
C1487 C1488 1.389 . S
C1488 C1487 1.389 . S
C1488 C1489 1.387 . S
C1489 H1474 0.930 . S
C1489 C1484 1.390 . S
C1489 C1488 1.387 . S
H1490 C1502 0.930 . S
H1491 C1504 0.930 . S
H1492 C1505 0.930 . S
H1493 C1509 0.959 . S
H1494 C1509 0.959 . S
H1495 C1509 0.961 . S
H1496 C1510 0.960 . S
H1497 C1510 0.961 . S
H1498 C1510 0.959 . S
H1499 C1513 0.929 . S
H1500 C1514 0.931 . S
H1501 C1516 0.930 . S
C1502 H1490 0.930 . S
C1502 C1503 1.399 . S
C1502 C1507 1.399 . S
C1503 C1502 1.399 . S
C1503 C1504 1.376 . S
C1504 H1491 0.930 . S
C1504 C1503 1.376 . S
C1504 C1505 1.388 . S
C1505 H1492 0.930 . S
C1505 C1504 1.388 . S
C1505 C1506 1.390 . S
C1506 C1505 1.390 . S
C1506 C1507 1.394 . S
C1506 C1512 1.465 . S
C1507 C1502 1.399 . S
C1507 C1506 1.394 . S
C1507 C1508 1.516 . S
C1508 C1507 1.516 . S
C1508 C1509 1.502 . S
C1508 C1510 1.561 . S
C1508 C1511 1.526 . S
C1509 H1493 0.959 . S
C1509 H1494 0.959 . S
C1509 H1495 0.961 . S
C1509 C1508 1.502 . S
C1510 H1496 0.960 . S
C1510 H1497 0.961 . S
C1510 H1498 0.959 . S
C1510 C1508 1.561 . S
C1511 C1508 1.526 . S
C1511 C1512 1.396 . S
C1511 C1516 1.390 . S
C1512 C1506 1.465 . S
C1512 C1511 1.396 . S
C1512 C1513 1.399 . S
C1513 H1499 0.929 . S
C1513 C1512 1.399 . S
C1513 C1514 1.385 . S
C1514 H1500 0.931 . S
C1514 C1513 1.385 . S
C1514 C1515 1.389 . S
C1515 C1514 1.389 . S
C1515 C1516 1.387 . S
C1516 H1501 0.930 . S
C1516 C1511 1.390 . S
C1516 C1515 1.387 . S
H1517 C1529 0.930 . S
H1518 C1531 0.930 . S
H1519 C1532 0.930 . S
H1520 C1536 0.959 . S
H1521 C1536 0.959 . S
H1522 C1536 0.961 . S
H1523 C1537 0.960 . S
H1524 C1537 0.961 . S
H1525 C1537 0.959 . S
H1526 C1540 0.929 . S
H1527 C1541 0.931 . S
H1528 C1543 0.930 . S
C1529 H1517 0.930 . S
C1529 C1530 1.399 . S
C1529 C1534 1.399 . S
C1530 C1529 1.399 . S
C1530 C1531 1.376 . S
C1531 H1518 0.930 . S
C1531 C1530 1.376 . S
C1531 C1532 1.388 . S
C1532 H1519 0.930 . S
C1532 C1531 1.388 . S
C1532 C1533 1.390 . S
C1533 C1532 1.390 . S
C1533 C1534 1.394 . S
C1533 C1539 1.465 . S
C1534 C1529 1.399 . S
C1534 C1533 1.394 . S
C1534 C1535 1.516 . S
C1535 C1534 1.516 . S
C1535 C1536 1.502 . S
C1535 C1537 1.561 . S
C1535 C1538 1.526 . S
C1536 H1520 0.959 . S
C1536 H1521 0.959 . S
C1536 H1522 0.961 . S
C1536 C1535 1.502 . S
C1537 H1523 0.960 . S
C1537 H1524 0.961 . S
C1537 H1525 0.959 . S
C1537 C1535 1.561 . S
C1538 C1535 1.526 . S
C1538 C1539 1.396 . S
C1538 C1543 1.390 . S
C1539 C1533 1.465 . S
C1539 C1538 1.396 . S
C1539 C1540 1.399 . S
C1540 H1526 0.929 . S
C1540 C1539 1.399 . S
C1540 C1541 1.385 . S
C1541 H1527 0.931 . S
C1541 C1540 1.385 . S
C1541 C1542 1.389 . S
C1542 C1541 1.389 . S
C1542 C1543 1.387 . S
C1543 H1528 0.930 . S
C1543 C1538 1.390 . S
C1543 C1542 1.387 . S
H1544 C1556 0.930 . S
H1545 C1558 0.930 . S
H1546 C1559 0.930 . S
H1547 C1563 0.959 . S
H1548 C1563 0.959 . S
H1549 C1563 0.961 . S
H1550 C1564 0.960 . S
H1551 C1564 0.961 . S
H1552 C1564 0.959 . S
H1553 C1567 0.929 . S
H1554 C1568 0.931 . S
H1555 C1570 0.930 . S
C1556 H1544 0.930 . S
C1556 C1557 1.399 . S
C1556 C1561 1.399 . S
C1557 C1556 1.399 . S
C1557 C1558 1.376 . S
C1558 H1545 0.930 . S
C1558 C1557 1.376 . S
C1558 C1559 1.388 . S
C1559 H1546 0.930 . S
C1559 C1558 1.388 . S
C1559 C1560 1.390 . S
C1560 C1559 1.390 . S
C1560 C1561 1.394 . S
C1560 C1566 1.465 . S
C1561 C1556 1.399 . S
C1561 C1560 1.394 . S
C1561 C1562 1.516 . S
C1562 C1561 1.516 . S
C1562 C1563 1.502 . S
C1562 C1564 1.561 . S
C1562 C1565 1.526 . S
C1563 H1547 0.959 . S
C1563 H1548 0.959 . S
C1563 H1549 0.961 . S
C1563 C1562 1.502 . S
C1564 H1550 0.960 . S
C1564 H1551 0.961 . S
C1564 H1552 0.959 . S
C1564 C1562 1.561 . S
C1565 C1562 1.526 . S
C1565 C1566 1.396 . S
C1565 C1570 1.390 . S
C1566 C1560 1.465 . S
C1566 C1565 1.396 . S
C1566 C1567 1.399 . S
C1567 H1553 0.929 . S
C1567 C1566 1.399 . S
C1567 C1568 1.385 . S
C1568 H1554 0.931 . S
C1568 C1567 1.385 . S
C1568 C1569 1.389 . S
C1569 C1568 1.389 . S
C1569 C1570 1.387 . S
C1570 H1555 0.930 . S
C1570 C1565 1.390 . S
C1570 C1569 1.387 . S
H1571 C1583 0.930 . S
H1572 C1585 0.930 . S
H1573 C1586 0.930 . S
H1574 C1590 0.959 . S
H1575 C1590 0.959 . S
H1576 C1590 0.961 . S
H1577 C1591 0.960 . S
H1578 C1591 0.961 . S
H1579 C1591 0.959 . S
H1580 C1594 0.929 . S
H1581 C1595 0.931 . S
H1582 C1597 0.930 . S
C1583 H1571 0.930 . S
C1583 C1584 1.399 . S
C1583 C1588 1.399 . S
C1584 C1583 1.399 . S
C1584 C1585 1.376 . S
C1585 H1572 0.930 . S
C1585 C1584 1.376 . S
C1585 C1586 1.388 . S
C1586 H1573 0.930 . S
C1586 C1585 1.388 . S
C1586 C1587 1.390 . S
C1587 C1586 1.390 . S
C1587 C1588 1.394 . S
C1587 C1593 1.465 . S
C1588 C1583 1.399 . S
C1588 C1587 1.394 . S
C1588 C1589 1.516 . S
C1589 C1588 1.516 . S
C1589 C1590 1.502 . S
C1589 C1591 1.561 . S
C1589 C1592 1.526 . S
C1590 H1574 0.959 . S
C1590 H1575 0.959 . S
C1590 H1576 0.961 . S
C1590 C1589 1.502 . S
C1591 H1577 0.960 . S
C1591 H1578 0.961 . S
C1591 H1579 0.959 . S
C1591 C1589 1.561 . S
C1592 C1589 1.526 . S
C1592 C1593 1.396 . S
C1592 C1597 1.390 . S
C1593 C1587 1.465 . S
C1593 C1592 1.396 . S
C1593 C1594 1.399 . S
C1594 H1580 0.929 . S
C1594 C1593 1.399 . S
C1594 C1595 1.385 . S
C1595 H1581 0.931 . S
C1595 C1594 1.385 . S
C1595 C1596 1.389 . S
C1596 C1595 1.389 . S
C1596 C1597 1.387 . S
C1597 H1582 0.930 . S
C1597 C1592 1.390 . S
C1597 C1596 1.387 . S
H1598 C1610 0.930 . S
H1599 C1612 0.930 . S
H1600 C1613 0.930 . S
H1601 C1617 0.959 . S
H1602 C1617 0.959 . S
H1603 C1617 0.961 . S
H1604 C1618 0.960 . S
H1605 C1618 0.961 . S
H1606 C1618 0.959 . S
H1607 C1621 0.929 . S
H1608 C1622 0.931 . S
H1609 C1624 0.930 . S
C1610 H1598 0.930 . S
C1610 C1611 1.399 . S
C1610 C1615 1.399 . S
C1611 C1610 1.399 . S
C1611 C1612 1.376 . S
C1612 H1599 0.930 . S
C1612 C1611 1.376 . S
C1612 C1613 1.388 . S
C1613 H1600 0.930 . S
C1613 C1612 1.388 . S
C1613 C1614 1.390 . S
C1614 C1613 1.390 . S
C1614 C1615 1.394 . S
C1614 C1620 1.465 . S
C1615 C1610 1.399 . S
C1615 C1614 1.394 . S
C1615 C1616 1.516 . S
C1616 C1615 1.516 . S
C1616 C1617 1.502 . S
C1616 C1618 1.561 . S
C1616 C1619 1.526 . S
C1617 H1601 0.959 . S
C1617 H1602 0.959 . S
C1617 H1603 0.961 . S
C1617 C1616 1.502 . S
C1618 H1604 0.960 . S
C1618 H1605 0.961 . S
C1618 H1606 0.959 . S
C1618 C1616 1.561 . S
C1619 C1616 1.526 . S
C1619 C1620 1.396 . S
C1619 C1624 1.390 . S
C1620 C1614 1.465 . S
C1620 C1619 1.396 . S
C1620 C1621 1.399 . S
C1621 H1607 0.929 . S
C1621 C1620 1.399 . S
C1621 C1622 1.385 . S
C1622 H1608 0.931 . S
C1622 C1621 1.385 . S
C1622 C1623 1.389 . S
C1623 C1622 1.389 . S
C1623 C1624 1.387 . S
C1624 H1609 0.930 . S
C1624 C1619 1.390 . S
C1624 C1623 1.387 . S
H1625 C1637 0.930 . S
H1626 C1639 0.930 . S
H1627 C1640 0.930 . S
H1628 C1644 0.959 . S
H1629 C1644 0.959 . S
H1630 C1644 0.961 . S
H1631 C1645 0.960 . S
H1632 C1645 0.961 . S
H1633 C1645 0.959 . S
H1634 C1648 0.929 . S
H1635 C1649 0.931 . S
H1636 C1651 0.930 . S
C1637 H1625 0.930 . S
C1637 C1638 1.399 . S
C1637 C1642 1.399 . S
C1638 C1637 1.399 . S
C1638 C1639 1.376 . S
C1639 H1626 0.930 . S
C1639 C1638 1.376 . S
C1639 C1640 1.388 . S
C1640 H1627 0.930 . S
C1640 C1639 1.388 . S
C1640 C1641 1.390 . S
C1641 C1640 1.390 . S
C1641 C1642 1.394 . S
C1641 C1647 1.465 . S
C1642 C1637 1.399 . S
C1642 C1641 1.394 . S
C1642 C1643 1.516 . S
C1643 C1642 1.516 . S
C1643 C1644 1.502 . S
C1643 C1645 1.561 . S
C1643 C1646 1.526 . S
C1644 H1628 0.959 . S
C1644 H1629 0.959 . S
C1644 H1630 0.961 . S
C1644 C1643 1.502 . S
C1645 H1631 0.960 . S
C1645 H1632 0.961 . S
C1645 H1633 0.959 . S
C1645 C1643 1.561 . S
C1646 C1643 1.526 . S
C1646 C1647 1.396 . S
C1646 C1651 1.390 . S
C1647 C1641 1.465 . S
C1647 C1646 1.396 . S
C1647 C1648 1.399 . S
C1648 H1634 0.929 . S
C1648 C1647 1.399 . S
C1648 C1649 1.385 . S
C1649 H1635 0.931 . S
C1649 C1648 1.385 . S
C1649 C1650 1.389 . S
C1650 C1649 1.389 . S
C1650 C1651 1.387 . S
C1651 H1636 0.930 . S
C1651 C1646 1.390 . S
C1651 C1650 1.387 . S
H1652 C1664 0.930 . S
H1653 C1666 0.930 . S
H1654 C1667 0.930 . S
H1655 C1671 0.959 . S
H1656 C1671 0.959 . S
H1657 C1671 0.961 . S
H1658 C1672 0.960 . S
H1659 C1672 0.961 . S
H1660 C1672 0.959 . S
H1661 C1675 0.929 . S
H1662 C1676 0.931 . S
H1663 C1678 0.930 . S
C1664 H1652 0.930 . S
C1664 C1665 1.399 . S
C1664 C1669 1.399 . S
C1665 C1664 1.399 . S
C1665 C1666 1.376 . S
C1666 H1653 0.930 . S
C1666 C1665 1.376 . S
C1666 C1667 1.388 . S
C1667 H1654 0.930 . S
C1667 C1666 1.388 . S
C1667 C1668 1.390 . S
C1668 C1667 1.390 . S
C1668 C1669 1.394 . S
C1668 C1674 1.465 . S
C1669 C1664 1.399 . S
C1669 C1668 1.394 . S
C1669 C1670 1.516 . S
C1670 C1669 1.516 . S
C1670 C1671 1.502 . S
C1670 C1672 1.561 . S
C1670 C1673 1.526 . S
C1671 H1655 0.959 . S
C1671 H1656 0.959 . S
C1671 H1657 0.961 . S
C1671 C1670 1.502 . S
C1672 H1658 0.960 . S
C1672 H1659 0.961 . S
C1672 H1660 0.959 . S
C1672 C1670 1.561 . S
C1673 C1670 1.526 . S
C1673 C1674 1.396 . S
C1673 C1678 1.390 . S
C1674 C1668 1.465 . S
C1674 C1673 1.396 . S
C1674 C1675 1.399 . S
C1675 H1661 0.929 . S
C1675 C1674 1.399 . S
C1675 C1676 1.385 . S
C1676 H1662 0.931 . S
C1676 C1675 1.385 . S
C1676 C1677 1.389 . S
C1677 C1676 1.389 . S
C1677 C1678 1.387 . S
C1678 H1663 0.930 . S
C1678 C1673 1.390 . S
C1678 C1677 1.387 . S
H1679 C1691 0.930 . S
H1680 C1693 0.930 . S
H1681 C1694 0.930 . S
H1682 C1698 0.959 . S
H1683 C1698 0.959 . S
H1684 C1698 0.961 . S
H1685 C1699 0.960 . S
H1686 C1699 0.961 . S
H1687 C1699 0.959 . S
H1688 C1702 0.929 . S
H1689 C1703 0.931 . S
H1690 C1705 0.930 . S
C1691 H1679 0.930 . S
C1691 C1692 1.399 . S
C1691 C1696 1.399 . S
C1692 C1691 1.399 . S
C1692 C1693 1.376 . S
C1693 H1680 0.930 . S
C1693 C1692 1.376 . S
C1693 C1694 1.388 . S
C1694 H1681 0.930 . S
C1694 C1693 1.388 . S
C1694 C1695 1.390 . S
C1695 C1694 1.390 . S
C1695 C1696 1.394 . S
C1695 C1701 1.465 . S
C1696 C1691 1.399 . S
C1696 C1695 1.394 . S
C1696 C1697 1.516 . S
C1697 C1696 1.516 . S
C1697 C1698 1.502 . S
C1697 C1699 1.561 . S
C1697 C1700 1.526 . S
C1698 H1682 0.959 . S
C1698 H1683 0.959 . S
C1698 H1684 0.961 . S
C1698 C1697 1.502 . S
C1699 H1685 0.960 . S
C1699 H1686 0.961 . S
C1699 H1687 0.959 . S
C1699 C1697 1.561 . S
C1700 C1697 1.526 . S
C1700 C1701 1.396 . S
C1700 C1705 1.390 . S
C1701 C1695 1.465 . S
C1701 C1700 1.396 . S
C1701 C1702 1.399 . S
C1702 H1688 0.929 . S
C1702 C1701 1.399 . S
C1702 C1703 1.385 . S
C1703 H1689 0.931 . S
C1703 C1702 1.385 . S
C1703 C1704 1.389 . S
C1704 C1703 1.389 . S
C1704 C1705 1.387 . S
C1705 H1690 0.930 . S
C1705 C1700 1.390 . S
C1705 C1704 1.387 . S
H1706 C1718 0.930 . S
H1707 C1720 0.930 . S
H1708 C1721 0.930 . S
H1709 C1725 0.959 . S
H1710 C1725 0.959 . S
H1711 C1725 0.961 . S
H1712 C1726 0.960 . S
H1713 C1726 0.961 . S
H1714 C1726 0.959 . S
H1715 C1729 0.929 . S
H1716 C1730 0.931 . S
H1717 C1732 0.930 . S
C1718 H1706 0.930 . S
C1718 C1719 1.399 . S
C1718 C1723 1.399 . S
C1719 C1718 1.399 . S
C1719 C1720 1.376 . S
C1720 H1707 0.930 . S
C1720 C1719 1.376 . S
C1720 C1721 1.388 . S
C1721 H1708 0.930 . S
C1721 C1720 1.388 . S
C1721 C1722 1.390 . S
C1722 C1721 1.390 . S
C1722 C1723 1.394 . S
C1722 C1728 1.465 . S
C1723 C1718 1.399 . S
C1723 C1722 1.394 . S
C1723 C1724 1.516 . S
C1724 C1723 1.516 . S
C1724 C1725 1.502 . S
C1724 C1726 1.561 . S
C1724 C1727 1.526 . S
C1725 H1709 0.959 . S
C1725 H1710 0.959 . S
C1725 H1711 0.961 . S
C1725 C1724 1.502 . S
C1726 H1712 0.960 . S
C1726 H1713 0.961 . S
C1726 H1714 0.959 . S
C1726 C1724 1.561 . S
C1727 C1724 1.526 . S
C1727 C1728 1.396 . S
C1727 C1732 1.390 . S
C1728 C1722 1.465 . S
C1728 C1727 1.396 . S
C1728 C1729 1.399 . S
C1729 H1715 0.929 . S
C1729 C1728 1.399 . S
C1729 C1730 1.385 . S
C1730 H1716 0.931 . S
C1730 C1729 1.385 . S
C1730 C1731 1.389 . S
C1731 C1730 1.389 . S
C1731 C1732 1.387 . S
C1732 H1717 0.930 . S
C1732 C1727 1.390 . S
C1732 C1731 1.387 . S
H1733 C1745 0.930 . S
H1734 C1747 0.930 . S
H1735 C1748 0.930 . S
H1736 C1752 0.959 . S
H1737 C1752 0.959 . S
H1738 C1752 0.961 . S
H1739 C1753 0.960 . S
H1740 C1753 0.961 . S
H1741 C1753 0.959 . S
H1742 C1756 0.929 . S
H1743 C1757 0.931 . S
H1744 C1759 0.930 . S
C1745 H1733 0.930 . S
C1745 C1746 1.399 . S
C1745 C1750 1.399 . S
C1746 C1745 1.399 . S
C1746 C1747 1.376 . S
C1747 H1734 0.930 . S
C1747 C1746 1.376 . S
C1747 C1748 1.388 . S
C1748 H1735 0.930 . S
C1748 C1747 1.388 . S
C1748 C1749 1.390 . S
C1749 C1748 1.390 . S
C1749 C1750 1.394 . S
C1749 C1755 1.465 . S
C1750 C1745 1.399 . S
C1750 C1749 1.394 . S
C1750 C1751 1.516 . S
C1751 C1750 1.516 . S
C1751 C1752 1.502 . S
C1751 C1753 1.561 . S
C1751 C1754 1.526 . S
C1752 H1736 0.959 . S
C1752 H1737 0.959 . S
C1752 H1738 0.961 . S
C1752 C1751 1.502 . S
C1753 H1739 0.960 . S
C1753 H1740 0.961 . S
C1753 H1741 0.959 . S
C1753 C1751 1.561 . S
C1754 C1751 1.526 . S
C1754 C1755 1.396 . S
C1754 C1759 1.390 . S
C1755 C1749 1.465 . S
C1755 C1754 1.396 . S
C1755 C1756 1.399 . S
C1756 H1742 0.929 . S
C1756 C1755 1.399 . S
C1756 C1757 1.385 . S
C1757 H1743 0.931 . S
C1757 C1756 1.385 . S
C1757 C1758 1.389 . S
C1758 C1757 1.389 . S
C1758 C1759 1.387 . S
C1759 H1744 0.930 . S
C1759 C1754 1.390 . S
C1759 C1758 1.387 . S
C489 C289 0.263 . S
C477 C4 0.219 . S
C516 C294 1.527 . S
C504 C63 1.538 . S
C543 C295 1.188 . S
C531 C72 1.189 . S
C558 C102 1.526 . S
C570 C299 1.535 . S
C585 C136 1.539 . S
C597 C302 1.542 . S
C624 C303 1.161 . S
C612 C183 1.174 . S
C639 C233 1.503 . S
C651 C280 1.502 . S
C666 C251 0.290 . S
C678 C296 0.199 . S
C705 C334 1.483 . S
C693 C29 1.469 . S
C720 C42 1.940 . S
C732 C360 1.906 . S
C759 C312 1.501 . S
C747 C97 1.500 . S
C786 C367 1.121 . S
C774 C115 1.147 . S
C801 C149 1.124 . S
C813 C321 1.198 . S
C840 C363 1.482 . S
C828 C187 1.496 . S
C855 C212 1.953 . S
C867 C327 1.928 . S
C882 C255 1.475 . S
C894 C358 1.468 . S
C909 C8 1.473 . S
C921 C366 1.416 . S
C936 C153 1.953 . S
C948 C353 1.896 . S
C975 C331 1.455 . S
C963 C170 1.493 . S
C1002 C359 1.149 . S
C990 C208 1.115 . S
C1017 C238 1.473 . S
C1029 C326 1.478 . S
C1044 C76 1.495 . S
C1056 C344 1.462 . S
C1083 C335 1.902 . S
C1071 C119 1.980 . S
C1098 C38 1.177 . S
C1110 C328 1.179 . S
C1125 C242 0.301 . S
C1137 C390 0.532 . S
C1152 C165 1.484 . S
C1164 C385 1.486 . S
C1191 C399 1.029 . S
C1179 C174 1.146 . S
C1218 C376 1.503 . S
C1206 C204 1.505 . S
C1233 C34 1.483 . S
C1245 C392 1.462 . S
C1272 C391 1.043 . S
C1260 C81 1.100 . S
C1287 C131 1.478 . S
C1299 C395 1.500 . S
C1314 C13 0.306 . S
C1326 C398 0.258 . S
C1341 C267 1.464 . S
C1353 C424 1.415 . S
C1380 C440 1.927 . S
C1368 C144 1.989 . S
C1395 C199 1.476 . S
C1407 C422 1.453 . S
C1422 C217 1.135 . S
C1434 C455 1.151 . S
C1461 C431 1.196 . S
C1449 C47 1.135 . S
C1476 C85 1.543 . S
C1488 C449 1.439 . S
C1515 C427 1.959 . S
C1503 C110 1.958 . S
C1542 C462 1.451 . S
C1530 C17 1.511 . S
C1569 C454 1.452 . S
C1557 C246 1.504 . S
C1584 C51 1.979 . S
C1596 C459 1.974 . S
C1611 C68 1.519 . S
C1623 C430 1.494 . S
C1650 C463 1.141 . S
C1638 C106 1.162 . S
C1665 C0 1.461 . S
C1677 C417 1.404 . S
C1692 C178 1.531 . S
C1704 C456 1.455 . S
C1731 C408 1.958 . S
C1719 C221 1.973 . S
C1758 C423 1.185 . S
C1746 C140 1.156 . S
