# Generated by pormake.
# Topology bcu-b, (8,8)-cn, num edge types: 1
# Building blocks:
#     Node 0, Type 0, BuildingBlock: TAGTUT_clean_sbu_3, # of connection points: 8
#     Node 1, Type 1, BuildingBlock: TAGTUT_clean_sbu_3, # of connection points: 8
#     Edge 2, Type (0, 1), BuildingBlock: UVAHIK_clean_linker_0, # of connection points: 2
#     Edge 3, Type (0, 1), BuildingBlock: UVAHIK_clean_linker_0, # of connection points: 2
#     Edge 4, Type (0, 1), BuildingBlock: UVAHIK_clean_linker_0, # of connection points: 2
#     Edge 5, Type (0, 1), BuildingBlock: UVAHIK_clean_linker_0, # of connection points: 2
#     Edge 6, Type (0, 1), BuildingBlock: UVAHIK_clean_linker_0, # of connection points: 2
#     Edge 7, Type (0, 1), BuildingBlock: UVAHIK_clean_linker_0, # of connection points: 2
#     Edge 8, Type (0, 1), BuildingBlock: UVAHIK_clean_linker_0, # of connection points: 2
#     Edge 9, Type (0, 1), BuildingBlock: UVAHIK_clean_linker_0, # of connection points: 2
# Relax obj value: 0.016
# Max RMSD: 0.069
# Mean RMSD: 0.069
data_MOF--net-bcu-b--node1-TAGTUT_clean_sbu_3--node2-TAGTUT_clean_sbu_3--edge1-UVAHIK_clean_linker_0
_symmetry_space_group_name_H-M    P1
_symmetry_Int_Tables_number       1
_symmetry_cell_setting            triclinic
loop_
_symmetry_equiv_pos_as_xyz
'x, y, z'
_cell_length_a     23.954383
_cell_length_b     23.747491
_cell_length_c     27.941508
_cell_angle_alpha  90.361553
_cell_angle_beta   89.867487
_cell_angle_gamma 103.89616
loop_
_atom_site_label
_atom_site_type_symbol
_atom_site_fract_x
_atom_site_fract_y
_atom_site_fract_z
_atom_type_partial_charge
C0 C 0.10866 0.08795 0.0309 0.0
C1 C 0.18839 0.90886 -0.0059 0.0
C2 C 0.10833 0.90837 0.85523 0.0
Mg3 Mg 0.99723 0.12774 -0.00849 0.0
Mg4 Mg 0.88071 0.0314 0.95914 0.0
O5 O 0.96003 0.05853 0.95145 0.0
Mg6 Mg 0.01429 0.00762 -0.039 0.0
O7 O 0.07465 0.96358 -0.02882 0.0
Mg8 Mg 0.14277 0.01583 0.93923 0.0
Mg9 Mg 0.06247 0.88512 0.95615 0.0
C10 C 0.91018 0.9308 0.89493 0.0
O11 O 0.95471 0.94169 0.01112 0.0
O12 O 0.93635 0.1758 0.95176 0.0
O13 O 0.98063 0.85875 -0.00794 0.0
O14 O 0.93046 0.10377 0.05286 0.0
O15 O 0.85986 0.10613 0.92787 0.0
O16 O 0.85772 0.02965 0.03344 0.0
O17 O 0.07783 0.06548 0.90925 0.0
O18 O 0.06244 0.15088 0.93153 0.0
C19 C 0.08846 0.12076 0.90555 0.0
C20 C 0.88811 0.15933 0.92947 0.0
O21 O 0.96499 0.94804 0.90117 0.0
O22 O 0.19851 0.96068 -0.02275 0.0
O23 O 0.8735 0.95322 0.91701 0.0
O24 O 0.13712 0.95719 0.87158 0.0
O25 O 0.13925 0.87295 -0.01013 0.0
O26 O 0.07032 0.87475 0.8806 0.0
O27 O 0.05492 0.06976 0.02183 0.0
O28 O 0.14673 0.07212 0.00546 0.0
C29 C 0.88327 0.06767 0.06353 0.0
C30 C 0.94757 0.88616 0.01354 0.0
C31 C 0.61577 0.58873 0.51397 0.0
C32 C 0.65318 0.38262 0.53057 0.0
C33 C 0.58749 0.3545 0.38579 0.0
Mg34 Mg 0.51718 0.63186 0.45674 0.0
Mg35 Mg 0.39152 0.5438 0.43583 0.0
O36 O 0.47108 0.55621 0.42975 0.0
Mg37 Mg 0.51291 0.50049 0.45698 0.0
O38 O 0.56078 0.45 0.48352 0.0
Mg39 Mg 0.63516 0.48043 0.44863 0.0
Mg40 Mg 0.53342 0.36916 0.48173 0.0
C41 C 0.40149 0.4175 0.40402 0.0
O42 O 0.44435 0.46232 0.51393 0.0
O43 O 0.46721 0.67648 0.40212 0.0
O44 O 0.44936 0.36824 0.51123 0.0
O45 O 0.45014 0.6378 0.51558 0.0
O46 O 0.38457 0.61055 0.38624 0.0
O47 O 0.36995 0.5685 0.50596 0.0
O48 O 0.58367 0.53023 0.40068 0.0
O49 O 0.58334 0.62449 0.40011 0.0
C50 C 0.60322 0.58197 0.38557 0.0
C51 C 0.41948 0.65994 0.37903 0.0
O52 O 0.45646 0.42882 0.40964 0.0
O53 O 0.67444 0.42732 0.50454 0.0
O54 O 0.37085 0.45317 0.41538 0.0
O55 O 0.62134 0.40338 0.39596 0.0
O56 O 0.60047 0.35435 0.52721 0.0
O57 O 0.54406 0.33329 0.41206 0.0
O58 O 0.56195 0.57575 0.50434 0.0
O59 O 0.64905 0.55769 0.49888 0.0
C60 C 0.39973 0.61147 0.52938 0.0
C61 C 0.42471 0.40836 0.52435 0.0
C62 C 0.09213 0.12001 0.11455 0.0
C63 C 0.12857 0.12132 0.07483 0.0
C64 C 0.11508 0.142 0.15886 0.0
C65 C 0.25088 0.16788 0.22483 0.0
H66 H 0.19716 0.28441 0.29684 0.0
C67 C 0.39597 0.33759 0.34442 0.0
C68 C 0.37099 0.36245 0.3819 0.0
C69 C 0.36194 0.2935 0.31645 0.0
C70 C 0.21195 0.25073 0.27799 0.0
H71 H 0.2164 0.15089 0.04926 0.0
H72 H 0.25579 0.18905 0.12589 0.0
H73 H 0.14223 0.238 0.22799 0.0
H74 H 0.29348 0.35629 0.42384 0.0
H75 H 0.23456 0.27847 0.37588 0.0
H76 H 0.3216 0.18178 0.27366 0.0
C77 C 0.21005 0.16974 0.12332 0.0
C78 C 0.18047 0.22439 0.23847 0.0
C79 C 0.18731 0.14832 0.07936 0.0
C80 C 0.31331 0.33862 0.39425 0.0
C81 C 0.27957 0.29423 0.36677 0.0
C82 C 0.28218 0.1939 0.26446 0.0
C83 C 0.1746 0.1651 0.16376 0.0
C84 C 0.20098 0.18452 0.21052 0.0
C85 C 0.30273 0.27332 0.3261 0.0
C86 C 0.26422 0.23721 0.29038 0.0
H87 H 0.04668 0.09941 0.11205 0.0
H88 H 0.08688 0.13873 0.1896 0.0
H89 H 0.26692 0.13633 0.20416 0.0
H90 H 0.44046 0.35515 0.33441 0.0
H91 H 0.38115 0.27844 0.28527 0.0
C92 C 0.87679 0.12497 0.1379 0.0
C93 C 0.8527 0.07766 0.10793 0.0
C94 C 0.84347 0.14368 0.17285 0.0
C95 C 0.69124 0.14132 0.1978 0.0
H96 H 0.75816 0.22672 0.31075 0.0
C97 C 0.57538 0.26045 0.33978 0.0
C98 C 0.60522 0.31855 0.34759 0.0
C99 C 0.59928 0.22379 0.31075 0.0
C100 C 0.73887 0.20277 0.27939 0.0
H101 H 0.77589 0.0095 0.09446 0.0
H102 H 0.71819 0.04123 0.1565 0.0
H103 H 0.81327 0.17048 0.26559 0.0
H104 H 0.68152 0.38448 0.32789 0.0
H105 H 0.72294 0.32049 0.27836 0.0
H106 H 0.61658 0.17401 0.21239 0.0
C107 C 0.76243 0.06505 0.15185 0.0
C108 C 0.77048 0.17074 0.25334 0.0
C109 C 0.79578 0.04646 0.1166 0.0
C110 C 0.65743 0.33996 0.32322 0.0
C111 C 0.68147 0.30329 0.29497 0.0
C112 C 0.6592 0.17274 0.22445 0.0
C113 C 0.78524 0.11522 0.17924 0.0
C114 C 0.74793 0.14111 0.21126 0.0
C115 C 0.65356 0.24454 0.28965 0.0
C116 C 0.68353 0.20514 0.2646 0.0
H117 H 0.92049 0.15001 0.1325 0.0
H118 H 0.86271 0.18272 0.19279 0.0
H119 H 0.67252 0.11961 0.16539 0.0
H120 H 0.53504 0.24255 0.35787 0.0
H121 H 0.57684 0.17861 0.30684 0.0
C122 C 0.86502 0.87708 0.07133 0.0
C123 C 0.90192 0.85139 0.04431 0.0
C124 C 0.8262 0.84383 0.10374 0.0
C125 C 0.78451 0.77587 0.19341 0.0
H126 H 0.72166 0.61071 0.17522 0.0
C127 C 0.69645 0.63552 0.35336 0.0
C128 C 0.64488 0.59372 0.34658 0.0
C129 C 0.7282 0.66122 0.31401 0.0
C130 C 0.73837 0.65684 0.18085 0.0
H131 H 0.92488 0.76991 0.0286 0.0
H132 H 0.85984 0.71352 0.08567 0.0
H133 H 0.76617 0.66954 0.10821 0.0
H134 H 0.58668 0.54354 0.29448 0.0
H135 H 0.64096 0.58955 0.22533 0.0
H136 H 0.75441 0.76388 0.26532 0.0
C137 C 0.85938 0.75868 0.08145 0.0
C138 C 0.76445 0.69057 0.14249 0.0
C139 C 0.89741 0.79152 0.04891 0.0
C140 C 0.62716 0.57497 0.30023 0.0
C141 C 0.65819 0.60163 0.26072 0.0
C142 C 0.75756 0.74238 0.23149 0.0
C143 C 0.82401 0.78449 0.10998 0.0
C144 C 0.78907 0.75027 0.1486 0.0
C145 C 0.70778 0.64686 0.26723 0.0
C146 C 0.73533 0.6822 0.22604 0.0
H147 H 0.86708 0.92293 0.06839 0.0
H148 H 0.79879 0.86492 0.12457 0.0
H149 H 0.80338 0.8215 0.19972 0.0
H150 H 0.71035 0.65077 0.38904 0.0
H151 H 0.76722 0.69443 0.32037 0.0
C152 C 0.22671 0.832 0.03361 0.0
C153 C 0.23246 0.89102 0.02362 0.0
C154 C 0.26186 0.8148 0.06744 0.0
C155 C 0.34236 0.86761 0.17661 0.0
H156 H 0.38245 0.71917 0.1668 0.0
C157 C 0.43899 0.75298 0.33156 0.0
C158 C 0.40619 0.69608 0.33945 0.0
C159 C 0.42841 0.78429 0.29149 0.0
C160 C 0.37193 0.76095 0.16992 0.0
H161 H 0.28178 0.97824 0.03979 0.0
H162 H 0.34374 0.94796 0.09907 0.0
H163 H 0.34899 0.76085 0.09604 0.0
H164 H 0.33591 0.62818 0.31158 0.0
H165 H 0.31846 0.6822 0.24214 0.0
H166 H 0.36435 0.86656 0.25109 0.0
C167 C 0.3115 0.9151 0.08082 0.0
C168 C 0.35259 0.78475 0.12949 0.0
C169 C 0.27637 0.93238 0.04655 0.0
C170 C 0.36211 0.6718 0.30691 0.0
C171 C 0.35229 0.70255 0.26678 0.0
C172 C 0.36233 0.84393 0.21712 0.0
C173 C 0.30378 0.85612 0.09237 0.0
C174 C 0.33532 0.8372 0.13273 0.0
C175 C 0.38569 0.75872 0.25829 0.0
C176 C 0.37514 0.78933 0.21443 0.0
H177 H 0.19347 0.79897 0.01654 0.0
H178 H 0.25405 0.76908 0.07575 0.0
H179 H 0.32914 0.90793 0.18047 0.0
H180 H 0.47322 0.77299 0.35591 0.0
H181 H 0.45454 0.82773 0.28574 0.0
C182 C 0.18064 0.9126 0.78968 0.0
C183 C 0.12755 0.88513 0.81034 0.0
C184 C 0.20646 0.8837 0.75559 0.0
C185 C 0.2073 0.73378 0.72124 0.0
H186 H 0.30776 0.80889 0.61952 0.0
C187 C 0.31561 0.61014 0.58345 0.0
C188 C 0.37199 0.63677 0.5689 0.0
C189 C 0.28542 0.63913 0.61403 0.0
C190 C 0.28034 0.78746 0.64817 0.0
H191 H 0.05718 0.80813 0.80747 0.0
H192 H 0.10151 0.75847 0.74705 0.0
H193 H 0.25139 0.86388 0.6648 0.0
H194 H 0.44208 0.71331 0.57782 0.0
H195 H 0.38952 0.76345 0.63142 0.0
H196 H 0.23623 0.65732 0.70443 0.0
C197 C 0.12416 0.80154 0.7585 0.0
C198 C 0.24787 0.81893 0.67401 0.0
C199 C 0.09845 0.83031 0.7928 0.0
C200 C 0.39865 0.69155 0.58801 0.0
C201 C 0.36834 0.72061 0.61838 0.0
C202 C 0.23956 0.70225 0.69523 0.0
C203 C 0.17957 0.82686 0.74103 0.0
C204 C 0.21115 0.7926 0.71108 0.0
C205 C 0.31087 0.69542 0.63063 0.0
C206 C 0.27676 0.72884 0.65863 0.0
H207 H 0.20431 0.95483 0.80221 0.0
H208 H 0.24915 0.90461 0.74302 0.0
H209 H 0.18047 0.71235 0.7502 0.0
H210 H 0.29379 0.5679 0.5696 0.0
H211 H 0.2412 0.61852 0.62281 0.0
C212 C 0.13815 0.1229 0.82634 0.0
C213 C 0.12787 0.15141 0.86842 0.0
C214 C 0.16712 0.15481 0.788 0.0
C215 C 0.26245 0.29557 0.75557 0.0
H216 H 0.19265 0.26219 0.63024 0.0
C217 C 0.36357 0.42638 0.5928 0.0
C218 C 0.37397 0.39046 0.55543 0.0
C219 C 0.32437 0.40339 0.62901 0.0
C220 C 0.2126 0.27203 0.66503 0.0
H221 H 0.14308 0.2348 0.90474 0.0
H222 H 0.19387 0.29001 0.83828 0.0
H223 H 0.14895 0.20552 0.69915 0.0
H224 H 0.34719 0.30491 0.52323 0.0
H225 H 0.27952 0.26498 0.58596 0.0
H226 H 0.32696 0.36092 0.72146 0.0
C227 C 0.17931 0.24334 0.8346 0.0
C228 C 0.18786 0.23932 0.70434 0.0
C229 C 0.15005 0.21167 0.87259 0.0
C230 C 0.34057 0.33326 0.55215 0.0
C231 C 0.30138 0.31049 0.58796 0.0
C232 C 0.28736 0.32809 0.71624 0.0
C233 C 0.1868 0.2155 0.79149 0.0
C234 C 0.21301 0.25026 0.74985 0.0
C235 C 0.29478 0.34447 0.6279 0.0
C236 C 0.26321 0.3161 0.67039 0.0
H237 H 0.12146 0.07651 0.82216 0.0
H238 H 0.1732 0.13222 0.75533 0.0
H239 H 0.28283 0.30481 0.79025 0.0
H240 H 0.38857 0.47078 0.59592 0.0
H241 H 0.31929 0.43087 0.65899 0.0
C242 C 0.80968 0.18745 0.88396 0.0
C243 C 0.86707 0.20119 0.89958 0.0
C244 C 0.79165 0.22031 0.84864 0.0
C245 C 0.84816 0.30964 0.74505 0.0
H246 H 0.69192 0.32844 0.74016 0.0
C247 C 0.74234 0.40114 0.58213 0.0
C248 C 0.68802 0.36617 0.56962 0.0
C249 C 0.77042 0.38947 0.62363 0.0
C250 C 0.73576 0.32364 0.74109 0.0
H251 H 0.94991 0.26228 0.89217 0.0
H252 H 0.91811 0.32021 0.83031 0.0
H253 H 0.72858 0.29794 0.81445 0.0
H254 H 0.62256 0.28941 0.58959 0.0
H255 H 0.67114 0.26979 0.66134 0.0
H256 H 0.85449 0.33451 0.67103 0.0
C257 C 0.88729 0.28353 0.84526 0.0
C258 C 0.75675 0.30614 0.78359 0.0
C259 C 0.90531 0.25072 0.88103 0.0
C260 C 0.66395 0.3178 0.59818 0.0
C261 C 0.69159 0.30662 0.63957 0.0
C262 C 0.82719 0.32768 0.70246 0.0
C263 C 0.83056 0.26776 0.82785 0.0
C264 C 0.81247 0.29688 0.78564 0.0
C265 C 0.7443 0.34309 0.65342 0.0
C266 C 0.77011 0.33282 0.69973 0.0
H267 H 0.77909 0.14967 0.89757 0.0
H268 H 0.74783 0.20642 0.83582 0.0
H269 H 0.89116 0.30255 0.7453 0.0
H270 H 0.76214 0.43871 0.56096 0.0
H271 H 0.81128 0.41801 0.63346 0.0
C272 C 0.91808 0.88196 0.81629 0.0
C273 C 0.88686 0.88693 0.85806 0.0
C274 C 0.89047 0.85005 0.77713 0.0
C275 C 0.74557 0.80671 0.72603 0.0
H276 H 0.8084 0.70456 0.64459 0.0
C277 C 0.61238 0.65095 0.58574 0.0
C278 C 0.64137 0.63836 0.54492 0.0
C279 C 0.64251 0.68785 0.62119 0.0
C280 C 0.79066 0.73381 0.6665 0.0
H281 H 0.80449 0.85769 0.89373 0.0
H282 H 0.75697 0.80155 0.82603 0.0
H283 H 0.86338 0.7508 0.71356 0.0
H284 H 0.7222 0.6587 0.50623 0.0
H285 H 0.77409 0.72451 0.56706 0.0
H286 H 0.67282 0.78976 0.67917 0.0
C287 C 0.80195 0.82371 0.82275 0.0
C288 C 0.82212 0.76 0.70608 0.0
C289 C 0.8293 0.85552 0.86158 0.0
C290 C 0.69918 0.66719 0.53786 0.0
C291 C 0.72899 0.70441 0.57284 0.0
C292 C 0.71422 0.78073 0.68637 0.0
C293 C 0.83151 0.82267 0.77951 0.0
C294 C 0.79953 0.79611 0.73655 0.0
C295 C 0.70176 0.71299 0.61586 0.0
C296 C 0.73621 0.74365 0.65636 0.0
H297 H 0.96253 0.90571 0.81271 0.0
H298 H 0.91433 0.84958 0.74422 0.0
H299 H 0.72763 0.83537 0.74843 0.0
H300 H 0.56784 0.62895 0.59196 0.0
H301 H 0.62028 0.69361 0.65398 0.0
loop_
_geom_bond_atom_site_label_1
_geom_bond_atom_site_label_2
_geom_bond_distance
_geom_bond_site_symmetry_2
_ccdc_geom_bond_type
C0 O27 1.312 . S
C0 O28 1.208 . S
C1 O22 1.331 . S
C1 O25 1.244 . S
C2 O24 1.264 . S
C2 O26 1.273 . S
Mg3 O5 1.936 . S
Mg3 O12 2.081 . S
Mg3 O14 2.023 1_556 S
Mg3 O18 2.031 1_655 S
Mg3 O27 2.291 1_656 S
Mg4 O5 1.963 . S
Mg4 O15 1.942 . S
Mg4 O16 1.955 1_556 S
Mg4 O23 1.986 1_545 S
O5 Mg3 1.936 . S
O5 Mg4 1.963 . S
O5 Mg6 1.915 1_546 S
Mg6 O5 1.915 1_564 S
Mg6 O7 1.915 1_655 S
Mg6 O11 2.013 . S
Mg6 O17 2.114 1_664 S
Mg6 O21 2.013 1_554 S
Mg6 O27 2.114 1_665 S
O7 Mg6 1.915 1_455 S
O7 Mg8 1.936 . S
O7 Mg9 1.963 . S
Mg8 O7 1.936 . S
Mg8 O17 2.291 1_564 S
Mg8 O22 2.081 . S
Mg8 O24 2.023 1_554 S
Mg8 O28 2.031 1_565 S
Mg9 O7 1.963 . S
Mg9 O13 1.986 1_455 S
Mg9 O25 1.942 . S
Mg9 O26 1.955 1_554 S
C10 O21 1.191 . S
C10 O23 1.307 . S
O11 Mg6 2.013 . S
O11 C30 1.191 . S
O12 Mg3 2.081 . S
O12 C20 1.331 . S
O13 Mg9 1.986 1_655 S
O13 C30 1.307 . S
O14 Mg3 2.023 1_554 S
O14 C29 1.264 . S
O15 Mg4 1.942 . S
O15 C20 1.244 . S
O16 Mg4 1.955 1_554 S
O16 C29 1.273 . S
O17 Mg6 2.114 1_446 S
O17 Mg8 2.291 1_546 S
O17 C19 1.312 . S
O18 Mg3 2.031 1_455 S
O18 C19 1.208 . S
C19 O17 1.312 . S
C19 O18 1.208 . S
C20 O12 1.331 . S
C20 O15 1.244 . S
O21 Mg6 2.013 1_556 S
O21 C10 1.191 . S
O22 C1 1.331 . S
O22 Mg8 2.081 . S
O23 Mg4 1.986 1_565 S
O23 C10 1.307 . S
O24 C2 1.264 . S
O24 Mg8 2.023 1_556 S
O25 C1 1.244 . S
O25 Mg9 1.942 . S
O26 C2 1.273 . S
O26 Mg9 1.955 1_556 S
O27 C0 1.312 . S
O27 Mg3 2.291 1_454 S
O27 Mg6 2.114 1_445 S
O28 C0 1.208 . S
O28 Mg8 2.031 1_545 S
C29 O14 1.264 . S
C29 O16 1.273 . S
C30 O11 1.191 . S
C30 O13 1.307 . S
C31 O58 1.312 . S
C31 O59 1.208 . S
C32 O53 1.331 . S
C32 O56 1.244 . S
C33 O55 1.264 . S
C33 O57 1.273 . S
Mg34 O36 1.936 . S
Mg34 O43 2.081 . S
Mg34 O45 2.023 . S
Mg34 O49 2.031 . S
Mg34 O58 2.291 . S
Mg35 O36 1.963 . S
Mg35 O46 1.942 . S
Mg35 O47 1.955 . S
Mg35 O54 1.986 . S
O36 Mg34 1.936 . S
O36 Mg35 1.963 . S
O36 Mg37 1.915 . S
Mg37 O36 1.915 . S
Mg37 O38 1.915 . S
Mg37 O42 2.013 . S
Mg37 O48 2.114 . S
Mg37 O52 2.013 . S
Mg37 O58 2.114 . S
O38 Mg37 1.915 . S
O38 Mg39 1.936 . S
O38 Mg40 1.963 . S
Mg39 O38 1.936 . S
Mg39 O48 2.291 . S
Mg39 O53 2.081 . S
Mg39 O55 2.023 . S
Mg39 O59 2.031 . S
Mg40 O38 1.963 . S
Mg40 O44 1.986 . S
Mg40 O56 1.942 . S
Mg40 O57 1.955 . S
C41 O52 1.191 . S
C41 O54 1.307 . S
O42 Mg37 2.013 . S
O42 C61 1.191 . S
O43 Mg34 2.081 . S
O43 C51 1.331 . S
O44 Mg40 1.986 . S
O44 C61 1.307 . S
O45 Mg34 2.023 . S
O45 C60 1.264 . S
O46 Mg35 1.942 . S
O46 C51 1.244 . S
O47 Mg35 1.955 . S
O47 C60 1.273 . S
O48 Mg37 2.114 . S
O48 Mg39 2.291 . S
O48 C50 1.312 . S
O49 Mg34 2.031 . S
O49 C50 1.208 . S
C50 O48 1.312 . S
C50 O49 1.208 . S
C51 O43 1.331 . S
C51 O46 1.244 . S
O52 Mg37 2.013 . S
O52 C41 1.191 . S
O53 C32 1.331 . S
O53 Mg39 2.081 . S
O54 Mg35 1.986 . S
O54 C41 1.307 . S
O55 C33 1.264 . S
O55 Mg39 2.023 . S
O56 C32 1.244 . S
O56 Mg40 1.942 . S
O57 C33 1.273 . S
O57 Mg40 1.955 . S
O58 C31 1.312 . S
O58 Mg34 2.291 . S
O58 Mg37 2.114 . S
O59 C31 1.208 . S
O59 Mg39 2.031 . S
C60 O45 1.264 . S
C60 O47 1.273 . S
C61 O42 1.191 . S
C61 O44 1.307 . S
C62 C63 1.349 . S
C62 C64 1.327 . S
C62 H87 0.950 . S
C63 C62 1.349 . S
C63 C79 1.349 . S
C64 C62 1.327 . S
C64 C83 1.429 . S
C64 H88 0.950 . S
C65 C82 1.574 . S
C65 C84 1.368 . S
C65 H89 0.949 . S
H66 C70 0.949 . S
C67 C68 1.349 . S
C67 C69 1.327 . S
C67 H90 0.950 . S
C68 C67 1.349 . S
C68 C80 1.349 . S
C69 C67 1.327 . S
C69 C85 1.429 . S
C69 H91 0.950 . S
C70 H66 0.949 . S
C70 C78 1.574 . S
C70 C86 1.368 . S
H71 C79 0.950 . S
H72 C77 0.950 . S
H73 C78 0.949 . S
H74 C80 0.950 . S
H75 C81 0.950 . S
H76 C82 0.949 . S
C77 H72 0.950 . S
C77 C79 1.327 . S
C77 C83 1.429 . S
C78 C70 1.574 . S
C78 H73 0.949 . S
C78 C84 1.368 . S
C79 C63 1.349 . S
C79 H71 0.950 . S
C79 C77 1.327 . S
C80 C68 1.349 . S
C80 H74 0.950 . S
C80 C81 1.327 . S
C81 H75 0.950 . S
C81 C80 1.327 . S
C81 C85 1.429 . S
C82 C65 1.574 . S
C82 H76 0.949 . S
C82 C86 1.368 . S
C83 C64 1.429 . S
C83 C77 1.429 . S
C83 C84 1.523 . S
C84 C65 1.368 . S
C84 C78 1.368 . S
C84 C83 1.523 . S
C85 C69 1.429 . S
C85 C81 1.429 . S
C85 C86 1.523 . S
C86 C70 1.368 . S
C86 C82 1.368 . S
C86 C85 1.523 . S
H87 C62 0.950 . S
H88 C64 0.950 . S
H89 C65 0.949 . S
H90 C67 0.950 . S
H91 C69 0.950 . S
C92 C93 1.349 . S
C92 C94 1.327 . S
C92 H117 0.950 . S
C93 C92 1.349 . S
C93 C109 1.349 . S
C94 C92 1.327 . S
C94 C113 1.429 . S
C94 H118 0.950 . S
C95 C112 1.574 . S
C95 C114 1.368 . S
C95 H119 0.949 . S
H96 C100 0.949 . S
C97 C98 1.349 . S
C97 C99 1.327 . S
C97 H120 0.950 . S
C98 C97 1.349 . S
C98 C110 1.349 . S
C99 C97 1.327 . S
C99 C115 1.429 . S
C99 H121 0.950 . S
C100 H96 0.949 . S
C100 C108 1.574 . S
C100 C116 1.368 . S
H101 C109 0.950 . S
H102 C107 0.950 . S
H103 C108 0.949 . S
H104 C110 0.950 . S
H105 C111 0.950 . S
H106 C112 0.949 . S
C107 H102 0.950 . S
C107 C109 1.327 . S
C107 C113 1.429 . S
C108 C100 1.574 . S
C108 H103 0.949 . S
C108 C114 1.368 . S
C109 C93 1.349 . S
C109 H101 0.950 . S
C109 C107 1.327 . S
C110 C98 1.349 . S
C110 H104 0.950 . S
C110 C111 1.327 . S
C111 H105 0.950 . S
C111 C110 1.327 . S
C111 C115 1.429 . S
C112 C95 1.574 . S
C112 H106 0.949 . S
C112 C116 1.368 . S
C113 C94 1.429 . S
C113 C107 1.429 . S
C113 C114 1.523 . S
C114 C95 1.368 . S
C114 C108 1.368 . S
C114 C113 1.523 . S
C115 C99 1.429 . S
C115 C111 1.429 . S
C115 C116 1.523 . S
C116 C100 1.368 . S
C116 C112 1.368 . S
C116 C115 1.523 . S
H117 C92 0.950 . S
H118 C94 0.950 . S
H119 C95 0.949 . S
H120 C97 0.950 . S
H121 C99 0.950 . S
C122 C123 1.349 . S
C122 C124 1.327 . S
C122 H147 0.950 . S
C123 C122 1.349 . S
C123 C139 1.349 . S
C124 C122 1.327 . S
C124 C143 1.429 . S
C124 H148 0.950 . S
C125 C142 1.574 . S
C125 C144 1.368 . S
C125 H149 0.949 . S
H126 C130 0.949 . S
C127 C128 1.349 . S
C127 C129 1.327 . S
C127 H150 0.950 . S
C128 C127 1.349 . S
C128 C140 1.349 . S
C129 C127 1.327 . S
C129 C145 1.429 . S
C129 H151 0.950 . S
C130 H126 0.949 . S
C130 C138 1.574 . S
C130 C146 1.368 . S
H131 C139 0.950 . S
H132 C137 0.950 . S
H133 C138 0.949 . S
H134 C140 0.950 . S
H135 C141 0.950 . S
H136 C142 0.949 . S
C137 H132 0.950 . S
C137 C139 1.327 . S
C137 C143 1.429 . S
C138 C130 1.574 . S
C138 H133 0.949 . S
C138 C144 1.368 . S
C139 C123 1.349 . S
C139 H131 0.950 . S
C139 C137 1.327 . S
C140 C128 1.349 . S
C140 H134 0.950 . S
C140 C141 1.327 . S
C141 H135 0.950 . S
C141 C140 1.327 . S
C141 C145 1.429 . S
C142 C125 1.574 . S
C142 H136 0.949 . S
C142 C146 1.368 . S
C143 C124 1.429 . S
C143 C137 1.429 . S
C143 C144 1.523 . S
C144 C125 1.368 . S
C144 C138 1.368 . S
C144 C143 1.523 . S
C145 C129 1.429 . S
C145 C141 1.429 . S
C145 C146 1.523 . S
C146 C130 1.368 . S
C146 C142 1.368 . S
C146 C145 1.523 . S
H147 C122 0.950 . S
H148 C124 0.950 . S
H149 C125 0.949 . S
H150 C127 0.950 . S
H151 C129 0.950 . S
C152 C153 1.349 . S
C152 C154 1.327 . S
C152 H177 0.950 . S
C153 C152 1.349 . S
C153 C169 1.349 . S
C154 C152 1.327 . S
C154 C173 1.429 . S
C154 H178 0.950 . S
C155 C172 1.574 . S
C155 C174 1.368 . S
C155 H179 0.949 . S
H156 C160 0.949 . S
C157 C158 1.349 . S
C157 C159 1.327 . S
C157 H180 0.950 . S
C158 C157 1.349 . S
C158 C170 1.349 . S
C159 C157 1.327 . S
C159 C175 1.429 . S
C159 H181 0.950 . S
C160 H156 0.949 . S
C160 C168 1.574 . S
C160 C176 1.368 . S
H161 C169 0.950 . S
H162 C167 0.950 . S
H163 C168 0.949 . S
H164 C170 0.950 . S
H165 C171 0.950 . S
H166 C172 0.949 . S
C167 H162 0.950 . S
C167 C169 1.327 . S
C167 C173 1.429 . S
C168 C160 1.574 . S
C168 H163 0.949 . S
C168 C174 1.368 . S
C169 C153 1.349 . S
C169 H161 0.950 . S
C169 C167 1.327 . S
C170 C158 1.349 . S
C170 H164 0.950 . S
C170 C171 1.327 . S
C171 H165 0.950 . S
C171 C170 1.327 . S
C171 C175 1.429 . S
C172 C155 1.574 . S
C172 H166 0.949 . S
C172 C176 1.368 . S
C173 C154 1.429 . S
C173 C167 1.429 . S
C173 C174 1.523 . S
C174 C155 1.368 . S
C174 C168 1.368 . S
C174 C173 1.523 . S
C175 C159 1.429 . S
C175 C171 1.429 . S
C175 C176 1.523 . S
C176 C160 1.368 . S
C176 C172 1.368 . S
C176 C175 1.523 . S
H177 C152 0.950 . S
H178 C154 0.950 . S
H179 C155 0.949 . S
H180 C157 0.950 . S
H181 C159 0.950 . S
C182 C183 1.349 . S
C182 C184 1.327 . S
C182 H207 0.950 . S
C183 C182 1.349 . S
C183 C199 1.349 . S
C184 C182 1.327 . S
C184 C203 1.429 . S
C184 H208 0.950 . S
C185 C202 1.574 . S
C185 C204 1.368 . S
C185 H209 0.949 . S
H186 C190 0.949 . S
C187 C188 1.349 . S
C187 C189 1.327 . S
C187 H210 0.950 . S
C188 C187 1.349 . S
C188 C200 1.349 . S
C189 C187 1.327 . S
C189 C205 1.429 . S
C189 H211 0.950 . S
C190 H186 0.949 . S
C190 C198 1.574 . S
C190 C206 1.368 . S
H191 C199 0.950 . S
H192 C197 0.950 . S
H193 C198 0.949 . S
H194 C200 0.950 . S
H195 C201 0.950 . S
H196 C202 0.949 . S
C197 H192 0.950 . S
C197 C199 1.327 . S
C197 C203 1.429 . S
C198 C190 1.574 . S
C198 H193 0.949 . S
C198 C204 1.368 . S
C199 C183 1.349 . S
C199 H191 0.950 . S
C199 C197 1.327 . S
C200 C188 1.349 . S
C200 H194 0.950 . S
C200 C201 1.327 . S
C201 H195 0.950 . S
C201 C200 1.327 . S
C201 C205 1.429 . S
C202 C185 1.574 . S
C202 H196 0.949 . S
C202 C206 1.368 . S
C203 C184 1.429 . S
C203 C197 1.429 . S
C203 C204 1.523 . S
C204 C185 1.368 . S
C204 C198 1.368 . S
C204 C203 1.523 . S
C205 C189 1.429 . S
C205 C201 1.429 . S
C205 C206 1.523 . S
C206 C190 1.368 . S
C206 C202 1.368 . S
C206 C205 1.523 . S
H207 C182 0.950 . S
H208 C184 0.950 . S
H209 C185 0.949 . S
H210 C187 0.950 . S
H211 C189 0.950 . S
C212 C213 1.349 . S
C212 C214 1.327 . S
C212 H237 0.950 . S
C213 C212 1.349 . S
C213 C229 1.349 . S
C214 C212 1.327 . S
C214 C233 1.429 . S
C214 H238 0.950 . S
C215 C232 1.574 . S
C215 C234 1.368 . S
C215 H239 0.949 . S
H216 C220 0.949 . S
C217 C218 1.349 . S
C217 C219 1.327 . S
C217 H240 0.950 . S
C218 C217 1.349 . S
C218 C230 1.349 . S
C219 C217 1.327 . S
C219 C235 1.429 . S
C219 H241 0.950 . S
C220 H216 0.949 . S
C220 C228 1.574 . S
C220 C236 1.368 . S
H221 C229 0.950 . S
H222 C227 0.950 . S
H223 C228 0.949 . S
H224 C230 0.950 . S
H225 C231 0.950 . S
H226 C232 0.949 . S
C227 H222 0.950 . S
C227 C229 1.327 . S
C227 C233 1.429 . S
C228 C220 1.574 . S
C228 H223 0.949 . S
C228 C234 1.368 . S
C229 C213 1.349 . S
C229 H221 0.950 . S
C229 C227 1.327 . S
C230 C218 1.349 . S
C230 H224 0.950 . S
C230 C231 1.327 . S
C231 H225 0.950 . S
C231 C230 1.327 . S
C231 C235 1.429 . S
C232 C215 1.574 . S
C232 H226 0.949 . S
C232 C236 1.368 . S
C233 C214 1.429 . S
C233 C227 1.429 . S
C233 C234 1.523 . S
C234 C215 1.368 . S
C234 C228 1.368 . S
C234 C233 1.523 . S
C235 C219 1.429 . S
C235 C231 1.429 . S
C235 C236 1.523 . S
C236 C220 1.368 . S
C236 C232 1.368 . S
C236 C235 1.523 . S
H237 C212 0.950 . S
H238 C214 0.950 . S
H239 C215 0.949 . S
H240 C217 0.950 . S
H241 C219 0.950 . S
C242 C243 1.349 . S
C242 C244 1.327 . S
C242 H267 0.950 . S
C243 C242 1.349 . S
C243 C259 1.349 . S
C244 C242 1.327 . S
C244 C263 1.429 . S
C244 H268 0.950 . S
C245 C262 1.574 . S
C245 C264 1.368 . S
C245 H269 0.949 . S
H246 C250 0.949 . S
C247 C248 1.349 . S
C247 C249 1.327 . S
C247 H270 0.950 . S
C248 C247 1.349 . S
C248 C260 1.349 . S
C249 C247 1.327 . S
C249 C265 1.429 . S
C249 H271 0.950 . S
C250 H246 0.949 . S
C250 C258 1.574 . S
C250 C266 1.368 . S
H251 C259 0.950 . S
H252 C257 0.950 . S
H253 C258 0.949 . S
H254 C260 0.950 . S
H255 C261 0.950 . S
H256 C262 0.949 . S
C257 H252 0.950 . S
C257 C259 1.327 . S
C257 C263 1.429 . S
C258 C250 1.574 . S
C258 H253 0.949 . S
C258 C264 1.368 . S
C259 C243 1.349 . S
C259 H251 0.950 . S
C259 C257 1.327 . S
C260 C248 1.349 . S
C260 H254 0.950 . S
C260 C261 1.327 . S
C261 H255 0.950 . S
C261 C260 1.327 . S
C261 C265 1.429 . S
C262 C245 1.574 . S
C262 H256 0.949 . S
C262 C266 1.368 . S
C263 C244 1.429 . S
C263 C257 1.429 . S
C263 C264 1.523 . S
C264 C245 1.368 . S
C264 C258 1.368 . S
C264 C263 1.523 . S
C265 C249 1.429 . S
C265 C261 1.429 . S
C265 C266 1.523 . S
C266 C250 1.368 . S
C266 C262 1.368 . S
C266 C265 1.523 . S
H267 C242 0.950 . S
H268 C244 0.950 . S
H269 C245 0.949 . S
H270 C247 0.950 . S
H271 C249 0.950 . S
C272 C273 1.349 . S
C272 C274 1.327 . S
C272 H297 0.950 . S
C273 C272 1.349 . S
C273 C289 1.349 . S
C274 C272 1.327 . S
C274 C293 1.429 . S
C274 H298 0.950 . S
C275 C292 1.574 . S
C275 C294 1.368 . S
C275 H299 0.949 . S
H276 C280 0.949 . S
C277 C278 1.349 . S
C277 C279 1.327 . S
C277 H300 0.950 . S
C278 C277 1.349 . S
C278 C290 1.349 . S
C279 C277 1.327 . S
C279 C295 1.429 . S
C279 H301 0.950 . S
C280 H276 0.949 . S
C280 C288 1.574 . S
C280 C296 1.368 . S
H281 C289 0.950 . S
H282 C287 0.950 . S
H283 C288 0.949 . S
H284 C290 0.950 . S
H285 C291 0.950 . S
H286 C292 0.949 . S
C287 H282 0.950 . S
C287 C289 1.327 . S
C287 C293 1.429 . S
C288 C280 1.574 . S
C288 H283 0.949 . S
C288 C294 1.368 . S
C289 C273 1.349 . S
C289 H281 0.950 . S
C289 C287 1.327 . S
C290 C278 1.349 . S
C290 H284 0.950 . S
C290 C291 1.327 . S
C291 H285 0.950 . S
C291 C290 1.327 . S
C291 C295 1.429 . S
C292 C275 1.574 . S
C292 H286 0.949 . S
C292 C296 1.368 . S
C293 C274 1.429 . S
C293 C287 1.429 . S
C293 C294 1.523 . S
C294 C275 1.368 . S
C294 C288 1.368 . S
C294 C293 1.523 . S
C295 C279 1.429 . S
C295 C291 1.429 . S
C295 C296 1.523 . S
C296 C280 1.368 . S
C296 C292 1.368 . S
C296 C295 1.523 . S
H297 C272 0.950 . S
H298 C274 0.950 . S
H299 C275 0.949 . S
H300 C277 0.950 . S
H301 C279 0.950 . S
C63 C0 1.122 . S
C68 C41 1.134 . S
C93 C29 1.800 . S
C98 C33 1.798 . S
C123 C30 1.138 . S
C128 C50 1.121 . S
C153 C1 1.657 . S
C158 C51 1.656 . S
C183 C2 1.800 . S
C188 C60 1.801 . S
C218 C61 1.138 . S
C213 C19 1.123 . S
C243 C20 1.657 . S
C248 C32 1.659 . S
C278 C31 1.122 . S
C273 C10 1.142 . S
