# Generated by pormake.
# Topology dag, (6,3)-cn, num edge types: 1
# Building blocks:
#     Node 0, Type 0, BuildingBlock: MIDCAF_clean_sbu_0, # of connection points: 6
#     Node 1, Type 0, BuildingBlock: MIDCAF_clean_sbu_0, # of connection points: 6
#     Node 2, Type 0, BuildingBlock: MIDCAF_clean_sbu_0, # of connection points: 6
#     Node 3, Type 0, BuildingBlock: MIDCAF_clean_sbu_0, # of connection points: 6
#     Node 4, Type 1, BuildingBlock: WUSLED_clean_sbu_0, # of connection points: 3
#     Node 5, Type 1, BuildingBlock: WUSLED_clean_sbu_0, # of connection points: 3
#     Node 6, Type 1, BuildingBlock: WUSLED_clean_sbu_0, # of connection points: 3
#     Node 7, Type 1, BuildingBlock: WUSLED_clean_sbu_0, # of connection points: 3
#     Node 8, Type 1, BuildingBlock: WUSLED_clean_sbu_0, # of connection points: 3
#     Node 9, Type 1, BuildingBlock: WUSLED_clean_sbu_0, # of connection points: 3
#     Node 10, Type 1, BuildingBlock: WUSLED_clean_sbu_0, # of connection points: 3
#     Node 11, Type 1, BuildingBlock: WUSLED_clean_sbu_0, # of connection points: 3
#     Edge 12, Type (0, 1), BuildingBlock: UVAHIK_clean_linker_0, # of connection points: 2
#     Edge 13, Type (0, 1), BuildingBlock: UVAHIK_clean_linker_0, # of connection points: 2
#     Edge 14, Type (0, 1), BuildingBlock: UVAHIK_clean_linker_0, # of connection points: 2
#     Edge 15, Type (0, 1), BuildingBlock: UVAHIK_clean_linker_0, # of connection points: 2
#     Edge 16, Type (0, 1), BuildingBlock: UVAHIK_clean_linker_0, # of connection points: 2
#     Edge 17, Type (0, 1), BuildingBlock: UVAHIK_clean_linker_0, # of connection points: 2
#     Edge 18, Type (0, 1), BuildingBlock: UVAHIK_clean_linker_0, # of connection points: 2
#     Edge 19, Type (0, 1), BuildingBlock: UVAHIK_clean_linker_0, # of connection points: 2
#     Edge 20, Type (0, 1), BuildingBlock: UVAHIK_clean_linker_0, # of connection points: 2
#     Edge 21, Type (0, 1), BuildingBlock: UVAHIK_clean_linker_0, # of connection points: 2
#     Edge 22, Type (0, 1), BuildingBlock: UVAHIK_clean_linker_0, # of connection points: 2
#     Edge 23, Type (0, 1), BuildingBlock: UVAHIK_clean_linker_0, # of connection points: 2
#     Edge 24, Type (0, 1), BuildingBlock: UVAHIK_clean_linker_0, # of connection points: 2
#     Edge 25, Type (0, 1), BuildingBlock: UVAHIK_clean_linker_0, # of connection points: 2
#     Edge 26, Type (0, 1), BuildingBlock: UVAHIK_clean_linker_0, # of connection points: 2
#     Edge 27, Type (0, 1), BuildingBlock: UVAHIK_clean_linker_0, # of connection points: 2
#     Edge 28, Type (0, 1), BuildingBlock: UVAHIK_clean_linker_0, # of connection points: 2
#     Edge 29, Type (0, 1), BuildingBlock: UVAHIK_clean_linker_0, # of connection points: 2
#     Edge 30, Type (0, 1), BuildingBlock: UVAHIK_clean_linker_0, # of connection points: 2
#     Edge 31, Type (0, 1), BuildingBlock: UVAHIK_clean_linker_0, # of connection points: 2
#     Edge 32, Type (0, 1), BuildingBlock: UVAHIK_clean_linker_0, # of connection points: 2
#     Edge 33, Type (0, 1), BuildingBlock: UVAHIK_clean_linker_0, # of connection points: 2
#     Edge 34, Type (0, 1), BuildingBlock: UVAHIK_clean_linker_0, # of connection points: 2
#     Edge 35, Type (0, 1), BuildingBlock: UVAHIK_clean_linker_0, # of connection points: 2
# Relax obj value: 0.296
# Max RMSD: 0.189
# Mean RMSD: 0.177
data_MOF--net-dag--node1-MIDCAF_clean_sbu_0--node2-WUSLED_clean_sbu_0--edge1-UVAHIK_clean_linker_0
_symmetry_space_group_name_H-M    P1
_symmetry_Int_Tables_number       1
_symmetry_cell_setting            triclinic
loop_
_symmetry_equiv_pos_as_xyz
'x, y, z'
_cell_length_a     64.694807
_cell_length_b     63.46899
_cell_length_c     48.483798
_cell_angle_alpha  90.237662
_cell_angle_beta   94.018159
_cell_angle_gamma 90.24358
loop_
_atom_site_label
_atom_site_type_symbol
_atom_site_fract_x
_atom_site_fract_y
_atom_site_fract_z
_atom_type_partial_charge
Zn0 Zn 0.14523 0.83788 0.05061 0.0
Zn1 Zn 0.17694 0.87345 0.94969 0.0
Zn2 Zn 0.15032 0.85141 0.00441 0.0
C3 C 0.15855 0.90192 0.99033 0.0
C4 C 0.14449 0.8483 0.93578 0.0
O5 O 0.16919 0.82321 0.01383 0.0
O6 O 0.1521 0.80774 0.04572 0.0
C7 C 0.17182 0.87292 0.0558 0.0
O8 O 0.15567 0.88653 0.00722 0.0
O9 O 0.16493 0.89906 0.96647 0.0
O10 O 0.15777 0.85714 0.92172 0.0
O11 O 0.14677 0.84953 0.96191 0.0
O12 O 0.16728 0.85646 0.06867 0.0
O13 O 0.16426 0.87584 0.03095 0.0
O14 O 0.11729 0.84423 0.00699 0.0
O15 O 0.11548 0.844 0.05208 0.0
C16 C 0.10651 0.84321 0.02812 0.0
O17 O 0.17255 0.83212 0.98303 0.0
O18 O 0.19568 0.85692 0.97685 0.0
C19 C 0.1659 0.80709 0.02868 0.0
C20 C 0.19046 0.83774 0.97545 0.0
Zn21 Zn 0.64006 0.6369 0.44578 0.0
Zn22 Zn 0.64409 0.65869 0.54194 0.0
Zn23 Zn 0.6418 0.64773 0.49485 0.0
C24 C 0.64353 0.61702 0.54678 0.0
C25 C 0.60886 0.67661 0.51822 0.0
O26 O 0.66205 0.66958 0.47351 0.0
O27 O 0.65145 0.66275 0.43008 0.0
C28 C 0.66135 0.60509 0.47423 0.0
O29 O 0.64909 0.6199 0.52201 0.0
O30 O 0.63661 0.63223 0.5601 0.0
O31 O 0.62299 0.68107 0.53658 0.0
O32 O 0.61126 0.66112 0.50154 0.0
O33 O 0.65822 0.61214 0.45001 0.0
O34 O 0.65446 0.6153 0.49473 0.0
O35 O 0.60866 0.64968 0.47703 0.0
O36 O 0.61035 0.6323 0.43766 0.0
C37 C 0.59972 0.64146 0.45486 0.0
O38 O 0.66596 0.67268 0.50156 0.0
O39 O 0.67347 0.66797 0.54616 0.0
C40 C 0.66186 0.67391 0.44759 0.0
C41 C 0.67774 0.67628 0.52366 0.0
Zn42 Zn 0.8547 0.16242 0.01426 0.0
Zn43 Zn 0.85386 0.13265 0.10298 0.0
Zn44 Zn 0.85525 0.14802 0.05944 0.0
C45 C 0.89454 0.13309 0.09646 0.0
C46 C 0.83008 0.10701 0.07038 0.0
O47 O 0.83165 0.17345 0.0554 0.0
O48 O 0.82607 0.17352 0.00998 0.0
C49 C 0.88993 0.17785 0.04273 0.0
O50 O 0.88734 0.14753 0.07983 0.0
O51 O 0.88212 0.12029 0.10646 0.0
O52 O 0.82948 0.11387 0.09475 0.0
O53 O 0.84192 0.11605 0.05367 0.0
O54 O 0.87663 0.18359 0.02405 0.0
O55 O 0.88649 0.16145 0.05726 0.0
O56 O 0.84906 0.12194 0.02873 0.0
O57 O 0.86198 0.13712 0.99291 0.0
C58 C 0.85524 0.12079 0.00406 0.0
O59 O 0.83522 0.16845 0.08311 0.0
O60 O 0.84968 0.15918 0.12365 0.0
C61 C 0.82104 0.17952 0.03341 0.0
C62 C 0.8383 0.17164 0.1093 0.0
Zn63 Zn 0.35158 0.37051 0.60239 0.0
Zn64 Zn 0.3568 0.33923 0.51374 0.0
Zn65 Zn 0.35319 0.35383 0.55853 0.0
C66 C 0.39658 0.34865 0.53521 0.0
C67 C 0.32841 0.37305 0.50818 0.0
O68 O 0.33004 0.33625 0.58108 0.0
O69 O 0.32023 0.36538 0.60106 0.0
C70 C 0.36526 0.33109 0.61231 0.0
O71 O 0.38643 0.35106 0.55667 0.0
O72 O 0.38702 0.34557 0.51191 0.0
O73 O 0.33494 0.35751 0.49497 0.0
O74 O 0.33494 0.37616 0.53348 0.0
O75 O 0.3698 0.3494 0.62101 0.0
O76 O 0.35309 0.32894 0.59031 0.0
O77 O 0.34412 0.38831 0.55661 0.0
O78 O 0.3633 0.39801 0.59372 0.0
C79 C 0.35326 0.40295 0.57153 0.0
O80 O 0.33653 0.32318 0.55934 0.0
O81 O 0.34835 0.30965 0.52148 0.0
C82 C 0.31632 0.34649 0.59386 0.0
C83 C 0.33794 0.30763 0.54239 0.0
C84 C 0.11285 0.1103 0.31548 0.0
C85 C 0.10877 0.09569 0.29395 0.0
C86 C 0.07677 0.11396 0.27944 0.0
C87 C 0.09094 0.09751 0.27609 0.0
C88 C 0.08066 0.12816 0.30163 0.0
C89 C 0.09856 0.12636 0.31944 0.0
U90 U 0.16224 0.08151 0.33711 0.0
O91 O 0.1946 0.09244 0.34093 0.0
O92 O 0.18072 0.07857 0.37675 0.0
C93 C 0.19696 0.08799 0.3674 0.0
C94 C 0.1325 0.10951 0.33271 0.0
C95 C 0.20657 0.10467 0.38506 0.0
C96 C 0.20496 0.13828 0.40884 0.0
C97 C 0.19532 0.12241 0.3924 0.0
C98 C 0.23717 0.11882 0.41057 0.0
C99 C 0.22605 0.13673 0.41808 0.0
C100 C 0.22749 0.10295 0.39427 0.0
C101 C 0.17076 0.02828 0.30294 0.0
C102 C 0.2041 0.0137 0.29293 0.0
C103 C 0.17272 0.99304 0.2841 0.0
C104 C 0.1611 0.0094 0.29433 0.0
C105 C 0.19423 0.99535 0.28219 0.0
C106 C 0.19243 0.03006 0.30332 0.0
C107 C 0.15784 0.04657 0.30839 0.0
O108 O 0.13368 0.09501 0.35205 0.0
O109 O 0.14917 0.11051 0.31875 0.0
O110 O 0.164 0.06444 0.29803 0.0
O111 O 0.15181 0.04841 0.33361 0.0
H112 H 0.11967 0.08319 0.29055 0.0
H113 H 0.08862 0.08642 0.2591 0.0
H114 H 0.06993 0.14079 0.30513 0.0
H115 H 0.10142 0.13773 0.33601 0.0
H116 H 0.19583 0.15168 0.41449 0.0
H117 H 0.17913 0.12397 0.38538 0.0
H118 H 0.25348 0.11722 0.41686 0.0
H119 H 0.23641 0.08937 0.38862 0.0
H120 H 0.22065 0.01584 0.29197 0.0
H121 H 0.16454 0.97927 0.2757 0.0
H122 H 0.1444 0.00776 0.29398 0.0
H123 H 0.20019 0.0445 0.31022 0.0
C124 C 0.32313 0.66222 0.64969 0.0
C125 C 0.34131 0.65631 0.63756 0.0
C126 C 0.32741 0.62102 0.62882 0.0
C127 C 0.34346 0.6359 0.6273 0.0
C128 C 0.30903 0.62717 0.64052 0.0
C129 C 0.30694 0.64761 0.65092 0.0
U130 U 0.3438 0.71746 0.6555 0.0
O131 O 0.32863 0.74839 0.65676 0.0
O132 O 0.35054 0.73859 0.69092 0.0
C133 C 0.33699 0.7527 0.68166 0.0
C134 C 0.32127 0.68356 0.66115 0.0
C135 C 0.32261 0.75956 0.70182 0.0
C136 C 0.2965 0.75142 0.73371 0.0
C137 C 0.30886 0.74518 0.71268 0.0
C138 C 0.31113 0.78663 0.73255 0.0
C139 C 0.29775 0.77213 0.74418 0.0
C140 C 0.32349 0.78036 0.71154 0.0
C141 C 0.39133 0.72974 0.61579 0.0
C142 C 0.42114 0.75225 0.62781 0.0
C143 C 0.41347 0.74097 0.58036 0.0
C144 C 0.39602 0.73017 0.58808 0.0
C145 C 0.42667 0.75147 0.60029 0.0
C146 C 0.40354 0.74151 0.63551 0.0
C147 C 0.37476 0.71558 0.62374 0.0
O148 O 0.33654 0.6892 0.67903 0.0
O149 O 0.31626 0.69827 0.6429 0.0
O150 O 0.35585 0.7205 0.61432 0.0
O151 O 0.37605 0.70925 0.64958 0.0
H152 H 0.35392 0.66747 0.6362 0.0
H153 H 0.35768 0.6318 0.61806 0.0
H154 H 0.29645 0.61604 0.6422 0.0
H155 H 0.29277 0.65195 0.66015 0.0
H156 H 0.28654 0.73983 0.74245 0.0
H157 H 0.30811 0.72901 0.7054 0.0
H158 H 0.31222 0.80276 0.73992 0.0
H159 H 0.33404 0.79162 0.70328 0.0
H160 H 0.43094 0.76032 0.64356 0.0
H161 H 0.4174 0.73973 0.55907 0.0
H162 H 0.38676 0.72126 0.57258 0.0
H163 H 0.40003 0.74165 0.65703 0.0
C164 C 0.76831 0.86008 0.12767 0.0
C165 C 0.77855 0.86647 0.10454 0.0
C166 C 0.76366 0.90141 0.10759 0.0
C167 C 0.77615 0.88694 0.09448 0.0
C168 C 0.75312 0.89483 0.13048 0.0
C169 C 0.75541 0.87426 0.14041 0.0
U170 U 0.80238 0.81209 0.13636 0.0
O171 O 0.81244 0.79403 0.17336 0.0
O172 O 0.79385 0.77854 0.13941 0.0
C173 C 0.80111 0.77756 0.1654 0.0
C174 C 0.77221 0.83921 0.1397 0.0
C175 C 0.78597 0.77126 0.18505 0.0
C176 C 0.75989 0.78127 0.21626 0.0
C177 C 0.77315 0.78657 0.19588 0.0
C178 C 0.77113 0.74495 0.21407 0.0
C179 C 0.75904 0.7605 0.22596 0.0
C180 C 0.7846 0.75034 0.1938 0.0
C181 C 0.85324 0.81505 0.09707 0.0
C182 C 0.89029 0.80997 0.10727 0.0
C183 C 0.8764 0.81296 0.05978 0.0
C184 C 0.85645 0.81491 0.06876 0.0
C185 C 0.89365 0.81125 0.07895 0.0
C186 C 0.87027 0.8119 0.11627 0.0
C187 C 0.83287 0.82189 0.10574 0.0
O188 O 0.77143 0.82343 0.122 0.0
O189 O 0.78825 0.83837 0.15782 0.0
O190 O 0.81637 0.81129 0.09609 0.0
O191 O 0.83203 0.828 0.13159 0.0
H192 H 0.78882 0.85578 0.09469 0.0
H193 H 0.78474 0.89169 0.07713 0.0
H194 H 0.74336 0.90567 0.14091 0.0
H195 H 0.7475 0.86958 0.1584 0.0
H196 H 0.75055 0.79349 0.22478 0.0
H197 H 0.77379 0.80279 0.18908 0.0
H198 H 0.77082 0.72883 0.22127 0.0
H199 H 0.79426 0.73831 0.18549 0.0
H200 H 0.90323 0.8087 0.12259 0.0
H201 H 0.87839 0.81355 0.0378 0.0
H202 H 0.8436 0.81739 0.05356 0.0
H203 H 0.8683 0.81198 0.13827 0.0
C204 C 0.65576 0.42571 0.79528 0.0
C205 C 0.63975 0.42785 0.77447 0.0
C206 C 0.65646 0.45894 0.75681 0.0
C207 C 0.64015 0.44416 0.75538 0.0
C208 C 0.67245 0.45687 0.77793 0.0
C209 C 0.6721 0.44034 0.79702 0.0
U210 U 0.62458 0.38174 0.82125 0.0
O211 O 0.63106 0.34806 0.8276 0.0
O212 O 0.62131 0.36749 0.86197 0.0
C213 C 0.62772 0.34893 0.854 0.0
C214 C 0.65517 0.40792 0.81454 0.0
C215 C 0.64322 0.33842 0.87267 0.0
C216 C 0.67477 0.33872 0.90292 0.0
C217 C 0.66039 0.34928 0.88507 0.0
C218 C 0.65505 0.30637 0.8957 0.0
C219 C 0.67224 0.31711 0.9085 0.0
C220 C 0.64068 0.31695 0.87806 0.0
C221 C 0.56982 0.37666 0.7876 0.0
C222 C 0.54997 0.34414 0.78825 0.0
C223 C 0.5348 0.37525 0.76635 0.0
C224 C 0.55295 0.38658 0.77354 0.0
C225 C 0.53331 0.35376 0.77303 0.0
C226 C 0.56809 0.35553 0.79555 0.0
C227 C 0.5896 0.38796 0.79181 0.0
O228 O 0.64239 0.4102 0.83427 0.0
O229 O 0.65355 0.38939 0.80236 0.0
O230 O 0.6055 0.37814 0.78233 0.0
O231 O 0.5937 0.39637 0.81641 0.0
H232 H 0.62701 0.41669 0.77277 0.0
H233 H 0.62781 0.4449 0.73914 0.0
H234 H 0.68514 0.46807 0.77981 0.0
H235 H 0.68456 0.43894 0.81303 0.0
H236 H 0.68771 0.34754 0.91258 0.0
H237 H 0.66263 0.36588 0.88104 0.0
H238 H 0.65281 0.28967 0.89896 0.0
H239 H 0.62756 0.30831 0.86848 0.0
H240 H 0.54916 0.32769 0.79398 0.0
H241 H 0.52233 0.38308 0.75441 0.0
H242 H 0.55408 0.40289 0.76725 0.0
H243 H 0.58099 0.34767 0.80658 0.0
C244 C 0.63778 0.28536 0.44064 0.0
C245 C 0.63491 0.30375 0.45603 0.0
C246 C 0.59984 0.29279 0.46419 0.0
C247 C 0.61614 0.30746 0.46762 0.0
C248 C 0.603 0.27391 0.44975 0.0
C249 C 0.62186 0.27027 0.43789 0.0
U250 U 0.68875 0.30873 0.4278 0.0
O251 O 0.71999 0.29617 0.4228 0.0
O252 O 0.70436 0.31549 0.39011 0.0
C253 C 0.7208 0.30439 0.39804 0.0
C254 C 0.65697 0.283 0.42635 0.0
C255 C 0.72906 0.29105 0.37671 0.0
C256 C 0.72489 0.26445 0.3406 0.0
C257 C 0.71705 0.27537 0.36274 0.0
C258 C 0.75682 0.28457 0.34678 0.0
C259 C 0.74479 0.26914 0.33215 0.0
C260 C 0.74903 0.29536 0.36885 0.0
C261 C 0.70066 0.36069 0.46544 0.0
C262 C 0.72515 0.38679 0.45083 0.0
C263 C 0.70811 0.39187 0.49332 0.0
C264 C 0.69778 0.37269 0.48908 0.0
C265 C 0.7215 0.39943 0.47389 0.0
C266 C 0.71483 0.3675 0.44667 0.0
C267 C 0.6876 0.34204 0.45972 0.0
O268 O 0.65939 0.29736 0.40737 0.0
O269 O 0.67383 0.28004 0.44265 0.0
O270 O 0.69543 0.32398 0.46839 0.0
O271 O 0.67847 0.34107 0.43467 0.0
H272 H 0.64706 0.31555 0.45848 0.0
H273 H 0.61426 0.32201 0.47892 0.0
H274 H 0.59065 0.26239 0.44672 0.0
H275 H 0.62381 0.256 0.42605 0.0
H276 H 0.71533 0.25248 0.32998 0.0
H277 H 0.70154 0.27191 0.3686 0.0
H278 H 0.77204 0.28887 0.34062 0.0
H279 H 0.75842 0.30756 0.37931 0.0
H280 H 0.73545 0.39214 0.4356 0.0
H281 H 0.70462 0.40135 0.51102 0.0
H282 H 0.68686 0.36765 0.50371 0.0
H283 H 0.71731 0.35829 0.42833 0.0
C284 C 0.10484 0.2561 0.91437 0.0
C285 C 0.10278 0.24448 0.93857 0.0
C286 C 0.06892 0.25978 0.94358 0.0
C287 C 0.08508 0.24641 0.95311 0.0
C288 C 0.07091 0.27142 0.91926 0.0
C289 C 0.08886 0.26966 0.9048 0.0
U290 U 0.14789 0.22043 0.89747 0.0
O291 O 0.16179 0.21207 0.85897 0.0
O292 O 0.18107 0.22659 0.89311 0.0
C293 C 0.17972 0.22076 0.86699 0.0
C294 C 0.12316 0.25294 0.89858 0.0
C295 C 0.1879 0.23585 0.84745 0.0
C296 C 0.18224 0.26081 0.80984 0.0
C297 C 0.17446 0.24833 0.83043 0.0
C298 C 0.21712 0.24979 0.82438 0.0
C299 C 0.20359 0.26124 0.80617 0.0
C300 C 0.2093 0.2371 0.84479 0.0
C301 C 0.14535 0.16624 0.93456 0.0
C302 C 0.16212 0.13321 0.92403 0.0
C303 C 0.14204 0.1359 0.96422 0.0
C304 C 0.13773 0.15692 0.95792 0.0
C305 C 0.15417 0.12369 0.94731 0.0
C306 C 0.15773 0.15436 0.91769 0.0
C307 C 0.13873 0.18781 0.92754 0.0
O308 O 0.14079 0.25175 0.9137 0.0
O309 O 0.12106 0.2382 0.87946 0.0
O310 O 0.13099 0.19075 0.90208 0.0
O311 O 0.15086 0.20327 0.93702 0.0
H312 H 0.11475 0.2336 0.94602 0.0
H313 H 0.08375 0.23687 0.9714 0.0
H314 H 0.05859 0.28174 0.91143 0.0
H315 H 0.09012 0.27858 0.88599 0.0
H316 H 0.17152 0.26973 0.79632 0.0
H317 H 0.15789 0.24791 0.83245 0.0
H318 H 0.23364 0.2498 0.82197 0.0
H319 H 0.21991 0.22774 0.85791 0.0
H320 H 0.17165 0.12433 0.91068 0.0
H321 H 0.13527 0.12907 0.98195 0.0
H322 H 0.12795 0.16579 0.971 0.0
H323 H 0.16369 0.16131 0.89947 0.0
C324 C 0.32533 0.51931 0.25419 0.0
C325 C 0.33479 0.50077 0.26394 0.0
C326 C 0.3016 0.48769 0.27754 0.0
C327 C 0.32304 0.48505 0.27546 0.0
C328 C 0.29188 0.5055 0.26542 0.0
C329 C 0.30368 0.52121 0.25376 0.0
U330 U 0.33388 0.57234 0.22002 0.0
O331 O 0.30158 0.58317 0.21732 0.0
O332 O 0.31486 0.56957 0.18079 0.0
C333 C 0.29898 0.5792 0.19068 0.0
C334 C 0.33843 0.53744 0.2483 0.0
C335 C 0.28995 0.59648 0.17391 0.0
C336 C 0.25935 0.61439 0.15429 0.0
C337 C 0.26837 0.59775 0.16948 0.0
C338 C 0.29347 0.62856 0.14749 0.0
C339 C 0.2718 0.62997 0.14317 0.0
C340 C 0.30249 0.61199 0.16291 0.0
C341 C 0.38323 0.60204 0.24109 0.0
C342 C 0.41241 0.62297 0.25989 0.0
C343 C 0.40753 0.58744 0.27642 0.0
C344 C 0.38983 0.58529 0.25831 0.0
C345 C 0.41892 0.60642 0.27769 0.0
C346 C 0.39473 0.62078 0.24179 0.0
C347 C 0.36348 0.60074 0.22424 0.0
O348 O 0.33274 0.55535 0.25904 0.0
O349 O 0.34393 0.53918 0.22281 0.0
O350 O 0.34704 0.60144 0.23862 0.0
O351 O 0.36224 0.58616 0.20481 0.0
H352 H 0.35147 0.49905 0.26436 0.0
H353 H 0.33111 0.47168 0.28482 0.0
H354 H 0.27538 0.50786 0.26644 0.0
H355 H 0.29609 0.5354 0.24601 0.0
H356 H 0.24262 0.61498 0.15107 0.0
H357 H 0.25848 0.58593 0.17791 0.0
H358 H 0.3034 0.64048 0.1394 0.0
H359 H 0.3192 0.61134 0.1664 0.0
H360 H 0.42058 0.6379 0.26055 0.0
H361 H 0.41223 0.57429 0.28954 0.0
H362 H 0.38102 0.57072 0.25814 0.0
H363 H 0.38973 0.63394 0.22885 0.0
C364 C 0.84214 0.92588 0.75671 0.0
C365 C 0.8605 0.93232 0.77149 0.0
C366 C 0.84151 0.95815 0.79684 0.0
C367 C 0.86021 0.94828 0.79132 0.0
C368 C 0.82312 0.95177 0.78177 0.0
C369 C 0.82344 0.93572 0.76185 0.0
U370 U 0.87314 0.88186 0.73093 0.0
O371 O 0.86656 0.84827 0.72358 0.0
O372 O 0.87694 0.86795 0.68995 0.0
C373 C 0.87042 0.8493 0.69736 0.0
C374 C 0.84264 0.90792 0.73753 0.0
C375 C 0.8553 0.83882 0.67792 0.0
C376 C 0.82014 0.83343 0.6581 0.0
C377 C 0.83431 0.84447 0.676 0.0
C378 C 0.84797 0.81133 0.64375 0.0
C379 C 0.82682 0.81657 0.64201 0.0
C380 C 0.86205 0.82236 0.66156 0.0
C381 C 0.92764 0.87708 0.76527 0.0
C382 C 0.94737 0.84459 0.76748 0.0
C383 C 0.96353 0.87746 0.78314 0.0
C384 C 0.94511 0.88813 0.77617 0.0
C385 C 0.96471 0.85552 0.77942 0.0
C386 C 0.92897 0.85532 0.76031 0.0
C387 C 0.90786 0.88816 0.76099 0.0
O388 O 0.85544 0.91007 0.71778 0.0
O389 O 0.84417 0.88953 0.74982 0.0
O390 O 0.89184 0.87821 0.77004 0.0
O391 O 0.90401 0.89674 0.73655 0.0
H392 H 0.87506 0.9247 0.76806 0.0
H393 H 0.8746 0.9525 0.80282 0.0
H394 H 0.8085 0.95919 0.78535 0.0
H395 H 0.8091 0.93082 0.75075 0.0
H396 H 0.80393 0.83771 0.65736 0.0
H397 H 0.82888 0.85717 0.68859 0.0
H398 H 0.85365 0.79867 0.63133 0.0
H399 H 0.87823 0.81787 0.66277 0.0
H400 H 0.94794 0.82772 0.76415 0.0
H401 H 0.97657 0.88627 0.79258 0.0
H402 H 0.94432 0.90492 0.78011 0.0
H403 H 0.91561 0.84657 0.75167 0.0
C404 C 0.20135 0.88284 0.08841 0.0
C405 C 0.1843 0.88909 0.07089 0.0
C406 C 0.20985 0.89652 0.10875 0.0
C407 C 0.18823 0.93136 0.15479 0.0
H408 H 0.24403 0.94528 0.18402 0.0
C409 C 0.2173 0.98836 0.24399 0.0
C410 C 0.20517 0.98046 0.26465 0.0
C411 C 0.22172 0.9757 0.22154 0.0
C412 C 0.22845 0.94129 0.17604 0.0
H413 H 0.16376 0.91481 0.05907 0.0
H414 H 0.17839 0.93876 0.09518 0.0
H415 H 0.23839 0.92935 0.13753 0.0
H416 H 0.19112 0.95227 0.28034 0.0
H417 H 0.19848 0.9303 0.24076 0.0
H418 H 0.17817 0.94255 0.19315 0.0
C419 C 0.18536 0.92342 0.09285 0.0
C420 C 0.22522 0.93242 0.14954 0.0
C421 C 0.17707 0.90982 0.07217 0.0
C422 C 0.20005 0.95891 0.26438 0.0
C423 C 0.20434 0.94632 0.24185 0.0
C424 C 0.19147 0.93969 0.18128 0.0
C425 C 0.2011 0.91644 0.11212 0.0
C426 C 0.20503 0.92758 0.13871 0.0
C427 C 0.214 0.95505 0.21948 0.0
C428 C 0.21156 0.94469 0.19218 0.0
H429 H 0.20711 0.86686 0.08765 0.0
H430 H 0.22187 0.89078 0.12348 0.0
H431 H 0.17257 0.92733 0.14711 0.0
H432 H 0.22149 0.00489 0.24353 0.0
H433 H 0.22919 0.98273 0.20448 0.0
C434 C 0.59254 0.71151 0.52099 0.0
C435 C 0.59023 0.68976 0.51642 0.0
C436 C 0.57542 0.72397 0.52521 0.0
C437 C 0.51831 0.72569 0.52198 0.0
H438 H 0.52756 0.75974 0.5885 0.0
C439 C 0.46505 0.75141 0.60961 0.0
C440 C 0.44762 0.75792 0.59292 0.0
C441 C 0.48443 0.75042 0.59874 0.0
C442 C 0.52484 0.75056 0.56969 0.0
H443 H 0.56827 0.66404 0.51072 0.0
H444 H 0.538 0.68586 0.51877 0.0
H445 H 0.55664 0.74167 0.56949 0.0
H446 H 0.43739 0.77183 0.55357 0.0
H447 H 0.47127 0.76979 0.53444 0.0
H448 H 0.48633 0.73378 0.523 0.0
C449 C 0.55309 0.69332 0.51871 0.0
C450 C 0.54145 0.74027 0.55871 0.0
C451 C 0.57033 0.68082 0.51411 0.0
C452 C 0.45048 0.7662 0.5666 0.0
C453 C 0.46982 0.76504 0.55566 0.0
C454 C 0.50173 0.73613 0.53283 0.0
C455 C 0.55564 0.71487 0.52533 0.0
C456 C 0.53828 0.72739 0.53506 0.0
C457 C 0.48661 0.75588 0.57104 0.0
C458 C 0.50478 0.7483 0.5571 0.0
H459 H 0.60779 0.71875 0.52246 0.0
H460 H 0.57778 0.7406 0.52957 0.0
H461 H 0.51543 0.71595 0.5037 0.0
H462 H 0.46342 0.74493 0.62998 0.0
H463 H 0.49715 0.74335 0.6111 0.0
C464 C 0.8278 0.07004 0.05332 0.0
C465 C 0.81795 0.08816 0.06231 0.0
C466 C 0.81708 0.05086 0.05137 0.0
C467 C 0.77317 0.02528 0.08296 0.0
H468 H 0.7886 0.97828 0.03762 0.0
C469 C 0.7662 0.93989 0.1183 0.0
C470 C 0.76305 0.92369 0.09865 0.0
C471 C 0.76828 0.96074 0.10988 0.0
C472 C 0.78373 0.99128 0.05013 0.0
H473 H 0.78909 0.10116 0.07446 0.0
H474 H 0.76996 0.068 0.06968 0.0
H475 H 0.80026 0.01361 0.02704 0.0
H476 H 0.75835 0.91666 0.0549 0.0
H477 H 0.76149 0.95321 0.04011 0.0
H478 H 0.75641 0.00304 0.1058 0.0
C479 C 0.78609 0.06823 0.06504 0.0
C480 C 0.7907 0.01154 0.04429 0.0
C481 C 0.79694 0.08726 0.06752 0.0
C482 C 0.76103 0.92885 0.07045 0.0
C483 C 0.7629 0.94976 0.06201 0.0
C484 C 0.76597 0.0051 0.08853 0.0
C485 C 0.79626 0.04957 0.05814 0.0
C486 C 0.78609 0.0287 0.0612 0.0
C487 C 0.76705 0.9659 0.08161 0.0
C488 C 0.77176 0.98773 0.07282 0.0
H489 H 0.8441 0.07043 0.04955 0.0
H490 H 0.82556 0.03687 0.04628 0.0
H491 H 0.76939 0.03797 0.09669 0.0
H492 H 0.7681 0.93634 0.14016 0.0
H493 H 0.77183 0.97263 0.1256 0.0
C494 C 0.39948 0.31573 0.61441 0.0
C495 C 0.37918 0.31432 0.62247 0.0
C496 C 0.41606 0.30865 0.63166 0.0
C497 C 0.45066 0.29637 0.67231 0.0
H498 H 0.44034 0.31663 0.74557 0.0
C499 C 0.51794 0.32144 0.74966 0.0
C500 C 0.51513 0.34118 0.7621 0.0
C501 C 0.50118 0.31078 0.73611 0.0
C502 C 0.44351 0.31088 0.72524 0.0
H503 H 0.35984 0.30255 0.65357 0.0
H504 H 0.38878 0.28871 0.68336 0.0
H505 H 0.41134 0.30845 0.71292 0.0
H506 H 0.49239 0.36463 0.77149 0.0
H507 H 0.46327 0.34635 0.74745 0.0
H508 H 0.48286 0.30084 0.68392 0.0
C509 C 0.39203 0.2959 0.66391 0.0
C510 C 0.42682 0.30577 0.70654 0.0
C511 C 0.37538 0.30339 0.64664 0.0
C512 C 0.49506 0.34955 0.76186 0.0
C513 C 0.47833 0.33891 0.74833 0.0
C514 C 0.46735 0.30178 0.6909 0.0
C515 C 0.41265 0.29988 0.65755 0.0
C516 C 0.43012 0.29936 0.67937 0.0
C517 C 0.48125 0.31961 0.73475 0.0
C518 C 0.46392 0.30994 0.71719 0.0
H519 H 0.40275 0.32516 0.59674 0.0
H520 H 0.43151 0.31248 0.62596 0.0
H521 H 0.45389 0.29103 0.65182 0.0
H522 H 0.53325 0.31465 0.74928 0.0
H523 H 0.50395 0.29587 0.72611 0.0
C524 C 0.67844 0.57366 0.45487 0.0
C525 C 0.67353 0.58548 0.47812 0.0
C526 C 0.69062 0.55566 0.45787 0.0
C527 C 0.70524 0.51418 0.50707 0.0
H528 H 0.74345 0.49949 0.4519 0.0
C529 C 0.73481 0.43053 0.50199 0.0
C530 C 0.72903 0.42154 0.47602 0.0
C531 C 0.73612 0.45239 0.50511 0.0
C532 C 0.73301 0.50346 0.46762 0.0
H533 H 0.67829 0.58801 0.5224 0.0
H534 H 0.69903 0.55597 0.52808 0.0
H535 H 0.72895 0.53497 0.45268 0.0
H536 H 0.72252 0.4283 0.43244 0.0
H537 H 0.72497 0.46629 0.43785 0.0
H538 H 0.70849 0.48249 0.52124 0.0
C539 C 0.69332 0.56069 0.5075 0.0
C540 C 0.72463 0.52371 0.46801 0.0
C541 C 0.68124 0.57888 0.50439 0.0
C542 C 0.72703 0.43469 0.45274 0.0
C543 C 0.72843 0.45653 0.45585 0.0
C544 C 0.71366 0.49399 0.50675 0.0
C545 C 0.6982 0.54893 0.4842 0.0
C546 C 0.71003 0.529 0.48706 0.0
C547 C 0.7318 0.46561 0.48229 0.0
C548 C 0.72703 0.48818 0.48638 0.0
H549 H 0.67285 0.57826 0.4342 0.0
H550 H 0.69372 0.54675 0.43952 0.0
H551 H 0.69392 0.51769 0.52186 0.0
H552 H 0.73695 0.42074 0.5202 0.0
H553 H 0.73918 0.45898 0.52564 0.0
C554 C 0.92857 0.18013 0.04689 0.0
C555 C 0.90926 0.19007 0.0463 0.0
C556 C 0.94639 0.19192 0.04246 0.0
C557 C 0.95932 0.24017 0.00551 0.0
H558 H 0.01543 0.22635 0.03219 0.0
C559 C 0.03038 0.25657 0.9438 0.0
C560 C 0.04963 0.26016 0.95828 0.0
C561 C 0.01278 0.25265 0.95817 0.0
C562 C -0.00015 0.23074 0.02484 0.0
H563 H 0.89342 0.22006 0.04358 0.0
H564 H 0.92447 0.2407 0.037 0.0
H565 H 0.9864 0.21038 0.05388 0.0
H566 H 0.06529 0.26446 0.9989 0.0
H567 H 0.03449 0.25807 0.02402 0.0
H568 H 0.97274 0.2604 0.97636 0.0
C569 C 0.92594 0.22384 0.03983 0.0
C570 C 0.98322 0.22134 0.03708 0.0
C571 C 0.90821 0.21207 0.04387 0.0
C572 C 0.05066 0.2614 0.98728 0.0
C573 C 0.03306 0.25763 1.00164 0.0
C574 C 0.97594 0.2496 0.99335 0.0
C575 C 0.94505 0.2138 0.03764 0.0
C576 C 0.96276 0.22561 0.02718 0.0
C577 C 0.0141 0.25239 0.98729 0.0
C578 C 0.99641 0.24464 0.00245 0.0
H579 H 0.92966 0.16315 0.0485 0.0
H580 H 0.96086 0.18366 0.04083 0.0
H581 H 0.94378 0.24364 0.99706 0.0
H582 H 0.0292 0.2554 0.92145 0.0
H583 H 0.99846 0.24854 0.94644 0.0
C584 C 0.32081 0.40955 0.49237 0.0
C585 C 0.31507 0.38827 0.49293 0.0
C586 C 0.31175 0.42281 0.47206 0.0
C587 C 0.27181 0.42711 0.41328 0.0
H588 H 0.3179 0.4491 0.37498 0.0
C589 C 0.29562 0.4526 0.29916 0.0
C590 C 0.29071 0.4741 0.29677 0.0
C591 C 0.29147 0.44158 0.32301 0.0
C592 C 0.3049 0.44309 0.38556 0.0
H593 H 0.29437 0.36439 0.47462 0.0
H594 H 0.2785 0.38749 0.43912 0.0
H595 H 0.32427 0.43425 0.42093 0.0
H596 H 0.275 0.50002 0.31577 0.0
H597 H 0.26752 0.48053 0.35715 0.0
H598 H 0.25258 0.43593 0.37712 0.0
C599 C 0.28977 0.39409 0.45438 0.0
C600 C 0.30847 0.43488 0.41198 0.0
C601 C 0.29892 0.38084 0.47457 0.0
C602 C 0.27896 0.48347 0.31687 0.0
C603 C 0.27466 0.47236 0.34063 0.0
C604 C 0.26819 0.43569 0.38679 0.0
C605 C 0.2969 0.41488 0.45202 0.0
C606 C 0.29205 0.42651 0.42599 0.0
C607 C 0.28204 0.45181 0.34451 0.0
C608 C 0.28484 0.44328 0.37264 0.0
H609 H 0.33363 0.41542 0.50581 0.0
H610 H 0.31746 0.43882 0.47073 0.0
H611 H 0.25892 0.42065 0.42364 0.0
H612 H 0.30431 0.44484 0.28377 0.0
H613 H 0.29726 0.42568 0.32572 0.0
C614 C 0.10691 0.84025 0.93151 0.0
C615 C 0.12669 0.83712 0.92226 0.0
C616 C 0.08948 0.83251 0.91612 0.0
C617 C 0.05331 0.81425 0.88177 0.0
H618 H 0.05907 0.82241 0.80349 0.0
C619 C 0.98183 0.82603 0.8064 0.0
C620 C 0.98351 0.84409 0.78999 0.0
C621 C -0.00054 0.81724 0.82008 0.0
C622 C 0.05718 0.81996 0.82527 0.0
H623 H 0.14431 0.82156 0.89188 0.0
H624 H 0.11397 0.80678 0.8658 0.0
H625 H 0.08971 0.82107 0.83487 0.0
H626 H 0.00497 0.86616 0.77336 0.0
H627 H 0.0356 0.85122 0.79749 0.0
H628 H 0.02058 0.81532 0.87218 0.0
C629 C 0.11166 0.81619 0.88399 0.0
C630 C 0.07484 0.81885 0.84337 0.0
C631 C 0.12906 0.82453 0.89892 0.0
C632 C 0.00322 0.85238 0.78612 0.0
C633 C 0.0208 0.84362 0.79972 0.0
C634 C 0.03561 0.81573 0.86366 0.0
C635 C 0.09158 0.821 0.89155 0.0
C636 C 0.07314 0.81696 0.87205 0.0
C637 C 0.01908 0.82632 0.81749 0.0
C638 C 0.03739 0.8196 0.83539 0.0
H639 H 0.10482 0.84994 0.94955 0.0
H640 H 0.07439 0.83685 0.92261 0.0
H641 H 0.05137 0.81214 0.90359 0.0
H642 H 0.96679 0.81937 0.80987 0.0
H643 H 0.99766 0.8038 0.8334 0.0
C644 C 0.83714 0.08738 0.98791 0.0
C645 C 0.85431 0.10098 0.98798 0.0
C646 C 0.83515 0.07049 0.96911 0.0
C647 C 0.85174 0.05663 0.90047 0.0
H648 H 0.83322 -1e-05 0.91579 0.0
C649 C 0.8575 0.98964 0.82165 0.0
C650 C 0.84136 0.97473 0.81862 0.0
C651 C 0.85805 0.00459 0.84288 0.0
C652 C 0.83814 0.01583 0.91112 0.0
H653 H 0.88337 0.10706 0.96977 0.0
H654 H 0.88009 0.07763 0.93741 0.0
H655 H 0.83647 0.02617 0.95317 0.0
H656 H 0.81307 0.96395 0.83562 0.0
H657 H 0.81375 0.99047 0.87239 0.0
H658 H 0.85334 0.04658 0.85859 0.0
C659 C 0.86795 0.0801 0.95136 0.0
C660 C 0.84005 0.03078 0.93255 0.0
C661 C 0.86989 0.09688 0.96998 0.0
C662 C 0.82561 0.97534 0.83719 0.0
C663 C 0.82614 0.99036 0.85849 0.0
C664 C 0.84976 0.0418 0.87915 0.0
C665 C 0.85027 0.06713 0.95004 0.0
C666 C 0.8472 0.05124 0.92749 0.0
C667 C 0.84241 0.00513 0.86162 0.0
C668 C 0.84325 0.02112 0.88424 0.0
H669 H 0.82471 0.09053 1.00114 0.0
H670 H 0.82131 0.06079 0.96851 0.0
H671 H 0.85678 0.07242 0.89573 0.0
H672 H 0.86977 0.98979 0.80756 0.0
H673 H 0.87095 0.01554 0.84485 0.0
C674 C 0.43123 0.35985 0.52164 0.0
C675 C 0.41926 0.34645 0.53706 0.0
C676 C 0.45176 0.35479 0.51727 0.0
C677 C 0.49543 0.31864 0.5379 0.0
H678 H 0.50864 0.32718 0.46194 0.0
C679 C 0.56818 0.28358 0.48932 0.0
C680 C 0.57929 0.29807 0.47414 0.0
C681 C 0.54893 0.28909 0.49883 0.0
C682 C 0.50525 0.32482 0.48328 0.0
H683 H 0.41912 0.31693 0.5592 0.0
H684 H 0.45505 0.30838 0.55251 0.0
H685 H 0.47537 0.33876 0.47665 0.0
H686 H 0.5788 0.32942 0.45654 0.0
H687 H 0.54533 0.33891 0.47286 0.0
H688 H 0.52542 0.30431 0.54415 0.0
C689 C 0.44889 0.32314 0.54447 0.0
C690 C 0.48622 0.33159 0.4918 0.0
C691 C 0.42834 0.32823 0.54878 0.0
C692 C 0.5707 0.318 0.46842 0.0
C693 C 0.55146 0.32338 0.47758 0.0
C694 C 0.51452 0.31173 0.52928 0.0
C695 C 0.46062 0.33599 0.52784 0.0
C696 C 0.48114 0.32885 0.51928 0.0
C697 C 0.54033 0.30902 0.49286 0.0
C698 C 0.51969 0.315 0.50194 0.0
H699 H 0.42438 0.37372 0.51182 0.0
H700 H 0.46044 0.3652 0.50469 0.0
H701 H 0.49201 0.31628 0.55922 0.0
H702 H 0.5745 0.26814 0.49411 0.0
H703 H 0.54062 0.27768 0.51045 0.0
C704 C 0.13798 0.93462 0.9927 0.0
C705 C 0.15668 0.92401 0.99885 0.0
C706 C 0.13771 0.95664 0.99096 0.0
C707 C 0.16994 0.00531 0.00381 0.0
H708 H 0.13608 0.02611 0.94067 0.0
C709 C 0.16054 0.09418 0.98126 0.0
C710 C 0.15765 0.10095 0.95367 0.0
C711 C 0.16144 0.07275 0.98763 0.0
C712 C 0.14584 0.02058 0.95818 0.0
H713 H 0.18954 0.92779 0.00903 0.0
H714 H 0.18921 0.96612 0.00625 0.0
H715 H 0.13467 0.989 0.95253 0.0
H716 H 0.15437 0.09026 0.91103 0.0
H717 H 0.15673 0.05285 0.92206 0.0
H718 H 0.18175 0.03672 0.00876 0.0
C719 C 0.17463 0.95771 0.00319 0.0
C720 C 0.14472 -0.0007 0.96536 0.0
C721 C 0.17485 0.93573 0.00497 0.0
C722 C 0.15668 0.08567 0.93251 0.0
C723 C 0.15772 0.06417 0.93888 0.0
C724 C 0.17117 0.02657 0.99652 0.0
C725 C 0.15621 0.96841 0.99501 0.0
C726 C 0.1567 0.99136 0.98833 0.0
C727 C 0.15969 0.0574 0.96658 0.0
C728 C 0.15908 0.03453 0.97366 0.0
H729 H 0.12388 0.92584 0.98721 0.0
H730 H 0.12316 0.96436 0.98516 0.0
H731 H 0.17935 -0.00017 0.02168 0.0
H732 H 0.16174 0.10549 0.9981 0.0
H733 H 0.16282 0.06825 0.00919 0.0
C734 C 0.56265 0.6309 0.45651 0.0
C735 C 0.57765 0.64446 0.44669 0.0
C736 C 0.54346 0.62822 0.44147 0.0
C737 C 0.52508 0.62763 0.36936 0.0
H738 H 0.46915 0.62621 0.39311 0.0
C739 C 0.45458 0.62067 0.2909 0.0
C740 C 0.43706 0.60932 0.29807 0.0
C741 C 0.47111 0.62451 0.31041 0.0
C742 C 0.48471 0.62621 0.38623 0.0
H743 H 0.5841 0.66687 0.41489 0.0
H744 H 0.55068 0.66244 0.3889 0.0
H745 H 0.49811 0.6353 0.42642 0.0
H746 H 0.4234 0.59286 0.33152 0.0
H747 H 0.45256 0.59895 0.36531 0.0
H748 H 0.51214 0.61806 0.32955 0.0
C749 C 0.55362 0.65383 0.40802 0.0
C750 C 0.50124 0.63154 0.4053 0.0
C751 C 0.57261 0.65657 0.42306 0.0
C752 C 0.43672 0.6015 0.32516 0.0
C753 C 0.45333 0.60525 0.34469 0.0
C754 C 0.5087 0.62206 0.35047 0.0
C755 C 0.53928 0.63888 0.41631 0.0
C756 C 0.52153 0.63266 0.39687 0.0
C757 C 0.47069 0.61697 0.33763 0.0
C758 C 0.48823 0.6216 0.35846 0.0
H759 H 0.56643 0.62107 0.47436 0.0
H760 H 0.53265 0.61659 0.44828 0.0
H761 H 0.54066 0.62786 0.36246 0.0
H762 H 0.45553 0.62669 0.27015 0.0
H763 H 0.48405 0.63381 0.3042 0.0
C764 C 0.33193 0.43477 0.55796 0.0
C765 C 0.35124 0.42563 0.56538 0.0
C766 C 0.32945 0.45671 0.55981 0.0
C767 C 0.35116 0.49957 0.60284 0.0
H768 H 0.32144 0.53758 0.552 0.0
C769 C 0.34898 0.58855 0.62457 0.0
C770 C 0.3301 0.59907 0.61885 0.0
C771 C 0.35153 0.56783 0.61566 0.0
C772 C 0.32959 0.52709 0.56654 0.0
H773 H 0.38334 0.43214 0.57853 0.0
H774 H 0.37906 0.47011 0.58165 0.0
H775 H 0.32584 0.50059 0.53882 0.0
H776 H 0.2992 0.59613 0.59879 0.0
H777 H 0.30351 0.55974 0.58365 0.0
H778 H 0.3546 0.5256 0.63084 0.0
C779 C 0.3658 0.46052 0.57467 0.0
C780 C 0.33214 0.50596 0.55893 0.0
C781 C 0.36827 0.4388 0.57268 0.0
C782 C 0.31387 0.5884 0.60377 0.0
C783 C 0.31643 0.56763 0.59481 0.0
C784 C 0.3485 0.52053 0.61051 0.0
C785 C 0.34621 0.46964 0.56941 0.0
C786 C 0.34312 0.49205 0.57695 0.0
C787 C 0.33525 0.55703 0.60082 0.0
C788 C 0.33781 0.53463 0.59242 0.0
H789 H 0.31849 0.42492 0.55276 0.0
H790 H 0.31417 0.46336 0.55563 0.0
H791 H 0.35931 0.4891 0.61743 0.0
H792 H 0.36174 0.59623 0.63636 0.0
H793 H 0.36633 0.56028 0.62038 0.0
C794 C 0.06991 0.84799 0.00736 0.0
C795 C 0.08424 0.83779 0.02579 0.0
C796 C 0.04858 0.84397 0.00844 0.0
C797 C 0.01097 0.80575 0.03456 0.0
H798 H 0.97592 0.85439 0.04291 0.0
C799 C 0.93117 0.80015 0.0813 0.0
C800 C 0.91503 0.81269 0.06952 0.0
C801 C 0.95137 0.80238 0.07299 0.0
C802 C 0.98538 0.8406 0.04019 0.0
H803 H 0.08783 0.81454 0.05838 0.0
H804 H 0.05107 0.80727 0.05983 0.0
H805 H 0.01168 0.85938 0.0312 0.0
H806 H 0.90764 0.83763 0.04002 0.0
H807 H 0.9426 0.84119 0.02521 0.0
H808 H 0.98482 0.78696 0.04397 0.0
C809 C 0.056 0.81848 0.04481 0.0
C810 C 0.00587 0.84349 0.03338 0.0
C811 C 0.07707 0.82278 0.04411 0.0
C812 C 0.91959 0.82744 0.04921 0.0
C813 C 0.93973 0.8297 0.04096 0.0
C814 C 0.99048 0.80286 0.04127 0.0
C815 C 0.04144 0.82931 0.02745 0.0
C816 C 0.01899 0.82612 0.03091 0.0
C817 C 0.95592 0.8173 0.05282 0.0
C818 C 0.97749 0.82026 0.04454 0.0
H819 H 0.0751 0.85962 0.99306 0.0
H820 H 0.03767 0.85247 0.99472 0.0
H821 H 0.02067 0.79203 0.03258 0.0
H822 H 0.92818 0.7886 0.09695 0.0
H823 H 0.96351 0.79271 0.08279 0.0
C824 C 0.62936 0.58551 0.56899 0.0
C825 C 0.64662 0.59696 0.56143 0.0
C826 C 0.63172 0.56926 0.58832 0.0
C827 C 0.66824 0.5515 0.64604 0.0
H828 H 0.63128 0.50322 0.64497 0.0
C829 C 0.6754 0.48221 0.72475 0.0
C830 C 0.65678 0.476 0.7358 0.0
C831 C 0.67527 0.49692 0.70328 0.0
C832 C 0.64166 0.51668 0.64556 0.0
H833 H 0.67976 0.60104 0.5686 0.0
H834 H 0.68425 0.57174 0.6009 0.0
H835 H 0.62949 0.52743 0.60601 0.0
H836 H 0.62359 0.48148 0.73397 0.0
H837 H 0.62338 0.50659 0.69613 0.0
H838 H 0.68057 0.54036 0.68554 0.0
C839 C 0.6688 0.5753 0.5922 0.0
C840 C 0.64061 0.53062 0.62327 0.0
C841 C 0.66634 0.59176 0.5732 0.0
C842 C 0.63816 0.48541 0.72549 0.0
C843 C 0.63801 0.49986 0.70386 0.0
C844 C 0.66948 0.53736 0.66816 0.0
C845 C 0.65145 0.56418 0.6006 0.0
C846 C 0.65368 0.5484 0.62335 0.0
C847 C 0.6565 0.50552 0.69226 0.0
C848 C 0.65599 0.52 0.6683 0.0
H849 H 0.61391 0.58983 0.56095 0.0
H850 H 0.61793 0.56145 0.59463 0.0
H851 H 0.6783 0.56518 0.64719 0.0
H852 H 0.69 0.47518 0.73197 0.0
H853 H 0.68974 0.50102 0.69465 0.0
C854 C 0.92823 0.1507 0.11202 0.0
C855 C 0.9166 0.13221 0.10667 0.0
C856 C 0.94741 0.14985 0.1274 0.0
C857 C 0.98876 0.11323 0.15459 0.0
H858 H 0.99486 0.15241 0.2162 0.0
C859 C 0.04747 0.09925 0.24794 0.0
C860 C 0.05855 0.11676 0.25919 0.0
C861 C 0.03099 0.10191 0.22799 0.0
C862 C 0.99358 0.14152 0.19891 0.0
H863 H 0.91642 0.0983 0.11157 0.0
H864 H 0.94979 0.09676 0.13784 0.0
H865 H 0.96592 0.15623 0.18156 0.0
H866 H 0.06086 0.15086 0.25804 0.0
H867 H 0.03211 0.15548 0.22345 0.0
H868 H 0.01624 0.09834 0.17208 0.0
C869 C 0.94425 0.11192 0.13037 0.0
C870 C 0.97701 0.14376 0.17898 0.0
C871 C 0.92508 0.1128 0.11535 0.0
C872 C 0.0525 0.13702 0.25021 0.0
C873 C 0.03601 0.13968 0.23029 0.0
C874 C 0.00534 0.11101 0.17447 0.0
C875 C 0.95538 0.13047 0.13735 0.0
C876 C 0.97425 0.12948 0.15675 0.0
C877 C 0.02513 0.12216 0.21875 0.0
C878 C 0.00784 0.12497 0.19708 0.0
H879 H 0.92194 0.1659 0.10587 0.0
H880 H 0.95572 0.1644 0.13221 0.0
H881 H 0.98721 0.10209 0.13757 0.0
H882 H 0.05146 0.08344 0.25466 0.0
H883 H 0.02271 0.08808 0.21997 0.0
C884 C 0.16917 0.76842 0.02477 0.0
C885 C 0.17876 0.78819 0.02779 0.0
C886 C 0.18046 0.75011 0.03055 0.0
C887 C 0.23352 0.7295 0.05185 0.0
H888 H 0.20137 0.68968 0.09182 0.0
C889 C 0.26939 0.65397 0.10207 0.0
C890 C 0.26211 0.64775 0.12743 0.0
C891 C 0.25978 0.67037 0.08694 0.0
C892 C 0.21067 0.70071 0.08097 0.0
H893 H 0.20769 0.80463 0.03755 0.0
H894 H 0.22736 0.77275 0.0492 0.0
H895 H 0.18426 0.7193 0.0692 0.0
H896 H 0.23959 0.65425 0.15735 0.0
H897 H 0.22319 0.68316 0.13149 0.0
H898 H 0.26018 0.71145 0.06541 0.0
C899 C 0.21132 0.77112 0.04151 0.0
C900 C 0.20075 0.71756 0.06739 0.0
C901 C 0.20009 0.78943 0.0349 0.0
C902 C 0.24531 0.65848 0.13763 0.0
C903 C 0.23586 0.675 0.1227 0.0
C904 C 0.24352 0.71273 0.06583 0.0
C905 C 0.20141 0.75127 0.04054 0.0
C906 C 0.21202 0.73232 0.0528 0.0
C907 C 0.24281 0.68103 0.097 0.0
C908 C 0.23224 0.69828 0.08087 0.0
H909 H 0.1527 0.76719 0.01913 0.0
H910 H 0.17245 0.73511 0.02851 0.0
H911 H 0.24271 0.74036 0.0406 0.0
H912 H 0.28223 0.64583 0.09364 0.0
H913 H 0.26541 0.6744 0.06711 0.0
C914 C 0.69364 0.7105 0.51071 0.0
C915 C 0.69549 0.69082 0.52378 0.0
C916 C 0.70898 0.72594 0.51601 0.0
C917 C 0.7628 0.73465 0.54391 0.0
H918 H 0.74219 0.78464 0.57899 0.0
C919 C 0.8135 0.78196 0.62318 0.0
C920 C 0.81185 0.80401 0.62399 0.0
C921 C 0.79984 0.76998 0.60594 0.0
C922 C 0.74825 0.77103 0.56874 0.0
H923 H 0.71516 0.67118 0.5508 0.0
H924 H 0.74222 0.69771 0.55919 0.0
H925 H 0.71783 0.76021 0.55478 0.0
H926 H 0.79448 0.83079 0.60743 0.0
H927 H 0.77051 0.80978 0.57713 0.0
H928 H 0.79312 0.74507 0.55832 0.0
C929 C 0.72894 0.70141 0.54521 0.0
C930 C 0.73429 0.75707 0.55483 0.0
C931 C 0.71346 0.68625 0.54049 0.0
C932 C 0.79604 0.81381 0.60738 0.0
C933 C 0.78234 0.80178 0.59001 0.0
C934 C 0.77674 0.74866 0.55757 0.0
C935 C 0.72655 0.72162 0.53379 0.0
C936 C 0.74141 0.73842 0.5431 0.0
C937 C 0.78418 0.77971 0.58897 0.0
C938 C 0.76959 0.76662 0.57101 0.0
H939 H 0.67978 0.71438 0.49792 0.0
H940 H 0.70683 0.74142 0.50697 0.0
H941 H 0.76867 0.72045 0.53482 0.0
H942 H 0.82522 0.77389 0.63617 0.0
H943 H 0.80136 0.75299 0.60629 0.0
C944 C 0.80685 0.19229 0.11949 0.0
C945 C 0.82826 0.18882 0.12363 0.0
C946 C 0.79659 0.20398 0.13899 0.0
C947 C 0.80302 0.21171 0.21295 0.0
H948 H 0.75984 0.25381 0.20515 0.0
C949 C 0.77392 0.25354 0.30745 0.0
C950 C 0.75285 0.25878 0.30755 0.0
C951 C 0.78199 0.24554 0.28365 0.0
C952 C 0.77168 0.24182 0.2076 0.0
H953 H 0.85615 0.19676 0.14889 0.0
H954 H 0.83844 0.2175 0.18231 0.0
H955 H 0.77611 0.24108 0.16403 0.0
H956 H 0.72363 0.25927 0.2827 0.0
H957 H 0.7376 0.24447 0.24136 0.0
H958 H 0.79854 0.21187 0.25609 0.0
C959 C 0.82943 0.21079 0.1647 0.0
C960 C 0.78102 0.23467 0.18408 0.0
C961 C 0.83957 0.19904 0.14554 0.0
C962 C 0.7399 0.25521 0.28343 0.0
C963 C 0.74796 0.24704 0.25959 0.0
C964 C 0.79361 0.21865 0.23626 0.0
C965 C 0.80775 0.21232 0.16253 0.0
C966 C 0.79705 0.21982 0.1867 0.0
C967 C 0.76916 0.24228 0.25936 0.0
C968 C 0.77806 0.23405 0.23401 0.0
H969 H 0.79786 0.18449 0.10271 0.0
H970 H 0.77985 0.20504 0.13682 0.0
H971 H 0.81498 0.19983 0.21547 0.0
H972 H 0.7843 0.25582 0.32575 0.0
H973 H 0.79844 0.24231 0.28419 0.0
C974 C 0.3003 0.31436 0.61319 0.0
C975 C 0.29869 0.3356 0.60535 0.0
C976 C 0.28614 0.30566 0.63055 0.0
C977 C 0.25465 0.32443 0.68524 0.0
H978 H 0.23609 0.26639 0.68808 0.0
C979 C 0.22939 0.28457 0.78459 0.0
C980 C 0.21151 0.27189 0.78188 0.0
C981 C 0.23773 0.29302 0.76116 0.0
C982 C 0.24102 0.2827 0.6874 0.0
H983 H 0.27973 0.3636 0.60644 0.0
H984 H 0.25469 0.34826 0.63599 0.0
H985 H 0.25333 0.27878 0.64776 0.0
H986 H 0.18821 0.25829 0.75269 0.0
H987 H 0.20285 0.27295 0.7118 0.0
H988 H 0.2427 0.32827 0.72504 0.0
C989 C 0.26727 0.33855 0.62969 0.0
C990 C 0.25098 0.28974 0.66442 0.0
C991 C 0.28152 0.34729 0.61266 0.0
C992 C 0.2019 0.26817 0.7554 0.0
C993 C 0.21038 0.27637 0.73199 0.0
C994 C 0.24487 0.31735 0.70825 0.0
C995 C 0.27007 0.31804 0.64006 0.0
C996 C 0.25799 0.31068 0.66316 0.0
C997 C 0.22849 0.28867 0.73461 0.0
C998 C 0.23809 0.2964 0.70966 0.0
H999 H 0.3134 0.30498 0.60781 0.0
H1000 H 0.28871 0.28979 0.63812 0.0
H1001 H 0.26018 0.34056 0.68518 0.0
H1002 H 0.23704 0.28774 0.80479 0.0
H1003 H 0.25176 0.30241 0.76376 0.0
C1004 C 0.6955 0.68826 0.43524 0.0
C1005 C 0.67421 0.69111 0.43723 0.0
C1006 C 0.70595 0.70007 0.41627 0.0
C1007 C 0.71344 0.70884 0.35647 0.0
H1008 H 0.70785 0.76765 0.33608 0.0
C1009 C 0.73452 0.73723 0.2499 0.0
C1010 C 0.74687 0.75546 0.24986 0.0
C1011 C 0.72461 0.73166 0.27353 0.0
C1012 C 0.70959 0.7512 0.34159 0.0
H1013 H 0.64745 0.70957 0.42354 0.0
H1014 H 0.66578 0.7307 0.39097 0.0
H1015 H 0.6952 0.75548 0.37979 0.0
H1016 H 0.7581 0.78245 0.27414 0.0
H1017 H 0.74105 0.7726 0.31545 0.0
H1018 H 0.72763 0.70435 0.31844 0.0
C1019 C 0.67445 0.71939 0.40377 0.0
C1020 C 0.70236 0.74427 0.36655 0.0
C1021 C 0.66397 0.70737 0.42243 0.0
C1022 C 0.74851 0.76841 0.27351 0.0
C1023 C 0.7387 0.76279 0.29716 0.0
C1024 C 0.72049 0.71569 0.33151 0.0
C1025 C 0.6952 0.71494 0.39932 0.0
C1026 C 0.70431 0.72303 0.37425 0.0
C1027 C 0.72701 0.74412 0.29763 0.0
C1028 C 0.71865 0.73693 0.32375 0.0
H1029 H 0.70356 0.67557 0.44627 0.0
H1030 H 0.72203 0.69654 0.41341 0.0
H1031 H 0.7147 0.69226 0.36154 0.0
H1032 H 0.73275 0.72716 0.23179 0.0
H1033 H 0.71534 0.71739 0.27309 0.0
C1034 C 0.78435 0.19115 0.03316 0.0
C1035 C 0.80552 0.19617 0.0343 0.0
C1036 C 0.76958 0.20657 0.02578 0.0
C1037 C 0.76526 0.25024 0.97927 0.0
H1038 H 0.7141 0.26438 0.01193 0.0
C1039 C 0.70887 0.30996 0.92691 0.0
C1040 C 0.68756 0.30563 0.92717 0.0
C1041 C 0.72328 0.2984 0.94341 0.0
C1042 C 0.72821 0.26043 0.00236 0.0
H1043 H 0.82806 0.22097 0.03 0.0
H1044 H 0.80231 0.24791 0.01689 0.0
H1045 H 0.73886 0.24071 0.03635 0.0
H1046 H 0.66472 0.28623 0.94595 0.0
H1047 H 0.68981 0.26546 0.9736 0.0
H1048 H 0.75448 0.26882 0.94471 0.0
C1049 C 0.79707 0.23225 0.02197 0.0
C1050 C 0.7424 0.24699 0.01648 0.0
C1051 C 0.81174 0.21695 0.02966 0.0
C1052 C 0.68102 0.28976 0.94481 0.0
C1053 C 0.69544 0.27804 0.96106 0.0
C1054 C 0.75099 0.26333 0.96498 0.0
C1055 C 0.77593 0.227 0.01893 0.0
C1056 C 0.76106 0.24185 0.00504 0.0
C1057 C 0.7168 0.28204 0.96037 0.0
C1058 C 0.73225 0.26863 0.97629 0.0
H1059 H 0.77934 0.17506 0.03615 0.0
H1060 H 0.75336 0.20214 0.02339 0.0
H1061 H 0.77938 0.24616 0.96976 0.0
H1062 H 0.71451 0.32193 0.91344 0.0
H1063 H 0.73955 0.30224 0.94266 0.0
C1064 C 0.30364 0.29007 0.54199 0.0
C1065 C 0.32532 0.28845 0.54419 0.0
C1066 C 0.29143 0.2726 0.5337 0.0
C1067 C 0.28435 0.21734 0.52641 0.0
H1068 H 0.26867 0.22515 0.44843 0.0
C1069 C 0.2515 0.14906 0.45658 0.0
C1070 C 0.2365 0.15381 0.43511 0.0
C1071 C 0.26159 0.16514 0.47216 0.0
C1072 C 0.2725 0.22278 0.47029 0.0
H1073 H 0.35123 0.26723 0.54184 0.0
H1074 H 0.32976 0.23634 0.52883 0.0
H1075 H 0.28635 0.25345 0.47489 0.0
H1076 H 0.22049 0.17938 0.41321 0.0
H1077 H 0.23728 0.20725 0.44104 0.0
H1078 H 0.2702 0.18684 0.52217 0.0
C1079 C 0.32228 0.25113 0.53311 0.0
C1080 C 0.28271 0.23899 0.48536 0.0
C1081 C 0.33451 0.26871 0.54066 0.0
C1082 C 0.23173 0.17506 0.42981 0.0
C1083 C 0.24165 0.19112 0.44555 0.0
C1084 C 0.27377 0.20118 0.51145 0.0
C1085 C 0.30077 0.25321 0.52833 0.0
C1086 C 0.28874 0.23637 0.51346 0.0
C1087 C 0.25682 0.18641 0.46686 0.0
C1088 C 0.26778 0.20365 0.48311 0.0
H1089 H 0.29628 0.30525 0.54403 0.0
H1090 H 0.27485 0.27451 0.52986 0.0
H1091 H 0.28903 0.21502 0.54807 0.0
H1092 H 0.25541 0.13287 0.4615 0.0
H1093 H 0.27335 0.16084 0.48809 0.0
C1094 C 0.19232 0.80997 0.93908 0.0
C1095 C 0.20243 0.82387 0.95825 0.0
C1096 C 0.203 0.8016 0.91745 0.0
C1097 C 0.24609 0.81723 0.87699 0.0
H1098 H 0.24019 0.76165 0.84386 0.0
C1099 C 0.29572 0.79019 0.78987 0.0
C1100 C 0.28605 0.7782 0.76818 0.0
C1101 C 0.28519 0.795 0.81321 0.0
C1102 C 0.24178 0.77731 0.85274 0.0
H1103 H 0.23188 0.83817 0.97178 0.0
H1104 H 0.25064 0.82309 0.93467 0.0
H1105 H 0.22304 0.76957 0.8861 0.0
H1106 H 0.25759 0.7623 0.75363 0.0
H1107 H 0.23913 0.7708 0.79449 0.0
H1108 H 0.26459 0.82513 0.84369 0.0
C1109 C 0.2344 0.81916 0.9357 0.0
C1110 C 0.23204 0.78179 0.87694 0.0
C1111 C 0.22373 0.82762 0.95709 0.0
C1112 C 0.26553 0.77135 0.77018 0.0
C1113 C 0.25498 0.77617 0.79357 0.0
C1114 C 0.25576 0.81278 0.85286 0.0
C1115 C 0.22392 0.80694 0.9149 0.0
C1116 C 0.23426 0.80175 0.88943 0.0
C1117 C 0.26476 0.78794 0.81541 0.0
C1118 C 0.25384 0.79275 0.84056 0.0
H1119 H 0.17584 0.80701 0.93942 0.0
H1120 H 0.19453 0.79221 0.90171 0.0
H1121 H 0.24764 0.83295 0.8857 0.0
H1122 H 0.31164 0.79539 0.78918 0.0
H1123 H 0.29326 0.80385 0.82986 0.0
loop_
_geom_bond_atom_site_label_1
_geom_bond_atom_site_label_2
_geom_bond_distance
_geom_bond_site_symmetry_2
_ccdc_geom_bond_type
Zn0 O6 1.920 . S
Zn0 O12 1.898 . S
Zn0 O15 1.905 . S
Zn1 O9 1.905 . S
Zn1 O10 1.898 . S
Zn1 O18 1.920 . S
Zn2 O5 2.080 . S
Zn2 O8 2.114 1_554 S
Zn2 O11 2.120 1_554 S
Zn2 O13 2.120 . S
Zn2 O14 2.114 . S
Zn2 O17 2.080 1_554 S
C3 O8 1.166 . S
C3 O9 1.182 . S
C4 O10 1.167 . S
C4 O11 1.299 . S
O5 Zn2 2.080 . S
O5 C19 1.305 . S
O6 Zn0 1.920 . S
O6 C19 1.234 . S
C7 O12 1.167 . S
C7 O13 1.299 . S
O8 Zn2 2.114 1_556 S
O8 C3 1.166 . S
O9 Zn1 1.905 . S
O9 C3 1.182 . S
O10 Zn1 1.898 . S
O10 C4 1.167 . S
O11 Zn2 2.120 1_556 S
O11 C4 1.299 . S
O12 Zn0 1.898 . S
O12 C7 1.167 . S
O13 Zn2 2.120 . S
O13 C7 1.299 . S
O14 Zn2 2.114 . S
O14 C16 1.166 . S
O15 Zn0 1.905 . S
O15 C16 1.182 . S
C16 O14 1.166 . S
C16 O15 1.182 . S
O17 Zn2 2.080 1_556 S
O17 C20 1.305 . S
O18 Zn1 1.920 . S
O18 C20 1.234 . S
C19 O5 1.305 . S
C19 O6 1.234 . S
C20 O17 1.305 . S
C20 O18 1.234 . S
Zn21 O27 1.920 . S
Zn21 O33 1.898 . S
Zn21 O36 1.905 . S
Zn22 O30 1.905 . S
Zn22 O31 1.898 . S
Zn22 O39 1.920 . S
Zn23 O26 2.080 . S
Zn23 O29 2.114 . S
Zn23 O32 2.120 . S
Zn23 O34 2.120 . S
Zn23 O35 2.114 . S
Zn23 O38 2.080 . S
C24 O29 1.166 . S
C24 O30 1.182 . S
C25 O31 1.167 . S
C25 O32 1.299 . S
O26 Zn23 2.080 . S
O26 C40 1.305 . S
O27 Zn21 1.920 . S
O27 C40 1.234 . S
C28 O33 1.167 . S
C28 O34 1.299 . S
O29 Zn23 2.114 . S
O29 C24 1.166 . S
O30 Zn22 1.905 . S
O30 C24 1.182 . S
O31 Zn22 1.898 . S
O31 C25 1.167 . S
O32 Zn23 2.120 . S
O32 C25 1.299 . S
O33 Zn21 1.898 . S
O33 C28 1.167 . S
O34 Zn23 2.120 . S
O34 C28 1.299 . S
O35 Zn23 2.114 . S
O35 C37 1.166 . S
O36 Zn21 1.905 . S
O36 C37 1.182 . S
C37 O35 1.166 . S
C37 O36 1.182 . S
O38 Zn23 2.080 . S
O38 C41 1.305 . S
O39 Zn22 1.920 . S
O39 C41 1.234 . S
C40 O26 1.305 . S
C40 O27 1.234 . S
C41 O38 1.305 . S
C41 O39 1.234 . S
Zn42 O48 1.920 . S
Zn42 O54 1.898 . S
Zn42 O57 1.905 . S
Zn43 O51 1.905 . S
Zn43 O52 1.898 . S
Zn43 O60 1.920 . S
Zn44 O47 2.080 . S
Zn44 O50 2.114 . S
Zn44 O53 2.120 . S
Zn44 O55 2.120 . S
Zn44 O56 2.114 . S
Zn44 O59 2.080 . S
C45 O50 1.166 . S
C45 O51 1.182 . S
C46 O52 1.167 . S
C46 O53 1.299 . S
O47 Zn44 2.080 . S
O47 C61 1.305 . S
O48 Zn42 1.920 . S
O48 C61 1.234 1_556 S
C49 O54 1.167 1_554 S
C49 O55 1.299 . S
O50 Zn44 2.114 . S
O50 C45 1.166 . S
O51 Zn43 1.905 . S
O51 C45 1.182 . S
O52 Zn43 1.898 . S
O52 C46 1.167 . S
O53 Zn44 2.120 . S
O53 C46 1.299 . S
O54 Zn42 1.898 . S
O54 C49 1.167 1_556 S
O55 Zn44 2.120 . S
O55 C49 1.299 . S
O56 Zn44 2.114 . S
O56 C58 1.166 1_554 S
O57 Zn42 1.905 . S
O57 C58 1.182 . S
C58 O56 1.166 1_556 S
C58 O57 1.182 . S
O59 Zn44 2.080 . S
O59 C62 1.305 . S
O60 Zn43 1.920 . S
O60 C62 1.234 . S
C61 O47 1.305 . S
C61 O48 1.234 1_554 S
C62 O59 1.305 . S
C62 O60 1.234 . S
Zn63 O69 1.920 . S
Zn63 O75 1.898 . S
Zn63 O78 1.905 . S
Zn64 O72 1.905 . S
Zn64 O73 1.898 . S
Zn64 O81 1.920 . S
Zn65 O68 2.080 . S
Zn65 O71 2.114 . S
Zn65 O74 2.120 . S
Zn65 O76 2.120 . S
Zn65 O77 2.114 . S
Zn65 O80 2.080 . S
C66 O71 1.166 . S
C66 O72 1.182 . S
C67 O73 1.167 . S
C67 O74 1.299 . S
O68 Zn65 2.080 . S
O68 C82 1.305 . S
O69 Zn63 1.920 . S
O69 C82 1.234 . S
C70 O75 1.167 . S
C70 O76 1.299 . S
O71 Zn65 2.114 . S
O71 C66 1.166 . S
O72 Zn64 1.905 . S
O72 C66 1.182 . S
O73 Zn64 1.898 . S
O73 C67 1.167 . S
O74 Zn65 2.120 . S
O74 C67 1.299 . S
O75 Zn63 1.898 . S
O75 C70 1.167 . S
O76 Zn65 2.120 . S
O76 C70 1.299 . S
O77 Zn65 2.114 . S
O77 C79 1.166 . S
O78 Zn63 1.905 . S
O78 C79 1.182 . S
C79 O77 1.166 . S
C79 O78 1.182 . S
O80 Zn65 2.080 . S
O80 C83 1.305 . S
O81 Zn64 1.920 . S
O81 C83 1.234 . S
C82 O68 1.305 . S
C82 O69 1.234 . S
C83 O80 1.305 . S
C83 O81 1.234 . S
C84 C85 1.264 . S
C84 C89 1.479 . S
C84 C94 1.465 . S
C85 C84 1.264 . S
C85 C87 1.339 . S
C85 H112 0.931 . S
C86 C87 1.395 . S
C86 C88 1.320 . S
C87 C85 1.339 . S
C87 C86 1.395 . S
C87 H113 0.929 . S
C88 C86 1.320 . S
C88 C89 1.405 . S
C88 H114 0.930 . S
C89 C84 1.479 . S
C89 C88 1.405 . S
C89 H115 0.931 . S
U90 O91 2.454 . S
U90 O92 2.458 . S
U90 C93 2.984 . S
U90 C94 2.847 . S
U90 C107 2.882 . S
U90 O108 2.441 . S
U90 O109 2.420 . S
U90 O110 2.455 . S
U90 O111 2.449 . S
O91 U90 2.454 . S
O91 C93 1.353 . S
O92 U90 2.458 . S
O92 C93 1.286 . S
C93 U90 2.984 . S
C93 O91 1.353 . S
C93 O92 1.286 . S
C93 C95 1.363 . S
C94 C84 1.465 . S
C94 U90 2.847 . S
C94 O108 1.249 . S
C94 O109 1.202 . S
C95 C93 1.363 . S
C95 C97 1.408 . S
C95 C100 1.342 . S
C96 C97 1.310 . S
C96 C99 1.461 . S
C96 H116 0.932 . S
C97 C95 1.408 . S
C97 C96 1.310 . S
C97 H117 0.930 . S
C98 C99 1.474 . S
C98 C100 1.285 . S
C98 H118 0.929 . S
C99 C96 1.461 . S
C99 C98 1.474 . S
C100 C95 1.342 . S
C100 C98 1.285 . S
C100 H119 0.930 . S
C101 C104 1.424 . S
C101 C106 1.245 . S
C101 C107 1.428 . S
C102 C105 1.260 . S
C102 C106 1.477 1_565 S
C102 H120 0.932 . S
C103 C104 1.384 1_565 S
C103 C105 1.479 . S
C103 H121 0.929 . S
C104 C101 1.424 . S
C104 C103 1.384 1_545 S
C104 H122 0.928 . S
C105 C102 1.260 . S
C105 C103 1.479 . S
C106 C101 1.245 . S
C106 C102 1.477 1_545 S
C106 H123 0.932 . S
C107 U90 2.882 . S
C107 C101 1.428 . S
C107 O110 1.301 . S
C107 O111 1.282 . S
O108 U90 2.441 . S
O108 C94 1.249 . S
O109 U90 2.420 . S
O109 C94 1.202 . S
O110 U90 2.455 . S
O110 C107 1.301 . S
O111 U90 2.449 . S
O111 C107 1.282 . S
H112 C85 0.931 . S
H113 C87 0.929 . S
H114 C88 0.930 . S
H115 C89 0.931 . S
H116 C96 0.932 . S
H117 C97 0.930 . S
H118 C98 0.929 . S
H119 C100 0.930 . S
H120 C102 0.932 . S
H121 C103 0.929 . S
H122 C104 0.928 . S
H123 C106 0.932 . S
C124 C125 1.264 . S
C124 C129 1.479 . S
C124 C134 1.465 . S
C125 C124 1.264 . S
C125 C127 1.339 . S
C125 H152 0.931 . S
C126 C127 1.395 . S
C126 C128 1.320 . S
C127 C125 1.339 . S
C127 C126 1.395 . S
C127 H153 0.929 . S
C128 C126 1.320 . S
C128 C129 1.405 . S
C128 H154 0.930 . S
C129 C124 1.479 . S
C129 C128 1.405 . S
C129 H155 0.931 . S
U130 O131 2.454 . S
U130 O132 2.458 . S
U130 C133 2.984 . S
U130 C134 2.847 . S
U130 C147 2.882 . S
U130 O148 2.441 . S
U130 O149 2.420 . S
U130 O150 2.455 . S
U130 O151 2.449 . S
O131 U130 2.454 . S
O131 C133 1.353 . S
O132 U130 2.458 . S
O132 C133 1.286 . S
C133 U130 2.984 . S
C133 O131 1.353 . S
C133 O132 1.286 . S
C133 C135 1.363 . S
C134 C124 1.465 . S
C134 U130 2.847 . S
C134 O148 1.249 . S
C134 O149 1.202 . S
C135 C133 1.363 . S
C135 C137 1.408 . S
C135 C140 1.342 . S
C136 C137 1.310 . S
C136 C139 1.461 . S
C136 H156 0.932 . S
C137 C135 1.408 . S
C137 C136 1.310 . S
C137 H157 0.930 . S
C138 C139 1.474 . S
C138 C140 1.285 . S
C138 H158 0.929 . S
C139 C136 1.461 . S
C139 C138 1.474 . S
C140 C135 1.342 . S
C140 C138 1.285 . S
C140 H159 0.930 . S
C141 C144 1.424 . S
C141 C146 1.245 . S
C141 C147 1.428 . S
C142 C145 1.260 . S
C142 C146 1.477 . S
C142 H160 0.932 . S
C143 C144 1.384 . S
C143 C145 1.479 . S
C143 H161 0.929 . S
C144 C141 1.424 . S
C144 C143 1.384 . S
C144 H162 0.928 . S
C145 C142 1.260 . S
C145 C143 1.479 . S
C146 C141 1.245 . S
C146 C142 1.477 . S
C146 H163 0.932 . S
C147 U130 2.882 . S
C147 C141 1.428 . S
C147 O150 1.301 . S
C147 O151 1.282 . S
O148 U130 2.441 . S
O148 C134 1.249 . S
O149 U130 2.420 . S
O149 C134 1.202 . S
O150 U130 2.455 . S
O150 C147 1.301 . S
O151 U130 2.449 . S
O151 C147 1.282 . S
H152 C125 0.931 . S
H153 C127 0.929 . S
H154 C128 0.930 . S
H155 C129 0.931 . S
H156 C136 0.932 . S
H157 C137 0.930 . S
H158 C138 0.929 . S
H159 C140 0.930 . S
H160 C142 0.932 . S
H161 C143 0.929 . S
H162 C144 0.928 . S
H163 C146 0.932 . S
C164 C165 1.264 . S
C164 C169 1.479 . S
C164 C174 1.465 . S
C165 C164 1.264 . S
C165 C167 1.339 . S
C165 H192 0.931 . S
C166 C167 1.395 . S
C166 C168 1.320 . S
C167 C165 1.339 . S
C167 C166 1.395 . S
C167 H193 0.929 . S
C168 C166 1.320 . S
C168 C169 1.405 . S
C168 H194 0.930 . S
C169 C164 1.479 . S
C169 C168 1.405 . S
C169 H195 0.931 . S
U170 O171 2.454 . S
U170 O172 2.458 . S
U170 C173 2.984 . S
U170 C174 2.847 . S
U170 C187 2.882 . S
U170 O188 2.441 . S
U170 O189 2.420 . S
U170 O190 2.455 . S
U170 O191 2.449 . S
O171 U170 2.454 . S
O171 C173 1.353 . S
O172 U170 2.458 . S
O172 C173 1.286 . S
C173 U170 2.984 . S
C173 O171 1.353 . S
C173 O172 1.286 . S
C173 C175 1.363 . S
C174 C164 1.465 . S
C174 U170 2.847 . S
C174 O188 1.249 . S
C174 O189 1.202 . S
C175 C173 1.363 . S
C175 C177 1.408 . S
C175 C180 1.342 . S
C176 C177 1.310 . S
C176 C179 1.461 . S
C176 H196 0.932 . S
C177 C175 1.408 . S
C177 C176 1.310 . S
C177 H197 0.930 . S
C178 C179 1.474 . S
C178 C180 1.285 . S
C178 H198 0.929 . S
C179 C176 1.461 . S
C179 C178 1.474 . S
C180 C175 1.342 . S
C180 C178 1.285 . S
C180 H199 0.930 . S
C181 C184 1.424 . S
C181 C186 1.245 . S
C181 C187 1.428 . S
C182 C185 1.260 . S
C182 C186 1.477 . S
C182 H200 0.932 . S
C183 C184 1.384 . S
C183 C185 1.479 . S
C183 H201 0.929 . S
C184 C181 1.424 . S
C184 C183 1.384 . S
C184 H202 0.928 . S
C185 C182 1.260 . S
C185 C183 1.479 . S
C186 C181 1.245 . S
C186 C182 1.477 . S
C186 H203 0.932 . S
C187 U170 2.882 . S
C187 C181 1.428 . S
C187 O190 1.301 . S
C187 O191 1.282 . S
O188 U170 2.441 . S
O188 C174 1.249 . S
O189 U170 2.420 . S
O189 C174 1.202 . S
O190 U170 2.455 . S
O190 C187 1.301 . S
O191 U170 2.449 . S
O191 C187 1.282 . S
H192 C165 0.931 . S
H193 C167 0.929 . S
H194 C168 0.930 . S
H195 C169 0.931 . S
H196 C176 0.932 . S
H197 C177 0.930 . S
H198 C178 0.929 . S
H199 C180 0.930 . S
H200 C182 0.932 . S
H201 C183 0.929 . S
H202 C184 0.928 . S
H203 C186 0.932 . S
C204 C205 1.264 . S
C204 C209 1.479 . S
C204 C214 1.465 . S
C205 C204 1.264 . S
C205 C207 1.339 . S
C205 H232 0.931 . S
C206 C207 1.395 . S
C206 C208 1.320 . S
C207 C205 1.339 . S
C207 C206 1.395 . S
C207 H233 0.929 . S
C208 C206 1.320 . S
C208 C209 1.405 . S
C208 H234 0.930 . S
C209 C204 1.479 . S
C209 C208 1.405 . S
C209 H235 0.931 . S
U210 O211 2.454 . S
U210 O212 2.458 . S
U210 C213 2.984 . S
U210 C214 2.847 . S
U210 C227 2.882 . S
U210 O228 2.441 . S
U210 O229 2.420 . S
U210 O230 2.455 . S
U210 O231 2.449 . S
O211 U210 2.454 . S
O211 C213 1.353 . S
O212 U210 2.458 . S
O212 C213 1.286 . S
C213 U210 2.984 . S
C213 O211 1.353 . S
C213 O212 1.286 . S
C213 C215 1.363 . S
C214 C204 1.465 . S
C214 U210 2.847 . S
C214 O228 1.249 . S
C214 O229 1.202 . S
C215 C213 1.363 . S
C215 C217 1.408 . S
C215 C220 1.342 . S
C216 C217 1.310 . S
C216 C219 1.461 . S
C216 H236 0.932 . S
C217 C215 1.408 . S
C217 C216 1.310 . S
C217 H237 0.930 . S
C218 C219 1.474 . S
C218 C220 1.285 . S
C218 H238 0.929 . S
C219 C216 1.461 . S
C219 C218 1.474 . S
C220 C215 1.342 . S
C220 C218 1.285 . S
C220 H239 0.930 . S
C221 C224 1.424 . S
C221 C226 1.245 . S
C221 C227 1.428 . S
C222 C225 1.260 . S
C222 C226 1.477 . S
C222 H240 0.932 . S
C223 C224 1.384 . S
C223 C225 1.479 . S
C223 H241 0.929 . S
C224 C221 1.424 . S
C224 C223 1.384 . S
C224 H242 0.928 . S
C225 C222 1.260 . S
C225 C223 1.479 . S
C226 C221 1.245 . S
C226 C222 1.477 . S
C226 H243 0.932 . S
C227 U210 2.882 . S
C227 C221 1.428 . S
C227 O230 1.301 . S
C227 O231 1.282 . S
O228 U210 2.441 . S
O228 C214 1.249 . S
O229 U210 2.420 . S
O229 C214 1.202 . S
O230 U210 2.455 . S
O230 C227 1.301 . S
O231 U210 2.449 . S
O231 C227 1.282 . S
H232 C205 0.931 . S
H233 C207 0.929 . S
H234 C208 0.930 . S
H235 C209 0.931 . S
H236 C216 0.932 . S
H237 C217 0.930 . S
H238 C218 0.929 . S
H239 C220 0.930 . S
H240 C222 0.932 . S
H241 C223 0.929 . S
H242 C224 0.928 . S
H243 C226 0.932 . S
C244 C245 1.264 . S
C244 C249 1.479 . S
C244 C254 1.465 . S
C245 C244 1.264 . S
C245 C247 1.339 . S
C245 H272 0.931 . S
C246 C247 1.395 . S
C246 C248 1.320 . S
C247 C245 1.339 . S
C247 C246 1.395 . S
C247 H273 0.929 . S
C248 C246 1.320 . S
C248 C249 1.405 . S
C248 H274 0.930 . S
C249 C244 1.479 . S
C249 C248 1.405 . S
C249 H275 0.931 . S
U250 O251 2.454 . S
U250 O252 2.458 . S
U250 C253 2.984 . S
U250 C254 2.847 . S
U250 C267 2.882 . S
U250 O268 2.441 . S
U250 O269 2.420 . S
U250 O270 2.455 . S
U250 O271 2.449 . S
O251 U250 2.454 . S
O251 C253 1.353 . S
O252 U250 2.458 . S
O252 C253 1.286 . S
C253 U250 2.984 . S
C253 O251 1.353 . S
C253 O252 1.286 . S
C253 C255 1.363 . S
C254 C244 1.465 . S
C254 U250 2.847 . S
C254 O268 1.249 . S
C254 O269 1.202 . S
C255 C253 1.363 . S
C255 C257 1.408 . S
C255 C260 1.342 . S
C256 C257 1.310 . S
C256 C259 1.461 . S
C256 H276 0.932 . S
C257 C255 1.408 . S
C257 C256 1.310 . S
C257 H277 0.930 . S
C258 C259 1.474 . S
C258 C260 1.285 . S
C258 H278 0.929 . S
C259 C256 1.461 . S
C259 C258 1.474 . S
C260 C255 1.342 . S
C260 C258 1.285 . S
C260 H279 0.930 . S
C261 C264 1.424 . S
C261 C266 1.245 . S
C261 C267 1.428 . S
C262 C265 1.260 . S
C262 C266 1.477 . S
C262 H280 0.932 . S
C263 C264 1.384 . S
C263 C265 1.479 . S
C263 H281 0.929 . S
C264 C261 1.424 . S
C264 C263 1.384 . S
C264 H282 0.928 . S
C265 C262 1.260 . S
C265 C263 1.479 . S
C266 C261 1.245 . S
C266 C262 1.477 . S
C266 H283 0.932 . S
C267 U250 2.882 . S
C267 C261 1.428 . S
C267 O270 1.301 . S
C267 O271 1.282 . S
O268 U250 2.441 . S
O268 C254 1.249 . S
O269 U250 2.420 . S
O269 C254 1.202 . S
O270 U250 2.455 . S
O270 C267 1.301 . S
O271 U250 2.449 . S
O271 C267 1.282 . S
H272 C245 0.931 . S
H273 C247 0.929 . S
H274 C248 0.930 . S
H275 C249 0.931 . S
H276 C256 0.932 . S
H277 C257 0.930 . S
H278 C258 0.929 . S
H279 C260 0.930 . S
H280 C262 0.932 . S
H281 C263 0.929 . S
H282 C264 0.928 . S
H283 C266 0.932 . S
C284 C285 1.264 . S
C284 C289 1.479 . S
C284 C294 1.465 . S
C285 C284 1.264 . S
C285 C287 1.339 . S
C285 H312 0.931 . S
C286 C287 1.395 . S
C286 C288 1.320 . S
C287 C285 1.339 . S
C287 C286 1.395 . S
C287 H313 0.929 . S
C288 C286 1.320 . S
C288 C289 1.405 . S
C288 H314 0.930 . S
C289 C284 1.479 . S
C289 C288 1.405 . S
C289 H315 0.931 . S
U290 O291 2.454 . S
U290 O292 2.458 . S
U290 C293 2.984 . S
U290 C294 2.847 . S
U290 C307 2.882 . S
U290 O308 2.441 . S
U290 O309 2.420 . S
U290 O310 2.455 . S
U290 O311 2.449 . S
O291 U290 2.454 . S
O291 C293 1.353 . S
O292 U290 2.458 . S
O292 C293 1.286 . S
C293 U290 2.984 . S
C293 O291 1.353 . S
C293 O292 1.286 . S
C293 C295 1.363 . S
C294 C284 1.465 . S
C294 U290 2.847 . S
C294 O308 1.249 . S
C294 O309 1.202 . S
C295 C293 1.363 . S
C295 C297 1.408 . S
C295 C300 1.342 . S
C296 C297 1.310 . S
C296 C299 1.461 . S
C296 H316 0.932 . S
C297 C295 1.408 . S
C297 C296 1.310 . S
C297 H317 0.930 . S
C298 C299 1.474 . S
C298 C300 1.285 . S
C298 H318 0.929 . S
C299 C296 1.461 . S
C299 C298 1.474 . S
C300 C295 1.342 . S
C300 C298 1.285 . S
C300 H319 0.930 . S
C301 C304 1.424 . S
C301 C306 1.245 . S
C301 C307 1.428 . S
C302 C305 1.260 . S
C302 C306 1.477 . S
C302 H320 0.932 . S
C303 C304 1.384 . S
C303 C305 1.479 . S
C303 H321 0.929 . S
C304 C301 1.424 . S
C304 C303 1.384 . S
C304 H322 0.928 . S
C305 C302 1.260 . S
C305 C303 1.479 . S
C306 C301 1.245 . S
C306 C302 1.477 . S
C306 H323 0.932 . S
C307 U290 2.882 . S
C307 C301 1.428 . S
C307 O310 1.301 . S
C307 O311 1.282 . S
O308 U290 2.441 . S
O308 C294 1.249 . S
O309 U290 2.420 . S
O309 C294 1.202 . S
O310 U290 2.455 . S
O310 C307 1.301 . S
O311 U290 2.449 . S
O311 C307 1.282 . S
H312 C285 0.931 . S
H313 C287 0.929 . S
H314 C288 0.930 . S
H315 C289 0.931 . S
H316 C296 0.932 . S
H317 C297 0.930 . S
H318 C298 0.929 . S
H319 C300 0.930 . S
H320 C302 0.932 . S
H321 C303 0.929 . S
H322 C304 0.928 . S
H323 C306 0.932 . S
C324 C325 1.264 . S
C324 C329 1.479 . S
C324 C334 1.465 . S
C325 C324 1.264 . S
C325 C327 1.339 . S
C325 H352 0.931 . S
C326 C327 1.395 . S
C326 C328 1.320 . S
C327 C325 1.339 . S
C327 C326 1.395 . S
C327 H353 0.929 . S
C328 C326 1.320 . S
C328 C329 1.405 . S
C328 H354 0.930 . S
C329 C324 1.479 . S
C329 C328 1.405 . S
C329 H355 0.931 . S
U330 O331 2.454 . S
U330 O332 2.458 . S
U330 C333 2.984 . S
U330 C334 2.847 . S
U330 C347 2.882 . S
U330 O348 2.441 . S
U330 O349 2.420 . S
U330 O350 2.455 . S
U330 O351 2.449 . S
O331 U330 2.454 . S
O331 C333 1.353 . S
O332 U330 2.458 . S
O332 C333 1.286 . S
C333 U330 2.984 . S
C333 O331 1.353 . S
C333 O332 1.286 . S
C333 C335 1.363 . S
C334 C324 1.465 . S
C334 U330 2.847 . S
C334 O348 1.249 . S
C334 O349 1.202 . S
C335 C333 1.363 . S
C335 C337 1.408 . S
C335 C340 1.342 . S
C336 C337 1.310 . S
C336 C339 1.461 . S
C336 H356 0.932 . S
C337 C335 1.408 . S
C337 C336 1.310 . S
C337 H357 0.930 . S
C338 C339 1.474 . S
C338 C340 1.285 . S
C338 H358 0.929 . S
C339 C336 1.461 . S
C339 C338 1.474 . S
C340 C335 1.342 . S
C340 C338 1.285 . S
C340 H359 0.930 . S
C341 C344 1.424 . S
C341 C346 1.245 . S
C341 C347 1.428 . S
C342 C345 1.260 . S
C342 C346 1.477 . S
C342 H360 0.932 . S
C343 C344 1.384 . S
C343 C345 1.479 . S
C343 H361 0.929 . S
C344 C341 1.424 . S
C344 C343 1.384 . S
C344 H362 0.928 . S
C345 C342 1.260 . S
C345 C343 1.479 . S
C346 C341 1.245 . S
C346 C342 1.477 . S
C346 H363 0.932 . S
C347 U330 2.882 . S
C347 C341 1.428 . S
C347 O350 1.301 . S
C347 O351 1.282 . S
O348 U330 2.441 . S
O348 C334 1.249 . S
O349 U330 2.420 . S
O349 C334 1.202 . S
O350 U330 2.455 . S
O350 C347 1.301 . S
O351 U330 2.449 . S
O351 C347 1.282 . S
H352 C325 0.931 . S
H353 C327 0.929 . S
H354 C328 0.930 . S
H355 C329 0.931 . S
H356 C336 0.932 . S
H357 C337 0.930 . S
H358 C338 0.929 . S
H359 C340 0.930 . S
H360 C342 0.932 . S
H361 C343 0.929 . S
H362 C344 0.928 . S
H363 C346 0.932 . S
C364 C365 1.264 . S
C364 C369 1.479 . S
C364 C374 1.465 . S
C365 C364 1.264 . S
C365 C367 1.339 . S
C365 H392 0.931 . S
C366 C367 1.395 . S
C366 C368 1.320 . S
C367 C365 1.339 . S
C367 C366 1.395 . S
C367 H393 0.929 . S
C368 C366 1.320 . S
C368 C369 1.405 . S
C368 H394 0.930 . S
C369 C364 1.479 . S
C369 C368 1.405 . S
C369 H395 0.931 . S
U370 O371 2.454 . S
U370 O372 2.458 . S
U370 C373 2.984 . S
U370 C374 2.847 . S
U370 C387 2.882 . S
U370 O388 2.441 . S
U370 O389 2.420 . S
U370 O390 2.455 . S
U370 O391 2.449 . S
O371 U370 2.454 . S
O371 C373 1.353 . S
O372 U370 2.458 . S
O372 C373 1.286 . S
C373 U370 2.984 . S
C373 O371 1.353 . S
C373 O372 1.286 . S
C373 C375 1.363 . S
C374 C364 1.465 . S
C374 U370 2.847 . S
C374 O388 1.249 . S
C374 O389 1.202 . S
C375 C373 1.363 . S
C375 C377 1.408 . S
C375 C380 1.342 . S
C376 C377 1.310 . S
C376 C379 1.461 . S
C376 H396 0.932 . S
C377 C375 1.408 . S
C377 C376 1.310 . S
C377 H397 0.930 . S
C378 C379 1.474 . S
C378 C380 1.285 . S
C378 H398 0.929 . S
C379 C376 1.461 . S
C379 C378 1.474 . S
C380 C375 1.342 . S
C380 C378 1.285 . S
C380 H399 0.930 . S
C381 C384 1.424 . S
C381 C386 1.245 . S
C381 C387 1.428 . S
C382 C385 1.260 . S
C382 C386 1.477 . S
C382 H400 0.932 . S
C383 C384 1.384 . S
C383 C385 1.479 . S
C383 H401 0.929 . S
C384 C381 1.424 . S
C384 C383 1.384 . S
C384 H402 0.928 . S
C385 C382 1.260 . S
C385 C383 1.479 . S
C386 C381 1.245 . S
C386 C382 1.477 . S
C386 H403 0.932 . S
C387 U370 2.882 . S
C387 C381 1.428 . S
C387 O390 1.301 . S
C387 O391 1.282 . S
O388 U370 2.441 . S
O388 C374 1.249 . S
O389 U370 2.420 . S
O389 C374 1.202 . S
O390 U370 2.455 . S
O390 C387 1.301 . S
O391 U370 2.449 . S
O391 C387 1.282 . S
H392 C365 0.931 . S
H393 C367 0.929 . S
H394 C368 0.930 . S
H395 C369 0.931 . S
H396 C376 0.932 . S
H397 C377 0.930 . S
H398 C378 0.929 . S
H399 C380 0.930 . S
H400 C382 0.932 . S
H401 C383 0.929 . S
H402 C384 0.928 . S
H403 C386 0.932 . S
C404 C405 1.349 . S
C404 C406 1.327 . S
C404 H429 0.950 . S
C405 C404 1.349 . S
C405 C421 1.349 . S
C406 C404 1.327 . S
C406 C425 1.429 . S
C406 H430 0.950 . S
C407 C424 1.574 . S
C407 C426 1.368 . S
C407 H431 0.949 . S
H408 C412 0.949 . S
C409 C410 1.349 . S
C409 C411 1.327 . S
C409 H432 0.950 . S
C410 C409 1.349 . S
C410 C422 1.349 . S
C411 C409 1.327 . S
C411 C427 1.429 . S
C411 H433 0.950 . S
C412 H408 0.949 . S
C412 C420 1.574 . S
C412 C428 1.368 . S
H413 C421 0.950 . S
H414 C419 0.950 . S
H415 C420 0.949 . S
H416 C422 0.950 . S
H417 C423 0.950 . S
H418 C424 0.949 . S
C419 H414 0.950 . S
C419 C421 1.327 . S
C419 C425 1.429 . S
C420 C412 1.574 . S
C420 H415 0.949 . S
C420 C426 1.368 . S
C421 C405 1.349 . S
C421 H413 0.950 . S
C421 C419 1.327 . S
C422 C410 1.349 . S
C422 H416 0.950 . S
C422 C423 1.327 . S
C423 H417 0.950 . S
C423 C422 1.327 . S
C423 C427 1.429 . S
C424 C407 1.574 . S
C424 H418 0.949 . S
C424 C428 1.368 . S
C425 C406 1.429 . S
C425 C419 1.429 . S
C425 C426 1.523 . S
C426 C407 1.368 . S
C426 C420 1.368 . S
C426 C425 1.523 . S
C427 C411 1.429 . S
C427 C423 1.429 . S
C427 C428 1.523 . S
C428 C412 1.368 . S
C428 C424 1.368 . S
C428 C427 1.523 . S
H429 C404 0.950 . S
H430 C406 0.950 . S
H431 C407 0.949 . S
H432 C409 0.950 . S
H433 C411 0.950 . S
C434 C435 1.349 . S
C434 C436 1.327 . S
C434 H459 0.950 . S
C435 C434 1.349 . S
C435 C451 1.349 . S
C436 C434 1.327 . S
C436 C455 1.429 . S
C436 H460 0.950 . S
C437 C454 1.574 . S
C437 C456 1.368 . S
C437 H461 0.949 . S
H438 C442 0.949 . S
C439 C440 1.349 . S
C439 C441 1.327 . S
C439 H462 0.950 . S
C440 C439 1.349 . S
C440 C452 1.349 . S
C441 C439 1.327 . S
C441 C457 1.429 . S
C441 H463 0.950 . S
C442 H438 0.949 . S
C442 C450 1.574 . S
C442 C458 1.368 . S
H443 C451 0.950 . S
H444 C449 0.950 . S
H445 C450 0.949 . S
H446 C452 0.950 . S
H447 C453 0.950 . S
H448 C454 0.949 . S
C449 H444 0.950 . S
C449 C451 1.327 . S
C449 C455 1.429 . S
C450 C442 1.574 . S
C450 H445 0.949 . S
C450 C456 1.368 . S
C451 C435 1.349 . S
C451 H443 0.950 . S
C451 C449 1.327 . S
C452 C440 1.349 . S
C452 H446 0.950 . S
C452 C453 1.327 . S
C453 H447 0.950 . S
C453 C452 1.327 . S
C453 C457 1.429 . S
C454 C437 1.574 . S
C454 H448 0.949 . S
C454 C458 1.368 . S
C455 C436 1.429 . S
C455 C449 1.429 . S
C455 C456 1.523 . S
C456 C437 1.368 . S
C456 C450 1.368 . S
C456 C455 1.523 . S
C457 C441 1.429 . S
C457 C453 1.429 . S
C457 C458 1.523 . S
C458 C442 1.368 . S
C458 C454 1.368 . S
C458 C457 1.523 . S
H459 C434 0.950 . S
H460 C436 0.950 . S
H461 C437 0.949 . S
H462 C439 0.950 . S
H463 C441 0.950 . S
C464 C465 1.349 . S
C464 C466 1.327 . S
C464 H489 0.950 . S
C465 C464 1.349 . S
C465 C481 1.349 . S
C466 C464 1.327 . S
C466 C485 1.429 . S
C466 H490 0.950 . S
C467 C484 1.574 . S
C467 C486 1.368 . S
C467 H491 0.949 . S
H468 C472 0.949 1_565 S
C469 C470 1.349 . S
C469 C471 1.327 . S
C469 H492 0.950 . S
C470 C469 1.349 . S
C470 C482 1.349 . S
C471 C469 1.327 . S
C471 C487 1.429 . S
C471 H493 0.950 . S
C472 H468 0.949 1_545 S
C472 C480 1.574 . S
C472 C488 1.368 . S
H473 C481 0.950 . S
H474 C479 0.950 . S
H475 C480 0.949 . S
H476 C482 0.950 . S
H477 C483 0.950 . S
H478 C484 0.949 . S
C479 H474 0.950 . S
C479 C481 1.327 . S
C479 C485 1.429 . S
C480 C472 1.574 . S
C480 H475 0.949 . S
C480 C486 1.368 . S
C481 C465 1.349 . S
C481 H473 0.950 . S
C481 C479 1.327 . S
C482 C470 1.349 . S
C482 H476 0.950 . S
C482 C483 1.327 . S
C483 H477 0.950 . S
C483 C482 1.327 . S
C483 C487 1.429 . S
C484 C467 1.574 . S
C484 H478 0.949 . S
C484 C488 1.368 . S
C485 C466 1.429 . S
C485 C479 1.429 . S
C485 C486 1.523 . S
C486 C467 1.368 . S
C486 C480 1.368 . S
C486 C485 1.523 . S
C487 C471 1.429 . S
C487 C483 1.429 . S
C487 C488 1.523 1_565 S
C488 C472 1.368 . S
C488 C484 1.368 . S
C488 C487 1.523 1_545 S
H489 C464 0.950 . S
H490 C466 0.950 . S
H491 C467 0.949 . S
H492 C469 0.950 . S
H493 C471 0.950 . S
C494 C495 1.349 . S
C494 C496 1.327 . S
C494 H519 0.950 . S
C495 C494 1.349 . S
C495 C511 1.349 . S
C496 C494 1.327 . S
C496 C515 1.429 . S
C496 H520 0.950 . S
C497 C514 1.574 . S
C497 C516 1.368 . S
C497 H521 0.949 . S
H498 C502 0.949 . S
C499 C500 1.349 . S
C499 C501 1.327 . S
C499 H522 0.950 . S
C500 C499 1.349 . S
C500 C512 1.349 . S
C501 C499 1.327 . S
C501 C517 1.429 . S
C501 H523 0.950 . S
C502 H498 0.949 . S
C502 C510 1.574 . S
C502 C518 1.368 . S
H503 C511 0.950 . S
H504 C509 0.950 . S
H505 C510 0.949 . S
H506 C512 0.950 . S
H507 C513 0.950 . S
H508 C514 0.949 . S
C509 H504 0.950 . S
C509 C511 1.327 . S
C509 C515 1.429 . S
C510 C502 1.574 . S
C510 H505 0.949 . S
C510 C516 1.368 . S
C511 C495 1.349 . S
C511 H503 0.950 . S
C511 C509 1.327 . S
C512 C500 1.349 . S
C512 H506 0.950 . S
C512 C513 1.327 . S
C513 H507 0.950 . S
C513 C512 1.327 . S
C513 C517 1.429 . S
C514 C497 1.574 . S
C514 H508 0.949 . S
C514 C518 1.368 . S
C515 C496 1.429 . S
C515 C509 1.429 . S
C515 C516 1.523 . S
C516 C497 1.368 . S
C516 C510 1.368 . S
C516 C515 1.523 . S
C517 C501 1.429 . S
C517 C513 1.429 . S
C517 C518 1.523 . S
C518 C502 1.368 . S
C518 C514 1.368 . S
C518 C517 1.523 . S
H519 C494 0.950 . S
H520 C496 0.950 . S
H521 C497 0.949 . S
H522 C499 0.950 . S
H523 C501 0.950 . S
C524 C525 1.349 . S
C524 C526 1.327 . S
C524 H549 0.950 . S
C525 C524 1.349 . S
C525 C541 1.349 . S
C526 C524 1.327 . S
C526 C545 1.429 . S
C526 H550 0.950 . S
C527 C544 1.574 . S
C527 C546 1.368 . S
C527 H551 0.949 . S
H528 C532 0.949 . S
C529 C530 1.349 . S
C529 C531 1.327 . S
C529 H552 0.950 . S
C530 C529 1.349 . S
C530 C542 1.349 . S
C531 C529 1.327 . S
C531 C547 1.429 . S
C531 H553 0.950 . S
C532 H528 0.949 . S
C532 C540 1.574 . S
C532 C548 1.368 . S
H533 C541 0.950 . S
H534 C539 0.950 . S
H535 C540 0.949 . S
H536 C542 0.950 . S
H537 C543 0.950 . S
H538 C544 0.949 . S
C539 H534 0.950 . S
C539 C541 1.327 . S
C539 C545 1.429 . S
C540 C532 1.574 . S
C540 H535 0.949 . S
C540 C546 1.368 . S
C541 C525 1.349 . S
C541 H533 0.950 . S
C541 C539 1.327 . S
C542 C530 1.349 . S
C542 H536 0.950 . S
C542 C543 1.327 . S
C543 H537 0.950 . S
C543 C542 1.327 . S
C543 C547 1.429 . S
C544 C527 1.574 . S
C544 H538 0.949 . S
C544 C548 1.368 . S
C545 C526 1.429 . S
C545 C539 1.429 . S
C545 C546 1.523 . S
C546 C527 1.368 . S
C546 C540 1.368 . S
C546 C545 1.523 . S
C547 C531 1.429 . S
C547 C543 1.429 . S
C547 C548 1.523 . S
C548 C532 1.368 . S
C548 C544 1.368 . S
C548 C547 1.523 . S
H549 C524 0.950 . S
H550 C526 0.950 . S
H551 C527 0.949 . S
H552 C529 0.950 . S
H553 C531 0.950 . S
C554 C555 1.349 . S
C554 C556 1.327 . S
C554 H579 0.950 . S
C555 C554 1.349 . S
C555 C571 1.349 . S
C556 C554 1.327 . S
C556 C575 1.429 . S
C556 H580 0.950 . S
C557 C574 1.574 . S
C557 C576 1.361 1_556 S
C557 H581 0.949 . S
H558 C562 0.950 . S
C559 C560 1.349 . S
C559 C561 1.327 1_455 S
C559 H582 0.950 . S
C560 C559 1.349 . S
C560 C572 1.349 . S
C561 C559 1.327 1_655 S
C561 C577 1.429 . S
C561 H583 0.950 . S
C562 H558 0.950 . S
C562 C570 1.576 . S
C562 C578 1.364 1_554 S
H563 C571 0.950 . S
H564 C569 0.950 1_556 S
H565 C570 0.949 . S
H566 C572 0.950 . S
H567 C573 0.950 . S
H568 C574 0.949 . S
C569 H564 0.950 1_554 S
C569 C571 1.327 . S
C569 C575 1.429 . S
C570 C562 1.576 . S
C570 H565 0.949 . S
C570 C576 1.372 . S
C571 C555 1.349 . S
C571 H563 0.950 . S
C571 C569 1.327 . S
C572 C560 1.349 . S
C572 H566 0.950 . S
C572 C573 1.327 . S
C573 H567 0.950 . S
C573 C572 1.327 . S
C573 C577 1.402 1_455 S
C574 C557 1.574 . S
C574 H568 0.949 . S
C574 C578 1.368 . S
C575 C556 1.429 . S
C575 C569 1.429 . S
C575 C576 1.527 . S
C576 C557 1.361 1_554 S
C576 C570 1.372 . S
C576 C575 1.527 . S
C577 C561 1.429 . S
C577 C573 1.402 1_655 S
C577 C578 1.548 . S
C578 C562 1.364 1_556 S
C578 C574 1.368 . S
C578 C577 1.548 . S
H579 C554 0.950 . S
H580 C556 0.950 . S
H581 C557 0.949 . S
H582 C559 0.950 . S
H583 C561 0.950 . S
C584 C585 1.349 . S
C584 C586 1.327 . S
C584 H609 0.950 . S
C585 C584 1.349 . S
C585 C601 1.349 . S
C586 C584 1.327 . S
C586 C605 1.429 . S
C586 H610 0.950 . S
C587 C604 1.574 . S
C587 C606 1.368 . S
C587 H611 0.949 . S
H588 C592 0.949 . S
C589 C590 1.349 . S
C589 C591 1.327 . S
C589 H612 0.950 . S
C590 C589 1.349 . S
C590 C602 1.349 . S
C591 C589 1.327 . S
C591 C607 1.429 . S
C591 H613 0.950 . S
C592 H588 0.949 . S
C592 C600 1.574 . S
C592 C608 1.368 . S
H593 C601 0.950 . S
H594 C599 0.950 . S
H595 C600 0.949 . S
H596 C602 0.950 . S
H597 C603 0.950 . S
H598 C604 0.949 . S
C599 H594 0.950 . S
C599 C601 1.327 . S
C599 C605 1.429 . S
C600 C592 1.574 . S
C600 H595 0.949 . S
C600 C606 1.368 . S
C601 C585 1.349 . S
C601 H593 0.950 . S
C601 C599 1.327 . S
C602 C590 1.349 . S
C602 H596 0.950 . S
C602 C603 1.327 . S
C603 H597 0.950 . S
C603 C602 1.327 . S
C603 C607 1.429 . S
C604 C587 1.574 . S
C604 H598 0.949 . S
C604 C608 1.368 . S
C605 C586 1.429 . S
C605 C599 1.429 . S
C605 C606 1.523 . S
C606 C587 1.368 . S
C606 C600 1.368 . S
C606 C605 1.523 . S
C607 C591 1.429 . S
C607 C603 1.429 . S
C607 C608 1.523 . S
C608 C592 1.368 . S
C608 C604 1.368 . S
C608 C607 1.523 . S
H609 C584 0.950 . S
H610 C586 0.950 . S
H611 C587 0.949 . S
H612 C589 0.950 . S
H613 C591 0.950 . S
C614 C615 1.349 . S
C614 C616 1.327 . S
C614 H639 0.950 . S
C615 C614 1.349 . S
C615 C631 1.349 . S
C616 C614 1.327 . S
C616 C635 1.429 . S
C616 H640 0.950 . S
C617 C634 1.574 . S
C617 C636 1.368 . S
C617 H641 0.949 . S
H618 C622 0.949 . S
C619 C620 1.349 . S
C619 C621 1.327 1_655 S
C619 H642 0.950 . S
C620 C619 1.349 . S
C620 C632 1.349 1_655 S
C621 C619 1.327 1_455 S
C621 C637 1.429 . S
C621 H643 0.950 . S
C622 H618 0.949 . S
C622 C630 1.574 . S
C622 C638 1.368 . S
H623 C631 0.950 . S
H624 C629 0.950 . S
H625 C630 0.949 . S
H626 C632 0.950 . S
H627 C633 0.950 . S
H628 C634 0.949 . S
C629 H624 0.950 . S
C629 C631 1.327 . S
C629 C635 1.429 . S
C630 C622 1.574 . S
C630 H625 0.949 . S
C630 C636 1.368 . S
C631 C615 1.349 . S
C631 H623 0.950 . S
C631 C629 1.327 . S
C632 C620 1.349 1_455 S
C632 H626 0.950 . S
C632 C633 1.327 . S
C633 H627 0.950 . S
C633 C632 1.327 . S
C633 C637 1.429 . S
C634 C617 1.574 . S
C634 H628 0.949 . S
C634 C638 1.368 . S
C635 C616 1.429 . S
C635 C629 1.429 . S
C635 C636 1.523 . S
C636 C617 1.368 . S
C636 C630 1.368 . S
C636 C635 1.523 . S
C637 C621 1.429 . S
C637 C633 1.429 . S
C637 C638 1.523 . S
C638 C622 1.368 . S
C638 C634 1.368 . S
C638 C637 1.523 . S
H639 C614 0.950 . S
H640 C616 0.950 . S
H641 C617 0.949 . S
H642 C619 0.950 . S
H643 C621 0.950 . S
C644 C645 1.349 . S
C644 C646 1.327 . S
C644 H669 0.950 1_556 S
C645 C644 1.349 . S
C645 C661 1.349 . S
C646 C644 1.327 . S
C646 C665 1.429 . S
C646 H670 0.950 . S
C647 C664 1.574 . S
C647 C666 1.368 . S
C647 H671 0.949 . S
H648 C652 0.949 . S
C649 C650 1.349 1_545 S
C649 C651 1.327 . S
C649 H672 0.950 . S
C650 C649 1.349 1_565 S
C650 C662 1.349 . S
C651 C649 1.327 . S
C651 C667 1.429 . S
C651 H673 0.950 . S
C652 H648 0.949 . S
C652 C660 1.574 . S
C652 C668 1.368 . S
H653 C661 0.950 . S
H654 C659 0.950 . S
H655 C660 0.949 . S
H656 C662 0.950 . S
H657 C663 0.950 . S
H658 C664 0.949 . S
C659 H654 0.950 . S
C659 C661 1.327 . S
C659 C665 1.429 . S
C660 C652 1.574 . S
C660 H655 0.949 . S
C660 C666 1.368 . S
C661 C645 1.349 . S
C661 H653 0.950 . S
C661 C659 1.327 . S
C662 C650 1.349 . S
C662 H656 0.950 . S
C662 C663 1.327 . S
C663 H657 0.950 . S
C663 C662 1.327 . S
C663 C667 1.429 1_565 S
C664 C647 1.574 . S
C664 H658 0.949 . S
C664 C668 1.368 . S
C665 C646 1.429 . S
C665 C659 1.429 . S
C665 C666 1.523 . S
C666 C647 1.368 . S
C666 C660 1.368 . S
C666 C665 1.523 . S
C667 C651 1.429 . S
C667 C663 1.429 1_545 S
C667 C668 1.523 . S
C668 C652 1.368 . S
C668 C664 1.368 . S
C668 C667 1.523 . S
H669 C644 0.950 1_554 S
H670 C646 0.950 . S
H671 C647 0.949 . S
H672 C649 0.950 . S
H673 C651 0.950 . S
C674 C675 1.349 . S
C674 C676 1.327 . S
C674 H699 0.950 . S
C675 C674 1.349 . S
C675 C691 1.349 . S
C676 C674 1.327 . S
C676 C695 1.429 . S
C676 H700 0.950 . S
C677 C694 1.574 . S
C677 C696 1.368 . S
C677 H701 0.949 . S
H678 C682 0.949 . S
C679 C680 1.349 . S
C679 C681 1.327 . S
C679 H702 0.950 . S
C680 C679 1.349 . S
C680 C692 1.349 . S
C681 C679 1.327 . S
C681 C697 1.429 . S
C681 H703 0.950 . S
C682 H678 0.949 . S
C682 C690 1.574 . S
C682 C698 1.368 . S
H683 C691 0.950 . S
H684 C689 0.950 . S
H685 C690 0.949 . S
H686 C692 0.950 . S
H687 C693 0.950 . S
H688 C694 0.949 . S
C689 H684 0.950 . S
C689 C691 1.327 . S
C689 C695 1.429 . S
C690 C682 1.574 . S
C690 H685 0.949 . S
C690 C696 1.368 . S
C691 C675 1.349 . S
C691 H683 0.950 . S
C691 C689 1.327 . S
C692 C680 1.349 . S
C692 H686 0.950 . S
C692 C693 1.327 . S
C693 H687 0.950 . S
C693 C692 1.327 . S
C693 C697 1.429 . S
C694 C677 1.574 . S
C694 H688 0.949 . S
C694 C698 1.368 . S
C695 C676 1.429 . S
C695 C689 1.429 . S
C695 C696 1.523 . S
C696 C677 1.368 . S
C696 C690 1.368 . S
C696 C695 1.523 . S
C697 C681 1.429 . S
C697 C693 1.429 . S
C697 C698 1.523 . S
C698 C682 1.368 . S
C698 C694 1.368 . S
C698 C697 1.523 . S
H699 C674 0.950 . S
H700 C676 0.950 . S
H701 C677 0.949 . S
H702 C679 0.950 . S
H703 C681 0.950 . S
C704 C705 1.349 . S
C704 C706 1.327 . S
C704 H729 0.950 . S
C705 C704 1.349 . S
C705 C721 1.349 . S
C706 C704 1.327 . S
C706 C725 1.429 . S
C706 H730 0.950 . S
C707 C724 1.578 . S
C707 C726 1.366 1_545 S
C707 H731 0.972 1_545 S
H708 C712 0.949 . S
C709 C710 1.349 . S
C709 C711 1.327 . S
C709 H732 0.950 . S
C710 C709 1.349 . S
C710 C722 1.349 . S
C711 C709 1.327 . S
C711 C727 1.429 . S
C711 H733 0.950 . S
C712 H708 0.949 . S
C712 C720 1.574 1_545 S
C712 C728 1.368 . S
H713 C721 0.950 1_554 S
H714 C719 0.950 1_554 S
H715 C720 0.949 . S
H716 C722 0.950 . S
H717 C723 0.950 . S
H718 C724 0.949 . S
C719 H714 0.950 1_556 S
C719 C721 1.327 . S
C719 C725 1.429 . S
C720 C712 1.574 1_565 S
C720 H715 0.949 . S
C720 C726 1.368 . S
C721 C705 1.349 . S
C721 H713 0.950 1_556 S
C721 C719 1.327 . S
C722 C710 1.349 . S
C722 H716 0.950 . S
C722 C723 1.327 . S
C723 H717 0.950 . S
C723 C722 1.327 . S
C723 C727 1.429 . S
C724 C707 1.578 . S
C724 H718 0.949 . S
C724 C728 1.368 . S
C725 C706 1.429 . S
C725 C719 1.429 . S
C725 C726 1.523 . S
C726 C707 1.366 1_565 S
C726 C720 1.368 . S
C726 C725 1.523 . S
C727 C711 1.429 . S
C727 C723 1.429 . S
C727 C728 1.523 . S
C728 C712 1.368 . S
C728 C724 1.368 . S
C728 C727 1.523 . S
H729 C704 0.950 . S
H730 C706 0.950 . S
H731 C707 0.972 1_565 S
H732 C709 0.950 . S
H733 C711 0.950 . S
C734 C735 1.349 . S
C734 C736 1.327 . S
C734 H759 0.950 . S
C735 C734 1.349 . S
C735 C751 1.349 . S
C736 C734 1.327 . S
C736 C755 1.429 . S
C736 H760 0.950 . S
C737 C754 1.574 . S
C737 C756 1.368 . S
C737 H761 0.949 . S
H738 C742 0.949 . S
C739 C740 1.349 . S
C739 C741 1.327 . S
C739 H762 0.950 . S
C740 C739 1.349 . S
C740 C752 1.349 . S
C741 C739 1.327 . S
C741 C757 1.429 . S
C741 H763 0.950 . S
C742 H738 0.949 . S
C742 C750 1.574 . S
C742 C758 1.368 . S
H743 C751 0.950 . S
H744 C749 0.950 . S
H745 C750 0.949 . S
H746 C752 0.950 . S
H747 C753 0.950 . S
H748 C754 0.949 . S
C749 H744 0.950 . S
C749 C751 1.327 . S
C749 C755 1.429 . S
C750 C742 1.574 . S
C750 H745 0.949 . S
C750 C756 1.368 . S
C751 C735 1.349 . S
C751 H743 0.950 . S
C751 C749 1.327 . S
C752 C740 1.349 . S
C752 H746 0.950 . S
C752 C753 1.327 . S
C753 H747 0.950 . S
C753 C752 1.327 . S
C753 C757 1.429 . S
C754 C737 1.574 . S
C754 H748 0.949 . S
C754 C758 1.368 . S
C755 C736 1.429 . S
C755 C749 1.429 . S
C755 C756 1.523 . S
C756 C737 1.368 . S
C756 C750 1.368 . S
C756 C755 1.523 . S
C757 C741 1.429 . S
C757 C753 1.429 . S
C757 C758 1.523 . S
C758 C742 1.368 . S
C758 C754 1.368 . S
C758 C757 1.523 . S
H759 C734 0.950 . S
H760 C736 0.950 . S
H761 C737 0.949 . S
H762 C739 0.950 . S
H763 C741 0.950 . S
C764 C765 1.349 . S
C764 C766 1.327 . S
C764 H789 0.950 . S
C765 C764 1.349 . S
C765 C781 1.349 . S
C766 C764 1.327 . S
C766 C785 1.429 . S
C766 H790 0.950 . S
C767 C784 1.574 . S
C767 C786 1.368 . S
C767 H791 0.949 . S
H768 C772 0.949 . S
C769 C770 1.349 . S
C769 C771 1.327 . S
C769 H792 0.950 . S
C770 C769 1.349 . S
C770 C782 1.349 . S
C771 C769 1.327 . S
C771 C787 1.429 . S
C771 H793 0.950 . S
C772 H768 0.949 . S
C772 C780 1.574 . S
C772 C788 1.368 . S
H773 C781 0.950 . S
H774 C779 0.950 . S
H775 C780 0.949 . S
H776 C782 0.950 . S
H777 C783 0.950 . S
H778 C784 0.949 . S
C779 H774 0.950 . S
C779 C781 1.327 . S
C779 C785 1.429 . S
C780 C772 1.574 . S
C780 H775 0.949 . S
C780 C786 1.368 . S
C781 C765 1.349 . S
C781 H773 0.950 . S
C781 C779 1.327 . S
C782 C770 1.349 . S
C782 H776 0.950 . S
C782 C783 1.327 . S
C783 H777 0.950 . S
C783 C782 1.327 . S
C783 C787 1.429 . S
C784 C767 1.574 . S
C784 H778 0.949 . S
C784 C788 1.368 . S
C785 C766 1.429 . S
C785 C779 1.429 . S
C785 C786 1.523 . S
C786 C767 1.368 . S
C786 C780 1.368 . S
C786 C785 1.523 . S
C787 C771 1.429 . S
C787 C783 1.429 . S
C787 C788 1.523 . S
C788 C772 1.368 . S
C788 C784 1.368 . S
C788 C787 1.523 . S
H789 C764 0.950 . S
H790 C766 0.950 . S
H791 C767 0.949 . S
H792 C769 0.950 . S
H793 C771 0.950 . S
C794 C795 1.349 . S
C794 C796 1.327 . S
C794 H819 0.950 . S
C795 C794 1.349 . S
C795 C811 1.349 . S
C796 C794 1.327 . S
C796 C815 1.429 . S
C796 H820 0.950 . S
C797 C814 1.574 1_455 S
C797 C816 1.368 . S
C797 H821 0.949 . S
H798 C802 0.949 . S
C799 C800 1.349 . S
C799 C801 1.327 . S
C799 H822 0.950 . S
C800 C799 1.349 . S
C800 C812 1.349 . S
C801 C799 1.327 . S
C801 C817 1.429 . S
C801 H823 0.950 . S
C802 H798 0.949 . S
C802 C810 1.574 1_655 S
C802 C818 1.368 . S
H803 C811 0.950 . S
H804 C809 0.950 . S
H805 C810 0.949 . S
H806 C812 0.950 . S
H807 C813 0.950 . S
H808 C814 0.949 . S
C809 H804 0.950 . S
C809 C811 1.327 . S
C809 C815 1.429 . S
C810 C802 1.574 1_455 S
C810 H805 0.949 . S
C810 C816 1.368 . S
C811 C795 1.349 . S
C811 H803 0.950 . S
C811 C809 1.327 . S
C812 C800 1.349 . S
C812 H806 0.950 . S
C812 C813 1.327 . S
C813 H807 0.950 . S
C813 C812 1.327 . S
C813 C817 1.429 . S
C814 C797 1.574 1_655 S
C814 H808 0.949 . S
C814 C818 1.368 . S
C815 C796 1.429 . S
C815 C809 1.429 . S
C815 C816 1.523 . S
C816 C797 1.368 . S
C816 C810 1.368 . S
C816 C815 1.523 . S
C817 C801 1.429 . S
C817 C813 1.429 . S
C817 C818 1.523 . S
C818 C802 1.368 . S
C818 C814 1.368 . S
C818 C817 1.523 . S
H819 C794 0.950 . S
H820 C796 0.950 . S
H821 C797 0.949 . S
H822 C799 0.950 . S
H823 C801 0.950 . S
C824 C825 1.349 . S
C824 C826 1.327 . S
C824 H849 0.950 . S
C825 C824 1.349 . S
C825 C841 1.349 . S
C826 C824 1.327 . S
C826 C845 1.429 . S
C826 H850 0.950 . S
C827 C844 1.574 . S
C827 C846 1.368 . S
C827 H851 0.949 . S
H828 C832 0.949 . S
C829 C830 1.349 . S
C829 C831 1.327 . S
C829 H852 0.950 . S
C830 C829 1.349 . S
C830 C842 1.349 . S
C831 C829 1.327 . S
C831 C847 1.429 . S
C831 H853 0.950 . S
C832 H828 0.949 . S
C832 C840 1.574 . S
C832 C848 1.368 . S
H833 C841 0.950 . S
H834 C839 0.950 . S
H835 C840 0.949 . S
H836 C842 0.950 . S
H837 C843 0.950 . S
H838 C844 0.949 . S
C839 H834 0.950 . S
C839 C841 1.327 . S
C839 C845 1.429 . S
C840 C832 1.574 . S
C840 H835 0.949 . S
C840 C846 1.368 . S
C841 C825 1.349 . S
C841 H833 0.950 . S
C841 C839 1.327 . S
C842 C830 1.349 . S
C842 H836 0.950 . S
C842 C843 1.327 . S
C843 H837 0.950 . S
C843 C842 1.327 . S
C843 C847 1.429 . S
C844 C827 1.574 . S
C844 H838 0.949 . S
C844 C848 1.368 . S
C845 C826 1.429 . S
C845 C839 1.429 . S
C845 C846 1.523 . S
C846 C827 1.368 . S
C846 C840 1.368 . S
C846 C845 1.523 . S
C847 C831 1.429 . S
C847 C843 1.429 . S
C847 C848 1.523 . S
C848 C832 1.368 . S
C848 C844 1.368 . S
C848 C847 1.523 . S
H849 C824 0.950 . S
H850 C826 0.950 . S
H851 C827 0.949 . S
H852 C829 0.950 . S
H853 C831 0.950 . S
C854 C855 1.349 . S
C854 C856 1.327 . S
C854 H879 0.950 . S
C855 C854 1.349 . S
C855 C871 1.349 . S
C856 C854 1.327 . S
C856 C875 1.429 . S
C856 H880 0.950 . S
C857 C874 1.574 . S
C857 C876 1.368 . S
C857 H881 0.949 . S
H858 C862 0.949 . S
C859 C860 1.349 . S
C859 C861 1.327 . S
C859 H882 0.950 . S
C860 C859 1.349 . S
C860 C872 1.349 . S
C861 C859 1.327 . S
C861 C877 1.429 . S
C861 H883 0.950 . S
C862 H858 0.949 . S
C862 C870 1.574 . S
C862 C878 1.368 . S
H863 C871 0.950 . S
H864 C869 0.950 . S
H865 C870 0.949 . S
H866 C872 0.950 . S
H867 C873 0.950 . S
H868 C874 0.949 . S
C869 H864 0.950 . S
C869 C871 1.327 . S
C869 C875 1.429 . S
C870 C862 1.574 . S
C870 H865 0.949 . S
C870 C876 1.368 . S
C871 C855 1.349 . S
C871 H863 0.950 . S
C871 C869 1.327 . S
C872 C860 1.349 . S
C872 H866 0.950 . S
C872 C873 1.327 . S
C873 H867 0.950 . S
C873 C872 1.327 . S
C873 C877 1.429 . S
C874 C857 1.574 . S
C874 H868 0.949 . S
C874 C878 1.368 . S
C875 C856 1.429 . S
C875 C869 1.429 . S
C875 C876 1.523 . S
C876 C857 1.368 . S
C876 C870 1.368 . S
C876 C875 1.523 . S
C877 C861 1.429 . S
C877 C873 1.429 . S
C877 C878 1.523 1_455 S
C878 C862 1.368 . S
C878 C874 1.368 . S
C878 C877 1.523 1_655 S
H879 C854 0.950 . S
H880 C856 0.950 . S
H881 C857 0.949 . S
H882 C859 0.950 . S
H883 C861 0.950 . S
C884 C885 1.349 . S
C884 C886 1.327 . S
C884 H909 0.950 . S
C885 C884 1.349 . S
C885 C901 1.349 . S
C886 C884 1.327 . S
C886 C905 1.429 . S
C886 H910 0.950 . S
C887 C904 1.574 . S
C887 C906 1.368 . S
C887 H911 0.949 . S
H888 C892 0.949 . S
C889 C890 1.349 . S
C889 C891 1.327 . S
C889 H912 0.950 . S
C890 C889 1.349 . S
C890 C902 1.349 . S
C891 C889 1.327 . S
C891 C907 1.429 . S
C891 H913 0.950 . S
C892 H888 0.949 . S
C892 C900 1.574 . S
C892 C908 1.368 . S
H893 C901 0.950 . S
H894 C899 0.950 . S
H895 C900 0.949 . S
H896 C902 0.950 . S
H897 C903 0.950 . S
H898 C904 0.949 . S
C899 H894 0.950 . S
C899 C901 1.327 . S
C899 C905 1.429 . S
C900 C892 1.574 . S
C900 H895 0.949 . S
C900 C906 1.368 . S
C901 C885 1.349 . S
C901 H893 0.950 . S
C901 C899 1.327 . S
C902 C890 1.349 . S
C902 H896 0.950 . S
C902 C903 1.327 . S
C903 H897 0.950 . S
C903 C902 1.327 . S
C903 C907 1.429 . S
C904 C887 1.574 . S
C904 H898 0.949 . S
C904 C908 1.368 . S
C905 C886 1.429 . S
C905 C899 1.429 . S
C905 C906 1.523 . S
C906 C887 1.368 . S
C906 C900 1.368 . S
C906 C905 1.523 . S
C907 C891 1.429 . S
C907 C903 1.429 . S
C907 C908 1.523 . S
C908 C892 1.368 . S
C908 C904 1.368 . S
C908 C907 1.523 . S
H909 C884 0.950 . S
H910 C886 0.950 . S
H911 C887 0.949 . S
H912 C889 0.950 . S
H913 C891 0.950 . S
C914 C915 1.349 . S
C914 C916 1.327 . S
C914 H939 0.950 . S
C915 C914 1.349 . S
C915 C931 1.349 . S
C916 C914 1.327 . S
C916 C935 1.429 . S
C916 H940 0.950 . S
C917 C934 1.574 . S
C917 C936 1.368 . S
C917 H941 0.949 . S
H918 C922 0.949 . S
C919 C920 1.349 . S
C919 C921 1.327 . S
C919 H942 0.950 . S
C920 C919 1.349 . S
C920 C932 1.349 . S
C921 C919 1.327 . S
C921 C937 1.429 . S
C921 H943 0.950 . S
C922 H918 0.949 . S
C922 C930 1.574 . S
C922 C938 1.368 . S
H923 C931 0.950 . S
H924 C929 0.950 . S
H925 C930 0.949 . S
H926 C932 0.950 . S
H927 C933 0.950 . S
H928 C934 0.949 . S
C929 H924 0.950 . S
C929 C931 1.327 . S
C929 C935 1.429 . S
C930 C922 1.574 . S
C930 H925 0.949 . S
C930 C936 1.368 . S
C931 C915 1.349 . S
C931 H923 0.950 . S
C931 C929 1.327 . S
C932 C920 1.349 . S
C932 H926 0.950 . S
C932 C933 1.327 . S
C933 H927 0.950 . S
C933 C932 1.327 . S
C933 C937 1.429 . S
C934 C917 1.574 . S
C934 H928 0.949 . S
C934 C938 1.368 . S
C935 C916 1.429 . S
C935 C929 1.429 . S
C935 C936 1.523 . S
C936 C917 1.368 . S
C936 C930 1.368 . S
C936 C935 1.523 . S
C937 C921 1.429 . S
C937 C933 1.429 . S
C937 C938 1.523 . S
C938 C922 1.368 . S
C938 C934 1.368 . S
C938 C937 1.523 . S
H939 C914 0.950 . S
H940 C916 0.950 . S
H941 C917 0.949 . S
H942 C919 0.950 . S
H943 C921 0.950 . S
C944 C945 1.349 . S
C944 C946 1.327 . S
C944 H969 0.950 . S
C945 C944 1.349 . S
C945 C961 1.349 . S
C946 C944 1.327 . S
C946 C965 1.429 . S
C946 H970 0.950 . S
C947 C964 1.574 . S
C947 C966 1.368 . S
C947 H971 0.949 . S
H948 C952 0.949 . S
C949 C950 1.349 . S
C949 C951 1.327 . S
C949 H972 0.950 . S
C950 C949 1.349 . S
C950 C962 1.349 . S
C951 C949 1.327 . S
C951 C967 1.429 . S
C951 H973 0.950 . S
C952 H948 0.949 . S
C952 C960 1.574 . S
C952 C968 1.368 . S
H953 C961 0.950 . S
H954 C959 0.950 . S
H955 C960 0.949 . S
H956 C962 0.950 . S
H957 C963 0.950 . S
H958 C964 0.949 . S
C959 H954 0.950 . S
C959 C961 1.327 . S
C959 C965 1.429 . S
C960 C952 1.574 . S
C960 H955 0.949 . S
C960 C966 1.368 . S
C961 C945 1.349 . S
C961 H953 0.950 . S
C961 C959 1.327 . S
C962 C950 1.349 . S
C962 H956 0.950 . S
C962 C963 1.327 . S
C963 H957 0.950 . S
C963 C962 1.327 . S
C963 C967 1.429 . S
C964 C947 1.574 . S
C964 H958 0.949 . S
C964 C968 1.368 . S
C965 C946 1.429 . S
C965 C959 1.429 . S
C965 C966 1.523 . S
C966 C947 1.368 . S
C966 C960 1.368 . S
C966 C965 1.523 . S
C967 C951 1.429 . S
C967 C963 1.429 . S
C967 C968 1.523 . S
C968 C952 1.368 . S
C968 C964 1.368 . S
C968 C967 1.523 . S
H969 C944 0.950 . S
H970 C946 0.950 . S
H971 C947 0.949 . S
H972 C949 0.950 . S
H973 C951 0.950 . S
C974 C975 1.349 . S
C974 C976 1.327 . S
C974 H999 0.950 . S
C975 C974 1.349 . S
C975 C991 1.349 . S
C976 C974 1.327 . S
C976 C995 1.429 . S
C976 H1000 0.950 . S
C977 C994 1.574 . S
C977 C996 1.368 . S
C977 H1001 0.949 . S
H978 C982 0.949 . S
C979 C980 1.349 . S
C979 C981 1.327 . S
C979 H1002 0.950 . S
C980 C979 1.349 . S
C980 C992 1.349 . S
C981 C979 1.327 . S
C981 C997 1.429 . S
C981 H1003 0.950 . S
C982 H978 0.949 . S
C982 C990 1.574 . S
C982 C998 1.368 . S
H983 C991 0.950 . S
H984 C989 0.950 . S
H985 C990 0.949 . S
H986 C992 0.950 . S
H987 C993 0.950 . S
H988 C994 0.949 . S
C989 H984 0.950 . S
C989 C991 1.327 . S
C989 C995 1.429 . S
C990 C982 1.574 . S
C990 H985 0.949 . S
C990 C996 1.368 . S
C991 C975 1.349 . S
C991 H983 0.950 . S
C991 C989 1.327 . S
C992 C980 1.349 . S
C992 H986 0.950 . S
C992 C993 1.327 . S
C993 H987 0.950 . S
C993 C992 1.327 . S
C993 C997 1.429 . S
C994 C977 1.574 . S
C994 H988 0.949 . S
C994 C998 1.368 . S
C995 C976 1.429 . S
C995 C989 1.429 . S
C995 C996 1.523 . S
C996 C977 1.368 . S
C996 C990 1.368 . S
C996 C995 1.523 . S
C997 C981 1.429 . S
C997 C993 1.429 . S
C997 C998 1.523 . S
C998 C982 1.368 . S
C998 C994 1.368 . S
C998 C997 1.523 . S
H999 C974 0.950 . S
H1000 C976 0.950 . S
H1001 C977 0.949 . S
H1002 C979 0.950 . S
H1003 C981 0.950 . S
C1004 C1005 1.349 . S
C1004 C1006 1.327 . S
C1004 H1029 0.950 . S
C1005 C1004 1.349 . S
C1005 C1021 1.349 . S
C1006 C1004 1.327 . S
C1006 C1025 1.429 . S
C1006 H1030 0.950 . S
C1007 C1024 1.574 . S
C1007 C1026 1.368 . S
C1007 H1031 0.949 . S
H1008 C1012 0.949 . S
C1009 C1010 1.349 . S
C1009 C1011 1.327 . S
C1009 H1032 0.950 . S
C1010 C1009 1.349 . S
C1010 C1022 1.349 . S
C1011 C1009 1.327 . S
C1011 C1027 1.429 . S
C1011 H1033 0.950 . S
C1012 H1008 0.949 . S
C1012 C1020 1.574 . S
C1012 C1028 1.368 . S
H1013 C1021 0.950 . S
H1014 C1019 0.950 . S
H1015 C1020 0.949 . S
H1016 C1022 0.950 . S
H1017 C1023 0.950 . S
H1018 C1024 0.949 . S
C1019 H1014 0.950 . S
C1019 C1021 1.327 . S
C1019 C1025 1.429 . S
C1020 C1012 1.574 . S
C1020 H1015 0.949 . S
C1020 C1026 1.368 . S
C1021 C1005 1.349 . S
C1021 H1013 0.950 . S
C1021 C1019 1.327 . S
C1022 C1010 1.349 . S
C1022 H1016 0.950 . S
C1022 C1023 1.327 . S
C1023 H1017 0.950 . S
C1023 C1022 1.327 . S
C1023 C1027 1.429 . S
C1024 C1007 1.574 . S
C1024 H1018 0.949 . S
C1024 C1028 1.368 . S
C1025 C1006 1.429 . S
C1025 C1019 1.429 . S
C1025 C1026 1.523 . S
C1026 C1007 1.368 . S
C1026 C1020 1.368 . S
C1026 C1025 1.523 . S
C1027 C1011 1.429 . S
C1027 C1023 1.429 . S
C1027 C1028 1.523 . S
C1028 C1012 1.368 . S
C1028 C1024 1.368 . S
C1028 C1027 1.523 . S
H1029 C1004 0.950 . S
H1030 C1006 0.950 . S
H1031 C1007 0.949 . S
H1032 C1009 0.950 . S
H1033 C1011 0.950 . S
C1034 C1035 1.349 . S
C1034 C1036 1.327 . S
C1034 H1059 0.950 . S
C1035 C1034 1.349 . S
C1035 C1051 1.349 1_554 S
C1036 C1034 1.327 . S
C1036 C1055 1.429 1_554 S
C1036 H1060 0.950 . S
C1037 C1054 1.574 . S
C1037 C1056 1.368 . S
C1037 H1061 0.949 . S
H1038 C1042 0.949 . S
C1039 C1040 1.349 . S
C1039 C1041 1.327 . S
C1039 H1062 0.950 . S
C1040 C1039 1.349 . S
C1040 C1052 1.349 . S
C1041 C1039 1.327 . S
C1041 C1057 1.429 . S
C1041 H1063 0.950 . S
C1042 H1038 0.949 . S
C1042 C1050 1.574 . S
C1042 C1058 1.368 . S
H1043 C1051 0.950 . S
H1044 C1049 0.950 . S
H1045 C1050 0.949 1_554 S
H1046 C1052 0.950 . S
H1047 C1053 0.950 . S
H1048 C1054 0.949 . S
C1049 H1044 0.950 . S
C1049 C1051 1.327 . S
C1049 C1055 1.429 . S
C1050 C1042 1.574 . S
C1050 H1045 0.949 1_556 S
C1050 C1056 1.368 . S
C1051 C1035 1.349 1_556 S
C1051 H1043 0.950 . S
C1051 C1049 1.327 . S
C1052 C1040 1.349 . S
C1052 H1046 0.950 . S
C1052 C1053 1.327 . S
C1053 H1047 0.950 . S
C1053 C1052 1.327 . S
C1053 C1057 1.429 . S
C1054 C1037 1.574 . S
C1054 H1048 0.949 . S
C1054 C1058 1.368 . S
C1055 C1036 1.429 1_556 S
C1055 C1049 1.429 . S
C1055 C1056 1.523 . S
C1056 C1037 1.368 . S
C1056 C1050 1.368 . S
C1056 C1055 1.523 . S
C1057 C1041 1.429 . S
C1057 C1053 1.429 . S
C1057 C1058 1.523 . S
C1058 C1042 1.368 . S
C1058 C1054 1.368 . S
C1058 C1057 1.523 . S
H1059 C1034 0.950 . S
H1060 C1036 0.950 . S
H1061 C1037 0.949 . S
H1062 C1039 0.950 . S
H1063 C1041 0.950 . S
C1064 C1065 1.349 . S
C1064 C1066 1.327 . S
C1064 H1089 0.950 . S
C1065 C1064 1.349 . S
C1065 C1081 1.349 . S
C1066 C1064 1.327 . S
C1066 C1085 1.429 . S
C1066 H1090 0.950 . S
C1067 C1084 1.574 . S
C1067 C1086 1.368 . S
C1067 H1091 0.949 . S
H1068 C1072 0.949 . S
C1069 C1070 1.349 . S
C1069 C1071 1.327 . S
C1069 H1092 0.950 . S
C1070 C1069 1.349 . S
C1070 C1082 1.349 . S
C1071 C1069 1.327 . S
C1071 C1087 1.429 . S
C1071 H1093 0.950 . S
C1072 H1068 0.949 . S
C1072 C1080 1.574 . S
C1072 C1088 1.368 . S
H1073 C1081 0.950 . S
H1074 C1079 0.950 . S
H1075 C1080 0.949 . S
H1076 C1082 0.950 . S
H1077 C1083 0.950 . S
H1078 C1084 0.949 . S
C1079 H1074 0.950 . S
C1079 C1081 1.327 . S
C1079 C1085 1.429 . S
C1080 C1072 1.574 . S
C1080 H1075 0.949 . S
C1080 C1086 1.368 . S
C1081 C1065 1.349 . S
C1081 H1073 0.950 . S
C1081 C1079 1.327 . S
C1082 C1070 1.349 . S
C1082 H1076 0.950 . S
C1082 C1083 1.327 . S
C1083 H1077 0.950 . S
C1083 C1082 1.327 . S
C1083 C1087 1.429 . S
C1084 C1067 1.574 . S
C1084 H1078 0.949 . S
C1084 C1088 1.368 . S
C1085 C1066 1.429 . S
C1085 C1079 1.429 . S
C1085 C1086 1.523 . S
C1086 C1067 1.368 . S
C1086 C1080 1.368 . S
C1086 C1085 1.523 . S
C1087 C1071 1.429 . S
C1087 C1083 1.429 . S
C1087 C1088 1.523 . S
C1088 C1072 1.368 . S
C1088 C1084 1.368 . S
C1088 C1087 1.523 . S
H1089 C1064 0.950 . S
H1090 C1066 0.950 . S
H1091 C1067 0.949 . S
H1092 C1069 0.950 . S
H1093 C1071 0.950 . S
C1094 C1095 1.349 . S
C1094 C1096 1.327 . S
C1094 H1119 0.950 . S
C1095 C1094 1.349 . S
C1095 C1111 1.349 . S
C1096 C1094 1.327 . S
C1096 C1115 1.429 . S
C1096 H1120 0.950 . S
C1097 C1114 1.574 . S
C1097 C1116 1.368 . S
C1097 H1121 0.949 . S
H1098 C1102 0.949 . S
C1099 C1100 1.349 . S
C1099 C1101 1.327 . S
C1099 H1122 0.950 . S
C1100 C1099 1.349 . S
C1100 C1112 1.349 . S
C1101 C1099 1.327 . S
C1101 C1117 1.429 . S
C1101 H1123 0.950 . S
C1102 H1098 0.949 . S
C1102 C1110 1.574 . S
C1102 C1118 1.368 . S
H1103 C1111 0.950 . S
H1104 C1109 0.950 . S
H1105 C1110 0.949 . S
H1106 C1112 0.950 . S
H1107 C1113 0.950 . S
H1108 C1114 0.949 . S
C1109 H1104 0.950 . S
C1109 C1111 1.327 . S
C1109 C1115 1.429 . S
C1110 C1102 1.574 . S
C1110 H1105 0.949 . S
C1110 C1116 1.368 . S
C1111 C1095 1.349 . S
C1111 H1103 0.950 . S
C1111 C1109 1.327 . S
C1112 C1100 1.349 . S
C1112 H1106 0.950 . S
C1112 C1113 1.327 . S
C1113 H1107 0.950 . S
C1113 C1112 1.327 . S
C1113 C1117 1.429 . S
C1114 C1097 1.574 . S
C1114 H1108 0.949 . S
C1114 C1118 1.368 . S
C1115 C1096 1.429 . S
C1115 C1109 1.429 . S
C1115 C1116 1.523 . S
C1116 C1097 1.368 . S
C1116 C1110 1.368 . S
C1116 C1115 1.523 . S
C1117 C1101 1.429 . S
C1117 C1113 1.429 . S
C1117 C1118 1.523 . S
C1118 C1102 1.368 . S
C1118 C1114 1.368 . S
C1118 C1117 1.523 . S
H1119 C1094 0.950 . S
H1120 C1096 0.950 . S
H1121 C1097 0.949 . S
H1122 C1099 0.950 . S
H1123 C1101 0.950 . S
C405 C7 0.812 . S
C410 C105 0.811 . S
C435 C25 0.931 . S
C440 C145 0.932 . S
C465 C46 0.738 . S
C470 C166 0.739 . S
C500 C225 0.605 . S
C495 C70 0.643 . S
C530 C265 0.768 . S
C525 C28 0.767 . S
C555 C49 0.889 . S
C560 C286 0.884 . S
C585 C67 0.822 . S
C590 C326 0.849 . S
C615 C4 0.671 . S
C620 C385 0.650 . S
C645 C58 1.579 . S
C650 C366 1.642 . S
C680 C246 2.031 . S
C675 C66 1.971 . S
C710 C305 1.958 . S
C705 C3 1.939 . S
C735 C37 1.858 . S
C740 C345 2.006 . S
C770 C126 1.974 . S
C765 C79 1.866 . S
C795 C16 2.096 . S
C800 C185 2.030 . S
C830 C206 1.648 . S
C825 C24 1.584 . S
C860 C86 1.919 . S
C855 C45 1.813 . S
C890 C339 1.308 . S
C885 C19 1.216 . S
C920 C379 1.040 . S
C915 C41 0.991 . S
C945 C62 1.090 . S
C950 C259 1.247 . S
C980 C299 1.451 . S
C975 C82 1.248 . S
C1010 C179 1.301 . S
C1005 C40 1.139 . S
C1035 C61 0.934 . S
C1040 C219 0.977 . S
C1070 C99 1.295 . S
C1065 C83 1.212 . S
C1100 C139 1.475 . S
C1095 C20 1.270 . S
