# Generated by pormake.
# Topology ibd, (4,6)-cn, num edge types: 1
# Building blocks:
#     Node 0, Type 0, BuildingBlock: CEKHIL_clean_sbu_0, # of connection points: 4
#     Node 1, Type 0, BuildingBlock: CEKHIL_clean_sbu_0, # of connection points: 4
#     Node 2, Type 0, BuildingBlock: CEKHIL_clean_sbu_0, # of connection points: 4
#     Node 3, Type 0, BuildingBlock: CEKHIL_clean_sbu_0, # of connection points: 4
#     Node 4, Type 0, BuildingBlock: CEKHIL_clean_sbu_0, # of connection points: 4
#     Node 5, Type 0, BuildingBlock: CEKHIL_clean_sbu_0, # of connection points: 4
#     Node 6, Type 0, BuildingBlock: CEKHIL_clean_sbu_0, # of connection points: 4
#     Node 7, Type 0, BuildingBlock: CEKHIL_clean_sbu_0, # of connection points: 4
#     Node 8, Type 0, BuildingBlock: CEKHIL_clean_sbu_0, # of connection points: 4
#     Node 9, Type 0, BuildingBlock: CEKHIL_clean_sbu_0, # of connection points: 4
#     Node 10, Type 0, BuildingBlock: CEKHIL_clean_sbu_0, # of connection points: 4
#     Node 11, Type 0, BuildingBlock: CEKHIL_clean_sbu_0, # of connection points: 4
#     Node 12, Type 0, BuildingBlock: CEKHIL_clean_sbu_0, # of connection points: 4
#     Node 13, Type 0, BuildingBlock: CEKHIL_clean_sbu_0, # of connection points: 4
#     Node 14, Type 0, BuildingBlock: CEKHIL_clean_sbu_0, # of connection points: 4
#     Node 15, Type 0, BuildingBlock: CEKHIL_clean_sbu_0, # of connection points: 4
#     Node 16, Type 0, BuildingBlock: CEKHIL_clean_sbu_0, # of connection points: 4
#     Node 17, Type 0, BuildingBlock: CEKHIL_clean_sbu_0, # of connection points: 4
#     Node 18, Type 0, BuildingBlock: CEKHIL_clean_sbu_0, # of connection points: 4
#     Node 19, Type 0, BuildingBlock: CEKHIL_clean_sbu_0, # of connection points: 4
#     Node 20, Type 0, BuildingBlock: CEKHIL_clean_sbu_0, # of connection points: 4
#     Node 21, Type 0, BuildingBlock: CEKHIL_clean_sbu_0, # of connection points: 4
#     Node 22, Type 0, BuildingBlock: CEKHIL_clean_sbu_0, # of connection points: 4
#     Node 23, Type 0, BuildingBlock: CEKHIL_clean_sbu_0, # of connection points: 4
#     Node 24, Type 1, BuildingBlock: OJICUG_clean_sbu_0, # of connection points: 6
#     Node 25, Type 1, BuildingBlock: OJICUG_clean_sbu_0, # of connection points: 6
#     Node 26, Type 1, BuildingBlock: OJICUG_clean_sbu_0, # of connection points: 6
#     Node 27, Type 1, BuildingBlock: OJICUG_clean_sbu_0, # of connection points: 6
#     Node 28, Type 1, BuildingBlock: OJICUG_clean_sbu_0, # of connection points: 6
#     Node 29, Type 1, BuildingBlock: OJICUG_clean_sbu_0, # of connection points: 6
#     Node 30, Type 1, BuildingBlock: OJICUG_clean_sbu_0, # of connection points: 6
#     Node 31, Type 1, BuildingBlock: OJICUG_clean_sbu_0, # of connection points: 6
#     Node 32, Type 1, BuildingBlock: OJICUG_clean_sbu_0, # of connection points: 6
#     Node 33, Type 1, BuildingBlock: OJICUG_clean_sbu_0, # of connection points: 6
#     Node 34, Type 1, BuildingBlock: OJICUG_clean_sbu_0, # of connection points: 6
#     Node 35, Type 1, BuildingBlock: OJICUG_clean_sbu_0, # of connection points: 6
#     Node 36, Type 1, BuildingBlock: OJICUG_clean_sbu_0, # of connection points: 6
#     Node 37, Type 1, BuildingBlock: OJICUG_clean_sbu_0, # of connection points: 6
#     Node 38, Type 1, BuildingBlock: OJICUG_clean_sbu_0, # of connection points: 6
#     Node 39, Type 1, BuildingBlock: OJICUG_clean_sbu_0, # of connection points: 6
#     Edge 40, Type (0, 1), BuildingBlock: AJUNOK_clean_linker_0, # of connection points: 2
#     Edge 41, Type (0, 1), BuildingBlock: AJUNOK_clean_linker_0, # of connection points: 2
#     Edge 42, Type (0, 1), BuildingBlock: AJUNOK_clean_linker_0, # of connection points: 2
#     Edge 43, Type (0, 1), BuildingBlock: AJUNOK_clean_linker_0, # of connection points: 2
#     Edge 44, Type (0, 1), BuildingBlock: AJUNOK_clean_linker_0, # of connection points: 2
#     Edge 45, Type (0, 1), BuildingBlock: AJUNOK_clean_linker_0, # of connection points: 2
#     Edge 46, Type (0, 1), BuildingBlock: AJUNOK_clean_linker_0, # of connection points: 2
#     Edge 47, Type (0, 1), BuildingBlock: AJUNOK_clean_linker_0, # of connection points: 2
#     Edge 48, Type (0, 1), BuildingBlock: AJUNOK_clean_linker_0, # of connection points: 2
#     Edge 49, Type (0, 1), BuildingBlock: AJUNOK_clean_linker_0, # of connection points: 2
#     Edge 50, Type (0, 1), BuildingBlock: AJUNOK_clean_linker_0, # of connection points: 2
#     Edge 51, Type (0, 1), BuildingBlock: AJUNOK_clean_linker_0, # of connection points: 2
#     Edge 52, Type (0, 1), BuildingBlock: AJUNOK_clean_linker_0, # of connection points: 2
#     Edge 53, Type (0, 1), BuildingBlock: AJUNOK_clean_linker_0, # of connection points: 2
#     Edge 54, Type (0, 1), BuildingBlock: AJUNOK_clean_linker_0, # of connection points: 2
#     Edge 55, Type (0, 1), BuildingBlock: AJUNOK_clean_linker_0, # of connection points: 2
#     Edge 56, Type (0, 1), BuildingBlock: AJUNOK_clean_linker_0, # of connection points: 2
#     Edge 57, Type (0, 1), BuildingBlock: AJUNOK_clean_linker_0, # of connection points: 2
#     Edge 58, Type (0, 1), BuildingBlock: AJUNOK_clean_linker_0, # of connection points: 2
#     Edge 59, Type (0, 1), BuildingBlock: AJUNOK_clean_linker_0, # of connection points: 2
#     Edge 60, Type (0, 1), BuildingBlock: AJUNOK_clean_linker_0, # of connection points: 2
#     Edge 61, Type (0, 1), BuildingBlock: AJUNOK_clean_linker_0, # of connection points: 2
#     Edge 62, Type (0, 1), BuildingBlock: AJUNOK_clean_linker_0, # of connection points: 2
#     Edge 63, Type (0, 1), BuildingBlock: AJUNOK_clean_linker_0, # of connection points: 2
#     Edge 64, Type (0, 1), BuildingBlock: AJUNOK_clean_linker_0, # of connection points: 2
#     Edge 65, Type (0, 1), BuildingBlock: AJUNOK_clean_linker_0, # of connection points: 2
#     Edge 66, Type (0, 1), BuildingBlock: AJUNOK_clean_linker_0, # of connection points: 2
#     Edge 67, Type (0, 1), BuildingBlock: AJUNOK_clean_linker_0, # of connection points: 2
#     Edge 68, Type (0, 1), BuildingBlock: AJUNOK_clean_linker_0, # of connection points: 2
#     Edge 69, Type (0, 1), BuildingBlock: AJUNOK_clean_linker_0, # of connection points: 2
#     Edge 70, Type (0, 1), BuildingBlock: AJUNOK_clean_linker_0, # of connection points: 2
#     Edge 71, Type (0, 1), BuildingBlock: AJUNOK_clean_linker_0, # of connection points: 2
#     Edge 72, Type (0, 1), BuildingBlock: AJUNOK_clean_linker_0, # of connection points: 2
#     Edge 73, Type (0, 1), BuildingBlock: AJUNOK_clean_linker_0, # of connection points: 2
#     Edge 74, Type (0, 1), BuildingBlock: AJUNOK_clean_linker_0, # of connection points: 2
#     Edge 75, Type (0, 1), BuildingBlock: AJUNOK_clean_linker_0, # of connection points: 2
#     Edge 76, Type (0, 1), BuildingBlock: AJUNOK_clean_linker_0, # of connection points: 2
#     Edge 77, Type (0, 1), BuildingBlock: AJUNOK_clean_linker_0, # of connection points: 2
#     Edge 78, Type (0, 1), BuildingBlock: AJUNOK_clean_linker_0, # of connection points: 2
#     Edge 79, Type (0, 1), BuildingBlock: AJUNOK_clean_linker_0, # of connection points: 2
#     Edge 80, Type (0, 1), BuildingBlock: AJUNOK_clean_linker_0, # of connection points: 2
#     Edge 81, Type (0, 1), BuildingBlock: AJUNOK_clean_linker_0, # of connection points: 2
#     Edge 82, Type (0, 1), BuildingBlock: AJUNOK_clean_linker_0, # of connection points: 2
#     Edge 83, Type (0, 1), BuildingBlock: AJUNOK_clean_linker_0, # of connection points: 2
#     Edge 84, Type (0, 1), BuildingBlock: AJUNOK_clean_linker_0, # of connection points: 2
#     Edge 85, Type (0, 1), BuildingBlock: AJUNOK_clean_linker_0, # of connection points: 2
#     Edge 86, Type (0, 1), BuildingBlock: AJUNOK_clean_linker_0, # of connection points: 2
#     Edge 87, Type (0, 1), BuildingBlock: AJUNOK_clean_linker_0, # of connection points: 2
#     Edge 88, Type (0, 1), BuildingBlock: AJUNOK_clean_linker_0, # of connection points: 2
#     Edge 89, Type (0, 1), BuildingBlock: AJUNOK_clean_linker_0, # of connection points: 2
#     Edge 90, Type (0, 1), BuildingBlock: AJUNOK_clean_linker_0, # of connection points: 2
#     Edge 91, Type (0, 1), BuildingBlock: AJUNOK_clean_linker_0, # of connection points: 2
#     Edge 92, Type (0, 1), BuildingBlock: AJUNOK_clean_linker_0, # of connection points: 2
#     Edge 93, Type (0, 1), BuildingBlock: AJUNOK_clean_linker_0, # of connection points: 2
#     Edge 94, Type (0, 1), BuildingBlock: AJUNOK_clean_linker_0, # of connection points: 2
#     Edge 95, Type (0, 1), BuildingBlock: AJUNOK_clean_linker_0, # of connection points: 2
#     Edge 96, Type (0, 1), BuildingBlock: AJUNOK_clean_linker_0, # of connection points: 2
#     Edge 97, Type (0, 1), BuildingBlock: AJUNOK_clean_linker_0, # of connection points: 2
#     Edge 98, Type (0, 1), BuildingBlock: AJUNOK_clean_linker_0, # of connection points: 2
#     Edge 99, Type (0, 1), BuildingBlock: AJUNOK_clean_linker_0, # of connection points: 2
#     Edge 100, Type (0, 1), BuildingBlock: AJUNOK_clean_linker_0, # of connection points: 2
#     Edge 101, Type (0, 1), BuildingBlock: AJUNOK_clean_linker_0, # of connection points: 2
#     Edge 102, Type (0, 1), BuildingBlock: AJUNOK_clean_linker_0, # of connection points: 2
#     Edge 103, Type (0, 1), BuildingBlock: AJUNOK_clean_linker_0, # of connection points: 2
#     Edge 104, Type (0, 1), BuildingBlock: AJUNOK_clean_linker_0, # of connection points: 2
#     Edge 105, Type (0, 1), BuildingBlock: AJUNOK_clean_linker_0, # of connection points: 2
#     Edge 106, Type (0, 1), BuildingBlock: AJUNOK_clean_linker_0, # of connection points: 2
#     Edge 107, Type (0, 1), BuildingBlock: AJUNOK_clean_linker_0, # of connection points: 2
#     Edge 108, Type (0, 1), BuildingBlock: AJUNOK_clean_linker_0, # of connection points: 2
#     Edge 109, Type (0, 1), BuildingBlock: AJUNOK_clean_linker_0, # of connection points: 2
#     Edge 110, Type (0, 1), BuildingBlock: AJUNOK_clean_linker_0, # of connection points: 2
#     Edge 111, Type (0, 1), BuildingBlock: AJUNOK_clean_linker_0, # of connection points: 2
#     Edge 112, Type (0, 1), BuildingBlock: AJUNOK_clean_linker_0, # of connection points: 2
#     Edge 113, Type (0, 1), BuildingBlock: AJUNOK_clean_linker_0, # of connection points: 2
#     Edge 114, Type (0, 1), BuildingBlock: AJUNOK_clean_linker_0, # of connection points: 2
#     Edge 115, Type (0, 1), BuildingBlock: AJUNOK_clean_linker_0, # of connection points: 2
#     Edge 116, Type (0, 1), BuildingBlock: AJUNOK_clean_linker_0, # of connection points: 2
#     Edge 117, Type (0, 1), BuildingBlock: AJUNOK_clean_linker_0, # of connection points: 2
#     Edge 118, Type (0, 1), BuildingBlock: AJUNOK_clean_linker_0, # of connection points: 2
#     Edge 119, Type (0, 1), BuildingBlock: AJUNOK_clean_linker_0, # of connection points: 2
#     Edge 120, Type (0, 1), BuildingBlock: AJUNOK_clean_linker_0, # of connection points: 2
#     Edge 121, Type (0, 1), BuildingBlock: AJUNOK_clean_linker_0, # of connection points: 2
#     Edge 122, Type (0, 1), BuildingBlock: AJUNOK_clean_linker_0, # of connection points: 2
#     Edge 123, Type (0, 1), BuildingBlock: AJUNOK_clean_linker_0, # of connection points: 2
#     Edge 124, Type (0, 1), BuildingBlock: AJUNOK_clean_linker_0, # of connection points: 2
#     Edge 125, Type (0, 1), BuildingBlock: AJUNOK_clean_linker_0, # of connection points: 2
#     Edge 126, Type (0, 1), BuildingBlock: AJUNOK_clean_linker_0, # of connection points: 2
#     Edge 127, Type (0, 1), BuildingBlock: AJUNOK_clean_linker_0, # of connection points: 2
#     Edge 128, Type (0, 1), BuildingBlock: AJUNOK_clean_linker_0, # of connection points: 2
#     Edge 129, Type (0, 1), BuildingBlock: AJUNOK_clean_linker_0, # of connection points: 2
#     Edge 130, Type (0, 1), BuildingBlock: AJUNOK_clean_linker_0, # of connection points: 2
#     Edge 131, Type (0, 1), BuildingBlock: AJUNOK_clean_linker_0, # of connection points: 2
#     Edge 132, Type (0, 1), BuildingBlock: AJUNOK_clean_linker_0, # of connection points: 2
#     Edge 133, Type (0, 1), BuildingBlock: AJUNOK_clean_linker_0, # of connection points: 2
#     Edge 134, Type (0, 1), BuildingBlock: AJUNOK_clean_linker_0, # of connection points: 2
#     Edge 135, Type (0, 1), BuildingBlock: AJUNOK_clean_linker_0, # of connection points: 2
# Relax obj value: 0.371
# Max RMSD: 0.283
# Mean RMSD: 0.280
data_MOF--net-ibd--node1-CEKHIL_clean_sbu_0--node2-OJICUG_clean_sbu_0--edge1-AJUNOK_clean_linker_0
_symmetry_space_group_name_H-M    P1
_symmetry_Int_Tables_number       1
_symmetry_cell_setting            triclinic
loop_
_symmetry_equiv_pos_as_xyz
'x, y, z'
_cell_length_a     36.57472
_cell_length_b     36.561115
_cell_length_c     36.606519
_cell_angle_alpha  90.338178
_cell_angle_beta   90.381392
_cell_angle_gamma 90.966552
loop_
_atom_site_label
_atom_site_type_symbol
_atom_site_fract_x
_atom_site_fract_y
_atom_site_fract_z
_atom_type_partial_charge
Co0 Co 0.01182 0.30196 0.36436 0.0
O1 O -0.00121 0.34059 0.33117 0.0
O2 O 0.96473 0.29145 0.34415 0.0
C3 C 0.03361 0.33716 0.41005 0.0
O4 O 0.01202 0.25754 0.39623 0.0
Co5 Co 0.0888 0.28405 0.39397 0.0
O6 O 0.06492 0.24483 0.42347 0.0
C7 C 0.06876 0.2655 0.31805 0.0
C8 C 0.96867 0.32154 0.32609 0.0
C9 C 0.03121 0.23782 0.41741 0.0
O10 O 0.0355 0.27444 0.32395 0.0
O11 O 0.09459 0.26929 0.34156 0.0
O12 O -0.00153 0.33202 0.40591 0.0
O13 O 0.05398 0.32309 0.3852 0.0
Co14 Co 0.96812 0.75195 0.60679 0.0
O15 O 0.93415 0.74958 0.64655 0.0
O16 O 0.96525 0.79918 0.62986 0.0
C17 C 0.93277 0.72117 0.56585 0.0
O18 O 0.00434 0.76657 0.56814 0.0
Co19 Co -0.00011 0.68221 0.56905 0.0
O20 O 0.0311 0.71773 0.54273 0.0
C21 C 0.03159 0.71027 0.63835 0.0
C22 C 0.9413 0.78426 0.6514 0.0
C23 C 0.0283 0.75206 0.54752 0.0
O24 O 0.01008 0.73783 0.63928 0.0
O25 O 0.02902 0.68438 0.61486 0.0
O26 O 0.9276 0.75581 0.57189 0.0
O27 O 0.95673 0.70616 0.58644 0.0
Co28 Co 0.52596 0.76723 0.87833 0.0
O29 O 0.52983 0.80769 0.84526 0.0
O30 O 0.48041 0.77248 0.85292 0.0
C31 C 0.55277 0.79642 0.92518 0.0
O32 O 0.51014 0.72464 0.91046 0.0
Co33 Co 0.59286 0.72902 0.91075 0.0
O34 O 0.55736 0.70073 0.94066 0.0
C35 C 0.57639 0.7239 0.83239 0.0
C36 C 0.49614 0.79984 0.83641 0.0
C37 C 0.52322 0.70221 0.93389 0.0
O38 O 0.54376 0.734 0.83922 0.0
O39 O 0.6015 0.72286 0.85687 0.0
O40 O 0.51813 0.80066 0.91838 0.0
O41 O 0.57044 0.77625 0.90248 0.0
Co42 Co 0.51104 0.24893 0.1338 0.0
O43 O 0.47382 0.24097 0.17001 0.0
O44 O 0.50225 0.29379 0.15926 0.0
C45 C 0.48232 0.21896 0.08866 0.0
O46 O 0.54805 0.26961 0.09859 0.0
Co47 Co 0.55415 0.18669 0.09594 0.0
O48 O 0.57533 0.22596 0.06557 0.0
C49 C 0.56443 0.20349 0.17413 0.0
C50 C 0.47756 0.27572 0.17735 0.0
C51 C 0.56959 0.25935 0.07323 0.0
O52 O 0.54966 0.23483 0.1698 0.0
O53 O 0.56574 0.17939 0.14872 0.0
O54 O 0.47354 0.25245 0.09636 0.0
O55 O 0.50613 0.20401 0.10968 0.0
Co56 Co -0.00218 0.73843 0.09867 0.0
O57 O -0.00365 0.77949 0.06597 0.0
O58 O 0.95243 0.73757 0.07147 0.0
C59 C 0.01814 0.76958 0.14741 0.0
O60 O 0.98745 0.69409 0.12976 0.0
Co61 Co 0.06878 0.71222 0.13842 0.0
O62 O 0.0337 0.68454 0.16893 0.0
C63 C 0.0564 0.69649 0.05999 0.0
C64 C 0.9639 0.76769 0.05642 0.0
C65 C 0.00102 0.67854 0.15794 0.0
O66 O 0.02325 0.70801 0.06105 0.0
O67 O 0.07884 0.69907 0.08679 0.0
O68 O 0.98338 0.76956 0.13956 0.0
O69 O 0.03907 0.75325 0.12478 0.0
Co70 Co 0.43987 0.7292 0.37372 0.0
O71 O 0.40911 0.73548 0.41574 0.0
O72 O 0.45342 0.77355 0.39792 0.0
C73 C 0.39635 0.71255 0.33339 0.0
O74 O 0.47587 0.73565 0.33345 0.0
Co75 Co 0.45137 0.65743 0.33046 0.0
O76 O 0.47909 0.68837 0.2949 0.0
C77 C 0.48395 0.66714 0.4035 0.0
C78 C 0.42783 0.76578 0.42097 0.0
C79 C 0.48821 0.72082 0.3046 0.0
O80 O 0.47612 0.70128 0.40333 0.0
O81 O 0.47326 0.64422 0.37899 0.0
O82 O 0.40158 0.74699 0.34147 0.0
O83 O 0.41525 0.68961 0.35194 0.0
Co84 Co 0.49269 0.25975 0.63308 0.0
O85 O 0.49537 0.28324 0.58667 0.0
O86 O 0.44445 0.26288 0.61305 0.0
C87 C 0.52965 0.29853 0.66356 0.0
O88 O 0.47791 0.23604 0.68002 0.0
Co89 Co 0.55989 0.22663 0.67273 0.0
O90 O 0.52585 0.2175 0.71338 0.0
C91 C 0.52576 0.18792 0.61007 0.0
C92 C 0.45994 0.27914 0.58567 0.0
C93 C 0.49178 0.22232 0.70884 0.0
O94 O 0.49946 0.21079 0.60941 0.0
O95 O 0.55343 0.19128 0.63145 0.0
O96 O 0.49567 0.30683 0.6577 0.0
O97 O 0.54078 0.26909 0.64789 0.0
Co98 Co 0.95805 0.2382 0.8664 0.0
O99 O 0.91831 0.25647 0.89537 0.0
O100 O 0.97511 0.27921 0.89444 0.0
C101 C 0.92589 0.23038 0.81467 0.0
O102 O 0.006 0.23065 0.84087 0.0
Co103 Co 0.96295 0.16359 0.8269 0.0
O104 O -0.00236 0.19131 0.79498 0.0
C105 C 0.97179 0.16829 0.90711 0.0
C106 C 0.94222 0.28069 0.90715 0.0
C107 C 0.01421 0.2189 0.8091 0.0
O108 O 0.97185 0.2035 0.9061 0.0
O109 O 0.96725 0.14768 0.879 0.0
O110 O 0.93887 0.26276 0.82323 0.0
O111 O 0.93163 0.20482 0.83794 0.0
Co112 Co 0.35518 0.01479 0.20696 0.0
O113 O 0.39762 0.02758 0.1782 0.0
O114 O 0.38203 0.97189 0.19746 0.0
C115 C 0.31413 0.04636 0.17463 0.0
O116 O 0.31551 0.98883 0.23494 0.0
Co117 Co 0.30793 0.06881 0.25036 0.0
O118 O 0.27417 0.02653 0.25853 0.0
C119 C 0.38069 0.04833 0.27883 0.0
C120 C 0.40439 0.99272 0.17942 0.0
C121 C 0.28582 -0.00543 0.25204 0.0
O122 O 0.38351 0.02428 0.25328 0.0
O123 O 0.35396 0.07044 0.28073 0.0
O124 O 0.32459 0.01441 0.16346 0.0
O125 O 0.33063 0.0593 0.2034 0.0
Co126 Co 0.2252 0.11192 0.50297 0.0
O127 O 0.22786 0.07472 0.53949 0.0
O128 O 0.27346 0.09174 0.50317 0.0
C129 C 0.1972 0.15188 0.53866 0.0
O130 O 0.23369 0.15017 0.46382 0.0
Co131 Co 0.15165 0.14095 0.47339 0.0
O132 O 0.18196 0.17853 0.4486 0.0
C133 C 0.17697 0.06817 0.45156 0.0
C134 C 0.26175 0.07149 0.52986 0.0
C135 C 0.21642 0.17499 0.44631 0.0
O136 O 0.20834 0.07515 0.46604 0.0
O137 O 0.14973 0.08954 0.45395 0.0
O138 O 0.23252 0.14876 0.54039 0.0
O139 O 0.17975 0.12959 0.51701 0.0
Co140 Co 0.13225 0.00018 0.74718 0.0
O141 O 0.17966 0.00447 0.72578 0.0
O142 O 0.15756 0.95539 0.75465 0.0
C143 C 0.101 0.02396 0.70055 0.0
O144 O 0.08581 0.98469 0.77201 0.0
Co145 Co 0.08552 0.06826 0.76493 0.0
O146 O 0.04967 0.03214 0.78443 0.0
C147 C 0.15517 0.05525 0.80195 0.0
C148 C 0.18433 0.97138 0.73758 0.0
C149 C 0.05659 -0.0019 0.78508 0.0
O150 O 0.15238 0.02122 0.79362 0.0
O151 O 0.13369 0.07948 0.78942 0.0
O152 O 0.1099 0.98963 0.6997 0.0
O153 O 0.1135 0.04287 0.72785 0.0
Co154 Co 0.23315 0.87334 0.02367 0.0
O155 O 0.22801 0.82924 0.05142 0.0
O156 O 0.28045 0.85537 0.03446 0.0
C157 C 0.19282 0.90661 0.05483 0.0
O158 O 0.25122 0.91765 -0.00302 0.0
Co159 Co 0.17151 0.90781 0.97788 0.0
O160 O 0.20829 0.94546 0.96376 0.0
C161 C 0.20935 0.84278 0.94976 0.0
C162 C 0.26362 0.8288 0.05096 0.0
C163 C 0.24103 0.94266 0.97519 0.0
O164 O 0.23175 0.8442 0.97691 0.0
O165 O 0.182 0.86395 0.94671 0.0
O166 O 0.2259 0.90256 0.06716 0.0
O167 O 0.18422 0.88822 0.02561 0.0
Co168 Co 0.22503 0.36331 0.98054 0.0
O169 O 0.25555 0.32405 -0.00508 0.0
O170 O 0.23325 0.33204 0.93888 0.0
C171 C 0.2586 0.40778 0.00744 0.0
O172 O 0.19391 0.40172 0.95588 0.0
Co173 Co 0.18517 0.40734 0.04035 0.0
O174 O 0.1737 0.44012 -0.0008 0.0
C175 C 0.16238 0.33171 0.02447 0.0
C176 C 0.25275 0.31284 0.96135 0.0
C177 C 0.17766 0.43107 0.96581 0.0
O178 O 0.18105 0.33306 -0.00514 0.0
O179 O 0.16286 0.35755 0.04819 0.0
O180 O 0.26738 0.39564 0.9753 0.0
O181 O 0.23214 0.39036 0.02334 0.0
Co182 Co 0.7519 0.11934 0.01938 0.0
O183 O 0.79221 0.08637 0.02678 0.0
O184 O 0.7558 0.08831 0.97794 0.0
C185 C 0.78094 0.17038 0.03728 0.0
O186 O 0.7108 0.14837 -0.00179 0.0
Co187 Co 0.71369 0.16649 0.07765 0.0
O188 O 0.70032 0.19638 0.03438 0.0
C189 C 0.70137 0.0866 0.07592 0.0
C190 C 0.78417 0.07481 -0.00611 0.0
C191 C 0.69993 0.18097 0.0031 0.0
O192 O 0.71738 0.08471 0.04467 0.0
O193 O 0.69908 0.11627 0.09443 0.0
O194 O 0.78594 0.15751 0.00452 0.0
O195 O 0.76074 0.1509 0.05875 0.0
Co196 Co 0.12966 0.4918 0.22844 0.0
O197 O 0.1758 0.46749 0.22353 0.0
O198 O 0.15796 0.49912 0.27192 0.0
C199 C 0.09543 0.44525 0.2068 0.0
O200 O 0.08543 0.51818 0.24685 0.0
Co201 Co 0.07368 0.50808 0.16717 0.0
O202 O 0.03836 0.51049 0.20829 0.0
C203 C 0.14302 0.55079 0.17326 0.0
C204 C 0.18199 0.47817 0.25706 0.0
C205 C 0.0511 0.51806 0.23994 0.0
O206 O 0.14982 0.53728 0.20502 0.0
O207 O 0.11594 0.54058 0.15309 0.0
O208 O 0.10619 0.44527 0.24077 0.0
O209 O 0.10679 0.47218 0.18718 0.0
Co210 Co 0.77547 0.86488 0.47775 0.0
O211 O 0.81321 0.83008 0.46959 0.0
O212 O 0.7684 0.84246 0.43056 0.0
C213 C 0.8135 0.90919 0.49898 0.0
O214 O 0.7328 0.89888 0.47452 0.0
Co215 Co 0.75777 0.89795 0.55379 0.0
O216 O 0.72021 0.92641 0.52769 0.0
C217 C 0.72951 0.8243 0.53351 0.0
C218 C 0.79803 0.82475 0.43774 0.0
C219 C 0.71354 0.92035 0.494 0.0
O220 O 0.7432 0.82699 0.50131 0.0
O221 O 0.73461 0.84828 0.5587 0.0
O222 O 0.80902 0.90427 0.46403 0.0
O223 O 0.79636 0.88637 0.51977 0.0
Co224 Co 0.86084 0.95946 0.29209 0.0
O225 O 0.89695 0.92322 0.29169 0.0
O226 O 0.89202 0.96653 0.33444 0.0
C227 C 0.81504 0.9207 0.27919 0.0
O228 O 0.82488 -0.0001 0.30128 0.0
Co229 Co 0.81857 0.97425 0.21996 0.0
O230 O 0.78624 0.00149 0.25322 0.0
C231 C 0.89377 0.00238 0.22895 0.0
C232 C 0.90849 0.93772 0.32206 0.0
C233 C 0.79584 0.01133 0.28539 0.0
O234 O 0.89342 0.99263 0.26262 0.0
O235 O 0.8675 -0.00463 0.20659 0.0
O236 O 0.82576 0.92483 0.31287 0.0
O237 O 0.83389 0.93767 0.25467 0.0
Co238 Co 0.28027 0.61558 0.52513 0.0
O239 O 0.31578 0.57914 0.53925 0.0
O240 O 0.29343 0.58767 0.48344 0.0
C241 C 0.30571 0.66328 0.55486 0.0
O242 O 0.24697 0.6489 0.49682 0.0
Co243 Co 0.22935 0.65797 0.57621 0.0
O244 O 0.21252 0.6844 0.53219 0.0
C245 C 0.22179 0.57842 0.56824 0.0
C246 C 0.31538 0.57021 0.5047 0.0
C247 C 0.22358 0.67413 0.50099 0.0
O248 O 0.23948 0.5805 0.53796 0.0
O249 O 0.21763 0.60602 0.58933 0.0
O250 O 0.31849 0.65291 0.52339 0.0
O251 O 0.27981 0.64324 0.56831 0.0
Co252 Co 0.38729 0.45243 0.75161 0.0
O253 O 0.43057 0.42538 0.76248 0.0
O254 O 0.4095 0.47206 0.79514 0.0
C255 C 0.34963 0.40505 0.73839 0.0
O256 O 0.34498 0.48637 0.75172 0.0
Co257 Co 0.34795 0.45452 0.67658 0.0
O258 O 0.31093 0.48552 0.70077 0.0
C259 C 0.41725 0.49491 0.68718 0.0
C260 C 0.43429 0.44773 0.79017 0.0
C261 C 0.31737 0.4967 0.7332 0.0
O262 O 0.41681 0.48712 0.72132 0.0
O263 O 0.39354 0.48294 0.66402 0.0
O264 O 0.35613 0.41424 0.77228 0.0
O265 O 0.36829 0.42263 0.71408 0.0
Co266 Co 0.63642 0.04163 0.72529 0.0
O267 O 0.67175 0.00385 0.71771 0.0
O268 O 0.66368 0.03395 0.76959 0.0
C269 C 0.59083 0.01042 0.69812 0.0
O270 O 0.60224 0.07965 0.74581 0.0
Co271 Co 0.59372 0.0831 0.66646 0.0
O272 O 0.55656 0.08479 0.70583 0.0
C273 C 0.67347 0.0949 0.67553 0.0
C274 C 0.67997 0.00793 0.75213 0.0
C275 C 0.56839 0.0845 0.73854 0.0
O276 O 0.67207 0.07959 0.70715 0.0
O277 O 0.64552 0.09726 0.65448 0.0
O278 O 0.59932 0.00406 0.73204 0.0
O279 O 0.61034 0.03486 0.68144 0.0
Co280 Co 0.75851 0.63776 0.01839 0.0
O281 O 0.76973 0.60617 0.05839 0.0
O282 O 0.8098 0.62756 0.018 0.0
C283 C 0.72319 0.67524 0.05031 0.0
O284 O 0.75875 0.67129 0.97497 0.0
Co285 Co 0.6805 0.64994 0.98772 0.0
O286 O 0.70327 0.6857 0.95396 0.0
C287 C 0.71752 0.58032 0.97657 0.0
C288 C 0.80318 0.60774 0.04658 0.0
C289 C 0.73797 0.68821 0.95263 0.0
O290 O 0.74831 0.59462 0.98619 0.0
O291 O 0.6869 0.59642 0.97905 0.0
O292 O 0.75862 0.67931 0.05143 0.0
O293 O 0.71041 0.64779 0.03173 0.0
Co294 Co 0.8815 0.5233 0.72137 0.0
O295 O 0.92462 0.53509 0.69317 0.0
O296 O 0.90817 0.47997 0.71371 0.0
C297 C 0.84116 0.55418 0.68807 0.0
O298 O 0.84074 0.49842 0.74891 0.0
Co299 Co 0.83616 0.57914 0.76415 0.0
O300 O 0.80548 0.53703 0.78014 0.0
C301 C 0.91219 0.56519 0.78435 0.0
C302 C 0.93106 0.50026 0.69577 0.0
C303 C 0.81383 0.50496 0.76989 0.0
O304 O 0.90951 0.53447 0.7673 0.0
O305 O 0.88694 0.58892 0.78326 0.0
O306 O 0.85167 0.52197 0.67756 0.0
O307 O 0.8575 0.56783 0.71661 0.0
Co308 Co 0.74205 0.3637 0.50545 0.0
O309 O 0.74656 0.32378 0.53893 0.0
O310 O 0.79126 0.34687 0.50498 0.0
C311 C 0.71054 0.39999 0.54271 0.0
O312 O 0.7502 0.40511 0.46987 0.0
Co313 Co 0.66939 0.3942 0.47558 0.0
O314 O 0.69948 0.43816 0.46443 0.0
C315 C 0.69494 0.32125 0.45284 0.0
C316 C 0.78075 0.32334 0.52929 0.0
C317 C 0.73378 0.43446 0.46086 0.0
O318 O 0.72708 0.32837 0.46575 0.0
O319 O 0.66809 0.34301 0.4561 0.0
O320 O 0.74595 0.39824 0.54581 0.0
O321 O 0.69547 0.37828 0.51895 0.0
Co322 Co 0.60545 0.47417 0.23293 0.0
O323 O 0.63448 0.48304 0.19017 0.0
O324 O 0.63373 0.432 0.22279 0.0
C325 C 0.55387 0.49791 0.21103 0.0
O326 O 0.57945 0.45332 0.277 0.0
Co327 Co 0.57107 0.5358 0.2791 0.0
O328 O 0.55221 0.49628 0.31073 0.0
C329 C 0.6501 0.53065 0.26941 0.0
C330 C 0.6476 0.45072 0.19609 0.0
C331 C 0.56047 0.46314 0.30458 0.0
O332 O 0.64596 0.49621 0.26318 0.0
O333 O 0.623 0.55203 0.27263 0.0
O334 O 0.56201 0.46428 0.20265 0.0
O335 O 0.5777 0.51566 0.23034 0.0
Sc336 Sc 0.04099 0.14993 0.11782 0.0
Sc337 Sc 0.10267 0.09424 0.16353 0.0
Sc338 Sc 0.1107 0.10769 0.07025 0.0
O339 O 0.08451 0.11724 0.11734 0.0
C340 C 0.02863 0.11647 0.04165 0.0
C341 C 0.01733 0.0849 0.17148 0.0
C342 C 0.11124 0.03084 0.10277 0.0
C343 C 0.07951 0.17329 0.19145 0.0
C344 C 0.09967 0.19204 0.06774 0.0
C345 C 0.17692 0.10612 0.12763 0.0
O346 O 0.01529 0.12245 0.07281 0.0
O347 O 0.04938 0.07262 0.17567 0.0
O348 O 0.10097 0.05003 0.07574 0.0
O349 O 0.06186 0.18099 0.16277 0.0
O350 O 0.12124 0.1652 0.0643 0.0
O351 O 0.15729 0.11416 0.15485 0.0
O352 O 0.06822 0.18921 0.08253 0.0
O353 O 0.09335 0.14206 0.19669 0.0
O354 O 0.16326 0.10033 0.09611 0.0
O355 O 0.01053 0.11361 0.15322 0.0
O356 O 0.0627 0.11318 0.03661 0.0
O357 O 0.11525 0.0441 0.13488 0.0
Sc358 Sc 0.17629 0.84395 0.38884 0.0
Sc359 Sc 0.09307 0.80428 0.36469 0.0
Sc360 Sc 0.12358 0.87995 0.31949 0.0
O361 O 0.13145 0.8423 0.35716 0.0
C362 C 0.15857 0.92582 0.38488 0.0
C363 C 0.1125 0.82469 0.44363 0.0
C364 C 0.04593 0.87427 0.34943 0.0
C365 C 0.16749 0.76196 0.38386 0.0
C366 C 0.20418 0.87222 0.31076 0.0
C367 C 0.08987 0.80731 0.28216 0.0
O368 O 0.16474 0.89852 0.40517 0.0
O369 O 0.08842 0.82403 0.41865 0.0
O370 O 0.07298 0.89547 0.34334 0.0
O371 O 0.18837 0.78847 0.37447 0.0
O372 O 0.17376 0.86443 0.29574 0.0
O373 O 0.09477 0.78602 0.30909 0.0
O374 O 0.20972 0.8669 0.34481 0.0
O375 O 0.13277 0.76466 0.38276 0.0
O376 O 0.09586 0.84166 0.28377 0.0
O377 O 0.14668 0.82438 0.43684 0.0
O378 O 0.1497 0.92281 0.35135 0.0
O379 O 0.04902 0.83975 0.35061 0.0
Sc380 Sc 0.42889 0.85244 0.62552 0.0
Sc381 Sc 0.34027 0.8765 0.60723 0.0
Sc382 Sc 0.39397 0.92951 0.66606 0.0
O383 O 0.38742 0.88624 0.63311 0.0
C384 C 0.43255 0.86432 0.70838 0.0
C385 C 0.3602 0.79774 0.62052 0.0
C386 C 0.31471 0.90773 0.68484 0.0
C387 C 0.40035 0.85523 0.54781 0.0
C388 C 0.47048 0.92891 0.63523 0.0
C389 C 0.34632 0.96071 0.60013 0.0
O390 O 0.4289 0.84121 0.68246 0.0
O391 O 0.33688 0.8219 0.6283 0.0
O392 O 0.34665 0.91509 0.69676 0.0
O393 O 0.42791 0.86292 0.56807 0.0
O394 O 0.4413 0.94695 0.6366 0.0
O395 O 0.3417 0.93006 0.58412 0.0
O396 O 0.47027 0.89418 0.63521 0.0
O397 O 0.36764 0.85578 0.55957 0.0
O398 O 0.3612 0.96425 0.63155 0.0
O399 O 0.39368 0.80579 0.61539 0.0
O400 O 0.42667 0.89844 0.70461 0.0
O401 O 0.3083 0.89629 0.65244 0.0
Sc402 Sc 0.37849 0.07622 0.84735 0.0
Sc403 Sc 0.40898 0.15741 0.88534 0.0
Sc404 Sc 0.347 0.10267 0.9316 0.0
O405 O 0.3783 0.11241 0.88854 0.0
C406 C 0.29701 0.08341 0.8629 0.0
C407 C 0.39209 0.15081 0.80588 0.0
C408 C 0.33531 0.18592 0.92217 0.0
C409 C 0.45918 0.09348 0.85117 0.0
C410 C 0.36134 0.0257 0.91521 0.0
C411 C 0.41809 0.14055 0.96734 0.0
O412 O 0.32207 0.08703 0.83915 0.0
O413 O 0.38444 0.16944 0.83389 0.0
O414 O 0.3216 0.15435 0.92778 0.0
O415 O 0.4356 0.06789 0.85618 0.0
O416 O 0.37241 0.051 0.93642 0.0
O417 O 0.43385 0.14779 0.93736 0.0
O418 O 0.36196 0.0306 0.88096 0.0
O419 O 0.45243 0.12705 0.85838 0.0
O420 O 0.38622 0.12625 0.9693 0.0
O421 O 0.39377 0.11624 0.80732 0.0
O422 O 0.30343 0.08042 0.89707 0.0
O423 O 0.36766 0.19134 0.91028 0.0
Sc424 Sc 0.69025 0.35956 0.90162 0.0
Sc425 Sc 0.60123 0.33984 0.8757 0.0
Sc426 Sc 0.6464 0.41243 0.83636 0.0
O427 O 0.6459 0.37096 0.87154 0.0
C428 C 0.69093 0.44355 0.90544 0.0
C429 C 0.62397 0.34513 0.95618 0.0
C430 C 0.5673 0.4185 0.86168 0.0
C431 C 0.66395 0.28165 0.88944 0.0
C432 C 0.72466 0.38867 0.827 0.0
C433 C 0.60278 0.35054 0.79287 0.0
O434 O 0.69105 0.41377 0.92312 0.0
O435 O 0.59902 0.35206 0.93293 0.0
O436 O 0.5976 0.43575 0.85851 0.0
O437 O 0.6903 0.30369 0.88234 0.0
O438 O 0.69367 0.38994 0.81152 0.0
O439 O 0.60298 0.32728 0.81857 0.0
O440 O 0.72806 0.37878 0.86015 0.0
O441 O 0.63098 0.29184 0.88868 0.0
O442 O 0.61334 0.38358 0.79676 0.0
O443 O 0.65744 0.34223 0.94735 0.0
O444 O 0.67942 0.44605 0.87266 0.0
O445 O 0.56542 0.38395 0.86452 0.0
Sc446 Sc 0.90224 0.34542 0.11805 0.0
Sc447 Sc 0.87197 0.42494 0.15877 0.0
Sc448 Sc 0.84057 0.39924 0.07146 0.0
O449 O 0.87174 0.39032 0.11593 0.0
C450 C 0.90567 0.36502 0.03301 0.0
C451 C 0.95597 0.40158 0.15111 0.0
C452 C 0.86861 0.47989 0.09392 0.0
C453 C 0.8813 0.35485 0.2021 0.0
C454 C 0.83201 0.31301 0.08416 0.0
C455 C 0.78799 0.42165 0.13459 0.0
O456 O 0.91121 0.34425 0.0601 0.0
O457 O 0.93022 0.41863 0.16683 0.0
O458 O 0.8515 0.45721 0.07326 0.0
O459 O 0.89896 0.34017 0.17635 0.0
O460 O 0.82685 0.34172 0.06536 0.0
O461 O 0.81384 0.43255 0.15559 0.0
O462 O 0.85456 0.3118 0.11068 0.0
O463 O 0.86149 0.38242 0.19719 0.0
O464 O 0.7928 0.40609 0.10398 0.0
O465 O 0.95066 0.37782 0.12605 0.0
O466 O 0.88527 0.39267 0.03472 0.0
O467 O 0.88189 0.4715 0.12481 0.0
Sc468 Sc 0.86955 0.56647 0.323 0.0
Sc469 Sc 0.91385 0.64598 0.35179 0.0
Sc470 Sc 0.8239 0.63226 0.37382 0.0
O471 O 0.86883 0.61443 0.34957 0.0
C472 C 0.79155 0.59162 0.3027 0.0
C473 C 0.91234 0.62247 0.27135 0.0
C474 C 0.85206 0.70629 0.35191 0.0
C475 C 0.94819 0.5666 0.34672 0.0
C476 C 0.81997 0.54936 0.39318 0.0
C477 C 0.88807 0.65312 0.43016 0.0
O478 O 0.82144 0.57818 0.29212 0.0
O479 O 0.91217 0.64938 0.29364 0.0
O480 O 0.82702 0.68291 0.3448 0.0
O481 O 0.91768 0.55065 0.3519 0.0
O482 O 0.81768 0.58247 0.40362 0.0
O483 O 0.91412 0.642 0.41016 0.0
O484 O 0.83621 0.53982 0.36396 0.0
O485 O 0.95064 0.60118 0.34512 0.0
O486 O 0.85521 0.65583 0.4188 0.0
O487 O 0.90259 0.58991 0.27967 0.0
O488 O 0.78866 0.60997 0.33212 0.0
O489 O 0.88457 0.69626 0.35785 0.0
Sc490 Sc 0.89259 0.83883 0.85921 0.0
Sc491 Sc 0.81796 0.87795 0.89893 0.0
Sc492 Sc 0.86517 0.92293 0.83204 0.0
O493 O 0.85832 0.87982 0.86334 0.0
C494 C 0.94404 0.90894 0.8484 0.0
C495 C 0.88539 0.84184 0.94163 0.0
C496 C 0.84154 0.95766 0.90871 0.0
C497 C 0.81533 0.79922 0.87389 0.0
C498 C 0.88346 0.85577 0.77898 0.0
C499 C 0.78259 0.91694 0.82875 0.0
O500 O 0.93866 0.87461 0.84383 0.0
O501 O 0.85087 0.84678 0.93855 0.0
O502 O 0.84581 0.96032 0.87419 0.0
O503 O 0.85027 0.79877 0.87379 0.0
O504 O 0.8856 0.89004 0.78621 0.0
O505 O 0.78148 0.90937 0.86288 0.0
O506 O 0.87777 0.83213 0.80358 0.0
O507 O 0.79797 0.82891 0.87399 0.0
O508 O 0.81183 0.91557 0.81051 0.0
O509 O 0.90712 0.84571 0.91501 0.0
O510 O 0.91801 0.93037 0.85441 0.0
O511 O 0.83758 0.92697 0.92425 0.0
Sc512 Sc 0.87203 0.12196 0.54721 0.0
Sc513 Sc 0.94472 0.1636 0.59377 0.0
Sc514 Sc 0.89953 0.08883 0.63064 0.0
O515 O 0.90565 0.12475 0.59039 0.0
C516 C 0.81909 0.10706 0.61492 0.0
C517 C 0.87521 0.20512 0.56345 0.0
C518 C 0.91837 0.16323 0.67357 0.0
C519 C 0.94929 0.14498 0.51192 0.0
C520 C 0.88177 0.04009 0.55905 0.0
C521 C 0.98347 0.09167 0.62398 0.0
O522 O 0.82459 0.10647 0.58046 0.0
O523 O 0.90947 0.20544 0.57044 0.0
O524 O 0.91418 0.12853 0.67298 0.0
O525 O 0.91474 0.1397 0.50928 0.0
O526 O 0.8823 0.0449 0.5936 0.0
O527 O 0.98343 0.12613 0.61834 0.0
O528 O 0.88546 0.06647 0.53696 0.0
O529 O 0.96561 0.14777 0.54238 0.0
O530 O 0.95444 0.07224 0.6246 0.0
O531 O 0.85688 0.17624 0.55671 0.0
O532 O 0.84492 0.10499 0.63794 0.0
O533 O 0.92616 0.18154 0.64541 0.0
Sc534 Sc 0.59293 0.06266 0.35509 0.0
Sc535 Sc 0.63323 0.09491 0.43481 0.0
Sc536 Sc 0.56048 0.1401 0.39741 0.0
O537 O 0.59559 0.09925 0.39563 0.0
C538 C 0.57923 0.13903 0.31581 0.0
C539 C 0.67645 0.07295 0.36289 0.0
C540 C 0.63568 0.17801 0.42316 0.0
C541 C 0.61294 0.0144 0.42493 0.0
C542 C 0.51072 0.07386 0.36594 0.0
C543 C 0.5623 0.11887 0.47828 0.0
O544 O 0.57894 0.10408 0.31527 0.0
O545 O 0.67451 0.07427 0.39764 0.0
O546 O 0.60093 0.17815 0.41993 0.0
O547 O 0.60958 0.01775 0.39037 0.0
O548 O 0.51646 0.10753 0.3735 0.0
O549 O 0.59674 0.11447 0.4765 0.0
O550 O 0.53634 0.05079 0.36518 0.0
O551 O 0.61297 0.04168 0.44633 0.0
O552 O 0.54268 0.12354 0.45009 0.0
O553 O 0.64843 0.07372 0.34242 0.0
O554 O 0.57733 0.15755 0.34504 0.0
O555 O 0.65375 0.14875 0.4246 0.0
Sc556 Sc 0.6622 0.86439 0.12532 0.0
Sc557 Sc 0.57229 0.84043 0.12521 0.0
Sc558 Sc 0.60697 0.8983 0.19331 0.0
O559 O 0.6136 0.86772 0.14881 0.0
C560 C 0.68555 0.87369 0.20867 0.0
C561 C 0.63977 0.78581 0.12094 0.0
C562 C 0.56156 0.82287 0.20771 0.0
C563 C 0.60964 0.86134 0.05644 0.0
C564 C 0.65458 0.94738 0.13721 0.0
C565 C 0.53355 0.91302 0.15164 0.0
O566 O 0.69243 0.87387 0.17478 0.0
O567 O 0.60809 0.79536 0.1099 0.0
O568 O 0.57419 0.85416 0.21858 0.0
O569 O 0.64018 0.85341 0.07085 0.0
O570 O 0.63939 0.94323 0.16857 0.0
O571 O 0.53217 0.88143 0.13699 0.0
O572 O 0.66112 0.92087 0.11575 0.0
O573 O 0.58258 0.86893 0.07608 0.0
O574 O 0.56029 0.92405 0.17103 0.0
O575 O 0.66152 0.80812 0.13678 0.0
O576 O 0.65344 0.87647 0.22078 0.0
O577 O 0.56107 0.813 0.17443 0.0
Sc578 Sc 0.33709 0.61539 0.05721 0.0
Sc579 Sc 0.40544 0.65214 0.11419 0.0
Sc580 Sc 0.35074 0.58103 0.14356 0.0
O581 O 0.36524 0.6158 0.10435 0.0
C582 C 0.27576 0.60667 0.11828 0.0
C583 C 0.34355 0.69857 0.0769 0.0
C584 C 0.37199 0.65054 0.19159 0.0
C585 C 0.41939 0.63479 0.03179 0.0
C586 C 0.33384 0.53403 0.07087 0.0
C587 C 0.43374 0.57569 0.14662 0.0
O588 O 0.28532 0.6036 0.08486 0.0
O589 O 0.37589 0.69684 0.08985 0.0
O590 O 0.36612 0.61634 0.1888 0.0
O591 O 0.3855 0.62902 0.02468 0.0
O592 O 0.33154 0.54024 0.10496 0.0
O593 O 0.4373 0.61006 0.14079 0.0
O594 O 0.34555 0.55812 0.04876 0.0
O595 O 0.43164 0.63895 0.06408 0.0
O596 O 0.40365 0.55817 0.14309 0.0
O597 O 0.32555 0.67114 0.0649 0.0
O598 O 0.29849 0.60483 0.14445 0.0
O599 O 0.38215 0.66947 0.16459 0.0
Sc600 Sc 0.13951 0.59804 0.79963 0.0
Sc601 Sc 0.18662 0.63285 0.8749 0.0
Sc602 Sc 0.11309 0.67861 0.8393 0.0
O603 O 0.14694 0.63676 0.83763 0.0
C604 C 0.12249 0.67278 0.75774 0.0
C605 C 0.22236 0.601 0.80131 0.0
C606 C 0.18977 0.71574 0.86319 0.0
C607 C 0.15891 0.55233 0.87029 0.0
C608 C 0.05938 0.61228 0.81923 0.0
C609 C 0.11879 0.66053 0.92063 0.0
O610 O 0.1221 0.63793 0.75964 0.0
O611 O 0.22307 0.60757 0.83564 0.0
O612 O 0.15522 0.71569 0.85888 0.0
O613 O 0.15528 0.5535 0.83567 0.0
O614 O 0.0662 0.64652 0.82065 0.0
O615 O 0.15309 0.65529 0.91802 0.0
O616 O 0.08449 0.58893 0.8166 0.0
O617 O 0.16602 0.58037 0.88976 0.0
O618 O 0.09828 0.66464 0.89306 0.0
O619 O 0.19413 0.60579 0.78181 0.0
O620 O 0.12697 0.69329 0.7854 0.0
O621 O 0.20823 0.68655 0.86327 0.0
Sc622 Sc 0.16627 0.3555 0.60521 0.0
Sc623 Sc 0.0783 0.33467 0.62951 0.0
Sc624 Sc 0.13305 0.38935 0.68695 0.0
O625 O 0.12581 0.36014 0.64096 0.0
C626 C 0.21128 0.35907 0.68055 0.0
C627 C 0.13775 0.27693 0.60673 0.0
C628 C 0.09022 0.31578 0.71181 0.0
C629 C 0.09634 0.3598 0.55284 0.0
C630 C 0.17018 0.43788 0.62281 0.0
C631 C 0.05259 0.40927 0.66568 0.0
O632 O 0.2093 0.35949 0.64589 0.0
O633 O 0.10492 0.28795 0.60471 0.0
O634 O 0.1053 0.3468 0.71982 0.0
O635 O 0.12966 0.35147 0.55801 0.0
O636 O 0.16172 0.43319 0.65651 0.0
O637 O 0.04594 0.37782 0.65201 0.0
O638 O 0.16797 0.41263 0.59896 0.0
O639 O 0.07409 0.362 0.57896 0.0
O640 O 0.08387 0.41873 0.67784 0.0
O641 O 0.16477 0.29832 0.61252 0.0
O642 O 0.1834 0.36344 0.70036 0.0
O643 O 0.0806 0.30684 0.67965 0.0
Sc644 Sc 0.57664 0.65447 0.60729 0.0
Sc645 Sc 0.62802 0.58979 0.65347 0.0
Sc646 Sc 0.64786 0.60866 0.56381 0.0
O647 O 0.6172 0.61808 0.60812 0.0
C648 C 0.57141 0.62584 0.5264 0.0
C649 C 0.54252 0.58339 0.64605 0.0
C650 C 0.64174 0.53077 0.59138 0.0
C651 C 0.60205 0.6644 0.68885 0.0
C652 C 0.64448 0.69427 0.56744 0.0
C653 C 0.70596 0.60537 0.62923 0.0
O654 O 0.55602 0.63599 0.55549 0.0
O655 O 0.57328 0.56916 0.6532 0.0
O656 O 0.63406 0.5516 0.56492 0.0
O657 O 0.59085 0.67838 0.65933 0.0
O658 O 0.66199 0.66512 0.56131 0.0
O659 O 0.6828 0.61044 0.65431 0.0
O660 O 0.61268 0.69483 0.58184 0.0
O661 O 0.61362 0.63208 0.69059 0.0
O662 O 0.69658 0.59905 0.59619 0.0
O663 O 0.53922 0.61528 0.63234 0.0
O664 O 0.60484 0.61752 0.52484 0.0
O665 O 0.64541 0.54231 0.62393 0.0
Sc666 Sc 0.32274 0.36684 0.41251 0.0
Sc667 Sc 0.38149 0.40648 0.35054 0.0
Sc668 Sc 0.39094 0.31633 0.37147 0.0
O669 O 0.36414 0.36297 0.37788 0.0
C670 C 0.3835 0.32211 0.45536 0.0
C671 C 0.35799 0.44351 0.42577 0.0
C672 C 0.45485 0.37602 0.37056 0.0
C673 C 0.29817 0.41214 0.34109 0.0
C674 C 0.30876 0.28785 0.38515 0.0
C675 C 0.3931 0.34008 0.29372 0.0
O676 O 0.35098 0.33438 0.45361 0.0
O677 O 0.36699 0.44584 0.39235 0.0
O678 O 0.44334 0.3442 0.36108 0.0
O679 O 0.2926 0.40043 0.37358 0.0
O680 O 0.34288 0.2823 0.38182 0.0
O681 O 0.39944 0.37287 0.30458 0.0
O682 O 0.29611 0.31964 0.3894 0.0
O683 O 0.32923 0.41161 0.3257 0.0
O684 O 0.37878 0.31638 0.31465 0.0
O685 O 0.34595 0.41392 0.43926 0.0
O686 O 0.40348 0.31706 0.42764 0.0
O687 O 0.43295 0.40165 0.37703 0.0
C688 C 0.0992 0.21607 0.28387 0.0
C689 C 0.07655 0.24667 0.28368 0.0
C690 C 0.10143 0.19338 0.25317 0.0
C691 C 0.08138 0.2008 0.22118 0.0
H692 H 0.11355 0.20833 0.30857 0.0
H693 H 0.11785 0.16907 0.25516 0.0
S694 S 0.02357 0.28214 0.20533 0.0
N695 N 0.03753 0.28625 0.24814 0.0
N696 N 0.04207 0.24425 0.18986 0.0
C697 C 0.06106 0.23328 0.21981 0.0
C698 C 0.0585 0.25604 0.25128 0.0
C699 C 0.04075 0.80828 0.5121 0.0
C700 C 0.05372 0.77644 0.52844 0.0
C701 C 0.06293 0.82819 0.48831 0.0
C702 C 0.0985 0.81657 0.48012 0.0
H703 H 0.01252 0.81616 0.51536 0.0
H704 H 0.05082 0.85039 0.47318 0.0
S705 S 0.14874 0.74335 0.52708 0.0
N706 N 0.10676 0.74007 0.54317 0.0
N707 N 0.14865 0.77744 0.49769 0.0
C708 C 0.11348 0.78832 0.50079 0.0
C709 C 0.09081 0.76794 0.52496 0.0
C710 C 0.45054 0.80009 0.78616 0.0
C711 C 0.47758 0.81891 0.80656 0.0
C712 C 0.43533 0.81559 0.75494 0.0
C713 C 0.44604 0.85077 0.74355 0.0
H714 H 0.44216 0.77251 0.79339 0.0
H715 H 0.41549 0.79963 0.73921 0.0
S716 S 0.51363 0.91265 0.78928 0.0
N717 N 0.51322 0.87527 0.81444 0.0
N718 N 0.48364 0.90495 0.75607 0.0
C719 C 0.4717 0.87069 0.7647 0.0
C720 C 0.48781 0.85457 0.79613 0.0
C721 C 0.48658 0.17432 0.03762 0.0
C722 C 0.46548 0.19845 0.05843 0.0
C723 C 0.47094 0.15451 0.00848 0.0
C724 C 0.43356 0.15733 0.00043 0.0
H725 H 0.51549 0.17147 0.04327 0.0
H726 H 0.48814 0.13719 0.99201 0.0
S727 S 0.36657 0.21588 0.04772 0.0
N728 N 0.40561 0.22385 0.06949 0.0
N729 N 0.37578 0.18566 0.01551 0.0
C730 C 0.41204 0.18065 0.02173 0.0
C731 C 0.42816 0.20153 0.05059 0.0
C732 C 0.06724 0.79965 0.18265 0.0
C733 C 0.03348 0.78088 0.18262 0.0
C734 C 0.08627 0.8064 0.21512 0.0
C735 C 0.07264 0.79368 0.24852 0.0
H736 H 0.0791 0.8091 0.15726 0.0
H737 H 0.1117 0.82203 0.21418 0.0
S738 S 0.98601 0.74175 0.26281 0.0
N739 N 0.98733 0.74884 0.21828 0.0
N740 N 0.02358 0.76118 0.2799 0.0
C741 C 0.03916 0.77426 0.24891 0.0
C742 C 0.01934 0.76802 0.21574 0.0
C743 C 0.3874 0.78785 0.47036 0.0
C744 C 0.42066 0.79063 0.45172 0.0
C745 C 0.38029 0.81062 0.50009 0.0
C746 C 0.40643 0.83664 0.51264 0.0
H747 H 0.3668 0.76772 0.46218 0.0
H748 H 0.35465 0.80654 0.51428 0.0
S749 S 0.49726 0.85586 0.47212 0.0
N750 N 0.47955 0.82246 0.44675 0.0
N751 N 0.46617 0.86495 0.50321 0.0
C752 C 0.43944 0.84037 0.49366 0.0
C753 C 0.44657 0.81742 0.46305 0.0
C754 C 0.46995 0.16859 0.74227 0.0
C755 C 0.46637 0.20574 0.73442 0.0
C756 C 0.44375 0.15036 0.76294 0.0
C757 C 0.41372 0.169 0.77754 0.0
H758 H 0.49277 0.15329 0.7317 0.0
H759 H 0.448 0.12174 0.76865 0.0
S760 S 0.39151 0.26637 0.7629 0.0
N761 N 0.42989 0.26039 0.74023 0.0
N762 N 0.38124 0.22641 0.78145 0.0
C763 C 0.40956 0.20616 0.76931 0.0
C764 C 0.43582 0.2245 0.7472 0.0
C765 C 0.00157 0.1195 0.9429 0.0
C766 C 0.97958 0.15065 0.94211 0.0
C767 C 0.01478 0.10603 0.97601 0.0
C768 C 0.00572 0.12281 0.00928 0.0
H769 H 0.01074 0.10702 0.91773 0.0
H770 H 0.03403 0.08382 0.97542 0.0
S771 S 0.9435 0.20115 0.02177 0.0
N772 N 0.9454 0.19502 0.97711 0.0
N773 N 0.96956 0.16934 0.03963 0.0
C774 C 0.98075 0.15173 0.00895 0.0
C775 C 0.96793 0.16586 0.9752 0.0
C776 C 0.26679 0.09455 0.17712 0.0
C777 C 0.28198 0.06452 0.15881 0.0
C778 C 0.23379 0.10953 0.16546 0.0
C779 C 0.21507 0.09543 0.1347 0.0
H780 H 0.2796 0.1057 0.2016 0.0
H781 H 0.22218 0.13143 0.18146 0.0
S782 S 0.24526 0.01926 0.07492 0.0
N783 N 0.2773 0.02295 0.10676 0.0
N784 N 0.21548 0.05127 0.08453 0.0
C785 C 0.23116 0.06686 0.11474 0.0
C786 C 0.26455 0.05132 0.12691 0.0
C787 C 0.19366 0.00325 0.44411 0.0
C788 C 0.17203 0.03269 0.43306 0.0
C789 C 0.18901 0.96871 0.42836 0.0
C790 C 0.16297 0.96255 0.40061 0.0
H791 H 0.21395 0.00665 0.46564 0.0
H792 H 0.20611 0.94674 0.43784 0.0
S793 S 0.09985 0.03055 0.36137 0.0
N794 N 0.1238 0.05362 0.3925 0.0
N795 N 0.11531 0.98839 0.36241 0.0
C796 C 0.14143 0.99177 0.38886 0.0
C797 C 0.14584 0.02694 0.40529 0.0
C798 C 0.21749 0.91732 0.71539 0.0
C799 C 0.21842 0.95248 0.73091 0.0
C800 C 0.24958 0.90142 0.70278 0.0
C801 C 0.28344 0.9199 0.70638 0.0
H802 H 0.19162 0.90311 0.71076 0.0
H803 H 0.24767 0.87538 0.68854 0.0
S804 S 0.30017 0.01038 0.75073 0.0
N805 N 0.25547 0.00377 0.75291 0.0
N806 N 0.31625 0.9736 0.73038 0.0
C807 C 0.28488 0.95379 0.72489 0.0
C808 C 0.25212 0.97026 0.73681 0.0
C809 C 0.29819 0.97915 0.98213 0.0
C810 C 0.27018 0.96519 0.95939 0.0
C811 C 0.32894 -0.00336 0.96743 0.0
C812 C 0.33308 0.00017 0.9294 0.0
H813 H 0.29622 0.97662 0.01154 0.0
H814 H 0.3492 0.00822 0.98608 0.0
S815 S 0.26902 0.96307 0.85822 0.0
N816 N 0.24938 0.95281 0.8974 0.0
N817 N 0.30748 0.98484 0.86919 0.0
C818 C 0.30585 0.98444 0.90631 0.0
C819 C 0.27421 0.96735 0.92146 0.0
C820 C 0.22777 0.96004 0.26225 0.0
C821 C 0.26583 0.96246 0.26596 0.0
C822 C 0.20849 0.92942 0.27496 0.0
C823 C 0.22652 0.90059 0.29272 0.0
H824 H 0.21284 0.98188 0.24936 0.0
H825 H 0.17897 0.92911 0.27217 0.0
S826 S 0.32606 0.8943 0.30951 0.0
N827 N 0.32123 0.93351 0.28792 0.0
N828 N 0.28443 0.87654 0.31339 0.0
C829 C 0.26458 0.90272 0.29661 0.0
C830 C 0.28439 0.93351 0.28278 0.0
C831 C 0.31141 0.02586 0.52894 0.0
C832 C 0.28583 0.04601 0.54879 0.0
C833 C 0.33215 -0.00105 0.54605 0.0
C834 C 0.32876 0.99242 0.58368 0.0
H835 H 0.31424 0.02979 0.49977 0.0
H836 H 0.3504 0.98265 0.52968 0.0
S837 S 0.26746 0.03976 0.64811 0.0
N838 N 0.25923 0.05882 0.60815 0.0
N839 N 0.29918 0.00906 0.64053 0.0
C840 C 0.30455 0.01362 0.60411 0.0
C841 C 0.28276 0.04025 0.58656 0.0
C842 C 0.20027 0.04815 0.85204 0.0
C843 C 0.18829 0.06723 0.82118 0.0
C844 C 0.23505 0.05505 0.86679 0.0
C845 C 0.25918 0.08 0.85004 0.0
H846 H 0.18306 0.02715 0.86417 0.0
H847 H 0.24372 0.03947 0.89029 0.0
S848 S 0.23976 0.13812 0.76984 0.0
N849 N 0.20196 0.11358 0.77567 0.0
N850 N 0.26805 0.12552 0.8026 0.0
C851 C 0.24699 0.10011 0.81994 0.0
C852 C 0.21127 0.09392 0.80565 0.0
C853 C 0.13868 0.94685 0.04978 0.0
C854 C 0.16828 0.93407 0.07049 0.0
C855 C 0.11836 0.97669 0.0617 0.0
C856 C 0.12662 -0.00554 0.09501 0.0
H857 H 0.13225 0.93503 0.02327 0.0
H858 H 0.09715 0.98694 0.04388 0.0
S859 S 0.19848 0.96789 0.16174 0.0
N860 N 0.2025 0.93868 0.12754 0.0
N861 N 0.16431 -0.00551 0.1503 0.0
C862 C 0.15439 0.97997 0.11733 0.0
C863 C 0.17529 0.94987 0.10494 0.0
C864 C 0.15317 0.26443 0.01617 0.0
C865 C 0.14238 0.29726 0.03292 0.0
C866 C 0.13861 0.23065 0.02709 0.0
C867 C 0.11219 0.22833 0.05474 0.0
H868 H 0.17415 0.26455 -0.00457 0.0
H869 H 0.14859 0.20609 0.01408 0.0
S870 S 0.07225 0.30635 0.10519 0.0
N871 N 0.102 0.32547 0.07712 0.0
N872 N 0.07423 0.26193 0.09732 0.0
C873 C 0.09981 0.26102 0.07055 0.0
C874 C 0.11501 0.29547 0.05975 0.0
C875 C 0.65561 0.22012 0.97109 0.0
C876 C 0.68861 0.20157 0.97087 0.0
C877 C 0.64653 0.24333 0.94246 0.0
C878 C 0.67092 0.25005 0.9133 0.0
H879 H 0.63706 0.21727 -0.0061 0.0
H880 H 0.62116 0.258 0.94472 0.0
S881 S 0.75866 0.20364 0.89797 0.0
N882 N 0.74352 0.18681 0.93696 0.0
N883 N 0.72776 0.23317 0.88437 0.0
C884 C 0.70316 0.23001 0.91185 0.0
C885 C 0.71167 0.20506 0.94037 0.0
C886 C 0.03329 0.42025 0.2174 0.0
C887 C 0.0633 0.42448 0.19409 0.0
C888 C -0.00139 0.41205 0.20309 0.0
C889 C 0.99317 0.40726 0.16527 0.0
H890 H 0.03595 0.42622 0.24634 0.0
H891 H 0.97573 0.41045 0.22165 0.0
S892 S 0.06414 0.41066 0.09369 0.0
N893 N 0.08641 0.4199 0.13213 0.0
N894 N 0.02106 0.40352 0.10534 0.0
C895 C 0.0235 0.40835 0.14213 0.0
C896 C 0.0587 0.41718 0.15659 0.0
C897 C 0.79098 0.78128 0.38538 0.0
C898 C 0.81372 0.79942 0.41098 0.0
C899 C 0.80449 0.75321 0.36334 0.0
C900 C 0.84128 0.74266 0.36592 0.0
H901 H 0.76209 0.78723 0.38392 0.0
H902 H 0.7854 0.73817 0.34591 0.0
S903 S 0.91348 0.78776 0.42348 0.0
N904 N 0.87559 0.8092 0.43388 0.0
N905 N 0.90147 0.75711 0.39218 0.0
C906 C 0.86508 0.76353 0.38871 0.0
C907 C 0.85112 0.79163 0.41149 0.0
C908 C 0.92165 0.04664 0.18526 0.0
C909 C 0.92572 0.02338 0.21544 0.0
C910 C 0.95131 0.06687 0.17172 0.0
C911 C 0.98633 0.06424 0.18747 0.0
H912 H 0.89526 0.04949 0.17207 0.0
H913 H 0.94681 0.08423 0.14828 0.0
S914 S 0.01155 0.00735 0.26725 0.0
N915 N 0.96745 -0.00096 0.26096 0.0
N916 N 0.02336 0.03691 0.23531 0.0
C917 C 0.99083 0.04114 0.21776 0.0
C918 C 0.96048 0.02081 0.23183 0.0
C919 C 0.35266 0.71248 0.56253 0.0
C920 C 0.31966 0.69631 0.57393 0.0
C921 C 0.36634 0.74426 0.57927 0.0
C922 C 0.34724 0.76151 0.6077 0.0
H923 H 0.36799 0.70072 0.54025 0.0
H924 H 0.39143 0.75615 0.56868 0.0
S925 S 0.26048 0.72922 0.64906 0.0
N926 N 0.26905 0.69877 0.61688 0.0
N927 N 0.29447 0.75947 0.64755 0.0
C928 C 0.3146 0.74531 0.61995 0.0
C929 C 0.3009 0.71244 0.60329 0.0
C930 C 0.98986 0.5142 0.26965 0.0
C931 C 0.0261 0.52759 0.26997 0.0
C932 C 0.96553 0.52362 0.29742 0.0
C933 C 0.97647 0.54706 0.32629 0.0
H934 H 0.97998 0.49692 0.24742 0.0
H935 H 0.93724 0.51472 0.29469 0.0
S936 S 0.06893 0.58746 0.34126 0.0
N937 N 0.0724 0.5636 0.30305 0.0
N938 N 0.02626 0.58163 0.35476 0.0
C939 C 0.01305 0.5591 0.3279 0.0
C940 C 0.03794 0.54934 0.29985 0.0
C941 C 0.46725 0.42402 0.84389 0.0
C942 C 0.46657 0.44718 0.81367 0.0
C943 C 0.49979 0.41893 0.86326 0.0
C944 C 0.53267 0.43627 0.85237 0.0
H945 H 0.44307 0.40829 0.85133 0.0
H946 H 0.49991 0.39872 0.88481 0.0
S947 S 0.54253 0.50474 0.77856 0.0
N948 N 0.49898 0.49205 0.77705 0.0
N949 N 0.5609 0.48154 0.81243 0.0
C950 C 0.53118 0.46244 0.82444 0.0
C951 C 0.49785 0.46788 0.80506 0.0
C952 C 0.89786 0.78757 0.70316 0.0
C953 C 0.92341 0.80537 0.68067 0.0
C954 C 0.88304 0.80527 0.73336 0.0
C955 C 0.89321 0.84152 0.74248 0.0
H956 H 0.89001 0.75926 0.69822 0.0
H957 H 0.86455 0.78977 0.75061 0.0
S958 S 0.95518 0.90215 0.6894 0.0
N959 N 0.95528 0.86275 0.6671 0.0
N960 N 0.92755 0.89596 0.7244 0.0
C961 C 0.91676 0.8606 0.71881 0.0
C962 C 0.93193 0.8425 0.68784 0.0
C963 C 0.97325 0.20477 0.43321 0.0
C964 C 0.01175 0.20745 0.43624 0.0
C965 C 0.95291 0.18058 0.45474 0.0
C966 C 0.97027 0.15813 0.48018 0.0
H967 H 0.95821 0.22306 0.41571 0.0
H968 H 0.92336 0.18206 0.45377 0.0
S969 S 0.0703 0.1468 0.49148 0.0
N970 N 0.06655 0.18006 0.4614 0.0
N971 N 0.02809 0.13432 0.50194 0.0
C972 C 0.00877 0.1572 0.48031 0.0
C973 C 0.02959 0.18203 0.45845 0.0
C974 C 0.59203 0.15791 0.21562 0.0
C975 C 0.57537 0.19208 0.21118 0.0
C976 C 0.59422 0.14149 0.24982 0.0
C977 C 0.58032 0.15882 0.28093 0.0
H978 H 0.60174 0.14271 0.19225 0.0
H979 H 0.60597 0.11453 0.25165 0.0
S980 S 0.53938 0.2511 0.28516 0.0
N981 N 0.54866 0.24466 0.24158 0.0
N982 N 0.55315 0.21387 0.30609 0.0
C983 C 0.56647 0.19438 0.27752 0.0
C984 C 0.56403 0.21104 0.24255 0.0
C985 C 0.55338 0.84532 0.97211 0.0
C986 C 0.57127 0.81613 0.9553 0.0
C987 C 0.56834 0.8627 0.00281 0.0
C988 C 0.60147 0.8511 0.01826 0.0
H989 H 0.52701 0.85419 0.96221 0.0
H990 H 0.55259 0.88386 0.01591 0.0
S991 S 0.66208 0.77983 0.98077 0.0
N992 N 0.62628 0.77956 0.95304 0.0
N993 N 0.65416 0.81176 0.01165 0.0
C994 C 0.62127 0.82403 -0.00013 0.0
C995 C 0.6061 0.80649 0.96823 0.0
C996 C 0.93535 0.23434 0.74767 0.0
C997 C 0.91608 0.21948 0.77722 0.0
C998 C 0.935 0.21648 0.71372 0.0
C999 C 0.91546 0.18325 0.70845 0.0
H1000 H 0.95302 0.25816 0.75149 0.0
H1001 H 0.9517 0.2278 0.69208 0.0
S1002 S 0.85523 0.13727 0.77573 0.0
N1003 N 0.87306 0.17277 0.798 0.0
N1004 N 0.87235 0.13923 0.73415 0.0
C1005 C 0.89381 0.16985 0.73704 0.0
C1006 C 0.89403 0.18809 0.77143 0.0
C1007 C 0.55871 0.13803 0.57868 0.0
C1008 C 0.52738 0.15974 0.5811 0.0
C1009 C 0.56798 0.12122 0.54586 0.0
C1010 C 0.54609 0.12533 0.5145 0.0
H1011 H 0.57808 0.13669 0.60113 0.0
H1012 H 0.59402 0.1076 0.5444 0.0
S1013 S 0.45428 0.16719 0.51083 0.0
N1014 N 0.46938 0.17562 0.55267 0.0
N1015 N 0.48669 0.14365 0.49078 0.0
C1016 C 0.51158 0.14139 0.5184 0.0
C1017 C 0.5022 0.15871 0.55189 0.0
C1018 C 0.51251 0.73807 0.2435 0.0
C1019 C 0.51143 0.7443 0.28122 0.0
C1020 C 0.52931 0.76343 0.22034 0.0
C1021 C 0.54583 0.79613 0.23391 0.0
H1022 H 0.49893 0.71425 0.23154 0.0
H1023 H 0.5284 0.75752 0.19133 0.0
S1024 S 0.55449 0.82284 0.3315 0.0
N1025 N 0.53143 0.78365 0.33186 0.0
N1026 N 0.56271 0.83144 0.28809 0.0
C1027 C 0.54651 0.80176 0.27184 0.0
C1028 C 0.52946 0.77583 0.29552 0.0
C1029 C 0.95615 0.81926 0.01287 0.0
C1030 C 0.94124 0.78803 0.02984 0.0
C1031 C 0.93668 0.83795 0.98601 0.0
C1032 C 0.90127 0.82655 0.97531 0.0
H1033 H 0.9836 0.82883 0.01952 0.0
H1034 H 0.94996 0.86088 0.97258 0.0
S1035 S 0.84868 0.74777 0.01242 0.0
N1036 N 0.88793 0.7475 0.03504 0.0
N1037 N 0.85135 0.78302 0.98449 0.0
C1038 C 0.88522 0.79645 0.99309 0.0
C1039 C 0.90523 0.77705 0.02032 0.0
C1040 C 0.70882 0.98523 0.80974 0.0
C1041 C 0.70442 0.98247 0.77151 0.0
C1042 C 0.73193 0.96172 0.82888 0.0
C1043 C 0.7516 0.93472 0.81042 0.0
H1044 H 0.69485 0.00618 0.82504 0.0
H1045 H 0.73596 0.96609 0.85794 0.0
S1046 S 0.74736 0.91368 0.71116 0.0
N1047 N 0.71985 0.94863 0.71641 0.0
N1048 N 0.76333 0.90468 0.75236 0.0
C1049 C 0.74621 0.93055 0.77252 0.0
C1050 C 0.72267 0.95438 0.75305 0.0
C1051 C 0.84519 0.96944 0.49163 0.0
C1052 C 0.83507 0.94017 0.51424 0.0
C1053 C 0.86251 0.00072 0.50609 0.0
C1054 C 0.8704 0.00397 0.54376 0.0
H1055 H 0.83846 0.96886 0.46277 0.0
H1056 H 0.86821 0.02314 0.48765 0.0
S1057 S 0.85521 0.93187 0.61339 0.0
N1058 N 0.83824 0.91412 0.5752 0.0
N1059 N 0.8709 0.97294 0.60248 0.0
C1060 C 0.86279 0.97367 0.56619 0.0
C1061 C 0.84501 0.94182 0.55142 0.0
C1062 C 0.76699 0.02899 0.34424 0.0
C1063 C 0.7705 0.03407 0.30633 0.0
C1064 C 0.73785 0.04423 0.36337 0.0
C1065 C 0.7115 0.06504 0.34513 0.0
H1066 H 0.78528 0.01106 0.35874 0.0
H1067 H 0.73457 0.03745 0.39195 0.0
S1068 S 0.71297 0.09252 0.24763 0.0
N1069 N 0.74855 0.06574 0.25244 0.0
N1070 N 0.69405 0.09474 0.28838 0.0
C1071 C 0.71681 0.07316 0.30798 0.0
C1072 C 0.74625 0.05752 0.28855 0.0
C1073 C 0.69884 0.0189 0.07732 0.0
C1074 C 0.68754 0.05219 0.09232 0.0
C1075 C 0.68853 0.98573 0.09276 0.0
C1076 C 0.66604 0.98396 0.12388 0.0
H1077 H 0.71642 0.01821 0.05362 0.0
H1078 H 0.69854 0.96116 0.07983 0.0
S1079 S 0.62861 0.06326 0.17396 0.0
N1080 N 0.65255 0.08168 0.14045 0.0
N1081 N 0.63269 0.01856 0.16933 0.0
C1082 C 0.65448 0.01697 0.13947 0.0
C1083 C 0.66524 0.05119 0.1237 0.0
C1084 C 0.74122 0.09895 0.68215 0.0
C1085 C 0.70994 0.10497 0.66068 0.0
C1086 C 0.77612 0.10054 0.66709 0.0
C1087 C 0.7815 0.1082 0.62978 0.0
H1088 H 0.73885 0.09134 0.7106 0.0
H1089 H 0.79897 0.09446 0.68489 0.0
S1090 S 0.70935 0.13225 0.56284 0.0
N1091 N 0.68695 0.12343 0.60089 0.0
N1092 N 0.75295 0.12633 0.57267 0.0
C1093 C 0.75079 0.11673 0.60842 0.0
C1094 C 0.71498 0.11527 0.62385 0.0
C1095 C 0.68203 0.94199 0.43765 0.0
C1096 C 0.68259 0.93863 0.47599 0.0
C1097 C 0.65558 0.96288 0.42007 0.0
C1098 C 0.62885 0.9811 0.44027 0.0
H1099 H 0.70346 0.93035 0.42118 0.0
H1100 H 0.65839 0.9676 0.39102 0.0
S1101 S 0.61281 0.97352 0.53994 0.0
N1102 N 0.65002 0.94963 0.53271 0.0
N1103 N 0.60025 0.98893 0.49952 0.0
C1104 C 0.62653 0.9744 0.478 0.0
C1105 C 0.65358 0.95336 0.49596 0.0
C1106 C 0.78335 0.87746 0.23808 0.0
C1107 C 0.7821 0.90017 0.26893 0.0
C1108 C 0.75125 0.8652 0.22109 0.0
C1109 C 0.71693 0.87611 0.23395 0.0
H1110 H 0.80931 0.87108 0.22564 0.0
H1111 H 0.75346 0.84957 0.19598 0.0
S1112 S 0.69974 0.93103 0.31757 0.0
N1113 N 0.74474 0.92918 0.31496 0.0
N1114 N 0.68369 0.90693 0.28247 0.0
C1115 C 0.71537 0.89575 0.26713 0.0
C1116 C 0.7483 0.90778 0.28475 0.0
C1117 C 0.81786 0.01632 0.9905 0.0
C1118 C 0.80645 0.04858 0.97388 0.0
C1119 C 0.83183 0.98778 0.96935 0.0
C1120 C 0.835 0.99081 0.93102 0.0
H1121 H 0.81366 0.01213 0.01946 0.0
H1122 H 0.83833 0.96246 0.98299 0.0
S1123 S 0.81567 0.07357 0.87629 0.0
N1124 N 0.80412 0.08464 0.91839 0.0
N1125 N 0.83066 0.03131 0.87856 0.0
C1126 C 0.82698 0.02457 0.91485 0.0
C1127 C 0.8125 0.05337 0.93634 0.0
C1128 C 0.79443 0.71167 0.92264 0.0
C1129 C 0.75603 0.71221 0.92555 0.0
C1130 C 0.81342 0.73786 0.90237 0.0
C1131 C 0.79479 0.76582 0.88434 0.0
H1132 H 0.81037 0.69201 0.93767 0.0
H1133 H 0.84303 0.73773 0.90337 0.0
S1134 S 0.694 0.7741 0.87564 0.0
N1135 N 0.69972 0.73891 0.90303 0.0
N1136 N 0.73555 0.78852 0.86486 0.0
C1137 C 0.75625 0.76429 0.88357 0.0
C1138 C 0.73681 0.73743 0.90423 0.0
C1139 C 0.32265 0.79722 0.0596 0.0
C1140 C 0.28443 0.79766 0.06463 0.0
C1141 C 0.34249 0.76549 0.0657 0.0
C1142 C 0.32457 0.73339 0.07682 0.0
H1143 H 0.33716 0.82095 0.04911 0.0
H1144 H 0.37145 0.76551 0.05965 0.0
S1145 S 0.22663 0.72205 0.10094 0.0
N1146 N 0.2306 0.76464 0.08655 0.0
N1147 N 0.268 0.70496 0.09812 0.0
C1148 C 0.28707 0.73429 0.085 0.0
C1149 C 0.26692 0.76652 0.07891 0.0
C1150 C 0.9775 0.55159 0.79717 0.0
C1151 C 0.94794 0.57543 0.80101 0.0
C1152 C 0.01326 0.56325 0.80488 0.0
C1153 C 0.02096 0.59925 0.81673 0.0
H1154 H 0.97344 0.52422 0.78621 0.0
H1155 H 0.03511 0.5443 0.7997 0.0
S1156 S 0.95277 0.67017 0.83834 0.0
N1157 N 0.92825 0.63508 0.82271 0.0
N1158 N -0.00432 0.65698 0.83721 0.0
C1159 C 0.99145 0.62241 0.82374 0.0
C1160 C 0.9549 0.61048 0.81597 0.0
C1161 C 0.14654 0.19552 0.54563 0.0
C1162 C 0.17822 0.17957 0.55986 0.0
C1163 C 0.13076 0.22532 0.5632 0.0
C1164 C 0.1465 0.23983 0.59532 0.0
H1165 H 0.13539 0.18657 0.51958 0.0
H1166 H 0.1081 0.23882 0.55001 0.0
S1167 S 0.225 0.20318 0.64714 0.0
N1168 N 0.22147 0.17678 0.61048 0.0
N1169 N 0.19187 0.23311 0.64352 0.0
C1170 C 0.17616 0.22206 0.61145 0.0
C1171 C 0.19218 0.19185 0.59358 0.0
C1172 C 0.01138 0.98531 0.83361 0.0
C1173 C 0.031 0.97293 0.80334 0.0
C1174 C 0.98597 0.96251 0.8508 0.0
C1175 C 0.97871 0.92675 0.83787 0.0
H1176 H 0.01523 0.01302 0.84378 0.0
H1177 H 0.97026 0.97379 0.87307 0.0
S1178 S 0.02549 0.88027 0.76145 0.0
N1179 N 0.04416 0.9217 0.76296 0.0
N1180 N -0.0047 0.87901 0.79478 0.0
C1181 C -0.00017 0.9132 0.80907 0.0
C1182 C 0.02614 0.93637 0.79176 0.0
C1183 C 0.655 0.2793 0.41638 0.0
C1184 C 0.68633 0.28434 0.43844 0.0
C1185 C 0.63971 0.24454 0.41047 0.0
C1186 C 0.6553 0.21345 0.42617 0.0
H1187 H 0.64094 0.30262 0.40522 0.0
H1188 H 0.61475 0.24219 0.39443 0.0
S1189 S 0.73979 0.21127 0.48285 0.0
N1190 N 0.73434 0.25496 0.4735 0.0
N1191 N 0.70568 0.18933 0.46201 0.0
C1192 C 0.68826 0.21765 0.44594 0.0
C1193 C 0.70383 0.25321 0.45209 0.0
C1194 C -0.00223 0.49116 0.69584 0.0
C1195 C 0.96334 0.48335 0.68048 0.0
C1196 C 0.02701 0.46769 0.68981 0.0
C1197 C 0.02252 0.43571 0.66832 0.0
H1198 H 0.00143 0.51399 0.71461 0.0
H1199 H 0.05274 0.47381 0.70353 0.0
S1200 S 0.93825 0.40719 0.61769 0.0
N1201 N 0.92675 0.44447 0.64021 0.0
N1202 N 0.98166 0.40057 0.6279 0.0
C1203 C 0.98864 0.42941 0.65066 0.0
C1204 C 0.95901 0.45321 0.65704 0.0
C1205 C 0.49855 0.49982 0.17064 0.0
C1206 C 0.5219 0.51701 0.19634 0.0
C1207 C 0.47009 0.51909 0.1542 0.0
C1208 C 0.46457 0.55618 0.16261 0.0
H1209 H 0.50254 0.47155 0.16283 0.0
H1210 H 0.45256 0.50502 0.13449 0.0
S1211 S 0.5157 0.61287 0.23058 0.0
N1212 N 0.53574 0.57281 0.23123 0.0
N1213 N 0.48265 0.60863 0.19993 0.0
C1214 C 0.48711 0.57341 0.18878 0.0
C1215 C 0.51566 0.55387 0.20582 0.0
C1216 C 0.61363 0.68811 0.78864 0.0
C1217 C 0.58492 0.71233 0.79482 0.0
C1218 C 0.62025 0.67437 0.75368 0.0
C1219 C 0.59867 0.68464 0.72357 0.0
H1220 H 0.63026 0.67856 0.81113 0.0
H1221 H 0.64177 0.65462 0.75047 0.0
S1222 S 0.52335 0.7514 0.72452 0.0
N1223 N 0.53712 0.74911 0.76747 0.0
N1224 N 0.5496 0.72314 0.70162 0.0
C1225 C 0.5714 0.7107 0.72894 0.0
C1226 C 0.56443 0.72449 0.76465 0.0
C1227 C 0.62193 0.28438 0.03829 0.0
C1228 C 0.58564 0.28741 0.04969 0.0
C1229 C 0.63558 0.30655 0.01047 0.0
C1230 C 0.61285 0.33144 0.99229 0.0
H1231 H 0.63933 0.26361 0.04977 0.0
H1232 H 0.66315 0.30173 0.00115 0.0
S1233 S 0.5176 0.35388 0.0169 0.0
N1234 N 0.52881 0.32071 0.04504 0.0
N1235 N 0.55412 0.36175 0.99165 0.0
C1236 C 0.57754 0.33704 0.00589 0.0
C1237 C 0.56395 0.31502 0.03484 0.0
C1238 C 0.92448 0.30275 0.2779 0.0
C1239 C 0.94134 0.33103 0.29845 0.0
C1240 C 0.90162 0.31056 0.24836 0.0
C1241 C 0.89403 0.34684 0.23919 0.0
H1242 H 0.9308 0.27441 0.28322 0.0
H1243 H 0.89159 0.2882 0.23127 0.0
S1244 S 0.92735 0.43037 0.28795 0.0
N1245 N 0.94651 0.39632 0.31001 0.0
N1246 N 0.90222 0.41126 0.25515 0.0
C1247 C 0.9083 0.37527 0.26148 0.0
C1248 C 0.93248 0.3673 0.29092 0.0
C1249 C 0.89582 0.72025 0.50831 0.0
C1250 C 0.918 0.70176 0.53339 0.0
C1251 C 0.885 0.70355 0.47542 0.0
C1252 C 0.89691 0.66836 0.46619 0.0
H1253 H 0.88742 0.74804 0.51366 0.0
H1254 H 0.8683 0.71877 0.4565 0.0
S1255 S 0.95054 0.60624 0.52409 0.0
N1256 N 0.94715 0.64408 0.54857 0.0
N1257 N 0.92881 0.61419 0.48536 0.0
C1258 C 0.91772 0.64901 0.49137 0.0
C1259 C 0.92773 0.66536 0.5254 0.0
C1260 C 0.58109 0.29674 0.70793 0.0
C1261 C 0.55103 0.3155 0.69337 0.0
C1262 C 0.59801 0.30839 0.74025 0.0
C1263 C 0.58642 0.34 0.75802 0.0
H1264 H 0.59097 0.27209 0.69524 0.0
H1265 H 0.6201 0.2925 0.75152 0.0
S1266 S 0.51305 0.40216 0.72847 0.0
N1267 N 0.51269 0.36913 0.69748 0.0
N1268 N 0.54593 0.39208 0.75768 0.0
C1269 C 0.55832 0.36063 0.74253 0.0
C1270 C 0.54032 0.34818 0.71016 0.0
C1271 C 0.95943 0.31186 0.96484 0.0
C1272 C 0.93396 0.30675 0.93632 0.0
C1273 C 0.95123 0.33354 -0.00489 0.0
C1274 C 0.91773 0.3516 -0.0027 0.0
H1275 H 0.98506 0.2974 0.96472 0.0
H1276 H 0.97048 0.3348 0.01774 0.0
S1277 S 0.84441 0.3515 0.92673 0.0
N1278 N 0.87569 0.32404 0.91004 0.0
N1279 N 0.86052 0.36605 0.96662 0.0
C1280 C 0.89322 0.34898 0.96756 0.0
C1281 C 0.90122 0.32605 0.93713 0.0
C1282 C 0.99141 0.63486 0.20898 0.0
C1283 C 0.97642 0.65638 0.18106 0.0
C1284 C 0.9694 0.62088 0.23677 0.0
C1285 C 0.93191 0.62811 0.23743 0.0
H1286 H 0.02062 0.63063 0.21067 0.0
H1287 H 0.98219 0.60662 0.25924 0.0
S1288 S 0.87794 0.67706 0.16815 0.0
N1289 N 0.92047 0.67963 0.15337 0.0
N1290 N 0.87958 0.65367 0.20655 0.0
C1291 C 0.91592 0.64663 0.20838 0.0
C1292 C 0.93811 0.66059 0.17975 0.0
C1293 C 0.49589 0.62588 0.45583 0.0
C1294 C 0.5078 0.65409 0.43264 0.0
C1295 C 0.51733 0.61545 0.48578 0.0
C1296 C 0.5517 0.63203 0.49222 0.0
H1297 H 0.46928 0.61297 0.45169 0.0
H1298 H 0.50674 0.59497 0.50438 0.0
S1299 S 0.59557 0.70582 0.43814 0.0
N1300 N 0.55599 0.69774 0.41738 0.0
N1301 N 0.59704 0.67706 0.47273 0.0
C1302 C 0.56444 0.65913 0.46825 0.0
C1303 C 0.54223 0.67046 0.43859 0.0
C1304 C 0.79553 0.5575 0.63776 0.0
C1305 C 0.81 0.57217 0.67046 0.0
C1306 C 0.76317 0.5707 0.62276 0.0
C1307 C 0.74386 0.59857 0.64035 0.0
H1308 H 0.80851 0.53473 0.62427 0.0
H1309 H 0.75205 0.55728 0.59856 0.0
S1310 S 0.77308 0.65027 0.72316 0.0
N1311 N 0.80516 0.61961 0.71717 0.0
N1312 N 0.74345 0.64349 0.68949 0.0
C1313 C 0.75927 0.61525 0.67157 0.0
C1314 C 0.79262 0.60227 0.68652 0.0
C1315 C 0.70347 0.51448 0.97936 0.0
C1316 C 0.71713 0.54443 0.95977 0.0
C1317 C 0.69687 0.48101 0.96184 0.0
C1318 C 0.70292 0.47716 0.92414 0.0
H1319 H 0.69668 0.51734 0.008 0.0
H1320 H 0.68516 0.45869 0.97749 0.0
S1321 S 0.74135 0.54755 0.86193 0.0
N1322 N 0.73906 0.56824 0.90207 0.0
N1323 N 0.72581 0.50543 0.86846 0.0
C1324 C 0.71809 0.50674 0.90471 0.0
C1325 C 0.7254 0.5405 0.92277 0.0
C1326 C 0.6918 0.45518 0.14468 0.0
C1327 C 0.68082 0.43853 0.17749 0.0
C1328 C 0.7262 0.44835 0.12975 0.0
C1329 C 0.7507 0.42538 0.14773 0.0
H1330 H 0.67417 0.4744 0.13105 0.0
H1331 H 0.7343 0.46231 0.10498 0.0
S1332 S 0.73495 0.37372 0.23291 0.0
N1333 N 0.69679 0.39629 0.22619 0.0
N1334 N 0.76177 0.38461 0.19842 0.0
C1335 C 0.73978 0.40764 0.17968 0.0
C1336 C 0.70463 0.41387 0.19448 0.0
C1337 C 0.78736 0.45624 0.42501 0.0
C1338 C 0.75578 0.46438 0.44497 0.0
C1339 C 0.80867 0.48402 0.40935 0.0
C1340 C 0.79957 0.521 0.41363 0.0
H1341 H 0.79527 0.42812 0.42074 0.0
H1342 H 0.83222 0.47638 0.39339 0.0
S1343 S 0.7209 0.55671 0.46604 0.0
N1344 N 0.71735 0.51184 0.46997 0.0
N1345 N 0.75747 0.56432 0.44083 0.0
C1346 C 0.76866 0.52956 0.43468 0.0
C1347 C 0.74669 0.50117 0.4502 0.0
C1348 C 0.7924 0.46653 0.8212 0.0
C1349 C 0.79315 0.47339 0.78361 0.0
C1350 C 0.77326 0.43619 0.83488 0.0
C1351 C 0.75358 0.41223 0.81136 0.0
H1352 H 0.8063 0.48499 0.84017 0.0
H1353 H 0.77181 0.43308 0.86425 0.0
S1354 S 0.75005 0.41708 0.71024 0.0
N1355 N 0.7758 0.45262 0.72273 0.0
N1356 N 0.73831 0.39622 0.74844 0.0
C1357 C 0.7557 0.41801 0.7735 0.0
C1358 C 0.77584 0.4485 0.7596 0.0
C1359 C 0.85033 0.56142 0.03646 0.0
C1360 C 0.83061 0.58296 0.06108 0.0
C1361 C 0.86698 0.52937 0.04816 0.0
C1362 C 0.86517 0.51871 0.08492 0.0
H1363 H 0.84957 0.56715 0.00745 0.0
H1364 H 0.87847 0.51124 0.02789 0.0
S1365 S 0.82404 0.57079 0.16114 0.0
N1366 N 0.81511 0.59508 0.12432 0.0
N1367 N 0.84772 0.53546 0.14681 0.0
C1368 C 0.84983 0.54275 0.1105 0.0
C1369 C 0.83203 0.57481 0.09839 0.0
C1370 C 0.69095 0.5829 0.28654 0.0
C1371 C 0.68707 0.54699 0.27287 0.0
C1372 C 0.72533 0.59877 0.29244 0.0
C1373 C 0.75724 0.57936 0.28503 0.0
H1374 H 0.66732 0.5986 0.29422 0.0
H1375 H 0.72687 0.62567 0.30501 0.0
S1376 S 0.76209 0.48716 0.24226 0.0
N1377 N 0.71794 0.49441 0.24698 0.0
N1378 N 0.78301 0.52424 0.25849 0.0
C1379 C 0.75389 0.54468 0.26825 0.0
C1380 C 0.71867 0.52838 0.2623 0.0
C1381 C 0.70799 0.45425 0.58354 0.0
C1382 C 0.68996 0.42994 0.55937 0.0
C1383 C 0.69102 0.48598 0.59548 0.0
C1384 C 0.65586 0.4947 0.58301 0.0
H1385 H 0.73583 0.44946 0.59234 0.0
H1386 H 0.70628 0.50476 0.61307 0.0
S1387 S 0.59459 0.43779 0.52461 0.0
N1388 N 0.63262 0.41427 0.52787 0.0
N1389 N 0.60197 0.47557 0.54867 0.0
C1390 C 0.63668 0.46994 0.5606 0.0
C1391 C 0.65343 0.43699 0.54928 0.0
C1392 C 0.7098 0.75989 0.52132 0.0
C1393 C 0.70607 0.79221 0.54175 0.0
C1394 C 0.68882 0.72875 0.52923 0.0
C1395 C 0.66302 0.72883 0.5576 0.0
H1396 H 0.72966 0.75829 0.49956 0.0
H1397 H 0.69319 0.70422 0.51319 0.0
S1398 S 0.64057 0.80736 0.61737 0.0
N1399 N 0.67299 0.82319 0.59025 0.0
N1400 N 0.63354 0.7643 0.60504 0.0
C1401 C 0.65794 0.7613 0.57738 0.0
C1402 C 0.67957 0.79304 0.56955 0.0
C1403 C 0.23341 0.7146 0.44747 0.0
C1404 C 0.20987 0.69224 0.46802 0.0
C1405 C 0.2202 0.73467 0.41776 0.0
C1406 C 0.18295 0.73284 0.40745 0.0
H1407 H 0.26188 0.71788 0.45543 0.0
H1408 H 0.23895 0.7533 0.40422 0.0
S1409 S 0.1121 0.67216 0.44918 0.0
N1410 N 0.14933 0.66516 0.47372 0.0
N1411 N 0.12406 0.70216 0.41772 0.0
C1412 C 0.16 0.70774 0.42611 0.0
C1413 C 0.17354 0.6877 0.45652 0.0
C1414 C 0.55322 0.95403 0.69117 0.0
C1415 C 0.5618 0.9895 0.67919 0.0
C1416 C 0.5253 0.93346 0.67448 0.0
C1417 C 0.50436 0.94808 0.64592 0.0
H1418 H 0.56798 0.94212 0.71382 0.0
H1419 H 0.51881 0.90665 0.68539 0.0
S1420 S 0.51719 0.03882 0.60305 0.0
N1421 N 0.54896 0.03751 0.63529 0.0
N1422 N 0.49481 -0.00074 0.6052 0.0
C1423 C 0.51317 0.98311 0.633 0.0
C1424 C 0.54239 0.00374 0.64932 0.0
C1425 C 0.29201 0.27908 0.91784 0.0
C1426 C 0.27119 0.27953 0.94992 0.0
C1427 C 0.31311 0.24866 0.909 0.0
C1428 C 0.313 0.2176 0.93148 0.0
H1429 H 0.29299 0.30279 0.90024 0.0
H1430 H 0.32945 0.24935 0.88442 0.0
S1431 S 0.26129 0.20502 0.01748 0.0
N1432 N 0.25101 0.24655 0.00375 0.0
N1433 N 0.28941 0.18879 0.98647 0.0
C1434 C 0.29132 0.21745 0.96301 0.0
C1435 C 0.2707 0.24865 0.97242 0.0
C1436 C 0.48313 0.5093 0.68736 0.0
C1437 C 0.4481 0.51722 0.67434 0.0
C1438 C 0.51322 0.53091 0.6779 0.0
C1439 C 0.50949 0.56146 0.65498 0.0
H1440 H 0.48734 0.48597 0.70489 0.0
H1441 H 0.5396 0.5236 0.68905 0.0
S1442 S 0.42306 0.59258 0.61231 0.0
N1443 N 0.4108 0.55649 0.63658 0.0
N1444 N 0.46768 0.59766 0.61836 0.0
C1445 C 0.47446 0.56931 0.64112 0.0
C1446 C 0.44369 0.54694 0.65075 0.0
C1447 C 0.79724 0.21553 0.08555 0.0
C1448 C 0.79285 0.20733 0.04823 0.0
C1449 C 0.80865 0.25035 0.09711 0.0
C1450 C 0.81524 0.27832 0.07175 0.0
H1451 H 0.79262 0.19466 0.10598 0.0
H1452 H 0.81283 0.25525 0.12608 0.0
S1453 S 0.80525 0.27125 0.97096 0.0
N1454 N 0.79452 0.23004 0.98602 0.0
N1455 N 0.81519 0.29598 0.00768 0.0
C1456 C 0.80965 0.27083 0.03437 0.0
C1457 C 0.79874 0.23512 0.02259 0.0
C1458 C 0.54632 0.10998 0.79787 0.0
C1459 C 0.54215 0.0851 0.76875 0.0
C1460 C 0.52053 0.11097 0.82611 0.0
C1461 C 0.49046 0.08631 0.82672 0.0
H1462 H 0.56882 0.12963 0.79809 0.0
H1463 H 0.52348 0.13198 0.84696 0.0
S1464 S 0.47051 0.01289 0.75828 0.0
N1465 N 0.50782 0.03362 0.74315 0.0
N1466 N 0.46006 0.03431 0.79655 0.0
C1467 C 0.4876 0.05971 0.79871 0.0
C1468 C 0.51322 0.05949 0.76958 0.0
C1469 C 0.9705 0.94367 0.34903 0.0
C1470 C 0.94 0.92172 0.33995 0.0
C1471 C 0.00471 0.92786 0.35428 0.0
C1472 C 0.00904 0.88974 0.35072 0.0
H1473 H 0.96861 0.97322 0.34895 0.0
H1474 H 0.02816 0.94577 0.35914 0.0
S1475 S 0.93533 0.82075 0.33215 0.0
N1476 N 0.91463 0.86046 0.33176 0.0
N1477 N 0.9786 0.8304 0.34156 0.0
C1478 C 0.97773 0.86745 0.34496 0.0
C1479 C 0.94319 0.8836 0.3396 0.0
C1480 C 0.42631 0.27401 0.22185 0.0
C1481 C 0.45428 0.29401 0.20454 0.0
C1482 C 0.40487 0.29001 0.24887 0.0
C1483 C 0.41063 0.32667 0.25987 0.0
H1484 H 0.42131 0.24547 0.21508 0.0
H1485 H 0.38452 0.27294 0.26218 0.0
S1486 S 0.47837 0.39202 0.22039 0.0
N1487 N 0.48497 0.35327 0.19825 0.0
N1488 N 0.44479 0.38338 0.24912 0.0
C1489 C 0.43733 0.34759 0.24138 0.0
C1490 C 0.45921 0.33122 0.21381 0.0
C1491 C 0.45907 0.68226 0.94943 0.0
C1492 C 0.49711 0.67889 0.95503 0.0
C1493 C 0.43365 0.66486 0.97237 0.0
C1494 C 0.44524 0.64357 0.00196 0.0
H1495 H 0.44867 0.69988 0.92822 0.0
H1496 H 0.40488 0.67034 0.96845 0.0
S1497 S 0.54104 0.62027 0.02477 0.0
N1498 N 0.5446 0.64801 0.98951 0.0
N1499 N 0.49683 0.61599 0.03282 0.0
C1500 C 0.48292 0.63751 0.00611 0.0
C1501 C 0.50884 0.65497 0.98264 0.0
C1502 C 0.05671 0.72443 0.7002 0.0
C1503 C 0.06039 0.707 0.66623 0.0
C1504 C 0.07986 0.71582 0.72922 0.0
C1505 C 0.10709 0.68938 0.72505 0.0
H1506 H 0.03436 0.74286 0.70519 0.0
H1507 H 0.0743 0.72762 0.75579 0.0
S1508 S 0.13406 0.64347 0.63937 0.0
N1509 N 0.09831 0.66806 0.62802 0.0
N1510 N 0.14082 0.65094 0.68344 0.0
C1511 C 0.11353 0.67473 0.69043 0.0
C1512 C 0.0904 0.68384 0.66071 0.0
C1513 C 0.0275 0.35357 0.47564 0.0
C1514 C 0.04974 0.35025 0.44479 0.0
C1515 C 0.04289 0.359 0.51027 0.0
C1516 C 0.08114 0.36115 0.51537 0.0
H1517 H -0.00189 0.34999 0.47342 0.0
H1518 H 0.02453 0.3595 0.53336 0.0
S1519 S 0.15078 0.36201 0.44218 0.0
N1520 N 0.11148 0.35536 0.4205 0.0
N1521 N 0.14048 0.36525 0.4859 0.0
C1522 C 0.10349 0.36107 0.48433 0.0
C1523 C 0.08777 0.3557 0.44895 0.0
C1524 C 0.38724 0.72096 0.26679 0.0
C1525 C 0.3804 0.70053 0.29839 0.0
C1526 C 0.38245 0.70514 0.23214 0.0
C1527 C 0.37059 0.66841 0.228 0.0
H1528 H 0.39911 0.74825 0.26879 0.0
H1529 H 0.39011 0.72129 0.20861 0.0
S1530 S 0.34203 0.60625 0.30291 0.0
N1531 N 0.35641 0.64397 0.32387 0.0
N1532 N 0.34665 0.6142 0.25882 0.0
C1533 C 0.36033 0.649 0.25954 0.0
C1534 C 0.36545 0.6651 0.29475 0.0
C1535 C 0.05141 0.68807 0.9928 0.0
C1536 C 0.07067 0.68204 0.02538 0.0
C1537 C 0.06683 0.67978 0.95916 0.0
C1538 C 0.10217 0.6652 0.9568 0.0
H1539 H 0.02484 0.70076 0.99303 0.0
H1540 H 0.05128 0.68621 0.93482 0.0
S1541 S 0.16158 0.63855 0.03439 0.0
N1542 N 0.12515 0.65624 0.05357 0.0
N1543 N 0.15424 0.64102 0.98996 0.0
C1544 C 0.12082 0.6568 0.9892 0.0
C1545 C 0.10504 0.66507 0.02361 0.0
C1546 C 0.04842 0.27749 0.79777 0.0
C1547 C 0.04101 0.24068 0.78773 0.0
C1548 C 0.06739 0.30139 0.77449 0.0
C1549 C 0.07976 0.28924 0.74044 0.0
H1550 H 0.0374 0.28876 0.82274 0.0
H1551 H 0.06995 0.33002 0.78205 0.0
S1552 S 0.0748 0.19375 0.70485 0.0
N1553 N 0.05259 0.19213 0.74393 0.0
N1554 N 0.08897 0.23661 0.70052 0.0
C1555 C 0.07585 0.25166 0.73178 0.0
C1556 C 0.05622 0.22749 0.75527 0.0
C1557 C 0.45688 0.30993 0.52589 0.0
C1558 C 0.43849 0.29216 0.55439 0.0
C1559 C 0.43821 0.32073 0.4947 0.0
C1560 C 0.4004 0.31426 0.49076 0.0
H1561 H 0.48613 0.31501 0.52722 0.0
H1562 H 0.45376 0.33373 0.4731 0.0
S1563 S 0.33888 0.27071 0.55824 0.0
N1564 N 0.37979 0.27009 0.57763 0.0
N1565 N 0.34464 0.29065 0.51827 0.0
C1566 C 0.38119 0.29793 0.51951 0.0
C1567 C 0.4003 0.28669 0.55151 0.0
C1568 C 0.24051 0.4444 0.26166 0.0
C1569 C 0.21238 0.46345 0.27895 0.0
C1570 C 0.26796 0.42764 0.28207 0.0
C1571 C 0.26796 0.42879 0.32053 0.0
H1572 H 0.24127 0.44221 0.23215 0.0
H1573 H 0.28917 0.41331 0.26756 0.0
S1574 S 0.20087 0.4758 0.37913 0.0
N1575 N 0.18658 0.48312 0.33699 0.0
N1576 N 0.23806 0.45119 0.37514 0.0
C1577 C 0.24011 0.44784 0.3382 0.0
C1578 C 0.21241 0.46537 0.31746 0.0
C1579 C 0.30633 0.45732 0.00568 0.0
C1580 C 0.27809 0.43913 0.02465 0.0
C1581 C 0.32502 0.48743 0.02112 0.0
C1582 C 0.31639 0.50021 0.05624 0.0
H1583 H 0.31387 0.44852 0.97849 0.0
H1584 H 0.34616 0.50096 0.00531 0.0
S1585 S 0.244 0.4625 0.11704 0.0
N1586 N 0.2422 0.43619 0.0803 0.0
N1587 N 0.27706 0.49265 0.10936 0.0
C1588 C 0.28835 0.482 0.07565 0.0
C1589 C 0.26924 0.45152 0.05983 0.0
C1590 C 0.27578 0.5501 0.72987 0.0
C1591 C 0.29358 0.52361 0.75074 0.0
C1592 C 0.25487 0.57703 0.74675 0.0
C1593 C 0.25104 0.57833 0.78505 0.0
H1594 H 0.27812 0.55013 0.70038 0.0
H1595 H 0.24071 0.59636 0.72962 0.0
S1596 S 0.29099 0.51377 0.85166 0.0
N1597 N 0.30541 0.49956 0.8115 0.0
N1598 N 0.26628 0.55011 0.84315 0.0
C1599 C 0.26919 0.5522 0.80619 0.0
C1600 C 0.29027 0.52476 0.78903 0.0
C1601 C 0.18455 0.54026 0.61151 0.0
C1602 C 0.20779 0.54239 0.58087 0.0
C1603 C 0.17306 0.50646 0.62575 0.0
C1604 C 0.18432 0.47358 0.60981 0.0
H1605 H 0.17513 0.56491 0.62474 0.0
H1606 H 0.15477 0.50611 0.64891 0.0
S1607 S 0.24722 0.46373 0.53101 0.0
N1608 N 0.24281 0.50826 0.53622 0.0
N1609 N 0.22172 0.44504 0.56308 0.0
C1610 C 0.20807 0.47528 0.57961 0.0
C1611 C 0.21959 0.50956 0.56506 0.0
C1612 C 0.17962 0.57013 0.11972 0.0
C1613 C 0.17084 0.57489 0.15683 0.0
C1614 C 0.21232 0.58436 0.10567 0.0
C1615 C 0.23689 0.604 0.12832 0.0
H1616 H 0.16296 0.55244 0.10227 0.0
H1617 H 0.21984 0.5769 0.07807 0.0
S1618 S 0.22087 0.63313 0.22414 0.0
N1619 N 0.18521 0.60672 0.21365 0.0
N1620 N 0.24621 0.63471 0.18699 0.0
C1621 C 0.22575 0.61334 0.1639 0.0
C1622 C 0.19283 0.59831 0.17832 0.0
C1623 C 0.18373 0.4586 0.90351 0.0
C1624 C 0.16604 0.45741 0.93763 0.0
C1625 C 0.17897 0.4882 0.87976 0.0
C1626 C 0.15642 0.5173 0.88954 0.0
H1627 H 0.2033 0.43793 0.89619 0.0
H1628 H 0.19507 0.48962 0.85504 0.0
S1629 S 0.09859 0.52401 0.97192 0.0
N1630 N 0.12074 0.48537 0.977 0.0
N1631 N 0.11248 0.54103 0.93262 0.0
C1632 C 0.1362 0.51487 0.92186 0.0
C1633 C 0.1408 0.48486 0.94586 0.0
C1634 C 0.28534 0.38453 0.74896 0.0
C1635 C 0.31688 0.38365 0.72738 0.0
C1636 C 0.25137 0.37314 0.73465 0.0
C1637 C 0.24789 0.36053 0.69826 0.0
H1638 H 0.28627 0.3968 0.77597 0.0
H1639 H 0.22742 0.37699 0.75139 0.0
S1640 S 0.32435 0.34422 0.63425 0.0
N1641 N 0.34403 0.36298 0.67067 0.0
N1642 N 0.28033 0.34116 0.64373 0.0
C1643 C 0.28007 0.35553 0.67806 0.0
C1644 C 0.31456 0.36729 0.69262 0.0
C1645 C 0.33623 0.50582 0.50567 0.0
C1646 C 0.33678 0.54031 0.48923 0.0
C1647 C 0.34583 0.47463 0.48566 0.0
C1648 C 0.35664 0.47711 0.44873 0.0
H1649 H 0.32542 0.5025 0.53295 0.0
H1650 H 0.34253 0.44823 0.49861 0.0
S1651 S 0.37121 0.5632 0.39701 0.0
N1652 N 0.35493 0.57648 0.43679 0.0
N1653 N 0.37382 0.51824 0.39929 0.0
C1654 C 0.36145 0.51221 0.43371 0.0
C1655 C 0.35126 0.54375 0.45397 0.0
C1656 C 0.27606 0.19647 0.42045 0.0
C1657 C 0.23813 0.20132 0.42417 0.0
C1658 C 0.29841 0.22333 0.4046 0.0
C1659 C 0.2838 0.25631 0.392 0.0
H1660 H 0.28906 0.17241 0.4313 0.0
H1661 H 0.32765 0.21909 0.40456 0.0
S1662 S 0.18536 0.27954 0.3884 0.0
N1663 N 0.18625 0.23943 0.4088 0.0
N1664 N 0.22837 0.28998 0.37908 0.0
C1665 C 0.24554 0.26015 0.39247 0.0
C1666 C 0.22269 0.23268 0.40854 0.0
C1667 C 0.84321 0.29696 0.5322 0.0
C1668 C 0.80643 0.29624 0.54368 0.0
C1669 C 0.86699 0.26874 0.54131 0.0
C1670 C 0.85455 0.23905 0.56207 0.0
H1671 H 0.85333 0.31858 0.51467 0.0
H1672 H 0.89432 0.26893 0.53004 0.0
S1673 S 0.76284 0.22665 0.60341 0.0
N1674 N 0.76023 0.2652 0.58038 0.0
N1675 N 0.80496 0.21236 0.59755 0.0
C1676 C 0.81883 0.23941 0.57606 0.0
C1677 C 0.79469 0.26798 0.56683 0.0
C1678 C 0.44098 0.02829 0.30364 0.0
C1679 C 0.41087 0.0517 0.30609 0.0
C1680 C 0.47213 0.03378 0.32546 0.0
C1681 C 0.4746 0.06306 0.3505 0.0
H1682 H 0.44131 0.00638 0.28359 0.0
H1683 H 0.49529 0.01629 0.32087 0.0
S1684 S 0.40107 0.12818 0.37256 0.0
N1685 N 0.38372 0.10231 0.33943 0.0
N1686 N 0.44251 0.11263 0.38024 0.0
C1687 C 0.44367 0.08485 0.35543 0.0
C1688 C 0.41179 0.0792 0.33329 0.0
C1689 C 0.7124 0.7174 0.10178 0.0
C1690 C 0.69897 0.6996 0.0704 0.0
C1691 C 0.69117 0.7426 0.12033 0.0
C1692 C 0.65607 0.75174 0.10751 0.0
H1693 H 0.73981 0.71237 0.11175 0.0
H1694 H 0.70336 0.75657 0.14371 0.0
S1695 S 0.60663 0.70889 0.02904 0.0
N1696 N 0.6469 0.68918 0.02961 0.0
N1697 N 0.6073 0.73791 0.06374 0.0
C1698 C 0.64126 0.73213 0.07764 0.0
C1699 C 0.66276 0.70583 0.0591 0.0
C1700 C 0.53287 0.40085 0.31133 0.0
C1701 C 0.54377 0.43441 0.32743 0.0
C1702 C 0.50743 0.37782 0.32858 0.0
C1703 C 0.49246 0.38783 0.36238 0.0
H1704 H 0.541 0.39409 0.28373 0.0
H1705 H 0.49625 0.35466 0.31335 0.0
S1706 S 0.52143 0.46631 0.42079 0.0
N1707 N 0.54467 0.47178 0.38262 0.0
N1708 N 0.497 0.42825 0.41517 0.0
C1709 C 0.50772 0.41808 0.38116 0.0
C1710 C 0.53326 0.44165 0.36352 0.0
C1711 C 0.23027 0.78039 0.93212 0.0
C1712 C 0.21342 0.8133 0.92229 0.0
C1713 C 0.22679 0.74914 0.9099 0.0
C1714 C 0.20636 0.74996 0.87727 0.0
H1715 H 0.2436 0.77778 0.95848 0.0
H1716 H 0.23687 0.72346 0.92022 0.0
S1717 S 0.16568 0.83157 0.83466 0.0
N1718 N 0.18229 0.8466 0.87414 0.0
N1719 N 0.17537 0.78764 0.83277 0.0
C1720 C 0.19343 0.7837 0.86505 0.0
C1721 C 0.19698 0.81547 0.88753 0.0
C1722 C 0.43487 0.93984 0.15176 0.0
C1723 C 0.43693 0.97656 0.16328 0.0
C1724 C 0.46645 0.92013 0.14496 0.0
C1725 C 0.50116 0.93641 0.15004 0.0
H1726 H 0.40868 0.92559 0.14999 0.0
H1727 H 0.46355 0.8913 0.13833 0.0
S1728 S 0.52084 0.03381 0.17362 0.0
N1729 N 0.4758 0.02996 0.17467 0.0
N1730 N 0.53566 0.99296 0.16197 0.0
C1731 C 0.50346 0.97414 0.15824 0.0
C1732 C 0.47114 -0.00572 0.16481 0.0
C1733 C 0.07278 0.07854 0.67316 0.0
C1734 C 0.07507 0.0402 0.67473 0.0
C1735 C 0.0446 0.09526 0.65392 0.0
C1736 C 0.01749 0.07416 0.63594 0.0
H1737 H 0.09198 0.09585 0.68825 0.0
H1738 H 0.04275 0.12478 0.65529 0.0
S1739 S 0.01465 0.97288 0.6268 0.0
N1740 N 0.0507 0.98169 0.65299 0.0
N1741 N -0.00257 0.01307 0.61671 0.0
C1742 C 0.02122 0.03585 0.63476 0.0
C1743 C 0.05013 0.01884 0.65421 0.0
loop_
_geom_bond_atom_site_label_1
_geom_bond_atom_site_label_2
_geom_bond_distance
_geom_bond_site_symmetry_2
_ccdc_geom_bond_type
Co0 O1 2.216 1_655 S
Co0 O2 2.091 . S
Co0 O4 2.004 . S
Co0 O10 2.021 1_655 S
Co0 O12 2.140 . S
Co0 O13 2.244 1_655 S
O1 Co0 2.216 1_455 S
O1 C8 1.247 1_455 S
O2 Co0 2.091 . S
O2 C8 1.261 . S
C3 O12 1.226 1_455 S
C3 O13 1.272 . S
O4 Co0 2.004 . S
O4 C9 1.259 . S
Co5 O6 2.061 . S
Co5 O11 2.052 . S
Co5 O13 2.135 . S
O6 Co5 2.061 . S
O6 C9 1.235 1_455 S
C7 O10 1.238 . S
C7 O11 1.241 . S
C8 O1 1.247 1_655 S
C8 O2 1.261 . S
C9 O4 1.259 . S
C9 O6 1.235 1_655 S
O10 Co0 2.021 1_455 S
O10 C7 1.238 . S
O11 Co5 2.052 . S
O11 C7 1.241 . S
O12 Co0 2.140 . S
O12 C3 1.226 1_655 S
O13 Co0 2.244 1_455 S
O13 C3 1.272 . S
O13 Co5 2.135 . S
Co14 O15 2.216 . S
Co14 O16 2.091 . S
Co14 O18 2.004 1_655 S
Co14 O24 2.021 1_655 S
Co14 O26 2.137 . S
Co14 O27 2.244 . S
O15 Co14 2.216 . S
O15 C22 1.247 . S
O16 Co14 2.091 . S
O16 C22 1.261 . S
C17 O26 1.247 . S
C17 O27 1.272 . S
O18 Co14 2.004 1_455 S
O18 C23 1.259 . S
Co19 O20 2.061 . S
Co19 O25 2.052 . S
Co19 O27 2.135 1_455 S
O20 Co19 2.061 . S
O20 C23 1.235 . S
C21 O24 1.238 . S
C21 O25 1.241 . S
C22 O15 1.247 . S
C22 O16 1.261 . S
C23 O18 1.259 . S
C23 O20 1.235 . S
O24 Co14 2.021 1_455 S
O24 C21 1.238 . S
O25 Co19 2.052 . S
O25 C21 1.241 . S
O26 Co14 2.137 . S
O26 C17 1.247 . S
O27 Co14 2.244 . S
O27 C17 1.272 . S
O27 Co19 2.135 1_655 S
Co28 O29 2.216 . S
Co28 O30 2.091 . S
Co28 O32 2.004 . S
Co28 O38 2.021 . S
Co28 O40 2.137 . S
Co28 O41 2.244 . S
O29 Co28 2.216 . S
O29 C36 1.247 . S
O30 Co28 2.091 . S
O30 C36 1.261 . S
C31 O40 1.247 . S
C31 O41 1.272 . S
O32 Co28 2.004 . S
O32 C37 1.259 . S
Co33 O34 2.061 . S
Co33 O39 2.052 . S
Co33 O41 2.135 . S
O34 Co33 2.061 . S
O34 C37 1.235 . S
C35 O38 1.238 . S
C35 O39 1.241 . S
C36 O29 1.247 . S
C36 O30 1.261 . S
C37 O32 1.259 . S
C37 O34 1.235 . S
O38 Co28 2.021 . S
O38 C35 1.238 . S
O39 Co33 2.052 . S
O39 C35 1.241 . S
O40 Co28 2.137 . S
O40 C31 1.247 . S
O41 Co28 2.244 . S
O41 C31 1.272 . S
O41 Co33 2.135 . S
Co42 O43 2.216 . S
Co42 O44 2.091 . S
Co42 O46 2.004 . S
Co42 O52 2.021 . S
Co42 O54 2.137 . S
Co42 O55 2.244 . S
O43 Co42 2.216 . S
O43 C50 1.247 . S
O44 Co42 2.091 . S
O44 C50 1.261 . S
C45 O54 1.247 . S
C45 O55 1.272 . S
O46 Co42 2.004 . S
O46 C51 1.259 . S
Co47 O48 2.061 . S
Co47 O53 2.052 . S
Co47 O55 2.135 . S
O48 Co47 2.061 . S
O48 C51 1.235 . S
C49 O52 1.238 . S
C49 O53 1.241 . S
C50 O43 1.247 . S
C50 O44 1.261 . S
C51 O46 1.259 . S
C51 O48 1.235 . S
O52 Co42 2.021 . S
O52 C49 1.238 . S
O53 Co47 2.052 . S
O53 C49 1.241 . S
O54 Co42 2.137 . S
O54 C45 1.247 . S
O55 Co42 2.244 . S
O55 C45 1.272 . S
O55 Co47 2.135 . S
Co56 O57 2.216 1_655 S
Co56 O58 2.091 . S
Co56 O60 2.004 . S
Co56 O66 2.021 1_655 S
Co56 O68 2.137 . S
Co56 O69 2.244 1_655 S
O57 Co56 2.216 1_455 S
O57 C64 1.247 1_455 S
O58 Co56 2.091 . S
O58 C64 1.261 . S
C59 O68 1.247 1_455 S
C59 O69 1.272 . S
O60 Co56 2.004 . S
O60 C65 1.259 . S
Co61 O62 2.061 . S
Co61 O67 2.052 . S
Co61 O69 2.135 . S
O62 Co61 2.061 . S
O62 C65 1.235 1_455 S
C63 O66 1.238 . S
C63 O67 1.241 . S
C64 O57 1.247 1_655 S
C64 O58 1.261 . S
C65 O60 1.259 . S
C65 O62 1.235 1_655 S
O66 Co56 2.021 1_455 S
O66 C63 1.238 . S
O67 Co61 2.052 . S
O67 C63 1.241 . S
O68 Co56 2.137 . S
O68 C59 1.247 1_655 S
O69 Co56 2.244 1_455 S
O69 C59 1.272 . S
O69 Co61 2.135 . S
Co70 O71 2.216 . S
Co70 O72 2.091 . S
Co70 O74 2.004 . S
Co70 O80 2.021 . S
Co70 O82 2.137 . S
Co70 O83 2.244 . S
O71 Co70 2.216 . S
O71 C78 1.247 . S
O72 Co70 2.091 . S
O72 C78 1.261 . S
C73 O82 1.247 . S
C73 O83 1.272 . S
O74 Co70 2.004 . S
O74 C79 1.259 . S
Co75 O76 2.061 . S
Co75 O81 2.052 . S
Co75 O83 2.135 . S
O76 Co75 2.061 . S
O76 C79 1.235 . S
C77 O80 1.238 . S
C77 O81 1.241 . S
C78 O71 1.247 . S
C78 O72 1.261 . S
C79 O74 1.259 . S
C79 O76 1.235 . S
O80 Co70 2.021 . S
O80 C77 1.238 . S
O81 Co75 2.052 . S
O81 C77 1.241 . S
O82 Co70 2.137 . S
O82 C73 1.247 . S
O83 Co70 2.244 . S
O83 C73 1.272 . S
O83 Co75 2.135 . S
Co84 O85 2.216 . S
Co84 O86 2.091 . S
Co84 O88 2.004 . S
Co84 O94 2.021 . S
Co84 O96 2.137 . S
Co84 O97 2.244 . S
O85 Co84 2.216 . S
O85 C92 1.247 . S
O86 Co84 2.091 . S
O86 C92 1.261 . S
C87 O96 1.247 . S
C87 O97 1.272 . S
O88 Co84 2.004 . S
O88 C93 1.259 . S
Co89 O90 2.061 . S
Co89 O95 2.052 . S
Co89 O97 2.135 . S
O90 Co89 2.061 . S
O90 C93 1.235 . S
C91 O94 1.238 . S
C91 O95 1.241 . S
C92 O85 1.247 . S
C92 O86 1.261 . S
C93 O88 1.259 . S
C93 O90 1.235 . S
O94 Co84 2.021 . S
O94 C91 1.238 . S
O95 Co89 2.052 . S
O95 C91 1.241 . S
O96 Co84 2.137 . S
O96 C87 1.247 . S
O97 Co84 2.244 . S
O97 C87 1.272 . S
O97 Co89 2.135 . S
Co98 O99 2.216 . S
Co98 O100 2.091 . S
Co98 O102 2.004 1_655 S
Co98 O108 2.021 1_655 S
Co98 O110 2.137 . S
Co98 O111 2.244 . S
O99 Co98 2.216 . S
O99 C106 1.247 . S
O100 Co98 2.091 . S
O100 C106 1.261 . S
C101 O110 1.247 . S
C101 O111 1.272 . S
O102 Co98 2.004 1_455 S
O102 C107 1.259 . S
Co103 O104 2.061 . S
Co103 O109 2.052 . S
Co103 O111 2.135 1_455 S
O104 Co103 2.061 . S
O104 C107 1.235 . S
C105 O108 1.238 . S
C105 O109 1.241 . S
C106 O99 1.247 . S
C106 O100 1.261 . S
C107 O102 1.259 . S
C107 O104 1.235 . S
O108 Co98 2.021 1_455 S
O108 C105 1.238 . S
O109 Co103 2.052 . S
O109 C105 1.241 . S
O110 Co98 2.137 . S
O110 C101 1.247 . S
O111 Co98 2.244 . S
O111 C101 1.272 . S
O111 Co103 2.135 1_655 S
Co112 O113 2.216 1_565 S
Co112 O114 2.091 . S
Co112 O116 2.004 . S
Co112 O122 2.021 1_565 S
Co112 O124 2.141 . S
Co112 O125 2.244 1_565 S
O113 Co112 2.216 1_545 S
O113 C120 1.247 1_545 S
O114 Co112 2.091 . S
O114 C120 1.261 . S
C115 O124 1.221 1_545 S
C115 O125 1.272 . S
O116 Co112 2.004 . S
O116 C121 1.259 . S
Co117 O118 2.061 . S
Co117 O123 2.052 . S
Co117 O125 2.135 . S
O118 Co117 2.061 . S
O118 C121 1.235 1_545 S
C119 O122 1.238 . S
C119 O123 1.241 . S
C120 O113 1.247 1_565 S
C120 O114 1.261 . S
C121 O116 1.259 . S
C121 O118 1.235 1_565 S
O122 Co112 2.021 1_545 S
O122 C119 1.238 . S
O123 Co117 2.052 . S
O123 C119 1.241 . S
O124 Co112 2.141 . S
O124 C115 1.221 1_565 S
O125 Co112 2.244 1_545 S
O125 C115 1.272 . S
O125 Co117 2.135 . S
Co126 O127 2.216 . S
Co126 O128 2.091 . S
Co126 O130 2.004 . S
Co126 O136 2.021 . S
Co126 O138 2.137 . S
Co126 O139 2.244 . S
O127 Co126 2.216 . S
O127 C134 1.247 . S
O128 Co126 2.091 . S
O128 C134 1.261 . S
C129 O138 1.247 . S
C129 O139 1.272 . S
O130 Co126 2.004 . S
O130 C135 1.259 . S
Co131 O132 2.061 . S
Co131 O137 2.052 . S
Co131 O139 2.135 . S
O132 Co131 2.061 . S
O132 C135 1.235 . S
C133 O136 1.238 . S
C133 O137 1.241 . S
C134 O127 1.247 . S
C134 O128 1.261 . S
C135 O130 1.259 . S
C135 O132 1.235 . S
O136 Co126 2.021 . S
O136 C133 1.238 . S
O137 Co131 2.052 . S
O137 C133 1.241 . S
O138 Co126 2.137 . S
O138 C129 1.247 . S
O139 Co126 2.244 . S
O139 C129 1.272 . S
O139 Co131 2.135 . S
Co140 O141 2.216 1_565 S
Co140 O142 2.091 . S
Co140 O144 2.004 . S
Co140 O150 2.021 1_565 S
Co140 O152 2.137 . S
Co140 O153 2.244 1_565 S
O141 Co140 2.216 1_545 S
O141 C148 1.247 1_545 S
O142 Co140 2.091 . S
O142 C148 1.261 . S
C143 O152 1.247 1_545 S
C143 O153 1.272 . S
O144 Co140 2.004 . S
O144 C149 1.259 . S
Co145 O146 2.061 . S
Co145 O151 2.052 . S
Co145 O153 2.135 . S
O146 Co145 2.061 . S
O146 C149 1.235 1_545 S
C147 O150 1.238 . S
C147 O151 1.241 . S
C148 O141 1.247 1_565 S
C148 O142 1.261 . S
C149 O144 1.259 . S
C149 O146 1.235 1_565 S
O150 Co140 2.021 1_545 S
O150 C147 1.238 . S
O151 Co145 2.052 . S
O151 C147 1.241 . S
O152 Co140 2.137 . S
O152 C143 1.247 1_565 S
O153 Co140 2.244 1_545 S
O153 C143 1.272 . S
O153 Co145 2.135 . S
Co154 O155 2.216 . S
Co154 O156 2.091 . S
Co154 O158 2.004 1_554 S
Co154 O164 2.021 1_554 S
Co154 O166 2.137 . S
Co154 O167 2.244 . S
O155 Co154 2.216 . S
O155 C162 1.247 . S
O156 Co154 2.091 . S
O156 C162 1.261 . S
C157 O166 1.247 . S
C157 O167 1.272 . S
O158 Co154 2.004 1_556 S
O158 C163 1.259 . S
Co159 O160 2.061 . S
Co159 O165 2.052 . S
Co159 O167 2.135 1_556 S
O160 Co159 2.061 . S
O160 C163 1.235 . S
C161 O164 1.238 . S
C161 O165 1.241 . S
C162 O155 1.247 . S
C162 O156 1.261 . S
C163 O158 1.259 . S
C163 O160 1.235 . S
O164 Co154 2.021 1_556 S
O164 C161 1.238 . S
O165 Co159 2.052 . S
O165 C161 1.241 . S
O166 Co154 2.137 . S
O166 C157 1.247 . S
O167 Co154 2.244 . S
O167 C157 1.272 . S
O167 Co159 2.135 1_554 S
Co168 O169 2.216 1_556 S
Co168 O170 2.091 . S
Co168 O172 2.004 . S
Co168 O178 2.021 1_556 S
Co168 O180 2.137 . S
Co168 O181 2.244 1_556 S
O169 Co168 2.216 1_554 S
O169 C176 1.247 1_554 S
O170 Co168 2.091 . S
O170 C176 1.261 . S
C171 O180 1.247 1_554 S
C171 O181 1.272 . S
O172 Co168 2.004 . S
O172 C177 1.259 . S
Co173 O174 2.061 . S
Co173 O179 2.052 . S
Co173 O181 2.135 . S
O174 Co173 2.061 . S
O174 C177 1.235 1_554 S
C175 O178 1.238 . S
C175 O179 1.241 . S
C176 O169 1.247 1_556 S
C176 O170 1.261 . S
C177 O172 1.259 . S
C177 O174 1.235 1_556 S
O178 Co168 2.021 1_554 S
O178 C175 1.238 . S
O179 Co173 2.052 . S
O179 C175 1.241 . S
O180 Co168 2.137 . S
O180 C171 1.247 1_556 S
O181 Co168 2.244 1_554 S
O181 C171 1.272 . S
O181 Co173 2.135 . S
Co182 O183 2.216 1_556 S
Co182 O184 2.091 . S
Co182 O186 2.004 . S
Co182 O192 2.021 1_556 S
Co182 O194 2.137 . S
Co182 O195 2.244 1_556 S
O183 Co182 2.216 1_554 S
O183 C190 1.247 1_554 S
O184 Co182 2.091 . S
O184 C190 1.261 . S
C185 O194 1.247 1_554 S
C185 O195 1.272 . S
O186 Co182 2.004 . S
O186 C191 1.259 . S
Co187 O188 2.061 . S
Co187 O193 2.052 . S
Co187 O195 2.135 . S
O188 Co187 2.061 . S
O188 C191 1.235 1_554 S
C189 O192 1.238 . S
C189 O193 1.241 . S
C190 O183 1.247 1_556 S
C190 O184 1.261 . S
C191 O186 1.259 . S
C191 O188 1.235 1_556 S
O192 Co182 2.021 1_554 S
O192 C189 1.238 . S
O193 Co187 2.052 . S
O193 C189 1.241 . S
O194 Co182 2.137 . S
O194 C185 1.247 1_556 S
O195 Co182 2.244 1_554 S
O195 C185 1.272 . S
O195 Co187 2.135 . S
Co196 O197 2.216 . S
Co196 O198 2.091 . S
Co196 O200 2.004 . S
Co196 O206 2.021 . S
Co196 O208 2.137 . S
Co196 O209 2.244 . S
O197 Co196 2.216 . S
O197 C204 1.247 . S
O198 Co196 2.091 . S
O198 C204 1.261 . S
C199 O208 1.247 . S
C199 O209 1.272 . S
O200 Co196 2.004 . S
O200 C205 1.259 . S
Co201 O202 2.061 . S
Co201 O207 2.052 . S
Co201 O209 2.135 . S
O202 Co201 2.061 . S
O202 C205 1.235 . S
C203 O206 1.238 . S
C203 O207 1.241 . S
C204 O197 1.247 . S
C204 O198 1.261 . S
C205 O200 1.259 . S
C205 O202 1.235 . S
O206 Co196 2.021 . S
O206 C203 1.238 . S
O207 Co201 2.052 . S
O207 C203 1.241 . S
O208 Co196 2.137 . S
O208 C199 1.247 . S
O209 Co196 2.244 . S
O209 C199 1.272 . S
O209 Co201 2.135 . S
Co210 O211 2.216 . S
Co210 O212 2.091 . S
Co210 O214 2.004 . S
Co210 O220 2.021 . S
Co210 O222 2.137 . S
Co210 O223 2.244 . S
O211 Co210 2.216 . S
O211 C218 1.247 . S
O212 Co210 2.091 . S
O212 C218 1.261 . S
C213 O222 1.247 . S
C213 O223 1.272 . S
O214 Co210 2.004 . S
O214 C219 1.259 . S
Co215 O216 2.061 . S
Co215 O221 2.052 . S
Co215 O223 2.135 . S
O216 Co215 2.061 . S
O216 C219 1.235 . S
C217 O220 1.238 . S
C217 O221 1.241 . S
C218 O211 1.247 . S
C218 O212 1.261 . S
C219 O214 1.259 . S
C219 O216 1.235 . S
O220 Co210 2.021 . S
O220 C217 1.238 . S
O221 Co215 2.052 . S
O221 C217 1.241 . S
O222 Co210 2.137 . S
O222 C213 1.247 . S
O223 Co210 2.244 . S
O223 C213 1.272 . S
O223 Co215 2.135 . S
Co224 O225 2.216 . S
Co224 O226 2.091 . S
Co224 O228 2.004 1_565 S
Co224 O234 2.021 1_565 S
Co224 O236 2.137 . S
Co224 O237 2.244 . S
O225 Co224 2.216 . S
O225 C232 1.247 . S
O226 Co224 2.091 . S
O226 C232 1.261 . S
C227 O236 1.247 . S
C227 O237 1.272 . S
O228 Co224 2.004 1_545 S
O228 C233 1.259 . S
Co229 O230 2.061 . S
Co229 O235 2.052 . S
Co229 O237 2.135 1_545 S
O230 Co229 2.061 . S
O230 C233 1.235 . S
C231 O234 1.238 . S
C231 O235 1.241 . S
C232 O225 1.247 . S
C232 O226 1.261 . S
C233 O228 1.259 . S
C233 O230 1.235 . S
O234 Co224 2.021 1_545 S
O234 C231 1.238 . S
O235 Co229 2.052 . S
O235 C231 1.241 . S
O236 Co224 2.137 . S
O236 C227 1.247 . S
O237 Co224 2.244 . S
O237 C227 1.272 . S
O237 Co229 2.135 1_565 S
Co238 O239 2.216 . S
Co238 O240 2.091 . S
Co238 O242 2.004 . S
Co238 O248 2.021 . S
Co238 O250 2.137 . S
Co238 O251 2.244 . S
O239 Co238 2.216 . S
O239 C246 1.247 . S
O240 Co238 2.091 . S
O240 C246 1.261 . S
C241 O250 1.247 . S
C241 O251 1.272 . S
O242 Co238 2.004 . S
O242 C247 1.259 . S
Co243 O244 2.061 . S
Co243 O249 2.052 . S
Co243 O251 2.135 . S
O244 Co243 2.061 . S
O244 C247 1.235 . S
C245 O248 1.238 . S
C245 O249 1.241 . S
C246 O239 1.247 . S
C246 O240 1.261 . S
C247 O242 1.259 . S
C247 O244 1.235 . S
O248 Co238 2.021 . S
O248 C245 1.238 . S
O249 Co243 2.052 . S
O249 C245 1.241 . S
O250 Co238 2.137 . S
O250 C241 1.247 . S
O251 Co238 2.244 . S
O251 C241 1.272 . S
O251 Co243 2.135 . S
Co252 O253 2.216 . S
Co252 O254 2.091 . S
Co252 O256 2.004 . S
Co252 O262 2.021 . S
Co252 O264 2.137 . S
Co252 O265 2.244 . S
O253 Co252 2.216 . S
O253 C260 1.247 . S
O254 Co252 2.091 . S
O254 C260 1.261 . S
C255 O264 1.247 . S
C255 O265 1.272 . S
O256 Co252 2.004 . S
O256 C261 1.259 . S
Co257 O258 2.061 . S
Co257 O263 2.052 . S
Co257 O265 2.135 . S
O258 Co257 2.061 . S
O258 C261 1.235 . S
C259 O262 1.238 . S
C259 O263 1.241 . S
C260 O253 1.247 . S
C260 O254 1.261 . S
C261 O256 1.259 . S
C261 O258 1.235 . S
O262 Co252 2.021 . S
O262 C259 1.238 . S
O263 Co257 2.052 . S
O263 C259 1.241 . S
O264 Co252 2.137 . S
O264 C255 1.247 . S
O265 Co252 2.244 . S
O265 C255 1.272 . S
O265 Co257 2.135 . S
Co266 O267 2.216 . S
Co266 O268 2.091 . S
Co266 O270 2.004 1_565 S
Co266 O276 2.021 1_565 S
Co266 O278 2.137 . S
Co266 O279 2.244 . S
O267 Co266 2.216 . S
O267 C274 1.247 . S
O268 Co266 2.091 . S
O268 C274 1.261 . S
C269 O278 1.247 . S
C269 O279 1.272 . S
O270 Co266 2.004 1_545 S
O270 C275 1.259 . S
Co271 O272 2.061 . S
Co271 O277 2.052 . S
Co271 O279 2.135 1_545 S
O272 Co271 2.061 . S
O272 C275 1.235 . S
C273 O276 1.238 . S
C273 O277 1.241 . S
C274 O267 1.247 . S
C274 O268 1.261 . S
C275 O270 1.259 . S
C275 O272 1.235 . S
O276 Co266 2.021 1_545 S
O276 C273 1.238 . S
O277 Co271 2.052 . S
O277 C273 1.241 . S
O278 Co266 2.137 . S
O278 C269 1.247 . S
O279 Co266 2.244 . S
O279 C269 1.272 . S
O279 Co271 2.135 1_565 S
Co280 O281 2.216 . S
Co280 O282 2.091 . S
Co280 O284 2.004 1_554 S
Co280 O290 2.021 1_554 S
Co280 O292 2.137 . S
Co280 O293 2.244 . S
O281 Co280 2.216 . S
O281 C288 1.247 . S
O282 Co280 2.091 . S
O282 C288 1.261 . S
C283 O292 1.247 . S
C283 O293 1.272 . S
O284 Co280 2.004 1_556 S
O284 C289 1.259 . S
Co285 O286 2.061 . S
Co285 O291 2.052 . S
Co285 O293 2.135 1_556 S
O286 Co285 2.061 . S
O286 C289 1.235 . S
C287 O290 1.238 . S
C287 O291 1.241 . S
C288 O281 1.247 . S
C288 O282 1.261 . S
C289 O284 1.259 . S
C289 O286 1.235 . S
O290 Co280 2.021 1_556 S
O290 C287 1.238 . S
O291 Co285 2.052 . S
O291 C287 1.241 . S
O292 Co280 2.137 . S
O292 C283 1.247 . S
O293 Co280 2.244 . S
O293 C283 1.272 . S
O293 Co285 2.135 1_554 S
Co294 O295 2.216 . S
Co294 O296 2.091 . S
Co294 O298 2.004 . S
Co294 O304 2.021 . S
Co294 O306 2.137 . S
Co294 O307 2.244 . S
O295 Co294 2.216 . S
O295 C302 1.247 . S
O296 Co294 2.091 . S
O296 C302 1.261 . S
C297 O306 1.247 . S
C297 O307 1.272 . S
O298 Co294 2.004 . S
O298 C303 1.259 . S
Co299 O300 2.061 . S
Co299 O305 2.052 . S
Co299 O307 2.135 . S
O300 Co299 2.061 . S
O300 C303 1.235 . S
C301 O304 1.238 . S
C301 O305 1.241 . S
C302 O295 1.247 . S
C302 O296 1.261 . S
C303 O298 1.259 . S
C303 O300 1.235 . S
O304 Co294 2.021 . S
O304 C301 1.238 . S
O305 Co299 2.052 . S
O305 C301 1.241 . S
O306 Co294 2.137 . S
O306 C297 1.247 . S
O307 Co294 2.244 . S
O307 C297 1.272 . S
O307 Co299 2.135 . S
Co308 O309 2.216 . S
Co308 O310 2.091 . S
Co308 O312 2.004 . S
Co308 O318 2.021 . S
Co308 O320 2.137 . S
Co308 O321 2.244 . S
O309 Co308 2.216 . S
O309 C316 1.247 . S
O310 Co308 2.091 . S
O310 C316 1.261 . S
C311 O320 1.247 . S
C311 O321 1.272 . S
O312 Co308 2.004 . S
O312 C317 1.259 . S
Co313 O314 2.061 . S
Co313 O319 2.052 . S
Co313 O321 2.135 . S
O314 Co313 2.061 . S
O314 C317 1.235 . S
C315 O318 1.238 . S
C315 O319 1.241 . S
C316 O309 1.247 . S
C316 O310 1.261 . S
C317 O312 1.259 . S
C317 O314 1.235 . S
O318 Co308 2.021 . S
O318 C315 1.238 . S
O319 Co313 2.052 . S
O319 C315 1.241 . S
O320 Co308 2.137 . S
O320 C311 1.247 . S
O321 Co308 2.244 . S
O321 C311 1.272 . S
O321 Co313 2.135 . S
Co322 O323 2.216 . S
Co322 O324 2.091 . S
Co322 O326 2.004 . S
Co322 O332 2.021 . S
Co322 O334 2.137 . S
Co322 O335 2.244 . S
O323 Co322 2.216 . S
O323 C330 1.247 . S
O324 Co322 2.091 . S
O324 C330 1.261 . S
C325 O334 1.247 . S
C325 O335 1.272 . S
O326 Co322 2.004 . S
O326 C331 1.259 . S
Co327 O328 2.061 . S
Co327 O333 2.052 . S
Co327 O335 2.135 . S
O328 Co327 2.061 . S
O328 C331 1.235 . S
C329 O332 1.238 . S
C329 O333 1.241 . S
C330 O323 1.247 . S
C330 O324 1.261 . S
C331 O326 1.259 . S
C331 O328 1.235 . S
O332 Co322 2.021 . S
O332 C329 1.238 . S
O333 Co327 2.052 . S
O333 C329 1.241 . S
O334 Co322 2.137 . S
O334 C325 1.247 . S
O335 Co322 2.244 . S
O335 C325 1.272 . S
O335 Co327 2.135 . S
Sc336 O339 2.025 . S
Sc336 O346 2.105 . S
Sc336 O349 2.105 . S
Sc336 O352 2.105 . S
Sc336 O355 2.105 . S
Sc337 O339 2.025 . S
Sc337 O347 2.105 . S
Sc337 O351 2.105 . S
Sc337 O353 2.105 . S
Sc337 O357 2.105 . S
Sc338 O339 2.025 . S
Sc338 O348 2.105 . S
Sc338 O350 2.105 . S
Sc338 O354 2.105 . S
Sc338 O356 2.105 . S
O339 Sc336 2.025 . S
O339 Sc337 2.025 . S
O339 Sc338 2.025 . S
C340 O346 1.268 . S
C340 O356 1.268 . S
C341 O347 1.268 . S
C341 O355 1.268 . S
C342 O348 1.268 . S
C342 O357 1.268 . S
C343 O349 1.268 . S
C343 O353 1.268 . S
C344 O350 1.268 . S
C344 O352 1.268 . S
C345 O351 1.268 . S
C345 O354 1.268 . S
O346 Sc336 2.105 . S
O346 C340 1.268 . S
O347 Sc337 2.105 . S
O347 C341 1.268 . S
O348 Sc338 2.105 . S
O348 C342 1.268 . S
O349 Sc336 2.105 . S
O349 C343 1.268 . S
O350 Sc338 2.105 . S
O350 C344 1.268 . S
O351 Sc337 2.105 . S
O351 C345 1.268 . S
O352 Sc336 2.105 . S
O352 C344 1.268 . S
O353 Sc337 2.105 . S
O353 C343 1.268 . S
O354 Sc338 2.105 . S
O354 C345 1.268 . S
O355 Sc336 2.105 . S
O355 C341 1.268 . S
O356 Sc338 2.105 . S
O356 C340 1.268 . S
O357 Sc337 2.105 . S
O357 C342 1.268 . S
Sc358 O361 2.025 . S
Sc358 O368 2.105 . S
Sc358 O371 2.105 . S
Sc358 O374 2.105 . S
Sc358 O377 2.105 . S
Sc359 O361 2.025 . S
Sc359 O369 2.105 . S
Sc359 O373 2.105 . S
Sc359 O375 2.105 . S
Sc359 O379 2.105 . S
Sc360 O361 2.025 . S
Sc360 O370 2.105 . S
Sc360 O372 2.105 . S
Sc360 O376 2.105 . S
Sc360 O378 2.105 . S
O361 Sc358 2.025 . S
O361 Sc359 2.025 . S
O361 Sc360 2.025 . S
C362 O368 1.268 . S
C362 O378 1.268 . S
C363 O369 1.268 . S
C363 O377 1.268 . S
C364 O370 1.268 . S
C364 O379 1.268 . S
C365 O371 1.268 . S
C365 O375 1.268 . S
C366 O372 1.268 . S
C366 O374 1.268 . S
C367 O373 1.268 . S
C367 O376 1.268 . S
O368 Sc358 2.105 . S
O368 C362 1.268 . S
O369 Sc359 2.105 . S
O369 C363 1.268 . S
O370 Sc360 2.105 . S
O370 C364 1.268 . S
O371 Sc358 2.105 . S
O371 C365 1.268 . S
O372 Sc360 2.105 . S
O372 C366 1.268 . S
O373 Sc359 2.105 . S
O373 C367 1.268 . S
O374 Sc358 2.105 . S
O374 C366 1.268 . S
O375 Sc359 2.105 . S
O375 C365 1.268 . S
O376 Sc360 2.105 . S
O376 C367 1.268 . S
O377 Sc358 2.105 . S
O377 C363 1.268 . S
O378 Sc360 2.105 . S
O378 C362 1.268 . S
O379 Sc359 2.105 . S
O379 C364 1.268 . S
Sc380 O383 2.025 . S
Sc380 O390 2.105 . S
Sc380 O393 2.105 . S
Sc380 O396 2.105 . S
Sc380 O399 2.105 . S
Sc381 O383 2.025 . S
Sc381 O391 2.105 . S
Sc381 O395 2.105 . S
Sc381 O397 2.105 . S
Sc381 O401 2.105 . S
Sc382 O383 2.025 . S
Sc382 O392 2.105 . S
Sc382 O394 2.105 . S
Sc382 O398 2.105 . S
Sc382 O400 2.105 . S
O383 Sc380 2.025 . S
O383 Sc381 2.025 . S
O383 Sc382 2.025 . S
C384 O390 1.268 . S
C384 O400 1.268 . S
C385 O391 1.268 . S
C385 O399 1.268 . S
C386 O392 1.268 . S
C386 O401 1.268 . S
C387 O393 1.268 . S
C387 O397 1.268 . S
C388 O394 1.268 . S
C388 O396 1.268 . S
C389 O395 1.268 . S
C389 O398 1.268 . S
O390 Sc380 2.105 . S
O390 C384 1.268 . S
O391 Sc381 2.105 . S
O391 C385 1.268 . S
O392 Sc382 2.105 . S
O392 C386 1.268 . S
O393 Sc380 2.105 . S
O393 C387 1.268 . S
O394 Sc382 2.105 . S
O394 C388 1.268 . S
O395 Sc381 2.105 . S
O395 C389 1.268 . S
O396 Sc380 2.105 . S
O396 C388 1.268 . S
O397 Sc381 2.105 . S
O397 C387 1.268 . S
O398 Sc382 2.105 . S
O398 C389 1.268 . S
O399 Sc380 2.105 . S
O399 C385 1.268 . S
O400 Sc382 2.105 . S
O400 C384 1.268 . S
O401 Sc381 2.105 . S
O401 C386 1.268 . S
Sc402 O405 2.025 . S
Sc402 O412 2.105 . S
Sc402 O415 2.105 . S
Sc402 O418 2.105 . S
Sc402 O421 2.105 . S
Sc403 O405 2.025 . S
Sc403 O413 2.105 . S
Sc403 O417 2.105 . S
Sc403 O419 2.105 . S
Sc403 O423 2.105 . S
Sc404 O405 2.025 . S
Sc404 O414 2.105 . S
Sc404 O416 2.105 . S
Sc404 O420 2.105 . S
Sc404 O422 2.105 . S
O405 Sc402 2.025 . S
O405 Sc403 2.025 . S
O405 Sc404 2.025 . S
C406 O412 1.268 . S
C406 O422 1.268 . S
C407 O413 1.268 . S
C407 O421 1.268 . S
C408 O414 1.268 . S
C408 O423 1.268 . S
C409 O415 1.268 . S
C409 O419 1.268 . S
C410 O416 1.268 . S
C410 O418 1.268 . S
C411 O417 1.268 . S
C411 O420 1.268 . S
O412 Sc402 2.105 . S
O412 C406 1.268 . S
O413 Sc403 2.105 . S
O413 C407 1.268 . S
O414 Sc404 2.105 . S
O414 C408 1.268 . S
O415 Sc402 2.105 . S
O415 C409 1.268 . S
O416 Sc404 2.105 . S
O416 C410 1.268 . S
O417 Sc403 2.105 . S
O417 C411 1.268 . S
O418 Sc402 2.105 . S
O418 C410 1.268 . S
O419 Sc403 2.105 . S
O419 C409 1.268 . S
O420 Sc404 2.105 . S
O420 C411 1.268 . S
O421 Sc402 2.105 . S
O421 C407 1.268 . S
O422 Sc404 2.105 . S
O422 C406 1.268 . S
O423 Sc403 2.105 . S
O423 C408 1.268 . S
Sc424 O427 2.025 . S
Sc424 O434 2.105 . S
Sc424 O437 2.105 . S
Sc424 O440 2.105 . S
Sc424 O443 2.105 . S
Sc425 O427 2.025 . S
Sc425 O435 2.105 . S
Sc425 O439 2.105 . S
Sc425 O441 2.105 . S
Sc425 O445 2.105 . S
Sc426 O427 2.025 . S
Sc426 O436 2.105 . S
Sc426 O438 2.105 . S
Sc426 O442 2.105 . S
Sc426 O444 2.105 . S
O427 Sc424 2.025 . S
O427 Sc425 2.025 . S
O427 Sc426 2.025 . S
C428 O434 1.268 . S
C428 O444 1.268 . S
C429 O435 1.268 . S
C429 O443 1.268 . S
C430 O436 1.268 . S
C430 O445 1.268 . S
C431 O437 1.268 . S
C431 O441 1.268 . S
C432 O438 1.268 . S
C432 O440 1.268 . S
C433 O439 1.268 . S
C433 O442 1.268 . S
O434 Sc424 2.105 . S
O434 C428 1.268 . S
O435 Sc425 2.105 . S
O435 C429 1.268 . S
O436 Sc426 2.105 . S
O436 C430 1.268 . S
O437 Sc424 2.105 . S
O437 C431 1.268 . S
O438 Sc426 2.105 . S
O438 C432 1.268 . S
O439 Sc425 2.105 . S
O439 C433 1.268 . S
O440 Sc424 2.105 . S
O440 C432 1.268 . S
O441 Sc425 2.105 . S
O441 C431 1.268 . S
O442 Sc426 2.105 . S
O442 C433 1.268 . S
O443 Sc424 2.105 . S
O443 C429 1.268 . S
O444 Sc426 2.105 . S
O444 C428 1.268 . S
O445 Sc425 2.105 . S
O445 C430 1.268 . S
Sc446 O449 2.025 . S
Sc446 O456 2.105 . S
Sc446 O459 2.105 . S
Sc446 O462 2.105 . S
Sc446 O465 2.105 . S
Sc447 O449 2.025 . S
Sc447 O457 2.105 . S
Sc447 O461 2.105 . S
Sc447 O463 2.105 . S
Sc447 O467 2.105 . S
Sc448 O449 2.025 . S
Sc448 O458 2.105 . S
Sc448 O460 2.105 . S
Sc448 O464 2.105 . S
Sc448 O466 2.105 . S
O449 Sc446 2.025 . S
O449 Sc447 2.025 . S
O449 Sc448 2.025 . S
C450 O456 1.268 . S
C450 O466 1.268 . S
C451 O457 1.268 . S
C451 O465 1.268 . S
C452 O458 1.268 . S
C452 O467 1.268 . S
C453 O459 1.268 . S
C453 O463 1.268 . S
C454 O460 1.268 . S
C454 O462 1.268 . S
C455 O461 1.268 . S
C455 O464 1.268 . S
O456 Sc446 2.105 . S
O456 C450 1.268 . S
O457 Sc447 2.105 . S
O457 C451 1.268 . S
O458 Sc448 2.105 . S
O458 C452 1.268 . S
O459 Sc446 2.105 . S
O459 C453 1.268 . S
O460 Sc448 2.105 . S
O460 C454 1.268 . S
O461 Sc447 2.105 . S
O461 C455 1.268 . S
O462 Sc446 2.105 . S
O462 C454 1.268 . S
O463 Sc447 2.105 . S
O463 C453 1.268 . S
O464 Sc448 2.105 . S
O464 C455 1.268 . S
O465 Sc446 2.105 . S
O465 C451 1.268 . S
O466 Sc448 2.105 . S
O466 C450 1.268 . S
O467 Sc447 2.105 . S
O467 C452 1.268 . S
Sc468 O471 2.025 . S
Sc468 O478 2.105 . S
Sc468 O481 2.105 . S
Sc468 O484 2.105 . S
Sc468 O487 2.105 . S
Sc469 O471 2.025 . S
Sc469 O479 2.105 . S
Sc469 O483 2.105 . S
Sc469 O485 2.105 . S
Sc469 O489 2.105 . S
Sc470 O471 2.025 . S
Sc470 O480 2.105 . S
Sc470 O482 2.105 . S
Sc470 O486 2.105 . S
Sc470 O488 2.105 . S
O471 Sc468 2.025 . S
O471 Sc469 2.025 . S
O471 Sc470 2.025 . S
C472 O478 1.268 . S
C472 O488 1.268 . S
C473 O479 1.268 . S
C473 O487 1.268 . S
C474 O480 1.268 . S
C474 O489 1.268 . S
C475 O481 1.268 . S
C475 O485 1.268 . S
C476 O482 1.268 . S
C476 O484 1.268 . S
C477 O483 1.268 . S
C477 O486 1.268 . S
O478 Sc468 2.105 . S
O478 C472 1.268 . S
O479 Sc469 2.105 . S
O479 C473 1.268 . S
O480 Sc470 2.105 . S
O480 C474 1.268 . S
O481 Sc468 2.105 . S
O481 C475 1.268 . S
O482 Sc470 2.105 . S
O482 C476 1.268 . S
O483 Sc469 2.105 . S
O483 C477 1.268 . S
O484 Sc468 2.105 . S
O484 C476 1.268 . S
O485 Sc469 2.105 . S
O485 C475 1.268 . S
O486 Sc470 2.105 . S
O486 C477 1.268 . S
O487 Sc468 2.105 . S
O487 C473 1.268 . S
O488 Sc470 2.105 . S
O488 C472 1.268 . S
O489 Sc469 2.105 . S
O489 C474 1.268 . S
Sc490 O493 2.025 . S
Sc490 O500 2.105 . S
Sc490 O503 2.105 . S
Sc490 O506 2.105 . S
Sc490 O509 2.105 . S
Sc491 O493 2.025 . S
Sc491 O501 2.105 . S
Sc491 O505 2.105 . S
Sc491 O507 2.105 . S
Sc491 O511 2.105 . S
Sc492 O493 2.025 . S
Sc492 O502 2.105 . S
Sc492 O504 2.105 . S
Sc492 O508 2.105 . S
Sc492 O510 2.105 . S
O493 Sc490 2.025 . S
O493 Sc491 2.025 . S
O493 Sc492 2.025 . S
C494 O500 1.268 . S
C494 O510 1.268 . S
C495 O501 1.268 . S
C495 O509 1.268 . S
C496 O502 1.268 . S
C496 O511 1.268 . S
C497 O503 1.268 . S
C497 O507 1.268 . S
C498 O504 1.268 . S
C498 O506 1.268 . S
C499 O505 1.268 . S
C499 O508 1.268 . S
O500 Sc490 2.105 . S
O500 C494 1.268 . S
O501 Sc491 2.105 . S
O501 C495 1.268 . S
O502 Sc492 2.105 . S
O502 C496 1.268 . S
O503 Sc490 2.105 . S
O503 C497 1.268 . S
O504 Sc492 2.105 . S
O504 C498 1.268 . S
O505 Sc491 2.105 . S
O505 C499 1.268 . S
O506 Sc490 2.105 . S
O506 C498 1.268 . S
O507 Sc491 2.105 . S
O507 C497 1.268 . S
O508 Sc492 2.105 . S
O508 C499 1.268 . S
O509 Sc490 2.105 . S
O509 C495 1.268 . S
O510 Sc492 2.105 . S
O510 C494 1.268 . S
O511 Sc491 2.105 . S
O511 C496 1.268 . S
Sc512 O515 2.025 . S
Sc512 O522 2.105 . S
Sc512 O525 2.105 . S
Sc512 O528 2.105 . S
Sc512 O531 2.105 . S
Sc513 O515 2.025 . S
Sc513 O523 2.105 . S
Sc513 O527 2.105 . S
Sc513 O529 2.105 . S
Sc513 O533 2.105 . S
Sc514 O515 2.025 . S
Sc514 O524 2.105 . S
Sc514 O526 2.105 . S
Sc514 O530 2.105 . S
Sc514 O532 2.105 . S
O515 Sc512 2.025 . S
O515 Sc513 2.025 . S
O515 Sc514 2.025 . S
C516 O522 1.268 . S
C516 O532 1.268 . S
C517 O523 1.268 . S
C517 O531 1.268 . S
C518 O524 1.268 . S
C518 O533 1.268 . S
C519 O525 1.268 . S
C519 O529 1.268 . S
C520 O526 1.268 . S
C520 O528 1.268 . S
C521 O527 1.268 . S
C521 O530 1.268 . S
O522 Sc512 2.105 . S
O522 C516 1.268 . S
O523 Sc513 2.105 . S
O523 C517 1.268 . S
O524 Sc514 2.105 . S
O524 C518 1.268 . S
O525 Sc512 2.105 . S
O525 C519 1.268 . S
O526 Sc514 2.105 . S
O526 C520 1.268 . S
O527 Sc513 2.105 . S
O527 C521 1.268 . S
O528 Sc512 2.105 . S
O528 C520 1.268 . S
O529 Sc513 2.105 . S
O529 C519 1.268 . S
O530 Sc514 2.105 . S
O530 C521 1.268 . S
O531 Sc512 2.105 . S
O531 C517 1.268 . S
O532 Sc514 2.105 . S
O532 C516 1.268 . S
O533 Sc513 2.105 . S
O533 C518 1.268 . S
Sc534 O537 2.025 . S
Sc534 O544 2.105 . S
Sc534 O547 2.105 . S
Sc534 O550 2.105 . S
Sc534 O553 2.105 . S
Sc535 O537 2.025 . S
Sc535 O545 2.105 . S
Sc535 O549 2.105 . S
Sc535 O551 2.105 . S
Sc535 O555 2.105 . S
Sc536 O537 2.025 . S
Sc536 O546 2.105 . S
Sc536 O548 2.105 . S
Sc536 O552 2.105 . S
Sc536 O554 2.105 . S
O537 Sc534 2.025 . S
O537 Sc535 2.025 . S
O537 Sc536 2.025 . S
C538 O544 1.268 . S
C538 O554 1.268 . S
C539 O545 1.268 . S
C539 O553 1.268 . S
C540 O546 1.268 . S
C540 O555 1.268 . S
C541 O547 1.268 . S
C541 O551 1.268 . S
C542 O548 1.268 . S
C542 O550 1.268 . S
C543 O549 1.268 . S
C543 O552 1.268 . S
O544 Sc534 2.105 . S
O544 C538 1.268 . S
O545 Sc535 2.105 . S
O545 C539 1.268 . S
O546 Sc536 2.105 . S
O546 C540 1.268 . S
O547 Sc534 2.105 . S
O547 C541 1.268 . S
O548 Sc536 2.105 . S
O548 C542 1.268 . S
O549 Sc535 2.105 . S
O549 C543 1.268 . S
O550 Sc534 2.105 . S
O550 C542 1.268 . S
O551 Sc535 2.105 . S
O551 C541 1.268 . S
O552 Sc536 2.105 . S
O552 C543 1.268 . S
O553 Sc534 2.105 . S
O553 C539 1.268 . S
O554 Sc536 2.105 . S
O554 C538 1.268 . S
O555 Sc535 2.105 . S
O555 C540 1.268 . S
Sc556 O559 2.025 . S
Sc556 O566 2.105 . S
Sc556 O569 2.105 . S
Sc556 O572 2.105 . S
Sc556 O575 2.105 . S
Sc557 O559 2.025 . S
Sc557 O567 2.105 . S
Sc557 O571 2.105 . S
Sc557 O573 2.105 . S
Sc557 O577 2.105 . S
Sc558 O559 2.025 . S
Sc558 O568 2.105 . S
Sc558 O570 2.105 . S
Sc558 O574 2.105 . S
Sc558 O576 2.105 . S
O559 Sc556 2.025 . S
O559 Sc557 2.025 . S
O559 Sc558 2.025 . S
C560 O566 1.268 . S
C560 O576 1.268 . S
C561 O567 1.268 . S
C561 O575 1.268 . S
C562 O568 1.268 . S
C562 O577 1.268 . S
C563 O569 1.268 . S
C563 O573 1.268 . S
C564 O570 1.268 . S
C564 O572 1.268 . S
C565 O571 1.268 . S
C565 O574 1.268 . S
O566 Sc556 2.105 . S
O566 C560 1.268 . S
O567 Sc557 2.105 . S
O567 C561 1.268 . S
O568 Sc558 2.105 . S
O568 C562 1.268 . S
O569 Sc556 2.105 . S
O569 C563 1.268 . S
O570 Sc558 2.105 . S
O570 C564 1.268 . S
O571 Sc557 2.105 . S
O571 C565 1.268 . S
O572 Sc556 2.105 . S
O572 C564 1.268 . S
O573 Sc557 2.105 . S
O573 C563 1.268 . S
O574 Sc558 2.105 . S
O574 C565 1.268 . S
O575 Sc556 2.105 . S
O575 C561 1.268 . S
O576 Sc558 2.105 . S
O576 C560 1.268 . S
O577 Sc557 2.105 . S
O577 C562 1.268 . S
Sc578 O581 2.025 . S
Sc578 O588 2.105 . S
Sc578 O591 2.105 . S
Sc578 O594 2.105 . S
Sc578 O597 2.105 . S
Sc579 O581 2.025 . S
Sc579 O589 2.105 . S
Sc579 O593 2.105 . S
Sc579 O595 2.105 . S
Sc579 O599 2.105 . S
Sc580 O581 2.025 . S
Sc580 O590 2.105 . S
Sc580 O592 2.105 . S
Sc580 O596 2.105 . S
Sc580 O598 2.105 . S
O581 Sc578 2.025 . S
O581 Sc579 2.025 . S
O581 Sc580 2.025 . S
C582 O588 1.268 . S
C582 O598 1.268 . S
C583 O589 1.268 . S
C583 O597 1.268 . S
C584 O590 1.268 . S
C584 O599 1.268 . S
C585 O591 1.268 . S
C585 O595 1.268 . S
C586 O592 1.268 . S
C586 O594 1.268 . S
C587 O593 1.268 . S
C587 O596 1.268 . S
O588 Sc578 2.105 . S
O588 C582 1.268 . S
O589 Sc579 2.105 . S
O589 C583 1.268 . S
O590 Sc580 2.105 . S
O590 C584 1.268 . S
O591 Sc578 2.105 . S
O591 C585 1.268 . S
O592 Sc580 2.105 . S
O592 C586 1.268 . S
O593 Sc579 2.105 . S
O593 C587 1.268 . S
O594 Sc578 2.105 . S
O594 C586 1.268 . S
O595 Sc579 2.105 . S
O595 C585 1.268 . S
O596 Sc580 2.105 . S
O596 C587 1.268 . S
O597 Sc578 2.105 . S
O597 C583 1.268 . S
O598 Sc580 2.105 . S
O598 C582 1.268 . S
O599 Sc579 2.105 . S
O599 C584 1.268 . S
Sc600 O603 2.025 . S
Sc600 O610 2.105 . S
Sc600 O613 2.105 . S
Sc600 O616 2.105 . S
Sc600 O619 2.105 . S
Sc601 O603 2.025 . S
Sc601 O611 2.105 . S
Sc601 O615 2.105 . S
Sc601 O617 2.105 . S
Sc601 O621 2.105 . S
Sc602 O603 2.025 . S
Sc602 O612 2.105 . S
Sc602 O614 2.105 . S
Sc602 O618 2.105 . S
Sc602 O620 2.105 . S
O603 Sc600 2.025 . S
O603 Sc601 2.025 . S
O603 Sc602 2.025 . S
C604 O610 1.268 . S
C604 O620 1.268 . S
C605 O611 1.268 . S
C605 O619 1.268 . S
C606 O612 1.268 . S
C606 O621 1.268 . S
C607 O613 1.268 . S
C607 O617 1.268 . S
C608 O614 1.268 . S
C608 O616 1.268 . S
C609 O615 1.268 . S
C609 O618 1.268 . S
O610 Sc600 2.105 . S
O610 C604 1.268 . S
O611 Sc601 2.105 . S
O611 C605 1.268 . S
O612 Sc602 2.105 . S
O612 C606 1.268 . S
O613 Sc600 2.105 . S
O613 C607 1.268 . S
O614 Sc602 2.105 . S
O614 C608 1.268 . S
O615 Sc601 2.105 . S
O615 C609 1.268 . S
O616 Sc600 2.105 . S
O616 C608 1.268 . S
O617 Sc601 2.105 . S
O617 C607 1.268 . S
O618 Sc602 2.105 . S
O618 C609 1.268 . S
O619 Sc600 2.105 . S
O619 C605 1.268 . S
O620 Sc602 2.105 . S
O620 C604 1.268 . S
O621 Sc601 2.105 . S
O621 C606 1.268 . S
Sc622 O625 2.025 . S
Sc622 O632 2.105 . S
Sc622 O635 2.105 . S
Sc622 O638 2.105 . S
Sc622 O641 2.105 . S
Sc623 O625 2.025 . S
Sc623 O633 2.105 . S
Sc623 O637 2.105 . S
Sc623 O639 2.105 . S
Sc623 O643 2.105 . S
Sc624 O625 2.025 . S
Sc624 O634 2.105 . S
Sc624 O636 2.105 . S
Sc624 O640 2.105 . S
Sc624 O642 2.105 . S
O625 Sc622 2.025 . S
O625 Sc623 2.025 . S
O625 Sc624 2.025 . S
C626 O632 1.268 . S
C626 O642 1.268 . S
C627 O633 1.268 . S
C627 O641 1.268 . S
C628 O634 1.268 . S
C628 O643 1.268 . S
C629 O635 1.268 . S
C629 O639 1.268 . S
C630 O636 1.268 . S
C630 O638 1.268 . S
C631 O637 1.268 . S
C631 O640 1.268 . S
O632 Sc622 2.105 . S
O632 C626 1.268 . S
O633 Sc623 2.105 . S
O633 C627 1.268 . S
O634 Sc624 2.105 . S
O634 C628 1.268 . S
O635 Sc622 2.105 . S
O635 C629 1.268 . S
O636 Sc624 2.105 . S
O636 C630 1.268 . S
O637 Sc623 2.105 . S
O637 C631 1.268 . S
O638 Sc622 2.105 . S
O638 C630 1.268 . S
O639 Sc623 2.105 . S
O639 C629 1.268 . S
O640 Sc624 2.105 . S
O640 C631 1.268 . S
O641 Sc622 2.105 . S
O641 C627 1.268 . S
O642 Sc624 2.105 . S
O642 C626 1.268 . S
O643 Sc623 2.105 . S
O643 C628 1.268 . S
Sc644 O647 2.025 . S
Sc644 O654 2.105 . S
Sc644 O657 2.105 . S
Sc644 O660 2.105 . S
Sc644 O663 2.105 . S
Sc645 O647 2.025 . S
Sc645 O655 2.105 . S
Sc645 O659 2.105 . S
Sc645 O661 2.105 . S
Sc645 O665 2.105 . S
Sc646 O647 2.025 . S
Sc646 O656 2.105 . S
Sc646 O658 2.105 . S
Sc646 O662 2.105 . S
Sc646 O664 2.105 . S
O647 Sc644 2.025 . S
O647 Sc645 2.025 . S
O647 Sc646 2.025 . S
C648 O654 1.268 . S
C648 O664 1.268 . S
C649 O655 1.268 . S
C649 O663 1.268 . S
C650 O656 1.268 . S
C650 O665 1.268 . S
C651 O657 1.268 . S
C651 O661 1.268 . S
C652 O658 1.268 . S
C652 O660 1.268 . S
C653 O659 1.268 . S
C653 O662 1.268 . S
O654 Sc644 2.105 . S
O654 C648 1.268 . S
O655 Sc645 2.105 . S
O655 C649 1.268 . S
O656 Sc646 2.105 . S
O656 C650 1.268 . S
O657 Sc644 2.105 . S
O657 C651 1.268 . S
O658 Sc646 2.105 . S
O658 C652 1.268 . S
O659 Sc645 2.105 . S
O659 C653 1.268 . S
O660 Sc644 2.105 . S
O660 C652 1.268 . S
O661 Sc645 2.105 . S
O661 C651 1.268 . S
O662 Sc646 2.105 . S
O662 C653 1.268 . S
O663 Sc644 2.105 . S
O663 C649 1.268 . S
O664 Sc646 2.105 . S
O664 C648 1.268 . S
O665 Sc645 2.105 . S
O665 C650 1.268 . S
Sc666 O669 2.025 . S
Sc666 O676 2.105 . S
Sc666 O679 2.105 . S
Sc666 O682 2.105 . S
Sc666 O685 2.105 . S
Sc667 O669 2.025 . S
Sc667 O677 2.105 . S
Sc667 O681 2.105 . S
Sc667 O683 2.105 . S
Sc667 O687 2.105 . S
Sc668 O669 2.025 . S
Sc668 O678 2.105 . S
Sc668 O680 2.105 . S
Sc668 O684 2.105 . S
Sc668 O686 2.105 . S
O669 Sc666 2.025 . S
O669 Sc667 2.025 . S
O669 Sc668 2.025 . S
C670 O676 1.268 . S
C670 O686 1.268 . S
C671 O677 1.268 . S
C671 O685 1.268 . S
C672 O678 1.268 . S
C672 O687 1.268 . S
C673 O679 1.268 . S
C673 O683 1.268 . S
C674 O680 1.268 . S
C674 O682 1.268 . S
C675 O681 1.268 . S
C675 O684 1.268 . S
O676 Sc666 2.105 . S
O676 C670 1.268 . S
O677 Sc667 2.105 . S
O677 C671 1.268 . S
O678 Sc668 2.105 . S
O678 C672 1.268 . S
O679 Sc666 2.105 . S
O679 C673 1.268 . S
O680 Sc668 2.105 . S
O680 C674 1.268 . S
O681 Sc667 2.105 . S
O681 C675 1.268 . S
O682 Sc666 2.105 . S
O682 C674 1.268 . S
O683 Sc667 2.105 . S
O683 C673 1.268 . S
O684 Sc668 2.105 . S
O684 C675 1.268 . S
O685 Sc666 2.105 . S
O685 C671 1.268 . S
O686 Sc668 2.105 . S
O686 C670 1.268 . S
O687 Sc667 2.105 . S
O687 C672 1.268 . S
C688 C689 1.369 . S
C688 C690 1.419 . S
C688 H692 0.930 . S
C689 C688 1.369 . S
C689 C698 1.429 . S
C690 C688 1.419 . S
C690 C691 1.363 . S
C690 H693 0.929 . S
C691 C690 1.363 . S
C691 C697 1.428 . S
H692 C688 0.930 . S
H693 C690 0.929 . S
S694 N695 1.613 . S
S694 N696 1.610 . S
N695 S694 1.613 . S
N695 C698 1.350 . S
N696 S694 1.610 . S
N696 C697 1.351 . S
C697 C691 1.428 . S
C697 N696 1.351 . S
C697 C698 1.434 . S
C698 C689 1.429 . S
C698 N695 1.350 . S
C698 C697 1.434 . S
C699 C700 1.369 . S
C699 C701 1.419 . S
C699 H703 0.930 . S
C700 C699 1.369 . S
C700 C709 1.429 . S
C701 C699 1.419 . S
C701 C702 1.363 . S
C701 H704 0.929 . S
C702 C701 1.363 . S
C702 C708 1.428 . S
H703 C699 0.930 . S
H704 C701 0.929 . S
S705 N706 1.613 . S
S705 N707 1.610 . S
N706 S705 1.613 . S
N706 C709 1.350 . S
N707 S705 1.610 . S
N707 C708 1.351 . S
C708 C702 1.428 . S
C708 N707 1.351 . S
C708 C709 1.434 . S
C709 C700 1.429 . S
C709 N706 1.350 . S
C709 C708 1.434 . S
C710 C711 1.369 . S
C710 C712 1.419 . S
C710 H714 0.930 . S
C711 C710 1.369 . S
C711 C720 1.429 . S
C712 C710 1.419 . S
C712 C713 1.363 . S
C712 H715 0.929 . S
C713 C712 1.363 . S
C713 C719 1.428 . S
H714 C710 0.930 . S
H715 C712 0.929 . S
S716 N717 1.613 . S
S716 N718 1.610 . S
N717 S716 1.613 . S
N717 C720 1.350 . S
N718 S716 1.610 . S
N718 C719 1.351 . S
C719 C713 1.428 . S
C719 N718 1.351 . S
C719 C720 1.434 . S
C720 C711 1.429 . S
C720 N717 1.350 . S
C720 C719 1.434 . S
C721 C722 1.369 . S
C721 C723 1.419 1_554 S
C721 H725 0.930 . S
C722 C721 1.369 . S
C722 C731 1.429 . S
C723 C721 1.419 1_556 S
C723 C724 1.363 . S
C723 H726 0.929 . S
C724 C723 1.363 . S
C724 C730 1.428 1_556 S
H725 C721 0.930 . S
H726 C723 0.929 . S
S727 N728 1.613 . S
S727 N729 1.610 . S
N728 S727 1.613 . S
N728 C731 1.350 . S
N729 S727 1.610 . S
N729 C730 1.351 . S
C730 C724 1.428 1_554 S
C730 N729 1.351 . S
C730 C731 1.434 . S
C731 C722 1.429 . S
C731 N728 1.350 . S
C731 C730 1.434 . S
C732 C733 1.369 . S
C732 C734 1.419 . S
C732 H736 0.930 . S
C733 C732 1.369 . S
C733 C742 1.429 . S
C734 C732 1.419 . S
C734 C735 1.363 . S
C734 H737 0.929 . S
C735 C734 1.363 . S
C735 C741 1.428 . S
H736 C732 0.930 . S
H737 C734 0.929 . S
S738 N739 1.613 . S
S738 N740 1.610 . S
N739 S738 1.613 . S
N739 C742 1.350 . S
N740 S738 1.610 . S
N740 C741 1.351 . S
C741 C735 1.428 . S
C741 N740 1.351 . S
C741 C742 1.434 . S
C742 C733 1.429 . S
C742 N739 1.350 . S
C742 C741 1.434 . S
C743 C744 1.369 . S
C743 C745 1.419 . S
C743 H747 0.930 . S
C744 C743 1.369 . S
C744 C753 1.429 . S
C745 C743 1.419 . S
C745 C746 1.363 . S
C745 H748 0.929 . S
C746 C745 1.363 . S
C746 C752 1.428 . S
H747 C743 0.930 . S
H748 C745 0.929 . S
S749 N750 1.613 . S
S749 N751 1.610 . S
N750 S749 1.613 . S
N750 C753 1.350 . S
N751 S749 1.610 . S
N751 C752 1.351 . S
C752 C746 1.428 . S
C752 N751 1.351 . S
C752 C753 1.434 . S
C753 C744 1.429 . S
C753 N750 1.350 . S
C753 C752 1.434 . S
C754 C755 1.369 . S
C754 C756 1.419 . S
C754 H758 0.930 . S
C755 C754 1.369 . S
C755 C764 1.429 . S
C756 C754 1.419 . S
C756 C757 1.363 . S
C756 H759 0.929 . S
C757 C756 1.363 . S
C757 C763 1.428 . S
H758 C754 0.930 . S
H759 C756 0.929 . S
S760 N761 1.613 . S
S760 N762 1.610 . S
N761 S760 1.613 . S
N761 C764 1.350 . S
N762 S760 1.610 . S
N762 C763 1.351 . S
C763 C757 1.428 . S
C763 N762 1.351 . S
C763 C764 1.434 . S
C764 C755 1.429 . S
C764 N761 1.350 . S
C764 C763 1.434 . S
C765 C766 1.369 . S
C765 C767 1.419 . S
C765 H769 0.930 . S
C766 C765 1.369 . S
C766 C775 1.429 . S
C767 C765 1.419 . S
C767 C768 1.363 1_556 S
C767 H770 0.929 . S
C768 C767 1.363 1_554 S
C768 C774 1.428 1_554 S
H769 C765 0.930 . S
H770 C767 0.929 . S
S771 N772 1.613 . S
S771 N773 1.610 1_656 S
N772 S771 1.613 . S
N772 C775 1.350 1_655 S
N773 S771 1.610 1_454 S
N773 C774 1.351 1_554 S
C774 C768 1.428 1_556 S
C774 N773 1.351 1_556 S
C774 C775 1.434 . S
C775 C766 1.429 . S
C775 N772 1.350 1_455 S
C775 C774 1.434 . S
C776 C777 1.369 . S
C776 C778 1.419 . S
C776 H780 0.930 . S
C777 C776 1.369 . S
C777 C786 1.429 . S
C778 C776 1.419 . S
C778 C779 1.363 . S
C778 H781 0.929 . S
C779 C778 1.363 . S
C779 C785 1.428 . S
H780 C776 0.930 . S
H781 C778 0.929 . S
S782 N783 1.613 . S
S782 N784 1.610 . S
N783 S782 1.613 . S
N783 C786 1.350 . S
N784 S782 1.610 . S
N784 C785 1.351 . S
C785 C779 1.428 . S
C785 N784 1.351 . S
C785 C786 1.434 . S
C786 C777 1.429 . S
C786 N783 1.350 . S
C786 C785 1.434 . S
C787 C788 1.369 . S
C787 C789 1.419 1_545 S
C787 H791 0.930 . S
C788 C787 1.369 . S
C788 C797 1.429 . S
C789 C787 1.419 1_565 S
C789 C790 1.363 . S
C789 H792 0.929 . S
C790 C789 1.363 . S
C790 C796 1.428 1_565 S
H791 C787 0.930 . S
H792 C789 0.929 . S
S793 N794 1.613 . S
S793 N795 1.610 . S
N794 S793 1.613 . S
N794 C797 1.350 . S
N795 S793 1.610 . S
N795 C796 1.351 . S
C796 C790 1.428 1_545 S
C796 N795 1.351 . S
C796 C797 1.434 . S
C797 C788 1.429 . S
C797 N794 1.350 . S
C797 C796 1.434 . S
C798 C799 1.369 . S
C798 C800 1.419 . S
C798 H802 0.930 . S
C799 C798 1.369 . S
C799 C808 1.429 . S
C800 C798 1.419 . S
C800 C801 1.363 . S
C800 H803 0.929 . S
C801 C800 1.363 . S
C801 C807 1.428 . S
H802 C798 0.930 . S
H803 C800 0.929 . S
S804 N805 1.613 . S
S804 N806 1.610 . S
N805 S804 1.613 . S
N805 C808 1.350 . S
N806 S804 1.610 . S
N806 C807 1.351 . S
C807 C801 1.428 . S
C807 N806 1.351 . S
C807 C808 1.434 . S
C808 C799 1.429 . S
C808 N805 1.350 . S
C808 C807 1.434 . S
C809 C810 1.369 . S
C809 C811 1.419 1_565 S
C809 H813 0.930 . S
C810 C809 1.369 . S
C810 C819 1.429 . S
C811 C809 1.419 1_545 S
C811 C812 1.363 . S
C811 H814 0.929 . S
C812 C811 1.363 . S
C812 C818 1.428 1_545 S
H813 C809 0.930 . S
H814 C811 0.929 . S
S815 N816 1.613 . S
S815 N817 1.610 . S
N816 S815 1.613 . S
N816 C819 1.350 . S
N817 S815 1.610 . S
N817 C818 1.351 . S
C818 C812 1.428 1_565 S
C818 N817 1.351 . S
C818 C819 1.434 . S
C819 C810 1.429 . S
C819 N816 1.350 . S
C819 C818 1.434 . S
C820 C821 1.369 . S
C820 C822 1.419 . S
C820 H824 0.930 . S
C821 C820 1.369 . S
C821 C830 1.429 . S
C822 C820 1.419 . S
C822 C823 1.363 . S
C822 H825 0.929 . S
C823 C822 1.363 . S
C823 C829 1.428 . S
H824 C820 0.930 . S
H825 C822 0.929 . S
S826 N827 1.613 . S
S826 N828 1.610 . S
N827 S826 1.613 . S
N827 C830 1.350 . S
N828 S826 1.610 . S
N828 C829 1.351 . S
C829 C823 1.428 . S
C829 N828 1.351 . S
C829 C830 1.434 . S
C830 C821 1.429 . S
C830 N827 1.350 . S
C830 C829 1.434 . S
C831 C832 1.369 . S
C831 C833 1.419 1_545 S
C831 H835 0.930 . S
C832 C831 1.369 . S
C832 C841 1.429 . S
C833 C831 1.419 1_565 S
C833 C834 1.363 . S
C833 H836 0.929 . S
C834 C833 1.363 . S
C834 C840 1.428 1_565 S
H835 C831 0.930 . S
H836 C833 0.929 . S
S837 N838 1.613 . S
S837 N839 1.610 . S
N838 S837 1.613 . S
N838 C841 1.350 . S
N839 S837 1.610 . S
N839 C840 1.351 . S
C840 C834 1.428 1_545 S
C840 N839 1.351 . S
C840 C841 1.434 . S
C841 C832 1.429 . S
C841 N838 1.350 . S
C841 C840 1.434 . S
C842 C843 1.369 . S
C842 C844 1.419 . S
C842 H846 0.930 . S
C843 C842 1.369 . S
C843 C852 1.429 . S
C844 C842 1.419 . S
C844 C845 1.363 . S
C844 H847 0.929 . S
C845 C844 1.363 . S
C845 C851 1.428 . S
H846 C842 0.930 . S
H847 C844 0.929 . S
S848 N849 1.613 . S
S848 N850 1.610 . S
N849 S848 1.613 . S
N849 C852 1.350 . S
N850 S848 1.610 . S
N850 C851 1.351 . S
C851 C845 1.428 . S
C851 N850 1.351 . S
C851 C852 1.434 . S
C852 C843 1.429 . S
C852 N849 1.350 . S
C852 C851 1.434 . S
C853 C854 1.369 . S
C853 C855 1.419 1_565 S
C853 H857 0.930 . S
C854 C853 1.369 . S
C854 C863 1.429 . S
C855 C853 1.419 1_545 S
C855 C856 1.363 . S
C855 H858 0.929 . S
C856 C855 1.363 . S
C856 C862 1.428 1_545 S
H857 C853 0.930 . S
H858 C855 0.929 . S
S859 N860 1.613 . S
S859 N861 1.610 . S
N860 S859 1.613 . S
N860 C863 1.350 . S
N861 S859 1.610 . S
N861 C862 1.351 . S
C862 C856 1.428 1_565 S
C862 N861 1.351 . S
C862 C863 1.434 . S
C863 C854 1.429 . S
C863 N860 1.350 . S
C863 C862 1.434 . S
C864 C865 1.369 . S
C864 C866 1.419 . S
C864 H868 0.930 . S
C865 C864 1.369 . S
C865 C874 1.429 . S
C866 C864 1.419 . S
C866 C867 1.363 . S
C866 H869 0.929 . S
C867 C866 1.363 . S
C867 C873 1.428 . S
H868 C864 0.930 . S
H869 C866 0.929 . S
S870 N871 1.613 . S
S870 N872 1.610 . S
N871 S870 1.613 . S
N871 C874 1.350 . S
N872 S870 1.610 . S
N872 C873 1.351 . S
C873 C867 1.428 . S
C873 N872 1.351 . S
C873 C874 1.434 . S
C874 C865 1.429 . S
C874 N871 1.350 . S
C874 C873 1.434 . S
C875 C876 1.369 . S
C875 C877 1.419 . S
C875 H879 0.930 . S
C876 C875 1.369 . S
C876 C885 1.429 . S
C877 C875 1.419 . S
C877 C878 1.363 . S
C877 H880 0.929 . S
C878 C877 1.363 . S
C878 C884 1.428 . S
H879 C875 0.930 . S
H880 C877 0.929 . S
S881 N882 1.613 . S
S881 N883 1.610 . S
N882 S881 1.613 . S
N882 C885 1.350 . S
N883 S881 1.610 . S
N883 C884 1.351 . S
C884 C878 1.428 . S
C884 N883 1.351 . S
C884 C885 1.434 . S
C885 C876 1.429 . S
C885 N882 1.350 . S
C885 C884 1.434 . S
C886 C887 1.369 . S
C886 C888 1.419 1_455 S
C886 H890 0.930 . S
C887 C886 1.369 . S
C887 C896 1.429 . S
C888 C886 1.419 1_655 S
C888 C889 1.363 . S
C888 H891 0.929 . S
C889 C888 1.363 . S
C889 C895 1.428 1_655 S
H890 C886 0.930 . S
H891 C888 0.929 . S
S892 N893 1.613 . S
S892 N894 1.610 . S
N893 S892 1.613 . S
N893 C896 1.350 . S
N894 S892 1.610 . S
N894 C895 1.351 . S
C895 C889 1.428 1_455 S
C895 N894 1.351 . S
C895 C896 1.434 . S
C896 C887 1.429 . S
C896 N893 1.350 . S
C896 C895 1.434 . S
C897 C898 1.369 . S
C897 C899 1.419 . S
C897 H901 0.930 . S
C898 C897 1.369 . S
C898 C907 1.429 . S
C899 C897 1.419 . S
C899 C900 1.363 . S
C899 H902 0.929 . S
C900 C899 1.363 . S
C900 C906 1.428 . S
H901 C897 0.930 . S
H902 C899 0.929 . S
S903 N904 1.613 . S
S903 N905 1.610 . S
N904 S903 1.613 . S
N904 C907 1.350 . S
N905 S903 1.610 . S
N905 C906 1.351 . S
C906 C900 1.428 . S
C906 N905 1.351 . S
C906 C907 1.434 . S
C907 C898 1.429 . S
C907 N904 1.350 . S
C907 C906 1.434 . S
C908 C909 1.369 . S
C908 C910 1.419 . S
C908 H912 0.930 . S
C909 C908 1.369 . S
C909 C918 1.429 . S
C910 C908 1.419 . S
C910 C911 1.363 1_655 S
C910 H913 0.929 . S
C911 C910 1.363 1_455 S
C911 C917 1.428 . S
H912 C908 0.930 . S
H913 C910 0.929 . S
S914 N915 1.613 1_455 S
S914 N916 1.610 . S
N915 S914 1.613 1_655 S
N915 C918 1.350 . S
N916 S914 1.610 . S
N916 C917 1.351 . S
C917 C911 1.428 . S
C917 N916 1.351 . S
C917 C918 1.434 1_455 S
C918 C909 1.429 . S
C918 N915 1.350 . S
C918 C917 1.434 1_655 S
C919 C920 1.369 . S
C919 C921 1.419 . S
C919 H923 0.930 . S
C920 C919 1.369 . S
C920 C929 1.429 . S
C921 C919 1.419 . S
C921 C922 1.363 . S
C921 H924 0.929 . S
C922 C921 1.363 . S
C922 C928 1.428 . S
H923 C919 0.930 . S
H924 C921 0.929 . S
S925 N926 1.613 . S
S925 N927 1.610 . S
N926 S925 1.613 . S
N926 C929 1.350 . S
N927 S925 1.610 . S
N927 C928 1.351 . S
C928 C922 1.428 . S
C928 N927 1.351 . S
C928 C929 1.434 . S
C929 C920 1.429 . S
C929 N926 1.350 . S
C929 C928 1.434 . S
C930 C931 1.369 . S
C930 C932 1.419 . S
C930 H934 0.930 . S
C931 C930 1.369 . S
C931 C940 1.429 . S
C932 C930 1.419 . S
C932 C933 1.363 1_455 S
C932 H935 0.929 1_455 S
C933 C932 1.363 1_655 S
C933 C939 1.428 1_655 S
H934 C930 0.930 . S
H935 C932 0.929 1_655 S
S936 N937 1.613 . S
S936 N938 1.595 1_455 S
N937 S936 1.613 . S
N937 C940 1.350 . S
N938 S936 1.595 1_655 S
N938 C939 1.346 1_655 S
C939 C933 1.428 1_455 S
C939 N938 1.346 1_455 S
C939 C940 1.434 . S
C940 C931 1.429 . S
C940 N937 1.350 . S
C940 C939 1.434 . S
C941 C942 1.369 . S
C941 C943 1.419 . S
C941 H945 0.930 . S
C942 C941 1.369 . S
C942 C951 1.429 . S
C943 C941 1.419 . S
C943 C944 1.363 . S
C943 H946 0.929 . S
C944 C943 1.363 . S
C944 C950 1.428 . S
H945 C941 0.930 . S
H946 C943 0.929 . S
S947 N948 1.613 . S
S947 N949 1.610 . S
N948 S947 1.613 . S
N948 C951 1.350 . S
N949 S947 1.610 . S
N949 C950 1.351 . S
C950 C944 1.428 . S
C950 N949 1.351 . S
C950 C951 1.434 . S
C951 C942 1.429 . S
C951 N948 1.350 . S
C951 C950 1.434 . S
C952 C953 1.369 . S
C952 C954 1.419 . S
C952 H956 0.930 . S
C953 C952 1.369 . S
C953 C962 1.429 . S
C954 C952 1.419 . S
C954 C955 1.363 . S
C954 H957 0.929 . S
C955 C954 1.363 . S
C955 C961 1.428 . S
H956 C952 0.930 . S
H957 C954 0.929 . S
S958 N959 1.613 . S
S958 N960 1.610 . S
N959 S958 1.613 . S
N959 C962 1.350 . S
N960 S958 1.610 . S
N960 C961 1.351 . S
C961 C955 1.428 . S
C961 N960 1.351 . S
C961 C962 1.434 . S
C962 C953 1.429 . S
C962 N959 1.350 . S
C962 C961 1.434 . S
C963 C964 1.369 . S
C963 C965 1.419 . S
C963 H967 0.930 . S
C964 C963 1.369 . S
C964 C973 1.429 . S
C965 C963 1.419 . S
C965 C966 1.363 . S
C965 H968 0.929 . S
C966 C965 1.363 . S
C966 C972 1.428 . S
H967 C963 0.930 . S
H968 C965 0.929 . S
S969 N970 1.613 . S
S969 N971 1.610 1_455 S
N970 S969 1.613 . S
N970 C973 1.350 1_455 S
N971 S969 1.610 1_655 S
N971 C972 1.351 . S
C972 C966 1.428 . S
C972 N971 1.351 . S
C972 C973 1.434 . S
C973 C964 1.429 . S
C973 N970 1.350 1_655 S
C973 C972 1.434 . S
C974 C975 1.369 . S
C974 C976 1.419 . S
C974 H978 0.930 . S
C975 C974 1.369 . S
C975 C984 1.429 . S
C976 C974 1.419 . S
C976 C977 1.363 . S
C976 H979 0.929 . S
C977 C976 1.363 . S
C977 C983 1.428 . S
H978 C974 0.930 . S
H979 C976 0.929 . S
S980 N981 1.613 . S
S980 N982 1.610 . S
N981 S980 1.613 . S
N981 C984 1.350 . S
N982 S980 1.610 . S
N982 C983 1.351 . S
C983 C977 1.428 . S
C983 N982 1.351 . S
C983 C984 1.434 . S
C984 C975 1.429 . S
C984 N981 1.350 . S
C984 C983 1.434 . S
C985 C986 1.369 . S
C985 C987 1.409 1_556 S
C985 H989 0.930 . S
C986 C985 1.369 . S
C986 C995 1.429 . S
C987 C985 1.409 1_554 S
C987 C988 1.366 . S
C987 H990 0.936 . S
C988 C987 1.366 . S
C988 C994 1.428 1_554 S
H989 C985 0.930 . S
H990 C987 0.936 . S
S991 N992 1.613 . S
S991 N993 1.610 . S
N992 S991 1.613 . S
N992 C995 1.350 . S
N993 S991 1.610 . S
N993 C994 1.351 . S
C994 C988 1.428 1_556 S
C994 N993 1.351 . S
C994 C995 1.434 . S
C995 C986 1.429 . S
C995 N992 1.350 . S
C995 C994 1.434 . S
C996 C997 1.369 . S
C996 C998 1.419 . S
C996 H1000 0.930 . S
C997 C996 1.369 . S
C997 C1006 1.429 . S
C998 C996 1.419 . S
C998 C999 1.363 . S
C998 H1001 0.929 . S
C999 C998 1.363 . S
C999 C1005 1.428 . S
H1000 C996 0.930 . S
H1001 C998 0.929 . S
S1002 N1003 1.613 . S
S1002 N1004 1.610 . S
N1003 S1002 1.613 . S
N1003 C1006 1.350 . S
N1004 S1002 1.610 . S
N1004 C1005 1.351 . S
C1005 C999 1.428 . S
C1005 N1004 1.351 . S
C1005 C1006 1.434 . S
C1006 C997 1.429 . S
C1006 N1003 1.350 . S
C1006 C1005 1.434 . S
C1007 C1008 1.369 . S
C1007 C1009 1.419 . S
C1007 H1011 0.930 . S
C1008 C1007 1.369 . S
C1008 C1017 1.429 . S
C1009 C1007 1.419 . S
C1009 C1010 1.363 . S
C1009 H1012 0.929 . S
C1010 C1009 1.363 . S
C1010 C1016 1.428 . S
H1011 C1007 0.930 . S
H1012 C1009 0.929 . S
S1013 N1014 1.613 . S
S1013 N1015 1.610 . S
N1014 S1013 1.613 . S
N1014 C1017 1.350 . S
N1015 S1013 1.610 . S
N1015 C1016 1.351 . S
C1016 C1010 1.428 . S
C1016 N1015 1.351 . S
C1016 C1017 1.434 . S
C1017 C1008 1.429 . S
C1017 N1014 1.350 . S
C1017 C1016 1.434 . S
C1018 C1019 1.369 . S
C1018 C1020 1.419 . S
C1018 H1022 0.930 . S
C1019 C1018 1.369 . S
C1019 C1028 1.429 . S
C1020 C1018 1.419 . S
C1020 C1021 1.363 . S
C1020 H1023 0.929 . S
C1021 C1020 1.363 . S
C1021 C1027 1.428 . S
H1022 C1018 0.930 . S
H1023 C1020 0.929 . S
S1024 N1025 1.613 . S
S1024 N1026 1.610 . S
N1025 S1024 1.613 . S
N1025 C1028 1.350 . S
N1026 S1024 1.610 . S
N1026 C1027 1.351 . S
C1027 C1021 1.428 . S
C1027 N1026 1.351 . S
C1027 C1028 1.434 . S
C1028 C1019 1.429 . S
C1028 N1025 1.350 . S
C1028 C1027 1.434 . S
C1029 C1030 1.369 . S
C1029 C1031 1.419 . S
C1029 H1033 0.930 . S
C1030 C1029 1.369 . S
C1030 C1039 1.429 . S
C1031 C1029 1.419 . S
C1031 C1032 1.363 1_554 S
C1031 H1034 0.929 1_554 S
C1032 C1031 1.363 1_556 S
C1032 C1038 1.428 1_556 S
H1033 C1029 0.930 . S
H1034 C1031 0.929 1_556 S
S1035 N1036 1.613 . S
S1035 N1037 1.610 1_554 S
N1036 S1035 1.613 . S
N1036 C1039 1.350 . S
N1037 S1035 1.610 1_556 S
N1037 C1038 1.351 1_556 S
C1038 C1032 1.428 1_554 S
C1038 N1037 1.351 1_554 S
C1038 C1039 1.434 . S
C1039 C1030 1.429 . S
C1039 N1036 1.350 . S
C1039 C1038 1.434 . S
C1040 C1041 1.369 . S
C1040 C1042 1.419 . S
C1040 H1044 0.930 . S
C1041 C1040 1.369 . S
C1041 C1050 1.429 . S
C1042 C1040 1.419 . S
C1042 C1043 1.363 . S
C1042 H1045 0.929 . S
C1043 C1042 1.363 . S
C1043 C1049 1.428 . S
H1044 C1040 0.930 . S
H1045 C1042 0.929 . S
S1046 N1047 1.613 . S
S1046 N1048 1.610 . S
N1047 S1046 1.613 . S
N1047 C1050 1.350 . S
N1048 S1046 1.610 . S
N1048 C1049 1.351 . S
C1049 C1043 1.428 . S
C1049 N1048 1.351 . S
C1049 C1050 1.434 . S
C1050 C1041 1.429 . S
C1050 N1047 1.350 . S
C1050 C1049 1.434 . S
C1051 C1052 1.369 . S
C1051 C1053 1.419 . S
C1051 H1055 0.930 . S
C1052 C1051 1.369 . S
C1052 C1061 1.429 . S
C1053 C1051 1.419 . S
C1053 C1054 1.363 1_565 S
C1053 H1056 0.929 . S
C1054 C1053 1.363 1_545 S
C1054 C1060 1.435 . S
H1055 C1051 0.930 . S
H1056 C1053 0.929 . S
S1057 N1058 1.613 . S
S1057 N1059 1.610 1_565 S
N1058 S1057 1.613 . S
N1058 C1061 1.350 . S
N1059 S1057 1.610 1_545 S
N1059 C1060 1.365 . S
C1060 C1054 1.435 . S
C1060 N1059 1.365 . S
C1060 C1061 1.413 1_545 S
C1061 C1052 1.429 . S
C1061 N1058 1.350 . S
C1061 C1060 1.413 1_565 S
C1062 C1063 1.369 . S
C1062 C1064 1.419 . S
C1062 H1066 0.930 . S
C1063 C1062 1.369 . S
C1063 C1072 1.429 . S
C1064 C1062 1.419 . S
C1064 C1065 1.363 . S
C1064 H1067 0.929 . S
C1065 C1064 1.363 . S
C1065 C1071 1.428 . S
H1066 C1062 0.930 . S
H1067 C1064 0.929 . S
S1068 N1069 1.613 . S
S1068 N1070 1.610 . S
N1069 S1068 1.613 . S
N1069 C1072 1.350 . S
N1070 S1068 1.610 . S
N1070 C1071 1.351 . S
C1071 C1065 1.428 . S
C1071 N1070 1.351 . S
C1071 C1072 1.434 . S
C1072 C1063 1.429 . S
C1072 N1069 1.350 . S
C1072 C1071 1.434 . S
C1073 C1074 1.369 . S
C1073 C1075 1.419 . S
C1073 H1077 0.930 . S
C1074 C1073 1.369 . S
C1074 C1083 1.429 . S
C1075 C1073 1.419 . S
C1075 C1076 1.363 1_545 S
C1075 H1078 0.929 1_545 S
C1076 C1075 1.363 1_565 S
C1076 C1082 1.428 1_565 S
H1077 C1073 0.930 . S
H1078 C1075 0.929 1_565 S
S1079 N1080 1.613 . S
S1079 N1081 1.610 . S
N1080 S1079 1.613 . S
N1080 C1083 1.350 . S
N1081 S1079 1.610 . S
N1081 C1082 1.351 . S
C1082 C1076 1.428 1_545 S
C1082 N1081 1.351 . S
C1082 C1083 1.434 . S
C1083 C1074 1.429 . S
C1083 N1080 1.350 . S
C1083 C1082 1.434 . S
C1084 C1085 1.369 . S
C1084 C1086 1.419 . S
C1084 H1088 0.930 . S
C1085 C1084 1.369 . S
C1085 C1094 1.429 . S
C1086 C1084 1.419 . S
C1086 C1087 1.363 . S
C1086 H1089 0.929 . S
C1087 C1086 1.363 . S
C1087 C1093 1.428 . S
H1088 C1084 0.930 . S
H1089 C1086 0.929 . S
S1090 N1091 1.613 . S
S1090 N1092 1.610 . S
N1091 S1090 1.613 . S
N1091 C1094 1.350 . S
N1092 S1090 1.610 . S
N1092 C1093 1.351 . S
C1093 C1087 1.428 . S
C1093 N1092 1.351 . S
C1093 C1094 1.434 . S
C1094 C1085 1.429 . S
C1094 N1091 1.350 . S
C1094 C1093 1.434 . S
C1095 C1096 1.369 . S
C1095 C1097 1.419 1_565 S
C1095 H1099 0.930 . S
C1096 C1095 1.369 . S
C1096 C1105 1.429 . S
C1097 C1095 1.419 1_545 S
C1097 C1098 1.363 . S
C1097 H1100 0.929 . S
C1098 C1097 1.363 . S
C1098 C1104 1.428 1_545 S
H1099 C1095 0.930 . S
H1100 C1097 0.929 . S
S1101 N1102 1.613 . S
S1101 N1103 1.610 . S
N1102 S1101 1.613 . S
N1102 C1105 1.350 . S
N1103 S1101 1.610 . S
N1103 C1104 1.351 . S
C1104 C1098 1.428 1_565 S
C1104 N1103 1.351 . S
C1104 C1105 1.434 . S
C1105 C1096 1.429 . S
C1105 N1102 1.350 . S
C1105 C1104 1.434 . S
C1106 C1107 1.369 . S
C1106 C1108 1.419 . S
C1106 H1110 0.930 . S
C1107 C1106 1.369 . S
C1107 C1116 1.429 . S
C1108 C1106 1.419 . S
C1108 C1109 1.363 . S
C1108 H1111 0.929 . S
C1109 C1108 1.363 . S
C1109 C1115 1.428 . S
H1110 C1106 0.930 . S
H1111 C1108 0.929 . S
S1112 N1113 1.613 . S
S1112 N1114 1.610 . S
N1113 S1112 1.613 . S
N1113 C1116 1.350 . S
N1114 S1112 1.610 . S
N1114 C1115 1.351 . S
C1115 C1109 1.428 . S
C1115 N1114 1.351 . S
C1115 C1116 1.434 . S
C1116 C1107 1.429 . S
C1116 N1113 1.350 . S
C1116 C1115 1.434 . S
C1117 C1118 1.369 . S
C1117 C1119 1.419 1_545 S
C1117 H1121 0.930 . S
C1118 C1117 1.369 . S
C1118 C1127 1.429 . S
C1119 C1117 1.419 1_565 S
C1119 C1120 1.363 . S
C1119 H1122 0.929 . S
C1120 C1119 1.363 . S
C1120 C1126 1.428 1_565 S
H1121 C1117 0.930 . S
H1122 C1119 0.929 . S
S1123 N1124 1.613 . S
S1123 N1125 1.610 . S
N1124 S1123 1.613 . S
N1124 C1127 1.350 . S
N1125 S1123 1.610 . S
N1125 C1126 1.351 . S
C1126 C1120 1.428 1_545 S
C1126 N1125 1.351 . S
C1126 C1127 1.434 . S
C1127 C1118 1.429 . S
C1127 N1124 1.350 . S
C1127 C1126 1.434 . S
C1128 C1129 1.369 . S
C1128 C1130 1.419 . S
C1128 H1132 0.930 . S
C1129 C1128 1.369 . S
C1129 C1138 1.429 . S
C1130 C1128 1.419 . S
C1130 C1131 1.363 . S
C1130 H1133 0.929 . S
C1131 C1130 1.363 . S
C1131 C1137 1.428 . S
H1132 C1128 0.930 . S
H1133 C1130 0.929 . S
S1134 N1135 1.613 . S
S1134 N1136 1.610 . S
N1135 S1134 1.613 . S
N1135 C1138 1.350 . S
N1136 S1134 1.610 . S
N1136 C1137 1.351 . S
C1137 C1131 1.428 . S
C1137 N1136 1.351 . S
C1137 C1138 1.434 . S
C1138 C1129 1.429 . S
C1138 N1135 1.350 . S
C1138 C1137 1.434 . S
C1139 C1140 1.369 . S
C1139 C1141 1.419 . S
C1139 H1143 0.930 . S
C1140 C1139 1.369 . S
C1140 C1149 1.429 . S
C1141 C1139 1.419 . S
C1141 C1142 1.363 . S
C1141 H1144 0.929 . S
C1142 C1141 1.363 . S
C1142 C1148 1.428 . S
H1143 C1139 0.930 . S
H1144 C1141 0.929 . S
S1145 N1146 1.613 . S
S1145 N1147 1.610 . S
N1146 S1145 1.613 . S
N1146 C1149 1.350 . S
N1147 S1145 1.610 . S
N1147 C1148 1.351 . S
C1148 C1142 1.428 . S
C1148 N1147 1.351 . S
C1148 C1149 1.434 . S
C1149 C1140 1.429 . S
C1149 N1146 1.350 . S
C1149 C1148 1.434 . S
C1150 C1151 1.369 . S
C1150 C1152 1.419 . S
C1150 H1154 0.930 . S
C1151 C1150 1.369 . S
C1151 C1160 1.429 . S
C1152 C1150 1.419 . S
C1152 C1153 1.363 1_655 S
C1152 H1155 0.929 . S
C1153 C1152 1.363 1_455 S
C1153 C1159 1.432 . S
H1154 C1150 0.930 . S
H1155 C1152 0.929 . S
S1156 N1157 1.616 . S
S1156 N1158 1.608 1_655 S
N1157 S1156 1.616 . S
N1157 C1160 1.350 . S
N1158 S1156 1.608 1_455 S
N1158 C1159 1.360 . S
C1159 C1153 1.432 . S
C1159 N1158 1.360 . S
C1159 C1160 1.420 1_455 S
C1160 C1151 1.429 . S
C1160 N1157 1.350 . S
C1160 C1159 1.420 1_655 S
C1161 C1162 1.369 . S
C1161 C1163 1.419 . S
C1161 H1165 0.930 . S
C1162 C1161 1.369 . S
C1162 C1171 1.429 . S
C1163 C1161 1.419 . S
C1163 C1164 1.363 . S
C1163 H1166 0.929 . S
C1164 C1163 1.363 . S
C1164 C1170 1.428 . S
H1165 C1161 0.930 . S
H1166 C1163 0.929 . S
S1167 N1168 1.613 . S
S1167 N1169 1.610 . S
N1168 S1167 1.613 . S
N1168 C1171 1.350 . S
N1169 S1167 1.610 . S
N1169 C1170 1.351 . S
C1170 C1164 1.428 . S
C1170 N1169 1.351 . S
C1170 C1171 1.434 . S
C1171 C1162 1.429 . S
C1171 N1168 1.350 . S
C1171 C1170 1.434 . S
C1172 C1173 1.369 . S
C1172 C1174 1.419 . S
C1172 H1176 0.930 . S
C1173 C1172 1.369 . S
C1173 C1182 1.429 . S
C1174 C1172 1.419 . S
C1174 C1175 1.363 1_455 S
C1174 H1177 0.929 . S
C1175 C1174 1.363 1_655 S
C1175 C1181 1.428 . S
H1176 C1172 0.930 . S
H1177 C1174 0.929 . S
S1178 N1179 1.613 1_655 S
S1178 N1180 1.610 . S
N1179 S1178 1.613 1_455 S
N1179 C1182 1.350 . S
N1180 S1178 1.610 . S
N1180 C1181 1.351 . S
C1181 C1175 1.428 . S
C1181 N1180 1.351 . S
C1181 C1182 1.434 1_655 S
C1182 C1173 1.429 . S
C1182 N1179 1.350 . S
C1182 C1181 1.434 1_455 S
C1183 C1184 1.369 . S
C1183 C1185 1.419 . S
C1183 H1187 0.930 . S
C1184 C1183 1.369 . S
C1184 C1193 1.429 . S
C1185 C1183 1.419 . S
C1185 C1186 1.363 . S
C1185 H1188 0.929 . S
C1186 C1185 1.363 . S
C1186 C1192 1.428 . S
H1187 C1183 0.930 . S
H1188 C1185 0.929 . S
S1189 N1190 1.613 . S
S1189 N1191 1.610 . S
N1190 S1189 1.613 . S
N1190 C1193 1.350 . S
N1191 S1189 1.610 . S
N1191 C1192 1.351 . S
C1192 C1186 1.428 . S
C1192 N1191 1.351 . S
C1192 C1193 1.434 . S
C1193 C1184 1.429 . S
C1193 N1190 1.350 . S
C1193 C1192 1.434 . S
C1194 C1195 1.369 . S
C1194 C1196 1.419 1_655 S
C1194 H1198 0.930 . S
C1195 C1194 1.369 . S
C1195 C1204 1.429 . S
C1196 C1194 1.419 1_455 S
C1196 C1197 1.363 . S
C1196 H1199 0.929 . S
C1197 C1196 1.363 . S
C1197 C1203 1.428 1_455 S
H1198 C1194 0.930 . S
H1199 C1196 0.929 . S
S1200 N1201 1.613 . S
S1200 N1202 1.610 . S
N1201 S1200 1.613 . S
N1201 C1204 1.350 . S
N1202 S1200 1.610 . S
N1202 C1203 1.351 . S
C1203 C1197 1.428 1_655 S
C1203 N1202 1.351 . S
C1203 C1204 1.434 . S
C1204 C1195 1.429 . S
C1204 N1201 1.350 . S
C1204 C1203 1.434 . S
C1205 C1206 1.369 . S
C1205 C1207 1.419 . S
C1205 H1209 0.930 . S
C1206 C1205 1.369 . S
C1206 C1215 1.429 . S
C1207 C1205 1.419 . S
C1207 C1208 1.363 . S
C1207 H1210 0.929 . S
C1208 C1207 1.363 . S
C1208 C1214 1.428 . S
H1209 C1205 0.930 . S
H1210 C1207 0.929 . S
S1211 N1212 1.613 . S
S1211 N1213 1.610 . S
N1212 S1211 1.613 . S
N1212 C1215 1.350 . S
N1213 S1211 1.610 . S
N1213 C1214 1.351 . S
C1214 C1208 1.428 . S
C1214 N1213 1.351 . S
C1214 C1215 1.434 . S
C1215 C1206 1.429 . S
C1215 N1212 1.350 . S
C1215 C1214 1.434 . S
C1216 C1217 1.369 . S
C1216 C1218 1.419 . S
C1216 H1220 0.930 . S
C1217 C1216 1.369 . S
C1217 C1226 1.429 . S
C1218 C1216 1.419 . S
C1218 C1219 1.363 . S
C1218 H1221 0.929 . S
C1219 C1218 1.363 . S
C1219 C1225 1.428 . S
H1220 C1216 0.930 . S
H1221 C1218 0.929 . S
S1222 N1223 1.613 . S
S1222 N1224 1.610 . S
N1223 S1222 1.613 . S
N1223 C1226 1.350 . S
N1224 S1222 1.610 . S
N1224 C1225 1.351 . S
C1225 C1219 1.428 . S
C1225 N1224 1.351 . S
C1225 C1226 1.434 . S
C1226 C1217 1.429 . S
C1226 N1223 1.350 . S
C1226 C1225 1.434 . S
C1227 C1228 1.369 . S
C1227 C1229 1.419 . S
C1227 H1231 0.930 . S
C1228 C1227 1.369 . S
C1228 C1237 1.429 . S
C1229 C1227 1.419 . S
C1229 C1230 1.363 1_554 S
C1229 H1232 0.929 . S
C1230 C1229 1.363 1_556 S
C1230 C1236 1.428 . S
H1231 C1227 0.930 . S
H1232 C1229 0.929 . S
S1233 N1234 1.613 1_556 S
S1233 N1235 1.610 . S
N1234 S1233 1.613 1_554 S
N1234 C1237 1.350 . S
N1235 S1233 1.610 . S
N1235 C1236 1.351 . S
C1236 C1230 1.428 . S
C1236 N1235 1.351 . S
C1236 C1237 1.434 1_556 S
C1237 C1228 1.429 . S
C1237 N1234 1.350 . S
C1237 C1236 1.434 1_554 S
C1238 C1239 1.369 . S
C1238 C1240 1.419 . S
C1238 H1242 0.930 . S
C1239 C1238 1.369 . S
C1239 C1248 1.429 . S
C1240 C1238 1.419 . S
C1240 C1241 1.363 . S
C1240 H1243 0.929 . S
C1241 C1240 1.363 . S
C1241 C1247 1.428 . S
H1242 C1238 0.930 . S
H1243 C1240 0.929 . S
S1244 N1245 1.613 . S
S1244 N1246 1.610 . S
N1245 S1244 1.613 . S
N1245 C1248 1.350 . S
N1246 S1244 1.610 . S
N1246 C1247 1.351 . S
C1247 C1241 1.428 . S
C1247 N1246 1.351 . S
C1247 C1248 1.434 . S
C1248 C1239 1.429 . S
C1248 N1245 1.350 . S
C1248 C1247 1.434 . S
C1249 C1250 1.369 . S
C1249 C1251 1.419 . S
C1249 H1253 0.930 . S
C1250 C1249 1.369 . S
C1250 C1259 1.429 . S
C1251 C1249 1.419 . S
C1251 C1252 1.363 . S
C1251 H1254 0.929 . S
C1252 C1251 1.363 . S
C1252 C1258 1.428 . S
H1253 C1249 0.930 . S
H1254 C1251 0.929 . S
S1255 N1256 1.613 1_455 S
S1255 N1257 1.610 1_455 S
N1256 S1255 1.613 1_655 S
N1256 C1259 1.350 . S
N1257 S1255 1.610 1_655 S
N1257 C1258 1.351 . S
C1258 C1252 1.428 . S
C1258 N1257 1.351 . S
C1258 C1259 1.434 . S
C1259 C1250 1.429 . S
C1259 N1256 1.350 . S
C1259 C1258 1.434 . S
C1260 C1261 1.369 . S
C1260 C1262 1.419 . S
C1260 H1264 0.930 . S
C1261 C1260 1.369 . S
C1261 C1270 1.429 . S
C1262 C1260 1.419 . S
C1262 C1263 1.363 . S
C1262 H1265 0.929 . S
C1263 C1262 1.363 . S
C1263 C1269 1.428 . S
H1264 C1260 0.930 . S
H1265 C1262 0.929 . S
S1266 N1267 1.613 . S
S1266 N1268 1.610 . S
N1267 S1266 1.613 . S
N1267 C1270 1.350 . S
N1268 S1266 1.610 . S
N1268 C1269 1.351 . S
C1269 C1263 1.428 . S
C1269 N1268 1.351 . S
C1269 C1270 1.434 . S
C1270 C1261 1.429 . S
C1270 N1267 1.350 . S
C1270 C1269 1.434 . S
C1271 C1272 1.369 . S
C1271 C1273 1.419 . S
C1271 H1275 0.930 . S
C1272 C1271 1.369 . S
C1272 C1281 1.429 . S
C1273 C1271 1.419 . S
C1273 C1274 1.363 1_556 S
C1273 H1276 0.928 1_556 S
C1274 C1273 1.363 1_554 S
C1274 C1280 1.428 . S
H1275 C1271 0.930 . S
H1276 C1273 0.928 1_554 S
S1277 N1278 1.613 . S
S1277 N1279 1.610 1_556 S
N1278 S1277 1.613 . S
N1278 C1281 1.350 . S
N1279 S1277 1.610 1_554 S
N1279 C1280 1.351 . S
C1280 C1274 1.428 . S
C1280 N1279 1.351 . S
C1280 C1281 1.434 1_554 S
C1281 C1272 1.429 . S
C1281 N1278 1.350 . S
C1281 C1280 1.434 1_556 S
C1282 C1283 1.369 . S
C1282 C1284 1.419 . S
C1282 H1286 0.930 . S
C1283 C1282 1.369 . S
C1283 C1292 1.429 . S
C1284 C1282 1.419 . S
C1284 C1285 1.363 . S
C1284 H1287 0.929 . S
C1285 C1284 1.363 . S
C1285 C1291 1.428 . S
H1286 C1282 0.930 . S
H1287 C1284 0.929 . S
S1288 N1289 1.613 . S
S1288 N1290 1.610 . S
N1289 S1288 1.613 . S
N1289 C1292 1.350 . S
N1290 S1288 1.610 . S
N1290 C1291 1.351 . S
C1291 C1285 1.428 . S
C1291 N1290 1.351 . S
C1291 C1292 1.434 . S
C1292 C1283 1.429 . S
C1292 N1289 1.350 . S
C1292 C1291 1.434 . S
C1293 C1294 1.369 . S
C1293 C1295 1.419 . S
C1293 H1297 0.930 . S
C1294 C1293 1.369 . S
C1294 C1303 1.429 . S
C1295 C1293 1.419 . S
C1295 C1296 1.363 . S
C1295 H1298 0.929 . S
C1296 C1295 1.363 . S
C1296 C1302 1.428 . S
H1297 C1293 0.930 . S
H1298 C1295 0.929 . S
S1299 N1300 1.613 . S
S1299 N1301 1.610 . S
N1300 S1299 1.613 . S
N1300 C1303 1.350 . S
N1301 S1299 1.610 . S
N1301 C1302 1.351 . S
C1302 C1296 1.428 . S
C1302 N1301 1.351 . S
C1302 C1303 1.434 . S
C1303 C1294 1.429 . S
C1303 N1300 1.350 . S
C1303 C1302 1.434 . S
C1304 C1305 1.369 . S
C1304 C1306 1.419 . S
C1304 H1308 0.930 . S
C1305 C1304 1.369 . S
C1305 C1314 1.429 . S
C1306 C1304 1.419 . S
C1306 C1307 1.363 . S
C1306 H1309 0.929 . S
C1307 C1306 1.363 . S
C1307 C1313 1.428 . S
H1308 C1304 0.930 . S
H1309 C1306 0.929 . S
S1310 N1311 1.613 . S
S1310 N1312 1.610 . S
N1311 S1310 1.613 . S
N1311 C1314 1.350 . S
N1312 S1310 1.610 . S
N1312 C1313 1.351 . S
C1313 C1307 1.428 . S
C1313 N1312 1.351 . S
C1313 C1314 1.434 . S
C1314 C1305 1.429 . S
C1314 N1311 1.350 . S
C1314 C1313 1.434 . S
C1315 C1316 1.369 . S
C1315 C1317 1.419 . S
C1315 H1319 0.930 . S
C1316 C1315 1.369 . S
C1316 C1325 1.429 . S
C1317 C1315 1.419 . S
C1317 C1318 1.363 . S
C1317 H1320 0.929 . S
C1318 C1317 1.363 . S
C1318 C1324 1.428 . S
H1319 C1315 0.930 . S
H1320 C1317 0.929 . S
S1321 N1322 1.613 . S
S1321 N1323 1.610 . S
N1322 S1321 1.613 . S
N1322 C1325 1.350 . S
N1323 S1321 1.610 . S
N1323 C1324 1.351 . S
C1324 C1318 1.428 . S
C1324 N1323 1.351 . S
C1324 C1325 1.434 . S
C1325 C1316 1.429 . S
C1325 N1322 1.350 . S
C1325 C1324 1.434 . S
C1326 C1327 1.369 . S
C1326 C1328 1.419 . S
C1326 H1330 0.930 . S
C1327 C1326 1.369 . S
C1327 C1336 1.429 . S
C1328 C1326 1.419 . S
C1328 C1329 1.363 . S
C1328 H1331 0.929 . S
C1329 C1328 1.363 . S
C1329 C1335 1.428 . S
H1330 C1326 0.930 . S
H1331 C1328 0.929 . S
S1332 N1333 1.613 . S
S1332 N1334 1.610 . S
N1333 S1332 1.613 . S
N1333 C1336 1.350 . S
N1334 S1332 1.610 . S
N1334 C1335 1.351 . S
C1335 C1329 1.428 . S
C1335 N1334 1.351 . S
C1335 C1336 1.434 . S
C1336 C1327 1.429 . S
C1336 N1333 1.350 . S
C1336 C1335 1.434 . S
C1337 C1338 1.369 . S
C1337 C1339 1.419 . S
C1337 H1341 0.930 . S
C1338 C1337 1.369 . S
C1338 C1347 1.429 . S
C1339 C1337 1.419 . S
C1339 C1340 1.363 . S
C1339 H1342 0.929 . S
C1340 C1339 1.363 . S
C1340 C1346 1.428 . S
H1341 C1337 0.930 . S
H1342 C1339 0.929 . S
S1343 N1344 1.613 . S
S1343 N1345 1.610 . S
N1344 S1343 1.613 . S
N1344 C1347 1.350 . S
N1345 S1343 1.610 . S
N1345 C1346 1.351 . S
C1346 C1340 1.428 . S
C1346 N1345 1.351 . S
C1346 C1347 1.434 . S
C1347 C1338 1.429 . S
C1347 N1344 1.350 . S
C1347 C1346 1.434 . S
C1348 C1349 1.369 . S
C1348 C1350 1.419 . S
C1348 H1352 0.930 . S
C1349 C1348 1.369 . S
C1349 C1358 1.429 . S
C1350 C1348 1.419 . S
C1350 C1351 1.363 . S
C1350 H1353 0.929 . S
C1351 C1350 1.363 . S
C1351 C1357 1.428 . S
H1352 C1348 0.930 . S
H1353 C1350 0.929 . S
S1354 N1355 1.613 . S
S1354 N1356 1.610 . S
N1355 S1354 1.613 . S
N1355 C1358 1.350 . S
N1356 S1354 1.610 . S
N1356 C1357 1.351 . S
C1357 C1351 1.428 . S
C1357 N1356 1.351 . S
C1357 C1358 1.434 . S
C1358 C1349 1.429 . S
C1358 N1355 1.350 . S
C1358 C1357 1.434 . S
C1359 C1360 1.369 . S
C1359 C1361 1.419 . S
C1359 H1363 0.930 . S
C1360 C1359 1.369 . S
C1360 C1369 1.429 . S
C1361 C1359 1.419 . S
C1361 C1362 1.363 . S
C1361 H1364 0.929 . S
C1362 C1361 1.363 . S
C1362 C1368 1.428 . S
H1363 C1359 0.930 . S
H1364 C1361 0.929 . S
S1365 N1366 1.613 . S
S1365 N1367 1.610 . S
N1366 S1365 1.613 . S
N1366 C1369 1.350 . S
N1367 S1365 1.610 . S
N1367 C1368 1.351 . S
C1368 C1362 1.428 . S
C1368 N1367 1.351 . S
C1368 C1369 1.434 . S
C1369 C1360 1.429 . S
C1369 N1366 1.350 . S
C1369 C1368 1.434 . S
C1370 C1371 1.369 . S
C1370 C1372 1.419 . S
C1370 H1374 0.930 . S
C1371 C1370 1.369 . S
C1371 C1380 1.429 . S
C1372 C1370 1.419 . S
C1372 C1373 1.363 . S
C1372 H1375 0.929 . S
C1373 C1372 1.363 . S
C1373 C1379 1.428 . S
H1374 C1370 0.930 . S
H1375 C1372 0.929 . S
S1376 N1377 1.613 . S
S1376 N1378 1.610 . S
N1377 S1376 1.613 . S
N1377 C1380 1.350 . S
N1378 S1376 1.610 . S
N1378 C1379 1.351 . S
C1379 C1373 1.428 . S
C1379 N1378 1.351 . S
C1379 C1380 1.434 . S
C1380 C1371 1.429 . S
C1380 N1377 1.350 . S
C1380 C1379 1.434 . S
C1381 C1382 1.369 . S
C1381 C1383 1.419 . S
C1381 H1385 0.930 . S
C1382 C1381 1.369 . S
C1382 C1391 1.429 . S
C1383 C1381 1.419 . S
C1383 C1384 1.363 . S
C1383 H1386 0.929 . S
C1384 C1383 1.363 . S
C1384 C1390 1.428 . S
H1385 C1381 0.930 . S
H1386 C1383 0.929 . S
S1387 N1388 1.613 . S
S1387 N1389 1.610 . S
N1388 S1387 1.613 . S
N1388 C1391 1.350 . S
N1389 S1387 1.610 . S
N1389 C1390 1.351 . S
C1390 C1384 1.428 . S
C1390 N1389 1.351 . S
C1390 C1391 1.434 . S
C1391 C1382 1.429 . S
C1391 N1388 1.350 . S
C1391 C1390 1.434 . S
C1392 C1393 1.369 . S
C1392 C1394 1.419 . S
C1392 H1396 0.930 . S
C1393 C1392 1.369 . S
C1393 C1402 1.429 . S
C1394 C1392 1.419 . S
C1394 C1395 1.363 . S
C1394 H1397 0.929 . S
C1395 C1394 1.363 . S
C1395 C1401 1.428 . S
H1396 C1392 0.930 . S
H1397 C1394 0.929 . S
S1398 N1399 1.613 . S
S1398 N1400 1.610 . S
N1399 S1398 1.613 . S
N1399 C1402 1.350 . S
N1400 S1398 1.610 . S
N1400 C1401 1.351 . S
C1401 C1395 1.428 . S
C1401 N1400 1.351 . S
C1401 C1402 1.434 . S
C1402 C1393 1.429 . S
C1402 N1399 1.350 . S
C1402 C1401 1.434 . S
C1403 C1404 1.369 . S
C1403 C1405 1.419 . S
C1403 H1407 0.930 . S
C1404 C1403 1.369 . S
C1404 C1413 1.429 . S
C1405 C1403 1.419 . S
C1405 C1406 1.363 . S
C1405 H1408 0.929 . S
C1406 C1405 1.363 . S
C1406 C1412 1.428 . S
H1407 C1403 0.930 . S
H1408 C1405 0.929 . S
S1409 N1410 1.613 . S
S1409 N1411 1.610 . S
N1410 S1409 1.613 . S
N1410 C1413 1.350 . S
N1411 S1409 1.610 . S
N1411 C1412 1.351 . S
C1412 C1406 1.428 . S
C1412 N1411 1.351 . S
C1412 C1413 1.434 . S
C1413 C1404 1.429 . S
C1413 N1410 1.350 . S
C1413 C1412 1.434 . S
C1414 C1415 1.369 . S
C1414 C1416 1.419 . S
C1414 H1418 0.930 . S
C1415 C1414 1.369 . S
C1415 C1424 1.429 . S
C1416 C1414 1.419 . S
C1416 C1417 1.363 . S
C1416 H1419 0.929 . S
C1417 C1416 1.363 . S
C1417 C1423 1.428 . S
H1418 C1414 0.930 . S
H1419 C1416 0.929 . S
S1420 N1421 1.613 . S
S1420 N1422 1.610 1_545 S
N1421 S1420 1.613 . S
N1421 C1424 1.350 1_545 S
N1422 S1420 1.610 1_565 S
N1422 C1423 1.351 . S
C1423 C1417 1.428 . S
C1423 N1422 1.351 . S
C1423 C1424 1.434 . S
C1424 C1415 1.429 . S
C1424 N1421 1.350 1_565 S
C1424 C1423 1.434 . S
C1425 C1426 1.369 . S
C1425 C1427 1.419 . S
C1425 H1429 0.930 . S
C1426 C1425 1.369 . S
C1426 C1435 1.429 . S
C1427 C1425 1.419 . S
C1427 C1428 1.363 . S
C1427 H1430 0.929 . S
C1428 C1427 1.363 . S
C1428 C1434 1.428 . S
H1429 C1425 0.930 . S
H1430 C1427 0.929 . S
S1431 N1432 1.613 . S
S1431 N1433 1.610 . S
N1432 S1431 1.613 . S
N1432 C1435 1.350 . S
N1433 S1431 1.610 . S
N1433 C1434 1.351 . S
C1434 C1428 1.428 . S
C1434 N1433 1.351 . S
C1434 C1435 1.434 . S
C1435 C1426 1.429 . S
C1435 N1432 1.350 . S
C1435 C1434 1.434 . S
C1436 C1437 1.369 . S
C1436 C1438 1.419 . S
C1436 H1440 0.930 . S
C1437 C1436 1.369 . S
C1437 C1446 1.429 . S
C1438 C1436 1.419 . S
C1438 C1439 1.363 . S
C1438 H1441 0.929 . S
C1439 C1438 1.363 . S
C1439 C1445 1.428 . S
H1440 C1436 0.930 . S
H1441 C1438 0.929 . S
S1442 N1443 1.613 . S
S1442 N1444 1.610 . S
N1443 S1442 1.613 . S
N1443 C1446 1.350 . S
N1444 S1442 1.610 . S
N1444 C1445 1.351 . S
C1445 C1439 1.428 . S
C1445 N1444 1.351 . S
C1445 C1446 1.434 . S
C1446 C1437 1.429 . S
C1446 N1443 1.350 . S
C1446 C1445 1.434 . S
C1447 C1448 1.369 . S
C1447 C1449 1.419 . S
C1447 H1451 0.930 . S
C1448 C1447 1.369 . S
C1448 C1457 1.429 . S
C1449 C1447 1.419 . S
C1449 C1450 1.363 . S
C1449 H1452 0.929 . S
C1450 C1449 1.363 . S
C1450 C1456 1.428 . S
H1451 C1447 0.930 . S
H1452 C1449 0.929 . S
S1453 N1454 1.613 . S
S1453 N1455 1.610 . S
N1454 S1453 1.613 . S
N1454 C1457 1.350 . S
N1455 S1453 1.610 . S
N1455 C1456 1.351 . S
C1456 C1450 1.428 . S
C1456 N1455 1.351 . S
C1456 C1457 1.434 . S
C1457 C1448 1.429 . S
C1457 N1454 1.350 . S
C1457 C1456 1.434 . S
C1458 C1459 1.369 . S
C1458 C1460 1.419 . S
C1458 H1462 0.930 . S
C1459 C1458 1.369 . S
C1459 C1468 1.429 . S
C1460 C1458 1.419 . S
C1460 C1461 1.363 . S
C1460 H1463 0.929 . S
C1461 C1460 1.363 . S
C1461 C1467 1.428 . S
H1462 C1458 0.930 . S
H1463 C1460 0.929 . S
S1464 N1465 1.613 . S
S1464 N1466 1.610 1_565 S
N1465 S1464 1.613 . S
N1465 C1468 1.350 1_565 S
N1466 S1464 1.610 1_545 S
N1466 C1467 1.351 . S
C1467 C1461 1.428 . S
C1467 N1466 1.351 . S
C1467 C1468 1.434 . S
C1468 C1459 1.429 . S
C1468 N1465 1.350 1_545 S
C1468 C1467 1.434 . S
C1469 C1470 1.369 . S
C1469 C1471 1.419 . S
C1469 H1473 0.930 . S
C1470 C1469 1.369 . S
C1470 C1479 1.429 . S
C1471 C1469 1.419 . S
C1471 C1472 1.363 1_655 S
C1471 H1474 0.929 . S
C1472 C1471 1.363 1_455 S
C1472 C1478 1.428 . S
H1473 C1469 0.930 . S
H1474 C1471 0.929 . S
S1475 N1476 1.613 1_455 S
S1475 N1477 1.610 . S
N1476 S1475 1.613 1_655 S
N1476 C1479 1.350 . S
N1477 S1475 1.610 . S
N1477 C1478 1.351 . S
C1478 C1472 1.428 . S
C1478 N1477 1.351 . S
C1478 C1479 1.434 1_455 S
C1479 C1470 1.429 . S
C1479 N1476 1.350 . S
C1479 C1478 1.434 1_655 S
C1480 C1481 1.369 . S
C1480 C1482 1.419 . S
C1480 H1484 0.930 . S
C1481 C1480 1.369 . S
C1481 C1490 1.429 . S
C1482 C1480 1.419 . S
C1482 C1483 1.363 . S
C1482 H1485 0.929 . S
C1483 C1482 1.363 . S
C1483 C1489 1.428 . S
H1484 C1480 0.930 . S
H1485 C1482 0.929 . S
S1486 N1487 1.613 . S
S1486 N1488 1.610 . S
N1487 S1486 1.613 . S
N1487 C1490 1.350 . S
N1488 S1486 1.610 . S
N1488 C1489 1.351 . S
C1489 C1483 1.428 . S
C1489 N1488 1.351 . S
C1489 C1490 1.434 . S
C1490 C1481 1.429 . S
C1490 N1487 1.350 . S
C1490 C1489 1.434 . S
C1491 C1492 1.369 . S
C1491 C1493 1.419 1_556 S
C1491 H1495 0.930 . S
C1492 C1491 1.369 . S
C1492 C1501 1.429 . S
C1493 C1491 1.419 1_554 S
C1493 C1494 1.363 . S
C1493 H1496 0.929 . S
C1494 C1493 1.363 . S
C1494 C1500 1.428 1_554 S
H1495 C1491 0.930 . S
H1496 C1493 0.929 . S
S1497 N1498 1.613 . S
S1497 N1499 1.610 . S
N1498 S1497 1.613 . S
N1498 C1501 1.350 . S
N1499 S1497 1.610 . S
N1499 C1500 1.351 . S
C1500 C1494 1.428 1_556 S
C1500 N1499 1.351 . S
C1500 C1501 1.434 . S
C1501 C1492 1.429 . S
C1501 N1498 1.350 . S
C1501 C1500 1.434 . S
C1502 C1503 1.369 . S
C1502 C1504 1.419 . S
C1502 H1506 0.930 . S
C1503 C1502 1.369 . S
C1503 C1512 1.429 . S
C1504 C1502 1.419 . S
C1504 C1505 1.363 . S
C1504 H1507 0.929 . S
C1505 C1504 1.363 . S
C1505 C1511 1.428 . S
H1506 C1502 0.930 . S
H1507 C1504 0.929 . S
S1508 N1509 1.613 . S
S1508 N1510 1.610 . S
N1509 S1508 1.613 . S
N1509 C1512 1.350 . S
N1510 S1508 1.610 . S
N1510 C1511 1.351 . S
C1511 C1505 1.428 . S
C1511 N1510 1.351 . S
C1511 C1512 1.434 . S
C1512 C1503 1.429 . S
C1512 N1509 1.350 . S
C1512 C1511 1.434 . S
C1513 C1514 1.369 . S
C1513 C1515 1.419 . S
C1513 H1517 0.930 . S
C1514 C1513 1.369 . S
C1514 C1523 1.429 . S
C1515 C1513 1.419 . S
C1515 C1516 1.363 . S
C1515 H1518 0.929 . S
C1516 C1515 1.363 . S
C1516 C1522 1.428 . S
H1517 C1513 0.930 . S
H1518 C1515 0.929 . S
S1519 N1520 1.613 . S
S1519 N1521 1.610 . S
N1520 S1519 1.613 . S
N1520 C1523 1.350 . S
N1521 S1519 1.610 . S
N1521 C1522 1.351 . S
C1522 C1516 1.428 . S
C1522 N1521 1.351 . S
C1522 C1523 1.434 . S
C1523 C1514 1.429 . S
C1523 N1520 1.350 . S
C1523 C1522 1.434 . S
C1524 C1525 1.369 . S
C1524 C1526 1.419 . S
C1524 H1528 0.930 . S
C1525 C1524 1.369 . S
C1525 C1534 1.429 . S
C1526 C1524 1.419 . S
C1526 C1527 1.363 . S
C1526 H1529 0.929 . S
C1527 C1526 1.363 . S
C1527 C1533 1.428 . S
H1528 C1524 0.930 . S
H1529 C1526 0.929 . S
S1530 N1531 1.613 . S
S1530 N1532 1.610 . S
N1531 S1530 1.613 . S
N1531 C1534 1.350 . S
N1532 S1530 1.610 . S
N1532 C1533 1.351 . S
C1533 C1527 1.428 . S
C1533 N1532 1.351 . S
C1533 C1534 1.434 . S
C1534 C1525 1.429 . S
C1534 N1531 1.350 . S
C1534 C1533 1.434 . S
C1535 C1536 1.369 . S
C1535 C1537 1.419 . S
C1535 H1539 0.930 . S
C1536 C1535 1.369 . S
C1536 C1545 1.429 . S
C1537 C1535 1.419 . S
C1537 C1538 1.363 1_554 S
C1537 H1540 0.929 1_554 S
C1538 C1537 1.363 1_556 S
C1538 C1544 1.428 1_556 S
H1539 C1535 0.930 . S
H1540 C1537 0.929 1_556 S
S1541 N1542 1.613 . S
S1541 N1543 1.610 1_554 S
N1542 S1541 1.613 . S
N1542 C1545 1.350 . S
N1543 S1541 1.610 1_556 S
N1543 C1544 1.351 1_556 S
C1544 C1538 1.428 1_554 S
C1544 N1543 1.351 1_554 S
C1544 C1545 1.434 . S
C1545 C1536 1.429 . S
C1545 N1542 1.350 . S
C1545 C1544 1.434 . S
C1546 C1547 1.369 . S
C1546 C1548 1.419 . S
C1546 H1550 0.930 . S
C1547 C1546 1.369 . S
C1547 C1556 1.429 . S
C1548 C1546 1.419 . S
C1548 C1549 1.363 . S
C1548 H1551 0.929 . S
C1549 C1548 1.363 . S
C1549 C1555 1.428 . S
H1550 C1546 0.930 . S
H1551 C1548 0.929 . S
S1552 N1553 1.613 . S
S1552 N1554 1.610 . S
N1553 S1552 1.613 . S
N1553 C1556 1.350 . S
N1554 S1552 1.610 . S
N1554 C1555 1.351 . S
C1555 C1549 1.428 . S
C1555 N1554 1.351 . S
C1555 C1556 1.434 . S
C1556 C1547 1.429 . S
C1556 N1553 1.350 . S
C1556 C1555 1.434 . S
C1557 C1558 1.369 . S
C1557 C1559 1.419 . S
C1557 H1561 0.930 . S
C1558 C1557 1.369 . S
C1558 C1567 1.429 . S
C1559 C1557 1.419 . S
C1559 C1560 1.363 . S
C1559 H1562 0.929 . S
C1560 C1559 1.363 . S
C1560 C1566 1.428 . S
H1561 C1557 0.930 . S
H1562 C1559 0.929 . S
S1563 N1564 1.613 . S
S1563 N1565 1.610 . S
N1564 S1563 1.613 . S
N1564 C1567 1.350 . S
N1565 S1563 1.610 . S
N1565 C1566 1.351 . S
C1566 C1560 1.428 . S
C1566 N1565 1.351 . S
C1566 C1567 1.434 . S
C1567 C1558 1.429 . S
C1567 N1564 1.350 . S
C1567 C1566 1.434 . S
C1568 C1569 1.369 . S
C1568 C1570 1.419 . S
C1568 H1572 0.930 . S
C1569 C1568 1.369 . S
C1569 C1578 1.429 . S
C1570 C1568 1.419 . S
C1570 C1571 1.363 . S
C1570 H1573 0.929 . S
C1571 C1570 1.363 . S
C1571 C1577 1.428 . S
H1572 C1568 0.930 . S
H1573 C1570 0.929 . S
S1574 N1575 1.613 . S
S1574 N1576 1.610 . S
N1575 S1574 1.613 . S
N1575 C1578 1.350 . S
N1576 S1574 1.610 . S
N1576 C1577 1.351 . S
C1577 C1571 1.428 . S
C1577 N1576 1.351 . S
C1577 C1578 1.434 . S
C1578 C1569 1.429 . S
C1578 N1575 1.350 . S
C1578 C1577 1.434 . S
C1579 C1580 1.369 . S
C1579 C1581 1.419 . S
C1579 H1583 0.930 . S
C1580 C1579 1.369 . S
C1580 C1589 1.429 . S
C1581 C1579 1.419 . S
C1581 C1582 1.363 . S
C1581 H1584 0.929 . S
C1582 C1581 1.363 . S
C1582 C1588 1.428 . S
H1583 C1579 0.930 . S
H1584 C1581 0.929 . S
S1585 N1586 1.613 . S
S1585 N1587 1.610 . S
N1586 S1585 1.613 . S
N1586 C1589 1.350 . S
N1587 S1585 1.610 . S
N1587 C1588 1.351 . S
C1588 C1582 1.428 . S
C1588 N1587 1.351 . S
C1588 C1589 1.434 . S
C1589 C1580 1.429 . S
C1589 N1586 1.350 . S
C1589 C1588 1.434 . S
C1590 C1591 1.369 . S
C1590 C1592 1.419 . S
C1590 H1594 0.930 . S
C1591 C1590 1.369 . S
C1591 C1600 1.429 . S
C1592 C1590 1.419 . S
C1592 C1593 1.363 . S
C1592 H1595 0.929 . S
C1593 C1592 1.363 . S
C1593 C1599 1.428 . S
H1594 C1590 0.930 . S
H1595 C1592 0.929 . S
S1596 N1597 1.613 . S
S1596 N1598 1.610 . S
N1597 S1596 1.613 . S
N1597 C1600 1.350 . S
N1598 S1596 1.610 . S
N1598 C1599 1.351 . S
C1599 C1593 1.428 . S
C1599 N1598 1.351 . S
C1599 C1600 1.434 . S
C1600 C1591 1.429 . S
C1600 N1597 1.350 . S
C1600 C1599 1.434 . S
C1601 C1602 1.369 . S
C1601 C1603 1.419 . S
C1601 H1605 0.930 . S
C1602 C1601 1.369 . S
C1602 C1611 1.429 . S
C1603 C1601 1.419 . S
C1603 C1604 1.363 . S
C1603 H1606 0.929 . S
C1604 C1603 1.363 . S
C1604 C1610 1.428 . S
H1605 C1601 0.930 . S
H1606 C1603 0.929 . S
S1607 N1608 1.613 . S
S1607 N1609 1.610 . S
N1608 S1607 1.613 . S
N1608 C1611 1.350 . S
N1609 S1607 1.610 . S
N1609 C1610 1.351 . S
C1610 C1604 1.428 . S
C1610 N1609 1.351 . S
C1610 C1611 1.434 . S
C1611 C1602 1.429 . S
C1611 N1608 1.350 . S
C1611 C1610 1.434 . S
C1612 C1613 1.369 . S
C1612 C1614 1.419 . S
C1612 H1616 0.930 . S
C1613 C1612 1.369 . S
C1613 C1622 1.429 . S
C1614 C1612 1.419 . S
C1614 C1615 1.363 . S
C1614 H1617 0.929 . S
C1615 C1614 1.363 . S
C1615 C1621 1.428 . S
H1616 C1612 0.930 . S
H1617 C1614 0.929 . S
S1618 N1619 1.613 . S
S1618 N1620 1.610 . S
N1619 S1618 1.613 . S
N1619 C1622 1.350 . S
N1620 S1618 1.610 . S
N1620 C1621 1.351 . S
C1621 C1615 1.428 . S
C1621 N1620 1.351 . S
C1621 C1622 1.434 . S
C1622 C1613 1.429 . S
C1622 N1619 1.350 . S
C1622 C1621 1.434 . S
C1623 C1624 1.369 . S
C1623 C1625 1.419 . S
C1623 H1627 0.930 . S
C1624 C1623 1.369 . S
C1624 C1633 1.429 . S
C1625 C1623 1.419 . S
C1625 C1626 1.363 . S
C1625 H1628 0.929 . S
C1626 C1625 1.363 . S
C1626 C1632 1.428 . S
H1627 C1623 0.930 . S
H1628 C1625 0.929 . S
S1629 N1630 1.613 . S
S1629 N1631 1.610 . S
N1630 S1629 1.613 . S
N1630 C1633 1.350 . S
N1631 S1629 1.610 . S
N1631 C1632 1.351 . S
C1632 C1626 1.428 . S
C1632 N1631 1.351 . S
C1632 C1633 1.434 . S
C1633 C1624 1.429 . S
C1633 N1630 1.350 . S
C1633 C1632 1.434 . S
C1634 C1635 1.369 . S
C1634 C1636 1.419 . S
C1634 H1638 0.930 . S
C1635 C1634 1.369 . S
C1635 C1644 1.429 . S
C1636 C1634 1.419 . S
C1636 C1637 1.363 . S
C1636 H1639 0.929 . S
C1637 C1636 1.363 . S
C1637 C1643 1.428 . S
H1638 C1634 0.930 . S
H1639 C1636 0.929 . S
S1640 N1641 1.613 . S
S1640 N1642 1.610 . S
N1641 S1640 1.613 . S
N1641 C1644 1.350 . S
N1642 S1640 1.610 . S
N1642 C1643 1.351 . S
C1643 C1637 1.428 . S
C1643 N1642 1.351 . S
C1643 C1644 1.434 . S
C1644 C1635 1.429 . S
C1644 N1641 1.350 . S
C1644 C1643 1.434 . S
C1645 C1646 1.369 . S
C1645 C1647 1.419 . S
C1645 H1649 0.930 . S
C1646 C1645 1.369 . S
C1646 C1655 1.429 . S
C1647 C1645 1.419 . S
C1647 C1648 1.363 . S
C1647 H1650 0.929 . S
C1648 C1647 1.363 . S
C1648 C1654 1.428 . S
H1649 C1645 0.930 . S
H1650 C1647 0.929 . S
S1651 N1652 1.613 . S
S1651 N1653 1.610 . S
N1652 S1651 1.613 . S
N1652 C1655 1.350 . S
N1653 S1651 1.610 . S
N1653 C1654 1.351 . S
C1654 C1648 1.428 . S
C1654 N1653 1.351 . S
C1654 C1655 1.434 . S
C1655 C1646 1.429 . S
C1655 N1652 1.350 . S
C1655 C1654 1.434 . S
C1656 C1657 1.369 . S
C1656 C1658 1.419 . S
C1656 H1660 0.930 . S
C1657 C1656 1.369 . S
C1657 C1666 1.429 . S
C1658 C1656 1.419 . S
C1658 C1659 1.363 . S
C1658 H1661 0.929 . S
C1659 C1658 1.363 . S
C1659 C1665 1.428 . S
H1660 C1656 0.930 . S
H1661 C1658 0.929 . S
S1662 N1663 1.613 . S
S1662 N1664 1.610 . S
N1663 S1662 1.613 . S
N1663 C1666 1.350 . S
N1664 S1662 1.610 . S
N1664 C1665 1.351 . S
C1665 C1659 1.428 . S
C1665 N1664 1.351 . S
C1665 C1666 1.434 . S
C1666 C1657 1.429 . S
C1666 N1663 1.350 . S
C1666 C1665 1.434 . S
C1667 C1668 1.369 . S
C1667 C1669 1.419 . S
C1667 H1671 0.930 . S
C1668 C1667 1.369 . S
C1668 C1677 1.429 . S
C1669 C1667 1.419 . S
C1669 C1670 1.363 . S
C1669 H1672 0.929 . S
C1670 C1669 1.363 . S
C1670 C1676 1.428 . S
H1671 C1667 0.930 . S
H1672 C1669 0.929 . S
S1673 N1674 1.613 . S
S1673 N1675 1.610 . S
N1674 S1673 1.613 . S
N1674 C1677 1.350 . S
N1675 S1673 1.610 . S
N1675 C1676 1.351 . S
C1676 C1670 1.428 . S
C1676 N1675 1.351 . S
C1676 C1677 1.434 . S
C1677 C1668 1.429 . S
C1677 N1674 1.350 . S
C1677 C1676 1.434 . S
C1678 C1679 1.369 . S
C1678 C1680 1.419 . S
C1678 H1682 0.930 . S
C1679 C1678 1.369 . S
C1679 C1688 1.429 . S
C1680 C1678 1.419 . S
C1680 C1681 1.363 . S
C1680 H1683 0.929 . S
C1681 C1680 1.363 . S
C1681 C1687 1.428 . S
H1682 C1678 0.930 . S
H1683 C1680 0.929 . S
S1684 N1685 1.613 . S
S1684 N1686 1.610 . S
N1685 S1684 1.613 . S
N1685 C1688 1.350 . S
N1686 S1684 1.610 . S
N1686 C1687 1.351 . S
C1687 C1681 1.428 . S
C1687 N1686 1.351 . S
C1687 C1688 1.434 . S
C1688 C1679 1.429 . S
C1688 N1685 1.350 . S
C1688 C1687 1.434 . S
C1689 C1690 1.369 . S
C1689 C1691 1.419 . S
C1689 H1693 0.930 . S
C1690 C1689 1.369 . S
C1690 C1699 1.429 . S
C1691 C1689 1.419 . S
C1691 C1692 1.363 . S
C1691 H1694 0.929 . S
C1692 C1691 1.363 . S
C1692 C1698 1.428 . S
H1693 C1689 0.930 . S
H1694 C1691 0.929 . S
S1695 N1696 1.615 . S
S1695 N1697 1.617 . S
N1696 S1695 1.615 . S
N1696 C1699 1.350 . S
N1697 S1695 1.617 . S
N1697 C1698 1.351 . S
C1698 C1692 1.428 . S
C1698 N1697 1.351 . S
C1698 C1699 1.434 . S
C1699 C1690 1.429 . S
C1699 N1696 1.350 . S
C1699 C1698 1.434 . S
C1700 C1701 1.369 . S
C1700 C1702 1.419 . S
C1700 H1704 0.930 . S
C1701 C1700 1.369 . S
C1701 C1710 1.429 . S
C1702 C1700 1.419 . S
C1702 C1703 1.363 . S
C1702 H1705 0.929 . S
C1703 C1702 1.363 . S
C1703 C1709 1.428 . S
H1704 C1700 0.930 . S
H1705 C1702 0.929 . S
S1706 N1707 1.613 . S
S1706 N1708 1.610 . S
N1707 S1706 1.613 . S
N1707 C1710 1.350 . S
N1708 S1706 1.610 . S
N1708 C1709 1.351 . S
C1709 C1703 1.428 . S
C1709 N1708 1.351 . S
C1709 C1710 1.434 . S
C1710 C1701 1.429 . S
C1710 N1707 1.350 . S
C1710 C1709 1.434 . S
C1711 C1712 1.369 . S
C1711 C1713 1.419 . S
C1711 H1715 0.930 . S
C1712 C1711 1.369 . S
C1712 C1721 1.429 . S
C1713 C1711 1.419 . S
C1713 C1714 1.363 . S
C1713 H1716 0.929 . S
C1714 C1713 1.363 . S
C1714 C1720 1.428 . S
H1715 C1711 0.930 . S
H1716 C1713 0.929 . S
S1717 N1718 1.613 . S
S1717 N1719 1.610 . S
N1718 S1717 1.613 . S
N1718 C1721 1.350 . S
N1719 S1717 1.610 . S
N1719 C1720 1.351 . S
C1720 C1714 1.428 . S
C1720 N1719 1.351 . S
C1720 C1721 1.434 . S
C1721 C1712 1.429 . S
C1721 N1718 1.350 . S
C1721 C1720 1.434 . S
C1722 C1723 1.369 . S
C1722 C1724 1.419 . S
C1722 H1726 0.930 . S
C1723 C1722 1.369 . S
C1723 C1732 1.429 . S
C1724 C1722 1.419 . S
C1724 C1725 1.363 . S
C1724 H1727 0.929 . S
C1725 C1724 1.363 . S
C1725 C1731 1.428 . S
H1726 C1722 0.930 . S
H1727 C1724 0.929 . S
S1728 N1729 1.613 . S
S1728 N1730 1.610 . S
N1729 S1728 1.613 . S
N1729 C1732 1.350 . S
N1730 S1728 1.610 . S
N1730 C1731 1.351 . S
C1731 C1725 1.428 . S
C1731 N1730 1.351 . S
C1731 C1732 1.434 . S
C1732 C1723 1.429 . S
C1732 N1729 1.350 . S
C1732 C1731 1.434 . S
C1733 C1734 1.369 . S
C1733 C1735 1.419 . S
C1733 H1737 0.930 . S
C1734 C1733 1.369 . S
C1734 C1743 1.429 . S
C1735 C1733 1.419 . S
C1735 C1736 1.363 1_455 S
C1735 H1738 0.929 . S
C1736 C1735 1.363 1_655 S
C1736 C1742 1.428 . S
H1737 C1733 0.930 . S
H1738 C1735 0.929 . S
S1739 N1740 1.613 1_655 S
S1739 N1741 1.610 1_565 S
N1740 S1739 1.613 1_455 S
N1740 C1743 1.350 1_565 S
N1741 S1739 1.610 1_545 S
N1741 C1742 1.351 . S
C1742 C1736 1.428 . S
C1742 N1741 1.351 . S
C1742 C1743 1.434 1_655 S
C1743 C1734 1.429 . S
C1743 N1740 1.350 1_545 S
C1743 C1742 1.434 1_455 S
C691 C343 1.307 . S
C689 C7 1.379 . S
C700 C23 1.343 . S
C702 C363 1.247 . S
C713 C384 1.188 . S
C711 C36 1.267 . S
C724 C411 1.240 . S
C722 C45 1.329 . S
C735 C367 1.235 . S
C733 C59 1.326 . S
C744 C78 1.261 . S
C746 C387 1.192 . S
C757 C407 1.251 . S
C755 C93 1.336 . S
C766 C105 1.381 . S
C768 C340 1.304 . S
C777 C115 1.402 . S
C779 C345 1.297 . S
C790 C362 1.244 . S
C788 C133 1.306 . S
C801 C386 1.216 . S
C799 C148 1.305 . S
C812 C410 1.216 . S
C810 C163 1.304 . S
C823 C366 1.219 . S
C821 C121 1.301 . S
C834 C389 1.223 . S
C832 C134 1.305 . S
C843 C147 1.311 . S
C845 C406 1.237 . S
C856 C342 1.304 . S
C854 C157 1.401 . S
C865 C175 1.367 . S
C867 C344 1.293 . S
C876 C191 1.350 . S
C878 C431 1.266 . S
C889 C451 1.223 . S
C887 C199 1.303 . S
C900 C474 1.206 . S
C898 C218 1.281 . S
C909 C231 1.371 . S
C911 C341 1.286 . S
C920 C241 1.303 . S
C922 C385 1.218 . S
C933 C475 1.260 . S
C931 C205 1.358 . S
C944 C430 1.198 . S
C942 C260 1.282 . S
C955 C498 1.145 . S
C953 C22 1.192 . S
C966 C519 1.263 . S
C964 C9 1.294 . S
C975 C49 1.324 . S
C977 C538 1.263 . S
C986 C31 1.259 . S
C988 C563 1.197 . S
C997 C101 1.260 . S
C999 C518 1.198 . S
C1008 C91 1.324 . S
C1010 C543 1.266 . S
C1021 C562 1.256 . S
C1019 C79 1.289 . S
C1030 C64 1.189 . S
C1032 C495 1.139 . S
C1041 C274 1.194 . S
C1043 C499 1.150 . S
C1054 C520 1.197 . S
C1052 C213 1.259 . S
C1065 C539 1.273 . S
C1063 C233 1.306 . S
C1076 C564 1.255 . S
C1074 C189 1.303 . S
C1087 C516 1.254 . S
C1085 C273 1.302 . S
C1098 C541 1.275 . S
C1096 C219 1.311 . S
C1109 C560 1.204 . S
C1107 C227 1.259 . S
C1118 C190 1.192 . S
C1120 C496 1.145 . S
C1131 C497 1.166 . S
C1129 C289 1.194 . S
C1140 C162 1.286 . S
C1142 C583 1.241 . S
C1153 C608 1.208 . S
C1151 C301 1.271 . S
C1162 C129 1.308 . S
C1164 C627 1.259 . S
C1175 C494 1.159 . S
C1173 C149 1.193 . S
C1186 C540 1.213 . S
C1184 C315 1.273 . S
C1197 C631 1.240 . S
C1195 C302 1.286 . S
C1206 C325 1.304 . S
C1208 C587 1.250 . S
C1217 C35 1.385 . S
C1219 C651 1.300 . S
C1228 C51 1.338 . S
C1230 C429 1.242 . S
C1241 C453 1.181 . S
C1239 C8 1.270 . S
C1250 C17 1.323 . S
C1252 C477 1.243 . S
C1261 C87 1.330 . S
C1263 C433 1.235 . S
C1272 C106 1.270 . S
C1274 C450 1.183 . S
C1285 C473 1.253 . S
C1283 C65 1.336 . S
C1296 C648 1.298 . S
C1294 C77 1.386 . S
C1307 C653 1.303 . S
C1305 C297 1.395 . S
C1318 C428 1.232 . S
C1316 C287 1.315 . S
C1329 C455 1.227 . S
C1327 C330 1.298 . S
C1338 C317 1.302 . S
C1340 C476 1.206 . S
C1351 C432 1.215 . S
C1349 C303 1.298 . S
C1360 C288 1.308 . S
C1362 C452 1.216 . S
C1373 C472 1.232 . S
C1371 C329 1.315 . S
C1382 C311 1.396 . S
C1384 C650 1.302 . S
C1395 C652 1.293 . S
C1393 C217 1.366 . S
C1404 C247 1.356 . S
C1406 C365 1.266 . S
C1417 C388 1.220 . S
C1415 C269 1.303 . S
C1426 C176 1.282 . S
C1428 C408 1.198 . S
C1439 C649 1.293 . S
C1437 C259 1.366 . S
C1450 C454 1.214 . S
C1448 C185 1.305 . S
C1461 C409 1.263 . S
C1459 C275 1.349 . S
C1472 C364 1.197 . S
C1470 C232 1.285 . S
C1481 C50 1.190 . S
C1483 C675 1.141 . S
C1492 C37 1.296 . S
C1494 C585 1.263 . S
C1503 C21 1.321 . S
C1505 C604 1.268 . S
C1516 C629 1.204 . S
C1514 C3 1.261 . S
C1527 C584 1.203 . S
C1525 C73 1.261 . S
C1536 C63 1.321 . S
C1538 C609 1.260 . S
C1549 C628 1.264 . S
C1547 C107 1.295 . S
C1558 C92 1.191 . S
C1560 C670 1.143 . S
C1571 C673 1.142 . S
C1569 C204 1.191 . S
C1580 C171 1.259 . S
C1582 C586 1.197 . S
C1591 C261 1.308 . S
C1593 C605 1.267 . S
C1604 C630 1.246 . S
C1602 C245 1.303 . S
C1615 C582 1.254 . S
C1613 C203 1.305 . S
C1624 C177 1.312 . S
C1626 C607 1.273 . S
C1637 C626 1.202 . S
C1635 C255 1.262 . S
C1648 C671 1.148 . S
C1646 C246 1.194 . S
C1659 C674 1.165 . S
C1657 C135 1.193 . S
C1670 C517 1.240 . S
C1668 C316 1.286 . S
C1679 C119 1.269 . S
C1681 C542 1.212 . S
C1690 C283 1.305 . S
C1692 C561 1.249 . S
C1703 C672 1.168 . S
C1701 C331 1.196 . S
C1714 C606 1.215 . S
C1712 C161 1.269 . S
C1725 C565 1.233 . S
C1723 C120 1.283 . S
C1736 C521 1.256 . S
C1734 C143 1.304 . S
