# Generated by pormake.
# Topology pth, (4,4)-cn, num edge types: 1
# Building blocks:
#     Node 0, Type 0, BuildingBlock: AZAVOO_clean_sbu_0, # of connection points: 4
#     Node 1, Type 0, BuildingBlock: AZAVOO_clean_sbu_0, # of connection points: 4
#     Node 2, Type 0, BuildingBlock: AZAVOO_clean_sbu_0, # of connection points: 4
#     Node 3, Type 1, BuildingBlock: MUDLON_clean_sbu_0, # of connection points: 4
#     Node 4, Type 1, BuildingBlock: MUDLON_clean_sbu_0, # of connection points: 4
#     Node 5, Type 1, BuildingBlock: MUDLON_clean_sbu_0, # of connection points: 4
#     Edge 6, Type (0, 1), BuildingBlock: EZIPEK_clean_linker_0, # of connection points: 2
#     Edge 7, Type (0, 1), BuildingBlock: EZIPEK_clean_linker_0, # of connection points: 2
#     Edge 8, Type (0, 1), BuildingBlock: EZIPEK_clean_linker_0, # of connection points: 2
#     Edge 9, Type (0, 1), BuildingBlock: EZIPEK_clean_linker_0, # of connection points: 2
#     Edge 10, Type (0, 1), BuildingBlock: EZIPEK_clean_linker_0, # of connection points: 2
#     Edge 11, Type (0, 1), BuildingBlock: EZIPEK_clean_linker_0, # of connection points: 2
#     Edge 12, Type (0, 1), BuildingBlock: EZIPEK_clean_linker_0, # of connection points: 2
#     Edge 13, Type (0, 1), BuildingBlock: EZIPEK_clean_linker_0, # of connection points: 2
#     Edge 14, Type (0, 1), BuildingBlock: EZIPEK_clean_linker_0, # of connection points: 2
#     Edge 15, Type (0, 1), BuildingBlock: EZIPEK_clean_linker_0, # of connection points: 2
#     Edge 16, Type (0, 1), BuildingBlock: EZIPEK_clean_linker_0, # of connection points: 2
#     Edge 17, Type (0, 1), BuildingBlock: EZIPEK_clean_linker_0, # of connection points: 2
# Relax obj value: 0.106
# Max RMSD: 0.232
# Mean RMSD: 0.137
data_MOF--net-pth--node1-AZAVOO_clean_sbu_0--node2-MUDLON_clean_sbu_0--edge1-EZIPEK_clean_linker_0
_symmetry_space_group_name_H-M    P1
_symmetry_Int_Tables_number       1
_symmetry_cell_setting            triclinic
loop_
_symmetry_equiv_pos_as_xyz
'x, y, z'
_cell_length_a     16.683638
_cell_length_b     17.076845
_cell_length_c     44.659002
_cell_angle_alpha  91.462786
_cell_angle_beta   93.361068
_cell_angle_gamma 122.47493
loop_
_atom_site_label
_atom_site_type_symbol
_atom_site_fract_x
_atom_site_fract_y
_atom_site_fract_z
_atom_type_partial_charge
Mg0 Mg 0.15973 0.14239 0.09007 0.0
O1 O 0.02471 0.05444 0.05747 0.0
O2 O 0.00272 0.15292 0.03238 0.0
Mg3 Mg 0.13047 0.30189 0.04499 0.0
C4 C 0.97406 0.07014 0.03901 0.0
C5 C 0.19407 0.02676 0.13521 0.0
O6 O 0.11919 0.01217 0.1187 0.0
O7 O 0.07855 0.18527 0.11863 0.0
O8 O 0.07918 0.29575 0.09238 0.0
O9 O 0.25672 0.14348 0.05721 0.0
O10 O 0.21828 0.24832 0.06099 0.0
C11 C 0.06171 0.24959 0.11585 0.0
C12 C 0.26586 0.21923 0.04833 0.0
O13 O 0.12316 0.01578 0.11871 0.0
Mg14 Mg 0.95697 0.04883 0.41357 0.0
O15 O 0.09285 0.09111 0.44474 0.0
O16 O 0.1207 0.20713 0.47707 0.0
Mg17 Mg 0.00319 0.236 0.46796 0.0
C18 C 0.14246 0.15145 0.4666 0.0
C19 C 0.92186 0.87919 0.37359 0.0
O20 O 0.83924 0.84411 0.38492 0.0
O21 O 0.03613 0.1819 0.38791 0.0
O22 O 0.06017 0.29044 0.42267 0.0
O23 O 0.86234 0.94637 0.44589 0.0
O24 O 0.90473 0.09306 0.4471 0.0
C25 C 0.06652 0.26647 0.39604 0.0
C26 C 0.85696 0.01283 0.45807 0.0
O27 O 0.98762 0.96381 0.38071 0.0
Mg28 Mg 0.02816 0.01071 0.74444 0.0
O29 O 0.1221 0.13437 0.77942 0.0
O30 O 0.01911 0.15238 0.80428 0.0
Mg31 Mg 0.86497 0.0354 0.78933 0.0
C32 C 0.104 0.17724 0.79919 0.0
C33 C 0.14415 0.96855 0.70502 0.0
O34 O 0.07775 0.88713 0.71348 0.0
O35 O 0.99104 0.10088 0.71757 0.0
O36 O 0.87315 0.09069 0.74229 0.0
O37 O 0.01976 0.90468 0.77535 0.0
O38 O 0.92233 0.95431 0.77372 0.0
C39 C 0.92241 0.11322 0.71954 0.0
C40 C 0.94638 0.90082 0.78518 0.0
O41 O 0.14862 0.04138 0.71511 0.0
Mg42 Mg 0.09335 0.6047 0.2558 0.0
C43 C 0.12011 0.49487 0.29983 0.0
O44 O 0.03872 0.43583 0.28438 0.0
C45 C 0.12292 0.7341 0.21193 0.0
O46 O 0.03205 0.66759 0.20866 0.0
C47 C 0.97694 0.41662 0.21251 0.0
O48 O 0.89871 0.38693 0.22606 0.0
O49 O 0.05229 0.49464 0.22088 0.0
O50 O 0.1659 0.57951 0.29327 0.0
O51 O 0.995 0.63821 0.2738 0.0
C52 C 0.97603 0.62646 0.30109 0.0
O53 O 0.99478 0.57251 0.31619 0.0
O54 O 0.17745 0.72825 0.23169 0.0
Mg55 Mg 0.56437 0.13142 0.57944 0.0
C56 C 0.43654 0.13792 0.53627 0.0
O57 O 0.41168 0.05099 0.53764 0.0
C58 C 0.69759 0.14431 0.62646 0.0
O59 O 0.62166 0.05959 0.62512 0.0
C60 C 0.39174 0.98614 0.61614 0.0
O61 O 0.38342 0.91544 0.60059 0.0
O62 O 0.45535 0.06889 0.61108 0.0
O63 O 0.50985 0.2008 0.55265 0.0
O64 O 0.5874 0.05637 0.54418 0.0
C65 C 0.61209 0.99826 0.54711 0.0
O66 O 0.60651 0.96143 0.57292 0.0
O67 O 0.69822 0.20201 0.60873 0.0
Mg68 Mg 0.58419 0.59121 0.91827 0.0
C69 C 0.43062 0.45666 0.87526 0.0
O70 O 0.47546 0.41717 0.88506 0.0
C71 C 0.71418 0.7457 0.96262 0.0
O72 O 0.76217 0.70787 0.95582 0.0
C73 C 0.55322 0.45839 0.96989 0.0
O74 O 0.64261 0.51667 0.97998 0.0
O75 O 0.52148 0.47086 0.94524 0.0
O76 O 0.46158 0.54001 0.88491 0.0
O77 O 0.71141 0.64434 0.89388 0.0
C78 C 0.70649 0.62398 0.86603 0.0
O79 O 0.62836 0.55023 0.85331 0.0
O80 O 0.6301 0.71095 0.95001 0.0
C81 C 0.08486 0.307 0.17 0.0
C82 C 0.02959 0.27857 0.14186 0.0
C83 C 0.9301 0.33169 0.16098 0.0
C84 C 0.98337 0.35642 0.18938 0.0
N85 N 0.08979 0.33912 0.22327 0.0
N86 N 0.88607 0.24306 0.11288 0.0
C87 C 0.05369 0.33468 0.1946 0.0
C88 C 0.94775 0.28434 0.13808 0.0
N89 N 0.17061 0.31402 0.17291 0.0
N90 N 0.8662 0.3573 0.15536 0.0
H91 H 0.89616 0.20651 0.09601 0.0
H92 H 0.82066 0.23733 0.11008 0.0
H93 H 0.85068 0.39099 0.17164 0.0
H94 H 0.83344 0.3508 0.13406 0.0
H95 H 0.21799 0.34423 0.19211 0.0
H96 H 0.19951 0.29896 0.15529 0.0
H97 H 0.13467 0.31564 0.2287 0.0
H98 H 0.06566 0.3558 0.24187 0.0
C99 C 0.83295 0.06483 0.50763 0.0
C100 C 0.79542 0.99788 0.48299 0.0
C101 C 0.63906 0.91963 0.50384 0.0
C102 C 0.67416 0.99635 0.52509 0.0
N103 N 0.80177 0.1532 0.5424 0.0
N104 N 0.65635 0.86656 0.45527 0.0
C105 C 0.77018 0.07239 0.52556 0.0
C106 C 0.69677 0.9256 0.48054 0.0
N107 N 0.9289 0.11854 0.51487 0.0
N108 N 0.55042 0.84195 0.5056 0.0
H109 H 0.69429 0.86977 0.43716 0.0
H110 H 0.58311 0.81947 0.4511 0.0
H111 H 0.50541 0.83702 0.52174 0.0
H112 H 0.52491 0.78029 0.4926 0.0
H113 H 0.95972 0.1632 0.53424 0.0
H114 H 0.97583 0.1089 0.50346 0.0
H115 H 0.86889 0.21311 0.54087 0.0
H116 H 0.75883 0.16333 0.55589 0.0
C117 C 0.78656 0.78161 0.80176 0.0
C118 C 0.88745 0.83247 0.80696 0.0
C119 C 0.87149 0.74178 0.85067 0.0
C120 C 0.77108 0.69855 0.84685 0.0
N121 N 0.64011 0.70816 0.82579 0.0
N122 N 0.0254 0.87548 0.84084 0.0
C123 C 0.73058 0.72761 0.8245 0.0
C124 C 0.93015 0.81672 0.83271 0.0
N125 N 0.74319 0.78037 0.77466 0.0
N126 N 0.91067 0.71036 0.87091 0.0
H127 H 0.06955 0.93374 0.8292 0.0
H128 H 0.05833 0.87213 0.86088 0.0
H129 H 0.86968 0.65607 0.88444 0.0
H130 H 0.98265 0.73313 0.87249 0.0
H131 H 0.66962 0.73771 0.76954 0.0
H132 H 0.7804 0.81194 0.75611 0.0
H133 H 0.61058 0.73432 0.81107 0.0
H134 H 0.60019 0.67725 0.84395 0.0
C135 C 0.21864 0.97659 0.185 0.0
C136 C 0.18743 0.95333 0.15399 0.0
C137 C 0.14266 0.79281 0.16058 0.0
C138 C 0.15837 0.8127 0.19221 0.0
N139 N 0.20447 0.92166 0.23508 0.0
N140 N 0.12856 0.84207 0.11112 0.0
C141 C 0.19608 0.90443 0.20462 0.0
C142 C 0.15187 0.86206 0.1414 0.0
N143 N 0.26956 0.06778 0.19576 0.0
N144 N 0.12246 0.70855 0.14899 0.0
H145 H 0.14624 0.89308 0.09589 0.0
H146 H 0.08998 0.77482 0.10101 0.0
H147 H 0.11835 0.65771 0.16248 0.0
H148 H 0.11808 0.69153 0.12616 0.0
H149 H 0.30284 0.0899 0.21747 0.0
H150 H 0.28586 0.12246 0.18218 0.0
H151 H 0.22023 0.98446 0.24527 0.0
H152 H 0.18873 0.87106 0.25032 0.0
C153 C 0.19936 0.1 0.51006 0.0
C154 C 0.22011 0.14898 0.48355 0.0
C155 C 0.38872 0.20018 0.49268 0.0
C156 C 0.36823 0.1559 0.52017 0.0
N157 N 0.26014 0.08485 0.55864 0.0
N158 N 0.33545 0.25627 0.45136 0.0
C159 C 0.27528 0.11241 0.52995 0.0
C160 C 0.31531 0.20255 0.47538 0.0
N161 N 0.10673 0.03872 0.5157 0.0
N162 N 0.477 0.23665 0.48261 0.0
H163 H 0.28273 0.25672 0.43772 0.0
H164 H 0.40449 0.30433 0.44604 0.0
H165 H 0.53264 0.23829 0.4952 0.0
H166 H 0.49362 0.26058 0.46124 0.0
H167 H 0.08729 0.99437 0.53319 0.0
H168 H 0.04903 0.02498 0.50103 0.0
H169 H 0.19597 0.0613 0.56809 0.0
H170 H 0.31495 0.09502 0.57405 0.0
C171 C 0.25111 0.33906 0.80663 0.0
C172 C 0.18388 0.25445 0.81885 0.0
C173 C 0.26453 0.31902 0.86924 0.0
C174 C 0.33915 0.39778 0.85648 0.0
N175 N 0.40753 0.48206 0.81294 0.0
N176 N 0.13242 0.15868 0.86124 0.0
C177 C 0.3331 0.40824 0.82515 0.0
C178 C 0.19151 0.2433 0.85009 0.0
N179 N 0.23543 0.35398 0.77755 0.0
N180 N 0.26352 0.31719 0.89982 0.0
H181 H 0.07915 0.10058 0.84795 0.0
H182 H 0.14152 0.14348 0.88314 0.0
H183 H 0.31574 0.37224 0.91441 0.0
H184 H 0.20659 0.26586 0.91062 0.0
H185 H 0.2765 0.41767 0.76818 0.0
H186 H 0.17631 0.30466 0.76341 0.0
H187 H 0.41324 0.48806 0.7899 0.0
H188 H 0.46644 0.53531 0.82606 0.0
C189 C 0.86111 0.08664 0.66504 0.0
C190 C 0.88809 0.14072 0.6928 0.0
C191 C 0.80947 0.21897 0.6735 0.0
C192 C 0.78241 0.16411 0.64605 0.0
N193 N 0.81059 0.0713 0.6123 0.0
N194 N 0.91037 0.27481 0.72054 0.0
C195 C 0.81878 0.10736 0.64071 0.0
C196 C 0.86982 0.2127 0.69602 0.0
N197 N 0.86685 0.00977 0.66244 0.0
N198 N 0.77333 0.27283 0.67867 0.0
H199 H 0.95586 0.27233 0.73701 0.0
H200 H 0.90626 0.33332 0.72308 0.0
H201 H 0.7317 0.28086 0.66222 0.0
H202 H 0.78088 0.30581 0.69953 0.0
H203 H 0.83754 0.96253 0.64368 0.0
H204 H 0.89155 0.98672 0.67985 0.0
H205 H 0.84394 0.03692 0.60629 0.0
H206 H 0.77885 0.08511 0.59428 0.0
C207 C 0.8394 0.99605 0.99629 0.0
C208 C 0.883 0.98846 0.02349 0.0
C209 C 0.78837 0.81858 0.01459 0.0
C210 C 0.75989 0.82756 0.98487 0.0
N211 N 0.76111 0.92593 0.94679 0.0
N212 N 0.85331 0.89129 0.0648 0.0
C213 C 0.78459 0.91638 0.97571 0.0
C214 C 0.84388 0.89908 0.0346 0.0
N215 N 0.84273 0.07624 0.99123 0.0
N216 N 0.76555 0.7335 0.02343 0.0
H217 H 0.88349 0.94877 0.08029 0.0
H218 H 0.81987 0.82809 0.07483 0.0
H219 H 0.7213 0.67227 0.01011 0.0
H220 H 0.79505 0.72425 0.04318 0.0
H221 H 0.80654 0.08323 0.97274 0.0
H222 H 0.86734 0.13 0.00779 0.0
H223 H 0.78822 0.99026 0.93774 0.0
H224 H 0.72033 0.86973 0.93105 0.0
C225 C 0.87303 0.76652 0.3283 0.0
C226 C 0.93843 0.8187 0.35368 0.0
C227 C 0.03599 0.75763 0.34031 0.0
C228 C 0.96356 0.69495 0.31796 0.0
N229 N 0.80872 0.63377 0.29206 0.0
N230 N 0.07289 0.84896 0.3871 0.0
C231 C 0.88083 0.69789 0.31223 0.0
C232 C 0.01763 0.81047 0.36055 0.0
N233 N 0.80593 0.78512 0.31878 0.0
N234 N 0.12411 0.7699 0.34142 0.0
H235 H 0.06029 0.88533 0.40327 0.0
H236 H 0.12516 0.83636 0.39445 0.0
H237 H 0.14236 0.73678 0.32582 0.0
H238 H 0.18206 0.82102 0.35549 0.0
H239 H 0.76243 0.75585 0.2988 0.0
H240 H 0.8001 0.8369 0.32928 0.0
H241 H 0.74222 0.62576 0.28931 0.0
H242 H 0.81298 0.58374 0.27963 0.0
C243 C 0.30614 0.01391 0.69033 0.0
C244 C 0.20749 0.97307 0.68217 0.0
C245 C 0.22799 0.93564 0.63069 0.0
C246 C 0.32567 0.97225 0.63932 0.0
N247 N 0.45416 0.03025 0.6783 0.0
N248 N 0.07125 0.88729 0.64571 0.0
C249 C 0.36379 0.00721 0.66942 0.0
C250 C 0.16741 0.93102 0.65272 0.0
N251 N 0.34486 0.05932 0.71805 0.0
N252 N 0.19429 0.91012 0.6011 0.0
H253 H 0.02552 0.89 0.66003 0.0
H254 H 0.03563 0.84452 0.62624 0.0
H255 H 0.2358 0.91153 0.58431 0.0
H256 H 0.12723 0.89376 0.59261 0.0
H257 H 0.41789 0.10024 0.7241 0.0
H258 H 0.3043 0.06134 0.73459 0.0
H259 H 0.48363 0.04768 0.70048 0.0
H260 H 0.497 0.02325 0.66381 0.0
C261 C 0.34168 0.24244 -0.00078 0.0
C262 C 0.33984 0.27831 0.02803 0.0
C263 C 0.4725 0.43251 0.01751 0.0
C264 C 0.48243 0.39491 0.99032 0.0
N265 N 0.43327 0.26145 0.95658 0.0
N266 N 0.42109 0.40191 0.06754 0.0
C267 C 0.41886 0.29888 0.98152 0.0
C268 C 0.41045 0.37165 0.03807 0.0
N269 N 0.26799 0.1562 0.9883 0.0
N270 N 0.51716 0.52657 0.02296 0.0
H271 H 0.3803 0.35893 0.08393 0.0
H272 H 0.47776 0.46689 0.07633 0.0
H273 H 0.55675 0.57396 0.00736 0.0
H274 H 0.50478 0.5567 0.04124 0.0
H275 H 0.26025 0.13003 0.96628 0.0
H276 H 0.20987 0.11385 0.00048 0.0
H277 H 0.39511 0.19035 0.95059 0.0
H278 H 0.48903 0.30091 0.9432 0.0
C279 C 0.15425 0.33817 0.34975 0.0
C280 C 0.10001 0.33804 0.37325 0.0
C281 C 0.11559 0.47873 0.35451 0.0
C282 C 0.14525 0.46332 0.32739 0.0
N283 N 0.19674 0.37954 0.29882 0.0
N284 N 0.00874 0.39934 0.39227 0.0
C285 C 0.16649 0.3936 0.32497 0.0
C286 C 0.0762 0.40683 0.3745 0.0
N287 N 0.1961 0.28807 0.35143 0.0
N288 N 0.12173 0.56039 0.3607 0.0
H289 H 0.9655 0.34083 0.40388 0.0
H290 H 0.98581 0.44539 0.39185 0.0
H291 H 0.15474 0.61538 0.34678 0.0
H292 H 0.1054 0.5767 0.38121 0.0
H293 H 0.24189 0.29132 0.33591 0.0
H294 H 0.19369 0.25161 0.37009 0.0
H295 H 0.20277 0.32283 0.2943 0.0
H296 H 0.2122 0.42357 0.28129 0.0
loop_
_geom_bond_atom_site_label_1
_geom_bond_atom_site_label_2
_geom_bond_distance
_geom_bond_site_symmetry_2
_ccdc_geom_bond_type
Mg0 O1 2.028 . S
Mg0 O7 1.986 . S
Mg0 O9 2.114 . S
Mg0 O10 2.251 . S
Mg0 O13 2.010 . S
O1 Mg0 2.028 . S
O1 C4 1.250 1_455 S
O2 Mg3 2.028 1_655 S
O2 C4 1.248 . S
Mg3 O2 2.028 1_455 S
Mg3 O8 2.032 . S
Mg3 O10 2.079 . S
C4 O1 1.250 1_655 S
C4 O2 1.248 . S
C5 O6 1.264 1_565 S
C5 O13 1.249 1_565 S
O6 C5 1.264 1_545 S
O7 Mg0 1.986 . S
O7 C11 1.246 . S
O8 Mg3 2.032 . S
O8 C11 1.259 . S
O9 Mg0 2.114 . S
O9 C12 1.252 . S
O10 Mg0 2.251 . S
O10 Mg3 2.079 . S
O10 C12 1.273 . S
C11 O7 1.246 . S
C11 O8 1.259 . S
C12 O9 1.252 . S
C12 O10 1.273 . S
O13 Mg0 2.010 . S
O13 C5 1.249 1_545 S
Mg14 O15 2.028 1_655 S
Mg14 O21 1.986 1_655 S
Mg14 O23 2.114 1_545 S
Mg14 O24 2.251 . S
Mg14 O27 2.010 1_545 S
O15 Mg14 2.028 1_455 S
O15 C18 1.250 . S
O16 Mg17 2.028 . S
O16 C18 1.248 . S
Mg17 O16 2.028 . S
Mg17 O22 2.032 . S
Mg17 O24 2.079 1_455 S
C18 O15 1.250 . S
C18 O16 1.248 . S
C19 O20 1.264 . S
C19 O27 1.249 . S
O20 C19 1.264 . S
O21 Mg14 1.986 1_455 S
O21 C25 1.246 . S
O22 Mg17 2.032 . S
O22 C25 1.259 . S
O23 Mg14 2.114 1_565 S
O23 C26 1.252 1_565 S
O24 Mg14 2.251 . S
O24 Mg17 2.079 1_655 S
O24 C26 1.273 . S
C25 O21 1.246 . S
C25 O22 1.259 . S
C26 O23 1.252 1_545 S
C26 O24 1.273 . S
O27 Mg14 2.010 1_565 S
O27 C19 1.249 . S
Mg28 O29 2.028 . S
Mg28 O35 1.986 1_455 S
Mg28 O37 2.114 1_545 S
Mg28 O38 2.251 1_445 S
Mg28 O41 2.010 . S
O29 Mg28 2.028 . S
O29 C32 1.250 . S
O30 Mg31 2.028 1_455 S
O30 C32 1.248 . S
Mg31 O30 2.028 1_655 S
Mg31 O36 2.032 . S
Mg31 O38 2.079 1_545 S
C32 O29 1.250 . S
C32 O30 1.248 . S
C33 O34 1.254 1_545 S
C33 O41 1.257 . S
O34 C33 1.254 1_565 S
O35 Mg28 1.986 1_655 S
O35 C39 1.246 . S
O36 Mg31 2.032 . S
O36 C39 1.259 . S
O37 Mg28 2.114 1_565 S
O37 C40 1.252 1_455 S
O38 Mg28 2.251 1_665 S
O38 Mg31 2.079 1_565 S
O38 C40 1.273 . S
C39 O35 1.246 . S
C39 O36 1.259 . S
C40 O37 1.252 1_655 S
C40 O38 1.273 . S
O41 Mg28 2.010 . S
O41 C33 1.257 . S
Mg42 O49 2.141 . S
Mg42 O50 2.048 . S
Mg42 O51 2.048 . S
Mg42 O54 2.141 . S
C43 O44 1.313 1_455 S
C43 O50 1.195 . S
O44 C43 1.313 1_655 S
C45 O46 1.245 1_455 S
C45 O54 1.289 . S
O46 C45 1.245 1_655 S
C47 O48 1.245 1_455 S
C47 O49 1.289 . S
O48 C47 1.245 1_655 S
O49 Mg42 2.141 . S
O49 C47 1.289 . S
O50 Mg42 2.048 . S
O50 C43 1.195 . S
O51 Mg42 2.048 . S
O51 C52 1.195 . S
C52 O51 1.195 . S
C52 O53 1.313 1_455 S
O53 C52 1.313 1_655 S
O54 Mg42 2.141 . S
O54 C45 1.289 . S
Mg55 O62 2.141 . S
Mg55 O63 2.048 . S
Mg55 O64 2.048 . S
Mg55 O67 2.141 . S
C56 O57 1.313 . S
C56 O63 1.195 . S
O57 C56 1.313 . S
C58 O59 1.245 . S
C58 O67 1.289 . S
O59 C58 1.245 . S
C60 O61 1.245 . S
C60 O62 1.289 . S
O61 C60 1.245 . S
O62 Mg55 2.141 . S
O62 C60 1.289 . S
O63 Mg55 2.048 . S
O63 C56 1.195 . S
O64 Mg55 2.048 . S
O64 C65 1.195 . S
C65 O64 1.195 . S
C65 O66 1.313 . S
O66 C65 1.313 . S
O67 Mg55 2.141 . S
O67 C58 1.289 . S
Mg68 O75 2.141 . S
Mg68 O76 2.048 . S
Mg68 O77 2.048 . S
Mg68 O80 2.141 . S
C69 O70 1.313 . S
C69 O76 1.195 . S
O70 C69 1.313 . S
C71 O72 1.245 . S
C71 O80 1.289 . S
O72 C71 1.245 . S
C73 O74 1.245 . S
C73 O75 1.289 . S
O74 C73 1.245 . S
O75 Mg68 2.141 . S
O75 C73 1.289 . S
O76 Mg68 2.048 . S
O76 C69 1.195 . S
O77 Mg68 2.048 . S
O77 C78 1.195 . S
C78 O77 1.195 . S
C78 O79 1.313 . S
O79 C78 1.313 . S
O80 Mg68 2.141 . S
O80 C71 1.289 . S
C81 C82 1.363 . S
C81 C87 1.379 . S
C81 N89 1.356 . S
C82 C81 1.363 . S
C82 C88 1.363 . S
C83 C84 1.363 . S
C83 C88 1.379 . S
C83 N90 1.356 1_455 S
C84 C83 1.363 . S
C84 C87 1.363 . S
N85 C87 1.356 . S
N85 H97 0.984 . S
N85 H98 0.985 . S
N86 C88 1.356 1_655 S
N86 H91 0.984 . S
N86 H92 0.985 . S
C87 C81 1.379 . S
C87 C84 1.363 . S
C87 N85 1.356 . S
C88 C82 1.363 . S
C88 C83 1.379 . S
C88 N86 1.356 1_455 S
N89 C81 1.356 . S
N89 H95 0.984 . S
N89 H96 0.984 . S
N90 C83 1.356 1_655 S
N90 H93 0.984 1_655 S
N90 H94 0.985 . S
H91 N86 0.984 . S
H92 N86 0.985 . S
H93 N90 0.984 1_455 S
H94 N90 0.985 . S
H95 N89 0.984 . S
H96 N89 0.984 . S
H97 N85 0.984 . S
H98 N85 0.985 . S
C99 C100 1.363 . S
C99 C105 1.379 . S
C99 N107 1.356 . S
C100 C99 1.363 . S
C100 C106 1.363 1_545 S
C101 C102 1.363 1_565 S
C101 C106 1.379 . S
C101 N108 1.356 . S
C102 C101 1.363 1_545 S
C102 C105 1.363 . S
N103 C105 1.356 . S
N103 H115 0.984 . S
N103 H116 0.985 . S
N104 C106 1.356 . S
N104 H109 0.984 . S
N104 H110 0.985 . S
C105 C99 1.379 . S
C105 C102 1.363 . S
C105 N103 1.356 . S
C106 C100 1.363 1_565 S
C106 C101 1.379 . S
C106 N104 1.356 . S
N107 C99 1.356 . S
N107 H113 0.984 . S
N107 H114 0.984 . S
N108 C101 1.356 . S
N108 H111 0.984 . S
N108 H112 0.985 . S
H109 N104 0.984 . S
H110 N104 0.985 . S
H111 N108 0.984 . S
H112 N108 0.985 . S
H113 N107 0.984 . S
H114 N107 0.984 . S
H115 N103 0.984 . S
H116 N103 0.985 . S
C117 C118 1.363 . S
C117 C123 1.379 . S
C117 N125 1.356 . S
C118 C117 1.363 . S
C118 C124 1.363 . S
C119 C120 1.363 . S
C119 C124 1.379 . S
C119 N126 1.356 . S
C120 C119 1.363 . S
C120 C123 1.363 . S
N121 C123 1.356 . S
N121 H133 0.984 . S
N121 H134 0.985 . S
N122 C124 1.356 . S
N122 H127 0.984 1_655 S
N122 H128 0.985 1_655 S
C123 C117 1.379 . S
C123 C120 1.363 . S
C123 N121 1.356 . S
C124 C118 1.363 . S
C124 C119 1.379 . S
C124 N122 1.356 . S
N125 C117 1.356 . S
N125 H131 0.984 . S
N125 H132 0.984 . S
N126 C119 1.356 . S
N126 H129 0.984 . S
N126 H130 0.985 . S
H127 N122 0.984 1_455 S
H128 N122 0.985 1_455 S
H129 N126 0.984 . S
H130 N126 0.985 . S
H131 N125 0.984 . S
H132 N125 0.984 . S
H133 N121 0.984 . S
H134 N121 0.985 . S
C135 C136 1.363 . S
C135 C141 1.379 . S
C135 N143 1.357 . S
C136 C135 1.363 . S
C136 C142 1.363 . S
C137 C138 1.363 . S
C137 C142 1.379 . S
C137 N144 1.356 1_455 S
C138 C137 1.363 . S
C138 C141 1.363 . S
N139 C141 1.356 . S
N139 H151 0.984 . S
N139 H152 0.985 . S
N140 C142 1.359 . S
N140 H145 0.985 . S
N140 H146 0.981 1_455 S
C141 C135 1.379 . S
C141 C138 1.363 . S
C141 N139 1.356 . S
C142 C136 1.363 . S
C142 C137 1.379 . S
C142 N140 1.359 . S
N143 C135 1.357 . S
N143 H149 0.984 1_565 S
N143 H150 0.984 1_565 S
N144 C137 1.356 1_655 S
N144 H147 0.984 . S
N144 H148 0.985 . S
H145 N140 0.985 . S
H146 N140 0.981 1_655 S
H147 N144 0.984 . S
H148 N144 0.985 . S
H149 N143 0.984 1_545 S
H150 N143 0.984 1_545 S
H151 N139 0.984 . S
H152 N139 0.985 . S
C153 C154 1.363 . S
C153 C159 1.379 . S
C153 N161 1.356 1_545 S
C154 C153 1.363 . S
C154 C160 1.363 . S
C155 C156 1.363 . S
C155 C160 1.379 . S
C155 N162 1.356 . S
C156 C155 1.363 . S
C156 C159 1.363 . S
N157 C159 1.356 1_565 S
N157 H169 0.984 . S
N157 H170 0.985 . S
N158 C160 1.356 . S
N158 H163 0.984 . S
N158 H164 0.985 . S
C159 C153 1.379 . S
C159 C156 1.363 . S
C159 N157 1.356 1_545 S
C160 C154 1.363 . S
C160 C155 1.379 . S
C160 N158 1.356 . S
N161 C153 1.356 1_565 S
N161 H167 0.984 . S
N161 H168 0.984 1_565 S
N162 C155 1.356 . S
N162 H165 0.984 . S
N162 H166 0.985 . S
H163 N158 0.984 . S
H164 N158 0.985 . S
H165 N162 0.984 . S
H166 N162 0.985 . S
H167 N161 0.984 . S
H168 N161 0.984 1_545 S
H169 N157 0.984 . S
H170 N157 0.985 . S
C171 C172 1.363 . S
C171 C177 1.379 . S
C171 N179 1.356 . S
C172 C171 1.363 . S
C172 C178 1.363 . S
C173 C174 1.363 . S
C173 C178 1.379 . S
C173 N180 1.356 . S
C174 C173 1.363 . S
C174 C177 1.363 . S
N175 C177 1.356 . S
N175 H187 0.984 . S
N175 H188 0.985 . S
N176 C178 1.356 . S
N176 H181 0.984 . S
N176 H182 0.985 . S
C177 C171 1.379 . S
C177 C174 1.363 . S
C177 N175 1.356 . S
C178 C172 1.363 . S
C178 C173 1.379 . S
C178 N176 1.356 . S
N179 C171 1.356 . S
N179 H185 0.984 . S
N179 H186 0.984 . S
N180 C173 1.356 . S
N180 H183 0.984 . S
N180 H184 0.985 . S
H181 N176 0.984 . S
H182 N176 0.985 . S
H183 N180 0.984 . S
H184 N180 0.985 . S
H185 N179 0.984 . S
H186 N179 0.984 . S
H187 N175 0.984 . S
H188 N175 0.985 . S
C189 C190 1.363 . S
C189 C195 1.379 . S
C189 N197 1.356 1_545 S
C190 C189 1.363 . S
C190 C196 1.363 . S
C191 C192 1.363 . S
C191 C196 1.379 . S
C191 N198 1.356 . S
C192 C191 1.363 . S
C192 C195 1.363 . S
N193 C195 1.356 1_565 S
N193 H205 0.984 . S
N193 H206 0.985 . S
N194 C196 1.356 . S
N194 H199 0.984 . S
N194 H200 0.985 . S
C195 C189 1.379 . S
C195 C192 1.363 . S
C195 N193 1.356 1_545 S
C196 C190 1.363 . S
C196 C191 1.379 . S
C196 N194 1.356 . S
N197 C189 1.356 1_565 S
N197 H203 0.984 . S
N197 H204 0.984 1_565 S
N198 C191 1.356 . S
N198 H201 0.984 . S
N198 H202 0.985 . S
H199 N194 0.984 . S
H200 N194 0.985 . S
H201 N198 0.984 . S
H202 N198 0.985 . S
H203 N197 0.984 . S
H204 N197 0.984 1_545 S
H205 N193 0.984 . S
H206 N193 0.985 . S
C207 C208 1.363 . S
C207 C213 1.379 1_554 S
C207 N215 1.356 1_565 S
C208 C207 1.363 . S
C208 C214 1.363 . S
C209 C210 1.363 1_554 S
C209 C214 1.379 . S
C209 N216 1.356 . S
C210 C209 1.363 1_556 S
C210 C213 1.363 . S
N211 C213 1.356 . S
N211 H223 0.984 . S
N211 H224 0.985 . S
N212 C214 1.356 . S
N212 H217 0.984 . S
N212 H218 0.985 . S
C213 C207 1.379 1_556 S
C213 C210 1.363 . S
C213 N211 1.356 . S
C214 C208 1.363 . S
C214 C209 1.379 . S
C214 N212 1.356 . S
N215 C207 1.356 1_545 S
N215 H221 0.984 1_554 S
N215 H222 0.984 . S
N216 C209 1.356 . S
N216 H219 0.984 1_554 S
N216 H220 0.985 . S
H217 N212 0.984 . S
H218 N212 0.985 . S
H219 N216 0.984 1_556 S
H220 N216 0.985 . S
H221 N215 0.984 1_556 S
H222 N215 0.984 . S
H223 N211 0.984 . S
H224 N211 0.985 . S
C225 C226 1.363 . S
C225 C231 1.379 1_655 S
C225 N233 1.356 . S
C226 C225 1.363 . S
C226 C232 1.363 1_655 S
C227 C228 1.363 . S
C227 C232 1.379 . S
C227 N234 1.356 . S
C228 C227 1.363 . S
C228 C231 1.363 . S
N229 C231 1.356 . S
N229 H241 0.984 1_455 S
N229 H242 0.985 . S
N230 C232 1.356 . S
N230 H235 0.984 1_455 S
N230 H236 0.985 . S
C231 C225 1.379 1_455 S
C231 C228 1.363 . S
C231 N229 1.356 . S
C232 C226 1.363 1_455 S
C232 C227 1.379 . S
C232 N230 1.356 . S
N233 C225 1.356 . S
N233 H239 0.984 . S
N233 H240 0.984 . S
N234 C227 1.356 . S
N234 H237 0.984 . S
N234 H238 0.985 . S
H235 N230 0.984 1_655 S
H236 N230 0.985 . S
H237 N234 0.984 . S
H238 N234 0.985 . S
H239 N233 0.984 . S
H240 N233 0.984 . S
H241 N229 0.984 1_655 S
H242 N229 0.985 . S
C243 C244 1.363 . S
C243 C249 1.379 . S
C243 N251 1.356 . S
C244 C243 1.363 . S
C244 C250 1.363 1_545 S
C245 C246 1.363 . S
C245 C250 1.379 1_545 S
C245 N252 1.356 1_545 S
C246 C245 1.363 . S
C246 C249 1.363 . S
N247 C249 1.356 . S
N247 H259 0.984 . S
N247 H260 0.985 . S
N248 C250 1.356 . S
N248 H253 0.984 . S
N248 H254 0.985 . S
C249 C243 1.379 . S
C249 C246 1.363 . S
C249 N247 1.356 . S
C250 C244 1.363 1_565 S
C250 C245 1.379 1_565 S
C250 N248 1.356 . S
N251 C243 1.356 . S
N251 H257 0.984 . S
N251 H258 0.984 . S
N252 C245 1.356 1_565 S
N252 H255 0.984 1_565 S
N252 H256 0.985 . S
H253 N248 0.984 . S
H254 N248 0.985 . S
H255 N252 0.984 1_545 S
H256 N252 0.985 . S
H257 N251 0.984 . S
H258 N251 0.984 . S
H259 N247 0.984 . S
H260 N247 0.985 . S
C261 C262 1.363 . S
C261 C267 1.379 1_554 S
C261 N269 1.356 . S
C262 C261 1.363 . S
C262 C268 1.363 . S
C263 C264 1.363 1_554 S
C263 C268 1.379 . S
C263 N270 1.356 1_554 S
C264 C263 1.363 1_556 S
C264 C267 1.363 . S
N265 C267 1.356 . S
N265 H277 0.984 . S
N265 H278 0.985 . S
N266 C268 1.356 . S
N266 H271 0.984 . S
N266 H272 0.985 . S
C267 C261 1.379 1_556 S
C267 C264 1.363 . S
C267 N265 1.356 . S
C268 C262 1.363 . S
C268 C263 1.379 . S
C268 N266 1.356 . S
N269 C261 1.356 . S
N269 H275 0.984 . S
N269 H276 0.984 . S
N270 C263 1.356 1_556 S
N270 H273 0.984 . S
N270 H274 0.985 1_556 S
H271 N266 0.984 . S
H272 N266 0.985 . S
H273 N270 0.984 . S
H274 N270 0.985 1_554 S
H275 N269 0.984 . S
H276 N269 0.984 . S
H277 N265 0.984 . S
H278 N265 0.985 . S
C279 C280 1.363 . S
C279 C285 1.379 . S
C279 N287 1.356 . S
C280 C279 1.363 . S
C280 C286 1.363 . S
C281 C282 1.363 . S
C281 C286 1.379 . S
C281 N288 1.356 . S
C282 C281 1.363 . S
C282 C285 1.363 . S
N283 C285 1.356 . S
N283 H295 0.984 . S
N283 H296 0.985 . S
N284 C286 1.356 . S
N284 H289 0.984 . S
N284 H290 0.985 . S
C285 C279 1.379 . S
C285 C282 1.363 . S
C285 N283 1.356 . S
C286 C280 1.363 . S
C286 C281 1.379 . S
C286 N284 1.356 . S
N287 C279 1.356 . S
N287 H293 0.984 . S
N287 H294 0.984 . S
N288 C281 1.356 . S
N288 H291 0.984 . S
N288 H292 0.985 . S
H289 N284 0.984 . S
H290 N284 0.985 . S
H291 N288 0.984 . S
H292 N288 0.985 . S
H293 N287 0.984 . S
H294 N287 0.984 . S
H295 N283 0.984 . S
H296 N283 0.985 . S
C84 C47 1.399 . S
C82 C11 1.410 . S
C100 C26 1.550 . S
C102 C65 1.548 . S
C118 C40 1.457 . S
C120 C78 1.452 . S
C136 C5 1.254 . S
C138 C45 1.424 . S
C156 C56 1.566 . S
C154 C18 1.551 . S
C172 C32 1.440 . S
C174 C69 1.462 . S
C192 C58 1.318 . S
C190 C39 1.314 . S
C208 C4 1.394 1_565 S
C210 C71 1.414 . S
C228 C52 1.467 . S
C226 C19 1.328 . S
C246 C60 1.340 . S
C244 C33 1.198 . S
C264 C73 1.407 . S
C262 C12 1.415 . S
C280 C25 1.476 . S
C282 C43 1.498 . S
