# Generated by pormake.
# Topology ocu, (6,8)-cn, num edge types: 1
# Building blocks:
#     Node 0, Type 0, BuildingBlock: VOLQOD_clean_sbu_1, # of connection points: 6
#     Node 1, Type 0, BuildingBlock: VOLQOD_clean_sbu_1, # of connection points: 6
#     Node 2, Type 0, BuildingBlock: VOLQOD_clean_sbu_1, # of connection points: 6
#     Node 3, Type 0, BuildingBlock: VOLQOD_clean_sbu_1, # of connection points: 6
#     Node 4, Type 0, BuildingBlock: VOLQOD_clean_sbu_1, # of connection points: 6
#     Node 5, Type 0, BuildingBlock: VOLQOD_clean_sbu_1, # of connection points: 6
#     Node 6, Type 0, BuildingBlock: VOLQOD_clean_sbu_1, # of connection points: 6
#     Node 7, Type 0, BuildingBlock: VOLQOD_clean_sbu_1, # of connection points: 6
#     Node 8, Type 1, BuildingBlock: AJUNOK_clean_sbu_0, # of connection points: 8
#     Node 9, Type 1, BuildingBlock: AJUNOK_clean_sbu_0, # of connection points: 8
#     Node 10, Type 1, BuildingBlock: AJUNOK_clean_sbu_0, # of connection points: 8
#     Node 11, Type 1, BuildingBlock: AJUNOK_clean_sbu_0, # of connection points: 8
#     Node 12, Type 1, BuildingBlock: AJUNOK_clean_sbu_0, # of connection points: 8
#     Node 13, Type 1, BuildingBlock: AJUNOK_clean_sbu_0, # of connection points: 8
#     Edge 14, Type (0, 1), BuildingBlock: AJUNOK_clean_linker_0, # of connection points: 2
#     Edge 15, Type (0, 1), BuildingBlock: AJUNOK_clean_linker_0, # of connection points: 2
#     Edge 16, Type (0, 1), BuildingBlock: AJUNOK_clean_linker_0, # of connection points: 2
#     Edge 17, Type (0, 1), BuildingBlock: AJUNOK_clean_linker_0, # of connection points: 2
#     Edge 18, Type (0, 1), BuildingBlock: AJUNOK_clean_linker_0, # of connection points: 2
#     Edge 19, Type (0, 1), BuildingBlock: AJUNOK_clean_linker_0, # of connection points: 2
#     Edge 20, Type (0, 1), BuildingBlock: AJUNOK_clean_linker_0, # of connection points: 2
#     Edge 21, Type (0, 1), BuildingBlock: AJUNOK_clean_linker_0, # of connection points: 2
#     Edge 22, Type (0, 1), BuildingBlock: AJUNOK_clean_linker_0, # of connection points: 2
#     Edge 23, Type (0, 1), BuildingBlock: AJUNOK_clean_linker_0, # of connection points: 2
#     Edge 24, Type (0, 1), BuildingBlock: AJUNOK_clean_linker_0, # of connection points: 2
#     Edge 25, Type (0, 1), BuildingBlock: AJUNOK_clean_linker_0, # of connection points: 2
#     Edge 26, Type (0, 1), BuildingBlock: AJUNOK_clean_linker_0, # of connection points: 2
#     Edge 27, Type (0, 1), BuildingBlock: AJUNOK_clean_linker_0, # of connection points: 2
#     Edge 28, Type (0, 1), BuildingBlock: AJUNOK_clean_linker_0, # of connection points: 2
#     Edge 29, Type (0, 1), BuildingBlock: AJUNOK_clean_linker_0, # of connection points: 2
#     Edge 30, Type (0, 1), BuildingBlock: AJUNOK_clean_linker_0, # of connection points: 2
#     Edge 31, Type (0, 1), BuildingBlock: AJUNOK_clean_linker_0, # of connection points: 2
#     Edge 32, Type (0, 1), BuildingBlock: AJUNOK_clean_linker_0, # of connection points: 2
#     Edge 33, Type (0, 1), BuildingBlock: AJUNOK_clean_linker_0, # of connection points: 2
#     Edge 34, Type (0, 1), BuildingBlock: AJUNOK_clean_linker_0, # of connection points: 2
#     Edge 35, Type (0, 1), BuildingBlock: AJUNOK_clean_linker_0, # of connection points: 2
#     Edge 36, Type (0, 1), BuildingBlock: AJUNOK_clean_linker_0, # of connection points: 2
#     Edge 37, Type (0, 1), BuildingBlock: AJUNOK_clean_linker_0, # of connection points: 2
#     Edge 38, Type (0, 1), BuildingBlock: AJUNOK_clean_linker_0, # of connection points: 2
#     Edge 39, Type (0, 1), BuildingBlock: AJUNOK_clean_linker_0, # of connection points: 2
#     Edge 40, Type (0, 1), BuildingBlock: AJUNOK_clean_linker_0, # of connection points: 2
#     Edge 41, Type (0, 1), BuildingBlock: AJUNOK_clean_linker_0, # of connection points: 2
#     Edge 42, Type (0, 1), BuildingBlock: AJUNOK_clean_linker_0, # of connection points: 2
#     Edge 43, Type (0, 1), BuildingBlock: AJUNOK_clean_linker_0, # of connection points: 2
#     Edge 44, Type (0, 1), BuildingBlock: AJUNOK_clean_linker_0, # of connection points: 2
#     Edge 45, Type (0, 1), BuildingBlock: AJUNOK_clean_linker_0, # of connection points: 2
#     Edge 46, Type (0, 1), BuildingBlock: AJUNOK_clean_linker_0, # of connection points: 2
#     Edge 47, Type (0, 1), BuildingBlock: AJUNOK_clean_linker_0, # of connection points: 2
#     Edge 48, Type (0, 1), BuildingBlock: AJUNOK_clean_linker_0, # of connection points: 2
#     Edge 49, Type (0, 1), BuildingBlock: AJUNOK_clean_linker_0, # of connection points: 2
#     Edge 50, Type (0, 1), BuildingBlock: AJUNOK_clean_linker_0, # of connection points: 2
#     Edge 51, Type (0, 1), BuildingBlock: AJUNOK_clean_linker_0, # of connection points: 2
#     Edge 52, Type (0, 1), BuildingBlock: AJUNOK_clean_linker_0, # of connection points: 2
#     Edge 53, Type (0, 1), BuildingBlock: AJUNOK_clean_linker_0, # of connection points: 2
#     Edge 54, Type (0, 1), BuildingBlock: AJUNOK_clean_linker_0, # of connection points: 2
#     Edge 55, Type (0, 1), BuildingBlock: AJUNOK_clean_linker_0, # of connection points: 2
#     Edge 56, Type (0, 1), BuildingBlock: AJUNOK_clean_linker_0, # of connection points: 2
#     Edge 57, Type (0, 1), BuildingBlock: AJUNOK_clean_linker_0, # of connection points: 2
#     Edge 58, Type (0, 1), BuildingBlock: AJUNOK_clean_linker_0, # of connection points: 2
#     Edge 59, Type (0, 1), BuildingBlock: AJUNOK_clean_linker_0, # of connection points: 2
#     Edge 60, Type (0, 1), BuildingBlock: AJUNOK_clean_linker_0, # of connection points: 2
#     Edge 61, Type (0, 1), BuildingBlock: AJUNOK_clean_linker_0, # of connection points: 2
# Relax obj value: 0.270
# Max RMSD: 0.372
# Mean RMSD: 0.266
data_MOF--net-ocu--node1-VOLQOD_clean_sbu_1--node2-AJUNOK_clean_sbu_0--edge1-AJUNOK_clean_linker_0
_symmetry_space_group_name_H-M    P1
_symmetry_Int_Tables_number       1
_symmetry_cell_setting            triclinic
loop_
_symmetry_equiv_pos_as_xyz
'x, y, z'
_cell_length_a     33.335731
_cell_length_b     33.115697
_cell_length_c     27.732383
_cell_angle_alpha  97.729535
_cell_angle_beta   98.75208
_cell_angle_gamma 101.71778
loop_
_atom_site_label
_atom_site_type_symbol
_atom_site_fract_x
_atom_site_fract_y
_atom_site_fract_z
_atom_type_partial_charge
O0 O 0.31908 0.31301 0.29377 0.0
Zn1 Zn 0.27419 0.26915 0.31134 0.0
O2 O 0.2362 0.23636 0.24988 0.0
Zn3 Zn 0.18018 0.24288 0.25059 0.0
Zn4 Zn 0.25203 0.25429 0.19033 0.0
Zn5 Zn 0.23622 0.1775 0.24371 0.0
O6 O 0.14171 0.1892 0.25315 0.0
O7 O 0.18121 0.14296 0.24934 0.0
O8 O 0.24264 0.30038 0.35567 0.0
O9 O 0.17812 0.28 0.31218 0.0
O10 O 0.15956 0.27021 0.19486 0.0
O11 O 0.2086 0.27511 0.14867 0.0
O12 O 0.27278 0.21203 0.14857 0.0
O13 O 0.30247 0.2307 0.34974 0.0
O14 O 0.25716 0.15579 0.18317 0.0
O15 O 0.27513 0.16915 0.30115 0.0
C16 C 0.32337 0.32185 0.2513 0.0
C17 C 0.1468 0.15233 0.25451 0.0
C18 C 0.17366 0.28085 0.15719 0.0
C19 C 0.20399 0.30052 0.35022 0.0
C20 C 0.27243 0.17384 0.15011 0.0
C21 C 0.29887 0.19119 0.34003 0.0
O22 O 0.29951 0.30182 0.21165 0.0
O23 O 0.71884 0.17288 0.18367 0.0
Zn24 Zn 0.76711 0.21313 0.2339 0.0
O25 O 0.74452 0.25476 0.27112 0.0
Zn26 Zn 0.75605 0.30708 0.24988 0.0
Zn27 Zn 0.68606 0.23438 0.25852 0.0
Zn28 Zn 0.76202 0.26114 0.34029 0.0
O29 O 0.77622 0.35515 0.30664 0.0
O30 O 0.78733 0.32056 0.36871 0.0
O31 O 0.8114 0.24259 0.19904 0.0
O32 O 0.80436 0.30802 0.21779 0.0
O33 O 0.70907 0.31209 0.19817 0.0
O34 O 0.6592 0.25773 0.20241 0.0
O35 O 0.65928 0.23916 0.3181 0.0
O36 O 0.79602 0.18364 0.28405 0.0
O37 O 0.71481 0.23515 0.37031 0.0
O38 O 0.8048 0.22857 0.35455 0.0
C39 C 0.68366 0.15922 0.19547 0.0
C40 C 0.7914 0.35464 0.35156 0.0
C41 C 0.67285 0.28858 0.18193 0.0
C42 C 0.823 0.28175 0.1991 0.0
C43 C 0.67546 0.22911 0.35799 0.0
C44 C 0.81178 0.1963 0.32998 0.0
O45 O 0.67592 0.17406 0.23663 0.0
O46 O 0.6879 0.66256 0.24664 0.0
Zn47 Zn 0.72745 0.71442 0.28911 0.0
O48 O 0.75294 0.74845 0.24348 0.0
Zn49 Zn 0.81014 0.7455 0.24672 0.0
Zn50 Zn 0.72478 0.72724 0.17641 0.0
Zn51 Zn 0.74792 0.80535 0.25569 0.0
O52 O 0.84777 0.80234 0.2633 0.0
O53 O 0.80383 0.84288 0.27792 0.0
O54 O 0.7715 0.69434 0.33454 0.0
O55 O 0.82747 0.71686 0.3027 0.0
O56 O 0.81885 0.71117 0.18539 0.0
O57 O 0.75571 0.69136 0.13859 0.0
O58 O 0.70538 0.76856 0.13755 0.0
O59 O 0.69553 0.74903 0.3302 0.0
O60 O 0.71633 0.82312 0.19743 0.0
O61 O 0.71586 0.81188 0.3096 0.0
C62 C 0.6673 0.66055 0.20337 0.0
C63 C 0.84066 0.83784 0.27807 0.0
C64 C 0.79387 0.68963 0.14693 0.0
C65 C 0.81037 0.69825 0.33413 0.0
C66 C 0.70165 0.80524 0.15289 0.0
C67 C 0.69622 0.78814 0.33482 0.0
O68 O 0.67277 0.69084 0.18006 0.0
O69 O 0.32503 0.75521 0.31252 0.0
Zn70 Zn 0.27471 0.71337 0.26849 0.0
O71 O 0.23396 0.74197 0.23662 0.0
Zn72 Zn 0.17893 0.72255 0.24991 0.0
Zn73 Zn 0.24892 0.80068 0.26323 0.0
Zn74 Zn 0.23105 0.73358 0.16527 0.0
O75 O 0.13733 0.6975 0.18869 0.0
O76 O 0.17408 0.70135 0.12844 0.0
O77 O 0.24727 0.67521 0.31132 0.0
O78 O 0.18097 0.67836 0.28953 0.0
O79 O 0.15865 0.76449 0.29335 0.0
O80 O 0.21048 0.82003 0.30417 0.0
O81 O 0.25882 0.83528 0.21145 0.0
O82 O 0.29441 0.67794 0.21573 0.0
O83 O 0.24955 0.78832 0.14332 0.0
O84 O 0.26982 0.69807 0.14582 0.0
C85 C 0.32911 0.79443 0.32568 0.0
C86 C 0.13993 0.68966 0.14329 0.0
C87 C 0.17601 0.8019 0.31375 0.0
C88 C 0.20876 0.66367 0.31305 0.0
C89 C 0.25987 0.8261 0.16574 0.0
C90 C 0.29115 0.67665 0.1691 0.0
O91 O 0.30198 0.81338 0.30925 0.0
O92 O 0.22946 0.66296 0.68172 0.0
Zn93 Zn 0.26886 0.71112 0.73295 0.0
O94 O 0.23618 0.74279 0.76972 0.0
Zn95 Zn 0.24719 0.80125 0.76709 0.0
Zn96 Zn 0.1791 0.72444 0.74148 0.0
Zn97 Zn 0.24541 0.73875 0.83846 0.0
O98 O 0.2714 0.83877 0.83194 0.0
O99 O 0.28684 0.79085 0.8755 0.0
O100 O 0.30643 0.75098 0.69873 0.0
O101 O 0.29054 0.8103 0.72822 0.0
O102 O 0.20179 0.8201 0.72681 0.0
O103 O 0.1597 0.759 0.69351 0.0
O104 O 0.14466 0.72046 0.79288 0.0
O105 O 0.30311 0.68492 0.78214 0.0
O106 O 0.1906 0.72677 0.86206 0.0
O107 O 0.27397 0.69236 0.84908 0.0
C108 C 0.1903 0.64929 0.67863 0.0
C109 C 0.29196 0.82876 0.86912 0.0
C110 C 0.17142 0.79801 0.69438 0.0
C111 C 0.31084 0.7906 0.70227 0.0
C112 C 0.15305 0.7199 0.83899 0.0
C113 C 0.29893 0.67734 0.82537 0.0
O114 O 0.16891 0.66874 0.70314 0.0
O115 O 0.19083 0.17615 0.77226 0.0
Zn116 Zn 0.23136 0.23118 0.80376 0.0
O117 O 0.2525 0.257 0.74973 0.0
Zn118 Zn 0.31043 0.25695 0.75507 0.0
Zn119 Zn 0.22547 0.22999 0.68374 0.0
Zn120 Zn 0.2471 0.31368 0.75439 0.0
O121 O 0.34322 0.31342 0.75507 0.0
O122 O 0.3017 0.34844 0.78812 0.0
O123 O 0.27819 0.21652 0.85028 0.0
O124 O 0.33343 0.23918 0.8175 0.0
O125 O 0.31941 0.21592 0.70166 0.0
O126 O 0.26114 0.19953 0.64577 0.0
O127 O 0.1987 0.26698 0.64345 0.0
O128 O 0.20237 0.2704 0.84264 0.0
O129 O 0.22353 0.32951 0.69003 0.0
O130 O 0.20931 0.32364 0.80082 0.0
C131 C 0.17383 0.16361 0.72686 0.0
C132 C 0.33807 0.34367 0.78487 0.0
C133 C 0.2979 0.19553 0.66068 0.0
C134 C 0.31734 0.22261 0.85088 0.0
C135 C 0.20205 0.30638 0.65025 0.0
C136 C 0.19569 0.30582 0.83479 0.0
O137 O 0.18245 0.18424 0.69288 0.0
O138 O 0.82407 0.25045 0.82724 0.0
Zn139 Zn 0.77166 0.21554 0.77966 0.0
O140 O 0.73925 0.25164 0.74883 0.0
Zn141 Zn 0.68391 0.24174 0.76197 0.0
Zn142 Zn 0.76236 0.30851 0.77529 0.0
Zn143 Zn 0.73588 0.24317 0.6781 0.0
O144 O 0.64536 0.20347 0.7047 0.0
O145 O 0.68187 0.20345 0.64396 0.0
O146 O 0.73655 0.17906 0.81829 0.0
O147 O 0.68227 0.20888 0.81596 0.0
O148 O 0.66504 0.29339 0.78709 0.0
O149 O 0.72829 0.33275 0.81818 0.0
O150 O 0.77265 0.3419 0.72268 0.0
O151 O 0.79104 0.18072 0.72613 0.0
O152 O 0.74861 0.29724 0.65229 0.0
O153 O 0.77922 0.21323 0.66174 0.0
C154 C 0.83649 0.29017 0.83634 0.0
C155 C 0.64932 0.18979 0.66096 0.0
C156 C 0.68918 0.32511 0.81573 0.0
C157 C 0.70294 0.18386 0.83254 0.0
C158 C 0.76581 0.33402 0.67566 0.0
C159 C 0.79531 0.18689 0.68258 0.0
O160 O 0.81572 0.31398 0.81738 0.0
O161 O 0.81918 0.81558 0.78223 0.0
Zn162 Zn 0.77417 0.77388 0.80363 0.0
O163 O 0.73649 0.73658 0.74509 0.0
Zn164 Zn 0.68047 0.74363 0.74279 0.0
Zn165 Zn 0.75265 0.75037 0.68422 0.0
Zn166 Zn 0.73558 0.67778 0.74671 0.0
O167 O 0.64442 0.69506 0.76078 0.0
O168 O 0.67975 0.64518 0.75525 0.0
O169 O 0.74204 0.80809 0.84334 0.0
O170 O 0.67986 0.79116 0.79371 0.0
O171 O 0.65508 0.75595 0.67815 0.0
O172 O 0.70906 0.76941 0.64035 0.0
O173 O 0.76991 0.70354 0.64638 0.0
O174 O 0.80267 0.73936 0.84739 0.0
O175 O 0.75576 0.65095 0.68763 0.0
O176 O 0.77467 0.67424 0.80756 0.0
C177 C 0.82547 0.81948 0.73875 0.0
C178 C 0.64748 0.65786 0.7636 0.0
C179 C 0.671 0.76813 0.64228 0.0
C180 C 0.70474 0.81223 0.83219 0.0
C181 C 0.76939 0.66594 0.65166 0.0
C182 C 0.79863 0.69987 0.8438 0.0
O183 O 0.80221 0.79646 0.70035 0.0
Cd184 Cd 0.95925 0.96724 0.56775 0.0
Cd185 Cd 0.03403 0.02691 0.46574 0.0
C186 C 0.03377 0.93556 0.61398 0.0
N187 N 0.011 0.93077 0.56782 0.0
C188 C 0.04538 0.87864 0.53741 0.0
C189 C 0.07039 0.88477 0.58444 0.0
C190 C 0.06428 0.91346 0.6229 0.0
C191 C 0.01559 0.90262 0.52969 0.0
H192 H 0.02751 0.95611 0.64428 0.0
H193 H -0.00451 0.89795 0.49401 0.0
C194 C 0.93705 0.94843 0.44697 0.0
C195 C 0.96308 0.0554 0.40563 0.0
C196 C 0.93303 0.07668 0.39018 0.0
C197 C 0.92197 0.10531 0.42475 0.0
C198 C 0.94248 0.11288 0.47436 0.0
C199 C 0.97289 0.09088 0.48824 0.0
N200 N 0.98179 0.0623 0.45387 0.0
H201 H 0.972 0.03356 0.37897 0.0
H202 H -0.01004 0.09716 0.52586 0.0
C203 C 0.0407 0.93694 0.42106 0.0
N204 N 0.06001 0.96767 0.45998 0.0
C205 C 0.11482 0.93265 0.47872 0.0
C206 C 0.09633 0.90147 0.4373 0.0
C207 C 0.05813 0.90309 0.40937 0.0
C208 C 0.09581 0.96581 0.48962 0.0
H209 H 0.0131 0.94003 0.39716 0.0
H210 H 0.11076 -0.00886 0.51986 0.0
C211 C 0.05933 0.04118 0.59312 0.0
C212 C 0.92262 0.92793 0.64011 0.0
N213 N 0.93094 0.02469 0.56303 0.0
C214 C 0.94957 0.05999 0.59633 0.0
C215 C 0.92847 0.09156 0.60491 0.0
C216 C 0.88748 0.08594 0.57997 0.0
C217 C 0.86976 0.05047 0.54358 0.0
C218 C 0.89238 0.01989 0.53551 0.0
C219 C 0.07086 0.06133 0.39053 0.0
O220 O 0.92338 0.93684 0.48419 0.0
O221 O 0.97069 0.97564 0.45337 0.0
O222 O 0.06675 0.04891 0.55123 0.0
O223 O 0.02621 0.01648 0.59748 0.0
O224 O 0.91924 0.90975 0.59604 0.0
O225 O 0.94141 0.96617 0.65082 0.0
O226 O 0.0758 0.08223 0.43376 0.0
O227 O 0.05065 0.0236 0.38292 0.0
H228 H 0.97949 0.06248 0.61894 0.0
H229 H 0.87786 -0.00906 0.51039 0.0
H230 H 0.04864 0.85558 0.50753 0.0
H231 H 0.08194 0.91755 0.66013 0.0
H232 H 0.91901 0.07127 0.3513 0.0
H233 H 0.9353 0.13559 0.50169 0.0
H234 H 0.14459 0.93247 0.50061 0.0
H235 H 0.04368 0.88035 0.37627 0.0
H236 H 0.94255 0.11817 0.63404 0.0
H237 H 0.83784 0.04514 0.52436 0.0
Cd238 Cd 0.46097 0.96943 0.06266 0.0
Cd239 Cd 0.52296 0.02357 0.94717 0.0
C240 C 0.53878 0.93711 0.11389 0.0
N241 N 0.51093 0.92907 0.07061 0.0
C242 C 0.54482 0.87777 0.03631 0.0
C243 C 0.57478 0.88673 0.08006 0.0
C244 C 0.57136 0.91666 0.11915 0.0
C245 C 0.51304 0.89976 0.0322 0.0
H246 H 0.53593 0.95963 0.14445 0.0
H247 H 0.49044 0.89391 -0.00181 0.0
C248 C 0.44548 0.95378 0.93293 0.0
C249 C 0.44206 0.05789 0.90286 0.0
C250 C 0.4151 0.08493 0.89827 0.0
C251 C 0.42277 0.12225 0.93237 0.0
C252 C 0.45708 0.13092 0.97145 0.0
C253 C 0.48299 0.10259 0.9751 0.0
N254 N 0.47525 0.06703 0.94086 0.0
H255 H 0.43684 0.03008 0.87537 0.0
H256 H 0.50972 0.10925 0.00485 0.0
C257 C 0.54857 0.9472 0.89026 0.0
N258 N 0.55284 0.96627 0.93783 0.0
C259 C 0.60628 0.93137 0.96433 0.0
C260 C 0.60478 0.91414 0.91485 0.0
C261 C 0.57386 0.92031 0.87802 0.0
C262 C 0.57964 0.95763 0.9751 0.0
H263 H 0.52747 0.9551 0.86126 0.0
H264 H 0.58189 0.97273 0.0127 0.0
C265 C 0.54054 0.03824 0.08199 0.0
C266 C 0.39119 0.92411 0.09259 0.0
N267 N 0.43484 0.02922 0.06345 0.0
C268 C 0.43582 0.05109 0.10887 0.0
C269 C 0.41134 0.08021 0.11409 0.0
C270 C 0.38528 0.08608 0.07228 0.0
C271 C 0.38657 0.06514 0.02551 0.0
C272 C 0.41213 0.03672 0.02187 0.0
C273 C 0.58962 0.07566 0.91851 0.0
O274 O 0.46243 0.96956 0.97714 0.0
O275 O 0.46281 0.96833 0.89937 0.0
O276 O 0.52728 0.02624 0.03588 0.0
O277 O 0.51919 0.0217 0.11135 0.0
O278 O 0.39614 0.91825 0.04792 0.0
O279 O 0.42067 0.94891 0.12392 0.0
O280 O 0.58472 0.0794 0.96324 0.0
O281 O 0.56266 0.04841 0.88676 0.0
H282 H 0.45322 0.0437 0.14143 0.0
H283 H 0.41174 0.01892 0.98626 0.0
H284 H 0.54646 0.85473 0.00544 0.0
H285 H 0.59336 0.92368 0.15387 0.0
H286 H 0.3893 0.07748 0.8672 0.0
H287 H 0.46392 0.15935 -0.00145 0.0
H288 H 0.62929 0.92661 0.99379 0.0
H289 H 0.57098 0.90647 0.83961 0.0
H290 H 0.41039 0.09568 0.15077 0.0
H291 H 0.36633 0.06884 0.99275 0.0
Cd292 Cd 0.96075 0.45537 0.05748 0.0
Cd293 Cd 0.01088 0.52021 0.94182 0.0
C294 C 0.05899 0.45006 0.06806 0.0
N295 N 0.019 0.42835 0.05035 0.0
C296 C 0.04085 0.36405 0.03761 0.0
C297 C 0.08173 0.38525 0.05937 0.0
C298 C 0.09114 0.42897 0.07235 0.0
C299 C 0.00969 0.38641 0.03358 0.0
H300 H 0.06596 0.48311 0.08215 0.0
H301 H 0.97762 0.36996 0.01985 0.0
C302 C 0.94607 0.4377 0.92267 0.0
C303 C 0.91729 0.53798 0.9211 0.0
C304 C 0.88874 0.56349 0.91739 0.0
C305 C 0.9003 0.6051 0.94243 0.0
C306 C 0.93945 0.61918 0.97344 0.0
C307 C 0.9669 0.59252 0.97637 0.0
N308 N 0.95588 0.55317 0.94941 0.0
H309 H 0.90945 0.50713 0.89888 0.0
H310 H -0.00184 0.60432 -0.00268 0.0
C311 C 0.0458 0.43541 0.9443 0.0
N312 N 0.05946 0.47631 0.94068 0.0
C313 C 0.12477 0.46263 0.9252 0.0
C314 C 0.10971 0.41993 0.92583 0.0
C315 C 0.07017 0.40665 0.93653 0.0
C316 C 0.09878 0.49055 0.93259 0.0
H317 H 0.01553 0.42418 0.95184 0.0
H318 H 0.10931 0.52312 0.92975 0.0
C319 C 0.01984 0.53805 0.06924 0.0
C320 C 0.92486 0.38951 0.1031 0.0
N321 N 0.91411 0.49883 0.06171 0.0
C322 C 0.91854 0.52335 0.10643 0.0
C323 C 0.89585 0.55398 0.11205 0.0
C324 C 0.86747 0.55874 0.07162 0.0
C325 C 0.86145 0.53144 0.02653 0.0
C326 C 0.88567 0.50158 0.0222 0.0
C327 C 0.05251 0.59174 0.91153 0.0
O328 O 0.95562 0.45436 0.96806 0.0
O329 O 0.96097 0.45886 0.89186 0.0
O330 O 0.00827 0.51689 0.02622 0.0
O331 O 0.00794 0.52094 0.10438 0.0
O332 O 0.91274 0.38979 0.05748 0.0
O333 O 0.95207 0.42108 0.12756 0.0
O334 O 0.0616 0.58507 0.95543 0.0
O335 O 0.02651 0.56282 0.88059 0.0
H336 H 0.94056 0.5198 0.13758 0.0
H337 H 0.88238 0.48121 0.98722 0.0
H338 H 0.03242 0.33022 0.02808 0.0
H339 H 0.12238 0.44609 0.08988 0.0
H340 H 0.85914 0.55175 0.89223 0.0
H341 H 0.9496 0.65119 0.99288 0.0
H342 H 0.15513 0.47374 0.91617 0.0
H343 H 0.05748 0.37385 0.93674 0.0
H344 H 0.9007 0.57411 0.14763 0.0
H345 H 0.83931 0.53396 0.99486 0.0
Cd346 Cd 0.45568 0.45376 0.07187 0.0
Cd347 Cd 0.52773 0.52162 0.96259 0.0
C348 C 0.52509 0.41135 0.11074 0.0
N349 N 0.49615 0.40468 0.06879 0.0
C350 C 0.52244 0.34755 0.0336 0.0
C351 C 0.55406 0.35588 0.07561 0.0
C352 C 0.55459 0.38752 0.11479 0.0
C353 C 0.49328 0.37269 0.03097 0.0
H354 H 0.52537 0.43538 0.14128 0.0
H355 H 0.46892 0.36699 -0.00131 0.0
C356 C 0.46578 0.43425 0.94119 0.0
C357 C 0.43101 0.52611 0.93388 0.0
C358 C 0.39903 0.54599 0.92023 0.0
C359 C 0.40599 0.5894 0.93398 0.0
C360 C 0.44316 0.61128 0.96575 0.0
C361 C 0.47416 0.59003 0.97911 0.0
N362 N 0.46817 0.54854 0.96143 0.0
H363 H 0.42715 0.49365 0.91858 0.0
H364 H 0.50426 0.60723 5e-05 0.0
C365 C 0.57465 0.4515 0.98864 0.0
N366 N 0.58315 0.49119 0.97901 0.0
C367 C 0.64323 0.48072 0.94725 0.0
C368 C 0.63169 0.43823 0.95037 0.0
C369 C 0.59884 0.424 0.97429 0.0
C370 C 0.61802 0.507 0.96175 0.0
H371 H 0.54631 0.43981 0.0015 0.0
H372 H 0.62336 0.53837 0.9534 0.0
C373 C 0.53819 0.52242 0.09562 0.0
C374 C 0.41428 0.42076 0.14212 0.0
N375 N 0.4193 0.50442 0.05363 0.0
C376 C 0.43844 0.5448 0.07371 0.0
C377 C 0.41527 0.57505 0.07892 0.0
C378 C 0.37192 0.5634 0.06418 0.0
C379 C 0.35336 0.52261 0.03879 0.0
C380 C 0.37788 0.49318 0.03421 0.0
C381 C 0.5594 0.56607 0.89201 0.0
O382 O 0.46708 0.44632 0.98688 0.0
O383 O 0.48874 0.45675 0.91816 0.0
O384 O 0.5268 0.51582 0.04893 0.0
O385 O 0.51476 0.50271 0.12048 0.0
O386 O 0.40324 0.40364 0.09661 0.0
O387 O 0.44295 0.45384 0.15379 0.0
O388 O 0.56477 0.58375 0.93711 0.0
O389 O 0.53951 0.52814 0.88074 0.0
H390 H 0.47104 0.55314 0.08987 0.0
H391 H 0.36332 0.46072 0.01927 0.0
H392 H 0.52073 0.32258 0.00329 0.0
H393 H 0.57763 0.39363 0.14856 0.0
H394 H 0.37087 0.52836 0.8952 0.0
H395 H 0.44939 0.64493 0.9768 0.0
H396 H 0.66823 0.49218 0.92827 0.0
H397 H 0.58907 0.39111 0.97643 0.0
H398 H 0.43063 0.60611 0.09896 0.0
H399 H 0.31989 0.51273 0.02662 0.0
Cd400 Cd 0.96339 0.4685 0.55886 0.0
Cd401 Cd 0.03453 0.52236 0.44912 0.0
C402 C 0.03194 0.4259 0.60855 0.0
N403 N 0.00845 0.42322 0.56323 0.0
C404 C 0.04644 0.37714 0.52647 0.0
C405 C 0.07298 0.38194 0.57231 0.0
C406 C 0.06477 0.40585 0.61384 0.0
C407 C 0.01432 0.39872 0.52258 0.0
H408 H 0.02609 0.4449 0.64044 0.0
H409 H -0.00506 0.39695 0.487 0.0
C410 C 0.95057 0.46423 0.42748 0.0
C411 C 0.97037 0.56779 0.39283 0.0
C412 C 0.93958 0.59008 0.38345 0.0
C413 C 0.92593 0.61076 0.42309 0.0
C414 C 0.94391 0.60901 0.47164 0.0
C415 C 0.97451 0.58587 0.47936 0.0
N416 N -0.01322 0.56557 0.44011 0.0
H417 H 0.98082 0.5516 0.36227 0.0
H418 H -0.01173 0.58393 0.51657 0.0
C419 C 0.04988 0.42984 0.41785 0.0
N420 N 0.06394 0.46473 0.45305 0.0
C421 C 0.12581 0.44215 0.48137 0.0
C422 C 0.11312 0.40704 0.44359 0.0
C423 C 0.07399 0.40022 0.41274 0.0
C424 C 0.10054 0.47088 0.4854 0.0
H425 H 0.02128 0.4262 0.39176 0.0
H426 H 0.11137 0.49947 0.5122 0.0
C427 C 0.0474 0.5297 0.58072 0.0
C428 C 0.89356 0.42688 0.59295 0.0
N429 N 0.93245 0.52432 0.55406 0.0
C430 C 0.94359 0.55838 0.59059 0.0
C431 C 0.91669 0.58523 0.59582 0.0
C432 C 0.87785 0.57607 0.5639 0.0
C433 C 0.86835 0.54224 0.52473 0.0
C434 C 0.89627 0.51642 0.52065 0.0
C435 C 0.10215 0.5675 0.41505 0.0
O436 O 0.9683 0.47231 0.47255 0.0
O437 O 0.97161 0.47763 0.39616 0.0
O438 O 0.03081 0.51992 0.53537 0.0
O439 O 0.02621 0.51558 0.6116 0.0
O440 O 0.89857 0.41716 0.54878 0.0
O441 O 0.92311 0.45347 0.6222 0.0
O442 O 0.09591 0.57787 0.45858 0.0
O443 O 0.07594 0.53693 0.38713 0.0
H444 H 0.97174 0.563 0.61777 0.0
H445 H 0.88747 0.48812 0.49346 0.0
H446 H 0.05139 0.35823 0.49389 0.0
H447 H 0.08386 0.4093 0.6501 0.0
H448 H 0.92658 0.5913 0.34555 0.0
H449 H 0.93444 0.62529 0.50298 0.0
H450 H 0.15576 0.44829 0.50585 0.0
H451 H 0.06341 0.37365 0.38286 0.0
H452 H 0.92465 0.61084 0.62687 0.0
H453 H 0.83857 0.53431 0.49965 0.0
Cd454 Cd 0.46038 0.95758 0.55448 0.0
Cd455 Cd 0.5251 0.01665 0.43994 0.0
C456 C 0.54905 0.93158 0.58937 0.0
N457 N 0.51226 0.91958 0.55663 0.0
C458 C 0.52872 0.8548 0.52703 0.0
C459 C 0.5672 0.86698 0.55962 0.0
C460 C 0.57722 0.90586 0.59107 0.0
C461 C 0.50158 0.88179 0.52614 0.0
H462 H 0.5563 0.96012 0.61583 0.0
H463 H 0.47172 0.8725 0.50131 0.0
C464 C 0.45141 0.93918 0.42026 0.0
C465 C 0.44201 0.04128 0.39187 0.0
C466 C 0.41109 0.06367 0.3846 0.0
C467 C 0.4072 0.09381 0.42327 0.0
C468 C 0.43365 0.0995 0.46926 0.0
C469 C 0.46401 0.07601 0.47506 0.0
N470 N 0.46786 0.04787 0.43646 0.0
H471 H 0.44657 0.01997 0.36115 0.0
H472 H 0.48536 0.08136 0.50981 0.0
C473 C 0.54823 0.92543 0.43966 0.0
N474 N 0.565 0.96494 0.43327 0.0
C475 C 0.62639 0.94353 0.41517 0.0
C476 C 0.60817 0.90208 0.41848 0.0
C477 C 0.56896 0.89336 0.43166 0.0
C478 C 0.60392 0.97467 0.42236 0.0
H479 H 0.51834 0.91819 0.44988 0.0
H480 H 0.61712 0.00632 0.41803 0.0
C481 C 0.53753 0.03108 0.57291 0.0
C482 C 0.41171 0.89887 0.59875 0.0
N483 N 0.42097 0.00998 0.55529 0.0
C484 C 0.4402 0.04904 0.5804 0.0
C485 C 0.41781 0.07947 0.58852 0.0
C486 C 0.37471 0.06981 0.57196 0.0
C487 C 0.35533 0.03017 0.54426 0.0
C488 C 0.37927 0.00041 0.53649 0.0
C489 C 0.57567 0.08508 0.41193 0.0
O490 O 0.46097 0.95565 0.46582 0.0
O491 O 0.47171 0.95711 0.39075 0.0
O492 O 0.52525 0.01734 0.52701 0.0
O493 O 0.51845 0.01196 0.60239 0.0
O494 O 0.4129 0.89107 0.55306 0.0
O495 O 0.43155 0.93441 0.62294 0.0
O496 O 0.58483 0.0743 0.45364 0.0
O497 O 0.54445 0.06221 0.38144 0.0
H498 H 0.47266 0.05694 0.59638 0.0
H499 H 0.36403 0.96909 0.51807 0.0
H500 H 0.51958 0.82459 0.50301 0.0
H501 H 0.6056 0.91539 0.61867 0.0
H502 H 0.39171 0.05893 0.3483 0.0
H503 H 0.43146 0.12244 0.49992 0.0
H504 H 0.65672 0.95132 0.40485 0.0
H505 H 0.55404 0.86173 0.43446 0.0
H506 H 0.4338 0.10977 0.61021 0.0
H507 H 0.32186 0.02145 0.53173 0.0
C508 C 0.09712 0.14354 0.31208 0.0
C509 C 0.11818 0.12472 0.27819 0.0
C510 C 0.08148 0.12236 0.34786 0.0
C511 C 0.08509 0.0812 0.35009 0.0
H512 H 0.09558 0.17607 0.31386 0.0
H513 H 0.06733 0.13872 0.37476 0.0
S514 S 0.1307 0.01523 0.26485 0.0
N515 N 0.13754 0.06085 0.24568 0.0
N516 N 0.10628 0.02032 0.31213 0.0
C517 C 0.10242 0.06051 0.31375 0.0
C518 C 0.11932 0.08245 0.27786 0.0
C519 C 0.8751 0.19427 0.38936 0.0
C520 C 0.83816 0.17279 0.35646 0.0
C521 C 0.90126 0.17235 0.41405 0.0
C522 C 0.89077 0.12842 0.40711 0.0
H523 H 0.88451 0.2281 0.39469 0.0
H524 H 0.93062 0.18971 0.43687 0.0
S525 S 0.79335 0.05866 0.33316 0.0
N526 N 0.78985 0.10601 0.32329 0.0
N527 N 0.83826 0.06483 0.37107 0.0
C528 C 0.85242 0.10699 0.37726 0.0
C529 C 0.8263 0.12918 0.35146 0.0
C530 C 0.90201 0.856 0.34486 0.0
C531 C 0.87449 0.86965 0.31039 0.0
C532 C 0.92361 0.88272 0.38828 0.0
C533 C 0.91906 0.92399 0.39793 0.0
H534 H 0.90382 0.82344 0.34085 0.0
H535 H 0.94237 0.87039 0.4156 0.0
S536 S 0.85681 0.97674 0.31546 0.0
N537 N 0.84801 0.92828 0.28553 0.0
N538 N 0.88928 0.97894 0.36761 0.0
C539 C 0.89484 0.93923 0.36188 0.0
C540 C 0.87248 0.91188 0.31773 0.0
C541 C 0.1768 0.8663 0.37217 0.0
C542 C 0.15709 0.82461 0.35063 0.0
C543 C 0.15863 0.88989 0.40442 0.0
C544 C 0.12006 0.87273 0.41633 0.0
H545 H 0.20581 0.88157 0.36274 0.0
H546 H 0.17352 0.92266 0.41734 0.0
S547 S 0.05952 0.76307 0.37833 0.0
N548 N 0.09968 0.76541 0.34965 0.0
N549 N 0.06544 0.81041 0.41025 0.0
C550 C 0.10162 0.83027 0.39854 0.0
C551 C 0.12014 0.80604 0.36566 0.0
C552 C 0.10955 0.79669 0.63017 0.0
C553 C 0.1492 0.81787 0.65742 0.0
C554 C 0.08536 0.8172 0.60048 0.0
C555 C 0.10037 0.85924 0.59694 0.0
H556 H 0.09594 0.765 0.63422 0.0
H557 H 0.05352 0.80134 0.5839 0.0
S558 S 0.20538 0.92536 0.65072 0.0
N559 N 0.20501 0.88082 0.67141 0.0
N560 N 0.15916 0.91911 0.6156 0.0
C561 C 0.14153 0.87909 0.61919 0.0
C562 C 0.16606 0.85849 0.64963 0.0
C563 C 0.16199 0.09943 0.6681 0.0
C564 C 0.14995 0.12083 0.70883 0.0
C565 C 0.13258 0.07065 0.6323 0.0
C566 C 0.09069 0.0612 0.63733 0.0
H567 H 0.19316 0.1091 0.66047 0.0
H568 H 0.14214 0.0583 0.59875 0.0
S569 S 0.04762 0.09634 0.74717 0.0
N570 N 0.09661 0.1232 0.75897 0.0
N571 N 0.04116 0.06578 0.69298 0.0
C572 C 0.08002 0.07623 0.6825 0.0
C573 C 0.10994 0.10692 0.71836 0.0
C574 C 0.80838 0.11821 0.65063 0.0
C575 C 0.81811 0.16187 0.65436 0.0
C576 C 0.82936 0.09361 0.62337 0.0
C577 C 0.86119 0.11208 0.59993 0.0
H578 H 0.78441 0.10303 0.66884 0.0
H579 H 0.82186 0.06005 0.62234 0.0
S580 S 0.89818 0.22508 0.59872 0.0
N581 N 0.86066 0.22269 0.63167 0.0
N582 N 0.90139 0.17622 0.58186 0.0
C583 C 0.87095 0.15565 0.60301 0.0
C584 C 0.84897 0.18065 0.62987 0.0
C585 C 0.88656 0.83598 0.7002 0.0
C586 C 0.8604 0.85055 0.73019 0.0
C587 C 0.90899 0.86244 0.67372 0.0
C588 C 0.90621 0.90438 0.67671 0.0
H589 H 0.88676 0.803 0.69371 0.0
H590 H 0.92668 0.84932 0.64846 0.0
S591 S 0.84631 0.95895 0.75506 0.0
N592 N 0.83592 0.9102 0.76532 0.0
N593 N 0.87927 0.9607 0.71606 0.0
C594 C 0.88351 0.92049 0.71031 0.0
C595 C 0.86022 0.89326 0.73707 0.0
C596 C 0.28833 0.10781 0.11217 0.0
C597 C 0.29587 0.15172 0.1184 0.0
C598 C 0.31605 0.08641 0.09304 0.0
C599 C 0.35218 0.10818 0.07955 0.0
H600 H 0.2621 0.09001 0.12478 0.0
H601 H 0.31061 0.05284 0.09172 0.0
S602 S 0.38421 0.22218 0.08241 0.0
N603 N 0.34043 0.21579 0.10451 0.0
N604 N 0.39258 0.17483 0.06888 0.0
C605 C 0.3587 0.15149 0.08185 0.0
C606 C 0.33038 0.17348 0.10108 0.0
C607 C 0.88693 0.3349 0.20348 0.0
C608 C 0.85804 0.29908 0.17646 0.0
C609 C 0.91081 0.3626 0.17955 0.0
C610 C 0.90612 0.35558 0.12769 0.0
H611 H 0.88852 0.34339 0.243 0.0
H612 H 0.93065 0.39117 0.20161 0.0
S613 S 0.84093 0.26172 0.04152 0.0
N614 N 0.83061 0.25446 0.09657 0.0
N615 N 0.87576 0.30663 0.0509 0.0
C616 C 0.88063 0.31757 0.10081 0.0
C617 C 0.85652 0.28913 0.12545 0.0
C618 C 0.68121 0.86718 0.12309 0.0
C619 C 0.67234 0.82381 0.12254 0.0
C620 C 0.65001 0.88697 0.10522 0.0
C621 C 0.60874 0.86414 0.08702 0.0
H622 H 0.71192 0.88618 0.13975 0.0
H623 H 0.65765 0.92072 0.10825 0.0
S624 S 0.56974 0.74964 0.07645 0.0
N625 N 0.61988 0.75826 0.10012 0.0
N626 N 0.56107 0.79571 0.06765 0.0
C627 C 0.60001 0.82044 0.08364 0.0
C628 C 0.63189 0.8002 0.10124 0.0
C629 C 0.11594 0.62395 0.08208 0.0
C630 C 0.10589 0.65741 0.11117 0.0
C631 C 0.08685 0.58566 0.06595 0.0
C632 C 0.0471 0.57998 0.07845 0.0
H633 H 0.14745 0.62601 0.07548 0.0
H634 H 0.09639 0.55963 0.04644 0.0
S635 S 0.00245 0.66051 0.14312 0.0
N636 N 0.05122 0.68449 0.14408 0.0
N637 N -0.00335 0.61227 0.11375 0.0
C638 C 0.03537 0.61423 0.10306 0.0
C639 C 0.06476 0.65319 0.11921 0.0
C640 C 0.33382 0.89452 0.92431 0.0
C641 C 0.33187 0.85764 0.89179 0.0
C642 C 0.3714 0.92491 0.93945 0.0
C643 C 0.40745 0.91996 0.9208 0.0
H644 H 0.30609 0.90022 0.9373 0.0
H645 H 0.37162 0.95299 0.96437 0.0
S646 S 0.41756 0.8292 0.83354 0.0
N647 N 0.36874 0.81746 0.84162 0.0
N648 N 0.43873 0.87543 0.86833 0.0
C649 C 0.4057 0.88313 0.88835 0.0
C650 C 0.36799 0.85175 0.87422 0.0
C651 C 0.13322 0.3339 0.83878 0.0
C652 C 0.17072 0.32761 0.8638 0.0
C653 C 0.11345 0.36327 0.86005 0.0
C654 C 0.13099 0.38801 0.90662 0.0
H655 H 0.12004 0.31728 0.80151 0.0
H656 H 0.08495 0.36778 0.83911 0.0
S657 S 0.2273 0.38174 0.98869 0.0
N658 N 0.22367 0.34678 0.93871 0.0
N659 N 0.18638 0.40263 0.97874 0.0
C660 C 0.16766 0.38109 0.93297 0.0
C661 C 0.1876 0.35064 0.91149 0.0
C662 C 0.67518 0.11297 0.84932 0.0
C663 C 0.68331 0.15655 0.86382 0.0
C664 C 0.64544 0.08653 0.86842 0.0
C665 C 0.62416 0.103 0.90356 0.0
H666 H 0.68938 0.09952 0.82033 0.0
H667 H 0.6381 0.05318 0.85452 0.0
S668 S 0.63769 0.21461 0.95709 0.0
N669 N 0.66998 0.21484 0.91741 0.0
N670 N 0.61542 0.1649 0.95496 0.0
C671 C 0.6344 0.14619 0.92111 0.0
C672 C 0.66378 0.1731 0.90081 0.0
C673 C 0.86793 0.69415 0.88648 0.0
C674 C 0.82431 0.68255 0.88003 0.0
C675 C 0.89277 0.67065 0.91051 0.0
C676 C 0.87468 0.63505 0.92905 0.0
H677 H 0.88274 0.71948 0.86959 0.0
H678 H 0.92606 0.67862 0.91131 0.0
S679 S 0.7624 0.59758 0.93067 0.0
N680 N 0.76435 0.63722 0.90004 0.0
N681 N 0.81113 0.59367 0.94631 0.0
C682 C 0.83137 0.62569 0.92684 0.0
C683 C 0.80612 0.64931 0.90198 0.0
C684 C 0.14297 0.34219 0.1565 0.0
C685 C 0.15309 0.30797 0.12939 0.0
C686 C 0.1224 0.36866 0.13272 0.0
C687 C 0.11058 0.36148 0.08096 0.0
H688 H 0.15069 0.34837 0.1966 0.0
H689 H 0.11386 0.39377 0.15531 0.0
S690 S 0.13244 0.27786 0.99282 0.0
N691 N 0.15276 0.26981 0.04797 0.0
N692 N 0.11207 0.31908 0.00288 0.0
C693 C 0.12162 0.32817 0.05309 0.0
C694 C 0.14357 0.30157 0.07744 0.0
C695 C 0.08575 0.66915 0.8297 0.0
C696 C 0.11941 0.69812 0.86137 0.0
C697 C 0.06277 0.63587 0.84694 0.0
C698 C 0.07204 0.63093 0.89657 0.0
H699 H 0.0796 0.66945 0.79026 0.0
H700 H 0.03934 0.61258 0.8204 0.0
S701 S 0.14687 0.7067 -0.00256 0.0
N702 N 0.15404 0.72564 0.94649 0.0
N703 N 0.10967 0.66356 0.9796 0.0
C704 C 0.10124 0.66315 0.93001 0.0
C705 C 0.12511 0.69682 0.91223 0.0
C706 C 0.32685 0.16437 0.89696 0.0
C707 C 0.34384 0.2033 0.88464 0.0
C708 C 0.3527 0.13939 0.91592 0.0
C709 C 0.3964 0.15278 0.92411 0.0
H710 H 0.29351 0.1515 0.88811 0.0
H711 H 0.33842 0.10839 0.92162 0.0
S712 S 0.45625 0.25545 0.90665 0.0
N713 N 0.40699 0.25646 0.8883 0.0
N714 N 0.45542 0.20972 0.92453 0.0
C715 C 0.41368 0.19333 0.91662 0.0
C716 C 0.38742 0.21855 0.89671 0.0
C717 C 0.87125 0.33391 0.91475 0.0
C718 C 0.87537 0.31174 0.86952 0.0
C719 C 0.89587 0.3742 0.93331 0.0
C720 C 0.92561 0.39301 0.90749 0.0
H721 H 0.84512 0.32262 0.93213 0.0
H722 H 0.88893 0.39208 0.96535 0.0
S723 S 0.95612 0.34272 0.7952 0.0
N724 N 0.91662 0.30764 0.80499 0.0
N725 N 0.96401 0.38295 0.84049 0.0
C726 C 0.93398 0.36871 0.86618 0.0
C727 C 0.90887 0.32779 0.84742 0.0
C728 C 0.67094 0.83389 0.90226 0.0
C729 C 0.68943 0.8438 0.86176 0.0
C730 C 0.64524 0.85826 0.92161 0.0
C731 C 0.63701 0.89265 0.90031 0.0
H732 H 0.67416 0.80574 0.91688 0.0
H733 H 0.62977 0.84866 0.95123 0.0
S734 S 0.68209 0.93359 0.79731 0.0
N735 N 0.70063 0.89162 0.80366 0.0
N736 N 0.65322 0.93793 0.84028 0.0
C737 C 0.65775 0.90427 0.862 0.0
C738 C 0.6837 0.87959 0.84253 0.0
C739 C 0.85159 0.66625 0.11266 0.0
C740 C 0.80904 0.65842 0.11551 0.0
C741 C 0.86952 0.63422 0.094 0.0
C742 C 0.84563 0.59315 0.0778 0.0
H743 H 0.87171 0.69684 0.12754 0.0
H744 H 0.90288 0.64105 0.0951 0.0
S745 S 0.73207 0.55691 0.07221 0.0
N746 N 0.74258 0.60721 0.0961 0.0
N747 N 0.77675 0.54686 0.0613 0.0
C748 C 0.80248 0.58544 0.07661 0.0
C749 C 0.78403 0.61818 0.09545 0.0
C750 C 0.31355 0.89172 0.17378 0.0
C751 C 0.28451 0.85781 0.14273 0.0
C752 C 0.34724 0.91384 0.15665 0.0
C753 C 0.35282 0.90329 0.10774 0.0
H754 H 0.31241 0.89921 0.21273 0.0
H755 H 0.36997 0.93819 0.18267 0.0
S756 S 0.27987 0.82407 0.00859 0.0
N757 N 0.25925 0.81979 0.05866 0.0
N758 N 0.32272 0.86156 0.02622 0.0
C759 C 0.32159 0.87258 0.0749 0.0
C760 C 0.28725 0.84992 0.09243 0.0
C761 C 0.60772 0.13137 0.1689 0.0
C762 C 0.64824 0.13084 0.16022 0.0
C763 C 0.57291 0.10281 0.14082 0.0
C764 C 0.57686 0.07283 0.10232 0.0
H765 H 0.60263 0.15338 0.19872 0.0
H766 H 0.54267 0.10327 0.15052 0.0
S767 S 0.67461 0.06157 0.05918 0.0
N768 N 0.68978 0.10049 0.10677 0.0
N769 N 0.62343 0.04658 0.05304 0.0
C770 C 0.6165 0.07375 0.09031 0.0
C771 C 0.65247 0.10291 0.11948 0.0
C772 C 0.60672 0.65422 0.83068 0.0
C773 C 0.61852 0.63325 0.78941 0.0
C774 C 0.58667 0.6321 0.86298 0.0
C775 C 0.57687 0.58823 0.85462 0.0
H776 H 0.61527 0.68807 0.8399 0.0
H777 H 0.57969 0.64957 0.89537 0.0
S778 S 0.59606 0.51862 0.74794 0.0
N779 N 0.6161 0.56646 0.73943 0.0
N780 N 0.57674 0.52435 0.79925 0.0
C781 C 0.58591 0.56676 0.81156 0.0
C782 C 0.60725 0.58943 0.77919 0.0
C783 C 0.3108 0.62808 0.88428 0.0
C784 C 0.32584 0.65339 0.8509 0.0
C785 C 0.33676 0.60733 0.91148 0.0
C786 C 0.37882 0.61231 0.90714 0.0
H787 H 0.2787 0.62418 0.88925 0.0
H788 H 0.32409 0.58768 0.93633 0.0
S789 S 0.4335 0.67507 0.82556 0.0
N790 N 0.38542 0.6819 0.81517 0.0
N791 N 0.43426 0.64353 0.86684 0.0
C792 C 0.39418 0.63742 0.87402 0.0
C793 C 0.36767 0.65781 0.84572 0.0
C794 C 0.36179 0.38513 0.86963 0.0
C795 C 0.37164 0.3633 0.82732 0.0
C796 C 0.39222 0.40285 0.91146 0.0
C797 C 0.43352 0.40009 0.91177 0.0
H798 H 0.33054 0.38951 0.87032 0.0
H799 H 0.38419 0.42232 0.9415 0.0
S800 S 0.47448 0.33989 0.81596 0.0
N801 N 0.42476 0.33442 0.79221 0.0
N802 N 0.48225 0.36922 0.87108 0.0
C803 C 0.44322 0.37522 0.87221 0.0
C804 C 0.41226 0.35678 0.82963 0.0
C805 C 0.69204 0.36278 0.9 0.0
C806 C 0.6726 0.35219 0.84976 0.0
C807 C 0.6783 0.39018 0.93328 0.0
C808 C 0.64527 0.40805 0.91674 0.0
H809 H 0.71803 0.34975 0.91358 0.0
H810 H 0.69381 0.3979 0.97171 0.0
S811 S 0.58519 0.39158 0.78901 0.0
N812 N 0.6192 0.3618 0.78524 0.0
N813 N 0.59373 0.41416 0.84764 0.0
C814 C 0.62559 0.39769 0.86677 0.0
C815 C 0.63915 0.36941 0.83318 0.0
C816 C 0.657 0.33788 0.1252 0.0
C817 C 0.64519 0.29924 0.1409 0.0
C818 C 0.62793 0.35367 0.09605 0.0
C819 C 0.58615 0.33149 0.08209 0.0
H820 H 0.68785 0.35776 0.13879 0.0
H821 H 0.63699 0.38543 0.08922 0.0
S822 S 0.54319 0.22305 0.09844 0.0
N823 N 0.59188 0.23434 0.12861 0.0
N824 N 0.5368 0.26514 0.07505 0.0
C825 C 0.57559 0.29026 0.09063 0.0
C826 C 0.60529 0.27387 0.12007 0.0
C827 C 0.61598 0.59388 0.20093 0.0
C828 C 0.63874 0.62193 0.1762 0.0
C829 C 0.58467 0.56034 0.17407 0.0
C830 C 0.57526 0.55405 0.12181 0.0
H831 H 0.62102 0.59893 0.24102 0.0
H832 H 0.56668 0.54021 0.19464 0.0
S833 S 0.63213 0.61453 0.04012 0.0
N834 N 0.65478 0.63776 0.09685 0.0
N835 N 0.59491 0.57553 0.04664 0.0
C836 C 0.60008 0.58007 0.09678 0.0
C837 C 0.63214 0.61388 0.12399 0.0
C838 C 0.33561 0.66116 0.10739 0.0
C839 C 0.30992 0.64731 0.14045 0.0
C840 C 0.35428 0.63341 0.08065 0.0
C841 C 0.3467 0.59081 0.08512 0.0
H842 H 0.34229 0.69382 0.10336 0.0
H843 H 0.37543 0.64542 0.05717 0.0
S844 S 0.27918 0.53896 0.16424 0.0
N845 N 0.27621 0.58845 0.17454 0.0
N846 N 0.31059 0.53608 0.1239 0.0
C847 C 0.31972 0.57649 0.11669 0.0
C848 C 0.30152 0.60484 0.14453 0.0
C849 C 0.38813 0.34003 0.22148 0.0
C850 C 0.35773 0.35413 0.24475 0.0
C851 C 0.40762 0.36289 0.18938 0.0
C852 C 0.39775 0.40073 0.18071 0.0
H853 H 0.39326 0.30896 0.22355 0.0
H854 H 0.42878 0.34985 0.16921 0.0
S855 S 0.32595 0.45444 0.23923 0.0
N856 N 0.3223 0.41027 0.26159 0.0
N857 N 0.36073 0.45448 0.20262 0.0
C858 C 0.37115 0.41753 0.20795 0.0
C859 C 0.35075 0.39389 0.24004 0.0
C860 C 0.82713 0.66346 0.60495 0.0
C861 C 0.79162 0.64197 0.62045 0.0
C862 C 0.85388 0.64181 0.58385 0.0
C863 C 0.84551 0.59796 0.57654 0.0
H864 H 0.83586 0.69736 0.61204 0.0
H865 H 0.88218 0.65947 0.5751 0.0
S866 S 0.75396 0.52691 0.60467 0.0
N867 N 0.74758 0.57441 0.62286 0.0
N868 N 0.79757 0.53353 0.58231 0.0
C869 C 0.80861 0.57599 0.58851 0.0
C870 C 0.78172 0.59806 0.61076 0.0
C871 C 0.33044 0.85598 0.66881 0.0
C872 C 0.33701 0.81573 0.67356 0.0
C873 C 0.35474 0.88234 0.64412 0.0
C874 C 0.38602 0.86933 0.62232 0.0
H875 H 0.30631 0.8677 0.68447 0.0
H876 H 0.34889 0.91314 0.64193 0.0
S877 S 0.41705 0.76824 0.62381 0.0
N878 N 0.37804 0.76469 0.65455 0.0
N879 N 0.42339 0.81462 0.60646 0.0
C880 C 0.3929 0.82927 0.62558 0.0
C881 C 0.36839 0.80231 0.65158 0.0
C882 C 0.18007 0.36862 0.62269 0.0
C883 C 0.1743 0.32481 0.61674 0.0
C884 C 0.14816 0.38708 0.60388 0.0
C885 C 0.10931 0.36247 0.57846 0.0
H886 H 0.20827 0.38884 0.64514 0.0
H887 H 0.1529 0.42082 0.61225 0.0
S888 S 0.08122 0.24697 0.54348 0.0
N889 N 0.12907 0.25758 0.5759 0.0
N890 N 0.06897 0.29265 0.54133 0.0
C891 C 0.10476 0.31902 0.56712 0.0
C892 C 0.13737 0.30007 0.58607 0.0
C893 C 0.60078 0.14268 0.58759 0.0
C894 C 0.62221 0.14925 0.63661 0.0
C895 C 0.57457 0.10352 0.56588 0.0
C896 C 0.56978 0.06989 0.59235 0.0
H897 H 0.60332 0.16811 0.5666 0.0
H898 H 0.55683 0.10018 0.52904 0.0
S899 S 0.62552 0.06978 0.71862 0.0
N900 N 0.64112 0.11807 0.70883 0.0
N901 N 0.59256 0.0447 0.66787 0.0
C902 C 0.59318 0.07572 0.64028 0.0
C903 C 0.61929 0.11537 0.66242 0.0
C904 C 0.852 0.38316 0.41992 0.0
C905 C 0.82527 0.39018 0.37886 0.0
C906 C 0.89233 0.40778 0.4357 0.0
C907 C 0.90702 0.44118 0.41235 0.0
H908 H 0.84344 0.35604 0.43721 0.0
H909 H 0.91312 0.3989 0.46423 0.0
S910 S 0.84724 0.47912 0.31089 0.0
N911 N 0.81471 0.43726 0.32005 0.0
N912 N 0.89057 0.48438 0.35132 0.0
C913 C 0.87968 0.45131 0.37456 0.0
C914 C 0.83857 0.42591 0.35787 0.0
C915 C 0.689 0.83719 0.40707 0.0
C916 C 0.66989 0.80707 0.3647 0.0
C917 C 0.66818 0.86685 0.4261 0.0
C918 C 0.62775 0.86735 0.40306 0.0
H919 H 0.72122 0.83961 0.4235 0.0
H920 H 0.68442 0.89064 0.45757 0.0
S921 S 0.56431 0.79505 0.29146 0.0
N922 N 0.60824 0.77907 0.30105 0.0
N923 N 0.56903 0.83464 0.33664 0.0
C924 C 0.60762 0.8361 0.36222 0.0
C925 C 0.62874 0.80596 0.34305 0.0
C926 C 0.18077 0.59461 0.33327 0.0
C927 C 0.19488 0.63795 0.34854 0.0
C928 C 0.15232 0.57135 0.35707 0.0
C929 C 0.13719 0.59098 0.3965 0.0
H930 H 0.18903 0.57929 0.30037 0.0
H931 H 0.14045 0.53824 0.34285 0.0
S932 S 0.16617 0.70385 0.45063 0.0
N933 N 0.19346 0.69947 0.40603 0.0
N934 N 0.14003 0.6559 0.45095 0.0
C935 C 0.15328 0.63389 0.41397 0.0
C936 C 0.18218 0.65741 0.38982 0.0
C937 C 0.31007 0.12601 0.36963 0.0
C938 C 0.32408 0.16946 0.3719 0.0
C939 C 0.33629 0.10216 0.38985 0.0
C940 C 0.37752 0.12078 0.41333 0.0
H941 H 0.27916 0.10983 0.34985 0.0
H942 H 0.32488 0.06853 0.38489 0.0
S943 S 0.42802 0.23389 0.43458 0.0
N944 N 0.38063 0.23074 0.40395 0.0
N945 N 0.43017 0.18565 0.44191 0.0
C946 C 0.39096 0.16459 0.41954 0.0
C947 C 0.36413 0.18903 0.39887 0.0
C948 C 0.60261 0.77318 0.59691 0.0
C949 C 0.64619 0.7875 0.60747 0.0
C950 C 0.57705 0.79756 0.57653 0.0
C951 C 0.59429 0.83727 0.56659 0.0
H952 H 0.58806 0.74423 0.60764 0.0
H953 H 0.5436 0.78677 0.57261 0.0
S954 S 0.70665 0.88608 0.5799 0.0
N955 N 0.70569 0.84147 0.60062 0.0
N956 N 0.6574 0.8873 0.56204 0.0
C957 C 0.63785 0.85015 0.57242 0.0
C958 C 0.66393 0.82518 0.59289 0.0
C959 C 0.66778 0.16458 0.39497 0.0
C960 C 0.64974 0.19665 0.37894 0.0
C961 C 0.64341 0.12853 0.40556 0.0
C962 C 0.60018 0.12308 0.40016 0.0
H963 H 0.70082 0.16623 0.39712 0.0
H964 H 0.65836 0.10422 0.41673 0.0
S965 S 0.53796 0.19911 0.36568 0.0
N966 N 0.5862 0.22179 0.36226 0.0
N967 N 0.5402 0.15346 0.38246 0.0
C968 C 0.58164 0.15517 0.38603 0.0
C969 C 0.60652 0.19215 0.37538 0.0
C970 C 0.87978 0.69796 0.38215 0.0
C971 C 0.83691 0.67903 0.368 0.0
C972 C 0.90812 0.67676 0.404 0.0
C973 C 0.89469 0.63582 0.4125 0.0
H974 H 0.8919 0.72866 0.37384 0.0
H975 H 0.94109 0.6915 0.41149 0.0
S976 S 0.78588 0.57349 0.38737 0.0
N977 N 0.78217 0.61803 0.36831 0.0
N978 N 0.83588 0.57808 0.40908 0.0
C979 C 0.85181 0.61746 0.40184 0.0
C980 C 0.82273 0.63918 0.37982 0.0
C981 C 0.40293 0.8324 0.34221 0.0
C982 C 0.36574 0.82071 0.35984 0.0
C983 C 0.4316 0.87013 0.36359 0.0
C984 C 0.42382 0.89713 0.40316 0.0
H985 H 0.40808 0.81437 0.30904 0.0
H986 H 0.45904 0.87913 0.34751 0.0
S987 S 0.3323 0.87821 0.46475 0.0
N988 N 0.32414 0.8367 0.42122 0.0
N989 N 0.3776 0.90782 0.46085 0.0
C990 C 0.38829 0.88399 0.42333 0.0
C991 C 0.35935 0.84561 0.4018 0.0
C992 C 0.15105 0.31046 0.4019 0.0
C993 C 0.18804 0.3273 0.38597 0.0
C994 C 0.12855 0.33651 0.42461 0.0
C995 C 0.14208 0.38028 0.4316 0.0
H996 H 0.1382 0.27697 0.39418 0.0
H997 H 0.09914 0.32241 0.43412 0.0
S998 S 0.23756 0.4397 0.39756 0.0
N999 N 0.23817 0.39009 0.38062 0.0
N1000 N 0.19559 0.43929 0.42258 0.0
C1001 C 0.18031 0.39743 0.41847 0.0
C1002 C 0.20339 0.37083 0.39575 0.0
C1003 C 0.33973 0.14222 0.66452 0.0
C1004 C 0.31424 0.16206 0.63517 0.0
C1005 C 0.35734 0.11121 0.64332 0.0
C1006 C 0.35065 0.09889 0.59178 0.0
H1007 H 0.34632 0.15073 0.70453 0.0
H1008 H 0.37717 0.09726 0.66759 0.0
S1009 S 0.28463 0.13905 0.49826 0.0
N1010 N 0.28103 0.16547 0.55185 0.0
N1011 N 0.31549 0.10723 0.51156 0.0
C1012 C 0.32403 0.11709 0.56173 0.0
C1013 C 0.30549 0.14871 0.58355 0.0
C1014 C 0.81802 0.39982 0.67831 0.0
C1015 C 0.78863 0.36483 0.64971 0.0
C1016 C 0.85094 0.42077 0.65891 0.0
C1017 C 0.85532 0.40805 0.60998 0.0
H1018 H 0.81787 0.40907 0.71726 0.0
H1019 H 0.87419 0.44577 0.68334 0.0
S1020 S 0.77956 0.32702 0.51545 0.0
N1021 N 0.76083 0.32451 0.56703 0.0
N1022 N 0.82258 0.36447 0.53025 0.0
C1023 C 0.82315 0.37689 0.57912 0.0
C1024 C 0.78965 0.3553 0.59901 0.0
C1025 C 0.1563 0.5744 0.65415 0.0
C1026 C 0.16572 0.61427 0.64093 0.0
C1027 C 0.11855 0.54588 0.63244 0.0
C1028 C 0.0894 0.55663 0.59706 0.0
H1029 H 0.17615 0.56683 0.68475 0.0
H1030 H 0.11111 0.51624 0.64531 0.0
S1031 S 0.09948 0.65712 0.55066 0.0
N1032 N 0.14372 0.66237 0.58943 0.0
N1033 N 0.07261 0.60918 0.54951 0.0
C1034 C 0.0997 0.5952 0.58133 0.0
C1035 C 0.13812 0.62391 0.60295 0.0
loop_
_geom_bond_atom_site_label_1
_geom_bond_atom_site_label_2
_geom_bond_distance
_geom_bond_site_symmetry_2
_ccdc_geom_bond_type
O0 Zn1 1.953 . S
O0 C16 1.225 . S
Zn1 O0 1.953 . S
Zn1 O2 1.949 . S
Zn1 O8 1.919 . S
Zn1 O13 1.924 . S
O2 Zn1 1.949 . S
O2 Zn3 1.923 . S
O2 Zn4 1.950 . S
O2 Zn5 1.945 . S
Zn3 O2 1.923 . S
Zn3 O6 1.933 . S
Zn3 O9 1.941 . S
Zn3 O10 1.965 . S
Zn4 O2 1.950 . S
Zn4 O11 1.938 . S
Zn4 O12 1.906 . S
Zn4 O22 1.953 . S
Zn5 O2 1.945 . S
Zn5 O7 1.932 . S
Zn5 O14 1.977 . S
Zn5 O15 1.910 . S
O6 Zn3 1.933 . S
O6 C17 1.226 . S
O7 Zn5 1.932 . S
O7 C17 1.307 . S
O8 Zn1 1.919 . S
O8 C19 1.253 . S
O9 Zn3 1.941 . S
O9 C19 1.283 . S
O10 Zn3 1.965 . S
O10 C18 1.303 . S
O11 Zn4 1.938 . S
O11 C18 1.247 . S
O12 Zn4 1.906 . S
O12 C20 1.304 . S
O13 Zn1 1.924 . S
O13 C21 1.311 . S
O14 Zn5 1.977 . S
O14 C20 1.272 . S
O15 Zn5 1.910 . S
O15 C21 1.231 . S
C16 O0 1.225 . S
C16 O22 1.298 . S
C17 O6 1.226 . S
C17 O7 1.307 . S
C18 O10 1.303 . S
C18 O11 1.247 . S
C19 O8 1.253 . S
C19 O9 1.283 . S
C20 O12 1.304 . S
C20 O14 1.272 . S
C21 O13 1.311 . S
C21 O15 1.231 . S
O22 Zn4 1.953 . S
O22 C16 1.298 . S
O23 Zn24 1.953 . S
O23 C39 1.225 . S
Zn24 O23 1.953 . S
Zn24 O25 1.949 . S
Zn24 O31 1.919 . S
Zn24 O36 1.924 . S
O25 Zn24 1.949 . S
O25 Zn26 1.923 . S
O25 Zn27 1.950 . S
O25 Zn28 1.945 . S
Zn26 O25 1.923 . S
Zn26 O29 1.933 . S
Zn26 O32 1.941 . S
Zn26 O33 1.965 . S
Zn27 O25 1.950 . S
Zn27 O34 1.938 . S
Zn27 O35 1.906 . S
Zn27 O45 1.953 . S
Zn28 O25 1.945 . S
Zn28 O30 1.932 . S
Zn28 O37 1.977 . S
Zn28 O38 1.910 . S
O29 Zn26 1.933 . S
O29 C40 1.226 . S
O30 Zn28 1.932 . S
O30 C40 1.307 . S
O31 Zn24 1.919 . S
O31 C42 1.253 . S
O32 Zn26 1.941 . S
O32 C42 1.283 . S
O33 Zn26 1.965 . S
O33 C41 1.303 . S
O34 Zn27 1.938 . S
O34 C41 1.247 . S
O35 Zn27 1.906 . S
O35 C43 1.304 . S
O36 Zn24 1.924 . S
O36 C44 1.311 . S
O37 Zn28 1.977 . S
O37 C43 1.272 . S
O38 Zn28 1.910 . S
O38 C44 1.231 . S
C39 O23 1.225 . S
C39 O45 1.298 . S
C40 O29 1.226 . S
C40 O30 1.307 . S
C41 O33 1.303 . S
C41 O34 1.247 . S
C42 O31 1.253 . S
C42 O32 1.283 . S
C43 O35 1.304 . S
C43 O37 1.272 . S
C44 O36 1.311 . S
C44 O38 1.231 . S
O45 Zn27 1.953 . S
O45 C39 1.298 . S
O46 Zn47 1.953 . S
O46 C62 1.225 . S
Zn47 O46 1.953 . S
Zn47 O48 1.949 . S
Zn47 O54 1.919 . S
Zn47 O59 1.924 . S
O48 Zn47 1.949 . S
O48 Zn49 1.923 . S
O48 Zn50 1.950 . S
O48 Zn51 1.945 . S
Zn49 O48 1.923 . S
Zn49 O52 1.933 . S
Zn49 O55 1.941 . S
Zn49 O56 1.965 . S
Zn50 O48 1.950 . S
Zn50 O57 1.938 . S
Zn50 O58 1.906 . S
Zn50 O68 1.953 . S
Zn51 O48 1.945 . S
Zn51 O53 1.932 . S
Zn51 O60 1.977 . S
Zn51 O61 1.910 . S
O52 Zn49 1.933 . S
O52 C63 1.226 . S
O53 Zn51 1.932 . S
O53 C63 1.307 . S
O54 Zn47 1.919 . S
O54 C65 1.253 . S
O55 Zn49 1.941 . S
O55 C65 1.283 . S
O56 Zn49 1.965 . S
O56 C64 1.303 . S
O57 Zn50 1.938 . S
O57 C64 1.247 . S
O58 Zn50 1.906 . S
O58 C66 1.304 . S
O59 Zn47 1.924 . S
O59 C67 1.311 . S
O60 Zn51 1.977 . S
O60 C66 1.272 . S
O61 Zn51 1.910 . S
O61 C67 1.231 . S
C62 O46 1.225 . S
C62 O68 1.298 . S
C63 O52 1.226 . S
C63 O53 1.307 . S
C64 O56 1.303 . S
C64 O57 1.247 . S
C65 O54 1.253 . S
C65 O55 1.283 . S
C66 O58 1.304 . S
C66 O60 1.272 . S
C67 O59 1.311 . S
C67 O61 1.231 . S
O68 Zn50 1.953 . S
O68 C62 1.298 . S
O69 Zn70 1.953 . S
O69 C85 1.225 . S
Zn70 O69 1.953 . S
Zn70 O71 1.949 . S
Zn70 O77 1.919 . S
Zn70 O82 1.924 . S
O71 Zn70 1.949 . S
O71 Zn72 1.923 . S
O71 Zn73 1.950 . S
O71 Zn74 1.945 . S
Zn72 O71 1.923 . S
Zn72 O75 1.933 . S
Zn72 O78 1.941 . S
Zn72 O79 1.965 . S
Zn73 O71 1.950 . S
Zn73 O80 1.938 . S
Zn73 O81 1.906 . S
Zn73 O91 1.953 . S
Zn74 O71 1.945 . S
Zn74 O76 1.932 . S
Zn74 O83 1.977 . S
Zn74 O84 1.910 . S
O75 Zn72 1.933 . S
O75 C86 1.226 . S
O76 Zn74 1.932 . S
O76 C86 1.307 . S
O77 Zn70 1.919 . S
O77 C88 1.253 . S
O78 Zn72 1.941 . S
O78 C88 1.283 . S
O79 Zn72 1.965 . S
O79 C87 1.303 . S
O80 Zn73 1.938 . S
O80 C87 1.247 . S
O81 Zn73 1.906 . S
O81 C89 1.304 . S
O82 Zn70 1.924 . S
O82 C90 1.311 . S
O83 Zn74 1.977 . S
O83 C89 1.272 . S
O84 Zn74 1.910 . S
O84 C90 1.231 . S
C85 O69 1.225 . S
C85 O91 1.298 . S
C86 O75 1.226 . S
C86 O76 1.307 . S
C87 O79 1.303 . S
C87 O80 1.247 . S
C88 O77 1.253 . S
C88 O78 1.283 . S
C89 O81 1.304 . S
C89 O83 1.272 . S
C90 O82 1.311 . S
C90 O84 1.231 . S
O91 Zn73 1.953 . S
O91 C85 1.298 . S
O92 Zn93 1.953 . S
O92 C108 1.225 . S
Zn93 O92 1.953 . S
Zn93 O94 1.949 . S
Zn93 O100 1.919 . S
Zn93 O105 1.924 . S
O94 Zn93 1.949 . S
O94 Zn95 1.923 . S
O94 Zn96 1.950 . S
O94 Zn97 1.945 . S
Zn95 O94 1.923 . S
Zn95 O98 1.933 . S
Zn95 O101 1.941 . S
Zn95 O102 1.965 . S
Zn96 O94 1.950 . S
Zn96 O103 1.938 . S
Zn96 O104 1.906 . S
Zn96 O114 1.953 . S
Zn97 O94 1.945 . S
Zn97 O99 1.932 . S
Zn97 O106 1.977 . S
Zn97 O107 1.910 . S
O98 Zn95 1.933 . S
O98 C109 1.226 . S
O99 Zn97 1.932 . S
O99 C109 1.307 . S
O100 Zn93 1.919 . S
O100 C111 1.253 . S
O101 Zn95 1.941 . S
O101 C111 1.283 . S
O102 Zn95 1.965 . S
O102 C110 1.303 . S
O103 Zn96 1.938 . S
O103 C110 1.247 . S
O104 Zn96 1.906 . S
O104 C112 1.304 . S
O105 Zn93 1.924 . S
O105 C113 1.311 . S
O106 Zn97 1.977 . S
O106 C112 1.272 . S
O107 Zn97 1.910 . S
O107 C113 1.231 . S
C108 O92 1.225 . S
C108 O114 1.298 . S
C109 O98 1.226 . S
C109 O99 1.307 . S
C110 O102 1.303 . S
C110 O103 1.247 . S
C111 O100 1.253 . S
C111 O101 1.283 . S
C112 O104 1.304 . S
C112 O106 1.272 . S
C113 O105 1.311 . S
C113 O107 1.231 . S
O114 Zn96 1.953 . S
O114 C108 1.298 . S
O115 Zn116 1.953 . S
O115 C131 1.225 . S
Zn116 O115 1.953 . S
Zn116 O117 1.949 . S
Zn116 O123 1.919 . S
Zn116 O128 1.924 . S
O117 Zn116 1.949 . S
O117 Zn118 1.923 . S
O117 Zn119 1.950 . S
O117 Zn120 1.945 . S
Zn118 O117 1.923 . S
Zn118 O121 1.933 . S
Zn118 O124 1.941 . S
Zn118 O125 1.965 . S
Zn119 O117 1.950 . S
Zn119 O126 1.938 . S
Zn119 O127 1.906 . S
Zn119 O137 1.953 . S
Zn120 O117 1.945 . S
Zn120 O122 1.932 . S
Zn120 O129 1.977 . S
Zn120 O130 1.910 . S
O121 Zn118 1.933 . S
O121 C132 1.226 . S
O122 Zn120 1.932 . S
O122 C132 1.307 . S
O123 Zn116 1.919 . S
O123 C134 1.253 . S
O124 Zn118 1.941 . S
O124 C134 1.283 . S
O125 Zn118 1.965 . S
O125 C133 1.303 . S
O126 Zn119 1.938 . S
O126 C133 1.247 . S
O127 Zn119 1.906 . S
O127 C135 1.304 . S
O128 Zn116 1.924 . S
O128 C136 1.311 . S
O129 Zn120 1.977 . S
O129 C135 1.272 . S
O130 Zn120 1.910 . S
O130 C136 1.231 . S
C131 O115 1.225 . S
C131 O137 1.298 . S
C132 O121 1.226 . S
C132 O122 1.307 . S
C133 O125 1.303 . S
C133 O126 1.247 . S
C134 O123 1.253 . S
C134 O124 1.283 . S
C135 O127 1.304 . S
C135 O129 1.272 . S
C136 O128 1.311 . S
C136 O130 1.231 . S
O137 Zn119 1.953 . S
O137 C131 1.298 . S
O138 Zn139 1.953 . S
O138 C154 1.225 . S
Zn139 O138 1.953 . S
Zn139 O140 1.949 . S
Zn139 O146 1.919 . S
Zn139 O151 1.924 . S
O140 Zn139 1.949 . S
O140 Zn141 1.923 . S
O140 Zn142 1.950 . S
O140 Zn143 1.945 . S
Zn141 O140 1.923 . S
Zn141 O144 1.933 . S
Zn141 O147 1.941 . S
Zn141 O148 1.965 . S
Zn142 O140 1.950 . S
Zn142 O149 1.938 . S
Zn142 O150 1.906 . S
Zn142 O160 1.953 . S
Zn143 O140 1.945 . S
Zn143 O145 1.932 . S
Zn143 O152 1.977 . S
Zn143 O153 1.910 . S
O144 Zn141 1.933 . S
O144 C155 1.226 . S
O145 Zn143 1.932 . S
O145 C155 1.307 . S
O146 Zn139 1.919 . S
O146 C157 1.253 . S
O147 Zn141 1.941 . S
O147 C157 1.283 . S
O148 Zn141 1.965 . S
O148 C156 1.303 . S
O149 Zn142 1.938 . S
O149 C156 1.247 . S
O150 Zn142 1.906 . S
O150 C158 1.304 . S
O151 Zn139 1.924 . S
O151 C159 1.311 . S
O152 Zn143 1.977 . S
O152 C158 1.272 . S
O153 Zn143 1.910 . S
O153 C159 1.231 . S
C154 O138 1.225 . S
C154 O160 1.298 . S
C155 O144 1.226 . S
C155 O145 1.307 . S
C156 O148 1.303 . S
C156 O149 1.247 . S
C157 O146 1.253 . S
C157 O147 1.283 . S
C158 O150 1.304 . S
C158 O152 1.272 . S
C159 O151 1.311 . S
C159 O153 1.231 . S
O160 Zn142 1.953 . S
O160 C154 1.298 . S
O161 Zn162 1.953 . S
O161 C177 1.225 . S
Zn162 O161 1.953 . S
Zn162 O163 1.949 . S
Zn162 O169 1.919 . S
Zn162 O174 1.924 . S
O163 Zn162 1.949 . S
O163 Zn164 1.923 . S
O163 Zn165 1.950 . S
O163 Zn166 1.945 . S
Zn164 O163 1.923 . S
Zn164 O167 1.933 . S
Zn164 O170 1.941 . S
Zn164 O171 1.965 . S
Zn165 O163 1.950 . S
Zn165 O172 1.938 . S
Zn165 O173 1.906 . S
Zn165 O183 1.953 . S
Zn166 O163 1.945 . S
Zn166 O168 1.932 . S
Zn166 O175 1.977 . S
Zn166 O176 1.910 . S
O167 Zn164 1.933 . S
O167 C178 1.226 . S
O168 Zn166 1.932 . S
O168 C178 1.307 . S
O169 Zn162 1.919 . S
O169 C180 1.253 . S
O170 Zn164 1.941 . S
O170 C180 1.283 . S
O171 Zn164 1.965 . S
O171 C179 1.303 . S
O172 Zn165 1.938 . S
O172 C179 1.247 . S
O173 Zn165 1.906 . S
O173 C181 1.304 . S
O174 Zn162 1.924 . S
O174 C182 1.311 . S
O175 Zn166 1.977 . S
O175 C181 1.272 . S
O176 Zn166 1.910 . S
O176 C182 1.231 . S
C177 O161 1.225 . S
C177 O183 1.298 . S
C178 O167 1.226 . S
C178 O168 1.307 . S
C179 O171 1.303 . S
C179 O172 1.247 . S
C180 O169 1.253 . S
C180 O170 1.283 . S
C181 O173 1.304 . S
C181 O175 1.272 . S
C182 O174 1.311 . S
C182 O176 1.231 . S
O183 Zn165 1.953 . S
O183 C177 1.298 . S
Cd184 N187 2.334 1_655 S
Cd184 N213 2.304 1_565 S
Cd184 O220 2.268 . S
Cd184 O223 2.273 1_665 S
Cd184 O224 2.417 . S
Cd184 O225 2.330 . S
Cd185 N200 2.304 1_455 S
Cd185 N204 2.334 1_545 S
Cd185 O221 2.273 1_445 S
Cd185 O222 2.268 . S
Cd185 O226 2.417 . S
Cd185 O227 2.330 . S
C186 N187 1.332 . S
C186 C190 1.381 . S
C186 H192 0.931 . S
N187 Cd184 2.334 1_455 S
N187 C186 1.332 . S
N187 C191 1.328 . S
C188 C189 1.396 . S
C188 C191 1.378 . S
C188 H230 0.931 . S
C189 C188 1.396 . S
C189 C190 1.382 . S
C190 C186 1.381 . S
C190 C189 1.382 . S
C190 H231 0.930 . S
C191 N187 1.328 . S
C191 C188 1.378 . S
C191 H193 0.930 . S
H192 C186 0.931 . S
H193 C191 0.930 . S
C194 O220 1.238 . S
C194 O221 1.253 . S
C195 C196 1.379 . S
C195 N200 1.337 . S
C195 H201 0.929 . S
C196 C195 1.379 . S
C196 C197 1.380 . S
C196 H232 0.929 . S
C197 C196 1.380 . S
C197 C198 1.399 . S
C198 C197 1.399 . S
C198 C199 1.376 . S
C198 H233 0.931 . S
C199 C198 1.376 . S
C199 N200 1.338 . S
C199 H202 0.930 1_655 S
N200 Cd185 2.304 1_655 S
N200 C195 1.337 . S
N200 C199 1.338 . S
H201 C195 0.929 . S
H202 C199 0.930 1_455 S
C203 N204 1.332 . S
C203 C207 1.381 . S
C203 H209 0.931 . S
N204 Cd185 2.334 1_565 S
N204 C203 1.332 . S
N204 C208 1.328 . S
C205 C206 1.396 . S
C205 C208 1.378 . S
C205 H234 0.931 . S
C206 C205 1.396 . S
C206 C207 1.382 . S
C207 C203 1.381 . S
C207 C206 1.382 . S
C207 H235 0.930 . S
C208 N204 1.328 . S
C208 C205 1.378 . S
C208 H210 0.930 1_565 S
H209 C203 0.931 . S
H210 C208 0.930 1_545 S
C211 O222 1.238 . S
C211 O223 1.253 . S
C212 O224 1.239 . S
C212 O225 1.230 . S
N213 Cd184 2.304 1_545 S
N213 C214 1.337 . S
N213 C218 1.338 . S
C214 N213 1.337 . S
C214 C215 1.379 . S
C214 H228 0.929 . S
C215 C214 1.379 . S
C215 C216 1.380 . S
C215 H236 0.929 . S
C216 C215 1.380 . S
C216 C217 1.399 . S
C217 C216 1.399 . S
C217 C218 1.376 . S
C217 H237 0.931 . S
C218 N213 1.338 . S
C218 C217 1.376 . S
C218 H229 0.941 . S
C219 O226 1.239 . S
C219 O227 1.230 . S
O220 Cd184 2.268 . S
O220 C194 1.238 . S
O221 Cd185 2.273 1_665 S
O221 C194 1.253 . S
O222 Cd185 2.268 . S
O222 C211 1.238 . S
O223 Cd184 2.273 1_445 S
O223 C211 1.253 . S
O224 Cd184 2.417 . S
O224 C212 1.239 . S
O225 Cd184 2.330 . S
O225 C212 1.230 . S
O226 Cd185 2.417 . S
O226 C219 1.239 . S
O227 Cd185 2.330 . S
O227 C219 1.230 . S
H228 C214 0.929 . S
H229 C218 0.941 . S
H230 C188 0.931 . S
H231 C190 0.930 . S
H232 C196 0.929 . S
H233 C198 0.931 . S
H234 C205 0.931 . S
H235 C207 0.930 . S
H236 C215 0.929 . S
H237 C217 0.931 . S
Cd238 N241 2.334 . S
Cd238 N267 2.304 1_565 S
Cd238 O274 2.268 1_554 S
Cd238 O277 2.273 1_565 S
Cd238 O278 2.417 . S
Cd238 O279 2.330 . S
Cd239 N254 2.304 . S
Cd239 N258 2.334 1_545 S
Cd239 O275 2.273 1_545 S
Cd239 O276 2.268 1_556 S
Cd239 O280 2.417 . S
Cd239 O281 2.330 . S
C240 N241 1.332 . S
C240 C244 1.381 . S
C240 H246 0.931 . S
N241 Cd238 2.334 . S
N241 C240 1.332 . S
N241 C245 1.328 . S
C242 C243 1.396 . S
C242 C245 1.378 . S
C242 H284 0.931 . S
C243 C242 1.396 . S
C243 C244 1.382 . S
C244 C240 1.381 . S
C244 C243 1.382 . S
C244 H285 0.930 . S
C245 N241 1.328 . S
C245 C242 1.378 . S
C245 H247 0.930 . S
H246 C240 0.931 . S
H247 C245 0.930 . S
C248 O274 1.238 . S
C248 O275 1.253 . S
C249 C250 1.379 . S
C249 N254 1.337 . S
C249 H255 0.929 . S
C250 C249 1.379 . S
C250 C251 1.380 . S
C250 H286 0.929 . S
C251 C250 1.380 . S
C251 C252 1.399 . S
C252 C251 1.399 . S
C252 C253 1.376 . S
C252 H287 0.931 1_556 S
C253 C252 1.376 . S
C253 N254 1.338 . S
C253 H256 0.930 1_556 S
N254 Cd239 2.304 . S
N254 C249 1.337 . S
N254 C253 1.338 . S
H255 C249 0.929 . S
H256 C253 0.930 1_554 S
C257 N258 1.332 . S
C257 C261 1.381 . S
C257 H263 0.931 . S
N258 Cd239 2.334 1_565 S
N258 C257 1.332 . S
N258 C262 1.328 . S
C259 C260 1.396 . S
C259 C262 1.378 . S
C259 H288 0.931 1_556 S
C260 C259 1.396 . S
C260 C261 1.382 . S
C261 C257 1.381 . S
C261 C260 1.382 . S
C261 H289 0.930 . S
C262 N258 1.328 . S
C262 C259 1.378 . S
C262 H264 0.930 1_566 S
H263 C257 0.931 . S
H264 C262 0.930 1_544 S
C265 O276 1.238 . S
C265 O277 1.253 . S
C266 O278 1.239 . S
C266 O279 1.230 . S
N267 Cd238 2.304 1_545 S
N267 C268 1.337 . S
N267 C272 1.338 . S
C268 N267 1.337 . S
C268 C269 1.379 . S
C268 H282 0.929 . S
C269 C268 1.379 . S
C269 C270 1.380 . S
C269 H290 0.929 . S
C270 C269 1.380 . S
C270 C271 1.399 . S
C271 C270 1.399 . S
C271 C272 1.376 . S
C271 H291 0.927 1_554 S
C272 N267 1.338 . S
C272 C271 1.376 . S
C272 H283 0.937 1_545 S
C273 O280 1.239 . S
C273 O281 1.230 . S
O274 Cd238 2.268 1_556 S
O274 C248 1.238 . S
O275 Cd239 2.273 1_565 S
O275 C248 1.253 . S
O276 Cd239 2.268 1_554 S
O276 C265 1.238 . S
O277 Cd238 2.273 1_545 S
O277 C265 1.253 . S
O278 Cd238 2.417 . S
O278 C266 1.239 . S
O279 Cd238 2.330 . S
O279 C266 1.230 . S
O280 Cd239 2.417 . S
O280 C273 1.239 . S
O281 Cd239 2.330 . S
O281 C273 1.230 . S
H282 C268 0.929 . S
H283 C272 0.937 1_565 S
H284 C242 0.931 . S
H285 C244 0.930 . S
H286 C250 0.929 . S
H287 C252 0.931 1_554 S
H288 C259 0.931 1_554 S
H289 C261 0.930 . S
H290 C269 0.929 . S
H291 C271 0.927 1_556 S
Cd292 N295 2.334 1_655 S
Cd292 N321 2.304 . S
Cd292 O328 2.268 1_554 S
Cd292 O331 2.273 1_655 S
Cd292 O332 2.417 . S
Cd292 O333 2.330 . S
Cd293 N308 2.304 1_455 S
Cd293 N312 2.334 . S
Cd293 O329 2.273 1_455 S
Cd293 O330 2.268 1_556 S
Cd293 O334 2.417 . S
Cd293 O335 2.330 . S
C294 N295 1.332 . S
C294 C298 1.381 . S
C294 H300 0.931 . S
N295 Cd292 2.334 1_455 S
N295 C294 1.332 . S
N295 C299 1.328 . S
C296 C297 1.396 . S
C296 C299 1.378 . S
C296 H338 0.931 1_554 S
C297 C296 1.396 . S
C297 C298 1.382 . S
C298 C294 1.381 . S
C298 C297 1.382 . S
C298 H339 0.930 . S
C299 N295 1.328 . S
C299 C296 1.378 . S
C299 H301 0.930 1_554 S
H300 C294 0.931 . S
H301 C299 0.930 1_556 S
C302 O328 1.238 . S
C302 O329 1.253 . S
C303 C304 1.379 . S
C303 N308 1.337 . S
C303 H309 0.929 . S
C304 C303 1.379 . S
C304 C305 1.380 . S
C304 H340 0.929 . S
C305 C304 1.380 . S
C305 C306 1.399 . S
C306 C305 1.399 . S
C306 C307 1.376 . S
C306 H341 0.931 1_556 S
C307 C306 1.376 . S
C307 N308 1.338 . S
C307 H310 0.930 1_656 S
N308 Cd293 2.304 1_655 S
N308 C303 1.337 . S
N308 C307 1.338 . S
H309 C303 0.929 . S
H310 C307 0.930 1_454 S
C311 N312 1.332 . S
C311 C315 1.381 . S
C311 H317 0.931 . S
N312 Cd293 2.334 . S
N312 C311 1.332 . S
N312 C316 1.328 . S
C313 C314 1.396 . S
C313 C316 1.378 . S
C313 H342 0.931 1_556 S
C314 C313 1.396 . S
C314 C315 1.382 . S
C315 C311 1.381 . S
C315 C314 1.382 . S
C315 H343 0.930 . S
C316 N312 1.328 . S
C316 C313 1.378 . S
C316 H318 0.930 1_556 S
H317 C311 0.931 . S
H318 C316 0.930 1_554 S
C319 O330 1.238 . S
C319 O331 1.253 . S
C320 O332 1.239 . S
C320 O333 1.230 . S
N321 Cd292 2.304 . S
N321 C322 1.337 . S
N321 C326 1.338 . S
C322 N321 1.337 . S
C322 C323 1.379 . S
C322 H336 0.929 . S
C323 C322 1.379 . S
C323 C324 1.380 . S
C323 H344 0.929 . S
C324 C323 1.380 . S
C324 C325 1.399 . S
C325 C324 1.399 . S
C325 C326 1.376 . S
C325 H345 0.931 1_554 S
C326 N321 1.338 . S
C326 C325 1.376 . S
C326 H337 0.930 1_554 S
C327 O334 1.239 . S
C327 O335 1.230 . S
O328 Cd292 2.268 1_556 S
O328 C302 1.238 . S
O329 Cd293 2.273 1_655 S
O329 C302 1.253 . S
O330 Cd293 2.268 1_554 S
O330 C319 1.238 . S
O331 Cd292 2.273 1_455 S
O331 C319 1.253 . S
O332 Cd292 2.417 . S
O332 C320 1.239 . S
O333 Cd292 2.330 . S
O333 C320 1.230 . S
O334 Cd293 2.417 . S
O334 C327 1.239 . S
O335 Cd293 2.330 . S
O335 C327 1.230 . S
H336 C322 0.929 . S
H337 C326 0.930 1_556 S
H338 C296 0.931 1_556 S
H339 C298 0.930 . S
H340 C304 0.929 . S
H341 C306 0.931 1_554 S
H342 C313 0.931 1_554 S
H343 C315 0.930 . S
H344 C323 0.929 . S
H345 C325 0.931 1_556 S
Cd346 N349 2.334 . S
Cd346 N375 2.304 . S
Cd346 O382 2.268 1_554 S
Cd346 O385 2.273 . S
Cd346 O386 2.417 . S
Cd346 O387 2.330 . S
Cd347 N362 2.304 . S
Cd347 N366 2.334 . S
Cd347 O383 2.273 . S
Cd347 O384 2.268 1_556 S
Cd347 O388 2.417 . S
Cd347 O389 2.330 . S
C348 N349 1.332 . S
C348 C352 1.381 . S
C348 H354 0.931 . S
N349 Cd346 2.334 . S
N349 C348 1.332 . S
N349 C353 1.328 . S
C350 C351 1.396 . S
C350 C353 1.378 . S
C350 H392 0.940 . S
C351 C350 1.396 . S
C351 C352 1.382 . S
C352 C348 1.381 . S
C352 C351 1.382 . S
C352 H393 0.930 . S
C353 N349 1.328 . S
C353 C350 1.378 . S
C353 H355 0.930 . S
H354 C348 0.931 . S
H355 C353 0.930 . S
C356 O382 1.238 . S
C356 O383 1.253 . S
C357 C358 1.379 . S
C357 N362 1.337 . S
C357 H363 0.929 . S
C358 C357 1.379 . S
C358 C359 1.380 . S
C358 H394 0.929 . S
C359 C358 1.380 . S
C359 C360 1.399 . S
C360 C359 1.399 . S
C360 C361 1.376 . S
C360 H395 0.931 1_556 S
C361 C360 1.376 . S
C361 N362 1.338 . S
C361 H364 0.930 1_556 S
N362 Cd347 2.304 . S
N362 C357 1.337 . S
N362 C361 1.338 . S
H363 C357 0.929 . S
H364 C361 0.930 1_554 S
C365 N366 1.332 . S
C365 C369 1.381 . S
C365 H371 0.931 . S
N366 Cd347 2.334 . S
N366 C365 1.332 . S
N366 C370 1.328 . S
C367 C368 1.396 . S
C367 C370 1.378 . S
C367 H396 0.931 1_556 S
C368 C367 1.396 . S
C368 C369 1.382 . S
C369 C365 1.381 . S
C369 C368 1.382 . S
C369 H397 0.930 . S
C370 N366 1.328 . S
C370 C367 1.378 . S
C370 H372 0.930 1_556 S
H371 C365 0.931 . S
H372 C370 0.930 1_554 S
C373 O384 1.238 . S
C373 O385 1.253 . S
C374 O386 1.239 . S
C374 O387 1.230 . S
N375 Cd346 2.304 . S
N375 C376 1.337 . S
N375 C380 1.338 . S
C376 N375 1.337 . S
C376 C377 1.379 . S
C376 H390 0.929 . S
C377 C376 1.379 . S
C377 C378 1.380 . S
C377 H398 0.929 . S
C378 C377 1.380 . S
C378 C379 1.399 . S
C379 C378 1.399 . S
C379 C380 1.376 . S
C379 H399 0.931 1_554 S
C380 N375 1.338 . S
C380 C379 1.376 . S
C380 H391 0.917 1_554 S
C381 O388 1.239 . S
C381 O389 1.230 . S
O382 Cd346 2.268 1_556 S
O382 C356 1.238 . S
O383 Cd347 2.273 . S
O383 C356 1.253 . S
O384 Cd347 2.268 1_554 S
O384 C373 1.238 . S
O385 Cd346 2.273 . S
O385 C373 1.253 . S
O386 Cd346 2.417 . S
O386 C374 1.239 . S
O387 Cd346 2.330 . S
O387 C374 1.230 . S
O388 Cd347 2.417 . S
O388 C381 1.239 . S
O389 Cd347 2.330 . S
O389 C381 1.230 . S
H390 C376 0.929 . S
H391 C380 0.917 1_556 S
H392 C350 0.940 . S
H393 C352 0.930 . S
H394 C358 0.929 . S
H395 C360 0.931 1_554 S
H396 C367 0.931 1_554 S
H397 C369 0.930 . S
H398 C377 0.929 . S
H399 C379 0.931 1_556 S
Cd400 N403 2.334 1_655 S
Cd400 N429 2.304 . S
Cd400 O436 2.268 . S
Cd400 O439 2.273 1_655 S
Cd400 O440 2.417 . S
Cd400 O441 2.330 . S
Cd401 N416 2.304 1_455 S
Cd401 N420 2.334 . S
Cd401 O437 2.273 1_455 S
Cd401 O438 2.268 . S
Cd401 O442 2.417 . S
Cd401 O443 2.330 . S
C402 N403 1.332 . S
C402 C406 1.381 . S
C402 H408 0.931 . S
N403 Cd400 2.334 1_455 S
N403 C402 1.332 . S
N403 C407 1.328 . S
C404 C405 1.396 . S
C404 C407 1.378 . S
C404 H446 0.931 . S
C405 C404 1.396 . S
C405 C406 1.382 . S
C406 C402 1.381 . S
C406 C405 1.382 . S
C406 H447 0.930 . S
C407 N403 1.328 . S
C407 C404 1.378 . S
C407 H409 0.932 . S
H408 C402 0.931 . S
H409 C407 0.932 . S
C410 O436 1.238 . S
C410 O437 1.253 . S
C411 C412 1.379 . S
C411 N416 1.337 . S
C411 H417 0.929 . S
C412 C411 1.379 . S
C412 C413 1.380 . S
C412 H448 0.929 . S
C413 C412 1.380 . S
C413 C414 1.399 . S
C414 C413 1.399 . S
C414 C415 1.376 . S
C414 H449 0.931 . S
C415 C414 1.376 . S
C415 N416 1.338 . S
C415 H418 0.930 1_655 S
N416 Cd401 2.304 1_655 S
N416 C411 1.337 . S
N416 C415 1.338 . S
H417 C411 0.929 . S
H418 C415 0.930 1_455 S
C419 N420 1.332 . S
C419 C423 1.381 . S
C419 H425 0.931 . S
N420 Cd401 2.334 . S
N420 C419 1.332 . S
N420 C424 1.328 . S
C421 C422 1.396 . S
C421 C424 1.378 . S
C421 H450 0.931 . S
C422 C421 1.396 . S
C422 C423 1.382 . S
C423 C419 1.381 . S
C423 C422 1.382 . S
C423 H451 0.930 . S
C424 N420 1.328 . S
C424 C421 1.378 . S
C424 H426 0.930 . S
H425 C419 0.931 . S
H426 C424 0.930 . S
C427 O438 1.238 . S
C427 O439 1.253 . S
C428 O440 1.239 . S
C428 O441 1.230 . S
N429 Cd400 2.304 . S
N429 C430 1.337 . S
N429 C434 1.338 . S
C430 N429 1.337 . S
C430 C431 1.379 . S
C430 H444 0.929 . S
C431 C430 1.379 . S
C431 C432 1.380 . S
C431 H452 0.929 . S
C432 C431 1.380 . S
C432 C433 1.399 . S
C433 C432 1.399 . S
C433 C434 1.376 . S
C433 H453 0.931 . S
C434 N429 1.338 . S
C434 C433 1.376 . S
C434 H445 0.930 . S
C435 O442 1.239 . S
C435 O443 1.230 . S
O436 Cd400 2.268 . S
O436 C410 1.238 . S
O437 Cd401 2.273 1_655 S
O437 C410 1.253 . S
O438 Cd401 2.268 . S
O438 C427 1.238 . S
O439 Cd400 2.273 1_455 S
O439 C427 1.253 . S
O440 Cd400 2.417 . S
O440 C428 1.239 . S
O441 Cd400 2.330 . S
O441 C428 1.230 . S
O442 Cd401 2.417 . S
O442 C435 1.239 . S
O443 Cd401 2.330 . S
O443 C435 1.230 . S
H444 C430 0.929 . S
H445 C434 0.930 . S
H446 C404 0.931 . S
H447 C406 0.930 . S
H448 C412 0.929 . S
H449 C414 0.931 . S
H450 C421 0.931 . S
H451 C423 0.930 . S
H452 C431 0.929 . S
H453 C433 0.931 . S
Cd454 N457 2.334 . S
Cd454 N483 2.304 1_565 S
Cd454 O490 2.268 . S
Cd454 O493 2.273 1_565 S
Cd454 O494 2.417 . S
Cd454 O495 2.330 . S
Cd455 N470 2.304 . S
Cd455 N474 2.334 1_545 S
Cd455 O491 2.273 1_545 S
Cd455 O492 2.268 . S
Cd455 O496 2.417 . S
Cd455 O497 2.330 . S
C456 N457 1.332 . S
C456 C460 1.381 . S
C456 H462 0.931 . S
N457 Cd454 2.334 . S
N457 C456 1.332 . S
N457 C461 1.328 . S
C458 C459 1.396 . S
C458 C461 1.378 . S
C458 H500 0.931 . S
C459 C458 1.396 . S
C459 C460 1.382 . S
C460 C456 1.381 . S
C460 C459 1.382 . S
C460 H501 0.930 . S
C461 N457 1.328 . S
C461 C458 1.378 . S
C461 H463 0.930 . S
H462 C456 0.931 . S
H463 C461 0.930 . S
C464 O490 1.238 . S
C464 O491 1.253 . S
C465 C466 1.379 . S
C465 N470 1.337 . S
C465 H471 0.929 . S
C466 C465 1.379 . S
C466 C467 1.380 . S
C466 H502 0.929 . S
C467 C466 1.380 . S
C467 C468 1.399 . S
C468 C467 1.399 . S
C468 C469 1.376 . S
C468 H503 0.931 . S
C469 C468 1.376 . S
C469 N470 1.338 . S
C469 H472 0.930 . S
N470 Cd455 2.304 . S
N470 C465 1.337 . S
N470 C469 1.338 . S
H471 C465 0.929 . S
H472 C469 0.930 . S
C473 N474 1.332 . S
C473 C477 1.381 . S
C473 H479 0.931 . S
N474 Cd455 2.334 1_565 S
N474 C473 1.332 . S
N474 C478 1.328 . S
C475 C476 1.396 . S
C475 C478 1.378 . S
C475 H504 0.931 . S
C476 C475 1.396 . S
C476 C477 1.382 . S
C477 C473 1.381 . S
C477 C476 1.382 . S
C477 H505 0.930 . S
C478 N474 1.328 . S
C478 C475 1.378 . S
C478 H480 0.930 1_565 S
H479 C473 0.931 . S
H480 C478 0.930 1_545 S
C481 O492 1.238 . S
C481 O493 1.253 . S
C482 O494 1.239 . S
C482 O495 1.230 . S
N483 Cd454 2.304 1_545 S
N483 C484 1.337 . S
N483 C488 1.338 . S
C484 N483 1.337 . S
C484 C485 1.379 . S
C484 H498 0.929 . S
C485 C484 1.379 . S
C485 C486 1.380 . S
C485 H506 0.929 . S
C486 C485 1.380 . S
C486 C487 1.399 . S
C487 C486 1.399 . S
C487 C488 1.376 . S
C487 H507 0.931 . S
C488 N483 1.338 . S
C488 C487 1.376 . S
C488 H499 0.930 . S
C489 O496 1.239 . S
C489 O497 1.230 . S
O490 Cd454 2.268 . S
O490 C464 1.238 . S
O491 Cd455 2.273 1_565 S
O491 C464 1.253 . S
O492 Cd455 2.268 . S
O492 C481 1.238 . S
O493 Cd454 2.273 1_545 S
O493 C481 1.253 . S
O494 Cd454 2.417 . S
O494 C482 1.239 . S
O495 Cd454 2.330 . S
O495 C482 1.230 . S
O496 Cd455 2.417 . S
O496 C489 1.239 . S
O497 Cd455 2.330 . S
O497 C489 1.230 . S
H498 C484 0.929 . S
H499 C488 0.930 . S
H500 C458 0.931 . S
H501 C460 0.930 . S
H502 C466 0.929 . S
H503 C468 0.931 . S
H504 C475 0.931 . S
H505 C477 0.930 . S
H506 C485 0.929 . S
H507 C487 0.931 . S
C508 C509 1.369 . S
C508 C510 1.419 . S
C508 H512 0.930 . S
C509 C508 1.369 . S
C509 C518 1.429 . S
C510 C508 1.419 . S
C510 C511 1.363 . S
C510 H513 0.929 . S
C511 C510 1.363 . S
C511 C517 1.428 . S
H512 C508 0.930 . S
H513 C510 0.929 . S
S514 N515 1.613 . S
S514 N516 1.610 . S
N515 S514 1.613 . S
N515 C518 1.350 . S
N516 S514 1.610 . S
N516 C517 1.351 . S
C517 C511 1.428 . S
C517 N516 1.351 . S
C517 C518 1.434 . S
C518 C509 1.429 . S
C518 N515 1.350 . S
C518 C517 1.434 . S
C519 C520 1.369 . S
C519 C521 1.419 . S
C519 H523 0.930 . S
C520 C519 1.369 . S
C520 C529 1.429 . S
C521 C519 1.419 . S
C521 C522 1.363 . S
C521 H524 0.929 . S
C522 C521 1.363 . S
C522 C528 1.428 . S
H523 C519 0.930 . S
H524 C521 0.929 . S
S525 N526 1.613 . S
S525 N527 1.610 . S
N526 S525 1.613 . S
N526 C529 1.350 . S
N527 S525 1.610 . S
N527 C528 1.351 . S
C528 C522 1.428 . S
C528 N527 1.351 . S
C528 C529 1.434 . S
C529 C520 1.429 . S
C529 N526 1.350 . S
C529 C528 1.434 . S
C530 C531 1.369 . S
C530 C532 1.419 . S
C530 H534 0.930 . S
C531 C530 1.369 . S
C531 C540 1.429 . S
C532 C530 1.419 . S
C532 C533 1.363 . S
C532 H535 0.929 . S
C533 C532 1.363 . S
C533 C539 1.428 . S
H534 C530 0.930 . S
H535 C532 0.929 . S
S536 N537 1.613 . S
S536 N538 1.610 . S
N537 S536 1.613 . S
N537 C540 1.350 . S
N538 S536 1.610 . S
N538 C539 1.351 . S
C539 C533 1.428 . S
C539 N538 1.351 . S
C539 C540 1.434 . S
C540 C531 1.429 . S
C540 N537 1.350 . S
C540 C539 1.434 . S
C541 C542 1.369 . S
C541 C543 1.419 . S
C541 H545 0.930 . S
C542 C541 1.369 . S
C542 C551 1.429 . S
C543 C541 1.419 . S
C543 C544 1.363 . S
C543 H546 0.929 . S
C544 C543 1.363 . S
C544 C550 1.428 . S
H545 C541 0.930 . S
H546 C543 0.929 . S
S547 N548 1.613 . S
S547 N549 1.610 . S
N548 S547 1.613 . S
N548 C551 1.350 . S
N549 S547 1.610 . S
N549 C550 1.351 . S
C550 C544 1.428 . S
C550 N549 1.351 . S
C550 C551 1.434 . S
C551 C542 1.429 . S
C551 N548 1.350 . S
C551 C550 1.434 . S
C552 C553 1.369 . S
C552 C554 1.419 . S
C552 H556 0.930 . S
C553 C552 1.369 . S
C553 C562 1.429 . S
C554 C552 1.419 . S
C554 C555 1.363 . S
C554 H557 0.929 . S
C555 C554 1.363 . S
C555 C561 1.428 . S
H556 C552 0.930 . S
H557 C554 0.929 . S
S558 N559 1.613 . S
S558 N560 1.610 . S
N559 S558 1.613 . S
N559 C562 1.350 . S
N560 S558 1.610 . S
N560 C561 1.351 . S
C561 C555 1.428 . S
C561 N560 1.351 . S
C561 C562 1.434 . S
C562 C553 1.429 . S
C562 N559 1.350 . S
C562 C561 1.434 . S
C563 C564 1.369 . S
C563 C565 1.419 . S
C563 H567 0.930 . S
C564 C563 1.369 . S
C564 C573 1.429 . S
C565 C563 1.419 . S
C565 C566 1.363 . S
C565 H568 0.929 . S
C566 C565 1.363 . S
C566 C572 1.428 . S
H567 C563 0.930 . S
H568 C565 0.929 . S
S569 N570 1.613 . S
S569 N571 1.610 . S
N570 S569 1.613 . S
N570 C573 1.350 . S
N571 S569 1.610 . S
N571 C572 1.351 . S
C572 C566 1.428 . S
C572 N571 1.351 . S
C572 C573 1.434 . S
C573 C564 1.429 . S
C573 N570 1.350 . S
C573 C572 1.434 . S
C574 C575 1.369 . S
C574 C576 1.419 . S
C574 H578 0.930 . S
C575 C574 1.369 . S
C575 C584 1.429 . S
C576 C574 1.419 . S
C576 C577 1.363 . S
C576 H579 0.929 . S
C577 C576 1.363 . S
C577 C583 1.428 . S
H578 C574 0.930 . S
H579 C576 0.929 . S
S580 N581 1.613 . S
S580 N582 1.610 . S
N581 S580 1.613 . S
N581 C584 1.350 . S
N582 S580 1.610 . S
N582 C583 1.351 . S
C583 C577 1.428 . S
C583 N582 1.351 . S
C583 C584 1.434 . S
C584 C575 1.429 . S
C584 N581 1.350 . S
C584 C583 1.434 . S
C585 C586 1.369 . S
C585 C587 1.419 . S
C585 H589 0.930 . S
C586 C585 1.369 . S
C586 C595 1.429 . S
C587 C585 1.419 . S
C587 C588 1.363 . S
C587 H590 0.929 . S
C588 C587 1.363 . S
C588 C594 1.428 . S
H589 C585 0.930 . S
H590 C587 0.929 . S
S591 N592 1.613 . S
S591 N593 1.610 . S
N592 S591 1.613 . S
N592 C595 1.350 . S
N593 S591 1.610 . S
N593 C594 1.351 . S
C594 C588 1.428 . S
C594 N593 1.351 . S
C594 C595 1.434 . S
C595 C586 1.429 . S
C595 N592 1.350 . S
C595 C594 1.434 . S
C596 C597 1.369 . S
C596 C598 1.419 . S
C596 H600 0.930 . S
C597 C596 1.369 . S
C597 C606 1.429 . S
C598 C596 1.419 . S
C598 C599 1.363 . S
C598 H601 0.929 . S
C599 C598 1.363 . S
C599 C605 1.428 . S
H600 C596 0.930 . S
H601 C598 0.929 . S
S602 N603 1.613 . S
S602 N604 1.610 . S
N603 S602 1.613 . S
N603 C606 1.350 . S
N604 S602 1.610 . S
N604 C605 1.351 . S
C605 C599 1.428 . S
C605 N604 1.351 . S
C605 C606 1.434 . S
C606 C597 1.429 . S
C606 N603 1.350 . S
C606 C605 1.434 . S
C607 C608 1.369 . S
C607 C609 1.419 . S
C607 H611 0.930 . S
C608 C607 1.369 . S
C608 C617 1.429 . S
C609 C607 1.419 . S
C609 C610 1.363 . S
C609 H612 0.929 . S
C610 C609 1.363 . S
C610 C616 1.428 . S
H611 C607 0.930 . S
H612 C609 0.929 . S
S613 N614 1.613 . S
S613 N615 1.610 . S
N614 S613 1.613 . S
N614 C617 1.350 . S
N615 S613 1.610 . S
N615 C616 1.351 . S
C616 C610 1.428 . S
C616 N615 1.351 . S
C616 C617 1.434 . S
C617 C608 1.429 . S
C617 N614 1.350 . S
C617 C616 1.434 . S
C618 C619 1.369 . S
C618 C620 1.419 . S
C618 H622 0.930 . S
C619 C618 1.369 . S
C619 C628 1.429 . S
C620 C618 1.419 . S
C620 C621 1.363 . S
C620 H623 0.929 . S
C621 C620 1.363 . S
C621 C627 1.428 . S
H622 C618 0.930 . S
H623 C620 0.929 . S
S624 N625 1.613 . S
S624 N626 1.610 . S
N625 S624 1.613 . S
N625 C628 1.350 . S
N626 S624 1.610 . S
N626 C627 1.351 . S
C627 C621 1.428 . S
C627 N626 1.351 . S
C627 C628 1.434 . S
C628 C619 1.429 . S
C628 N625 1.350 . S
C628 C627 1.434 . S
C629 C630 1.369 . S
C629 C631 1.419 . S
C629 H633 0.930 . S
C630 C629 1.369 . S
C630 C639 1.429 . S
C631 C629 1.419 . S
C631 C632 1.363 . S
C631 H634 0.929 . S
C632 C631 1.363 . S
C632 C638 1.428 . S
H633 C629 0.930 . S
H634 C631 0.929 . S
S635 N636 1.613 . S
S635 N637 1.610 . S
N636 S635 1.613 . S
N636 C639 1.350 . S
N637 S635 1.610 . S
N637 C638 1.351 . S
C638 C632 1.428 . S
C638 N637 1.351 . S
C638 C639 1.434 . S
C639 C630 1.429 . S
C639 N636 1.350 . S
C639 C638 1.434 . S
C640 C641 1.369 . S
C640 C642 1.419 . S
C640 H644 0.930 . S
C641 C640 1.369 . S
C641 C650 1.429 . S
C642 C640 1.419 . S
C642 C643 1.363 . S
C642 H645 0.929 . S
C643 C642 1.363 . S
C643 C649 1.428 . S
H644 C640 0.930 . S
H645 C642 0.929 . S
S646 N647 1.613 . S
S646 N648 1.610 . S
N647 S646 1.613 . S
N647 C650 1.350 . S
N648 S646 1.610 . S
N648 C649 1.351 . S
C649 C643 1.428 . S
C649 N648 1.351 . S
C649 C650 1.434 . S
C650 C641 1.429 . S
C650 N647 1.350 . S
C650 C649 1.434 . S
C651 C652 1.369 . S
C651 C653 1.419 . S
C651 H655 0.930 . S
C652 C651 1.369 . S
C652 C661 1.429 . S
C653 C651 1.419 . S
C653 C654 1.363 . S
C653 H656 0.929 . S
C654 C653 1.363 . S
C654 C660 1.428 . S
H655 C651 0.930 . S
H656 C653 0.929 . S
S657 N658 1.613 . S
S657 N659 1.610 . S
N658 S657 1.613 . S
N658 C661 1.350 . S
N659 S657 1.610 . S
N659 C660 1.351 . S
C660 C654 1.428 . S
C660 N659 1.351 . S
C660 C661 1.434 . S
C661 C652 1.429 . S
C661 N658 1.350 . S
C661 C660 1.434 . S
C662 C663 1.369 . S
C662 C664 1.419 . S
C662 H666 0.930 . S
C663 C662 1.369 . S
C663 C672 1.429 . S
C664 C662 1.419 . S
C664 C665 1.363 . S
C664 H667 0.929 . S
C665 C664 1.363 . S
C665 C671 1.428 . S
H666 C662 0.930 . S
H667 C664 0.929 . S
S668 N669 1.613 . S
S668 N670 1.610 . S
N669 S668 1.613 . S
N669 C672 1.350 . S
N670 S668 1.610 . S
N670 C671 1.351 . S
C671 C665 1.428 . S
C671 N670 1.351 . S
C671 C672 1.434 . S
C672 C663 1.429 . S
C672 N669 1.350 . S
C672 C671 1.434 . S
C673 C674 1.369 . S
C673 C675 1.419 . S
C673 H677 0.930 . S
C674 C673 1.369 . S
C674 C683 1.429 . S
C675 C673 1.419 . S
C675 C676 1.363 . S
C675 H678 0.929 . S
C676 C675 1.363 . S
C676 C682 1.428 . S
H677 C673 0.930 . S
H678 C675 0.929 . S
S679 N680 1.613 . S
S679 N681 1.610 . S
N680 S679 1.613 . S
N680 C683 1.350 . S
N681 S679 1.610 . S
N681 C682 1.351 . S
C682 C676 1.428 . S
C682 N681 1.351 . S
C682 C683 1.434 . S
C683 C674 1.429 . S
C683 N680 1.350 . S
C683 C682 1.434 . S
C684 C685 1.369 . S
C684 C686 1.419 . S
C684 H688 0.930 . S
C685 C684 1.369 . S
C685 C694 1.429 . S
C686 C684 1.419 . S
C686 C687 1.363 . S
C686 H689 0.929 . S
C687 C686 1.363 . S
C687 C693 1.428 . S
H688 C684 0.930 . S
H689 C686 0.929 . S
S690 N691 1.613 1_556 S
S690 N692 1.611 . S
N691 S690 1.613 1_554 S
N691 C694 1.350 . S
N692 S690 1.611 . S
N692 C693 1.344 1_556 S
C693 C687 1.428 . S
C693 N692 1.344 1_554 S
C693 C694 1.434 . S
C694 C685 1.429 . S
C694 N691 1.350 . S
C694 C693 1.434 . S
C695 C696 1.369 . S
C695 C697 1.419 . S
C695 H699 0.930 . S
C696 C695 1.369 . S
C696 C705 1.429 . S
C697 C695 1.419 . S
C697 C698 1.363 . S
C697 H700 0.929 . S
C698 C697 1.363 . S
C698 C704 1.428 . S
H699 C695 0.930 . S
H700 C697 0.929 . S
S701 N702 1.613 . S
S701 N703 1.610 . S
N702 S701 1.613 . S
N702 C705 1.350 . S
N703 S701 1.610 . S
N703 C704 1.351 . S
C704 C698 1.428 . S
C704 N703 1.351 . S
C704 C705 1.434 . S
C705 C696 1.429 . S
C705 N702 1.350 . S
C705 C704 1.434 . S
C706 C707 1.369 . S
C706 C708 1.419 . S
C706 H710 0.930 . S
C707 C706 1.369 . S
C707 C716 1.429 . S
C708 C706 1.419 . S
C708 C709 1.363 . S
C708 H711 0.929 . S
C709 C708 1.363 . S
C709 C715 1.428 . S
H710 C706 0.930 . S
H711 C708 0.929 . S
S712 N713 1.613 . S
S712 N714 1.610 . S
N713 S712 1.613 . S
N713 C716 1.350 . S
N714 S712 1.610 . S
N714 C715 1.351 . S
C715 C709 1.428 . S
C715 N714 1.351 . S
C715 C716 1.434 . S
C716 C707 1.429 . S
C716 N713 1.350 . S
C716 C715 1.434 . S
C717 C718 1.369 . S
C717 C719 1.419 . S
C717 H721 0.930 . S
C718 C717 1.369 . S
C718 C727 1.429 . S
C719 C717 1.419 . S
C719 C720 1.363 . S
C719 H722 0.929 . S
C720 C719 1.363 . S
C720 C726 1.428 . S
H721 C717 0.930 . S
H722 C719 0.929 . S
S723 N724 1.613 . S
S723 N725 1.610 . S
N724 S723 1.613 . S
N724 C727 1.350 . S
N725 S723 1.610 . S
N725 C726 1.351 . S
C726 C720 1.428 . S
C726 N725 1.351 . S
C726 C727 1.434 . S
C727 C718 1.429 . S
C727 N724 1.350 . S
C727 C726 1.434 . S
C728 C729 1.369 . S
C728 C730 1.419 . S
C728 H732 0.930 . S
C729 C728 1.369 . S
C729 C738 1.429 . S
C730 C728 1.419 . S
C730 C731 1.363 . S
C730 H733 0.929 . S
C731 C730 1.363 . S
C731 C737 1.428 . S
H732 C728 0.930 . S
H733 C730 0.929 . S
S734 N735 1.613 . S
S734 N736 1.610 . S
N735 S734 1.613 . S
N735 C738 1.350 . S
N736 S734 1.610 . S
N736 C737 1.351 . S
C737 C731 1.428 . S
C737 N736 1.351 . S
C737 C738 1.434 . S
C738 C729 1.429 . S
C738 N735 1.350 . S
C738 C737 1.434 . S
C739 C740 1.369 . S
C739 C741 1.419 . S
C739 H743 0.930 . S
C740 C739 1.369 . S
C740 C749 1.429 . S
C741 C739 1.419 . S
C741 C742 1.363 . S
C741 H744 0.929 . S
C742 C741 1.363 . S
C742 C748 1.428 . S
H743 C739 0.930 . S
H744 C741 0.929 . S
S745 N746 1.613 . S
S745 N747 1.610 . S
N746 S745 1.613 . S
N746 C749 1.350 . S
N747 S745 1.610 . S
N747 C748 1.351 . S
C748 C742 1.428 . S
C748 N747 1.351 . S
C748 C749 1.434 . S
C749 C740 1.429 . S
C749 N746 1.350 . S
C749 C748 1.434 . S
C750 C751 1.369 . S
C750 C752 1.419 . S
C750 H754 0.930 . S
C751 C750 1.369 . S
C751 C760 1.429 . S
C752 C750 1.419 . S
C752 C753 1.363 . S
C752 H755 0.929 . S
C753 C752 1.363 . S
C753 C759 1.428 . S
H754 C750 0.930 . S
H755 C752 0.929 . S
S756 N757 1.613 . S
S756 N758 1.610 . S
N757 S756 1.613 . S
N757 C760 1.350 . S
N758 S756 1.610 . S
N758 C759 1.351 . S
C759 C753 1.428 . S
C759 N758 1.351 . S
C759 C760 1.434 . S
C760 C751 1.429 . S
C760 N757 1.350 . S
C760 C759 1.434 . S
C761 C762 1.369 . S
C761 C763 1.419 . S
C761 H765 0.930 . S
C762 C761 1.369 . S
C762 C771 1.429 . S
C763 C761 1.419 . S
C763 C764 1.363 . S
C763 H766 0.929 . S
C764 C763 1.363 . S
C764 C770 1.428 . S
H765 C761 0.930 . S
H766 C763 0.929 . S
S767 N768 1.613 . S
S767 N769 1.610 . S
N768 S767 1.613 . S
N768 C771 1.350 . S
N769 S767 1.610 . S
N769 C770 1.351 . S
C770 C764 1.428 . S
C770 N769 1.351 . S
C770 C771 1.434 . S
C771 C762 1.429 . S
C771 N768 1.350 . S
C771 C770 1.434 . S
C772 C773 1.369 . S
C772 C774 1.419 . S
C772 H776 0.930 . S
C773 C772 1.369 . S
C773 C782 1.429 . S
C774 C772 1.419 . S
C774 C775 1.363 . S
C774 H777 0.929 . S
C775 C774 1.363 . S
C775 C781 1.428 . S
H776 C772 0.930 . S
H777 C774 0.929 . S
S778 N779 1.613 . S
S778 N780 1.610 . S
N779 S778 1.613 . S
N779 C782 1.350 . S
N780 S778 1.610 . S
N780 C781 1.351 . S
C781 C775 1.428 . S
C781 N780 1.351 . S
C781 C782 1.434 . S
C782 C773 1.429 . S
C782 N779 1.350 . S
C782 C781 1.434 . S
C783 C784 1.369 . S
C783 C785 1.419 . S
C783 H787 0.930 . S
C784 C783 1.369 . S
C784 C793 1.429 . S
C785 C783 1.419 . S
C785 C786 1.363 . S
C785 H788 0.929 . S
C786 C785 1.363 . S
C786 C792 1.428 . S
H787 C783 0.930 . S
H788 C785 0.929 . S
S789 N790 1.613 . S
S789 N791 1.610 . S
N790 S789 1.613 . S
N790 C793 1.350 . S
N791 S789 1.610 . S
N791 C792 1.351 . S
C792 C786 1.428 . S
C792 N791 1.351 . S
C792 C793 1.434 . S
C793 C784 1.429 . S
C793 N790 1.350 . S
C793 C792 1.434 . S
C794 C795 1.369 . S
C794 C796 1.419 . S
C794 H798 0.930 . S
C795 C794 1.369 . S
C795 C804 1.429 . S
C796 C794 1.419 . S
C796 C797 1.363 . S
C796 H799 0.929 . S
C797 C796 1.363 . S
C797 C803 1.428 . S
H798 C794 0.930 . S
H799 C796 0.929 . S
S800 N801 1.613 . S
S800 N802 1.610 . S
N801 S800 1.613 . S
N801 C804 1.350 . S
N802 S800 1.610 . S
N802 C803 1.351 . S
C803 C797 1.428 . S
C803 N802 1.351 . S
C803 C804 1.434 . S
C804 C795 1.429 . S
C804 N801 1.350 . S
C804 C803 1.434 . S
C805 C806 1.369 . S
C805 C807 1.419 . S
C805 H809 0.930 . S
C806 C805 1.369 . S
C806 C815 1.429 . S
C807 C805 1.419 . S
C807 C808 1.363 . S
C807 H810 0.929 . S
C808 C807 1.363 . S
C808 C814 1.428 . S
H809 C805 0.930 . S
H810 C807 0.929 . S
S811 N812 1.613 . S
S811 N813 1.610 . S
N812 S811 1.613 . S
N812 C815 1.350 . S
N813 S811 1.610 . S
N813 C814 1.351 . S
C814 C808 1.428 . S
C814 N813 1.351 . S
C814 C815 1.434 . S
C815 C806 1.429 . S
C815 N812 1.350 . S
C815 C814 1.434 . S
C816 C817 1.369 . S
C816 C818 1.419 . S
C816 H820 0.930 . S
C817 C816 1.369 . S
C817 C826 1.429 . S
C818 C816 1.419 . S
C818 C819 1.363 . S
C818 H821 0.929 . S
C819 C818 1.363 . S
C819 C825 1.428 . S
H820 C816 0.930 . S
H821 C818 0.929 . S
S822 N823 1.613 . S
S822 N824 1.610 . S
N823 S822 1.613 . S
N823 C826 1.350 . S
N824 S822 1.610 . S
N824 C825 1.351 . S
C825 C819 1.428 . S
C825 N824 1.351 . S
C825 C826 1.434 . S
C826 C817 1.429 . S
C826 N823 1.350 . S
C826 C825 1.434 . S
C827 C828 1.369 . S
C827 C829 1.419 . S
C827 H831 0.930 . S
C828 C827 1.369 . S
C828 C837 1.429 . S
C829 C827 1.419 . S
C829 C830 1.363 . S
C829 H832 0.929 . S
C830 C829 1.363 . S
C830 C836 1.428 . S
H831 C827 0.930 . S
H832 C829 0.929 . S
S833 N834 1.613 . S
S833 N835 1.610 . S
N834 S833 1.613 . S
N834 C837 1.350 . S
N835 S833 1.610 . S
N835 C836 1.351 . S
C836 C830 1.428 . S
C836 N835 1.351 . S
C836 C837 1.434 . S
C837 C828 1.429 . S
C837 N834 1.350 . S
C837 C836 1.434 . S
C838 C839 1.369 . S
C838 C840 1.419 . S
C838 H842 0.930 . S
C839 C838 1.369 . S
C839 C848 1.429 . S
C840 C838 1.419 . S
C840 C841 1.363 . S
C840 H843 0.929 . S
C841 C840 1.363 . S
C841 C847 1.428 . S
H842 C838 0.930 . S
H843 C840 0.929 . S
S844 N845 1.613 . S
S844 N846 1.610 . S
N845 S844 1.613 . S
N845 C848 1.350 . S
N846 S844 1.610 . S
N846 C847 1.351 . S
C847 C841 1.428 . S
C847 N846 1.351 . S
C847 C848 1.434 . S
C848 C839 1.429 . S
C848 N845 1.350 . S
C848 C847 1.434 . S
C849 C850 1.369 . S
C849 C851 1.419 . S
C849 H853 0.930 . S
C850 C849 1.369 . S
C850 C859 1.429 . S
C851 C849 1.419 . S
C851 C852 1.363 . S
C851 H854 0.929 . S
C852 C851 1.363 . S
C852 C858 1.428 . S
H853 C849 0.930 . S
H854 C851 0.929 . S
S855 N856 1.613 . S
S855 N857 1.610 . S
N856 S855 1.613 . S
N856 C859 1.350 . S
N857 S855 1.610 . S
N857 C858 1.351 . S
C858 C852 1.428 . S
C858 N857 1.351 . S
C858 C859 1.434 . S
C859 C850 1.429 . S
C859 N856 1.350 . S
C859 C858 1.434 . S
C860 C861 1.369 . S
C860 C862 1.419 . S
C860 H864 0.930 . S
C861 C860 1.369 . S
C861 C870 1.429 . S
C862 C860 1.419 . S
C862 C863 1.363 . S
C862 H865 0.929 . S
C863 C862 1.363 . S
C863 C869 1.428 . S
H864 C860 0.930 . S
H865 C862 0.929 . S
S866 N867 1.613 . S
S866 N868 1.610 . S
N867 S866 1.613 . S
N867 C870 1.350 . S
N868 S866 1.610 . S
N868 C869 1.351 . S
C869 C863 1.428 . S
C869 N868 1.351 . S
C869 C870 1.434 . S
C870 C861 1.429 . S
C870 N867 1.350 . S
C870 C869 1.434 . S
C871 C872 1.369 . S
C871 C873 1.419 . S
C871 H875 0.930 . S
C872 C871 1.369 . S
C872 C881 1.429 . S
C873 C871 1.419 . S
C873 C874 1.363 . S
C873 H876 0.929 . S
C874 C873 1.363 . S
C874 C880 1.428 . S
H875 C871 0.930 . S
H876 C873 0.929 . S
S877 N878 1.613 . S
S877 N879 1.610 . S
N878 S877 1.613 . S
N878 C881 1.350 . S
N879 S877 1.610 . S
N879 C880 1.351 . S
C880 C874 1.428 . S
C880 N879 1.351 . S
C880 C881 1.434 . S
C881 C872 1.429 . S
C881 N878 1.350 . S
C881 C880 1.434 . S
C882 C883 1.369 . S
C882 C884 1.419 . S
C882 H886 0.930 . S
C883 C882 1.369 . S
C883 C892 1.429 . S
C884 C882 1.419 . S
C884 C885 1.363 . S
C884 H887 0.929 . S
C885 C884 1.363 . S
C885 C891 1.428 . S
H886 C882 0.930 . S
H887 C884 0.929 . S
S888 N889 1.613 . S
S888 N890 1.610 . S
N889 S888 1.613 . S
N889 C892 1.350 . S
N890 S888 1.610 . S
N890 C891 1.351 . S
C891 C885 1.428 . S
C891 N890 1.351 . S
C891 C892 1.434 . S
C892 C883 1.429 . S
C892 N889 1.350 . S
C892 C891 1.434 . S
C893 C894 1.369 . S
C893 C895 1.419 . S
C893 H897 0.930 . S
C894 C893 1.369 . S
C894 C903 1.429 . S
C895 C893 1.419 . S
C895 C896 1.363 . S
C895 H898 0.929 . S
C896 C895 1.363 . S
C896 C902 1.428 . S
H897 C893 0.930 . S
H898 C895 0.929 . S
S899 N900 1.613 . S
S899 N901 1.610 . S
N900 S899 1.613 . S
N900 C903 1.350 . S
N901 S899 1.610 . S
N901 C902 1.351 . S
C902 C896 1.428 . S
C902 N901 1.351 . S
C902 C903 1.434 . S
C903 C894 1.429 . S
C903 N900 1.350 . S
C903 C902 1.434 . S
C904 C905 1.369 . S
C904 C906 1.419 . S
C904 H908 0.930 . S
C905 C904 1.369 . S
C905 C914 1.429 . S
C906 C904 1.419 . S
C906 C907 1.363 . S
C906 H909 0.929 . S
C907 C906 1.363 . S
C907 C913 1.428 . S
H908 C904 0.930 . S
H909 C906 0.929 . S
S910 N911 1.613 . S
S910 N912 1.610 . S
N911 S910 1.613 . S
N911 C914 1.350 . S
N912 S910 1.610 . S
N912 C913 1.351 . S
C913 C907 1.428 . S
C913 N912 1.351 . S
C913 C914 1.434 . S
C914 C905 1.429 . S
C914 N911 1.350 . S
C914 C913 1.434 . S
C915 C916 1.369 . S
C915 C917 1.419 . S
C915 H919 0.930 . S
C916 C915 1.369 . S
C916 C925 1.429 . S
C917 C915 1.419 . S
C917 C918 1.363 . S
C917 H920 0.929 . S
C918 C917 1.363 . S
C918 C924 1.428 . S
H919 C915 0.930 . S
H920 C917 0.929 . S
S921 N922 1.613 . S
S921 N923 1.610 . S
N922 S921 1.613 . S
N922 C925 1.350 . S
N923 S921 1.610 . S
N923 C924 1.351 . S
C924 C918 1.428 . S
C924 N923 1.351 . S
C924 C925 1.434 . S
C925 C916 1.429 . S
C925 N922 1.350 . S
C925 C924 1.434 . S
C926 C927 1.369 . S
C926 C928 1.419 . S
C926 H930 0.930 . S
C927 C926 1.369 . S
C927 C936 1.429 . S
C928 C926 1.419 . S
C928 C929 1.363 . S
C928 H931 0.929 . S
C929 C928 1.363 . S
C929 C935 1.428 . S
H930 C926 0.930 . S
H931 C928 0.929 . S
S932 N933 1.613 . S
S932 N934 1.610 . S
N933 S932 1.613 . S
N933 C936 1.350 . S
N934 S932 1.610 . S
N934 C935 1.351 . S
C935 C929 1.428 . S
C935 N934 1.351 . S
C935 C936 1.434 . S
C936 C927 1.429 . S
C936 N933 1.350 . S
C936 C935 1.434 . S
C937 C938 1.369 . S
C937 C939 1.419 . S
C937 H941 0.930 . S
C938 C937 1.369 . S
C938 C947 1.429 . S
C939 C937 1.419 . S
C939 C940 1.363 . S
C939 H942 0.929 . S
C940 C939 1.363 . S
C940 C946 1.428 . S
H941 C937 0.930 . S
H942 C939 0.929 . S
S943 N944 1.613 . S
S943 N945 1.610 . S
N944 S943 1.613 . S
N944 C947 1.350 . S
N945 S943 1.610 . S
N945 C946 1.351 . S
C946 C940 1.428 . S
C946 N945 1.351 . S
C946 C947 1.434 . S
C947 C938 1.429 . S
C947 N944 1.350 . S
C947 C946 1.434 . S
C948 C949 1.369 . S
C948 C950 1.419 . S
C948 H952 0.930 . S
C949 C948 1.369 . S
C949 C958 1.429 . S
C950 C948 1.419 . S
C950 C951 1.363 . S
C950 H953 0.929 . S
C951 C950 1.363 . S
C951 C957 1.428 . S
H952 C948 0.930 . S
H953 C950 0.929 . S
S954 N955 1.613 . S
S954 N956 1.610 . S
N955 S954 1.613 . S
N955 C958 1.350 . S
N956 S954 1.610 . S
N956 C957 1.351 . S
C957 C951 1.428 . S
C957 N956 1.351 . S
C957 C958 1.434 . S
C958 C949 1.429 . S
C958 N955 1.350 . S
C958 C957 1.434 . S
C959 C960 1.369 . S
C959 C961 1.419 . S
C959 H963 0.930 . S
C960 C959 1.369 . S
C960 C969 1.429 . S
C961 C959 1.419 . S
C961 C962 1.363 . S
C961 H964 0.929 . S
C962 C961 1.363 . S
C962 C968 1.428 . S
H963 C959 0.930 . S
H964 C961 0.929 . S
S965 N966 1.613 . S
S965 N967 1.610 . S
N966 S965 1.613 . S
N966 C969 1.350 . S
N967 S965 1.610 . S
N967 C968 1.351 . S
C968 C962 1.428 . S
C968 N967 1.351 . S
C968 C969 1.434 . S
C969 C960 1.429 . S
C969 N966 1.350 . S
C969 C968 1.434 . S
C970 C971 1.369 . S
C970 C972 1.419 . S
C970 H974 0.930 . S
C971 C970 1.369 . S
C971 C980 1.429 . S
C972 C970 1.419 . S
C972 C973 1.363 . S
C972 H975 0.929 . S
C973 C972 1.363 . S
C973 C979 1.428 . S
H974 C970 0.930 . S
H975 C972 0.929 . S
S976 N977 1.613 . S
S976 N978 1.610 . S
N977 S976 1.613 . S
N977 C980 1.350 . S
N978 S976 1.610 . S
N978 C979 1.351 . S
C979 C973 1.428 . S
C979 N978 1.351 . S
C979 C980 1.434 . S
C980 C971 1.429 . S
C980 N977 1.350 . S
C980 C979 1.434 . S
C981 C982 1.369 . S
C981 C983 1.419 . S
C981 H985 0.930 . S
C982 C981 1.369 . S
C982 C991 1.429 . S
C983 C981 1.419 . S
C983 C984 1.363 . S
C983 H986 0.929 . S
C984 C983 1.363 . S
C984 C990 1.428 . S
H985 C981 0.930 . S
H986 C983 0.929 . S
S987 N988 1.613 . S
S987 N989 1.610 . S
N988 S987 1.613 . S
N988 C991 1.350 . S
N989 S987 1.610 . S
N989 C990 1.351 . S
C990 C984 1.428 . S
C990 N989 1.351 . S
C990 C991 1.434 . S
C991 C982 1.429 . S
C991 N988 1.350 . S
C991 C990 1.434 . S
C992 C993 1.369 . S
C992 C994 1.419 . S
C992 H996 0.930 . S
C993 C992 1.369 . S
C993 C1002 1.429 . S
C994 C992 1.419 . S
C994 C995 1.363 . S
C994 H997 0.929 . S
C995 C994 1.363 . S
C995 C1001 1.428 . S
H996 C992 0.930 . S
H997 C994 0.929 . S
S998 N999 1.613 . S
S998 N1000 1.610 . S
N999 S998 1.613 . S
N999 C1002 1.350 . S
N1000 S998 1.610 . S
N1000 C1001 1.351 . S
C1001 C995 1.428 . S
C1001 N1000 1.351 . S
C1001 C1002 1.434 . S
C1002 C993 1.429 . S
C1002 N999 1.350 . S
C1002 C1001 1.434 . S
C1003 C1004 1.369 . S
C1003 C1005 1.419 . S
C1003 H1007 0.930 . S
C1004 C1003 1.369 . S
C1004 C1013 1.429 . S
C1005 C1003 1.419 . S
C1005 C1006 1.363 . S
C1005 H1008 0.929 . S
C1006 C1005 1.363 . S
C1006 C1012 1.428 . S
H1007 C1003 0.930 . S
H1008 C1005 0.929 . S
S1009 N1010 1.613 . S
S1009 N1011 1.610 . S
N1010 S1009 1.613 . S
N1010 C1013 1.350 . S
N1011 S1009 1.610 . S
N1011 C1012 1.351 . S
C1012 C1006 1.428 . S
C1012 N1011 1.351 . S
C1012 C1013 1.434 . S
C1013 C1004 1.429 . S
C1013 N1010 1.350 . S
C1013 C1012 1.434 . S
C1014 C1015 1.369 . S
C1014 C1016 1.419 . S
C1014 H1018 0.930 . S
C1015 C1014 1.369 . S
C1015 C1024 1.429 . S
C1016 C1014 1.419 . S
C1016 C1017 1.363 . S
C1016 H1019 0.929 . S
C1017 C1016 1.363 . S
C1017 C1023 1.428 . S
H1018 C1014 0.930 . S
H1019 C1016 0.929 . S
S1020 N1021 1.613 . S
S1020 N1022 1.610 . S
N1021 S1020 1.613 . S
N1021 C1024 1.350 . S
N1022 S1020 1.610 . S
N1022 C1023 1.351 . S
C1023 C1017 1.428 . S
C1023 N1022 1.351 . S
C1023 C1024 1.434 . S
C1024 C1015 1.429 . S
C1024 N1021 1.350 . S
C1024 C1023 1.434 . S
C1025 C1026 1.369 . S
C1025 C1027 1.419 . S
C1025 H1029 0.930 . S
C1026 C1025 1.369 . S
C1026 C1035 1.429 . S
C1027 C1025 1.419 . S
C1027 C1028 1.363 . S
C1027 H1030 0.929 . S
C1028 C1027 1.363 . S
C1028 C1034 1.428 . S
H1029 C1025 0.930 . S
H1030 C1027 0.929 . S
S1031 N1032 1.613 . S
S1031 N1033 1.610 . S
N1032 S1031 1.613 . S
N1032 C1035 1.350 . S
N1033 S1031 1.610 . S
N1033 C1034 1.351 . S
C1034 C1028 1.428 . S
C1034 N1033 1.351 . S
C1034 C1035 1.434 . S
C1035 C1026 1.429 . S
C1035 N1032 1.350 . S
C1035 C1034 1.434 . S
C511 C219 1.169 . S
C509 C17 1.165 . S
C522 C197 1.820 . S
C520 C44 1.796 . S
C533 C194 0.932 . S
C531 C63 0.942 . S
C542 C87 1.688 . S
C544 C206 1.536 . S
C553 C110 1.659 . S
C555 C189 1.511 . S
C566 C211 0.946 . S
C564 C131 0.958 . S
C575 C159 1.761 . S
C577 C216 1.797 . S
C586 C177 1.185 . S
C588 C212 1.191 . S
C599 C270 1.685 . S
C597 C20 1.574 . S
C608 C42 1.349 . S
C610 C320 1.334 . S
C621 C243 1.808 . S
C619 C66 1.641 . S
C632 C319 0.973 . S
C630 C86 0.963 . S
C641 C109 0.942 . S
C643 C248 0.965 . S
C654 C314 1.818 . S
C652 C136 1.683 . S
C663 C157 1.338 . S
C665 C273 1.327 . S
C674 C182 1.612 . S
C676 C305 1.696 . S
C685 C18 1.638 . S
C687 C297 1.582 . S
C696 C112 1.344 . S
C698 C327 1.533 . S
C709 C251 1.576 . S
C707 C134 1.601 . S
C720 C302 1.166 . S
C718 C154 1.127 . S
C729 C180 1.588 . S
C731 C260 1.564 . S
C740 C64 1.653 . S
C742 C324 1.588 . S
C753 C266 1.535 . S
C751 C89 1.345 . S
C762 C39 1.140 . S
C764 C265 1.170 . S
C773 C178 1.166 . S
C775 C381 1.169 . S
C784 C113 1.794 . S
C786 C359 1.819 . S
C797 C356 0.934 . S
C795 C132 0.940 . S
C808 C368 1.534 . S
C806 C156 1.689 . S
C817 C41 1.659 . S
C819 C351 1.519 . S
C830 C373 0.953 . S
C828 C62 0.950 . S
C839 C90 1.761 . S
C841 C378 1.793 . S
C850 C16 1.183 . S
C852 C374 1.190 . S
C861 C181 1.586 . S
C863 C432 1.681 . S
C874 C482 1.337 . S
C872 C111 1.351 . S
C883 C135 1.644 . S
C885 C405 1.813 . S
C894 C155 0.953 . S
C896 C481 0.976 . S
C907 C410 0.964 . S
C905 C40 0.943 . S
C916 C67 1.685 . S
C918 C476 1.812 . S
C929 C435 1.327 . S
C927 C88 1.338 . S
C940 C467 1.692 . S
C938 C21 1.622 . S
C951 C459 1.577 . S
C949 C179 1.639 . S
C960 C43 1.345 . S
C962 C489 1.534 . S
C971 C65 1.604 . S
C973 C413 1.578 . S
C984 C464 1.167 . S
C982 C85 1.126 . S
C993 C19 1.589 . S
C995 C422 1.565 . S
C1004 C133 1.652 . S
C1006 C486 1.593 . S
C1017 C428 1.536 . S
C1015 C158 1.342 . S
C1028 C427 1.174 . S
C1026 C108 1.129 . S
