# Generated by pormake.
# Topology iac, (4,6)-cn, num edge types: 1
# Building blocks:
#     Node 0, Type 0, BuildingBlock: KUFVIS_clean_sbu_0, # of connection points: 4
#     Node 1, Type 0, BuildingBlock: KUFVIS_clean_sbu_0, # of connection points: 4
#     Node 2, Type 0, BuildingBlock: KUFVIS_clean_sbu_0, # of connection points: 4
#     Node 3, Type 0, BuildingBlock: KUFVIS_clean_sbu_0, # of connection points: 4
#     Node 4, Type 0, BuildingBlock: KUFVIS_clean_sbu_0, # of connection points: 4
#     Node 5, Type 0, BuildingBlock: KUFVIS_clean_sbu_0, # of connection points: 4
#     Node 6, Type 0, BuildingBlock: KUFVIS_clean_sbu_0, # of connection points: 4
#     Node 7, Type 0, BuildingBlock: KUFVIS_clean_sbu_0, # of connection points: 4
#     Node 8, Type 0, BuildingBlock: KUFVIS_clean_sbu_0, # of connection points: 4
#     Node 9, Type 0, BuildingBlock: KUFVIS_clean_sbu_0, # of connection points: 4
#     Node 10, Type 0, BuildingBlock: KUFVIS_clean_sbu_0, # of connection points: 4
#     Node 11, Type 0, BuildingBlock: KUFVIS_clean_sbu_0, # of connection points: 4
#     Node 12, Type 0, BuildingBlock: KUFVIS_clean_sbu_0, # of connection points: 4
#     Node 13, Type 0, BuildingBlock: KUFVIS_clean_sbu_0, # of connection points: 4
#     Node 14, Type 0, BuildingBlock: KUFVIS_clean_sbu_0, # of connection points: 4
#     Node 15, Type 0, BuildingBlock: KUFVIS_clean_sbu_0, # of connection points: 4
#     Node 16, Type 0, BuildingBlock: KUFVIS_clean_sbu_0, # of connection points: 4
#     Node 17, Type 0, BuildingBlock: KUFVIS_clean_sbu_0, # of connection points: 4
#     Node 18, Type 0, BuildingBlock: KUFVIS_clean_sbu_0, # of connection points: 4
#     Node 19, Type 0, BuildingBlock: KUFVIS_clean_sbu_0, # of connection points: 4
#     Node 20, Type 0, BuildingBlock: KUFVIS_clean_sbu_0, # of connection points: 4
#     Node 21, Type 0, BuildingBlock: KUFVIS_clean_sbu_0, # of connection points: 4
#     Node 22, Type 0, BuildingBlock: KUFVIS_clean_sbu_0, # of connection points: 4
#     Node 23, Type 0, BuildingBlock: KUFVIS_clean_sbu_0, # of connection points: 4
#     Node 24, Type 1, BuildingBlock: CIFDUS_clean_sbu_1, # of connection points: 6
#     Node 25, Type 1, BuildingBlock: CIFDUS_clean_sbu_1, # of connection points: 6
#     Node 26, Type 1, BuildingBlock: CIFDUS_clean_sbu_1, # of connection points: 6
#     Node 27, Type 1, BuildingBlock: CIFDUS_clean_sbu_1, # of connection points: 6
#     Node 28, Type 1, BuildingBlock: CIFDUS_clean_sbu_1, # of connection points: 6
#     Node 29, Type 1, BuildingBlock: CIFDUS_clean_sbu_1, # of connection points: 6
#     Node 30, Type 1, BuildingBlock: CIFDUS_clean_sbu_1, # of connection points: 6
#     Node 31, Type 1, BuildingBlock: CIFDUS_clean_sbu_1, # of connection points: 6
#     Node 32, Type 1, BuildingBlock: CIFDUS_clean_sbu_1, # of connection points: 6
#     Node 33, Type 1, BuildingBlock: CIFDUS_clean_sbu_1, # of connection points: 6
#     Node 34, Type 1, BuildingBlock: CIFDUS_clean_sbu_1, # of connection points: 6
#     Node 35, Type 1, BuildingBlock: CIFDUS_clean_sbu_1, # of connection points: 6
#     Node 36, Type 1, BuildingBlock: CIFDUS_clean_sbu_1, # of connection points: 6
#     Node 37, Type 1, BuildingBlock: CIFDUS_clean_sbu_1, # of connection points: 6
#     Node 38, Type 1, BuildingBlock: CIFDUS_clean_sbu_1, # of connection points: 6
#     Node 39, Type 1, BuildingBlock: CIFDUS_clean_sbu_1, # of connection points: 6
#     Edge 40, Type (0, 1), BuildingBlock: MIFKUJ_clean_linker_0, # of connection points: 2
#     Edge 41, Type (0, 1), BuildingBlock: MIFKUJ_clean_linker_0, # of connection points: 2
#     Edge 42, Type (0, 1), BuildingBlock: MIFKUJ_clean_linker_0, # of connection points: 2
#     Edge 43, Type (0, 1), BuildingBlock: MIFKUJ_clean_linker_0, # of connection points: 2
#     Edge 44, Type (0, 1), BuildingBlock: MIFKUJ_clean_linker_0, # of connection points: 2
#     Edge 45, Type (0, 1), BuildingBlock: MIFKUJ_clean_linker_0, # of connection points: 2
#     Edge 46, Type (0, 1), BuildingBlock: MIFKUJ_clean_linker_0, # of connection points: 2
#     Edge 47, Type (0, 1), BuildingBlock: MIFKUJ_clean_linker_0, # of connection points: 2
#     Edge 48, Type (0, 1), BuildingBlock: MIFKUJ_clean_linker_0, # of connection points: 2
#     Edge 49, Type (0, 1), BuildingBlock: MIFKUJ_clean_linker_0, # of connection points: 2
#     Edge 50, Type (0, 1), BuildingBlock: MIFKUJ_clean_linker_0, # of connection points: 2
#     Edge 51, Type (0, 1), BuildingBlock: MIFKUJ_clean_linker_0, # of connection points: 2
#     Edge 52, Type (0, 1), BuildingBlock: MIFKUJ_clean_linker_0, # of connection points: 2
#     Edge 53, Type (0, 1), BuildingBlock: MIFKUJ_clean_linker_0, # of connection points: 2
#     Edge 54, Type (0, 1), BuildingBlock: MIFKUJ_clean_linker_0, # of connection points: 2
#     Edge 55, Type (0, 1), BuildingBlock: MIFKUJ_clean_linker_0, # of connection points: 2
#     Edge 56, Type (0, 1), BuildingBlock: MIFKUJ_clean_linker_0, # of connection points: 2
#     Edge 57, Type (0, 1), BuildingBlock: MIFKUJ_clean_linker_0, # of connection points: 2
#     Edge 58, Type (0, 1), BuildingBlock: MIFKUJ_clean_linker_0, # of connection points: 2
#     Edge 59, Type (0, 1), BuildingBlock: MIFKUJ_clean_linker_0, # of connection points: 2
#     Edge 60, Type (0, 1), BuildingBlock: MIFKUJ_clean_linker_0, # of connection points: 2
#     Edge 61, Type (0, 1), BuildingBlock: MIFKUJ_clean_linker_0, # of connection points: 2
#     Edge 62, Type (0, 1), BuildingBlock: MIFKUJ_clean_linker_0, # of connection points: 2
#     Edge 63, Type (0, 1), BuildingBlock: MIFKUJ_clean_linker_0, # of connection points: 2
#     Edge 64, Type (0, 1), BuildingBlock: MIFKUJ_clean_linker_0, # of connection points: 2
#     Edge 65, Type (0, 1), BuildingBlock: MIFKUJ_clean_linker_0, # of connection points: 2
#     Edge 66, Type (0, 1), BuildingBlock: MIFKUJ_clean_linker_0, # of connection points: 2
#     Edge 67, Type (0, 1), BuildingBlock: MIFKUJ_clean_linker_0, # of connection points: 2
#     Edge 68, Type (0, 1), BuildingBlock: MIFKUJ_clean_linker_0, # of connection points: 2
#     Edge 69, Type (0, 1), BuildingBlock: MIFKUJ_clean_linker_0, # of connection points: 2
#     Edge 70, Type (0, 1), BuildingBlock: MIFKUJ_clean_linker_0, # of connection points: 2
#     Edge 71, Type (0, 1), BuildingBlock: MIFKUJ_clean_linker_0, # of connection points: 2
#     Edge 72, Type (0, 1), BuildingBlock: MIFKUJ_clean_linker_0, # of connection points: 2
#     Edge 73, Type (0, 1), BuildingBlock: MIFKUJ_clean_linker_0, # of connection points: 2
#     Edge 74, Type (0, 1), BuildingBlock: MIFKUJ_clean_linker_0, # of connection points: 2
#     Edge 75, Type (0, 1), BuildingBlock: MIFKUJ_clean_linker_0, # of connection points: 2
#     Edge 76, Type (0, 1), BuildingBlock: MIFKUJ_clean_linker_0, # of connection points: 2
#     Edge 77, Type (0, 1), BuildingBlock: MIFKUJ_clean_linker_0, # of connection points: 2
#     Edge 78, Type (0, 1), BuildingBlock: MIFKUJ_clean_linker_0, # of connection points: 2
#     Edge 79, Type (0, 1), BuildingBlock: MIFKUJ_clean_linker_0, # of connection points: 2
#     Edge 80, Type (0, 1), BuildingBlock: MIFKUJ_clean_linker_0, # of connection points: 2
#     Edge 81, Type (0, 1), BuildingBlock: MIFKUJ_clean_linker_0, # of connection points: 2
#     Edge 82, Type (0, 1), BuildingBlock: MIFKUJ_clean_linker_0, # of connection points: 2
#     Edge 83, Type (0, 1), BuildingBlock: MIFKUJ_clean_linker_0, # of connection points: 2
#     Edge 84, Type (0, 1), BuildingBlock: MIFKUJ_clean_linker_0, # of connection points: 2
#     Edge 85, Type (0, 1), BuildingBlock: MIFKUJ_clean_linker_0, # of connection points: 2
#     Edge 86, Type (0, 1), BuildingBlock: MIFKUJ_clean_linker_0, # of connection points: 2
#     Edge 87, Type (0, 1), BuildingBlock: MIFKUJ_clean_linker_0, # of connection points: 2
#     Edge 88, Type (0, 1), BuildingBlock: MIFKUJ_clean_linker_0, # of connection points: 2
#     Edge 89, Type (0, 1), BuildingBlock: MIFKUJ_clean_linker_0, # of connection points: 2
#     Edge 90, Type (0, 1), BuildingBlock: MIFKUJ_clean_linker_0, # of connection points: 2
#     Edge 91, Type (0, 1), BuildingBlock: MIFKUJ_clean_linker_0, # of connection points: 2
#     Edge 92, Type (0, 1), BuildingBlock: MIFKUJ_clean_linker_0, # of connection points: 2
#     Edge 93, Type (0, 1), BuildingBlock: MIFKUJ_clean_linker_0, # of connection points: 2
#     Edge 94, Type (0, 1), BuildingBlock: MIFKUJ_clean_linker_0, # of connection points: 2
#     Edge 95, Type (0, 1), BuildingBlock: MIFKUJ_clean_linker_0, # of connection points: 2
#     Edge 96, Type (0, 1), BuildingBlock: MIFKUJ_clean_linker_0, # of connection points: 2
#     Edge 97, Type (0, 1), BuildingBlock: MIFKUJ_clean_linker_0, # of connection points: 2
#     Edge 98, Type (0, 1), BuildingBlock: MIFKUJ_clean_linker_0, # of connection points: 2
#     Edge 99, Type (0, 1), BuildingBlock: MIFKUJ_clean_linker_0, # of connection points: 2
#     Edge 100, Type (0, 1), BuildingBlock: MIFKUJ_clean_linker_0, # of connection points: 2
#     Edge 101, Type (0, 1), BuildingBlock: MIFKUJ_clean_linker_0, # of connection points: 2
#     Edge 102, Type (0, 1), BuildingBlock: MIFKUJ_clean_linker_0, # of connection points: 2
#     Edge 103, Type (0, 1), BuildingBlock: MIFKUJ_clean_linker_0, # of connection points: 2
#     Edge 104, Type (0, 1), BuildingBlock: MIFKUJ_clean_linker_0, # of connection points: 2
#     Edge 105, Type (0, 1), BuildingBlock: MIFKUJ_clean_linker_0, # of connection points: 2
#     Edge 106, Type (0, 1), BuildingBlock: MIFKUJ_clean_linker_0, # of connection points: 2
#     Edge 107, Type (0, 1), BuildingBlock: MIFKUJ_clean_linker_0, # of connection points: 2
#     Edge 108, Type (0, 1), BuildingBlock: MIFKUJ_clean_linker_0, # of connection points: 2
#     Edge 109, Type (0, 1), BuildingBlock: MIFKUJ_clean_linker_0, # of connection points: 2
#     Edge 110, Type (0, 1), BuildingBlock: MIFKUJ_clean_linker_0, # of connection points: 2
#     Edge 111, Type (0, 1), BuildingBlock: MIFKUJ_clean_linker_0, # of connection points: 2
#     Edge 112, Type (0, 1), BuildingBlock: MIFKUJ_clean_linker_0, # of connection points: 2
#     Edge 113, Type (0, 1), BuildingBlock: MIFKUJ_clean_linker_0, # of connection points: 2
#     Edge 114, Type (0, 1), BuildingBlock: MIFKUJ_clean_linker_0, # of connection points: 2
#     Edge 115, Type (0, 1), BuildingBlock: MIFKUJ_clean_linker_0, # of connection points: 2
#     Edge 116, Type (0, 1), BuildingBlock: MIFKUJ_clean_linker_0, # of connection points: 2
#     Edge 117, Type (0, 1), BuildingBlock: MIFKUJ_clean_linker_0, # of connection points: 2
#     Edge 118, Type (0, 1), BuildingBlock: MIFKUJ_clean_linker_0, # of connection points: 2
#     Edge 119, Type (0, 1), BuildingBlock: MIFKUJ_clean_linker_0, # of connection points: 2
#     Edge 120, Type (0, 1), BuildingBlock: MIFKUJ_clean_linker_0, # of connection points: 2
#     Edge 121, Type (0, 1), BuildingBlock: MIFKUJ_clean_linker_0, # of connection points: 2
#     Edge 122, Type (0, 1), BuildingBlock: MIFKUJ_clean_linker_0, # of connection points: 2
#     Edge 123, Type (0, 1), BuildingBlock: MIFKUJ_clean_linker_0, # of connection points: 2
#     Edge 124, Type (0, 1), BuildingBlock: MIFKUJ_clean_linker_0, # of connection points: 2
#     Edge 125, Type (0, 1), BuildingBlock: MIFKUJ_clean_linker_0, # of connection points: 2
#     Edge 126, Type (0, 1), BuildingBlock: MIFKUJ_clean_linker_0, # of connection points: 2
#     Edge 127, Type (0, 1), BuildingBlock: MIFKUJ_clean_linker_0, # of connection points: 2
#     Edge 128, Type (0, 1), BuildingBlock: MIFKUJ_clean_linker_0, # of connection points: 2
#     Edge 129, Type (0, 1), BuildingBlock: MIFKUJ_clean_linker_0, # of connection points: 2
#     Edge 130, Type (0, 1), BuildingBlock: MIFKUJ_clean_linker_0, # of connection points: 2
#     Edge 131, Type (0, 1), BuildingBlock: MIFKUJ_clean_linker_0, # of connection points: 2
#     Edge 132, Type (0, 1), BuildingBlock: MIFKUJ_clean_linker_0, # of connection points: 2
#     Edge 133, Type (0, 1), BuildingBlock: MIFKUJ_clean_linker_0, # of connection points: 2
#     Edge 134, Type (0, 1), BuildingBlock: MIFKUJ_clean_linker_0, # of connection points: 2
#     Edge 135, Type (0, 1), BuildingBlock: MIFKUJ_clean_linker_0, # of connection points: 2
# Relax obj value: 0.091
# Max RMSD: 0.168
# Mean RMSD: 0.083
data_MOF--net-iac--node1-KUFVIS_clean_sbu_0--node2-CIFDUS_clean_sbu_1--edge1-MIFKUJ_clean_linker_0
_symmetry_space_group_name_H-M    P1
_symmetry_Int_Tables_number       1
_symmetry_cell_setting            triclinic
loop_
_symmetry_equiv_pos_as_xyz
'x, y, z'
_cell_length_a     69.918485
_cell_length_b     69.028336
_cell_length_c     71.149749
_cell_angle_alpha  90.134057
_cell_angle_beta   89.977814
_cell_angle_gamma 90.313538
loop_
_atom_site_label
_atom_site_type_symbol
_atom_site_fract_x
_atom_site_fract_y
_atom_site_fract_z
_atom_type_partial_charge
Mn0 Mn 0.00052 0.24628 0.12684 0.0
Mn1 Mn 0.97268 0.24049 0.0884 0.0
C2 C 0.99545 0.21567 0.11414 0.0
C3 C 0.03001 0.25124 0.14157 0.0
C4 C 0.95646 0.24744 0.12724 0.0
O5 O -0.00059 0.27383 0.11623 0.0
O6 O 0.98055 0.26817 0.09099 0.0
C7 C 0.00252 0.24857 0.05994 0.0
N8 N 0.98912 0.23639 0.06732 0.0
C9 C -0.00347 0.21167 0.04458 0.0
C10 C 0.01033 0.224 0.03666 0.0
C11 C 0.01335 0.24252 0.04439 0.0
C12 C 0.98617 0.21851 0.06005 0.0
H13 H 0.00497 0.26276 0.06592 0.0
C14 C 0.99027 0.27951 0.10168 0.0
O15 O 0.01403 0.25481 0.15013 0.0
O16 O 0.029 0.24564 0.12418 0.0
N17 N 0.96398 0.21451 0.08412 0.0
C18 C 0.94991 0.20453 0.09325 0.0
C19 C 0.94493 0.18582 0.0871 0.0
C20 C 0.95436 0.17763 0.07159 0.0
C21 C 0.96852 0.18834 0.0622 0.0
C22 C 0.97268 0.20702 0.0688 0.0
H23 H 0.94262 0.21076 0.10518 0.0
O24 O 0.00041 0.21769 0.13159 0.0
O25 O 0.99351 0.23163 0.10467 0.0
O26 O 0.97261 0.24852 0.13556 0.0
O27 O 0.95476 0.24413 0.10963 0.0
C28 C 0.9787 0.18119 0.04659 0.0
C29 C 0.99275 0.19282 0.03783 0.0
H30 H 0.01874 0.21938 0.02469 0.0
H31 H 0.02403 0.25209 0.03839 0.0
H32 H 0.93392 0.17769 0.09437 0.0
H33 H 0.95062 0.16312 0.06701 0.0
H34 H 0.97591 0.16673 0.04126 0.0
H35 H 0.00058 0.18711 0.02592 0.0
Mn36 Mn 0.00128 0.75319 0.37205 0.0
Mn37 Mn 0.97468 0.75987 0.41121 0.0
C38 C 0.99417 0.78398 0.38223 0.0
C39 C 0.03058 0.74875 0.35722 0.0
C40 C 0.95754 0.74915 0.37367 0.0
O41 O 0.00255 0.72688 0.38461 0.0
O42 O 0.98438 0.73304 0.41008 0.0
C43 C 0.00624 0.75623 0.43868 0.0
N44 N 0.9916 0.76667 0.43127 0.0
C45 C 0.99637 0.79226 0.45382 0.0
C46 C 0.01147 0.78177 0.46174 0.0
C47 C 0.01648 0.76372 0.45407 0.0
C48 C 0.98691 0.78421 0.4383 0.0
H49 H 0.01003 0.74228 0.43292 0.0
C50 C 0.99446 0.72174 0.39988 0.0
O51 O 0.01471 0.74307 0.34945 0.0
O52 O 0.02949 0.75651 0.3738 0.0
N53 N 0.96413 0.78516 0.41448 0.0
C54 C 0.9487 0.79305 0.40571 0.0
C55 C 0.94167 0.811 0.41186 0.0
C56 C 0.95025 0.82042 0.42723 0.0
C57 C 0.96571 0.81172 0.43641 0.0
C58 C 0.97219 0.79388 0.42958 0.0
H59 H 0.94183 0.78572 0.3941 0.0
O60 O -0.00103 0.78099 0.36485 0.0
O61 O 0.99393 0.76896 0.39318 0.0
O62 O 0.97336 0.74822 0.36475 0.0
O63 O 0.95635 0.75347 0.39109 0.0
C64 C 0.97474 0.81989 0.45227 0.0
C65 C 0.99021 0.81028 0.46084 0.0
H66 H 0.01928 0.78741 0.47372 0.0
H67 H 0.02812 0.75553 0.46009 0.0
H68 H 0.92959 0.81751 0.40482 0.0
H69 H 0.94477 0.83424 0.43196 0.0
H70 H 0.96999 0.83363 0.45793 0.0
H71 H -0.00283 0.81684 0.47289 0.0
Mn72 Mn 0.49777 0.74859 0.62603 0.0
Mn73 Mn 0.46748 0.74465 0.58924 0.0
C74 C 0.49061 0.71814 0.61355 0.0
C75 C 0.52816 0.75306 0.6392 0.0
C76 C 0.45454 0.75355 0.62903 0.0
O77 O 0.49701 0.77623 0.61543 0.0
O78 O 0.47925 0.77074 0.58946 0.0
C79 C 0.49482 0.74719 0.55755 0.0
N80 N 0.48062 0.73754 0.56676 0.0
C81 C 0.4792 0.713 0.54273 0.0
C82 C 0.49377 0.72271 0.53292 0.0
C83 C 0.50167 0.73983 0.54041 0.0
C84 C 0.47304 0.72099 0.55977 0.0
H85 H 0.50085 0.7604 0.56324 0.0
C86 C 0.48941 0.78179 0.59999 0.0
O87 O 0.51266 0.75725 0.64831 0.0
O88 O 0.5261 0.74683 0.62206 0.0
N89 N 0.45514 0.71999 0.58732 0.0
C90 C 0.44194 0.7119 0.59905 0.0
C91 C 0.43256 0.69477 0.59362 0.0
C92 C 0.43681 0.68625 0.5762 0.0
C93 C 0.4508 0.69453 0.5646 0.0
C94 C 0.45944 0.71176 0.57061 0.0
H95 H 0.43835 0.71864 0.61229 0.0
O96 O 0.49684 0.71996 0.63066 0.0
O97 O 0.48869 0.73422 0.60426 0.0
O98 O 0.47085 0.75171 0.63671 0.0
O99 O 0.4519 0.75187 0.61137 0.0
C100 C 0.45641 0.68645 0.54726 0.0
C101 C 0.47072 0.6956 0.5364 0.0
H102 H 0.49908 0.71709 0.5197 0.0
H103 H 0.51295 0.74737 0.53296 0.0
H104 H 0.42183 0.68835 0.60268 0.0
H105 H 0.42903 0.67355 0.57171 0.0
H106 H 0.44996 0.67311 0.54224 0.0
H107 H 0.47513 0.68911 0.52323 0.0
Mn108 Mn 0.50174 0.2532 0.87057 0.0
Mn109 Mn 0.47375 0.2524 0.9091 0.0
C110 C 0.49404 0.28198 0.88545 0.0
C111 C 0.53119 0.25103 0.8557 0.0
C112 C 0.45917 0.24592 0.86955 0.0
O113 O 0.50213 0.22479 0.87884 0.0
O114 O 0.48792 0.22777 0.90726 0.0
C115 C 0.50218 0.25111 0.93982 0.0
N116 N 0.48738 0.26015 0.93113 0.0
C117 C 0.48438 0.28299 0.95652 0.0
C118 C 0.4995 0.27381 0.96583 0.0
C119 C 0.50859 0.25794 0.95733 0.0
C120 C 0.47894 0.27582 0.9389 0.0
H121 H 0.50886 0.23862 0.93355 0.0
C122 C 0.49711 0.21811 0.89485 0.0
O123 O 0.51535 0.24727 0.84695 0.0
O124 O 0.53008 0.25534 0.87347 0.0
N125 N 0.45927 0.27558 0.91253 0.0
C126 C 0.44396 0.28192 0.90243 0.0
C127 C 0.43357 0.29799 0.90882 0.0
C128 C 0.4386 0.30699 0.92583 0.0
C129 C 0.45393 0.29977 0.93634 0.0
C130 C 0.46405 0.28398 0.92905 0.0
H131 H 0.43966 0.27483 0.88958 0.0
O132 O 0.50004 0.28196 0.86819 0.0
O133 O 0.49332 0.26523 0.89367 0.0
O134 O 0.47458 0.25041 0.86119 0.0
O135 O 0.4578 0.24452 0.88737 0.0
C136 C 0.45913 0.30719 0.95407 0.0
C137 C 0.47416 0.29864 0.96425 0.0
H138 H 0.50418 0.27871 0.97955 0.0
H139 H 0.52026 0.25078 0.96443 0.0
H140 H 0.42156 0.30327 0.90076 0.0
H141 H 0.43039 0.31921 0.93085 0.0
H142 H 0.45143 0.31925 0.96016 0.0
H143 H 0.47762 0.30416 0.97809 0.0
Mn144 Mn 0.122 -0.0007 0.25262 0.0
Mn145 Mn 0.16075 0.00446 0.28059 0.0
C146 C 0.13604 0.02959 0.25692 0.0
C147 C 0.10709 0.99434 0.22349 0.0
C148 C 0.12066 -0.00151 0.29587 0.0
O149 O 0.13202 0.97144 0.25452 0.0
O150 O 0.15813 0.97688 0.27258 0.0
C151 C 0.19103 -0.0037 0.25262 0.0
N152 N 0.18301 0.00845 0.26546 0.0
C153 C 0.20755 0.03247 0.26037 0.0
C154 C 0.21613 0.02017 0.24715 0.0
C155 C 0.2078 0.00203 0.24324 0.0
C156 C 0.19088 0.02596 0.26931 0.0
H157 H 0.18465 0.98236 0.24956 0.0
C158 C 0.14697 0.9656 0.26323 0.0
O159 O 0.09823 0.99124 0.23922 0.0
O160 O 0.125 -0.00072 0.22457 0.0
N161 N 0.16487 0.03045 0.2892 0.0
C162 C 0.15427 0.04098 0.30159 0.0
C163 C 0.16035 0.05971 0.30663 0.0
C164 C 0.17731 0.06735 0.299 0.0
C165 C 0.18806 0.05616 0.28641 0.0
C166 C 0.18132 0.03757 0.28195 0.0
H167 H 0.14122 0.03518 0.3075 0.0
O168 O 0.11825 0.02806 0.25196 0.0
O169 O 0.145 0.01336 0.2595 0.0
O170 O 0.11236 -0.00197 0.27991 0.0
O171 O 0.1387 0.00081 0.29767 0.0
C172 C 0.20505 0.06283 0.27791 0.0
C173 C 0.21475 0.05103 0.26483 0.0
H174 H 0.22903 0.02455 0.23983 0.0
H175 H 0.2143 0.99248 0.233 0.0
H176 H 0.15196 0.06826 0.31634 0.0
H177 H 0.18189 0.08185 0.30282 0.0
H178 H 0.21066 0.07711 0.28115 0.0
H179 H 0.22764 0.05645 0.25817 0.0
Mn180 Mn 0.25643 0.87114 0.49941 0.0
Mn181 Mn 0.26275 0.91044 0.47171 0.0
C182 C 0.28719 0.88148 0.49212 0.0
C183 C 0.25142 0.85698 0.52877 0.0
C184 C 0.25172 0.87077 0.45672 0.0
O185 O 0.23022 0.88401 0.49983 0.0
O186 O 0.23704 0.91087 0.48321 0.0
C187 C 0.262 0.94107 0.50091 0.0
N188 N 0.27082 0.93238 0.48609 0.0
C189 C 0.29538 0.9569 0.4854 0.0
C190 C 0.28652 0.9662 0.50061 0.0
C191 C 0.26982 0.95818 0.50846 0.0
C192 C 0.28701 0.93982 0.47859 0.0
H193 H 0.24909 0.935 0.50687 0.0
C194 C 0.22568 0.90045 0.49305 0.0
O195 O 0.24623 0.84838 0.51335 0.0
O196 O 0.25914 0.87406 0.5272 0.0
N197 N 0.28698 0.91242 0.45947 0.0
C198 C 0.29418 0.90115 0.44543 0.0
C199 C 0.31061 0.90729 0.43578 0.0
C200 C 0.31941 0.92494 0.44063 0.0
C201 C 0.31209 0.936 0.45549 0.0
C202 C 0.29544 0.92936 0.46431 0.0
H203 H 0.28718 0.88782 0.44132 0.0
O204 O 0.28395 0.86386 0.49767 0.0
O205 O 0.27234 0.89278 0.49128 0.0
O206 O 0.25207 0.86192 0.4724 0.0
O207 O 0.25482 0.88891 0.45515 0.0
C208 C 0.32052 0.95344 0.46176 0.0
C209 C 0.31227 0.96379 0.47684 0.0
H210 H 0.29246 0.97944 0.50643 0.0
H211 H 0.26293 0.96524 0.52023 0.0
H212 H 0.31621 0.89865 0.42435 0.0
H213 H 0.33163 0.93002 0.43269 0.0
H214 H 0.33345 0.95891 0.45523 0.0
H215 H 0.31904 0.97702 0.48173 0.0
Mn216 Mn 0.3816 0.99464 0.74928 0.0
Mn217 Mn 0.34276 0.98619 0.77632 0.0
C218 C 0.37118 0.96326 0.75448 0.0
C219 C 0.39549 0.00163 0.72038 0.0
C220 C 0.38186 -0.00361 0.79201 0.0
O221 O 0.36888 0.02119 0.75083 0.0
O222 O 0.34196 0.0129 0.76635 0.0
C223 C 0.31283 0.98815 0.74695 0.0
N224 N 0.32158 0.97836 0.76111 0.0
C225 C 0.29815 0.95276 0.75969 0.0
C226 C 0.28878 0.96264 0.74519 0.0
C227 C 0.29627 0.98032 0.73867 0.0
C228 C 0.31487 0.96104 0.76705 0.0
H229 H 0.31843 0.00186 0.74207 0.0
C230 C 0.35235 0.02513 0.75745 0.0
O231 O 0.40418 0.00563 0.73604 0.0
O232 O 0.37847 0.99409 0.72153 0.0
N233 N 0.34134 0.96075 0.78686 0.0
C234 C 0.35231 0.95285 0.80067 0.0
C235 C 0.34714 0.93483 0.80831 0.0
C236 C 0.33045 0.9254 0.80209 0.0
C237 C 0.31915 0.93402 0.78819 0.0
C238 C 0.32525 0.95178 0.78079 0.0
H239 H 0.36491 0.96023 0.80583 0.0
O240 O 0.38858 0.96653 0.74894 0.0
O241 O 0.36033 0.97832 0.75631 0.0
O242 O 0.39064 -0.00314 0.77636 0.0
O243 O 0.36385 0.99357 0.79345 0.0
C244 C 0.30192 0.92583 0.78158 0.0
C245 C 0.29149 0.93512 0.76724 0.0
H246 H 0.27586 0.95676 0.73895 0.0
H247 H 0.28917 0.98799 0.72743 0.0
H248 H 0.35587 0.92835 0.81913 0.0
H249 H 0.32639 0.91159 0.80816 0.0
H250 H 0.29672 0.91219 0.78717 0.0
H251 H 0.27847 0.92847 0.762 0.0
Mn252 Mn 0.24743 0.12742 0.00065 0.0
Mn253 Mn 0.24859 0.09136 0.96864 0.0
C254 C 0.21855 0.11382 0.98995 0.0
C255 C 0.24979 0.13782 0.03202 0.0
C256 C 0.25576 0.13365 0.95909 0.0
O257 O 0.27548 0.1185 0.00103 0.0
O258 O 0.27287 0.09205 0.98273 0.0
C259 C 0.24981 0.0575 0.99402 0.0
N260 N 0.24159 0.0671 0.97945 0.0
C261 C 0.22124 0.03993 0.97225 0.0
C262 C 0.22946 0.02968 0.98718 0.0
C263 C 0.24369 0.03858 -0.00177 0.0
C264 C 0.22754 0.05891 0.96909 0.0
H265 H 0.26104 0.06419 0.00225 0.0
C266 C 0.28241 0.10314 0.9937 0.0
O267 O 0.25392 0.14918 0.01809 0.0
O268 O 0.24419 0.12038 0.02779 0.0
N269 N 0.22617 0.08855 0.95362 0.0
C270 C 0.21943 0.10065 0.94008 0.0
C271 C 0.20555 0.09385 0.92742 0.0
C272 C 0.19905 0.07462 0.92863 0.0
C273 C 0.20579 0.0626 0.943 0.0
C274 C 0.21956 0.07019 0.95522 0.0
H275 H 0.22504 0.11516 0.93856 0.0
O276 O 0.219 0.13069 -0.00193 0.0
O277 O 0.23499 0.10509 0.98886 0.0
O278 O 0.2516 0.14072 0.97513 0.0
O279 O 0.25602 0.11551 0.95563 0.0
C280 C 0.19993 0.04319 0.94529 0.0
C281 C 0.2073 0.03199 0.96016 0.0
H282 H 0.22501 0.01497 0.99024 0.0
H283 H 0.25012 0.03077 0.00976 0.0
H284 H 0.20035 0.1032 0.91638 0.0
H285 H 0.18923 0.06914 0.91818 0.0
H286 H 0.18993 0.03664 0.9356 0.0
H287 H 0.20243 0.01719 0.96194 0.0
Mn288 Mn 0.75732 0.36989 0.00076 0.0
Mn289 Mn 0.75874 0.40777 0.971 0.0
C290 C 0.78666 0.38164 0.99056 0.0
C291 C 0.755 0.3573 0.03083 0.0
C292 C 0.74863 0.36678 0.95909 0.0
O293 O 0.73031 0.38112 0.00227 0.0
O294 O 0.73457 0.4084 0.98541 0.0
C295 C 0.76067 0.44029 -0.00181 0.0
N296 N 0.76794 0.43073 0.98305 0.0
C297 C 0.79225 0.45509 0.97865 0.0
C298 C 0.78488 0.46535 0.99404 0.0
C299 C 0.76909 0.45785 0.00393 0.0
C300 C 0.78326 0.43767 0.97361 0.0
H301 H 0.74857 0.43452 0.00581 0.0
C302 C 0.72458 0.39746 0.99611 0.0
O303 O 0.74948 0.34742 0.01629 0.0
O304 O 0.76161 0.37467 0.02808 0.0
N305 N 0.78143 0.40916 0.95618 0.0
C306 C 0.78772 0.39665 0.94272 0.0
C307 C 0.80367 0.40171 0.93183 0.0
C308 C 0.81274 0.41963 0.93472 0.0
C309 C 0.80635 0.43204 0.94895 0.0
C310 C 0.79032 0.42629 0.95929 0.0
H311 H 0.78056 0.38301 0.94019 0.0
O312 O 0.78513 0.3643 0.99747 0.0
O313 O 0.77106 0.39184 0.99037 0.0
O314 O 0.75199 0.35875 0.97479 0.0
O315 O 0.7494 0.38507 0.95661 0.0
C316 C 0.8153 0.44982 0.95334 0.0
C317 C 0.80833 0.46128 0.96828 0.0
H318 H 0.79135 0.47889 -0.00148 0.0
H319 H 0.76341 0.4656 0.01591 0.0
H320 H 0.80885 0.39196 0.9211 0.0
H321 H 0.82446 0.42377 0.92581 0.0
H322 H 0.8277 0.45469 0.94551 0.0
H323 H 0.81552 0.47475 0.97175 0.0
Mn324 Mn 0.8789 0.49411 0.25022 0.0
Mn325 Mn 0.83945 0.49028 0.27762 0.0
C326 C 0.86636 0.46376 0.25748 0.0
C327 C 0.89376 0.49779 0.22111 0.0
C328 C 0.87904 0.49708 0.29327 0.0
O329 O 0.86856 0.52175 0.24964 0.0
O330 O 0.8431 0.51675 0.26818 0.0
C331 C 0.81087 0.4976 0.24778 0.0
N332 N 0.81748 0.48644 0.2621 0.0
C333 C 0.78961 0.46593 0.26084 0.0
C334 C 0.78245 0.4772 0.24608 0.0
C335 C 0.7932 0.49303 0.23944 0.0
C336 C 0.80744 0.471 0.26836 0.0
H337 H 0.81896 0.50996 0.24285 0.0
C338 C 0.85368 0.52773 0.25818 0.0
O339 O 0.90254 0.50206 0.23665 0.0
O340 O 0.87617 0.49184 0.22237 0.0
N341 N 0.83333 0.46568 0.28821 0.0
C342 C 0.84243 0.45611 0.30231 0.0
C343 C 0.83327 0.44042 0.31106 0.0
C344 C 0.81484 0.43485 0.30527 0.0
C345 C 0.806 0.4445 0.2904 0.0
C346 C 0.81566 0.46025 0.28246 0.0
H347 H 0.8564 0.46068 0.30708 0.0
O348 O 0.88395 0.4658 0.25203 0.0
O349 O 0.85614 0.47948 0.25798 0.0
O350 O 0.88777 0.49796 0.27753 0.0
O351 O 0.86111 0.49397 0.29479 0.0
C352 C 0.78784 0.43933 0.28337 0.0
C353 C 0.77973 0.44992 0.26845 0.0
H354 H 0.76874 0.47384 0.23976 0.0
H355 H 0.78777 0.50182 0.22807 0.0
H356 H 0.84019 0.433 0.32255 0.0
H357 H 0.8073 0.42347 0.31256 0.0
H358 H 0.78005 0.42716 0.28925 0.0
H359 H 0.76583 0.44571 0.26303 0.0
Mn360 Mn 0.7497 0.62624 0.50008 0.0
Mn361 Mn 0.75049 0.5885 0.47003 0.0
C362 C 0.72091 0.61171 0.49081 0.0
C363 C 0.75233 0.63792 0.53108 0.0
C364 C 0.75731 0.63038 0.45813 0.0
O365 O 0.77785 0.6178 0.49986 0.0
O366 O 0.77509 0.5897 0.4838 0.0
C367 C 0.75176 0.55597 0.49702 0.0
N368 N 0.74325 0.565 0.48226 0.0
C369 C 0.72035 0.53912 0.4788 0.0
C370 C 0.72897 0.52943 0.49385 0.0
C371 C 0.74467 0.53796 0.50309 0.0
C372 C 0.72795 0.5571 0.4735 0.0
H373 H 0.76385 0.56247 0.50409 0.0
C374 C 0.78468 0.60189 0.4936 0.0
O375 O 0.75573 0.64889 0.51665 0.0
O376 O 0.74755 0.62009 0.52755 0.0
N377 N 0.72753 0.58539 0.45579 0.0
C378 C 0.72035 0.59706 0.44211 0.0
C379 C 0.70456 0.59073 0.43156 0.0
C380 C 0.69649 0.57243 0.43506 0.0
C381 C 0.70393 0.5608 0.44939 0.0
C382 C 0.71972 0.56783 0.45937 0.0
H383 H 0.72677 0.61096 0.43908 0.0
O384 O 0.72115 0.62891 0.49821 0.0
O385 O 0.73747 0.60327 0.48972 0.0
O386 O 0.75299 0.63828 0.47381 0.0
O387 O 0.7579 0.61202 0.45577 0.0
C388 C 0.69644 0.54244 0.45403 0.0
C389 C 0.7045 0.53169 0.46886 0.0
H390 H 0.72359 0.5155 0.49851 0.0
H391 H 0.75134 0.53063 0.51478 0.0
H392 H 0.69882 0.59978 0.42054 0.0
H393 H 0.68477 0.56736 0.42651 0.0
H394 H 0.68449 0.53642 0.44632 0.0
H395 H 0.69843 0.51772 0.47247 0.0
Mn396 Mn 0.62256 0.50073 0.7523 0.0
Mn397 Mn 0.6615 0.50555 0.77998 0.0
C398 C 0.63651 0.53102 0.75681 0.0
C399 C 0.60783 0.49562 0.72325 0.0
C400 C 0.62143 0.49932 0.79531 0.0
O401 O 0.63241 0.47276 0.75432 0.0
O402 O 0.65923 0.47821 0.77127 0.0
C403 C 0.6916 0.49868 0.75152 0.0
N404 N 0.6835 0.51037 0.76472 0.0
C405 C 0.70721 0.5352 0.75955 0.0
C406 C 0.71586 0.52339 0.74595 0.0
C407 C 0.708 0.50507 0.74191 0.0
C408 C 0.69092 0.52804 0.76869 0.0
H409 H 0.68556 0.48462 0.74835 0.0
C410 C 0.64773 0.4669 0.76237 0.0
O411 O 0.59884 0.49267 0.73893 0.0
O412 O 0.62575 0.50054 0.72434 0.0
N413 N 0.6653 0.53132 0.7893 0.0
C414 C 0.65497 0.54108 0.80249 0.0
C415 C 0.66083 0.55973 0.80803 0.0
C416 C 0.6773 0.56809 0.80004 0.0
C417 C 0.68782 0.55766 0.78668 0.0
C418 C 0.68138 0.53906 0.78183 0.0
H419 H 0.64231 0.53473 0.80868 0.0
O420 O 0.61881 0.5295 0.75156 0.0
O421 O 0.64549 0.51477 0.75925 0.0
O422 O 0.61292 0.49972 0.77948 0.0
O423 O 0.63955 0.50099 0.79706 0.0
C424 C 0.70434 0.56505 0.77785 0.0
C425 C 0.71399 0.55386 0.76423 0.0
H426 H 0.72848 0.52829 0.73846 0.0
H427 H 0.71457 0.4959 0.7314 0.0
H428 H 0.65264 0.56768 0.81837 0.0
H429 H 0.68168 0.58255 0.80422 0.0
H430 H 0.70964 0.57941 0.78127 0.0
H431 H 0.72654 0.55981 0.75737 0.0
Mn432 Mn 0.00735 0.75487 0.8734 0.0
Mn433 Mn 0.97516 0.75691 0.90888 0.0
C434 C -0.00068 0.7846 0.88661 0.0
C435 C 0.03845 0.75043 0.86188 0.0
C436 C 0.96377 0.75154 0.86805 0.0
O437 O 0.00635 0.7269 0.88279 0.0
O438 O 0.9856 0.73015 0.90685 0.0
C439 C 0.00178 0.75059 0.94061 0.0
N440 N 0.98829 0.76162 0.93201 0.0
C441 C 0.98918 0.7851 0.95706 0.0
C442 C 0.00299 0.77393 0.96625 0.0
C443 C 0.00935 0.75662 0.95796 0.0
C444 C 0.98217 0.77837 0.9398 0.0
H445 H 0.00673 0.7373 0.93427 0.0
C446 C -0.003 0.72006 0.89672 0.0
O447 O 0.02345 0.7472 0.85161 0.0
O448 O 0.03544 0.75624 0.87902 0.0
N449 N 0.96382 0.78178 0.91275 0.0
C450 C 0.95067 0.79106 0.90192 0.0
C451 C 0.94282 0.80858 0.90822 0.0
C452 C 0.94841 0.81631 0.92566 0.0
C453 C 0.96186 0.80645 0.93663 0.0
C454 C 0.96903 0.78892 0.92971 0.0
H455 H 0.94621 0.78515 0.88855 0.0
O456 O 0.0067 0.78367 0.86989 0.0
O457 O -0.00289 0.76814 0.89526 0.0
O458 O 0.9807 0.75221 0.86137 0.0
O459 O 0.96022 0.75266 0.88563 0.0
C460 C 0.96851 0.81338 0.9541 0.0
C461 C 0.98222 0.80276 0.96427 0.0
H462 H 0.00888 0.77853 0.97962 0.0
H463 H 0.02006 0.74796 0.96493 0.0
H464 H 0.93244 0.8161 0.89968 0.0
H465 H 0.94226 0.82979 0.9305 0.0
H466 H 0.9633 0.82694 0.95975 0.0
H467 H 0.98737 0.80833 0.97759 0.0
Mn468 Mn 0.00191 0.24082 0.62615 0.0
Mn469 Mn 0.96909 0.23644 0.59159 0.0
C470 C 0.99446 0.21074 0.61401 0.0
C471 C 0.03281 0.24574 0.63689 0.0
C472 C 0.95856 0.24154 0.63238 0.0
O473 O 9e-05 0.26833 0.61652 0.0
O474 O 0.97763 0.26375 0.59426 0.0
C475 C 0.99459 0.2462 0.55969 0.0
N476 N 0.98207 0.23375 0.5681 0.0
C477 C 0.9835 0.21177 0.54186 0.0
C478 C 0.99632 0.2244 0.53287 0.0
C479 C 0.00193 0.24166 0.54186 0.0
C480 C 0.97668 0.21706 0.55964 0.0
H481 H -0.00108 0.2595 0.56653 0.0
C482 C 0.98921 0.27454 0.60354 0.0
O483 O 0.01811 0.24904 0.64754 0.0
O484 O 0.02961 0.24007 0.61976 0.0
N485 N 0.95955 0.21086 0.58706 0.0
C486 C 0.94768 0.19992 0.59796 0.0
C487 C 0.94073 0.18219 0.59101 0.0
C488 C 0.94592 0.17604 0.57291 0.0
C489 C 0.95831 0.18741 0.56204 0.0
C490 C 0.96459 0.20505 0.5696 0.0
H491 H 0.94347 0.20474 0.6118 0.0
O492 O 0.0019 0.21245 0.63064 0.0
O493 O 0.99181 0.22673 0.60471 0.0
O494 O 0.97563 0.24304 0.63845 0.0
O495 O 0.95442 0.23874 0.61512 0.0
C496 C 0.96469 0.18193 0.54402 0.0
C497 C 0.97736 0.19406 0.53397 0.0
H498 H 0.00203 0.22095 0.51911 0.0
H499 H 0.01187 0.25145 0.53504 0.0
H500 H 0.93122 0.17339 0.59949 0.0
H501 H 0.94016 0.16269 0.56736 0.0
H502 H 0.96009 0.16832 0.53784 0.0
H503 H 0.98235 0.18959 0.52022 0.0
Mn504 Mn 0.49948 0.24768 0.37608 0.0
Mn505 Mn 0.49482 0.27711 0.3385 0.0
C506 C 0.46966 0.25231 0.36249 0.0
C507 C 0.50578 0.21701 0.38868 0.0
C508 C 0.50009 0.29195 0.37849 0.0
O509 O 0.52694 0.25057 0.36646 0.0
O510 O 0.52154 0.2673 0.33979 0.0
C511 C 0.50042 0.24844 0.30798 0.0
N512 N 0.48961 0.26241 0.31627 0.0
C513 C 0.46557 0.25966 0.29218 0.0
C514 C 0.47661 0.24547 0.28324 0.0
C515 C 0.49406 0.23977 0.29122 0.0
C516 C 0.4727 0.26788 0.30879 0.0
H517 H 0.51373 0.24386 0.31419 0.0
C518 C 0.53256 0.2579 0.35089 0.0
O519 O 0.50815 0.23272 0.3985 0.0
O520 O 0.50015 0.21916 0.37144 0.0
N521 N 0.46956 0.28726 0.3354 0.0
C522 C 0.45985 0.29986 0.34662 0.0
C523 C 0.44173 0.30639 0.34106 0.0
C524 C 0.43378 0.29994 0.32403 0.0
C525 C 0.44402 0.28696 0.31272 0.0
C526 C 0.46211 0.28111 0.31889 0.0
H527 H 0.46576 0.30478 0.35979 0.0
O528 O 0.471 0.2461 0.37964 0.0
O529 O 0.48572 0.25545 0.35386 0.0
O530 O 0.49988 0.27546 0.38657 0.0
O531 O 0.49942 0.29392 0.36065 0.0
C532 C 0.43679 0.27926 0.29578 0.0
C533 C 0.44754 0.2656 0.28554 0.0
H534 H 0.47169 0.23864 0.27038 0.0
H535 H 0.50256 0.22867 0.28451 0.0
H536 H 0.43387 0.31631 0.34994 0.0
H537 H 0.41972 0.30486 0.31988 0.0
H538 H 0.42281 0.28347 0.2907 0.0
H539 H 0.44166 0.2595 0.27273 0.0
Mn540 Mn 0.50224 0.74368 0.1266 0.0
Mn541 Mn 0.46839 0.7384 0.09319 0.0
C542 C 0.49444 0.71308 0.11564 0.0
C543 C 0.53354 0.74903 0.13623 0.0
C544 C 0.45929 0.74548 0.13421 0.0
O545 O 0.50002 0.771 0.11603 0.0
O546 O 0.47827 0.76541 0.09334 0.0
C547 C 0.4927 0.74443 0.05959 0.0
N548 N 0.48015 0.73324 0.06947 0.0
C549 C 0.47966 0.70904 0.04509 0.0
C550 C 0.4925 0.72036 0.0346 0.0
C551 C 0.49908 0.73811 0.0419 0.0
C552 C 0.47378 0.71613 0.0626 0.0
H553 H 0.49781 0.75808 0.06514 0.0
C554 C 0.48992 0.77657 0.10214 0.0
O555 O 0.51913 0.75283 0.14709 0.0
O556 O 0.52977 0.74266 0.11943 0.0
N557 N 0.45778 0.71291 0.09114 0.0
C558 C 0.44631 0.70326 0.10349 0.0
C559 C 0.43861 0.68518 0.09839 0.0
C560 C 0.44273 0.67731 0.08064 0.0
C561 C 0.45479 0.68735 0.06829 0.0
C562 C 0.46182 0.70543 0.07403 0.0
H563 H 0.44294 0.70936 0.11708 0.0
O564 O 0.50251 0.71538 0.13192 0.0
O565 O 0.49138 0.72881 0.10604 0.0
O566 O 0.47654 0.74598 0.13984 0.0
O567 O 0.45459 0.74324 0.11701 0.0
C568 C 0.4602 0.68009 0.05055 0.0
C569 C 0.4727 0.69089 0.039 0.0
H570 H 0.4975 0.7155 0.02098 0.0
H571 H 0.50904 0.7469 0.03393 0.0
H572 H 0.42937 0.67741 0.10802 0.0
H573 H 0.43642 0.66366 0.07655 0.0
H574 H 0.45501 0.66611 0.04577 0.0
H575 H 0.47697 0.68504 0.0255 0.0
Mn576 Mn 0.88182 0.99244 0.74626 0.0
Mn577 Mn 0.84525 0.9902 0.77724 0.0
C578 C 0.86781 0.96254 0.75332 0.0
C579 C 0.89329 -0.00248 0.71566 0.0
C580 C 0.88691 -0.00443 0.78892 0.0
O581 O 0.87297 0.02067 0.74819 0.0
O582 O 0.84675 0.0166 0.76617 0.0
C583 C 0.81272 -0.00466 0.75111 0.0
N584 N 0.82158 0.98495 0.76479 0.0
C585 C 0.79533 0.96234 0.76639 0.0
C586 C 0.7858 0.97293 0.75248 0.0
C587 C 0.7946 0.98943 0.74472 0.0
C588 C 0.81338 0.9689 0.77215 0.0
H589 H 0.81944 0.00802 0.74512 0.0
C590 C 0.85775 0.02709 0.75593 0.0
O591 O 0.90406 5e-05 0.73032 0.0
O592 O 0.87574 0.99216 0.71873 0.0
N593 N 0.84173 0.9655 0.78892 0.0
C594 C 0.8535 0.95604 0.80105 0.0
C595 C 0.84722 0.93874 0.80943 0.0
C596 C 0.82883 0.93151 0.80549 0.0
C597 C 0.81694 0.94156 0.79304 0.0
C598 C 0.82401 0.95866 0.78503 0.0
H599 H 0.86756 0.96164 0.8043 0.0
O600 O 0.88482 0.96352 0.74605 0.0
O601 O 0.8593 0.97907 0.75588 0.0
O602 O 0.89414 0.99403 0.77251 0.0
O603 O 0.86888 -0.00476 0.79188 0.0
C604 C 0.79845 0.93516 0.78806 0.0
C605 C 0.78772 0.94543 0.77462 0.0
H606 H 0.77182 0.96842 0.74752 0.0
H607 H 0.7874 -0.00241 0.73388 0.0
H608 H 0.85649 0.93104 0.81899 0.0
H609 H 0.82404 0.91817 0.812 0.0
H610 H 0.79243 0.92222 0.79433 0.0
H611 H 0.7737 0.9401 0.77061 0.0
Mn612 Mn 0.74566 0.12791 0.50044 0.0
Mn613 Mn 0.74242 0.09402 0.46651 0.0
C614 C 0.71613 0.11506 0.4922 0.0
C615 C 0.75001 0.13713 0.53166 0.0
C616 C 0.75003 0.13654 0.45885 0.0
O617 O 0.77308 0.11791 0.49803 0.0
O618 O 0.76808 0.09284 0.47817 0.0
C619 C 0.74504 0.05789 0.48865 0.0
N620 N 0.73513 0.06948 0.47669 0.0
C621 C 0.71057 0.0453 0.47268 0.0
C622 C 0.72056 0.03304 0.48488 0.0
C623 C 0.73777 0.03944 0.49304 0.0
C624 C 0.71831 0.06366 0.46914 0.0
H625 H 0.75847 0.06262 0.49465 0.0
C626 C 0.77874 0.10273 0.48932 0.0
O627 O 0.75352 0.14889 0.51787 0.0
O628 O 0.74459 0.11966 0.5273 0.0
N629 N 0.71798 0.09371 0.45441 0.0
C630 C 0.71033 0.10709 0.44256 0.0
C631 C 0.69285 0.1031 0.4336 0.0
C632 C 0.68361 0.08526 0.43662 0.0
C633 C 0.69195 0.07158 0.44856 0.0
C634 C 0.70925 0.07647 0.45732 0.0
H635 H 0.71748 0.1207 0.43992 0.0
O636 O 0.7173 0.13171 0.50065 0.0
O637 O 0.73225 0.10651 0.48902 0.0
O638 O 0.74774 0.14243 0.47563 0.0
O639 O 0.74959 0.11869 0.4542 0.0
C640 C 0.68399 0.05312 0.45178 0.0
C641 C 0.69342 0.03991 0.46361 0.0
H642 H 0.7152 0.01866 0.48804 0.0
H643 H 0.74555 0.03007 0.50247 0.0
H644 H 0.68659 0.11368 0.42428 0.0
H645 H 0.67021 0.08216 0.42955 0.0
H646 H 0.67075 0.04881 0.445 0.0
H647 H 0.68744 0.02557 0.46541 0.0
Mn648 Mn 0.61743 0.00367 0.24828 0.0
Mn649 Mn 0.65253 0.00966 0.28037 0.0
C650 C 0.6294 0.0341 0.2544 0.0
C651 C 0.6069 -0.00233 0.21796 0.0
C652 C 0.61104 0.00339 0.29079 0.0
O653 O 0.62791 0.97646 0.25097 0.0
O654 O 0.65125 0.98215 0.27218 0.0
C655 C 0.68581 0.00147 0.25592 0.0
N656 N 0.67641 0.01361 0.26784 0.0
C657 C 0.70178 0.03722 0.26613 0.0
C658 C 0.71179 0.02492 0.25393 0.0
C659 C 0.70374 0.007 0.24876 0.0
C660 C 0.684 0.0309 0.27287 0.0
H661 H 0.67968 0.98768 0.25192 0.0
C662 C 0.64179 0.97091 0.2612 0.0
O663 O 0.59605 0.99436 0.23243 0.0
O664 O 0.62416 0.00388 0.22116 0.0
N665 N 0.65561 0.03567 0.28929 0.0
C666 C 0.64353 0.04638 0.30011 0.0
C667 C 0.6491 0.06506 0.30586 0.0
C668 C 0.6671 0.07242 0.30062 0.0
C669 C 0.67935 0.06105 0.28963 0.0
C670 C 0.67302 0.04256 0.28429 0.0
H671 H 0.6297 0.04077 0.3042 0.0
O672 O 0.61245 0.03197 0.24725 0.0
O673 O 0.63891 0.01833 0.25777 0.0
O674 O 0.6047 0.00215 0.27406 0.0
O675 O 0.62866 0.00606 0.29475 0.0
C676 C 0.69746 0.06747 0.28347 0.0
C677 C 0.70863 0.05561 0.27165 0.0
H678 H 0.7256 0.02916 0.24832 0.0
H679 H 0.71133 -0.00254 0.23929 0.0
H680 H 0.63955 0.07376 0.31431 0.0
H681 H 0.6713 0.08687 0.305 0.0
H682 H 0.70286 0.0816 0.28756 0.0
H683 H 0.72238 0.06085 0.26675 0.0
Mn684 Mn 0.75022 0.87303 0.00618 0.0
Mn685 Mn 0.75322 0.90974 0.975 0.0
C686 C 0.77991 0.88612 -0.00148 0.0
C687 C 0.74574 0.86126 0.03677 0.0
C688 C 0.74888 0.86805 0.96304 0.0
O689 O 0.72293 0.88286 0.00559 0.0
O690 O 0.72616 0.90546 0.98313 0.0
C691 C 0.7421 0.94119 0.00119 0.0
N692 N 0.7548 0.93355 0.98872 0.0
C693 C 0.775 0.96181 0.99088 0.0
C694 C 0.76212 0.96999 0.00371 0.0
C695 C 0.74562 0.95961 0.00892 0.0
C696 C 0.77075 0.94339 0.98368 0.0
H697 H 0.72934 0.93335 0.00518 0.0
C698 C 0.71602 0.89575 0.99484 0.0
O699 O 0.74205 0.85068 0.02209 0.0
O700 O 0.75206 0.87867 0.03371 0.0
N701 N 0.77814 0.91617 0.96578 0.0
C702 C 0.78939 0.90605 0.95364 0.0
C703 C 0.80641 0.91445 0.94699 0.0
C704 C 0.81152 0.93324 0.95273 0.0
C705 C 0.79984 0.94332 0.96532 0.0
C706 C 0.78297 0.93428 0.97135 0.0
H707 H 0.78539 0.89172 0.94907 0.0
O708 O 0.77837 0.86869 0.0052 0.0
O709 O 0.76394 0.89564 0.99663 0.0
O710 O 0.74691 0.86115 0.9796 0.0
O711 O 0.75209 0.88592 0.95967 0.0
C712 C 0.8043 0.96197 0.97217 0.0
C713 C 0.79193 0.97118 0.98501 0.0
H714 H 0.76477 0.9842 0.00968 0.0
H715 H 0.7356 0.96582 0.0188 0.0
H716 H 0.81544 0.90656 0.93731 0.0
H717 H 0.82432 0.93993 0.94727 0.0
H718 H 0.81729 0.96928 0.96777 0.0
H719 H 0.79558 0.98545 0.9903 0.0
Mn720 Mn 0.2465 0.62567 2e-05 0.0
Mn721 Mn 0.2417 0.59008 0.96784 0.0
C722 C 0.21633 0.61457 0.99168 0.0
C723 C 0.25037 0.6357 0.03101 0.0
C724 C 0.25004 0.63188 0.95765 0.0
O725 O 0.27327 0.61434 -0.00096 0.0
O726 O 0.26807 0.59049 0.97806 0.0
C727 C 0.24677 0.55632 0.99286 0.0
N728 N 0.23584 0.56638 0.98044 0.0
C729 C 0.21191 0.54124 0.98009 0.0
C730 C 0.22298 0.53053 0.99275 0.0
C731 C 0.2404 0.5382 -0.00069 0.0
C732 C 0.2188 0.55939 0.97446 0.0
H733 H 0.26035 0.56198 0.99766 0.0
C734 C 0.2789 0.59983 0.98944 0.0
O735 O 0.25521 0.64683 0.01709 0.0
O736 O 0.24389 0.61857 0.0269 0.0
N737 N 0.21689 0.58762 0.95674 0.0
C738 C 0.20894 0.59875 0.94303 0.0
C739 C 0.19148 0.59306 0.93493 0.0
C740 C 0.18265 0.57571 0.94059 0.0
C741 C 0.19152 0.56406 0.9541 0.0
C742 C 0.2088 0.5706 0.96187 0.0
H743 H 0.21581 0.61192 0.93836 0.0
O744 O 0.21865 0.63157 -0.00084 0.0
O745 O 0.2318 0.60446 0.98947 0.0
O746 O 0.25037 0.63849 0.97439 0.0
O747 O 0.24719 0.61403 0.95373 0.0
C748 C 0.18425 0.54589 0.95963 0.0
C749 C 0.19451 0.53443 0.9725 0.0
H750 H 0.21833 0.51636 0.99746 0.0
H751 H 0.24901 0.53004 0.00909 0.0
H752 H 0.18491 0.60195 0.92425 0.0
H753 H 0.16926 0.57128 0.93419 0.0
H754 H 0.17096 0.54042 0.95382 0.0
H755 H 0.18894 0.52031 0.97632 0.0
Mn756 Mn 0.11768 0.50446 0.74858 0.0
Mn757 Mn 0.15339 0.50657 0.78038 0.0
C758 C 0.13041 0.5341 0.75722 0.0
C759 C 0.10724 0.50095 0.71791 0.0
C760 C 0.11176 0.50041 0.79093 0.0
O761 O 0.12724 0.47673 0.74907 0.0
O762 O 0.15178 0.48015 0.76941 0.0
C763 C 0.1862 0.50101 0.75463 0.0
N764 N 0.17714 0.51169 0.76802 0.0
C765 C 0.20274 0.53512 0.76861 0.0
C766 C 0.21242 0.5243 0.75491 0.0
C767 C 0.20408 0.50721 0.74785 0.0
C768 C 0.18498 0.5282 0.77484 0.0
H769 H 0.17984 0.48787 0.74916 0.0
C770 C 0.14155 0.47015 0.75803 0.0
O771 O 0.096 0.49726 0.73199 0.0
O772 O 0.12463 0.50639 0.72158 0.0
N773 N 0.15682 0.53131 0.79202 0.0
C774 C 0.14514 0.54057 0.80441 0.0
C775 C 0.15129 0.55798 0.8127 0.0
C776 C 0.16938 0.56558 0.80823 0.0
C777 C 0.18104 0.55594 0.79526 0.0
C778 C 0.17428 0.53851 0.78766 0.0
H779 H 0.1313 0.53466 0.80805 0.0
O780 O 0.11351 0.53292 0.74978 0.0
O781 O 0.1396 0.51785 0.75907 0.0
O782 O 0.10499 0.50126 0.77433 0.0
O783 O 0.1296 0.50172 0.79456 0.0
C784 C 0.19907 0.56299 0.78952 0.0
C785 C 0.20987 0.55263 0.77612 0.0
H786 H 0.22618 0.52906 0.74961 0.0
H787 H 0.21141 0.49883 0.73721 0.0
H788 H 0.1422 0.56542 0.82266 0.0
H789 H 0.17425 0.57869 0.81498 0.0
H790 H 0.20465 0.57648 0.79514 0.0
H791 H 0.22358 0.55833 0.77161 0.0
Mn792 Mn 0.2516 0.37061 0.50603 0.0
Mn793 Mn 0.25721 0.40977 0.47815 0.0
C794 C 0.28203 0.38317 0.50077 0.0
C795 C 0.24547 0.35799 0.53608 0.0
C796 C 0.25002 0.36916 0.46287 0.0
O797 O 0.22464 0.3815 0.50443 0.0
O798 O 0.23029 0.40832 0.48734 0.0
C799 C 0.25123 0.44081 0.50629 0.0
N800 N 0.26243 0.43227 0.493 0.0
C801 C 0.28652 0.45708 0.49626 0.0
C802 C 0.27521 0.46618 0.50992 0.0
C803 C 0.2575 0.45799 0.51497 0.0
C804 C 0.27947 0.44005 0.48801 0.0
H805 H 0.2376 0.43458 0.51019 0.0
C806 C 0.21911 0.3972 0.49675 0.0
O807 O 0.2421 0.34787 0.52099 0.0
O808 O 0.25215 0.37533 0.53364 0.0
N809 N 0.28253 0.41319 0.46842 0.0
C810 C 0.29217 0.40201 0.45582 0.0
C811 C 0.31044 0.40782 0.44977 0.0
C812 C 0.3185 0.42515 0.45658 0.0
C813 C 0.30824 0.4365 0.46943 0.0
C814 C 0.29008 0.42998 0.47493 0.0
H815 H 0.28602 0.38871 0.4505 0.0
O816 O 0.27973 0.36546 0.50643 0.0
O817 O 0.26642 0.39311 0.49852 0.0
O818 O 0.24962 0.36036 0.4787 0.0
O819 O 0.25235 0.38746 0.46145 0.0
C820 C 0.31546 0.45382 0.47726 0.0
C821 C 0.30462 0.46408 0.49069 0.0
H822 H 0.28003 0.4794 0.5167 0.0
H823 H 0.24871 0.46491 0.52553 0.0
H824 H 0.31828 0.39897 0.43988 0.0
H825 H 0.33263 0.42953 0.45195 0.0
H826 H 0.32942 0.45927 0.47323 0.0
H827 H 0.31043 0.47725 0.49679 0.0
Mn828 Mn 0.38444 0.49322 0.24683 0.0
Mn829 Mn 0.34923 0.4953 0.2791 0.0
C830 C 0.36767 0.46513 0.25515 0.0
C831 C 0.39562 0.49626 0.21598 0.0
C832 C 0.39137 0.4974 0.28918 0.0
O833 O 0.37786 0.52221 0.24778 0.0
O834 O 0.35278 0.52129 0.26775 0.0
C835 C 0.31594 0.50365 0.25487 0.0
N836 N 0.32475 0.49213 0.2677 0.0
C837 C 0.29628 0.47307 0.27203 0.0
C838 C 0.28682 0.48472 0.25891 0.0
C839 C 0.29677 0.49994 0.25011 0.0
C840 C 0.31552 0.47706 0.27574 0.0
H841 H 0.32342 0.5157 0.2485 0.0
C842 C 0.36401 0.53029 0.2565 0.0
O843 O 0.4069 0.49811 0.23033 0.0
O844 O 0.37771 0.49265 0.21944 0.0
N845 N 0.34421 0.47109 0.29114 0.0
C846 C 0.35562 0.46081 0.30297 0.0
C847 C 0.34817 0.44439 0.31207 0.0
C848 C 0.32893 0.43909 0.30935 0.0
C849 C 0.31744 0.4501 0.29732 0.0
C850 C 0.32583 0.4659 0.28815 0.0
H851 H 0.37028 0.4651 0.30545 0.0
O852 O 0.38455 0.46407 0.2476 0.0
O853 O 0.36108 0.48255 0.25739 0.0
O854 O 0.39784 0.49461 0.27264 0.0
O855 O 0.37355 0.49851 0.29275 0.0
C856 C 0.29785 0.44638 0.29445 0.0
C857 C 0.28726 0.45798 0.28193 0.0
H858 H 0.27193 0.48212 0.25549 0.0
H859 H 0.28959 0.509 0.23996 0.0
H860 H 0.35713 0.43602 0.32137 0.0
H861 H 0.32312 0.42663 0.31665 0.0
H862 H 0.29074 0.43483 0.30205 0.0
H863 H 0.2721 0.45549 0.28022 0.0
O864 O 0.02638 0.01252 5e-05 0.0
Mn865 Mn 0.00046 -0.00259 0.0046 0.0
O866 O 0.04964 0.99012 0.0017 0.0
Mn867 Mn 0.03447 0.96951 0.00927 0.0
O868 O 0.97479 0.982 0.00949 0.0
O869 O 0.98831 0.02314 0.01147 0.0
Mn870 Mn 0.96565 0.02365 0.0005 0.0
O871 O 0.99275 0.00012 0.97595 0.0
O872 O 0.9512 0.00388 0.01075 0.0
O873 O 0.00817 0.99433 0.03323 0.0
O874 O 0.02896 0.96964 0.03459 0.0
O875 O 0.9675 0.0467 0.013 0.0
O876 O 0.96886 0.02177 0.97482 0.0
C877 C 0.01544 0.955 0.99039 0.0
C878 C 0.04416 0.00762 -0.00028 0.0
C879 C 0.95717 0.98657 0.01222 0.0
C880 C 0.98388 0.03999 0.01838 0.0
C881 C 0.9802 0.00997 0.96682 0.0
C882 C 0.01874 0.98247 0.04257 0.0
O883 O 0.01246 0.97191 0.99768 0.0
O884 O 0.03149 0.94722 0.99523 0.0
O885 O 0.27779 0.7471 0.24301 0.0
Mn886 Mn 0.24847 0.74342 0.24898 0.0
O887 O 0.2802 0.77327 0.22465 0.0
Mn888 Mn 0.25513 0.77203 0.21713 0.0
O889 O 0.21942 0.73996 0.25525 0.0
O890 O 0.25525 0.71733 0.25986 0.0
Mn891 Mn 0.2417 0.71348 0.28037 0.0
O892 O 0.25248 0.75687 0.27509 0.0
O893 O 0.21622 0.71363 0.27341 0.0
O894 O 0.24457 0.7294 0.22325 0.0
O895 O 0.24956 0.75181 0.20086 0.0
O896 O 0.25669 0.69184 0.27774 0.0
O897 O 0.24892 0.7332 0.29663 0.0
C898 C 0.23364 0.78604 0.23298 0.0
C899 C 0.28783 0.75996 0.23436 0.0
C900 C 0.20908 0.72749 0.26403 0.0
C901 C 0.26309 0.7007 0.263 0.0
C902 C 0.25244 0.75078 0.2922 0.0
C903 C 0.24575 0.73456 0.20599 0.0
O904 O 0.24103 0.76942 0.23761 0.0
O905 O 0.24035 0.79365 0.21769 0.0
O906 O 0.47649 0.98481 0.49544 0.0
Mn907 Mn 0.49935 0.00325 0.50196 0.0
O908 O 0.45153 0.00338 0.48731 0.0
Mn909 Mn 0.46094 0.02536 0.49913 0.0
O910 O 0.52232 0.0216 0.50856 0.0
O911 O 0.51347 0.97992 0.5112 0.0
Mn912 Mn 0.5374 0.98052 0.50372 0.0
O913 O 0.51025 -0.00058 0.47494 0.0
O914 O 0.54758 0.0025 0.5147 0.0
O915 O 0.48808 0.00697 0.52886 0.0
O916 O 0.46069 0.02376 0.52522 0.0
O917 O 0.53465 0.95794 0.51731 0.0
O918 O 0.53634 0.98067 0.47767 0.0
C919 C 0.48188 0.04295 0.48482 0.0
C920 C 0.45947 0.9869 0.48901 0.0
C921 C 0.53958 0.01901 0.51421 0.0
C922 C 0.5172 0.9637 0.5193 0.0
C923 C 0.52431 0.99004 0.46776 0.0
C924 C 0.47285 0.01487 0.53543 0.0
O925 O 0.48524 0.02657 0.49277 0.0
O926 O 0.4643 0.04847 0.48625 0.0
O927 O 0.27263 0.25595 0.76534 0.0
Mn928 Mn 0.24892 0.24929 0.74873 0.0
O929 O 0.29624 0.26597 0.74633 0.0
Mn930 Mn 0.28574 0.25404 0.72552 0.0
O931 O 0.22511 0.24239 0.73207 0.0
O932 O 0.23652 0.23861 0.77263 0.0
Mn933 Mn 0.21269 0.2471 0.77246 0.0
O934 O 0.23795 0.27688 0.75349 0.0
O935 O 0.20062 0.2367 0.75174 0.0
O936 O 0.26061 0.2219 0.74374 0.0
O937 O 0.28684 0.22726 0.72596 0.0
O938 O 0.21434 0.23292 0.79388 0.0
O939 O 0.21339 0.27384 0.77355 0.0
C940 C 0.26491 0.26889 0.70948 0.0
C941 C 0.28934 0.26318 0.76262 0.0
C942 C 0.20775 0.23716 0.7353 0.0
C943 C 0.23182 0.23034 0.78844 0.0
C944 C 0.22464 0.28418 0.76365 0.0
C945 C 0.27561 0.21597 0.73498 0.0
O946 O 0.26133 0.26015 0.72523 0.0
O947 O 0.28243 0.26768 0.70372 0.0
O948 O 0.99134 0.9732 0.48636 0.0
Mn949 Mn -0.00027 -0.00298 0.50227 0.0
O950 O 0.98386 0.9488 0.50569 0.0
Mn951 Mn -0.00232 0.95953 0.52533 0.0
O952 O 0.00875 0.02125 0.51756 0.0
O953 O 0.00692 0.00952 0.47756 0.0
Mn954 Mn -0.0011 0.03367 0.4775 0.0
O955 O 0.97223 0.00833 0.50109 0.0
O956 O 0.01216 0.04558 0.49678 0.0
O957 O 0.02719 0.98532 0.50407 0.0
O958 O 0.02392 0.95861 0.52204 0.0
O959 O 0.01003 0.02983 0.45437 0.0
O960 O 0.97254 0.03309 0.48059 0.0
C961 C 0.98556 0.98071 0.54356 0.0
C962 C 0.98481 0.95614 0.48935 0.0
C963 C 0.01381 0.03864 0.51329 0.0
C964 C 0.01318 0.01257 0.46068 0.0
C965 C 0.96389 0.02186 0.49199 0.0
C966 C 0.03404 0.97023 0.5122 0.0
O967 O 0.99186 0.98435 0.52677 0.0
O968 O 0.98723 0.96285 0.54877 0.0
O969 O 0.26204 0.77468 0.75215 0.0
Mn970 Mn 0.2481 0.74867 0.74662 0.0
O971 O 0.24053 0.79821 0.74639 0.0
Mn972 Mn 0.22039 0.78239 0.73875 0.0
O973 O 0.23382 0.72253 0.74091 0.0
O974 O 0.27392 0.73679 0.74215 0.0
Mn975 Mn 0.27449 0.71327 0.75145 0.0
O976 O 0.24921 0.7412 0.77508 0.0
O977 O 0.25615 0.69941 0.7385 0.0
O978 O 0.24718 0.75602 0.71788 0.0
O979 O 0.2216 0.77513 0.71382 0.0
O980 O 0.29861 0.71778 0.74196 0.0
O981 O 0.26939 0.71583 0.77683 0.0
C982 C 0.20549 0.76403 0.75806 0.0
C983 C 0.25727 0.79255 0.75094 0.0
C984 C 0.23885 0.70499 0.73739 0.0
C985 C 0.29164 0.7345 0.73755 0.0
C986 C 0.25798 0.72797 0.78433 0.0
C987 C 0.23543 0.76528 0.7073 0.0
O988 O 0.22249 0.76081 0.75167 0.0
O989 O 0.19784 0.77984 0.75197 0.0
O990 O 0.48975 -0.00346 0.97554 0.0
Mn991 Mn 0.50006 0.0001 0.00278 0.0
O992 O 0.51305 0.00849 0.9567 0.0
Mn993 Mn 0.53074 0.01557 0.97511 0.0
O994 O 0.51078 0.00439 0.02972 0.0
O995 O 0.47272 0.00105 0.01239 0.0
Mn996 Mn 0.47126 0.98517 0.03178 0.0
O997 O 0.50207 0.97007 0.00661 0.0
O998 O 0.48781 -0.00508 0.04986 0.0
O999 O 0.49844 0.03008 -0.00127 0.0
O1000 O 0.52643 0.0394 0.98614 0.0
O1001 O 0.44722 -0.00501 0.02937 0.0
O1002 O 0.4766 0.96051 0.02337 0.0
C1003 C 0.54428 0.99292 0.99076 0.0
C1004 C 0.49643 0.00107 0.95925 0.0
C1005 C 0.50433 0.00202 0.04645 0.0
C1006 C 0.45479 0.0046 0.01561 0.0
C1007 C 0.4916 0.9568 0.01401 0.0
C1008 C 0.51029 0.04329 0.99348 0.0
O1009 O 0.52703 -0.00109 0.99329 0.0
O1010 O 0.55348 0.00226 0.97784 0.0
O1011 O 0.2785 0.24085 0.26159 0.0
Mn1012 Mn 0.25056 0.24504 0.25118 0.0
O1013 O 0.27582 0.21939 0.2852 0.0
Mn1014 Mn 0.24948 0.2195 0.28668 0.0
O1015 O 0.22261 0.24937 0.24119 0.0
O1016 O 0.26054 0.26984 0.23835 0.0
Mn1017 Mn 0.25234 0.26681 0.21485 0.0
O1018 O 0.25615 0.227 0.22771 0.0
O1019 O 0.22588 0.26694 0.21489 0.0
O1020 O 0.24447 0.26203 0.2754 0.0
O1021 O 0.2395 0.2407 0.29885 0.0
O1022 O 0.26482 0.28962 0.21418 0.0
O1023 O 0.26352 0.24587 0.2034 0.0
C1024 C 0.23224 0.20439 0.26681 0.0
C1025 C 0.28586 0.23052 0.2748 0.0
C1026 C 0.21549 0.25833 0.227 0.0
C1027 C 0.26743 0.28622 0.23191 0.0
C1028 C 0.26182 0.22926 0.21068 0.0
C1029 C 0.23982 0.25796 0.29256 0.0
O1030 O 0.2409 0.22067 0.26359 0.0
O1031 O 0.23497 0.19747 0.28348 0.0
O1032 O 0.49436 0.47469 0.98405 0.0
Mn1033 Mn 0.50166 0.4984 0.00066 0.0
O1034 O 0.48322 0.45105 0.00223 0.0
Mn1035 Mn 0.49669 0.46111 0.0223 0.0
O1036 O 0.50931 0.52321 0.01609 0.0
O1037 O 0.51081 0.51023 0.97639 0.0
Mn1038 Mn 0.50248 0.5341 0.97435 0.0
O1039 O 0.47452 0.50997 0.99718 0.0
O1040 O 0.51298 0.54702 0.99467 0.0
O1041 O 0.52883 0.48648 0.00478 0.0
O1042 O 0.52298 0.45879 0.02052 0.0
O1043 O 0.51591 0.52914 0.95255 0.0
O1044 O 0.47598 0.53272 0.97465 0.0
C1045 C 0.48468 0.48115 0.04119 0.0
C1046 C 0.48639 0.45814 0.98612 0.0
C1047 C 0.51338 0.54086 0.01159 0.0
C1048 C 0.51823 0.51216 0.95984 0.0
C1049 C 0.46668 0.52251 0.98644 0.0
C1050 C 0.53444 0.47064 0.01252 0.0
O1051 O 0.49168 0.48612 0.02489 0.0
O1052 O 0.48548 0.46288 0.04523 0.0
O1053 O 0.76283 0.27399 0.25217 0.0
Mn1054 Mn 0.7482 0.24833 0.24624 0.0
O1055 O 0.74121 0.29801 0.25222 0.0
Mn1056 Mn 0.72117 0.28322 0.24291 0.0
O1057 O 0.73344 0.22277 0.24009 0.0
O1058 O 0.77351 0.23662 0.23896 0.0
Mn1059 Mn 0.77495 0.21291 0.24776 0.0
O1060 O 0.75153 0.23923 0.27425 0.0
O1061 O 0.75522 0.19924 0.2366 0.0
O1062 O 0.74517 0.25702 0.21819 0.0
O1063 O 0.72163 0.27902 0.21729 0.0
O1064 O 0.79769 0.2172 0.23537 0.0
O1065 O 0.77323 0.21522 0.27358 0.0
C1066 C 0.706 0.26355 0.26044 0.0
C1067 C 0.75824 0.29186 0.25427 0.0
C1068 C 0.73806 0.2053 0.23589 0.0
C1069 C 0.79042 0.23404 0.23204 0.0
C1070 C 0.76197 0.22646 0.28251 0.0
C1071 C 0.73381 0.26822 0.20914 0.0
O1072 O 0.72284 0.26024 0.25354 0.0
O1073 O 0.69879 0.28016 0.25605 0.0
O1074 O 0.98415 0.49278 0.47902 0.0
Mn1075 Mn 0.00171 0.49867 0.50207 0.0
O1076 O 0.00288 0.48484 0.45467 0.0
Mn1077 Mn 0.02415 0.49668 0.46498 0.0
O1078 O 0.01881 0.50504 0.52536 0.0
O1079 O 0.97784 0.50758 0.51536 0.0
Mn1080 Mn 0.97747 0.49889 0.53856 0.0
O1081 O -0.00194 0.47067 0.51211 0.0
O1082 O -0.00122 0.50995 0.54972 0.0
O1083 O 0.00578 0.5266 0.49199 0.0
O1084 O 0.02368 0.52349 0.46576 0.0
O1085 O 0.95508 0.51251 0.53559 0.0
O1086 O 0.9778 0.47206 0.53672 0.0
C1087 C 0.04226 0.48258 0.48448 0.0
C1088 C 0.98648 0.48673 0.46213 0.0
C1089 C 0.01546 0.51003 0.54245 0.0
C1090 C 0.9614 0.51532 0.51872 0.0
C1091 C 0.98821 0.46267 0.5252 0.0
C1092 C 0.01497 0.53375 0.47797 0.0
O1093 O 0.02556 0.48947 0.48865 0.0
O1094 O 0.04709 0.48424 0.46699 0.0
O1095 O 0.77527 0.75514 0.26131 0.0
Mn1096 Mn 0.74904 0.74965 0.24809 0.0
O1097 O 0.7976 0.75452 0.23851 0.0
Mn1098 Mn 0.7819 0.74572 0.21947 0.0
O1099 O 0.72332 0.74372 0.23419 0.0
O1100 O 0.73816 0.74192 0.27443 0.0
Mn1101 Mn 0.71677 0.75598 0.2738 0.0
O1102 O 0.74194 0.77907 0.2503 0.0
O1103 O 0.70025 0.74708 0.25556 0.0
O1104 O 0.75692 0.72055 0.24475 0.0
O1105 O 0.77682 0.71956 0.21989 0.0
O1106 O 0.71514 0.74477 0.29617 0.0
O1107 O 0.72145 0.78212 0.27396 0.0
C1108 C 0.76227 0.76436 0.20606 0.0
C1109 C 0.79272 0.75655 0.25566 0.0
C1110 C 0.70568 0.74299 0.23902 0.0
C1111 C 0.73123 0.73708 0.29106 0.0
C1112 C 0.73191 0.78952 0.26138 0.0
C1113 C 0.76701 0.71122 0.23263 0.0
O1114 O 0.75976 0.75703 0.22265 0.0
O1115 O 0.77816 0.7597 0.19795 0.0
O1116 O 0.7785 0.24876 0.74258 0.0
Mn1117 Mn 0.74981 0.24457 0.74962 0.0
O1118 O 0.78071 0.27543 0.725 0.0
Mn1119 Mn 0.75534 0.27364 0.71799 0.0
O1120 O 0.72151 0.23988 0.75777 0.0
O1121 O 0.75799 0.21883 0.76063 0.0
Mn1122 Mn 0.74944 0.21755 0.78388 0.0
O1123 O 0.75441 0.25937 0.77487 0.0
O1124 O 0.7231 0.21937 0.78234 0.0
O1125 O 0.74514 0.23033 0.72395 0.0
O1126 O 0.74922 0.2534 0.70196 0.0
O1127 O 0.76183 0.19456 0.77992 0.0
O1128 O 0.76104 0.23748 0.7971 0.0
C1129 C 0.73356 0.28686 0.73411 0.0
C1130 C 0.78839 0.26194 0.7344 0.0
C1131 C 0.71365 0.23005 0.77108 0.0
C1132 C 0.76516 0.20178 0.76346 0.0
C1133 C 0.75981 0.2549 0.79151 0.0
C1134 C 0.74553 0.23595 0.7067 0.0
O1135 O 0.7414 0.2704 0.7385 0.0
O1136 O 0.74001 0.2949 0.71894 0.0
O1137 O 0.77825 0.74938 0.75622 0.0
Mn1138 Mn 0.74895 0.74947 0.74919 0.0
O1139 O 0.78205 0.72677 0.7787 0.0
Mn1140 Mn 0.75627 0.72248 0.78285 0.0
O1141 O 0.71961 0.74932 0.74235 0.0
O1142 O 0.75316 0.77613 0.738 0.0
Mn1143 Mn 0.73989 0.77753 0.71702 0.0
O1144 O 0.75453 0.73574 0.72313 0.0
O1145 O 0.71441 0.77455 0.7232 0.0
O1146 O 0.74313 0.76346 0.77484 0.0
O1147 O 0.74458 0.74106 0.7977 0.0
O1148 O 0.75154 0.80126 0.71953 0.0
O1149 O 0.74927 0.75855 0.70117 0.0
C1150 C 0.73883 0.70559 0.7644 0.0
C1151 C 0.78874 0.73964 0.76766 0.0
C1152 C 0.70838 0.76041 0.73299 0.0
C1153 C 0.75834 0.79393 0.73485 0.0
C1154 C 0.75373 0.7413 0.70582 0.0
C1155 C 0.74122 0.7582 0.79208 0.0
O1156 O 0.74475 0.72303 0.76078 0.0
O1157 O 0.74501 0.69856 0.7801 0.0
O1158 O 0.52574 0.51615 0.50167 0.0
Mn1159 Mn 0.50054 0.49901 0.50526 0.0
O1160 O 0.55001 0.49523 0.49829 0.0
Mn1161 Mn 0.53669 0.47399 0.50686 0.0
O1162 O 0.4757 0.48185 0.50949 0.0
O1163 O 0.48718 0.52356 0.51326 0.0
Mn1164 Mn 0.46362 0.52285 0.50464 0.0
O1165 O 0.49207 0.50332 0.47703 0.0
O1166 O 0.45164 0.50214 0.51589 0.0
O1167 O 0.50879 0.4946 0.53347 0.0
O1168 O 0.53338 0.4737 0.53255 0.0
O1169 O 0.46564 0.54616 0.51678 0.0
O1170 O 0.46527 0.52122 0.47877 0.0
C1171 C 0.51746 0.45731 0.49037 0.0
C1172 C 0.5437 0.51245 0.49941 0.0
C1173 C 0.45833 0.48511 0.51464 0.0
C1174 C 0.48291 0.54041 0.52007 0.0
C1175 C 0.47769 0.51187 0.4693 0.0
C1176 C 0.52155 0.48412 0.54164 0.0
O1177 O 0.51367 0.47436 0.49706 0.0
O1178 O 0.53465 0.4513 0.49368 0.0
O1179 O 0.97489 0.48615 -0.00191 0.0
Mn1180 Mn -0.00129 0.50387 0.00342 0.0
O1181 O 0.94976 0.50642 0.9959 0.0
Mn1182 Mn 0.962 0.52872 0.004 0.0
O1183 O 0.02132 0.5233 0.00829 0.0
O1184 O 0.01254 0.47904 0.01311 0.0
Mn1185 Mn 0.036 0.48613 0.00568 0.0
O1186 O 0.00814 0.49963 0.97586 0.0
O1187 O 0.04538 0.50646 0.01951 0.0
O1188 O 0.98908 0.50829 0.03098 0.0
O1189 O 0.96564 0.53039 0.02974 0.0
O1190 O 0.04014 0.46288 0.01531 0.0
O1191 O 0.03777 0.48854 0.97989 0.0
C1192 C 0.98112 0.54323 0.98504 0.0
C1193 C 0.95706 0.48953 0.99501 0.0
C1194 C 0.03754 0.5225 0.01644 0.0
C1195 C 0.02196 0.46364 0.01892 0.0
C1196 C 0.02437 0.49435 0.96928 0.0
C1197 C 0.97682 0.51941 0.03899 0.0
O1198 O 0.98494 0.52749 0.99407 0.0
O1199 O 0.96424 0.54998 0.98839 0.0
H1200 H 0.97497 0.18285 0.12133 0.0
H1201 H 0.97868 0.15106 0.10662 0.0
H1202 H 0.02624 0.17309 0.07407 0.0
H1203 H 0.02076 0.2054 0.08714 0.0
H1204 H 0.01073 0.15057 0.05336 0.0
H1205 H 0.02816 0.14078 0.11814 0.0
H1206 H 0.0234 0.14208 0.1525 0.0
H1207 H 0.9736 0.10576 0.1474 0.0
H1208 H 0.97793 0.10443 0.11303 0.0
H1209 H 0.02028 0.05577 0.01713 0.0
H1210 H 0.03112 0.08311 0.03684 0.0
H1211 H 0.98018 0.07711 0.07077 0.0
H1212 H 0.97025 0.04951 0.05202 0.0
H1213 H 0.0056 0.09098 0.09178 0.0
H1214 H 0.98608 0.10721 0.026 0.0
H1215 H 0.99191 0.10578 0.99178 0.0
H1216 H 0.04822 0.12958 -0.00015 0.0
H1217 H 0.04262 0.13115 0.03409 0.0
C1218 C 0.98602 0.18084 0.11084 0.0
C1219 C -0.0027 0.19655 0.10503 0.0
C1220 C 0.98846 0.16254 0.10267 0.0
C1221 C 0.00326 0.15917 0.0896 0.0
C1222 C 0.01472 0.17502 0.08406 0.0
C1223 C 0.01164 0.19352 0.09155 0.0
C1224 C 0.00652 0.13939 0.08138 0.0
C1225 C 0.00992 0.13764 0.06196 0.0
C1226 C 0.00563 0.12219 0.0923 0.0
C1227 C 0.00336 0.12257 0.11302 0.0
C1228 C 0.0162 0.13309 0.12436 0.0
C1229 C 0.01355 0.13385 0.14383 0.0
C1230 C -0.0018 0.12402 0.15212 0.0
C1231 C 0.98549 0.11335 0.14097 0.0
C1232 C 0.98806 0.11256 0.1215 0.0
C1233 C 0.01203 0.05974 0.02942 0.0
C1234 C 0.99445 0.05058 0.03312 0.0
C1235 C 0.01798 0.07563 0.04047 0.0
C1236 C 0.00609 0.0828 0.05492 0.0
C1237 C 0.98962 0.07217 0.05969 0.0
C1238 C 0.98393 0.05626 0.04897 0.0
C1239 C 0.00896 0.1023 0.06382 0.0
C1240 C 0.00678 0.10403 0.08338 0.0
C1241 C 0.01113 0.11946 0.0531 0.0
C1242 C 0.01405 0.11906 0.03252 0.0
C1243 C -0.00032 0.11213 0.02043 0.0
C1244 C 0.00293 0.1113 0.00105 0.0
C1245 C 0.02044 0.11753 0.99365 0.0
C1246 C 0.03468 0.12473 0.00559 0.0
C1247 C 0.03147 0.12561 0.02496 0.0
H1248 H 0.02296 0.11682 0.97865 0.0
H1249 H 0.99615 0.12467 0.16719 0.0
H1250 H 0.04006 0.72381 0.32898 0.0
H1251 H 0.07046 0.72227 0.3118 0.0
H1252 H 0.0926 0.76964 0.345 0.0
H1253 H 0.06252 0.7708 0.36274 0.0
H1254 H 0.09346 0.76724 0.29741 0.0
H1255 H 0.11513 0.74304 0.35783 0.0
H1256 H 0.11276 0.7226 0.38612 0.0
H1257 H 0.11186 0.6715 0.35158 0.0
H1258 H 0.11388 0.69172 0.32305 0.0
H1259 H 0.19213 0.76248 0.26881 0.0
H1260 H 0.16074 0.76812 0.28275 0.0
H1261 H 0.1484 0.70681 0.27982 0.0
H1262 H 0.18027 0.70106 0.26692 0.0
H1263 H 0.14271 0.71854 0.31343 0.0
H1264 H 0.12406 0.74412 0.25251 0.0
H1265 H 0.12777 0.76562 0.22508 0.0
H1266 H 0.12445 0.81552 0.26107 0.0
H1267 H 0.12084 0.79429 0.28873 0.0
C1268 C 0.05145 0.7338 0.33269 0.0
C1269 C 0.04901 0.74735 0.34723 0.0
C1270 C 0.06874 0.73293 0.32287 0.0
C1271 C 0.08365 0.74585 0.32719 0.0
C1272 C 0.08121 0.75954 0.34155 0.0
C1273 C 0.0641 0.7601 0.3517 0.0
C1274 C 0.1018 0.74484 0.31667 0.0
C1275 C 0.10439 0.75677 0.30094 0.0
C1276 C 0.11584 0.73108 0.32129 0.0
C1277 C 0.11427 0.71889 0.33833 0.0
C1278 C 0.11409 0.72746 0.35626 0.0
C1279 C 0.11291 0.71592 0.37234 0.0
C1280 C 0.11206 0.69576 0.37064 0.0
C1281 C 0.11244 0.68712 0.35286 0.0
C1282 C 0.11359 0.69861 0.33674 0.0
C1283 C 0.18244 0.7503 0.27053 0.0
C1284 C 0.18857 0.73132 0.26678 0.0
C1285 C 0.16446 0.75353 0.27854 0.0
C1286 C 0.15211 0.73789 0.28237 0.0
C1287 C 0.1577 0.7191 0.27715 0.0
C1288 C 0.17583 0.71582 0.26961 0.0
C1289 C 0.13441 0.74063 0.29363 0.0
C1290 C 0.13186 0.72902 0.30967 0.0
C1291 C 0.12056 0.75488 0.28935 0.0
C1292 C 0.12231 0.76761 0.27268 0.0
C1293 C 0.12418 0.75967 0.25457 0.0
C1294 C 0.12625 0.77181 0.23899 0.0
C1295 C 0.12638 0.79192 0.24134 0.0
C1296 C 0.12434 0.79994 0.25927 0.0
C1297 C 0.12223 0.78786 0.2749 0.0
H1298 H 0.12804 0.80129 0.22927 0.0
H1299 H 0.11119 0.68684 0.38311 0.0
H1300 H 0.49908 0.81431 0.62073 0.0
H1301 H 0.50038 0.84799 0.60944 0.0
H1302 H 0.48631 0.82839 0.5535 0.0
H1303 H 0.48516 0.79516 0.56443 0.0
H1304 H 0.5148 0.85415 0.55276 0.0
H1305 H 0.45323 0.8476 0.58259 0.0
H1306 H 0.43091 0.84151 0.60878 0.0
H1307 H 0.45536 0.88913 0.63958 0.0
H1308 H 0.4781 0.89525 0.61374 0.0
H1309 H 0.4928 0.93721 0.50486 0.0
H1310 H 0.48285 0.90783 0.52153 0.0
H1311 H 0.50393 0.93213 0.57347 0.0
H1312 H 0.51339 0.96166 0.55687 0.0
H1313 H 0.47208 0.90509 0.57797 0.0
H1314 H 0.53442 0.91058 0.54902 0.0
H1315 H 0.55627 0.91737 0.52261 0.0
H1316 H 0.5298 0.872 0.49025 0.0
H1317 H 0.50752 0.8652 0.51637 0.0
C1318 C 0.49648 0.81722 0.606 0.0
C1319 C 0.49192 0.80204 0.59352 0.0
C1320 C 0.49707 0.83645 0.59961 0.0
C1321 C 0.49323 0.8407 0.58066 0.0
C1322 C 0.48926 0.82549 0.56817 0.0
C1323 C 0.48856 0.80645 0.57451 0.0
C1324 C 0.4933 0.86085 0.57345 0.0
C1325 C 0.50534 0.86522 0.55824 0.0
C1326 C 0.48121 0.87545 0.58078 0.0
C1327 C 0.46761 0.87166 0.59636 0.0
C1328 C 0.45403 0.85661 0.59505 0.0
C1329 C 0.44127 0.85318 0.60982 0.0
C1330 C 0.44179 0.86486 0.62587 0.0
C1331 C 0.45503 0.88004 0.62717 0.0
C1332 C 0.46787 0.88348 0.61248 0.0
C1333 C 0.4941 0.93675 0.52003 0.0
C1334 C 0.50354 0.95171 0.52969 0.0
C1335 C 0.48864 0.91989 0.52951 0.0
C1336 C 0.49292 0.91773 0.54868 0.0
C1337 C 0.50035 0.93357 0.55873 0.0
C1338 C 0.50566 0.95048 0.54926 0.0
C1339 C 0.49327 0.89817 0.55721 0.0
C1340 C 0.48151 0.894 0.57263 0.0
C1341 C 0.5056 0.88368 0.55015 0.0
C1342 C 0.51917 0.88754 0.53455 0.0
C1343 C 0.53316 0.90216 0.53621 0.0
C1344 C 0.54562 0.906 0.5213 0.0
C1345 C 0.54439 0.89516 0.50474 0.0
C1346 C 0.53071 0.88041 0.50307 0.0
C1347 C 0.51816 0.87656 0.51792 0.0
H1348 H 0.55406 0.89815 0.49321 0.0
H1349 H 0.43191 0.86219 0.63729 0.0
H1350 H 0.42564 0.22764 0.8788 0.0
H1351 H 0.39553 0.2284 0.86125 0.0
H1352 H 0.42273 0.26263 0.81804 0.0
H1353 H 0.45286 0.26124 0.83498 0.0
H1354 H 0.37485 0.25915 0.85354 0.0
H1355 H 0.40352 0.25909 0.77885 0.0
H1356 H 0.42974 0.24504 0.76007 0.0
H1357 H 0.42937 0.19443 0.79507 0.0
H1358 H 0.40327 0.2083 0.81414 0.0
H1359 H 0.31591 0.29096 0.77069 0.0
H1360 H 0.34387 0.28686 0.79123 0.0
H1361 H 0.32282 0.23057 0.80771 0.0
H1362 H 0.29463 0.23492 0.78794 0.0
H1363 H 0.36654 0.24367 0.78585 0.0
H1364 H 0.32131 0.24262 0.8399 0.0
H1365 H 0.29443 0.25844 0.85575 0.0
H1366 H 0.32781 0.31044 0.86233 0.0
H1367 H 0.35465 0.29514 0.84536 0.0
C1368 C 0.42525 0.23497 0.86537 0.0
C1369 C 0.44161 0.24429 0.85822 0.0
C1370 C 0.40807 0.23545 0.85539 0.0
C1371 C 0.40694 0.24539 0.83824 0.0
C1372 C 0.42336 0.25441 0.83096 0.0
C1373 C 0.44058 0.25366 0.84073 0.0
C1374 C 0.38835 0.24759 0.82863 0.0
C1375 C 0.373 0.25545 0.83882 0.0
C1376 C 0.38599 0.24325 0.80932 0.0
C1377 C 0.40153 0.23472 0.79789 0.0
C1378 C 0.40901 0.24493 0.78246 0.0
C1379 C 0.42389 0.23705 0.77183 0.0
C1380 C 0.43122 0.21886 0.77638 0.0
C1381 C 0.42372 0.20854 0.7916 0.0
C1382 C 0.40895 0.21644 0.80238 0.0
C1383 C 0.31691 0.27814 0.77938 0.0
C1384 C 0.30297 0.26348 0.77822 0.0
C1385 C 0.33288 0.27574 0.79091 0.0
C1386 C 0.33517 0.25851 0.80101 0.0
C1387 C 0.32099 0.24413 0.8003 0.0
C1388 C 0.30482 0.24673 0.7892 0.0
C1389 C 0.35318 0.25472 0.81091 0.0
C1390 C 0.36842 0.24695 0.80067 0.0
C1391 C 0.35543 0.25901 0.83014 0.0
C1392 C 0.33981 0.26786 0.84113 0.0
C1393 C 0.32283 0.25751 0.8445 0.0
C1394 C 0.3076 0.26638 0.85373 0.0
C1395 C 0.30937 0.28544 0.86017 0.0
C1396 C 0.32643 0.29568 0.85732 0.0
C1397 C 0.34162 0.28695 0.8478 0.0
H1398 H 0.29753 0.29227 0.86736 0.0
H1399 H 0.44271 0.21275 0.7681 0.0
H1400 H 0.96961 0.81316 0.37417 0.0
H1401 H 0.96857 0.845 0.38918 0.0
H1402 H 0.02046 0.83154 0.41955 0.0
H1403 H 0.01964 0.79886 0.40653 0.0
H1404 H 0.00186 0.84687 0.44199 0.0
H1405 H 0.01438 0.86775 0.38016 0.0
H1406 H 0.01099 0.8703 0.34576 0.0
H1407 H 0.95474 0.89398 0.35256 0.0
H1408 H 0.95768 0.89131 0.38699 0.0
H1409 H 0.01511 0.94505 0.46944 0.0
H1410 H 0.01691 0.91781 0.44744 0.0
H1411 H 0.9559 0.90947 0.45183 0.0
H1412 H 0.95418 0.93629 0.47475 0.0
H1413 H 0.98093 0.90751 0.4113 0.0
H1414 H 0.97104 0.88302 0.47587 0.0
H1415 H 0.97927 0.88154 0.50952 0.0
H1416 H 0.03671 0.86519 0.49549 0.0
H1417 H 0.02895 0.86717 0.46173 0.0
C1418 C 0.98066 0.81716 0.38414 0.0
C1419 C 0.99432 0.80365 0.38976 0.0
C1420 C 0.98035 0.8355 0.39246 0.0
C1421 C 0.99459 0.84104 0.40545 0.0
C1422 C 0.00906 0.82772 0.40991 0.0
C1423 C 0.00869 0.80908 0.40242 0.0
C1424 C 0.99352 0.85988 0.41565 0.0
C1425 C -0.00271 0.85998 0.43505 0.0
C1426 C 0.98797 0.87741 0.40685 0.0
C1427 C 0.9862 0.87919 0.38616 0.0
C1428 C 0.00125 0.8734 0.37432 0.0
C1429 C -0.00059 0.87487 0.35481 0.0
C1430 C 0.98264 0.88226 0.34698 0.0
C1431 C 0.96771 0.88824 0.35864 0.0
C1432 C 0.96946 0.88678 0.37816 0.0
C1433 C 0.00202 0.9377 0.46529 0.0
C1434 C 0.98446 0.94268 0.47351 0.0
C1435 C 0.00309 0.9222 0.45281 0.0
C1436 C 0.98654 0.91178 0.44812 0.0
C1437 C 0.96876 0.91751 0.45535 0.0
C1438 C 0.96776 0.93272 0.46834 0.0
C1439 C 0.9883 0.89371 0.43731 0.0
C1440 C 0.98506 0.89402 0.41791 0.0
C1441 C 0.99485 0.87662 0.44595 0.0
C1442 C -0.00048 0.8757 0.46627 0.0
C1443 C 0.98552 0.87951 0.47994 0.0
C1444 C 0.99009 0.8785 0.49905 0.0
C1445 C 0.00853 0.87339 0.50464 0.0
C1446 C 0.02245 0.86926 0.49115 0.0
C1447 C 0.01799 0.87037 0.47203 0.0
H1448 H 0.01202 0.87255 0.51944 0.0
H1449 H 0.98124 0.88337 0.33187 0.0
H1450 H 0.41956 0.76767 0.61865 0.0
H1451 H 0.39134 0.7722 0.63852 0.0
H1452 H 0.42304 0.75227 0.68664 0.0
H1453 H 0.45139 0.7479 0.66697 0.0
H1454 H 0.38877 0.73298 0.68167 0.0
H1455 H 0.4117 0.79761 0.68523 0.0
H1456 H 0.42342 0.82926 0.67399 0.0
H1457 H 0.37024 0.8387 0.64537 0.0
H1458 H 0.3583 0.80692 0.65617 0.0
H1459 H 0.32384 0.7494 0.75214 0.0
H1460 H 0.35093 0.76132 0.73377 0.0
H1461 H 0.31558 0.76246 0.68418 0.0
H1462 H 0.28846 0.74997 0.70261 0.0
H1463 H 0.35149 0.79338 0.69036 0.0
H1464 H 0.33137 0.72502 0.68476 0.0
H1465 H 0.32041 0.69429 0.69885 0.0
H1466 H 0.37048 0.69303 0.73376 0.0
H1467 H 0.38149 0.72402 0.72015 0.0
C1468 C 0.42059 0.7644 0.63349 0.0
C1469 C 0.43772 0.75733 0.6412 0.0
C1470 C 0.40448 0.76713 0.64484 0.0
C1471 C 0.40513 0.76266 0.66406 0.0
C1472 C 0.42227 0.75587 0.67185 0.0
C1473 C 0.43846 0.7534 0.66058 0.0
C1474 C 0.38752 0.76353 0.67568 0.0
C1475 C 0.38077 0.74625 0.68365 0.0
C1476 C 0.37693 0.7808 0.67815 0.0
C1477 C 0.38418 0.79975 0.67131 0.0
C1478 C 0.40258 0.8063 0.67633 0.0
C1479 C 0.40926 0.8243 0.67009 0.0
C1480 C 0.3976 0.83596 0.65893 0.0
C1481 C 0.37926 0.82963 0.65399 0.0
C1482 C 0.37253 0.81163 0.66017 0.0
C1483 C 0.32157 0.75326 0.73756 0.0
C1484 C 0.30404 0.74911 0.72878 0.0
C1485 C 0.33707 0.76002 0.72707 0.0
C1486 C 0.33526 0.76266 0.70763 0.0
C1487 C 0.31717 0.76071 0.69922 0.0
C1488 C 0.30161 0.75379 0.70976 0.0
C1489 C 0.35278 0.76281 0.69594 0.0
C1490 C 0.35952 0.78018 0.68813 0.0
C1491 C 0.36355 0.74568 0.69366 0.0
C1492 C 0.3571 0.72694 0.70164 0.0
C1493 C 0.33992 0.71829 0.6956 0.0
C1494 C 0.33372 0.70082 0.70347 0.0
C1495 C 0.34471 0.69174 0.71724 0.0
C1496 C 0.36195 0.7001 0.72313 0.0
C1497 C 0.36817 0.71762 0.71535 0.0
H1498 H 0.3399 0.6782 0.72331 0.0
H1499 H 0.40274 0.84993 0.65419 0.0
H1500 H 0.48446 0.18395 0.87983 0.0
H1501 H 0.4866 0.15204 0.89507 0.0
H1502 H 0.52255 0.17691 0.93826 0.0
H1503 H 0.52083 0.20833 0.92284 0.0
H1504 H 0.5333 0.14065 0.93029 0.0
H1505 H 0.47156 0.1743 0.94158 0.0
H1506 H 0.44083 0.18752 0.93044 0.0
H1507 H 0.42621 0.13236 0.90617 0.0
H1508 H 0.45701 0.11901 0.91684 0.0
H1509 H 0.52561 0.0777 0.00498 0.0
H1510 H 0.5216 0.10842 0.98831 0.0
H1511 H 0.47779 0.08205 0.9538 0.0
H1512 H 0.4803 0.05228 0.97183 0.0
H1513 H 0.47089 0.11762 0.95493 0.0
H1514 H 0.52837 0.0818 0.94275 0.0
H1515 H 0.5586 0.06572 0.95113 0.0
H1516 H 0.58136 0.11975 0.97146 0.0
H1517 H 0.55115 0.13609 0.96344 0.0
C1518 C 0.4934 0.18229 0.89215 0.0
C1519 C 0.50249 0.19843 0.90027 0.0
C1520 C 0.49442 0.1642 0.90098 0.0
C1521 C 0.50437 0.16224 0.91805 0.0
C1522 C 0.5147 0.17809 0.92518 0.0
C1523 C 0.51371 0.19604 0.9164 0.0
C1524 C 0.50279 0.14452 0.92966 0.0
C1525 C 0.51965 0.13553 0.93563 0.0
C1526 C 0.48496 0.1375 0.93624 0.0
C1527 C 0.46654 0.14569 0.92994 0.0
C1528 C 0.4618 0.16505 0.9338 0.0
C1529 C 0.44439 0.17257 0.92755 0.0
C1530 C 0.43158 0.16079 0.91759 0.0
C1531 C 0.43613 0.14147 0.91387 0.0
C1532 C 0.45354 0.13393 0.92001 0.0
C1533 C 0.51435 0.07896 0.99461 0.0
C1534 C 0.50319 0.06279 0.98971 0.0
C1535 C 0.51233 0.09633 0.98478 0.0
C1536 C 0.49996 0.09732 0.96922 0.0
C1537 C 0.48746 0.08174 0.96566 0.0
C1538 C 0.48884 0.0647 0.97606 0.0
C1539 C 0.50137 0.11351 0.95554 0.0
C1540 C 0.48452 0.12232 0.94928 0.0
C1541 C 0.51917 0.11984 0.94811 0.0
C1542 C 0.53746 0.11012 0.95263 0.0
C1543 C 0.5398 0.09022 0.94906 0.0
C1544 C 0.55693 0.08107 0.95376 0.0
C1545 C 0.57188 0.0917 0.96185 0.0
C1546 C 0.56976 0.11153 0.96521 0.0
C1547 C 0.55265 0.12074 0.96058 0.0
H1548 H 0.58512 0.08458 0.96549 0.0
H1549 H 0.41811 0.16664 0.91277 0.0
H1550 H 0.03888 0.23039 0.17241 0.0
H1551 H 0.06954 0.22896 0.18884 0.0
H1552 H 0.0927 0.27183 0.15084 0.0
H1553 H 0.06243 0.27178 0.13338 0.0
H1554 H 0.11861 0.24815 0.1566 0.0
H1555 H 0.07599 0.28016 0.20056 0.0
H1556 H 0.04682 0.28268 0.21994 0.0
H1557 H 0.06231 0.23101 0.24965 0.0
H1558 H 0.09146 0.22808 0.23031 0.0
H1559 H 0.19489 0.2848 0.20766 0.0
H1560 H 0.16214 0.28172 0.19637 0.0
H1561 H 0.1558 0.2278 0.22624 0.0
H1562 H 0.18891 0.23082 0.23778 0.0
H1563 H 0.12182 0.2533 0.22612 0.0
H1564 H 0.16591 0.2233 0.18336 0.0
H1565 H 0.19566 0.22227 0.16477 0.0
H1566 H 0.17751 0.27187 0.13327 0.0
H1567 H 0.14777 0.27338 0.15189 0.0
C1568 C 0.05056 0.23953 0.16766 0.0
C1569 C 0.04833 0.25138 0.15184 0.0
C1570 C 0.06807 0.23884 0.17715 0.0
C1571 C 0.08347 0.25072 0.17156 0.0
C1572 C 0.08114 0.26254 0.15559 0.0
C1573 C 0.06383 0.26265 0.14566 0.0
C1574 C 0.10204 0.25071 0.18207 0.0
C1575 C 0.11917 0.24951 0.17178 0.0
C1576 C 0.10308 0.2518 0.20201 0.0
C1577 C 0.0858 0.25383 0.2139 0.0
C1578 C 0.07313 0.26932 0.2112 0.0
C1579 C 0.05661 0.27081 0.22216 0.0
C1580 C 0.05269 0.25699 0.23598 0.0
C1581 C 0.06535 0.24169 0.23893 0.0
C1582 C 0.08188 0.24012 0.22799 0.0
C1583 C 0.18648 0.27242 0.21213 0.0
C1584 C 0.19459 0.25793 0.22344 0.0
C1585 C 0.16774 0.27069 0.20565 0.0
C1586 C 0.15666 0.25438 0.21019 0.0
C1587 C 0.16416 0.24049 0.22255 0.0
C1588 C 0.18304 0.24225 0.22915 0.0
C1589 C 0.13803 0.25133 0.20053 0.0
C1590 C 0.12104 0.25186 0.21095 0.0
C1591 C 0.13707 0.24977 0.18072 0.0
C1592 C 0.15465 0.2485 0.16907 0.0
C1593 C 0.16829 0.23403 0.17251 0.0
C1594 C 0.18516 0.23336 0.16198 0.0
C1595 C 0.18848 0.247 0.14785 0.0
C1596 C 0.17491 0.2613 0.1442 0.0
C1597 C 0.15803 0.26205 0.15472 0.0
H1598 H 0.20156 0.24648 0.13972 0.0
H1599 H 0.03987 0.25815 0.24443 0.0
H1600 H 0.07048 0.0054 0.21759 0.0
H1601 H 0.05315 0.00707 0.18791 0.0
H1602 H 0.10235 0.98414 0.15884 0.0
H1603 H 0.12026 0.98408 0.18851 0.0
H1604 H 0.088 0.0078 0.13699 0.0
H1605 H 0.05936 0.95621 0.1716 0.0
H1606 H 0.04405 0.94027 0.19874 0.0
H1607 H -0.00324 0.97954 0.19521 0.0
H1608 H 0.01192 -0.00413 0.16817 0.0
H1609 H 0.03351 0.95604 0.06671 0.0
H1610 H 0.04537 0.96171 0.09838 0.0
H1611 H 0.02257 0.01955 0.09743 0.0
H1612 H 0.01114 0.01431 0.06505 0.0
H1613 H 0.02195 0.98132 0.13383 0.0
H1614 H 0.05587 0.03197 0.0956 0.0
H1615 H 0.07193 0.03976 0.06569 0.0
H1616 H 0.11177 0.99359 0.07457 0.0
H1617 H 0.09532 0.98491 0.10412 0.0
C1618 C 0.07756 0.00063 0.20486 0.0
C1619 C 0.09661 0.99428 0.20539 0.0
C1620 C 0.0676 0.0015 0.18784 0.0
C1621 C 0.07612 -0.0048 0.171 0.0
C1622 C 0.0953 0.98904 0.17153 0.0
C1623 C 0.10552 0.98884 0.18852 0.0
C1624 C 0.065 -0.00514 0.15298 0.0
C1625 C 0.07353 0.00208 0.13648 0.0
C1626 C 0.04609 0.98725 0.15189 0.0
C1627 C 0.03685 0.97736 0.168 0.0
C1628 C 0.04574 0.9615 0.17668 0.0
C1629 C 0.03709 0.9524 0.19204 0.0
C1630 C 0.01946 0.95892 0.19872 0.0
C1631 C 0.01042 0.97452 0.19003 0.0
C1632 C 0.01903 0.98369 0.17468 0.0
C1633 C 0.03072 0.96994 0.07322 0.0
C1634 C 0.02155 0.98481 0.06317 0.0
C1635 C 0.03755 0.97312 0.09137 0.0
C1636 C 0.03521 0.99114 0.10006 0.0
C1637 C 0.02477 0.00561 0.09078 0.0
C1638 C 0.01807 0.00253 0.07238 0.0
C1639 C 0.0448 0.99472 0.11834 0.0
C1640 C 0.03616 0.98766 0.13472 0.0
C1641 C 0.06379 0.00183 0.11918 0.0
C1642 C 0.0742 0.00764 0.10192 0.0
C1643 C 0.06792 0.02335 0.09107 0.0
C1644 C 0.07711 0.02795 0.07419 0.0
C1645 C 0.0929 0.01724 0.06824 0.0
C1646 C 0.09952 0.00188 0.07918 0.0
C1647 C 0.09023 -0.00293 0.09596 0.0
H1648 H 0.09999 0.02084 0.05517 0.0
H1649 H 0.01279 0.95186 0.21062 0.0
H1650 H 0.24825 0.8313 0.453 0.0
H1651 H 0.24847 0.81251 0.42386 0.0
H1652 H 0.25049 0.86531 0.39163 0.0
H1653 H 0.25004 0.88426 0.4206 0.0
H1654 H 0.22677 0.83795 0.3756 0.0
H1655 H 0.29098 0.84133 0.40038 0.0
H1656 H 0.31565 0.83748 0.42484 0.0
H1657 H 0.30349 0.77651 0.42765 0.0
H1658 H 0.27855 0.78004 0.4034 0.0
H1659 H 0.25619 0.7906 0.29081 0.0
H1660 H 0.25677 0.81304 0.31761 0.0
H1661 H 0.25632 0.76458 0.35577 0.0
H1662 H 0.2556 0.74227 0.32942 0.0
H1663 H 0.28051 0.792 0.36754 0.0
H1664 H 0.21615 0.78758 0.34481 0.0
H1665 H 0.1901 0.79001 0.32162 0.0
H1666 H 0.20045 0.85108 0.31638 0.0
H1667 H 0.22714 0.84893 0.339 0.0
C1668 C 0.24845 0.83896 0.43973 0.0
C1669 C 0.24931 0.85932 0.4392 0.0
C1670 C 0.24866 0.82818 0.42309 0.0
C1671 C 0.24984 0.83754 0.40561 0.0
C1672 C 0.24967 0.85782 0.40498 0.0
C1673 C 0.24945 0.86862 0.42159 0.0
C1674 C 0.25225 0.8262 0.38807 0.0
C1675 C 0.23868 0.82812 0.37367 0.0
C1676 C 0.26762 0.81316 0.38576 0.0
C1677 C 0.28279 0.81098 0.40018 0.0
C1678 C 0.29349 0.82712 0.4063 0.0
C1679 C 0.30753 0.825 0.42012 0.0
C1680 C 0.31111 0.80677 0.42782 0.0
C1681 C 0.30069 0.79062 0.42168 0.0
C1682 C 0.28662 0.79268 0.40789 0.0
C1683 C 0.25626 0.78476 0.3049 0.0
C1684 C 0.25539 0.76464 0.30791 0.0
C1685 C 0.25662 0.79758 0.32018 0.0
C1686 C 0.25631 0.79044 0.33867 0.0
C1687 C 0.25651 0.7704 0.34164 0.0
C1688 C 0.25602 0.75766 0.32648 0.0
C1689 C 0.25493 0.80357 0.3551 0.0
C1690 C 0.26873 0.802 0.36932 0.0
C1691 C 0.23963 0.81673 0.35732 0.0
C1692 C 0.22384 0.81804 0.34343 0.0
C1693 C 0.21309 0.80149 0.3385 0.0
C1694 C 0.19822 0.80282 0.32545 0.0
C1695 C 0.1937 0.82068 0.31747 0.0
C1696 C 0.2041 0.83724 0.32248 0.0
C1697 C 0.21913 0.83597 0.33537 0.0
H1698 H 0.18214 0.8217 0.30742 0.0
H1699 H 0.32198 0.80515 0.43852 0.0
H1700 H 0.43203 0.01423 0.71383 0.0
H1701 H 0.44862 0.01596 0.6836 0.0
H1702 H 0.39724 -0.00313 0.65536 0.0
H1703 H 0.38069 0.99478 0.68552 0.0
H1704 H 0.42742 0.97678 0.64383 0.0
H1705 H 0.41283 0.04424 0.65353 0.0
H1706 H 0.41302 0.07531 0.6707 0.0
H1707 H 0.47443 0.07605 0.66998 0.0
H1708 H 0.4746 0.04483 0.653 0.0
H1709 H 0.43757 0.00946 0.55005 0.0
H1710 H 0.42878 0.00503 0.58296 0.0
H1711 H 0.48807 0.00988 0.59905 0.0
H1712 H 0.49715 0.01371 0.56576 0.0
H1713 H 0.45931 0.03555 0.61855 0.0
H1714 H 0.47271 0.97006 0.60371 0.0
H1715 H 0.47181 0.93872 0.58732 0.0
H1716 H 0.41165 0.93358 0.59818 0.0
H1717 H 0.41191 0.96542 0.61386 0.0
C1718 C 0.42422 0.01059 0.70116 0.0
C1719 C 0.40505 0.00435 0.70205 0.0
C1720 C 0.43371 0.01163 0.68389 0.0
C1721 C 0.42415 0.00661 0.66722 0.0
C1722 C 0.40491 0.00074 0.66807 0.0
C1723 C 0.39544 -0.00036 0.68531 0.0
C1724 C 0.43426 0.00675 0.6489 0.0
C1725 C 0.4342 0.98968 0.63818 0.0
C1726 C 0.44381 0.02338 0.64195 0.0
C1727 C 0.44373 0.04209 0.65221 0.0
C1728 C 0.42638 0.05094 0.65719 0.0
C1729 C 0.42642 0.0686 0.66685 0.0
C1730 C 0.44373 0.07762 0.67149 0.0
C1731 C 0.46104 0.06902 0.66642 0.0
C1732 C 0.46107 0.05136 0.65677 0.0
C1733 C 0.44877 0.0096 0.56058 0.0
C1734 C 0.46803 0.01221 0.55544 0.0
C1735 C 0.44373 0.0069 0.57933 0.0
C1736 C 0.45778 0.00709 0.59335 0.0
C1737 C 0.47707 0.00965 0.58834 0.0
C1738 C 0.48221 0.01185 0.56942 0.0
C1739 C 0.45185 0.00574 0.61323 0.0
C1740 C 0.4527 0.02258 0.62427 0.0
C1741 C 0.44281 0.98893 0.62038 0.0
C1742 C 0.4423 0.97036 0.60977 0.0
C1743 C 0.45917 0.96254 0.6022 0.0
C1744 C 0.45877 0.94463 0.59301 0.0
C1745 C 0.44164 0.93423 0.59149 0.0
C1746 C 0.42486 0.94176 0.59915 0.0
C1747 C 0.42511 0.95979 0.60812 0.0
H1748 H 0.44136 0.9203 0.5845 0.0
H1749 H 0.44373 0.09129 0.67896 0.0
H1750 H 0.23613 0.16624 0.94935 0.0
H1751 H 0.23858 0.18402 0.91961 0.0
H1752 H 0.28669 0.14874 0.90348 0.0
H1753 H 0.28343 0.13025 0.93257 0.0
H1754 H 0.26071 0.20529 0.90017 0.0
H1755 H 0.28601 0.13668 0.85967 0.0
H1756 H 0.28241 0.10117 0.8624 0.0
H1757 H 0.22962 0.10855 0.89237 0.0
H1758 H 0.23283 0.14403 0.88968 0.0
H1759 H 0.26462 0.24113 0.80711 0.0
H1760 H 0.27665 0.22522 0.83567 0.0
H1761 H 0.23604 0.17862 0.82708 0.0
H1762 H 0.22533 0.1937 0.79829 0.0
H1763 H 0.26209 0.16368 0.84329 0.0
H1764 H 0.22925 0.2231 0.85312 0.0
H1765 H 0.22237 0.25806 0.85296 0.0
H1766 H 0.27225 0.26899 0.88659 0.0
H1767 H 0.27995 0.23418 0.88622 0.0
C1768 C 0.24741 0.16256 0.93955 0.0
C1769 C 0.25947 0.14679 0.94311 0.0
C1770 C 0.24883 0.17272 0.92256 0.0
C1771 C 0.26255 0.16746 0.909 0.0
C1772 C 0.27562 0.15274 0.91338 0.0
C1773 C 0.27385 0.14226 0.93007 0.0
C1774 C 0.26217 0.1761 0.88977 0.0
C1775 C 0.26115 0.19627 0.88768 0.0
C1776 C 0.26199 0.16431 0.87345 0.0
C1777 C 0.25978 0.14297 0.87462 0.0
C1778 C 0.2736 0.13069 0.86675 0.0
C1779 C 0.27164 0.11058 0.86832 0.0
C1780 C 0.25583 0.10262 0.8776 0.0
C1781 C 0.24189 0.11473 0.88525 0.0
C1782 C 0.24379 0.13483 0.88372 0.0
C1783 C 0.25924 0.2269 0.81079 0.0
C1784 C 0.24434 0.21841 0.80032 0.0
C1785 C 0.26573 0.21802 0.82739 0.0
C1786 C 0.25692 0.20089 0.83401 0.0
C1787 C 0.24321 0.19174 0.82253 0.0
C1788 C 0.23712 0.20034 0.80589 0.0
C1789 C 0.2603 0.19313 0.8534 0.0
C1790 C 0.26198 0.17295 0.85562 0.0
C1791 C 0.25955 0.20493 0.86983 0.0
C1792 C 0.25545 0.22602 0.86923 0.0
C1793 C 0.239 0.23298 0.86013 0.0
C1794 C 0.23494 0.25279 0.86015 0.0
C1795 C 0.24695 0.26576 0.86963 0.0
C1796 C 0.26301 0.25894 0.87915 0.0
C1797 C 0.26732 0.23919 0.87891 0.0
H1798 H 0.24374 0.28108 0.86971 0.0
H1799 H 0.25436 0.08706 0.87884 0.0
H1800 H 0.13317 -0.0049 0.33228 0.0
H1801 H 0.11402 0.99094 0.3607 0.0
H1802 H 0.06244 0.99189 0.32752 0.0
H1803 H 0.08149 -0.00385 0.29895 0.0
H1804 H 0.05919 0.01479 0.35764 0.0
H1805 H 0.07847 0.94989 0.34645 0.0
H1806 H 0.1007 0.92305 0.34019 0.0
H1807 H 0.12913 0.93401 0.39267 0.0
H1808 H 0.10726 0.96115 0.39911 0.0
H1809 H -0.00234 0.9945 0.43081 0.0
H1810 H 0.01564 0.9848 0.40289 0.0
H1811 H 0.06841 0.99166 0.43356 0.0
H1812 H 0.05031 0.00121 0.46164 0.0
H1813 H 0.06995 0.96248 0.40417 0.0
H1814 H 0.0519 0.02947 0.41327 0.0
H1815 H 0.02894 0.05574 0.41934 0.0
H1816 H -0.00252 0.03987 0.36976 0.0
H1817 H 0.02009 0.01326 0.3636 0.0
C1818 C 0.11775 0.99439 0.33095 0.0
C1819 C 0.10893 -0.00402 0.31322 0.0
C1820 C 0.10681 0.99187 0.34726 0.0
C1821 C 0.08677 0.99085 0.34628 0.0
C1822 C 0.07789 0.99254 0.32865 0.0
C1823 C 0.08882 -0.00503 0.3123 0.0
C1824 C 0.07508 0.98892 0.36374 0.0
C1825 C 0.06135 0.00313 0.36761 0.0
C1826 C 0.07808 0.97393 0.37702 0.0
C1827 C 0.09134 0.9577 0.37317 0.0
C1828 C 0.08958 0.94671 0.35658 0.0
C1829 C 0.1021 0.93141 0.35301 0.0
C1830 C 0.11635 0.92686 0.366 0.0
C1831 C 0.1181 0.93758 0.3826 0.0
C1832 C 0.10564 0.95291 0.38622 0.0
C1833 C 0.01302 0.99278 0.43192 0.0
C1834 C 0.0226 -0.00165 0.44842 0.0
C1835 C 0.02331 0.98747 0.41587 0.0
C1836 C 0.0434 0.98792 0.41601 0.0
C1837 C 0.05293 0.99124 0.43312 0.0
C1838 C 0.04258 -0.00348 0.44923 0.0
C1839 C 0.05417 0.98833 0.39794 0.0
C1840 C 0.06774 0.97397 0.39405 0.0
C1841 C 0.05102 0.00313 0.38453 0.0
C1842 C 0.03755 0.01925 0.3881 0.0
C1843 C 0.04 0.03149 0.40375 0.0
C1844 C 0.02706 0.04645 0.4072 0.0
C1845 C 0.01173 0.04944 0.39497 0.0
C1846 C 0.00934 0.03751 0.37925 0.0
C1847 C 0.02221 0.02248 0.37577 0.0
H1848 H 0.00173 0.06104 0.39766 0.0
H1849 H 0.12602 0.915 0.36322 0.0
H1850 H 0.27135 0.86452 0.561 0.0
H1851 H 0.26972 0.84667 0.59078 0.0
H1852 H 0.22535 0.80997 0.56798 0.0
H1853 H 0.2273 0.8273 0.53797 0.0
H1854 H 0.2227 0.83176 0.60948 0.0
H1855 H 0.25751 0.78675 0.56777 0.0
H1856 H 0.28377 0.77978 0.54565 0.0
H1857 H 0.32489 0.79822 0.58689 0.0
H1858 H 0.29881 0.80558 0.60915 0.0
H1859 H 0.21016 0.76234 0.67857 0.0
H1860 H 0.21424 0.77558 0.64696 0.0
H1861 H 0.27316 0.78928 0.65956 0.0
H1862 H 0.26911 0.77574 0.6911 0.0
H1863 H 0.26981 0.78013 0.62331 0.0
H1864 H 0.23918 0.82291 0.66557 0.0
H1865 H 0.21573 0.83358 0.68925 0.0
H1866 H 0.1701 0.82469 0.64972 0.0
H1867 H 0.19328 0.81364 0.62588 0.0
C1868 C 0.26117 0.85273 0.56238 0.0
C1869 C 0.24947 0.84726 0.54717 0.0
C1870 C 0.2603 0.84254 0.57935 0.0
C1871 C 0.24749 0.827 0.58145 0.0
C1872 C 0.23537 0.82191 0.56653 0.0
C1873 C 0.23652 0.8318 0.54943 0.0
C1874 C 0.2469 0.81587 0.59918 0.0
C1875 C 0.23277 0.82026 0.61243 0.0
C1876 C 0.26061 0.80153 0.60328 0.0
C1877 C 0.27623 0.79693 0.59 0.0
C1878 C 0.27214 0.7895 0.57204 0.0
C1879 C 0.28699 0.78544 0.55949 0.0
C1880 C 0.30599 0.78862 0.56483 0.0
C1881 C 0.31017 0.7958 0.58276 0.0
C1882 C 0.29537 0.79991 0.59534 0.0
C1883 C 0.22416 0.76749 0.6743 0.0
C1884 C 0.23942 0.76773 0.68712 0.0
C1885 C 0.22645 0.77524 0.65633 0.0
C1886 C 0.24388 0.78384 0.65103 0.0
C1887 C 0.25957 0.78274 0.66332 0.0
C1888 C 0.25733 0.77476 0.68127 0.0
C1889 C 0.24513 0.7955 0.63352 0.0
C1890 C 0.25954 0.79145 0.62038 0.0
C1891 C 0.23196 0.81057 0.62974 0.0
C1892 C 0.21794 0.81723 0.644 0.0
C1893 C 0.22413 0.82307 0.66197 0.0
C1894 C 0.21089 0.82921 0.67542 0.0
C1895 C 0.19143 0.82976 0.67101 0.0
C1896 C 0.18518 0.82422 0.65313 0.0
C1897 C 0.19836 0.81802 0.63963 0.0
H1898 H 0.1812 0.83453 0.68144 0.0
H1899 H 0.31746 0.78546 0.5551 0.0
H1900 H 0.42085 -0.004 0.79536 0.0
H1901 H 0.43961 -0.00438 0.82428 0.0
H1902 H 0.38783 -0.00117 0.85703 0.0
H1903 H 0.36883 -0.00081 0.82821 0.0
H1904 H 0.41686 0.02527 0.86749 0.0
H1905 H 0.41014 0.95681 0.85327 0.0
H1906 H 0.41324 0.9283 0.83257 0.0
H1907 H 0.47391 0.93765 0.82912 0.0
H1908 H 0.47113 0.9664 0.84956 0.0
H1909 H 0.45742 0.00356 0.95759 0.0
H1910 H 0.43745 0.00376 0.92919 0.0
H1911 H 0.48762 -0.00507 0.89498 0.0
H1912 H 0.5076 -0.00503 0.92314 0.0
H1913 H 0.45897 0.9707 0.88509 0.0
H1914 H 0.46899 0.03715 0.89448 0.0
H1915 H 0.46961 0.0714 0.9043 0.0
H1916 H 0.40849 0.0709 0.90994 0.0
H1917 H 0.4075 0.03647 0.90072 0.0
C1918 C 0.4134 -0.00325 0.80868 0.0
C1919 C 0.3933 -0.00234 0.80945 0.0
C1920 C 0.42417 -0.00365 0.82518 0.0
C1921 C 0.41504 -0.00311 0.84271 0.0
C1922 C 0.39507 -0.00175 0.84358 0.0
C1923 C 0.38426 -0.00149 0.8271 0.0
C1924 C 0.42639 -0.00324 0.8602 0.0
C1925 C 0.42571 0.01317 0.87173 0.0
C1926 C 0.43872 0.98135 0.86487 0.0
C1927 C 0.4404 0.96384 0.85285 0.0
C1928 C 0.42412 0.95286 0.84801 0.0
C1929 C 0.42583 0.93665 0.83633 0.0
C1930 C 0.44376 0.93118 0.82951 0.0
C1931 C 0.46003 0.94189 0.83441 0.0
C1932 C 0.4584 0.95814 0.84605 0.0
C1933 C 0.46412 0.00141 0.94401 0.0
C1934 C 0.48403 -0.00093 0.94256 0.0
C1935 C 0.45275 0.00179 0.92782 0.0
C1936 C 0.46111 -0.00047 0.91 0.0
C1937 C 0.48091 -0.00324 0.90859 0.0
C1938 C 0.49229 -0.00328 0.92469 0.0
C1939 C 0.44919 -0.00079 0.89281 0.0
C1940 C 0.44982 0.9827 0.88125 0.0
C1941 C 0.43729 0.01487 0.88773 0.0
C1942 C 0.4382 0.0341 0.89708 0.0
C1943 C 0.45573 0.04412 0.89841 0.0
C1944 C 0.45612 0.06365 0.90365 0.0
C1945 C 0.43907 0.07337 0.90739 0.0
C1946 C 0.42166 0.06339 0.90677 0.0
C1947 C 0.42119 0.04383 0.90172 0.0
H1948 H 0.43933 0.08862 0.91088 0.0
H1949 H 0.44505 0.91863 0.82046 0.0
H1950 H 0.23047 0.12441 0.06291 0.0
H1951 H 0.23256 0.13658 0.09537 0.0
H1952 H 0.27579 0.17767 0.07837 0.0
H1953 H 0.27316 0.16622 0.04583 0.0
H1954 H 0.27206 0.14269 0.11898 0.0
H1955 H 0.25888 0.20716 0.08605 0.0
H1956 H 0.24007 0.22519 0.06261 0.0
H1957 H 0.18799 0.20353 0.08697 0.0
H1958 H 0.2066 0.18496 0.11024 0.0
H1959 H 0.29124 0.21812 0.18819 0.0
H1960 H 0.28868 0.19766 0.16 0.0
H1961 H 0.22975 0.18529 0.17339 0.0
H1962 H 0.23253 0.20506 0.20203 0.0
H1963 H 0.239 0.20386 0.13561 0.0
H1964 H 0.25248 0.14948 0.17466 0.0
H1965 H 0.27041 0.13156 0.19878 0.0
H1966 H 0.32068 0.13323 0.1641 0.0
H1967 H 0.3031 0.15147 0.13989 0.0
C1968 C 0.2404 0.13605 0.06612 0.0
C1969 C 0.25151 0.1445 0.0518 0.0
C1970 C 0.24158 0.14297 0.08465 0.0
C1971 C 0.25411 0.15823 0.08922 0.0
C1972 C 0.26571 0.16619 0.07507 0.0
C1973 C 0.26422 0.1596 0.0565 0.0
C1974 C 0.25482 0.16614 0.10867 0.0
C1975 C 0.26495 0.15611 0.12261 0.0
C1976 C 0.24523 0.18341 0.11354 0.0
C1977 C 0.23409 0.19439 0.09956 0.0
C1978 C 0.24343 0.20601 0.08619 0.0
C1979 C 0.23282 0.21636 0.07298 0.0
C1980 C 0.21284 0.21541 0.07323 0.0
C1981 C 0.20346 0.20415 0.08672 0.0
C1982 C 0.21403 0.19366 0.09987 0.0
C1983 C 0.27804 0.21028 0.18555 0.0
C1984 C 0.26224 0.21274 0.19749 0.0
C1985 C 0.27652 0.19878 0.16937 0.0
C1986 C 0.25901 0.19004 0.16458 0.0
C1987 C 0.24341 0.19183 0.17689 0.0
C1988 C 0.24509 0.20289 0.19336 0.0
C1989 C 0.25664 0.18067 0.14589 0.0
C1990 C 0.24611 0.1904 0.13206 0.0
C1991 C 0.26595 0.16318 0.14119 0.0
C1992 C 0.27653 0.152 0.15554 0.0
C1993 C 0.2674 0.14618 0.17225 0.0
C1994 C 0.27749 0.13593 0.18592 0.0
C1995 C 0.29669 0.1313 0.18299 0.0
C1996 C 0.30581 0.13685 0.16635 0.0
C1997 C 0.29579 0.14712 0.15264 0.0
H1998 H 0.30449 0.12337 0.1936 0.0
H1999 H 0.20464 0.22348 0.06302 0.0
H2000 H 0.20744 0.07652 0.9972 0.0
H2001 H 0.17546 0.06222 0.99383 0.0
H2002 H 0.1541 0.11683 0.97383 0.0
H2003 H 0.18653 0.1307 0.97571 0.0
H2004 H 0.13541 0.09875 0.00834 0.0
H2005 H 0.14434 0.08994 0.94409 0.0
H2006 H 0.15223 0.08065 0.91157 0.0
H2007 H 0.15386 0.02076 0.92763 0.0
H2008 H 0.14618 0.02973 0.96031 0.0
H2009 H 0.04184 0.0463 0.98889 0.0
H2010 H 0.06858 0.06973 0.98642 0.0
H2011 H 0.10757 0.0262 0.00626 0.0
H2012 H 0.08154 0.00309 0.00877 0.0
H2013 H 0.11338 0.04456 0.96789 0.0
H2014 H 0.09905 0.05928 0.03435 0.0
H2015 H 0.07812 0.0729 0.05896 0.0
H2016 H 0.07845 0.12788 0.03099 0.0
H2017 H 0.09909 0.1146 0.00607 0.0
C2018 C 0.19623 0.08511 0.99097 0.0
C2019 C 0.19979 0.10443 0.98579 0.0
C2020 C 0.17783 0.07704 0.98936 0.0
C2021 C 0.16237 0.08836 0.98333 0.0
C2022 C 0.16583 0.10771 0.97823 0.0
C2023 C 0.18436 0.11561 0.97933 0.0
C2024 C 0.14248 0.08055 0.98468 0.0
C2025 C 0.13054 0.08701 -0.00065 0.0
C2026 C 0.13579 0.06555 0.97278 0.0
C2027 C 0.14506 0.06057 0.95474 0.0
C2028 C 0.14703 0.07486 0.94084 0.0
C2029 C 0.15109 0.06961 0.9223 0.0
C2030 C 0.15351 0.05012 0.91752 0.0
C2031 C 0.15198 0.03585 0.93133 0.0
C2032 C 0.14791 0.04102 0.94989 0.0
C2033 C 0.0561 0.04183 0.99286 0.0
C2034 C 0.05953 0.02263 -0.00143 0.0
C2035 C 0.0713 0.05526 0.9916 0.0
C2036 C 0.09004 0.04967 0.99625 0.0
C2037 C 0.09324 0.03083 0.00266 0.0
C2038 C 0.07827 0.01754 0.00384 0.0
C2039 C 0.10698 0.06197 0.99201 0.0
C2040 C 0.11839 0.05627 0.97687 0.0
C2041 C 0.11272 0.07804 0.00303 0.0
C2042 C 0.10042 0.08586 0.01819 0.0
C2043 C 0.09446 0.0742 0.0333 0.0
C2044 C 0.08266 0.08186 0.04733 0.0
C2045 C 0.0768 0.10115 0.04644 0.0
C2046 C 0.08287 0.1129 0.03161 0.0
C2047 C 0.09464 0.10532 0.01755 0.0
H2048 H 0.06763 0.10702 0.05729 0.0
H2049 H 0.15664 0.0461 0.90314 0.0
H2050 H 0.71399 0.43486 0.00087 0.0
H2051 H 0.68198 0.44742 0.0064 0.0
H2052 H 0.65951 0.38914 0.00786 0.0
H2053 H 0.6919 0.3763 0.00274 0.0
H2054 H 0.64053 0.4149 0.98244 0.0
H2055 H 0.65861 0.41133 0.04644 0.0
H2056 H 0.67924 0.41578 0.0742 0.0
H2057 H 0.67633 0.47753 0.06773 0.0
H2058 H 0.65588 0.47343 0.03972 0.0
H2059 H 0.54849 0.43443 0.01666 0.0
H2060 H 0.58152 0.42393 0.01531 0.0
H2061 H 0.59997 0.48266 0.00513 0.0
H2062 H 0.56642 0.49353 0.00624 0.0
H2063 H 0.62114 0.45753 0.03535 0.0
H2064 H 0.60207 0.4592 0.97 0.0
H2065 H 0.57999 0.45242 0.94377 0.0
H2066 H 0.58354 0.39143 0.95488 0.0
H2067 H 0.60545 0.39787 0.98137 0.0
C2068 C 0.70232 0.42465 0.00265 0.0
C2069 C 0.70543 0.40458 0.00136 0.0
C2070 C 0.68405 0.43188 0.00585 0.0
C2071 C 0.66845 0.41921 0.00755 0.0
C2072 C 0.67146 0.39912 0.00662 0.0
C2073 C 0.6899 0.39182 0.0038 0.0
C2074 C 0.64894 0.42724 0.00903 0.0
C2075 C 0.63622 0.42403 0.99412 0.0
C2076 C 0.64352 0.43947 0.02408 0.0
C2077 C 0.65589 0.44207 0.04085 0.0
C2078 C 0.66253 0.42586 0.05081 0.0
C2079 C 0.67416 0.42831 0.06662 0.0
C2080 C 0.67914 0.44693 0.0727 0.0
C2081 C 0.67248 0.46312 0.06299 0.0
C2082 C 0.66085 0.46074 0.04715 0.0
C2083 C 0.55948 0.44526 0.01426 0.0
C2084 C 0.55479 0.46489 0.01166 0.0
C2085 C 0.57837 0.43917 0.01347 0.0
C2086 C 0.5931 0.45252 0.0102 0.0
C2087 C 0.5887 0.4722 0.00778 0.0
C2088 C 0.56959 0.47834 0.00831 0.0
C2089 C 0.6129 0.44533 0.00868 0.0
C2090 C 0.62561 0.44859 0.02361 0.0
C2091 C 0.61827 0.43293 0.99377 0.0
C2092 C 0.6053 0.42902 0.97772 0.0
C2093 C 0.59804 0.44436 0.96693 0.0
C2094 C 0.58557 0.44058 0.95201 0.0
C2095 C 0.58039 0.42151 0.94769 0.0
C2096 C 0.58761 0.40618 0.95826 0.0
C2097 C 0.60007 0.40989 0.97321 0.0
H2098 H 0.57086 0.41856 0.93611 0.0
H2099 H 0.68813 0.4488 0.08495 0.0
H2100 H 0.83187 0.44961 0.24619 0.0
H2101 H 0.81908 0.41688 0.25086 0.0
H2102 H 0.87273 0.39968 0.27532 0.0
H2103 H 0.88438 0.43308 0.27325 0.0
H2104 H 0.84042 0.3837 0.23447 0.0
H2105 H 0.86382 0.38229 0.29992 0.0
H2106 H 0.86786 0.39231 0.33287 0.0
H2107 H 0.80692 0.39319 0.33998 0.0
H2108 H 0.80257 0.38465 0.30661 0.0
H2109 H 0.79636 0.28865 0.2468 0.0
H2110 H 0.82089 0.31409 0.24925 0.0
H2111 H 0.77854 0.35342 0.27107 0.0
H2112 H 0.75414 0.32817 0.26865 0.0
H2113 H 0.81338 0.35256 0.29135 0.0
H2114 H 0.7903 0.3556 0.226 0.0
H2115 H 0.78567 0.34125 0.19451 0.0
H2116 H 0.84608 0.33135 0.18994 0.0
H2117 H 0.85102 0.34551 0.22148 0.0
C2118 C 0.84039 0.43912 0.25369 0.0
C2119 C 0.85851 0.44416 0.26058 0.0
C2120 C 0.83323 0.42037 0.25614 0.0
C2121 C 0.84449 0.40601 0.26457 0.0
C2122 C 0.86314 0.41073 0.27029 0.0
C2123 C 0.86997 0.42974 0.26864 0.0
C2124 C 0.83738 0.38575 0.26459 0.0
C2125 C 0.83485 0.37673 0.24701 0.0
C2126 C 0.83023 0.37649 0.28096 0.0
C2127 C 0.83292 0.38407 0.30031 0.0
C2128 C 0.8513 0.38581 0.3081 0.0
C2129 C 0.85364 0.39092 0.327 0.0
C2130 C 0.83766 0.39367 0.33846 0.0
C2131 C 0.81932 0.39127 0.33106 0.0
C2132 C 0.81693 0.3865 0.31209 0.0
C2133 C 0.79244 0.3026 0.25242 0.0
C2134 C 0.77342 0.30636 0.25765 0.0
C2135 C 0.80637 0.31714 0.25364 0.0
C2136 C 0.80143 0.33558 0.26026 0.0
C2137 C 0.78258 0.33922 0.26594 0.0
C2138 C 0.76868 0.32479 0.26456 0.0
C2139 C 0.81562 0.35142 0.26132 0.0
C2140 C 0.81942 0.35946 0.27898 0.0
C2141 C 0.82402 0.35967 0.24516 0.0
C2142 C 0.821 0.35139 0.22616 0.0
C2143 C 0.80257 0.35024 0.21832 0.0
C2144 C 0.79989 0.34218 0.20046 0.0
C2145 C 0.81556 0.33534 0.19026 0.0
C2146 C 0.83395 0.33663 0.19787 0.0
C2147 C 0.8367 0.34469 0.21572 0.0
H2148 H 0.81347 0.32909 0.17644 0.0
H2149 H 0.83949 0.39745 0.35312 0.0
H2150 H 0.81666 0.62295 0.48488 0.0
H2151 H 0.84993 0.61138 0.48544 0.0
H2152 H 0.83095 0.55772 0.5104 0.0
H2153 H 0.79788 0.56904 0.50945 0.0
H2154 H 0.86415 0.57147 0.52667 0.0
H2155 H 0.83871 0.55728 0.46623 0.0
H2156 H 0.82303 0.56379 0.43589 0.0
H2157 H 0.86856 0.60278 0.42084 0.0
H2158 H 0.88436 0.59674 0.45129 0.0
H2159 H 0.93133 0.501 0.49954 0.0
H2160 H 0.90353 0.52021 0.49038 0.0
H2161 H 0.93558 0.5727 0.50046 0.0
H2162 H 0.96322 0.55345 0.51022 0.0
H2163 H 0.89772 0.56235 0.46578 0.0
H2164 H 0.9197 0.57618 0.53284 0.0
H2165 H 0.93361 0.56328 0.56211 0.0
H2166 H 0.89147 0.51778 0.56277 0.0
H2167 H 0.87758 0.53025 0.53329 0.0
C2168 C 0.81974 0.6089 0.49089 0.0
C2169 C 0.80481 0.59691 0.49726 0.0
C2170 C 0.83866 0.60223 0.49104 0.0
C2171 C 0.84289 0.58362 0.49783 0.0
C2172 C 0.82804 0.57211 0.5051 0.0
C2173 C 0.80917 0.57859 0.50459 0.0
C2174 C 0.86256 0.57564 0.4967 0.0
C2175 C 0.87151 0.56972 0.51334 0.0
C2176 C 0.87209 0.5729 0.47931 0.0
C2177 C 0.86254 0.57683 0.46115 0.0
C2178 C 0.84524 0.56745 0.45656 0.0
C2179 C 0.83637 0.571 0.43932 0.0
C2180 C 0.84475 0.58376 0.42648 0.0
C2181 C 0.86205 0.59296 0.43084 0.0
C2182 C 0.87096 0.5895 0.44809 0.0
C2183 C 0.9328 0.51661 0.49869 0.0
C2184 C 0.94952 0.52578 0.50517 0.0
C2185 C 0.91686 0.52757 0.49361 0.0
C2186 C 0.91749 0.54784 0.49493 0.0
C2187 C 0.93487 0.55706 0.49929 0.0
C2188 C 0.95076 0.54607 0.5046 0.0
C2189 C 0.89931 0.55875 0.49572 0.0
C2190 C 0.89053 0.56481 0.47907 0.0
C2191 C 0.88966 0.56123 0.51302 0.0
C2192 C 0.89778 0.55399 0.53084 0.0
C2193 C 0.91352 0.56334 0.53918 0.0
C2194 C 0.92139 0.55611 0.55579 0.0
C2195 C 0.91347 0.53968 0.56427 0.0
C2196 C 0.89763 0.53047 0.55617 0.0
C2197 C 0.88977 0.5376 0.53951 0.0
H2198 H 0.91957 0.53411 0.57714 0.0
H2199 H 0.83787 0.58647 0.41313 0.0
H2200 H 0.12634 0.06466 0.27164 0.0
H2201 H 0.1421 0.09598 0.26613 0.0
H2202 H 0.18314 0.06807 0.22986 0.0
H2203 H 0.16766 0.03673 0.23587 0.0
H2204 H 0.20096 0.09305 0.25057 0.0
H2205 H 0.14475 0.09622 0.21269 0.0
H2206 H 0.11024 0.09409 0.2058 0.0
H2207 H 0.09919 0.13948 0.24566 0.0
H2208 H 0.1336 0.14169 0.25299 0.0
H2209 H 0.24224 0.18372 0.23556 0.0
H2210 H 0.22443 0.15512 0.22449 0.0
H2211 H 0.17705 0.17093 0.26019 0.0
H2212 H 0.19445 0.19967 0.27044 0.0
H2213 H 0.16352 0.15097 0.23278 0.0
H2214 H 0.21749 0.14276 0.27561 0.0
H2215 H 0.25162 0.14487 0.28422 0.0
H2216 H 0.2662 0.10894 0.23703 0.0
H2217 H 0.23214 0.1068 0.22806 0.0
C2218 C 0.13881 0.06528 0.26262 0.0
C2219 C 0.14612 0.0483 0.25457 0.0
C2220 C 0.14772 0.08318 0.25931 0.0
C2221 C 0.16367 0.08455 0.24728 0.0
C2222 C 0.17088 0.0675 0.23916 0.0
C2223 C 0.16211 0.04958 0.24268 0.0
C2224 C 0.173 0.10367 0.24345 0.0
C2225 C 0.19277 0.10561 0.24644 0.0
C2226 C 0.16244 0.12021 0.23799 0.0
C2227 C 0.14176 0.11904 0.23346 0.0
C2228 C 0.13495 0.10567 0.22006 0.0
C2229 C 0.1154 0.10446 0.21607 0.0
C2230 C 0.10253 0.11662 0.22531 0.0
C2231 C 0.10918 0.13006 0.23852 0.0
C2232 C 0.1287 0.13132 0.24258 0.0
C2233 C 0.22757 0.18166 0.24008 0.0
C2234 C 0.21962 0.19388 0.25376 0.0
C2235 C 0.21752 0.1651 0.23406 0.0
C2236 C 0.19965 0.16039 0.24208 0.0
C2237 C 0.19084 0.17401 0.2539 0.0
C2238 C 0.20076 0.19058 0.25968 0.0
C2239 C 0.19128 0.14045 0.24075 0.0
C2240 C 0.17171 0.13831 0.23672 0.0
C2241 C 0.20194 0.12374 0.24553 0.0
C2242 C 0.22235 0.12482 0.25105 0.0
C2243 C 0.228 0.13538 0.26705 0.0
C2244 C 0.24732 0.13658 0.27199 0.0
C2245 C 0.26108 0.12708 0.26115 0.0
C2246 C 0.25553 0.11631 0.24539 0.0
C2247 C 0.23623 0.1151 0.24037 0.0
H2248 H 0.27603 0.12803 0.26499 0.0
H2249 H 0.0874 0.11566 0.2222 0.0
H2250 H 0.30122 0.91584 0.50455 0.0
H2251 H 0.33372 0.9282 0.50189 0.0
H2252 H 0.35168 0.87244 0.48074 0.0
H2253 H 0.3184 0.86181 0.47972 0.0
H2254 H 0.36267 0.92216 0.51773 0.0
H2255 H 0.38715 0.86905 0.4671 0.0
H2256 H 0.37933 0.85074 0.43816 0.0
H2257 H 0.35228 0.9011 0.41511 0.0
H2258 H 0.36014 0.91954 0.44406 0.0
H2259 H 0.45867 0.95438 0.51037 0.0
H2260 H 0.43354 0.92951 0.51065 0.0
H2261 H 0.40697 0.95646 0.46273 0.0
H2262 H 0.43198 0.9814 0.4625 0.0
H2263 H 0.4051 0.91521 0.4623 0.0
H2264 H 0.39437 0.97021 0.50304 0.0
H2265 H 0.40211 0.9925 0.5291 0.0
H2266 H 0.39972 0.9452 0.56805 0.0
H2267 H 0.39288 0.92246 0.54214 0.0
C2268 C 0.31194 0.90684 0.49799 0.0
C2269 C 0.30705 0.88862 0.49077 0.0
C2270 C 0.33075 0.91359 0.49707 0.0
C2271 C 0.34552 0.90162 0.49036 0.0
C2272 C 0.34075 0.88267 0.48461 0.0
C2273 C 0.32168 0.87639 0.48443 0.0
C2274 C 0.36569 0.90904 0.49027 0.0
C2275 C 0.37186 0.92048 0.50556 0.0
C2276 C 0.37833 0.90658 0.47482 0.0
C2277 C 0.37326 0.89532 0.4579 0.0
C2278 C 0.37931 0.87606 0.45591 0.0
C2279 C 0.37493 0.86568 0.43955 0.0
C2280 C 0.36499 0.87464 0.42493 0.0
C2281 C 0.3596 0.89404 0.42659 0.0
C2282 C 0.36383 0.90438 0.44301 0.0
C2283 C 0.44792 0.95449 0.49943 0.0
C2284 C 0.44729 0.96967 0.48632 0.0
C2285 C 0.4335 0.94041 0.49972 0.0
C2286 C 0.41839 0.94126 0.48678 0.0
C2287 C 0.41858 0.95554 0.47277 0.0
C2288 C 0.43281 0.96977 0.47267 0.0
C2289 C 0.40116 0.92902 0.48911 0.0
C2290 C 0.39584 0.91655 0.47448 0.0
C2291 C 0.38914 0.93088 0.50498 0.0
C2292 C 0.39353 0.94454 0.52057 0.0
C2293 C 0.39589 0.96448 0.51711 0.0
C2294 C 0.40013 0.97721 0.53187 0.0
C2295 C 0.40166 0.97024 0.55022 0.0
C2296 C 0.39886 0.95054 0.55383 0.0
C2297 C 0.39486 0.93771 0.5391 0.0
H2298 H 0.40486 0.98011 0.56166 0.0
H2299 H 0.36167 0.86663 0.41225 0.0
H2300 H 0.86711 0.55642 0.23428 0.0
H2301 H 0.85272 0.58857 0.22937 0.0
H2302 H 0.81092 0.57632 0.27232 0.0
H2303 H 0.82508 0.54496 0.27766 0.0
H2304 H 0.79638 0.58722 0.23466 0.0
H2305 H 0.84052 0.60519 0.28488 0.0
H2306 H 0.87251 0.60897 0.29904 0.0
H2307 H 0.88972 0.64588 0.25349 0.0
H2308 H 0.85787 0.64207 0.23892 0.0
H2309 H 0.76629 0.68984 0.26498 0.0
H2310 H 0.78062 0.65769 0.26904 0.0
H2311 H 0.79051 0.65401 0.20932 0.0
H2312 H 0.77604 0.68573 0.20509 0.0
H2313 H 0.8219 0.65153 0.25381 0.0
H2314 H 0.78049 0.6192 0.19952 0.0
H2315 H 0.74784 0.61618 0.18651 0.0
H2316 H 0.72528 0.60819 0.24214 0.0
H2317 H 0.75781 0.61147 0.25543 0.0
C2318 C 0.85506 0.56075 0.24285 0.0
C2319 C 0.84713 0.54798 0.25616 0.0
C2320 C 0.84687 0.57903 0.24001 0.0
C2321 C 0.83068 0.58455 0.25038 0.0
C2322 C 0.8233 0.57217 0.2641 0.0
C2323 C 0.83149 0.5542 0.26707 0.0
C2324 C 0.82042 0.60268 0.24656 0.0
C2325 C 0.80207 0.60129 0.23868 0.0
C2326 C 0.82777 0.62094 0.252 0.0
C2327 C 0.84693 0.62311 0.26068 0.0
C2328 C 0.8512 0.61391 0.27776 0.0
C2329 C 0.86928 0.61611 0.2859 0.0
C2330 C 0.88317 0.62759 0.27713 0.0
C2331 C 0.87897 0.63694 0.26024 0.0
C2332 C 0.86091 0.63478 0.25204 0.0
C2333 C 0.77084 0.68183 0.25267 0.0
C2334 C 0.77014 0.69027 0.23473 0.0
C2335 C 0.77922 0.66363 0.25503 0.0
C2336 C 0.78669 0.65369 0.23947 0.0
C2337 C 0.78471 0.66146 0.22145 0.0
C2338 C 0.77641 0.67956 0.21908 0.0
C2339 C 0.79794 0.63594 0.24201 0.0
C2340 C 0.81642 0.63744 0.24959 0.0
C2341 C 0.79082 0.61776 0.2363 0.0
C2342 C 0.77142 0.6156 0.2284 0.0
C2343 C 0.76852 0.61681 0.20892 0.0
C2344 C 0.75007 0.6151 0.20152 0.0
C2345 C 0.73449 0.612 0.21349 0.0
C2346 C 0.73735 0.61063 0.23289 0.0
C2347 C 0.75576 0.61246 0.24036 0.0
H2348 H 0.72022 0.61065 0.20773 0.0
H2349 H 0.89715 0.6293 0.28346 0.0
H2350 H 0.6706 0.44761 0.78686 0.0
H2351 H 0.68058 0.41395 0.7859 0.0
H2352 H 0.64692 0.40471 0.73585 0.0
H2353 H 0.63623 0.43858 0.73713 0.0
H2354 H 0.64477 0.37353 0.75721 0.0
H2355 H 0.696 0.41202 0.734 0.0
H2356 H 0.71955 0.43873 0.73379 0.0
H2357 H 0.74536 0.41638 0.78395 0.0
H2358 H 0.72174 0.38969 0.78465 0.0
H2359 H 0.69903 0.29522 0.72018 0.0
H2360 H 0.67954 0.32259 0.72967 0.0
H2361 H 0.7139 0.32953 0.77965 0.0
H2362 H 0.73401 0.30235 0.76954 0.0
H2363 H 0.71452 0.36127 0.75998 0.0
H2364 H 0.66143 0.32011 0.78003 0.0
H2365 H 0.63719 0.29408 0.77635 0.0
H2366 H 0.61601 0.32115 0.72642 0.0
H2367 H 0.63979 0.34743 0.72984 0.0
C2368 C 0.66523 0.43848 0.77562 0.0
C2369 C 0.65278 0.44595 0.76191 0.0
C2370 C 0.67101 0.41915 0.77508 0.0
C2371 C 0.66491 0.40677 0.76056 0.0
C2372 C 0.65194 0.41395 0.74717 0.0
C2373 C 0.64587 0.43334 0.74787 0.0
C2374 C 0.67269 0.38666 0.75918 0.0
C2375 C 0.66003 0.37084 0.7577 0.0
C2376 C 0.69262 0.38302 0.75992 0.0
C2377 C 0.70696 0.39897 0.75949 0.0
C2378 C 0.7066 0.41288 0.74507 0.0
C2379 C 0.71997 0.428 0.74485 0.0
C2380 C 0.73391 0.42928 0.75887 0.0
C2381 C 0.73453 0.41539 0.77312 0.0
C2382 C 0.72116 0.40025 0.77343 0.0
C2383 C 0.70178 0.30192 0.73372 0.0
C2384 C 0.71784 0.29647 0.74428 0.0
C2385 C 0.69059 0.31768 0.73916 0.0
C2386 C 0.6951 0.32829 0.75545 0.0
C2387 C 0.71006 0.32162 0.76702 0.0
C2388 C 0.72138 0.30585 0.76145 0.0
C2389 C 0.68662 0.34795 0.75839 0.0
C2390 C 0.69923 0.36382 0.75992 0.0
C2391 C 0.6667 0.35159 0.75715 0.0
C2392 C 0.65246 0.33569 0.75515 0.0
C2393 C 0.65167 0.32045 0.76822 0.0
C2394 C 0.63802 0.30568 0.7662 0.0
C2395 C 0.62525 0.3059 0.75112 0.0
C2396 C 0.62594 0.32098 0.73809 0.0
C2397 C 0.63941 0.33587 0.74011 0.0
H2398 H 0.61475 0.29442 0.74959 0.0
H2399 H 0.74425 0.441 0.75868 0.0
H2400 H 0.97949 0.81602 0.87429 0.0
H2401 H 0.97678 0.84786 0.88973 0.0
H2402 H 0.01281 0.82798 0.93483 0.0
H2403 H 0.01533 0.79618 0.91954 0.0
H2404 H 0.96341 0.8575 0.92787 0.0
H2405 H 0.04244 0.86453 0.94486 0.0
H2406 H 0.07365 0.85352 0.93276 0.0
H2407 H 0.05132 0.85306 0.87653 0.0
H2408 H 0.02002 0.86412 0.88833 0.0
H2409 H 0.99138 0.92599 -8e-05 0.0
H2410 H 0.98192 0.89949 0.97894 0.0
H2411 H 0.00321 0.93188 0.9315 0.0
H2412 H 0.01264 0.95841 0.95259 0.0
H2413 H 0.02173 0.89774 0.9362 0.0
H2414 H 0.95585 0.91834 0.93509 0.0
H2415 H 0.92445 0.92719 0.94833 0.0
H2416 H 0.91998 0.87149 0.9747 0.0
H2417 H 0.95146 0.86241 0.96196 0.0
C2418 C 0.98668 0.81849 0.88757 0.0
C2419 C -0.00284 0.80356 0.89604 0.0
C2420 C 0.98508 0.8366 0.89639 0.0
C2421 C 0.99451 0.84027 0.91348 0.0
C2422 C 0.00538 0.82547 0.92169 0.0
C2423 C 0.00673 0.8073 0.91302 0.0
C2424 C 0.99357 0.85973 0.92248 0.0
C2425 C 0.9761 0.86636 0.9297 0.0
C2426 C 0.01011 0.87133 0.92475 0.0
C2427 C 0.02894 0.86508 0.91748 0.0
C2428 C 0.04425 0.86217 0.92991 0.0
C2429 C 0.06193 0.85587 0.92311 0.0
C2430 C 0.06446 0.85257 0.90389 0.0
C2431 C 0.04933 0.85557 0.89142 0.0
C2432 C 0.03161 0.86182 0.89815 0.0
C2433 C 0.99298 0.9279 0.98488 0.0
C2434 C 0.00241 0.94436 0.9778 0.0
C2435 C 0.98771 0.91266 0.97289 0.0
C2436 C 0.99196 0.91358 0.95361 0.0
C2437 C -0.00023 0.93082 0.94631 0.0
C2438 C 0.00493 0.94611 0.95832 0.0
C2439 C 0.99149 0.89563 0.9419 0.0
C2440 C 0.00886 0.88911 0.93428 0.0
C2441 C 0.97486 0.88402 0.93963 0.0
C2442 C 0.95611 0.88973 0.94763 0.0
C2443 C 0.94829 0.90805 0.94388 0.0
C2444 C 0.93044 0.91309 0.95127 0.0
C2445 C 0.92025 0.89988 0.96231 0.0
C2446 C 0.9279 0.88168 0.96611 0.0
C2447 C 0.94573 0.87658 0.95881 0.0
H2448 H 0.9064 0.90367 0.96786 0.0
H2449 H 0.07815 0.8477 0.89865 0.0
H2450 H 0.96026 0.25422 0.66886 0.0
H2451 H 0.9338 0.25732 0.69109 0.0
H2452 H 0.89478 0.23486 0.6493 0.0
H2453 H 0.92097 0.23218 0.62687 0.0
H2454 H 0.88031 0.26544 0.66489 0.0
H2455 H 0.91007 0.20739 0.68702 0.0
H2456 H 0.93663 0.18723 0.69844 0.0
H2457 H 0.94345 0.22459 0.74634 0.0
H2458 H 0.91708 0.24513 0.73505 0.0
H2459 H 0.80811 0.22839 0.73157 0.0
H2460 H 0.8411 0.22476 0.72091 0.0
H2461 H 0.84844 0.28683 0.72223 0.0
H2462 H 0.81533 0.2905 0.73279 0.0
H2463 H 0.87966 0.23672 0.72883 0.0
H2464 H 0.86021 0.29976 0.68205 0.0
H2465 H 0.83125 0.31594 0.67003 0.0
H2466 H 0.80141 0.26139 0.66898 0.0
H2467 H 0.83018 0.24498 0.68103 0.0
C2468 C 0.94606 0.24987 0.66442 0.0
C2469 C 0.94272 0.24301 0.64606 0.0
C2470 C 0.93098 0.25157 0.67718 0.0
C2471 C 0.91236 0.24619 0.67189 0.0
C2472 C 0.90904 0.23916 0.65365 0.0
C2473 C 0.92404 0.23763 0.64084 0.0
C2474 C 0.89612 0.24854 0.68502 0.0
C2475 C 0.88031 0.25922 0.67888 0.0
C2476 C 0.89594 0.24027 0.70324 0.0
C2477 C 0.91174 0.22791 0.71009 0.0
C2478 C 0.91733 0.21139 0.69991 0.0
C2479 C 0.93234 0.19988 0.70637 0.0
C2480 C 0.94176 0.20466 0.72308 0.0
C2481 C 0.93616 0.22093 0.73339 0.0
C2482 C 0.92117 0.2325 0.72697 0.0
C2483 C 0.81705 0.24117 0.73052 0.0
C2484 C 0.80924 0.2597 0.73299 0.0
C2485 C 0.83589 0.23909 0.72437 0.0
C2486 C 0.84707 0.25554 0.72062 0.0
C2487 C 0.83993 0.27398 0.72497 0.0
C2488 C 0.82104 0.27607 0.73092 0.0
C2489 C 0.8642 0.25371 0.70863 0.0
C2490 C 0.88 0.24314 0.71493 0.0
C2491 C 0.86427 0.26155 0.69031 0.0
C2492 C 0.84726 0.27122 0.6824 0.0
C2493 C 0.84749 0.29125 0.6791 0.0
C2494 C 0.83111 0.30046 0.67237 0.0
C2495 C 0.8145 0.2897 0.66874 0.0
C2496 C 0.81426 0.26971 0.67182 0.0
C2497 C 0.83057 0.26047 0.67862 0.0
H2498 H 0.80183 0.29686 0.66355 0.0
H2499 H 0.95337 0.19573 0.72807 0.0
H2500 H 0.51825 0.20805 0.42407 0.0
H2501 H 0.52037 0.17598 0.43841 0.0
H2502 H 0.50137 0.1497 0.38659 0.0
H2503 H 0.49903 0.18178 0.37219 0.0
H2504 H 0.48155 0.136 0.41645 0.0
H2505 H 0.54903 0.1405 0.40062 0.0
H2506 H 0.57983 0.1581 0.39885 0.0
H2507 H 0.5786 0.16734 0.45856 0.0
H2508 H 0.54767 0.14999 0.46056 0.0
H2509 H 0.48799 0.04206 0.44748 0.0
H2510 H 0.49934 0.06949 0.42883 0.0
H2511 H 0.51619 0.0993 0.47958 0.0
H2512 H 0.50479 0.07169 0.49826 0.0
H2513 H 0.53903 0.11033 0.44872 0.0
H2514 H 0.47222 0.10464 0.46462 0.0
H2515 H 0.44108 0.08781 0.46648 0.0
H2516 H 0.43964 0.08269 0.40633 0.0
H2517 H 0.47097 0.09921 0.40415 0.0
C2518 C 0.51472 0.19544 0.41565 0.0
C2519 C 0.50846 0.1975 0.39698 0.0
C2520 C 0.51605 0.17707 0.42384 0.0
C2521 C 0.51123 0.16035 0.41353 0.0
C2522 C 0.50523 0.16236 0.39481 0.0
C2523 C 0.50394 0.18072 0.38659 0.0
C2524 C 0.5113 0.14095 0.42267 0.0
C2525 C 0.49423 0.13022 0.42314 0.0
C2526 C 0.52765 0.13358 0.43186 0.0
C2527 C 0.54624 0.14381 0.43077 0.0
C2528 C 0.55538 0.14629 0.41335 0.0
C2529 C 0.57282 0.15624 0.4123 0.0
C2530 C 0.5812 0.16379 0.42859 0.0
C2531 C 0.57212 0.16145 0.44596 0.0
C2532 C 0.55467 0.15153 0.44706 0.0
C2533 C 0.49514 0.05398 0.45456 0.0
C2534 C 0.49577 0.0547 0.47424 0.0
C2535 C 0.50147 0.06976 0.44391 0.0
C2536 C 0.5083 0.08664 0.45281 0.0
C2537 C 0.51094 0.08648 0.47239 0.0
C2538 C 0.50455 0.07065 0.48306 0.0
C2539 C 0.50929 0.10527 0.44228 0.0
C2540 C 0.52645 0.11594 0.44173 0.0
C2541 C 0.49294 0.11268 0.433 0.0
C2542 C 0.47401 0.10297 0.43423 0.0
C2543 C 0.46532 0.09981 0.4518 0.0
C2544 C 0.44764 0.09033 0.45291 0.0
C2545 C 0.4384 0.08415 0.43653 0.0
C2546 C 0.44682 0.08747 0.419 0.0
C2547 C 0.46454 0.09688 0.41782 0.0
H2548 H 0.42471 0.07682 0.43742 0.0
H2549 H 0.5947 0.17148 0.42776 0.0
H2550 H 0.54472 0.75551 0.17224 0.0
H2551 H 0.577 0.7549 0.18484 0.0
H2552 H 0.5996 0.74546 0.12912 0.0
H2553 H 0.56698 0.74532 0.11642 0.0
H2554 H 0.61593 0.72175 0.15273 0.0
H2555 H 0.60534 0.78993 0.15288 0.0
H2556 H 0.58849 0.82062 0.15889 0.0
H2557 H 0.58983 0.80963 0.21825 0.0
H2558 H 0.60641 0.77874 0.2126 0.0
H2559 H 0.70896 0.74345 0.20049 0.0
H2560 H 0.68249 0.7434 0.17775 0.0
H2561 H 0.64231 0.7343 0.22288 0.0
H2562 H 0.66837 0.7341 0.2455 0.0
H2563 H 0.63923 0.77036 0.19891 0.0
H2564 H 0.64485 0.70002 0.19776 0.0
H2565 H 0.66201 0.66946 0.19198 0.0
H2566 H 0.67071 0.68557 0.13433 0.0
H2567 H 0.65383 0.71638 0.13987 0.0
C2568 C 0.55654 0.75356 0.16259 0.0
C2569 C 0.55332 0.75053 0.14332 0.0
C2570 C 0.57504 0.75332 0.16981 0.0
C2571 C 0.59079 0.7505 0.15789 0.0
C2572 C 0.58767 0.74776 0.13856 0.0
C2573 C 0.56905 0.74775 0.13133 0.0
C2574 C 0.6103 0.74932 0.16598 0.0
C2575 C 0.62121 0.73263 0.16249 0.0
C2576 C 0.61719 0.76341 0.17883 0.0
C2577 C 0.60707 0.78195 0.18228 0.0
C2578 C 0.60192 0.79398 0.1672 0.0
C2579 C 0.59243 0.81143 0.17056 0.0
C2580 C 0.58808 0.81706 0.18894 0.0
C2581 C 0.59321 0.80526 0.20401 0.0
C2582 C 0.60268 0.78779 0.20075 0.0
C2583 C 0.69453 0.74093 0.20547 0.0
C2584 C 0.69072 0.73912 0.22481 0.0
C2585 C 0.67947 0.74092 0.19248 0.0
C2586 C 0.66054 0.739 0.19876 0.0
C2587 C 0.65687 0.73588 0.21785 0.0
C2588 C 0.6718 0.73582 0.23075 0.0
C2589 C 0.64426 0.74259 0.18614 0.0
C2590 C 0.63405 0.75978 0.18878 0.0
C2591 C 0.63809 0.72903 0.17256 0.0
C2592 C 0.64837 0.71063 0.1693 0.0
C2593 C 0.65065 0.69716 0.18392 0.0
C2594 C 0.66026 0.67977 0.18067 0.0
C2595 C 0.66752 0.67562 0.16282 0.0
C2596 C 0.66513 0.68883 0.14817 0.0
C2597 C 0.65554 0.70626 0.15135 0.0
H2598 H 0.67494 0.66213 0.16032 0.0
H2599 H 0.58076 0.83059 0.1915 0.0
H2600 H 0.0071 0.20115 0.57933 0.0
H2601 H 0.01009 0.16868 0.566 0.0
H2602 H 0.98759 0.14435 0.61731 0.0
H2603 H 0.98274 0.17699 0.62981 0.0
H2604 H 0.03377 0.14274 0.58193 0.0
H2605 H 0.97242 0.11373 0.61359 0.0
H2606 H 0.93763 0.1142 0.61948 0.0
H2607 H 0.92747 0.127 0.56132 0.0
H2608 H 0.96229 0.12768 0.55539 0.0
H2609 H 0.00798 0.03497 0.55123 0.0
H2610 H 0.00882 0.06138 0.57419 0.0
H2611 H 0.03129 0.09996 0.53185 0.0
H2612 H 0.0312 0.07369 0.50917 0.0
H2613 H 0.98582 0.0917 0.56776 0.0
H2614 H 0.05141 0.13877 0.54993 0.0
H2615 H 0.08518 0.13462 0.54089 0.0
H2616 H 0.08695 0.08049 0.57044 0.0
H2617 H 0.05322 0.0844 0.57983 0.0
C2618 C 0.00172 0.1889 0.58725 0.0
C2619 C 0.99382 0.19153 0.60516 0.0
C2620 C 0.00369 0.17034 0.57978 0.0
C2621 C -0.00144 0.15402 0.59044 0.0
C2622 C 0.99075 0.15663 0.60843 0.0
C2623 C 0.98826 0.17528 0.61568 0.0
C2624 C 0.004 0.13456 0.58359 0.0
C2625 C 0.02332 0.13143 0.57908 0.0
C2626 C 0.99051 0.11964 0.58025 0.0
C2627 C 0.9699 0.12164 0.58426 0.0
C2628 C 0.96277 0.11739 0.60224 0.0
C2629 C 0.94306 0.11734 0.60556 0.0
C2630 C 0.93035 0.12091 0.59084 0.0
C2631 C 0.93733 0.12448 0.57277 0.0
C2632 C 0.95705 0.12499 0.56948 0.0
C2633 C 0.01384 0.04886 0.54704 0.0
C2634 C 0.0192 0.05236 0.52831 0.0
C2635 C 0.0142 0.06396 0.56014 0.0
C2636 C 0.02 0.08264 0.55469 0.0
C2637 C 0.02701 0.08563 0.53648 0.0
C2638 C 0.02677 0.07059 0.52345 0.0
C2639 C 0.01563 0.09958 0.56664 0.0
C2640 C -0.00353 0.1025 0.5716 0.0
C2641 C 0.02933 0.11412 0.57065 0.0
C2642 C 0.04977 0.11187 0.56556 0.0
C2643 C 0.05905 0.12606 0.55464 0.0
C2644 C 0.07817 0.12372 0.5494 0.0
C2645 C 0.0882 0.10729 0.55507 0.0
C2646 C 0.07914 0.09319 0.56603 0.0
C2647 C 0.06002 0.09544 0.57129 0.0
H2648 H 0.103 0.10549 0.55098 0.0
H2649 H 0.91509 0.12069 0.59339 0.0
H2650 H 0.56426 0.24894 0.37216 0.0
H2651 H 0.59693 0.24277 0.36076 0.0
H2652 H 0.57815 0.25168 0.30377 0.0
H2653 H 0.54593 0.25856 0.31492 0.0
H2654 H 0.60257 0.21619 0.31178 0.0
H2655 H 0.59852 0.2864 0.31895 0.0
H2656 H 0.59262 0.31624 0.33712 0.0
H2657 H 0.63588 0.3 0.37682 0.0
H2658 H 0.64182 0.26988 0.35899 0.0
H2659 H 0.67598 0.24222 0.24909 0.0
H2660 H 0.64907 0.23341 0.26904 0.0
H2661 H 0.68248 0.24765 0.31826 0.0
H2662 H 0.70883 0.25802 0.29793 0.0
H2663 H 0.65251 0.26675 0.32002 0.0
H2664 H 0.66285 0.20118 0.30665 0.0
H2665 H 0.66839 0.17073 0.28954 0.0
H2666 H 0.61464 0.17692 0.26115 0.0
H2667 H 0.60853 0.20719 0.27852 0.0
C2668 C 0.56712 0.24961 0.35721 0.0
C2669 C 0.55247 0.25433 0.34448 0.0
C2670 C 0.58574 0.24601 0.35074 0.0
C2671 C 0.58985 0.24659 0.33141 0.0
C2672 C 0.57521 0.25098 0.31871 0.0
C2673 C 0.55681 0.25505 0.32517 0.0
C2674 C 0.60956 0.24369 0.32425 0.0
C2675 C 0.6136 0.22716 0.31347 0.0
C2676 C 0.624 0.25775 0.32707 0.0
C2677 C 0.62039 0.27577 0.33783 0.0
C2678 C 0.6066 0.28908 0.33169 0.0
C2679 C 0.60329 0.30607 0.34188 0.0
C2680 C 0.61381 0.30998 0.35817 0.0
C2681 C 0.6277 0.29692 0.36424 0.0
C2682 C 0.63104 0.2799 0.3541 0.0
C2683 C 0.67791 0.24244 0.2642 0.0
C2684 C 0.69471 0.25016 0.27203 0.0
C2685 C 0.66244 0.23745 0.27569 0.0
C2686 C 0.66359 0.23978 0.2953 0.0
C2687 C 0.68114 0.2457 0.3032 0.0
C2688 C 0.69646 0.25113 0.29163 0.0
C2689 C 0.6458 0.23924 0.30696 0.0
C2690 C 0.64192 0.2553 0.31856 0.0
C2691 C 0.63158 0.22461 0.30486 0.0
C2692 C 0.6352 0.20647 0.29409 0.0
C2693 C 0.65216 0.19601 0.29687 0.0
C2694 C 0.65543 0.17879 0.28705 0.0
C2695 C 0.64195 0.17193 0.27415 0.0
C2696 C 0.62508 0.18223 0.27117 0.0
C2697 C 0.62165 0.19937 0.28112 0.0
H2698 H 0.64457 0.15863 0.26648 0.0
H2699 H 0.61124 0.32315 0.36603 0.0
H2700 H 0.4725 0.7925 0.07163 0.0
H2701 H 0.47959 0.82322 0.05659 0.0
H2702 H 0.52097 0.83667 0.09964 0.0
H2703 H 0.51406 0.80555 0.11499 0.0
H2704 H 0.49712 0.86868 0.08896 0.0
H2705 H 0.53886 0.82374 0.06102 0.0
H2706 H 0.54857 0.79254 0.04719 0.0
H2707 H 0.51027 0.80143 0.00089 0.0
H2708 H 0.50006 0.83255 0.01462 0.0
H2709 H 0.52534 0.94648 0.02921 0.0
H2710 H 0.53179 0.91509 0.04382 0.0
H2711 H 0.4807 0.89143 0.01855 0.0
H2712 H 0.47355 0.92317 0.00494 0.0
H2713 H 0.51708 0.86523 0.022 0.0
H2714 H 0.47132 0.90684 0.05595 0.0
H2715 H 0.46264 0.93822 0.07015 0.0
H2716 H 0.5121 0.93577 0.10583 0.0
H2717 H 0.52122 0.90448 0.09155 0.0
C2718 C 0.483 0.80196 0.07813 0.0
C2719 C 0.49281 0.79639 0.09451 0.0
C2720 C 0.48708 0.81954 0.06941 0.0
C2721 C 0.50102 0.83205 0.07683 0.0
C2722 C 0.51025 0.82711 0.09365 0.0
C2723 C 0.50626 0.80934 0.10239 0.0
C2724 C 0.50603 0.84992 0.06639 0.0
C2725 C 0.50199 0.86796 0.0745 0.0
C2726 C 0.51234 0.84898 0.04749 0.0
C2727 C 0.51859 0.83043 0.03893 0.0
C2728 C 0.5324 0.81898 0.04795 0.0
C2729 C 0.53801 0.80132 0.04013 0.0
C2730 C 0.53001 0.79498 0.02319 0.0
C2731 C 0.51644 0.80635 0.01402 0.0
C2732 C 0.51075 0.82403 0.02181 0.0
C2733 C 0.51599 0.93432 0.02606 0.0
C2734 C 0.49903 0.93707 0.01585 0.0
C2735 C 0.51965 0.91644 0.03448 0.0
C2736 C 0.50671 0.90101 0.03222 0.0
C2737 C 0.49089 0.90318 0.02031 0.0
C2738 C 0.48687 0.92122 0.01246 0.0
C2739 C 0.50777 0.88381 0.04447 0.0
C2740 C 0.51277 0.86592 0.03663 0.0
C2741 C 0.50273 0.88493 0.0637 0.0
C2742 C 0.49707 0.90349 0.07253 0.0
C2743 C 0.48042 0.91309 0.0667 0.0
C2744 C 0.47541 0.93083 0.07478 0.0
C2745 C 0.48685 0.93902 0.08884 0.0
C2746 C 0.50328 0.92943 0.09491 0.0
C2747 C 0.50838 0.91169 0.08683 0.0
H2748 H 0.48295 0.95276 0.09507 0.0
H2749 H 0.53435 0.78129 0.01716 0.0
H2750 H 0.9643 0.74755 0.82946 0.0
H2751 H 0.93689 0.74619 0.80805 0.0
H2752 H 0.8985 0.75172 0.8552 0.0
H2753 H 0.92561 0.75269 0.87662 0.0
H2754 H 0.8856 0.72502 0.83267 0.0
H2755 H 0.90942 0.79004 0.82483 0.0
H2756 H 0.93333 0.81528 0.81739 0.0
H2757 H 0.93907 0.79245 0.76149 0.0
H2758 H 0.91538 0.76689 0.76869 0.0
H2759 H 0.80051 0.76106 0.79676 0.0
H2760 H 0.83313 0.76387 0.80889 0.0
H2761 H 0.85441 0.73368 0.76014 0.0
H2762 H 0.82142 0.73049 0.74806 0.0
H2763 H 0.87775 0.77045 0.77929 0.0
H2764 H 0.85169 0.70559 0.78841 0.0
H2765 H 0.82586 0.68283 0.79704 0.0
H2766 H 0.82328 0.70786 0.85228 0.0
H2767 H 0.84883 0.73105 0.84383 0.0
C2768 C 0.95002 0.74841 0.83529 0.0
C2769 C 0.94725 0.75018 0.85484 0.0
C2770 C 0.93434 0.74775 0.82299 0.0
C2771 C 0.91556 0.74903 0.82994 0.0
C2772 C 0.9128 0.75066 0.84944 0.0
C2773 C 0.9284 0.75122 0.86171 0.0
C2774 C 0.89863 0.74841 0.81716 0.0
C2775 C 0.88399 0.73499 0.82102 0.0
C2776 C 0.89649 0.76115 0.80168 0.0
C2777 C 0.91082 0.77641 0.79738 0.0
C2778 C 0.91592 0.79029 0.81101 0.0
C2779 C 0.9294 0.80467 0.80683 0.0
C2780 C 0.93776 0.80543 0.789 0.0
C2781 C 0.93262 0.79182 0.77531 0.0
C2782 C 0.91917 0.77739 0.77943 0.0
C2783 C 0.81224 0.75565 0.7883 0.0
C2784 C 0.80858 0.74576 0.77141 0.0
C2785 C 0.83083 0.7572 0.79527 0.0
C2786 C 0.84615 0.74894 0.78545 0.0
C2787 C 0.84276 0.74027 0.76784 0.0
C2788 C 0.82399 0.73852 0.76092 0.0
C2789 C 0.86492 0.74722 0.79503 0.0
C2790 C 0.87973 0.76023 0.79068 0.0
C2791 C 0.86722 0.73426 0.81022 0.0
C2792 C 0.85202 0.72019 0.81541 0.0
C2793 C 0.84547 0.70638 0.80232 0.0
C2794 C 0.8309 0.69338 0.80719 0.0
C2795 C 0.82289 0.69393 0.82518 0.0
C2796 C 0.82947 0.70746 0.83835 0.0
C2797 C 0.844 0.72054 0.83352 0.0
H2798 H 0.81163 0.68384 0.82893 0.0
H2799 H 0.94818 0.81659 0.78578 0.0
H2800 H 0.92645 -0.0032 0.78987 0.0
H2801 H 0.94716 -0.00097 0.81764 0.0
H2802 H 0.89737 -0.00015 0.85341 0.0
H2803 H 0.87672 -0.00208 0.82598 0.0
H2804 H 0.92184 0.0267 0.86432 0.0
H2805 H 0.92577 0.95891 0.8474 0.0
H2806 H 0.93287 0.93148 0.82628 0.0
H2807 H 0.99145 0.95009 0.82244 0.0
H2808 H 0.98462 0.97779 0.84335 0.0
H2809 H 0.94588 -0.00025 0.95358 0.0
H2810 H 0.9356 -0.00341 0.92104 0.0
H2811 H 0.99342 0.00685 0.90228 0.0
H2812 H 0.00398 0.00971 0.93542 0.0
H2813 H 0.97083 0.97761 0.88017 0.0
H2814 H 0.96664 0.04368 0.90084 0.0
H2815 H 0.95852 0.06953 0.9234 0.0
H2816 H 0.89928 0.05301 0.92079 0.0
H2817 H 0.90709 0.02686 0.89842 0.0
C2818 C 0.9199 -0.00249 0.80365 0.0
C2819 C 0.89983 -0.00276 0.80557 0.0
C2820 C 0.9318 -0.00133 0.81955 0.0
C2821 C 0.92388 -0.0005 0.83771 0.0
C2822 C 0.90389 -0.0007 0.8396 0.0
C2823 C 0.89205 -0.00183 0.82381 0.0
C2824 C 0.93611 0.00087 0.85491 0.0
C2825 C 0.93253 0.01593 0.86771 0.0
C2826 C 0.95052 0.98718 0.85925 0.0
C2827 C 0.95463 0.97054 0.84673 0.0
C2828 C 0.94012 0.95724 0.84192 0.0
C2829 C 0.94411 0.94163 0.83002 0.0
C2830 C 0.96259 0.93908 0.82297 0.0
C2831 C 0.97713 0.95211 0.82787 0.0
C2832 C 0.97322 0.96776 0.83975 0.0
C2833 C 0.95651 0.00105 0.94255 0.0
C2834 C 0.97567 0.00525 0.94699 0.0
C2835 C 0.95061 -0.00078 0.92395 0.0
C2836 C 0.96363 0.00184 0.90918 0.0
C2837 C 0.9831 0.00485 0.91347 0.0
C2838 C 0.98913 0.00649 0.93234 0.0
C2839 C 0.95608 0.00311 0.88963 0.0
C2840 C 0.96047 0.9886 0.87647 0.0
C2841 C 0.94229 0.01725 0.8849 0.0
C2842 C 0.93747 0.03328 0.89799 0.0
C2843 C 0.95189 0.04552 0.90513 0.0
C2844 C 0.94735 0.06022 0.91789 0.0
C2845 C 0.9284 0.0629 0.92353 0.0
C2846 C 0.91395 0.05092 0.91639 0.0
C2847 C 0.91842 0.03618 0.90364 0.0
H2848 H 0.92492 0.07428 0.93343 0.0
H2849 H 0.96564 0.92699 0.81377 0.0
H2850 H 0.75395 0.17422 0.5439 0.0
H2851 H 0.75349 0.18605 0.57611 0.0
H2852 H 0.74784 0.12745 0.59646 0.0
H2853 H 0.74754 0.11549 0.56392 0.0
H2854 H 0.72451 0.15052 0.61527 0.0
H2855 H 0.79099 0.15313 0.60011 0.0
H2856 H 0.81937 0.16096 0.58092 0.0
H2857 H 0.80672 0.22161 0.58523 0.0
H2858 H 0.77812 0.21415 0.60421 0.0
H2859 H 0.74706 0.19591 0.70785 0.0
H2860 H 0.74754 0.17379 0.6806 0.0
H2861 H 0.73911 0.22222 0.64345 0.0
H2862 H 0.73822 0.24413 0.67013 0.0
H2863 H 0.77301 0.19836 0.63678 0.0
H2864 H 0.70437 0.19515 0.64731 0.0
H2865 H 0.67549 0.1878 0.66593 0.0
H2866 H 0.69271 0.12838 0.6705 0.0
H2867 H 0.72186 0.13547 0.65211 0.0
C2868 C 0.75278 0.16379 0.5552 0.0
C2869 C 0.75095 0.14389 0.55137 0.0
C2870 C 0.7526 0.17058 0.57366 0.0
C2871 C 0.75105 0.15762 0.58878 0.0
C2872 C 0.74918 0.13771 0.58503 0.0
C2873 C 0.7491 0.13089 0.56645 0.0
C2874 C 0.75092 0.16517 0.60837 0.0
C2875 C 0.73537 0.16062 0.62014 0.0
C2876 C 0.76499 0.17848 0.61474 0.0
C2877 C 0.78236 0.18305 0.60353 0.0
C2878 C 0.79422 0.16813 0.59689 0.0
C2879 C 0.81035 0.17251 0.58606 0.0
C2880 C 0.81484 0.19177 0.58185 0.0
C2881 C 0.80323 0.2067 0.58851 0.0
C2882 C 0.78708 0.2024 0.59934 0.0
C2883 C 0.74487 0.20174 0.6939 0.0
C2884 C 0.74284 0.22183 0.69118 0.0
C2885 C 0.74521 0.18911 0.67838 0.0
C2886 C 0.74356 0.19648 0.66007 0.0
C2887 C 0.74057 0.21631 0.65747 0.0
C2888 C 0.74008 0.22881 0.67281 0.0
C2889 C 0.74637 0.18416 0.64326 0.0
C2890 C 0.76246 0.18784 0.63205 0.0
C2891 C 0.73284 0.17011 0.63746 0.0
C2892 C 0.71543 0.1659 0.64861 0.0
C2893 C 0.70212 0.18058 0.65249 0.0
C2894 C 0.68567 0.17645 0.66295 0.0
C2895 C 0.68231 0.15766 0.66947 0.0
C2896 C 0.69537 0.14294 0.66549 0.0
C2897 C 0.71185 0.14701 0.65505 0.0
H2898 H 0.66956 0.15448 0.67755 0.0
H2899 H 0.82732 0.19512 0.57344 0.0
H2900 H 0.61843 0.99228 0.32671 0.0
H2901 H 0.59585 0.98986 0.35282 0.0
H2902 H 0.55018 0.00905 0.3168 0.0
H2903 H 0.57267 0.01113 0.29032 0.0
H2904 H 0.55636 0.02854 0.35604 0.0
H2905 H 0.54442 0.96794 0.32488 0.0
H2906 H 0.5539 0.93781 0.3088 0.0
H2907 H 0.58391 0.91939 0.35821 0.0
H2908 H 0.57487 0.94956 0.37449 0.0
H2909 H 0.50302 0.00879 0.44079 0.0
H2910 H 0.50997 0.01099 0.40705 0.0
H2911 H 0.55983 0.9753 0.41483 0.0
H2912 H 0.55285 0.97266 0.44804 0.0
H2913 H 0.5421 0.96451 0.38447 0.0
H2914 H 0.5613 0.02615 0.4126 0.0
H2915 H 0.5564 0.05739 0.42879 0.0
H2916 H 0.51638 0.07443 0.38626 0.0
H2917 H 0.52088 0.04317 0.36992 0.0
C2918 C 0.60359 -0.00403 0.32431 0.0
C2919 C 0.5973 0.00184 0.30647 0.0
C2920 C 0.59073 0.99456 0.33921 0.0
C2921 C 0.57143 -0.00076 0.33663 0.0
C2922 C 0.56506 0.00536 0.31896 0.0
C2923 C 0.57788 0.00644 0.30389 0.0
C2924 C 0.55818 -0.00238 0.35268 0.0
C2925 C 0.5527 0.01457 0.36207 0.0
C2926 C 0.55377 0.97938 0.36052 0.0
C2927 C 0.55903 0.96107 0.35087 0.0
C2928 C 0.55315 0.95753 0.33227 0.0
C2929 C 0.55843 0.94043 0.32313 0.0
C2930 C 0.56952 0.9267 0.33247 0.0
C2931 C 0.57532 0.93003 0.35099 0.0
C2932 C 0.57009 0.94712 0.3602 0.0
C2933 C 0.51535 0.00129 0.43524 0.0
C2934 C 0.52742 0.99063 0.44718 0.0
C2935 C 0.51934 0.00261 0.41598 0.0
C2936 C 0.5355 0.99341 0.40844 0.0
C2937 C 0.54722 0.98244 0.42028 0.0
C2938 C 0.54323 0.98102 0.43937 0.0
C2939 C 0.54101 -0.00453 0.38842 0.0
C2940 C 0.54506 0.97854 0.37822 0.0
C2941 C 0.54441 0.01376 0.38003 0.0
C2942 C 0.54124 0.03224 0.39018 0.0
C2943 C 0.5513 0.03647 0.40682 0.0
C2944 C 0.54864 0.0542 0.41598 0.0
C2945 C 0.53614 0.06789 0.40852 0.0
C2946 C 0.5261 0.06382 0.39198 0.0
C2947 C 0.52868 0.0461 0.38278 0.0
H2948 H 0.53424 0.08167 0.41553 0.0
H2949 H 0.5736 0.91348 0.32536 0.0
H2950 H 0.76157 0.87486 0.06947 0.0
H2951 H 0.75846 0.86093 0.10109 0.0
H2952 H 0.72018 0.81716 0.07942 0.0
H2953 H 0.72366 0.83057 0.04773 0.0
H2954 H 0.7165 0.84629 0.12249 0.0
H2955 H 0.74614 0.79152 0.08282 0.0
H2956 H 0.77081 0.78182 0.05985 0.0
H2957 H 0.81403 0.81002 0.09313 0.0
H2958 H 0.7895 0.82015 0.11609 0.0
H2959 H 0.73708 0.75234 0.18009 0.0
H2960 H 0.7276 0.77172 0.15296 0.0
H2961 H 0.75006 0.823 0.17987 0.0
H2962 H 0.75982 0.80348 0.20697 0.0
H2963 H 0.76046 0.79153 0.13485 0.0
H2964 H 0.72445 0.85955 0.16082 0.0
H2965 H 0.703 0.86896 0.18689 0.0
H2966 H 0.67455 0.81378 0.18349 0.0
H2967 H 0.69582 0.80407 0.15748 0.0
C2968 C 0.75236 0.86237 0.07148 0.0
C2969 C 0.74297 0.85371 0.05609 0.0
C2970 C 0.75053 0.8545 0.08955 0.0
C2971 C 0.73904 0.83808 0.09256 0.0
C2972 C 0.7291 0.82986 0.07736 0.0
C2973 C 0.73119 0.83748 0.05926 0.0
C2974 C 0.73885 0.82829 0.1111 0.0
C2975 C 0.72608 0.83432 0.12521 0.0
C2976 C 0.75141 0.81281 0.11475 0.0
C2977 C 0.76602 0.80678 0.10095 0.0
C2978 C 0.76088 0.7958 0.08509 0.0
C2979 C 0.77483 0.79021 0.07211 0.0
C2980 C 0.79397 0.79536 0.07499 0.0
C2981 C 0.7992 0.8061 0.09088 0.0
C2982 C 0.78529 0.81179 0.10385 0.0
C2983 C 0.73885 0.76793 0.18074 0.0
C2984 C 0.74869 0.77652 0.19582 0.0
C2985 C 0.73373 0.77894 0.16509 0.0
C2986 C 0.73828 0.79874 0.16435 0.0
C2987 C 0.7463 0.80776 0.18023 0.0
C2988 C 0.75162 0.79666 0.19582 0.0
C2989 C 0.73771 0.80902 0.14608 0.0
C2990 C 0.75066 0.80332 0.1321 0.0
C2991 C 0.7254 0.82478 0.14269 0.0
C2992 C 0.71166 0.83113 0.15724 0.0
C2993 C 0.71345 0.84955 0.1655 0.0
C2994 C 0.70141 0.85489 0.18032 0.0
C2995 C 0.68746 0.84196 0.18684 0.0
C2996 C 0.68539 0.82375 0.17845 0.0
C2997 C 0.69743 0.81833 0.1637 0.0
H2998 H 0.67831 0.84596 0.19844 0.0
H2999 H 0.80475 0.79098 0.06495 0.0
H3000 H 0.87337 0.0044 0.68311 0.0
H3001 H 0.88645 0.00929 0.65147 0.0
H3002 H 0.94348 0.00074 0.67308 0.0
H3003 H 0.93055 -0.00299 0.70469 0.0
H3004 H 0.94507 0.02841 0.65006 0.0
H3005 H 0.91413 0.96493 0.6469 0.0
H3006 H 0.88657 0.94254 0.64875 0.0
H3007 H 0.85741 0.9751 0.60624 0.0
H3008 H 0.88471 -0.00219 0.6043 0.0
H3009 H 7e-05 0.9907 0.57697 0.0
H3010 H 0.9818 0.00186 0.60387 0.0
H3011 H 0.9331 0.01191 0.56798 0.0
H3012 H 0.95157 0.0001 0.54087 0.0
H3013 H 0.9227 0.98981 0.59543 0.0
H3014 H 0.95423 0.05167 0.59684 0.0
H3015 H 0.98091 0.075 0.5957 0.0
H3016 H 0.00902 0.04532 0.64072 0.0
H3017 H 0.98213 0.02207 0.64258 0.0
C3018 C 0.8887 0.0036 0.68105 0.0
C3019 C 0.90093 0.00029 0.69639 0.0
C3020 C 0.89618 0.00628 0.66291 0.0
C3021 C 0.91601 0.0051 0.65966 0.0
C3022 C 0.92815 0.00181 0.67507 0.0
C3023 C 0.92074 -0.0004 0.69319 0.0
C3024 C 0.92442 0.00735 0.64042 0.0
C3025 C 0.9402 0.01982 0.63818 0.0
C3026 C 0.91767 -0.00308 0.62451 0.0
C3027 C 0.90134 0.9832 0.62564 0.0
C3028 C 0.90178 0.96738 0.63804 0.0
C3029 C 0.88621 0.95463 0.63909 0.0
C3030 C 0.87022 0.95744 0.62767 0.0
C3031 C 0.86978 0.97297 0.61511 0.0
C3032 C 0.8853 0.98578 0.61403 0.0
C3033 C 0.9858 -0.00373 0.57464 0.0
C3034 C 0.97736 -0.00514 0.55681 0.0
C3035 C 0.97527 0.00266 0.59011 0.0
C3036 C 0.95598 0.00792 0.58814 0.0
C3037 C 0.94795 0.00801 0.56995 0.0
C3038 C 0.95859 0.00155 0.55438 0.0
C3039 C 0.94385 0.01025 0.60534 0.0
C3040 C 0.92735 -0.00135 0.60721 0.0
C3041 C 0.94992 0.02142 0.62097 0.0
C3042 C 0.96627 0.03508 0.61973 0.0
C3043 C 0.96615 0.05006 0.60642 0.0
C3044 C 0.98129 0.06331 0.60569 0.0
C3045 C -0.00321 0.06156 0.61794 0.0
C3046 C -0.00296 0.04665 0.63118 0.0
C3047 C 0.98178 0.03353 0.6322 0.0
H3048 H 0.00853 0.07181 0.61722 0.0
H3049 H 0.85818 0.94755 0.6285 0.0
H3050 H 0.76883 0.13247 0.42555 0.0
H3051 H 0.77034 0.15569 0.39961 0.0
H3052 H 0.73675 0.19619 0.43172 0.0
H3053 H 0.73564 0.17323 0.45802 0.0
H3054 H 0.72391 0.18425 0.39178 0.0
H3055 H 0.77546 0.21197 0.42696 0.0
H3056 H 0.80516 0.21104 0.44558 0.0
H3057 H 0.83514 0.1866 0.39855 0.0
H3058 H 0.80553 0.1871 0.37974 0.0
H3059 H 0.73588 0.2418 0.30759 0.0
H3060 H 0.73215 0.23354 0.341 0.0
H3061 H 0.78068 0.1954 0.33695 0.0
H3062 H 0.7846 0.20371 0.30419 0.0
H3063 H 0.78338 0.21478 0.36771 0.0
H3064 H 0.73246 0.17784 0.33677 0.0
H3065 H 0.70206 0.16988 0.32075 0.0
H3066 H 0.67157 0.20661 0.359 0.0
H3067 H 0.70171 0.21465 0.37538 0.0
C3068 C 0.76199 0.14642 0.42718 0.0
C3069 C 0.75218 0.15108 0.4438 0.0
C3070 C 0.76289 0.15965 0.41241 0.0
C3071 C 0.75372 0.17761 0.41387 0.0
C3072 C 0.744 0.18242 0.43045 0.0
C3073 C 0.74346 0.16934 0.44543 0.0
C3074 C 0.75345 0.19066 0.39745 0.0
C3075 C 0.73673 0.19147 0.38668 0.0
C3076 C 0.77031 0.19961 0.39081 0.0
C3077 C 0.78823 0.19947 0.40198 0.0
C3078 C 0.78834 0.20626 0.42063 0.0
C3079 C 0.80518 0.20583 0.43121 0.0
C3080 C 0.82202 0.19874 0.42326 0.0
C3081 C 0.82208 0.1921 0.4047 0.0
C3082 C 0.80528 0.19248 0.39406 0.0
C3083 C 0.7458 0.23181 0.31392 0.0
C3084 C 0.76042 0.22338 0.30311 0.0
C3085 C 0.74359 0.22699 0.33297 0.0
C3086 C 0.75606 0.21371 0.34149 0.0
C3087 C 0.77091 0.20573 0.33079 0.0
C3088 C 0.77309 0.2105 0.31193 0.0
C3089 C 0.75397 0.20767 0.36142 0.0
C3090 C 0.7703 0.2082 0.37296 0.0
C3091 C 0.73682 0.19957 0.3686 0.0
C3092 C 0.71934 0.19705 0.35712 0.0
C3093 C 0.71933 0.18456 0.34148 0.0
C3094 C 0.70215 0.17992 0.33243 0.0
C3095 C 0.68495 0.1877 0.33889 0.0
C3096 C 0.68491 0.20057 0.35406 0.0
C3097 C 0.70202 0.20517 0.36323 0.0
H3098 H 0.67161 0.18346 0.33238 0.0
H3099 H 0.83504 0.19841 0.43148 0.0
H3100 H 0.5701 0.9907 0.20765 0.0
H3101 H 0.55678 0.99125 0.1761 0.0
H3102 H 0.61306 0.00132 0.15303 0.0
H3103 H 0.62649 0.00142 0.18485 0.0
H3104 H 0.58834 0.02503 0.13758 0.0
H3105 H 0.58999 0.95709 0.14765 0.0
H3106 H 0.58508 0.92616 0.16426 0.0
H3107 H 0.52435 0.93504 0.16381 0.0
H3108 H 0.52889 0.96617 0.14747 0.0
H3109 H 0.54299 0.00918 0.0461 0.0
H3110 H 0.56448 0.00937 0.0733 0.0
H3111 H 0.51588 0.00406 0.11034 0.0
H3112 H 0.49445 0.00351 0.08343 0.0
H3113 H 0.54218 0.97534 0.11512 0.0
H3114 H 0.5418 0.04547 0.10813 0.0
H3115 H 0.54734 0.07604 0.09105 0.0
H3116 H 0.6067 0.06185 0.08454 0.0
H3117 H 0.60145 0.03106 0.10138 0.0
C3118 C 0.57972 0.99277 0.19588 0.0
C3119 C 0.59935 -0.00404 0.19871 0.0
C3120 C 0.57208 0.993 0.17781 0.0
C3121 C 0.58397 -0.00397 0.16217 0.0
C3122 C 0.60366 -0.00111 0.16491 0.0
C3123 C 0.61131 -0.00114 0.18306 0.0
C3124 C 0.57545 -0.00284 0.14317 0.0
C3125 C 0.57854 0.01398 0.13247 0.0
C3126 C 0.56262 0.98279 0.13654 0.0
C3127 C 0.55981 0.96405 0.14642 0.0
C3128 C 0.5756 0.95253 0.15121 0.0
C3129 C 0.57287 0.93494 0.16057 0.0
C3130 C 0.55442 0.92865 0.16511 0.0
C3131 C 0.53864 0.93992 0.16029 0.0
C3132 C 0.54128 0.95753 0.15096 0.0
C3133 C 0.53688 0.00839 0.06005 0.0
C3134 C 0.51705 0.00593 0.0626 0.0
C3135 C 0.54917 0.00857 0.07556 0.0
C3136 C 0.54172 0.00654 0.09376 0.0
C3137 C 0.52188 0.00545 0.09635 0.0
C3138 C 0.50965 0.00515 0.08094 0.0
C3139 C 0.55437 0.00356 0.11009 0.0
C3140 C 0.55218 0.98626 0.12015 0.0
C3141 C 0.56808 0.01739 0.11598 0.0
C3142 C 0.57117 0.03586 0.10579 0.0
C3143 C 0.55599 0.04878 0.10289 0.0
C3144 C 0.55909 0.06617 0.09329 0.0
C3145 C 0.57734 0.07085 0.08665 0.0
C3146 C 0.59255 0.05818 0.08965 0.0
C3147 C 0.58952 0.04077 0.09922 0.0
H3148 H 0.57972 0.08433 0.07923 0.0
H3149 H 0.55234 0.91503 0.17235 0.0
H3150 H 0.77493 0.86357 0.93513 0.0
H3151 H 0.7715 0.84506 0.9061 0.0
H3152 H 0.71592 0.82503 0.92421 0.0
H3153 H 0.71979 0.84307 0.95387 0.0
H3154 H 0.73425 0.79679 0.90638 0.0
H3155 H 0.72198 0.86428 0.89181 0.0
H3156 H 0.73004 0.89913 0.89164 0.0
H3157 H 0.78142 0.8873 0.86067 0.0
H3158 H 0.77383 0.85236 0.86099 0.0
H3159 H 0.71155 0.75972 0.81685 0.0
H3160 H 0.70964 0.77984 0.84523 0.0
H3161 H 0.76302 0.80743 0.83021 0.0
H3162 H 0.76392 0.78863 0.80106 0.0
H3163 H 0.74319 0.83265 0.84664 0.0
H3164 H 0.75828 0.76666 0.86209 0.0
H3165 H 0.75298 0.7313 0.86255 0.0
H3166 H 0.7001 0.73931 0.89221 0.0
H3167 H 0.70498 0.77475 0.89172 0.0
C3168 C 0.76204 0.85514 0.93299 0.0
C3169 C 0.74754 0.85492 0.94664 0.0
C3170 C 0.76002 0.84462 0.91632 0.0
C3171 C 0.74317 0.83412 0.91261 0.0
C3172 C 0.72898 0.83317 0.92663 0.0
C3173 C 0.73119 0.84342 0.94357 0.0
C3174 C 0.74032 0.82455 0.89396 0.0
C3175 C 0.73588 0.80471 0.89332 0.0
C3176 C 0.74295 0.83469 0.87684 0.0
C3177 C 0.74733 0.85573 0.87641 0.0
C3178 C 0.73501 0.86912 0.88501 0.0
C3179 C 0.73951 0.88888 0.88491 0.0
C3180 C 0.75623 0.89543 0.87615 0.0
C3181 C 0.76848 0.88222 0.86746 0.0
C3182 C 0.76408 0.86245 0.86758 0.0
C3183 C 0.72246 0.77063 0.81935 0.0
C3184 C 0.73775 0.77286 0.80675 0.0
C3185 C 0.72156 0.78191 0.83572 0.0
C3186 C 0.73647 0.79489 0.84025 0.0
C3187 C 0.75127 0.79769 0.82711 0.0
C3188 C 0.75179 0.78694 0.81042 0.0
C3189 C 0.73732 0.80478 0.85897 0.0
C3190 C 0.74138 0.82472 0.85966 0.0
C3191 C 0.73472 0.79463 0.87614 0.0
C3192 C 0.73191 0.77334 0.87671 0.0
C3193 C 0.74549 0.76087 0.86864 0.0
C3194 C 0.74256 0.74083 0.8689 0.0
C3195 C 0.72619 0.73307 0.87736 0.0
C3196 C 0.71275 0.74534 0.88564 0.0
C3197 C 0.7156 0.7654 0.88539 0.0
H3198 H 0.72394 0.71755 0.87753 0.0
H3199 H 0.75969 0.91073 0.8761 0.0
H3200 H 0.79113 0.92203 0.01039 0.0
H3201 H 0.82357 0.93566 0.01061 0.0
H3202 H 0.84512 0.88227 0.98762 0.0
H3203 H 0.81251 0.86947 0.98554 0.0
H3204 H 0.85285 0.91662 0.03161 0.0
H3205 H 0.86793 0.88916 0.96623 0.0
H3206 H 0.86255 0.8862 0.93214 0.0
H3207 H 0.85928 0.94809 0.92755 0.0
H3208 H 0.86335 0.95127 0.96188 0.0
H3209 H 0.95713 0.94906 -0.00076 0.0
H3210 H 0.92947 0.927 -0.00212 0.0
H3211 H 0.89592 0.96838 0.02905 0.0
H3212 H 0.92336 0.99017 0.03061 0.0
H3213 H 0.89674 0.93556 0.98004 0.0
H3214 H 0.86019 0.9475 0.05196 0.0
H3215 H 0.86927 0.95211 0.08518 0.0
H3216 H 0.92139 0.92093 0.07571 0.0
H3217 H 0.91253 0.91597 0.04249 0.0
C3218 C 0.80267 0.91369 0.00434 0.0
C3219 C 0.79915 0.89513 0.99698 0.0
C3220 C 0.82126 0.92137 0.00467 0.0
C3221 C 0.83685 0.91039 -0.00174 0.0
C3222 C 0.83339 0.8916 0.99141 0.0
C3223 C 0.81472 0.88413 0.99059 0.0
C3224 C 0.85672 0.91758 0.00159 0.0
C3225 C 0.86249 0.92063 0.0203 0.0
C3226 C 0.86958 0.92248 0.98692 0.0
C3227 C 0.8648 0.92035 0.96678 0.0
C3228 C 0.86502 0.90205 0.95813 0.0
C3229 C 0.86245 0.90035 0.93871 0.0
C3230 C 0.86027 0.91693 0.92771 0.0
C3231 C 0.86074 0.93523 0.9361 0.0
C3232 C 0.86291 0.93697 0.95557 0.0
C3233 C 0.94405 0.9531 0.00637 0.0
C3234 C 0.94242 0.97135 0.01504 0.0
C3235 C 0.9282 0.94058 0.00544 0.0
C3236 C 0.91058 0.94597 0.01342 0.0
C3237 C 0.90936 0.96369 0.02303 0.0
C3238 C 0.92508 0.97621 0.02385 0.0
C3239 C 0.8929 0.93436 0.00999 0.0
C3240 C 0.88736 0.93091 0.99135 0.0
C3241 C 0.88042 0.9288 0.02469 0.0
C3242 C 0.88572 0.93144 0.04472 0.0
C3243 C 0.87353 0.94152 0.057 0.0
C3244 C 0.87866 0.94424 0.07582 0.0
C3245 C 0.89591 0.93684 0.08254 0.0
C3246 C 0.90805 0.9267 0.07047 0.0
C3247 C 0.903 0.92396 0.05164 0.0
H3248 H 0.89986 0.93896 0.09711 0.0
H3249 H 0.85846 0.9156 0.91265 0.0
H3250 H 0.30637 0.61228 0.01458 0.0
H3251 H 0.33852 0.59897 0.01893 0.0
H3252 H 0.32821 0.55812 0.97403 0.0
H3253 H 0.29628 0.57095 0.96977 0.0
H3254 H 0.34406 0.54042 0.0029 0.0
H3255 H 0.35517 0.59905 0.96753 0.0
H3256 H 0.35415 0.63417 0.96137 0.0
H3257 H 0.38633 0.64512 0.01172 0.0
H3258 H 0.38731 0.61004 0.0183 0.0
H3259 H 0.43698 0.5227 0.9617 0.0
H3260 H 0.40467 0.53542 0.9675 0.0
H3261 H 0.42043 0.54906 0.02464 0.0
H3262 H 0.45235 0.5355 0.01915 0.0
H3263 H 0.40263 0.58068 0.99601 0.0
H3264 H 0.39604 0.51895 0.02642 0.0
H3265 H 0.39966 0.48356 0.02701 0.0
H3266 H 0.35831 0.47768 0.98278 0.0
H3267 H 0.35565 0.51321 0.98076 0.0
C3268 C 0.31099 0.60051 0.00559 0.0
C3269 C 0.29871 0.59272 0.99181 0.0
C3270 C 0.32935 0.59293 0.00811 0.0
C3271 C 0.33573 0.57754 0.9968 0.0
C3272 C 0.32353 0.56987 0.98302 0.0
C3273 C 0.30527 0.57735 0.98054 0.0
C3274 C 0.35514 0.56934 -0.00106 0.0
C3275 C 0.35687 0.54923 0.00142 0.0
C3276 C 0.37185 0.58089 0.99735 0.0
C3277 C 0.37106 0.60197 0.99355 0.0
C3278 C 0.36184 0.60897 0.97739 0.0
C3279 C 0.36132 0.62886 0.9738 0.0
C3280 C 0.3701 0.64188 0.98619 0.0
C3281 C 0.37948 0.63503 0.00217 0.0
C3282 C 0.38002 0.61515 0.00584 0.0
C3283 C 0.4333 0.52801 0.97557 0.0
C3284 C 0.44681 0.52785 0.99011 0.0
C3285 C 0.41501 0.53533 0.97884 0.0
C3286 C 0.41032 0.54308 0.99649 0.0
C3287 C 0.42385 0.543 0.01099 0.0
C3288 C 0.44191 0.53512 0.0079 0.0
C3289 C 0.3914 0.55183 -0.00053 0.0
C3290 C 0.38981 0.57198 -0.00205 0.0
C3291 C 0.37482 0.54028 0.0016 0.0
C3292 C 0.37591 0.51885 0.00321 0.0
C3293 C 0.38799 0.51019 0.01654 0.0
C3294 C 0.38983 0.49006 0.01718 0.0
C3295 C 0.3791 0.47835 0.00508 0.0
C3296 C 0.36663 0.48677 0.99216 0.0
C3297 C 0.36508 0.50693 0.99114 0.0
H3298 H 0.38047 0.46275 0.00569 0.0
H3299 H 0.3697 0.65727 0.98337 0.0
H3300 H 0.16563 0.544 0.7447 0.0
H3301 H 0.17967 0.57639 0.74312 0.0
H3302 H 0.12809 0.6002 0.76687 0.0
H3303 H 0.11498 0.56748 0.77044 0.0
H3304 H 0.16412 0.60366 0.72124 0.0
H3305 H 0.13273 0.62961 0.78307 0.0
H3306 H 0.12699 0.6272 0.81722 0.0
H3307 H 0.18625 0.61401 0.82609 0.0
H3308 H 0.19199 0.61516 0.79186 0.0
H3309 H 0.19982 0.70928 0.73327 0.0
H3310 H 0.17554 0.68338 0.73517 0.0
H3311 H 0.22018 0.64091 0.74012 0.0
H3312 H 0.24426 0.66605 0.7375 0.0
H3313 H 0.18026 0.65206 0.77042 0.0
H3314 H 0.21212 0.62319 0.71166 0.0
H3315 H 0.22207 0.62828 0.67877 0.0
H3316 H 0.16587 0.64878 0.66518 0.0
H3317 H 0.15581 0.64432 0.69821 0.0
C3318 C 0.15785 0.55603 0.75071 0.0
C3319 C 0.13972 0.55319 0.75864 0.0
C3320 C 0.1657 0.57459 0.7495 0.0
C3321 C 0.15519 0.59081 0.75538 0.0
C3322 C 0.13693 0.588 0.76316 0.0
C3323 C 0.12932 0.5693 0.76492 0.0
C3324 C 0.16252 0.61046 0.75086 0.0
C3325 C 0.16736 0.61431 0.73204 0.0
C3326 C 0.16654 0.62463 0.76475 0.0
C3327 C 0.16258 0.62165 0.78491 0.0
C3328 C 0.14434 0.62547 0.79226 0.0
C3329 C 0.14111 0.62441 0.81163 0.0
C3330 C 0.1562 0.62021 0.82381 0.0
C3331 C 0.17453 0.61706 0.81664 0.0
C3332 C 0.1777 0.61758 0.79724 0.0
C3333 C 0.20443 0.69436 0.73418 0.0
C3334 C 0.22402 0.68978 0.73511 0.0
C3335 C 0.19057 0.67964 0.73535 0.0
C3336 C 0.19619 0.6603 0.7375 0.0
C3337 C 0.21563 0.65572 0.73795 0.0
C3338 C 0.22939 0.67021 0.73649 0.0
C3339 C 0.18221 0.64473 0.7411 0.0
C3340 C 0.17627 0.64165 0.75964 0.0
C3341 C 0.17738 0.63113 0.72709 0.0
C3342 C 0.18336 0.63378 0.70737 0.0
C3343 C 0.202 0.62905 0.7017 0.0
C3344 C 0.20764 0.63179 0.68305 0.0
C3345 C 0.19464 0.63895 0.6699 0.0
C3346 C 0.17596 0.64336 0.6754 0.0
C3347 C 0.1703 0.6408 0.69409 0.0
H3348 H 0.19901 0.641 0.65545 0.0
H3349 H 0.15372 0.61958 0.83881 0.0
H3350 H 0.20169 0.42916 0.48207 0.0
H3351 H 0.16949 0.44085 0.48817 0.0
H3352 H 0.15837 0.39162 0.52377 0.0
H3353 H 0.19074 0.37958 0.51765 0.0
H3354 H 0.1273 0.4015 0.49919 0.0
H3355 H 0.16871 0.43283 0.54447 0.0
H3356 H 0.19797 0.45081 0.55323 0.0
H3357 H 0.1812 0.4981 0.5179 0.0
H3358 H 0.15199 0.48029 0.5087 0.0
H3359 H 0.04039 0.45108 0.50779 0.0
H3360 H 0.06821 0.43446 0.52129 0.0
H3361 H 0.10475 0.4805 0.50072 0.0
H3362 H 0.07697 0.49767 0.48947 0.0
H3363 H 0.12193 0.46714 0.52719 0.0
H3364 H 0.08916 0.4341 0.47408 0.0
H3365 H 0.06108 0.41738 0.46043 0.0
H3366 H 0.06223 0.37565 0.50509 0.0
H3367 H 0.09029 0.39219 0.51901 0.0
C3368 C 0.19245 0.42067 0.49112 0.0
C3369 C 0.19896 0.40347 0.49948 0.0
C3370 C 0.17401 0.42743 0.49462 0.0
C3371 C 0.16164 0.41727 0.50666 0.0
C3372 C 0.16774 0.39972 0.51451 0.0
C3373 C 0.18626 0.3929 0.51101 0.0
C3374 C 0.14265 0.42553 0.51139 0.0
C3375 C 0.12604 0.4157 0.50563 0.0
C3376 C 0.14103 0.4441 0.51966 0.0
C3377 C 0.15816 0.4552 0.5259 0.0
C3378 C 0.17127 0.44706 0.53857 0.0
C3379 C 0.18786 0.45721 0.54359 0.0
C3380 C 0.19144 0.47558 0.53613 0.0
C3381 C 0.17839 0.48388 0.52369 0.0
C3382 C 0.1618 0.47378 0.5186 0.0
C3383 C 0.05423 0.45812 0.50748 0.0
C3384 C 0.05658 0.47573 0.49797 0.0
C3385 C 0.07026 0.44839 0.51462 0.0
C3386 C 0.08886 0.45574 0.51139 0.0
C3387 C 0.09076 0.47427 0.50343 0.0
C3388 C 0.07481 0.48417 0.49695 0.0
C3389 C 0.10647 0.44376 0.51379 0.0
C3390 C 0.12298 0.45276 0.52109 0.0
C3391 C 0.10806 0.42472 0.50633 0.0
C3392 C 0.09165 0.41444 0.49764 0.0
C3393 C 0.08342 0.42133 0.48094 0.0
C3394 C 0.0675 0.41191 0.47318 0.0
C3395 C 0.05984 0.39549 0.48192 0.0
C3396 C 0.06816 0.38838 0.49836 0.0
C3397 C 0.08408 0.39775 0.50617 0.0
H3398 H 0.04748 0.38827 0.47594 0.0
H3399 H 0.20433 0.48339 0.53998 0.0
H3400 H 0.88217 0.92949 0.76866 0.0
H3401 H 0.86637 0.89758 0.77097 0.0
H3402 H 0.81621 0.92079 0.74421 0.0
H3403 H 0.83234 0.9523 0.74099 0.0
H3404 H 0.81335 0.897 0.78295 0.0
H3405 H 0.83467 0.89724 0.71752 0.0
H3406 H 0.85931 0.90022 0.69287 0.0
H3407 H 0.89113 0.854 0.71804 0.0
H3408 H 0.86678 0.85098 0.74304 0.0
H3409 H 0.74862 0.82881 0.74782 0.0
H3410 H 0.77026 0.85434 0.75791 0.0
H3411 H 0.81688 0.81361 0.75879 0.0
H3412 H 0.79491 0.78784 0.74801 0.0
H3413 H 0.82658 0.84341 0.73843 0.0
H3414 H 0.80171 0.84016 0.80133 0.0
H3415 H 0.7772 0.83824 0.82621 0.0
H3416 H 0.75135 0.89038 0.80582 0.0
H3417 H 0.77579 0.89272 0.78092 0.0
C3418 C 0.86775 0.92772 0.76333 0.0
C3419 C 0.85811 0.94353 0.75538 0.0
C3420 C 0.85877 0.90954 0.76465 0.0
C3421 C 0.84005 0.9069 0.75796 0.0
C3422 C 0.83058 0.92259 0.74966 0.0
C3423 C 0.83969 0.94062 0.74802 0.0
C3424 C 0.83025 0.8878 0.75945 0.0
C3425 C 0.81609 0.88533 0.77316 0.0
C3426 C 0.83446 0.87225 0.74721 0.0
C3427 C 0.8491 0.87411 0.7323 0.0
C3428 C 0.84706 0.8879 0.71794 0.0
C3429 C 0.86092 0.88955 0.70387 0.0
C3430 C 0.87682 0.87736 0.70394 0.0
C3431 C 0.87884 0.86347 0.71805 0.0
C3432 C 0.86502 0.86178 0.73217 0.0
C3433 C 0.76331 0.82508 0.75098 0.0
C3434 C 0.77003 0.80632 0.74735 0.0
C3435 C 0.77576 0.83975 0.75681 0.0
C3436 C 0.79532 0.83606 0.75933 0.0
C3437 C 0.80186 0.81689 0.75704 0.0
C3438 C 0.78927 0.80208 0.75113 0.0
C3439 C 0.80889 0.85276 0.76158 0.0
C3440 C 0.8239 0.85487 0.74853 0.0
C3441 C 0.80538 0.86808 0.77443 0.0
C3442 C 0.79056 0.86658 0.78926 0.0
C3443 C 0.79074 0.85115 0.8021 0.0
C3444 C 0.77685 0.84999 0.8162 0.0
C3445 C 0.76261 0.86406 0.81748 0.0
C3446 C 0.76236 0.87946 0.80479 0.0
C3447 C 0.77629 0.88078 0.79076 0.0
H3448 H 0.75178 0.86308 0.8283 0.0
H3449 H 0.88753 0.87864 0.69302 0.0
H3450 H 0.70823 0.08825 0.51815 0.0
H3451 H 0.67726 0.07428 0.52551 0.0
H3452 H 0.65339 0.10138 0.47608 0.0
H3453 H 0.68375 0.11829 0.47107 0.0
H3454 H 0.63001 0.1061 0.49931 0.0
H3455 H 0.65723 0.03743 0.48698 0.0
H3456 H 0.67966 0.01042 0.49302 0.0
H3457 H 0.67764 0.02228 0.55212 0.0
H3458 H 0.65438 0.04845 0.5466 0.0
H3459 H 0.54661 0.04793 0.48975 0.0
H3460 H 0.5759 0.06719 0.4889 0.0
H3461 H 0.5909 0.04649 0.54421 0.0
H3462 H 0.56221 0.02606 0.54432 0.0
H3463 H 0.61821 0.03937 0.52205 0.0
H3464 H 0.58177 0.09763 0.53307 0.0
H3465 H 0.55451 0.11926 0.52679 0.0
H3466 H 0.57291 0.12545 0.46951 0.0
H3467 H 0.60019 0.10413 0.47547 0.0
C3468 C 0.69634 0.09092 0.50875 0.0
C3469 C 0.69835 0.10389 0.49377 0.0
C3470 C 0.6786 0.08254 0.51273 0.0
C3471 C 0.66272 0.08602 0.50109 0.0
C3472 C 0.66518 0.09837 0.48548 0.0
C3473 C 0.68262 0.10781 0.48231 0.0
C3474 C 0.64319 0.0787 0.50611 0.0
C3475 C 0.62758 0.09134 0.50394 0.0
C3476 C 0.6396 0.05984 0.51327 0.0
C3477 C 0.65465 0.04525 0.51632 0.0
C3478 C 0.66186 0.03445 0.5012 0.0
C3479 C 0.67455 0.01922 0.50453 0.0
C3480 C 0.68043 0.01501 0.52282 0.0
C3481 C 0.67327 0.0257 0.53793 0.0
C3482 C 0.66018 0.04056 0.53474 0.0
C3483 C 0.55574 0.04823 0.50205 0.0
C3484 C 0.55223 0.03569 0.51715 0.0
C3485 C 0.57254 0.05924 0.50159 0.0
C3486 C 0.58568 0.05837 0.51653 0.0
C3487 C 0.58106 0.04733 0.53247 0.0
C3488 C 0.56458 0.03586 0.53267 0.0
C3489 C 0.60528 0.06648 0.51437 0.0
C3490 C 0.62081 0.05409 0.5173 0.0
C3491 C 0.60877 0.08547 0.50788 0.0
C3492 C 0.59301 0.09932 0.50472 0.0
C3493 C 0.58002 0.10375 0.51917 0.0
C3494 C 0.56455 0.11598 0.51566 0.0
C3495 C 0.56196 0.12384 0.49776 0.0
C3496 C 0.57492 0.11959 0.4834 0.0
C3497 C 0.59045 0.10751 0.48685 0.0
H3498 H 0.5499 0.13317 0.495 0.0
H3499 H 0.69034 0.0033 0.52531 0.0
H3500 H 0.16043 0.45661 0.72756 0.0
H3501 H 0.17708 0.42547 0.72509 0.0
H3502 H 0.15341 0.4083 0.77864 0.0
H3503 H 0.13751 0.43969 0.78137 0.0
H3504 H 0.19051 0.40503 0.77886 0.0
H3505 H 0.14044 0.38821 0.73433 0.0
H3506 H 0.12138 0.39084 0.7053 0.0
H3507 H 0.17222 0.38439 0.67204 0.0
H3508 H 0.19164 0.38213 0.70086 0.0
H3509 H 0.20348 0.30566 0.78797 0.0
H3510 H 0.19311 0.33895 0.78409 0.0
H3511 H 0.22644 0.34369 0.73323 0.0
H3512 H 0.23678 0.31002 0.73689 0.0
H3513 H 0.19011 0.35568 0.72814 0.0
H3514 H 0.23964 0.36944 0.77172 0.0
H3515 H 0.25919 0.36556 0.80027 0.0
H3516 H 0.21014 0.37727 0.83471 0.0
H3517 H 0.19021 0.38094 0.80638 0.0
C3518 C 0.15841 0.44586 0.73847 0.0
C3519 C 0.14764 0.45024 0.75456 0.0
C3520 C 0.1679 0.42812 0.73707 0.0
C3521 C 0.16649 0.41452 0.75167 0.0
C3522 C 0.15476 0.4186 0.76724 0.0
C3523 C 0.14558 0.4364 0.76876 0.0
C3524 C 0.17867 0.39701 0.75195 0.0
C3525 C 0.19023 0.39415 0.76784 0.0
C3526 C 0.17922 0.38335 0.73707 0.0
C3527 C 0.16754 0.38535 0.71978 0.0
C3528 C 0.1476 0.38767 0.72084 0.0
C3529 C 0.13672 0.38902 0.70441 0.0
C3530 C 0.1456 0.38789 0.68684 0.0
C3531 C 0.16537 0.38537 0.68565 0.0
C3532 C 0.17632 0.38408 0.70203 0.0
C3533 C 0.20889 0.31384 0.77611 0.0
C3534 C 0.22092 0.30519 0.76271 0.0
C3535 C 0.20302 0.33293 0.77397 0.0
C3536 C 0.20913 0.34384 0.75846 0.0
C3537 C 0.22164 0.33551 0.74534 0.0
C3538 C 0.22762 0.31634 0.74752 0.0
C3539 C 0.20107 0.36335 0.75545 0.0
C3540 C 0.1905 0.36671 0.73903 0.0
C3541 C 0.20146 0.37756 0.76977 0.0
C3542 C 0.21341 0.37537 0.78689 0.0
C3543 C 0.23298 0.37105 0.78538 0.0
C3544 C 0.24414 0.36891 0.80153 0.0
C3545 C 0.23591 0.37114 0.8193 0.0
C3546 C 0.2165 0.37555 0.82094 0.0
C3547 C 0.20527 0.37769 0.80484 0.0
H3548 H 0.24457 0.36948 0.83178 0.0
H3549 H 0.13714 0.38887 0.67414 0.0
H3550 H 0.35935 0.5485 0.2227 0.0
H3551 H 0.3451 0.58048 0.21753 0.0
H3552 H 0.34426 0.59029 0.2775 0.0
H3553 H 0.35731 0.558 0.28256 0.0
H3554 H 0.31205 0.59893 0.2656 0.0
H3555 H 0.37526 0.61463 0.2432 0.0
H3556 H 0.40403 0.61159 0.22339 0.0
H3557 H 0.37026 0.62136 0.17394 0.0
H3558 H 0.34123 0.62417 0.19345 0.0
H3559 H 0.2993 0.69741 0.27468 0.0
H3560 H 0.32044 0.67081 0.26603 0.0
H3561 H 0.28311 0.65586 0.22001 0.0
H3562 H 0.26164 0.6825 0.22889 0.0
H3563 H 0.33255 0.64977 0.22075 0.0
H3564 H 0.26877 0.63119 0.24557 0.0
H3565 H 0.2419 0.63732 0.26724 0.0
H3566 H 0.28033 0.63546 0.31427 0.0
H3567 H 0.30747 0.62969 0.29278 0.0
C3568 C 0.35654 0.55775 0.23469 0.0
C3569 C 0.35956 0.55089 0.25302 0.0
C3570 C 0.34837 0.57606 0.23175 0.0
C3571 C 0.34355 0.58802 0.24711 0.0
C3572 C 0.3476 0.58142 0.26537 0.0
C3573 C 0.35525 0.56302 0.26829 0.0
C3574 C 0.33301 0.60667 0.24455 0.0
C3575 C 0.31677 0.60996 0.25578 0.0
C3576 C 0.33862 0.62118 0.23149 0.0
C3577 C 0.35603 0.61933 0.21976 0.0
C3578 C 0.37394 0.61593 0.22809 0.0
C3579 C 0.3903 0.61429 0.21691 0.0
C3580 C 0.38897 0.6162 0.19741 0.0
C3581 C 0.37127 0.61982 0.18905 0.0
C3582 C 0.35486 0.62143 0.20015 0.0
C3583 C 0.29619 0.6892 0.26203 0.0
C3584 C 0.27897 0.6921 0.25234 0.0
C3585 C 0.30823 0.6739 0.25718 0.0
C3586 C 0.30323 0.66124 0.24253 0.0
C3587 C 0.28724 0.66553 0.23133 0.0
C3588 C 0.27508 0.68085 0.2363 0.0
C3589 C 0.31222 0.6418 0.24189 0.0
C3590 C 0.328 0.63846 0.23024 0.0
C3591 C 0.30646 0.62728 0.25467 0.0
C3592 C 0.29012 0.63022 0.26759 0.0
C3593 C 0.27148 0.63225 0.26052 0.0
C3594 C 0.25622 0.63564 0.27276 0.0
C3595 C 0.25941 0.63683 0.29212 0.0
C3596 C 0.27788 0.63457 0.29927 0.0
C3597 C 0.2932 0.63124 0.28707 0.0
H3598 H 0.24758 0.63946 0.30157 0.0
H3599 H 0.40166 0.61494 0.18879 0.0
H3600 H 0.50469 0.70866 0.57914 0.0
H3601 H 0.50588 0.67677 0.56437 0.0
H3602 H 0.48293 0.65146 0.61507 0.0
H3603 H 0.47901 0.68375 0.62853 0.0
H3604 H 0.5252 0.64852 0.56988 0.0
H3605 H 0.46732 0.61955 0.61528 0.0
H3606 H 0.43324 0.62146 0.62426 0.0
H3607 H 0.41894 0.63976 0.56842 0.0
H3608 H 0.4531 0.63936 0.55961 0.0
H3609 H 0.49118 0.53926 0.55705 0.0
H3610 H 0.4991 0.56792 0.57589 0.0
H3611 H 0.5075 0.60078 0.525 0.0
H3612 H 0.5006 0.5719 0.50637 0.0
H3613 H 0.47495 0.59776 0.57304 0.0
H3614 H 0.53104 0.64363 0.53446 0.0
H3615 H 0.55694 0.63693 0.51193 0.0
H3616 H 0.56725 0.58219 0.53845 0.0
H3617 H 0.54245 0.58915 0.56201 0.0
C3618 C 0.49873 0.69638 0.58658 0.0
C3619 C 0.4905 0.69884 0.60441 0.0
C3620 C 0.49988 0.678 0.57835 0.0
C3621 C 0.49387 0.66139 0.58822 0.0
C3622 C 0.48651 0.66384 0.6065 0.0
C3623 C 0.48461 0.68235 0.61439 0.0
C3624 C 0.49676 0.64162 0.57994 0.0
C3625 C 0.5141 0.63752 0.57057 0.0
C3626 C 0.48258 0.62688 0.58075 0.0
C3627 C 0.46279 0.63032 0.58709 0.0
C3628 C 0.45696 0.62474 0.60518 0.0
C3629 C 0.43765 0.62554 0.61023 0.0
C3630 C 0.42397 0.6311 0.59702 0.0
C3631 C 0.42959 0.63591 0.57877 0.0
C3632 C 0.44896 0.63581 0.57387 0.0
C3633 C 0.49621 0.5522 0.54999 0.0
C3634 C 0.49592 0.55328 0.53033 0.0
C3635 C 0.50029 0.56871 0.56073 0.0
C3636 C 0.50388 0.58657 0.55191 0.0
C3637 C 0.50517 0.58717 0.53221 0.0
C3638 C 0.50138 0.5706 0.52153 0.0
C3639 C 0.50308 0.6049 0.56291 0.0
C3640 C 0.48619 0.60868 0.5728 0.0
C3641 C 0.51724 0.61956 0.56164 0.0
C3642 C 0.53464 0.61683 0.54991 0.0
C3643 C 0.53921 0.63042 0.53588 0.0
C3644 C 0.55372 0.62657 0.5229 0.0
C3645 C 0.56366 0.6091 0.52369 0.0
C3646 C 0.55959 0.59574 0.53787 0.0
C3647 C 0.54546 0.59975 0.55119 0.0
H3648 H 0.57451 0.60592 0.5133 0.0
H3649 H 0.40898 0.6314 0.60083 0.0
H3650 H 0.53613 0.25675 0.81837 0.0
H3651 H 0.56608 0.25776 0.80084 0.0
H3652 H 0.59739 0.24662 0.85196 0.0
H3653 H 0.56735 0.24672 0.86977 0.0
H3654 H 0.61634 0.27129 0.83228 0.0
H3655 H 0.58625 0.21023 0.81802 0.0
H3656 H 0.56042 0.18844 0.80718 0.0
H3657 H 0.56147 0.21544 0.75288 0.0
H3658 H 0.58717 0.23756 0.76347 0.0
H3659 H 0.69419 0.21592 0.8012 0.0
H3660 H 0.66242 0.22461 0.81173 0.0
H3661 H 0.65431 0.25924 0.76208 0.0
H3662 H 0.68684 0.25122 0.75148 0.0
H3663 H 0.62315 0.22843 0.77664 0.0
H3664 H 0.66312 0.28242 0.79287 0.0
H3665 H 0.69036 0.29979 0.80672 0.0
H3666 H 0.67313 0.28132 0.86177 0.0
H3667 H 0.6463 0.26293 0.84821 0.0
C3668 C 0.54941 0.25451 0.82588 0.0
C3669 C 0.54945 0.25142 0.84538 0.0
C3670 C 0.56652 0.25506 0.81583 0.0
C3671 C 0.584 0.25187 0.82498 0.0
C3672 C 0.58409 0.2491 0.84457 0.0
C3673 C 0.56695 0.24904 0.85472 0.0
C3674 C 0.6021 0.25088 0.81408 0.0
C3675 C 0.61791 0.26182 0.8202 0.0
C3676 C 0.60395 0.23891 0.79798 0.0
C3677 C 0.58845 0.2257 0.79161 0.0
C3678 C 0.58086 0.21162 0.80381 0.0
C3679 C 0.56627 0.19919 0.79771 0.0
C3680 C 0.55926 0.2006 0.77937 0.0
C3681 C 0.56688 0.2144 0.76709 0.0
C3682 C 0.58146 0.22688 0.77313 0.0
C3683 C 0.68573 0.22524 0.79229 0.0
C3684 C 0.69317 0.23293 0.77546 0.0
C3685 C 0.66758 0.23026 0.79846 0.0
C3686 C 0.65631 0.24278 0.78784 0.0
C3687 C 0.66304 0.24967 0.7705 0.0
C3688 C 0.68152 0.24499 0.76444 0.0
C3689 C 0.63747 0.24833 0.79525 0.0
C3690 C 0.6215 0.2382 0.7885 0.0
C3691 C 0.63577 0.26046 0.81124 0.0
C3692 C 0.65249 0.27112 0.81938 0.0
C3693 C 0.66518 0.28171 0.80788 0.0
C3694 C 0.68067 0.29175 0.81571 0.0
C3695 C 0.68356 0.29159 0.83511 0.0
C3696 C 0.671 0.28132 0.84671 0.0
C3697 C 0.65565 0.27103 0.83893 0.0
H3698 H 0.69548 0.29949 0.84117 0.0
H3699 H 0.54798 0.19096 0.77467 0.0
H3700 H 0.02079 0.30448 0.10039 0.0
H3701 H 0.02098 0.33793 0.08904 0.0
H3702 H 0.95976 0.33512 0.08121 0.0
H3703 H 0.95991 0.30124 0.09117 0.0
H3704 H 0.9725 0.35253 0.05348 0.0
H3705 H 0.98471 0.36241 0.11908 0.0
H3706 H 0.00093 0.35755 0.14948 0.0
H3707 H 0.05402 0.37694 0.12547 0.0
H3708 H 0.03818 0.3817 0.09488 0.0
H3709 H 0.98396 0.4565 0.02964 0.0
H3710 H 0.97194 0.42768 0.04686 0.0
H3711 H 0.02932 0.40524 0.04928 0.0
H3712 H 0.04107 0.43285 0.03228 0.0
H3713 H 0.01096 0.40436 0.08384 0.0
H3714 H -0.00049 0.38813 0.01761 0.0
H3715 H 0.9837 0.39282 0.98698 0.0
H3716 H 0.92872 0.386 0.01306 0.0
H3717 H 0.9442 0.38172 0.04398 0.0
C3718 C 0.0074 0.31113 0.09643 0.0
C3719 C 0.99035 0.30034 0.09673 0.0
C3720 C 0.00743 0.33034 0.09005 0.0
C3721 C 0.99028 0.33944 0.08459 0.0
C3722 C 0.9732 0.32863 0.08528 0.0
C3723 C 0.97327 0.30927 0.09107 0.0
C3724 C 0.99028 0.35983 0.07734 0.0
C3725 C 0.98056 0.36393 0.06045 0.0
C3726 C 0.00074 0.37495 0.08622 0.0
C3727 C 0.01025 0.37233 0.10467 0.0
C3728 C -0.00014 0.36557 0.12028 0.0
C3729 C 0.00899 0.36283 0.13754 0.0
C3730 C 0.0285 0.36691 0.1394 0.0
C3731 C 0.03891 0.37379 0.12401 0.0
C3732 C 0.02985 0.37655 0.10672 0.0
C3733 C 0.99386 0.4453 0.03377 0.0
C3734 C 0.01343 0.44704 0.02938 0.0
C3735 C 0.98704 0.42892 0.04365 0.0
C3736 C -0.00018 0.41435 0.04946 0.0
C3737 C 0.01922 0.41629 0.04514 0.0
C3738 C 0.02588 0.43224 0.03525 0.0
C3739 C 0.99378 0.39666 0.05986 0.0
C3740 C 0.00239 0.39304 0.07733 0.0
C3741 C 0.98229 0.38207 0.05159 0.0
C3742 C 0.97299 0.38486 0.03311 0.0
C3743 C 0.98404 0.38786 0.01685 0.0
C3744 C 0.97514 0.39042 -0.00055 0.0
C3745 C 0.95521 0.38978 -0.00189 0.0
C3746 C 0.94414 0.38656 0.01417 0.0
C3747 C 0.95297 0.38411 0.03163 0.0
H3748 H 0.94833 0.39175 0.98463 0.0
H3749 H 0.03554 0.36477 0.15277 0.0
H3750 H 0.92083 0.7508 0.38708 0.0
H3751 H 0.89133 0.7509 0.36878 0.0
H3752 H 0.92374 0.74181 0.31796 0.0
H3753 H 0.95336 0.74183 0.33605 0.0
H3754 H 0.90069 0.77268 0.3154 0.0
H3755 H 0.89525 0.70677 0.33469 0.0
H3756 H 0.89409 0.67932 0.35676 0.0
H3757 H 0.84444 0.70344 0.38328 0.0
H3758 H 0.84548 0.73123 0.36158 0.0
H3759 H 0.83081 0.75438 0.24859 0.0
H3760 H 0.85671 0.75287 0.27088 0.0
H3761 H 0.81705 0.76111 0.31665 0.0
H3762 H 0.79039 0.76173 0.29414 0.0
H3763 H 0.84225 0.73261 0.3241 0.0
H3764 H 0.84785 0.79829 0.3017 0.0
H3765 H 0.84941 0.82344 0.27717 0.0
H3766 H 0.89986 0.79723 0.25421 0.0
H3767 H 0.89848 0.7718 0.27845 0.0
C3768 C 0.92171 0.74852 0.37204 0.0
C3769 C 0.93953 0.74654 0.36301 0.0
C3770 C 0.90479 0.74849 0.36163 0.0
C3771 C 0.90538 0.74641 0.34204 0.0
C3772 C 0.92303 0.74352 0.33308 0.0
C3773 C 0.93994 0.74352 0.34346 0.0
C3774 C 0.88789 0.74904 0.33068 0.0
C3775 C 0.88797 0.7638 0.31719 0.0
C3776 C 0.87115 0.7378 0.33343 0.0
C3777 C 0.87062 0.72124 0.34667 0.0
C3778 C 0.88423 0.70636 0.34538 0.0
C3779 C 0.88356 0.6907 0.3578 0.0
C3780 C 0.86924 0.68968 0.37147 0.0
C3781 C 0.85555 0.70429 0.37273 0.0
C3782 C 0.85617 0.71999 0.36037 0.0
C3783 C 0.82741 0.75616 0.26334 0.0
C3784 C 0.80842 0.75835 0.26952 0.0
C3785 C 0.84237 0.75535 0.27611 0.0
C3786 C 0.8389 0.7573 0.2954 0.0
C3787 C 0.82003 0.75973 0.30177 0.0
C3788 C 0.80485 0.76023 0.2889 0.0
C3789 C 0.85516 0.7561 0.30866 0.0
C3790 C 0.85487 0.74167 0.32253 0.0
C3791 C 0.87187 0.76748 0.30613 0.0
C3792 C 0.87302 0.78312 0.29188 0.0
C3793 C 0.85925 0.79788 0.2914 0.0
C3794 C 0.8601 0.81218 0.27753 0.0
C3795 C 0.87472 0.81193 0.26413 0.0
C3796 C 0.88856 0.79742 0.26461 0.0
C3797 C 0.88778 0.78309 0.27843 0.0
H3798 H 0.87532 0.82299 0.25339 0.0
H3799 H 0.86873 0.67753 0.38105 0.0
H3800 H 0.5227 0.29658 0.90633 0.0
H3801 H 0.52544 0.32923 0.91881 0.0
H3802 H 0.46698 0.34033 0.90208 0.0
H3803 H 0.46636 0.30935 0.88575 0.0
H3804 H 0.48144 0.36955 0.8965 0.0
H3805 H 0.49195 0.33539 0.96019 0.0
H3806 H 0.50995 0.31381 0.98161 0.0
H3807 H 0.56289 0.33797 0.96199 0.0
H3808 H 0.54523 0.36008 0.94105 0.0
H3809 H 0.4593 0.43091 0.9776 0.0
H3810 H 0.46312 0.40395 0.95531 0.0
H3811 H 0.51778 0.42712 0.93824 0.0
H3812 H 0.51362 0.45452 0.95956 0.0
H3813 H 0.51209 0.38522 0.9574 0.0
H3814 H 0.49576 0.42879 0.9083 0.0
H3815 H 0.47642 0.45249 0.89124 0.0
H3816 H 0.43094 0.41081 0.88587 0.0
H3817 H 0.44997 0.3868 0.90318 0.0
C3818 C 0.51043 0.30608 0.90558 0.0
C3819 C 0.49391 0.30023 0.89596 0.0
C3820 C 0.51182 0.32475 0.91312 0.0
C3821 C 0.4962 0.33753 0.91232 0.0
C3822 C 0.47946 0.33118 0.903 0.0
C3823 C 0.47874 0.31315 0.89412 0.0
C3824 C 0.49726 0.35778 0.91998 0.0
C3825 C 0.48775 0.37261 0.91009 0.0
C3826 C 0.50678 0.36277 0.937 0.0
C3827 C 0.51733 0.3488 0.94869 0.0
C3828 C 0.50743 0.33574 0.96024 0.0
C3829 C 0.51753 0.32356 0.97235 0.0
C3830 C 0.5375 0.32421 0.97283 0.0
C3831 C 0.54743 0.33731 0.96146 0.0
C3832 C 0.53739 0.34976 0.94959 0.0
C3833 C 0.4717 0.43062 0.96846 0.0
C3834 C 0.48601 0.44485 0.97002 0.0
C3835 C 0.47391 0.41527 0.95586 0.0
C3836 C 0.49066 0.41376 0.94511 0.0
C3837 C 0.50464 0.4283 0.94618 0.0
C3838 C 0.50216 0.44397 0.95827 0.0
C3839 C 0.49457 0.3957 0.93487 0.0
C3840 C 0.50546 0.38168 0.94401 0.0
C3841 C 0.48591 0.39137 0.9175 0.0
C3842 C 0.47436 0.40592 0.90717 0.0
C3843 C 0.48162 0.42462 0.90366 0.0
C3844 C 0.4707 0.43816 0.89388 0.0
C3845 C 0.45244 0.43318 0.88748 0.0
C3846 C 0.44509 0.41465 0.89083 0.0
C3847 C 0.45598 0.40105 0.9006 0.0
H3848 H 0.44399 0.44368 0.87991 0.0
H3849 H 0.54525 0.31473 0.98218 0.0
H3850 H 0.91928 0.24069 0.1167 0.0
H3851 H 0.89031 0.24632 0.13498 0.0
H3852 H 0.92438 0.26759 0.18125 0.0
H3853 H 0.9535 0.26151 0.16323 0.0
H3854 H 0.89817 0.24436 0.19394 0.0
H3855 H 0.89736 0.29843 0.15256 0.0
H3856 H 0.89889 0.31535 0.12211 0.0
H3857 H 0.84873 0.28473 0.10343 0.0
H3858 H 0.84707 0.2674 0.13366 0.0
H3859 H 0.81611 0.25996 0.24532 0.0
H3860 H 0.84346 0.27239 0.2275 0.0
H3861 H 0.81921 0.24862 0.17662 0.0
H3862 H 0.7914 0.23726 0.19435 0.0
H3863 H 0.84186 0.27881 0.16824 0.0
H3864 H 0.84685 0.22094 0.2073 0.0
H3865 H 0.84538 0.20362 0.23756 0.0
H3866 H 0.88823 0.24178 0.26037 0.0
H3867 H 0.88974 0.25949 0.2303 0.0
C3868 C 0.92066 0.24661 0.13075 0.0
C3869 C 0.93879 0.25064 0.13845 0.0
C3870 C 0.90403 0.24998 0.14115 0.0
C3871 C 0.90507 0.25776 0.1594 0.0
C3872 C 0.92315 0.26168 0.16718 0.0
C3873 C 0.93982 0.25815 0.15684 0.0
C3874 C 0.88735 0.26089 0.17065 0.0
C3875 C 0.88604 0.25228 0.18844 0.0
C3876 C 0.87134 0.27099 0.16347 0.0
C3877 C 0.87218 0.28151 0.14534 0.0
C3878 C 0.88673 0.29521 0.14191 0.0
C3879 C 0.88761 0.30488 0.1247 0.0
C3880 C 0.87393 0.30109 0.11083 0.0
C3881 C 0.85932 0.28765 0.11418 0.0
C3882 C 0.85839 0.27791 0.13136 0.0
C3883 C 0.81602 0.25866 0.23014 0.0
C3884 C 0.80142 0.2482 0.22109 0.0
C3885 C 0.83184 0.26541 0.21999 0.0
C3886 C 0.8337 0.26091 0.2008 0.0
C3887 C 0.81818 0.25222 0.19141 0.0
C3888 C 0.80218 0.24585 0.20152 0.0
C3889 C 0.85266 0.26199 0.19129 0.0
C3890 C 0.85418 0.27129 0.17383 0.0
C3891 C 0.86893 0.2525 0.19873 0.0
C3892 C 0.86826 0.24164 0.21665 0.0
C3893 C 0.8559 0.22567 0.2188 0.0
C3894 C 0.85505 0.21579 0.23591 0.0
C3895 C 0.86667 0.22162 0.2509 0.0
C3896 C 0.87921 0.2373 0.24877 0.0
C3897 C 0.88006 0.24726 0.2317 0.0
H3898 H 0.86599 0.21396 0.26414 0.0
H3899 H 0.87465 0.30859 0.09751 0.0
H3900 H 0.02543 0.69808 0.39576 0.0
H3901 H 0.02996 0.66625 0.41026 0.0
H3902 H 0.97276 0.66866 0.43306 0.0
H3903 H 0.96853 0.70065 0.41932 0.0
H3904 H 0.99583 0.65844 0.45915 0.0
H3905 H 0.98553 0.63839 0.39527 0.0
H3906 H 0.99099 0.63734 0.36103 0.0
H3907 H 0.04861 0.61831 0.37008 0.0
H3908 H 0.04358 0.61948 0.40439 0.0
H3909 H 0.98527 0.55834 0.48357 0.0
H3910 H 0.98295 0.59169 0.47221 0.0
H3911 H 0.04165 0.58935 0.45347 0.0
H3912 H 0.04378 0.55591 0.46437 0.0
H3913 H 0.01872 0.59978 0.42592 0.0
H3914 H 0.02725 0.61862 0.49081 0.0
H3915 H 0.01975 0.61818 0.52469 0.0
H3916 H 0.96291 0.63815 0.51315 0.0
H3917 H 0.96999 0.63848 0.47919 0.0
C3918 C 0.0138 0.69164 0.40368 0.0
C3919 C -0.0033 0.70178 0.40656 0.0
C3920 C 0.01636 0.67348 0.41191 0.0
C3921 C 0.00166 0.66507 0.4227 0.0
C3922 C 0.98434 0.67495 0.42495 0.0
C3923 C 0.98193 0.69318 0.41706 0.0
C3924 C 0.00449 0.64643 0.43247 0.0
C3925 C 0.00065 0.64555 0.45183 0.0
C3926 C 0.01112 0.62973 0.42301 0.0
C3927 C 0.01424 0.62925 0.40239 0.0
C3928 C -0.00058 0.63417 0.38996 0.0
C3929 C 0.00243 0.6335 0.37054 0.0
C3930 C 0.02015 0.62782 0.36339 0.0
C3931 C 0.0349 0.62275 0.37564 0.0
C3932 C 0.03198 0.6234 0.39507 0.0
C3933 C -0.0022 0.56522 0.47758 0.0
C3934 C 0.01467 0.5547 0.4748 0.0
C3935 C -0.00352 0.58421 0.47105 0.0
C3936 C 0.01216 0.59296 0.46202 0.0
C3937 C 0.02938 0.5828 0.46033 0.0
C3938 C 0.0306 0.56378 0.46658 0.0
C3939 C 0.0101 0.61184 0.45257 0.0
C3940 C 0.01405 0.61273 0.43325 0.0
C3941 C 0.00331 0.62845 0.46201 0.0
C3942 C -0.00088 0.62844 0.48245 0.0
C3943 C 0.01312 0.6228 0.4955 0.0
C3944 C 0.00895 0.62259 0.51471 0.0
C3945 C 0.99085 0.6281 0.52106 0.0
C3946 C 0.97691 0.63388 0.50821 0.0
C3947 C 0.98101 0.63411 0.48898 0.0
H3948 H 0.98765 0.62791 0.53595 0.0
H3949 H 0.02244 0.6273 0.34835 0.0
H3950 H 0.56209 0.73701 0.62779 0.0
H3951 H 0.59244 0.73653 0.64515 0.0
H3952 H 0.56714 0.77089 0.68922 0.0
H3953 H 0.53686 0.77133 0.67209 0.0
H3954 H 0.60392 0.78347 0.67867 0.0
H3955 H 0.57121 0.72325 0.69477 0.0
H3956 H 0.55587 0.69199 0.68699 0.0
H3957 H 0.60765 0.67266 0.66065 0.0
H3958 H 0.62322 0.70393 0.66804 0.0
H3959 H 0.67616 0.77834 0.74551 0.0
H3960 H 0.64411 0.7747 0.73194 0.0
H3961 H 0.6646 0.72812 0.69679 0.0
H3962 H 0.69606 0.73077 0.71155 0.0
H3963 H 0.63005 0.72135 0.70207 0.0
H3964 H 0.66311 0.77875 0.68292 0.0
H3965 H 0.68031 0.80977 0.68699 0.0
H3966 H 0.63095 0.83437 0.71365 0.0
H3967 H 0.61353 0.8034 0.70996 0.0
C3968 C 0.56307 0.74463 0.64108 0.0
C3969 C 0.54706 0.75418 0.64858 0.0
C3970 C 0.58038 0.74424 0.65104 0.0
C3971 C 0.58198 0.75351 0.66858 0.0
C3972 C 0.56621 0.76359 0.67575 0.0
C3973 C 0.5489 0.76381 0.66594 0.0
C3974 C 0.59995 0.75258 0.67972 0.0
C3975 C 0.60954 0.76992 0.68398 0.0
C3976 C 0.60764 0.73484 0.68606 0.0
C3977 C 0.59832 0.71599 0.68181 0.0
C3978 C 0.57928 0.71239 0.6872 0.0
C3979 C 0.57055 0.69466 0.68288 0.0
C3980 C 0.58076 0.68037 0.67329 0.0
C3981 C 0.59975 0.68375 0.66805 0.0
C3982 C 0.60853 0.70147 0.67232 0.0
C3983 C 0.67347 0.76676 0.73554 0.0
C3984 C 0.68839 0.75465 0.72974 0.0
C3985 C 0.65528 0.76491 0.72747 0.0
C3986 C 0.65202 0.75163 0.71273 0.0
C3987 C 0.66663 0.73858 0.70799 0.0
C3988 C 0.68461 0.74 0.71652 0.0
C3989 C 0.6341 0.75233 0.70127 0.0
C3990 C 0.62451 0.73496 0.69684 0.0
C3991 C 0.62672 0.77002 0.69422 0.0
C3992 C 0.63709 0.78871 0.69633 0.0
C3993 C 0.65596 0.79075 0.68974 0.0
C3994 C 0.66575 0.80832 0.69197 0.0
C3995 C 0.65674 0.82402 0.70061 0.0
C3996 C 0.63791 0.82219 0.70699 0.0
C3997 C 0.62807 0.80464 0.70482 0.0
H3998 H 0.66434 0.83761 0.70233 0.0
H3999 H 0.57398 0.66666 0.66995 0.0
H4000 H 0.57232 0.50928 0.71659 0.0
H4001 H 0.55539 0.51084 0.68667 0.0
H4002 H 0.60272 0.48234 0.65929 0.0
H4003 H 0.62039 0.48245 0.6891 0.0
H4004 H 0.59056 0.50645 0.63649 0.0
H4005 H 0.5569 0.45903 0.67354 0.0
H4006 H 0.53956 0.44655 0.70122 0.0
H4007 H 0.49641 0.48993 0.69398 0.0
H4008 H 0.51362 0.50279 0.66637 0.0
H4009 H 0.54227 0.45945 0.56316 0.0
H4010 H 0.55362 0.46466 0.59503 0.0
H4011 H 0.51961 0.51634 0.59935 0.0
H4012 H 0.5084 0.51152 0.56685 0.0
H4013 H 0.52288 0.48459 0.63333 0.0
H4014 H 0.55734 0.52808 0.59175 0.0
H4015 H 0.57427 0.5344 0.56198 0.0
H4016 H 0.61704 0.49273 0.57675 0.0
H4017 H 0.59991 0.48554 0.60626 0.0
C4018 C 0.57905 0.50328 0.70416 0.0
C4019 C 0.59751 0.49545 0.70515 0.0
C4020 C 0.56932 0.50407 0.68704 0.0
C4021 C 0.57741 0.49617 0.67065 0.0
C4022 C 0.59602 0.48849 0.67165 0.0
C4023 C 0.60608 0.48839 0.6887 0.0
C4024 C 0.5665 0.49583 0.65255 0.0
C4025 C 0.57579 0.50159 0.63591 0.0
C4026 C 0.54706 0.48978 0.65154 0.0
C4027 C 0.53664 0.48198 0.66804 0.0
C4028 C 0.54377 0.46596 0.67793 0.0
C4029 C 0.53396 0.45882 0.69359 0.0
C4030 C 0.51692 0.46748 0.69939 0.0
C4031 C 0.50962 0.48326 0.68949 0.0
C4032 C 0.51938 0.49047 0.67383 0.0
C4033 C 0.53689 0.47182 0.57087 0.0
C4034 C 0.52459 0.48527 0.56227 0.0
C4035 C 0.54343 0.47473 0.58913 0.0
C4036 C 0.53767 0.491 0.59938 0.0
C4037 C 0.52425 0.50372 0.59155 0.0
C4038 C 0.51781 0.50093 0.57303 0.0
C4039 C 0.54702 0.49506 0.61763 0.0
C4040 C 0.53751 0.48984 0.63417 0.0
C4041 C 0.56637 0.50111 0.61847 0.0
C4042 C 0.5772 0.50612 0.60116 0.0
C4043 C 0.57024 0.5201 0.58857 0.0
C4044 C 0.57985 0.52382 0.57172 0.0
C4045 C 0.59671 0.51395 0.56747 0.0
C4046 C 0.60397 0.50035 0.58006 0.0
C4047 C 0.59428 0.49641 0.59684 0.0
H4048 H 0.60414 0.51686 0.55442 0.0
H4049 H 0.50935 0.46194 0.71153 0.0
H4050 H 0.76183 0.33006 0.95395 0.0
H4051 H 0.76287 0.31183 0.92446 0.0
H4052 H 0.73097 0.3569 0.89697 0.0
H4053 H 0.73048 0.37562 0.92624 0.0
H4054 H 0.73373 0.2983 0.89891 0.0
H4055 H 0.748 0.36744 0.86725 0.0
H4056 H 0.76467 0.39876 0.87195 0.0
H4057 H 0.8136 0.36901 0.89387 0.0
H4058 H 0.79691 0.33763 0.88986 0.0
H4059 H 0.73303 0.28177 0.79907 0.0
H4060 H 0.73098 0.30197 0.82738 0.0
H4061 H 0.78649 0.28201 0.84494 0.0
H4062 H 0.78821 0.26105 0.81701 0.0
H4063 H 0.77264 0.32787 0.84793 0.0
H4064 H 0.76363 0.26025 0.8654 0.0
H4065 H 0.74924 0.22785 0.86134 0.0
H4066 H 0.69329 0.25169 0.86958 0.0
H4067 H 0.70739 0.28443 0.87313 0.0
C4068 C 0.75473 0.33595 0.94171 0.0
C4069 C 0.74619 0.35435 0.94235 0.0
C4070 C 0.75541 0.32554 0.92488 0.0
C4071 C 0.74741 0.33327 0.90849 0.0
C4072 C 0.73774 0.351 0.90937 0.0
C4073 C 0.73731 0.36157 0.92612 0.0
C4074 C 0.7501 0.32327 0.8903 0.0
C4075 C 0.74209 0.3048 0.88771 0.0
C4076 C 0.76133 0.33159 0.87587 0.0
C4077 C 0.77121 0.35035 0.87843 0.0
C4078 C 0.76227 0.36767 0.87319 0.0
C4079 C 0.77167 0.3854 0.87579 0.0
C4080 C 0.79016 0.38588 0.88327 0.0
C4081 C 0.79924 0.36864 0.88821 0.0
C4082 C 0.78978 0.3509 0.8859 0.0
C4083 C 0.74504 0.28219 0.80868 0.0
C4084 C 0.76088 0.27011 0.80589 0.0
C4085 C 0.74377 0.29356 0.82487 0.0
C4086 C 0.75852 0.29327 0.83819 0.0
C4087 C 0.77499 0.28232 0.83475 0.0
C4088 C 0.776 0.27046 0.81884 0.0
C4089 C 0.75595 0.30308 0.8564 0.0
C4090 C 0.76408 0.32145 0.85903 0.0
C4091 C 0.74497 0.29452 0.87092 0.0
C4092 C 0.73651 0.27487 0.86895 0.0
C4093 C 0.74823 0.25868 0.86592 0.0
C4094 C 0.74014 0.24024 0.86379 0.0
C4095 C 0.72033 0.23776 0.86499 0.0
C4096 C 0.70861 0.2537 0.86845 0.0
C4097 C 0.71664 0.27219 0.87048 0.0
H4098 H 0.71409 0.22347 0.86339 0.0
H4099 H 0.79746 0.39961 0.88519 0.0
H4100 H 0.87958 0.51034 0.18765 0.0
H4101 H 0.89652 0.51268 0.15765 0.0
H4102 H 0.94683 0.48809 0.18336 0.0
H4103 H 0.93037 0.48752 0.21366 0.0
H4104 H 0.95907 0.51269 0.16243 0.0
H4105 H 0.91365 0.46275 0.15044 0.0
H4106 H 0.88243 0.44608 0.14842 0.0
H4107 H 0.86245 0.48899 0.10961 0.0
H4108 H 0.89345 0.50608 0.1116 0.0
H4109 H 0.99021 0.4918 0.06352 0.0
H4110 H 0.97969 0.48664 0.0961 0.0
H4111 H 0.94518 0.53805 0.09319 0.0
H4112 H 0.95574 0.54361 0.06102 0.0
H4113 H 0.92764 0.49571 0.10211 0.0
H4114 H 0.97561 0.54607 0.11885 0.0
H4115 H 0.00893 0.558 0.1198 0.0
H4116 H 0.02616 0.50641 0.14869 0.0
H4117 H 0.99295 0.49411 0.14772 0.0
C4118 C 0.89427 0.5055 0.1868 0.0
C4119 C 0.90373 0.49881 0.20288 0.0
C4120 C 0.90392 0.50659 0.1696 0.0
C4121 C 0.92293 0.50011 0.16793 0.0
C4122 C 0.93225 0.49324 0.1841 0.0
C4123 C 0.92283 0.49287 0.20144 0.0
C4124 C 0.93332 0.50122 0.1496 0.0
C4125 C 0.95216 0.50861 0.14936 0.0
C4126 C 0.92464 0.49585 0.13229 0.0
C4127 C 0.90583 0.4858 0.13132 0.0
C4128 C 0.90254 0.46873 0.14161 0.0
C4129 C 0.88489 0.45919 0.14044 0.0
C4130 C 0.87045 0.4665 0.12893 0.0
C4131 C 0.87364 0.48336 0.11855 0.0
C4132 C 0.89125 0.49297 0.11968 0.0
C4133 C 0.9808 0.5023 0.06998 0.0
C4134 C 0.97369 0.51803 0.05957 0.0
C4135 C 0.97477 0.49928 0.08855 0.0
C4136 C 0.9616 0.51193 0.09689 0.0
C4137 C 0.95531 0.52813 0.08691 0.0
C4138 C 0.96139 0.53125 0.06851 0.0
C4139 C 0.95279 0.5075 0.11526 0.0
C4140 C 0.93436 0.49946 0.11538 0.0
C4141 C 0.96202 0.51161 0.13241 0.0
C4142 C 0.98188 0.5191 0.13302 0.0
C4143 C 0.98654 0.53721 0.12524 0.0
C4144 C 0.00539 0.54406 0.12583 0.0
C4145 C 0.01966 0.53295 0.13425 0.0
C4146 C 0.0151 0.51499 0.14215 0.0
C4147 C 0.99628 0.50809 0.1416 0.0
H4148 H 0.03425 0.53827 0.1347 0.0
H4149 H 0.85681 0.45907 0.12803 0.0
H4150 H 0.77852 0.62148 0.42715 0.0
H4151 H 0.78118 0.63968 0.39784 0.0
H4152 H 0.74616 0.6849 0.42127 0.0
H4153 H 0.74385 0.66698 0.45091 0.0
H4154 H 0.74782 0.64854 0.37708 0.0
H4155 H 0.7571 0.71739 0.40984 0.0
H4156 H 0.77551 0.73559 0.43376 0.0
H4157 H 0.82739 0.709 0.41461 0.0
H4158 H 0.80916 0.69038 0.3908 0.0
H4159 H 0.71131 0.71331 0.31322 0.0
H4160 H 0.72222 0.69525 0.34002 0.0
H4161 H 0.78077 0.70936 0.32626 0.0
H4162 H 0.7695 0.72898 0.29934 0.0
H4163 H 0.77399 0.71408 0.36382 0.0
H4164 H 0.7617 0.6619 0.32029 0.0
H4165 H 0.74274 0.64418 0.29652 0.0
H4166 H 0.69704 0.63681 0.33626 0.0
H4167 H 0.7156 0.65467 0.36018 0.0
C4168 C 0.77171 0.6355 0.42624 0.0
C4169 C 0.76093 0.64275 0.44139 0.0
C4170 C 0.77332 0.64593 0.40947 0.0
C4171 C 0.76417 0.66384 0.40739 0.0
C4172 C 0.75389 0.67144 0.42269 0.0
C4173 C 0.75244 0.66109 0.43961 0.0
C4174 C 0.76312 0.67299 0.38848 0.0
C4175 C 0.75362 0.66284 0.37414 0.0
C4176 C 0.77094 0.69145 0.38449 0.0
C4177 C 0.78181 0.70241 0.39879 0.0
C4178 C 0.77242 0.71537 0.41085 0.0
C4179 C 0.7828 0.72573 0.42437 0.0
C4180 C 0.80261 0.72342 0.42572 0.0
C4181 C 0.81205 0.71071 0.41358 0.0
C4182 C 0.8017 0.70019 0.40014 0.0
C4183 C 0.7266 0.71243 0.31558 0.0
C4184 C 0.73954 0.72262 0.30408 0.0
C4185 C 0.73284 0.7019 0.33097 0.0
C4186 C 0.75236 0.70054 0.33513 0.0
C4187 C 0.7656 0.71008 0.32329 0.0
C4188 C 0.75922 0.72105 0.30776 0.0
C4189 C 0.75819 0.68981 0.35241 0.0
C4190 C 0.76853 0.69961 0.36652 0.0
C4191 C 0.75099 0.67094 0.35625 0.0
C4192 C 0.74008 0.65962 0.34203 0.0
C4193 C 0.74761 0.6565 0.32395 0.0
C4194 C 0.73692 0.64645 0.31045 0.0
C4195 C 0.71871 0.63937 0.31488 0.0
C4196 C 0.71117 0.64226 0.33285 0.0
C4197 C 0.72179 0.6523 0.3464 0.0
H4198 H 0.71043 0.63164 0.30439 0.0
H4199 H 0.81064 0.73151 0.43614 0.0
H4200 H 0.58381 0.50871 0.80102 0.0
H4201 H 0.56497 0.50444 0.8299 0.0
H4202 H 0.61363 0.47867 0.85705 0.0
H4203 H 0.63272 0.48337 0.82853 0.0
H4204 H 0.56827 0.46022 0.85775 0.0
H4205 H 0.61328 0.51614 0.87089 0.0
H4206 H 0.62531 0.54833 0.86134 0.0
H4207 H 0.56792 0.57019 0.86081 0.0
H4208 H 0.55556 0.53801 0.87 0.0
H4209 H 0.55526 0.50102 0.96077 0.0
H4210 H 0.57264 0.49004 0.93289 0.0
H4211 H 0.51921 0.48027 0.90408 0.0
H4212 H 0.50187 0.49127 0.93199 0.0
H4213 H 0.56579 0.51504 0.9028 0.0
H4214 H 0.53093 0.45341 0.8617 0.0
H4215 H 0.515 0.4217 0.86541 0.0
H4216 H 0.5441 0.413 0.91767 0.0
H4217 H 0.56044 0.44476 0.91426 0.0
C4218 C 0.59047 0.50207 0.81313 0.0
C4219 C 0.6098 0.49648 0.81253 0.0
C4220 C 0.57968 0.4996 0.82956 0.0
C4221 C 0.58792 0.49115 0.84551 0.0
C4222 C 0.60703 0.48514 0.84483 0.0
C4223 C 0.61794 0.48798 0.82858 0.0
C4224 C 0.57705 0.48956 0.86331 0.0
C4225 C 0.56768 0.47213 0.8677 0.0
C4226 C 0.57592 0.50528 0.87592 0.0
C4227 C 0.58351 0.52467 0.87095 0.0
C4228 C 0.60324 0.52778 0.86858 0.0
C4229 C 0.61011 0.54602 0.86326 0.0
C4230 C 0.59739 0.56129 0.86043 0.0
C4231 C 0.57777 0.55836 0.86298 0.0
C4232 C 0.57083 0.54013 0.86825 0.0
C4233 C 0.54723 0.49532 0.94894 0.0
C4234 C 0.52725 0.49683 0.94857 0.0
C4235 C 0.55716 0.48924 0.9329 0.0
C4236 C 0.54726 0.48453 0.91628 0.0
C4237 C 0.5272 0.48367 0.91672 0.0
C4238 C 0.51728 0.48985 0.93276 0.0
C4239 C 0.55754 0.48524 0.89796 0.0
C4240 C 0.56651 0.50286 0.89316 0.0
C4241 C 0.55747 0.4699 0.88467 0.0
C4242 C 0.54689 0.45149 0.88775 0.0
C4243 C 0.53394 0.44477 0.87403 0.0
C4244 C 0.52492 0.42678 0.87604 0.0
C4245 C 0.52877 0.41529 0.89169 0.0
C4246 C 0.54136 0.42194 0.90553 0.0
C4247 C 0.55041 0.43998 0.90363 0.0
H4248 H 0.52184 0.40132 0.89321 0.0
H4249 H 0.60273 0.57539 0.8563 0.0
H4250 H 0.72353 0.35023 0.05186 0.0
H4251 H 0.72212 0.33341 0.08223 0.0
H4252 H 0.78348 0.32704 0.08149 0.0
H4253 H 0.7849 0.34437 0.05131 0.0
H4254 H 0.76243 0.29204 0.08958 0.0
H4255 H 0.76796 0.35739 0.11054 0.0
H4256 H 0.76051 0.3922 0.11237 0.0
H4257 H 0.7035 0.37873 0.13082 0.0
H4258 H 0.71052 0.3438 0.12882 0.0
H4259 H 0.76635 0.26396 0.18814 0.0
H4260 H 0.7716 0.27626 0.15623 0.0
H4261 H 0.71192 0.29134 0.15243 0.0
H4262 H 0.70665 0.27921 0.18418 0.0
H4263 H 0.73548 0.32228 0.14701 0.0
H4264 H 0.72993 0.25651 0.12471 0.0
H4265 H 0.738 0.22181 0.12332 0.0
H4266 H 0.79581 0.23618 0.10816 0.0
H4267 H 0.78813 0.27099 0.10968 0.0
C4268 C 0.73667 0.34545 0.05839 0.0
C4269 C 0.75432 0.34867 0.04958 0.0
C4270 C 0.73588 0.33585 0.07562 0.0
C4271 C 0.75271 0.32903 0.08405 0.0
C4272 C 0.77037 0.33222 0.07518 0.0
C4273 C 0.77119 0.34219 0.05811 0.0
C4274 C 0.75165 0.3183 0.10199 0.0
C4275 C 0.75682 0.29868 0.10225 0.0
C4276 C 0.74411 0.32697 0.11837 0.0
C4277 C 0.73971 0.34796 0.11931 0.0
C4278 C 0.75376 0.36184 0.11477 0.0
C4279 C 0.74963 0.3816 0.11589 0.0
C4280 C 0.73152 0.38768 0.12165 0.0
C4281 C 0.71751 0.374 0.12632 0.0
C4282 C 0.72156 0.35422 0.1252 0.0
C4283 C 0.75425 0.26927 0.18023 0.0
C4284 C 0.73614 0.27081 0.18868 0.0
C4285 C 0.75727 0.27636 0.16203 0.0
C4286 C 0.74217 0.2849 0.15208 0.0
C4287 C 0.72379 0.28498 0.15997 0.0
C4288 C 0.7208 0.278 0.17808 0.0
C4289 C 0.74573 0.29582 0.13452 0.0
C4290 C 0.74114 0.31559 0.13437 0.0
C4291 C 0.75385 0.28726 0.11833 0.0
C4292 C 0.75851 0.26635 0.11752 0.0
C4293 C 0.74441 0.25227 0.12126 0.0
C4294 C 0.7489 0.23258 0.1204 0.0
C4295 C 0.76742 0.22679 0.11571 0.0
C4296 C 0.78148 0.24068 0.11182 0.0
C4297 C 0.77706 0.2604 0.11266 0.0
H4298 H 0.77086 0.21154 0.11504 0.0
H4299 H 0.72836 0.40298 0.12254 0.0
H4300 H 0.915 0.51277 0.29844 0.0
H4301 H 0.93277 0.51528 0.3281 0.0
H4302 H 0.88597 0.48723 0.35708 0.0
H4303 H 0.86793 0.4858 0.32814 0.0
H4304 H 0.89815 0.5143 0.37784 0.0
H4305 H 0.92983 0.46362 0.34061 0.0
H4306 H 0.94813 0.45147 0.31339 0.0
H4307 H 0.99273 0.49293 0.3246 0.0
H4308 H 0.97458 0.50544 0.35176 0.0
H4309 H 0.97544 0.45853 0.4377 0.0
H4310 H 0.95481 0.46305 0.41031 0.0
H4311 H 0.94349 0.52175 0.42826 0.0
H4312 H 0.96257 0.51648 0.45643 0.0
H4313 H 0.96232 0.48479 0.38341 0.0
H4314 H 0.90618 0.54144 0.40403 0.0
H4315 H 0.88707 0.55193 0.43132 0.0
H4316 H 0.88955 0.49452 0.45426 0.0
H4317 H 0.90832 0.48358 0.42688 0.0
C4318 C 0.90853 0.50725 0.31119 0.0
C4319 C 0.8901 0.49897 0.31089 0.0
C4320 C 0.9187 0.50863 0.32811 0.0
C4321 C 0.9108 0.50124 0.34483 0.0
C4322 C 0.89237 0.49316 0.34445 0.0
C4323 C 0.88209 0.49221 0.32777 0.0
C4324 C 0.92153 0.50118 0.36282 0.0
C4325 C 0.91221 0.50785 0.37908 0.0
C4326 C 0.93998 0.49305 0.36444 0.0
C4327 C 0.95076 0.48561 0.34804 0.0
C4328 C 0.94348 0.47022 0.33717 0.0
C4329 C 0.95383 0.46326 0.32178 0.0
C4330 C 0.97156 0.47146 0.31723 0.0
C4331 C 0.97898 0.48662 0.3281 0.0
C4332 C 0.96867 0.49365 0.34349 0.0
C4333 C 0.9677 0.47199 0.43619 0.0
C4334 C 0.97022 0.48702 0.44921 0.0
C4335 C 0.95618 0.47473 0.42043 0.0
C4336 C 0.9476 0.4928 0.41708 0.0
C4337 C 0.94948 0.50753 0.43062 0.0
C4338 C 0.96038 0.50451 0.44677 0.0
C4339 C 0.93832 0.49655 0.39867 0.0
C4340 C 0.94819 0.49111 0.38227 0.0
C4341 C 0.92021 0.50547 0.39699 0.0
C4342 C 0.90885 0.51176 0.41351 0.0
C4343 C 0.90259 0.53104 0.41488 0.0
C4344 C 0.89181 0.53707 0.43035 0.0
C4345 C 0.88716 0.52392 0.44456 0.0
C4346 C 0.89322 0.5047 0.44327 0.0
C4347 C 0.90392 0.49857 0.42777 0.0
H4348 H 0.87882 0.52861 0.45654 0.0
H4349 H 0.97956 0.46604 0.30532 0.0
H4350 H 0.7565 0.61747 0.56392 0.0
H4351 H 0.75961 0.63043 0.59591 0.0
H4352 H 0.75311 0.68842 0.57433 0.0
H4353 H 0.75107 0.67559 0.54244 0.0
H4354 H 0.77995 0.68931 0.59772 0.0
H4355 H 0.71659 0.65962 0.59995 0.0
H4356 H 0.69348 0.63254 0.5981 0.0
H4357 H 0.72399 0.60237 0.64135 0.0
H4358 H 0.7474 0.62919 0.64331 0.0
H4359 H 0.74796 0.74809 0.66866 0.0
H4360 H 0.75017 0.72599 0.6425 0.0
H4361 H 0.76746 0.68015 0.67975 0.0
H4362 H 0.76471 0.70249 0.70679 0.0
H4363 H 0.74071 0.66791 0.652 0.0
H4364 H 0.80095 0.7013 0.65252 0.0
H4365 H 0.82162 0.73026 0.65513 0.0
H4366 H 0.79488 0.75478 0.60643 0.0
H4367 H 0.77389 0.7261 0.60365 0.0
C4368 C 0.75573 0.63298 0.56606 0.0
C4369 C 0.75363 0.64552 0.55062 0.0
C4370 C 0.75737 0.6404 0.58441 0.0
C4371 C 0.75643 0.66048 0.58776 0.0
C4372 C 0.75404 0.6729 0.57228 0.0
C4373 C 0.75283 0.66555 0.55398 0.0
C4374 C 0.75853 0.66895 0.6071 0.0
C4375 C 0.77124 0.68461 0.60949 0.0
C4376 C 0.74787 0.66243 0.6229 0.0
C4377 C 0.73388 0.64629 0.6216 0.0
C4378 C 0.71846 0.64714 0.60895 0.0
C4379 C 0.70529 0.63185 0.60791 0.0
C4380 C 0.70731 0.61571 0.61955 0.0
C4381 C 0.72247 0.61485 0.63231 0.0
C4382 C 0.73568 0.63009 0.63339 0.0
C4383 C 0.75241 0.7334 0.67156 0.0
C4384 C 0.75644 0.72727 0.69002 0.0
C4385 C 0.75365 0.7207 0.65641 0.0
C4386 C 0.75935 0.70147 0.659 0.0
C4387 C 0.76316 0.69499 0.67737 0.0
C4388 C 0.76172 0.7078 0.69279 0.0
C4389 C 0.76137 0.68874 0.64212 0.0
C4390 C 0.74961 0.67228 0.64025 0.0
C4391 C 0.77275 0.69457 0.62665 0.0
C4392 C 0.78586 0.71153 0.62788 0.0
C4393 C 0.79948 0.71288 0.64237 0.0
C4394 C 0.81123 0.72925 0.64389 0.0
C4395 C 0.80957 0.74435 0.63095 0.0
C4396 C 0.79619 0.74307 0.61642 0.0
C4397 C 0.78439 0.72673 0.61483 0.0
H4398 H 0.81864 0.75704 0.63219 0.0
H4399 H 0.69709 0.6039 0.61873 0.0
H4400 H 0.70931 0.57651 0.50391 0.0
H4401 H 0.67702 0.56248 0.50262 0.0
H4402 H 0.65759 0.61185 0.47117 0.0
H4403 H 0.6901 0.62553 0.4718 0.0
H4404 H 0.64473 0.59106 0.5175 0.0
H4405 H 0.64013 0.59397 0.44676 0.0
H4406 H 0.64693 0.58515 0.41382 0.0
H4407 H 0.64911 0.52504 0.42905 0.0
H4408 H 0.64251 0.53359 0.4621 0.0
H4409 H 0.54289 0.55139 0.48845 0.0
H4410 H 0.57032 0.57424 0.48878 0.0
H4411 H 0.60524 0.53073 0.51494 0.0
H4412 H 0.57848 0.50843 0.51502 0.0
H4413 H 0.60769 0.55398 0.47008 0.0
H4414 H 0.61045 0.5512 0.5409 0.0
H4415 H 0.60038 0.55996 0.57297 0.0
H4416 H 0.6014 0.62017 0.55821 0.0
H4417 H 0.61124 0.61175 0.52595 0.0
C4418 C 0.69837 0.58388 0.49593 0.0
C4419 C 0.70237 0.60177 0.48738 0.0
C4420 C 0.67989 0.57592 0.49529 0.0
C4421 C 0.66494 0.58585 0.48636 0.0
C4422 C 0.66898 0.60359 0.47756 0.0
C4423 C 0.68751 0.61148 0.47808 0.0
C4424 C 0.6448 0.57947 0.48941 0.0
C4425 C 0.63654 0.58307 0.50706 0.0
C4426 C 0.63405 0.56916 0.47585 0.0
C4427 C 0.6414 0.56448 0.45694 0.0
C4428 C 0.64266 0.57896 0.44318 0.0
C4429 C 0.64615 0.57397 0.42443 0.0
C4430 C 0.64842 0.55454 0.41933 0.0
C4431 C 0.64736 0.54008 0.43299 0.0
C4432 C 0.64384 0.545 0.45173 0.0
C4433 C 0.5563 0.54697 0.4947 0.0
C4434 C 0.5586 0.52789 0.50121 0.0
C4435 C 0.57189 0.56008 0.49509 0.0
C4436 C 0.58974 0.55443 0.50248 0.0
C4437 C 0.59153 0.53578 0.50988 0.0
C4438 C 0.57622 0.52283 0.50943 0.0
C4439 C 0.60763 0.56533 0.49823 0.0
C4440 C 0.61566 0.56235 0.48041 0.0
C4441 C 0.61818 0.57607 0.51174 0.0
C4442 C 0.61073 0.58075 0.5307 0.0
C4443 C 0.60785 0.56622 0.54422 0.0
C4444 C 0.6024 0.57115 0.56254 0.0
C4445 C 0.59994 0.59056 0.56754 0.0
C4446 C 0.60315 0.60512 0.5543 0.0
C4447 C 0.60863 0.60027 0.536 0.0
H4448 H 0.59573 0.59432 0.58172 0.0
H4449 H 0.65108 0.5507 0.40481 0.0
H4450 H 0.19273 0.8806 0.50196 0.0
H4451 H 0.16044 0.89409 0.50499 0.0
H4452 H 0.18291 0.95143 0.49481 0.0
H4453 H 0.21497 0.9382 0.49167 0.0
H4454 H 0.15655 0.95021 0.5242 0.0
H4455 H 0.16261 0.9287 0.46009 0.0
H4456 H 0.16899 0.90521 0.43472 0.0
H4457 H 0.1234 0.86879 0.45476 0.0
H4458 H 0.11696 0.89191 0.48045 0.0
H4459 H 0.06482 0.99405 0.50428 0.0
H4460 H 0.09845 0.98411 0.50071 0.0
H4461 H 0.08196 0.92454 0.50973 0.0
H4462 H 0.04883 0.93421 0.51344 0.0
H4463 H 0.10606 0.92899 0.47957 0.0
H4464 H 0.10081 0.94853 0.54422 0.0
H4465 H 0.09434 0.97078 0.57058 0.0
H4466 H 0.13804 0.00959 0.55069 0.0
H4467 H 0.14453 0.98771 0.52397 0.0
C4468 C 0.19078 0.89609 0.50056 0.0
C4469 C 0.20636 0.9083 0.49644 0.0
C4470 C 0.17236 0.90375 0.5022 0.0
C4471 C 0.16934 0.92373 0.49994 0.0
C4472 C 0.18496 0.93599 0.49655 0.0
C4473 C 0.20326 0.92835 0.49468 0.0
C4474 C 0.14985 0.93189 0.50052 0.0
C4475 C 0.14555 0.94579 0.5143 0.0
C4476 C 0.13553 0.92589 0.48772 0.0
C4477 C 0.13945 0.91193 0.47233 0.0
C4478 C 0.15407 0.91559 0.45921 0.0
C4479 C 0.15768 0.90236 0.44475 0.0
C4480 C 0.14665 0.88549 0.44316 0.0
C4481 C 0.13196 0.88184 0.45602 0.0
C4482 C 0.12833 0.895 0.47054 0.0
C4483 C 0.06846 0.97887 0.50546 0.0
C4484 C 0.05427 0.96495 0.50937 0.0
C4485 C 0.08759 0.97323 0.50347 0.0
C4486 C 0.09262 0.9536 0.50507 0.0
C4487 C 0.07837 0.93974 0.50848 0.0
C4488 C 0.05945 0.94535 0.51073 0.0
C4489 C 0.11266 0.94713 0.5034 0.0
C4490 C 0.1171 0.93356 0.48937 0.0
C4491 C 0.12703 0.95331 0.51607 0.0
C4492 C 0.12293 0.96664 0.53192 0.0
C4493 C 0.10886 0.96194 0.54531 0.0
C4494 C 0.10523 0.97445 0.56035 0.0
C4495 C 0.11571 0.99163 0.56226 0.0
C4496 C 0.12987 -0.00369 0.54914 0.0
C4497 C 0.13352 0.98387 0.53404 0.0
H4498 H 0.11291 0.00128 0.57394 0.0
H4499 H 0.14945 0.87528 0.43194 0.0
H4500 H 0.38111 0.93186 0.7755 0.0
H4501 H 0.36532 0.90002 0.77538 0.0
H4502 H 0.32957 0.91857 0.72927 0.0
H4503 H 0.34385 0.95077 0.73101 0.0
H4504 H 0.30851 0.90374 0.75121 0.0
H4505 H 0.36844 0.8817 0.72745 0.0
H4506 H 0.40342 0.87729 0.72688 0.0
H4507 H 0.40067 0.84678 0.77935 0.0
H4508 H 0.36568 0.85119 0.78032 0.0
H4509 H 0.26321 0.82079 0.72594 0.0
H4510 H 0.28712 0.8465 0.72695 0.0
H4511 H 0.30916 0.82378 0.77905 0.0
H4512 H 0.28561 0.79702 0.77746 0.0
H4513 H 0.33794 0.83893 0.75627 0.0
H4514 H 0.27793 0.86053 0.78055 0.0
H4515 H 0.24297 0.86508 0.78096 0.0
H4516 H 0.24639 0.89792 0.72989 0.0
H4517 H 0.28132 0.8933 0.72899 0.0
C4518 C 0.36984 0.92894 0.76542 0.0
C4519 C 0.36319 0.94367 0.75364 0.0
C4520 C 0.36103 0.91068 0.76511 0.0
C4521 C 0.34625 0.90668 0.75222 0.0
C4522 C 0.34069 0.92123 0.73956 0.0
C4523 C 0.34884 0.93963 0.7405 0.0
C4524 C 0.33507 0.88828 0.75301 0.0
C4525 C 0.31509 0.88971 0.75257 0.0
C4526 C 0.34349 0.86972 0.75467 0.0
C4527 C 0.36448 0.86693 0.75404 0.0
C4528 C 0.37531 0.87416 0.73892 0.0
C4529 C 0.39513 0.87164 0.73851 0.0
C4530 C 0.40426 0.86181 0.75309 0.0
C4531 C 0.39358 0.85441 0.76807 0.0
C4532 C 0.37375 0.85689 0.76854 0.0
C4533 C 0.27319 0.82124 0.7376 0.0
C4534 C 0.27232 0.80738 0.75193 0.0
C4535 C 0.28688 0.83586 0.73812 0.0
C4536 C 0.29953 0.83735 0.75335 0.0
C4537 C 0.29939 0.82294 0.76727 0.0
C4538 C 0.2859 0.80784 0.76646 0.0
C4539 C 0.31161 0.85492 0.75512 0.0
C4540 C 0.33159 0.85323 0.7558 0.0
C4541 C 0.30328 0.87348 0.75408 0.0
C4542 C 0.28224 0.87643 0.75463 0.0
C4543 C 0.27121 0.86861 0.76934 0.0
C4544 C 0.2514 0.87121 0.76966 0.0
C4545 C 0.24246 0.88175 0.75544 0.0
C4546 C 0.25333 0.88975 0.74088 0.0
C4547 C 0.27313 0.88715 0.74047 0.0
H4548 H 0.22712 0.88374 0.75571 0.0
H4549 H 0.41961 0.85989 0.75276 0.0
H4550 H 0.29726 0.06714 0.99018 0.0
H4551 H 0.33009 0.05694 0.99431 0.0
H4552 H 0.34642 0.1151 0.00995 0.0
H4553 H 0.313 0.12568 0.00575 0.0
H4554 H 0.37212 0.09552 0.98279 0.0
H4555 H 0.34577 0.0858 0.04359 0.0
H4556 H 0.32139 0.07573 0.06668 0.0
H4557 H 0.32607 0.01678 0.04791 0.0
H4558 H 0.35027 0.02654 0.0245 0.0
H4559 H 0.45994 0.04389 0.01431 0.0
H4560 H 0.43355 0.06715 0.01077 0.0
H4561 H 0.39599 0.02049 0.99393 0.0
H4562 H 0.42212 -0.0025 0.99737 0.0
H4563 H 0.38427 0.04122 0.02669 0.0
H4564 H 0.41058 0.05194 0.96514 0.0
H4565 H 0.43704 0.06179 0.94469 0.0
H4566 H 0.43235 0.12043 0.96435 0.0
H4567 H 0.40712 0.11044 0.98666 0.0
C4568 C 0.30771 0.07789 0.99454 0.0
C4569 C 0.30243 0.09728 0.99765 0.0
C4570 C 0.32654 0.07198 0.9969 0.0
C4571 C 0.3407 0.08523 0.00245 0.0
C4572 C 0.33567 0.10466 0.00561 0.0
C4573 C 0.31658 0.11063 0.00338 0.0
C4574 C 0.36051 0.07809 0.00517 0.0
C4575 C 0.37501 0.084 0.99272 0.0
C4576 C 0.3642 0.06297 0.01803 0.0
C4577 C 0.3498 0.05693 0.03224 0.0
C4578 C 0.34152 0.07071 0.04431 0.0
C4579 C 0.32774 0.06505 0.05746 0.0
C4580 C 0.32218 0.04563 0.05875 0.0
C4581 C 0.33041 0.03182 0.04691 0.0
C4582 C 0.34419 0.0374 0.03371 0.0
C4583 C 0.44631 0.03886 0.00888 0.0
C4584 C 0.44304 0.01899 0.00586 0.0
C4585 C 0.43118 0.05207 0.00719 0.0
C4586 C 0.41273 0.04544 0.00249 0.0
C4587 C 0.41004 0.02587 -0.00219 0.0
C4588 C 0.42505 0.0128 -0.00055 0.0
C4589 C 0.39568 0.05812 0.00387 0.0
C4590 C 0.38165 0.05313 0.01712 0.0
C4591 C 0.39261 0.07414 0.99186 0.0
C4592 C 0.40718 0.08033 0.97791 0.0
C4593 C 0.41541 0.06686 0.96548 0.0
C4594 C 0.43022 0.07248 0.95354 0.0
C4595 C 0.4362 0.09179 0.95302 0.0
C4596 C 0.42766 0.10547 0.96478 0.0
C4597 C 0.41327 0.09977 0.97729 0.0
H4598 H 0.44743 0.09614 0.94348 0.0
H4599 H 0.3115 0.04128 0.06894 0.0
H4600 H 0.62826 0.56475 0.77495 0.0
H4601 H 0.64411 0.59623 0.77117 0.0
H4602 H 0.68136 0.57154 0.7291 0.0
H4603 H 0.66644 0.53979 0.7341 0.0
H4604 H 0.7014 0.594 0.74773 0.0
H4605 H 0.63945 0.60344 0.72001 0.0
H4606 H 0.60417 0.60308 0.71915 0.0
H4607 H 0.60249 0.64297 0.76552 0.0
H4608 H 0.63774 0.64339 0.76679 0.0
H4609 H 0.74255 0.68513 0.73159 0.0
H4610 H 0.72241 0.6572 0.72299 0.0
H4611 H 0.68315 0.67191 0.76758 0.0
H4612 H 0.70268 0.70009 0.77538 0.0
H4613 H 0.66392 0.65446 0.74213 0.0
H4614 H 0.72489 0.64094 0.773 0.0
H4615 H 0.76014 0.64108 0.77489 0.0
H4616 H 0.76325 0.60862 0.72341 0.0
H4617 H 0.72802 0.60849 0.72115 0.0
C4618 C 0.63996 0.56612 0.76505 0.0
C4619 C 0.64645 0.54986 0.75513 0.0
C4620 C 0.64886 0.58418 0.76264 0.0
C4621 C 0.66371 0.58661 0.74943 0.0
C4622 C 0.66998 0.57025 0.73936 0.0
C4623 C 0.66148 0.55208 0.74222 0.0
C4624 C 0.67302 0.60597 0.74643 0.0
C4625 C 0.6931 0.60712 0.74623 0.0
C4626 C 0.66242 0.62335 0.74453 0.0
C4627 C 0.64123 0.62336 0.74354 0.0
C4628 C 0.63155 0.61208 0.73005 0.0
C4629 C 0.61156 0.61187 0.7295 0.0
C4630 C 0.6011 0.62297 0.74229 0.0
C4631 C 0.61061 0.63438 0.75562 0.0
C4632 C 0.63059 0.63464 0.75624 0.0
C4633 C 0.72904 0.68296 0.73876 0.0
C4634 C 0.72401 0.69484 0.75399 0.0
C4635 C 0.71771 0.66676 0.73413 0.0
C4636 C 0.70155 0.66194 0.74508 0.0
C4637 C 0.69555 0.67508 0.75896 0.0
C4638 C 0.70667 0.69134 0.76334 0.0
C4639 C 0.69218 0.64242 0.74398 0.0
C4640 C 0.67212 0.64124 0.74341 0.0
C4641 C 0.70276 0.625 0.74528 0.0
C4642 C 0.72388 0.6249 0.7468 0.0
C4643 C 0.73312 0.63391 0.76206 0.0
C4644 C 0.75308 0.63399 0.76319 0.0
C4645 C 0.76393 0.62491 0.74925 0.0
C4646 C 0.75483 0.61568 0.73418 0.0
C4647 C 0.73488 0.61559 0.73296 0.0
H4648 H 0.77938 0.625 0.75014 0.0
H4649 H 0.58563 0.62276 0.74185 0.0
H4650 H 0.80059 0.41654 0.00171 0.0
H4651 H 0.83292 0.42942 0.99727 0.0
H4652 H 0.84949 0.37581 0.97087 0.0
H4653 H 0.8165 0.36398 0.97314 0.0
H4654 H 0.86438 0.40954 0.01359 0.0
H4655 H 0.86878 0.38335 0.94691 0.0
H4656 H 0.86033 0.38037 0.91346 0.0
H4657 H 0.85844 0.44232 0.90873 0.0
H4658 H 0.86508 0.44554 0.94262 0.0
H4659 H 0.95968 0.45125 0.00566 0.0
H4660 H 0.93447 0.42642 0.00277 0.0
H4661 H 0.89915 0.46701 0.97281 0.0
H4662 H 0.92388 0.49164 0.97571 0.0
H4663 H 0.89882 0.43156 0.95658 0.0
H4664 H 0.89342 0.45992 0.01931 0.0
H4665 H 0.90559 0.4672 0.05112 0.0
H4666 H 0.91256 0.40641 0.06169 0.0
H4667 H 0.90039 0.39881 0.02995 0.0
C4668 C 0.81084 0.40807 0.99386 0.0
C4669 C 0.80578 0.38983 0.98669 0.0
C4670 C 0.82939 0.41528 0.99156 0.0
C4671 C 0.84354 0.40399 0.98285 0.0
C4672 C 0.83868 0.38538 0.97637 0.0
C4673 C 0.81988 0.37846 0.97805 0.0
C4674 C 0.86369 0.41087 0.98329 0.0
C4675 C 0.87205 0.41401 0.00105 0.0
C4676 C 0.87378 0.41679 0.967 0.0
C4677 C 0.86636 0.4146 0.94761 0.0
C4678 C 0.86537 0.39627 0.93908 0.0
C4679 C 0.86114 0.39455 0.91993 0.0
C4680 C 0.85867 0.41113 0.90899 0.0
C4681 C 0.86023 0.42947 0.91722 0.0
C4682 C 0.86377 0.43122 0.93648 0.0
C4683 C 0.94667 0.4547 -0.00181 0.0
C4684 C 0.9437 0.47341 0.99102 0.0
C4685 C 0.93228 0.44055 0.99663 0.0
C4686 C 0.91496 0.44492 0.98763 0.0
C4687 C 0.91243 0.46331 0.97976 0.0
C4688 C 0.92658 0.4774 0.98148 0.0
C4689 C 0.89885 0.43096 0.98673 0.0
C4690 C 0.89132 0.42651 0.96902 0.0
C4691 C 0.88936 0.42422 0.00299 0.0
C4692 C 0.89637 0.42881 0.02215 0.0
C4693 C 0.89769 0.44812 0.02838 0.0
C4694 C 0.90452 0.45231 0.04642 0.0
C4695 C 0.90993 0.43728 0.05839 0.0
C4696 C 0.90842 0.41804 0.05239 0.0
C4697 C 0.90154 0.41379 0.03439 0.0
H4698 H 0.91524 0.44055 0.07234 0.0
H4699 H 0.85569 0.40977 0.89412 0.0
H4700 H 0.37115 0.05944 0.75024 0.0
H4701 H 0.35672 0.09159 0.74647 0.0
H4702 H 0.30055 0.06655 0.75352 0.0
H4703 H 0.31469 0.03468 0.75762 0.0
H4704 H 0.30337 0.09308 0.72317 0.0
H4705 H 0.31784 0.08808 0.78887 0.0
H4706 H 0.33843 0.08226 0.81637 0.0
H4707 H 0.37494 0.12953 0.80002 0.0
H4708 H 0.35474 0.13541 0.7722 0.0
H4709 H 0.25354 0.1834 0.74172 0.0
H4710 H 0.26511 0.14994 0.74556 0.0
H4711 H 0.32311 0.16977 0.73744 0.0
H4712 H 0.31184 0.2027 0.7332 0.0
H4713 H 0.31763 0.14523 0.76929 0.0
H4714 H 0.30441 0.14927 0.70304 0.0
H4715 H 0.28434 0.15514 0.67518 0.0
H4716 H 0.24586 0.10983 0.69237 0.0
H4717 H 0.26556 0.10392 0.72055 0.0
C4718 C 0.35574 0.06081 0.7509 0.0
C4719 C 0.34409 0.04455 0.75435 0.0
C4720 C 0.34753 0.07914 0.74878 0.0
C4721 C 0.32759 0.08137 0.74979 0.0
C4722 C 0.31595 0.0651 0.75269 0.0
C4723 C 0.32411 0.04691 0.75512 0.0
C4724 C 0.31876 0.10072 0.74836 0.0
C4725 C 0.30628 0.10442 0.73337 0.0
C4726 C 0.32274 0.11549 0.76161 0.0
C4727 C 0.33491 0.11202 0.77832 0.0
C4728 C 0.33038 0.0971 0.79102 0.0
C4729 C 0.34195 0.09382 0.80669 0.0
C4730 C 0.35802 0.10548 0.80991 0.0
C4731 C 0.36251 0.12048 0.79749 0.0
C4732 C 0.351 0.12379 0.78177 0.0
C4733 C 0.26871 0.18052 0.74064 0.0
C4734 C 0.28173 0.19561 0.7369 0.0
C4735 C 0.27529 0.16149 0.74286 0.0
C4736 C 0.29496 0.1575 0.74176 0.0
C4737 C 0.3079 0.17259 0.73833 0.0
C4738 C 0.30137 0.19138 0.73575 0.0
C4739 C 0.30237 0.13764 0.74401 0.0
C4740 C 0.3146 0.13383 0.75917 0.0
C4741 C 0.2982 0.1228 0.7309 0.0
C4742 C 0.28629 0.12636 0.71405 0.0
C4743 C 0.29154 0.14072 0.70101 0.0
C4744 C 0.28026 0.14402 0.68513 0.0
C4745 C 0.26379 0.13292 0.68205 0.0
C4746 C 0.25859 0.11846 0.69481 0.0
C4747 C 0.26981 0.11513 0.71074 0.0
H4748 H 0.25508 0.13548 0.66974 0.0
H4749 H 0.36696 0.10292 0.82206 0.0
H4750 H 0.14036 0.93867 0.23529 0.0
H4751 H 0.15123 0.90494 0.23436 0.0
H4752 H 0.17521 0.9115 0.28992 0.0
H4753 H 0.16528 0.94529 0.29045 0.0
H4754 H 0.19959 0.8941 0.26979 0.0
H4755 H 0.1314 0.88447 0.27828 0.0
H4756 H 0.09743 0.88854 0.26984 0.0
H4757 H 0.10765 0.8619 0.21619 0.0
H4758 H 0.14171 0.85791 0.2242 0.0
H4759 H 0.23118 0.79764 0.26995 0.0
H4760 H 0.21154 0.82478 0.28104 0.0
H4761 H 0.18225 0.82558 0.22764 0.0
H4762 H 0.20131 0.79838 0.21704 0.0
H4763 H 0.15896 0.83818 0.25124 0.0
H4764 H 0.22604 0.85186 0.23922 0.0
H4765 H 0.2607 0.84862 0.24478 0.0
H4766 H 0.25352 0.86888 0.30145 0.0
H4767 H 0.21883 0.87224 0.29619 0.0
C4768 C 0.14779 0.93281 0.24735 0.0
C4769 C 0.15197 0.94468 0.26292 0.0
C4770 C 0.15393 0.91347 0.24688 0.0
C4771 C 0.16386 0.9054 0.26221 0.0
C4772 C 0.16765 0.91723 0.27788 0.0
C4773 C 0.16191 0.9366 0.27818 0.0
C4774 C 0.1712 0.88504 0.26171 0.0
C4775 C 0.19055 0.88185 0.26606 0.0
C4776 C 0.15969 0.86896 0.25643 0.0
C4777 C 0.13912 0.87101 0.25181 0.0
C4778 C 0.12641 0.87955 0.26466 0.0
C4779 C 0.10714 0.88184 0.25995 0.0
C4780 C 0.1004 0.87552 0.24248 0.0
C4781 C 0.11289 0.86681 0.22971 0.0
C4782 C 0.13216 0.8645 0.23434 0.0
C4783 C 0.21986 0.80301 0.26106 0.0
C4784 C 0.21779 0.79598 0.24266 0.0
C4785 C 0.2088 0.81875 0.26726 0.0
C4786 C 0.19574 0.82779 0.25498 0.0
C4787 C 0.19225 0.81916 0.23742 0.0
C4788 C 0.20314 0.80348 0.23135 0.0
C4789 C 0.18739 0.84731 0.25902 0.0
C4790 C 0.16788 0.85039 0.25531 0.0
C4791 C 0.19885 0.8634 0.26448 0.0
C4792 C 0.21978 0.86184 0.26746 0.0
C4793 C 0.23184 0.8555 0.2529 0.0
C4794 C 0.2515 0.85369 0.25598 0.0
C4795 C 0.25929 0.85842 0.2735 0.0
C4796 C 0.24746 0.86512 0.28792 0.0
C4797 C 0.2278 0.86696 0.2849 0.0
H4798 H 0.2745 0.85698 0.27587 0.0
H4799 H 0.08549 0.87734 0.23885 0.0
H4800 H 0.49198 0.32884 0.3671 0.0
H4801 H 0.48824 0.35767 0.38635 0.0
H4802 H 0.50357 0.3251 0.43573 0.0
H4803 H 0.50635 0.29572 0.41657 0.0
H4804 H 0.47559 0.34753 0.44436 0.0
H4805 H 0.53513 0.3584 0.41258 0.0
H4806 H 0.55692 0.36112 0.38543 0.0
H4807 H 0.52265 0.40691 0.36276 0.0
H4808 H 0.50053 0.4043 0.38968 0.0
H4809 H 0.50961 0.42191 0.50307 0.0
H4810 H 0.49889 0.39478 0.48419 0.0
H4811 H 0.48396 0.43393 0.43933 0.0
H4812 H 0.49587 0.46133 0.45825 0.0
H4813 H 0.5076 0.40916 0.42689 0.0
H4814 H 0.44887 0.39848 0.46219 0.0
H4815 H 0.42884 0.39407 0.49052 0.0
H4816 H 0.4651 0.34797 0.50904 0.0
H4817 H 0.48495 0.35161 0.48059 0.0
C4818 C 0.49468 0.32772 0.38204 0.0
C4819 C 0.49954 0.30985 0.39023 0.0
C4820 C 0.4926 0.34435 0.39307 0.0
C4821 C 0.49589 0.34377 0.41253 0.0
C4822 C 0.50092 0.32599 0.42076 0.0
C4823 C 0.50264 0.3092 0.40976 0.0
C4824 C 0.49395 0.36166 0.42424 0.0
C4825 C 0.4827 0.36099 0.44059 0.0
C4826 C 0.50281 0.37942 0.41922 0.0
C4827 C 0.51607 0.381 0.40302 0.0
C4828 C 0.53217 0.36894 0.40173 0.0
C4829 C 0.54459 0.37049 0.3864 0.0
C4830 C 0.54114 0.38414 0.37235 0.0
C4831 C 0.52529 0.39632 0.37363 0.0
C4832 C 0.51282 0.39482 0.38893 0.0
C4833 C 0.50318 0.42484 0.48951 0.0
C4834 C 0.50356 0.44366 0.48209 0.0
C4835 C 0.49689 0.40923 0.47868 0.0
C4836 C 0.49046 0.41209 0.46022 0.0
C4837 C 0.48887 0.43127 0.45352 0.0
C4838 C 0.49544 0.44699 0.46439 0.0
C4839 C 0.48922 0.39516 0.44712 0.0
C4840 C 0.50006 0.3959 0.43049 0.0
C4841 C 0.48028 0.3774 0.45212 0.0
C4842 C 0.46843 0.37539 0.46931 0.0
C4843 C 0.45261 0.38747 0.47235 0.0
C4844 C 0.44128 0.38509 0.4884 0.0
C4845 C 0.44584 0.37095 0.50166 0.0
C4846 C 0.4616 0.35896 0.49878 0.0
C4847 C 0.47278 0.36104 0.48262 0.0
H4848 H 0.43709 0.36922 0.5141 0.0
H4849 H 0.55077 0.38531 0.36049 0.0
H4850 H 0.42193 0.75587 0.12916 0.0
H4851 H 0.39647 0.75633 0.15287 0.0
H4852 H 0.43625 0.7367 0.19487 0.0
H4853 H 0.46193 0.73673 0.17149 0.0
H4854 H 0.38851 0.71913 0.18053 0.0
H4855 H 0.43277 0.76671 0.21371 0.0
H4856 H 0.45359 0.7956 0.2113 0.0
H4857 H 0.40799 0.82717 0.18527 0.0
H4858 H 0.38705 0.79831 0.18723 0.0
H4859 H 0.31083 0.72919 0.24461 0.0
H4860 H 0.34432 0.72442 0.23529 0.0
H4861 H 0.34486 0.78122 0.20988 0.0
H4862 H 0.31258 0.78655 0.2203 0.0
H4863 H 0.3772 0.77624 0.22133 0.0
H4864 H 0.33199 0.7338 0.18859 0.0
H4865 H 0.30956 0.70638 0.18456 0.0
H4866 H 0.35345 0.66673 0.20136 0.0
H4867 H 0.37568 0.69391 0.20659 0.0
C4868 C 0.42529 0.7518 0.14348 0.0
C4869 C 0.44397 0.74645 0.1485 0.0
C4870 C 0.41076 0.75205 0.15696 0.0
C4871 C 0.41463 0.74672 0.17557 0.0
C4872 C 0.43314 0.74115 0.18062 0.0
C4873 C 0.44776 0.74121 0.16724 0.0
C4874 C 0.39911 0.74684 0.18962 0.0
C4875 C 0.38609 0.73138 0.1898 0.0
C4876 C 0.39598 0.76302 0.20128 0.0
C4877 C 0.40848 0.78034 0.20041 0.0
C4878 C 0.42728 0.77976 0.2073 0.0
C4879 C 0.43908 0.79613 0.20605 0.0
C4880 C 0.43214 0.81319 0.19808 0.0
C4881 C 0.41337 0.81394 0.1914 0.0
C4882 C 0.40154 0.79759 0.19257 0.0
C4883 C 0.31838 0.74086 0.23761 0.0
C4884 C 0.30889 0.75811 0.23291 0.0
C4885 C 0.33746 0.73804 0.23206 0.0
C4886 C 0.34705 0.75222 0.22134 0.0
C4887 C 0.33794 0.76994 0.21803 0.0
C4888 C 0.31926 0.77294 0.22393 0.0
C4889 C 0.36582 0.74864 0.21207 0.0
C4890 C 0.37964 0.76356 0.21264 0.0
C4891 C 0.36929 0.73213 0.20062 0.0
C4892 C 0.35538 0.71596 0.19843 0.0
C4893 C 0.3367 0.71927 0.19187 0.0
C4894 C 0.32398 0.70375 0.18943 0.0
C4895 C 0.32993 0.68482 0.193 0.0
C4896 C 0.34863 0.68138 0.19901 0.0
C4897 C 0.36126 0.69685 0.20184 0.0
H4898 H 0.32013 0.67281 0.19095 0.0
H4899 H 0.44129 0.82585 0.19713 0.0
H4900 H 0.03069 0.70063 0.90109 0.0
H4901 H 0.0351 0.66815 0.91423 0.0
H4902 H 0.97377 0.66068 0.91694 0.0
H4903 H 0.96954 0.69361 0.90526 0.0
H4904 H 0.98602 0.64874 0.94689 0.0
H4905 H 0.0074 0.63663 0.88342 0.0
H4906 H 0.02727 0.64195 0.85521 0.0
H4907 H 0.07795 0.63003 0.88714 0.0
H4908 H 0.05839 0.62486 0.91559 0.0
H4909 H 0.97481 0.54883 0.94826 0.0
H4910 H 0.98667 0.57639 0.93015 0.0
H4911 H 0.02654 0.59013 0.97441 0.0
H4912 H 0.01438 0.56259 0.99279 0.0
H4913 H 0.02993 0.59839 0.92245 0.0
H4914 H 0.00403 0.61762 0.98758 0.0
H4915 H 0.98142 0.60897 0.01295 0.0
H4916 H 0.9359 0.60409 0.97266 0.0
H4917 H 0.95835 0.61249 0.94708 0.0
C4918 C 0.01821 0.69188 0.9043 0.0
C4919 C -0.00023 0.69957 0.90213 0.0
C4920 C 0.02071 0.67323 0.91174 0.0
C4921 C 0.00479 0.66163 0.91651 0.0
C4922 C 0.98637 0.66921 0.91361 0.0
C4923 C 0.9839 0.68802 0.90679 0.0
C4924 C 0.00702 0.64214 0.92555 0.0
C4925 C 0.9957 0.6379 0.94137 0.0
C4926 C 0.01974 0.62769 0.91878 0.0
C4927 C 0.03146 0.63058 0.90166 0.0
C4928 C 0.0228 0.63526 0.88444 0.0
C4929 C 0.034 0.63823 0.86841 0.0
C4930 C 0.05387 0.6364 0.8694 0.0
C4931 C 0.06257 0.63149 0.8864 0.0
C4932 C 0.05143 0.62851 0.90247 0.0
C4933 C 0.98689 0.55704 0.95364 0.0
C4934 C 0.99386 0.55344 0.9718 0.0
C4935 C 0.99366 0.57281 0.94326 0.0
C4936 C 0.00747 0.58534 0.9509 0.0
C4937 C 0.01602 0.58052 0.96815 0.0
C4938 C 0.00917 0.56468 0.97861 0.0
C4939 C 0.00887 0.60538 0.94337 0.0
C4940 C 0.02063 0.60957 0.92792 0.0
C4941 C 0.99636 0.61977 0.95013 0.0
C4942 C 0.98279 0.61564 0.96553 0.0
C4943 C 0.98918 0.61473 0.9842 0.0
C4944 C 0.97642 0.60983 -0.00142 0.0
C4945 C 0.95723 0.60598 0.99442 0.0
C4946 C 0.95075 0.60708 0.97587 0.0
C4947 C 0.96347 0.61191 0.96144 0.0
H4948 H 0.94738 0.60215 0.00556 0.0
H4949 H 0.06252 0.63875 0.85698 0.0
H4950 H 0.06536 0.25852 0.61951 0.0
H4951 H 0.0978 0.25918 0.63268 0.0
H4952 H 0.07624 0.2338 0.68404 0.0
H4953 H 0.04387 0.23479 0.67149 0.0
H4954 H 0.10012 0.25827 0.6934 0.0
H4955 H 0.10163 0.20808 0.64519 0.0
H4956 H 0.09859 0.19553 0.61281 0.0
H4957 H 0.14152 0.23584 0.59408 0.0
H4958 H 0.14464 0.24875 0.62632 0.0
H4959 H 0.17695 0.21316 0.73448 0.0
H4960 H 0.1498 0.21534 0.71305 0.0
H4961 H 0.18026 0.25765 0.67988 0.0
H4962 H 0.20749 0.25566 0.7015 0.0
H4963 H 0.15475 0.22923 0.65907 0.0
H4964 H 0.15472 0.27599 0.71007 0.0
H4965 H 0.15779 0.28545 0.74339 0.0
H4966 H 0.11099 0.24776 0.75779 0.0
H4967 H 0.10789 0.2378 0.72461 0.0
C4968 C 0.06768 0.25328 0.63367 0.0
C4969 C 0.05226 0.24667 0.64457 0.0
C4970 C 0.0862 0.25347 0.64113 0.0
C4971 C 0.08964 0.24618 0.65927 0.0
C4972 C 0.07407 0.23961 0.67007 0.0
C4973 C 0.05556 0.24013 0.6629 0.0
C4974 C 0.10926 0.24528 0.6673 0.0
C4975 C 0.11195 0.25176 0.68584 0.0
C4976 C 0.12502 0.23735 0.65739 0.0
C4977 C 0.12321 0.2295 0.63808 0.0
C4978 C 0.11033 0.21432 0.63413 0.0
C4979 C 0.10861 0.20714 0.61582 0.0
C4980 C 0.11982 0.21492 0.60139 0.0
C4981 C 0.13282 0.22985 0.60526 0.0
C4982 C 0.13458 0.23709 0.62354 0.0
C4983 C 0.17813 0.22242 0.72225 0.0
C4984 C 0.19432 0.23424 0.7196 0.0
C4985 C 0.16262 0.22368 0.71006 0.0
C4986 C 0.16301 0.23684 0.6951 0.0
C4987 C 0.17979 0.24736 0.69135 0.0
C4988 C 0.19539 0.2461 0.70359 0.0
C4989 C 0.14504 0.24137 0.68521 0.0
C4990 C 0.14282 0.23582 0.6664 0.0
C4991 C 0.12953 0.24976 0.69496 0.0
C4992 C 0.13117 0.25605 0.71487 0.0
C4993 C 0.14518 0.26962 0.72036 0.0
C4994 C 0.14692 0.27508 0.73922 0.0
C4995 C 0.13461 0.26719 0.7527 0.0
C4996 C 0.12052 0.25385 0.74734 0.0
C4997 C 0.11876 0.24831 0.72851 0.0
H4998 H 0.13598 0.27143 0.7673 0.0
H4999 H 0.11845 0.20935 0.58722 0.0
H5000 H 0.50581 0.70268 0.08071 0.0
H5001 H 0.50818 0.67005 0.06777 0.0
H5002 H 0.4888 0.64655 0.12064 0.0
H5003 H 0.48414 0.6794 0.1327 0.0
H5004 H 0.5322 0.64478 0.0799 0.0
H5005 H 0.47562 0.61405 0.11997 0.0
H5006 H 0.4417 0.61451 0.12969 0.0
H5007 H 0.42501 0.62828 0.07323 0.0
H5008 H 0.45893 0.62897 0.06349 0.0
H5009 H 0.51559 0.53602 0.05017 0.0
H5010 H 0.51525 0.56191 0.07408 0.0
H5011 H 0.51537 0.60483 0.0302 0.0
H5012 H 0.51651 0.57975 0.00663 0.0
H5013 H 0.48433 0.59185 0.07402 0.0
H5014 H 0.53898 0.63071 0.03612 0.0
H5015 H 0.57121 0.62759 0.02226 0.0
H5016 H 0.58992 0.59604 0.0708 0.0
H5017 H 0.55756 0.59845 0.0846 0.0
C5018 C 0.50086 0.69058 0.08909 0.0
C5019 C 0.49374 0.69356 0.10726 0.0
C5020 C 0.50258 0.67187 0.08186 0.0
C5021 C 0.49817 0.65565 0.09301 0.0
C5022 C 0.49133 0.65863 0.11134 0.0
C5023 C 0.48897 0.67744 0.11835 0.0
C5024 C 0.50314 0.63599 0.08599 0.0
C5025 C 0.52167 0.63322 0.07882 0.0
C5026 C 0.48978 0.62051 0.08492 0.0
C5027 C 0.46976 0.6223 0.09122 0.0
C5028 C 0.46472 0.61778 0.1098 0.0
C5029 C 0.44552 0.6178 0.1153 0.0
C5030 C 0.43122 0.62168 0.10214 0.0
C5031 C 0.43611 0.62553 0.08347 0.0
C5032 C 0.45533 0.62602 0.07803 0.0
C5033 C 0.51614 0.55099 0.04569 0.0
C5034 C 0.51623 0.55571 0.02644 0.0
C5035 C 0.51588 0.56573 0.05934 0.0
C5036 C 0.51576 0.58527 0.05387 0.0
C5037 C 0.51624 0.5899 0.03476 0.0
C5038 C 0.51673 0.57539 0.02124 0.0
C5039 C 0.51299 0.60115 0.06754 0.0
C5040 C 0.49494 0.60323 0.07583 0.0
C5041 C 0.52663 0.61612 0.06949 0.0
C5042 C 0.54592 0.61454 0.06123 0.0
C5043 C 0.54997 0.62298 0.04373 0.0
C5044 C 0.56821 0.62129 0.03587 0.0
C5045 C 0.58259 0.61157 0.04562 0.0
C5046 C 0.57873 0.60344 0.06321 0.0
C5047 C 0.56041 0.60483 0.07098 0.0
H5048 H 0.59675 0.61038 0.03957 0.0
H5049 H 0.41635 0.6215 0.10636 0.0
H5050 H 0.04821 0.74175 0.82577 0.0
H5051 H 0.0801 0.73773 0.81258 0.0
H5052 H 0.10501 0.74852 0.8671 0.0
H5053 H 0.07291 0.75307 0.88038 0.0
H5054 H 0.12383 0.76803 0.84093 0.0
H5055 H 0.10389 0.70204 0.84717 0.0
H5056 H 0.08202 0.67411 0.84373 0.0
H5057 H 0.08443 0.67954 0.78366 0.0
H5058 H 0.10609 0.70767 0.78674 0.0
H5059 H 0.21246 0.7564 0.79514 0.0
H5060 H 0.18779 0.74672 0.81795 0.0
H5061 H 0.14839 0.73587 0.7724 0.0
H5062 H 0.17297 0.74524 0.74985 0.0
H5063 H 0.14036 0.71218 0.80015 0.0
H5064 H 0.15418 0.78102 0.79386 0.0
H5065 H 0.17455 0.81022 0.79614 0.0
H5066 H 0.18204 0.80046 0.85526 0.0
H5067 H 0.16187 0.77103 0.85324 0.0
C5068 C 0.06044 0.74318 0.83503 0.0
C5069 C 0.05799 0.74767 0.85416 0.0
C5070 C 0.07872 0.74073 0.82747 0.0
C5071 C 0.09503 0.7424 0.83889 0.0
C5072 C 0.09266 0.747 0.85801 0.0
C5073 C 0.07431 0.74959 0.86559 0.0
C5074 C 0.11449 0.74024 0.83051 0.0
C5075 C 0.12762 0.75557 0.8324 0.0
C5076 C 0.11941 0.72414 0.81912 0.0
C5077 C 0.10658 0.70703 0.81721 0.0
C5078 C 0.09969 0.69734 0.83323 0.0
C5079 C 0.08733 0.68146 0.83134 0.0
C5080 C 0.08183 0.67506 0.81349 0.0
C5081 C 0.08871 0.6845 0.79748 0.0
C5082 C 0.10106 0.70039 0.79929 0.0
C5083 C 0.19884 0.75096 0.79006 0.0
C5084 C 0.19458 0.75137 0.77079 0.0
C5085 C 0.18464 0.7457 0.80309 0.0
C5086 C 0.16602 0.741 0.79695 0.0
C5087 C 0.16255 0.73948 0.77757 0.0
C5088 C 0.17665 0.74473 0.76464 0.0
C5089 C 0.14943 0.7402 0.81016 0.0
C5090 C 0.13678 0.72436 0.80913 0.0
C5091 C 0.14483 0.75593 0.82218 0.0
C5092 C 0.15687 0.77364 0.82334 0.0
C5093 C 0.16033 0.78501 0.80731 0.0
C5094 C 0.1718 0.80161 0.80856 0.0
C5095 C 0.17968 0.80713 0.82582 0.0
C5096 C 0.17602 0.7961 0.84188 0.0
C5097 C 0.16459 0.77946 0.84069 0.0
H5098 H 0.18854 0.82 0.82677 0.0
H5099 H 0.07224 0.66278 0.81206 0.0
H5100 H 0.02039 0.29852 0.60615 0.0
H5101 H 0.02413 0.33052 0.5917 0.0
H5102 H 0.96532 0.32831 0.5733 0.0
H5103 H 0.9617 0.29627 0.58718 0.0
H5104 H 0.98807 0.33738 0.54507 0.0
H5105 H 0.98139 0.35787 0.61021 0.0
H5106 H 0.99031 0.35906 0.64374 0.0
H5107 H 0.04623 0.38017 0.62906 0.0
H5108 H 0.0377 0.37887 0.59542 0.0
H5109 H 0.9612 0.43429 0.52696 0.0
H5110 H 0.96588 0.401 0.5381 0.0
H5111 H 0.02629 0.41234 0.54464 0.0
H5112 H 0.0215 0.4456 0.53374 0.0
H5113 H 0.00878 0.39799 0.5768 0.0
H5114 H 0.01453 0.38144 0.51238 0.0
H5115 H 0.00606 0.38086 0.47876 0.0
H5116 H 0.95281 0.35262 0.49174 0.0
H5117 H 0.96083 0.35327 0.52549 0.0
C5118 C 0.00819 0.30507 0.59933 0.0
C5119 C 0.99079 0.29492 0.59768 0.0
C5120 C 0.01034 0.3233 0.59106 0.0
C5121 C 0.99501 0.33173 0.58137 0.0
C5122 C 0.97739 0.32196 0.58054 0.0
C5123 C 0.97532 0.30371 0.58854 0.0
C5124 C -0.00269 0.35025 0.5712 0.0
C5125 C 0.99244 0.35067 0.55205 0.0
C5126 C 0.00386 0.36738 0.58011 0.0
C5127 C 0.00899 0.36803 0.60031 0.0
C5128 C 0.99564 0.36259 0.61413 0.0
C5129 C 0.00061 0.36332 0.63315 0.0
C5130 C 0.01884 0.36962 0.63852 0.0
C5131 C 0.03213 0.37525 0.62488 0.0
C5132 C 0.02723 0.37452 0.60584 0.0
C5133 C 0.97549 0.42941 0.53031 0.0
C5134 C 0.99113 0.4421 0.52898 0.0
C5135 C 0.97818 0.4105 0.53662 0.0
C5136 C -0.00353 0.40424 0.54197 0.0
C5137 C 0.01214 0.41687 0.54034 0.0
C5138 C 0.00947 0.43569 0.53384 0.0
C5139 C -0.00123 0.38518 0.55095 0.0
C5140 C 0.00463 0.38463 0.56979 0.0
C5141 C 0.99317 0.36792 0.54178 0.0
C5142 C 0.98822 0.36755 0.5215 0.0
C5143 C 0.00093 0.37527 0.50809 0.0
C5144 C 0.99622 0.37489 0.489 0.0
C5145 C 0.97888 0.36675 0.48312 0.0
C5146 C 0.96623 0.35893 0.49632 0.0
C5147 C 0.97086 0.35928 0.51543 0.0
H5148 H 0.97527 0.36647 0.46833 0.0
H5149 H 0.02266 0.37019 0.65325 0.0
H5150 H 0.43544 0.26836 0.37232 0.0
H5151 H 0.40506 0.26594 0.35496 0.0
H5152 H 0.43269 0.23069 0.31286 0.0
H5153 H 0.46264 0.23262 0.33047 0.0
H5154 H 0.39376 0.27684 0.32095 0.0
H5155 H 0.40302 0.19736 0.29616 0.0
H5156 H 0.41785 0.16712 0.3073 0.0
H5157 H 0.41308 0.18676 0.36442 0.0
H5158 H 0.39803 0.21698 0.35362 0.0
H5159 H 0.31421 0.25334 0.25832 0.0
H5160 H 0.34689 0.25893 0.27029 0.0
H5161 H 0.33545 0.21986 0.31625 0.0
H5162 H 0.30387 0.21365 0.30425 0.0
H5163 H 0.36801 0.21219 0.30366 0.0
H5164 H 0.33348 0.27078 0.31684 0.0
H5165 H 0.31705 0.3017 0.31118 0.0
H5166 H 0.36818 0.32516 0.28652 0.0
H5167 H 0.38442 0.29401 0.29066 0.0
C5168 C 0.43488 0.2601 0.35937 0.0
C5169 C 0.45136 0.25111 0.35237 0.0
C5170 C 0.41763 0.25883 0.34941 0.0
C5171 C 0.41657 0.24816 0.33257 0.0
C5172 C 0.43305 0.23888 0.32585 0.0
C5173 C 0.45019 0.24012 0.33581 0.0
C5174 C 0.39816 0.24609 0.32228 0.0
C5175 C 0.38805 0.26274 0.31707 0.0
C5176 C 0.39069 0.22769 0.31745 0.0
C5177 C 0.39961 0.2095 0.32405 0.0
C5178 C 0.4051 0.19518 0.31109 0.0
C5179 C 0.41355 0.17806 0.31735 0.0
C5180 C 0.41647 0.17505 0.33655 0.0
C5181 C 0.41089 0.18914 0.34954 0.0
C5182 C 0.40242 0.20627 0.34336 0.0
C5183 C 0.31885 0.24574 0.27079 0.0
C5184 C 0.30633 0.23293 0.28017 0.0
C5185 C 0.33746 0.24908 0.27772 0.0
C5186 C 0.34368 0.23987 0.29427 0.0
C5187 C 0.33119 0.22703 0.30339 0.0
C5188 C 0.31296 0.22349 0.29641 0.0
C5189 C 0.36308 0.24298 0.30247 0.0
C5190 C 0.37363 0.22641 0.30722 0.0
C5191 C 0.37046 0.2615 0.30744 0.0
C5192 C 0.36006 0.2798 0.30368 0.0
C5193 C 0.34104 0.28231 0.30965 0.0
C5194 C 0.33172 0.29992 0.30667 0.0
C5195 C 0.34145 0.31533 0.2982 0.0
C5196 C 0.36047 0.31312 0.29264 0.0
C5197 C 0.36969 0.29543 0.29517 0.0
H5198 H 0.33431 0.32903 0.2961 0.0
H5199 H 0.42301 0.16179 0.34136 0.0
H5200 H 0.42964 0.48753 0.29112 0.0
H5201 H 0.4508 0.48986 0.3187 0.0
H5202 H 0.40449 0.5138 0.35118 0.0
H5203 H 0.38348 0.51155 0.32407 0.0
H5204 H 0.43762 0.53409 0.35617 0.0
H5205 H 0.41661 0.46697 0.35499 0.0
H5206 H 0.41357 0.43433 0.34111 0.0
H5207 H 0.47474 0.42942 0.33901 0.0
H5208 H 0.47813 0.4622 0.3526 0.0
H5209 H 0.44495 0.52128 0.4511 0.0
H5210 H 0.43739 0.51852 0.41816 0.0
H5211 H 0.49344 0.49548 0.40695 0.0
H5212 H 0.50125 0.49781 0.44076 0.0
H5213 H 0.46424 0.47592 0.38731 0.0
H5214 H 0.48419 0.54173 0.39456 0.0
H5215 H 0.48564 0.57376 0.40994 0.0
H5216 H 0.42531 0.58096 0.4014 0.0
H5217 H 0.42343 0.54888 0.38622 0.0
C5218 C 0.42403 0.49339 0.30413 0.0
C5219 C 0.40481 0.49931 0.30533 0.0
C5220 C 0.43612 0.49462 0.31989 0.0
C5221 C 0.42923 0.50196 0.33705 0.0
C5222 C 0.41018 0.50814 0.33812 0.0
C5223 C 0.39813 0.50676 0.32255 0.0
C5224 C 0.44145 0.50326 0.35418 0.0
C5225 C 0.44352 0.52138 0.36293 0.0
C5226 C 0.44968 0.48677 0.36276 0.0
C5227 C 0.44762 0.46714 0.35453 0.0
C5228 C 0.42941 0.45902 0.35137 0.0
C5229 C 0.42763 0.44048 0.3436 0.0
C5230 C 0.44396 0.42984 0.33911 0.0
C5231 C 0.46211 0.4377 0.34243 0.0
C5232 C 0.46397 0.45626 0.35016 0.0
C5233 C 0.45593 0.51577 0.4418 0.0
C5234 C 0.47396 0.51014 0.44871 0.0
C5235 C 0.45149 0.51421 0.42281 0.0
C5236 C 0.46497 0.50728 0.40992 0.0
C5237 C 0.48288 0.50111 0.41663 0.0
C5238 C 0.48735 0.50252 0.43592 0.0
C5239 C 0.45975 0.50667 0.38961 0.0
C5240 C 0.45894 0.48874 0.38027 0.0
C5241 C 0.45255 0.52333 0.38046 0.0
C5242 C 0.45368 0.54286 0.38925 0.0
C5243 C 0.47122 0.55011 0.39601 0.0
C5244 C 0.47211 0.56828 0.4047 0.0
C5245 C 0.45558 0.57939 0.40665 0.0
C5246 C 0.43812 0.57236 0.39986 0.0
C5247 C 0.43714 0.5542 0.39117 0.0
H5248 H 0.4563 0.59344 0.4134 0.0
H5249 H 0.44255 0.41548 0.33311 0.0
H5250 H 0.26821 0.66805 0.04483 0.0
H5251 H 0.26669 0.6807 0.07705 0.0
H5252 H 0.23118 0.63234 0.09333 0.0
H5253 H 0.23304 0.61929 0.06139 0.0
H5254 H 0.22565 0.68585 0.09727 0.0
H5255 H 0.25249 0.62091 0.11833 0.0
H5256 H 0.27675 0.59542 0.11413 0.0
H5257 H 0.3214 0.63836 0.11615 0.0
H5258 H 0.2973 0.66411 0.12004 0.0
H5259 H 0.21533 0.71298 0.19348 0.0
H5260 H 0.21499 0.69169 0.1656 0.0
H5261 H 0.2754 0.70216 0.15773 0.0
H5262 H 0.27564 0.72339 0.18528 0.0
H5263 H 0.26666 0.66494 0.15034 0.0
H5264 H 0.24395 0.72816 0.13421 0.0
H5265 H 0.22319 0.75685 0.13615 0.0
H5266 H 0.17431 0.72176 0.12214 0.0
H5267 H 0.19477 0.69278 0.12043 0.0
C5268 C 0.26032 0.65997 0.05535 0.0
C5269 C 0.25082 0.64265 0.05063 0.0
C5270 C 0.25947 0.66721 0.07369 0.0
C5271 C 0.24901 0.65729 0.08751 0.0
C5272 C 0.23962 0.63996 0.0829 0.0
C5273 C 0.24068 0.63257 0.06465 0.0
C5274 C 0.24707 0.66572 0.10647 0.0
C5275 C 0.23427 0.68104 0.10904 0.0
C5276 C 0.25875 0.65978 0.12152 0.0
C5277 C 0.27314 0.64438 0.11918 0.0
C5278 C 0.26746 0.6249 0.11764 0.0
C5279 C 0.28118 0.61042 0.11537 0.0
C5280 C 0.30061 0.61528 0.11479 0.0
C5281 C 0.30635 0.63462 0.11653 0.0
C5282 C 0.29268 0.64916 0.11875 0.0
C5283 C 0.22852 0.71034 0.18592 0.0
C5284 C 0.2455 0.71971 0.19128 0.0
C5285 C 0.22833 0.69831 0.17003 0.0
C5286 C 0.24516 0.6955 0.15953 0.0
C5287 C 0.26229 0.7041 0.16562 0.0
C5288 C 0.26241 0.71624 0.18128 0.0
C5289 C 0.24486 0.68491 0.14141 0.0
C5290 C 0.2575 0.66939 0.13884 0.0
C5291 C 0.2332 0.69092 0.12625 0.0
C5292 C 0.22083 0.70826 0.12749 0.0
C5293 C 0.22874 0.72652 0.13177 0.0
C5294 C 0.21704 0.74284 0.13278 0.0
C5295 C 0.19743 0.74111 0.12935 0.0
C5296 C 0.18949 0.72306 0.12486 0.0
C5297 C 0.20113 0.70668 0.12388 0.0
H5298 H 0.18839 0.75377 0.13011 0.0
H5299 H 0.31121 0.60404 0.11306 0.0
H5300 H 0.12083 0.49754 0.82811 0.0
H5301 H 0.09919 0.49536 0.85475 0.0
H5302 H 0.05066 0.49717 0.81744 0.0
H5303 H 0.07234 0.49952 0.79037 0.0
H5304 H 0.04738 0.52159 0.85024 0.0
H5305 H 0.06068 0.45521 0.83523 0.0
H5306 H 0.0815 0.42772 0.82705 0.0
H5307 H 0.11191 0.43475 0.87906 0.0
H5308 H 0.09147 0.46245 0.88743 0.0
H5309 H -0.00098 0.49903 0.93971 0.0
H5310 H 0.00688 0.49899 0.9059 0.0
H5311 H 0.06663 0.49248 0.91948 0.0
H5312 H 0.05907 0.49224 0.95261 0.0
H5313 H 0.05524 0.46628 0.89388 0.0
H5314 H 0.04744 0.53509 0.90637 0.0
H5315 H 0.02911 0.56406 0.91519 0.0
H5316 H 0.99077 0.55427 0.86896 0.0
H5317 H 0.0086 0.52483 0.86017 0.0
C5318 C 0.10558 0.49741 0.82542 0.0
C5319 C 0.09837 0.49855 0.80701 0.0
C5320 C 0.09322 0.49617 0.84072 0.0
C5321 C 0.07335 0.49591 0.83803 0.0
C5322 C 0.06597 0.49731 0.81977 0.0
C5323 C 0.07839 0.49853 0.80434 0.0
C5324 C 0.06063 0.49385 0.85456 0.0
C5325 C 0.04867 0.50929 0.85961 0.0
C5326 C 0.06245 0.47785 0.86677 0.0
C5327 C 0.07454 0.46093 0.86194 0.0
C5328 C 0.07185 0.45094 0.84489 0.0
C5329 C 0.08359 0.43532 0.84022 0.0
C5330 C 0.09802 0.42949 0.85253 0.0
C5331 C 0.10071 0.43925 0.86955 0.0
C5332 C 0.08903 0.45489 0.87428 0.0
C5333 C 0.0138 0.49761 0.93539 0.0
C5334 C 0.02836 0.49528 0.94886 0.0
C5335 C 0.01826 0.49763 0.91613 0.0
C5336 C 0.03733 0.4955 0.91021 0.0
C5337 C 0.0518 0.49381 0.9237 0.0
C5338 C 0.0474 0.49368 0.94271 0.0
C5339 C 0.04283 0.49449 0.89012 0.0
C5340 C 0.05339 0.47833 0.88429 0.0
C5341 C 0.03993 0.50996 0.87742 0.0
C5342 C 0.02917 0.52758 0.8828 0.0
C5343 C 0.03495 0.53895 0.89822 0.0
C5344 C 0.02468 0.55551 0.90319 0.0
C5345 C 0.00877 0.56103 0.89265 0.0
C5346 C 0.00307 0.54996 0.87714 0.0
C5347 C 0.01323 0.53331 0.87219 0.0
H5348 H 0.0009 0.57392 0.89646 0.0
H5349 H 0.1071 0.41741 0.84888 0.0
H5350 H 0.25901 0.37282 0.569 0.0
H5351 H 0.25595 0.35923 0.60055 0.0
H5352 H 0.22209 0.31203 0.57852 0.0
H5353 H 0.22539 0.32539 0.54664 0.0
H5354 H 0.2088 0.33092 0.6156 0.0
H5355 H 0.26324 0.30064 0.58512 0.0
H5356 H 0.29348 0.30112 0.56728 0.0
H5357 H 0.31982 0.33569 0.61044 0.0
H5358 H 0.28961 0.33565 0.62842 0.0
H5359 H 0.23849 0.25568 0.68459 0.0
H5360 H 0.22763 0.27401 0.65709 0.0
H5361 H 0.25344 0.32578 0.67991 0.0
H5362 H 0.26358 0.30766 0.70766 0.0
H5363 H 0.26882 0.30523 0.64292 0.0
H5364 H 0.21657 0.33689 0.67324 0.0
H5365 H 0.18706 0.33853 0.69212 0.0
H5366 H 0.15762 0.30361 0.65119 0.0
H5367 H 0.18707 0.30167 0.6321 0.0
C5368 C 0.25075 0.35963 0.57083 0.0
C5369 C 0.24252 0.35012 0.55528 0.0
C5370 C 0.24898 0.35192 0.5889 0.0
C5371 C 0.23874 0.33467 0.59188 0.0
C5372 C 0.22993 0.32544 0.57652 0.0
C5373 C 0.23196 0.33301 0.55832 0.0
C5374 C 0.23876 0.32555 0.61079 0.0
C5375 C 0.22184 0.32504 0.62149 0.0
C5376 C 0.25589 0.31843 0.61869 0.0
C5377 C 0.27411 0.31833 0.608 0.0
C5378 C 0.27543 0.30849 0.59072 0.0
C5379 C 0.29257 0.30865 0.5806 0.0
C5380 C 0.30854 0.31848 0.58769 0.0
C5381 C 0.30742 0.32811 0.60495 0.0
C5382 C 0.2903 0.32801 0.61512 0.0
C5383 C 0.24058 0.27124 0.68435 0.0
C5384 C 0.25133 0.2804 0.69849 0.0
C5385 C 0.23463 0.28166 0.66852 0.0
C5386 C 0.23975 0.30125 0.66649 0.0
C5387 C 0.24914 0.31075 0.68131 0.0
C5388 C 0.25476 0.30043 0.69725 0.0
C5389 C 0.2389 0.31051 0.64773 0.0
C5390 C 0.25574 0.31102 0.63702 0.0
C5391 C 0.2218 0.31785 0.64003 0.0
C5392 C 0.20407 0.31891 0.65138 0.0
C5393 C 0.20386 0.32939 0.66836 0.0
C5394 C 0.18713 0.33044 0.67907 0.0
C5395 C 0.17049 0.32112 0.67289 0.0
C5396 C 0.17053 0.3108 0.65596 0.0
C5397 C 0.18723 0.30975 0.64517 0.0
H5398 H 0.15755 0.32194 0.6812 0.0
H5399 H 0.3218 0.3186 0.57983 0.0
H5400 H 0.43027 0.4849 0.20309 0.0
H5401 H 0.44349 0.48892 0.1716 0.0
H5402 H 0.39166 0.51731 0.15396 0.0
H5403 H 0.37784 0.51193 0.1853 0.0
H5404 H 0.40345 0.4955 0.12699 0.0
H5405 H 0.43675 0.54258 0.16613 0.0
H5406 H 0.45566 0.55208 0.19399 0.0
H5407 H 0.50038 0.51323 0.17738 0.0
H5408 H 0.48167 0.50335 0.14957 0.0
H5409 H 0.45305 0.50478 0.04008 0.0
H5410 H 0.43569 0.51633 0.06804 0.0
H5411 H 0.48152 0.4953 0.10316 0.0
H5412 H 0.49904 0.48538 0.07552 0.0
H5413 H 0.4689 0.52245 0.12012 0.0
H5414 H 0.43506 0.46857 0.08859 0.0
H5415 H 0.41553 0.45223 0.0643 0.0
H5416 H 0.37367 0.49738 0.06795 0.0
H5417 H 0.39299 0.51398 0.09222 0.0
C5418 C 0.42168 0.49194 0.19246 0.0
C5419 C 0.40311 0.49824 0.19664 0.0
C5420 C 0.42932 0.49444 0.17448 0.0
C5421 C 0.41892 0.50413 0.16046 0.0
C5422 C 0.40012 0.51002 0.16452 0.0
C5423 C 0.39221 0.50695 0.18241 0.0
C5424 C 0.42762 0.50773 0.14158 0.0
C5425 C 0.41766 0.5017 0.12545 0.0
C5426 C 0.44625 0.51563 0.13946 0.0
C5427 C 0.45779 0.52225 0.15577 0.0
C5428 C 0.45062 0.5361 0.16842 0.0
C5429 C 0.4613 0.54152 0.18421 0.0
C5430 C 0.47921 0.53327 0.18745 0.0
C5431 C 0.48653 0.51964 0.17485 0.0
C5432 C 0.47592 0.51417 0.15904 0.0
C5433 C 0.45975 0.50373 0.05375 0.0
C5434 C 0.4775 0.49449 0.05569 0.0
C5435 C 0.44962 0.50982 0.06981 0.0
C5436 C 0.4569 0.50619 0.08797 0.0
C5437 C 0.47537 0.4984 0.08953 0.0
C5438 C 0.48553 0.49277 0.07364 0.0
C5439 C 0.44534 0.50885 0.10555 0.0
C5440 C 0.45459 0.51646 0.12152 0.0
C5441 C 0.42634 0.50176 0.10759 0.0
C5442 C 0.41556 0.49261 0.09201 0.0
C5443 C 0.42181 0.47511 0.08402 0.0
C5444 C 0.41073 0.46576 0.07035 0.0
C5445 C 0.39332 0.4737 0.06469 0.0
C5446 C 0.38711 0.4912 0.07242 0.0
C5447 C 0.39812 0.50059 0.08611 0.0
H5448 H 0.38464 0.46631 0.05429 0.0
H5449 H 0.48741 0.53743 0.19972 0.0
H5450 H 0.24689 0.62392 0.9202 0.0
H5451 H 0.24928 0.64634 0.89407 0.0
H5452 H 0.26062 0.69343 0.9325 0.0
H5453 H 0.25781 0.67102 0.95907 0.0
H5454 H 0.23533 0.70396 0.90497 0.0
H5455 H 0.29697 0.67569 0.90722 0.0
H5456 H 0.32047 0.64934 0.90994 0.0
H5457 H 0.29916 0.62368 0.859 0.0
H5458 H 0.27533 0.64971 0.85612 0.0
H5459 H 0.26226 0.75235 0.81478 0.0
H5460 H 0.26109 0.74225 0.84809 0.0
H5461 H 0.24232 0.68526 0.83091 0.0
H5462 H 0.24361 0.69515 0.79809 0.0
H5463 H 0.27733 0.68661 0.85138 0.0
H5464 H 0.21189 0.71241 0.85352 0.0
H5465 H 0.18818 0.73873 0.85186 0.0
H5466 H 0.21863 0.77027 0.89458 0.0
H5467 H 0.24248 0.74412 0.89652 0.0
C5468 C 0.24998 0.639 0.92322 0.0
C5469 C 0.25229 0.6456 0.9418 0.0
C5470 C 0.25139 0.65182 0.90821 0.0
C5471 C 0.25543 0.6715 0.91133 0.0
C5472 C 0.25757 0.67828 0.92981 0.0
C5473 C 0.25605 0.66542 0.94495 0.0
C5474 C 0.25732 0.68469 0.89503 0.0
C5475 C 0.24482 0.70046 0.8934 0.0
C5476 C 0.26979 0.6802 0.88001 0.0
C5477 C 0.28432 0.66465 0.88149 0.0
C5478 C 0.29723 0.66438 0.89664 0.0
C5479 C 0.31062 0.6495 0.89821 0.0
C5480 C 0.3113 0.63484 0.88466 0.0
C5481 C 0.29863 0.63506 0.86948 0.0
C5482 C 0.2852 0.6499 0.86785 0.0
C5483 C 0.25733 0.73791 0.81831 0.0
C5484 C 0.25315 0.72442 0.80407 0.0
C5485 C 0.25672 0.73215 0.83722 0.0
C5486 C 0.25185 0.71295 0.84184 0.0
C5487 C 0.24627 0.70007 0.8276 0.0
C5488 C 0.24696 0.70574 0.8089 0.0
C5489 C 0.25462 0.70513 0.86095 0.0
C5490 C 0.26818 0.69041 0.86313 0.0
C5491 C 0.24326 0.71071 0.87642 0.0
C5492 C 0.22906 0.72645 0.87501 0.0
C5493 C 0.21361 0.72505 0.86242 0.0
C5494 C 0.20013 0.73991 0.86146 0.0
C5495 C 0.20198 0.7562 0.87303 0.0
C5496 C 0.21726 0.75766 0.88561 0.0
C5497 C 0.23072 0.74281 0.88668 0.0
H5498 H 0.19154 0.76767 0.87235 0.0
H5499 H 0.32166 0.62332 0.88591 0.0
H5500 H 0.12345 0.48347 0.68753 0.0
H5501 H 0.11137 0.48338 0.65515 0.0
H5502 H 0.06402 0.51921 0.67262 0.0
H5503 H 0.07515 0.51763 0.70506 0.0
H5504 H 0.05105 0.49527 0.65032 0.0
H5505 H 0.10902 0.53525 0.6476 0.0
H5506 H 0.14371 0.54112 0.65098 0.0
H5507 H 0.15531 0.49492 0.61216 0.0
H5508 H 0.1207 0.48867 0.60871 0.0
H5509 H 0.01722 0.53667 0.5703 0.0
H5510 H 0.03816 0.53534 0.5977 0.0
H5511 H 0.06977 0.48869 0.57211 0.0
H5512 H 0.04906 0.49033 0.54431 0.0
H5513 H 0.09226 0.51354 0.59631 0.0
H5514 H 0.03357 0.47635 0.59724 0.0
H5515 H -0.00123 0.47204 0.59324 0.0
H5516 H 0.98845 0.51486 0.63588 0.0
H5517 H 0.0232 0.51967 0.63989 0.0
C5518 C 0.11038 0.49113 0.68432 0.0
C5519 C 0.1001 0.5005 0.69859 0.0
C5520 C 0.10359 0.49129 0.66583 0.0
C5521 C 0.08697 0.50166 0.66125 0.0
C5522 C 0.07681 0.51103 0.67569 0.0
C5523 C 0.08316 0.51018 0.69422 0.0
C5524 C 0.07973 0.50273 0.64163 0.0
C5525 C 0.06012 0.4995 0.63864 0.0
C5526 C 0.09157 0.50747 0.62606 0.0
C5527 C 0.11232 0.51138 0.62805 0.0
C5528 C 0.11899 0.5263 0.63987 0.0
C5529 C 0.13862 0.5297 0.64178 0.0
C5530 C 0.1517 0.51837 0.63183 0.0
C5531 C 0.14517 0.50366 0.61988 0.0
C5532 C 0.12555 0.5002 0.61793 0.0
C5533 C 0.02913 0.52669 0.5702 0.0
C5534 C 0.03147 0.51347 0.55538 0.0
C5535 C 0.04102 0.52589 0.58585 0.0
C5536 C 0.05512 0.51157 0.58706 0.0
C5537 C 0.05886 0.49976 0.57142 0.0
C5538 C 0.04709 0.50075 0.55555 0.0
C5539 C 0.06363 0.50714 0.60553 0.0
C5540 C 0.08336 0.50937 0.60815 0.0
C5541 C 0.05191 0.50169 0.62087 0.0
C5542 C 0.031 0.49845 0.61878 0.0
C5543 C 0.02388 0.48492 0.60569 0.0
C5544 C 0.00416 0.48239 0.60342 0.0
C5545 C 0.99141 0.49319 0.61429 0.0
C5546 C -0.00165 0.50651 0.62748 0.0
C5547 C 0.01805 0.50913 0.62976 0.0
H5548 H 0.97615 0.49122 0.61251 0.0
H5549 H 0.1669 0.52101 0.63334 0.0
H5550 H 0.25139 0.38331 0.42707 0.0
H5551 H 0.24854 0.36581 0.39759 0.0
H5552 H 0.24152 0.31215 0.42776 0.0
H5553 H 0.2446 0.32968 0.45773 0.0
H5554 H 0.26532 0.3076 0.39787 0.0
H5555 H 0.2033 0.33356 0.4077 0.0
H5556 H 0.17928 0.35851 0.41487 0.0
H5557 H 0.19648 0.39067 0.36606 0.0
H5558 H 0.22082 0.36602 0.35874 0.0
H5559 H 0.21974 0.25458 0.32497 0.0
H5560 H 0.22115 0.27576 0.35229 0.0
H5561 H 0.25399 0.31747 0.32074 0.0
H5562 H 0.25328 0.2958 0.2931 0.0
H5563 H 0.21747 0.3283 0.35054 0.0
H5564 H 0.28112 0.30055 0.34221 0.0
H5565 H 0.3025 0.27312 0.33546 0.0
H5566 H 0.27939 0.24203 0.38256 0.0
H5567 H 0.25751 0.26912 0.38931 0.0
C5568 C 0.24917 0.36779 0.42762 0.0
C5569 C 0.24808 0.35799 0.44496 0.0
C5570 C 0.2475 0.35778 0.41062 0.0
C5571 C 0.24454 0.33768 0.41036 0.0
C5572 C 0.24373 0.32769 0.42758 0.0
C5573 C 0.24542 0.33774 0.44472 0.0
C5574 C 0.24231 0.32733 0.39203 0.0
C5575 C 0.25478 0.3121 0.38761 0.0
C5576 C 0.22865 0.3332 0.37846 0.0
C5577 C 0.21402 0.34804 0.38278 0.0
C5578 C 0.20208 0.34603 0.39858 0.0
C5579 C 0.18838 0.36011 0.40266 0.0
C5580 C 0.18639 0.37619 0.39096 0.0
C5581 C 0.19806 0.37821 0.37512 0.0
C5582 C 0.2118 0.36419 0.371 0.0
C5583 C 0.227 0.26841 0.3236 0.0
C5584 C 0.23659 0.27338 0.30683 0.0
C5585 C 0.22778 0.28049 0.33931 0.0
C5586 C 0.23789 0.298 0.33862 0.0
C5587 C 0.24618 0.3039 0.32152 0.0
C5588 C 0.24563 0.2916 0.30571 0.0
C5589 C 0.24078 0.30907 0.35632 0.0
C5590 C 0.22822 0.32415 0.36072 0.0
C5591 C 0.25417 0.30292 0.36995 0.0
C5592 C 0.26751 0.28675 0.36611 0.0
C5593 C 0.28043 0.28777 0.35099 0.0
C5594 C 0.29268 0.27231 0.34719 0.0
C5595 C 0.29228 0.25582 0.35854 0.0
C5596 C 0.27966 0.2548 0.37375 0.0
C5597 C 0.26733 0.2702 0.37757 0.0
H5598 H 0.30178 0.24386 0.35558 0.0
H5599 H 0.17577 0.38708 0.39413 0.0
H5600 H 0.31481 0.36848 0.48595 0.0
H5601 H 0.34732 0.38217 0.48832 0.0
H5602 H 0.3252 0.43089 0.5193 0.0
H5603 H 0.29294 0.41672 0.51782 0.0
H5604 H 0.35458 0.43446 0.48172 0.0
H5605 H 0.34332 0.41385 0.54684 0.0
H5606 H 0.33319 0.38967 0.57033 0.0
H5607 H 0.37508 0.34981 0.54932 0.0
H5608 H 0.38522 0.37372 0.52547 0.0
H5609 H 0.42582 0.48489 0.5355 0.0
H5610 H 0.39862 0.46285 0.53224 0.0
H5611 H 0.43102 0.42753 0.49387 0.0
H5612 H 0.45847 0.44962 0.49698 0.0
H5613 H 0.3985 0.41396 0.53266 0.0
H5614 H 0.41035 0.43802 0.46737 0.0
H5615 H 0.41941 0.46466 0.446 0.0
H5616 H 0.37488 0.50007 0.46916 0.0
H5617 H 0.36585 0.47374 0.49093 0.0
C5618 C 0.31694 0.38217 0.49315 0.0
C5619 C 0.30132 0.392 0.50102 0.0
C5620 C 0.33544 0.38995 0.4945 0.0
C5621 C 0.33858 0.4076 0.50384 0.0
C5622 C 0.32302 0.41732 0.51189 0.0
C5623 C 0.30461 0.40936 0.51085 0.0
C5624 C 0.35816 0.41574 0.50558 0.0
C5625 C 0.36421 0.42988 0.49276 0.0
C5626 C 0.37076 0.40973 0.51993 0.0
C5627 C 0.36478 0.3954 0.53421 0.0
C5628 C 0.35018 0.39983 0.54708 0.0
C5629 C 0.34449 0.38621 0.56049 0.0
C5630 C 0.35342 0.36817 0.56126 0.0
C5631 C 0.36812 0.36376 0.54866 0.0
C5632 C 0.37385 0.37733 0.53519 0.0
C5633 C 0.42739 0.47212 0.52676 0.0
C5634 C 0.4443 0.46905 0.51645 0.0
C5635 C 0.4118 0.45957 0.52489 0.0
C5636 C 0.41275 0.44366 0.5127 0.0
C5637 C 0.43003 0.43969 0.5034 0.0
C5638 C 0.44575 0.45227 0.50529 0.0
C5639 C 0.395 0.43256 0.50866 0.0
C5640 C 0.3891 0.41809 0.52125 0.0
C5641 C 0.38244 0.43839 0.49417 0.0
C5642 C 0.38767 0.45408 0.48095 0.0
C5643 C 0.40267 0.45158 0.46805 0.0
C5644 C 0.40777 0.46659 0.45584 0.0
C5645 C 0.39779 0.48408 0.45629 0.0
C5646 C 0.38264 0.48655 0.46888 0.0
C5647 C 0.37755 0.4716 0.48116 0.0
H5648 H 0.40176 0.49569 0.44682 0.0
H5649 H 0.34899 0.35764 0.57167 0.0
H5650 H 0.8076 0.1188 0.5109 0.0
H5651 H 0.83933 0.10508 0.51701 0.0
H5652 H 0.8255 0.05599 0.48184 0.0
H5653 H 0.79412 0.06933 0.47573 0.0
H5654 H 0.84209 0.04468 0.51444 0.0
H5655 H 0.85298 0.09219 0.46551 0.0
H5656 H 0.85277 0.12486 0.45155 0.0
H5657 H 0.88839 0.14606 0.49634 0.0
H5658 H 0.88858 0.11354 0.5107 0.0
H5659 H 0.93089 0.01166 0.47408 0.0
H5660 H 0.89883 0.0248 0.48037 0.0
H5661 H 0.92151 0.05785 0.5269 0.0
H5662 H 0.95335 0.04424 0.52101 0.0
H5663 H 0.90142 0.07884 0.49488 0.0
H5664 H 0.89427 0.02968 0.54111 0.0
H5665 H 0.8951 -0.00338 0.55406 0.0
H5666 H 0.85298 0.97814 0.51383 0.0
H5667 H 0.85213 0.01104 0.50041 0.0
C5668 C 0.81136 0.10512 0.50444 0.0
C5669 C 0.79828 0.09525 0.49276 0.0
C5670 C 0.82946 0.0973 0.50796 0.0
C5671 C 0.83472 0.0795 0.4999 0.0
C5672 C 0.82169 0.06967 0.48832 0.0
C5673 C 0.80375 0.07745 0.48474 0.0
C5674 C 0.85389 0.07104 0.50297 0.0
C5675 C 0.85507 0.05213 0.51015 0.0
C5676 C 0.87084 0.08096 0.49782 0.0
C5677 C 0.87055 0.10053 0.48932 0.0
C5678 C 0.86059 0.10388 0.47248 0.0
C5679 C 0.86051 0.12235 0.46447 0.0
C5680 C 0.87049 0.13754 0.47309 0.0
C5681 C 0.88061 0.13429 0.48971 0.0
C5682 C 0.88071 0.11584 0.49779 0.0
C5683 C 0.9288 0.02129 0.48594 0.0
C5684 C 0.94431 0.02694 0.49717 0.0
C5685 C 0.91061 0.02878 0.48951 0.0
C5686 C 0.90792 0.04224 0.5041 0.0
C5687 C 0.92335 0.04742 0.51566 0.0
C5688 C 0.94142 0.03964 0.51232 0.0
C5689 C 0.88949 0.05238 0.5059 0.0
C5690 C 0.88847 0.07156 0.49956 0.0
C5691 C 0.87271 0.04268 0.51175 0.0
C5692 C 0.87331 0.0228 0.51961 0.0
C5693 C 0.88536 0.01852 0.53486 0.0
C5694 C 0.88579 -0.00018 0.54233 0.0
C5695 C 0.87414 0.98527 0.53474 0.0
C5696 C 0.86202 0.98942 0.51968 0.0
C5697 C 0.86155 0.0081 0.51214 0.0
H5698 H 0.87446 0.97081 0.54056 0.0
H5699 H 0.87044 0.15183 0.46685 0.0
H5700 H 0.61444 0.06862 0.26527 0.0
H5701 H 0.62924 0.10086 0.2616 0.0
H5702 H 0.67938 0.07443 0.23753 0.0
H5703 H 0.66423 0.04249 0.24015 0.0
H5704 H 0.68312 0.10494 0.27036 0.0
H5705 H 0.66018 0.09092 0.20745 0.0
H5706 H 0.63562 0.08129 0.18434 0.0
H5707 H 0.60061 0.12912 0.20146 0.0
H5708 H 0.6249 0.13883 0.22493 0.0
H5709 H 0.74242 0.16842 0.22308 0.0
H5710 H 0.71933 0.14209 0.22571 0.0
H5711 H 0.67623 0.18232 0.24416 0.0
H5712 H 0.69943 0.20898 0.24191 0.0
H5713 H 0.66492 0.14806 0.21765 0.0
H5714 H 0.69791 0.16534 0.27502 0.0
H5715 H 0.72633 0.1724 0.29423 0.0
H5716 H 0.74697 0.11476 0.28469 0.0
H5717 H 0.71905 0.10757 0.26472 0.0
C5718 C 0.62867 0.0698 0.25934 0.0
C5719 C 0.63864 0.05317 0.25373 0.0
C5720 C 0.63705 0.0881 0.25725 0.0
C5721 C 0.6554 0.08983 0.2495 0.0
C5722 C 0.66528 0.07324 0.24376 0.0
C5723 C 0.65675 0.05506 0.24547 0.0
C5724 C 0.6643 0.10897 0.24687 0.0
C5725 C 0.67922 0.11441 0.25888 0.0
C5726 C 0.65887 0.12126 0.232 0.0
C5727 C 0.64416 0.11538 0.21814 0.0
C5728 C 0.64711 0.09921 0.20647 0.0
C5729 C 0.63329 0.09378 0.19327 0.0
C5730 C 0.61652 0.10453 0.19149 0.0
C5731 C 0.61357 0.12077 0.2029 0.0
C5732 C 0.62736 0.12623 0.21616 0.0
C5733 C 0.72793 0.17183 0.22728 0.0
C5734 C 0.72287 0.19073 0.23269 0.0
C5735 C 0.71477 0.15676 0.22872 0.0
C5736 C 0.69631 0.16033 0.23545 0.0
C5737 C 0.69051 0.1794 0.23902 0.0
C5738 C 0.70378 0.19457 0.23772 0.0
C5739 C 0.68417 0.14382 0.24088 0.0
C5740 C 0.66861 0.13884 0.22942 0.0
C5741 C 0.68949 0.13161 0.25597 0.0
C5742 C 0.70628 0.13593 0.26823 0.0
C5743 C 0.70852 0.15419 0.27683 0.0
C5744 C 0.7246 0.15823 0.28786 0.0
C5745 C 0.73841 0.14402 0.29074 0.0
C5746 C 0.73624 0.12576 0.28248 0.0
C5747 C 0.7203 0.12172 0.27124 0.0
H5748 H 0.75081 0.14716 0.29936 0.0
H5749 H 0.60584 0.10034 0.18123 0.0
H5750 H 0.69272 0.91072 0.96787 0.0
H5751 H 0.65989 0.92197 0.97149 0.0
H5752 H 0.6603 0.90435 0.02963 0.0
H5753 H 0.69295 0.89218 0.0258 0.0
H5754 H 0.62588 0.89854 0.01612 0.0
H5755 H 0.66928 0.95194 0.01633 0.0
H5756 H 0.69589 0.97216 0.00461 0.0
H5757 H 0.66433 0.98408 0.95422 0.0
H5758 H 0.63766 0.96363 0.96549 0.0
H5759 H 0.56276 0.99076 0.02423 0.0
H5760 H 0.58852 0.96781 0.03097 0.0
H5761 H 0.57352 0.93526 0.98134 0.0
H5762 H 0.54751 0.95776 0.97498 0.0
H5763 H 0.61485 0.96607 0.9952 0.0
H5764 H 0.57406 0.90425 0.99652 0.0
H5765 H 0.54929 0.88422 0.01193 0.0
H5766 H 0.5777 0.89136 0.06501 0.0
H5767 H 0.60243 0.91173 0.04992 0.0
C5768 C 0.68574 0.90902 0.98137 0.0
C5769 C 0.6955 0.90074 0.9966 0.0
C5770 C 0.66698 0.91553 0.98346 0.0
C5771 C 0.65773 0.91451 0.00099 0.0
C5772 C 0.66712 0.90541 0.016 0.0
C5773 C 0.6858 0.89849 0.0138 0.0
C5774 C 0.6388 0.92397 0.00378 0.0
C5775 C 0.62353 0.91333 0.01158 0.0
C5776 C 0.63569 0.94345 -0.00165 0.0
C5777 C 0.65152 0.95614 0.99171 0.0
C5778 C 0.66805 0.9588 0.00272 0.0
C5779 C 0.68315 0.9703 0.99615 0.0
C5780 C 0.68181 0.97938 0.97868 0.0
C5781 C 0.66535 0.97703 0.96775 0.0
C5782 C 0.65023 0.9655 0.97423 0.0
C5783 C 0.56409 0.97791 0.01559 0.0
C5784 C 0.55288 0.97572 -0.00064 0.0
C5785 C 0.57894 0.96489 0.01933 0.0
C5786 C 0.58277 0.94961 0.00683 0.0
C5787 C 0.57046 0.94649 0.99154 0.0
C5788 C 0.55557 0.95938 0.98791 0.0
C5789 C 0.60188 0.94039 0.00679 0.0
C5790 C 0.61726 0.95126 -0.00034 0.0
C5791 C 0.60512 0.92134 0.01316 0.0
C5792 C 0.58986 0.90976 0.02218 0.0
C5793 C 0.57481 0.90184 0.01152 0.0
C5794 C 0.56086 0.89031 0.02017 0.0
C5795 C 0.56195 0.88651 0.03943 0.0
C5796 C 0.57688 0.89433 0.0501 0.0
C5797 C 0.59084 0.90588 0.04152 0.0
H5798 H 0.55125 0.87749 0.04612 0.0
H5799 H 0.69352 0.98825 0.97361 0.0
H5800 H 0.33325 0.45883 0.23871 0.0
H5801 H 0.31541 0.42877 0.23689 0.0
H5802 H 0.35626 0.40147 0.27362 0.0
H5803 H 0.37534 0.43136 0.27363 0.0
H5804 H 0.34928 0.37835 0.24661 0.0
H5805 H 0.2812 0.40328 0.28655 0.0
H5806 H 0.25164 0.42241 0.28353 0.0
H5807 H 0.26193 0.42917 0.22443 0.0
H5808 H 0.29058 0.40876 0.22695 0.0
H5809 H 0.29931 0.28733 0.25536 0.0
H5810 H 0.31648 0.31728 0.26443 0.0
H5811 H 0.27123 0.3509 0.23921 0.0
H5812 H 0.25375 0.32174 0.23238 0.0
H5813 H 0.28115 0.37019 0.26347 0.0
H5814 H 0.31796 0.33457 0.21897 0.0
H5815 H 0.33753 0.30779 0.20669 0.0
H5816 H 0.38026 0.31925 0.24865 0.0
H5817 H 0.36082 0.34607 0.26124 0.0
C5818 C 0.33818 0.44648 0.2467 0.0
C5819 C 0.35547 0.44755 0.25663 0.0
C5820 C 0.32763 0.42915 0.24598 0.0
C5821 C 0.33369 0.41254 0.25575 0.0
C5822 C 0.35095 0.41389 0.26599 0.0
C5823 C 0.36188 0.43102 0.26611 0.0
C5824 C 0.32344 0.39329 0.25435 0.0
C5825 C 0.3343 0.37662 0.25021 0.0
C5826 C 0.30361 0.39062 0.25795 0.0
C5827 C 0.28909 0.40608 0.25728 0.0
C5828 C 0.27752 0.40948 0.27306 0.0
C5829 C 0.26057 0.41998 0.27132 0.0
C5830 C 0.25518 0.42748 0.25389 0.0
C5831 C 0.26639 0.42388 0.23804 0.0
C5832 C 0.28291 0.41273 0.23962 0.0
C5833 C 0.29272 0.30123 0.25283 0.0
C5834 C 0.2751 0.30228 0.24338 0.0
C5835 C 0.30274 0.31839 0.25756 0.0
C5836 C 0.29553 0.33668 0.25225 0.0
C5837 C 0.27734 0.33734 0.24383 0.0
C5838 C 0.26719 0.3205 0.23987 0.0
C5839 C 0.3065 0.35536 0.25446 0.0
C5840 C 0.29609 0.37184 0.2596 0.0
C5841 C 0.32594 0.35793 0.24919 0.0
C5842 C 0.33764 0.3419 0.24149 0.0
C5843 C 0.3314 0.33122 0.22575 0.0
C5844 C 0.34251 0.31608 0.21867 0.0
C5845 C 0.36005 0.31169 0.227 0.0
C5846 C 0.3666 0.32255 0.24231 0.0
C5847 C 0.35552 0.33769 0.24945 0.0
H5848 H 0.36863 0.29997 0.2215 0.0
H5849 H 0.24218 0.4358 0.25262 0.0
H5850 H 0.20429 0.59522 0.02193 0.0
H5851 H 0.172 0.58458 0.02898 0.0
H5852 H 0.15439 0.60068 0.97284 0.0
H5853 H 0.18562 0.61575 0.96801 0.0
H5854 H 0.12766 0.60755 0.99021 0.0
H5855 H 0.16224 0.54475 0.99667 0.0
H5856 H 0.18594 0.52216 0.01023 0.0
H5857 H 0.16789 0.53745 0.06585 0.0
H5858 H 0.14374 0.55956 0.05271 0.0
H5859 H 0.04749 0.54373 0.98647 0.0
H5860 H 0.07613 0.56368 0.98381 0.0
H5861 H 0.08507 0.5591 0.04373 0.0
H5862 H 0.0571 0.5377 0.04601 0.0
H5863 H 0.11473 0.54807 0.02692 0.0
H5864 H 0.07442 0.60408 0.01764 0.0
H5865 H 0.04764 0.62086 0.00216 0.0
H5866 H 0.07556 0.61502 0.94872 0.0
H5867 H 0.10237 0.59797 0.96381 0.0
C5868 C 0.19346 0.5962 0.01107 0.0
C5869 C 0.19765 0.60515 0.99392 0.0
C5870 C 0.17496 0.5897 0.01494 0.0
C5871 C 0.16052 0.59061 0.00117 0.0
C5872 C 0.16499 0.59948 0.98385 0.0
C5873 C 0.18309 0.60753 0.98069 0.0
C5874 C 0.14058 0.58362 0.0051 0.0
C5875 C 0.12504 0.59428 -0.00207 0.0
C5876 C 0.13655 0.56681 0.01594 0.0
C5877 C 0.15148 0.55399 0.02371 0.0
C5878 C 0.16351 0.54339 0.01177 0.0
C5879 C 0.17695 0.53066 0.01936 0.0
C5880 C 0.17862 0.52863 0.03882 0.0
C5881 C 0.16667 0.53911 0.05077 0.0
C5882 C 0.15302 0.55162 0.04328 0.0
C5883 C 0.05511 0.54774 -0.00083 0.0
C5884 C 0.05007 0.53952 0.01649 0.0
C5885 C 0.07152 0.55918 0.99766 0.0
C5886 C 0.08276 0.56312 0.0136 0.0
C5887 C 0.07666 0.55626 0.03123 0.0
C5888 C 0.0606 0.54424 0.03261 0.0
C5889 C 0.10221 0.5716 0.0115 0.0
C5890 C 0.11755 0.56128 0.01912 0.0
C5891 C 0.10599 0.58837 0.00072 0.0
C5892 C 0.09041 0.59971 0.99188 0.0
C5893 C 0.07487 0.60641 0.00259 0.0
C5894 C 0.05967 0.61594 0.99388 0.0
C5895 C 0.05991 0.61901 0.97447 0.0
C5896 C 0.07541 0.61267 0.96375 0.0
C5897 C 0.09064 0.60311 0.97239 0.0
H5898 H 0.04806 0.62626 0.96774 0.0
H5899 H 0.18908 0.51881 0.04462 0.0
H5900 H 0.64214 0.94861 0.22947 0.0
H5901 H 0.65958 0.91832 0.22485 0.0
H5902 H 0.67457 0.91795 0.28372 0.0
H5903 H 0.65795 0.94861 0.28815 0.0
H5904 H 0.70499 0.91313 0.26401 0.0
H5905 H 0.64166 0.88266 0.26299 0.0
H5906 H 0.60857 0.87827 0.25158 0.0
H5907 H 0.62933 0.87063 0.19525 0.0
H5908 H 0.66249 0.87537 0.20633 0.0
H5909 H 0.72797 0.81787 0.28734 0.0
H5910 H 0.71573 0.85039 0.28195 0.0
H5911 H 0.71669 0.84031 0.22206 0.0
H5912 H 0.72886 0.8075 0.22752 0.0
H5913 H 0.68137 0.8521 0.23512 0.0
H5914 H 0.74577 0.87439 0.24003 0.0
H5915 H 0.77811 0.87659 0.25369 0.0
H5916 H 0.75466 0.89913 0.30501 0.0
H5917 H 0.72215 0.89681 0.29177 0.0
C5918 C 0.6488 0.94179 0.24149 0.0
C5919 C 0.64879 0.95093 0.25916 0.0
C5920 C 0.65875 0.92447 0.23884 0.0
C5921 C 0.66845 0.91585 0.25393 0.0
C5922 C 0.6674 0.92444 0.27181 0.0
C5923 C 0.65781 0.94188 0.27437 0.0
C5924 C 0.68089 0.89875 0.25108 0.0
C5925 C 0.69976 0.89974 0.25782 0.0
C5926 C 0.67442 0.88158 0.2422 0.0
C5927 C 0.6545 0.87928 0.23547 0.0
C5928 C 0.63913 0.88014 0.24816 0.0
C5929 C 0.62037 0.87761 0.24176 0.0
C5930 C 0.61685 0.87414 0.2227 0.0
C5931 C 0.63208 0.87326 0.21001 0.0
C5932 C 0.65085 0.87582 0.21634 0.0
C5933 C 0.72621 0.82285 0.27301 0.0
C5934 C 0.72961 0.81035 0.25782 0.0
C5935 C 0.7192 0.84141 0.26993 0.0
C5936 C 0.71539 0.84779 0.2516 0.0
C5937 C 0.71966 0.83568 0.2363 0.0
C5938 C 0.72688 0.81709 0.2394 0.0
C5939 C 0.70509 0.86625 0.24892 0.0
C5940 C 0.68671 0.86561 0.24099 0.0
C5941 C 0.71191 0.8837 0.25695 0.0
C5942 C 0.7315 0.88537 0.2649 0.0
C5943 C 0.74749 0.87973 0.25426 0.0
C5944 C 0.76586 0.881 0.26193 0.0
C5945 C 0.76844 0.88799 0.28021 0.0
C5946 C 0.75265 0.89375 0.29085 0.0
C5947 C 0.73425 0.89249 0.28325 0.0
H5948 H 0.78267 0.88895 0.28613 0.0
H5949 H 0.60232 0.87214 0.21778 0.0
H5950 H 0.82178 0.04177 0.75884 0.0
H5951 H 0.81108 0.07466 0.75255 0.0
H5952 H 0.86879 0.09174 0.73896 0.0
H5953 H 0.87971 0.05838 0.74466 0.0
H5954 H 0.84253 0.11526 0.76895 0.0
H5955 H 0.84803 0.09271 0.70485 0.0
H5956 H 0.84294 0.06893 0.6794 0.0
H5957 H 0.78215 0.0731 0.68682 0.0
H5958 H 0.78689 0.09666 0.71255 0.0
H5959 H 0.80297 0.20596 0.75652 0.0
H5960 H 0.82404 0.17961 0.74667 0.0
H5961 H 0.77461 0.14405 0.73446 0.0
H5962 H 0.75373 0.17084 0.74318 0.0
H5963 H 0.80261 0.13184 0.71367 0.0
H5964 H 0.79492 0.14696 0.77928 0.0
H5965 H 0.79631 0.16781 0.80745 0.0
H5966 H 0.85698 0.17461 0.80039 0.0
H5967 H 0.85588 0.154 0.77199 0.0
C5968 C 0.83229 0.05242 0.75447 0.0
C5969 C 0.85166 0.04737 0.75228 0.0
C5970 C 0.82609 0.07123 0.75082 0.0
C5971 C 0.83911 0.08558 0.7452 0.0
C5972 C 0.85851 0.0808 0.7432 0.0
C5973 C 0.86471 0.06176 0.74645 0.0
C5974 C 0.83214 0.1056 0.74208 0.0
C5975 C 0.83431 0.11916 0.75661 0.0
C5976 C 0.82075 0.11032 0.72633 0.0
C5977 C 0.81783 0.09633 0.71072 0.0
C5978 C 0.83358 0.08842 0.70117 0.0
C5979 C 0.83076 0.07501 0.68667 0.0
C5980 C 0.81223 0.06947 0.68152 0.0
C5981 C 0.79649 0.07739 0.69083 0.0
C5982 C 0.79924 0.09079 0.70536 0.0
C5983 C 0.79669 0.19305 0.75036 0.0
C5984 C 0.77675 0.19062 0.75008 0.0
C5985 C 0.80872 0.17776 0.74518 0.0
C5986 C 0.80096 0.15955 0.74037 0.0
C5987 C 0.78104 0.15786 0.73817 0.0
C5988 C 0.76906 0.17325 0.74302 0.0
C5989 C 0.81296 0.14169 0.74058 0.0
C5990 C 0.81145 0.12834 0.7257 0.0
C5991 C 0.82455 0.1369 0.75629 0.0
C5992 C 0.82528 0.14917 0.7734 0.0
C5993 C 0.80853 0.15301 0.78368 0.0
C5994 C 0.80927 0.16477 0.79968 0.0
C5995 C 0.82672 0.17258 0.80567 0.0
C5996 C 0.84347 0.16859 0.7957 0.0
C5997 C 0.8428 0.15688 0.77965 0.0
H5998 H 0.82726 0.18168 0.81807 0.0
H5999 H 0.81007 0.05908 0.6703 0.0
loop_
_geom_bond_atom_site_label_1
_geom_bond_atom_site_label_2
_geom_bond_distance
_geom_bond_site_symmetry_2
_ccdc_geom_bond_type
Mn0 O5 2.095 . S
Mn0 O15 2.162 . S
Mn0 O16 2.297 . S
Mn0 O24 2.385 . S
Mn0 O25 2.208 . S
Mn0 O26 2.094 1_455 S
Mn1 O6 2.121 . S
Mn1 N8 2.257 . S
Mn1 N17 2.282 . S
Mn1 O25 2.217 1_655 S
Mn1 O27 2.117 . S
C2 O24 1.234 . S
C2 O25 1.283 . S
C3 O15 1.281 . S
C3 O16 1.236 . S
C4 O26 1.240 . S
C4 O27 1.264 . S
O5 Mn0 2.095 . S
O5 C14 1.250 1_455 S
O6 Mn1 2.121 . S
O6 C14 1.258 . S
C7 N8 1.326 . S
C7 C11 1.460 . S
C7 H13 0.929 . S
N8 Mn1 2.257 . S
N8 C7 1.326 . S
N8 C12 1.362 . S
C9 C10 1.258 . S
C9 C12 1.431 . S
C9 C29 1.449 . S
C10 C9 1.258 . S
C10 C11 1.477 . S
C10 H30 0.931 . S
C11 C7 1.460 . S
C11 C10 1.477 . S
C11 H31 0.930 . S
C12 N8 1.362 . S
C12 C9 1.431 . S
C12 C22 1.476 . S
H13 C7 0.929 . S
C14 O5 1.250 1_655 S
C14 O6 1.258 . S
O15 Mn0 2.162 . S
O15 C3 1.281 . S
O16 Mn0 2.297 . S
O16 C3 1.236 . S
N17 Mn1 2.282 . S
N17 C18 1.328 . S
N17 C22 1.318 . S
C18 N17 1.328 . S
C18 C19 1.457 . S
C18 H23 0.929 . S
C19 C18 1.457 . S
C19 C20 1.291 . S
C19 H32 0.931 . S
C20 C19 1.291 . S
C20 C21 1.373 . S
C20 H33 0.929 . S
C21 C20 1.373 . S
C21 C22 1.396 . S
C21 C28 1.403 . S
C22 C12 1.476 . S
C22 N17 1.318 . S
C22 C21 1.396 . S
H23 C18 0.929 . S
O24 Mn0 2.385 . S
O24 C2 1.234 . S
O25 Mn0 2.208 . S
O25 Mn1 2.217 1_455 S
O25 C2 1.283 . S
O26 Mn0 2.094 1_655 S
O26 C4 1.240 . S
O27 Mn1 2.117 . S
O27 C4 1.264 . S
C28 C21 1.403 . S
C28 C29 1.399 . S
C28 H34 0.929 . S
C29 C9 1.449 . S
C29 C28 1.399 . S
C29 H35 0.930 . S
H30 C10 0.931 . S
H31 C11 0.930 . S
H32 C19 0.931 . S
H33 C20 0.929 . S
H34 C28 0.929 . S
H35 C29 0.930 . S
Mn36 O41 2.095 . S
Mn36 O51 2.162 . S
Mn36 O52 2.297 . S
Mn36 O60 2.385 . S
Mn36 O61 2.209 . S
Mn36 O62 2.094 1_455 S
Mn37 O42 2.121 . S
Mn37 N44 2.257 . S
Mn37 N53 2.282 . S
Mn37 O61 2.215 1_655 S
Mn37 O63 2.117 . S
C38 O60 1.234 . S
C38 O61 1.283 . S
C39 O51 1.281 . S
C39 O52 1.236 . S
C40 O62 1.240 . S
C40 O63 1.264 . S
O41 Mn36 2.095 . S
O41 C50 1.247 1_455 S
O42 Mn37 2.121 . S
O42 C50 1.273 . S
C43 N44 1.326 . S
C43 C47 1.460 . S
C43 H49 0.929 . S
N44 Mn37 2.257 . S
N44 C43 1.326 . S
N44 C48 1.362 . S
C45 C46 1.258 . S
C45 C48 1.431 . S
C45 C65 1.449 . S
C46 C45 1.258 . S
C46 C47 1.477 . S
C46 H66 0.931 . S
C47 C43 1.460 . S
C47 C46 1.477 . S
C47 H67 0.930 . S
C48 N44 1.362 . S
C48 C45 1.431 . S
C48 C58 1.476 . S
H49 C43 0.929 . S
C50 O41 1.247 1_655 S
C50 O42 1.273 . S
O51 Mn36 2.162 . S
O51 C39 1.281 . S
O52 Mn36 2.297 . S
O52 C39 1.236 . S
N53 Mn37 2.282 . S
N53 C54 1.328 . S
N53 C58 1.318 . S
C54 N53 1.328 . S
C54 C55 1.457 . S
C54 H59 0.929 . S
C55 C54 1.457 . S
C55 C56 1.291 . S
C55 H68 0.931 . S
C56 C55 1.291 . S
C56 C57 1.373 . S
C56 H69 0.929 . S
C57 C56 1.373 . S
C57 C58 1.396 . S
C57 C64 1.403 . S
C58 C48 1.476 . S
C58 N53 1.318 . S
C58 C57 1.396 . S
H59 C54 0.929 . S
O60 Mn36 2.385 . S
O60 C38 1.234 . S
O61 Mn36 2.209 . S
O61 Mn37 2.215 1_455 S
O61 C38 1.283 . S
O62 Mn36 2.094 1_655 S
O62 C40 1.240 . S
O63 Mn37 2.117 . S
O63 C40 1.264 . S
C64 C57 1.403 . S
C64 C65 1.399 . S
C64 H70 0.929 . S
C65 C45 1.449 . S
C65 C64 1.399 . S
C65 H71 0.930 . S
H66 C46 0.931 . S
H67 C47 0.930 . S
H68 C55 0.931 . S
H69 C56 0.929 . S
H70 C64 0.929 . S
H71 C65 0.930 . S
Mn72 O77 2.095 . S
Mn72 O87 2.162 . S
Mn72 O88 2.297 . S
Mn72 O96 2.385 . S
Mn72 O97 2.209 . S
Mn72 O98 2.094 . S
Mn73 O78 2.121 . S
Mn73 N80 2.257 . S
Mn73 N89 2.282 . S
Mn73 O97 2.215 . S
Mn73 O99 2.117 . S
C74 O96 1.234 . S
C74 O97 1.283 . S
C75 O87 1.281 . S
C75 O88 1.236 . S
C76 O98 1.240 . S
C76 O99 1.264 . S
O77 Mn72 2.095 . S
O77 C86 1.250 . S
O78 Mn73 2.121 . S
O78 C86 1.258 . S
C79 N80 1.326 . S
C79 C83 1.460 . S
C79 H85 0.929 . S
N80 Mn73 2.257 . S
N80 C79 1.326 . S
N80 C84 1.362 . S
C81 C82 1.258 . S
C81 C84 1.431 . S
C81 C101 1.449 . S
C82 C81 1.258 . S
C82 C83 1.477 . S
C82 H102 0.931 . S
C83 C79 1.460 . S
C83 C82 1.477 . S
C83 H103 0.930 . S
C84 N80 1.362 . S
C84 C81 1.431 . S
C84 C94 1.476 . S
H85 C79 0.929 . S
C86 O77 1.250 . S
C86 O78 1.258 . S
O87 Mn72 2.162 . S
O87 C75 1.281 . S
O88 Mn72 2.297 . S
O88 C75 1.236 . S
N89 Mn73 2.282 . S
N89 C90 1.328 . S
N89 C94 1.318 . S
C90 N89 1.328 . S
C90 C91 1.457 . S
C90 H95 0.929 . S
C91 C90 1.457 . S
C91 C92 1.291 . S
C91 H104 0.931 . S
C92 C91 1.291 . S
C92 C93 1.373 . S
C92 H105 0.929 . S
C93 C92 1.373 . S
C93 C94 1.396 . S
C93 C100 1.403 . S
C94 C84 1.476 . S
C94 N89 1.318 . S
C94 C93 1.396 . S
H95 C90 0.929 . S
O96 Mn72 2.385 . S
O96 C74 1.234 . S
O97 Mn72 2.209 . S
O97 Mn73 2.215 . S
O97 C74 1.283 . S
O98 Mn72 2.094 . S
O98 C76 1.240 . S
O99 Mn73 2.117 . S
O99 C76 1.264 . S
C100 C93 1.403 . S
C100 C101 1.399 . S
C100 H106 0.929 . S
C101 C81 1.449 . S
C101 C100 1.399 . S
C101 H107 0.930 . S
H102 C82 0.931 . S
H103 C83 0.930 . S
H104 C91 0.931 . S
H105 C92 0.929 . S
H106 C100 0.929 . S
H107 C101 0.930 . S
Mn108 O113 2.095 . S
Mn108 O123 2.162 . S
Mn108 O124 2.297 . S
Mn108 O132 2.385 . S
Mn108 O133 2.209 . S
Mn108 O134 2.094 . S
Mn109 O114 2.121 . S
Mn109 N116 2.257 . S
Mn109 N125 2.282 . S
Mn109 O133 2.215 . S
Mn109 O135 2.117 . S
C110 O132 1.234 . S
C110 O133 1.283 . S
C111 O123 1.281 . S
C111 O124 1.236 . S
C112 O134 1.240 . S
C112 O135 1.264 . S
O113 Mn108 2.095 . S
O113 C122 1.250 . S
O114 Mn109 2.121 . S
O114 C122 1.258 . S
C115 N116 1.326 . S
C115 C119 1.460 . S
C115 H121 0.929 . S
N116 Mn109 2.257 . S
N116 C115 1.326 . S
N116 C120 1.362 . S
C117 C118 1.258 . S
C117 C120 1.431 . S
C117 C137 1.449 . S
C118 C117 1.258 . S
C118 C119 1.477 . S
C118 H138 0.931 . S
C119 C115 1.460 . S
C119 C118 1.477 . S
C119 H139 0.930 . S
C120 N116 1.362 . S
C120 C117 1.431 . S
C120 C130 1.476 . S
H121 C115 0.929 . S
C122 O113 1.250 . S
C122 O114 1.258 . S
O123 Mn108 2.162 . S
O123 C111 1.281 . S
O124 Mn108 2.297 . S
O124 C111 1.236 . S
N125 Mn109 2.282 . S
N125 C126 1.328 . S
N125 C130 1.318 . S
C126 N125 1.328 . S
C126 C127 1.457 . S
C126 H131 0.929 . S
C127 C126 1.457 . S
C127 C128 1.291 . S
C127 H140 0.931 . S
C128 C127 1.291 . S
C128 C129 1.373 . S
C128 H141 0.929 . S
C129 C128 1.373 . S
C129 C130 1.396 . S
C129 C136 1.403 . S
C130 C120 1.476 . S
C130 N125 1.318 . S
C130 C129 1.396 . S
H131 C126 0.929 . S
O132 Mn108 2.385 . S
O132 C110 1.234 . S
O133 Mn108 2.209 . S
O133 Mn109 2.215 . S
O133 C110 1.283 . S
O134 Mn108 2.094 . S
O134 C112 1.240 . S
O135 Mn109 2.117 . S
O135 C112 1.264 . S
C136 C129 1.403 . S
C136 C137 1.399 . S
C136 H142 0.929 . S
C137 C117 1.449 . S
C137 C136 1.399 . S
C137 H143 0.930 . S
H138 C118 0.931 . S
H139 C119 0.930 . S
H140 C127 0.931 . S
H141 C128 0.929 . S
H142 C136 0.929 . S
H143 C137 0.930 . S
Mn144 O149 2.095 1_545 S
Mn144 O159 2.164 . S
Mn144 O160 2.297 . S
Mn144 O168 2.385 . S
Mn144 O169 2.209 . S
Mn144 O170 2.094 . S
Mn145 O150 2.121 1_545 S
Mn145 N152 2.257 . S
Mn145 N161 2.282 . S
Mn145 O169 2.215 . S
Mn145 O171 2.117 . S
C146 O168 1.234 . S
C146 O169 1.283 . S
C147 O159 1.284 . S
C147 O160 1.236 . S
C148 O170 1.240 . S
C148 O171 1.264 . S
O149 Mn144 2.095 1_565 S
O149 C158 1.250 . S
O150 Mn145 2.121 1_565 S
O150 C158 1.258 . S
C151 N152 1.337 . S
C151 C155 1.465 . S
C151 H157 0.914 1_545 S
N152 Mn145 2.257 . S
N152 C151 1.337 . S
N152 C156 1.362 . S
C153 C154 1.258 . S
C153 C156 1.431 . S
C153 C173 1.449 . S
C154 C153 1.258 . S
C154 C155 1.477 . S
C154 H174 0.931 . S
C155 C151 1.465 . S
C155 C154 1.477 . S
C155 H175 0.930 1_545 S
C156 N152 1.362 . S
C156 C153 1.431 . S
C156 C166 1.476 . S
H157 C151 0.914 1_565 S
C158 O149 1.250 . S
C158 O150 1.258 . S
O159 Mn144 2.164 . S
O159 C147 1.284 . S
O160 Mn144 2.297 . S
O160 C147 1.236 . S
N161 Mn145 2.282 . S
N161 C162 1.328 . S
N161 C166 1.318 . S
C162 N161 1.328 . S
C162 C163 1.457 . S
C162 H167 0.929 . S
C163 C162 1.457 . S
C163 C164 1.291 . S
C163 H176 0.931 . S
C164 C163 1.291 . S
C164 C165 1.373 . S
C164 H177 0.929 . S
C165 C164 1.373 . S
C165 C166 1.396 . S
C165 C172 1.403 . S
C166 C156 1.476 . S
C166 N161 1.318 . S
C166 C165 1.396 . S
H167 C162 0.929 . S
O168 Mn144 2.385 . S
O168 C146 1.234 . S
O169 Mn144 2.209 . S
O169 Mn145 2.215 . S
O169 C146 1.283 . S
O170 Mn144 2.094 . S
O170 C148 1.240 . S
O171 Mn145 2.117 . S
O171 C148 1.264 . S
C172 C165 1.403 . S
C172 C173 1.399 . S
C172 H178 0.929 . S
C173 C153 1.449 . S
C173 C172 1.399 . S
C173 H179 0.930 . S
H174 C154 0.931 . S
H175 C155 0.930 1_565 S
H176 C163 0.931 . S
H177 C164 0.929 . S
H178 C172 0.929 . S
H179 C173 0.930 . S
Mn180 O185 2.095 . S
Mn180 O195 2.162 . S
Mn180 O196 2.297 . S
Mn180 O204 2.385 . S
Mn180 O205 2.209 . S
Mn180 O206 2.094 . S
Mn181 O186 2.121 . S
Mn181 N188 2.257 . S
Mn181 N197 2.282 . S
Mn181 O205 2.215 . S
Mn181 O207 2.117 . S
C182 O204 1.234 . S
C182 O205 1.283 . S
C183 O195 1.281 . S
C183 O196 1.236 . S
C184 O206 1.240 . S
C184 O207 1.264 . S
O185 Mn180 2.095 . S
O185 C194 1.250 . S
O186 Mn181 2.121 . S
O186 C194 1.258 . S
C187 N188 1.326 . S
C187 C191 1.460 . S
C187 H193 0.929 . S
N188 Mn181 2.257 . S
N188 C187 1.326 . S
N188 C192 1.362 . S
C189 C190 1.258 . S
C189 C192 1.431 . S
C189 C209 1.449 . S
C190 C189 1.258 . S
C190 C191 1.477 . S
C190 H210 0.931 . S
C191 C187 1.460 . S
C191 C190 1.477 . S
C191 H211 0.930 . S
C192 N188 1.362 . S
C192 C189 1.431 . S
C192 C202 1.476 . S
H193 C187 0.929 . S
C194 O185 1.250 . S
C194 O186 1.258 . S
O195 Mn180 2.162 . S
O195 C183 1.281 . S
O196 Mn180 2.297 . S
O196 C183 1.236 . S
N197 Mn181 2.282 . S
N197 C198 1.328 . S
N197 C202 1.318 . S
C198 N197 1.328 . S
C198 C199 1.457 . S
C198 H203 0.929 . S
C199 C198 1.457 . S
C199 C200 1.291 . S
C199 H212 0.931 . S
C200 C199 1.291 . S
C200 C201 1.373 . S
C200 H213 0.929 . S
C201 C200 1.373 . S
C201 C202 1.396 . S
C201 C208 1.403 . S
C202 C192 1.476 . S
C202 N197 1.318 . S
C202 C201 1.396 . S
H203 C198 0.929 . S
O204 Mn180 2.385 . S
O204 C182 1.234 . S
O205 Mn180 2.209 . S
O205 Mn181 2.215 . S
O205 C182 1.283 . S
O206 Mn180 2.094 . S
O206 C184 1.240 . S
O207 Mn181 2.117 . S
O207 C184 1.264 . S
C208 C201 1.403 . S
C208 C209 1.399 . S
C208 H214 0.929 . S
C209 C189 1.449 . S
C209 C208 1.399 . S
C209 H215 0.930 . S
H210 C190 0.931 . S
H211 C191 0.930 . S
H212 C199 0.931 . S
H213 C200 0.929 . S
H214 C208 0.929 . S
H215 C209 0.930 . S
Mn216 O221 2.095 . S
Mn216 O231 2.162 . S
Mn216 O232 2.297 . S
Mn216 O240 2.385 1_545 S
Mn216 O241 2.209 1_545 S
Mn216 O242 2.094 . S
Mn217 O222 2.121 . S
Mn217 N224 2.257 1_545 S
Mn217 N233 2.282 1_545 S
Mn217 O241 2.215 1_545 S
Mn217 O243 2.117 . S
C218 O240 1.234 . S
C218 O241 1.283 . S
C219 O231 1.281 . S
C219 O232 1.236 . S
C220 O242 1.240 . S
C220 O243 1.264 . S
O221 Mn216 2.095 . S
O221 C230 1.250 . S
O222 Mn217 2.121 . S
O222 C230 1.258 . S
C223 N224 1.326 1_545 S
C223 C227 1.468 . S
C223 H229 0.929 . S
N224 Mn217 2.257 1_565 S
N224 C223 1.326 1_565 S
N224 C228 1.362 . S
C225 C226 1.258 . S
C225 C228 1.431 . S
C225 C245 1.449 . S
C226 C225 1.258 . S
C226 C227 1.452 1_565 S
C226 H246 0.931 . S
C227 C223 1.468 . S
C227 C226 1.452 1_545 S
C227 H247 0.947 . S
C228 N224 1.362 . S
C228 C225 1.431 . S
C228 C238 1.476 . S
H229 C223 0.929 . S
C230 O221 1.250 . S
C230 O222 1.258 . S
O231 Mn216 2.162 . S
O231 C219 1.281 . S
O232 Mn216 2.297 . S
O232 C219 1.236 . S
N233 Mn217 2.282 1_565 S
N233 C234 1.328 . S
N233 C238 1.318 . S
C234 N233 1.328 . S
C234 C235 1.457 . S
C234 H239 0.929 . S
C235 C234 1.457 . S
C235 C236 1.291 . S
C235 H248 0.931 . S
C236 C235 1.291 . S
C236 C237 1.373 . S
C236 H249 0.929 . S
C237 C236 1.373 . S
C237 C238 1.396 . S
C237 C244 1.403 . S
C238 C228 1.476 . S
C238 N233 1.318 . S
C238 C237 1.396 . S
H239 C234 0.929 . S
O240 Mn216 2.385 1_565 S
O240 C218 1.234 . S
O241 Mn216 2.209 1_565 S
O241 Mn217 2.215 1_565 S
O241 C218 1.283 . S
O242 Mn216 2.094 . S
O242 C220 1.240 . S
O243 Mn217 2.117 . S
O243 C220 1.264 . S
C244 C237 1.403 . S
C244 C245 1.399 . S
C244 H250 0.929 . S
C245 C225 1.449 . S
C245 C244 1.399 . S
C245 H251 0.930 . S
H246 C226 0.931 . S
H247 C227 0.947 . S
H248 C235 0.931 . S
H249 C236 0.929 . S
H250 C244 0.929 . S
H251 C245 0.930 . S
Mn252 O257 2.100 . S
Mn252 O267 2.162 . S
Mn252 O268 2.297 . S
Mn252 O276 2.385 . S
Mn252 O277 2.216 . S
Mn252 O278 2.094 1_554 S
Mn253 O258 2.121 . S
Mn253 N260 2.257 . S
Mn253 N269 2.282 . S
Mn253 O277 2.176 1_556 S
Mn253 O279 2.117 . S
C254 O276 1.234 . S
C254 O277 1.292 . S
C255 O267 1.281 . S
C255 O268 1.236 . S
C256 O278 1.240 . S
C256 O279 1.264 . S
O257 Mn252 2.100 . S
O257 C266 1.247 1_554 S
O258 Mn253 2.121 . S
O258 C266 1.258 . S
C259 N260 1.326 . S
C259 C263 1.460 . S
C259 H265 0.929 . S
N260 Mn253 2.257 . S
N260 C259 1.326 . S
N260 C264 1.362 . S
C261 C262 1.258 . S
C261 C264 1.431 . S
C261 C281 1.449 . S
C262 C261 1.258 . S
C262 C263 1.477 . S
C262 H282 0.931 . S
C263 C259 1.460 . S
C263 C262 1.477 . S
C263 H283 0.930 . S
C264 N260 1.362 . S
C264 C261 1.431 . S
C264 C274 1.476 . S
H265 C259 0.929 . S
C266 O257 1.247 1_556 S
C266 O258 1.258 . S
O267 Mn252 2.162 . S
O267 C255 1.281 . S
O268 Mn252 2.297 . S
O268 C255 1.236 . S
N269 Mn253 2.282 . S
N269 C270 1.328 . S
N269 C274 1.318 . S
C270 N269 1.328 . S
C270 C271 1.457 . S
C270 H275 0.929 . S
C271 C270 1.457 . S
C271 C272 1.291 . S
C271 H284 0.931 . S
C272 C271 1.291 . S
C272 C273 1.373 . S
C272 H285 0.929 . S
C273 C272 1.373 . S
C273 C274 1.396 . S
C273 C280 1.403 . S
C274 C264 1.476 . S
C274 N269 1.318 . S
C274 C273 1.396 . S
H275 C270 0.929 . S
O276 Mn252 2.385 . S
O276 C254 1.234 . S
O277 Mn252 2.216 . S
O277 Mn253 2.176 1_554 S
O277 C254 1.292 . S
O278 Mn252 2.094 1_556 S
O278 C256 1.240 . S
O279 Mn253 2.117 . S
O279 C256 1.264 . S
C280 C273 1.403 . S
C280 C281 1.399 . S
C280 H286 0.929 . S
C281 C261 1.449 . S
C281 C280 1.399 . S
C281 H287 0.930 . S
H282 C262 0.931 . S
H283 C263 0.930 . S
H284 C271 0.931 . S
H285 C272 0.929 . S
H286 C280 0.929 . S
H287 C281 0.930 . S
Mn288 O293 2.093 1_554 S
Mn288 O303 2.162 . S
Mn288 O304 2.297 . S
Mn288 O312 2.385 . S
Mn288 O313 2.209 . S
Mn288 O314 2.094 1_554 S
Mn289 O294 2.121 . S
Mn289 N296 2.257 . S
Mn289 N305 2.282 . S
Mn289 O313 2.214 1_556 S
Mn289 O315 2.117 . S
C290 O312 1.234 . S
C290 O313 1.283 . S
C291 O303 1.281 . S
C291 O304 1.236 . S
C292 O314 1.240 . S
C292 O315 1.264 . S
O293 Mn288 2.093 1_556 S
O293 C302 1.251 . S
O294 Mn289 2.121 . S
O294 C302 1.258 . S
C295 N296 1.326 . S
C295 C299 1.460 . S
C295 H301 0.929 . S
N296 Mn289 2.257 . S
N296 C295 1.326 . S
N296 C300 1.362 . S
C297 C298 1.258 . S
C297 C300 1.431 . S
C297 C317 1.449 . S
C298 C297 1.258 . S
C298 C299 1.477 . S
C298 H318 0.931 . S
C299 C295 1.460 . S
C299 C298 1.477 . S
C299 H319 0.930 . S
C300 N296 1.362 . S
C300 C297 1.431 . S
C300 C310 1.476 . S
H301 C295 0.929 . S
C302 O293 1.251 . S
C302 O294 1.258 . S
O303 Mn288 2.162 . S
O303 C291 1.281 . S
O304 Mn288 2.297 . S
O304 C291 1.236 . S
N305 Mn289 2.282 . S
N305 C306 1.328 . S
N305 C310 1.318 . S
C306 N305 1.328 . S
C306 C307 1.457 . S
C306 H311 0.929 . S
C307 C306 1.457 . S
C307 C308 1.291 . S
C307 H320 0.931 . S
C308 C307 1.291 . S
C308 C309 1.373 . S
C308 H321 0.929 . S
C309 C308 1.373 . S
C309 C310 1.396 . S
C309 C316 1.403 . S
C310 C300 1.476 . S
C310 N305 1.318 . S
C310 C309 1.396 . S
H311 C306 0.929 . S
O312 Mn288 2.385 . S
O312 C290 1.234 . S
O313 Mn288 2.209 . S
O313 Mn289 2.214 1_554 S
O313 C290 1.283 . S
O314 Mn288 2.094 1_556 S
O314 C292 1.240 . S
O315 Mn289 2.117 . S
O315 C292 1.264 . S
C316 C309 1.403 . S
C316 C317 1.399 . S
C316 H322 0.929 . S
C317 C297 1.449 . S
C317 C316 1.399 . S
C317 H323 0.930 . S
H318 C298 0.931 . S
H319 C299 0.930 . S
H320 C307 0.931 . S
H321 C308 0.929 . S
H322 C316 0.929 . S
H323 C317 0.930 . S
Mn324 O329 2.095 . S
Mn324 O339 2.162 . S
Mn324 O340 2.297 . S
Mn324 O348 2.385 . S
Mn324 O349 2.209 . S
Mn324 O350 2.094 . S
Mn325 O330 2.121 . S
Mn325 N332 2.257 . S
Mn325 N341 2.282 . S
Mn325 O349 2.215 . S
Mn325 O351 2.117 . S
C326 O348 1.234 . S
C326 O349 1.283 . S
C327 O339 1.281 . S
C327 O340 1.236 . S
C328 O350 1.240 . S
C328 O351 1.264 . S
O329 Mn324 2.095 . S
O329 C338 1.250 . S
O330 Mn325 2.121 . S
O330 C338 1.258 . S
C331 N332 1.326 . S
C331 C335 1.460 . S
C331 H337 0.929 . S
N332 Mn325 2.257 . S
N332 C331 1.326 . S
N332 C336 1.362 . S
C333 C334 1.258 . S
C333 C336 1.431 . S
C333 C353 1.449 . S
C334 C333 1.258 . S
C334 C335 1.477 . S
C334 H354 0.931 . S
C335 C331 1.460 . S
C335 C334 1.477 . S
C335 H355 0.930 . S
C336 N332 1.362 . S
C336 C333 1.431 . S
C336 C346 1.476 . S
H337 C331 0.929 . S
C338 O329 1.250 . S
C338 O330 1.258 . S
O339 Mn324 2.162 . S
O339 C327 1.281 . S
O340 Mn324 2.297 . S
O340 C327 1.236 . S
N341 Mn325 2.282 . S
N341 C342 1.328 . S
N341 C346 1.318 . S
C342 N341 1.328 . S
C342 C343 1.457 . S
C342 H347 0.929 . S
C343 C342 1.457 . S
C343 C344 1.291 . S
C343 H356 0.931 . S
C344 C343 1.291 . S
C344 C345 1.373 . S
C344 H357 0.929 . S
C345 C344 1.373 . S
C345 C346 1.396 . S
C345 C352 1.403 . S
C346 C336 1.476 . S
C346 N341 1.318 . S
C346 C345 1.396 . S
H347 C342 0.929 . S
O348 Mn324 2.385 . S
O348 C326 1.234 . S
O349 Mn324 2.209 . S
O349 Mn325 2.215 . S
O349 C326 1.283 . S
O350 Mn324 2.094 . S
O350 C328 1.240 . S
O351 Mn325 2.117 . S
O351 C328 1.264 . S
C352 C345 1.403 . S
C352 C353 1.399 . S
C352 H358 0.929 . S
C353 C333 1.449 . S
C353 C352 1.399 . S
C353 H359 0.930 . S
H354 C334 0.931 . S
H355 C335 0.930 . S
H356 C343 0.931 . S
H357 C344 0.929 . S
H358 C352 0.929 . S
H359 C353 0.930 . S
Mn360 O365 2.095 . S
Mn360 O375 2.162 . S
Mn360 O376 2.297 . S
Mn360 O384 2.385 . S
Mn360 O385 2.209 . S
Mn360 O386 2.094 . S
Mn361 O366 2.121 . S
Mn361 N368 2.257 . S
Mn361 N377 2.282 . S
Mn361 O385 2.215 . S
Mn361 O387 2.117 . S
C362 O384 1.234 . S
C362 O385 1.283 . S
C363 O375 1.281 . S
C363 O376 1.236 . S
C364 O386 1.240 . S
C364 O387 1.264 . S
O365 Mn360 2.095 . S
O365 C374 1.250 . S
O366 Mn361 2.121 . S
O366 C374 1.258 . S
C367 N368 1.326 . S
C367 C371 1.460 . S
C367 H373 0.929 . S
N368 Mn361 2.257 . S
N368 C367 1.326 . S
N368 C372 1.362 . S
C369 C370 1.258 . S
C369 C372 1.431 . S
C369 C389 1.449 . S
C370 C369 1.258 . S
C370 C371 1.477 . S
C370 H390 0.931 . S
C371 C367 1.460 . S
C371 C370 1.477 . S
C371 H391 0.930 . S
C372 N368 1.362 . S
C372 C369 1.431 . S
C372 C382 1.476 . S
H373 C367 0.929 . S
C374 O365 1.250 . S
C374 O366 1.258 . S
O375 Mn360 2.162 . S
O375 C363 1.281 . S
O376 Mn360 2.297 . S
O376 C363 1.236 . S
N377 Mn361 2.282 . S
N377 C378 1.328 . S
N377 C382 1.318 . S
C378 N377 1.328 . S
C378 C379 1.457 . S
C378 H383 0.929 . S
C379 C378 1.457 . S
C379 C380 1.291 . S
C379 H392 0.931 . S
C380 C379 1.291 . S
C380 C381 1.373 . S
C380 H393 0.929 . S
C381 C380 1.373 . S
C381 C382 1.396 . S
C381 C388 1.403 . S
C382 C372 1.476 . S
C382 N377 1.318 . S
C382 C381 1.396 . S
H383 C378 0.929 . S
O384 Mn360 2.385 . S
O384 C362 1.234 . S
O385 Mn360 2.209 . S
O385 Mn361 2.215 . S
O385 C362 1.283 . S
O386 Mn360 2.094 . S
O386 C364 1.240 . S
O387 Mn361 2.117 . S
O387 C364 1.264 . S
C388 C381 1.403 . S
C388 C389 1.399 . S
C388 H394 0.929 . S
C389 C369 1.449 . S
C389 C388 1.399 . S
C389 H395 0.930 . S
H390 C370 0.931 . S
H391 C371 0.930 . S
H392 C379 0.931 . S
H393 C380 0.929 . S
H394 C388 0.929 . S
H395 C389 0.930 . S
Mn396 O401 2.095 . S
Mn396 O411 2.162 . S
Mn396 O412 2.297 . S
Mn396 O420 2.385 . S
Mn396 O421 2.209 . S
Mn396 O422 2.094 . S
Mn397 O402 2.121 . S
Mn397 N404 2.257 . S
Mn397 N413 2.282 . S
Mn397 O421 2.215 . S
Mn397 O423 2.117 . S
C398 O420 1.234 . S
C398 O421 1.283 . S
C399 O411 1.281 . S
C399 O412 1.236 . S
C400 O422 1.240 . S
C400 O423 1.264 . S
O401 Mn396 2.095 . S
O401 C410 1.250 . S
O402 Mn397 2.121 . S
O402 C410 1.258 . S
C403 N404 1.326 . S
C403 C407 1.460 . S
C403 H409 0.929 . S
N404 Mn397 2.257 . S
N404 C403 1.326 . S
N404 C408 1.362 . S
C405 C406 1.258 . S
C405 C408 1.431 . S
C405 C425 1.449 . S
C406 C405 1.258 . S
C406 C407 1.477 . S
C406 H426 0.931 . S
C407 C403 1.460 . S
C407 C406 1.477 . S
C407 H427 0.930 . S
C408 N404 1.362 . S
C408 C405 1.431 . S
C408 C418 1.476 . S
H409 C403 0.929 . S
C410 O401 1.250 . S
C410 O402 1.258 . S
O411 Mn396 2.162 . S
O411 C399 1.281 . S
O412 Mn396 2.297 . S
O412 C399 1.236 . S
N413 Mn397 2.282 . S
N413 C414 1.328 . S
N413 C418 1.318 . S
C414 N413 1.328 . S
C414 C415 1.457 . S
C414 H419 0.929 . S
C415 C414 1.457 . S
C415 C416 1.291 . S
C415 H428 0.931 . S
C416 C415 1.291 . S
C416 C417 1.373 . S
C416 H429 0.929 . S
C417 C416 1.373 . S
C417 C418 1.396 . S
C417 C424 1.403 . S
C418 C408 1.476 . S
C418 N413 1.318 . S
C418 C417 1.396 . S
H419 C414 0.929 . S
O420 Mn396 2.385 . S
O420 C398 1.234 . S
O421 Mn396 2.209 . S
O421 Mn397 2.215 . S
O421 C398 1.283 . S
O422 Mn396 2.094 . S
O422 C400 1.240 . S
O423 Mn397 2.117 . S
O423 C400 1.264 . S
C424 C417 1.403 . S
C424 C425 1.399 . S
C424 H430 0.929 . S
C425 C405 1.449 . S
C425 C424 1.399 . S
C425 H431 0.930 . S
H426 C406 0.931 . S
H427 C407 0.930 . S
H428 C415 0.931 . S
H429 C416 0.929 . S
H430 C424 0.929 . S
H431 C425 0.930 . S
Mn432 O437 2.095 . S
Mn432 O447 2.162 . S
Mn432 O448 2.297 . S
Mn432 O456 2.385 . S
Mn432 O457 2.209 . S
Mn432 O458 2.094 1_455 S
Mn433 O438 2.121 . S
Mn433 N440 2.257 . S
Mn433 N449 2.282 . S
Mn433 O457 2.215 1_655 S
Mn433 O459 2.117 . S
C434 O456 1.234 . S
C434 O457 1.283 . S
C435 O447 1.281 . S
C435 O448 1.236 . S
C436 O458 1.240 . S
C436 O459 1.264 . S
O437 Mn432 2.095 . S
O437 C446 1.250 . S
O438 Mn433 2.121 . S
O438 C446 1.258 1_655 S
C439 N440 1.326 . S
C439 C443 1.460 . S
C439 H445 0.929 . S
N440 Mn433 2.257 . S
N440 C439 1.326 . S
N440 C444 1.362 . S
C441 C442 1.258 . S
C441 C444 1.431 . S
C441 C461 1.449 . S
C442 C441 1.258 . S
C442 C443 1.477 . S
C442 H462 0.931 . S
C443 C439 1.460 . S
C443 C442 1.477 . S
C443 H463 0.930 . S
C444 N440 1.362 . S
C444 C441 1.431 . S
C444 C454 1.476 . S
H445 C439 0.929 . S
C446 O437 1.250 . S
C446 O438 1.258 1_455 S
O447 Mn432 2.162 . S
O447 C435 1.281 . S
O448 Mn432 2.297 . S
O448 C435 1.236 . S
N449 Mn433 2.282 . S
N449 C450 1.328 . S
N449 C454 1.318 . S
C450 N449 1.328 . S
C450 C451 1.457 . S
C450 H455 0.929 . S
C451 C450 1.457 . S
C451 C452 1.291 . S
C451 H464 0.931 . S
C452 C451 1.291 . S
C452 C453 1.373 . S
C452 H465 0.929 . S
C453 C452 1.373 . S
C453 C454 1.396 . S
C453 C460 1.403 . S
C454 C444 1.476 . S
C454 N449 1.318 . S
C454 C453 1.396 . S
H455 C450 0.929 . S
O456 Mn432 2.385 . S
O456 C434 1.234 . S
O457 Mn432 2.209 . S
O457 Mn433 2.215 1_455 S
O457 C434 1.283 . S
O458 Mn432 2.094 1_655 S
O458 C436 1.240 . S
O459 Mn433 2.117 . S
O459 C436 1.264 . S
C460 C453 1.403 . S
C460 C461 1.399 . S
C460 H466 0.929 . S
C461 C441 1.449 . S
C461 C460 1.399 . S
C461 H467 0.930 . S
H462 C442 0.931 . S
H463 C443 0.930 . S
H464 C451 0.931 . S
H465 C452 0.929 . S
H466 C460 0.929 . S
H467 C461 0.930 . S
Mn468 O473 2.101 . S
Mn468 O483 2.162 . S
Mn468 O484 2.297 . S
Mn468 O492 2.385 . S
Mn468 O493 2.216 . S
Mn468 O494 2.094 1_455 S
Mn469 O474 2.121 . S
Mn469 N476 2.257 . S
Mn469 N485 2.282 . S
Mn469 O493 2.175 1_655 S
Mn469 O495 2.117 . S
C470 O492 1.234 . S
C470 O493 1.293 . S
C471 O483 1.281 . S
C471 O484 1.236 . S
C472 O494 1.240 . S
C472 O495 1.264 . S
O473 Mn468 2.101 . S
O473 C482 1.247 1_455 S
O474 Mn469 2.121 . S
O474 C482 1.258 . S
C475 N476 1.326 . S
C475 C479 1.460 . S
C475 H481 0.929 . S
N476 Mn469 2.257 . S
N476 C475 1.326 . S
N476 C480 1.362 . S
C477 C478 1.258 . S
C477 C480 1.431 . S
C477 C497 1.449 . S
C478 C477 1.258 . S
C478 C479 1.477 . S
C478 H498 0.931 . S
C479 C475 1.460 . S
C479 C478 1.477 . S
C479 H499 0.930 . S
C480 N476 1.362 . S
C480 C477 1.431 . S
C480 C490 1.476 . S
H481 C475 0.929 . S
C482 O473 1.247 1_655 S
C482 O474 1.258 . S
O483 Mn468 2.162 . S
O483 C471 1.281 . S
O484 Mn468 2.297 . S
O484 C471 1.236 . S
N485 Mn469 2.282 . S
N485 C486 1.328 . S
N485 C490 1.318 . S
C486 N485 1.328 . S
C486 C487 1.457 . S
C486 H491 0.929 . S
C487 C486 1.457 . S
C487 C488 1.291 . S
C487 H500 0.931 . S
C488 C487 1.291 . S
C488 C489 1.373 . S
C488 H501 0.929 . S
C489 C488 1.373 . S
C489 C490 1.396 . S
C489 C496 1.403 . S
C490 C480 1.476 . S
C490 N485 1.318 . S
C490 C489 1.396 . S
H491 C486 0.929 . S
O492 Mn468 2.385 . S
O492 C470 1.234 . S
O493 Mn468 2.216 . S
O493 Mn469 2.175 1_455 S
O493 C470 1.293 . S
O494 Mn468 2.094 1_655 S
O494 C472 1.240 . S
O495 Mn469 2.117 . S
O495 C472 1.264 . S
C496 C489 1.403 . S
C496 C497 1.399 . S
C496 H502 0.929 . S
C497 C477 1.449 . S
C497 C496 1.399 . S
C497 H503 0.930 . S
H498 C478 0.931 . S
H499 C479 0.930 . S
H500 C487 0.931 . S
H501 C488 0.929 . S
H502 C496 0.929 . S
H503 C497 0.930 . S
Mn504 O509 2.095 . S
Mn504 O519 2.162 . S
Mn504 O520 2.297 . S
Mn504 O528 2.385 . S
Mn504 O529 2.209 . S
Mn504 O530 2.094 . S
Mn505 O510 2.121 . S
Mn505 N512 2.257 . S
Mn505 N521 2.282 . S
Mn505 O529 2.215 . S
Mn505 O531 2.117 . S
C506 O528 1.234 . S
C506 O529 1.283 . S
C507 O519 1.281 . S
C507 O520 1.236 . S
C508 O530 1.240 . S
C508 O531 1.264 . S
O509 Mn504 2.095 . S
O509 C518 1.250 . S
O510 Mn505 2.121 . S
O510 C518 1.258 . S
C511 N512 1.326 . S
C511 C515 1.460 . S
C511 H517 0.929 . S
N512 Mn505 2.257 . S
N512 C511 1.326 . S
N512 C516 1.362 . S
C513 C514 1.258 . S
C513 C516 1.431 . S
C513 C533 1.449 . S
C514 C513 1.258 . S
C514 C515 1.477 . S
C514 H534 0.931 . S
C515 C511 1.460 . S
C515 C514 1.477 . S
C515 H535 0.930 . S
C516 N512 1.362 . S
C516 C513 1.431 . S
C516 C526 1.476 . S
H517 C511 0.929 . S
C518 O509 1.250 . S
C518 O510 1.258 . S
O519 Mn504 2.162 . S
O519 C507 1.281 . S
O520 Mn504 2.297 . S
O520 C507 1.236 . S
N521 Mn505 2.282 . S
N521 C522 1.328 . S
N521 C526 1.318 . S
C522 N521 1.328 . S
C522 C523 1.457 . S
C522 H527 0.929 . S
C523 C522 1.457 . S
C523 C524 1.291 . S
C523 H536 0.931 . S
C524 C523 1.291 . S
C524 C525 1.373 . S
C524 H537 0.929 . S
C525 C524 1.373 . S
C525 C526 1.396 . S
C525 C532 1.403 . S
C526 C516 1.476 . S
C526 N521 1.318 . S
C526 C525 1.396 . S
H527 C522 0.929 . S
O528 Mn504 2.385 . S
O528 C506 1.234 . S
O529 Mn504 2.209 . S
O529 Mn505 2.215 . S
O529 C506 1.283 . S
O530 Mn504 2.094 . S
O530 C508 1.240 . S
O531 Mn505 2.117 . S
O531 C508 1.264 . S
C532 C525 1.403 . S
C532 C533 1.399 . S
C532 H538 0.929 . S
C533 C513 1.449 . S
C533 C532 1.399 . S
C533 H539 0.930 . S
H534 C514 0.931 . S
H535 C515 0.930 . S
H536 C523 0.931 . S
H537 C524 0.929 . S
H538 C532 0.929 . S
H539 C533 0.930 . S
Mn540 O545 2.095 . S
Mn540 O555 2.162 . S
Mn540 O556 2.297 . S
Mn540 O564 2.385 . S
Mn540 O565 2.209 . S
Mn540 O566 2.094 . S
Mn541 O546 2.121 . S
Mn541 N548 2.257 . S
Mn541 N557 2.282 . S
Mn541 O565 2.215 . S
Mn541 O567 2.117 . S
C542 O564 1.234 . S
C542 O565 1.283 . S
C543 O555 1.281 . S
C543 O556 1.236 . S
C544 O566 1.240 . S
C544 O567 1.264 . S
O545 Mn540 2.095 . S
O545 C554 1.250 . S
O546 Mn541 2.121 . S
O546 C554 1.258 . S
C547 N548 1.326 . S
C547 C551 1.460 . S
C547 H553 0.929 . S
N548 Mn541 2.257 . S
N548 C547 1.326 . S
N548 C552 1.362 . S
C549 C550 1.258 . S
C549 C552 1.431 . S
C549 C569 1.449 . S
C550 C549 1.258 . S
C550 C551 1.477 . S
C550 H570 0.931 . S
C551 C547 1.460 . S
C551 C550 1.477 . S
C551 H571 0.930 . S
C552 N548 1.362 . S
C552 C549 1.431 . S
C552 C562 1.476 . S
H553 C547 0.929 . S
C554 O545 1.250 . S
C554 O546 1.258 . S
O555 Mn540 2.162 . S
O555 C543 1.281 . S
O556 Mn540 2.297 . S
O556 C543 1.236 . S
N557 Mn541 2.282 . S
N557 C558 1.328 . S
N557 C562 1.318 . S
C558 N557 1.328 . S
C558 C559 1.457 . S
C558 H563 0.929 . S
C559 C558 1.457 . S
C559 C560 1.291 . S
C559 H572 0.931 . S
C560 C559 1.291 . S
C560 C561 1.373 . S
C560 H573 0.929 . S
C561 C560 1.373 . S
C561 C562 1.396 . S
C561 C568 1.403 . S
C562 C552 1.476 . S
C562 N557 1.318 . S
C562 C561 1.396 . S
H563 C558 0.929 . S
O564 Mn540 2.385 . S
O564 C542 1.234 . S
O565 Mn540 2.209 . S
O565 Mn541 2.215 . S
O565 C542 1.283 . S
O566 Mn540 2.094 . S
O566 C544 1.240 . S
O567 Mn541 2.117 . S
O567 C544 1.264 . S
C568 C561 1.403 . S
C568 C569 1.399 . S
C568 H574 0.929 . S
C569 C549 1.449 . S
C569 C568 1.399 . S
C569 H575 0.930 . S
H570 C550 0.931 . S
H571 C551 0.930 . S
H572 C559 0.931 . S
H573 C560 0.929 . S
H574 C568 0.929 . S
H575 C569 0.930 . S
Mn576 O581 2.151 . S
Mn576 O591 2.166 . S
Mn576 O592 2.297 . S
Mn576 O600 2.325 1_545 S
Mn576 O601 2.183 1_545 S
Mn576 O602 2.094 . S
Mn577 O582 2.116 . S
Mn577 N584 2.258 1_545 S
Mn577 N593 2.287 1_545 S
Mn577 O601 2.217 1_545 S
Mn577 O603 2.117 . S
C578 O600 1.234 . S
C578 O601 1.283 . S
C579 O591 1.281 . S
C579 O592 1.237 . S
C580 O602 1.240 . S
C580 O603 1.265 . S
O581 Mn576 2.151 . S
O581 C590 1.250 . S
O582 Mn577 2.116 . S
O582 C590 1.258 . S
C583 N584 1.326 1_545 S
C583 C587 1.460 1_545 S
C583 H589 0.929 . S
N584 Mn577 2.258 1_565 S
N584 C583 1.326 1_565 S
N584 C588 1.362 . S
C585 C586 1.258 . S
C585 C588 1.431 . S
C585 C605 1.449 . S
C586 C585 1.258 . S
C586 C587 1.477 . S
C586 H606 0.931 . S
C587 C583 1.460 1_565 S
C587 C586 1.477 . S
C587 H607 0.930 1_565 S
C588 N584 1.362 . S
C588 C585 1.431 . S
C588 C598 1.476 . S
H589 C583 0.929 . S
C590 O581 1.250 . S
C590 O582 1.258 . S
O591 Mn576 2.166 . S
O591 C579 1.281 . S
O592 Mn576 2.297 . S
O592 C579 1.237 . S
N593 Mn577 2.287 1_565 S
N593 C594 1.328 . S
N593 C598 1.318 . S
C594 N593 1.328 . S
C594 C595 1.457 . S
C594 H599 0.929 . S
C595 C594 1.457 . S
C595 C596 1.291 . S
C595 H608 0.931 . S
C596 C595 1.291 . S
C596 C597 1.373 . S
C596 H609 0.929 . S
C597 C596 1.373 . S
C597 C598 1.396 . S
C597 C604 1.403 . S
C598 C588 1.476 . S
C598 N593 1.318 . S
C598 C597 1.396 . S
H599 C594 0.929 . S
O600 Mn576 2.325 1_565 S
O600 C578 1.234 . S
O601 Mn576 2.183 1_565 S
O601 Mn577 2.217 1_565 S
O601 C578 1.283 . S
O602 Mn576 2.094 . S
O602 C580 1.240 . S
O603 Mn577 2.117 . S
O603 C580 1.265 . S
C604 C597 1.403 . S
C604 C605 1.399 . S
C604 H610 0.929 . S
C605 C585 1.449 . S
C605 C604 1.399 . S
C605 H611 0.930 . S
H606 C586 0.931 . S
H607 C587 0.930 1_545 S
H608 C595 0.931 . S
H609 C596 0.929 . S
H610 C604 0.929 . S
H611 C605 0.930 . S
Mn612 O617 2.095 . S
Mn612 O627 2.162 . S
Mn612 O628 2.297 . S
Mn612 O636 2.385 . S
Mn612 O637 2.209 . S
Mn612 O638 2.094 . S
Mn613 O618 2.121 . S
Mn613 N620 2.257 . S
Mn613 N629 2.282 . S
Mn613 O637 2.215 . S
Mn613 O639 2.117 . S
C614 O636 1.234 . S
C614 O637 1.283 . S
C615 O627 1.281 . S
C615 O628 1.236 . S
C616 O638 1.240 . S
C616 O639 1.264 . S
O617 Mn612 2.095 . S
O617 C626 1.250 . S
O618 Mn613 2.121 . S
O618 C626 1.258 . S
C619 N620 1.326 . S
C619 C623 1.460 . S
C619 H625 0.929 . S
N620 Mn613 2.257 . S
N620 C619 1.326 . S
N620 C624 1.362 . S
C621 C622 1.258 . S
C621 C624 1.431 . S
C621 C641 1.449 . S
C622 C621 1.258 . S
C622 C623 1.477 . S
C622 H642 0.931 . S
C623 C619 1.460 . S
C623 C622 1.477 . S
C623 H643 0.930 . S
C624 N620 1.362 . S
C624 C621 1.431 . S
C624 C634 1.476 . S
H625 C619 0.929 . S
C626 O617 1.250 . S
C626 O618 1.258 . S
O627 Mn612 2.162 . S
O627 C615 1.281 . S
O628 Mn612 2.297 . S
O628 C615 1.236 . S
N629 Mn613 2.282 . S
N629 C630 1.328 . S
N629 C634 1.318 . S
C630 N629 1.328 . S
C630 C631 1.457 . S
C630 H635 0.929 . S
C631 C630 1.457 . S
C631 C632 1.291 . S
C631 H644 0.931 . S
C632 C631 1.291 . S
C632 C633 1.373 . S
C632 H645 0.929 . S
C633 C632 1.373 . S
C633 C634 1.396 . S
C633 C640 1.403 . S
C634 C624 1.476 . S
C634 N629 1.318 . S
C634 C633 1.396 . S
H635 C630 0.929 . S
O636 Mn612 2.385 . S
O636 C614 1.234 . S
O637 Mn612 2.209 . S
O637 Mn613 2.215 . S
O637 C614 1.283 . S
O638 Mn612 2.094 . S
O638 C616 1.240 . S
O639 Mn613 2.117 . S
O639 C616 1.264 . S
C640 C633 1.403 . S
C640 C641 1.399 . S
C640 H646 0.929 . S
C641 C621 1.449 . S
C641 C640 1.399 . S
C641 H647 0.930 . S
H642 C622 0.931 . S
H643 C623 0.930 . S
H644 C631 0.931 . S
H645 C632 0.929 . S
H646 C640 0.929 . S
H647 C641 0.930 . S
Mn648 O653 2.095 1_545 S
Mn648 O663 2.162 . S
Mn648 O664 2.297 . S
Mn648 O672 2.385 . S
Mn648 O673 2.209 . S
Mn648 O674 2.094 . S
Mn649 O654 2.121 1_545 S
Mn649 N656 2.257 . S
Mn649 N665 2.282 . S
Mn649 O673 2.215 . S
Mn649 O675 2.117 . S
C650 O672 1.234 . S
C650 O673 1.283 . S
C651 O663 1.281 . S
C651 O664 1.236 . S
C652 O674 1.240 . S
C652 O675 1.264 . S
O653 Mn648 2.095 1_565 S
O653 C662 1.250 . S
O654 Mn649 2.121 1_565 S
O654 C662 1.258 . S
C655 N656 1.326 . S
C655 C659 1.460 . S
C655 H661 0.929 1_545 S
N656 Mn649 2.257 . S
N656 C655 1.326 . S
N656 C660 1.362 . S
C657 C658 1.258 . S
C657 C660 1.431 . S
C657 C677 1.449 . S
C658 C657 1.258 . S
C658 C659 1.477 . S
C658 H678 0.931 . S
C659 C655 1.460 . S
C659 C658 1.477 . S
C659 H679 0.930 . S
C660 N656 1.362 . S
C660 C657 1.431 . S
C660 C670 1.476 . S
H661 C655 0.929 1_565 S
C662 O653 1.250 . S
C662 O654 1.258 . S
O663 Mn648 2.162 . S
O663 C651 1.281 . S
O664 Mn648 2.297 . S
O664 C651 1.236 . S
N665 Mn649 2.282 . S
N665 C666 1.328 . S
N665 C670 1.318 . S
C666 N665 1.328 . S
C666 C667 1.457 . S
C666 H671 0.929 . S
C667 C666 1.457 . S
C667 C668 1.291 . S
C667 H680 0.931 . S
C668 C667 1.291 . S
C668 C669 1.373 . S
C668 H681 0.929 . S
C669 C668 1.373 . S
C669 C670 1.396 . S
C669 C676 1.403 . S
C670 C660 1.476 . S
C670 N665 1.318 . S
C670 C669 1.396 . S
H671 C666 0.929 . S
O672 Mn648 2.385 . S
O672 C650 1.234 . S
O673 Mn648 2.209 . S
O673 Mn649 2.215 . S
O673 C650 1.283 . S
O674 Mn648 2.094 . S
O674 C652 1.240 . S
O675 Mn649 2.117 . S
O675 C652 1.264 . S
C676 C669 1.403 . S
C676 C677 1.399 . S
C676 H682 0.929 . S
C677 C657 1.449 . S
C677 C676 1.399 . S
C677 H683 0.930 . S
H678 C658 0.931 . S
H679 C659 0.930 . S
H680 C667 0.931 . S
H681 C668 0.929 . S
H682 C676 0.929 . S
H683 C677 0.930 . S
Mn684 O689 2.095 . S
Mn684 O699 2.162 . S
Mn684 O700 2.297 . S
Mn684 O708 2.385 . S
Mn684 O709 2.209 . S
Mn684 O710 2.094 1_554 S
Mn685 O690 2.121 . S
Mn685 N692 2.257 . S
Mn685 N701 2.282 . S
Mn685 O709 2.215 1_556 S
Mn685 O711 2.117 . S
C686 O708 1.234 . S
C686 O709 1.283 . S
C687 O699 1.281 . S
C687 O700 1.236 . S
C688 O710 1.240 . S
C688 O711 1.264 . S
O689 Mn684 2.095 . S
O689 C698 1.250 . S
O690 Mn685 2.121 . S
O690 C698 1.258 1_556 S
C691 N692 1.326 . S
C691 C695 1.460 . S
C691 H697 0.929 . S
N692 Mn685 2.257 . S
N692 C691 1.326 . S
N692 C696 1.362 . S
C693 C694 1.258 . S
C693 C696 1.431 . S
C693 C713 1.449 . S
C694 C693 1.258 . S
C694 C695 1.477 . S
C694 H714 0.931 . S
C695 C691 1.460 . S
C695 C694 1.477 . S
C695 H715 0.930 . S
C696 N692 1.362 . S
C696 C693 1.431 . S
C696 C706 1.476 . S
H697 C691 0.929 . S
C698 O689 1.250 . S
C698 O690 1.258 1_554 S
O699 Mn684 2.162 . S
O699 C687 1.281 . S
O700 Mn684 2.297 . S
O700 C687 1.236 . S
N701 Mn685 2.282 . S
N701 C702 1.328 . S
N701 C706 1.318 . S
C702 N701 1.328 . S
C702 C703 1.457 . S
C702 H707 0.929 . S
C703 C702 1.457 . S
C703 C704 1.291 . S
C703 H716 0.931 . S
C704 C703 1.291 . S
C704 C705 1.373 . S
C704 H717 0.929 . S
C705 C704 1.373 . S
C705 C706 1.396 . S
C705 C712 1.403 . S
C706 C696 1.476 . S
C706 N701 1.318 . S
C706 C705 1.396 . S
H707 C702 0.929 . S
O708 Mn684 2.385 . S
O708 C686 1.234 . S
O709 Mn684 2.209 . S
O709 Mn685 2.215 1_554 S
O709 C686 1.283 . S
O710 Mn684 2.094 1_556 S
O710 C688 1.240 . S
O711 Mn685 2.117 . S
O711 C688 1.264 . S
C712 C705 1.403 . S
C712 C713 1.399 . S
C712 H718 0.929 . S
C713 C693 1.449 . S
C713 C712 1.399 . S
C713 H719 0.930 . S
H714 C694 0.931 . S
H715 C695 0.930 . S
H716 C703 0.931 . S
H717 C704 0.929 . S
H718 C712 0.929 . S
H719 C713 0.930 . S
Mn720 O725 2.095 1_554 S
Mn720 O735 2.162 . S
Mn720 O736 2.297 . S
Mn720 O744 2.385 . S
Mn720 O745 2.209 1_554 S
Mn720 O746 2.094 1_554 S
Mn721 O726 2.121 . S
Mn721 N728 2.257 . S
Mn721 N737 2.282 . S
Mn721 O745 2.215 . S
Mn721 O747 2.117 . S
C722 O744 1.234 . S
C722 O745 1.283 1_554 S
C723 O735 1.281 . S
C723 O736 1.236 . S
C724 O746 1.240 . S
C724 O747 1.264 . S
O725 Mn720 2.095 1_556 S
O725 C734 1.250 . S
O726 Mn721 2.121 . S
O726 C734 1.258 . S
C727 N728 1.326 . S
C727 C731 1.460 . S
C727 H733 0.929 . S
N728 Mn721 2.257 . S
N728 C727 1.326 . S
N728 C732 1.362 . S
C729 C730 1.258 . S
C729 C732 1.431 . S
C729 C749 1.449 . S
C730 C729 1.258 . S
C730 C731 1.477 . S
C730 H750 0.931 . S
C731 C727 1.460 . S
C731 C730 1.477 . S
C731 H751 0.930 . S
C732 N728 1.362 . S
C732 C729 1.431 . S
C732 C742 1.476 . S
H733 C727 0.929 . S
C734 O725 1.250 . S
C734 O726 1.258 . S
O735 Mn720 2.162 . S
O735 C723 1.281 . S
O736 Mn720 2.297 . S
O736 C723 1.236 . S
N737 Mn721 2.282 . S
N737 C738 1.328 . S
N737 C742 1.318 . S
C738 N737 1.328 . S
C738 C739 1.457 . S
C738 H743 0.929 . S
C739 C738 1.457 . S
C739 C740 1.291 . S
C739 H752 0.931 . S
C740 C739 1.291 . S
C740 C741 1.373 . S
C740 H753 0.929 . S
C741 C740 1.373 . S
C741 C742 1.396 . S
C741 C748 1.403 . S
C742 C732 1.476 . S
C742 N737 1.318 . S
C742 C741 1.396 . S
H743 C738 0.929 . S
O744 Mn720 2.385 . S
O744 C722 1.234 . S
O745 Mn720 2.209 1_556 S
O745 Mn721 2.215 . S
O745 C722 1.283 1_556 S
O746 Mn720 2.094 1_556 S
O746 C724 1.240 . S
O747 Mn721 2.117 . S
O747 C724 1.264 . S
C748 C741 1.403 . S
C748 C749 1.399 . S
C748 H754 0.929 . S
C749 C729 1.449 . S
C749 C748 1.399 . S
C749 H755 0.930 . S
H750 C730 0.931 . S
H751 C731 0.930 . S
H752 C739 0.931 . S
H753 C740 0.929 . S
H754 C748 0.929 . S
H755 C749 0.930 . S
Mn756 O761 2.095 . S
Mn756 O771 2.162 . S
Mn756 O772 2.297 . S
Mn756 O780 2.385 . S
Mn756 O781 2.209 . S
Mn756 O782 2.094 . S
Mn757 O762 2.121 . S
Mn757 N764 2.257 . S
Mn757 N773 2.282 . S
Mn757 O781 2.215 . S
Mn757 O783 2.117 . S
C758 O780 1.234 . S
C758 O781 1.283 . S
C759 O771 1.281 . S
C759 O772 1.236 . S
C760 O782 1.240 . S
C760 O783 1.264 . S
O761 Mn756 2.095 . S
O761 C770 1.250 . S
O762 Mn757 2.121 . S
O762 C770 1.258 . S
C763 N764 1.326 . S
C763 C767 1.460 . S
C763 H769 0.929 . S
N764 Mn757 2.257 . S
N764 C763 1.326 . S
N764 C768 1.362 . S
C765 C766 1.258 . S
C765 C768 1.431 . S
C765 C785 1.449 . S
C766 C765 1.258 . S
C766 C767 1.477 . S
C766 H786 0.931 . S
C767 C763 1.460 . S
C767 C766 1.477 . S
C767 H787 0.930 . S
C768 N764 1.362 . S
C768 C765 1.431 . S
C768 C778 1.476 . S
H769 C763 0.929 . S
C770 O761 1.250 . S
C770 O762 1.258 . S
O771 Mn756 2.162 . S
O771 C759 1.281 . S
O772 Mn756 2.297 . S
O772 C759 1.236 . S
N773 Mn757 2.282 . S
N773 C774 1.328 . S
N773 C778 1.318 . S
C774 N773 1.328 . S
C774 C775 1.457 . S
C774 H779 0.929 . S
C775 C774 1.457 . S
C775 C776 1.291 . S
C775 H788 0.931 . S
C776 C775 1.291 . S
C776 C777 1.373 . S
C776 H789 0.929 . S
C777 C776 1.373 . S
C777 C778 1.396 . S
C777 C784 1.403 . S
C778 C768 1.476 . S
C778 N773 1.318 . S
C778 C777 1.396 . S
H779 C774 0.929 . S
O780 Mn756 2.385 . S
O780 C758 1.234 . S
O781 Mn756 2.209 . S
O781 Mn757 2.215 . S
O781 C758 1.283 . S
O782 Mn756 2.094 . S
O782 C760 1.240 . S
O783 Mn757 2.117 . S
O783 C760 1.264 . S
C784 C777 1.403 . S
C784 C785 1.399 . S
C784 H790 0.929 . S
C785 C765 1.449 . S
C785 C784 1.399 . S
C785 H791 0.930 . S
H786 C766 0.931 . S
H787 C767 0.930 . S
H788 C775 0.931 . S
H789 C776 0.929 . S
H790 C784 0.929 . S
H791 C785 0.930 . S
Mn792 O797 2.095 . S
Mn792 O807 2.162 . S
Mn792 O808 2.297 . S
Mn792 O816 2.385 . S
Mn792 O817 2.209 . S
Mn792 O818 2.094 . S
Mn793 O798 2.121 . S
Mn793 N800 2.257 . S
Mn793 N809 2.282 . S
Mn793 O817 2.215 . S
Mn793 O819 2.117 . S
C794 O816 1.234 . S
C794 O817 1.283 . S
C795 O807 1.281 . S
C795 O808 1.236 . S
C796 O818 1.240 . S
C796 O819 1.264 . S
O797 Mn792 2.095 . S
O797 C806 1.250 . S
O798 Mn793 2.121 . S
O798 C806 1.258 . S
C799 N800 1.326 . S
C799 C803 1.460 . S
C799 H805 0.929 . S
N800 Mn793 2.257 . S
N800 C799 1.326 . S
N800 C804 1.362 . S
C801 C802 1.258 . S
C801 C804 1.431 . S
C801 C821 1.449 . S
C802 C801 1.258 . S
C802 C803 1.477 . S
C802 H822 0.931 . S
C803 C799 1.460 . S
C803 C802 1.477 . S
C803 H823 0.930 . S
C804 N800 1.362 . S
C804 C801 1.431 . S
C804 C814 1.476 . S
H805 C799 0.929 . S
C806 O797 1.250 . S
C806 O798 1.258 . S
O807 Mn792 2.162 . S
O807 C795 1.281 . S
O808 Mn792 2.297 . S
O808 C795 1.236 . S
N809 Mn793 2.282 . S
N809 C810 1.328 . S
N809 C814 1.318 . S
C810 N809 1.328 . S
C810 C811 1.457 . S
C810 H815 0.929 . S
C811 C810 1.457 . S
C811 C812 1.291 . S
C811 H824 0.931 . S
C812 C811 1.291 . S
C812 C813 1.373 . S
C812 H825 0.929 . S
C813 C812 1.373 . S
C813 C814 1.396 . S
C813 C820 1.403 . S
C814 C804 1.476 . S
C814 N809 1.318 . S
C814 C813 1.396 . S
H815 C810 0.929 . S
O816 Mn792 2.385 . S
O816 C794 1.234 . S
O817 Mn792 2.209 . S
O817 Mn793 2.215 . S
O817 C794 1.283 . S
O818 Mn792 2.094 . S
O818 C796 1.240 . S
O819 Mn793 2.117 . S
O819 C796 1.264 . S
C820 C813 1.403 . S
C820 C821 1.399 . S
C820 H826 0.929 . S
C821 C801 1.449 . S
C821 C820 1.399 . S
C821 H827 0.930 . S
H822 C802 0.931 . S
H823 C803 0.930 . S
H824 C811 0.931 . S
H825 C812 0.929 . S
H826 C820 0.929 . S
H827 C821 0.930 . S
Mn828 O833 2.095 . S
Mn828 O843 2.162 . S
Mn828 O844 2.297 . S
Mn828 O852 2.385 . S
Mn828 O853 2.209 . S
Mn828 O854 2.094 . S
Mn829 O834 2.121 . S
Mn829 N836 2.257 . S
Mn829 N845 2.282 . S
Mn829 O853 2.215 . S
Mn829 O855 2.117 . S
C830 O852 1.234 . S
C830 O853 1.283 . S
C831 O843 1.281 . S
C831 O844 1.236 . S
C832 O854 1.240 . S
C832 O855 1.264 . S
O833 Mn828 2.095 . S
O833 C842 1.250 . S
O834 Mn829 2.121 . S
O834 C842 1.258 . S
C835 N836 1.326 . S
C835 C839 1.460 . S
C835 H841 0.929 . S
N836 Mn829 2.257 . S
N836 C835 1.326 . S
N836 C840 1.362 . S
C837 C838 1.258 . S
C837 C840 1.431 . S
C837 C857 1.449 . S
C838 C837 1.258 . S
C838 C839 1.477 . S
C838 H858 0.931 . S
C839 C835 1.460 . S
C839 C838 1.477 . S
C839 H859 0.930 . S
C840 N836 1.362 . S
C840 C837 1.431 . S
C840 C850 1.476 . S
H841 C835 0.929 . S
C842 O833 1.250 . S
C842 O834 1.258 . S
O843 Mn828 2.162 . S
O843 C831 1.281 . S
O844 Mn828 2.297 . S
O844 C831 1.236 . S
N845 Mn829 2.282 . S
N845 C846 1.328 . S
N845 C850 1.318 . S
C846 N845 1.328 . S
C846 C847 1.457 . S
C846 H851 0.929 . S
C847 C846 1.457 . S
C847 C848 1.291 . S
C847 H860 0.931 . S
C848 C847 1.291 . S
C848 C849 1.373 . S
C848 H861 0.929 . S
C849 C848 1.373 . S
C849 C850 1.396 . S
C849 C856 1.403 . S
C850 C840 1.476 . S
C850 N845 1.318 . S
C850 C849 1.396 . S
H851 C846 0.929 . S
O852 Mn828 2.385 . S
O852 C830 1.234 . S
O853 Mn828 2.209 . S
O853 Mn829 2.215 . S
O853 C830 1.283 . S
O854 Mn828 2.094 . S
O854 C832 1.240 . S
O855 Mn829 2.117 . S
O855 C832 1.264 . S
C856 C849 1.403 . S
C856 C857 1.399 . S
C856 H862 0.929 . S
C857 C837 1.449 . S
C857 C856 1.399 . S
C857 H863 0.930 . S
H858 C838 0.931 . S
H859 C839 0.930 . S
H860 C847 0.931 . S
H861 C848 0.929 . S
H862 C856 0.929 . S
H863 C857 0.930 . S
O864 Mn865 2.163 . S
O864 C878 1.245 . S
Mn865 O864 2.163 . S
Mn865 O868 2.160 1_445 S
Mn865 O869 2.221 1_455 S
Mn865 O871 2.163 1_454 S
Mn865 O873 2.160 1_545 S
Mn865 O883 2.234 1_545 S
O866 Mn867 2.044 1_546 S
O866 C878 1.274 1_556 S
Mn867 O866 2.044 1_564 S
Mn867 O874 2.089 . S
Mn867 O883 2.311 . S
Mn867 O884 2.251 1_554 S
O868 Mn865 2.160 1_665 S
O868 C879 1.239 . S
O869 Mn865 2.221 1_655 S
O869 Mn870 2.265 1_554 S
O869 C880 1.278 . S
Mn870 O869 2.265 1_556 S
Mn870 O872 2.083 1_556 S
Mn870 O875 2.243 1_556 S
Mn870 O876 2.131 . S
O871 Mn865 2.163 1_656 S
O871 C881 1.244 . S
O872 Mn870 2.083 1_554 S
O872 C879 1.256 1_545 S
O873 Mn865 2.160 1_565 S
O873 C882 1.239 . S
O874 Mn867 2.089 . S
O874 C882 1.256 . S
O875 Mn870 2.243 1_554 S
O875 C880 1.241 . S
O876 Mn870 2.131 . S
O876 C881 1.256 . S
C877 O883 1.234 1_556 S
C877 O884 1.241 . S
C878 O864 1.245 . S
C878 O866 1.274 1_554 S
C879 O868 1.239 . S
C879 O872 1.256 1_565 S
C880 O869 1.278 . S
C880 O875 1.241 . S
C881 O871 1.244 . S
C881 O876 1.256 . S
C882 O873 1.239 . S
C882 O874 1.256 . S
O883 Mn865 2.234 1_565 S
O883 Mn867 2.311 . S
O883 C877 1.234 1_554 S
O884 Mn867 2.251 1_556 S
O884 C877 1.241 . S
O885 Mn886 2.163 . S
O885 C899 1.244 . S
Mn886 O885 2.163 . S
Mn886 O889 2.160 . S
Mn886 O890 2.221 . S
Mn886 O892 2.163 . S
Mn886 O894 2.160 . S
Mn886 O904 2.221 . S
O887 Mn888 2.087 . S
O887 C899 1.256 . S
Mn888 O887 2.087 . S
Mn888 O895 2.089 . S
Mn888 O904 2.290 . S
Mn888 O905 2.251 . S
O889 Mn886 2.160 . S
O889 C900 1.239 . S
O890 Mn886 2.221 . S
O890 Mn891 2.290 . S
O890 C901 1.278 . S
Mn891 O890 2.290 . S
Mn891 O893 2.089 . S
Mn891 O896 2.251 . S
Mn891 O897 2.087 . S
O892 Mn886 2.163 . S
O892 C902 1.244 . S
O893 Mn891 2.089 . S
O893 C900 1.256 . S
O894 Mn886 2.160 . S
O894 C903 1.239 . S
O895 Mn888 2.089 . S
O895 C903 1.256 . S
O896 Mn891 2.251 . S
O896 C901 1.241 . S
O897 Mn891 2.087 . S
O897 C902 1.256 . S
C898 O904 1.278 . S
C898 O905 1.241 . S
C899 O885 1.244 . S
C899 O887 1.256 . S
C900 O889 1.239 . S
C900 O893 1.256 . S
C901 O890 1.278 . S
C901 O896 1.241 . S
C902 O892 1.244 . S
C902 O897 1.256 . S
C903 O894 1.239 . S
C903 O895 1.256 . S
O904 Mn886 2.221 . S
O904 Mn888 2.290 . S
O904 C898 1.278 . S
O905 Mn888 2.251 . S
O905 C898 1.241 . S
O906 Mn907 2.163 1_565 S
O906 C920 1.244 . S
Mn907 O906 2.163 1_545 S
Mn907 O910 2.160 . S
Mn907 O911 2.221 1_545 S
Mn907 O913 2.163 . S
Mn907 O915 2.160 . S
Mn907 O925 2.221 . S
O908 Mn909 2.087 . S
O908 C920 1.256 1_545 S
Mn909 O908 2.087 . S
Mn909 O916 2.089 . S
Mn909 O925 2.290 . S
Mn909 O926 2.251 . S
O910 Mn907 2.160 . S
O910 C921 1.239 . S
O911 Mn907 2.221 1_565 S
O911 Mn912 2.290 . S
O911 C922 1.278 . S
Mn912 O911 2.290 . S
Mn912 O914 2.089 1_565 S
Mn912 O917 2.251 . S
Mn912 O918 2.087 . S
O913 Mn907 2.163 . S
O913 C923 1.244 1_545 S
O914 Mn912 2.089 1_545 S
O914 C921 1.256 . S
O915 Mn907 2.160 . S
O915 C924 1.239 . S
O916 Mn909 2.089 . S
O916 C924 1.256 . S
O917 Mn912 2.251 . S
O917 C922 1.241 . S
O918 Mn912 2.087 . S
O918 C923 1.256 . S
C919 O925 1.278 . S
C919 O926 1.241 . S
C920 O906 1.244 . S
C920 O908 1.256 1_565 S
C921 O910 1.239 . S
C921 O914 1.256 . S
C922 O911 1.278 . S
C922 O917 1.241 . S
C923 O913 1.244 1_565 S
C923 O918 1.256 . S
C924 O915 1.239 . S
C924 O916 1.256 . S
O925 Mn907 2.221 . S
O925 Mn909 2.290 . S
O925 C919 1.278 . S
O926 Mn909 2.251 . S
O926 C919 1.241 . S
O927 Mn928 2.163 . S
O927 C941 1.244 . S
Mn928 O927 2.163 . S
Mn928 O931 2.160 . S
Mn928 O932 2.221 . S
Mn928 O934 2.163 . S
Mn928 O936 2.160 . S
Mn928 O946 2.221 . S
O929 Mn930 2.087 . S
O929 C941 1.256 . S
Mn930 O929 2.087 . S
Mn930 O937 2.089 . S
Mn930 O946 2.290 . S
Mn930 O947 2.251 . S
O931 Mn928 2.160 . S
O931 C942 1.239 . S
O932 Mn928 2.221 . S
O932 Mn933 2.290 . S
O932 C943 1.278 . S
Mn933 O932 2.290 . S
Mn933 O935 2.089 . S
Mn933 O938 2.251 . S
Mn933 O939 2.087 . S
O934 Mn928 2.163 . S
O934 C944 1.244 . S
O935 Mn933 2.089 . S
O935 C942 1.256 . S
O936 Mn928 2.160 . S
O936 C945 1.239 . S
O937 Mn930 2.089 . S
O937 C945 1.256 . S
O938 Mn933 2.251 . S
O938 C943 1.241 . S
O939 Mn933 2.087 . S
O939 C944 1.256 . S
C940 O946 1.278 . S
C940 O947 1.241 . S
C941 O927 1.244 . S
C941 O929 1.256 . S
C942 O931 1.239 . S
C942 O935 1.256 . S
C943 O932 1.278 . S
C943 O938 1.241 . S
C944 O934 1.244 . S
C944 O939 1.256 . S
C945 O936 1.239 . S
C945 O937 1.256 . S
O946 Mn928 2.221 . S
O946 Mn930 2.290 . S
O946 C940 1.278 . S
O947 Mn930 2.251 . S
O947 C940 1.241 . S
O948 Mn949 2.163 1_565 S
O948 C962 1.250 . S
Mn949 O948 2.163 1_545 S
Mn949 O952 2.160 . S
Mn949 O953 2.221 . S
Mn949 O955 2.163 1_455 S
Mn949 O957 2.160 1_545 S
Mn949 O967 2.221 1_545 S
O950 Mn951 2.081 1_655 S
O950 C962 1.254 1_655 S
Mn951 O950 2.081 1_455 S
Mn951 O958 2.089 . S
Mn951 O967 2.290 . S
Mn951 O968 2.251 1_455 S
O952 Mn949 2.160 . S
O952 C963 1.239 . S
O953 Mn949 2.221 . S
O953 Mn954 2.296 . S
O953 C964 1.278 . S
Mn954 O953 2.296 . S
Mn954 O956 2.090 . S
Mn954 O959 2.253 . S
Mn954 O960 2.078 1_455 S
O955 Mn949 2.163 1_655 S
O955 C965 1.244 . S
O956 Mn954 2.090 . S
O956 C963 1.256 . S
O957 Mn949 2.160 1_565 S
O957 C966 1.239 . S
O958 Mn951 2.089 . S
O958 C966 1.256 . S
O959 Mn954 2.253 . S
O959 C964 1.241 . S
O960 Mn954 2.078 1_655 S
O960 C965 1.256 . S
C961 O967 1.278 1_655 S
C961 O968 1.241 . S
C962 O948 1.250 . S
C962 O950 1.254 1_455 S
C963 O952 1.239 . S
C963 O956 1.256 . S
C964 O953 1.278 . S
C964 O959 1.241 . S
C965 O955 1.244 . S
C965 O960 1.256 . S
C966 O957 1.239 . S
C966 O958 1.256 . S
O967 Mn949 2.221 1_565 S
O967 Mn951 2.290 . S
O967 C961 1.278 1_455 S
O968 Mn951 2.251 1_655 S
O968 C961 1.241 . S
O969 Mn970 2.163 . S
O969 C983 1.244 . S
Mn970 O969 2.163 . S
Mn970 O973 2.160 . S
Mn970 O974 2.221 . S
Mn970 O976 2.163 . S
Mn970 O978 2.160 . S
Mn970 O988 2.221 . S
O971 Mn972 2.087 . S
O971 C983 1.256 . S
Mn972 O971 2.087 . S
Mn972 O979 2.089 . S
Mn972 O988 2.290 . S
Mn972 O989 2.251 . S
O973 Mn970 2.160 . S
O973 C984 1.239 . S
O974 Mn970 2.221 . S
O974 Mn975 2.290 . S
O974 C985 1.278 . S
Mn975 O974 2.290 . S
Mn975 O977 2.089 . S
Mn975 O980 2.251 . S
Mn975 O981 2.087 . S
O976 Mn970 2.163 . S
O976 C986 1.244 . S
O977 Mn975 2.089 . S
O977 C984 1.256 . S
O978 Mn970 2.160 . S
O978 C987 1.239 . S
O979 Mn972 2.089 . S
O979 C987 1.256 . S
O980 Mn975 2.251 . S
O980 C985 1.241 . S
O981 Mn975 2.087 . S
O981 C986 1.256 . S
C982 O988 1.278 . S
C982 O989 1.241 . S
C983 O969 1.244 . S
C983 O971 1.256 . S
C984 O973 1.239 . S
C984 O977 1.256 . S
C985 O974 1.278 . S
C985 O980 1.241 . S
C986 O976 1.244 . S
C986 O981 1.256 . S
C987 O978 1.239 . S
C987 O979 1.256 . S
O988 Mn970 2.221 . S
O988 Mn972 2.290 . S
O988 C982 1.278 . S
O989 Mn972 2.251 . S
O989 C982 1.241 . S
O990 Mn991 2.163 1_556 S
O990 C1004 1.244 1_545 S
Mn991 O990 2.163 1_554 S
Mn991 O994 2.160 . S
Mn991 O995 2.221 . S
Mn991 O997 2.163 1_545 S
Mn991 O999 2.160 1_554 S
Mn991 O1009 2.223 1_554 S
O992 Mn993 2.087 1_565 S
O992 C1004 1.256 . S
Mn993 O992 2.087 1_545 S
Mn993 O1000 2.089 . S
Mn993 O1009 2.294 . S
Mn993 O1010 2.251 1_545 S
O994 Mn991 2.160 . S
O994 C1005 1.239 . S
O995 Mn991 2.221 . S
O995 Mn996 2.290 1_545 S
O995 C1006 1.278 . S
Mn996 O995 2.290 1_565 S
Mn996 O998 2.089 1_565 S
Mn996 O1001 2.251 1_565 S
Mn996 O1002 2.087 . S
O997 Mn991 2.163 1_565 S
O997 C1007 1.244 . S
O998 Mn996 2.089 1_545 S
O998 C1005 1.256 . S
O999 Mn991 2.160 1_556 S
O999 C1008 1.239 . S
O1000 Mn993 2.089 . S
O1000 C1008 1.256 . S
O1001 Mn996 2.251 1_545 S
O1001 C1006 1.241 . S
O1002 Mn996 2.087 . S
O1002 C1007 1.256 . S
C1003 O1009 1.270 1_565 S
C1003 O1010 1.241 . S
C1004 O990 1.244 1_565 S
C1004 O992 1.256 . S
C1005 O994 1.239 . S
C1005 O998 1.256 . S
C1006 O995 1.278 . S
C1006 O1001 1.241 . S
C1007 O997 1.244 . S
C1007 O1002 1.256 . S
C1008 O999 1.239 . S
C1008 O1000 1.256 . S
O1009 Mn991 2.223 1_556 S
O1009 Mn993 2.294 . S
O1009 C1003 1.270 1_545 S
O1010 Mn993 2.251 1_565 S
O1010 C1003 1.241 . S
O1011 Mn1012 2.163 . S
O1011 C1025 1.244 . S
Mn1012 O1011 2.163 . S
Mn1012 O1015 2.160 . S
Mn1012 O1016 2.221 . S
Mn1012 O1018 2.163 . S
Mn1012 O1020 2.160 . S
Mn1012 O1030 2.221 . S
O1013 Mn1014 2.087 . S
O1013 C1025 1.256 . S
Mn1014 O1013 2.087 . S
Mn1014 O1021 2.089 . S
Mn1014 O1030 2.290 . S
Mn1014 O1031 2.251 . S
O1015 Mn1012 2.160 . S
O1015 C1026 1.239 . S
O1016 Mn1012 2.221 . S
O1016 Mn1017 2.290 . S
O1016 C1027 1.278 . S
Mn1017 O1016 2.290 . S
Mn1017 O1019 2.089 . S
Mn1017 O1022 2.251 . S
Mn1017 O1023 2.087 . S
O1018 Mn1012 2.163 . S
O1018 C1028 1.244 . S
O1019 Mn1017 2.089 . S
O1019 C1026 1.256 . S
O1020 Mn1012 2.160 . S
O1020 C1029 1.239 . S
O1021 Mn1014 2.089 . S
O1021 C1029 1.256 . S
O1022 Mn1017 2.251 . S
O1022 C1027 1.241 . S
O1023 Mn1017 2.087 . S
O1023 C1028 1.256 . S
C1024 O1030 1.278 . S
C1024 O1031 1.241 . S
C1025 O1011 1.244 . S
C1025 O1013 1.256 . S
C1026 O1015 1.239 . S
C1026 O1019 1.256 . S
C1027 O1016 1.278 . S
C1027 O1022 1.241 . S
C1028 O1018 1.244 . S
C1028 O1023 1.256 . S
C1029 O1020 1.239 . S
C1029 O1021 1.256 . S
O1030 Mn1012 2.221 . S
O1030 Mn1014 2.290 . S
O1030 C1024 1.278 . S
O1031 Mn1014 2.251 . S
O1031 C1024 1.241 . S
O1032 Mn1033 2.163 1_556 S
O1032 C1046 1.244 . S
Mn1033 O1032 2.163 1_554 S
Mn1033 O1036 2.160 . S
Mn1033 O1037 2.221 1_554 S
Mn1033 O1039 2.163 . S
Mn1033 O1041 2.160 . S
Mn1033 O1051 2.221 . S
O1034 Mn1035 2.087 . S
O1034 C1046 1.256 1_554 S
Mn1035 O1034 2.087 . S
Mn1035 O1042 2.089 . S
Mn1035 O1051 2.290 . S
Mn1035 O1052 2.251 . S
O1036 Mn1033 2.160 . S
O1036 C1047 1.239 . S
O1037 Mn1033 2.221 1_556 S
O1037 Mn1038 2.290 . S
O1037 C1048 1.278 . S
Mn1038 O1037 2.290 . S
Mn1038 O1040 2.089 1_556 S
Mn1038 O1043 2.251 . S
Mn1038 O1044 2.087 . S
O1039 Mn1033 2.163 . S
O1039 C1049 1.244 1_554 S
O1040 Mn1038 2.089 1_554 S
O1040 C1047 1.256 . S
O1041 Mn1033 2.160 . S
O1041 C1050 1.239 . S
O1042 Mn1035 2.089 . S
O1042 C1050 1.256 . S
O1043 Mn1038 2.251 . S
O1043 C1048 1.241 . S
O1044 Mn1038 2.087 . S
O1044 C1049 1.256 . S
C1045 O1051 1.278 . S
C1045 O1052 1.241 . S
C1046 O1032 1.244 . S
C1046 O1034 1.256 1_556 S
C1047 O1036 1.239 . S
C1047 O1040 1.256 . S
C1048 O1037 1.278 . S
C1048 O1043 1.241 . S
C1049 O1039 1.244 1_556 S
C1049 O1044 1.256 . S
C1050 O1041 1.239 . S
C1050 O1042 1.256 . S
O1051 Mn1033 2.221 . S
O1051 Mn1035 2.290 . S
O1051 C1045 1.278 . S
O1052 Mn1035 2.251 . S
O1052 C1045 1.241 . S
O1053 Mn1054 2.163 . S
O1053 C1067 1.244 . S
Mn1054 O1053 2.163 . S
Mn1054 O1057 2.160 . S
Mn1054 O1058 2.221 . S
Mn1054 O1060 2.163 . S
Mn1054 O1062 2.160 . S
Mn1054 O1072 2.221 . S
O1055 Mn1056 2.087 . S
O1055 C1067 1.256 . S
Mn1056 O1055 2.087 . S
Mn1056 O1063 2.089 . S
Mn1056 O1072 2.290 . S
Mn1056 O1073 2.251 . S
O1057 Mn1054 2.160 . S
O1057 C1068 1.239 . S
O1058 Mn1054 2.221 . S
O1058 Mn1059 2.290 . S
O1058 C1069 1.278 . S
Mn1059 O1058 2.290 . S
Mn1059 O1061 2.089 . S
Mn1059 O1064 2.251 . S
Mn1059 O1065 2.087 . S
O1060 Mn1054 2.163 . S
O1060 C1070 1.244 . S
O1061 Mn1059 2.089 . S
O1061 C1068 1.256 . S
O1062 Mn1054 2.160 . S
O1062 C1071 1.239 . S
O1063 Mn1056 2.089 . S
O1063 C1071 1.256 . S
O1064 Mn1059 2.251 . S
O1064 C1069 1.241 . S
O1065 Mn1059 2.087 . S
O1065 C1070 1.256 . S
C1066 O1072 1.278 . S
C1066 O1073 1.241 . S
C1067 O1053 1.244 . S
C1067 O1055 1.256 . S
C1068 O1057 1.239 . S
C1068 O1061 1.256 . S
C1069 O1058 1.278 . S
C1069 O1064 1.241 . S
C1070 O1060 1.244 . S
C1070 O1065 1.256 . S
C1071 O1062 1.239 . S
C1071 O1063 1.256 . S
O1072 Mn1054 2.221 . S
O1072 Mn1056 2.290 . S
O1072 C1066 1.278 . S
O1073 Mn1056 2.251 . S
O1073 C1066 1.241 . S
O1074 Mn1075 2.163 1_655 S
O1074 C1088 1.244 . S
Mn1075 O1074 2.163 1_455 S
Mn1075 O1078 2.160 . S
Mn1075 O1079 2.221 1_455 S
Mn1075 O1081 2.163 . S
Mn1075 O1083 2.160 . S
Mn1075 O1093 2.221 . S
O1076 Mn1077 2.087 . S
O1076 C1088 1.256 1_455 S
Mn1077 O1076 2.087 . S
Mn1077 O1084 2.089 . S
Mn1077 O1093 2.290 . S
Mn1077 O1094 2.251 . S
O1078 Mn1075 2.160 . S
O1078 C1089 1.239 . S
O1079 Mn1075 2.221 1_655 S
O1079 Mn1080 2.290 . S
O1079 C1090 1.278 . S
Mn1080 O1079 2.290 . S
Mn1080 O1082 2.068 1_655 S
Mn1080 O1085 2.251 . S
Mn1080 O1086 2.087 . S
O1081 Mn1075 2.163 . S
O1081 C1091 1.244 1_455 S
O1082 Mn1080 2.068 1_455 S
O1082 C1089 1.274 . S
O1083 Mn1075 2.160 . S
O1083 C1092 1.239 . S
O1084 Mn1077 2.089 . S
O1084 C1092 1.256 . S
O1085 Mn1080 2.251 . S
O1085 C1090 1.241 . S
O1086 Mn1080 2.087 . S
O1086 C1091 1.256 . S
C1087 O1093 1.278 . S
C1087 O1094 1.241 . S
C1088 O1074 1.244 . S
C1088 O1076 1.256 1_655 S
C1089 O1078 1.239 . S
C1089 O1082 1.274 . S
C1090 O1079 1.278 . S
C1090 O1085 1.241 . S
C1091 O1081 1.244 1_655 S
C1091 O1086 1.256 . S
C1092 O1083 1.239 . S
C1092 O1084 1.256 . S
O1093 Mn1075 2.221 . S
O1093 Mn1077 2.290 . S
O1093 C1087 1.278 . S
O1094 Mn1077 2.251 . S
O1094 C1087 1.241 . S
O1095 Mn1096 2.163 . S
O1095 C1109 1.244 . S
Mn1096 O1095 2.163 . S
Mn1096 O1099 2.160 . S
Mn1096 O1100 2.221 . S
Mn1096 O1102 2.163 . S
Mn1096 O1104 2.160 . S
Mn1096 O1114 2.221 . S
O1097 Mn1098 2.087 . S
O1097 C1109 1.256 . S
Mn1098 O1097 2.087 . S
Mn1098 O1105 2.089 . S
Mn1098 O1114 2.290 . S
Mn1098 O1115 2.251 . S
O1099 Mn1096 2.160 . S
O1099 C1110 1.239 . S
O1100 Mn1096 2.221 . S
O1100 Mn1101 2.290 . S
O1100 C1111 1.278 . S
Mn1101 O1100 2.290 . S
Mn1101 O1103 2.089 . S
Mn1101 O1106 2.251 . S
Mn1101 O1107 2.087 . S
O1102 Mn1096 2.163 . S
O1102 C1112 1.244 . S
O1103 Mn1101 2.089 . S
O1103 C1110 1.256 . S
O1104 Mn1096 2.160 . S
O1104 C1113 1.239 . S
O1105 Mn1098 2.089 . S
O1105 C1113 1.256 . S
O1106 Mn1101 2.251 . S
O1106 C1111 1.241 . S
O1107 Mn1101 2.087 . S
O1107 C1112 1.256 . S
C1108 O1114 1.278 . S
C1108 O1115 1.241 . S
C1109 O1095 1.244 . S
C1109 O1097 1.256 . S
C1110 O1099 1.239 . S
C1110 O1103 1.256 . S
C1111 O1100 1.278 . S
C1111 O1106 1.241 . S
C1112 O1102 1.244 . S
C1112 O1107 1.256 . S
C1113 O1104 1.239 . S
C1113 O1105 1.256 . S
O1114 Mn1096 2.221 . S
O1114 Mn1098 2.290 . S
O1114 C1108 1.278 . S
O1115 Mn1098 2.251 . S
O1115 C1108 1.241 . S
O1116 Mn1117 2.163 . S
O1116 C1130 1.244 . S
Mn1117 O1116 2.163 . S
Mn1117 O1120 2.160 . S
Mn1117 O1121 2.221 . S
Mn1117 O1123 2.163 . S
Mn1117 O1125 2.160 . S
Mn1117 O1135 2.221 . S
O1118 Mn1119 2.087 . S
O1118 C1130 1.256 . S
Mn1119 O1118 2.087 . S
Mn1119 O1126 2.089 . S
Mn1119 O1135 2.290 . S
Mn1119 O1136 2.251 . S
O1120 Mn1117 2.160 . S
O1120 C1131 1.239 . S
O1121 Mn1117 2.221 . S
O1121 Mn1122 2.290 . S
O1121 C1132 1.278 . S
Mn1122 O1121 2.290 . S
Mn1122 O1124 2.089 . S
Mn1122 O1127 2.251 . S
Mn1122 O1128 2.087 . S
O1123 Mn1117 2.163 . S
O1123 C1133 1.244 . S
O1124 Mn1122 2.089 . S
O1124 C1131 1.256 . S
O1125 Mn1117 2.160 . S
O1125 C1134 1.239 . S
O1126 Mn1119 2.089 . S
O1126 C1134 1.256 . S
O1127 Mn1122 2.251 . S
O1127 C1132 1.241 . S
O1128 Mn1122 2.087 . S
O1128 C1133 1.256 . S
C1129 O1135 1.278 . S
C1129 O1136 1.241 . S
C1130 O1116 1.244 . S
C1130 O1118 1.256 . S
C1131 O1120 1.239 . S
C1131 O1124 1.256 . S
C1132 O1121 1.278 . S
C1132 O1127 1.241 . S
C1133 O1123 1.244 . S
C1133 O1128 1.256 . S
C1134 O1125 1.239 . S
C1134 O1126 1.256 . S
O1135 Mn1117 2.221 . S
O1135 Mn1119 2.290 . S
O1135 C1129 1.278 . S
O1136 Mn1119 2.251 . S
O1136 C1129 1.241 . S
O1137 Mn1138 2.163 . S
O1137 C1151 1.244 . S
Mn1138 O1137 2.163 . S
Mn1138 O1141 2.160 . S
Mn1138 O1142 2.221 . S
Mn1138 O1144 2.163 . S
Mn1138 O1146 2.160 . S
Mn1138 O1156 2.221 . S
O1139 Mn1140 2.087 . S
O1139 C1151 1.256 . S
Mn1140 O1139 2.087 . S
Mn1140 O1147 2.089 . S
Mn1140 O1156 2.290 . S
Mn1140 O1157 2.251 . S
O1141 Mn1138 2.160 . S
O1141 C1152 1.239 . S
O1142 Mn1138 2.221 . S
O1142 Mn1143 2.290 . S
O1142 C1153 1.278 . S
Mn1143 O1142 2.290 . S
Mn1143 O1145 2.089 . S
Mn1143 O1148 2.251 . S
Mn1143 O1149 2.087 . S
O1144 Mn1138 2.163 . S
O1144 C1154 1.244 . S
O1145 Mn1143 2.089 . S
O1145 C1152 1.256 . S
O1146 Mn1138 2.160 . S
O1146 C1155 1.239 . S
O1147 Mn1140 2.089 . S
O1147 C1155 1.256 . S
O1148 Mn1143 2.251 . S
O1148 C1153 1.241 . S
O1149 Mn1143 2.087 . S
O1149 C1154 1.256 . S
C1150 O1156 1.278 . S
C1150 O1157 1.241 . S
C1151 O1137 1.244 . S
C1151 O1139 1.256 . S
C1152 O1141 1.239 . S
C1152 O1145 1.256 . S
C1153 O1142 1.278 . S
C1153 O1148 1.241 . S
C1154 O1144 1.244 . S
C1154 O1149 1.256 . S
C1155 O1146 1.239 . S
C1155 O1147 1.256 . S
O1156 Mn1138 2.221 . S
O1156 Mn1140 2.290 . S
O1156 C1150 1.278 . S
O1157 Mn1140 2.251 . S
O1157 C1150 1.241 . S
O1158 Mn1159 2.163 . S
O1158 C1172 1.244 . S
Mn1159 O1158 2.163 . S
Mn1159 O1162 2.160 . S
Mn1159 O1163 2.221 . S
Mn1159 O1165 2.163 . S
Mn1159 O1167 2.160 . S
Mn1159 O1177 2.221 . S
O1160 Mn1161 2.087 . S
O1160 C1172 1.256 . S
Mn1161 O1160 2.087 . S
Mn1161 O1168 2.089 . S
Mn1161 O1177 2.290 . S
Mn1161 O1178 2.251 . S
O1162 Mn1159 2.160 . S
O1162 C1173 1.239 . S
O1163 Mn1159 2.221 . S
O1163 Mn1164 2.290 . S
O1163 C1174 1.278 . S
Mn1164 O1163 2.290 . S
Mn1164 O1166 2.089 . S
Mn1164 O1169 2.251 . S
Mn1164 O1170 2.087 . S
O1165 Mn1159 2.163 . S
O1165 C1175 1.244 . S
O1166 Mn1164 2.089 . S
O1166 C1173 1.256 . S
O1167 Mn1159 2.160 . S
O1167 C1176 1.239 . S
O1168 Mn1161 2.089 . S
O1168 C1176 1.256 . S
O1169 Mn1164 2.251 . S
O1169 C1174 1.241 . S
O1170 Mn1164 2.087 . S
O1170 C1175 1.256 . S
C1171 O1177 1.278 . S
C1171 O1178 1.241 . S
C1172 O1158 1.244 . S
C1172 O1160 1.256 . S
C1173 O1162 1.239 . S
C1173 O1166 1.256 . S
C1174 O1163 1.278 . S
C1174 O1169 1.241 . S
C1175 O1165 1.244 . S
C1175 O1170 1.256 . S
C1176 O1167 1.239 . S
C1176 O1168 1.256 . S
O1177 Mn1159 2.221 . S
O1177 Mn1161 2.290 . S
O1177 C1171 1.278 . S
O1178 Mn1161 2.251 . S
O1178 C1171 1.241 . S
O1179 Mn1180 2.169 1_655 S
O1179 C1193 1.240 1_554 S
Mn1180 O1179 2.169 1_455 S
Mn1180 O1183 2.160 . S
Mn1180 O1184 2.221 . S
Mn1180 O1186 2.163 1_554 S
Mn1180 O1188 2.160 1_455 S
Mn1180 O1198 2.214 1_454 S
O1181 Mn1182 2.087 1_556 S
O1181 C1193 1.256 . S
Mn1182 O1181 2.087 1_554 S
Mn1182 O1189 2.089 . S
Mn1182 O1198 2.277 1_554 S
Mn1182 O1199 2.251 1_554 S
O1183 Mn1180 2.160 . S
O1183 C1194 1.239 . S
O1184 Mn1180 2.221 . S
O1184 Mn1185 2.290 1_554 S
O1184 C1195 1.278 . S
Mn1185 O1184 2.290 1_556 S
Mn1185 O1187 2.083 1_556 S
Mn1185 O1190 2.251 1_556 S
Mn1185 O1191 2.087 . S
O1186 Mn1180 2.163 1_556 S
O1186 C1196 1.244 . S
O1187 Mn1185 2.083 1_554 S
O1187 C1194 1.277 . S
O1188 Mn1180 2.160 1_655 S
O1188 C1197 1.239 . S
O1189 Mn1182 2.089 . S
O1189 C1197 1.256 . S
O1190 Mn1185 2.251 1_554 S
O1190 C1195 1.241 . S
O1191 Mn1185 2.087 . S
O1191 C1196 1.256 . S
C1192 O1198 1.306 . S
C1192 O1199 1.241 . S
C1193 O1179 1.240 1_556 S
C1193 O1181 1.256 . S
C1194 O1183 1.239 . S
C1194 O1187 1.277 . S
C1195 O1184 1.278 . S
C1195 O1190 1.241 . S
C1196 O1186 1.244 . S
C1196 O1191 1.256 . S
C1197 O1188 1.239 . S
C1197 O1189 1.256 . S
O1198 Mn1180 2.214 1_656 S
O1198 Mn1182 2.277 1_556 S
O1198 C1192 1.306 . S
O1199 Mn1182 2.251 1_556 S
O1199 C1192 1.241 . S
H1200 C1218 0.951 . S
H1201 C1220 0.951 . S
H1202 C1222 0.950 . S
H1203 C1223 0.950 . S
H1204 C1225 0.950 . S
H1205 C1228 0.950 1_455 S
H1206 C1229 0.950 . S
H1207 C1231 0.950 . S
H1208 C1232 0.950 . S
H1209 C1233 0.951 . S
H1210 C1235 0.951 . S
H1211 C1237 0.950 . S
H1212 C1238 0.950 . S
H1213 C1240 0.950 . S
H1214 C1243 0.950 1_655 S
H1215 C1244 0.950 . S
H1216 C1246 0.950 . S
H1217 C1247 0.950 . S
C1218 H1200 0.951 . S
C1218 C1219 1.366 1_655 S
C1218 C1220 1.388 . S
C1219 C1218 1.366 1_455 S
C1219 C1223 1.385 . S
C1220 H1201 0.951 . S
C1220 C1218 1.388 . S
C1220 C1221 1.366 1_655 S
C1221 C1220 1.366 1_455 S
C1221 C1222 1.414 . S
C1221 C1224 1.499 . S
C1222 H1202 0.950 . S
C1222 C1221 1.414 . S
C1222 C1223 1.374 . S
C1223 H1203 0.950 . S
C1223 C1219 1.385 . S
C1223 C1222 1.374 . S
C1224 C1221 1.499 . S
C1224 C1225 1.373 . S
C1224 C1226 1.389 1_455 S
C1225 H1204 0.950 . S
C1225 C1224 1.373 . S
C1225 C1241 1.377 . S
C1226 C1224 1.389 1_655 S
C1226 C1227 1.524 . S
C1226 C1240 1.377 . S
C1227 C1226 1.524 . S
C1227 C1228 1.397 . S
C1227 C1232 1.363 . S
C1228 H1205 0.950 1_655 S
C1228 C1227 1.397 . S
C1228 C1229 1.334 . S
C1229 H1206 0.950 . S
C1229 C1228 1.334 . S
C1229 C1230 1.287 . S
C1230 C1229 1.287 . S
C1230 C1231 1.524 . S
C1230 H1249 0.913 . S
C1231 H1207 0.950 . S
C1231 C1230 1.524 . S
C1231 C1232 1.415 . S
C1232 H1208 0.950 . S
C1232 C1227 1.363 . S
C1232 C1231 1.415 . S
C1233 H1209 0.951 . S
C1233 C1234 1.366 1_455 S
C1233 C1235 1.388 . S
C1234 C1233 1.366 1_655 S
C1234 C1238 1.385 . S
C1235 H1210 0.951 . S
C1235 C1233 1.388 . S
C1235 C1236 1.370 1_455 S
C1236 C1235 1.370 1_655 S
C1236 C1237 1.409 . S
C1236 C1239 1.499 . S
C1237 H1211 0.950 . S
C1237 C1236 1.409 . S
C1237 C1238 1.374 . S
C1238 H1212 0.950 . S
C1238 C1234 1.385 . S
C1238 C1237 1.374 . S
C1239 C1236 1.499 . S
C1239 C1240 1.372 . S
C1239 C1241 1.391 1_655 S
C1240 H1213 0.950 . S
C1240 C1226 1.377 . S
C1240 C1239 1.372 . S
C1241 C1225 1.377 . S
C1241 C1239 1.391 1_455 S
C1241 C1242 1.524 . S
C1242 C1241 1.524 . S
C1242 C1243 1.397 . S
C1242 C1247 1.363 . S
C1243 H1214 0.950 1_455 S
C1243 C1242 1.397 . S
C1243 C1244 1.334 1_554 S
C1244 H1215 0.950 . S
C1244 C1243 1.334 1_556 S
C1244 C1245 1.287 . S
C1245 C1244 1.287 . S
C1245 C1246 1.524 1_556 S
C1245 H1248 0.999 . S
C1246 H1216 0.950 . S
C1246 C1245 1.524 1_554 S
C1246 C1247 1.415 . S
C1247 H1217 0.950 . S
C1247 C1242 1.363 . S
C1247 C1246 1.415 . S
H1248 C1245 0.999 . S
H1249 C1230 0.913 . S
H1250 C1268 0.951 . S
H1251 C1270 0.951 . S
H1252 C1272 0.950 . S
H1253 C1273 0.950 . S
H1254 C1275 0.950 . S
H1255 C1278 0.950 . S
H1256 C1279 0.950 . S
H1257 C1281 0.950 . S
H1258 C1282 0.950 . S
H1259 C1283 0.951 . S
H1260 C1285 0.951 . S
H1261 C1287 0.950 . S
H1262 C1288 0.950 . S
H1263 C1290 0.950 . S
H1264 C1293 0.950 . S
H1265 C1294 0.950 . S
H1266 C1296 0.950 . S
H1267 C1297 0.950 . S
C1268 H1250 0.951 . S
C1268 C1269 1.366 . S
C1268 C1270 1.388 . S
C1269 C1268 1.366 . S
C1269 C1273 1.385 . S
C1270 H1251 0.951 . S
C1270 C1268 1.388 . S
C1270 C1271 1.366 . S
C1271 C1270 1.366 . S
C1271 C1272 1.414 . S
C1271 C1274 1.499 . S
C1272 H1252 0.950 . S
C1272 C1271 1.414 . S
C1272 C1273 1.374 . S
C1273 H1253 0.950 . S
C1273 C1269 1.385 . S
C1273 C1272 1.374 . S
C1274 C1271 1.499 . S
C1274 C1275 1.373 . S
C1274 C1276 1.389 . S
C1275 H1254 0.950 . S
C1275 C1274 1.373 . S
C1275 C1291 1.377 . S
C1276 C1274 1.389 . S
C1276 C1277 1.524 . S
C1276 C1290 1.377 . S
C1277 C1276 1.524 . S
C1277 C1278 1.397 . S
C1277 C1282 1.363 . S
C1278 H1255 0.950 . S
C1278 C1277 1.397 . S
C1278 C1279 1.334 . S
C1279 H1256 0.950 . S
C1279 C1278 1.334 . S
C1279 C1280 1.287 . S
C1280 C1279 1.287 . S
C1280 C1281 1.524 . S
C1280 H1299 0.913 . S
C1281 H1257 0.950 . S
C1281 C1280 1.524 . S
C1281 C1282 1.415 . S
C1282 H1258 0.950 . S
C1282 C1277 1.363 . S
C1282 C1281 1.415 . S
C1283 H1259 0.951 . S
C1283 C1284 1.366 . S
C1283 C1285 1.388 . S
C1284 C1283 1.366 . S
C1284 C1288 1.385 . S
C1285 H1260 0.951 . S
C1285 C1283 1.388 . S
C1285 C1286 1.366 . S
C1286 C1285 1.366 . S
C1286 C1287 1.414 . S
C1286 C1289 1.499 . S
C1287 H1261 0.950 . S
C1287 C1286 1.414 . S
C1287 C1288 1.374 . S
C1288 H1262 0.950 . S
C1288 C1284 1.385 . S
C1288 C1287 1.374 . S
C1289 C1286 1.499 . S
C1289 C1290 1.373 . S
C1289 C1291 1.389 . S
C1290 H1263 0.950 . S
C1290 C1276 1.377 . S
C1290 C1289 1.373 . S
C1291 C1275 1.377 . S
C1291 C1289 1.389 . S
C1291 C1292 1.524 . S
C1292 C1291 1.524 . S
C1292 C1293 1.397 . S
C1292 C1297 1.363 . S
C1293 H1264 0.950 . S
C1293 C1292 1.397 . S
C1293 C1294 1.334 . S
C1294 H1265 0.950 . S
C1294 C1293 1.334 . S
C1294 C1295 1.287 . S
C1295 C1294 1.287 . S
C1295 C1296 1.524 . S
C1295 H1298 0.999 . S
C1296 H1266 0.950 . S
C1296 C1295 1.524 . S
C1296 C1297 1.415 . S
C1297 H1267 0.950 . S
C1297 C1292 1.363 . S
C1297 C1296 1.415 . S
H1298 C1295 0.999 . S
H1299 C1280 0.913 . S
H1300 C1318 0.951 . S
H1301 C1320 0.951 . S
H1302 C1322 0.950 . S
H1303 C1323 0.950 . S
H1304 C1325 0.950 . S
H1305 C1328 0.950 . S
H1306 C1329 0.950 . S
H1307 C1331 0.950 . S
H1308 C1332 0.950 . S
H1309 C1333 0.951 . S
H1310 C1335 0.951 . S
H1311 C1337 0.950 . S
H1312 C1338 0.950 . S
H1313 C1340 0.950 . S
H1314 C1343 0.950 . S
H1315 C1344 0.950 . S
H1316 C1346 0.950 . S
H1317 C1347 0.950 . S
C1318 H1300 0.951 . S
C1318 C1319 1.366 . S
C1318 C1320 1.388 . S
C1319 C1318 1.366 . S
C1319 C1323 1.385 . S
C1320 H1301 0.951 . S
C1320 C1318 1.388 . S
C1320 C1321 1.366 . S
C1321 C1320 1.366 . S
C1321 C1322 1.414 . S
C1321 C1324 1.499 . S
C1322 H1302 0.950 . S
C1322 C1321 1.414 . S
C1322 C1323 1.374 . S
C1323 H1303 0.950 . S
C1323 C1319 1.385 . S
C1323 C1322 1.374 . S
C1324 C1321 1.499 . S
C1324 C1325 1.373 . S
C1324 C1326 1.389 . S
C1325 H1304 0.950 . S
C1325 C1324 1.373 . S
C1325 C1341 1.377 . S
C1326 C1324 1.389 . S
C1326 C1327 1.524 . S
C1326 C1340 1.377 . S
C1327 C1326 1.524 . S
C1327 C1328 1.397 . S
C1327 C1332 1.363 . S
C1328 H1305 0.950 . S
C1328 C1327 1.397 . S
C1328 C1329 1.334 . S
C1329 H1306 0.950 . S
C1329 C1328 1.334 . S
C1329 C1330 1.287 . S
C1330 C1329 1.287 . S
C1330 C1331 1.524 . S
C1330 H1349 0.913 . S
C1331 H1307 0.950 . S
C1331 C1330 1.524 . S
C1331 C1332 1.415 . S
C1332 H1308 0.950 . S
C1332 C1327 1.363 . S
C1332 C1331 1.415 . S
C1333 H1309 0.951 . S
C1333 C1334 1.366 . S
C1333 C1335 1.388 . S
C1334 C1333 1.366 . S
C1334 C1338 1.385 . S
C1335 H1310 0.951 . S
C1335 C1333 1.388 . S
C1335 C1336 1.366 . S
C1336 C1335 1.366 . S
C1336 C1337 1.414 . S
C1336 C1339 1.499 . S
C1337 H1311 0.950 . S
C1337 C1336 1.414 . S
C1337 C1338 1.374 . S
C1338 H1312 0.950 . S
C1338 C1334 1.385 . S
C1338 C1337 1.374 . S
C1339 C1336 1.499 . S
C1339 C1340 1.373 . S
C1339 C1341 1.389 . S
C1340 H1313 0.950 . S
C1340 C1326 1.377 . S
C1340 C1339 1.373 . S
C1341 C1325 1.377 . S
C1341 C1339 1.389 . S
C1341 C1342 1.524 . S
C1342 C1341 1.524 . S
C1342 C1343 1.397 . S
C1342 C1347 1.363 . S
C1343 H1314 0.950 . S
C1343 C1342 1.397 . S
C1343 C1344 1.334 . S
C1344 H1315 0.950 . S
C1344 C1343 1.334 . S
C1344 C1345 1.287 . S
C1345 C1344 1.287 . S
C1345 C1346 1.524 . S
C1345 H1348 0.999 . S
C1346 H1316 0.950 . S
C1346 C1345 1.524 . S
C1346 C1347 1.415 . S
C1347 H1317 0.950 . S
C1347 C1342 1.363 . S
C1347 C1346 1.415 . S
H1348 C1345 0.999 . S
H1349 C1330 0.913 . S
H1350 C1368 0.951 . S
H1351 C1370 0.951 . S
H1352 C1372 0.950 . S
H1353 C1373 0.950 . S
H1354 C1375 0.950 . S
H1355 C1378 0.950 . S
H1356 C1379 0.950 . S
H1357 C1381 0.950 . S
H1358 C1382 0.950 . S
H1359 C1383 0.951 . S
H1360 C1385 0.951 . S
H1361 C1387 0.950 . S
H1362 C1388 0.950 . S
H1363 C1390 0.950 . S
H1364 C1393 0.950 . S
H1365 C1394 0.950 . S
H1366 C1396 0.950 . S
H1367 C1397 0.950 . S
C1368 H1350 0.951 . S
C1368 C1369 1.366 . S
C1368 C1370 1.388 . S
C1369 C1368 1.366 . S
C1369 C1373 1.385 . S
C1370 H1351 0.951 . S
C1370 C1368 1.388 . S
C1370 C1371 1.366 . S
C1371 C1370 1.366 . S
C1371 C1372 1.414 . S
C1371 C1374 1.499 . S
C1372 H1352 0.950 . S
C1372 C1371 1.414 . S
C1372 C1373 1.374 . S
C1373 H1353 0.950 . S
C1373 C1369 1.385 . S
C1373 C1372 1.374 . S
C1374 C1371 1.499 . S
C1374 C1375 1.373 . S
C1374 C1376 1.389 . S
C1375 H1354 0.950 . S
C1375 C1374 1.373 . S
C1375 C1391 1.377 . S
C1376 C1374 1.389 . S
C1376 C1377 1.524 . S
C1376 C1390 1.377 . S
C1377 C1376 1.524 . S
C1377 C1378 1.397 . S
C1377 C1382 1.363 . S
C1378 H1355 0.950 . S
C1378 C1377 1.397 . S
C1378 C1379 1.334 . S
C1379 H1356 0.950 . S
C1379 C1378 1.334 . S
C1379 C1380 1.287 . S
C1380 C1379 1.287 . S
C1380 C1381 1.524 . S
C1380 H1399 0.913 . S
C1381 H1357 0.950 . S
C1381 C1380 1.524 . S
C1381 C1382 1.415 . S
C1382 H1358 0.950 . S
C1382 C1377 1.363 . S
C1382 C1381 1.415 . S
C1383 H1359 0.951 . S
C1383 C1384 1.366 . S
C1383 C1385 1.388 . S
C1384 C1383 1.366 . S
C1384 C1388 1.385 . S
C1385 H1360 0.951 . S
C1385 C1383 1.388 . S
C1385 C1386 1.366 . S
C1386 C1385 1.366 . S
C1386 C1387 1.414 . S
C1386 C1389 1.499 . S
C1387 H1361 0.950 . S
C1387 C1386 1.414 . S
C1387 C1388 1.374 . S
C1388 H1362 0.950 . S
C1388 C1384 1.385 . S
C1388 C1387 1.374 . S
C1389 C1386 1.499 . S
C1389 C1390 1.373 . S
C1389 C1391 1.389 . S
C1390 H1363 0.950 . S
C1390 C1376 1.377 . S
C1390 C1389 1.373 . S
C1391 C1375 1.377 . S
C1391 C1389 1.389 . S
C1391 C1392 1.524 . S
C1392 C1391 1.524 . S
C1392 C1393 1.397 . S
C1392 C1397 1.363 . S
C1393 H1364 0.950 . S
C1393 C1392 1.397 . S
C1393 C1394 1.334 . S
C1394 H1365 0.950 . S
C1394 C1393 1.334 . S
C1394 C1395 1.287 . S
C1395 C1394 1.287 . S
C1395 C1396 1.524 . S
C1395 H1398 0.999 . S
C1396 H1366 0.950 . S
C1396 C1395 1.524 . S
C1396 C1397 1.415 . S
C1397 H1367 0.950 . S
C1397 C1392 1.363 . S
C1397 C1396 1.415 . S
H1398 C1395 0.999 . S
H1399 C1380 0.913 . S
H1400 C1418 0.951 . S
H1401 C1420 0.951 . S
H1402 C1422 0.950 . S
H1403 C1423 0.950 . S
H1404 C1425 0.950 . S
H1405 C1428 0.909 1_455 S
H1406 C1429 0.950 1_455 S
H1407 C1431 0.950 . S
H1408 C1432 0.950 . S
H1409 C1433 0.951 . S
H1410 C1435 0.951 . S
H1411 C1437 0.950 . S
H1412 C1438 0.950 . S
H1413 C1440 0.950 . S
H1414 C1443 0.950 1_655 S
H1415 C1444 0.950 . S
H1416 C1446 0.950 . S
H1417 C1447 0.950 . S
C1418 H1400 0.951 . S
C1418 C1419 1.366 1_655 S
C1418 C1420 1.388 . S
C1419 C1418 1.366 1_455 S
C1419 C1423 1.385 . S
C1420 H1401 0.951 . S
C1420 C1418 1.388 . S
C1420 C1421 1.366 1_655 S
C1421 C1420 1.366 1_455 S
C1421 C1422 1.414 . S
C1421 C1424 1.499 . S
C1422 H1402 0.950 . S
C1422 C1421 1.414 . S
C1422 C1423 1.374 . S
C1423 H1403 0.950 . S
C1423 C1419 1.385 . S
C1423 C1422 1.374 . S
C1424 C1421 1.499 . S
C1424 C1425 1.373 . S
C1424 C1426 1.389 1_455 S
C1425 H1404 0.950 . S
C1425 C1424 1.373 . S
C1425 C1441 1.377 . S
C1426 C1424 1.389 1_655 S
C1426 C1427 1.524 . S
C1426 C1440 1.377 . S
C1427 C1426 1.524 . S
C1427 C1428 1.424 . S
C1427 C1432 1.363 . S
C1428 H1405 0.909 1_655 S
C1428 C1427 1.424 . S
C1428 C1429 1.347 . S
C1429 H1406 0.950 1_655 S
C1429 C1428 1.347 . S
C1429 C1430 1.287 . S
C1430 C1429 1.287 . S
C1430 C1431 1.524 . S
C1430 H1449 0.913 . S
C1431 H1407 0.950 . S
C1431 C1430 1.524 . S
C1431 C1432 1.415 . S
C1432 H1408 0.950 . S
C1432 C1427 1.363 . S
C1432 C1431 1.415 . S
C1433 H1409 0.951 . S
C1433 C1434 1.377 . S
C1433 C1435 1.388 . S
C1434 C1433 1.377 . S
C1434 C1438 1.374 1_455 S
C1435 H1410 0.951 . S
C1435 C1433 1.388 . S
C1435 C1436 1.366 . S
C1436 C1435 1.366 . S
C1436 C1437 1.414 1_455 S
C1436 C1439 1.499 . S
C1437 H1411 0.950 . S
C1437 C1436 1.414 1_655 S
C1437 C1438 1.374 . S
C1438 H1412 0.950 . S
C1438 C1434 1.374 1_655 S
C1438 C1437 1.374 . S
C1439 C1436 1.499 . S
C1439 C1440 1.373 1_455 S
C1439 C1441 1.389 . S
C1440 H1413 0.950 . S
C1440 C1426 1.377 . S
C1440 C1439 1.373 1_655 S
C1441 C1425 1.377 . S
C1441 C1439 1.389 . S
C1441 C1442 1.524 . S
C1442 C1441 1.524 . S
C1442 C1443 1.397 . S
C1442 C1447 1.363 . S
C1443 H1414 0.950 1_455 S
C1443 C1442 1.397 . S
C1443 C1444 1.334 . S
C1444 H1415 0.950 . S
C1444 C1443 1.334 . S
C1444 C1445 1.287 . S
C1445 C1444 1.287 . S
C1445 C1446 1.524 . S
C1445 H1448 0.999 . S
C1446 H1416 0.950 . S
C1446 C1445 1.524 . S
C1446 C1447 1.415 . S
C1447 H1417 0.950 . S
C1447 C1442 1.363 . S
C1447 C1446 1.415 . S
H1448 C1445 0.999 . S
H1449 C1430 0.913 . S
H1450 C1468 0.951 . S
H1451 C1470 0.951 . S
H1452 C1472 0.950 . S
H1453 C1473 0.950 . S
H1454 C1475 0.950 . S
H1455 C1478 0.950 . S
H1456 C1479 0.950 . S
H1457 C1481 0.950 . S
H1458 C1482 0.950 . S
H1459 C1483 0.951 . S
H1460 C1485 0.951 . S
H1461 C1487 0.950 . S
H1462 C1488 0.950 . S
H1463 C1490 0.950 . S
H1464 C1493 0.950 . S
H1465 C1494 0.950 . S
H1466 C1496 0.950 . S
H1467 C1497 0.950 . S
C1468 H1450 0.951 . S
C1468 C1469 1.366 . S
C1468 C1470 1.388 . S
C1469 C1468 1.366 . S
C1469 C1473 1.385 . S
C1470 H1451 0.951 . S
C1470 C1468 1.388 . S
C1470 C1471 1.366 . S
C1471 C1470 1.366 . S
C1471 C1472 1.414 . S
C1471 C1474 1.499 . S
C1472 H1452 0.950 . S
C1472 C1471 1.414 . S
C1472 C1473 1.374 . S
C1473 H1453 0.950 . S
C1473 C1469 1.385 . S
C1473 C1472 1.374 . S
C1474 C1471 1.499 . S
C1474 C1475 1.373 . S
C1474 C1476 1.389 . S
C1475 H1454 0.950 . S
C1475 C1474 1.373 . S
C1475 C1491 1.377 . S
C1476 C1474 1.389 . S
C1476 C1477 1.524 . S
C1476 C1490 1.377 . S
C1477 C1476 1.524 . S
C1477 C1478 1.397 . S
C1477 C1482 1.363 . S
C1478 H1455 0.950 . S
C1478 C1477 1.397 . S
C1478 C1479 1.334 . S
C1479 H1456 0.950 . S
C1479 C1478 1.334 . S
C1479 C1480 1.287 . S
C1480 C1479 1.287 . S
C1480 C1481 1.524 . S
C1480 H1499 0.913 . S
C1481 H1457 0.950 . S
C1481 C1480 1.524 . S
C1481 C1482 1.415 . S
C1482 H1458 0.950 . S
C1482 C1477 1.363 . S
C1482 C1481 1.415 . S
C1483 H1459 0.951 . S
C1483 C1484 1.366 . S
C1483 C1485 1.388 . S
C1484 C1483 1.366 . S
C1484 C1488 1.385 . S
C1485 H1460 0.951 . S
C1485 C1483 1.388 . S
C1485 C1486 1.366 . S
C1486 C1485 1.366 . S
C1486 C1487 1.414 . S
C1486 C1489 1.499 . S
C1487 H1461 0.950 . S
C1487 C1486 1.414 . S
C1487 C1488 1.374 . S
C1488 H1462 0.950 . S
C1488 C1484 1.385 . S
C1488 C1487 1.374 . S
C1489 C1486 1.499 . S
C1489 C1490 1.373 . S
C1489 C1491 1.389 . S
C1490 H1463 0.950 . S
C1490 C1476 1.377 . S
C1490 C1489 1.373 . S
C1491 C1475 1.377 . S
C1491 C1489 1.389 . S
C1491 C1492 1.524 . S
C1492 C1491 1.524 . S
C1492 C1493 1.397 . S
C1492 C1497 1.363 . S
C1493 H1464 0.950 . S
C1493 C1492 1.397 . S
C1493 C1494 1.334 . S
C1494 H1465 0.950 . S
C1494 C1493 1.334 . S
C1494 C1495 1.287 . S
C1495 C1494 1.287 . S
C1495 C1496 1.524 . S
C1495 H1498 0.999 . S
C1496 H1466 0.950 . S
C1496 C1495 1.524 . S
C1496 C1497 1.415 . S
C1497 H1467 0.950 . S
C1497 C1492 1.363 . S
C1497 C1496 1.415 . S
H1498 C1495 0.999 . S
H1499 C1480 0.913 . S
H1500 C1518 0.951 . S
H1501 C1520 0.951 . S
H1502 C1522 0.950 . S
H1503 C1523 0.950 . S
H1504 C1525 0.950 . S
H1505 C1528 0.950 . S
H1506 C1529 0.950 . S
H1507 C1531 0.950 . S
H1508 C1532 0.950 . S
H1509 C1533 0.903 1_554 S
H1510 C1535 0.951 . S
H1511 C1537 0.950 . S
H1512 C1538 0.950 . S
H1513 C1540 0.950 . S
H1514 C1543 0.950 . S
H1515 C1544 0.950 . S
H1516 C1546 0.950 . S
H1517 C1547 0.950 . S
C1518 H1500 0.951 . S
C1518 C1519 1.366 . S
C1518 C1520 1.388 . S
C1519 C1518 1.366 . S
C1519 C1523 1.385 . S
C1520 H1501 0.951 . S
C1520 C1518 1.388 . S
C1520 C1521 1.366 . S
C1521 C1520 1.366 . S
C1521 C1522 1.414 . S
C1521 C1524 1.499 . S
C1522 H1502 0.950 . S
C1522 C1521 1.414 . S
C1522 C1523 1.374 . S
C1523 H1503 0.950 . S
C1523 C1519 1.385 . S
C1523 C1522 1.374 . S
C1524 C1521 1.499 . S
C1524 C1525 1.373 . S
C1524 C1526 1.389 . S
C1525 H1504 0.950 . S
C1525 C1524 1.373 . S
C1525 C1541 1.377 . S
C1526 C1524 1.389 . S
C1526 C1527 1.524 . S
C1526 C1540 1.377 . S
C1527 C1526 1.524 . S
C1527 C1528 1.397 . S
C1527 C1532 1.363 . S
C1528 H1505 0.950 . S
C1528 C1527 1.397 . S
C1528 C1529 1.334 . S
C1529 H1506 0.950 . S
C1529 C1528 1.334 . S
C1529 C1530 1.287 . S
C1530 C1529 1.287 . S
C1530 C1531 1.524 . S
C1530 H1549 0.913 . S
C1531 H1507 0.950 . S
C1531 C1530 1.524 . S
C1531 C1532 1.415 . S
C1532 H1508 0.950 . S
C1532 C1527 1.363 . S
C1532 C1531 1.415 . S
C1533 H1509 0.903 1_556 S
C1533 C1534 1.366 . S
C1533 C1535 1.388 . S
C1534 C1533 1.366 . S
C1534 C1538 1.385 . S
C1535 H1510 0.951 . S
C1535 C1533 1.388 . S
C1535 C1536 1.366 . S
C1536 C1535 1.366 . S
C1536 C1537 1.414 . S
C1536 C1539 1.499 . S
C1537 H1511 0.950 . S
C1537 C1536 1.414 . S
C1537 C1538 1.374 . S
C1538 H1512 0.950 . S
C1538 C1534 1.385 . S
C1538 C1537 1.374 . S
C1539 C1536 1.499 . S
C1539 C1540 1.373 . S
C1539 C1541 1.389 . S
C1540 H1513 0.950 . S
C1540 C1526 1.377 . S
C1540 C1539 1.373 . S
C1541 C1525 1.377 . S
C1541 C1539 1.389 . S
C1541 C1542 1.524 . S
C1542 C1541 1.524 . S
C1542 C1543 1.397 . S
C1542 C1547 1.363 . S
C1543 H1514 0.950 . S
C1543 C1542 1.397 . S
C1543 C1544 1.334 . S
C1544 H1515 0.950 . S
C1544 C1543 1.334 . S
C1544 C1545 1.287 . S
C1545 C1544 1.287 . S
C1545 C1546 1.524 . S
C1545 H1548 0.999 . S
C1546 H1516 0.950 . S
C1546 C1545 1.524 . S
C1546 C1547 1.415 . S
C1547 H1517 0.950 . S
C1547 C1542 1.363 . S
C1547 C1546 1.415 . S
H1548 C1545 0.999 . S
H1549 C1530 0.913 . S
H1550 C1568 0.951 . S
H1551 C1570 0.951 . S
H1552 C1572 0.950 . S
H1553 C1573 0.950 . S
H1554 C1575 0.950 . S
H1555 C1578 0.950 . S
H1556 C1579 0.950 . S
H1557 C1581 0.950 . S
H1558 C1582 0.950 . S
H1559 C1583 0.951 . S
H1560 C1585 0.951 . S
H1561 C1587 0.950 . S
H1562 C1588 0.950 . S
H1563 C1590 0.950 . S
H1564 C1593 0.950 . S
H1565 C1594 0.950 . S
H1566 C1596 0.950 . S
H1567 C1597 0.950 . S
C1568 H1550 0.951 . S
C1568 C1569 1.366 . S
C1568 C1570 1.388 . S
C1569 C1568 1.366 . S
C1569 C1573 1.385 . S
C1570 H1551 0.951 . S
C1570 C1568 1.388 . S
C1570 C1571 1.366 . S
C1571 C1570 1.366 . S
C1571 C1572 1.414 . S
C1571 C1574 1.499 . S
C1572 H1552 0.950 . S
C1572 C1571 1.414 . S
C1572 C1573 1.374 . S
C1573 H1553 0.950 . S
C1573 C1569 1.385 . S
C1573 C1572 1.374 . S
C1574 C1571 1.499 . S
C1574 C1575 1.373 . S
C1574 C1576 1.389 . S
C1575 H1554 0.950 . S
C1575 C1574 1.373 . S
C1575 C1591 1.377 . S
C1576 C1574 1.389 . S
C1576 C1577 1.524 . S
C1576 C1590 1.377 . S
C1577 C1576 1.524 . S
C1577 C1578 1.397 . S
C1577 C1582 1.363 . S
C1578 H1555 0.950 . S
C1578 C1577 1.397 . S
C1578 C1579 1.334 . S
C1579 H1556 0.950 . S
C1579 C1578 1.334 . S
C1579 C1580 1.287 . S
C1580 C1579 1.287 . S
C1580 C1581 1.524 . S
C1580 H1599 0.913 . S
C1581 H1557 0.950 . S
C1581 C1580 1.524 . S
C1581 C1582 1.415 . S
C1582 H1558 0.950 . S
C1582 C1577 1.363 . S
C1582 C1581 1.415 . S
C1583 H1559 0.951 . S
C1583 C1584 1.366 . S
C1583 C1585 1.388 . S
C1584 C1583 1.366 . S
C1584 C1588 1.385 . S
C1585 H1560 0.951 . S
C1585 C1583 1.388 . S
C1585 C1586 1.366 . S
C1586 C1585 1.366 . S
C1586 C1587 1.414 . S
C1586 C1589 1.499 . S
C1587 H1561 0.950 . S
C1587 C1586 1.414 . S
C1587 C1588 1.374 . S
C1588 H1562 0.950 . S
C1588 C1584 1.385 . S
C1588 C1587 1.374 . S
C1589 C1586 1.499 . S
C1589 C1590 1.373 . S
C1589 C1591 1.389 . S
C1590 H1563 0.950 . S
C1590 C1576 1.377 . S
C1590 C1589 1.373 . S
C1591 C1575 1.377 . S
C1591 C1589 1.389 . S
C1591 C1592 1.524 . S
C1592 C1591 1.524 . S
C1592 C1593 1.397 . S
C1592 C1597 1.363 . S
C1593 H1564 0.950 . S
C1593 C1592 1.397 . S
C1593 C1594 1.334 . S
C1594 H1565 0.950 . S
C1594 C1593 1.334 . S
C1594 C1595 1.287 . S
C1595 C1594 1.287 . S
C1595 C1596 1.524 . S
C1595 H1598 0.999 . S
C1596 H1566 0.950 . S
C1596 C1595 1.524 . S
C1596 C1597 1.415 . S
C1597 H1567 0.950 . S
C1597 C1592 1.363 . S
C1597 C1596 1.415 . S
H1598 C1595 0.999 . S
H1599 C1580 0.913 . S
H1600 C1618 0.951 . S
H1601 C1620 0.951 . S
H1602 C1622 0.950 . S
H1603 C1623 0.950 . S
H1604 C1625 0.950 . S
H1605 C1628 0.950 . S
H1606 C1629 0.950 . S
H1607 C1631 0.950 . S
H1608 C1632 0.950 1_545 S
H1609 C1633 0.951 . S
H1610 C1635 0.951 . S
H1611 C1637 0.950 . S
H1612 C1638 0.950 . S
H1613 C1640 0.950 . S
H1614 C1643 0.950 . S
H1615 C1644 0.950 . S
H1616 C1646 0.950 . S
H1617 C1647 0.950 1_565 S
C1618 H1600 0.951 . S
C1618 C1619 1.366 . S
C1618 C1620 1.388 . S
C1619 C1618 1.366 . S
C1619 C1623 1.385 1_545 S
C1620 H1601 0.951 . S
C1620 C1618 1.388 . S
C1620 C1621 1.364 . S
C1621 C1620 1.364 . S
C1621 C1622 1.416 1_545 S
C1621 C1624 1.499 1_545 S
C1622 H1602 0.950 . S
C1622 C1621 1.416 1_565 S
C1622 C1623 1.374 . S
C1623 H1603 0.950 . S
C1623 C1619 1.385 1_565 S
C1623 C1622 1.374 . S
C1624 C1621 1.499 1_565 S
C1624 C1625 1.373 1_565 S
C1624 C1626 1.389 . S
C1625 H1604 0.950 . S
C1625 C1624 1.373 1_545 S
C1625 C1641 1.377 . S
C1626 C1624 1.389 . S
C1626 C1627 1.524 . S
C1626 C1640 1.377 . S
C1627 C1626 1.524 . S
C1627 C1628 1.397 . S
C1627 C1632 1.363 . S
C1628 H1605 0.950 . S
C1628 C1627 1.397 . S
C1628 C1629 1.334 . S
C1629 H1606 0.950 . S
C1629 C1628 1.334 . S
C1629 C1630 1.287 . S
C1630 C1629 1.287 . S
C1630 C1631 1.524 . S
C1630 H1649 0.913 . S
C1631 H1607 0.950 . S
C1631 C1630 1.524 . S
C1631 C1632 1.415 . S
C1632 H1608 0.950 1_565 S
C1632 C1627 1.363 . S
C1632 C1631 1.415 . S
C1633 H1609 0.951 . S
C1633 C1634 1.366 . S
C1633 C1635 1.388 . S
C1634 C1633 1.366 . S
C1634 C1638 1.385 1_565 S
C1635 H1610 0.951 . S
C1635 C1633 1.388 . S
C1635 C1636 1.366 . S
C1636 C1635 1.366 . S
C1636 C1637 1.414 1_565 S
C1636 C1639 1.499 . S
C1637 H1611 0.950 . S
C1637 C1636 1.414 1_545 S
C1637 C1638 1.374 . S
C1638 H1612 0.950 . S
C1638 C1634 1.385 1_545 S
C1638 C1637 1.374 . S
C1639 C1636 1.499 . S
C1639 C1640 1.377 . S
C1639 C1641 1.386 1_565 S
C1640 H1613 0.950 . S
C1640 C1626 1.377 . S
C1640 C1639 1.377 . S
C1641 C1625 1.377 . S
C1641 C1639 1.386 1_545 S
C1641 C1642 1.524 . S
C1642 C1641 1.524 . S
C1642 C1643 1.397 . S
C1642 C1647 1.363 . S
C1643 H1614 0.950 . S
C1643 C1642 1.397 . S
C1643 C1644 1.334 . S
C1644 H1615 0.950 . S
C1644 C1643 1.334 . S
C1644 C1645 1.287 . S
C1645 C1644 1.287 . S
C1645 C1646 1.524 . S
C1645 H1648 0.999 . S
C1646 H1616 0.950 . S
C1646 C1645 1.524 . S
C1646 C1647 1.415 . S
C1647 H1617 0.950 1_545 S
C1647 C1642 1.363 . S
C1647 C1646 1.415 . S
H1648 C1645 0.999 . S
H1649 C1630 0.913 . S
H1650 C1668 0.951 . S
H1651 C1670 0.951 . S
H1652 C1672 0.950 . S
H1653 C1673 0.950 . S
H1654 C1675 0.950 . S
H1655 C1678 0.950 . S
H1656 C1679 0.950 . S
H1657 C1681 0.950 . S
H1658 C1682 0.950 . S
H1659 C1683 0.951 . S
H1660 C1685 0.951 . S
H1661 C1687 0.950 . S
H1662 C1688 0.950 . S
H1663 C1690 0.950 . S
H1664 C1693 0.950 . S
H1665 C1694 0.950 . S
H1666 C1696 0.950 . S
H1667 C1697 0.950 . S
C1668 H1650 0.951 . S
C1668 C1669 1.366 . S
C1668 C1670 1.388 . S
C1669 C1668 1.366 . S
C1669 C1673 1.385 . S
C1670 H1651 0.951 . S
C1670 C1668 1.388 . S
C1670 C1671 1.366 . S
C1671 C1670 1.366 . S
C1671 C1672 1.414 . S
C1671 C1674 1.499 . S
C1672 H1652 0.950 . S
C1672 C1671 1.414 . S
C1672 C1673 1.374 . S
C1673 H1653 0.950 . S
C1673 C1669 1.385 . S
C1673 C1672 1.374 . S
C1674 C1671 1.499 . S
C1674 C1675 1.373 . S
C1674 C1676 1.389 . S
C1675 H1654 0.950 . S
C1675 C1674 1.373 . S
C1675 C1691 1.377 . S
C1676 C1674 1.389 . S
C1676 C1677 1.524 . S
C1676 C1690 1.377 . S
C1677 C1676 1.524 . S
C1677 C1678 1.397 . S
C1677 C1682 1.363 . S
C1678 H1655 0.950 . S
C1678 C1677 1.397 . S
C1678 C1679 1.334 . S
C1679 H1656 0.950 . S
C1679 C1678 1.334 . S
C1679 C1680 1.287 . S
C1680 C1679 1.287 . S
C1680 C1681 1.524 . S
C1680 H1699 0.913 . S
C1681 H1657 0.950 . S
C1681 C1680 1.524 . S
C1681 C1682 1.415 . S
C1682 H1658 0.950 . S
C1682 C1677 1.363 . S
C1682 C1681 1.415 . S
C1683 H1659 0.951 . S
C1683 C1684 1.366 . S
C1683 C1685 1.388 . S
C1684 C1683 1.366 . S
C1684 C1688 1.385 . S
C1685 H1660 0.951 . S
C1685 C1683 1.388 . S
C1685 C1686 1.366 . S
C1686 C1685 1.366 . S
C1686 C1687 1.414 . S
C1686 C1689 1.499 . S
C1687 H1661 0.950 . S
C1687 C1686 1.414 . S
C1687 C1688 1.374 . S
C1688 H1662 0.950 . S
C1688 C1684 1.385 . S
C1688 C1687 1.374 . S
C1689 C1686 1.499 . S
C1689 C1690 1.373 . S
C1689 C1691 1.389 . S
C1690 H1663 0.950 . S
C1690 C1676 1.377 . S
C1690 C1689 1.373 . S
C1691 C1675 1.377 . S
C1691 C1689 1.389 . S
C1691 C1692 1.524 . S
C1692 C1691 1.524 . S
C1692 C1693 1.397 . S
C1692 C1697 1.363 . S
C1693 H1664 0.950 . S
C1693 C1692 1.397 . S
C1693 C1694 1.334 . S
C1694 H1665 0.950 . S
C1694 C1693 1.334 . S
C1694 C1695 1.287 . S
C1695 C1694 1.287 . S
C1695 C1696 1.524 . S
C1695 H1698 0.999 . S
C1696 H1666 0.950 . S
C1696 C1695 1.524 . S
C1696 C1697 1.415 . S
C1697 H1667 0.950 . S
C1697 C1692 1.363 . S
C1697 C1696 1.415 . S
H1698 C1695 0.999 . S
H1699 C1680 0.913 . S
H1700 C1718 0.951 . S
H1701 C1720 0.951 . S
H1702 C1722 0.950 1_565 S
H1703 C1723 0.948 1_565 S
H1704 C1725 0.950 . S
H1705 C1728 0.950 . S
H1706 C1729 0.950 . S
H1707 C1731 0.950 . S
H1708 C1732 0.950 . S
H1709 C1733 0.951 . S
H1710 C1735 0.951 . S
H1711 C1737 0.950 . S
H1712 C1738 0.950 . S
H1713 C1740 0.950 . S
H1714 C1743 0.950 . S
H1715 C1744 0.950 . S
H1716 C1746 0.950 . S
H1717 C1747 0.950 . S
C1718 H1700 0.951 . S
C1718 C1719 1.366 . S
C1718 C1720 1.388 . S
C1719 C1718 1.366 . S
C1719 C1723 1.386 . S
C1720 H1701 0.951 . S
C1720 C1718 1.388 . S
C1720 C1721 1.366 . S
C1721 C1720 1.366 . S
C1721 C1722 1.414 . S
C1721 C1724 1.499 . S
C1722 H1702 0.950 1_545 S
C1722 C1721 1.414 . S
C1722 C1723 1.374 . S
C1723 H1703 0.948 1_545 S
C1723 C1719 1.386 . S
C1723 C1722 1.374 . S
C1724 C1721 1.499 . S
C1724 C1725 1.373 1_545 S
C1724 C1726 1.389 . S
C1725 H1704 0.950 . S
C1725 C1724 1.373 1_565 S
C1725 C1741 1.377 . S
C1726 C1724 1.389 . S
C1726 C1727 1.524 . S
C1726 C1740 1.377 . S
C1727 C1726 1.524 . S
C1727 C1728 1.397 . S
C1727 C1732 1.363 . S
C1728 H1705 0.950 . S
C1728 C1727 1.397 . S
C1728 C1729 1.334 . S
C1729 H1706 0.950 . S
C1729 C1728 1.334 . S
C1729 C1730 1.287 . S
C1730 C1729 1.287 . S
C1730 C1731 1.524 . S
C1730 H1749 0.913 . S
C1731 H1707 0.950 . S
C1731 C1730 1.524 . S
C1731 C1732 1.415 . S
C1732 H1708 0.950 . S
C1732 C1727 1.363 . S
C1732 C1731 1.415 . S
C1733 H1709 0.951 . S
C1733 C1734 1.366 . S
C1733 C1735 1.388 . S
C1734 C1733 1.366 . S
C1734 C1738 1.385 . S
C1735 H1710 0.951 . S
C1735 C1733 1.388 . S
C1735 C1736 1.366 . S
C1736 C1735 1.366 . S
C1736 C1737 1.414 . S
C1736 C1739 1.499 . S
C1737 H1711 0.950 . S
C1737 C1736 1.414 . S
C1737 C1738 1.374 . S
C1738 H1712 0.950 . S
C1738 C1734 1.385 . S
C1738 C1737 1.374 . S
C1739 C1736 1.499 . S
C1739 C1740 1.373 . S
C1739 C1741 1.389 1_545 S
C1740 H1713 0.950 . S
C1740 C1726 1.377 . S
C1740 C1739 1.373 . S
C1741 C1725 1.377 . S
C1741 C1739 1.389 1_565 S
C1741 C1742 1.524 . S
C1742 C1741 1.524 . S
C1742 C1743 1.397 . S
C1742 C1747 1.363 . S
C1743 H1714 0.950 . S
C1743 C1742 1.397 . S
C1743 C1744 1.334 . S
C1744 H1715 0.950 . S
C1744 C1743 1.334 . S
C1744 C1745 1.287 . S
C1745 C1744 1.287 . S
C1745 C1746 1.524 . S
C1745 H1748 0.999 . S
C1746 H1716 0.950 . S
C1746 C1745 1.524 . S
C1746 C1747 1.415 . S
C1747 H1717 0.950 . S
C1747 C1742 1.363 . S
C1747 C1746 1.415 . S
H1748 C1745 0.999 . S
H1749 C1730 0.913 . S
H1750 C1768 0.951 . S
H1751 C1770 0.951 . S
H1752 C1772 0.950 . S
H1753 C1773 0.950 . S
H1754 C1775 0.950 . S
H1755 C1778 0.950 . S
H1756 C1779 0.950 . S
H1757 C1781 0.950 . S
H1758 C1782 0.950 . S
H1759 C1783 0.951 . S
H1760 C1785 0.951 . S
H1761 C1787 0.950 . S
H1762 C1788 0.950 . S
H1763 C1790 0.950 . S
H1764 C1793 0.950 . S
H1765 C1794 0.950 . S
H1766 C1796 0.950 . S
H1767 C1797 0.950 . S
C1768 H1750 0.951 . S
C1768 C1769 1.366 . S
C1768 C1770 1.388 . S
C1769 C1768 1.366 . S
C1769 C1773 1.385 . S
C1770 H1751 0.951 . S
C1770 C1768 1.388 . S
C1770 C1771 1.366 . S
C1771 C1770 1.366 . S
C1771 C1772 1.414 . S
C1771 C1774 1.499 . S
C1772 H1752 0.950 . S
C1772 C1771 1.414 . S
C1772 C1773 1.374 . S
C1773 H1753 0.950 . S
C1773 C1769 1.385 . S
C1773 C1772 1.374 . S
C1774 C1771 1.499 . S
C1774 C1775 1.373 . S
C1774 C1776 1.389 . S
C1775 H1754 0.950 . S
C1775 C1774 1.373 . S
C1775 C1791 1.377 . S
C1776 C1774 1.389 . S
C1776 C1777 1.524 . S
C1776 C1790 1.377 . S
C1777 C1776 1.524 . S
C1777 C1778 1.397 . S
C1777 C1782 1.363 . S
C1778 H1755 0.950 . S
C1778 C1777 1.397 . S
C1778 C1779 1.334 . S
C1779 H1756 0.950 . S
C1779 C1778 1.334 . S
C1779 C1780 1.287 . S
C1780 C1779 1.287 . S
C1780 C1781 1.524 . S
C1780 H1799 0.913 . S
C1781 H1757 0.950 . S
C1781 C1780 1.524 . S
C1781 C1782 1.415 . S
C1782 H1758 0.950 . S
C1782 C1777 1.363 . S
C1782 C1781 1.415 . S
C1783 H1759 0.951 . S
C1783 C1784 1.366 . S
C1783 C1785 1.388 . S
C1784 C1783 1.366 . S
C1784 C1788 1.385 . S
C1785 H1760 0.951 . S
C1785 C1783 1.388 . S
C1785 C1786 1.366 . S
C1786 C1785 1.366 . S
C1786 C1787 1.414 . S
C1786 C1789 1.499 . S
C1787 H1761 0.950 . S
C1787 C1786 1.414 . S
C1787 C1788 1.374 . S
C1788 H1762 0.950 . S
C1788 C1784 1.385 . S
C1788 C1787 1.374 . S
C1789 C1786 1.499 . S
C1789 C1790 1.373 . S
C1789 C1791 1.389 . S
C1790 H1763 0.950 . S
C1790 C1776 1.377 . S
C1790 C1789 1.373 . S
C1791 C1775 1.377 . S
C1791 C1789 1.389 . S
C1791 C1792 1.524 . S
C1792 C1791 1.524 . S
C1792 C1793 1.397 . S
C1792 C1797 1.363 . S
C1793 H1764 0.950 . S
C1793 C1792 1.397 . S
C1793 C1794 1.334 . S
C1794 H1765 0.950 . S
C1794 C1793 1.334 . S
C1794 C1795 1.287 . S
C1795 C1794 1.287 . S
C1795 C1796 1.524 . S
C1795 H1798 0.999 . S
C1796 H1766 0.950 . S
C1796 C1795 1.524 . S
C1796 C1797 1.415 . S
C1797 H1767 0.950 . S
C1797 C1792 1.363 . S
C1797 C1796 1.415 . S
H1798 C1795 0.999 . S
H1799 C1780 0.913 . S
H1800 C1818 0.952 . S
H1801 C1820 0.955 . S
H1802 C1822 0.950 . S
H1803 C1823 0.950 . S
H1804 C1825 0.950 . S
H1805 C1828 0.950 . S
H1806 C1829 0.950 . S
H1807 C1831 0.950 . S
H1808 C1832 0.950 . S
H1809 C1833 0.951 . S
H1810 C1835 0.951 . S
H1811 C1837 0.950 . S
H1812 C1838 0.950 . S
H1813 C1840 0.950 . S
H1814 C1843 0.950 . S
H1815 C1844 0.950 . S
H1816 C1846 0.950 . S
H1817 C1847 0.950 . S
C1818 H1800 0.952 . S
C1818 C1819 1.366 . S
C1818 C1820 1.388 . S
C1819 C1818 1.366 . S
C1819 C1823 1.385 . S
C1820 H1801 0.955 . S
C1820 C1818 1.388 . S
C1820 C1821 1.366 . S
C1821 C1820 1.366 . S
C1821 C1822 1.414 . S
C1821 C1824 1.499 . S
C1822 H1802 0.950 . S
C1822 C1821 1.414 . S
C1822 C1823 1.374 . S
C1823 H1803 0.950 . S
C1823 C1819 1.385 . S
C1823 C1822 1.374 . S
C1824 C1821 1.499 . S
C1824 C1825 1.373 . S
C1824 C1826 1.389 1_545 S
C1825 H1804 0.950 . S
C1825 C1824 1.373 . S
C1825 C1841 1.377 . S
C1826 C1824 1.389 1_565 S
C1826 C1827 1.524 . S
C1826 C1840 1.377 . S
C1827 C1826 1.524 . S
C1827 C1828 1.397 . S
C1827 C1832 1.363 . S
C1828 H1805 0.950 . S
C1828 C1827 1.397 . S
C1828 C1829 1.334 . S
C1829 H1806 0.950 . S
C1829 C1828 1.334 . S
C1829 C1830 1.287 . S
C1830 C1829 1.287 . S
C1830 C1831 1.524 . S
C1830 H1849 0.913 . S
C1831 H1807 0.950 . S
C1831 C1830 1.524 . S
C1831 C1832 1.415 . S
C1832 H1808 0.950 . S
C1832 C1827 1.363 . S
C1832 C1831 1.415 . S
C1833 H1809 0.951 . S
C1833 C1834 1.366 . S
C1833 C1835 1.388 . S
C1834 C1833 1.366 . S
C1834 C1838 1.385 . S
C1835 H1810 0.951 . S
C1835 C1833 1.388 . S
C1835 C1836 1.366 . S
C1836 C1835 1.366 . S
C1836 C1837 1.414 . S
C1836 C1839 1.499 . S
C1837 H1811 0.950 . S
C1837 C1836 1.414 . S
C1837 C1838 1.374 . S
C1838 H1812 0.950 . S
C1838 C1834 1.385 . S
C1838 C1837 1.374 . S
C1839 C1836 1.499 . S
C1839 C1840 1.373 1_545 S
C1839 C1841 1.389 . S
C1840 H1813 0.950 . S
C1840 C1826 1.377 . S
C1840 C1839 1.373 1_565 S
C1841 C1825 1.377 . S
C1841 C1839 1.389 . S
C1841 C1842 1.524 . S
C1842 C1841 1.524 . S
C1842 C1843 1.397 . S
C1842 C1847 1.363 . S
C1843 H1814 0.950 . S
C1843 C1842 1.397 . S
C1843 C1844 1.334 . S
C1844 H1815 0.950 . S
C1844 C1843 1.334 . S
C1844 C1845 1.287 . S
C1845 C1844 1.287 . S
C1845 C1846 1.524 . S
C1845 H1848 0.999 . S
C1846 H1816 0.950 . S
C1846 C1845 1.524 . S
C1846 C1847 1.415 . S
C1847 H1817 0.950 . S
C1847 C1842 1.363 . S
C1847 C1846 1.415 . S
H1848 C1845 0.999 . S
H1849 C1830 0.913 . S
H1850 C1868 0.951 . S
H1851 C1870 0.951 . S
H1852 C1872 0.950 . S
H1853 C1873 0.950 . S
H1854 C1875 0.950 . S
H1855 C1878 0.950 . S
H1856 C1879 0.950 . S
H1857 C1881 0.950 . S
H1858 C1882 0.950 . S
H1859 C1883 0.951 . S
H1860 C1885 0.951 . S
H1861 C1887 0.950 . S
H1862 C1888 0.950 . S
H1863 C1890 0.950 . S
H1864 C1893 0.950 . S
H1865 C1894 0.950 . S
H1866 C1896 0.950 . S
H1867 C1897 0.950 . S
C1868 H1850 0.951 . S
C1868 C1869 1.366 . S
C1868 C1870 1.388 . S
C1869 C1868 1.366 . S
C1869 C1873 1.385 . S
C1870 H1851 0.951 . S
C1870 C1868 1.388 . S
C1870 C1871 1.366 . S
C1871 C1870 1.366 . S
C1871 C1872 1.414 . S
C1871 C1874 1.499 . S
C1872 H1852 0.950 . S
C1872 C1871 1.414 . S
C1872 C1873 1.374 . S
C1873 H1853 0.950 . S
C1873 C1869 1.385 . S
C1873 C1872 1.374 . S
C1874 C1871 1.499 . S
C1874 C1875 1.373 . S
C1874 C1876 1.389 . S
C1875 H1854 0.950 . S
C1875 C1874 1.373 . S
C1875 C1891 1.377 . S
C1876 C1874 1.389 . S
C1876 C1877 1.524 . S
C1876 C1890 1.377 . S
C1877 C1876 1.524 . S
C1877 C1878 1.397 . S
C1877 C1882 1.363 . S
C1878 H1855 0.950 . S
C1878 C1877 1.397 . S
C1878 C1879 1.334 . S
C1879 H1856 0.950 . S
C1879 C1878 1.334 . S
C1879 C1880 1.287 . S
C1880 C1879 1.287 . S
C1880 C1881 1.524 . S
C1880 H1899 0.913 . S
C1881 H1857 0.950 . S
C1881 C1880 1.524 . S
C1881 C1882 1.415 . S
C1882 H1858 0.950 . S
C1882 C1877 1.363 . S
C1882 C1881 1.415 . S
C1883 H1859 0.951 . S
C1883 C1884 1.366 . S
C1883 C1885 1.388 . S
C1884 C1883 1.366 . S
C1884 C1888 1.385 . S
C1885 H1860 0.951 . S
C1885 C1883 1.388 . S
C1885 C1886 1.366 . S
C1886 C1885 1.366 . S
C1886 C1887 1.414 . S
C1886 C1889 1.499 . S
C1887 H1861 0.950 . S
C1887 C1886 1.414 . S
C1887 C1888 1.374 . S
C1888 H1862 0.950 . S
C1888 C1884 1.385 . S
C1888 C1887 1.374 . S
C1889 C1886 1.499 . S
C1889 C1890 1.373 . S
C1889 C1891 1.389 . S
C1890 H1863 0.950 . S
C1890 C1876 1.377 . S
C1890 C1889 1.373 . S
C1891 C1875 1.377 . S
C1891 C1889 1.389 . S
C1891 C1892 1.524 . S
C1892 C1891 1.524 . S
C1892 C1893 1.397 . S
C1892 C1897 1.363 . S
C1893 H1864 0.950 . S
C1893 C1892 1.397 . S
C1893 C1894 1.334 . S
C1894 H1865 0.950 . S
C1894 C1893 1.334 . S
C1894 C1895 1.287 . S
C1895 C1894 1.287 . S
C1895 C1896 1.524 . S
C1895 H1898 0.999 . S
C1896 H1866 0.950 . S
C1896 C1895 1.524 . S
C1896 C1897 1.415 . S
C1897 H1867 0.950 . S
C1897 C1892 1.363 . S
C1897 C1896 1.415 . S
H1898 C1895 0.999 . S
H1899 C1880 0.913 . S
H1900 C1918 0.951 . S
H1901 C1920 0.951 . S
H1902 C1922 0.950 . S
H1903 C1923 0.950 . S
H1904 C1925 0.950 . S
H1905 C1928 0.950 . S
H1906 C1929 0.950 . S
H1907 C1931 0.950 . S
H1908 C1932 0.950 . S
H1909 C1933 0.951 . S
H1910 C1935 0.958 . S
H1911 C1937 0.954 . S
H1912 C1938 0.950 . S
H1913 C1940 0.950 . S
H1914 C1943 0.950 . S
H1915 C1944 0.950 . S
H1916 C1946 0.950 . S
H1917 C1947 0.950 . S
C1918 H1900 0.951 . S
C1918 C1919 1.366 . S
C1918 C1920 1.388 . S
C1919 C1918 1.366 . S
C1919 C1923 1.385 . S
C1920 H1901 0.951 . S
C1920 C1918 1.388 . S
C1920 C1921 1.366 . S
C1921 C1920 1.366 . S
C1921 C1922 1.414 . S
C1921 C1924 1.499 . S
C1922 H1902 0.950 . S
C1922 C1921 1.414 . S
C1922 C1923 1.374 . S
C1923 H1903 0.950 . S
C1923 C1919 1.385 . S
C1923 C1922 1.374 . S
C1924 C1921 1.499 . S
C1924 C1925 1.373 . S
C1924 C1926 1.389 1_545 S
C1925 H1904 0.950 . S
C1925 C1924 1.373 . S
C1925 C1941 1.377 . S
C1926 C1924 1.389 1_565 S
C1926 C1927 1.524 . S
C1926 C1940 1.377 . S
C1927 C1926 1.524 . S
C1927 C1928 1.397 . S
C1927 C1932 1.363 . S
C1928 H1905 0.950 . S
C1928 C1927 1.397 . S
C1928 C1929 1.334 . S
C1929 H1906 0.950 . S
C1929 C1928 1.334 . S
C1929 C1930 1.287 . S
C1930 C1929 1.287 . S
C1930 C1931 1.524 . S
C1930 H1949 0.913 . S
C1931 H1907 0.950 . S
C1931 C1930 1.524 . S
C1931 C1932 1.415 . S
C1932 H1908 0.950 . S
C1932 C1927 1.363 . S
C1932 C1931 1.415 . S
C1933 H1909 0.951 . S
C1933 C1934 1.368 . S
C1933 C1935 1.384 1_565 S
C1934 C1933 1.368 . S
C1934 C1938 1.385 . S
C1935 H1910 0.958 . S
C1935 C1933 1.384 1_545 S
C1935 C1936 1.367 . S
C1936 C1935 1.367 . S
C1936 C1937 1.409 1_545 S
C1936 C1939 1.499 . S
C1937 H1911 0.954 . S
C1937 C1936 1.409 1_565 S
C1937 C1938 1.379 . S
C1938 H1912 0.950 . S
C1938 C1934 1.385 . S
C1938 C1937 1.379 . S
C1939 C1936 1.499 . S
C1939 C1940 1.373 1_545 S
C1939 C1941 1.389 . S
C1940 H1913 0.950 . S
C1940 C1926 1.377 . S
C1940 C1939 1.373 1_565 S
C1941 C1925 1.377 . S
C1941 C1939 1.389 . S
C1941 C1942 1.524 . S
C1942 C1941 1.524 . S
C1942 C1943 1.397 . S
C1942 C1947 1.363 . S
C1943 H1914 0.950 . S
C1943 C1942 1.397 . S
C1943 C1944 1.334 . S
C1944 H1915 0.950 . S
C1944 C1943 1.334 . S
C1944 C1945 1.287 . S
C1945 C1944 1.287 . S
C1945 C1946 1.524 . S
C1945 H1948 0.999 . S
C1946 H1916 0.950 . S
C1946 C1945 1.524 . S
C1946 C1947 1.415 . S
C1947 H1917 0.950 . S
C1947 C1942 1.363 . S
C1947 C1946 1.415 . S
H1948 C1945 0.999 . S
H1949 C1930 0.913 . S
H1950 C1968 0.951 . S
H1951 C1970 0.951 . S
H1952 C1972 0.950 . S
H1953 C1973 0.950 . S
H1954 C1975 0.950 . S
H1955 C1978 0.950 . S
H1956 C1979 0.950 . S
H1957 C1981 0.950 . S
H1958 C1982 0.950 . S
H1959 C1983 0.951 . S
H1960 C1985 0.951 . S
H1961 C1987 0.950 . S
H1962 C1988 0.950 . S
H1963 C1990 0.950 . S
H1964 C1993 0.950 . S
H1965 C1994 0.950 . S
H1966 C1996 0.950 . S
H1967 C1997 0.950 . S
C1968 H1950 0.951 . S
C1968 C1969 1.366 . S
C1968 C1970 1.388 . S
C1969 C1968 1.366 . S
C1969 C1973 1.385 . S
C1970 H1951 0.951 . S
C1970 C1968 1.388 . S
C1970 C1971 1.366 . S
C1971 C1970 1.366 . S
C1971 C1972 1.414 . S
C1971 C1974 1.499 . S
C1972 H1952 0.950 . S
C1972 C1971 1.414 . S
C1972 C1973 1.374 . S
C1973 H1953 0.950 . S
C1973 C1969 1.385 . S
C1973 C1972 1.374 . S
C1974 C1971 1.499 . S
C1974 C1975 1.373 . S
C1974 C1976 1.389 . S
C1975 H1954 0.950 . S
C1975 C1974 1.373 . S
C1975 C1991 1.377 . S
C1976 C1974 1.389 . S
C1976 C1977 1.524 . S
C1976 C1990 1.377 . S
C1977 C1976 1.524 . S
C1977 C1978 1.397 . S
C1977 C1982 1.363 . S
C1978 H1955 0.950 . S
C1978 C1977 1.397 . S
C1978 C1979 1.334 . S
C1979 H1956 0.950 . S
C1979 C1978 1.334 . S
C1979 C1980 1.287 . S
C1980 C1979 1.287 . S
C1980 C1981 1.524 . S
C1980 H1999 0.913 . S
C1981 H1957 0.950 . S
C1981 C1980 1.524 . S
C1981 C1982 1.415 . S
C1982 H1958 0.950 . S
C1982 C1977 1.363 . S
C1982 C1981 1.415 . S
C1983 H1959 0.951 . S
C1983 C1984 1.366 . S
C1983 C1985 1.388 . S
C1984 C1983 1.366 . S
C1984 C1988 1.385 . S
C1985 H1960 0.951 . S
C1985 C1983 1.388 . S
C1985 C1986 1.366 . S
C1986 C1985 1.366 . S
C1986 C1987 1.414 . S
C1986 C1989 1.499 . S
C1987 H1961 0.950 . S
C1987 C1986 1.414 . S
C1987 C1988 1.374 . S
C1988 H1962 0.950 . S
C1988 C1984 1.385 . S
C1988 C1987 1.374 . S
C1989 C1986 1.499 . S
C1989 C1990 1.373 . S
C1989 C1991 1.389 . S
C1990 H1963 0.950 . S
C1990 C1976 1.377 . S
C1990 C1989 1.373 . S
C1991 C1975 1.377 . S
C1991 C1989 1.389 . S
C1991 C1992 1.524 . S
C1992 C1991 1.524 . S
C1992 C1993 1.397 . S
C1992 C1997 1.363 . S
C1993 H1964 0.950 . S
C1993 C1992 1.397 . S
C1993 C1994 1.334 . S
C1994 H1965 0.950 . S
C1994 C1993 1.334 . S
C1994 C1995 1.287 . S
C1995 C1994 1.287 . S
C1995 C1996 1.524 . S
C1995 H1998 0.999 . S
C1996 H1966 0.950 . S
C1996 C1995 1.524 . S
C1996 C1997 1.415 . S
C1997 H1967 0.950 . S
C1997 C1992 1.363 . S
C1997 C1996 1.415 . S
H1998 C1995 0.999 . S
H1999 C1980 0.913 . S
H2000 C2018 0.951 . S
H2001 C2020 0.951 . S
H2002 C2022 0.950 . S
H2003 C2023 0.950 . S
H2004 C2025 0.950 . S
H2005 C2028 0.950 . S
H2006 C2029 0.950 . S
H2007 C2031 0.950 . S
H2008 C2032 0.950 . S
H2009 C2033 0.954 . S
H2010 C2035 0.951 . S
H2011 C2037 0.950 1_556 S
H2012 C2038 0.953 . S
H2013 C2040 0.950 . S
H2014 C2043 0.950 . S
H2015 C2044 0.950 . S
H2016 C2046 0.950 . S
H2017 C2047 0.950 . S
C2018 H2000 0.951 . S
C2018 C2019 1.366 . S
C2018 C2020 1.388 . S
C2019 C2018 1.366 . S
C2019 C2023 1.385 . S
C2020 H2001 0.951 . S
C2020 C2018 1.388 . S
C2020 C2021 1.366 . S
C2021 C2020 1.366 . S
C2021 C2022 1.414 . S
C2021 C2024 1.499 . S
C2022 H2002 0.950 . S
C2022 C2021 1.414 . S
C2022 C2023 1.374 . S
C2023 H2003 0.950 . S
C2023 C2019 1.385 . S
C2023 C2022 1.374 . S
C2024 C2021 1.499 . S
C2024 C2025 1.373 . S
C2024 C2026 1.389 1_554 S
C2025 H2004 0.950 . S
C2025 C2024 1.373 . S
C2025 C2041 1.377 . S
C2026 C2024 1.389 1_556 S
C2026 C2027 1.524 . S
C2026 C2040 1.377 . S
C2027 C2026 1.524 . S
C2027 C2028 1.397 . S
C2027 C2032 1.363 . S
C2028 H2005 0.950 . S
C2028 C2027 1.397 . S
C2028 C2029 1.334 . S
C2029 H2006 0.950 . S
C2029 C2028 1.334 . S
C2029 C2030 1.287 . S
C2030 C2029 1.287 . S
C2030 C2031 1.524 . S
C2030 H2049 0.913 . S
C2031 H2007 0.950 . S
C2031 C2030 1.524 . S
C2031 C2032 1.415 . S
C2032 H2008 0.950 . S
C2032 C2027 1.363 . S
C2032 C2031 1.415 . S
C2033 H2009 0.954 . S
C2033 C2034 1.363 1_554 S
C2033 C2035 1.392 . S
C2034 C2033 1.363 1_556 S
C2034 C2038 1.384 . S
C2035 H2010 0.951 . S
C2035 C2033 1.392 . S
C2035 C2036 1.366 . S
C2036 C2035 1.366 . S
C2036 C2037 1.414 . S
C2036 C2039 1.499 . S
C2037 H2011 0.950 1_554 S
C2037 C2036 1.414 . S
C2037 C2038 1.373 1_554 S
C2038 H2012 0.953 . S
C2038 C2034 1.384 . S
C2038 C2037 1.373 1_556 S
C2039 C2036 1.499 . S
C2039 C2040 1.373 1_554 S
C2039 C2041 1.389 . S
C2040 H2013 0.950 . S
C2040 C2026 1.377 . S
C2040 C2039 1.373 1_556 S
C2041 C2025 1.377 . S
C2041 C2039 1.389 . S
C2041 C2042 1.524 . S
C2042 C2041 1.524 . S
C2042 C2043 1.397 . S
C2042 C2047 1.363 . S
C2043 H2014 0.950 . S
C2043 C2042 1.397 . S
C2043 C2044 1.334 . S
C2044 H2015 0.950 . S
C2044 C2043 1.334 . S
C2044 C2045 1.287 . S
C2045 C2044 1.287 . S
C2045 C2046 1.524 . S
C2045 H2048 0.999 . S
C2046 H2016 0.950 . S
C2046 C2045 1.524 . S
C2046 C2047 1.415 . S
C2047 H2017 0.950 . S
C2047 C2042 1.363 . S
C2047 C2046 1.415 . S
H2048 C2045 0.999 . S
H2049 C2030 0.913 . S
H2050 C2068 0.951 . S
H2051 C2070 0.951 . S
H2052 C2072 0.943 1_556 S
H2053 C2073 0.949 . S
H2054 C2075 0.950 . S
H2055 C2078 0.950 . S
H2056 C2079 0.950 . S
H2057 C2081 0.950 . S
H2058 C2082 0.950 . S
H2059 C2083 0.951 . S
H2060 C2085 0.951 . S
H2061 C2087 0.950 . S
H2062 C2088 0.950 . S
H2063 C2090 0.950 . S
H2064 C2093 0.950 . S
H2065 C2094 0.950 . S
H2066 C2096 0.950 . S
H2067 C2097 0.950 . S
C2068 H2050 0.951 . S
C2068 C2069 1.366 . S
C2068 C2070 1.388 . S
C2069 C2068 1.366 . S
C2069 C2073 1.385 1_554 S
C2070 H2051 0.951 . S
C2070 C2068 1.388 . S
C2070 C2071 1.366 . S
C2071 C2070 1.366 . S
C2071 C2072 1.414 . S
C2071 C2074 1.499 . S
C2072 H2052 0.943 1_554 S
C2072 C2071 1.414 . S
C2072 C2073 1.374 1_554 S
C2073 H2053 0.949 . S
C2073 C2069 1.385 1_556 S
C2073 C2072 1.374 1_556 S
C2074 C2071 1.499 . S
C2074 C2075 1.373 1_554 S
C2074 C2076 1.389 . S
C2075 H2054 0.950 . S
C2075 C2074 1.373 1_556 S
C2075 C2091 1.377 . S
C2076 C2074 1.389 . S
C2076 C2077 1.524 . S
C2076 C2090 1.377 . S
C2077 C2076 1.524 . S
C2077 C2078 1.397 . S
C2077 C2082 1.363 . S
C2078 H2055 0.950 . S
C2078 C2077 1.397 . S
C2078 C2079 1.334 . S
C2079 H2056 0.950 . S
C2079 C2078 1.334 . S
C2079 C2080 1.287 . S
C2080 C2079 1.287 . S
C2080 C2081 1.524 . S
C2080 H2099 0.913 . S
C2081 H2057 0.950 . S
C2081 C2080 1.524 . S
C2081 C2082 1.415 . S
C2082 H2058 0.950 . S
C2082 C2077 1.363 . S
C2082 C2081 1.415 . S
C2083 H2059 0.951 . S
C2083 C2084 1.366 . S
C2083 C2085 1.388 . S
C2084 C2083 1.366 . S
C2084 C2088 1.385 . S
C2085 H2060 0.951 . S
C2085 C2083 1.388 . S
C2085 C2086 1.366 . S
C2086 C2085 1.366 . S
C2086 C2087 1.414 . S
C2086 C2089 1.499 . S
C2087 H2061 0.950 . S
C2087 C2086 1.414 . S
C2087 C2088 1.374 . S
C2088 H2062 0.950 . S
C2088 C2084 1.385 . S
C2088 C2087 1.374 . S
C2089 C2086 1.499 . S
C2089 C2090 1.373 . S
C2089 C2091 1.389 1_554 S
C2090 H2063 0.950 . S
C2090 C2076 1.377 . S
C2090 C2089 1.373 . S
C2091 C2075 1.377 . S
C2091 C2089 1.389 1_556 S
C2091 C2092 1.524 . S
C2092 C2091 1.524 . S
C2092 C2093 1.397 . S
C2092 C2097 1.363 . S
C2093 H2064 0.950 . S
C2093 C2092 1.397 . S
C2093 C2094 1.334 . S
C2094 H2065 0.950 . S
C2094 C2093 1.334 . S
C2094 C2095 1.287 . S
C2095 C2094 1.287 . S
C2095 C2096 1.524 . S
C2095 H2098 0.999 . S
C2096 H2066 0.950 . S
C2096 C2095 1.524 . S
C2096 C2097 1.415 . S
C2097 H2067 0.950 . S
C2097 C2092 1.363 . S
C2097 C2096 1.415 . S
H2098 C2095 0.999 . S
H2099 C2080 0.913 . S
H2100 C2118 0.951 . S
H2101 C2120 0.951 . S
H2102 C2122 0.950 . S
H2103 C2123 0.950 . S
H2104 C2125 0.950 . S
H2105 C2128 0.950 . S
H2106 C2129 0.950 . S
H2107 C2131 0.950 . S
H2108 C2132 0.950 . S
H2109 C2133 0.951 . S
H2110 C2135 0.951 . S
H2111 C2137 0.950 . S
H2112 C2138 0.950 . S
H2113 C2140 0.950 . S
H2114 C2143 0.950 . S
H2115 C2144 0.950 . S
H2116 C2146 0.950 . S
H2117 C2147 0.950 . S
C2118 H2100 0.951 . S
C2118 C2119 1.366 . S
C2118 C2120 1.388 . S
C2119 C2118 1.366 . S
C2119 C2123 1.385 . S
C2120 H2101 0.951 . S
C2120 C2118 1.388 . S
C2120 C2121 1.366 . S
C2121 C2120 1.366 . S
C2121 C2122 1.414 . S
C2121 C2124 1.499 . S
C2122 H2102 0.950 . S
C2122 C2121 1.414 . S
C2122 C2123 1.374 . S
C2123 H2103 0.950 . S
C2123 C2119 1.385 . S
C2123 C2122 1.374 . S
C2124 C2121 1.499 . S
C2124 C2125 1.373 . S
C2124 C2126 1.389 . S
C2125 H2104 0.950 . S
C2125 C2124 1.373 . S
C2125 C2141 1.377 . S
C2126 C2124 1.389 . S
C2126 C2127 1.524 . S
C2126 C2140 1.377 . S
C2127 C2126 1.524 . S
C2127 C2128 1.397 . S
C2127 C2132 1.363 . S
C2128 H2105 0.950 . S
C2128 C2127 1.397 . S
C2128 C2129 1.334 . S
C2129 H2106 0.950 . S
C2129 C2128 1.334 . S
C2129 C2130 1.287 . S
C2130 C2129 1.287 . S
C2130 C2131 1.524 . S
C2130 H2149 0.913 . S
C2131 H2107 0.950 . S
C2131 C2130 1.524 . S
C2131 C2132 1.415 . S
C2132 H2108 0.950 . S
C2132 C2127 1.363 . S
C2132 C2131 1.415 . S
C2133 H2109 0.951 . S
C2133 C2134 1.366 . S
C2133 C2135 1.388 . S
C2134 C2133 1.366 . S
C2134 C2138 1.385 . S
C2135 H2110 0.951 . S
C2135 C2133 1.388 . S
C2135 C2136 1.366 . S
C2136 C2135 1.366 . S
C2136 C2137 1.414 . S
C2136 C2139 1.499 . S
C2137 H2111 0.950 . S
C2137 C2136 1.414 . S
C2137 C2138 1.374 . S
C2138 H2112 0.950 . S
C2138 C2134 1.385 . S
C2138 C2137 1.374 . S
C2139 C2136 1.499 . S
C2139 C2140 1.373 . S
C2139 C2141 1.389 . S
C2140 H2113 0.950 . S
C2140 C2126 1.377 . S
C2140 C2139 1.373 . S
C2141 C2125 1.377 . S
C2141 C2139 1.389 . S
C2141 C2142 1.524 . S
C2142 C2141 1.524 . S
C2142 C2143 1.397 . S
C2142 C2147 1.363 . S
C2143 H2114 0.950 . S
C2143 C2142 1.397 . S
C2143 C2144 1.334 . S
C2144 H2115 0.950 . S
C2144 C2143 1.334 . S
C2144 C2145 1.287 . S
C2145 C2144 1.287 . S
C2145 C2146 1.524 . S
C2145 H2148 0.999 . S
C2146 H2116 0.950 . S
C2146 C2145 1.524 . S
C2146 C2147 1.415 . S
C2147 H2117 0.950 . S
C2147 C2142 1.363 . S
C2147 C2146 1.415 . S
H2148 C2145 0.999 . S
H2149 C2130 0.913 . S
H2150 C2168 0.951 . S
H2151 C2170 0.951 . S
H2152 C2172 0.950 . S
H2153 C2173 0.950 . S
H2154 C2175 0.950 . S
H2155 C2178 0.950 . S
H2156 C2179 0.950 . S
H2157 C2181 0.950 . S
H2158 C2182 0.950 . S
H2159 C2183 0.951 . S
H2160 C2185 0.951 . S
H2161 C2187 0.950 . S
H2162 C2188 0.950 . S
H2163 C2190 0.950 . S
H2164 C2193 0.950 . S
H2165 C2194 0.950 . S
H2166 C2196 0.950 . S
H2167 C2197 0.950 . S
C2168 H2150 0.951 . S
C2168 C2169 1.366 . S
C2168 C2170 1.388 . S
C2169 C2168 1.366 . S
C2169 C2173 1.385 . S
C2170 H2151 0.951 . S
C2170 C2168 1.388 . S
C2170 C2171 1.366 . S
C2171 C2170 1.366 . S
C2171 C2172 1.414 . S
C2171 C2174 1.499 . S
C2172 H2152 0.950 . S
C2172 C2171 1.414 . S
C2172 C2173 1.374 . S
C2173 H2153 0.950 . S
C2173 C2169 1.385 . S
C2173 C2172 1.374 . S
C2174 C2171 1.499 . S
C2174 C2175 1.373 . S
C2174 C2176 1.389 . S
C2175 H2154 0.950 . S
C2175 C2174 1.373 . S
C2175 C2191 1.377 . S
C2176 C2174 1.389 . S
C2176 C2177 1.524 . S
C2176 C2190 1.377 . S
C2177 C2176 1.524 . S
C2177 C2178 1.397 . S
C2177 C2182 1.363 . S
C2178 H2155 0.950 . S
C2178 C2177 1.397 . S
C2178 C2179 1.334 . S
C2179 H2156 0.950 . S
C2179 C2178 1.334 . S
C2179 C2180 1.287 . S
C2180 C2179 1.287 . S
C2180 C2181 1.524 . S
C2180 H2199 0.913 . S
C2181 H2157 0.950 . S
C2181 C2180 1.524 . S
C2181 C2182 1.415 . S
C2182 H2158 0.950 . S
C2182 C2177 1.363 . S
C2182 C2181 1.415 . S
C2183 H2159 0.951 . S
C2183 C2184 1.366 . S
C2183 C2185 1.388 . S
C2184 C2183 1.366 . S
C2184 C2188 1.385 . S
C2185 H2160 0.951 . S
C2185 C2183 1.388 . S
C2185 C2186 1.366 . S
C2186 C2185 1.366 . S
C2186 C2187 1.414 . S
C2186 C2189 1.499 . S
C2187 H2161 0.950 . S
C2187 C2186 1.414 . S
C2187 C2188 1.374 . S
C2188 H2162 0.950 . S
C2188 C2184 1.385 . S
C2188 C2187 1.374 . S
C2189 C2186 1.499 . S
C2189 C2190 1.373 . S
C2189 C2191 1.389 . S
C2190 H2163 0.950 . S
C2190 C2176 1.377 . S
C2190 C2189 1.373 . S
C2191 C2175 1.377 . S
C2191 C2189 1.389 . S
C2191 C2192 1.524 . S
C2192 C2191 1.524 . S
C2192 C2193 1.397 . S
C2192 C2197 1.363 . S
C2193 H2164 0.950 . S
C2193 C2192 1.397 . S
C2193 C2194 1.334 . S
C2194 H2165 0.950 . S
C2194 C2193 1.334 . S
C2194 C2195 1.287 . S
C2195 C2194 1.287 . S
C2195 C2196 1.524 . S
C2195 H2198 0.999 . S
C2196 H2166 0.950 . S
C2196 C2195 1.524 . S
C2196 C2197 1.415 . S
C2197 H2167 0.950 . S
C2197 C2192 1.363 . S
C2197 C2196 1.415 . S
H2198 C2195 0.999 . S
H2199 C2180 0.913 . S
H2200 C2218 0.951 . S
H2201 C2220 0.951 . S
H2202 C2222 0.950 . S
H2203 C2223 0.950 . S
H2204 C2225 0.950 . S
H2205 C2228 0.950 . S
H2206 C2229 0.950 . S
H2207 C2231 0.950 . S
H2208 C2232 0.950 . S
H2209 C2233 0.951 . S
H2210 C2235 0.951 . S
H2211 C2237 0.950 . S
H2212 C2238 0.950 . S
H2213 C2240 0.950 . S
H2214 C2243 0.950 . S
H2215 C2244 0.950 . S
H2216 C2246 0.950 . S
H2217 C2247 0.950 . S
C2218 H2200 0.951 . S
C2218 C2219 1.366 . S
C2218 C2220 1.388 . S
C2219 C2218 1.366 . S
C2219 C2223 1.385 . S
C2220 H2201 0.951 . S
C2220 C2218 1.388 . S
C2220 C2221 1.366 . S
C2221 C2220 1.366 . S
C2221 C2222 1.414 . S
C2221 C2224 1.499 . S
C2222 H2202 0.950 . S
C2222 C2221 1.414 . S
C2222 C2223 1.374 . S
C2223 H2203 0.950 . S
C2223 C2219 1.385 . S
C2223 C2222 1.374 . S
C2224 C2221 1.499 . S
C2224 C2225 1.373 . S
C2224 C2226 1.389 . S
C2225 H2204 0.950 . S
C2225 C2224 1.373 . S
C2225 C2241 1.377 . S
C2226 C2224 1.389 . S
C2226 C2227 1.524 . S
C2226 C2240 1.377 . S
C2227 C2226 1.524 . S
C2227 C2228 1.397 . S
C2227 C2232 1.363 . S
C2228 H2205 0.950 . S
C2228 C2227 1.397 . S
C2228 C2229 1.334 . S
C2229 H2206 0.950 . S
C2229 C2228 1.334 . S
C2229 C2230 1.287 . S
C2230 C2229 1.287 . S
C2230 C2231 1.524 . S
C2230 H2249 0.913 . S
C2231 H2207 0.950 . S
C2231 C2230 1.524 . S
C2231 C2232 1.415 . S
C2232 H2208 0.950 . S
C2232 C2227 1.363 . S
C2232 C2231 1.415 . S
C2233 H2209 0.951 . S
C2233 C2234 1.366 . S
C2233 C2235 1.388 . S
C2234 C2233 1.366 . S
C2234 C2238 1.385 . S
C2235 H2210 0.951 . S
C2235 C2233 1.388 . S
C2235 C2236 1.366 . S
C2236 C2235 1.366 . S
C2236 C2237 1.414 . S
C2236 C2239 1.499 . S
C2237 H2211 0.950 . S
C2237 C2236 1.414 . S
C2237 C2238 1.374 . S
C2238 H2212 0.950 . S
C2238 C2234 1.385 . S
C2238 C2237 1.374 . S
C2239 C2236 1.499 . S
C2239 C2240 1.373 . S
C2239 C2241 1.389 . S
C2240 H2213 0.950 . S
C2240 C2226 1.377 . S
C2240 C2239 1.373 . S
C2241 C2225 1.377 . S
C2241 C2239 1.389 . S
C2241 C2242 1.524 . S
C2242 C2241 1.524 . S
C2242 C2243 1.397 . S
C2242 C2247 1.363 . S
C2243 H2214 0.950 . S
C2243 C2242 1.397 . S
C2243 C2244 1.334 . S
C2244 H2215 0.950 . S
C2244 C2243 1.334 . S
C2244 C2245 1.287 . S
C2245 C2244 1.287 . S
C2245 C2246 1.524 . S
C2245 H2248 0.999 . S
C2246 H2216 0.950 . S
C2246 C2245 1.524 . S
C2246 C2247 1.415 . S
C2247 H2217 0.950 . S
C2247 C2242 1.363 . S
C2247 C2246 1.415 . S
H2248 C2245 0.999 . S
H2249 C2230 0.913 . S
H2250 C2268 0.951 . S
H2251 C2270 0.951 . S
H2252 C2272 0.950 . S
H2253 C2273 0.950 . S
H2254 C2275 0.950 . S
H2255 C2278 0.950 . S
H2256 C2279 0.950 . S
H2257 C2281 0.950 . S
H2258 C2282 0.950 . S
H2259 C2283 0.951 . S
H2260 C2285 0.951 . S
H2261 C2287 0.950 . S
H2262 C2288 0.950 . S
H2263 C2290 0.950 . S
H2264 C2293 0.950 . S
H2265 C2294 0.950 1_545 S
H2266 C2296 0.950 . S
H2267 C2297 0.950 . S
C2268 H2250 0.951 . S
C2268 C2269 1.366 . S
C2268 C2270 1.388 . S
C2269 C2268 1.366 . S
C2269 C2273 1.385 . S
C2270 H2251 0.951 . S
C2270 C2268 1.388 . S
C2270 C2271 1.366 . S
C2271 C2270 1.366 . S
C2271 C2272 1.414 . S
C2271 C2274 1.499 . S
C2272 H2252 0.950 . S
C2272 C2271 1.414 . S
C2272 C2273 1.374 . S
C2273 H2253 0.950 . S
C2273 C2269 1.385 . S
C2273 C2272 1.374 . S
C2274 C2271 1.499 . S
C2274 C2275 1.373 . S
C2274 C2276 1.389 . S
C2275 H2254 0.950 . S
C2275 C2274 1.373 . S
C2275 C2291 1.377 . S
C2276 C2274 1.389 . S
C2276 C2277 1.524 . S
C2276 C2290 1.377 . S
C2277 C2276 1.524 . S
C2277 C2278 1.397 . S
C2277 C2282 1.363 . S
C2278 H2255 0.950 . S
C2278 C2277 1.397 . S
C2278 C2279 1.334 . S
C2279 H2256 0.950 . S
C2279 C2278 1.334 . S
C2279 C2280 1.287 . S
C2280 C2279 1.287 . S
C2280 C2281 1.524 . S
C2280 H2299 0.913 . S
C2281 H2257 0.950 . S
C2281 C2280 1.524 . S
C2281 C2282 1.415 . S
C2282 H2258 0.950 . S
C2282 C2277 1.363 . S
C2282 C2281 1.415 . S
C2283 H2259 0.951 . S
C2283 C2284 1.366 . S
C2283 C2285 1.388 . S
C2284 C2283 1.366 . S
C2284 C2288 1.385 . S
C2285 H2260 0.951 . S
C2285 C2283 1.388 . S
C2285 C2286 1.366 . S
C2286 C2285 1.366 . S
C2286 C2287 1.414 . S
C2286 C2289 1.499 . S
C2287 H2261 0.950 . S
C2287 C2286 1.414 . S
C2287 C2288 1.374 . S
C2288 H2262 0.950 . S
C2288 C2284 1.385 . S
C2288 C2287 1.374 . S
C2289 C2286 1.499 . S
C2289 C2290 1.373 . S
C2289 C2291 1.389 . S
C2290 H2263 0.950 . S
C2290 C2276 1.377 . S
C2290 C2289 1.373 . S
C2291 C2275 1.377 . S
C2291 C2289 1.389 . S
C2291 C2292 1.524 . S
C2292 C2291 1.524 . S
C2292 C2293 1.397 . S
C2292 C2297 1.363 . S
C2293 H2264 0.950 . S
C2293 C2292 1.397 . S
C2293 C2294 1.334 . S
C2294 H2265 0.950 1_565 S
C2294 C2293 1.334 . S
C2294 C2295 1.287 . S
C2295 C2294 1.287 . S
C2295 C2296 1.524 . S
C2295 H2298 0.999 . S
C2296 H2266 0.950 . S
C2296 C2295 1.524 . S
C2296 C2297 1.415 . S
C2297 H2267 0.950 . S
C2297 C2292 1.363 . S
C2297 C2296 1.415 . S
H2298 C2295 0.999 . S
H2299 C2280 0.913 . S
H2300 C2318 0.951 . S
H2301 C2320 0.951 . S
H2302 C2322 0.950 . S
H2303 C2323 0.950 . S
H2304 C2325 0.950 . S
H2305 C2328 0.950 . S
H2306 C2329 0.950 . S
H2307 C2331 0.950 . S
H2308 C2332 0.950 . S
H2309 C2333 0.951 . S
H2310 C2335 0.951 . S
H2311 C2337 0.950 . S
H2312 C2338 0.950 . S
H2313 C2340 0.950 . S
H2314 C2343 0.950 . S
H2315 C2344 0.950 . S
H2316 C2346 0.950 . S
H2317 C2347 0.950 . S
C2318 H2300 0.951 . S
C2318 C2319 1.366 . S
C2318 C2320 1.388 . S
C2319 C2318 1.366 . S
C2319 C2323 1.385 . S
C2320 H2301 0.951 . S
C2320 C2318 1.388 . S
C2320 C2321 1.366 . S
C2321 C2320 1.366 . S
C2321 C2322 1.414 . S
C2321 C2324 1.499 . S
C2322 H2302 0.950 . S
C2322 C2321 1.414 . S
C2322 C2323 1.374 . S
C2323 H2303 0.950 . S
C2323 C2319 1.385 . S
C2323 C2322 1.374 . S
C2324 C2321 1.499 . S
C2324 C2325 1.373 . S
C2324 C2326 1.389 . S
C2325 H2304 0.950 . S
C2325 C2324 1.373 . S
C2325 C2341 1.377 . S
C2326 C2324 1.389 . S
C2326 C2327 1.524 . S
C2326 C2340 1.377 . S
C2327 C2326 1.524 . S
C2327 C2328 1.397 . S
C2327 C2332 1.363 . S
C2328 H2305 0.950 . S
C2328 C2327 1.397 . S
C2328 C2329 1.334 . S
C2329 H2306 0.950 . S
C2329 C2328 1.334 . S
C2329 C2330 1.287 . S
C2330 C2329 1.287 . S
C2330 C2331 1.524 . S
C2330 H2349 0.913 . S
C2331 H2307 0.950 . S
C2331 C2330 1.524 . S
C2331 C2332 1.415 . S
C2332 H2308 0.950 . S
C2332 C2327 1.363 . S
C2332 C2331 1.415 . S
C2333 H2309 0.951 . S
C2333 C2334 1.366 . S
C2333 C2335 1.388 . S
C2334 C2333 1.366 . S
C2334 C2338 1.385 . S
C2335 H2310 0.951 . S
C2335 C2333 1.388 . S
C2335 C2336 1.366 . S
C2336 C2335 1.366 . S
C2336 C2337 1.414 . S
C2336 C2339 1.499 . S
C2337 H2311 0.950 . S
C2337 C2336 1.414 . S
C2337 C2338 1.374 . S
C2338 H2312 0.950 . S
C2338 C2334 1.385 . S
C2338 C2337 1.374 . S
C2339 C2336 1.499 . S
C2339 C2340 1.373 . S
C2339 C2341 1.389 . S
C2340 H2313 0.950 . S
C2340 C2326 1.377 . S
C2340 C2339 1.373 . S
C2341 C2325 1.377 . S
C2341 C2339 1.389 . S
C2341 C2342 1.524 . S
C2342 C2341 1.524 . S
C2342 C2343 1.397 . S
C2342 C2347 1.363 . S
C2343 H2314 0.950 . S
C2343 C2342 1.397 . S
C2343 C2344 1.334 . S
C2344 H2315 0.950 . S
C2344 C2343 1.334 . S
C2344 C2345 1.287 . S
C2345 C2344 1.287 . S
C2345 C2346 1.524 . S
C2345 H2348 0.999 . S
C2346 H2316 0.950 . S
C2346 C2345 1.524 . S
C2346 C2347 1.415 . S
C2347 H2317 0.950 . S
C2347 C2342 1.363 . S
C2347 C2346 1.415 . S
H2348 C2345 0.999 . S
H2349 C2330 0.913 . S
H2350 C2368 0.951 . S
H2351 C2370 0.951 . S
H2352 C2372 0.950 . S
H2353 C2373 0.950 . S
H2354 C2375 0.950 . S
H2355 C2378 0.950 . S
H2356 C2379 0.950 . S
H2357 C2381 0.950 . S
H2358 C2382 0.950 . S
H2359 C2383 0.951 . S
H2360 C2385 0.951 . S
H2361 C2387 0.950 . S
H2362 C2388 0.950 . S
H2363 C2390 0.950 . S
H2364 C2393 0.950 . S
H2365 C2394 0.950 . S
H2366 C2396 0.950 . S
H2367 C2397 0.950 . S
C2368 H2350 0.951 . S
C2368 C2369 1.366 . S
C2368 C2370 1.388 . S
C2369 C2368 1.366 . S
C2369 C2373 1.385 . S
C2370 H2351 0.951 . S
C2370 C2368 1.388 . S
C2370 C2371 1.366 . S
C2371 C2370 1.366 . S
C2371 C2372 1.414 . S
C2371 C2374 1.499 . S
C2372 H2352 0.950 . S
C2372 C2371 1.414 . S
C2372 C2373 1.374 . S
C2373 H2353 0.950 . S
C2373 C2369 1.385 . S
C2373 C2372 1.374 . S
C2374 C2371 1.499 . S
C2374 C2375 1.373 . S
C2374 C2376 1.389 . S
C2375 H2354 0.950 . S
C2375 C2374 1.373 . S
C2375 C2391 1.377 . S
C2376 C2374 1.389 . S
C2376 C2377 1.524 . S
C2376 C2390 1.377 . S
C2377 C2376 1.524 . S
C2377 C2378 1.397 . S
C2377 C2382 1.363 . S
C2378 H2355 0.950 . S
C2378 C2377 1.397 . S
C2378 C2379 1.334 . S
C2379 H2356 0.950 . S
C2379 C2378 1.334 . S
C2379 C2380 1.287 . S
C2380 C2379 1.287 . S
C2380 C2381 1.524 . S
C2380 H2399 0.913 . S
C2381 H2357 0.950 . S
C2381 C2380 1.524 . S
C2381 C2382 1.415 . S
C2382 H2358 0.950 . S
C2382 C2377 1.363 . S
C2382 C2381 1.415 . S
C2383 H2359 0.951 . S
C2383 C2384 1.366 . S
C2383 C2385 1.388 . S
C2384 C2383 1.366 . S
C2384 C2388 1.385 . S
C2385 H2360 0.951 . S
C2385 C2383 1.388 . S
C2385 C2386 1.366 . S
C2386 C2385 1.366 . S
C2386 C2387 1.414 . S
C2386 C2389 1.499 . S
C2387 H2361 0.950 . S
C2387 C2386 1.414 . S
C2387 C2388 1.374 . S
C2388 H2362 0.950 . S
C2388 C2384 1.385 . S
C2388 C2387 1.374 . S
C2389 C2386 1.499 . S
C2389 C2390 1.373 . S
C2389 C2391 1.389 . S
C2390 H2363 0.950 . S
C2390 C2376 1.377 . S
C2390 C2389 1.373 . S
C2391 C2375 1.377 . S
C2391 C2389 1.389 . S
C2391 C2392 1.524 . S
C2392 C2391 1.524 . S
C2392 C2393 1.397 . S
C2392 C2397 1.363 . S
C2393 H2364 0.950 . S
C2393 C2392 1.397 . S
C2393 C2394 1.334 . S
C2394 H2365 0.950 . S
C2394 C2393 1.334 . S
C2394 C2395 1.287 . S
C2395 C2394 1.287 . S
C2395 C2396 1.524 . S
C2395 H2398 0.999 . S
C2396 H2366 0.950 . S
C2396 C2395 1.524 . S
C2396 C2397 1.415 . S
C2397 H2367 0.950 . S
C2397 C2392 1.363 . S
C2397 C2396 1.415 . S
H2398 C2395 0.999 . S
H2399 C2380 0.913 . S
H2400 C2418 0.951 . S
H2401 C2420 0.951 . S
H2402 C2422 0.950 1_655 S
H2403 C2423 0.944 1_655 S
H2404 C2425 0.950 . S
H2405 C2428 0.950 . S
H2406 C2429 0.950 . S
H2407 C2431 0.950 . S
H2408 C2432 0.950 . S
H2409 C2433 0.990 . S
H2410 C2435 0.948 1_655 S
H2411 C2437 0.950 . S
H2412 C2438 0.950 . S
H2413 C2440 0.950 . S
H2414 C2443 0.950 . S
H2415 C2444 0.950 . S
H2416 C2446 0.950 . S
H2417 C2447 0.950 . S
C2418 H2400 0.951 . S
C2418 C2419 1.366 . S
C2418 C2420 1.388 . S
C2419 C2418 1.366 . S
C2419 C2423 1.390 . S
C2420 H2401 0.951 . S
C2420 C2418 1.388 . S
C2420 C2421 1.366 . S
C2421 C2420 1.366 . S
C2421 C2422 1.414 . S
C2421 C2424 1.499 . S
C2422 H2402 0.950 1_455 S
C2422 C2421 1.414 . S
C2422 C2423 1.375 . S
C2423 H2403 0.944 1_455 S
C2423 C2419 1.390 . S
C2423 C2422 1.375 . S
C2424 C2421 1.499 . S
C2424 C2425 1.373 1_455 S
C2424 C2426 1.389 . S
C2425 H2404 0.950 . S
C2425 C2424 1.373 1_655 S
C2425 C2441 1.377 . S
C2426 C2424 1.389 . S
C2426 C2427 1.524 . S
C2426 C2440 1.377 . S
C2427 C2426 1.524 . S
C2427 C2428 1.397 . S
C2427 C2432 1.363 . S
C2428 H2405 0.950 . S
C2428 C2427 1.397 . S
C2428 C2429 1.334 . S
C2429 H2406 0.950 . S
C2429 C2428 1.334 . S
C2429 C2430 1.287 . S
C2430 C2429 1.287 . S
C2430 C2431 1.524 . S
C2430 H2449 0.913 . S
C2431 H2407 0.950 . S
C2431 C2430 1.524 . S
C2431 C2432 1.415 . S
C2432 H2408 0.950 . S
C2432 C2427 1.363 . S
C2432 C2431 1.415 . S
C2433 H2409 0.990 . S
C2433 C2434 1.366 . S
C2433 C2435 1.388 . S
C2434 C2433 1.366 . S
C2434 C2438 1.385 . S
C2435 H2410 0.948 1_455 S
C2435 C2433 1.388 . S
C2435 C2436 1.366 . S
C2436 C2435 1.366 . S
C2436 C2437 1.414 . S
C2436 C2439 1.499 . S
C2437 H2411 0.950 . S
C2437 C2436 1.414 . S
C2437 C2438 1.374 . S
C2438 H2412 0.950 . S
C2438 C2434 1.385 . S
C2438 C2437 1.374 . S
C2439 C2436 1.499 . S
C2439 C2440 1.373 . S
C2439 C2441 1.389 1_455 S
C2440 H2413 0.950 . S
C2440 C2426 1.377 . S
C2440 C2439 1.373 . S
C2441 C2425 1.377 . S
C2441 C2439 1.389 1_655 S
C2441 C2442 1.524 . S
C2442 C2441 1.524 . S
C2442 C2443 1.397 . S
C2442 C2447 1.363 . S
C2443 H2414 0.950 . S
C2443 C2442 1.397 . S
C2443 C2444 1.334 . S
C2444 H2415 0.950 . S
C2444 C2443 1.334 . S
C2444 C2445 1.287 . S
C2445 C2444 1.287 . S
C2445 C2446 1.524 . S
C2445 H2448 0.999 . S
C2446 H2416 0.950 . S
C2446 C2445 1.524 . S
C2446 C2447 1.415 . S
C2447 H2417 0.950 . S
C2447 C2442 1.363 . S
C2447 C2446 1.415 . S
H2448 C2445 0.999 . S
H2449 C2430 0.913 . S
H2450 C2468 0.951 . S
H2451 C2470 0.951 . S
H2452 C2472 0.950 . S
H2453 C2473 0.950 . S
H2454 C2475 0.950 . S
H2455 C2478 0.950 . S
H2456 C2479 0.950 . S
H2457 C2481 0.950 . S
H2458 C2482 0.950 . S
H2459 C2483 0.951 . S
H2460 C2485 0.951 . S
H2461 C2487 0.950 . S
H2462 C2488 0.950 . S
H2463 C2490 0.950 . S
H2464 C2493 0.950 . S
H2465 C2494 0.950 . S
H2466 C2496 0.950 . S
H2467 C2497 0.950 . S
C2468 H2450 0.951 . S
C2468 C2469 1.366 . S
C2468 C2470 1.388 . S
C2469 C2468 1.366 . S
C2469 C2473 1.385 . S
C2470 H2451 0.951 . S
C2470 C2468 1.388 . S
C2470 C2471 1.366 . S
C2471 C2470 1.366 . S
C2471 C2472 1.414 . S
C2471 C2474 1.499 . S
C2472 H2452 0.950 . S
C2472 C2471 1.414 . S
C2472 C2473 1.374 . S
C2473 H2453 0.950 . S
C2473 C2469 1.385 . S
C2473 C2472 1.374 . S
C2474 C2471 1.499 . S
C2474 C2475 1.373 . S
C2474 C2476 1.389 . S
C2475 H2454 0.950 . S
C2475 C2474 1.373 . S
C2475 C2491 1.377 . S
C2476 C2474 1.389 . S
C2476 C2477 1.524 . S
C2476 C2490 1.377 . S
C2477 C2476 1.524 . S
C2477 C2478 1.397 . S
C2477 C2482 1.363 . S
C2478 H2455 0.950 . S
C2478 C2477 1.397 . S
C2478 C2479 1.334 . S
C2479 H2456 0.950 . S
C2479 C2478 1.334 . S
C2479 C2480 1.287 . S
C2480 C2479 1.287 . S
C2480 C2481 1.524 . S
C2480 H2499 0.913 . S
C2481 H2457 0.950 . S
C2481 C2480 1.524 . S
C2481 C2482 1.415 . S
C2482 H2458 0.950 . S
C2482 C2477 1.363 . S
C2482 C2481 1.415 . S
C2483 H2459 0.951 . S
C2483 C2484 1.366 . S
C2483 C2485 1.388 . S
C2484 C2483 1.366 . S
C2484 C2488 1.385 . S
C2485 H2460 0.951 . S
C2485 C2483 1.388 . S
C2485 C2486 1.366 . S
C2486 C2485 1.366 . S
C2486 C2487 1.414 . S
C2486 C2489 1.499 . S
C2487 H2461 0.950 . S
C2487 C2486 1.414 . S
C2487 C2488 1.374 . S
C2488 H2462 0.950 . S
C2488 C2484 1.385 . S
C2488 C2487 1.374 . S
C2489 C2486 1.499 . S
C2489 C2490 1.373 . S
C2489 C2491 1.389 . S
C2490 H2463 0.950 . S
C2490 C2476 1.377 . S
C2490 C2489 1.373 . S
C2491 C2475 1.377 . S
C2491 C2489 1.389 . S
C2491 C2492 1.524 . S
C2492 C2491 1.524 . S
C2492 C2493 1.397 . S
C2492 C2497 1.363 . S
C2493 H2464 0.950 . S
C2493 C2492 1.397 . S
C2493 C2494 1.334 . S
C2494 H2465 0.950 . S
C2494 C2493 1.334 . S
C2494 C2495 1.287 . S
C2495 C2494 1.287 . S
C2495 C2496 1.524 . S
C2495 H2498 0.999 . S
C2496 H2466 0.950 . S
C2496 C2495 1.524 . S
C2496 C2497 1.415 . S
C2497 H2467 0.950 . S
C2497 C2492 1.363 . S
C2497 C2496 1.415 . S
H2498 C2495 0.999 . S
H2499 C2480 0.913 . S
H2500 C2518 0.951 . S
H2501 C2520 0.951 . S
H2502 C2522 0.950 . S
H2503 C2523 0.950 . S
H2504 C2525 0.950 . S
H2505 C2528 0.950 . S
H2506 C2529 0.950 . S
H2507 C2531 0.950 . S
H2508 C2532 0.950 . S
H2509 C2533 0.951 . S
H2510 C2535 0.951 . S
H2511 C2537 0.950 . S
H2512 C2538 0.950 . S
H2513 C2540 0.950 . S
H2514 C2543 0.950 . S
H2515 C2544 0.950 . S
H2516 C2546 0.950 . S
H2517 C2547 0.950 . S
C2518 H2500 0.951 . S
C2518 C2519 1.366 . S
C2518 C2520 1.388 . S
C2519 C2518 1.366 . S
C2519 C2523 1.385 . S
C2520 H2501 0.951 . S
C2520 C2518 1.388 . S
C2520 C2521 1.366 . S
C2521 C2520 1.366 . S
C2521 C2522 1.414 . S
C2521 C2524 1.499 . S
C2522 H2502 0.950 . S
C2522 C2521 1.414 . S
C2522 C2523 1.374 . S
C2523 H2503 0.950 . S
C2523 C2519 1.385 . S
C2523 C2522 1.374 . S
C2524 C2521 1.499 . S
C2524 C2525 1.373 . S
C2524 C2526 1.389 . S
C2525 H2504 0.950 . S
C2525 C2524 1.373 . S
C2525 C2541 1.377 . S
C2526 C2524 1.389 . S
C2526 C2527 1.524 . S
C2526 C2540 1.377 . S
C2527 C2526 1.524 . S
C2527 C2528 1.397 . S
C2527 C2532 1.363 . S
C2528 H2505 0.950 . S
C2528 C2527 1.397 . S
C2528 C2529 1.334 . S
C2529 H2506 0.950 . S
C2529 C2528 1.334 . S
C2529 C2530 1.287 . S
C2530 C2529 1.287 . S
C2530 C2531 1.524 . S
C2530 H2549 0.913 . S
C2531 H2507 0.950 . S
C2531 C2530 1.524 . S
C2531 C2532 1.415 . S
C2532 H2508 0.950 . S
C2532 C2527 1.363 . S
C2532 C2531 1.415 . S
C2533 H2509 0.951 . S
C2533 C2534 1.366 . S
C2533 C2535 1.388 . S
C2534 C2533 1.366 . S
C2534 C2538 1.385 . S
C2535 H2510 0.951 . S
C2535 C2533 1.388 . S
C2535 C2536 1.366 . S
C2536 C2535 1.366 . S
C2536 C2537 1.414 . S
C2536 C2539 1.499 . S
C2537 H2511 0.950 . S
C2537 C2536 1.414 . S
C2537 C2538 1.374 . S
C2538 H2512 0.950 . S
C2538 C2534 1.385 . S
C2538 C2537 1.374 . S
C2539 C2536 1.499 . S
C2539 C2540 1.373 . S
C2539 C2541 1.389 . S
C2540 H2513 0.950 . S
C2540 C2526 1.377 . S
C2540 C2539 1.373 . S
C2541 C2525 1.377 . S
C2541 C2539 1.389 . S
C2541 C2542 1.524 . S
C2542 C2541 1.524 . S
C2542 C2543 1.397 . S
C2542 C2547 1.363 . S
C2543 H2514 0.950 . S
C2543 C2542 1.397 . S
C2543 C2544 1.334 . S
C2544 H2515 0.950 . S
C2544 C2543 1.334 . S
C2544 C2545 1.287 . S
C2545 C2544 1.287 . S
C2545 C2546 1.524 . S
C2545 H2548 0.999 . S
C2546 H2516 0.950 . S
C2546 C2545 1.524 . S
C2546 C2547 1.415 . S
C2547 H2517 0.950 . S
C2547 C2542 1.363 . S
C2547 C2546 1.415 . S
H2548 C2545 0.999 . S
H2549 C2530 0.913 . S
H2550 C2568 0.951 . S
H2551 C2570 0.951 . S
H2552 C2572 0.950 . S
H2553 C2573 0.950 . S
H2554 C2575 0.950 . S
H2555 C2578 0.950 . S
H2556 C2579 0.950 . S
H2557 C2581 0.950 . S
H2558 C2582 0.950 . S
H2559 C2583 0.951 . S
H2560 C2585 0.951 . S
H2561 C2587 0.950 . S
H2562 C2588 0.950 . S
H2563 C2590 0.950 . S
H2564 C2593 0.950 . S
H2565 C2594 0.950 . S
H2566 C2596 0.950 . S
H2567 C2597 0.950 . S
C2568 H2550 0.951 . S
C2568 C2569 1.366 . S
C2568 C2570 1.388 . S
C2569 C2568 1.366 . S
C2569 C2573 1.385 . S
C2570 H2551 0.951 . S
C2570 C2568 1.388 . S
C2570 C2571 1.366 . S
C2571 C2570 1.366 . S
C2571 C2572 1.414 . S
C2571 C2574 1.499 . S
C2572 H2552 0.950 . S
C2572 C2571 1.414 . S
C2572 C2573 1.374 . S
C2573 H2553 0.950 . S
C2573 C2569 1.385 . S
C2573 C2572 1.374 . S
C2574 C2571 1.499 . S
C2574 C2575 1.373 . S
C2574 C2576 1.389 . S
C2575 H2554 0.950 . S
C2575 C2574 1.373 . S
C2575 C2591 1.377 . S
C2576 C2574 1.389 . S
C2576 C2577 1.524 . S
C2576 C2590 1.377 . S
C2577 C2576 1.524 . S
C2577 C2578 1.397 . S
C2577 C2582 1.363 . S
C2578 H2555 0.950 . S
C2578 C2577 1.397 . S
C2578 C2579 1.334 . S
C2579 H2556 0.950 . S
C2579 C2578 1.334 . S
C2579 C2580 1.287 . S
C2580 C2579 1.287 . S
C2580 C2581 1.524 . S
C2580 H2599 0.913 . S
C2581 H2557 0.950 . S
C2581 C2580 1.524 . S
C2581 C2582 1.415 . S
C2582 H2558 0.950 . S
C2582 C2577 1.363 . S
C2582 C2581 1.415 . S
C2583 H2559 0.951 . S
C2583 C2584 1.366 . S
C2583 C2585 1.388 . S
C2584 C2583 1.366 . S
C2584 C2588 1.385 . S
C2585 H2560 0.951 . S
C2585 C2583 1.388 . S
C2585 C2586 1.366 . S
C2586 C2585 1.366 . S
C2586 C2587 1.414 . S
C2586 C2589 1.499 . S
C2587 H2561 0.950 . S
C2587 C2586 1.414 . S
C2587 C2588 1.374 . S
C2588 H2562 0.950 . S
C2588 C2584 1.385 . S
C2588 C2587 1.374 . S
C2589 C2586 1.499 . S
C2589 C2590 1.373 . S
C2589 C2591 1.389 . S
C2590 H2563 0.950 . S
C2590 C2576 1.377 . S
C2590 C2589 1.373 . S
C2591 C2575 1.377 . S
C2591 C2589 1.389 . S
C2591 C2592 1.524 . S
C2592 C2591 1.524 . S
C2592 C2593 1.397 . S
C2592 C2597 1.363 . S
C2593 H2564 0.950 . S
C2593 C2592 1.397 . S
C2593 C2594 1.334 . S
C2594 H2565 0.950 . S
C2594 C2593 1.334 . S
C2594 C2595 1.287 . S
C2595 C2594 1.287 . S
C2595 C2596 1.524 . S
C2595 H2598 0.999 . S
C2596 H2566 0.950 . S
C2596 C2595 1.524 . S
C2596 C2597 1.415 . S
C2597 H2567 0.950 . S
C2597 C2592 1.363 . S
C2597 C2596 1.415 . S
H2598 C2595 0.999 . S
H2599 C2580 0.913 . S
H2600 C2618 0.951 . S
H2601 C2620 0.951 . S
H2602 C2622 0.950 . S
H2603 C2623 0.950 . S
H2604 C2625 0.950 . S
H2605 C2628 0.950 . S
H2606 C2629 0.950 . S
H2607 C2631 0.950 . S
H2608 C2632 0.950 . S
H2609 C2633 0.951 . S
H2610 C2635 0.951 . S
H2611 C2637 0.950 1_655 S
H2612 C2638 0.950 1_655 S
H2613 C2640 0.950 . S
H2614 C2643 0.950 . S
H2615 C2644 0.950 . S
H2616 C2646 0.950 . S
H2617 C2647 0.950 . S
C2618 H2600 0.951 . S
C2618 C2619 1.366 1_655 S
C2618 C2620 1.388 . S
C2619 C2618 1.366 1_455 S
C2619 C2623 1.385 . S
C2620 H2601 0.951 . S
C2620 C2618 1.388 . S
C2620 C2621 1.366 1_655 S
C2621 C2620 1.366 1_455 S
C2621 C2622 1.414 . S
C2621 C2624 1.499 . S
C2622 H2602 0.950 . S
C2622 C2621 1.414 . S
C2622 C2623 1.374 . S
C2623 H2603 0.950 . S
C2623 C2619 1.385 . S
C2623 C2622 1.374 . S
C2624 C2621 1.499 . S
C2624 C2625 1.373 . S
C2624 C2626 1.389 1_455 S
C2625 H2604 0.950 . S
C2625 C2624 1.373 . S
C2625 C2641 1.377 . S
C2626 C2624 1.389 1_655 S
C2626 C2627 1.524 . S
C2626 C2640 1.377 . S
C2627 C2626 1.524 . S
C2627 C2628 1.397 . S
C2627 C2632 1.363 . S
C2628 H2605 0.950 . S
C2628 C2627 1.397 . S
C2628 C2629 1.334 . S
C2629 H2606 0.950 . S
C2629 C2628 1.334 . S
C2629 C2630 1.287 . S
C2630 C2629 1.287 . S
C2630 C2631 1.524 . S
C2630 H2649 0.913 . S
C2631 H2607 0.950 . S
C2631 C2630 1.524 . S
C2631 C2632 1.415 . S
C2632 H2608 0.950 . S
C2632 C2627 1.363 . S
C2632 C2631 1.415 . S
C2633 H2609 0.951 . S
C2633 C2634 1.366 . S
C2633 C2635 1.388 . S
C2634 C2633 1.366 . S
C2634 C2638 1.385 . S
C2635 H2610 0.951 . S
C2635 C2633 1.388 . S
C2635 C2636 1.366 . S
C2636 C2635 1.366 . S
C2636 C2637 1.414 . S
C2636 C2639 1.499 . S
C2637 H2611 0.950 1_455 S
C2637 C2636 1.414 . S
C2637 C2638 1.374 . S
C2638 H2612 0.950 1_455 S
C2638 C2634 1.385 . S
C2638 C2637 1.374 . S
C2639 C2636 1.499 . S
C2639 C2640 1.373 1_455 S
C2639 C2641 1.389 . S
C2640 H2613 0.950 . S
C2640 C2626 1.377 . S
C2640 C2639 1.373 1_655 S
C2641 C2625 1.377 . S
C2641 C2639 1.389 . S
C2641 C2642 1.524 . S
C2642 C2641 1.524 . S
C2642 C2643 1.397 . S
C2642 C2647 1.363 . S
C2643 H2614 0.950 . S
C2643 C2642 1.397 . S
C2643 C2644 1.334 . S
C2644 H2615 0.950 . S
C2644 C2643 1.334 . S
C2644 C2645 1.287 . S
C2645 C2644 1.287 . S
C2645 C2646 1.524 . S
C2645 H2648 0.999 . S
C2646 H2616 0.950 . S
C2646 C2645 1.524 . S
C2646 C2647 1.415 . S
C2647 H2617 0.950 . S
C2647 C2642 1.363 . S
C2647 C2646 1.415 . S
H2648 C2645 0.999 . S
H2649 C2630 0.913 . S
H2650 C2668 0.951 . S
H2651 C2670 0.951 . S
H2652 C2672 0.950 . S
H2653 C2673 0.950 . S
H2654 C2675 0.950 . S
H2655 C2678 0.950 . S
H2656 C2679 0.950 . S
H2657 C2681 0.950 . S
H2658 C2682 0.950 . S
H2659 C2683 0.951 . S
H2660 C2685 0.951 . S
H2661 C2687 0.950 . S
H2662 C2688 0.950 . S
H2663 C2690 0.950 . S
H2664 C2693 0.950 . S
H2665 C2694 0.950 . S
H2666 C2696 0.950 . S
H2667 C2697 0.950 . S
C2668 H2650 0.951 . S
C2668 C2669 1.366 . S
C2668 C2670 1.388 . S
C2669 C2668 1.366 . S
C2669 C2673 1.385 . S
C2670 H2651 0.951 . S
C2670 C2668 1.388 . S
C2670 C2671 1.366 . S
C2671 C2670 1.366 . S
C2671 C2672 1.414 . S
C2671 C2674 1.499 . S
C2672 H2652 0.950 . S
C2672 C2671 1.414 . S
C2672 C2673 1.374 . S
C2673 H2653 0.950 . S
C2673 C2669 1.385 . S
C2673 C2672 1.374 . S
C2674 C2671 1.499 . S
C2674 C2675 1.373 . S
C2674 C2676 1.389 . S
C2675 H2654 0.950 . S
C2675 C2674 1.373 . S
C2675 C2691 1.377 . S
C2676 C2674 1.389 . S
C2676 C2677 1.524 . S
C2676 C2690 1.377 . S
C2677 C2676 1.524 . S
C2677 C2678 1.397 . S
C2677 C2682 1.363 . S
C2678 H2655 0.950 . S
C2678 C2677 1.397 . S
C2678 C2679 1.334 . S
C2679 H2656 0.950 . S
C2679 C2678 1.334 . S
C2679 C2680 1.287 . S
C2680 C2679 1.287 . S
C2680 C2681 1.524 . S
C2680 H2699 0.913 . S
C2681 H2657 0.950 . S
C2681 C2680 1.524 . S
C2681 C2682 1.415 . S
C2682 H2658 0.950 . S
C2682 C2677 1.363 . S
C2682 C2681 1.415 . S
C2683 H2659 0.951 . S
C2683 C2684 1.366 . S
C2683 C2685 1.388 . S
C2684 C2683 1.366 . S
C2684 C2688 1.385 . S
C2685 H2660 0.951 . S
C2685 C2683 1.388 . S
C2685 C2686 1.366 . S
C2686 C2685 1.366 . S
C2686 C2687 1.414 . S
C2686 C2689 1.499 . S
C2687 H2661 0.950 . S
C2687 C2686 1.414 . S
C2687 C2688 1.374 . S
C2688 H2662 0.950 . S
C2688 C2684 1.385 . S
C2688 C2687 1.374 . S
C2689 C2686 1.499 . S
C2689 C2690 1.373 . S
C2689 C2691 1.389 . S
C2690 H2663 0.950 . S
C2690 C2676 1.377 . S
C2690 C2689 1.373 . S
C2691 C2675 1.377 . S
C2691 C2689 1.389 . S
C2691 C2692 1.524 . S
C2692 C2691 1.524 . S
C2692 C2693 1.397 . S
C2692 C2697 1.363 . S
C2693 H2664 0.950 . S
C2693 C2692 1.397 . S
C2693 C2694 1.334 . S
C2694 H2665 0.950 . S
C2694 C2693 1.334 . S
C2694 C2695 1.287 . S
C2695 C2694 1.287 . S
C2695 C2696 1.524 . S
C2695 H2698 0.999 . S
C2696 H2666 0.950 . S
C2696 C2695 1.524 . S
C2696 C2697 1.415 . S
C2697 H2667 0.950 . S
C2697 C2692 1.363 . S
C2697 C2696 1.415 . S
H2698 C2695 0.999 . S
H2699 C2680 0.913 . S
H2700 C2718 0.951 . S
H2701 C2720 0.951 . S
H2702 C2722 0.950 . S
H2703 C2723 0.950 . S
H2704 C2725 0.950 . S
H2705 C2728 0.950 . S
H2706 C2729 0.950 . S
H2707 C2731 0.950 . S
H2708 C2732 0.950 . S
H2709 C2733 0.951 . S
H2710 C2735 0.951 . S
H2711 C2737 0.950 . S
H2712 C2738 0.950 . S
H2713 C2740 0.950 . S
H2714 C2743 0.950 . S
H2715 C2744 0.950 . S
H2716 C2746 0.950 . S
H2717 C2747 0.950 . S
C2718 H2700 0.951 . S
C2718 C2719 1.366 . S
C2718 C2720 1.388 . S
C2719 C2718 1.366 . S
C2719 C2723 1.385 . S
C2720 H2701 0.951 . S
C2720 C2718 1.388 . S
C2720 C2721 1.366 . S
C2721 C2720 1.366 . S
C2721 C2722 1.414 . S
C2721 C2724 1.499 . S
C2722 H2702 0.950 . S
C2722 C2721 1.414 . S
C2722 C2723 1.374 . S
C2723 H2703 0.950 . S
C2723 C2719 1.385 . S
C2723 C2722 1.374 . S
C2724 C2721 1.499 . S
C2724 C2725 1.373 . S
C2724 C2726 1.389 . S
C2725 H2704 0.950 . S
C2725 C2724 1.373 . S
C2725 C2741 1.377 . S
C2726 C2724 1.389 . S
C2726 C2727 1.524 . S
C2726 C2740 1.377 . S
C2727 C2726 1.524 . S
C2727 C2728 1.397 . S
C2727 C2732 1.363 . S
C2728 H2705 0.950 . S
C2728 C2727 1.397 . S
C2728 C2729 1.334 . S
C2729 H2706 0.950 . S
C2729 C2728 1.334 . S
C2729 C2730 1.287 . S
C2730 C2729 1.287 . S
C2730 C2731 1.524 . S
C2730 H2749 0.913 . S
C2731 H2707 0.950 . S
C2731 C2730 1.524 . S
C2731 C2732 1.415 . S
C2732 H2708 0.950 . S
C2732 C2727 1.363 . S
C2732 C2731 1.415 . S
C2733 H2709 0.951 . S
C2733 C2734 1.366 . S
C2733 C2735 1.388 . S
C2734 C2733 1.366 . S
C2734 C2738 1.385 . S
C2735 H2710 0.951 . S
C2735 C2733 1.388 . S
C2735 C2736 1.366 . S
C2736 C2735 1.366 . S
C2736 C2737 1.414 . S
C2736 C2739 1.499 . S
C2737 H2711 0.950 . S
C2737 C2736 1.414 . S
C2737 C2738 1.374 . S
C2738 H2712 0.950 . S
C2738 C2734 1.385 . S
C2738 C2737 1.374 . S
C2739 C2736 1.499 . S
C2739 C2740 1.373 . S
C2739 C2741 1.389 . S
C2740 H2713 0.950 . S
C2740 C2726 1.377 . S
C2740 C2739 1.373 . S
C2741 C2725 1.377 . S
C2741 C2739 1.389 . S
C2741 C2742 1.524 . S
C2742 C2741 1.524 . S
C2742 C2743 1.397 . S
C2742 C2747 1.363 . S
C2743 H2714 0.950 . S
C2743 C2742 1.397 . S
C2743 C2744 1.334 . S
C2744 H2715 0.950 . S
C2744 C2743 1.334 . S
C2744 C2745 1.287 . S
C2745 C2744 1.287 . S
C2745 C2746 1.524 . S
C2745 H2748 0.999 . S
C2746 H2716 0.950 . S
C2746 C2745 1.524 . S
C2746 C2747 1.415 . S
C2747 H2717 0.950 . S
C2747 C2742 1.363 . S
C2747 C2746 1.415 . S
H2748 C2745 0.999 . S
H2749 C2730 0.913 . S
H2750 C2768 0.951 . S
H2751 C2770 0.951 . S
H2752 C2772 0.950 . S
H2753 C2773 0.950 . S
H2754 C2775 0.950 . S
H2755 C2778 0.950 . S
H2756 C2779 0.950 . S
H2757 C2781 0.950 . S
H2758 C2782 0.950 . S
H2759 C2783 0.951 . S
H2760 C2785 0.951 . S
H2761 C2787 0.950 . S
H2762 C2788 0.950 . S
H2763 C2790 0.950 . S
H2764 C2793 0.950 . S
H2765 C2794 0.950 . S
H2766 C2796 0.950 . S
H2767 C2797 0.950 . S
C2768 H2750 0.951 . S
C2768 C2769 1.366 . S
C2768 C2770 1.388 . S
C2769 C2768 1.366 . S
C2769 C2773 1.385 . S
C2770 H2751 0.951 . S
C2770 C2768 1.388 . S
C2770 C2771 1.366 . S
C2771 C2770 1.366 . S
C2771 C2772 1.414 . S
C2771 C2774 1.499 . S
C2772 H2752 0.950 . S
C2772 C2771 1.414 . S
C2772 C2773 1.374 . S
C2773 H2753 0.950 . S
C2773 C2769 1.385 . S
C2773 C2772 1.374 . S
C2774 C2771 1.499 . S
C2774 C2775 1.373 . S
C2774 C2776 1.389 . S
C2775 H2754 0.950 . S
C2775 C2774 1.373 . S
C2775 C2791 1.377 . S
C2776 C2774 1.389 . S
C2776 C2777 1.524 . S
C2776 C2790 1.377 . S
C2777 C2776 1.524 . S
C2777 C2778 1.397 . S
C2777 C2782 1.363 . S
C2778 H2755 0.950 . S
C2778 C2777 1.397 . S
C2778 C2779 1.334 . S
C2779 H2756 0.950 . S
C2779 C2778 1.334 . S
C2779 C2780 1.287 . S
C2780 C2779 1.287 . S
C2780 C2781 1.524 . S
C2780 H2799 0.913 . S
C2781 H2757 0.950 . S
C2781 C2780 1.524 . S
C2781 C2782 1.415 . S
C2782 H2758 0.950 . S
C2782 C2777 1.363 . S
C2782 C2781 1.415 . S
C2783 H2759 0.951 . S
C2783 C2784 1.366 . S
C2783 C2785 1.388 . S
C2784 C2783 1.366 . S
C2784 C2788 1.385 . S
C2785 H2760 0.951 . S
C2785 C2783 1.388 . S
C2785 C2786 1.366 . S
C2786 C2785 1.366 . S
C2786 C2787 1.414 . S
C2786 C2789 1.499 . S
C2787 H2761 0.950 . S
C2787 C2786 1.414 . S
C2787 C2788 1.374 . S
C2788 H2762 0.950 . S
C2788 C2784 1.385 . S
C2788 C2787 1.374 . S
C2789 C2786 1.499 . S
C2789 C2790 1.373 . S
C2789 C2791 1.389 . S
C2790 H2763 0.950 . S
C2790 C2776 1.377 . S
C2790 C2789 1.373 . S
C2791 C2775 1.377 . S
C2791 C2789 1.389 . S
C2791 C2792 1.524 . S
C2792 C2791 1.524 . S
C2792 C2793 1.397 . S
C2792 C2797 1.363 . S
C2793 H2764 0.950 . S
C2793 C2792 1.397 . S
C2793 C2794 1.334 . S
C2794 H2765 0.950 . S
C2794 C2793 1.334 . S
C2794 C2795 1.287 . S
C2795 C2794 1.287 . S
C2795 C2796 1.524 . S
C2795 H2798 0.999 . S
C2796 H2766 0.950 . S
C2796 C2795 1.524 . S
C2796 C2797 1.415 . S
C2797 H2767 0.950 . S
C2797 C2792 1.363 . S
C2797 C2796 1.415 . S
H2798 C2795 0.999 . S
H2799 C2780 0.913 . S
H2800 C2818 0.951 . S
H2801 C2820 0.951 . S
H2802 C2822 0.950 . S
H2803 C2823 0.950 . S
H2804 C2825 0.950 . S
H2805 C2828 0.950 . S
H2806 C2829 0.950 . S
H2807 C2831 0.950 . S
H2808 C2832 0.950 . S
H2809 C2833 0.951 . S
H2810 C2835 0.951 . S
H2811 C2837 0.950 . S
H2812 C2838 0.950 1_455 S
H2813 C2840 0.950 . S
H2814 C2843 0.950 . S
H2815 C2844 0.950 . S
H2816 C2846 0.950 . S
H2817 C2847 0.950 . S
C2818 H2800 0.951 . S
C2818 C2819 1.366 . S
C2818 C2820 1.388 . S
C2819 C2818 1.366 . S
C2819 C2823 1.385 . S
C2820 H2801 0.951 . S
C2820 C2818 1.388 . S
C2820 C2821 1.366 . S
C2821 C2820 1.366 . S
C2821 C2822 1.414 . S
C2821 C2824 1.499 . S
C2822 H2802 0.950 . S
C2822 C2821 1.414 . S
C2822 C2823 1.374 . S
C2823 H2803 0.950 . S
C2823 C2819 1.385 . S
C2823 C2822 1.374 . S
C2824 C2821 1.499 . S
C2824 C2825 1.373 . S
C2824 C2826 1.389 1_545 S
C2825 H2804 0.950 . S
C2825 C2824 1.373 . S
C2825 C2841 1.377 . S
C2826 C2824 1.389 1_565 S
C2826 C2827 1.524 . S
C2826 C2840 1.377 . S
C2827 C2826 1.524 . S
C2827 C2828 1.397 . S
C2827 C2832 1.363 . S
C2828 H2805 0.950 . S
C2828 C2827 1.397 . S
C2828 C2829 1.334 . S
C2829 H2806 0.950 . S
C2829 C2828 1.334 . S
C2829 C2830 1.287 . S
C2830 C2829 1.287 . S
C2830 C2831 1.524 . S
C2830 H2849 0.913 . S
C2831 H2807 0.950 . S
C2831 C2830 1.524 . S
C2831 C2832 1.415 . S
C2832 H2808 0.950 . S
C2832 C2827 1.363 . S
C2832 C2831 1.415 . S
C2833 H2809 0.951 . S
C2833 C2834 1.366 . S
C2833 C2835 1.388 . S
C2834 C2833 1.366 . S
C2834 C2838 1.385 . S
C2835 H2810 0.951 . S
C2835 C2833 1.388 . S
C2835 C2836 1.366 . S
C2836 C2835 1.366 . S
C2836 C2837 1.414 . S
C2836 C2839 1.499 . S
C2837 H2811 0.950 . S
C2837 C2836 1.414 . S
C2837 C2838 1.374 . S
C2838 H2812 0.950 1_655 S
C2838 C2834 1.385 . S
C2838 C2837 1.374 . S
C2839 C2836 1.499 . S
C2839 C2840 1.373 1_545 S
C2839 C2841 1.389 . S
C2840 H2813 0.950 . S
C2840 C2826 1.377 . S
C2840 C2839 1.373 1_565 S
C2841 C2825 1.377 . S
C2841 C2839 1.389 . S
C2841 C2842 1.524 . S
C2842 C2841 1.524 . S
C2842 C2843 1.397 . S
C2842 C2847 1.363 . S
C2843 H2814 0.950 . S
C2843 C2842 1.397 . S
C2843 C2844 1.334 . S
C2844 H2815 0.950 . S
C2844 C2843 1.334 . S
C2844 C2845 1.287 . S
C2845 C2844 1.287 . S
C2845 C2846 1.524 . S
C2845 H2848 0.999 . S
C2846 H2816 0.950 . S
C2846 C2845 1.524 . S
C2846 C2847 1.415 . S
C2847 H2817 0.950 . S
C2847 C2842 1.363 . S
C2847 C2846 1.415 . S
H2848 C2845 0.999 . S
H2849 C2830 0.913 . S
H2850 C2868 0.951 . S
H2851 C2870 0.951 . S
H2852 C2872 0.950 . S
H2853 C2873 0.950 . S
H2854 C2875 0.950 . S
H2855 C2878 0.950 . S
H2856 C2879 0.950 . S
H2857 C2881 0.950 . S
H2858 C2882 0.950 . S
H2859 C2883 0.951 . S
H2860 C2885 0.951 . S
H2861 C2887 0.950 . S
H2862 C2888 0.950 . S
H2863 C2890 0.950 . S
H2864 C2893 0.950 . S
H2865 C2894 0.950 . S
H2866 C2896 0.950 . S
H2867 C2897 0.950 . S
C2868 H2850 0.951 . S
C2868 C2869 1.366 . S
C2868 C2870 1.388 . S
C2869 C2868 1.366 . S
C2869 C2873 1.385 . S
C2870 H2851 0.951 . S
C2870 C2868 1.388 . S
C2870 C2871 1.366 . S
C2871 C2870 1.366 . S
C2871 C2872 1.414 . S
C2871 C2874 1.499 . S
C2872 H2852 0.950 . S
C2872 C2871 1.414 . S
C2872 C2873 1.374 . S
C2873 H2853 0.950 . S
C2873 C2869 1.385 . S
C2873 C2872 1.374 . S
C2874 C2871 1.499 . S
C2874 C2875 1.373 . S
C2874 C2876 1.389 . S
C2875 H2854 0.950 . S
C2875 C2874 1.373 . S
C2875 C2891 1.377 . S
C2876 C2874 1.389 . S
C2876 C2877 1.524 . S
C2876 C2890 1.377 . S
C2877 C2876 1.524 . S
C2877 C2878 1.397 . S
C2877 C2882 1.363 . S
C2878 H2855 0.950 . S
C2878 C2877 1.397 . S
C2878 C2879 1.334 . S
C2879 H2856 0.950 . S
C2879 C2878 1.334 . S
C2879 C2880 1.287 . S
C2880 C2879 1.287 . S
C2880 C2881 1.524 . S
C2880 H2899 0.913 . S
C2881 H2857 0.950 . S
C2881 C2880 1.524 . S
C2881 C2882 1.415 . S
C2882 H2858 0.950 . S
C2882 C2877 1.363 . S
C2882 C2881 1.415 . S
C2883 H2859 0.951 . S
C2883 C2884 1.366 . S
C2883 C2885 1.388 . S
C2884 C2883 1.366 . S
C2884 C2888 1.385 . S
C2885 H2860 0.951 . S
C2885 C2883 1.388 . S
C2885 C2886 1.366 . S
C2886 C2885 1.366 . S
C2886 C2887 1.414 . S
C2886 C2889 1.499 . S
C2887 H2861 0.950 . S
C2887 C2886 1.414 . S
C2887 C2888 1.374 . S
C2888 H2862 0.950 . S
C2888 C2884 1.385 . S
C2888 C2887 1.374 . S
C2889 C2886 1.499 . S
C2889 C2890 1.373 . S
C2889 C2891 1.389 . S
C2890 H2863 0.950 . S
C2890 C2876 1.377 . S
C2890 C2889 1.373 . S
C2891 C2875 1.377 . S
C2891 C2889 1.389 . S
C2891 C2892 1.524 . S
C2892 C2891 1.524 . S
C2892 C2893 1.397 . S
C2892 C2897 1.363 . S
C2893 H2864 0.950 . S
C2893 C2892 1.397 . S
C2893 C2894 1.334 . S
C2894 H2865 0.950 . S
C2894 C2893 1.334 . S
C2894 C2895 1.287 . S
C2895 C2894 1.287 . S
C2895 C2896 1.524 . S
C2895 H2898 0.999 . S
C2896 H2866 0.950 . S
C2896 C2895 1.524 . S
C2896 C2897 1.415 . S
C2897 H2867 0.950 . S
C2897 C2892 1.363 . S
C2897 C2896 1.415 . S
H2898 C2895 0.999 . S
H2899 C2880 0.913 . S
H2900 C2918 0.951 . S
H2901 C2920 0.951 . S
H2902 C2922 0.950 . S
H2903 C2923 0.950 . S
H2904 C2925 0.950 . S
H2905 C2928 0.950 . S
H2906 C2929 0.950 . S
H2907 C2931 0.950 . S
H2908 C2932 0.950 . S
H2909 C2933 0.951 . S
H2910 C2935 0.951 . S
H2911 C2937 0.950 . S
H2912 C2938 0.950 . S
H2913 C2940 0.950 . S
H2914 C2943 0.950 . S
H2915 C2944 0.950 . S
H2916 C2946 0.950 . S
H2917 C2947 0.950 . S
C2918 H2900 0.951 . S
C2918 C2919 1.366 1_565 S
C2918 C2920 1.388 . S
C2919 C2918 1.366 1_545 S
C2919 C2923 1.385 . S
C2920 H2901 0.951 . S
C2920 C2918 1.388 . S
C2920 C2921 1.359 1_565 S
C2921 C2920 1.359 1_545 S
C2921 C2922 1.422 . S
C2921 C2924 1.498 1_545 S
C2922 H2902 0.950 . S
C2922 C2921 1.422 . S
C2922 C2923 1.374 . S
C2923 H2903 0.950 . S
C2923 C2919 1.385 . S
C2923 C2922 1.374 . S
C2924 C2921 1.498 1_565 S
C2924 C2925 1.360 1_565 S
C2924 C2926 1.403 . S
C2925 H2904 0.950 . S
C2925 C2924 1.360 1_545 S
C2925 C2941 1.377 . S
C2926 C2924 1.403 . S
C2926 C2927 1.524 . S
C2926 C2940 1.377 . S
C2927 C2926 1.524 . S
C2927 C2928 1.397 . S
C2927 C2932 1.363 . S
C2928 H2905 0.950 . S
C2928 C2927 1.397 . S
C2928 C2929 1.334 . S
C2929 H2906 0.950 . S
C2929 C2928 1.334 . S
C2929 C2930 1.287 . S
C2930 C2929 1.287 . S
C2930 C2931 1.524 . S
C2930 H2949 0.913 . S
C2931 H2907 0.950 . S
C2931 C2930 1.524 . S
C2931 C2932 1.415 . S
C2932 H2908 0.950 . S
C2932 C2927 1.363 . S
C2932 C2931 1.415 . S
C2933 H2909 0.951 . S
C2933 C2934 1.366 1_545 S
C2933 C2935 1.388 . S
C2934 C2933 1.366 1_565 S
C2934 C2938 1.385 . S
C2935 H2910 0.951 . S
C2935 C2933 1.388 . S
C2935 C2936 1.366 1_545 S
C2936 C2935 1.366 1_565 S
C2936 C2937 1.414 . S
C2936 C2939 1.501 . S
C2937 H2911 0.950 . S
C2937 C2936 1.414 . S
C2937 C2938 1.374 . S
C2938 H2912 0.950 . S
C2938 C2934 1.385 . S
C2938 C2937 1.374 . S
C2939 C2936 1.501 . S
C2939 C2940 1.417 . S
C2939 C2941 1.346 1_565 S
C2940 H2913 0.950 . S
C2940 C2926 1.377 . S
C2940 C2939 1.417 . S
C2941 C2925 1.377 . S
C2941 C2939 1.346 1_545 S
C2941 C2942 1.524 . S
C2942 C2941 1.524 . S
C2942 C2943 1.397 . S
C2942 C2947 1.363 . S
C2943 H2914 0.950 . S
C2943 C2942 1.397 . S
C2943 C2944 1.334 . S
C2944 H2915 0.950 . S
C2944 C2943 1.334 . S
C2944 C2945 1.287 . S
C2945 C2944 1.287 . S
C2945 C2946 1.524 . S
C2945 H2948 0.999 . S
C2946 H2916 0.950 . S
C2946 C2945 1.524 . S
C2946 C2947 1.415 . S
C2947 H2917 0.950 . S
C2947 C2942 1.363 . S
C2947 C2946 1.415 . S
H2948 C2945 0.999 . S
H2949 C2930 0.913 . S
H2950 C2968 0.951 . S
H2951 C2970 0.951 . S
H2952 C2972 0.950 . S
H2953 C2973 0.950 . S
H2954 C2975 0.950 . S
H2955 C2978 0.950 . S
H2956 C2979 0.950 . S
H2957 C2981 0.950 . S
H2958 C2982 0.950 . S
H2959 C2983 0.951 . S
H2960 C2985 0.951 . S
H2961 C2987 0.950 . S
H2962 C2988 0.950 . S
H2963 C2990 0.950 . S
H2964 C2993 0.950 . S
H2965 C2994 0.950 . S
H2966 C2996 0.950 . S
H2967 C2997 0.950 . S
C2968 H2950 0.951 . S
C2968 C2969 1.366 . S
C2968 C2970 1.388 . S
C2969 C2968 1.366 . S
C2969 C2973 1.385 . S
C2970 H2951 0.951 . S
C2970 C2968 1.388 . S
C2970 C2971 1.366 . S
C2971 C2970 1.366 . S
C2971 C2972 1.414 . S
C2971 C2974 1.499 . S
C2972 H2952 0.950 . S
C2972 C2971 1.414 . S
C2972 C2973 1.374 . S
C2973 H2953 0.950 . S
C2973 C2969 1.385 . S
C2973 C2972 1.374 . S
C2974 C2971 1.499 . S
C2974 C2975 1.373 . S
C2974 C2976 1.389 . S
C2975 H2954 0.950 . S
C2975 C2974 1.373 . S
C2975 C2991 1.377 . S
C2976 C2974 1.389 . S
C2976 C2977 1.524 . S
C2976 C2990 1.377 . S
C2977 C2976 1.524 . S
C2977 C2978 1.397 . S
C2977 C2982 1.363 . S
C2978 H2955 0.950 . S
C2978 C2977 1.397 . S
C2978 C2979 1.334 . S
C2979 H2956 0.950 . S
C2979 C2978 1.334 . S
C2979 C2980 1.287 . S
C2980 C2979 1.287 . S
C2980 C2981 1.524 . S
C2980 H2999 0.913 . S
C2981 H2957 0.950 . S
C2981 C2980 1.524 . S
C2981 C2982 1.415 . S
C2982 H2958 0.950 . S
C2982 C2977 1.363 . S
C2982 C2981 1.415 . S
C2983 H2959 0.951 . S
C2983 C2984 1.366 . S
C2983 C2985 1.388 . S
C2984 C2983 1.366 . S
C2984 C2988 1.385 . S
C2985 H2960 0.951 . S
C2985 C2983 1.388 . S
C2985 C2986 1.366 . S
C2986 C2985 1.366 . S
C2986 C2987 1.414 . S
C2986 C2989 1.499 . S
C2987 H2961 0.950 . S
C2987 C2986 1.414 . S
C2987 C2988 1.374 . S
C2988 H2962 0.950 . S
C2988 C2984 1.385 . S
C2988 C2987 1.374 . S
C2989 C2986 1.499 . S
C2989 C2990 1.373 . S
C2989 C2991 1.389 . S
C2990 H2963 0.950 . S
C2990 C2976 1.377 . S
C2990 C2989 1.373 . S
C2991 C2975 1.377 . S
C2991 C2989 1.389 . S
C2991 C2992 1.524 . S
C2992 C2991 1.524 . S
C2992 C2993 1.397 . S
C2992 C2997 1.363 . S
C2993 H2964 0.950 . S
C2993 C2992 1.397 . S
C2993 C2994 1.334 . S
C2994 H2965 0.950 . S
C2994 C2993 1.334 . S
C2994 C2995 1.287 . S
C2995 C2994 1.287 . S
C2995 C2996 1.524 . S
C2995 H2998 0.999 . S
C2996 H2966 0.950 . S
C2996 C2995 1.524 . S
C2996 C2997 1.415 . S
C2997 H2967 0.950 . S
C2997 C2992 1.363 . S
C2997 C2996 1.415 . S
H2998 C2995 0.999 . S
H2999 C2980 0.913 . S
H3000 C3018 0.951 . S
H3001 C3020 0.951 . S
H3002 C3022 0.950 . S
H3003 C3023 0.950 . S
H3004 C3025 0.950 . S
H3005 C3028 0.950 . S
H3006 C3029 0.950 . S
H3007 C3031 0.950 . S
H3008 C3032 0.965 . S
H3009 C3033 0.951 . S
H3010 C3035 0.951 . S
H3011 C3037 0.950 . S
H3012 C3038 0.950 . S
H3013 C3040 0.950 . S
H3014 C3043 0.950 . S
H3015 C3044 0.950 . S
H3016 C3046 0.950 . S
H3017 C3047 0.950 1_565 S
C3018 H3000 0.951 . S
C3018 C3019 1.363 . S
C3018 C3020 1.388 . S
C3019 C3018 1.363 . S
C3019 C3023 1.388 1_545 S
C3020 H3001 0.951 . S
C3020 C3018 1.388 . S
C3020 C3021 1.366 1_545 S
C3021 C3020 1.366 1_565 S
C3021 C3022 1.414 . S
C3021 C3024 1.499 . S
C3022 H3002 0.950 . S
C3022 C3021 1.414 . S
C3022 C3023 1.374 . S
C3023 H3003 0.950 . S
C3023 C3019 1.388 1_565 S
C3023 C3022 1.374 . S
C3024 C3021 1.499 . S
C3024 C3025 1.373 1_565 S
C3024 C3026 1.389 . S
C3025 H3004 0.950 . S
C3025 C3024 1.373 1_545 S
C3025 C3041 1.377 . S
C3026 C3024 1.389 . S
C3026 C3027 1.524 . S
C3026 C3040 1.377 . S
C3027 C3026 1.524 . S
C3027 C3028 1.397 . S
C3027 C3032 1.363 . S
C3028 H3005 0.950 . S
C3028 C3027 1.397 . S
C3028 C3029 1.334 . S
C3029 H3006 0.950 . S
C3029 C3028 1.334 . S
C3029 C3030 1.287 . S
C3030 C3029 1.287 . S
C3030 C3031 1.524 . S
C3030 H3049 0.913 . S
C3031 H3007 0.950 . S
C3031 C3030 1.524 . S
C3031 C3032 1.415 . S
C3032 H3008 0.965 . S
C3032 C3027 1.363 . S
C3032 C3031 1.415 . S
C3033 H3009 0.951 . S
C3033 C3034 1.366 . S
C3033 C3035 1.388 . S
C3034 C3033 1.366 . S
C3034 C3038 1.385 1_565 S
C3035 H3010 0.951 . S
C3035 C3033 1.388 . S
C3035 C3036 1.366 . S
C3036 C3035 1.366 . S
C3036 C3037 1.414 1_565 S
C3036 C3039 1.499 . S
C3037 H3011 0.950 . S
C3037 C3036 1.414 1_545 S
C3037 C3038 1.374 . S
C3038 H3012 0.950 . S
C3038 C3034 1.385 1_545 S
C3038 C3037 1.374 . S
C3039 C3036 1.499 . S
C3039 C3040 1.373 . S
C3039 C3041 1.389 1_565 S
C3040 H3013 0.950 . S
C3040 C3026 1.377 . S
C3040 C3039 1.373 . S
C3041 C3025 1.377 . S
C3041 C3039 1.389 1_545 S
C3041 C3042 1.524 . S
C3042 C3041 1.524 . S
C3042 C3043 1.397 . S
C3042 C3047 1.363 . S
C3043 H3014 0.950 . S
C3043 C3042 1.397 . S
C3043 C3044 1.334 1_655 S
C3044 H3015 0.950 . S
C3044 C3043 1.334 1_455 S
C3044 C3045 1.287 . S
C3045 C3044 1.287 . S
C3045 C3046 1.524 . S
C3045 H3048 0.999 . S
C3046 H3016 0.950 . S
C3046 C3045 1.524 . S
C3046 C3047 1.415 1_455 S
C3047 H3017 0.950 1_545 S
C3047 C3042 1.363 . S
C3047 C3046 1.415 1_655 S
H3048 C3045 0.999 . S
H3049 C3030 0.913 . S
H3050 C3068 0.951 . S
H3051 C3070 0.951 . S
H3052 C3072 0.950 . S
H3053 C3073 0.950 . S
H3054 C3075 0.950 . S
H3055 C3078 0.950 . S
H3056 C3079 0.950 . S
H3057 C3081 0.950 . S
H3058 C3082 0.950 . S
H3059 C3083 0.951 . S
H3060 C3085 0.951 . S
H3061 C3087 0.950 . S
H3062 C3088 0.950 . S
H3063 C3090 0.950 . S
H3064 C3093 0.950 . S
H3065 C3094 0.950 . S
H3066 C3096 0.950 . S
H3067 C3097 0.950 . S
C3068 H3050 0.951 . S
C3068 C3069 1.366 . S
C3068 C3070 1.388 . S
C3069 C3068 1.366 . S
C3069 C3073 1.385 . S
C3070 H3051 0.951 . S
C3070 C3068 1.388 . S
C3070 C3071 1.366 . S
C3071 C3070 1.366 . S
C3071 C3072 1.414 . S
C3071 C3074 1.499 . S
C3072 H3052 0.950 . S
C3072 C3071 1.414 . S
C3072 C3073 1.374 . S
C3073 H3053 0.950 . S
C3073 C3069 1.385 . S
C3073 C3072 1.374 . S
C3074 C3071 1.499 . S
C3074 C3075 1.373 . S
C3074 C3076 1.389 . S
C3075 H3054 0.950 . S
C3075 C3074 1.373 . S
C3075 C3091 1.377 . S
C3076 C3074 1.389 . S
C3076 C3077 1.524 . S
C3076 C3090 1.377 . S
C3077 C3076 1.524 . S
C3077 C3078 1.397 . S
C3077 C3082 1.363 . S
C3078 H3055 0.950 . S
C3078 C3077 1.397 . S
C3078 C3079 1.334 . S
C3079 H3056 0.950 . S
C3079 C3078 1.334 . S
C3079 C3080 1.287 . S
C3080 C3079 1.287 . S
C3080 C3081 1.524 . S
C3080 H3099 0.913 . S
C3081 H3057 0.950 . S
C3081 C3080 1.524 . S
C3081 C3082 1.415 . S
C3082 H3058 0.950 . S
C3082 C3077 1.363 . S
C3082 C3081 1.415 . S
C3083 H3059 0.951 . S
C3083 C3084 1.366 . S
C3083 C3085 1.388 . S
C3084 C3083 1.366 . S
C3084 C3088 1.385 . S
C3085 H3060 0.951 . S
C3085 C3083 1.388 . S
C3085 C3086 1.366 . S
C3086 C3085 1.366 . S
C3086 C3087 1.414 . S
C3086 C3089 1.499 . S
C3087 H3061 0.950 . S
C3087 C3086 1.414 . S
C3087 C3088 1.374 . S
C3088 H3062 0.950 . S
C3088 C3084 1.385 . S
C3088 C3087 1.374 . S
C3089 C3086 1.499 . S
C3089 C3090 1.373 . S
C3089 C3091 1.389 . S
C3090 H3063 0.950 . S
C3090 C3076 1.377 . S
C3090 C3089 1.373 . S
C3091 C3075 1.377 . S
C3091 C3089 1.389 . S
C3091 C3092 1.524 . S
C3092 C3091 1.524 . S
C3092 C3093 1.397 . S
C3092 C3097 1.363 . S
C3093 H3064 0.950 . S
C3093 C3092 1.397 . S
C3093 C3094 1.334 . S
C3094 H3065 0.950 . S
C3094 C3093 1.334 . S
C3094 C3095 1.287 . S
C3095 C3094 1.287 . S
C3095 C3096 1.524 . S
C3095 H3098 0.999 . S
C3096 H3066 0.950 . S
C3096 C3095 1.524 . S
C3096 C3097 1.415 . S
C3097 H3067 0.950 . S
C3097 C3092 1.363 . S
C3097 C3096 1.415 . S
H3098 C3095 0.999 . S
H3099 C3080 0.913 . S
H3100 C3118 0.954 . S
H3101 C3120 0.951 . S
H3102 C3122 0.950 . S
H3103 C3123 0.950 . S
H3104 C3125 0.950 . S
H3105 C3128 0.950 . S
H3106 C3129 0.950 . S
H3107 C3131 0.950 . S
H3108 C3132 0.950 . S
H3109 C3133 0.951 . S
H3110 C3135 0.951 . S
H3111 C3137 0.950 . S
H3112 C3138 0.950 . S
H3113 C3140 0.950 . S
H3114 C3143 0.950 . S
H3115 C3144 0.950 . S
H3116 C3146 0.950 . S
H3117 C3147 0.950 . S
C3118 H3100 0.954 . S
C3118 C3119 1.366 . S
C3118 C3120 1.388 . S
C3119 C3118 1.366 . S
C3119 C3123 1.385 . S
C3120 H3101 0.951 . S
C3120 C3118 1.388 . S
C3120 C3121 1.366 . S
C3121 C3120 1.366 . S
C3121 C3122 1.414 . S
C3121 C3124 1.499 . S
C3122 H3102 0.950 . S
C3122 C3121 1.414 . S
C3122 C3123 1.374 . S
C3123 H3103 0.950 . S
C3123 C3119 1.385 . S
C3123 C3122 1.374 . S
C3124 C3121 1.499 . S
C3124 C3125 1.373 . S
C3124 C3126 1.389 1_545 S
C3125 H3104 0.950 . S
C3125 C3124 1.373 . S
C3125 C3141 1.377 . S
C3126 C3124 1.389 1_565 S
C3126 C3127 1.524 . S
C3126 C3140 1.377 . S
C3127 C3126 1.524 . S
C3127 C3128 1.397 . S
C3127 C3132 1.363 . S
C3128 H3105 0.950 . S
C3128 C3127 1.397 . S
C3128 C3129 1.334 . S
C3129 H3106 0.950 . S
C3129 C3128 1.334 . S
C3129 C3130 1.287 . S
C3130 C3129 1.287 . S
C3130 C3131 1.524 . S
C3130 H3149 0.913 . S
C3131 H3107 0.950 . S
C3131 C3130 1.524 . S
C3131 C3132 1.415 . S
C3132 H3108 0.950 . S
C3132 C3127 1.363 . S
C3132 C3131 1.415 . S
C3133 H3109 0.951 . S
C3133 C3134 1.366 . S
C3133 C3135 1.388 . S
C3134 C3133 1.366 . S
C3134 C3138 1.385 . S
C3135 H3110 0.951 . S
C3135 C3133 1.388 . S
C3135 C3136 1.366 . S
C3136 C3135 1.366 . S
C3136 C3137 1.414 . S
C3136 C3139 1.499 . S
C3137 H3111 0.950 . S
C3137 C3136 1.414 . S
C3137 C3138 1.374 . S
C3138 H3112 0.950 . S
C3138 C3134 1.385 . S
C3138 C3137 1.374 . S
C3139 C3136 1.499 . S
C3139 C3140 1.373 1_545 S
C3139 C3141 1.389 . S
C3140 H3113 0.950 . S
C3140 C3126 1.377 . S
C3140 C3139 1.373 1_565 S
C3141 C3125 1.377 . S
C3141 C3139 1.389 . S
C3141 C3142 1.524 . S
C3142 C3141 1.524 . S
C3142 C3143 1.397 . S
C3142 C3147 1.363 . S
C3143 H3114 0.950 . S
C3143 C3142 1.397 . S
C3143 C3144 1.334 . S
C3144 H3115 0.950 . S
C3144 C3143 1.334 . S
C3144 C3145 1.287 . S
C3145 C3144 1.287 . S
C3145 C3146 1.524 . S
C3145 H3148 0.999 . S
C3146 H3116 0.950 . S
C3146 C3145 1.524 . S
C3146 C3147 1.415 . S
C3147 H3117 0.950 . S
C3147 C3142 1.363 . S
C3147 C3146 1.415 . S
H3148 C3145 0.999 . S
H3149 C3130 0.913 . S
H3150 C3168 0.951 . S
H3151 C3170 0.951 . S
H3152 C3172 0.950 . S
H3153 C3173 0.950 . S
H3154 C3175 0.950 . S
H3155 C3178 0.950 . S
H3156 C3179 0.950 . S
H3157 C3181 0.950 . S
H3158 C3182 0.950 . S
H3159 C3183 0.951 . S
H3160 C3185 0.951 . S
H3161 C3187 0.950 . S
H3162 C3188 0.950 . S
H3163 C3190 0.950 . S
H3164 C3193 0.950 . S
H3165 C3194 0.950 . S
H3166 C3196 0.950 . S
H3167 C3197 0.950 . S
C3168 H3150 0.951 . S
C3168 C3169 1.366 . S
C3168 C3170 1.388 . S
C3169 C3168 1.366 . S
C3169 C3173 1.385 . S
C3170 H3151 0.951 . S
C3170 C3168 1.388 . S
C3170 C3171 1.366 . S
C3171 C3170 1.366 . S
C3171 C3172 1.414 . S
C3171 C3174 1.499 . S
C3172 H3152 0.950 . S
C3172 C3171 1.414 . S
C3172 C3173 1.374 . S
C3173 H3153 0.950 . S
C3173 C3169 1.385 . S
C3173 C3172 1.374 . S
C3174 C3171 1.499 . S
C3174 C3175 1.373 . S
C3174 C3176 1.389 . S
C3175 H3154 0.950 . S
C3175 C3174 1.373 . S
C3175 C3191 1.377 . S
C3176 C3174 1.389 . S
C3176 C3177 1.524 . S
C3176 C3190 1.377 . S
C3177 C3176 1.524 . S
C3177 C3178 1.397 . S
C3177 C3182 1.363 . S
C3178 H3155 0.950 . S
C3178 C3177 1.397 . S
C3178 C3179 1.334 . S
C3179 H3156 0.950 . S
C3179 C3178 1.334 . S
C3179 C3180 1.287 . S
C3180 C3179 1.287 . S
C3180 C3181 1.524 . S
C3180 H3199 0.913 . S
C3181 H3157 0.950 . S
C3181 C3180 1.524 . S
C3181 C3182 1.415 . S
C3182 H3158 0.950 . S
C3182 C3177 1.363 . S
C3182 C3181 1.415 . S
C3183 H3159 0.951 . S
C3183 C3184 1.366 . S
C3183 C3185 1.388 . S
C3184 C3183 1.366 . S
C3184 C3188 1.385 . S
C3185 H3160 0.951 . S
C3185 C3183 1.388 . S
C3185 C3186 1.366 . S
C3186 C3185 1.366 . S
C3186 C3187 1.414 . S
C3186 C3189 1.499 . S
C3187 H3161 0.950 . S
C3187 C3186 1.414 . S
C3187 C3188 1.374 . S
C3188 H3162 0.950 . S
C3188 C3184 1.385 . S
C3188 C3187 1.374 . S
C3189 C3186 1.499 . S
C3189 C3190 1.373 . S
C3189 C3191 1.389 . S
C3190 H3163 0.950 . S
C3190 C3176 1.377 . S
C3190 C3189 1.373 . S
C3191 C3175 1.377 . S
C3191 C3189 1.389 . S
C3191 C3192 1.524 . S
C3192 C3191 1.524 . S
C3192 C3193 1.397 . S
C3192 C3197 1.363 . S
C3193 H3164 0.950 . S
C3193 C3192 1.397 . S
C3193 C3194 1.334 . S
C3194 H3165 0.950 . S
C3194 C3193 1.334 . S
C3194 C3195 1.287 . S
C3195 C3194 1.287 . S
C3195 C3196 1.524 . S
C3195 H3198 0.999 . S
C3196 H3166 0.950 . S
C3196 C3195 1.524 . S
C3196 C3197 1.415 . S
C3197 H3167 0.950 . S
C3197 C3192 1.363 . S
C3197 C3196 1.415 . S
H3198 C3195 0.999 . S
H3199 C3180 0.913 . S
H3200 C3218 0.939 1_556 S
H3201 C3220 0.933 1_556 S
H3202 C3222 0.950 . S
H3203 C3223 0.950 . S
H3204 C3225 0.950 . S
H3205 C3228 0.950 . S
H3206 C3229 0.950 . S
H3207 C3231 0.950 . S
H3208 C3232 0.950 . S
H3209 C3233 0.951 . S
H3210 C3235 0.951 . S
H3211 C3237 0.936 1_556 S
H3212 C3238 0.961 1_545 S
H3213 C3240 0.950 . S
H3214 C3243 0.950 . S
H3215 C3244 0.950 . S
H3216 C3246 0.950 . S
H3217 C3247 0.950 . S
C3218 H3200 0.939 1_554 S
C3218 C3219 1.378 . S
C3218 C3220 1.388 . S
C3219 C3218 1.378 . S
C3219 C3223 1.385 . S
C3220 H3201 0.933 1_554 S
C3220 C3218 1.388 . S
C3220 C3221 1.385 . S
C3221 C3220 1.385 . S
C3221 C3222 1.414 . S
C3221 C3224 1.499 . S
C3222 H3202 0.950 . S
C3222 C3221 1.414 . S
C3222 C3223 1.374 . S
C3223 H3203 0.950 . S
C3223 C3219 1.385 . S
C3223 C3222 1.374 . S
C3224 C3221 1.499 . S
C3224 C3225 1.373 . S
C3224 C3226 1.389 1_554 S
C3225 H3204 0.950 . S
C3225 C3224 1.373 . S
C3225 C3241 1.377 . S
C3226 C3224 1.389 1_556 S
C3226 C3227 1.524 . S
C3226 C3240 1.377 . S
C3227 C3226 1.524 . S
C3227 C3228 1.397 . S
C3227 C3232 1.363 . S
C3228 H3205 0.950 . S
C3228 C3227 1.397 . S
C3228 C3229 1.334 . S
C3229 H3206 0.950 . S
C3229 C3228 1.334 . S
C3229 C3230 1.287 . S
C3230 C3229 1.287 . S
C3230 C3231 1.524 . S
C3230 H3249 0.913 . S
C3231 H3207 0.950 . S
C3231 C3230 1.524 . S
C3231 C3232 1.415 . S
C3232 H3208 0.950 . S
C3232 C3227 1.363 . S
C3232 C3231 1.415 . S
C3233 H3209 0.951 . S
C3233 C3234 1.366 . S
C3233 C3235 1.388 . S
C3234 C3233 1.366 . S
C3234 C3238 1.385 . S
C3235 H3210 0.951 . S
C3235 C3233 1.388 . S
C3235 C3236 1.366 . S
C3236 C3235 1.366 . S
C3236 C3237 1.414 . S
C3236 C3239 1.499 . S
C3237 H3211 0.936 1_554 S
C3237 C3236 1.414 . S
C3237 C3238 1.374 . S
C3238 H3212 0.961 1_565 S
C3238 C3234 1.385 . S
C3238 C3237 1.374 . S
C3239 C3236 1.499 . S
C3239 C3240 1.373 1_554 S
C3239 C3241 1.389 . S
C3240 H3213 0.950 . S
C3240 C3226 1.377 . S
C3240 C3239 1.373 1_556 S
C3241 C3225 1.377 . S
C3241 C3239 1.389 . S
C3241 C3242 1.524 . S
C3242 C3241 1.524 . S
C3242 C3243 1.397 . S
C3242 C3247 1.363 . S
C3243 H3214 0.950 . S
C3243 C3242 1.397 . S
C3243 C3244 1.334 . S
C3244 H3215 0.950 . S
C3244 C3243 1.334 . S
C3244 C3245 1.287 . S
C3245 C3244 1.287 . S
C3245 C3246 1.524 . S
C3245 H3248 0.999 . S
C3246 H3216 0.950 . S
C3246 C3245 1.524 . S
C3246 C3247 1.415 . S
C3247 H3217 0.950 . S
C3247 C3242 1.363 . S
C3247 C3246 1.415 . S
H3248 C3245 0.999 . S
H3249 C3230 0.913 . S
H3250 C3268 0.951 . S
H3251 C3270 0.951 . S
H3252 C3272 0.950 . S
H3253 C3273 0.950 . S
H3254 C3275 0.950 1_554 S
H3255 C3278 0.950 . S
H3256 C3279 0.950 . S
H3257 C3281 0.950 1_554 S
H3258 C3282 0.949 . S
H3259 C3283 0.951 . S
H3260 C3285 0.951 . S
H3261 C3287 0.950 . S
H3262 C3288 0.950 . S
H3263 C3290 0.950 . S
H3264 C3293 0.950 . S
H3265 C3294 0.950 . S
H3266 C3296 0.928 1_556 S
H3267 C3297 0.950 . S
C3268 H3250 0.951 . S
C3268 C3269 1.366 1_554 S
C3268 C3270 1.388 . S
C3269 C3268 1.366 1_556 S
C3269 C3273 1.385 . S
C3270 H3251 0.951 . S
C3270 C3268 1.388 . S
C3270 C3271 1.366 1_554 S
C3271 C3270 1.366 1_556 S
C3271 C3272 1.414 . S
C3271 C3274 1.499 . S
C3272 H3252 0.950 . S
C3272 C3271 1.414 . S
C3272 C3273 1.374 . S
C3273 H3253 0.950 . S
C3273 C3269 1.385 . S
C3273 C3272 1.374 . S
C3274 C3271 1.499 . S
C3274 C3275 1.373 . S
C3274 C3276 1.389 . S
C3275 H3254 0.950 1_556 S
C3275 C3274 1.373 . S
C3275 C3291 1.375 1_556 S
C3276 C3274 1.389 . S
C3276 C3277 1.524 . S
C3276 C3290 1.377 . S
C3277 C3276 1.524 . S
C3277 C3278 1.397 . S
C3277 C3282 1.363 1_556 S
C3278 H3255 0.950 . S
C3278 C3277 1.397 . S
C3278 C3279 1.334 . S
C3279 H3256 0.950 . S
C3279 C3278 1.334 . S
C3279 C3280 1.287 . S
C3280 C3279 1.287 . S
C3280 C3281 1.524 . S
C3280 H3299 0.913 . S
C3281 H3257 0.950 1_556 S
C3281 C3280 1.524 . S
C3281 C3282 1.415 1_556 S
C3282 H3258 0.949 . S
C3282 C3277 1.363 1_554 S
C3282 C3281 1.415 1_554 S
C3283 H3259 0.951 . S
C3283 C3284 1.366 . S
C3283 C3285 1.388 . S
C3284 C3283 1.366 . S
C3284 C3288 1.385 1_556 S
C3285 H3260 0.951 . S
C3285 C3283 1.388 . S
C3285 C3286 1.366 . S
C3286 C3285 1.366 . S
C3286 C3287 1.414 1_556 S
C3286 C3289 1.499 . S
C3287 H3261 0.950 . S
C3287 C3286 1.414 1_554 S
C3287 C3288 1.374 . S
C3288 H3262 0.950 . S
C3288 C3284 1.385 1_554 S
C3288 C3287 1.374 . S
C3289 C3286 1.499 . S
C3289 C3290 1.373 . S
C3289 C3291 1.385 1_556 S
C3290 H3263 0.950 . S
C3290 C3276 1.377 . S
C3290 C3289 1.373 . S
C3291 C3275 1.375 1_554 S
C3291 C3289 1.385 1_554 S
C3291 C3292 1.536 . S
C3292 C3291 1.536 . S
C3292 C3293 1.397 . S
C3292 C3297 1.363 1_554 S
C3293 H3264 0.950 . S
C3293 C3292 1.397 . S
C3293 C3294 1.334 . S
C3294 H3265 0.950 . S
C3294 C3293 1.334 . S
C3294 C3295 1.287 . S
C3295 C3294 1.287 . S
C3295 C3296 1.561 . S
C3295 H3298 0.999 . S
C3296 H3266 0.928 1_554 S
C3296 C3295 1.561 . S
C3296 C3297 1.404 1_554 S
C3297 H3267 0.950 . S
C3297 C3292 1.363 1_556 S
C3297 C3296 1.404 1_556 S
H3298 C3295 0.999 . S
H3299 C3280 0.913 . S
H3300 C3318 0.951 . S
H3301 C3320 0.951 . S
H3302 C3322 0.950 . S
H3303 C3323 0.950 . S
H3304 C3325 0.950 . S
H3305 C3328 0.950 . S
H3306 C3329 0.950 . S
H3307 C3331 0.950 . S
H3308 C3332 0.950 . S
H3309 C3333 0.951 . S
H3310 C3335 0.951 . S
H3311 C3337 0.950 . S
H3312 C3338 0.950 . S
H3313 C3340 0.950 . S
H3314 C3343 0.950 . S
H3315 C3344 0.950 . S
H3316 C3346 0.950 . S
H3317 C3347 0.950 . S
C3318 H3300 0.951 . S
C3318 C3319 1.366 . S
C3318 C3320 1.388 . S
C3319 C3318 1.366 . S
C3319 C3323 1.385 . S
C3320 H3301 0.951 . S
C3320 C3318 1.388 . S
C3320 C3321 1.366 . S
C3321 C3320 1.366 . S
C3321 C3322 1.414 . S
C3321 C3324 1.499 . S
C3322 H3302 0.950 . S
C3322 C3321 1.414 . S
C3322 C3323 1.374 . S
C3323 H3303 0.950 . S
C3323 C3319 1.385 . S
C3323 C3322 1.374 . S
C3324 C3321 1.499 . S
C3324 C3325 1.373 . S
C3324 C3326 1.389 . S
C3325 H3304 0.950 . S
C3325 C3324 1.373 . S
C3325 C3341 1.377 . S
C3326 C3324 1.389 . S
C3326 C3327 1.524 . S
C3326 C3340 1.377 . S
C3327 C3326 1.524 . S
C3327 C3328 1.397 . S
C3327 C3332 1.363 . S
C3328 H3305 0.950 . S
C3328 C3327 1.397 . S
C3328 C3329 1.334 . S
C3329 H3306 0.950 . S
C3329 C3328 1.334 . S
C3329 C3330 1.287 . S
C3330 C3329 1.287 . S
C3330 C3331 1.524 . S
C3330 H3349 0.913 . S
C3331 H3307 0.950 . S
C3331 C3330 1.524 . S
C3331 C3332 1.415 . S
C3332 H3308 0.950 . S
C3332 C3327 1.363 . S
C3332 C3331 1.415 . S
C3333 H3309 0.951 . S
C3333 C3334 1.366 . S
C3333 C3335 1.388 . S
C3334 C3333 1.366 . S
C3334 C3338 1.385 . S
C3335 H3310 0.951 . S
C3335 C3333 1.388 . S
C3335 C3336 1.366 . S
C3336 C3335 1.366 . S
C3336 C3337 1.414 . S
C3336 C3339 1.499 . S
C3337 H3311 0.950 . S
C3337 C3336 1.414 . S
C3337 C3338 1.374 . S
C3338 H3312 0.950 . S
C3338 C3334 1.385 . S
C3338 C3337 1.374 . S
C3339 C3336 1.499 . S
C3339 C3340 1.373 . S
C3339 C3341 1.389 . S
C3340 H3313 0.950 . S
C3340 C3326 1.377 . S
C3340 C3339 1.373 . S
C3341 C3325 1.377 . S
C3341 C3339 1.389 . S
C3341 C3342 1.524 . S
C3342 C3341 1.524 . S
C3342 C3343 1.397 . S
C3342 C3347 1.363 . S
C3343 H3314 0.950 . S
C3343 C3342 1.397 . S
C3343 C3344 1.334 . S
C3344 H3315 0.950 . S
C3344 C3343 1.334 . S
C3344 C3345 1.287 . S
C3345 C3344 1.287 . S
C3345 C3346 1.524 . S
C3345 H3348 0.999 . S
C3346 H3316 0.950 . S
C3346 C3345 1.524 . S
C3346 C3347 1.415 . S
C3347 H3317 0.950 . S
C3347 C3342 1.363 . S
C3347 C3346 1.415 . S
H3348 C3345 0.999 . S
H3349 C3330 0.913 . S
H3350 C3368 0.951 . S
H3351 C3370 0.951 . S
H3352 C3372 0.950 . S
H3353 C3373 0.950 . S
H3354 C3375 0.950 . S
H3355 C3378 0.950 . S
H3356 C3379 0.950 . S
H3357 C3381 0.950 . S
H3358 C3382 0.950 . S
H3359 C3383 0.951 . S
H3360 C3385 0.951 . S
H3361 C3387 0.950 . S
H3362 C3388 0.950 . S
H3363 C3390 0.950 . S
H3364 C3393 0.950 . S
H3365 C3394 0.950 . S
H3366 C3396 0.950 . S
H3367 C3397 0.950 . S
C3368 H3350 0.951 . S
C3368 C3369 1.366 . S
C3368 C3370 1.388 . S
C3369 C3368 1.366 . S
C3369 C3373 1.385 . S
C3370 H3351 0.951 . S
C3370 C3368 1.388 . S
C3370 C3371 1.366 . S
C3371 C3370 1.366 . S
C3371 C3372 1.414 . S
C3371 C3374 1.499 . S
C3372 H3352 0.950 . S
C3372 C3371 1.414 . S
C3372 C3373 1.374 . S
C3373 H3353 0.950 . S
C3373 C3369 1.385 . S
C3373 C3372 1.374 . S
C3374 C3371 1.499 . S
C3374 C3375 1.373 . S
C3374 C3376 1.389 . S
C3375 H3354 0.950 . S
C3375 C3374 1.373 . S
C3375 C3391 1.377 . S
C3376 C3374 1.389 . S
C3376 C3377 1.524 . S
C3376 C3390 1.377 . S
C3377 C3376 1.524 . S
C3377 C3378 1.397 . S
C3377 C3382 1.363 . S
C3378 H3355 0.950 . S
C3378 C3377 1.397 . S
C3378 C3379 1.334 . S
C3379 H3356 0.950 . S
C3379 C3378 1.334 . S
C3379 C3380 1.287 . S
C3380 C3379 1.287 . S
C3380 C3381 1.524 . S
C3380 H3399 0.913 . S
C3381 H3357 0.950 . S
C3381 C3380 1.524 . S
C3381 C3382 1.415 . S
C3382 H3358 0.950 . S
C3382 C3377 1.363 . S
C3382 C3381 1.415 . S
C3383 H3359 0.951 . S
C3383 C3384 1.366 . S
C3383 C3385 1.388 . S
C3384 C3383 1.366 . S
C3384 C3388 1.385 . S
C3385 H3360 0.951 . S
C3385 C3383 1.388 . S
C3385 C3386 1.366 . S
C3386 C3385 1.366 . S
C3386 C3387 1.414 . S
C3386 C3389 1.499 . S
C3387 H3361 0.950 . S
C3387 C3386 1.414 . S
C3387 C3388 1.374 . S
C3388 H3362 0.950 . S
C3388 C3384 1.385 . S
C3388 C3387 1.374 . S
C3389 C3386 1.499 . S
C3389 C3390 1.373 . S
C3389 C3391 1.389 . S
C3390 H3363 0.950 . S
C3390 C3376 1.377 . S
C3390 C3389 1.373 . S
C3391 C3375 1.377 . S
C3391 C3389 1.389 . S
C3391 C3392 1.524 . S
C3392 C3391 1.524 . S
C3392 C3393 1.397 . S
C3392 C3397 1.363 . S
C3393 H3364 0.950 . S
C3393 C3392 1.397 . S
C3393 C3394 1.334 . S
C3394 H3365 0.950 . S
C3394 C3393 1.334 . S
C3394 C3395 1.287 . S
C3395 C3394 1.287 . S
C3395 C3396 1.524 . S
C3395 H3398 0.999 . S
C3396 H3366 0.950 . S
C3396 C3395 1.524 . S
C3396 C3397 1.415 . S
C3397 H3367 0.950 . S
C3397 C3392 1.363 . S
C3397 C3396 1.415 . S
H3398 C3395 0.999 . S
H3399 C3380 0.913 . S
H3400 C3418 0.951 . S
H3401 C3420 0.951 . S
H3402 C3422 0.950 . S
H3403 C3423 0.950 . S
H3404 C3425 0.950 . S
H3405 C3428 0.950 . S
H3406 C3429 0.950 . S
H3407 C3431 0.950 . S
H3408 C3432 0.950 . S
H3409 C3433 0.951 . S
H3410 C3435 0.951 . S
H3411 C3437 0.950 . S
H3412 C3438 0.950 . S
H3413 C3440 0.950 . S
H3414 C3443 0.950 . S
H3415 C3444 0.950 . S
H3416 C3446 0.950 . S
H3417 C3447 0.950 . S
C3418 H3400 0.951 . S
C3418 C3419 1.366 . S
C3418 C3420 1.388 . S
C3419 C3418 1.366 . S
C3419 C3423 1.385 . S
C3420 H3401 0.951 . S
C3420 C3418 1.388 . S
C3420 C3421 1.366 . S
C3421 C3420 1.366 . S
C3421 C3422 1.414 . S
C3421 C3424 1.499 . S
C3422 H3402 0.950 . S
C3422 C3421 1.414 . S
C3422 C3423 1.374 . S
C3423 H3403 0.950 . S
C3423 C3419 1.385 . S
C3423 C3422 1.374 . S
C3424 C3421 1.499 . S
C3424 C3425 1.373 . S
C3424 C3426 1.389 . S
C3425 H3404 0.950 . S
C3425 C3424 1.373 . S
C3425 C3441 1.377 . S
C3426 C3424 1.389 . S
C3426 C3427 1.524 . S
C3426 C3440 1.377 . S
C3427 C3426 1.524 . S
C3427 C3428 1.397 . S
C3427 C3432 1.363 . S
C3428 H3405 0.950 . S
C3428 C3427 1.397 . S
C3428 C3429 1.334 . S
C3429 H3406 0.950 . S
C3429 C3428 1.334 . S
C3429 C3430 1.287 . S
C3430 C3429 1.287 . S
C3430 C3431 1.524 . S
C3430 H3449 0.913 . S
C3431 H3407 0.950 . S
C3431 C3430 1.524 . S
C3431 C3432 1.415 . S
C3432 H3408 0.950 . S
C3432 C3427 1.363 . S
C3432 C3431 1.415 . S
C3433 H3409 0.951 . S
C3433 C3434 1.366 . S
C3433 C3435 1.388 . S
C3434 C3433 1.366 . S
C3434 C3438 1.385 . S
C3435 H3410 0.951 . S
C3435 C3433 1.388 . S
C3435 C3436 1.366 . S
C3436 C3435 1.366 . S
C3436 C3437 1.414 . S
C3436 C3439 1.499 . S
C3437 H3411 0.950 . S
C3437 C3436 1.414 . S
C3437 C3438 1.374 . S
C3438 H3412 0.950 . S
C3438 C3434 1.385 . S
C3438 C3437 1.374 . S
C3439 C3436 1.499 . S
C3439 C3440 1.373 . S
C3439 C3441 1.389 . S
C3440 H3413 0.950 . S
C3440 C3426 1.377 . S
C3440 C3439 1.373 . S
C3441 C3425 1.377 . S
C3441 C3439 1.389 . S
C3441 C3442 1.524 . S
C3442 C3441 1.524 . S
C3442 C3443 1.397 . S
C3442 C3447 1.363 . S
C3443 H3414 0.950 . S
C3443 C3442 1.397 . S
C3443 C3444 1.334 . S
C3444 H3415 0.950 . S
C3444 C3443 1.334 . S
C3444 C3445 1.287 . S
C3445 C3444 1.287 . S
C3445 C3446 1.524 . S
C3445 H3448 0.999 . S
C3446 H3416 0.950 . S
C3446 C3445 1.524 . S
C3446 C3447 1.415 . S
C3447 H3417 0.950 . S
C3447 C3442 1.363 . S
C3447 C3446 1.415 . S
H3448 C3445 0.999 . S
H3449 C3430 0.913 . S
H3450 C3468 0.951 . S
H3451 C3470 0.951 . S
H3452 C3472 0.950 . S
H3453 C3473 0.950 . S
H3454 C3475 0.950 . S
H3455 C3478 0.950 . S
H3456 C3479 0.950 . S
H3457 C3481 0.950 . S
H3458 C3482 0.950 . S
H3459 C3483 0.951 . S
H3460 C3485 0.951 . S
H3461 C3487 0.950 . S
H3462 C3488 0.950 . S
H3463 C3490 0.950 . S
H3464 C3493 0.950 . S
H3465 C3494 0.950 . S
H3466 C3496 0.950 . S
H3467 C3497 0.950 . S
C3468 H3450 0.951 . S
C3468 C3469 1.366 . S
C3468 C3470 1.388 . S
C3469 C3468 1.366 . S
C3469 C3473 1.385 . S
C3470 H3451 0.951 . S
C3470 C3468 1.388 . S
C3470 C3471 1.366 . S
C3471 C3470 1.366 . S
C3471 C3472 1.414 . S
C3471 C3474 1.499 . S
C3472 H3452 0.950 . S
C3472 C3471 1.414 . S
C3472 C3473 1.374 . S
C3473 H3453 0.950 . S
C3473 C3469 1.385 . S
C3473 C3472 1.374 . S
C3474 C3471 1.499 . S
C3474 C3475 1.373 . S
C3474 C3476 1.389 . S
C3475 H3454 0.950 . S
C3475 C3474 1.373 . S
C3475 C3491 1.377 . S
C3476 C3474 1.389 . S
C3476 C3477 1.524 . S
C3476 C3490 1.377 . S
C3477 C3476 1.524 . S
C3477 C3478 1.397 . S
C3477 C3482 1.363 . S
C3478 H3455 0.950 . S
C3478 C3477 1.397 . S
C3478 C3479 1.334 . S
C3479 H3456 0.950 . S
C3479 C3478 1.334 . S
C3479 C3480 1.287 . S
C3480 C3479 1.287 . S
C3480 C3481 1.524 . S
C3480 H3499 0.913 . S
C3481 H3457 0.950 . S
C3481 C3480 1.524 . S
C3481 C3482 1.415 . S
C3482 H3458 0.950 . S
C3482 C3477 1.363 . S
C3482 C3481 1.415 . S
C3483 H3459 0.951 . S
C3483 C3484 1.366 . S
C3483 C3485 1.388 . S
C3484 C3483 1.366 . S
C3484 C3488 1.385 . S
C3485 H3460 0.951 . S
C3485 C3483 1.388 . S
C3485 C3486 1.366 . S
C3486 C3485 1.366 . S
C3486 C3487 1.414 . S
C3486 C3489 1.499 . S
C3487 H3461 0.950 . S
C3487 C3486 1.414 . S
C3487 C3488 1.374 . S
C3488 H3462 0.950 . S
C3488 C3484 1.385 . S
C3488 C3487 1.374 . S
C3489 C3486 1.499 . S
C3489 C3490 1.373 . S
C3489 C3491 1.389 . S
C3490 H3463 0.950 . S
C3490 C3476 1.377 . S
C3490 C3489 1.373 . S
C3491 C3475 1.377 . S
C3491 C3489 1.389 . S
C3491 C3492 1.524 . S
C3492 C3491 1.524 . S
C3492 C3493 1.397 . S
C3492 C3497 1.363 . S
C3493 H3464 0.950 . S
C3493 C3492 1.397 . S
C3493 C3494 1.334 . S
C3494 H3465 0.950 . S
C3494 C3493 1.334 . S
C3494 C3495 1.287 . S
C3495 C3494 1.287 . S
C3495 C3496 1.524 . S
C3495 H3498 0.999 . S
C3496 H3466 0.950 . S
C3496 C3495 1.524 . S
C3496 C3497 1.415 . S
C3497 H3467 0.950 . S
C3497 C3492 1.363 . S
C3497 C3496 1.415 . S
H3498 C3495 0.999 . S
H3499 C3480 0.913 . S
H3500 C3518 0.951 . S
H3501 C3520 0.951 . S
H3502 C3522 0.950 . S
H3503 C3523 0.950 . S
H3504 C3525 0.950 . S
H3505 C3528 0.950 . S
H3506 C3529 0.950 . S
H3507 C3531 0.950 . S
H3508 C3532 0.950 . S
H3509 C3533 0.951 . S
H3510 C3535 0.951 . S
H3511 C3537 0.950 . S
H3512 C3538 0.950 . S
H3513 C3540 0.950 . S
H3514 C3543 0.950 . S
H3515 C3544 0.950 . S
H3516 C3546 0.950 . S
H3517 C3547 0.950 . S
C3518 H3500 0.951 . S
C3518 C3519 1.366 . S
C3518 C3520 1.388 . S
C3519 C3518 1.366 . S
C3519 C3523 1.385 . S
C3520 H3501 0.951 . S
C3520 C3518 1.388 . S
C3520 C3521 1.366 . S
C3521 C3520 1.366 . S
C3521 C3522 1.414 . S
C3521 C3524 1.499 . S
C3522 H3502 0.950 . S
C3522 C3521 1.414 . S
C3522 C3523 1.374 . S
C3523 H3503 0.950 . S
C3523 C3519 1.385 . S
C3523 C3522 1.374 . S
C3524 C3521 1.499 . S
C3524 C3525 1.373 . S
C3524 C3526 1.389 . S
C3525 H3504 0.950 . S
C3525 C3524 1.373 . S
C3525 C3541 1.377 . S
C3526 C3524 1.389 . S
C3526 C3527 1.524 . S
C3526 C3540 1.377 . S
C3527 C3526 1.524 . S
C3527 C3528 1.397 . S
C3527 C3532 1.363 . S
C3528 H3505 0.950 . S
C3528 C3527 1.397 . S
C3528 C3529 1.334 . S
C3529 H3506 0.950 . S
C3529 C3528 1.334 . S
C3529 C3530 1.287 . S
C3530 C3529 1.287 . S
C3530 C3531 1.524 . S
C3530 H3549 0.913 . S
C3531 H3507 0.950 . S
C3531 C3530 1.524 . S
C3531 C3532 1.415 . S
C3532 H3508 0.950 . S
C3532 C3527 1.363 . S
C3532 C3531 1.415 . S
C3533 H3509 0.951 . S
C3533 C3534 1.366 . S
C3533 C3535 1.388 . S
C3534 C3533 1.366 . S
C3534 C3538 1.385 . S
C3535 H3510 0.951 . S
C3535 C3533 1.388 . S
C3535 C3536 1.366 . S
C3536 C3535 1.366 . S
C3536 C3537 1.414 . S
C3536 C3539 1.499 . S
C3537 H3511 0.950 . S
C3537 C3536 1.414 . S
C3537 C3538 1.374 . S
C3538 H3512 0.950 . S
C3538 C3534 1.385 . S
C3538 C3537 1.374 . S
C3539 C3536 1.499 . S
C3539 C3540 1.373 . S
C3539 C3541 1.389 . S
C3540 H3513 0.950 . S
C3540 C3526 1.377 . S
C3540 C3539 1.373 . S
C3541 C3525 1.377 . S
C3541 C3539 1.389 . S
C3541 C3542 1.524 . S
C3542 C3541 1.524 . S
C3542 C3543 1.397 . S
C3542 C3547 1.363 . S
C3543 H3514 0.950 . S
C3543 C3542 1.397 . S
C3543 C3544 1.334 . S
C3544 H3515 0.950 . S
C3544 C3543 1.334 . S
C3544 C3545 1.287 . S
C3545 C3544 1.287 . S
C3545 C3546 1.524 . S
C3545 H3548 0.999 . S
C3546 H3516 0.950 . S
C3546 C3545 1.524 . S
C3546 C3547 1.415 . S
C3547 H3517 0.950 . S
C3547 C3542 1.363 . S
C3547 C3546 1.415 . S
H3548 C3545 0.999 . S
H3549 C3530 0.913 . S
H3550 C3568 0.951 . S
H3551 C3570 0.951 . S
H3552 C3572 0.950 . S
H3553 C3573 0.950 . S
H3554 C3575 0.950 . S
H3555 C3578 0.950 . S
H3556 C3579 0.950 . S
H3557 C3581 0.950 . S
H3558 C3582 0.950 . S
H3559 C3583 0.951 . S
H3560 C3585 0.951 . S
H3561 C3587 0.950 . S
H3562 C3588 0.950 . S
H3563 C3590 0.950 . S
H3564 C3593 0.950 . S
H3565 C3594 0.950 . S
H3566 C3596 0.950 . S
H3567 C3597 0.950 . S
C3568 H3550 0.951 . S
C3568 C3569 1.366 . S
C3568 C3570 1.388 . S
C3569 C3568 1.366 . S
C3569 C3573 1.385 . S
C3570 H3551 0.951 . S
C3570 C3568 1.388 . S
C3570 C3571 1.366 . S
C3571 C3570 1.366 . S
C3571 C3572 1.414 . S
C3571 C3574 1.499 . S
C3572 H3552 0.950 . S
C3572 C3571 1.414 . S
C3572 C3573 1.374 . S
C3573 H3553 0.950 . S
C3573 C3569 1.385 . S
C3573 C3572 1.374 . S
C3574 C3571 1.499 . S
C3574 C3575 1.373 . S
C3574 C3576 1.389 . S
C3575 H3554 0.950 . S
C3575 C3574 1.373 . S
C3575 C3591 1.377 . S
C3576 C3574 1.389 . S
C3576 C3577 1.524 . S
C3576 C3590 1.377 . S
C3577 C3576 1.524 . S
C3577 C3578 1.397 . S
C3577 C3582 1.363 . S
C3578 H3555 0.950 . S
C3578 C3577 1.397 . S
C3578 C3579 1.334 . S
C3579 H3556 0.950 . S
C3579 C3578 1.334 . S
C3579 C3580 1.287 . S
C3580 C3579 1.287 . S
C3580 C3581 1.524 . S
C3580 H3599 0.913 . S
C3581 H3557 0.950 . S
C3581 C3580 1.524 . S
C3581 C3582 1.415 . S
C3582 H3558 0.950 . S
C3582 C3577 1.363 . S
C3582 C3581 1.415 . S
C3583 H3559 0.951 . S
C3583 C3584 1.366 . S
C3583 C3585 1.388 . S
C3584 C3583 1.366 . S
C3584 C3588 1.385 . S
C3585 H3560 0.951 . S
C3585 C3583 1.388 . S
C3585 C3586 1.366 . S
C3586 C3585 1.366 . S
C3586 C3587 1.414 . S
C3586 C3589 1.499 . S
C3587 H3561 0.950 . S
C3587 C3586 1.414 . S
C3587 C3588 1.374 . S
C3588 H3562 0.950 . S
C3588 C3584 1.385 . S
C3588 C3587 1.374 . S
C3589 C3586 1.499 . S
C3589 C3590 1.373 . S
C3589 C3591 1.389 . S
C3590 H3563 0.950 . S
C3590 C3576 1.377 . S
C3590 C3589 1.373 . S
C3591 C3575 1.377 . S
C3591 C3589 1.389 . S
C3591 C3592 1.524 . S
C3592 C3591 1.524 . S
C3592 C3593 1.397 . S
C3592 C3597 1.363 . S
C3593 H3564 0.950 . S
C3593 C3592 1.397 . S
C3593 C3594 1.334 . S
C3594 H3565 0.950 . S
C3594 C3593 1.334 . S
C3594 C3595 1.287 . S
C3595 C3594 1.287 . S
C3595 C3596 1.524 . S
C3595 H3598 0.999 . S
C3596 H3566 0.950 . S
C3596 C3595 1.524 . S
C3596 C3597 1.415 . S
C3597 H3567 0.950 . S
C3597 C3592 1.363 . S
C3597 C3596 1.415 . S
H3598 C3595 0.999 . S
H3599 C3580 0.913 . S
H3600 C3618 0.951 . S
H3601 C3620 0.951 . S
H3602 C3622 0.950 . S
H3603 C3623 0.950 . S
H3604 C3625 0.950 . S
H3605 C3628 0.950 . S
H3606 C3629 0.950 . S
H3607 C3631 0.950 . S
H3608 C3632 0.950 . S
H3609 C3633 0.951 . S
H3610 C3635 0.951 . S
H3611 C3637 0.950 . S
H3612 C3638 0.950 . S
H3613 C3640 0.950 . S
H3614 C3643 0.950 . S
H3615 C3644 0.950 . S
H3616 C3646 0.950 . S
H3617 C3647 0.950 . S
C3618 H3600 0.951 . S
C3618 C3619 1.366 . S
C3618 C3620 1.388 . S
C3619 C3618 1.366 . S
C3619 C3623 1.385 . S
C3620 H3601 0.951 . S
C3620 C3618 1.388 . S
C3620 C3621 1.366 . S
C3621 C3620 1.366 . S
C3621 C3622 1.414 . S
C3621 C3624 1.499 . S
C3622 H3602 0.950 . S
C3622 C3621 1.414 . S
C3622 C3623 1.374 . S
C3623 H3603 0.950 . S
C3623 C3619 1.385 . S
C3623 C3622 1.374 . S
C3624 C3621 1.499 . S
C3624 C3625 1.373 . S
C3624 C3626 1.389 . S
C3625 H3604 0.950 . S
C3625 C3624 1.373 . S
C3625 C3641 1.377 . S
C3626 C3624 1.389 . S
C3626 C3627 1.524 . S
C3626 C3640 1.377 . S
C3627 C3626 1.524 . S
C3627 C3628 1.397 . S
C3627 C3632 1.363 . S
C3628 H3605 0.950 . S
C3628 C3627 1.397 . S
C3628 C3629 1.334 . S
C3629 H3606 0.950 . S
C3629 C3628 1.334 . S
C3629 C3630 1.287 . S
C3630 C3629 1.287 . S
C3630 C3631 1.524 . S
C3630 H3649 0.913 . S
C3631 H3607 0.950 . S
C3631 C3630 1.524 . S
C3631 C3632 1.415 . S
C3632 H3608 0.950 . S
C3632 C3627 1.363 . S
C3632 C3631 1.415 . S
C3633 H3609 0.951 . S
C3633 C3634 1.366 . S
C3633 C3635 1.388 . S
C3634 C3633 1.366 . S
C3634 C3638 1.385 . S
C3635 H3610 0.951 . S
C3635 C3633 1.388 . S
C3635 C3636 1.366 . S
C3636 C3635 1.366 . S
C3636 C3637 1.414 . S
C3636 C3639 1.499 . S
C3637 H3611 0.950 . S
C3637 C3636 1.414 . S
C3637 C3638 1.374 . S
C3638 H3612 0.950 . S
C3638 C3634 1.385 . S
C3638 C3637 1.374 . S
C3639 C3636 1.499 . S
C3639 C3640 1.373 . S
C3639 C3641 1.389 . S
C3640 H3613 0.950 . S
C3640 C3626 1.377 . S
C3640 C3639 1.373 . S
C3641 C3625 1.377 . S
C3641 C3639 1.389 . S
C3641 C3642 1.524 . S
C3642 C3641 1.524 . S
C3642 C3643 1.397 . S
C3642 C3647 1.363 . S
C3643 H3614 0.950 . S
C3643 C3642 1.397 . S
C3643 C3644 1.334 . S
C3644 H3615 0.950 . S
C3644 C3643 1.334 . S
C3644 C3645 1.287 . S
C3645 C3644 1.287 . S
C3645 C3646 1.524 . S
C3645 H3648 0.999 . S
C3646 H3616 0.950 . S
C3646 C3645 1.524 . S
C3646 C3647 1.415 . S
C3647 H3617 0.950 . S
C3647 C3642 1.363 . S
C3647 C3646 1.415 . S
H3648 C3645 0.999 . S
H3649 C3630 0.913 . S
H3650 C3668 0.951 . S
H3651 C3670 0.951 . S
H3652 C3672 0.950 . S
H3653 C3673 0.950 . S
H3654 C3675 0.950 . S
H3655 C3678 0.950 . S
H3656 C3679 0.950 . S
H3657 C3681 0.950 . S
H3658 C3682 0.950 . S
H3659 C3683 0.951 . S
H3660 C3685 0.951 . S
H3661 C3687 0.950 . S
H3662 C3688 0.950 . S
H3663 C3690 0.950 . S
H3664 C3693 0.950 . S
H3665 C3694 0.950 . S
H3666 C3696 0.950 . S
H3667 C3697 0.950 . S
C3668 H3650 0.951 . S
C3668 C3669 1.366 . S
C3668 C3670 1.388 . S
C3669 C3668 1.366 . S
C3669 C3673 1.385 . S
C3670 H3651 0.951 . S
C3670 C3668 1.388 . S
C3670 C3671 1.366 . S
C3671 C3670 1.366 . S
C3671 C3672 1.414 . S
C3671 C3674 1.499 . S
C3672 H3652 0.950 . S
C3672 C3671 1.414 . S
C3672 C3673 1.374 . S
C3673 H3653 0.950 . S
C3673 C3669 1.385 . S
C3673 C3672 1.374 . S
C3674 C3671 1.499 . S
C3674 C3675 1.373 . S
C3674 C3676 1.389 . S
C3675 H3654 0.950 . S
C3675 C3674 1.373 . S
C3675 C3691 1.377 . S
C3676 C3674 1.389 . S
C3676 C3677 1.524 . S
C3676 C3690 1.377 . S
C3677 C3676 1.524 . S
C3677 C3678 1.397 . S
C3677 C3682 1.363 . S
C3678 H3655 0.950 . S
C3678 C3677 1.397 . S
C3678 C3679 1.334 . S
C3679 H3656 0.950 . S
C3679 C3678 1.334 . S
C3679 C3680 1.287 . S
C3680 C3679 1.287 . S
C3680 C3681 1.524 . S
C3680 H3699 0.913 . S
C3681 H3657 0.950 . S
C3681 C3680 1.524 . S
C3681 C3682 1.415 . S
C3682 H3658 0.950 . S
C3682 C3677 1.363 . S
C3682 C3681 1.415 . S
C3683 H3659 0.951 . S
C3683 C3684 1.366 . S
C3683 C3685 1.388 . S
C3684 C3683 1.366 . S
C3684 C3688 1.385 . S
C3685 H3660 0.951 . S
C3685 C3683 1.388 . S
C3685 C3686 1.366 . S
C3686 C3685 1.366 . S
C3686 C3687 1.414 . S
C3686 C3689 1.499 . S
C3687 H3661 0.950 . S
C3687 C3686 1.414 . S
C3687 C3688 1.374 . S
C3688 H3662 0.950 . S
C3688 C3684 1.385 . S
C3688 C3687 1.374 . S
C3689 C3686 1.499 . S
C3689 C3690 1.373 . S
C3689 C3691 1.389 . S
C3690 H3663 0.950 . S
C3690 C3676 1.377 . S
C3690 C3689 1.373 . S
C3691 C3675 1.377 . S
C3691 C3689 1.389 . S
C3691 C3692 1.524 . S
C3692 C3691 1.524 . S
C3692 C3693 1.397 . S
C3692 C3697 1.363 . S
C3693 H3664 0.950 . S
C3693 C3692 1.397 . S
C3693 C3694 1.334 . S
C3694 H3665 0.950 . S
C3694 C3693 1.334 . S
C3694 C3695 1.287 . S
C3695 C3694 1.287 . S
C3695 C3696 1.524 . S
C3695 H3698 0.999 . S
C3696 H3666 0.950 . S
C3696 C3695 1.524 . S
C3696 C3697 1.415 . S
C3697 H3667 0.950 . S
C3697 C3692 1.363 . S
C3697 C3696 1.415 . S
H3698 C3695 0.999 . S
H3699 C3680 0.913 . S
H3700 C3718 0.951 . S
H3701 C3720 0.951 . S
H3702 C3722 0.950 . S
H3703 C3723 0.950 . S
H3704 C3725 0.950 . S
H3705 C3728 0.950 . S
H3706 C3729 0.950 . S
H3707 C3731 0.950 . S
H3708 C3732 0.950 . S
H3709 C3733 0.951 . S
H3710 C3735 0.951 . S
H3711 C3737 0.950 . S
H3712 C3738 0.950 . S
H3713 C3740 0.950 . S
H3714 C3743 0.950 1_455 S
H3715 C3744 0.950 . S
H3716 C3746 0.950 . S
H3717 C3747 0.950 . S
C3718 H3700 0.951 . S
C3718 C3719 1.366 . S
C3718 C3720 1.388 . S
C3719 C3718 1.366 . S
C3719 C3723 1.385 1_455 S
C3720 H3701 0.951 . S
C3720 C3718 1.388 . S
C3720 C3721 1.366 . S
C3721 C3720 1.366 . S
C3721 C3722 1.414 1_455 S
C3721 C3724 1.499 . S
C3722 H3702 0.950 . S
C3722 C3721 1.414 1_655 S
C3722 C3723 1.374 . S
C3723 H3703 0.950 . S
C3723 C3719 1.385 1_655 S
C3723 C3722 1.374 . S
C3724 C3721 1.499 . S
C3724 C3725 1.373 1_455 S
C3724 C3726 1.389 . S
C3725 H3704 0.950 . S
C3725 C3724 1.373 1_655 S
C3725 C3741 1.377 . S
C3726 C3724 1.389 . S
C3726 C3727 1.524 . S
C3726 C3740 1.377 . S
C3727 C3726 1.524 . S
C3727 C3728 1.397 . S
C3727 C3732 1.363 . S
C3728 H3705 0.950 . S
C3728 C3727 1.397 . S
C3728 C3729 1.334 . S
C3729 H3706 0.950 . S
C3729 C3728 1.334 . S
C3729 C3730 1.287 . S
C3730 C3729 1.287 . S
C3730 C3731 1.524 . S
C3730 H3749 0.913 . S
C3731 H3707 0.950 . S
C3731 C3730 1.524 . S
C3731 C3732 1.415 . S
C3732 H3708 0.950 . S
C3732 C3727 1.363 . S
C3732 C3731 1.415 . S
C3733 H3709 0.951 . S
C3733 C3734 1.366 1_655 S
C3733 C3735 1.388 . S
C3734 C3733 1.366 1_455 S
C3734 C3738 1.385 . S
C3735 H3710 0.951 . S
C3735 C3733 1.388 . S
C3735 C3736 1.366 1_655 S
C3736 C3735 1.366 1_455 S
C3736 C3737 1.414 . S
C3736 C3739 1.499 . S
C3737 H3711 0.950 . S
C3737 C3736 1.414 . S
C3737 C3738 1.374 . S
C3738 H3712 0.950 . S
C3738 C3734 1.385 . S
C3738 C3737 1.374 . S
C3739 C3736 1.499 . S
C3739 C3740 1.373 . S
C3739 C3741 1.389 1_455 S
C3740 H3713 0.950 . S
C3740 C3726 1.377 . S
C3740 C3739 1.373 . S
C3741 C3725 1.377 . S
C3741 C3739 1.389 1_655 S
C3741 C3742 1.524 . S
C3742 C3741 1.524 . S
C3742 C3743 1.397 . S
C3742 C3747 1.363 . S
C3743 H3714 0.950 1_655 S
C3743 C3742 1.397 . S
C3743 C3744 1.334 1_554 S
C3744 H3715 0.950 . S
C3744 C3743 1.334 1_556 S
C3744 C3745 1.287 . S
C3745 C3744 1.287 . S
C3745 C3746 1.524 1_556 S
C3745 H3748 0.999 . S
C3746 H3716 0.950 . S
C3746 C3745 1.524 1_554 S
C3746 C3747 1.415 . S
C3747 H3717 0.950 . S
C3747 C3742 1.363 . S
C3747 C3746 1.415 . S
H3748 C3745 0.999 . S
H3749 C3730 0.913 . S
H3750 C3768 0.951 . S
H3751 C3770 0.951 . S
H3752 C3772 0.950 . S
H3753 C3773 0.950 . S
H3754 C3775 0.950 . S
H3755 C3778 0.950 . S
H3756 C3779 0.950 . S
H3757 C3781 0.950 . S
H3758 C3782 0.950 . S
H3759 C3783 0.951 . S
H3760 C3785 0.951 . S
H3761 C3787 0.950 . S
H3762 C3788 0.950 . S
H3763 C3790 0.950 . S
H3764 C3793 0.950 . S
H3765 C3794 0.950 . S
H3766 C3796 0.950 . S
H3767 C3797 0.950 . S
C3768 H3750 0.951 . S
C3768 C3769 1.366 . S
C3768 C3770 1.388 . S
C3769 C3768 1.366 . S
C3769 C3773 1.385 . S
C3770 H3751 0.951 . S
C3770 C3768 1.388 . S
C3770 C3771 1.366 . S
C3771 C3770 1.366 . S
C3771 C3772 1.414 . S
C3771 C3774 1.499 . S
C3772 H3752 0.950 . S
C3772 C3771 1.414 . S
C3772 C3773 1.374 . S
C3773 H3753 0.950 . S
C3773 C3769 1.385 . S
C3773 C3772 1.374 . S
C3774 C3771 1.499 . S
C3774 C3775 1.373 . S
C3774 C3776 1.389 . S
C3775 H3754 0.950 . S
C3775 C3774 1.373 . S
C3775 C3791 1.377 . S
C3776 C3774 1.389 . S
C3776 C3777 1.524 . S
C3776 C3790 1.377 . S
C3777 C3776 1.524 . S
C3777 C3778 1.397 . S
C3777 C3782 1.363 . S
C3778 H3755 0.950 . S
C3778 C3777 1.397 . S
C3778 C3779 1.334 . S
C3779 H3756 0.950 . S
C3779 C3778 1.334 . S
C3779 C3780 1.287 . S
C3780 C3779 1.287 . S
C3780 C3781 1.524 . S
C3780 H3799 0.913 . S
C3781 H3757 0.950 . S
C3781 C3780 1.524 . S
C3781 C3782 1.415 . S
C3782 H3758 0.950 . S
C3782 C3777 1.363 . S
C3782 C3781 1.415 . S
C3783 H3759 0.951 . S
C3783 C3784 1.366 . S
C3783 C3785 1.388 . S
C3784 C3783 1.366 . S
C3784 C3788 1.385 . S
C3785 H3760 0.951 . S
C3785 C3783 1.388 . S
C3785 C3786 1.366 . S
C3786 C3785 1.366 . S
C3786 C3787 1.414 . S
C3786 C3789 1.499 . S
C3787 H3761 0.950 . S
C3787 C3786 1.414 . S
C3787 C3788 1.374 . S
C3788 H3762 0.950 . S
C3788 C3784 1.385 . S
C3788 C3787 1.374 . S
C3789 C3786 1.499 . S
C3789 C3790 1.373 . S
C3789 C3791 1.389 . S
C3790 H3763 0.950 . S
C3790 C3776 1.377 . S
C3790 C3789 1.373 . S
C3791 C3775 1.377 . S
C3791 C3789 1.389 . S
C3791 C3792 1.524 . S
C3792 C3791 1.524 . S
C3792 C3793 1.397 . S
C3792 C3797 1.363 . S
C3793 H3764 0.950 . S
C3793 C3792 1.397 . S
C3793 C3794 1.334 . S
C3794 H3765 0.950 . S
C3794 C3793 1.334 . S
C3794 C3795 1.287 . S
C3795 C3794 1.287 . S
C3795 C3796 1.524 . S
C3795 H3798 0.999 . S
C3796 H3766 0.950 . S
C3796 C3795 1.524 . S
C3796 C3797 1.415 . S
C3797 H3767 0.950 . S
C3797 C3792 1.363 . S
C3797 C3796 1.415 . S
H3798 C3795 0.999 . S
H3799 C3780 0.913 . S
H3800 C3818 0.951 . S
H3801 C3820 0.951 . S
H3802 C3822 0.950 . S
H3803 C3823 0.950 . S
H3804 C3825 0.950 . S
H3805 C3828 0.950 . S
H3806 C3829 0.950 . S
H3807 C3831 0.950 . S
H3808 C3832 0.950 . S
H3809 C3833 0.951 . S
H3810 C3835 0.951 . S
H3811 C3837 0.950 . S
H3812 C3838 0.950 . S
H3813 C3840 0.950 . S
H3814 C3843 0.950 . S
H3815 C3844 0.950 . S
H3816 C3846 0.950 . S
H3817 C3847 0.950 . S
C3818 H3800 0.951 . S
C3818 C3819 1.366 . S
C3818 C3820 1.388 . S
C3819 C3818 1.366 . S
C3819 C3823 1.385 . S
C3820 H3801 0.951 . S
C3820 C3818 1.388 . S
C3820 C3821 1.366 . S
C3821 C3820 1.366 . S
C3821 C3822 1.414 . S
C3821 C3824 1.499 . S
C3822 H3802 0.950 . S
C3822 C3821 1.414 . S
C3822 C3823 1.374 . S
C3823 H3803 0.950 . S
C3823 C3819 1.385 . S
C3823 C3822 1.374 . S
C3824 C3821 1.499 . S
C3824 C3825 1.373 . S
C3824 C3826 1.389 . S
C3825 H3804 0.950 . S
C3825 C3824 1.373 . S
C3825 C3841 1.377 . S
C3826 C3824 1.389 . S
C3826 C3827 1.524 . S
C3826 C3840 1.377 . S
C3827 C3826 1.524 . S
C3827 C3828 1.397 . S
C3827 C3832 1.363 . S
C3828 H3805 0.950 . S
C3828 C3827 1.397 . S
C3828 C3829 1.334 . S
C3829 H3806 0.950 . S
C3829 C3828 1.334 . S
C3829 C3830 1.287 . S
C3830 C3829 1.287 . S
C3830 C3831 1.524 . S
C3830 H3849 0.913 . S
C3831 H3807 0.950 . S
C3831 C3830 1.524 . S
C3831 C3832 1.415 . S
C3832 H3808 0.950 . S
C3832 C3827 1.363 . S
C3832 C3831 1.415 . S
C3833 H3809 0.951 . S
C3833 C3834 1.366 . S
C3833 C3835 1.388 . S
C3834 C3833 1.366 . S
C3834 C3838 1.385 . S
C3835 H3810 0.951 . S
C3835 C3833 1.388 . S
C3835 C3836 1.366 . S
C3836 C3835 1.366 . S
C3836 C3837 1.414 . S
C3836 C3839 1.499 . S
C3837 H3811 0.950 . S
C3837 C3836 1.414 . S
C3837 C3838 1.374 . S
C3838 H3812 0.950 . S
C3838 C3834 1.385 . S
C3838 C3837 1.374 . S
C3839 C3836 1.499 . S
C3839 C3840 1.373 . S
C3839 C3841 1.389 . S
C3840 H3813 0.950 . S
C3840 C3826 1.377 . S
C3840 C3839 1.373 . S
C3841 C3825 1.377 . S
C3841 C3839 1.389 . S
C3841 C3842 1.524 . S
C3842 C3841 1.524 . S
C3842 C3843 1.397 . S
C3842 C3847 1.363 . S
C3843 H3814 0.950 . S
C3843 C3842 1.397 . S
C3843 C3844 1.334 . S
C3844 H3815 0.950 . S
C3844 C3843 1.334 . S
C3844 C3845 1.287 . S
C3845 C3844 1.287 . S
C3845 C3846 1.524 . S
C3845 H3848 0.999 . S
C3846 H3816 0.950 . S
C3846 C3845 1.524 . S
C3846 C3847 1.415 . S
C3847 H3817 0.950 . S
C3847 C3842 1.363 . S
C3847 C3846 1.415 . S
H3848 C3845 0.999 . S
H3849 C3830 0.913 . S
H3850 C3868 0.951 . S
H3851 C3870 0.951 . S
H3852 C3872 0.950 . S
H3853 C3873 0.950 . S
H3854 C3875 0.950 . S
H3855 C3878 0.950 . S
H3856 C3879 0.950 . S
H3857 C3881 0.950 . S
H3858 C3882 0.950 . S
H3859 C3883 0.951 . S
H3860 C3885 0.951 . S
H3861 C3887 0.950 . S
H3862 C3888 0.950 . S
H3863 C3890 0.950 . S
H3864 C3893 0.950 . S
H3865 C3894 0.950 . S
H3866 C3896 0.950 . S
H3867 C3897 0.950 . S
C3868 H3850 0.951 . S
C3868 C3869 1.366 . S
C3868 C3870 1.388 . S
C3869 C3868 1.366 . S
C3869 C3873 1.385 . S
C3870 H3851 0.951 . S
C3870 C3868 1.388 . S
C3870 C3871 1.366 . S
C3871 C3870 1.366 . S
C3871 C3872 1.414 . S
C3871 C3874 1.499 . S
C3872 H3852 0.950 . S
C3872 C3871 1.414 . S
C3872 C3873 1.374 . S
C3873 H3853 0.950 . S
C3873 C3869 1.385 . S
C3873 C3872 1.374 . S
C3874 C3871 1.499 . S
C3874 C3875 1.373 . S
C3874 C3876 1.389 . S
C3875 H3854 0.950 . S
C3875 C3874 1.373 . S
C3875 C3891 1.377 . S
C3876 C3874 1.389 . S
C3876 C3877 1.524 . S
C3876 C3890 1.377 . S
C3877 C3876 1.524 . S
C3877 C3878 1.397 . S
C3877 C3882 1.363 . S
C3878 H3855 0.950 . S
C3878 C3877 1.397 . S
C3878 C3879 1.334 . S
C3879 H3856 0.950 . S
C3879 C3878 1.334 . S
C3879 C3880 1.287 . S
C3880 C3879 1.287 . S
C3880 C3881 1.524 . S
C3880 H3899 0.913 . S
C3881 H3857 0.950 . S
C3881 C3880 1.524 . S
C3881 C3882 1.415 . S
C3882 H3858 0.950 . S
C3882 C3877 1.363 . S
C3882 C3881 1.415 . S
C3883 H3859 0.951 . S
C3883 C3884 1.366 . S
C3883 C3885 1.388 . S
C3884 C3883 1.366 . S
C3884 C3888 1.385 . S
C3885 H3860 0.951 . S
C3885 C3883 1.388 . S
C3885 C3886 1.366 . S
C3886 C3885 1.366 . S
C3886 C3887 1.414 . S
C3886 C3889 1.499 . S
C3887 H3861 0.950 . S
C3887 C3886 1.414 . S
C3887 C3888 1.374 . S
C3888 H3862 0.950 . S
C3888 C3884 1.385 . S
C3888 C3887 1.374 . S
C3889 C3886 1.499 . S
C3889 C3890 1.373 . S
C3889 C3891 1.389 . S
C3890 H3863 0.950 . S
C3890 C3876 1.377 . S
C3890 C3889 1.373 . S
C3891 C3875 1.377 . S
C3891 C3889 1.389 . S
C3891 C3892 1.524 . S
C3892 C3891 1.524 . S
C3892 C3893 1.397 . S
C3892 C3897 1.363 . S
C3893 H3864 0.950 . S
C3893 C3892 1.397 . S
C3893 C3894 1.334 . S
C3894 H3865 0.950 . S
C3894 C3893 1.334 . S
C3894 C3895 1.287 . S
C3895 C3894 1.287 . S
C3895 C3896 1.524 . S
C3895 H3898 0.999 . S
C3896 H3866 0.950 . S
C3896 C3895 1.524 . S
C3896 C3897 1.415 . S
C3897 H3867 0.950 . S
C3897 C3892 1.363 . S
C3897 C3896 1.415 . S
H3898 C3895 0.999 . S
H3899 C3880 0.913 . S
H3900 C3918 0.951 . S
H3901 C3920 0.951 . S
H3902 C3922 0.950 . S
H3903 C3923 0.950 . S
H3904 C3925 0.953 1_655 S
H3905 C3928 0.950 1_655 S
H3906 C3929 0.950 1_655 S
H3907 C3931 0.950 . S
H3908 C3932 0.950 . S
H3909 C3933 0.951 . S
H3910 C3935 0.951 . S
H3911 C3937 0.950 . S
H3912 C3938 0.950 . S
H3913 C3940 0.950 . S
H3914 C3943 0.950 . S
H3915 C3944 0.950 . S
H3916 C3946 0.950 . S
H3917 C3947 0.950 . S
C3918 H3900 0.951 . S
C3918 C3919 1.366 . S
C3918 C3920 1.388 . S
C3919 C3918 1.366 . S
C3919 C3923 1.385 1_455 S
C3920 H3901 0.951 . S
C3920 C3918 1.388 . S
C3920 C3921 1.366 . S
C3921 C3920 1.366 . S
C3921 C3922 1.414 1_455 S
C3921 C3924 1.499 . S
C3922 H3902 0.950 . S
C3922 C3921 1.414 1_655 S
C3922 C3923 1.374 . S
C3923 H3903 0.950 . S
C3923 C3919 1.385 1_655 S
C3923 C3922 1.374 . S
C3924 C3921 1.499 . S
C3924 C3925 1.371 . S
C3924 C3926 1.389 . S
C3925 H3904 0.953 1_455 S
C3925 C3924 1.371 . S
C3925 C3941 1.376 . S
C3926 C3924 1.389 . S
C3926 C3927 1.524 . S
C3926 C3940 1.377 . S
C3927 C3926 1.524 . S
C3927 C3928 1.397 . S
C3927 C3932 1.363 . S
C3928 H3905 0.950 1_455 S
C3928 C3927 1.397 . S
C3928 C3929 1.334 . S
C3929 H3906 0.950 1_455 S
C3929 C3928 1.334 . S
C3929 C3930 1.287 . S
C3930 C3929 1.287 . S
C3930 C3931 1.524 . S
C3930 H3949 0.913 . S
C3931 H3907 0.950 . S
C3931 C3930 1.524 . S
C3931 C3932 1.415 . S
C3932 H3908 0.950 . S
C3932 C3927 1.363 . S
C3932 C3931 1.415 . S
C3933 H3909 0.951 . S
C3933 C3934 1.366 1_655 S
C3933 C3935 1.388 . S
C3934 C3933 1.366 1_455 S
C3934 C3938 1.385 . S
C3935 H3910 0.951 . S
C3935 C3933 1.388 . S
C3935 C3936 1.366 1_655 S
C3936 C3935 1.366 1_455 S
C3936 C3937 1.414 . S
C3936 C3939 1.499 . S
C3937 H3911 0.950 . S
C3937 C3936 1.414 . S
C3937 C3938 1.374 . S
C3938 H3912 0.950 . S
C3938 C3934 1.385 . S
C3938 C3937 1.374 . S
C3939 C3936 1.499 . S
C3939 C3940 1.373 . S
C3939 C3941 1.389 . S
C3940 H3913 0.950 . S
C3940 C3926 1.377 . S
C3940 C3939 1.373 . S
C3941 C3925 1.376 . S
C3941 C3939 1.389 . S
C3941 C3942 1.524 1_455 S
C3942 C3941 1.524 1_655 S
C3942 C3943 1.397 1_655 S
C3942 C3947 1.363 . S
C3943 H3914 0.950 . S
C3943 C3942 1.397 1_455 S
C3943 C3944 1.334 . S
C3944 H3915 0.950 . S
C3944 C3943 1.334 . S
C3944 C3945 1.287 1_455 S
C3945 C3944 1.287 1_655 S
C3945 C3946 1.524 . S
C3945 H3948 0.999 . S
C3946 H3916 0.950 . S
C3946 C3945 1.524 . S
C3946 C3947 1.415 . S
C3947 H3917 0.950 . S
C3947 C3942 1.363 . S
C3947 C3946 1.415 . S
H3948 C3945 0.999 . S
H3949 C3930 0.913 . S
H3950 C3968 0.951 . S
H3951 C3970 0.951 . S
H3952 C3972 0.950 . S
H3953 C3973 0.950 . S
H3954 C3975 0.950 . S
H3955 C3978 0.950 . S
H3956 C3979 0.950 . S
H3957 C3981 0.950 . S
H3958 C3982 0.950 . S
H3959 C3983 0.951 . S
H3960 C3985 0.951 . S
H3961 C3987 0.950 . S
H3962 C3988 0.950 . S
H3963 C3990 0.950 . S
H3964 C3993 0.950 . S
H3965 C3994 0.950 . S
H3966 C3996 0.950 . S
H3967 C3997 0.950 . S
C3968 H3950 0.951 . S
C3968 C3969 1.366 . S
C3968 C3970 1.388 . S
C3969 C3968 1.366 . S
C3969 C3973 1.385 . S
C3970 H3951 0.951 . S
C3970 C3968 1.388 . S
C3970 C3971 1.366 . S
C3971 C3970 1.366 . S
C3971 C3972 1.414 . S
C3971 C3974 1.499 . S
C3972 H3952 0.950 . S
C3972 C3971 1.414 . S
C3972 C3973 1.374 . S
C3973 H3953 0.950 . S
C3973 C3969 1.385 . S
C3973 C3972 1.374 . S
C3974 C3971 1.499 . S
C3974 C3975 1.373 . S
C3974 C3976 1.389 . S
C3975 H3954 0.950 . S
C3975 C3974 1.373 . S
C3975 C3991 1.377 . S
C3976 C3974 1.389 . S
C3976 C3977 1.524 . S
C3976 C3990 1.377 . S
C3977 C3976 1.524 . S
C3977 C3978 1.397 . S
C3977 C3982 1.363 . S
C3978 H3955 0.950 . S
C3978 C3977 1.397 . S
C3978 C3979 1.334 . S
C3979 H3956 0.950 . S
C3979 C3978 1.334 . S
C3979 C3980 1.287 . S
C3980 C3979 1.287 . S
C3980 C3981 1.524 . S
C3980 H3999 0.913 . S
C3981 H3957 0.950 . S
C3981 C3980 1.524 . S
C3981 C3982 1.415 . S
C3982 H3958 0.950 . S
C3982 C3977 1.363 . S
C3982 C3981 1.415 . S
C3983 H3959 0.951 . S
C3983 C3984 1.366 . S
C3983 C3985 1.388 . S
C3984 C3983 1.366 . S
C3984 C3988 1.385 . S
C3985 H3960 0.951 . S
C3985 C3983 1.388 . S
C3985 C3986 1.366 . S
C3986 C3985 1.366 . S
C3986 C3987 1.414 . S
C3986 C3989 1.499 . S
C3987 H3961 0.950 . S
C3987 C3986 1.414 . S
C3987 C3988 1.374 . S
C3988 H3962 0.950 . S
C3988 C3984 1.385 . S
C3988 C3987 1.374 . S
C3989 C3986 1.499 . S
C3989 C3990 1.373 . S
C3989 C3991 1.389 . S
C3990 H3963 0.950 . S
C3990 C3976 1.377 . S
C3990 C3989 1.373 . S
C3991 C3975 1.377 . S
C3991 C3989 1.389 . S
C3991 C3992 1.524 . S
C3992 C3991 1.524 . S
C3992 C3993 1.397 . S
C3992 C3997 1.363 . S
C3993 H3964 0.950 . S
C3993 C3992 1.397 . S
C3993 C3994 1.334 . S
C3994 H3965 0.950 . S
C3994 C3993 1.334 . S
C3994 C3995 1.287 . S
C3995 C3994 1.287 . S
C3995 C3996 1.524 . S
C3995 H3998 0.999 . S
C3996 H3966 0.950 . S
C3996 C3995 1.524 . S
C3996 C3997 1.415 . S
C3997 H3967 0.950 . S
C3997 C3992 1.363 . S
C3997 C3996 1.415 . S
H3998 C3995 0.999 . S
H3999 C3980 0.913 . S
H4000 C4018 0.951 . S
H4001 C4020 0.951 . S
H4002 C4022 0.950 . S
H4003 C4023 0.950 . S
H4004 C4025 0.950 . S
H4005 C4028 0.950 . S
H4006 C4029 0.950 . S
H4007 C4031 0.950 . S
H4008 C4032 0.950 . S
H4009 C4033 0.951 . S
H4010 C4035 0.951 . S
H4011 C4037 0.950 . S
H4012 C4038 0.950 . S
H4013 C4040 0.950 . S
H4014 C4043 0.950 . S
H4015 C4044 0.950 . S
H4016 C4046 0.950 . S
H4017 C4047 0.950 . S
C4018 H4000 0.951 . S
C4018 C4019 1.366 . S
C4018 C4020 1.388 . S
C4019 C4018 1.366 . S
C4019 C4023 1.385 . S
C4020 H4001 0.951 . S
C4020 C4018 1.388 . S
C4020 C4021 1.366 . S
C4021 C4020 1.366 . S
C4021 C4022 1.414 . S
C4021 C4024 1.499 . S
C4022 H4002 0.950 . S
C4022 C4021 1.414 . S
C4022 C4023 1.374 . S
C4023 H4003 0.950 . S
C4023 C4019 1.385 . S
C4023 C4022 1.374 . S
C4024 C4021 1.499 . S
C4024 C4025 1.373 . S
C4024 C4026 1.389 . S
C4025 H4004 0.950 . S
C4025 C4024 1.373 . S
C4025 C4041 1.377 . S
C4026 C4024 1.389 . S
C4026 C4027 1.524 . S
C4026 C4040 1.377 . S
C4027 C4026 1.524 . S
C4027 C4028 1.397 . S
C4027 C4032 1.363 . S
C4028 H4005 0.950 . S
C4028 C4027 1.397 . S
C4028 C4029 1.334 . S
C4029 H4006 0.950 . S
C4029 C4028 1.334 . S
C4029 C4030 1.287 . S
C4030 C4029 1.287 . S
C4030 C4031 1.524 . S
C4030 H4049 0.913 . S
C4031 H4007 0.950 . S
C4031 C4030 1.524 . S
C4031 C4032 1.415 . S
C4032 H4008 0.950 . S
C4032 C4027 1.363 . S
C4032 C4031 1.415 . S
C4033 H4009 0.951 . S
C4033 C4034 1.366 . S
C4033 C4035 1.388 . S
C4034 C4033 1.366 . S
C4034 C4038 1.385 . S
C4035 H4010 0.951 . S
C4035 C4033 1.388 . S
C4035 C4036 1.366 . S
C4036 C4035 1.366 . S
C4036 C4037 1.414 . S
C4036 C4039 1.499 . S
C4037 H4011 0.950 . S
C4037 C4036 1.414 . S
C4037 C4038 1.374 . S
C4038 H4012 0.950 . S
C4038 C4034 1.385 . S
C4038 C4037 1.374 . S
C4039 C4036 1.499 . S
C4039 C4040 1.373 . S
C4039 C4041 1.389 . S
C4040 H4013 0.950 . S
C4040 C4026 1.377 . S
C4040 C4039 1.373 . S
C4041 C4025 1.377 . S
C4041 C4039 1.389 . S
C4041 C4042 1.524 . S
C4042 C4041 1.524 . S
C4042 C4043 1.397 . S
C4042 C4047 1.363 . S
C4043 H4014 0.950 . S
C4043 C4042 1.397 . S
C4043 C4044 1.334 . S
C4044 H4015 0.950 . S
C4044 C4043 1.334 . S
C4044 C4045 1.287 . S
C4045 C4044 1.287 . S
C4045 C4046 1.524 . S
C4045 H4048 0.999 . S
C4046 H4016 0.950 . S
C4046 C4045 1.524 . S
C4046 C4047 1.415 . S
C4047 H4017 0.950 . S
C4047 C4042 1.363 . S
C4047 C4046 1.415 . S
H4048 C4045 0.999 . S
H4049 C4030 0.913 . S
H4050 C4068 0.951 . S
H4051 C4070 0.951 . S
H4052 C4072 0.950 . S
H4053 C4073 0.950 . S
H4054 C4075 0.950 . S
H4055 C4078 0.950 . S
H4056 C4079 0.950 . S
H4057 C4081 0.950 . S
H4058 C4082 0.950 . S
H4059 C4083 0.951 . S
H4060 C4085 0.951 . S
H4061 C4087 0.950 . S
H4062 C4088 0.950 . S
H4063 C4090 0.950 . S
H4064 C4093 0.950 . S
H4065 C4094 0.950 . S
H4066 C4096 0.950 . S
H4067 C4097 0.950 . S
C4068 H4050 0.951 . S
C4068 C4069 1.366 . S
C4068 C4070 1.388 . S
C4069 C4068 1.366 . S
C4069 C4073 1.385 . S
C4070 H4051 0.951 . S
C4070 C4068 1.388 . S
C4070 C4071 1.366 . S
C4071 C4070 1.366 . S
C4071 C4072 1.414 . S
C4071 C4074 1.499 . S
C4072 H4052 0.950 . S
C4072 C4071 1.414 . S
C4072 C4073 1.374 . S
C4073 H4053 0.950 . S
C4073 C4069 1.385 . S
C4073 C4072 1.374 . S
C4074 C4071 1.499 . S
C4074 C4075 1.373 . S
C4074 C4076 1.389 . S
C4075 H4054 0.950 . S
C4075 C4074 1.373 . S
C4075 C4091 1.377 . S
C4076 C4074 1.389 . S
C4076 C4077 1.524 . S
C4076 C4090 1.377 . S
C4077 C4076 1.524 . S
C4077 C4078 1.397 . S
C4077 C4082 1.363 . S
C4078 H4055 0.950 . S
C4078 C4077 1.397 . S
C4078 C4079 1.334 . S
C4079 H4056 0.950 . S
C4079 C4078 1.334 . S
C4079 C4080 1.287 . S
C4080 C4079 1.287 . S
C4080 C4081 1.524 . S
C4080 H4099 0.913 . S
C4081 H4057 0.950 . S
C4081 C4080 1.524 . S
C4081 C4082 1.415 . S
C4082 H4058 0.950 . S
C4082 C4077 1.363 . S
C4082 C4081 1.415 . S
C4083 H4059 0.951 . S
C4083 C4084 1.366 . S
C4083 C4085 1.388 . S
C4084 C4083 1.366 . S
C4084 C4088 1.385 . S
C4085 H4060 0.951 . S
C4085 C4083 1.388 . S
C4085 C4086 1.366 . S
C4086 C4085 1.366 . S
C4086 C4087 1.414 . S
C4086 C4089 1.499 . S
C4087 H4061 0.950 . S
C4087 C4086 1.414 . S
C4087 C4088 1.374 . S
C4088 H4062 0.950 . S
C4088 C4084 1.385 . S
C4088 C4087 1.374 . S
C4089 C4086 1.499 . S
C4089 C4090 1.373 . S
C4089 C4091 1.389 . S
C4090 H4063 0.950 . S
C4090 C4076 1.377 . S
C4090 C4089 1.373 . S
C4091 C4075 1.377 . S
C4091 C4089 1.389 . S
C4091 C4092 1.524 . S
C4092 C4091 1.524 . S
C4092 C4093 1.397 . S
C4092 C4097 1.363 . S
C4093 H4064 0.950 . S
C4093 C4092 1.397 . S
C4093 C4094 1.334 . S
C4094 H4065 0.950 . S
C4094 C4093 1.334 . S
C4094 C4095 1.287 . S
C4095 C4094 1.287 . S
C4095 C4096 1.524 . S
C4095 H4098 0.999 . S
C4096 H4066 0.950 . S
C4096 C4095 1.524 . S
C4096 C4097 1.415 . S
C4097 H4067 0.950 . S
C4097 C4092 1.363 . S
C4097 C4096 1.415 . S
H4098 C4095 0.999 . S
H4099 C4080 0.913 . S
H4100 C4118 0.951 . S
H4101 C4120 0.951 . S
H4102 C4122 0.950 . S
H4103 C4123 0.950 . S
H4104 C4125 0.950 . S
H4105 C4128 0.950 . S
H4106 C4129 0.950 . S
H4107 C4131 0.950 . S
H4108 C4132 0.950 . S
H4109 C4133 0.957 1_455 S
H4110 C4135 0.951 . S
H4111 C4137 0.950 . S
H4112 C4138 0.950 . S
H4113 C4140 0.950 . S
H4114 C4143 0.950 . S
H4115 C4144 0.950 . S
H4116 C4146 0.950 . S
H4117 C4147 0.950 . S
C4118 H4100 0.951 . S
C4118 C4119 1.366 . S
C4118 C4120 1.388 . S
C4119 C4118 1.366 . S
C4119 C4123 1.385 . S
C4120 H4101 0.951 . S
C4120 C4118 1.388 . S
C4120 C4121 1.366 . S
C4121 C4120 1.366 . S
C4121 C4122 1.414 . S
C4121 C4124 1.499 . S
C4122 H4102 0.950 . S
C4122 C4121 1.414 . S
C4122 C4123 1.374 . S
C4123 H4103 0.950 . S
C4123 C4119 1.385 . S
C4123 C4122 1.374 . S
C4124 C4121 1.499 . S
C4124 C4125 1.373 . S
C4124 C4126 1.389 . S
C4125 H4104 0.950 . S
C4125 C4124 1.373 . S
C4125 C4141 1.377 . S
C4126 C4124 1.389 . S
C4126 C4127 1.524 . S
C4126 C4140 1.377 . S
C4127 C4126 1.524 . S
C4127 C4128 1.397 . S
C4127 C4132 1.363 . S
C4128 H4105 0.950 . S
C4128 C4127 1.397 . S
C4128 C4129 1.334 . S
C4129 H4106 0.950 . S
C4129 C4128 1.334 . S
C4129 C4130 1.287 . S
C4130 C4129 1.287 . S
C4130 C4131 1.524 . S
C4130 H4149 0.913 . S
C4131 H4107 0.950 . S
C4131 C4130 1.524 . S
C4131 C4132 1.415 . S
C4132 H4108 0.950 . S
C4132 C4127 1.363 . S
C4132 C4131 1.415 . S
C4133 H4109 0.957 1_655 S
C4133 C4134 1.366 . S
C4133 C4135 1.388 . S
C4134 C4133 1.366 . S
C4134 C4138 1.385 . S
C4135 H4110 0.951 . S
C4135 C4133 1.388 . S
C4135 C4136 1.366 . S
C4136 C4135 1.366 . S
C4136 C4137 1.414 . S
C4136 C4139 1.499 . S
C4137 H4111 0.950 . S
C4137 C4136 1.414 . S
C4137 C4138 1.374 . S
C4138 H4112 0.950 . S
C4138 C4134 1.385 . S
C4138 C4137 1.374 . S
C4139 C4136 1.499 . S
C4139 C4140 1.373 . S
C4139 C4141 1.389 . S
C4140 H4113 0.950 . S
C4140 C4126 1.377 . S
C4140 C4139 1.373 . S
C4141 C4125 1.377 . S
C4141 C4139 1.389 . S
C4141 C4142 1.524 . S
C4142 C4141 1.524 . S
C4142 C4143 1.397 . S
C4142 C4147 1.363 . S
C4143 H4114 0.950 . S
C4143 C4142 1.397 . S
C4143 C4144 1.334 1_655 S
C4144 H4115 0.950 . S
C4144 C4143 1.334 1_455 S
C4144 C4145 1.287 . S
C4145 C4144 1.287 . S
C4145 C4146 1.524 . S
C4145 H4148 0.999 . S
C4146 H4116 0.950 . S
C4146 C4145 1.524 . S
C4146 C4147 1.415 1_455 S
C4147 H4117 0.950 . S
C4147 C4142 1.363 . S
C4147 C4146 1.415 1_655 S
H4148 C4145 0.999 . S
H4149 C4130 0.913 . S
H4150 C4168 0.951 . S
H4151 C4170 0.951 . S
H4152 C4172 0.950 . S
H4153 C4173 0.950 . S
H4154 C4175 0.950 . S
H4155 C4178 0.950 . S
H4156 C4179 0.950 . S
H4157 C4181 0.950 . S
H4158 C4182 0.950 . S
H4159 C4183 0.951 . S
H4160 C4185 0.951 . S
H4161 C4187 0.950 . S
H4162 C4188 0.950 . S
H4163 C4190 0.950 . S
H4164 C4193 0.950 . S
H4165 C4194 0.950 . S
H4166 C4196 0.950 . S
H4167 C4197 0.950 . S
C4168 H4150 0.951 . S
C4168 C4169 1.366 . S
C4168 C4170 1.388 . S
C4169 C4168 1.366 . S
C4169 C4173 1.385 . S
C4170 H4151 0.951 . S
C4170 C4168 1.388 . S
C4170 C4171 1.366 . S
C4171 C4170 1.366 . S
C4171 C4172 1.414 . S
C4171 C4174 1.499 . S
C4172 H4152 0.950 . S
C4172 C4171 1.414 . S
C4172 C4173 1.374 . S
C4173 H4153 0.950 . S
C4173 C4169 1.385 . S
C4173 C4172 1.374 . S
C4174 C4171 1.499 . S
C4174 C4175 1.373 . S
C4174 C4176 1.389 . S
C4175 H4154 0.950 . S
C4175 C4174 1.373 . S
C4175 C4191 1.377 . S
C4176 C4174 1.389 . S
C4176 C4177 1.524 . S
C4176 C4190 1.377 . S
C4177 C4176 1.524 . S
C4177 C4178 1.397 . S
C4177 C4182 1.363 . S
C4178 H4155 0.950 . S
C4178 C4177 1.397 . S
C4178 C4179 1.334 . S
C4179 H4156 0.950 . S
C4179 C4178 1.334 . S
C4179 C4180 1.287 . S
C4180 C4179 1.287 . S
C4180 C4181 1.524 . S
C4180 H4199 0.913 . S
C4181 H4157 0.950 . S
C4181 C4180 1.524 . S
C4181 C4182 1.415 . S
C4182 H4158 0.950 . S
C4182 C4177 1.363 . S
C4182 C4181 1.415 . S
C4183 H4159 0.951 . S
C4183 C4184 1.366 . S
C4183 C4185 1.388 . S
C4184 C4183 1.366 . S
C4184 C4188 1.385 . S
C4185 H4160 0.951 . S
C4185 C4183 1.388 . S
C4185 C4186 1.366 . S
C4186 C4185 1.366 . S
C4186 C4187 1.414 . S
C4186 C4189 1.499 . S
C4187 H4161 0.950 . S
C4187 C4186 1.414 . S
C4187 C4188 1.374 . S
C4188 H4162 0.950 . S
C4188 C4184 1.385 . S
C4188 C4187 1.374 . S
C4189 C4186 1.499 . S
C4189 C4190 1.373 . S
C4189 C4191 1.389 . S
C4190 H4163 0.950 . S
C4190 C4176 1.377 . S
C4190 C4189 1.373 . S
C4191 C4175 1.377 . S
C4191 C4189 1.389 . S
C4191 C4192 1.524 . S
C4192 C4191 1.524 . S
C4192 C4193 1.397 . S
C4192 C4197 1.363 . S
C4193 H4164 0.950 . S
C4193 C4192 1.397 . S
C4193 C4194 1.334 . S
C4194 H4165 0.950 . S
C4194 C4193 1.334 . S
C4194 C4195 1.287 . S
C4195 C4194 1.287 . S
C4195 C4196 1.524 . S
C4195 H4198 0.999 . S
C4196 H4166 0.950 . S
C4196 C4195 1.524 . S
C4196 C4197 1.415 . S
C4197 H4167 0.950 . S
C4197 C4192 1.363 . S
C4197 C4196 1.415 . S
H4198 C4195 0.999 . S
H4199 C4180 0.913 . S
H4200 C4218 0.951 . S
H4201 C4220 0.951 . S
H4202 C4222 0.950 . S
H4203 C4223 0.950 . S
H4204 C4225 0.950 . S
H4205 C4228 0.950 . S
H4206 C4229 0.950 . S
H4207 C4231 0.950 . S
H4208 C4232 0.950 . S
H4209 C4233 0.951 . S
H4210 C4235 0.951 . S
H4211 C4237 0.950 . S
H4212 C4238 0.950 . S
H4213 C4240 0.950 . S
H4214 C4243 0.950 . S
H4215 C4244 0.950 . S
H4216 C4246 0.950 . S
H4217 C4247 0.950 . S
C4218 H4200 0.951 . S
C4218 C4219 1.366 . S
C4218 C4220 1.388 . S
C4219 C4218 1.366 . S
C4219 C4223 1.385 . S
C4220 H4201 0.951 . S
C4220 C4218 1.388 . S
C4220 C4221 1.366 . S
C4221 C4220 1.366 . S
C4221 C4222 1.414 . S
C4221 C4224 1.499 . S
C4222 H4202 0.950 . S
C4222 C4221 1.414 . S
C4222 C4223 1.374 . S
C4223 H4203 0.950 . S
C4223 C4219 1.385 . S
C4223 C4222 1.374 . S
C4224 C4221 1.499 . S
C4224 C4225 1.373 . S
C4224 C4226 1.389 . S
C4225 H4204 0.950 . S
C4225 C4224 1.373 . S
C4225 C4241 1.377 . S
C4226 C4224 1.389 . S
C4226 C4227 1.524 . S
C4226 C4240 1.377 . S
C4227 C4226 1.524 . S
C4227 C4228 1.397 . S
C4227 C4232 1.363 . S
C4228 H4205 0.950 . S
C4228 C4227 1.397 . S
C4228 C4229 1.334 . S
C4229 H4206 0.950 . S
C4229 C4228 1.334 . S
C4229 C4230 1.287 . S
C4230 C4229 1.287 . S
C4230 C4231 1.524 . S
C4230 H4249 0.913 . S
C4231 H4207 0.950 . S
C4231 C4230 1.524 . S
C4231 C4232 1.415 . S
C4232 H4208 0.950 . S
C4232 C4227 1.363 . S
C4232 C4231 1.415 . S
C4233 H4209 0.951 . S
C4233 C4234 1.366 . S
C4233 C4235 1.388 . S
C4234 C4233 1.366 . S
C4234 C4238 1.385 . S
C4235 H4210 0.951 . S
C4235 C4233 1.388 . S
C4235 C4236 1.366 . S
C4236 C4235 1.366 . S
C4236 C4237 1.414 . S
C4236 C4239 1.499 . S
C4237 H4211 0.950 . S
C4237 C4236 1.414 . S
C4237 C4238 1.374 . S
C4238 H4212 0.950 . S
C4238 C4234 1.385 . S
C4238 C4237 1.374 . S
C4239 C4236 1.499 . S
C4239 C4240 1.373 . S
C4239 C4241 1.389 . S
C4240 H4213 0.950 . S
C4240 C4226 1.377 . S
C4240 C4239 1.373 . S
C4241 C4225 1.377 . S
C4241 C4239 1.389 . S
C4241 C4242 1.524 . S
C4242 C4241 1.524 . S
C4242 C4243 1.397 . S
C4242 C4247 1.363 . S
C4243 H4214 0.950 . S
C4243 C4242 1.397 . S
C4243 C4244 1.334 . S
C4244 H4215 0.950 . S
C4244 C4243 1.334 . S
C4244 C4245 1.287 . S
C4245 C4244 1.287 . S
C4245 C4246 1.524 . S
C4245 H4248 0.999 . S
C4246 H4216 0.950 . S
C4246 C4245 1.524 . S
C4246 C4247 1.415 . S
C4247 H4217 0.950 . S
C4247 C4242 1.363 . S
C4247 C4246 1.415 . S
H4248 C4245 0.999 . S
H4249 C4230 0.913 . S
H4250 C4268 0.951 . S
H4251 C4270 0.951 . S
H4252 C4272 0.950 . S
H4253 C4273 0.950 . S
H4254 C4275 0.950 . S
H4255 C4278 0.950 . S
H4256 C4279 0.950 . S
H4257 C4281 0.950 . S
H4258 C4282 0.950 . S
H4259 C4283 0.951 . S
H4260 C4285 0.951 . S
H4261 C4287 0.950 . S
H4262 C4288 0.950 . S
H4263 C4290 0.950 . S
H4264 C4293 0.950 . S
H4265 C4294 0.950 . S
H4266 C4296 0.950 . S
H4267 C4297 0.950 . S
C4268 H4250 0.951 . S
C4268 C4269 1.366 . S
C4268 C4270 1.388 . S
C4269 C4268 1.366 . S
C4269 C4273 1.385 . S
C4270 H4251 0.951 . S
C4270 C4268 1.388 . S
C4270 C4271 1.366 . S
C4271 C4270 1.366 . S
C4271 C4272 1.414 . S
C4271 C4274 1.499 . S
C4272 H4252 0.950 . S
C4272 C4271 1.414 . S
C4272 C4273 1.374 . S
C4273 H4253 0.950 . S
C4273 C4269 1.385 . S
C4273 C4272 1.374 . S
C4274 C4271 1.499 . S
C4274 C4275 1.373 . S
C4274 C4276 1.389 . S
C4275 H4254 0.950 . S
C4275 C4274 1.373 . S
C4275 C4291 1.377 . S
C4276 C4274 1.389 . S
C4276 C4277 1.524 . S
C4276 C4290 1.377 . S
C4277 C4276 1.524 . S
C4277 C4278 1.397 . S
C4277 C4282 1.363 . S
C4278 H4255 0.950 . S
C4278 C4277 1.397 . S
C4278 C4279 1.334 . S
C4279 H4256 0.950 . S
C4279 C4278 1.334 . S
C4279 C4280 1.287 . S
C4280 C4279 1.287 . S
C4280 C4281 1.524 . S
C4280 H4299 0.913 . S
C4281 H4257 0.950 . S
C4281 C4280 1.524 . S
C4281 C4282 1.415 . S
C4282 H4258 0.950 . S
C4282 C4277 1.363 . S
C4282 C4281 1.415 . S
C4283 H4259 0.951 . S
C4283 C4284 1.366 . S
C4283 C4285 1.388 . S
C4284 C4283 1.366 . S
C4284 C4288 1.385 . S
C4285 H4260 0.951 . S
C4285 C4283 1.388 . S
C4285 C4286 1.366 . S
C4286 C4285 1.366 . S
C4286 C4287 1.414 . S
C4286 C4289 1.499 . S
C4287 H4261 0.950 . S
C4287 C4286 1.414 . S
C4287 C4288 1.374 . S
C4288 H4262 0.950 . S
C4288 C4284 1.385 . S
C4288 C4287 1.374 . S
C4289 C4286 1.499 . S
C4289 C4290 1.373 . S
C4289 C4291 1.389 . S
C4290 H4263 0.950 . S
C4290 C4276 1.377 . S
C4290 C4289 1.373 . S
C4291 C4275 1.377 . S
C4291 C4289 1.389 . S
C4291 C4292 1.524 . S
C4292 C4291 1.524 . S
C4292 C4293 1.397 . S
C4292 C4297 1.363 . S
C4293 H4264 0.950 . S
C4293 C4292 1.397 . S
C4293 C4294 1.334 . S
C4294 H4265 0.950 . S
C4294 C4293 1.334 . S
C4294 C4295 1.287 . S
C4295 C4294 1.287 . S
C4295 C4296 1.524 . S
C4295 H4298 0.999 . S
C4296 H4266 0.950 . S
C4296 C4295 1.524 . S
C4296 C4297 1.415 . S
C4297 H4267 0.950 . S
C4297 C4292 1.363 . S
C4297 C4296 1.415 . S
H4298 C4295 0.999 . S
H4299 C4280 0.913 . S
H4300 C4318 0.951 . S
H4301 C4320 0.951 . S
H4302 C4322 0.950 . S
H4303 C4323 0.950 . S
H4304 C4325 0.950 . S
H4305 C4328 0.950 . S
H4306 C4329 0.950 . S
H4307 C4331 0.950 1_455 S
H4308 C4332 0.950 . S
H4309 C4333 0.951 . S
H4310 C4335 0.951 . S
H4311 C4337 0.950 . S
H4312 C4338 0.950 . S
H4313 C4340 0.950 . S
H4314 C4343 0.950 . S
H4315 C4344 0.950 . S
H4316 C4346 0.950 . S
H4317 C4347 0.950 . S
C4318 H4300 0.951 . S
C4318 C4319 1.366 . S
C4318 C4320 1.388 . S
C4319 C4318 1.366 . S
C4319 C4323 1.385 . S
C4320 H4301 0.951 . S
C4320 C4318 1.388 . S
C4320 C4321 1.366 . S
C4321 C4320 1.366 . S
C4321 C4322 1.414 . S
C4321 C4324 1.499 . S
C4322 H4302 0.950 . S
C4322 C4321 1.414 . S
C4322 C4323 1.374 . S
C4323 H4303 0.950 . S
C4323 C4319 1.385 . S
C4323 C4322 1.374 . S
C4324 C4321 1.499 . S
C4324 C4325 1.373 . S
C4324 C4326 1.389 . S
C4325 H4304 0.950 . S
C4325 C4324 1.373 . S
C4325 C4341 1.377 . S
C4326 C4324 1.389 . S
C4326 C4327 1.524 . S
C4326 C4340 1.377 . S
C4327 C4326 1.524 . S
C4327 C4328 1.397 . S
C4327 C4332 1.363 . S
C4328 H4305 0.950 . S
C4328 C4327 1.397 . S
C4328 C4329 1.334 . S
C4329 H4306 0.950 . S
C4329 C4328 1.334 . S
C4329 C4330 1.287 . S
C4330 C4329 1.287 . S
C4330 C4331 1.524 . S
C4330 H4349 0.913 . S
C4331 H4307 0.950 1_655 S
C4331 C4330 1.524 . S
C4331 C4332 1.415 . S
C4332 H4308 0.950 . S
C4332 C4327 1.363 . S
C4332 C4331 1.415 . S
C4333 H4309 0.951 . S
C4333 C4334 1.366 . S
C4333 C4335 1.388 . S
C4334 C4333 1.366 . S
C4334 C4338 1.385 . S
C4335 H4310 0.951 . S
C4335 C4333 1.388 . S
C4335 C4336 1.366 . S
C4336 C4335 1.366 . S
C4336 C4337 1.414 . S
C4336 C4339 1.499 . S
C4337 H4311 0.950 . S
C4337 C4336 1.414 . S
C4337 C4338 1.374 . S
C4338 H4312 0.950 . S
C4338 C4334 1.385 . S
C4338 C4337 1.374 . S
C4339 C4336 1.499 . S
C4339 C4340 1.373 . S
C4339 C4341 1.389 . S
C4340 H4313 0.950 . S
C4340 C4326 1.377 . S
C4340 C4339 1.373 . S
C4341 C4325 1.377 . S
C4341 C4339 1.389 . S
C4341 C4342 1.524 . S
C4342 C4341 1.524 . S
C4342 C4343 1.397 . S
C4342 C4347 1.363 . S
C4343 H4314 0.950 . S
C4343 C4342 1.397 . S
C4343 C4344 1.334 . S
C4344 H4315 0.950 . S
C4344 C4343 1.334 . S
C4344 C4345 1.287 . S
C4345 C4344 1.287 . S
C4345 C4346 1.524 . S
C4345 H4348 0.999 . S
C4346 H4316 0.950 . S
C4346 C4345 1.524 . S
C4346 C4347 1.415 . S
C4347 H4317 0.950 . S
C4347 C4342 1.363 . S
C4347 C4346 1.415 . S
H4348 C4345 0.999 . S
H4349 C4330 0.913 . S
H4350 C4368 0.951 . S
H4351 C4370 0.951 . S
H4352 C4372 0.950 . S
H4353 C4373 0.950 . S
H4354 C4375 0.950 . S
H4355 C4378 0.950 . S
H4356 C4379 0.950 . S
H4357 C4381 0.950 . S
H4358 C4382 0.950 . S
H4359 C4383 0.951 . S
H4360 C4385 0.951 . S
H4361 C4387 0.950 . S
H4362 C4388 0.950 . S
H4363 C4390 0.950 . S
H4364 C4393 0.950 . S
H4365 C4394 0.950 . S
H4366 C4396 0.950 . S
H4367 C4397 0.950 . S
C4368 H4350 0.951 . S
C4368 C4369 1.366 . S
C4368 C4370 1.388 . S
C4369 C4368 1.366 . S
C4369 C4373 1.385 . S
C4370 H4351 0.951 . S
C4370 C4368 1.388 . S
C4370 C4371 1.366 . S
C4371 C4370 1.366 . S
C4371 C4372 1.414 . S
C4371 C4374 1.499 . S
C4372 H4352 0.950 . S
C4372 C4371 1.414 . S
C4372 C4373 1.374 . S
C4373 H4353 0.950 . S
C4373 C4369 1.385 . S
C4373 C4372 1.374 . S
C4374 C4371 1.499 . S
C4374 C4375 1.373 . S
C4374 C4376 1.389 . S
C4375 H4354 0.950 . S
C4375 C4374 1.373 . S
C4375 C4391 1.377 . S
C4376 C4374 1.389 . S
C4376 C4377 1.524 . S
C4376 C4390 1.377 . S
C4377 C4376 1.524 . S
C4377 C4378 1.397 . S
C4377 C4382 1.363 . S
C4378 H4355 0.950 . S
C4378 C4377 1.397 . S
C4378 C4379 1.334 . S
C4379 H4356 0.950 . S
C4379 C4378 1.334 . S
C4379 C4380 1.287 . S
C4380 C4379 1.287 . S
C4380 C4381 1.524 . S
C4380 H4399 0.913 . S
C4381 H4357 0.950 . S
C4381 C4380 1.524 . S
C4381 C4382 1.415 . S
C4382 H4358 0.950 . S
C4382 C4377 1.363 . S
C4382 C4381 1.415 . S
C4383 H4359 0.951 . S
C4383 C4384 1.366 . S
C4383 C4385 1.388 . S
C4384 C4383 1.366 . S
C4384 C4388 1.385 . S
C4385 H4360 0.951 . S
C4385 C4383 1.388 . S
C4385 C4386 1.366 . S
C4386 C4385 1.366 . S
C4386 C4387 1.414 . S
C4386 C4389 1.499 . S
C4387 H4361 0.950 . S
C4387 C4386 1.414 . S
C4387 C4388 1.374 . S
C4388 H4362 0.950 . S
C4388 C4384 1.385 . S
C4388 C4387 1.374 . S
C4389 C4386 1.499 . S
C4389 C4390 1.373 . S
C4389 C4391 1.389 . S
C4390 H4363 0.950 . S
C4390 C4376 1.377 . S
C4390 C4389 1.373 . S
C4391 C4375 1.377 . S
C4391 C4389 1.389 . S
C4391 C4392 1.524 . S
C4392 C4391 1.524 . S
C4392 C4393 1.397 . S
C4392 C4397 1.363 . S
C4393 H4364 0.950 . S
C4393 C4392 1.397 . S
C4393 C4394 1.334 . S
C4394 H4365 0.950 . S
C4394 C4393 1.334 . S
C4394 C4395 1.287 . S
C4395 C4394 1.287 . S
C4395 C4396 1.524 . S
C4395 H4398 0.999 . S
C4396 H4366 0.950 . S
C4396 C4395 1.524 . S
C4396 C4397 1.415 . S
C4397 H4367 0.950 . S
C4397 C4392 1.363 . S
C4397 C4396 1.415 . S
H4398 C4395 0.999 . S
H4399 C4380 0.913 . S
H4400 C4418 0.951 . S
H4401 C4420 0.951 . S
H4402 C4422 0.950 . S
H4403 C4423 0.950 . S
H4404 C4425 0.950 . S
H4405 C4428 0.950 . S
H4406 C4429 0.950 . S
H4407 C4431 0.950 . S
H4408 C4432 0.950 . S
H4409 C4433 0.951 . S
H4410 C4435 0.951 . S
H4411 C4437 0.950 . S
H4412 C4438 0.950 . S
H4413 C4440 0.950 . S
H4414 C4443 0.950 . S
H4415 C4444 0.950 . S
H4416 C4446 0.950 . S
H4417 C4447 0.950 . S
C4418 H4400 0.951 . S
C4418 C4419 1.366 . S
C4418 C4420 1.388 . S
C4419 C4418 1.366 . S
C4419 C4423 1.385 . S
C4420 H4401 0.951 . S
C4420 C4418 1.388 . S
C4420 C4421 1.366 . S
C4421 C4420 1.366 . S
C4421 C4422 1.414 . S
C4421 C4424 1.499 . S
C4422 H4402 0.950 . S
C4422 C4421 1.414 . S
C4422 C4423 1.374 . S
C4423 H4403 0.950 . S
C4423 C4419 1.385 . S
C4423 C4422 1.374 . S
C4424 C4421 1.499 . S
C4424 C4425 1.373 . S
C4424 C4426 1.389 . S
C4425 H4404 0.950 . S
C4425 C4424 1.373 . S
C4425 C4441 1.377 . S
C4426 C4424 1.389 . S
C4426 C4427 1.524 . S
C4426 C4440 1.377 . S
C4427 C4426 1.524 . S
C4427 C4428 1.397 . S
C4427 C4432 1.363 . S
C4428 H4405 0.950 . S
C4428 C4427 1.397 . S
C4428 C4429 1.334 . S
C4429 H4406 0.950 . S
C4429 C4428 1.334 . S
C4429 C4430 1.287 . S
C4430 C4429 1.287 . S
C4430 C4431 1.524 . S
C4430 H4449 0.913 . S
C4431 H4407 0.950 . S
C4431 C4430 1.524 . S
C4431 C4432 1.415 . S
C4432 H4408 0.950 . S
C4432 C4427 1.363 . S
C4432 C4431 1.415 . S
C4433 H4409 0.951 . S
C4433 C4434 1.366 . S
C4433 C4435 1.388 . S
C4434 C4433 1.366 . S
C4434 C4438 1.385 . S
C4435 H4410 0.951 . S
C4435 C4433 1.388 . S
C4435 C4436 1.366 . S
C4436 C4435 1.366 . S
C4436 C4437 1.414 . S
C4436 C4439 1.499 . S
C4437 H4411 0.950 . S
C4437 C4436 1.414 . S
C4437 C4438 1.374 . S
C4438 H4412 0.950 . S
C4438 C4434 1.385 . S
C4438 C4437 1.374 . S
C4439 C4436 1.499 . S
C4439 C4440 1.373 . S
C4439 C4441 1.389 . S
C4440 H4413 0.950 . S
C4440 C4426 1.377 . S
C4440 C4439 1.373 . S
C4441 C4425 1.377 . S
C4441 C4439 1.389 . S
C4441 C4442 1.524 . S
C4442 C4441 1.524 . S
C4442 C4443 1.397 . S
C4442 C4447 1.363 . S
C4443 H4414 0.950 . S
C4443 C4442 1.397 . S
C4443 C4444 1.334 . S
C4444 H4415 0.950 . S
C4444 C4443 1.334 . S
C4444 C4445 1.287 . S
C4445 C4444 1.287 . S
C4445 C4446 1.524 . S
C4445 H4448 0.999 . S
C4446 H4416 0.950 . S
C4446 C4445 1.524 . S
C4446 C4447 1.415 . S
C4447 H4417 0.950 . S
C4447 C4442 1.363 . S
C4447 C4446 1.415 . S
H4448 C4445 0.999 . S
H4449 C4430 0.913 . S
H4450 C4468 0.951 . S
H4451 C4470 0.951 . S
H4452 C4472 0.950 . S
H4453 C4473 0.950 . S
H4454 C4475 0.950 . S
H4455 C4478 0.950 . S
H4456 C4479 0.950 . S
H4457 C4481 0.950 . S
H4458 C4482 0.950 . S
H4459 C4483 0.951 1_545 S
H4460 C4485 0.951 . S
H4461 C4487 0.950 . S
H4462 C4488 0.950 . S
H4463 C4490 0.950 . S
H4464 C4493 0.950 . S
H4465 C4494 0.950 . S
H4466 C4496 0.950 1_545 S
H4467 C4497 0.950 . S
C4468 H4450 0.951 . S
C4468 C4469 1.366 . S
C4468 C4470 1.388 . S
C4469 C4468 1.366 . S
C4469 C4473 1.385 . S
C4470 H4451 0.951 . S
C4470 C4468 1.388 . S
C4470 C4471 1.366 . S
C4471 C4470 1.366 . S
C4471 C4472 1.414 . S
C4471 C4474 1.499 . S
C4472 H4452 0.950 . S
C4472 C4471 1.414 . S
C4472 C4473 1.374 . S
C4473 H4453 0.950 . S
C4473 C4469 1.385 . S
C4473 C4472 1.374 . S
C4474 C4471 1.499 . S
C4474 C4475 1.373 . S
C4474 C4476 1.389 . S
C4475 H4454 0.950 . S
C4475 C4474 1.373 . S
C4475 C4491 1.377 . S
C4476 C4474 1.389 . S
C4476 C4477 1.524 . S
C4476 C4490 1.377 . S
C4477 C4476 1.524 . S
C4477 C4478 1.397 . S
C4477 C4482 1.363 . S
C4478 H4455 0.950 . S
C4478 C4477 1.397 . S
C4478 C4479 1.334 . S
C4479 H4456 0.950 . S
C4479 C4478 1.334 . S
C4479 C4480 1.287 . S
C4480 C4479 1.287 . S
C4480 C4481 1.524 . S
C4480 H4499 0.913 . S
C4481 H4457 0.950 . S
C4481 C4480 1.524 . S
C4481 C4482 1.415 . S
C4482 H4458 0.950 . S
C4482 C4477 1.363 . S
C4482 C4481 1.415 . S
C4483 H4459 0.951 1_565 S
C4483 C4484 1.366 . S
C4483 C4485 1.388 . S
C4484 C4483 1.366 . S
C4484 C4488 1.385 . S
C4485 H4460 0.951 . S
C4485 C4483 1.388 . S
C4485 C4486 1.366 . S
C4486 C4485 1.366 . S
C4486 C4487 1.414 . S
C4486 C4489 1.499 . S
C4487 H4461 0.950 . S
C4487 C4486 1.414 . S
C4487 C4488 1.374 . S
C4488 H4462 0.950 . S
C4488 C4484 1.385 . S
C4488 C4487 1.374 . S
C4489 C4486 1.499 . S
C4489 C4490 1.373 . S
C4489 C4491 1.389 . S
C4490 H4463 0.950 . S
C4490 C4476 1.377 . S
C4490 C4489 1.373 . S
C4491 C4475 1.377 . S
C4491 C4489 1.389 . S
C4491 C4492 1.524 . S
C4492 C4491 1.524 . S
C4492 C4493 1.397 . S
C4492 C4497 1.363 . S
C4493 H4464 0.950 . S
C4493 C4492 1.397 . S
C4493 C4494 1.334 . S
C4494 H4465 0.950 . S
C4494 C4493 1.334 . S
C4494 C4495 1.287 . S
C4495 C4494 1.287 . S
C4495 C4496 1.524 . S
C4495 H4498 0.999 . S
C4496 H4466 0.950 1_565 S
C4496 C4495 1.524 . S
C4496 C4497 1.415 . S
C4497 H4467 0.950 . S
C4497 C4492 1.363 . S
C4497 C4496 1.415 . S
H4498 C4495 0.999 . S
H4499 C4480 0.913 . S
H4500 C4518 0.951 . S
H4501 C4520 0.951 . S
H4502 C4522 0.950 . S
H4503 C4523 0.950 . S
H4504 C4525 0.950 . S
H4505 C4528 0.950 . S
H4506 C4529 0.950 . S
H4507 C4531 0.950 . S
H4508 C4532 0.950 . S
H4509 C4533 0.951 . S
H4510 C4535 0.951 . S
H4511 C4537 0.950 . S
H4512 C4538 0.950 . S
H4513 C4540 0.950 . S
H4514 C4543 0.950 . S
H4515 C4544 0.950 . S
H4516 C4546 0.950 . S
H4517 C4547 0.950 . S
C4518 H4500 0.951 . S
C4518 C4519 1.366 . S
C4518 C4520 1.388 . S
C4519 C4518 1.366 . S
C4519 C4523 1.385 . S
C4520 H4501 0.951 . S
C4520 C4518 1.388 . S
C4520 C4521 1.366 . S
C4521 C4520 1.366 . S
C4521 C4522 1.414 . S
C4521 C4524 1.499 . S
C4522 H4502 0.950 . S
C4522 C4521 1.414 . S
C4522 C4523 1.374 . S
C4523 H4503 0.950 . S
C4523 C4519 1.385 . S
C4523 C4522 1.374 . S
C4524 C4521 1.499 . S
C4524 C4525 1.373 . S
C4524 C4526 1.389 . S
C4525 H4504 0.950 . S
C4525 C4524 1.373 . S
C4525 C4541 1.377 . S
C4526 C4524 1.389 . S
C4526 C4527 1.524 . S
C4526 C4540 1.377 . S
C4527 C4526 1.524 . S
C4527 C4528 1.397 . S
C4527 C4532 1.363 . S
C4528 H4505 0.950 . S
C4528 C4527 1.397 . S
C4528 C4529 1.334 . S
C4529 H4506 0.950 . S
C4529 C4528 1.334 . S
C4529 C4530 1.287 . S
C4530 C4529 1.287 . S
C4530 C4531 1.524 . S
C4530 H4549 0.913 . S
C4531 H4507 0.950 . S
C4531 C4530 1.524 . S
C4531 C4532 1.415 . S
C4532 H4508 0.950 . S
C4532 C4527 1.363 . S
C4532 C4531 1.415 . S
C4533 H4509 0.951 . S
C4533 C4534 1.366 . S
C4533 C4535 1.388 . S
C4534 C4533 1.366 . S
C4534 C4538 1.385 . S
C4535 H4510 0.951 . S
C4535 C4533 1.388 . S
C4535 C4536 1.366 . S
C4536 C4535 1.366 . S
C4536 C4537 1.414 . S
C4536 C4539 1.499 . S
C4537 H4511 0.950 . S
C4537 C4536 1.414 . S
C4537 C4538 1.374 . S
C4538 H4512 0.950 . S
C4538 C4534 1.385 . S
C4538 C4537 1.374 . S
C4539 C4536 1.499 . S
C4539 C4540 1.373 . S
C4539 C4541 1.389 . S
C4540 H4513 0.950 . S
C4540 C4526 1.377 . S
C4540 C4539 1.373 . S
C4541 C4525 1.377 . S
C4541 C4539 1.389 . S
C4541 C4542 1.524 . S
C4542 C4541 1.524 . S
C4542 C4543 1.397 . S
C4542 C4547 1.363 . S
C4543 H4514 0.950 . S
C4543 C4542 1.397 . S
C4543 C4544 1.334 . S
C4544 H4515 0.950 . S
C4544 C4543 1.334 . S
C4544 C4545 1.287 . S
C4545 C4544 1.287 . S
C4545 C4546 1.524 . S
C4545 H4548 0.999 . S
C4546 H4516 0.950 . S
C4546 C4545 1.524 . S
C4546 C4547 1.415 . S
C4547 H4517 0.950 . S
C4547 C4542 1.363 . S
C4547 C4546 1.415 . S
H4548 C4545 0.999 . S
H4549 C4530 0.913 . S
H4550 C4568 0.951 . S
H4551 C4570 0.951 . S
H4552 C4572 0.950 . S
H4553 C4573 0.950 . S
H4554 C4575 0.950 . S
H4555 C4578 0.950 . S
H4556 C4579 0.950 . S
H4557 C4581 0.950 . S
H4558 C4582 0.950 . S
H4559 C4583 0.951 . S
H4560 C4585 0.951 . S
H4561 C4587 0.950 . S
H4562 C4588 0.894 1_565 S
H4563 C4590 0.950 . S
H4564 C4593 0.950 . S
H4565 C4594 0.950 . S
H4566 C4596 0.950 . S
H4567 C4597 0.950 . S
C4568 H4550 0.951 . S
C4568 C4569 1.366 . S
C4568 C4570 1.388 . S
C4569 C4568 1.366 . S
C4569 C4573 1.385 . S
C4570 H4551 0.951 . S
C4570 C4568 1.388 . S
C4570 C4571 1.366 . S
C4571 C4570 1.366 . S
C4571 C4572 1.414 . S
C4571 C4574 1.499 . S
C4572 H4552 0.950 . S
C4572 C4571 1.414 . S
C4572 C4573 1.374 . S
C4573 H4553 0.950 . S
C4573 C4569 1.385 . S
C4573 C4572 1.374 . S
C4574 C4571 1.499 . S
C4574 C4575 1.373 1_554 S
C4574 C4576 1.389 . S
C4575 H4554 0.950 . S
C4575 C4574 1.373 1_556 S
C4575 C4591 1.377 . S
C4576 C4574 1.389 . S
C4576 C4577 1.524 . S
C4576 C4590 1.377 . S
C4577 C4576 1.524 . S
C4577 C4578 1.397 . S
C4577 C4582 1.363 . S
C4578 H4555 0.950 . S
C4578 C4577 1.397 . S
C4578 C4579 1.334 . S
C4579 H4556 0.950 . S
C4579 C4578 1.334 . S
C4579 C4580 1.287 . S
C4580 C4579 1.287 . S
C4580 C4581 1.524 . S
C4580 H4599 0.913 . S
C4581 H4557 0.950 . S
C4581 C4580 1.524 . S
C4581 C4582 1.415 . S
C4582 H4558 0.950 . S
C4582 C4577 1.363 . S
C4582 C4581 1.415 . S
C4583 H4559 0.951 . S
C4583 C4584 1.366 . S
C4583 C4585 1.388 . S
C4584 C4583 1.366 . S
C4584 C4588 1.385 . S
C4585 H4560 0.951 . S
C4585 C4583 1.388 . S
C4585 C4586 1.366 . S
C4586 C4585 1.366 . S
C4586 C4587 1.414 . S
C4586 C4589 1.499 . S
C4587 H4561 0.950 . S
C4587 C4586 1.414 . S
C4587 C4588 1.374 . S
C4588 H4562 0.894 1_545 S
C4588 C4584 1.385 . S
C4588 C4587 1.374 . S
C4589 C4586 1.499 . S
C4589 C4590 1.373 . S
C4589 C4591 1.389 1_554 S
C4590 H4563 0.950 . S
C4590 C4576 1.377 . S
C4590 C4589 1.373 . S
C4591 C4575 1.377 . S
C4591 C4589 1.389 1_556 S
C4591 C4592 1.524 . S
C4592 C4591 1.524 . S
C4592 C4593 1.397 . S
C4592 C4597 1.363 . S
C4593 H4564 0.950 . S
C4593 C4592 1.397 . S
C4593 C4594 1.334 . S
C4594 H4565 0.950 . S
C4594 C4593 1.334 . S
C4594 C4595 1.287 . S
C4595 C4594 1.287 . S
C4595 C4596 1.524 . S
C4595 H4598 0.999 . S
C4596 H4566 0.950 . S
C4596 C4595 1.524 . S
C4596 C4597 1.415 . S
C4597 H4567 0.950 . S
C4597 C4592 1.363 . S
C4597 C4596 1.415 . S
H4598 C4595 0.999 . S
H4599 C4580 0.913 . S
H4600 C4618 0.951 . S
H4601 C4620 0.951 . S
H4602 C4622 0.950 . S
H4603 C4623 0.950 . S
H4604 C4625 0.950 . S
H4605 C4628 0.950 . S
H4606 C4629 0.950 . S
H4607 C4631 0.950 . S
H4608 C4632 0.950 . S
H4609 C4633 0.951 . S
H4610 C4635 0.951 . S
H4611 C4637 0.950 . S
H4612 C4638 0.950 . S
H4613 C4640 0.950 . S
H4614 C4643 0.950 . S
H4615 C4644 0.950 . S
H4616 C4646 0.950 . S
H4617 C4647 0.950 . S
C4618 H4600 0.951 . S
C4618 C4619 1.366 . S
C4618 C4620 1.388 . S
C4619 C4618 1.366 . S
C4619 C4623 1.385 . S
C4620 H4601 0.951 . S
C4620 C4618 1.388 . S
C4620 C4621 1.366 . S
C4621 C4620 1.366 . S
C4621 C4622 1.414 . S
C4621 C4624 1.499 . S
C4622 H4602 0.950 . S
C4622 C4621 1.414 . S
C4622 C4623 1.374 . S
C4623 H4603 0.950 . S
C4623 C4619 1.385 . S
C4623 C4622 1.374 . S
C4624 C4621 1.499 . S
C4624 C4625 1.373 . S
C4624 C4626 1.389 . S
C4625 H4604 0.950 . S
C4625 C4624 1.373 . S
C4625 C4641 1.377 . S
C4626 C4624 1.389 . S
C4626 C4627 1.524 . S
C4626 C4640 1.377 . S
C4627 C4626 1.524 . S
C4627 C4628 1.397 . S
C4627 C4632 1.363 . S
C4628 H4605 0.950 . S
C4628 C4627 1.397 . S
C4628 C4629 1.334 . S
C4629 H4606 0.950 . S
C4629 C4628 1.334 . S
C4629 C4630 1.287 . S
C4630 C4629 1.287 . S
C4630 C4631 1.524 . S
C4630 H4649 0.913 . S
C4631 H4607 0.950 . S
C4631 C4630 1.524 . S
C4631 C4632 1.415 . S
C4632 H4608 0.950 . S
C4632 C4627 1.363 . S
C4632 C4631 1.415 . S
C4633 H4609 0.951 . S
C4633 C4634 1.366 . S
C4633 C4635 1.388 . S
C4634 C4633 1.366 . S
C4634 C4638 1.385 . S
C4635 H4610 0.951 . S
C4635 C4633 1.388 . S
C4635 C4636 1.366 . S
C4636 C4635 1.366 . S
C4636 C4637 1.414 . S
C4636 C4639 1.499 . S
C4637 H4611 0.950 . S
C4637 C4636 1.414 . S
C4637 C4638 1.374 . S
C4638 H4612 0.950 . S
C4638 C4634 1.385 . S
C4638 C4637 1.374 . S
C4639 C4636 1.499 . S
C4639 C4640 1.373 . S
C4639 C4641 1.389 . S
C4640 H4613 0.950 . S
C4640 C4626 1.377 . S
C4640 C4639 1.373 . S
C4641 C4625 1.377 . S
C4641 C4639 1.389 . S
C4641 C4642 1.524 . S
C4642 C4641 1.524 . S
C4642 C4643 1.397 . S
C4642 C4647 1.363 . S
C4643 H4614 0.950 . S
C4643 C4642 1.397 . S
C4643 C4644 1.334 . S
C4644 H4615 0.950 . S
C4644 C4643 1.334 . S
C4644 C4645 1.287 . S
C4645 C4644 1.287 . S
C4645 C4646 1.524 . S
C4645 H4648 0.999 . S
C4646 H4616 0.950 . S
C4646 C4645 1.524 . S
C4646 C4647 1.415 . S
C4647 H4617 0.950 . S
C4647 C4642 1.363 . S
C4647 C4646 1.415 . S
H4648 C4645 0.999 . S
H4649 C4630 0.913 . S
H4650 C4668 0.951 . S
H4651 C4670 0.951 . S
H4652 C4672 0.950 . S
H4653 C4673 0.950 . S
H4654 C4675 0.950 . S
H4655 C4678 0.950 . S
H4656 C4679 0.950 . S
H4657 C4681 0.950 . S
H4658 C4682 0.950 . S
H4659 C4683 0.951 . S
H4660 C4685 0.951 . S
H4661 C4687 0.950 . S
H4662 C4688 0.950 . S
H4663 C4690 0.950 . S
H4664 C4693 0.950 . S
H4665 C4694 0.950 . S
H4666 C4696 0.950 . S
H4667 C4697 0.950 . S
C4668 H4650 0.951 . S
C4668 C4669 1.366 1_556 S
C4668 C4670 1.388 . S
C4669 C4668 1.366 1_554 S
C4669 C4673 1.385 . S
C4670 H4651 0.951 . S
C4670 C4668 1.388 . S
C4670 C4671 1.366 1_556 S
C4671 C4670 1.366 1_554 S
C4671 C4672 1.414 . S
C4671 C4674 1.500 . S
C4672 H4652 0.950 . S
C4672 C4671 1.414 . S
C4672 C4673 1.374 . S
C4673 H4653 0.950 . S
C4673 C4669 1.385 . S
C4673 C4672 1.374 . S
C4674 C4671 1.500 . S
C4674 C4675 1.406 . S
C4674 C4676 1.357 1_554 S
C4675 H4654 0.950 . S
C4675 C4674 1.406 . S
C4675 C4691 1.377 . S
C4676 C4674 1.357 1_556 S
C4676 C4677 1.524 . S
C4676 C4690 1.377 . S
C4677 C4676 1.524 . S
C4677 C4678 1.397 . S
C4677 C4682 1.363 . S
C4678 H4655 0.950 . S
C4678 C4677 1.397 . S
C4678 C4679 1.334 . S
C4679 H4656 0.950 . S
C4679 C4678 1.334 . S
C4679 C4680 1.287 . S
C4680 C4679 1.287 . S
C4680 C4681 1.524 . S
C4680 H4699 0.913 . S
C4681 H4657 0.950 . S
C4681 C4680 1.524 . S
C4681 C4682 1.415 . S
C4682 H4658 0.950 . S
C4682 C4677 1.363 . S
C4682 C4681 1.415 . S
C4683 H4659 0.951 . S
C4683 C4684 1.366 1_554 S
C4683 C4685 1.388 . S
C4684 C4683 1.366 1_556 S
C4684 C4688 1.385 . S
C4685 H4660 0.951 . S
C4685 C4683 1.388 . S
C4685 C4686 1.372 . S
C4686 C4685 1.372 . S
C4686 C4687 1.406 1_554 S
C4686 C4689 1.498 . S
C4687 H4661 0.950 . S
C4687 C4686 1.406 1_556 S
C4687 C4688 1.374 . S
C4688 H4662 0.950 . S
C4688 C4684 1.385 . S
C4688 C4687 1.374 . S
C4689 C4686 1.498 . S
C4689 C4690 1.325 1_554 S
C4689 C4691 1.438 . S
C4690 H4663 0.950 . S
C4690 C4676 1.377 . S
C4690 C4689 1.325 1_556 S
C4691 C4675 1.377 . S
C4691 C4689 1.438 . S
C4691 C4692 1.524 . S
C4692 C4691 1.524 . S
C4692 C4693 1.397 . S
C4692 C4697 1.363 . S
C4693 H4664 0.950 . S
C4693 C4692 1.397 . S
C4693 C4694 1.334 . S
C4694 H4665 0.950 . S
C4694 C4693 1.334 . S
C4694 C4695 1.287 . S
C4695 C4694 1.287 . S
C4695 C4696 1.524 . S
C4695 H4698 0.999 . S
C4696 H4666 0.950 . S
C4696 C4695 1.524 . S
C4696 C4697 1.415 . S
C4697 H4667 0.950 . S
C4697 C4692 1.363 . S
C4697 C4696 1.415 . S
H4698 C4695 0.999 . S
H4699 C4680 0.913 . S
H4700 C4718 0.951 . S
H4701 C4720 0.951 . S
H4702 C4722 0.950 . S
H4703 C4723 0.950 . S
H4704 C4725 0.950 . S
H4705 C4728 0.950 . S
H4706 C4729 0.950 . S
H4707 C4731 0.950 . S
H4708 C4732 0.950 . S
H4709 C4733 0.951 . S
H4710 C4735 0.951 . S
H4711 C4737 0.950 . S
H4712 C4738 0.950 . S
H4713 C4740 0.950 . S
H4714 C4743 0.950 . S
H4715 C4744 0.950 . S
H4716 C4746 0.950 . S
H4717 C4747 0.950 . S
C4718 H4700 0.951 . S
C4718 C4719 1.366 . S
C4718 C4720 1.388 . S
C4719 C4718 1.366 . S
C4719 C4723 1.385 . S
C4720 H4701 0.951 . S
C4720 C4718 1.388 . S
C4720 C4721 1.366 . S
C4721 C4720 1.366 . S
C4721 C4722 1.414 . S
C4721 C4724 1.499 . S
C4722 H4702 0.950 . S
C4722 C4721 1.414 . S
C4722 C4723 1.374 . S
C4723 H4703 0.950 . S
C4723 C4719 1.385 . S
C4723 C4722 1.374 . S
C4724 C4721 1.499 . S
C4724 C4725 1.373 . S
C4724 C4726 1.389 . S
C4725 H4704 0.950 . S
C4725 C4724 1.373 . S
C4725 C4741 1.377 . S
C4726 C4724 1.389 . S
C4726 C4727 1.524 . S
C4726 C4740 1.377 . S
C4727 C4726 1.524 . S
C4727 C4728 1.397 . S
C4727 C4732 1.363 . S
C4728 H4705 0.950 . S
C4728 C4727 1.397 . S
C4728 C4729 1.334 . S
C4729 H4706 0.950 . S
C4729 C4728 1.334 . S
C4729 C4730 1.287 . S
C4730 C4729 1.287 . S
C4730 C4731 1.524 . S
C4730 H4749 0.913 . S
C4731 H4707 0.950 . S
C4731 C4730 1.524 . S
C4731 C4732 1.415 . S
C4732 H4708 0.950 . S
C4732 C4727 1.363 . S
C4732 C4731 1.415 . S
C4733 H4709 0.951 . S
C4733 C4734 1.366 . S
C4733 C4735 1.388 . S
C4734 C4733 1.366 . S
C4734 C4738 1.385 . S
C4735 H4710 0.951 . S
C4735 C4733 1.388 . S
C4735 C4736 1.366 . S
C4736 C4735 1.366 . S
C4736 C4737 1.414 . S
C4736 C4739 1.499 . S
C4737 H4711 0.950 . S
C4737 C4736 1.414 . S
C4737 C4738 1.374 . S
C4738 H4712 0.950 . S
C4738 C4734 1.385 . S
C4738 C4737 1.374 . S
C4739 C4736 1.499 . S
C4739 C4740 1.373 . S
C4739 C4741 1.389 . S
C4740 H4713 0.950 . S
C4740 C4726 1.377 . S
C4740 C4739 1.373 . S
C4741 C4725 1.377 . S
C4741 C4739 1.389 . S
C4741 C4742 1.524 . S
C4742 C4741 1.524 . S
C4742 C4743 1.397 . S
C4742 C4747 1.363 . S
C4743 H4714 0.950 . S
C4743 C4742 1.397 . S
C4743 C4744 1.334 . S
C4744 H4715 0.950 . S
C4744 C4743 1.334 . S
C4744 C4745 1.287 . S
C4745 C4744 1.287 . S
C4745 C4746 1.524 . S
C4745 H4748 0.999 . S
C4746 H4716 0.950 . S
C4746 C4745 1.524 . S
C4746 C4747 1.415 . S
C4747 H4717 0.950 . S
C4747 C4742 1.363 . S
C4747 C4746 1.415 . S
H4748 C4745 0.999 . S
H4749 C4730 0.913 . S
H4750 C4768 0.951 . S
H4751 C4770 0.951 . S
H4752 C4772 0.950 . S
H4753 C4773 0.950 . S
H4754 C4775 0.950 . S
H4755 C4778 0.950 . S
H4756 C4779 0.950 . S
H4757 C4781 0.950 . S
H4758 C4782 0.950 . S
H4759 C4783 0.951 . S
H4760 C4785 0.951 . S
H4761 C4787 0.950 . S
H4762 C4788 0.950 . S
H4763 C4790 0.950 . S
H4764 C4793 0.950 . S
H4765 C4794 0.950 . S
H4766 C4796 0.950 . S
H4767 C4797 0.950 . S
C4768 H4750 0.951 . S
C4768 C4769 1.366 . S
C4768 C4770 1.388 . S
C4769 C4768 1.366 . S
C4769 C4773 1.385 . S
C4770 H4751 0.951 . S
C4770 C4768 1.388 . S
C4770 C4771 1.366 . S
C4771 C4770 1.366 . S
C4771 C4772 1.414 . S
C4771 C4774 1.499 . S
C4772 H4752 0.950 . S
C4772 C4771 1.414 . S
C4772 C4773 1.374 . S
C4773 H4753 0.950 . S
C4773 C4769 1.385 . S
C4773 C4772 1.374 . S
C4774 C4771 1.499 . S
C4774 C4775 1.373 . S
C4774 C4776 1.389 . S
C4775 H4754 0.950 . S
C4775 C4774 1.373 . S
C4775 C4791 1.377 . S
C4776 C4774 1.389 . S
C4776 C4777 1.524 . S
C4776 C4790 1.377 . S
C4777 C4776 1.524 . S
C4777 C4778 1.397 . S
C4777 C4782 1.363 . S
C4778 H4755 0.950 . S
C4778 C4777 1.397 . S
C4778 C4779 1.334 . S
C4779 H4756 0.950 . S
C4779 C4778 1.334 . S
C4779 C4780 1.287 . S
C4780 C4779 1.287 . S
C4780 C4781 1.524 . S
C4780 H4799 0.913 . S
C4781 H4757 0.950 . S
C4781 C4780 1.524 . S
C4781 C4782 1.415 . S
C4782 H4758 0.950 . S
C4782 C4777 1.363 . S
C4782 C4781 1.415 . S
C4783 H4759 0.951 . S
C4783 C4784 1.366 . S
C4783 C4785 1.388 . S
C4784 C4783 1.366 . S
C4784 C4788 1.385 . S
C4785 H4760 0.951 . S
C4785 C4783 1.388 . S
C4785 C4786 1.366 . S
C4786 C4785 1.366 . S
C4786 C4787 1.414 . S
C4786 C4789 1.499 . S
C4787 H4761 0.950 . S
C4787 C4786 1.414 . S
C4787 C4788 1.374 . S
C4788 H4762 0.950 . S
C4788 C4784 1.385 . S
C4788 C4787 1.374 . S
C4789 C4786 1.499 . S
C4789 C4790 1.373 . S
C4789 C4791 1.389 . S
C4790 H4763 0.950 . S
C4790 C4776 1.377 . S
C4790 C4789 1.373 . S
C4791 C4775 1.377 . S
C4791 C4789 1.389 . S
C4791 C4792 1.524 . S
C4792 C4791 1.524 . S
C4792 C4793 1.397 . S
C4792 C4797 1.363 . S
C4793 H4764 0.950 . S
C4793 C4792 1.397 . S
C4793 C4794 1.334 . S
C4794 H4765 0.950 . S
C4794 C4793 1.334 . S
C4794 C4795 1.287 . S
C4795 C4794 1.287 . S
C4795 C4796 1.524 . S
C4795 H4798 0.999 . S
C4796 H4766 0.950 . S
C4796 C4795 1.524 . S
C4796 C4797 1.415 . S
C4797 H4767 0.950 . S
C4797 C4792 1.363 . S
C4797 C4796 1.415 . S
H4798 C4795 0.999 . S
H4799 C4780 0.913 . S
H4800 C4818 0.951 . S
H4801 C4820 0.951 . S
H4802 C4822 0.950 . S
H4803 C4823 0.950 . S
H4804 C4825 0.950 . S
H4805 C4828 0.950 . S
H4806 C4829 0.950 . S
H4807 C4831 0.950 . S
H4808 C4832 0.950 . S
H4809 C4833 0.951 . S
H4810 C4835 0.951 . S
H4811 C4837 0.950 . S
H4812 C4838 0.950 . S
H4813 C4840 0.950 . S
H4814 C4843 0.950 . S
H4815 C4844 0.950 . S
H4816 C4846 0.950 . S
H4817 C4847 0.950 . S
C4818 H4800 0.951 . S
C4818 C4819 1.366 . S
C4818 C4820 1.388 . S
C4819 C4818 1.366 . S
C4819 C4823 1.385 . S
C4820 H4801 0.951 . S
C4820 C4818 1.388 . S
C4820 C4821 1.366 . S
C4821 C4820 1.366 . S
C4821 C4822 1.414 . S
C4821 C4824 1.499 . S
C4822 H4802 0.950 . S
C4822 C4821 1.414 . S
C4822 C4823 1.374 . S
C4823 H4803 0.950 . S
C4823 C4819 1.385 . S
C4823 C4822 1.374 . S
C4824 C4821 1.499 . S
C4824 C4825 1.373 . S
C4824 C4826 1.389 . S
C4825 H4804 0.950 . S
C4825 C4824 1.373 . S
C4825 C4841 1.377 . S
C4826 C4824 1.389 . S
C4826 C4827 1.524 . S
C4826 C4840 1.377 . S
C4827 C4826 1.524 . S
C4827 C4828 1.397 . S
C4827 C4832 1.363 . S
C4828 H4805 0.950 . S
C4828 C4827 1.397 . S
C4828 C4829 1.334 . S
C4829 H4806 0.950 . S
C4829 C4828 1.334 . S
C4829 C4830 1.287 . S
C4830 C4829 1.287 . S
C4830 C4831 1.524 . S
C4830 H4849 0.913 . S
C4831 H4807 0.950 . S
C4831 C4830 1.524 . S
C4831 C4832 1.415 . S
C4832 H4808 0.950 . S
C4832 C4827 1.363 . S
C4832 C4831 1.415 . S
C4833 H4809 0.951 . S
C4833 C4834 1.366 . S
C4833 C4835 1.388 . S
C4834 C4833 1.366 . S
C4834 C4838 1.385 . S
C4835 H4810 0.951 . S
C4835 C4833 1.388 . S
C4835 C4836 1.366 . S
C4836 C4835 1.366 . S
C4836 C4837 1.414 . S
C4836 C4839 1.499 . S
C4837 H4811 0.950 . S
C4837 C4836 1.414 . S
C4837 C4838 1.374 . S
C4838 H4812 0.950 . S
C4838 C4834 1.385 . S
C4838 C4837 1.374 . S
C4839 C4836 1.499 . S
C4839 C4840 1.373 . S
C4839 C4841 1.389 . S
C4840 H4813 0.950 . S
C4840 C4826 1.377 . S
C4840 C4839 1.373 . S
C4841 C4825 1.377 . S
C4841 C4839 1.389 . S
C4841 C4842 1.524 . S
C4842 C4841 1.524 . S
C4842 C4843 1.397 . S
C4842 C4847 1.363 . S
C4843 H4814 0.950 . S
C4843 C4842 1.397 . S
C4843 C4844 1.334 . S
C4844 H4815 0.950 . S
C4844 C4843 1.334 . S
C4844 C4845 1.287 . S
C4845 C4844 1.287 . S
C4845 C4846 1.524 . S
C4845 H4848 0.999 . S
C4846 H4816 0.950 . S
C4846 C4845 1.524 . S
C4846 C4847 1.415 . S
C4847 H4817 0.950 . S
C4847 C4842 1.363 . S
C4847 C4846 1.415 . S
H4848 C4845 0.999 . S
H4849 C4830 0.913 . S
H4850 C4868 0.951 . S
H4851 C4870 0.951 . S
H4852 C4872 0.950 . S
H4853 C4873 0.950 . S
H4854 C4875 0.950 . S
H4855 C4878 0.950 . S
H4856 C4879 0.950 . S
H4857 C4881 0.950 . S
H4858 C4882 0.950 . S
H4859 C4883 0.951 . S
H4860 C4885 0.951 . S
H4861 C4887 0.950 . S
H4862 C4888 0.950 . S
H4863 C4890 0.950 . S
H4864 C4893 0.950 . S
H4865 C4894 0.950 . S
H4866 C4896 0.950 . S
H4867 C4897 0.950 . S
C4868 H4850 0.951 . S
C4868 C4869 1.366 . S
C4868 C4870 1.388 . S
C4869 C4868 1.366 . S
C4869 C4873 1.385 . S
C4870 H4851 0.951 . S
C4870 C4868 1.388 . S
C4870 C4871 1.366 . S
C4871 C4870 1.366 . S
C4871 C4872 1.414 . S
C4871 C4874 1.499 . S
C4872 H4852 0.950 . S
C4872 C4871 1.414 . S
C4872 C4873 1.374 . S
C4873 H4853 0.950 . S
C4873 C4869 1.385 . S
C4873 C4872 1.374 . S
C4874 C4871 1.499 . S
C4874 C4875 1.373 . S
C4874 C4876 1.389 . S
C4875 H4854 0.950 . S
C4875 C4874 1.373 . S
C4875 C4891 1.377 . S
C4876 C4874 1.389 . S
C4876 C4877 1.524 . S
C4876 C4890 1.377 . S
C4877 C4876 1.524 . S
C4877 C4878 1.397 . S
C4877 C4882 1.363 . S
C4878 H4855 0.950 . S
C4878 C4877 1.397 . S
C4878 C4879 1.334 . S
C4879 H4856 0.950 . S
C4879 C4878 1.334 . S
C4879 C4880 1.287 . S
C4880 C4879 1.287 . S
C4880 C4881 1.524 . S
C4880 H4899 0.913 . S
C4881 H4857 0.950 . S
C4881 C4880 1.524 . S
C4881 C4882 1.415 . S
C4882 H4858 0.950 . S
C4882 C4877 1.363 . S
C4882 C4881 1.415 . S
C4883 H4859 0.951 . S
C4883 C4884 1.366 . S
C4883 C4885 1.388 . S
C4884 C4883 1.366 . S
C4884 C4888 1.385 . S
C4885 H4860 0.951 . S
C4885 C4883 1.388 . S
C4885 C4886 1.366 . S
C4886 C4885 1.366 . S
C4886 C4887 1.414 . S
C4886 C4889 1.499 . S
C4887 H4861 0.950 . S
C4887 C4886 1.414 . S
C4887 C4888 1.374 . S
C4888 H4862 0.950 . S
C4888 C4884 1.385 . S
C4888 C4887 1.374 . S
C4889 C4886 1.499 . S
C4889 C4890 1.373 . S
C4889 C4891 1.389 . S
C4890 H4863 0.950 . S
C4890 C4876 1.377 . S
C4890 C4889 1.373 . S
C4891 C4875 1.377 . S
C4891 C4889 1.389 . S
C4891 C4892 1.524 . S
C4892 C4891 1.524 . S
C4892 C4893 1.397 . S
C4892 C4897 1.363 . S
C4893 H4864 0.950 . S
C4893 C4892 1.397 . S
C4893 C4894 1.334 . S
C4894 H4865 0.950 . S
C4894 C4893 1.334 . S
C4894 C4895 1.287 . S
C4895 C4894 1.287 . S
C4895 C4896 1.524 . S
C4895 H4898 0.999 . S
C4896 H4866 0.950 . S
C4896 C4895 1.524 . S
C4896 C4897 1.415 . S
C4897 H4867 0.950 . S
C4897 C4892 1.363 . S
C4897 C4896 1.415 . S
H4898 C4895 0.999 . S
H4899 C4880 0.913 . S
H4900 C4918 0.951 . S
H4901 C4920 0.951 . S
H4902 C4922 0.950 . S
H4903 C4923 0.950 . S
H4904 C4925 0.950 . S
H4905 C4928 0.950 . S
H4906 C4929 0.950 . S
H4907 C4931 0.950 . S
H4908 C4932 0.950 . S
H4909 C4933 0.951 . S
H4910 C4935 0.951 . S
H4911 C4937 0.950 . S
H4912 C4938 0.950 . S
H4913 C4940 0.950 . S
H4914 C4943 0.950 . S
H4915 C4944 0.950 . S
H4916 C4946 0.950 . S
H4917 C4947 0.950 . S
C4918 H4900 0.951 . S
C4918 C4919 1.366 . S
C4918 C4920 1.388 . S
C4919 C4918 1.366 . S
C4919 C4923 1.385 1_455 S
C4920 H4901 0.951 . S
C4920 C4918 1.388 . S
C4920 C4921 1.366 . S
C4921 C4920 1.366 . S
C4921 C4922 1.414 1_455 S
C4921 C4924 1.500 . S
C4922 H4902 0.950 . S
C4922 C4921 1.414 1_655 S
C4922 C4923 1.374 . S
C4923 H4903 0.950 . S
C4923 C4919 1.385 1_655 S
C4923 C4922 1.374 . S
C4924 C4921 1.500 . S
C4924 C4925 1.364 1_455 S
C4924 C4926 1.398 . S
C4925 H4904 0.950 . S
C4925 C4924 1.364 1_655 S
C4925 C4941 1.377 . S
C4926 C4924 1.398 . S
C4926 C4927 1.524 . S
C4926 C4940 1.377 . S
C4927 C4926 1.524 . S
C4927 C4928 1.397 . S
C4927 C4932 1.363 . S
C4928 H4905 0.950 . S
C4928 C4927 1.397 . S
C4928 C4929 1.334 . S
C4929 H4906 0.950 . S
C4929 C4928 1.334 . S
C4929 C4930 1.287 . S
C4930 C4929 1.287 . S
C4930 C4931 1.524 . S
C4930 H4949 0.913 . S
C4931 H4907 0.950 . S
C4931 C4930 1.524 . S
C4931 C4932 1.415 . S
C4932 H4908 0.950 . S
C4932 C4927 1.363 . S
C4932 C4931 1.415 . S
C4933 H4909 0.951 . S
C4933 C4934 1.366 . S
C4933 C4935 1.388 . S
C4934 C4933 1.366 . S
C4934 C4938 1.385 1_655 S
C4935 H4910 0.951 . S
C4935 C4933 1.388 . S
C4935 C4936 1.366 . S
C4936 C4935 1.366 . S
C4936 C4937 1.414 1_655 S
C4936 C4939 1.499 . S
C4937 H4911 0.950 . S
C4937 C4936 1.414 1_455 S
C4937 C4938 1.374 . S
C4938 H4912 0.950 . S
C4938 C4934 1.385 1_455 S
C4938 C4937 1.374 . S
C4939 C4936 1.499 . S
C4939 C4940 1.373 1_655 S
C4939 C4941 1.389 . S
C4940 H4913 0.950 . S
C4940 C4926 1.377 . S
C4940 C4939 1.373 1_455 S
C4941 C4925 1.377 . S
C4941 C4939 1.389 . S
C4941 C4942 1.524 . S
C4942 C4941 1.524 . S
C4942 C4943 1.397 . S
C4942 C4947 1.363 . S
C4943 H4914 0.950 . S
C4943 C4942 1.397 . S
C4943 C4944 1.334 1_556 S
C4944 H4915 0.950 . S
C4944 C4943 1.334 1_554 S
C4944 C4945 1.285 1_554 S
C4945 C4944 1.285 1_556 S
C4945 C4946 1.537 . S
C4945 H4948 0.988 1_556 S
C4946 H4916 0.950 . S
C4946 C4945 1.537 . S
C4946 C4947 1.415 . S
C4947 H4917 0.950 . S
C4947 C4942 1.363 . S
C4947 C4946 1.415 . S
H4948 C4945 0.988 1_554 S
H4949 C4930 0.913 . S
H4950 C4968 0.951 . S
H4951 C4970 0.951 . S
H4952 C4972 0.950 . S
H4953 C4973 0.950 . S
H4954 C4975 0.950 . S
H4955 C4978 0.950 . S
H4956 C4979 0.950 . S
H4957 C4981 0.950 . S
H4958 C4982 0.950 . S
H4959 C4983 0.951 . S
H4960 C4985 0.951 . S
H4961 C4987 0.950 . S
H4962 C4988 0.950 . S
H4963 C4990 0.950 . S
H4964 C4993 0.950 . S
H4965 C4994 0.950 . S
H4966 C4996 0.950 . S
H4967 C4997 0.950 . S
C4968 H4950 0.951 . S
C4968 C4969 1.366 . S
C4968 C4970 1.388 . S
C4969 C4968 1.366 . S
C4969 C4973 1.385 . S
C4970 H4951 0.951 . S
C4970 C4968 1.388 . S
C4970 C4971 1.366 . S
C4971 C4970 1.366 . S
C4971 C4972 1.414 . S
C4971 C4974 1.499 . S
C4972 H4952 0.950 . S
C4972 C4971 1.414 . S
C4972 C4973 1.374 . S
C4973 H4953 0.950 . S
C4973 C4969 1.385 . S
C4973 C4972 1.374 . S
C4974 C4971 1.499 . S
C4974 C4975 1.373 . S
C4974 C4976 1.389 . S
C4975 H4954 0.950 . S
C4975 C4974 1.373 . S
C4975 C4991 1.377 . S
C4976 C4974 1.389 . S
C4976 C4977 1.524 . S
C4976 C4990 1.377 . S
C4977 C4976 1.524 . S
C4977 C4978 1.397 . S
C4977 C4982 1.363 . S
C4978 H4955 0.950 . S
C4978 C4977 1.397 . S
C4978 C4979 1.334 . S
C4979 H4956 0.950 . S
C4979 C4978 1.334 . S
C4979 C4980 1.287 . S
C4980 C4979 1.287 . S
C4980 C4981 1.524 . S
C4980 H4999 0.913 . S
C4981 H4957 0.950 . S
C4981 C4980 1.524 . S
C4981 C4982 1.415 . S
C4982 H4958 0.950 . S
C4982 C4977 1.363 . S
C4982 C4981 1.415 . S
C4983 H4959 0.951 . S
C4983 C4984 1.366 . S
C4983 C4985 1.388 . S
C4984 C4983 1.366 . S
C4984 C4988 1.385 . S
C4985 H4960 0.951 . S
C4985 C4983 1.388 . S
C4985 C4986 1.366 . S
C4986 C4985 1.366 . S
C4986 C4987 1.414 . S
C4986 C4989 1.499 . S
C4987 H4961 0.950 . S
C4987 C4986 1.414 . S
C4987 C4988 1.374 . S
C4988 H4962 0.950 . S
C4988 C4984 1.385 . S
C4988 C4987 1.374 . S
C4989 C4986 1.499 . S
C4989 C4990 1.373 . S
C4989 C4991 1.389 . S
C4990 H4963 0.950 . S
C4990 C4976 1.377 . S
C4990 C4989 1.373 . S
C4991 C4975 1.377 . S
C4991 C4989 1.389 . S
C4991 C4992 1.524 . S
C4992 C4991 1.524 . S
C4992 C4993 1.397 . S
C4992 C4997 1.363 . S
C4993 H4964 0.950 . S
C4993 C4992 1.397 . S
C4993 C4994 1.334 . S
C4994 H4965 0.950 . S
C4994 C4993 1.334 . S
C4994 C4995 1.287 . S
C4995 C4994 1.287 . S
C4995 C4996 1.524 . S
C4995 H4998 0.999 . S
C4996 H4966 0.950 . S
C4996 C4995 1.524 . S
C4996 C4997 1.415 . S
C4997 H4967 0.950 . S
C4997 C4992 1.363 . S
C4997 C4996 1.415 . S
H4998 C4995 0.999 . S
H4999 C4980 0.913 . S
H5000 C5018 0.951 . S
H5001 C5020 0.951 . S
H5002 C5022 0.950 . S
H5003 C5023 0.950 . S
H5004 C5025 0.950 . S
H5005 C5028 0.950 . S
H5006 C5029 0.950 . S
H5007 C5031 0.950 . S
H5008 C5032 0.950 . S
H5009 C5033 0.951 . S
H5010 C5035 0.951 . S
H5011 C5037 0.950 . S
H5012 C5038 0.950 . S
H5013 C5040 0.950 . S
H5014 C5043 0.950 . S
H5015 C5044 0.950 . S
H5016 C5046 0.950 . S
H5017 C5047 0.950 . S
C5018 H5000 0.951 . S
C5018 C5019 1.366 . S
C5018 C5020 1.388 . S
C5019 C5018 1.366 . S
C5019 C5023 1.385 . S
C5020 H5001 0.951 . S
C5020 C5018 1.388 . S
C5020 C5021 1.366 . S
C5021 C5020 1.366 . S
C5021 C5022 1.414 . S
C5021 C5024 1.499 . S
C5022 H5002 0.950 . S
C5022 C5021 1.414 . S
C5022 C5023 1.374 . S
C5023 H5003 0.950 . S
C5023 C5019 1.385 . S
C5023 C5022 1.374 . S
C5024 C5021 1.499 . S
C5024 C5025 1.373 . S
C5024 C5026 1.389 . S
C5025 H5004 0.950 . S
C5025 C5024 1.373 . S
C5025 C5041 1.377 . S
C5026 C5024 1.389 . S
C5026 C5027 1.524 . S
C5026 C5040 1.377 . S
C5027 C5026 1.524 . S
C5027 C5028 1.397 . S
C5027 C5032 1.363 . S
C5028 H5005 0.950 . S
C5028 C5027 1.397 . S
C5028 C5029 1.334 . S
C5029 H5006 0.950 . S
C5029 C5028 1.334 . S
C5029 C5030 1.287 . S
C5030 C5029 1.287 . S
C5030 C5031 1.524 . S
C5030 H5049 0.913 . S
C5031 H5007 0.950 . S
C5031 C5030 1.524 . S
C5031 C5032 1.415 . S
C5032 H5008 0.950 . S
C5032 C5027 1.363 . S
C5032 C5031 1.415 . S
C5033 H5009 0.951 . S
C5033 C5034 1.366 . S
C5033 C5035 1.388 . S
C5034 C5033 1.366 . S
C5034 C5038 1.385 . S
C5035 H5010 0.951 . S
C5035 C5033 1.388 . S
C5035 C5036 1.366 . S
C5036 C5035 1.366 . S
C5036 C5037 1.414 . S
C5036 C5039 1.499 . S
C5037 H5011 0.950 . S
C5037 C5036 1.414 . S
C5037 C5038 1.374 . S
C5038 H5012 0.950 . S
C5038 C5034 1.385 . S
C5038 C5037 1.374 . S
C5039 C5036 1.499 . S
C5039 C5040 1.373 . S
C5039 C5041 1.389 . S
C5040 H5013 0.950 . S
C5040 C5026 1.377 . S
C5040 C5039 1.373 . S
C5041 C5025 1.377 . S
C5041 C5039 1.389 . S
C5041 C5042 1.524 . S
C5042 C5041 1.524 . S
C5042 C5043 1.397 . S
C5042 C5047 1.363 . S
C5043 H5014 0.950 . S
C5043 C5042 1.397 . S
C5043 C5044 1.334 . S
C5044 H5015 0.950 . S
C5044 C5043 1.334 . S
C5044 C5045 1.287 . S
C5045 C5044 1.287 . S
C5045 C5046 1.524 . S
C5045 H5048 0.999 . S
C5046 H5016 0.950 . S
C5046 C5045 1.524 . S
C5046 C5047 1.415 . S
C5047 H5017 0.950 . S
C5047 C5042 1.363 . S
C5047 C5046 1.415 . S
H5048 C5045 0.999 . S
H5049 C5030 0.913 . S
H5050 C5068 0.951 . S
H5051 C5070 0.951 . S
H5052 C5072 0.950 . S
H5053 C5073 0.950 . S
H5054 C5075 0.950 . S
H5055 C5078 0.950 . S
H5056 C5079 0.950 . S
H5057 C5081 0.950 . S
H5058 C5082 0.950 . S
H5059 C5083 0.951 . S
H5060 C5085 0.951 . S
H5061 C5087 0.950 . S
H5062 C5088 0.950 . S
H5063 C5090 0.950 . S
H5064 C5093 0.950 . S
H5065 C5094 0.950 . S
H5066 C5096 0.950 . S
H5067 C5097 0.950 . S
C5068 H5050 0.951 . S
C5068 C5069 1.366 . S
C5068 C5070 1.388 . S
C5069 C5068 1.366 . S
C5069 C5073 1.385 . S
C5070 H5051 0.951 . S
C5070 C5068 1.388 . S
C5070 C5071 1.366 . S
C5071 C5070 1.366 . S
C5071 C5072 1.414 . S
C5071 C5074 1.499 . S
C5072 H5052 0.950 . S
C5072 C5071 1.414 . S
C5072 C5073 1.374 . S
C5073 H5053 0.950 . S
C5073 C5069 1.385 . S
C5073 C5072 1.374 . S
C5074 C5071 1.499 . S
C5074 C5075 1.373 . S
C5074 C5076 1.389 . S
C5075 H5054 0.950 . S
C5075 C5074 1.373 . S
C5075 C5091 1.377 . S
C5076 C5074 1.389 . S
C5076 C5077 1.524 . S
C5076 C5090 1.377 . S
C5077 C5076 1.524 . S
C5077 C5078 1.397 . S
C5077 C5082 1.363 . S
C5078 H5055 0.950 . S
C5078 C5077 1.397 . S
C5078 C5079 1.334 . S
C5079 H5056 0.950 . S
C5079 C5078 1.334 . S
C5079 C5080 1.287 . S
C5080 C5079 1.287 . S
C5080 C5081 1.524 . S
C5080 H5099 0.913 . S
C5081 H5057 0.950 . S
C5081 C5080 1.524 . S
C5081 C5082 1.415 . S
C5082 H5058 0.950 . S
C5082 C5077 1.363 . S
C5082 C5081 1.415 . S
C5083 H5059 0.951 . S
C5083 C5084 1.366 . S
C5083 C5085 1.388 . S
C5084 C5083 1.366 . S
C5084 C5088 1.385 . S
C5085 H5060 0.951 . S
C5085 C5083 1.388 . S
C5085 C5086 1.366 . S
C5086 C5085 1.366 . S
C5086 C5087 1.414 . S
C5086 C5089 1.499 . S
C5087 H5061 0.950 . S
C5087 C5086 1.414 . S
C5087 C5088 1.374 . S
C5088 H5062 0.950 . S
C5088 C5084 1.385 . S
C5088 C5087 1.374 . S
C5089 C5086 1.499 . S
C5089 C5090 1.373 . S
C5089 C5091 1.389 . S
C5090 H5063 0.950 . S
C5090 C5076 1.377 . S
C5090 C5089 1.373 . S
C5091 C5075 1.377 . S
C5091 C5089 1.389 . S
C5091 C5092 1.524 . S
C5092 C5091 1.524 . S
C5092 C5093 1.397 . S
C5092 C5097 1.363 . S
C5093 H5064 0.950 . S
C5093 C5092 1.397 . S
C5093 C5094 1.334 . S
C5094 H5065 0.950 . S
C5094 C5093 1.334 . S
C5094 C5095 1.287 . S
C5095 C5094 1.287 . S
C5095 C5096 1.524 . S
C5095 H5098 0.999 . S
C5096 H5066 0.950 . S
C5096 C5095 1.524 . S
C5096 C5097 1.415 . S
C5097 H5067 0.950 . S
C5097 C5092 1.363 . S
C5097 C5096 1.415 . S
H5098 C5095 0.999 . S
H5099 C5080 0.913 . S
H5100 C5118 0.951 . S
H5101 C5120 0.951 . S
H5102 C5122 0.950 . S
H5103 C5123 0.950 . S
H5104 C5125 0.950 . S
H5105 C5128 0.950 1_655 S
H5106 C5129 0.950 1_655 S
H5107 C5131 0.950 . S
H5108 C5132 0.950 . S
H5109 C5133 0.951 . S
H5110 C5135 0.951 . S
H5111 C5137 0.950 . S
H5112 C5138 0.950 . S
H5113 C5140 0.950 . S
H5114 C5143 0.950 1_455 S
H5115 C5144 0.921 1_455 S
H5116 C5146 0.950 . S
H5117 C5147 0.950 . S
C5118 H5100 0.951 . S
C5118 C5119 1.366 . S
C5118 C5120 1.388 . S
C5119 C5118 1.366 . S
C5119 C5123 1.385 1_455 S
C5120 H5101 0.951 . S
C5120 C5118 1.388 . S
C5120 C5121 1.404 . S
C5121 C5120 1.404 . S
C5121 C5122 1.379 1_455 S
C5121 C5124 1.494 1_455 S
C5122 H5102 0.950 . S
C5122 C5121 1.379 1_655 S
C5122 C5123 1.374 . S
C5123 H5103 0.950 . S
C5123 C5119 1.385 1_655 S
C5123 C5122 1.374 . S
C5124 C5121 1.494 1_655 S
C5124 C5125 1.393 . S
C5124 C5126 1.372 1_655 S
C5125 H5104 0.950 . S
C5125 C5124 1.393 . S
C5125 C5141 1.377 . S
C5126 C5124 1.372 1_455 S
C5126 C5127 1.524 . S
C5126 C5140 1.377 . S
C5127 C5126 1.524 . S
C5127 C5128 1.397 . S
C5127 C5132 1.363 . S
C5128 H5105 0.950 1_455 S
C5128 C5127 1.397 . S
C5128 C5129 1.334 . S
C5129 H5106 0.950 1_455 S
C5129 C5128 1.334 . S
C5129 C5130 1.287 . S
C5130 C5129 1.287 . S
C5130 C5131 1.524 . S
C5130 H5149 0.913 . S
C5131 H5107 0.950 . S
C5131 C5130 1.524 . S
C5131 C5132 1.415 . S
C5132 H5108 0.950 . S
C5132 C5127 1.363 . S
C5132 C5131 1.415 . S
C5133 H5109 0.951 . S
C5133 C5134 1.366 . S
C5133 C5135 1.388 . S
C5134 C5133 1.366 . S
C5134 C5138 1.385 1_655 S
C5135 H5110 0.951 . S
C5135 C5133 1.388 . S
C5135 C5136 1.366 . S
C5136 C5135 1.366 . S
C5136 C5137 1.414 1_655 S
C5136 C5139 1.504 . S
C5137 H5111 0.950 . S
C5137 C5136 1.414 1_455 S
C5137 C5138 1.374 . S
C5138 H5112 0.950 . S
C5138 C5134 1.385 1_455 S
C5138 C5137 1.374 . S
C5139 C5136 1.504 . S
C5139 C5140 1.355 1_655 S
C5139 C5141 1.408 . S
C5140 H5113 0.950 . S
C5140 C5126 1.377 . S
C5140 C5139 1.355 1_455 S
C5141 C5125 1.377 . S
C5141 C5139 1.408 . S
C5141 C5142 1.524 . S
C5142 C5141 1.524 . S
C5142 C5143 1.397 . S
C5142 C5147 1.363 . S
C5143 H5114 0.950 1_655 S
C5143 C5142 1.397 . S
C5143 C5144 1.334 . S
C5144 H5115 0.921 1_655 S
C5144 C5143 1.334 . S
C5144 C5145 1.287 . S
C5145 C5144 1.287 . S
C5145 C5146 1.524 . S
C5145 H5148 0.999 . S
C5146 H5116 0.950 . S
C5146 C5145 1.524 . S
C5146 C5147 1.415 . S
C5147 H5117 0.950 . S
C5147 C5142 1.363 . S
C5147 C5146 1.415 . S
H5148 C5145 0.999 . S
H5149 C5130 0.913 . S
H5150 C5168 0.951 . S
H5151 C5170 0.951 . S
H5152 C5172 0.950 . S
H5153 C5173 0.950 . S
H5154 C5175 0.950 . S
H5155 C5178 0.950 . S
H5156 C5179 0.950 . S
H5157 C5181 0.950 . S
H5158 C5182 0.950 . S
H5159 C5183 0.951 . S
H5160 C5185 0.951 . S
H5161 C5187 0.950 . S
H5162 C5188 0.950 . S
H5163 C5190 0.950 . S
H5164 C5193 0.950 . S
H5165 C5194 0.950 . S
H5166 C5196 0.950 . S
H5167 C5197 0.950 . S
C5168 H5150 0.951 . S
C5168 C5169 1.366 . S
C5168 C5170 1.388 . S
C5169 C5168 1.366 . S
C5169 C5173 1.385 . S
C5170 H5151 0.951 . S
C5170 C5168 1.388 . S
C5170 C5171 1.366 . S
C5171 C5170 1.366 . S
C5171 C5172 1.414 . S
C5171 C5174 1.499 . S
C5172 H5152 0.950 . S
C5172 C5171 1.414 . S
C5172 C5173 1.374 . S
C5173 H5153 0.950 . S
C5173 C5169 1.385 . S
C5173 C5172 1.374 . S
C5174 C5171 1.499 . S
C5174 C5175 1.373 . S
C5174 C5176 1.389 . S
C5175 H5154 0.950 . S
C5175 C5174 1.373 . S
C5175 C5191 1.377 . S
C5176 C5174 1.389 . S
C5176 C5177 1.524 . S
C5176 C5190 1.377 . S
C5177 C5176 1.524 . S
C5177 C5178 1.397 . S
C5177 C5182 1.363 . S
C5178 H5155 0.950 . S
C5178 C5177 1.397 . S
C5178 C5179 1.334 . S
C5179 H5156 0.950 . S
C5179 C5178 1.334 . S
C5179 C5180 1.287 . S
C5180 C5179 1.287 . S
C5180 C5181 1.524 . S
C5180 H5199 0.913 . S
C5181 H5157 0.950 . S
C5181 C5180 1.524 . S
C5181 C5182 1.415 . S
C5182 H5158 0.950 . S
C5182 C5177 1.363 . S
C5182 C5181 1.415 . S
C5183 H5159 0.951 . S
C5183 C5184 1.366 . S
C5183 C5185 1.388 . S
C5184 C5183 1.366 . S
C5184 C5188 1.385 . S
C5185 H5160 0.951 . S
C5185 C5183 1.388 . S
C5185 C5186 1.366 . S
C5186 C5185 1.366 . S
C5186 C5187 1.414 . S
C5186 C5189 1.499 . S
C5187 H5161 0.950 . S
C5187 C5186 1.414 . S
C5187 C5188 1.374 . S
C5188 H5162 0.950 . S
C5188 C5184 1.385 . S
C5188 C5187 1.374 . S
C5189 C5186 1.499 . S
C5189 C5190 1.373 . S
C5189 C5191 1.389 . S
C5190 H5163 0.950 . S
C5190 C5176 1.377 . S
C5190 C5189 1.373 . S
C5191 C5175 1.377 . S
C5191 C5189 1.389 . S
C5191 C5192 1.524 . S
C5192 C5191 1.524 . S
C5192 C5193 1.397 . S
C5192 C5197 1.363 . S
C5193 H5164 0.950 . S
C5193 C5192 1.397 . S
C5193 C5194 1.334 . S
C5194 H5165 0.950 . S
C5194 C5193 1.334 . S
C5194 C5195 1.287 . S
C5195 C5194 1.287 . S
C5195 C5196 1.524 . S
C5195 H5198 0.999 . S
C5196 H5166 0.950 . S
C5196 C5195 1.524 . S
C5196 C5197 1.415 . S
C5197 H5167 0.950 . S
C5197 C5192 1.363 . S
C5197 C5196 1.415 . S
H5198 C5195 0.999 . S
H5199 C5180 0.913 . S
H5200 C5218 0.951 . S
H5201 C5220 0.951 . S
H5202 C5222 0.950 . S
H5203 C5223 0.950 . S
H5204 C5225 0.950 . S
H5205 C5228 0.950 . S
H5206 C5229 0.950 . S
H5207 C5231 0.950 . S
H5208 C5232 0.950 . S
H5209 C5233 0.951 . S
H5210 C5235 0.951 . S
H5211 C5237 0.950 . S
H5212 C5238 0.950 . S
H5213 C5240 0.950 . S
H5214 C5243 0.950 . S
H5215 C5244 0.950 . S
H5216 C5246 0.950 . S
H5217 C5247 0.950 . S
C5218 H5200 0.951 . S
C5218 C5219 1.366 . S
C5218 C5220 1.388 . S
C5219 C5218 1.366 . S
C5219 C5223 1.385 . S
C5220 H5201 0.951 . S
C5220 C5218 1.388 . S
C5220 C5221 1.366 . S
C5221 C5220 1.366 . S
C5221 C5222 1.414 . S
C5221 C5224 1.499 . S
C5222 H5202 0.950 . S
C5222 C5221 1.414 . S
C5222 C5223 1.374 . S
C5223 H5203 0.950 . S
C5223 C5219 1.385 . S
C5223 C5222 1.374 . S
C5224 C5221 1.499 . S
C5224 C5225 1.373 . S
C5224 C5226 1.389 . S
C5225 H5204 0.950 . S
C5225 C5224 1.373 . S
C5225 C5241 1.377 . S
C5226 C5224 1.389 . S
C5226 C5227 1.524 . S
C5226 C5240 1.377 . S
C5227 C5226 1.524 . S
C5227 C5228 1.397 . S
C5227 C5232 1.363 . S
C5228 H5205 0.950 . S
C5228 C5227 1.397 . S
C5228 C5229 1.334 . S
C5229 H5206 0.950 . S
C5229 C5228 1.334 . S
C5229 C5230 1.287 . S
C5230 C5229 1.287 . S
C5230 C5231 1.524 . S
C5230 H5249 0.913 . S
C5231 H5207 0.950 . S
C5231 C5230 1.524 . S
C5231 C5232 1.415 . S
C5232 H5208 0.950 . S
C5232 C5227 1.363 . S
C5232 C5231 1.415 . S
C5233 H5209 0.951 . S
C5233 C5234 1.366 . S
C5233 C5235 1.388 . S
C5234 C5233 1.366 . S
C5234 C5238 1.385 . S
C5235 H5210 0.951 . S
C5235 C5233 1.388 . S
C5235 C5236 1.366 . S
C5236 C5235 1.366 . S
C5236 C5237 1.414 . S
C5236 C5239 1.499 . S
C5237 H5211 0.950 . S
C5237 C5236 1.414 . S
C5237 C5238 1.374 . S
C5238 H5212 0.950 . S
C5238 C5234 1.385 . S
C5238 C5237 1.374 . S
C5239 C5236 1.499 . S
C5239 C5240 1.373 . S
C5239 C5241 1.389 . S
C5240 H5213 0.950 . S
C5240 C5226 1.377 . S
C5240 C5239 1.373 . S
C5241 C5225 1.377 . S
C5241 C5239 1.389 . S
C5241 C5242 1.524 . S
C5242 C5241 1.524 . S
C5242 C5243 1.397 . S
C5242 C5247 1.363 . S
C5243 H5214 0.950 . S
C5243 C5242 1.397 . S
C5243 C5244 1.334 . S
C5244 H5215 0.950 . S
C5244 C5243 1.334 . S
C5244 C5245 1.287 . S
C5245 C5244 1.287 . S
C5245 C5246 1.524 . S
C5245 H5248 0.999 . S
C5246 H5216 0.950 . S
C5246 C5245 1.524 . S
C5246 C5247 1.415 . S
C5247 H5217 0.950 . S
C5247 C5242 1.363 . S
C5247 C5246 1.415 . S
H5248 C5245 0.999 . S
H5249 C5230 0.913 . S
H5250 C5268 0.951 . S
H5251 C5270 0.951 . S
H5252 C5272 0.950 . S
H5253 C5273 0.950 . S
H5254 C5275 0.950 . S
H5255 C5278 0.950 . S
H5256 C5279 0.950 . S
H5257 C5281 0.950 . S
H5258 C5282 0.950 . S
H5259 C5283 0.951 . S
H5260 C5285 0.951 . S
H5261 C5287 0.950 . S
H5262 C5288 0.950 . S
H5263 C5290 0.950 . S
H5264 C5293 0.950 . S
H5265 C5294 0.950 . S
H5266 C5296 0.950 . S
H5267 C5297 0.950 . S
C5268 H5250 0.951 . S
C5268 C5269 1.366 . S
C5268 C5270 1.388 . S
C5269 C5268 1.366 . S
C5269 C5273 1.385 . S
C5270 H5251 0.951 . S
C5270 C5268 1.388 . S
C5270 C5271 1.366 . S
C5271 C5270 1.366 . S
C5271 C5272 1.414 . S
C5271 C5274 1.499 . S
C5272 H5252 0.950 . S
C5272 C5271 1.414 . S
C5272 C5273 1.374 . S
C5273 H5253 0.950 . S
C5273 C5269 1.385 . S
C5273 C5272 1.374 . S
C5274 C5271 1.499 . S
C5274 C5275 1.373 . S
C5274 C5276 1.389 . S
C5275 H5254 0.950 . S
C5275 C5274 1.373 . S
C5275 C5291 1.377 . S
C5276 C5274 1.389 . S
C5276 C5277 1.524 . S
C5276 C5290 1.377 . S
C5277 C5276 1.524 . S
C5277 C5278 1.397 . S
C5277 C5282 1.363 . S
C5278 H5255 0.950 . S
C5278 C5277 1.397 . S
C5278 C5279 1.334 . S
C5279 H5256 0.950 . S
C5279 C5278 1.334 . S
C5279 C5280 1.287 . S
C5280 C5279 1.287 . S
C5280 C5281 1.524 . S
C5280 H5299 0.913 . S
C5281 H5257 0.950 . S
C5281 C5280 1.524 . S
C5281 C5282 1.415 . S
C5282 H5258 0.950 . S
C5282 C5277 1.363 . S
C5282 C5281 1.415 . S
C5283 H5259 0.951 . S
C5283 C5284 1.366 . S
C5283 C5285 1.388 . S
C5284 C5283 1.366 . S
C5284 C5288 1.385 . S
C5285 H5260 0.951 . S
C5285 C5283 1.388 . S
C5285 C5286 1.366 . S
C5286 C5285 1.366 . S
C5286 C5287 1.414 . S
C5286 C5289 1.499 . S
C5287 H5261 0.950 . S
C5287 C5286 1.414 . S
C5287 C5288 1.374 . S
C5288 H5262 0.950 . S
C5288 C5284 1.385 . S
C5288 C5287 1.374 . S
C5289 C5286 1.499 . S
C5289 C5290 1.373 . S
C5289 C5291 1.389 . S
C5290 H5263 0.950 . S
C5290 C5276 1.377 . S
C5290 C5289 1.373 . S
C5291 C5275 1.377 . S
C5291 C5289 1.389 . S
C5291 C5292 1.524 . S
C5292 C5291 1.524 . S
C5292 C5293 1.397 . S
C5292 C5297 1.363 . S
C5293 H5264 0.950 . S
C5293 C5292 1.397 . S
C5293 C5294 1.334 . S
C5294 H5265 0.950 . S
C5294 C5293 1.334 . S
C5294 C5295 1.287 . S
C5295 C5294 1.287 . S
C5295 C5296 1.524 . S
C5295 H5298 0.999 . S
C5296 H5266 0.950 . S
C5296 C5295 1.524 . S
C5296 C5297 1.415 . S
C5297 H5267 0.950 . S
C5297 C5292 1.363 . S
C5297 C5296 1.415 . S
H5298 C5295 0.999 . S
H5299 C5280 0.913 . S
H5300 C5318 0.951 . S
H5301 C5320 0.951 . S
H5302 C5322 0.950 . S
H5303 C5323 0.950 . S
H5304 C5325 0.950 . S
H5305 C5328 0.950 . S
H5306 C5329 0.950 . S
H5307 C5331 0.950 . S
H5308 C5332 0.950 . S
H5309 C5333 0.951 . S
H5310 C5335 0.951 . S
H5311 C5337 0.950 . S
H5312 C5338 0.950 . S
H5313 C5340 0.950 . S
H5314 C5343 0.950 . S
H5315 C5344 0.950 . S
H5316 C5346 0.947 1_655 S
H5317 C5347 0.950 . S
C5318 H5300 0.951 . S
C5318 C5319 1.366 . S
C5318 C5320 1.388 . S
C5319 C5318 1.366 . S
C5319 C5323 1.385 . S
C5320 H5301 0.951 . S
C5320 C5318 1.388 . S
C5320 C5321 1.366 . S
C5321 C5320 1.366 . S
C5321 C5322 1.414 . S
C5321 C5324 1.499 . S
C5322 H5302 0.950 . S
C5322 C5321 1.414 . S
C5322 C5323 1.374 . S
C5323 H5303 0.950 . S
C5323 C5319 1.385 . S
C5323 C5322 1.374 . S
C5324 C5321 1.499 . S
C5324 C5325 1.373 . S
C5324 C5326 1.389 . S
C5325 H5304 0.950 . S
C5325 C5324 1.373 . S
C5325 C5341 1.377 . S
C5326 C5324 1.389 . S
C5326 C5327 1.524 . S
C5326 C5340 1.377 . S
C5327 C5326 1.524 . S
C5327 C5328 1.397 . S
C5327 C5332 1.363 . S
C5328 H5305 0.950 . S
C5328 C5327 1.397 . S
C5328 C5329 1.334 . S
C5329 H5306 0.950 . S
C5329 C5328 1.334 . S
C5329 C5330 1.287 . S
C5330 C5329 1.287 . S
C5330 C5331 1.524 . S
C5330 H5349 0.913 . S
C5331 H5307 0.950 . S
C5331 C5330 1.524 . S
C5331 C5332 1.415 . S
C5332 H5308 0.950 . S
C5332 C5327 1.363 . S
C5332 C5331 1.415 . S
C5333 H5309 0.951 . S
C5333 C5334 1.366 . S
C5333 C5335 1.388 . S
C5334 C5333 1.366 . S
C5334 C5338 1.385 . S
C5335 H5310 0.951 . S
C5335 C5333 1.388 . S
C5335 C5336 1.366 . S
C5336 C5335 1.366 . S
C5336 C5337 1.414 . S
C5336 C5339 1.499 . S
C5337 H5311 0.950 . S
C5337 C5336 1.414 . S
C5337 C5338 1.374 . S
C5338 H5312 0.950 . S
C5338 C5334 1.385 . S
C5338 C5337 1.374 . S
C5339 C5336 1.499 . S
C5339 C5340 1.373 . S
C5339 C5341 1.389 . S
C5340 H5313 0.950 . S
C5340 C5326 1.377 . S
C5340 C5339 1.373 . S
C5341 C5325 1.377 . S
C5341 C5339 1.389 . S
C5341 C5342 1.524 . S
C5342 C5341 1.524 . S
C5342 C5343 1.397 . S
C5342 C5347 1.363 . S
C5343 H5314 0.950 . S
C5343 C5342 1.397 . S
C5343 C5344 1.334 . S
C5344 H5315 0.950 . S
C5344 C5343 1.334 . S
C5344 C5345 1.287 . S
C5345 C5344 1.287 . S
C5345 C5346 1.524 . S
C5345 H5348 0.999 . S
C5346 H5316 0.947 1_455 S
C5346 C5345 1.524 . S
C5346 C5347 1.415 . S
C5347 H5317 0.950 . S
C5347 C5342 1.363 . S
C5347 C5346 1.415 . S
H5348 C5345 0.999 . S
H5349 C5330 0.913 . S
H5350 C5368 0.951 . S
H5351 C5370 0.951 . S
H5352 C5372 0.950 . S
H5353 C5373 0.950 . S
H5354 C5375 0.950 . S
H5355 C5378 0.950 . S
H5356 C5379 0.950 . S
H5357 C5381 0.950 . S
H5358 C5382 0.950 . S
H5359 C5383 0.951 . S
H5360 C5385 0.951 . S
H5361 C5387 0.950 . S
H5362 C5388 0.950 . S
H5363 C5390 0.950 . S
H5364 C5393 0.950 . S
H5365 C5394 0.950 . S
H5366 C5396 0.950 . S
H5367 C5397 0.950 . S
C5368 H5350 0.951 . S
C5368 C5369 1.366 . S
C5368 C5370 1.388 . S
C5369 C5368 1.366 . S
C5369 C5373 1.385 . S
C5370 H5351 0.951 . S
C5370 C5368 1.388 . S
C5370 C5371 1.366 . S
C5371 C5370 1.366 . S
C5371 C5372 1.414 . S
C5371 C5374 1.499 . S
C5372 H5352 0.950 . S
C5372 C5371 1.414 . S
C5372 C5373 1.374 . S
C5373 H5353 0.950 . S
C5373 C5369 1.385 . S
C5373 C5372 1.374 . S
C5374 C5371 1.499 . S
C5374 C5375 1.373 . S
C5374 C5376 1.389 . S
C5375 H5354 0.950 . S
C5375 C5374 1.373 . S
C5375 C5391 1.377 . S
C5376 C5374 1.389 . S
C5376 C5377 1.524 . S
C5376 C5390 1.377 . S
C5377 C5376 1.524 . S
C5377 C5378 1.397 . S
C5377 C5382 1.363 . S
C5378 H5355 0.950 . S
C5378 C5377 1.397 . S
C5378 C5379 1.334 . S
C5379 H5356 0.950 . S
C5379 C5378 1.334 . S
C5379 C5380 1.287 . S
C5380 C5379 1.287 . S
C5380 C5381 1.524 . S
C5380 H5399 0.913 . S
C5381 H5357 0.950 . S
C5381 C5380 1.524 . S
C5381 C5382 1.415 . S
C5382 H5358 0.950 . S
C5382 C5377 1.363 . S
C5382 C5381 1.415 . S
C5383 H5359 0.951 . S
C5383 C5384 1.366 . S
C5383 C5385 1.388 . S
C5384 C5383 1.366 . S
C5384 C5388 1.385 . S
C5385 H5360 0.951 . S
C5385 C5383 1.388 . S
C5385 C5386 1.366 . S
C5386 C5385 1.366 . S
C5386 C5387 1.414 . S
C5386 C5389 1.499 . S
C5387 H5361 0.950 . S
C5387 C5386 1.414 . S
C5387 C5388 1.374 . S
C5388 H5362 0.950 . S
C5388 C5384 1.385 . S
C5388 C5387 1.374 . S
C5389 C5386 1.499 . S
C5389 C5390 1.373 . S
C5389 C5391 1.389 . S
C5390 H5363 0.950 . S
C5390 C5376 1.377 . S
C5390 C5389 1.373 . S
C5391 C5375 1.377 . S
C5391 C5389 1.389 . S
C5391 C5392 1.524 . S
C5392 C5391 1.524 . S
C5392 C5393 1.397 . S
C5392 C5397 1.363 . S
C5393 H5364 0.950 . S
C5393 C5392 1.397 . S
C5393 C5394 1.334 . S
C5394 H5365 0.950 . S
C5394 C5393 1.334 . S
C5394 C5395 1.287 . S
C5395 C5394 1.287 . S
C5395 C5396 1.524 . S
C5395 H5398 0.999 . S
C5396 H5366 0.950 . S
C5396 C5395 1.524 . S
C5396 C5397 1.415 . S
C5397 H5367 0.950 . S
C5397 C5392 1.363 . S
C5397 C5396 1.415 . S
H5398 C5395 0.999 . S
H5399 C5380 0.913 . S
H5400 C5418 0.951 . S
H5401 C5420 0.951 . S
H5402 C5422 0.950 . S
H5403 C5423 0.950 . S
H5404 C5425 0.950 . S
H5405 C5428 0.950 . S
H5406 C5429 0.950 . S
H5407 C5431 0.950 . S
H5408 C5432 0.950 . S
H5409 C5433 0.951 . S
H5410 C5435 0.951 . S
H5411 C5437 0.950 . S
H5412 C5438 0.950 . S
H5413 C5440 0.950 . S
H5414 C5443 0.950 . S
H5415 C5444 0.950 . S
H5416 C5446 0.950 . S
H5417 C5447 0.950 . S
C5418 H5400 0.951 . S
C5418 C5419 1.366 . S
C5418 C5420 1.388 . S
C5419 C5418 1.366 . S
C5419 C5423 1.385 . S
C5420 H5401 0.951 . S
C5420 C5418 1.388 . S
C5420 C5421 1.366 . S
C5421 C5420 1.366 . S
C5421 C5422 1.414 . S
C5421 C5424 1.499 . S
C5422 H5402 0.950 . S
C5422 C5421 1.414 . S
C5422 C5423 1.374 . S
C5423 H5403 0.950 . S
C5423 C5419 1.385 . S
C5423 C5422 1.374 . S
C5424 C5421 1.499 . S
C5424 C5425 1.373 . S
C5424 C5426 1.389 . S
C5425 H5404 0.950 . S
C5425 C5424 1.373 . S
C5425 C5441 1.377 . S
C5426 C5424 1.389 . S
C5426 C5427 1.524 . S
C5426 C5440 1.377 . S
C5427 C5426 1.524 . S
C5427 C5428 1.397 . S
C5427 C5432 1.363 . S
C5428 H5405 0.950 . S
C5428 C5427 1.397 . S
C5428 C5429 1.334 . S
C5429 H5406 0.950 . S
C5429 C5428 1.334 . S
C5429 C5430 1.287 . S
C5430 C5429 1.287 . S
C5430 C5431 1.524 . S
C5430 H5449 0.913 . S
C5431 H5407 0.950 . S
C5431 C5430 1.524 . S
C5431 C5432 1.415 . S
C5432 H5408 0.950 . S
C5432 C5427 1.363 . S
C5432 C5431 1.415 . S
C5433 H5409 0.951 . S
C5433 C5434 1.366 . S
C5433 C5435 1.388 . S
C5434 C5433 1.366 . S
C5434 C5438 1.385 . S
C5435 H5410 0.951 . S
C5435 C5433 1.388 . S
C5435 C5436 1.366 . S
C5436 C5435 1.366 . S
C5436 C5437 1.414 . S
C5436 C5439 1.499 . S
C5437 H5411 0.950 . S
C5437 C5436 1.414 . S
C5437 C5438 1.374 . S
C5438 H5412 0.950 . S
C5438 C5434 1.385 . S
C5438 C5437 1.374 . S
C5439 C5436 1.499 . S
C5439 C5440 1.373 . S
C5439 C5441 1.389 . S
C5440 H5413 0.950 . S
C5440 C5426 1.377 . S
C5440 C5439 1.373 . S
C5441 C5425 1.377 . S
C5441 C5439 1.389 . S
C5441 C5442 1.524 . S
C5442 C5441 1.524 . S
C5442 C5443 1.397 . S
C5442 C5447 1.363 . S
C5443 H5414 0.950 . S
C5443 C5442 1.397 . S
C5443 C5444 1.334 . S
C5444 H5415 0.950 . S
C5444 C5443 1.334 . S
C5444 C5445 1.287 . S
C5445 C5444 1.287 . S
C5445 C5446 1.524 . S
C5445 H5448 0.999 . S
C5446 H5416 0.950 . S
C5446 C5445 1.524 . S
C5446 C5447 1.415 . S
C5447 H5417 0.950 . S
C5447 C5442 1.363 . S
C5447 C5446 1.415 . S
H5448 C5445 0.999 . S
H5449 C5430 0.913 . S
H5450 C5468 0.951 . S
H5451 C5470 0.951 . S
H5452 C5472 0.950 . S
H5453 C5473 0.950 . S
H5454 C5475 0.950 . S
H5455 C5478 0.950 . S
H5456 C5479 0.950 . S
H5457 C5481 0.950 . S
H5458 C5482 0.950 . S
H5459 C5483 0.951 . S
H5460 C5485 0.951 . S
H5461 C5487 0.950 . S
H5462 C5488 0.950 . S
H5463 C5490 0.950 . S
H5464 C5493 0.950 . S
H5465 C5494 0.950 . S
H5466 C5496 0.950 . S
H5467 C5497 0.950 . S
C5468 H5450 0.951 . S
C5468 C5469 1.366 . S
C5468 C5470 1.388 . S
C5469 C5468 1.366 . S
C5469 C5473 1.385 . S
C5470 H5451 0.951 . S
C5470 C5468 1.388 . S
C5470 C5471 1.366 . S
C5471 C5470 1.366 . S
C5471 C5472 1.414 . S
C5471 C5474 1.499 . S
C5472 H5452 0.950 . S
C5472 C5471 1.414 . S
C5472 C5473 1.374 . S
C5473 H5453 0.950 . S
C5473 C5469 1.385 . S
C5473 C5472 1.374 . S
C5474 C5471 1.499 . S
C5474 C5475 1.373 . S
C5474 C5476 1.389 . S
C5475 H5454 0.950 . S
C5475 C5474 1.373 . S
C5475 C5491 1.377 . S
C5476 C5474 1.389 . S
C5476 C5477 1.524 . S
C5476 C5490 1.377 . S
C5477 C5476 1.524 . S
C5477 C5478 1.397 . S
C5477 C5482 1.363 . S
C5478 H5455 0.950 . S
C5478 C5477 1.397 . S
C5478 C5479 1.334 . S
C5479 H5456 0.950 . S
C5479 C5478 1.334 . S
C5479 C5480 1.287 . S
C5480 C5479 1.287 . S
C5480 C5481 1.524 . S
C5480 H5499 0.913 . S
C5481 H5457 0.950 . S
C5481 C5480 1.524 . S
C5481 C5482 1.415 . S
C5482 H5458 0.950 . S
C5482 C5477 1.363 . S
C5482 C5481 1.415 . S
C5483 H5459 0.951 . S
C5483 C5484 1.366 . S
C5483 C5485 1.388 . S
C5484 C5483 1.366 . S
C5484 C5488 1.385 . S
C5485 H5460 0.951 . S
C5485 C5483 1.388 . S
C5485 C5486 1.366 . S
C5486 C5485 1.366 . S
C5486 C5487 1.414 . S
C5486 C5489 1.499 . S
C5487 H5461 0.950 . S
C5487 C5486 1.414 . S
C5487 C5488 1.374 . S
C5488 H5462 0.950 . S
C5488 C5484 1.385 . S
C5488 C5487 1.374 . S
C5489 C5486 1.499 . S
C5489 C5490 1.373 . S
C5489 C5491 1.389 . S
C5490 H5463 0.950 . S
C5490 C5476 1.377 . S
C5490 C5489 1.373 . S
C5491 C5475 1.377 . S
C5491 C5489 1.389 . S
C5491 C5492 1.524 . S
C5492 C5491 1.524 . S
C5492 C5493 1.397 . S
C5492 C5497 1.363 . S
C5493 H5464 0.950 . S
C5493 C5492 1.397 . S
C5493 C5494 1.334 . S
C5494 H5465 0.950 . S
C5494 C5493 1.334 . S
C5494 C5495 1.287 . S
C5495 C5494 1.287 . S
C5495 C5496 1.524 . S
C5495 H5498 0.999 . S
C5496 H5466 0.950 . S
C5496 C5495 1.524 . S
C5496 C5497 1.415 . S
C5497 H5467 0.950 . S
C5497 C5492 1.363 . S
C5497 C5496 1.415 . S
H5498 C5495 0.999 . S
H5499 C5480 0.913 . S
H5500 C5518 0.951 . S
H5501 C5520 0.951 . S
H5502 C5522 0.950 . S
H5503 C5523 0.950 . S
H5504 C5525 0.950 . S
H5505 C5528 0.950 . S
H5506 C5529 0.950 . S
H5507 C5531 0.950 . S
H5508 C5532 0.950 . S
H5509 C5533 0.951 . S
H5510 C5535 0.951 . S
H5511 C5537 0.950 . S
H5512 C5538 0.950 . S
H5513 C5540 0.950 . S
H5514 C5543 0.950 . S
H5515 C5544 0.950 . S
H5516 C5546 0.950 . S
H5517 C5547 0.950 . S
C5518 H5500 0.951 . S
C5518 C5519 1.366 . S
C5518 C5520 1.388 . S
C5519 C5518 1.366 . S
C5519 C5523 1.385 . S
C5520 H5501 0.951 . S
C5520 C5518 1.388 . S
C5520 C5521 1.366 . S
C5521 C5520 1.366 . S
C5521 C5522 1.414 . S
C5521 C5524 1.499 . S
C5522 H5502 0.950 . S
C5522 C5521 1.414 . S
C5522 C5523 1.374 . S
C5523 H5503 0.950 . S
C5523 C5519 1.385 . S
C5523 C5522 1.374 . S
C5524 C5521 1.499 . S
C5524 C5525 1.373 . S
C5524 C5526 1.389 . S
C5525 H5504 0.950 . S
C5525 C5524 1.373 . S
C5525 C5541 1.377 . S
C5526 C5524 1.389 . S
C5526 C5527 1.524 . S
C5526 C5540 1.377 . S
C5527 C5526 1.524 . S
C5527 C5528 1.397 . S
C5527 C5532 1.363 . S
C5528 H5505 0.950 . S
C5528 C5527 1.397 . S
C5528 C5529 1.334 . S
C5529 H5506 0.950 . S
C5529 C5528 1.334 . S
C5529 C5530 1.287 . S
C5530 C5529 1.287 . S
C5530 C5531 1.524 . S
C5530 H5549 0.913 . S
C5531 H5507 0.950 . S
C5531 C5530 1.524 . S
C5531 C5532 1.415 . S
C5532 H5508 0.950 . S
C5532 C5527 1.363 . S
C5532 C5531 1.415 . S
C5533 H5509 0.951 . S
C5533 C5534 1.366 . S
C5533 C5535 1.388 . S
C5534 C5533 1.366 . S
C5534 C5538 1.385 . S
C5535 H5510 0.951 . S
C5535 C5533 1.388 . S
C5535 C5536 1.366 . S
C5536 C5535 1.366 . S
C5536 C5537 1.414 . S
C5536 C5539 1.499 . S
C5537 H5511 0.950 . S
C5537 C5536 1.414 . S
C5537 C5538 1.374 . S
C5538 H5512 0.950 . S
C5538 C5534 1.385 . S
C5538 C5537 1.374 . S
C5539 C5536 1.499 . S
C5539 C5540 1.373 . S
C5539 C5541 1.389 . S
C5540 H5513 0.950 . S
C5540 C5526 1.377 . S
C5540 C5539 1.373 . S
C5541 C5525 1.377 . S
C5541 C5539 1.389 . S
C5541 C5542 1.524 . S
C5542 C5541 1.524 . S
C5542 C5543 1.397 . S
C5542 C5547 1.363 . S
C5543 H5514 0.950 . S
C5543 C5542 1.397 . S
C5543 C5544 1.334 1_455 S
C5544 H5515 0.950 . S
C5544 C5543 1.334 1_655 S
C5544 C5545 1.287 . S
C5545 C5544 1.287 . S
C5545 C5546 1.524 . S
C5545 H5548 0.999 . S
C5546 H5516 0.950 . S
C5546 C5545 1.524 . S
C5546 C5547 1.415 1_655 S
C5547 H5517 0.950 . S
C5547 C5542 1.363 . S
C5547 C5546 1.415 1_455 S
H5548 C5545 0.999 . S
H5549 C5530 0.913 . S
H5550 C5568 0.951 . S
H5551 C5570 0.951 . S
H5552 C5572 0.950 . S
H5553 C5573 0.950 . S
H5554 C5575 0.950 . S
H5555 C5578 0.950 . S
H5556 C5579 0.950 . S
H5557 C5581 0.950 . S
H5558 C5582 0.950 . S
H5559 C5583 0.951 . S
H5560 C5585 0.951 . S
H5561 C5587 0.950 . S
H5562 C5588 0.950 . S
H5563 C5590 0.950 . S
H5564 C5593 0.950 . S
H5565 C5594 0.950 . S
H5566 C5596 0.950 . S
H5567 C5597 0.950 . S
C5568 H5550 0.951 . S
C5568 C5569 1.366 . S
C5568 C5570 1.388 . S
C5569 C5568 1.366 . S
C5569 C5573 1.385 . S
C5570 H5551 0.951 . S
C5570 C5568 1.388 . S
C5570 C5571 1.366 . S
C5571 C5570 1.366 . S
C5571 C5572 1.414 . S
C5571 C5574 1.499 . S
C5572 H5552 0.950 . S
C5572 C5571 1.414 . S
C5572 C5573 1.374 . S
C5573 H5553 0.950 . S
C5573 C5569 1.385 . S
C5573 C5572 1.374 . S
C5574 C5571 1.499 . S
C5574 C5575 1.373 . S
C5574 C5576 1.389 . S
C5575 H5554 0.950 . S
C5575 C5574 1.373 . S
C5575 C5591 1.377 . S
C5576 C5574 1.389 . S
C5576 C5577 1.524 . S
C5576 C5590 1.377 . S
C5577 C5576 1.524 . S
C5577 C5578 1.397 . S
C5577 C5582 1.363 . S
C5578 H5555 0.950 . S
C5578 C5577 1.397 . S
C5578 C5579 1.334 . S
C5579 H5556 0.950 . S
C5579 C5578 1.334 . S
C5579 C5580 1.287 . S
C5580 C5579 1.287 . S
C5580 C5581 1.524 . S
C5580 H5599 0.913 . S
C5581 H5557 0.950 . S
C5581 C5580 1.524 . S
C5581 C5582 1.415 . S
C5582 H5558 0.950 . S
C5582 C5577 1.363 . S
C5582 C5581 1.415 . S
C5583 H5559 0.951 . S
C5583 C5584 1.366 . S
C5583 C5585 1.388 . S
C5584 C5583 1.366 . S
C5584 C5588 1.385 . S
C5585 H5560 0.951 . S
C5585 C5583 1.388 . S
C5585 C5586 1.366 . S
C5586 C5585 1.366 . S
C5586 C5587 1.414 . S
C5586 C5589 1.499 . S
C5587 H5561 0.950 . S
C5587 C5586 1.414 . S
C5587 C5588 1.374 . S
C5588 H5562 0.950 . S
C5588 C5584 1.385 . S
C5588 C5587 1.374 . S
C5589 C5586 1.499 . S
C5589 C5590 1.373 . S
C5589 C5591 1.389 . S
C5590 H5563 0.950 . S
C5590 C5576 1.377 . S
C5590 C5589 1.373 . S
C5591 C5575 1.377 . S
C5591 C5589 1.389 . S
C5591 C5592 1.524 . S
C5592 C5591 1.524 . S
C5592 C5593 1.397 . S
C5592 C5597 1.363 . S
C5593 H5564 0.950 . S
C5593 C5592 1.397 . S
C5593 C5594 1.334 . S
C5594 H5565 0.950 . S
C5594 C5593 1.334 . S
C5594 C5595 1.287 . S
C5595 C5594 1.287 . S
C5595 C5596 1.524 . S
C5595 H5598 0.999 . S
C5596 H5566 0.950 . S
C5596 C5595 1.524 . S
C5596 C5597 1.415 . S
C5597 H5567 0.950 . S
C5597 C5592 1.363 . S
C5597 C5596 1.415 . S
H5598 C5595 0.999 . S
H5599 C5580 0.913 . S
H5600 C5618 0.951 . S
H5601 C5620 0.951 . S
H5602 C5622 0.950 . S
H5603 C5623 0.950 . S
H5604 C5625 0.950 . S
H5605 C5628 0.950 . S
H5606 C5629 0.950 . S
H5607 C5631 0.950 . S
H5608 C5632 0.950 . S
H5609 C5633 0.951 . S
H5610 C5635 0.951 . S
H5611 C5637 0.950 . S
H5612 C5638 0.950 . S
H5613 C5640 0.950 . S
H5614 C5643 0.950 . S
H5615 C5644 0.950 . S
H5616 C5646 0.950 . S
H5617 C5647 0.950 . S
C5618 H5600 0.951 . S
C5618 C5619 1.366 . S
C5618 C5620 1.388 . S
C5619 C5618 1.366 . S
C5619 C5623 1.385 . S
C5620 H5601 0.951 . S
C5620 C5618 1.388 . S
C5620 C5621 1.366 . S
C5621 C5620 1.366 . S
C5621 C5622 1.414 . S
C5621 C5624 1.499 . S
C5622 H5602 0.950 . S
C5622 C5621 1.414 . S
C5622 C5623 1.374 . S
C5623 H5603 0.950 . S
C5623 C5619 1.385 . S
C5623 C5622 1.374 . S
C5624 C5621 1.499 . S
C5624 C5625 1.373 . S
C5624 C5626 1.389 . S
C5625 H5604 0.950 . S
C5625 C5624 1.373 . S
C5625 C5641 1.377 . S
C5626 C5624 1.389 . S
C5626 C5627 1.524 . S
C5626 C5640 1.377 . S
C5627 C5626 1.524 . S
C5627 C5628 1.397 . S
C5627 C5632 1.363 . S
C5628 H5605 0.950 . S
C5628 C5627 1.397 . S
C5628 C5629 1.334 . S
C5629 H5606 0.950 . S
C5629 C5628 1.334 . S
C5629 C5630 1.287 . S
C5630 C5629 1.287 . S
C5630 C5631 1.524 . S
C5630 H5649 0.913 . S
C5631 H5607 0.950 . S
C5631 C5630 1.524 . S
C5631 C5632 1.415 . S
C5632 H5608 0.950 . S
C5632 C5627 1.363 . S
C5632 C5631 1.415 . S
C5633 H5609 0.951 . S
C5633 C5634 1.366 . S
C5633 C5635 1.388 . S
C5634 C5633 1.366 . S
C5634 C5638 1.385 . S
C5635 H5610 0.951 . S
C5635 C5633 1.388 . S
C5635 C5636 1.366 . S
C5636 C5635 1.366 . S
C5636 C5637 1.414 . S
C5636 C5639 1.499 . S
C5637 H5611 0.950 . S
C5637 C5636 1.414 . S
C5637 C5638 1.374 . S
C5638 H5612 0.950 . S
C5638 C5634 1.385 . S
C5638 C5637 1.374 . S
C5639 C5636 1.499 . S
C5639 C5640 1.373 . S
C5639 C5641 1.389 . S
C5640 H5613 0.950 . S
C5640 C5626 1.377 . S
C5640 C5639 1.373 . S
C5641 C5625 1.377 . S
C5641 C5639 1.389 . S
C5641 C5642 1.524 . S
C5642 C5641 1.524 . S
C5642 C5643 1.397 . S
C5642 C5647 1.363 . S
C5643 H5614 0.950 . S
C5643 C5642 1.397 . S
C5643 C5644 1.334 . S
C5644 H5615 0.950 . S
C5644 C5643 1.334 . S
C5644 C5645 1.287 . S
C5645 C5644 1.287 . S
C5645 C5646 1.524 . S
C5645 H5648 0.999 . S
C5646 H5616 0.950 . S
C5646 C5645 1.524 . S
C5646 C5647 1.415 . S
C5647 H5617 0.950 . S
C5647 C5642 1.363 . S
C5647 C5646 1.415 . S
H5648 C5645 0.999 . S
H5649 C5630 0.913 . S
H5650 C5668 0.951 . S
H5651 C5670 0.951 . S
H5652 C5672 0.950 . S
H5653 C5673 0.950 . S
H5654 C5675 0.950 . S
H5655 C5678 0.950 . S
H5656 C5679 0.950 . S
H5657 C5681 0.950 . S
H5658 C5682 0.950 . S
H5659 C5683 0.951 . S
H5660 C5685 0.951 . S
H5661 C5687 0.950 . S
H5662 C5688 0.950 . S
H5663 C5690 0.950 . S
H5664 C5693 0.950 . S
H5665 C5694 0.950 . S
H5666 C5696 0.950 . S
H5667 C5697 0.950 . S
C5668 H5650 0.951 . S
C5668 C5669 1.366 . S
C5668 C5670 1.388 . S
C5669 C5668 1.366 . S
C5669 C5673 1.385 . S
C5670 H5651 0.951 . S
C5670 C5668 1.388 . S
C5670 C5671 1.366 . S
C5671 C5670 1.366 . S
C5671 C5672 1.414 . S
C5671 C5674 1.499 . S
C5672 H5652 0.950 . S
C5672 C5671 1.414 . S
C5672 C5673 1.374 . S
C5673 H5653 0.950 . S
C5673 C5669 1.385 . S
C5673 C5672 1.374 . S
C5674 C5671 1.499 . S
C5674 C5675 1.373 . S
C5674 C5676 1.389 . S
C5675 H5654 0.950 . S
C5675 C5674 1.373 . S
C5675 C5691 1.377 . S
C5676 C5674 1.389 . S
C5676 C5677 1.524 . S
C5676 C5690 1.377 . S
C5677 C5676 1.524 . S
C5677 C5678 1.397 . S
C5677 C5682 1.363 . S
C5678 H5655 0.950 . S
C5678 C5677 1.397 . S
C5678 C5679 1.334 . S
C5679 H5656 0.950 . S
C5679 C5678 1.334 . S
C5679 C5680 1.287 . S
C5680 C5679 1.287 . S
C5680 C5681 1.524 . S
C5680 H5699 0.913 . S
C5681 H5657 0.950 . S
C5681 C5680 1.524 . S
C5681 C5682 1.415 . S
C5682 H5658 0.950 . S
C5682 C5677 1.363 . S
C5682 C5681 1.415 . S
C5683 H5659 0.951 . S
C5683 C5684 1.366 . S
C5683 C5685 1.388 . S
C5684 C5683 1.366 . S
C5684 C5688 1.385 . S
C5685 H5660 0.951 . S
C5685 C5683 1.388 . S
C5685 C5686 1.366 . S
C5686 C5685 1.366 . S
C5686 C5687 1.414 . S
C5686 C5689 1.499 . S
C5687 H5661 0.950 . S
C5687 C5686 1.414 . S
C5687 C5688 1.374 . S
C5688 H5662 0.950 . S
C5688 C5684 1.385 . S
C5688 C5687 1.374 . S
C5689 C5686 1.499 . S
C5689 C5690 1.373 . S
C5689 C5691 1.389 . S
C5690 H5663 0.950 . S
C5690 C5676 1.377 . S
C5690 C5689 1.373 . S
C5691 C5675 1.377 . S
C5691 C5689 1.389 . S
C5691 C5692 1.524 . S
C5692 C5691 1.524 . S
C5692 C5693 1.397 . S
C5692 C5697 1.363 . S
C5693 H5664 0.950 . S
C5693 C5692 1.397 . S
C5693 C5694 1.334 . S
C5694 H5665 0.950 . S
C5694 C5693 1.334 . S
C5694 C5695 1.287 1_545 S
C5695 C5694 1.287 1_565 S
C5695 C5696 1.524 . S
C5695 H5698 0.999 . S
C5696 H5666 0.950 . S
C5696 C5695 1.524 . S
C5696 C5697 1.415 1_565 S
C5697 H5667 0.950 . S
C5697 C5692 1.363 . S
C5697 C5696 1.415 1_545 S
H5698 C5695 0.999 . S
H5699 C5680 0.913 . S
H5700 C5718 0.951 . S
H5701 C5720 0.951 . S
H5702 C5722 0.950 . S
H5703 C5723 0.950 . S
H5704 C5725 0.950 . S
H5705 C5728 0.950 . S
H5706 C5729 0.950 . S
H5707 C5731 0.950 . S
H5708 C5732 0.950 . S
H5709 C5733 0.951 . S
H5710 C5735 0.951 . S
H5711 C5737 0.950 . S
H5712 C5738 0.950 . S
H5713 C5740 0.950 . S
H5714 C5743 0.950 . S
H5715 C5744 0.950 . S
H5716 C5746 0.950 . S
H5717 C5747 0.950 . S
C5718 H5700 0.951 . S
C5718 C5719 1.366 . S
C5718 C5720 1.388 . S
C5719 C5718 1.366 . S
C5719 C5723 1.385 . S
C5720 H5701 0.951 . S
C5720 C5718 1.388 . S
C5720 C5721 1.366 . S
C5721 C5720 1.366 . S
C5721 C5722 1.414 . S
C5721 C5724 1.499 . S
C5722 H5702 0.950 . S
C5722 C5721 1.414 . S
C5722 C5723 1.374 . S
C5723 H5703 0.950 . S
C5723 C5719 1.385 . S
C5723 C5722 1.374 . S
C5724 C5721 1.499 . S
C5724 C5725 1.373 . S
C5724 C5726 1.389 . S
C5725 H5704 0.950 . S
C5725 C5724 1.373 . S
C5725 C5741 1.377 . S
C5726 C5724 1.389 . S
C5726 C5727 1.524 . S
C5726 C5740 1.377 . S
C5727 C5726 1.524 . S
C5727 C5728 1.397 . S
C5727 C5732 1.363 . S
C5728 H5705 0.950 . S
C5728 C5727 1.397 . S
C5728 C5729 1.334 . S
C5729 H5706 0.950 . S
C5729 C5728 1.334 . S
C5729 C5730 1.287 . S
C5730 C5729 1.287 . S
C5730 C5731 1.524 . S
C5730 H5749 0.913 . S
C5731 H5707 0.950 . S
C5731 C5730 1.524 . S
C5731 C5732 1.415 . S
C5732 H5708 0.950 . S
C5732 C5727 1.363 . S
C5732 C5731 1.415 . S
C5733 H5709 0.951 . S
C5733 C5734 1.366 . S
C5733 C5735 1.388 . S
C5734 C5733 1.366 . S
C5734 C5738 1.385 . S
C5735 H5710 0.951 . S
C5735 C5733 1.388 . S
C5735 C5736 1.366 . S
C5736 C5735 1.366 . S
C5736 C5737 1.414 . S
C5736 C5739 1.499 . S
C5737 H5711 0.950 . S
C5737 C5736 1.414 . S
C5737 C5738 1.374 . S
C5738 H5712 0.950 . S
C5738 C5734 1.385 . S
C5738 C5737 1.374 . S
C5739 C5736 1.499 . S
C5739 C5740 1.373 . S
C5739 C5741 1.389 . S
C5740 H5713 0.950 . S
C5740 C5726 1.377 . S
C5740 C5739 1.373 . S
C5741 C5725 1.377 . S
C5741 C5739 1.389 . S
C5741 C5742 1.524 . S
C5742 C5741 1.524 . S
C5742 C5743 1.397 . S
C5742 C5747 1.363 . S
C5743 H5714 0.950 . S
C5743 C5742 1.397 . S
C5743 C5744 1.334 . S
C5744 H5715 0.950 . S
C5744 C5743 1.334 . S
C5744 C5745 1.287 . S
C5745 C5744 1.287 . S
C5745 C5746 1.524 . S
C5745 H5748 0.999 . S
C5746 H5716 0.950 . S
C5746 C5745 1.524 . S
C5746 C5747 1.415 . S
C5747 H5717 0.950 . S
C5747 C5742 1.363 . S
C5747 C5746 1.415 . S
H5748 C5745 0.999 . S
H5749 C5730 0.913 . S
H5750 C5768 0.951 . S
H5751 C5770 0.951 . S
H5752 C5772 0.950 . S
H5753 C5773 0.950 . S
H5754 C5775 0.950 . S
H5755 C5778 0.950 1_554 S
H5756 C5779 0.951 1_554 S
H5757 C5781 0.950 . S
H5758 C5782 0.950 . S
H5759 C5783 0.951 . S
H5760 C5785 0.951 . S
H5761 C5787 0.950 . S
H5762 C5788 0.950 . S
H5763 C5790 0.950 . S
H5764 C5793 0.950 1_556 S
H5765 C5794 0.940 1_556 S
H5766 C5796 0.950 . S
H5767 C5797 0.950 . S
C5768 H5750 0.951 . S
C5768 C5769 1.366 1_556 S
C5768 C5770 1.388 . S
C5769 C5768 1.366 1_554 S
C5769 C5773 1.385 . S
C5770 H5751 0.951 . S
C5770 C5768 1.388 . S
C5770 C5771 1.366 1_556 S
C5771 C5770 1.366 1_554 S
C5771 C5772 1.414 . S
C5771 C5774 1.499 . S
C5772 H5752 0.950 . S
C5772 C5771 1.414 . S
C5772 C5773 1.374 . S
C5773 H5753 0.950 . S
C5773 C5769 1.385 . S
C5773 C5772 1.374 . S
C5774 C5771 1.499 . S
C5774 C5775 1.373 . S
C5774 C5776 1.389 1_554 S
C5775 H5754 0.950 . S
C5775 C5774 1.373 . S
C5775 C5791 1.377 . S
C5776 C5774 1.389 1_556 S
C5776 C5777 1.524 . S
C5776 C5790 1.377 . S
C5777 C5776 1.524 . S
C5777 C5778 1.397 . S
C5777 C5782 1.363 . S
C5778 H5755 0.950 1_556 S
C5778 C5777 1.397 . S
C5778 C5779 1.334 . S
C5779 H5756 0.951 1_556 S
C5779 C5778 1.334 . S
C5779 C5780 1.287 . S
C5780 C5779 1.287 . S
C5780 C5781 1.524 . S
C5780 H5799 0.913 . S
C5781 H5757 0.950 . S
C5781 C5780 1.524 . S
C5781 C5782 1.415 . S
C5782 H5758 0.950 . S
C5782 C5777 1.363 . S
C5782 C5781 1.415 . S
C5783 H5759 0.951 . S
C5783 C5784 1.366 1_554 S
C5783 C5785 1.388 . S
C5784 C5783 1.366 1_556 S
C5784 C5788 1.385 . S
C5785 H5760 0.951 . S
C5785 C5783 1.388 . S
C5785 C5786 1.366 1_554 S
C5786 C5785 1.366 1_556 S
C5786 C5787 1.414 . S
C5786 C5789 1.499 . S
C5787 H5761 0.950 . S
C5787 C5786 1.414 . S
C5787 C5788 1.374 . S
C5788 H5762 0.950 . S
C5788 C5784 1.385 . S
C5788 C5787 1.374 . S
C5789 C5786 1.499 . S
C5789 C5790 1.373 . S
C5789 C5791 1.389 1_556 S
C5790 H5763 0.950 . S
C5790 C5776 1.377 . S
C5790 C5789 1.373 . S
C5791 C5775 1.377 . S
C5791 C5789 1.389 1_554 S
C5791 C5792 1.524 . S
C5792 C5791 1.524 . S
C5792 C5793 1.397 . S
C5792 C5797 1.363 . S
C5793 H5764 0.950 1_554 S
C5793 C5792 1.397 . S
C5793 C5794 1.334 . S
C5794 H5765 0.940 1_554 S
C5794 C5793 1.334 . S
C5794 C5795 1.287 . S
C5795 C5794 1.287 . S
C5795 C5796 1.524 . S
C5795 H5798 0.999 . S
C5796 H5766 0.950 . S
C5796 C5795 1.524 . S
C5796 C5797 1.415 . S
C5797 H5767 0.950 . S
C5797 C5792 1.363 . S
C5797 C5796 1.415 . S
H5798 C5795 0.999 . S
H5799 C5780 0.913 . S
H5800 C5818 0.951 . S
H5801 C5820 0.951 . S
H5802 C5822 0.950 . S
H5803 C5823 0.950 . S
H5804 C5825 0.950 . S
H5805 C5828 0.950 . S
H5806 C5829 0.950 . S
H5807 C5831 0.950 . S
H5808 C5832 0.950 . S
H5809 C5833 0.951 . S
H5810 C5835 0.951 . S
H5811 C5837 0.950 . S
H5812 C5838 0.950 . S
H5813 C5840 0.950 . S
H5814 C5843 0.950 . S
H5815 C5844 0.950 . S
H5816 C5846 0.950 . S
H5817 C5847 0.950 . S
C5818 H5800 0.951 . S
C5818 C5819 1.366 . S
C5818 C5820 1.388 . S
C5819 C5818 1.366 . S
C5819 C5823 1.385 . S
C5820 H5801 0.951 . S
C5820 C5818 1.388 . S
C5820 C5821 1.366 . S
C5821 C5820 1.366 . S
C5821 C5822 1.414 . S
C5821 C5824 1.499 . S
C5822 H5802 0.950 . S
C5822 C5821 1.414 . S
C5822 C5823 1.374 . S
C5823 H5803 0.950 . S
C5823 C5819 1.385 . S
C5823 C5822 1.374 . S
C5824 C5821 1.499 . S
C5824 C5825 1.373 . S
C5824 C5826 1.389 . S
C5825 H5804 0.950 . S
C5825 C5824 1.373 . S
C5825 C5841 1.377 . S
C5826 C5824 1.389 . S
C5826 C5827 1.524 . S
C5826 C5840 1.377 . S
C5827 C5826 1.524 . S
C5827 C5828 1.397 . S
C5827 C5832 1.363 . S
C5828 H5805 0.950 . S
C5828 C5827 1.397 . S
C5828 C5829 1.334 . S
C5829 H5806 0.950 . S
C5829 C5828 1.334 . S
C5829 C5830 1.287 . S
C5830 C5829 1.287 . S
C5830 C5831 1.524 . S
C5830 H5849 0.913 . S
C5831 H5807 0.950 . S
C5831 C5830 1.524 . S
C5831 C5832 1.415 . S
C5832 H5808 0.950 . S
C5832 C5827 1.363 . S
C5832 C5831 1.415 . S
C5833 H5809 0.951 . S
C5833 C5834 1.366 . S
C5833 C5835 1.388 . S
C5834 C5833 1.366 . S
C5834 C5838 1.385 . S
C5835 H5810 0.951 . S
C5835 C5833 1.388 . S
C5835 C5836 1.366 . S
C5836 C5835 1.366 . S
C5836 C5837 1.414 . S
C5836 C5839 1.499 . S
C5837 H5811 0.950 . S
C5837 C5836 1.414 . S
C5837 C5838 1.374 . S
C5838 H5812 0.950 . S
C5838 C5834 1.385 . S
C5838 C5837 1.374 . S
C5839 C5836 1.499 . S
C5839 C5840 1.373 . S
C5839 C5841 1.389 . S
C5840 H5813 0.950 . S
C5840 C5826 1.377 . S
C5840 C5839 1.373 . S
C5841 C5825 1.377 . S
C5841 C5839 1.389 . S
C5841 C5842 1.524 . S
C5842 C5841 1.524 . S
C5842 C5843 1.397 . S
C5842 C5847 1.363 . S
C5843 H5814 0.950 . S
C5843 C5842 1.397 . S
C5843 C5844 1.334 . S
C5844 H5815 0.950 . S
C5844 C5843 1.334 . S
C5844 C5845 1.287 . S
C5845 C5844 1.287 . S
C5845 C5846 1.524 . S
C5845 H5848 0.999 . S
C5846 H5816 0.950 . S
C5846 C5845 1.524 . S
C5846 C5847 1.415 . S
C5847 H5817 0.950 . S
C5847 C5842 1.363 . S
C5847 C5846 1.415 . S
H5848 C5845 0.999 . S
H5849 C5830 0.913 . S
H5850 C5868 0.951 . S
H5851 C5870 0.951 . S
H5852 C5872 0.950 . S
H5853 C5873 0.950 . S
H5854 C5875 0.950 . S
H5855 C5878 0.950 . S
H5856 C5879 0.950 . S
H5857 C5881 0.950 . S
H5858 C5882 0.950 . S
H5859 C5883 0.951 . S
H5860 C5885 0.951 . S
H5861 C5887 0.950 . S
H5862 C5888 0.950 . S
H5863 C5890 0.950 . S
H5864 C5893 0.950 1_554 S
H5865 C5894 0.950 . S
H5866 C5896 0.950 . S
H5867 C5897 0.950 . S
C5868 H5850 0.951 . S
C5868 C5869 1.366 . S
C5868 C5870 1.388 . S
C5869 C5868 1.366 . S
C5869 C5873 1.385 1_554 S
C5870 H5851 0.951 . S
C5870 C5868 1.388 . S
C5870 C5871 1.366 . S
C5871 C5870 1.366 . S
C5871 C5872 1.414 1_554 S
C5871 C5874 1.499 . S
C5872 H5852 0.950 . S
C5872 C5871 1.414 1_556 S
C5872 C5873 1.374 . S
C5873 H5853 0.950 . S
C5873 C5869 1.385 1_556 S
C5873 C5872 1.374 . S
C5874 C5871 1.499 . S
C5874 C5875 1.373 1_554 S
C5874 C5876 1.389 . S
C5875 H5854 0.950 . S
C5875 C5874 1.373 1_556 S
C5875 C5891 1.377 . S
C5876 C5874 1.389 . S
C5876 C5877 1.524 . S
C5876 C5890 1.377 . S
C5877 C5876 1.524 . S
C5877 C5878 1.397 . S
C5877 C5882 1.363 . S
C5878 H5855 0.950 . S
C5878 C5877 1.397 . S
C5878 C5879 1.334 . S
C5879 H5856 0.950 . S
C5879 C5878 1.334 . S
C5879 C5880 1.287 . S
C5880 C5879 1.287 . S
C5880 C5881 1.524 . S
C5880 H5899 0.913 . S
C5881 H5857 0.950 . S
C5881 C5880 1.524 . S
C5881 C5882 1.415 . S
C5882 H5858 0.950 . S
C5882 C5877 1.363 . S
C5882 C5881 1.415 . S
C5883 H5859 0.951 . S
C5883 C5884 1.366 1_556 S
C5883 C5885 1.388 . S
C5884 C5883 1.366 1_554 S
C5884 C5888 1.385 . S
C5885 H5860 0.951 . S
C5885 C5883 1.388 . S
C5885 C5886 1.366 1_556 S
C5886 C5885 1.366 1_554 S
C5886 C5887 1.414 . S
C5886 C5889 1.499 . S
C5887 H5861 0.950 . S
C5887 C5886 1.414 . S
C5887 C5888 1.374 . S
C5888 H5862 0.950 . S
C5888 C5884 1.385 . S
C5888 C5887 1.374 . S
C5889 C5886 1.499 . S
C5889 C5890 1.373 . S
C5889 C5891 1.389 1_554 S
C5890 H5863 0.950 . S
C5890 C5876 1.377 . S
C5890 C5889 1.373 . S
C5891 C5875 1.377 . S
C5891 C5889 1.389 1_556 S
C5891 C5892 1.524 . S
C5892 C5891 1.524 . S
C5892 C5893 1.397 . S
C5892 C5897 1.363 . S
C5893 H5864 0.950 1_556 S
C5893 C5892 1.397 . S
C5893 C5894 1.334 . S
C5894 H5865 0.950 . S
C5894 C5893 1.334 . S
C5894 C5895 1.287 . S
C5895 C5894 1.287 . S
C5895 C5896 1.524 . S
C5895 H5898 0.999 . S
C5896 H5866 0.950 . S
C5896 C5895 1.524 . S
C5896 C5897 1.415 . S
C5897 H5867 0.950 . S
C5897 C5892 1.363 . S
C5897 C5896 1.415 . S
H5898 C5895 0.999 . S
H5899 C5880 0.913 . S
H5900 C5918 0.951 . S
H5901 C5920 0.951 . S
H5902 C5922 0.950 . S
H5903 C5923 0.950 . S
H5904 C5925 0.950 . S
H5905 C5928 0.950 . S
H5906 C5929 0.950 . S
H5907 C5931 0.950 . S
H5908 C5932 0.950 . S
H5909 C5933 0.951 . S
H5910 C5935 0.951 . S
H5911 C5937 0.950 . S
H5912 C5938 0.950 . S
H5913 C5940 0.950 . S
H5914 C5943 0.950 . S
H5915 C5944 0.950 . S
H5916 C5946 0.950 . S
H5917 C5947 0.950 . S
C5918 H5900 0.951 . S
C5918 C5919 1.366 . S
C5918 C5920 1.388 . S
C5919 C5918 1.366 . S
C5919 C5923 1.385 . S
C5920 H5901 0.951 . S
C5920 C5918 1.388 . S
C5920 C5921 1.366 . S
C5921 C5920 1.366 . S
C5921 C5922 1.414 . S
C5921 C5924 1.499 . S
C5922 H5902 0.950 . S
C5922 C5921 1.414 . S
C5922 C5923 1.374 . S
C5923 H5903 0.950 . S
C5923 C5919 1.385 . S
C5923 C5922 1.374 . S
C5924 C5921 1.499 . S
C5924 C5925 1.373 . S
C5924 C5926 1.389 . S
C5925 H5904 0.950 . S
C5925 C5924 1.373 . S
C5925 C5941 1.377 . S
C5926 C5924 1.389 . S
C5926 C5927 1.524 . S
C5926 C5940 1.377 . S
C5927 C5926 1.524 . S
C5927 C5928 1.397 . S
C5927 C5932 1.363 . S
C5928 H5905 0.950 . S
C5928 C5927 1.397 . S
C5928 C5929 1.334 . S
C5929 H5906 0.950 . S
C5929 C5928 1.334 . S
C5929 C5930 1.287 . S
C5930 C5929 1.287 . S
C5930 C5931 1.524 . S
C5930 H5949 0.913 . S
C5931 H5907 0.950 . S
C5931 C5930 1.524 . S
C5931 C5932 1.415 . S
C5932 H5908 0.950 . S
C5932 C5927 1.363 . S
C5932 C5931 1.415 . S
C5933 H5909 0.951 . S
C5933 C5934 1.366 . S
C5933 C5935 1.388 . S
C5934 C5933 1.366 . S
C5934 C5938 1.385 . S
C5935 H5910 0.951 . S
C5935 C5933 1.388 . S
C5935 C5936 1.366 . S
C5936 C5935 1.366 . S
C5936 C5937 1.414 . S
C5936 C5939 1.499 . S
C5937 H5911 0.950 . S
C5937 C5936 1.414 . S
C5937 C5938 1.374 . S
C5938 H5912 0.950 . S
C5938 C5934 1.385 . S
C5938 C5937 1.374 . S
C5939 C5936 1.499 . S
C5939 C5940 1.373 . S
C5939 C5941 1.389 . S
C5940 H5913 0.950 . S
C5940 C5926 1.377 . S
C5940 C5939 1.373 . S
C5941 C5925 1.377 . S
C5941 C5939 1.389 . S
C5941 C5942 1.524 . S
C5942 C5941 1.524 . S
C5942 C5943 1.397 . S
C5942 C5947 1.363 . S
C5943 H5914 0.950 . S
C5943 C5942 1.397 . S
C5943 C5944 1.334 . S
C5944 H5915 0.950 . S
C5944 C5943 1.334 . S
C5944 C5945 1.287 . S
C5945 C5944 1.287 . S
C5945 C5946 1.524 . S
C5945 H5948 0.999 . S
C5946 H5916 0.950 . S
C5946 C5945 1.524 . S
C5946 C5947 1.415 . S
C5947 H5917 0.950 . S
C5947 C5942 1.363 . S
C5947 C5946 1.415 . S
H5948 C5945 0.999 . S
H5949 C5930 0.913 . S
H5950 C5968 0.951 . S
H5951 C5970 0.951 . S
H5952 C5972 0.950 . S
H5953 C5973 0.950 . S
H5954 C5975 0.950 . S
H5955 C5978 0.950 . S
H5956 C5979 0.950 . S
H5957 C5981 0.950 . S
H5958 C5982 0.950 . S
H5959 C5983 0.951 . S
H5960 C5985 0.951 . S
H5961 C5987 0.950 . S
H5962 C5988 0.950 . S
H5963 C5990 0.950 . S
H5964 C5993 0.950 . S
H5965 C5994 0.950 . S
H5966 C5996 0.950 . S
H5967 C5997 0.950 . S
C5968 H5950 0.951 . S
C5968 C5969 1.366 . S
C5968 C5970 1.388 . S
C5969 C5968 1.366 . S
C5969 C5973 1.385 . S
C5970 H5951 0.951 . S
C5970 C5968 1.388 . S
C5970 C5971 1.366 . S
C5971 C5970 1.366 . S
C5971 C5972 1.414 . S
C5971 C5974 1.499 . S
C5972 H5952 0.950 . S
C5972 C5971 1.414 . S
C5972 C5973 1.374 . S
C5973 H5953 0.950 . S
C5973 C5969 1.385 . S
C5973 C5972 1.374 . S
C5974 C5971 1.499 . S
C5974 C5975 1.373 . S
C5974 C5976 1.389 . S
C5975 H5954 0.950 . S
C5975 C5974 1.373 . S
C5975 C5991 1.377 . S
C5976 C5974 1.389 . S
C5976 C5977 1.524 . S
C5976 C5990 1.377 . S
C5977 C5976 1.524 . S
C5977 C5978 1.397 . S
C5977 C5982 1.363 . S
C5978 H5955 0.950 . S
C5978 C5977 1.397 . S
C5978 C5979 1.334 . S
C5979 H5956 0.950 . S
C5979 C5978 1.334 . S
C5979 C5980 1.287 . S
C5980 C5979 1.287 . S
C5980 C5981 1.524 . S
C5980 H5999 0.913 . S
C5981 H5957 0.950 . S
C5981 C5980 1.524 . S
C5981 C5982 1.415 . S
C5982 H5958 0.950 . S
C5982 C5977 1.363 . S
C5982 C5981 1.415 . S
C5983 H5959 0.951 . S
C5983 C5984 1.366 . S
C5983 C5985 1.388 . S
C5984 C5983 1.366 . S
C5984 C5988 1.385 . S
C5985 H5960 0.951 . S
C5985 C5983 1.388 . S
C5985 C5986 1.366 . S
C5986 C5985 1.366 . S
C5986 C5987 1.414 . S
C5986 C5989 1.499 . S
C5987 H5961 0.950 . S
C5987 C5986 1.414 . S
C5987 C5988 1.374 . S
C5988 H5962 0.950 . S
C5988 C5984 1.385 . S
C5988 C5987 1.374 . S
C5989 C5986 1.499 . S
C5989 C5990 1.373 . S
C5989 C5991 1.389 . S
C5990 H5963 0.950 . S
C5990 C5976 1.377 . S
C5990 C5989 1.373 . S
C5991 C5975 1.377 . S
C5991 C5989 1.389 . S
C5991 C5992 1.524 . S
C5992 C5991 1.524 . S
C5992 C5993 1.397 . S
C5992 C5997 1.363 . S
C5993 H5964 0.950 . S
C5993 C5992 1.397 . S
C5993 C5994 1.334 . S
C5994 H5965 0.950 . S
C5994 C5993 1.334 . S
C5994 C5995 1.287 . S
C5995 C5994 1.287 . S
C5995 C5996 1.524 . S
C5995 H5998 0.999 . S
C5996 H5966 0.950 . S
C5996 C5995 1.524 . S
C5996 C5997 1.415 . S
C5997 H5967 0.950 . S
C5997 C5992 1.363 . S
C5997 C5996 1.415 . S
H5998 C5995 0.999 . S
H5999 C5980 0.913 . S
C1234 C880 1.162 . S
C1219 C2 1.260 . S
C1269 C39 1.016 . S
C1284 C900 0.993 . S
C1319 C86 1.094 . S
C1334 C922 1.043 . S
C1384 C941 1.159 . S
C1369 C112 1.180 . S
C1419 C38 1.273 . S
C1434 C962 1.254 . S
C1484 C985 1.109 . S
C1469 C76 1.194 . S
C1534 C1008 1.025 . S
C1519 C122 1.032 . S
C1569 C3 1.204 . S
C1584 C1026 1.170 . S
C1619 C147 1.210 . S
C1634 C882 1.176 . S
C1669 C184 1.254 . S
C1684 C902 1.231 . S
C1734 C924 1.071 . S
C1719 C219 1.098 . S
C1784 C943 1.188 . S
C1769 C256 1.288 . S
C1819 C148 1.289 . S
C1834 C964 1.193 . S
C1884 C987 1.030 . S
C1869 C183 1.053 . S
C1934 C1004 1.239 . S
C1919 C220 1.264 . S
C1984 C1028 1.168 . S
C1969 C255 1.195 . S
C2034 C878 1.252 1_556 S
C2019 C254 1.273 . S
C2084 C1050 1.045 . S
C2069 C302 1.050 1_554 S
C2119 C326 1.278 . S
C2134 C1067 1.259 . S
C2184 C1090 1.222 . S
C2169 C374 1.298 . S
C2219 C146 1.257 . S
C2234 C1024 1.160 . S
C2284 C920 1.294 . S
C2269 C182 1.314 . S
C2319 C338 1.034 . S
C2334 C1113 1.028 . S
C2384 C1129 1.108 . S
C2369 C410 1.172 . S
C2419 C434 1.260 . S
C2434 C877 1.165 . S
C2484 C1130 1.143 . S
C2469 C472 1.166 . S
C2519 C507 1.251 . S
C2534 C919 1.155 . S
C2569 C543 1.078 . S
C2584 C1110 1.053 . S
C2634 C963 1.152 . S
C2619 C470 1.179 . S
C2684 C1066 1.187 . S
C2669 C518 1.252 . S
C2734 C1007 1.222 . S
C2719 C554 1.206 . S
C2784 C1151 1.218 . S
C2769 C436 1.242 . S
C2834 C881 1.309 . S
C2819 C580 1.330 . S
C2869 C615 1.163 . S
C2884 C1134 1.129 . S
C2934 C923 1.198 . S
C2919 C652 1.219 . S
C2969 C687 1.269 . S
C2984 C1108 1.170 . S
C3019 C579 1.316 . S
C3034 C961 1.207 . S
C3069 C616 1.297 . S
C3084 C1070 1.272 . S
C3134 C1005 1.107 . S
C3119 C651 1.139 . S
C3169 C688 1.197 . S
C3184 C1155 1.165 . S
C3219 C686 1.280 . S
C3234 C879 1.250 . S
C3269 C734 1.281 . S
C3284 C1049 1.291 . S
C3319 C758 1.169 . S
C3334 C984 1.143 . S
C3369 C806 1.274 . S
C3384 C1087 1.213 . S
C3434 C1153 1.144 . S
C3419 C578 1.239 . S
C3484 C921 1.200 . S
C3469 C614 1.228 . S
C3534 C944 1.228 . S
C3519 C770 1.213 . S
C3584 C901 1.201 . S
C3569 C842 1.260 . S
C3619 C74 1.184 . S
C3634 C1174 1.096 . S
C3684 C1131 0.993 . S
C3669 C111 1.016 . S
C3734 C1195 1.105 . S
C3719 C14 1.165 1_455 S
C3769 C40 1.182 . S
C3784 C1109 1.161 . S
C3819 C110 1.274 . S
C3834 C1046 1.255 . S
C3884 C1069 1.171 . S
C3869 C4 1.265 . S
C3934 C1092 1.023 . S
C3919 C50 1.021 1_455 S
C3984 C1152 1.101 . S
C3969 C75 1.132 . S
C4034 C1176 1.174 . S
C4019 C399 1.209 . S
C4069 C292 1.258 . S
C4084 C1133 1.235 . S
C4119 C327 1.089 . S
C4134 C1197 1.063 . S
C4184 C1111 1.183 . S
C4169 C364 1.283 . S
C4234 C1048 1.186 . S
C4219 C400 1.284 . S
C4269 C291 1.045 . S
C4284 C1071 1.022 . S
C4334 C1088 1.241 . S
C4319 C328 1.267 . S
C4369 C363 1.193 . S
C4384 C1154 1.168 . S
C4434 C1172 1.232 . S
C4419 C362 1.254 . S
C4484 C966 1.052 . S
C4469 C194 1.058 . S
C4534 C983 1.228 . S
C4519 C218 1.247 . S
C4569 C266 1.278 1_554 S
C4584 C1006 1.202 . S
C4634 C1150 1.139 . S
C4619 C398 1.235 . S
C4669 C290 1.344 . S
C4684 C1193 1.324 . S
C4734 C945 1.035 . S
C4719 C230 1.041 . S
C4784 C898 1.091 . S
C4769 C158 1.152 . S
C4819 C508 1.159 . S
C4834 C1171 1.073 . S
C4884 C899 1.146 . S
C4869 C544 1.170 . S
C4934 C1192 1.220 . S
C4919 C446 1.279 . S
C4969 C471 1.084 . S
C4984 C942 1.060 . S
C5019 C542 1.173 . S
C5034 C1047 1.146 . S
C5069 C435 1.218 . S
C5084 C982 1.125 . S
C5119 C482 1.202 1_455 S
C5134 C1091 1.218 . S
C5169 C506 1.345 . S
C5184 C1025 1.326 . S
C5234 C1175 1.289 . S
C5219 C832 1.308 . S
C5269 C723 1.142 . S
C5284 C903 1.109 . S
C5334 C1196 1.217 . S
C5319 C760 1.239 . S
C5369 C795 1.278 . S
C5384 C940 1.177 . S
C5419 C831 1.308 . S
C5434 C1045 1.200 . S
C5484 C986 1.253 . S
C5469 C724 1.278 . S
C5519 C759 1.160 . S
C5534 C1089 1.128 . S
C5584 C1029 1.193 . S
C5569 C796 1.224 . S
C5634 C1173 1.250 . S
C5619 C794 1.278 . S
C5684 C965 1.304 . S
C5669 C626 1.294 . S
C5719 C650 1.157 . S
C5734 C1068 1.131 . S
C5784 C1003 1.199 . S
C5769 C698 1.258 . S
C5834 C1027 1.145 . S
C5819 C830 1.239 . S
C5869 C722 1.216 . S
C5884 C1194 1.187 . S
C5934 C1112 1.214 . S
C5919 C662 1.200 . S
C5984 C1132 1.215 . S
C5969 C590 1.276 . S
