# Generated by pormake.
# Topology zzz, (3,6)-cn, num edge types: 1
# Building blocks:
#     Node 0, Type 0, BuildingBlock: WUSLED_clean_sbu_0, # of connection points: 3
#     Node 1, Type 0, BuildingBlock: WUSLED_clean_sbu_0, # of connection points: 3
#     Node 2, Type 0, BuildingBlock: WUSLED_clean_sbu_0, # of connection points: 3
#     Node 3, Type 0, BuildingBlock: WUSLED_clean_sbu_0, # of connection points: 3
#     Node 4, Type 0, BuildingBlock: WUSLED_clean_sbu_0, # of connection points: 3
#     Node 5, Type 0, BuildingBlock: WUSLED_clean_sbu_0, # of connection points: 3
#     Node 6, Type 0, BuildingBlock: WUSLED_clean_sbu_0, # of connection points: 3
#     Node 7, Type 0, BuildingBlock: WUSLED_clean_sbu_0, # of connection points: 3
#     Node 8, Type 1, BuildingBlock: BETDEL_clean_sbu_0, # of connection points: 6
#     Node 9, Type 1, BuildingBlock: BETDEL_clean_sbu_0, # of connection points: 6
#     Node 10, Type 1, BuildingBlock: BETDEL_clean_sbu_0, # of connection points: 6
#     Node 11, Type 1, BuildingBlock: BETDEL_clean_sbu_0, # of connection points: 6
#     Edge 12, Type (0, 1), BuildingBlock: CIFDUS_clean_linker_0, # of connection points: 2
#     Edge 13, Type (0, 1), BuildingBlock: CIFDUS_clean_linker_0, # of connection points: 2
#     Edge 14, Type (0, 1), BuildingBlock: CIFDUS_clean_linker_0, # of connection points: 2
#     Edge 15, Type (0, 1), BuildingBlock: CIFDUS_clean_linker_0, # of connection points: 2
#     Edge 16, Type (0, 1), BuildingBlock: CIFDUS_clean_linker_0, # of connection points: 2
#     Edge 17, Type (0, 1), BuildingBlock: CIFDUS_clean_linker_0, # of connection points: 2
#     Edge 18, Type (0, 1), BuildingBlock: CIFDUS_clean_linker_0, # of connection points: 2
#     Edge 19, Type (0, 1), BuildingBlock: CIFDUS_clean_linker_0, # of connection points: 2
#     Edge 20, Type (0, 1), BuildingBlock: CIFDUS_clean_linker_0, # of connection points: 2
#     Edge 21, Type (0, 1), BuildingBlock: CIFDUS_clean_linker_0, # of connection points: 2
#     Edge 22, Type (0, 1), BuildingBlock: CIFDUS_clean_linker_0, # of connection points: 2
#     Edge 23, Type (0, 1), BuildingBlock: CIFDUS_clean_linker_0, # of connection points: 2
#     Edge 24, Type (0, 1), BuildingBlock: CIFDUS_clean_linker_0, # of connection points: 2
#     Edge 25, Type (0, 1), BuildingBlock: CIFDUS_clean_linker_0, # of connection points: 2
#     Edge 26, Type (0, 1), BuildingBlock: CIFDUS_clean_linker_0, # of connection points: 2
#     Edge 27, Type (0, 1), BuildingBlock: CIFDUS_clean_linker_0, # of connection points: 2
#     Edge 28, Type (0, 1), BuildingBlock: CIFDUS_clean_linker_0, # of connection points: 2
#     Edge 29, Type (0, 1), BuildingBlock: CIFDUS_clean_linker_0, # of connection points: 2
#     Edge 30, Type (0, 1), BuildingBlock: CIFDUS_clean_linker_0, # of connection points: 2
#     Edge 31, Type (0, 1), BuildingBlock: CIFDUS_clean_linker_0, # of connection points: 2
#     Edge 32, Type (0, 1), BuildingBlock: CIFDUS_clean_linker_0, # of connection points: 2
#     Edge 33, Type (0, 1), BuildingBlock: CIFDUS_clean_linker_0, # of connection points: 2
#     Edge 34, Type (0, 1), BuildingBlock: CIFDUS_clean_linker_0, # of connection points: 2
#     Edge 35, Type (0, 1), BuildingBlock: CIFDUS_clean_linker_0, # of connection points: 2
# Relax obj value: 0.318
# Max RMSD: 0.219
# Mean RMSD: 0.204
data_MOF--net-zzz--node1-WUSLED_clean_sbu_0--node2-BETDEL_clean_sbu_0--edge1-CIFDUS_clean_linker_0
_symmetry_space_group_name_H-M    P1
_symmetry_Int_Tables_number       1
_symmetry_cell_setting            triclinic
loop_
_symmetry_equiv_pos_as_xyz
'x, y, z'
_cell_length_a     55.316897
_cell_length_b     54.887266
_cell_length_c     19.252526
_cell_angle_alpha  91.052055
_cell_angle_beta   89.69365
_cell_angle_gamma 95.801537
loop_
_atom_site_label
_atom_site_type_symbol
_atom_site_fract_x
_atom_site_fract_y
_atom_site_fract_z
_atom_type_partial_charge
C0 C 0.7982 0.45664 0.20901 0.0
C1 C 0.81781 0.44569 0.17952 0.0
C2 C 0.84433 0.46057 0.27675 0.0
C3 C 0.84062 0.44775 0.21265 0.0
C4 C 0.82429 0.4708 0.30682 0.0
C5 C 0.8017 0.46896 0.27329 0.0
U6 U 0.74831 0.44898 0.05949 0.0
O7 O 0.72043 0.47442 0.04754 0.0
O8 O 0.70922 0.43592 0.06906 0.0
C9 C 0.70219 0.45729 0.05297 0.0
C10 C 0.77396 0.45619 0.17515 0.0
C11 C 0.68276 0.45758 0.99985 0.0
C12 C 0.6401 0.46116 0.97399 0.0
C13 C 0.65857 0.45797 0.02173 0.0
C14 C 0.66952 0.46283 0.88051 0.0
C15 C 0.64528 0.46419 0.90267 0.0
C16 C 0.68802 0.45959 0.9285 0.0
C17 C 0.7924 0.42988 0.9174 0.0
C18 C 0.81856 0.42434 0.81836 0.0
C19 C 0.83544 0.42762 0.93463 0.0
C20 C 0.81235 0.42997 0.96185 0.0
C21 C 0.83869 0.42534 0.86262 0.0
C22 C 0.79547 0.42644 0.84576 0.0
C23 C 0.7687 0.43535 0.94368 0.0
O24 O 0.77116 0.47345 0.13037 0.0
O25 O 0.7624 0.43491 0.15692 0.0
O26 O 0.75804 0.41976 0.98801 0.0
O27 O 0.76724 0.45836 0.96166 0.0
H28 H 0.81558 0.43563 0.13099 0.0
H29 H 0.85544 0.43965 0.18721 0.0
H30 H 0.82591 0.48019 0.35676 0.0
H31 H 0.78682 0.47731 0.29783 0.0
H32 H 0.62173 0.46148 0.99336 0.0
H33 H 0.654 0.45641 0.07637 0.0
H34 H 0.67444 0.46517 0.82638 0.0
H35 H 0.70655 0.45938 0.91011 0.0
H36 H 0.82092 0.42317 0.76252 0.0
H37 H 0.85094 0.42915 0.96919 0.0
H38 H 0.81016 0.43295 0.01691 0.0
H39 H 0.78018 0.42649 0.81081 0.0
C40 C 0.95191 0.79157 0.22086 0.0
C41 C 0.95392 0.81207 0.17763 0.0
C42 C 0.9585 0.8399 0.27908 0.0
C43 C 0.95711 0.83597 0.20643 0.0
C44 C 0.95571 0.81919 0.32178 0.0
C45 C 0.95253 0.79543 0.29304 0.0
U46 U 0.94749 0.74275 0.07151 0.0
O47 O 0.96997 0.71211 0.06106 0.0
O48 O 0.93028 0.70462 0.06283 0.0
C49 C 0.95125 0.69553 0.05471 0.0
C50 C 0.95091 0.76606 0.19279 0.0
C51 C 0.95333 0.6767 0.99924 0.0
C52 C 0.96314 0.6355 0.96998 0.0
C53 C 0.95788 0.65322 0.01936 0.0
C54 C 0.95828 0.66398 0.8779 0.0
C55 C 0.96405 0.64073 0.89868 0.0
C56 C 0.95314 0.68192 0.92788 0.0
C57 C 0.94271 0.78348 0.90045 0.0
C58 C 0.96449 0.8 0.80003 0.0
C59 C 0.93615 0.82373 0.86132 0.0
C60 C 0.92997 0.80419 0.90512 0.0
C61 C 0.95489 0.82246 0.81192 0.0
C62 C 0.95872 0.78069 0.84502 0.0
C63 C 0.94442 0.76884 0.96201 0.0
O64 O 0.93015 0.75635 0.16654 0.0
O65 O 0.96974 0.76091 0.15554 0.0
O66 O 0.96548 0.76416 0.98701 0.0
O67 O 0.92494 0.75955 0.99548 0.0
H68 H 0.95358 0.80959 0.12168 0.0
H69 H 0.95932 0.85131 0.17163 0.0
H70 H 0.95613 0.82127 0.37781 0.0
H71 H 0.95103 0.77996 0.32749 0.0
H72 H 0.96709 0.61775 0.98794 0.0
H73 H 0.95818 0.64876 0.07393 0.0
H74 H 0.95885 0.66865 0.82347 0.0
H75 H 0.94978 0.7 0.91102 0.0
H76 H 0.97832 0.7982 0.76075 0.0
H77 H 0.92827 0.84066 0.87214 0.0
H78 H 0.91757 0.80656 0.94793 0.0
H79 H 0.96851 0.7646 0.84063 0.0
C80 C 0.72458 0.00904 0.2378 0.0
C81 C 0.7042 0.01236 0.19718 0.0
C82 C 0.67744 1.00465 0.29777 0.0
C83 C 0.68082 0.01003 0.22686 0.0
C84 C 0.69797 1.00219 0.33867 0.0
C85 C 0.72125 1.00421 0.30884 0.0
U86 U 0.77367 0.01013 0.08934 0.0
O87 O 0.81095 0.02863 0.09132 0.0
O88 O 0.8051 0.98858 0.08478 0.0
C89 C 0.82076 0.00812 0.07921 0.0
C90 C 0.74935 0.00939 0.20783 0.0
C91 C 0.83719 0.00814 0.01824 0.0
C92 C 0.87815 0.0098 0.9706 0.0
C93 C 0.86239 0.01053 0.02772 0.0
C94 C 0.84366 1.00489 0.89308 0.0
C95 C 0.86908 0.00684 0.90227 0.0
C96 C 0.82791 1.00551 0.95038 0.0
C97 C 0.73008 0.01591 0.9327 0.0
C98 C 0.71152 0.02928 0.82864 0.0
C99 C 0.68652 0.01596 0.92765 0.0
C100 C 0.70724 0.01115 0.96384 0.0
C101 C 0.68855 0.02545 0.86005 0.0
C102 C 0.73212 0.02467 0.86497 0.0
C103 C 0.75246 0.01307 0.96928 0.0
O104 O 0.75417 0.98956 0.1733 0.0
O105 O 0.75867 0.0297 0.17848 0.0
O106 O 0.76167 0.03233 1.00523 0.0
O107 O 0.75428 0.99211 0.9999 0.0
H108 H 0.70632 0.01626 0.14245 0.0
H109 H 0.6653 0.01217 0.19427 0.0
H110 H 0.69592 0.99781 0.39316 0.0
H111 H 0.7367 1.00149 0.34114 0.0
H112 H 0.89748 0.01102 0.98046 0.0
H113 H 0.86993 0.01264 0.07955 0.0
H114 H 0.83584 1.00305 0.84158 0.0
H115 H 0.80847 1.00381 0.94171 0.0
H116 H 0.71362 0.03607 0.77627 0.0
H117 H 0.66906 0.01301 0.95351 0.0
H118 H 0.7055 1.00429 0.01619 0.0
H119 H 0.74977 0.02833 0.84048 0.0
C120 C 0.57764 0.71772 0.22482 0.0
C121 C 0.57364 0.69521 0.1884 0.0
C122 C 0.5726 0.67234 0.29782 0.0
C123 C 0.57135 0.67284 0.22435 0.0
C124 C 0.5769 0.69513 0.33325 0.0
C125 C 0.57955 0.71727 0.29739 0.0
U126 U 0.58466 0.76902 0.07906 0.0
O127 O 0.55909 0.79693 0.07071 0.0
O128 O 0.59754 0.80848 0.09032 0.0
C129 C 0.5761 0.81537 0.07529 0.0
C130 C 0.57747 0.74207 0.19134 0.0
C131 C 0.57499 0.83459 0.02212 0.0
C132 C 0.56863 0.87685 0.99743 0.0
C133 C 0.57366 0.85885 0.04444 0.0
C134 C 0.56751 0.84705 0.90319 0.0
C135 C 0.56464 0.87111 0.92647 0.0
C136 C 0.57253 0.82893 0.95062 0.0
C137 C 0.60017 0.72545 0.93059 0.0
C138 C 0.59234 0.69976 0.82837 0.0
C139 C 0.59394 0.68146 0.9419 0.0
C140 C 0.59931 0.70467 0.97213 0.0
C141 C 0.58906 0.67914 0.87049 0.0
C142 C 0.59801 0.72285 0.85838 0.0
C143 C 0.59733 0.74945 0.96104 0.0
O144 O 0.59836 0.75465 0.17676 0.0
O145 O 0.56058 0.74461 0.14502 0.0
O146 O 0.57479 0.75234 0.97814 0.0
O147 O 0.61329 0.75825 0.0078 0.0
H148 H 0.57192 0.69491 0.13239 0.0
H149 H 0.5685 0.65598 0.1942 0.0
H150 H 0.57744 0.6962 0.38936 0.0
H151 H 0.58231 0.73429 0.32705 0.0
H152 H 0.56711 0.89523 0.01724 0.0
H153 H 0.57554 0.86374 0.09906 0.0
H154 H 0.56462 0.84191 0.84907 0.0
H155 H 0.57349 0.81031 0.93191 0.0
H156 H 0.58856 0.69821 0.7732 0.0
H157 H 0.59128 0.66566 0.97505 0.0
H158 H 0.60069 0.70652 0.02813 0.0
H159 H 0.59842 0.73882 0.82593 0.0
C160 C 0.22722 0.54729 0.92987 0.0
C161 C 0.20619 0.54435 0.97137 0.0
C162 C 0.18012 0.54244 0.86783 0.0
C163 C 0.18297 0.54197 0.94077 0.0
C164 C 0.20136 0.54596 0.8269 0.0
C165 C 0.22449 0.5483 0.85751 0.0
U166 U 0.27825 0.55448 0.07368 0.0
O167 O 0.30709 0.53007 0.08468 0.0
O168 O 0.31694 0.5689 0.06375 0.0
C169 C 0.32468 0.54799 0.08134 0.0
C170 C 0.25212 0.54734 0.95906 0.0
C171 C 0.34311 0.549 0.1377 0.0
C172 C 0.38552 0.55595 0.17376 0.0
C173 C 0.36761 0.55625 0.12249 0.0
C174 C 0.35482 0.54106 0.25686 0.0
C175 C 0.37939 0.54805 0.24126 0.0
C176 C 0.33683 0.54174 0.20582 0.0
C177 C 0.23428 0.57201 0.21842 0.0
C178 C 0.20755 0.57161 0.31825 0.0
C179 C 0.19265 0.58101 0.20441 0.0
C180 C 0.21549 0.5783 0.17573 0.0
C181 C 0.18853 0.57723 0.27554 0.0
C182 C 0.23036 0.56915 0.28981 0.0
C183 C 0.25785 0.56716 0.19011 0.0
O184 O 0.26388 0.56858 0.97664 0.0
O185 O 0.25559 0.52995 1.0029 0.0
O186 O 0.25974 0.54427 0.17156 0.0
O187 O 0.26797 0.58314 0.14597 0.0
H188 H 0.20771 0.54335 0.02729 0.0
H189 H 0.16726 0.53904 0.97447 0.0
H190 H 0.20022 0.54693 0.77093 0.0
H191 H 0.2404 0.55047 0.82422 0.0
H192 H 0.4043 0.56144 0.16029 0.0
H193 H 0.37295 0.56188 0.07052 0.0
H194 H 0.34954 0.53523 0.3087 0.0
H195 H 0.31805 0.53628 0.21937 0.0
H196 H 0.20446 0.5682 0.37301 0.0
H197 H 0.1779 0.58475 0.17066 0.0
H198 H 0.21827 0.58036 0.12032 0.0
H199 H 0.24474 0.5642 0.32318 0.0
C200 C 0.08091 0.22284 0.92571 0.0
C201 C 0.08683 0.20077 0.95439 0.0
C202 C 0.07005 0.17764 0.85201 0.0
C203 C 0.08153 0.17832 0.91755 0.0
C204 C 0.06523 0.20001 0.82317 0.0
C205 C 0.07047 0.22213 0.85951 0.0
U206 U 0.08965 0.27288 0.07889 0.0
O207 O 0.06778 0.30402 0.0801 0.0
O208 O 0.10748 0.31089 0.07703 0.0
C209 C 0.08669 0.32044 0.0843 0.0
C210 C 0.08399 0.24704 0.96218 0.0
C211 C 0.08495 0.33944 0.13936 0.0
C212 C 0.08107 0.38221 0.16865 0.0
C213 C 0.08665 0.3641 0.12068 0.0
C214 C 0.07305 0.35147 0.2565 0.0
C215 C 0.07347 0.37614 0.23672 0.0
C216 C 0.07866 0.33329 0.20825 0.0
C217 C 0.09165 0.22662 0.22604 0.0
C218 C 0.07054 0.19815 0.30475 0.0
C219 C 0.09946 0.18393 0.22206 0.0
C220 C 0.104 0.20773 0.19703 0.0
C221 C 0.08209 0.17873 0.27497 0.0
C222 C 0.07561 0.22179 0.28136 0.0
C223 C 0.09318 0.25119 0.19762 0.0
O224 O 0.06585 0.25278 1.00144 0.0
O225 O 0.10545 0.25548 0.98668 0.0
O226 O 0.07258 0.2571 0.17249 0.0
O227 O 0.11226 0.25851 0.15949 0.0
H228 H 0.09497 0.20083 1.00543 0.0
H229 H 0.08558 0.16149 0.94138 0.0
H230 H 0.05696 0.20045 0.7724 0.0
H231 H 0.06586 0.23885 0.83605 0.0
H232 H 0.08215 0.401 0.15173 0.0
H233 H 0.0914 0.36928 0.06793 0.0
H234 H 0.06722 0.34601 0.30821 0.0
H235 H 0.0771 0.31433 0.22389 0.0
H236 H 0.05648 0.19519 0.34381 0.0
H237 H 0.10904 0.1696 0.19867 0.0
H238 H 0.11655 0.21119 0.15414 0.0
H239 H 0.06593 0.2362 0.30423 0.0
C240 C 0.30288 0.00898 0.8971 0.0
C241 C 0.32511 0.01624 0.93011 0.0
C242 C 0.34748 0.00636 0.82447 0.0
C243 C 0.34719 0.01499 0.89407 0.0
C244 C 0.3251 0.99905 0.79221 0.0
C245 C 0.30316 1.00036 0.82805 0.0
U246 U 0.25536 0.01326 0.04997 0.0
O247 O 0.21844 0.99406 0.04914 0.0
O248 O 0.22334 0.03416 0.05291 0.0
C249 C 0.20797 0.01434 0.05749 0.0
C250 C 0.27896 0.01079 0.93097 0.0
C251 C 0.18958 0.01409 0.11382 0.0
C252 C 0.14706 0.00796 0.14872 0.0
C253 C 0.16499 0.00874 0.097 0.0
C254 C 0.17802 0.0177 0.23593 0.0
C255 C 0.15319 0.01259 0.21901 0.0
C256 C 0.19603 0.01841 0.18387 0.0
C257 C 0.3002 0.01006 0.205 0.0
C258 C 0.31922 0.99579 0.30692 0.0
C259 C 0.34408 0.01461 0.21424 0.0
C260 C 0.32305 0.01791 0.17686 0.0
C261 C 0.34223 1.00346 0.27961 0.0
C262 C 0.29845 0.99917 0.27005 0.0
C263 C 0.27746 0.01243 0.16932 0.0
O264 O 0.26918 0.99141 0.9638 0.0
O265 O 0.27533 0.03155 0.9627 0.0
O266 O 0.27528 0.03283 0.13621 0.0
O267 O 0.26769 0.9926 0.13697 0.0
H268 H 0.32539 0.02296 0.98338 0.0
H269 H 0.36405 0.02058 0.9209 0.0
H270 H 0.32446 0.99274 0.73856 0.0
H271 H 0.28625 0.99485 0.80129 0.0
H272 H 0.12832 1.00338 0.13346 0.0
H273 H 0.15962 1.00502 0.0435 0.0
H274 H 0.18354 0.0215 0.28923 0.0
H275 H 0.21495 0.02237 0.19825 0.0
H276 H 0.31723 0.98665 0.35632 0.0
H277 H 0.36167 0.02075 0.1923 0.0
H278 H 0.3246 0.02638 0.12644 0.0
H279 H 0.28087 0.99297 0.29215 0.0
C280 C 0.44324 0.29151 0.90789 0.0
C281 C 0.43914 0.31403 0.93978 0.0
C282 C 0.45344 0.33617 0.83528 0.0
C283 C 0.444 0.33617 0.90355 0.0
C284 C 0.45615 0.31339 0.80289 0.0
C285 C 0.45119 0.29149 0.83866 0.0
U286 U 0.43332 0.24246 0.05925 0.0
O287 O 0.45921 0.21521 0.07269 0.0
O288 O 0.42117 0.20278 0.0497 0.0
C289 C 0.44255 0.19647 0.0679 0.0
C290 C 0.442 0.26787 0.94504 0.0
C291 C 0.44319 0.17796 0.12311 0.0
C292 C 0.44196 0.13501 0.15459 0.0
C293 C 0.43841 0.15299 0.10585 0.0
C294 C 0.45465 0.16663 0.23968 0.0
C295 C 0.45061 0.14157 0.2217 0.0
C296 C 0.45084 0.18463 0.1911 0.0
C297 C 0.41443 0.28804 0.19709 0.0
C298 C 0.41782 0.31718 0.29296 0.0
C299 C 0.4171 0.33147 0.17449 0.0
C300 C 0.4143 0.30724 0.15017 0.0
C301 C 0.42008 0.33646 0.2458 0.0
C302 C 0.41499 0.29303 0.26861 0.0
C303 C 0.41866 0.26351 0.17301 0.0
O304 O 0.45833 0.26574 0.99323 0.0
O305 O 0.42067 0.25612 0.95933 0.0
O306 O 0.44155 0.26102 0.1591 0.0
O307 O 0.40355 0.25307 0.12627 0.0
H308 H 0.43309 0.31463 0.99312 0.0
H309 H 0.44161 0.35332 0.9302 0.0
H310 H 0.4629 0.31248 0.75009 0.0
H311 H 0.45451 0.27445 0.81272 0.0
H312 H 0.43881 0.11591 0.13884 0.0
H313 H 0.43266 0.14735 0.0538 0.0
H314 H 0.46097 0.17232 0.29119 0.0
H315 H 0.45455 0.20376 0.20609 0.0
H316 H 0.4202 0.32078 0.34817 0.0
H317 H 0.4191 0.34617 0.13744 0.0
H318 H 0.41379 0.30347 0.09488 0.0
H319 H 0.41517 0.27832 0.30534 0.0
Dy320 Dy 0.02507 0.99084 0.63954 0.0
C321 C 0.01162 0.0588 0.42455 0.0
C322 C 1.00571 0.95865 0.73335 0.0
Dy323 Dy 0.00923 0.02203 0.51669 0.0
O324 O 0.02902 0.96257 0.7206 0.0
O325 O 0.99391 0.97345 0.6985 0.0
O326 O 0.06226 0.98312 0.60123 0.0
O327 O 0.03991 1.00286 0.54154 0.0
C328 C 0.06028 0.99426 0.54233 0.0
C329 C 0.97576 0.01135 0.61528 0.0
O330 O 1.00103 0.98513 0.46393 0.0
O331 O 0.00781 0.96306 0.56273 0.0
O332 O 0.99658 0.05629 0.4764 0.0
O333 O 0.02405 0.04002 0.42011 0.0
O334 O 0.97014 0.01266 0.54984 0.0
O335 O 0.99834 0.01661 0.62289 0.0
O336 O 0.03921 0.02647 0.68769 0.0
O337 O 0.03102 0.04935 0.59026 0.0
C338 C 1.00116 0.96407 0.49683 0.0
C339 C 0.04002 0.0475 0.65427 0.0
Dy340 Dy 0.50027 0.99002 0.52264 0.0
C341 C 0.56056 0.04527 0.70326 0.0
C342 C 0.46337 0.96769 0.44487 0.0
Dy343 Dy 0.52683 0.02485 0.61237 0.0
O344 O 0.48439 0.97621 0.42074 0.0
O345 O 0.46333 0.97004 0.51195 0.0
O346 O 0.53405 0.97419 0.48452 0.0
O347 O 0.53546 0.01169 0.50948 0.0
C348 C 0.54803 0.99456 0.49226 0.0
C349 C 0.47923 0.02286 0.64001 0.0
O350 O 0.5207 0.0518 0.53033 0.0
O351 O 0.49012 0.02583 0.48044 0.0
O352 O 0.5393 0.03492 0.71956 0.0
O353 O 0.56227 0.04668 0.63625 0.0
O354 O 0.49412 0.0427 0.64121 0.0
O355 O 0.4907 1.00435 0.62594 0.0
O356 O 0.50904 0.96222 0.59967 0.0
O357 O 0.53862 0.98913 0.65033 0.0
C358 C 0.50254 0.04771 0.4858 0.0
C359 C 0.52724 0.96689 0.64352 0.0
Dy360 Dy 0.51212 0.52194 0.62897 0.0
C361 C 0.49803 0.45295 0.39895 0.0
C362 C 0.53174 0.54993 0.73443 0.0
Dy363 Dy 0.51389 0.48472 0.50195 0.0
O364 O 0.50844 0.54672 0.72156 0.0
O365 O 0.54374 0.53734 0.69122 0.0
O366 O 0.48487 0.54244 0.57278 0.0
O367 O 0.48669 0.50502 0.55242 0.0
C368 C 0.47723 0.52378 0.53307 0.0
C369 C 0.55257 0.48231 0.58752 0.0
O370 O 0.52467 0.52061 0.44896 0.0
O371 O 0.53261 0.5452 0.54779 0.0
O372 O 0.52062 0.45777 0.41697 0.0
O373 O 0.48436 0.46606 0.4357 0.0
O374 O 0.54929 0.46959 0.53008 0.0
O375 O 0.53568 0.49608 0.5911 0.0
O376 O 0.49509 0.48737 0.68007 0.0
O377 O 0.49556 0.46045 0.58376 0.0
C378 C 0.5326 0.54192 0.47921 0.0
C379 C 0.4905 0.46524 0.65 0.0
Dy380 Dy 1.00228 0.49091 0.62489 0.0
C381 C 0.05621 0.53519 0.41151 0.0
C382 C 0.96749 0.47769 0.72034 0.0
Dy383 Dy 0.02331 0.51947 0.50977 0.0
O384 O 0.98076 0.46246 0.68948 0.0
O385 O 0.97459 0.49989 0.70244 0.0
O386 O 0.02673 0.46137 0.6058 0.0
O387 O 0.01398 0.48022 0.52098 0.0
C388 C 0.02791 0.46446 0.53887 0.0
C389 C 0.99802 0.54564 0.59831 0.0
O390 O 0.98882 0.5076 0.45314 0.0
O391 O 0.97021 0.49066 0.55121 0.0
O392 O 0.04791 0.54918 0.45922 0.0
O393 O 0.04523 0.51328 0.4152 0.0
O394 O 0.9981 0.54841 0.53132 0.0
O395 O 0.01234 0.53008 0.61434 0.0
O396 O 0.03675 0.50431 0.68093 0.0
O397 O 0.05592 0.51534 0.57787 0.0
C398 C 0.96947 0.49696 0.48515 0.0
C399 C 0.05673 0.51158 0.64563 0.0
H400 H 0.15408 0.99528 0.35201 0.0
H401 H 0.10793 0.02877 0.20956 0.0
H402 H 0.07523 0.0262 0.29539 0.0
H403 H 0.05912 0.01355 0.41115 0.0
H404 H 0.10586 0.98118 0.55377 0.0
H405 H 0.13868 0.98438 0.46848 0.0
C406 C 0.13702 1.00233 0.33984 0.0
C407 C 0.13364 0.01203 0.27366 0.0
C408 C 0.11819 1.00096 0.38982 0.0
C409 C 0.1111 0.02074 0.25923 0.0
C410 C 0.09232 0.01943 0.30861 0.0
C411 C 0.07655 0.00751 0.42375 0.0
C412 C 0.07995 0.99727 0.4891 0.0
C413 C 0.09555 0.00942 0.37405 0.0
C414 C 0.10264 0.98913 0.504 0.0
C415 C 0.12151 0.99096 0.45515 0.0
H416 H 0.49114 0.14052 0.30159 0.0
H417 H 0.42267 0.09912 0.25333 0.0
H418 H 0.43243 0.06665 0.33081 0.0
H419 H 0.46087 0.04955 0.41069 0.0
H420 H 0.5294 0.09108 0.45858 0.0
H421 H 0.51922 0.12376 0.38291 0.0
C422 C 0.47824 0.12451 0.30859 0.0
C423 C 0.45618 0.12232 0.27156 0.0
C424 C 0.48407 0.10579 0.35292 0.0
C425 C 0.43986 0.10123 0.2806 0.0
C426 C 0.44542 0.08266 0.32506 0.0
C427 C 0.47359 0.06577 0.40473 0.0
C428 C 0.49591 0.06779 0.44067 0.0
C429 C 0.46757 0.08463 0.36111 0.0
C430 C 0.51205 0.08903 0.43221 0.0
C431 C 0.50625 0.10775 0.38872 0.0
H432 H 0.39095 0.50876 0.31487 0.0
H433 H 0.41115 0.58587 0.2877 0.0
H434 H 0.44285 0.58535 0.37593 0.0
H435 H 0.46503 0.5629 0.46108 0.0
H436 H 0.44616 0.48539 0.48453 0.0
H437 H 0.41422 0.48594 0.39718 0.0
C438 C 0.40229 0.52542 0.32856 0.0
C439 C 0.3986 0.54738 0.29518 0.0
C440 C 0.4209 0.52483 0.37831 0.0
C441 C 0.41363 0.56877 0.31266 0.0
C442 C 0.43175 0.56847 0.36314 0.0
C443 C 0.45391 0.54615 0.44699 0.0
C444 C 0.45813 0.52409 0.47895 0.0
C445 C 0.43559 0.54662 0.39634 0.0
C446 C 0.44363 0.50251 0.45988 0.0
C447 C 0.42518 0.50287 0.41031 0.0
H448 H 0.08039 0.38257 0.3779 0.0
H449 H 0.04563 0.41266 0.2034 0.0
H450 H 0.02969 0.44323 0.27943 0.0
H451 H 0.02402 0.46077 0.39682 0.0
H452 H 0.05803 0.43028 0.5717 0.0
H453 H 0.07561 0.40079 0.49482 0.0
C454 C 0.06928 0.39575 0.35646 0.0
C455 C 0.06443 0.3952 0.28452 0.0
C456 C 0.05986 0.41333 0.40086 0.0
C457 C 0.05014 0.41274 0.25807 0.0
C458 C 0.0408 0.43022 0.30174 0.0
C459 C 0.03538 0.44776 0.41801 0.0
C460 C 0.03951 0.44766 0.49017 0.0
C461 C 0.04537 0.43063 0.37334 0.0
C462 C 0.05436 0.43067 0.51654 0.0
C463 C 0.06444 0.41375 0.47253 0.0
H464 H 0.91454 0.03105 0.88466 0.0
H465 H 0.86214 0.97906 0.78182 0.0
H466 H 0.88977 0.97642 0.6834 0.0
H467 H 0.9295 0.98844 0.62624 0.0
H468 H 0.98278 0.03749 0.73522 0.0
H469 H 0.9544 0.04135 0.83128 0.0
C470 C 0.90915 0.01885 0.84135 0.0
C471 C 0.88603 1.00538 0.84137 0.0
C472 C 0.92544 0.01683 0.78553 0.0
C473 C 0.87949 0.9901 0.78337 0.0
C474 C 0.89543 0.98838 0.727 0.0
C475 C 0.9348 0.99994 0.67112 0.0
C476 C 0.95818 0.01272 0.67345 0.0
C477 C 0.9185 1.00164 0.72741 0.0
C478 C 0.96495 0.02736 0.73223 0.0
C479 C 0.94869 0.02964 0.7872 0.0
H480 H 0.57756 0.88239 0.79026 0.0
H481 H 0.53005 0.90157 0.95671 0.0
H482 H 0.51427 0.93223 0.8847 0.0
H483 H 0.51376 0.95427 0.77449 0.0
H484 H 0.56071 0.93584 0.60691 0.0
H485 H 0.57678 0.90451 0.67835 0.0
C486 C 0.56369 0.8932 0.81062 0.0
C487 C 0.5553 0.88968 0.87961 0.0
C488 C 0.55447 0.91103 0.76838 0.0
C489 C 0.53733 0.90407 0.90471 0.0
C490 C 0.52809 0.92159 0.86326 0.0
C491 C 0.52732 0.94317 0.75356 0.0
C492 C 0.53575 0.94698 0.68526 0.0
C493 C 0.53651 0.92531 0.79514 0.0
C494 C 0.55366 0.93286 0.65901 0.0
C495 C 0.5629 0.91504 0.70002 0.0
H496 H 0.639 0.44896 0.76624 0.0
H497 H 0.60706 0.492 0.92542 0.0
H498 H 0.57553 0.50133 0.84471 0.0
H499 H 0.5566 0.49723 0.7272 0.0
H500 H 0.59035 0.45579 0.56808 0.0
H501 H 0.62102 0.44584 0.65 0.0
C502 C 0.62535 0.46061 0.78342 0.0
C503 C 0.62569 0.46962 0.85255 0.0
C504 C 0.60734 0.46629 0.73621 0.0
C505 C 0.6073 0.48432 0.87327 0.0
C506 C 0.58924 0.48989 0.82673 0.0
C507 C 0.57103 0.48668 0.70988 0.0
C508 C 0.57141 0.47797 0.64036 0.0
C509 C 0.58907 0.48108 0.75773 0.0
C510 C 0.58969 0.46314 0.62057 0.0
C511 C 0.60732 0.45735 0.66759 0.0
H512 H 0.94541 0.62527 0.77024 0.0
H513 H 1.00314 0.61509 0.91335 0.0
H514 H 0.01781 0.58412 0.83622 0.0
H515 H 0.01476 0.55975 0.72748 0.0
H516 H 0.9585 0.57067 0.58082 0.0
H517 H 0.9426 0.60089 0.65969 0.0
C518 C 0.96125 0.61634 0.78429 0.0
C519 C 0.97293 0.62243 0.84823 0.0
C520 C 0.96979 0.59838 0.73912 0.0
C521 C 0.99344 0.61054 0.86536 0.0
C522 C 1.00195 0.59281 0.82106 0.0
C523 C 0.99893 0.56865 0.71301 0.0
C524 C 0.98784 0.56297 0.6483 0.0
C525 C 0.99026 0.58646 0.75795 0.0
C526 C 0.96746 0.57483 0.63015 0.0
C527 C 0.95838 0.59215 0.67525 0.0
H528 H 0.06543 0.16305 0.40125 0.0
H529 H 0.08025 0.13646 0.19409 0.0
H530 H 0.06 0.09638 0.22253 0.0
H531 H 0.03478 0.06994 0.30343 0.0
H532 H 0.0131 0.10064 0.49935 0.0
H533 H 0.03762 0.13887 0.47571 0.0
C534 C 0.06379 0.14884 0.36123 0.0
C535 C 0.0739 0.15322 0.29501 0.0
C536 C 0.05003 0.12681 0.37503 0.0
C537 C 0.07285 0.13381 0.24584 0.0
C538 C 0.06082 0.11095 0.26148 0.0
C539 C 0.035 0.08531 0.33974 0.0
C540 C 0.02187 0.08284 0.40204 0.0
C541 C 0.04865 0.10753 0.3251 0.0
C542 C 0.02255 0.10248 0.44997 0.0
C543 C 0.03689 0.12417 0.43715 0.0
H544 H 0.38325 0.98594 0.22966 0.0
H545 H 0.34956 0.01001 0.41833 0.0
H546 H 0.38245 0.99665 0.48684 0.0
H547 H 0.42061 0.97889 0.49318 0.0
H548 H 0.45761 0.95941 0.30558 0.0
H549 H 0.4231 0.96965 0.23601 0.0
C550 C 0.38336 0.9886 0.28562 0.0
C551 C 0.36392 0.99862 0.31906 0.0
C552 C 0.40249 0.98117 0.3247 0.0
C553 C 0.36416 1.0019 0.39164 0.0
C554 C 0.38288 0.99424 0.43083 0.0
C555 C 0.42088 0.97626 0.43716 0.0
C556 C 0.4412 0.96788 0.40425 0.0
C557 C 0.40193 0.98362 0.39792 0.0
C558 C 0.44175 0.96531 0.33168 0.0
C559 C 0.42227 0.97152 0.29208 0.0
H560 H 0.46349 0.34614 0.30384 0.0
H561 H 0.40123 0.38051 0.23648 0.0
H562 H 0.42091 0.42078 0.27404 0.0
H563 H 0.45546 0.44548 0.33053 0.0
H564 H 0.51861 0.41061 0.38912 0.0
H565 H 0.49903 0.37095 0.35002 0.0
C566 C 0.45423 0.3625 0.29792 0.0
C567 C 0.43088 0.36066 0.2693 0.0
C568 C 0.4659 0.38529 0.31726 0.0
C569 C 0.41912 0.38178 0.25967 0.0
C570 C 0.43039 0.40465 0.28073 0.0
C571 C 0.46505 0.42922 0.33292 0.0
C572 C 0.48841 0.43075 0.36168 0.0
C573 C 0.45375 0.40656 0.30983 0.0
C574 C 0.50077 0.40976 0.36563 0.0
C575 C 0.4895 0.3871 0.34417 0.0
H576 H 0.16433 0.53594 0.31685 0.0
H577 H 0.15756 0.61274 0.29246 0.0
H578 H 0.11515 0.60683 0.33333 0.0
H579 H 0.07991 0.57899 0.37439 0.0
H580 H 0.08713 0.50157 0.38639 0.0
H581 H 0.12951 0.50842 0.35217 0.0
C582 C 0.1535 0.55135 0.32097 0.0
C583 C 0.16367 0.57468 0.30266 0.0
C584 C 0.12926 0.5476 0.34153 0.0
C585 C 0.14976 0.59463 0.30691 0.0
C586 C 0.12565 0.59122 0.32994 0.0
C587 C 0.09076 0.5637 0.36805 0.0
C588 C 0.08045 0.53983 0.38129 0.0
C589 C 0.11512 0.56768 0.3467 0.0
C590 C 0.09458 0.52006 0.37446 0.0
C591 C 0.11888 0.52394 0.35568 0.0
H592 H 0.93553 0.86381 0.77371 0.0
H593 H 1.0039 0.83304 0.796 0.0
H594 H 0.0259 0.87295 0.77798 0.0
H595 H 0.02584 0.91717 0.76279 0.0
H596 H 0.95743 0.94833 0.75082 0.0
H597 H 0.93539 0.9079 0.76173 0.0
C598 C 0.95523 0.86581 0.77454 0.0
C599 C 0.96791 0.8454 0.78614 0.0
C600 C 0.96783 0.88905 0.76853 0.0
C601 C 0.99352 0.84825 0.78559 0.0
C602 C 1.00621 0.87121 0.77679 0.0
C603 C 1.00614 0.91512 0.7646 0.0
C604 C 0.99327 0.93558 0.75733 0.0
C605 C 0.99354 0.89182 0.77011 0.0
C606 C 0.96772 0.93276 0.75779 0.0
C607 C 0.95508 0.90965 0.76292 0.0
H608 H 0.64359 1.0011 0.85923 0.0
H609 H 0.68518 0.0654 0.77901 0.0
H610 H 0.64895 0.07771 0.72346 0.0
H611 H 0.605 0.07059 0.70015 0.0
H612 H 0.5634 0.00848 0.79184 0.0
H613 H 0.59997 0.99528 0.84196 0.0
C614 C 0.64469 0.01801 0.83054 0.0
C615 C 0.66695 0.03233 0.82361 0.0
C616 C 0.62371 0.02562 0.80179 0.0
C617 C 0.66825 0.05381 0.78435 0.0
C618 C 0.64752 0.06106 0.75326 0.0
C619 C 0.60401 0.05465 0.73293 0.0
C620 C 0.58166 0.04102 0.74438 0.0
C621 C 0.62509 0.04728 0.76248 0.0
C622 C 0.5804 0.01984 0.78476 0.0
C623 C 0.60132 0.01202 0.81253 0.0
H624 H 0.60393 0.63356 0.86394 0.0
H625 H 0.544 0.67498 0.81793 0.0
H626 H 0.51945 0.63768 0.7802 0.0
H627 H 0.51536 0.59355 0.7582 0.0
H628 H 0.5763 0.55227 0.79265 0.0
H629 H 0.60016 0.58907 0.83823 0.0
C630 C 0.58553 0.63422 0.84534 0.0
C631 C 0.57565 0.65667 0.84315 0.0
C632 C 0.57167 0.61276 0.82298 0.0
C633 C 0.55189 0.65771 0.81899 0.0
C634 C 0.53783 0.63645 0.7981 0.0
C635 C 0.53359 0.59255 0.77774 0.0
C636 C 0.54391 0.57033 0.77459 0.0
C637 C 0.54749 0.61388 0.80021 0.0
C638 C 0.56791 0.56925 0.79678 0.0
C639 C 0.5816 0.59027 0.8219 0.0
H640 H 0.85774 0.46622 0.8049 0.0
H641 H 0.87416 0.39397 0.85864 0.0
H642 H 0.91633 0.40347 0.81817 0.0
H643 H 0.94869 0.43348 0.77068 0.0
H644 H 0.93151 0.50684 0.72902 0.0
H645 H 0.88948 0.4959 0.76159 0.0
C646 C 0.87059 0.45254 0.80694 0.0
C647 C 0.86322 0.42946 0.83351 0.0
C648 C 0.89465 0.4585 0.78668 0.0
C649 C 0.87976 0.41181 0.83749 0.0
C650 C 0.90375 0.41731 0.81482 0.0
C651 C 0.93574 0.44705 0.76996 0.0
C652 C 0.94319 0.47098 0.74876 0.0
C653 C 0.9115 0.44077 0.79024 0.0
C654 C 0.9263 0.48842 0.74674 0.0
C655 C 0.90219 0.48216 0.76466 0.0
H656 H 0.09337 0.13545 0.83328 0.0
H657 H 0.02675 0.16648 0.78686 0.0
H658 H 0.01257 0.1302 0.71871 0.0
H659 H 0.01861 0.08944 0.67103 0.0
H660 H 0.08313 0.05616 0.72351 0.0
H661 H 0.09863 0.09325 0.78916 0.0
C662 C 0.07569 0.13418 0.8087 0.0
C663 C 0.06143 0.1541 0.81454 0.0
C664 C 0.06729 0.11282 0.76976 0.0
C665 C 0.03851 0.1519 0.78211 0.0
C666 C 0.03024 0.13103 0.74316 0.0
C667 C 0.03614 0.09042 0.69648 0.0
C668 C 0.04985 0.07024 0.69182 0.0
C669 C 0.0445 0.11145 0.73605 0.0
C670 C 0.07229 0.07153 0.72625 0.0
C671 C 0.08112 0.09272 0.76392 0.0
H672 H 0.38739 0.03998 0.8249 0.0
H673 H 0.36008 0.97039 0.73354 0.0
H674 H 0.39795 0.96885 0.66804 0.0
H675 H 0.43979 0.98722 0.63774 0.0
H676 H 0.46536 0.05764 0.7281 0.0
H677 H 0.4278 0.05855 0.79296 0.0
C678 C 0.38978 0.0243 0.79139 0.0
C679 C 0.37085 1.00525 0.78506 0.0
C680 C 0.41157 0.02357 0.75349 0.0
C681 C 0.37421 0.98541 0.7396 0.0
C682 C 0.39598 0.98445 0.70219 0.0
C683 C 0.4371 1.00267 0.67178 0.0
C684 C 0.45561 0.02222 0.67808 0.0
C685 C 0.41493 1.00339 0.70885 0.0
C686 C 0.45159 0.04227 0.72187 0.0
C687 C 0.43003 0.04287 0.75936 0.0
H688 H 0.4332 0.38054 0.82657 0.0
H689 H 0.49588 0.34439 0.76446 0.0
H690 H 0.51223 0.38045 0.70215 0.0
H691 H 0.50918 0.42223 0.6634 0.0
H692 H 0.44848 0.46043 0.72814 0.0
H693 H 0.4309 0.42392 0.79021 0.0
C694 C 0.45048 0.38064 0.79972 0.0
C695 C 0.463 0.35937 0.79958 0.0
C696 C 0.46018 0.4019 0.76407 0.0
C697 C 0.48542 0.36004 0.76429 0.0
C698 C 0.49495 0.38081 0.72881 0.0
C699 C 0.49219 0.42261 0.69166 0.0
C700 C 0.48029 0.44406 0.69189 0.0
C701 C 0.48252 0.40178 0.728 0.0
C702 C 0.45822 0.44428 0.72834 0.0
C703 C 0.44813 0.42334 0.76351 0.0
H704 H 0.16659 0.51946 0.74308 0.0
H705 H 0.13706 0.55769 0.91688 0.0
H706 H 0.09654 0.55054 0.86655 0.0
H707 H 0.06885 0.53321 0.77265 0.0
H708 H 0.09927 0.49825 0.59493 0.0
H709 H 0.1397 0.50447 0.64683 0.0
C710 C 0.15145 0.52656 0.76992 0.0
C711 C 0.15525 0.53889 0.83475 0.0
C712 C 0.12805 0.52279 0.73992 0.0
C713 C 0.13496 0.54759 0.86812 0.0
C714 C 0.11164 0.54365 0.83901 0.0
C715 C 0.08433 0.52678 0.74574 0.0
C716 C 0.08093 0.51493 0.68035 0.0
C717 C 0.10785 0.53107 0.77519 0.0
C718 C 0.10131 0.50728 0.6454 0.0
C719 C 0.1245 0.51087 0.67507 0.0
H720 H 0.98682 0.85376 0.39158 0.0
H721 H 0.94232 0.88349 0.23746 0.0
H722 H 0.95176 0.92458 0.28843 0.0
H723 H 0.97289 0.95247 0.37869 0.0
H724 H 0.0159 0.9207 0.53333 0.0
H725 H 0.00653 0.88048 0.48097 0.0
C726 C 0.97883 0.86907 0.36936 0.0
C727 C 0.96379 0.86522 0.31049 0.0
C728 C 0.98415 0.89261 0.39926 0.0
C729 C 0.9542 0.8857 0.28212 0.0
C730 C 0.95951 0.9093 0.31157 0.0
C731 C 0.98026 0.93675 0.4006 0.0
C732 C 0.9951 0.93991 0.4603 0.0
C733 C 0.97458 0.91307 0.37022 0.0
C734 C 1.0043 0.91912 0.48799 0.0
C735 C 0.999 0.89592 0.45793 0.0
H736 H 0.65782 0.02689 0.41049 0.0
H737 H 0.64128 0.97124 0.25231 0.0
H738 H 0.60047 0.962 0.30075 0.0
H739 H 0.56896 0.97022 0.38686 0.0
H740 H 0.58403 0.02844 0.53797 0.0
H741 H 0.62566 0.0361 0.49462 0.0
C742 C 0.64522 0.01278 0.38675 0.0
C743 C 0.65252 0.99981 0.32767 0.0
C744 C 0.62146 0.00799 0.4139 0.0
C745 C 0.63599 0.98162 0.29731 0.0
C746 C 0.61268 0.97627 0.32518 0.0
C747 C 0.58142 0.98449 0.41042 0.0
C748 C 0.57342 0.99865 0.46603 0.0
C749 C 0.60514 0.98938 0.38327 0.0
C750 C 0.58968 0.01731 0.4953 0.0
C751 C 0.61354 0.0217 0.47037 0.0
H752 H 0.54599 0.62814 0.26163 0.0
H753 H 0.59129 0.66197 0.4262 0.0
H754 H 0.58264 0.62578 0.49602 0.0
H755 H 0.56159 0.58429 0.51303 0.0
H756 H 0.51957 0.54895 0.34476 0.0
H757 H 0.52819 0.58538 0.27422 0.0
C758 C 0.55443 0.62767 0.31212 0.0
C759 C 0.56892 0.64862 0.33804 0.0
C760 C 0.55005 0.60617 0.35203 0.0
C761 C 0.57932 0.64698 0.40455 0.0
C762 C 0.5746 0.62597 0.44483 0.0
C763 C 0.55447 0.58444 0.46069 0.0
C764 C 0.53991 0.56365 0.4346 0.0
C765 C 0.5598 0.60549 0.41955 0.0
C766 C 0.53099 0.5644 0.3664 0.0
C767 C 0.53581 0.58538 0.32595 0.0
H768 H 0.86516 0.49974 0.35448 0.0
H769 H 0.87922 0.4279 0.27935 0.0
H770 H 0.91904 0.43283 0.33488 0.0
H771 H 0.9503 0.45761 0.40642 0.0
H772 H 0.93528 0.52863 0.48393 0.0
H773 H 0.89544 0.52374 0.42748 0.0
C774 C 0.87668 0.48493 0.35071 0.0
C775 C 0.86883 0.46346 0.31197 0.0
C776 C 0.89959 0.48777 0.38358 0.0
C777 C 0.88461 0.44484 0.30734 0.0
C778 C 0.90746 0.44757 0.33969 0.0
C779 C 0.93828 0.47201 0.41041 0.0
C780 C 0.94577 0.49362 0.44853 0.0
C781 C 0.91523 0.46898 0.37784 0.0
C782 C 0.92997 0.512 0.45422 0.0
C783 C 0.90718 0.50916 0.42205 0.0
loop_
_geom_bond_atom_site_label_1
_geom_bond_atom_site_label_2
_geom_bond_distance
_geom_bond_site_symmetry_2
_ccdc_geom_bond_type
C0 C1 1.264 . S
C0 C5 1.479 . S
C0 C10 1.465 . S
C1 C0 1.264 . S
C1 C3 1.339 . S
C1 H28 0.931 . S
C2 C3 1.395 . S
C2 C4 1.320 . S
C3 C1 1.339 . S
C3 C2 1.395 . S
C3 H29 0.929 . S
C4 C2 1.320 . S
C4 C5 1.405 . S
C4 H30 0.930 . S
C5 C0 1.479 . S
C5 C4 1.405 . S
C5 H31 0.931 . S
U6 O7 2.454 . S
U6 O8 2.458 1_554 S
U6 C9 2.984 1_554 S
U6 C10 2.847 . S
U6 C23 2.882 1_554 S
U6 O24 2.441 . S
U6 O25 2.420 . S
U6 O26 2.455 1_554 S
U6 O27 2.449 1_554 S
O7 U6 2.454 . S
O7 C9 1.353 1_554 S
O8 U6 2.458 1_556 S
O8 C9 1.286 . S
C9 U6 2.984 1_556 S
C9 O7 1.353 1_556 S
C9 O8 1.286 . S
C9 C11 1.363 . S
C10 C0 1.465 . S
C10 U6 2.847 . S
C10 O24 1.249 . S
C10 O25 1.202 . S
C11 C9 1.363 . S
C11 C13 1.408 1_556 S
C11 C16 1.342 . S
C12 C13 1.310 . S
C12 C15 1.461 1_554 S
C12 H32 0.932 . S
C13 C11 1.408 1_554 S
C13 C12 1.310 . S
C13 H33 0.930 . S
C14 C15 1.474 . S
C14 C16 1.285 . S
C14 H34 0.929 . S
C15 C12 1.461 1_556 S
C15 C14 1.474 . S
C16 C11 1.342 . S
C16 C14 1.285 . S
C16 H35 0.930 . S
C17 C20 1.424 . S
C17 C22 1.245 . S
C17 C23 1.428 . S
C18 C21 1.260 . S
C18 C22 1.477 . S
C18 H36 0.932 . S
C19 C20 1.384 . S
C19 C21 1.479 . S
C19 H37 0.929 . S
C20 C17 1.424 . S
C20 C19 1.384 . S
C20 H38 0.928 . S
C21 C18 1.260 . S
C21 C19 1.479 . S
C22 C17 1.245 . S
C22 C18 1.477 . S
C22 H39 0.932 . S
C23 U6 2.882 1_556 S
C23 C17 1.428 . S
C23 O26 1.301 . S
C23 O27 1.282 . S
O24 U6 2.441 . S
O24 C10 1.249 . S
O25 U6 2.420 . S
O25 C10 1.202 . S
O26 U6 2.455 1_556 S
O26 C23 1.301 . S
O27 U6 2.449 1_556 S
O27 C23 1.282 . S
H28 C1 0.931 . S
H29 C3 0.929 . S
H30 C4 0.930 . S
H31 C5 0.931 . S
H32 C12 0.932 . S
H33 C13 0.930 . S
H34 C14 0.929 . S
H35 C16 0.930 . S
H36 C18 0.932 . S
H37 C19 0.929 . S
H38 C20 0.928 . S
H39 C22 0.932 . S
C40 C41 1.264 . S
C40 C45 1.479 . S
C40 C50 1.465 . S
C41 C40 1.264 . S
C41 C43 1.339 . S
C41 H68 0.931 . S
C42 C43 1.395 . S
C42 C44 1.320 . S
C43 C41 1.339 . S
C43 C42 1.395 . S
C43 H69 0.929 . S
C44 C42 1.320 . S
C44 C45 1.405 . S
C44 H70 0.930 . S
C45 C40 1.479 . S
C45 C44 1.405 . S
C45 H71 0.931 . S
U46 O47 2.454 . S
U46 O48 2.458 1_554 S
U46 C49 2.984 1_554 S
U46 C50 2.847 . S
U46 C63 2.882 1_554 S
U46 O64 2.441 . S
U46 O65 2.420 . S
U46 O66 2.455 1_554 S
U46 O67 2.449 1_554 S
O47 U46 2.454 . S
O47 C49 1.353 1_554 S
O48 U46 2.458 1_556 S
O48 C49 1.286 . S
C49 U46 2.984 1_556 S
C49 O47 1.353 1_556 S
C49 O48 1.286 . S
C49 C51 1.363 . S
C50 C40 1.465 . S
C50 U46 2.847 . S
C50 O64 1.249 . S
C50 O65 1.202 . S
C51 C49 1.363 . S
C51 C53 1.408 1_556 S
C51 C56 1.342 . S
C52 C53 1.310 1_556 S
C52 C55 1.461 . S
C52 H72 0.932 1_556 S
C53 C51 1.408 1_554 S
C53 C52 1.310 1_554 S
C53 H73 0.930 . S
C54 C55 1.474 . S
C54 C56 1.285 . S
C54 H74 0.929 . S
C55 C52 1.461 . S
C55 C54 1.474 . S
C56 C51 1.342 . S
C56 C54 1.285 . S
C56 H75 0.930 . S
C57 C60 1.424 . S
C57 C62 1.245 . S
C57 C63 1.428 . S
C58 C61 1.260 . S
C58 C62 1.477 . S
C58 H76 0.932 . S
C59 C60 1.384 . S
C59 C61 1.479 . S
C59 H77 0.929 . S
C60 C57 1.424 . S
C60 C59 1.384 . S
C60 H78 0.928 . S
C61 C58 1.260 . S
C61 C59 1.479 . S
C62 C57 1.245 . S
C62 C58 1.477 . S
C62 H79 0.932 . S
C63 U46 2.882 1_556 S
C63 C57 1.428 . S
C63 O66 1.301 . S
C63 O67 1.282 . S
O64 U46 2.441 . S
O64 C50 1.249 . S
O65 U46 2.420 . S
O65 C50 1.202 . S
O66 U46 2.455 1_556 S
O66 C63 1.301 . S
O67 U46 2.449 1_556 S
O67 C63 1.282 . S
H68 C41 0.931 . S
H69 C43 0.929 . S
H70 C44 0.930 . S
H71 C45 0.931 . S
H72 C52 0.932 1_554 S
H73 C53 0.930 . S
H74 C54 0.929 . S
H75 C56 0.930 . S
H76 C58 0.932 . S
H77 C59 0.929 . S
H78 C60 0.928 . S
H79 C62 0.932 . S
C80 C81 1.264 . S
C80 C85 1.479 . S
C80 C90 1.465 . S
C81 C80 1.264 . S
C81 C83 1.339 . S
C81 H108 0.931 . S
C82 C83 1.395 . S
C82 C84 1.320 . S
C83 C81 1.339 . S
C83 C82 1.395 . S
C83 H109 0.929 . S
C84 C82 1.320 . S
C84 C85 1.405 . S
C84 H110 0.917 1_545 S
C85 C80 1.479 . S
C85 C84 1.405 . S
C85 H111 0.931 . S
U86 O87 2.454 . S
U86 O88 2.458 1_554 S
U86 C89 2.984 . S
U86 C90 2.847 . S
U86 C103 2.882 1_554 S
U86 O104 2.441 . S
U86 O105 2.420 . S
U86 O106 2.455 1_554 S
U86 O107 2.449 1_554 S
O87 U86 2.454 . S
O87 C89 1.353 . S
O88 U86 2.458 1_556 S
O88 C89 1.286 1_556 S
C89 U86 2.984 . S
C89 O87 1.353 . S
C89 O88 1.286 1_554 S
C89 C91 1.363 1_554 S
C90 C80 1.465 . S
C90 U86 2.847 . S
C90 O104 1.249 . S
C90 O105 1.202 . S
C91 C89 1.363 1_556 S
C91 C93 1.408 1_556 S
C91 C96 1.342 . S
C92 C93 1.310 . S
C92 C95 1.461 1_554 S
C92 H112 0.932 . S
C93 C91 1.408 1_554 S
C93 C92 1.310 . S
C93 H113 0.930 . S
C94 C95 1.475 1_565 S
C94 C96 1.284 1_565 S
C94 H114 0.930 . S
C95 C92 1.461 1_556 S
C95 C94 1.475 1_545 S
C96 C91 1.342 . S
C96 C94 1.284 1_545 S
C96 H115 0.929 . S
C97 C100 1.424 . S
C97 C102 1.245 . S
C97 C103 1.428 . S
C98 C101 1.260 . S
C98 C102 1.477 . S
C98 H116 0.932 . S
C99 C100 1.384 . S
C99 C101 1.479 . S
C99 H117 0.929 . S
C100 C97 1.424 . S
C100 C99 1.384 . S
C100 H118 0.928 . S
C101 C98 1.260 . S
C101 C99 1.479 . S
C102 C97 1.245 . S
C102 C98 1.477 . S
C102 H119 0.932 . S
C103 U86 2.882 1_556 S
C103 C97 1.428 . S
C103 O106 1.301 . S
C103 O107 1.282 . S
O104 U86 2.441 . S
O104 C90 1.249 . S
O105 U86 2.420 . S
O105 C90 1.202 . S
O106 U86 2.455 1_556 S
O106 C103 1.301 . S
O107 U86 2.449 1_556 S
O107 C103 1.282 . S
H108 C81 0.931 . S
H109 C83 0.929 . S
H110 C84 0.917 1_565 S
H111 C85 0.931 . S
H112 C92 0.932 . S
H113 C93 0.930 . S
H114 C94 0.930 . S
H115 C96 0.929 . S
H116 C98 0.932 . S
H117 C99 0.929 . S
H118 C100 0.928 . S
H119 C102 0.932 . S
C120 C121 1.264 . S
C120 C125 1.479 . S
C120 C130 1.465 . S
C121 C120 1.264 . S
C121 C123 1.339 . S
C121 H148 0.931 . S
C122 C123 1.395 . S
C122 C124 1.320 . S
C123 C121 1.339 . S
C123 C122 1.395 . S
C123 H149 0.929 . S
C124 C122 1.320 . S
C124 C125 1.405 . S
C124 H150 0.930 . S
C125 C120 1.479 . S
C125 C124 1.405 . S
C125 H151 0.931 . S
U126 O127 2.454 . S
U126 O128 2.458 1_554 S
U126 C129 2.984 . S
U126 C130 2.847 . S
U126 C143 2.882 1_554 S
U126 O144 2.441 . S
U126 O145 2.420 . S
U126 O146 2.455 1_554 S
U126 O147 2.449 . S
O127 U126 2.454 . S
O127 C129 1.353 . S
O128 U126 2.458 1_556 S
O128 C129 1.286 1_556 S
C129 U126 2.984 . S
C129 O127 1.353 . S
C129 O128 1.286 1_554 S
C129 C131 1.363 . S
C130 C120 1.465 . S
C130 U126 2.847 . S
C130 O144 1.249 . S
C130 O145 1.202 . S
C131 C129 1.363 . S
C131 C133 1.408 . S
C131 C136 1.342 1_554 S
C132 C133 1.310 . S
C132 C135 1.461 1_554 S
C132 H152 0.932 . S
C133 C131 1.408 . S
C133 C132 1.310 . S
C133 H153 0.930 . S
C134 C135 1.474 . S
C134 C136 1.285 . S
C134 H154 0.929 . S
C135 C132 1.461 1_556 S
C135 C134 1.474 . S
C136 C131 1.342 1_556 S
C136 C134 1.285 . S
C136 H155 0.930 . S
C137 C140 1.424 . S
C137 C142 1.245 . S
C137 C143 1.428 . S
C138 C141 1.260 . S
C138 C142 1.477 . S
C138 H156 0.932 . S
C139 C140 1.384 . S
C139 C141 1.479 . S
C139 H157 0.929 . S
C140 C137 1.424 . S
C140 C139 1.384 . S
C140 H158 0.928 . S
C141 C138 1.260 . S
C141 C139 1.479 . S
C142 C137 1.245 . S
C142 C138 1.477 . S
C142 H159 0.932 . S
C143 U126 2.882 1_556 S
C143 C137 1.428 . S
C143 O146 1.301 . S
C143 O147 1.282 1_556 S
O144 U126 2.441 . S
O144 C130 1.249 . S
O145 U126 2.420 . S
O145 C130 1.202 . S
O146 U126 2.455 1_556 S
O146 C143 1.301 . S
O147 U126 2.449 . S
O147 C143 1.282 1_554 S
H148 C121 0.931 . S
H149 C123 0.929 . S
H150 C124 0.930 . S
H151 C125 0.931 . S
H152 C132 0.932 . S
H153 C133 0.930 . S
H154 C134 0.929 . S
H155 C136 0.930 . S
H156 C138 0.932 . S
H157 C139 0.929 . S
H158 C140 0.928 . S
H159 C142 0.932 . S
C160 C161 1.264 . S
C160 C165 1.479 . S
C160 C170 1.465 . S
C161 C160 1.264 . S
C161 C163 1.339 . S
C161 H188 0.931 . S
C162 C163 1.395 . S
C162 C164 1.320 . S
C163 C161 1.339 . S
C163 C162 1.395 . S
C163 H189 0.929 . S
C164 C162 1.320 . S
C164 C165 1.405 . S
C164 H190 0.930 . S
C165 C160 1.479 . S
C165 C164 1.405 . S
C165 H191 0.931 . S
U166 O167 2.454 . S
U166 O168 2.458 . S
U166 C169 2.984 . S
U166 C170 2.847 1_554 S
U166 C183 2.882 . S
U166 O184 2.441 1_554 S
U166 O185 2.420 1_554 S
U166 O186 2.455 . S
U166 O187 2.449 . S
O167 U166 2.454 . S
O167 C169 1.353 . S
O168 U166 2.458 . S
O168 C169 1.286 . S
C169 U166 2.984 . S
C169 O167 1.353 . S
C169 O168 1.286 . S
C169 C171 1.363 . S
C170 C160 1.465 . S
C170 U166 2.847 1_556 S
C170 O184 1.249 . S
C170 O185 1.202 . S
C171 C169 1.363 . S
C171 C173 1.408 . S
C171 C176 1.342 . S
C172 C173 1.310 . S
C172 C175 1.461 . S
C172 H192 0.932 . S
C173 C171 1.408 . S
C173 C172 1.310 . S
C173 H193 0.930 . S
C174 C175 1.474 . S
C174 C176 1.285 . S
C174 H194 0.929 . S
C175 C172 1.461 . S
C175 C174 1.474 . S
C176 C171 1.342 . S
C176 C174 1.285 . S
C176 H195 0.930 . S
C177 C180 1.424 . S
C177 C182 1.245 . S
C177 C183 1.428 . S
C178 C181 1.260 . S
C178 C182 1.477 . S
C178 H196 0.932 . S
C179 C180 1.384 . S
C179 C181 1.479 . S
C179 H197 0.929 . S
C180 C177 1.424 . S
C180 C179 1.384 . S
C180 H198 0.928 . S
C181 C178 1.260 . S
C181 C179 1.479 . S
C182 C177 1.245 . S
C182 C178 1.477 . S
C182 H199 0.932 . S
C183 U166 2.882 . S
C183 C177 1.428 . S
C183 O186 1.301 . S
C183 O187 1.282 . S
O184 U166 2.441 1_556 S
O184 C170 1.249 . S
O185 U166 2.420 1_556 S
O185 C170 1.202 . S
O186 U166 2.455 . S
O186 C183 1.301 . S
O187 U166 2.449 . S
O187 C183 1.282 . S
H188 C161 0.931 . S
H189 C163 0.929 . S
H190 C164 0.930 . S
H191 C165 0.931 . S
H192 C172 0.932 . S
H193 C173 0.930 . S
H194 C174 0.929 . S
H195 C176 0.930 . S
H196 C178 0.932 . S
H197 C179 0.929 . S
H198 C180 0.928 . S
H199 C182 0.932 . S
C200 C201 1.264 . S
C200 C205 1.479 . S
C200 C210 1.465 . S
C201 C200 1.264 . S
C201 C203 1.339 . S
C201 H228 0.931 . S
C202 C203 1.395 . S
C202 C204 1.320 . S
C203 C201 1.339 . S
C203 C202 1.395 . S
C203 H229 0.929 . S
C204 C202 1.320 . S
C204 C205 1.405 . S
C204 H230 0.930 . S
C205 C200 1.479 . S
C205 C204 1.405 . S
C205 H231 0.931 . S
U206 O207 2.454 . S
U206 O208 2.458 . S
U206 C209 2.984 . S
U206 C210 2.847 1_554 S
U206 C223 2.882 . S
U206 O224 2.441 1_554 S
U206 O225 2.420 . S
U206 O226 2.455 . S
U206 O227 2.449 . S
O207 U206 2.454 . S
O207 C209 1.353 . S
O208 U206 2.458 . S
O208 C209 1.286 . S
C209 U206 2.984 . S
C209 O207 1.353 . S
C209 O208 1.286 . S
C209 C211 1.363 . S
C210 C200 1.465 . S
C210 U206 2.847 1_556 S
C210 O224 1.249 . S
C210 O225 1.202 1_556 S
C211 C209 1.363 . S
C211 C213 1.408 . S
C211 C216 1.342 . S
C212 C213 1.310 . S
C212 C215 1.461 . S
C212 H232 0.932 . S
C213 C211 1.408 . S
C213 C212 1.310 . S
C213 H233 0.930 . S
C214 C215 1.474 . S
C214 C216 1.285 . S
C214 H234 0.929 . S
C215 C212 1.461 . S
C215 C214 1.474 . S
C216 C211 1.342 . S
C216 C214 1.285 . S
C216 H235 0.930 . S
C217 C220 1.424 . S
C217 C222 1.245 . S
C217 C223 1.428 . S
C218 C221 1.260 . S
C218 C222 1.477 . S
C218 H236 0.932 . S
C219 C220 1.384 . S
C219 C221 1.479 . S
C219 H237 0.929 . S
C220 C217 1.424 . S
C220 C219 1.384 . S
C220 H238 0.928 . S
C221 C218 1.260 . S
C221 C219 1.479 . S
C222 C217 1.245 . S
C222 C218 1.477 . S
C222 H239 0.932 . S
C223 U206 2.882 . S
C223 C217 1.428 . S
C223 O226 1.301 . S
C223 O227 1.282 . S
O224 U206 2.441 1_556 S
O224 C210 1.249 . S
O225 U206 2.420 . S
O225 C210 1.202 1_554 S
O226 U206 2.455 . S
O226 C223 1.301 . S
O227 U206 2.449 . S
O227 C223 1.282 . S
H228 C201 0.931 . S
H229 C203 0.929 . S
H230 C204 0.930 . S
H231 C205 0.931 . S
H232 C212 0.932 . S
H233 C213 0.930 . S
H234 C214 0.929 . S
H235 C216 0.930 . S
H236 C218 0.932 . S
H237 C219 0.929 . S
H238 C220 0.928 . S
H239 C222 0.932 . S
C240 C241 1.264 . S
C240 C245 1.479 . S
C240 C250 1.465 . S
C241 C240 1.264 . S
C241 C243 1.339 . S
C241 H268 0.931 . S
C242 C243 1.395 . S
C242 C244 1.320 . S
C243 C241 1.339 . S
C243 C242 1.395 . S
C243 H269 0.929 . S
C244 C242 1.320 . S
C244 C245 1.405 . S
C244 H270 0.926 1_545 S
C245 C240 1.479 . S
C245 C244 1.405 . S
C245 H271 0.931 . S
U246 O247 2.454 . S
U246 O248 2.458 . S
U246 C249 2.984 . S
U246 C250 2.847 1_554 S
U246 C263 2.882 . S
U246 O264 2.441 1_554 S
U246 O265 2.420 1_554 S
U246 O266 2.455 . S
U246 O267 2.449 . S
O247 U246 2.454 . S
O247 C249 1.353 . S
O248 U246 2.458 . S
O248 C249 1.286 . S
C249 U246 2.984 . S
C249 O247 1.353 . S
C249 O248 1.286 . S
C249 C251 1.363 . S
C250 C240 1.465 . S
C250 U246 2.847 1_556 S
C250 O264 1.249 . S
C250 O265 1.202 . S
C251 C249 1.363 . S
C251 C253 1.408 . S
C251 C256 1.342 . S
C252 C253 1.310 . S
C252 C255 1.462 . S
C252 H272 0.932 . S
C253 C251 1.408 . S
C253 C252 1.310 . S
C253 H273 0.930 . S
C254 C255 1.472 1_565 S
C254 C256 1.285 1_565 S
C254 H274 0.929 . S
C255 C252 1.462 . S
C255 C254 1.472 1_545 S
C256 C251 1.342 . S
C256 C254 1.285 1_545 S
C256 H275 0.930 . S
C257 C260 1.424 . S
C257 C262 1.245 . S
C257 C263 1.428 . S
C258 C261 1.260 . S
C258 C262 1.477 . S
C258 H276 0.932 . S
C259 C260 1.384 . S
C259 C261 1.479 . S
C259 H277 0.929 . S
C260 C257 1.424 . S
C260 C259 1.384 . S
C260 H278 0.928 . S
C261 C258 1.260 . S
C261 C259 1.479 . S
C262 C257 1.245 . S
C262 C258 1.477 . S
C262 H279 0.932 . S
C263 U246 2.882 . S
C263 C257 1.428 . S
C263 O266 1.301 . S
C263 O267 1.282 . S
O264 U246 2.441 1_556 S
O264 C250 1.249 . S
O265 U246 2.420 1_556 S
O265 C250 1.202 . S
O266 U246 2.455 . S
O266 C263 1.301 . S
O267 U246 2.449 . S
O267 C263 1.282 . S
H268 C241 0.931 . S
H269 C243 0.929 . S
H270 C244 0.926 1_565 S
H271 C245 0.931 . S
H272 C252 0.932 . S
H273 C253 0.930 . S
H274 C254 0.929 . S
H275 C256 0.930 . S
H276 C258 0.932 . S
H277 C259 0.929 . S
H278 C260 0.928 . S
H279 C262 0.932 . S
C280 C281 1.264 . S
C280 C285 1.479 . S
C280 C290 1.465 . S
C281 C280 1.264 . S
C281 C283 1.339 . S
C281 H308 0.931 . S
C282 C283 1.395 . S
C282 C284 1.320 . S
C283 C281 1.339 . S
C283 C282 1.395 . S
C283 H309 0.929 . S
C284 C282 1.320 . S
C284 C285 1.405 . S
C284 H310 0.930 . S
C285 C280 1.479 . S
C285 C284 1.405 . S
C285 H311 0.931 . S
U286 O287 2.454 . S
U286 O288 2.458 . S
U286 C289 2.984 . S
U286 C290 2.847 1_554 S
U286 C303 2.882 . S
U286 O304 2.441 1_554 S
U286 O305 2.420 1_554 S
U286 O306 2.455 . S
U286 O307 2.449 . S
O287 U286 2.454 . S
O287 C289 1.353 . S
O288 U286 2.458 . S
O288 C289 1.286 . S
C289 U286 2.984 . S
C289 O287 1.353 . S
C289 O288 1.286 . S
C289 C291 1.363 . S
C290 C280 1.465 . S
C290 U286 2.847 1_556 S
C290 O304 1.249 . S
C290 O305 1.202 . S
C291 C289 1.363 . S
C291 C293 1.408 . S
C291 C296 1.342 . S
C292 C293 1.310 . S
C292 C295 1.461 . S
C292 H312 0.932 . S
C293 C291 1.408 . S
C293 C292 1.310 . S
C293 H313 0.930 . S
C294 C295 1.474 . S
C294 C296 1.285 . S
C294 H314 0.929 . S
C295 C292 1.461 . S
C295 C294 1.474 . S
C296 C291 1.342 . S
C296 C294 1.285 . S
C296 H315 0.930 . S
C297 C300 1.424 . S
C297 C302 1.245 . S
C297 C303 1.428 . S
C298 C301 1.260 . S
C298 C302 1.477 . S
C298 H316 0.932 . S
C299 C300 1.384 . S
C299 C301 1.479 . S
C299 H317 0.929 . S
C300 C297 1.424 . S
C300 C299 1.384 . S
C300 H318 0.928 . S
C301 C298 1.260 . S
C301 C299 1.479 . S
C302 C297 1.245 . S
C302 C298 1.477 . S
C302 H319 0.932 . S
C303 U286 2.882 . S
C303 C297 1.428 . S
C303 O306 1.301 . S
C303 O307 1.282 . S
O304 U286 2.441 1_556 S
O304 C290 1.249 . S
O305 U286 2.420 1_556 S
O305 C290 1.202 . S
O306 U286 2.455 . S
O306 C303 1.301 . S
O307 U286 2.449 . S
O307 C303 1.282 . S
H308 C281 0.931 . S
H309 C283 0.929 . S
H310 C284 0.930 . S
H311 C285 0.931 . S
H312 C292 0.932 . S
H313 C293 0.930 . S
H314 C294 0.929 . S
H315 C296 0.930 . S
H316 C298 0.932 . S
H317 C299 0.929 . S
H318 C300 0.928 . S
H319 C302 0.932 . S
Dy320 O324 2.398 . S
Dy320 O325 2.491 1_455 S
Dy320 O326 2.403 . S
Dy320 O327 2.664 1_565 S
Dy320 O331 2.326 . S
Dy320 O335 2.310 1_455 S
Dy320 O336 2.351 1_565 S
C321 O332 1.185 1_455 S
C321 O333 1.355 . S
C322 O324 1.185 . S
C322 O325 1.355 1_455 S
Dy323 O327 2.310 1_655 S
Dy323 O330 2.351 1_545 S
Dy323 O332 2.398 . S
Dy323 O333 2.491 1_655 S
Dy323 O334 2.403 . S
Dy323 O335 2.664 1_545 S
Dy323 O337 2.326 1_655 S
O324 Dy320 2.398 . S
O324 C322 1.185 . S
O325 Dy320 2.491 1_655 S
O325 C322 1.355 1_655 S
O326 Dy320 2.403 . S
O326 C328 1.254 . S
O327 Dy320 2.664 1_545 S
O327 Dy323 2.310 1_455 S
O327 C328 1.268 1_545 S
C328 O326 1.254 . S
C328 O327 1.268 1_565 S
C329 O334 1.254 . S
C329 O335 1.268 1_545 S
O330 Dy323 2.351 1_565 S
O330 C338 1.249 . S
O331 Dy320 2.326 . S
O331 C338 1.267 1_455 S
O332 C321 1.185 1_655 S
O332 Dy323 2.398 . S
O333 C321 1.355 . S
O333 Dy323 2.491 1_455 S
O334 Dy323 2.403 . S
O334 C329 1.254 . S
O335 Dy320 2.310 1_655 S
O335 Dy323 2.664 1_565 S
O335 C329 1.268 1_565 S
O336 Dy320 2.351 1_545 S
O336 C339 1.249 . S
O337 Dy323 2.326 1_455 S
O337 C339 1.267 . S
C338 O330 1.249 . S
C338 O331 1.267 1_655 S
C339 O336 1.249 . S
C339 O337 1.267 . S
Dy340 O344 2.398 . S
Dy340 O345 2.491 . S
Dy340 O346 2.403 . S
Dy340 O347 2.664 . S
Dy340 O351 2.326 1_565 S
Dy340 O355 2.310 1_565 S
Dy340 O356 2.351 . S
C341 O352 1.185 . S
C341 O353 1.355 . S
C342 O344 1.185 . S
C342 O345 1.355 . S
Dy343 O347 2.310 1_545 S
Dy343 O350 2.351 . S
Dy343 O352 2.398 . S
Dy343 O353 2.491 . S
Dy343 O354 2.403 . S
Dy343 O355 2.664 . S
Dy343 O357 2.326 1_545 S
O344 Dy340 2.398 . S
O344 C342 1.185 . S
O345 Dy340 2.491 . S
O345 C342 1.355 . S
O346 Dy340 2.403 . S
O346 C348 1.254 . S
O347 Dy340 2.664 . S
O347 Dy343 2.310 1_565 S
O347 C348 1.268 . S
C348 O346 1.254 . S
C348 O347 1.268 . S
C349 O354 1.254 . S
C349 O355 1.268 . S
O350 Dy343 2.351 . S
O350 C358 1.249 . S
O351 Dy340 2.326 1_545 S
O351 C358 1.267 . S
O352 C341 1.185 . S
O352 Dy343 2.398 . S
O353 C341 1.355 . S
O353 Dy343 2.491 . S
O354 Dy343 2.403 . S
O354 C349 1.254 . S
O355 Dy340 2.310 1_545 S
O355 Dy343 2.664 . S
O355 C349 1.268 . S
O356 Dy340 2.351 . S
O356 C359 1.249 . S
O357 Dy343 2.326 1_565 S
O357 C359 1.267 . S
C358 O350 1.249 . S
C358 O351 1.267 . S
C359 O356 1.249 . S
C359 O357 1.267 . S
Dy360 O364 2.398 . S
Dy360 O365 2.491 . S
Dy360 O366 2.403 . S
Dy360 O367 2.664 . S
Dy360 O371 2.326 . S
Dy360 O375 2.310 . S
Dy360 O376 2.351 . S
C361 O372 1.185 . S
C361 O373 1.355 . S
C362 O364 1.185 . S
C362 O365 1.355 . S
Dy363 O367 2.310 . S
Dy363 O370 2.351 . S
Dy363 O372 2.398 . S
Dy363 O373 2.491 . S
Dy363 O374 2.403 . S
Dy363 O375 2.664 . S
Dy363 O377 2.326 . S
O364 Dy360 2.398 . S
O364 C362 1.185 . S
O365 Dy360 2.491 . S
O365 C362 1.355 . S
O366 Dy360 2.403 . S
O366 C368 1.254 . S
O367 Dy360 2.664 . S
O367 Dy363 2.310 . S
O367 C368 1.268 . S
C368 O366 1.254 . S
C368 O367 1.268 . S
C369 O374 1.254 . S
C369 O375 1.268 . S
O370 Dy363 2.351 . S
O370 C378 1.249 . S
O371 Dy360 2.326 . S
O371 C378 1.267 . S
O372 C361 1.185 . S
O372 Dy363 2.398 . S
O373 C361 1.355 . S
O373 Dy363 2.491 . S
O374 Dy363 2.403 . S
O374 C369 1.254 . S
O375 Dy360 2.310 . S
O375 Dy363 2.664 . S
O375 C369 1.268 . S
O376 Dy360 2.351 . S
O376 C379 1.249 . S
O377 Dy363 2.326 . S
O377 C379 1.267 . S
C378 O370 1.249 . S
C378 O371 1.267 . S
C379 O376 1.249 . S
C379 O377 1.267 . S
Dy380 O384 2.398 . S
Dy380 O385 2.491 . S
Dy380 O386 2.403 1_655 S
Dy380 O387 2.664 1_655 S
Dy380 O391 2.326 . S
Dy380 O395 2.310 . S
Dy380 O396 2.351 1_655 S
C381 O392 1.185 . S
C381 O393 1.355 . S
C382 O384 1.185 . S
C382 O385 1.355 . S
Dy383 O387 2.310 . S
Dy383 O390 2.351 1_455 S
Dy383 O392 2.398 . S
Dy383 O393 2.491 . S
Dy383 O394 2.403 . S
Dy383 O395 2.664 1_455 S
Dy383 O397 2.326 . S
O384 Dy380 2.398 . S
O384 C382 1.185 . S
O385 Dy380 2.491 . S
O385 C382 1.355 . S
O386 Dy380 2.403 1_455 S
O386 C388 1.254 . S
O387 Dy380 2.664 1_455 S
O387 Dy383 2.310 . S
O387 C388 1.268 . S
C388 O386 1.254 . S
C388 O387 1.268 . S
C389 O394 1.254 1_655 S
C389 O395 1.268 . S
O390 Dy383 2.351 1_655 S
O390 C398 1.249 . S
O391 Dy380 2.326 . S
O391 C398 1.267 . S
O392 C381 1.185 . S
O392 Dy383 2.398 . S
O393 C381 1.355 . S
O393 Dy383 2.491 . S
O394 Dy383 2.403 . S
O394 C389 1.254 1_455 S
O395 Dy380 2.310 . S
O395 Dy383 2.664 1_655 S
O395 C389 1.268 . S
O396 Dy380 2.351 1_455 S
O396 C399 1.249 . S
O397 Dy383 2.326 . S
O397 C399 1.267 . S
C398 O390 1.249 . S
C398 O391 1.267 . S
C399 O396 1.249 . S
C399 O397 1.267 . S
H400 C406 0.930 . S
H401 C409 0.930 . S
H402 C410 0.930 . S
H403 C411 0.930 . S
H404 C414 0.930 . S
H405 C415 0.930 . S
C406 H400 0.930 . S
C406 C407 1.365 . S
C406 C408 1.415 . S
C407 C406 1.365 . S
C407 C409 1.407 1_565 S
C408 C406 1.415 . S
C408 C413 1.420 1_565 S
C408 C415 1.409 . S
C409 H401 0.930 . S
C409 C407 1.407 1_545 S
C409 C410 1.362 . S
C410 H402 0.930 . S
C410 C409 1.362 . S
C410 C413 1.413 . S
C411 H403 0.930 . S
C411 C412 1.355 1_545 S
C411 C413 1.416 . S
C412 C411 1.355 1_565 S
C412 C414 1.419 . S
C413 C408 1.420 1_545 S
C413 C410 1.413 . S
C413 C411 1.416 . S
C414 H404 0.930 . S
C414 C412 1.419 . S
C414 C415 1.362 . S
C415 H405 0.930 . S
C415 C408 1.409 . S
C415 C414 1.362 . S
H416 C422 0.930 . S
H417 C425 0.930 . S
H418 C426 0.930 . S
H419 C427 0.930 . S
H420 C430 0.930 . S
H421 C431 0.930 . S
C422 H416 0.930 . S
C422 C423 1.355 . S
C422 C424 1.415 . S
C423 C422 1.355 . S
C423 C425 1.419 . S
C424 C422 1.415 . S
C424 C429 1.425 . S
C424 C431 1.409 . S
C425 H417 0.930 . S
C425 C423 1.419 . S
C425 C426 1.362 . S
C426 H418 0.930 . S
C426 C425 1.362 . S
C426 C429 1.409 . S
C427 H419 0.930 . S
C427 C428 1.355 . S
C427 C429 1.415 . S
C428 C427 1.355 . S
C428 C430 1.419 . S
C429 C424 1.425 . S
C429 C426 1.409 . S
C429 C427 1.415 . S
C430 H420 0.930 . S
C430 C428 1.419 . S
C430 C431 1.362 . S
C431 H421 0.930 . S
C431 C424 1.409 . S
C431 C430 1.362 . S
H432 C438 0.930 . S
H433 C441 0.930 . S
H434 C442 0.930 . S
H435 C443 0.930 . S
H436 C446 0.930 . S
H437 C447 0.930 . S
C438 H432 0.930 . S
C438 C439 1.355 . S
C438 C440 1.415 . S
C439 C438 1.355 . S
C439 C441 1.419 . S
C440 C438 1.415 . S
C440 C445 1.425 . S
C440 C447 1.409 . S
C441 H433 0.930 . S
C441 C439 1.419 . S
C441 C442 1.362 . S
C442 H434 0.930 . S
C442 C441 1.362 . S
C442 C445 1.409 . S
C443 H435 0.930 . S
C443 C444 1.355 . S
C443 C445 1.415 . S
C444 C443 1.355 . S
C444 C446 1.419 . S
C445 C440 1.425 . S
C445 C442 1.409 . S
C445 C443 1.415 . S
C446 H436 0.930 . S
C446 C444 1.419 . S
C446 C447 1.362 . S
C447 H437 0.930 . S
C447 C440 1.409 . S
C447 C446 1.362 . S
H448 C454 0.930 . S
H449 C457 0.930 . S
H450 C458 0.930 . S
H451 C459 0.930 . S
H452 C462 0.930 . S
H453 C463 0.930 . S
C454 H448 0.930 . S
C454 C455 1.355 . S
C454 C456 1.415 . S
C455 C454 1.355 . S
C455 C457 1.419 . S
C456 C454 1.415 . S
C456 C461 1.425 . S
C456 C463 1.409 . S
C457 H449 0.930 . S
C457 C455 1.419 . S
C457 C458 1.362 . S
C458 H450 0.930 . S
C458 C457 1.362 . S
C458 C461 1.409 . S
C459 H451 0.930 . S
C459 C460 1.355 . S
C459 C461 1.415 . S
C460 C459 1.355 . S
C460 C462 1.419 . S
C461 C456 1.425 . S
C461 C458 1.409 . S
C461 C459 1.415 . S
C462 H452 0.930 . S
C462 C460 1.419 . S
C462 C463 1.362 . S
C463 H453 0.930 . S
C463 C456 1.409 . S
C463 C462 1.362 . S
H464 C470 0.930 . S
H465 C473 0.930 . S
H466 C474 0.930 . S
H467 C475 0.930 . S
H468 C478 0.930 . S
H469 C479 0.930 . S
C470 H464 0.930 . S
C470 C471 1.338 1_545 S
C470 C472 1.415 . S
C471 C470 1.338 1_565 S
C471 C473 1.440 . S
C472 C470 1.415 . S
C472 C477 1.425 1_545 S
C472 C479 1.409 . S
C473 H465 0.930 . S
C473 C471 1.440 . S
C473 C474 1.362 . S
C474 H466 0.930 . S
C474 C473 1.362 . S
C474 C477 1.409 . S
C475 H467 0.930 . S
C475 C476 1.355 1_565 S
C475 C477 1.415 . S
C476 C475 1.355 1_545 S
C476 C478 1.419 . S
C477 C472 1.425 1_565 S
C477 C474 1.409 . S
C477 C475 1.415 . S
C478 H468 0.930 . S
C478 C476 1.419 . S
C478 C479 1.362 . S
C479 H469 0.930 . S
C479 C472 1.409 . S
C479 C478 1.362 . S
H480 C486 0.930 . S
H481 C489 0.930 . S
H482 C490 0.930 . S
H483 C491 0.930 . S
H484 C494 0.930 . S
H485 C495 0.930 . S
C486 H480 0.930 . S
C486 C487 1.355 . S
C486 C488 1.415 . S
C487 C486 1.355 . S
C487 C489 1.419 . S
C488 C486 1.415 . S
C488 C493 1.425 . S
C488 C495 1.409 . S
C489 H481 0.930 . S
C489 C487 1.419 . S
C489 C490 1.362 . S
C490 H482 0.930 . S
C490 C489 1.362 . S
C490 C493 1.409 . S
C491 H483 0.930 . S
C491 C492 1.355 . S
C491 C493 1.415 . S
C492 C491 1.355 . S
C492 C494 1.419 . S
C493 C488 1.425 . S
C493 C490 1.409 . S
C493 C491 1.415 . S
C494 H484 0.930 . S
C494 C492 1.419 . S
C494 C495 1.362 . S
C495 H485 0.930 . S
C495 C488 1.409 . S
C495 C494 1.362 . S
H496 C502 0.930 . S
H497 C505 0.930 . S
H498 C506 0.930 . S
H499 C507 0.930 . S
H500 C510 0.930 . S
H501 C511 0.930 . S
C502 H496 0.930 . S
C502 C503 1.355 . S
C502 C504 1.415 . S
C503 C502 1.355 . S
C503 C505 1.419 . S
C504 C502 1.415 . S
C504 C509 1.425 . S
C504 C511 1.409 . S
C505 H497 0.930 . S
C505 C503 1.419 . S
C505 C506 1.362 . S
C506 H498 0.930 . S
C506 C505 1.362 . S
C506 C509 1.409 . S
C507 H499 0.930 . S
C507 C508 1.355 . S
C507 C509 1.415 . S
C508 C507 1.355 . S
C508 C510 1.419 . S
C509 C504 1.425 . S
C509 C506 1.409 . S
C509 C507 1.415 . S
C510 H500 0.930 . S
C510 C508 1.419 . S
C510 C511 1.362 . S
C511 H501 0.930 . S
C511 C504 1.409 . S
C511 C510 1.362 . S
H512 C518 0.930 . S
H513 C521 0.930 . S
H514 C522 0.930 . S
H515 C523 0.930 1_455 S
H516 C526 0.930 . S
H517 C527 0.930 . S
C518 H512 0.930 . S
C518 C519 1.355 . S
C518 C520 1.415 . S
C519 C518 1.355 . S
C519 C521 1.419 . S
C520 C518 1.415 . S
C520 C525 1.425 . S
C520 C527 1.409 . S
C521 H513 0.930 . S
C521 C519 1.419 . S
C521 C522 1.362 . S
C522 H514 0.930 . S
C522 C521 1.362 . S
C522 C525 1.409 . S
C523 H515 0.930 1_655 S
C523 C524 1.355 . S
C523 C525 1.415 . S
C524 C523 1.355 . S
C524 C526 1.419 . S
C525 C520 1.425 . S
C525 C522 1.409 . S
C525 C523 1.415 . S
C526 H516 0.930 . S
C526 C524 1.419 . S
C526 C527 1.362 . S
C527 H517 0.930 . S
C527 C520 1.409 . S
C527 C526 1.362 . S
H528 C534 0.930 . S
H529 C537 0.930 . S
H530 C538 0.930 . S
H531 C539 0.930 . S
H532 C542 0.930 . S
H533 C543 0.930 . S
C534 H528 0.930 . S
C534 C535 1.355 . S
C534 C536 1.415 . S
C535 C534 1.355 . S
C535 C537 1.419 . S
C536 C534 1.415 . S
C536 C541 1.425 . S
C536 C543 1.409 . S
C537 H529 0.930 . S
C537 C535 1.419 . S
C537 C538 1.362 . S
C538 H530 0.930 . S
C538 C537 1.362 . S
C538 C541 1.409 . S
C539 H531 0.930 . S
C539 C540 1.355 . S
C539 C541 1.415 . S
C540 C539 1.355 . S
C540 C542 1.419 . S
C541 C536 1.425 . S
C541 C538 1.409 . S
C541 C539 1.415 . S
C542 H532 0.930 . S
C542 C540 1.419 . S
C542 C543 1.362 . S
C543 H533 0.930 . S
C543 C536 1.409 . S
C543 C542 1.362 . S
H544 C550 0.923 1_545 S
H545 C553 0.930 . S
H546 C554 0.930 . S
H547 C555 0.930 . S
H548 C558 0.930 . S
H549 C559 0.930 . S
C550 H544 0.923 1_565 S
C550 C551 1.352 1_565 S
C550 C552 1.423 . S
C551 C550 1.352 1_545 S
C551 C553 1.419 1_545 S
C552 C550 1.423 . S
C552 C557 1.425 . S
C552 C559 1.409 . S
C553 H545 0.930 . S
C553 C551 1.419 1_565 S
C553 C554 1.362 . S
C554 H546 0.930 . S
C554 C553 1.362 . S
C554 C557 1.409 . S
C555 H547 0.930 . S
C555 C556 1.355 . S
C555 C557 1.415 . S
C556 C555 1.355 . S
C556 C558 1.419 . S
C557 C552 1.425 . S
C557 C554 1.409 . S
C557 C555 1.415 . S
C558 H548 0.930 . S
C558 C556 1.419 . S
C558 C559 1.362 . S
C559 H549 0.930 . S
C559 C552 1.409 . S
C559 C558 1.362 . S
H560 C566 0.930 . S
H561 C569 0.930 . S
H562 C570 0.930 . S
H563 C571 0.930 . S
H564 C574 0.930 . S
H565 C575 0.930 . S
C566 H560 0.930 . S
C566 C567 1.355 . S
C566 C568 1.415 . S
C567 C566 1.355 . S
C567 C569 1.419 . S
C568 C566 1.415 . S
C568 C573 1.425 . S
C568 C575 1.409 . S
C569 H561 0.930 . S
C569 C567 1.419 . S
C569 C570 1.362 . S
C570 H562 0.930 . S
C570 C569 1.362 . S
C570 C573 1.409 . S
C571 H563 0.930 . S
C571 C572 1.355 . S
C571 C573 1.415 . S
C572 C571 1.355 . S
C572 C574 1.419 . S
C573 C568 1.425 . S
C573 C570 1.409 . S
C573 C571 1.415 . S
C574 H564 0.930 . S
C574 C572 1.419 . S
C574 C575 1.362 . S
C575 H565 0.930 . S
C575 C568 1.409 . S
C575 C574 1.362 . S
H576 C582 0.930 . S
H577 C585 0.930 . S
H578 C586 0.930 . S
H579 C587 0.930 . S
H580 C590 0.930 . S
H581 C591 0.930 . S
C582 H576 0.930 . S
C582 C583 1.355 . S
C582 C584 1.415 . S
C583 C582 1.355 . S
C583 C585 1.419 . S
C584 C582 1.415 . S
C584 C589 1.425 . S
C584 C591 1.409 . S
C585 H577 0.930 . S
C585 C583 1.419 . S
C585 C586 1.362 . S
C586 H578 0.930 . S
C586 C585 1.362 . S
C586 C589 1.409 . S
C587 H579 0.930 . S
C587 C588 1.355 . S
C587 C589 1.415 . S
C588 C587 1.355 . S
C588 C590 1.419 . S
C589 C584 1.425 . S
C589 C586 1.409 . S
C589 C587 1.415 . S
C590 H580 0.930 . S
C590 C588 1.419 . S
C590 C591 1.362 . S
C591 H581 0.930 . S
C591 C584 1.409 . S
C591 C590 1.362 . S
H592 C598 0.930 . S
H593 C601 0.930 . S
H594 C602 0.930 . S
H595 C603 0.930 1_455 S
H596 C606 0.930 . S
H597 C607 0.930 . S
C598 H592 0.930 . S
C598 C599 1.355 . S
C598 C600 1.415 . S
C599 C598 1.355 . S
C599 C601 1.419 . S
C600 C598 1.415 . S
C600 C605 1.425 . S
C600 C607 1.409 . S
C601 H593 0.930 . S
C601 C599 1.419 . S
C601 C602 1.362 . S
C602 H594 0.930 . S
C602 C601 1.362 . S
C602 C605 1.409 . S
C603 H595 0.930 1_655 S
C603 C604 1.355 . S
C603 C605 1.415 . S
C604 C603 1.355 . S
C604 C606 1.419 . S
C605 C600 1.425 . S
C605 C602 1.409 . S
C605 C603 1.415 . S
C606 H596 0.930 . S
C606 C604 1.419 . S
C606 C607 1.362 . S
C607 H597 0.930 . S
C607 C600 1.409 . S
C607 C606 1.362 . S
H608 C614 0.930 . S
H609 C617 0.930 . S
H610 C618 0.930 . S
H611 C619 0.930 . S
H612 C622 0.930 . S
H613 C623 0.930 . S
C614 H608 0.930 . S
C614 C615 1.355 1_565 S
C614 C616 1.415 . S
C615 C614 1.355 1_545 S
C615 C617 1.419 . S
C616 C614 1.415 . S
C616 C621 1.425 1_565 S
C616 C623 1.409 . S
C617 H609 0.930 . S
C617 C615 1.419 . S
C617 C618 1.362 . S
C618 H610 0.930 . S
C618 C617 1.362 . S
C618 C621 1.409 . S
C619 H611 0.930 . S
C619 C620 1.355 . S
C619 C621 1.415 . S
C620 C619 1.355 . S
C620 C622 1.419 1_545 S
C621 C616 1.425 1_545 S
C621 C618 1.409 . S
C621 C619 1.415 . S
C622 H612 0.930 . S
C622 C620 1.419 1_565 S
C622 C623 1.362 . S
C623 H613 0.930 . S
C623 C616 1.409 . S
C623 C622 1.362 . S
H624 C630 0.930 . S
H625 C633 0.930 . S
H626 C634 0.930 . S
H627 C635 0.930 . S
H628 C638 0.930 . S
H629 C639 0.930 . S
C630 H624 0.930 . S
C630 C631 1.355 . S
C630 C632 1.415 . S
C631 C630 1.355 . S
C631 C633 1.419 . S
C632 C630 1.415 . S
C632 C637 1.425 . S
C632 C639 1.409 . S
C633 H625 0.930 . S
C633 C631 1.419 . S
C633 C634 1.362 . S
C634 H626 0.930 . S
C634 C633 1.362 . S
C634 C637 1.409 . S
C635 H627 0.930 . S
C635 C636 1.355 . S
C635 C637 1.415 . S
C636 C635 1.355 . S
C636 C638 1.419 . S
C637 C632 1.425 . S
C637 C634 1.409 . S
C637 C635 1.415 . S
C638 H628 0.930 . S
C638 C636 1.419 . S
C638 C639 1.362 . S
C639 H629 0.930 . S
C639 C632 1.409 . S
C639 C638 1.362 . S
H640 C646 0.930 . S
H641 C649 0.930 . S
H642 C650 0.930 . S
H643 C651 0.930 . S
H644 C654 0.930 . S
H645 C655 0.930 . S
C646 H640 0.930 . S
C646 C647 1.355 . S
C646 C648 1.415 . S
C647 C646 1.355 . S
C647 C649 1.419 . S
C648 C646 1.415 . S
C648 C653 1.425 . S
C648 C655 1.409 . S
C649 H641 0.930 . S
C649 C647 1.419 . S
C649 C650 1.362 . S
C650 H642 0.930 . S
C650 C649 1.362 . S
C650 C653 1.409 . S
C651 H643 0.930 . S
C651 C652 1.355 . S
C651 C653 1.415 . S
C652 C651 1.355 . S
C652 C654 1.419 . S
C653 C648 1.425 . S
C653 C650 1.409 . S
C653 C651 1.415 . S
C654 H644 0.930 . S
C654 C652 1.419 . S
C654 C655 1.362 . S
C655 H645 0.930 . S
C655 C648 1.409 . S
C655 C654 1.362 . S
H656 C662 0.930 . S
H657 C665 0.930 . S
H658 C666 0.930 . S
H659 C667 0.930 . S
H660 C670 0.930 . S
H661 C671 0.930 . S
C662 H656 0.930 . S
C662 C663 1.355 . S
C662 C664 1.415 . S
C663 C662 1.355 . S
C663 C665 1.419 . S
C664 C662 1.415 . S
C664 C669 1.425 . S
C664 C671 1.409 . S
C665 H657 0.930 . S
C665 C663 1.419 . S
C665 C666 1.362 . S
C666 H658 0.930 . S
C666 C665 1.362 . S
C666 C669 1.409 . S
C667 H659 0.930 . S
C667 C668 1.355 . S
C667 C669 1.415 . S
C668 C667 1.355 . S
C668 C670 1.419 . S
C669 C664 1.425 . S
C669 C666 1.409 . S
C669 C667 1.415 . S
C670 H660 0.930 . S
C670 C668 1.419 . S
C670 C671 1.362 . S
C671 H661 0.930 . S
C671 C664 1.409 . S
C671 C670 1.362 . S
H672 C678 0.930 . S
H673 C681 0.930 . S
H674 C682 0.930 . S
H675 C683 0.930 . S
H676 C686 0.930 . S
H677 C687 0.930 . S
C678 H672 0.930 . S
C678 C679 1.339 1_545 S
C678 C680 1.415 . S
C679 C678 1.339 1_565 S
C679 C681 1.442 . S
C680 C678 1.415 . S
C680 C685 1.425 1_545 S
C680 C687 1.409 . S
C681 H673 0.930 . S
C681 C679 1.442 . S
C681 C682 1.362 . S
C682 H674 0.930 . S
C682 C681 1.362 . S
C682 C685 1.409 . S
C683 H675 0.930 . S
C683 C684 1.355 1_565 S
C683 C685 1.415 . S
C684 C683 1.355 1_545 S
C684 C686 1.419 . S
C685 C680 1.425 1_565 S
C685 C682 1.409 . S
C685 C683 1.415 . S
C686 H676 0.930 . S
C686 C684 1.419 . S
C686 C687 1.362 . S
C687 H677 0.930 . S
C687 C680 1.409 . S
C687 C686 1.362 . S
H688 C694 0.930 . S
H689 C697 0.930 . S
H690 C698 0.930 . S
H691 C699 0.930 . S
H692 C702 0.930 . S
H693 C703 0.930 . S
C694 H688 0.930 . S
C694 C695 1.355 . S
C694 C696 1.415 . S
C695 C694 1.355 . S
C695 C697 1.419 . S
C696 C694 1.415 . S
C696 C701 1.425 . S
C696 C703 1.409 . S
C697 H689 0.930 . S
C697 C695 1.419 . S
C697 C698 1.362 . S
C698 H690 0.930 . S
C698 C697 1.362 . S
C698 C701 1.409 . S
C699 H691 0.930 . S
C699 C700 1.355 . S
C699 C701 1.415 . S
C700 C699 1.355 . S
C700 C702 1.419 . S
C701 C696 1.425 . S
C701 C698 1.409 . S
C701 C699 1.415 . S
C702 H692 0.930 . S
C702 C700 1.419 . S
C702 C703 1.362 . S
C703 H693 0.930 . S
C703 C696 1.409 . S
C703 C702 1.362 . S
H704 C710 0.930 . S
H705 C713 0.930 . S
H706 C714 0.930 . S
H707 C715 0.930 . S
H708 C718 0.930 . S
H709 C719 0.930 . S
C710 H704 0.930 . S
C710 C711 1.355 . S
C710 C712 1.415 . S
C711 C710 1.355 . S
C711 C713 1.419 . S
C712 C710 1.415 . S
C712 C717 1.425 . S
C712 C719 1.409 . S
C713 H705 0.930 . S
C713 C711 1.419 . S
C713 C714 1.362 . S
C714 H706 0.930 . S
C714 C713 1.362 . S
C714 C717 1.409 . S
C715 H707 0.930 . S
C715 C716 1.355 . S
C715 C717 1.415 . S
C716 C715 1.355 . S
C716 C718 1.419 . S
C717 C712 1.425 . S
C717 C714 1.409 . S
C717 C715 1.415 . S
C718 H708 0.930 . S
C718 C716 1.419 . S
C718 C719 1.362 . S
C719 H709 0.930 . S
C719 C712 1.409 . S
C719 C718 1.362 . S
H720 C726 0.930 . S
H721 C729 0.930 . S
H722 C730 0.930 . S
H723 C731 0.930 . S
H724 C734 0.930 . S
H725 C735 0.930 . S
C726 H720 0.930 . S
C726 C727 1.355 . S
C726 C728 1.415 . S
C727 C726 1.355 . S
C727 C729 1.419 . S
C728 C726 1.415 . S
C728 C733 1.425 . S
C728 C735 1.409 . S
C729 H721 0.930 . S
C729 C727 1.419 . S
C729 C730 1.362 . S
C730 H722 0.930 . S
C730 C729 1.362 . S
C730 C733 1.409 . S
C731 H723 0.930 . S
C731 C732 1.355 . S
C731 C733 1.415 . S
C732 C731 1.355 . S
C732 C734 1.419 . S
C733 C728 1.425 . S
C733 C730 1.409 . S
C733 C731 1.415 . S
C734 H724 0.930 . S
C734 C732 1.419 . S
C734 C735 1.362 . S
C735 H725 0.930 . S
C735 C728 1.409 . S
C735 C734 1.362 . S
H736 C742 0.930 . S
H737 C745 0.930 . S
H738 C746 0.930 . S
H739 C747 0.930 . S
H740 C750 0.930 . S
H741 C751 0.930 . S
C742 H736 0.930 . S
C742 C743 1.355 1_545 S
C742 C744 1.415 . S
C743 C742 1.355 1_565 S
C743 C745 1.419 . S
C744 C742 1.415 . S
C744 C749 1.425 1_545 S
C744 C751 1.409 . S
C745 H737 0.930 . S
C745 C743 1.419 . S
C745 C746 1.362 . S
C746 H738 0.930 . S
C746 C745 1.362 . S
C746 C749 1.409 . S
C747 H739 0.930 . S
C747 C748 1.355 . S
C747 C749 1.415 . S
C748 C747 1.355 . S
C748 C750 1.419 1_565 S
C749 C744 1.425 1_565 S
C749 C746 1.409 . S
C749 C747 1.415 . S
C750 H740 0.930 . S
C750 C748 1.419 1_545 S
C750 C751 1.362 . S
C751 H741 0.930 . S
C751 C744 1.409 . S
C751 C750 1.362 . S
H752 C758 0.930 . S
H753 C761 0.930 . S
H754 C762 0.930 . S
H755 C763 0.930 . S
H756 C766 0.930 . S
H757 C767 0.930 . S
C758 H752 0.930 . S
C758 C759 1.355 . S
C758 C760 1.415 . S
C759 C758 1.355 . S
C759 C761 1.419 . S
C760 C758 1.415 . S
C760 C765 1.425 . S
C760 C767 1.409 . S
C761 H753 0.930 . S
C761 C759 1.419 . S
C761 C762 1.362 . S
C762 H754 0.930 . S
C762 C761 1.362 . S
C762 C765 1.409 . S
C763 H755 0.930 . S
C763 C764 1.355 . S
C763 C765 1.415 . S
C764 C763 1.355 . S
C764 C766 1.419 . S
C765 C760 1.425 . S
C765 C762 1.409 . S
C765 C763 1.415 . S
C766 H756 0.930 . S
C766 C764 1.419 . S
C766 C767 1.362 . S
C767 H757 0.930 . S
C767 C760 1.409 . S
C767 C766 1.362 . S
H768 C774 0.930 . S
H769 C777 0.930 . S
H770 C778 0.930 . S
H771 C779 0.930 . S
H772 C782 0.930 . S
H773 C783 0.930 . S
C774 H768 0.930 . S
C774 C775 1.355 . S
C774 C776 1.415 . S
C775 C774 1.355 . S
C775 C777 1.419 . S
C776 C774 1.415 . S
C776 C781 1.425 . S
C776 C783 1.409 . S
C777 H769 0.930 . S
C777 C775 1.419 . S
C777 C778 1.362 . S
C778 H770 0.930 . S
C778 C777 1.362 . S
C778 C781 1.409 . S
C779 H771 0.930 . S
C779 C780 1.355 . S
C779 C781 1.415 . S
C780 C779 1.355 . S
C780 C782 1.419 . S
C781 C776 1.425 . S
C781 C778 1.409 . S
C781 C779 1.415 . S
C782 H772 0.930 . S
C782 C780 1.419 . S
C782 C783 1.362 . S
C783 H773 0.930 . S
C783 C776 1.409 . S
C783 C782 1.362 . S
C407 C255 1.860 1_565 S
C412 C328 1.940 . S
C428 C358 2.614 . S
C423 C295 2.492 . S
C444 C368 2.080 . S
C439 C175 1.958 . S
C460 C388 1.992 . S
C455 C215 1.827 . S
C476 C329 1.916 . S
C471 C95 1.785 1_565 S
C487 C135 2.456 . S
C492 C359 2.621 . S
C503 C15 1.949 . S
C508 C369 2.042 . S
C519 C55 1.802 . S
C524 C389 1.990 . S
C540 C321 1.085 . S
C535 C221 0.995 . S
C556 C342 0.596 . S
C551 C261 0.669 . S
C572 C361 1.376 . S
C567 C301 1.303 . S
C583 C181 0.707 . S
C588 C381 0.720 . S
C599 C61 0.844 . S
C604 C322 1.023 1_655 S
C620 C341 0.510 . S
C615 C101 0.528 . S
C636 C362 1.315 . S
C631 C141 1.109 . S
C647 C21 0.687 . S
C652 C382 0.722 . S
C663 C202 2.595 . S
C668 C339 2.784 . S
C679 C242 2.149 1_565 S
C684 C349 2.368 . S
C700 C379 3.054 . S
C695 C282 2.825 . S
C716 C399 2.861 . S
C711 C162 2.576 . S
C727 C42 2.491 . S
C732 C338 2.770 . S
C748 C348 2.360 . S
C743 C82 2.100 1_565 S
C764 C378 3.045 . S
C759 C122 2.743 . S
C775 C2 2.667 . S
C780 C398 2.858 . S
