# Generated by pormake.
# Topology gar, (4,6)-cn, num edge types: 1
# Building blocks:
#     Node 0, Type 0, BuildingBlock: AZAVOO_clean_sbu_0, # of connection points: 4
#     Node 1, Type 0, BuildingBlock: AZAVOO_clean_sbu_0, # of connection points: 4
#     Node 2, Type 0, BuildingBlock: AZAVOO_clean_sbu_0, # of connection points: 4
#     Node 3, Type 0, BuildingBlock: AZAVOO_clean_sbu_0, # of connection points: 4
#     Node 4, Type 0, BuildingBlock: AZAVOO_clean_sbu_0, # of connection points: 4
#     Node 5, Type 0, BuildingBlock: AZAVOO_clean_sbu_0, # of connection points: 4
#     Node 6, Type 0, BuildingBlock: AZAVOO_clean_sbu_0, # of connection points: 4
#     Node 7, Type 0, BuildingBlock: AZAVOO_clean_sbu_0, # of connection points: 4
#     Node 8, Type 0, BuildingBlock: AZAVOO_clean_sbu_0, # of connection points: 4
#     Node 9, Type 0, BuildingBlock: AZAVOO_clean_sbu_0, # of connection points: 4
#     Node 10, Type 0, BuildingBlock: AZAVOO_clean_sbu_0, # of connection points: 4
#     Node 11, Type 0, BuildingBlock: AZAVOO_clean_sbu_0, # of connection points: 4
#     Node 12, Type 0, BuildingBlock: AZAVOO_clean_sbu_0, # of connection points: 4
#     Node 13, Type 0, BuildingBlock: AZAVOO_clean_sbu_0, # of connection points: 4
#     Node 14, Type 0, BuildingBlock: AZAVOO_clean_sbu_0, # of connection points: 4
#     Node 15, Type 0, BuildingBlock: AZAVOO_clean_sbu_0, # of connection points: 4
#     Node 16, Type 0, BuildingBlock: AZAVOO_clean_sbu_0, # of connection points: 4
#     Node 17, Type 0, BuildingBlock: AZAVOO_clean_sbu_0, # of connection points: 4
#     Node 18, Type 0, BuildingBlock: AZAVOO_clean_sbu_0, # of connection points: 4
#     Node 19, Type 0, BuildingBlock: AZAVOO_clean_sbu_0, # of connection points: 4
#     Node 20, Type 0, BuildingBlock: AZAVOO_clean_sbu_0, # of connection points: 4
#     Node 21, Type 0, BuildingBlock: AZAVOO_clean_sbu_0, # of connection points: 4
#     Node 22, Type 0, BuildingBlock: AZAVOO_clean_sbu_0, # of connection points: 4
#     Node 23, Type 0, BuildingBlock: AZAVOO_clean_sbu_0, # of connection points: 4
#     Node 24, Type 1, BuildingBlock: CUWYAW_clean_sbu_0, # of connection points: 6
#     Node 25, Type 1, BuildingBlock: CUWYAW_clean_sbu_0, # of connection points: 6
#     Node 26, Type 1, BuildingBlock: CUWYAW_clean_sbu_0, # of connection points: 6
#     Node 27, Type 1, BuildingBlock: CUWYAW_clean_sbu_0, # of connection points: 6
#     Node 28, Type 1, BuildingBlock: CUWYAW_clean_sbu_0, # of connection points: 6
#     Node 29, Type 1, BuildingBlock: CUWYAW_clean_sbu_0, # of connection points: 6
#     Node 30, Type 1, BuildingBlock: CUWYAW_clean_sbu_0, # of connection points: 6
#     Node 31, Type 1, BuildingBlock: CUWYAW_clean_sbu_0, # of connection points: 6
#     Node 32, Type 1, BuildingBlock: CUWYAW_clean_sbu_0, # of connection points: 6
#     Node 33, Type 1, BuildingBlock: CUWYAW_clean_sbu_0, # of connection points: 6
#     Node 34, Type 1, BuildingBlock: CUWYAW_clean_sbu_0, # of connection points: 6
#     Node 35, Type 1, BuildingBlock: CUWYAW_clean_sbu_0, # of connection points: 6
#     Node 36, Type 1, BuildingBlock: CUWYAW_clean_sbu_0, # of connection points: 6
#     Node 37, Type 1, BuildingBlock: CUWYAW_clean_sbu_0, # of connection points: 6
#     Node 38, Type 1, BuildingBlock: CUWYAW_clean_sbu_0, # of connection points: 6
#     Node 39, Type 1, BuildingBlock: CUWYAW_clean_sbu_0, # of connection points: 6
#     Edge 40, Type (0, 1), BuildingBlock: ZUJKAS_clean_linker_0, # of connection points: 2
#     Edge 41, Type (0, 1), BuildingBlock: ZUJKAS_clean_linker_0, # of connection points: 2
#     Edge 42, Type (0, 1), BuildingBlock: ZUJKAS_clean_linker_0, # of connection points: 2
#     Edge 43, Type (0, 1), BuildingBlock: ZUJKAS_clean_linker_0, # of connection points: 2
#     Edge 44, Type (0, 1), BuildingBlock: ZUJKAS_clean_linker_0, # of connection points: 2
#     Edge 45, Type (0, 1), BuildingBlock: ZUJKAS_clean_linker_0, # of connection points: 2
#     Edge 46, Type (0, 1), BuildingBlock: ZUJKAS_clean_linker_0, # of connection points: 2
#     Edge 47, Type (0, 1), BuildingBlock: ZUJKAS_clean_linker_0, # of connection points: 2
#     Edge 48, Type (0, 1), BuildingBlock: ZUJKAS_clean_linker_0, # of connection points: 2
#     Edge 49, Type (0, 1), BuildingBlock: ZUJKAS_clean_linker_0, # of connection points: 2
#     Edge 50, Type (0, 1), BuildingBlock: ZUJKAS_clean_linker_0, # of connection points: 2
#     Edge 51, Type (0, 1), BuildingBlock: ZUJKAS_clean_linker_0, # of connection points: 2
#     Edge 52, Type (0, 1), BuildingBlock: ZUJKAS_clean_linker_0, # of connection points: 2
#     Edge 53, Type (0, 1), BuildingBlock: ZUJKAS_clean_linker_0, # of connection points: 2
#     Edge 54, Type (0, 1), BuildingBlock: ZUJKAS_clean_linker_0, # of connection points: 2
#     Edge 55, Type (0, 1), BuildingBlock: ZUJKAS_clean_linker_0, # of connection points: 2
#     Edge 56, Type (0, 1), BuildingBlock: ZUJKAS_clean_linker_0, # of connection points: 2
#     Edge 57, Type (0, 1), BuildingBlock: ZUJKAS_clean_linker_0, # of connection points: 2
#     Edge 58, Type (0, 1), BuildingBlock: ZUJKAS_clean_linker_0, # of connection points: 2
#     Edge 59, Type (0, 1), BuildingBlock: ZUJKAS_clean_linker_0, # of connection points: 2
#     Edge 60, Type (0, 1), BuildingBlock: ZUJKAS_clean_linker_0, # of connection points: 2
#     Edge 61, Type (0, 1), BuildingBlock: ZUJKAS_clean_linker_0, # of connection points: 2
#     Edge 62, Type (0, 1), BuildingBlock: ZUJKAS_clean_linker_0, # of connection points: 2
#     Edge 63, Type (0, 1), BuildingBlock: ZUJKAS_clean_linker_0, # of connection points: 2
#     Edge 64, Type (0, 1), BuildingBlock: ZUJKAS_clean_linker_0, # of connection points: 2
#     Edge 65, Type (0, 1), BuildingBlock: ZUJKAS_clean_linker_0, # of connection points: 2
#     Edge 66, Type (0, 1), BuildingBlock: ZUJKAS_clean_linker_0, # of connection points: 2
#     Edge 67, Type (0, 1), BuildingBlock: ZUJKAS_clean_linker_0, # of connection points: 2
#     Edge 68, Type (0, 1), BuildingBlock: ZUJKAS_clean_linker_0, # of connection points: 2
#     Edge 69, Type (0, 1), BuildingBlock: ZUJKAS_clean_linker_0, # of connection points: 2
#     Edge 70, Type (0, 1), BuildingBlock: ZUJKAS_clean_linker_0, # of connection points: 2
#     Edge 71, Type (0, 1), BuildingBlock: ZUJKAS_clean_linker_0, # of connection points: 2
#     Edge 72, Type (0, 1), BuildingBlock: ZUJKAS_clean_linker_0, # of connection points: 2
#     Edge 73, Type (0, 1), BuildingBlock: ZUJKAS_clean_linker_0, # of connection points: 2
#     Edge 74, Type (0, 1), BuildingBlock: ZUJKAS_clean_linker_0, # of connection points: 2
#     Edge 75, Type (0, 1), BuildingBlock: ZUJKAS_clean_linker_0, # of connection points: 2
#     Edge 76, Type (0, 1), BuildingBlock: ZUJKAS_clean_linker_0, # of connection points: 2
#     Edge 77, Type (0, 1), BuildingBlock: ZUJKAS_clean_linker_0, # of connection points: 2
#     Edge 78, Type (0, 1), BuildingBlock: ZUJKAS_clean_linker_0, # of connection points: 2
#     Edge 79, Type (0, 1), BuildingBlock: ZUJKAS_clean_linker_0, # of connection points: 2
#     Edge 80, Type (0, 1), BuildingBlock: ZUJKAS_clean_linker_0, # of connection points: 2
#     Edge 81, Type (0, 1), BuildingBlock: ZUJKAS_clean_linker_0, # of connection points: 2
#     Edge 82, Type (0, 1), BuildingBlock: ZUJKAS_clean_linker_0, # of connection points: 2
#     Edge 83, Type (0, 1), BuildingBlock: ZUJKAS_clean_linker_0, # of connection points: 2
#     Edge 84, Type (0, 1), BuildingBlock: ZUJKAS_clean_linker_0, # of connection points: 2
#     Edge 85, Type (0, 1), BuildingBlock: ZUJKAS_clean_linker_0, # of connection points: 2
#     Edge 86, Type (0, 1), BuildingBlock: ZUJKAS_clean_linker_0, # of connection points: 2
#     Edge 87, Type (0, 1), BuildingBlock: ZUJKAS_clean_linker_0, # of connection points: 2
#     Edge 88, Type (0, 1), BuildingBlock: ZUJKAS_clean_linker_0, # of connection points: 2
#     Edge 89, Type (0, 1), BuildingBlock: ZUJKAS_clean_linker_0, # of connection points: 2
#     Edge 90, Type (0, 1), BuildingBlock: ZUJKAS_clean_linker_0, # of connection points: 2
#     Edge 91, Type (0, 1), BuildingBlock: ZUJKAS_clean_linker_0, # of connection points: 2
#     Edge 92, Type (0, 1), BuildingBlock: ZUJKAS_clean_linker_0, # of connection points: 2
#     Edge 93, Type (0, 1), BuildingBlock: ZUJKAS_clean_linker_0, # of connection points: 2
#     Edge 94, Type (0, 1), BuildingBlock: ZUJKAS_clean_linker_0, # of connection points: 2
#     Edge 95, Type (0, 1), BuildingBlock: ZUJKAS_clean_linker_0, # of connection points: 2
#     Edge 96, Type (0, 1), BuildingBlock: ZUJKAS_clean_linker_0, # of connection points: 2
#     Edge 97, Type (0, 1), BuildingBlock: ZUJKAS_clean_linker_0, # of connection points: 2
#     Edge 98, Type (0, 1), BuildingBlock: ZUJKAS_clean_linker_0, # of connection points: 2
#     Edge 99, Type (0, 1), BuildingBlock: ZUJKAS_clean_linker_0, # of connection points: 2
#     Edge 100, Type (0, 1), BuildingBlock: ZUJKAS_clean_linker_0, # of connection points: 2
#     Edge 101, Type (0, 1), BuildingBlock: ZUJKAS_clean_linker_0, # of connection points: 2
#     Edge 102, Type (0, 1), BuildingBlock: ZUJKAS_clean_linker_0, # of connection points: 2
#     Edge 103, Type (0, 1), BuildingBlock: ZUJKAS_clean_linker_0, # of connection points: 2
#     Edge 104, Type (0, 1), BuildingBlock: ZUJKAS_clean_linker_0, # of connection points: 2
#     Edge 105, Type (0, 1), BuildingBlock: ZUJKAS_clean_linker_0, # of connection points: 2
#     Edge 106, Type (0, 1), BuildingBlock: ZUJKAS_clean_linker_0, # of connection points: 2
#     Edge 107, Type (0, 1), BuildingBlock: ZUJKAS_clean_linker_0, # of connection points: 2
#     Edge 108, Type (0, 1), BuildingBlock: ZUJKAS_clean_linker_0, # of connection points: 2
#     Edge 109, Type (0, 1), BuildingBlock: ZUJKAS_clean_linker_0, # of connection points: 2
#     Edge 110, Type (0, 1), BuildingBlock: ZUJKAS_clean_linker_0, # of connection points: 2
#     Edge 111, Type (0, 1), BuildingBlock: ZUJKAS_clean_linker_0, # of connection points: 2
#     Edge 112, Type (0, 1), BuildingBlock: ZUJKAS_clean_linker_0, # of connection points: 2
#     Edge 113, Type (0, 1), BuildingBlock: ZUJKAS_clean_linker_0, # of connection points: 2
#     Edge 114, Type (0, 1), BuildingBlock: ZUJKAS_clean_linker_0, # of connection points: 2
#     Edge 115, Type (0, 1), BuildingBlock: ZUJKAS_clean_linker_0, # of connection points: 2
#     Edge 116, Type (0, 1), BuildingBlock: ZUJKAS_clean_linker_0, # of connection points: 2
#     Edge 117, Type (0, 1), BuildingBlock: ZUJKAS_clean_linker_0, # of connection points: 2
#     Edge 118, Type (0, 1), BuildingBlock: ZUJKAS_clean_linker_0, # of connection points: 2
#     Edge 119, Type (0, 1), BuildingBlock: ZUJKAS_clean_linker_0, # of connection points: 2
#     Edge 120, Type (0, 1), BuildingBlock: ZUJKAS_clean_linker_0, # of connection points: 2
#     Edge 121, Type (0, 1), BuildingBlock: ZUJKAS_clean_linker_0, # of connection points: 2
#     Edge 122, Type (0, 1), BuildingBlock: ZUJKAS_clean_linker_0, # of connection points: 2
#     Edge 123, Type (0, 1), BuildingBlock: ZUJKAS_clean_linker_0, # of connection points: 2
#     Edge 124, Type (0, 1), BuildingBlock: ZUJKAS_clean_linker_0, # of connection points: 2
#     Edge 125, Type (0, 1), BuildingBlock: ZUJKAS_clean_linker_0, # of connection points: 2
#     Edge 126, Type (0, 1), BuildingBlock: ZUJKAS_clean_linker_0, # of connection points: 2
#     Edge 127, Type (0, 1), BuildingBlock: ZUJKAS_clean_linker_0, # of connection points: 2
#     Edge 128, Type (0, 1), BuildingBlock: ZUJKAS_clean_linker_0, # of connection points: 2
#     Edge 129, Type (0, 1), BuildingBlock: ZUJKAS_clean_linker_0, # of connection points: 2
#     Edge 130, Type (0, 1), BuildingBlock: ZUJKAS_clean_linker_0, # of connection points: 2
#     Edge 131, Type (0, 1), BuildingBlock: ZUJKAS_clean_linker_0, # of connection points: 2
#     Edge 132, Type (0, 1), BuildingBlock: ZUJKAS_clean_linker_0, # of connection points: 2
#     Edge 133, Type (0, 1), BuildingBlock: ZUJKAS_clean_linker_0, # of connection points: 2
#     Edge 134, Type (0, 1), BuildingBlock: ZUJKAS_clean_linker_0, # of connection points: 2
#     Edge 135, Type (0, 1), BuildingBlock: ZUJKAS_clean_linker_0, # of connection points: 2
# Relax obj value: 0.191
# Max RMSD: 0.270
# Mean RMSD: 0.175
data_MOF--net-gar--node1-AZAVOO_clean_sbu_0--node2-CUWYAW_clean_sbu_0--edge1-ZUJKAS_clean_linker_0
_symmetry_space_group_name_H-M    P1
_symmetry_Int_Tables_number       1
_symmetry_cell_setting            triclinic
loop_
_symmetry_equiv_pos_as_xyz
'x, y, z'
_cell_length_a     82.041911
_cell_length_b     69.963817
_cell_length_c     71.188771
_cell_angle_alpha  100.03194
_cell_angle_beta   95.293074
_cell_angle_gamma 99.289238
loop_
_atom_site_label
_atom_site_type_symbol
_atom_site_fract_x
_atom_site_fract_y
_atom_site_fract_z
_atom_type_partial_charge
Mg0 Mg 0.02978 0.28213 0.39636 0.0
O1 O 0.02808 0.31408 0.40819 0.0
O2 O 1.00168 0.31655 0.41163 0.0
Mg3 Mg 0.98654 0.28554 0.40294 0.0
C4 C 0.01703 0.32425 0.41295 0.0
C5 C 0.06534 0.30499 0.39822 0.0
O6 O 0.05677 0.31692 0.39104 0.0
O7 O 0.02744 0.27616 0.42574 0.0
O8 O 1.00091 0.27836 0.42921 0.0
O9 O 0.02476 0.28637 0.36667 0.0
O10 O 1.00533 0.27692 0.38457 0.0
C11 C 0.01526 0.27566 0.4356 0.0
C12 C 0.00916 0.28209 0.36879 0.0
O13 O 0.05766 0.28944 0.4026 0.0
Mg14 Mg 0.03128 0.77799 0.69103 0.0
O15 O 0.02391 0.75165 0.66651 0.0
O16 O 0.99857 0.75109 0.65162 0.0
Mg17 Mg 0.98851 0.77774 0.66624 0.0
C18 C 0.01181 0.74383 0.65348 0.0
C19 C 0.04251 0.74518 0.71279 0.0
O20 O 0.04128 0.7317 0.72358 0.0
O21 O 0.03441 0.79785 0.66945 0.0
O22 O 0.00884 0.79742 0.65519 0.0
O23 O 0.01625 0.76238 0.71126 0.0
O24 O 1.00523 0.7792 0.69252 0.0
C25 C 0.02458 0.80325 0.65732 0.0
C26 C 1.00325 0.76833 0.7049 0.0
O27 O 0.0314 0.756 0.71225 0.0
Mg28 Mg 0.5298 0.77627 0.89642 0.0
O29 O 0.52554 0.80634 0.91152 0.0
O30 O 0.49825 0.80661 0.91008 0.0
Mg31 Mg 0.48503 0.77562 0.89618 0.0
C32 C 0.51338 0.81511 0.91511 0.0
C33 C 0.56537 0.80113 0.90604 0.0
O34 O 0.55744 0.81428 0.90009 0.0
O35 O 0.52403 0.76514 0.92309 0.0
O36 O 0.49685 0.76626 0.92265 0.0
O37 O 0.52794 0.78593 0.86853 0.0
O38 O 0.50667 0.77127 0.8811 0.0
C39 C 0.51051 0.76314 0.93062 0.0
C40 C 0.51204 0.78021 0.86794 0.0
O41 O 0.55718 0.78442 0.90713 0.0
Mg42 Mg 0.51503 0.29983 0.15448 0.0
O43 O 0.53109 0.27562 0.14807 0.0
O44 O 0.50629 0.25778 0.14196 0.0
Mg45 Mg 0.47908 0.25582 0.14119 0.0
C46 C 0.5218 0.25884 0.14237 0.0
C47 C 0.55132 0.32788 0.15412 0.0
O48 O 0.55977 0.34405 0.15027 0.0
O49 O 0.50652 0.29454 0.12275 0.0
O50 O 0.4842 0.26987 0.11499 0.0
O51 O 0.51505 0.29697 0.18529 0.0
O52 O 0.49622 0.27976 0.16177 0.0
C53 C 0.495 0.28323 0.11069 0.0
C54 C 0.5017 0.28373 0.17973 0.0
O55 O 0.53554 0.32533 0.15204 0.0
Mg56 Mg 0.05348 0.81121 0.16323 0.0
O57 O 0.04939 0.78137 0.14189 0.0
O58 O 0.02416 0.77726 0.12538 0.0
Mg59 Mg 0.01188 0.8036 0.13524 0.0
C60 C 0.03776 0.77125 0.12913 0.0
C61 C 0.08459 0.79708 0.18095 0.0
O62 O 0.07209 0.78523 0.18552 0.0
O63 O 0.05801 0.82891 0.13896 0.0
O64 O 0.03187 0.8239 0.12437 0.0
O65 O 0.03991 0.79673 0.18492 0.0
O66 O 0.02767 0.80973 0.16279 0.0
C67 C 0.04721 0.83186 0.12606 0.0
C68 C 0.02636 0.80056 0.17681 0.0
O69 O 0.08136 0.80964 0.17079 0.0
Mg70 Mg 0.48917 0.74749 0.38956 0.0
O71 O 0.49161 0.77599 0.41231 0.0
O72 O 0.4689 0.77302 0.4274 0.0
Mg73 Mg 0.45244 0.74303 0.41542 0.0
C74 C 0.48274 0.78287 0.42479 0.0
C75 C 0.51973 0.75363 0.36751 0.0
O76 O 0.50725 0.74737 0.3537 0.0
O77 O 0.49573 0.72976 0.41237 0.0
O78 O 0.47258 0.72708 0.42678 0.0
O79 O 0.47465 0.7609 0.36868 0.0
O80 O 0.4631 0.74304 0.3882 0.0
C81 C 0.48714 0.72337 0.42481 0.0
C82 C 0.46134 0.75369 0.37538 0.0
O83 O 0.51662 0.75565 0.38486 0.0
Mg84 Mg 0.55409 0.31068 0.66377 0.0
O85 O 0.54948 0.28094 0.64234 0.0
O86 O 0.52408 0.2771 0.62631 0.0
Mg87 Mg 0.51219 0.30366 0.63667 0.0
C88 C 0.53767 0.27094 0.62975 0.0
C89 C 0.58731 0.31233 0.68865 0.0
O90 O 0.57723 0.31796 0.70097 0.0
O91 O 0.55845 0.32837 0.63943 0.0
O92 O 0.53212 0.32376 0.62556 0.0
O93 O 0.54081 0.29623 0.68564 0.0
O94 O 0.52839 0.3096 0.66392 0.0
C95 C 0.54747 0.33153 0.62686 0.0
C96 C 0.52723 0.30035 0.67791 0.0
O97 O 0.58182 0.30835 0.6708 0.0
Mg98 Mg 0.98862 0.24789 0.88863 0.0
O99 O 0.99132 0.27657 0.91112 0.0
O100 O 0.96895 0.27385 0.92682 0.0
Mg101 Mg 0.95188 0.24425 0.91453 0.0
C102 C 0.98277 0.28353 0.92392 0.0
C103 C 0.01941 0.25415 0.86669 0.0
O104 O 0.00698 0.2489 0.85274 0.0
O105 O 0.99496 0.23028 0.91176 0.0
O106 O 0.97149 0.22744 0.92549 0.0
O107 O 0.97428 0.26125 0.86746 0.0
O108 O 0.96255 0.24399 0.88729 0.0
C109 C 0.98605 0.22361 0.92382 0.0
C110 C 0.96091 0.25441 0.87426 0.0
O111 O 0.01617 0.25546 0.88396 0.0
Mg112 Mg 0.41549 0.05331 0.27775 0.0
O113 O 0.39553 0.02317 0.27467 0.0
O114 O 0.38339 0.02778 0.30155 0.0
Mg115 Mg 0.39426 0.0575 0.32164 0.0
C116 C 0.38496 0.01697 0.28562 0.0
C117 C 0.43739 0.05291 0.24228 0.0
O118 O 0.44797 0.06136 0.2576 0.0
O119 O 0.395 0.07374 0.27237 0.0
O120 O 0.38473 0.07625 0.30049 0.0
O121 O 0.43522 0.04079 0.29492 0.0
O122 O 0.41771 0.05684 0.30901 0.0
C123 C 0.38544 0.08112 0.28403 0.0
C124 C 0.42986 0.04747 0.31083 0.0
O125 O 0.42216 0.04731 0.24488 0.0
Mg126 Mg 0.25645 0.15141 0.49608 0.0
O127 O 0.2602 0.1731 0.52545 0.0
O128 O 0.28581 0.1909 0.52871 0.0
Mg129 Mg 0.29875 0.18134 0.50239 0.0
C130 C 0.27196 0.18641 0.53514 0.0
C131 C 0.22299 0.13109 0.50862 0.0
O132 O 0.23426 0.12441 0.51874 0.0
O133 O 0.25365 0.17582 0.47812 0.0
O134 O 0.28018 0.19117 0.48172 0.0
O135 O 0.26874 0.12949 0.50994 0.0
O136 O 0.28241 0.15242 0.49698 0.0
C137 C 0.26509 0.18876 0.4741 0.0
C138 C 0.28281 0.13803 0.50586 0.0
O139 O 0.22792 0.14319 0.49793 0.0
Mg140 Mg 0.14225 1.00564 0.78884 0.0
O141 O 0.16117 0.03611 0.79152 0.0
O142 O 0.17836 0.03961 0.81841 0.0
Mg143 Mg 0.16982 0.01392 0.83435 0.0
C144 C 0.17372 0.04593 0.80333 0.0
C145 C 0.1181 1.00292 0.74884 0.0
O146 O 0.10713 0.99855 0.76047 0.0
O147 O 0.16232 0.98421 0.78253 0.0
O148 O 0.17664 0.98904 0.81172 0.0
O149 O 0.12369 0.01996 0.80715 0.0
O150 O 0.14358 1.00774 0.82022 0.0
C151 C 0.17344 0.97971 0.79427 0.0
C152 C 0.13074 0.01592 0.82261 0.0
O153 O 0.13358 1.00633 0.75561 0.0
Mg154 Mg 0.25539 0.88795 0.02335 0.0
O155 O 0.26081 0.87637 0.99288 0.0
O156 O 0.28748 0.87303 0.99365 0.0
Mg157 Mg 0.29857 0.87997 0.02491 0.0
C158 C 0.27314 0.87191 0.98448 0.0
C159 C 0.22426 0.89161 0.99866 0.0
O160 O 0.23617 0.89805 0.98895 0.0
O161 O 0.25321 0.85689 0.02848 0.0
O162 O 0.27987 0.85321 0.02825 0.0
O163 O 0.26489 0.91867 0.02061 0.0
O164 O 0.28031 0.89884 0.0317 0.0
C165 C 0.26459 0.84651 0.02914 0.0
C166 C 0.27938 0.91542 0.02661 0.0
O167 O 0.22802 0.88425 0.01321 0.0
Mg168 Mg 0.30424 0.40908 0.05545 0.0
O169 O 0.3014 0.38629 0.027 0.0
O170 O 0.3235 0.37144 0.02809 0.0
Mg171 Mg 0.34024 0.38384 0.05658 0.0
C172 C 0.30992 0.37392 0.01935 0.0
C173 C 0.27232 0.42794 0.0591 0.0
O174 O 0.28283 0.4389 0.07345 0.0
O175 O 0.29704 0.38508 0.07349 0.0
O176 O 0.32028 0.37222 0.07443 0.0
O177 O 0.31992 0.43156 0.04217 0.0
O178 O 0.33039 0.41138 0.05831 0.0
C179 C 0.30586 0.37329 0.07949 0.0
C180 C 0.33288 0.42506 0.04843 0.0
O181 O 0.27705 0.41356 0.04877 0.0
Mg182 Mg 0.80524 0.1741 0.00807 0.0
O183 O 0.79853 0.18404 0.03847 0.0
O184 O 0.82229 0.19224 0.05859 0.0
Mg185 Mg 0.84393 0.18869 0.04153 0.0
C186 C 0.80648 0.19015 0.0553 0.0
C187 C 0.76507 0.16938 0.98906 0.0
O188 O 0.75548 0.17669 0.97741 0.0
O189 O 0.81458 0.2056 0.00778 0.0
O190 O 0.8378 0.21515 0.02877 0.0
O191 O 0.80382 0.14321 0.01214 0.0
O192 O 0.82629 0.1666 0.02002 0.0
C193 C 0.82675 0.21863 0.01664 0.0
C194 C 0.81925 0.1487 0.01967 0.0
O195 O 0.78038 0.17725 0.99267 0.0
Mg196 Mg 0.14121 0.50635 0.28603 0.0
O197 O 0.16005 0.53667 0.28952 0.0
O198 O 0.17599 0.54069 0.31749 0.0
Mg199 Mg 0.16753 0.51488 0.33301 0.0
C200 C 0.17189 0.54681 0.30212 0.0
C201 C 0.11704 0.5026 0.24577 0.0
O202 O 0.10647 0.4957 0.25682 0.0
O203 O 0.1618 0.48506 0.28062 0.0
O204 O 0.17459 0.49036 0.31064 0.0
O205 O 0.12256 0.52109 0.30389 0.0
O206 O 0.14223 0.50869 0.31719 0.0
C207 C 0.17232 0.48081 0.29328 0.0
C208 C 0.12965 0.51727 0.31943 0.0
O209 O 0.13246 0.50772 0.25284 0.0
Mg210 Mg 0.80212 0.90522 0.55526 0.0
O211 O 0.79928 0.8826 0.52669 0.0
O212 O 0.82116 0.86739 0.52808 0.0
Mg213 Mg 0.83781 0.87944 0.55666 0.0
C214 C 0.80774 0.87009 0.51916 0.0
C215 C 0.7729 0.9281 0.55158 0.0
O216 O 0.78595 0.94208 0.55799 0.0
O217 O 0.79437 0.88106 0.57294 0.0
O218 O 0.81755 0.86815 0.57424 0.0
O219 O 0.81829 0.92767 0.54229 0.0
O220 O 0.82825 0.90709 0.55832 0.0
C221 C 0.80307 0.86924 0.57909 0.0
C222 C 0.83106 0.92085 0.54858 0.0
O223 O 0.77504 0.91023 0.54871 0.0
Mg224 Mg 0.90672 0.04243 0.26607 0.0
O225 O 0.88714 0.01173 0.26388 0.0
O226 O 0.87497 0.01646 0.29077 0.0
Mg227 Mg 0.88619 0.04635 0.3107 0.0
C228 C 0.87664 1.00553 0.27494 0.0
C229 C 0.92789 0.04579 0.22968 0.0
O230 O 0.93717 0.05782 0.24442 0.0
O231 O 0.88595 0.0632 0.26152 0.0
O232 O 0.87655 0.06542 0.29012 0.0
O233 O 0.92689 0.03047 0.2834 0.0
O234 O 0.90935 0.04653 0.29738 0.0
C235 C 0.87683 0.07063 0.27378 0.0
C236 C 0.92167 0.03749 0.29929 0.0
O237 O 0.91374 0.03663 0.23288 0.0
Mg238 Mg 0.30245 0.67022 0.50892 0.0
O239 O 0.29808 0.678 0.54054 0.0
O240 O 0.32318 0.68505 0.55819 0.0
Mg241 Mg 0.34328 0.68351 0.53842 0.0
C242 C 0.30733 0.68297 0.55671 0.0
C243 C 0.26122 0.66627 0.49648 0.0
O244 O 0.25014 0.6711 0.48451 0.0
O245 O 0.31053 0.70237 0.51061 0.0
O246 O 0.33542 0.71083 0.52871 0.0
O247 O 0.30222 0.63882 0.51082 0.0
O248 O 0.32444 0.6626 0.51766 0.0
C249 C 0.32315 0.71506 0.51888 0.0
C250 C 0.31794 0.64447 0.51697 0.0
O251 O 0.27651 0.67291 0.49612 0.0
Mg252 Mg 0.40688 0.54235 0.76541 0.0
O253 O 0.38727 0.51166 0.76325 0.0
O254 O 0.37474 0.51663 0.78987 0.0
Mg255 Mg 0.38592 0.54654 0.80975 0.0
C256 C 0.37659 0.50558 0.77419 0.0
C257 C 0.4285 0.54458 0.72931 0.0
O258 O 0.43827 0.55562 0.74425 0.0
O259 O 0.38626 0.56312 0.76056 0.0
O260 O 0.37655 0.56564 0.789 0.0
O261 O 0.42715 0.53083 0.78298 0.0
O262 O 0.40918 0.54636 0.79666 0.0
C263 C 0.37707 0.57071 0.77262 0.0
C264 C 0.42168 0.53765 0.79877 0.0
O265 O 0.41393 0.53644 0.73231 0.0
Mg266 Mg 0.64216 0.00979 0.78605 0.0
O267 O 0.66139 0.03975 0.7893 0.0
O268 O 0.67715 0.04368 0.81738 0.0
Mg269 Mg 0.66849 0.01802 0.83295 0.0
C270 C 0.67323 0.04979 0.80196 0.0
C271 C 0.61799 1.00534 0.74581 0.0
O272 O 0.60761 0.99796 0.75681 0.0
O273 O 0.66236 0.98806 0.78054 0.0
O274 O 0.67527 0.99348 0.8105 0.0
O275 O 0.62411 0.02548 0.80409 0.0
O276 O 0.64325 0.01206 0.81712 0.0
C277 C 0.6729 0.98384 0.79319 0.0
C278 C 0.63106 0.02125 0.8195 0.0
O279 O 0.63335 0.01107 0.75292 0.0
Mg280 Mg 0.75593 0.64945 0.99614 0.0
O281 O 0.75984 0.67144 0.02528 0.0
O282 O 0.78523 0.68965 0.02802 0.0
Mg283 Mg 0.79774 0.6801 1.00136 0.0
C284 C 0.77154 0.685 0.03471 0.0
C285 C 0.72155 0.62239 0.99506 0.0
O286 O 0.7313 0.60993 0.98933 0.0
O287 O 0.75229 0.67345 0.9781 0.0
O288 O 0.77854 0.68971 0.98122 0.0
O289 O 0.76862 0.62813 0.01015 0.0
O290 O 0.78186 0.65085 0.99651 0.0
C291 C 0.7633 0.68679 0.97396 0.0
C292 C 0.78253 0.63672 1.00571 0.0
O293 O 0.72773 0.64077 0.99899 0.0
Mg294 Mg 0.91562 0.55622 0.77872 0.0
O295 O 0.89558 0.52611 0.77574 0.0
O296 O 0.88377 0.53085 0.80284 0.0
Mg297 Mg 0.89448 0.5607 0.82266 0.0
C298 C 0.88521 0.51995 0.7869 0.0
C299 C 0.93703 0.54882 0.74252 0.0
O300 O 0.94795 0.54969 0.7575 0.0
O301 O 0.89517 0.57675 0.77346 0.0
O302 O 0.88444 0.57906 0.80132 0.0
O303 O 0.9353 0.54356 0.79581 0.0
O304 O 0.91795 0.55979 0.81002 0.0
C305 C 0.88531 0.58387 0.78485 0.0
C306 C 0.93003 0.55028 0.81177 0.0
O307 O 0.92202 0.55031 0.74567 0.0
Mg308 Mg 0.75906 0.39226 0.52964 0.0
O309 O 0.76461 0.378 0.49992 0.0
O310 O 0.7916 0.37586 0.50147 0.0
Mg311 Mg 0.8025 0.38523 0.53271 0.0
C312 C 0.77717 0.37336 0.49206 0.0
C313 C 0.72765 0.39363 0.50417 0.0
O314 O 0.73942 0.39926 0.49393 0.0
O315 O 0.75738 0.36228 0.53733 0.0
O316 O 0.78406 0.35872 0.53715 0.0
O317 O 0.76785 0.42195 0.52389 0.0
O318 O 0.78395 0.40415 0.53723 0.0
C319 C 0.76886 0.35212 0.53849 0.0
C320 C 0.78258 0.41955 0.53004 0.0
O321 O 0.73161 0.38741 0.51937 0.0
Mg322 Mg 0.64101 0.50494 0.28787 0.0
O323 O 0.66001 0.53532 0.28968 0.0
O324 O 0.6775 0.5389 0.31638 0.0
Mg325 Mg 0.66933 0.51357 0.33284 0.0
C326 C 0.67271 0.54514 0.30131 0.0
C327 C 0.6248 0.51768 0.24865 0.0
O328 O 0.62407 0.53349 0.26134 0.0
O329 O 0.66065 0.4831 0.28153 0.0
O330 O 0.67577 0.48827 0.3103 0.0
O331 O 0.62282 0.51963 0.30638 0.0
O332 O 0.64293 0.50762 0.31927 0.0
C333 C 0.67202 0.47869 0.29297 0.0
C334 C 0.63012 0.51581 0.32181 0.0
O335 O 0.63138 0.50399 0.25455 0.0
C336 C 0.07646 0.05647 0.04759 0.0
Eu337 Eu 0.04515 0.04221 0.03767 0.0
C338 C 0.09104 0.04835 0.04183 0.0
C339 C 0.10212 0.04387 0.05591 0.0
C340 C 0.1136 0.03189 0.0506 0.0
C341 C 0.11406 0.0241 0.03112 0.0
C342 C 0.10371 0.0297 0.017 0.0
C343 C 0.09234 0.0418 0.02232 0.0
C344 C 0.02018 0.04242 0.06153 0.0
C345 C 0.03613 0.99479 0.03445 0.0
C346 C 0.98038 1.00373 1.00475 0.0
Eu347 Eu 0.01174 0.01844 0.0137 0.0
C348 C 0.96589 0.01113 0.01142 0.0
C349 C 0.94993 1.00277 1.00212 0.0
C350 C 0.93632 0.01119 0.00739 0.0
C351 C 0.93856 0.02802 0.0221 0.0
C352 C 0.95459 0.03593 0.03178 0.0
C353 C 0.96816 0.02768 0.02632 0.0
C354 C 0.03652 0.01821 0.98967 0.0
C355 C 0.02141 0.06579 0.01616 0.0
O356 O 0.0674 0.06233 0.03428 0.0
O357 O 0.06748 0.04607 0.05782 0.0
O358 O 0.03539 0.05172 0.06627 0.0
O359 O 0.01889 0.03446 0.04385 0.0
O360 O 0.04794 0.0106 0.03718 0.0
O361 O 0.02082 0.99458 0.0268 0.0
O362 O 0.98991 0.99812 0.01776 0.0
O363 O 0.98879 0.01476 0.99457 0.0
O364 O 0.02113 0.0096 0.98473 0.0
O365 O 0.03796 0.02606 0.00743 0.0
O366 O 0.00937 0.05022 0.01377 0.0
O367 O 0.03666 0.06581 0.02382 0.0
H368 H 0.10127 0.04871 0.07105 0.0
H369 H 0.12168 0.02815 0.06178 0.0
H370 H 0.10368 0.02386 1.00187 0.0
H371 H 0.08394 0.04507 0.01117 0.0
H372 H 0.94808 0.99015 0.99042 0.0
H373 H 0.92417 1.00497 0.99946 0.0
H374 H 0.95669 0.04872 0.04331 0.0
H375 H 0.98051 0.0345 0.03339 0.0
C376 C 0.28097 0.80357 0.34045 0.0
Eu377 Eu 0.27255 0.79034 0.30413 0.0
C378 C 0.27526 0.8051 0.35925 0.0
C379 C 0.28444 0.81953 0.37416 0.0
C380 C 0.28093 0.81996 0.3929 0.0
C381 C 0.26807 0.80599 0.39698 0.0
C382 C 0.25813 0.79231 0.38172 0.0
C383 C 0.26176 0.79182 0.36288 0.0
C384 C 0.24307 0.78995 0.2825 0.0
C385 C 0.25557 0.74443 0.28781 0.0
C386 C 0.27144 0.75991 0.22522 0.0
Eu387 Eu 0.27474 0.77207 0.26202 0.0
C388 C 0.27905 0.76164 0.20771 0.0
C389 C 0.28453 0.7452 0.19781 0.0
C390 C 0.28886 0.74501 0.17936 0.0
C391 C 0.28754 0.76118 0.1705 0.0
C392 C 0.283 0.77811 0.18093 0.0
C393 C 0.27885 0.77838 0.19944 0.0
C394 C 0.29969 0.76804 0.28803 0.0
C395 C 0.29103 0.81891 0.27727 0.0
O396 O 0.28283 0.786 0.33186 0.0
O397 O 0.27472 0.81393 0.32889 0.0
O398 O 0.24588 0.79656 0.30092 0.0
O399 O 0.25579 0.7839 0.27718 0.0
O400 O 0.26328 0.75739 0.30323 0.0
O401 O 0.2558 0.74873 0.27046 0.0
O402 O 0.26516 0.77485 0.23344 0.0
O403 O 0.27886 0.75116 0.23743 0.0
O404 O 0.2932 0.7546 0.27315 0.0
O405 O 0.29323 0.78317 0.2879 0.0
O406 O 0.28792 0.80381 0.26242 0.0
O407 O 0.28651 0.81688 0.2943 0.0
H408 H 0.29488 0.82988 0.37142 0.0
H409 H 0.28907 0.83042 0.40427 0.0
H410 H 0.24806 0.78148 0.38443 0.0
H411 H 0.25451 0.78067 0.35134 0.0
H412 H 0.28469 0.7321 0.20396 0.0
H413 H 0.2925 0.73188 0.17173 0.0
H414 H 0.28157 0.79071 0.17439 0.0
H415 H 0.27462 0.79125 0.20677 0.0
C416 C 0.47642 0.03118 0.53759 0.0
Eu417 Eu 0.50728 0.028 0.53398 0.0
C418 C 0.46328 0.04314 0.53571 0.0
C419 C 0.45279 0.04496 0.55013 0.0
C420 C 0.43906 0.05426 0.54811 0.0
C421 C 0.43549 0.06211 0.53161 0.0
C422 C 0.4463 0.06068 0.51732 0.0
C423 C 0.46005 0.05125 0.51932 0.0
C424 C 0.52968 0.02089 0.56198 0.0
C425 C 0.53184 0.07052 0.5388 0.0
C426 C 0.57551 0.02717 0.53003 0.0
Eu427 Eu 0.5442 0.02991 0.52436 0.0
C428 C 0.58898 0.01596 0.52547 0.0
C429 C 0.60379 0.02572 0.52044 0.0
C430 C 0.6179 0.01682 0.51978 0.0
C431 C 0.61761 0.99796 0.52433 0.0
C432 C 0.60251 0.98785 0.52854 0.0
C433 C 0.58837 0.99671 0.52906 0.0
C434 C 0.52354 0.03155 0.49179 0.0
C435 C 0.51822 0.98803 0.5142 0.0
O436 O 0.48124 0.02233 0.52183 0.0
O437 O 0.4886 0.0377 0.55163 0.0
O438 O 0.51427 0.01194 0.55795 0.0
O439 O 0.5323 0.03358 0.55138 0.0
O440 O 0.51636 0.0606 0.5356 0.0
O441 O 0.54491 0.06176 0.53721 0.0
O442 O 0.56393 0.01921 0.53927 0.0
O443 O 0.56992 0.03742 0.51784 0.0
O444 O 0.53951 0.03189 0.49241 0.0
O445 O 0.51975 0.03024 0.5084 0.0
O446 O 0.5339 0.99725 0.51769 0.0
O447 O 0.50558 0.99712 0.51761 0.0
H448 H 0.45494 0.03864 0.5628 0.0
H449 H 0.43095 0.05468 0.55928 0.0
H450 H 0.44412 0.06678 0.50453 0.0
H451 H 0.46794 0.05003 0.50795 0.0
H452 H 0.60468 0.04062 0.51779 0.0
H453 H 0.62914 0.02493 0.51607 0.0
H454 H 0.60176 0.97343 0.53232 0.0
H455 H 0.57719 0.98879 0.53314 0.0
C456 C 0.32436 0.26355 0.77779 0.0
Eu457 Eu 0.29338 0.26721 0.77932 0.0
C458 C 0.33864 0.26574 0.76668 0.0
C459 C 0.34714 0.24991 0.76298 0.0
C460 C 0.36187 0.25202 0.75458 0.0
C461 C 0.36852 0.27009 0.74977 0.0
C462 C 0.35967 0.2858 0.75287 0.0
C463 C 0.34486 0.28365 0.76128 0.0
C464 C 0.2693 0.23774 0.78602 0.0
C465 C 0.27279 0.26156 0.73696 0.0
C466 C 0.22559 0.26871 0.77621 0.0
Eu467 Eu 0.25763 0.27575 0.77583 0.0
C468 C 0.21058 0.27348 0.78436 0.0
C469 C 0.2112 0.28421 0.80309 0.0
C470 C 0.19642 0.28592 0.81121 0.0
C471 C 0.18083 0.27672 0.80082 0.0
C472 C 0.18044 0.26632 0.78193 0.0
C473 C 0.19512 0.26483 0.77381 0.0
C474 C 0.27924 0.31026 0.77475 0.0
C475 C 0.28029 0.28739 0.81755 0.0
O476 O 0.31976 0.2796 0.78636 0.0
O477 O 0.31183 0.24918 0.77082 0.0
O478 O 0.28399 0.24328 0.79572 0.0
O479 O 0.2681 0.24798 0.77307 0.0
O480 O 0.28761 0.26543 0.74727 0.0
O481 O 0.259 0.26246 0.745 0.0
O482 O 0.23613 0.26187 0.7871 0.0
O483 O 0.23273 0.2798 0.76511 0.0
O484 O 0.26314 0.30854 0.77388 0.0
O485 O 0.28288 0.29364 0.77636 0.0
O486 O 0.26514 0.28324 0.80802 0.0
O487 O 0.29355 0.28433 0.80913 0.0
H488 H 0.34259 0.23598 0.76706 0.0
H489 H 0.36816 0.23951 0.75206 0.0
H490 H 0.36449 0.29995 0.74944 0.0
H491 H 0.33857 0.29614 0.76402 0.0
H492 H 0.22307 0.29082 0.81155 0.0
H493 H 0.19726 0.29427 0.82569 0.0
H494 H 0.16882 0.25862 0.77356 0.0
H495 H 0.19442 0.25619 0.75946 0.0
C496 C 0.02335 0.9641 0.50195 0.0
Eu497 Eu 0.02803 1.00199 0.51243 0.0
C498 C 0.03265 0.94943 0.50728 0.0
C499 C 0.04934 0.95512 0.51544 0.0
C500 C 0.05713 0.9422 0.52435 0.0
C501 C 0.0482 0.92364 0.52555 0.0
C502 C 0.03173 0.91772 0.51644 0.0
C503 C 0.02404 0.93054 0.50732 0.0
C504 C 0.05692 0.02754 0.51196 0.0
C505 C 0.04295 0.01795 0.5579 0.0
C506 C 0.02236 0.07848 0.54647 0.0
Eu507 Eu 0.02321 0.0422 0.53177 0.0
C508 C 0.02071 0.09761 0.54226 0.0
C509 C 0.01537 0.11097 0.55627 0.0
C510 C 0.01424 0.12977 0.5532 0.0
C511 C 0.01853 0.13538 0.53608 0.0
C512 C 0.02376 0.12181 0.52192 0.0
C513 C 0.0248 0.10291 0.52498 0.0
C514 C 0.99946 0.01172 0.53558 0.0
C515 C 0.01056 0.02782 0.48537 0.0
O516 O 0.01657 0.97302 0.51615 0.0
O517 O 0.03058 0.97615 0.49177 0.0
O518 O 0.05437 0.00882 0.50481 0.0
O519 O 0.04406 0.03176 0.51891 0.0
O520 O 0.03778 1.00233 0.54389 0.0
O521 O 0.04029 0.03555 0.55564 0.0
O522 O 0.03609 0.07217 0.54271 0.0
O523 O 0.00906 0.06473 0.54207 0.0
O524 O 1.0064 0.02594 0.5496 0.0
O525 O 1.00576 0.01406 0.52045 0.0
O526 O 0.01389 0.04285 0.50033 0.0
O527 O 0.01425 0.01037 0.48687 0.0
H528 H 0.05605 0.96988 0.51582 0.0
H529 H 0.06986 0.94712 0.5311 0.0
H530 H 0.02432 0.90374 0.51747 0.0
H531 H 0.01104 0.92617 0.50141 0.0
H532 H 0.01216 0.10688 0.56965 0.0
H533 H 0.0099 0.13986 0.56416 0.0
H534 H 0.02728 0.1259 0.50867 0.0
H535 H 0.02895 0.09259 0.51406 0.0
C536 C 0.23801 0.7351 0.72706 0.0
Eu537 Eu 0.25801 0.75951 0.75437 0.0
C538 C 0.22483 0.73616 0.71216 0.0
C539 C 0.20966 0.72318 0.7102 0.0
C540 C 0.19633 0.72505 0.69751 0.0
C541 C 0.198 0.73984 0.68633 0.0
C542 C 0.21352 0.75227 0.6877 0.0
C543 C 0.22679 0.75057 0.70065 0.0
C544 C 0.25555 0.76591 0.79219 0.0
C545 C 0.25461 0.80473 0.76786 0.0
C546 C 0.31006 0.81195 0.80278 0.0
Eu547 Eu 0.28794 0.78617 0.77895 0.0
C548 C 0.3282 0.81596 0.80494 0.0
C549 C 0.33666 0.80669 0.79078 0.0
C550 C 0.35396 0.81059 0.79265 0.0
C551 C 0.36303 0.82374 0.80878 0.0
C552 C 0.3545 0.83302 0.82293 0.0
C553 C 0.33714 0.82917 0.82098 0.0
C554 C 0.28975 0.77939 0.74081 0.0
C555 C 0.29104 0.74024 0.76775 0.0
O556 O 0.2532 0.74289 0.72506 0.0
O557 O 0.2346 0.73907 0.74476 0.0
O558 O 0.2429 0.76376 0.77916 0.0
O559 O 0.26849 0.76319 0.78468 0.0
O560 O 0.24981 0.78919 0.75362 0.0
O561 O 0.26731 0.80498 0.78099 0.0
O562 O 0.30321 0.79515 0.8068 0.0
O563 O 0.30295 0.81551 0.78687 0.0
O564 O 0.30234 0.78044 0.75357 0.0
O565 O 0.27721 0.78274 0.74879 0.0
O566 O 0.29777 0.75746 0.77897 0.0
O567 O 0.27652 0.73814 0.75688 0.0
H568 H 0.20792 0.71207 0.71907 0.0
H569 H 0.18448 0.71553 0.69727 0.0
H570 H 0.21526 0.76371 0.67922 0.0
H571 H 0.23838 0.76085 0.70201 0.0
H572 H 0.32988 0.79634 0.77835 0.0
H573 H 0.36025 0.80293 0.78175 0.0
H574 H 0.36125 0.8432 0.83549 0.0
H575 H 0.3307 0.83643 0.83198 0.0
C576 C 0.5815 0.06023 0.06479 0.0
Eu577 Eu 0.55244 0.04562 0.04531 0.0
C578 C 0.59915 0.06229 0.06256 0.0
C579 C 0.6051 0.04913 0.0488 0.0
C580 C 0.62189 0.05248 0.04609 0.0
C581 C 0.63284 0.06913 0.05695 0.0
C582 C 0.62673 0.0821 0.07083 0.0
C583 C 0.61003 0.07865 0.07362 0.0
C584 C 0.53972 1.00728 0.03143 0.0
C585 C 0.55328 0.04192 0.99823 0.0
C586 C 0.49103 0.02313 0.99986 0.0
Eu587 Eu 0.51998 0.0379 0.01913 0.0
C588 C 0.47357 0.02125 1.00311 0.0
C589 C 0.46197 0.02475 0.98901 0.0
C590 C 0.4451 0.02182 0.99117 0.0
C591 C 0.43959 0.01517 0.00742 0.0
C592 C 0.45137 0.01237 0.02188 0.0
C593 C 0.46824 0.0155 0.01979 0.0
C594 C 0.53279 0.07642 0.03215 0.0
C595 C 0.51872 0.041 0.06589 0.0
O596 O 0.5731 0.07 0.05461 0.0
O597 O 0.57343 0.04255 0.06499 0.0
O598 O 0.54774 0.01354 0.04854 0.0
O599 O 0.53995 0.02113 0.02242 0.0
O600 O 0.56154 0.04872 0.01578 0.0
O601 O 0.53714 0.03471 0.99603 0.0
O602 O 0.50005 0.01284 0.00883 0.0
O603 O 0.49881 0.04099 0.99984 0.0
O604 O 0.52452 0.06957 0.01525 0.0
O605 O 0.53269 0.06298 0.04181 0.0
O606 O 0.51067 0.03463 0.04825 0.0
O607 O 0.53494 0.0481 0.06843 0.0
H608 H 0.59674 0.03654 0.03998 0.0
H609 H 0.62626 0.04218 0.03536 0.0
H610 H 0.6347 0.09531 0.07909 0.0
H611 H 0.6055 0.08908 0.08408 0.0
H612 H 0.46594 0.02939 0.97615 0.0
H613 H 0.43636 0.02442 0.97995 0.0
H614 H 0.44753 1.00701 0.03446 0.0
H615 H 0.47704 0.01288 0.03095 0.0
C616 C 0.32373 0.31395 0.2826 0.0
Eu617 Eu 0.29449 0.29358 0.28255 0.0
C618 C 0.33908 0.30709 0.27816 0.0
C619 C 0.35453 0.31835 0.28648 0.0
C620 C 0.36909 0.31111 0.28311 0.0
C621 C 0.36831 0.2924 0.27157 0.0
C622 C 0.35274 0.28109 0.26347 0.0
C623 C 0.33826 0.28844 0.26662 0.0
C624 C 0.27915 0.28091 0.31184 0.0
C625 C 0.29466 0.24496 0.27209 0.0
C626 C 0.23139 0.24023 0.26798 0.0
Eu627 Eu 0.25974 0.26195 0.26705 0.0
C628 C 0.21853 0.24384 0.2806 0.0
C629 C 0.20555 0.25308 0.27456 0.0
C630 C 0.19537 0.2603 0.2876 0.0
C631 C 0.1979 0.25824 0.30684 0.0
C632 C 0.2101 0.24786 0.31264 0.0
C633 C 0.22034 0.24066 0.2996 0.0
C634 C 0.27435 0.27484 0.23763 0.0
C635 C 0.25989 0.31068 0.27839 0.0
O636 O 0.31196 0.31082 0.26809 0.0
O637 O 0.31827 0.30928 0.29819 0.0
O638 O 0.29258 0.29427 0.31467 0.0
O639 O 0.27463 0.27648 0.29406 0.0
O640 O 0.30304 0.26349 0.27683 0.0
O641 O 0.27814 0.24076 0.26807 0.0
O642 O 0.24541 0.23706 0.27624 0.0
O643 O 0.23367 0.25223 0.25582 0.0
O644 O 0.26094 0.26148 0.23501 0.0
O645 O 0.27939 0.27904 0.25534 0.0
O646 O 0.25142 0.29216 0.27585 0.0
O647 O 0.27644 0.31475 0.2801 0.0
H648 H 0.35531 0.33267 0.29558 0.0
H649 H 0.38094 0.32028 0.28931 0.0
H650 H 0.35171 0.26652 0.25475 0.0
H651 H 0.32642 0.27948 0.26011 0.0
H652 H 0.20375 0.25558 0.25997 0.0
H653 H 0.18575 0.26791 0.28275 0.0
H654 H 0.21221 0.24606 0.32744 0.0
H655 H 0.23012 0.23341 0.30465 0.0
C656 C 0.51484 0.464 1.00186 0.0
Eu657 Eu 0.52589 0.50131 0.01295 0.0
C658 C 0.5203 0.44519 1.00081 0.0
C659 C 0.50954 0.42829 0.99069 0.0
C660 C 0.51352 0.40981 0.99107 0.0
C661 C 0.52841 0.40802 1.00154 0.0
C662 C 0.5396 0.42517 0.01091 0.0
C663 C 0.53554 0.44372 0.01059 0.0
C664 C 0.55609 0.52363 0.01025 0.0
C665 C 0.54284 0.51969 0.05709 0.0
C666 C 0.53818 0.58543 0.04087 0.0
Eu667 Eu 0.52752 0.54806 0.02955 0.0
C668 C 0.53089 0.60308 0.04303 0.0
C669 C 0.51376 0.60178 0.03819 0.0
C670 C 0.50708 0.61893 0.03916 0.0
C671 C 0.51752 0.63746 0.04488 0.0
C672 C 0.53458 0.63856 0.05043 0.0
C673 C 0.54122 0.62141 0.04952 0.0
C674 C 0.49731 0.52606 0.03232 0.0
C675 C 0.51006 0.52944 0.98557 0.0
O676 O 0.51403 0.47362 0.01923 0.0
O677 O 0.52106 0.47524 0.99036 0.0
O678 O 0.55265 0.50453 1.00479 0.0
O679 O 0.54336 0.52892 0.01638 0.0
O680 O 0.53631 0.50334 0.04429 0.0
O681 O 0.54214 0.53762 0.05355 0.0
O682 O 0.53801 0.57629 0.02308 0.0
O683 O 0.53384 0.57357 0.05263 0.0
O684 O 0.50092 0.54513 0.03792 0.0
O685 O 0.50992 0.52054 0.02601 0.0
O686 O 0.51698 0.54583 0.99815 0.0
O687 O 0.51079 0.51154 0.98917 0.0
H688 H 0.49773 0.42935 0.98313 0.0
H689 H 0.50446 0.39692 0.98407 0.0
H690 H 0.55118 0.4242 0.01901 0.0
H691 H 0.54397 0.45681 0.01841 0.0
H692 H 0.50568 0.58756 0.03323 0.0
H693 H 0.49388 0.61775 0.03485 0.0
H694 H 0.54295 0.65266 0.05451 0.0
H695 H 0.55448 0.62246 0.05331 0.0
C696 C 0.72422 0.23232 0.25032 0.0
Eu697 Eu 0.75254 0.25491 0.26426 0.0
C698 C 0.70869 0.23371 0.23945 0.0
C699 C 0.69466 0.21923 0.23892 0.0
C700 C 0.67937 0.22097 0.22975 0.0
C701 C 0.67798 0.23726 0.22104 0.0
C702 C 0.6922 0.25159 0.2213 0.0
C703 C 0.70749 0.24984 0.23051 0.0
C704 C 0.76498 0.26497 0.30183 0.0
C705 C 0.7509 0.3022 0.26885 0.0
C706 C 0.8109 0.31108 0.28648 0.0
Eu707 Eu 0.78518 0.28379 0.27349 0.0
C708 C 0.82885 0.31341 0.28554 0.0
C709 C 0.83532 0.31006 0.26789 0.0
C710 C 0.8524 0.31111 0.26754 0.0
C711 C 0.86322 0.31523 0.2848 0.0
C712 C 0.85666 0.31884 0.30239 0.0
C713 C 0.83965 0.31806 0.30272 0.0
C714 C 0.77838 0.26456 0.23672 0.0
C715 C 0.7866 0.23716 0.27002 0.0
O716 O 0.73735 0.23316 0.2411 0.0
O717 O 0.72718 0.24285 0.26777 0.0
O718 O 0.75745 0.24729 0.29386 0.0
O719 O 0.76486 0.27617 0.28996 0.0
O720 O 0.74247 0.2838 0.26343 0.0
O721 O 0.76721 0.30559 0.27394 0.0
O722 O 0.8049 0.29806 0.29646 0.0
O723 O 0.80139 0.31051 0.27046 0.0
O724 O 0.7932 0.26899 0.24607 0.0
O725 O 0.76803 0.27142 0.24669 0.0
O726 O 0.79369 0.25527 0.27916 0.0
O727 O 0.77132 0.23396 0.26074 0.0
H728 H 0.69547 0.20676 0.24588 0.0
H729 H 0.66862 0.20969 0.22963 0.0
H730 H 0.6914 0.26445 0.21496 0.0
H731 H 0.71826 0.26123 0.231 0.0
H732 H 0.8272 0.30631 0.25439 0.0
H733 H 0.85709 0.30844 0.25377 0.0
H734 H 0.86455 0.32156 0.31599 0.0
H735 H 0.83485 0.32054 0.31646 0.0
C736 C 0.07274 0.5769 0.56597 0.0
Eu737 Eu 0.04967 0.55096 0.54364 0.0
C738 C 0.09092 0.58086 0.56729 0.0
C739 C 0.09948 0.56594 0.55997 0.0
C740 C 0.11674 0.56996 0.56057 0.0
C741 C 0.12571 0.58902 0.56831 0.0
C742 C 0.11707 0.60385 0.57583 0.0
C743 C 0.09978 0.59977 0.57532 0.0
C744 C 0.05167 0.51234 0.53503 0.0
C745 C 0.05197 0.53709 0.49844 0.0
C746 C 0.99596 0.49838 0.49715 0.0
Eu747 Eu 0.01886 0.52434 0.51963 0.0
C748 C 0.97788 0.49474 0.49613 0.0
C749 C 0.97018 0.50598 0.50975 0.0
C750 C 0.9529 0.50299 0.50858 0.0
C751 C 0.9431 0.48874 0.49375 0.0
C752 C 0.9509 0.4775 0.48014 0.0
C753 C 0.96822 0.48053 0.48132 0.0
C754 C 0.01669 0.56289 0.52834 0.0
C755 C 0.01627 0.53771 0.56464 0.0
O756 O 0.06482 0.58045 0.55048 0.0
O757 O 0.06619 0.56021 0.57046 0.0
O758 O 0.06429 0.52647 0.53641 0.0
O759 O 0.03905 0.51927 0.53956 0.0
O760 O 0.05801 0.55096 0.51386 0.0
O761 O 0.03835 0.524 0.49853 0.0
O762 O 1.00394 0.4948 0.51258 0.0
O763 O 1.00238 0.51517 0.49277 0.0
O764 O 1.00412 0.54865 0.52669 0.0
O765 O 0.02941 0.55615 0.52385 0.0
O766 O 0.01043 0.5239 0.54915 0.0
O767 O 0.02993 0.55094 0.56477 0.0
H768 H 0.09282 0.55123 0.55363 0.0
H769 H 0.12305 0.55817 0.55485 0.0
H770 H 0.12358 0.61877 0.58158 0.0
H771 H 0.09331 0.61146 0.58089 0.0
H772 H 0.97754 0.51702 0.5213 0.0
H773 H 0.94723 0.5116 0.51946 0.0
H774 H 0.9436 0.46649 0.46853 0.0
H775 H 0.97407 0.47187 0.47066 0.0
C776 C 0.82392 0.76266 0.27725 0.0
Eu777 Eu 0.79298 0.76655 0.27866 0.0
C778 C 0.83817 0.76471 0.26614 0.0
C779 C 0.84848 0.75057 0.26566 0.0
C780 C 0.86302 0.75278 0.25691 0.0
C781 C 0.86757 0.76919 0.24833 0.0
C782 C 0.85696 0.78317 0.24843 0.0
C783 C 0.84238 0.78096 0.25729 0.0
C784 C 0.76869 0.73713 0.28499 0.0
C785 C 0.77249 0.7615 0.2362 0.0
C786 C 0.72536 0.76943 0.27622 0.0
Eu787 Eu 0.75738 0.77547 0.27507 0.0
C788 C 0.71158 0.77485 0.28685 0.0
C789 C 0.69846 0.78146 0.27734 0.0
C790 C 0.68389 0.78318 0.28576 0.0
C791 C 0.68201 0.77808 0.30383 0.0
C792 C 0.69549 0.7723 0.3137 0.0
C793 C 0.71012 0.77075 0.30535 0.0
C794 C 0.77926 0.8099 0.27438 0.0
C795 C 0.77984 0.78646 0.31692 0.0
O796 O 0.81938 0.77883 0.28561 0.0
O797 O 0.81135 0.74835 0.27028 0.0
O798 O 0.78333 0.74254 0.29482 0.0
O799 O 0.76763 0.74752 0.27213 0.0
O800 O 0.78725 0.76489 0.24661 0.0
O801 O 0.75867 0.76277 0.2441 0.0
O802 O 0.73561 0.75994 0.28446 0.0
O803 O 0.73271 0.7817 0.26628 0.0
O804 O 0.76317 0.80828 0.27335 0.0
O805 O 0.78278 0.79319 0.27588 0.0
O806 O 0.76476 0.78249 0.30727 0.0
O807 O 0.79314 0.7834 0.30858 0.0
H808 H 0.84551 0.73801 0.27254 0.0
H809 H 0.87096 0.74188 0.25745 0.0
H810 H 0.85995 0.79585 0.24174 0.0
H811 H 0.83457 0.79208 0.25747 0.0
H812 H 0.69921 0.78458 0.26303 0.0
H813 H 0.67394 0.78809 0.27788 0.0
H814 H 0.69451 0.76804 0.32753 0.0
H815 H 0.71996 0.76549 0.31307 0.0
C816 C 0.78462 0.30517 0.84107 0.0
Eu817 Eu 0.77437 0.29252 0.80503 0.0
C818 C 0.77941 0.3088 0.86014 0.0
C819 C 0.78928 0.32383 0.87396 0.0
C820 C 0.78639 0.32601 0.89305 0.0
C821 C 0.77346 0.3132 0.89858 0.0
C822 C 0.76275 0.29906 0.88435 0.0
C823 C 0.76574 0.29682 0.86517 0.0
C824 C 0.74521 0.29444 0.78378 0.0
C825 C 0.75734 0.24689 0.78726 0.0
C826 C 0.7645 0.2637 0.72306 0.0
Eu827 Eu 0.7742 0.27585 0.75927 0.0
C828 C 0.77106 0.26081 0.70455 0.0
C829 C 0.77108 0.24156 0.6948 0.0
C830 C 0.77524 0.23834 0.67615 0.0
C831 C 0.77924 0.25431 0.66691 0.0
C832 C 0.7799 0.27363 0.67703 0.0
C833 C 0.77592 0.27686 0.69572 0.0
C834 C 0.8032 0.27347 0.78032 0.0
C835 C 0.79212 0.32125 0.77714 0.0
O836 O 0.78352 0.28668 0.83259 0.0
O837 O 0.78054 0.31675 0.8295 0.0
O838 O 0.74789 0.29978 0.80242 0.0
O839 O 0.75801 0.28869 0.77841 0.0
O840 O 0.76413 0.25984 0.80312 0.0
O841 O 0.75809 0.25103 0.76979 0.0
O842 O 0.76492 0.28195 0.73189 0.0
O843 O 0.76808 0.25189 0.73465 0.0
O844 O 0.80031 0.26781 0.76173 0.0
O845 O 0.79064 0.27973 0.78587 0.0
O846 O 0.78578 0.30818 0.76118 0.0
O847 O 0.79048 0.3174 0.79459 0.0
H848 H 0.79983 0.33321 0.87015 0.0
H849 H 0.79509 0.3368 0.9036 0.0
H850 H 0.7526 0.28911 0.88818 0.0
H851 H 0.7579 0.28525 0.85449 0.0
H852 H 0.76731 0.22895 0.70135 0.0
H853 H 0.77477 0.22332 0.66873 0.0
H854 H 0.78257 0.28627 0.6702 0.0
H855 H 0.77597 0.29187 0.70288 0.0
C856 C 0.81921 0.8183 0.78629 0.0
Eu857 Eu 0.79175 0.79331 0.78233 0.0
C858 C 0.8361 0.8151 0.79106 0.0
C859 C 0.83857 0.79939 0.80022 0.0
C860 C 0.85362 0.79264 0.80021 0.0
C861 C 0.86632 0.80141 0.79086 0.0
C862 C 0.86419 0.81801 0.78287 0.0
C863 C 0.84913 0.82478 0.78295 0.0
C864 C 0.78041 0.77608 0.81099 0.0
C865 C 0.79285 0.74633 0.77226 0.0
C866 C 0.73066 0.74284 0.77686 0.0
Eu867 Eu 0.75791 0.76429 0.77185 0.0
C868 C 0.7187 0.74813 0.79014 0.0
C869 C 0.71023 0.76374 0.78814 0.0
C870 C 0.70113 0.77095 0.80243 0.0
C871 C 0.70038 0.76278 0.81905 0.0
C872 C 0.70835 0.74675 0.82081 0.0
C873 C 0.71743 0.73946 0.80643 0.0
C874 C 0.76871 0.77401 0.739 0.0
C875 C 0.75738 0.81179 0.77967 0.0
O876 O 0.81202 0.80799 0.76959 0.0
O877 O 0.80954 0.81777 0.79994 0.0
O878 O 0.79592 0.77955 0.80831 0.0
O879 O 0.77159 0.78258 0.7989 0.0
O880 O 0.80114 0.76446 0.77293 0.0
O881 O 0.77648 0.74297 0.77291 0.0
O882 O 0.74524 0.74129 0.78511 0.0
O883 O 0.73175 0.75238 0.76259 0.0
O884 O 0.75525 0.7615 0.73917 0.0
O885 O 0.7758 0.77942 0.75593 0.0
O886 O 0.74878 0.79378 0.77885 0.0
O887 O 0.7738 0.81488 0.77987 0.0
H888 H 0.82853 0.79148 0.80627 0.0
H889 H 0.855 0.77992 0.80658 0.0
H890 H 0.87368 0.82485 0.77529 0.0
H891 H 0.84726 0.83664 0.77548 0.0
H892 H 0.71101 0.77089 0.77583 0.0
H893 H 0.69479 0.78304 0.80054 0.0
H894 H 0.70801 0.74028 0.83355 0.0
H895 H 0.72404 0.72761 0.80841 0.0
C896 C 0.57652 0.55594 0.54672 0.0
Eu897 Eu 0.54525 0.54117 0.53719 0.0
C898 C 0.59123 0.54774 0.54145 0.0
C899 C 0.60196 0.54318 0.55584 0.0
C900 C 0.61363 0.53135 0.55093 0.0
C901 C 0.61466 0.52376 0.53153 0.0
C902 C 0.60466 0.52943 0.51714 0.0
C903 C 0.5931 0.54142 0.52207 0.0
C904 C 0.52027 0.54103 0.56096 0.0
C905 C 0.53694 0.49369 0.53442 0.0
C906 C 0.48098 0.50061 0.5036 0.0
Eu907 Eu 0.51208 0.51649 0.51321 0.0
C908 C 0.46563 0.50701 0.50868 0.0
C909 C 0.45068 0.49905 0.49679 0.0
C910 C 0.43629 0.50652 0.50047 0.0
C911 C 0.43674 0.52192 0.51618 0.0
C912 C 0.45168 0.52957 0.52833 0.0
C913 C 0.4661 0.5223 0.52446 0.0
C914 C 0.53702 0.51673 0.48942 0.0
C915 C 0.52082 0.56398 0.51564 0.0
O916 O 0.56737 0.56099 0.53294 0.0
O917 O 0.56763 0.54617 0.55751 0.0
O918 O 0.53539 0.55063 0.56568 0.0
O919 O 0.51901 0.53286 0.54332 0.0
O920 O 0.54845 0.50981 0.53744 0.0
O921 O 0.52166 0.49293 0.52634 0.0
O922 O 0.49036 0.49618 0.51755 0.0
O923 O 0.48942 0.51149 0.49334 0.0
O924 O 0.52176 0.50772 0.4844 0.0
O925 O 0.53824 0.52466 0.50712 0.0
O926 O 0.50915 0.54797 0.51264 0.0
O927 O 0.53602 0.56467 0.52384 0.0
H928 H 0.60071 0.5479 0.57088 0.0
H929 H 0.62146 0.5276 0.56234 0.0
H930 H 0.60507 0.52376 0.50206 0.0
H931 H 0.58505 0.54482 0.51067 0.0
H932 H 0.45024 0.48746 0.48439 0.0
H933 H 0.42488 0.50047 0.49092 0.0
H934 H 0.45236 0.5417 0.54031 0.0
H935 H 0.47771 0.52902 0.53339 0.0
C936 C 0.9768 0.5317 0.03787 0.0
Eu937 Eu 0.00759 0.52827 0.03415 0.0
C938 C 0.9637 0.54371 0.03574 0.0
C939 C 0.95493 0.5485 0.05138 0.0
C940 C 0.94106 0.55757 0.04937 0.0
C941 C 0.93555 0.56201 0.0316 0.0
C942 C 0.94472 0.55783 0.01606 0.0
C943 C 0.95865 0.54873 0.0181 0.0
C944 C 0.02984 0.52081 0.06213 0.0
C945 C 0.03227 0.57066 0.03905 0.0
C946 C 0.07578 0.52731 0.03019 0.0
Eu947 Eu 0.04445 0.52996 0.02458 0.0
C948 C 0.08928 0.51612 0.02578 0.0
C949 C 0.10456 0.52624 0.02227 0.0
C950 C 0.1186 0.5172 0.02196 0.0
C951 C 0.1177 0.49781 0.02526 0.0
C952 C 0.10217 0.48737 0.0279 0.0
C953 C 0.08812 0.4964 0.02814 0.0
C954 C 0.02384 0.53191 0.99201 0.0
C955 C 0.01837 0.48825 0.01438 0.0
O956 O 0.98148 0.52234 0.02226 0.0
O957 O 0.98907 0.53844 0.05177 0.0
O958 O 0.01442 0.51196 0.05798 0.0
O959 O 0.03258 0.53358 0.05164 0.0
O960 O 0.01676 0.56083 0.03567 0.0
O961 O 0.04528 0.5618 0.03759 0.0
O962 O 0.06425 0.51942 0.03952 0.0
O963 O 0.07013 0.53737 0.01787 0.0
O964 O 0.03978 0.53204 0.99261 0.0
O965 O 0.02005 0.53055 0.0086 0.0
O966 O 0.03407 0.49732 0.01829 0.0
O967 O 1.00577 0.49754 0.01732 0.0
H968 H 0.95853 0.54471 0.06511 0.0
H969 H 0.93452 0.56089 0.06174 0.0
H970 H 0.94079 0.56093 1.00213 0.0
H971 H 0.96512 0.54513 1.00573 0.0
H972 H 0.10586 0.54152 0.02071 0.0
H973 H 0.13035 0.52577 0.02008 0.0
H974 H 0.10093 0.47232 0.03017 0.0
H975 H 0.07653 0.48818 0.03094 0.0
H976 H 0.0132 0.20534 0.91993 0.0
H977 H 0.02085 0.17973 0.93678 0.0
H978 H 0.97969 0.18434 0.96982 0.0
H979 H 0.97212 0.21001 0.95342 0.0
H980 H 0.00876 0.18202 0.99181 0.0
H981 H 0.99449 0.12301 0.92625 0.0
H982 H 0.00933 0.14429 0.9244 0.0
H983 H 0.98816 0.14666 0.92719 0.0
C984 C 1.00591 0.20108 0.93095 0.0
C985 C 0.99198 0.20968 0.93523 0.0
C986 C 0.01021 0.18633 0.94043 0.0
C987 C 1.00065 0.17992 0.95428 0.0
C988 C 0.98717 0.18899 0.95909 0.0
H989 H 0.99267 0.07059 0.9962 0.0
H990 H 0.98798 0.09889 0.98194 0.0
C991 C 0.98286 0.20367 0.94966 0.0
C992 C 1.00436 0.16354 0.96365 0.0
H993 H 1.00535 0.11422 0.95478 0.0
C994 C 0.00808 0.1672 0.98373 0.0
C995 C 1.00318 0.14417 0.95306 0.0
C996 C 0.99843 0.13917 0.93155 0.0
C997 C 0.01072 0.15201 0.99354 0.0
C998 C 0.00984 0.13273 0.98292 0.0
C999 C 1.00609 0.12905 0.96285 0.0
C1000 C 0.01253 0.11607 0.99236 0.0
C1001 C 0.01402 0.15664 0.01521 0.0
C1002 C 0.02789 0.11638 1.00295 0.0
C1003 C 0.03059 0.10029 0.01121 0.0
C1004 C 0.018 0.08351 0.00891 0.0
C1005 C 1.00258 0.08333 0.99841 0.0
C1006 C 0.9999 0.09944 0.99017 0.0
H1007 H 0.01007 0.17065 0.02132 0.0
H1008 H 0.00745 0.14456 0.02148 0.0
H1009 H 0.02757 0.15825 0.01968 0.0
H1010 H 0.03791 0.1289 1.00448 0.0
H1011 H 0.04267 0.10089 0.01905 0.0
H1012 H 0.1141 0.81984 0.17582 0.0
H1013 H 0.14238 0.81861 0.18975 0.0
H1014 H 0.12244 0.77192 0.21808 0.0
H1015 H 0.09446 0.77268 0.20395 0.0
H1016 H 0.15614 0.82533 0.22655 0.0
H1017 H 0.15862 0.7484 0.1939 0.0
H1018 H 0.14261 0.76106 0.18581 0.0
H1019 H 0.14081 0.74966 0.20654 0.0
C1020 C 0.11578 0.80915 0.18482 0.0
C1021 C 0.10196 0.79625 0.1886 0.0
C1022 C 0.13196 0.80849 0.19283 0.0
C1023 C 0.13465 0.79487 0.20468 0.0
C1024 C 0.12083 0.78215 0.20855 0.0
H1025 H 0.21532 0.80262 0.29377 0.0
H1026 H 0.18986 0.80403 0.2738 0.0
C1027 C 0.10475 0.78273 0.20053 0.0
C1028 C 0.15171 0.79442 0.21378 0.0
H1029 H 0.17853 0.76312 0.22167 0.0
C1030 C 0.16111 0.81177 0.22527 0.0
C1031 C 0.15843 0.77683 0.21192 0.0
C1032 C 0.14966 0.758 0.1987 0.0
C1033 C 0.17663 0.81184 0.23554 0.0
C1034 C 0.1828 0.79395 0.23474 0.0
C1035 C 0.17375 0.77679 0.22258 0.0
C1036 C 0.1983 0.79263 0.24685 0.0
C1037 C 0.1863 0.83116 0.24708 0.0
C1038 C 0.21135 0.78489 0.23854 0.0
C1039 C 0.22587 0.78375 0.25006 0.0
C1040 C 0.22761 0.79031 0.27008 0.0
C1041 C 0.21442 0.79763 0.27837 0.0
C1042 C 0.1999 0.79862 0.26692 0.0
H1043 H 0.18289 0.8439 0.24123 0.0
H1044 H 0.18331 0.83281 0.2621 0.0
H1045 H 0.19992 0.83179 0.24728 0.0
H1046 H 0.21037 0.77994 0.22312 0.0
H1047 H 0.23574 0.77785 0.24329 0.0
H1048 H 0.51184 0.80882 0.42491 0.0
H1049 H 0.5189 0.84362 0.44092 0.0
H1050 H 0.47227 0.83842 0.46464 0.0
H1051 H 0.46509 0.80381 0.44889 0.0
H1052 H 0.48037 0.871 0.44353 0.0
H1053 H 0.53044 0.86736 0.50052 0.0
H1054 H 0.53164 0.85509 0.47639 0.0
H1055 H 0.51505 0.84602 0.48906 0.0
C1056 C 0.50317 0.815 0.43372 0.0
C1057 C 0.48789 0.80346 0.43561 0.0
C1058 C 0.50725 0.83486 0.44288 0.0
C1059 C 0.49612 0.84347 0.45401 0.0
C1060 C 0.48102 0.83198 0.45614 0.0
H1061 H 0.48866 0.96208 0.50972 0.0
H1062 H 0.48324 0.92697 0.49525 0.0
C1063 C 0.47698 0.81216 0.44714 0.0
C1064 C 0.49976 0.86469 0.46275 0.0
H1065 H 0.52448 0.89879 0.4984 0.0
C1066 C 0.49001 0.87714 0.45553 0.0
C1067 C 0.51238 0.87254 0.47829 0.0
C1068 C 0.52297 0.85962 0.48668 0.0
C1069 C 0.49268 0.89739 0.46333 0.0
C1070 C 0.50511 0.90523 0.47918 0.0
C1071 C 0.51491 0.89274 0.48631 0.0
C1072 C 0.50836 0.9264 0.4884 0.0
C1073 C 0.48244 0.91021 0.45418 0.0
C1074 C 0.52442 0.93756 0.49005 0.0
C1075 C 0.52763 0.95751 0.49864 0.0
C1076 C 0.51481 0.96674 0.5057 0.0
C1077 C 0.49877 0.95547 0.50427 0.0
C1078 C 0.49562 0.93543 0.49586 0.0
H1079 H 0.47732 0.90327 0.4391 0.0
H1080 H 0.47178 0.91229 0.46236 0.0
H1081 H 0.48992 0.92495 0.45427 0.0
H1082 H 0.53446 0.93088 0.4845 0.0
H1083 H 0.54014 0.96573 0.4995 0.0
H1084 H 0.49775 0.31021 0.66575 0.0
H1085 H 0.47117 0.30349 0.67807 0.0
H1086 H 0.49274 0.2719 0.71796 0.0
H1087 H 0.51966 0.27878 0.70574 0.0
H1088 H 0.45079 0.26908 0.67942 0.0
H1089 H 0.47297 0.3116 0.75329 0.0
H1090 H 0.48513 0.31316 0.73357 0.0
H1091 H 0.48435 0.29243 0.74547 0.0
C1092 C 0.49689 0.30163 0.67699 0.0
C1093 C 0.51088 0.29497 0.68472 0.0
C1094 C 0.48164 0.29787 0.68408 0.0
C1095 C 0.48 0.28746 0.69914 0.0
C1096 C 0.4938 0.28033 0.7066 0.0
H1097 H 0.39644 0.25643 0.76144 0.0
H1098 H 0.42317 0.25996 0.74868 0.0
C1099 C 0.50914 0.28413 0.69951 0.0
C1100 C 0.46382 0.28429 0.70696 0.0
H1101 H 0.44522 0.29419 0.74768 0.0
C1102 C 0.44957 0.27457 0.69435 0.0
C1103 C 0.46224 0.29153 0.72643 0.0
C1104 C 0.47694 0.30292 0.74047 0.0
C1105 C 0.43381 0.2717 0.7007 0.0
C1106 C 0.43223 0.27903 0.72013 0.0
C1107 C 0.44648 0.2886 0.73279 0.0
C1108 C 0.41589 0.27687 0.72765 0.0
C1109 C 0.41904 0.26057 0.68663 0.0
C1110 C 0.40297 0.28541 0.7202 0.0
C1111 C 0.38759 0.28326 0.72735 0.0
C1112 C 0.38487 0.27261 0.74215 0.0
C1113 C 0.39797 0.26437 0.74977 0.0
C1114 C 0.41331 0.26651 0.7426 0.0
H1115 H 0.42293 0.25162 0.67391 0.0
H1116 H 0.41059 0.25064 0.69356 0.0
H1117 H 0.41193 0.27126 0.68147 0.0
H1118 H 0.40481 0.29381 0.70891 0.0
H1119 H 0.37777 0.28973 0.72112 0.0
H1120 H 0.05746 0.81774 0.65624 0.0
H1121 H 0.0689 0.8402 0.63601 0.0
H1122 H 0.01926 0.84082 0.61048 0.0
H1123 H 0.00765 0.8187 0.63065 0.0
H1124 H 0.06446 0.83481 0.59496 0.0
H1125 H 0.04 0.89947 0.63021 0.0
H1126 H 0.04157 0.87836 0.64125 0.0
H1127 H 0.02431 0.87761 0.62343 0.0
C1128 C 0.04897 0.82274 0.64639 0.0
C1129 C 0.03164 0.81661 0.64516 0.0
C1130 C 0.05554 0.83548 0.63486 0.0
C1131 C 0.04485 0.84228 0.62213 0.0
C1132 C 0.02762 0.83593 0.62058 0.0
H1133 H 0.04425 0.88341 0.52021 0.0
H1134 H 0.0485 0.86432 0.54509 0.0
C1135 C 0.02104 0.82325 0.63206 0.0
C1136 C 0.05152 0.85594 0.61015 0.0
H1137 H 0.04703 0.89985 0.59824 0.0
C1138 C 0.06104 0.84926 0.59587 0.0
C1139 C 0.04723 0.87482 0.61173 0.0
C1140 C 0.03786 0.88309 0.62762 0.0
C1141 C 0.06546 0.86059 0.58214 0.0
C1142 C 0.05988 0.87873 0.5827 0.0
C1143 C 0.0513 0.88591 0.5978 0.0
C1144 C 0.06091 0.88949 0.56674 0.0
C1145 C 0.07564 0.85277 0.56695 0.0
C1146 C 0.06658 0.90993 0.57061 0.0
C1147 C 0.06352 0.92099 0.55665 0.0
C1148 C 0.05495 0.91169 0.5385 0.0
C1149 C 0.05067 0.89101 0.53414 0.0
C1150 C 0.05338 0.88002 0.54826 0.0
H1151 H 0.0841 0.84362 0.57259 0.0
H1152 H 0.06717 0.84319 0.55465 0.0
H1153 H 0.08318 0.86491 0.56162 0.0
H1154 H 0.07229 0.91749 0.58487 0.0
H1155 H 0.06676 0.93691 0.56064 0.0
H1156 H 0.51793 0.80961 0.84732 0.0
H1157 H 0.49686 0.82273 0.82908 0.0
H1158 H 0.45846 0.77829 0.84126 0.0
H1159 H 0.47928 0.76487 0.8589 0.0
H1160 H 0.45458 0.78552 0.80327 0.0
H1161 H 0.46583 0.85388 0.85991 0.0
H1162 H 0.4831 0.84721 0.848 0.0
H1163 H 0.47392 0.83215 0.86362 0.0
C1164 C 0.50503 0.8024 0.84567 0.0
C1165 C 0.50015 0.78639 0.85464 0.0
C1166 C 0.49306 0.80997 0.8354 0.0
C1167 C 0.47619 0.80157 0.8341 0.0
C1168 C 0.47146 0.78493 0.84214 0.0
H1169 H 0.38299 0.82304 0.84114 0.0
H1170 H 0.41274 0.82247 0.84417 0.0
C1171 C 0.48334 0.77738 0.85231 0.0
C1172 C 0.46305 0.81078 0.82597 0.0
H1173 H 0.44128 0.84758 0.83865 0.0
C1174 C 0.45183 0.79939 0.81054 0.0
C1175 C 0.45961 0.82878 0.83579 0.0
C1176 C 0.47115 0.84126 0.85282 0.0
C1177 C 0.43649 0.80466 0.80564 0.0
C1178 C 0.43263 0.82208 0.8162 0.0
C1179 C 0.44444 0.83431 0.83059 0.0
C1180 C 0.41549 0.82587 0.8149 0.0
C1181 C 0.42402 0.79065 0.79043 0.0
C1182 C 0.40742 0.82866 0.79764 0.0
C1183 C 0.39039 0.82886 0.79584 0.0
C1184 C 0.38133 0.82651 0.81138 0.0
C1185 C 0.38971 0.82504 0.82901 0.0
C1186 C 0.40667 0.82469 0.83074 0.0
H1187 H 0.42821 0.77645 0.78567 0.0
H1188 H 0.41182 0.78745 0.79588 0.0
H1189 H 0.42216 0.79756 0.77769 0.0
H1190 H 0.41415 0.82991 0.78539 0.0
H1191 H 0.3842 0.83028 0.78217 0.0
H1192 H 0.50303 0.22301 0.12842 0.0
H1193 H 0.51106 0.19481 0.10927 0.0
H1194 H 0.56177 0.22579 0.11597 0.0
H1195 H 0.55377 0.2549 0.13533 0.0
H1196 H 0.53643 0.20322 0.07332 0.0
H1197 H 0.54996 0.16203 0.13155 0.0
H1198 H 0.53384 0.17674 0.13357 0.0
H1199 H 0.5551 0.18865 0.13517 0.0
C1200 C 0.51599 0.22395 0.12611 0.0
C1201 C 0.52782 0.24125 0.13333 0.0
C1202 C 0.52047 0.20779 0.11508 0.0
C1203 C 0.53689 0.20848 0.11122 0.0
C1204 C 0.54899 0.2253 0.11885 0.0
H1205 H 0.5585 0.09644 0.05846 0.0
H1206 H 0.56244 0.13036 0.07538 0.0
C1207 C 0.54446 0.24174 0.12994 0.0
C1208 C 0.54086 0.19132 0.09886 0.0
H1209 H 0.54495 0.14398 0.09969 0.0
C1210 C 0.53882 0.19035 0.07896 0.0
C1211 C 0.54366 0.17473 0.10647 0.0
C1212 C 0.54584 0.17544 0.12788 0.0
C1213 C 0.53908 0.17275 0.06625 0.0
C1214 C 0.54093 0.15571 0.07384 0.0
C1215 C 0.54357 0.15704 0.09385 0.0
C1216 C 0.5396 0.13614 0.0615 0.0
C1217 C 0.53719 0.17264 0.04494 0.0
C1218 C 0.52561 0.12814 0.04783 0.0
C1219 C 0.52384 0.10894 0.03742 0.0
C1220 C 0.53565 0.09727 0.04122 0.0
C1221 C 0.54946 0.10519 0.055 0.0
C1222 C 0.55162 0.12458 0.06478 0.0
H1223 H 0.54187 0.18749 0.04196 0.0
H1224 H 0.54397 0.16188 0.03711 0.0
H1225 H 0.5238 0.16862 0.03918 0.0
H1226 H 0.51578 0.13645 0.04564 0.0
H1227 H 0.51283 0.1029 0.02718 0.0
H1228 H 0.08594 0.28007 0.40711 0.0
H1229 H 0.11381 0.27975 0.39819 0.0
H1230 H 0.11354 0.3347 0.3786 0.0
H1231 H 0.08542 0.33498 0.38712 0.0
H1232 H 0.11651 0.30408 0.35056 0.0
H1233 H 0.16176 0.30753 0.4143 0.0
H1234 H 0.14307 0.28995 0.41351 0.0
H1235 H 0.14209 0.31578 0.4161 0.0
C1236 C 0.09199 0.29243 0.40148 0.0
C1237 C 0.0834 0.30738 0.39747 0.0
C1238 C 0.10801 0.29232 0.39658 0.0
C1239 C 0.11573 0.30728 0.3879 0.0
C1240 C 0.10776 0.32311 0.38544 0.0
H1241 H 0.19218 0.29579 0.31181 0.0
H1242 H 0.17418 0.31061 0.33344 0.0
C1243 C 0.09169 0.32319 0.39024 0.0
C1244 C 0.13025 0.3042 0.37791 0.0
H1245 H 0.16881 0.29226 0.38368 0.0
C1246 C 0.12812 0.30198 0.35782 0.0
C1247 C 0.14519 0.30113 0.38747 0.0
C1248 C 0.14823 0.3039 0.40906 0.0
C1249 C 0.14027 0.29586 0.3469 0.0
C1250 C 0.15503 0.29231 0.35643 0.0
C1251 C 0.15743 0.29509 0.37654 0.0
C1252 C 0.1676 0.28451 0.34553 0.0
C1253 C 0.13683 0.29227 0.32522 0.0
C1254 C 0.17023 0.26527 0.34588 0.0
C1255 C 0.18049 0.2568 0.33362 0.0
C1256 C 0.18813 0.26753 0.32088 0.0
C1257 C 0.18609 0.28713 0.32125 0.0
C1258 C 0.17594 0.29561 0.3336 0.0
H1259 H 0.12348 0.29166 0.32021 0.0
H1260 H 0.14424 0.30447 0.31988 0.0
H1261 H 0.14048 0.27824 0.31864 0.0
H1262 H 0.16382 0.25656 0.35507 0.0
H1263 H 0.18194 0.24168 0.33355 0.0
H1264 H 0.91579 0.01958 0.19424 0.0
H1265 H 0.92891 0.01638 0.16415 0.0
H1266 H 0.96851 0.06427 0.19087 0.0
H1267 H 0.95592 0.06724 0.22051 0.0
H1268 H 0.9379 0.04056 0.13813 0.0
H1269 H 0.99593 0.02437 0.17226 0.0
H1270 H 0.97751 0.02429 0.18425 0.0
H1271 H 0.99136 0.04715 0.18448 0.0
C1272 C 0.9273 0.02942 0.19373 0.0
C1273 C 0.93471 0.04355 0.21027 0.0
C1274 C 0.93487 0.02759 0.17639 0.0
C1275 C 0.95015 0.03972 0.175 0.0
C1276 C 0.95713 0.05417 0.19132 0.0
H1277 H 0.02362 0.06403 0.09761 0.0
H1278 H 1.00585 0.06203 0.12297 0.0
C1279 C 0.9497 0.05595 0.20847 0.0
C1280 C 0.95904 0.0376 0.15694 0.0
H1281 H 0.99735 0.03424 0.14193 0.0
C1282 C 0.95084 0.03892 0.13898 0.0
C1283 C 0.97603 0.0354 0.15754 0.0
C1284 C 0.98567 0.03251 0.17561 0.0
C1285 C 0.9592 0.03905 0.12226 0.0
C1286 C 0.97634 0.03749 0.12309 0.0
C1287 C 0.98434 0.03561 0.14092 0.0
C1288 C 0.98661 0.03891 0.10631 0.0
C1289 C 0.9497 0.04173 0.10403 0.0
C1290 C 0.98213 0.02664 0.08785 0.0
C1291 C 0.99252 0.0278 0.07296 0.0
C1292 C 0.00772 0.04131 0.07602 0.0
C1293 C 0.01203 0.05352 0.0944 0.0
C1294 C 1.00178 0.05234 0.10914 0.0
H1295 H 0.93826 0.04777 0.10686 0.0
H1296 H 0.95754 0.05176 0.09659 0.0
H1297 H 0.9459 0.0272 0.09419 0.0
H1298 H 0.97082 0.0157 0.08506 0.0
H1299 H 0.98888 0.01772 0.05931 0.0
H1300 H 0.33351 0.73369 0.49107 0.0
H1301 H 0.32353 0.76243 0.48262 0.0
H1302 H 0.29991 0.76978 0.53452 0.0
H1303 H 0.30967 0.74058 0.5427 0.0
H1304 H 0.27813 0.76406 0.50372 0.0
H1305 H 0.32999 0.82128 0.49564 0.0
H1306 H 0.3338 0.7977 0.48449 0.0
H1307 H 0.33277 0.80289 0.51005 0.0
C1308 C 0.327 0.74216 0.50114 0.0
C1309 C 0.32263 0.73544 0.51767 0.0
C1310 C 0.32133 0.75861 0.49639 0.0
C1311 C 0.31124 0.76849 0.50816 0.0
C1312 C 0.30792 0.76257 0.52547 0.0
H1313 H 0.27197 0.83524 0.42905 0.0
H1314 H 0.27863 0.83131 0.46221 0.0
C1315 C 0.31356 0.74604 0.53018 0.0
C1316 C 0.30141 0.78169 0.50014 0.0
H1317 H 0.30533 0.81513 0.47077 0.0
C1318 C 0.28401 0.77585 0.49718 0.0
C1319 C 0.30898 0.79728 0.4919 0.0
C1320 C 0.32742 0.80525 0.4959 0.0
C1321 C 0.27426 0.78345 0.48416 0.0
C1322 C 0.28221 0.79684 0.47374 0.0
C1323 C 0.29926 0.8046 0.4786 0.0
C1324 C 0.27419 0.79942 0.45523 0.0
C1325 C 0.25574 0.77589 0.48055 0.0
C1326 C 0.26905 0.78275 0.44053 0.0
C1327 C 0.26548 0.78491 0.42165 0.0
C1328 C 0.26709 0.80382 0.41713 0.0
C1329 C 0.27083 0.82048 0.43211 0.0
C1330 C 0.27454 0.81829 0.45104 0.0
H1331 H 0.25086 0.77291 0.494 0.0
H1332 H 0.24895 0.78656 0.47479 0.0
H1333 H 0.25316 0.76175 0.47 0.0
H1334 H 0.26918 0.76805 0.44337 0.0
H1335 H 0.26296 0.77178 0.41048 0.0
H1336 H 0.63248 0.02683 0.71985 0.0
H1337 H 0.61944 0.03105 0.68851 0.0
H1338 H 0.57502 0.99171 0.69481 0.0
H1339 H 0.5876 0.98796 0.72592 0.0
H1340 H 0.60691 1.00752 0.65412 0.0
H1341 H 0.55426 0.03674 0.68412 0.0
H1342 H 0.57204 0.03348 0.6993 0.0
H1343 H 0.55536 0.01296 0.68969 0.0
C1344 C 0.61994 0.01907 0.71455 0.0
C1345 C 0.61114 1.00721 0.72579 0.0
C1346 C 0.61243 0.02151 0.69654 0.0
C1347 C 0.5959 0.01221 0.68923 0.0
C1348 C 0.58748 0.99974 0.70013 0.0
H1349 H 0.52261 0.99815 0.58876 0.0
H1350 H 0.53945 0.99694 0.61857 0.0
C1351 C 0.59485 0.99745 0.71805 0.0
C1352 C 0.5873 0.01526 0.6704 0.0
H1353 H 0.55089 0.02565 0.65004 0.0
C1354 C 0.59475 0.01172 0.65334 0.0
C1355 C 0.57137 0.02085 0.66898 0.0
C1356 C 0.56288 0.02643 0.68653 0.0
C1357 C 0.58655 0.01276 0.63516 0.0
C1358 C 0.57041 0.01773 0.63374 0.0
C1359 C 0.56315 0.02168 0.65084 0.0
C1360 C 0.56052 0.01826 0.6148 0.0
C1361 C 0.59503 1.0078 0.61749 0.0
C1362 C 0.56646 0.03075 0.60236 0.0
C1363 C 0.5567 0.03154 0.58514 0.0
C1364 C 0.5407 0.01983 0.57981 0.0
C1365 C 0.53486 1.00733 0.59221 0.0
C1366 C 0.54452 1.00665 0.60941 0.0
H1367 H 0.60525 0.99959 0.6202 0.0
H1368 H 0.58601 0.99883 0.60534 0.0
H1369 H 0.60048 0.02168 0.61311 0.0
H1370 H 0.57853 0.04025 0.60616 0.0
H1371 H 0.5616 0.04151 0.57613 0.0
H1372 H 0.32715 0.35045 0.99704 0.0
H1373 H 0.32044 0.33567 0.96307 0.0
H1374 H 0.2744 0.35795 0.96149 0.0
H1375 H 0.28131 0.3735 0.99552 0.0
H1376 H 0.29598 0.30832 0.94325 0.0
H1377 H 0.29368 0.37846 0.91762 0.0
H1378 H 0.30121 0.37789 0.94209 0.0
H1379 H 0.27919 0.37372 0.93437 0.0
C1380 C 0.31554 0.35221 0.98957 0.0
C1381 C 0.30484 0.36334 0.99909 0.0
C1382 C 0.31173 0.34372 0.97007 0.0
C1383 C 0.29708 0.34602 0.95955 0.0
C1384 C 0.28601 0.35644 0.96913 0.0
H1385 H 0.2572 0.30142 0.83903 0.0
H1386 H 0.26083 0.3153 0.87348 0.0
C1387 C 0.2899 0.36516 0.98867 0.0
C1388 C 0.29358 0.33742 0.93861 0.0
H1389 H 0.28604 0.34897 0.89424 0.0
C1390 C 0.29382 0.31725 0.93256 0.0
C1391 C 0.29083 0.34905 0.92459 0.0
C1392 C 0.29136 0.37101 0.92994 0.0
C1393 C 0.29133 0.30841 0.91299 0.0
C1394 C 0.28858 0.32004 0.89906 0.0
C1395 C 0.28811 0.34011 0.90501 0.0
C1396 C 0.28647 0.31168 0.87819 0.0
C1397 C 0.29154 0.28665 0.90731 0.0
C1398 C 0.29977 0.30526 0.86941 0.0
C1399 C 0.29779 0.29741 0.84971 0.0
C1400 C 0.28243 0.29578 0.83843 0.0
C1401 C 0.26916 0.30234 0.84729 0.0
C1402 C 0.27121 0.31032 0.86697 0.0
H1403 H 0.29025 0.27897 0.91965 0.0
H1404 H 0.28136 0.2795 0.8956 0.0
H1405 H 0.30354 0.28467 0.9019 0.0
H1406 H 0.31172 0.30642 0.8778 0.0
H1407 H 0.30828 0.29254 0.84337 0.0
H1408 H 0.91759 0.05682 0.33546 0.0
H1409 H 0.9327 0.05604 0.36662 0.0
H1410 H 0.95902 0.01282 0.33864 0.0
H1411 H 0.9446 0.01437 0.30746 0.0
H1412 H 0.93512 0.03159 0.38888 0.0
H1413 H 0.99832 0.0479 0.36814 0.0
H1414 H 0.98012 0.04921 0.35255 0.0
H1415 H 0.98663 0.02585 0.35312 0.0
C1416 C 0.92662 0.04715 0.3359 0.0
C1417 C 0.92987 0.03577 0.31871 0.0
C1418 C 0.93534 0.04671 0.35387 0.0
C1419 C 0.94759 0.03481 0.35535 0.0
C1420 C 0.95029 0.02282 0.33821 0.0
H1421 H 0.00712 1.00288 0.45022 0.0
H1422 H 0.99196 1.00521 0.41968 0.0
C1423 C 0.94179 0.0235 0.32024 0.0
C1424 C 0.95721 0.03469 0.37468 0.0
H1425 H 0.99638 0.03641 0.39763 0.0
C1426 C 0.94853 0.03286 0.3907 0.0
C1427 C 0.97485 0.03642 0.37759 0.0
C1428 C 0.98553 0.04017 0.36199 0.0
C1429 C 0.95675 0.03222 0.40896 0.0
C1430 C 0.97427 0.03344 0.41163 0.0
C1431 C 0.98298 0.03535 0.39574 0.0
C1432 C 0.98372 0.03238 0.43061 0.0
C1433 C 0.94654 0.02974 0.42522 0.0
C1434 C 0.98455 0.04702 0.44721 0.0
C1435 C 0.99348 0.04587 0.46483 0.0
C1436 C 1.00176 0.02995 0.46644 0.0
C1437 C 1.00097 0.0154 0.44974 0.0
C1438 C 0.99224 0.01669 0.43213 0.0
H1439 H 0.93303 0.02519 0.42006 0.0
H1440 H 0.95059 0.01859 0.43307 0.0
H1441 H 0.9484 0.04399 0.43554 0.0
H1442 H 0.97835 0.05946 0.44654 0.0
H1443 H 0.99368 0.05733 0.47726 0.0
H1444 H 0.31905 0.68008 0.59275 0.0
H1445 H 0.30957 0.69411 0.62271 0.0
H1446 H 0.2695 0.71241 0.59077 0.0
H1447 H 0.27934 0.69907 0.56066 0.0
H1448 H 0.28929 0.74255 0.61721 0.0
H1449 H 0.27045 0.67856 0.65134 0.0
H1450 H 0.29047 0.67859 0.6431 0.0
H1451 H 0.2723 0.67597 0.62596 0.0
C1452 C 0.30799 0.68668 0.5921 0.0
C1453 C 0.29978 0.68823 0.57439 0.0
C1454 C 0.3025 0.69452 0.6092 0.0
C1455 C 0.28866 0.70392 0.60887 0.0
C1456 C 0.28005 0.70489 0.59122 0.0
H1457 H 0.26645 0.78037 0.71158 0.0
H1458 H 0.26342 0.76188 0.67841 0.0
C1459 C 0.28556 0.69706 0.57406 0.0
C1460 C 0.28474 0.7149 0.62696 0.0
H1461 H 0.27908 0.71027 0.67286 0.0
C1462 C 0.28662 0.7355 0.62928 0.0
C1463 C 0.28131 0.70558 0.64259 0.0
C1464 C 0.27835 0.68343 0.64057 0.0
C1465 C 0.28629 0.74719 0.64728 0.0
C1466 C 0.28386 0.73789 0.66313 0.0
C1467 C 0.28106 0.71726 0.66059 0.0
C1468 C 0.28561 0.74936 0.68276 0.0
C1469 C 0.28952 0.76937 0.64949 0.0
C1470 C 0.29906 0.74831 0.69595 0.0
C1471 C 0.30074 0.7587 0.71477 0.0
C1472 C 0.28891 0.77015 0.7206 0.0
C1473 C 0.27565 0.77154 0.70728 0.0
C1474 C 0.27394 0.76108 0.68844 0.0
H1475 H 0.29353 0.77425 0.63633 0.0
H1476 H 0.27795 0.775 0.65253 0.0
H1477 H 0.29924 0.77618 0.66179 0.0
H1478 H 0.30818 0.73931 0.6917 0.0
H1479 H 0.31102 0.75733 0.72486 0.0
H1480 H 0.60961 0.04641 0.83138 0.0
H1481 H 0.59811 0.05158 0.86208 0.0
H1482 H 0.62486 0.00886 0.88126 0.0
H1483 H 0.63724 1.00484 0.85126 0.0
H1484 H 0.57844 0.03242 0.87866 0.0
H1485 H 0.63601 0.04657 0.92912 0.0
H1486 H 0.63651 0.04503 0.90368 0.0
H1487 H 0.63391 0.02293 0.9138 0.0
C1488 C 0.61334 0.03844 0.84231 0.0
C1489 C 0.62464 0.02544 0.83877 0.0
C1490 C 0.60663 0.04129 0.85997 0.0
C1491 C 0.61074 0.03103 0.87467 0.0
C1492 C 0.62184 0.01777 0.8709 0.0
H1493 H 0.54335 0.01729 0.96331 0.0
H1494 H 0.55726 0.01453 0.93446 0.0
C1495 C 0.62887 0.01529 0.85347 0.0
C1496 C 0.60284 0.03354 0.89333 0.0
H1497 H 0.61067 0.03811 0.94235 0.0
C1498 C 0.58565 0.03388 0.89254 0.0
C1499 C 0.61194 0.03586 0.91187 0.0
C1500 C 0.63063 0.03781 0.91469 0.0
C1501 C 0.57744 0.03616 0.90924 0.0
C1502 C 0.58632 0.0371 0.92764 0.0
C1503 C 0.60356 0.03709 0.92849 0.0
C1504 C 0.57809 0.03822 0.94604 0.0
C1505 C 0.55939 0.03828 0.9068 0.0
C1506 C 0.58543 0.0515 0.96316 0.0
C1507 C 0.57768 0.05259 0.98018 0.0
C1508 C 0.5622 0.04063 0.98056 0.0
C1509 C 0.55506 0.0271 0.9636 0.0
C1510 C 0.56299 0.02566 0.94683 0.0
H1511 H 0.55642 0.04466 0.89393 0.0
H1512 H 0.5514 0.02349 0.90462 0.0
H1513 H 0.55613 0.04788 0.91952 0.0
H1514 H 0.59712 0.0613 0.96337 0.0
H1515 H 0.58367 0.06308 0.99292 0.0
H1516 H 0.31851 0.34256 0.09023 0.0
H1517 H 0.31272 0.32677 0.11736 0.0
H1518 H 0.27602 0.36311 0.13076 0.0
H1519 H 0.28152 0.37882 0.10319 0.0
H1520 H 0.31737 0.34312 0.15456 0.0
H1521 H 0.25072 0.30954 0.13349 0.0
H1522 H 0.26354 0.3195 0.11696 0.0
H1523 H 0.25508 0.33569 0.13444 0.0
C1524 C 0.30897 0.34701 0.09869 0.0
C1525 C 0.30041 0.36193 0.09437 0.0
C1526 C 0.30573 0.338 0.11431 0.0
C1527 C 0.29386 0.3436 0.12611 0.0
C1528 C 0.28501 0.35821 0.12168 0.0
H1529 H 0.29038 0.31322 0.24102 0.0
H1530 H 0.29593 0.33092 0.21474 0.0
C1531 C 0.28816 0.3672 0.10588 0.0
C1532 C 0.29139 0.33459 0.14338 0.0
H1533 H 0.26241 0.3079 0.16471 0.0
C1534 C 0.30534 0.33543 0.15678 0.0
C1535 C 0.27574 0.32438 0.14623 0.0
C1536 C 0.26044 0.32202 0.13194 0.0
C1537 C 0.30411 0.32623 0.17279 0.0
C1538 C 0.28841 0.31629 0.1758 0.0
C1539 C 0.27444 0.31561 0.1625 0.0
C1540 C 0.28624 0.30559 0.19203 0.0
C1541 C 0.31975 0.32669 0.18593 0.0
C1542 C 0.27888 0.28554 0.18813 0.0
C1543 C 0.27582 0.27548 0.20311 0.0
C1544 C 0.28014 0.28515 0.22236 0.0
C1545 C 0.28769 0.30516 0.22636 0.0
C1546 C 0.29069 0.31532 0.21131 0.0
H1547 H 0.33111 0.33012 0.17887 0.0
H1548 H 0.32053 0.33834 0.1989 0.0
H1549 H 0.3197 0.31236 0.19063 0.0
H1550 H 0.27524 0.2777 0.17344 0.0
H1551 H 0.26968 0.26016 0.19961 0.0
H1552 H 0.19964 0.88936 0.022 0.0
H1553 H 0.17712 0.90823 0.02274 0.0
H1554 H 0.18998 0.9277 0.97089 0.0
H1555 H 0.2127 0.90909 0.9701 0.0
H1556 H 0.19245 0.95779 1.0032 0.0
H1557 H 0.13152 0.90694 0.99271 0.0
H1558 H 0.14696 0.90178 0.00976 0.0
H1559 H 0.15015 0.89912 0.98487 0.0
C1560 C 0.19732 0.89706 0.01035 0.0
C1561 C 0.20808 0.89798 0.99613 0.0
C1562 C 0.18438 0.90776 0.01077 0.0
C1563 C 0.18193 0.91925 0.99684 0.0
C1564 C 0.19171 0.91881 0.9817 0.0
H1565 H 0.13188 0.0201 1.00042 0.0
H1566 H 0.14761 0.99403 0.99054 0.0
C1567 C 0.20467 0.90818 0.9813 0.0
C1568 C 0.1713 0.93425 0.99994 0.0
H1569 H 0.13175 0.94079 1.00599 0.0
C1570 C 0.17912 0.95412 1.00353 0.0
C1571 C 0.15405 0.92927 1.00067 0.0
C1572 C 0.14512 0.90812 0.99665 0.0
C1573 C 0.17017 0.96927 0.00833 0.0
C1574 C 0.15289 0.96431 0.00909 0.0
C1575 C 0.14502 0.94444 1.00528 0.0
C1576 C 0.14289 0.97956 0.01451 0.0
C1577 C 0.1794 0.99035 0.01327 0.0
C1578 C 0.13471 0.9796 0.03092 0.0
C1579 C 0.12547 0.9942 0.03639 0.0
C1580 C 0.12437 0.00907 0.02558 0.0
C1581 C 0.13249 0.00885 0.00903 0.0
C1582 C 0.14159 0.9941 1.00346 0.0
H1583 H 0.193 0.99119 0.0168 0.0
H1584 H 0.17748 0.99755 1.00073 0.0
H1585 H 0.17472 0.99887 0.02565 0.0
H1586 H 0.13553 0.96837 0.03953 0.0
H1587 H 0.11898 0.99365 0.04892 0.0
H1588 H 0.69762 0.64298 0.00891 0.0
H1589 H 0.66902 0.62926 0.01355 0.0
H1590 H 0.67697 0.57077 0.99055 0.0
H1591 H 0.70534 0.58415 0.98619 0.0
H1592 H 0.64192 0.60677 0.98783 0.0
H1593 H 0.66104 0.56376 0.04159 0.0
H1594 H 0.67543 0.5828 0.03452 0.0
H1595 H 0.67029 0.55843 0.01985 0.0
C1596 C 0.69326 0.6272 1.00486 0.0
C1597 C 0.70391 0.61469 0.99733 0.0
C1598 C 0.67689 0.61937 0.0075 0.0
C1599 C 0.67089 0.59889 1.00279 0.0
C1600 C 0.68137 0.58653 0.99478 0.0
H1601 H 0.58335 0.51182 0.99665 0.0
H1602 H 0.61054 0.53177 0.99588 0.0
C1603 C 0.69764 0.59428 0.99219 0.0
C1604 C 0.65375 0.59018 1.00608 0.0
H1605 H 0.63273 0.55473 0.02694 0.0
C1606 C 0.63989 0.59561 0.99661 0.0
C1607 C 0.65103 0.57565 0.0176 0.0
C1608 C 0.66524 0.56995 0.02913 0.0
C1609 C 0.62351 0.5862 0.99759 0.0
C1610 C 0.62087 0.57112 0.00852 0.0
C1611 C 0.6347 0.56619 0.01847 0.0
C1612 C 0.60403 0.55938 0.00891 0.0
C1613 C 0.60918 0.59185 0.98627 0.0
C1614 C 0.59123 0.56816 0.01667 0.0
C1615 C 0.57559 0.55668 0.01719 0.0
C1616 C 0.57246 0.53623 0.00991 0.0
C1617 C 0.58532 0.52753 1.00229 0.0
C1618 C 0.6009 0.53894 1.00185 0.0
H1619 H 0.61345 0.60087 0.97566 0.0
H1620 H 0.60031 0.57849 0.97853 0.0
H1621 H 0.60236 0.60064 0.99629 0.0
H1622 H 0.5934 0.58383 0.02257 0.0
H1623 H 0.56605 0.56374 0.02342 0.0
H1624 H 0.70163 0.47146 0.30906 0.0
H1625 H 0.71387 0.4418 0.30305 0.0
H1626 H 0.67283 0.41442 0.2594 0.0
H1627 H 0.66096 0.44468 0.26477 0.0
H1628 H 0.7064 0.40762 0.30848 0.0
H1629 H 0.70683 0.39638 0.22976 0.0
H1630 H 0.70186 0.41853 0.24323 0.0
H1631 H 0.68623 0.39643 0.23616 0.0
C1632 C 0.69531 0.45934 0.29782 0.0
C1633 C 0.68032 0.46093 0.28723 0.0
C1634 C 0.70234 0.4421 0.29446 0.0
C1635 C 0.69466 0.42543 0.28047 0.0
C1636 C 0.67961 0.42696 0.26982 0.0
H1637 H 0.71827 0.30377 0.25505 0.0
H1638 H 0.70443 0.33272 0.25757 0.0
C1639 C 0.67269 0.44443 0.27297 0.0
C1640 C 0.70212 0.40653 0.27794 0.0
H1641 H 0.71279 0.37001 0.24468 0.0
C1642 C 0.70783 0.39962 0.29443 0.0
C1643 C 0.70417 0.3955 0.25974 0.0
C1644 C 0.69961 0.40219 0.24124 0.0
C1645 C 0.71524 0.38253 0.29331 0.0
C1646 C 0.71719 0.37155 0.27516 0.0
C1647 C 0.71131 0.37816 0.25865 0.0
C1648 C 0.72574 0.35364 0.27318 0.0
C1649 C 0.72077 0.3762 0.31171 0.0
C1650 C 0.7425 0.35538 0.28078 0.0
C1651 C 0.7505 0.33885 0.2792 0.0
C1652 C 0.74206 0.31979 0.27002 0.0
C1653 C 0.72528 0.31803 0.26229 0.0
C1654 C 0.71731 0.3347 0.2637 0.0
H1655 H 0.71475 0.38291 0.32394 0.0
H1656 H 0.71789 0.35989 0.31009 0.0
H1657 H 0.73443 0.38099 0.31533 0.0
H1658 H 0.74954 0.36967 0.28791 0.0
H1659 H 0.76338 0.34107 0.28539 0.0
H1660 H 0.81432 0.42201 0.54613 0.0
H1661 H 0.83951 0.4403 0.53755 0.0
H1662 H 0.80991 0.46417 0.49724 0.0
H1663 H 0.78451 0.44554 0.50551 0.0
H1664 H 0.83525 0.4463 0.48184 0.0
H1665 H 0.85938 0.49938 0.54968 0.0
H1666 H 0.85387 0.47456 0.55341 0.0
H1667 H 0.83797 0.48678 0.54441 0.0
C1668 C 0.81315 0.4313 0.53558 0.0
C1669 C 0.7975 0.43234 0.52643 0.0
C1670 C 0.82752 0.44188 0.53085 0.0
C1671 C 0.82646 0.45377 0.51701 0.0
C1672 C 0.81086 0.4552 0.50812 0.0
H1673 H 0.92292 0.51616 0.49891 0.0
H1674 H 0.89302 0.51008 0.50126 0.0
C1675 C 0.79642 0.44462 0.51289 0.0
C1676 C 0.84181 0.46312 0.51071 0.0
H1677 H 0.87956 0.49173 0.52821 0.0
C1678 C 0.84483 0.45662 0.4918 0.0
C1679 C 0.85412 0.47669 0.52372 0.0
C1680 C 0.85112 0.48492 0.54389 0.0
C1681 C 0.86038 0.46235 0.48591 0.0
C1682 C 0.87315 0.47462 0.49941 0.0
C1683 C 0.86974 0.48218 0.51793 0.0
C1684 C 0.89052 0.47827 0.49538 0.0
C1685 C 0.86313 0.45477 0.46549 0.0
C1686 C 0.89888 0.46236 0.49122 0.0
C1687 C 0.9159 0.46577 0.48995 0.0
C1688 C 0.92483 0.48515 0.49303 0.0
C1689 C 0.91633 0.50107 0.49666 0.0
C1690 C 0.89929 0.49764 0.49788 0.0
H1691 H 0.85128 0.45152 0.45565 0.0
H1692 H 0.87223 0.46556 0.46025 0.0
H1693 H 0.86804 0.44082 0.46483 0.0
H1694 H 0.89239 0.44731 0.48981 0.0
H1695 H 0.92219 0.45325 0.48745 0.0
H1696 H 0.36039 0.09399 0.30289 0.0
H1697 H 0.34581 0.12091 0.29887 0.0
H1698 H 0.37352 0.13234 0.25225 0.0
H1699 H 0.38804 0.10478 0.25595 0.0
H1700 H 0.35531 0.1585 0.30395 0.0
H1701 H 0.32881 0.13514 0.22743 0.0
H1702 H 0.33843 0.11905 0.24036 0.0
H1703 H 0.35105 0.1379 0.23104 0.0
C1704 C 0.36334 0.10194 0.29152 0.0
C1705 C 0.37548 0.09676 0.27965 0.0
C1706 C 0.35493 0.1176 0.28929 0.0
C1707 C 0.35818 0.12894 0.2751 0.0
C1708 C 0.37024 0.12377 0.26305 0.0
H1709 H 0.3282 0.24656 0.28318 0.0
H1710 H 0.34356 0.21935 0.28348 0.0
C1711 C 0.37866 0.1079 0.26521 0.0
C1712 C 0.34932 0.14634 0.27369 0.0
H1713 H 0.32563 0.16696 0.24295 0.0
C1714 C 0.34887 0.16023 0.29052 0.0
C1715 C 0.34057 0.14893 0.25636 0.0
C1716 C 0.33956 0.13438 0.2378 0.0
C1717 C 0.34023 0.17625 0.29054 0.0
C1718 C 0.33181 0.17907 0.27315 0.0
C1719 C 0.33212 0.16516 0.25632 0.0
C1720 C 0.32241 0.19605 0.2723 0.0
C1721 C 0.33981 0.18973 0.30943 0.0
C1722 C 0.3053 0.19252 0.2654 0.0
C1723 C 0.29639 0.20821 0.26521 0.0
C1724 C 0.30429 0.2281 0.27168 0.0
C1725 C 0.32151 0.23161 0.27814 0.0
C1726 C 0.33037 0.21591 0.27844 0.0
H1727 H 0.34284 0.18275 0.32186 0.0
H1728 H 0.34916 0.20339 0.31069 0.0
H1729 H 0.32738 0.19396 0.31031 0.0
H1730 H 0.2987 0.17751 0.26045 0.0
H1731 H 0.28322 0.20469 0.26004 0.0
H1732 H 0.31328 0.15147 0.49573 0.0
H1733 H 0.33903 0.1389 0.50088 0.0
H1734 H 0.31455 0.09704 0.53175 0.0
H1735 H 0.2885 0.10929 0.52623 0.0
H1736 H 0.35874 0.1372 0.53204 0.0
H1737 H 0.3335 0.06099 0.49267 0.0
H1738 H 0.32222 0.08101 0.49204 0.0
H1739 H 0.32229 0.06873 0.51226 0.0
C1740 C 0.31334 0.13968 0.50376 0.0
C1741 C 0.29876 0.13137 0.51055 0.0
C1742 C 0.32812 0.13247 0.50665 0.0
C1743 C 0.32871 0.11673 0.51638 0.0
C1744 C 0.31433 0.10883 0.52376 0.0
H1745 H 0.42163 0.0845 0.55939 0.0
H1746 H 0.39585 0.09731 0.55588 0.0
C1747 C 0.29947 0.11598 0.52076 0.0
C1748 C 0.34441 0.10871 0.51867 0.0
H1749 H 0.36071 0.06653 0.50946 0.0
C1750 C 0.35916 0.12174 0.52708 0.0
C1751 C 0.34507 0.08861 0.51188 0.0
C1752 C 0.32997 0.07405 0.50153 0.0
C1753 C 0.37447 0.11524 0.52907 0.0
C1754 C 0.37502 0.095 0.52292 0.0
C1755 C 0.3603 0.082 0.51434 0.0
C1756 C 0.39073 0.08702 0.52509 0.0
C1757 C 0.38995 0.13026 0.53728 0.0
C1758 C 0.39628 0.07635 0.50906 0.0
C1759 C 0.41087 0.06851 0.51109 0.0
C1760 C 0.4203 0.07117 0.52922 0.0
C1761 C 0.41469 0.08193 0.54522 0.0
C1762 C 0.40002 0.08956 0.5432 0.0
H1763 H 0.38833 0.14539 0.53569 0.0
H1764 H 0.39264 0.13036 0.55286 0.0
H1765 H 0.40088 0.12671 0.53019 0.0
H1766 H 0.38928 0.07404 0.49494 0.0
H1767 H 0.41455 0.06001 0.49848 0.0
H1768 H 0.66596 0.56645 0.2726 0.0
H1769 H 0.68115 0.59844 0.26827 0.0
H1770 H 0.71543 0.60077 0.31855 0.0
H1771 H 0.70065 0.56896 0.32274 0.0
H1772 H 0.68766 0.6356 0.29006 0.0
H1773 H 0.74819 0.61216 0.28199 0.0
H1774 H 0.72932 0.59468 0.2814 0.0
H1775 H 0.74073 0.60784 0.30403 0.0
C1776 C 0.67683 0.57364 0.28265 0.0
C1777 C 0.68202 0.56467 0.29794 0.0
C1778 C 0.68554 0.59211 0.28019 0.0
C1779 C 0.69983 0.6022 0.2928 0.0
C1780 C 0.70484 0.59335 0.30818 0.0
H1781 H 0.7721 0.71237 0.31024 0.0
H1782 H 0.75492 0.68073 0.3113 0.0
C1783 C 0.69619 0.575 0.31065 0.0
C1784 C 0.70936 0.62198 0.29025 0.0
H1785 H 0.74857 0.64679 0.28761 0.0
C1786 C 0.70096 0.63793 0.28934 0.0
C1787 C 0.72681 0.62544 0.2893 0.0
C1788 C 0.73677 0.60908 0.28903 0.0
C1789 C 0.70944 0.65704 0.28824 0.0
C1790 C 0.72693 0.66055 0.28759 0.0
C1791 C 0.73525 0.64449 0.28819 0.0
C1792 C 0.73702 0.68069 0.28698 0.0
C1793 C 0.69955 0.67347 0.28857 0.0
C1794 C 0.73303 0.69179 0.27293 0.0
C1795 C 0.74295 0.71022 0.27236 0.0
C1796 C 0.75727 0.71808 0.28572 0.0
C1797 C 0.76119 0.70698 0.29971 0.0
C1798 C 0.75132 0.68869 0.3003 0.0
H1799 H 0.68769 0.67002 0.29469 0.0
H1800 H 0.70679 0.6876 0.29708 0.0
H1801 H 0.69641 0.67551 0.27363 0.0
H1802 H 0.72243 0.68605 0.26208 0.0
H1803 H 0.73955 0.71815 0.26126 0.0
H1804 H 0.88337 0.48913 0.75518 0.0
H1805 H 0.86726 0.45527 0.75028 0.0
H1806 H 0.8491 0.4695 0.80494 0.0
H1807 H 0.86432 0.50292 0.80955 0.0
H1808 H 0.86766 0.42512 0.76873 0.0
H1809 H 0.80594 0.44571 0.774 0.0
H1810 H 0.82392 0.46343 0.77194 0.0
H1811 H 0.81995 0.45771 0.79504 0.0
C1812 C 0.87573 0.48514 0.766 0.0
C1813 C 0.87511 0.49919 0.78265 0.0
C1814 C 0.86653 0.46565 0.76324 0.0
C1815 C 0.85643 0.45966 0.77698 0.0
C1816 C 0.85614 0.47361 0.79367 0.0
H1817 H 0.80137 0.35415 0.80581 0.0
H1818 H 0.81686 0.38661 0.80417 0.0
C1819 C 0.8651 0.49293 0.79635 0.0
C1820 C 0.84654 0.43891 0.77449 0.0
H1821 H 0.80822 0.41313 0.77911 0.0
C1822 C 0.8546 0.42256 0.7707 0.0
C1823 C 0.82937 0.43516 0.77697 0.0
C1824 C 0.81927 0.45143 0.7795 0.0
C1825 C 0.84628 0.40301 0.77014 0.0
C1826 C 0.82936 0.39947 0.77342 0.0
C1827 C 0.8212 0.4157 0.77676 0.0
C1828 C 0.82003 0.37922 0.77412 0.0
C1829 C 0.85582 0.38628 0.76674 0.0
C1830 C 0.81632 0.36399 0.75772 0.0
C1831 C 0.80721 0.34527 0.75854 0.0
C1832 C 0.80166 0.34119 0.77584 0.0
C1833 C 0.80543 0.35652 0.79221 0.0
C1834 C 0.81432 0.37522 0.79131 0.0
H1835 H 0.86943 0.39166 0.76766 0.0
H1836 H 0.85356 0.37656 0.77736 0.0
H1837 H 0.85144 0.37723 0.7522 0.0
H1838 H 0.82031 0.36664 0.74417 0.0
H1839 H 0.80462 0.33396 0.74563 0.0
H1840 H 0.07163 0.86513 0.13435 0.0
H1841 H 0.07341 0.89331 0.1177 0.0
H1842 H 0.03354 0.86073 0.07473 0.0
H1843 H 0.03172 0.83271 0.09102 0.0
H1844 H 0.07408 0.89449 0.07244 0.0
H1845 H 0.0186 0.91295 0.10623 0.0
H1846 H 0.03262 0.89903 0.11655 0.0
H1847 H 0.01803 0.88747 0.09578 0.0
C1848 C 0.06367 0.86375 0.12099 0.0
C1849 C 0.05151 0.84673 0.11402 0.0
C1850 C 0.06462 0.87987 0.11159 0.0
C1851 C 0.05347 0.87906 0.09516 0.0
C1852 C 0.04218 0.86161 0.08746 0.0
H1853 H 0.01568 0.95899 0.03086 0.0
H1854 H 0.0212 0.93098 0.04505 0.0
C1855 C 0.0412 0.84561 0.09678 0.0
C1856 C 0.05238 0.8968 0.08685 0.0
H1857 H 0.02725 0.93054 0.08245 0.0
C1858 C 0.06398 0.90257 0.07473 0.0
C1859 C 0.03906 0.90707 0.0898 0.0
C1860 C 0.02637 0.90148 0.10288 0.0
C1861 C 0.06233 0.91811 0.06496 0.0
C1862 C 0.04889 0.92829 0.06778 0.0
C1863 C 0.03749 0.92267 0.08022 0.0
C1864 C 0.04623 0.94473 0.05791 0.0
C1865 C 0.07462 0.92296 0.05122 0.0
C1866 C 0.05849 0.96174 0.06033 0.0
C1867 C 0.05545 0.97771 0.05204 0.0
C1868 C 0.03997 0.97709 0.04141 0.0
C1869 C 0.02777 0.95994 0.03884 0.0
C1870 C 0.03089 0.94392 0.04701 0.0
H1871 H 0.08102 0.91043 0.04656 0.0
H1872 H 0.06841 0.92691 0.03827 0.0
H1873 H 0.08427 0.93576 0.05853 0.0
H1874 H 0.07024 0.96292 0.06911 0.0
H1875 H 0.06507 0.99076 0.05451 0.0
H1876 H 0.95367 0.27656 0.84754 0.0
H1877 H 0.92624 0.2811 0.83451 0.0
H1878 H 0.90321 0.24582 0.87219 0.0
H1879 H 0.93056 0.24077 0.88493 0.0
H1880 H 0.88793 0.23456 0.83585 0.0
H1881 H 0.89531 0.31576 0.85721 0.0
H1882 H 0.91144 0.30824 0.84383 0.0
H1883 H 0.90956 0.30186 0.86706 0.0
C1884 C 0.9428 0.26994 0.85321 0.0
C1885 C 0.94437 0.2584 0.86737 0.0
C1886 C 0.92709 0.27267 0.84583 0.0
C1887 C 0.91263 0.2641 0.85259 0.0
C1888 C 0.91418 0.2527 0.86684 0.0
H1889 H 0.81273 0.28811 0.81901 0.0
H1890 H 0.83872 0.28578 0.83806 0.0
C1891 C 0.92987 0.24991 0.87418 0.0
C1892 C 0.89586 0.26607 0.84401 0.0
H1893 H 0.87213 0.29974 0.83371 0.0
C1894 C 0.88444 0.24883 0.83556 0.0
C1895 C 0.89115 0.28465 0.84383 0.0
C1896 C 0.90244 0.30368 0.85364 0.0
C1897 C 0.86872 0.24967 0.82641 0.0
C1898 C 0.86436 0.26826 0.82534 0.0
C1899 C 0.87552 0.2855 0.83437 0.0
C1900 C 0.84864 0.26998 0.81407 0.0
C1901 C 0.85691 0.23059 0.81794 0.0
C1902 C 0.8457 0.26222 0.79427 0.0
C1903 C 0.83092 0.26344 0.7835 0.0
C1904 C 0.81875 0.27257 0.79222 0.0
C1905 C 0.82178 0.28073 0.81198 0.0
C1906 C 0.83665 0.2795 0.82282 0.0
H1907 H 0.8599 0.21828 0.82481 0.0
H1908 H 0.84381 0.23207 0.81958 0.0
H1909 H 0.85797 0.22659 0.80238 0.0
H1910 H 0.8549 0.25522 0.78709 0.0
H1911 H 0.82902 0.25716 0.76827 0.0
H1912 H 0.51398 0.24422 0.60482 0.0
H1913 H 0.51602 0.21122 0.58863 0.0
H1914 H 0.56713 0.21987 0.61391 0.0
H1915 H 0.56509 0.2529 0.63073 0.0
H1916 H 0.53562 0.19873 0.56257 0.0
H1917 H 0.54792 0.16853 0.62866 0.0
H1918 H 0.54137 0.192 0.62924 0.0
H1919 H 0.56269 0.18989 0.62696 0.0
C1920 C 0.52569 0.23919 0.60701 0.0
C1921 C 0.53935 0.25123 0.61923 0.0
C1922 C 0.52683 0.22028 0.59769 0.0
C1923 C 0.54163 0.21294 0.6003 0.0
C1924 C 0.55546 0.22505 0.61206 0.0
H1925 H 0.56112 0.09543 0.5543 0.0
H1926 H 0.5649 0.13065 0.56825 0.0
C1927 C 0.5543 0.24399 0.62155 0.0
C1928 C 0.54238 0.1926 0.5906 0.0
H1929 H 0.54794 0.14734 0.59899 0.0
C1930 C 0.53839 0.18753 0.57054 0.0
C1931 C 0.54598 0.17798 0.60103 0.0
C1932 C 0.54958 0.18226 0.62267 0.0
C1933 C 0.53774 0.1682 0.56063 0.0
C1934 C 0.54106 0.15357 0.57109 0.0
C1935 C 0.54547 0.15869 0.59106 0.0
C1936 C 0.53902 0.13261 0.56171 0.0
C1937 C 0.53343 0.16354 0.53906 0.0
C1938 C 0.52322 0.12215 0.55346 0.0
C1939 C 0.521 0.10209 0.54551 0.0
C1940 C 0.53455 0.0921 0.54571 0.0
C1941 C 0.55044 0.10271 0.55375 0.0
C1942 C 0.55263 0.1228 0.5618 0.0
H1943 H 0.53547 0.17706 0.53276 0.0
H1944 H 0.54095 0.153 0.5323 0.0
H1945 H 0.5201 0.15662 0.53541 0.0
H1946 H 0.51251 0.12941 0.55356 0.0
H1947 H 0.50859 0.09436 0.5395 0.0
H1948 H 0.549 0.76549 0.39214 0.0
H1949 H 0.57739 0.77211 0.38347 0.0
H1950 H 0.55788 0.75746 0.32339 0.0
H1951 H 0.52967 0.75115 0.33182 0.0
H1952 H 0.59465 0.74714 0.36175 0.0
H1953 H 0.58745 0.81061 0.32685 0.0
H1954 H 0.57272 0.80129 0.34187 0.0
H1955 H 0.57176 0.78928 0.31718 0.0
C1956 C 0.55077 0.76382 0.37709 0.0
C1957 C 0.53702 0.7579 0.36268 0.0
C1958 C 0.56699 0.76758 0.37216 0.0
C1959 C 0.56975 0.76565 0.35278 0.0
C1960 C 0.55606 0.75954 0.33844 0.0
H1961 H 0.65051 0.76705 0.28424 0.0
H1962 H 0.624 0.76523 0.29739 0.0
C1963 C 0.53991 0.7558 0.34331 0.0
C1964 C 0.58688 0.76939 0.34735 0.0
H1965 H 0.61105 0.79552 0.32047 0.0
C1966 C 0.59833 0.75791 0.35295 0.0
C1967 C 0.59167 0.78344 0.33586 0.0
C1968 C 0.58031 0.797 0.33024 0.0
C1969 C 0.61419 0.75954 0.34671 0.0
C1970 C 0.61877 0.77321 0.33478 0.0
C1971 C 0.60747 0.78499 0.32955 0.0
C1972 C 0.635 0.77501 0.32701 0.0
C1973 C 0.62568 0.74612 0.35232 0.0
C1974 C 0.65001 0.7815 0.33928 0.0
C1975 C 0.66525 0.78284 0.33179 0.0
C1976 C 0.6658 0.77771 0.31185 0.0
C1977 C 0.65066 0.77147 0.29962 0.0
C1978 C 0.63545 0.77026 0.30711 0.0
H1979 H 0.61905 0.73372 0.35814 0.0
H1980 H 0.63162 0.73994 0.3398 0.0
H1981 H 0.6357 0.75473 0.36358 0.0
H1982 H 0.64993 0.7856 0.35465 0.0
H1983 H 0.6766 0.788 0.34164 0.0
H1984 H 0.99734 0.28408 0.46538 0.0
H1985 H 0.9991 0.27192 0.49553 0.0
H1986 H 0.03931 0.24274 0.4779 0.0
H1987 H 0.0383 0.2558 0.44857 0.0
H1988 H 0.99128 0.23628 0.49646 0.0
H1989 H 0.05508 0.25758 0.53282 0.0
H1990 H 0.04769 0.2701 0.51447 0.0
H1991 H 0.05668 0.24823 0.50817 0.0
C1992 C 0.00687 0.27556 0.46829 0.0
C1993 C 0.0176 0.2707 0.45467 0.0
C1994 C 0.00793 0.26876 0.48553 0.0
C1995 C 0.01954 0.25675 0.48917 0.0
C1996 C 0.03071 0.25264 0.47586 0.0
H1997 H 1.00622 0.14565 0.50333 0.0
H1998 H 1.00513 0.17879 0.49784 0.0
C1999 C 0.02994 0.25985 0.4589 0.0
C2000 C 0.01787 0.24522 0.50452 0.0
H2001 H 0.04152 0.22237 0.53202 0.0
C2002 C 1.00219 0.23386 0.50491 0.0
C2003 C 0.03193 0.24227 0.51595 0.0
C2004 C 0.04871 0.25544 0.51794 0.0
C2005 C 1.00061 0.21798 0.51442 0.0
C2006 C 0.01515 0.21308 0.52306 0.0
C2007 C 0.03045 0.22591 0.52488 0.0
C2008 C 0.01521 0.19326 0.52703 0.0
C2009 C 0.98358 0.20578 0.51393 0.0
C2010 C 0.02191 0.19063 0.54499 0.0
C2011 C 0.02301 0.17173 0.54798 0.0
C2012 C 0.01741 0.15533 0.533 0.0
C2013 C 0.01073 0.15807 0.51504 0.0
C2014 C 0.00981 0.17693 0.51202 0.0
H2015 H 0.9739 0.21521 0.51423 0.0
H2016 H 0.9806 0.19468 0.50035 0.0
H2017 H 0.98294 0.19797 0.52623 0.0
H2018 H 0.02642 0.20318 0.55657 0.0
H2019 H 0.02846 0.16997 0.56188 0.0
H2020 H 0.54564 0.30785 0.18308 0.0
H2021 H 0.56209 0.28473 0.19432 0.0
H2022 H 0.59452 0.29317 0.15089 0.0
H2023 H 0.57767 0.31549 0.13919 0.0
H2024 H 0.58671 0.2538 0.15533 0.0
H2025 H 0.60801 0.30608 0.22508 0.0
H2026 H 0.58592 0.29796 0.21925 0.0
H2027 H 0.59706 0.3131 0.20496 0.0
C2028 C 0.55597 0.30424 0.17566 0.0
C2029 C 0.56028 0.31304 0.16012 0.0
C2030 C 0.56545 0.29129 0.1822 0.0
C2031 C 0.57953 0.28743 0.17348 0.0
C2032 C 0.58362 0.29593 0.15771 0.0
H2033 H 0.6703 0.24871 0.18709 0.0
H2034 H 0.64378 0.25674 0.17526 0.0
C2035 C 0.5741 0.30872 0.15113 0.0
C2036 C 0.59085 0.27574 0.18143 0.0
H2037 H 0.62006 0.27786 0.21933 0.0
C2038 C 0.59385 0.25884 0.16944 0.0
C2039 C 0.60009 0.28248 0.19983 0.0
C2040 C 0.59776 0.30097 0.21302 0.0
C2041 C 0.60636 0.24886 0.17512 0.0
C2042 C 0.61605 0.25612 0.19314 0.0
C2043 C 0.61248 0.27238 0.20553 0.0
C2044 C 0.63106 0.24848 0.19877 0.0
C2045 C 0.60937 0.23095 0.16165 0.0
C2046 C 0.6326 0.24136 0.21593 0.0
C2047 C 0.64775 0.23703 0.22283 0.0
C2048 C 0.66158 0.23992 0.2127 0.0
C2049 C 0.65984 0.24648 0.1952 0.0
C2050 C 0.64468 0.2508 0.18831 0.0
H2051 H 0.59808 0.22392 0.15141 0.0
H2052 H 0.6195 0.23552 0.15316 0.0
H2053 H 0.61323 0.21987 0.16973 0.0
H2054 H 0.62224 0.2398 0.22429 0.0
H2055 H 0.64883 0.23226 0.2365 0.0
H2056 H 0.5435 0.8363 0.93291 0.0
H2057 H 0.54868 0.8683 0.95473 0.0
H2058 H 0.49656 0.87149 0.94553 0.0
H2059 H 0.49113 0.8394 0.92398 0.0
H2060 H 0.54319 0.90441 0.94846 0.0
H2061 H 0.50584 0.88008 1.00391 0.0
H2062 H 0.51183 0.86292 0.9849 0.0
H2063 H 0.49432 0.87471 0.98035 0.0
C2064 C 0.53313 0.84383 0.93543 0.0
C2065 C 0.51686 0.83523 0.92681 0.0
C2066 C 0.53612 0.86206 0.94794 0.0
C2067 C 0.52292 0.87191 0.95203 0.0
C2068 C 0.50681 0.86377 0.94292 0.0
H2069 H 0.52465 0.99334 0.99516 0.0
H2070 H 0.52088 0.95969 0.97708 0.0
C2071 C 0.50377 0.84553 0.93049 0.0
C2072 C 0.526 0.89093 0.96555 0.0
H2073 H 0.51389 0.91494 1.00637 0.0
C2074 C 0.53693 0.90669 0.96123 0.0
C2075 C 0.51802 0.89367 0.98234 0.0
C2076 C 0.50698 0.87689 0.98829 0.0
C2077 C 0.53959 0.92543 0.97293 0.0
C2078 C 0.53081 0.92841 0.98905 0.0
C2079 C 0.52041 0.91252 0.99382 0.0
C2080 C 0.53178 0.94817 1.00062 0.0
C2081 C 0.5517 0.94187 0.96788 0.0
C2082 C 0.53837 0.95244 0.02008 0.0
C2083 C 0.54034 0.97164 0.03057 0.0
C2084 C 0.53571 0.98662 0.02161 0.0
C2085 C 0.52838 0.98204 1.00238 0.0
C2086 C 0.52634 0.96291 0.99199 0.0
H2087 H 0.56076 0.93603 0.95877 0.0
H2088 H 0.54472 0.95072 0.95966 0.0
H2089 H 0.55867 0.95184 0.98101 0.0
H2090 H 0.54246 0.94108 0.02694 0.0
H2091 H 0.546 0.9749 0.0454 0.0
H2092 H 0.99552 0.74224 0.72821 0.0
H2093 H 0.97011 0.73707 0.74347 0.0
H2094 H 0.94985 0.7777 0.71278 0.0
H2095 H 0.975 0.78269 0.69729 0.0
H2096 H 0.96109 0.76637 0.76707 0.0
H2097 H 0.90978 0.735 0.70866 0.0
H2098 H 0.93131 0.73463 0.70537 0.0
H2099 H 0.92243 0.7562 0.70314 0.0
C2100 C 0.98544 0.74964 0.72434 0.0
C2101 C 0.98716 0.76287 0.71161 0.0
C2102 C 0.97097 0.74663 0.73302 0.0
C2103 C 0.95807 0.75675 0.72899 0.0
C2104 C 0.95949 0.7693 0.71562 0.0
H2105 H 0.89877 0.81897 0.79281 0.0
H2106 H 0.92124 0.80356 0.78043 0.0
C2107 C 0.97391 0.77224 0.70688 0.0
C2108 C 0.94427 0.75668 0.74072 0.0
H2109 H 0.9025 0.75533 0.73713 0.0
C2110 C 0.94821 0.76339 0.76064 0.0
C2111 C 0.92752 0.75254 0.73231 0.0
C2112 C 0.92252 0.74398 0.71121 0.0
C2113 C 0.93588 0.76762 0.77217 0.0
C2114 C 0.91938 0.76546 0.7634 0.0
C2115 C 0.91524 0.75719 0.74377 0.0
C2116 C 0.90668 0.77395 0.77361 0.0
C2117 C 0.94075 0.7751 0.79347 0.0
C2118 C 0.8911 0.76238 0.77375 0.0
C2119 C 0.87817 0.77122 0.78045 0.0
C2120 C 0.88068 0.79176 0.78707 0.0
C2121 C 0.89653 0.80314 0.78775 0.0
C2122 C 0.90941 0.79431 0.78092 0.0
H2123 H 0.95166 0.76911 0.79879 0.0
H2124 H 0.94433 0.79142 0.79627 0.0
H2125 H 0.93032 0.77106 0.80175 0.0
H2126 H 0.88876 0.74669 0.76789 0.0
H2127 H 0.86599 0.76212 0.77938 0.0
H2128 H 0.10106 0.02781 0.82979 0.0
H2129 H 0.08727 0.02901 0.85895 0.0
H2130 H 0.12848 0.00976 0.88751 0.0
H2131 H 0.1424 1.00862 0.85829 0.0
H2132 H 0.07577 1.00041 0.87778 0.0
H2133 H 0.1232 0.05447 0.92922 0.0
H2134 H 0.12393 0.05063 0.90359 0.0
H2135 H 0.13092 0.03357 0.91734 0.0
C2136 C 0.10741 0.02412 0.84233 0.0
C2137 C 0.1231 0.01836 0.84144 0.0
C2138 C 0.09938 0.02471 0.85914 0.0
C2139 C 0.10673 0.0198 0.87596 0.0
C2140 C 0.12249 0.01415 0.87518 0.0
H2141 H 0.07003 0.01402 0.99041 0.0
H2142 H 0.08732 0.01435 0.96375 0.0
C2143 C 0.1305 0.01343 0.85827 0.0
C2144 C 0.09751 0.01979 0.89373 0.0
H2145 H 0.1003 0.03873 0.94224 0.0
C2146 C 0.08122 0.00889 0.89181 0.0
C2147 C 0.10437 0.03055 0.91242 0.0
C2148 C 0.1215 0.04312 0.91583 0.0
C2149 C 0.07185 1.00826 0.9076 0.0
C2150 C 0.0785 0.01946 0.92623 0.0
C2151 C 0.09491 0.03016 0.92823 0.0
C2152 C 0.06847 0.02059 0.94342 0.0
C2153 C 0.05503 0.99492 0.90408 0.0
C2154 C 0.0522 0.02474 0.94171 0.0
C2155 C 0.04239 0.02457 0.95697 0.0
C2156 C 0.0485 0.02091 0.97494 0.0
C2157 C 0.06501 0.01755 0.9771 0.0
C2158 C 0.07486 0.01749 0.96163 0.0
H2159 H 0.0544 0.98248 0.89181 0.0
H2160 H 0.05209 0.98869 0.91694 0.0
H2161 H 0.04532 1.00345 0.90034 0.0
H2162 H 0.04688 0.02797 0.9284 0.0
H2163 H 0.02976 0.02715 0.95458 0.0
H2164 H 0.77782 0.31972 0.51878 0.0
H2165 H 0.77513 0.28715 0.52749 0.0
H2166 H 0.74987 0.30811 0.57559 0.0
H2167 H 0.7513 0.3399 0.56578 0.0
H2168 H 0.79035 0.28057 0.55592 0.0
H2169 H 0.72555 0.25428 0.56396 0.0
H2170 H 0.73102 0.27371 0.55075 0.0
H2171 H 0.72999 0.27937 0.57637 0.0
C2172 C 0.77113 0.31695 0.53076 0.0
C2173 C 0.76475 0.33203 0.54172 0.0
C2174 C 0.76959 0.29842 0.53571 0.0
C2175 C 0.76209 0.29499 0.55204 0.0
C2176 C 0.75509 0.30998 0.56247 0.0
H2177 H 0.80076 0.27587 0.64833 0.0
H2178 H 0.79724 0.2769 0.6145 0.0
C2179 C 0.7561 0.32827 0.55707 0.0
C2180 C 0.76438 0.27757 0.56039 0.0
H2181 H 0.74656 0.25103 0.59109 0.0
C2182 C 0.78056 0.27343 0.56293 0.0
C2183 C 0.75164 0.26746 0.56896 0.0
C2184 C 0.73357 0.26884 0.56459 0.0
C2185 C 0.78477 0.26177 0.57602 0.0
C2186 C 0.77273 0.25509 0.58749 0.0
C2187 C 0.75604 0.25668 0.58281 0.0
C2188 C 0.77764 0.25099 0.60665 0.0
C2189 C 0.80235 0.25795 0.57834 0.0
C2190 C 0.7679 0.23607 0.6137 0.0
C2191 C 0.76931 0.23616 0.63337 0.0
C2192 C 0.7807 0.25097 0.64616 0.0
C2193 C 0.79167 0.26451 0.63883 0.0
C2194 C 0.78991 0.26479 0.61932 0.0
H2195 H 0.80667 0.25435 0.56403 0.0
H2196 H 0.81078 0.27154 0.58633 0.0
H2197 H 0.80344 0.24564 0.58608 0.0
H2198 H 0.75831 0.22534 0.60422 0.0
H2199 H 0.76055 0.22563 0.6386 0.0
H2200 H 0.45851 0.03314 0.31871 0.0
H2201 H 0.47256 0.03068 0.34985 0.0
H2202 H 0.43385 0.05396 0.37828 0.0
H2203 H 0.41975 0.05661 0.34707 0.0
H2204 H 0.48511 0.06094 0.38212 0.0
H2205 H 0.43729 1.00502 0.40227 0.0
H2206 H 0.43737 0.00929 0.37797 0.0
H2207 H 0.43005 0.02621 0.39583 0.0
C2208 C 0.45282 0.03757 0.33152 0.0
C2209 C 0.43781 0.04493 0.3301 0.0
C2210 C 0.46097 0.03621 0.34945 0.0
C2211 C 0.45431 0.04186 0.36669 0.0
C2212 C 0.43924 0.04911 0.36535 0.0
H2213 H 0.49062 0.03758 0.48801 0.0
H2214 H 0.47365 0.04079 0.45861 0.0
C2215 C 0.43115 0.05069 0.34738 0.0
C2216 C 0.4635 0.04078 0.38589 0.0
H2217 H 0.46077 0.01861 0.42526 0.0
C2218 C 0.47973 0.05165 0.39151 0.0
C2219 C 0.45662 0.02891 0.39852 0.0
C2220 C 0.43943 0.01654 0.39338 0.0
C2221 C 0.4891 0.05114 0.40911 0.0
C2222 C 0.48248 0.03873 0.42151 0.0
C2223 C 0.4661 0.02808 0.41601 0.0
C2224 C 0.49254 0.03624 0.43973 0.0
C2225 C 0.50587 0.06452 0.41441 0.0
C2226 C 0.50874 0.03202 0.43932 0.0
C2227 C 0.51848 0.03051 0.45615 0.0
C2228 C 0.51232 0.03257 0.47408 0.0
C2229 C 0.49586 0.03597 0.47454 0.0
C2230 C 0.48612 0.03779 0.45762 0.0
H2231 H 0.5064 0.07772 0.40762 0.0
H2232 H 0.50884 0.06961 0.43021 0.0
H2233 H 0.51562 0.05644 0.40908 0.0
H2234 H 0.51398 0.02985 0.42587 0.0
H2235 H 0.53098 0.02763 0.45505 0.0
H2236 H 0.74425 0.6805 0.05453 0.0
H2237 H 0.7428 0.6942 0.08837 0.0
H2238 H 0.79369 0.72424 0.09413 0.0
H2239 H 0.79532 0.7108 0.06052 0.0
H2240 H 0.78526 0.69984 0.12262 0.0
H2241 H 0.74245 0.75287 0.11468 0.0
H2242 H 0.73628 0.72824 0.10073 0.0
H2243 H 0.75413 0.74409 0.09567 0.0
C2244 C 0.75507 0.69023 0.06291 0.0
C2245 C 0.76989 0.69455 0.05469 0.0
C2246 C 0.7542 0.69808 0.08224 0.0
C2247 C 0.76811 0.71034 0.0937 0.0
C2248 C 0.78279 0.71488 0.08551 0.0
H2249 H 0.79805 0.76232 0.21412 0.0
H2250 H 0.79651 0.75018 0.17962 0.0
C2251 C 0.78366 0.70719 0.06622 0.0
C2252 C 0.76776 0.71767 0.11449 0.0
H2253 H 0.75145 0.74967 0.1462 0.0
C2254 C 0.77786 0.71072 0.12781 0.0
C2255 C 0.75799 0.73172 0.12117 0.0
C2256 C 0.74714 0.73984 0.10739 0.0
C2257 C 0.77841 0.71737 0.14768 0.0
C2258 C 0.76901 0.73189 0.15441 0.0
C2259 C 0.75872 0.73864 0.14106 0.0
C2260 C 0.76979 0.74034 0.17523 0.0
C2261 C 0.78879 0.70839 0.16121 0.0
C2262 C 0.75519 0.73982 0.18415 0.0
C2263 C 0.75599 0.74715 0.20387 0.0
C2264 C 0.77143 0.7551 0.21507 0.0
C2265 C 0.78597 0.75611 0.20598 0.0
C2266 C 0.78513 0.749 0.18625 0.0
H2267 H 0.79071 0.69355 0.15428 0.0
H2268 H 0.80123 0.71795 0.16537 0.0
H2269 H 0.78291 0.707 0.17446 0.0
H2270 H 0.7432 0.73336 0.17592 0.0
H2271 H 0.74455 0.74614 0.21039 0.0
H2272 H 0.13576 0.01521 0.71987 0.0
H2273 H 0.12445 0.01799 0.6873 0.0
H2274 H 0.07509 0.99534 0.69871 0.0
H2275 H 0.08609 0.99297 0.73096 0.0
H2276 H 0.10727 0.99224 0.65569 0.0
H2277 H 0.06655 0.04438 0.68107 0.0
H2278 H 0.0823 0.03816 0.69714 0.0
H2279 H 0.06232 0.02213 0.69039 0.0
C2280 C 0.1225 0.01085 0.71546 0.0
C2281 C 0.11193 1.00405 0.72839 0.0
C2282 C 0.11599 0.01243 0.69673 0.0
C2283 C 0.09873 1.00736 0.69042 0.0
C2284 C 0.08833 0.99999 0.70314 0.0
H2285 H 0.04956 0.98416 0.57023 0.0
H2286 H 0.0632 0.98137 0.60151 0.0
C2287 C 0.09475 0.9985 0.72173 0.0
C2288 C 0.09142 0.00962 0.67072 0.0
H2289 H 0.06095 0.02891 0.64798 0.0
C2290 C 0.09722 1.00039 0.65406 0.0
C2291 C 0.07839 0.02046 0.66822 0.0
C2292 C 0.07214 0.03202 0.68515 0.0
C2293 C 0.0902 1.00127 0.63531 0.0
C2294 C 0.07665 0.01135 0.63284 0.0
C2295 C 0.07113 0.02093 0.64953 0.0
C2296 C 0.06832 0.01276 0.6133 0.0
C2297 C 0.09772 0.99172 0.61834 0.0
C2298 C 0.06593 0.03119 0.60923 0.0
C2299 C 0.05784 0.03277 0.59139 0.0
C2300 C 0.05179 0.01596 0.57685 0.0
C2301 C 0.05411 0.99748 0.58088 0.0
C2302 C 0.06212 0.9959 0.59885 0.0
H2303 H 0.11077 0.99019 0.62251 0.0
H2304 H 0.09042 0.9767 0.61266 0.0
H2305 H 0.09758 1.00036 0.60666 0.0
H2306 H 0.07041 0.04452 0.61991 0.0
H2307 H 0.05634 0.0473 0.58905 0.0
H2308 H 0.80113 0.36616 0.46912 0.0
H2309 H 0.79738 0.34562 0.43713 0.0
H2310 H 0.74415 0.33546 0.43767 0.0
H2311 H 0.74772 0.35637 0.46963 0.0
H2312 H 0.78279 0.30613 0.42737 0.0
H2313 H 0.74973 0.35217 0.38618 0.0
H2314 H 0.76033 0.36152 0.41018 0.0
H2315 H 0.74025 0.34579 0.40654 0.0
C2316 C 0.7886 0.35981 0.46236 0.0
C2317 C 0.77472 0.36293 0.47189 0.0
C2318 C 0.7865 0.34801 0.44414 0.0
C2319 C 0.77051 0.33913 0.43513 0.0
C2320 C 0.75658 0.34246 0.44436 0.0
H2321 H 0.75445 0.24701 0.33088 0.0
H2322 H 0.75523 0.26323 0.36456 0.0
C2323 C 0.75865 0.35442 0.46258 0.0
C2324 C 0.76863 0.326 0.41624 0.0
H2325 H 0.75368 0.32154 0.36917 0.0
C2326 C 0.77635 0.30938 0.41462 0.0
C2327 C 0.76025 0.33045 0.39976 0.0
C2328 C 0.75227 0.34853 0.40063 0.0
C2329 C 0.77631 0.29731 0.39673 0.0
C2330 C 0.76808 0.30188 0.38027 0.0
C2331 C 0.75992 0.31814 0.38197 0.0
C2332 C 0.76898 0.29118 0.36085 0.0
C2333 C 0.78563 0.28029 0.39543 0.0
C2334 C 0.77663 0.30154 0.34793 0.0
C2335 C 0.77605 0.29246 0.32889 0.0
C2336 C 0.76792 0.27283 0.3225 0.0
C2337 C 0.76096 0.26209 0.33561 0.0
C2338 C 0.76138 0.27131 0.35475 0.0
H2339 H 0.79374 0.28089 0.40899 0.0
H2340 H 0.77656 0.2662 0.39242 0.0
H2341 H 0.79343 0.28019 0.38348 0.0
H2342 H 0.78256 0.31688 0.35246 0.0
H2343 H 0.78135 0.30113 0.319 0.0
H2344 H 0.42067 0.03651 0.20514 0.0
H2345 H 0.43267 0.03288 0.17437 0.0
H2346 H 0.48091 0.06057 0.20456 0.0
H2347 H 0.4693 0.0639 0.23485 0.0
H2348 H 0.44916 0.05934 0.15446 0.0
H2349 H 0.49306 0.01211 0.17453 0.0
H2350 H 0.47642 0.01721 0.18843 0.0
H2351 H 0.49563 0.03472 0.19169 0.0
C2352 C 0.43384 0.04172 0.20524 0.0
C2353 C 0.4439 0.05035 0.22282 0.0
C2354 C 0.44075 0.03967 0.18754 0.0
C2355 C 0.45794 0.04599 0.18688 0.0
C2356 C 0.46779 0.05494 0.20438 0.0
H2357 H 0.53076 0.05331 0.10441 0.0
H2358 H 0.51543 0.05424 0.13237 0.0
C2359 C 0.46098 0.05698 0.22189 0.0
C2360 C 0.46576 0.04369 0.16822 0.0
H2361 H 0.49837 0.02703 0.1475 0.0
C2362 C 0.45979 0.05205 0.1529 0.0
C2363 C 0.47977 0.03428 0.16584 0.0
C2364 C 0.4865 0.0239 0.18092 0.0
C2365 C 0.46768 0.05195 0.13592 0.0
C2366 C 0.48189 0.04284 0.13373 0.0
C2367 C 0.48764 0.03417 0.14892 0.0
C2368 C 0.49119 0.04237 0.11615 0.0
C2369 C 0.46106 0.06239 0.12085 0.0
C2370 C 0.48301 0.03513 0.09731 0.0
C2371 C 0.49184 0.03465 0.08114 0.0
C2372 C 0.50923 0.04119 0.08318 0.0
C2373 C 0.51743 0.04816 0.10204 0.0
C2374 C 0.5086 0.04869 0.11818 0.0
H2375 H 0.4537 0.07345 0.12696 0.0
H2376 H 0.4713 0.06999 0.11417 0.0
H2377 H 0.45271 0.05141 0.10942 0.0
H2378 H 0.46975 0.02956 0.09503 0.0
H2379 H 0.48497 0.02908 0.06699 0.0
H2380 H 0.78011 0.72179 0.96841 0.0
H2381 H 0.7775 0.73639 0.93988 0.0
H2382 H 0.73552 0.69065 0.91494 0.0
H2383 H 0.73824 0.67565 0.94357 0.0
H2384 H 0.75924 0.69527 0.8904 0.0
H2385 H 0.74515 0.76839 0.92019 0.0
H2386 H 0.76306 0.76317 0.93341 0.0
H2387 H 0.74296 0.7482 0.93304 0.0
C2388 C 0.77004 0.71506 0.95709 0.0
C2389 C 0.75929 0.69762 0.9584 0.0
C2390 C 0.76852 0.72351 0.94077 0.0
C2391 C 0.75616 0.71483 0.92533 0.0
C2392 C 0.74505 0.69773 0.92676 0.0
H2393 H 0.74948 0.77231 0.82386 0.0
H2394 H 0.74098 0.75628 0.85056 0.0
C2395 C 0.74652 0.68927 0.94321 0.0
C2396 C 0.75589 0.72278 0.90721 0.0
H2397 H 0.75645 0.7655 0.88992 0.0
C2398 C 0.75831 0.71053 0.89023 0.0
C2399 C 0.75458 0.74266 0.90686 0.0
C2400 C 0.75113 0.75631 0.92432 0.0
C2401 C 0.76027 0.71787 0.87324 0.0
C2402 C 0.76001 0.73805 0.87326 0.0
C2403 C 0.75675 0.75006 0.88993 0.0
C2404 C 0.76462 0.74727 0.85672 0.0
C2405 C 0.76295 0.70403 0.85549 0.0
C2406 C 0.78071 0.74767 0.85148 0.0
C2407 C 0.78556 0.7568 0.83645 0.0
C2408 C 0.77446 0.76584 0.82629 0.0
C2409 C 0.75827 0.76538 0.8314 0.0
C2410 C 0.75342 0.75629 0.84663 0.0
H2411 H 0.75799 0.68841 0.856 0.0
H2412 H 0.75693 0.7077 0.84228 0.0
H2413 H 0.7765 0.70541 0.8545 0.0
H2414 H 0.78966 0.74115 0.85925 0.0
H2415 H 0.79812 0.75689 0.83288 0.0
H2416 H 0.80843 0.10976 0.01993 0.0
H2417 H 0.82567 0.08564 0.0265 0.0
H2418 H 0.86904 0.13186 0.04022 0.0
H2419 H 0.85204 0.15592 0.034 0.0
H2420 H 0.8506 0.07786 1.00577 0.0
H2421 H 0.87589 0.10151 0.08254 0.0
H2422 H 0.85809 0.11005 0.07223 0.0
H2423 H 0.8789 0.12161 0.06993 0.0
C2424 C 0.82156 0.11484 0.02487 0.0
C2425 C 0.82887 0.13473 0.02651 0.0
C2426 C 0.83136 0.10106 0.0286 0.0
C2427 C 0.84853 0.10706 0.03417 0.0
C2428 C 0.85572 0.12703 0.03651 0.0
H2429 H 0.93891 0.06764 0.02936 0.0
H2430 H 0.9154 0.0844 0.03434 0.0
C2431 C 0.84597 0.14077 0.03283 0.0
C2432 C 0.85936 0.09233 0.03508 0.0
H2433 H 0.89206 0.08227 0.0624 0.0
C2434 C 0.85939 0.07843 0.0183 0.0
C2435 C 0.87083 0.09329 0.05143 0.0
C2436 C 0.87082 0.10731 0.0701 0.0
C2437 C 0.87132 0.06621 0.01706 0.0
C2438 C 0.88329 0.06788 0.03311 0.0
C2439 C 0.88279 0.08111 0.05017 0.0
C2440 C 0.89744 0.0575 0.03177 0.0
C2441 C 0.87165 0.05249 0.99826 0.0
C2442 C 0.89505 0.03689 0.02907 0.0
C2443 C 0.90849 0.02723 0.02637 0.0
C2444 C 0.92448 0.03812 0.02638 0.0
C2445 C 0.92682 0.05884 0.0296 0.0
C2446 C 0.91341 0.06844 0.03235 0.0
H2447 H 0.86307 0.05523 0.9864 0.0
H2448 H 0.88444 0.05412 0.99407 0.0
H2449 H 0.86785 0.037 0.99997 0.0
H2450 H 0.88277 0.0283 0.02881 0.0
H2451 H 0.90636 0.01127 0.02417 0.0
H2452 H 0.34217 0.45322 0.02714 0.0
H2453 H 0.37045 0.46805 0.02304 0.0
H2454 H 0.39051 0.43006 0.05713 0.0
H2455 H 0.36236 0.41549 0.06164 0.0
H2456 H 0.40613 0.46804 0.06858 0.0
H2457 H 0.4033 0.44678 0.98949 0.0
H2458 H 0.38697 0.45953 0.99687 0.0
H2459 H 0.38788 0.43574 1.00281 0.0
C2460 C 0.35259 0.44785 0.03358 0.0
C2461 C 0.34994 0.43305 0.04461 0.0
C2462 C 0.36878 0.45628 0.03112 0.0
C2463 C 0.38267 0.44999 0.03952 0.0
C2464 C 0.38003 0.4351 0.0504 0.0
H2465 H 0.48605 0.48646 0.01719 0.0
H2466 H 0.45867 0.46686 0.01903 0.0
C2467 C 0.36387 0.4267 0.05289 0.0
C2468 C 0.39996 0.45963 0.03786 0.0
H2469 H 0.42663 0.47098 1.00554 0.0
C2470 C 0.41063 0.46854 0.05478 0.0
C2471 C 0.40598 0.4601 0.01989 0.0
C2472 C 0.39551 0.44986 1.00123 0.0
C2473 C 0.42691 0.47832 0.05424 0.0
C2474 C 0.43268 0.47959 0.03626 0.0
C2475 C 0.4222 0.47018 0.01932 0.0
C2476 C 0.44929 0.49126 0.03485 0.0
C2477 C 0.43783 0.48711 0.07299 0.0
C2478 C 0.45307 0.51151 0.0428 0.0
C2479 C 0.46868 0.52258 0.04193 0.0
C2480 C 0.48089 0.51375 0.03294 0.0
C2481 C 0.47703 0.49357 0.02455 0.0
C2482 C 0.46135 0.48242 0.02547 0.0
H2483 H 0.43362 0.4799 0.08486 0.0
H2484 H 0.45101 0.48575 0.07179 0.0
H2485 H 0.4372 0.50301 0.07692 0.0
H2486 H 0.44389 0.51882 0.04966 0.0
H2487 H 0.47118 0.53814 0.04834 0.0
H2488 H 0.37793 0.59346 0.74352 0.0
H2489 H 0.36363 0.62141 0.74063 0.0
H2490 H 0.3408 0.61377 0.79158 0.0
H2491 H 0.35436 0.58582 0.7941 0.0
H2492 H 0.31866 0.62196 0.76859 0.0
H2493 H 0.37487 0.67722 0.76767 0.0
H2494 H 0.37199 0.65651 0.74813 0.0
H2495 H 0.37611 0.653 0.77247 0.0
C2496 C 0.36972 0.59757 0.75399 0.0
C2497 C 0.36748 0.58699 0.76904 0.0
C2498 C 0.36166 0.61391 0.75251 0.0
C2499 C 0.35119 0.62042 0.76613 0.0
C2500 C 0.34871 0.60951 0.78081 0.0
H2501 H 0.32068 0.73753 0.78853 0.0
H2502 H 0.33466 0.70898 0.78772 0.0
C2503 C 0.35663 0.59329 0.78223 0.0
C2504 C 0.34254 0.63816 0.76532 0.0
H2505 H 0.34894 0.6875 0.7628 0.0
C2506 C 0.3254 0.63624 0.76729 0.0
C2507 C 0.35103 0.65722 0.764 0.0
C2508 C 0.36954 0.66124 0.76315 0.0
C2509 C 0.31672 0.65231 0.76791 0.0
C2510 C 0.32509 0.6712 0.76595 0.0
C2511 C 0.34224 0.6732 0.7641 0.0
C2512 C 0.31642 0.68903 0.76622 0.0
C2513 C 0.29871 0.64886 0.7714 0.0
C2514 C 0.30146 0.68802 0.75426 0.0
C2515 C 0.2933 0.70441 0.75485 0.0
C2516 C 0.29987 0.72267 0.76723 0.0
C2517 C 0.31503 0.72384 0.77888 0.0
C2518 C 0.32314 0.70738 0.77836 0.0
H2519 H 0.29578 0.63615 0.77871 0.0
H2520 H 0.29552 0.66208 0.78034 0.0
H2521 H 0.29066 0.64541 0.75741 0.0
H2522 H 0.29605 0.67452 0.74422 0.0
H2523 H 0.28181 0.70274 0.74543 0.0
H2524 H 0.24021 0.63132 0.4873 0.0
H2525 H 0.22391 0.6154 0.50919 0.0
H2526 H 0.25188 0.65758 0.55751 0.0
H2527 H 0.26747 0.6741 0.53527 0.0
H2528 H 0.22895 0.59924 0.54256 0.0
H2529 H 0.20487 0.66995 0.55667 0.0
H2530 H 0.2179 0.66487 0.53804 0.0
H2531 H 0.22679 0.67112 0.56283 0.0
C2532 C 0.24327 0.63669 0.50265 0.0
C2533 C 0.25538 0.65362 0.50979 0.0
C2534 C 0.234 0.62761 0.51514 0.0
C2535 C 0.2366 0.63545 0.53493 0.0
C2536 C 0.24967 0.65135 0.54226 0.0
H2537 H 0.1497 0.61244 0.59581 0.0
H2538 H 0.17921 0.62253 0.59281 0.0
C2539 C 0.25886 0.66053 0.52967 0.0
C2540 C 0.22388 0.62885 0.54693 0.0
H2541 H 0.18997 0.64271 0.56595 0.0
C2542 C 0.22065 0.60883 0.54815 0.0
C2543 C 0.21308 0.64144 0.55418 0.0
C2544 C 0.21569 0.66302 0.55283 0.0
C2545 C 0.20631 0.60078 0.55538 0.0
C2546 C 0.19489 0.61306 0.56121 0.0
C2547 C 0.19879 0.63336 0.56143 0.0
C2548 C 0.17783 0.60492 0.56434 0.0
C2549 C 0.2032 0.57906 0.55596 0.0
C2550 C 0.16733 0.59178 0.54929 0.0
C2551 C 0.15053 0.58616 0.55086 0.0
C2552 C 0.14385 0.59369 0.56749 0.0
C2553 C 0.15447 0.60652 0.58275 0.0
C2554 C 0.17133 0.61216 0.58115 0.0
H2555 H 0.21511 0.57361 0.55799 0.0
H2556 H 0.19576 0.57589 0.56768 0.0
H2557 H 0.19626 0.57071 0.54206 0.0
H2558 H 0.17197 0.58657 0.53592 0.0
H2559 H 0.14263 0.57661 0.53868 0.0
H2560 H 0.69205 0.96965 0.81916 0.0
H2561 H 0.70519 0.94098 0.81502 0.0
H2562 H 0.68791 0.92827 0.75441 0.0
H2563 H 0.67365 0.957 0.75869 0.0
H2564 H 0.68604 0.89463 0.76579 0.0
H2565 H 0.74822 0.93522 0.79799 0.0
H2566 H 0.73371 0.93882 0.81497 0.0
H2567 H 0.73138 0.94786 0.79278 0.0
C2568 C 0.69104 0.96107 0.80476 0.0
C2569 C 0.68182 0.96629 0.78921 0.0
C2570 C 0.69884 0.94448 0.80239 0.0
C2571 C 0.69831 0.93243 0.78427 0.0
C2572 C 0.6889 0.93728 0.76861 0.0
H2573 H 0.7693 0.8492 0.77371 0.0
H2574 H 0.7548 0.87702 0.77337 0.0
C2575 C 0.68077 0.95391 0.77103 0.0
C2576 C 0.70724 0.91475 0.78214 0.0
H2577 H 0.74376 0.90027 0.79649 0.0
C2578 C 0.69874 0.896 0.77235 0.0
C2579 C 0.72401 0.91607 0.79028 0.0
C2580 C 0.73489 0.93562 0.79938 0.0
C2581 C 0.70618 0.87887 0.77093 0.0
C2582 C 0.72259 0.88 0.78018 0.0
C2583 C 0.73118 0.89886 0.78956 0.0
C2584 C 0.73131 0.86222 0.77997 0.0
C2585 C 0.69639 0.85986 0.75894 0.0
C2586 C 0.72339 0.84412 0.78397 0.0
C2587 C 0.73167 0.82784 0.78375 0.0
C2588 C 0.7484 0.82917 0.78009 0.0
C2589 C 0.75646 0.84739 0.7766 0.0
C2590 C 0.74809 0.8635 0.77644 0.0
H2591 H 0.6872 0.86273 0.74778 0.0
H2592 H 0.70466 0.85064 0.75169 0.0
H2593 H 0.68934 0.85141 0.76834 0.0
H2594 H 0.71078 0.84253 0.78756 0.0
H2595 H 0.72499 0.81425 0.78672 0.0
H2596 H 0.74266 0.90355 0.53786 0.0
H2597 H 0.71551 0.91331 0.53134 0.0
H2598 H 0.73828 0.97446 0.55063 0.0
H2599 H 0.76524 0.96499 0.55682 0.0
H2600 H 0.69695 0.93416 0.55554 0.0
H2601 H 0.71436 0.97552 0.49864 0.0
H2602 H 0.72685 0.95903 0.50713 0.0
H2603 H 0.72841 0.98375 0.52045 0.0
C2604 C 0.74188 0.91908 0.54062 0.0
C2605 C 0.75621 0.93347 0.54773 0.0
C2606 C 0.72635 0.92463 0.53691 0.0
C2607 C 0.72488 0.94467 0.54011 0.0
C2608 C 0.73911 0.95896 0.54755 0.0
H2609 H 0.64964 0.01726 0.53741 0.0
H2610 H 0.67488 1.00316 0.54025 0.0
C2611 C 0.75456 0.95346 0.55122 0.0
C2612 C 0.70854 0.95084 0.53608 0.0
H2613 H 0.68953 0.98119 0.51208 0.0
C2614 C 0.69525 0.94424 0.54585 0.0
C2615 C 0.70628 0.96402 0.52343 0.0
C2616 C 0.71968 0.97084 0.51166 0.0
C2617 C 0.68005 0.95106 0.54391 0.0
C2618 C 0.67798 0.96462 0.53164 0.0
C2619 C 0.69114 0.97088 0.52156 0.0
C2620 C 0.66248 0.97299 0.52947 0.0
C2621 C 0.66657 0.94428 0.55558 0.0
C2622 C 0.64709 0.96079 0.52212 0.0
C2623 C 0.63258 0.96884 0.52024 0.0
C2624 C 0.63313 0.98932 0.52562 0.0
C2625 C 0.64866 1.00149 0.53277 0.0
C2626 C 0.66315 0.99343 0.53457 0.0
H2627 H 0.67145 0.93765 0.56754 0.0
H2628 H 0.66061 0.95675 0.56168 0.0
H2629 H 0.65683 0.93292 0.54613 0.0
H2630 H 0.6463 0.94502 0.51768 0.0
H2631 H 0.62096 0.959 0.51438 0.0
H2632 H 0.38468 0.47039 0.75545 0.0
H2633 H 0.36972 0.43639 0.75374 0.0
H2634 H 0.33125 0.45933 0.78289 0.0
H2635 H 0.34608 0.49297 0.78483 0.0
H2636 H 0.35932 0.41778 0.7871 0.0
H2637 H 0.30527 0.41914 0.73482 0.0
H2638 H 0.32481 0.436 0.73694 0.0
H2639 H 0.31059 0.44003 0.75434 0.0
C2640 C 0.37287 0.46823 0.76113 0.0
C2641 C 0.36662 0.48472 0.77009 0.0
C2642 C 0.36436 0.44868 0.76033 0.0
C2643 C 0.34916 0.445 0.76809 0.0
C2644 C 0.34277 0.46147 0.77658 0.0
H2645 H 0.27177 0.34712 0.77807 0.0
H2646 H 0.28944 0.37824 0.77665 0.0
C2647 C 0.35134 0.48086 0.77766 0.0
C2648 C 0.34007 0.42421 0.76789 0.0
H2649 H 0.30316 0.39238 0.75111 0.0
C2650 C 0.34711 0.41214 0.77907 0.0
C2651 C 0.32399 0.41667 0.75767 0.0
C2652 C 0.3157 0.42851 0.74513 0.0
C2653 C 0.3384 0.39335 0.78084 0.0
C2654 C 0.32223 0.38575 0.7706 0.0
C2655 C 0.31542 0.39778 0.7591 0.0
C2656 C 0.31173 0.36606 0.77217 0.0
C2657 C 0.34642 0.38235 0.79448 0.0
C2658 C 0.31796 0.34815 0.7702 0.0
C2659 C 0.30775 0.33008 0.77143 0.0
C2660 C 0.29087 0.32923 0.77421 0.0
C2661 C 0.28466 0.34703 0.77595 0.0
C2662 C 0.29486 0.36501 0.77504 0.0
H2663 H 0.35594 0.39246 0.80542 0.0
H2664 H 0.33705 0.37443 0.80206 0.0
H2665 H 0.35279 0.37142 0.78625 0.0
H2666 H 0.33065 0.34796 0.76733 0.0
H2667 H 0.31299 0.31672 0.76979 0.0
H2668 H 0.19492 0.57408 0.32801 0.0
H2669 H 0.20825 0.60704 0.32515 0.0
H2670 H 0.18291 0.59822 0.26768 0.0
H2671 H 0.16895 0.56536 0.27076 0.0
H2672 H 0.22925 0.62114 0.30417 0.0
H2673 H 0.17203 0.6504 0.28721 0.0
H2674 H 0.1714 0.62695 0.29459 0.0
H2675 H 0.17354 0.62898 0.27 0.0
C2676 C 0.19207 0.57907 0.31471 0.0
C2677 C 0.18066 0.56681 0.29966 0.0
C2678 C 0.19979 0.59809 0.31309 0.0
C2679 C 0.19647 0.60567 0.29635 0.0
C2680 C 0.18541 0.59327 0.28106 0.0
H2681 H 0.23592 0.71587 0.25969 0.0
H2682 H 0.22198 0.68291 0.26211 0.0
C2683 C 0.17751 0.57425 0.28275 0.0
C2684 C 0.20484 0.62628 0.29499 0.0
H2685 H 0.19759 0.67039 0.28417 0.0
C2686 C 0.22222 0.63187 0.2999 0.0
C2687 C 0.19591 0.64064 0.28947 0.0
C2688 C 0.17718 0.63654 0.28521 0.0
C2689 C 0.23081 0.65091 0.29914 0.0
C2690 C 0.22189 0.66515 0.29348 0.0
C2691 C 0.20454 0.65961 0.2885 0.0
C2692 C 0.23032 0.6857 0.29233 0.0
C2693 C 0.24949 0.65546 0.30397 0.0
C2694 C 0.23957 0.69872 0.30856 0.0
C2695 C 0.24758 0.71778 0.30725 0.0
C2696 C 0.24657 0.72443 0.28966 0.0
C2697 C 0.2371 0.71143 0.27352 0.0
C2698 C 0.22905 0.69246 0.27486 0.0
H2699 H 0.25488 0.64181 0.30329 0.0
H2700 H 0.25536 0.6643 0.29403 0.0
H2701 H 0.25275 0.66419 0.31881 0.0
H2702 H 0.24056 0.69418 0.32234 0.0
H2703 H 0.25469 0.72725 0.32002 0.0
H2704 H 0.47994 0.7181 0.4603 0.0
H2705 H 0.48746 0.69302 0.47767 0.0
H2706 H 0.51437 0.67135 0.43154 0.0
H2707 H 0.50774 0.69727 0.41471 0.0
H2708 H 0.47866 0.65614 0.469 0.0
H2709 H 0.54735 0.67063 0.47493 0.0
H2710 H 0.53509 0.68753 0.46692 0.0
H2711 H 0.53839 0.66628 0.45033 0.0
C2712 C 0.48782 0.70829 0.4541 0.0
C2713 C 0.4934 0.70977 0.43626 0.0
C2714 C 0.49204 0.69388 0.46399 0.0
C2715 C 0.50169 0.68038 0.45609 0.0
C2716 C 0.5074 0.68194 0.4383 0.0
H2717 H 0.49657 0.56518 0.48727 0.0
H2718 H 0.49206 0.59348 0.4731 0.0
C2719 C 0.50353 0.69672 0.42862 0.0
C2720 C 0.50467 0.66391 0.46588 0.0
H2721 H 0.53461 0.63914 0.48048 0.0
C2722 C 0.49096 0.65262 0.47172 0.0
C2723 C 0.52071 0.65935 0.46968 0.0
C2724 C 0.53622 0.67174 0.46532 0.0
C2725 C 0.49277 0.63691 0.48109 0.0
C2726 C 0.50864 0.63163 0.48385 0.0
C2727 C 0.5224 0.64302 0.4782 0.0
C2728 C 0.51129 0.6144 0.49256 0.0
C2729 C 0.47768 0.62656 0.48833 0.0
C2730 C 0.52405 0.61648 0.50775 0.0
C2731 C 0.52697 0.60016 0.51553 0.0
C2732 C 0.51702 0.58151 0.50844 0.0
C2733 C 0.5042 0.57946 0.49334 0.0
C2734 C 0.50154 0.59568 0.48528 0.0
H2735 H 0.46852 0.63646 0.49124 0.0
H2736 H 0.47141 0.61371 0.47717 0.0
H2737 H 0.48113 0.62127 0.50173 0.0
H2738 H 0.53183 0.63073 0.51355 0.0
H2739 H 0.53705 0.60216 0.52704 0.0
H2740 H 0.61131 0.29793 0.6682 0.0
H2741 H 0.63875 0.29271 0.68125 0.0
H2742 H 0.62932 0.31649 0.73844 0.0
H2743 H 0.60209 0.32146 0.72572 0.0
H2744 H 0.66642 0.31903 0.70347 0.0
H2745 H 0.64068 0.26316 0.7443 0.0
H2746 H 0.6281 0.2708 0.7258 0.0
H2747 H 0.63262 0.28558 0.74967 0.0
C2748 C 0.61511 0.30207 0.68354 0.0
C2749 C 0.60437 0.30996 0.6959 0.0
C2750 C 0.6308 0.29908 0.69099 0.0
C2751 C 0.63598 0.30382 0.7109 0.0
C2752 C 0.62548 0.31225 0.7231 0.0
H2753 H 0.71802 0.30805 0.79555 0.0
H2754 H 0.69214 0.30918 0.77613 0.0
C2755 C 0.60989 0.31519 0.71574 0.0
C2756 C 0.65226 0.30004 0.71921 0.0
H2757 H 0.66943 0.27772 0.75325 0.0
C2758 C 0.6671 0.30976 0.71413 0.0
C2759 C 0.65319 0.28788 0.7331 0.0
C2760 C 0.6378 0.2761 0.73841 0.0
C2761 C 0.68277 0.30845 0.72328 0.0
C2762 C 0.68362 0.2969 0.73771 0.0
C2763 C 0.6688 0.28666 0.74228 0.0
C2764 C 0.69961 0.29619 0.74915 0.0
C2765 C 0.69825 0.3201 0.71806 0.0
C2766 C 0.71243 0.28827 0.74052 0.0
C2767 C 0.72728 0.28755 0.75169 0.0
C2768 C 0.72958 0.29475 0.77164 0.0
C2769 C 0.71667 0.30245 0.7802 0.0
C2770 C 0.70186 0.30311 0.76911 0.0
H2771 H 0.69532 0.33125 0.70952 0.0
H2772 H 0.70678 0.32775 0.73119 0.0
H2773 H 0.70493 0.30988 0.70935 0.0
H2774 H 0.71088 0.28245 0.72521 0.0
H2775 H 0.73687 0.28121 0.74475 0.0
H2776 H 0.97008 0.30171 0.95501 0.0
H2777 H 0.97708 0.33635 0.9709 0.0
H2778 H 0.01471 0.34665 0.93355 0.0
H2779 H 0.00775 0.31195 0.91739 0.0
H2780 H 0.00825 0.35951 0.98975 0.0
H2781 H 0.98349 0.3869 0.92605 0.0
H2782 H 0.97862 0.36136 0.92831 0.0
H2783 H 0.99852 0.37105 0.92186 0.0
C2784 C 0.97994 0.31126 0.95021 0.0
C2785 C 0.98827 0.30404 0.93481 0.0
C2786 C 0.98392 0.33106 0.95934 0.0
C2787 C 0.99622 0.34407 0.95319 0.0
C2788 C 1.00499 0.33685 0.93829 0.0
H2789 H 0.04079 0.46342 0.00969 0.0
H2790 H 0.03528 0.42841 0.99515 0.0
C2791 C 1.00107 0.31699 0.92918 0.0
C2792 C 0.99955 0.36526 0.96217 0.0
H2793 H 0.99649 0.41097 0.95309 0.0
C2794 C 1.00573 0.37079 0.98175 0.0
C2795 C 0.99597 0.37984 0.95173 0.0
C2796 C 0.98865 0.37457 0.93086 0.0
C2797 C 0.00865 0.39062 0.99114 0.0
C2798 C 1.00541 0.40523 0.98059 0.0
C2799 C 0.99903 0.39969 0.96108 0.0
C2800 C 0.00863 0.4264 0.98956 0.0
C2801 C 0.01492 0.39577 0.01233 0.0
C2802 C 0.99547 0.4369 0.99094 0.0
C2803 C 0.99856 0.45698 0.99923 0.0
C2804 C 0.0149 0.46689 1.0061 0.0
C2805 C 0.02805 0.45627 1.00459 0.0
C2806 C 0.02493 0.43622 0.99637 0.0
H2807 H 0.01311 0.38263 0.01921 0.0
H2808 H 0.02844 0.40194 0.01427 0.0
H2809 H 0.0085 0.40711 0.01988 0.0
H2810 H 0.9828 0.42954 0.98565 0.0
H2811 H 0.98816 0.46474 1.00007 0.0
H2812 H 0.01853 0.77887 0.20446 0.0
H2813 H 0.99134 0.77144 0.21598 0.0
H2814 H 0.97014 0.80306 0.17587 0.0
H2815 H 0.99696 0.81029 0.16423 0.0
H2816 H 0.97287 0.79677 0.23288 0.0
H2817 H 0.93674 0.75233 0.16556 0.0
H2818 H 0.95918 0.75831 0.16865 0.0
H2819 H 0.94699 0.77599 0.16235 0.0
C2820 C 0.008 0.78397 0.19793 0.0
C2821 C 0.00989 0.79491 0.18323 0.0
C2822 C 0.9925 0.77977 0.20454 0.0
C2823 C 0.97862 0.78635 0.19652 0.0
C2824 C 0.98052 0.79732 0.1819 0.0
H2825 H 0.88958 0.80363 0.24971 0.0
H2826 H 0.91636 0.80758 0.23705 0.0
C2827 C 0.99594 0.80147 0.17527 0.0
C2828 C 0.96232 0.78268 0.204 0.0
H2829 H 0.92097 0.76438 0.19018 0.0
C2830 C 0.96154 0.78952 0.22359 0.0
C2831 C 0.94755 0.77306 0.19191 0.0
C2832 C 0.94765 0.76432 0.17099 0.0
C2833 C 0.94636 0.78738 0.23133 0.0
C2834 C 0.93148 0.77859 0.21905 0.0
C2835 C 0.93233 0.77135 0.19955 0.0
C2836 C 0.91494 0.7764 0.22615 0.0
C2837 C 0.94648 0.79429 0.25265 0.0
C2838 C 0.90487 0.75768 0.22345 0.0
C2839 C 0.88936 0.75543 0.23023 0.0
C2840 C 0.88358 0.77185 0.23993 0.0
C2841 C 0.89354 0.79066 0.2422 0.0
C2842 C 0.90901 0.79292 0.23525 0.0
H2843 H 0.95895 0.79518 0.26066 0.0
H2844 H 0.9433 0.80928 0.25528 0.0
H2845 H 0.93721 0.78429 0.25855 0.0
H2846 H 0.90909 0.74474 0.21627 0.0
H2847 H 0.88191 0.74077 0.22786 0.0
H2848 H 0.48491 0.31269 0.09619 0.0
H2849 H 0.49106 0.32186 0.06574 0.0
H2850 H 0.51238 0.26948 0.05112 0.0
H2851 H 0.50614 0.26028 0.08187 0.0
H2852 H 0.5339 0.30474 0.05178 0.0
H2853 H 0.47409 0.30357 0.00884 0.0
H2854 H 0.47384 0.31425 0.03358 0.0
H2855 H 0.47597 0.28878 0.02712 0.0
C2856 C 0.49021 0.30276 0.08604 0.0
C2857 C 0.49474 0.28567 0.09087 0.0
C2858 C 0.49368 0.30791 0.06868 0.0
C2859 C 0.50182 0.29606 0.05605 0.0
C2860 C 0.50577 0.2785 0.06056 0.0
H2861 H 0.52182 0.37314 0.97553 0.0
H2862 H 0.5189 0.34011 0.98321 0.0
C2863 C 0.50215 0.27325 0.07795 0.0
C2864 C 0.50855 0.30414 0.0401 0.0
H2865 H 0.49692 0.3304 0.00695 0.0
C2866 C 0.52589 0.30969 0.04134 0.0
C2867 C 0.4981 0.31032 0.0264 0.0
C2868 C 0.47946 0.30372 0.02378 0.0
C2869 C 0.53292 0.32333 0.03082 0.0
C2870 C 0.52227 0.33161 0.01913 0.0
C2871 C 0.5051 0.32415 0.01609 0.0
C2872 C 0.52795 0.35051 0.01336 0.0
C2873 C 0.55157 0.32985 0.03344 0.0
C2874 C 0.53439 0.36716 0.02773 0.0
C2875 C 0.53591 0.38595 0.02347 0.0
C2876 C 0.53088 0.38839 1.00478 0.0
C2877 C 0.52564 0.37164 0.9901 0.0
C2878 C 0.52407 0.35281 0.9944 0.0
H2879 H 0.55793 0.31745 0.0358 0.0
H2880 H 0.55594 0.33553 0.02081 0.0
H2881 H 0.55527 0.34174 0.04638 0.0
H2882 H 0.53695 0.36575 0.04259 0.0
H2883 H 0.53967 0.39853 0.03518 0.0
H2884 H 0.97563 0.2748 0.36961 0.0
H2885 H 0.95415 0.27959 0.34606 0.0
H2886 H 0.9914 0.29756 0.31047 0.0
H2887 H 0.01325 0.29393 0.33472 0.0
H2888 H 0.97008 0.3218 0.31345 0.0
H2889 H 0.93446 0.24594 0.29554 0.0
H2890 H 0.93697 0.25418 0.32106 0.0
H2891 H 0.95505 0.2518 0.30879 0.0
C2892 C 0.97934 0.2799 0.35689 0.0
C2893 C 0.99615 0.28419 0.35411 0.0
C2894 C 0.96699 0.28227 0.34324 0.0
C2895 C 0.97119 0.28838 0.3263 0.0
C2896 C 0.98795 0.29258 0.32338 0.0
H2897 H 0.87735 0.28938 0.26085 0.0
H2898 H 0.90613 0.28452 0.26416 0.0
C2899 C 1.00037 0.29051 0.33722 0.0
C2900 C 0.958 0.29182 0.31253 0.0
H2901 H 0.91837 0.2721 0.29243 0.0
C2902 C 0.95892 0.31079 0.30832 0.0
C2903 C 0.94369 0.27729 0.30539 0.0
C2904 C 0.9426 0.25612 0.30777 0.0
C2905 C 0.94523 0.31614 0.29869 0.0
C2906 C 0.93018 0.30234 0.29382 0.0
C2907 C 0.92982 0.28284 0.29641 0.0
C2908 C 0.91414 0.30829 0.28877 0.0
C2909 C 0.94694 0.33672 0.29448 0.0
C2910 C 0.90925 0.3237 0.3011 0.0
C2911 C 0.89296 0.32691 0.29887 0.0
C2912 C 0.88109 0.31432 0.28471 0.0
C2913 C 0.88621 0.29951 0.27176 0.0
C2914 C 0.90264 0.29662 0.27371 0.0
H2915 H 0.95966 0.34173 0.29097 0.0
H2916 H 0.93774 0.33757 0.28234 0.0
H2917 H 0.94509 0.34707 0.30748 0.0
H2918 H 0.91772 0.33253 0.3132 0.0
H2919 H 0.88949 0.33867 0.30886 0.0
H2920 H 0.98946 0.72329 0.6229 0.0
H2921 H 0.99215 0.69341 0.60074 0.0
H2922 H 0.04038 0.69415 0.6309 0.0
H2923 H 0.03783 0.72385 0.65329 0.0
H2924 H 0.01798 0.68733 0.57678 0.0
H2925 H 0.01316 0.63884 0.63101 0.0
H2926 H 0.0071 0.66277 0.63475 0.0
H2927 H 0.02873 0.66088 0.63757 0.0
C2928 C 1.00063 0.7171 0.62487 0.0
C2929 C 0.01336 0.72587 0.63995 0.0
C2930 C 1.00216 0.7001 0.61216 0.0
C2931 C 0.01638 0.69161 0.6144 0.0
C2932 C 0.02923 0.70044 0.62918 0.0
H2933 H 0.04142 0.59513 0.53306 0.0
H2934 H 0.0425 0.62739 0.55382 0.0
C2935 C 0.02773 0.71741 0.64191 0.0
C2936 C 0.01761 0.67328 0.60139 0.0
H2937 H 0.01827 0.62453 0.60008 0.0
C2938 C 0.01811 0.67358 0.58181 0.0
C2939 C 0.01765 0.65548 0.60816 0.0
C2940 C 0.0165 0.65432 0.62899 0.0
C2941 C 0.01856 0.65633 0.56867 0.0
C2942 C 0.01866 0.63856 0.57546 0.0
C2943 C 0.01831 0.63832 0.59506 0.0
C2944 C 0.018 0.61971 0.56234 0.0
C2945 C 0.01843 0.65706 0.5476 0.0
C2946 C 1.00394 0.60491 0.56049 0.0
C2947 C 1.00338 0.58659 0.54891 0.0
C2948 C 0.01694 0.58279 0.53911 0.0
C2949 C 0.03091 0.59773 0.54067 0.0
C2950 C 0.03148 0.61612 0.55233 0.0
H2951 H 0.01542 0.67115 0.54434 0.0
H2952 H 0.03089 0.65559 0.54329 0.0
H2953 H 0.00923 0.64462 0.53874 0.0
H2954 H 0.99346 0.60749 0.5682 0.0
H2955 H 0.9925 0.57525 0.54803 0.0
H2956 H 0.58502 0.77439 0.9122 0.0
H2957 H 0.61369 0.77568 0.90583 0.0
H2958 H 0.61598 0.83518 0.89609 0.0
H2959 H 0.58694 0.8338 0.90186 0.0
H2960 H 0.62206 0.81114 0.86569 0.0
H2961 H 0.66042 0.79928 0.929 0.0
H2962 H 0.64167 0.78119 0.92343 0.0
H2963 H 0.64049 0.8069 0.93063 0.0
C2964 C 0.59174 0.78801 0.90931 0.0
C2965 C 0.58364 0.80389 0.90721 0.0
C2966 C 0.60824 0.78879 0.90588 0.0
C2967 C 0.61701 0.8056 0.90068 0.0
C2968 C 0.60941 0.82213 0.90021 0.0
H2969 H 0.70097 0.80161 0.83363 0.0
H2970 H 0.68314 0.81523 0.85624 0.0
C2971 C 0.59282 0.82129 0.90347 0.0
C2972 C 0.63256 0.80428 0.89209 0.0
H2973 H 0.66919 0.78761 0.89776 0.0
C2974 C 0.6326 0.80659 0.87289 0.0
C2975 C 0.6462 0.79814 0.90146 0.0
C2976 C 0.64725 0.79644 0.92234 0.0
C2977 C 0.64542 0.80168 0.86242 0.0
C2978 C 0.65856 0.79451 0.87152 0.0
C2979 C 0.659 0.7931 0.89094 0.0
C2980 C 0.67104 0.78672 0.86044 0.0
C2981 C 0.64431 0.80305 0.8414 0.0
C2982 C 0.67035 0.76628 0.85595 0.0
C2983 C 0.68037 0.75845 0.84298 0.0
C2984 C 0.69118 0.77104 0.83439 0.0
C2985 C 0.69248 0.79159 0.83978 0.0
C2986 C 0.68244 0.79939 0.85274 0.0
H2987 H 0.63209 0.80619 0.83592 0.0
H2988 H 0.65419 0.8151 0.83937 0.0
H2989 H 0.64633 0.78909 0.83258 0.0
H2990 H 0.6615 0.75636 0.86178 0.0
H2991 H 0.67909 0.74257 0.83899 0.0
H2992 H 0.45819 0.56298 0.72086 0.0
H2993 H 0.47037 0.5599 0.69095 0.0
H2994 H 0.42731 0.51738 0.66291 0.0
H2995 H 0.41466 0.52084 0.6932 0.0
H2996 H 0.48116 0.53192 0.6706 0.0
H2997 H 0.43123 0.54931 0.62199 0.0
H2998 H 0.43094 0.55289 0.64766 0.0
H2999 H 0.42466 0.52863 0.63299 0.0
C3000 C 0.45106 0.553 0.7084 0.0
C3001 C 0.43521 0.54224 0.70985 0.0
C3002 C 0.4582 0.55121 0.69106 0.0
C3003 C 0.44993 0.53858 0.6741 0.0
C3004 C 0.43404 0.52769 0.67537 0.0
H3005 H 0.4895 0.51542 0.55939 0.0
H3006 H 0.47158 0.5136 0.58542 0.0
C3007 C 0.42677 0.52955 0.6929 0.0
C3008 C 0.45852 0.53667 0.65578 0.0
H3009 H 0.45455 0.54023 0.60788 0.0
C3010 C 0.47519 0.53374 0.65695 0.0
C3011 C 0.45106 0.53883 0.63755 0.0
C3012 C 0.43355 0.54277 0.63491 0.0
C3013 C 0.48443 0.53314 0.64102 0.0
C3014 C 0.47715 0.53582 0.62296 0.0
C3015 C 0.46034 0.53817 0.62151 0.0
C3016 C 0.4872 0.53744 0.60609 0.0
C3017 C 0.50203 0.52943 0.64377 0.0
C3018 C 0.50178 0.55174 0.60836 0.0
C3019 C 0.51185 0.5529 0.59348 0.0
C3020 C 0.50783 0.53997 0.57546 0.0
C3021 C 0.49297 0.52591 0.57281 0.0
C3022 C 0.48274 0.52478 0.58786 0.0
H3023 H 0.50393 0.52148 0.65579 0.0
H3024 H 0.50527 0.52068 0.63052 0.0
H3025 H 0.51076 0.54378 0.64738 0.0
H3026 H 0.50553 0.56208 0.62186 0.0
H3027 H 0.5231 0.56398 0.5963 0.0
H3028 H 0.82731 0.25186 0.04312 0.0
H3029 H 0.81944 0.28263 0.036 0.0
H3030 H 0.81778 0.25992 0.97533 0.0
H3031 H 0.82536 0.22939 0.98236 0.0
H3032 H 0.83194 0.30336 0.9905 0.0
H3033 H 0.76916 0.27451 0.00889 0.0
H3034 H 0.78765 0.27675 0.02553 0.0
H3035 H 0.78372 0.25804 1.00413 0.0
C3036 C 0.82596 0.25394 0.02837 0.0
C3037 C 0.82706 0.23859 0.01321 0.0
C3038 C 0.82136 0.27134 0.02435 0.0
C3039 C 0.81806 0.27337 1.0052 0.0
C3040 C 0.82045 0.2586 0.99021 0.0
H3041 H 0.7683 0.2803 0.91422 0.0
H3042 H 0.77653 0.27833 0.94726 0.0
C3043 C 0.82479 0.24125 0.99419 0.0
C3044 C 0.80985 0.28917 1.0 0.0
H3045 H 0.77037 0.29416 0.98527 0.0
C3046 C 0.81856 0.30224 0.99006 0.0
C3047 C 0.79241 0.28741 0.99955 0.0
C3048 C 0.78258 0.27346 0.01009 0.0
C3049 C 0.81004 0.3116 0.97748 0.0
C3050 C 0.79241 0.30786 0.97521 0.0
C3051 C 0.78387 0.29696 0.98717 0.0
C3052 C 0.78306 0.30997 0.95728 0.0
C3053 C 0.81984 0.32324 0.96495 0.0
C3054 C 0.78302 0.32846 0.95232 0.0
C3055 C 0.77813 0.32965 0.93332 0.0
C3056 C 0.77336 0.31236 0.91916 0.0
C3057 C 0.77173 0.29392 0.92473 0.0
C3058 C 0.77653 0.29276 0.94366 0.0
H3059 H 0.83348 0.32406 0.96818 0.0
H3060 H 0.81603 0.31641 0.94956 0.0
H3061 H 0.81727 0.33851 0.96717 0.0
H3062 H 0.78784 0.34186 0.96278 0.0
H3063 H 0.77922 0.34407 0.92947 0.0
H3064 H 0.13199 0.52378 0.21984 0.0
H3065 H 0.11918 0.52843 0.18855 0.0
H3066 H 0.07414 0.49013 0.19479 0.0
H3067 H 0.08651 0.48598 0.22585 0.0
H3068 H 0.10635 0.50543 0.15411 0.0
H3069 H 0.05427 0.53577 0.1843 0.0
H3070 H 0.07185 0.53198 0.19944 0.0
H3071 H 0.05489 0.51182 0.18969 0.0
C3072 C 0.11937 0.51633 0.21453 0.0
C3073 C 0.11034 0.50466 0.22575 0.0
C3074 C 0.11198 0.51902 0.19655 0.0
C3075 C 0.09534 0.51016 0.18924 0.0
C3076 C 0.08668 0.49785 0.20011 0.0
H3077 H 0.02243 0.49795 0.08873 0.0
H3078 H 0.03909 0.4963 0.11851 0.0
C3079 C 0.09393 0.49532 0.218 0.0
C3080 C 0.08687 0.51351 0.17044 0.0
H3081 H 0.0508 0.52482 0.1502 0.0
C3082 C 0.0943 0.50991 0.15337 0.0
C3083 C 0.07108 0.51947 0.16907 0.0
C3084 C 0.06265 0.52518 0.18664 0.0
C3085 C 0.0862 0.51124 0.13522 0.0
C3086 C 0.07019 0.51656 0.13385 0.0
C3087 C 0.06296 0.52057 0.15095 0.0
C3088 C 0.06039 0.51739 0.11492 0.0
C3089 C 0.09464 0.50621 0.11754 0.0
C3090 C 0.06651 0.52992 0.10261 0.0
C3091 C 0.05684 0.53099 0.0854 0.0
C3092 C 0.04076 0.5195 0.07996 0.0
C3093 C 0.03474 0.50697 0.09226 0.0
C3094 C 0.04431 0.50602 0.10944 0.0
H3095 H 0.10474 0.4978 0.12019 0.0
H3096 H 0.08556 0.4974 0.10536 0.0
H3097 H 0.10025 0.52006 0.11323 0.0
H3098 H 0.07866 0.53925 0.10647 0.0
H3099 H 0.06189 0.54099 0.07649 0.0
H3100 H 0.77997 0.87102 0.49457 0.0
H3101 H 0.77338 0.85544 0.46049 0.0
H3102 H 0.81832 0.83096 0.4635 0.0
H3103 H 0.82469 0.84577 0.49744 0.0
H3104 H 0.79023 0.86138 0.43105 0.0
H3105 H 0.78588 0.78299 0.43699 0.0
H3106 H 0.78633 0.80223 0.45761 0.0
H3107 H 0.80538 0.7975 0.44854 0.0
C3108 C 0.78829 0.86202 0.48807 0.0
C3109 C 0.8028 0.85954 0.49889 0.0
C3110 C 0.78454 0.85318 0.46855 0.0
C3111 C 0.79518 0.84168 0.45947 0.0
C3112 C 0.80963 0.83922 0.47025 0.0
H3113 H 0.80758 0.79115 0.34306 0.0
H3114 H 0.8107 0.80476 0.37756 0.0
C3115 C 0.81331 0.84786 0.48972 0.0
C3116 C 0.79175 0.83312 0.43854 0.0
H3117 H 0.78905 0.79039 0.40575 0.0
C3118 C 0.78976 0.84582 0.42555 0.0
C3119 C 0.79115 0.81278 0.43129 0.0
C3120 C 0.79213 0.79807 0.44436 0.0
C3121 C 0.78768 0.83884 0.40558 0.0
C3122 C 0.78754 0.81866 0.39843 0.0
C3123 C 0.78931 0.80591 0.41133 0.0
C3124 C 0.78558 0.8105 0.37755 0.0
C3125 C 0.78604 0.85315 0.39221 0.0
C3126 C 0.77036 0.80906 0.36622 0.0
C3127 C 0.76849 0.80118 0.34654 0.0
C3128 C 0.78184 0.79466 0.33782 0.0
C3129 C 0.79707 0.7961 0.34927 0.0
C3130 C 0.79888 0.80384 0.36899 0.0
H3131 H 0.78923 0.86875 0.39993 0.0
H3132 H 0.79423 0.85093 0.38073 0.0
H3133 H 0.77301 0.85042 0.38519 0.0
H3134 H 0.7599 0.81393 0.37263 0.0
H3135 H 0.75658 0.8003 0.33816 0.0
H3136 H 0.44966 0.52213 0.80723 0.0
H3137 H 0.46387 0.52107 0.83876 0.0
H3138 H 0.42702 0.5492 0.86641 0.0
H3139 H 0.41268 0.55015 0.83488 0.0
H3140 H 0.47881 0.54982 0.86862 0.0
H3141 H 0.42729 0.50375 0.89425 0.0
H3142 H 0.42685 0.50675 0.86956 0.0
H3143 H 0.42175 0.52562 0.88749 0.0
C3144 C 0.44441 0.5279 0.81998 0.0
C3145 C 0.4298 0.53602 0.81826 0.0
C3146 C 0.45265 0.52737 0.83813 0.0
C3147 C 0.44654 0.53477 0.85528 0.0
C3148 C 0.43194 0.54293 0.85361 0.0
H3149 H 0.50661 0.56271 0.97034 0.0
H3150 H 0.49142 0.56451 0.93954 0.0
C3151 C 0.42371 0.54353 0.83543 0.0
C3152 C 0.45564 0.53429 0.87472 0.0
H3153 H 0.45093 0.51804 0.9171 0.0
C3154 C 0.47264 0.54287 0.87918 0.0
C3155 C 0.44789 0.52504 0.88868 0.0
C3156 C 0.42999 0.51459 0.88475 0.0
C3157 C 0.48189 0.54265 0.89697 0.0
C3158 C 0.47403 0.53383 0.91111 0.0
C3159 C 0.45708 0.52504 0.90655 0.0
C3160 C 0.48324 0.53296 0.93034 0.0
C3161 C 0.5002 0.55145 0.9002 0.0
C3162 C 0.48353 0.51473 0.93608 0.0
C3163 C 0.49219 0.51367 0.95381 0.0
C3164 C 0.5008 0.53084 0.9666 0.0
C3165 C 0.5003 0.54912 0.96098 0.0
C3166 C 0.49165 0.55016 0.94318 0.0
H3167 H 0.50528 0.55272 0.88644 0.0
H3168 H 0.50205 0.56649 0.9091 0.0
H3169 H 0.50745 0.54243 0.90788 0.0
H3170 H 0.47717 0.50118 0.92669 0.0
H3171 H 0.49209 0.49927 0.95746 0.0
H3172 H 0.81915 0.21301 0.08999 0.0
H3173 H 0.80441 0.22179 0.11744 0.0
H3174 H 0.75834 0.18863 0.08546 0.0
H3175 H 0.77304 0.1797 0.05754 0.0
H3176 H 0.77096 0.23997 0.11515 0.0
H3177 H 0.77083 0.16882 0.14038 0.0
H3178 H 0.78687 0.17745 0.12655 0.0
H3179 H 0.76584 0.16945 0.11526 0.0
C3180 C 0.80589 0.20752 0.08871 0.0
C3181 C 0.79726 0.19556 0.07164 0.0
C3182 C 0.7975 0.21266 0.10436 0.0
C3183 C 0.78038 0.20583 0.1033 0.0
C3184 C 0.77159 0.19401 0.08635 0.0
H3185 H 0.74892 0.25787 0.21313 0.0
H3186 H 0.74361 0.24079 0.17928 0.0
C3187 C 0.77999 0.18896 0.0705 0.0
C3188 C 0.77223 0.2109 0.1205 0.0
H3189 H 0.76757 0.19636 0.16317 0.0
C3190 C 0.76952 0.23029 0.12548 0.0
C3191 C 0.77063 0.19814 0.13378 0.0
C3192 C 0.77365 0.17725 0.12885 0.0
C3193 C 0.7666 0.23784 0.14416 0.0
C3194 C 0.76632 0.22551 0.15792 0.0
C3195 C 0.76764 0.20563 0.15243 0.0
C3196 C 0.76837 0.23396 0.17856 0.0
C3197 C 0.76545 0.25938 0.14957 0.0
C3198 C 0.78389 0.23529 0.18919 0.0
C3199 C 0.78694 0.24497 0.20826 0.0
C3200 C 0.77449 0.25343 0.21698 0.0
C3201 C 0.75872 0.25152 0.20658 0.0
C3202 C 0.75567 0.24182 0.18736 0.0
H3203 H 0.76678 0.26716 0.1373 0.0
H3204 H 0.75324 0.26075 0.15465 0.0
H3205 H 0.7753 0.26689 0.16152 0.0
H3206 H 0.79383 0.22934 0.18253 0.0
H3207 H 0.79914 0.24611 0.21607 0.0
H3208 H 0.14162 0.50955 0.35446 0.0
H3209 H 0.1295 0.51358 0.38478 0.0
H3210 H 0.08971 0.53703 0.35834 0.0
H3211 H 0.10203 0.53347 0.3281 0.0
H3212 H 0.09869 0.55743 0.39365 0.0
H3213 H 0.09111 0.47868 0.39903 0.0
H3214 H 0.11235 0.48932 0.39814 0.0
H3215 H 0.097 0.48728 0.37775 0.0
C3216 C 0.13036 0.51573 0.35506 0.0
C3217 C 0.12291 0.52118 0.33858 0.0
C3218 C 0.12325 0.51781 0.37249 0.0
C3219 C 0.10831 0.5252 0.37408 0.0
C3220 C 0.10112 0.53116 0.35777 0.0
H3221 H 0.04373 0.50956 0.46468 0.0
H3222 H 0.05726 0.50733 0.4354 0.0
C3223 C 0.10825 0.52913 0.34035 0.0
C3224 C 0.10024 0.52686 0.39258 0.0
H3225 H 0.08616 0.50074 0.42638 0.0
C3226 C 0.09598 0.54496 0.40073 0.0
C3227 C 0.09626 0.51066 0.40199 0.0
C3228 C 0.09925 0.49034 0.3937 0.0
C3229 C 0.08822 0.54738 0.4178 0.0
C3230 C 0.08481 0.53138 0.42759 0.0
C3231 C 0.08886 0.5132 0.41929 0.0
C3232 C 0.0766 0.53293 0.44598 0.0
C3233 C 0.0833 0.56702 0.42479 0.0
C3234 C 0.08287 0.54786 0.46227 0.0
C3235 C 0.075 0.54927 0.47919 0.0
C3236 C 0.06066 0.53567 0.48052 0.0
C3237 C 0.05462 0.52049 0.46436 0.0
C3238 C 0.06245 0.51914 0.44747 0.0
H3239 H 0.08201 0.57539 0.41299 0.0
H3240 H 0.07136 0.56512 0.43101 0.0
H3241 H 0.09312 0.57604 0.43605 0.0
H3242 H 0.09402 0.55842 0.46203 0.0
H3243 H 0.08021 0.56106 0.49125 0.0
H3244 H 0.7752 0.8704 0.59819 0.0
H3245 H 0.76815 0.8538 0.62483 0.0
H3246 H 0.81161 0.82665 0.6207 0.0
H3247 H 0.81834 0.84235 0.5939 0.0
H3248 H 0.78658 0.8009 0.62586 0.0
H3249 H 0.78983 0.86962 0.67951 0.0
H3250 H 0.7747 0.8671 0.65894 0.0
H3251 H 0.79647 0.86978 0.65608 0.0
C3252 C 0.78311 0.86068 0.6028 0.0
C3253 C 0.79737 0.85782 0.59385 0.0
C3254 C 0.7792 0.8514 0.61822 0.0
C3255 C 0.78956 0.8393 0.62513 0.0
C3256 C 0.80345 0.83598 0.61579 0.0
H3257 H 0.79422 0.80411 0.73705 0.0
H3258 H 0.79952 0.8196 0.70928 0.0
C3259 C 0.80728 0.84503 0.60037 0.0
C3260 C 0.78614 0.82986 0.64194 0.0
H3261 H 0.7811 0.83947 0.68962 0.0
C3262 C 0.78538 0.80937 0.63979 0.0
C3263 C 0.7849 0.8409 0.66027 0.0
C3264 C 0.78668 0.86308 0.66396 0.0
C3265 C 0.7834 0.79964 0.65533 0.0
C3266 C 0.78158 0.81056 0.67348 0.0
C3267 C 0.78239 0.83106 0.67569 0.0
C3268 C 0.77868 0.80095 0.69029 0.0
C3269 C 0.78378 0.77781 0.65217 0.0
C3270 C 0.76518 0.78545 0.68898 0.0
C3271 C 0.76237 0.77641 0.70469 0.0
C3272 C 0.77281 0.78287 0.7222 0.0
C3273 C 0.78619 0.79857 0.72366 0.0
C3274 C 0.78911 0.80753 0.70783 0.0
H3275 H 0.79052 0.77318 0.6398 0.0
H3276 H 0.78984 0.77371 0.66512 0.0
H3277 H 0.77085 0.76942 0.64892 0.0
H3278 H 0.75663 0.78048 0.67586 0.0
H3279 H 0.75177 0.76456 0.70321 0.0
H3280 H 0.70283 0.39184 0.52728 0.0
H3281 H 0.68003 0.41028 0.5271 0.0
H3282 H 0.69317 0.42851 0.47481 0.0
H3283 H 0.71613 0.41029 0.47491 0.0
H3284 H 0.69481 0.45928 0.50666 0.0
H3285 H 0.63454 0.4071 0.49562 0.0
H3286 H 0.64998 0.40263 0.51312 0.0
H3287 H 0.65348 0.39971 0.48832 0.0
C3288 C 0.70053 0.39918 0.51536 0.0
C3289 C 0.71141 0.39983 0.50123 0.0
C3290 C 0.68744 0.40964 0.51525 0.0
C3291 C 0.68496 0.42065 0.50091 0.0
C3292 C 0.69492 0.41999 0.48594 0.0
H3293 H 0.63329 0.52009 0.50151 0.0
H3294 H 0.64957 0.49441 0.49232 0.0
C3295 C 0.70802 0.40957 0.48603 0.0
C3296 C 0.67399 0.43534 0.50332 0.0
H3297 H 0.63401 0.44093 0.508 0.0
C3298 C 0.68146 0.45532 0.50668 0.0
C3299 C 0.6567 0.42998 0.50363 0.0
C3300 C 0.64814 0.40868 0.49983 0.0
C3301 C 0.67214 0.47021 0.51089 0.0
C3302 C 0.65483 0.46488 0.51124 0.0
C3303 C 0.6473 0.44489 0.50761 0.0
C3304 C 0.64443 0.47986 0.51615 0.0
C3305 C 0.68102 0.49145 0.51567 0.0
C3306 C 0.63579 0.47971 0.5322 0.0
C3307 C 0.62622 0.49406 0.53724 0.0
C3308 C 0.62523 0.5089 0.52637 0.0
C3309 C 0.6338 0.50886 0.51016 0.0
C3310 C 0.64321 0.49433 0.50499 0.0
H3311 H 0.69462 0.49265 0.51965 0.0
H3312 H 0.67925 0.49835 0.50291 0.0
H3313 H 0.67595 0.49999 0.52772 0.0
H3314 H 0.63653 0.46853 0.54089 0.0
H3315 H 0.6194 0.49334 0.5495 0.0
H3316 H 0.19546 0.14005 0.48875 0.0
H3317 H 0.16598 0.12674 0.4897 0.0
H3318 H 0.1803 0.09158 0.53033 0.0
H3319 H 0.20948 0.10501 0.52981 0.0
H3320 H 0.14879 0.08957 0.47993 0.0
H3321 H 0.14563 0.11606 0.55701 0.0
H3322 H 0.16296 0.12507 0.54509 0.0
H3323 H 0.16204 0.10218 0.55363 0.0
C3324 C 0.19231 0.12966 0.49806 0.0
C3325 C 0.20493 0.12376 0.5093 0.0
C3326 C 0.17543 0.12201 0.49856 0.0
C3327 C 0.17078 0.10842 0.51042 0.0
C3328 C 0.1834 0.10246 0.5215 0.0
H3329 H 0.08462 0.01792 0.49786 0.0
H3330 H 0.1111 0.03922 0.49738 0.0
C3331 C 0.20019 0.11009 0.52105 0.0
C3332 C 0.15289 0.09964 0.51062 0.0
H3333 H 0.12389 0.08927 0.54082 0.0
C3334 C 0.14331 0.08977 0.49324 0.0
C3335 C 0.14547 0.10009 0.52789 0.0
C3336 C 0.15451 0.11161 0.54692 0.0
C3337 C 0.12694 0.0796 0.49276 0.0
C3338 C 0.11997 0.07885 0.51018 0.0
C3339 C 0.12922 0.08955 0.52746 0.0
C3340 C 0.10359 0.06608 0.51081 0.0
C3341 C 0.11728 0.0697 0.47351 0.0
C3342 C 0.09055 0.07382 0.5192 0.0
C3343 C 0.07527 0.06149 0.51968 0.0
C3344 C 0.07283 0.04117 0.51189 0.0
C3345 C 0.08599 0.03351 0.50383 0.0
C3346 C 0.10116 0.04574 0.5034 0.0
H3347 H 0.12177 0.07701 0.46181 0.0
H3348 H 0.11905 0.05413 0.47021 0.0
H3349 H 0.10377 0.06985 0.47349 0.0
H3350 H 0.09214 0.08942 0.52522 0.0
H3351 H 0.06541 0.06782 0.52607 0.0
H3352 H 0.20005 0.96987 0.81445 0.0
H3353 H 0.21269 0.94059 0.80817 0.0
H3354 H 0.1789 0.91899 0.75601 0.0
H3355 H 0.16634 0.94879 0.76205 0.0
H3356 H 0.20192 0.9038 0.80719 0.0
H3357 H 0.21986 0.90727 0.73466 0.0
H3358 H 0.21273 0.92745 0.74898 0.0
H3359 H 0.19801 0.90644 0.73569 0.0
C3360 C 0.19537 0.95914 0.8014 0.0
C3361 C 0.18213 0.9622 0.7887 0.0
C3362 C 0.20266 0.94213 0.79785 0.0
C3363 C 0.19713 0.92723 0.78142 0.0
C3364 C 0.18394 0.93022 0.76857 0.0
H3365 H 0.22802 0.81115 0.74391 0.0
H3366 H 0.21393 0.83982 0.74704 0.0
C3367 C 0.17664 0.94741 0.77208 0.0
C3368 C 0.20483 0.90854 0.77851 0.0
H3369 H 0.22309 0.87832 0.74653 0.0
C3370 C 0.20658 0.89839 0.79387 0.0
C3371 C 0.21098 0.90093 0.7612 0.0
C3372 C 0.21047 0.91117 0.74425 0.0
C3373 C 0.21397 0.88126 0.79247 0.0
C3374 C 0.22031 0.87381 0.77526 0.0
C3375 C 0.21837 0.88374 0.75978 0.0
C3376 C 0.22912 0.85604 0.7732 0.0
C3377 C 0.21448 0.87105 0.80946 0.0
C3378 C 0.24272 0.85522 0.78653 0.0
C3379 C 0.25077 0.83872 0.78479 0.0
C3380 C 0.24573 0.82233 0.76952 0.0
C3381 C 0.23231 0.82326 0.75596 0.0
C3382 C 0.22422 0.83982 0.75773 0.0
H3383 H 0.20465 0.87436 0.81861 0.0
H3384 H 0.21289 0.8548 0.8048 0.0
H3385 H 0.22669 0.87642 0.81848 0.0
H3386 H 0.2473 0.86752 0.79831 0.0
H3387 H 0.26109 0.83889 0.79551 0.0
H3388 H 0.30999 0.91641 0.04496 0.0
H3389 H 0.33595 0.93742 0.04189 0.0
H3390 H 0.30945 0.96602 1.00297 0.0
H3391 H 0.28323 0.94524 1.00632 0.0
H3392 H 0.34912 0.93748 0.00853 0.0
H3393 H 0.33901 0.0126 0.03947 0.0
H3394 H 0.32605 0.99044 0.04311 0.0
H3395 H 0.32307 0.99888 0.02081 0.0
C3396 C 0.30965 0.92732 0.03591 0.0
C3397 C 0.29466 0.92921 0.02582 0.0
C3398 C 0.32447 0.93932 0.03423 0.0
C3399 C 0.32453 0.95334 0.02236 0.0
C3400 C 0.30955 0.95555 0.01252 0.0
H3401 H 0.41531 0.99639 0.97827 0.0
H3402 H 0.38633 0.98367 0.98083 0.0
C3403 C 0.29464 0.94364 0.01436 0.0
C3404 C 0.34054 0.96437 0.01918 0.0
H3405 H 0.3634 0.01059 0.02421 0.0
C3406 C 0.35227 0.95347 0.01195 0.0
C3407 C 0.34452 0.98519 0.02381 0.0
C3408 C 0.33258 0.9975 0.0324 0.0
C3409 C 0.36804 0.96281 0.00941 0.0
C3410 C 0.37193 0.98365 0.01363 0.0
C3411 C 0.3602 0.99461 0.02079 0.0
C3412 C 0.38846 0.99417 0.01155 0.0
C3413 C 0.38055 0.95025 1.00279 0.0
C3414 C 0.39886 1.00524 0.02783 0.0
C3415 C 0.41534 0.01296 0.02636 0.0
C3416 C 0.42162 0.0096 0.0086 0.0
C3417 C 0.41084 0.99942 0.99213 0.0
C3418 C 0.39433 0.99192 0.99359 0.0
H3419 H 0.37701 0.93482 1.00489 0.0
H3420 H 0.3812 0.94979 0.98722 0.0
H3421 H 0.39315 0.95647 0.01062 0.0
H3422 H 0.39442 1.00719 0.04179 0.0
H3423 H 0.42326 0.02108 0.03922 0.0
H3424 H 0.89207 0.61325 0.76302 0.0
H3425 H 0.87711 0.64067 0.76024 0.0
H3426 H 0.84002 0.61626 0.79283 0.0
H3427 H 0.85534 0.58982 0.79654 0.0
H3428 H 0.8495 0.64749 0.74584 0.0
H3429 H 0.84772 0.66907 0.82372 0.0
H3430 H 0.85933 0.65067 0.81418 0.0
H3431 H 0.8373 0.64409 0.81549 0.0
C3432 C 0.88067 0.61365 0.76949 0.0
C3433 C 0.8751 0.59913 0.78012 0.0
C3434 C 0.87207 0.62952 0.76798 0.0
C3435 C 0.85752 0.6314 0.77693 0.0
C3436 C 0.85151 0.61617 0.78652 0.0
H3437 H 0.782 0.70845 0.77809 0.0
H3438 H 0.7977 0.68148 0.77879 0.0
C3439 C 0.86024 0.60065 0.78837 0.0
C3440 C 0.84856 0.64892 0.77619 0.0
H3441 H 0.82943 0.68241 0.8035 0.0
C3442 C 0.84532 0.65515 0.75858 0.0
C3443 C 0.84299 0.65952 0.79266 0.0
C3444 C 0.84719 0.65563 0.81258 0.0
C3445 C 0.83647 0.67081 0.75694 0.0
C3446 C 0.83043 0.68079 0.77325 0.0
C3447 C 0.83376 0.67477 0.79085 0.0
C3448 C 0.8207 0.69747 0.77239 0.0
C3449 C 0.83331 0.67636 0.73758 0.0
C3450 C 0.82821 0.71585 0.76875 0.0
C3451 C 0.81924 0.73151 0.76854 0.0
C3452 C 0.80235 0.72932 0.77175 0.0
C3453 C 0.79486 0.71085 0.77531 0.0
C3454 C 0.8039 0.69531 0.77579 0.0
H3455 H 0.83617 0.66525 0.72576 0.0
H3456 H 0.82014 0.67804 0.73466 0.0
H3457 H 0.84129 0.69077 0.73756 0.0
H3458 H 0.84116 0.71825 0.76636 0.0
H3459 H 0.82562 0.74542 0.76592 0.0
H3460 H 0.81287 0.65025 0.9952 0.0
H3461 H 0.83875 0.63786 1.00034 0.0
H3462 H 0.81472 0.59647 0.03199 0.0
H3463 H 0.78859 0.60852 0.02651 0.0
H3464 H 0.85868 0.63633 0.03197 0.0
H3465 H 0.83324 0.56007 0.99275 0.0
H3466 H 0.82203 0.58013 0.992 0.0
H3467 H 0.82206 0.56797 0.0123 0.0
C3468 C 0.81307 0.6386 1.00339 0.0
C3469 C 0.79859 0.63033 0.0104 0.0
C3470 C 0.82791 0.63149 1.00627 0.0
C3471 C 0.82864 0.61593 0.0162 0.0
C3472 C 0.81437 0.60812 0.02383 0.0
H3473 H 0.90636 0.55187 0.04627 0.0
H3474 H 0.88094 0.5656 0.04285 0.0
C3475 C 0.79947 0.61515 0.02085 0.0
C3476 C 0.84432 0.6079 0.01844 0.0
H3477 H 0.86047 0.56558 0.00945 0.0
C3478 C 0.85907 0.62087 0.02698 0.0
C3479 C 0.84489 0.58773 0.01185 0.0
C3480 C 0.82975 0.5732 1.00154 0.0
C3481 C 0.87426 0.61418 0.02945 0.0
C3482 C 0.87477 0.59401 0.02298 0.0
C3483 C 0.86005 0.58104 0.01444 0.0
C3484 C 0.89042 0.58598 0.02513 0.0
C3485 C 0.88955 0.62868 0.03936 0.0
C3486 C 0.90418 0.5927 0.01613 0.0
C3487 C 0.91883 0.58498 0.01819 0.0
C3488 C 0.91999 0.5703 0.02923 0.0
C3489 C 0.90606 0.56343 0.03799 0.0
C3490 C 0.89145 0.57115 0.03593 0.0
H3491 H 0.88629 0.64226 0.0476 0.0
H3492 H 0.89706 0.62195 0.04931 0.0
H3493 H 0.8974 0.63308 0.02839 0.0
H3494 H 0.90356 0.60386 0.00741 0.0
H3495 H 0.92931 0.59066 0.0113 0.0
H3496 H 0.16719 0.06708 0.77449 0.0
H3497 H 0.18237 0.09905 0.77016 0.0
H3498 H 0.21627 0.10173 0.82087 0.0
H3499 H 0.20146 0.06992 0.82508 0.0
H3500 H 0.1886 0.13625 0.79188 0.0
H3501 H 0.24931 0.11304 0.78449 0.0
H3502 H 0.23045 0.09551 0.78378 0.0
H3503 H 0.24167 0.10879 0.80647 0.0
C3504 C 0.17797 0.07435 0.78465 0.0
C3505 C 0.18304 0.06548 0.80007 0.0
C3506 C 0.18667 0.0928 0.78219 0.0
C3507 C 0.20086 0.10298 0.79492 0.0
C3508 C 0.20576 0.09424 0.81042 0.0
H3509 H 0.27292 0.21329 0.81152 0.0
H3510 H 0.25585 0.18167 0.81291 0.0
C3511 C 0.1971 0.07589 0.8129 0.0
C3512 C 0.21036 0.12274 0.79233 0.0
H3513 H 0.24954 0.1476 0.78965 0.0
C3514 C 0.20191 0.13862 0.79122 0.0
C3515 C 0.22781 0.12624 0.79144 0.0
C3516 C 0.23783 0.10995 0.79141 0.0
C3517 C 0.21034 0.1577 0.79 0.0
C3518 C 0.22784 0.16125 0.78938 0.0
C3519 C 0.23621 0.14526 0.79018 0.0
C3520 C 0.23787 0.18136 0.78857 0.0
C3521 C 0.20039 0.17406 0.79014 0.0
C3522 C 0.23379 0.19229 0.7744 0.0
C3523 C 0.24363 0.2107 0.77367 0.0
C3524 C 0.25798 0.2187 0.78695 0.0
C3525 C 0.262 0.20777 0.80105 0.0
C3526 C 0.25219 0.1895 0.80182 0.0
H3527 H 0.18856 0.17064 0.79633 0.0
H3528 H 0.2076 0.18827 0.79851 0.0
H3529 H 0.19719 0.1759 0.77515 0.0
H3530 H 0.22317 0.18642 0.7636 0.0
H3531 H 0.24016 0.21851 0.76249 0.0
H3532 H 0.36126 1.00087 0.30584 0.0
H3533 H 0.34624 0.96726 0.30116 0.0
H3534 H 0.36966 0.95153 0.25034 0.0
H3535 H 0.38545 0.98547 0.2554 0.0
H3536 H 0.3238 0.94522 0.27538 0.0
H3537 H 0.3781 0.90722 0.27585 0.0
H3538 H 0.38039 0.93371 0.28197 0.0
H3539 H 0.37676 0.92133 0.25718 0.0
C3540 C 0.36337 0.99041 0.29359 0.0
C3541 C 0.37482 0.99623 0.28107 0.0
C3542 C 0.35463 0.97096 0.29091 0.0
C3543 C 0.35685 0.95635 0.27559 0.0
C3544 C 0.36792 0.96214 0.26265 0.0
H3545 H 0.3077 0.82957 0.2473 0.0
H3546 H 0.32346 0.86218 0.24554 0.0
C3547 C 0.37684 0.98174 0.26541 0.0
C3548 C 0.34729 0.93545 0.2734 0.0
H3549 H 0.35148 0.88689 0.27018 0.0
C3550 C 0.32997 0.93255 0.27421 0.0
C3551 C 0.35504 0.91855 0.27183 0.0
C3552 C 0.3736 0.9203 0.27184 0.0
C3553 C 0.3204 0.91369 0.27366 0.0
C3554 C 0.32819 0.89691 0.27241 0.0
C3555 C 0.3454 0.89962 0.2711 0.0
C3556 C 0.31878 0.87674 0.2734 0.0
C3557 C 0.30189 0.91191 0.27434 0.0
C3558 C 0.311 0.87372 0.28969 0.0
C3559 C 0.30203 0.85512 0.29075 0.0
C3560 C 0.30049 0.83877 0.27553 0.0
C3561 C 0.30842 0.84173 0.25924 0.0
C3562 C 0.31753 0.86042 0.25826 0.0
H3563 H 0.29713 0.92459 0.26977 0.0
H3564 H 0.29497 0.89804 0.26501 0.0
H3565 H 0.29923 0.9117 0.28932 0.0
H3566 H 0.31194 0.8858 0.30177 0.0
H3567 H 0.29628 0.85362 0.30364 0.0
H3568 H 0.57416 0.36239 0.63259 0.0
H3569 H 0.57723 0.39008 0.61539 0.0
H3570 H 0.53246 0.36231 0.5774 0.0
H3571 H 0.52974 0.33452 0.59377 0.0
H3572 H 0.5549 0.37898 0.55805 0.0
H3573 H 0.54931 0.4324 0.62382 0.0
H3574 H 0.56674 0.42001 0.62572 0.0
H3575 H 0.54591 0.40613 0.62291 0.0
C3576 C 0.56526 0.36198 0.62024 0.0
C3577 C 0.55165 0.34631 0.61465 0.0
C3578 C 0.56687 0.37794 0.61062 0.0
C3579 C 0.55481 0.37852 0.59543 0.0
C3580 C 0.54185 0.36231 0.58915 0.0
H3581 H 0.51778 0.45681 0.52902 0.0
H3582 H 0.5238 0.42895 0.54324 0.0
C3583 C 0.54032 0.3464 0.59858 0.0
C3584 C 0.555 0.39609 0.58635 0.0
H3585 H 0.55148 0.44476 0.59533 0.0
C3586 C 0.5543 0.3934 0.56624 0.0
C3587 C 0.55407 0.4149 0.59702 0.0
C3588 C 0.55389 0.41858 0.61853 0.0
C3589 C 0.55246 0.40885 0.5565 0.0
C3590 C 0.55124 0.42747 0.56714 0.0
C3591 C 0.55245 0.43041 0.58726 0.0
C3592 C 0.54804 0.44393 0.55766 0.0
C3593 C 0.55174 0.40512 0.53489 0.0
C3594 C 0.55962 0.4616 0.56122 0.0
C3595 C 0.55625 0.47755 0.55312 0.0
C3596 C 0.54112 0.47617 0.54146 0.0
C3597 C 0.5296 0.45834 0.5378 0.0
C3598 C 0.53303 0.44237 0.54585 0.0
H3599 H 0.55705 0.39189 0.52941 0.0
H3600 H 0.53856 0.40256 0.52839 0.0
H3601 H 0.55857 0.41805 0.53003 0.0
H3602 H 0.57122 0.46311 0.57043 0.0
H3603 H 0.56535 0.49111 0.5564 0.0
H3604 H 0.45405 0.77805 0.35088 0.0
H3605 H 0.42656 0.78295 0.33838 0.0
H3606 H 0.40354 0.74233 0.37145 0.0
H3607 H 0.43097 0.7377 0.38431 0.0
H3608 H 0.40209 0.75663 0.31672 0.0
H3609 H 0.37876 0.78711 0.38404 0.0
H3610 H 0.4003 0.78496 0.38302 0.0
H3611 H 0.38512 0.76387 0.38476 0.0
C3612 C 0.44315 0.77037 0.3557 0.0
C3613 C 0.44474 0.75759 0.36869 0.0
C3614 C 0.42742 0.77316 0.34852 0.0
C3615 C 0.41293 0.76327 0.35419 0.0
C3616 C 0.4145 0.75056 0.36724 0.0
H3617 H 0.3155 0.73685 0.28801 0.0
H3618 H 0.34276 0.7364 0.30475 0.0
C3619 C 0.43023 0.74784 0.37451 0.0
C3620 C 0.39622 0.7653 0.34549 0.0
H3621 H 0.35851 0.77603 0.35618 0.0
C3622 C 0.39263 0.76103 0.32537 0.0
C3623 C 0.38389 0.77129 0.35672 0.0
C3624 C 0.38725 0.77727 0.37832 0.0
C3625 C 0.37699 0.76212 0.31621 0.0
C3626 C 0.36439 0.76715 0.32746 0.0
C3627 C 0.36809 0.77194 0.34756 0.0
C3628 C 0.34726 0.7672 0.31854 0.0
C3629 C 0.37422 0.75811 0.29451 0.0
C3630 C 0.3403 0.78442 0.32146 0.0
C3631 C 0.32455 0.78465 0.31205 0.0
C3632 C 0.31553 0.76762 0.2996 0.0
C3633 C 0.32224 0.75024 0.29736 0.0
C3634 C 0.33788 0.75 0.30681 0.0
H3635 H 0.38616 0.76036 0.28831 0.0
H3636 H 0.36804 0.74253 0.28919 0.0
H3637 H 0.36615 0.7678 0.28914 0.0
H3638 H 0.34725 0.79783 0.33059 0.0
H3639 H 0.31965 0.79824 0.31412 0.0
H3640 H 0.01451 0.74451 0.10366 0.0
H3641 H 0.01678 0.71151 0.08775 0.0
H3642 H 0.06746 0.72015 0.11447 0.0
H3643 H 0.06517 0.7532 0.13104 0.0
H3644 H 0.0369 0.69899 0.0624 0.0
H3645 H 0.04769 0.66881 0.12882 0.0
H3646 H 0.04123 0.6923 0.12912 0.0
H3647 H 0.06261 0.69015 0.1274 0.0
C3648 C 0.02618 0.73948 0.10623 0.0
C3649 C 0.03963 0.75153 0.11877 0.0
C3650 C 0.02744 0.72056 0.09706 0.0
C3651 C 0.04218 0.71322 0.10014 0.0
C3652 C 0.05582 0.72534 0.11224 0.0
H3653 H 0.06154 0.59535 0.05498 0.0
H3654 H 0.06544 0.63059 0.0689 0.0
C3655 C 0.05453 0.74429 0.12158 0.0
C3656 C 0.04305 0.69287 0.09058 0.0
H3657 H 0.04804 0.64754 0.0993 0.0
C3658 C 0.03943 0.68777 0.07048 0.0
C3659 C 0.04632 0.67823 0.10114 0.0
C3660 C 0.04954 0.68253 0.12282 0.0
C3661 C 0.03879 0.66841 0.06067 0.0
C3662 C 0.04176 0.65376 0.07125 0.0
C3663 C 0.04584 0.6589 0.09127 0.0
C3664 C 0.03967 0.63278 0.06194 0.0
C3665 C 0.03485 0.66373 0.03905 0.0
C3666 C 0.02388 0.62244 0.05347 0.0
C3667 C 0.02159 0.60236 0.04554 0.0
C3668 C 0.03506 0.59225 0.04597 0.0
C3669 C 0.05094 0.60274 0.05425 0.0
C3670 C 0.05319 0.62283 0.06228 0.0
H3671 H 0.0371 0.67722 0.03275 0.0
H3672 H 0.04243 0.65313 0.03255 0.0
H3673 H 0.02153 0.65685 0.03512 0.0
H3674 H 0.01324 0.62981 0.05337 0.0
H3675 H 0.0092 0.59473 0.03936 0.0
H3676 H 0.02964 0.25426 0.83134 0.0
H3677 H 0.05805 0.26008 0.82326 0.0
H3678 H 0.07715 0.26898 0.88321 0.0
H3679 H 0.04861 0.26302 0.8915 0.0
H3680 H 0.08316 0.29416 0.83638 0.0
H3681 H 0.10211 0.22689 0.85668 0.0
H3682 H 0.08059 0.22965 0.85326 0.0
H3683 H 0.09377 0.24252 0.87476 0.0
C3684 C 0.03984 0.25742 0.84287 0.0
C3685 C 0.03681 0.25809 0.86208 0.0
C3686 C 0.0561 0.26077 0.8382 0.0
C3687 C 0.06972 0.26474 0.85259 0.0
C3688 C 0.06681 0.26563 0.87184 0.0
H3689 H 0.17566 0.27603 0.83845 0.0
H3690 H 0.14945 0.27525 0.85229 0.0
C3691 C 0.05049 0.26233 0.87656 0.0
C3692 C 0.08689 0.26813 0.84722 0.0
H3693 H 0.12215 0.24814 0.8448 0.0
C3694 C 0.09174 0.28417 0.83832 0.0
C3695 C 0.09809 0.25516 0.84987 0.0
C3696 C 0.09342 0.23748 0.85903 0.0
C3697 C 0.10744 0.28755 0.83188 0.0
C3698 C 0.11845 0.27417 0.83388 0.0
C3699 C 0.11373 0.25838 0.84321 0.0
C3700 C 0.13458 0.27579 0.82571 0.0
C3701 C 0.11208 0.30559 0.82321 0.0
C3702 C 0.13503 0.27635 0.80615 0.0
C3703 C 0.15006 0.27734 0.7983 0.0
C3704 C 0.16502 0.27722 0.80966 0.0
C3705 C 0.16452 0.27655 0.82927 0.0
C3706 C 0.14948 0.27587 0.8372 0.0
H3707 H 0.10527 0.31746 0.82878 0.0
H3708 H 0.12565 0.31153 0.82623 0.0
H3709 H 0.1086 0.30161 0.8074 0.0
H3710 H 0.12369 0.27573 0.79682 0.0
H3711 H 0.14987 0.27809 0.78322 0.0
H3712 H 0.49061 0.77259 0.95791 0.0
H3713 H 0.49025 0.76224 0.98894 0.0
H3714 H 0.52967 0.72975 0.97592 0.0
H3715 H 0.53077 0.74108 0.94556 0.0
H3716 H 0.48165 0.72808 0.99464 0.0
H3717 H 0.54568 0.7521 0.03013 0.0
H3718 H 0.53835 0.76164 0.00956 0.0
H3719 H 0.54686 0.73918 0.00646 0.0
C3720 C 0.49937 0.7635 0.96189 0.0
C3721 C 0.51068 0.7575 0.94944 0.0
C3722 C 0.49922 0.75773 0.97962 0.0
C3723 C 0.5102 0.74566 0.98497 0.0
C3724 C 0.52157 0.73978 0.97251 0.0
H3725 H 0.49776 0.64238 0.01426 0.0
H3726 H 0.49261 0.6733 0.0065 0.0
C3727 C 0.52202 0.74597 0.95502 0.0
C3728 C 0.5083 0.73683 1.00212 0.0
H3729 H 0.53141 0.71928 0.035 0.0
C3730 C 0.49246 0.72679 1.00401 0.0
C3731 C 0.5222 0.73563 0.01484 0.0
C3732 C 0.53916 0.74797 0.01523 0.0
C3733 C 0.49054 0.71361 0.01661 0.0
C3734 C 0.5049 0.70985 0.0268 0.0
C3735 C 0.52039 0.7218 0.02682 0.0
C3736 C 0.50481 0.69122 0.03369 0.0
C3737 C 0.4733 0.70288 0.01783 0.0
C3738 C 0.51346 0.69093 0.05154 0.0
C3739 C 0.51668 0.67314 0.05589 0.0
C3740 C 0.51125 0.65549 0.04243 0.0
C3741 C 0.50173 0.65569 0.0251 0.0
C3742 C 0.49868 0.67342 0.0207 0.0
H3743 H 0.4642 0.71299 0.01743 0.0
H3744 H 0.46945 0.69068 1.00518 0.0
H3745 H 0.47272 0.69669 0.03115 0.0
H3746 H 0.51849 0.70456 0.06161 0.0
H3747 H 0.52407 0.67328 0.06935 0.0
H3748 H 0.05815 0.71653 0.69605 0.0
H3749 H 0.08336 0.72106 0.6802 0.0
H3750 H 0.08294 0.78347 0.68722 0.0
H3751 H 0.05859 0.77927 0.70434 0.0
H3752 H 0.09367 0.73889 0.64822 0.0
H3753 H 0.12552 0.77928 0.72014 0.0
H3754 H 0.1047 0.76522 0.71702 0.0
H3755 H 0.1084 0.78891 0.71013 0.0
C3756 C 0.06336 0.73116 0.694 0.0
C3757 C 0.05634 0.74752 0.7012 0.0
C3758 C 0.07758 0.73369 0.68475 0.0
C3759 C 0.08493 0.7526 0.68263 0.0
C3760 C 0.07737 0.76878 0.68874 0.0
H3761 H 0.19035 0.77576 0.68266 0.0
H3762 H 0.16289 0.78237 0.67344 0.0
C3763 C 0.06331 0.7663 0.69826 0.0
C3764 C 0.10176 0.75564 0.67687 0.0
H3765 H 0.14209 0.77215 0.69614 0.0
C3766 C 0.10431 0.7465 0.65849 0.0
C3767 C 0.11551 0.76564 0.69037 0.0
C3768 C 0.11351 0.77522 0.71056 0.0
C3769 C 0.12044 0.74638 0.6535 0.0
C3770 C 0.1342 0.75531 0.66742 0.0
C3771 C 0.13154 0.76547 0.68537 0.0
C3772 C 0.15123 0.7516 0.66539 0.0
C3773 C 0.12252 0.73621 0.63362 0.0
C3774 C 0.15403 0.7321 0.66254 0.0
C3775 C 0.16987 0.72825 0.66726 0.0
C3776 C 0.18301 0.74382 0.67551 0.0
C3777 C 0.18057 0.76337 0.67632 0.0
C3778 C 0.16481 0.76721 0.67111 0.0
H3779 H 0.1124 0.73795 0.6229 0.0
H3780 H 0.1347 0.74206 0.62925 0.0
H3781 H 0.12167 0.72017 0.63334 0.0
H3782 H 0.14375 0.71977 0.65849 0.0
H3783 H 0.17147 0.71303 0.66599 0.0
H3784 H 0.04892 0.34484 0.42268 0.0
H3785 H 0.05767 0.37803 0.44211 0.0
H3786 H 1.00635 0.38408 0.44385 0.0
H3787 H 0.99735 0.35097 0.42445 0.0
H3788 H 0.03743 0.41909 0.43576 0.0
H3789 H 0.04039 0.38615 0.50173 0.0
H3790 H 0.04707 0.37424 0.47992 0.0
H3791 H 0.02541 0.37461 0.48106 0.0
C3792 C 0.03946 0.35334 0.42684 0.0
C3793 C 0.02241 0.34521 0.42212 0.0
C3794 C 0.04452 0.37225 0.43792 0.0
C3795 C 0.0326 0.38323 0.44431 0.0
C3796 C 0.01564 0.37565 0.4389 0.0
H3797 H 0.02701 0.48064 0.53163 0.0
H3798 H 0.02378 0.44915 0.5091 0.0
C3799 C 0.01056 0.35676 0.42786 0.0
C3800 C 0.03769 0.40192 0.45803 0.0
H3801 H 0.04489 0.42075 0.50608 0.0
C3802 C 0.03927 0.41958 0.45113 0.0
C3803 C 0.03989 0.40219 0.47797 0.0
C3804 C 0.03813 0.38334 0.48578 0.0
C3805 C 0.04269 0.4378 0.46388 0.0
C3806 C 0.0447 0.43807 0.48388 0.0
C3807 C 0.04339 0.42035 0.49071 0.0
C3808 C 0.04719 0.45659 0.49799 0.0
C3809 C 0.04351 0.45654 0.45593 0.0
C3810 C 0.0616 0.47082 0.4994 0.0
C3811 C 0.06338 0.4888 0.51209 0.0
C3812 C 0.0508 0.49263 0.52355 0.0
C3813 C 0.03673 0.47804 0.52271 0.0
C3814 C 0.03492 0.4601 0.50996 0.0
H3815 H 0.03843 0.45358 0.44048 0.0
H3816 H 0.03651 0.46682 0.46409 0.0
H3817 H 0.05668 0.46405 0.45736 0.0
H3818 H 0.0713 0.46813 0.49046 0.0
H3819 H 0.07434 0.49989 0.51249 0.0
H3820 H 0.47047 0.26196 0.1726 0.0
H3821 H 0.45205 0.25525 0.19619 0.0
H3822 H 0.49254 0.2784 0.24176 0.0
H3823 H 0.51116 0.2859 0.21797 0.0
H3824 H 0.44875 0.23672 0.22646 0.0
H3825 H 0.46249 0.31865 0.25024 0.0
H3826 H 0.47014 0.30647 0.22933 0.0
H3827 H 0.47974 0.30612 0.25299 0.0
C3828 C 0.47569 0.26509 0.18754 0.0
C3829 C 0.49217 0.27491 0.1935 0.0
C3830 C 0.4651 0.26118 0.20106 0.0
C3831 C 0.47087 0.26686 0.2207 0.0
C3832 C 0.48782 0.27441 0.22663 0.0
H3833 H 0.39672 0.29561 0.2962 0.0
H3834 H 0.42297 0.28592 0.28815 0.0
C3835 C 0.49842 0.27862 0.21306 0.0
C3836 C 0.45852 0.26791 0.23439 0.0
H3837 H 0.43972 0.30143 0.26091 0.0
C3838 C 0.44699 0.25078 0.23445 0.0
C3839 C 0.45621 0.28636 0.24458 0.0
C3840 C 0.46769 0.30549 0.24424 0.0
C3841 C 0.43265 0.25176 0.24353 0.0
C3842 C 0.42991 0.27033 0.2527 0.0
C3843 C 0.44202 0.28722 0.25391 0.0
C3844 C 0.41361 0.27326 0.25843 0.0
C3845 C 0.42021 0.2331 0.24246 0.0
C3846 C 0.39983 0.26943 0.24429 0.0
C3847 C 0.38498 0.27521 0.24872 0.0
C3848 C 0.3837 0.28498 0.26737 0.0
C3849 C 0.39741 0.28831 0.28165 0.0
C3850 C 0.41232 0.28259 0.27717 0.0
H3851 H 0.42635 0.21997 0.241 0.0
H3852 H 0.41355 0.23382 0.25539 0.0
H3853 H 0.41089 0.23107 0.22961 0.0
H3854 H 0.40079 0.26286 0.22957 0.0
H3855 H 0.37475 0.27278 0.2373 0.0
H3856 H 0.64159 0.50755 0.35715 0.0
H3857 H 0.62766 0.50852 0.38642 0.0
H3858 H 0.58741 0.5302 0.35878 0.0
H3859 H 0.60114 0.52912 0.32962 0.0
H3860 H 0.61716 0.53755 0.41204 0.0
H3861 H 0.56149 0.4837 0.37594 0.0
H3862 H 0.58023 0.48798 0.36473 0.0
H3863 H 0.56566 0.50464 0.36461 0.0
C3864 C 0.62984 0.5127 0.3573 0.0
C3865 C 0.62263 0.51827 0.34072 0.0
C3866 C 0.62179 0.51321 0.37418 0.0
C3867 C 0.60612 0.51905 0.37505 0.0
C3868 C 0.5992 0.52514 0.35868 0.0
H3869 H 0.53008 0.52452 0.45389 0.0
H3870 H 0.54745 0.52567 0.42795 0.0
C3871 C 0.60724 0.52472 0.3419 0.0
C3872 C 0.59694 0.51864 0.39278 0.0
H3873 H 0.55967 0.50049 0.40733 0.0
C3874 C 0.60461 0.52934 0.41097 0.0
C3875 C 0.58049 0.50798 0.39183 0.0
C3876 C 0.57152 0.49527 0.37329 0.0
C3877 C 0.59624 0.53029 0.42772 0.0
C3878 C 0.57968 0.51978 0.42672 0.0
C3879 C 0.5722 0.50878 0.40854 0.0
C3880 C 0.56955 0.52037 0.44383 0.0
C3881 C 0.60513 0.54331 0.44613 0.0
C3882 C 0.57576 0.51716 0.46209 0.0
C3883 C 0.56571 0.51691 0.47734 0.0
C3884 C 0.54906 0.51965 0.47482 0.0
C3885 C 0.5429 0.52271 0.45663 0.0
C3886 C 0.5529 0.52322 0.44158 0.0
H3887 H 0.61514 0.5548 0.44332 0.0
H3888 H 0.59639 0.55073 0.45451 0.0
H3889 H 0.61103 0.53414 0.45503 0.0
H3890 H 0.58822 0.51412 0.46445 0.0
H3891 H 0.5707 0.51355 0.49074 0.0
H3892 H 0.24817 0.83617 0.05787 0.0
H3893 H 0.2503 0.80698 0.07158 0.0
H3894 H 0.27395 0.78302 0.02328 0.0
H3895 H 0.27304 0.81315 0.01037 0.0
H3896 H 0.24305 0.7683 0.06449 0.0
H3897 H 0.31146 0.7918 0.06494 0.0
H3898 H 0.29678 0.80612 0.05706 0.0
H3899 H 0.29933 0.78366 0.04182 0.0
C3900 C 0.2533 0.82435 0.0499 0.0
C3901 C 0.26068 0.8268 0.03334 0.0
C3902 C 0.25453 0.80768 0.05769 0.0
C3903 C 0.2628 0.79316 0.0487 0.0
C3904 C 0.26807 0.7944 0.03072 0.0
H3905 H 0.27573 0.72914 0.14181 0.0
H3906 H 0.27213 0.72902 0.1074 0.0
C3907 C 0.26739 0.81143 0.02328 0.0
C3908 C 0.26816 0.77895 0.05989 0.0
H3909 H 0.30287 0.77088 0.08524 0.0
C3910 C 0.25611 0.7684 0.06876 0.0
C3911 C 0.28527 0.77914 0.06526 0.0
C3912 C 0.29899 0.79085 0.05691 0.0
C3913 C 0.26068 0.76022 0.0846 0.0
C3914 C 0.27782 0.76175 0.09086 0.0
C3915 C 0.28979 0.76989 0.08031 0.0
C3916 C 0.28355 0.75968 0.11046 0.0
C3917 C 0.24716 0.75203 0.0956 0.0
C3918 C 0.29252 0.77646 0.12324 0.0
C3919 C 0.29523 0.77635 0.14273 0.0
C3920 C 0.28866 0.75963 0.1498 0.0
C3921 C 0.28099 0.74227 0.13679 0.0
C3922 C 0.27866 0.74224 0.11715 0.0
H3923 H 0.23468 0.75444 0.09009 0.0
H3924 H 0.24661 0.7359 0.09432 0.0
H3925 H 0.24982 0.75899 0.11107 0.0
H3926 H 0.29653 0.79007 0.11832 0.0
H3927 H 0.30154 0.78976 0.1524 0.0
H3928 H 0.95857 0.53564 0.81938 0.0
H3929 H 0.97266 0.53281 0.85036 0.0
H3930 H 0.93427 0.5563 0.87924 0.0
H3931 H 0.92012 0.55932 0.84817 0.0
H3932 H 0.98559 0.56256 0.88275 0.0
H3933 H 0.93733 0.50713 0.90285 0.0
H3934 H 0.93734 0.51163 0.87863 0.0
H3935 H 0.93033 0.52858 0.89675 0.0
C3936 C 0.95295 0.54005 0.83225 0.0
C3937 C 0.93801 0.54758 0.83099 0.0
C3938 C 0.96113 0.53847 0.8501 0.0
C3939 C 0.95458 0.54406 0.86743 0.0
C3940 C 0.93958 0.55149 0.86625 0.0
H3941 H 0.99103 0.53836 0.98839 0.0
H3942 H 0.97411 0.54199 0.95913 0.0
C3943 C 0.93147 0.55328 0.84835 0.0
C3944 C 0.96381 0.5427 0.88655 0.0
H3945 H 0.96096 0.52028 0.92576 0.0
C3946 C 0.98015 0.55328 0.8921 0.0
C3947 C 0.95685 0.53084 0.89915 0.0
C3948 C 0.93955 0.51875 0.89407 0.0
C3949 C 0.98954 0.5525 0.90962 0.0
C3950 C 0.98284 0.5401 0.92198 0.0
C3951 C 0.96636 0.52973 0.91654 0.0
C3952 C 0.99289 0.53735 0.94013 0.0
C3953 C 1.00645 0.56561 0.91486 0.0
C3954 C 0.00903 0.53293 0.93962 0.0
C3955 C 0.01876 0.53118 0.95638 0.0
C3956 C 0.01264 0.53318 0.97435 0.0
C3957 C 0.99624 0.53678 0.9749 0.0
C3958 C 0.98653 0.53885 0.95805 0.0
H3959 H 0.00711 0.57888 0.90815 0.0
H3960 H 0.00952 0.57058 0.93065 0.0
H3961 H 0.01605 0.55736 0.90937 0.0
H3962 H 0.01423 0.53079 0.92615 0.0
H3963 H 0.0312 0.52816 0.95521 0.0
H3964 H 0.29578 0.21156 0.56144 0.0
H3965 H 0.29399 0.2246 0.59504 0.0
H3966 H 0.24247 0.19634 0.58807 0.0
H3967 H 0.24431 0.1825 0.55443 0.0
H3968 H 0.27633 0.24882 0.61252 0.0
H3969 H 0.25969 0.17617 0.63373 0.0
H3970 H 0.26617 0.17847 0.61059 0.0
H3971 H 0.24512 0.18005 0.61501 0.0
C3972 C 0.28401 0.20809 0.56695 0.0
C3973 C 0.27021 0.19582 0.55514 0.0
C3974 C 0.28302 0.2156 0.58625 0.0
C3975 C 0.26821 0.21114 0.59429 0.0
C3976 C 0.25419 0.19953 0.5824 0.0
H3977 H 0.2447 0.24633 0.71136 0.0
H3978 H 0.243 0.23468 0.67662 0.0
C3979 C 0.25522 0.19179 0.56307 0.0
C3980 C 0.26763 0.21874 0.61509 0.0
H3981 H 0.2597 0.20448 0.65744 0.0
C3982 C 0.27269 0.23909 0.62231 0.0
C3983 C 0.26295 0.20607 0.62797 0.0
C3984 C 0.25833 0.18397 0.6215 0.0
C3985 C 0.27316 0.24708 0.64192 0.0
C3986 C 0.2685 0.23441 0.65471 0.0
C3987 C 0.2632 0.21415 0.64754 0.0
C3988 C 0.26952 0.24186 0.67569 0.0
C3989 C 0.27854 0.26905 0.64883 0.0
C3990 C 0.28501 0.24963 0.68668 0.0
C3991 C 0.28605 0.25625 0.70653 0.0
C3992 C 0.2716 0.25524 0.71579 0.0
C3993 C 0.25607 0.24748 0.7047 0.0
C3994 C 0.25506 0.24074 0.68485 0.0
H3995 H 0.27808 0.27721 0.63678 0.0
H3996 H 0.27056 0.27478 0.65947 0.0
H3997 H 0.29155 0.27215 0.65598 0.0
H3998 H 0.29634 0.25035 0.67993 0.0
H3999 H 0.29821 0.26206 0.71461 0.0
H4000 H 0.61432 0.54675 0.23197 0.0
H4001 H 0.60118 0.54487 0.1994 0.0
H4002 H 0.60509 0.4835 0.18522 0.0
H4003 H 0.61827 0.48525 0.21816 0.0
H4004 H 0.61214 0.53673 0.16463 0.0
H4005 H 0.55636 0.48066 0.16611 0.0
H4006 H 0.57012 0.49286 0.1876 0.0
H4007 H 0.57591 0.47308 0.17138 0.0
C4008 C 0.61243 0.53275 0.22204 0.0
C4009 C 0.61742 0.51613 0.22801 0.0
C4010 C 0.60485 0.53172 0.20324 0.0
C4011 C 0.60174 0.51398 0.18962 0.0
C4012 C 0.60691 0.49734 0.19538 0.0
H4013 H 0.55067 0.48661 0.0699 0.0
H4014 H 0.56532 0.48484 0.10105 0.0
C4015 C 0.61464 0.49839 0.21427 0.0
C4016 C 0.59346 0.51337 0.16951 0.0
H4017 H 0.55915 0.49166 0.13689 0.0
C4018 C 0.60056 0.52681 0.15862 0.0
C4019 C 0.57833 0.50045 0.16131 0.0
C4020 C 0.56961 0.48604 0.17221 0.0
C4021 C 0.59317 0.52764 0.14007 0.0
C4022 C 0.57781 0.51507 0.13204 0.0
C4023 C 0.57084 0.5014 0.1428 0.0
C4024 C 0.56869 0.51612 0.1128 0.0
C4025 C 0.60227 0.54177 0.12913 0.0
C4026 C 0.56521 0.53415 0.10873 0.0
C4027 C 0.55696 0.53522 0.0908 0.0
C4028 C 0.55156 0.51822 0.0763 0.0
C4029 C 0.55464 0.50007 0.08052 0.0
C4030 C 0.56305 0.49904 0.09846 0.0
H4031 H 0.61587 0.54498 0.13395 0.0
H4032 H 0.60027 0.53583 0.11342 0.0
H4033 H 0.59768 0.55595 0.13185 0.0
H4034 H 0.56875 0.54753 0.11952 0.0
H4035 H 0.55472 0.54949 0.08839 0.0
H4036 H 0.296 0.85929 0.96207 0.0
H4037 H 0.29088 0.84161 0.92884 0.0
H4038 H 0.23914 0.84693 0.92666 0.0
H4039 H 0.24406 0.86476 0.96001 0.0
H4040 H 0.26626 0.80512 0.91689 0.0
H4041 H 0.25539 0.86467 0.87701 0.0
H4042 H 0.26643 0.86986 0.90102 0.0
H4043 H 0.24423 0.86241 0.89737 0.0
C4044 C 0.28357 0.85702 0.9545 0.0
C4045 C 0.27043 0.86342 0.96373 0.0
C4046 C 0.28069 0.84688 0.93554 0.0
C4047 C 0.26469 0.84311 0.92545 0.0
C4048 C 0.25161 0.84996 0.93429 0.0
H4049 H 0.23049 0.78083 0.80843 0.0
H4050 H 0.23147 0.79843 0.84151 0.0
C4051 C 0.25446 0.8601 0.95332 0.0
C4052 C 0.26158 0.83089 0.90609 0.0
H4053 H 0.25288 0.83258 0.85879 0.0
C4054 C 0.26326 0.81104 0.90415 0.0
C4055 C 0.25756 0.83877 0.88968 0.0
C4056 C 0.25587 0.86013 0.89122 0.0
C4057 C 0.26116 0.79878 0.88604 0.0
C4058 C 0.25766 0.80681 0.86956 0.0
C4059 C 0.2556 0.82656 0.87153 0.0
C4060 C 0.25673 0.7952 0.85008 0.0
C4061 C 0.26261 0.77736 0.88474 0.0
C4062 C 0.27062 0.78761 0.84413 0.0
C4063 C 0.27001 0.77737 0.8254 0.0
C4064 C 0.25562 0.77495 0.81234 0.0
C4065 C 0.24168 0.78241 0.81834 0.0
C4066 C 0.24225 0.79252 0.83713 0.0
H4067 H 0.26022 0.77227 0.89833 0.0
H4068 H 0.25377 0.76775 0.87277 0.0
H4069 H 0.27543 0.77554 0.88206 0.0
H4070 H 0.28202 0.78993 0.85385 0.0
H4071 H 0.28087 0.77165 0.82106 0.0
H4072 H 0.96639 0.53879 0.73266 0.0
H4073 H 0.9777 0.53698 0.70212 0.0
H4074 H 0.9331 0.55192 0.67622 0.0
H4075 H 0.92162 0.554 0.70722 0.0
H4076 H 0.96872 0.5141 0.66761 0.0
H4077 H 0.96787 0.59131 0.65947 0.0
H4078 H 0.9642 0.58293 0.68155 0.0
H4079 H 0.94791 0.57751 0.66167 0.0
C4080 C 0.95884 0.54173 0.72057 0.0
C4081 C 0.94297 0.54664 0.72276 0.0
C4082 C 0.96541 0.54064 0.70291 0.0
C4083 C 0.95655 0.54459 0.68657 0.0
C4084 C 0.94053 0.54918 0.68851 0.0
H4085 H 0.98844 0.51256 0.57076 0.0
H4086 H 0.97362 0.51417 0.59915 0.0
C4087 C 0.93383 0.55018 0.7063 0.0
C4088 C 0.96427 0.54361 0.66783 0.0
H4089 H 0.97672 0.57062 0.63396 0.0
C4090 C 0.97034 0.52649 0.66027 0.0
C4091 C 0.96683 0.55976 0.65809 0.0
C4092 C 0.96152 0.57901 0.66564 0.0
C4093 C 0.97866 0.52503 0.64361 0.0
C4094 C 0.98094 0.54102 0.63366 0.0
C4095 C 0.97496 0.5582 0.64125 0.0
C4096 C 0.9898 0.54035 0.61576 0.0
C4097 C 0.98544 0.50647 0.63721 0.0
C4098 C 1.00371 0.55481 0.61491 0.0
C4099 C 0.01223 0.55397 0.5985 0.0
C4100 C 0.0071 0.53871 0.58221 0.0
C4101 C 0.99298 0.52447 0.58293 0.0
C4102 C 0.98448 0.5253 0.59936 0.0
H4103 H 0.98695 0.49821 0.64906 0.0
H4104 H 0.97662 0.49666 0.62537 0.0
H4105 H 0.99767 0.50986 0.63186 0.0
H4106 H 0.00816 0.5667 0.62713 0.0
H4107 H 0.02291 0.56535 0.59862 0.0
H4108 H 0.23781 0.18167 0.44623 0.0
H4109 H 0.23553 0.19618 0.41717 0.0
H4110 H 0.28311 0.23402 0.43656 0.0
H4111 H 0.28545 0.22003 0.46548 0.0
H4112 H 0.24163 0.24248 0.41435 0.0
H4113 H 0.2845 0.19631 0.38101 0.0
H4114 H 0.27197 0.18901 0.39905 0.0
H4115 H 0.29014 0.20794 0.40592 0.0
C4116 C 0.24758 0.19343 0.44455 0.0
C4117 C 0.26182 0.19962 0.45827 0.0
C4118 C 0.2463 0.20161 0.42788 0.0
C4119 C 0.25925 0.21601 0.42466 0.0
C4120 C 0.27304 0.22283 0.43871 0.0
H4121 H 0.28149 0.2968 0.34963 0.0
H4122 H 0.27414 0.28002 0.3759 0.0
C4123 C 0.27431 0.2148 0.4553 0.0
C4124 C 0.25899 0.22345 0.40634 0.0
H4125 H 0.27828 0.22217 0.36571 0.0
C4126 C 0.24943 0.23786 0.40356 0.0
C4127 C 0.26918 0.21737 0.39229 0.0
C4128 C 0.2795 0.20172 0.39453 0.0
C4129 C 0.25024 0.24684 0.38734 0.0
C4130 C 0.26097 0.24135 0.37368 0.0
C4131 C 0.27005 0.22639 0.37615 0.0
C4132 C 0.26386 0.25183 0.35746 0.0
C4133 C 0.23971 0.26226 0.38504 0.0
C4134 C 0.26067 0.24156 0.3383 0.0
C4135 C 0.26485 0.25121 0.32322 0.0
C4136 C 0.27237 0.27122 0.32707 0.0
C4137 C 0.27541 0.28147 0.34622 0.0
C4138 C 0.27116 0.2719 0.36124 0.0
H4139 H 0.229 0.2609 0.3935 0.0
H4140 H 0.24742 0.27714 0.39028 0.0
H4141 H 0.23492 0.26113 0.3697 0.0
H4142 H 0.25532 0.22598 0.33505 0.0
H4143 H 0.26301 0.24277 0.30872 0.0
H4144 H 0.30775 0.60744 0.52387 0.0
H4145 H 0.32547 0.58367 0.53018 0.0
H4146 H 0.36906 0.62634 0.5273 0.0
H4147 H 0.35163 0.65025 0.52196 0.0
H4148 H 0.344 0.56771 0.50734 0.0
H4149 H 0.38514 0.60666 0.57294 0.0
H4150 H 0.36658 0.61518 0.56483 0.0
H4151 H 0.38589 0.62214 0.5554 0.0
C4152 C 0.32114 0.61183 0.52505 0.0
C4153 C 0.32834 0.63068 0.52255 0.0
C4154 C 0.33123 0.59829 0.52864 0.0
C4155 C 0.3486 0.60339 0.52964 0.0
C4156 C 0.35575 0.62231 0.52735 0.0
H4157 H 0.41783 0.53478 0.48951 0.0
H4158 H 0.39468 0.5522 0.49452 0.0
C4159 C 0.34573 0.63593 0.52411 0.0
C4160 C 0.35921 0.58843 0.53092 0.0
H4161 H 0.39674 0.58256 0.55153 0.0
C4162 C 0.35533 0.57073 0.51734 0.0
C4163 C 0.37383 0.59217 0.54417 0.0
C4164 C 0.37796 0.61 0.56027 0.0
C4165 C 0.3662 0.55722 0.51586 0.0
C4166 C 0.38162 0.56198 0.52778 0.0
C4167 C 0.38502 0.57906 0.54217 0.0
C4168 C 0.39493 0.55034 0.52463 0.0
C4169 C 0.36109 0.53816 0.50137 0.0
C4170 C 0.40314 0.54416 0.54005 0.0
C4171 C 0.41664 0.53462 0.5373 0.0
C4172 C 0.42197 0.531 0.51905 0.0
C4173 C 0.41367 0.53703 0.50361 0.0
C4174 C 0.40039 0.54685 0.50644 0.0
H4175 H 0.34735 0.53342 0.49921 0.0
H4176 H 0.36502 0.54045 0.4873 0.0
H4177 H 0.36684 0.52611 0.5059 0.0
H4178 H 0.39923 0.54694 0.55425 0.0
H4179 H 0.42296 0.53013 0.5494 0.0
H4180 H 0.86015 0.91048 0.56193 0.0
H4181 H 0.88854 0.9246 0.5579 0.0
H4182 H 0.86958 0.9627 0.52311 0.0
H4183 H 0.84106 0.94878 0.52727 0.0
H4184 H 0.90503 0.92653 0.52634 0.0
H4185 H 0.90173 1.00195 0.56407 0.0
H4186 H 0.8861 0.98078 0.56458 0.0
H4187 H 0.88595 0.99239 0.54394 0.0
C4188 C 0.86195 0.92174 0.55327 0.0
C4189 C 0.84826 0.92851 0.54495 0.0
C4190 C 0.87825 0.92984 0.551 0.0
C4191 C 0.88128 0.94497 0.54047 0.0
C4192 C 0.86762 0.95135 0.53166 0.0
H4193 H 0.97849 0.98792 0.50522 0.0
H4194 H 0.94992 0.971 0.50561 0.0
C4195 C 0.85129 0.94327 0.53394 0.0
C4196 C 0.89873 0.95421 0.53903 0.0
H4197 H 0.92607 0.99811 0.54952 0.0
C4198 C 0.90963 0.94219 0.53138 0.0
C4199 C 0.90484 0.97461 0.54587 0.0
C4200 C 0.89412 0.98818 0.55525 0.0
C4201 C 0.92638 0.94999 0.53029 0.0
C4202 C 0.93238 0.97046 0.53674 0.0
C4203 C 0.92148 0.98245 0.54443 0.0
C4204 C 0.95003 0.97975 0.53636 0.0
C4205 C 0.9376 0.93612 0.52273 0.0
C4206 C 0.95963 0.99049 0.55341 0.0
C4207 C 0.97587 1.00028 0.55318 0.0
C4208 C 0.98291 0.99961 0.53587 0.0
C4209 C 0.97346 0.98856 0.51882 0.0
C4210 C 0.95714 0.97881 0.51904 0.0
H4211 H 0.93244 0.92057 0.5233 0.0
H4212 H 0.93886 0.93695 0.5075 0.0
H4213 H 0.9502 0.94021 0.53103 0.0
H4214 H 0.95447 0.99149 0.56695 0.0
H4215 H 0.98279 0.00873 0.56654 0.0
H4216 H 0.87585 0.09248 0.24392 0.0
H4217 H 0.86091 0.11998 0.24131 0.0
H4218 H 0.84124 0.11395 0.29446 0.0
H4219 H 0.85533 0.08641 0.29669 0.0
H4220 H 0.81785 0.12107 0.27309 0.0
H4221 H 0.87202 0.17638 0.26575 0.0
H4222 H 0.86835 0.15507 0.24678 0.0
H4223 H 0.87427 0.15263 0.27114 0.0
C4224 C 0.86822 0.09686 0.25496 0.0
C4225 C 0.86699 0.08682 0.27051 0.0
C4226 C 0.85979 0.11296 0.25363 0.0
C4227 C 0.84998 0.11978 0.26791 0.0
C4228 C 0.84858 0.10944 0.28314 0.0
H4229 H 0.81786 0.2364 0.28848 0.0
H4230 H 0.83267 0.20848 0.28767 0.0
C4231 C 0.85682 0.09344 0.2844 0.0
C4232 C 0.84087 0.1372 0.26723 0.0
H4233 H 0.84563 0.18592 0.26248 0.0
C4234 C 0.82406 0.1352 0.27074 0.0
C4235 C 0.84866 0.1561 0.26456 0.0
C4236 C 0.86685 0.16031 0.26204 0.0
C4237 C 0.81506 0.15099 0.27162 0.0
C4238 C 0.82266 0.16968 0.26827 0.0
C4239 C 0.83949 0.17178 0.26487 0.0
C4240 C 0.81351 0.18715 0.26856 0.0
C4241 C 0.79758 0.14752 0.27694 0.0
C4242 C 0.79772 0.18516 0.25791 0.0
C4243 C 0.7891 0.20116 0.25857 0.0
C4244 C 0.79598 0.22003 0.26962 0.0
C4245 C 0.81195 0.22221 0.2799 0.0
C4246 C 0.82054 0.20611 0.27936 0.0
H4247 H 0.79568 0.1354 0.28518 0.0
H4248 H 0.79465 0.161 0.28569 0.0
H4249 H 0.78862 0.14309 0.26362 0.0
H4250 H 0.79201 0.17117 0.24884 0.0
H4251 H 0.77699 0.1987 0.25018 0.0
H4252 H 0.73833 0.14132 0.97348 0.0
H4253 H 0.72175 0.11891 0.99003 0.0
H4254 H 0.75753 0.13821 0.04085 0.0
H4255 H 0.77434 0.16043 0.02407 0.0
H4256 H 0.72981 0.08813 0.01327 0.0
H4257 H 0.7113 0.15575 0.05317 0.0
H4258 H 0.72064 0.1559 0.03121 0.0
H4259 H 0.73311 0.15486 0.05293 0.0
C4260 C 0.74292 0.14043 0.98801 0.0
C4261 C 0.75755 0.15288 0.99766 0.0
C4262 C 0.73346 0.12758 0.9974 0.0
C4263 C 0.73838 0.12714 0.01665 0.0
C4264 C 0.75357 0.13844 0.02596 0.0
H4265 H 0.66059 0.0843 0.083 0.0
H4266 H 0.68867 0.09624 0.07609 0.0
C4267 C 0.76319 0.15112 0.01639 0.0
C4268 C 0.72642 0.11681 0.02732 0.0
H4269 H 0.69562 0.12525 0.05498 0.0
C4270 C 0.72256 0.09616 0.02278 0.0
C4271 C 0.71703 0.12744 0.03963 0.0
C4272 C 0.72059 0.14972 0.04456 0.0
C4273 C 0.70899 0.08583 0.02963 0.0
C4274 C 0.69893 0.09654 0.04087 0.0
C4275 C 0.70341 0.11712 0.04634 0.0
C4276 C 0.68271 0.08708 0.04526 0.0
C4277 C 0.70524 0.0636 0.02433 0.0
C4278 C 0.67015 0.07799 0.03017 0.0
C4279 C 0.65408 0.07138 0.03403 0.0
C4280 C 0.6503 0.07385 0.05305 0.0
C4281 C 0.66308 0.08239 0.06818 0.0
C4282 C 0.67913 0.08908 0.06429 0.0
H4283 H 0.71667 0.05754 0.02147 0.0
H4284 H 0.69964 0.05703 0.03589 0.0
H4285 H 0.69627 0.05904 0.01101 0.0
H4286 H 0.67257 0.07684 0.01535 0.0
H4287 H 0.64447 0.06525 0.02204 0.0
H4288 H 0.1746 0.4554 0.25839 0.0
H4289 H 0.18905 0.42697 0.25385 0.0
H4290 H 0.2038 0.43704 0.31497 0.0
H4291 H 0.19052 0.46561 0.31934 0.0
H4292 H 0.22804 0.42774 0.30122 0.0
H4293 H 0.17665 0.37191 0.25822 0.0
H4294 H 0.18253 0.39211 0.24638 0.0
H4295 H 0.17364 0.39627 0.26866 0.0
C4296 C 0.18101 0.45164 0.27084 0.0
C4297 C 0.18128 0.46328 0.28924 0.0
C4298 C 0.18917 0.43503 0.26829 0.0
C4299 C 0.19752 0.42911 0.28408 0.0
C4300 C 0.19771 0.44084 0.30234 0.0
H4301 H 0.22656 0.31162 0.28264 0.0
H4302 H 0.21198 0.33977 0.28396 0.0
C4303 C 0.18992 0.45746 0.30483 0.0
C4304 C 0.2065 0.41138 0.28213 0.0
H4305 H 0.20292 0.36213 0.26209 0.0
C4306 C 0.22236 0.41342 0.29266 0.0
C4307 C 0.19941 0.39224 0.27129 0.0
C4308 C 0.18206 0.38789 0.26066 0.0
C4309 C 0.23103 0.39746 0.29285 0.0
C4310 C 0.22428 0.37855 0.28136 0.0
C4311 C 0.20843 0.37642 0.2708 0.0
C4312 C 0.2333 0.36092 0.28033 0.0
C4313 C 0.24709 0.40107 0.30619 0.0
C4314 C 0.25024 0.36271 0.27749 0.0
C4315 C 0.25872 0.34664 0.27717 0.0
C4316 C 0.25055 0.32783 0.27909 0.0
C4317 C 0.23345 0.32577 0.28125 0.0
C4318 C 0.22502 0.34201 0.28194 0.0
H4319 H 0.2474 0.41335 0.31852 0.0
H4320 H 0.24892 0.38773 0.31198 0.0
H4321 H 0.25768 0.4054 0.29825 0.0
H4322 H 0.25703 0.37658 0.27532 0.0
H4323 H 0.27175 0.34898 0.2751 0.0
H4324 H 0.25815 0.45555 0.08055 0.0
H4325 H 0.23146 0.46533 0.0732 0.0
H4326 H 0.22206 0.42265 0.02008 0.0
H4327 H 0.24872 0.41234 0.02763 0.0
H4328 H 0.2211 0.48163 0.04462 0.0
H4329 H 0.17853 0.4106 0.04114 0.0
H4330 H 0.20027 0.4146 0.05045 0.0
H4331 H 0.19396 0.40906 0.02491 0.0
C4332 C 0.25038 0.44805 0.06737 0.0
C4333 C 0.25562 0.43307 0.05473 0.0
C4334 C 0.23508 0.45372 0.06316 0.0
C4335 C 0.22456 0.44462 0.04619 0.0
C4336 C 0.22971 0.42961 0.03349 0.0
H4337 H 0.1437 0.50039 1.00353 0.0
H4338 H 0.1694 0.48721 0.00755 0.0
C4339 C 0.24503 0.4238 0.03777 0.0
C4340 C 0.2086 0.45154 0.04168 0.0
H4341 H 0.16639 0.43662 0.03192 0.0
C4342 C 0.20914 0.47175 0.04184 0.0
C4343 C 0.19293 0.43875 0.03824 0.0
C4344 C 0.19131 0.41708 0.03884 0.0
C4345 C 0.19457 0.47954 0.03881 0.0
C4346 C 0.17893 0.46669 0.03494 0.0
C4347 C 0.17836 0.44646 0.03471 0.0
C4348 C 0.16299 0.47404 0.03185 0.0
C4349 C 0.19608 0.50158 0.04043 0.0
C4350 C 0.1505 0.47045 0.04369 0.0
C4351 C 0.13572 0.47784 0.04132 0.0
C4352 C 0.13305 0.48898 0.02701 0.0
C4353 C 0.14543 0.49217 0.0149 0.0
C4354 C 0.16018 0.48468 0.01721 0.0
H4355 H 0.20811 0.50967 0.04864 0.0
H4356 H 0.19548 0.50513 0.02582 0.0
H4357 H 0.1858 0.50705 0.04759 0.0
H4358 H 0.15233 0.46226 0.05506 0.0
H4359 H 0.12659 0.47528 0.05109 0.0
H4360 H 0.8845 0.97047 0.25555 0.0
H4361 H 0.86958 0.93642 0.25364 0.0
H4362 H 0.83157 0.95904 0.28394 0.0
H4363 H 0.84637 0.99274 0.2861 0.0
H4364 H 0.85951 0.91741 0.2872 0.0
H4365 H 0.8052 0.91933 0.23551 0.0
H4366 H 0.82478 0.93605 0.23748 0.0
H4367 H 0.81078 0.94011 0.25512 0.0
C4368 C 0.8728 0.96824 0.26146 0.0
C4369 C 0.86667 0.98465 0.27079 0.0
C4370 C 0.86431 0.94865 0.26054 0.0
C4371 C 0.84926 0.94487 0.26857 0.0
C4372 C 0.84299 0.96127 0.27744 0.0
H4373 H 0.77193 0.84682 0.27812 0.0
H4374 H 0.78963 0.87797 0.27688 0.0
C4375 C 0.85154 0.9807 0.27863 0.0
C4376 C 0.84019 0.92403 0.26822 0.0
H4377 H 0.80323 0.8923 0.25141 0.0
C4378 C 0.84727 0.91184 0.27921 0.0
C4379 C 0.82407 0.91658 0.25806 0.0
C4380 C 0.81573 0.92857 0.24573 0.0
C4381 C 0.83858 0.89299 0.28085 0.0
C4382 C 0.82237 0.88548 0.27067 0.0
C4383 C 0.81552 0.89763 0.25935 0.0
C4384 C 0.81187 0.86575 0.27215 0.0
C4385 C 0.84665 0.88185 0.2943 0.0
C4386 C 0.81806 0.8478 0.27 0.0
C4387 C 0.80782 0.82971 0.27113 0.0
C4388 C 0.79096 0.82888 0.274 0.0
C4389 C 0.78481 0.84672 0.27593 0.0
C4390 C 0.79502 0.86471 0.27513 0.0
H4391 H 0.85623 0.89187 0.30525 0.0
H4392 H 0.83733 0.87386 0.30189 0.0
H4393 H 0.85296 0.87095 0.28592 0.0
H4394 H 0.83073 0.84761 0.26706 0.0
H4395 H 0.81303 0.81632 0.26934 0.0
H4396 H 0.67061 0.06842 0.77059 0.0
H4397 H 0.68505 0.10115 0.76756 0.0
H4398 H 0.70985 0.10966 0.82524 0.0
H4399 H 0.69608 0.07694 0.82807 0.0
H4400 H 0.68484 0.13721 0.785 0.0
H4401 H 0.74936 0.12563 0.80023 0.0
H4402 H 0.73185 0.10559 0.7963 0.0
H4403 H 0.73767 0.12144 0.81961 0.0
C4404 C 0.67932 0.07712 0.78255 0.0
C4405 C 0.68224 0.06965 0.79949 0.0
C4406 C 0.68757 0.09598 0.78083 0.0
C4407 C 0.69902 0.108 0.79597 0.0
C4408 C 0.70166 0.10067 0.81299 0.0
H4409 H 0.75583 0.22949 0.81929 0.0
H4410 H 0.74153 0.19635 0.82121 0.0
C4411 C 0.69359 0.08182 0.81465 0.0
C4412 C 0.70771 0.12835 0.79433 0.0
H4413 H 0.74584 0.15905 0.80161 0.0
C4414 C 0.6982 0.14183 0.78848 0.0
C4415 C 0.72523 0.13476 0.79883 0.0
C4416 C 0.73662 0.12102 0.80389 0.0
C4417 C 0.70552 0.16132 0.78746 0.0
C4418 C 0.72295 0.16776 0.79229 0.0
C4419 C 0.73248 0.15433 0.79806 0.0
C4420 C 0.73156 0.1882 0.79113 0.0
C4421 C 0.69441 0.17504 0.78163 0.0
C4422 C 0.73103 0.19482 0.77357 0.0
C4423 C 0.73928 0.21376 0.7724 0.0
C4424 C 0.74835 0.22677 0.78879 0.0
C4425 C 0.74893 0.22008 0.80637 0.0
C4426 C 0.74075 0.20103 0.80749 0.0
H4427 H 0.6812 0.16978 0.78329 0.0
H4428 H 0.69846 0.19018 0.79028 0.0
H4429 H 0.69511 0.17582 0.76628 0.0
H4430 H 0.72438 0.18522 0.76061 0.0
H4431 H 0.73854 0.21816 0.75855 0.0
loop_
_geom_bond_atom_site_label_1
_geom_bond_atom_site_label_2
_geom_bond_distance
_geom_bond_site_symmetry_2
_ccdc_geom_bond_type
Mg0 O1 2.028 . S
Mg0 O7 1.986 . S
Mg0 O9 2.114 . S
Mg0 O10 2.251 . S
Mg0 O13 2.010 . S
O1 Mg0 2.028 . S
O1 C4 1.250 . S
O2 Mg3 2.028 1_455 S
O2 C4 1.248 . S
Mg3 O2 2.028 1_655 S
Mg3 O8 2.032 1_655 S
Mg3 O10 2.079 1_655 S
C4 O1 1.250 . S
C4 O2 1.248 . S
C5 O6 1.264 . S
C5 O13 1.249 . S
O6 C5 1.264 . S
O7 Mg0 1.986 . S
O7 C11 1.246 . S
O8 Mg3 2.032 1_455 S
O8 C11 1.259 . S
O9 Mg0 2.114 . S
O9 C12 1.252 . S
O10 Mg0 2.251 . S
O10 Mg3 2.079 1_455 S
O10 C12 1.273 . S
C11 O7 1.246 . S
C11 O8 1.259 . S
C12 O9 1.252 . S
C12 O10 1.273 . S
O13 Mg0 2.010 . S
O13 C5 1.249 . S
Mg14 O15 2.028 . S
Mg14 O21 1.986 . S
Mg14 O23 2.114 1_455 S
Mg14 O24 2.251 1_455 S
Mg14 O27 2.010 . S
O15 Mg14 2.028 . S
O15 C18 1.250 . S
O16 Mg17 2.028 . S
O16 C18 1.248 1_655 S
Mg17 O16 2.028 . S
Mg17 O22 2.032 . S
Mg17 O24 2.079 . S
C18 O15 1.250 . S
C18 O16 1.248 1_455 S
C19 O20 1.264 . S
C19 O27 1.249 . S
O20 C19 1.264 . S
O21 Mg14 1.986 . S
O21 C25 1.246 . S
O22 Mg17 2.032 . S
O22 C25 1.259 1_655 S
O23 Mg14 2.114 1_655 S
O23 C26 1.252 . S
O24 Mg14 2.251 1_655 S
O24 Mg17 2.079 . S
O24 C26 1.273 . S
C25 O21 1.246 . S
C25 O22 1.259 1_455 S
C26 O23 1.252 . S
C26 O24 1.273 . S
O27 Mg14 2.010 . S
O27 C19 1.249 . S
Mg28 O29 2.028 . S
Mg28 O35 1.986 . S
Mg28 O37 2.114 . S
Mg28 O38 2.251 . S
Mg28 O41 2.010 . S
O29 Mg28 2.028 . S
O29 C32 1.250 . S
O30 Mg31 2.028 . S
O30 C32 1.248 . S
Mg31 O30 2.028 . S
Mg31 O36 2.032 . S
Mg31 O38 2.079 . S
C32 O29 1.250 . S
C32 O30 1.248 . S
C33 O34 1.264 . S
C33 O41 1.249 . S
O34 C33 1.264 . S
O35 Mg28 1.986 . S
O35 C39 1.246 . S
O36 Mg31 2.032 . S
O36 C39 1.259 . S
O37 Mg28 2.114 . S
O37 C40 1.252 . S
O38 Mg28 2.251 . S
O38 Mg31 2.079 . S
O38 C40 1.273 . S
C39 O35 1.246 . S
C39 O36 1.259 . S
C40 O37 1.252 . S
C40 O38 1.273 . S
O41 Mg28 2.010 . S
O41 C33 1.249 . S
Mg42 O43 2.028 . S
Mg42 O49 1.986 . S
Mg42 O51 2.114 . S
Mg42 O52 2.251 . S
Mg42 O55 2.010 . S
O43 Mg42 2.028 . S
O43 C46 1.250 . S
O44 Mg45 2.028 . S
O44 C46 1.248 . S
Mg45 O44 2.028 . S
Mg45 O50 2.032 . S
Mg45 O52 2.079 . S
C46 O43 1.250 . S
C46 O44 1.248 . S
C47 O48 1.264 . S
C47 O55 1.249 . S
O48 C47 1.264 . S
O49 Mg42 1.986 . S
O49 C53 1.246 . S
O50 Mg45 2.032 . S
O50 C53 1.259 . S
O51 Mg42 2.114 . S
O51 C54 1.252 . S
O52 Mg42 2.251 . S
O52 Mg45 2.079 . S
O52 C54 1.273 . S
C53 O49 1.246 . S
C53 O50 1.259 . S
C54 O51 1.252 . S
C54 O52 1.273 . S
O55 Mg42 2.010 . S
O55 C47 1.249 . S
Mg56 O57 2.028 . S
Mg56 O63 1.986 . S
Mg56 O65 2.114 . S
Mg56 O66 2.251 . S
Mg56 O69 2.010 . S
O57 Mg56 2.028 . S
O57 C60 1.250 . S
O58 Mg59 2.028 . S
O58 C60 1.248 . S
Mg59 O58 2.028 . S
Mg59 O64 2.032 . S
Mg59 O66 2.079 . S
C60 O57 1.250 . S
C60 O58 1.248 . S
C61 O62 1.264 . S
C61 O69 1.249 . S
O62 C61 1.264 . S
O63 Mg56 1.986 . S
O63 C67 1.246 . S
O64 Mg59 2.032 . S
O64 C67 1.259 . S
O65 Mg56 2.114 . S
O65 C68 1.252 . S
O66 Mg56 2.251 . S
O66 Mg59 2.079 . S
O66 C68 1.273 . S
C67 O63 1.246 . S
C67 O64 1.259 . S
C68 O65 1.252 . S
C68 O66 1.273 . S
O69 Mg56 2.010 . S
O69 C61 1.249 . S
Mg70 O71 2.028 . S
Mg70 O77 1.986 . S
Mg70 O79 2.114 . S
Mg70 O80 2.251 . S
Mg70 O83 2.010 . S
O71 Mg70 2.028 . S
O71 C74 1.250 . S
O72 Mg73 2.028 . S
O72 C74 1.248 . S
Mg73 O72 2.028 . S
Mg73 O78 2.032 . S
Mg73 O80 2.079 . S
C74 O71 1.250 . S
C74 O72 1.248 . S
C75 O76 1.264 . S
C75 O83 1.249 . S
O76 C75 1.264 . S
O77 Mg70 1.986 . S
O77 C81 1.246 . S
O78 Mg73 2.032 . S
O78 C81 1.259 . S
O79 Mg70 2.114 . S
O79 C82 1.252 . S
O80 Mg70 2.251 . S
O80 Mg73 2.079 . S
O80 C82 1.273 . S
C81 O77 1.246 . S
C81 O78 1.259 . S
C82 O79 1.252 . S
C82 O80 1.273 . S
O83 Mg70 2.010 . S
O83 C75 1.249 . S
Mg84 O85 2.028 . S
Mg84 O91 1.986 . S
Mg84 O93 2.114 . S
Mg84 O94 2.251 . S
Mg84 O97 2.010 . S
O85 Mg84 2.028 . S
O85 C88 1.250 . S
O86 Mg87 2.028 . S
O86 C88 1.248 . S
Mg87 O86 2.028 . S
Mg87 O92 2.032 . S
Mg87 O94 2.079 . S
C88 O85 1.250 . S
C88 O86 1.248 . S
C89 O90 1.264 . S
C89 O97 1.249 . S
O90 C89 1.264 . S
O91 Mg84 1.986 . S
O91 C95 1.246 . S
O92 Mg87 2.032 . S
O92 C95 1.259 . S
O93 Mg84 2.114 . S
O93 C96 1.252 . S
O94 Mg84 2.251 . S
O94 Mg87 2.079 . S
O94 C96 1.273 . S
C95 O91 1.246 . S
C95 O92 1.259 . S
C96 O93 1.252 . S
C96 O94 1.273 . S
O97 Mg84 2.010 . S
O97 C89 1.249 . S
Mg98 O99 2.028 1_655 S
Mg98 O105 1.986 1_655 S
Mg98 O107 2.114 . S
Mg98 O108 2.251 . S
Mg98 O111 2.010 1_655 S
O99 Mg98 2.028 1_455 S
O99 C102 1.222 1_455 S
O100 Mg101 2.028 . S
O100 C102 1.289 . S
Mg101 O100 2.028 . S
Mg101 O106 2.032 . S
Mg101 O108 2.079 . S
C102 O99 1.222 1_655 S
C102 O100 1.289 . S
C103 O104 1.264 . S
C103 O111 1.249 . S
O104 C103 1.264 . S
O105 Mg98 1.986 1_455 S
O105 C109 1.246 1_455 S
O106 Mg101 2.032 . S
O106 C109 1.259 . S
O107 Mg98 2.114 . S
O107 C110 1.252 . S
O108 Mg98 2.251 . S
O108 Mg101 2.079 . S
O108 C110 1.273 . S
C109 O105 1.246 1_655 S
C109 O106 1.259 . S
C110 O107 1.252 . S
C110 O108 1.273 . S
O111 Mg98 2.010 1_455 S
O111 C103 1.249 . S
Mg112 O113 2.028 . S
Mg112 O119 1.986 . S
Mg112 O121 2.114 . S
Mg112 O122 2.251 . S
Mg112 O125 2.010 . S
O113 Mg112 2.028 . S
O113 C116 1.235 1_545 S
O114 Mg115 2.028 . S
O114 C116 1.240 1_545 S
Mg115 O114 2.028 . S
Mg115 O120 2.032 . S
Mg115 O122 2.079 . S
C116 O113 1.235 1_565 S
C116 O114 1.240 1_565 S
C117 O118 1.264 . S
C117 O125 1.249 . S
O118 C117 1.264 . S
O119 Mg112 1.986 . S
O119 C123 1.246 . S
O120 Mg115 2.032 . S
O120 C123 1.259 . S
O121 Mg112 2.114 . S
O121 C124 1.252 . S
O122 Mg112 2.251 . S
O122 Mg115 2.079 . S
O122 C124 1.273 . S
C123 O119 1.246 . S
C123 O120 1.259 . S
C124 O121 1.252 . S
C124 O122 1.273 . S
O125 Mg112 2.010 . S
O125 C117 1.249 . S
Mg126 O127 2.028 . S
Mg126 O133 1.986 . S
Mg126 O135 2.114 . S
Mg126 O136 2.251 . S
Mg126 O139 2.010 . S
O127 Mg126 2.028 . S
O127 C130 1.250 . S
O128 Mg129 2.028 . S
O128 C130 1.248 . S
Mg129 O128 2.028 . S
Mg129 O134 2.032 . S
Mg129 O136 2.079 . S
C130 O127 1.250 . S
C130 O128 1.248 . S
C131 O132 1.264 . S
C131 O139 1.249 . S
O132 C131 1.264 . S
O133 Mg126 1.986 . S
O133 C137 1.246 . S
O134 Mg129 2.032 . S
O134 C137 1.259 . S
O135 Mg126 2.114 . S
O135 C138 1.252 . S
O136 Mg126 2.251 . S
O136 Mg129 2.079 . S
O136 C138 1.273 . S
C137 O133 1.246 . S
C137 O134 1.259 . S
C138 O135 1.252 . S
C138 O136 1.273 . S
O139 Mg126 2.010 . S
O139 C131 1.249 . S
Mg140 O141 2.028 1_565 S
Mg140 O147 1.986 . S
Mg140 O149 2.114 1_565 S
Mg140 O150 2.251 . S
Mg140 O153 2.010 . S
O141 Mg140 2.028 1_545 S
O141 C144 1.250 . S
O142 Mg143 2.028 . S
O142 C144 1.248 . S
Mg143 O142 2.028 . S
Mg143 O148 2.032 1_545 S
Mg143 O150 2.079 1_545 S
C144 O141 1.250 . S
C144 O142 1.248 . S
C145 O146 1.264 . S
C145 O153 1.249 . S
O146 C145 1.264 . S
O147 Mg140 1.986 . S
O147 C151 1.246 . S
O148 Mg143 2.032 1_565 S
O148 C151 1.259 . S
O149 Mg140 2.114 1_545 S
O149 C152 1.252 . S
O150 Mg140 2.251 . S
O150 Mg143 2.079 1_565 S
O150 C152 1.273 1_565 S
C151 O147 1.246 . S
C151 O148 1.259 . S
C152 O149 1.252 . S
C152 O150 1.273 1_545 S
O153 Mg140 2.010 . S
O153 C145 1.249 . S
Mg154 O155 2.028 1_554 S
Mg154 O161 1.986 . S
Mg154 O163 2.114 1_554 S
Mg154 O164 2.251 . S
Mg154 O167 2.010 . S
O155 Mg154 2.028 1_556 S
O155 C158 1.250 . S
O156 Mg157 2.028 1_556 S
O156 C158 1.248 . S
Mg157 O156 2.028 1_554 S
Mg157 O162 2.032 . S
Mg157 O164 2.079 . S
C158 O155 1.250 . S
C158 O156 1.248 . S
C159 O160 1.264 . S
C159 O167 1.249 . S
O160 C159 1.264 . S
O161 Mg154 1.986 . S
O161 C165 1.246 . S
O162 Mg157 2.032 . S
O162 C165 1.259 . S
O163 Mg154 2.114 1_556 S
O163 C166 1.252 1_556 S
O164 Mg154 2.251 . S
O164 Mg157 2.079 . S
O164 C166 1.273 . S
C165 O161 1.246 . S
C165 O162 1.259 . S
C166 O163 1.252 1_554 S
C166 O164 1.273 . S
O167 Mg154 2.010 . S
O167 C159 1.249 . S
Mg168 O169 2.028 . S
Mg168 O175 1.986 . S
Mg168 O177 2.114 . S
Mg168 O178 2.251 . S
Mg168 O181 2.010 . S
O169 Mg168 2.028 . S
O169 C172 1.248 . S
O170 Mg171 2.028 . S
O170 C172 1.246 . S
Mg171 O170 2.028 . S
Mg171 O176 2.032 . S
Mg171 O178 2.079 . S
C172 O169 1.248 . S
C172 O170 1.246 . S
C173 O174 1.264 . S
C173 O181 1.249 . S
O174 C173 1.264 . S
O175 Mg168 1.986 . S
O175 C179 1.246 . S
O176 Mg171 2.032 . S
O176 C179 1.259 . S
O177 Mg168 2.114 . S
O177 C180 1.252 . S
O178 Mg168 2.251 . S
O178 Mg171 2.079 . S
O178 C180 1.273 . S
C179 O175 1.246 . S
C179 O176 1.259 . S
C180 O177 1.252 . S
C180 O178 1.273 . S
O181 Mg168 2.010 . S
O181 C173 1.249 . S
Mg182 O183 2.028 . S
Mg182 O189 1.986 . S
Mg182 O191 2.114 . S
Mg182 O192 2.251 . S
Mg182 O195 2.010 . S
O183 Mg182 2.028 . S
O183 C186 1.250 . S
O184 Mg185 2.028 . S
O184 C186 1.248 . S
Mg185 O184 2.028 . S
Mg185 O190 2.032 . S
Mg185 O192 2.079 . S
C186 O183 1.250 . S
C186 O184 1.248 . S
C187 O188 1.264 . S
C187 O195 1.249 . S
O188 C187 1.264 . S
O189 Mg182 1.986 . S
O189 C193 1.246 . S
O190 Mg185 2.032 . S
O190 C193 1.259 . S
O191 Mg182 2.114 . S
O191 C194 1.252 . S
O192 Mg182 2.251 . S
O192 Mg185 2.079 . S
O192 C194 1.273 . S
C193 O189 1.246 . S
C193 O190 1.259 . S
C194 O191 1.252 . S
C194 O192 1.273 . S
O195 Mg182 2.010 . S
O195 C187 1.249 . S
Mg196 O197 2.028 . S
Mg196 O203 1.986 . S
Mg196 O205 2.114 . S
Mg196 O206 2.251 . S
Mg196 O209 2.010 . S
O197 Mg196 2.028 . S
O197 C200 1.250 . S
O198 Mg199 2.028 . S
O198 C200 1.248 . S
Mg199 O198 2.028 . S
Mg199 O204 2.032 . S
Mg199 O206 2.079 . S
C200 O197 1.250 . S
C200 O198 1.248 . S
C201 O202 1.264 . S
C201 O209 1.249 . S
O202 C201 1.264 . S
O203 Mg196 1.986 . S
O203 C207 1.246 . S
O204 Mg199 2.032 . S
O204 C207 1.259 . S
O205 Mg196 2.114 . S
O205 C208 1.252 . S
O206 Mg196 2.251 . S
O206 Mg199 2.079 . S
O206 C208 1.273 . S
C207 O203 1.246 . S
C207 O204 1.259 . S
C208 O205 1.252 . S
C208 O206 1.273 . S
O209 Mg196 2.010 . S
O209 C201 1.249 . S
Mg210 O211 2.028 . S
Mg210 O217 1.986 . S
Mg210 O219 2.114 . S
Mg210 O220 2.251 . S
Mg210 O223 2.010 . S
O211 Mg210 2.028 . S
O211 C214 1.250 . S
O212 Mg213 2.028 . S
O212 C214 1.248 . S
Mg213 O212 2.028 . S
Mg213 O218 2.032 . S
Mg213 O220 2.079 . S
C214 O211 1.250 . S
C214 O212 1.248 . S
C215 O216 1.264 . S
C215 O223 1.249 . S
O216 C215 1.264 . S
O217 Mg210 1.986 . S
O217 C221 1.246 . S
O218 Mg213 2.032 . S
O218 C221 1.259 . S
O219 Mg210 2.114 . S
O219 C222 1.252 . S
O220 Mg210 2.251 . S
O220 Mg213 2.079 . S
O220 C222 1.273 . S
C221 O217 1.246 . S
C221 O218 1.259 . S
C222 O219 1.252 . S
C222 O220 1.273 . S
O223 Mg210 2.010 . S
O223 C215 1.249 . S
Mg224 O225 2.028 . S
Mg224 O231 1.986 . S
Mg224 O233 2.114 . S
Mg224 O234 2.251 . S
Mg224 O237 2.010 . S
O225 Mg224 2.028 . S
O225 C228 1.250 . S
O226 Mg227 2.028 . S
O226 C228 1.248 . S
Mg227 O226 2.028 . S
Mg227 O232 2.032 . S
Mg227 O234 2.079 . S
C228 O225 1.250 . S
C228 O226 1.248 . S
C229 O230 1.264 . S
C229 O237 1.249 . S
O230 C229 1.264 . S
O231 Mg224 1.986 . S
O231 C235 1.246 . S
O232 Mg227 2.032 . S
O232 C235 1.259 . S
O233 Mg224 2.114 . S
O233 C236 1.252 . S
O234 Mg224 2.251 . S
O234 Mg227 2.079 . S
O234 C236 1.273 . S
C235 O231 1.246 . S
C235 O232 1.259 . S
C236 O233 1.252 . S
C236 O234 1.273 . S
O237 Mg224 2.010 . S
O237 C229 1.249 . S
Mg238 O239 2.028 . S
Mg238 O245 1.986 . S
Mg238 O247 2.114 . S
Mg238 O248 2.251 . S
Mg238 O251 2.010 . S
O239 Mg238 2.028 . S
O239 C242 1.250 . S
O240 Mg241 2.028 . S
O240 C242 1.248 . S
Mg241 O240 2.028 . S
Mg241 O246 2.032 . S
Mg241 O248 2.079 . S
C242 O239 1.250 . S
C242 O240 1.248 . S
C243 O244 1.264 . S
C243 O251 1.249 . S
O244 C243 1.264 . S
O245 Mg238 1.986 . S
O245 C249 1.246 . S
O246 Mg241 2.032 . S
O246 C249 1.259 . S
O247 Mg238 2.114 . S
O247 C250 1.252 . S
O248 Mg238 2.251 . S
O248 Mg241 2.079 . S
O248 C250 1.273 . S
C249 O245 1.246 . S
C249 O246 1.259 . S
C250 O247 1.252 . S
C250 O248 1.273 . S
O251 Mg238 2.010 . S
O251 C243 1.249 . S
Mg252 O253 2.028 . S
Mg252 O259 1.986 . S
Mg252 O261 2.114 . S
Mg252 O262 2.251 . S
Mg252 O265 2.010 . S
O253 Mg252 2.028 . S
O253 C256 1.250 . S
O254 Mg255 2.028 . S
O254 C256 1.248 . S
Mg255 O254 2.028 . S
Mg255 O260 2.032 . S
Mg255 O262 2.079 . S
C256 O253 1.250 . S
C256 O254 1.248 . S
C257 O258 1.264 . S
C257 O265 1.249 . S
O258 C257 1.264 . S
O259 Mg252 1.986 . S
O259 C263 1.246 . S
O260 Mg255 2.032 . S
O260 C263 1.259 . S
O261 Mg252 2.114 . S
O261 C264 1.252 . S
O262 Mg252 2.251 . S
O262 Mg255 2.079 . S
O262 C264 1.273 . S
C263 O259 1.246 . S
C263 O260 1.259 . S
C264 O261 1.252 . S
C264 O262 1.273 . S
O265 Mg252 2.010 . S
O265 C257 1.249 . S
Mg266 O267 2.028 . S
Mg266 O273 1.986 1_545 S
Mg266 O275 2.114 . S
Mg266 O276 2.251 . S
Mg266 O279 2.010 . S
O267 Mg266 2.028 . S
O267 C270 1.250 . S
O268 Mg269 2.028 . S
O268 C270 1.248 . S
Mg269 O268 2.028 . S
Mg269 O274 2.032 1_545 S
Mg269 O276 2.079 . S
C270 O267 1.250 . S
C270 O268 1.248 . S
C271 O272 1.264 1_545 S
C271 O279 1.249 . S
O272 C271 1.264 1_565 S
O273 Mg266 1.986 1_565 S
O273 C277 1.246 . S
O274 Mg269 2.032 1_565 S
O274 C277 1.259 . S
O275 Mg266 2.114 . S
O275 C278 1.252 . S
O276 Mg266 2.251 . S
O276 Mg269 2.079 . S
O276 C278 1.273 . S
C277 O273 1.246 . S
C277 O274 1.259 . S
C278 O275 1.252 . S
C278 O276 1.273 . S
O279 Mg266 2.010 . S
O279 C271 1.249 . S
Mg280 O281 2.028 . S
Mg280 O287 1.986 1_554 S
Mg280 O289 2.114 . S
Mg280 O290 2.251 . S
Mg280 O293 2.009 . S
O281 Mg280 2.028 . S
O281 C284 1.250 . S
O282 Mg283 2.028 . S
O282 C284 1.248 . S
Mg283 O282 2.028 . S
Mg283 O288 2.032 1_554 S
Mg283 O290 2.079 . S
C284 O281 1.250 . S
C284 O282 1.248 . S
C285 O286 1.264 1_554 S
C285 O293 1.258 . S
O286 C285 1.264 1_556 S
O287 Mg280 1.986 1_556 S
O287 C291 1.246 . S
O288 Mg283 2.032 1_556 S
O288 C291 1.259 . S
O289 Mg280 2.114 . S
O289 C292 1.252 . S
O290 Mg280 2.251 . S
O290 Mg283 2.079 . S
O290 C292 1.273 . S
C291 O287 1.246 . S
C291 O288 1.259 . S
C292 O289 1.252 . S
C292 O290 1.273 . S
O293 Mg280 2.009 . S
O293 C285 1.258 . S
Mg294 O295 2.028 . S
Mg294 O301 1.986 . S
Mg294 O303 2.114 . S
Mg294 O304 2.251 . S
Mg294 O307 2.010 . S
O295 Mg294 2.028 . S
O295 C298 1.250 . S
O296 Mg297 2.028 . S
O296 C298 1.248 . S
Mg297 O296 2.028 . S
Mg297 O302 2.032 . S
Mg297 O304 2.079 . S
C298 O295 1.250 . S
C298 O296 1.248 . S
C299 O300 1.264 . S
C299 O307 1.249 . S
O300 C299 1.264 . S
O301 Mg294 1.986 . S
O301 C305 1.246 . S
O302 Mg297 2.032 . S
O302 C305 1.259 . S
O303 Mg294 2.114 . S
O303 C306 1.252 . S
O304 Mg294 2.251 . S
O304 Mg297 2.079 . S
O304 C306 1.273 . S
C305 O301 1.246 . S
C305 O302 1.259 . S
C306 O303 1.252 . S
C306 O304 1.273 . S
O307 Mg294 2.010 . S
O307 C299 1.249 . S
Mg308 O309 2.028 . S
Mg308 O315 1.986 . S
Mg308 O317 2.114 . S
Mg308 O318 2.251 . S
Mg308 O321 2.010 . S
O309 Mg308 2.028 . S
O309 C312 1.250 . S
O310 Mg311 2.028 . S
O310 C312 1.248 . S
Mg311 O310 2.028 . S
Mg311 O316 2.032 . S
Mg311 O318 2.079 . S
C312 O309 1.250 . S
C312 O310 1.248 . S
C313 O314 1.264 . S
C313 O321 1.249 . S
O314 C313 1.264 . S
O315 Mg308 1.986 . S
O315 C319 1.246 . S
O316 Mg311 2.032 . S
O316 C319 1.259 . S
O317 Mg308 2.114 . S
O317 C320 1.252 . S
O318 Mg308 2.251 . S
O318 Mg311 2.079 . S
O318 C320 1.273 . S
C319 O315 1.246 . S
C319 O316 1.259 . S
C320 O317 1.252 . S
C320 O318 1.273 . S
O321 Mg308 2.010 . S
O321 C313 1.249 . S
Mg322 O323 2.028 . S
Mg322 O329 1.986 . S
Mg322 O331 2.114 . S
Mg322 O332 2.251 . S
Mg322 O335 2.010 . S
O323 Mg322 2.028 . S
O323 C326 1.250 . S
O324 Mg325 2.028 . S
O324 C326 1.248 . S
Mg325 O324 2.028 . S
Mg325 O330 2.032 . S
Mg325 O332 2.079 . S
C326 O323 1.250 . S
C326 O324 1.248 . S
C327 O328 1.264 . S
C327 O335 1.249 . S
O328 C327 1.264 . S
O329 Mg322 1.986 . S
O329 C333 1.246 . S
O330 Mg325 2.032 . S
O330 C333 1.259 . S
O331 Mg322 2.114 . S
O331 C334 1.252 . S
O332 Mg322 2.251 . S
O332 Mg325 2.079 . S
O332 C334 1.273 . S
C333 O329 1.246 . S
C333 O330 1.259 . S
C334 O331 1.252 . S
C334 O332 1.273 . S
O335 Mg322 2.010 . S
O335 C327 1.249 . S
C336 Eu337 2.835 . S
C336 C338 1.500 1_545 S
C336 O356 1.257 . S
C336 O357 1.260 . S
Eu337 C336 2.835 . S
Eu337 O356 2.473 . S
Eu337 O357 2.480 . S
Eu337 O358 2.430 . S
Eu337 O359 2.670 . S
Eu337 O360 2.394 1_545 S
Eu337 O365 2.309 1_554 S
Eu337 O367 2.374 . S
C338 C336 1.500 1_565 S
C338 C339 1.377 . S
C338 C343 1.377 . S
C339 C338 1.377 . S
C339 C340 1.395 . S
C339 H368 0.931 1_565 S
C340 C339 1.395 . S
C340 C341 1.383 . S
C340 H369 0.931 . S
C341 C340 1.383 . S
C341 C342 1.394 . S
C342 C341 1.394 . S
C342 C343 1.378 . S
C342 H370 0.931 . S
C343 C338 1.377 . S
C343 C342 1.378 . S
C343 H371 0.931 . S
C344 O358 1.259 . S
C344 O359 1.270 . S
C345 O360 1.251 . S
C345 O361 1.251 . S
C346 Eu347 2.835 1_556 S
C346 C348 1.500 . S
C346 O362 1.257 1_556 S
C346 O363 1.260 . S
Eu347 C346 2.835 1_554 S
Eu347 O359 2.355 1_655 S
Eu347 O361 2.374 1_645 S
Eu347 O362 2.473 . S
Eu347 O363 2.480 1_554 S
Eu347 O364 2.430 1_654 S
Eu347 O365 2.655 1_654 S
Eu347 O366 2.410 1_655 S
C348 C346 1.500 . S
C348 C349 1.377 . S
C348 C353 1.377 1_556 S
C349 C348 1.377 . S
C349 C350 1.395 . S
C349 H372 0.931 . S
C350 C349 1.395 . S
C350 C351 1.383 . S
C350 H373 0.931 . S
C351 C350 1.383 . S
C351 C352 1.394 1_556 S
C352 C351 1.394 1_554 S
C352 C353 1.378 . S
C352 H374 0.931 . S
C353 C348 1.377 1_554 S
C353 C352 1.378 . S
C353 H375 0.931 . S
C354 O364 1.259 . S
C354 O365 1.329 . S
C355 O366 1.265 . S
C355 O367 1.251 . S
O356 C336 1.257 . S
O356 Eu337 2.473 . S
O357 C336 1.260 . S
O357 Eu337 2.480 . S
O358 Eu337 2.430 . S
O358 C344 1.259 . S
O359 Eu337 2.670 . S
O359 C344 1.270 . S
O359 Eu347 2.355 1_455 S
O360 Eu337 2.394 1_565 S
O360 C345 1.251 . S
O361 C345 1.251 . S
O361 Eu347 2.374 1_465 S
O362 C346 1.257 1_554 S
O362 Eu347 2.473 . S
O363 C346 1.260 . S
O363 Eu347 2.480 1_556 S
O364 Eu347 2.430 1_456 S
O364 C354 1.259 . S
O365 Eu337 2.309 1_556 S
O365 Eu347 2.655 1_456 S
O365 C354 1.329 . S
O366 Eu347 2.410 1_455 S
O366 C355 1.265 . S
O367 Eu337 2.374 . S
O367 C355 1.251 . S
H368 C339 0.931 1_545 S
H369 C340 0.931 . S
H370 C342 0.931 . S
H371 C343 0.931 . S
H372 C349 0.931 . S
H373 C350 0.931 . S
H374 C352 0.931 . S
H375 C353 0.931 . S
C376 Eu377 2.835 . S
C376 C378 1.500 . S
C376 O396 1.257 . S
C376 O397 1.260 . S
Eu377 C376 2.835 . S
Eu377 O396 2.473 . S
Eu377 O397 2.480 . S
Eu377 O398 2.430 . S
Eu377 O399 2.670 . S
Eu377 O400 2.394 . S
Eu377 O405 2.355 . S
Eu377 O407 2.374 . S
C378 C376 1.500 . S
C378 C379 1.377 . S
C378 C383 1.377 . S
C379 C378 1.377 . S
C379 C380 1.395 . S
C379 H408 0.931 . S
C380 C379 1.395 . S
C380 C381 1.383 . S
C380 H409 0.931 . S
C381 C380 1.383 . S
C381 C382 1.394 . S
C382 C381 1.394 . S
C382 C383 1.378 . S
C382 H410 0.931 . S
C383 C378 1.377 . S
C383 C382 1.378 . S
C383 H411 0.931 . S
C384 O398 1.259 . S
C384 O399 1.270 . S
C385 O400 1.251 . S
C385 O401 1.251 . S
C386 Eu387 2.835 . S
C386 C388 1.500 . S
C386 O402 1.257 . S
C386 O403 1.260 . S
Eu387 C386 2.835 . S
Eu387 O399 2.355 . S
Eu387 O401 2.374 . S
Eu387 O402 2.473 . S
Eu387 O403 2.480 . S
Eu387 O404 2.430 . S
Eu387 O405 2.670 . S
Eu387 O406 2.394 . S
C388 C386 1.500 . S
C388 C389 1.377 . S
C388 C393 1.377 . S
C389 C388 1.377 . S
C389 C390 1.395 . S
C389 H412 0.931 . S
C390 C389 1.395 . S
C390 C391 1.383 . S
C390 H413 0.931 . S
C391 C390 1.383 . S
C391 C392 1.394 . S
C392 C391 1.394 . S
C392 C393 1.378 . S
C392 H414 0.931 . S
C393 C388 1.377 . S
C393 C392 1.378 . S
C393 H415 0.931 . S
C394 O404 1.259 . S
C394 O405 1.270 . S
C395 O406 1.251 . S
C395 O407 1.251 . S
O396 C376 1.257 . S
O396 Eu377 2.473 . S
O397 C376 1.260 . S
O397 Eu377 2.480 . S
O398 Eu377 2.430 . S
O398 C384 1.259 . S
O399 Eu377 2.670 . S
O399 C384 1.270 . S
O399 Eu387 2.355 . S
O400 Eu377 2.394 . S
O400 C385 1.251 . S
O401 C385 1.251 . S
O401 Eu387 2.374 . S
O402 C386 1.257 . S
O402 Eu387 2.473 . S
O403 C386 1.260 . S
O403 Eu387 2.480 . S
O404 Eu387 2.430 . S
O404 C394 1.259 . S
O405 Eu377 2.355 . S
O405 Eu387 2.670 . S
O405 C394 1.270 . S
O406 Eu387 2.394 . S
O406 C395 1.251 . S
O407 Eu377 2.374 . S
O407 C395 1.251 . S
H408 C379 0.931 . S
H409 C380 0.931 . S
H410 C382 0.931 . S
H411 C383 0.931 . S
H412 C389 0.931 . S
H413 C390 0.931 . S
H414 C392 0.931 . S
H415 C393 0.931 . S
C416 Eu417 2.835 . S
C416 C418 1.500 . S
C416 O436 1.257 . S
C416 O437 1.260 . S
Eu417 C416 2.835 . S
Eu417 O436 2.473 . S
Eu417 O437 2.480 . S
Eu417 O438 2.430 . S
Eu417 O439 2.670 . S
Eu417 O440 2.394 . S
Eu417 O445 2.355 . S
Eu417 O447 2.374 1_545 S
C418 C416 1.500 . S
C418 C419 1.377 . S
C418 C423 1.377 . S
C419 C418 1.377 . S
C419 C420 1.395 . S
C419 H448 0.931 . S
C420 C419 1.395 . S
C420 C421 1.383 . S
C420 H449 0.931 . S
C421 C420 1.383 . S
C421 C422 1.394 . S
C422 C421 1.394 . S
C422 C423 1.378 . S
C422 H450 0.931 . S
C423 C418 1.377 . S
C423 C422 1.378 . S
C423 H451 0.931 . S
C424 O438 1.259 . S
C424 O439 1.270 . S
C425 O440 1.251 . S
C425 O441 1.251 . S
C426 Eu427 2.835 . S
C426 C428 1.500 1_545 S
C426 O442 1.257 . S
C426 O443 1.260 . S
Eu427 C426 2.835 . S
Eu427 O439 2.355 . S
Eu427 O441 2.374 . S
Eu427 O442 2.473 . S
Eu427 O443 2.480 . S
Eu427 O444 2.430 . S
Eu427 O445 2.670 . S
Eu427 O446 2.394 1_545 S
C428 C426 1.500 1_565 S
C428 C429 1.377 . S
C428 C433 1.377 . S
C429 C428 1.377 . S
C429 C430 1.395 . S
C429 H452 0.931 . S
C430 C429 1.395 . S
C430 C431 1.383 . S
C430 H453 0.931 . S
C431 C430 1.383 . S
C431 C432 1.394 . S
C432 C431 1.394 . S
C432 C433 1.378 . S
C432 H454 0.931 . S
C433 C428 1.377 . S
C433 C432 1.378 . S
C433 H455 0.931 . S
C434 O444 1.259 . S
C434 O445 1.270 . S
C435 O446 1.251 . S
C435 O447 1.251 . S
O436 C416 1.257 . S
O436 Eu417 2.473 . S
O437 C416 1.260 . S
O437 Eu417 2.480 . S
O438 Eu417 2.430 . S
O438 C424 1.259 . S
O439 Eu417 2.670 . S
O439 C424 1.270 . S
O439 Eu427 2.355 . S
O440 Eu417 2.394 . S
O440 C425 1.251 . S
O441 C425 1.251 . S
O441 Eu427 2.374 . S
O442 C426 1.257 . S
O442 Eu427 2.473 . S
O443 C426 1.260 . S
O443 Eu427 2.480 . S
O444 Eu427 2.430 . S
O444 C434 1.259 . S
O445 Eu417 2.355 . S
O445 Eu427 2.670 . S
O445 C434 1.270 . S
O446 Eu427 2.394 1_565 S
O446 C435 1.251 . S
O447 Eu417 2.374 1_565 S
O447 C435 1.251 . S
H448 C419 0.931 . S
H449 C420 0.931 . S
H450 C422 0.931 . S
H451 C423 0.931 . S
H452 C429 0.931 . S
H453 C430 0.931 . S
H454 C432 0.931 . S
H455 C433 0.931 . S
C456 Eu457 2.835 . S
C456 C458 1.500 . S
C456 O476 1.257 . S
C456 O477 1.260 . S
Eu457 C456 2.835 . S
Eu457 O476 2.473 . S
Eu457 O477 2.480 . S
Eu457 O478 2.430 . S
Eu457 O479 2.670 . S
Eu457 O480 2.394 . S
Eu457 O485 2.355 . S
Eu457 O487 2.374 . S
C458 C456 1.500 . S
C458 C459 1.377 . S
C458 C463 1.377 . S
C459 C458 1.377 . S
C459 C460 1.395 . S
C459 H488 0.931 . S
C460 C459 1.395 . S
C460 C461 1.383 . S
C460 H489 0.931 . S
C461 C460 1.383 . S
C461 C462 1.394 . S
C462 C461 1.394 . S
C462 C463 1.378 . S
C462 H490 0.931 . S
C463 C458 1.377 . S
C463 C462 1.378 . S
C463 H491 0.931 . S
C464 O478 1.259 . S
C464 O479 1.270 . S
C465 O480 1.251 . S
C465 O481 1.251 . S
C466 Eu467 2.835 . S
C466 C468 1.500 . S
C466 O482 1.257 . S
C466 O483 1.260 . S
Eu467 C466 2.835 . S
Eu467 O479 2.355 . S
Eu467 O481 2.374 . S
Eu467 O482 2.473 . S
Eu467 O483 2.480 . S
Eu467 O484 2.430 . S
Eu467 O485 2.670 . S
Eu467 O486 2.394 . S
C468 C466 1.500 . S
C468 C469 1.377 . S
C468 C473 1.377 . S
C469 C468 1.377 . S
C469 C470 1.395 . S
C469 H492 0.931 . S
C470 C469 1.395 . S
C470 C471 1.383 . S
C470 H493 0.931 . S
C471 C470 1.383 . S
C471 C472 1.394 . S
C472 C471 1.394 . S
C472 C473 1.378 . S
C472 H494 0.931 . S
C473 C468 1.377 . S
C473 C472 1.378 . S
C473 H495 0.931 . S
C474 O484 1.259 . S
C474 O485 1.270 . S
C475 O486 1.251 . S
C475 O487 1.251 . S
O476 C456 1.257 . S
O476 Eu457 2.473 . S
O477 C456 1.260 . S
O477 Eu457 2.480 . S
O478 Eu457 2.430 . S
O478 C464 1.259 . S
O479 Eu457 2.670 . S
O479 C464 1.270 . S
O479 Eu467 2.355 . S
O480 Eu457 2.394 . S
O480 C465 1.251 . S
O481 C465 1.251 . S
O481 Eu467 2.374 . S
O482 C466 1.257 . S
O482 Eu467 2.473 . S
O483 C466 1.260 . S
O483 Eu467 2.480 . S
O484 Eu467 2.430 . S
O484 C474 1.259 . S
O485 Eu457 2.355 . S
O485 Eu467 2.670 . S
O485 C474 1.270 . S
O486 Eu467 2.394 . S
O486 C475 1.251 . S
O487 Eu457 2.374 . S
O487 C475 1.251 . S
H488 C459 0.931 . S
H489 C460 0.931 . S
H490 C462 0.931 . S
H491 C463 0.931 . S
H492 C469 0.931 . S
H493 C470 0.931 . S
H494 C472 0.931 . S
H495 C473 0.931 . S
C496 Eu497 2.835 . S
C496 C498 1.500 . S
C496 O516 1.257 . S
C496 O517 1.260 . S
Eu497 C496 2.835 . S
Eu497 O516 2.473 . S
Eu497 O517 2.480 . S
Eu497 O518 2.430 1_565 S
Eu497 O519 2.670 1_565 S
Eu497 O520 2.394 1_565 S
Eu497 O525 2.318 1_465 S
Eu497 O527 2.374 1_565 S
C498 C496 1.500 . S
C498 C499 1.377 . S
C498 C503 1.377 . S
C499 C498 1.377 . S
C499 C500 1.395 . S
C499 H528 0.931 . S
C500 C499 1.395 . S
C500 C501 1.383 . S
C500 H529 0.931 . S
C501 C500 1.383 . S
C501 C502 1.394 . S
C502 C501 1.394 . S
C502 C503 1.378 . S
C502 H530 0.931 . S
C503 C498 1.377 . S
C503 C502 1.378 . S
C503 H531 0.931 . S
C504 O518 1.259 . S
C504 O519 1.270 . S
C505 O520 1.251 . S
C505 O521 1.251 . S
C506 Eu507 2.835 . S
C506 C508 1.500 . S
C506 O522 1.257 . S
C506 O523 1.260 1_455 S
Eu507 C506 2.835 . S
Eu507 O519 2.355 . S
Eu507 O521 2.374 . S
Eu507 O522 2.473 . S
Eu507 O523 2.480 1_455 S
Eu507 O524 2.430 1_455 S
Eu507 O525 2.663 1_455 S
Eu507 O526 2.394 1_455 S
C508 C506 1.500 . S
C508 C509 1.377 1_455 S
C508 C513 1.377 . S
C509 C508 1.377 1_655 S
C509 C510 1.395 . S
C509 H532 0.931 . S
C510 C509 1.395 . S
C510 C511 1.400 . S
C510 H533 0.931 . S
C511 C510 1.400 . S
C511 C512 1.373 1_655 S
C512 C511 1.373 1_455 S
C512 C513 1.378 . S
C512 H534 0.931 . S
C513 C508 1.377 . S
C513 C512 1.378 . S
C513 H535 0.931 . S
C514 O524 1.259 . S
C514 O525 1.314 . S
C515 O526 1.251 1_455 S
C515 O527 1.251 . S
O516 C496 1.257 . S
O516 Eu497 2.473 . S
O517 C496 1.260 . S
O517 Eu497 2.480 . S
O518 Eu497 2.430 1_545 S
O518 C504 1.259 . S
O519 Eu497 2.670 1_545 S
O519 C504 1.270 . S
O519 Eu507 2.355 . S
O520 Eu497 2.394 1_545 S
O520 C505 1.251 . S
O521 C505 1.251 . S
O521 Eu507 2.374 . S
O522 C506 1.257 . S
O522 Eu507 2.473 . S
O523 C506 1.260 1_655 S
O523 Eu507 2.480 1_655 S
O524 Eu507 2.430 1_655 S
O524 C514 1.259 . S
O525 Eu497 2.318 1_645 S
O525 Eu507 2.663 1_655 S
O525 C514 1.314 . S
O526 Eu507 2.394 1_655 S
O526 C515 1.251 1_655 S
O527 Eu497 2.374 1_545 S
O527 C515 1.251 . S
H528 C499 0.931 . S
H529 C500 0.931 . S
H530 C502 0.931 . S
H531 C503 0.931 . S
H532 C509 0.931 . S
H533 C510 0.931 . S
H534 C512 0.931 . S
H535 C513 0.931 . S
C536 Eu537 2.835 . S
C536 C538 1.500 . S
C536 O556 1.257 . S
C536 O557 1.260 . S
Eu537 C536 2.835 . S
Eu537 O556 2.473 . S
Eu537 O557 2.480 . S
Eu537 O558 2.430 . S
Eu537 O559 2.670 . S
Eu537 O560 2.394 . S
Eu537 O565 2.355 . S
Eu537 O567 2.374 . S
C538 C536 1.500 . S
C538 C539 1.377 . S
C538 C543 1.377 . S
C539 C538 1.377 . S
C539 C540 1.395 . S
C539 H568 0.931 . S
C540 C539 1.395 . S
C540 C541 1.383 . S
C540 H569 0.931 . S
C541 C540 1.383 . S
C541 C542 1.394 . S
C542 C541 1.394 . S
C542 C543 1.378 . S
C542 H570 0.931 . S
C543 C538 1.377 . S
C543 C542 1.378 . S
C543 H571 0.931 . S
C544 O558 1.259 . S
C544 O559 1.270 . S
C545 O560 1.251 . S
C545 O561 1.251 . S
C546 Eu547 2.835 . S
C546 C548 1.500 . S
C546 O562 1.257 . S
C546 O563 1.260 . S
Eu547 C546 2.835 . S
Eu547 O559 2.355 . S
Eu547 O561 2.374 . S
Eu547 O562 2.473 . S
Eu547 O563 2.480 . S
Eu547 O564 2.430 . S
Eu547 O565 2.670 . S
Eu547 O566 2.394 . S
C548 C546 1.500 . S
C548 C549 1.377 . S
C548 C553 1.377 . S
C549 C548 1.377 . S
C549 C550 1.395 . S
C549 H572 0.931 . S
C550 C549 1.395 . S
C550 C551 1.383 . S
C550 H573 0.931 . S
C551 C550 1.383 . S
C551 C552 1.394 . S
C552 C551 1.394 . S
C552 C553 1.378 . S
C552 H574 0.931 . S
C553 C548 1.377 . S
C553 C552 1.378 . S
C553 H575 0.931 . S
C554 O564 1.259 . S
C554 O565 1.270 . S
C555 O566 1.251 . S
C555 O567 1.251 . S
O556 C536 1.257 . S
O556 Eu537 2.473 . S
O557 C536 1.260 . S
O557 Eu537 2.480 . S
O558 Eu537 2.430 . S
O558 C544 1.259 . S
O559 Eu537 2.670 . S
O559 C544 1.270 . S
O559 Eu547 2.355 . S
O560 Eu537 2.394 . S
O560 C545 1.251 . S
O561 C545 1.251 . S
O561 Eu547 2.374 . S
O562 C546 1.257 . S
O562 Eu547 2.473 . S
O563 C546 1.260 . S
O563 Eu547 2.480 . S
O564 Eu547 2.430 . S
O564 C554 1.259 . S
O565 Eu537 2.355 . S
O565 Eu547 2.670 . S
O565 C554 1.270 . S
O566 Eu547 2.394 . S
O566 C555 1.251 . S
O567 Eu537 2.374 . S
O567 C555 1.251 . S
H568 C539 0.931 . S
H569 C540 0.931 . S
H570 C542 0.931 . S
H571 C543 0.931 . S
H572 C549 0.931 . S
H573 C550 0.931 . S
H574 C552 0.931 . S
H575 C553 0.931 . S
C576 Eu577 2.835 . S
C576 C578 1.500 . S
C576 O596 1.257 . S
C576 O597 1.260 . S
Eu577 C576 2.835 . S
Eu577 O596 2.473 . S
Eu577 O597 2.480 . S
Eu577 O598 2.430 1_545 S
Eu577 O599 2.670 1_545 S
Eu577 O600 2.394 . S
Eu577 O605 2.355 . S
Eu577 O607 2.374 . S
C578 C576 1.500 . S
C578 C579 1.377 . S
C578 C583 1.377 . S
C579 C578 1.377 . S
C579 C580 1.395 . S
C579 H608 0.931 . S
C580 C579 1.395 . S
C580 C581 1.383 . S
C580 H609 0.931 . S
C581 C580 1.383 . S
C581 C582 1.394 . S
C582 C581 1.394 . S
C582 C583 1.378 . S
C582 H610 0.931 . S
C583 C578 1.377 . S
C583 C582 1.378 . S
C583 H611 0.931 . S
C584 O598 1.259 . S
C584 O599 1.270 . S
C585 O600 1.251 1_556 S
C585 O601 1.251 . S
C586 Eu587 2.835 1_565 S
C586 C588 1.500 . S
C586 O602 1.257 . S
C586 O603 1.260 1_565 S
Eu587 C586 2.835 1_545 S
Eu587 O599 2.355 1_545 S
Eu587 O601 2.374 1_554 S
Eu587 O602 2.473 1_545 S
Eu587 O603 2.480 . S
Eu587 O604 2.430 . S
Eu587 O605 2.670 . S
Eu587 O606 2.394 . S
C588 C586 1.500 . S
C588 C589 1.377 . S
C588 C593 1.377 . S
C589 C588 1.377 . S
C589 C590 1.395 . S
C589 H612 0.931 1_565 S
C590 C589 1.395 . S
C590 C591 1.383 . S
C590 H613 0.931 . S
C591 C590 1.383 . S
C591 C592 1.394 . S
C592 C591 1.394 . S
C592 C593 1.378 . S
C592 H614 0.931 . S
C593 C588 1.377 . S
C593 C592 1.378 . S
C593 H615 0.931 . S
C594 O604 1.259 . S
C594 O605 1.270 . S
C595 O606 1.251 . S
C595 O607 1.251 . S
O596 C576 1.257 . S
O596 Eu577 2.473 . S
O597 C576 1.260 . S
O597 Eu577 2.480 . S
O598 Eu577 2.430 1_565 S
O598 C584 1.259 . S
O599 Eu577 2.670 1_565 S
O599 C584 1.270 . S
O599 Eu587 2.355 1_565 S
O600 Eu577 2.394 . S
O600 C585 1.251 1_554 S
O601 C585 1.251 . S
O601 Eu587 2.374 1_556 S
O602 C586 1.257 . S
O602 Eu587 2.473 1_565 S
O603 C586 1.260 1_545 S
O603 Eu587 2.480 . S
O604 Eu587 2.430 . S
O604 C594 1.259 . S
O605 Eu577 2.355 . S
O605 Eu587 2.670 . S
O605 C594 1.270 . S
O606 Eu587 2.394 . S
O606 C595 1.251 . S
O607 Eu577 2.374 . S
O607 C595 1.251 . S
H608 C579 0.931 . S
H609 C580 0.931 . S
H610 C582 0.931 . S
H611 C583 0.931 . S
H612 C589 0.931 1_545 S
H613 C590 0.931 . S
H614 C592 0.931 . S
H615 C593 0.931 . S
C616 Eu617 2.835 . S
C616 C618 1.500 . S
C616 O636 1.257 . S
C616 O637 1.260 . S
Eu617 C616 2.835 . S
Eu617 O636 2.473 . S
Eu617 O637 2.480 . S
Eu617 O638 2.430 . S
Eu617 O639 2.670 . S
Eu617 O640 2.394 . S
Eu617 O645 2.355 . S
Eu617 O647 2.374 . S
C618 C616 1.500 . S
C618 C619 1.377 . S
C618 C623 1.377 . S
C619 C618 1.377 . S
C619 C620 1.395 . S
C619 H648 0.931 . S
C620 C619 1.395 . S
C620 C621 1.383 . S
C620 H649 0.931 . S
C621 C620 1.383 . S
C621 C622 1.394 . S
C622 C621 1.394 . S
C622 C623 1.378 . S
C622 H650 0.931 . S
C623 C618 1.377 . S
C623 C622 1.378 . S
C623 H651 0.931 . S
C624 O638 1.259 . S
C624 O639 1.270 . S
C625 O640 1.251 . S
C625 O641 1.251 . S
C626 Eu627 2.835 . S
C626 C628 1.500 . S
C626 O642 1.257 . S
C626 O643 1.260 . S
Eu627 C626 2.835 . S
Eu627 O639 2.355 . S
Eu627 O641 2.374 . S
Eu627 O642 2.473 . S
Eu627 O643 2.480 . S
Eu627 O644 2.430 . S
Eu627 O645 2.670 . S
Eu627 O646 2.394 . S
C628 C626 1.500 . S
C628 C629 1.377 . S
C628 C633 1.377 . S
C629 C628 1.377 . S
C629 C630 1.395 . S
C629 H652 0.931 . S
C630 C629 1.395 . S
C630 C631 1.383 . S
C630 H653 0.931 . S
C631 C630 1.383 . S
C631 C632 1.394 . S
C632 C631 1.394 . S
C632 C633 1.378 . S
C632 H654 0.931 . S
C633 C628 1.377 . S
C633 C632 1.378 . S
C633 H655 0.931 . S
C634 O644 1.259 . S
C634 O645 1.270 . S
C635 O646 1.251 . S
C635 O647 1.251 . S
O636 C616 1.257 . S
O636 Eu617 2.473 . S
O637 C616 1.260 . S
O637 Eu617 2.480 . S
O638 Eu617 2.430 . S
O638 C624 1.259 . S
O639 Eu617 2.670 . S
O639 C624 1.270 . S
O639 Eu627 2.355 . S
O640 Eu617 2.394 . S
O640 C625 1.251 . S
O641 C625 1.251 . S
O641 Eu627 2.374 . S
O642 C626 1.257 . S
O642 Eu627 2.473 . S
O643 C626 1.260 . S
O643 Eu627 2.480 . S
O644 Eu627 2.430 . S
O644 C634 1.259 . S
O645 Eu617 2.355 . S
O645 Eu627 2.670 . S
O645 C634 1.270 . S
O646 Eu627 2.394 . S
O646 C635 1.251 . S
O647 Eu617 2.374 . S
O647 C635 1.251 . S
H648 C619 0.931 . S
H649 C620 0.931 . S
H650 C622 0.931 . S
H651 C623 0.931 . S
H652 C629 0.931 . S
H653 C630 0.931 . S
H654 C632 0.931 . S
H655 C633 0.931 . S
C656 Eu657 2.835 . S
C656 C658 1.500 . S
C656 O676 1.257 . S
C656 O677 1.260 . S
Eu657 C656 2.835 . S
Eu657 O676 2.473 . S
Eu657 O677 2.480 . S
Eu657 O678 2.430 . S
Eu657 O679 2.670 . S
Eu657 O680 2.394 . S
Eu657 O685 2.355 . S
Eu657 O687 2.374 1_554 S
C658 C656 1.500 . S
C658 C659 1.377 . S
C658 C663 1.377 . S
C659 C658 1.377 . S
C659 C660 1.395 . S
C659 H688 0.931 . S
C660 C659 1.395 . S
C660 C661 1.383 . S
C660 H689 0.931 . S
C661 C660 1.383 . S
C661 C662 1.394 . S
C662 C661 1.394 . S
C662 C663 1.378 . S
C662 H690 0.931 . S
C663 C658 1.377 . S
C663 C662 1.378 . S
C663 H691 0.931 . S
C664 O678 1.259 . S
C664 O679 1.270 . S
C665 O680 1.251 . S
C665 O681 1.251 . S
C666 Eu667 2.835 . S
C666 C668 1.500 . S
C666 O682 1.257 . S
C666 O683 1.260 . S
Eu667 C666 2.835 . S
Eu667 O679 2.355 . S
Eu667 O681 2.374 . S
Eu667 O682 2.473 . S
Eu667 O683 2.480 . S
Eu667 O684 2.430 . S
Eu667 O685 2.670 . S
Eu667 O686 2.394 1_554 S
C668 C666 1.500 . S
C668 C669 1.377 . S
C668 C673 1.377 1_554 S
C669 C668 1.377 . S
C669 C670 1.365 1_554 S
C669 H692 0.931 . S
C670 C669 1.365 1_556 S
C670 C671 1.426 . S
C670 H693 0.923 1_556 S
C671 C670 1.426 . S
C671 C672 1.394 . S
C672 C671 1.394 . S
C672 C673 1.378 . S
C672 H694 0.931 . S
C673 C668 1.377 1_556 S
C673 C672 1.378 . S
C673 H695 0.931 . S
C674 O684 1.259 . S
C674 O685 1.270 . S
C675 O686 1.251 . S
C675 O687 1.251 . S
O676 C656 1.257 . S
O676 Eu657 2.473 . S
O677 C656 1.260 . S
O677 Eu657 2.480 . S
O678 Eu657 2.430 . S
O678 C664 1.259 . S
O679 Eu657 2.670 . S
O679 C664 1.270 . S
O679 Eu667 2.355 . S
O680 Eu657 2.394 . S
O680 C665 1.251 . S
O681 C665 1.251 . S
O681 Eu667 2.374 . S
O682 C666 1.257 . S
O682 Eu667 2.473 . S
O683 C666 1.260 . S
O683 Eu667 2.480 . S
O684 Eu667 2.430 . S
O684 C674 1.259 . S
O685 Eu657 2.355 . S
O685 Eu667 2.670 . S
O685 C674 1.270 . S
O686 Eu667 2.394 1_556 S
O686 C675 1.251 . S
O687 Eu657 2.374 1_556 S
O687 C675 1.251 . S
H688 C659 0.931 . S
H689 C660 0.931 . S
H690 C662 0.931 . S
H691 C663 0.931 . S
H692 C669 0.931 . S
H693 C670 0.923 1_554 S
H694 C672 0.931 . S
H695 C673 0.931 . S
C696 Eu697 2.835 . S
C696 C698 1.500 . S
C696 O716 1.257 . S
C696 O717 1.260 . S
Eu697 C696 2.835 . S
Eu697 O716 2.473 . S
Eu697 O717 2.480 . S
Eu697 O718 2.430 . S
Eu697 O719 2.670 . S
Eu697 O720 2.394 . S
Eu697 O725 2.355 . S
Eu697 O727 2.374 . S
C698 C696 1.500 . S
C698 C699 1.377 . S
C698 C703 1.377 . S
C699 C698 1.377 . S
C699 C700 1.395 . S
C699 H728 0.931 . S
C700 C699 1.395 . S
C700 C701 1.383 . S
C700 H729 0.931 . S
C701 C700 1.383 . S
C701 C702 1.394 . S
C702 C701 1.394 . S
C702 C703 1.378 . S
C702 H730 0.931 . S
C703 C698 1.377 . S
C703 C702 1.378 . S
C703 H731 0.931 . S
C704 O718 1.259 . S
C704 O719 1.270 . S
C705 O720 1.251 . S
C705 O721 1.251 . S
C706 Eu707 2.835 . S
C706 C708 1.500 . S
C706 O722 1.257 . S
C706 O723 1.260 . S
Eu707 C706 2.835 . S
Eu707 O719 2.355 . S
Eu707 O721 2.374 . S
Eu707 O722 2.473 . S
Eu707 O723 2.480 . S
Eu707 O724 2.430 . S
Eu707 O725 2.670 . S
Eu707 O726 2.394 . S
C708 C706 1.500 . S
C708 C709 1.377 . S
C708 C713 1.377 . S
C709 C708 1.377 . S
C709 C710 1.395 . S
C709 H732 0.931 . S
C710 C709 1.395 . S
C710 C711 1.383 . S
C710 H733 0.931 . S
C711 C710 1.383 . S
C711 C712 1.394 . S
C712 C711 1.394 . S
C712 C713 1.378 . S
C712 H734 0.931 . S
C713 C708 1.377 . S
C713 C712 1.378 . S
C713 H735 0.931 . S
C714 O724 1.259 . S
C714 O725 1.270 . S
C715 O726 1.251 . S
C715 O727 1.251 . S
O716 C696 1.257 . S
O716 Eu697 2.473 . S
O717 C696 1.260 . S
O717 Eu697 2.480 . S
O718 Eu697 2.430 . S
O718 C704 1.259 . S
O719 Eu697 2.670 . S
O719 C704 1.270 . S
O719 Eu707 2.355 . S
O720 Eu697 2.394 . S
O720 C705 1.251 . S
O721 C705 1.251 . S
O721 Eu707 2.374 . S
O722 C706 1.257 . S
O722 Eu707 2.473 . S
O723 C706 1.260 . S
O723 Eu707 2.480 . S
O724 Eu707 2.430 . S
O724 C714 1.259 . S
O725 Eu697 2.355 . S
O725 Eu707 2.670 . S
O725 C714 1.270 . S
O726 Eu707 2.394 . S
O726 C715 1.251 . S
O727 Eu697 2.374 . S
O727 C715 1.251 . S
H728 C699 0.931 . S
H729 C700 0.931 . S
H730 C702 0.931 . S
H731 C703 0.931 . S
H732 C709 0.931 . S
H733 C710 0.931 . S
H734 C712 0.931 . S
H735 C713 0.931 . S
C736 Eu737 2.835 . S
C736 C738 1.500 . S
C736 O756 1.257 . S
C736 O757 1.260 . S
Eu737 C736 2.835 . S
Eu737 O756 2.473 . S
Eu737 O757 2.480 . S
Eu737 O758 2.430 . S
Eu737 O759 2.670 . S
Eu737 O760 2.394 . S
Eu737 O765 2.355 . S
Eu737 O767 2.374 . S
C738 C736 1.500 . S
C738 C739 1.377 . S
C738 C743 1.377 . S
C739 C738 1.377 . S
C739 C740 1.395 . S
C739 H768 0.931 . S
C740 C739 1.395 . S
C740 C741 1.383 . S
C740 H769 0.931 . S
C741 C740 1.383 . S
C741 C742 1.394 . S
C742 C741 1.394 . S
C742 C743 1.378 . S
C742 H770 0.931 . S
C743 C738 1.377 . S
C743 C742 1.378 . S
C743 H771 0.931 . S
C744 O758 1.259 . S
C744 O759 1.270 . S
C745 O760 1.251 . S
C745 O761 1.251 . S
C746 Eu747 2.835 . S
C746 C748 1.500 . S
C746 O762 1.257 . S
C746 O763 1.260 . S
Eu747 C746 2.835 . S
Eu747 O759 2.355 1_655 S
Eu747 O761 2.374 1_655 S
Eu747 O762 2.473 . S
Eu747 O763 2.480 . S
Eu747 O764 2.425 . S
Eu747 O765 2.670 1_655 S
Eu747 O766 2.394 . S
C748 C746 1.500 . S
C748 C749 1.377 . S
C748 C753 1.377 . S
C749 C748 1.377 . S
C749 C750 1.395 . S
C749 H772 0.931 . S
C750 C749 1.395 . S
C750 C751 1.383 . S
C750 H773 0.931 . S
C751 C750 1.383 . S
C751 C752 1.394 . S
C752 C751 1.394 . S
C752 C753 1.378 . S
C752 H774 0.931 . S
C753 C748 1.377 . S
C753 C752 1.378 . S
C753 H775 0.931 . S
C754 O764 1.228 1_455 S
C754 O765 1.270 . S
C755 O766 1.251 1_455 S
C755 O767 1.251 . S
O756 C736 1.257 . S
O756 Eu737 2.473 . S
O757 C736 1.260 . S
O757 Eu737 2.480 . S
O758 Eu737 2.430 . S
O758 C744 1.259 . S
O759 Eu737 2.670 . S
O759 C744 1.270 . S
O759 Eu747 2.355 1_455 S
O760 Eu737 2.394 . S
O760 C745 1.251 . S
O761 C745 1.251 . S
O761 Eu747 2.374 1_455 S
O762 C746 1.257 . S
O762 Eu747 2.473 . S
O763 C746 1.260 . S
O763 Eu747 2.480 . S
O764 Eu747 2.425 . S
O764 C754 1.228 1_655 S
O765 Eu737 2.355 . S
O765 Eu747 2.670 1_455 S
O765 C754 1.270 . S
O766 Eu747 2.394 . S
O766 C755 1.251 1_655 S
O767 Eu737 2.374 . S
O767 C755 1.251 . S
H768 C739 0.931 . S
H769 C740 0.931 . S
H770 C742 0.931 . S
H771 C743 0.931 . S
H772 C749 0.931 . S
H773 C750 0.931 . S
H774 C752 0.931 . S
H775 C753 0.931 . S
C776 Eu777 2.835 . S
C776 C778 1.500 . S
C776 O796 1.257 . S
C776 O797 1.260 . S
Eu777 C776 2.835 . S
Eu777 O796 2.473 . S
Eu777 O797 2.480 . S
Eu777 O798 2.430 . S
Eu777 O799 2.670 . S
Eu777 O800 2.394 . S
Eu777 O805 2.355 . S
Eu777 O807 2.374 . S
C778 C776 1.500 . S
C778 C779 1.377 . S
C778 C783 1.377 . S
C779 C778 1.377 . S
C779 C780 1.395 . S
C779 H808 0.931 . S
C780 C779 1.395 . S
C780 C781 1.383 . S
C780 H809 0.931 . S
C781 C780 1.383 . S
C781 C782 1.394 . S
C782 C781 1.394 . S
C782 C783 1.378 . S
C782 H810 0.931 . S
C783 C778 1.377 . S
C783 C782 1.378 . S
C783 H811 0.931 . S
C784 O798 1.259 . S
C784 O799 1.270 . S
C785 O800 1.251 . S
C785 O801 1.251 . S
C786 Eu787 2.835 . S
C786 C788 1.500 . S
C786 O802 1.257 . S
C786 O803 1.260 . S
Eu787 C786 2.835 . S
Eu787 O799 2.355 . S
Eu787 O801 2.374 . S
Eu787 O802 2.473 . S
Eu787 O803 2.480 . S
Eu787 O804 2.430 . S
Eu787 O805 2.670 . S
Eu787 O806 2.394 . S
C788 C786 1.500 . S
C788 C789 1.377 . S
C788 C793 1.377 . S
C789 C788 1.377 . S
C789 C790 1.395 . S
C789 H812 0.931 . S
C790 C789 1.395 . S
C790 C791 1.383 . S
C790 H813 0.931 . S
C791 C790 1.383 . S
C791 C792 1.394 . S
C792 C791 1.394 . S
C792 C793 1.378 . S
C792 H814 0.931 . S
C793 C788 1.377 . S
C793 C792 1.378 . S
C793 H815 0.931 . S
C794 O804 1.259 . S
C794 O805 1.270 . S
C795 O806 1.251 . S
C795 O807 1.251 . S
O796 C776 1.257 . S
O796 Eu777 2.473 . S
O797 C776 1.260 . S
O797 Eu777 2.480 . S
O798 Eu777 2.430 . S
O798 C784 1.259 . S
O799 Eu777 2.670 . S
O799 C784 1.270 . S
O799 Eu787 2.355 . S
O800 Eu777 2.394 . S
O800 C785 1.251 . S
O801 C785 1.251 . S
O801 Eu787 2.374 . S
O802 C786 1.257 . S
O802 Eu787 2.473 . S
O803 C786 1.260 . S
O803 Eu787 2.480 . S
O804 Eu787 2.430 . S
O804 C794 1.259 . S
O805 Eu777 2.355 . S
O805 Eu787 2.670 . S
O805 C794 1.270 . S
O806 Eu787 2.394 . S
O806 C795 1.251 . S
O807 Eu777 2.374 . S
O807 C795 1.251 . S
H808 C779 0.931 . S
H809 C780 0.931 . S
H810 C782 0.931 . S
H811 C783 0.931 . S
H812 C789 0.931 . S
H813 C790 0.931 . S
H814 C792 0.931 . S
H815 C793 0.931 . S
C816 Eu817 2.835 . S
C816 C818 1.500 . S
C816 O836 1.257 . S
C816 O837 1.260 . S
Eu817 C816 2.835 . S
Eu817 O836 2.473 . S
Eu817 O837 2.480 . S
Eu817 O838 2.430 . S
Eu817 O839 2.670 . S
Eu817 O840 2.394 . S
Eu817 O845 2.355 . S
Eu817 O847 2.374 . S
C818 C816 1.500 . S
C818 C819 1.377 . S
C818 C823 1.377 . S
C819 C818 1.377 . S
C819 C820 1.395 . S
C819 H848 0.931 . S
C820 C819 1.395 . S
C820 C821 1.383 . S
C820 H849 0.931 . S
C821 C820 1.383 . S
C821 C822 1.394 . S
C822 C821 1.394 . S
C822 C823 1.378 . S
C822 H850 0.931 . S
C823 C818 1.377 . S
C823 C822 1.378 . S
C823 H851 0.931 . S
C824 O838 1.259 . S
C824 O839 1.270 . S
C825 O840 1.251 . S
C825 O841 1.251 . S
C826 Eu827 2.835 . S
C826 C828 1.500 . S
C826 O842 1.257 . S
C826 O843 1.260 . S
Eu827 C826 2.835 . S
Eu827 O839 2.355 . S
Eu827 O841 2.374 . S
Eu827 O842 2.473 . S
Eu827 O843 2.480 . S
Eu827 O844 2.430 . S
Eu827 O845 2.670 . S
Eu827 O846 2.394 . S
C828 C826 1.500 . S
C828 C829 1.377 . S
C828 C833 1.377 . S
C829 C828 1.377 . S
C829 C830 1.395 . S
C829 H852 0.931 . S
C830 C829 1.395 . S
C830 C831 1.383 . S
C830 H853 0.931 . S
C831 C830 1.383 . S
C831 C832 1.394 . S
C832 C831 1.394 . S
C832 C833 1.378 . S
C832 H854 0.931 . S
C833 C828 1.377 . S
C833 C832 1.378 . S
C833 H855 0.931 . S
C834 O844 1.259 . S
C834 O845 1.270 . S
C835 O846 1.251 . S
C835 O847 1.251 . S
O836 C816 1.257 . S
O836 Eu817 2.473 . S
O837 C816 1.260 . S
O837 Eu817 2.480 . S
O838 Eu817 2.430 . S
O838 C824 1.259 . S
O839 Eu817 2.670 . S
O839 C824 1.270 . S
O839 Eu827 2.355 . S
O840 Eu817 2.394 . S
O840 C825 1.251 . S
O841 C825 1.251 . S
O841 Eu827 2.374 . S
O842 C826 1.257 . S
O842 Eu827 2.473 . S
O843 C826 1.260 . S
O843 Eu827 2.480 . S
O844 Eu827 2.430 . S
O844 C834 1.259 . S
O845 Eu817 2.355 . S
O845 Eu827 2.670 . S
O845 C834 1.270 . S
O846 Eu827 2.394 . S
O846 C835 1.251 . S
O847 Eu817 2.374 . S
O847 C835 1.251 . S
H848 C819 0.931 . S
H849 C820 0.931 . S
H850 C822 0.931 . S
H851 C823 0.931 . S
H852 C829 0.931 . S
H853 C830 0.931 . S
H854 C832 0.931 . S
H855 C833 0.931 . S
C856 Eu857 2.835 . S
C856 C858 1.500 . S
C856 O876 1.257 . S
C856 O877 1.260 . S
Eu857 C856 2.835 . S
Eu857 O876 2.473 . S
Eu857 O877 2.480 . S
Eu857 O878 2.430 . S
Eu857 O879 2.670 . S
Eu857 O880 2.394 . S
Eu857 O885 2.355 . S
Eu857 O887 2.374 . S
C858 C856 1.500 . S
C858 C859 1.377 . S
C858 C863 1.377 . S
C859 C858 1.377 . S
C859 C860 1.395 . S
C859 H888 0.931 . S
C860 C859 1.395 . S
C860 C861 1.383 . S
C860 H889 0.931 . S
C861 C860 1.383 . S
C861 C862 1.394 . S
C862 C861 1.394 . S
C862 C863 1.378 . S
C862 H890 0.931 . S
C863 C858 1.377 . S
C863 C862 1.378 . S
C863 H891 0.931 . S
C864 O878 1.259 . S
C864 O879 1.270 . S
C865 O880 1.251 . S
C865 O881 1.251 . S
C866 Eu867 2.835 . S
C866 C868 1.500 . S
C866 O882 1.257 . S
C866 O883 1.260 . S
Eu867 C866 2.835 . S
Eu867 O879 2.355 . S
Eu867 O881 2.374 . S
Eu867 O882 2.473 . S
Eu867 O883 2.480 . S
Eu867 O884 2.430 . S
Eu867 O885 2.670 . S
Eu867 O886 2.394 . S
C868 C866 1.500 . S
C868 C869 1.377 . S
C868 C873 1.377 . S
C869 C868 1.377 . S
C869 C870 1.395 . S
C869 H892 0.931 . S
C870 C869 1.395 . S
C870 C871 1.383 . S
C870 H893 0.931 . S
C871 C870 1.383 . S
C871 C872 1.394 . S
C872 C871 1.394 . S
C872 C873 1.378 . S
C872 H894 0.931 . S
C873 C868 1.377 . S
C873 C872 1.378 . S
C873 H895 0.931 . S
C874 O884 1.259 . S
C874 O885 1.270 . S
C875 O886 1.251 . S
C875 O887 1.251 . S
O876 C856 1.257 . S
O876 Eu857 2.473 . S
O877 C856 1.260 . S
O877 Eu857 2.480 . S
O878 Eu857 2.430 . S
O878 C864 1.259 . S
O879 Eu857 2.670 . S
O879 C864 1.270 . S
O879 Eu867 2.355 . S
O880 Eu857 2.394 . S
O880 C865 1.251 . S
O881 C865 1.251 . S
O881 Eu867 2.374 . S
O882 C866 1.257 . S
O882 Eu867 2.473 . S
O883 C866 1.260 . S
O883 Eu867 2.480 . S
O884 Eu867 2.430 . S
O884 C874 1.259 . S
O885 Eu857 2.355 . S
O885 Eu867 2.670 . S
O885 C874 1.270 . S
O886 Eu867 2.394 . S
O886 C875 1.251 . S
O887 Eu857 2.374 . S
O887 C875 1.251 . S
H888 C859 0.931 . S
H889 C860 0.931 . S
H890 C862 0.931 . S
H891 C863 0.931 . S
H892 C869 0.931 . S
H893 C870 0.931 . S
H894 C872 0.931 . S
H895 C873 0.931 . S
C896 Eu897 2.835 . S
C896 C898 1.500 . S
C896 O916 1.257 . S
C896 O917 1.260 . S
Eu897 C896 2.835 . S
Eu897 O916 2.473 . S
Eu897 O917 2.480 . S
Eu897 O918 2.430 . S
Eu897 O919 2.670 . S
Eu897 O920 2.394 . S
Eu897 O925 2.355 . S
Eu897 O927 2.374 . S
C898 C896 1.500 . S
C898 C899 1.377 . S
C898 C903 1.377 . S
C899 C898 1.377 . S
C899 C900 1.395 . S
C899 H928 0.931 . S
C900 C899 1.395 . S
C900 C901 1.383 . S
C900 H929 0.931 . S
C901 C900 1.383 . S
C901 C902 1.394 . S
C902 C901 1.394 . S
C902 C903 1.378 . S
C902 H930 0.931 . S
C903 C898 1.377 . S
C903 C902 1.378 . S
C903 H931 0.931 . S
C904 O918 1.259 . S
C904 O919 1.270 . S
C905 O920 1.251 . S
C905 O921 1.251 . S
C906 Eu907 2.835 . S
C906 C908 1.500 . S
C906 O922 1.257 . S
C906 O923 1.260 . S
Eu907 C906 2.835 . S
Eu907 O919 2.355 . S
Eu907 O921 2.374 . S
Eu907 O922 2.473 . S
Eu907 O923 2.480 . S
Eu907 O924 2.430 . S
Eu907 O925 2.670 . S
Eu907 O926 2.394 . S
C908 C906 1.500 . S
C908 C909 1.377 . S
C908 C913 1.377 . S
C909 C908 1.377 . S
C909 C910 1.395 . S
C909 H932 0.931 . S
C910 C909 1.395 . S
C910 C911 1.383 . S
C910 H933 0.931 . S
C911 C910 1.383 . S
C911 C912 1.394 . S
C912 C911 1.394 . S
C912 C913 1.378 . S
C912 H934 0.931 . S
C913 C908 1.377 . S
C913 C912 1.378 . S
C913 H935 0.931 . S
C914 O924 1.259 . S
C914 O925 1.270 . S
C915 O926 1.251 . S
C915 O927 1.251 . S
O916 C896 1.257 . S
O916 Eu897 2.473 . S
O917 C896 1.260 . S
O917 Eu897 2.480 . S
O918 Eu897 2.430 . S
O918 C904 1.259 . S
O919 Eu897 2.670 . S
O919 C904 1.270 . S
O919 Eu907 2.355 . S
O920 Eu897 2.394 . S
O920 C905 1.251 . S
O921 C905 1.251 . S
O921 Eu907 2.374 . S
O922 C906 1.257 . S
O922 Eu907 2.473 . S
O923 C906 1.260 . S
O923 Eu907 2.480 . S
O924 Eu907 2.430 . S
O924 C914 1.259 . S
O925 Eu897 2.355 . S
O925 Eu907 2.670 . S
O925 C914 1.270 . S
O926 Eu907 2.394 . S
O926 C915 1.251 . S
O927 Eu897 2.374 . S
O927 C915 1.251 . S
H928 C899 0.931 . S
H929 C900 0.931 . S
H930 C902 0.931 . S
H931 C903 0.931 . S
H932 C909 0.931 . S
H933 C910 0.931 . S
H934 C912 0.931 . S
H935 C913 0.931 . S
C936 Eu937 2.835 . S
C936 C938 1.500 . S
C936 O956 1.257 . S
C936 O957 1.260 . S
Eu937 C936 2.835 . S
Eu937 O956 2.473 . S
Eu937 O957 2.480 . S
Eu937 O958 2.430 1_655 S
Eu937 O959 2.670 1_655 S
Eu937 O960 2.394 1_655 S
Eu937 O965 2.355 1_655 S
Eu937 O967 2.374 1_655 S
C938 C936 1.500 . S
C938 C939 1.377 . S
C938 C943 1.377 . S
C939 C938 1.377 . S
C939 C940 1.395 . S
C939 H968 0.931 . S
C940 C939 1.395 . S
C940 C941 1.383 . S
C940 H969 0.931 . S
C941 C940 1.383 . S
C941 C942 1.394 . S
C942 C941 1.394 . S
C942 C943 1.378 . S
C942 H970 0.931 . S
C943 C938 1.377 . S
C943 C942 1.378 . S
C943 H971 0.931 . S
C944 O958 1.259 . S
C944 O959 1.270 . S
C945 O960 1.251 . S
C945 O961 1.251 . S
C946 Eu947 2.835 . S
C946 C948 1.500 . S
C946 O962 1.257 . S
C946 O963 1.260 1_554 S
Eu947 C946 2.835 . S
Eu947 O959 2.355 . S
Eu947 O961 2.374 . S
Eu947 O962 2.473 . S
Eu947 O963 2.480 1_554 S
Eu947 O964 2.430 1_554 S
Eu947 O965 2.670 . S
Eu947 O966 2.394 . S
C948 C946 1.500 . S
C948 C949 1.377 1_554 S
C948 C953 1.377 . S
C949 C948 1.377 1_556 S
C949 C950 1.395 . S
C949 H972 0.931 . S
C950 C949 1.395 . S
C950 C951 1.383 . S
C950 H973 0.931 . S
C951 C950 1.383 . S
C951 C952 1.394 1_556 S
C952 C951 1.394 1_554 S
C952 C953 1.378 . S
C952 H974 0.931 . S
C953 C948 1.377 . S
C953 C952 1.378 . S
C953 H975 0.931 . S
C954 O964 1.259 . S
C954 O965 1.270 1_556 S
C955 O966 1.248 . S
C955 O967 1.251 . S
O956 C936 1.257 . S
O956 Eu937 2.473 . S
O957 C936 1.260 . S
O957 Eu937 2.480 . S
O958 Eu937 2.430 1_455 S
O958 C944 1.259 . S
O959 Eu937 2.670 1_455 S
O959 C944 1.270 . S
O959 Eu947 2.355 . S
O960 Eu937 2.394 1_455 S
O960 C945 1.251 . S
O961 C945 1.251 . S
O961 Eu947 2.374 . S
O962 C946 1.257 . S
O962 Eu947 2.473 . S
O963 C946 1.260 1_556 S
O963 Eu947 2.480 1_556 S
O964 Eu947 2.430 1_556 S
O964 C954 1.259 . S
O965 Eu937 2.355 1_455 S
O965 Eu947 2.670 . S
O965 C954 1.270 1_554 S
O966 Eu947 2.394 . S
O966 C955 1.248 . S
O967 Eu937 2.374 1_455 S
O967 C955 1.251 . S
H968 C939 0.931 . S
H969 C940 0.931 . S
H970 C942 0.931 . S
H971 C943 0.931 . S
H972 C949 0.931 . S
H973 C950 0.931 . S
H974 C952 0.931 . S
H975 C953 0.931 . S
H976 C984 0.929 . S
H977 C986 0.930 . S
H978 C988 0.930 . S
H979 C991 0.929 . S
H980 C994 0.930 . S
H981 C996 0.960 . S
H982 C996 0.960 . S
H983 C996 0.960 . S
C984 H976 0.929 . S
C984 C985 1.377 1_455 S
C984 C986 1.384 . S
C985 C984 1.377 1_655 S
C985 C991 1.390 . S
C986 H977 0.930 . S
C986 C984 1.384 . S
C986 C987 1.372 . S
C987 C986 1.372 . S
C987 C988 1.400 1_455 S
C987 C992 1.490 . S
C988 H978 0.930 . S
C988 C987 1.400 1_655 S
C988 C991 1.386 . S
H989 C1005 0.930 1_655 S
H990 C1006 0.931 1_655 S
C991 H979 0.929 . S
C991 C985 1.390 . S
C991 C988 1.386 . S
C992 C987 1.490 . S
C992 C994 1.395 . S
C992 C995 1.403 1_455 S
H993 C999 0.930 . S
C994 H980 0.930 . S
C994 C992 1.395 . S
C994 C997 1.403 . S
C995 C992 1.403 1_655 S
C995 C996 1.524 . S
C995 C999 1.400 . S
C996 H981 0.960 . S
C996 H982 0.960 . S
C996 H983 0.960 . S
C996 C995 1.524 . S
C997 C994 1.403 . S
C997 C998 1.392 . S
C997 C1001 1.495 1_556 S
C998 C997 1.392 . S
C998 C999 1.385 1_455 S
C998 C1000 1.478 . S
C999 H993 0.930 . S
C999 C995 1.400 . S
C999 C998 1.385 1_655 S
C1000 C998 1.478 . S
C1000 C1002 1.381 . S
C1000 C1006 1.383 1_556 S
C1001 C997 1.495 1_554 S
C1001 H1007 0.959 . S
C1001 H1008 0.961 . S
C1001 H1009 0.960 1_554 S
C1002 C1000 1.381 . S
C1002 C1003 1.394 . S
C1002 H1010 0.930 . S
C1003 C1002 1.394 . S
C1003 C1004 1.383 1_556 S
C1003 H1011 0.929 . S
C1004 C1003 1.383 1_554 S
C1004 C1005 1.377 . S
C1005 H989 0.930 1_455 S
C1005 C1004 1.377 . S
C1005 C1006 1.379 . S
C1006 H990 0.931 1_455 S
C1006 C1000 1.383 1_554 S
C1006 C1005 1.379 . S
H1007 C1001 0.959 . S
H1008 C1001 0.961 . S
H1009 C1001 0.960 1_556 S
H1010 C1002 0.930 . S
H1011 C1003 0.929 . S
H1012 C1020 0.929 . S
H1013 C1022 0.930 . S
H1014 C1024 0.930 . S
H1015 C1027 0.929 . S
H1016 C1030 0.930 . S
H1017 C1032 0.960 . S
H1018 C1032 0.960 . S
H1019 C1032 0.960 . S
C1020 H1012 0.929 . S
C1020 C1021 1.377 . S
C1020 C1022 1.384 . S
C1021 C1020 1.377 . S
C1021 C1027 1.390 . S
C1022 H1013 0.930 . S
C1022 C1020 1.384 . S
C1022 C1023 1.372 . S
C1023 C1022 1.372 . S
C1023 C1024 1.400 . S
C1023 C1028 1.490 . S
C1024 H1014 0.930 . S
C1024 C1023 1.400 . S
C1024 C1027 1.386 . S
H1025 C1041 0.930 . S
H1026 C1042 0.931 . S
C1027 H1015 0.929 . S
C1027 C1021 1.390 . S
C1027 C1024 1.386 . S
C1028 C1023 1.490 . S
C1028 C1030 1.395 . S
C1028 C1031 1.403 . S
H1029 C1035 0.930 . S
C1030 H1016 0.930 . S
C1030 C1028 1.395 . S
C1030 C1033 1.403 . S
C1031 C1028 1.403 . S
C1031 C1032 1.524 . S
C1031 C1035 1.400 . S
C1032 H1017 0.960 . S
C1032 H1018 0.960 . S
C1032 H1019 0.960 . S
C1032 C1031 1.524 . S
C1033 C1030 1.403 . S
C1033 C1034 1.392 . S
C1033 C1037 1.495 . S
C1034 C1033 1.392 . S
C1034 C1035 1.385 . S
C1034 C1036 1.478 . S
C1035 H1029 0.930 . S
C1035 C1031 1.400 . S
C1035 C1034 1.385 . S
C1036 C1034 1.478 . S
C1036 C1038 1.381 . S
C1036 C1042 1.383 . S
C1037 C1033 1.495 . S
C1037 H1043 0.959 . S
C1037 H1044 0.961 . S
C1037 H1045 0.960 . S
C1038 C1036 1.381 . S
C1038 C1039 1.394 . S
C1038 H1046 0.930 . S
C1039 C1038 1.394 . S
C1039 C1040 1.383 . S
C1039 H1047 0.929 . S
C1040 C1039 1.383 . S
C1040 C1041 1.377 . S
C1041 H1025 0.930 . S
C1041 C1040 1.377 . S
C1041 C1042 1.379 . S
C1042 H1026 0.931 . S
C1042 C1036 1.383 . S
C1042 C1041 1.379 . S
H1043 C1037 0.959 . S
H1044 C1037 0.961 . S
H1045 C1037 0.960 . S
H1046 C1038 0.930 . S
H1047 C1039 0.929 . S
H1048 C1056 0.929 . S
H1049 C1058 0.930 . S
H1050 C1060 0.930 . S
H1051 C1063 0.929 . S
H1052 C1066 0.930 . S
H1053 C1068 0.960 . S
H1054 C1068 0.960 . S
H1055 C1068 0.960 . S
C1056 H1048 0.929 . S
C1056 C1057 1.377 . S
C1056 C1058 1.384 . S
C1057 C1056 1.377 . S
C1057 C1063 1.390 . S
C1058 H1049 0.930 . S
C1058 C1056 1.384 . S
C1058 C1059 1.372 . S
C1059 C1058 1.372 . S
C1059 C1060 1.400 . S
C1059 C1064 1.490 . S
C1060 H1050 0.930 . S
C1060 C1059 1.400 . S
C1060 C1063 1.386 . S
H1061 C1077 0.930 . S
H1062 C1078 0.931 . S
C1063 H1051 0.929 . S
C1063 C1057 1.390 . S
C1063 C1060 1.386 . S
C1064 C1059 1.490 . S
C1064 C1066 1.395 . S
C1064 C1067 1.403 . S
H1065 C1071 0.930 . S
C1066 H1052 0.930 . S
C1066 C1064 1.395 . S
C1066 C1069 1.403 . S
C1067 C1064 1.403 . S
C1067 C1068 1.524 . S
C1067 C1071 1.400 . S
C1068 H1053 0.960 . S
C1068 H1054 0.960 . S
C1068 H1055 0.960 . S
C1068 C1067 1.524 . S
C1069 C1066 1.403 . S
C1069 C1070 1.392 . S
C1069 C1073 1.495 . S
C1070 C1069 1.392 . S
C1070 C1071 1.385 . S
C1070 C1072 1.478 . S
C1071 H1065 0.930 . S
C1071 C1067 1.400 . S
C1071 C1070 1.385 . S
C1072 C1070 1.478 . S
C1072 C1074 1.381 . S
C1072 C1078 1.383 . S
C1073 C1069 1.495 . S
C1073 H1079 0.959 . S
C1073 H1080 0.961 . S
C1073 H1081 0.960 . S
C1074 C1072 1.381 . S
C1074 C1075 1.394 . S
C1074 H1082 0.930 . S
C1075 C1074 1.394 . S
C1075 C1076 1.383 . S
C1075 H1083 0.929 . S
C1076 C1075 1.383 . S
C1076 C1077 1.377 . S
C1077 H1061 0.930 . S
C1077 C1076 1.377 . S
C1077 C1078 1.379 . S
C1078 H1062 0.931 . S
C1078 C1072 1.383 . S
C1078 C1077 1.379 . S
H1079 C1073 0.959 . S
H1080 C1073 0.961 . S
H1081 C1073 0.960 . S
H1082 C1074 0.930 . S
H1083 C1075 0.929 . S
H1084 C1092 0.929 . S
H1085 C1094 0.930 . S
H1086 C1096 0.930 . S
H1087 C1099 0.929 . S
H1088 C1102 0.930 . S
H1089 C1104 0.960 . S
H1090 C1104 0.960 . S
H1091 C1104 0.960 . S
C1092 H1084 0.929 . S
C1092 C1093 1.377 . S
C1092 C1094 1.384 . S
C1093 C1092 1.377 . S
C1093 C1099 1.390 . S
C1094 H1085 0.930 . S
C1094 C1092 1.384 . S
C1094 C1095 1.372 . S
C1095 C1094 1.372 . S
C1095 C1096 1.400 . S
C1095 C1100 1.490 . S
C1096 H1086 0.930 . S
C1096 C1095 1.400 . S
C1096 C1099 1.386 . S
H1097 C1113 0.930 . S
H1098 C1114 0.931 . S
C1099 H1087 0.929 . S
C1099 C1093 1.390 . S
C1099 C1096 1.386 . S
C1100 C1095 1.490 . S
C1100 C1102 1.395 . S
C1100 C1103 1.403 . S
H1101 C1107 0.930 . S
C1102 H1088 0.930 . S
C1102 C1100 1.395 . S
C1102 C1105 1.403 . S
C1103 C1100 1.403 . S
C1103 C1104 1.524 . S
C1103 C1107 1.400 . S
C1104 H1089 0.960 . S
C1104 H1090 0.960 . S
C1104 H1091 0.960 . S
C1104 C1103 1.524 . S
C1105 C1102 1.403 . S
C1105 C1106 1.392 . S
C1105 C1109 1.495 . S
C1106 C1105 1.392 . S
C1106 C1107 1.385 . S
C1106 C1108 1.478 . S
C1107 H1101 0.930 . S
C1107 C1103 1.400 . S
C1107 C1106 1.385 . S
C1108 C1106 1.478 . S
C1108 C1110 1.381 . S
C1108 C1114 1.383 . S
C1109 C1105 1.495 . S
C1109 H1115 0.959 . S
C1109 H1116 0.961 . S
C1109 H1117 0.960 . S
C1110 C1108 1.381 . S
C1110 C1111 1.394 . S
C1110 H1118 0.930 . S
C1111 C1110 1.394 . S
C1111 C1112 1.383 . S
C1111 H1119 0.929 . S
C1112 C1111 1.383 . S
C1112 C1113 1.377 . S
C1113 H1097 0.930 . S
C1113 C1112 1.377 . S
C1113 C1114 1.379 . S
C1114 H1098 0.931 . S
C1114 C1108 1.383 . S
C1114 C1113 1.379 . S
H1115 C1109 0.959 . S
H1116 C1109 0.961 . S
H1117 C1109 0.960 . S
H1118 C1110 0.930 . S
H1119 C1111 0.929 . S
H1120 C1128 0.929 . S
H1121 C1130 0.930 . S
H1122 C1132 0.930 . S
H1123 C1135 0.929 . S
H1124 C1138 0.930 . S
H1125 C1140 0.960 . S
H1126 C1140 0.960 . S
H1127 C1140 0.960 . S
C1128 H1120 0.929 . S
C1128 C1129 1.377 . S
C1128 C1130 1.384 . S
C1129 C1128 1.377 . S
C1129 C1135 1.390 . S
C1130 H1121 0.930 . S
C1130 C1128 1.384 . S
C1130 C1131 1.372 . S
C1131 C1130 1.372 . S
C1131 C1132 1.400 . S
C1131 C1136 1.490 . S
C1132 H1122 0.930 . S
C1132 C1131 1.400 . S
C1132 C1135 1.386 . S
H1133 C1149 0.930 . S
H1134 C1150 0.931 . S
C1135 H1123 0.929 . S
C1135 C1129 1.390 . S
C1135 C1132 1.386 . S
C1136 C1131 1.490 . S
C1136 C1138 1.395 . S
C1136 C1139 1.403 . S
H1137 C1143 0.930 . S
C1138 H1124 0.930 . S
C1138 C1136 1.395 . S
C1138 C1141 1.403 . S
C1139 C1136 1.403 . S
C1139 C1140 1.524 1_455 S
C1139 C1143 1.400 . S
C1140 H1125 0.960 . S
C1140 H1126 0.960 . S
C1140 H1127 0.960 . S
C1140 C1139 1.524 1_655 S
C1141 C1138 1.403 . S
C1141 C1142 1.392 . S
C1141 C1145 1.495 . S
C1142 C1141 1.392 . S
C1142 C1143 1.385 . S
C1142 C1144 1.478 . S
C1143 H1137 0.930 . S
C1143 C1139 1.400 . S
C1143 C1142 1.385 . S
C1144 C1142 1.478 . S
C1144 C1146 1.381 . S
C1144 C1150 1.383 . S
C1145 C1141 1.495 . S
C1145 H1151 0.959 . S
C1145 H1152 0.961 . S
C1145 H1153 0.960 . S
C1146 C1144 1.381 . S
C1146 C1147 1.394 . S
C1146 H1154 0.930 . S
C1147 C1146 1.394 . S
C1147 C1148 1.383 . S
C1147 H1155 0.929 . S
C1148 C1147 1.383 . S
C1148 C1149 1.377 . S
C1149 H1133 0.930 . S
C1149 C1148 1.377 . S
C1149 C1150 1.379 . S
C1150 H1134 0.931 . S
C1150 C1144 1.383 . S
C1150 C1149 1.379 . S
H1151 C1145 0.959 . S
H1152 C1145 0.961 . S
H1153 C1145 0.960 . S
H1154 C1146 0.930 . S
H1155 C1147 0.929 . S
H1156 C1164 0.929 . S
H1157 C1166 0.930 . S
H1158 C1168 0.930 . S
H1159 C1171 0.929 . S
H1160 C1174 0.930 . S
H1161 C1176 0.960 . S
H1162 C1176 0.960 . S
H1163 C1176 0.960 . S
C1164 H1156 0.929 . S
C1164 C1165 1.377 . S
C1164 C1166 1.384 . S
C1165 C1164 1.377 . S
C1165 C1171 1.390 . S
C1166 H1157 0.930 . S
C1166 C1164 1.384 . S
C1166 C1167 1.372 . S
C1167 C1166 1.372 . S
C1167 C1168 1.400 . S
C1167 C1172 1.490 . S
C1168 H1158 0.930 . S
C1168 C1167 1.400 . S
C1168 C1171 1.386 . S
H1169 C1185 0.930 . S
H1170 C1186 0.931 . S
C1171 H1159 0.929 . S
C1171 C1165 1.390 . S
C1171 C1168 1.386 . S
C1172 C1167 1.490 . S
C1172 C1174 1.395 . S
C1172 C1175 1.403 . S
H1173 C1179 0.930 . S
C1174 H1160 0.930 . S
C1174 C1172 1.395 . S
C1174 C1177 1.403 . S
C1175 C1172 1.403 . S
C1175 C1176 1.524 . S
C1175 C1179 1.400 . S
C1176 H1161 0.960 . S
C1176 H1162 0.960 . S
C1176 H1163 0.960 . S
C1176 C1175 1.524 . S
C1177 C1174 1.403 . S
C1177 C1178 1.392 . S
C1177 C1181 1.495 . S
C1178 C1177 1.392 . S
C1178 C1179 1.385 . S
C1178 C1180 1.478 . S
C1179 H1173 0.930 . S
C1179 C1175 1.400 . S
C1179 C1178 1.385 . S
C1180 C1178 1.478 . S
C1180 C1182 1.381 . S
C1180 C1186 1.383 . S
C1181 C1177 1.495 . S
C1181 H1187 0.959 . S
C1181 H1188 0.961 . S
C1181 H1189 0.960 . S
C1182 C1180 1.381 . S
C1182 C1183 1.394 . S
C1182 H1190 0.930 . S
C1183 C1182 1.394 . S
C1183 C1184 1.383 . S
C1183 H1191 0.929 . S
C1184 C1183 1.383 . S
C1184 C1185 1.377 . S
C1185 H1169 0.930 . S
C1185 C1184 1.377 . S
C1185 C1186 1.379 . S
C1186 H1170 0.931 . S
C1186 C1180 1.383 . S
C1186 C1185 1.379 . S
H1187 C1181 0.959 . S
H1188 C1181 0.961 . S
H1189 C1181 0.960 . S
H1190 C1182 0.930 . S
H1191 C1183 0.929 . S
H1192 C1200 0.929 . S
H1193 C1202 0.930 . S
H1194 C1204 0.930 . S
H1195 C1207 0.929 . S
H1196 C1210 0.930 . S
H1197 C1212 0.960 . S
H1198 C1212 0.960 . S
H1199 C1212 0.960 . S
C1200 H1192 0.929 . S
C1200 C1201 1.377 . S
C1200 C1202 1.384 . S
C1201 C1200 1.377 . S
C1201 C1207 1.390 . S
C1202 H1193 0.930 . S
C1202 C1200 1.384 . S
C1202 C1203 1.372 . S
C1203 C1202 1.372 . S
C1203 C1204 1.400 . S
C1203 C1208 1.490 . S
C1204 H1194 0.930 . S
C1204 C1203 1.400 . S
C1204 C1207 1.386 . S
H1205 C1221 0.930 . S
H1206 C1222 0.931 . S
C1207 H1195 0.929 . S
C1207 C1201 1.390 . S
C1207 C1204 1.386 . S
C1208 C1203 1.490 . S
C1208 C1210 1.395 . S
C1208 C1211 1.403 . S
H1209 C1215 0.930 . S
C1210 H1196 0.930 . S
C1210 C1208 1.395 . S
C1210 C1213 1.403 . S
C1211 C1208 1.403 . S
C1211 C1212 1.524 . S
C1211 C1215 1.400 . S
C1212 H1197 0.960 . S
C1212 H1198 0.960 . S
C1212 H1199 0.960 . S
C1212 C1211 1.524 . S
C1213 C1210 1.403 . S
C1213 C1214 1.392 . S
C1213 C1217 1.495 . S
C1214 C1213 1.392 . S
C1214 C1215 1.385 . S
C1214 C1216 1.478 . S
C1215 H1209 0.930 . S
C1215 C1211 1.400 . S
C1215 C1214 1.385 . S
C1216 C1214 1.478 . S
C1216 C1218 1.381 . S
C1216 C1222 1.383 . S
C1217 C1213 1.495 . S
C1217 H1223 0.959 . S
C1217 H1224 0.961 . S
C1217 H1225 0.960 . S
C1218 C1216 1.381 . S
C1218 C1219 1.394 . S
C1218 H1226 0.930 . S
C1219 C1218 1.394 . S
C1219 C1220 1.383 . S
C1219 H1227 0.929 . S
C1220 C1219 1.383 . S
C1220 C1221 1.377 . S
C1221 H1205 0.930 . S
C1221 C1220 1.377 . S
C1221 C1222 1.379 . S
C1222 H1206 0.931 . S
C1222 C1216 1.383 . S
C1222 C1221 1.379 . S
H1223 C1217 0.959 . S
H1224 C1217 0.961 . S
H1225 C1217 0.960 . S
H1226 C1218 0.930 . S
H1227 C1219 0.929 . S
H1228 C1236 0.929 . S
H1229 C1238 0.930 . S
H1230 C1240 0.930 . S
H1231 C1243 0.929 . S
H1232 C1246 0.930 . S
H1233 C1248 0.960 . S
H1234 C1248 0.960 . S
H1235 C1248 0.960 . S
C1236 H1228 0.929 . S
C1236 C1237 1.377 . S
C1236 C1238 1.384 . S
C1237 C1236 1.377 . S
C1237 C1243 1.390 . S
C1238 H1229 0.930 . S
C1238 C1236 1.384 . S
C1238 C1239 1.372 . S
C1239 C1238 1.372 . S
C1239 C1240 1.400 . S
C1239 C1244 1.490 . S
C1240 H1230 0.930 . S
C1240 C1239 1.400 . S
C1240 C1243 1.386 . S
H1241 C1257 0.930 . S
H1242 C1258 0.931 . S
C1243 H1231 0.929 . S
C1243 C1237 1.390 . S
C1243 C1240 1.386 . S
C1244 C1239 1.490 . S
C1244 C1246 1.395 . S
C1244 C1247 1.403 . S
H1245 C1251 0.930 . S
C1246 H1232 0.930 . S
C1246 C1244 1.395 . S
C1246 C1249 1.403 . S
C1247 C1244 1.403 . S
C1247 C1248 1.524 . S
C1247 C1251 1.400 . S
C1248 H1233 0.960 . S
C1248 H1234 0.960 . S
C1248 H1235 0.960 . S
C1248 C1247 1.524 . S
C1249 C1246 1.403 . S
C1249 C1250 1.392 . S
C1249 C1253 1.495 . S
C1250 C1249 1.392 . S
C1250 C1251 1.385 . S
C1250 C1252 1.478 . S
C1251 H1245 0.930 . S
C1251 C1247 1.400 . S
C1251 C1250 1.385 . S
C1252 C1250 1.478 . S
C1252 C1254 1.381 . S
C1252 C1258 1.383 . S
C1253 C1249 1.495 . S
C1253 H1259 0.959 . S
C1253 H1260 0.961 . S
C1253 H1261 0.960 . S
C1254 C1252 1.381 . S
C1254 C1255 1.394 . S
C1254 H1262 0.930 . S
C1255 C1254 1.394 . S
C1255 C1256 1.383 . S
C1255 H1263 0.929 . S
C1256 C1255 1.383 . S
C1256 C1257 1.377 . S
C1257 H1241 0.930 . S
C1257 C1256 1.377 . S
C1257 C1258 1.379 . S
C1258 H1242 0.931 . S
C1258 C1252 1.383 . S
C1258 C1257 1.379 . S
H1259 C1253 0.959 . S
H1260 C1253 0.961 . S
H1261 C1253 0.960 . S
H1262 C1254 0.930 . S
H1263 C1255 0.929 . S
H1264 C1272 0.929 . S
H1265 C1274 0.930 . S
H1266 C1276 0.930 . S
H1267 C1279 0.929 . S
H1268 C1282 0.930 . S
H1269 C1284 0.970 . S
H1270 C1284 0.966 . S
H1271 C1284 0.959 1_545 S
C1272 H1264 0.929 . S
C1272 C1273 1.377 . S
C1272 C1274 1.384 . S
C1273 C1272 1.377 . S
C1273 C1279 1.390 . S
C1274 H1265 0.930 . S
C1274 C1272 1.384 . S
C1274 C1275 1.372 . S
C1275 C1274 1.372 . S
C1275 C1276 1.400 . S
C1275 C1280 1.490 . S
C1276 H1266 0.930 . S
C1276 C1275 1.400 . S
C1276 C1279 1.386 . S
H1277 C1293 0.930 . S
H1278 C1294 0.909 1_455 S
C1279 H1267 0.929 . S
C1279 C1273 1.390 . S
C1279 C1276 1.386 . S
C1280 C1275 1.490 . S
C1280 C1282 1.395 . S
C1280 C1283 1.403 . S
H1281 C1287 0.930 . S
C1282 H1268 0.930 . S
C1282 C1280 1.395 . S
C1282 C1285 1.403 . S
C1283 C1280 1.403 . S
C1283 C1284 1.509 1_545 S
C1283 C1287 1.400 . S
C1284 H1269 0.970 . S
C1284 H1270 0.966 . S
C1284 H1271 0.959 1_565 S
C1284 C1283 1.509 1_565 S
C1285 C1282 1.403 . S
C1285 C1286 1.392 . S
C1285 C1289 1.495 . S
C1286 C1285 1.392 . S
C1286 C1287 1.385 . S
C1286 C1288 1.478 . S
C1287 H1281 0.930 . S
C1287 C1283 1.400 . S
C1287 C1286 1.385 . S
C1288 C1286 1.478 . S
C1288 C1290 1.381 . S
C1288 C1294 1.438 . S
C1289 C1285 1.495 . S
C1289 H1295 0.959 . S
C1289 H1296 0.961 . S
C1289 H1297 0.960 . S
C1290 C1288 1.381 . S
C1290 C1291 1.394 . S
C1290 H1298 0.930 . S
C1291 C1290 1.394 . S
C1291 C1292 1.383 . S
C1291 H1299 0.929 . S
C1292 C1291 1.383 . S
C1292 C1293 1.377 1_655 S
C1293 H1277 0.930 . S
C1293 C1292 1.377 1_455 S
C1293 C1294 1.348 1_455 S
C1294 H1278 0.909 1_655 S
C1294 C1288 1.438 . S
C1294 C1293 1.348 1_655 S
H1295 C1289 0.959 . S
H1296 C1289 0.961 . S
H1297 C1289 0.960 . S
H1298 C1290 0.930 . S
H1299 C1291 0.929 . S
H1300 C1308 0.929 . S
H1301 C1310 0.930 . S
H1302 C1312 0.930 . S
H1303 C1315 0.929 . S
H1304 C1318 0.930 . S
H1305 C1320 0.960 . S
H1306 C1320 0.960 . S
H1307 C1320 0.960 . S
C1308 H1300 0.929 . S
C1308 C1309 1.377 . S
C1308 C1310 1.384 . S
C1309 C1308 1.377 . S
C1309 C1315 1.390 . S
C1310 H1301 0.930 . S
C1310 C1308 1.384 . S
C1310 C1311 1.372 . S
C1311 C1310 1.372 . S
C1311 C1312 1.400 . S
C1311 C1316 1.490 . S
C1312 H1302 0.930 . S
C1312 C1311 1.400 . S
C1312 C1315 1.386 . S
H1313 C1329 0.930 . S
H1314 C1330 0.931 . S
C1315 H1303 0.929 . S
C1315 C1309 1.390 . S
C1315 C1312 1.386 . S
C1316 C1311 1.490 . S
C1316 C1318 1.395 . S
C1316 C1319 1.403 . S
H1317 C1323 0.930 . S
C1318 H1304 0.930 . S
C1318 C1316 1.395 . S
C1318 C1321 1.403 . S
C1319 C1316 1.403 . S
C1319 C1320 1.524 . S
C1319 C1323 1.400 . S
C1320 H1305 0.960 . S
C1320 H1306 0.960 . S
C1320 H1307 0.960 . S
C1320 C1319 1.524 . S
C1321 C1318 1.403 . S
C1321 C1322 1.392 . S
C1321 C1325 1.495 . S
C1322 C1321 1.392 . S
C1322 C1323 1.385 . S
C1322 C1324 1.478 . S
C1323 H1317 0.930 . S
C1323 C1319 1.400 . S
C1323 C1322 1.385 . S
C1324 C1322 1.478 . S
C1324 C1326 1.381 . S
C1324 C1330 1.383 . S
C1325 C1321 1.495 . S
C1325 H1331 0.959 . S
C1325 H1332 0.961 . S
C1325 H1333 0.960 . S
C1326 C1324 1.381 . S
C1326 C1327 1.394 . S
C1326 H1334 0.930 . S
C1327 C1326 1.394 . S
C1327 C1328 1.383 . S
C1327 H1335 0.929 . S
C1328 C1327 1.383 . S
C1328 C1329 1.377 . S
C1329 H1313 0.930 . S
C1329 C1328 1.377 . S
C1329 C1330 1.379 . S
C1330 H1314 0.931 . S
C1330 C1324 1.383 . S
C1330 C1329 1.379 . S
H1331 C1325 0.959 . S
H1332 C1325 0.961 . S
H1333 C1325 0.960 . S
H1334 C1326 0.930 . S
H1335 C1327 0.929 . S
H1336 C1344 0.929 . S
H1337 C1346 0.930 . S
H1338 C1348 0.932 . S
H1339 C1351 0.929 . S
H1340 C1354 0.930 . S
H1341 C1356 0.960 . S
H1342 C1356 0.960 . S
H1343 C1356 0.960 . S
C1344 H1336 0.929 . S
C1344 C1345 1.377 . S
C1344 C1346 1.384 . S
C1345 C1344 1.377 . S
C1345 C1351 1.390 1_545 S
C1346 H1337 0.930 . S
C1346 C1344 1.384 . S
C1346 C1347 1.372 . S
C1347 C1346 1.372 . S
C1347 C1348 1.396 1_545 S
C1347 C1352 1.490 . S
C1348 H1338 0.932 . S
C1348 C1347 1.396 1_565 S
C1348 C1351 1.387 . S
H1349 C1365 0.930 1_565 S
H1350 C1366 0.931 1_565 S
C1351 H1339 0.929 . S
C1351 C1345 1.390 1_565 S
C1351 C1348 1.387 . S
C1352 C1347 1.490 . S
C1352 C1354 1.395 . S
C1352 C1355 1.403 . S
H1353 C1359 0.930 . S
C1354 H1340 0.930 . S
C1354 C1352 1.395 . S
C1354 C1357 1.403 . S
C1355 C1352 1.403 . S
C1355 C1356 1.524 . S
C1355 C1359 1.400 . S
C1356 H1341 0.960 . S
C1356 H1342 0.960 . S
C1356 H1343 0.960 . S
C1356 C1355 1.524 . S
C1357 C1354 1.403 . S
C1357 C1358 1.392 . S
C1357 C1361 1.495 . S
C1358 C1357 1.392 . S
C1358 C1359 1.385 . S
C1358 C1360 1.478 . S
C1359 H1353 0.930 . S
C1359 C1355 1.400 . S
C1359 C1358 1.385 . S
C1360 C1358 1.478 . S
C1360 C1362 1.381 . S
C1360 C1366 1.383 . S
C1361 C1357 1.495 . S
C1361 H1367 0.959 . S
C1361 H1368 0.955 1_545 S
C1361 H1369 0.960 . S
C1362 C1360 1.381 . S
C1362 C1363 1.394 . S
C1362 H1370 0.930 . S
C1363 C1362 1.394 . S
C1363 C1364 1.383 . S
C1363 H1371 0.929 . S
C1364 C1363 1.383 . S
C1364 C1365 1.377 . S
C1365 H1349 0.930 1_545 S
C1365 C1364 1.377 . S
C1365 C1366 1.379 . S
C1366 H1350 0.931 1_545 S
C1366 C1360 1.383 . S
C1366 C1365 1.379 . S
H1367 C1361 0.959 . S
H1368 C1361 0.955 1_565 S
H1369 C1361 0.960 . S
H1370 C1362 0.930 . S
H1371 C1363 0.929 . S
H1372 C1380 0.929 . S
H1373 C1382 0.930 . S
H1374 C1384 0.930 . S
H1375 C1387 0.929 . S
H1376 C1390 0.930 . S
H1377 C1392 0.960 . S
H1378 C1392 0.960 . S
H1379 C1392 0.960 . S
C1380 H1372 0.929 . S
C1380 C1381 1.377 . S
C1380 C1382 1.384 . S
C1381 C1380 1.377 . S
C1381 C1387 1.390 . S
C1382 H1373 0.930 . S
C1382 C1380 1.384 . S
C1382 C1383 1.372 . S
C1383 C1382 1.372 . S
C1383 C1384 1.400 . S
C1383 C1388 1.490 . S
C1384 H1374 0.930 . S
C1384 C1383 1.400 . S
C1384 C1387 1.386 . S
H1385 C1401 0.930 . S
H1386 C1402 0.931 . S
C1387 H1375 0.929 . S
C1387 C1381 1.390 . S
C1387 C1384 1.386 . S
C1388 C1383 1.490 . S
C1388 C1390 1.395 . S
C1388 C1391 1.403 . S
H1389 C1395 0.930 . S
C1390 H1376 0.930 . S
C1390 C1388 1.395 . S
C1390 C1393 1.403 . S
C1391 C1388 1.403 . S
C1391 C1392 1.524 . S
C1391 C1395 1.400 . S
C1392 H1377 0.960 . S
C1392 H1378 0.960 . S
C1392 H1379 0.960 . S
C1392 C1391 1.524 . S
C1393 C1390 1.403 . S
C1393 C1394 1.392 . S
C1393 C1397 1.495 . S
C1394 C1393 1.392 . S
C1394 C1395 1.385 . S
C1394 C1396 1.478 . S
C1395 H1389 0.930 . S
C1395 C1391 1.400 . S
C1395 C1394 1.385 . S
C1396 C1394 1.478 . S
C1396 C1398 1.381 . S
C1396 C1402 1.383 . S
C1397 C1393 1.495 . S
C1397 H1403 0.959 . S
C1397 H1404 0.961 . S
C1397 H1405 0.960 . S
C1398 C1396 1.381 . S
C1398 C1399 1.394 . S
C1398 H1406 0.930 . S
C1399 C1398 1.394 . S
C1399 C1400 1.383 . S
C1399 H1407 0.929 . S
C1400 C1399 1.383 . S
C1400 C1401 1.377 . S
C1401 H1385 0.930 . S
C1401 C1400 1.377 . S
C1401 C1402 1.379 . S
C1402 H1386 0.931 . S
C1402 C1396 1.383 . S
C1402 C1401 1.379 . S
H1403 C1397 0.959 . S
H1404 C1397 0.961 . S
H1405 C1397 0.960 . S
H1406 C1398 0.930 . S
H1407 C1399 0.929 . S
H1408 C1416 0.929 . S
H1409 C1418 0.930 . S
H1410 C1420 0.930 . S
H1411 C1423 0.929 . S
H1412 C1426 0.930 . S
H1413 C1428 0.960 . S
H1414 C1428 0.960 . S
H1415 C1428 0.960 . S
C1416 H1408 0.929 . S
C1416 C1417 1.377 . S
C1416 C1418 1.384 . S
C1417 C1416 1.377 . S
C1417 C1423 1.390 . S
C1418 H1409 0.930 . S
C1418 C1416 1.384 . S
C1418 C1419 1.372 . S
C1419 C1418 1.372 . S
C1419 C1420 1.400 . S
C1419 C1424 1.490 . S
C1420 H1410 0.930 . S
C1420 C1419 1.400 . S
C1420 C1423 1.386 . S
H1421 C1437 0.930 1_565 S
H1422 C1438 0.931 . S
C1423 H1411 0.929 . S
C1423 C1417 1.390 . S
C1423 C1420 1.386 . S
C1424 C1419 1.490 . S
C1424 C1426 1.395 . S
C1424 C1427 1.403 . S
H1425 C1431 0.930 . S
C1426 H1412 0.930 . S
C1426 C1424 1.395 . S
C1426 C1429 1.403 . S
C1427 C1424 1.403 . S
C1427 C1428 1.524 . S
C1427 C1431 1.400 . S
C1428 H1413 0.960 . S
C1428 H1414 0.960 . S
C1428 H1415 0.960 . S
C1428 C1427 1.524 . S
C1429 C1426 1.403 . S
C1429 C1430 1.392 . S
C1429 C1433 1.495 . S
C1430 C1429 1.392 . S
C1430 C1431 1.385 . S
C1430 C1432 1.478 . S
C1431 H1425 0.930 . S
C1431 C1427 1.400 . S
C1431 C1430 1.385 . S
C1432 C1430 1.478 . S
C1432 C1434 1.381 . S
C1432 C1438 1.383 . S
C1433 C1429 1.495 . S
C1433 H1439 0.959 . S
C1433 H1440 0.961 . S
C1433 H1441 0.960 . S
C1434 C1432 1.381 . S
C1434 C1435 1.394 . S
C1434 H1442 0.930 . S
C1435 C1434 1.394 . S
C1435 C1436 1.383 . S
C1435 H1443 0.929 . S
C1436 C1435 1.383 . S
C1436 C1437 1.377 . S
C1437 H1421 0.930 1_545 S
C1437 C1436 1.377 . S
C1437 C1438 1.379 . S
C1438 H1422 0.931 . S
C1438 C1432 1.383 . S
C1438 C1437 1.379 . S
H1439 C1433 0.959 . S
H1440 C1433 0.961 . S
H1441 C1433 0.960 . S
H1442 C1434 0.930 . S
H1443 C1435 0.929 . S
H1444 C1452 0.929 . S
H1445 C1454 0.930 . S
H1446 C1456 0.930 . S
H1447 C1459 0.929 . S
H1448 C1462 0.930 . S
H1449 C1464 0.960 . S
H1450 C1464 0.960 . S
H1451 C1464 0.960 . S
C1452 H1444 0.929 . S
C1452 C1453 1.377 . S
C1452 C1454 1.384 . S
C1453 C1452 1.377 . S
C1453 C1459 1.390 . S
C1454 H1445 0.930 . S
C1454 C1452 1.384 . S
C1454 C1455 1.372 . S
C1455 C1454 1.372 . S
C1455 C1456 1.400 . S
C1455 C1460 1.490 . S
C1456 H1446 0.930 . S
C1456 C1455 1.400 . S
C1456 C1459 1.386 . S
H1457 C1473 0.930 . S
H1458 C1474 0.931 . S
C1459 H1447 0.929 . S
C1459 C1453 1.390 . S
C1459 C1456 1.386 . S
C1460 C1455 1.490 . S
C1460 C1462 1.395 . S
C1460 C1463 1.403 . S
H1461 C1467 0.930 . S
C1462 H1448 0.930 . S
C1462 C1460 1.395 . S
C1462 C1465 1.403 . S
C1463 C1460 1.403 . S
C1463 C1464 1.524 . S
C1463 C1467 1.400 . S
C1464 H1449 0.960 . S
C1464 H1450 0.960 . S
C1464 H1451 0.960 . S
C1464 C1463 1.524 . S
C1465 C1462 1.403 . S
C1465 C1466 1.392 . S
C1465 C1469 1.495 . S
C1466 C1465 1.392 . S
C1466 C1467 1.385 . S
C1466 C1468 1.478 . S
C1467 H1461 0.930 . S
C1467 C1463 1.400 . S
C1467 C1466 1.385 . S
C1468 C1466 1.478 . S
C1468 C1470 1.381 . S
C1468 C1474 1.383 . S
C1469 C1465 1.495 . S
C1469 H1475 0.959 . S
C1469 H1476 0.961 . S
C1469 H1477 0.960 . S
C1470 C1468 1.381 . S
C1470 C1471 1.394 . S
C1470 H1478 0.930 . S
C1471 C1470 1.394 . S
C1471 C1472 1.383 . S
C1471 H1479 0.929 . S
C1472 C1471 1.383 . S
C1472 C1473 1.377 . S
C1473 H1457 0.930 . S
C1473 C1472 1.377 . S
C1473 C1474 1.379 . S
C1474 H1458 0.931 . S
C1474 C1468 1.383 . S
C1474 C1473 1.379 . S
H1475 C1469 0.959 . S
H1476 C1469 0.961 . S
H1477 C1469 0.960 . S
H1478 C1470 0.930 . S
H1479 C1471 0.929 . S
H1480 C1488 0.929 . S
H1481 C1490 0.930 . S
H1482 C1492 0.930 1_565 S
H1483 C1495 0.929 1_565 S
H1484 C1498 0.930 . S
H1485 C1500 0.960 . S
H1486 C1500 0.960 . S
H1487 C1500 0.960 . S
C1488 H1480 0.929 . S
C1488 C1489 1.377 . S
C1488 C1490 1.384 . S
C1489 C1488 1.377 . S
C1489 C1495 1.390 . S
C1490 H1481 0.930 . S
C1490 C1488 1.384 . S
C1490 C1491 1.372 . S
C1491 C1490 1.372 . S
C1491 C1492 1.400 . S
C1491 C1496 1.490 . S
C1492 H1482 0.930 1_545 S
C1492 C1491 1.400 . S
C1492 C1495 1.386 . S
H1493 C1509 0.920 1_565 S
H1494 C1510 0.931 1_565 S
C1495 H1483 0.929 1_545 S
C1495 C1489 1.390 . S
C1495 C1492 1.386 . S
C1496 C1491 1.490 . S
C1496 C1498 1.395 . S
C1496 C1499 1.403 . S
H1497 C1503 0.930 . S
C1498 H1484 0.930 . S
C1498 C1496 1.395 . S
C1498 C1501 1.403 . S
C1499 C1496 1.403 . S
C1499 C1500 1.524 . S
C1499 C1503 1.400 . S
C1500 H1485 0.960 . S
C1500 H1486 0.960 . S
C1500 H1487 0.960 . S
C1500 C1499 1.524 . S
C1501 C1498 1.403 . S
C1501 C1502 1.392 . S
C1501 C1505 1.495 . S
C1502 C1501 1.392 . S
C1502 C1503 1.385 . S
C1502 C1504 1.478 . S
C1503 H1497 0.930 . S
C1503 C1499 1.400 . S
C1503 C1502 1.385 . S
C1504 C1502 1.478 . S
C1504 C1506 1.381 . S
C1504 C1510 1.383 . S
C1505 C1501 1.495 . S
C1505 H1511 0.959 . S
C1505 H1512 0.961 . S
C1505 H1513 0.960 . S
C1506 C1504 1.381 . S
C1506 C1507 1.394 . S
C1506 H1514 0.930 . S
C1507 C1506 1.394 . S
C1507 C1508 1.383 . S
C1507 H1515 0.929 . S
C1508 C1507 1.383 . S
C1508 C1509 1.377 . S
C1509 H1493 0.920 1_545 S
C1509 C1508 1.377 . S
C1509 C1510 1.379 . S
C1510 H1494 0.931 1_545 S
C1510 C1504 1.383 . S
C1510 C1509 1.379 . S
H1511 C1505 0.959 . S
H1512 C1505 0.961 . S
H1513 C1505 0.960 . S
H1514 C1506 0.930 . S
H1515 C1507 0.929 . S
H1516 C1524 0.929 . S
H1517 C1526 0.930 . S
H1518 C1528 0.930 . S
H1519 C1531 0.929 . S
H1520 C1534 0.930 . S
H1521 C1536 0.960 . S
H1522 C1536 0.960 . S
H1523 C1536 0.960 . S
C1524 H1516 0.929 . S
C1524 C1525 1.377 . S
C1524 C1526 1.384 . S
C1525 C1524 1.377 . S
C1525 C1531 1.390 . S
C1526 H1517 0.930 . S
C1526 C1524 1.384 . S
C1526 C1527 1.372 . S
C1527 C1526 1.372 . S
C1527 C1528 1.400 . S
C1527 C1532 1.490 . S
C1528 H1518 0.930 . S
C1528 C1527 1.400 . S
C1528 C1531 1.386 . S
H1529 C1545 0.930 . S
H1530 C1546 0.931 . S
C1531 H1519 0.929 . S
C1531 C1525 1.390 . S
C1531 C1528 1.386 . S
C1532 C1527 1.490 . S
C1532 C1534 1.395 . S
C1532 C1535 1.403 . S
H1533 C1539 0.930 . S
C1534 H1520 0.930 . S
C1534 C1532 1.395 . S
C1534 C1537 1.403 . S
C1535 C1532 1.403 . S
C1535 C1536 1.524 . S
C1535 C1539 1.400 . S
C1536 H1521 0.960 . S
C1536 H1522 0.960 . S
C1536 H1523 0.960 . S
C1536 C1535 1.524 . S
C1537 C1534 1.403 . S
C1537 C1538 1.392 . S
C1537 C1541 1.495 . S
C1538 C1537 1.392 . S
C1538 C1539 1.385 . S
C1538 C1540 1.478 . S
C1539 H1533 0.930 . S
C1539 C1535 1.400 . S
C1539 C1538 1.385 . S
C1540 C1538 1.478 . S
C1540 C1542 1.381 . S
C1540 C1546 1.383 . S
C1541 C1537 1.495 . S
C1541 H1547 0.959 . S
C1541 H1548 0.961 . S
C1541 H1549 0.960 . S
C1542 C1540 1.381 . S
C1542 C1543 1.394 . S
C1542 H1550 0.930 . S
C1543 C1542 1.394 . S
C1543 C1544 1.383 . S
C1543 H1551 0.929 . S
C1544 C1543 1.383 . S
C1544 C1545 1.377 . S
C1545 H1529 0.930 . S
C1545 C1544 1.377 . S
C1545 C1546 1.379 . S
C1546 H1530 0.931 . S
C1546 C1540 1.383 . S
C1546 C1545 1.379 . S
H1547 C1541 0.959 . S
H1548 C1541 0.961 . S
H1549 C1541 0.960 . S
H1550 C1542 0.930 . S
H1551 C1543 0.929 . S
H1552 C1560 0.929 . S
H1553 C1562 0.930 . S
H1554 C1564 0.930 . S
H1555 C1567 0.929 . S
H1556 C1570 0.930 . S
H1557 C1572 0.966 . S
H1558 C1572 0.925 1_554 S
H1559 C1572 1.017 . S
C1560 H1552 0.929 . S
C1560 C1561 1.377 1_554 S
C1560 C1562 1.384 . S
C1561 C1560 1.377 1_556 S
C1561 C1567 1.390 . S
C1562 H1553 0.930 . S
C1562 C1560 1.384 . S
C1562 C1563 1.372 . S
C1563 C1562 1.372 . S
C1563 C1564 1.400 1_554 S
C1563 C1568 1.490 . S
C1564 H1554 0.930 . S
C1564 C1563 1.400 1_556 S
C1564 C1567 1.386 . S
H1565 C1581 0.930 . S
H1566 C1582 0.931 . S
C1567 H1555 0.929 . S
C1567 C1561 1.390 . S
C1567 C1564 1.386 . S
C1568 C1563 1.490 . S
C1568 C1570 1.395 . S
C1568 C1571 1.403 . S
H1569 C1575 0.930 . S
C1570 H1556 0.930 . S
C1570 C1568 1.395 . S
C1570 C1573 1.403 . S
C1571 C1568 1.403 . S
C1571 C1572 1.501 1_554 S
C1571 C1575 1.400 . S
C1572 H1557 0.966 . S
C1572 H1558 0.925 1_556 S
C1572 H1559 1.017 . S
C1572 C1571 1.501 1_556 S
C1573 C1570 1.403 . S
C1573 C1574 1.392 . S
C1573 C1577 1.495 . S
C1574 C1573 1.392 . S
C1574 C1575 1.385 . S
C1574 C1576 1.478 . S
C1575 H1569 0.930 . S
C1575 C1571 1.400 . S
C1575 C1574 1.385 . S
C1576 C1574 1.478 . S
C1576 C1578 1.381 . S
C1576 C1582 1.383 . S
C1577 C1573 1.495 . S
C1577 H1583 0.959 . S
C1577 H1584 0.961 . S
C1577 H1585 0.960 . S
C1578 C1576 1.381 . S
C1578 C1579 1.394 . S
C1578 H1586 0.930 . S
C1579 C1578 1.394 . S
C1579 C1580 1.383 . S
C1579 H1587 0.929 . S
C1580 C1579 1.383 . S
C1580 C1581 1.377 . S
C1581 H1565 0.930 . S
C1581 C1580 1.377 . S
C1581 C1582 1.379 . S
C1582 H1566 0.931 . S
C1582 C1576 1.383 . S
C1582 C1581 1.379 . S
H1583 C1577 0.959 . S
H1584 C1577 0.961 . S
H1585 C1577 0.960 . S
H1586 C1578 0.930 . S
H1587 C1579 0.929 . S
H1588 C1596 0.929 . S
H1589 C1598 0.930 . S
H1590 C1600 0.930 . S
H1591 C1603 0.929 . S
H1592 C1606 0.930 . S
H1593 C1608 0.960 . S
H1594 C1608 0.960 . S
H1595 C1608 0.960 . S
C1596 H1588 0.929 . S
C1596 C1597 1.377 . S
C1596 C1598 1.384 . S
C1597 C1596 1.377 . S
C1597 C1603 1.390 . S
C1598 H1589 0.930 . S
C1598 C1596 1.384 . S
C1598 C1599 1.372 . S
C1599 C1598 1.372 . S
C1599 C1600 1.400 . S
C1599 C1604 1.490 . S
C1600 H1590 0.930 . S
C1600 C1599 1.400 . S
C1600 C1603 1.386 . S
H1601 C1617 0.930 . S
H1602 C1618 0.931 . S
C1603 H1591 0.929 . S
C1603 C1597 1.390 . S
C1603 C1600 1.386 . S
C1604 C1599 1.490 . S
C1604 C1606 1.395 1_554 S
C1604 C1607 1.403 . S
H1605 C1611 0.930 . S
C1606 H1592 0.930 . S
C1606 C1604 1.395 1_556 S
C1606 C1609 1.403 . S
C1607 C1604 1.403 . S
C1607 C1608 1.524 . S
C1607 C1611 1.400 . S
C1608 H1593 0.960 . S
C1608 H1594 0.960 . S
C1608 H1595 0.960 . S
C1608 C1607 1.524 . S
C1609 C1606 1.403 . S
C1609 C1610 1.392 1_556 S
C1609 C1613 1.495 . S
C1610 C1609 1.392 1_554 S
C1610 C1611 1.385 . S
C1610 C1612 1.478 . S
C1611 H1605 0.930 . S
C1611 C1607 1.400 . S
C1611 C1610 1.385 . S
C1612 C1610 1.478 . S
C1612 C1614 1.381 . S
C1612 C1618 1.383 . S
C1613 C1609 1.495 . S
C1613 H1619 0.959 . S
C1613 H1620 0.961 . S
C1613 H1621 0.960 . S
C1614 C1612 1.381 . S
C1614 C1615 1.394 . S
C1614 H1622 0.930 . S
C1615 C1614 1.394 . S
C1615 C1616 1.383 . S
C1615 H1623 0.929 . S
C1616 C1615 1.383 . S
C1616 C1617 1.377 . S
C1617 H1601 0.930 . S
C1617 C1616 1.377 . S
C1617 C1618 1.379 . S
C1618 H1602 0.931 . S
C1618 C1612 1.383 . S
C1618 C1617 1.379 . S
H1619 C1613 0.959 . S
H1620 C1613 0.961 . S
H1621 C1613 0.960 . S
H1622 C1614 0.930 . S
H1623 C1615 0.929 . S
H1624 C1632 0.929 . S
H1625 C1634 0.930 . S
H1626 C1636 0.930 . S
H1627 C1639 0.929 . S
H1628 C1642 0.930 . S
H1629 C1644 0.960 . S
H1630 C1644 0.960 . S
H1631 C1644 0.960 . S
C1632 H1624 0.929 . S
C1632 C1633 1.377 . S
C1632 C1634 1.384 . S
C1633 C1632 1.377 . S
C1633 C1639 1.390 . S
C1634 H1625 0.930 . S
C1634 C1632 1.384 . S
C1634 C1635 1.372 . S
C1635 C1634 1.372 . S
C1635 C1636 1.400 . S
C1635 C1640 1.490 . S
C1636 H1626 0.930 . S
C1636 C1635 1.400 . S
C1636 C1639 1.386 . S
H1637 C1653 0.930 . S
H1638 C1654 0.931 . S
C1639 H1627 0.929 . S
C1639 C1633 1.390 . S
C1639 C1636 1.386 . S
C1640 C1635 1.490 . S
C1640 C1642 1.395 . S
C1640 C1643 1.403 . S
H1641 C1647 0.930 . S
C1642 H1628 0.930 . S
C1642 C1640 1.395 . S
C1642 C1645 1.403 . S
C1643 C1640 1.403 . S
C1643 C1644 1.524 . S
C1643 C1647 1.400 . S
C1644 H1629 0.960 . S
C1644 H1630 0.960 . S
C1644 H1631 0.960 . S
C1644 C1643 1.524 . S
C1645 C1642 1.403 . S
C1645 C1646 1.392 . S
C1645 C1649 1.495 . S
C1646 C1645 1.392 . S
C1646 C1647 1.385 . S
C1646 C1648 1.478 . S
C1647 H1641 0.930 . S
C1647 C1643 1.400 . S
C1647 C1646 1.385 . S
C1648 C1646 1.478 . S
C1648 C1650 1.381 . S
C1648 C1654 1.383 . S
C1649 C1645 1.495 . S
C1649 H1655 0.959 . S
C1649 H1656 0.961 . S
C1649 H1657 0.960 . S
C1650 C1648 1.381 . S
C1650 C1651 1.394 . S
C1650 H1658 0.930 . S
C1651 C1650 1.394 . S
C1651 C1652 1.383 . S
C1651 H1659 0.929 . S
C1652 C1651 1.383 . S
C1652 C1653 1.377 . S
C1653 H1637 0.930 . S
C1653 C1652 1.377 . S
C1653 C1654 1.379 . S
C1654 H1638 0.931 . S
C1654 C1648 1.383 . S
C1654 C1653 1.379 . S
H1655 C1649 0.959 . S
H1656 C1649 0.961 . S
H1657 C1649 0.960 . S
H1658 C1650 0.930 . S
H1659 C1651 0.929 . S
H1660 C1668 0.929 . S
H1661 C1670 0.930 . S
H1662 C1672 0.930 . S
H1663 C1675 0.929 . S
H1664 C1678 0.930 . S
H1665 C1680 0.960 . S
H1666 C1680 0.960 . S
H1667 C1680 0.960 . S
C1668 H1660 0.929 . S
C1668 C1669 1.377 . S
C1668 C1670 1.384 . S
C1669 C1668 1.377 . S
C1669 C1675 1.390 . S
C1670 H1661 0.930 . S
C1670 C1668 1.384 . S
C1670 C1671 1.372 . S
C1671 C1670 1.372 . S
C1671 C1672 1.400 . S
C1671 C1676 1.490 . S
C1672 H1662 0.930 . S
C1672 C1671 1.400 . S
C1672 C1675 1.386 . S
H1673 C1689 0.930 . S
H1674 C1690 0.931 . S
C1675 H1663 0.929 . S
C1675 C1669 1.390 . S
C1675 C1672 1.386 . S
C1676 C1671 1.490 . S
C1676 C1678 1.395 . S
C1676 C1679 1.403 . S
H1677 C1683 0.930 . S
C1678 H1664 0.930 . S
C1678 C1676 1.395 . S
C1678 C1681 1.403 . S
C1679 C1676 1.403 . S
C1679 C1680 1.524 . S
C1679 C1683 1.400 . S
C1680 H1665 0.960 . S
C1680 H1666 0.960 . S
C1680 H1667 0.960 . S
C1680 C1679 1.524 . S
C1681 C1678 1.403 . S
C1681 C1682 1.392 . S
C1681 C1685 1.495 . S
C1682 C1681 1.392 . S
C1682 C1683 1.385 . S
C1682 C1684 1.478 . S
C1683 H1677 0.930 . S
C1683 C1679 1.400 . S
C1683 C1682 1.385 . S
C1684 C1682 1.478 . S
C1684 C1686 1.381 . S
C1684 C1690 1.383 . S
C1685 C1681 1.495 . S
C1685 H1691 0.959 . S
C1685 H1692 0.961 . S
C1685 H1693 0.960 . S
C1686 C1684 1.381 . S
C1686 C1687 1.394 . S
C1686 H1694 0.930 . S
C1687 C1686 1.394 . S
C1687 C1688 1.383 . S
C1687 H1695 0.929 . S
C1688 C1687 1.383 . S
C1688 C1689 1.377 . S
C1689 H1673 0.930 . S
C1689 C1688 1.377 . S
C1689 C1690 1.379 . S
C1690 H1674 0.931 . S
C1690 C1684 1.383 . S
C1690 C1689 1.379 . S
H1691 C1685 0.959 . S
H1692 C1685 0.961 . S
H1693 C1685 0.960 . S
H1694 C1686 0.930 . S
H1695 C1687 0.929 . S
H1696 C1704 0.929 . S
H1697 C1706 0.930 . S
H1698 C1708 0.930 . S
H1699 C1711 0.929 . S
H1700 C1714 0.930 . S
H1701 C1716 0.960 . S
H1702 C1716 0.960 . S
H1703 C1716 0.960 . S
C1704 H1696 0.929 . S
C1704 C1705 1.377 . S
C1704 C1706 1.384 . S
C1705 C1704 1.377 . S
C1705 C1711 1.390 . S
C1706 H1697 0.930 . S
C1706 C1704 1.384 . S
C1706 C1707 1.372 . S
C1707 C1706 1.372 . S
C1707 C1708 1.400 . S
C1707 C1712 1.490 . S
C1708 H1698 0.930 . S
C1708 C1707 1.400 . S
C1708 C1711 1.386 . S
H1709 C1725 0.930 . S
H1710 C1726 0.931 . S
C1711 H1699 0.929 . S
C1711 C1705 1.390 . S
C1711 C1708 1.386 . S
C1712 C1707 1.490 . S
C1712 C1714 1.395 . S
C1712 C1715 1.403 . S
H1713 C1719 0.930 . S
C1714 H1700 0.930 . S
C1714 C1712 1.395 . S
C1714 C1717 1.403 . S
C1715 C1712 1.403 . S
C1715 C1716 1.524 . S
C1715 C1719 1.400 . S
C1716 H1701 0.960 . S
C1716 H1702 0.960 . S
C1716 H1703 0.960 . S
C1716 C1715 1.524 . S
C1717 C1714 1.403 . S
C1717 C1718 1.392 . S
C1717 C1721 1.495 . S
C1718 C1717 1.392 . S
C1718 C1719 1.385 . S
C1718 C1720 1.478 . S
C1719 H1713 0.930 . S
C1719 C1715 1.400 . S
C1719 C1718 1.385 . S
C1720 C1718 1.478 . S
C1720 C1722 1.381 . S
C1720 C1726 1.383 . S
C1721 C1717 1.495 . S
C1721 H1727 0.959 . S
C1721 H1728 0.961 . S
C1721 H1729 0.960 . S
C1722 C1720 1.381 . S
C1722 C1723 1.394 . S
C1722 H1730 0.930 . S
C1723 C1722 1.394 . S
C1723 C1724 1.383 . S
C1723 H1731 0.929 . S
C1724 C1723 1.383 . S
C1724 C1725 1.377 . S
C1725 H1709 0.930 . S
C1725 C1724 1.377 . S
C1725 C1726 1.379 . S
C1726 H1710 0.931 . S
C1726 C1720 1.383 . S
C1726 C1725 1.379 . S
H1727 C1721 0.959 . S
H1728 C1721 0.961 . S
H1729 C1721 0.960 . S
H1730 C1722 0.930 . S
H1731 C1723 0.929 . S
H1732 C1740 0.929 . S
H1733 C1742 0.930 . S
H1734 C1744 0.930 . S
H1735 C1747 0.929 . S
H1736 C1750 0.930 . S
H1737 C1752 0.960 . S
H1738 C1752 0.960 . S
H1739 C1752 0.960 . S
C1740 H1732 0.929 . S
C1740 C1741 1.377 . S
C1740 C1742 1.384 . S
C1741 C1740 1.377 . S
C1741 C1747 1.390 . S
C1742 H1733 0.930 . S
C1742 C1740 1.384 . S
C1742 C1743 1.372 . S
C1743 C1742 1.372 . S
C1743 C1744 1.400 . S
C1743 C1748 1.490 . S
C1744 H1734 0.930 . S
C1744 C1743 1.400 . S
C1744 C1747 1.386 . S
H1745 C1761 0.930 . S
H1746 C1762 0.931 . S
C1747 H1735 0.929 . S
C1747 C1741 1.390 . S
C1747 C1744 1.386 . S
C1748 C1743 1.490 . S
C1748 C1750 1.395 . S
C1748 C1751 1.403 . S
H1749 C1755 0.930 . S
C1750 H1736 0.930 . S
C1750 C1748 1.395 . S
C1750 C1753 1.403 . S
C1751 C1748 1.403 . S
C1751 C1752 1.524 . S
C1751 C1755 1.400 . S
C1752 H1737 0.960 . S
C1752 H1738 0.960 . S
C1752 H1739 0.960 . S
C1752 C1751 1.524 . S
C1753 C1750 1.403 . S
C1753 C1754 1.392 . S
C1753 C1757 1.495 . S
C1754 C1753 1.392 . S
C1754 C1755 1.385 . S
C1754 C1756 1.478 . S
C1755 H1749 0.930 . S
C1755 C1751 1.400 . S
C1755 C1754 1.385 . S
C1756 C1754 1.478 . S
C1756 C1758 1.381 . S
C1756 C1762 1.383 . S
C1757 C1753 1.495 . S
C1757 H1763 0.959 . S
C1757 H1764 0.961 . S
C1757 H1765 0.960 . S
C1758 C1756 1.381 . S
C1758 C1759 1.394 . S
C1758 H1766 0.930 . S
C1759 C1758 1.394 . S
C1759 C1760 1.383 . S
C1759 H1767 0.929 . S
C1760 C1759 1.383 . S
C1760 C1761 1.377 . S
C1761 H1745 0.930 . S
C1761 C1760 1.377 . S
C1761 C1762 1.379 . S
C1762 H1746 0.931 . S
C1762 C1756 1.383 . S
C1762 C1761 1.379 . S
H1763 C1757 0.959 . S
H1764 C1757 0.961 . S
H1765 C1757 0.960 . S
H1766 C1758 0.930 . S
H1767 C1759 0.929 . S
H1768 C1776 0.929 . S
H1769 C1778 0.930 . S
H1770 C1780 0.930 . S
H1771 C1783 0.929 . S
H1772 C1786 0.930 . S
H1773 C1788 0.960 . S
H1774 C1788 0.960 . S
H1775 C1788 0.960 . S
C1776 H1768 0.929 . S
C1776 C1777 1.377 . S
C1776 C1778 1.384 . S
C1777 C1776 1.377 . S
C1777 C1783 1.390 . S
C1778 H1769 0.930 . S
C1778 C1776 1.384 . S
C1778 C1779 1.372 . S
C1779 C1778 1.372 . S
C1779 C1780 1.400 . S
C1779 C1784 1.490 . S
C1780 H1770 0.930 . S
C1780 C1779 1.400 . S
C1780 C1783 1.386 . S
H1781 C1797 0.930 . S
H1782 C1798 0.931 . S
C1783 H1771 0.929 . S
C1783 C1777 1.390 . S
C1783 C1780 1.386 . S
C1784 C1779 1.490 . S
C1784 C1786 1.395 . S
C1784 C1787 1.403 . S
H1785 C1791 0.930 . S
C1786 H1772 0.930 . S
C1786 C1784 1.395 . S
C1786 C1789 1.403 . S
C1787 C1784 1.403 . S
C1787 C1788 1.524 . S
C1787 C1791 1.400 . S
C1788 H1773 0.960 . S
C1788 H1774 0.960 . S
C1788 H1775 0.960 . S
C1788 C1787 1.524 . S
C1789 C1786 1.403 . S
C1789 C1790 1.392 . S
C1789 C1793 1.495 . S
C1790 C1789 1.392 . S
C1790 C1791 1.385 . S
C1790 C1792 1.478 . S
C1791 H1785 0.930 . S
C1791 C1787 1.400 . S
C1791 C1790 1.385 . S
C1792 C1790 1.478 . S
C1792 C1794 1.381 . S
C1792 C1798 1.383 . S
C1793 C1789 1.495 . S
C1793 H1799 0.959 . S
C1793 H1800 0.961 . S
C1793 H1801 0.960 . S
C1794 C1792 1.381 . S
C1794 C1795 1.394 . S
C1794 H1802 0.930 . S
C1795 C1794 1.394 . S
C1795 C1796 1.383 . S
C1795 H1803 0.929 . S
C1796 C1795 1.383 . S
C1796 C1797 1.377 . S
C1797 H1781 0.930 . S
C1797 C1796 1.377 . S
C1797 C1798 1.379 . S
C1798 H1782 0.931 . S
C1798 C1792 1.383 . S
C1798 C1797 1.379 . S
H1799 C1793 0.959 . S
H1800 C1793 0.961 . S
H1801 C1793 0.960 . S
H1802 C1794 0.930 . S
H1803 C1795 0.929 . S
H1804 C1812 0.929 . S
H1805 C1814 0.930 . S
H1806 C1816 0.930 . S
H1807 C1819 0.929 . S
H1808 C1822 0.930 . S
H1809 C1824 0.960 . S
H1810 C1824 0.960 . S
H1811 C1824 0.960 . S
C1812 H1804 0.929 . S
C1812 C1813 1.377 . S
C1812 C1814 1.384 . S
C1813 C1812 1.377 . S
C1813 C1819 1.390 . S
C1814 H1805 0.930 . S
C1814 C1812 1.384 . S
C1814 C1815 1.372 . S
C1815 C1814 1.372 . S
C1815 C1816 1.400 . S
C1815 C1820 1.490 . S
C1816 H1806 0.930 . S
C1816 C1815 1.400 . S
C1816 C1819 1.386 . S
H1817 C1833 0.930 . S
H1818 C1834 0.931 . S
C1819 H1807 0.929 . S
C1819 C1813 1.390 . S
C1819 C1816 1.386 . S
C1820 C1815 1.490 . S
C1820 C1822 1.395 . S
C1820 C1823 1.403 . S
H1821 C1827 0.930 . S
C1822 H1808 0.930 . S
C1822 C1820 1.395 . S
C1822 C1825 1.403 . S
C1823 C1820 1.403 . S
C1823 C1824 1.524 . S
C1823 C1827 1.400 . S
C1824 H1809 0.960 . S
C1824 H1810 0.960 . S
C1824 H1811 0.960 . S
C1824 C1823 1.524 . S
C1825 C1822 1.403 . S
C1825 C1826 1.392 . S
C1825 C1829 1.495 . S
C1826 C1825 1.392 . S
C1826 C1827 1.385 . S
C1826 C1828 1.478 . S
C1827 H1821 0.930 . S
C1827 C1823 1.400 . S
C1827 C1826 1.385 . S
C1828 C1826 1.478 . S
C1828 C1830 1.381 . S
C1828 C1834 1.383 . S
C1829 C1825 1.495 . S
C1829 H1835 0.959 . S
C1829 H1836 0.961 . S
C1829 H1837 0.960 . S
C1830 C1828 1.381 . S
C1830 C1831 1.394 . S
C1830 H1838 0.930 . S
C1831 C1830 1.394 . S
C1831 C1832 1.383 . S
C1831 H1839 0.929 . S
C1832 C1831 1.383 . S
C1832 C1833 1.377 . S
C1833 H1817 0.930 . S
C1833 C1832 1.377 . S
C1833 C1834 1.379 . S
C1834 H1818 0.931 . S
C1834 C1828 1.383 . S
C1834 C1833 1.379 . S
H1835 C1829 0.959 . S
H1836 C1829 0.961 . S
H1837 C1829 0.960 . S
H1838 C1830 0.930 . S
H1839 C1831 0.929 . S
H1840 C1848 0.929 . S
H1841 C1850 0.930 . S
H1842 C1852 0.930 . S
H1843 C1855 0.929 . S
H1844 C1858 0.930 . S
H1845 C1860 0.960 1_655 S
H1846 C1860 0.960 1_655 S
H1847 C1860 0.960 . S
C1848 H1840 0.929 . S
C1848 C1849 1.377 . S
C1848 C1850 1.384 . S
C1849 C1848 1.377 . S
C1849 C1855 1.390 . S
C1850 H1841 0.930 . S
C1850 C1848 1.384 . S
C1850 C1851 1.372 . S
C1851 C1850 1.372 . S
C1851 C1852 1.400 . S
C1851 C1856 1.490 . S
C1852 H1842 0.930 . S
C1852 C1851 1.400 . S
C1852 C1855 1.386 . S
H1853 C1869 0.930 . S
H1854 C1870 0.931 . S
C1855 H1843 0.929 . S
C1855 C1849 1.390 . S
C1855 C1852 1.386 . S
C1856 C1851 1.490 . S
C1856 C1858 1.395 . S
C1856 C1859 1.403 . S
H1857 C1863 0.930 . S
C1858 H1844 0.930 . S
C1858 C1856 1.395 . S
C1858 C1861 1.403 . S
C1859 C1856 1.403 . S
C1859 C1860 1.524 . S
C1859 C1863 1.400 . S
C1860 H1845 0.960 1_455 S
C1860 H1846 0.960 1_455 S
C1860 H1847 0.960 . S
C1860 C1859 1.524 . S
C1861 C1858 1.403 . S
C1861 C1862 1.392 . S
C1861 C1865 1.495 . S
C1862 C1861 1.392 . S
C1862 C1863 1.385 . S
C1862 C1864 1.478 . S
C1863 H1857 0.930 . S
C1863 C1859 1.400 . S
C1863 C1862 1.385 . S
C1864 C1862 1.478 . S
C1864 C1866 1.381 . S
C1864 C1870 1.383 . S
C1865 C1861 1.495 . S
C1865 H1871 0.959 . S
C1865 H1872 0.961 . S
C1865 H1873 0.960 . S
C1866 C1864 1.381 . S
C1866 C1867 1.394 . S
C1866 H1874 0.930 . S
C1867 C1866 1.394 . S
C1867 C1868 1.383 . S
C1867 H1875 0.929 . S
C1868 C1867 1.383 . S
C1868 C1869 1.377 . S
C1869 H1853 0.930 . S
C1869 C1868 1.377 . S
C1869 C1870 1.379 . S
C1870 H1854 0.931 . S
C1870 C1864 1.383 . S
C1870 C1869 1.379 . S
H1871 C1865 0.959 . S
H1872 C1865 0.961 . S
H1873 C1865 0.960 . S
H1874 C1866 0.930 . S
H1875 C1867 0.929 . S
H1876 C1884 0.929 . S
H1877 C1886 0.930 . S
H1878 C1888 0.930 . S
H1879 C1891 0.929 . S
H1880 C1894 0.930 . S
H1881 C1896 0.960 . S
H1882 C1896 0.960 . S
H1883 C1896 0.960 . S
C1884 H1876 0.929 . S
C1884 C1885 1.377 . S
C1884 C1886 1.384 . S
C1885 C1884 1.377 . S
C1885 C1891 1.390 . S
C1886 H1877 0.930 . S
C1886 C1884 1.384 . S
C1886 C1887 1.372 . S
C1887 C1886 1.372 . S
C1887 C1888 1.400 . S
C1887 C1892 1.490 . S
C1888 H1878 0.930 . S
C1888 C1887 1.400 . S
C1888 C1891 1.386 . S
H1889 C1905 0.930 . S
H1890 C1906 0.931 . S
C1891 H1879 0.929 . S
C1891 C1885 1.390 . S
C1891 C1888 1.386 . S
C1892 C1887 1.490 . S
C1892 C1894 1.395 . S
C1892 C1895 1.403 . S
H1893 C1899 0.930 . S
C1894 H1880 0.930 . S
C1894 C1892 1.395 . S
C1894 C1897 1.403 . S
C1895 C1892 1.403 . S
C1895 C1896 1.524 . S
C1895 C1899 1.400 . S
C1896 H1881 0.960 . S
C1896 H1882 0.960 . S
C1896 H1883 0.960 . S
C1896 C1895 1.524 . S
C1897 C1894 1.403 . S
C1897 C1898 1.392 . S
C1897 C1901 1.495 . S
C1898 C1897 1.392 . S
C1898 C1899 1.385 . S
C1898 C1900 1.478 . S
C1899 H1893 0.930 . S
C1899 C1895 1.400 . S
C1899 C1898 1.385 . S
C1900 C1898 1.478 . S
C1900 C1902 1.381 . S
C1900 C1906 1.383 . S
C1901 C1897 1.495 . S
C1901 H1907 0.959 . S
C1901 H1908 0.961 . S
C1901 H1909 0.960 . S
C1902 C1900 1.381 . S
C1902 C1903 1.394 . S
C1902 H1910 0.930 . S
C1903 C1902 1.394 . S
C1903 C1904 1.383 . S
C1903 H1911 0.929 . S
C1904 C1903 1.383 . S
C1904 C1905 1.377 . S
C1905 H1889 0.930 . S
C1905 C1904 1.377 . S
C1905 C1906 1.379 . S
C1906 H1890 0.931 . S
C1906 C1900 1.383 . S
C1906 C1905 1.379 . S
H1907 C1901 0.959 . S
H1908 C1901 0.961 . S
H1909 C1901 0.960 . S
H1910 C1902 0.930 . S
H1911 C1903 0.929 . S
H1912 C1920 0.929 . S
H1913 C1922 0.930 . S
H1914 C1924 0.930 . S
H1915 C1927 0.929 . S
H1916 C1930 0.930 . S
H1917 C1932 0.960 . S
H1918 C1932 0.960 . S
H1919 C1932 0.960 . S
C1920 H1912 0.929 . S
C1920 C1921 1.377 . S
C1920 C1922 1.384 . S
C1921 C1920 1.377 . S
C1921 C1927 1.390 . S
C1922 H1913 0.930 . S
C1922 C1920 1.384 . S
C1922 C1923 1.372 . S
C1923 C1922 1.372 . S
C1923 C1924 1.400 . S
C1923 C1928 1.490 . S
C1924 H1914 0.930 . S
C1924 C1923 1.400 . S
C1924 C1927 1.386 . S
H1925 C1941 0.930 . S
H1926 C1942 0.931 . S
C1927 H1915 0.929 . S
C1927 C1921 1.390 . S
C1927 C1924 1.386 . S
C1928 C1923 1.490 . S
C1928 C1930 1.395 . S
C1928 C1931 1.403 . S
H1929 C1935 0.930 . S
C1930 H1916 0.930 . S
C1930 C1928 1.395 . S
C1930 C1933 1.403 . S
C1931 C1928 1.403 . S
C1931 C1932 1.524 . S
C1931 C1935 1.400 . S
C1932 H1917 0.960 . S
C1932 H1918 0.960 . S
C1932 H1919 0.960 . S
C1932 C1931 1.524 . S
C1933 C1930 1.403 . S
C1933 C1934 1.392 . S
C1933 C1937 1.495 . S
C1934 C1933 1.392 . S
C1934 C1935 1.385 . S
C1934 C1936 1.478 . S
C1935 H1929 0.930 . S
C1935 C1931 1.400 . S
C1935 C1934 1.385 . S
C1936 C1934 1.478 . S
C1936 C1938 1.381 . S
C1936 C1942 1.383 . S
C1937 C1933 1.495 . S
C1937 H1943 0.959 . S
C1937 H1944 0.961 . S
C1937 H1945 0.960 . S
C1938 C1936 1.381 . S
C1938 C1939 1.394 . S
C1938 H1946 0.930 . S
C1939 C1938 1.394 . S
C1939 C1940 1.383 . S
C1939 H1947 0.929 . S
C1940 C1939 1.383 . S
C1940 C1941 1.377 . S
C1941 H1925 0.930 . S
C1941 C1940 1.377 . S
C1941 C1942 1.379 . S
C1942 H1926 0.931 . S
C1942 C1936 1.383 . S
C1942 C1941 1.379 . S
H1943 C1937 0.959 . S
H1944 C1937 0.961 . S
H1945 C1937 0.960 . S
H1946 C1938 0.930 . S
H1947 C1939 0.929 . S
H1948 C1956 0.929 . S
H1949 C1958 0.930 . S
H1950 C1960 0.930 . S
H1951 C1963 0.929 . S
H1952 C1966 0.930 . S
H1953 C1968 0.960 . S
H1954 C1968 0.960 . S
H1955 C1968 0.960 . S
C1956 H1948 0.929 . S
C1956 C1957 1.377 . S
C1956 C1958 1.384 . S
C1957 C1956 1.377 . S
C1957 C1963 1.390 . S
C1958 H1949 0.930 . S
C1958 C1956 1.384 . S
C1958 C1959 1.372 . S
C1959 C1958 1.372 . S
C1959 C1960 1.400 . S
C1959 C1964 1.490 . S
C1960 H1950 0.930 . S
C1960 C1959 1.400 . S
C1960 C1963 1.386 . S
H1961 C1977 0.930 . S
H1962 C1978 0.931 . S
C1963 H1951 0.929 . S
C1963 C1957 1.390 . S
C1963 C1960 1.386 . S
C1964 C1959 1.490 . S
C1964 C1966 1.395 . S
C1964 C1967 1.403 . S
H1965 C1971 0.930 . S
C1966 H1952 0.930 . S
C1966 C1964 1.395 . S
C1966 C1969 1.403 . S
C1967 C1964 1.403 . S
C1967 C1968 1.524 . S
C1967 C1971 1.400 . S
C1968 H1953 0.960 . S
C1968 H1954 0.960 . S
C1968 H1955 0.960 . S
C1968 C1967 1.524 . S
C1969 C1966 1.403 . S
C1969 C1970 1.392 . S
C1969 C1973 1.495 . S
C1970 C1969 1.392 . S
C1970 C1971 1.385 . S
C1970 C1972 1.478 . S
C1971 H1965 0.930 . S
C1971 C1967 1.400 . S
C1971 C1970 1.385 . S
C1972 C1970 1.478 . S
C1972 C1974 1.381 . S
C1972 C1978 1.383 . S
C1973 C1969 1.495 . S
C1973 H1979 0.959 . S
C1973 H1980 0.961 . S
C1973 H1981 0.960 . S
C1974 C1972 1.381 . S
C1974 C1975 1.394 . S
C1974 H1982 0.930 . S
C1975 C1974 1.394 . S
C1975 C1976 1.383 . S
C1975 H1983 0.929 . S
C1976 C1975 1.383 . S
C1976 C1977 1.377 . S
C1977 H1961 0.930 . S
C1977 C1976 1.377 . S
C1977 C1978 1.379 . S
C1978 H1962 0.931 . S
C1978 C1972 1.383 . S
C1978 C1977 1.379 . S
H1979 C1973 0.959 . S
H1980 C1973 0.961 . S
H1981 C1973 0.960 . S
H1982 C1974 0.930 . S
H1983 C1975 0.929 . S
H1984 C1992 0.929 . S
H1985 C1994 0.930 . S
H1986 C1996 0.930 . S
H1987 C1999 0.929 . S
H1988 C2002 0.952 . S
H1989 C2004 0.960 . S
H1990 C2004 0.960 . S
H1991 C2004 0.960 . S
C1992 H1984 0.929 . S
C1992 C1993 1.377 . S
C1992 C1994 1.384 . S
C1993 C1992 1.377 . S
C1993 C1999 1.390 . S
C1994 H1985 0.930 . S
C1994 C1992 1.384 . S
C1994 C1995 1.372 . S
C1995 C1994 1.372 . S
C1995 C1996 1.400 . S
C1995 C2000 1.490 . S
C1996 H1986 0.930 . S
C1996 C1995 1.400 . S
C1996 C1999 1.386 . S
H1997 C2013 0.930 . S
H1998 C2014 0.931 . S
C1999 H1987 0.929 . S
C1999 C1993 1.390 . S
C1999 C1996 1.386 . S
C2000 C1995 1.490 . S
C2000 C2002 1.368 1_455 S
C2000 C2003 1.403 . S
H2001 C2007 0.930 . S
C2002 H1988 0.952 . S
C2002 C2000 1.368 1_655 S
C2002 C2005 1.409 . S
C2003 C2000 1.403 . S
C2003 C2004 1.524 . S
C2003 C2007 1.400 . S
C2004 H1989 0.960 . S
C2004 H1990 0.960 . S
C2004 H1991 0.960 . S
C2004 C2003 1.524 . S
C2005 C2002 1.409 . S
C2005 C2006 1.392 1_655 S
C2005 C2009 1.495 . S
C2006 C2005 1.392 1_455 S
C2006 C2007 1.385 . S
C2006 C2008 1.478 . S
C2007 H2001 0.930 . S
C2007 C2003 1.400 . S
C2007 C2006 1.385 . S
C2008 C2006 1.478 . S
C2008 C2010 1.381 1_455 S
C2008 C2014 1.383 . S
C2009 C2005 1.495 . S
C2009 H2015 0.959 . S
C2009 H2016 0.961 . S
C2009 H2017 0.960 . S
C2010 C2008 1.381 1_655 S
C2010 C2011 1.394 . S
C2010 H2018 0.930 . S
C2011 C2010 1.394 . S
C2011 C2012 1.383 . S
C2011 H2019 0.929 . S
C2012 C2011 1.383 . S
C2012 C2013 1.377 1_655 S
C2013 H1997 0.930 . S
C2013 C2012 1.377 1_455 S
C2013 C2014 1.379 . S
C2014 H1998 0.931 . S
C2014 C2008 1.383 . S
C2014 C2013 1.379 . S
H2015 C2009 0.959 . S
H2016 C2009 0.961 . S
H2017 C2009 0.960 . S
H2018 C2010 0.930 . S
H2019 C2011 0.929 . S
H2020 C2028 0.929 . S
H2021 C2030 0.930 . S
H2022 C2032 0.930 . S
H2023 C2035 0.929 . S
H2024 C2038 0.930 . S
H2025 C2040 0.960 . S
H2026 C2040 0.960 . S
H2027 C2040 0.960 . S
C2028 H2020 0.929 . S
C2028 C2029 1.377 . S
C2028 C2030 1.384 . S
C2029 C2028 1.377 . S
C2029 C2035 1.390 . S
C2030 H2021 0.930 . S
C2030 C2028 1.384 . S
C2030 C2031 1.372 . S
C2031 C2030 1.372 . S
C2031 C2032 1.400 . S
C2031 C2036 1.490 . S
C2032 H2022 0.930 . S
C2032 C2031 1.400 . S
C2032 C2035 1.386 . S
H2033 C2049 0.930 . S
H2034 C2050 0.931 . S
C2035 H2023 0.929 . S
C2035 C2029 1.390 . S
C2035 C2032 1.386 . S
C2036 C2031 1.490 . S
C2036 C2038 1.395 . S
C2036 C2039 1.403 . S
H2037 C2043 0.930 . S
C2038 H2024 0.930 . S
C2038 C2036 1.395 . S
C2038 C2041 1.403 . S
C2039 C2036 1.403 . S
C2039 C2040 1.524 . S
C2039 C2043 1.400 . S
C2040 H2025 0.960 . S
C2040 H2026 0.960 . S
C2040 H2027 0.960 . S
C2040 C2039 1.524 . S
C2041 C2038 1.403 . S
C2041 C2042 1.392 . S
C2041 C2045 1.495 . S
C2042 C2041 1.392 . S
C2042 C2043 1.385 . S
C2042 C2044 1.478 . S
C2043 H2037 0.930 . S
C2043 C2039 1.400 . S
C2043 C2042 1.385 . S
C2044 C2042 1.478 . S
C2044 C2046 1.381 . S
C2044 C2050 1.383 . S
C2045 C2041 1.495 . S
C2045 H2051 0.959 . S
C2045 H2052 0.961 . S
C2045 H2053 0.960 . S
C2046 C2044 1.381 . S
C2046 C2047 1.394 . S
C2046 H2054 0.930 . S
C2047 C2046 1.394 . S
C2047 C2048 1.383 . S
C2047 H2055 0.929 . S
C2048 C2047 1.383 . S
C2048 C2049 1.377 . S
C2049 H2033 0.930 . S
C2049 C2048 1.377 . S
C2049 C2050 1.379 . S
C2050 H2034 0.931 . S
C2050 C2044 1.383 . S
C2050 C2049 1.379 . S
H2051 C2045 0.959 . S
H2052 C2045 0.961 . S
H2053 C2045 0.960 . S
H2054 C2046 0.930 . S
H2055 C2047 0.929 . S
H2056 C2064 0.929 . S
H2057 C2066 0.930 . S
H2058 C2068 0.930 . S
H2059 C2071 0.929 . S
H2060 C2074 0.930 . S
H2061 C2076 0.960 . S
H2062 C2076 0.960 . S
H2063 C2076 0.960 . S
C2064 H2056 0.929 . S
C2064 C2065 1.377 . S
C2064 C2066 1.384 . S
C2065 C2064 1.377 . S
C2065 C2071 1.390 . S
C2066 H2057 0.930 . S
C2066 C2064 1.384 . S
C2066 C2067 1.372 . S
C2067 C2066 1.372 . S
C2067 C2068 1.400 . S
C2067 C2072 1.490 . S
C2068 H2058 0.930 . S
C2068 C2067 1.400 . S
C2068 C2071 1.386 . S
H2069 C2085 0.929 . S
H2070 C2086 0.931 . S
C2071 H2059 0.929 . S
C2071 C2065 1.390 . S
C2071 C2068 1.386 . S
C2072 C2067 1.490 . S
C2072 C2074 1.395 . S
C2072 C2075 1.403 . S
H2073 C2079 0.930 . S
C2074 H2060 0.930 . S
C2074 C2072 1.395 . S
C2074 C2077 1.403 . S
C2075 C2072 1.403 . S
C2075 C2076 1.524 . S
C2075 C2079 1.400 . S
C2076 H2061 0.960 . S
C2076 H2062 0.960 . S
C2076 H2063 0.960 . S
C2076 C2075 1.524 . S
C2077 C2074 1.403 . S
C2077 C2078 1.392 . S
C2077 C2081 1.495 . S
C2078 C2077 1.392 . S
C2078 C2079 1.385 . S
C2078 C2080 1.478 . S
C2079 H2073 0.930 . S
C2079 C2075 1.400 . S
C2079 C2078 1.385 . S
C2080 C2078 1.478 . S
C2080 C2082 1.381 1_556 S
C2080 C2086 1.383 . S
C2081 C2077 1.495 . S
C2081 H2087 0.959 . S
C2081 H2088 0.961 . S
C2081 H2089 0.960 . S
C2082 C2080 1.381 1_554 S
C2082 C2083 1.394 . S
C2082 H2090 0.930 . S
C2083 C2082 1.394 . S
C2083 C2084 1.383 . S
C2083 H2091 0.929 . S
C2084 C2083 1.383 . S
C2084 C2085 1.380 1_554 S
C2085 H2069 0.929 . S
C2085 C2084 1.380 1_556 S
C2085 C2086 1.377 . S
C2086 H2070 0.931 . S
C2086 C2080 1.383 . S
C2086 C2085 1.377 . S
H2087 C2081 0.959 . S
H2088 C2081 0.961 . S
H2089 C2081 0.960 . S
H2090 C2082 0.930 . S
H2091 C2083 0.929 . S
H2092 C2100 0.929 . S
H2093 C2102 0.930 . S
H2094 C2104 0.930 . S
H2095 C2107 0.929 . S
H2096 C2110 0.930 . S
H2097 C2112 0.960 . S
H2098 C2112 0.960 . S
H2099 C2112 0.960 . S
C2100 H2092 0.929 . S
C2100 C2101 1.377 . S
C2100 C2102 1.384 . S
C2101 C2100 1.377 . S
C2101 C2107 1.390 . S
C2102 H2093 0.930 . S
C2102 C2100 1.384 . S
C2102 C2103 1.372 . S
C2103 C2102 1.372 . S
C2103 C2104 1.400 . S
C2103 C2108 1.490 . S
C2104 H2094 0.930 . S
C2104 C2103 1.400 . S
C2104 C2107 1.386 . S
H2105 C2121 0.930 . S
H2106 C2122 0.931 . S
C2107 H2095 0.929 . S
C2107 C2101 1.390 . S
C2107 C2104 1.386 . S
C2108 C2103 1.490 . S
C2108 C2110 1.395 . S
C2108 C2111 1.403 . S
H2109 C2115 0.930 . S
C2110 H2096 0.930 . S
C2110 C2108 1.395 . S
C2110 C2113 1.403 . S
C2111 C2108 1.403 . S
C2111 C2112 1.524 . S
C2111 C2115 1.400 . S
C2112 H2097 0.960 . S
C2112 H2098 0.960 . S
C2112 H2099 0.960 . S
C2112 C2111 1.524 . S
C2113 C2110 1.403 . S
C2113 C2114 1.392 . S
C2113 C2117 1.495 . S
C2114 C2113 1.392 . S
C2114 C2115 1.385 . S
C2114 C2116 1.478 . S
C2115 H2109 0.930 . S
C2115 C2111 1.400 . S
C2115 C2114 1.385 . S
C2116 C2114 1.478 . S
C2116 C2118 1.381 . S
C2116 C2122 1.383 . S
C2117 C2113 1.495 . S
C2117 H2123 0.959 . S
C2117 H2124 0.961 . S
C2117 H2125 0.960 . S
C2118 C2116 1.381 . S
C2118 C2119 1.394 . S
C2118 H2126 0.930 . S
C2119 C2118 1.394 . S
C2119 C2120 1.383 . S
C2119 H2127 0.929 . S
C2120 C2119 1.383 . S
C2120 C2121 1.377 . S
C2121 H2105 0.930 . S
C2121 C2120 1.377 . S
C2121 C2122 1.379 . S
C2122 H2106 0.931 . S
C2122 C2116 1.383 . S
C2122 C2121 1.379 . S
H2123 C2117 0.959 . S
H2124 C2117 0.961 . S
H2125 C2117 0.960 . S
H2126 C2118 0.930 . S
H2127 C2119 0.929 . S
H2128 C2136 0.929 . S
H2129 C2138 0.930 . S
H2130 C2140 0.930 . S
H2131 C2143 0.929 . S
H2132 C2146 0.930 . S
H2133 C2148 0.960 . S
H2134 C2148 0.960 . S
H2135 C2148 0.960 . S
C2136 H2128 0.929 . S
C2136 C2137 1.377 . S
C2136 C2138 1.384 . S
C2137 C2136 1.377 . S
C2137 C2143 1.390 1_545 S
C2138 H2129 0.930 . S
C2138 C2136 1.384 . S
C2138 C2139 1.372 . S
C2139 C2138 1.372 . S
C2139 C2140 1.400 1_545 S
C2139 C2144 1.490 . S
C2140 H2130 0.930 . S
C2140 C2139 1.400 1_565 S
C2140 C2143 1.386 . S
H2141 C2157 0.930 . S
H2142 C2158 0.931 . S
C2143 H2131 0.929 . S
C2143 C2137 1.390 1_565 S
C2143 C2140 1.386 . S
C2144 C2139 1.490 . S
C2144 C2146 1.395 . S
C2144 C2147 1.403 . S
H2145 C2151 0.930 . S
C2146 H2132 0.930 . S
C2146 C2144 1.395 . S
C2146 C2149 1.403 . S
C2147 C2144 1.403 . S
C2147 C2148 1.524 . S
C2147 C2151 1.400 . S
C2148 H2133 0.960 . S
C2148 H2134 0.960 . S
C2148 H2135 0.960 . S
C2148 C2147 1.524 . S
C2149 C2146 1.403 . S
C2149 C2150 1.392 . S
C2149 C2153 1.494 . S
C2150 C2149 1.392 . S
C2150 C2151 1.385 . S
C2150 C2152 1.478 . S
C2151 H2145 0.930 . S
C2151 C2147 1.400 . S
C2151 C2150 1.385 . S
C2152 C2150 1.478 . S
C2152 C2154 1.381 . S
C2152 C2158 1.383 1_545 S
C2153 C2149 1.494 . S
C2153 H2159 0.973 1_545 S
C2153 H2160 0.939 1_545 S
C2153 H2161 0.981 . S
C2154 C2152 1.381 . S
C2154 C2155 1.394 . S
C2154 H2162 0.930 . S
C2155 C2154 1.394 . S
C2155 C2156 1.383 . S
C2155 H2163 0.929 . S
C2156 C2155 1.383 . S
C2156 C2157 1.377 1_545 S
C2157 H2141 0.930 . S
C2157 C2156 1.377 1_565 S
C2157 C2158 1.379 . S
C2158 H2142 0.931 . S
C2158 C2152 1.383 1_565 S
C2158 C2157 1.379 . S
H2159 C2153 0.973 1_565 S
H2160 C2153 0.939 1_565 S
H2161 C2153 0.981 . S
H2162 C2154 0.930 . S
H2163 C2155 0.929 . S
H2164 C2172 0.929 . S
H2165 C2174 0.930 . S
H2166 C2176 0.930 . S
H2167 C2179 0.929 . S
H2168 C2182 0.930 . S
H2169 C2184 0.960 . S
H2170 C2184 0.960 . S
H2171 C2184 0.960 . S
C2172 H2164 0.929 . S
C2172 C2173 1.377 . S
C2172 C2174 1.384 . S
C2173 C2172 1.377 . S
C2173 C2179 1.390 . S
C2174 H2165 0.930 . S
C2174 C2172 1.384 . S
C2174 C2175 1.372 . S
C2175 C2174 1.372 . S
C2175 C2176 1.400 . S
C2175 C2180 1.490 . S
C2176 H2166 0.930 . S
C2176 C2175 1.400 . S
C2176 C2179 1.386 . S
H2177 C2193 0.930 . S
H2178 C2194 0.931 . S
C2179 H2167 0.929 . S
C2179 C2173 1.390 . S
C2179 C2176 1.386 . S
C2180 C2175 1.490 . S
C2180 C2182 1.395 . S
C2180 C2183 1.403 . S
H2181 C2187 0.930 . S
C2182 H2168 0.930 . S
C2182 C2180 1.395 . S
C2182 C2185 1.403 . S
C2183 C2180 1.403 . S
C2183 C2184 1.524 . S
C2183 C2187 1.400 . S
C2184 H2169 0.960 . S
C2184 H2170 0.960 . S
C2184 H2171 0.960 . S
C2184 C2183 1.524 . S
C2185 C2182 1.403 . S
C2185 C2186 1.392 . S
C2185 C2189 1.495 . S
C2186 C2185 1.392 . S
C2186 C2187 1.385 . S
C2186 C2188 1.478 . S
C2187 H2181 0.930 . S
C2187 C2183 1.400 . S
C2187 C2186 1.385 . S
C2188 C2186 1.478 . S
C2188 C2190 1.381 . S
C2188 C2194 1.383 . S
C2189 C2185 1.495 . S
C2189 H2195 0.959 . S
C2189 H2196 0.961 . S
C2189 H2197 0.960 . S
C2190 C2188 1.381 . S
C2190 C2191 1.394 . S
C2190 H2198 0.930 . S
C2191 C2190 1.394 . S
C2191 C2192 1.383 . S
C2191 H2199 0.929 . S
C2192 C2191 1.383 . S
C2192 C2193 1.377 . S
C2193 H2177 0.930 . S
C2193 C2192 1.377 . S
C2193 C2194 1.379 . S
C2194 H2178 0.931 . S
C2194 C2188 1.383 . S
C2194 C2193 1.379 . S
H2195 C2189 0.959 . S
H2196 C2189 0.961 . S
H2197 C2189 0.960 . S
H2198 C2190 0.930 . S
H2199 C2191 0.929 . S
H2200 C2208 0.929 . S
H2201 C2210 0.930 . S
H2202 C2212 0.930 . S
H2203 C2215 0.929 . S
H2204 C2218 0.930 . S
H2205 C2220 0.960 . S
H2206 C2220 0.960 1_565 S
H2207 C2220 0.960 . S
C2208 H2200 0.929 . S
C2208 C2209 1.377 . S
C2208 C2210 1.384 . S
C2209 C2208 1.377 . S
C2209 C2215 1.390 . S
C2210 H2201 0.930 . S
C2210 C2208 1.384 . S
C2210 C2211 1.372 . S
C2211 C2210 1.372 . S
C2211 C2212 1.400 . S
C2211 C2216 1.490 . S
C2212 H2202 0.930 . S
C2212 C2211 1.400 . S
C2212 C2215 1.386 . S
H2213 C2229 0.930 . S
H2214 C2230 0.931 . S
C2215 H2203 0.929 . S
C2215 C2209 1.390 . S
C2215 C2212 1.386 . S
C2216 C2211 1.490 . S
C2216 C2218 1.395 . S
C2216 C2219 1.403 . S
H2217 C2223 0.930 . S
C2218 H2204 0.930 . S
C2218 C2216 1.395 . S
C2218 C2221 1.403 . S
C2219 C2216 1.403 . S
C2219 C2220 1.524 . S
C2219 C2223 1.400 . S
C2220 H2205 0.960 . S
C2220 H2206 0.960 1_545 S
C2220 H2207 0.960 . S
C2220 C2219 1.524 . S
C2221 C2218 1.403 . S
C2221 C2222 1.392 . S
C2221 C2225 1.495 . S
C2222 C2221 1.392 . S
C2222 C2223 1.385 . S
C2222 C2224 1.478 . S
C2223 H2217 0.930 . S
C2223 C2219 1.400 . S
C2223 C2222 1.385 . S
C2224 C2222 1.478 . S
C2224 C2226 1.381 . S
C2224 C2230 1.383 . S
C2225 C2221 1.495 . S
C2225 H2231 0.959 . S
C2225 H2232 0.961 . S
C2225 H2233 0.960 . S
C2226 C2224 1.381 . S
C2226 C2227 1.394 . S
C2226 H2234 0.930 . S
C2227 C2226 1.394 . S
C2227 C2228 1.383 . S
C2227 H2235 0.929 . S
C2228 C2227 1.383 . S
C2228 C2229 1.377 . S
C2229 H2213 0.930 . S
C2229 C2228 1.377 . S
C2229 C2230 1.379 . S
C2230 H2214 0.931 . S
C2230 C2224 1.383 . S
C2230 C2229 1.379 . S
H2231 C2225 0.959 . S
H2232 C2225 0.961 . S
H2233 C2225 0.960 . S
H2234 C2226 0.930 . S
H2235 C2227 0.929 . S
H2236 C2244 0.929 . S
H2237 C2246 0.930 . S
H2238 C2248 0.930 . S
H2239 C2251 0.929 . S
H2240 C2254 0.930 . S
H2241 C2256 0.960 . S
H2242 C2256 0.960 . S
H2243 C2256 0.960 . S
C2244 H2236 0.929 . S
C2244 C2245 1.377 . S
C2244 C2246 1.384 . S
C2245 C2244 1.377 . S
C2245 C2251 1.390 . S
C2246 H2237 0.930 . S
C2246 C2244 1.384 . S
C2246 C2247 1.372 . S
C2247 C2246 1.372 . S
C2247 C2248 1.400 . S
C2247 C2252 1.490 . S
C2248 H2238 0.930 . S
C2248 C2247 1.400 . S
C2248 C2251 1.386 . S
H2249 C2265 0.930 . S
H2250 C2266 0.931 . S
C2251 H2239 0.929 . S
C2251 C2245 1.390 . S
C2251 C2248 1.386 . S
C2252 C2247 1.490 . S
C2252 C2254 1.395 . S
C2252 C2255 1.403 . S
H2253 C2259 0.930 . S
C2254 H2240 0.930 . S
C2254 C2252 1.395 . S
C2254 C2257 1.403 . S
C2255 C2252 1.403 . S
C2255 C2256 1.524 . S
C2255 C2259 1.400 . S
C2256 H2241 0.960 . S
C2256 H2242 0.960 . S
C2256 H2243 0.960 . S
C2256 C2255 1.524 . S
C2257 C2254 1.403 . S
C2257 C2258 1.392 . S
C2257 C2261 1.495 . S
C2258 C2257 1.392 . S
C2258 C2259 1.385 . S
C2258 C2260 1.478 . S
C2259 H2253 0.930 . S
C2259 C2255 1.400 . S
C2259 C2258 1.385 . S
C2260 C2258 1.478 . S
C2260 C2262 1.381 . S
C2260 C2266 1.383 . S
C2261 C2257 1.495 . S
C2261 H2267 0.959 . S
C2261 H2268 0.961 . S
C2261 H2269 0.960 . S
C2262 C2260 1.381 . S
C2262 C2263 1.394 . S
C2262 H2270 0.930 . S
C2263 C2262 1.394 . S
C2263 C2264 1.383 . S
C2263 H2271 0.929 . S
C2264 C2263 1.383 . S
C2264 C2265 1.377 . S
C2265 H2249 0.930 . S
C2265 C2264 1.377 . S
C2265 C2266 1.379 . S
C2266 H2250 0.931 . S
C2266 C2260 1.383 . S
C2266 C2265 1.379 . S
H2267 C2261 0.959 . S
H2268 C2261 0.961 . S
H2269 C2261 0.960 . S
H2270 C2262 0.930 . S
H2271 C2263 0.929 . S
H2272 C2280 0.929 . S
H2273 C2282 0.930 . S
H2274 C2284 0.930 . S
H2275 C2287 0.929 . S
H2276 C2290 0.930 . S
H2277 C2292 0.960 . S
H2278 C2292 0.960 . S
H2279 C2292 0.960 1_565 S
C2280 H2272 0.929 . S
C2280 C2281 1.377 1_545 S
C2280 C2282 1.384 . S
C2281 C2280 1.377 1_565 S
C2281 C2287 1.390 . S
C2282 H2273 0.930 . S
C2282 C2280 1.384 . S
C2282 C2283 1.372 . S
C2283 C2282 1.372 . S
C2283 C2284 1.400 1_545 S
C2283 C2288 1.490 . S
C2284 H2274 0.930 . S
C2284 C2283 1.400 1_565 S
C2284 C2287 1.386 . S
H2285 C2301 0.930 . S
H2286 C2302 0.931 . S
C2287 H2275 0.929 . S
C2287 C2281 1.390 . S
C2287 C2284 1.386 . S
C2288 C2283 1.490 . S
C2288 C2290 1.395 . S
C2288 C2291 1.403 . S
H2289 C2295 0.930 . S
C2290 H2276 0.930 . S
C2290 C2288 1.395 . S
C2290 C2293 1.403 . S
C2291 C2288 1.403 . S
C2291 C2292 1.524 . S
C2291 C2295 1.400 . S
C2292 H2277 0.960 . S
C2292 H2278 0.960 . S
C2292 H2279 0.960 1_545 S
C2292 C2291 1.524 . S
C2293 C2290 1.403 . S
C2293 C2294 1.392 . S
C2293 C2297 1.495 . S
C2294 C2293 1.392 . S
C2294 C2295 1.385 . S
C2294 C2296 1.478 . S
C2295 H2289 0.930 . S
C2295 C2291 1.400 . S
C2295 C2294 1.385 . S
C2296 C2294 1.478 . S
C2296 C2298 1.381 . S
C2296 C2302 1.383 1_545 S
C2297 C2293 1.495 . S
C2297 H2303 0.959 . S
C2297 H2304 0.961 1_545 S
C2297 H2305 0.960 . S
C2298 C2296 1.381 . S
C2298 C2299 1.394 . S
C2298 H2306 0.930 . S
C2299 C2298 1.394 . S
C2299 C2300 1.383 . S
C2299 H2307 0.929 . S
C2300 C2299 1.383 . S
C2300 C2301 1.377 1_545 S
C2301 H2285 0.930 . S
C2301 C2300 1.377 1_565 S
C2301 C2302 1.379 . S
C2302 H2286 0.931 . S
C2302 C2296 1.383 1_565 S
C2302 C2301 1.379 . S
H2303 C2297 0.959 . S
H2304 C2297 0.961 1_565 S
H2305 C2297 0.960 . S
H2306 C2298 0.930 . S
H2307 C2299 0.929 . S
H2308 C2316 0.929 . S
H2309 C2318 0.930 . S
H2310 C2320 0.930 . S
H2311 C2323 0.929 . S
H2312 C2326 0.930 . S
H2313 C2328 0.960 . S
H2314 C2328 0.960 . S
H2315 C2328 0.960 . S
C2316 H2308 0.929 . S
C2316 C2317 1.377 . S
C2316 C2318 1.384 . S
C2317 C2316 1.377 . S
C2317 C2323 1.390 . S
C2318 H2309 0.930 . S
C2318 C2316 1.384 . S
C2318 C2319 1.372 . S
C2319 C2318 1.372 . S
C2319 C2320 1.400 . S
C2319 C2324 1.490 . S
C2320 H2310 0.930 . S
C2320 C2319 1.400 . S
C2320 C2323 1.386 . S
H2321 C2337 0.930 . S
H2322 C2338 0.931 . S
C2323 H2311 0.929 . S
C2323 C2317 1.390 . S
C2323 C2320 1.386 . S
C2324 C2319 1.490 . S
C2324 C2326 1.395 . S
C2324 C2327 1.403 . S
H2325 C2331 0.930 . S
C2326 H2312 0.930 . S
C2326 C2324 1.395 . S
C2326 C2329 1.403 . S
C2327 C2324 1.403 . S
C2327 C2328 1.524 . S
C2327 C2331 1.400 . S
C2328 H2313 0.960 . S
C2328 H2314 0.960 . S
C2328 H2315 0.960 . S
C2328 C2327 1.524 . S
C2329 C2326 1.403 . S
C2329 C2330 1.392 . S
C2329 C2333 1.495 . S
C2330 C2329 1.392 . S
C2330 C2331 1.385 . S
C2330 C2332 1.478 . S
C2331 H2325 0.930 . S
C2331 C2327 1.400 . S
C2331 C2330 1.385 . S
C2332 C2330 1.478 . S
C2332 C2334 1.381 . S
C2332 C2338 1.383 . S
C2333 C2329 1.495 . S
C2333 H2339 0.959 . S
C2333 H2340 0.961 . S
C2333 H2341 0.960 . S
C2334 C2332 1.381 . S
C2334 C2335 1.394 . S
C2334 H2342 0.930 . S
C2335 C2334 1.394 . S
C2335 C2336 1.383 . S
C2335 H2343 0.929 . S
C2336 C2335 1.383 . S
C2336 C2337 1.377 . S
C2337 H2321 0.930 . S
C2337 C2336 1.377 . S
C2337 C2338 1.379 . S
C2338 H2322 0.931 . S
C2338 C2332 1.383 . S
C2338 C2337 1.379 . S
H2339 C2333 0.959 . S
H2340 C2333 0.961 . S
H2341 C2333 0.960 . S
H2342 C2334 0.930 . S
H2343 C2335 0.929 . S
H2344 C2352 0.927 . S
H2345 C2354 0.930 1_565 S
H2346 C2356 0.930 . S
H2347 C2359 0.929 . S
H2348 C2362 0.930 . S
H2349 C2364 0.960 . S
H2350 C2364 0.960 1_565 S
H2351 C2364 0.960 . S
C2352 H2344 0.927 . S
C2352 C2353 1.377 . S
C2352 C2354 1.384 . S
C2353 C2352 1.377 . S
C2353 C2359 1.390 . S
C2354 H2345 0.930 1_545 S
C2354 C2352 1.384 . S
C2354 C2355 1.372 . S
C2355 C2354 1.372 . S
C2355 C2356 1.400 . S
C2355 C2360 1.490 . S
C2356 H2346 0.930 . S
C2356 C2355 1.400 . S
C2356 C2359 1.386 . S
H2357 C2373 0.930 . S
H2358 C2374 0.931 . S
C2359 H2347 0.929 . S
C2359 C2353 1.390 . S
C2359 C2356 1.386 . S
C2360 C2355 1.490 . S
C2360 C2362 1.395 . S
C2360 C2363 1.403 . S
H2361 C2367 0.930 . S
C2362 H2348 0.930 . S
C2362 C2360 1.395 . S
C2362 C2365 1.403 . S
C2363 C2360 1.403 . S
C2363 C2364 1.524 . S
C2363 C2367 1.400 . S
C2364 H2349 0.960 . S
C2364 H2350 0.960 1_545 S
C2364 H2351 0.960 . S
C2364 C2363 1.524 . S
C2365 C2362 1.403 . S
C2365 C2366 1.392 . S
C2365 C2369 1.495 . S
C2366 C2365 1.392 . S
C2366 C2367 1.385 . S
C2366 C2368 1.478 . S
C2367 H2361 0.930 . S
C2367 C2363 1.400 . S
C2367 C2366 1.385 . S
C2368 C2366 1.478 . S
C2368 C2370 1.358 1_545 S
C2368 C2374 1.383 . S
C2369 C2365 1.495 . S
C2369 H2375 0.959 . S
C2369 H2376 0.961 . S
C2369 H2377 0.960 . S
C2370 C2368 1.358 1_565 S
C2370 C2371 1.397 . S
C2370 H2378 0.953 . S
C2371 C2370 1.397 . S
C2371 C2372 1.383 1_565 S
C2371 H2379 0.929 . S
C2372 C2371 1.383 1_545 S
C2372 C2373 1.377 . S
C2373 H2357 0.930 . S
C2373 C2372 1.377 . S
C2373 C2374 1.379 . S
C2374 H2358 0.931 . S
C2374 C2368 1.383 . S
C2374 C2373 1.379 . S
H2375 C2369 0.959 . S
H2376 C2369 0.961 . S
H2377 C2369 0.960 . S
H2378 C2370 0.953 . S
H2379 C2371 0.929 . S
H2380 C2388 0.929 . S
H2381 C2390 0.930 . S
H2382 C2392 0.930 . S
H2383 C2395 0.929 . S
H2384 C2398 0.930 . S
H2385 C2400 0.960 . S
H2386 C2400 0.960 . S
H2387 C2400 0.960 . S
C2388 H2380 0.929 . S
C2388 C2389 1.377 . S
C2388 C2390 1.384 . S
C2389 C2388 1.377 . S
C2389 C2395 1.390 . S
C2390 H2381 0.930 . S
C2390 C2388 1.384 . S
C2390 C2391 1.372 . S
C2391 C2390 1.372 . S
C2391 C2392 1.400 . S
C2391 C2396 1.490 . S
C2392 H2382 0.930 . S
C2392 C2391 1.400 . S
C2392 C2395 1.386 . S
H2393 C2409 0.930 . S
H2394 C2410 0.931 . S
C2395 H2383 0.929 . S
C2395 C2389 1.390 . S
C2395 C2392 1.386 . S
C2396 C2391 1.490 . S
C2396 C2398 1.395 . S
C2396 C2399 1.403 . S
H2397 C2403 0.930 . S
C2398 H2384 0.930 . S
C2398 C2396 1.395 . S
C2398 C2401 1.403 . S
C2399 C2396 1.403 . S
C2399 C2400 1.524 . S
C2399 C2403 1.400 . S
C2400 H2385 0.960 . S
C2400 H2386 0.960 . S
C2400 H2387 0.960 . S
C2400 C2399 1.524 . S
C2401 C2398 1.403 . S
C2401 C2402 1.392 . S
C2401 C2405 1.495 . S
C2402 C2401 1.392 . S
C2402 C2403 1.385 . S
C2402 C2404 1.478 . S
C2403 H2397 0.930 . S
C2403 C2399 1.400 . S
C2403 C2402 1.385 . S
C2404 C2402 1.478 . S
C2404 C2406 1.381 . S
C2404 C2410 1.383 . S
C2405 C2401 1.495 . S
C2405 H2411 0.959 . S
C2405 H2412 0.961 . S
C2405 H2413 0.960 . S
C2406 C2404 1.381 . S
C2406 C2407 1.394 . S
C2406 H2414 0.930 . S
C2407 C2406 1.394 . S
C2407 C2408 1.383 . S
C2407 H2415 0.929 . S
C2408 C2407 1.383 . S
C2408 C2409 1.377 . S
C2409 H2393 0.930 . S
C2409 C2408 1.377 . S
C2409 C2410 1.379 . S
C2410 H2394 0.931 . S
C2410 C2404 1.383 . S
C2410 C2409 1.379 . S
H2411 C2405 0.959 . S
H2412 C2405 0.961 . S
H2413 C2405 0.960 . S
H2414 C2406 0.930 . S
H2415 C2407 0.929 . S
H2416 C2424 0.929 . S
H2417 C2426 0.930 . S
H2418 C2428 0.930 . S
H2419 C2431 0.929 . S
H2420 C2434 0.930 1_556 S
H2421 C2436 0.960 . S
H2422 C2436 0.960 . S
H2423 C2436 0.960 . S
C2424 H2416 0.929 . S
C2424 C2425 1.377 . S
C2424 C2426 1.384 . S
C2425 C2424 1.377 . S
C2425 C2431 1.390 . S
C2426 H2417 0.930 . S
C2426 C2424 1.384 . S
C2426 C2427 1.372 . S
C2427 C2426 1.372 . S
C2427 C2428 1.400 . S
C2427 C2432 1.490 . S
C2428 H2418 0.930 . S
C2428 C2427 1.400 . S
C2428 C2431 1.386 . S
H2429 C2445 0.930 . S
H2430 C2446 0.931 . S
C2431 H2419 0.929 . S
C2431 C2425 1.390 . S
C2431 C2428 1.386 . S
C2432 C2427 1.490 . S
C2432 C2434 1.395 . S
C2432 C2435 1.403 . S
H2433 C2439 0.930 . S
C2434 H2420 0.930 1_554 S
C2434 C2432 1.395 . S
C2434 C2437 1.403 1_554 S
C2435 C2432 1.403 . S
C2435 C2436 1.524 . S
C2435 C2439 1.400 . S
C2436 H2421 0.960 . S
C2436 H2422 0.960 . S
C2436 H2423 0.960 . S
C2436 C2435 1.524 . S
C2437 C2434 1.403 1_556 S
C2437 C2438 1.392 1_556 S
C2437 C2441 1.495 . S
C2438 C2437 1.392 1_554 S
C2438 C2439 1.385 . S
C2438 C2440 1.478 1_554 S
C2439 H2433 0.930 . S
C2439 C2435 1.400 . S
C2439 C2438 1.385 . S
C2440 C2438 1.478 1_556 S
C2440 C2442 1.381 . S
C2440 C2446 1.383 1_556 S
C2441 C2437 1.495 . S
C2441 H2447 0.959 . S
C2441 H2448 0.961 . S
C2441 H2449 0.960 . S
C2442 C2440 1.381 . S
C2442 C2443 1.394 . S
C2442 H2450 0.930 . S
C2443 C2442 1.394 . S
C2443 C2444 1.383 . S
C2443 H2451 0.929 . S
C2444 C2443 1.383 . S
C2444 C2445 1.377 . S
C2445 H2429 0.930 . S
C2445 C2444 1.377 . S
C2445 C2446 1.379 1_556 S
C2446 H2430 0.931 . S
C2446 C2440 1.383 1_554 S
C2446 C2445 1.379 1_554 S
H2447 C2441 0.959 . S
H2448 C2441 0.961 . S
H2449 C2441 0.960 . S
H2450 C2442 0.930 . S
H2451 C2443 0.929 . S
H2452 C2460 0.929 . S
H2453 C2462 0.930 . S
H2454 C2464 0.930 . S
H2455 C2467 0.929 . S
H2456 C2470 0.930 . S
H2457 C2472 0.960 . S
H2458 C2472 0.960 1_556 S
H2459 C2472 0.960 . S
C2460 H2452 0.929 . S
C2460 C2461 1.377 . S
C2460 C2462 1.384 . S
C2461 C2460 1.377 . S
C2461 C2467 1.390 . S
C2462 H2453 0.930 . S
C2462 C2460 1.384 . S
C2462 C2463 1.372 . S
C2463 C2462 1.372 . S
C2463 C2464 1.400 . S
C2463 C2468 1.490 . S
C2464 H2454 0.930 . S
C2464 C2463 1.400 . S
C2464 C2467 1.386 . S
H2465 C2481 0.930 . S
H2466 C2482 0.931 . S
C2467 H2455 0.929 . S
C2467 C2461 1.390 . S
C2467 C2464 1.386 . S
C2468 C2463 1.490 . S
C2468 C2470 1.395 . S
C2468 C2471 1.403 . S
H2469 C2475 0.930 . S
C2470 H2456 0.930 . S
C2470 C2468 1.395 . S
C2470 C2473 1.403 . S
C2471 C2468 1.403 . S
C2471 C2472 1.524 . S
C2471 C2475 1.400 . S
C2472 H2457 0.960 . S
C2472 H2458 0.960 1_554 S
C2472 H2459 0.960 . S
C2472 C2471 1.524 . S
C2473 C2470 1.403 . S
C2473 C2474 1.392 . S
C2473 C2477 1.495 . S
C2474 C2473 1.392 . S
C2474 C2475 1.385 . S
C2474 C2476 1.478 . S
C2475 H2469 0.930 . S
C2475 C2471 1.400 . S
C2475 C2474 1.385 . S
C2476 C2474 1.478 . S
C2476 C2478 1.381 . S
C2476 C2482 1.383 . S
C2477 C2473 1.495 . S
C2477 H2483 0.959 . S
C2477 H2484 0.961 . S
C2477 H2485 0.960 . S
C2478 C2476 1.381 . S
C2478 C2479 1.394 . S
C2478 H2486 0.930 . S
C2479 C2478 1.394 . S
C2479 C2480 1.383 . S
C2479 H2487 0.929 . S
C2480 C2479 1.383 . S
C2480 C2481 1.377 . S
C2481 H2465 0.930 . S
C2481 C2480 1.377 . S
C2481 C2482 1.379 . S
C2482 H2466 0.931 . S
C2482 C2476 1.383 . S
C2482 C2481 1.379 . S
H2483 C2477 0.959 . S
H2484 C2477 0.961 . S
H2485 C2477 0.960 . S
H2486 C2478 0.930 . S
H2487 C2479 0.929 . S
H2488 C2496 0.929 . S
H2489 C2498 0.930 . S
H2490 C2500 0.930 . S
H2491 C2503 0.929 . S
H2492 C2506 0.930 . S
H2493 C2508 0.960 . S
H2494 C2508 0.960 . S
H2495 C2508 0.960 . S
C2496 H2488 0.929 . S
C2496 C2497 1.377 . S
C2496 C2498 1.384 . S
C2497 C2496 1.377 . S
C2497 C2503 1.390 . S
C2498 H2489 0.930 . S
C2498 C2496 1.384 . S
C2498 C2499 1.372 . S
C2499 C2498 1.372 . S
C2499 C2500 1.400 . S
C2499 C2504 1.490 . S
C2500 H2490 0.930 . S
C2500 C2499 1.400 . S
C2500 C2503 1.386 . S
H2501 C2517 0.930 . S
H2502 C2518 0.931 . S
C2503 H2491 0.929 . S
C2503 C2497 1.390 . S
C2503 C2500 1.386 . S
C2504 C2499 1.490 . S
C2504 C2506 1.395 . S
C2504 C2507 1.403 . S
H2505 C2511 0.930 . S
C2506 H2492 0.930 . S
C2506 C2504 1.395 . S
C2506 C2509 1.403 . S
C2507 C2504 1.403 . S
C2507 C2508 1.524 . S
C2507 C2511 1.400 . S
C2508 H2493 0.960 . S
C2508 H2494 0.960 . S
C2508 H2495 0.960 . S
C2508 C2507 1.524 . S
C2509 C2506 1.403 . S
C2509 C2510 1.392 . S
C2509 C2513 1.495 . S
C2510 C2509 1.392 . S
C2510 C2511 1.385 . S
C2510 C2512 1.478 . S
C2511 H2505 0.930 . S
C2511 C2507 1.400 . S
C2511 C2510 1.385 . S
C2512 C2510 1.478 . S
C2512 C2514 1.381 . S
C2512 C2518 1.383 . S
C2513 C2509 1.495 . S
C2513 H2519 0.959 . S
C2513 H2520 0.961 . S
C2513 H2521 0.960 . S
C2514 C2512 1.381 . S
C2514 C2515 1.394 . S
C2514 H2522 0.930 . S
C2515 C2514 1.394 . S
C2515 C2516 1.383 . S
C2515 H2523 0.929 . S
C2516 C2515 1.383 . S
C2516 C2517 1.377 . S
C2517 H2501 0.930 . S
C2517 C2516 1.377 . S
C2517 C2518 1.379 . S
C2518 H2502 0.931 . S
C2518 C2512 1.383 . S
C2518 C2517 1.379 . S
H2519 C2513 0.959 . S
H2520 C2513 0.961 . S
H2521 C2513 0.960 . S
H2522 C2514 0.930 . S
H2523 C2515 0.929 . S
H2524 C2532 0.929 . S
H2525 C2534 0.930 . S
H2526 C2536 0.930 . S
H2527 C2539 0.929 . S
H2528 C2542 0.930 . S
H2529 C2544 0.960 . S
H2530 C2544 0.960 . S
H2531 C2544 0.960 . S
C2532 H2524 0.929 . S
C2532 C2533 1.377 . S
C2532 C2534 1.384 . S
C2533 C2532 1.377 . S
C2533 C2539 1.390 . S
C2534 H2525 0.930 . S
C2534 C2532 1.384 . S
C2534 C2535 1.372 . S
C2535 C2534 1.372 . S
C2535 C2536 1.400 . S
C2535 C2540 1.490 . S
C2536 H2526 0.930 . S
C2536 C2535 1.400 . S
C2536 C2539 1.386 . S
H2537 C2553 0.930 . S
H2538 C2554 0.931 . S
C2539 H2527 0.929 . S
C2539 C2533 1.390 . S
C2539 C2536 1.386 . S
C2540 C2535 1.490 . S
C2540 C2542 1.395 . S
C2540 C2543 1.403 . S
H2541 C2547 0.930 . S
C2542 H2528 0.930 . S
C2542 C2540 1.395 . S
C2542 C2545 1.403 . S
C2543 C2540 1.403 . S
C2543 C2544 1.524 . S
C2543 C2547 1.400 . S
C2544 H2529 0.960 . S
C2544 H2530 0.960 . S
C2544 H2531 0.960 . S
C2544 C2543 1.524 . S
C2545 C2542 1.403 . S
C2545 C2546 1.392 . S
C2545 C2549 1.495 . S
C2546 C2545 1.392 . S
C2546 C2547 1.385 . S
C2546 C2548 1.478 . S
C2547 H2541 0.930 . S
C2547 C2543 1.400 . S
C2547 C2546 1.385 . S
C2548 C2546 1.478 . S
C2548 C2550 1.381 . S
C2548 C2554 1.383 . S
C2549 C2545 1.495 . S
C2549 H2555 0.959 . S
C2549 H2556 0.961 . S
C2549 H2557 0.960 . S
C2550 C2548 1.381 . S
C2550 C2551 1.394 . S
C2550 H2558 0.930 . S
C2551 C2550 1.394 . S
C2551 C2552 1.383 . S
C2551 H2559 0.929 . S
C2552 C2551 1.383 . S
C2552 C2553 1.377 . S
C2553 H2537 0.930 . S
C2553 C2552 1.377 . S
C2553 C2554 1.379 . S
C2554 H2538 0.931 . S
C2554 C2548 1.383 . S
C2554 C2553 1.379 . S
H2555 C2549 0.959 . S
H2556 C2549 0.961 . S
H2557 C2549 0.960 . S
H2558 C2550 0.930 . S
H2559 C2551 0.929 . S
H2560 C2568 0.929 . S
H2561 C2570 0.930 . S
H2562 C2572 0.930 . S
H2563 C2575 0.929 . S
H2564 C2578 0.930 . S
H2565 C2580 0.960 . S
H2566 C2580 0.960 . S
H2567 C2580 0.960 . S
C2568 H2560 0.929 . S
C2568 C2569 1.377 . S
C2568 C2570 1.384 . S
C2569 C2568 1.377 . S
C2569 C2575 1.390 . S
C2570 H2561 0.930 . S
C2570 C2568 1.384 . S
C2570 C2571 1.372 . S
C2571 C2570 1.372 . S
C2571 C2572 1.400 . S
C2571 C2576 1.490 . S
C2572 H2562 0.930 . S
C2572 C2571 1.400 . S
C2572 C2575 1.386 . S
H2573 C2589 0.930 . S
H2574 C2590 0.931 . S
C2575 H2563 0.929 . S
C2575 C2569 1.390 . S
C2575 C2572 1.386 . S
C2576 C2571 1.490 . S
C2576 C2578 1.395 . S
C2576 C2579 1.403 . S
H2577 C2583 0.930 . S
C2578 H2564 0.930 . S
C2578 C2576 1.395 . S
C2578 C2581 1.403 . S
C2579 C2576 1.403 . S
C2579 C2580 1.524 . S
C2579 C2583 1.400 . S
C2580 H2565 0.960 . S
C2580 H2566 0.960 . S
C2580 H2567 0.960 . S
C2580 C2579 1.524 . S
C2581 C2578 1.403 . S
C2581 C2582 1.392 . S
C2581 C2585 1.495 . S
C2582 C2581 1.392 . S
C2582 C2583 1.385 . S
C2582 C2584 1.478 . S
C2583 H2577 0.930 . S
C2583 C2579 1.400 . S
C2583 C2582 1.385 . S
C2584 C2582 1.478 . S
C2584 C2586 1.381 . S
C2584 C2590 1.383 . S
C2585 C2581 1.495 . S
C2585 H2591 0.959 . S
C2585 H2592 0.961 . S
C2585 H2593 0.960 . S
C2586 C2584 1.381 . S
C2586 C2587 1.394 . S
C2586 H2594 0.930 . S
C2587 C2586 1.394 . S
C2587 C2588 1.383 . S
C2587 H2595 0.929 . S
C2588 C2587 1.383 . S
C2588 C2589 1.377 . S
C2589 H2573 0.930 . S
C2589 C2588 1.377 . S
C2589 C2590 1.379 . S
C2590 H2574 0.931 . S
C2590 C2584 1.383 . S
C2590 C2589 1.379 . S
H2591 C2585 0.959 . S
H2592 C2585 0.961 . S
H2593 C2585 0.960 . S
H2594 C2586 0.930 . S
H2595 C2587 0.929 . S
H2596 C2604 0.929 . S
H2597 C2606 0.930 . S
H2598 C2608 0.930 . S
H2599 C2611 0.929 . S
H2600 C2614 0.930 . S
H2601 C2616 0.960 . S
H2602 C2616 0.960 . S
H2603 C2616 0.960 . S
C2604 H2596 0.929 . S
C2604 C2605 1.377 . S
C2604 C2606 1.384 . S
C2605 C2604 1.377 . S
C2605 C2611 1.390 . S
C2606 H2597 0.930 . S
C2606 C2604 1.384 . S
C2606 C2607 1.372 . S
C2607 C2606 1.372 . S
C2607 C2608 1.400 . S
C2607 C2612 1.490 . S
C2608 H2598 0.930 . S
C2608 C2607 1.400 . S
C2608 C2611 1.386 . S
H2609 C2625 0.930 . S
H2610 C2626 0.931 . S
C2611 H2599 0.929 . S
C2611 C2605 1.390 . S
C2611 C2608 1.386 . S
C2612 C2607 1.490 . S
C2612 C2614 1.395 . S
C2612 C2615 1.403 . S
H2613 C2619 0.930 . S
C2614 H2600 0.930 . S
C2614 C2612 1.395 . S
C2614 C2617 1.403 . S
C2615 C2612 1.403 . S
C2615 C2616 1.524 . S
C2615 C2619 1.400 . S
C2616 H2601 0.960 . S
C2616 H2602 0.960 . S
C2616 H2603 0.960 . S
C2616 C2615 1.524 . S
C2617 C2614 1.403 . S
C2617 C2618 1.392 . S
C2617 C2621 1.495 . S
C2618 C2617 1.392 . S
C2618 C2619 1.385 . S
C2618 C2620 1.478 . S
C2619 H2613 0.930 . S
C2619 C2615 1.400 . S
C2619 C2618 1.385 . S
C2620 C2618 1.478 . S
C2620 C2622 1.381 . S
C2620 C2626 1.383 . S
C2621 C2617 1.495 . S
C2621 H2627 0.959 . S
C2621 H2628 0.961 . S
C2621 H2629 0.960 . S
C2622 C2620 1.381 . S
C2622 C2623 1.394 . S
C2622 H2630 0.930 . S
C2623 C2622 1.394 . S
C2623 C2624 1.383 . S
C2623 H2631 0.929 . S
C2624 C2623 1.383 . S
C2624 C2625 1.377 . S
C2625 H2609 0.930 . S
C2625 C2624 1.377 . S
C2625 C2626 1.379 . S
C2626 H2610 0.931 . S
C2626 C2620 1.383 . S
C2626 C2625 1.379 . S
H2627 C2621 0.959 . S
H2628 C2621 0.961 . S
H2629 C2621 0.960 . S
H2630 C2622 0.930 . S
H2631 C2623 0.929 . S
H2632 C2640 0.929 . S
H2633 C2642 0.930 . S
H2634 C2644 0.930 . S
H2635 C2647 0.929 . S
H2636 C2650 0.930 . S
H2637 C2652 0.960 . S
H2638 C2652 0.960 . S
H2639 C2652 0.960 . S
C2640 H2632 0.929 . S
C2640 C2641 1.377 . S
C2640 C2642 1.384 . S
C2641 C2640 1.377 . S
C2641 C2647 1.390 . S
C2642 H2633 0.930 . S
C2642 C2640 1.384 . S
C2642 C2643 1.372 . S
C2643 C2642 1.372 . S
C2643 C2644 1.400 . S
C2643 C2648 1.490 . S
C2644 H2634 0.930 . S
C2644 C2643 1.400 . S
C2644 C2647 1.386 . S
H2645 C2661 0.930 . S
H2646 C2662 0.931 . S
C2647 H2635 0.929 . S
C2647 C2641 1.390 . S
C2647 C2644 1.386 . S
C2648 C2643 1.490 . S
C2648 C2650 1.395 . S
C2648 C2651 1.403 . S
H2649 C2655 0.930 . S
C2650 H2636 0.930 . S
C2650 C2648 1.395 . S
C2650 C2653 1.403 . S
C2651 C2648 1.403 . S
C2651 C2652 1.524 . S
C2651 C2655 1.400 . S
C2652 H2637 0.960 . S
C2652 H2638 0.960 . S
C2652 H2639 0.960 . S
C2652 C2651 1.524 . S
C2653 C2650 1.403 . S
C2653 C2654 1.392 . S
C2653 C2657 1.495 . S
C2654 C2653 1.392 . S
C2654 C2655 1.385 . S
C2654 C2656 1.478 . S
C2655 H2649 0.930 . S
C2655 C2651 1.400 . S
C2655 C2654 1.385 . S
C2656 C2654 1.478 . S
C2656 C2658 1.381 . S
C2656 C2662 1.383 . S
C2657 C2653 1.495 . S
C2657 H2663 0.959 . S
C2657 H2664 0.961 . S
C2657 H2665 0.960 . S
C2658 C2656 1.381 . S
C2658 C2659 1.394 . S
C2658 H2666 0.930 . S
C2659 C2658 1.394 . S
C2659 C2660 1.383 . S
C2659 H2667 0.929 . S
C2660 C2659 1.383 . S
C2660 C2661 1.377 . S
C2661 H2645 0.930 . S
C2661 C2660 1.377 . S
C2661 C2662 1.379 . S
C2662 H2646 0.931 . S
C2662 C2656 1.383 . S
C2662 C2661 1.379 . S
H2663 C2657 0.959 . S
H2664 C2657 0.961 . S
H2665 C2657 0.960 . S
H2666 C2658 0.930 . S
H2667 C2659 0.929 . S
H2668 C2676 0.929 . S
H2669 C2678 0.930 . S
H2670 C2680 0.930 . S
H2671 C2683 0.929 . S
H2672 C2686 0.930 . S
H2673 C2688 0.960 . S
H2674 C2688 0.960 . S
H2675 C2688 0.960 . S
C2676 H2668 0.929 . S
C2676 C2677 1.377 . S
C2676 C2678 1.384 . S
C2677 C2676 1.377 . S
C2677 C2683 1.390 . S
C2678 H2669 0.930 . S
C2678 C2676 1.384 . S
C2678 C2679 1.372 . S
C2679 C2678 1.372 . S
C2679 C2680 1.400 . S
C2679 C2684 1.490 . S
C2680 H2670 0.930 . S
C2680 C2679 1.400 . S
C2680 C2683 1.386 . S
H2681 C2697 0.930 . S
H2682 C2698 0.931 . S
C2683 H2671 0.929 . S
C2683 C2677 1.390 . S
C2683 C2680 1.386 . S
C2684 C2679 1.490 . S
C2684 C2686 1.395 . S
C2684 C2687 1.403 . S
H2685 C2691 0.930 . S
C2686 H2672 0.930 . S
C2686 C2684 1.395 . S
C2686 C2689 1.403 . S
C2687 C2684 1.403 . S
C2687 C2688 1.524 . S
C2687 C2691 1.400 . S
C2688 H2673 0.960 . S
C2688 H2674 0.960 . S
C2688 H2675 0.960 . S
C2688 C2687 1.524 . S
C2689 C2686 1.403 . S
C2689 C2690 1.392 . S
C2689 C2693 1.495 . S
C2690 C2689 1.392 . S
C2690 C2691 1.385 . S
C2690 C2692 1.478 . S
C2691 H2685 0.930 . S
C2691 C2687 1.400 . S
C2691 C2690 1.385 . S
C2692 C2690 1.478 . S
C2692 C2694 1.381 . S
C2692 C2698 1.383 . S
C2693 C2689 1.495 . S
C2693 H2699 0.959 . S
C2693 H2700 0.961 . S
C2693 H2701 0.960 . S
C2694 C2692 1.381 . S
C2694 C2695 1.394 . S
C2694 H2702 0.930 . S
C2695 C2694 1.394 . S
C2695 C2696 1.383 . S
C2695 H2703 0.929 . S
C2696 C2695 1.383 . S
C2696 C2697 1.377 . S
C2697 H2681 0.930 . S
C2697 C2696 1.377 . S
C2697 C2698 1.379 . S
C2698 H2682 0.931 . S
C2698 C2692 1.383 . S
C2698 C2697 1.379 . S
H2699 C2693 0.959 . S
H2700 C2693 0.961 . S
H2701 C2693 0.960 . S
H2702 C2694 0.930 . S
H2703 C2695 0.929 . S
H2704 C2712 0.929 . S
H2705 C2714 0.930 . S
H2706 C2716 0.930 . S
H2707 C2719 0.929 . S
H2708 C2722 0.930 . S
H2709 C2724 0.960 . S
H2710 C2724 0.960 . S
H2711 C2724 0.960 . S
C2712 H2704 0.929 . S
C2712 C2713 1.377 . S
C2712 C2714 1.384 . S
C2713 C2712 1.377 . S
C2713 C2719 1.390 . S
C2714 H2705 0.930 . S
C2714 C2712 1.384 . S
C2714 C2715 1.372 . S
C2715 C2714 1.372 . S
C2715 C2716 1.400 . S
C2715 C2720 1.490 . S
C2716 H2706 0.930 . S
C2716 C2715 1.400 . S
C2716 C2719 1.386 . S
H2717 C2733 0.930 . S
H2718 C2734 0.931 . S
C2719 H2707 0.929 . S
C2719 C2713 1.390 . S
C2719 C2716 1.386 . S
C2720 C2715 1.490 . S
C2720 C2722 1.395 . S
C2720 C2723 1.403 . S
H2721 C2727 0.930 . S
C2722 H2708 0.930 . S
C2722 C2720 1.395 . S
C2722 C2725 1.403 . S
C2723 C2720 1.403 . S
C2723 C2724 1.524 . S
C2723 C2727 1.400 . S
C2724 H2709 0.960 . S
C2724 H2710 0.960 . S
C2724 H2711 0.960 . S
C2724 C2723 1.524 . S
C2725 C2722 1.403 . S
C2725 C2726 1.392 . S
C2725 C2729 1.495 . S
C2726 C2725 1.392 . S
C2726 C2727 1.385 . S
C2726 C2728 1.478 . S
C2727 H2721 0.930 . S
C2727 C2723 1.400 . S
C2727 C2726 1.385 . S
C2728 C2726 1.478 . S
C2728 C2730 1.381 . S
C2728 C2734 1.383 . S
C2729 C2725 1.495 . S
C2729 H2735 0.959 . S
C2729 H2736 0.961 . S
C2729 H2737 0.960 . S
C2730 C2728 1.381 . S
C2730 C2731 1.394 . S
C2730 H2738 0.930 . S
C2731 C2730 1.394 . S
C2731 C2732 1.383 . S
C2731 H2739 0.929 . S
C2732 C2731 1.383 . S
C2732 C2733 1.377 . S
C2733 H2717 0.930 . S
C2733 C2732 1.377 . S
C2733 C2734 1.379 . S
C2734 H2718 0.931 . S
C2734 C2728 1.383 . S
C2734 C2733 1.379 . S
H2735 C2729 0.959 . S
H2736 C2729 0.961 . S
H2737 C2729 0.960 . S
H2738 C2730 0.930 . S
H2739 C2731 0.929 . S
H2740 C2748 0.929 . S
H2741 C2750 0.930 . S
H2742 C2752 0.930 . S
H2743 C2755 0.929 . S
H2744 C2758 0.930 . S
H2745 C2760 0.960 . S
H2746 C2760 0.960 . S
H2747 C2760 0.960 . S
C2748 H2740 0.929 . S
C2748 C2749 1.377 . S
C2748 C2750 1.384 . S
C2749 C2748 1.377 . S
C2749 C2755 1.390 . S
C2750 H2741 0.930 . S
C2750 C2748 1.384 . S
C2750 C2751 1.372 . S
C2751 C2750 1.372 . S
C2751 C2752 1.400 . S
C2751 C2756 1.490 . S
C2752 H2742 0.930 . S
C2752 C2751 1.400 . S
C2752 C2755 1.386 . S
H2753 C2769 0.930 . S
H2754 C2770 0.931 . S
C2755 H2743 0.929 . S
C2755 C2749 1.390 . S
C2755 C2752 1.386 . S
C2756 C2751 1.490 . S
C2756 C2758 1.395 . S
C2756 C2759 1.403 . S
H2757 C2763 0.930 . S
C2758 H2744 0.930 . S
C2758 C2756 1.395 . S
C2758 C2761 1.403 . S
C2759 C2756 1.403 . S
C2759 C2760 1.524 . S
C2759 C2763 1.400 . S
C2760 H2745 0.960 . S
C2760 H2746 0.960 . S
C2760 H2747 0.960 . S
C2760 C2759 1.524 . S
C2761 C2758 1.403 . S
C2761 C2762 1.392 . S
C2761 C2765 1.495 . S
C2762 C2761 1.392 . S
C2762 C2763 1.385 . S
C2762 C2764 1.478 . S
C2763 H2757 0.930 . S
C2763 C2759 1.400 . S
C2763 C2762 1.385 . S
C2764 C2762 1.478 . S
C2764 C2766 1.381 . S
C2764 C2770 1.383 . S
C2765 C2761 1.495 . S
C2765 H2771 0.959 . S
C2765 H2772 0.961 . S
C2765 H2773 0.960 . S
C2766 C2764 1.381 . S
C2766 C2767 1.394 . S
C2766 H2774 0.930 . S
C2767 C2766 1.394 . S
C2767 C2768 1.383 . S
C2767 H2775 0.929 . S
C2768 C2767 1.383 . S
C2768 C2769 1.377 . S
C2769 H2753 0.930 . S
C2769 C2768 1.377 . S
C2769 C2770 1.379 . S
C2770 H2754 0.931 . S
C2770 C2764 1.383 . S
C2770 C2769 1.379 . S
H2771 C2765 0.959 . S
H2772 C2765 0.961 . S
H2773 C2765 0.960 . S
H2774 C2766 0.930 . S
H2775 C2767 0.929 . S
H2776 C2784 0.929 . S
H2777 C2786 0.930 . S
H2778 C2788 0.930 . S
H2779 C2791 0.929 . S
H2780 C2794 0.930 . S
H2781 C2796 0.960 . S
H2782 C2796 0.960 . S
H2783 C2796 0.960 1_455 S
C2784 H2776 0.929 . S
C2784 C2785 1.377 1_655 S
C2784 C2786 1.384 . S
C2785 C2784 1.377 1_455 S
C2785 C2791 1.390 . S
C2786 H2777 0.930 . S
C2786 C2784 1.384 . S
C2786 C2787 1.372 1_655 S
C2787 C2786 1.372 1_455 S
C2787 C2788 1.400 . S
C2787 C2792 1.490 . S
C2788 H2778 0.930 . S
C2788 C2787 1.400 . S
C2788 C2791 1.386 . S
H2789 C2805 0.930 . S
H2790 C2806 0.931 . S
C2791 H2779 0.929 . S
C2791 C2785 1.390 . S
C2791 C2788 1.386 . S
C2792 C2787 1.490 . S
C2792 C2794 1.395 . S
C2792 C2795 1.403 . S
H2793 C2799 0.930 . S
C2794 H2780 0.930 . S
C2794 C2792 1.395 . S
C2794 C2797 1.403 . S
C2795 C2792 1.403 . S
C2795 C2796 1.524 1_455 S
C2795 C2799 1.400 . S
C2796 H2781 0.960 . S
C2796 H2782 0.960 . S
C2796 H2783 0.960 1_655 S
C2796 C2795 1.524 1_655 S
C2797 C2794 1.403 . S
C2797 C2798 1.392 . S
C2797 C2801 1.495 1_556 S
C2798 C2797 1.392 . S
C2798 C2799 1.385 . S
C2798 C2800 1.478 . S
C2799 H2793 0.930 . S
C2799 C2795 1.400 . S
C2799 C2798 1.385 . S
C2800 C2798 1.478 . S
C2800 C2802 1.381 1_556 S
C2800 C2806 1.383 . S
C2801 C2797 1.495 1_554 S
C2801 H2807 0.959 . S
C2801 H2808 0.961 . S
C2801 H2809 0.960 . S
C2802 C2800 1.381 1_554 S
C2802 C2803 1.394 . S
C2802 H2810 0.930 1_455 S
C2803 C2802 1.394 . S
C2803 C2804 1.383 . S
C2803 H2811 0.929 1_455 S
C2804 C2803 1.383 . S
C2804 C2805 1.377 1_554 S
C2805 H2789 0.930 . S
C2805 C2804 1.377 1_556 S
C2805 C2806 1.379 . S
C2806 H2790 0.931 . S
C2806 C2800 1.383 . S
C2806 C2805 1.379 . S
H2807 C2801 0.959 . S
H2808 C2801 0.961 . S
H2809 C2801 0.960 . S
H2810 C2802 0.930 1_655 S
H2811 C2803 0.929 1_655 S
H2812 C2820 0.929 1_455 S
H2813 C2822 0.930 . S
H2814 C2824 0.930 . S
H2815 C2827 0.929 . S
H2816 C2830 0.930 . S
H2817 C2832 0.960 . S
H2818 C2832 0.960 . S
H2819 C2832 0.960 . S
C2820 H2812 0.929 1_655 S
C2820 C2821 1.377 . S
C2820 C2822 1.384 . S
C2821 C2820 1.377 . S
C2821 C2827 1.390 . S
C2822 H2813 0.930 . S
C2822 C2820 1.384 . S
C2822 C2823 1.372 . S
C2823 C2822 1.372 . S
C2823 C2824 1.400 . S
C2823 C2828 1.490 . S
C2824 H2814 0.930 . S
C2824 C2823 1.400 . S
C2824 C2827 1.386 . S
H2825 C2841 0.930 . S
H2826 C2842 0.931 . S
C2827 H2815 0.929 . S
C2827 C2821 1.390 . S
C2827 C2824 1.386 . S
C2828 C2823 1.490 . S
C2828 C2830 1.395 . S
C2828 C2831 1.403 . S
H2829 C2835 0.930 . S
C2830 H2816 0.930 . S
C2830 C2828 1.395 . S
C2830 C2833 1.403 . S
C2831 C2828 1.403 . S
C2831 C2832 1.524 . S
C2831 C2835 1.400 . S
C2832 H2817 0.960 . S
C2832 H2818 0.960 . S
C2832 H2819 0.960 . S
C2832 C2831 1.524 . S
C2833 C2830 1.403 . S
C2833 C2834 1.392 . S
C2833 C2837 1.495 . S
C2834 C2833 1.392 . S
C2834 C2835 1.385 . S
C2834 C2836 1.478 . S
C2835 H2829 0.930 . S
C2835 C2831 1.400 . S
C2835 C2834 1.385 . S
C2836 C2834 1.478 . S
C2836 C2838 1.381 . S
C2836 C2842 1.383 . S
C2837 C2833 1.495 . S
C2837 H2843 0.959 . S
C2837 H2844 0.961 . S
C2837 H2845 0.960 . S
C2838 C2836 1.381 . S
C2838 C2839 1.394 . S
C2838 H2846 0.930 . S
C2839 C2838 1.394 . S
C2839 C2840 1.383 . S
C2839 H2847 0.929 . S
C2840 C2839 1.383 . S
C2840 C2841 1.377 . S
C2841 H2825 0.930 . S
C2841 C2840 1.377 . S
C2841 C2842 1.379 . S
C2842 H2826 0.931 . S
C2842 C2836 1.383 . S
C2842 C2841 1.379 . S
H2843 C2837 0.959 . S
H2844 C2837 0.961 . S
H2845 C2837 0.960 . S
H2846 C2838 0.930 . S
H2847 C2839 0.929 . S
H2848 C2856 0.929 . S
H2849 C2858 0.930 . S
H2850 C2860 0.930 . S
H2851 C2863 0.929 . S
H2852 C2866 0.930 . S
H2853 C2868 0.960 . S
H2854 C2868 0.960 . S
H2855 C2868 0.960 . S
C2856 H2848 0.929 . S
C2856 C2857 1.377 . S
C2856 C2858 1.384 . S
C2857 C2856 1.377 . S
C2857 C2863 1.390 . S
C2858 H2849 0.930 . S
C2858 C2856 1.384 . S
C2858 C2859 1.372 . S
C2859 C2858 1.372 . S
C2859 C2860 1.400 . S
C2859 C2864 1.490 . S
C2860 H2850 0.930 . S
C2860 C2859 1.400 . S
C2860 C2863 1.386 . S
H2861 C2877 0.930 . S
H2862 C2878 0.931 . S
C2863 H2851 0.929 . S
C2863 C2857 1.390 . S
C2863 C2860 1.386 . S
C2864 C2859 1.490 . S
C2864 C2866 1.395 . S
C2864 C2867 1.403 . S
H2865 C2871 0.930 . S
C2866 H2852 0.930 . S
C2866 C2864 1.395 . S
C2866 C2869 1.403 . S
C2867 C2864 1.403 . S
C2867 C2868 1.524 . S
C2867 C2871 1.400 . S
C2868 H2853 0.960 . S
C2868 H2854 0.960 . S
C2868 H2855 0.960 . S
C2868 C2867 1.524 . S
C2869 C2866 1.403 . S
C2869 C2870 1.392 . S
C2869 C2873 1.495 . S
C2870 C2869 1.392 . S
C2870 C2871 1.385 . S
C2870 C2872 1.478 . S
C2871 H2865 0.930 . S
C2871 C2867 1.400 . S
C2871 C2870 1.385 . S
C2872 C2870 1.478 . S
C2872 C2874 1.381 . S
C2872 C2878 1.383 . S
C2873 C2869 1.495 . S
C2873 H2879 0.959 . S
C2873 H2880 0.961 . S
C2873 H2881 0.960 . S
C2874 C2872 1.381 . S
C2874 C2875 1.394 . S
C2874 H2882 0.930 . S
C2875 C2874 1.394 . S
C2875 C2876 1.383 . S
C2875 H2883 0.929 . S
C2876 C2875 1.383 . S
C2876 C2877 1.377 . S
C2877 H2861 0.930 . S
C2877 C2876 1.377 . S
C2877 C2878 1.379 . S
C2878 H2862 0.931 . S
C2878 C2872 1.383 . S
C2878 C2877 1.379 . S
H2879 C2873 0.959 . S
H2880 C2873 0.961 . S
H2881 C2873 0.960 . S
H2882 C2874 0.930 . S
H2883 C2875 0.929 . S
H2884 C2892 0.929 1_455 S
H2885 C2894 0.930 . S
H2886 C2896 0.930 . S
H2887 C2899 0.929 . S
H2888 C2902 0.930 . S
H2889 C2904 0.960 . S
H2890 C2904 0.960 . S
H2891 C2904 0.960 . S
C2892 H2884 0.929 1_655 S
C2892 C2893 1.377 1_655 S
C2892 C2894 1.384 . S
C2893 C2892 1.377 1_455 S
C2893 C2899 1.390 1_455 S
C2894 H2885 0.930 . S
C2894 C2892 1.384 . S
C2894 C2895 1.372 . S
C2895 C2894 1.372 . S
C2895 C2896 1.400 . S
C2895 C2900 1.490 . S
C2896 H2886 0.930 . S
C2896 C2895 1.400 . S
C2896 C2899 1.386 . S
H2897 C2913 0.930 . S
H2898 C2914 0.931 . S
C2899 H2887 0.929 . S
C2899 C2893 1.390 1_655 S
C2899 C2896 1.386 . S
C2900 C2895 1.490 . S
C2900 C2902 1.395 . S
C2900 C2903 1.403 . S
H2901 C2907 0.930 . S
C2902 H2888 0.930 . S
C2902 C2900 1.395 . S
C2902 C2905 1.403 . S
C2903 C2900 1.403 . S
C2903 C2904 1.524 . S
C2903 C2907 1.400 . S
C2904 H2889 0.960 . S
C2904 H2890 0.960 . S
C2904 H2891 0.960 . S
C2904 C2903 1.524 . S
C2905 C2902 1.403 . S
C2905 C2906 1.392 . S
C2905 C2909 1.495 . S
C2906 C2905 1.392 . S
C2906 C2907 1.385 . S
C2906 C2908 1.478 . S
C2907 H2901 0.930 . S
C2907 C2903 1.400 . S
C2907 C2906 1.385 . S
C2908 C2906 1.478 . S
C2908 C2910 1.381 . S
C2908 C2914 1.383 . S
C2909 C2905 1.495 . S
C2909 H2915 0.959 . S
C2909 H2916 0.961 . S
C2909 H2917 0.960 . S
C2910 C2908 1.381 . S
C2910 C2911 1.394 . S
C2910 H2918 0.930 . S
C2911 C2910 1.394 . S
C2911 C2912 1.383 . S
C2911 H2919 0.929 . S
C2912 C2911 1.383 . S
C2912 C2913 1.377 . S
C2913 H2897 0.930 . S
C2913 C2912 1.377 . S
C2913 C2914 1.379 . S
C2914 H2898 0.931 . S
C2914 C2908 1.383 . S
C2914 C2913 1.379 . S
H2915 C2909 0.959 . S
H2916 C2909 0.961 . S
H2917 C2909 0.960 . S
H2918 C2910 0.930 . S
H2919 C2911 0.929 . S
H2920 C2928 0.929 1_655 S
H2921 C2930 0.922 1_655 S
H2922 C2932 0.930 . S
H2923 C2935 0.929 . S
H2924 C2938 0.930 . S
H2925 C2940 0.960 . S
H2926 C2940 0.960 . S
H2927 C2940 0.960 . S
C2928 H2920 0.929 1_455 S
C2928 C2929 1.377 . S
C2928 C2930 1.384 . S
C2929 C2928 1.377 . S
C2929 C2935 1.390 . S
C2930 H2921 0.922 1_455 S
C2930 C2928 1.384 . S
C2930 C2931 1.372 . S
C2931 C2930 1.372 . S
C2931 C2932 1.400 . S
C2931 C2936 1.490 . S
C2932 H2922 0.930 . S
C2932 C2931 1.400 . S
C2932 C2935 1.386 . S
H2933 C2949 0.930 . S
H2934 C2950 0.931 . S
C2935 H2923 0.929 . S
C2935 C2929 1.390 . S
C2935 C2932 1.386 . S
C2936 C2931 1.490 . S
C2936 C2938 1.395 1_455 S
C2936 C2939 1.403 . S
H2937 C2943 0.930 . S
C2938 H2924 0.930 . S
C2938 C2936 1.395 1_655 S
C2938 C2941 1.403 . S
C2939 C2936 1.403 . S
C2939 C2940 1.524 . S
C2939 C2943 1.400 . S
C2940 H2925 0.960 . S
C2940 H2926 0.960 . S
C2940 H2927 0.960 . S
C2940 C2939 1.524 . S
C2941 C2938 1.403 . S
C2941 C2942 1.392 1_655 S
C2941 C2945 1.495 . S
C2942 C2941 1.392 1_455 S
C2942 C2943 1.385 . S
C2942 C2944 1.478 . S
C2943 H2937 0.930 . S
C2943 C2939 1.400 . S
C2943 C2942 1.385 . S
C2944 C2942 1.478 . S
C2944 C2946 1.381 . S
C2944 C2950 1.383 . S
C2945 C2941 1.495 . S
C2945 H2951 0.959 . S
C2945 H2952 0.961 . S
C2945 H2953 0.960 . S
C2946 C2944 1.381 . S
C2946 C2947 1.394 . S
C2946 H2954 0.930 . S
C2947 C2946 1.394 . S
C2947 C2948 1.383 . S
C2947 H2955 0.929 . S
C2948 C2947 1.383 . S
C2948 C2949 1.377 . S
C2949 H2933 0.930 . S
C2949 C2948 1.377 . S
C2949 C2950 1.379 . S
C2950 H2934 0.931 . S
C2950 C2944 1.383 . S
C2950 C2949 1.379 . S
H2951 C2945 0.959 . S
H2952 C2945 0.961 . S
H2953 C2945 0.960 . S
H2954 C2946 0.930 . S
H2955 C2947 0.929 . S
H2956 C2964 0.929 . S
H2957 C2966 0.930 . S
H2958 C2968 0.930 . S
H2959 C2971 0.929 . S
H2960 C2974 0.930 . S
H2961 C2976 0.960 . S
H2962 C2976 0.960 . S
H2963 C2976 0.960 . S
C2964 H2956 0.929 . S
C2964 C2965 1.377 . S
C2964 C2966 1.384 . S
C2965 C2964 1.377 . S
C2965 C2971 1.390 . S
C2966 H2957 0.930 . S
C2966 C2964 1.384 . S
C2966 C2967 1.372 . S
C2967 C2966 1.372 . S
C2967 C2968 1.400 . S
C2967 C2972 1.490 . S
C2968 H2958 0.930 . S
C2968 C2967 1.400 . S
C2968 C2971 1.386 . S
H2969 C2985 0.930 . S
H2970 C2986 0.931 . S
C2971 H2959 0.929 . S
C2971 C2965 1.390 . S
C2971 C2968 1.386 . S
C2972 C2967 1.490 . S
C2972 C2974 1.395 . S
C2972 C2975 1.403 . S
H2973 C2979 0.930 . S
C2974 H2960 0.930 . S
C2974 C2972 1.395 . S
C2974 C2977 1.403 . S
C2975 C2972 1.403 . S
C2975 C2976 1.524 . S
C2975 C2979 1.400 . S
C2976 H2961 0.960 . S
C2976 H2962 0.960 . S
C2976 H2963 0.960 . S
C2976 C2975 1.524 . S
C2977 C2974 1.403 . S
C2977 C2978 1.392 . S
C2977 C2981 1.495 . S
C2978 C2977 1.392 . S
C2978 C2979 1.385 . S
C2978 C2980 1.478 . S
C2979 H2973 0.930 . S
C2979 C2975 1.400 . S
C2979 C2978 1.385 . S
C2980 C2978 1.478 . S
C2980 C2982 1.381 . S
C2980 C2986 1.383 . S
C2981 C2977 1.495 . S
C2981 H2987 0.959 . S
C2981 H2988 0.961 . S
C2981 H2989 0.960 . S
C2982 C2980 1.381 . S
C2982 C2983 1.394 . S
C2982 H2990 0.930 . S
C2983 C2982 1.394 . S
C2983 C2984 1.383 . S
C2983 H2991 0.929 . S
C2984 C2983 1.383 . S
C2984 C2985 1.377 . S
C2985 H2969 0.930 . S
C2985 C2984 1.377 . S
C2985 C2986 1.379 . S
C2986 H2970 0.931 . S
C2986 C2980 1.383 . S
C2986 C2985 1.379 . S
H2987 C2981 0.959 . S
H2988 C2981 0.961 . S
H2989 C2981 0.960 . S
H2990 C2982 0.930 . S
H2991 C2983 0.929 . S
H2992 C3000 0.929 . S
H2993 C3002 0.930 . S
H2994 C3004 0.930 . S
H2995 C3007 0.929 . S
H2996 C3010 0.930 . S
H2997 C3012 0.960 . S
H2998 C3012 0.960 . S
H2999 C3012 0.960 . S
C3000 H2992 0.929 . S
C3000 C3001 1.377 . S
C3000 C3002 1.384 . S
C3001 C3000 1.377 . S
C3001 C3007 1.390 . S
C3002 H2993 0.930 . S
C3002 C3000 1.384 . S
C3002 C3003 1.372 . S
C3003 C3002 1.372 . S
C3003 C3004 1.400 . S
C3003 C3008 1.490 . S
C3004 H2994 0.930 . S
C3004 C3003 1.400 . S
C3004 C3007 1.386 . S
H3005 C3021 0.930 . S
H3006 C3022 0.931 . S
C3007 H2995 0.929 . S
C3007 C3001 1.390 . S
C3007 C3004 1.386 . S
C3008 C3003 1.490 . S
C3008 C3010 1.395 . S
C3008 C3011 1.403 . S
H3009 C3015 0.930 . S
C3010 H2996 0.930 . S
C3010 C3008 1.395 . S
C3010 C3013 1.403 . S
C3011 C3008 1.403 . S
C3011 C3012 1.524 . S
C3011 C3015 1.400 . S
C3012 H2997 0.960 . S
C3012 H2998 0.960 . S
C3012 H2999 0.960 . S
C3012 C3011 1.524 . S
C3013 C3010 1.403 . S
C3013 C3014 1.392 . S
C3013 C3017 1.495 . S
C3014 C3013 1.392 . S
C3014 C3015 1.385 . S
C3014 C3016 1.478 . S
C3015 H3009 0.930 . S
C3015 C3011 1.400 . S
C3015 C3014 1.385 . S
C3016 C3014 1.478 . S
C3016 C3018 1.381 . S
C3016 C3022 1.383 . S
C3017 C3013 1.495 . S
C3017 H3023 0.959 . S
C3017 H3024 0.961 . S
C3017 H3025 0.960 . S
C3018 C3016 1.381 . S
C3018 C3019 1.394 . S
C3018 H3026 0.930 . S
C3019 C3018 1.394 . S
C3019 C3020 1.383 . S
C3019 H3027 0.929 . S
C3020 C3019 1.383 . S
C3020 C3021 1.377 . S
C3021 H3005 0.930 . S
C3021 C3020 1.377 . S
C3021 C3022 1.379 . S
C3022 H3006 0.931 . S
C3022 C3016 1.383 . S
C3022 C3021 1.379 . S
H3023 C3017 0.959 . S
H3024 C3017 0.961 . S
H3025 C3017 0.960 . S
H3026 C3018 0.930 . S
H3027 C3019 0.929 . S
H3028 C3036 0.929 . S
H3029 C3038 0.930 . S
H3030 C3040 0.930 . S
H3031 C3043 0.929 . S
H3032 C3046 0.930 . S
H3033 C3048 0.960 . S
H3034 C3048 0.960 . S
H3035 C3048 0.960 . S
C3036 H3028 0.929 . S
C3036 C3037 1.377 . S
C3036 C3038 1.384 1_554 S
C3037 C3036 1.377 . S
C3037 C3043 1.390 . S
C3038 H3029 0.930 . S
C3038 C3036 1.384 1_556 S
C3038 C3039 1.372 . S
C3039 C3038 1.372 . S
C3039 C3040 1.400 . S
C3039 C3044 1.490 . S
C3040 H3030 0.930 . S
C3040 C3039 1.400 . S
C3040 C3043 1.386 1_556 S
H3041 C3057 0.930 . S
H3042 C3058 0.931 . S
C3043 H3031 0.929 . S
C3043 C3037 1.390 . S
C3043 C3040 1.386 1_554 S
C3044 C3039 1.490 . S
C3044 C3046 1.395 . S
C3044 C3047 1.403 . S
H3045 C3051 0.930 . S
C3046 H3032 0.930 . S
C3046 C3044 1.395 . S
C3046 C3049 1.403 . S
C3047 C3044 1.403 . S
C3047 C3048 1.524 . S
C3047 C3051 1.400 . S
C3048 H3033 0.960 . S
C3048 H3034 0.960 . S
C3048 H3035 0.960 . S
C3048 C3047 1.524 . S
C3049 C3046 1.403 . S
C3049 C3050 1.392 . S
C3049 C3053 1.495 . S
C3050 C3049 1.392 . S
C3050 C3051 1.385 . S
C3050 C3052 1.478 . S
C3051 H3045 0.930 . S
C3051 C3047 1.400 . S
C3051 C3050 1.385 . S
C3052 C3050 1.478 . S
C3052 C3054 1.381 . S
C3052 C3058 1.383 . S
C3053 C3049 1.495 . S
C3053 H3059 0.959 . S
C3053 H3060 0.961 . S
C3053 H3061 0.960 . S
C3054 C3052 1.381 . S
C3054 C3055 1.394 . S
C3054 H3062 0.930 . S
C3055 C3054 1.394 . S
C3055 C3056 1.383 . S
C3055 H3063 0.929 . S
C3056 C3055 1.383 . S
C3056 C3057 1.377 . S
C3057 H3041 0.930 . S
C3057 C3056 1.377 . S
C3057 C3058 1.379 . S
C3058 H3042 0.931 . S
C3058 C3052 1.383 . S
C3058 C3057 1.379 . S
H3059 C3053 0.959 . S
H3060 C3053 0.961 . S
H3061 C3053 0.960 . S
H3062 C3054 0.930 . S
H3063 C3055 0.929 . S
H3064 C3072 0.929 . S
H3065 C3074 0.930 . S
H3066 C3076 0.930 . S
H3067 C3079 0.929 . S
H3068 C3082 0.930 . S
H3069 C3084 0.960 . S
H3070 C3084 0.960 . S
H3071 C3084 0.960 . S
C3072 H3064 0.929 . S
C3072 C3073 1.377 . S
C3072 C3074 1.384 . S
C3073 C3072 1.377 . S
C3073 C3079 1.390 . S
C3074 H3065 0.930 . S
C3074 C3072 1.384 . S
C3074 C3075 1.372 . S
C3075 C3074 1.372 . S
C3075 C3076 1.400 . S
C3075 C3080 1.490 . S
C3076 H3066 0.930 . S
C3076 C3075 1.400 . S
C3076 C3079 1.386 . S
H3077 C3093 0.930 . S
H3078 C3094 0.931 . S
C3079 H3067 0.929 . S
C3079 C3073 1.390 . S
C3079 C3076 1.386 . S
C3080 C3075 1.490 . S
C3080 C3082 1.395 . S
C3080 C3083 1.403 . S
H3081 C3087 0.930 . S
C3082 H3068 0.930 . S
C3082 C3080 1.395 . S
C3082 C3085 1.403 . S
C3083 C3080 1.403 . S
C3083 C3084 1.524 . S
C3083 C3087 1.400 . S
C3084 H3069 0.960 . S
C3084 H3070 0.960 . S
C3084 H3071 0.960 . S
C3084 C3083 1.524 . S
C3085 C3082 1.403 . S
C3085 C3086 1.392 . S
C3085 C3089 1.495 . S
C3086 C3085 1.392 . S
C3086 C3087 1.385 . S
C3086 C3088 1.478 . S
C3087 H3081 0.930 . S
C3087 C3083 1.400 . S
C3087 C3086 1.385 . S
C3088 C3086 1.478 . S
C3088 C3090 1.381 . S
C3088 C3094 1.383 . S
C3089 C3085 1.495 . S
C3089 H3095 0.959 . S
C3089 H3096 0.961 . S
C3089 H3097 0.960 . S
C3090 C3088 1.381 . S
C3090 C3091 1.394 . S
C3090 H3098 0.930 . S
C3091 C3090 1.394 . S
C3091 C3092 1.383 . S
C3091 H3099 0.929 . S
C3092 C3091 1.383 . S
C3092 C3093 1.377 . S
C3093 H3077 0.930 . S
C3093 C3092 1.377 . S
C3093 C3094 1.379 . S
C3094 H3078 0.931 . S
C3094 C3088 1.383 . S
C3094 C3093 1.379 . S
H3095 C3089 0.959 . S
H3096 C3089 0.961 . S
H3097 C3089 0.960 . S
H3098 C3090 0.930 . S
H3099 C3091 0.929 . S
H3100 C3108 0.929 . S
H3101 C3110 0.930 . S
H3102 C3112 0.930 . S
H3103 C3115 0.929 . S
H3104 C3118 0.930 . S
H3105 C3120 0.960 . S
H3106 C3120 0.960 . S
H3107 C3120 0.960 . S
C3108 H3100 0.929 . S
C3108 C3109 1.377 . S
C3108 C3110 1.384 . S
C3109 C3108 1.377 . S
C3109 C3115 1.390 . S
C3110 H3101 0.930 . S
C3110 C3108 1.384 . S
C3110 C3111 1.372 . S
C3111 C3110 1.372 . S
C3111 C3112 1.400 . S
C3111 C3116 1.490 . S
C3112 H3102 0.930 . S
C3112 C3111 1.400 . S
C3112 C3115 1.386 . S
H3113 C3129 0.930 . S
H3114 C3130 0.931 . S
C3115 H3103 0.929 . S
C3115 C3109 1.390 . S
C3115 C3112 1.386 . S
C3116 C3111 1.490 . S
C3116 C3118 1.395 . S
C3116 C3119 1.403 . S
H3117 C3123 0.930 . S
C3118 H3104 0.930 . S
C3118 C3116 1.395 . S
C3118 C3121 1.403 . S
C3119 C3116 1.403 . S
C3119 C3120 1.524 . S
C3119 C3123 1.400 . S
C3120 H3105 0.960 . S
C3120 H3106 0.960 . S
C3120 H3107 0.960 . S
C3120 C3119 1.524 . S
C3121 C3118 1.403 . S
C3121 C3122 1.392 . S
C3121 C3125 1.495 . S
C3122 C3121 1.392 . S
C3122 C3123 1.385 . S
C3122 C3124 1.478 . S
C3123 H3117 0.930 . S
C3123 C3119 1.400 . S
C3123 C3122 1.385 . S
C3124 C3122 1.478 . S
C3124 C3126 1.381 . S
C3124 C3130 1.383 . S
C3125 C3121 1.495 . S
C3125 H3131 0.959 . S
C3125 H3132 0.961 . S
C3125 H3133 0.960 . S
C3126 C3124 1.381 . S
C3126 C3127 1.394 . S
C3126 H3134 0.930 . S
C3127 C3126 1.394 . S
C3127 C3128 1.383 . S
C3127 H3135 0.929 . S
C3128 C3127 1.383 . S
C3128 C3129 1.377 . S
C3129 H3113 0.930 . S
C3129 C3128 1.377 . S
C3129 C3130 1.379 . S
C3130 H3114 0.931 . S
C3130 C3124 1.383 . S
C3130 C3129 1.379 . S
H3131 C3125 0.959 . S
H3132 C3125 0.961 . S
H3133 C3125 0.960 . S
H3134 C3126 0.930 . S
H3135 C3127 0.929 . S
H3136 C3144 0.929 . S
H3137 C3146 0.930 . S
H3138 C3148 0.930 . S
H3139 C3151 0.929 . S
H3140 C3154 0.930 . S
H3141 C3156 0.960 . S
H3142 C3156 0.960 . S
H3143 C3156 0.960 . S
C3144 H3136 0.929 . S
C3144 C3145 1.377 . S
C3144 C3146 1.384 . S
C3145 C3144 1.377 . S
C3145 C3151 1.390 . S
C3146 H3137 0.930 . S
C3146 C3144 1.384 . S
C3146 C3147 1.372 . S
C3147 C3146 1.372 . S
C3147 C3148 1.400 . S
C3147 C3152 1.490 . S
C3148 H3138 0.930 . S
C3148 C3147 1.400 . S
C3148 C3151 1.386 . S
H3149 C3165 0.930 . S
H3150 C3166 0.931 . S
C3151 H3139 0.929 . S
C3151 C3145 1.390 . S
C3151 C3148 1.386 . S
C3152 C3147 1.490 . S
C3152 C3154 1.395 . S
C3152 C3155 1.403 . S
H3153 C3159 0.930 . S
C3154 H3140 0.930 . S
C3154 C3152 1.395 . S
C3154 C3157 1.403 . S
C3155 C3152 1.403 . S
C3155 C3156 1.524 . S
C3155 C3159 1.400 . S
C3156 H3141 0.960 . S
C3156 H3142 0.960 . S
C3156 H3143 0.960 . S
C3156 C3155 1.524 . S
C3157 C3154 1.403 . S
C3157 C3158 1.392 . S
C3157 C3161 1.495 . S
C3158 C3157 1.392 . S
C3158 C3159 1.385 . S
C3158 C3160 1.478 . S
C3159 H3153 0.930 . S
C3159 C3155 1.400 . S
C3159 C3158 1.385 . S
C3160 C3158 1.478 . S
C3160 C3162 1.381 . S
C3160 C3166 1.383 . S
C3161 C3157 1.495 . S
C3161 H3167 0.959 . S
C3161 H3168 0.961 . S
C3161 H3169 0.960 . S
C3162 C3160 1.381 . S
C3162 C3163 1.394 . S
C3162 H3170 0.930 . S
C3163 C3162 1.394 . S
C3163 C3164 1.383 . S
C3163 H3171 0.929 . S
C3164 C3163 1.383 . S
C3164 C3165 1.377 . S
C3165 H3149 0.930 . S
C3165 C3164 1.377 . S
C3165 C3166 1.379 . S
C3166 H3150 0.931 . S
C3166 C3160 1.383 . S
C3166 C3165 1.379 . S
H3167 C3161 0.959 . S
H3168 C3161 0.961 . S
H3169 C3161 0.960 . S
H3170 C3162 0.930 . S
H3171 C3163 0.929 . S
H3172 C3180 0.929 . S
H3173 C3182 0.930 . S
H3174 C3184 0.930 . S
H3175 C3187 0.929 . S
H3176 C3190 0.930 . S
H3177 C3192 0.960 . S
H3178 C3192 0.960 . S
H3179 C3192 0.960 . S
C3180 H3172 0.929 . S
C3180 C3181 1.377 . S
C3180 C3182 1.384 . S
C3181 C3180 1.377 . S
C3181 C3187 1.390 . S
C3182 H3173 0.930 . S
C3182 C3180 1.384 . S
C3182 C3183 1.372 . S
C3183 C3182 1.372 . S
C3183 C3184 1.400 . S
C3183 C3188 1.490 . S
C3184 H3174 0.930 . S
C3184 C3183 1.400 . S
C3184 C3187 1.386 . S
H3185 C3201 0.930 . S
H3186 C3202 0.931 . S
C3187 H3175 0.929 . S
C3187 C3181 1.390 . S
C3187 C3184 1.386 . S
C3188 C3183 1.490 . S
C3188 C3190 1.395 . S
C3188 C3191 1.403 . S
H3189 C3195 0.930 . S
C3190 H3176 0.930 . S
C3190 C3188 1.395 . S
C3190 C3193 1.403 . S
C3191 C3188 1.403 . S
C3191 C3192 1.524 . S
C3191 C3195 1.400 . S
C3192 H3177 0.960 . S
C3192 H3178 0.960 . S
C3192 H3179 0.960 . S
C3192 C3191 1.524 . S
C3193 C3190 1.403 . S
C3193 C3194 1.392 . S
C3193 C3197 1.495 . S
C3194 C3193 1.392 . S
C3194 C3195 1.385 . S
C3194 C3196 1.478 . S
C3195 H3189 0.930 . S
C3195 C3191 1.400 . S
C3195 C3194 1.385 . S
C3196 C3194 1.478 . S
C3196 C3198 1.381 . S
C3196 C3202 1.383 . S
C3197 C3193 1.495 . S
C3197 H3203 0.959 . S
C3197 H3204 0.961 . S
C3197 H3205 0.960 . S
C3198 C3196 1.381 . S
C3198 C3199 1.394 . S
C3198 H3206 0.930 . S
C3199 C3198 1.394 . S
C3199 C3200 1.383 . S
C3199 H3207 0.929 . S
C3200 C3199 1.383 . S
C3200 C3201 1.377 . S
C3201 H3185 0.930 . S
C3201 C3200 1.377 . S
C3201 C3202 1.379 . S
C3202 H3186 0.931 . S
C3202 C3196 1.383 . S
C3202 C3201 1.379 . S
H3203 C3197 0.959 . S
H3204 C3197 0.961 . S
H3205 C3197 0.960 . S
H3206 C3198 0.930 . S
H3207 C3199 0.929 . S
H3208 C3216 0.929 . S
H3209 C3218 0.930 . S
H3210 C3220 0.930 . S
H3211 C3223 0.929 . S
H3212 C3226 0.930 . S
H3213 C3228 0.960 . S
H3214 C3228 0.960 . S
H3215 C3228 0.960 . S
C3216 H3208 0.929 . S
C3216 C3217 1.377 . S
C3216 C3218 1.384 . S
C3217 C3216 1.377 . S
C3217 C3223 1.390 . S
C3218 H3209 0.930 . S
C3218 C3216 1.384 . S
C3218 C3219 1.372 . S
C3219 C3218 1.372 . S
C3219 C3220 1.400 . S
C3219 C3224 1.490 . S
C3220 H3210 0.930 . S
C3220 C3219 1.400 . S
C3220 C3223 1.386 . S
H3221 C3237 0.930 . S
H3222 C3238 0.931 . S
C3223 H3211 0.929 . S
C3223 C3217 1.390 . S
C3223 C3220 1.386 . S
C3224 C3219 1.490 . S
C3224 C3226 1.395 . S
C3224 C3227 1.403 . S
H3225 C3231 0.930 . S
C3226 H3212 0.930 . S
C3226 C3224 1.395 . S
C3226 C3229 1.403 . S
C3227 C3224 1.403 . S
C3227 C3228 1.524 . S
C3227 C3231 1.400 . S
C3228 H3213 0.960 . S
C3228 H3214 0.960 . S
C3228 H3215 0.960 . S
C3228 C3227 1.524 . S
C3229 C3226 1.403 . S
C3229 C3230 1.392 . S
C3229 C3233 1.495 . S
C3230 C3229 1.392 . S
C3230 C3231 1.385 . S
C3230 C3232 1.478 . S
C3231 H3225 0.930 . S
C3231 C3227 1.400 . S
C3231 C3230 1.385 . S
C3232 C3230 1.478 . S
C3232 C3234 1.381 . S
C3232 C3238 1.383 . S
C3233 C3229 1.495 . S
C3233 H3239 0.959 . S
C3233 H3240 0.961 . S
C3233 H3241 0.960 . S
C3234 C3232 1.381 . S
C3234 C3235 1.394 . S
C3234 H3242 0.930 . S
C3235 C3234 1.394 . S
C3235 C3236 1.383 . S
C3235 H3243 0.929 . S
C3236 C3235 1.383 . S
C3236 C3237 1.377 . S
C3237 H3221 0.930 . S
C3237 C3236 1.377 . S
C3237 C3238 1.379 . S
C3238 H3222 0.931 . S
C3238 C3232 1.383 . S
C3238 C3237 1.379 . S
H3239 C3233 0.959 . S
H3240 C3233 0.961 . S
H3241 C3233 0.960 . S
H3242 C3234 0.930 . S
H3243 C3235 0.929 . S
H3244 C3252 0.929 . S
H3245 C3254 0.930 . S
H3246 C3256 0.930 . S
H3247 C3259 0.929 . S
H3248 C3262 0.930 . S
H3249 C3264 0.960 . S
H3250 C3264 0.960 . S
H3251 C3264 0.960 . S
C3252 H3244 0.929 . S
C3252 C3253 1.377 . S
C3252 C3254 1.384 . S
C3253 C3252 1.377 . S
C3253 C3259 1.390 . S
C3254 H3245 0.930 . S
C3254 C3252 1.384 . S
C3254 C3255 1.372 . S
C3255 C3254 1.372 . S
C3255 C3256 1.400 . S
C3255 C3260 1.490 . S
C3256 H3246 0.930 . S
C3256 C3255 1.400 . S
C3256 C3259 1.386 . S
H3257 C3273 0.930 . S
H3258 C3274 0.931 . S
C3259 H3247 0.929 . S
C3259 C3253 1.390 . S
C3259 C3256 1.386 . S
C3260 C3255 1.490 . S
C3260 C3262 1.395 . S
C3260 C3263 1.403 . S
H3261 C3267 0.930 . S
C3262 H3248 0.930 . S
C3262 C3260 1.395 . S
C3262 C3265 1.403 . S
C3263 C3260 1.403 . S
C3263 C3264 1.524 . S
C3263 C3267 1.400 . S
C3264 H3249 0.960 . S
C3264 H3250 0.960 . S
C3264 H3251 0.960 . S
C3264 C3263 1.524 . S
C3265 C3262 1.403 . S
C3265 C3266 1.392 . S
C3265 C3269 1.495 . S
C3266 C3265 1.392 . S
C3266 C3267 1.385 . S
C3266 C3268 1.478 . S
C3267 H3261 0.930 . S
C3267 C3263 1.400 . S
C3267 C3266 1.385 . S
C3268 C3266 1.478 . S
C3268 C3270 1.381 . S
C3268 C3274 1.383 . S
C3269 C3265 1.495 . S
C3269 H3275 0.959 . S
C3269 H3276 0.961 . S
C3269 H3277 0.960 . S
C3270 C3268 1.381 . S
C3270 C3271 1.394 . S
C3270 H3278 0.930 . S
C3271 C3270 1.394 . S
C3271 C3272 1.383 . S
C3271 H3279 0.929 . S
C3272 C3271 1.383 . S
C3272 C3273 1.377 . S
C3273 H3257 0.930 . S
C3273 C3272 1.377 . S
C3273 C3274 1.379 . S
C3274 H3258 0.931 . S
C3274 C3268 1.383 . S
C3274 C3273 1.379 . S
H3275 C3269 0.959 . S
H3276 C3269 0.961 . S
H3277 C3269 0.960 . S
H3278 C3270 0.930 . S
H3279 C3271 0.929 . S
H3280 C3288 0.929 . S
H3281 C3290 0.930 . S
H3282 C3292 0.930 . S
H3283 C3295 0.929 . S
H3284 C3298 0.930 . S
H3285 C3300 0.960 . S
H3286 C3300 0.960 . S
H3287 C3300 0.960 . S
C3288 H3280 0.929 . S
C3288 C3289 1.377 . S
C3288 C3290 1.384 . S
C3289 C3288 1.377 . S
C3289 C3295 1.390 . S
C3290 H3281 0.930 . S
C3290 C3288 1.384 . S
C3290 C3291 1.372 . S
C3291 C3290 1.372 . S
C3291 C3292 1.400 . S
C3291 C3296 1.490 . S
C3292 H3282 0.930 . S
C3292 C3291 1.400 . S
C3292 C3295 1.386 . S
H3293 C3309 0.930 . S
H3294 C3310 0.931 . S
C3295 H3283 0.929 . S
C3295 C3289 1.390 . S
C3295 C3292 1.386 . S
C3296 C3291 1.490 . S
C3296 C3298 1.395 . S
C3296 C3299 1.403 . S
H3297 C3303 0.930 . S
C3298 H3284 0.930 . S
C3298 C3296 1.395 . S
C3298 C3301 1.403 . S
C3299 C3296 1.403 . S
C3299 C3300 1.524 . S
C3299 C3303 1.400 . S
C3300 H3285 0.960 . S
C3300 H3286 0.960 . S
C3300 H3287 0.960 . S
C3300 C3299 1.524 . S
C3301 C3298 1.403 . S
C3301 C3302 1.392 . S
C3301 C3305 1.495 . S
C3302 C3301 1.392 . S
C3302 C3303 1.385 . S
C3302 C3304 1.478 . S
C3303 H3297 0.930 . S
C3303 C3299 1.400 . S
C3303 C3302 1.385 . S
C3304 C3302 1.478 . S
C3304 C3306 1.381 . S
C3304 C3310 1.383 . S
C3305 C3301 1.495 . S
C3305 H3311 0.959 . S
C3305 H3312 0.961 . S
C3305 H3313 0.960 . S
C3306 C3304 1.381 . S
C3306 C3307 1.394 . S
C3306 H3314 0.930 . S
C3307 C3306 1.394 . S
C3307 C3308 1.383 . S
C3307 H3315 0.929 . S
C3308 C3307 1.383 . S
C3308 C3309 1.377 . S
C3309 H3293 0.930 . S
C3309 C3308 1.377 . S
C3309 C3310 1.379 . S
C3310 H3294 0.931 . S
C3310 C3304 1.383 . S
C3310 C3309 1.379 . S
H3311 C3305 0.959 . S
H3312 C3305 0.961 . S
H3313 C3305 0.960 . S
H3314 C3306 0.930 . S
H3315 C3307 0.929 . S
H3316 C3324 0.929 . S
H3317 C3326 0.930 . S
H3318 C3328 0.930 . S
H3319 C3331 0.929 . S
H3320 C3334 0.930 . S
H3321 C3336 0.960 . S
H3322 C3336 0.960 . S
H3323 C3336 0.960 . S
C3324 H3316 0.929 . S
C3324 C3325 1.377 . S
C3324 C3326 1.384 . S
C3325 C3324 1.377 . S
C3325 C3331 1.390 . S
C3326 H3317 0.930 . S
C3326 C3324 1.384 . S
C3326 C3327 1.372 . S
C3327 C3326 1.372 . S
C3327 C3328 1.400 . S
C3327 C3332 1.490 . S
C3328 H3318 0.930 . S
C3328 C3327 1.400 . S
C3328 C3331 1.386 . S
H3329 C3345 0.930 . S
H3330 C3346 0.931 . S
C3331 H3319 0.929 . S
C3331 C3325 1.390 . S
C3331 C3328 1.386 . S
C3332 C3327 1.490 . S
C3332 C3334 1.395 . S
C3332 C3335 1.403 . S
H3333 C3339 0.930 . S
C3334 H3320 0.930 . S
C3334 C3332 1.395 . S
C3334 C3337 1.403 . S
C3335 C3332 1.403 . S
C3335 C3336 1.524 . S
C3335 C3339 1.400 . S
C3336 H3321 0.960 . S
C3336 H3322 0.960 . S
C3336 H3323 0.960 . S
C3336 C3335 1.524 . S
C3337 C3334 1.403 . S
C3337 C3338 1.392 . S
C3337 C3341 1.495 . S
C3338 C3337 1.392 . S
C3338 C3339 1.385 . S
C3338 C3340 1.478 . S
C3339 H3333 0.930 . S
C3339 C3335 1.400 . S
C3339 C3338 1.385 . S
C3340 C3338 1.478 . S
C3340 C3342 1.381 . S
C3340 C3346 1.383 . S
C3341 C3337 1.495 . S
C3341 H3347 0.959 . S
C3341 H3348 0.961 . S
C3341 H3349 0.960 . S
C3342 C3340 1.381 . S
C3342 C3343 1.394 . S
C3342 H3350 0.930 . S
C3343 C3342 1.394 . S
C3343 C3344 1.383 . S
C3343 H3351 0.929 . S
C3344 C3343 1.383 . S
C3344 C3345 1.377 . S
C3345 H3329 0.930 . S
C3345 C3344 1.377 . S
C3345 C3346 1.379 . S
C3346 H3330 0.931 . S
C3346 C3340 1.383 . S
C3346 C3345 1.379 . S
H3347 C3341 0.959 . S
H3348 C3341 0.961 . S
H3349 C3341 0.960 . S
H3350 C3342 0.930 . S
H3351 C3343 0.929 . S
H3352 C3360 0.929 . S
H3353 C3362 0.930 . S
H3354 C3364 0.930 . S
H3355 C3367 0.929 . S
H3356 C3370 0.930 . S
H3357 C3372 0.960 . S
H3358 C3372 0.960 . S
H3359 C3372 0.960 . S
C3360 H3352 0.929 . S
C3360 C3361 1.377 . S
C3360 C3362 1.384 . S
C3361 C3360 1.377 . S
C3361 C3367 1.390 . S
C3362 H3353 0.930 . S
C3362 C3360 1.384 . S
C3362 C3363 1.372 . S
C3363 C3362 1.372 . S
C3363 C3364 1.400 . S
C3363 C3368 1.490 . S
C3364 H3354 0.930 . S
C3364 C3363 1.400 . S
C3364 C3367 1.386 . S
H3365 C3381 0.930 . S
H3366 C3382 0.931 . S
C3367 H3355 0.929 . S
C3367 C3361 1.390 . S
C3367 C3364 1.386 . S
C3368 C3363 1.490 . S
C3368 C3370 1.395 . S
C3368 C3371 1.403 . S
H3369 C3375 0.930 . S
C3370 H3356 0.930 . S
C3370 C3368 1.395 . S
C3370 C3373 1.403 . S
C3371 C3368 1.403 . S
C3371 C3372 1.524 . S
C3371 C3375 1.400 . S
C3372 H3357 0.960 . S
C3372 H3358 0.960 . S
C3372 H3359 0.960 . S
C3372 C3371 1.524 . S
C3373 C3370 1.403 . S
C3373 C3374 1.392 . S
C3373 C3377 1.495 . S
C3374 C3373 1.392 . S
C3374 C3375 1.385 . S
C3374 C3376 1.478 . S
C3375 H3369 0.930 . S
C3375 C3371 1.400 . S
C3375 C3374 1.385 . S
C3376 C3374 1.478 . S
C3376 C3378 1.381 . S
C3376 C3382 1.383 . S
C3377 C3373 1.495 . S
C3377 H3383 0.959 . S
C3377 H3384 0.961 . S
C3377 H3385 0.960 . S
C3378 C3376 1.381 . S
C3378 C3379 1.394 . S
C3378 H3386 0.930 . S
C3379 C3378 1.394 . S
C3379 C3380 1.383 . S
C3379 H3387 0.929 . S
C3380 C3379 1.383 . S
C3380 C3381 1.377 . S
C3381 H3365 0.930 . S
C3381 C3380 1.377 . S
C3381 C3382 1.379 . S
C3382 H3366 0.931 . S
C3382 C3376 1.383 . S
C3382 C3381 1.379 . S
H3383 C3377 0.959 . S
H3384 C3377 0.961 . S
H3385 C3377 0.960 . S
H3386 C3378 0.930 . S
H3387 C3379 0.929 . S
H3388 C3396 0.929 . S
H3389 C3398 0.930 . S
H3390 C3400 0.930 . S
H3391 C3403 0.929 . S
H3392 C3406 0.930 . S
H3393 C3408 0.960 . S
H3394 C3408 0.960 1_554 S
H3395 C3408 0.960 . S
C3396 H3388 0.929 . S
C3396 C3397 1.377 . S
C3396 C3398 1.384 . S
C3397 C3396 1.377 . S
C3397 C3403 1.390 1_554 S
C3398 H3389 0.930 . S
C3398 C3396 1.384 . S
C3398 C3399 1.372 . S
C3399 C3398 1.372 . S
C3399 C3400 1.400 1_554 S
C3399 C3404 1.490 . S
C3400 H3390 0.930 . S
C3400 C3399 1.400 1_556 S
C3400 C3403 1.386 . S
H3401 C3417 0.930 . S
H3402 C3418 0.931 . S
C3403 H3391 0.929 . S
C3403 C3397 1.390 1_556 S
C3403 C3400 1.386 . S
C3404 C3399 1.490 . S
C3404 C3406 1.395 . S
C3404 C3407 1.403 . S
H3405 C3411 0.905 1_556 S
C3406 H3392 0.930 . S
C3406 C3404 1.395 . S
C3406 C3409 1.403 . S
C3407 C3404 1.403 . S
C3407 C3408 1.524 1_554 S
C3407 C3411 1.400 . S
C3408 H3393 0.960 . S
C3408 H3394 0.960 1_556 S
C3408 H3395 0.960 . S
C3408 C3407 1.524 1_556 S
C3409 C3406 1.403 . S
C3409 C3410 1.392 . S
C3409 C3413 1.495 . S
C3410 C3409 1.392 . S
C3410 C3411 1.385 . S
C3410 C3412 1.478 . S
C3411 H3405 0.905 1_554 S
C3411 C3407 1.400 . S
C3411 C3410 1.385 . S
C3412 C3410 1.478 . S
C3412 C3414 1.381 . S
C3412 C3418 1.383 1_554 S
C3413 C3409 1.495 . S
C3413 H3419 0.959 . S
C3413 H3420 0.961 . S
C3413 H3421 0.960 . S
C3414 C3412 1.381 . S
C3414 C3415 1.394 . S
C3414 H3422 0.930 . S
C3415 C3414 1.394 . S
C3415 C3416 1.383 . S
C3415 H3423 0.929 . S
C3416 C3415 1.383 . S
C3416 C3417 1.377 1_554 S
C3417 H3401 0.930 . S
C3417 C3416 1.377 1_556 S
C3417 C3418 1.379 . S
C3418 H3402 0.931 . S
C3418 C3412 1.383 1_556 S
C3418 C3417 1.379 . S
H3419 C3413 0.959 . S
H3420 C3413 0.961 . S
H3421 C3413 0.960 . S
H3422 C3414 0.930 . S
H3423 C3415 0.929 . S
H3424 C3432 0.929 . S
H3425 C3434 0.930 . S
H3426 C3436 0.930 . S
H3427 C3439 0.929 . S
H3428 C3442 0.930 . S
H3429 C3444 0.960 . S
H3430 C3444 0.960 . S
H3431 C3444 0.960 . S
C3432 H3424 0.929 . S
C3432 C3433 1.377 . S
C3432 C3434 1.384 . S
C3433 C3432 1.377 . S
C3433 C3439 1.390 . S
C3434 H3425 0.930 . S
C3434 C3432 1.384 . S
C3434 C3435 1.372 . S
C3435 C3434 1.372 . S
C3435 C3436 1.400 . S
C3435 C3440 1.490 . S
C3436 H3426 0.930 . S
C3436 C3435 1.400 . S
C3436 C3439 1.386 . S
H3437 C3453 0.930 . S
H3438 C3454 0.931 . S
C3439 H3427 0.929 . S
C3439 C3433 1.390 . S
C3439 C3436 1.386 . S
C3440 C3435 1.490 . S
C3440 C3442 1.395 . S
C3440 C3443 1.403 . S
H3441 C3447 0.930 . S
C3442 H3428 0.930 . S
C3442 C3440 1.395 . S
C3442 C3445 1.403 . S
C3443 C3440 1.403 . S
C3443 C3444 1.524 . S
C3443 C3447 1.400 . S
C3444 H3429 0.960 . S
C3444 H3430 0.960 . S
C3444 H3431 0.960 . S
C3444 C3443 1.524 . S
C3445 C3442 1.403 . S
C3445 C3446 1.392 . S
C3445 C3449 1.495 . S
C3446 C3445 1.392 . S
C3446 C3447 1.385 . S
C3446 C3448 1.478 . S
C3447 H3441 0.930 . S
C3447 C3443 1.400 . S
C3447 C3446 1.385 . S
C3448 C3446 1.478 . S
C3448 C3450 1.381 . S
C3448 C3454 1.383 . S
C3449 C3445 1.495 . S
C3449 H3455 0.959 . S
C3449 H3456 0.961 . S
C3449 H3457 0.960 . S
C3450 C3448 1.381 . S
C3450 C3451 1.394 . S
C3450 H3458 0.930 . S
C3451 C3450 1.394 . S
C3451 C3452 1.383 . S
C3451 H3459 0.929 . S
C3452 C3451 1.383 . S
C3452 C3453 1.377 . S
C3453 H3437 0.930 . S
C3453 C3452 1.377 . S
C3453 C3454 1.379 . S
C3454 H3438 0.931 . S
C3454 C3448 1.383 . S
C3454 C3453 1.379 . S
H3455 C3449 0.959 . S
H3456 C3449 0.961 . S
H3457 C3449 0.960 . S
H3458 C3450 0.930 . S
H3459 C3451 0.929 . S
H3460 C3468 0.929 1_556 S
H3461 C3470 0.887 1_556 S
H3462 C3472 0.930 . S
H3463 C3475 0.929 . S
H3464 C3478 0.930 . S
H3465 C3480 0.960 . S
H3466 C3480 0.960 . S
H3467 C3480 0.960 . S
C3468 H3460 0.929 1_554 S
C3468 C3469 1.377 . S
C3468 C3470 1.384 . S
C3469 C3468 1.377 . S
C3469 C3475 1.390 . S
C3470 H3461 0.887 1_554 S
C3470 C3468 1.384 . S
C3470 C3471 1.372 . S
C3471 C3470 1.372 . S
C3471 C3472 1.400 . S
C3471 C3476 1.490 . S
C3472 H3462 0.930 . S
C3472 C3471 1.400 . S
C3472 C3475 1.386 . S
H3473 C3489 0.930 . S
H3474 C3490 0.931 . S
C3475 H3463 0.929 . S
C3475 C3469 1.390 . S
C3475 C3472 1.386 . S
C3476 C3471 1.490 . S
C3476 C3478 1.395 . S
C3476 C3479 1.403 . S
H3477 C3483 0.930 . S
C3478 H3464 0.930 . S
C3478 C3476 1.395 . S
C3478 C3481 1.403 . S
C3479 C3476 1.403 . S
C3479 C3480 1.524 . S
C3479 C3483 1.400 . S
C3480 H3465 0.960 . S
C3480 H3466 0.960 . S
C3480 H3467 0.960 . S
C3480 C3479 1.524 . S
C3481 C3478 1.403 . S
C3481 C3482 1.392 . S
C3481 C3485 1.495 . S
C3482 C3481 1.392 . S
C3482 C3483 1.385 . S
C3482 C3484 1.478 . S
C3483 H3477 0.930 . S
C3483 C3479 1.400 . S
C3483 C3482 1.385 . S
C3484 C3482 1.478 . S
C3484 C3486 1.381 . S
C3484 C3490 1.383 . S
C3485 C3481 1.495 . S
C3485 H3491 0.959 . S
C3485 H3492 0.961 . S
C3485 H3493 0.960 . S
C3486 C3484 1.381 . S
C3486 C3487 1.394 . S
C3486 H3494 0.930 . S
C3487 C3486 1.394 . S
C3487 C3488 1.383 . S
C3487 H3495 0.929 . S
C3488 C3487 1.383 . S
C3488 C3489 1.377 . S
C3489 H3473 0.930 . S
C3489 C3488 1.377 . S
C3489 C3490 1.379 . S
C3490 H3474 0.931 . S
C3490 C3484 1.383 . S
C3490 C3489 1.379 . S
H3491 C3485 0.959 . S
H3492 C3485 0.961 . S
H3493 C3485 0.960 . S
H3494 C3486 0.930 . S
H3495 C3487 0.929 . S
H3496 C3504 0.929 . S
H3497 C3506 0.930 . S
H3498 C3508 0.930 . S
H3499 C3511 0.929 . S
H3500 C3514 0.930 . S
H3501 C3516 0.960 . S
H3502 C3516 0.960 . S
H3503 C3516 0.960 . S
C3504 H3496 0.929 . S
C3504 C3505 1.377 . S
C3504 C3506 1.384 . S
C3505 C3504 1.377 . S
C3505 C3511 1.390 . S
C3506 H3497 0.930 . S
C3506 C3504 1.384 . S
C3506 C3507 1.372 . S
C3507 C3506 1.372 . S
C3507 C3508 1.400 . S
C3507 C3512 1.490 . S
C3508 H3498 0.930 . S
C3508 C3507 1.400 . S
C3508 C3511 1.386 . S
H3509 C3525 0.930 . S
H3510 C3526 0.931 . S
C3511 H3499 0.929 . S
C3511 C3505 1.390 . S
C3511 C3508 1.386 . S
C3512 C3507 1.490 . S
C3512 C3514 1.395 . S
C3512 C3515 1.403 . S
H3513 C3519 0.930 . S
C3514 H3500 0.930 . S
C3514 C3512 1.395 . S
C3514 C3517 1.403 . S
C3515 C3512 1.403 . S
C3515 C3516 1.524 . S
C3515 C3519 1.400 . S
C3516 H3501 0.960 . S
C3516 H3502 0.960 . S
C3516 H3503 0.960 . S
C3516 C3515 1.524 . S
C3517 C3514 1.403 . S
C3517 C3518 1.392 . S
C3517 C3521 1.495 . S
C3518 C3517 1.392 . S
C3518 C3519 1.385 . S
C3518 C3520 1.478 . S
C3519 H3513 0.930 . S
C3519 C3515 1.400 . S
C3519 C3518 1.385 . S
C3520 C3518 1.478 . S
C3520 C3522 1.381 . S
C3520 C3526 1.383 . S
C3521 C3517 1.495 . S
C3521 H3527 0.959 . S
C3521 H3528 0.961 . S
C3521 H3529 0.960 . S
C3522 C3520 1.381 . S
C3522 C3523 1.394 . S
C3522 H3530 0.930 . S
C3523 C3522 1.394 . S
C3523 C3524 1.383 . S
C3523 H3531 0.929 . S
C3524 C3523 1.383 . S
C3524 C3525 1.377 . S
C3525 H3509 0.930 . S
C3525 C3524 1.377 . S
C3525 C3526 1.379 . S
C3526 H3510 0.931 . S
C3526 C3520 1.383 . S
C3526 C3525 1.379 . S
H3527 C3521 0.959 . S
H3528 C3521 0.961 . S
H3529 C3521 0.960 . S
H3530 C3522 0.930 . S
H3531 C3523 0.929 . S
H3532 C3540 0.929 . S
H3533 C3542 0.930 . S
H3534 C3544 0.930 . S
H3535 C3547 0.929 . S
H3536 C3550 0.930 . S
H3537 C3552 0.960 . S
H3538 C3552 0.960 . S
H3539 C3552 0.960 . S
C3540 H3532 0.929 . S
C3540 C3541 1.377 . S
C3540 C3542 1.384 . S
C3541 C3540 1.377 . S
C3541 C3547 1.390 . S
C3542 H3533 0.930 . S
C3542 C3540 1.384 . S
C3542 C3543 1.372 . S
C3543 C3542 1.372 . S
C3543 C3544 1.400 . S
C3543 C3548 1.490 . S
C3544 H3534 0.930 . S
C3544 C3543 1.400 . S
C3544 C3547 1.386 . S
H3545 C3561 0.930 . S
H3546 C3562 0.931 . S
C3547 H3535 0.929 . S
C3547 C3541 1.390 . S
C3547 C3544 1.386 . S
C3548 C3543 1.490 . S
C3548 C3550 1.395 . S
C3548 C3551 1.403 . S
H3549 C3555 0.930 . S
C3550 H3536 0.930 . S
C3550 C3548 1.395 . S
C3550 C3553 1.403 . S
C3551 C3548 1.403 . S
C3551 C3552 1.524 . S
C3551 C3555 1.400 . S
C3552 H3537 0.960 . S
C3552 H3538 0.960 . S
C3552 H3539 0.960 . S
C3552 C3551 1.524 . S
C3553 C3550 1.403 . S
C3553 C3554 1.392 . S
C3553 C3557 1.495 . S
C3554 C3553 1.392 . S
C3554 C3555 1.385 . S
C3554 C3556 1.478 . S
C3555 H3549 0.930 . S
C3555 C3551 1.400 . S
C3555 C3554 1.385 . S
C3556 C3554 1.478 . S
C3556 C3558 1.381 . S
C3556 C3562 1.383 . S
C3557 C3553 1.495 . S
C3557 H3563 0.959 . S
C3557 H3564 0.961 . S
C3557 H3565 0.960 . S
C3558 C3556 1.381 . S
C3558 C3559 1.394 . S
C3558 H3566 0.930 . S
C3559 C3558 1.394 . S
C3559 C3560 1.383 . S
C3559 H3567 0.929 . S
C3560 C3559 1.383 . S
C3560 C3561 1.377 . S
C3561 H3545 0.930 . S
C3561 C3560 1.377 . S
C3561 C3562 1.379 . S
C3562 H3546 0.931 . S
C3562 C3556 1.383 . S
C3562 C3561 1.379 . S
H3563 C3557 0.959 . S
H3564 C3557 0.961 . S
H3565 C3557 0.960 . S
H3566 C3558 0.930 . S
H3567 C3559 0.929 . S
H3568 C3576 0.929 . S
H3569 C3578 0.930 . S
H3570 C3580 0.930 . S
H3571 C3583 0.929 . S
H3572 C3586 0.930 . S
H3573 C3588 0.960 . S
H3574 C3588 0.960 . S
H3575 C3588 0.960 . S
C3576 H3568 0.929 . S
C3576 C3577 1.377 . S
C3576 C3578 1.384 . S
C3577 C3576 1.377 . S
C3577 C3583 1.390 . S
C3578 H3569 0.930 . S
C3578 C3576 1.384 . S
C3578 C3579 1.372 . S
C3579 C3578 1.372 . S
C3579 C3580 1.400 . S
C3579 C3584 1.490 . S
C3580 H3570 0.930 . S
C3580 C3579 1.400 . S
C3580 C3583 1.386 . S
H3581 C3597 0.930 . S
H3582 C3598 0.931 . S
C3583 H3571 0.929 . S
C3583 C3577 1.390 . S
C3583 C3580 1.386 . S
C3584 C3579 1.490 . S
C3584 C3586 1.395 . S
C3584 C3587 1.403 . S
H3585 C3591 0.930 . S
C3586 H3572 0.930 . S
C3586 C3584 1.395 . S
C3586 C3589 1.403 . S
C3587 C3584 1.403 . S
C3587 C3588 1.524 . S
C3587 C3591 1.400 . S
C3588 H3573 0.960 . S
C3588 H3574 0.960 . S
C3588 H3575 0.960 . S
C3588 C3587 1.524 . S
C3589 C3586 1.403 . S
C3589 C3590 1.392 . S
C3589 C3593 1.495 . S
C3590 C3589 1.392 . S
C3590 C3591 1.385 . S
C3590 C3592 1.478 . S
C3591 H3585 0.930 . S
C3591 C3587 1.400 . S
C3591 C3590 1.385 . S
C3592 C3590 1.478 . S
C3592 C3594 1.381 . S
C3592 C3598 1.383 . S
C3593 C3589 1.495 . S
C3593 H3599 0.959 . S
C3593 H3600 0.961 . S
C3593 H3601 0.960 . S
C3594 C3592 1.381 . S
C3594 C3595 1.394 . S
C3594 H3602 0.930 . S
C3595 C3594 1.394 . S
C3595 C3596 1.383 . S
C3595 H3603 0.929 . S
C3596 C3595 1.383 . S
C3596 C3597 1.377 . S
C3597 H3581 0.930 . S
C3597 C3596 1.377 . S
C3597 C3598 1.379 . S
C3598 H3582 0.931 . S
C3598 C3592 1.383 . S
C3598 C3597 1.379 . S
H3599 C3593 0.959 . S
H3600 C3593 0.961 . S
H3601 C3593 0.960 . S
H3602 C3594 0.930 . S
H3603 C3595 0.929 . S
H3604 C3612 0.929 . S
H3605 C3614 0.930 . S
H3606 C3616 0.930 . S
H3607 C3619 0.929 . S
H3608 C3622 0.930 . S
H3609 C3624 0.960 . S
H3610 C3624 0.960 . S
H3611 C3624 0.960 . S
C3612 H3604 0.929 . S
C3612 C3613 1.377 . S
C3612 C3614 1.384 . S
C3613 C3612 1.377 . S
C3613 C3619 1.390 . S
C3614 H3605 0.930 . S
C3614 C3612 1.384 . S
C3614 C3615 1.372 . S
C3615 C3614 1.372 . S
C3615 C3616 1.400 . S
C3615 C3620 1.490 . S
C3616 H3606 0.930 . S
C3616 C3615 1.400 . S
C3616 C3619 1.386 . S
H3617 C3633 0.930 . S
H3618 C3634 0.931 . S
C3619 H3607 0.929 . S
C3619 C3613 1.390 . S
C3619 C3616 1.386 . S
C3620 C3615 1.490 . S
C3620 C3622 1.395 . S
C3620 C3623 1.403 . S
H3621 C3627 0.930 . S
C3622 H3608 0.930 . S
C3622 C3620 1.395 . S
C3622 C3625 1.403 . S
C3623 C3620 1.403 . S
C3623 C3624 1.524 . S
C3623 C3627 1.400 . S
C3624 H3609 0.960 . S
C3624 H3610 0.960 . S
C3624 H3611 0.960 . S
C3624 C3623 1.524 . S
C3625 C3622 1.403 . S
C3625 C3626 1.392 . S
C3625 C3629 1.495 . S
C3626 C3625 1.392 . S
C3626 C3627 1.385 . S
C3626 C3628 1.478 . S
C3627 H3621 0.930 . S
C3627 C3623 1.400 . S
C3627 C3626 1.385 . S
C3628 C3626 1.478 . S
C3628 C3630 1.381 . S
C3628 C3634 1.383 . S
C3629 C3625 1.495 . S
C3629 H3635 0.959 . S
C3629 H3636 0.961 . S
C3629 H3637 0.960 . S
C3630 C3628 1.381 . S
C3630 C3631 1.394 . S
C3630 H3638 0.930 . S
C3631 C3630 1.394 . S
C3631 C3632 1.383 . S
C3631 H3639 0.929 . S
C3632 C3631 1.383 . S
C3632 C3633 1.377 . S
C3633 H3617 0.930 . S
C3633 C3632 1.377 . S
C3633 C3634 1.379 . S
C3634 H3618 0.931 . S
C3634 C3628 1.383 . S
C3634 C3633 1.379 . S
H3635 C3629 0.959 . S
H3636 C3629 0.961 . S
H3637 C3629 0.960 . S
H3638 C3630 0.930 . S
H3639 C3631 0.929 . S
H3640 C3648 0.929 . S
H3641 C3650 0.930 . S
H3642 C3652 0.930 . S
H3643 C3655 0.929 . S
H3644 C3658 0.930 . S
H3645 C3660 0.960 . S
H3646 C3660 0.960 . S
H3647 C3660 0.960 . S
C3648 H3640 0.929 . S
C3648 C3649 1.377 . S
C3648 C3650 1.384 . S
C3649 C3648 1.377 . S
C3649 C3655 1.390 . S
C3650 H3641 0.930 . S
C3650 C3648 1.384 . S
C3650 C3651 1.372 . S
C3651 C3650 1.372 . S
C3651 C3652 1.400 . S
C3651 C3656 1.490 . S
C3652 H3642 0.930 . S
C3652 C3651 1.400 . S
C3652 C3655 1.386 . S
H3653 C3669 0.930 . S
H3654 C3670 0.931 . S
C3655 H3643 0.929 . S
C3655 C3649 1.390 . S
C3655 C3652 1.386 . S
C3656 C3651 1.490 . S
C3656 C3658 1.395 . S
C3656 C3659 1.403 . S
H3657 C3663 0.930 . S
C3658 H3644 0.930 . S
C3658 C3656 1.395 . S
C3658 C3661 1.403 . S
C3659 C3656 1.403 . S
C3659 C3660 1.524 . S
C3659 C3663 1.400 . S
C3660 H3645 0.960 . S
C3660 H3646 0.960 . S
C3660 H3647 0.960 . S
C3660 C3659 1.524 . S
C3661 C3658 1.403 . S
C3661 C3662 1.392 . S
C3661 C3665 1.495 . S
C3662 C3661 1.392 . S
C3662 C3663 1.385 . S
C3662 C3664 1.478 . S
C3663 H3657 0.930 . S
C3663 C3659 1.400 . S
C3663 C3662 1.385 . S
C3664 C3662 1.478 . S
C3664 C3666 1.381 . S
C3664 C3670 1.383 . S
C3665 C3661 1.495 . S
C3665 H3671 0.959 . S
C3665 H3672 0.961 . S
C3665 H3673 0.960 . S
C3666 C3664 1.381 . S
C3666 C3667 1.394 . S
C3666 H3674 0.906 1_455 S
C3667 C3666 1.394 . S
C3667 C3668 1.383 . S
C3667 H3675 0.929 1_455 S
C3668 C3667 1.383 . S
C3668 C3669 1.377 . S
C3669 H3653 0.930 . S
C3669 C3668 1.377 . S
C3669 C3670 1.379 . S
C3670 H3654 0.931 . S
C3670 C3664 1.383 . S
C3670 C3669 1.379 . S
H3671 C3665 0.959 . S
H3672 C3665 0.961 . S
H3673 C3665 0.960 . S
H3674 C3666 0.906 1_655 S
H3675 C3667 0.929 1_655 S
H3676 C3684 0.929 . S
H3677 C3686 0.930 . S
H3678 C3688 0.930 . S
H3679 C3691 0.929 . S
H3680 C3694 0.930 . S
H3681 C3696 0.960 . S
H3682 C3696 0.960 . S
H3683 C3696 0.960 . S
C3684 H3676 0.929 . S
C3684 C3685 1.377 . S
C3684 C3686 1.384 . S
C3685 C3684 1.377 . S
C3685 C3691 1.390 . S
C3686 H3677 0.930 . S
C3686 C3684 1.384 . S
C3686 C3687 1.372 . S
C3687 C3686 1.372 . S
C3687 C3688 1.400 . S
C3687 C3692 1.490 . S
C3688 H3678 0.930 . S
C3688 C3687 1.400 . S
C3688 C3691 1.386 . S
H3689 C3705 0.930 . S
H3690 C3706 0.931 . S
C3691 H3679 0.929 . S
C3691 C3685 1.390 . S
C3691 C3688 1.386 . S
C3692 C3687 1.490 . S
C3692 C3694 1.395 . S
C3692 C3695 1.403 . S
H3693 C3699 0.930 . S
C3694 H3680 0.930 . S
C3694 C3692 1.395 . S
C3694 C3697 1.403 . S
C3695 C3692 1.403 . S
C3695 C3696 1.524 . S
C3695 C3699 1.400 . S
C3696 H3681 0.960 . S
C3696 H3682 0.960 . S
C3696 H3683 0.960 . S
C3696 C3695 1.524 . S
C3697 C3694 1.403 . S
C3697 C3698 1.392 . S
C3697 C3701 1.495 . S
C3698 C3697 1.392 . S
C3698 C3699 1.385 . S
C3698 C3700 1.478 . S
C3699 H3693 0.930 . S
C3699 C3695 1.400 . S
C3699 C3698 1.385 . S
C3700 C3698 1.478 . S
C3700 C3702 1.381 . S
C3700 C3706 1.383 . S
C3701 C3697 1.495 . S
C3701 H3707 0.959 . S
C3701 H3708 0.961 . S
C3701 H3709 0.960 . S
C3702 C3700 1.381 . S
C3702 C3703 1.394 . S
C3702 H3710 0.930 . S
C3703 C3702 1.394 . S
C3703 C3704 1.383 . S
C3703 H3711 0.929 . S
C3704 C3703 1.383 . S
C3704 C3705 1.377 . S
C3705 H3689 0.930 . S
C3705 C3704 1.377 . S
C3705 C3706 1.379 . S
C3706 H3690 0.931 . S
C3706 C3700 1.383 . S
C3706 C3705 1.379 . S
H3707 C3701 0.959 . S
H3708 C3701 0.961 . S
H3709 C3701 0.960 . S
H3710 C3702 0.930 . S
H3711 C3703 0.929 . S
H3712 C3720 0.929 . S
H3713 C3722 0.930 . S
H3714 C3724 0.930 . S
H3715 C3727 0.929 . S
H3716 C3730 0.930 . S
H3717 C3732 0.960 . S
H3718 C3732 0.960 . S
H3719 C3732 0.960 . S
C3720 H3712 0.929 . S
C3720 C3721 1.377 . S
C3720 C3722 1.384 . S
C3721 C3720 1.377 . S
C3721 C3727 1.390 . S
C3722 H3713 0.930 . S
C3722 C3720 1.384 . S
C3722 C3723 1.372 . S
C3723 C3722 1.372 . S
C3723 C3724 1.400 . S
C3723 C3728 1.490 . S
C3724 H3714 0.930 . S
C3724 C3723 1.400 . S
C3724 C3727 1.386 . S
H3725 C3741 0.930 . S
H3726 C3742 0.931 . S
C3727 H3715 0.929 . S
C3727 C3721 1.390 . S
C3727 C3724 1.386 . S
C3728 C3723 1.490 . S
C3728 C3730 1.395 . S
C3728 C3731 1.403 . S
H3729 C3735 0.930 . S
C3730 H3716 0.930 . S
C3730 C3728 1.395 . S
C3730 C3733 1.403 . S
C3731 C3728 1.403 . S
C3731 C3732 1.524 . S
C3731 C3735 1.400 . S
C3732 H3717 0.960 . S
C3732 H3718 0.960 . S
C3732 H3719 0.960 . S
C3732 C3731 1.524 . S
C3733 C3730 1.403 . S
C3733 C3734 1.392 . S
C3733 C3737 1.495 . S
C3734 C3733 1.392 . S
C3734 C3735 1.385 . S
C3734 C3736 1.478 . S
C3735 H3729 0.930 . S
C3735 C3731 1.400 . S
C3735 C3734 1.385 . S
C3736 C3734 1.478 . S
C3736 C3738 1.381 . S
C3736 C3742 1.383 . S
C3737 C3733 1.495 . S
C3737 H3743 0.959 . S
C3737 H3744 0.961 . S
C3737 H3745 0.960 . S
C3738 C3736 1.381 . S
C3738 C3739 1.394 . S
C3738 H3746 0.947 . S
C3739 C3738 1.394 . S
C3739 C3740 1.383 . S
C3739 H3747 0.929 1_556 S
C3740 C3739 1.383 . S
C3740 C3741 1.377 . S
C3741 H3725 0.930 . S
C3741 C3740 1.377 . S
C3741 C3742 1.379 . S
C3742 H3726 0.931 . S
C3742 C3736 1.383 . S
C3742 C3741 1.379 . S
H3743 C3737 0.959 . S
H3744 C3737 0.961 . S
H3745 C3737 0.960 . S
H3746 C3738 0.947 . S
H3747 C3739 0.929 1_554 S
H3748 C3756 0.929 . S
H3749 C3758 0.930 . S
H3750 C3760 0.930 . S
H3751 C3763 0.929 . S
H3752 C3766 0.930 . S
H3753 C3768 0.960 . S
H3754 C3768 0.960 . S
H3755 C3768 0.960 . S
C3756 H3748 0.929 . S
C3756 C3757 1.377 . S
C3756 C3758 1.384 . S
C3757 C3756 1.377 . S
C3757 C3763 1.390 . S
C3758 H3749 0.930 . S
C3758 C3756 1.384 . S
C3758 C3759 1.372 . S
C3759 C3758 1.372 . S
C3759 C3760 1.400 . S
C3759 C3764 1.490 . S
C3760 H3750 0.930 . S
C3760 C3759 1.400 . S
C3760 C3763 1.386 . S
H3761 C3777 0.930 . S
H3762 C3778 0.931 . S
C3763 H3751 0.929 . S
C3763 C3757 1.390 . S
C3763 C3760 1.386 . S
C3764 C3759 1.490 . S
C3764 C3766 1.395 . S
C3764 C3767 1.403 . S
H3765 C3771 0.930 . S
C3766 H3752 0.930 . S
C3766 C3764 1.395 . S
C3766 C3769 1.403 . S
C3767 C3764 1.403 . S
C3767 C3768 1.524 . S
C3767 C3771 1.400 . S
C3768 H3753 0.960 . S
C3768 H3754 0.960 . S
C3768 H3755 0.960 . S
C3768 C3767 1.524 . S
C3769 C3766 1.403 . S
C3769 C3770 1.392 . S
C3769 C3773 1.495 . S
C3770 C3769 1.392 . S
C3770 C3771 1.385 . S
C3770 C3772 1.478 . S
C3771 H3765 0.930 . S
C3771 C3767 1.400 . S
C3771 C3770 1.385 . S
C3772 C3770 1.478 . S
C3772 C3774 1.381 . S
C3772 C3778 1.383 . S
C3773 C3769 1.495 . S
C3773 H3779 0.959 . S
C3773 H3780 0.961 . S
C3773 H3781 0.960 . S
C3774 C3772 1.381 . S
C3774 C3775 1.394 . S
C3774 H3782 0.930 . S
C3775 C3774 1.394 . S
C3775 C3776 1.383 . S
C3775 H3783 0.929 . S
C3776 C3775 1.383 . S
C3776 C3777 1.377 . S
C3777 H3761 0.930 . S
C3777 C3776 1.377 . S
C3777 C3778 1.379 . S
C3778 H3762 0.931 . S
C3778 C3772 1.383 . S
C3778 C3777 1.379 . S
H3779 C3773 0.959 . S
H3780 C3773 0.961 . S
H3781 C3773 0.960 . S
H3782 C3774 0.930 . S
H3783 C3775 0.929 . S
H3784 C3792 0.929 . S
H3785 C3794 0.930 . S
H3786 C3796 0.930 . S
H3787 C3799 0.929 . S
H3788 C3802 0.930 . S
H3789 C3804 1.005 . S
H3790 C3804 0.968 . S
H3791 C3804 0.945 1_455 S
C3792 H3784 0.929 . S
C3792 C3793 1.377 . S
C3792 C3794 1.384 . S
C3793 C3792 1.377 . S
C3793 C3799 1.390 . S
C3794 H3785 0.930 . S
C3794 C3792 1.384 . S
C3794 C3795 1.372 . S
C3795 C3794 1.372 . S
C3795 C3796 1.400 . S
C3795 C3800 1.490 . S
C3796 H3786 0.930 . S
C3796 C3795 1.400 . S
C3796 C3799 1.386 . S
H3797 C3813 0.930 . S
H3798 C3814 0.931 . S
C3799 H3787 0.929 . S
C3799 C3793 1.390 . S
C3799 C3796 1.386 . S
C3800 C3795 1.490 . S
C3800 C3802 1.395 . S
C3800 C3803 1.403 . S
H3801 C3807 0.930 . S
C3802 H3788 0.930 . S
C3802 C3800 1.395 . S
C3802 C3805 1.403 . S
C3803 C3800 1.403 . S
C3803 C3804 1.486 1_455 S
C3803 C3807 1.400 . S
C3804 H3789 1.005 . S
C3804 H3790 0.968 . S
C3804 H3791 0.945 1_655 S
C3804 C3803 1.486 1_655 S
C3805 C3802 1.403 . S
C3805 C3806 1.392 . S
C3805 C3809 1.495 . S
C3806 C3805 1.392 . S
C3806 C3807 1.385 . S
C3806 C3808 1.478 . S
C3807 H3801 0.930 . S
C3807 C3803 1.400 . S
C3807 C3806 1.385 . S
C3808 C3806 1.478 . S
C3808 C3810 1.381 . S
C3808 C3814 1.383 . S
C3809 C3805 1.495 . S
C3809 H3815 0.959 . S
C3809 H3816 0.961 . S
C3809 H3817 0.960 . S
C3810 C3808 1.381 . S
C3810 C3811 1.394 . S
C3810 H3818 0.930 . S
C3811 C3810 1.394 . S
C3811 C3812 1.383 . S
C3811 H3819 0.929 . S
C3812 C3811 1.383 . S
C3812 C3813 1.377 . S
C3813 H3797 0.930 . S
C3813 C3812 1.377 . S
C3813 C3814 1.379 . S
C3814 H3798 0.931 . S
C3814 C3808 1.383 . S
C3814 C3813 1.379 . S
H3815 C3809 0.959 . S
H3816 C3809 0.961 . S
H3817 C3809 0.960 . S
H3818 C3810 0.930 . S
H3819 C3811 0.929 . S
H3820 C3828 0.929 . S
H3821 C3830 0.930 . S
H3822 C3832 0.930 . S
H3823 C3835 0.929 . S
H3824 C3838 0.930 . S
H3825 C3840 0.960 . S
H3826 C3840 0.960 . S
H3827 C3840 0.960 . S
C3828 H3820 0.929 . S
C3828 C3829 1.377 . S
C3828 C3830 1.384 . S
C3829 C3828 1.377 . S
C3829 C3835 1.390 . S
C3830 H3821 0.930 . S
C3830 C3828 1.384 . S
C3830 C3831 1.372 . S
C3831 C3830 1.372 . S
C3831 C3832 1.400 . S
C3831 C3836 1.490 . S
C3832 H3822 0.930 . S
C3832 C3831 1.400 . S
C3832 C3835 1.386 . S
H3833 C3849 0.930 . S
H3834 C3850 0.931 . S
C3835 H3823 0.929 . S
C3835 C3829 1.390 . S
C3835 C3832 1.386 . S
C3836 C3831 1.490 . S
C3836 C3838 1.395 . S
C3836 C3839 1.403 . S
H3837 C3843 0.930 . S
C3838 H3824 0.930 . S
C3838 C3836 1.395 . S
C3838 C3841 1.403 . S
C3839 C3836 1.403 . S
C3839 C3840 1.524 . S
C3839 C3843 1.400 . S
C3840 H3825 0.960 . S
C3840 H3826 0.960 . S
C3840 H3827 0.960 . S
C3840 C3839 1.524 . S
C3841 C3838 1.403 . S
C3841 C3842 1.392 . S
C3841 C3845 1.495 . S
C3842 C3841 1.392 . S
C3842 C3843 1.385 . S
C3842 C3844 1.478 . S
C3843 H3837 0.930 . S
C3843 C3839 1.400 . S
C3843 C3842 1.385 . S
C3844 C3842 1.478 . S
C3844 C3846 1.381 . S
C3844 C3850 1.383 . S
C3845 C3841 1.495 . S
C3845 H3851 0.959 . S
C3845 H3852 0.961 . S
C3845 H3853 0.960 . S
C3846 C3844 1.381 . S
C3846 C3847 1.394 . S
C3846 H3854 0.930 . S
C3847 C3846 1.394 . S
C3847 C3848 1.383 . S
C3847 H3855 0.929 . S
C3848 C3847 1.383 . S
C3848 C3849 1.377 . S
C3849 H3833 0.930 . S
C3849 C3848 1.377 . S
C3849 C3850 1.379 . S
C3850 H3834 0.931 . S
C3850 C3844 1.383 . S
C3850 C3849 1.379 . S
H3851 C3845 0.959 . S
H3852 C3845 0.961 . S
H3853 C3845 0.960 . S
H3854 C3846 0.930 . S
H3855 C3847 0.929 . S
H3856 C3864 0.929 . S
H3857 C3866 0.930 . S
H3858 C3868 0.930 . S
H3859 C3871 0.929 . S
H3860 C3874 0.930 . S
H3861 C3876 0.960 . S
H3862 C3876 0.960 . S
H3863 C3876 0.960 . S
C3864 H3856 0.929 . S
C3864 C3865 1.377 . S
C3864 C3866 1.384 . S
C3865 C3864 1.377 . S
C3865 C3871 1.390 . S
C3866 H3857 0.930 . S
C3866 C3864 1.384 . S
C3866 C3867 1.372 . S
C3867 C3866 1.372 . S
C3867 C3868 1.400 . S
C3867 C3872 1.490 . S
C3868 H3858 0.930 . S
C3868 C3867 1.400 . S
C3868 C3871 1.386 . S
H3869 C3885 0.930 . S
H3870 C3886 0.931 . S
C3871 H3859 0.929 . S
C3871 C3865 1.390 . S
C3871 C3868 1.386 . S
C3872 C3867 1.490 . S
C3872 C3874 1.395 . S
C3872 C3875 1.403 . S
H3873 C3879 0.930 . S
C3874 H3860 0.930 . S
C3874 C3872 1.395 . S
C3874 C3877 1.403 . S
C3875 C3872 1.403 . S
C3875 C3876 1.524 . S
C3875 C3879 1.400 . S
C3876 H3861 0.960 . S
C3876 H3862 0.960 . S
C3876 H3863 0.960 . S
C3876 C3875 1.524 . S
C3877 C3874 1.403 . S
C3877 C3878 1.392 . S
C3877 C3881 1.495 . S
C3878 C3877 1.392 . S
C3878 C3879 1.385 . S
C3878 C3880 1.478 . S
C3879 H3873 0.930 . S
C3879 C3875 1.400 . S
C3879 C3878 1.385 . S
C3880 C3878 1.478 . S
C3880 C3882 1.381 . S
C3880 C3886 1.383 . S
C3881 C3877 1.495 . S
C3881 H3887 0.959 . S
C3881 H3888 0.961 . S
C3881 H3889 0.960 . S
C3882 C3880 1.381 . S
C3882 C3883 1.394 . S
C3882 H3890 0.930 . S
C3883 C3882 1.394 . S
C3883 C3884 1.383 . S
C3883 H3891 0.929 . S
C3884 C3883 1.383 . S
C3884 C3885 1.377 . S
C3885 H3869 0.930 . S
C3885 C3884 1.377 . S
C3885 C3886 1.379 . S
C3886 H3870 0.931 . S
C3886 C3880 1.383 . S
C3886 C3885 1.379 . S
H3887 C3881 0.959 . S
H3888 C3881 0.961 . S
H3889 C3881 0.960 . S
H3890 C3882 0.930 . S
H3891 C3883 0.929 . S
H3892 C3900 0.929 . S
H3893 C3902 0.930 . S
H3894 C3904 0.930 . S
H3895 C3907 0.929 . S
H3896 C3910 0.930 . S
H3897 C3912 0.960 . S
H3898 C3912 0.960 . S
H3899 C3912 0.960 . S
C3900 H3892 0.929 . S
C3900 C3901 1.377 . S
C3900 C3902 1.384 . S
C3901 C3900 1.377 . S
C3901 C3907 1.390 . S
C3902 H3893 0.930 . S
C3902 C3900 1.384 . S
C3902 C3903 1.372 . S
C3903 C3902 1.372 . S
C3903 C3904 1.400 . S
C3903 C3908 1.490 . S
C3904 H3894 0.930 . S
C3904 C3903 1.400 . S
C3904 C3907 1.386 . S
H3905 C3921 0.930 . S
H3906 C3922 0.931 . S
C3907 H3895 0.929 . S
C3907 C3901 1.390 . S
C3907 C3904 1.386 . S
C3908 C3903 1.490 . S
C3908 C3910 1.395 . S
C3908 C3911 1.403 . S
H3909 C3915 0.930 . S
C3910 H3896 0.930 . S
C3910 C3908 1.395 . S
C3910 C3913 1.403 . S
C3911 C3908 1.403 . S
C3911 C3912 1.524 . S
C3911 C3915 1.400 . S
C3912 H3897 0.960 . S
C3912 H3898 0.960 . S
C3912 H3899 0.960 . S
C3912 C3911 1.524 . S
C3913 C3910 1.403 . S
C3913 C3914 1.392 . S
C3913 C3917 1.495 . S
C3914 C3913 1.392 . S
C3914 C3915 1.385 . S
C3914 C3916 1.478 . S
C3915 H3909 0.930 . S
C3915 C3911 1.400 . S
C3915 C3914 1.385 . S
C3916 C3914 1.478 . S
C3916 C3918 1.381 . S
C3916 C3922 1.383 . S
C3917 C3913 1.495 . S
C3917 H3923 0.959 . S
C3917 H3924 0.961 . S
C3917 H3925 0.960 . S
C3918 C3916 1.381 . S
C3918 C3919 1.394 . S
C3918 H3926 0.930 . S
C3919 C3918 1.394 . S
C3919 C3920 1.383 . S
C3919 H3927 0.929 . S
C3920 C3919 1.383 . S
C3920 C3921 1.377 . S
C3921 H3905 0.930 . S
C3921 C3920 1.377 . S
C3921 C3922 1.379 . S
C3922 H3906 0.931 . S
C3922 C3916 1.383 . S
C3922 C3921 1.379 . S
H3923 C3917 0.959 . S
H3924 C3917 0.961 . S
H3925 C3917 0.960 . S
H3926 C3918 0.930 . S
H3927 C3919 0.929 . S
H3928 C3936 0.929 . S
H3929 C3938 0.930 . S
H3930 C3940 0.930 . S
H3931 C3943 0.929 . S
H3932 C3946 0.930 . S
H3933 C3948 0.960 . S
H3934 C3948 0.960 . S
H3935 C3948 0.960 . S
C3936 H3928 0.929 . S
C3936 C3937 1.377 . S
C3936 C3938 1.384 . S
C3937 C3936 1.377 . S
C3937 C3943 1.390 . S
C3938 H3929 0.930 . S
C3938 C3936 1.384 . S
C3938 C3939 1.372 . S
C3939 C3938 1.372 . S
C3939 C3940 1.400 . S
C3939 C3944 1.490 . S
C3940 H3930 0.930 . S
C3940 C3939 1.400 . S
C3940 C3943 1.386 . S
H3941 C3957 0.930 . S
H3942 C3958 0.931 . S
C3943 H3931 0.929 . S
C3943 C3937 1.390 . S
C3943 C3940 1.386 . S
C3944 C3939 1.490 . S
C3944 C3946 1.395 . S
C3944 C3947 1.403 . S
H3945 C3951 0.930 . S
C3946 H3932 0.930 . S
C3946 C3944 1.395 . S
C3946 C3949 1.403 . S
C3947 C3944 1.403 . S
C3947 C3948 1.524 . S
C3947 C3951 1.400 . S
C3948 H3933 0.960 . S
C3948 H3934 0.960 . S
C3948 H3935 0.960 . S
C3948 C3947 1.524 . S
C3949 C3946 1.403 . S
C3949 C3950 1.392 . S
C3949 C3953 1.495 1_655 S
C3950 C3949 1.392 . S
C3950 C3951 1.385 . S
C3950 C3952 1.478 . S
C3951 H3945 0.930 . S
C3951 C3947 1.400 . S
C3951 C3950 1.385 . S
C3952 C3950 1.478 . S
C3952 C3954 1.381 . S
C3952 C3958 1.383 . S
C3953 C3949 1.495 1_455 S
C3953 H3959 0.959 . S
C3953 H3960 0.961 . S
C3953 H3961 0.960 . S
C3954 C3952 1.381 . S
C3954 C3955 1.394 1_655 S
C3954 H3962 0.944 . S
C3955 C3954 1.394 1_455 S
C3955 C3956 1.383 1_455 S
C3955 H3963 0.929 . S
C3956 C3955 1.383 1_655 S
C3956 C3957 1.377 . S
C3957 H3941 0.930 . S
C3957 C3956 1.377 . S
C3957 C3958 1.379 . S
C3958 H3942 0.931 . S
C3958 C3952 1.383 . S
C3958 C3957 1.379 . S
H3959 C3953 0.959 . S
H3960 C3953 0.961 . S
H3961 C3953 0.960 . S
H3962 C3954 0.944 . S
H3963 C3955 0.929 . S
H3964 C3972 0.929 . S
H3965 C3974 0.930 . S
H3966 C3976 0.930 . S
H3967 C3979 0.929 . S
H3968 C3982 0.930 . S
H3969 C3984 0.960 . S
H3970 C3984 0.960 . S
H3971 C3984 0.960 . S
C3972 H3964 0.929 . S
C3972 C3973 1.377 . S
C3972 C3974 1.384 . S
C3973 C3972 1.377 . S
C3973 C3979 1.390 . S
C3974 H3965 0.930 . S
C3974 C3972 1.384 . S
C3974 C3975 1.372 . S
C3975 C3974 1.372 . S
C3975 C3976 1.400 . S
C3975 C3980 1.490 . S
C3976 H3966 0.930 . S
C3976 C3975 1.400 . S
C3976 C3979 1.386 . S
H3977 C3993 0.930 . S
H3978 C3994 0.931 . S
C3979 H3967 0.929 . S
C3979 C3973 1.390 . S
C3979 C3976 1.386 . S
C3980 C3975 1.490 . S
C3980 C3982 1.395 . S
C3980 C3983 1.403 . S
H3981 C3987 0.930 . S
C3982 H3968 0.930 . S
C3982 C3980 1.395 . S
C3982 C3985 1.403 . S
C3983 C3980 1.403 . S
C3983 C3984 1.524 . S
C3983 C3987 1.400 . S
C3984 H3969 0.960 . S
C3984 H3970 0.960 . S
C3984 H3971 0.960 . S
C3984 C3983 1.524 . S
C3985 C3982 1.403 . S
C3985 C3986 1.392 . S
C3985 C3989 1.495 . S
C3986 C3985 1.392 . S
C3986 C3987 1.385 . S
C3986 C3988 1.478 . S
C3987 H3981 0.930 . S
C3987 C3983 1.400 . S
C3987 C3986 1.385 . S
C3988 C3986 1.478 . S
C3988 C3990 1.381 . S
C3988 C3994 1.383 . S
C3989 C3985 1.495 . S
C3989 H3995 0.959 . S
C3989 H3996 0.961 . S
C3989 H3997 0.960 . S
C3990 C3988 1.381 . S
C3990 C3991 1.394 . S
C3990 H3998 0.930 . S
C3991 C3990 1.394 . S
C3991 C3992 1.383 . S
C3991 H3999 0.929 . S
C3992 C3991 1.383 . S
C3992 C3993 1.377 . S
C3993 H3977 0.930 . S
C3993 C3992 1.377 . S
C3993 C3994 1.379 . S
C3994 H3978 0.931 . S
C3994 C3988 1.383 . S
C3994 C3993 1.379 . S
H3995 C3989 0.959 . S
H3996 C3989 0.961 . S
H3997 C3989 0.960 . S
H3998 C3990 0.930 . S
H3999 C3991 0.929 . S
H4000 C4008 0.929 . S
H4001 C4010 0.930 . S
H4002 C4012 0.930 . S
H4003 C4015 0.929 . S
H4004 C4018 0.930 . S
H4005 C4020 0.960 . S
H4006 C4020 0.960 . S
H4007 C4020 0.960 . S
C4008 H4000 0.929 . S
C4008 C4009 1.377 . S
C4008 C4010 1.384 . S
C4009 C4008 1.377 . S
C4009 C4015 1.390 . S
C4010 H4001 0.930 . S
C4010 C4008 1.384 . S
C4010 C4011 1.372 . S
C4011 C4010 1.372 . S
C4011 C4012 1.400 . S
C4011 C4016 1.490 . S
C4012 H4002 0.930 . S
C4012 C4011 1.400 . S
C4012 C4015 1.386 . S
H4013 C4029 0.930 . S
H4014 C4030 0.931 . S
C4015 H4003 0.929 . S
C4015 C4009 1.390 . S
C4015 C4012 1.386 . S
C4016 C4011 1.490 . S
C4016 C4018 1.395 . S
C4016 C4019 1.403 . S
H4017 C4023 0.930 . S
C4018 H4004 0.930 . S
C4018 C4016 1.395 . S
C4018 C4021 1.403 . S
C4019 C4016 1.403 . S
C4019 C4020 1.524 . S
C4019 C4023 1.400 . S
C4020 H4005 0.960 . S
C4020 H4006 0.960 . S
C4020 H4007 0.960 . S
C4020 C4019 1.524 . S
C4021 C4018 1.403 . S
C4021 C4022 1.392 . S
C4021 C4025 1.495 . S
C4022 C4021 1.392 . S
C4022 C4023 1.385 . S
C4022 C4024 1.478 . S
C4023 H4017 0.930 . S
C4023 C4019 1.400 . S
C4023 C4022 1.385 . S
C4024 C4022 1.478 . S
C4024 C4026 1.381 . S
C4024 C4030 1.383 . S
C4025 C4021 1.495 . S
C4025 H4031 0.959 . S
C4025 H4032 0.961 . S
C4025 H4033 0.960 . S
C4026 C4024 1.381 . S
C4026 C4027 1.394 . S
C4026 H4034 0.930 . S
C4027 C4026 1.394 . S
C4027 C4028 1.383 . S
C4027 H4035 0.929 . S
C4028 C4027 1.383 . S
C4028 C4029 1.377 . S
C4029 H4013 0.930 . S
C4029 C4028 1.377 . S
C4029 C4030 1.379 . S
C4030 H4014 0.931 . S
C4030 C4024 1.383 . S
C4030 C4029 1.379 . S
H4031 C4025 0.959 . S
H4032 C4025 0.961 . S
H4033 C4025 0.960 . S
H4034 C4026 0.930 . S
H4035 C4027 0.929 . S
H4036 C4044 0.929 . S
H4037 C4046 0.930 . S
H4038 C4048 0.930 . S
H4039 C4051 0.929 . S
H4040 C4054 0.930 . S
H4041 C4056 0.960 . S
H4042 C4056 0.960 . S
H4043 C4056 0.960 . S
C4044 H4036 0.929 . S
C4044 C4045 1.377 . S
C4044 C4046 1.384 . S
C4045 C4044 1.377 . S
C4045 C4051 1.390 . S
C4046 H4037 0.930 . S
C4046 C4044 1.384 . S
C4046 C4047 1.372 . S
C4047 C4046 1.372 . S
C4047 C4048 1.400 . S
C4047 C4052 1.490 . S
C4048 H4038 0.930 . S
C4048 C4047 1.400 . S
C4048 C4051 1.386 . S
H4049 C4065 0.930 . S
H4050 C4066 0.931 . S
C4051 H4039 0.929 . S
C4051 C4045 1.390 . S
C4051 C4048 1.386 . S
C4052 C4047 1.490 . S
C4052 C4054 1.395 . S
C4052 C4055 1.403 . S
H4053 C4059 0.930 . S
C4054 H4040 0.930 . S
C4054 C4052 1.395 . S
C4054 C4057 1.403 . S
C4055 C4052 1.403 . S
C4055 C4056 1.524 . S
C4055 C4059 1.400 . S
C4056 H4041 0.960 . S
C4056 H4042 0.960 . S
C4056 H4043 0.960 . S
C4056 C4055 1.524 . S
C4057 C4054 1.403 . S
C4057 C4058 1.392 . S
C4057 C4061 1.495 . S
C4058 C4057 1.392 . S
C4058 C4059 1.385 . S
C4058 C4060 1.478 . S
C4059 H4053 0.930 . S
C4059 C4055 1.400 . S
C4059 C4058 1.385 . S
C4060 C4058 1.478 . S
C4060 C4062 1.381 . S
C4060 C4066 1.383 . S
C4061 C4057 1.495 . S
C4061 H4067 0.959 . S
C4061 H4068 0.961 . S
C4061 H4069 0.960 . S
C4062 C4060 1.381 . S
C4062 C4063 1.394 . S
C4062 H4070 0.930 . S
C4063 C4062 1.394 . S
C4063 C4064 1.383 . S
C4063 H4071 0.929 . S
C4064 C4063 1.383 . S
C4064 C4065 1.377 . S
C4065 H4049 0.930 . S
C4065 C4064 1.377 . S
C4065 C4066 1.379 . S
C4066 H4050 0.931 . S
C4066 C4060 1.383 . S
C4066 C4065 1.379 . S
H4067 C4061 0.959 . S
H4068 C4061 0.961 . S
H4069 C4061 0.960 . S
H4070 C4062 0.930 . S
H4071 C4063 0.929 . S
H4072 C4080 0.929 . S
H4073 C4082 0.930 . S
H4074 C4084 0.930 . S
H4075 C4087 0.929 . S
H4076 C4090 0.930 . S
H4077 C4092 0.960 . S
H4078 C4092 0.960 . S
H4079 C4092 0.960 . S
C4080 H4072 0.929 . S
C4080 C4081 1.377 . S
C4080 C4082 1.384 . S
C4081 C4080 1.377 . S
C4081 C4087 1.390 . S
C4082 H4073 0.930 . S
C4082 C4080 1.384 . S
C4082 C4083 1.372 . S
C4083 C4082 1.372 . S
C4083 C4084 1.400 . S
C4083 C4088 1.490 . S
C4084 H4074 0.930 . S
C4084 C4083 1.400 . S
C4084 C4087 1.386 . S
H4085 C4101 0.930 . S
H4086 C4102 0.931 . S
C4087 H4075 0.929 . S
C4087 C4081 1.390 . S
C4087 C4084 1.386 . S
C4088 C4083 1.490 . S
C4088 C4090 1.395 . S
C4088 C4091 1.403 . S
H4089 C4095 0.930 . S
C4090 H4076 0.930 . S
C4090 C4088 1.395 . S
C4090 C4093 1.403 . S
C4091 C4088 1.403 . S
C4091 C4092 1.524 . S
C4091 C4095 1.400 . S
C4092 H4077 0.960 . S
C4092 H4078 0.960 . S
C4092 H4079 0.960 . S
C4092 C4091 1.524 . S
C4093 C4090 1.403 . S
C4093 C4094 1.392 . S
C4093 C4097 1.495 . S
C4094 C4093 1.392 . S
C4094 C4095 1.385 . S
C4094 C4096 1.478 . S
C4095 H4089 0.930 . S
C4095 C4091 1.400 . S
C4095 C4094 1.385 . S
C4096 C4094 1.478 . S
C4096 C4098 1.381 . S
C4096 C4102 1.383 . S
C4097 C4093 1.495 . S
C4097 H4103 0.959 . S
C4097 H4104 0.961 . S
C4097 H4105 0.960 . S
C4098 C4096 1.381 . S
C4098 C4099 1.394 . S
C4098 H4106 0.930 . S
C4099 C4098 1.394 . S
C4099 C4100 1.383 . S
C4099 H4107 0.929 . S
C4100 C4099 1.383 . S
C4100 C4101 1.377 . S
C4101 H4085 0.930 . S
C4101 C4100 1.377 . S
C4101 C4102 1.379 . S
C4102 H4086 0.931 . S
C4102 C4096 1.383 . S
C4102 C4101 1.379 . S
H4103 C4097 0.959 . S
H4104 C4097 0.961 . S
H4105 C4097 0.960 . S
H4106 C4098 0.930 . S
H4107 C4099 0.929 . S
H4108 C4116 0.929 . S
H4109 C4118 0.930 . S
H4110 C4120 0.930 . S
H4111 C4123 0.929 . S
H4112 C4126 0.930 . S
H4113 C4128 0.960 . S
H4114 C4128 0.960 . S
H4115 C4128 0.960 . S
C4116 H4108 0.929 . S
C4116 C4117 1.377 . S
C4116 C4118 1.384 . S
C4117 C4116 1.377 . S
C4117 C4123 1.390 . S
C4118 H4109 0.930 . S
C4118 C4116 1.384 . S
C4118 C4119 1.372 . S
C4119 C4118 1.372 . S
C4119 C4120 1.400 . S
C4119 C4124 1.490 . S
C4120 H4110 0.930 . S
C4120 C4119 1.400 . S
C4120 C4123 1.386 . S
H4121 C4137 0.930 . S
H4122 C4138 0.931 . S
C4123 H4111 0.929 . S
C4123 C4117 1.390 . S
C4123 C4120 1.386 . S
C4124 C4119 1.490 . S
C4124 C4126 1.395 . S
C4124 C4127 1.403 . S
H4125 C4131 0.930 . S
C4126 H4112 0.930 . S
C4126 C4124 1.395 . S
C4126 C4129 1.403 . S
C4127 C4124 1.403 . S
C4127 C4128 1.524 . S
C4127 C4131 1.400 . S
C4128 H4113 0.960 . S
C4128 H4114 0.960 . S
C4128 H4115 0.960 . S
C4128 C4127 1.524 . S
C4129 C4126 1.403 . S
C4129 C4130 1.392 . S
C4129 C4133 1.495 . S
C4130 C4129 1.392 . S
C4130 C4131 1.385 . S
C4130 C4132 1.478 . S
C4131 H4125 0.930 . S
C4131 C4127 1.400 . S
C4131 C4130 1.385 . S
C4132 C4130 1.478 . S
C4132 C4134 1.381 . S
C4132 C4138 1.383 . S
C4133 C4129 1.495 . S
C4133 H4139 0.959 . S
C4133 H4140 0.961 . S
C4133 H4141 0.960 . S
C4134 C4132 1.381 . S
C4134 C4135 1.394 . S
C4134 H4142 0.930 . S
C4135 C4134 1.394 . S
C4135 C4136 1.383 . S
C4135 H4143 0.929 . S
C4136 C4135 1.383 . S
C4136 C4137 1.377 . S
C4137 H4121 0.930 . S
C4137 C4136 1.377 . S
C4137 C4138 1.379 . S
C4138 H4122 0.931 . S
C4138 C4132 1.383 . S
C4138 C4137 1.379 . S
H4139 C4133 0.959 . S
H4140 C4133 0.961 . S
H4141 C4133 0.960 . S
H4142 C4134 0.930 . S
H4143 C4135 0.929 . S
H4144 C4152 0.929 . S
H4145 C4154 0.930 . S
H4146 C4156 0.930 . S
H4147 C4159 0.929 . S
H4148 C4162 0.930 . S
H4149 C4164 0.960 . S
H4150 C4164 0.960 . S
H4151 C4164 0.960 . S
C4152 H4144 0.929 . S
C4152 C4153 1.377 . S
C4152 C4154 1.384 . S
C4153 C4152 1.377 . S
C4153 C4159 1.390 . S
C4154 H4145 0.930 . S
C4154 C4152 1.384 . S
C4154 C4155 1.372 . S
C4155 C4154 1.372 . S
C4155 C4156 1.400 . S
C4155 C4160 1.490 . S
C4156 H4146 0.930 . S
C4156 C4155 1.400 . S
C4156 C4159 1.386 . S
H4157 C4173 0.930 . S
H4158 C4174 0.931 . S
C4159 H4147 0.929 . S
C4159 C4153 1.390 . S
C4159 C4156 1.386 . S
C4160 C4155 1.490 . S
C4160 C4162 1.395 . S
C4160 C4163 1.403 . S
H4161 C4167 0.930 . S
C4162 H4148 0.930 . S
C4162 C4160 1.395 . S
C4162 C4165 1.403 . S
C4163 C4160 1.403 . S
C4163 C4164 1.524 . S
C4163 C4167 1.400 . S
C4164 H4149 0.960 . S
C4164 H4150 0.960 . S
C4164 H4151 0.960 . S
C4164 C4163 1.524 . S
C4165 C4162 1.403 . S
C4165 C4166 1.392 . S
C4165 C4169 1.495 . S
C4166 C4165 1.392 . S
C4166 C4167 1.385 . S
C4166 C4168 1.478 . S
C4167 H4161 0.930 . S
C4167 C4163 1.400 . S
C4167 C4166 1.385 . S
C4168 C4166 1.478 . S
C4168 C4170 1.381 . S
C4168 C4174 1.383 . S
C4169 C4165 1.495 . S
C4169 H4175 0.959 . S
C4169 H4176 0.961 . S
C4169 H4177 0.960 . S
C4170 C4168 1.381 . S
C4170 C4171 1.394 . S
C4170 H4178 0.930 . S
C4171 C4170 1.394 . S
C4171 C4172 1.383 . S
C4171 H4179 0.929 . S
C4172 C4171 1.383 . S
C4172 C4173 1.377 . S
C4173 H4157 0.930 . S
C4173 C4172 1.377 . S
C4173 C4174 1.379 . S
C4174 H4158 0.931 . S
C4174 C4168 1.383 . S
C4174 C4173 1.379 . S
H4175 C4169 0.959 . S
H4176 C4169 0.961 . S
H4177 C4169 0.960 . S
H4178 C4170 0.930 . S
H4179 C4171 0.929 . S
H4180 C4188 0.929 . S
H4181 C4190 0.930 . S
H4182 C4192 0.930 . S
H4183 C4195 0.929 . S
H4184 C4198 0.930 . S
H4185 C4200 0.960 . S
H4186 C4200 0.960 . S
H4187 C4200 0.960 . S
C4188 H4180 0.929 . S
C4188 C4189 1.377 . S
C4188 C4190 1.384 . S
C4189 C4188 1.377 . S
C4189 C4195 1.390 . S
C4190 H4181 0.930 . S
C4190 C4188 1.384 . S
C4190 C4191 1.372 . S
C4191 C4190 1.372 . S
C4191 C4192 1.400 . S
C4191 C4196 1.490 . S
C4192 H4182 0.930 . S
C4192 C4191 1.400 . S
C4192 C4195 1.386 . S
H4193 C4209 0.930 . S
H4194 C4210 0.931 . S
C4195 H4183 0.929 . S
C4195 C4189 1.390 . S
C4195 C4192 1.386 . S
C4196 C4191 1.490 . S
C4196 C4198 1.395 . S
C4196 C4199 1.403 . S
H4197 C4203 0.930 . S
C4198 H4184 0.930 . S
C4198 C4196 1.395 . S
C4198 C4201 1.403 . S
C4199 C4196 1.403 . S
C4199 C4200 1.524 . S
C4199 C4203 1.400 . S
C4200 H4185 0.960 . S
C4200 H4186 0.960 . S
C4200 H4187 0.960 . S
C4200 C4199 1.524 . S
C4201 C4198 1.403 . S
C4201 C4202 1.392 . S
C4201 C4205 1.495 . S
C4202 C4201 1.392 . S
C4202 C4203 1.385 . S
C4202 C4204 1.478 . S
C4203 H4197 0.930 . S
C4203 C4199 1.400 . S
C4203 C4202 1.385 . S
C4204 C4202 1.478 . S
C4204 C4206 1.381 . S
C4204 C4210 1.383 . S
C4205 C4201 1.495 . S
C4205 H4211 0.959 . S
C4205 H4212 0.961 . S
C4205 H4213 0.960 . S
C4206 C4204 1.381 . S
C4206 C4207 1.394 . S
C4206 H4214 0.930 . S
C4207 C4206 1.394 . S
C4207 C4208 1.383 . S
C4207 H4215 0.929 . S
C4208 C4207 1.383 . S
C4208 C4209 1.377 . S
C4209 H4193 0.930 . S
C4209 C4208 1.377 . S
C4209 C4210 1.379 . S
C4210 H4194 0.931 . S
C4210 C4204 1.383 . S
C4210 C4209 1.379 . S
H4211 C4205 0.959 . S
H4212 C4205 0.961 . S
H4213 C4205 0.960 . S
H4214 C4206 0.930 . S
H4215 C4207 0.929 . S
H4216 C4224 0.929 . S
H4217 C4226 0.930 . S
H4218 C4228 0.930 . S
H4219 C4231 0.929 . S
H4220 C4234 0.930 . S
H4221 C4236 0.960 . S
H4222 C4236 0.960 . S
H4223 C4236 0.960 . S
C4224 H4216 0.929 . S
C4224 C4225 1.377 . S
C4224 C4226 1.384 . S
C4225 C4224 1.377 . S
C4225 C4231 1.390 . S
C4226 H4217 0.930 . S
C4226 C4224 1.384 . S
C4226 C4227 1.372 . S
C4227 C4226 1.372 . S
C4227 C4228 1.400 . S
C4227 C4232 1.490 . S
C4228 H4218 0.930 . S
C4228 C4227 1.400 . S
C4228 C4231 1.386 . S
H4229 C4245 0.930 . S
H4230 C4246 0.931 . S
C4231 H4219 0.929 . S
C4231 C4225 1.390 . S
C4231 C4228 1.386 . S
C4232 C4227 1.490 . S
C4232 C4234 1.395 . S
C4232 C4235 1.403 . S
H4233 C4239 0.930 . S
C4234 H4220 0.930 . S
C4234 C4232 1.395 . S
C4234 C4237 1.403 . S
C4235 C4232 1.403 . S
C4235 C4236 1.524 . S
C4235 C4239 1.400 . S
C4236 H4221 0.960 . S
C4236 H4222 0.960 . S
C4236 H4223 0.960 . S
C4236 C4235 1.524 . S
C4237 C4234 1.403 . S
C4237 C4238 1.392 . S
C4237 C4241 1.495 . S
C4238 C4237 1.392 . S
C4238 C4239 1.385 . S
C4238 C4240 1.478 . S
C4239 H4233 0.930 . S
C4239 C4235 1.400 . S
C4239 C4238 1.385 . S
C4240 C4238 1.478 . S
C4240 C4242 1.381 . S
C4240 C4246 1.383 . S
C4241 C4237 1.495 . S
C4241 H4247 0.959 . S
C4241 H4248 0.961 . S
C4241 H4249 0.960 . S
C4242 C4240 1.381 . S
C4242 C4243 1.394 . S
C4242 H4250 0.930 . S
C4243 C4242 1.394 . S
C4243 C4244 1.383 . S
C4243 H4251 0.929 . S
C4244 C4243 1.383 . S
C4244 C4245 1.377 . S
C4245 H4229 0.930 . S
C4245 C4244 1.377 . S
C4245 C4246 1.379 . S
C4246 H4230 0.931 . S
C4246 C4240 1.383 . S
C4246 C4245 1.379 . S
H4247 C4241 0.959 . S
H4248 C4241 0.961 . S
H4249 C4241 0.960 . S
H4250 C4242 0.930 . S
H4251 C4243 0.929 . S
H4252 C4260 0.929 . S
H4253 C4262 0.930 . S
H4254 C4264 0.930 . S
H4255 C4267 0.929 . S
H4256 C4270 0.930 . S
H4257 C4272 0.960 . S
H4258 C4272 0.960 . S
H4259 C4272 0.960 . S
C4260 H4252 0.929 . S
C4260 C4261 1.377 . S
C4260 C4262 1.384 . S
C4261 C4260 1.377 . S
C4261 C4267 1.390 . S
C4262 H4253 0.930 . S
C4262 C4260 1.384 . S
C4262 C4263 1.372 . S
C4263 C4262 1.372 . S
C4263 C4264 1.400 . S
C4263 C4268 1.490 . S
C4264 H4254 0.930 . S
C4264 C4263 1.400 . S
C4264 C4267 1.386 . S
H4265 C4281 0.930 . S
H4266 C4282 0.931 . S
C4267 H4255 0.929 . S
C4267 C4261 1.390 . S
C4267 C4264 1.386 . S
C4268 C4263 1.490 . S
C4268 C4270 1.395 . S
C4268 C4271 1.403 . S
H4269 C4275 0.930 . S
C4270 H4256 0.930 . S
C4270 C4268 1.395 . S
C4270 C4273 1.403 . S
C4271 C4268 1.403 . S
C4271 C4272 1.524 . S
C4271 C4275 1.400 . S
C4272 H4257 0.960 . S
C4272 H4258 0.960 . S
C4272 H4259 0.960 . S
C4272 C4271 1.524 . S
C4273 C4270 1.403 . S
C4273 C4274 1.392 . S
C4273 C4277 1.495 . S
C4274 C4273 1.392 . S
C4274 C4275 1.385 . S
C4274 C4276 1.478 . S
C4275 H4269 0.930 . S
C4275 C4271 1.400 . S
C4275 C4274 1.385 . S
C4276 C4274 1.478 . S
C4276 C4278 1.381 . S
C4276 C4282 1.383 . S
C4277 C4273 1.495 . S
C4277 H4283 0.959 . S
C4277 H4284 0.961 . S
C4277 H4285 0.960 . S
C4278 C4276 1.381 . S
C4278 C4279 1.394 . S
C4278 H4286 0.930 . S
C4279 C4278 1.394 . S
C4279 C4280 1.383 . S
C4279 H4287 0.929 . S
C4280 C4279 1.383 . S
C4280 C4281 1.377 . S
C4281 H4265 0.930 . S
C4281 C4280 1.377 . S
C4281 C4282 1.379 . S
C4282 H4266 0.931 . S
C4282 C4276 1.383 . S
C4282 C4281 1.379 . S
H4283 C4277 0.959 . S
H4284 C4277 0.961 . S
H4285 C4277 0.960 . S
H4286 C4278 0.930 . S
H4287 C4279 0.929 . S
H4288 C4296 0.929 . S
H4289 C4298 0.930 . S
H4290 C4300 0.930 . S
H4291 C4303 0.929 . S
H4292 C4306 0.930 . S
H4293 C4308 0.960 . S
H4294 C4308 0.960 . S
H4295 C4308 0.960 . S
C4296 H4288 0.929 . S
C4296 C4297 1.377 . S
C4296 C4298 1.384 . S
C4297 C4296 1.377 . S
C4297 C4303 1.390 . S
C4298 H4289 0.930 . S
C4298 C4296 1.384 . S
C4298 C4299 1.372 . S
C4299 C4298 1.372 . S
C4299 C4300 1.400 . S
C4299 C4304 1.490 . S
C4300 H4290 0.930 . S
C4300 C4299 1.400 . S
C4300 C4303 1.386 . S
H4301 C4317 0.930 . S
H4302 C4318 0.931 . S
C4303 H4291 0.929 . S
C4303 C4297 1.390 . S
C4303 C4300 1.386 . S
C4304 C4299 1.490 . S
C4304 C4306 1.395 . S
C4304 C4307 1.403 . S
H4305 C4311 0.930 . S
C4306 H4292 0.930 . S
C4306 C4304 1.395 . S
C4306 C4309 1.403 . S
C4307 C4304 1.403 . S
C4307 C4308 1.524 . S
C4307 C4311 1.400 . S
C4308 H4293 0.960 . S
C4308 H4294 0.960 . S
C4308 H4295 0.960 . S
C4308 C4307 1.524 . S
C4309 C4306 1.403 . S
C4309 C4310 1.392 . S
C4309 C4313 1.495 . S
C4310 C4309 1.392 . S
C4310 C4311 1.385 . S
C4310 C4312 1.478 . S
C4311 H4305 0.930 . S
C4311 C4307 1.400 . S
C4311 C4310 1.385 . S
C4312 C4310 1.478 . S
C4312 C4314 1.381 . S
C4312 C4318 1.383 . S
C4313 C4309 1.495 . S
C4313 H4319 0.959 . S
C4313 H4320 0.961 . S
C4313 H4321 0.960 . S
C4314 C4312 1.381 . S
C4314 C4315 1.394 . S
C4314 H4322 0.930 . S
C4315 C4314 1.394 . S
C4315 C4316 1.383 . S
C4315 H4323 0.929 . S
C4316 C4315 1.383 . S
C4316 C4317 1.377 . S
C4317 H4301 0.930 . S
C4317 C4316 1.377 . S
C4317 C4318 1.379 . S
C4318 H4302 0.931 . S
C4318 C4312 1.383 . S
C4318 C4317 1.379 . S
H4319 C4313 0.959 . S
H4320 C4313 0.961 . S
H4321 C4313 0.960 . S
H4322 C4314 0.930 . S
H4323 C4315 0.929 . S
H4324 C4332 0.929 . S
H4325 C4334 0.930 . S
H4326 C4336 0.930 1_556 S
H4327 C4339 0.929 1_556 S
H4328 C4342 0.930 . S
H4329 C4344 0.960 . S
H4330 C4344 0.960 . S
H4331 C4344 0.960 1_556 S
C4332 H4324 0.929 . S
C4332 C4333 1.377 . S
C4332 C4334 1.384 . S
C4333 C4332 1.377 . S
C4333 C4339 1.390 . S
C4334 H4325 0.930 . S
C4334 C4332 1.384 . S
C4334 C4335 1.372 . S
C4335 C4334 1.372 . S
C4335 C4336 1.400 . S
C4335 C4340 1.490 . S
C4336 H4326 0.930 1_554 S
C4336 C4335 1.400 . S
C4336 C4339 1.386 . S
H4337 C4353 0.930 . S
H4338 C4354 0.931 . S
C4339 H4327 0.929 1_554 S
C4339 C4333 1.390 . S
C4339 C4336 1.386 . S
C4340 C4335 1.490 . S
C4340 C4342 1.395 . S
C4340 C4343 1.403 . S
H4341 C4347 0.930 . S
C4342 H4328 0.930 . S
C4342 C4340 1.395 . S
C4342 C4345 1.403 . S
C4343 C4340 1.403 . S
C4343 C4344 1.524 . S
C4343 C4347 1.400 . S
C4344 H4329 0.960 . S
C4344 H4330 0.960 . S
C4344 H4331 0.960 1_554 S
C4344 C4343 1.524 . S
C4345 C4342 1.403 . S
C4345 C4346 1.392 . S
C4345 C4349 1.495 . S
C4346 C4345 1.392 . S
C4346 C4347 1.385 . S
C4346 C4348 1.478 . S
C4347 H4341 0.930 . S
C4347 C4343 1.400 . S
C4347 C4346 1.385 . S
C4348 C4346 1.478 . S
C4348 C4350 1.381 . S
C4348 C4354 1.383 1_554 S
C4349 C4345 1.495 . S
C4349 H4355 0.959 . S
C4349 H4356 0.961 . S
C4349 H4357 0.960 . S
C4350 C4348 1.381 . S
C4350 C4351 1.394 . S
C4350 H4358 0.930 . S
C4351 C4350 1.394 . S
C4351 C4352 1.383 1_554 S
C4351 H4359 0.929 . S
C4352 C4351 1.383 1_556 S
C4352 C4353 1.377 . S
C4353 H4337 0.930 . S
C4353 C4352 1.377 . S
C4353 C4354 1.379 . S
C4354 H4338 0.931 . S
C4354 C4348 1.383 1_556 S
C4354 C4353 1.379 . S
H4355 C4349 0.959 . S
H4356 C4349 0.961 . S
H4357 C4349 0.960 . S
H4358 C4350 0.930 . S
H4359 C4351 0.929 . S
H4360 C4368 0.929 . S
H4361 C4370 0.930 . S
H4362 C4372 0.930 . S
H4363 C4375 0.929 . S
H4364 C4378 0.930 . S
H4365 C4380 0.960 . S
H4366 C4380 0.960 . S
H4367 C4380 0.960 . S
C4368 H4360 0.929 . S
C4368 C4369 1.377 . S
C4368 C4370 1.384 . S
C4369 C4368 1.377 . S
C4369 C4375 1.390 . S
C4370 H4361 0.930 . S
C4370 C4368 1.384 . S
C4370 C4371 1.372 . S
C4371 C4370 1.372 . S
C4371 C4372 1.400 . S
C4371 C4376 1.490 . S
C4372 H4362 0.930 . S
C4372 C4371 1.400 . S
C4372 C4375 1.386 . S
H4373 C4389 0.930 . S
H4374 C4390 0.931 . S
C4375 H4363 0.929 . S
C4375 C4369 1.390 . S
C4375 C4372 1.386 . S
C4376 C4371 1.490 . S
C4376 C4378 1.395 . S
C4376 C4379 1.403 . S
H4377 C4383 0.930 . S
C4378 H4364 0.930 . S
C4378 C4376 1.395 . S
C4378 C4381 1.403 . S
C4379 C4376 1.403 . S
C4379 C4380 1.524 . S
C4379 C4383 1.400 . S
C4380 H4365 0.960 . S
C4380 H4366 0.960 . S
C4380 H4367 0.960 . S
C4380 C4379 1.524 . S
C4381 C4378 1.403 . S
C4381 C4382 1.392 . S
C4381 C4385 1.495 . S
C4382 C4381 1.392 . S
C4382 C4383 1.385 . S
C4382 C4384 1.478 . S
C4383 H4377 0.930 . S
C4383 C4379 1.400 . S
C4383 C4382 1.385 . S
C4384 C4382 1.478 . S
C4384 C4386 1.381 . S
C4384 C4390 1.383 . S
C4385 C4381 1.495 . S
C4385 H4391 0.959 . S
C4385 H4392 0.961 . S
C4385 H4393 0.960 . S
C4386 C4384 1.381 . S
C4386 C4387 1.394 . S
C4386 H4394 0.930 . S
C4387 C4386 1.394 . S
C4387 C4388 1.383 . S
C4387 H4395 0.929 . S
C4388 C4387 1.383 . S
C4388 C4389 1.377 . S
C4389 H4373 0.930 . S
C4389 C4388 1.377 . S
C4389 C4390 1.379 . S
C4390 H4374 0.931 . S
C4390 C4384 1.383 . S
C4390 C4389 1.379 . S
H4391 C4385 0.959 . S
H4392 C4385 0.961 . S
H4393 C4385 0.960 . S
H4394 C4386 0.930 . S
H4395 C4387 0.929 . S
H4396 C4404 0.929 . S
H4397 C4406 0.930 . S
H4398 C4408 0.930 . S
H4399 C4411 0.929 . S
H4400 C4414 0.930 . S
H4401 C4416 0.960 . S
H4402 C4416 0.960 . S
H4403 C4416 0.960 . S
C4404 H4396 0.929 . S
C4404 C4405 1.377 . S
C4404 C4406 1.384 . S
C4405 C4404 1.377 . S
C4405 C4411 1.390 . S
C4406 H4397 0.930 . S
C4406 C4404 1.384 . S
C4406 C4407 1.372 . S
C4407 C4406 1.372 . S
C4407 C4408 1.400 . S
C4407 C4412 1.490 . S
C4408 H4398 0.930 . S
C4408 C4407 1.400 . S
C4408 C4411 1.386 . S
H4409 C4425 0.930 . S
H4410 C4426 0.931 . S
C4411 H4399 0.929 . S
C4411 C4405 1.390 . S
C4411 C4408 1.386 . S
C4412 C4407 1.490 . S
C4412 C4414 1.395 . S
C4412 C4415 1.403 . S
H4413 C4419 0.930 . S
C4414 H4400 0.930 . S
C4414 C4412 1.395 . S
C4414 C4417 1.403 . S
C4415 C4412 1.403 . S
C4415 C4416 1.524 . S
C4415 C4419 1.400 . S
C4416 H4401 0.960 . S
C4416 H4402 0.960 . S
C4416 H4403 0.960 . S
C4416 C4415 1.524 . S
C4417 C4414 1.403 . S
C4417 C4418 1.392 . S
C4417 C4421 1.495 . S
C4418 C4417 1.392 . S
C4418 C4419 1.385 . S
C4418 C4420 1.478 . S
C4419 H4413 0.930 . S
C4419 C4415 1.400 . S
C4419 C4418 1.385 . S
C4420 C4418 1.478 . S
C4420 C4422 1.381 . S
C4420 C4426 1.383 . S
C4421 C4417 1.495 . S
C4421 H4427 0.959 . S
C4421 H4428 0.961 . S
C4421 H4429 0.960 . S
C4422 C4420 1.381 . S
C4422 C4423 1.394 . S
C4422 H4430 0.930 . S
C4423 C4422 1.394 . S
C4423 C4424 1.383 . S
C4423 H4431 0.929 . S
C4424 C4423 1.383 . S
C4424 C4425 1.377 . S
C4425 H4409 0.930 . S
C4425 C4424 1.377 . S
C4425 C4426 1.379 . S
C4426 H4410 0.931 . S
C4426 C4420 1.383 . S
C4426 C4425 1.379 . S
H4427 C4421 0.959 . S
H4428 C4421 0.961 . S
H4429 C4421 0.960 . S
H4430 C4422 0.930 . S
H4431 C4423 0.929 . S
C985 C109 1.951 . S
C1004 C355 1.911 . S
C1021 C61 1.914 . S
C1040 C384 2.118 . S
C1057 C74 1.018 . S
C1076 C435 0.996 . S
C1112 C461 1.542 . S
C1093 C96 1.542 . S
C1129 C25 0.313 . S
C1148 C501 0.388 . S
C1184 C551 0.166 . S
C1165 C40 0.113 . S
C1220 C594 0.322 . S
C1201 C46 0.135 . S
C1237 C5 0.765 . S
C1256 C631 0.789 . S
C1292 C344 2.204 1_655 S
C1273 C229 1.902 . S
C1309 C249 0.325 . S
C1328 C381 0.416 . S
C1364 C424 2.294 . S
C1345 C271 2.082 . S
C1400 C475 1.218 . S
C1381 C172 1.196 1_556 S
C1417 C236 1.687 . S
C1436 C515 1.649 1_655 S
C1472 C554 0.539 . S
C1453 C242 0.572 . S
C1508 C585 1.719 . S
C1489 C278 1.773 . S
C1544 C634 1.923 . S
C1525 C179 1.936 . S
C1580 C341 1.050 . S
C1561 C159 0.842 1_556 S
C1597 C285 2.023 . S
C1616 C664 2.231 . S
C1652 C705 2.220 . S
C1633 C333 2.254 . S
C1688 C751 0.227 . S
C1669 C320 0.238 . S
C1705 C123 2.504 . S
C1724 C625 2.442 . S
C1741 C138 1.467 . S
C1760 C421 1.452 . S
C1777 C326 2.338 . S
C1796 C784 2.332 . S
C1832 C835 1.809 . S
C1813 C298 1.771 . S
C1868 C345 1.903 . S
C1849 C67 1.915 . S
C1904 C834 2.024 . S
C1885 C110 2.053 . S
C1921 C88 1.015 . S
C1940 C425 1.046 . S
C1957 C75 1.269 . S
C1976 C791 1.414 . S
C2012 C511 0.431 . S
C1993 C11 0.401 . S
C2029 C47 0.859 . S
C2048 C701 0.208 . S
C2084 C584 0.370 . S
C2065 C32 0.509 . S
C2120 C861 0.897 . S
C2101 C26 0.872 . S
C2156 C354 2.320 . S
C2137 C152 2.340 . S
C2192 C831 0.550 . S
C2173 C319 0.600 . S
C2209 C124 2.298 . S
C2228 C434 2.259 . S
C2245 C284 1.239 . S
C2264 C785 1.233 . S
C2281 C145 1.494 . S
C2300 C505 1.617 . S
C2336 C704 0.479 . S
C2317 C312 0.519 . S
C2353 C117 1.318 . S
C2372 C595 1.494 . S
C2389 C291 1.857 . S
C2408 C864 1.879 . S
C2425 C194 1.151 . S
C2444 C351 1.160 . S
C2461 C180 2.184 . S
C2480 C674 2.146 . S
C2497 C263 2.114 . S
C2516 C555 2.089 . S
C2533 C243 0.733 . S
C2552 C741 0.232 . S
C2588 C875 2.458 . S
C2569 C277 2.504 . S
C2605 C215 1.254 . S
C2624 C431 1.380 . S
C2660 C474 2.220 . S
C2641 C256 2.173 . S
C2696 C385 1.892 . S
C2677 C200 1.909 . S
C2713 C81 1.952 . S
C2732 C915 1.915 . S
C2768 C824 2.131 . S
C2749 C89 1.916 . S
C2785 C102 1.000 1_455 S
C2804 C955 1.042 . S
C2821 C68 1.541 1_655 S
C2840 C781 1.527 . S
C2857 C53 0.321 . S
C2876 C661 0.321 . S
C2912 C711 0.180 . S
C2893 C12 0.101 . S
C2948 C754 0.253 . S
C2929 C18 0.162 . S
C2984 C871 0.796 . S
C2965 C33 0.759 . S
C3020 C904 2.198 . S
C3001 C257 1.887 . S
C3037 C193 0.306 . S
C3056 C821 0.475 . S
C3092 C944 2.295 . S
C3073 C201 2.082 . S
C3128 C795 1.205 . S
C3109 C214 1.198 . S
C3164 C675 1.679 . S
C3145 C264 1.683 . S
C3181 C186 0.574 . S
C3200 C714 0.623 . S
C3236 C745 1.723 . S
C3217 C208 1.772 . S
C3253 C221 1.935 . S
C3272 C874 1.917 . S
C3308 C901 1.048 . S
C3289 C313 0.836 . S
C3325 C131 2.020 . S
C3344 C504 2.223 . S
C3380 C545 2.230 . S
C3361 C151 2.253 . S
C3416 C591 0.224 . S
C3397 C166 0.239 . S
C3452 C865 2.464 . S
C3433 C305 2.501 . S
C3469 C292 1.467 . S
C3488 C941 1.455 . S
C3524 C464 2.327 . S
C3505 C144 2.338 . S
C3560 C395 1.835 . S
C3541 C116 1.792 . S
C3577 C95 1.920 . S
C3596 C905 1.925 . S
C3632 C394 2.028 . S
C3613 C82 2.052 . S
C3649 C60 1.014 . S
C3668 C945 1.042 . S
C3685 C103 1.251 . S
C3704 C471 1.433 . S
C3721 C39 0.398 . S
C3740 C671 0.411 . S
C3776 C541 0.135 . S
C3757 C19 0.882 . S
C3793 C4 0.491 . S
C3812 C744 0.312 . S
C3829 C54 0.863 . S
C3848 C621 0.826 . S
C3884 C914 2.333 . S
C3865 C334 2.339 . S
C3901 C165 0.581 . S
C3920 C391 0.411 . S
C3956 C954 2.259 1_655 S
C3937 C306 2.298 . S
C3973 C130 1.230 . S
C3992 C465 1.248 . S
C4009 C327 1.483 . S
C4028 C665 1.623 . S
C4064 C544 0.540 . S
C4045 C158 0.537 . S
C4081 C299 1.307 . S
C4100 C755 1.521 1_655 S
C4136 C624 1.876 . S
C4117 C137 1.860 . S
C4172 C911 1.152 . S
C4153 C250 1.155 . S
C4208 C514 2.166 1_565 S
C4189 C222 2.186 . S
C4225 C235 2.114 . S
C4244 C715 2.080 . S
C4280 C581 0.231 . S
C4261 C187 0.733 . S
C4297 C207 2.508 . S
C4316 C635 2.461 . S
C4333 C173 1.239 . S
C4352 C951 1.391 . S
C4388 C794 2.220 . S
C4369 C228 2.172 1_565 S
C4424 C825 1.863 . S
C4405 C270 1.908 . S
