# Generated by pormake.
# Topology zzz, (3,6)-cn, num edge types: 1
# Building blocks:
#     Node 0, Type 0, BuildingBlock: OLANEW_clean_sbu_2, # of connection points: 3
#     Node 1, Type 0, BuildingBlock: OLANEW_clean_sbu_2, # of connection points: 3
#     Node 2, Type 0, BuildingBlock: OLANEW_clean_sbu_2, # of connection points: 3
#     Node 3, Type 0, BuildingBlock: OLANEW_clean_sbu_2, # of connection points: 3
#     Node 4, Type 0, BuildingBlock: OLANEW_clean_sbu_2, # of connection points: 3
#     Node 5, Type 0, BuildingBlock: OLANEW_clean_sbu_2, # of connection points: 3
#     Node 6, Type 0, BuildingBlock: OLANEW_clean_sbu_2, # of connection points: 3
#     Node 7, Type 0, BuildingBlock: OLANEW_clean_sbu_2, # of connection points: 3
#     Node 8, Type 1, BuildingBlock: BETGAK_clean_sbu_0, # of connection points: 6
#     Node 9, Type 1, BuildingBlock: BETGAK_clean_sbu_0, # of connection points: 6
#     Node 10, Type 1, BuildingBlock: BETGAK_clean_sbu_0, # of connection points: 6
#     Node 11, Type 1, BuildingBlock: BETGAK_clean_sbu_0, # of connection points: 6
#     Edge 12, Type (0, 1), BuildingBlock: ZUJKAS_clean_linker_0, # of connection points: 2
#     Edge 13, Type (0, 1), BuildingBlock: ZUJKAS_clean_linker_0, # of connection points: 2
#     Edge 14, Type (0, 1), BuildingBlock: ZUJKAS_clean_linker_0, # of connection points: 2
#     Edge 15, Type (0, 1), BuildingBlock: ZUJKAS_clean_linker_0, # of connection points: 2
#     Edge 16, Type (0, 1), BuildingBlock: ZUJKAS_clean_linker_0, # of connection points: 2
#     Edge 17, Type (0, 1), BuildingBlock: ZUJKAS_clean_linker_0, # of connection points: 2
#     Edge 18, Type (0, 1), BuildingBlock: ZUJKAS_clean_linker_0, # of connection points: 2
#     Edge 19, Type (0, 1), BuildingBlock: ZUJKAS_clean_linker_0, # of connection points: 2
#     Edge 20, Type (0, 1), BuildingBlock: ZUJKAS_clean_linker_0, # of connection points: 2
#     Edge 21, Type (0, 1), BuildingBlock: ZUJKAS_clean_linker_0, # of connection points: 2
#     Edge 22, Type (0, 1), BuildingBlock: ZUJKAS_clean_linker_0, # of connection points: 2
#     Edge 23, Type (0, 1), BuildingBlock: ZUJKAS_clean_linker_0, # of connection points: 2
#     Edge 24, Type (0, 1), BuildingBlock: ZUJKAS_clean_linker_0, # of connection points: 2
#     Edge 25, Type (0, 1), BuildingBlock: ZUJKAS_clean_linker_0, # of connection points: 2
#     Edge 26, Type (0, 1), BuildingBlock: ZUJKAS_clean_linker_0, # of connection points: 2
#     Edge 27, Type (0, 1), BuildingBlock: ZUJKAS_clean_linker_0, # of connection points: 2
#     Edge 28, Type (0, 1), BuildingBlock: ZUJKAS_clean_linker_0, # of connection points: 2
#     Edge 29, Type (0, 1), BuildingBlock: ZUJKAS_clean_linker_0, # of connection points: 2
#     Edge 30, Type (0, 1), BuildingBlock: ZUJKAS_clean_linker_0, # of connection points: 2
#     Edge 31, Type (0, 1), BuildingBlock: ZUJKAS_clean_linker_0, # of connection points: 2
#     Edge 32, Type (0, 1), BuildingBlock: ZUJKAS_clean_linker_0, # of connection points: 2
#     Edge 33, Type (0, 1), BuildingBlock: ZUJKAS_clean_linker_0, # of connection points: 2
#     Edge 34, Type (0, 1), BuildingBlock: ZUJKAS_clean_linker_0, # of connection points: 2
#     Edge 35, Type (0, 1), BuildingBlock: ZUJKAS_clean_linker_0, # of connection points: 2
# Relax obj value: 0.224
# Max RMSD: 0.181
# Mean RMSD: 0.168
data_MOF--net-zzz--node1-OLANEW_clean_sbu_2--node2-BETGAK_clean_sbu_0--edge1-ZUJKAS_clean_linker_0
_symmetry_space_group_name_H-M    P1
_symmetry_Int_Tables_number       1
_symmetry_cell_setting            triclinic
loop_
_symmetry_equiv_pos_as_xyz
'x, y, z'
_cell_length_a     71.779164
_cell_length_b     71.769631
_cell_length_c     19.414527
_cell_angle_alpha  89.995675
_cell_angle_beta   89.890646
_cell_angle_gamma 89.995519
loop_
_atom_site_label
_atom_site_type_symbol
_atom_site_fract_x
_atom_site_fract_y
_atom_site_fract_z
_atom_type_partial_charge
O0 O 0.73907 0.5393 0.16005 0.0
Cd1 Cd 0.70957 0.54778 0.21485 0.0
O2 O 0.74548 0.52829 0.26206 0.0
Cd3 Cd 0.76229 0.51523 0.34198 0.0
O4 O 0.78508 0.51204 0.41436 0.0
C5 C 0.79047 0.49655 0.43885 0.0
O6 O 0.78171 0.48119 0.4214 0.0
C7 C 0.75064 0.53163 0.20051 0.0
C8 C 0.67822 0.53888 0.13756 0.0
O9 O 0.68608 0.55484 0.13187 0.0
O10 O 0.68535 0.52703 0.17934 0.0
O11 O 0.95658 0.73954 0.238 0.0
Cd12 Cd 0.95052 0.71127 0.30428 0.0
O13 O 0.98613 0.73605 0.26283 0.0
Cd14 Cd 0.01367 0.74797 0.28005 0.0
O15 O 0.0212 0.77474 0.32386 0.0
C16 C 0.00707 0.78248 0.35107 0.0
O17 O 0.99116 0.77344 0.35157 0.0
C18 C 0.97322 0.74549 0.23453 0.0
C19 C 0.9602 0.67961 0.23023 0.0
O20 O 0.94358 0.68614 0.22823 0.0
O21 O 0.97222 0.68802 0.26777 0.0
O22 O 0.76873 0.96414 0.19256 0.0
Cd23 Cd 0.79869 0.95725 0.24653 0.0
O24 O 0.76536 0.98435 0.27597 0.0
Cd25 Cd 0.74992 0.00518 0.33441 0.0
O26 O 0.72608 0.01329 0.39648 0.0
C27 C 0.72272 0.00305 0.44838 0.0
O28 O 0.73431 0.98945 0.46299 0.0
C29 C 0.75874 0.97614 0.22336 0.0
C30 C 0.82906 0.96457 0.1616 0.0
O31 O 0.82143 0.94843 0.16267 0.0
O32 O 0.82222 0.9773 0.20047 0.0
O33 O 0.54413 0.77061 0.20022 0.0
Cd34 Cd 0.55105 0.79994 0.25819 0.0
O35 O 0.5162 0.77272 0.24512 0.0
Cd36 Cd 0.49072 0.75926 0.28033 0.0
O37 O 0.48533 0.73273 0.32996 0.0
C38 C 0.50031 0.72461 0.34761 0.0
O39 O 0.51626 0.73304 0.33602 0.0
C40 C 0.52798 0.76377 0.20891 0.0
C41 C 0.53864 0.83002 0.18086 0.0
O42 O 0.5553 0.82381 0.17433 0.0
O43 O 0.52786 0.82205 0.22455 0.0
O44 O 0.26731 0.50731 0.09151 0.0
Cd45 Cd 0.29378 0.50532 0.01297 0.0
O46 O 0.26091 0.47755 0.07943 0.0
Cd47 Cd 0.27456 0.47677 0.97918 0.0
O48 O 0.25463 0.48085 0.89593 0.0
C49 C 0.24241 0.46814 0.89015 0.0
O50 O 0.24428 0.45291 0.92712 0.0
C51 C 0.25831 0.49293 0.11046 0.0
C52 C 0.32512 0.50196 0.09629 0.0
O53 O 0.31939 0.51796 0.07603 0.0
O54 O 0.31646 0.48748 0.07475 0.0
O55 O 0.97587 0.27944 0.14595 0.0
Cd56 Cd 0.97422 0.30963 0.08906 0.0
O57 O 0.00343 0.27667 0.09857 0.0
Cd58 Cd 0.02663 0.2594 0.06431 0.0
O59 O 0.03474 0.23281 0.01993 0.0
C60 C 0.02146 0.22113 0.01756 0.0
O61 O 0.00503 0.2261 0.04115 0.0
C62 C 0.99061 0.26999 0.1366 0.0
C63 C 0.9863 0.33701 0.17954 0.0
O64 O 0.96903 0.33262 0.17534 0.0
O65 O 0.99787 0.32863 0.13983 0.0
O66 O 0.24613 0.03107 0.09078 0.0
Cd67 Cd 0.21557 0.036 0.03906 0.0
O68 O 0.24975 0.00971 0.01174 0.0
Cd69 Cd 0.26188 0.98588 0.95747 0.0
O70 O 0.2621 0.96065 0.88582 0.0
C71 C 0.27436 0.95765 0.83915 0.0
O72 O 0.26153 0.96007 0.88594 0.0
C73 C 0.25606 0.01834 0.06392 0.0
C74 C 0.18747 0.03223 0.13704 0.0
O75 O 0.19506 0.01791 0.10938 0.0
O76 O 0.19304 0.04841 0.11813 0.0
O77 O 0.53993 0.23272 0.10531 0.0
Cd78 Cd 0.5407 0.20153 0.05613 0.0
O79 O 0.51213 0.23521 0.05978 0.0
Cd80 Cd 0.4866 0.25081 0.04118 0.0
O81 O 0.47289 0.27616 0.00754 0.0
C82 C 0.47377 0.27984 0.94365 0.0
O83 O 0.48134 0.26754 0.90199 0.0
C84 C 0.52535 0.24229 0.09455 0.0
C85 C 0.52856 0.17633 0.15503 0.0
O86 O 0.5459 0.18013 0.14786 0.0
O87 O 0.51694 0.18421 0.11432 0.0
La88 La 0.01914 0.99656 0.73967 0.0
La89 La 0.00465 0.01148 0.6029 0.0
C90 C 0.0226 0.97979 0.8533 0.0
C91 C 0.01858 0.96121 0.88168 0.0
C92 C 0.02671 0.95592 0.94422 0.0
C93 C 0.02293 0.93844 0.97277 0.0
C94 C 0.01097 0.92588 0.93906 0.0
C95 C 0.0029 0.93123 0.87604 0.0
C96 C 0.00662 0.94878 0.84772 0.0
C97 C 0.04476 0.00559 0.64887 0.0
C98 C 0.00702 0.96862 0.61938 0.0
C99 C 0.99959 0.02806 0.48967 0.0
C100 C 1.0 0.04716 0.46222 0.0
C101 C 0.98846 0.05174 0.40667 0.0
C102 C 0.98849 0.06977 0.37953 0.0
C103 C 1.00004 0.08365 0.40774 0.0
C104 C 0.01166 0.07896 0.46352 0.0
C105 C 0.01167 0.06086 0.49036 0.0
C106 C 0.97924 1.00186 0.69356 0.0
C107 C 0.01821 0.03944 0.72203 0.0
O108 O 0.03576 0.98066 0.80669 0.0
O109 O 0.00814 0.98993 0.83673 0.0
O110 O 0.04698 0.00724 0.71493 0.0
O111 O 0.02933 0.99801 0.63665 0.0
O112 O 0.00921 0.97151 0.68632 0.0
O113 O 0.00706 0.98243 0.57428 0.0
O114 O 0.98624 0.02431 0.53341 0.0
O115 O 0.01554 0.02094 0.50888 0.0
O116 O 0.97729 0.99984 0.62766 0.0
O117 O 0.9944 0.00994 0.7059 0.0
O118 O 0.0146 0.03669 0.65576 0.0
O119 O 0.01865 0.02567 0.76712 0.0
H120 H 0.03599 0.96534 0.9711 0.0
H121 H 0.02953 0.93467 0.02091 0.0
H122 H 0.99347 0.92197 0.84919 0.0
H123 H 1.00006 0.95267 0.79968 0.0
H124 H 0.97943 0.04131 0.38403 0.0
H125 H 0.97962 0.07275 0.33587 0.0
H126 H 0.02057 0.08932 0.48706 0.0
H127 H 0.02079 0.05755 0.53296 0.0
La128 La 0.50335 0.02097 0.78888 0.0
La129 La 0.4927 0.0073 0.63761 0.0
C130 C 0.51804 0.02492 0.90564 0.0
C131 C 0.53589 0.01916 0.93632 0.0
C132 C 0.54332 0.02935 0.9914 0.0
C133 C 0.56105 0.02515 0.01696 0.0
C134 C 0.57171 0.01073 0.9875 0.0
C135 C 0.56402 1.00032 0.93317 0.0
C136 C 0.54629 0.00449 0.90789 0.0
C137 C 0.49714 0.04636 0.69416 0.0
C138 C 0.53462 0.00678 0.68158 0.0
C139 C 0.48176 0.00916 0.51519 0.0
C140 C 0.46413 0.00506 0.47914 0.0
C141 C 0.46423 0.99403 0.41951 0.0
C142 C 0.44768 0.9907 0.38346 0.0
C143 C 0.43073 0.99843 0.40629 0.0
C144 C 0.4307 0.00927 0.46665 0.0
C145 C 0.44717 0.01249 0.50275 0.0
C146 C 0.49249 0.97981 0.72895 0.0
C147 C 0.46123 0.01603 0.75088 0.0
O148 O 0.51941 0.03723 0.85604 0.0
O149 O 0.50613 0.01163 0.89094 0.0
O150 O 0.4931 0.0487 0.75885 0.0
O151 O 0.50498 0.0309 0.68609 0.0
O152 O 0.52949 0.00997 0.74636 0.0
O153 O 0.52278 0.00688 0.62924 0.0
O154 O 0.49104 0.99483 0.53963 0.0
O155 O 0.48132 0.02325 0.55833 0.0
O156 O 0.48812 0.97753 0.66457 0.0
O157 O 0.49618 0.99668 0.73639 0.0
O158 O 0.466 0.01465 0.68483 0.0
O159 O 0.47355 0.01696 0.8018 0.0
H160 H 0.53557 0.04084 0.01363 0.0
H161 H 0.56663 0.03356 0.05836 0.0
H162 H 0.57175 0.98898 0.90987 0.0
H163 H 0.54092 0.99648 0.86519 0.0
H164 H 0.47714 0.98813 0.40047 0.0
H165 H 0.44819 0.98209 0.33769 0.0
H166 H 0.41802 0.01575 0.48521 0.0
H167 H 0.44661 0.02109 0.54853 0.0
La168 La 0.48517 0.51056 0.73272 0.0
La169 La 0.49926 0.49594 0.59517 0.0
C170 C 0.4815 0.52721 0.84634 0.0
C171 C 0.48506 0.54602 0.8737 0.0
C172 C 0.47282 0.5535 0.92272 0.0
C173 C 0.47584 0.57131 0.94961 0.0
C174 C 0.49124 0.58196 0.92814 0.0
C175 C 0.50349 0.57442 0.87878 0.0
C176 C 0.50039 0.55663 0.85157 0.0
C177 C 0.4598 0.50434 0.63815 0.0
C178 C 0.4998 0.53868 0.61696 0.0
C179 C 0.50154 0.47973 0.48029 0.0
C180 C 0.50284 0.46053 0.45372 0.0
C181 C 0.51538 0.44754 0.48156 0.0
C182 C 0.5168 0.42965 0.45338 0.0
C183 C 0.50562 0.42435 0.39715 0.0
C184 C 0.49278 0.43731 0.37063 0.0
C185 C 0.49146 0.45521 0.39852 0.0
C186 C 0.52508 0.5024 0.68736 0.0
C187 C 0.4846 0.46767 0.7125 0.0
O188 O 0.46822 0.52589 0.80057 0.0
O189 O 0.49611 0.51723 0.8297 0.0
O190 O 0.45696 0.50168 0.70342 0.0
O191 O 0.47572 0.51109 0.62907 0.0
O192 O 0.49728 0.53533 0.68349 0.0
O193 O 0.49852 0.52534 0.57025 0.0
O194 O 0.51594 0.48623 0.51396 0.0
O195 O 0.48574 0.48429 0.50949 0.0
O196 O 0.52763 0.50417 0.62155 0.0
O197 O 0.50916 0.49571 0.69871 0.0
O198 O 0.48939 0.47054 0.64724 0.0
O199 O 0.48382 0.48131 0.75816 0.0
H200 H 0.46091 0.54553 0.94039 0.0
H201 H 0.46626 0.57664 0.98803 0.0
H202 H 0.51535 0.58237 0.8606 0.0
H203 H 0.50996 0.55119 0.81332 0.0
H204 H 0.52424 0.45125 0.52452 0.0
H205 H 0.52696 0.42013 0.47475 0.0
H206 H 0.48367 0.43363 0.32836 0.0
H207 H 0.48158 0.46498 0.37666 0.0
La208 La 0.00963 0.49764 0.7931 0.0
La209 La 0.01642 0.51355 0.64945 0.0
C210 C 0.9961 0.49344 0.91173 0.0
C211 C 0.97721 0.49704 0.93851 0.0
C212 C 0.96953 0.48533 0.98889 0.0
C213 C 0.95102 0.48768 0.01014 0.0
C214 C 0.93984 0.50166 0.98063 0.0
C215 C 0.94769 0.51357 0.931 0.0
C216 C 0.96622 0.51136 0.91044 0.0
C217 C 0.01695 0.47317 0.69657 0.0
C218 C 0.97545 0.50722 0.69092 0.0
C219 C 0.02909 0.51875 0.53021 0.0
C220 C 0.04774 0.51613 0.50043 0.0
C221 C 0.05418 0.52836 0.44949 0.0
C222 C 0.07242 0.5269 0.42475 0.0
C223 C 0.08454 0.51326 0.45114 0.0
C224 C 0.07795 0.50086 0.50158 0.0
C225 C 0.05968 0.50222 0.52576 0.0
C226 C 0.00817 0.53787 0.74492 0.0
C227 C 0.05066 0.50243 0.74923 0.0
O228 O 0.99734 0.47994 0.86662 0.0
O229 O 0.00567 0.50813 0.89289 0.0
O230 O 0.02168 0.47091 0.76064 0.0
O231 O 0.00742 0.48775 0.69062 0.0
O232 O 0.98162 0.50456 0.75454 0.0
O233 O 0.98686 0.50928 0.63798 0.0
O234 O 0.02781 0.53194 0.57654 0.0
O235 O 0.02035 0.50355 0.54905 0.0
O236 O 0.00331 0.53966 0.6809 0.0
O237 O 0.01827 0.52367 0.75205 0.0
O238 O 0.04426 0.50582 0.68644 0.0
O239 O 0.0395 0.50042 0.80305 0.0
H240 H 0.97774 0.47415 0.01084 0.0
H241 H 0.9453 0.47825 0.04826 0.0
H242 H 0.93949 0.52461 0.90806 0.0
H243 H 0.97183 0.52068 0.87176 0.0
H244 H 0.0452 0.53925 0.42973 0.0
H245 H 0.07719 0.53672 0.3862 0.0
H246 H 0.08691 0.49008 0.52224 0.0
H247 H 0.055 0.49255 0.56497 0.0
H248 H 0.18313 0.00375 0.22792 0.0
H249 H 0.15891 1.00022 0.31555 0.0
H250 H 0.13382 0.05187 0.24939 0.0
H251 H 0.15882 0.05604 0.16482 0.0
H252 H 0.13266 0.0507 0.38021 0.0
H253 H 0.10771 0.98227 0.28891 0.0
H254 H 0.13183 0.981 0.3116 0.0
H255 H 0.12455 0.99572 0.24127 0.0
C256 C 0.17241 0.01431 0.23211 0.0
C257 C 0.17273 0.03009 0.1894 0.0
C258 C 0.15847 0.01221 0.28179 0.0
C259 C 0.14416 0.02548 0.28789 0.0
C260 C 0.14461 0.04137 0.24552 0.0
H261 H 0.0429 0.99849 0.51153 0.0
H262 H 0.06624 0.0053 0.42384 0.0
C263 C 0.15887 0.04374 0.19715 0.0
C264 C 0.12899 0.02301 0.33935 0.0
H265 H 0.09765 0.99144 0.40137 0.0
C266 C 0.12486 0.0378 0.38432 0.0
C267 C 0.11851 0.00634 0.34406 0.0
C268 C 0.12074 0.99055 0.29331 0.0
C269 C 0.11078 0.03629 0.43433 0.0
C270 C 0.10117 0.01918 0.44196 0.0
C271 C 0.10515 0.00449 0.3964 0.0
C272 C 0.08663 0.01621 0.49553 0.0
C273 C 0.10608 0.05327 0.47684 0.0
C274 C 0.09019 0.02001 0.56534 0.0
C275 C 0.07646 0.01686 0.61526 0.0
C276 C 0.05916 0.00933 0.59648 0.0
C277 C 0.05584 0.00494 0.52716 0.0
C278 C 0.06931 0.00858 0.47709 0.0
H279 H 0.10987 0.06632 0.44938 0.0
H280 H 0.09101 0.05381 0.48965 0.0
H281 H 0.11416 0.0529 0.52549 0.0
H282 H 0.10364 0.0252 0.58149 0.0
H283 H 0.07949 0.02006 0.66861 0.0
H284 H 0.55 0.15623 0.24388 0.0
H285 H 0.53951 0.13576 0.33657 0.0
H286 H 0.48228 0.14742 0.28479 0.0
H287 H 0.49265 0.16775 0.19088 0.0
H288 H 0.51741 0.14497 0.45011 0.0
H289 H 0.48426 0.09028 0.28814 0.0
H290 H 0.49981 0.10759 0.25282 0.0
H291 H 0.47627 0.11373 0.27452 0.0
C292 C 0.53517 0.15438 0.25185 0.0
C293 C 0.52215 0.16355 0.20986 0.0
C294 C 0.52921 0.14272 0.30497 0.0
C295 C 0.51014 0.13998 0.31713 0.0
C296 C 0.49706 0.14913 0.27551 0.0
H297 H 0.47865 0.07976 0.69793 0.0
H298 H 0.47836 0.10385 0.60762 0.0
C299 C 0.50302 0.16077 0.22206 0.0
C300 C 0.50417 0.12765 0.37408 0.0
H301 H 0.4837 0.08573 0.40809 0.0
C302 C 0.50984 0.13211 0.44122 0.0
C303 C 0.49434 0.1109 0.36195 0.0
C304 C 0.4884 0.10518 0.29048 0.0
C305 C 0.5066 0.11989 0.49635 0.0
C306 C 0.49714 0.10295 0.48398 0.0
C307 C 0.49082 0.09883 0.41731 0.0
C308 C 0.49587 0.08827 0.53724 0.0
C309 C 0.51423 0.12474 0.56651 0.0
C310 C 0.50541 0.07148 0.52671 0.0
C311 C 0.50553 0.05783 0.57763 0.0
C312 C 0.49599 0.06065 0.63998 0.0
C313 C 0.48612 0.07731 0.65026 0.0
C314 C 0.48599 0.09104 0.59895 0.0
H315 H 0.52384 0.13686 0.56464 0.0
H316 H 0.50252 0.12826 0.60157 0.0
H317 H 0.52179 0.11267 0.58886 0.0
H318 H 0.51318 0.0691 0.47959 0.0
H319 H 0.51339 0.04518 0.56856 0.0
H320 H 0.33925 0.4702 0.15425 0.0
H321 H 0.36231 0.46799 0.24672 0.0
H322 H 0.36867 0.52772 0.245 0.0
H323 H 0.34555 0.53012 0.15316 0.0
H324 H 0.39987 0.48042 0.25518 0.0
H325 H 0.35409 0.51549 0.44586 0.0
H326 H 0.3455 0.50648 0.36508 0.0
H327 H 0.35744 0.52849 0.36778 0.0
C328 C 0.34567 0.48286 0.17313 0.0
C329 C 0.34045 0.50036 0.14677 0.0
C330 C 0.35882 0.48156 0.22596 0.0
C331 C 0.36688 0.49771 0.25347 0.0
C332 C 0.3623 0.51512 0.22533 0.0
H333 H 0.46268 0.5158 0.50551 0.0
H334 H 0.43997 0.51192 0.41324 0.0
C335 C 0.34917 0.51645 0.17257 0.0
C336 C 0.37981 0.49648 0.31255 0.0
H337 H 0.38578 0.51119 0.47821 0.0
C338 C 0.39676 0.48701 0.30415 0.0
C339 C 0.37553 0.50479 0.37674 0.0
C340 C 0.35708 0.51424 0.38988 0.0
C341 C 0.4099 0.48628 0.35755 0.0
C342 C 0.40602 0.49546 0.42047 0.0
C343 C 0.38877 0.50428 0.42972 0.0
C344 C 0.42003 0.49694 0.47604 0.0
C345 C 0.42783 0.47572 0.34613 0.0
C346 C 0.41615 0.4902 0.54248 0.0
C347 C 0.42912 0.49248 0.59555 0.0
C348 C 0.44607 0.50161 0.58283 0.0
C349 C 0.44983 0.50846 0.51647 0.0
C350 C 0.43692 0.50617 0.4636 0.0
H351 H 0.42632 0.46507 0.30497 0.0
H352 H 0.43887 0.48562 0.32987 0.0
H353 H 0.43249 0.46872 0.39412 0.0
H354 H 0.40308 0.48321 0.5532 0.0
H355 H 0.42589 0.48715 0.64639 0.0
H356 H 0.96493 0.35775 0.26679 0.0
H357 H 0.97546 0.38003 0.35336 0.0
H358 H 0.03258 0.36984 0.29512 0.0
H359 H 0.02215 0.34765 0.2074 0.0
H360 H 0.99931 0.37274 0.4648 0.0
H361 H 0.02804 0.42709 0.28971 0.0
H362 H 0.01268 0.4089 0.25978 0.0
H363 H 0.03667 0.40379 0.27765 0.0
C364 C 0.97973 0.36032 0.27196 0.0
C365 C 0.9927 0.35098 0.23012 0.0
C366 C 0.98572 0.37302 0.32157 0.0
C367 C 0.00477 0.37665 0.33022 0.0
C368 C 0.0178 0.36742 0.28848 0.0
H369 H 0.03777 0.44123 0.69779 0.0
H370 H 0.03851 0.41688 0.60865 0.0
C371 C 0.01181 0.35471 0.2386 0.0
C372 C 0.01079 0.38985 0.38421 0.0
H373 H 0.02963 0.43298 0.4088 0.0
C374 C 0.00615 0.38583 0.45284 0.0
C375 C 0.01965 0.40689 0.36803 0.0
C376 C 0.02447 0.41209 0.29482 0.0
C377 C 0.00949 0.39872 0.50564 0.0
C378 C 0.01801 0.41593 0.48933 0.0
C379 C 0.02326 0.41968 0.42103 0.0
C380 C 0.01933 0.43109 0.54061 0.0
C381 C 0.00296 0.39423 0.57773 0.0
C382 C 0.00877 0.44729 0.53074 0.0
C383 C 0.00838 0.4611 0.58106 0.0
C384 C 0.01862 0.45902 0.6421 0.0
C385 C 0.02968 0.44308 0.65124 0.0
C386 C 0.03009 0.4292 0.60058 0.0
H387 H 0.99385 0.38172 0.57917 0.0
H388 H 0.01523 0.39151 0.61092 0.0
H389 H 0.99519 0.40618 0.60004 0.0
H390 H 1.00032 0.44898 0.48496 0.0
H391 H 0.99956 0.47315 0.57299 0.0
H392 H 0.84694 0.99782 0.14205 0.0
H393 H 0.87348 0.00412 0.06622 0.0
H394 H 0.87449 0.94644 0.0043 0.0
H395 H 0.84799 0.93995 0.08005 0.0
H396 H 0.9105 0.96274 0.03943 0.0
H397 H 0.86979 0.0047 0.85145 0.0
H398 H 0.86767 0.01152 0.94026 0.0
H399 H 0.85887 0.9893 0.91303 0.0
C400 C 0.8528 0.98646 0.11235 0.0
C401 C 0.84528 0.9684 0.11671 0.0
C402 C 0.86793 0.99011 0.069 0.0
C403 C 0.87578 0.97577 0.02934 0.0
C404 C 0.86856 0.95768 0.03449 0.0
H405 H 0.94766 0.98184 0.67355 0.0
H406 H 0.92311 0.97509 0.75777 0.0
C407 C 0.85339 0.95402 0.0776 0.0
C408 C 0.89135 0.97967 0.98156 0.0
H409 H 0.90227 0.00271 0.83315 0.0
C410 C 0.90876 0.9715 0.99437 0.0
C411 C 0.88889 0.99096 0.92262 0.0
C412 C 0.87028 0.99954 0.90539 0.0
C413 C 0.9239 0.97444 0.94975 0.0
C414 C 0.92148 0.98592 0.89128 0.0
C415 C 0.90404 0.994 0.87833 0.0
C416 C 0.93675 0.98941 0.84178 0.0
C417 C 0.94224 0.96502 0.96459 0.0
C418 C 0.95246 0.99975 0.86128 0.0
C419 C 0.96643 0.0037 0.81321 0.0
C420 C 0.96489 0.99729 0.7451 0.0
C421 C 0.94919 0.98689 0.72581 0.0
C422 C 0.93519 0.98302 0.77376 0.0
H423 H 0.94079 0.95381 0.00372 0.0
H424 H 0.94823 0.95894 0.91681 0.0
H425 H 0.95227 0.97548 0.98447 0.0
H426 H 0.95372 0.00508 0.91327 0.0
H427 H 0.97823 0.01206 0.82897 0.0
H428 H 0.50342 0.84455 0.17484 0.0
H429 H 0.49234 0.86978 0.1005 0.0
H430 H 0.54775 0.87643 0.0178 0.0
H431 H 0.55887 0.85108 0.09079 0.0
H432 H 0.50333 0.90678 0.09132 0.0
H433 H 0.51607 0.8697 0.84543 0.0
H434 H 0.5162 0.85799 0.92772 0.0
H435 H 0.53636 0.87075 0.89912 0.0
C436 C 0.51324 0.85138 0.14079 0.0
C437 C 0.53199 0.84572 0.13822 0.0
C438 C 0.50689 0.86579 0.09845 0.0
C439 C 0.51916 0.87471 0.05281 0.0
C440 C 0.53797 0.86942 0.05152 0.0
H441 H 0.51326 0.97984 0.84535 0.0
H442 H 0.51722 0.95444 0.92785 0.0
C443 C 0.54432 0.85499 0.09354 0.0
C444 C 0.51241 0.88963 0.00661 0.0
H445 H 0.51062 0.90246 0.83765 0.0
C446 C 0.50474 0.9058 0.03579 0.0
C447 C 0.51393 0.88814 0.93419 0.0
C448 C 0.52091 0.87063 0.89966 0.0
C449 C 0.49923 0.92086 0.99445 0.0
C450 C 0.50181 0.91979 0.92229 0.0
C451 C 0.50881 0.90333 0.89305 0.0
C452 C 0.4981 0.93578 0.8761 0.0
C453 C 0.49067 0.93772 0.02845 0.0
C454 C 0.48632 0.93366 0.81894 0.0
C455 C 0.48419 0.94819 0.7717 0.0
C456 C 0.49371 0.96507 0.78121 0.0
C457 C 0.5053 0.96724 0.83859 0.0
C458 C 0.50757 0.9527 0.88555 0.0
H459 H 0.48422 0.93408 0.07877 0.0
H460 H 0.50171 0.9482 0.03827 0.0
H461 H 0.4799 0.94419 0.99514 0.0
H462 H 0.47903 0.92066 0.8103 0.0
H463 H 0.47527 0.94617 0.72738 0.0
H464 H 0.65866 0.56179 0.05172 0.0
H465 H 0.63091 0.55415 0.98463 0.0
H466 H 0.63179 0.49816 0.06517 0.0
H467 H 0.65964 0.50563 0.1324 0.0
H468 H 0.62825 0.50055 0.9201 0.0
H469 H 0.57706 0.54575 0.05454 0.0
H470 H 0.59799 0.55754 0.0284 0.0
H471 H 0.59919 0.53939 0.092 0.0
C472 C 0.65292 0.54786 0.05546 0.0
C473 C 0.66134 0.53431 0.09741 0.0
C474 C 0.63698 0.54357 0.01747 0.0
C475 C 0.62917 0.52569 0.02085 0.0
C476 C 0.63756 0.51209 0.06239 0.0
H477 H 0.52427 0.49293 0.82385 0.0
H478 H 0.54905 0.49777 0.90913 0.0
C479 C 0.65346 0.51639 0.10066 0.0
C480 C 0.61281 0.52095 0.97813 0.0
H481 H 0.56769 0.53321 0.94598 0.0
C482 C 0.61495 0.50754 0.92616 0.0
C483 C 0.59543 0.52996 0.98676 0.0
C484 C 0.59216 0.54384 0.04384 0.0
C485 C 0.60036 0.50343 0.88073 0.0
C486 C 0.58329 0.51309 0.88726 0.0
C487 C 0.58088 0.52596 0.94089 0.0
C488 C 0.56812 0.51059 0.83685 0.0
C489 C 0.60334 0.4889 0.82562 0.0
C490 C 0.5706 0.51649 0.76862 0.0
C491 C 0.55647 0.51394 0.7203 0.0
C492 C 0.53962 0.50547 0.73949 0.0
C493 C 0.53705 0.49972 0.80802 0.0
C494 C 0.55119 0.50238 0.85656 0.0
H495 H 0.61538 0.47972 0.83755 0.0
H496 H 0.59071 0.48014 0.81925 0.0
H497 H 0.60617 0.49595 0.7758 0.0
H498 H 0.5835 0.52307 0.75277 0.0
H499 H 0.55877 0.51855 0.66783 0.0
H500 H 0.9949 0.66453 0.21345 0.0
H501 H 0.00375 0.63854 0.13848 0.0
H502 H 0.94638 0.63157 0.0784 0.0
H503 H 0.93736 0.6575 0.15313 0.0
H504 H 0.9676 0.59705 0.11101 0.0
H505 H 1.00195 0.64451 0.92257 0.0
H506 H 0.00883 0.64687 0.01121 0.0
H507 H 0.98551 0.65277 0.98612 0.0
C508 C 0.98414 0.65738 0.18471 0.0
C509 C 0.96545 0.66316 0.18873 0.0
C510 C 0.98923 0.64258 0.14192 0.0
C511 C 0.97571 0.63332 0.1027 0.0
C512 C 0.95698 0.6386 0.10836 0.0
H513 H 0.98238 0.56542 0.73953 0.0
H514 H 0.9745 0.58785 0.83019 0.0
C515 C 0.95188 0.65345 0.15086 0.0
C516 C 0.98116 0.61874 0.05299 0.0
H517 H 0.00309 0.61234 0.89874 0.0
C518 C 0.97545 0.60031 0.06476 0.0
C519 C 0.99122 0.6232 0.99255 0.0
C520 C 0.99717 0.64291 0.97671 0.0
C521 C 0.97961 0.58614 0.01732 0.0
C522 C 0.9897 0.59063 0.95707 0.0
C523 C 0.99542 0.60903 0.94537 0.0
C524 C 0.99397 0.57655 0.90412 0.0
C525 C 0.9729 0.56655 0.03083 0.0
C526 C 0.0076 0.56293 0.91599 0.0
C527 C 0.01224 0.55025 0.86414 0.0
C528 C 0.00319 0.55097 0.80012 0.0
C529 C 0.98952 0.56458 0.78855 0.0
C530 C 0.98498 0.57733 0.84017 0.0
H531 H 0.96319 0.56585 0.07539 0.0
H532 H 0.96577 0.56091 0.98459 0.0
H533 H 0.98504 0.55745 0.0417 0.0
H534 H 0.01486 0.56236 0.96481 0.0
H535 H 0.02311 0.54013 0.8737 0.0
H536 H 0.96295 0.24452 0.15533 0.0
H537 H 0.9658 0.21286 0.20173 0.0
H538 H 0.02476 0.22126 0.23079 0.0
H539 H 0.02188 0.25307 0.18647 0.0
H540 H 0.98829 0.18351 0.15064 0.0
H541 H 0.00704 0.20234 0.41938 0.0
H542 H 0.99722 0.21894 0.35973 0.0
H543 H 0.02142 0.21272 0.35398 0.0
C544 C 0.97648 0.23963 0.17211 0.0
C545 C 0.99226 0.25111 0.1662 0.0
C546 C 0.97811 0.22155 0.19826 0.0
C547 C 0.99547 0.21476 0.21999 0.0
C548 C 0.0112 0.22629 0.21495 0.0
H549 H 0.02969 0.10731 0.38832 0.0
H550 H 0.0292 0.13892 0.34079 0.0
C551 C 0.00959 0.24436 0.18874 0.0
C552 C 0.99711 0.1955 0.24685 0.0
H553 H 0.00813 0.17033 0.39044 0.0
C554 C 0.9926 0.18061 0.20308 0.0
C555 C 0.00284 0.19178 0.31518 0.0
C556 C 0.00727 0.20727 0.36512 0.0
C557 C 0.9937 0.16207 0.22579 0.0
C558 C 0.99917 0.15838 0.29439 0.0
C559 C 0.00394 0.17324 0.33787 0.0
C560 C 0.99949 0.1392 0.32269 0.0
C561 C 0.98919 0.14658 0.17603 0.0
C562 C 0.98289 0.12905 0.32928 0.0
C563 C 0.98307 0.11109 0.35713 0.0
C564 C 0.99988 0.1029 0.37898 0.0
C565 C 0.01648 0.11323 0.37278 0.0
C566 C 0.01625 0.13125 0.34519 0.0
H567 H 0.98984 0.15138 0.12165 0.0
H568 H 0.99893 0.13469 0.1826 0.0
H569 H 0.97486 0.14147 0.18629 0.0
H570 H 0.96974 0.1351 0.31358 0.0
H571 H 0.96997 0.10374 0.36241 0.0
H572 H 0.26575 0.02042 0.19888 0.0
H573 H 0.29611 0.01339 0.2504 0.0
H574 H 0.31781 0.99889 0.05072 0.0
H575 H 0.28748 0.00595 0.99829 0.0
H576 H 0.31882 0.97667 0.23269 0.0
H577 H 0.35212 0.04184 0.1363 0.0
H578 H 0.32718 0.03978 0.14646 0.0
H579 H 0.33869 0.02807 0.07681 0.0
C580 C 0.27697 0.01563 0.16594 0.0
C581 C 0.27421 0.01348 0.0947 0.0
C582 C 0.29423 0.01156 0.19545 0.0
C583 C 0.30908 0.00558 0.15405 0.0
C584 C 0.30639 0.00337 0.08306 0.0
H585 H 0.42643 0.99813 0.26582 0.0
H586 H 0.39737 0.99678 0.20076 0.0
C587 C 0.28906 0.00724 0.05349 0.0
C588 C 0.32757 1.00228 0.18498 0.0
H589 H 0.37054 0.02185 0.20334 0.0
C590 C 0.3302 0.98646 0.22615 0.0
C591 C 0.34236 0.01499 0.17543 0.0
C592 C 0.34007 0.03221 0.13165 0.0
C593 C 0.34732 0.98308 0.25882 0.0
C594 C 0.36193 0.99621 0.25165 0.0
C595 C 0.35936 0.0118 0.20894 0.0
C596 C 0.37963 0.9947 0.29071 0.0
C597 C 0.34958 0.9654 0.30001 0.0
C598 C 0.37938 0.99375 0.36291 0.0
C599 C 0.39598 0.99417 0.40021 0.0
C600 C 0.41323 0.99595 0.36623 0.0
C601 C 0.41346 0.9965 0.29376 0.0
C602 C 0.39683 0.99588 0.25644 0.0
H603 H 0.3402 0.95424 0.28081 0.0
H604 H 0.36415 0.96023 0.29817 0.0
H605 H 0.34581 0.96817 0.35451 0.0
H606 H 0.36629 0.99328 0.39071 0.0
H607 H 0.39526 0.99345 0.45587 0.0
H608 H 0.53507 0.2537 0.22283 0.0
H609 H 0.5312 0.28481 0.27292 0.0
H610 H 0.50911 0.30478 0.0799 0.0
H611 H 0.51261 0.27359 0.03043 0.0
H612 H 0.54598 0.31742 0.24049 0.0
H613 H 0.46939 0.32247 0.20876 0.0
H614 H 0.48191 0.301 0.19509 0.0
H615 H 0.48139 0.31859 0.12899 0.0
C616 C 0.52932 0.26475 0.19136 0.0
C617 C 0.52367 0.26121 0.12347 0.0
C618 C 0.5271 0.2825 0.21993 0.0
C619 C 0.5194 0.29705 0.18081 0.0
C620 C 0.51443 0.29365 0.11197 0.0
H621 H 0.50406 0.41513 0.26014 0.0
H622 H 0.50728 0.38426 0.20821 0.0
C623 C 0.51644 0.27584 0.08371 0.0
C624 C 0.51704 0.31584 0.21179 0.0
H625 H 0.48508 0.3501 0.2439 0.0
C626 C 0.53263 0.32449 0.24156 0.0
C627 C 0.4996 0.32511 0.21318 0.0
C628 C 0.48209 0.31625 0.18541 0.0
C629 C 0.53132 0.34218 0.27198 0.0
C630 C 0.51395 0.35144 0.27287 0.0
C631 C 0.49838 0.34291 0.2429 0.0
C632 C 0.51171 0.37001 0.30488 0.0
C633 C 0.54854 0.35102 0.30216 0.0
C634 C 0.5129 0.37213 0.37654 0.0
C635 C 0.51082 0.38971 0.40662 0.0
C636 C 0.50754 0.40553 0.36548 0.0
C637 C 0.50627 0.40326 0.29357 0.0
C638 C 0.50823 0.38565 0.26366 0.0
H639 H 0.56145 0.34358 0.28657 0.0
H640 H 0.54965 0.36582 0.28595 0.0
H641 H 0.54756 0.35072 0.35921 0.0
H642 H 0.51534 0.36014 0.40922 0.0
H643 H 0.51156 0.39086 0.46215 0.0
H644 H 0.25265 0.52148 0.2015 0.0
H645 H 0.22629 0.52552 0.28017 0.0
H646 H 0.20402 0.47252 0.21524 0.0
H647 H 0.23057 0.4681 0.1387 0.0
H648 H 0.19154 0.52923 0.24431 0.0
H649 H 0.19576 0.46851 0.41767 0.0
H650 H 0.21488 0.47528 0.36255 0.0
H651 H 0.19619 0.46107 0.32962 0.0
C652 C 0.24233 0.51052 0.20515 0.0
C653 C 0.2437 0.49447 0.16392 0.0
C654 C 0.22728 0.51284 0.25011 0.0
C655 C 0.21328 0.49922 0.25442 0.0
C656 C 0.21489 0.48298 0.2145 0.0
H657 H 0.0969 0.51441 0.31836 0.0
H658 H 0.12902 0.51225 0.27732 0.0
C659 C 0.23004 0.48054 0.17026 0.0
C660 C 0.19602 0.5028 0.29448 0.0
H661 H 0.16515 0.48245 0.40523 0.0
C662 C 0.18595 0.51914 0.28043 0.0
C663 C 0.18882 0.48984 0.34261 0.0
C664 C 0.19962 0.47281 0.36453 0.0
C665 C 0.16846 0.52238 0.3103 0.0
C666 C 0.16056 0.50865 0.35368 0.0
C667 C 0.17105 0.49281 0.37085 0.0
C668 C 0.14113 0.51004 0.37911 0.0
C669 C 0.15861 0.54048 0.29467 0.0
C670 C 0.13719 0.50884 0.44982 0.0
C671 C 0.11879 0.50982 0.47331 0.0
C672 C 0.10404 0.51204 0.42643 0.0
C673 C 0.10802 0.51305 0.35568 0.0
C674 C 0.12637 0.5119 0.33224 0.0
H675 H 0.16872 0.55168 0.28177 0.0
H676 H 0.14942 0.53851 0.24937 0.0
H677 H 0.14996 0.54515 0.33888 0.0
H678 H 0.14835 0.50727 0.48684 0.0
H679 H 0.11613 0.50909 0.52819 0.0
H680 H 0.00448 0.75681 0.16501 0.0
H681 H 0.0111 0.78783 0.11843 0.0
H682 H 0.95698 0.80674 0.18527 0.0
H683 H 0.9504 0.7758 0.23279 0.0
H684 H 0.96531 0.81651 0.05022 0.0
H685 H 0.02296 0.83574 0.22639 0.0
H686 H 0.02616 0.81374 0.1837 0.0
H687 H 0.00723 0.81668 0.24333 0.0
C688 C 0.99416 0.76768 0.17104 0.0
C689 C 0.97709 0.764 0.20394 0.0
C690 C 0.99793 0.78538 0.14419 0.0
C691 C 0.98467 0.79969 0.14954 0.0
C692 C 0.96746 0.79593 0.18101 0.0
H693 H 0.00345 0.91769 0.074 0.0
H694 H 0.99682 0.88716 0.12456 0.0
C695 C 0.96369 0.77824 0.20789 0.0
C696 C 0.98846 0.81841 0.12016 0.0
H697 H 0.01798 0.85564 0.1301 0.0
C698 C 0.97679 0.8251 0.06776 0.0
C699 C 0.00328 0.82971 0.14388 0.0
C700 C 0.01556 0.82373 0.20286 0.0
C701 C 0.97972 0.84264 0.03757 0.0
C702 C 0.99497 0.85365 0.05942 0.0
C703 C 0.00644 0.8471 0.11275 0.0
C704 C 0.99909 0.87212 0.02833 0.0
C705 C 0.96621 0.84936 0.9835 0.0
C706 C 0.00279 0.87379 0.95754 0.0
C707 C 0.00653 0.89124 0.92846 0.0
C708 C 0.00689 0.90733 0.96978 0.0
C709 C 0.00344 0.90556 0.04085 0.0
C710 C 0.9996 0.88813 0.0698 0.0
H711 H 0.95269 0.84187 0.98669 0.0
H712 H 0.96355 0.86453 0.98868 0.0
H713 H 0.9722 0.84675 0.93166 0.0
H714 H 0.00294 0.86158 0.92479 0.0
H715 H 0.00945 0.89208 0.87379 0.0
H716 H 0.74644 0.97756 0.09077 0.0
H717 H 0.71465 0.9839 0.05062 0.0
H718 H 0.69607 0.9889 0.26122 0.0
H719 H 0.72764 0.98223 0.30132 0.0
H720 H 0.68198 0.96406 0.07971 0.0
H721 H 0.67652 0.03699 0.17307 0.0
H722 H 0.69853 0.02494 0.16591 0.0
H723 H 0.68333 0.02044 0.2377 0.0
C724 C 0.73557 0.98015 0.12836 0.0
C725 C 0.73963 0.98009 0.19911 0.0
C726 C 0.71745 0.98377 0.10543 0.0
C727 C 0.7031 0.98734 0.15289 0.0
C728 C 0.70705 0.98681 0.22363 0.0
H729 H 0.58444 0.0098 0.12058 0.0
H730 H 0.61627 0.0038 0.16011 0.0
C731 C 0.72514 0.98318 0.24651 0.0
C732 C 0.68384 0.99092 0.12853 0.0
H733 H 0.64878 0.0231 0.13102 0.0
C734 C 0.67474 0.97701 0.09055 0.0
C735 C 0.67441 0.00778 0.14313 0.0
C736 C 0.68372 0.02348 0.18167 0.0
C737 C 0.65633 0.97936 0.06774 0.0
C738 C 0.64691 0.99625 0.08211 0.0
C739 C 0.65602 0.01016 0.12012 0.0
C740 C 0.62763 0.9998 0.05786 0.0
C741 C 0.64699 0.96355 0.02993 0.0
C742 C 0.6235 0.99978 0.98723 0.0
C743 C 0.60535 0.00321 0.96451 0.0
C744 C 0.59097 0.00689 0.01197 0.0
C745 C 0.59521 0.00713 0.08269 0.0
C746 C 0.61337 0.00365 0.10537 0.0
H747 H 0.65406 0.95003 0.03971 0.0
H748 H 0.63213 0.96226 0.04521 0.0
H749 H 0.64758 0.9663 0.97372 0.0
H750 H 0.63437 0.99732 0.94955 0.0
H751 H 0.60265 0.00331 0.90963 0.0
H752 H 0.49467 0.75128 0.15887 0.0
H753 H 0.48733 0.72 0.11606 0.0
H754 H 0.54416 0.70305 0.15122 0.0
H755 H 0.55148 0.73419 0.1954 0.0
H756 H 0.50458 0.7015 0.00303 0.0
H757 H 0.51279 0.66193 0.24702 0.0
H758 H 0.50899 0.68679 0.24443 0.0
H759 H 0.5317 0.67744 0.22682 0.0
C760 C 0.5055 0.74077 0.15873 0.0
C761 C 0.52355 0.74504 0.18175 0.0
C762 C 0.50132 0.72297 0.13377 0.0
C763 C 0.51512 0.70913 0.13163 0.0
C764 C 0.53322 0.71343 0.15373 0.0
H765 H 0.52417 0.59687 0.97276 0.0
H766 H 0.52942 0.62789 0.02197 0.0
C767 C 0.53742 0.73125 0.17833 0.0
C768 C 0.51082 0.69042 0.10341 0.0
H769 H 0.51002 0.64412 0.14424 0.0
C770 C 0.50564 0.68896 0.03395 0.0
C771 C 0.51215 0.67412 0.14404 0.0
C772 C 0.51655 0.67504 0.2199 0.0
C773 C 0.50223 0.67154 0.00351 0.0
C774 C 0.50391 0.65522 0.04379 0.0
C775 C 0.50889 0.65668 0.11345 0.0
C776 C 0.50063 0.63649 0.01422 0.0
C777 C 0.49725 0.67065 0.92812 0.0
C778 C 0.48268 0.63106 0.99406 0.0
C779 C 0.47963 0.61338 0.96601 0.0
C780 C 0.49451 0.60081 0.95745 0.0
C781 C 0.51248 0.60631 0.97788 0.0
C782 C 0.51548 0.62396 0.00639 0.0
H783 H 0.49985 0.6841 0.90143 0.0
H784 H 0.50536 0.65953 0.90186 0.0
H785 H 0.48225 0.66721 0.9229 0.0
H786 H 0.47101 0.6405 0.00023 0.0
H787 H 0.46566 0.6096 0.95034 0.0
H788 H 0.76155 0.52243 0.07025 0.0
H789 H 0.79324 0.5158 0.02927 0.0
H790 H 0.81445 0.52465 0.23421 0.0
H791 H 0.7831 0.53208 0.27464 0.0
H792 H 0.8257 0.54122 0.04511 0.0
H793 H 0.8354 0.47229 0.17083 0.0
H794 H 0.81265 0.48204 0.1539 0.0
H795 H 0.82632 0.49064 0.22437 0.0
C796 C 0.77296 0.52284 0.10663 0.0
C797 C 0.7697 0.5271 0.17633 0.0
C798 C 0.79102 0.51902 0.08318 0.0
C799 C 0.80609 0.51934 0.12908 0.0
C800 C 0.80292 0.52382 0.19841 0.0
H801 H 0.92513 0.50204 0.11055 0.0
H802 H 0.89244 0.50621 0.14361 0.0
C803 C 0.78492 0.5278 0.22171 0.0
C804 C 0.82529 0.51587 0.10414 0.0
H805 H 0.86196 0.48585 0.11863 0.0
C806 C 0.83363 0.52906 0.06063 0.0
C807 C 0.83556 0.50007 0.12507 0.0
C808 C 0.82705 0.48533 0.17074 0.0
C809 C 0.85221 0.52714 0.0389 0.0
C810 C 0.86254 0.51129 0.0597 0.0
C811 C 0.85406 0.49798 0.10264 0.0
C812 C 0.8823 0.50846 0.03898 0.0
C813 C 0.86076 0.54249 0.99606 0.0
C814 C 0.88746 0.50803 0.96915 0.0
C815 C 0.90614 0.50587 0.95024 0.0
C816 C 0.91999 0.50371 0.00078 0.0
C817 C 0.91475 0.50361 0.07054 0.0
C818 C 0.89609 0.50601 0.08944 0.0
H819 H 0.85297 0.55578 0.00161 0.0
H820 H 0.8755 0.54496 0.01069 0.0
H821 H 0.86035 0.53844 0.94093 0.0
H822 H 0.87704 0.50932 0.92918 0.0
H823 H 0.90975 0.50565 0.89602 0.0
H824 H 0.05106 0.2085 0.94132 0.0
H825 H 0.05371 0.17839 0.88232 0.0
H826 H 1.0004 0.16186 0.96498 0.0
H827 H 0.99746 0.19188 0.0228 0.0
H828 H 0.05325 0.14199 0.93254 0.0
H829 H 0.99379 0.1547 0.75744 0.0
H830 H 0.00456 0.17304 0.80702 0.0
H831 H 0.98769 0.15783 0.84636 0.0
C832 C 0.03994 0.19841 0.94702 0.0
C833 C 0.02394 0.20262 0.9859 0.0
C834 C 0.04147 0.18126 0.91329 0.0
C835 C 0.02704 0.16814 0.91806 0.0
C836 C 0.01144 0.17203 0.95915 0.0
H837 H 0.02181 0.05105 0.85526 0.0
H838 H 0.02625 0.08276 0.89681 0.0
C839 C 0.00984 0.18915 0.99243 0.0
C840 C 0.02814 0.1503 0.88031 0.0
H841 H 0.00401 0.12305 0.76769 0.0
C842 C 0.04264 0.1379 0.89582 0.0
C843 C 0.01451 0.1452 0.8313 0.0
C844 C 0.99937 0.15847 0.80893 0.0
C845 C 0.0433 0.12008 0.8662 0.0
C846 C 0.02887 0.11449 0.82114 0.0
C847 C 0.01494 0.12727 0.80294 0.0
C848 C 0.0273 0.09517 0.79525 0.0
C849 C 0.05938 0.10742 0.88375 0.0
C850 C 0.02592 0.09167 0.72434 0.0
C851 C 0.02308 0.07355 0.70034 0.0
C852 C 0.02155 0.05862 0.7469 0.0
C853 C 0.02306 0.06219 0.81788 0.0
C854 C 0.02577 0.08031 0.84179 0.0
H855 H 0.07191 0.11554 0.89874 0.0
H856 H 0.05544 0.09851 0.92817 0.0
H857 H 0.06306 0.09824 0.83973 0.0
H858 H 0.02689 0.103 0.6876 0.0
H859 H 0.02199 0.07131 0.64543 0.0
H860 H 0.29389 0.97275 0.94794 0.0
H861 H 0.32447 0.98796 0.94217 0.0
H862 H 0.32538 0.98065 0.7221 0.0
H863 H 0.29486 0.96535 0.72732 0.0
H864 H 0.35678 0.97076 0.89002 0.0
H865 H 0.34066 0.03594 0.74872 0.0
H866 H 0.32301 0.0223 0.79203 0.0
H867 H 0.33163 0.01521 0.70908 0.0
C868 C 0.30032 0.97496 0.89813 0.0
C869 C 0.29183 0.96838 0.83762 0.0
C870 C 0.3178 0.98353 0.89509 0.0
C871 C 0.32691 0.98586 0.83174 0.0
C872 C 0.31836 0.97942 0.77132 0.0
H873 H 0.4322 0.01134 0.66183 0.0
H874 H 0.39957 0.00637 0.68978 0.0
C875 C 0.30101 0.97063 0.77438 0.0
C876 C 0.34607 0.99342 0.82929 0.0
H877 H 0.37278 0.02735 0.75561 0.0
C878 C 0.3603 0.98329 0.86159 0.0
C879 C 0.35052 0.00977 0.79221 0.0
C880 C 0.33564 0.02156 0.75901 0.0
C881 C 0.37905 0.9885 0.85461 0.0
C882 C 0.38359 0.00454 0.8156 0.0
C883 C 0.36926 0.01508 0.78555 0.0
C884 C 0.40318 0.00951 0.79977 0.0
C885 C 0.39385 0.97619 0.88587 0.0
C886 C 0.41601 0.01348 0.85227 0.0
C887 C 0.43486 0.01622 0.8365 0.0
C888 C 0.44111 0.01521 0.76786 0.0
C889 C 0.42798 0.01217 0.71529 0.0
C890 C 0.40924 0.00935 0.73112 0.0
H891 H 0.38823 0.96241 0.90156 0.0
H892 H 0.40548 0.97392 0.84901 0.0
H893 H 0.39959 0.98307 0.93243 0.0
H894 H 0.41153 0.01407 0.90551 0.0
H895 H 0.44454 0.01869 0.87821 0.0
H896 H 0.46215 0.30989 0.01899 0.0
H897 H 0.45922 0.34209 0.97931 0.0
H898 H 0.47271 0.32478 0.77241 0.0
H899 H 0.47548 0.29257 0.81131 0.0
H900 H 0.48908 0.36102 0.92174 0.0
H901 H 0.4292 0.36054 0.74165 0.0
H902 H 0.43311 0.34225 0.80391 0.0
H903 H 0.44608 0.34265 0.72458 0.0
C904 C 0.46409 0.31286 0.96475 0.0
C905 C 0.46916 0.29869 0.91833 0.0
C906 C 0.46241 0.33127 0.94222 0.0
C907 C 0.46559 0.33577 0.87287 0.0
C908 C 0.46984 0.32155 0.82588 0.0
H909 H 0.48754 0.43536 0.63804 0.0
H910 H 0.48197 0.40356 0.67855 0.0
C911 C 0.47154 0.30315 0.84834 0.0
C912 C 0.46664 0.35549 0.85117 0.0
H913 H 0.44937 0.38704 0.73625 0.0
C914 C 0.48024 0.3668 0.8818 0.0
C915 C 0.45521 0.36287 0.7986 0.0
C916 C 0.43996 0.35151 0.76565 0.0
C917 C 0.48308 0.38519 0.86002 0.0
C918 C 0.47176 0.39254 0.80704 0.0
C919 C 0.45802 0.38131 0.77682 0.0
C920 C 0.47422 0.41181 0.78188 0.0
C921 C 0.49857 0.39639 0.89236 0.0
C922 C 0.47138 0.42694 0.82634 0.0
C923 C 0.47464 0.44509 0.80361 0.0
C924 C 0.48066 0.44845 0.73574 0.0
C925 C 0.483 0.43327 0.69072 0.0
C926 C 0.47978 0.41509 0.71365 0.0
H927 H 0.50873 0.38736 0.9197 0.0
H928 H 0.50615 0.40465 0.85287 0.0
H929 H 0.49254 0.40622 0.93045 0.0
H930 H 0.46676 0.42468 0.87884 0.0
H931 H 0.4725 0.45646 0.83944 0.0
H932 H 0.23052 0.50093 0.83237 0.0
H933 H 0.19892 0.50826 0.79344 0.0
H934 H 0.1823 0.45139 0.82983 0.0
H935 H 0.21379 0.44386 0.86828 0.0
H936 H 0.16693 0.46816 0.70688 0.0
H937 H 0.15729 0.5111 0.94307 0.0
H938 H 0.17685 0.51703 0.8894 0.0
H939 H 0.17641 0.49499 0.93313 0.0
C940 C 0.22026 0.48988 0.83071 0.0
C941 C 0.22461 0.47185 0.85431 0.0
C942 C 0.20219 0.49413 0.80881 0.0
C943 C 0.18824 0.48044 0.81007 0.0
C944 C 0.19287 0.46216 0.8289 0.0
H945 H 0.06951 0.48822 0.86005 0.0
H946 H 0.10316 0.48351 0.87078 0.0
C947 C 0.21088 0.4579 0.85094 0.0
C948 C 0.16851 0.48535 0.79746 0.0
H949 H 0.13177 0.50885 0.86782 0.0
C950 C 0.15923 0.47717 0.74162 0.0
C951 C 0.15852 0.49688 0.84363 0.0
C952 C 0.16767 0.50544 0.90605 0.0
C953 C 0.1401 0.48013 0.73091 0.0
C954 C 0.13011 0.49171 0.77706 0.0
C955 C 0.13948 0.50001 0.8325 0.0
C956 C 0.10979 0.49488 0.77039 0.0
C957 C 0.13066 0.47035 0.67163 0.0
C958 C 0.10242 0.50316 0.711 0.0
C959 C 0.08322 0.50581 0.70466 0.0
C960 C 0.07103 0.50038 0.7579 0.0
C961 C 0.0785 0.49255 0.81814 0.0
C962 C 0.09772 0.48982 0.82428 0.0
H963 H 0.1391 0.45849 0.65209 0.0
H964 H 0.11673 0.46506 0.68705 0.0
H965 H 0.12875 0.48035 0.62862 0.0
H966 H 0.1115 0.50763 0.66956 0.0
H967 H 0.07797 0.51217 0.65801 0.0
H968 H 0.03822 0.80302 0.38116 0.0
H969 H 0.03923 0.83446 0.43062 0.0
H970 H 0.97915 0.8364 0.43105 0.0
H971 H 0.97802 0.80499 0.38383 0.0
H972 H 0.02626 0.86732 0.38287 0.0
H973 H 0.99067 0.85001 0.62766 0.0
H974 H 0.99924 0.83236 0.5695 0.0
H975 H 0.97708 0.84339 0.55424 0.0
C976 C 0.02526 0.81013 0.39234 0.0
C977 C 0.00805 0.80145 0.37983 0.0
C978 C 0.02585 0.82807 0.42042 0.0
C979 C 0.00925 0.83755 0.43606 0.0
C980 C 0.99211 0.8291 0.42148 0.0
H981 H 0.99545 0.95639 0.49324 0.0
H982 H 0.99618 0.92445 0.44952 0.0
C983 C 0.9915 0.81116 0.39424 0.0
C984 C 0.00972 0.85644 0.46634 0.0
H985 H 0.99267 0.8824 0.5994 0.0
C986 C 0.01908 0.87062 0.43056 0.0
C987 C 1.00061 0.86062 0.52915 0.0
C988 C 0.99151 0.84574 0.57273 0.0
C989 C 0.01913 0.88901 0.45495 0.0
C990 C 0.00905 0.89339 0.5156 0.0
C991 C 1.00014 0.87909 0.55232 0.0
C992 C 0.00781 0.91263 0.54266 0.0
C993 C 0.03023 0.90345 0.41601 0.0
C994 C 0.01318 0.91643 0.61068 0.0
C995 C 0.01235 0.93456 0.6363 0.0
C996 C 0.00626 0.94926 0.59412 0.0
C997 C 1.00041 0.94537 0.52663 0.0
C998 C 1.00098 0.92716 0.50139 0.0
H999 H 0.04149 0.89694 0.3849 0.0
H1000 H 0.02087 0.91097 0.38006 0.0
H1001 H 0.03659 0.91377 0.45152 0.0
H1002 H 0.01835 0.9054 0.64363 0.0
H1003 H 0.017 0.93711 0.68851 0.0
H1004 H 0.69402 0.02712 0.42251 0.0
H1005 H 0.66337 0.02752 0.47742 0.0
H1006 H 0.68051 0.98351 0.61466 0.0
H1007 H 0.71117 0.98286 0.55967 0.0
H1008 H 0.64751 0.97605 0.54621 0.0
H1009 H 0.64558 0.04616 0.66589 0.0
H1010 H 0.65214 0.04653 0.5766 0.0
H1011 H 0.667 0.03523 0.63829 0.0
C1012 C 0.6914 0.01775 0.46517 0.0
C1013 C 0.70501 0.00491 0.48662 0.0
C1014 C 0.6739 0.01806 0.4967 0.0
C1015 C 0.66977 0.00567 0.5505 0.0
C1016 C 0.68349 0.99323 0.57337 0.0
H1017 H 0.56381 0.00947 0.77172 0.0
H1018 H 0.59702 0.00744 0.74541 0.0
C1019 C 0.70099 0.9929 0.54189 0.0
C1020 C 0.65065 0.00459 0.57866 0.0
H1021 H 0.61632 0.0305 0.65356 0.0
C1022 C 0.64074 0.98788 0.57043 0.0
C1023 C 0.64197 0.01997 0.61085 0.0
C1024 C 0.65227 0.03793 0.62412 0.0
C1025 C 0.6221 0.98637 0.59126 0.0
C1026 C 0.61312 1.00206 0.62009 0.0
C1027 C 0.62323 0.01854 0.63081 0.0
C1028 C 0.59303 1.00194 0.63689 0.0
C1029 C 0.61216 0.96802 0.58191 0.0
C1030 C 0.57983 0.99944 0.58456 0.0
C1031 C 0.56082 1.0005 0.59939 0.0
C1032 C 0.55469 0.00421 0.66684 0.0
C1033 C 0.568 0.00645 0.71934 0.0
C1034 C 0.58701 0.00537 0.70441 0.0
H1035 H 0.62214 0.95623 0.57796 0.0
H1036 H 0.60243 0.96528 0.6253 0.0
H1037 H 0.60395 0.96847 0.53357 0.0
H1038 H 0.58423 0.99711 0.53185 0.0
H1039 H 0.55098 0.99878 0.55765 0.0
H1040 H 0.47007 0.7046 0.39176 0.0
H1041 H 0.47013 0.67353 0.44405 0.0
H1042 H 0.52996 0.67116 0.42399 0.0
H1043 H 0.53008 0.70229 0.37385 0.0
H1044 H 0.48154 0.64085 0.39125 0.0
H1045 H 0.52311 0.65712 0.62348 0.0
H1046 H 0.51345 0.675 0.56884 0.0
H1047 H 0.53489 0.66358 0.54551 0.0
C1048 C 0.48324 0.6975 0.3991 0.0
C1049 C 0.50008 0.70595 0.37938 0.0
C1050 C 0.48325 0.67978 0.42887 0.0
C1051 C 0.50009 0.67023 0.43921 0.0
C1052 C 0.51687 0.67852 0.41845 0.0
H1053 H 0.51123 0.55095 0.49071 0.0
H1054 H 0.51184 0.58309 0.44916 0.0
C1055 C 0.51689 0.69628 0.38943 0.0
C1056 C 0.50011 0.65129 0.46924 0.0
H1057 H 0.51929 0.62482 0.59671 0.0
C1058 C 0.48967 0.63736 0.43651 0.0
C1059 C 0.51051 0.64685 0.52887 0.0
C1060 C 0.52096 0.66148 0.56914 0.0
C1061 C 0.48966 0.61898 0.4609 0.0
C1062 C 0.50087 0.61433 0.51831 0.0
C1063 C 0.51096 0.62836 0.55203 0.0
C1064 C 0.50201 0.59505 0.54496 0.0
C1065 C 0.47737 0.60485 0.42558 0.0
C1066 C 0.49734 0.59124 0.61375 0.0
C1067 C 0.49736 0.57294 0.63807 0.0
C1068 C 0.50194 0.55813 0.59377 0.0
C1069 C 0.50738 0.56206 0.52575 0.0
C1070 C 0.50759 0.58039 0.50178 0.0
H1071 H 0.46577 0.61167 0.39732 0.0
H1072 H 0.48577 0.59692 0.38755 0.0
H1073 H 0.47134 0.59485 0.46315 0.0
H1074 H 0.49316 0.60239 0.64812 0.0
H1075 H 0.49314 0.57038 0.69083 0.0
H1076 H 0.81176 0.52586 0.48055 0.0
H1077 H 0.84138 0.52481 0.54134 0.0
H1078 H 0.83715 0.46503 0.55746 0.0
H1079 H 0.80749 0.46586 0.49507 0.0
H1080 H 0.85255 0.51119 0.66957 0.0
H1081 H 0.88602 0.47305 0.45234 0.0
H1082 H 0.86325 0.48346 0.44502 0.0
H1083 H 0.86615 0.46193 0.49097 0.0
C1084 C 0.817 0.51246 0.4974 0.0
C1085 C 0.80739 0.4959 0.48209 0.0
C1086 C 0.83391 0.51192 0.53248 0.0
C1087 C 0.84155 0.49484 0.553 0.0
C1088 C 0.83159 0.47833 0.54098 0.0
H1089 H 0.94815 0.49457 0.77772 0.0
H1090 H 0.91509 0.49058 0.75168 0.0
C1091 C 0.81464 0.47884 0.50554 0.0
C1092 C 0.86055 0.4945 0.58227 0.0
H1093 H 0.9052 0.48194 0.54406 0.0
C1094 C 0.86408 0.50464 0.64271 0.0
C1095 C 0.87552 0.48607 0.54652 0.0
C1096 C 0.87267 0.47562 0.47984 0.0
C1097 C 0.88231 0.50711 0.66723 0.0
C1098 C 0.8973 0.49895 0.63066 0.0
C1099 C 0.89366 0.48822 0.57176 0.0
C1100 C 0.91701 0.50233 0.6492 0.0
C1101 C 0.8854 0.5191 0.73006 0.0
C1102 C 0.92908 0.51016 0.60013 0.0
C1103 C 0.948 0.5122 0.6144 0.0
C1104 C 0.9552 0.50654 0.67824 0.0
C1105 C 0.943 0.4992 0.72819 0.0
C1106 C 0.92407 0.49697 0.71354 0.0
H1107 H 0.87304 0.52784 0.74209 0.0
H1108 H 0.88811 0.51001 0.77519 0.0
H1109 H 0.89764 0.52837 0.72293 0.0
H1110 H 0.92389 0.51444 0.5502 0.0
H1111 H 0.957 0.51798 0.575 0.0
loop_
_geom_bond_atom_site_label_1
_geom_bond_atom_site_label_2
_geom_bond_distance
_geom_bond_site_symmetry_2
_ccdc_geom_bond_type
O0 Cd1 2.300 . S
O0 C7 1.275 . S
Cd1 O0 2.300 . S
Cd1 O9 2.381 . S
Cd1 O10 2.378 . S
O2 Cd3 2.385 . S
O2 C7 1.255 . S
Cd3 O2 2.385 . S
Cd3 O4 2.317 . S
O4 Cd3 2.317 . S
O4 C5 1.232 . S
C5 O4 1.232 . S
C5 O6 1.218 . S
O6 C5 1.218 . S
C7 O0 1.275 . S
C7 O2 1.255 . S
C8 O9 1.258 . S
C8 O10 1.256 . S
O9 Cd1 2.381 . S
O9 C8 1.258 . S
O10 Cd1 2.378 . S
O10 C8 1.256 . S
O11 Cd12 2.300 1_655 S
O11 C18 1.275 1_655 S
Cd12 O11 2.300 1_455 S
Cd12 O20 2.381 1_455 S
Cd12 O21 2.378 . S
O13 Cd14 2.385 . S
O13 C18 1.255 . S
Cd14 O13 2.385 . S
Cd14 O15 2.317 . S
O15 Cd14 2.317 . S
O15 C16 1.232 . S
C16 O15 1.232 . S
C16 O17 1.218 . S
O17 C16 1.218 . S
C18 O11 1.275 1_455 S
C18 O13 1.255 . S
C19 O20 1.234 1_455 S
C19 O21 1.289 . S
O20 Cd12 2.381 1_655 S
O20 C19 1.234 1_655 S
O21 Cd12 2.378 . S
O21 C19 1.289 . S
O22 Cd23 2.300 1_565 S
O22 C29 1.275 1_565 S
Cd23 O22 2.300 1_545 S
Cd23 O31 2.381 1_545 S
Cd23 O32 2.378 . S
O24 Cd25 2.385 . S
O24 C29 1.255 . S
Cd25 O24 2.385 . S
Cd25 O26 2.317 . S
O26 Cd25 2.317 . S
O26 C27 1.232 . S
C27 O26 1.232 . S
C27 O28 1.218 . S
O28 C27 1.218 . S
C29 O22 1.275 1_545 S
C29 O24 1.255 . S
C30 O31 1.249 1_545 S
C30 O32 1.268 . S
O31 Cd23 2.381 1_565 S
O31 C30 1.249 1_565 S
O32 Cd23 2.378 . S
O32 C30 1.268 . S
O33 Cd34 2.300 . S
O33 C40 1.275 . S
Cd34 O33 2.300 . S
Cd34 O42 2.381 . S
Cd34 O43 2.378 . S
O35 Cd36 2.385 . S
O35 C40 1.255 . S
Cd36 O35 2.385 . S
Cd36 O37 2.317 . S
O37 Cd36 2.317 . S
O37 C38 1.232 . S
C38 O37 1.232 . S
C38 O39 1.218 . S
O39 C38 1.218 . S
C40 O33 1.275 . S
C40 O35 1.255 . S
C41 O42 1.258 . S
C41 O43 1.256 . S
O42 Cd34 2.381 . S
O42 C41 1.258 . S
O43 Cd34 2.378 . S
O43 C41 1.256 . S
O44 Cd45 2.300 . S
O44 C51 1.275 . S
Cd45 O44 2.300 . S
Cd45 O53 2.381 . S
Cd45 O54 2.378 . S
O46 Cd47 2.385 1_554 S
O46 C51 1.255 . S
Cd47 O46 2.385 1_556 S
Cd47 O48 2.317 . S
O48 Cd47 2.317 . S
O48 C49 1.232 . S
C49 O48 1.232 . S
C49 O50 1.218 . S
O50 C49 1.218 . S
C51 O44 1.275 . S
C51 O46 1.255 . S
C52 O53 1.258 . S
C52 O54 1.256 . S
O53 Cd45 2.381 . S
O53 C52 1.258 . S
O54 Cd45 2.378 . S
O54 C52 1.256 . S
O55 Cd56 2.323 . S
O55 C62 1.294 . S
Cd56 O55 2.323 . S
Cd56 O64 2.381 1_455 S
Cd56 O65 2.378 . S
O57 Cd58 2.372 1_554 S
O57 C62 1.255 . S
Cd58 O57 2.372 1_556 S
Cd58 O59 2.327 . S
O59 Cd58 2.327 . S
O59 C60 1.232 . S
C60 O59 1.232 . S
C60 O61 1.218 . S
O61 C60 1.218 . S
C62 O55 1.294 . S
C62 O57 1.255 . S
C63 O64 1.258 1_455 S
C63 O65 1.256 . S
O64 Cd56 2.381 1_655 S
O64 C63 1.258 1_655 S
O65 Cd56 2.378 . S
O65 C63 1.256 . S
O66 Cd67 2.304 . S
O66 C73 1.278 . S
Cd67 O66 2.304 . S
Cd67 O75 2.381 1_545 S
Cd67 O76 2.378 . S
O68 Cd69 2.373 1_554 S
O68 C73 1.255 . S
Cd69 O68 2.373 1_556 S
Cd69 O70 2.326 . S
O70 Cd69 2.326 . S
O70 C71 1.232 . S
C71 O70 1.232 . S
C71 O72 1.218 . S
O72 C71 1.218 . S
C73 O66 1.278 . S
C73 O68 1.255 . S
C74 O75 1.258 1_545 S
C74 O76 1.256 . S
O75 Cd67 2.381 1_565 S
O75 C74 1.258 1_565 S
O76 Cd67 2.378 . S
O76 C74 1.256 . S
O77 Cd78 2.300 . S
O77 C84 1.275 . S
Cd78 O77 2.300 . S
Cd78 O86 2.381 . S
Cd78 O87 2.378 . S
O79 Cd80 2.373 1_554 S
O79 C84 1.255 . S
Cd80 O79 2.373 1_556 S
Cd80 O81 2.327 . S
O81 Cd80 2.327 . S
O81 C82 1.232 . S
C82 O81 1.232 . S
C82 O83 1.218 . S
O83 C82 1.218 . S
C84 O77 1.275 . S
C84 O79 1.255 . S
C85 O86 1.258 . S
C85 O87 1.256 . S
O86 Cd78 2.381 . S
O86 C85 1.258 . S
O87 Cd78 2.378 . S
O87 C85 1.256 . S
La88 C90 2.928 . S
La88 O108 2.521 . S
La88 O109 2.628 . S
La88 O110 2.554 . S
La88 O111 2.757 1_565 S
La88 O112 2.470 . S
La88 O117 2.482 1_455 S
La88 O119 2.503 1_565 S
La89 C99 2.928 . S
La89 O111 2.482 1_655 S
La89 O113 2.503 1_545 S
La89 O114 2.521 . S
La89 O115 2.628 1_655 S
La89 O116 2.554 . S
La89 O117 2.757 1_545 S
La89 O118 2.470 . S
C90 La88 2.928 . S
C90 C91 1.503 . S
C90 O108 1.261 . S
C90 O109 1.243 . S
C91 C90 1.503 . S
C91 C92 1.394 . S
C91 C96 1.373 . S
C92 C91 1.394 . S
C92 C93 1.380 . S
C92 H120 0.930 . S
C93 C92 1.380 . S
C93 C94 1.376 . S
C93 H121 0.930 . S
C94 C93 1.376 . S
C94 C95 1.370 . S
C95 C94 1.370 . S
C95 C96 1.396 . S
C95 H122 0.929 1_455 S
C96 C91 1.373 . S
C96 C95 1.396 . S
C96 H123 0.929 1_455 S
C97 O110 1.231 1_545 S
C97 O111 1.295 . S
C98 O112 1.258 1_655 S
C98 O113 1.256 . S
C99 La89 2.928 . S
C99 C100 1.503 . S
C99 O114 1.261 . S
C99 O115 1.243 1_655 S
C100 C99 1.503 . S
C100 C101 1.394 . S
C100 C105 1.421 . S
C101 C100 1.394 . S
C101 C102 1.380 . S
C101 H124 0.930 . S
C102 C101 1.380 . S
C102 C103 1.376 . S
C102 H125 0.930 . S
C103 C102 1.376 . S
C103 C104 1.370 . S
C104 C103 1.370 . S
C104 C105 1.403 . S
C104 H126 0.929 1_655 S
C105 C100 1.421 . S
C105 C104 1.403 . S
C105 H127 0.875 1_655 S
C106 O116 1.240 . S
C106 O117 1.289 1_545 S
C107 O118 1.258 1_455 S
C107 O119 1.256 . S
O108 La88 2.521 . S
O108 C90 1.261 . S
O109 La88 2.628 . S
O109 C90 1.243 . S
O110 La88 2.554 . S
O110 C97 1.231 1_565 S
O111 La88 2.757 1_545 S
O111 La89 2.482 1_455 S
O111 C97 1.295 . S
O112 La88 2.470 . S
O112 C98 1.258 1_455 S
O113 La89 2.503 1_565 S
O113 C98 1.256 . S
O114 La89 2.521 . S
O114 C99 1.261 . S
O115 La89 2.628 1_455 S
O115 C99 1.243 1_455 S
O116 La89 2.554 . S
O116 C106 1.240 . S
O117 La88 2.482 1_655 S
O117 La89 2.757 1_565 S
O117 C106 1.289 1_565 S
O118 La89 2.470 . S
O118 C107 1.258 1_655 S
O119 La88 2.503 1_545 S
O119 C107 1.256 . S
H120 C92 0.930 . S
H121 C93 0.930 . S
H122 C95 0.929 1_655 S
H123 C96 0.929 1_655 S
H124 C101 0.930 . S
H125 C102 0.930 . S
H126 C104 0.929 1_455 S
H127 C105 0.875 1_455 S
La128 C130 2.928 . S
La128 O148 2.521 . S
La128 O149 2.646 . S
La128 O150 2.554 . S
La128 O151 2.757 . S
La128 O152 2.470 . S
La128 O157 2.482 1_545 S
La128 O159 2.503 . S
La129 C139 2.928 . S
La129 O151 2.482 1_565 S
La129 O153 2.503 . S
La129 O154 2.521 . S
La129 O155 2.628 1_565 S
La129 O156 2.554 . S
La129 O157 2.757 . S
La129 O158 2.470 . S
C130 La128 2.928 . S
C130 C131 1.503 . S
C130 O148 1.261 . S
C130 O149 1.284 . S
C131 C130 1.503 . S
C131 C132 1.394 . S
C131 C136 1.373 . S
C132 C131 1.394 . S
C132 C133 1.380 . S
C132 H160 0.930 . S
C133 C132 1.380 . S
C133 C134 1.376 . S
C133 H161 0.930 . S
C134 C133 1.376 . S
C134 C135 1.370 . S
C135 C134 1.370 . S
C135 C136 1.396 . S
C135 H162 0.929 1_545 S
C136 C131 1.373 . S
C136 C135 1.396 . S
C136 H163 0.929 1_545 S
C137 O150 1.240 . S
C137 O151 1.289 . S
C138 O152 1.258 1_565 S
C138 O153 1.256 . S
C139 La129 2.928 . S
C139 C140 1.503 . S
C139 O154 1.261 . S
C139 O155 1.243 1_565 S
C140 C139 1.503 . S
C140 C141 1.394 . S
C140 C145 1.373 . S
C141 C140 1.394 . S
C141 C142 1.380 . S
C141 H164 0.930 . S
C142 C141 1.380 . S
C142 C143 1.376 . S
C142 H165 0.930 . S
C143 C142 1.376 . S
C143 C144 1.370 . S
C144 C143 1.370 . S
C144 C145 1.396 . S
C144 H166 0.929 1_565 S
C145 C140 1.373 . S
C145 C144 1.396 . S
C145 H167 0.929 1_565 S
C146 O156 1.240 . S
C146 O157 1.289 . S
C147 O158 1.258 1_545 S
C147 O159 1.256 . S
O148 La128 2.521 . S
O148 C130 1.261 . S
O149 La128 2.646 . S
O149 C130 1.284 . S
O150 La128 2.554 . S
O150 C137 1.240 . S
O151 La128 2.757 . S
O151 La129 2.482 1_545 S
O151 C137 1.289 . S
O152 La128 2.470 . S
O152 C138 1.258 1_545 S
O153 La129 2.503 . S
O153 C138 1.256 . S
O154 La129 2.521 . S
O154 C139 1.261 . S
O155 La129 2.628 1_545 S
O155 C139 1.243 1_545 S
O156 La129 2.554 . S
O156 C146 1.240 . S
O157 La128 2.482 1_565 S
O157 La129 2.757 . S
O157 C146 1.289 . S
O158 La129 2.470 . S
O158 C147 1.258 1_565 S
O159 La128 2.503 . S
O159 C147 1.256 . S
H160 C132 0.930 . S
H161 C133 0.930 . S
H162 C135 0.929 1_565 S
H163 C136 0.929 1_565 S
H164 C141 0.930 . S
H165 C142 0.930 . S
H166 C144 0.929 1_545 S
H167 C145 0.929 1_545 S
La168 C170 2.928 . S
La168 O188 2.521 . S
La168 O189 2.628 . S
La168 O190 2.554 . S
La168 O191 2.757 . S
La168 O192 2.470 . S
La168 O197 2.482 . S
La168 O199 2.503 . S
La169 C179 2.928 . S
La169 O191 2.482 . S
La169 O193 2.503 . S
La169 O194 2.521 . S
La169 O195 2.628 . S
La169 O196 2.554 . S
La169 O197 2.757 . S
La169 O198 2.470 . S
C170 La168 2.928 . S
C170 C171 1.503 . S
C170 O188 1.261 . S
C170 O189 1.243 . S
C171 C170 1.503 . S
C171 C172 1.394 . S
C171 C176 1.373 . S
C172 C171 1.394 . S
C172 C173 1.380 . S
C172 H200 0.930 . S
C173 C172 1.380 . S
C173 C174 1.376 . S
C173 H201 0.930 . S
C174 C173 1.376 . S
C174 C175 1.370 . S
C175 C174 1.370 . S
C175 C176 1.396 . S
C175 H202 0.929 . S
C176 C171 1.373 . S
C176 C175 1.396 . S
C176 H203 0.929 . S
C177 O190 1.240 . S
C177 O191 1.289 . S
C178 O192 1.258 . S
C178 O193 1.256 . S
C179 La169 2.928 . S
C179 C180 1.503 . S
C179 O194 1.261 . S
C179 O195 1.243 . S
C180 C179 1.503 . S
C180 C181 1.394 . S
C180 C185 1.373 . S
C181 C180 1.394 . S
C181 C182 1.380 . S
C181 H204 0.930 . S
C182 C181 1.380 . S
C182 C183 1.376 . S
C182 H205 0.930 . S
C183 C182 1.376 . S
C183 C184 1.370 . S
C184 C183 1.370 . S
C184 C185 1.396 . S
C184 H206 0.929 . S
C185 C180 1.373 . S
C185 C184 1.396 . S
C185 H207 0.929 . S
C186 O196 1.240 . S
C186 O197 1.289 . S
C187 O198 1.258 . S
C187 O199 1.256 . S
O188 La168 2.521 . S
O188 C170 1.261 . S
O189 La168 2.628 . S
O189 C170 1.243 . S
O190 La168 2.554 . S
O190 C177 1.240 . S
O191 La168 2.757 . S
O191 La169 2.482 . S
O191 C177 1.289 . S
O192 La168 2.470 . S
O192 C178 1.258 . S
O193 La169 2.503 . S
O193 C178 1.256 . S
O194 La169 2.521 . S
O194 C179 1.261 . S
O195 La169 2.628 . S
O195 C179 1.243 . S
O196 La169 2.554 . S
O196 C186 1.240 . S
O197 La168 2.482 . S
O197 La169 2.757 . S
O197 C186 1.289 . S
O198 La169 2.470 . S
O198 C187 1.258 . S
O199 La168 2.503 . S
O199 C187 1.256 . S
H200 C172 0.930 . S
H201 C173 0.930 . S
H202 C175 0.929 . S
H203 C176 0.929 . S
H204 C181 0.930 . S
H205 C182 0.930 . S
H206 C184 0.929 . S
H207 C185 0.929 . S
La208 C210 2.928 . S
La208 O228 2.521 . S
La208 O229 2.628 . S
La208 O230 2.554 . S
La208 O231 2.757 1_655 S
La208 O232 2.470 . S
La208 O237 2.482 . S
La208 O239 2.503 1_655 S
La209 C219 2.928 . S
La209 O231 2.482 . S
La209 O233 2.503 1_455 S
La209 O234 2.521 . S
La209 O235 2.628 . S
La209 O236 2.554 . S
La209 O237 2.757 1_455 S
La209 O238 2.470 . S
C210 La208 2.928 . S
C210 C211 1.503 . S
C210 O228 1.261 . S
C210 O229 1.243 . S
C211 C210 1.503 . S
C211 C212 1.394 . S
C211 C216 1.373 . S
C212 C211 1.394 . S
C212 C213 1.380 . S
C212 H240 0.930 . S
C213 C212 1.380 . S
C213 C214 1.376 . S
C213 H241 0.930 . S
C214 C213 1.376 . S
C214 C215 1.370 . S
C215 C214 1.370 . S
C215 C216 1.396 . S
C215 H242 0.929 . S
C216 C211 1.373 . S
C216 C215 1.396 . S
C216 H243 0.929 . S
C217 O230 1.213 1_455 S
C217 O231 1.308 . S
C218 O232 1.258 . S
C218 O233 1.256 . S
C219 La209 2.928 . S
C219 C220 1.503 . S
C219 O234 1.261 . S
C219 O235 1.243 . S
C220 C219 1.503 . S
C220 C221 1.394 . S
C220 C225 1.373 . S
C221 C220 1.394 . S
C221 C222 1.380 . S
C221 H244 0.930 . S
C222 C221 1.380 . S
C222 C223 1.376 . S
C222 H245 0.930 . S
C223 C222 1.376 . S
C223 C224 1.370 . S
C224 C223 1.370 . S
C224 C225 1.396 . S
C224 H246 0.929 . S
C225 C220 1.373 . S
C225 C224 1.396 . S
C225 H247 0.929 . S
C226 O236 1.240 . S
C226 O237 1.289 1_455 S
C227 O238 1.258 . S
C227 O239 1.256 . S
O228 La208 2.521 . S
O228 C210 1.261 . S
O229 La208 2.628 . S
O229 C210 1.243 . S
O230 La208 2.554 . S
O230 C217 1.213 1_655 S
O231 La208 2.757 1_455 S
O231 La209 2.482 . S
O231 C217 1.308 . S
O232 La208 2.470 . S
O232 C218 1.258 . S
O233 La209 2.503 1_655 S
O233 C218 1.256 . S
O234 La209 2.521 . S
O234 C219 1.261 . S
O235 La209 2.628 . S
O235 C219 1.243 . S
O236 La209 2.554 . S
O236 C226 1.240 . S
O237 La208 2.482 . S
O237 La209 2.757 1_655 S
O237 C226 1.289 1_655 S
O238 La209 2.470 . S
O238 C227 1.258 . S
O239 La208 2.503 1_455 S
O239 C227 1.256 . S
H240 C212 0.930 . S
H241 C213 0.930 . S
H242 C215 0.929 . S
H243 C216 0.929 . S
H244 C221 0.930 . S
H245 C222 0.930 . S
H246 C224 0.929 . S
H247 C225 0.929 . S
H248 C256 0.929 . S
H249 C258 0.930 . S
H250 C260 0.930 . S
H251 C263 0.929 . S
H252 C266 0.930 . S
H253 C268 0.960 . S
H254 C268 0.960 . S
H255 C268 0.960 1_545 S
C256 H248 0.929 . S
C256 C257 1.377 1_565 S
C256 C258 1.384 . S
C257 C256 1.377 1_545 S
C257 C263 1.390 . S
C258 H249 0.930 . S
C258 C256 1.384 . S
C258 C259 1.372 1_565 S
C259 C258 1.372 1_545 S
C259 C260 1.400 . S
C259 C264 1.490 . S
C260 H250 0.930 . S
C260 C259 1.400 . S
C260 C263 1.386 . S
H261 C277 0.930 . S
H262 C278 0.931 . S
C263 H251 0.929 . S
C263 C257 1.390 . S
C263 C260 1.386 . S
C264 C259 1.490 . S
C264 C266 1.395 . S
C264 C267 1.403 1_545 S
H265 C271 0.930 . S
C266 H252 0.930 . S
C266 C264 1.395 . S
C266 C269 1.403 . S
C267 C264 1.403 1_565 S
C267 C268 1.524 . S
C267 C271 1.400 . S
C268 H253 0.960 . S
C268 H254 0.960 . S
C268 H255 0.960 1_565 S
C268 C267 1.524 . S
C269 C266 1.403 . S
C269 C270 1.392 . S
C269 C273 1.495 . S
C270 C269 1.392 . S
C270 C271 1.385 1_545 S
C270 C272 1.478 . S
C271 H265 0.930 . S
C271 C267 1.400 . S
C271 C270 1.385 1_565 S
C272 C270 1.478 . S
C272 C274 1.381 1_545 S
C272 C278 1.383 . S
C273 C269 1.495 . S
C273 H279 0.959 . S
C273 H280 0.961 . S
C273 H281 0.960 . S
C274 C272 1.381 1_565 S
C274 C275 1.394 . S
C274 H282 0.930 . S
C275 C274 1.394 . S
C275 C276 1.383 1_565 S
C275 H283 0.929 . S
C276 C275 1.383 1_545 S
C276 C277 1.377 . S
C277 H261 0.930 . S
C277 C276 1.377 . S
C277 C278 1.379 . S
C278 H262 0.931 . S
C278 C272 1.383 . S
C278 C277 1.379 . S
H279 C273 0.959 . S
H280 C273 0.961 . S
H281 C273 0.960 . S
H282 C274 0.930 . S
H283 C275 0.929 . S
H284 C292 0.929 . S
H285 C294 0.930 . S
H286 C296 0.930 . S
H287 C299 0.929 . S
H288 C302 0.930 . S
H289 C304 0.960 . S
H290 C304 0.960 . S
H291 C304 0.960 . S
C292 H284 0.929 . S
C292 C293 1.377 . S
C292 C294 1.384 . S
C293 C292 1.377 . S
C293 C299 1.390 . S
C294 H285 0.930 . S
C294 C292 1.384 . S
C294 C295 1.372 . S
C295 C294 1.372 . S
C295 C296 1.400 . S
C295 C300 1.490 . S
C296 H286 0.930 . S
C296 C295 1.400 . S
C296 C299 1.386 . S
H297 C313 0.930 . S
H298 C314 0.931 . S
C299 H287 0.929 . S
C299 C293 1.390 . S
C299 C296 1.386 . S
C300 C295 1.490 . S
C300 C302 1.395 . S
C300 C303 1.403 . S
H301 C307 0.930 . S
C302 H288 0.930 . S
C302 C300 1.395 . S
C302 C305 1.403 . S
C303 C300 1.403 . S
C303 C304 1.524 . S
C303 C307 1.400 . S
C304 H289 0.960 . S
C304 H290 0.960 . S
C304 H291 0.960 . S
C304 C303 1.524 . S
C305 C302 1.403 . S
C305 C306 1.392 . S
C305 C309 1.495 . S
C306 C305 1.392 . S
C306 C307 1.385 . S
C306 C308 1.478 . S
C307 H301 0.930 . S
C307 C303 1.400 . S
C307 C306 1.385 . S
C308 C306 1.478 . S
C308 C310 1.381 . S
C308 C314 1.383 . S
C309 C305 1.495 . S
C309 H315 0.959 . S
C309 H316 0.961 . S
C309 H317 0.960 . S
C310 C308 1.381 . S
C310 C311 1.394 . S
C310 H318 0.930 . S
C311 C310 1.394 . S
C311 C312 1.383 . S
C311 H319 0.929 . S
C312 C311 1.383 . S
C312 C313 1.377 . S
C313 H297 0.930 . S
C313 C312 1.377 . S
C313 C314 1.379 . S
C314 H298 0.931 . S
C314 C308 1.383 . S
C314 C313 1.379 . S
H315 C309 0.959 . S
H316 C309 0.961 . S
H317 C309 0.960 . S
H318 C310 0.930 . S
H319 C311 0.929 . S
H320 C328 0.929 . S
H321 C330 0.930 . S
H322 C332 0.930 . S
H323 C335 0.929 . S
H324 C338 0.930 . S
H325 C340 0.960 . S
H326 C340 0.960 . S
H327 C340 0.960 . S
C328 H320 0.929 . S
C328 C329 1.377 . S
C328 C330 1.384 . S
C329 C328 1.377 . S
C329 C335 1.390 . S
C330 H321 0.930 . S
C330 C328 1.384 . S
C330 C331 1.372 . S
C331 C330 1.372 . S
C331 C332 1.400 . S
C331 C336 1.490 . S
C332 H322 0.930 . S
C332 C331 1.400 . S
C332 C335 1.386 . S
H333 C349 0.930 . S
H334 C350 0.931 . S
C335 H323 0.929 . S
C335 C329 1.390 . S
C335 C332 1.386 . S
C336 C331 1.490 . S
C336 C338 1.395 . S
C336 C339 1.403 . S
H337 C343 0.930 . S
C338 H324 0.930 . S
C338 C336 1.395 . S
C338 C341 1.403 . S
C339 C336 1.403 . S
C339 C340 1.524 . S
C339 C343 1.400 . S
C340 H325 0.960 . S
C340 H326 0.960 . S
C340 H327 0.960 . S
C340 C339 1.524 . S
C341 C338 1.403 . S
C341 C342 1.392 . S
C341 C345 1.495 . S
C342 C341 1.392 . S
C342 C343 1.385 . S
C342 C344 1.478 . S
C343 H337 0.930 . S
C343 C339 1.400 . S
C343 C342 1.385 . S
C344 C342 1.478 . S
C344 C346 1.381 . S
C344 C350 1.383 . S
C345 C341 1.495 . S
C345 H351 0.959 . S
C345 H352 0.961 . S
C345 H353 0.960 . S
C346 C344 1.381 . S
C346 C347 1.394 . S
C346 H354 0.930 . S
C347 C346 1.394 . S
C347 C348 1.383 . S
C347 H355 0.929 . S
C348 C347 1.383 . S
C348 C349 1.377 . S
C349 H333 0.930 . S
C349 C348 1.377 . S
C349 C350 1.379 . S
C350 H334 0.931 . S
C350 C344 1.383 . S
C350 C349 1.379 . S
H351 C345 0.959 . S
H352 C345 0.961 . S
H353 C345 0.960 . S
H354 C346 0.930 . S
H355 C347 0.929 . S
H356 C364 0.929 . S
H357 C366 0.930 . S
H358 C368 0.930 . S
H359 C371 0.929 . S
H360 C374 0.930 . S
H361 C376 0.960 . S
H362 C376 0.960 . S
H363 C376 0.960 . S
C364 H356 0.929 . S
C364 C365 1.377 1_655 S
C364 C366 1.384 . S
C365 C364 1.377 1_455 S
C365 C371 1.390 . S
C366 H357 0.930 . S
C366 C364 1.384 . S
C366 C367 1.372 1_655 S
C367 C366 1.372 1_455 S
C367 C368 1.400 . S
C367 C372 1.490 . S
C368 H358 0.930 . S
C368 C367 1.400 . S
C368 C371 1.386 . S
H369 C385 0.930 . S
H370 C386 0.931 . S
C371 H359 0.929 . S
C371 C365 1.390 . S
C371 C368 1.386 . S
C372 C367 1.490 . S
C372 C374 1.395 1_455 S
C372 C375 1.403 . S
H373 C379 0.930 . S
C374 H360 0.930 . S
C374 C372 1.395 1_655 S
C374 C377 1.403 . S
C375 C372 1.403 . S
C375 C376 1.524 . S
C375 C379 1.400 . S
C376 H361 0.960 . S
C376 H362 0.960 . S
C376 H363 0.960 . S
C376 C375 1.524 . S
C377 C374 1.403 . S
C377 C378 1.370 1_655 S
C377 C381 1.495 . S
C378 C377 1.370 1_455 S
C378 C379 1.409 . S
C378 C380 1.478 . S
C379 H373 0.930 . S
C379 C375 1.400 . S
C379 C378 1.409 . S
C380 C378 1.478 . S
C380 C382 1.346 1_455 S
C380 C386 1.420 . S
C381 C377 1.495 . S
C381 H387 0.959 . S
C381 H388 0.961 . S
C381 H389 0.960 . S
C382 C380 1.346 1_655 S
C382 C383 1.394 . S
C382 H390 0.930 . S
C383 C382 1.394 . S
C383 C384 1.383 1_655 S
C383 H391 0.929 . S
C384 C383 1.383 1_455 S
C384 C385 1.377 . S
C385 H369 0.930 . S
C385 C384 1.377 . S
C385 C386 1.379 . S
C386 H370 0.931 . S
C386 C380 1.420 . S
C386 C385 1.379 . S
H387 C381 0.959 . S
H388 C381 0.961 . S
H389 C381 0.960 . S
H390 C382 0.930 . S
H391 C383 0.929 . S
H392 C400 0.929 . S
H393 C402 0.930 . S
H394 C404 0.930 . S
H395 C407 0.929 . S
H396 C410 0.930 . S
H397 C412 0.960 . S
H398 C412 0.960 1_545 S
H399 C412 0.960 . S
C400 H392 0.929 . S
C400 C401 1.377 1_545 S
C400 C402 1.384 . S
C401 C400 1.377 1_565 S
C401 C407 1.390 . S
C402 H393 0.930 . S
C402 C400 1.384 . S
C402 C403 1.356 1_545 S
C403 C402 1.356 1_565 S
C403 C404 1.416 . S
C403 C408 1.490 1_565 S
C404 H394 0.930 . S
C404 C403 1.416 . S
C404 C407 1.386 . S
H405 C421 0.930 . S
H406 C422 0.931 . S
C407 H395 0.929 . S
C407 C401 1.390 . S
C407 C404 1.386 . S
C408 C403 1.490 1_545 S
C408 C410 1.393 . S
C408 C411 1.404 1_544 S
H409 C415 0.930 . S
C410 H396 0.930 . S
C410 C408 1.393 . S
C410 C413 1.403 . S
C411 C408 1.404 1_566 S
C411 C412 1.524 . S
C411 C415 1.400 . S
C412 H397 0.960 . S
C412 H398 0.960 1_565 S
C412 H399 0.960 . S
C412 C411 1.524 . S
C413 C410 1.403 . S
C413 C414 1.404 1_554 S
C413 C417 1.495 . S
C414 C413 1.404 1_556 S
C414 C415 1.374 1_545 S
C414 C416 1.477 . S
C415 H409 0.930 . S
C415 C411 1.400 . S
C415 C414 1.374 1_565 S
C416 C414 1.477 . S
C416 C418 1.402 . S
C416 C422 1.362 1_545 S
C417 C413 1.495 . S
C417 H423 0.959 . S
C417 H424 0.993 . S
C417 H425 0.960 . S
C418 C416 1.402 . S
C418 C419 1.394 . S
C418 H426 0.930 . S
C419 C418 1.394 . S
C419 C420 1.382 1_545 S
C419 H427 0.929 . S
C420 C419 1.382 1_565 S
C420 C421 1.378 . S
C421 H405 0.930 . S
C421 C420 1.378 . S
C421 C422 1.379 . S
C422 H406 0.931 . S
C422 C416 1.362 1_565 S
C422 C421 1.379 . S
H423 C417 0.959 . S
H424 C417 0.993 . S
H425 C417 0.960 . S
H426 C418 0.930 . S
H427 C419 0.929 . S
H428 C436 0.929 . S
H429 C438 0.930 . S
H430 C440 0.930 . S
H431 C443 0.929 . S
H432 C446 0.930 . S
H433 C448 0.960 1_556 S
H434 C448 0.960 1_556 S
H435 C448 0.960 . S
C436 H428 0.929 . S
C436 C437 1.377 . S
C436 C438 1.384 . S
C437 C436 1.377 . S
C437 C443 1.390 . S
C438 H429 0.930 . S
C438 C436 1.384 . S
C438 C439 1.372 . S
C439 C438 1.372 . S
C439 C440 1.400 . S
C439 C444 1.490 . S
C440 H430 0.930 . S
C440 C439 1.400 . S
C440 C443 1.386 . S
H441 C457 0.930 . S
H442 C458 0.931 . S
C443 H431 0.929 . S
C443 C437 1.390 . S
C443 C440 1.386 . S
C444 C439 1.490 . S
C444 C446 1.395 . S
C444 C447 1.403 . S
H445 C451 0.930 . S
C446 H432 0.930 . S
C446 C444 1.395 . S
C446 C449 1.403 1_554 S
C447 C444 1.403 . S
C447 C448 1.524 . S
C447 C451 1.400 1_554 S
C448 H433 0.960 1_554 S
C448 H434 0.960 1_554 S
C448 H435 0.960 . S
C448 C447 1.524 . S
C449 C446 1.403 1_556 S
C449 C450 1.392 . S
C449 C453 1.495 . S
C450 C449 1.392 . S
C450 C451 1.385 . S
C450 C452 1.478 . S
C451 H445 0.930 . S
C451 C447 1.400 1_556 S
C451 C450 1.385 . S
C452 C450 1.478 . S
C452 C454 1.381 . S
C452 C458 1.383 . S
C453 C449 1.495 . S
C453 H459 0.959 1_556 S
C453 H460 0.961 . S
C453 H461 0.960 . S
C454 C452 1.381 . S
C454 C455 1.394 . S
C454 H462 0.930 . S
C455 C454 1.394 . S
C455 C456 1.383 . S
C455 H463 0.929 . S
C456 C455 1.383 . S
C456 C457 1.377 . S
C457 H441 0.930 . S
C457 C456 1.377 . S
C457 C458 1.379 . S
C458 H442 0.931 . S
C458 C452 1.383 . S
C458 C457 1.379 . S
H459 C453 0.959 1_554 S
H460 C453 0.961 . S
H461 C453 0.960 . S
H462 C454 0.930 . S
H463 C455 0.929 . S
H464 C472 0.929 . S
H465 C474 0.930 . S
H466 C476 0.930 . S
H467 C479 0.929 . S
H468 C482 0.930 . S
H469 C484 0.960 . S
H470 C484 0.960 . S
H471 C484 0.960 . S
C472 H464 0.929 . S
C472 C473 1.377 . S
C472 C474 1.384 . S
C473 C472 1.377 . S
C473 C479 1.390 . S
C474 H465 0.930 . S
C474 C472 1.384 . S
C474 C475 1.372 . S
C475 C474 1.372 . S
C475 C476 1.400 . S
C475 C480 1.490 . S
C476 H466 0.930 . S
C476 C475 1.400 . S
C476 C479 1.386 . S
H477 C493 0.930 . S
H478 C494 0.931 . S
C479 H467 0.929 . S
C479 C473 1.390 . S
C479 C476 1.386 . S
C480 C475 1.490 . S
C480 C482 1.395 1_554 S
C480 C483 1.403 . S
H481 C487 0.930 . S
C482 H468 0.930 . S
C482 C480 1.395 1_556 S
C482 C485 1.403 . S
C483 C480 1.403 . S
C483 C484 1.524 . S
C483 C487 1.400 . S
C484 H469 0.960 . S
C484 H470 0.960 . S
C484 H471 0.960 . S
C484 C483 1.524 . S
C485 C482 1.403 . S
C485 C486 1.392 . S
C485 C489 1.495 . S
C486 C485 1.392 . S
C486 C487 1.385 1_556 S
C486 C488 1.478 . S
C487 H481 0.930 . S
C487 C483 1.400 . S
C487 C486 1.385 1_554 S
C488 C486 1.478 . S
C488 C490 1.381 . S
C488 C494 1.383 . S
C489 C485 1.495 . S
C489 H495 0.959 . S
C489 H496 0.961 . S
C489 H497 0.960 . S
C490 C488 1.381 . S
C490 C491 1.394 . S
C490 H498 0.930 . S
C491 C490 1.394 . S
C491 C492 1.383 . S
C491 H499 0.929 . S
C492 C491 1.383 . S
C492 C493 1.377 . S
C493 H477 0.930 . S
C493 C492 1.377 . S
C493 C494 1.379 . S
C494 H478 0.931 . S
C494 C488 1.383 . S
C494 C493 1.379 . S
H495 C489 0.959 . S
H496 C489 0.961 . S
H497 C489 0.960 . S
H498 C490 0.930 . S
H499 C491 0.929 . S
H500 C508 0.929 . S
H501 C510 0.930 . S
H502 C512 0.930 . S
H503 C515 0.929 . S
H504 C518 0.930 . S
H505 C520 0.960 . S
H506 C520 0.960 . S
H507 C520 0.960 . S
C508 H500 0.929 . S
C508 C509 1.377 1_455 S
C508 C510 1.384 . S
C509 C508 1.377 1_655 S
C509 C515 1.390 . S
C510 H501 0.930 . S
C510 C508 1.384 . S
C510 C511 1.369 . S
C511 C510 1.369 . S
C511 C512 1.403 1_455 S
C511 C516 1.490 . S
C512 H502 0.930 . S
C512 C511 1.403 1_655 S
C512 C515 1.386 . S
H513 C529 0.930 . S
H514 C530 0.931 . S
C515 H503 0.929 . S
C515 C509 1.390 . S
C515 C512 1.386 . S
C516 C511 1.490 . S
C516 C518 1.403 . S
C516 C519 1.395 1_454 S
H517 C523 0.930 . S
C518 H504 0.930 . S
C518 C516 1.403 . S
C518 C521 1.403 . S
C519 C516 1.395 1_656 S
C519 C520 1.524 . S
C519 C523 1.400 . S
C520 H505 0.960 . S
C520 H506 0.960 . S
C520 H507 0.960 . S
C520 C519 1.524 . S
C521 C518 1.403 . S
C521 C522 1.392 1_554 S
C521 C525 1.495 . S
C522 C521 1.392 1_556 S
C522 C523 1.385 1_455 S
C522 C524 1.478 . S
C523 H517 0.930 . S
C523 C519 1.400 . S
C523 C522 1.385 1_655 S
C524 C522 1.478 . S
C524 C526 1.381 . S
C524 C530 1.383 1_455 S
C525 C521 1.495 . S
C525 H531 0.959 . S
C525 H532 0.961 . S
C525 H533 0.960 . S
C526 C524 1.381 . S
C526 C527 1.394 . S
C526 H534 0.930 . S
C527 C526 1.394 . S
C527 C528 1.404 . S
C527 H535 0.929 . S
C528 C527 1.404 . S
C528 C529 1.357 1_455 S
C529 H513 0.930 . S
C529 C528 1.357 1_655 S
C529 C530 1.379 . S
C530 H514 0.931 . S
C530 C524 1.383 1_655 S
C530 C529 1.379 . S
H531 C525 0.959 . S
H532 C525 0.961 . S
H533 C525 0.960 . S
H534 C526 0.930 . S
H535 C527 0.929 . S
H536 C544 0.929 . S
H537 C546 0.930 . S
H538 C548 0.930 . S
H539 C551 0.929 . S
H540 C554 0.930 . S
H541 C556 0.960 . S
H542 C556 0.960 . S
H543 C556 0.960 . S
C544 H536 0.929 . S
C544 C545 1.377 1_655 S
C544 C546 1.384 . S
C545 C544 1.377 1_455 S
C545 C551 1.390 . S
C546 H537 0.930 . S
C546 C544 1.384 . S
C546 C547 1.372 . S
C547 C546 1.372 . S
C547 C548 1.400 1_655 S
C547 C552 1.490 . S
C548 H538 0.930 . S
C548 C547 1.400 1_455 S
C548 C551 1.386 . S
H549 C565 0.930 . S
H550 C566 0.931 1_455 S
C551 H539 0.929 . S
C551 C545 1.390 . S
C551 C548 1.386 . S
C552 C547 1.490 . S
C552 C554 1.395 . S
C552 C555 1.403 1_655 S
H553 C559 0.924 1_455 S
C554 H540 0.930 . S
C554 C552 1.395 . S
C554 C557 1.403 . S
C555 C552 1.403 1_455 S
C555 C556 1.524 . S
C555 C559 1.397 1_455 S
C556 H541 0.960 . S
C556 H542 0.960 . S
C556 H543 0.960 . S
C556 C555 1.524 . S
C557 C554 1.403 . S
C557 C558 1.392 . S
C557 C561 1.495 . S
C558 C557 1.392 . S
C558 C559 1.393 . S
C558 C560 1.478 . S
C559 H553 0.924 1_655 S
C559 C555 1.397 1_655 S
C559 C558 1.393 . S
C560 C558 1.478 . S
C560 C562 1.381 . S
C560 C566 1.383 . S
C561 C557 1.495 . S
C561 H567 0.959 . S
C561 H568 0.961 . S
C561 H569 0.960 . S
C562 C560 1.381 . S
C562 C563 1.394 . S
C562 H570 0.930 . S
C563 C562 1.394 . S
C563 C564 1.383 . S
C563 H571 0.929 . S
C564 C563 1.383 . S
C564 C565 1.377 . S
C565 H549 0.930 . S
C565 C564 1.377 . S
C565 C566 1.379 . S
C566 H550 0.931 1_655 S
C566 C560 1.383 . S
C566 C565 1.379 . S
H567 C561 0.959 . S
H568 C561 0.961 . S
H569 C561 0.960 . S
H570 C562 0.930 . S
H571 C563 0.929 . S
H572 C580 0.929 . S
H573 C582 0.930 . S
H574 C584 0.930 . S
H575 C587 0.929 . S
H576 C590 0.930 . S
H577 C592 0.960 . S
H578 C592 0.960 . S
H579 C592 0.996 . S
C580 H572 0.929 . S
C580 C581 1.377 . S
C580 C582 1.384 . S
C581 C580 1.377 . S
C581 C587 1.390 1_545 S
C582 H573 0.930 . S
C582 C580 1.384 . S
C582 C583 1.372 1_545 S
C583 C582 1.372 1_565 S
C583 C584 1.400 . S
C583 C588 1.490 . S
C584 H574 0.930 . S
C584 C583 1.400 . S
C584 C587 1.386 . S
H585 C601 0.930 . S
H586 C602 0.931 . S
C587 H575 0.929 . S
C587 C581 1.390 1_565 S
C587 C584 1.386 . S
C588 C583 1.490 . S
C588 C590 1.395 . S
C588 C591 1.403 . S
H589 C595 0.930 . S
C590 H576 0.930 . S
C590 C588 1.395 . S
C590 C593 1.403 . S
C591 C588 1.403 . S
C591 C592 1.524 1_565 S
C591 C595 1.400 . S
C592 H577 0.960 . S
C592 H578 0.960 . S
C592 H579 0.996 . S
C592 C591 1.524 1_545 S
C593 C590 1.403 . S
C593 C594 1.392 . S
C593 C597 1.495 . S
C594 C593 1.392 . S
C594 C595 1.385 . S
C594 C596 1.478 . S
C595 H589 0.930 . S
C595 C591 1.400 . S
C595 C594 1.385 . S
C596 C594 1.478 . S
C596 C598 1.381 . S
C596 C602 1.383 . S
C597 C593 1.495 . S
C597 H603 0.959 . S
C597 H604 0.961 . S
C597 H605 0.960 . S
C598 C596 1.381 . S
C598 C599 1.394 . S
C598 H606 0.897 1_565 S
C599 C598 1.394 . S
C599 C600 1.383 . S
C599 H607 0.929 . S
C600 C599 1.383 . S
C600 C601 1.377 . S
C601 H585 0.930 . S
C601 C600 1.377 . S
C601 C602 1.379 . S
C602 H586 0.931 . S
C602 C596 1.383 . S
C602 C601 1.379 . S
H603 C597 0.959 . S
H604 C597 0.961 . S
H605 C597 0.960 . S
H606 C598 0.897 1_545 S
H607 C599 0.929 . S
H608 C616 0.929 . S
H609 C618 0.930 . S
H610 C620 0.930 . S
H611 C623 0.929 . S
H612 C626 0.930 . S
H613 C628 0.960 . S
H614 C628 0.960 . S
H615 C628 0.960 . S
C616 H608 0.929 . S
C616 C617 1.377 . S
C616 C618 1.384 . S
C617 C616 1.377 . S
C617 C623 1.390 . S
C618 H609 0.930 . S
C618 C616 1.384 . S
C618 C619 1.372 . S
C619 C618 1.372 . S
C619 C620 1.400 . S
C619 C624 1.490 . S
C620 H610 0.930 . S
C620 C619 1.400 . S
C620 C623 1.386 . S
H621 C637 0.930 . S
H622 C638 0.931 . S
C623 H611 0.929 . S
C623 C617 1.390 . S
C623 C620 1.386 . S
C624 C619 1.490 . S
C624 C626 1.395 . S
C624 C627 1.403 . S
H625 C631 0.930 . S
C626 H612 0.930 . S
C626 C624 1.395 . S
C626 C629 1.403 . S
C627 C624 1.403 . S
C627 C628 1.524 . S
C627 C631 1.400 . S
C628 H613 0.960 . S
C628 H614 0.960 . S
C628 H615 0.960 . S
C628 C627 1.524 . S
C629 C626 1.403 . S
C629 C630 1.392 . S
C629 C633 1.495 . S
C630 C629 1.392 . S
C630 C631 1.385 . S
C630 C632 1.478 . S
C631 H625 0.930 . S
C631 C627 1.400 . S
C631 C630 1.385 . S
C632 C630 1.478 . S
C632 C634 1.381 . S
C632 C638 1.383 . S
C633 C629 1.495 . S
C633 H639 0.959 . S
C633 H640 0.961 . S
C633 H641 0.960 . S
C634 C632 1.381 . S
C634 C635 1.394 . S
C634 H642 0.930 . S
C635 C634 1.394 . S
C635 C636 1.383 . S
C635 H643 0.929 . S
C636 C635 1.383 . S
C636 C637 1.377 . S
C637 H621 0.930 . S
C637 C636 1.377 . S
C637 C638 1.379 . S
C638 H622 0.931 . S
C638 C632 1.383 . S
C638 C637 1.379 . S
H639 C633 0.959 . S
H640 C633 0.961 . S
H641 C633 0.960 . S
H642 C634 0.930 . S
H643 C635 0.929 . S
H644 C652 0.929 . S
H645 C654 0.930 . S
H646 C656 0.930 . S
H647 C659 0.929 . S
H648 C662 0.930 . S
H649 C664 0.960 . S
H650 C664 0.960 . S
H651 C664 0.960 . S
C652 H644 0.929 . S
C652 C653 1.377 . S
C652 C654 1.384 . S
C653 C652 1.377 . S
C653 C659 1.390 . S
C654 H645 0.930 . S
C654 C652 1.384 . S
C654 C655 1.372 . S
C655 C654 1.372 . S
C655 C656 1.400 . S
C655 C660 1.490 . S
C656 H646 0.930 . S
C656 C655 1.400 . S
C656 C659 1.386 . S
H657 C673 0.930 . S
H658 C674 0.931 . S
C659 H647 0.929 . S
C659 C653 1.390 . S
C659 C656 1.386 . S
C660 C655 1.490 . S
C660 C662 1.395 . S
C660 C663 1.403 . S
H661 C667 0.930 . S
C662 H648 0.930 . S
C662 C660 1.395 . S
C662 C665 1.403 . S
C663 C660 1.403 . S
C663 C664 1.524 . S
C663 C667 1.400 . S
C664 H649 0.960 . S
C664 H650 0.960 . S
C664 H651 0.960 . S
C664 C663 1.524 . S
C665 C662 1.403 . S
C665 C666 1.392 . S
C665 C669 1.495 . S
C666 C665 1.392 . S
C666 C667 1.385 . S
C666 C668 1.478 . S
C667 H661 0.930 . S
C667 C663 1.400 . S
C667 C666 1.385 . S
C668 C666 1.478 . S
C668 C670 1.381 . S
C668 C674 1.383 . S
C669 C665 1.495 . S
C669 H675 0.959 . S
C669 H676 0.961 . S
C669 H677 0.960 . S
C670 C668 1.381 . S
C670 C671 1.394 . S
C670 H678 0.930 . S
C671 C670 1.394 . S
C671 C672 1.383 . S
C671 H679 0.929 . S
C672 C671 1.383 . S
C672 C673 1.377 . S
C673 H657 0.930 . S
C673 C672 1.377 . S
C673 C674 1.379 . S
C674 H658 0.931 . S
C674 C668 1.383 . S
C674 C673 1.379 . S
H675 C669 0.959 . S
H676 C669 0.961 . S
H677 C669 0.960 . S
H678 C670 0.930 . S
H679 C671 0.929 . S
H680 C688 0.929 . S
H681 C690 0.930 . S
H682 C692 0.930 . S
H683 C695 0.929 . S
H684 C698 0.930 . S
H685 C700 0.960 . S
H686 C700 0.960 . S
H687 C700 0.960 . S
C688 H680 0.929 . S
C688 C689 1.377 1_455 S
C688 C690 1.384 . S
C689 C688 1.377 1_655 S
C689 C695 1.390 . S
C690 H681 0.930 . S
C690 C688 1.384 . S
C690 C691 1.372 . S
C691 C690 1.372 . S
C691 C692 1.400 . S
C691 C696 1.490 . S
C692 H682 0.930 . S
C692 C691 1.400 . S
C692 C695 1.386 1_455 S
H693 C709 0.930 1_554 S
H694 C710 0.931 . S
C695 H683 0.929 . S
C695 C689 1.390 . S
C695 C692 1.386 1_655 S
C696 C691 1.490 . S
C696 C698 1.395 1_455 S
C696 C699 1.403 . S
H697 C703 0.930 . S
C698 H684 0.930 . S
C698 C696 1.395 1_655 S
C698 C701 1.403 . S
C699 C696 1.403 . S
C699 C700 1.524 . S
C699 C703 1.400 . S
C700 H685 0.960 . S
C700 H686 0.960 . S
C700 H687 0.960 . S
C700 C699 1.524 . S
C701 C698 1.403 . S
C701 C702 1.392 1_655 S
C701 C705 1.495 1_554 S
C702 C701 1.392 1_455 S
C702 C703 1.385 . S
C702 C704 1.478 1_554 S
C703 H697 0.930 . S
C703 C699 1.400 . S
C703 C702 1.385 . S
C704 C702 1.478 1_556 S
C704 C706 1.381 . S
C704 C710 1.383 1_556 S
C705 C701 1.495 1_556 S
C705 H711 0.959 . S
C705 H712 0.961 . S
C705 H713 0.960 . S
C706 C704 1.381 . S
C706 C707 1.394 . S
C706 H714 0.930 . S
C707 C706 1.394 . S
C707 C708 1.383 . S
C707 H715 0.929 . S
C708 C707 1.383 . S
C708 C709 1.377 . S
C709 H693 0.930 1_556 S
C709 C708 1.377 . S
C709 C710 1.379 1_556 S
C710 H694 0.931 . S
C710 C704 1.383 1_554 S
C710 C709 1.379 1_554 S
H711 C705 0.959 . S
H712 C705 0.961 . S
H713 C705 0.960 . S
H714 C706 0.930 . S
H715 C707 0.929 . S
H716 C724 0.929 . S
H717 C726 0.930 . S
H718 C728 0.930 . S
H719 C731 0.929 . S
H720 C734 0.930 . S
H721 C736 0.960 . S
H722 C736 0.960 . S
H723 C736 0.960 . S
C724 H716 0.929 . S
C724 C725 1.377 1_545 S
C724 C726 1.384 . S
C725 C724 1.377 1_565 S
C725 C731 1.390 . S
C726 H717 0.930 . S
C726 C724 1.384 . S
C726 C727 1.372 . S
C727 C726 1.372 . S
C727 C728 1.412 . S
C727 C732 1.490 . S
C728 H718 0.930 . S
C728 C727 1.412 . S
C728 C731 1.376 1_545 S
H729 C745 0.930 1_554 S
H730 C746 0.931 . S
C731 H719 0.929 . S
C731 C725 1.390 . S
C731 C728 1.376 1_565 S
C732 C727 1.490 . S
C732 C734 1.395 1_545 S
C732 C735 1.403 . S
H733 C739 0.930 . S
C734 H720 0.930 . S
C734 C732 1.395 1_565 S
C734 C737 1.403 . S
C735 C732 1.403 . S
C735 C736 1.524 . S
C735 C739 1.400 . S
C736 H721 0.960 . S
C736 H722 0.960 . S
C736 H723 0.960 . S
C736 C735 1.524 . S
C737 C734 1.403 . S
C737 C738 1.392 1_565 S
C737 C741 1.495 1_554 S
C738 C737 1.392 1_545 S
C738 C739 1.385 . S
C738 C740 1.478 1_554 S
C739 H733 0.930 . S
C739 C735 1.400 . S
C739 C738 1.385 . S
C740 C738 1.478 1_556 S
C740 C742 1.381 . S
C740 C746 1.383 1_556 S
C741 C737 1.495 1_556 S
C741 H747 0.959 . S
C741 H748 0.961 . S
C741 H749 0.960 . S
C742 C740 1.381 . S
C742 C743 1.394 . S
C742 H750 0.930 . S
C743 C742 1.394 . S
C743 C744 1.383 . S
C743 H751 0.929 . S
C744 C743 1.383 . S
C744 C745 1.377 . S
C745 H729 0.930 1_556 S
C745 C744 1.377 . S
C745 C746 1.379 1_556 S
C746 H730 0.931 . S
C746 C740 1.383 1_554 S
C746 C745 1.379 1_554 S
H747 C741 0.959 . S
H748 C741 0.961 . S
H749 C741 0.960 . S
H750 C742 0.930 . S
H751 C743 0.929 . S
H752 C760 0.929 . S
H753 C762 0.930 . S
H754 C764 0.930 . S
H755 C767 0.929 . S
H756 C770 0.930 . S
H757 C772 0.960 . S
H758 C772 0.960 . S
H759 C772 0.960 . S
C760 H752 0.929 . S
C760 C761 1.377 . S
C760 C762 1.384 . S
C761 C760 1.377 . S
C761 C767 1.390 . S
C762 H753 0.930 . S
C762 C760 1.384 . S
C762 C763 1.372 . S
C763 C762 1.372 . S
C763 C764 1.400 . S
C763 C768 1.490 . S
C764 H754 0.930 . S
C764 C763 1.400 . S
C764 C767 1.386 . S
H765 C781 0.930 . S
H766 C782 0.931 1_554 S
C767 H755 0.929 . S
C767 C761 1.390 . S
C767 C764 1.386 . S
C768 C763 1.490 . S
C768 C770 1.395 . S
C768 C771 1.403 . S
H769 C775 0.930 . S
C770 H756 0.930 . S
C770 C768 1.395 . S
C770 C773 1.403 1_554 S
C771 C768 1.403 . S
C771 C772 1.524 . S
C771 C775 1.400 . S
C772 H757 0.960 . S
C772 H758 0.960 . S
C772 H759 0.960 . S
C772 C771 1.524 . S
C773 C770 1.403 1_556 S
C773 C774 1.392 1_556 S
C773 C777 1.495 . S
C774 C773 1.392 1_554 S
C774 C775 1.385 . S
C774 C776 1.478 1_554 S
C775 H769 0.930 . S
C775 C771 1.400 . S
C775 C774 1.385 . S
C776 C774 1.478 1_556 S
C776 C778 1.381 . S
C776 C782 1.383 . S
C777 C773 1.495 . S
C777 H783 0.959 . S
C777 H784 0.961 . S
C777 H785 0.960 . S
C778 C776 1.381 . S
C778 C779 1.394 . S
C778 H786 0.930 . S
C779 C778 1.394 . S
C779 C780 1.383 . S
C779 H787 0.929 . S
C780 C779 1.383 . S
C780 C781 1.377 . S
C781 H765 0.930 . S
C781 C780 1.377 . S
C781 C782 1.379 . S
C782 H766 0.931 1_556 S
C782 C776 1.383 . S
C782 C781 1.379 . S
H783 C777 0.959 . S
H784 C777 0.961 . S
H785 C777 0.960 . S
H786 C778 0.930 . S
H787 C779 0.929 . S
H788 C796 0.929 . S
H789 C798 0.930 . S
H790 C800 0.930 . S
H791 C803 0.929 . S
H792 C806 0.930 . S
H793 C808 0.960 . S
H794 C808 0.960 . S
H795 C808 0.960 . S
C796 H788 0.929 . S
C796 C797 1.377 . S
C796 C798 1.384 . S
C797 C796 1.377 . S
C797 C803 1.390 . S
C798 H789 0.930 . S
C798 C796 1.384 . S
C798 C799 1.372 . S
C799 C798 1.372 . S
C799 C800 1.400 . S
C799 C804 1.490 . S
C800 H790 0.930 . S
C800 C799 1.400 . S
C800 C803 1.386 . S
H801 C817 0.930 1_554 S
H802 C818 0.931 . S
C803 H791 0.929 . S
C803 C797 1.390 . S
C803 C800 1.386 . S
C804 C799 1.490 . S
C804 C806 1.395 . S
C804 C807 1.403 . S
H805 C811 0.930 . S
C806 H792 0.930 . S
C806 C804 1.395 . S
C806 C809 1.403 . S
C807 C804 1.403 . S
C807 C808 1.524 . S
C807 C811 1.400 . S
C808 H793 0.960 . S
C808 H794 0.960 . S
C808 H795 0.960 . S
C808 C807 1.524 . S
C809 C806 1.403 . S
C809 C810 1.392 . S
C809 C813 1.495 1_554 S
C810 C809 1.392 . S
C810 C811 1.385 . S
C810 C812 1.478 1_554 S
C811 H805 0.930 . S
C811 C807 1.400 . S
C811 C810 1.385 . S
C812 C810 1.478 1_556 S
C812 C814 1.381 . S
C812 C818 1.383 1_556 S
C813 C809 1.495 1_556 S
C813 H819 0.959 1_556 S
C813 H820 0.961 1_556 S
C813 H821 0.960 . S
C814 C812 1.381 . S
C814 C815 1.394 . S
C814 H822 0.930 . S
C815 C814 1.394 . S
C815 C816 1.383 . S
C815 H823 0.929 . S
C816 C815 1.383 . S
C816 C817 1.377 . S
C817 H801 0.930 1_556 S
C817 C816 1.377 . S
C817 C818 1.379 1_556 S
C818 H802 0.931 . S
C818 C812 1.383 1_554 S
C818 C817 1.379 1_554 S
H819 C813 0.959 1_554 S
H820 C813 0.961 1_554 S
H821 C813 0.960 . S
H822 C814 0.930 . S
H823 C815 0.929 . S
H824 C832 0.929 . S
H825 C834 0.930 . S
H826 C836 0.930 . S
H827 C839 0.929 . S
H828 C842 0.930 . S
H829 C844 0.960 . S
H830 C844 0.960 . S
H831 C844 0.960 . S
C832 H824 0.929 . S
C832 C833 1.377 . S
C832 C834 1.384 . S
C833 C832 1.377 . S
C833 C839 1.390 1_455 S
C834 H825 0.930 . S
C834 C832 1.384 . S
C834 C835 1.372 . S
C835 C834 1.372 . S
C835 C836 1.400 1_455 S
C835 C840 1.490 . S
C836 H826 0.930 . S
C836 C835 1.400 1_655 S
C836 C839 1.386 . S
H837 C853 0.930 1_655 S
H838 C854 0.927 1_655 S
C839 H827 0.929 . S
C839 C833 1.390 1_655 S
C839 C836 1.386 . S
C840 C835 1.490 . S
C840 C842 1.395 . S
C840 C843 1.403 1_455 S
H841 C847 0.930 . S
C842 H828 0.930 . S
C842 C840 1.395 . S
C842 C845 1.403 . S
C843 C840 1.403 1_655 S
C843 C844 1.524 . S
C843 C847 1.400 . S
C844 H829 0.960 . S
C844 H830 0.960 . S
C844 H831 0.960 . S
C844 C843 1.524 . S
C845 C842 1.403 . S
C845 C846 1.392 . S
C845 C849 1.495 . S
C846 C845 1.392 . S
C846 C847 1.385 1_455 S
C846 C848 1.478 . S
C847 H841 0.930 . S
C847 C843 1.400 . S
C847 C846 1.385 1_655 S
C848 C846 1.478 . S
C848 C850 1.381 . S
C848 C854 1.383 . S
C849 C845 1.495 . S
C849 H855 0.959 . S
C849 H856 0.961 . S
C849 H857 0.960 . S
C850 C848 1.381 . S
C850 C851 1.394 . S
C850 H858 0.930 . S
C851 C850 1.394 . S
C851 C852 1.383 . S
C851 H859 0.929 . S
C852 C851 1.383 . S
C852 C853 1.377 . S
C853 H837 0.930 1_455 S
C853 C852 1.377 . S
C853 C854 1.379 . S
C854 H838 0.927 1_455 S
C854 C848 1.383 . S
C854 C853 1.379 . S
H855 C849 0.959 . S
H856 C849 0.961 . S
H857 C849 0.960 . S
H858 C850 0.930 . S
H859 C851 0.929 . S
H860 C868 0.929 . S
H861 C870 0.930 . S
H862 C872 0.930 . S
H863 C875 0.929 . S
H864 C878 0.930 . S
H865 C880 0.960 . S
H866 C880 0.960 . S
H867 C880 0.960 . S
C868 H860 0.929 . S
C868 C869 1.377 . S
C868 C870 1.384 . S
C869 C868 1.377 . S
C869 C875 1.390 1_545 S
C870 H861 0.930 . S
C870 C868 1.384 . S
C870 C871 1.372 . S
C871 C870 1.372 . S
C871 C872 1.400 1_545 S
C871 C876 1.490 . S
C872 H862 0.930 . S
C872 C871 1.400 1_565 S
C872 C875 1.386 . S
H873 C889 0.930 . S
H874 C890 0.931 . S
C875 H863 0.929 . S
C875 C869 1.390 1_565 S
C875 C872 1.386 . S
C876 C871 1.490 . S
C876 C878 1.395 . S
C876 C879 1.403 . S
H877 C883 0.930 . S
C878 H864 0.930 . S
C878 C876 1.395 . S
C878 C881 1.403 . S
C879 C876 1.403 . S
C879 C880 1.524 . S
C879 C883 1.400 . S
C880 H865 0.960 . S
C880 H866 0.960 . S
C880 H867 0.960 . S
C880 C879 1.524 . S
C881 C878 1.403 . S
C881 C882 1.392 . S
C881 C885 1.495 . S
C882 C881 1.392 . S
C882 C883 1.385 . S
C882 C884 1.478 . S
C883 H877 0.930 . S
C883 C879 1.400 . S
C883 C882 1.385 . S
C884 C882 1.478 . S
C884 C886 1.381 . S
C884 C890 1.383 1_545 S
C885 C881 1.495 . S
C885 H891 0.959 . S
C885 H892 0.961 1_545 S
C885 H893 0.960 . S
C886 C884 1.381 . S
C886 C887 1.394 . S
C886 H894 0.930 . S
C887 C886 1.394 . S
C887 C888 1.383 . S
C887 H895 0.929 . S
C888 C887 1.383 . S
C888 C889 1.377 1_545 S
C889 H873 0.930 . S
C889 C888 1.377 1_565 S
C889 C890 1.379 . S
C890 H874 0.931 . S
C890 C884 1.383 1_565 S
C890 C889 1.379 . S
H891 C885 0.959 . S
H892 C885 0.961 1_565 S
H893 C885 0.960 . S
H894 C886 0.930 . S
H895 C887 0.929 . S
H896 C904 0.929 . S
H897 C906 0.930 . S
H898 C908 0.930 . S
H899 C911 0.929 . S
H900 C914 0.930 . S
H901 C916 0.960 . S
H902 C916 0.960 . S
H903 C916 0.960 . S
C904 H896 0.929 . S
C904 C905 1.377 . S
C904 C906 1.384 . S
C905 C904 1.377 . S
C905 C911 1.390 . S
C906 H897 0.930 . S
C906 C904 1.384 . S
C906 C907 1.372 . S
C907 C906 1.372 . S
C907 C908 1.400 . S
C907 C912 1.490 . S
C908 H898 0.930 . S
C908 C907 1.400 . S
C908 C911 1.386 . S
H909 C925 0.930 . S
H910 C926 0.931 . S
C911 H899 0.929 . S
C911 C905 1.390 . S
C911 C908 1.386 . S
C912 C907 1.490 . S
C912 C914 1.395 . S
C912 C915 1.403 . S
H913 C919 0.930 . S
C914 H900 0.930 . S
C914 C912 1.395 . S
C914 C917 1.403 . S
C915 C912 1.403 . S
C915 C916 1.524 . S
C915 C919 1.400 . S
C916 H901 0.960 . S
C916 H902 0.960 . S
C916 H903 0.960 . S
C916 C915 1.524 . S
C917 C914 1.403 . S
C917 C918 1.392 . S
C917 C921 1.495 . S
C918 C917 1.392 . S
C918 C919 1.385 . S
C918 C920 1.478 . S
C919 H913 0.930 . S
C919 C915 1.400 . S
C919 C918 1.385 . S
C920 C918 1.478 . S
C920 C922 1.381 . S
C920 C926 1.383 . S
C921 C917 1.495 . S
C921 H927 0.959 . S
C921 H928 0.961 . S
C921 H929 0.960 . S
C922 C920 1.381 . S
C922 C923 1.394 . S
C922 H930 0.930 . S
C923 C922 1.394 . S
C923 C924 1.383 . S
C923 H931 0.929 . S
C924 C923 1.383 . S
C924 C925 1.377 . S
C925 H909 0.930 . S
C925 C924 1.377 . S
C925 C926 1.379 . S
C926 H910 0.931 . S
C926 C920 1.383 . S
C926 C925 1.379 . S
H927 C921 0.959 . S
H928 C921 0.961 . S
H929 C921 0.960 . S
H930 C922 0.930 . S
H931 C923 0.929 . S
H932 C940 0.929 . S
H933 C942 0.930 . S
H934 C944 0.930 . S
H935 C947 0.929 . S
H936 C950 0.930 . S
H937 C952 0.960 . S
H938 C952 0.960 . S
H939 C952 0.960 . S
C940 H932 0.929 . S
C940 C941 1.377 . S
C940 C942 1.384 . S
C941 C940 1.377 . S
C941 C947 1.390 . S
C942 H933 0.930 . S
C942 C940 1.384 . S
C942 C943 1.372 . S
C943 C942 1.372 . S
C943 C944 1.400 . S
C943 C948 1.490 . S
C944 H934 0.930 . S
C944 C943 1.400 . S
C944 C947 1.386 . S
H945 C961 0.930 . S
H946 C962 0.931 . S
C947 H935 0.929 . S
C947 C941 1.390 . S
C947 C944 1.386 . S
C948 C943 1.490 . S
C948 C950 1.395 . S
C948 C951 1.403 . S
H949 C955 0.930 . S
C950 H936 0.930 . S
C950 C948 1.395 . S
C950 C953 1.403 . S
C951 C948 1.403 . S
C951 C952 1.524 . S
C951 C955 1.400 . S
C952 H937 0.960 . S
C952 H938 0.960 . S
C952 H939 0.960 . S
C952 C951 1.524 . S
C953 C950 1.403 . S
C953 C954 1.392 . S
C953 C957 1.495 . S
C954 C953 1.392 . S
C954 C955 1.385 . S
C954 C956 1.478 . S
C955 H949 0.930 . S
C955 C951 1.400 . S
C955 C954 1.385 . S
C956 C954 1.478 . S
C956 C958 1.381 . S
C956 C962 1.383 . S
C957 C953 1.495 . S
C957 H963 0.959 . S
C957 H964 0.961 . S
C957 H965 0.960 . S
C958 C956 1.381 . S
C958 C959 1.394 . S
C958 H966 0.930 . S
C959 C958 1.394 . S
C959 C960 1.383 . S
C959 H967 0.929 . S
C960 C959 1.383 . S
C960 C961 1.377 . S
C961 H945 0.930 . S
C961 C960 1.377 . S
C961 C962 1.379 . S
C962 H946 0.931 . S
C962 C956 1.383 . S
C962 C961 1.379 . S
H963 C957 0.959 . S
H964 C957 0.961 . S
H965 C957 0.960 . S
H966 C958 0.930 . S
H967 C959 0.929 . S
H968 C976 0.929 . S
H969 C978 0.930 . S
H970 C980 0.930 . S
H971 C983 0.929 . S
H972 C986 0.930 . S
H973 C988 0.960 . S
H974 C988 0.960 . S
H975 C988 0.960 . S
C976 H968 0.929 . S
C976 C977 1.377 1_455 S
C976 C978 1.384 . S
C977 C976 1.377 1_655 S
C977 C983 1.390 . S
C978 H969 0.930 . S
C978 C976 1.384 . S
C978 C979 1.372 1_455 S
C979 C978 1.372 1_655 S
C979 C980 1.400 . S
C979 C984 1.490 . S
C980 H970 0.930 . S
C980 C979 1.400 . S
C980 C983 1.386 . S
H981 C997 0.930 . S
H982 C998 0.931 . S
C983 H971 0.929 . S
C983 C977 1.390 . S
C983 C980 1.386 . S
C984 C979 1.490 . S
C984 C986 1.395 1_655 S
C984 C987 1.403 . S
H985 C991 0.930 . S
C986 H972 0.930 . S
C986 C984 1.395 1_455 S
C986 C989 1.403 . S
C987 C984 1.403 . S
C987 C988 1.524 . S
C987 C991 1.400 . S
C988 H973 0.960 . S
C988 H974 0.960 . S
C988 H975 0.960 . S
C988 C987 1.524 . S
C989 C986 1.403 . S
C989 C990 1.392 1_455 S
C989 C993 1.495 . S
C990 C989 1.392 1_655 S
C990 C991 1.385 . S
C990 C992 1.478 . S
C991 H985 0.930 . S
C991 C987 1.400 . S
C991 C990 1.385 . S
C992 C990 1.478 . S
C992 C994 1.381 1_655 S
C992 C998 1.383 . S
C993 C989 1.495 . S
C993 H999 0.959 . S
C993 H1000 0.961 . S
C993 H1001 0.960 . S
C994 C992 1.381 1_455 S
C994 C995 1.394 . S
C994 H1002 0.930 . S
C995 C994 1.394 . S
C995 C996 1.383 1_455 S
C995 H1003 0.929 . S
C996 C995 1.383 1_655 S
C996 C997 1.377 . S
C997 H981 0.930 . S
C997 C996 1.377 . S
C997 C998 1.379 . S
C998 H982 0.931 . S
C998 C992 1.383 . S
C998 C997 1.379 . S
H999 C993 0.959 . S
H1000 C993 0.961 . S
H1001 C993 0.960 . S
H1002 C994 0.930 . S
H1003 C995 0.929 . S
H1004 C1012 0.929 . S
H1005 C1014 0.930 . S
H1006 C1016 0.930 . S
H1007 C1019 0.929 . S
H1008 C1022 0.926 1_545 S
H1009 C1024 0.960 . S
H1010 C1024 0.960 1_545 S
H1011 C1024 0.960 . S
C1012 H1004 0.929 . S
C1012 C1013 1.377 1_545 S
C1012 C1014 1.384 . S
C1013 C1012 1.377 1_565 S
C1013 C1019 1.390 . S
C1014 H1005 0.930 . S
C1014 C1012 1.384 . S
C1014 C1015 1.372 1_545 S
C1015 C1014 1.372 1_565 S
C1015 C1016 1.400 . S
C1015 C1020 1.490 . S
C1016 H1006 0.930 . S
C1016 C1015 1.400 . S
C1016 C1019 1.386 . S
H1017 C1033 0.930 . S
H1018 C1034 0.931 . S
C1019 H1007 0.929 . S
C1019 C1013 1.390 . S
C1019 C1016 1.386 . S
C1020 C1015 1.490 . S
C1020 C1022 1.399 . S
C1020 C1023 1.403 . S
H1021 C1027 0.930 . S
C1022 H1008 0.926 1_565 S
C1022 C1020 1.399 . S
C1022 C1025 1.404 . S
C1023 C1020 1.403 . S
C1023 C1024 1.524 . S
C1023 C1027 1.400 . S
C1024 H1009 0.960 . S
C1024 H1010 0.960 1_565 S
C1024 H1011 0.960 . S
C1024 C1023 1.524 . S
C1025 C1022 1.404 . S
C1025 C1026 1.392 . S
C1025 C1029 1.495 1_565 S
C1026 C1025 1.392 . S
C1026 C1027 1.385 . S
C1026 C1028 1.478 . S
C1027 H1021 0.930 . S
C1027 C1023 1.400 . S
C1027 C1026 1.385 . S
C1028 C1026 1.478 . S
C1028 C1030 1.381 1_565 S
C1028 C1034 1.383 . S
C1029 C1025 1.495 1_545 S
C1029 H1035 0.959 . S
C1029 H1036 0.961 1_545 S
C1029 H1037 0.960 . S
C1030 C1028 1.381 1_545 S
C1030 C1031 1.394 . S
C1030 H1038 0.930 . S
C1031 C1030 1.394 . S
C1031 C1032 1.383 1_545 S
C1031 H1039 0.929 . S
C1032 C1031 1.383 1_565 S
C1032 C1033 1.377 . S
C1033 H1017 0.930 . S
C1033 C1032 1.377 . S
C1033 C1034 1.379 . S
C1034 H1018 0.931 . S
C1034 C1028 1.383 . S
C1034 C1033 1.379 . S
H1035 C1029 0.959 . S
H1036 C1029 0.961 1_565 S
H1037 C1029 0.960 . S
H1038 C1030 0.930 . S
H1039 C1031 0.929 . S
H1040 C1048 0.929 . S
H1041 C1050 0.930 . S
H1042 C1052 0.930 . S
H1043 C1055 0.929 . S
H1044 C1058 0.930 . S
H1045 C1060 0.960 . S
H1046 C1060 0.960 . S
H1047 C1060 0.960 . S
C1048 H1040 0.929 . S
C1048 C1049 1.377 . S
C1048 C1050 1.384 . S
C1049 C1048 1.377 . S
C1049 C1055 1.390 . S
C1050 H1041 0.930 . S
C1050 C1048 1.384 . S
C1050 C1051 1.372 . S
C1051 C1050 1.372 . S
C1051 C1052 1.400 . S
C1051 C1056 1.490 . S
C1052 H1042 0.930 . S
C1052 C1051 1.400 . S
C1052 C1055 1.386 . S
H1053 C1069 0.930 . S
H1054 C1070 0.931 . S
C1055 H1043 0.929 . S
C1055 C1049 1.390 . S
C1055 C1052 1.386 . S
C1056 C1051 1.490 . S
C1056 C1058 1.395 . S
C1056 C1059 1.403 . S
H1057 C1063 0.930 . S
C1058 H1044 0.930 . S
C1058 C1056 1.395 . S
C1058 C1061 1.403 . S
C1059 C1056 1.403 . S
C1059 C1060 1.524 . S
C1059 C1063 1.400 . S
C1060 H1045 0.960 . S
C1060 H1046 0.960 . S
C1060 H1047 0.960 . S
C1060 C1059 1.524 . S
C1061 C1058 1.403 . S
C1061 C1062 1.392 . S
C1061 C1065 1.495 . S
C1062 C1061 1.392 . S
C1062 C1063 1.385 . S
C1062 C1064 1.478 . S
C1063 H1057 0.930 . S
C1063 C1059 1.400 . S
C1063 C1062 1.385 . S
C1064 C1062 1.478 . S
C1064 C1066 1.381 . S
C1064 C1070 1.383 . S
C1065 C1061 1.495 . S
C1065 H1071 0.959 . S
C1065 H1072 0.961 . S
C1065 H1073 0.960 . S
C1066 C1064 1.381 . S
C1066 C1067 1.394 . S
C1066 H1074 0.930 . S
C1067 C1066 1.394 . S
C1067 C1068 1.383 . S
C1067 H1075 0.929 . S
C1068 C1067 1.383 . S
C1068 C1069 1.377 . S
C1069 H1053 0.930 . S
C1069 C1068 1.377 . S
C1069 C1070 1.379 . S
C1070 H1054 0.931 . S
C1070 C1064 1.383 . S
C1070 C1069 1.379 . S
H1071 C1065 0.959 . S
H1072 C1065 0.961 . S
H1073 C1065 0.960 . S
H1074 C1066 0.930 . S
H1075 C1067 0.929 . S
H1076 C1084 0.929 . S
H1077 C1086 0.930 . S
H1078 C1088 0.930 . S
H1079 C1091 0.929 . S
H1080 C1094 0.930 . S
H1081 C1096 0.960 . S
H1082 C1096 0.960 . S
H1083 C1096 0.960 . S
C1084 H1076 0.929 . S
C1084 C1085 1.377 . S
C1084 C1086 1.384 . S
C1085 C1084 1.377 . S
C1085 C1091 1.390 . S
C1086 H1077 0.930 . S
C1086 C1084 1.384 . S
C1086 C1087 1.372 . S
C1087 C1086 1.372 . S
C1087 C1088 1.400 . S
C1087 C1092 1.490 . S
C1088 H1078 0.930 . S
C1088 C1087 1.400 . S
C1088 C1091 1.386 . S
H1089 C1105 0.930 . S
H1090 C1106 0.931 . S
C1091 H1079 0.929 . S
C1091 C1085 1.390 . S
C1091 C1088 1.386 . S
C1092 C1087 1.490 . S
C1092 C1094 1.395 . S
C1092 C1095 1.403 . S
H1093 C1099 0.930 . S
C1094 H1080 0.930 . S
C1094 C1092 1.395 . S
C1094 C1097 1.403 . S
C1095 C1092 1.403 . S
C1095 C1096 1.524 . S
C1095 C1099 1.400 . S
C1096 H1081 0.960 . S
C1096 H1082 0.960 . S
C1096 H1083 0.960 . S
C1096 C1095 1.524 . S
C1097 C1094 1.403 . S
C1097 C1098 1.392 . S
C1097 C1101 1.495 . S
C1098 C1097 1.392 . S
C1098 C1099 1.385 . S
C1098 C1100 1.478 . S
C1099 H1093 0.930 . S
C1099 C1095 1.400 . S
C1099 C1098 1.385 . S
C1100 C1098 1.478 . S
C1100 C1102 1.381 . S
C1100 C1106 1.383 . S
C1101 C1097 1.495 . S
C1101 H1107 0.959 . S
C1101 H1108 0.961 . S
C1101 H1109 0.960 . S
C1102 C1100 1.381 . S
C1102 C1103 1.394 . S
C1102 H1110 0.930 . S
C1103 C1102 1.394 . S
C1103 C1104 1.383 . S
C1103 H1111 0.929 . S
C1104 C1103 1.383 . S
C1104 C1105 1.377 . S
C1105 H1089 0.930 . S
C1105 C1104 1.377 . S
C1105 C1106 1.379 . S
C1106 H1090 0.931 . S
C1106 C1100 1.383 . S
C1106 C1105 1.379 . S
H1107 C1101 0.959 . S
H1108 C1101 0.961 . S
H1109 C1101 0.960 . S
H1110 C1102 0.930 . S
H1111 C1103 0.929 . S
C257 C74 1.677 . S
C276 C97 1.724 . S
C312 C137 1.715 . S
C293 C85 1.679 . S
C348 C177 1.732 . S
C329 C52 1.673 . S
C384 C217 1.718 . S
C365 C63 1.680 . S
C420 C106 1.731 1_565 S
C401 C30 1.667 1_565 S
C437 C41 1.668 . S
C456 C146 1.720 . S
C473 C8 1.676 . S
C492 C186 1.716 . S
C509 C19 1.665 1_655 S
C528 C226 1.733 . S
C564 C103 0.457 . S
C545 C62 0.387 . S
C600 C143 0.448 . S
C581 C73 0.385 . S
C636 C183 0.472 . S
C617 C84 0.383 . S
C653 C51 0.383 . S
C672 C223 0.472 . S
C689 C18 0.452 1_655 S
C708 C94 0.369 . S
C744 C134 0.369 . S
C725 C29 0.452 1_565 S
C780 C174 0.419 . S
C761 C40 0.456 . S
C797 C7 0.454 . S
C816 C214 0.357 . S
C833 C60 1.588 . S
C852 C107 2.030 . S
C869 C71 1.574 . S
C888 C147 2.009 . S
C924 C187 2.001 . S
C905 C82 1.570 . S
C960 C227 2.011 . S
C941 C49 1.579 . S
C977 C16 1.617 1_655 S
C996 C98 2.003 . S
C1032 C138 2.011 . S
C1013 C27 1.610 1_565 S
C1068 C178 2.009 . S
C1049 C38 1.612 . S
C1085 C5 1.612 . S
C1104 C218 2.028 . S
