# Generated by pormake.
# Topology ibd, (4,6)-cn, num edge types: 1
# Building blocks:
#     Node 0, Type 0, BuildingBlock: QUQFOY_clean_sbu_3, # of connection points: 4
#     Node 1, Type 0, BuildingBlock: QUQFOY_clean_sbu_3, # of connection points: 4
#     Node 2, Type 0, BuildingBlock: QUQFOY_clean_sbu_3, # of connection points: 4
#     Node 3, Type 0, BuildingBlock: QUQFOY_clean_sbu_3, # of connection points: 4
#     Node 4, Type 0, BuildingBlock: QUQFOY_clean_sbu_3, # of connection points: 4
#     Node 5, Type 0, BuildingBlock: QUQFOY_clean_sbu_3, # of connection points: 4
#     Node 6, Type 0, BuildingBlock: QUQFOY_clean_sbu_3, # of connection points: 4
#     Node 7, Type 0, BuildingBlock: QUQFOY_clean_sbu_3, # of connection points: 4
#     Node 8, Type 0, BuildingBlock: QUQFOY_clean_sbu_3, # of connection points: 4
#     Node 9, Type 0, BuildingBlock: QUQFOY_clean_sbu_3, # of connection points: 4
#     Node 10, Type 0, BuildingBlock: QUQFOY_clean_sbu_3, # of connection points: 4
#     Node 11, Type 0, BuildingBlock: QUQFOY_clean_sbu_3, # of connection points: 4
#     Node 12, Type 0, BuildingBlock: QUQFOY_clean_sbu_3, # of connection points: 4
#     Node 13, Type 0, BuildingBlock: QUQFOY_clean_sbu_3, # of connection points: 4
#     Node 14, Type 0, BuildingBlock: QUQFOY_clean_sbu_3, # of connection points: 4
#     Node 15, Type 0, BuildingBlock: QUQFOY_clean_sbu_3, # of connection points: 4
#     Node 16, Type 0, BuildingBlock: QUQFOY_clean_sbu_3, # of connection points: 4
#     Node 17, Type 0, BuildingBlock: QUQFOY_clean_sbu_3, # of connection points: 4
#     Node 18, Type 0, BuildingBlock: QUQFOY_clean_sbu_3, # of connection points: 4
#     Node 19, Type 0, BuildingBlock: QUQFOY_clean_sbu_3, # of connection points: 4
#     Node 20, Type 0, BuildingBlock: QUQFOY_clean_sbu_3, # of connection points: 4
#     Node 21, Type 0, BuildingBlock: QUQFOY_clean_sbu_3, # of connection points: 4
#     Node 22, Type 0, BuildingBlock: QUQFOY_clean_sbu_3, # of connection points: 4
#     Node 23, Type 0, BuildingBlock: QUQFOY_clean_sbu_3, # of connection points: 4
#     Node 24, Type 1, BuildingBlock: IZENUY_clean_sbu_0, # of connection points: 6
#     Node 25, Type 1, BuildingBlock: IZENUY_clean_sbu_0, # of connection points: 6
#     Node 26, Type 1, BuildingBlock: IZENUY_clean_sbu_0, # of connection points: 6
#     Node 27, Type 1, BuildingBlock: IZENUY_clean_sbu_0, # of connection points: 6
#     Node 28, Type 1, BuildingBlock: IZENUY_clean_sbu_0, # of connection points: 6
#     Node 29, Type 1, BuildingBlock: IZENUY_clean_sbu_0, # of connection points: 6
#     Node 30, Type 1, BuildingBlock: IZENUY_clean_sbu_0, # of connection points: 6
#     Node 31, Type 1, BuildingBlock: IZENUY_clean_sbu_0, # of connection points: 6
#     Node 32, Type 1, BuildingBlock: IZENUY_clean_sbu_0, # of connection points: 6
#     Node 33, Type 1, BuildingBlock: IZENUY_clean_sbu_0, # of connection points: 6
#     Node 34, Type 1, BuildingBlock: IZENUY_clean_sbu_0, # of connection points: 6
#     Node 35, Type 1, BuildingBlock: IZENUY_clean_sbu_0, # of connection points: 6
#     Node 36, Type 1, BuildingBlock: IZENUY_clean_sbu_0, # of connection points: 6
#     Node 37, Type 1, BuildingBlock: IZENUY_clean_sbu_0, # of connection points: 6
#     Node 38, Type 1, BuildingBlock: IZENUY_clean_sbu_0, # of connection points: 6
#     Node 39, Type 1, BuildingBlock: IZENUY_clean_sbu_0, # of connection points: 6
#     Edge 40, Type (0, 1), BuildingBlock: UVAHIK_clean_linker_0, # of connection points: 2
#     Edge 41, Type (0, 1), BuildingBlock: UVAHIK_clean_linker_0, # of connection points: 2
#     Edge 42, Type (0, 1), BuildingBlock: UVAHIK_clean_linker_0, # of connection points: 2
#     Edge 43, Type (0, 1), BuildingBlock: UVAHIK_clean_linker_0, # of connection points: 2
#     Edge 44, Type (0, 1), BuildingBlock: UVAHIK_clean_linker_0, # of connection points: 2
#     Edge 45, Type (0, 1), BuildingBlock: UVAHIK_clean_linker_0, # of connection points: 2
#     Edge 46, Type (0, 1), BuildingBlock: UVAHIK_clean_linker_0, # of connection points: 2
#     Edge 47, Type (0, 1), BuildingBlock: UVAHIK_clean_linker_0, # of connection points: 2
#     Edge 48, Type (0, 1), BuildingBlock: UVAHIK_clean_linker_0, # of connection points: 2
#     Edge 49, Type (0, 1), BuildingBlock: UVAHIK_clean_linker_0, # of connection points: 2
#     Edge 50, Type (0, 1), BuildingBlock: UVAHIK_clean_linker_0, # of connection points: 2
#     Edge 51, Type (0, 1), BuildingBlock: UVAHIK_clean_linker_0, # of connection points: 2
#     Edge 52, Type (0, 1), BuildingBlock: UVAHIK_clean_linker_0, # of connection points: 2
#     Edge 53, Type (0, 1), BuildingBlock: UVAHIK_clean_linker_0, # of connection points: 2
#     Edge 54, Type (0, 1), BuildingBlock: UVAHIK_clean_linker_0, # of connection points: 2
#     Edge 55, Type (0, 1), BuildingBlock: UVAHIK_clean_linker_0, # of connection points: 2
#     Edge 56, Type (0, 1), BuildingBlock: UVAHIK_clean_linker_0, # of connection points: 2
#     Edge 57, Type (0, 1), BuildingBlock: UVAHIK_clean_linker_0, # of connection points: 2
#     Edge 58, Type (0, 1), BuildingBlock: UVAHIK_clean_linker_0, # of connection points: 2
#     Edge 59, Type (0, 1), BuildingBlock: UVAHIK_clean_linker_0, # of connection points: 2
#     Edge 60, Type (0, 1), BuildingBlock: UVAHIK_clean_linker_0, # of connection points: 2
#     Edge 61, Type (0, 1), BuildingBlock: UVAHIK_clean_linker_0, # of connection points: 2
#     Edge 62, Type (0, 1), BuildingBlock: UVAHIK_clean_linker_0, # of connection points: 2
#     Edge 63, Type (0, 1), BuildingBlock: UVAHIK_clean_linker_0, # of connection points: 2
#     Edge 64, Type (0, 1), BuildingBlock: UVAHIK_clean_linker_0, # of connection points: 2
#     Edge 65, Type (0, 1), BuildingBlock: UVAHIK_clean_linker_0, # of connection points: 2
#     Edge 66, Type (0, 1), BuildingBlock: UVAHIK_clean_linker_0, # of connection points: 2
#     Edge 67, Type (0, 1), BuildingBlock: UVAHIK_clean_linker_0, # of connection points: 2
#     Edge 68, Type (0, 1), BuildingBlock: UVAHIK_clean_linker_0, # of connection points: 2
#     Edge 69, Type (0, 1), BuildingBlock: UVAHIK_clean_linker_0, # of connection points: 2
#     Edge 70, Type (0, 1), BuildingBlock: UVAHIK_clean_linker_0, # of connection points: 2
#     Edge 71, Type (0, 1), BuildingBlock: UVAHIK_clean_linker_0, # of connection points: 2
#     Edge 72, Type (0, 1), BuildingBlock: UVAHIK_clean_linker_0, # of connection points: 2
#     Edge 73, Type (0, 1), BuildingBlock: UVAHIK_clean_linker_0, # of connection points: 2
#     Edge 74, Type (0, 1), BuildingBlock: UVAHIK_clean_linker_0, # of connection points: 2
#     Edge 75, Type (0, 1), BuildingBlock: UVAHIK_clean_linker_0, # of connection points: 2
#     Edge 76, Type (0, 1), BuildingBlock: UVAHIK_clean_linker_0, # of connection points: 2
#     Edge 77, Type (0, 1), BuildingBlock: UVAHIK_clean_linker_0, # of connection points: 2
#     Edge 78, Type (0, 1), BuildingBlock: UVAHIK_clean_linker_0, # of connection points: 2
#     Edge 79, Type (0, 1), BuildingBlock: UVAHIK_clean_linker_0, # of connection points: 2
#     Edge 80, Type (0, 1), BuildingBlock: UVAHIK_clean_linker_0, # of connection points: 2
#     Edge 81, Type (0, 1), BuildingBlock: UVAHIK_clean_linker_0, # of connection points: 2
#     Edge 82, Type (0, 1), BuildingBlock: UVAHIK_clean_linker_0, # of connection points: 2
#     Edge 83, Type (0, 1), BuildingBlock: UVAHIK_clean_linker_0, # of connection points: 2
#     Edge 84, Type (0, 1), BuildingBlock: UVAHIK_clean_linker_0, # of connection points: 2
#     Edge 85, Type (0, 1), BuildingBlock: UVAHIK_clean_linker_0, # of connection points: 2
#     Edge 86, Type (0, 1), BuildingBlock: UVAHIK_clean_linker_0, # of connection points: 2
#     Edge 87, Type (0, 1), BuildingBlock: UVAHIK_clean_linker_0, # of connection points: 2
#     Edge 88, Type (0, 1), BuildingBlock: UVAHIK_clean_linker_0, # of connection points: 2
#     Edge 89, Type (0, 1), BuildingBlock: UVAHIK_clean_linker_0, # of connection points: 2
#     Edge 90, Type (0, 1), BuildingBlock: UVAHIK_clean_linker_0, # of connection points: 2
#     Edge 91, Type (0, 1), BuildingBlock: UVAHIK_clean_linker_0, # of connection points: 2
#     Edge 92, Type (0, 1), BuildingBlock: UVAHIK_clean_linker_0, # of connection points: 2
#     Edge 93, Type (0, 1), BuildingBlock: UVAHIK_clean_linker_0, # of connection points: 2
#     Edge 94, Type (0, 1), BuildingBlock: UVAHIK_clean_linker_0, # of connection points: 2
#     Edge 95, Type (0, 1), BuildingBlock: UVAHIK_clean_linker_0, # of connection points: 2
#     Edge 96, Type (0, 1), BuildingBlock: UVAHIK_clean_linker_0, # of connection points: 2
#     Edge 97, Type (0, 1), BuildingBlock: UVAHIK_clean_linker_0, # of connection points: 2
#     Edge 98, Type (0, 1), BuildingBlock: UVAHIK_clean_linker_0, # of connection points: 2
#     Edge 99, Type (0, 1), BuildingBlock: UVAHIK_clean_linker_0, # of connection points: 2
#     Edge 100, Type (0, 1), BuildingBlock: UVAHIK_clean_linker_0, # of connection points: 2
#     Edge 101, Type (0, 1), BuildingBlock: UVAHIK_clean_linker_0, # of connection points: 2
#     Edge 102, Type (0, 1), BuildingBlock: UVAHIK_clean_linker_0, # of connection points: 2
#     Edge 103, Type (0, 1), BuildingBlock: UVAHIK_clean_linker_0, # of connection points: 2
#     Edge 104, Type (0, 1), BuildingBlock: UVAHIK_clean_linker_0, # of connection points: 2
#     Edge 105, Type (0, 1), BuildingBlock: UVAHIK_clean_linker_0, # of connection points: 2
#     Edge 106, Type (0, 1), BuildingBlock: UVAHIK_clean_linker_0, # of connection points: 2
#     Edge 107, Type (0, 1), BuildingBlock: UVAHIK_clean_linker_0, # of connection points: 2
#     Edge 108, Type (0, 1), BuildingBlock: UVAHIK_clean_linker_0, # of connection points: 2
#     Edge 109, Type (0, 1), BuildingBlock: UVAHIK_clean_linker_0, # of connection points: 2
#     Edge 110, Type (0, 1), BuildingBlock: UVAHIK_clean_linker_0, # of connection points: 2
#     Edge 111, Type (0, 1), BuildingBlock: UVAHIK_clean_linker_0, # of connection points: 2
#     Edge 112, Type (0, 1), BuildingBlock: UVAHIK_clean_linker_0, # of connection points: 2
#     Edge 113, Type (0, 1), BuildingBlock: UVAHIK_clean_linker_0, # of connection points: 2
#     Edge 114, Type (0, 1), BuildingBlock: UVAHIK_clean_linker_0, # of connection points: 2
#     Edge 115, Type (0, 1), BuildingBlock: UVAHIK_clean_linker_0, # of connection points: 2
#     Edge 116, Type (0, 1), BuildingBlock: UVAHIK_clean_linker_0, # of connection points: 2
#     Edge 117, Type (0, 1), BuildingBlock: UVAHIK_clean_linker_0, # of connection points: 2
#     Edge 118, Type (0, 1), BuildingBlock: UVAHIK_clean_linker_0, # of connection points: 2
#     Edge 119, Type (0, 1), BuildingBlock: UVAHIK_clean_linker_0, # of connection points: 2
#     Edge 120, Type (0, 1), BuildingBlock: UVAHIK_clean_linker_0, # of connection points: 2
#     Edge 121, Type (0, 1), BuildingBlock: UVAHIK_clean_linker_0, # of connection points: 2
#     Edge 122, Type (0, 1), BuildingBlock: UVAHIK_clean_linker_0, # of connection points: 2
#     Edge 123, Type (0, 1), BuildingBlock: UVAHIK_clean_linker_0, # of connection points: 2
#     Edge 124, Type (0, 1), BuildingBlock: UVAHIK_clean_linker_0, # of connection points: 2
#     Edge 125, Type (0, 1), BuildingBlock: UVAHIK_clean_linker_0, # of connection points: 2
#     Edge 126, Type (0, 1), BuildingBlock: UVAHIK_clean_linker_0, # of connection points: 2
#     Edge 127, Type (0, 1), BuildingBlock: UVAHIK_clean_linker_0, # of connection points: 2
#     Edge 128, Type (0, 1), BuildingBlock: UVAHIK_clean_linker_0, # of connection points: 2
#     Edge 129, Type (0, 1), BuildingBlock: UVAHIK_clean_linker_0, # of connection points: 2
#     Edge 130, Type (0, 1), BuildingBlock: UVAHIK_clean_linker_0, # of connection points: 2
#     Edge 131, Type (0, 1), BuildingBlock: UVAHIK_clean_linker_0, # of connection points: 2
#     Edge 132, Type (0, 1), BuildingBlock: UVAHIK_clean_linker_0, # of connection points: 2
#     Edge 133, Type (0, 1), BuildingBlock: UVAHIK_clean_linker_0, # of connection points: 2
#     Edge 134, Type (0, 1), BuildingBlock: UVAHIK_clean_linker_0, # of connection points: 2
#     Edge 135, Type (0, 1), BuildingBlock: UVAHIK_clean_linker_0, # of connection points: 2
# Relax obj value: 0.309
# Max RMSD: 0.288
# Mean RMSD: 0.261
data_MOF--net-ibd--node1-QUQFOY_clean_sbu_3--node2-IZENUY_clean_sbu_0--edge1-UVAHIK_clean_linker_0
_symmetry_space_group_name_H-M    P1
_symmetry_Int_Tables_number       1
_symmetry_cell_setting            triclinic
loop_
_symmetry_equiv_pos_as_xyz
'x, y, z'
_cell_length_a     63.193169
_cell_length_b     63.148985
_cell_length_c     63.106125
_cell_angle_alpha  90.090204
_cell_angle_beta   90.144572
_cell_angle_gamma 91.145101
loop_
_atom_site_label
_atom_site_type_symbol
_atom_site_fract_x
_atom_site_fract_y
_atom_site_fract_z
_atom_type_partial_charge
C0 C 0.97175 0.2076 0.37984 0.0
O1 O 0.955 0.21792 0.37674 0.0
Cd2 Cd 0.95269 0.24924 0.35649 0.0
O3 O 0.98911 0.21284 0.3708 0.0
Cd4 Cd -0.00025 0.23934 0.34313 0.0
C5 C -0.00675 0.27877 0.3785 0.0
O6 O 0.96695 0.23756 0.32356 0.0
O7 O 0.98717 0.26398 0.31547 0.0
O8 O 0.02226 0.21285 0.32696 0.0
C9 C 0.97044 0.25325 0.31165 0.0
O10 O 0.97329 0.27628 0.37651 0.0
C11 C 0.03805 0.2254 0.32465 0.0
O12 O 0.00587 0.2669 0.36862 0.0
O13 O 0.036 0.24427 0.33113 0.0
C14 C 0.00994 0.80652 0.6107 0.0
O15 O -0.00855 0.81381 0.61264 0.0
Cd16 Cd 0.96236 0.79512 0.62865 0.0
O17 O 0.01454 0.78848 0.61829 0.0
Cd18 Cd -0.00205 0.75971 0.63945 0.0
C19 C 0.96375 0.74905 0.59926 0.0
O20 O 0.97706 0.78268 0.6608 0.0
O21 O 0.96961 0.74957 0.66481 0.0
O22 O 0.03132 0.75685 0.65857 0.0
C23 C 0.96612 0.76855 0.67007 0.0
O24 O 0.95386 0.76569 0.60438 0.0
C25 C 0.03215 0.73683 0.65694 0.0
O26 O 0.98074 0.74407 0.60872 0.0
O27 O 0.01725 0.72756 0.6468 0.0
C28 C 0.4566 0.72223 0.89828 0.0
O29 O 0.44286 0.73644 0.89583 0.0
Cd30 Cd 0.44504 0.76669 0.87349 0.0
O31 O 0.47375 0.72235 0.88765 0.0
Cd32 Cd 0.48874 0.74428 0.85831 0.0
C33 C 0.49272 0.78814 0.88952 0.0
O34 O 0.45533 0.75025 0.84139 0.0
O35 O 0.48151 0.76748 0.82769 0.0
O36 O 0.50292 0.71327 0.84074 0.0
C37 C 0.46193 0.7628 0.82723 0.0
O38 O 0.47267 0.78988 0.88903 0.0
C39 C 0.52167 0.72083 0.83957 0.0
O40 O 0.50169 0.77281 0.88036 0.0
O41 O 0.52508 0.73898 0.84769 0.0
C42 C 0.50397 0.29732 0.10967 0.0
O43 O 0.48636 0.3065 0.11163 0.0
Cd44 Cd 0.4566 0.29289 0.13073 0.0
O45 O 0.50757 0.27994 0.11918 0.0
Cd46 Cd 0.49104 0.25498 0.14475 0.0
C47 C 0.45405 0.24306 0.10733 0.0
O48 O 0.47287 0.28205 0.16232 0.0
O49 O 0.46421 0.25092 0.17345 0.0
O50 O 0.52503 0.25348 0.16255 0.0
C51 C 0.46155 0.27075 0.17444 0.0
O52 O 0.44621 0.26127 0.11037 0.0
C53 C 0.5255 0.23339 0.16316 0.0
O54 O 0.47061 0.23734 0.11715 0.0
O55 O 0.50997 0.2233 0.15484 0.0
C56 C 0.93247 0.7229 0.13611 0.0
O57 O 0.92385 0.74086 0.13532 0.0
Cd58 Cd 0.93979 0.77113 0.1189 0.0
O59 O 0.95021 0.71991 0.12714 0.0
Cd60 Cd 0.97631 0.73967 0.10517 0.0
C61 C 0.98719 0.77244 0.14605 0.0
O62 O 0.9514 0.75962 0.08498 0.0
O63 O 0.98363 0.77118 0.08292 0.0
O64 O 0.97918 0.70937 0.08179 0.0
C65 C 0.96458 0.77249 0.07677 0.0
O66 O 0.96942 0.78082 0.1422 0.0
C67 C -0.00096 0.70753 0.08385 0.0
O68 O -0.00677 0.75643 0.13558 0.0
O69 O 0.00847 0.72066 0.09608 0.0
C70 C 0.52106 0.76823 0.35008 0.0
O71 O 0.51002 0.78418 0.35469 0.0
Cd72 Cd 0.48193 0.78476 0.37977 0.0
O73 O 0.51812 0.75055 0.35947 0.0
Cd74 Cd 0.49534 0.73658 0.38853 0.0
C75 C 0.45087 0.74437 0.35964 0.0
O76 O 0.49782 0.76854 0.40973 0.0
O77 O 0.47614 0.74464 0.42133 0.0
O78 O 0.52546 0.71516 0.39828 0.0
C79 C 0.48512 0.76254 0.42403 0.0
O80 O 0.45299 0.76414 0.36332 0.0
C81 C 0.5144 0.69881 0.4029 0.0
O82 O 0.46456 0.73142 0.36622 0.0
O83 O 0.49456 0.6998 0.40003 0.0
C84 C 0.42756 0.22544 0.6442 0.0
O85 O 0.42123 0.24443 0.64408 0.0
Cd86 Cd 0.43523 0.27327 0.62355 0.0
O87 O 0.44338 0.21992 0.63312 0.0
Cd88 Cd 0.46932 0.23607 0.60851 0.0
C89 C 0.48606 0.27408 0.64338 0.0
O90 O 0.44353 0.25672 0.59128 0.0
O91 O 0.47529 0.26316 0.58059 0.0
O92 O 0.47032 0.2042 0.58685 0.0
C93 C 0.45579 0.26736 0.57944 0.0
O94 O 0.46865 0.28349 0.64042 0.0
C95 C 0.49012 0.20174 0.58893 0.0
O96 O 0.4895 0.25605 0.6351 0.0
O97 O 0.50011 0.21503 0.60053 0.0
C98 C 0.0219 0.27651 0.84806 0.0
O99 O 0.00836 0.29084 0.85084 0.0
Cd100 Cd 0.97794 0.28744 0.87294 0.0
O101 O 0.02043 0.25899 0.858 0.0
Cd102 Cd -0.00326 0.24353 0.8854 0.0
C103 C 0.95532 0.24259 0.85159 0.0
O104 O -0.00787 0.27561 0.90593 0.0
O105 O 0.97129 0.24941 0.91392 0.0
O106 O 0.02704 0.22864 0.90318 0.0
C107 C 0.97845 0.26777 0.9184 0.0
O108 O 0.9539 0.26247 0.8545 0.0
C109 C 0.01903 0.21011 0.90478 0.0
O110 O 0.97009 0.23232 0.86024 0.0
O111 O 0.00099 0.20689 0.89635 0.0
C112 C 0.39975 0.94797 0.21571 0.0
O113 O 0.39523 0.93539 0.2308 0.0
Cd114 Cd 0.37242 0.94357 0.2596 0.0
O115 O 0.39205 0.96647 0.21503 0.0
Cd116 Cd 0.36711 0.98799 0.23572 0.0
C117 C 0.39743 0.98743 0.28025 0.0
O118 O 0.3431 0.95811 0.24068 0.0
O119 O 0.33358 0.98717 0.25541 0.0
O120 O 0.35931 0.00358 0.20137 0.0
C121 C 0.32927 0.96801 0.25094 0.0
O122 O 0.39272 0.9679 0.28268 0.0
C123 C 0.35764 0.02231 0.20844 0.0
O124 O 0.39069 -0.00237 0.26435 0.0
O125 O 0.36087 0.02509 0.22811 0.0
C126 C 0.30852 0.10575 0.49545 0.0
O127 O 0.31181 0.10721 0.47565 0.0
Cd128 Cd 0.28779 0.12288 0.4511 0.0
O129 O 0.29149 0.11252 0.50356 0.0
Cd130 Cd 0.2589 0.13001 0.49215 0.0
C131 C 0.24417 0.0908 0.45821 0.0
O132 O 0.27698 0.15421 0.4687 0.0
O133 O 0.24297 0.15551 0.46727 0.0
O134 O 0.25826 0.1498 0.52535 0.0
C135 C 0.26074 0.1629 0.46123 0.0
O136 O 0.25838 0.0977 0.44557 0.0
C137 C 0.23939 0.14434 0.53003 0.0
O138 O 0.24216 0.09874 0.47661 0.0
O139 O 0.22989 0.13172 0.51736 0.0
C140 C 0.13358 0.93587 0.7341 0.0
O141 O 0.13208 0.92902 0.75297 0.0
Cd142 Cd 0.11705 0.94935 0.78125 0.0
O143 O 0.12773 0.95445 0.72938 0.0
Cd144 Cd 0.11247 0.98597 0.74566 0.0
C145 C 0.15171 -0.00835 0.78232 0.0
O146 O 0.08695 0.96554 0.76546 0.0
O147 O 0.08607 -0.00078 0.77089 0.0
O148 O 0.09582 -0.00824 0.71153 0.0
C149 C 0.07844 0.98093 0.77476 0.0
O150 O 0.14421 0.97538 0.7918 0.0
C151 C 0.10191 0.01097 0.70989 0.0
O152 O 0.14378 -0.00217 0.7649 0.0
O153 O 0.11312 0.01854 0.72493 0.0
C154 C 0.25872 0.82554 0.00474 0.0
O155 O 0.27317 0.82771 0.99091 0.0
Cd156 Cd 0.27274 0.85307 0.96303 0.0
O157 O 0.24244 0.83711 0.00442 0.0
Cd158 Cd 0.22919 0.86702 0.98317 0.0
C159 C 0.22678 0.83882 0.9376 0.0
O160 O 0.26372 0.88394 0.98277 0.0
O161 O 0.24033 0.89969 0.96409 0.0
O162 O 0.21351 0.87662 0.0169 0.0
C163 C 0.25891 0.89974 0.97166 0.0
O164 O 0.24687 0.84039 0.93668 0.0
C165 C 0.19654 0.8836 0.009 0.0
O166 O 0.21683 0.84613 0.95339 0.0
O167 O 0.19458 0.88256 0.989 0.0
C168 C 0.26669 0.33275 0.03033 0.0
O169 O 0.28601 0.33352 0.03596 0.0
Cd170 Cd 0.31256 0.35649 0.02129 0.0
O171 O 0.25975 0.34505 0.01601 0.0
Cd172 Cd 0.27398 0.37412 -0.00652 0.0
C173 C 0.30872 0.34145 0.9694 0.0
O174 O 0.29507 0.38959 0.0215 0.0
O175 O 0.29934 0.40464 0.99123 0.0
O176 O 0.23994 0.39218 -0.00524 0.0
C177 C 0.3036 0.40434 0.01086 0.0
O178 O 0.31998 0.34188 0.98616 0.0
C179 C 0.23827 0.39359 0.97473 0.0
O180 O 0.29128 0.35108 0.96864 0.0
O181 O 0.25298 0.38571 0.96378 0.0
C182 C 0.70734 0.08628 0.0215 0.0
O183 O 0.72165 0.09306 0.03414 0.0
Cd184 Cd 0.74612 0.12197 0.02831 0.0
O185 O 0.70451 0.09499 0.00352 0.0
Cd186 Cd 0.72014 0.12518 0.98357 0.0
C187 C 0.7698 0.10465 0.98317 0.0
O188 O 0.72365 0.14821 0.01398 0.0
O189 O 0.73563 0.16128 0.98482 0.0
O190 O 0.68636 0.13377 0.96732 0.0
C191 C 0.73213 0.16373 0.00441 0.0
O192 O 0.77197 0.10903 0.00277 0.0
C193 C 0.6933 0.1331 0.94844 0.0
O194 O 0.75251 0.10815 0.97356 0.0
O195 O 0.71239 0.12772 0.94604 0.0
C196 C 0.13815 0.51762 0.23267 0.0
O197 O 0.12938 0.50498 0.21949 0.0
Cd198 Cd 0.10333 0.47838 0.22765 0.0
O199 O 0.13264 0.51764 0.25209 0.0
Cd200 Cd 0.10576 0.49893 0.27419 0.0
C201 C 0.12955 0.45204 0.26672 0.0
O202 O 0.07754 0.4961 0.24833 0.0
O203 O 0.07363 0.47663 0.27602 0.0
O204 O 0.09755 0.53136 0.293 0.0
C205 C 0.06606 0.48317 0.25868 0.0
O206 O 0.12211 0.45141 0.24794 0.0
C207 C 0.09947 0.52342 0.31138 0.0
O208 O 0.12677 0.468 0.27864 0.0
O209 O 0.10529 0.50432 0.31238 0.0
C210 C 0.75279 0.83882 0.54093 0.0
O211 O 0.77239 0.8405 0.5453 0.0
Cd212 Cd 0.79678 0.86214 0.52556 0.0
O213 O 0.74484 0.84917 0.52564 0.0
Cd214 Cd 0.75607 0.87542 0.49893 0.0
C215 C 0.78912 0.84129 0.47583 0.0
O216 O 0.77917 0.89492 0.52258 0.0
O217 O 0.78192 0.90407 0.48988 0.0
O218 O 0.72222 0.89256 0.50387 0.0
C219 C 0.78733 0.90724 0.509 0.0
O220 O 0.80189 0.845 0.4911 0.0
C221 C 0.71789 0.89354 0.48424 0.0
O222 O 0.7707 0.84902 0.47565 0.0
O223 O 0.73122 0.88577 0.47154 0.0
C224 C 0.90131 0.00106 0.20991 0.0
O225 O 0.89869 0.98138 0.20626 0.0
Cd226 Cd 0.87176 0.95869 0.22099 0.0
O227 O 0.88947 0.01066 0.22296 0.0
Cd228 Cd 0.85998 0.00125 0.24686 0.0
C229 C 0.88701 0.963 0.27258 0.0
O230 O 0.84147 0.98027 0.22098 0.0
O231 O 0.82777 0.97862 0.2521 0.0
O232 O 0.84322 0.03571 0.24391 0.0
C233 C 0.82676 0.97335 0.23272 0.0
O234 O 0.88358 0.95067 0.25691 0.0
C235 C 0.84425 0.03961 0.26365 0.0
O236 O 0.88158 0.98226 0.27202 0.0
O237 O 0.85315 0.02597 0.27522 0.0
C238 C 0.2009 0.59164 0.52507 0.0
O239 O 0.21331 0.59723 0.54003 0.0
Cd240 Cd 0.24067 0.62409 0.5389 0.0
O241 O 0.20169 0.60086 0.50712 0.0
Cd242 Cd 0.22228 0.63058 0.4913 0.0
C243 C 0.26935 0.60616 0.49695 0.0
O244 O 0.22428 0.65345 0.52243 0.0
O245 O 0.24308 0.66308 0.49559 0.0
O246 O 0.19189 0.64289 0.47125 0.0
C247 C 0.23689 0.66693 0.51423 0.0
O248 O 0.26903 0.61018 0.51674 0.0
C249 C 0.20147 0.64312 0.45356 0.0
O250 O 0.25381 0.61071 0.48508 0.0
O251 O 0.22031 0.63651 0.45341 0.0
C252 C 0.3977 0.49357 0.71028 0.0
O253 O 0.39631 0.47403 0.70554 0.0
Cd254 Cd 0.37257 0.44894 0.72165 0.0
O255 O 0.3858 0.5015 0.72439 0.0
Cd256 Cd 0.35676 0.48987 0.74812 0.0
C257 C 0.38806 0.45485 0.77351 0.0
O258 O 0.34037 0.46765 0.72181 0.0
O259 O 0.32594 0.46506 0.75257 0.0
O260 O 0.33813 0.52306 0.74349 0.0
C261 C 0.32582 0.45977 0.73317 0.0
O262 O 0.38659 0.44287 0.75729 0.0
C263 C 0.33814 0.52774 0.76307 0.0
O264 O 0.37966 0.47298 0.77367 0.0
O265 O 0.34714 0.51499 0.77556 0.0
C266 C 0.65788 0.0267 0.71847 0.0
O267 O 0.65033 0.01267 0.70596 0.0
Cd268 Cd 0.62079 0.98935 0.71273 0.0
O269 O 0.64949 0.02991 0.73651 0.0
Cd270 Cd 0.6187 0.01551 0.75643 0.0
C271 C 0.63751 0.96549 0.75812 0.0
O272 O 0.59427 0.0116 0.72684 0.0
O273 O 0.58395 -0.00238 0.75621 0.0
O274 O 0.60899 0.04983 0.77082 0.0
C275 C 0.57987 0.00188 0.73704 0.0
O276 O 0.63263 0.96331 0.73864 0.0
C277 C 0.61011 0.0441 0.79008 0.0
O278 O 0.63518 0.98311 0.76755 0.0
O279 O 0.61629 0.02542 0.79358 0.0
C280 C 0.81099 0.58803 -0.00062 0.0
O281 O 0.81464 0.58428 0.97996 0.0
Cd282 Cd 0.79116 0.594 0.95195 0.0
O283 O 0.79395 0.59685 0.00505 0.0
Cd284 Cd 0.7617 0.61148 0.98911 0.0
C285 C 0.74661 0.56542 0.96516 0.0
O286 O 0.78186 0.62928 0.96169 0.0
O287 O 0.74817 0.63411 0.96065 0.0
O288 O 0.76254 0.63496 0.01981 0.0
C289 C 0.76635 0.63838 0.95319 0.0
O290 O 0.762 0.56805 0.9524 0.0
C291 C 0.74288 0.63309 0.02369 0.0
O292 O 0.74366 0.57841 0.9802 0.0
O293 O 0.73208 0.62092 0.01162 0.0
C294 C 0.88901 0.4538 0.71264 0.0
O295 O 0.88235 0.44006 0.72582 0.0
Cd296 Cd 0.86358 0.44824 0.75712 0.0
O297 O 0.88502 0.47337 0.71503 0.0
Cd298 Cd 0.86318 0.49504 0.73938 0.0
C299 C 0.89633 0.48609 0.78 0.0
O300 O 0.83538 0.46872 0.7432 0.0
O301 O 0.83405 0.49456 0.76542 0.0
O302 O 0.85111 0.51305 0.70797 0.0
C303 C 0.82525 0.47819 0.75746 0.0
O304 O 0.8889 0.46719 0.78039 0.0
C305 C 0.85263 0.53161 0.71561 0.0
O306 O 0.89017 0.49923 0.76617 0.0
O307 O 0.85999 0.53335 0.73429 0.0
C308 C 0.77488 0.33252 0.52191 0.0
O309 O 0.7878 0.33722 0.50718 0.0
Cd310 Cd 0.78038 0.36145 0.47922 0.0
O311 O 0.75678 0.34097 0.52278 0.0
Cd312 Cd 0.73698 0.36783 0.50309 0.0
C313 C 0.73564 0.33832 0.45836 0.0
O314 O 0.76744 0.39116 0.4986 0.0
O315 O 0.73924 0.40071 0.48226 0.0
O316 O 0.72377 0.37743 0.53767 0.0
C317 C 0.75809 0.40506 0.48789 0.0
O318 O 0.75502 0.34336 0.45543 0.0
C319 C 0.70474 0.37972 0.53175 0.0
O320 O 0.72603 0.34436 0.4749 0.0
O321 O 0.70051 0.37567 0.51246 0.0
C322 C 0.62626 0.44691 0.21876 0.0
O323 O 0.62587 0.43736 0.23645 0.0
Cd324 Cd 0.61854 0.45468 0.26925 0.0
O325 O 0.62167 0.46642 0.21748 0.0
Cd326 Cd 0.60867 0.49519 0.24023 0.0
C327 C 0.65435 0.49656 0.26811 0.0
O328 O 0.58656 0.47261 0.26192 0.0
O329 O 0.58919 0.50497 0.27258 0.0
O330 O 0.58577 0.50417 0.21086 0.0
C331 C 0.58114 0.48661 0.27506 0.0
O332 O 0.64845 0.47911 0.27657 0.0
C333 C 0.5906 0.52378 0.21084 0.0
O334 O 0.64322 0.50513 0.2538 0.0
O335 O 0.60414 0.53014 0.22446 0.0
Fe336 Fe 0.13935 0.09256 0.14156 0.0
Fe337 Fe 0.11709 0.13043 0.12185 0.0
O338 O 0.13496 0.10936 0.11966 0.0
Fe339 Fe 0.14851 0.10492 0.09565 0.0
O340 O 0.13678 0.07863 0.09318 0.0
O341 O 0.14464 0.06899 0.12554 0.0
O342 O 0.11186 0.08407 0.14164 0.0
C343 C 0.0965 0.09646 0.14289 0.0
C344 C 0.17954 0.09864 0.12694 0.0
O345 O 0.09906 0.11619 0.1399 0.0
C346 C 0.15115 0.14806 0.09833 0.0
O347 O 0.1347 0.11287 0.16169 0.0
O348 O 0.13209 0.14224 0.14353 0.0
O349 O 0.17241 0.09501 0.10848 0.0
O350 O 0.1671 0.10035 0.14244 0.0
C351 C 0.1076 0.11603 0.08201 0.0
O352 O 0.13199 0.14825 0.10417 0.0
O353 O 0.16091 0.13093 0.09666 0.0
C354 C 0.13595 0.13285 0.16066 0.0
O355 O 0.10087 0.12014 0.10031 0.0
O356 O 0.12718 0.11416 0.07861 0.0
C357 C 0.13843 0.06438 0.10699 0.0
Fe358 Fe 0.08673 0.84876 0.37659 0.0
Fe359 Fe 0.10317 0.88859 0.35394 0.0
O360 O 0.10674 0.86839 0.3729 0.0
Fe361 Fe 0.13021 0.86767 0.38821 0.0
O362 O 0.13639 0.84158 0.37812 0.0
O363 O 0.10487 0.82783 0.38406 0.0
O364 O 0.08911 0.83979 0.34945 0.0
C365 C 0.08728 0.85169 0.33353 0.0
C366 C 0.09787 0.85757 0.41745 0.0
O367 O 0.08799 0.87167 0.33551 0.0
C368 C 0.12333 0.9102 0.3882 0.0
O369 O 0.06483 0.86599 0.36985 0.0
O370 O 0.07945 0.89761 0.36707 0.0
O371 O 0.11712 0.85686 0.41195 0.0
O372 O 0.08327 0.85677 0.40381 0.0
C373 C 0.1448 0.87995 0.34748 0.0
O374 O 0.11797 0.90893 0.36888 0.0
O375 O 0.12569 0.89374 0.39916 0.0
C376 C 0.06342 0.88591 0.3705 0.0
O377 O 0.12655 0.88103 0.33953 0.0
O378 O 0.14734 0.87854 0.36734 0.0
C379 C 0.12417 0.82564 0.37952 0.0
Fe380 Fe 0.35309 0.90542 0.64247 0.0
Fe381 Fe 0.34314 0.88739 0.59854 0.0
O382 O 0.35745 0.88629 0.62258 0.0
Fe383 Fe 0.37592 0.86618 0.62672 0.0
O384 O 0.36191 0.85667 0.6498 0.0
O385 O 0.35871 0.88774 0.6648 0.0
O386 O 0.32578 0.89691 0.64467 0.0
C387 C 0.31287 0.89643 0.62943 0.0
C388 C 0.39601 0.90299 0.64384 0.0
O389 O 0.31933 0.89863 0.61056 0.0
C390 C 0.38389 0.87528 0.58535 0.0
O391 O 0.34692 0.92672 0.62371 0.0
O392 O 0.35462 0.9131 0.59273 0.0
O393 O 0.39415 0.88297 0.64258 0.0
O394 O 0.38023 0.91462 0.6413 0.0
C395 C 0.34132 0.84507 0.60668 0.0
O396 O 0.36414 0.87612 0.58218 0.0
O397 O 0.39115 0.87436 0.6039 0.0
C398 C 0.35338 0.9289 0.60483 0.0
O399 O 0.33119 0.8617 0.60324 0.0
O400 O 0.36082 0.84596 0.61157 0.0
C401 C 0.35829 0.86773 0.66593 0.0
Fe402 Fe 0.39747 0.13642 0.87297 0.0
Fe403 Fe 0.38555 0.09012 0.8629 0.0
O404 O 0.3809 0.11389 0.87695 0.0
Fe405 Fe 0.3596 0.11508 0.89499 0.0
O406 O 0.3545 0.14328 0.89068 0.0
O407 O 0.37549 0.15224 0.86447 0.0
O408 O 0.40209 0.13094 0.84483 0.0
C409 C 0.39147 0.11964 0.83187 0.0
C410 C 0.3903 0.13629 0.91729 0.0
O411 O 0.38179 0.10307 0.83775 0.0
C412 C 0.37576 0.0741 0.90164 0.0
O413 O 0.42069 0.1223 0.88118 0.0
O414 O 0.4144 0.094 0.86174 0.0
O415 O 0.37733 0.12088 0.91681 0.0
O416 O 0.39564 0.14587 0.90043 0.0
C417 C 0.34086 0.09282 0.86288 0.0
O418 O 0.38947 0.07553 0.88722 0.0
O419 O 0.36089 0.0872 0.90272 0.0
C420 C 0.42687 0.10539 0.87288 0.0
O421 O 0.35751 0.08204 0.86143 0.0
O422 O 0.34054 0.10927 0.87422 0.0
C423 C 0.35942 0.15562 0.87562 0.0
Fe424 Fe 0.58614 0.33597 0.86743 0.0
Fe425 Fe 0.60526 0.37897 0.85479 0.0
O426 O 0.60684 0.35513 0.86928 0.0
Fe427 Fe 0.629 0.35032 0.88566 0.0
O428 O 0.63547 0.32671 0.87077 0.0
O429 O 0.60319 0.31327 0.87146 0.0
O430 O 0.59058 0.33274 0.83935 0.0
C431 C 0.59023 0.34765 0.82609 0.0
C432 C 0.59441 0.33592 0.90982 0.0
O433 O 0.59127 0.36681 0.83213 0.0
C434 C 0.62269 0.39206 0.89437 0.0
O435 O 0.56517 0.35507 0.86289 0.0
O436 O 0.58078 0.38598 0.86773 0.0
O437 O 0.61389 0.33508 0.90535 0.0
O438 O 0.58074 0.33834 0.89547 0.0
C439 C 0.64712 0.37078 0.84992 0.0
O440 O 0.61908 0.3952 0.87486 0.0
O441 O 0.62402 0.37353 0.90159 0.0
C442 C 0.56422 0.37456 0.86734 0.0
O443 O 0.62962 0.37367 0.84089 0.0
O444 O 0.64795 0.36501 0.86908 0.0
C445 C 0.62275 0.31131 0.86795 0.0
Fe446 Fe 0.83861 0.38609 0.10237 0.0
Fe447 Fe 0.84717 0.39701 0.14879 0.0
O448 O 0.85061 0.37995 0.12687 0.0
Fe449 Fe 0.86598 0.35707 0.12962 0.0
O450 O 0.88388 0.36539 0.10876 0.0
O451 O 0.85942 0.37474 0.08606 0.0
O452 O 0.85323 0.41098 0.10099 0.0
C453 C 0.85253 0.42518 0.11498 0.0
C454 C 0.83121 0.34341 0.10414 0.0
O455 O 0.84459 0.42111 0.13292 0.0
C456 C 0.84661 0.35645 0.16791 0.0
O457 O 0.81535 0.39822 0.11446 0.0
O458 O 0.81899 0.39175 0.14849 0.0
O459 O 0.84973 0.3409 0.11135 0.0
O460 O 0.82354 0.36156 0.10216 0.0
C461 C 0.88914 0.38895 0.15181 0.0
O462 O 0.84943 0.3763 0.16898 0.0
O463 O 0.84915 0.34696 0.1506 0.0
C464 C 0.80733 0.39466 0.13254 0.0
O465 O 0.87518 0.40282 0.14989 0.0
O466 O 0.88491 0.3695 0.1484 0.0
C467 C 0.87833 0.37 0.09018 0.0
Fe468 Fe 0.85615 0.62465 0.38838 0.0
Fe469 Fe 0.89737 0.64164 0.36879 0.0
O470 O 0.87835 0.621 0.37187 0.0
Fe471 Fe 0.88184 0.59678 0.35834 0.0
O472 O 0.85709 0.59944 0.34421 0.0
O473 O 0.8381 0.60841 0.37193 0.0
O474 O 0.84762 0.64738 0.37325 0.0
C475 C 0.85892 0.66378 0.3704 0.0
C476 C 0.86525 0.58369 0.39801 0.0
O477 O 0.87878 0.66311 0.37252 0.0
C478 C 0.92221 0.60543 0.37129 0.0
O479 O 0.87061 0.64142 0.40766 0.0
O480 O 0.90371 0.64115 0.39675 0.0
O481 O 0.86921 0.58034 0.37868 0.0
O482 O 0.86284 0.60224 0.40483 0.0
C483 C 0.89318 0.62765 0.32821 0.0
O484 O 0.91972 0.62408 0.36463 0.0
O485 O 0.90674 0.59255 0.37193 0.0
C486 C 0.89031 0.64349 0.41132 0.0
O487 O 0.8917 0.64311 0.34075 0.0
O488 O 0.89491 0.60897 0.33523 0.0
C489 C 0.83936 0.6019 0.35295 0.0
Fe490 Fe 0.86962 0.8647 0.87242 0.0
Fe491 Fe 0.83158 0.88338 0.89511 0.0
O492 O 0.84862 0.88262 0.87297 0.0
Fe493 Fe 0.84454 0.89978 0.85132 0.0
O494 O 0.87027 0.91216 0.85498 0.0
O495 O 0.88742 0.88231 0.8572 0.0
O496 O 0.88133 0.87621 0.89593 0.0
C497 C 0.87199 0.87782 0.91342 0.0
C498 C 0.85568 0.86136 0.83173 0.0
O499 O 0.85199 0.87615 0.9145 0.0
C500 C 0.80417 0.88708 0.86024 0.0
O501 O 0.85549 0.84407 0.88751 0.0
O502 O 0.8233 0.85611 0.89108 0.0
O503 O 0.8545 0.88136 0.83115 0.0
O504 O 0.85912 0.85202 0.84893 0.0
C505 C 0.83774 0.92534 0.88699 0.0
O506 O 0.80809 0.89076 0.87963 0.0
O507 O 0.81868 0.8881 0.84663 0.0
C508 C 0.83577 0.84084 0.88974 0.0
O509 O 0.83918 0.91055 0.90023 0.0
O510 O 0.83399 0.92139 0.86762 0.0
C511 C 0.88739 0.90231 0.85536 0.0
Fe512 Fe 0.89781 0.10254 0.63884 0.0
Fe513 Fe 0.87394 0.12023 0.60079 0.0
O514 O 0.89414 0.12279 0.61998 0.0
Fe515 Fe 0.91067 0.14569 0.62022 0.0
O516 O 0.90189 0.1524 0.64649 0.0
O517 O 0.90652 0.12079 0.66012 0.0
O518 O 0.87124 0.10537 0.64898 0.0
C519 C 0.85472 0.1039 0.63781 0.0
C520 C 0.93875 0.11279 0.62891 0.0
O521 O 0.85577 0.10494 0.61781 0.0
C522 C 0.90836 0.1374 0.57795 0.0
O523 O 0.88963 0.08081 0.62081 0.0
O524 O 0.88555 0.09669 0.59016 0.0
O525 O 0.93406 0.13213 0.63032 0.0
O526 O 0.92455 0.09853 0.62977 0.0
C527 C 0.87028 0.16166 0.61158 0.0
O528 O 0.88855 0.1349 0.58023 0.0
O529 O 0.92024 0.14006 0.59384 0.0
C530 C 0.88914 0.08025 0.60071 0.0
O531 O 0.86125 0.14374 0.61045 0.0
O532 O 0.89024 0.16342 0.61024 0.0
C533 C 0.90286 0.14036 0.66234 0.0
Fe534 Fe 0.62141 0.09014 0.35621 0.0
Fe535 Fe 0.63916 0.10986 0.39705 0.0
O536 O 0.62055 0.10988 0.3761 0.0
Fe537 Fe 0.60117 0.12959 0.375 0.0
O538 O 0.61072 0.13866 0.34957 0.0
O539 O 0.61156 0.10718 0.33486 0.0
O540 O 0.64782 0.09865 0.34862 0.0
C541 C 0.66335 0.09994 0.36116 0.0
C542 C 0.57891 0.09216 0.36279 0.0
O543 O 0.66057 0.09893 0.38101 0.0
C544 C 0.60117 0.1209 0.41734 0.0
O545 O 0.63136 0.06948 0.37394 0.0
O546 O 0.62998 0.08396 0.40553 0.0
O547 O 0.58079 0.11219 0.36295 0.0
O548 O 0.59503 0.08071 0.36273 0.0
C549 C 0.63817 0.15197 0.38769 0.0
O550 O 0.62119 0.12091 0.41678 0.0
O551 O 0.59051 0.12174 0.40047 0.0
C552 C 0.62958 0.06776 0.39386 0.0
O553 O 0.64929 0.13577 0.38974 0.0
O554 O 0.61817 0.15045 0.38673 0.0
C555 C 0.61216 0.12717 0.33335 0.0
Fe556 Fe 0.59788 0.8262 0.11255 0.0
Fe557 Fe 0.63866 0.84771 0.09659 0.0
O558 O 0.61722 0.84676 0.11445 0.0
Fe559 Fe 0.61497 0.86642 0.13412 0.0
O560 O 0.5899 0.87454 0.12341 0.0
O561 O 0.57593 0.84248 0.12192 0.0
O562 O 0.5909 0.83437 0.08612 0.0
C563 C 0.60372 0.83642 0.07098 0.0
C564 C 0.6031 0.82865 0.15527 0.0
O565 O 0.62352 0.83631 0.07424 0.0
C566 C 0.65723 0.85964 0.1359 0.0
O567 O 0.61635 0.80623 0.10278 0.0
O568 O 0.64744 0.82216 0.10536 0.0
O569 O 0.60236 0.84863 0.15359 0.0
O570 O 0.60387 0.81709 0.13901 0.0
C571 C 0.6291 0.88953 0.09837 0.0
O572 O 0.6575 0.85936 0.1158 0.0
O573 O 0.63996 0.85947 0.14581 0.0
C574 C 0.63625 0.80544 0.105 0.0
O575 O 0.63112 0.87341 0.08684 0.0
O576 O 0.62725 0.88771 0.11827 0.0
C577 C 0.57401 0.86241 0.12117 0.0
Fe578 Fe 0.38393 0.65538 0.13551 0.0
Fe579 Fe 0.34938 0.62722 0.11564 0.0
O580 O 0.3686 0.63165 0.13555 0.0
Fe581 Fe 0.37256 0.61237 0.15534 0.0
O582 O 0.39982 0.60948 0.14749 0.0
O583 O 0.4077 0.64348 0.14694 0.0
O584 O 0.39476 0.64935 0.10969 0.0
C585 C 0.38365 0.64563 0.09345 0.0
C586 C 0.37515 0.65127 0.17756 0.0
O587 O 0.36396 0.64188 0.0951 0.0
C588 C 0.32952 0.61115 0.15247 0.0
O589 O 0.36291 0.67157 0.12411 0.0
O590 O 0.33501 0.65032 0.12371 0.0
O591 O 0.37948 0.63178 0.17615 0.0
O592 O 0.37394 0.66262 0.16122 0.0
C593 C 0.36675 0.58818 0.11789 0.0
O594 O 0.33139 0.61164 0.13252 0.0
O595 O 0.34542 0.61404 0.16429 0.0
C596 C 0.34299 0.66875 0.12426 0.0
O597 O 0.36266 0.60393 0.10649 0.0
O598 O 0.36635 0.5896 0.13794 0.0
C599 C 0.41335 0.62436 0.14658 0.0
Fe600 Fe 0.12173 0.58917 0.85119 0.0
Fe601 Fe 0.13842 0.61264 0.89065 0.0
O602 O 0.11871 0.60882 0.87091 0.0
Fe603 Fe 0.09606 0.62491 0.87078 0.0
O604 O 0.09281 0.62471 0.84196 0.0
O605 O 0.12092 0.60869 0.83018 0.0
O606 O 0.15064 0.59194 0.84995 0.0
C607 C 0.16295 0.607 0.85561 0.0
C608 C 0.07828 0.58624 0.86176 0.0
O609 O 0.15848 0.61875 0.87105 0.0
C610 C 0.10275 0.61668 0.91431 0.0
O611 O 0.12288 0.56835 0.87089 0.0
O612 O 0.14588 0.58477 0.89163 0.0
O613 O 0.0785 0.60216 0.87385 0.0
O614 O 0.09334 0.58295 0.84902 0.0
C615 C 0.12733 0.6541 0.87963 0.0
O616 O 0.11971 0.60685 0.91165 0.0
O617 O 0.09515 0.62795 0.89966 0.0
C618 C 0.13601 0.56806 0.88594 0.0
O619 O 0.13455 0.64121 0.89304 0.0
O620 O 0.11231 0.64867 0.86749 0.0
C621 C 0.10628 0.62168 0.82754 0.0
Fe622 Fe 0.12877 0.35323 0.59099 0.0
Fe623 Fe 0.0886 0.33281 0.60974 0.0
O624 O 0.10813 0.35325 0.60984 0.0
Fe625 Fe 0.10696 0.37366 0.62892 0.0
O626 O 0.13237 0.36678 0.63963 0.0
O627 O 0.1487 0.36515 0.60898 0.0
O628 O 0.13764 0.32776 0.60012 0.0
C629 C 0.12622 0.31123 0.60118 0.0
C630 C 0.11977 0.39528 0.59178 0.0
O631 O 0.10627 0.31227 0.59996 0.0
C632 C 0.06539 0.36959 0.61822 0.0
O633 O 0.11236 0.34136 0.56975 0.0
O634 O 0.08035 0.33978 0.58334 0.0
O635 O 0.11868 0.39416 0.61177 0.0
O636 O 0.12122 0.37876 0.58072 0.0
C637 C 0.09609 0.33695 0.65205 0.0
O638 O 0.06731 0.34969 0.61941 0.0
O639 O 0.08143 0.38171 0.61925 0.0
C640 C 0.09239 0.34097 0.56749 0.0
O641 O 0.09589 0.32476 0.63623 0.0
O642 O 0.09514 0.35682 0.64962 0.0
C643 C 0.14921 0.36605 0.62907 0.0
Fe644 Fe 0.64725 0.61091 0.60288 0.0
Fe645 Fe 0.62967 0.59509 0.64528 0.0
O646 O 0.6283 0.61256 0.62341 0.0
Fe647 Fe 0.60814 0.63163 0.62203 0.0
O648 O 0.59831 0.62094 0.59705 0.0
O649 O 0.62938 0.61926 0.58184 0.0
O650 O 0.63916 0.58389 0.59688 0.0
C651 C 0.63858 0.56912 0.61029 0.0
C652 C 0.64477 0.65371 0.60788 0.0
O653 O 0.64001 0.57301 0.62992 0.0
C654 C 0.61861 0.63387 0.66413 0.0
O655 O 0.66879 0.60245 0.62012 0.0
O656 O 0.65593 0.60488 0.65227 0.0
O657 O 0.62479 0.65176 0.60881 0.0
O658 O 0.65636 0.63772 0.60773 0.0
C659 C 0.58702 0.59509 0.63815 0.0
O660 O 0.61947 0.6139 0.6645 0.0
O661 O 0.61642 0.64368 0.6469 0.0
C662 C 0.67142 0.60549 0.63975 0.0
O663 O 0.60352 0.58432 0.63984 0.0
O664 O 0.58808 0.6149 0.63511 0.0
C665 C 0.60942 0.61865 0.58067 0.0
Fe666 Fe 0.37323 0.37605 0.37929 0.0
Fe667 Fe 0.35679 0.4158 0.35768 0.0
O668 O 0.35497 0.39675 0.3781 0.0
Fe669 Fe 0.33484 0.39849 0.39733 0.0
O670 O 0.32388 0.37299 0.38986 0.0
O671 O 0.35421 0.35659 0.39037 0.0
O672 O 0.36513 0.36646 0.35358 0.0
C673 C 0.36537 0.37738 0.33694 0.0
C674 C 0.37054 0.38648 0.42102 0.0
O675 O 0.36726 0.39739 0.33786 0.0
C676 C 0.34773 0.43968 0.39384 0.0
O677 O 0.39538 0.39192 0.36835 0.0
O678 O 0.38289 0.42409 0.36633 0.0
O679 O 0.35062 0.38719 0.41888 0.0
O680 O 0.38229 0.38451 0.4051 0.0
C681 C 0.3144 0.40758 0.35915 0.0
O682 O 0.34662 0.43762 0.37389 0.0
O683 O 0.34497 0.42397 0.40581 0.0
C684 C 0.39827 0.41185 0.36826 0.0
O685 O 0.33091 0.40818 0.34806 0.0
O686 O 0.31545 0.41 0.37907 0.0
C687 C 0.33414 0.35612 0.38946 0.0
C688 C 0.06106 0.19724 0.31 0.0
C689 C 0.05738 0.21879 0.31364 0.0
C690 C 0.07802 0.19112 0.29742 0.0
C691 C 0.11988 0.18301 0.27458 0.0
H692 H 0.11207 0.20619 0.21833 0.0
C693 C 0.14064 0.16734 0.18003 0.0
C694 C 0.13769 0.14524 0.18049 0.0
C695 C 0.13902 0.17923 0.19865 0.0
C696 C 0.11513 0.19992 0.23397 0.0
H697 H 0.06913 0.2508 0.30795 0.0
H698 H 0.09843 0.24002 0.28537 0.0
H699 H 0.09427 0.22203 0.24821 0.0
H700 H 0.13231 0.11813 0.20102 0.0
H701 H 0.12851 0.13869 0.23302 0.0
H702 H 0.1404 0.16059 0.26035 0.0
C703 C 0.08832 0.22795 0.29247 0.0
C704 C 0.10479 0.209 0.25112 0.0
C705 C 0.07157 0.23406 0.30536 0.0
C706 C 0.13455 0.13516 0.20008 0.0
C707 C 0.13259 0.14702 0.21857 0.0
C708 C 0.13057 0.17414 0.25748 0.0
C709 C 0.09138 0.20645 0.28803 0.0
C710 C 0.10631 0.20002 0.27137 0.0
C711 C 0.13406 0.16927 0.21801 0.0
C712 C 0.12744 0.1818 0.23678 0.0
H713 H 0.05045 0.18514 0.3163 0.0
H714 H 0.07992 0.17444 0.29402 0.0
H715 H 0.12145 0.17599 0.29015 0.0
H716 H 0.14347 0.17553 0.1652 0.0
H717 H 0.14078 0.19629 0.19769 0.0
C718 C 0.02293 0.83972 0.59312 0.0
C719 C 0.0256 0.81818 0.59768 0.0
C720 C 0.03563 0.84983 0.57799 0.0
C721 C 0.04871 0.85959 0.53337 0.0
H722 H 0.10372 0.84 0.51589 0.0
C723 C 0.07124 0.85453 0.44646 0.0
C724 C 0.09234 0.85779 0.44016 0.0
C725 C 0.0659 0.85457 0.46785 0.0
C726 C 0.08854 0.84603 0.52067 0.0
H727 H 0.04461 0.79072 0.59119 0.0
H728 H 0.06603 0.80792 0.5642 0.0
H729 H 0.09121 0.83251 0.55159 0.0
H730 H 0.12434 0.86426 0.45133 0.0
H731 H 0.11491 0.86458 0.48883 0.0
H732 H 0.04605 0.87316 0.50254 0.0
C733 C 0.05459 0.81731 0.57256 0.0
C734 C 0.08125 0.8415 0.54108 0.0
C735 C 0.04215 0.80734 0.58796 0.0
C736 C 0.10796 0.86147 0.45572 0.0
C737 C 0.10257 0.86165 0.47719 0.0
C738 C 0.05612 0.86436 0.51313 0.0
C739 C 0.05094 0.83846 0.5668 0.0
C740 C 0.06083 0.84738 0.54733 0.0
C741 C 0.08148 0.8581 0.48349 0.0
C742 C 0.07566 0.85676 0.50621 0.0
H743 H 0.01052 0.84857 0.60068 0.0
H744 H 0.03278 0.86628 0.57438 0.0
H745 H 0.03286 0.86434 0.53746 0.0
H746 H 0.05883 0.85162 0.43489 0.0
H747 H 0.04958 0.85127 0.47212 0.0
C748 C 0.42511 0.7707 0.81585 0.0
C749 C 0.44704 0.77397 0.81342 0.0
C750 C 0.41087 0.78187 0.80343 0.0
C751 C 0.40724 0.82939 0.76967 0.0
H752 H 0.36011 0.79893 0.74348 0.0
C753 C 0.35926 0.86942 0.70555 0.0
C754 C 0.35831 0.85731 0.68685 0.0
C755 C 0.36395 0.85982 0.72487 0.0
C756 C 0.3731 0.80769 0.75081 0.0
H757 H 0.4713 0.79125 0.79599 0.0
H758 H 0.44646 0.81043 0.77392 0.0
H759 H 0.38226 0.78099 0.76924 0.0
H760 H 0.3591 0.82537 0.67412 0.0
H761 H 0.36773 0.80881 0.70754 0.0
H762 H 0.39906 0.85561 0.75027 0.0
C763 C 0.44025 0.79959 0.78576 0.0
C764 C 0.3857 0.79747 0.76567 0.0
C765 C 0.45449 0.78847 0.79824 0.0
C766 C 0.36005 0.8352 0.68819 0.0
C767 C 0.36481 0.82565 0.70745 0.0
C768 C 0.39473 0.83956 0.75476 0.0
C769 C 0.4183 0.79648 0.7883 0.0
C770 C 0.40331 0.80803 0.77472 0.0
C771 C 0.36778 0.83799 0.7258 0.0
C772 C 0.37794 0.82861 0.74466 0.0
H773 H 0.4189 0.75968 0.82752 0.0
H774 H 0.39406 0.77925 0.80584 0.0
H775 H 0.42045 0.83806 0.77673 0.0
H776 H 0.35766 0.88645 0.7051 0.0
H777 H 0.3657 0.86966 0.73886 0.0
C778 C 0.45498 0.21049 0.08472 0.0
C779 C 0.44466 0.22901 0.09093 0.0
C780 C 0.44748 0.19858 0.06752 0.0
C781 C 0.42351 0.17174 0.03491 0.0
H782 H 0.40828 0.20533 0.98598 0.0
C783 C 0.38987 0.13585 0.95698 0.0
C784 C 0.39728 0.1449 0.93797 0.0
C785 C 0.39541 0.14489 0.97647 0.0
C786 C 0.41262 0.19574 -0.00053 0.0
H787 H 0.4176 0.24877 0.08486 0.0
H788 H 0.40439 0.22782 0.05505 0.0
H789 H 0.41734 0.22293 0.01916 0.0
H790 H 0.41704 0.16999 0.92458 0.0
H791 H 0.42683 0.18559 0.95857 0.0
H792 H 0.41932 0.14454 0.01488 0.0
C793 C 0.41854 0.22279 0.06319 0.0
C794 C 0.4175 0.2058 0.01856 0.0
C795 C 0.42607 0.23474 0.08032 0.0
C796 C 0.41088 0.16275 0.9389 0.0
C797 C 0.41641 0.17176 0.95836 0.0
C798 C 0.41859 0.16165 0.01575 0.0
C799 C 0.42949 0.20493 0.05627 0.0
C800 C 0.42311 0.19393 0.03645 0.0
C801 C 0.40847 0.16313 0.97731 0.0
C802 C 0.41329 0.17359 -0.0022 0.0
H803 H 0.46932 0.2056 0.09259 0.0
H804 H 0.45634 0.18497 0.06247 0.0
H805 H 0.42767 0.16219 0.04848 0.0
H806 H 0.37942 0.12204 0.95682 0.0
H807 H 0.38897 0.13797 0.99082 0.0
C808 C -0.00689 0.79716 0.17655 0.0
C809 C 0.00067 0.78112 0.1633 0.0
C810 C 0.00542 0.80488 0.19333 0.0
C811 C 0.04956 0.79051 0.22828 0.0
H812 H 0.04727 0.84986 0.24371 0.0
C813 C 0.07322 0.82187 0.31102 0.0
C814 C 0.08182 0.84248 0.31269 0.0
C815 C 0.06645 0.81399 0.2914 0.0
C816 C 0.04843 0.8333 0.23948 0.0
H817 H 0.02733 0.7609 0.157 0.0
H818 H 0.049 0.77468 0.18615 0.0
H819 H 0.02995 0.83756 0.21148 0.0
H820 H 0.09144 0.87047 0.29501 0.0
H821 H 0.08019 0.85654 0.26074 0.0
H822 H 0.06831 0.78634 0.2562 0.0
C823 C 0.03337 0.78101 0.18375 0.0
C824 C 0.03821 0.82619 0.22113 0.0
C825 C 0.02099 0.7732 0.16699 0.0
C826 C 0.0845 0.85465 0.29426 0.0
C827 C 0.07799 0.8467 0.27463 0.0
C828 C 0.05994 0.79765 0.2466 0.0
C829 C 0.02566 0.79686 0.19717 0.0
C830 C 0.03828 0.80465 0.21555 0.0
C831 C 0.0684 0.82648 0.27303 0.0
C832 C 0.05916 0.81907 0.25261 0.0
H833 H 0.9775 0.80355 0.17423 0.0
H834 H -0.00116 0.81681 0.20359 0.0
H835 H 0.04982 0.77378 0.2245 0.0
H836 H 0.07099 0.81211 0.32497 0.0
H837 H 0.05893 0.79844 0.29079 0.0
C838 C 0.48508 0.79839 0.44077 0.0
C839 C 0.47882 0.7769 0.44118 0.0
C840 C 0.47803 0.81229 0.45632 0.0
C841 C 0.44651 0.83814 0.48243 0.0
H842 H 0.44836 0.82227 0.54174 0.0
C843 C 0.39013 0.86829 0.54685 0.0
C844 C 0.39824 0.87132 0.56742 0.0
C845 C 0.40316 0.86109 0.53066 0.0
C846 C 0.44803 0.82711 0.52529 0.0
H847 H 0.46077 0.75297 0.45837 0.0
H848 H 0.44868 0.77726 0.48573 0.0
H849 H 0.46547 0.80015 0.51542 0.0
H850 H 0.42681 0.8711 0.58663 0.0
H851 H 0.44946 0.85844 0.55833 0.0
H852 H 0.42834 0.86472 0.49228 0.0
C853 C 0.459 0.7833 0.47335 0.0
C854 C 0.45763 0.81435 0.51025 0.0
C855 C 0.46583 0.76945 0.45768 0.0
C856 C 0.41998 0.86858 0.57105 0.0
C857 C 0.43297 0.86133 0.55488 0.0
C858 C 0.43666 0.85082 0.49748 0.0
C859 C 0.46487 0.80485 0.47267 0.0
C860 C 0.45663 0.81955 0.48868 0.0
C861 C 0.4245 0.85681 0.53476 0.0
C862 C 0.43707 0.84521 0.519 0.0
H863 H 0.49507 0.80456 0.42821 0.0
H864 H 0.48282 0.82884 0.45558 0.0
H865 H 0.44546 0.84238 0.46584 0.0
H866 H 0.37349 0.87043 0.54349 0.0
H867 H 0.39622 0.85763 0.51529 0.0
C868 C 0.4209 0.18811 0.65614 0.0
C869 C 0.41718 0.20986 0.65834 0.0
C870 C 0.41265 0.17367 0.67085 0.0
C871 C 0.37664 0.16943 0.71782 0.0
H872 H 0.41846 0.12988 0.73767 0.0
C873 C 0.39199 0.14739 0.80408 0.0
C874 C 0.39073 0.12586 0.80946 0.0
C875 C 0.39072 0.15358 0.78296 0.0
C876 C 0.40645 0.14051 0.732 0.0
H877 H 0.40115 0.23346 0.67709 0.0
H878 H 0.38762 0.20861 0.70311 0.0
H879 H 0.42407 0.1483 0.70423 0.0
H880 H 0.38715 0.09388 0.7972 0.0
H881 H 0.38597 0.10485 0.75985 0.0
H882 H 0.36017 0.16296 0.74683 0.0
C883 C 0.39633 0.20244 0.68979 0.0
C884 C 0.40957 0.15103 0.71281 0.0
C885 C 0.4043 0.21679 0.67494 0.0
C886 C 0.38819 0.11058 0.79338 0.0
C887 C 0.38745 0.11679 0.77214 0.0
C888 C 0.37378 0.15922 0.73721 0.0
C889 C 0.40079 0.18075 0.68821 0.0
C890 C 0.39512 0.16627 0.70591 0.0
C891 C 0.38859 0.13834 0.76689 0.0
C892 C 0.38903 0.14526 0.74469 0.0
H893 H 0.43054 0.18228 0.6433 0.0
H894 H 0.41607 0.15704 0.66893 0.0
H895 H 0.36491 0.18061 0.71271 0.0
H896 H 0.3937 0.15947 0.81622 0.0
H897 H 0.39186 0.17029 0.77912 0.0
C898 C 0.0185 0.17444 0.92205 0.0
C899 C 0.02883 0.19404 0.91837 0.0
C900 C 0.02539 0.1612 0.93829 0.0
C901 C 0.04861 0.16712 0.98993 0.0
H902 H 0.0613 0.1073 0.98859 0.0
C903 C 0.07305 0.12595 0.06563 0.0
C904 C 0.09313 0.11699 0.06366 0.0
C905 C 0.06118 0.13047 0.04757 0.0
C906 C 0.05755 0.12396 0.98916 0.0
H907 H 0.05551 0.21426 0.9275 0.0
H908 H 0.06736 0.1912 0.95587 0.0
H909 H 0.05044 0.12523 0.95586 0.0
H910 H 0.11543 0.10357 0.04151 0.0
H911 H 0.0948 0.11165 0.01007 0.0
H912 H 0.0561 0.16626 0.02287 0.0
C913 C 0.05385 0.18624 0.94635 0.0
C914 C 0.05138 0.13415 0.97052 0.0
C915 C 0.0471 0.19936 0.93006 0.0
C916 C 0.10017 0.11083 0.0435 0.0
C917 C 0.08825 0.11524 0.02548 0.0
C918 C 0.05447 0.15696 0.0085 0.0
C919 C 0.04256 0.16749 0.9511 0.0
C920 C 0.04746 0.15594 0.97073 0.0
C921 C 0.06911 0.12596 0.0273 0.0
C922 C 0.05946 0.13539 0.00825 0.0
H923 H 0.00442 0.16988 0.9132 0.0
H924 H 0.01652 0.14675 0.94169 0.0
H925 H 0.04533 0.18389 0.99049 0.0
H926 H 0.06707 0.13064 0.08097 0.0
H927 H 0.0463 0.13851 0.04938 0.0
C928 C 0.34945 0.03729 0.17284 0.0
C929 C 0.34956 0.03939 0.19498 0.0
C930 C 0.33763 0.05098 0.16038 0.0
C931 C 0.30066 0.09694 0.16341 0.0
H932 H 0.26748 0.06137 0.1252 0.0
C933 C 0.21112 0.10291 0.15076 0.0
C934 C 0.20264 0.0987 0.13055 0.0
C935 C 0.23288 0.10169 0.15432 0.0
C936 C 0.27681 0.07175 0.13541 0.0
H937 H 0.33921 0.0586 0.22133 0.0
H938 H 0.31777 0.08168 0.19992 0.0
H939 H 0.3007 0.04879 0.1387 0.0
H940 H 0.2105 0.0912 0.09793 0.0
H941 H 0.24841 0.08875 0.1043 0.0
H942 H 0.27547 0.11912 0.16127 0.0
C943 C 0.3271 0.06994 0.1919 0.0
C944 C 0.29603 0.06458 0.14313 0.0
C945 C 0.33929 0.05655 0.20428 0.0
C946 C 0.21647 0.09424 0.11377 0.0
C947 C 0.23819 0.09291 0.11736 0.0
C948 C 0.28121 0.10398 0.15589 0.0
C949 C 0.32524 0.06663 0.1699 0.0
C950 C 0.30782 0.07669 0.15791 0.0
C951 C 0.24653 0.09617 0.13775 0.0
C952 C 0.26879 0.09108 0.14242 0.0
H953 H 0.3576 0.02441 0.16524 0.0
H954 H 0.33714 0.04842 0.14342 0.0
H955 H 0.30955 0.1069 0.17437 0.0
H956 H 0.20092 0.10664 0.16397 0.0
H957 H 0.23887 0.10404 0.17027 0.0
C958 C 0.22653 0.06921 0.42981 0.0
C959 C 0.22973 0.07343 0.45143 0.0
C960 C 0.21284 0.05282 0.42337 0.0
C961 C 0.17015 0.01616 0.44281 0.0
H962 H 0.18596 0.98385 0.39322 0.0
C963 C 0.13594 0.93324 0.4183 0.0
C964 C 0.13065 0.93089 0.39675 0.0
C965 C 0.14551 0.95203 0.42564 0.0
C966 C 0.18126 -0.00712 0.40698 0.0
H967 H 0.22117 0.06382 0.4833 0.0
H968 H 0.198 0.03461 0.47212 0.0
H969 H 0.2083 0.01346 0.40472 0.0
H970 H 0.13016 0.94685 0.36628 0.0
H971 H 0.14714 0.97937 0.37909 0.0
H972 H 0.1435 -0.00532 0.44537 0.0
C973 C 0.20551 0.04433 0.46007 0.0
C974 C 0.19399 0.00993 0.41354 0.0
C975 C 0.21893 0.06098 0.4665 0.0
C976 C 0.13412 0.94807 0.38295 0.0
C977 C 0.1439 0.96667 0.39023 0.0
C978 C 0.15758 -0.00118 0.43641 0.0
C979 C 0.20233 0.04 0.43841 0.0
C980 C 0.18857 0.02188 0.43148 0.0
C981 C 0.15013 0.96861 0.4115 0.0
C982 C 0.16301 0.98714 0.41837 0.0
H983 H 0.23443 0.07874 0.41783 0.0
H984 H 0.21042 0.05031 0.40655 0.0
H985 H 0.1653 0.02517 0.45651 0.0
H986 H 0.13333 0.92035 0.42935 0.0
H987 H 0.15022 0.9532 0.44213 0.0
C988 C 0.15808 0.90728 0.72337 0.0
C989 C 0.14379 0.92301 0.71768 0.0
C990 C 0.17075 0.89799 0.70799 0.0
C991 C 0.19438 0.91378 0.65759 0.0
H992 H 0.22303 0.86053 0.66457 0.0
C993 C 0.27481 0.89913 0.61858 0.0
C994 C 0.29007 0.89413 0.63392 0.0
C995 C 0.25326 0.8975 0.62341 0.0
C996 C 0.21497 0.87533 0.66223 0.0
H997 H 0.12969 0.93962 0.69128 0.0
H998 H 0.15133 0.92294 0.66435 0.0
H999 H 0.18956 0.86617 0.68282 0.0
H1000 H 0.29479 0.88233 0.66584 0.0
H1001 H 0.25735 0.8796 0.67424 0.0
H1002 H 0.22022 0.92327 0.63779 0.0
C1003 C 0.15335 0.91831 0.68074 0.0
C1004 C 0.19589 0.87861 0.67273 0.0
C1005 C 0.14093 0.92783 0.69615 0.0
C1006 C 0.28341 0.8866 0.65379 0.0
C1007 C 0.26195 0.88472 0.6585 0.0
C1008 C 0.21332 0.91041 0.64696 0.0
C1009 C 0.16913 0.90407 0.6866 0.0
C1010 C 0.18595 0.89829 0.67138 0.0
C1011 C 0.24668 0.89048 0.64351 0.0
C1012 C 0.22429 0.89159 0.65003 0.0
H1013 H 0.16056 0.90319 0.73985 0.0
H1014 H 0.18284 0.88723 0.71317 0.0
H1015 H 0.18735 0.92922 0.6563 0.0
H1016 H 0.27951 0.9048 0.60307 0.0
H1017 H 0.24174 0.90206 0.61161 0.0
C1018 C 0.27111 0.93095 0.95032 0.0
C1019 C 0.27495 0.91607 0.9663 0.0
C1020 C 0.28674 0.94588 0.94487 0.0
C1021 C 0.33282 0.97451 0.96565 0.0
H1022 H 0.34385 0.98619 0.90634 0.0
C1023 C 0.36126 0.05414 0.93244 0.0
C1024 C 0.37391 0.05451 0.91418 0.0
C1025 C 0.35516 0.03493 0.94161 0.0
C1026 C 0.34131 0.98284 0.92298 0.0
H1027 H 0.29792 0.90529 0.98936 0.0
H1028 H 0.32507 0.93165 0.97996 0.0
H1029 H 0.32005 0.95694 0.91599 0.0
H1030 H 0.39184 0.03526 0.8924 0.0
H1031 H 0.38094 0.00156 0.90837 0.0
H1032 H 0.35346 0.00098 0.97258 0.0
C1033 C 0.31006 0.93164 0.97162 0.0
C1034 C 0.32747 0.9663 0.92847 0.0
C1035 C 0.29454 0.91658 0.97691 0.0
C1036 C 0.38198 0.03544 0.90642 0.0
C1037 C 0.37568 0.01616 0.91547 0.0
C1038 C 0.34654 0.99121 0.96015 0.0
C1039 C 0.30635 0.94632 0.95545 0.0
C1040 C 0.3227 0.96235 0.94981 0.0
C1041 C 0.36148 0.01574 0.93257 0.0
C1042 C 0.3505 -0.00418 0.93874 0.0
H1043 H 0.2562 0.93092 0.94192 0.0
H1044 H 0.2834 0.95725 0.93253 0.0
H1045 H 0.32937 0.97176 0.98223 0.0
H1046 H 0.35502 0.06865 0.93888 0.0
H1047 H 0.34413 0.03508 0.95472 0.0
C1048 C 0.29417 0.96861 0.26909 0.0
C1049 C 0.30954 0.95738 0.25795 0.0
C1050 C 0.27569 0.95832 0.27599 0.0
C1051 C 0.25483 0.90573 0.29003 0.0
H1052 H 0.20053 0.93314 0.28708 0.0
C1053 C 0.18394 0.88289 0.34257 0.0
C1054 C 0.16347 0.88385 0.33392 0.0
C1055 C 0.2015 0.88914 0.33064 0.0
C1056 C 0.21552 0.92514 0.28773 0.0
H1057 H 0.31755 0.9267 0.245 0.0
H1058 H 0.28526 0.9088 0.25704 0.0
H1059 H 0.23153 0.95014 0.27099 0.0
H1060 H 0.14549 0.89093 0.30551 0.0
H1061 H 0.17628 0.90184 0.28467 0.0
H1062 H 0.23885 0.88083 0.30697 0.0
C1063 C 0.28757 0.92548 0.26058 0.0
C1064 C 0.23329 0.93499 0.27876 0.0
C1065 C 0.30601 0.93576 0.25363 0.0
C1066 C 0.16103 0.89015 0.3127 0.0
C1067 C 0.17863 0.8965 0.30079 0.0
C1068 C 0.23707 0.89591 0.29907 0.0
C1069 C 0.27229 0.93663 0.27192 0.0
C1070 C 0.25317 0.92553 0.2801 0.0
C1071 C 0.19897 0.8965 0.30982 0.0
C1072 C 0.21731 0.90567 0.29828 0.0
H1073 H 0.29647 0.98529 0.27262 0.0
H1074 H 0.26427 0.96725 0.28493 0.0
H1075 H 0.26998 0.89813 0.29142 0.0
H1076 H 0.18637 0.87798 0.35882 0.0
H1077 H 0.21697 0.88913 0.33807 0.0
C1078 C 0.34165 0.08517 0.50005 0.0
C1079 C 0.32372 0.0945 0.50896 0.0
C1080 C 0.35393 0.07149 0.51204 0.0
C1081 C 0.36157 0.0489 0.56597 0.0
H1082 H 0.3621 -0.00423 0.53516 0.0
C1083 C 0.34949 0.9682 0.60569 0.0
C1084 C 0.35796 0.95014 0.59624 0.0
C1085 C 0.35272 0.9881 0.5965 0.0
C1086 C 0.36271 0.01049 0.54399 0.0
H1087 H 0.30591 0.09855 0.53802 0.0
H1088 H 0.32701 0.0744 0.55873 0.0
H1089 H 0.35569 0.02823 0.51626 0.0
H1090 H 0.37796 0.9388 0.57092 0.0
H1091 H 0.38406 0.97354 0.55519 0.0
H1092 H 0.36766 0.0308 0.59392 0.0
C1093 C 0.33171 0.0777 0.54256 0.0
C1094 C 0.35903 0.02919 0.53308 0.0
C1095 C 0.31945 0.09138 0.53059 0.0
C1096 C 0.3708 0.95244 0.57824 0.0
C1097 C 0.37432 0.97233 0.56925 0.0
C1098 C 0.3654 0.03014 0.57691 0.0
C1099 C 0.34849 0.06691 0.53314 0.0
C1100 C 0.35756 0.04846 0.54406 0.0
C1101 C 0.36477 0.9903 0.57787 0.0
C1102 C 0.36514 0.01062 0.56613 0.0
H1103 H 0.34558 0.08752 0.48351 0.0
H1104 H 0.36699 0.06361 0.50449 0.0
H1105 H 0.36078 0.0636 0.57478 0.0
H1106 H 0.33964 0.96688 0.61967 0.0
H1107 H 0.3449 0.00154 0.60342 0.0
C1108 C 0.17906 0.02082 0.7807 0.0
C1109 C 0.16999 0.00344 0.7915 0.0
C1110 C 0.1967 0.03159 0.78903 0.0
C1111 C 0.24147 0.02396 0.82515 0.0
H1112 H 0.24788 0.08506 0.82121 0.0
C1113 C 0.30152 0.09401 0.85769 0.0
C1114 C 0.32095 0.08437 0.85354 0.0
C1115 C 0.28262 0.08503 0.85002 0.0
C1116 C 0.24624 0.068 0.82256 0.0
H1117 H 0.17203 0.98408 0.8198 0.0
H1118 H 0.20271 0.00303 0.8344 0.0
H1119 H 0.21509 0.06776 0.8091 0.0
H1120 H 0.33582 0.05824 0.83732 0.0
H1121 H 0.30294 0.04279 0.82378 0.0
H1122 H 0.27242 0.02417 0.83885 0.0
C1123 C 0.19635 0.0081 0.81933 0.0
C1124 C 0.22757 0.05809 0.81545 0.0
C1125 C 0.17872 -0.00269 0.811 0.0
C1126 C 0.32112 0.06596 0.84101 0.0
C1127 C 0.30227 0.05702 0.83334 0.0
C1128 C 0.2601 0.03386 0.83224 0.0
C1129 C 0.20564 0.02524 0.80834 0.0
C1130 C 0.22505 0.03595 0.81658 0.0
C1131 C 0.28279 0.06626 0.83804 0.0
C1132 C 0.26275 0.05596 0.83087 0.0
H1133 H 0.17273 0.02597 0.76564 0.0
H1134 H 0.20365 0.04457 0.78006 0.0
H1135 H 0.24011 0.00686 0.82603 0.0
H1136 H 0.30084 0.10823 0.86727 0.0
H1137 H 0.26783 0.09244 0.85399 0.0
C1138 C 0.16673 0.90853 0.01314 0.0
C1139 C 0.18092 0.89438 0.0223 0.0
C1140 C 0.15495 0.92195 0.02592 0.0
C1141 C 0.16118 0.94739 0.07767 0.0
H1142 H 0.10996 0.97559 0.06053 0.0
C1143 C 0.13888 0.02578 0.11578 0.0
C1144 C 0.13571 0.0419 0.10083 0.0
C1145 C 0.13825 0.00456 0.10959 0.0
C1146 C 0.12419 0.96774 0.06559 0.0
H1147 H 0.1922 0.88136 0.05192 0.0
H1148 H 0.17107 0.90424 0.07428 0.0
H1149 H 0.11933 0.94219 0.04367 0.0
H1150 H 0.12788 0.04833 0.06798 0.0
H1151 H 0.12715 0.0113 0.05713 0.0
H1152 H 0.1665 0.97321 0.09897 0.0
C1153 C 0.1696 0.90559 0.05724 0.0
C1154 C 0.12959 0.94866 0.05593 0.0
C1155 C 0.18164 0.89243 0.04444 0.0
C1156 C 0.13064 0.0363 0.07984 0.0
C1157 C 0.12998 0.01506 0.07366 0.0
C1158 C 0.1557 0.9663 0.0874 0.0
C1159 C 0.15694 0.92124 0.04812 0.0
C1160 C 0.14859 0.9387 0.0613 0.0
C1161 C 0.13437 -0.00098 0.08835 0.0
C1162 C 0.13759 0.97707 0.08093 0.0
H1163 H 0.1658 0.91032 -0.00391 0.0
H1164 H 0.14551 0.93387 0.01829 0.0
H1165 H 0.1761 0.94045 0.08202 0.0
H1166 H 0.14249 0.02954 0.13216 0.0
H1167 H 0.14144 -0.00751 0.12129 0.0
C1168 C 0.23361 0.31034 0.02972 0.0
C1169 C 0.25242 0.31674 0.03997 0.0
C1170 C 0.22127 0.29365 0.03783 0.0
C1171 C 0.19348 0.26259 0.06234 0.0
H1172 H 0.22506 0.21522 0.084 0.0
C1173 C 0.15275 0.18765 0.09716 0.0
C1174 C 0.16184 0.16812 0.09224 0.0
C1175 C 0.1631 0.20663 0.09182 0.0
C1176 C 0.216 0.22823 0.07785 0.0
H1177 H 0.27236 0.31172 0.06747 0.0
H1178 H 0.25054 0.28312 0.08196 0.0
H1179 H 0.24386 0.24718 0.07298 0.0
H1180 H 0.18875 0.15315 0.07759 0.0
H1181 H 0.20651 0.18619 0.0678 0.0
H1182 H 0.16567 0.24313 0.06633 0.0
C1183 C 0.24565 0.29044 0.06728 0.0
C1184 C 0.22675 0.24672 0.07184 0.0
C1185 C 0.25811 0.3069 0.05904 0.0
C1186 C 0.18138 0.16794 0.08171 0.0
C1187 C 0.19163 0.18689 0.07623 0.0
C1188 C 0.18271 0.24398 0.06821 0.0
C1189 C 0.2274 0.28324 0.05649 0.0
C1190 C 0.21565 0.26409 0.06391 0.0
C1191 C 0.18269 0.20645 0.08135 0.0
C1192 C 0.19389 0.22653 0.07584 0.0
H1193 H 0.22885 0.31762 0.01497 0.0
H1194 H 0.20742 0.28838 0.029 0.0
H1195 H 0.18443 0.27576 0.0565 0.0
H1196 H 0.13777 0.1883 0.10542 0.0
H1197 H 0.15592 0.22142 0.09623 0.0
C1198 C 0.68974 0.14197 0.91004 0.0
C1199 C 0.681 0.14144 0.93049 0.0
C1200 C 0.68088 0.15459 0.8943 0.0
C1201 C 0.67316 0.19758 0.87542 0.0
H1202 H 0.615 0.21577 0.87561 0.0
C1203 C 0.65103 0.28434 0.87096 0.0
C1204 C 0.63076 0.2899 0.86411 0.0
C1205 C 0.65698 0.26316 0.87077 0.0
C1206 C 0.63126 0.21076 0.8748 0.0
H1207 H 0.65484 0.15175 0.94985 0.0
H1208 H 0.63971 0.17403 0.92277 0.0
H1209 H 0.62346 0.18127 0.88974 0.0
H1210 H 0.60167 0.27819 0.8496 0.0
H1211 H 0.61228 0.24132 0.84863 0.0
H1212 H 0.681 0.22721 0.86077 0.0
C1213 C 0.65326 0.16467 0.91862 0.0
C1214 C 0.63613 0.19101 0.88318 0.0
C1215 C 0.66203 0.15196 0.93428 0.0
C1216 C 0.61726 0.27423 0.85537 0.0
C1217 C 0.62331 0.25311 0.85488 0.0
C1218 C 0.66825 0.21723 0.8668 0.0
C1219 C 0.66321 0.16697 0.8988 0.0
C1220 C 0.65727 0.1847 0.88466 0.0
C1221 C 0.64287 0.24719 0.86343 0.0
C1222 C 0.64741 0.22453 0.86744 0.0
H1223 H 0.70422 0.13376 0.90656 0.0
H1224 H 0.68863 0.15563 0.87904 0.0
H1225 H 0.68965 0.19331 0.87627 0.0
H1226 H 0.66175 0.29612 0.87775 0.0
H1227 H 0.67208 0.25924 0.8777 0.0
C1228 C 0.03851 0.48123 0.23047 0.0
C1229 C 0.04764 0.47258 0.2487 0.0
C1230 C 0.02237 0.47027 0.21976 0.0
C1231 C 0.98284 0.42663 0.22556 0.0
H1232 H 0.98197 0.43 0.16418 0.0
C1233 C 0.92133 0.38158 0.17345 0.0
C1234 C 0.90979 0.39543 0.16066 0.0
C1235 C 0.93993 0.38867 0.18341 0.0
C1236 C 0.98214 0.42886 0.18131 0.0
H1237 H 0.04688 0.44592 0.27034 0.0
H1238 H 0.01904 0.4265 0.25135 0.0
H1239 H 0.01076 0.44723 0.18389 0.0
H1240 H 0.90897 0.42704 0.14735 0.0
H1241 H 0.94171 0.43924 0.16437 0.0
H1242 H 0.95418 0.40813 0.22278 0.0
C1243 C 0.02404 0.44191 0.2455 0.0
C1244 C -0.00154 0.43887 0.19262 0.0
C1245 C 0.04001 0.45301 0.25637 0.0
C1246 C 0.91755 0.41611 0.15724 0.0
C1247 C 0.9363 0.42304 0.16684 0.0
C1248 C 0.96666 0.41638 0.2142 0.0
C1249 C 0.01522 0.4503 0.22692 0.0
C1250 C -0.00127 0.4383 0.21491 0.0
C1251 C 0.94742 0.40952 0.1803 0.0
C1252 C 0.96597 0.41782 0.19203 0.0
H1253 H 0.044 0.49637 0.22432 0.0
H1254 H 0.01554 0.47746 0.20583 0.0
H1255 H 0.98245 0.42603 0.2427 0.0
H1256 H 0.91558 0.36558 0.17637 0.0
H1257 H 0.94833 0.37801 0.19374 0.0
C1258 C 0.81678 0.82622 0.45247 0.0
C1259 C 0.79549 0.82721 0.45849 0.0
C1260 C 0.82302 0.81192 0.43692 0.0
C1261 C 0.8023 0.7725 0.39688 0.0
H1262 H 0.85579 0.74604 0.40906 0.0
C1263 C 0.82769 0.68721 0.37531 0.0
C1264 C 0.84902 0.68477 0.36967 0.0
C1265 C 0.82001 0.70733 0.37986 0.0
C1266 C 0.84098 0.75351 0.4052 0.0
H1267 H 0.76389 0.81454 0.45273 0.0
H1268 H 0.77485 0.78863 0.42659 0.0
H1269 H 0.84506 0.77602 0.43002 0.0
H1270 H 0.8782 0.70164 0.36169 0.0
H1271 H 0.8648 0.73658 0.36987 0.0
H1272 H 0.79783 0.74853 0.37295 0.0
C1273 C 0.78673 0.79936 0.43317 0.0
C1274 C 0.83482 0.77084 0.41717 0.0
C1275 C 0.78043 0.81408 0.44831 0.0
C1276 C 0.8618 0.70295 0.36642 0.0
C1277 C 0.85417 0.72296 0.37104 0.0
C1278 C 0.80833 0.75479 0.38514 0.0
C1279 C 0.80819 0.79781 0.42753 0.0
C1280 C 0.81531 0.7805 0.41335 0.0
C1281 C 0.83357 0.72519 0.37883 0.0
C1282 C 0.82768 0.74512 0.38933 0.0
H1283 H 0.82864 0.83646 0.45985 0.0
H1284 H 0.83957 0.81171 0.43258 0.0
H1285 H 0.78733 0.7797 0.39322 0.0
H1286 H 0.81739 0.67352 0.37779 0.0
H1287 H 0.80405 0.70869 0.38587 0.0
C1288 C 0.92114 0.03479 0.20182 0.0
C1289 C 0.919 0.0127 0.19969 0.0
C1290 C 0.93872 0.04552 0.19343 0.0
C1291 C 0.98403 0.03937 0.15668 0.0
H1292 H 0.01095 0.08155 0.19311 0.0
C1293 C 0.07106 0.06614 0.14795 0.0
C1294 C 0.07542 0.08802 0.1488 0.0
C1295 C 0.05088 0.05821 0.15274 0.0
C1296 C 0.00346 0.06999 0.18267 0.0
H1297 H 0.93333 0.98461 0.18658 0.0
H1298 H 0.96417 0.0032 0.17246 0.0
H1299 H 0.97709 0.06561 0.20341 0.0
H1300 H 0.06212 0.11876 0.15547 0.0
H1301 H 0.02691 0.10478 0.16414 0.0
H1302 H 0.01089 0.04329 0.13634 0.0
C1303 C 0.95211 0.01234 0.18023 0.0
C1304 C 0.98403 0.06092 0.1885 0.0
C1305 C 0.93447 0.00164 0.18847 0.0
C1306 C 0.05925 0.10181 0.1547 0.0
C1307 C 0.03913 0.09384 0.15971 0.0
C1308 C 0.00355 0.04831 0.15096 0.0
C1309 C 0.95458 0.03435 0.18287 0.0
C1310 C 0.97424 0.04531 0.1757 0.0
C1311 C 0.03476 0.07199 0.15865 0.0
C1312 C 0.01354 0.06349 0.16404 0.0
H1313 H 0.90938 0.04378 0.21021 0.0
H1314 H 0.94 0.06253 0.19542 0.0
H1315 H 0.97671 0.02767 0.14629 0.0
H1316 H 0.08316 0.05513 0.14334 0.0
H1317 H 0.04794 0.04126 0.15205 0.0
C1318 C 0.24291 0.68578 0.54871 0.0
C1319 C 0.24686 0.68405 0.52687 0.0
C1320 C 0.25358 0.70116 0.56083 0.0
C1321 C 0.26913 0.74355 0.57899 0.0
H1322 H 0.32801 0.75626 0.5661 0.0
C1323 C 0.3091 0.8235 0.59741 0.0
C1324 C 0.33071 0.82439 0.60273 0.0
C1325 C 0.29922 0.80426 0.59228 0.0
C1326 C 0.3117 0.75268 0.57021 0.0
H1327 H 0.26461 0.69735 0.50051 0.0
H1328 H 0.28288 0.72435 0.52154 0.0
H1329 H 0.31016 0.72635 0.5489 0.0
H1330 H 0.35864 0.80562 0.60792 0.0
H1331 H 0.34127 0.77187 0.59898 0.0
H1332 H 0.27065 0.77001 0.6002 0.0
C1333 C 0.27194 0.71355 0.52941 0.0
C1334 C 0.30139 0.73573 0.56013 0.0
C1335 C 0.26132 0.69821 0.51732 0.0
C1336 C 0.34203 0.80548 0.60367 0.0
C1337 C 0.3321 0.78617 0.59852 0.0
C1338 C 0.27946 0.7605 0.58912 0.0
C1339 C 0.26836 0.71505 0.55132 0.0
C1340 C 0.27985 0.73138 0.56395 0.0
C1341 C 0.31069 0.78544 0.59241 0.0
C1342 C 0.30068 0.76559 0.58438 0.0
H1343 H 0.23189 0.67501 0.5565 0.0
H1344 H 0.25056 0.70192 0.5777 0.0
H1345 H 0.25251 0.74058 0.58224 0.0
H1346 H 0.29986 0.83774 0.59672 0.0
H1347 H 0.28279 0.80429 0.58737 0.0
C1348 C 0.08583 0.55587 0.32873 0.0
C1349 C 0.0918 0.53464 0.33029 0.0
C1350 C 0.07306 0.56476 0.34426 0.0
C1351 C 0.02925 0.54535 0.374 0.0
H1352 H 0.02349 0.60447 0.38903 0.0
C1353 C 0.94698 0.57906 0.38684 0.0
C1354 C 0.94376 0.59818 0.37607 0.0
C1355 C 0.96748 0.57194 0.39046 0.0
C1356 C 0.02484 0.58787 0.385 0.0
H1357 H 0.09145 0.5069 0.35055 0.0
H1358 H 0.0688 0.52237 0.37749 0.0
H1359 H 0.05822 0.59115 0.37946 0.0
H1360 H 0.9595 0.62526 0.36143 0.0
H1361 H -0.00505 0.6125 0.36676 0.0
H1362 H -0.00418 0.54231 0.37742 0.0
C1363 C 0.07392 0.53208 0.36425 0.0
C1364 C 0.04476 0.58025 0.37972 0.0
C1365 C 0.08689 0.52325 0.34882 0.0
C1366 C 0.96142 0.6104 0.36971 0.0
C1367 C 0.98184 0.60318 0.37305 0.0
C1368 C 0.00933 0.55301 0.37895 0.0
C1369 C 0.06592 0.55248 0.36147 0.0
C1370 C 0.04694 0.55915 0.3732 0.0
C1371 C 0.98516 0.58367 0.38313 0.0
C1372 C 0.00671 0.57462 0.38343 0.0
H1373 H 0.0896 0.5651 0.31474 0.0
H1374 H 0.0671 0.58051 0.34164 0.0
H1375 H 0.03037 0.52905 0.36882 0.0
H1376 H 0.93365 0.56949 0.39228 0.0
H1377 H 0.96944 0.55701 0.39858 0.0
C1378 C 0.40925 0.46342 0.80606 0.0
C1379 C 0.40101 0.44824 0.79176 0.0
C1380 C 0.4237 0.45759 0.82168 0.0
C1381 C 0.44613 0.41245 0.85027 0.0
H1382 H 0.49994 0.44214 0.84321 0.0
C1383 C 0.52493 0.37254 0.86342 0.0
C1384 C 0.54327 0.38456 0.86821 0.0
C1385 C 0.50548 0.38229 0.86112 0.0
C1386 C 0.48497 0.43399 0.84599 0.0
H1387 H 0.40031 0.41489 0.7835 0.0
H1388 H 0.42533 0.40469 0.81097 0.0
H1389 H 0.46844 0.45579 0.82636 0.0
H1390 H 0.55524 0.41601 0.8762 0.0
H1391 H 0.52108 0.43303 0.87267 0.0
H1392 H 0.46268 0.39036 0.8695 0.0
C1393 C 0.42068 0.42108 0.81003 0.0
C1394 C 0.4669 0.44181 0.83622 0.0
C1395 C 0.4065 0.42694 0.7942 0.0
C1396 C 0.54145 0.40635 0.87218 0.0
C1397 C 0.52188 0.41611 0.87007 0.0
C1398 C 0.46413 0.40478 0.86032 0.0
C1399 C 0.42984 0.43643 0.82352 0.0
C1400 C 0.44754 0.43064 0.83757 0.0
C1401 C 0.5038 0.4043 0.8638 0.0
C1402 C 0.48397 0.41493 0.85749 0.0
H1403 H 0.4053 0.47997 0.80459 0.0
H1404 H 0.43055 0.46969 0.83193 0.0
H1405 H 0.43127 0.40372 0.85173 0.0
H1406 H 0.52571 0.35568 0.86038 0.0
H1407 H 0.49206 0.37265 0.856 0.0
C1408 C 0.9423 0.79546 0.68535 0.0
C1409 C 0.94837 0.77424 0.68392 0.0
C1410 C 0.92578 0.8012 0.69858 0.0
C1411 C 0.90064 0.78555 0.74755 0.0
H1412 H 0.86193 0.83022 0.73302 0.0
C1413 C 0.85468 0.82678 0.8126 0.0
C1414 C 0.85682 0.84897 0.81196 0.0
C1415 C 0.85914 0.81465 0.79474 0.0
C1416 C 0.87257 0.81769 0.7373 0.0
H1417 H 0.94163 0.74227 0.69481 0.0
H1418 H 0.91278 0.75244 0.7184 0.0
H1419 H 0.88297 0.81381 0.70528 0.0
H1420 H 0.86366 0.87594 0.79172 0.0
H1421 H 0.87202 0.85479 0.7607 0.0
H1422 H 0.89135 0.79018 0.77965 0.0
C1423 C 0.92084 0.76456 0.70915 0.0
C1424 C 0.88456 0.80827 0.72143 0.0
C1425 C 0.93732 0.75876 0.6957 0.0
C1426 C 0.86197 0.85887 0.7927 0.0
C1427 C 0.86662 0.84671 0.77488 0.0
C1428 C 0.88875 0.79501 0.76341 0.0
C1429 C 0.91503 0.78587 0.71079 0.0
C1430 C 0.89927 0.79267 0.72655 0.0
C1431 C 0.866 0.82444 0.77594 0.0
C1432 C 0.87515 0.81172 0.75857 0.0
H1433 H 0.95044 0.80774 0.67638 0.0
H1434 H 0.92192 0.81779 0.69981 0.0
H1435 H 0.91199 0.7737 0.75199 0.0
H1436 H 0.85034 0.81873 0.82715 0.0
H1437 H 0.85806 0.79755 0.79592 0.0
C1438 C 0.9857 0.18971 0.41197 0.0
C1439 C 0.97088 0.19039 0.39542 0.0
C1440 C 0.98143 0.17739 0.42993 0.0
C1441 C 0.96895 0.14809 0.46668 0.0
H1442 H 0.9107 0.15805 0.48246 0.0
C1443 C 0.90499 0.132 0.53894 0.0
C1444 C 0.91729 0.13859 0.5564 0.0
C1445 C 0.91303 0.13355 0.51846 0.0
C1446 C 0.92689 0.15468 0.47821 0.0
H1447 H 0.94149 0.17706 0.38317 0.0
H1448 H 0.93453 0.15478 0.41395 0.0
H1449 H 0.92278 0.16769 0.44744 0.0
H1450 H 0.94801 0.15115 0.56616 0.0
H1451 H 0.96185 0.15449 0.5302 0.0
H1452 H 0.97304 0.13575 0.49805 0.0
C1453 C 0.94897 0.16431 0.41359 0.0
C1454 C 0.93385 0.16017 0.45803 0.0
C1455 C 0.953 0.17691 0.39593 0.0
C1456 C 0.93809 0.1461 0.55299 0.0
C1457 C 0.94609 0.14782 0.53242 0.0
C1458 C 0.96195 0.14256 0.487 0.0
C1459 C 0.96244 0.16544 0.43134 0.0
C1460 C 0.95499 0.15716 0.45205 0.0
C1461 C 0.93349 0.1419 0.51492 0.0
C1462 C 0.94088 0.14604 0.49302 0.0
H1463 H -0.00045 0.2001 0.41189 0.0
H1464 H -0.00787 0.17864 0.44333 0.0
H1465 H 0.98532 0.14551 0.4625 0.0
H1466 H 0.88906 0.12572 0.54107 0.0
H1467 H 0.90307 0.12848 0.50533 0.0
C1468 C 0.55851 0.23405 0.18501 0.0
C1469 C 0.54245 0.22237 0.17457 0.0
C1470 C 0.57263 0.22396 0.1985 0.0
C1471 C 0.59168 0.17184 0.21667 0.0
H1472 H 0.59105 0.19866 0.27195 0.0
C1473 C 0.6035 0.12639 0.29466 0.0
C1474 C 0.61166 0.13733 0.31235 0.0
C1475 C 0.60064 0.13695 0.27545 0.0
C1476 C 0.59195 0.19112 0.25657 0.0
H1477 H 0.52959 0.19078 0.16876 0.0
H1478 H 0.55411 0.17318 0.1925 0.0
H1479 H 0.57657 0.21697 0.24173 0.0
H1480 H 0.62499 0.16726 0.32344 0.0
H1481 H 0.62071 0.18548 0.28977 0.0
H1482 H 0.60663 0.1457 0.23176 0.0
C1483 C 0.55587 0.19012 0.19018 0.0
C1484 C 0.58359 0.20166 0.23919 0.0
C1485 C 0.54172 0.20022 0.1767 0.0
C1486 C 0.61826 0.15857 0.31013 0.0
C1487 C 0.61574 0.16901 0.29086 0.0
C1488 C 0.60026 0.16132 0.23409 0.0
C1489 C 0.57096 0.20199 0.20178 0.0
C1490 C 0.58288 0.19194 0.21918 0.0
C1491 C 0.60619 0.15855 0.27351 0.0
C1492 C 0.6 0.17063 0.25435 0.0
H1493 H 0.55963 0.25112 0.1835 0.0
H1494 H 0.58431 0.23345 0.20703 0.0
H1495 H 0.59149 0.16407 0.20135 0.0
H1496 H 0.59831 0.10999 0.29594 0.0
H1497 H 0.59304 0.12843 0.26252 0.0
C1498 C 0.52772 0.80475 0.89838 0.0
C1499 C 0.50587 0.80298 0.9022 0.0
C1500 C 0.54094 0.81564 0.91255 0.0
C1501 C 0.54166 0.84877 0.96163 0.0
H1502 H 0.58848 0.81284 0.97656 0.0
C1503 C 0.5736 0.84077 0.04586 0.0
C1504 C 0.59537 0.83802 0.04919 0.0
C1505 C 0.56545 0.8421 0.0254 0.0
C1506 C 0.57582 0.82337 0.97235 0.0
H1507 H 0.48044 0.81261 0.92284 0.0
H1508 H 0.50355 0.83102 0.94803 0.0
H1509 H 0.56884 0.80598 0.94416 0.0
H1510 H 0.62579 0.83532 0.03365 0.0
H1511 H 0.6114 0.83735 -0.00228 0.0
H1512 H 0.54803 0.86532 0.99068 0.0
C1513 C 0.51052 0.82436 0.93391 0.0
C1514 C 0.56453 0.81948 0.95371 0.0
C1515 C 0.49725 0.81368 0.91955 0.0
C1516 C 0.60892 0.83721 0.03159 0.0
C1517 C 0.60071 0.83842 0.01105 0.0
C1518 C 0.55291 0.85259 0.98037 0.0
C1519 C 0.5326 0.82471 0.931 0.0
C1520 C 0.54687 0.83167 0.94848 0.0
C1521 C 0.57886 0.84067 0.00778 0.0
C1522 C 0.56963 0.83945 0.98624 0.0
H1523 H 0.53475 0.79696 0.88487 0.0
H1524 H 0.55782 0.81608 0.90959 0.0
H1525 H 0.52838 0.85868 0.95785 0.0
H1526 H 0.56275 0.84169 0.05908 0.0
H1527 H 0.54851 0.8435 0.02338 0.0
C1528 C 0.92705 0.24294 0.82365 0.0
C1529 C 0.94095 0.23152 0.83652 0.0
C1530 C 0.91612 0.23284 0.80709 0.0
C1531 C 0.90307 0.1803 0.78296 0.0
H1532 H 0.91263 0.21041 0.73026 0.0
C1533 C 0.90837 0.1389 0.70168 0.0
C1534 C 0.90133 0.14978 0.68368 0.0
C1535 C 0.90801 0.14861 0.7216 0.0
C1536 C 0.90937 0.2019 0.74481 0.0
H1537 H 0.95287 0.20022 0.84327 0.0
H1538 H 0.93412 0.18277 0.81431 0.0
H1539 H 0.91998 0.22813 0.76363 0.0
H1540 H 0.88704 0.17873 0.6726 0.0
H1541 H 0.8861 0.19545 0.7073 0.0
H1542 H 0.89316 0.15377 0.76393 0.0
C1543 C 0.93154 0.19946 0.817 0.0
C1544 C 0.91355 0.21211 0.76399 0.0
C1545 C 0.94246 0.20954 0.83351 0.0
C1546 C 0.89299 0.1701 0.68612 0.0
C1547 C 0.89245 0.17969 0.706 0.0
C1548 C 0.89883 0.17006 0.76371 0.0
C1549 C 0.91886 0.21115 0.80315 0.0
C1550 C 0.91094 0.20128 0.78326 0.0
C1551 C 0.90041 0.16928 0.72389 0.0
C1552 C 0.90241 0.18062 0.74442 0.0
H1553 H 0.92537 0.25986 0.82569 0.0
H1554 H 0.90619 0.24217 0.79685 0.0
H1555 H 0.90071 0.17164 0.7976 0.0
H1556 H 0.91479 0.12318 0.7003 0.0
H1557 H 0.91446 0.14024 0.73503 0.0
C1558 C 0.5228 0.18165 0.58087 0.0
C1559 C 0.50134 0.18542 0.57685 0.0
C1560 C 0.53426 0.16864 0.56738 0.0
C1561 C 0.52939 0.13179 0.5211 0.0
H1562 H 0.58291 0.15832 0.5053 0.0
C1563 C 0.56817 0.12307 0.43911 0.0
C1564 C 0.59035 0.12229 0.43802 0.0
C1565 C 0.55811 0.12587 0.45857 0.0
C1566 C 0.56822 0.15043 0.50977 0.0
H1567 H 0.47468 0.17748 0.55643 0.0
H1568 H 0.49476 0.1554 0.53253 0.0
H1569 H 0.5638 0.17159 0.53564 0.0
H1570 H 0.6193 0.12265 0.45666 0.0
H1571 H 0.6017 0.12765 0.49055 0.0
H1572 H 0.53349 0.11133 0.49433 0.0
C1573 C 0.50274 0.1621 0.54626 0.0
C1574 C 0.55725 0.158 0.52725 0.0
C1575 C 0.49123 0.1749 0.5599 0.0
C1576 C 0.6022 0.12345 0.4569 0.0
C1577 C 0.59214 0.12632 0.47632 0.0
C1578 C 0.54033 0.12431 0.50347 0.0
C1579 C 0.52456 0.15938 0.54945 0.0
C1580 C 0.53747 0.1491 0.53286 0.0
C1581 C 0.57005 0.12798 0.4773 0.0
C1582 C 0.55963 0.13387 0.49739 0.0
H1583 H 0.53093 0.18933 0.59401 0.0
H1584 H 0.55093 0.16647 0.57057 0.0
H1585 H 0.51436 0.12436 0.52519 0.0
H1586 H 0.55856 0.12205 0.42489 0.0
H1587 H 0.54106 0.1273 0.45882 0.0
C1588 C 0.54409 0.75235 0.32218 0.0
C1589 C 0.53697 0.77026 0.3331 0.0
C1590 C 0.55732 0.75474 0.30456 0.0
C1591 C 0.59174 0.79327 0.27604 0.0
H1592 H 0.56799 0.76754 0.22523 0.0
C1593 C 0.59948 0.83151 0.19457 0.0
C1594 C 0.60103 0.81877 0.1764 0.0
C1595 C 0.59679 0.82232 0.21448 0.0
C1596 C 0.5752 0.77447 0.23927 0.0
H1597 H 0.53918 0.80454 0.33507 0.0
H1598 H 0.56222 0.80866 0.30455 0.0
H1599 H 0.55473 0.75664 0.25981 0.0
H1600 H 0.6018 0.78635 0.16497 0.0
H1601 H 0.59707 0.77031 0.19986 0.0
H1602 H 0.61161 0.81174 0.25547 0.0
C1603 C 0.55763 0.7928 0.3095 0.0
C1604 C 0.5676 0.7682 0.25909 0.0
C1605 C 0.54425 0.79045 0.32686 0.0
C1606 C 0.60044 0.79661 0.17864 0.0
C1607 C 0.59773 0.78741 0.19861 0.0
C1608 C 0.5994 0.79948 0.25624 0.0
C1609 C 0.56389 0.77503 0.29786 0.0
C1610 C 0.57522 0.77816 0.27759 0.0
C1611 C 0.59564 0.80019 0.2167 0.0
C1612 C 0.5906 0.79076 0.23762 0.0
H1613 H 0.53876 0.73659 0.32668 0.0
H1614 H 0.56199 0.74079 0.29588 0.0
H1615 H 0.59809 0.80096 0.2901 0.0
H1616 H 0.59998 0.84862 0.19344 0.0
H1617 H 0.59487 0.83263 0.22804 0.0
C1618 C 0.97018 0.80786 0.05939 0.0
C1619 C 0.95733 0.78987 0.06321 0.0
C1620 C 0.96258 0.82455 0.04715 0.0
C1621 C 0.91244 0.84493 0.02408 0.0
H1622 H 0.94948 0.86874 0.9811 0.0
C1623 C 0.90526 0.8699 0.9328 0.0
C1624 C 0.8847 0.87788 0.93303 0.0
C1625 C 0.91624 0.86691 0.95168 0.0
C1626 C 0.93888 0.86224 -0.00701 0.0
H1627 H 0.92671 0.775 0.05703 0.0
H1628 H 0.91386 0.80341 0.03511 0.0
H1629 H 0.9642 0.84689 0.00892 0.0
H1630 H 0.86035 0.89113 0.95285 0.0
H1631 H 0.87992 0.88682 0.9859 0.0
H1632 H 0.88685 0.85825 0.00713 0.0
C1633 C 0.92945 0.80522 0.04212 0.0
C1634 C 0.94741 0.84995 0.00917 0.0
C1635 C 0.93691 0.78875 0.05449 0.0
C1636 C 0.87602 0.88451 0.95232 0.0
C1637 C 0.88723 0.88196 0.97123 0.0
C1638 C 0.90387 0.85677 0.00768 0.0
C1639 C 0.94209 0.82341 0.03839 0.0
C1640 C 0.93409 0.84026 0.02426 0.0
C1641 C 0.90711 0.87223 0.97125 0.0
C1642 C 0.91684 0.86469 0.99131 0.0
H1643 H 0.98595 0.80917 0.06608 0.0
H1644 H 0.9727 0.83836 0.04465 0.0
H1645 H 0.90184 0.83834 0.03592 0.0
H1646 H 0.91242 0.86472 0.91814 0.0
H1647 H 0.93131 0.8591 0.95087 0.0
C1648 C 0.65328 0.92938 0.7591 0.0
C1649 C 0.647 0.94776 0.76979 0.0
C1650 C 0.66479 0.91398 0.76972 0.0
C1651 C 0.68473 0.89755 0.82274 0.0
H1652 H 0.7372 0.88999 0.79227 0.0
C1653 C 0.76548 0.8939 0.86329 0.0
C1654 C 0.78224 0.88417 0.8528 0.0
C1655 C 0.74528 0.89367 0.85424 0.0
C1656 C 0.72252 0.89128 0.80095 0.0
H1657 H 0.64622 0.96349 0.80039 0.0
H1658 H 0.66653 0.93691 0.81871 0.0
H1659 H 0.7069 0.9037 0.77384 0.0
H1660 H 0.79077 0.86461 0.82602 0.0
H1661 H 0.7554 0.86354 0.8106 0.0
H1662 H 0.70085 0.88603 0.85017 0.0
C1663 C 0.6625 0.93426 0.80221 0.0
C1664 C 0.70506 0.89919 0.7903 0.0
C1665 C 0.65107 0.94966 0.79161 0.0
C1666 C 0.77815 0.87266 0.83414 0.0
C1667 C 0.75791 0.87207 0.82532 0.0
C1668 C 0.70222 0.88948 0.83342 0.0
C1669 C 0.67013 0.91665 0.79121 0.0
C1670 C 0.6863 0.9033 0.80128 0.0
C1671 C 0.74146 0.88339 0.83473 0.0
C1672 C 0.72159 0.88715 0.82283 0.0
H1673 H 0.65016 0.92732 0.74233 0.0
H1674 H 0.67031 0.90044 0.76091 0.0
H1675 H 0.67033 0.90028 0.83151 0.0
H1676 H 0.76825 0.90279 0.87776 0.0
H1677 H 0.73306 0.90272 0.86186 0.0
C1678 C 0.8104 0.92426 0.53639 0.0
C1679 C 0.80392 0.92282 0.51512 0.0
C1680 C 0.82574 0.93914 0.5426 0.0
C1681 C 0.84703 0.99085 0.52758 0.0
H1682 H 0.88655 0.98003 0.57328 0.0
C1683 C 0.89139 0.05949 0.56721 0.0
C1684 C 0.88888 0.05982 0.58934 0.0
C1685 C 0.88742 0.04094 0.55577 0.0
C1686 C 0.87568 0.98325 0.56044 0.0
H1687 H 0.80881 0.93543 0.48354 0.0
H1688 H 0.83576 0.96165 0.49446 0.0
H1689 H 0.86713 0.95049 0.55675 0.0
H1690 H 0.88203 0.04062 0.61702 0.0
H1691 H 0.87468 0.00825 0.597 0.0
H1692 H 0.85479 0.02362 0.5318 0.0
C1693 C 0.82882 0.95127 0.50631 0.0
C1694 C 0.86456 0.96638 0.551 0.0
C1695 C 0.81342 0.93629 0.50006 0.0
C1696 C 0.88399 0.04085 0.59998 0.0
C1697 C 0.87989 0.02228 0.5885 0.0
C1698 C 0.85815 0.00769 0.53698 0.0
C1699 C 0.83499 0.95294 0.52769 0.0
C1700 C 0.84959 0.97011 0.53497 0.0
C1701 C 0.88077 0.02237 0.56622 0.0
C1702 C 0.87209 0.00414 0.55396 0.0
H1703 H 0.8034 0.91407 0.54837 0.0
H1704 H 0.82983 0.94029 0.55924 0.0
H1705 H 0.83544 -0.00572 0.51544 0.0
H1706 H 0.89555 0.07381 0.55861 0.0
H1707 H 0.88864 0.04136 0.53866 0.0
C1708 C 0.81639 0.06697 0.26233 0.0
C1709 C 0.83307 0.05746 0.27326 0.0
C1710 C 0.80224 0.07978 0.27315 0.0
C1711 C 0.78121 0.08201 0.32678 0.0
H1712 H 0.74409 0.12339 0.30196 0.0
C1713 C 0.70262 0.10237 0.36632 0.0
C1714 C 0.68508 0.10127 0.35259 0.0
C1715 C 0.72315 0.10318 0.35822 0.0
C1716 C 0.7544 0.11191 0.30912 0.0
H1717 H 0.84976 0.05604 0.30326 0.0
H1718 H 0.82549 0.07897 0.32199 0.0
H1719 H 0.77756 0.11545 0.28459 0.0
H1720 H 0.67533 0.10107 0.31957 0.0
H1721 H 0.71115 0.10202 0.30549 0.0
H1722 H 0.75779 0.07776 0.35077 0.0
C1723 C 0.82282 0.07593 0.30529 0.0
C1724 C 0.77355 0.10738 0.29921 0.0
C1725 C 0.83678 0.06288 0.29455 0.0
C1726 C 0.6885 0.10171 0.33059 0.0
C1727 C 0.70903 0.10252 0.32251 0.0
C1728 C 0.76218 0.08659 0.3367 0.0
C1729 C 0.8047 0.08348 0.29503 0.0
C1730 C 0.78682 0.09182 0.30754 0.0
C1731 C 0.72658 0.10295 0.33624 0.0
C1732 C 0.74824 0.10104 0.3276 0.0
H1733 H 0.81321 0.06313 0.24588 0.0
H1734 H 0.78845 0.08525 0.26472 0.0
H1735 H 0.79078 0.06966 0.33351 0.0
H1736 H 0.70053 0.10237 0.38335 0.0
H1737 H 0.73638 0.10371 0.36918 0.0
C1738 C 0.68303 0.05574 0.0124 0.0
C1739 C 0.69411 0.0678 0.02772 0.0
C1740 C 0.67164 0.03749 0.01828 0.0
C1741 C 0.64695 0.01027 0.06356 0.0
H1742 H 0.66238 0.9585 0.03489 0.0
C1743 C 0.6356 0.92855 0.10176 0.0
C1744 C 0.63156 0.91079 0.08886 0.0
C1745 C 0.63935 0.94842 0.09274 0.0
C1746 C 0.65746 0.9728 0.0428 0.0
H1747 H 0.70125 0.07069 0.06126 0.0
H1748 H 0.68118 0.03901 0.07151 0.0
H1749 H 0.67553 -0.00754 0.02163 0.0
H1750 H 0.62718 0.90008 0.05643 0.0
H1751 H 0.63323 0.9349 0.04069 0.0
H1752 H 0.62902 0.99072 0.08485 0.0
C1753 C 0.68136 0.04364 0.05498 0.0
C1754 C 0.66506 -0.00775 0.0352 0.0
C1755 C 0.69298 0.06166 0.04908 0.0
C1756 C 0.63053 0.91344 0.06678 0.0
C1757 C 0.63407 0.93338 0.05776 0.0
C1758 C 0.63913 0.99085 0.07102 0.0
C1759 C 0.67084 0.03123 0.03961 0.0
C1760 C 0.66032 0.01109 0.04585 0.0
C1761 C 0.63889 0.95105 0.07062 0.0
C1762 C 0.64478 0.97183 0.06108 0.0
H1763 H 0.68362 0.06008 -0.00419 0.0
H1764 H 0.6636 0.02817 0.00617 0.0
H1765 H 0.64288 0.02464 0.07188 0.0
H1766 H 0.63653 0.92703 0.11883 0.0
H1767 H 0.64336 0.96156 0.10314 0.0
C1768 C 0.68281 0.0398 0.69061 0.0
C1769 C 0.67687 0.03906 0.71204 0.0
C1770 C 0.70124 0.05058 0.68447 0.0
C1771 C 0.75347 0.06544 0.70346 0.0
H1772 H 0.75502 0.101 0.65341 0.0
C1773 C 0.83192 0.10027 0.67014 0.0
C1774 C 0.8341 0.09932 0.64799 0.0
C1775 C 0.81234 0.09595 0.67962 0.0
C1776 C 0.75488 0.09101 0.66735 0.0
H1777 H 0.68542 0.04928 0.74382 0.0
H1778 H 0.71804 0.06786 0.73302 0.0
H1779 H 0.72106 0.08814 0.66707 0.0
H1780 H 0.81741 0.09317 0.61844 0.0
H1781 H 0.78356 0.08513 0.63493 0.0
H1782 H 0.78729 0.06744 0.70323 0.0
C1783 C 0.70826 0.06016 0.72105 0.0
C1784 C 0.73544 0.08376 0.6752 0.0
C1785 C 0.68959 0.04962 0.72718 0.0
C1786 C 0.81629 0.0941 0.63554 0.0
C1787 C 0.7968 0.08967 0.645 0.0
C1788 C 0.77296 0.07253 0.69549 0.0
C1789 C 0.71427 0.06063 0.69964 0.0
C1790 C 0.73459 0.07054 0.69304 0.0
C1791 C 0.79456 0.09053 0.66714 0.0
C1792 C 0.77389 0.08499 0.67704 0.0
H1793 H 0.67329 0.0319 0.67856 0.0
H1794 H 0.70565 0.05051 0.66789 0.0
H1795 H 0.75323 0.05511 0.71715 0.0
H1796 H 0.84531 0.10444 0.68016 0.0
H1797 H 0.8111 0.09696 0.6967 0.0
C1798 C 0.69599 0.90746 0.45458 0.0
C1799 C 0.69926 0.90492 0.47644 0.0
C1800 C 0.68064 0.92121 0.44716 0.0
C1801 C 0.65735 0.97028 0.46414 0.0
H1802 H 0.62753 0.96587 0.41049 0.0
C1803 C 0.62435 0.04427 0.42531 0.0
C1804 C 0.62965 0.04663 0.40383 0.0
C1805 C 0.62607 0.02465 0.43525 0.0
C1806 C 0.63574 0.96733 0.42553 0.0
H1807 H 0.68774 0.91322 0.50767 0.0
H1808 H 0.66083 0.93718 0.49468 0.0
H1809 H 0.64237 0.93418 0.42648 0.0
H1810 H 0.63978 0.03006 0.3756 0.0
H1811 H 0.64351 -0.00397 0.39307 0.0
H1812 H 0.65193 0.00344 0.46277 0.0
C1813 C 0.67039 0.92881 0.4833 0.0
C1814 C 0.64416 0.94919 0.43469 0.0
C1815 C 0.68577 0.91507 0.49072 0.0
C1816 C 0.6357 0.02876 0.39221 0.0
C1817 C 0.63763 0.00919 0.4022 0.0
C1818 C 0.64903 0.98837 0.45497 0.0
C1819 C 0.66824 0.93265 0.46147 0.0
C1820 C 0.65563 0.95062 0.45377 0.0
C1821 C 0.63334 0.00703 0.42397 0.0
C1822 C 0.63873 0.98723 0.43523 0.0
H1823 H 0.70605 0.89973 0.44318 0.0
H1824 H 0.67951 0.92393 0.43026 0.0
H1825 H 0.66637 0.97202 0.47868 0.0
H1826 H 0.61924 0.05768 0.43459 0.0
H1827 H 0.62225 0.02343 0.45193 0.0
C1828 C 0.79332 0.95166 0.2366 0.0
C1829 C 0.81103 0.95785 0.22455 0.0
C1830 C 0.77822 0.93747 0.22817 0.0
C1831 C 0.75822 0.91913 0.17655 0.0
H1832 H 0.72964 0.87506 0.209 0.0
C1833 C 0.69643 0.86556 0.13695 0.0
C1834 C 0.67702 0.86418 0.14769 0.0
C1835 C 0.71457 0.87302 0.14739 0.0
C1836 C 0.73752 0.88732 0.19979 0.0
H1837 H 0.82739 0.95339 0.19471 0.0
H1838 H 0.80138 0.92854 0.18025 0.0
H1839 H 0.75786 0.8965 0.2256 0.0
H1840 H 0.66177 0.86785 0.17826 0.0
H1841 H 0.69336 0.88125 0.19631 0.0
H1842 H 0.73779 0.91042 0.15092 0.0
C1843 C 0.79881 0.93495 0.19595 0.0
C1844 C 0.75357 0.89961 0.20929 0.0
C1845 C 0.81374 0.94916 0.20427 0.0
C1846 C 0.67645 0.86893 0.16946 0.0
C1847 C 0.69459 0.87647 0.17988 0.0
C1848 C 0.74228 0.90688 0.16709 0.0
C1849 C 0.7807 0.92924 0.20762 0.0
C1850 C 0.76402 0.91569 0.19775 0.0
C1851 C 0.71364 0.8793 0.16874 0.0
C1852 C 0.73169 0.89091 0.1786 0.0
H1853 H 0.79091 0.95809 0.25231 0.0
H1854 H 0.76433 0.93347 0.23746 0.0
H1855 H 0.76564 0.9317 0.16737 0.0
H1856 H 0.69747 0.86168 0.12026 0.0
H1857 H 0.72918 0.87462 0.13854 0.0
C1858 C 0.80408 0.08535 0.98269 0.0
C1859 C 0.78671 0.09359 0.97172 0.0
C1860 C 0.81782 0.07161 0.97249 0.0
C1861 C 0.83094 0.04725 0.92033 0.0
H1862 H 0.83233 -0.00431 0.95348 0.0
C1863 C 0.82972 0.96388 0.88354 0.0
C1864 C 0.83917 0.94734 0.89469 0.0
C1865 C 0.82989 0.98436 0.892 0.0
C1866 C 0.83265 0.01002 0.94407 0.0
H1867 H 0.77144 0.09569 0.94095 0.0
H1868 H 0.79506 0.07153 0.9234 0.0
H1869 H 0.82219 0.02837 0.97024 0.0
H1870 H 0.85777 0.93946 0.92243 0.0
H1871 H 0.85852 0.97518 0.93688 0.0
H1872 H 0.84054 0.02846 0.89387 0.0
C1873 C 0.7982 0.07567 0.93978 0.0
C1874 C 0.82685 0.02884 0.95374 0.0
C1875 C 0.78448 0.08936 0.94995 0.0
C1876 C 0.84989 0.95184 0.91374 0.0
C1877 C 0.85034 0.9723 0.92201 0.0
C1878 C 0.83684 0.02835 0.91062 0.0
C1879 C 0.81444 0.06592 0.95118 0.0
C1880 C 0.82521 0.04751 0.94184 0.0
C1881 C 0.83977 0.98866 0.9116 0.0
C1882 C 0.83707 0.00939 0.92225 0.0
H1883 H 0.80639 0.08853 -0.00059 0.0
H1884 H 0.83043 0.06457 0.98158 0.0
H1885 H 0.83005 0.06147 0.91082 0.0
H1886 H 0.82147 0.96084 0.86874 0.0
H1887 H 0.8214 -0.00346 0.88366 0.0
C1888 C 0.78932 0.65698 0.92707 0.0
C1889 C 0.77002 0.65565 0.93796 0.0
C1890 C 0.79497 0.6753 0.91604 0.0
C1891 C 0.77661 0.72773 0.89773 0.0
H1892 H 0.83314 0.74558 0.91512 0.0
C1893 C 0.80626 0.81488 0.89725 0.0
C1894 C 0.82748 0.81893 0.89171 0.0
C1895 C 0.79858 0.79408 0.89913 0.0
C1896 C 0.81748 0.74074 0.90975 0.0
H1897 H 0.74065 0.67156 0.94444 0.0
H1898 H 0.75076 0.70394 0.9256 0.0
H1899 H 0.82043 0.71018 0.92354 0.0
H1900 H 0.85704 0.80439 0.88289 0.0
H1901 H 0.84359 0.76819 0.88601 0.0
H1902 H 0.77361 0.75876 0.88446 0.0
C1903 C 0.76143 0.69074 0.92534 0.0
C1904 C 0.81019 0.72039 0.91453 0.0
C1905 C 0.75566 0.67224 0.93619 0.0
C1906 C 0.8407 0.8018 0.88756 0.0
C1907 C 0.833 0.78106 0.88932 0.0
C1908 C 0.78396 0.74819 0.89291 0.0
C1909 C 0.78154 0.69276 0.91597 0.0
C1910 C 0.78962 0.7137 0.90877 0.0
C1911 C 0.81195 0.77697 0.8954 0.0
C1912 C 0.8044 0.75495 0.89909 0.0
H1913 H 0.80052 0.64423 0.92791 0.0
H1914 H 0.81034 0.67622 0.9085 0.0
H1915 H 0.76073 0.72296 0.893 0.0
H1916 H 0.79564 0.82775 0.90043 0.0
H1917 H 0.78234 0.79142 0.90407 0.0
C1918 C 0.24453 0.80241 0.03394 0.0
C1919 C 0.26182 0.81072 0.02242 0.0
C1920 C 0.24789 0.78878 0.05104 0.0
C1921 C 0.28659 0.77462 0.09086 0.0
H1922 H 0.27017 0.71576 0.08231 0.0
C1923 C 0.33786 0.70724 0.1175 0.0
C1924 C 0.32907 0.68704 0.12142 0.0
C1925 C 0.32492 0.72397 0.112 0.0
C1926 C 0.27437 0.73217 0.08545 0.0
H1927 H 0.29607 0.81179 0.02003 0.0
H1928 H 0.30187 0.78844 0.05005 0.0
H1929 H 0.25521 0.74291 0.05969 0.0
H1930 H 0.29964 0.66899 0.12451 0.0
H1931 H 0.27697 0.69839 0.11518 0.0
H1932 H 0.30631 0.76399 0.11609 0.0
C1933 C 0.28578 0.79233 0.04577 0.0
C1934 C 0.26581 0.74768 0.07242 0.0
C1935 C 0.28244 0.80547 0.02847 0.0
C1936 C 0.30693 0.6843 0.12122 0.0
C1937 C 0.29393 0.70112 0.11584 0.0
C1938 C 0.29489 0.75919 0.1041 0.0
C1939 C 0.26858 0.78386 0.05714 0.0
C1940 C 0.27271 0.76882 0.07437 0.0
C1941 C 0.30284 0.72097 0.1105 0.0
C1942 C 0.2898 0.73766 0.10075 0.0
H1943 H 0.22847 0.80626 0.02958 0.0
H1944 H 0.23443 0.78219 0.05954 0.0
H1945 H 0.29195 0.79093 0.09268 0.0
H1946 H 0.35484 0.70993 0.11765 0.0
H1947 H 0.33242 0.73892 0.10771 0.0
C1948 C 0.92704 0.47813 0.80357 0.0
C1949 C 0.91284 0.49282 0.79525 0.0
C1950 C 0.94412 0.48505 0.81608 0.0
C1951 C 0.96524 0.5284 0.8488 0.0
H1952 H 0.01916 0.51713 0.82239 0.0
C1953 C 0.03906 0.58104 0.86342 0.0
C1954 C 0.05919 0.57258 0.86048 0.0
C1955 C 0.02093 0.56853 0.85985 0.0
C1956 C 0.00441 0.52003 0.83046 0.0
H1957 H 0.90448 0.52595 0.79451 0.0
H1958 H 0.93403 0.53791 0.8168 0.0
H1959 H 0.98727 0.49957 0.80916 0.0
H1960 H 0.07636 0.54417 0.85314 0.0
H1961 H 0.04481 0.52197 0.84802 0.0
H1962 H 0.98224 0.54884 0.87017 0.0
C1963 C 0.93207 0.52115 0.81347 0.0
C1964 C 0.9861 0.50999 0.82275 0.0
C1965 C 0.9153 0.51432 0.80061 0.0
C1966 C 0.06095 0.55113 0.85515 0.0
C1967 C 0.04285 0.53847 0.85209 0.0
C1968 C 0.98363 0.53814 0.85684 0.0
C1969 C 0.9469 0.50665 0.82086 0.0
C1970 C 0.96633 0.51453 0.83147 0.0
C1971 C 0.02257 0.54716 0.85372 0.0
C1972 C 0.00339 0.53459 0.84735 0.0
H1973 H 0.92551 0.46147 0.79963 0.0
H1974 H 0.95544 0.47363 0.82161 0.0
H1975 H 0.95011 0.53203 0.85582 0.0
H1976 H 0.03732 0.59759 0.86748 0.0
H1977 H 0.00568 0.57596 0.86097 0.0
C1978 C 0.20727 0.14786 0.55268 0.0
C1979 C 0.22813 0.15421 0.54785 0.0
C1980 C 0.19508 0.15996 0.56638 0.0
C1981 C 0.19647 0.20736 0.60207 0.0
H1982 H 0.14364 0.21948 0.5736 0.0
C1983 C 0.15846 0.2889 0.60271 0.0
C1984 C 0.13631 0.29032 0.60201 0.0
C1985 C 0.16804 0.26918 0.60237 0.0
C1986 C 0.15806 0.21602 0.58213 0.0
H1987 H 0.25325 0.17699 0.55509 0.0
H1988 H 0.23191 0.19838 0.57847 0.0
H1989 H 0.16376 0.18913 0.56269 0.0
H1990 H 0.1068 0.27211 0.60163 0.0
H1991 H 0.12359 0.23767 0.60096 0.0
H1992 H 0.19118 0.23516 0.62069 0.0
C1993 C 0.22493 0.18397 0.57196 0.0
C1994 C 0.16962 0.19852 0.5759 0.0
C1995 C 0.23716 0.17178 0.5584 0.0
C1996 C 0.12392 0.27158 0.60188 0.0
C1997 C 0.13351 0.25185 0.60152 0.0
C1998 C 0.18491 0.22495 0.60827 0.0
C1999 C 0.20347 0.17873 0.57535 0.0
C2000 C 0.18934 0.19441 0.58526 0.0
C2001 C 0.15568 0.25046 0.60135 0.0
C2002 C 0.16596 0.22986 0.59782 0.0
H2003 H 0.19998 0.13418 0.54502 0.0
H2004 H 0.17873 0.15523 0.56905 0.0
H2005 H 0.21142 0.2044 0.60985 0.0
H2006 H 0.16848 0.30302 0.60301 0.0
H2007 H 0.18515 0.26867 0.60197 0.0
C2008 C 0.0561 0.95693 0.79685 0.0
C2009 C 0.06065 0.97745 0.78942 0.0
C2010 C 0.03846 0.95304 0.80952 0.0
C2011 C 0.98563 0.97169 0.81734 0.0
H2012 H 0.98519 0.93049 0.86288 0.0
C2013 C 0.90782 0.93632 0.85057 0.0
C2014 C 0.90753 0.91411 0.85223 0.0
C2015 C 0.92685 0.94745 0.84741 0.0
C2016 C 0.98507 0.94205 0.85022 0.0
H2017 H 0.05086 0.01015 0.78994 0.0
H2018 H 0.01954 0.00321 0.81192 0.0
H2019 H 0.01889 0.94467 0.84972 0.0
H2020 H 0.92704 0.88621 0.85241 0.0
H2021 H 0.96012 0.90555 0.84647 0.0
H2022 H 0.95192 0.96825 0.817 0.0
C2023 C 0.02977 0.99022 0.80796 0.0
C2024 C 0.00432 0.95021 0.84277 0.0
C2025 C 0.04764 -0.00582 0.79545 0.0
C2026 C 0.9267 0.9033 0.85111 0.0
C2027 C 0.9457 0.91442 0.84794 0.0
C2028 C 0.96637 0.96347 0.82474 0.0
C2029 C 0.02491 0.96955 0.81487 0.0
C2030 C 0.00477 0.9645 0.82575 0.0
C2031 C 0.94596 0.93658 0.84589 0.0
C2032 C 0.96596 0.94799 0.84072 0.0
H2033 H 0.06595 0.94376 0.79256 0.0
H2034 H 0.03494 0.9369 0.81435 0.0
H2035 H 0.98555 0.98255 0.80407 0.0
H2036 H 0.89333 0.94515 0.85161 0.0
H2037 H 0.92661 0.96454 0.84606 0.0
C2038 C 0.70403 0.31633 0.44816 0.0
C2039 C 0.72443 0.32407 0.44329 0.0
C2040 C 0.69423 0.30095 0.43549 0.0
C2041 C 0.70821 0.25788 0.39946 0.0
H2042 H 0.64719 0.2505 0.39815 0.0
C2043 C 0.63828 0.19066 0.37947 0.0
C2044 C 0.64851 0.17309 0.38805 0.0
C2045 C 0.64794 0.21073 0.38015 0.0
C2046 C 0.66425 0.25237 0.39786 0.0
H2047 H 0.74996 0.32279 0.42043 0.0
H2048 H 0.73257 0.29614 0.39793 0.0
H2049 H 0.66263 0.28435 0.4087 0.0
H2050 H 0.67702 0.16259 0.40369 0.0
H2051 H 0.69342 0.1976 0.40588 0.0
H2052 H 0.70983 0.226 0.38832 0.0
C2053 C 0.72439 0.30164 0.4119 0.0
C2054 C 0.67313 0.27176 0.40424 0.0
C2055 C 0.73432 0.31696 0.42474 0.0
C2056 C 0.66875 0.17586 0.39694 0.0
C2057 C 0.67826 0.19595 0.39796 0.0
C2058 C 0.69933 0.2386 0.39272 0.0
C2059 C 0.70446 0.29304 0.41746 0.0
C2060 C 0.6952 0.27441 0.4061 0.0
C2061 C 0.66791 0.2137 0.38974 0.0
C2062 C 0.67725 0.23529 0.39279 0.0
H2063 H 0.6959 0.32146 0.4623 0.0
H2064 H 0.67907 0.2945 0.44056 0.0
H2065 H 0.72527 0.25929 0.40067 0.0
H2066 H 0.6228 0.18888 0.37217 0.0
H2067 H 0.63967 0.22393 0.37331 0.0
C2068 C 0.89915 0.42606 0.68685 0.0
C2069 C 0.90189 0.44674 0.69467 0.0
C2070 C 0.91294 0.4182 0.67172 0.0
C2071 C 0.9582 0.43225 0.63621 0.0
H2072 H 0.97684 0.37659 0.65302 0.0
C2073 C 0.04168 0.40067 0.62174 0.0
C2074 C 0.0441 0.37877 0.61883 0.0
C2075 C 0.02163 0.40897 0.6249 0.0
C2076 C 0.97156 0.39192 0.6477 0.0
H2077 H 0.92025 0.47594 0.69194 0.0
H2078 H 0.94509 0.4619 0.66614 0.0
H2079 H 0.94614 0.39141 0.66974 0.0
H2080 H 0.02728 0.3487 0.61502 0.0
H2081 H -0.00772 0.36325 0.62042 0.0
H2082 H 0.98458 0.43297 0.61489 0.0
C2083 C 0.93199 0.45188 0.67129 0.0
C2084 C 0.95388 0.40046 0.65731 0.0
C2085 C 0.91788 0.45989 0.68618 0.0
C2086 C 0.02597 0.36558 0.61764 0.0
C2087 C 0.00593 0.3739 0.62071 0.0
C2088 C 0.97604 0.42369 0.62662 0.0
C2089 C 0.93008 0.43069 0.66445 0.0
C2090 C 0.9472 0.42088 0.65201 0.0
C2091 C 0.00363 0.39555 0.62511 0.0
C2092 C 0.98312 0.4036 0.63262 0.0
H2093 H 0.88664 0.41574 0.69283 0.0
H2094 H 0.91067 0.40201 0.66634 0.0
H2095 H 0.95329 0.44792 0.63159 0.0
H2096 H 0.05532 0.4113 0.62252 0.0
H2097 H 0.02039 0.4257 0.6284 0.0
C2098 C 0.58312 0.56063 0.19868 0.0
C2099 C 0.57975 0.53865 0.19666 0.0
C2100 C 0.57055 0.57468 0.18738 0.0
C2101 C 0.52933 0.57754 0.14504 0.0
H2102 H 0.50376 0.61782 0.18318 0.0
C2103 C 0.44234 0.59859 0.14199 0.0
C2104 C 0.43604 0.61926 0.14673 0.0
C2105 C 0.4636 0.59328 0.143 0.0
C2106 C 0.51103 0.60707 0.1721 0.0
H2107 H 0.56171 0.51414 0.18011 0.0
H2108 H 0.53965 0.53849 0.16077 0.0
H2109 H 0.53586 0.60012 0.19385 0.0
H2110 H 0.44716 0.65082 0.15546 0.0
H2111 H 0.48449 0.64134 0.15767 0.0
H2112 H 0.50356 0.58353 0.12393 0.0
C2113 C 0.55207 0.545 0.17084 0.0
C2114 C 0.52949 0.59692 0.1782 0.0
C2115 C 0.56459 0.531 0.18211 0.0
C2116 C 0.45154 0.63472 0.15185 0.0
C2117 C 0.47287 0.62933 0.1531 0.0
C2118 C 0.51081 0.58761 0.139 0.0
C2119 C 0.55444 0.56699 0.17385 0.0
C2120 C 0.53828 0.58134 0.16514 0.0
C2121 C 0.47904 0.60848 0.14893 0.0
C2122 C 0.501 0.60176 0.15289 0.0
H2123 H 0.59483 0.56699 0.20965 0.0
H2124 H 0.57291 0.59154 0.18983 0.0
H2125 H 0.536 0.56593 0.13446 0.0
H2126 H 0.43079 0.58637 0.13777 0.0
H2127 H 0.46784 0.57701 0.14001 0.0
C2128 C 0.53361 0.69092 0.81695 0.0
C2129 C 0.53829 0.70998 0.82759 0.0
C2130 C 0.54824 0.68232 0.80303 0.0
C2131 C 0.58422 0.66348 0.77853 0.0
H2132 H 0.60724 0.70451 0.73866 0.0
C2133 C 0.62466 0.63559 0.70308 0.0
C2134 C 0.61735 0.64525 0.68448 0.0
C2135 C 0.62094 0.64471 0.72281 0.0
C2136 C 0.60101 0.69287 0.7497 0.0
H2137 H 0.56251 0.73423 0.83317 0.0
H2138 H 0.58816 0.71905 0.80894 0.0
H2139 H 0.58919 0.71673 0.77034 0.0
H2140 H 0.6017 0.67271 0.67177 0.0
H2141 H 0.59461 0.68838 0.70628 0.0
H2142 H 0.5947 0.63962 0.75727 0.0
C2143 C 0.57304 0.71097 0.81111 0.0
C2144 C 0.59089 0.69985 0.768 0.0
C2145 C 0.55838 0.71959 0.82504 0.0
C2146 C 0.60745 0.66489 0.68586 0.0
C2147 C 0.60352 0.67392 0.70566 0.0
C2148 C 0.59424 0.6565 0.76023 0.0
C2149 C 0.56788 0.69258 0.7995 0.0
C2150 C 0.5818 0.68521 0.78226 0.0
C2151 C 0.60964 0.66356 0.72437 0.0
C2152 C 0.60219 0.67111 0.74529 0.0
H2153 H 0.51828 0.68313 0.81862 0.0
H2154 H 0.54367 0.66825 0.79417 0.0
H2155 H 0.57763 0.65183 0.78938 0.0
H2156 H 0.63272 0.62062 0.70244 0.0
H2157 H 0.62629 0.6366 0.73689 0.0
C2158 C 0.51811 0.32676 0.08714 0.0
C2159 C 0.51955 0.30584 0.09443 0.0
C2160 C 0.53037 0.3337 0.07008 0.0
C2161 C 0.5415 0.33647 0.024 0.0
H2162 H 0.5958 0.31382 0.00821 0.0
C2163 C 0.56646 0.33001 0.93723 0.0
C2164 C 0.58779 0.33373 0.93208 0.0
C2165 C 0.56019 0.32894 0.95838 0.0
C2166 C 0.58077 0.32056 0.01246 0.0
H2167 H 0.53601 0.27626 0.0907 0.0
H2168 H 0.55678 0.28805 0.06049 0.0
H2169 H 0.58321 0.30968 0.04443 0.0
H2170 H 0.61927 0.33954 0.94497 0.0
H2171 H 0.60824 0.3381 0.98185 0.0
H2172 H 0.53913 0.34759 -0.00782 0.0
C2173 C 0.54656 0.29931 0.06811 0.0
C2174 C 0.57346 0.318 0.03317 0.0
C2175 C 0.53454 0.29247 0.08538 0.0
C2176 C 0.60273 0.33637 0.94846 0.0
C2177 C 0.59643 0.33552 0.9696 0.0
C2178 C 0.54889 0.33923 0.0034 0.0
C2179 C 0.54402 0.31974 0.05977 0.0
C2180 C 0.55348 0.32541 0.03901 0.0
C2181 C 0.57508 0.33185 0.9748 0.0
C2182 C 0.56832 0.33077 -0.00277 0.0
H2183 H 0.50692 0.33752 0.09409 0.0
H2184 H 0.52846 0.34973 0.0644 0.0
H2185 H 0.52592 0.34218 0.02781 0.0
H2186 H 0.5546 0.32787 0.92495 0.0
H2187 H 0.54368 0.32563 0.96185 0.0
C2188 C 0.95248 0.2829 0.29326 0.0
C2189 C 0.95353 0.26123 0.29795 0.0
C2190 C 0.93522 0.29067 0.28207 0.0
C2191 C 0.89697 0.27745 0.24237 0.0
H2192 H 0.8655 0.32465 0.2646 0.0
C2193 C 0.84312 0.32188 0.18695 0.0
C2194 C 0.84686 0.34387 0.18758 0.0
C2195 C 0.84904 0.30922 0.20401 0.0
C2196 C 0.87412 0.3115 0.25813 0.0
H2197 H 0.93782 0.23059 0.29422 0.0
H2198 H 0.90801 0.24418 0.27378 0.0
H2199 H 0.89202 0.30774 0.28675 0.0
H2200 H 0.8574 0.3701 0.20748 0.0
H2201 H 0.86846 0.34821 0.23662 0.0
H2202 H 0.88064 0.28206 0.21324 0.0
C2203 C 0.92033 0.2551 0.27919 0.0
C2204 C 0.88922 0.30182 0.27084 0.0
C2205 C 0.93736 0.24738 0.29077 0.0
C2206 C 0.85445 0.35317 0.20641 0.0
C2207 C 0.86071 0.34052 0.22328 0.0
C2208 C 0.88221 0.28738 0.22949 0.0
C2209 C 0.919 0.27684 0.27506 0.0
C2210 C 0.90113 0.28513 0.26281 0.0
C2211 C 0.85915 0.31831 0.22183 0.0
C2212 C 0.87109 0.305 0.23697 0.0
H2213 H 0.96466 0.29392 0.29875 0.0
H2214 H 0.9346 0.30748 0.27876 0.0
H2215 H 0.90605 0.2646 0.23589 0.0
H2216 H 0.83689 0.31431 0.17276 0.0
H2217 H 0.84692 0.29221 0.20265 0.0
C2218 C 0.96884 0.72046 0.5724 0.0
C2219 C 0.95573 0.73559 0.58171 0.0
C2220 C 0.96168 0.70841 0.55517 0.0
C2221 C 0.91414 0.68886 0.52774 0.0
H2222 H 0.94988 0.68867 0.47788 0.0
C2223 C 0.88347 0.66111 0.44606 0.0
C2224 C 0.89758 0.6512 0.43223 0.0
C2225 C 0.89062 0.66951 0.46531 0.0
C2226 C 0.93986 0.68816 0.49177 0.0
H2227 H 0.92461 0.7495 0.58066 0.0
H2228 H 0.91205 0.72819 0.55065 0.0
H2229 H 0.96223 0.70653 0.50993 0.0
H2230 H 0.93001 0.64144 0.42811 0.0
H2231 H 0.94238 0.65549 0.46201 0.0
H2232 H 0.89183 0.67032 0.50973 0.0
C2233 C 0.92787 0.72577 0.55671 0.0
C2234 C 0.94692 0.69849 0.51009 0.0
C2235 C 0.93512 0.73803 0.57378 0.0
C2236 C 0.91883 0.64924 0.43834 0.0
C2237 C 0.92593 0.65739 0.45772 0.0
C2238 C 0.90716 0.67828 0.50948 0.0
C2239 C 0.94119 0.71105 0.5471 0.0
C2240 C 0.93404 0.69912 0.52815 0.0
C2241 C 0.91198 0.66793 0.4713 0.0
C2242 C 0.91984 0.67802 0.49118 0.0
H2243 H 0.9848 0.71819 0.57814 0.0
H2244 H 0.97219 0.69705 0.54811 0.0
H2245 H 0.90402 0.68896 0.54157 0.0
H2246 H 0.867 0.66294 0.44175 0.0
H2247 H 0.87949 0.67779 0.47519 0.0
C2248 C 0.50239 0.30608 0.66046 0.0
C2249 C 0.50222 0.28408 0.6572 0.0
C2250 C 0.51649 0.31544 0.67487 0.0
C2251 C 0.56316 0.30491 0.70952 0.0
H2252 H 0.5368 0.34661 0.74551 0.0
C2253 C 0.58625 0.32167 0.79634 0.0
C2254 C 0.58581 0.3427 0.80363 0.0
C2255 C 0.58032 0.31675 0.77557 0.0
C2256 C 0.54457 0.3353 0.73537 0.0
H2257 H 0.51719 0.25471 0.66575 0.0
H2258 H 0.54116 0.27087 0.69166 0.0
H2259 H 0.51833 0.33385 0.71417 0.0
H2260 H 0.57998 0.37522 0.79451 0.0
H2261 H 0.56935 0.3665 0.75829 0.0
H2262 H 0.5889 0.30563 0.73174 0.0
C2263 C 0.53084 0.28104 0.6827 0.0
C2264 C 0.53401 0.32799 0.71732 0.0
C2265 C 0.51699 0.27172 0.66798 0.0
C2266 C 0.5803 0.35883 0.78944 0.0
C2267 C 0.57421 0.35387 0.76872 0.0
C2268 C 0.57364 0.31208 0.72778 0.0
C2269 C 0.53042 0.30296 0.68668 0.0
C2270 C 0.54297 0.31242 0.70437 0.0
C2271 C 0.57373 0.33274 0.76176 0.0
C2272 C 0.56424 0.32707 0.74104 0.0
H2273 H 0.49143 0.31604 0.65206 0.0
H2274 H 0.5161 0.33244 0.67712 0.0
H2275 H 0.57068 0.29319 0.6997 0.0
H2276 H 0.59065 0.30891 0.80682 0.0
H2277 H 0.57992 0.3003 0.77065 0.0
C2278 C 0.97897 0.30015 0.94113 0.0
C2279 C 0.97015 0.28012 0.93624 0.0
C2280 C 0.97084 0.3121 0.95774 0.0
C2281 C 0.92236 0.31891 0.9881 0.0
H2282 H 0.95872 0.34726 0.02939 0.0
C2283 C 0.91176 0.35508 0.07569 0.0
C2284 C 0.8929 0.36607 0.07243 0.0
C2285 C 0.92343 0.34795 0.05842 0.0
C2286 C 0.94842 0.33946 0.01792 0.0
H2287 H 0.94621 0.25669 0.94507 0.0
H2288 H 0.93197 0.27761 0.97406 0.0
H2289 H 0.97447 0.32669 0.00073 0.0
H2290 H 0.87264 0.38003 0.04861 0.0
H2291 H 0.89312 0.36772 0.01856 0.0
H2292 H 0.89633 0.33114 0.00541 0.0
C2293 C 0.94505 0.28412 0.96493 0.0
C2294 C 0.9574 0.32782 0.0015 0.0
C2295 C 0.95325 0.27212 0.94841 0.0
C2296 C 0.8869 0.37128 0.05165 0.0
C2297 C 0.89857 0.36419 0.03444 0.0
C2298 C 0.91342 0.33062 0.00437 0.0
C2299 C 0.95368 0.30427 0.96964 0.0
C2300 C 0.94441 0.31724 0.98662 0.0
C2301 C 0.91646 0.35175 0.03765 0.0
C2302 C 0.92633 0.34087 0.01954 0.0
H2303 H -0.00793 0.30668 0.93205 0.0
H2304 H 0.97767 0.32764 0.96096 0.0
H2305 H 0.912 0.31112 0.97669 0.0
H2306 H 0.91688 0.35093 0.09152 0.0
H2307 H 0.93715 0.33836 0.06136 0.0
C2308 C 0.90584 0.71054 0.16272 0.0
C2309 C 0.92287 0.70599 0.14933 0.0
C2310 C 0.89899 0.69586 0.1778 0.0
C2311 C 0.92112 0.65305 0.20931 0.0
H2312 H 0.86505 0.65303 0.23414 0.0
C2313 C 0.90249 0.61649 0.29134 0.0
C2314 C 0.89401 0.63154 0.30521 0.0
C2315 C 0.90339 0.62047 0.26958 0.0
C2316 C 0.88071 0.65271 0.22722 0.0
H2317 H 0.94477 0.6817 0.13987 0.0
H2318 H 0.93244 0.65582 0.16593 0.0
H2319 H 0.87058 0.66817 0.19895 0.0
H2320 H 0.87911 0.66214 0.30718 0.0
H2321 H 0.88051 0.66896 0.2692 0.0
H2322 H 0.93126 0.63804 0.23787 0.0
C2323 C 0.9248 0.671 0.16518 0.0
C2324 C 0.88392 0.66143 0.20716 0.0
C2325 C 0.93181 0.6858 0.15019 0.0
C2326 C 0.88593 0.65035 0.29689 0.0
C2327 C 0.88649 0.65414 0.27516 0.0
C2328 C 0.91782 0.64406 0.22924 0.0
C2329 C 0.90885 0.67618 0.17969 0.0
C2330 C 0.90436 0.66258 0.19839 0.0
C2331 C 0.8954 0.63935 0.26135 0.0
C2332 C 0.89779 0.64464 0.2387 0.0
H2333 H 0.89853 0.72591 0.16242 0.0
H2334 H 0.88685 0.70056 0.18883 0.0
H2335 H 0.93711 0.65383 0.20322 0.0
H2336 H 0.90877 0.60182 0.29733 0.0
H2337 H 0.91038 0.60889 0.25919 0.0
C2338 C 0.51174 0.6689 0.42842 0.0
C2339 C 0.52384 0.68073 0.41386 0.0
C2340 C 0.52156 0.65516 0.4425 0.0
C2341 C 0.57407 0.65055 0.46733 0.0
H2342 H 0.54582 0.60556 0.49883 0.0
C2343 C 0.61206 0.61634 0.54129 0.0
C2344 C 0.59937 0.61801 0.55948 0.0
C2345 C 0.6032 0.61806 0.52115 0.0
C2346 C 0.5539 0.61802 0.49005 0.0
H2347 H 0.55517 0.6857 0.40077 0.0
H2348 H 0.57221 0.66072 0.42441 0.0
H2349 H 0.5302 0.61818 0.46576 0.0
H2350 H 0.56716 0.62119 0.57071 0.0
H2351 H 0.55167 0.62435 0.5353 0.0
H2352 H 0.59761 0.65052 0.49163 0.0
C2353 C 0.55531 0.66282 0.42581 0.0
C2354 C 0.54497 0.62532 0.47117 0.0
C2355 C 0.54556 0.677 0.41212 0.0
C2356 C 0.57738 0.62006 0.55702 0.0
C2357 C 0.56849 0.62169 0.53677 0.0
C2358 C 0.58312 0.64303 0.48591 0.0
C2359 C 0.54364 0.65265 0.44198 0.0
C2360 C 0.55465 0.64212 0.45988 0.0
C2361 C 0.58146 0.62136 0.51872 0.0
C2362 C 0.57289 0.62708 0.49772 0.0
H2363 H 0.49493 0.67151 0.43009 0.0
H2364 H 0.51197 0.64779 0.45473 0.0
H2365 H 0.58184 0.66382 0.45953 0.0
H2366 H 0.62901 0.61441 0.54257 0.0
H2367 H 0.61349 0.61753 0.50746 0.0
C2368 C 0.83424 0.54658 0.68432 0.0
C2369 C 0.84341 0.54972 0.70438 0.0
C2370 C 0.82101 0.56172 0.67572 0.0
C2371 C 0.78425 0.60077 0.69568 0.0
H2372 H 0.76914 0.60171 0.63618 0.0
C2373 C 0.70901 0.61707 0.63528 0.0
C2374 C 0.69311 0.60797 0.64805 0.0
C2375 C 0.72994 0.61819 0.64237 0.0
C2376 C 0.7732 0.60221 0.65285 0.0
H2377 H 0.84798 0.57222 0.73007 0.0
H2378 H 0.82514 0.59898 0.71478 0.0
H2379 H 0.80409 0.59062 0.64659 0.0
H2380 H 0.68629 0.59377 0.67854 0.0
H2381 H 0.7229 0.59452 0.69052 0.0
H2382 H 0.75339 0.61244 0.70194 0.0
C2383 C 0.82769 0.58452 0.70598 0.0
C2384 C 0.79325 0.59554 0.65884 0.0
C2385 C 0.84089 0.56925 0.71467 0.0
C2386 C 0.6983 0.60081 0.66838 0.0
C2387 C 0.71931 0.60148 0.6753 0.0
C2388 C 0.76433 0.60784 0.68967 0.0
C2389 C 0.81675 0.58044 0.68691 0.0
C2390 C 0.79854 0.5935 0.68037 0.0
C2391 C 0.73549 0.60979 0.6622 0.0
C2392 C 0.75811 0.60745 0.66826 0.0
H2393 H 0.83604 0.53177 0.67589 0.0
H2394 H 0.81281 0.55783 0.66109 0.0
H2395 H 0.78771 0.5995 0.71243 0.0
H2396 H 0.70529 0.62314 0.61969 0.0
H2397 H 0.74181 0.62518 0.63206 0.0
C2398 C 0.73702 0.53048 0.9487 0.0
C2399 C 0.7319 0.54714 0.96241 0.0
C2400 C 0.72304 0.51333 0.94589 0.0
C2401 C 0.66721 0.49871 0.9478 0.0
H2402 H 0.68824 0.44148 0.94524 0.0
C2403 C 0.63844 0.40681 0.92788 0.0
C2404 C 0.62922 0.41018 0.90789 0.0
C2405 C 0.64778 0.42366 0.93907 0.0
C2406 C 0.68201 0.4573 0.94627 0.0
H2407 H 0.7081 0.55885 0.984 0.0
H2408 H 0.68353 0.5289 0.9788 0.0
H2409 H 0.71189 0.47044 0.95626 0.0
H2410 H 0.62097 0.43414 0.88484 0.0
H2411 H 0.63731 0.46346 0.90433 0.0
H2412 H 0.6375 0.48561 0.93711 0.0
C2413 C 0.69842 0.52917 0.97033 0.0
C2414 C 0.69561 0.47389 0.95235 0.0
C2415 C 0.71252 0.54624 0.97333 0.0
C2416 C 0.62813 0.43097 0.90009 0.0
C2417 C 0.63735 0.44782 0.91134 0.0
C2418 C 0.65362 0.48211 0.94154 0.0
C2419 C 0.70357 0.51257 0.95658 0.0
C2420 C 0.68848 0.49479 0.95268 0.0
C2421 C 0.64791 0.44421 0.93057 0.0
C2422 C 0.66104 0.46132 0.94028 0.0
H2423 H 0.75184 0.53067 0.94009 0.0
H2424 H 0.72728 0.50086 0.93498 0.0
H2425 H 0.66135 0.51471 0.94786 0.0
H2426 H 0.63937 0.39102 0.93445 0.0
H2427 H 0.65559 0.42051 0.95401 0.0
C2428 C 0.64476 0.44749 0.18403 0.0
C2429 C 0.63436 0.43589 0.19997 0.0
C2430 C 0.65673 0.43711 0.16884 0.0
C2431 C 0.68717 0.3885 0.16763 0.0
H2432 H 0.71112 0.41714 0.11873 0.0
C2433 C 0.77531 0.39386 0.1555 0.0
C2434 C 0.78415 0.3947 0.13515 0.0
C2435 C 0.75346 0.39332 0.15811 0.0
C2436 C 0.70443 0.40854 0.13204 0.0
H2437 H 0.62565 0.40438 0.21081 0.0
H2438 H 0.64568 0.38612 0.1836 0.0
H2439 H 0.67549 0.42539 0.13019 0.0
H2440 H 0.777 0.39517 0.10148 0.0
H2441 H 0.73861 0.39415 0.1061 0.0
H2442 H 0.7161 0.37172 0.16952 0.0
C2443 C 0.64556 0.40326 0.18342 0.0
C2444 C 0.68408 0.41347 0.13879 0.0
C2445 C 0.63401 0.41369 0.19897 0.0
C2446 C 0.77063 0.39477 0.1174 0.0
C2447 C 0.74867 0.39412 0.12002 0.0
C2448 C 0.70728 0.3833 0.16064 0.0
C2449 C 0.65821 0.41488 0.16905 0.0
C2450 C 0.67584 0.40463 0.15758 0.0
C2451 C 0.73986 0.3934 0.14042 0.0
C2452 C 0.71669 0.39435 0.14372 0.0
H2453 H 0.64517 0.46464 0.18433 0.0
H2454 H 0.66625 0.44676 0.15822 0.0
H2455 H 0.68153 0.38116 0.18209 0.0
H2456 H 0.78527 0.3938 0.1695 0.0
H2457 H 0.74724 0.39337 0.17408 0.0
C2458 C 0.75982 0.43859 0.46688 0.0
C2459 C 0.76925 0.42462 0.4812 0.0
C2460 C 0.77092 0.45659 0.45991 0.0
C2461 C 0.80422 0.48295 0.43685 0.0
H2462 H 0.83719 0.51929 0.47466 0.0
C2463 C 0.86194 0.54476 0.40388 0.0
C2464 C 0.85928 0.56545 0.4115 0.0
C2465 C 0.85284 0.52754 0.41447 0.0
C2466 C 0.82802 0.50927 0.46397 0.0
H2467 H 0.79737 0.41883 0.49998 0.0
H2468 H 0.81672 0.45024 0.48775 0.0
H2469 H 0.81586 0.48995 0.48924 0.0
H2470 H 0.84651 0.58416 0.4372 0.0
H2471 H 0.83055 0.55392 0.45572 0.0
H2472 H 0.81618 0.50219 0.4116 0.0
C2473 C 0.80075 0.44732 0.48199 0.0
C2474 C 0.81593 0.49247 0.47226 0.0
C2475 C 0.78972 0.42927 0.48886 0.0
C2476 C 0.84874 0.56841 0.43085 0.0
C2477 C 0.83963 0.55112 0.44148 0.0
C2478 C 0.81639 0.49957 0.42857 0.0
C2479 C 0.79157 0.461 0.46725 0.0
C2480 C 0.80391 0.47919 0.45875 0.0
C2481 C 0.84095 0.53064 0.43292 0.0
C2482 C 0.82847 0.51284 0.44202 0.0
H2483 H 0.74402 0.43546 0.4608 0.0
H2484 H 0.76341 0.46702 0.44868 0.0
H2485 H 0.7953 0.47282 0.42605 0.0
H2486 H 0.87025 0.54189 0.38919 0.0
H2487 H 0.85447 0.51184 0.4078 0.0
C2488 C 0.8002 0.47201 0.78746 0.0
C2489 C 0.80581 0.46862 0.76624 0.0
C2490 C 0.78286 0.46108 0.79616 0.0
C2491 C 0.73278 0.43555 0.78422 0.0
H2492 H 0.74403 0.39842 0.83166 0.0
C2493 C 0.66749 0.38047 0.81734 0.0
C2494 C 0.66663 0.37835 0.83945 0.0
C2495 C 0.68514 0.38999 0.80775 0.0
C2496 C 0.7405 0.40892 0.81863 0.0
H2497 H 0.79739 0.45209 0.73718 0.0
H2498 H 0.76662 0.43356 0.75227 0.0
H2499 H 0.77268 0.42013 0.81683 0.0
H2500 H 0.68366 0.38407 0.86887 0.0
H2501 H 0.71392 0.40138 0.85235 0.0
H2502 H 0.70052 0.42519 0.78637 0.0
C2503 C 0.77581 0.44436 0.76218 0.0
C2504 C 0.75693 0.42127 0.81015 0.0
C2505 C 0.79338 0.45488 0.75362 0.0
C2506 C 0.68397 0.3853 0.85175 0.0
C2507 C 0.7014 0.39517 0.84223 0.0
C2508 C 0.71623 0.42353 0.79295 0.0
C2509 C 0.77069 0.44709 0.78358 0.0
C2510 C 0.75316 0.43464 0.79291 0.0
C2511 C 0.70208 0.39795 0.82013 0.0
C2512 C 0.71988 0.41005 0.81027 0.0
H2513 H 0.80962 0.48247 0.7975 0.0
H2514 H 0.77904 0.46341 0.81272 0.0
H2515 H 0.72961 0.44583 0.7709 0.0
H2516 H 0.65438 0.37508 0.80749 0.0
H2517 H 0.68534 0.39138 0.79065 0.0
C2518 C 0.8412 0.56578 0.01071 0.0
C2519 C 0.82592 0.5808 0.01573 0.0
C2520 C 0.85283 0.55622 0.02673 0.0
C2521 C 0.84353 0.54129 0.08145 0.0
H2522 H 0.8951 0.51043 0.07205 0.0
C2523 C 0.85593 0.46365 0.12426 0.0
C2524 C 0.85869 0.44718 0.10957 0.0
C2525 C 0.8598 0.48468 0.11839 0.0
C2526 C 0.88083 0.51915 0.07509 0.0
H2527 H 0.81261 0.59946 0.04115 0.0
H2528 H 0.83326 0.58305 0.06911 0.0
H2529 H 0.88792 0.54179 0.05079 0.0
H2530 H 0.86946 0.43966 0.07786 0.0
H2531 H 0.87573 0.47625 0.06749 0.0
H2532 H 0.83577 0.51806 0.10476 0.0
C2533 C 0.83579 0.57818 0.05286 0.0
C2534 C 0.87669 0.53705 0.06291 0.0
C2535 C 0.82394 0.58756 0.03685 0.0
C2536 C 0.86685 0.45201 0.08943 0.0
C2537 C 0.87075 0.473 0.08359 0.0
C2538 C 0.84774 0.52353 0.09368 0.0
C2539 C 0.84958 0.56164 0.0481 0.0
C2540 C 0.85735 0.54749 0.06506 0.0
C2541 C 0.86658 0.48959 0.09776 0.0
C2542 C 0.86579 0.51156 0.08973 0.0
H2543 H 0.84322 0.56038 -0.00545 0.0
H2544 H 0.86313 0.54342 0.0224 0.0
H2545 H 0.82842 0.54878 0.08354 0.0
H2546 H 0.85002 0.46041 0.14005 0.0
H2547 H 0.85664 0.49715 0.12968 0.0
C2548 C 0.68676 0.49835 0.2911 0.0
C2549 C 0.67404 0.50739 0.27536 0.0
C2550 C 0.70487 0.50908 0.29849 0.0
C2551 C 0.74306 0.55207 0.28508 0.0
H2552 H 0.75386 0.55215 0.34559 0.0
C2553 C 0.80012 0.59597 0.35182 0.0
C2554 C 0.81997 0.59408 0.34208 0.0
C2555 C 0.78208 0.58663 0.3427 0.0
C2556 C 0.75095 0.55247 0.32867 0.0
H2557 H 0.67057 0.53468 0.25482 0.0
H2558 H 0.70197 0.55342 0.2679 0.0
H2559 H 0.72309 0.53296 0.33161 0.0
H2560 H 0.83626 0.5817 0.3146 0.0
H2561 H 0.80479 0.56521 0.29885 0.0
H2562 H 0.77076 0.57194 0.28223 0.0
C2563 C 0.6981 0.53794 0.27435 0.0
C2564 C 0.73349 0.54121 0.32063 0.0
C2565 C 0.68002 0.52723 0.26694 0.0
C2566 C 0.82122 0.58341 0.32255 0.0
C2567 C 0.80317 0.57403 0.31347 0.0
C2568 C 0.76055 0.56335 0.29313 0.0
C2569 C 0.71063 0.52907 0.29031 0.0
C2570 C 0.72936 0.54086 0.29875 0.0
C2571 C 0.78348 0.57518 0.32367 0.0
C2572 C 0.76467 0.56367 0.31502 0.0
H2573 H 0.68267 0.48306 0.29785 0.0
H2574 H 0.71439 0.50168 0.31058 0.0
H2575 H 0.7404 0.55196 0.26812 0.0
H2576 H 0.79854 0.60425 0.36675 0.0
H2577 H 0.76705 0.58816 0.35072 0.0
C2578 C 0.67061 0.39815 0.5372 0.0
C2579 C 0.68934 0.39 0.5457 0.0
C2580 C 0.65937 0.4133 0.54844 0.0
C2581 C 0.67533 0.45664 0.58107 0.0
H2582 H 0.61586 0.47049 0.58391 0.0
C2583 C 0.63176 0.5307 0.61689 0.0
C2584 C 0.6387 0.54693 0.60317 0.0
C2585 C 0.63355 0.5095 0.61101 0.0
C2586 C 0.63248 0.46665 0.58321 0.0
H2587 H 0.7092 0.38875 0.57374 0.0
H2588 H 0.68955 0.41518 0.5933 0.0
H2589 H 0.62617 0.43427 0.57424 0.0
H2590 H 0.65201 0.55384 0.57224 0.0
H2591 H 0.65584 0.51662 0.56232 0.0
H2592 H 0.68173 0.48907 0.589 0.0
C2593 C 0.68381 0.41018 0.57785 0.0
C2594 C 0.63834 0.44607 0.57779 0.0
C2595 C 0.69505 0.39508 0.56664 0.0
C2596 C 0.6466 0.54165 0.58312 0.0
C2597 C 0.64874 0.52045 0.57743 0.0
C2598 C 0.6695 0.47714 0.58606 0.0
C2599 C 0.66673 0.42038 0.56828 0.0
C2600 C 0.65986 0.44098 0.57659 0.0
C2601 C 0.64257 0.50431 0.5915 0.0
C2602 C 0.6481 0.48233 0.58692 0.0
H2603 H 0.66571 0.39433 0.52116 0.0
H2604 H 0.64622 0.42093 0.54073 0.0
H2605 H 0.69203 0.45327 0.57982 0.0
H2606 H 0.62537 0.53438 0.63235 0.0
H2607 H 0.62887 0.49719 0.62209 0.0
C2608 C 0.72018 0.81626 0.54439 0.0
C2609 C 0.73923 0.82408 0.55314 0.0
C2610 C 0.70826 0.80081 0.555 0.0
C2611 C 0.6817 0.77195 0.58237 0.0
H2612 H 0.71481 0.72783 0.60816 0.0
C2613 C 0.64326 0.69319 0.61032 0.0
C2614 C 0.65462 0.67491 0.60548 0.0
C2615 C 0.65276 0.71323 0.60815 0.0
C2616 C 0.70532 0.73997 0.60095 0.0
H2617 H 0.76003 0.82304 0.58048 0.0
H2618 H 0.7388 0.79661 0.59943 0.0
H2619 H 0.73231 0.76018 0.59642 0.0
H2620 H 0.68479 0.66323 0.59464 0.0
H2621 H 0.70101 0.69801 0.59004 0.0
H2622 H 0.65498 0.75093 0.58536 0.0
C2623 C 0.73343 0.80183 0.58402 0.0
C2624 C 0.71531 0.75874 0.59453 0.0
C2625 C 0.74556 0.81702 0.57322 0.0
C2626 C 0.67564 0.67702 0.59856 0.0
C2627 C 0.68502 0.697 0.59614 0.0
C2628 C 0.67175 0.753 0.58848 0.0
C2629 C 0.71493 0.79311 0.57478 0.0
C2630 C 0.70373 0.77472 0.5846 0.0
C2631 C 0.67371 0.71536 0.60091 0.0
C2632 C 0.68358 0.73655 0.59725 0.0
H2633 H 0.71493 0.82139 0.52891 0.0
H2634 H 0.69434 0.79426 0.54718 0.0
H2635 H 0.6722 0.78412 0.57522 0.0
H2636 H 0.6271 0.69201 0.61595 0.0
H2637 H 0.64369 0.72703 0.61221 0.0
C2638 C 0.2056 0.65983 0.41798 0.0
C2639 C 0.19238 0.65357 0.43483 0.0
C2640 C 0.19854 0.67425 0.40291 0.0
C2641 C 0.18587 0.71944 0.3932 0.0
H2642 H 0.12934 0.72396 0.36993 0.0
C2643 C 0.15325 0.80062 0.37059 0.0
C2644 C 0.13265 0.80406 0.378 0.0
C2645 C 0.16123 0.78012 0.36993 0.0
C2646 C 0.14521 0.72296 0.37632 0.0
H2647 H 0.16074 0.6555 0.44778 0.0
H2648 H 0.14834 0.68047 0.42133 0.0
H2649 H 0.14167 0.68962 0.38206 0.0
H2650 H 0.10406 0.78865 0.38992 0.0
H2651 H 0.11813 0.75335 0.38959 0.0
H2652 H 0.18893 0.7529 0.38931 0.0
C2653 C 0.16418 0.67439 0.41983 0.0
C2654 C 0.15228 0.70327 0.38309 0.0
C2655 C 0.17132 0.6602 0.43507 0.0
C2656 C 0.12002 0.78659 0.38415 0.0
C2657 C 0.12803 0.76622 0.3837 0.0
C2658 C 0.17871 0.73916 0.38675 0.0
C2659 C 0.17806 0.68233 0.40427 0.0
C2660 C 0.17237 0.70152 0.39233 0.0
C2661 C 0.14882 0.76271 0.37684 0.0
C2662 C 0.15795 0.74131 0.37909 0.0
H2663 H 0.2219 0.65489 0.41731 0.0
H2664 H 0.20947 0.68005 0.39095 0.0
H2665 H 0.20137 0.71859 0.40049 0.0
H2666 H 0.16325 0.81375 0.36546 0.0
H2667 H 0.17722 0.77796 0.36431 0.0
C2668 C 0.5455 0.98174 0.73792 0.0
C2669 C 0.56109 -0.00726 0.72628 0.0
C2670 C 0.52841 0.9719 0.7276 0.0
C2671 C 0.49837 0.97158 0.67745 0.0
H2672 H 0.47901 0.91644 0.69734 0.0
C2673 C 0.4179 0.93487 0.65373 0.0
C2674 C 0.41631 0.91285 0.65062 0.0
C2675 C 0.43667 0.9442 0.66114 0.0
C2676 C 0.48439 0.93169 0.6914 0.0
H2677 H 0.57091 0.00234 0.69474 0.0
H2678 H 0.54119 0.98493 0.67669 0.0
H2679 H 0.50963 0.93362 0.71398 0.0
H2680 H 0.43345 0.88344 0.65209 0.0
H2681 H 0.46639 0.89984 0.66483 0.0
H2682 H 0.4733 0.96951 0.65467 0.0
C2683 C 0.54203 0.98412 0.69381 0.0
C2684 C 0.50174 0.94168 0.70114 0.0
C2685 C 0.55908 -0.00596 0.70415 0.0
C2686 C 0.43411 0.90043 0.65451 0.0
C2687 C 0.45294 0.9098 0.66188 0.0
C2688 C 0.48106 0.96156 0.66766 0.0
C2689 C 0.52661 0.97279 0.70541 0.0
C2690 C 0.50874 0.96184 0.69446 0.0
C2691 C 0.45432 0.93175 0.6655 0.0
C2692 C 0.47372 0.94164 0.67472 0.0
H2693 H 0.54659 0.98057 0.75502 0.0
H2694 H 0.51657 0.96365 0.73702 0.0
H2695 H 0.5033 0.98716 0.67202 0.0
H2696 H 0.40452 0.94493 0.65084 0.0
H2697 H 0.43712 0.96111 0.66403 0.0
C2698 C 0.33316 0.31581 0.95233 0.0
C2699 C 0.31492 0.3281 0.95125 0.0
C2700 C 0.33735 0.30098 0.93655 0.0
C2701 C 0.30847 0.2668 0.89966 0.0
H2702 H 0.36504 0.25006 0.88418 0.0
C2703 C 0.35795 0.1926 0.86138 0.0
C2704 C 0.34924 0.17646 0.87421 0.0
C2705 C 0.35122 0.21344 0.8635 0.0
C2706 C 0.34907 0.25472 0.88787 0.0
H2707 H 0.28755 0.33552 0.93193 0.0
H2708 H 0.29494 0.30963 0.90439 0.0
H2709 H 0.35992 0.28407 0.90143 0.0
H2710 H 0.3251 0.16912 0.89762 0.0
H2711 H 0.31355 0.20534 0.90142 0.0
H2712 H 0.29771 0.23709 0.88679 0.0
C2713 C 0.30583 0.31129 0.9176 0.0
C2714 C 0.34619 0.27411 0.89798 0.0
C2715 C 0.30165 0.32616 0.93337 0.0
C2716 C 0.33232 0.18122 0.88769 0.0
C2717 C 0.32557 0.202 0.88974 0.0
C2718 C 0.31135 0.2474 0.88954 0.0
C2719 C 0.32339 0.29814 0.91933 0.0
C2720 C 0.32597 0.27995 0.90475 0.0
C2721 C 0.33557 0.21847 0.87834 0.0
C2722 C 0.33178 0.24078 0.88433 0.0
H2723 H 0.34375 0.31696 0.96583 0.0
H2724 H 0.35091 0.29093 0.93847 0.0
H2725 H 0.29268 0.2708 0.90474 0.0
H2726 H 0.37084 0.18943 0.85062 0.0
H2727 H 0.35897 0.22576 0.85426 0.0
C2728 C 0.42404 0.50007 0.68144 0.0
C2729 C 0.41403 0.50699 0.69999 0.0
C2730 C 0.44078 0.51185 0.67275 0.0
C2731 C 0.48393 0.54573 0.68956 0.0
H2732 H 0.49142 0.55848 0.62987 0.0
C2733 C 0.56498 0.56569 0.65348 0.0
C2734 C 0.56626 0.58497 0.64245 0.0
C2735 C 0.54534 0.55705 0.65917 0.0
C2736 C 0.48942 0.55506 0.64657 0.0
H2737 H 0.4131 0.53207 0.72352 0.0
H2738 H 0.44272 0.55241 0.7085 0.0
H2739 H 0.45775 0.54289 0.64226 0.0
H2740 H 0.54804 0.6098 0.62779 0.0
H2741 H 0.51357 0.59432 0.63743 0.0
H2742 H 0.51572 0.55729 0.69385 0.0
C2743 C 0.43749 0.53792 0.70071 0.0
C2744 C 0.47029 0.54615 0.65361 0.0
C2745 C 0.42055 0.52631 0.70924 0.0
C2746 C 0.54751 0.59499 0.63644 0.0
C2747 C 0.52783 0.58614 0.64184 0.0
C2748 C 0.50312 0.55429 0.68249 0.0
C2749 C 0.44796 0.53058 0.68262 0.0
C2750 C 0.46746 0.54135 0.67516 0.0
C2751 C 0.52666 0.56734 0.65361 0.0
C2752 C 0.50606 0.55886 0.66094 0.0
H2753 H 0.41925 0.48532 0.67388 0.0
H2754 H 0.44873 0.50582 0.65886 0.0
H2755 H 0.48218 0.54196 0.70622 0.0
H2756 H 0.57915 0.55759 0.65831 0.0
H2757 H 0.54473 0.54241 0.66809 0.0
C2758 C 0.74384 0.20168 0.00528 0.0
C2759 C 0.73996 0.18253 0.01598 0.0
C2760 C 0.75197 0.21927 0.01623 0.0
C2761 C 0.78679 0.23397 0.05798 0.0
H2762 H 0.75707 0.28695 0.06194 0.0
C2763 C 0.82245 0.30473 0.10416 0.0
C2764 C 0.8192 0.325 0.09587 0.0
C2765 C 0.81137 0.28722 0.09593 0.0
C2766 C 0.76575 0.27239 0.06073 0.0
H2767 H 0.74144 0.16662 0.04639 0.0
H2768 H 0.75639 0.19731 0.06535 0.0
H2769 H 0.7404 0.25673 0.04385 0.0
H2770 H 0.80197 0.34298 0.07248 0.0
H2771 H 0.7835 0.31243 0.05736 0.0
H2772 H 0.81262 0.2496 0.07369 0.0
C2773 C 0.75279 0.19869 0.04862 0.0
C2774 C 0.7561 0.25511 0.05052 0.0
C2775 C 0.74422 0.18125 0.0378 0.0
C2776 C 0.80464 0.32752 0.07929 0.0
C2777 C 0.79392 0.30998 0.07073 0.0
C2778 C 0.79666 0.25135 0.06777 0.0
C2779 C 0.75673 0.21776 0.03788 0.0
C2780 C 0.76659 0.23584 0.04908 0.0
C2781 C 0.79717 0.28958 0.0789 0.0
C2782 C 0.7863 0.27083 0.06922 0.0
H2783 H 0.74063 0.20303 0.98847 0.0
H2784 H 0.75503 0.23389 0.00771 0.0
H2785 H 0.79516 0.2192 0.05683 0.0
H2786 H 0.83343 0.30244 0.11714 0.0
H2787 H 0.81395 0.27186 0.10296 0.0
C2788 C 0.6013 0.04963 0.82824 0.0
C2789 C 0.60134 0.05712 0.80728 0.0
C2790 C 0.58825 0.05877 0.84343 0.0
C2791 C 0.54902 0.10171 0.85195 0.0
H2792 H 0.51533 0.05562 0.87572 0.0
C2793 C 0.46446 0.11464 0.8827 0.0
C2794 C 0.44959 0.10028 0.87379 0.0
C2795 C 0.48612 0.11066 0.88162 0.0
C2796 C 0.52466 0.06871 0.86937 0.0
H2797 H 0.58975 0.08156 0.78641 0.0
H2798 H 0.56671 0.09713 0.81257 0.0
H2799 H 0.5499 0.04847 0.86103 0.0
H2800 H 0.44576 0.06998 0.85783 0.0
H2801 H 0.48336 0.06319 0.85576 0.0
H2802 H 0.52286 0.12157 0.85875 0.0
C2803 C 0.57677 0.08435 0.81751 0.0
C2804 C 0.54465 0.06469 0.86119 0.0
C2805 C 0.58991 0.07531 0.80239 0.0
C2806 C 0.45678 0.08143 0.86473 0.0
C2807 C 0.47836 0.07743 0.86374 0.0
C2808 C 0.52894 0.10571 0.86007 0.0
C2809 C 0.57492 0.07545 0.83786 0.0
C2810 C 0.55666 0.08095 0.85146 0.0
C2811 C 0.4933 0.09218 0.87178 0.0
C2812 C 0.51616 0.08903 0.86793 0.0
H2813 H 0.61021 0.03581 0.83258 0.0
H2814 H 0.58757 0.05188 0.85912 0.0
H2815 H 0.55803 0.11465 0.84491 0.0
H2816 H 0.45944 0.12926 0.88993 0.0
H2817 H 0.49726 0.12222 0.8881 0.0
C2818 C 0.91261 0.96923 0.30209 0.0
C2819 C 0.89907 0.95531 0.2909 0.0
C2820 C 0.92644 0.9615 0.31737 0.0
C2821 C 0.95264 0.91141 0.33021 0.0
H2822 H 0.97857 0.94575 0.3746 0.0
C2823 C 0.02432 0.8818 0.37437 0.0
C2824 C 0.04213 0.89513 0.37121 0.0
C2825 C 0.004 0.88931 0.37114 0.0
C2826 C 0.9713 0.93596 0.36238 0.0
H2827 H 0.88781 0.92281 0.28816 0.0
H2828 H 0.91104 0.9094 0.31571 0.0
H2829 H 0.94649 0.95788 0.35698 0.0
H2830 H 0.05248 0.92736 0.36435 0.0
H2831 H 0.01678 0.94049 0.35864 0.0
H2832 H 0.97745 0.8896 0.33553 0.0
C2833 C 0.91182 0.92614 0.31204 0.0
C2834 C 0.95304 0.94292 0.35217 0.0
C2835 C 0.8984 0.9338 0.29634 0.0
C2836 C 0.0391 0.91665 0.36669 0.0
C2837 C 0.01868 0.92421 0.36356 0.0
C2838 C 0.97056 0.90432 0.34066 0.0
C2839 C 0.92667 0.93974 0.32212 0.0
C2840 C 0.94384 0.93101 0.3355 0.0
C2841 C 0.00107 0.91034 0.36486 0.0
C2842 C 0.98036 0.91675 0.35644 0.0
H2843 H 0.91345 0.98592 0.29814 0.0
H2844 H 0.93774 0.97248 0.32451 0.0
H2845 H 0.94646 0.90196 0.31719 0.0
H2846 H 0.02607 0.86522 0.37825 0.0
H2847 H 0.99062 0.87841 0.37246 0.0
C2848 C 0.43487 0.26964 0.20369 0.0
C2849 C 0.44412 0.28013 0.18636 0.0
C2850 C 0.41968 0.27977 0.21594 0.0
C2851 C 0.40623 0.33381 0.2303 0.0
H2852 H 0.36044 0.30651 0.26135 0.0
C2853 C 0.36659 0.37796 0.29732 0.0
C2854 C 0.36614 0.36642 0.31632 0.0
C2855 C 0.3695 0.36758 0.27803 0.0
C2856 C 0.37311 0.31435 0.25267 0.0
H2857 H 0.44358 0.30856 0.16708 0.0
H2858 H 0.41679 0.32588 0.18799 0.0
H2859 H 0.37833 0.2871 0.23321 0.0
H2860 H 0.36663 0.33482 0.32987 0.0
H2861 H 0.37241 0.31692 0.29645 0.0
H2862 H 0.40191 0.3606 0.25021 0.0
C2863 C 0.42166 0.31019 0.1926 0.0
C2864 C 0.38335 0.30325 0.23664 0.0
C2865 C 0.43701 0.30026 0.18063 0.0
C2866 C 0.36721 0.34422 0.31553 0.0
C2867 C 0.37025 0.33389 0.29631 0.0
C2868 C 0.39606 0.34485 0.24624 0.0
C2869 C 0.41339 0.30041 0.21081 0.0
C2870 C 0.40038 0.31272 0.22568 0.0
C2871 C 0.37212 0.34553 0.27744 0.0
C2872 C 0.3798 0.33507 0.25801 0.0
H2873 H 0.44003 0.25405 0.20831 0.0
H2874 H 0.41371 0.2719 0.23 0.0
H2875 H 0.41954 0.34146 0.22244 0.0
H2876 H 0.36537 0.39504 0.29738 0.0
H2877 H 0.37052 0.37691 0.26367 0.0
C2878 C 0.43228 0.6962 0.91508 0.0
C2879 C 0.45243 0.70578 0.91416 0.0
C2880 C 0.42652 0.68377 0.93241 0.0
C2881 C 0.41228 0.67783 0.97687 0.0
H2882 H 0.44837 0.64451 0.01309 0.0
C2883 C 0.41438 0.65407 0.06956 0.0
C2884 C 0.39312 0.6476 0.07215 0.0
C2885 C 0.42279 0.65695 0.04927 0.0
C2886 C 0.43817 0.65379 0.00307 0.0
H2887 H 0.48291 0.70902 0.92964 0.0
H2888 H 0.47254 0.68808 0.96067 0.0
H2889 H 0.46121 0.65599 0.97823 0.0
H2890 H 0.36442 0.63782 0.0555 0.0
H2891 H 0.37908 0.64291 0.02026 0.0
H2892 H 0.38941 0.67598 0.00161 0.0
C2893 C 0.46134 0.68961 0.94778 0.0
C2894 C 0.4455 0.66037 0.98317 0.0
C2895 C 0.46729 0.70165 0.93009 0.0
C2896 C 0.38074 0.64318 0.05409 0.0
C2897 C 0.38913 0.64605 0.03389 0.0
C2898 C 0.40496 0.67115 -0.00344 0.0
C2899 C 0.44057 0.68131 0.94951 0.0
C2900 C 0.43264 0.67259 0.9699 0.0
C2901 C 0.41007 0.65342 0.03127 0.0
C2902 C 0.41784 0.65921 0.00993 0.0
H2903 H 0.42069 0.69902 0.90277 0.0
H2904 H 0.41064 0.67702 0.9329 0.0
H2905 H 0.40215 0.68777 0.96745 0.0
H2906 H 0.42438 0.6574 0.08317 0.0
H2907 H 0.43895 0.66276 0.04768 0.0
C2908 C 0.06532 0.73531 0.67854 0.0
C2909 C 0.04854 0.72474 0.66809 0.0
C2910 C 0.07872 0.72422 0.69202 0.0
C2911 C 0.08864 0.70201 0.73284 0.0
H2912 H 0.10042 0.64211 0.72863 0.0
C2913 C 0.08891 0.64884 0.80521 0.0
C2914 C 0.10428 0.63321 0.80728 0.0
C2915 C 0.08725 0.66045 0.78658 0.0
C2916 C 0.0976 0.65892 0.72993 0.0
H2917 H 0.03363 0.69406 0.66219 0.0
H2918 H 0.05648 0.67487 0.68611 0.0
H2919 H 0.0901 0.66163 0.69693 0.0
H2920 H 0.13001 0.6175 0.79132 0.0
H2921 H 0.12689 0.63784 0.75843 0.0
H2922 H 0.09567 0.69924 0.76584 0.0
C2923 C 0.05962 0.69162 0.68374 0.0
C2924 C 0.09151 0.67007 0.71184 0.0
C2925 C 0.04637 0.70266 0.67012 0.0
C2926 C 0.11794 0.62939 0.79017 0.0
C2927 C 0.11617 0.641 0.77138 0.0
C2928 C 0.09476 0.69092 0.75083 0.0
C2929 C 0.07544 0.7024 0.69547 0.0
C2930 C 0.08618 0.69156 0.71327 0.0
C2931 C 0.1009 0.65676 0.7695 0.0
C2932 C 0.09846 0.6691 0.74974 0.0
H2933 H 0.06757 0.75229 0.67703 0.0
H2934 H 0.09105 0.73293 0.70046 0.0
H2935 H 0.08453 0.71848 0.73465 0.0
H2936 H 0.07814 0.65226 0.81804 0.0
H2937 H 0.07503 0.67219 0.78546 0.0
C2938 C -0.00923 0.30046 0.41161 0.0
C2939 C 0.00225 0.29429 0.39369 0.0
C2940 C 0.00089 0.31162 0.42803 0.0
C2941 C 0.05408 0.31599 0.45062 0.0
H2942 H 0.02831 0.35553 0.48935 0.0
C2943 C 0.09576 0.3413 0.5279 0.0
C2944 C 0.08294 0.34039 0.54604 0.0
C2945 C 0.08668 0.34028 0.50771 0.0
C2946 C 0.03569 0.34448 0.47865 0.0
H2947 H 0.03259 0.29682 0.3778 0.0
H2948 H 0.05005 0.31671 0.40614 0.0
H2949 H 0.01044 0.34645 0.45604 0.0
H2950 H 0.05045 0.33842 0.55719 0.0
H2951 H 0.03474 0.33619 0.52208 0.0
H2952 H 0.0789 0.31336 0.4734 0.0
C2953 C 0.03347 0.31237 0.40788 0.0
C2954 C 0.02547 0.33931 0.45961 0.0
C2955 C 0.02345 0.30105 0.39163 0.0
C2956 C 0.06083 0.33902 0.54355 0.0
C2957 C 0.05178 0.33798 0.5234 0.0
C2958 C 0.06425 0.32114 0.4696 0.0
C2959 C 0.02259 0.31693 0.42666 0.0
C2960 C 0.03438 0.32469 0.44557 0.0
C2961 C 0.0646 0.33834 0.50526 0.0
C2962 C 0.05498 0.33509 0.48403 0.0
H2963 H 0.9744 0.29545 0.41359 0.0
H2964 H -0.00793 0.31482 0.44233 0.0
H2965 H 0.0612 0.30435 0.44039 0.0
H2966 H 0.11283 0.34261 0.52927 0.0
H2967 H 0.09695 0.34083 0.494 0.0
C2968 C 0.43033 0.71456 0.34291 0.0
C2969 C 0.43334 0.73645 0.34606 0.0
C2970 C 0.4161 0.70699 0.32764 0.0
C2971 C 0.39608 0.72345 0.27663 0.0
H2972 H 0.36641 0.66915 0.27874 0.0
C2973 C 0.36785 0.68271 0.20034 0.0
C2974 C 0.37396 0.66149 0.19858 0.0
C2975 C 0.36836 0.69297 0.21993 0.0
C2976 C 0.37457 0.68437 0.27793 0.0
H2977 H 0.42252 0.76753 0.33685 0.0
H2978 H 0.39762 0.75423 0.31009 0.0
H2979 H 0.37884 0.68581 0.31159 0.0
H2980 H 0.38425 0.63406 0.21619 0.0
H2981 H 0.38566 0.6521 0.25028 0.0
H2982 H 0.3929 0.7216 0.24301 0.0
C2983 C 0.4065 0.74298 0.31931 0.0
C2984 C 0.38162 0.69392 0.29671 0.0
C2985 C 0.42071 0.75057 0.33467 0.0
C2986 C 0.37958 0.65045 0.21699 0.0
C2987 C 0.38019 0.66075 0.23658 0.0
C2988 C 0.38907 0.71392 0.25789 0.0
C2989 C 0.40459 0.72114 0.31517 0.0
C2990 C 0.39311 0.7132 0.29616 0.0
C2991 C 0.37506 0.68226 0.23817 0.0
C2992 C 0.3789 0.69393 0.25827 0.0
H2993 H 0.43966 0.70324 0.35157 0.0
H2994 H 0.41517 0.6901 0.32472 0.0
H2995 H 0.40513 0.73817 0.27561 0.0
H2996 H 0.36309 0.69158 0.1865 0.0
H2997 H 0.364 0.70946 0.22072 0.0
C2998 C 0.00047 0.68033 0.05526 0.0
C2999 C 0.01067 0.69153 0.07171 0.0
C3000 C 0.01176 0.66659 0.04242 0.0
C3001 C 0.06623 0.65787 0.0243 0.0
H3002 H 0.03888 0.61084 -0.00525 0.0
C3003 C 0.10558 0.61584 0.95389 0.0
C3004 C 0.09313 0.61763 0.93552 0.0
C3005 C 0.09678 0.61957 0.97384 0.0
C3006 C 0.04678 0.62378 0.00307 0.0
H3007 H 0.04039 0.69625 0.08844 0.0
H3008 H 0.06006 0.67174 0.06636 0.0
H3009 H 0.02125 0.62706 0.0249 0.0
H3010 H 0.06155 0.62326 0.92357 0.0
H3011 H 0.04612 0.62932 0.95839 0.0
H3012 H 0.09159 0.65472 0.00216 0.0
C3013 C 0.04345 0.674 0.063 0.0
C3014 C 0.03666 0.63319 0.02022 0.0
C3015 C 0.03218 0.68798 0.07571 0.0
C3016 C 0.07152 0.62193 0.93749 0.0
C3017 C 0.06266 0.62522 0.9574 0.0
C3018 C 0.07648 0.64824 0.00736 0.0
C3019 C 0.03348 0.66349 0.04588 0.0
C3020 C 0.04587 0.65091 0.03049 0.0
C3021 C 0.07532 0.62463 0.97569 0.0
C3022 C 0.06649 0.63164 -0.00387 0.0
H3023 H 0.98391 0.68275 0.05175 0.0
H3024 H 0.00358 0.65914 0.02919 0.0
H3025 H 0.07375 0.6716 0.03161 0.0
H3026 H 0.1223 0.61258 0.95279 0.0
H3027 H 0.10682 0.61904 0.98776 0.0
C3028 C 0.04357 0.30045 0.82504 0.0
C3029 C 0.03867 0.27987 0.83214 0.0
C3030 C 0.05726 0.30362 0.80802 0.0
C3031 C 0.07074 0.27782 0.75933 0.0
H3032 H 0.10866 0.3264 0.75284 0.0
C3033 C 0.09767 0.30606 0.67688 0.0
C3034 C 0.09567 0.32796 0.67364 0.0
C3035 C 0.09675 0.29763 0.69732 0.0
C3036 C 0.09815 0.31273 0.75441 0.0
H3037 H 0.0452 0.24655 0.82784 0.0
H3038 H 0.06893 0.25214 0.79767 0.0
H3039 H 0.09683 0.31589 0.78818 0.0
H3040 H 0.09183 0.35823 0.68937 0.0
H3041 H 0.08966 0.34352 0.7248 0.0
H3042 H 0.07086 0.27542 0.72557 0.0
C3043 C 0.06218 0.26576 0.8054 0.0
C3044 C 0.09149 0.30668 0.77462 0.0
C3045 C 0.04866 0.26259 0.82266 0.0
C3046 C 0.09333 0.34128 0.69128 0.0
C3047 C 0.09234 0.33285 0.71166 0.0
C3048 C 0.07727 0.28395 0.73911 0.0
C3049 C 0.06616 0.28628 0.79761 0.0
C3050 C 0.07709 0.28966 0.77717 0.0
C3051 C 0.0938 0.31091 0.71491 0.0
C3052 C 0.09038 0.30199 0.73638 0.0
H3053 H 0.03626 0.31409 0.83216 0.0
H3054 H 0.05985 0.3196 0.80223 0.0
H3055 H 0.05946 0.26476 0.76081 0.0
H3056 H 0.09978 0.2954 0.66362 0.0
H3057 H 0.09815 0.28068 0.69932 0.0
C3058 C 0.46042 0.29605 0.55247 0.0
C3059 C 0.44815 0.28611 0.5682 0.0
C3060 C 0.45246 0.31328 0.54134 0.0
C3061 C 0.40126 0.33425 0.52584 0.0
H3062 H 0.43553 0.37984 0.50195 0.0
C3063 C 0.3671 0.38446 0.46045 0.0
C3064 C 0.37994 0.38452 0.44231 0.0
C3065 C 0.37562 0.37938 0.48018 0.0
C3066 C 0.42574 0.36729 0.50867 0.0
H3067 H 0.41865 0.28715 0.5857 0.0
H3068 H 0.40505 0.31739 0.56669 0.0
H3069 H 0.45068 0.35681 0.52893 0.0
H3070 H 0.41217 0.38146 0.43095 0.0
H3071 H 0.42679 0.37202 0.46511 0.0
H3072 H 0.3767 0.34387 0.50504 0.0
C3073 C 0.42051 0.3116 0.56248 0.0
C3074 C 0.43442 0.35408 0.52401 0.0
C3075 C 0.4283 0.29426 0.57334 0.0
C3076 C 0.40176 0.3812 0.44457 0.0
C3077 C 0.41023 0.37604 0.46424 0.0
C3078 C 0.39262 0.34741 0.5106 0.0
C3079 C 0.43223 0.32095 0.54598 0.0
C3080 C 0.42244 0.33703 0.53226 0.0
C3081 C 0.39707 0.37421 0.48207 0.0
C3082 C 0.40496 0.36363 0.50134 0.0
H3083 H 0.47583 0.29011 0.54831 0.0
H3084 H 0.46178 0.32 0.52853 0.0
H3085 H 0.39168 0.32108 0.5316 0.0
H3086 H 0.35031 0.38738 0.45929 0.0
H3087 H 0.36519 0.37846 0.49376 0.0
C3088 C 0.14661 0.43298 0.29641 0.0
C3089 C 0.14285 0.43483 0.27457 0.0
C3090 C 0.16224 0.41969 0.30389 0.0
C3091 C 0.21346 0.40458 0.28613 0.0
H3092 H 0.21651 0.38039 0.34248 0.0
C3093 C 0.29324 0.39596 0.32773 0.0
C3094 C 0.29384 0.40374 0.34862 0.0
C3095 C 0.27396 0.39188 0.31764 0.0
C3096 C 0.2159 0.38702 0.32668 0.0
H3097 H 0.15089 0.42265 0.24353 0.0
H3098 H 0.17858 0.39948 0.25665 0.0
H3099 H 0.18202 0.3852 0.32574 0.0
H3100 H 0.27475 0.41263 0.37557 0.0
H3101 H 0.24098 0.40637 0.35763 0.0
H3102 H 0.24706 0.40782 0.28749 0.0
C3103 C 0.16945 0.40844 0.26794 0.0
C3104 C 0.1962 0.38962 0.31705 0.0
C3105 C 0.15363 0.42167 0.26045 0.0
C3106 C 0.27476 0.40684 0.35941 0.0
C3107 C 0.25543 0.40295 0.34921 0.0
C3108 C 0.2331 0.40203 0.29574 0.0
C3109 C 0.17453 0.40808 0.28965 0.0
C3110 C 0.19478 0.39936 0.29711 0.0
C3111 C 0.25484 0.39567 0.32812 0.0
C3112 C 0.23447 0.39413 0.3165 0.0
H3113 H 0.13827 0.44269 0.3077 0.0
H3114 H 0.16584 0.41992 0.32068 0.0
H3115 H 0.21293 0.41237 0.27087 0.0
H3116 H 0.30769 0.39293 0.31914 0.0
H3117 H 0.27403 0.38598 0.30151 0.0
C3118 C 0.32444 0.41698 0.04206 0.0
C3119 C 0.31767 0.42019 0.02111 0.0
C3120 C 0.33599 0.4327 0.05276 0.0
C3121 C 0.36538 0.4837 0.04637 0.0
H3122 H 0.342 0.49552 0.10181 0.0
C3123 C 0.36835 0.56569 0.08537 0.0
C3124 C 0.36893 0.56732 0.10759 0.0
C3125 C 0.36783 0.54591 0.07554 0.0
C3126 C 0.34913 0.4922 0.08661 0.0
H3127 H 0.31855 0.44187 -0.00547 0.0
H3128 H 0.33837 0.46968 0.01343 0.0
H3129 H 0.3304 0.46398 0.0828 0.0
H3130 H 0.37113 0.54948 0.13685 0.0
H3131 H 0.37038 0.51485 0.11961 0.0
H3132 H 0.38356 0.51247 0.05 0.0
C3133 C 0.33501 0.45486 0.02148 0.0
C3134 C 0.34244 0.4741 0.07566 0.0
C3135 C 0.32354 0.43902 0.0107 0.0
C3136 C 0.37038 0.54876 0.11971 0.0
C3137 C 0.3699 0.52893 0.10985 0.0
C3138 C 0.37213 0.50184 0.05738 0.0
C3139 C 0.34086 0.45205 0.0428 0.0
C3140 C 0.35011 0.4699 0.05523 0.0
C3141 C 0.36798 0.5273 0.08769 0.0
C3142 C 0.36367 0.50654 0.0774 0.0
H3143 H 0.32042 0.40247 0.0504 0.0
H3144 H 0.34062 0.42992 0.06904 0.0
H3145 H 0.37178 0.48069 0.03078 0.0
H3146 H 0.36746 0.57968 0.07552 0.0
H3147 H 0.36615 0.54524 0.05847 0.0
C3148 C 0.33054 0.5538 0.79173 0.0
C3149 C 0.32651 0.54602 0.77124 0.0
C3150 C 0.31732 0.56882 0.80073 0.0
C3151 C 0.26996 0.60226 0.7894 0.0
H3152 H 0.2555 0.5868 0.8471 0.0
C3153 C 0.18665 0.60202 0.82464 0.0
C3154 C 0.18389 0.60907 0.84553 0.0
C3155 C 0.20678 0.60187 0.81564 0.0
C3156 C 0.25963 0.59168 0.83116 0.0
H3157 H 0.30638 0.5487 0.74358 0.0
H3158 H 0.28273 0.57393 0.7595 0.0
H3159 H 0.28697 0.57254 0.83104 0.0
H3160 H 0.19979 0.62241 0.87313 0.0
H3161 H 0.23526 0.62138 0.85756 0.0
H3162 H 0.24128 0.61988 0.7892 0.0
C3163 C 0.29636 0.5691 0.76856 0.0
C3164 C 0.27778 0.58357 0.82189 0.0
C3165 C 0.30985 0.55444 0.75942 0.0
C3166 C 0.2015 0.61686 0.85699 0.0
C3167 C 0.22174 0.61629 0.84812 0.0
C3168 C 0.25156 0.61004 0.79858 0.0
C3169 C 0.29949 0.57596 0.78961 0.0
C3170 C 0.28279 0.58811 0.80062 0.0
C3171 C 0.22455 0.60842 0.82751 0.0
C3172 C 0.24593 0.60424 0.81929 0.0
H3173 H 0.3435 0.54779 0.80107 0.0
H3174 H 0.32062 0.57417 0.81673 0.0
H3175 H 0.27359 0.60659 0.7732 0.0
H3176 H 0.17329 0.59614 0.81541 0.0
H3177 H 0.20857 0.59551 0.79981 0.0
C3178 C 0.18064 0.56749 0.54916 0.0
C3179 C 0.18593 0.57374 0.52847 0.0
C3180 C 0.16786 0.54959 0.55261 0.0
C3181 C 0.15619 0.49839 0.52988 0.0
H3182 H 0.1133 0.4954 0.57368 0.0
C3183 C 0.12269 0.41817 0.55939 0.0
C3184 C 0.12173 0.41629 0.58157 0.0
C3185 C 0.12572 0.43802 0.54995 0.0
C3186 C 0.12525 0.49596 0.56141 0.0
H3187 H 0.18148 0.56654 0.4951 0.0
H3188 H 0.15943 0.53479 0.50123 0.0
H3189 H 0.12731 0.52985 0.56235 0.0
H3190 H 0.12249 0.43384 0.61117 0.0
H3191 H 0.12828 0.46817 0.59484 0.0
H3192 H 0.15517 0.46455 0.52979 0.0
C3193 C 0.1651 0.54393 0.51471 0.0
C3194 C 0.13317 0.51567 0.55488 0.0
C3195 C 0.17765 0.56209 0.51123 0.0
C3196 C 0.1232 0.4347 0.59404 0.0
C3197 C 0.12631 0.45447 0.58464 0.0
C3198 C 0.14842 0.47865 0.53656 0.0
C3199 C 0.16032 0.53741 0.53545 0.0
C3200 C 0.14917 0.51702 0.53953 0.0
C3201 C 0.12787 0.45636 0.5625 0.0
C3202 C 0.13337 0.4772 0.5529 0.0
H3203 H 0.18668 0.57622 0.56275 0.0
H3204 H 0.16462 0.54477 0.56877 0.0
H3205 H 0.16866 0.499 0.51813 0.0
H3206 H 0.12139 0.40431 0.54931 0.0
H3207 H 0.12659 0.43897 0.53284 0.0
C3208 C 0.17027 0.54046 0.23991 0.0
C3209 C 0.1557 0.53157 0.2254 0.0
C3210 C 0.1882 0.55158 0.23268 0.0
C3211 C 0.22189 0.55481 0.18529 0.0
H3212 H 0.24707 0.6041 0.21296 0.0
C3213 C 0.29155 0.60023 0.14842 0.0
C3214 C 0.3089 0.60483 0.16176 0.0
C3215 C 0.27234 0.59318 0.15686 0.0
C3216 C 0.24024 0.59026 0.2052 0.0
H3217 H 0.14765 0.5286 0.19208 0.0
H3218 H 0.1785 0.54839 0.17954 0.0
H3219 H 0.21379 0.58883 0.22639 0.0
H3220 H 0.31937 0.60647 0.19452 0.0
H3221 H 0.28561 0.59397 0.20927 0.0
H3222 H 0.24818 0.55618 0.16411 0.0
C3223 C 0.17651 0.54623 0.19645 0.0
C3224 C 0.22123 0.58152 0.21287 0.0
C3225 C 0.15877 0.53497 0.20364 0.0
C3226 C 0.30635 0.60291 0.18381 0.0
C3227 C 0.28702 0.59589 0.19228 0.0
C3228 C 0.24073 0.56358 0.1776 0.0
C3229 C 0.19175 0.55412 0.21084 0.0
C3230 C 0.21181 0.56375 0.20289 0.0
C3231 C 0.26997 0.59061 0.17882 0.0
C3232 C 0.25004 0.58144 0.18738 0.0
H3233 H 0.16832 0.53809 0.25679 0.0
H3234 H 0.19969 0.55738 0.24417 0.0
H3235 H 0.21539 0.54078 0.17758 0.0
H3236 H 0.29286 0.60176 0.13138 0.0
H3237 H 0.25933 0.58954 0.14615 0.0
C3238 C 0.21981 0.40619 0.94229 0.0
C3239 C 0.22111 0.4054 0.9645 0.0
C3240 C 0.20602 0.42002 0.93239 0.0
C3241 C 0.19332 0.46387 0.91959 0.0
H3242 H 0.13664 0.47898 0.93671 0.0
C3243 C 0.16108 0.54631 0.90679 0.0
C3244 C 0.14214 0.5476 0.89519 0.0
C3245 C 0.16783 0.5269 0.9144 0.0
C3246 C 0.15238 0.47472 0.93168 0.0
H3247 H 0.20774 0.41716 -0.00623 0.0
H3248 H 0.18373 0.44159 0.97639 0.0
H3249 H 0.15269 0.44689 0.9512 0.0
H3250 H 0.11493 0.52969 0.8833 0.0
H3251 H 0.12674 0.49555 0.89713 0.0
H3252 H 0.19342 0.49201 0.9008 0.0
C3253 C 0.19334 0.43142 0.96667 0.0
C3254 C 0.16156 0.45651 0.93999 0.0
C3255 C 0.20717 0.41753 0.97661 0.0
C3256 C 0.12968 0.52914 0.89205 0.0
C3257 C 0.13633 0.50967 0.90001 0.0
C3258 C 0.18429 0.48211 0.91156 0.0
C3259 C 0.19325 0.43335 0.94449 0.0
C3260 C 0.18224 0.45109 0.9342 0.0
C3261 C 0.15566 0.50842 0.91087 0.0
C3262 C 0.16393 0.48788 0.91781 0.0
H3263 H 0.23013 0.39681 0.93251 0.0
H3264 H 0.20601 0.42098 0.91525 0.0
H3265 H 0.20938 0.46029 0.91506 0.0
H3266 H 0.17103 0.56021 0.90953 0.0
H3267 H 0.18271 0.52629 0.92292 0.0
C3268 C 0.2918 0.43874 0.73515 0.0
C3269 C 0.31022 0.44464 0.72408 0.0
C3270 C 0.27634 0.42583 0.72544 0.0
C3271 C 0.25698 0.41282 0.6722 0.0
H3272 H 0.22317 0.36973 0.70082 0.0
C3273 C 0.18874 0.37013 0.62898 0.0
C3274 C 0.16961 0.36922 0.64025 0.0
C3275 C 0.2077 0.37518 0.63941 0.0
C3276 C 0.23248 0.38175 0.69265 0.0
H3277 H 0.32761 0.44063 0.69477 0.0
H3278 H 0.30088 0.418 0.67803 0.0
H3279 H 0.25314 0.3866 0.7193 0.0
H3280 H 0.15555 0.37165 0.67153 0.0
H3281 H 0.18845 0.38089 0.68952 0.0
H3282 H 0.2361 0.4086 0.64586 0.0
C3283 C 0.29808 0.42369 0.69397 0.0
C3284 C 0.24959 0.3914 0.70323 0.0
C3285 C 0.3134 0.43662 0.70359 0.0
C3286 C 0.16999 0.37239 0.66231 0.0
C3287 C 0.18891 0.3775 0.6727 0.0
C3288 C 0.23992 0.40324 0.66168 0.0
C3289 C 0.27916 0.41859 0.70455 0.0
C3290 C 0.26186 0.4072 0.69316 0.0
C3291 C 0.20789 0.37945 0.66129 0.0
C3292 C 0.2273 0.3878 0.67185 0.0
H3293 H 0.28899 0.44467 0.751 0.0
H3294 H 0.26183 0.42227 0.73393 0.0
H3295 H 0.26588 0.42521 0.66415 0.0
H3296 H 0.18903 0.3675 0.61202 0.0
H3297 H 0.22216 0.3762 0.63025 0.0
C3298 C 0.30327 0.58646 0.50035 0.0
C3299 C 0.28764 0.59547 0.48752 0.0
C3300 C 0.31904 0.57418 0.49129 0.0
C3301 C 0.34178 0.55675 0.43976 0.0
H3302 H 0.33965 0.50144 0.46622 0.0
C3303 C 0.34361 0.47899 0.39342 0.0
C3304 C 0.35063 0.46069 0.40358 0.0
C3305 C 0.34414 0.49839 0.40411 0.0
C3306 C 0.34105 0.51685 0.4588 0.0
H3307 H 0.27735 0.60022 0.45504 0.0
H3308 H 0.30443 0.57859 0.43939 0.0
H3309 H 0.32625 0.53161 0.48512 0.0
H3310 H 0.3658 0.4485 0.43179 0.0
H3311 H 0.36729 0.4824 0.45018 0.0
H3312 H 0.35557 0.54156 0.41289 0.0
C3313 C 0.30472 0.58106 0.45638 0.0
C3314 C 0.33334 0.53423 0.46971 0.0
C3315 C 0.28897 0.59324 0.46541 0.0
C3316 C 0.35977 0.46235 0.42383 0.0
C3317 C 0.36065 0.48174 0.43434 0.0
C3318 C 0.34958 0.53932 0.42882 0.0
C3319 C 0.31947 0.57081 0.46926 0.0
C3320 C 0.33273 0.55415 0.45994 0.0
C3321 C 0.35203 0.4998 0.42498 0.0
C3322 C 0.34842 0.51902 0.43789 0.0
H3323 H 0.30281 0.5881 0.51742 0.0
H3324 H 0.33035 0.5666 0.50157 0.0
H3325 H 0.34179 0.57203 0.43199 0.0
H3326 H 0.33664 0.4781 0.37774 0.0
H3327 H 0.33719 0.51194 0.39648 0.0
C3328 C 0.24551 0.19317 0.44103 0.0
C3329 C 0.26278 0.1804 0.44594 0.0
C3330 C 0.24835 0.21104 0.42819 0.0
C3331 C 0.2652 0.25549 0.41848 0.0
H3332 H 0.30644 0.25836 0.37308 0.0
C3333 C 0.33339 0.3165 0.38997 0.0
C3334 C 0.32246 0.33564 0.38976 0.0
C3335 C 0.3223 0.29721 0.39109 0.0
C3336 C 0.29479 0.25778 0.38564 0.0
H3337 H 0.29616 0.1754 0.44029 0.0
H3338 H 0.30114 0.20645 0.41821 0.0
H3339 H 0.29259 0.22394 0.38476 0.0
H3340 H 0.29127 0.34952 0.38951 0.0
H3341 H 0.27198 0.31579 0.39163 0.0
H3342 H 0.26816 0.28921 0.42012 0.0
C3343 C 0.28539 0.20274 0.42403 0.0
C3344 C 0.28684 0.23813 0.39228 0.0
C3345 C 0.28259 0.18507 0.43692 0.0
C3346 C 0.30019 0.33506 0.38993 0.0
C3347 C 0.28911 0.31577 0.39112 0.0
C3348 C 0.27311 0.27514 0.4118 0.0
C3349 C 0.26845 0.21621 0.41994 0.0
C3350 C 0.27269 0.23676 0.40939 0.0
C3351 C 0.30007 0.29668 0.39202 0.0
C3352 C 0.28864 0.2764 0.39594 0.0
H3353 H 0.23003 0.18983 0.44772 0.0
H3354 H 0.23501 0.22112 0.42519 0.0
H3355 H 0.25446 0.25494 0.43183 0.0
H3356 H 0.35052 0.31639 0.38969 0.0
H3357 H 0.33119 0.28276 0.39207 0.0
C3358 C 0.76573 0.30665 0.55063 0.0
C3359 C 0.78111 0.31741 0.53844 0.0
C3360 C 0.77177 0.29171 0.56567 0.0
C3361 C 0.81674 0.27351 0.59729 0.0
H3362 H 0.79554 0.21678 0.58499 0.0
C3363 C 0.86686 0.20078 0.608 0.0
C3364 C 0.85735 0.18085 0.6116 0.0
C3365 C 0.8545 0.21869 0.60602 0.0
C3366 C 0.80124 0.23252 0.58919 0.0
H3367 H 0.81481 0.32176 0.53305 0.0
H3368 H 0.82532 0.29588 0.55943 0.0
H3369 H 0.77874 0.24701 0.5687 0.0
H3370 H 0.82756 0.16425 0.61761 0.0
H3371 H 0.80594 0.19567 0.61444 0.0
H3372 H 0.8397 0.25905 0.61722 0.0
C3373 C 0.80863 0.29896 0.55734 0.0
C3374 C 0.79161 0.24983 0.57979 0.0
C3375 C 0.80261 0.31357 0.54208 0.0
C3376 C 0.83531 0.17937 0.61445 0.0
C3377 C 0.82293 0.19735 0.61264 0.0
C3378 C 0.82621 0.25622 0.60692 0.0
C3379 C 0.79328 0.2877 0.56904 0.0
C3380 C 0.79993 0.27034 0.58299 0.0
C3381 C 0.83234 0.21711 0.60782 0.0
C3382 C 0.81924 0.23548 0.60211 0.0
H3383 H 0.74903 0.30936 0.54815 0.0
H3384 H 0.75968 0.28311 0.57447 0.0
H3385 H 0.82321 0.28927 0.60018 0.0
H3386 H 0.88381 0.20248 0.60585 0.0
H3387 H 0.8623 0.23356 0.60198 0.0
C3388 C 0.42702 0.98718 0.30666 0.0
C3389 C 0.41177 -0.0016 0.2953 0.0
C3390 C 0.44255 -0.00193 0.31843 0.0
C3391 C 0.4693 0.0504 0.31895 0.0
H3392 H 0.49694 0.02876 0.36915 0.0
C3393 C 0.53991 0.09463 0.35664 0.0
C3394 C 0.55775 0.08213 0.36009 0.0
C3395 C 0.5202 0.08514 0.35249 0.0
C3396 C 0.48932 0.03496 0.35515 0.0
H3397 H 0.39958 0.02957 0.28875 0.0
H3398 H 0.42608 0.0485 0.30987 0.0
H3399 H 0.46503 0.01081 0.35553 0.0
H3400 H 0.56865 0.04987 0.36304 0.0
H3401 H 0.53422 0.03335 0.35563 0.0
H3402 H 0.49365 0.07433 0.31837 0.0
C3403 C 0.42665 0.03139 0.30909 0.0
C3404 C 0.47111 0.02468 0.34731 0.0
C3405 C 0.4114 0.02054 0.29707 0.0
C3406 C 0.55526 0.05995 0.36025 0.0
C3407 C 0.53551 0.05047 0.3562 0.0
C3408 C 0.48733 0.06072 0.32687 0.0
C3409 C 0.44289 0.02036 0.31926 0.0
C3410 C 0.46106 0.03213 0.32894 0.0
C3411 C 0.5179 0.06298 0.35183 0.0
C3412 C 0.49769 0.05296 0.34485 0.0
H3413 H 0.42767 0.97009 0.30553 0.0
H3414 H 0.45489 0.98907 0.32593 0.0
H3415 H 0.46233 0.05632 0.30449 0.0
H3416 H 0.54123 0.11175 0.3566 0.0
H3417 H 0.50681 0.09514 0.34941 0.0
C3418 C 0.71062 0.64616 0.04193 0.0
C3419 C 0.73277 0.64578 0.04035 0.0
C3420 C 0.70094 0.66051 0.05549 0.0
C3421 C 0.71201 0.71301 0.07731 0.0
H3422 H 0.65752 0.70469 0.10452 0.0
C3423 C 0.66826 0.78368 0.11077 0.0
C3424 C 0.64693 0.78487 0.10463 0.0
C3425 C 0.67909 0.76479 0.10863 0.0
C3426 C 0.67275 0.70723 0.09699 0.0
H3427 H 0.76221 0.65881 0.053 0.0
H3428 H 0.74532 0.68367 0.0769 0.0
H3429 H 0.67642 0.6741 0.09094 0.0
H3430 H 0.61987 0.7669 0.09258 0.0
H3431 H 0.63897 0.73401 0.08823 0.0
H3432 H 0.70811 0.74606 0.08246 0.0
C3433 C 0.73542 0.67322 0.06731 0.0
C3434 C 0.68356 0.68974 0.08926 0.0
C3435 C 0.74509 0.65895 0.05367 0.0
C3436 C 0.63633 0.76649 0.09734 0.0
C3437 C 0.64725 0.7476 0.09501 0.0
C3438 C 0.70123 0.73042 0.085 0.0
C3439 C 0.71325 0.67468 0.06779 0.0
C3440 C 0.7031 0.69252 0.07891 0.0
C3441 C 0.66889 0.74672 0.10011 0.0
C3442 C 0.68128 0.72781 0.09452 0.0
H3443 H 0.7007 0.63612 0.03194 0.0
H3444 H 0.68384 0.66133 0.05534 0.0
H3445 H 0.72681 0.71579 0.06906 0.0
H3446 H 0.67675 0.79749 0.11685 0.0
H3447 H 0.69563 0.7645 0.11312 0.0
C3448 C 0.56129 0.46013 0.29679 0.0
C3449 C 0.56669 0.48139 0.29263 0.0
C3450 C 0.5464 0.45498 0.31227 0.0
C3451 C 0.4993 0.4764 0.33521 0.0
H3452 H 0.50074 0.42547 0.36944 0.0
C3453 C 0.4233 0.44271 0.37166 0.0
C3454 C 0.4199 0.42099 0.36776 0.0
C3455 C 0.4434 0.45189 0.36925 0.0
C3456 C 0.50012 0.43977 0.36002 0.0
H3457 H 0.56158 0.51392 0.30205 0.0
H3458 H 0.53516 0.50487 0.32906 0.0
H3459 H 0.5332 0.43892 0.35284 0.0
H3460 H 0.43506 0.39161 0.35952 0.0
H3461 H 0.47 0.40772 0.3546 0.0
H3462 H 0.46612 0.47665 0.34117 0.0
C3463 C 0.54251 0.49225 0.32028 0.0
C3464 C 0.51869 0.44749 0.35061 0.0
C3465 C 0.55759 0.4974 0.30486 0.0
C3466 C 0.43719 0.40841 0.36253 0.0
C3467 C 0.45727 0.41764 0.35991 0.0
C3468 C 0.48074 0.46864 0.34452 0.0
C3469 C 0.53651 0.47099 0.32383 0.0
C3470 C 0.51826 0.46544 0.33749 0.0
C3471 C 0.46046 0.43958 0.3627 0.0
C3472 C 0.4808 0.44982 0.3564 0.0
H3473 H 0.56818 0.44743 0.28772 0.0
H3474 H 0.54188 0.43849 0.31442 0.0
H3475 H 0.49843 0.49013 0.32499 0.0
H3476 H 0.41033 0.45273 0.37615 0.0
H3477 H 0.44543 0.46875 0.37193 0.0
C3478 C 0.19342 0.82163 0.9242 0.0
C3479 C 0.21501 0.82652 0.92129 0.0
C3480 C 0.18311 0.8069 0.91112 0.0
C3481 C 0.16276 0.77575 0.8808 0.0
H3482 H 0.19781 0.72627 0.87632 0.0
C3483 C 0.12882 0.69088 0.86435 0.0
C3484 C 0.13645 0.67581 0.87873 0.0
C3485 C 0.13831 0.71108 0.86317 0.0
C3486 C 0.18784 0.74 0.87729 0.0
H3487 H 0.24208 0.82159 0.90092 0.0
H3488 H 0.22391 0.79613 0.87777 0.0
H3489 H 0.21413 0.76036 0.88454 0.0
H3490 H 0.16 0.67015 0.9031 0.0
H3491 H 0.17622 0.70513 0.90119 0.0
H3492 H 0.13627 0.75475 0.87524 0.0
C3493 C 0.21513 0.80323 0.89058 0.0
C3494 C 0.19722 0.75966 0.88171 0.0
C3495 C 0.22553 0.81785 0.90381 0.0
C3496 C 0.15368 0.68133 0.89185 0.0
C3497 C 0.16317 0.70134 0.89059 0.0
C3498 C 0.15335 0.75597 0.87649 0.0
C3499 C 0.19408 0.79685 0.89469 0.0
C3500 C 0.1847 0.7776 0.88453 0.0
C3501 C 0.15571 0.7164 0.87617 0.0
C3502 C 0.16574 0.73778 0.87574 0.0
H3503 H 0.18476 0.82816 0.93739 0.0
H3504 H 0.16697 0.8023 0.91494 0.0
H3505 H 0.15272 0.78935 0.88242 0.0
H3506 H 0.11562 0.68706 0.85395 0.0
H3507 H 0.13223 0.72242 0.85195 0.0
C3508 C 0.42283 0.95548 0.18426 0.0
C3509 C 0.41386 0.94089 0.19863 0.0
C3510 C 0.43697 0.94874 0.16878 0.0
C3511 C 0.45678 0.90134 0.14134 0.0
H3512 H 0.5113 0.93037 0.14464 0.0
C3513 C 0.53503 0.85992 0.12748 0.0
C3514 C 0.55285 0.87177 0.12095 0.0
C3515 C 0.5156 0.86971 0.1301 0.0
C3516 C 0.49609 0.92234 0.14295 0.0
H3517 H 0.41186 0.90768 0.20738 0.0
H3518 H 0.4365 0.89599 0.18047 0.0
H3519 H 0.48092 0.94563 0.16188 0.0
H3520 H 0.56396 0.90258 0.11002 0.0
H3521 H 0.52992 0.91955 0.11406 0.0
H3522 H 0.47215 0.87766 0.123 0.0
C3523 C 0.43256 0.9126 0.1811 0.0
C3524 C 0.47866 0.93112 0.1529 0.0
C3525 C 0.41865 0.91935 0.19668 0.0
C3526 C 0.55055 0.89317 0.11552 0.0
C3527 C 0.53107 0.90289 0.11786 0.0
C3528 C 0.4742 0.89264 0.1312 0.0
C3529 C 0.44212 0.92726 0.16724 0.0
C3530 C 0.45907 0.92028 0.15291 0.0
C3531 C 0.51357 0.89147 0.12595 0.0
C3532 C 0.49424 0.90262 0.13264 0.0
H3533 H 0.41935 0.97218 0.1853 0.0
H3534 H 0.44414 0.96034 0.15825 0.0
H3535 H 0.44173 0.89285 0.14088 0.0
H3536 H 0.53633 0.84338 0.1317 0.0
H3537 H 0.50255 0.86046 0.13658 0.0
C3538 C 0.10042 0.04592 0.69138 0.0
C3539 C 0.09468 0.02433 0.69225 0.0
C3540 C 0.09065 0.05928 0.67686 0.0
C3541 C 0.05193 0.06006 0.63185 0.0
H3542 H 0.02864 0.10667 0.66366 0.0
C3543 C 0.96651 0.08546 0.62515 0.0
C3544 C 0.96118 0.1067 0.6284 0.0
C3545 C 0.98755 0.07934 0.62619 0.0
C3546 C 0.03534 0.09413 0.65423 0.0
H3547 H 0.07575 -0.00059 0.67738 0.0
H3548 H 0.05836 0.02264 0.65257 0.0
H3549 H 0.05897 0.08837 0.67753 0.0
H3550 H 0.97388 0.13843 0.63396 0.0
H3551 H 0.01072 0.1276 0.63606 0.0
H3552 H 0.02709 0.06497 0.60934 0.0
C3553 C 0.07053 0.02936 0.66281 0.0
C3554 C 0.05283 0.08361 0.66218 0.0
C3555 C 0.08035 0.01602 0.67722 0.0
C3556 C 0.97745 0.12188 0.63164 0.0
C3557 C -0.00146 0.11572 0.6328 0.0
C3558 C 0.03434 0.07053 0.62395 0.0
C3559 C 0.07492 0.05128 0.66305 0.0
C3560 C 0.06064 0.06577 0.65163 0.0
C3561 C 0.00373 0.09431 0.63055 0.0
C3562 C 0.02526 0.08699 0.63562 0.0
H3563 H 0.11167 0.05271 0.70258 0.0
H3564 H 0.09464 0.07604 0.67718 0.0
H3565 H 0.0579 0.04666 0.62313 0.0
H3566 H 0.95438 0.07341 0.62236 0.0
H3567 H -0.009 0.06267 0.62468 0.0
loop_
_geom_bond_atom_site_label_1
_geom_bond_atom_site_label_2
_geom_bond_distance
_geom_bond_site_symmetry_2
_ccdc_geom_bond_type
C0 O1 1.306 . S
C0 O3 1.211 . S
O1 C0 1.306 . S
O1 Cd2 2.228 . S
Cd2 O1 2.228 . S
Cd2 O6 2.273 . S
Cd2 O10 2.311 . S
O3 C0 1.211 . S
O3 Cd4 2.190 1_655 S
Cd4 O3 2.190 1_455 S
Cd4 O6 2.411 1_455 S
Cd4 O7 2.333 . S
Cd4 O8 2.352 . S
Cd4 O12 2.277 . S
Cd4 O13 2.356 . S
C5 O10 1.174 1_455 S
C5 O12 1.226 . S
O6 Cd2 2.273 . S
O6 Cd4 2.411 1_655 S
O6 C9 1.320 . S
O7 Cd4 2.333 . S
O7 C9 1.214 1_455 S
O8 Cd4 2.352 . S
O8 C11 1.258 . S
C9 O6 1.320 . S
C9 O7 1.214 1_655 S
O10 Cd2 2.311 . S
O10 C5 1.174 1_655 S
C11 O8 1.258 . S
C11 O13 1.282 . S
O12 Cd4 2.277 . S
O12 C5 1.226 . S
O13 Cd4 2.356 . S
O13 C11 1.282 . S
C14 O15 1.306 . S
C14 O17 1.160 . S
O15 C14 1.306 . S
O15 Cd16 2.228 1_455 S
Cd16 O15 2.228 1_655 S
Cd16 O20 2.273 . S
Cd16 O24 2.277 . S
O17 C14 1.160 . S
O17 Cd18 2.203 . S
Cd18 O17 2.203 . S
Cd18 O20 2.411 1_455 S
Cd18 O21 2.333 1_455 S
Cd18 O22 2.352 . S
Cd18 O26 2.277 1_455 S
Cd18 O27 2.356 . S
C19 O24 1.209 . S
C19 O26 1.226 . S
O20 Cd16 2.273 . S
O20 Cd18 2.411 1_655 S
O20 C23 1.320 . S
O21 Cd18 2.333 1_655 S
O21 C23 1.214 . S
O22 Cd18 2.352 . S
O22 C25 1.258 . S
C23 O20 1.320 . S
C23 O21 1.214 . S
O24 Cd16 2.277 . S
O24 C19 1.209 . S
C25 O22 1.258 . S
C25 O27 1.282 . S
O26 Cd18 2.277 1_655 S
O26 C19 1.226 . S
O27 Cd18 2.356 . S
O27 C25 1.282 . S
C28 O29 1.306 . S
C28 O31 1.160 . S
O29 C28 1.306 . S
O29 Cd30 2.228 . S
Cd30 O29 2.228 . S
Cd30 O34 2.273 . S
Cd30 O38 2.277 . S
O31 C28 1.160 . S
O31 Cd32 2.203 . S
Cd32 O31 2.203 . S
Cd32 O34 2.411 . S
Cd32 O35 2.333 . S
Cd32 O36 2.352 . S
Cd32 O40 2.277 . S
Cd32 O41 2.356 . S
C33 O38 1.209 . S
C33 O40 1.226 . S
O34 Cd30 2.273 . S
O34 Cd32 2.411 . S
O34 C37 1.320 . S
O35 Cd32 2.333 . S
O35 C37 1.214 . S
O36 Cd32 2.352 . S
O36 C39 1.258 . S
C37 O34 1.320 . S
C37 O35 1.214 . S
O38 Cd30 2.277 . S
O38 C33 1.209 . S
C39 O36 1.258 . S
C39 O41 1.282 . S
O40 Cd32 2.277 . S
O40 C33 1.226 . S
O41 Cd32 2.356 . S
O41 C39 1.282 . S
C42 O43 1.306 . S
C42 O45 1.160 . S
O43 C42 1.306 . S
O43 Cd44 2.228 . S
Cd44 O43 2.228 . S
Cd44 O48 2.273 . S
Cd44 O52 2.277 . S
O45 C42 1.160 . S
O45 Cd46 2.203 . S
Cd46 O45 2.203 . S
Cd46 O48 2.411 . S
Cd46 O49 2.333 . S
Cd46 O50 2.352 . S
Cd46 O54 2.277 . S
Cd46 O55 2.356 . S
C47 O52 1.209 . S
C47 O54 1.226 . S
O48 Cd44 2.273 . S
O48 Cd46 2.411 . S
O48 C51 1.320 . S
O49 Cd46 2.333 . S
O49 C51 1.214 . S
O50 Cd46 2.352 . S
O50 C53 1.258 . S
C51 O48 1.320 . S
C51 O49 1.214 . S
O52 Cd44 2.277 . S
O52 C47 1.209 . S
C53 O50 1.258 . S
C53 O55 1.282 . S
O54 Cd46 2.277 . S
O54 C47 1.226 . S
O55 Cd46 2.356 . S
O55 C53 1.282 . S
C56 O57 1.306 . S
C56 O59 1.160 . S
O57 C56 1.306 . S
O57 Cd58 2.228 . S
Cd58 O57 2.228 . S
Cd58 O62 2.273 . S
Cd58 O66 2.277 . S
O59 C56 1.160 . S
O59 Cd60 2.203 1_655 S
Cd60 O59 2.203 1_455 S
Cd60 O62 2.411 1_455 S
Cd60 O63 2.333 . S
Cd60 O64 2.352 . S
Cd60 O68 2.277 . S
Cd60 O69 2.356 . S
C61 O66 1.209 1_455 S
C61 O68 1.226 . S
O62 Cd58 2.273 . S
O62 Cd60 2.411 1_655 S
O62 C65 1.320 . S
O63 Cd60 2.333 . S
O63 C65 1.214 1_455 S
O64 Cd60 2.352 . S
O64 C67 1.258 . S
C65 O62 1.320 . S
C65 O63 1.214 1_655 S
O66 Cd58 2.277 . S
O66 C61 1.209 1_655 S
C67 O64 1.258 . S
C67 O69 1.282 . S
O68 Cd60 2.277 . S
O68 C61 1.226 . S
O69 Cd60 2.356 . S
O69 C67 1.282 . S
C70 O71 1.306 . S
C70 O73 1.160 . S
O71 C70 1.306 . S
O71 Cd72 2.228 . S
Cd72 O71 2.228 . S
Cd72 O76 2.273 . S
Cd72 O80 2.277 . S
O73 C70 1.160 . S
O73 Cd74 2.203 . S
Cd74 O73 2.203 . S
Cd74 O76 2.411 . S
Cd74 O77 2.333 . S
Cd74 O78 2.352 . S
Cd74 O82 2.277 . S
Cd74 O83 2.356 . S
C75 O80 1.209 . S
C75 O82 1.226 . S
O76 Cd72 2.273 . S
O76 Cd74 2.411 . S
O76 C79 1.320 . S
O77 Cd74 2.333 . S
O77 C79 1.214 . S
O78 Cd74 2.352 . S
O78 C81 1.258 . S
C79 O76 1.320 . S
C79 O77 1.214 . S
O80 Cd72 2.277 . S
O80 C75 1.209 . S
C81 O78 1.258 . S
C81 O83 1.282 . S
O82 Cd74 2.277 . S
O82 C75 1.226 . S
O83 Cd74 2.356 . S
O83 C81 1.282 . S
C84 O85 1.306 . S
C84 O87 1.160 . S
O85 C84 1.306 . S
O85 Cd86 2.228 . S
Cd86 O85 2.228 . S
Cd86 O90 2.273 . S
Cd86 O94 2.277 . S
O87 C84 1.160 . S
O87 Cd88 2.203 . S
Cd88 O87 2.203 . S
Cd88 O90 2.411 . S
Cd88 O91 2.333 . S
Cd88 O92 2.352 . S
Cd88 O96 2.277 . S
Cd88 O97 2.356 . S
C89 O94 1.209 . S
C89 O96 1.226 . S
O90 Cd86 2.273 . S
O90 Cd88 2.411 . S
O90 C93 1.320 . S
O91 Cd88 2.333 . S
O91 C93 1.214 . S
O92 Cd88 2.352 . S
O92 C95 1.258 . S
C93 O90 1.320 . S
C93 O91 1.214 . S
O94 Cd86 2.277 . S
O94 C89 1.209 . S
C95 O92 1.258 . S
C95 O97 1.282 . S
O96 Cd88 2.277 . S
O96 C89 1.226 . S
O97 Cd88 2.356 . S
O97 C95 1.282 . S
C98 O99 1.306 . S
C98 O101 1.160 . S
O99 C98 1.306 . S
O99 Cd100 2.228 1_455 S
Cd100 O99 2.228 1_655 S
Cd100 O104 2.273 . S
Cd100 O108 2.277 . S
O101 C98 1.160 . S
O101 Cd102 2.203 . S
Cd102 O101 2.203 . S
Cd102 O104 2.411 1_455 S
Cd102 O105 2.333 1_455 S
Cd102 O106 2.352 . S
Cd102 O110 2.277 1_455 S
Cd102 O111 2.356 . S
C103 O108 1.209 . S
C103 O110 1.226 . S
O104 Cd100 2.273 . S
O104 Cd102 2.411 1_655 S
O104 C107 1.320 . S
O105 Cd102 2.333 1_655 S
O105 C107 1.214 . S
O106 Cd102 2.352 . S
O106 C109 1.258 . S
C107 O104 1.320 . S
C107 O105 1.214 . S
O108 Cd100 2.277 . S
O108 C103 1.209 . S
C109 O106 1.258 . S
C109 O111 1.282 . S
O110 Cd102 2.277 1_655 S
O110 C103 1.226 . S
O111 Cd102 2.356 . S
O111 C109 1.282 . S
C112 O113 1.306 . S
C112 O115 1.160 . S
O113 C112 1.306 . S
O113 Cd114 2.228 . S
Cd114 O113 2.228 . S
Cd114 O118 2.273 . S
Cd114 O122 2.277 . S
O115 C112 1.160 . S
O115 Cd116 2.203 1_565 S
Cd116 O115 2.203 1_545 S
Cd116 O118 2.411 1_545 S
Cd116 O119 2.333 . S
Cd116 O120 2.352 . S
Cd116 O124 2.277 . S
Cd116 O125 2.356 . S
C117 O122 1.209 1_545 S
C117 O124 1.226 . S
O118 Cd114 2.273 . S
O118 Cd116 2.411 1_565 S
O118 C121 1.320 . S
O119 Cd116 2.333 . S
O119 C121 1.214 1_545 S
O120 Cd116 2.352 . S
O120 C123 1.258 . S
C121 O118 1.320 . S
C121 O119 1.214 1_565 S
O122 Cd114 2.277 . S
O122 C117 1.209 1_565 S
C123 O120 1.258 . S
C123 O125 1.282 . S
O124 Cd116 2.277 . S
O124 C117 1.226 . S
O125 Cd116 2.356 . S
O125 C123 1.282 . S
C126 O127 1.306 . S
C126 O129 1.160 . S
O127 C126 1.306 . S
O127 Cd128 2.228 . S
Cd128 O127 2.228 . S
Cd128 O132 2.273 . S
Cd128 O136 2.277 . S
O129 C126 1.160 . S
O129 Cd130 2.203 . S
Cd130 O129 2.203 . S
Cd130 O132 2.411 . S
Cd130 O133 2.333 . S
Cd130 O134 2.352 . S
Cd130 O138 2.277 . S
Cd130 O139 2.356 . S
C131 O136 1.209 . S
C131 O138 1.226 . S
O132 Cd128 2.273 . S
O132 Cd130 2.411 . S
O132 C135 1.320 . S
O133 Cd130 2.333 . S
O133 C135 1.214 . S
O134 Cd130 2.352 . S
O134 C137 1.258 . S
C135 O132 1.320 . S
C135 O133 1.214 . S
O136 Cd128 2.277 . S
O136 C131 1.209 . S
C137 O134 1.258 . S
C137 O139 1.282 . S
O138 Cd130 2.277 . S
O138 C131 1.226 . S
O139 Cd130 2.356 . S
O139 C137 1.282 . S
C140 O141 1.306 . S
C140 O143 1.160 . S
O141 C140 1.306 . S
O141 Cd142 2.228 . S
Cd142 O141 2.228 . S
Cd142 O146 2.273 . S
Cd142 O150 2.277 . S
O143 C140 1.160 . S
O143 Cd144 2.203 1_565 S
Cd144 O143 2.203 1_545 S
Cd144 O146 2.411 1_545 S
Cd144 O147 2.333 . S
Cd144 O148 2.352 . S
Cd144 O152 2.277 . S
Cd144 O153 2.356 . S
C145 O150 1.209 1_545 S
C145 O152 1.226 . S
O146 Cd142 2.273 . S
O146 Cd144 2.411 1_565 S
O146 C149 1.320 . S
O147 Cd144 2.333 . S
O147 C149 1.214 1_545 S
O148 Cd144 2.352 . S
O148 C151 1.258 . S
C149 O146 1.320 . S
C149 O147 1.214 1_565 S
O150 Cd142 2.277 . S
O150 C145 1.209 1_565 S
C151 O148 1.258 . S
C151 O153 1.282 . S
O152 Cd144 2.277 . S
O152 C145 1.226 . S
O153 Cd144 2.356 . S
O153 C151 1.282 . S
C154 O155 1.306 . S
C154 O157 1.160 . S
O155 C154 1.306 . S
O155 Cd156 2.228 1_554 S
Cd156 O155 2.228 1_556 S
Cd156 O160 2.273 . S
Cd156 O164 2.277 . S
O157 C154 1.160 . S
O157 Cd158 2.203 . S
Cd158 O157 2.203 . S
Cd158 O160 2.411 1_554 S
Cd158 O161 2.333 1_554 S
Cd158 O162 2.352 . S
Cd158 O166 2.277 1_554 S
Cd158 O167 2.356 . S
C159 O164 1.209 . S
C159 O166 1.226 . S
O160 Cd156 2.273 . S
O160 Cd158 2.411 1_556 S
O160 C163 1.320 . S
O161 Cd158 2.333 1_556 S
O161 C163 1.214 . S
O162 Cd158 2.352 . S
O162 C165 1.258 . S
C163 O160 1.320 . S
C163 O161 1.214 . S
O164 Cd156 2.277 . S
O164 C159 1.209 . S
C165 O162 1.258 . S
C165 O167 1.282 . S
O166 Cd158 2.277 1_556 S
O166 C159 1.226 . S
O167 Cd158 2.356 . S
O167 C165 1.282 . S
C168 O169 1.306 . S
C168 O171 1.160 . S
O169 C168 1.306 . S
O169 Cd170 2.228 . S
Cd170 O169 2.228 . S
Cd170 O174 2.273 . S
Cd170 O178 2.277 . S
O171 C168 1.160 . S
O171 Cd172 2.203 1_554 S
Cd172 O171 2.203 1_556 S
Cd172 O174 2.411 1_556 S
Cd172 O175 2.335 . S
Cd172 O176 2.346 1_556 S
Cd172 O180 2.277 . S
Cd172 O181 2.356 . S
C173 O178 1.209 1_556 S
C173 O180 1.226 . S
O174 Cd170 2.273 . S
O174 Cd172 2.411 1_554 S
O174 C177 1.320 . S
O175 Cd172 2.335 . S
O175 C177 1.196 1_556 S
O176 Cd172 2.346 1_554 S
O176 C179 1.217 1_554 S
C177 O174 1.320 . S
C177 O175 1.196 1_554 S
O178 Cd170 2.277 . S
O178 C173 1.209 1_554 S
C179 O176 1.217 1_556 S
C179 O181 1.282 . S
O180 Cd172 2.277 . S
O180 C173 1.226 . S
O181 Cd172 2.356 . S
O181 C179 1.282 . S
C182 O183 1.306 . S
C182 O185 1.160 . S
O183 C182 1.306 . S
O183 Cd184 2.228 . S
Cd184 O183 2.228 . S
Cd184 O188 2.273 . S
Cd184 O192 2.277 . S
O185 C182 1.160 . S
O185 Cd186 2.203 1_554 S
Cd186 O185 2.203 1_556 S
Cd186 O188 2.411 1_556 S
Cd186 O189 2.333 . S
Cd186 O190 2.360 . S
Cd186 O194 2.277 . S
Cd186 O195 2.356 . S
C187 O192 1.209 1_556 S
C187 O194 1.226 . S
O188 Cd184 2.273 . S
O188 Cd186 2.411 1_554 S
O188 C191 1.320 . S
O189 Cd186 2.333 . S
O189 C191 1.214 1_556 S
O190 Cd186 2.360 . S
O190 C193 1.312 . S
C191 O188 1.320 . S
C191 O189 1.214 1_554 S
O192 Cd184 2.277 . S
O192 C187 1.209 1_554 S
C193 O190 1.312 . S
C193 O195 1.282 . S
O194 Cd186 2.277 . S
O194 C187 1.226 . S
O195 Cd186 2.356 . S
O195 C193 1.282 . S
C196 O197 1.306 . S
C196 O199 1.160 . S
O197 C196 1.306 . S
O197 Cd198 2.228 . S
Cd198 O197 2.228 . S
Cd198 O202 2.273 . S
Cd198 O206 2.277 . S
O199 C196 1.160 . S
O199 Cd200 2.203 . S
Cd200 O199 2.203 . S
Cd200 O202 2.411 . S
Cd200 O203 2.333 . S
Cd200 O204 2.352 . S
Cd200 O208 2.277 . S
Cd200 O209 2.356 . S
C201 O206 1.209 . S
C201 O208 1.226 . S
O202 Cd198 2.273 . S
O202 Cd200 2.411 . S
O202 C205 1.320 . S
O203 Cd200 2.333 . S
O203 C205 1.214 . S
O204 Cd200 2.352 . S
O204 C207 1.258 . S
C205 O202 1.320 . S
C205 O203 1.214 . S
O206 Cd198 2.277 . S
O206 C201 1.209 . S
C207 O204 1.258 . S
C207 O209 1.282 . S
O208 Cd200 2.277 . S
O208 C201 1.226 . S
O209 Cd200 2.356 . S
O209 C207 1.282 . S
C210 O211 1.306 . S
C210 O213 1.160 . S
O211 C210 1.306 . S
O211 Cd212 2.228 . S
Cd212 O211 2.228 . S
Cd212 O216 2.273 . S
Cd212 O220 2.277 . S
O213 C210 1.160 . S
O213 Cd214 2.203 . S
Cd214 O213 2.203 . S
Cd214 O216 2.411 . S
Cd214 O217 2.333 . S
Cd214 O218 2.352 . S
Cd214 O222 2.277 . S
Cd214 O223 2.356 . S
C215 O220 1.209 . S
C215 O222 1.226 . S
O216 Cd212 2.273 . S
O216 Cd214 2.411 . S
O216 C219 1.320 . S
O217 Cd214 2.333 . S
O217 C219 1.214 . S
O218 Cd214 2.352 . S
O218 C221 1.258 . S
C219 O216 1.320 . S
C219 O217 1.214 . S
O220 Cd212 2.277 . S
O220 C215 1.209 . S
C221 O218 1.258 . S
C221 O223 1.282 . S
O222 Cd214 2.277 . S
O222 C215 1.226 . S
O223 Cd214 2.356 . S
O223 C221 1.282 . S
C224 O225 1.306 . S
C224 O227 1.160 . S
O225 C224 1.306 . S
O225 Cd226 2.228 1_545 S
Cd226 O225 2.228 1_565 S
Cd226 O230 2.273 . S
Cd226 O234 2.277 . S
O227 C224 1.160 . S
O227 Cd228 2.203 . S
Cd228 O227 2.203 . S
Cd228 O230 2.411 1_545 S
Cd228 O231 2.333 1_545 S
Cd228 O232 2.352 . S
Cd228 O236 2.277 1_545 S
Cd228 O237 2.356 . S
C229 O234 1.209 . S
C229 O236 1.226 . S
O230 Cd226 2.273 . S
O230 Cd228 2.411 1_565 S
O230 C233 1.320 . S
O231 Cd228 2.333 1_565 S
O231 C233 1.214 . S
O232 Cd228 2.352 . S
O232 C235 1.258 . S
C233 O230 1.320 . S
C233 O231 1.214 . S
O234 Cd226 2.277 . S
O234 C229 1.209 . S
C235 O232 1.258 . S
C235 O237 1.282 . S
O236 Cd228 2.277 1_565 S
O236 C229 1.226 . S
O237 Cd228 2.356 . S
O237 C235 1.282 . S
C238 O239 1.306 . S
C238 O241 1.160 . S
O239 C238 1.306 . S
O239 Cd240 2.228 . S
Cd240 O239 2.228 . S
Cd240 O244 2.273 . S
Cd240 O248 2.277 . S
O241 C238 1.160 . S
O241 Cd242 2.203 . S
Cd242 O241 2.203 . S
Cd242 O244 2.411 . S
Cd242 O245 2.333 . S
Cd242 O246 2.352 . S
Cd242 O250 2.277 . S
Cd242 O251 2.356 . S
C243 O248 1.209 . S
C243 O250 1.226 . S
O244 Cd240 2.273 . S
O244 Cd242 2.411 . S
O244 C247 1.320 . S
O245 Cd242 2.333 . S
O245 C247 1.214 . S
O246 Cd242 2.352 . S
O246 C249 1.258 . S
C247 O244 1.320 . S
C247 O245 1.214 . S
O248 Cd240 2.277 . S
O248 C243 1.209 . S
C249 O246 1.258 . S
C249 O251 1.282 . S
O250 Cd242 2.277 . S
O250 C243 1.226 . S
O251 Cd242 2.356 . S
O251 C249 1.282 . S
C252 O253 1.306 . S
C252 O255 1.160 . S
O253 C252 1.306 . S
O253 Cd254 2.228 . S
Cd254 O253 2.228 . S
Cd254 O258 2.273 . S
Cd254 O262 2.277 . S
O255 C252 1.160 . S
O255 Cd256 2.203 . S
Cd256 O255 2.203 . S
Cd256 O258 2.411 . S
Cd256 O259 2.333 . S
Cd256 O260 2.352 . S
Cd256 O264 2.277 . S
Cd256 O265 2.356 . S
C257 O262 1.209 . S
C257 O264 1.226 . S
O258 Cd254 2.273 . S
O258 Cd256 2.411 . S
O258 C261 1.320 . S
O259 Cd256 2.333 . S
O259 C261 1.214 . S
O260 Cd256 2.352 . S
O260 C263 1.258 . S
C261 O258 1.320 . S
C261 O259 1.214 . S
O262 Cd254 2.277 . S
O262 C257 1.209 . S
C263 O260 1.258 . S
C263 O265 1.282 . S
O264 Cd256 2.277 . S
O264 C257 1.226 . S
O265 Cd256 2.356 . S
O265 C263 1.282 . S
C266 O267 1.306 . S
C266 O269 1.160 . S
O267 C266 1.306 . S
O267 Cd268 2.228 1_545 S
Cd268 O267 2.228 1_565 S
Cd268 O272 2.273 . S
Cd268 O276 2.277 . S
O269 C266 1.160 . S
O269 Cd270 2.203 . S
Cd270 O269 2.203 . S
Cd270 O272 2.411 1_545 S
Cd270 O273 2.333 1_545 S
Cd270 O274 2.352 . S
Cd270 O278 2.277 1_545 S
Cd270 O279 2.356 . S
C271 O276 1.209 . S
C271 O278 1.226 . S
O272 Cd268 2.273 . S
O272 Cd270 2.411 1_565 S
O272 C275 1.320 . S
O273 Cd270 2.333 1_565 S
O273 C275 1.214 . S
O274 Cd270 2.352 . S
O274 C277 1.258 . S
C275 O272 1.320 . S
C275 O273 1.214 . S
O276 Cd268 2.277 . S
O276 C271 1.209 . S
C277 O274 1.258 . S
C277 O279 1.282 . S
O278 Cd270 2.277 1_565 S
O278 C271 1.226 . S
O279 Cd270 2.356 . S
O279 C277 1.282 . S
C280 O281 1.306 . S
C280 O283 1.160 . S
O281 C280 1.306 . S
O281 Cd282 2.228 1_554 S
Cd282 O281 2.228 1_556 S
Cd282 O286 2.273 . S
Cd282 O290 2.277 . S
O283 C280 1.160 . S
O283 Cd284 2.203 . S
Cd284 O283 2.203 . S
Cd284 O286 2.411 1_554 S
Cd284 O287 2.333 1_554 S
Cd284 O288 2.352 . S
Cd284 O292 2.277 1_554 S
Cd284 O293 2.356 . S
C285 O290 1.209 . S
C285 O292 1.226 . S
O286 Cd282 2.273 . S
O286 Cd284 2.411 1_556 S
O286 C289 1.320 . S
O287 Cd284 2.333 1_556 S
O287 C289 1.214 . S
O288 Cd284 2.352 . S
O288 C291 1.258 . S
C289 O286 1.320 . S
C289 O287 1.214 . S
O290 Cd282 2.277 . S
O290 C285 1.209 . S
C291 O288 1.258 . S
C291 O293 1.282 . S
O292 Cd284 2.277 1_556 S
O292 C285 1.226 . S
O293 Cd284 2.356 . S
O293 C291 1.282 . S
C294 O295 1.306 . S
C294 O297 1.160 . S
O295 C294 1.306 . S
O295 Cd296 2.228 . S
Cd296 O295 2.228 . S
Cd296 O300 2.273 . S
Cd296 O304 2.277 . S
O297 C294 1.160 . S
O297 Cd298 2.203 . S
Cd298 O297 2.203 . S
Cd298 O300 2.411 . S
Cd298 O301 2.333 . S
Cd298 O302 2.352 . S
Cd298 O306 2.277 . S
Cd298 O307 2.356 . S
C299 O304 1.209 . S
C299 O306 1.226 . S
O300 Cd296 2.273 . S
O300 Cd298 2.411 . S
O300 C303 1.320 . S
O301 Cd298 2.333 . S
O301 C303 1.214 . S
O302 Cd298 2.352 . S
O302 C305 1.258 . S
C303 O300 1.320 . S
C303 O301 1.214 . S
O304 Cd296 2.277 . S
O304 C299 1.209 . S
C305 O302 1.258 . S
C305 O307 1.282 . S
O306 Cd298 2.277 . S
O306 C299 1.226 . S
O307 Cd298 2.356 . S
O307 C305 1.282 . S
C308 O309 1.306 . S
C308 O311 1.160 . S
O309 C308 1.306 . S
O309 Cd310 2.228 . S
Cd310 O309 2.228 . S
Cd310 O314 2.273 . S
Cd310 O318 2.277 . S
O311 C308 1.160 . S
O311 Cd312 2.203 . S
Cd312 O311 2.203 . S
Cd312 O314 2.411 . S
Cd312 O315 2.333 . S
Cd312 O316 2.352 . S
Cd312 O320 2.277 . S
Cd312 O321 2.356 . S
C313 O318 1.209 . S
C313 O320 1.226 . S
O314 Cd310 2.273 . S
O314 Cd312 2.411 . S
O314 C317 1.320 . S
O315 Cd312 2.333 . S
O315 C317 1.214 . S
O316 Cd312 2.352 . S
O316 C319 1.258 . S
C317 O314 1.320 . S
C317 O315 1.214 . S
O318 Cd310 2.277 . S
O318 C313 1.209 . S
C319 O316 1.258 . S
C319 O321 1.282 . S
O320 Cd312 2.277 . S
O320 C313 1.226 . S
O321 Cd312 2.356 . S
O321 C319 1.282 . S
C322 O323 1.306 . S
C322 O325 1.160 . S
O323 C322 1.306 . S
O323 Cd324 2.228 . S
Cd324 O323 2.228 . S
Cd324 O328 2.273 . S
Cd324 O332 2.277 . S
O325 C322 1.160 . S
O325 Cd326 2.203 . S
Cd326 O325 2.203 . S
Cd326 O328 2.411 . S
Cd326 O329 2.333 . S
Cd326 O330 2.352 . S
Cd326 O334 2.277 . S
Cd326 O335 2.356 . S
C327 O332 1.209 . S
C327 O334 1.226 . S
O328 Cd324 2.273 . S
O328 Cd326 2.411 . S
O328 C331 1.320 . S
O329 Cd326 2.333 . S
O329 C331 1.214 . S
O330 Cd326 2.352 . S
O330 C333 1.258 . S
C331 O328 1.320 . S
C331 O329 1.214 . S
O332 Cd324 2.277 . S
O332 C327 1.209 . S
C333 O330 1.258 . S
C333 O335 1.282 . S
O334 Cd326 2.277 . S
O334 C327 1.226 . S
O335 Cd326 2.356 . S
O335 C333 1.282 . S
Fe336 O338 1.918 . S
Fe336 O341 1.997 . S
Fe336 O342 2.002 . S
Fe336 O347 1.976 . S
Fe336 O350 1.996 . S
Fe337 O338 1.918 . S
Fe337 O345 1.997 . S
Fe337 O348 1.996 . S
Fe337 O352 1.976 . S
Fe337 O355 2.002 . S
O338 Fe336 1.918 . S
O338 Fe337 1.918 . S
O338 Fe339 1.918 . S
Fe339 O338 1.918 . S
Fe339 O340 2.002 . S
Fe339 O349 1.976 . S
Fe339 O353 1.996 . S
Fe339 O356 1.997 . S
O340 Fe339 2.002 . S
O340 C357 1.295 . S
O341 Fe336 1.997 . S
O341 C357 1.235 . S
O342 Fe336 2.002 . S
O342 C343 1.295 . S
C343 O342 1.295 . S
C343 O345 1.235 . S
C344 O349 1.287 . S
C344 O350 1.255 . S
O345 Fe337 1.997 . S
O345 C343 1.235 . S
C346 O352 1.287 . S
C346 O353 1.255 . S
O347 Fe336 1.976 . S
O347 C354 1.287 . S
O348 Fe337 1.996 . S
O348 C354 1.255 . S
O349 Fe339 1.976 . S
O349 C344 1.287 . S
O350 Fe336 1.996 . S
O350 C344 1.255 . S
C351 O355 1.295 . S
C351 O356 1.235 . S
O352 Fe337 1.976 . S
O352 C346 1.287 . S
O353 Fe339 1.996 . S
O353 C346 1.255 . S
C354 O347 1.287 . S
C354 O348 1.255 . S
O355 Fe337 2.002 . S
O355 C351 1.295 . S
O356 Fe339 1.997 . S
O356 C351 1.235 . S
C357 O340 1.295 . S
C357 O341 1.235 . S
Fe358 O360 1.918 . S
Fe358 O363 1.997 . S
Fe358 O364 2.002 . S
Fe358 O369 1.976 . S
Fe358 O372 1.996 . S
Fe359 O360 1.918 . S
Fe359 O367 1.997 . S
Fe359 O370 1.996 . S
Fe359 O374 1.976 . S
Fe359 O377 2.002 . S
O360 Fe358 1.918 . S
O360 Fe359 1.918 . S
O360 Fe361 1.918 . S
Fe361 O360 1.918 . S
Fe361 O362 2.002 . S
Fe361 O371 1.976 . S
Fe361 O375 1.996 . S
Fe361 O378 1.997 . S
O362 Fe361 2.002 . S
O362 C379 1.295 . S
O363 Fe358 1.997 . S
O363 C379 1.235 . S
O364 Fe358 2.002 . S
O364 C365 1.295 . S
C365 O364 1.295 . S
C365 O367 1.235 . S
C366 O371 1.287 . S
C366 O372 1.255 . S
O367 Fe359 1.997 . S
O367 C365 1.235 . S
C368 O374 1.287 . S
C368 O375 1.255 . S
O369 Fe358 1.976 . S
O369 C376 1.287 . S
O370 Fe359 1.996 . S
O370 C376 1.255 . S
O371 Fe361 1.976 . S
O371 C366 1.287 . S
O372 Fe358 1.996 . S
O372 C366 1.255 . S
C373 O377 1.295 . S
C373 O378 1.235 . S
O374 Fe359 1.976 . S
O374 C368 1.287 . S
O375 Fe361 1.996 . S
O375 C368 1.255 . S
C376 O369 1.287 . S
C376 O370 1.255 . S
O377 Fe359 2.002 . S
O377 C373 1.295 . S
O378 Fe361 1.997 . S
O378 C373 1.235 . S
C379 O362 1.295 . S
C379 O363 1.235 . S
Fe380 O382 1.918 . S
Fe380 O385 1.997 . S
Fe380 O386 2.002 . S
Fe380 O391 1.976 . S
Fe380 O394 1.996 . S
Fe381 O382 1.918 . S
Fe381 O389 1.997 . S
Fe381 O392 1.996 . S
Fe381 O396 1.976 . S
Fe381 O399 2.002 . S
O382 Fe380 1.918 . S
O382 Fe381 1.918 . S
O382 Fe383 1.918 . S
Fe383 O382 1.918 . S
Fe383 O384 2.002 . S
Fe383 O393 1.976 . S
Fe383 O397 1.996 . S
Fe383 O400 1.997 . S
O384 Fe383 2.002 . S
O384 C401 1.295 . S
O385 Fe380 1.997 . S
O385 C401 1.235 . S
O386 Fe380 2.002 . S
O386 C387 1.295 . S
C387 O386 1.295 . S
C387 O389 1.235 . S
C388 O393 1.287 . S
C388 O394 1.255 . S
O389 Fe381 1.997 . S
O389 C387 1.235 . S
C390 O396 1.287 . S
C390 O397 1.255 . S
O391 Fe380 1.976 . S
O391 C398 1.287 . S
O392 Fe381 1.996 . S
O392 C398 1.255 . S
O393 Fe383 1.976 . S
O393 C388 1.287 . S
O394 Fe380 1.996 . S
O394 C388 1.255 . S
C395 O399 1.295 . S
C395 O400 1.235 . S
O396 Fe381 1.976 . S
O396 C390 1.287 . S
O397 Fe383 1.996 . S
O397 C390 1.255 . S
C398 O391 1.287 . S
C398 O392 1.255 . S
O399 Fe381 2.002 . S
O399 C395 1.295 . S
O400 Fe383 1.997 . S
O400 C395 1.235 . S
C401 O384 1.295 . S
C401 O385 1.235 . S
Fe402 O404 1.918 . S
Fe402 O407 1.997 . S
Fe402 O408 2.002 . S
Fe402 O413 1.976 . S
Fe402 O416 1.996 . S
Fe403 O404 1.918 . S
Fe403 O411 1.997 . S
Fe403 O414 1.996 . S
Fe403 O418 1.976 . S
Fe403 O421 2.002 . S
O404 Fe402 1.918 . S
O404 Fe403 1.918 . S
O404 Fe405 1.918 . S
Fe405 O404 1.918 . S
Fe405 O406 2.002 . S
Fe405 O415 1.976 . S
Fe405 O419 1.996 . S
Fe405 O422 1.997 . S
O406 Fe405 2.002 . S
O406 C423 1.295 . S
O407 Fe402 1.997 . S
O407 C423 1.235 . S
O408 Fe402 2.002 . S
O408 C409 1.295 . S
C409 O408 1.295 . S
C409 O411 1.235 . S
C410 O415 1.287 . S
C410 O416 1.255 . S
O411 Fe403 1.997 . S
O411 C409 1.235 . S
C412 O418 1.287 . S
C412 O419 1.255 . S
O413 Fe402 1.976 . S
O413 C420 1.287 . S
O414 Fe403 1.996 . S
O414 C420 1.255 . S
O415 Fe405 1.976 . S
O415 C410 1.287 . S
O416 Fe402 1.996 . S
O416 C410 1.255 . S
C417 O421 1.295 . S
C417 O422 1.235 . S
O418 Fe403 1.976 . S
O418 C412 1.287 . S
O419 Fe405 1.996 . S
O419 C412 1.255 . S
C420 O413 1.287 . S
C420 O414 1.255 . S
O421 Fe403 2.002 . S
O421 C417 1.295 . S
O422 Fe405 1.997 . S
O422 C417 1.235 . S
C423 O406 1.295 . S
C423 O407 1.235 . S
Fe424 O426 1.918 . S
Fe424 O429 1.997 . S
Fe424 O430 2.002 . S
Fe424 O435 1.976 . S
Fe424 O438 1.996 . S
Fe425 O426 1.918 . S
Fe425 O433 1.997 . S
Fe425 O436 1.996 . S
Fe425 O440 1.976 . S
Fe425 O443 2.002 . S
O426 Fe424 1.918 . S
O426 Fe425 1.918 . S
O426 Fe427 1.918 . S
Fe427 O426 1.918 . S
Fe427 O428 2.002 . S
Fe427 O437 1.976 . S
Fe427 O441 1.996 . S
Fe427 O444 1.997 . S
O428 Fe427 2.002 . S
O428 C445 1.295 . S
O429 Fe424 1.997 . S
O429 C445 1.235 . S
O430 Fe424 2.002 . S
O430 C431 1.295 . S
C431 O430 1.295 . S
C431 O433 1.235 . S
C432 O437 1.287 . S
C432 O438 1.255 . S
O433 Fe425 1.997 . S
O433 C431 1.235 . S
C434 O440 1.287 . S
C434 O441 1.255 . S
O435 Fe424 1.976 . S
O435 C442 1.287 . S
O436 Fe425 1.996 . S
O436 C442 1.255 . S
O437 Fe427 1.976 . S
O437 C432 1.287 . S
O438 Fe424 1.996 . S
O438 C432 1.255 . S
C439 O443 1.295 . S
C439 O444 1.235 . S
O440 Fe425 1.976 . S
O440 C434 1.287 . S
O441 Fe427 1.996 . S
O441 C434 1.255 . S
C442 O435 1.287 . S
C442 O436 1.255 . S
O443 Fe425 2.002 . S
O443 C439 1.295 . S
O444 Fe427 1.997 . S
O444 C439 1.235 . S
C445 O428 1.295 . S
C445 O429 1.235 . S
Fe446 O448 1.918 . S
Fe446 O451 1.997 . S
Fe446 O452 2.002 . S
Fe446 O457 1.976 . S
Fe446 O460 1.996 . S
Fe447 O448 1.918 . S
Fe447 O455 1.997 . S
Fe447 O458 1.996 . S
Fe447 O462 1.976 . S
Fe447 O465 2.002 . S
O448 Fe446 1.918 . S
O448 Fe447 1.918 . S
O448 Fe449 1.918 . S
Fe449 O448 1.918 . S
Fe449 O450 2.002 . S
Fe449 O459 1.976 . S
Fe449 O463 1.996 . S
Fe449 O466 1.997 . S
O450 Fe449 2.002 . S
O450 C467 1.295 . S
O451 Fe446 1.997 . S
O451 C467 1.235 . S
O452 Fe446 2.002 . S
O452 C453 1.295 . S
C453 O452 1.295 . S
C453 O455 1.235 . S
C454 O459 1.287 . S
C454 O460 1.255 . S
O455 Fe447 1.997 . S
O455 C453 1.235 . S
C456 O462 1.287 . S
C456 O463 1.255 . S
O457 Fe446 1.976 . S
O457 C464 1.287 . S
O458 Fe447 1.996 . S
O458 C464 1.255 . S
O459 Fe449 1.976 . S
O459 C454 1.287 . S
O460 Fe446 1.996 . S
O460 C454 1.255 . S
C461 O465 1.295 . S
C461 O466 1.235 . S
O462 Fe447 1.976 . S
O462 C456 1.287 . S
O463 Fe449 1.996 . S
O463 C456 1.255 . S
C464 O457 1.287 . S
C464 O458 1.255 . S
O465 Fe447 2.002 . S
O465 C461 1.295 . S
O466 Fe449 1.997 . S
O466 C461 1.235 . S
C467 O450 1.295 . S
C467 O451 1.235 . S
Fe468 O470 1.918 . S
Fe468 O473 1.997 . S
Fe468 O474 2.002 . S
Fe468 O479 1.976 . S
Fe468 O482 1.996 . S
Fe469 O470 1.918 . S
Fe469 O477 1.997 . S
Fe469 O480 1.996 . S
Fe469 O484 1.976 . S
Fe469 O487 2.002 . S
O470 Fe468 1.918 . S
O470 Fe469 1.918 . S
O470 Fe471 1.918 . S
Fe471 O470 1.918 . S
Fe471 O472 2.002 . S
Fe471 O481 1.976 . S
Fe471 O485 1.996 . S
Fe471 O488 1.997 . S
O472 Fe471 2.002 . S
O472 C489 1.295 . S
O473 Fe468 1.997 . S
O473 C489 1.235 . S
O474 Fe468 2.002 . S
O474 C475 1.295 . S
C475 O474 1.295 . S
C475 O477 1.235 . S
C476 O481 1.287 . S
C476 O482 1.255 . S
O477 Fe469 1.997 . S
O477 C475 1.235 . S
C478 O484 1.287 . S
C478 O485 1.255 . S
O479 Fe468 1.976 . S
O479 C486 1.287 . S
O480 Fe469 1.996 . S
O480 C486 1.255 . S
O481 Fe471 1.976 . S
O481 C476 1.287 . S
O482 Fe468 1.996 . S
O482 C476 1.255 . S
C483 O487 1.295 . S
C483 O488 1.235 . S
O484 Fe469 1.976 . S
O484 C478 1.287 . S
O485 Fe471 1.996 . S
O485 C478 1.255 . S
C486 O479 1.287 . S
C486 O480 1.255 . S
O487 Fe469 2.002 . S
O487 C483 1.295 . S
O488 Fe471 1.997 . S
O488 C483 1.235 . S
C489 O472 1.295 . S
C489 O473 1.235 . S
Fe490 O492 1.918 . S
Fe490 O495 1.997 . S
Fe490 O496 2.002 . S
Fe490 O501 1.976 . S
Fe490 O504 1.996 . S
Fe491 O492 1.918 . S
Fe491 O499 1.997 . S
Fe491 O502 1.996 . S
Fe491 O506 1.976 . S
Fe491 O509 2.002 . S
O492 Fe490 1.918 . S
O492 Fe491 1.918 . S
O492 Fe493 1.918 . S
Fe493 O492 1.918 . S
Fe493 O494 2.002 . S
Fe493 O503 1.976 . S
Fe493 O507 1.996 . S
Fe493 O510 1.997 . S
O494 Fe493 2.002 . S
O494 C511 1.295 . S
O495 Fe490 1.997 . S
O495 C511 1.235 . S
O496 Fe490 2.002 . S
O496 C497 1.295 . S
C497 O496 1.295 . S
C497 O499 1.235 . S
C498 O503 1.287 . S
C498 O504 1.255 . S
O499 Fe491 1.997 . S
O499 C497 1.235 . S
C500 O506 1.287 . S
C500 O507 1.255 . S
O501 Fe490 1.976 . S
O501 C508 1.287 . S
O502 Fe491 1.996 . S
O502 C508 1.255 . S
O503 Fe493 1.976 . S
O503 C498 1.287 . S
O504 Fe490 1.996 . S
O504 C498 1.255 . S
C505 O509 1.295 . S
C505 O510 1.235 . S
O506 Fe491 1.976 . S
O506 C500 1.287 . S
O507 Fe493 1.996 . S
O507 C500 1.255 . S
C508 O501 1.287 . S
C508 O502 1.255 . S
O509 Fe491 2.002 . S
O509 C505 1.295 . S
O510 Fe493 1.997 . S
O510 C505 1.235 . S
C511 O494 1.295 . S
C511 O495 1.235 . S
Fe512 O514 1.918 . S
Fe512 O517 1.997 . S
Fe512 O518 2.002 . S
Fe512 O523 1.976 . S
Fe512 O526 1.996 . S
Fe513 O514 1.918 . S
Fe513 O521 1.997 . S
Fe513 O524 1.996 . S
Fe513 O528 1.976 . S
Fe513 O531 2.002 . S
O514 Fe512 1.918 . S
O514 Fe513 1.918 . S
O514 Fe515 1.918 . S
Fe515 O514 1.918 . S
Fe515 O516 2.002 . S
Fe515 O525 1.976 . S
Fe515 O529 1.996 . S
Fe515 O532 1.997 . S
O516 Fe515 2.002 . S
O516 C533 1.295 . S
O517 Fe512 1.997 . S
O517 C533 1.235 . S
O518 Fe512 2.002 . S
O518 C519 1.295 . S
C519 O518 1.295 . S
C519 O521 1.235 . S
C520 O525 1.287 . S
C520 O526 1.255 . S
O521 Fe513 1.997 . S
O521 C519 1.235 . S
C522 O528 1.287 . S
C522 O529 1.255 . S
O523 Fe512 1.976 . S
O523 C530 1.287 . S
O524 Fe513 1.996 . S
O524 C530 1.255 . S
O525 Fe515 1.976 . S
O525 C520 1.287 . S
O526 Fe512 1.996 . S
O526 C520 1.255 . S
C527 O531 1.295 . S
C527 O532 1.235 . S
O528 Fe513 1.976 . S
O528 C522 1.287 . S
O529 Fe515 1.996 . S
O529 C522 1.255 . S
C530 O523 1.287 . S
C530 O524 1.255 . S
O531 Fe513 2.002 . S
O531 C527 1.295 . S
O532 Fe515 1.997 . S
O532 C527 1.235 . S
C533 O516 1.295 . S
C533 O517 1.235 . S
Fe534 O536 1.918 . S
Fe534 O539 1.997 . S
Fe534 O540 2.002 . S
Fe534 O545 1.976 . S
Fe534 O548 1.996 . S
Fe535 O536 1.918 . S
Fe535 O543 1.997 . S
Fe535 O546 1.996 . S
Fe535 O550 1.976 . S
Fe535 O553 2.002 . S
O536 Fe534 1.918 . S
O536 Fe535 1.918 . S
O536 Fe537 1.918 . S
Fe537 O536 1.918 . S
Fe537 O538 2.002 . S
Fe537 O547 1.976 . S
Fe537 O551 1.996 . S
Fe537 O554 1.997 . S
O538 Fe537 2.002 . S
O538 C555 1.295 . S
O539 Fe534 1.997 . S
O539 C555 1.235 . S
O540 Fe534 2.002 . S
O540 C541 1.295 . S
C541 O540 1.295 . S
C541 O543 1.235 . S
C542 O547 1.287 . S
C542 O548 1.255 . S
O543 Fe535 1.997 . S
O543 C541 1.235 . S
C544 O550 1.287 . S
C544 O551 1.255 . S
O545 Fe534 1.976 . S
O545 C552 1.287 . S
O546 Fe535 1.996 . S
O546 C552 1.255 . S
O547 Fe537 1.976 . S
O547 C542 1.287 . S
O548 Fe534 1.996 . S
O548 C542 1.255 . S
C549 O553 1.295 . S
C549 O554 1.235 . S
O550 Fe535 1.976 . S
O550 C544 1.287 . S
O551 Fe537 1.996 . S
O551 C544 1.255 . S
C552 O545 1.287 . S
C552 O546 1.255 . S
O553 Fe535 2.002 . S
O553 C549 1.295 . S
O554 Fe537 1.997 . S
O554 C549 1.235 . S
C555 O538 1.295 . S
C555 O539 1.235 . S
Fe556 O558 1.918 . S
Fe556 O561 1.997 . S
Fe556 O562 2.002 . S
Fe556 O567 1.976 . S
Fe556 O570 1.996 . S
Fe557 O558 1.918 . S
Fe557 O565 1.997 . S
Fe557 O568 1.996 . S
Fe557 O572 1.976 . S
Fe557 O575 2.002 . S
O558 Fe556 1.918 . S
O558 Fe557 1.918 . S
O558 Fe559 1.918 . S
Fe559 O558 1.918 . S
Fe559 O560 2.002 . S
Fe559 O569 1.976 . S
Fe559 O573 1.996 . S
Fe559 O576 1.997 . S
O560 Fe559 2.002 . S
O560 C577 1.295 . S
O561 Fe556 1.997 . S
O561 C577 1.235 . S
O562 Fe556 2.002 . S
O562 C563 1.295 . S
C563 O562 1.295 . S
C563 O565 1.235 . S
C564 O569 1.287 . S
C564 O570 1.255 . S
O565 Fe557 1.997 . S
O565 C563 1.235 . S
C566 O572 1.287 . S
C566 O573 1.255 . S
O567 Fe556 1.976 . S
O567 C574 1.287 . S
O568 Fe557 1.996 . S
O568 C574 1.255 . S
O569 Fe559 1.976 . S
O569 C564 1.287 . S
O570 Fe556 1.996 . S
O570 C564 1.255 . S
C571 O575 1.295 . S
C571 O576 1.235 . S
O572 Fe557 1.976 . S
O572 C566 1.287 . S
O573 Fe559 1.996 . S
O573 C566 1.255 . S
C574 O567 1.287 . S
C574 O568 1.255 . S
O575 Fe557 2.002 . S
O575 C571 1.295 . S
O576 Fe559 1.997 . S
O576 C571 1.235 . S
C577 O560 1.295 . S
C577 O561 1.235 . S
Fe578 O580 1.918 . S
Fe578 O583 1.997 . S
Fe578 O584 2.002 . S
Fe578 O589 1.976 . S
Fe578 O592 1.996 . S
Fe579 O580 1.918 . S
Fe579 O587 1.997 . S
Fe579 O590 1.996 . S
Fe579 O594 1.976 . S
Fe579 O597 2.002 . S
O580 Fe578 1.918 . S
O580 Fe579 1.918 . S
O580 Fe581 1.918 . S
Fe581 O580 1.918 . S
Fe581 O582 2.002 . S
Fe581 O591 1.976 . S
Fe581 O595 1.996 . S
Fe581 O598 1.997 . S
O582 Fe581 2.002 . S
O582 C599 1.295 . S
O583 Fe578 1.997 . S
O583 C599 1.235 . S
O584 Fe578 2.002 . S
O584 C585 1.295 . S
C585 O584 1.295 . S
C585 O587 1.235 . S
C586 O591 1.287 . S
C586 O592 1.255 . S
O587 Fe579 1.997 . S
O587 C585 1.235 . S
C588 O594 1.287 . S
C588 O595 1.255 . S
O589 Fe578 1.976 . S
O589 C596 1.287 . S
O590 Fe579 1.996 . S
O590 C596 1.255 . S
O591 Fe581 1.976 . S
O591 C586 1.287 . S
O592 Fe578 1.996 . S
O592 C586 1.255 . S
C593 O597 1.295 . S
C593 O598 1.235 . S
O594 Fe579 1.976 . S
O594 C588 1.287 . S
O595 Fe581 1.996 . S
O595 C588 1.255 . S
C596 O589 1.287 . S
C596 O590 1.255 . S
O597 Fe579 2.002 . S
O597 C593 1.295 . S
O598 Fe581 1.997 . S
O598 C593 1.235 . S
C599 O582 1.295 . S
C599 O583 1.235 . S
Fe600 O602 1.918 . S
Fe600 O605 1.997 . S
Fe600 O606 2.002 . S
Fe600 O611 1.976 . S
Fe600 O614 1.996 . S
Fe601 O602 1.918 . S
Fe601 O609 1.997 . S
Fe601 O612 1.996 . S
Fe601 O616 1.976 . S
Fe601 O619 2.002 . S
O602 Fe600 1.918 . S
O602 Fe601 1.918 . S
O602 Fe603 1.918 . S
Fe603 O602 1.918 . S
Fe603 O604 2.002 . S
Fe603 O613 1.976 . S
Fe603 O617 1.996 . S
Fe603 O620 1.997 . S
O604 Fe603 2.002 . S
O604 C621 1.295 . S
O605 Fe600 1.997 . S
O605 C621 1.235 . S
O606 Fe600 2.002 . S
O606 C607 1.295 . S
C607 O606 1.295 . S
C607 O609 1.235 . S
C608 O613 1.287 . S
C608 O614 1.255 . S
O609 Fe601 1.997 . S
O609 C607 1.235 . S
C610 O616 1.287 . S
C610 O617 1.255 . S
O611 Fe600 1.976 . S
O611 C618 1.287 . S
O612 Fe601 1.996 . S
O612 C618 1.255 . S
O613 Fe603 1.976 . S
O613 C608 1.287 . S
O614 Fe600 1.996 . S
O614 C608 1.255 . S
C615 O619 1.295 . S
C615 O620 1.235 . S
O616 Fe601 1.976 . S
O616 C610 1.287 . S
O617 Fe603 1.996 . S
O617 C610 1.255 . S
C618 O611 1.287 . S
C618 O612 1.255 . S
O619 Fe601 2.002 . S
O619 C615 1.295 . S
O620 Fe603 1.997 . S
O620 C615 1.235 . S
C621 O604 1.295 . S
C621 O605 1.235 . S
Fe622 O624 1.918 . S
Fe622 O627 1.997 . S
Fe622 O628 2.002 . S
Fe622 O633 1.976 . S
Fe622 O636 1.996 . S
Fe623 O624 1.918 . S
Fe623 O631 1.997 . S
Fe623 O634 1.996 . S
Fe623 O638 1.976 . S
Fe623 O641 2.002 . S
O624 Fe622 1.918 . S
O624 Fe623 1.918 . S
O624 Fe625 1.918 . S
Fe625 O624 1.918 . S
Fe625 O626 2.002 . S
Fe625 O635 1.976 . S
Fe625 O639 1.996 . S
Fe625 O642 1.997 . S
O626 Fe625 2.002 . S
O626 C643 1.295 . S
O627 Fe622 1.997 . S
O627 C643 1.235 . S
O628 Fe622 2.002 . S
O628 C629 1.295 . S
C629 O628 1.295 . S
C629 O631 1.235 . S
C630 O635 1.287 . S
C630 O636 1.255 . S
O631 Fe623 1.997 . S
O631 C629 1.235 . S
C632 O638 1.287 . S
C632 O639 1.255 . S
O633 Fe622 1.976 . S
O633 C640 1.287 . S
O634 Fe623 1.996 . S
O634 C640 1.255 . S
O635 Fe625 1.976 . S
O635 C630 1.287 . S
O636 Fe622 1.996 . S
O636 C630 1.255 . S
C637 O641 1.295 . S
C637 O642 1.235 . S
O638 Fe623 1.976 . S
O638 C632 1.287 . S
O639 Fe625 1.996 . S
O639 C632 1.255 . S
C640 O633 1.287 . S
C640 O634 1.255 . S
O641 Fe623 2.002 . S
O641 C637 1.295 . S
O642 Fe625 1.997 . S
O642 C637 1.235 . S
C643 O626 1.295 . S
C643 O627 1.235 . S
Fe644 O646 1.918 . S
Fe644 O649 1.997 . S
Fe644 O650 2.002 . S
Fe644 O655 1.976 . S
Fe644 O658 1.996 . S
Fe645 O646 1.918 . S
Fe645 O653 1.997 . S
Fe645 O656 1.996 . S
Fe645 O660 1.976 . S
Fe645 O663 2.002 . S
O646 Fe644 1.918 . S
O646 Fe645 1.918 . S
O646 Fe647 1.918 . S
Fe647 O646 1.918 . S
Fe647 O648 2.002 . S
Fe647 O657 1.976 . S
Fe647 O661 1.996 . S
Fe647 O664 1.997 . S
O648 Fe647 2.002 . S
O648 C665 1.295 . S
O649 Fe644 1.997 . S
O649 C665 1.235 . S
O650 Fe644 2.002 . S
O650 C651 1.295 . S
C651 O650 1.295 . S
C651 O653 1.235 . S
C652 O657 1.287 . S
C652 O658 1.255 . S
O653 Fe645 1.997 . S
O653 C651 1.235 . S
C654 O660 1.287 . S
C654 O661 1.255 . S
O655 Fe644 1.976 . S
O655 C662 1.287 . S
O656 Fe645 1.996 . S
O656 C662 1.255 . S
O657 Fe647 1.976 . S
O657 C652 1.287 . S
O658 Fe644 1.996 . S
O658 C652 1.255 . S
C659 O663 1.295 . S
C659 O664 1.235 . S
O660 Fe645 1.976 . S
O660 C654 1.287 . S
O661 Fe647 1.996 . S
O661 C654 1.255 . S
C662 O655 1.287 . S
C662 O656 1.255 . S
O663 Fe645 2.002 . S
O663 C659 1.295 . S
O664 Fe647 1.997 . S
O664 C659 1.235 . S
C665 O648 1.295 . S
C665 O649 1.235 . S
Fe666 O668 1.918 . S
Fe666 O671 1.997 . S
Fe666 O672 2.002 . S
Fe666 O677 1.976 . S
Fe666 O680 1.996 . S
Fe667 O668 1.918 . S
Fe667 O675 1.997 . S
Fe667 O678 1.996 . S
Fe667 O682 1.976 . S
Fe667 O685 2.002 . S
O668 Fe666 1.918 . S
O668 Fe667 1.918 . S
O668 Fe669 1.918 . S
Fe669 O668 1.918 . S
Fe669 O670 2.002 . S
Fe669 O679 1.976 . S
Fe669 O683 1.996 . S
Fe669 O686 1.997 . S
O670 Fe669 2.002 . S
O670 C687 1.295 . S
O671 Fe666 1.997 . S
O671 C687 1.235 . S
O672 Fe666 2.002 . S
O672 C673 1.295 . S
C673 O672 1.295 . S
C673 O675 1.235 . S
C674 O679 1.287 . S
C674 O680 1.255 . S
O675 Fe667 1.997 . S
O675 C673 1.235 . S
C676 O682 1.287 . S
C676 O683 1.255 . S
O677 Fe666 1.976 . S
O677 C684 1.287 . S
O678 Fe667 1.996 . S
O678 C684 1.255 . S
O679 Fe669 1.976 . S
O679 C674 1.287 . S
O680 Fe666 1.996 . S
O680 C674 1.255 . S
C681 O685 1.295 . S
C681 O686 1.235 . S
O682 Fe667 1.976 . S
O682 C676 1.287 . S
O683 Fe669 1.996 . S
O683 C676 1.255 . S
C684 O677 1.287 . S
C684 O678 1.255 . S
O685 Fe667 2.002 . S
O685 C681 1.295 . S
O686 Fe669 1.997 . S
O686 C681 1.235 . S
C687 O670 1.295 . S
C687 O671 1.235 . S
C688 C689 1.349 . S
C688 C690 1.327 . S
C688 H713 0.950 . S
C689 C688 1.349 . S
C689 C705 1.349 . S
C690 C688 1.327 . S
C690 C709 1.429 . S
C690 H714 0.950 . S
C691 C708 1.574 . S
C691 C710 1.368 . S
C691 H715 0.949 . S
H692 C696 0.949 . S
C693 C694 1.349 . S
C693 C695 1.327 . S
C693 H716 0.950 . S
C694 C693 1.349 . S
C694 C706 1.349 . S
C695 C693 1.327 . S
C695 C711 1.429 . S
C695 H717 0.950 . S
C696 H692 0.949 . S
C696 C704 1.574 . S
C696 C712 1.368 . S
H697 C705 0.950 . S
H698 C703 0.950 . S
H699 C704 0.949 . S
H700 C706 0.950 . S
H701 C707 0.950 . S
H702 C708 0.949 . S
C703 H698 0.950 . S
C703 C705 1.327 . S
C703 C709 1.429 . S
C704 C696 1.574 . S
C704 H699 0.949 . S
C704 C710 1.368 . S
C705 C689 1.349 . S
C705 H697 0.950 . S
C705 C703 1.327 . S
C706 C694 1.349 . S
C706 H700 0.950 . S
C706 C707 1.327 . S
C707 H701 0.950 . S
C707 C706 1.327 . S
C707 C711 1.429 . S
C708 C691 1.574 . S
C708 H702 0.949 . S
C708 C712 1.368 . S
C709 C690 1.429 . S
C709 C703 1.429 . S
C709 C710 1.523 . S
C710 C691 1.368 . S
C710 C704 1.368 . S
C710 C709 1.523 . S
C711 C695 1.429 . S
C711 C707 1.429 . S
C711 C712 1.523 . S
C712 C696 1.368 . S
C712 C708 1.368 . S
C712 C711 1.523 . S
H713 C688 0.950 . S
H714 C690 0.950 . S
H715 C691 0.949 . S
H716 C693 0.950 . S
H717 C695 0.950 . S
C718 C719 1.349 . S
C718 C720 1.327 . S
C718 H743 0.950 . S
C719 C718 1.349 . S
C719 C735 1.349 . S
C720 C718 1.327 . S
C720 C739 1.429 . S
C720 H744 0.950 . S
C721 C738 1.574 . S
C721 C740 1.368 . S
C721 H745 0.949 . S
H722 C726 0.949 . S
C723 C724 1.349 . S
C723 C725 1.327 . S
C723 H746 0.950 . S
C724 C723 1.349 . S
C724 C736 1.349 . S
C725 C723 1.327 . S
C725 C741 1.429 . S
C725 H747 0.950 . S
C726 H722 0.949 . S
C726 C734 1.574 . S
C726 C742 1.368 . S
H727 C735 0.950 . S
H728 C733 0.950 . S
H729 C734 0.949 . S
H730 C736 0.950 . S
H731 C737 0.950 . S
H732 C738 0.949 . S
C733 H728 0.950 . S
C733 C735 1.327 . S
C733 C739 1.429 . S
C734 C726 1.574 . S
C734 H729 0.949 . S
C734 C740 1.368 . S
C735 C719 1.349 . S
C735 H727 0.950 . S
C735 C733 1.327 . S
C736 C724 1.349 . S
C736 H730 0.950 . S
C736 C737 1.327 . S
C737 H731 0.950 . S
C737 C736 1.327 . S
C737 C741 1.429 . S
C738 C721 1.574 . S
C738 H732 0.949 . S
C738 C742 1.368 . S
C739 C720 1.429 . S
C739 C733 1.429 . S
C739 C740 1.523 . S
C740 C721 1.368 . S
C740 C734 1.368 . S
C740 C739 1.523 . S
C741 C725 1.429 . S
C741 C737 1.429 . S
C741 C742 1.523 . S
C742 C726 1.368 . S
C742 C738 1.368 . S
C742 C741 1.523 . S
H743 C718 0.950 . S
H744 C720 0.950 . S
H745 C721 0.949 . S
H746 C723 0.950 . S
H747 C725 0.950 . S
C748 C749 1.349 . S
C748 C750 1.327 . S
C748 H773 0.950 . S
C749 C748 1.349 . S
C749 C765 1.349 . S
C750 C748 1.327 . S
C750 C769 1.429 . S
C750 H774 0.950 . S
C751 C768 1.574 . S
C751 C770 1.368 . S
C751 H775 0.949 . S
H752 C756 0.949 . S
C753 C754 1.349 . S
C753 C755 1.327 . S
C753 H776 0.950 . S
C754 C753 1.349 . S
C754 C766 1.349 . S
C755 C753 1.327 . S
C755 C771 1.429 . S
C755 H777 0.950 . S
C756 H752 0.949 . S
C756 C764 1.574 . S
C756 C772 1.368 . S
H757 C765 0.950 . S
H758 C763 0.950 . S
H759 C764 0.949 . S
H760 C766 0.950 . S
H761 C767 0.950 . S
H762 C768 0.949 . S
C763 H758 0.950 . S
C763 C765 1.327 . S
C763 C769 1.429 . S
C764 C756 1.574 . S
C764 H759 0.949 . S
C764 C770 1.368 . S
C765 C749 1.349 . S
C765 H757 0.950 . S
C765 C763 1.327 . S
C766 C754 1.349 . S
C766 H760 0.950 . S
C766 C767 1.327 . S
C767 H761 0.950 . S
C767 C766 1.327 . S
C767 C771 1.429 . S
C768 C751 1.574 . S
C768 H762 0.949 . S
C768 C772 1.368 . S
C769 C750 1.429 . S
C769 C763 1.429 . S
C769 C770 1.523 . S
C770 C751 1.368 . S
C770 C764 1.368 . S
C770 C769 1.523 . S
C771 C755 1.429 . S
C771 C767 1.429 . S
C771 C772 1.523 . S
C772 C756 1.368 . S
C772 C768 1.368 . S
C772 C771 1.523 . S
H773 C748 0.950 . S
H774 C750 0.950 . S
H775 C751 0.949 . S
H776 C753 0.950 . S
H777 C755 0.950 . S
C778 C779 1.349 . S
C778 C780 1.327 . S
C778 H803 0.950 . S
C779 C778 1.349 . S
C779 C795 1.349 . S
C780 C778 1.327 . S
C780 C799 1.429 . S
C780 H804 0.950 . S
C781 C798 1.574 . S
C781 C800 1.368 . S
C781 H805 0.949 . S
H782 C786 0.950 1_556 S
C783 C784 1.349 . S
C783 C785 1.327 . S
C783 H806 0.950 . S
C784 C783 1.349 . S
C784 C796 1.349 . S
C785 C783 1.327 . S
C785 C801 1.429 . S
C785 H807 0.950 . S
C786 H782 0.950 1_554 S
C786 C794 1.573 . S
C786 C802 1.368 . S
H787 C795 0.950 . S
H788 C793 0.950 . S
H789 C794 0.949 . S
H790 C796 0.950 . S
H791 C797 0.950 . S
H792 C798 0.949 . S
C793 H788 0.950 . S
C793 C795 1.327 . S
C793 C799 1.429 . S
C794 C786 1.573 . S
C794 H789 0.949 . S
C794 C800 1.368 . S
C795 C779 1.349 . S
C795 H787 0.950 . S
C795 C793 1.327 . S
C796 C784 1.349 . S
C796 H790 0.950 . S
C796 C797 1.327 . S
C797 H791 0.950 . S
C797 C796 1.327 . S
C797 C801 1.429 . S
C798 C781 1.574 . S
C798 H792 0.949 . S
C798 C802 1.368 . S
C799 C780 1.429 . S
C799 C793 1.429 . S
C799 C800 1.523 . S
C800 C781 1.368 . S
C800 C794 1.368 . S
C800 C799 1.523 . S
C801 C785 1.429 . S
C801 C797 1.429 . S
C801 C802 1.523 1_556 S
C802 C786 1.368 . S
C802 C798 1.368 . S
C802 C801 1.523 1_554 S
H803 C778 0.950 . S
H804 C780 0.950 . S
H805 C781 0.949 . S
H806 C783 0.950 . S
H807 C785 0.950 . S
C808 C809 1.349 . S
C808 C810 1.327 . S
C808 H833 0.950 . S
C809 C808 1.349 . S
C809 C825 1.349 . S
C810 C808 1.327 . S
C810 C829 1.429 . S
C810 H834 0.950 . S
C811 C828 1.574 . S
C811 C830 1.368 . S
C811 H835 0.949 . S
H812 C816 0.949 . S
C813 C814 1.349 . S
C813 C815 1.327 . S
C813 H836 0.950 . S
C814 C813 1.349 . S
C814 C826 1.349 . S
C815 C813 1.327 . S
C815 C831 1.429 . S
C815 H837 0.950 . S
C816 H812 0.949 . S
C816 C824 1.574 . S
C816 C832 1.368 . S
H817 C825 0.950 . S
H818 C823 0.950 . S
H819 C824 0.949 . S
H820 C826 0.950 . S
H821 C827 0.950 . S
H822 C828 0.949 . S
C823 H818 0.950 . S
C823 C825 1.327 . S
C823 C829 1.429 . S
C824 C816 1.574 . S
C824 H819 0.949 . S
C824 C830 1.368 . S
C825 C809 1.349 . S
C825 H817 0.950 . S
C825 C823 1.327 . S
C826 C814 1.349 . S
C826 H820 0.950 . S
C826 C827 1.327 . S
C827 H821 0.950 . S
C827 C826 1.327 . S
C827 C831 1.429 . S
C828 C811 1.574 . S
C828 H822 0.949 . S
C828 C832 1.368 . S
C829 C810 1.429 . S
C829 C823 1.429 . S
C829 C830 1.523 . S
C830 C811 1.368 . S
C830 C824 1.368 . S
C830 C829 1.523 . S
C831 C815 1.429 . S
C831 C827 1.429 . S
C831 C832 1.523 . S
C832 C816 1.368 . S
C832 C828 1.368 . S
C832 C831 1.523 . S
H833 C808 0.950 . S
H834 C810 0.950 . S
H835 C811 0.949 . S
H836 C813 0.950 . S
H837 C815 0.950 . S
C838 C839 1.349 . S
C838 C840 1.327 . S
C838 H863 0.950 . S
C839 C838 1.349 . S
C839 C855 1.349 . S
C840 C838 1.327 . S
C840 C859 1.429 . S
C840 H864 0.950 . S
C841 C858 1.574 . S
C841 C860 1.368 . S
C841 H865 0.949 . S
H842 C846 0.949 . S
C843 C844 1.349 . S
C843 C845 1.327 . S
C843 H866 0.950 . S
C844 C843 1.349 . S
C844 C856 1.349 . S
C845 C843 1.327 . S
C845 C861 1.429 . S
C845 H867 0.950 . S
C846 H842 0.949 . S
C846 C854 1.574 . S
C846 C862 1.368 . S
H847 C855 0.950 . S
H848 C853 0.950 . S
H849 C854 0.949 . S
H850 C856 0.950 . S
H851 C857 0.950 . S
H852 C858 0.949 . S
C853 H848 0.950 . S
C853 C855 1.327 . S
C853 C859 1.429 . S
C854 C846 1.574 . S
C854 H849 0.949 . S
C854 C860 1.368 . S
C855 C839 1.349 . S
C855 H847 0.950 . S
C855 C853 1.327 . S
C856 C844 1.349 . S
C856 H850 0.950 . S
C856 C857 1.327 . S
C857 H851 0.950 . S
C857 C856 1.327 . S
C857 C861 1.429 . S
C858 C841 1.574 . S
C858 H852 0.949 . S
C858 C862 1.368 . S
C859 C840 1.429 . S
C859 C853 1.429 . S
C859 C860 1.523 . S
C860 C841 1.368 . S
C860 C854 1.368 . S
C860 C859 1.523 . S
C861 C845 1.429 . S
C861 C857 1.429 . S
C861 C862 1.523 . S
C862 C846 1.368 . S
C862 C858 1.368 . S
C862 C861 1.523 . S
H863 C838 0.950 . S
H864 C840 0.950 . S
H865 C841 0.949 . S
H866 C843 0.950 . S
H867 C845 0.950 . S
C868 C869 1.349 . S
C868 C870 1.327 . S
C868 H893 0.950 . S
C869 C868 1.349 . S
C869 C885 1.349 . S
C870 C868 1.327 . S
C870 C889 1.429 . S
C870 H894 0.950 . S
C871 C888 1.574 . S
C871 C890 1.368 . S
C871 H895 0.949 . S
H872 C876 0.949 . S
C873 C874 1.349 . S
C873 C875 1.327 . S
C873 H896 0.950 . S
C874 C873 1.349 . S
C874 C886 1.349 . S
C875 C873 1.327 . S
C875 C891 1.429 . S
C875 H897 0.950 . S
C876 H872 0.949 . S
C876 C884 1.574 . S
C876 C892 1.368 . S
H877 C885 0.950 . S
H878 C883 0.950 . S
H879 C884 0.949 . S
H880 C886 0.950 . S
H881 C887 0.950 . S
H882 C888 0.949 . S
C883 H878 0.950 . S
C883 C885 1.327 . S
C883 C889 1.429 . S
C884 C876 1.574 . S
C884 H879 0.949 . S
C884 C890 1.368 . S
C885 C869 1.349 . S
C885 H877 0.950 . S
C885 C883 1.327 . S
C886 C874 1.349 . S
C886 H880 0.950 . S
C886 C887 1.327 . S
C887 H881 0.950 . S
C887 C886 1.327 . S
C887 C891 1.429 . S
C888 C871 1.574 . S
C888 H882 0.949 . S
C888 C892 1.368 . S
C889 C870 1.429 . S
C889 C883 1.429 . S
C889 C890 1.523 . S
C890 C871 1.368 . S
C890 C884 1.368 . S
C890 C889 1.523 . S
C891 C875 1.429 . S
C891 C887 1.429 . S
C891 C892 1.523 . S
C892 C876 1.368 . S
C892 C888 1.368 . S
C892 C891 1.523 . S
H893 C868 0.950 . S
H894 C870 0.950 . S
H895 C871 0.949 . S
H896 C873 0.950 . S
H897 C875 0.950 . S
C898 C899 1.349 . S
C898 C900 1.327 . S
C898 H923 0.950 . S
C899 C898 1.349 . S
C899 C915 1.349 . S
C900 C898 1.327 . S
C900 C919 1.429 . S
C900 H924 0.950 . S
C901 C918 1.574 1_556 S
C901 C920 1.368 . S
C901 H925 0.949 . S
H902 C906 0.949 . S
C903 C904 1.349 . S
C903 C905 1.327 . S
C903 H926 0.950 . S
C904 C903 1.349 . S
C904 C916 1.349 . S
C905 C903 1.327 . S
C905 C921 1.429 . S
C905 H927 0.950 . S
C906 H902 0.949 . S
C906 C914 1.574 . S
C906 C922 1.368 1_556 S
H907 C915 0.950 . S
H908 C913 0.950 . S
H909 C914 0.949 . S
H910 C916 0.950 . S
H911 C917 0.950 . S
H912 C918 0.949 . S
C913 H908 0.950 . S
C913 C915 1.327 . S
C913 C919 1.429 . S
C914 C906 1.574 . S
C914 H909 0.949 . S
C914 C920 1.368 . S
C915 C899 1.349 . S
C915 H907 0.950 . S
C915 C913 1.327 . S
C916 C904 1.349 . S
C916 H910 0.950 . S
C916 C917 1.327 . S
C917 H911 0.950 . S
C917 C916 1.327 . S
C917 C921 1.429 . S
C918 C901 1.574 1_554 S
C918 H912 0.949 . S
C918 C922 1.368 . S
C919 C900 1.429 . S
C919 C913 1.429 . S
C919 C920 1.523 . S
C920 C901 1.368 . S
C920 C914 1.368 . S
C920 C919 1.523 . S
C921 C905 1.429 . S
C921 C917 1.429 . S
C921 C922 1.523 . S
C922 C906 1.368 1_554 S
C922 C918 1.368 . S
C922 C921 1.523 . S
H923 C898 0.950 . S
H924 C900 0.950 . S
H925 C901 0.949 . S
H926 C903 0.950 . S
H927 C905 0.950 . S
C928 C929 1.349 . S
C928 C930 1.327 . S
C928 H953 0.950 . S
C929 C928 1.349 . S
C929 C945 1.349 . S
C930 C928 1.327 . S
C930 C949 1.429 . S
C930 H954 0.950 . S
C931 C948 1.574 . S
C931 C950 1.368 . S
C931 H955 0.949 . S
H932 C936 0.949 . S
C933 C934 1.349 . S
C933 C935 1.327 . S
C933 H956 0.950 . S
C934 C933 1.349 . S
C934 C946 1.349 . S
C935 C933 1.327 . S
C935 C951 1.429 . S
C935 H957 0.950 . S
C936 H932 0.949 . S
C936 C944 1.574 . S
C936 C952 1.368 . S
H937 C945 0.950 . S
H938 C943 0.950 . S
H939 C944 0.949 . S
H940 C946 0.950 . S
H941 C947 0.950 . S
H942 C948 0.949 . S
C943 H938 0.950 . S
C943 C945 1.327 . S
C943 C949 1.429 . S
C944 C936 1.574 . S
C944 H939 0.949 . S
C944 C950 1.368 . S
C945 C929 1.349 . S
C945 H937 0.950 . S
C945 C943 1.327 . S
C946 C934 1.349 . S
C946 H940 0.950 . S
C946 C947 1.327 . S
C947 H941 0.950 . S
C947 C946 1.327 . S
C947 C951 1.429 . S
C948 C931 1.574 . S
C948 H942 0.949 . S
C948 C952 1.368 . S
C949 C930 1.429 . S
C949 C943 1.429 . S
C949 C950 1.523 . S
C950 C931 1.368 . S
C950 C944 1.368 . S
C950 C949 1.523 . S
C951 C935 1.429 . S
C951 C947 1.429 . S
C951 C952 1.523 . S
C952 C936 1.368 . S
C952 C948 1.368 . S
C952 C951 1.523 . S
H953 C928 0.950 . S
H954 C930 0.950 . S
H955 C931 0.949 . S
H956 C933 0.950 . S
H957 C935 0.950 . S
C958 C959 1.349 . S
C958 C960 1.327 . S
C958 H983 0.950 . S
C959 C958 1.349 . S
C959 C975 1.349 . S
C960 C958 1.327 . S
C960 C979 1.429 . S
C960 H984 0.950 . S
C961 C978 1.574 . S
C961 C980 1.368 . S
C961 H985 0.949 . S
H962 C966 0.949 . S
C963 C964 1.349 . S
C963 C965 1.327 . S
C963 H986 0.950 . S
C964 C963 1.349 . S
C964 C976 1.349 . S
C965 C963 1.327 . S
C965 C981 1.429 . S
C965 H987 0.950 . S
C966 H962 0.949 . S
C966 C974 1.574 . S
C966 C982 1.376 . S
H967 C975 0.950 . S
H968 C973 0.950 . S
H969 C974 0.949 . S
H970 C976 0.950 . S
H971 C977 0.950 . S
H972 C978 0.930 1_565 S
C973 H968 0.950 . S
C973 C975 1.327 . S
C973 C979 1.429 . S
C974 C966 1.574 . S
C974 H969 0.949 . S
C974 C980 1.368 . S
C975 C959 1.349 . S
C975 H967 0.950 . S
C975 C973 1.327 . S
C976 C964 1.349 . S
C976 H970 0.950 . S
C976 C977 1.327 . S
C977 H971 0.950 . S
C977 C976 1.327 . S
C977 C981 1.429 . S
C978 C961 1.574 . S
C978 H972 0.930 1_545 S
C978 C982 1.375 . S
C979 C960 1.429 . S
C979 C973 1.429 . S
C979 C980 1.523 . S
C980 C961 1.368 . S
C980 C974 1.368 . S
C980 C979 1.523 . S
C981 C965 1.429 . S
C981 C977 1.429 . S
C981 C982 1.504 1_565 S
C982 C966 1.376 . S
C982 C978 1.375 . S
C982 C981 1.504 1_545 S
H983 C958 0.950 . S
H984 C960 0.950 . S
H985 C961 0.949 . S
H986 C963 0.950 . S
H987 C965 0.950 . S
C988 C989 1.349 . S
C988 C990 1.327 . S
C988 H1013 0.950 . S
C989 C988 1.349 . S
C989 C1005 1.349 . S
C990 C988 1.327 . S
C990 C1009 1.429 . S
C990 H1014 0.950 . S
C991 C1008 1.574 . S
C991 C1010 1.368 . S
C991 H1015 0.949 . S
H992 C996 0.949 . S
C993 C994 1.349 . S
C993 C995 1.327 . S
C993 H1016 0.950 . S
C994 C993 1.349 . S
C994 C1006 1.349 . S
C995 C993 1.327 . S
C995 C1011 1.429 . S
C995 H1017 0.950 . S
C996 H992 0.949 . S
C996 C1004 1.574 . S
C996 C1012 1.368 . S
H997 C1005 0.950 . S
H998 C1003 0.950 . S
H999 C1004 0.949 . S
H1000 C1006 0.950 . S
H1001 C1007 0.950 . S
H1002 C1008 0.949 . S
C1003 H998 0.950 . S
C1003 C1005 1.327 . S
C1003 C1009 1.429 . S
C1004 C996 1.574 . S
C1004 H999 0.949 . S
C1004 C1010 1.368 . S
C1005 C989 1.349 . S
C1005 H997 0.950 . S
C1005 C1003 1.327 . S
C1006 C994 1.349 . S
C1006 H1000 0.950 . S
C1006 C1007 1.327 . S
C1007 H1001 0.950 . S
C1007 C1006 1.327 . S
C1007 C1011 1.429 . S
C1008 C991 1.574 . S
C1008 H1002 0.949 . S
C1008 C1012 1.368 . S
C1009 C990 1.429 . S
C1009 C1003 1.429 . S
C1009 C1010 1.523 . S
C1010 C991 1.368 . S
C1010 C1004 1.368 . S
C1010 C1009 1.523 . S
C1011 C995 1.429 . S
C1011 C1007 1.429 . S
C1011 C1012 1.523 . S
C1012 C996 1.368 . S
C1012 C1008 1.368 . S
C1012 C1011 1.523 . S
H1013 C988 0.950 . S
H1014 C990 0.950 . S
H1015 C991 0.949 . S
H1016 C993 0.950 . S
H1017 C995 0.950 . S
C1018 C1019 1.349 . S
C1018 C1020 1.327 . S
C1018 H1043 0.950 . S
C1019 C1018 1.349 . S
C1019 C1035 1.349 . S
C1020 C1018 1.327 . S
C1020 C1039 1.429 . S
C1020 H1044 0.950 . S
C1021 C1038 1.574 1_565 S
C1021 C1040 1.368 . S
C1021 H1045 0.949 . S
H1022 C1026 0.949 1_545 S
C1023 C1024 1.349 . S
C1023 C1025 1.327 . S
C1023 H1046 0.950 . S
C1024 C1023 1.349 . S
C1024 C1036 1.349 . S
C1025 C1023 1.327 . S
C1025 C1041 1.429 . S
C1025 H1047 0.950 . S
C1026 H1022 0.949 1_565 S
C1026 C1034 1.574 . S
C1026 C1042 1.368 1_565 S
H1027 C1035 0.950 . S
H1028 C1033 0.950 . S
H1029 C1034 0.949 . S
H1030 C1036 0.950 . S
H1031 C1037 0.950 . S
H1032 C1038 0.949 . S
C1033 H1028 0.950 . S
C1033 C1035 1.327 . S
C1033 C1039 1.429 . S
C1034 C1026 1.574 . S
C1034 H1029 0.949 . S
C1034 C1040 1.368 . S
C1035 C1019 1.349 . S
C1035 H1027 0.950 . S
C1035 C1033 1.327 . S
C1036 C1024 1.349 . S
C1036 H1030 0.950 . S
C1036 C1037 1.327 . S
C1037 H1031 0.950 . S
C1037 C1036 1.327 . S
C1037 C1041 1.429 . S
C1038 C1021 1.574 1_545 S
C1038 H1032 0.949 . S
C1038 C1042 1.368 . S
C1039 C1020 1.429 . S
C1039 C1033 1.429 . S
C1039 C1040 1.523 . S
C1040 C1021 1.368 . S
C1040 C1034 1.368 . S
C1040 C1039 1.523 . S
C1041 C1025 1.429 . S
C1041 C1037 1.429 . S
C1041 C1042 1.523 . S
C1042 C1026 1.368 1_545 S
C1042 C1038 1.368 . S
C1042 C1041 1.523 . S
H1043 C1018 0.950 . S
H1044 C1020 0.950 . S
H1045 C1021 0.949 . S
H1046 C1023 0.950 . S
H1047 C1025 0.950 . S
C1048 C1049 1.349 . S
C1048 C1050 1.327 . S
C1048 H1073 0.950 1_565 S
C1049 C1048 1.349 . S
C1049 C1065 1.349 . S
C1050 C1048 1.327 . S
C1050 C1069 1.429 . S
C1050 H1074 0.950 . S
C1051 C1068 1.574 . S
C1051 C1070 1.368 . S
C1051 H1075 0.949 . S
H1052 C1056 0.949 . S
C1053 C1054 1.349 . S
C1053 C1055 1.327 . S
C1053 H1076 0.950 . S
C1054 C1053 1.349 . S
C1054 C1066 1.349 . S
C1055 C1053 1.327 . S
C1055 C1071 1.429 . S
C1055 H1077 0.950 . S
C1056 H1052 0.949 . S
C1056 C1064 1.574 . S
C1056 C1072 1.368 . S
H1057 C1065 0.950 . S
H1058 C1063 0.950 . S
H1059 C1064 0.949 . S
H1060 C1066 0.950 . S
H1061 C1067 0.950 . S
H1062 C1068 0.949 . S
C1063 H1058 0.950 . S
C1063 C1065 1.327 . S
C1063 C1069 1.429 . S
C1064 C1056 1.574 . S
C1064 H1059 0.949 . S
C1064 C1070 1.368 . S
C1065 C1049 1.349 . S
C1065 H1057 0.950 . S
C1065 C1063 1.327 . S
C1066 C1054 1.349 . S
C1066 H1060 0.950 . S
C1066 C1067 1.327 . S
C1067 H1061 0.950 . S
C1067 C1066 1.327 . S
C1067 C1071 1.429 . S
C1068 C1051 1.574 . S
C1068 H1062 0.949 . S
C1068 C1072 1.368 . S
C1069 C1050 1.429 . S
C1069 C1063 1.429 . S
C1069 C1070 1.523 . S
C1070 C1051 1.368 . S
C1070 C1064 1.368 . S
C1070 C1069 1.523 . S
C1071 C1055 1.429 . S
C1071 C1067 1.429 . S
C1071 C1072 1.523 . S
C1072 C1056 1.368 . S
C1072 C1068 1.368 . S
C1072 C1071 1.523 . S
H1073 C1048 0.950 1_545 S
H1074 C1050 0.950 . S
H1075 C1051 0.949 . S
H1076 C1053 0.950 . S
H1077 C1055 0.950 . S
C1078 C1079 1.349 . S
C1078 C1080 1.327 . S
C1078 H1103 0.950 . S
C1079 C1078 1.349 . S
C1079 C1095 1.349 . S
C1080 C1078 1.327 . S
C1080 C1099 1.429 . S
C1080 H1104 0.950 . S
C1081 C1098 1.574 . S
C1081 C1100 1.368 . S
C1081 H1105 0.949 . S
H1082 C1086 0.949 . S
C1083 C1084 1.349 . S
C1083 C1085 1.327 . S
C1083 H1106 0.950 . S
C1084 C1083 1.349 . S
C1084 C1096 1.349 . S
C1085 C1083 1.327 . S
C1085 C1101 1.429 . S
C1085 H1107 0.950 . S
C1086 H1082 0.949 . S
C1086 C1094 1.574 . S
C1086 C1102 1.368 1_545 S
H1087 C1095 0.950 . S
H1088 C1093 0.950 . S
H1089 C1094 0.949 . S
H1090 C1096 0.950 . S
H1091 C1097 0.950 . S
H1092 C1098 0.949 1_565 S
C1093 H1088 0.950 . S
C1093 C1095 1.327 . S
C1093 C1099 1.429 . S
C1094 C1086 1.574 . S
C1094 H1089 0.949 . S
C1094 C1100 1.368 . S
C1095 C1079 1.349 . S
C1095 H1087 0.950 . S
C1095 C1093 1.327 . S
C1096 C1084 1.349 . S
C1096 H1090 0.950 . S
C1096 C1097 1.327 . S
C1097 H1091 0.950 . S
C1097 C1096 1.327 . S
C1097 C1101 1.429 . S
C1098 C1081 1.574 . S
C1098 H1092 0.949 1_545 S
C1098 C1102 1.368 1_545 S
C1099 C1080 1.429 . S
C1099 C1093 1.429 . S
C1099 C1100 1.523 . S
C1100 C1081 1.368 . S
C1100 C1094 1.368 . S
C1100 C1099 1.523 . S
C1101 C1085 1.429 . S
C1101 C1097 1.429 . S
C1101 C1102 1.523 . S
C1102 C1086 1.368 1_565 S
C1102 C1098 1.368 1_565 S
C1102 C1101 1.523 . S
H1103 C1078 0.950 . S
H1104 C1080 0.950 . S
H1105 C1081 0.949 . S
H1106 C1083 0.950 . S
H1107 C1085 0.950 . S
C1108 C1109 1.349 . S
C1108 C1110 1.327 . S
C1108 H1133 0.950 . S
C1109 C1108 1.349 . S
C1109 C1125 1.349 . S
C1110 C1108 1.327 . S
C1110 C1129 1.429 . S
C1110 H1134 0.950 . S
C1111 C1128 1.574 . S
C1111 C1130 1.368 . S
C1111 H1135 0.949 . S
H1112 C1116 0.949 . S
C1113 C1114 1.349 . S
C1113 C1115 1.327 . S
C1113 H1136 0.950 . S
C1114 C1113 1.349 . S
C1114 C1126 1.349 . S
C1115 C1113 1.327 . S
C1115 C1131 1.429 . S
C1115 H1137 0.950 . S
C1116 H1112 0.949 . S
C1116 C1124 1.574 . S
C1116 C1132 1.368 . S
H1117 C1125 0.950 . S
H1118 C1123 0.950 . S
H1119 C1124 0.949 . S
H1120 C1126 0.950 . S
H1121 C1127 0.950 . S
H1122 C1128 0.949 . S
C1123 H1118 0.950 . S
C1123 C1125 1.327 . S
C1123 C1129 1.429 . S
C1124 C1116 1.574 . S
C1124 H1119 0.949 . S
C1124 C1130 1.368 . S
C1125 C1109 1.349 . S
C1125 H1117 0.950 . S
C1125 C1123 1.327 . S
C1126 C1114 1.349 . S
C1126 H1120 0.950 . S
C1126 C1127 1.327 . S
C1127 H1121 0.950 . S
C1127 C1126 1.327 . S
C1127 C1131 1.429 . S
C1128 C1111 1.574 . S
C1128 H1122 0.949 . S
C1128 C1132 1.368 . S
C1129 C1110 1.429 . S
C1129 C1123 1.429 . S
C1129 C1130 1.523 . S
C1130 C1111 1.368 . S
C1130 C1124 1.368 . S
C1130 C1129 1.523 . S
C1131 C1115 1.429 . S
C1131 C1127 1.429 . S
C1131 C1132 1.523 . S
C1132 C1116 1.368 . S
C1132 C1128 1.368 . S
C1132 C1131 1.523 . S
H1133 C1108 0.950 . S
H1134 C1110 0.950 . S
H1135 C1111 0.949 . S
H1136 C1113 0.950 . S
H1137 C1115 0.950 . S
C1138 C1139 1.349 . S
C1138 C1140 1.327 . S
C1138 H1163 0.950 . S
C1139 C1138 1.349 . S
C1139 C1155 1.349 . S
C1140 C1138 1.327 . S
C1140 C1159 1.429 . S
C1140 H1164 0.950 . S
C1141 C1158 1.574 1_565 S
C1141 C1160 1.368 . S
C1141 H1165 0.949 . S
H1142 C1146 0.949 . S
C1143 C1144 1.349 . S
C1143 C1145 1.327 . S
C1143 H1166 0.950 . S
C1144 C1143 1.349 . S
C1144 C1156 1.349 . S
C1145 C1143 1.327 . S
C1145 C1161 1.429 . S
C1145 H1167 0.950 . S
C1146 H1142 0.949 . S
C1146 C1154 1.574 1_545 S
C1146 C1162 1.368 . S
H1147 C1155 0.950 . S
H1148 C1153 0.950 . S
H1149 C1154 0.949 . S
H1150 C1156 0.950 . S
H1151 C1157 0.950 . S
H1152 C1158 0.949 . S
C1153 H1148 0.950 . S
C1153 C1155 1.327 . S
C1153 C1159 1.429 . S
C1154 C1146 1.574 1_565 S
C1154 H1149 0.949 . S
C1154 C1160 1.368 . S
C1155 C1139 1.349 . S
C1155 H1147 0.950 . S
C1155 C1153 1.327 . S
C1156 C1144 1.349 . S
C1156 H1150 0.950 . S
C1156 C1157 1.327 . S
C1157 H1151 0.950 . S
C1157 C1156 1.327 . S
C1157 C1161 1.429 . S
C1158 C1141 1.574 1_545 S
C1158 H1152 0.949 . S
C1158 C1162 1.368 . S
C1159 C1140 1.429 . S
C1159 C1153 1.429 . S
C1159 C1160 1.523 . S
C1160 C1141 1.368 . S
C1160 C1154 1.368 . S
C1160 C1159 1.523 . S
C1161 C1145 1.429 . S
C1161 C1157 1.429 . S
C1161 C1162 1.523 . S
C1162 C1146 1.368 . S
C1162 C1158 1.368 . S
C1162 C1161 1.523 . S
H1163 C1138 0.950 . S
H1164 C1140 0.950 . S
H1165 C1141 0.949 . S
H1166 C1143 0.950 . S
H1167 C1145 0.950 . S
C1168 C1169 1.349 . S
C1168 C1170 1.327 . S
C1168 H1193 0.950 . S
C1169 C1168 1.349 . S
C1169 C1185 1.349 . S
C1170 C1168 1.327 . S
C1170 C1189 1.429 . S
C1170 H1194 0.950 . S
C1171 C1188 1.574 . S
C1171 C1190 1.368 . S
C1171 H1195 0.949 . S
H1172 C1176 0.949 . S
C1173 C1174 1.349 . S
C1173 C1175 1.327 . S
C1173 H1196 0.950 . S
C1174 C1173 1.349 . S
C1174 C1186 1.349 . S
C1175 C1173 1.327 . S
C1175 C1191 1.429 . S
C1175 H1197 0.950 . S
C1176 H1172 0.949 . S
C1176 C1184 1.574 . S
C1176 C1192 1.368 . S
H1177 C1185 0.950 . S
H1178 C1183 0.950 . S
H1179 C1184 0.949 . S
H1180 C1186 0.950 . S
H1181 C1187 0.950 . S
H1182 C1188 0.949 . S
C1183 H1178 0.950 . S
C1183 C1185 1.327 . S
C1183 C1189 1.429 . S
C1184 C1176 1.574 . S
C1184 H1179 0.949 . S
C1184 C1190 1.368 . S
C1185 C1169 1.349 . S
C1185 H1177 0.950 . S
C1185 C1183 1.327 . S
C1186 C1174 1.349 . S
C1186 H1180 0.950 . S
C1186 C1187 1.327 . S
C1187 H1181 0.950 . S
C1187 C1186 1.327 . S
C1187 C1191 1.429 . S
C1188 C1171 1.574 . S
C1188 H1182 0.949 . S
C1188 C1192 1.368 . S
C1189 C1170 1.429 . S
C1189 C1183 1.429 . S
C1189 C1190 1.523 . S
C1190 C1171 1.368 . S
C1190 C1184 1.368 . S
C1190 C1189 1.523 . S
C1191 C1175 1.429 . S
C1191 C1187 1.429 . S
C1191 C1192 1.523 . S
C1192 C1176 1.368 . S
C1192 C1188 1.368 . S
C1192 C1191 1.523 . S
H1193 C1168 0.950 . S
H1194 C1170 0.950 . S
H1195 C1171 0.949 . S
H1196 C1173 0.950 . S
H1197 C1175 0.950 . S
C1198 C1199 1.349 . S
C1198 C1200 1.327 . S
C1198 H1223 0.950 . S
C1199 C1198 1.349 . S
C1199 C1215 1.349 . S
C1200 C1198 1.327 . S
C1200 C1219 1.429 . S
C1200 H1224 0.950 . S
C1201 C1218 1.574 . S
C1201 C1220 1.368 . S
C1201 H1225 0.949 . S
H1202 C1206 0.949 . S
C1203 C1204 1.349 . S
C1203 C1205 1.327 . S
C1203 H1226 0.950 . S
C1204 C1203 1.349 . S
C1204 C1216 1.349 . S
C1205 C1203 1.327 . S
C1205 C1221 1.429 . S
C1205 H1227 0.950 . S
C1206 H1202 0.949 . S
C1206 C1214 1.574 . S
C1206 C1222 1.368 . S
H1207 C1215 0.993 . S
H1208 C1213 0.950 . S
H1209 C1214 0.949 . S
H1210 C1216 0.950 . S
H1211 C1217 0.950 . S
H1212 C1218 0.949 . S
C1213 H1208 0.950 . S
C1213 C1215 1.327 . S
C1213 C1219 1.429 . S
C1214 C1206 1.574 . S
C1214 H1209 0.949 . S
C1214 C1220 1.368 . S
C1215 C1199 1.349 . S
C1215 H1207 0.993 . S
C1215 C1213 1.327 . S
C1216 C1204 1.349 . S
C1216 H1210 0.950 . S
C1216 C1217 1.327 . S
C1217 H1211 0.950 . S
C1217 C1216 1.327 . S
C1217 C1221 1.429 . S
C1218 C1201 1.574 . S
C1218 H1212 0.949 . S
C1218 C1222 1.368 . S
C1219 C1200 1.429 . S
C1219 C1213 1.429 . S
C1219 C1220 1.523 . S
C1220 C1201 1.368 . S
C1220 C1214 1.368 . S
C1220 C1219 1.523 . S
C1221 C1205 1.429 . S
C1221 C1217 1.429 . S
C1221 C1222 1.523 . S
C1222 C1206 1.368 . S
C1222 C1218 1.368 . S
C1222 C1221 1.523 . S
H1223 C1198 0.950 . S
H1224 C1200 0.950 . S
H1225 C1201 0.949 . S
H1226 C1203 0.950 . S
H1227 C1205 0.950 . S
C1228 C1229 1.349 . S
C1228 C1230 1.327 . S
C1228 H1253 0.950 . S
C1229 C1228 1.349 . S
C1229 C1245 1.349 . S
C1230 C1228 1.327 . S
C1230 C1249 1.429 . S
C1230 H1254 0.950 . S
C1231 C1248 1.574 1_455 S
C1231 C1250 1.368 . S
C1231 H1255 0.949 . S
H1232 C1236 0.949 . S
C1233 C1234 1.349 . S
C1233 C1235 1.327 . S
C1233 H1256 0.950 . S
C1234 C1233 1.349 . S
C1234 C1246 1.349 . S
C1235 C1233 1.327 . S
C1235 C1251 1.429 . S
C1235 H1257 0.950 . S
C1236 H1232 0.949 . S
C1236 C1244 1.574 . S
C1236 C1252 1.368 1_455 S
H1237 C1245 0.950 . S
H1238 C1243 0.950 . S
H1239 C1244 0.949 . S
H1240 C1246 0.950 . S
H1241 C1247 0.950 . S
H1242 C1248 0.949 . S
C1243 H1238 0.950 . S
C1243 C1245 1.327 . S
C1243 C1249 1.429 . S
C1244 C1236 1.574 . S
C1244 H1239 0.949 . S
C1244 C1250 1.368 . S
C1245 C1229 1.349 . S
C1245 H1237 0.950 . S
C1245 C1243 1.327 . S
C1246 C1234 1.349 . S
C1246 H1240 0.950 . S
C1246 C1247 1.327 . S
C1247 H1241 0.950 . S
C1247 C1246 1.327 . S
C1247 C1251 1.429 . S
C1248 C1231 1.574 1_655 S
C1248 H1242 0.949 . S
C1248 C1252 1.368 . S
C1249 C1230 1.429 . S
C1249 C1243 1.429 . S
C1249 C1250 1.523 . S
C1250 C1231 1.368 . S
C1250 C1244 1.368 . S
C1250 C1249 1.523 . S
C1251 C1235 1.429 . S
C1251 C1247 1.429 . S
C1251 C1252 1.523 . S
C1252 C1236 1.368 1_655 S
C1252 C1248 1.368 . S
C1252 C1251 1.523 . S
H1253 C1228 0.950 . S
H1254 C1230 0.950 . S
H1255 C1231 0.949 . S
H1256 C1233 0.950 . S
H1257 C1235 0.950 . S
C1258 C1259 1.349 . S
C1258 C1260 1.327 . S
C1258 H1283 0.950 . S
C1259 C1258 1.349 . S
C1259 C1275 1.349 . S
C1260 C1258 1.327 . S
C1260 C1279 1.429 . S
C1260 H1284 0.950 . S
C1261 C1278 1.574 . S
C1261 C1280 1.368 . S
C1261 H1285 0.949 . S
H1262 C1266 0.949 . S
C1263 C1264 1.349 . S
C1263 C1265 1.327 . S
C1263 H1286 0.950 . S
C1264 C1263 1.349 . S
C1264 C1276 1.349 . S
C1265 C1263 1.327 . S
C1265 C1281 1.429 . S
C1265 H1287 0.950 . S
C1266 H1262 0.949 . S
C1266 C1274 1.574 . S
C1266 C1282 1.368 . S
H1267 C1275 0.950 . S
H1268 C1273 0.950 . S
H1269 C1274 0.949 . S
H1270 C1276 0.950 . S
H1271 C1277 0.950 . S
H1272 C1278 0.949 . S
C1273 H1268 0.950 . S
C1273 C1275 1.327 . S
C1273 C1279 1.429 . S
C1274 C1266 1.574 . S
C1274 H1269 0.949 . S
C1274 C1280 1.368 . S
C1275 C1259 1.349 . S
C1275 H1267 0.950 . S
C1275 C1273 1.327 . S
C1276 C1264 1.349 . S
C1276 H1270 0.950 . S
C1276 C1277 1.327 . S
C1277 H1271 0.950 . S
C1277 C1276 1.327 . S
C1277 C1281 1.429 . S
C1278 C1261 1.574 . S
C1278 H1272 0.949 . S
C1278 C1282 1.368 . S
C1279 C1260 1.429 . S
C1279 C1273 1.429 . S
C1279 C1280 1.523 . S
C1280 C1261 1.368 . S
C1280 C1274 1.368 . S
C1280 C1279 1.523 . S
C1281 C1265 1.429 . S
C1281 C1277 1.429 . S
C1281 C1282 1.523 . S
C1282 C1266 1.368 . S
C1282 C1278 1.368 . S
C1282 C1281 1.523 . S
H1283 C1258 0.950 . S
H1284 C1260 0.950 . S
H1285 C1261 0.949 . S
H1286 C1263 0.950 . S
H1287 C1265 0.950 . S
C1288 C1289 1.349 . S
C1288 C1290 1.327 . S
C1288 H1313 0.950 . S
C1289 C1288 1.349 . S
C1289 C1305 1.349 . S
C1290 C1288 1.327 . S
C1290 C1309 1.429 . S
C1290 H1314 0.950 . S
C1291 C1308 1.574 1_655 S
C1291 C1310 1.368 . S
C1291 H1315 0.949 . S
H1292 C1296 0.949 1_455 S
C1293 C1294 1.349 . S
C1293 C1295 1.327 . S
C1293 H1316 0.950 . S
C1294 C1293 1.349 . S
C1294 C1306 1.349 . S
C1295 C1293 1.327 . S
C1295 C1311 1.429 . S
C1295 H1317 0.950 . S
C1296 H1292 0.949 1_655 S
C1296 C1304 1.574 . S
C1296 C1312 1.368 1_655 S
H1297 C1305 0.950 . S
H1298 C1303 0.950 . S
H1299 C1304 0.949 . S
H1300 C1306 0.950 . S
H1301 C1307 0.950 . S
H1302 C1308 0.949 . S
C1303 H1298 0.950 . S
C1303 C1305 1.327 . S
C1303 C1309 1.429 . S
C1304 C1296 1.574 . S
C1304 H1299 0.949 . S
C1304 C1310 1.368 . S
C1305 C1289 1.349 . S
C1305 H1297 0.950 . S
C1305 C1303 1.327 . S
C1306 C1294 1.349 . S
C1306 H1300 0.950 . S
C1306 C1307 1.327 . S
C1307 H1301 0.950 . S
C1307 C1306 1.327 . S
C1307 C1311 1.429 . S
C1308 C1291 1.574 1_455 S
C1308 H1302 0.949 . S
C1308 C1312 1.368 . S
C1309 C1290 1.429 . S
C1309 C1303 1.429 . S
C1309 C1310 1.523 . S
C1310 C1291 1.368 . S
C1310 C1304 1.368 . S
C1310 C1309 1.523 . S
C1311 C1295 1.429 . S
C1311 C1307 1.429 . S
C1311 C1312 1.523 . S
C1312 C1296 1.368 1_455 S
C1312 C1308 1.368 . S
C1312 C1311 1.523 . S
H1313 C1288 0.950 . S
H1314 C1290 0.950 . S
H1315 C1291 0.949 . S
H1316 C1293 0.950 . S
H1317 C1295 0.950 . S
C1318 C1319 1.349 . S
C1318 C1320 1.327 . S
C1318 H1343 0.950 . S
C1319 C1318 1.349 . S
C1319 C1335 1.349 . S
C1320 C1318 1.327 . S
C1320 C1339 1.429 . S
C1320 H1344 0.950 . S
C1321 C1338 1.574 . S
C1321 C1340 1.368 . S
C1321 H1345 0.949 . S
H1322 C1326 0.949 . S
C1323 C1324 1.349 . S
C1323 C1325 1.327 . S
C1323 H1346 0.950 . S
C1324 C1323 1.349 . S
C1324 C1336 1.349 . S
C1325 C1323 1.327 . S
C1325 C1341 1.429 . S
C1325 H1347 0.950 . S
C1326 H1322 0.949 . S
C1326 C1334 1.574 . S
C1326 C1342 1.368 . S
H1327 C1335 0.950 . S
H1328 C1333 0.950 . S
H1329 C1334 0.949 . S
H1330 C1336 0.950 . S
H1331 C1337 0.950 . S
H1332 C1338 0.949 . S
C1333 H1328 0.950 . S
C1333 C1335 1.327 . S
C1333 C1339 1.429 . S
C1334 C1326 1.574 . S
C1334 H1329 0.949 . S
C1334 C1340 1.368 . S
C1335 C1319 1.349 . S
C1335 H1327 0.950 . S
C1335 C1333 1.327 . S
C1336 C1324 1.349 . S
C1336 H1330 0.950 . S
C1336 C1337 1.327 . S
C1337 H1331 0.950 . S
C1337 C1336 1.327 . S
C1337 C1341 1.429 . S
C1338 C1321 1.574 . S
C1338 H1332 0.949 . S
C1338 C1342 1.368 . S
C1339 C1320 1.429 . S
C1339 C1333 1.429 . S
C1339 C1340 1.523 . S
C1340 C1321 1.368 . S
C1340 C1334 1.368 . S
C1340 C1339 1.523 . S
C1341 C1325 1.429 . S
C1341 C1337 1.429 . S
C1341 C1342 1.523 . S
C1342 C1326 1.368 . S
C1342 C1338 1.368 . S
C1342 C1341 1.523 . S
H1343 C1318 0.950 . S
H1344 C1320 0.950 . S
H1345 C1321 0.949 . S
H1346 C1323 0.950 . S
H1347 C1325 0.950 . S
C1348 C1349 1.349 . S
C1348 C1350 1.327 . S
C1348 H1373 0.950 . S
C1349 C1348 1.349 . S
C1349 C1365 1.349 . S
C1350 C1348 1.327 . S
C1350 C1369 1.429 . S
C1350 H1374 0.950 . S
C1351 C1368 1.574 . S
C1351 C1370 1.368 . S
C1351 H1375 0.949 . S
H1352 C1356 0.949 . S
C1353 C1354 1.349 . S
C1353 C1355 1.327 . S
C1353 H1376 0.950 . S
C1354 C1353 1.349 . S
C1354 C1366 1.349 . S
C1355 C1353 1.327 . S
C1355 C1371 1.429 . S
C1355 H1377 0.950 . S
C1356 H1352 0.949 . S
C1356 C1364 1.574 1_655 S
C1356 C1372 1.368 . S
H1357 C1365 0.950 . S
H1358 C1363 0.950 . S
H1359 C1364 0.949 . S
H1360 C1366 0.950 . S
H1361 C1367 0.950 . S
H1362 C1368 0.949 . S
C1363 H1358 0.950 . S
C1363 C1365 1.327 . S
C1363 C1369 1.429 . S
C1364 C1356 1.574 1_455 S
C1364 H1359 0.949 . S
C1364 C1370 1.368 . S
C1365 C1349 1.349 . S
C1365 H1357 0.950 . S
C1365 C1363 1.327 . S
C1366 C1354 1.349 . S
C1366 H1360 0.950 . S
C1366 C1367 1.327 . S
C1367 H1361 0.950 . S
C1367 C1366 1.327 . S
C1367 C1371 1.429 . S
C1368 C1351 1.574 . S
C1368 H1362 0.949 . S
C1368 C1372 1.368 1_455 S
C1369 C1350 1.429 . S
C1369 C1363 1.429 . S
C1369 C1370 1.523 . S
C1370 C1351 1.368 . S
C1370 C1364 1.368 . S
C1370 C1369 1.523 . S
C1371 C1355 1.429 . S
C1371 C1367 1.429 . S
C1371 C1372 1.523 . S
C1372 C1356 1.368 . S
C1372 C1368 1.368 1_655 S
C1372 C1371 1.523 . S
H1373 C1348 0.950 . S
H1374 C1350 0.950 . S
H1375 C1351 0.949 . S
H1376 C1353 0.950 . S
H1377 C1355 0.950 . S
C1378 C1379 1.349 . S
C1378 C1380 1.327 . S
C1378 H1403 0.950 . S
C1379 C1378 1.349 . S
C1379 C1395 1.349 . S
C1380 C1378 1.327 . S
C1380 C1399 1.429 . S
C1380 H1404 0.950 . S
C1381 C1398 1.574 . S
C1381 C1400 1.368 . S
C1381 H1405 0.949 . S
H1382 C1386 0.949 . S
C1383 C1384 1.349 . S
C1383 C1385 1.327 . S
C1383 H1406 0.950 . S
C1384 C1383 1.349 . S
C1384 C1396 1.349 . S
C1385 C1383 1.327 . S
C1385 C1401 1.429 . S
C1385 H1407 0.950 . S
C1386 H1382 0.949 . S
C1386 C1394 1.574 . S
C1386 C1402 1.368 . S
H1387 C1395 0.950 . S
H1388 C1393 0.950 . S
H1389 C1394 0.949 . S
H1390 C1396 0.950 . S
H1391 C1397 0.950 . S
H1392 C1398 0.949 . S
C1393 H1388 0.950 . S
C1393 C1395 1.327 . S
C1393 C1399 1.429 . S
C1394 C1386 1.574 . S
C1394 H1389 0.949 . S
C1394 C1400 1.368 . S
C1395 C1379 1.349 . S
C1395 H1387 0.950 . S
C1395 C1393 1.327 . S
C1396 C1384 1.349 . S
C1396 H1390 0.950 . S
C1396 C1397 1.327 . S
C1397 H1391 0.950 . S
C1397 C1396 1.327 . S
C1397 C1401 1.429 . S
C1398 C1381 1.574 . S
C1398 H1392 0.949 . S
C1398 C1402 1.368 . S
C1399 C1380 1.429 . S
C1399 C1393 1.429 . S
C1399 C1400 1.523 . S
C1400 C1381 1.368 . S
C1400 C1394 1.368 . S
C1400 C1399 1.523 . S
C1401 C1385 1.429 . S
C1401 C1397 1.429 . S
C1401 C1402 1.523 . S
C1402 C1386 1.368 . S
C1402 C1398 1.368 . S
C1402 C1401 1.523 . S
H1403 C1378 0.950 . S
H1404 C1380 0.950 . S
H1405 C1381 0.949 . S
H1406 C1383 0.950 . S
H1407 C1385 0.950 . S
C1408 C1409 1.349 . S
C1408 C1410 1.327 . S
C1408 H1433 0.950 . S
C1409 C1408 1.349 . S
C1409 C1425 1.349 . S
C1410 C1408 1.327 . S
C1410 C1429 1.429 . S
C1410 H1434 0.950 . S
C1411 C1428 1.574 . S
C1411 C1430 1.368 . S
C1411 H1435 0.949 . S
H1412 C1416 0.949 . S
C1413 C1414 1.349 . S
C1413 C1415 1.327 . S
C1413 H1436 0.950 . S
C1414 C1413 1.349 . S
C1414 C1426 1.349 . S
C1415 C1413 1.327 . S
C1415 C1431 1.429 . S
C1415 H1437 0.950 . S
C1416 H1412 0.949 . S
C1416 C1424 1.574 . S
C1416 C1432 1.368 . S
H1417 C1425 0.950 . S
H1418 C1423 0.950 . S
H1419 C1424 0.949 . S
H1420 C1426 0.950 . S
H1421 C1427 0.950 . S
H1422 C1428 0.949 . S
C1423 H1418 0.950 . S
C1423 C1425 1.327 . S
C1423 C1429 1.429 . S
C1424 C1416 1.574 . S
C1424 H1419 0.949 . S
C1424 C1430 1.368 . S
C1425 C1409 1.349 . S
C1425 H1417 0.950 . S
C1425 C1423 1.327 . S
C1426 C1414 1.349 . S
C1426 H1420 0.950 . S
C1426 C1427 1.327 . S
C1427 H1421 0.950 . S
C1427 C1426 1.327 . S
C1427 C1431 1.429 . S
C1428 C1411 1.574 . S
C1428 H1422 0.949 . S
C1428 C1432 1.368 . S
C1429 C1410 1.429 . S
C1429 C1423 1.429 . S
C1429 C1430 1.523 . S
C1430 C1411 1.368 . S
C1430 C1424 1.368 . S
C1430 C1429 1.523 . S
C1431 C1415 1.429 . S
C1431 C1427 1.429 . S
C1431 C1432 1.523 . S
C1432 C1416 1.368 . S
C1432 C1428 1.368 . S
C1432 C1431 1.523 . S
H1433 C1408 0.950 . S
H1434 C1410 0.950 . S
H1435 C1411 0.949 . S
H1436 C1413 0.950 . S
H1437 C1415 0.950 . S
C1438 C1439 1.349 . S
C1438 C1440 1.327 . S
C1438 H1463 0.950 . S
C1439 C1438 1.349 . S
C1439 C1455 1.349 . S
C1440 C1438 1.327 . S
C1440 C1459 1.429 . S
C1440 H1464 0.950 . S
C1441 C1458 1.574 . S
C1441 C1460 1.368 . S
C1441 H1465 0.949 . S
H1442 C1446 0.949 . S
C1443 C1444 1.349 . S
C1443 C1445 1.327 . S
C1443 H1466 0.950 . S
C1444 C1443 1.349 . S
C1444 C1456 1.349 . S
C1445 C1443 1.327 . S
C1445 C1461 1.429 . S
C1445 H1467 0.950 . S
C1446 H1442 0.949 . S
C1446 C1454 1.574 . S
C1446 C1462 1.368 . S
H1447 C1455 0.950 . S
H1448 C1453 0.950 . S
H1449 C1454 0.949 . S
H1450 C1456 0.950 . S
H1451 C1457 0.950 . S
H1452 C1458 0.949 . S
C1453 H1448 0.950 . S
C1453 C1455 1.327 . S
C1453 C1459 1.429 . S
C1454 C1446 1.574 . S
C1454 H1449 0.949 . S
C1454 C1460 1.368 . S
C1455 C1439 1.349 . S
C1455 H1447 0.950 . S
C1455 C1453 1.327 . S
C1456 C1444 1.349 . S
C1456 H1450 0.950 . S
C1456 C1457 1.327 . S
C1457 H1451 0.950 . S
C1457 C1456 1.327 . S
C1457 C1461 1.429 . S
C1458 C1441 1.574 . S
C1458 H1452 0.949 . S
C1458 C1462 1.368 . S
C1459 C1440 1.429 . S
C1459 C1453 1.429 . S
C1459 C1460 1.523 . S
C1460 C1441 1.368 . S
C1460 C1454 1.368 . S
C1460 C1459 1.523 . S
C1461 C1445 1.429 . S
C1461 C1457 1.429 . S
C1461 C1462 1.523 . S
C1462 C1446 1.368 . S
C1462 C1458 1.368 . S
C1462 C1461 1.523 . S
H1463 C1438 0.950 . S
H1464 C1440 0.950 . S
H1465 C1441 0.949 . S
H1466 C1443 0.950 . S
H1467 C1445 0.950 . S
C1468 C1469 1.349 . S
C1468 C1470 1.327 . S
C1468 H1493 0.950 . S
C1469 C1468 1.349 . S
C1469 C1485 1.349 . S
C1470 C1468 1.327 . S
C1470 C1489 1.429 . S
C1470 H1494 0.950 . S
C1471 C1488 1.574 . S
C1471 C1490 1.368 . S
C1471 H1495 0.949 . S
H1472 C1476 0.949 . S
C1473 C1474 1.349 . S
C1473 C1475 1.327 . S
C1473 H1496 0.950 . S
C1474 C1473 1.349 . S
C1474 C1486 1.349 . S
C1475 C1473 1.327 . S
C1475 C1491 1.429 . S
C1475 H1497 0.950 . S
C1476 H1472 0.949 . S
C1476 C1484 1.574 . S
C1476 C1492 1.368 . S
H1477 C1485 0.950 . S
H1478 C1483 0.950 . S
H1479 C1484 0.949 . S
H1480 C1486 0.950 . S
H1481 C1487 0.950 . S
H1482 C1488 0.949 . S
C1483 H1478 0.950 . S
C1483 C1485 1.327 . S
C1483 C1489 1.429 . S
C1484 C1476 1.574 . S
C1484 H1479 0.949 . S
C1484 C1490 1.368 . S
C1485 C1469 1.349 . S
C1485 H1477 0.950 . S
C1485 C1483 1.327 . S
C1486 C1474 1.349 . S
C1486 H1480 0.950 . S
C1486 C1487 1.327 . S
C1487 H1481 0.950 . S
C1487 C1486 1.327 . S
C1487 C1491 1.429 . S
C1488 C1471 1.574 . S
C1488 H1482 0.949 . S
C1488 C1492 1.368 . S
C1489 C1470 1.429 . S
C1489 C1483 1.429 . S
C1489 C1490 1.523 . S
C1490 C1471 1.368 . S
C1490 C1484 1.368 . S
C1490 C1489 1.523 . S
C1491 C1475 1.429 . S
C1491 C1487 1.429 . S
C1491 C1492 1.523 . S
C1492 C1476 1.368 . S
C1492 C1488 1.368 . S
C1492 C1491 1.523 . S
H1493 C1468 0.950 . S
H1494 C1470 0.950 . S
H1495 C1471 0.949 . S
H1496 C1473 0.950 . S
H1497 C1475 0.950 . S
C1498 C1499 1.349 . S
C1498 C1500 1.327 . S
C1498 H1523 0.950 . S
C1499 C1498 1.349 . S
C1499 C1515 1.349 . S
C1500 C1498 1.327 . S
C1500 C1519 1.429 . S
C1500 H1524 0.950 . S
C1501 C1518 1.574 1_556 S
C1501 C1520 1.368 . S
C1501 H1525 0.949 . S
H1502 C1506 0.949 . S
C1503 C1504 1.349 . S
C1503 C1505 1.327 . S
C1503 H1526 0.950 . S
C1504 C1503 1.349 . S
C1504 C1516 1.349 . S
C1505 C1503 1.327 . S
C1505 C1521 1.429 . S
C1505 H1527 0.950 . S
C1506 H1502 0.949 . S
C1506 C1514 1.574 1_554 S
C1506 C1522 1.368 . S
H1507 C1515 0.950 . S
H1508 C1513 0.950 . S
H1509 C1514 0.949 . S
H1510 C1516 0.950 . S
H1511 C1517 0.950 . S
H1512 C1518 0.949 . S
C1513 H1508 0.950 . S
C1513 C1515 1.327 . S
C1513 C1519 1.429 . S
C1514 C1506 1.574 1_556 S
C1514 H1509 0.949 . S
C1514 C1520 1.368 . S
C1515 C1499 1.349 . S
C1515 H1507 0.950 . S
C1515 C1513 1.327 . S
C1516 C1504 1.349 . S
C1516 H1510 0.950 . S
C1516 C1517 1.327 . S
C1517 H1511 0.950 . S
C1517 C1516 1.327 . S
C1517 C1521 1.429 . S
C1518 C1501 1.574 1_554 S
C1518 H1512 0.949 . S
C1518 C1522 1.368 . S
C1519 C1500 1.429 . S
C1519 C1513 1.429 . S
C1519 C1520 1.523 . S
C1520 C1501 1.368 . S
C1520 C1514 1.368 . S
C1520 C1519 1.523 . S
C1521 C1505 1.429 . S
C1521 C1517 1.429 . S
C1521 C1522 1.523 . S
C1522 C1506 1.368 . S
C1522 C1518 1.368 . S
C1522 C1521 1.523 . S
H1523 C1498 0.950 . S
H1524 C1500 0.950 . S
H1525 C1501 0.949 . S
H1526 C1503 0.950 . S
H1527 C1505 0.950 . S
C1528 C1529 1.349 . S
C1528 C1530 1.327 . S
C1528 H1553 0.950 . S
C1529 C1528 1.349 . S
C1529 C1545 1.349 . S
C1530 C1528 1.327 . S
C1530 C1549 1.429 . S
C1530 H1554 0.950 . S
C1531 C1548 1.574 . S
C1531 C1550 1.368 . S
C1531 H1555 0.949 . S
H1532 C1536 0.949 . S
C1533 C1534 1.349 . S
C1533 C1535 1.327 . S
C1533 H1556 0.950 . S
C1534 C1533 1.349 . S
C1534 C1546 1.349 . S
C1535 C1533 1.327 . S
C1535 C1551 1.429 . S
C1535 H1557 0.950 . S
C1536 H1532 0.949 . S
C1536 C1544 1.574 . S
C1536 C1552 1.368 . S
H1537 C1545 0.950 . S
H1538 C1543 0.950 . S
H1539 C1544 0.949 . S
H1540 C1546 0.950 . S
H1541 C1547 0.950 . S
H1542 C1548 0.949 . S
C1543 H1538 0.950 . S
C1543 C1545 1.327 . S
C1543 C1549 1.429 . S
C1544 C1536 1.574 . S
C1544 H1539 0.949 . S
C1544 C1550 1.368 . S
C1545 C1529 1.349 . S
C1545 H1537 0.950 . S
C1545 C1543 1.327 . S
C1546 C1534 1.349 . S
C1546 H1540 0.950 . S
C1546 C1547 1.327 . S
C1547 H1541 0.950 . S
C1547 C1546 1.327 . S
C1547 C1551 1.429 . S
C1548 C1531 1.574 . S
C1548 H1542 0.949 . S
C1548 C1552 1.368 . S
C1549 C1530 1.429 . S
C1549 C1543 1.429 . S
C1549 C1550 1.523 . S
C1550 C1531 1.368 . S
C1550 C1544 1.368 . S
C1550 C1549 1.523 . S
C1551 C1535 1.429 . S
C1551 C1547 1.429 . S
C1551 C1552 1.523 . S
C1552 C1536 1.368 . S
C1552 C1548 1.368 . S
C1552 C1551 1.523 . S
H1553 C1528 0.950 . S
H1554 C1530 0.950 . S
H1555 C1531 0.949 . S
H1556 C1533 0.950 . S
H1557 C1535 0.950 . S
C1558 C1559 1.349 . S
C1558 C1560 1.327 . S
C1558 H1583 0.950 . S
C1559 C1558 1.349 . S
C1559 C1575 1.349 . S
C1560 C1558 1.327 . S
C1560 C1579 1.429 . S
C1560 H1584 0.950 . S
C1561 C1578 1.574 . S
C1561 C1580 1.368 . S
C1561 H1585 0.949 . S
H1562 C1566 0.949 . S
C1563 C1564 1.349 . S
C1563 C1565 1.327 . S
C1563 H1586 0.950 . S
C1564 C1563 1.349 . S
C1564 C1576 1.349 . S
C1565 C1563 1.327 . S
C1565 C1581 1.429 . S
C1565 H1587 0.950 . S
C1566 H1562 0.949 . S
C1566 C1574 1.574 . S
C1566 C1582 1.368 . S
H1567 C1575 0.950 . S
H1568 C1573 0.950 . S
H1569 C1574 0.949 . S
H1570 C1576 0.950 . S
H1571 C1577 0.950 . S
H1572 C1578 0.949 . S
C1573 H1568 0.950 . S
C1573 C1575 1.327 . S
C1573 C1579 1.429 . S
C1574 C1566 1.574 . S
C1574 H1569 0.949 . S
C1574 C1580 1.368 . S
C1575 C1559 1.349 . S
C1575 H1567 0.950 . S
C1575 C1573 1.327 . S
C1576 C1564 1.349 . S
C1576 H1570 0.950 . S
C1576 C1577 1.327 . S
C1577 H1571 0.950 . S
C1577 C1576 1.327 . S
C1577 C1581 1.429 . S
C1578 C1561 1.574 . S
C1578 H1572 0.949 . S
C1578 C1582 1.368 . S
C1579 C1560 1.429 . S
C1579 C1573 1.429 . S
C1579 C1580 1.523 . S
C1580 C1561 1.368 . S
C1580 C1574 1.368 . S
C1580 C1579 1.523 . S
C1581 C1565 1.429 . S
C1581 C1577 1.429 . S
C1581 C1582 1.523 . S
C1582 C1566 1.368 . S
C1582 C1578 1.368 . S
C1582 C1581 1.523 . S
H1583 C1558 0.950 . S
H1584 C1560 0.950 . S
H1585 C1561 0.949 . S
H1586 C1563 0.950 . S
H1587 C1565 0.950 . S
C1588 C1589 1.349 . S
C1588 C1590 1.327 . S
C1588 H1613 0.950 . S
C1589 C1588 1.349 . S
C1589 C1605 1.349 . S
C1590 C1588 1.327 . S
C1590 C1609 1.429 . S
C1590 H1614 0.950 . S
C1591 C1608 1.574 . S
C1591 C1610 1.368 . S
C1591 H1615 0.949 . S
H1592 C1596 0.949 . S
C1593 C1594 1.349 . S
C1593 C1595 1.327 . S
C1593 H1616 0.950 . S
C1594 C1593 1.349 . S
C1594 C1606 1.349 . S
C1595 C1593 1.327 . S
C1595 C1611 1.429 . S
C1595 H1617 0.950 . S
C1596 H1592 0.949 . S
C1596 C1604 1.574 . S
C1596 C1612 1.368 . S
H1597 C1605 0.950 . S
H1598 C1603 0.950 . S
H1599 C1604 0.949 . S
H1600 C1606 0.950 . S
H1601 C1607 0.950 . S
H1602 C1608 0.949 . S
C1603 H1598 0.950 . S
C1603 C1605 1.327 . S
C1603 C1609 1.429 . S
C1604 C1596 1.574 . S
C1604 H1599 0.949 . S
C1604 C1610 1.368 . S
C1605 C1589 1.349 . S
C1605 H1597 0.950 . S
C1605 C1603 1.327 . S
C1606 C1594 1.349 . S
C1606 H1600 0.950 . S
C1606 C1607 1.327 . S
C1607 H1601 0.950 . S
C1607 C1606 1.327 . S
C1607 C1611 1.429 . S
C1608 C1591 1.574 . S
C1608 H1602 0.949 . S
C1608 C1612 1.368 . S
C1609 C1590 1.429 . S
C1609 C1603 1.429 . S
C1609 C1610 1.523 . S
C1610 C1591 1.368 . S
C1610 C1604 1.368 . S
C1610 C1609 1.523 . S
C1611 C1595 1.429 . S
C1611 C1607 1.429 . S
C1611 C1612 1.523 . S
C1612 C1596 1.368 . S
C1612 C1608 1.368 . S
C1612 C1611 1.523 . S
H1613 C1588 0.950 . S
H1614 C1590 0.950 . S
H1615 C1591 0.949 . S
H1616 C1593 0.950 . S
H1617 C1595 0.950 . S
C1618 C1619 1.349 . S
C1618 C1620 1.327 . S
C1618 H1643 0.950 . S
C1619 C1618 1.349 . S
C1619 C1635 1.349 . S
C1620 C1618 1.327 . S
C1620 C1639 1.429 . S
C1620 H1644 0.950 . S
C1621 C1638 1.574 1_554 S
C1621 C1640 1.368 . S
C1621 H1645 0.949 . S
H1622 C1626 0.949 . S
C1623 C1624 1.349 . S
C1623 C1625 1.327 . S
C1623 H1646 0.950 . S
C1624 C1623 1.349 . S
C1624 C1636 1.349 . S
C1625 C1623 1.327 . S
C1625 C1641 1.429 . S
C1625 H1647 0.950 . S
C1626 H1622 0.949 . S
C1626 C1634 1.574 . S
C1626 C1642 1.354 1_554 S
H1627 C1635 0.950 . S
H1628 C1633 0.950 . S
H1629 C1634 0.949 . S
H1630 C1636 0.950 . S
H1631 C1637 0.950 . S
H1632 C1638 0.949 . S
C1633 H1628 0.950 . S
C1633 C1635 1.327 . S
C1633 C1639 1.429 . S
C1634 C1626 1.574 . S
C1634 H1629 0.949 . S
C1634 C1640 1.368 . S
C1635 C1619 1.349 . S
C1635 H1627 0.950 . S
C1635 C1633 1.327 . S
C1636 C1624 1.349 . S
C1636 H1630 0.950 . S
C1636 C1637 1.327 . S
C1637 H1631 0.950 . S
C1637 C1636 1.327 . S
C1637 C1641 1.429 . S
C1638 C1621 1.574 1_556 S
C1638 H1632 0.949 . S
C1638 C1642 1.369 . S
C1639 C1620 1.429 . S
C1639 C1633 1.429 . S
C1639 C1640 1.523 . S
C1640 C1621 1.368 . S
C1640 C1634 1.368 . S
C1640 C1639 1.523 . S
C1641 C1625 1.429 . S
C1641 C1637 1.429 . S
C1641 C1642 1.541 . S
C1642 C1626 1.354 1_556 S
C1642 C1638 1.369 . S
C1642 C1641 1.541 . S
H1643 C1618 0.950 . S
H1644 C1620 0.950 . S
H1645 C1621 0.949 . S
H1646 C1623 0.950 . S
H1647 C1625 0.950 . S
C1648 C1649 1.349 . S
C1648 C1650 1.327 . S
C1648 H1673 0.950 . S
C1649 C1648 1.349 . S
C1649 C1665 1.349 . S
C1650 C1648 1.327 . S
C1650 C1669 1.429 . S
C1650 H1674 0.950 . S
C1651 C1668 1.574 . S
C1651 C1670 1.368 . S
C1651 H1675 0.949 . S
H1652 C1656 0.949 . S
C1653 C1654 1.349 . S
C1653 C1655 1.327 . S
C1653 H1676 0.950 . S
C1654 C1653 1.349 . S
C1654 C1666 1.349 . S
C1655 C1653 1.327 . S
C1655 C1671 1.429 . S
C1655 H1677 0.950 . S
C1656 H1652 0.949 . S
C1656 C1664 1.574 . S
C1656 C1672 1.368 . S
H1657 C1665 0.950 . S
H1658 C1663 0.950 . S
H1659 C1664 0.949 . S
H1660 C1666 0.950 . S
H1661 C1667 0.950 . S
H1662 C1668 0.949 . S
C1663 H1658 0.950 . S
C1663 C1665 1.327 . S
C1663 C1669 1.429 . S
C1664 C1656 1.574 . S
C1664 H1659 0.949 . S
C1664 C1670 1.368 . S
C1665 C1649 1.349 . S
C1665 H1657 0.950 . S
C1665 C1663 1.327 . S
C1666 C1654 1.349 . S
C1666 H1660 0.950 . S
C1666 C1667 1.327 . S
C1667 H1661 0.950 . S
C1667 C1666 1.327 . S
C1667 C1671 1.429 . S
C1668 C1651 1.574 . S
C1668 H1662 0.949 . S
C1668 C1672 1.368 . S
C1669 C1650 1.429 . S
C1669 C1663 1.429 . S
C1669 C1670 1.523 . S
C1670 C1651 1.368 . S
C1670 C1664 1.368 . S
C1670 C1669 1.523 . S
C1671 C1655 1.429 . S
C1671 C1667 1.429 . S
C1671 C1672 1.523 . S
C1672 C1656 1.368 . S
C1672 C1668 1.368 . S
C1672 C1671 1.523 . S
H1673 C1648 0.950 . S
H1674 C1650 0.950 . S
H1675 C1651 0.949 . S
H1676 C1653 0.950 . S
H1677 C1655 0.950 . S
C1678 C1679 1.349 . S
C1678 C1680 1.327 . S
C1678 H1703 0.950 . S
C1679 C1678 1.349 . S
C1679 C1695 1.349 . S
C1680 C1678 1.327 . S
C1680 C1699 1.429 . S
C1680 H1704 0.950 . S
C1681 C1698 1.574 1_565 S
C1681 C1700 1.368 . S
C1681 H1705 0.949 . S
H1682 C1686 0.949 . S
C1683 C1684 1.349 . S
C1683 C1685 1.327 . S
C1683 H1706 0.950 . S
C1684 C1683 1.349 . S
C1684 C1696 1.349 . S
C1685 C1683 1.327 . S
C1685 C1701 1.429 . S
C1685 H1707 0.950 . S
C1686 H1682 0.949 . S
C1686 C1694 1.574 . S
C1686 C1702 1.368 1_565 S
H1687 C1695 0.950 . S
H1688 C1693 0.950 . S
H1689 C1694 0.949 . S
H1690 C1696 0.950 . S
H1691 C1697 0.950 . S
H1692 C1698 0.949 . S
C1693 H1688 0.950 . S
C1693 C1695 1.327 . S
C1693 C1699 1.429 . S
C1694 C1686 1.574 . S
C1694 H1689 0.949 . S
C1694 C1700 1.368 . S
C1695 C1679 1.349 . S
C1695 H1687 0.950 . S
C1695 C1693 1.327 . S
C1696 C1684 1.349 . S
C1696 H1690 0.950 . S
C1696 C1697 1.327 . S
C1697 H1691 0.950 . S
C1697 C1696 1.327 . S
C1697 C1701 1.429 . S
C1698 C1681 1.574 1_545 S
C1698 H1692 0.949 . S
C1698 C1702 1.368 . S
C1699 C1680 1.429 . S
C1699 C1693 1.429 . S
C1699 C1700 1.523 . S
C1700 C1681 1.368 . S
C1700 C1694 1.368 . S
C1700 C1699 1.523 . S
C1701 C1685 1.429 . S
C1701 C1697 1.429 . S
C1701 C1702 1.523 . S
C1702 C1686 1.368 1_545 S
C1702 C1698 1.368 . S
C1702 C1701 1.523 . S
H1703 C1678 0.950 . S
H1704 C1680 0.950 . S
H1705 C1681 0.949 . S
H1706 C1683 0.950 . S
H1707 C1685 0.950 . S
C1708 C1709 1.349 . S
C1708 C1710 1.327 . S
C1708 H1733 0.950 . S
C1709 C1708 1.349 . S
C1709 C1725 1.349 . S
C1710 C1708 1.327 . S
C1710 C1729 1.429 . S
C1710 H1734 0.950 . S
C1711 C1728 1.574 . S
C1711 C1730 1.368 . S
C1711 H1735 0.949 . S
H1712 C1716 0.949 . S
C1713 C1714 1.349 . S
C1713 C1715 1.327 . S
C1713 H1736 0.950 . S
C1714 C1713 1.349 . S
C1714 C1726 1.349 . S
C1715 C1713 1.327 . S
C1715 C1731 1.429 . S
C1715 H1737 0.950 . S
C1716 H1712 0.949 . S
C1716 C1724 1.574 . S
C1716 C1732 1.368 . S
H1717 C1725 0.950 . S
H1718 C1723 0.950 . S
H1719 C1724 0.949 . S
H1720 C1726 0.950 . S
H1721 C1727 0.950 . S
H1722 C1728 0.949 . S
C1723 H1718 0.950 . S
C1723 C1725 1.327 . S
C1723 C1729 1.429 . S
C1724 C1716 1.574 . S
C1724 H1719 0.949 . S
C1724 C1730 1.368 . S
C1725 C1709 1.349 . S
C1725 H1717 0.950 . S
C1725 C1723 1.327 . S
C1726 C1714 1.349 . S
C1726 H1720 0.950 . S
C1726 C1727 1.327 . S
C1727 H1721 0.950 . S
C1727 C1726 1.327 . S
C1727 C1731 1.429 . S
C1728 C1711 1.574 . S
C1728 H1722 0.949 . S
C1728 C1732 1.368 . S
C1729 C1710 1.429 . S
C1729 C1723 1.429 . S
C1729 C1730 1.523 . S
C1730 C1711 1.368 . S
C1730 C1724 1.368 . S
C1730 C1729 1.523 . S
C1731 C1715 1.429 . S
C1731 C1727 1.429 . S
C1731 C1732 1.523 . S
C1732 C1716 1.368 . S
C1732 C1728 1.368 . S
C1732 C1731 1.523 . S
H1733 C1708 0.950 . S
H1734 C1710 0.950 . S
H1735 C1711 0.949 . S
H1736 C1713 0.950 . S
H1737 C1715 0.950 . S
C1738 C1739 1.349 . S
C1738 C1740 1.327 . S
C1738 H1763 0.950 . S
C1739 C1738 1.349 . S
C1739 C1755 1.349 . S
C1740 C1738 1.327 . S
C1740 C1759 1.429 . S
C1740 H1764 0.950 . S
C1741 C1758 1.574 . S
C1741 C1760 1.368 . S
C1741 H1765 0.949 . S
H1742 C1746 0.949 . S
C1743 C1744 1.349 . S
C1743 C1745 1.327 . S
C1743 H1766 0.950 . S
C1744 C1743 1.349 . S
C1744 C1756 1.349 . S
C1745 C1743 1.327 . S
C1745 C1761 1.429 . S
C1745 H1767 0.950 . S
C1746 H1742 0.949 . S
C1746 C1754 1.574 1_565 S
C1746 C1762 1.368 . S
H1747 C1755 0.950 . S
H1748 C1753 0.950 . S
H1749 C1754 0.949 . S
H1750 C1756 0.950 . S
H1751 C1757 0.950 . S
H1752 C1758 0.949 . S
C1753 H1748 0.950 . S
C1753 C1755 1.327 . S
C1753 C1759 1.429 . S
C1754 C1746 1.574 1_545 S
C1754 H1749 0.949 . S
C1754 C1760 1.368 . S
C1755 C1739 1.349 . S
C1755 H1747 0.950 . S
C1755 C1753 1.327 . S
C1756 C1744 1.349 . S
C1756 H1750 0.950 . S
C1756 C1757 1.327 . S
C1757 H1751 0.950 . S
C1757 C1756 1.327 . S
C1757 C1761 1.429 . S
C1758 C1741 1.574 . S
C1758 H1752 0.949 . S
C1758 C1762 1.368 1_545 S
C1759 C1740 1.429 . S
C1759 C1753 1.429 . S
C1759 C1760 1.523 . S
C1760 C1741 1.368 . S
C1760 C1754 1.368 . S
C1760 C1759 1.523 . S
C1761 C1745 1.429 . S
C1761 C1757 1.429 . S
C1761 C1762 1.523 . S
C1762 C1746 1.368 . S
C1762 C1758 1.368 1_565 S
C1762 C1761 1.523 . S
H1763 C1738 0.950 . S
H1764 C1740 0.950 . S
H1765 C1741 0.949 . S
H1766 C1743 0.950 . S
H1767 C1745 0.950 . S
C1768 C1769 1.349 . S
C1768 C1770 1.327 . S
C1768 H1793 0.950 . S
C1769 C1768 1.349 . S
C1769 C1785 1.349 . S
C1770 C1768 1.327 . S
C1770 C1789 1.429 . S
C1770 H1794 0.950 . S
C1771 C1788 1.574 . S
C1771 C1790 1.368 . S
C1771 H1795 0.949 . S
H1772 C1776 0.949 . S
C1773 C1774 1.349 . S
C1773 C1775 1.327 . S
C1773 H1796 0.950 . S
C1774 C1773 1.349 . S
C1774 C1786 1.349 . S
C1775 C1773 1.327 . S
C1775 C1791 1.429 . S
C1775 H1797 0.950 . S
C1776 H1772 0.949 . S
C1776 C1784 1.574 . S
C1776 C1792 1.368 . S
H1777 C1785 0.950 . S
H1778 C1783 0.950 . S
H1779 C1784 0.949 . S
H1780 C1786 0.950 . S
H1781 C1787 0.950 . S
H1782 C1788 0.949 . S
C1783 H1778 0.950 . S
C1783 C1785 1.327 . S
C1783 C1789 1.429 . S
C1784 C1776 1.574 . S
C1784 H1779 0.949 . S
C1784 C1790 1.368 . S
C1785 C1769 1.349 . S
C1785 H1777 0.950 . S
C1785 C1783 1.327 . S
C1786 C1774 1.349 . S
C1786 H1780 0.950 . S
C1786 C1787 1.327 . S
C1787 H1781 0.950 . S
C1787 C1786 1.327 . S
C1787 C1791 1.429 . S
C1788 C1771 1.574 . S
C1788 H1782 0.949 . S
C1788 C1792 1.368 . S
C1789 C1770 1.429 . S
C1789 C1783 1.429 . S
C1789 C1790 1.523 . S
C1790 C1771 1.368 . S
C1790 C1784 1.368 . S
C1790 C1789 1.523 . S
C1791 C1775 1.429 . S
C1791 C1787 1.429 . S
C1791 C1792 1.523 . S
C1792 C1776 1.368 . S
C1792 C1788 1.368 . S
C1792 C1791 1.523 . S
H1793 C1768 0.950 . S
H1794 C1770 0.950 . S
H1795 C1771 0.949 . S
H1796 C1773 0.950 . S
H1797 C1775 0.950 . S
C1798 C1799 1.349 . S
C1798 C1800 1.327 . S
C1798 H1823 0.950 . S
C1799 C1798 1.349 . S
C1799 C1815 1.349 . S
C1800 C1798 1.327 . S
C1800 C1819 1.429 . S
C1800 H1824 0.950 . S
C1801 C1818 1.574 1_565 S
C1801 C1820 1.368 . S
C1801 H1825 0.949 . S
H1802 C1806 0.949 . S
C1803 C1804 1.349 . S
C1803 C1805 1.327 . S
C1803 H1826 0.950 . S
C1804 C1803 1.349 . S
C1804 C1816 1.349 . S
C1805 C1803 1.327 . S
C1805 C1821 1.429 . S
C1805 H1827 0.950 . S
C1806 H1802 0.949 . S
C1806 C1814 1.574 . S
C1806 C1822 1.368 1_565 S
H1807 C1815 0.950 . S
H1808 C1813 0.950 . S
H1809 C1814 0.949 . S
H1810 C1816 0.950 . S
H1811 C1817 0.950 . S
H1812 C1818 0.949 . S
C1813 H1808 0.950 . S
C1813 C1815 1.327 . S
C1813 C1819 1.429 . S
C1814 C1806 1.574 . S
C1814 H1809 0.949 . S
C1814 C1820 1.368 . S
C1815 C1799 1.349 . S
C1815 H1807 0.950 . S
C1815 C1813 1.327 . S
C1816 C1804 1.349 . S
C1816 H1810 0.950 . S
C1816 C1817 1.327 . S
C1817 H1811 0.950 . S
C1817 C1816 1.327 . S
C1817 C1821 1.429 . S
C1818 C1801 1.574 1_545 S
C1818 H1812 0.949 . S
C1818 C1822 1.368 . S
C1819 C1800 1.429 . S
C1819 C1813 1.429 . S
C1819 C1820 1.523 . S
C1820 C1801 1.368 . S
C1820 C1814 1.368 . S
C1820 C1819 1.523 . S
C1821 C1805 1.429 . S
C1821 C1817 1.429 . S
C1821 C1822 1.523 . S
C1822 C1806 1.368 1_545 S
C1822 C1818 1.368 . S
C1822 C1821 1.523 . S
H1823 C1798 0.950 . S
H1824 C1800 0.950 . S
H1825 C1801 0.949 . S
H1826 C1803 0.950 . S
H1827 C1805 0.950 . S
C1828 C1829 1.349 . S
C1828 C1830 1.327 . S
C1828 H1853 0.950 . S
C1829 C1828 1.349 . S
C1829 C1845 1.349 . S
C1830 C1828 1.327 . S
C1830 C1849 1.429 . S
C1830 H1854 0.950 . S
C1831 C1848 1.574 . S
C1831 C1850 1.368 . S
C1831 H1855 0.949 . S
H1832 C1836 0.949 . S
C1833 C1834 1.349 . S
C1833 C1835 1.327 . S
C1833 H1856 0.950 . S
C1834 C1833 1.349 . S
C1834 C1846 1.349 . S
C1835 C1833 1.327 . S
C1835 C1851 1.429 . S
C1835 H1857 0.950 . S
C1836 H1832 0.949 . S
C1836 C1844 1.574 . S
C1836 C1852 1.368 . S
H1837 C1845 0.950 . S
H1838 C1843 0.950 . S
H1839 C1844 0.949 . S
H1840 C1846 0.950 . S
H1841 C1847 0.950 . S
H1842 C1848 0.949 . S
C1843 H1838 0.950 . S
C1843 C1845 1.327 . S
C1843 C1849 1.429 . S
C1844 C1836 1.574 . S
C1844 H1839 0.949 . S
C1844 C1850 1.368 . S
C1845 C1829 1.349 . S
C1845 H1837 0.950 . S
C1845 C1843 1.327 . S
C1846 C1834 1.349 . S
C1846 H1840 0.950 . S
C1846 C1847 1.327 . S
C1847 H1841 0.950 . S
C1847 C1846 1.327 . S
C1847 C1851 1.429 . S
C1848 C1831 1.574 . S
C1848 H1842 0.949 . S
C1848 C1852 1.368 . S
C1849 C1830 1.429 . S
C1849 C1843 1.429 . S
C1849 C1850 1.523 . S
C1850 C1831 1.368 . S
C1850 C1844 1.368 . S
C1850 C1849 1.523 . S
C1851 C1835 1.429 . S
C1851 C1847 1.429 . S
C1851 C1852 1.523 . S
C1852 C1836 1.368 . S
C1852 C1848 1.368 . S
C1852 C1851 1.523 . S
H1853 C1828 0.950 . S
H1854 C1830 0.950 . S
H1855 C1831 0.949 . S
H1856 C1833 0.950 . S
H1857 C1835 0.950 . S
C1858 C1859 1.349 . S
C1858 C1860 1.327 . S
C1858 H1883 0.950 . S
C1859 C1858 1.349 . S
C1859 C1875 1.349 . S
C1860 C1858 1.327 . S
C1860 C1879 1.429 . S
C1860 H1884 0.950 . S
C1861 C1878 1.574 . S
C1861 C1880 1.368 . S
C1861 H1885 0.949 . S
H1862 C1866 0.949 . S
C1863 C1864 1.349 . S
C1863 C1865 1.327 . S
C1863 H1886 0.950 . S
C1864 C1863 1.349 . S
C1864 C1876 1.349 . S
C1865 C1863 1.327 . S
C1865 C1881 1.429 . S
C1865 H1887 0.950 . S
C1866 H1862 0.949 . S
C1866 C1874 1.574 1_565 S
C1866 C1882 1.368 . S
H1867 C1875 0.950 . S
H1868 C1873 0.950 . S
H1869 C1874 0.949 . S
H1870 C1876 0.950 . S
H1871 C1877 0.950 . S
H1872 C1878 0.949 . S
C1873 H1868 0.950 . S
C1873 C1875 1.327 . S
C1873 C1879 1.429 . S
C1874 C1866 1.574 1_545 S
C1874 H1869 0.949 . S
C1874 C1880 1.368 . S
C1875 C1859 1.349 . S
C1875 H1867 0.950 . S
C1875 C1873 1.327 . S
C1876 C1864 1.349 . S
C1876 H1870 0.950 . S
C1876 C1877 1.327 . S
C1877 H1871 0.950 . S
C1877 C1876 1.327 . S
C1877 C1881 1.429 . S
C1878 C1861 1.574 . S
C1878 H1872 0.949 . S
C1878 C1882 1.368 1_545 S
C1879 C1860 1.429 . S
C1879 C1873 1.429 . S
C1879 C1880 1.523 . S
C1880 C1861 1.368 . S
C1880 C1874 1.368 . S
C1880 C1879 1.523 . S
C1881 C1865 1.429 . S
C1881 C1877 1.429 . S
C1881 C1882 1.523 . S
C1882 C1866 1.368 . S
C1882 C1878 1.368 1_565 S
C1882 C1881 1.523 . S
H1883 C1858 0.950 . S
H1884 C1860 0.950 . S
H1885 C1861 0.949 . S
H1886 C1863 0.950 . S
H1887 C1865 0.950 . S
C1888 C1889 1.349 . S
C1888 C1890 1.327 . S
C1888 H1913 0.950 . S
C1889 C1888 1.349 . S
C1889 C1905 1.349 . S
C1890 C1888 1.327 . S
C1890 C1909 1.429 . S
C1890 H1914 0.950 . S
C1891 C1908 1.574 . S
C1891 C1910 1.368 . S
C1891 H1915 0.949 . S
H1892 C1896 0.949 . S
C1893 C1894 1.349 . S
C1893 C1895 1.327 . S
C1893 H1916 0.950 . S
C1894 C1893 1.349 . S
C1894 C1906 1.349 . S
C1895 C1893 1.327 . S
C1895 C1911 1.429 . S
C1895 H1917 0.950 . S
C1896 H1892 0.949 . S
C1896 C1904 1.574 . S
C1896 C1912 1.368 . S
H1897 C1905 0.950 . S
H1898 C1903 0.950 . S
H1899 C1904 0.949 . S
H1900 C1906 0.950 . S
H1901 C1907 0.950 . S
H1902 C1908 0.949 . S
C1903 H1898 0.950 . S
C1903 C1905 1.327 . S
C1903 C1909 1.429 . S
C1904 C1896 1.574 . S
C1904 H1899 0.949 . S
C1904 C1910 1.368 . S
C1905 C1889 1.349 . S
C1905 H1897 0.950 . S
C1905 C1903 1.327 . S
C1906 C1894 1.349 . S
C1906 H1900 0.950 . S
C1906 C1907 1.327 . S
C1907 H1901 0.950 . S
C1907 C1906 1.327 . S
C1907 C1911 1.429 . S
C1908 C1891 1.574 . S
C1908 H1902 0.949 . S
C1908 C1912 1.368 . S
C1909 C1890 1.429 . S
C1909 C1903 1.429 . S
C1909 C1910 1.523 . S
C1910 C1891 1.368 . S
C1910 C1904 1.368 . S
C1910 C1909 1.523 . S
C1911 C1895 1.429 . S
C1911 C1907 1.429 . S
C1911 C1912 1.523 . S
C1912 C1896 1.368 . S
C1912 C1908 1.368 . S
C1912 C1911 1.523 . S
H1913 C1888 0.950 . S
H1914 C1890 0.950 . S
H1915 C1891 0.949 . S
H1916 C1893 0.950 . S
H1917 C1895 0.950 . S
C1918 C1919 1.349 . S
C1918 C1920 1.327 . S
C1918 H1943 0.950 . S
C1919 C1918 1.349 . S
C1919 C1935 1.349 . S
C1920 C1918 1.327 . S
C1920 C1939 1.429 . S
C1920 H1944 0.950 . S
C1921 C1938 1.574 . S
C1921 C1940 1.368 . S
C1921 H1945 0.949 . S
H1922 C1926 0.949 . S
C1923 C1924 1.349 . S
C1923 C1925 1.327 . S
C1923 H1946 0.950 . S
C1924 C1923 1.349 . S
C1924 C1936 1.349 . S
C1925 C1923 1.327 . S
C1925 C1941 1.429 . S
C1925 H1947 0.950 . S
C1926 H1922 0.949 . S
C1926 C1934 1.574 . S
C1926 C1942 1.368 . S
H1927 C1935 0.950 . S
H1928 C1933 0.950 . S
H1929 C1934 0.949 . S
H1930 C1936 0.950 . S
H1931 C1937 0.950 . S
H1932 C1938 0.949 . S
C1933 H1928 0.950 . S
C1933 C1935 1.327 . S
C1933 C1939 1.429 . S
C1934 C1926 1.574 . S
C1934 H1929 0.949 . S
C1934 C1940 1.368 . S
C1935 C1919 1.349 . S
C1935 H1927 0.950 . S
C1935 C1933 1.327 . S
C1936 C1924 1.349 . S
C1936 H1930 0.950 . S
C1936 C1937 1.327 . S
C1937 H1931 0.950 . S
C1937 C1936 1.327 . S
C1937 C1941 1.429 . S
C1938 C1921 1.574 . S
C1938 H1932 0.949 . S
C1938 C1942 1.368 . S
C1939 C1920 1.429 . S
C1939 C1933 1.429 . S
C1939 C1940 1.523 . S
C1940 C1921 1.368 . S
C1940 C1934 1.368 . S
C1940 C1939 1.523 . S
C1941 C1925 1.429 . S
C1941 C1937 1.429 . S
C1941 C1942 1.523 . S
C1942 C1926 1.368 . S
C1942 C1938 1.368 . S
C1942 C1941 1.523 . S
H1943 C1918 0.950 . S
H1944 C1920 0.950 . S
H1945 C1921 0.949 . S
H1946 C1923 0.950 . S
H1947 C1925 0.950 . S
C1948 C1949 1.349 . S
C1948 C1950 1.327 . S
C1948 H1973 0.950 . S
C1949 C1948 1.349 . S
C1949 C1965 1.349 . S
C1950 C1948 1.327 . S
C1950 C1969 1.429 . S
C1950 H1974 0.950 . S
C1951 C1968 1.574 . S
C1951 C1970 1.368 . S
C1951 H1975 0.949 . S
H1952 C1956 0.949 . S
C1953 C1954 1.349 . S
C1953 C1955 1.327 . S
C1953 H1976 0.950 . S
C1954 C1953 1.349 . S
C1954 C1966 1.349 . S
C1955 C1953 1.327 . S
C1955 C1971 1.429 . S
C1955 H1977 0.950 . S
C1956 H1952 0.949 . S
C1956 C1964 1.574 1_455 S
C1956 C1972 1.368 . S
H1957 C1965 0.950 . S
H1958 C1963 0.950 . S
H1959 C1964 0.949 . S
H1960 C1966 0.950 . S
H1961 C1967 0.950 . S
H1962 C1968 0.949 . S
C1963 H1958 0.950 . S
C1963 C1965 1.327 . S
C1963 C1969 1.429 . S
C1964 C1956 1.574 1_655 S
C1964 H1959 0.949 . S
C1964 C1970 1.368 . S
C1965 C1949 1.349 . S
C1965 H1957 0.950 . S
C1965 C1963 1.327 . S
C1966 C1954 1.349 . S
C1966 H1960 0.950 . S
C1966 C1967 1.327 . S
C1967 H1961 0.950 . S
C1967 C1966 1.327 . S
C1967 C1971 1.429 . S
C1968 C1951 1.574 . S
C1968 H1962 0.949 . S
C1968 C1972 1.368 1_655 S
C1969 C1950 1.429 . S
C1969 C1963 1.429 . S
C1969 C1970 1.523 . S
C1970 C1951 1.368 . S
C1970 C1964 1.368 . S
C1970 C1969 1.523 . S
C1971 C1955 1.429 . S
C1971 C1967 1.429 . S
C1971 C1972 1.523 . S
C1972 C1956 1.368 . S
C1972 C1968 1.368 1_455 S
C1972 C1971 1.523 . S
H1973 C1948 0.950 . S
H1974 C1950 0.950 . S
H1975 C1951 0.949 . S
H1976 C1953 0.950 . S
H1977 C1955 0.950 . S
C1978 C1979 1.349 . S
C1978 C1980 1.327 . S
C1978 H2003 0.950 . S
C1979 C1978 1.349 . S
C1979 C1995 1.349 . S
C1980 C1978 1.327 . S
C1980 C1999 1.429 . S
C1980 H2004 0.950 . S
C1981 C1998 1.574 . S
C1981 C2000 1.368 . S
C1981 H2005 0.949 . S
H1982 C1986 0.949 . S
C1983 C1984 1.349 . S
C1983 C1985 1.327 . S
C1983 H2006 0.950 . S
C1984 C1983 1.349 . S
C1984 C1996 1.349 . S
C1985 C1983 1.327 . S
C1985 C2001 1.429 . S
C1985 H2007 0.950 . S
C1986 H1982 0.949 . S
C1986 C1994 1.574 . S
C1986 C2002 1.368 . S
H1987 C1995 0.950 . S
H1988 C1993 0.950 . S
H1989 C1994 0.949 . S
H1990 C1996 0.950 . S
H1991 C1997 0.950 . S
H1992 C1998 0.949 . S
C1993 H1988 0.950 . S
C1993 C1995 1.327 . S
C1993 C1999 1.429 . S
C1994 C1986 1.574 . S
C1994 H1989 0.949 . S
C1994 C2000 1.368 . S
C1995 C1979 1.349 . S
C1995 H1987 0.950 . S
C1995 C1993 1.327 . S
C1996 C1984 1.349 . S
C1996 H1990 0.950 . S
C1996 C1997 1.327 . S
C1997 H1991 0.950 . S
C1997 C1996 1.327 . S
C1997 C2001 1.429 . S
C1998 C1981 1.574 . S
C1998 H1992 0.949 . S
C1998 C2002 1.368 . S
C1999 C1980 1.429 . S
C1999 C1993 1.429 . S
C1999 C2000 1.523 . S
C2000 C1981 1.368 . S
C2000 C1994 1.368 . S
C2000 C1999 1.523 . S
C2001 C1985 1.429 . S
C2001 C1997 1.429 . S
C2001 C2002 1.523 . S
C2002 C1986 1.368 . S
C2002 C1998 1.368 . S
C2002 C2001 1.523 . S
H2003 C1978 0.950 . S
H2004 C1980 0.950 . S
H2005 C1981 0.949 . S
H2006 C1983 0.950 . S
H2007 C1985 0.950 . S
C2008 C2009 1.349 . S
C2008 C2010 1.327 . S
C2008 H2033 0.950 . S
C2009 C2008 1.349 . S
C2009 C2025 1.349 . S
C2010 C2008 1.327 . S
C2010 C2029 1.429 . S
C2010 H2034 0.950 . S
C2011 C2028 1.574 1_455 S
C2011 C2030 1.368 . S
C2011 H2035 0.949 . S
H2012 C2016 0.949 . S
C2013 C2014 1.349 . S
C2013 C2015 1.327 . S
C2013 H2036 0.950 . S
C2014 C2013 1.349 . S
C2014 C2026 1.349 . S
C2015 C2013 1.327 . S
C2015 C2031 1.429 . S
C2015 H2037 0.950 . S
C2016 H2012 0.949 . S
C2016 C2024 1.574 . S
C2016 C2032 1.368 1_455 S
H2017 C2025 0.950 1_545 S
H2018 C2023 0.950 . S
H2019 C2024 0.949 . S
H2020 C2026 0.950 . S
H2021 C2027 0.950 . S
H2022 C2028 0.949 . S
C2023 H2018 0.950 . S
C2023 C2025 1.327 . S
C2023 C2029 1.429 . S
C2024 C2016 1.574 . S
C2024 H2019 0.949 . S
C2024 C2030 1.368 . S
C2025 C2009 1.349 . S
C2025 H2017 0.950 1_565 S
C2025 C2023 1.327 . S
C2026 C2014 1.349 . S
C2026 H2020 0.950 . S
C2026 C2027 1.327 . S
C2027 H2021 0.950 . S
C2027 C2026 1.327 . S
C2027 C2031 1.429 . S
C2028 C2011 1.574 1_655 S
C2028 H2022 0.949 . S
C2028 C2032 1.368 . S
C2029 C2010 1.429 . S
C2029 C2023 1.429 . S
C2029 C2030 1.523 . S
C2030 C2011 1.368 . S
C2030 C2024 1.368 . S
C2030 C2029 1.523 . S
C2031 C2015 1.429 . S
C2031 C2027 1.429 . S
C2031 C2032 1.523 . S
C2032 C2016 1.368 1_655 S
C2032 C2028 1.368 . S
C2032 C2031 1.523 . S
H2033 C2008 0.950 . S
H2034 C2010 0.950 . S
H2035 C2011 0.949 . S
H2036 C2013 0.950 . S
H2037 C2015 0.950 . S
C2038 C2039 1.349 . S
C2038 C2040 1.327 . S
C2038 H2063 0.950 . S
C2039 C2038 1.349 . S
C2039 C2055 1.349 . S
C2040 C2038 1.327 . S
C2040 C2059 1.429 . S
C2040 H2064 0.950 . S
C2041 C2058 1.574 . S
C2041 C2060 1.368 . S
C2041 H2065 0.949 . S
H2042 C2046 0.949 . S
C2043 C2044 1.349 . S
C2043 C2045 1.327 . S
C2043 H2066 0.950 . S
C2044 C2043 1.349 . S
C2044 C2056 1.349 . S
C2045 C2043 1.327 . S
C2045 C2061 1.429 . S
C2045 H2067 0.950 . S
C2046 H2042 0.949 . S
C2046 C2054 1.574 . S
C2046 C2062 1.368 . S
H2047 C2055 0.950 . S
H2048 C2053 0.950 . S
H2049 C2054 0.949 . S
H2050 C2056 0.950 . S
H2051 C2057 0.950 . S
H2052 C2058 0.949 . S
C2053 H2048 0.950 . S
C2053 C2055 1.327 . S
C2053 C2059 1.429 . S
C2054 C2046 1.574 . S
C2054 H2049 0.949 . S
C2054 C2060 1.368 . S
C2055 C2039 1.349 . S
C2055 H2047 0.950 . S
C2055 C2053 1.327 . S
C2056 C2044 1.349 . S
C2056 H2050 0.950 . S
C2056 C2057 1.327 . S
C2057 H2051 0.950 . S
C2057 C2056 1.327 . S
C2057 C2061 1.429 . S
C2058 C2041 1.574 . S
C2058 H2052 0.949 . S
C2058 C2062 1.368 . S
C2059 C2040 1.429 . S
C2059 C2053 1.429 . S
C2059 C2060 1.523 . S
C2060 C2041 1.368 . S
C2060 C2054 1.368 . S
C2060 C2059 1.523 . S
C2061 C2045 1.429 . S
C2061 C2057 1.429 . S
C2061 C2062 1.523 . S
C2062 C2046 1.368 . S
C2062 C2058 1.368 . S
C2062 C2061 1.523 . S
H2063 C2038 0.950 . S
H2064 C2040 0.950 . S
H2065 C2041 0.949 . S
H2066 C2043 0.950 . S
H2067 C2045 0.950 . S
C2068 C2069 1.349 . S
C2068 C2070 1.327 . S
C2068 H2093 0.950 . S
C2069 C2068 1.349 . S
C2069 C2085 1.349 . S
C2070 C2068 1.327 . S
C2070 C2089 1.429 . S
C2070 H2094 0.950 . S
C2071 C2088 1.574 1_655 S
C2071 C2090 1.368 . S
C2071 H2095 0.949 . S
H2072 C2076 0.949 . S
C2073 C2074 1.349 . S
C2073 C2075 1.327 . S
C2073 H2096 0.950 . S
C2074 C2073 1.349 . S
C2074 C2086 1.349 . S
C2075 C2073 1.327 . S
C2075 C2091 1.429 . S
C2075 H2097 0.950 . S
C2076 H2072 0.949 . S
C2076 C2084 1.574 . S
C2076 C2092 1.368 1_655 S
H2077 C2085 0.950 . S
H2078 C2083 0.950 . S
H2079 C2084 0.949 . S
H2080 C2086 0.950 . S
H2081 C2087 0.950 . S
H2082 C2088 0.949 . S
C2083 H2078 0.950 . S
C2083 C2085 1.327 . S
C2083 C2089 1.429 . S
C2084 C2076 1.574 . S
C2084 H2079 0.949 . S
C2084 C2090 1.368 . S
C2085 C2069 1.349 . S
C2085 H2077 0.950 . S
C2085 C2083 1.327 . S
C2086 C2074 1.349 . S
C2086 H2080 0.950 . S
C2086 C2087 1.327 . S
C2087 H2081 0.950 . S
C2087 C2086 1.327 . S
C2087 C2091 1.429 . S
C2088 C2071 1.574 1_455 S
C2088 H2082 0.949 . S
C2088 C2092 1.368 . S
C2089 C2070 1.429 . S
C2089 C2083 1.429 . S
C2089 C2090 1.523 . S
C2090 C2071 1.368 . S
C2090 C2084 1.368 . S
C2090 C2089 1.523 . S
C2091 C2075 1.429 . S
C2091 C2087 1.429 . S
C2091 C2092 1.523 . S
C2092 C2076 1.368 1_455 S
C2092 C2088 1.368 . S
C2092 C2091 1.523 . S
H2093 C2068 0.950 . S
H2094 C2070 0.950 . S
H2095 C2071 0.949 . S
H2096 C2073 0.950 . S
H2097 C2075 0.950 . S
C2098 C2099 1.349 . S
C2098 C2100 1.327 . S
C2098 H2123 0.950 . S
C2099 C2098 1.349 . S
C2099 C2115 1.349 . S
C2100 C2098 1.327 . S
C2100 C2119 1.429 . S
C2100 H2124 0.950 . S
C2101 C2118 1.574 . S
C2101 C2120 1.368 . S
C2101 H2125 0.949 . S
H2102 C2106 0.949 . S
C2103 C2104 1.349 . S
C2103 C2105 1.327 . S
C2103 H2126 0.950 . S
C2104 C2103 1.349 . S
C2104 C2116 1.349 . S
C2105 C2103 1.327 . S
C2105 C2121 1.429 . S
C2105 H2127 0.950 . S
C2106 H2102 0.949 . S
C2106 C2114 1.574 . S
C2106 C2122 1.368 . S
H2107 C2115 0.950 . S
H2108 C2113 0.950 . S
H2109 C2114 0.949 . S
H2110 C2116 0.950 . S
H2111 C2117 0.950 . S
H2112 C2118 0.949 . S
C2113 H2108 0.950 . S
C2113 C2115 1.327 . S
C2113 C2119 1.429 . S
C2114 C2106 1.574 . S
C2114 H2109 0.949 . S
C2114 C2120 1.368 . S
C2115 C2099 1.349 . S
C2115 H2107 0.950 . S
C2115 C2113 1.327 . S
C2116 C2104 1.349 . S
C2116 H2110 0.950 . S
C2116 C2117 1.327 . S
C2117 H2111 0.950 . S
C2117 C2116 1.327 . S
C2117 C2121 1.429 . S
C2118 C2101 1.574 . S
C2118 H2112 0.949 . S
C2118 C2122 1.368 . S
C2119 C2100 1.429 . S
C2119 C2113 1.429 . S
C2119 C2120 1.523 . S
C2120 C2101 1.368 . S
C2120 C2114 1.368 . S
C2120 C2119 1.523 . S
C2121 C2105 1.429 . S
C2121 C2117 1.429 . S
C2121 C2122 1.523 . S
C2122 C2106 1.368 . S
C2122 C2118 1.368 . S
C2122 C2121 1.523 . S
H2123 C2098 0.950 . S
H2124 C2100 0.950 . S
H2125 C2101 0.949 . S
H2126 C2103 0.950 . S
H2127 C2105 0.950 . S
C2128 C2129 1.349 . S
C2128 C2130 1.327 . S
C2128 H2153 0.950 . S
C2129 C2128 1.349 . S
C2129 C2145 1.349 . S
C2130 C2128 1.327 . S
C2130 C2149 1.429 . S
C2130 H2154 0.950 . S
C2131 C2148 1.574 . S
C2131 C2150 1.368 . S
C2131 H2155 0.949 . S
H2132 C2136 0.949 . S
C2133 C2134 1.349 . S
C2133 C2135 1.327 . S
C2133 H2156 0.950 . S
C2134 C2133 1.349 . S
C2134 C2146 1.349 . S
C2135 C2133 1.327 . S
C2135 C2151 1.429 . S
C2135 H2157 0.950 . S
C2136 H2132 0.949 . S
C2136 C2144 1.574 . S
C2136 C2152 1.368 . S
H2137 C2145 0.950 . S
H2138 C2143 0.950 . S
H2139 C2144 0.949 . S
H2140 C2146 0.950 . S
H2141 C2147 0.950 . S
H2142 C2148 0.949 . S
C2143 H2138 0.950 . S
C2143 C2145 1.327 . S
C2143 C2149 1.429 . S
C2144 C2136 1.574 . S
C2144 H2139 0.949 . S
C2144 C2150 1.368 . S
C2145 C2129 1.349 . S
C2145 H2137 0.950 . S
C2145 C2143 1.327 . S
C2146 C2134 1.349 . S
C2146 H2140 0.950 . S
C2146 C2147 1.327 . S
C2147 H2141 0.950 . S
C2147 C2146 1.327 . S
C2147 C2151 1.429 . S
C2148 C2131 1.574 . S
C2148 H2142 0.949 . S
C2148 C2152 1.368 . S
C2149 C2130 1.429 . S
C2149 C2143 1.429 . S
C2149 C2150 1.523 . S
C2150 C2131 1.368 . S
C2150 C2144 1.368 . S
C2150 C2149 1.523 . S
C2151 C2135 1.429 . S
C2151 C2147 1.429 . S
C2151 C2152 1.523 . S
C2152 C2136 1.368 . S
C2152 C2148 1.368 . S
C2152 C2151 1.523 . S
H2153 C2128 0.950 . S
H2154 C2130 0.950 . S
H2155 C2131 0.949 . S
H2156 C2133 0.950 . S
H2157 C2135 0.950 . S
C2158 C2159 1.349 . S
C2158 C2160 1.327 . S
C2158 H2183 0.950 . S
C2159 C2158 1.349 . S
C2159 C2175 1.349 . S
C2160 C2158 1.327 . S
C2160 C2179 1.429 . S
C2160 H2184 0.950 . S
C2161 C2178 1.574 1_554 S
C2161 C2180 1.368 . S
C2161 H2185 0.949 . S
H2162 C2166 0.949 . S
C2163 C2164 1.349 . S
C2163 C2165 1.327 . S
C2163 H2186 0.950 . S
C2164 C2163 1.349 . S
C2164 C2176 1.349 . S
C2165 C2163 1.327 . S
C2165 C2181 1.429 . S
C2165 H2187 0.950 . S
C2166 H2162 0.949 . S
C2166 C2174 1.574 . S
C2166 C2182 1.373 1_554 S
H2167 C2175 0.950 . S
H2168 C2173 0.950 . S
H2169 C2174 0.949 . S
H2170 C2176 0.950 . S
H2171 C2177 0.950 . S
H2172 C2178 0.949 . S
C2173 H2168 0.950 . S
C2173 C2175 1.327 . S
C2173 C2179 1.429 . S
C2174 C2166 1.574 . S
C2174 H2169 0.949 . S
C2174 C2180 1.368 . S
C2175 C2159 1.349 . S
C2175 H2167 0.950 . S
C2175 C2173 1.327 . S
C2176 C2164 1.349 . S
C2176 H2170 0.950 . S
C2176 C2177 1.327 . S
C2177 H2171 0.950 . S
C2177 C2176 1.327 . S
C2177 C2181 1.429 . S
C2178 C2161 1.574 1_556 S
C2178 H2172 0.949 . S
C2178 C2182 1.368 . S
C2179 C2160 1.429 . S
C2179 C2173 1.429 . S
C2179 C2180 1.523 . S
C2180 C2161 1.368 . S
C2180 C2174 1.368 . S
C2180 C2179 1.523 . S
C2181 C2165 1.429 . S
C2181 C2177 1.429 . S
C2181 C2182 1.518 . S
C2182 C2166 1.373 1_556 S
C2182 C2178 1.368 . S
C2182 C2181 1.518 . S
H2183 C2158 0.950 . S
H2184 C2160 0.950 . S
H2185 C2161 0.949 . S
H2186 C2163 0.950 . S
H2187 C2165 0.950 . S
C2188 C2189 1.349 . S
C2188 C2190 1.327 . S
C2188 H2213 0.950 . S
C2189 C2188 1.349 . S
C2189 C2205 1.349 . S
C2190 C2188 1.327 . S
C2190 C2209 1.429 . S
C2190 H2214 0.950 . S
C2191 C2208 1.574 . S
C2191 C2210 1.368 . S
C2191 H2215 0.949 . S
H2192 C2196 0.949 . S
C2193 C2194 1.349 . S
C2193 C2195 1.327 . S
C2193 H2216 0.950 . S
C2194 C2193 1.349 . S
C2194 C2206 1.349 . S
C2195 C2193 1.327 . S
C2195 C2211 1.429 . S
C2195 H2217 0.950 . S
C2196 H2192 0.949 . S
C2196 C2204 1.574 . S
C2196 C2212 1.368 . S
H2197 C2205 0.950 . S
H2198 C2203 0.950 . S
H2199 C2204 0.949 . S
H2200 C2206 0.950 . S
H2201 C2207 0.950 . S
H2202 C2208 0.949 . S
C2203 H2198 0.950 . S
C2203 C2205 1.327 . S
C2203 C2209 1.429 . S
C2204 C2196 1.574 . S
C2204 H2199 0.949 . S
C2204 C2210 1.368 . S
C2205 C2189 1.349 . S
C2205 H2197 0.950 . S
C2205 C2203 1.327 . S
C2206 C2194 1.349 . S
C2206 H2200 0.950 . S
C2206 C2207 1.327 . S
C2207 H2201 0.950 . S
C2207 C2206 1.327 . S
C2207 C2211 1.429 . S
C2208 C2191 1.574 . S
C2208 H2202 0.949 . S
C2208 C2212 1.368 . S
C2209 C2190 1.429 . S
C2209 C2203 1.429 . S
C2209 C2210 1.523 . S
C2210 C2191 1.368 . S
C2210 C2204 1.368 . S
C2210 C2209 1.523 . S
C2211 C2195 1.429 . S
C2211 C2207 1.429 . S
C2211 C2212 1.523 . S
C2212 C2196 1.368 . S
C2212 C2208 1.368 . S
C2212 C2211 1.523 . S
H2213 C2188 0.950 . S
H2214 C2190 0.950 . S
H2215 C2191 0.949 . S
H2216 C2193 0.950 . S
H2217 C2195 0.950 . S
C2218 C2219 1.349 . S
C2218 C2220 1.327 . S
C2218 H2243 0.950 . S
C2219 C2218 1.349 . S
C2219 C2235 1.349 . S
C2220 C2218 1.327 . S
C2220 C2239 1.429 . S
C2220 H2244 0.950 . S
C2221 C2238 1.574 . S
C2221 C2240 1.368 . S
C2221 H2245 0.949 . S
H2222 C2226 0.949 . S
C2223 C2224 1.349 . S
C2223 C2225 1.327 . S
C2223 H2246 0.950 . S
C2224 C2223 1.349 . S
C2224 C2236 1.349 . S
C2225 C2223 1.327 . S
C2225 C2241 1.429 . S
C2225 H2247 0.950 . S
C2226 H2222 0.949 . S
C2226 C2234 1.574 . S
C2226 C2242 1.368 . S
H2227 C2235 0.950 . S
H2228 C2233 0.950 . S
H2229 C2234 0.949 . S
H2230 C2236 0.950 . S
H2231 C2237 0.950 . S
H2232 C2238 0.949 . S
C2233 H2228 0.950 . S
C2233 C2235 1.327 . S
C2233 C2239 1.429 . S
C2234 C2226 1.574 . S
C2234 H2229 0.949 . S
C2234 C2240 1.368 . S
C2235 C2219 1.349 . S
C2235 H2227 0.950 . S
C2235 C2233 1.327 . S
C2236 C2224 1.349 . S
C2236 H2230 0.950 . S
C2236 C2237 1.327 . S
C2237 H2231 0.950 . S
C2237 C2236 1.327 . S
C2237 C2241 1.429 . S
C2238 C2221 1.574 . S
C2238 H2232 0.949 . S
C2238 C2242 1.368 . S
C2239 C2220 1.429 . S
C2239 C2233 1.429 . S
C2239 C2240 1.523 . S
C2240 C2221 1.368 . S
C2240 C2234 1.368 . S
C2240 C2239 1.523 . S
C2241 C2225 1.429 . S
C2241 C2237 1.429 . S
C2241 C2242 1.523 . S
C2242 C2226 1.368 . S
C2242 C2238 1.368 . S
C2242 C2241 1.523 . S
H2243 C2218 0.950 . S
H2244 C2220 0.950 . S
H2245 C2221 0.949 . S
H2246 C2223 0.950 . S
H2247 C2225 0.950 . S
C2248 C2249 1.349 . S
C2248 C2250 1.327 . S
C2248 H2273 0.950 . S
C2249 C2248 1.349 . S
C2249 C2265 1.349 . S
C2250 C2248 1.327 . S
C2250 C2269 1.429 . S
C2250 H2274 0.950 . S
C2251 C2268 1.574 . S
C2251 C2270 1.368 . S
C2251 H2275 0.949 . S
H2252 C2256 0.949 . S
C2253 C2254 1.349 . S
C2253 C2255 1.327 . S
C2253 H2276 0.950 . S
C2254 C2253 1.349 . S
C2254 C2266 1.349 . S
C2255 C2253 1.327 . S
C2255 C2271 1.429 . S
C2255 H2277 0.950 . S
C2256 H2252 0.949 . S
C2256 C2264 1.574 . S
C2256 C2272 1.368 . S
H2257 C2265 0.950 . S
H2258 C2263 0.950 . S
H2259 C2264 0.949 . S
H2260 C2266 0.950 . S
H2261 C2267 0.950 . S
H2262 C2268 0.949 . S
C2263 H2258 0.950 . S
C2263 C2265 1.327 . S
C2263 C2269 1.429 . S
C2264 C2256 1.574 . S
C2264 H2259 0.949 . S
C2264 C2270 1.368 . S
C2265 C2249 1.349 . S
C2265 H2257 0.950 . S
C2265 C2263 1.327 . S
C2266 C2254 1.349 . S
C2266 H2260 0.950 . S
C2266 C2267 1.327 . S
C2267 H2261 0.950 . S
C2267 C2266 1.327 . S
C2267 C2271 1.429 . S
C2268 C2251 1.574 . S
C2268 H2262 0.949 . S
C2268 C2272 1.368 . S
C2269 C2250 1.429 . S
C2269 C2263 1.429 . S
C2269 C2270 1.523 . S
C2270 C2251 1.368 . S
C2270 C2264 1.368 . S
C2270 C2269 1.523 . S
C2271 C2255 1.429 . S
C2271 C2267 1.429 . S
C2271 C2272 1.523 . S
C2272 C2256 1.368 . S
C2272 C2268 1.368 . S
C2272 C2271 1.523 . S
H2273 C2248 0.950 . S
H2274 C2250 0.950 . S
H2275 C2251 0.949 . S
H2276 C2253 0.950 . S
H2277 C2255 0.950 . S
C2278 C2279 1.349 . S
C2278 C2280 1.327 . S
C2278 H2303 0.950 . S
C2279 C2278 1.349 . S
C2279 C2295 1.349 . S
C2280 C2278 1.327 . S
C2280 C2299 1.429 . S
C2280 H2304 0.950 . S
C2281 C2298 1.574 1_556 S
C2281 C2300 1.368 . S
C2281 H2305 0.949 . S
H2282 C2286 0.949 . S
C2283 C2284 1.349 . S
C2283 C2285 1.327 . S
C2283 H2306 0.950 . S
C2284 C2283 1.349 . S
C2284 C2296 1.349 . S
C2285 C2283 1.327 . S
C2285 C2301 1.429 . S
C2285 H2307 0.950 . S
C2286 H2282 0.949 . S
C2286 C2294 1.574 . S
C2286 C2302 1.368 1_556 S
H2287 C2295 0.950 . S
H2288 C2293 0.950 . S
H2289 C2294 0.949 . S
H2290 C2296 0.950 . S
H2291 C2297 0.950 . S
H2292 C2298 0.949 . S
C2293 H2288 0.950 . S
C2293 C2295 1.327 . S
C2293 C2299 1.429 . S
C2294 C2286 1.574 . S
C2294 H2289 0.949 . S
C2294 C2300 1.368 . S
C2295 C2279 1.349 . S
C2295 H2287 0.950 . S
C2295 C2293 1.327 . S
C2296 C2284 1.349 . S
C2296 H2290 0.950 . S
C2296 C2297 1.327 . S
C2297 H2291 0.950 . S
C2297 C2296 1.327 . S
C2297 C2301 1.429 . S
C2298 C2281 1.574 1_554 S
C2298 H2292 0.949 . S
C2298 C2302 1.368 . S
C2299 C2280 1.429 . S
C2299 C2293 1.429 . S
C2299 C2300 1.523 . S
C2300 C2281 1.368 . S
C2300 C2294 1.368 . S
C2300 C2299 1.523 . S
C2301 C2285 1.429 . S
C2301 C2297 1.429 . S
C2301 C2302 1.523 . S
C2302 C2286 1.368 1_554 S
C2302 C2298 1.368 . S
C2302 C2301 1.523 . S
H2303 C2278 0.950 . S
H2304 C2280 0.950 . S
H2305 C2281 0.949 . S
H2306 C2283 0.950 . S
H2307 C2285 0.950 . S
C2308 C2309 1.349 . S
C2308 C2310 1.327 . S
C2308 H2333 0.950 . S
C2309 C2308 1.349 . S
C2309 C2325 1.349 . S
C2310 C2308 1.327 . S
C2310 C2329 1.429 . S
C2310 H2334 0.950 . S
C2311 C2328 1.574 . S
C2311 C2330 1.368 . S
C2311 H2335 0.949 . S
H2312 C2316 0.949 . S
C2313 C2314 1.349 . S
C2313 C2315 1.327 . S
C2313 H2336 0.950 . S
C2314 C2313 1.349 . S
C2314 C2326 1.349 . S
C2315 C2313 1.327 . S
C2315 C2331 1.429 . S
C2315 H2337 0.950 . S
C2316 H2312 0.949 . S
C2316 C2324 1.574 . S
C2316 C2332 1.368 . S
H2317 C2325 0.950 . S
H2318 C2323 0.950 . S
H2319 C2324 0.949 . S
H2320 C2326 0.950 . S
H2321 C2327 0.950 . S
H2322 C2328 0.949 . S
C2323 H2318 0.950 . S
C2323 C2325 1.327 . S
C2323 C2329 1.429 . S
C2324 C2316 1.574 . S
C2324 H2319 0.949 . S
C2324 C2330 1.368 . S
C2325 C2309 1.349 . S
C2325 H2317 0.950 . S
C2325 C2323 1.327 . S
C2326 C2314 1.349 . S
C2326 H2320 0.950 . S
C2326 C2327 1.327 . S
C2327 H2321 0.950 . S
C2327 C2326 1.327 . S
C2327 C2331 1.429 . S
C2328 C2311 1.574 . S
C2328 H2322 0.949 . S
C2328 C2332 1.368 . S
C2329 C2310 1.429 . S
C2329 C2323 1.429 . S
C2329 C2330 1.523 . S
C2330 C2311 1.368 . S
C2330 C2324 1.368 . S
C2330 C2329 1.523 . S
C2331 C2315 1.429 . S
C2331 C2327 1.429 . S
C2331 C2332 1.523 . S
C2332 C2316 1.368 . S
C2332 C2328 1.368 . S
C2332 C2331 1.523 . S
H2333 C2308 0.950 . S
H2334 C2310 0.950 . S
H2335 C2311 0.949 . S
H2336 C2313 0.950 . S
H2337 C2315 0.950 . S
C2338 C2339 1.349 . S
C2338 C2340 1.327 . S
C2338 H2363 0.950 . S
C2339 C2338 1.349 . S
C2339 C2355 1.349 . S
C2340 C2338 1.327 . S
C2340 C2359 1.429 . S
C2340 H2364 0.950 . S
C2341 C2358 1.574 . S
C2341 C2360 1.368 . S
C2341 H2365 0.949 . S
H2342 C2346 0.949 . S
C2343 C2344 1.349 . S
C2343 C2345 1.327 . S
C2343 H2366 0.950 . S
C2344 C2343 1.349 . S
C2344 C2356 1.349 . S
C2345 C2343 1.327 . S
C2345 C2361 1.429 . S
C2345 H2367 0.950 . S
C2346 H2342 0.949 . S
C2346 C2354 1.574 . S
C2346 C2362 1.368 . S
H2347 C2355 0.950 . S
H2348 C2353 0.950 . S
H2349 C2354 0.949 . S
H2350 C2356 0.950 . S
H2351 C2357 0.950 . S
H2352 C2358 0.949 . S
C2353 H2348 0.950 . S
C2353 C2355 1.327 . S
C2353 C2359 1.429 . S
C2354 C2346 1.574 . S
C2354 H2349 0.949 . S
C2354 C2360 1.368 . S
C2355 C2339 1.349 . S
C2355 H2347 0.950 . S
C2355 C2353 1.327 . S
C2356 C2344 1.349 . S
C2356 H2350 0.950 . S
C2356 C2357 1.327 . S
C2357 H2351 0.950 . S
C2357 C2356 1.327 . S
C2357 C2361 1.429 . S
C2358 C2341 1.574 . S
C2358 H2352 0.949 . S
C2358 C2362 1.368 . S
C2359 C2340 1.429 . S
C2359 C2353 1.429 . S
C2359 C2360 1.523 . S
C2360 C2341 1.368 . S
C2360 C2354 1.368 . S
C2360 C2359 1.523 . S
C2361 C2345 1.429 . S
C2361 C2357 1.429 . S
C2361 C2362 1.523 . S
C2362 C2346 1.368 . S
C2362 C2358 1.368 . S
C2362 C2361 1.523 . S
H2363 C2338 0.950 . S
H2364 C2340 0.950 . S
H2365 C2341 0.949 . S
H2366 C2343 0.950 . S
H2367 C2345 0.950 . S
C2368 C2369 1.349 . S
C2368 C2370 1.327 . S
C2368 H2393 0.950 . S
C2369 C2368 1.349 . S
C2369 C2385 1.349 . S
C2370 C2368 1.327 . S
C2370 C2389 1.429 . S
C2370 H2394 0.950 . S
C2371 C2388 1.574 . S
C2371 C2390 1.368 . S
C2371 H2395 0.949 . S
H2372 C2376 0.949 . S
C2373 C2374 1.349 . S
C2373 C2375 1.327 . S
C2373 H2396 0.950 . S
C2374 C2373 1.349 . S
C2374 C2386 1.349 . S
C2375 C2373 1.327 . S
C2375 C2391 1.429 . S
C2375 H2397 0.950 . S
C2376 H2372 0.949 . S
C2376 C2384 1.574 . S
C2376 C2392 1.368 . S
H2377 C2385 0.950 . S
H2378 C2383 0.950 . S
H2379 C2384 0.949 . S
H2380 C2386 0.950 . S
H2381 C2387 0.950 . S
H2382 C2388 0.949 . S
C2383 H2378 0.950 . S
C2383 C2385 1.327 . S
C2383 C2389 1.429 . S
C2384 C2376 1.574 . S
C2384 H2379 0.949 . S
C2384 C2390 1.368 . S
C2385 C2369 1.349 . S
C2385 H2377 0.950 . S
C2385 C2383 1.327 . S
C2386 C2374 1.349 . S
C2386 H2380 0.950 . S
C2386 C2387 1.327 . S
C2387 H2381 0.950 . S
C2387 C2386 1.327 . S
C2387 C2391 1.429 . S
C2388 C2371 1.574 . S
C2388 H2382 0.949 . S
C2388 C2392 1.368 . S
C2389 C2370 1.429 . S
C2389 C2383 1.429 . S
C2389 C2390 1.523 . S
C2390 C2371 1.368 . S
C2390 C2384 1.368 . S
C2390 C2389 1.523 . S
C2391 C2375 1.429 . S
C2391 C2387 1.429 . S
C2391 C2392 1.523 . S
C2392 C2376 1.368 . S
C2392 C2388 1.368 . S
C2392 C2391 1.523 . S
H2393 C2368 0.950 . S
H2394 C2370 0.950 . S
H2395 C2371 0.949 . S
H2396 C2373 0.950 . S
H2397 C2375 0.950 . S
C2398 C2399 1.349 . S
C2398 C2400 1.327 . S
C2398 H2423 0.950 . S
C2399 C2398 1.349 . S
C2399 C2415 1.349 . S
C2400 C2398 1.327 . S
C2400 C2419 1.429 . S
C2400 H2424 0.950 . S
C2401 C2418 1.574 . S
C2401 C2420 1.368 . S
C2401 H2425 0.949 . S
H2402 C2406 0.949 . S
C2403 C2404 1.349 . S
C2403 C2405 1.327 . S
C2403 H2426 0.950 . S
C2404 C2403 1.349 . S
C2404 C2416 1.349 . S
C2405 C2403 1.327 . S
C2405 C2421 1.429 . S
C2405 H2427 0.950 . S
C2406 H2402 0.949 . S
C2406 C2414 1.574 . S
C2406 C2422 1.368 . S
H2407 C2415 0.950 . S
H2408 C2413 0.950 . S
H2409 C2414 0.949 . S
H2410 C2416 0.950 . S
H2411 C2417 0.950 . S
H2412 C2418 0.949 . S
C2413 H2408 0.950 . S
C2413 C2415 1.327 . S
C2413 C2419 1.429 . S
C2414 C2406 1.574 . S
C2414 H2409 0.949 . S
C2414 C2420 1.368 . S
C2415 C2399 1.349 . S
C2415 H2407 0.950 . S
C2415 C2413 1.327 . S
C2416 C2404 1.349 . S
C2416 H2410 0.950 . S
C2416 C2417 1.327 . S
C2417 H2411 0.950 . S
C2417 C2416 1.327 . S
C2417 C2421 1.429 . S
C2418 C2401 1.574 . S
C2418 H2412 0.949 . S
C2418 C2422 1.368 . S
C2419 C2400 1.429 . S
C2419 C2413 1.429 . S
C2419 C2420 1.523 . S
C2420 C2401 1.368 . S
C2420 C2414 1.368 . S
C2420 C2419 1.523 . S
C2421 C2405 1.429 . S
C2421 C2417 1.429 . S
C2421 C2422 1.523 . S
C2422 C2406 1.368 . S
C2422 C2418 1.368 . S
C2422 C2421 1.523 . S
H2423 C2398 0.950 . S
H2424 C2400 0.950 . S
H2425 C2401 0.949 . S
H2426 C2403 0.950 . S
H2427 C2405 0.950 . S
C2428 C2429 1.349 . S
C2428 C2430 1.327 . S
C2428 H2453 0.950 . S
C2429 C2428 1.349 . S
C2429 C2445 1.349 . S
C2430 C2428 1.327 . S
C2430 C2449 1.429 . S
C2430 H2454 0.950 . S
C2431 C2448 1.574 . S
C2431 C2450 1.368 . S
C2431 H2455 0.949 . S
H2432 C2436 0.949 . S
C2433 C2434 1.349 . S
C2433 C2435 1.327 . S
C2433 H2456 0.950 . S
C2434 C2433 1.349 . S
C2434 C2446 1.349 . S
C2435 C2433 1.327 . S
C2435 C2451 1.429 . S
C2435 H2457 0.950 . S
C2436 H2432 0.949 . S
C2436 C2444 1.574 . S
C2436 C2452 1.368 . S
H2437 C2445 0.950 . S
H2438 C2443 0.950 . S
H2439 C2444 0.949 . S
H2440 C2446 0.950 . S
H2441 C2447 0.950 . S
H2442 C2448 0.949 . S
C2443 H2438 0.950 . S
C2443 C2445 1.327 . S
C2443 C2449 1.429 . S
C2444 C2436 1.574 . S
C2444 H2439 0.949 . S
C2444 C2450 1.368 . S
C2445 C2429 1.349 . S
C2445 H2437 0.950 . S
C2445 C2443 1.327 . S
C2446 C2434 1.349 . S
C2446 H2440 0.950 . S
C2446 C2447 1.327 . S
C2447 H2441 0.950 . S
C2447 C2446 1.327 . S
C2447 C2451 1.429 . S
C2448 C2431 1.574 . S
C2448 H2442 0.949 . S
C2448 C2452 1.368 . S
C2449 C2430 1.429 . S
C2449 C2443 1.429 . S
C2449 C2450 1.523 . S
C2450 C2431 1.368 . S
C2450 C2444 1.368 . S
C2450 C2449 1.523 . S
C2451 C2435 1.429 . S
C2451 C2447 1.429 . S
C2451 C2452 1.523 . S
C2452 C2436 1.368 . S
C2452 C2448 1.368 . S
C2452 C2451 1.523 . S
H2453 C2428 0.950 . S
H2454 C2430 0.950 . S
H2455 C2431 0.949 . S
H2456 C2433 0.950 . S
H2457 C2435 0.950 . S
C2458 C2459 1.349 . S
C2458 C2460 1.327 . S
C2458 H2483 0.950 . S
C2459 C2458 1.349 . S
C2459 C2475 1.349 . S
C2460 C2458 1.327 . S
C2460 C2479 1.429 . S
C2460 H2484 0.950 . S
C2461 C2478 1.574 . S
C2461 C2480 1.368 . S
C2461 H2485 0.949 . S
H2462 C2466 0.949 . S
C2463 C2464 1.349 . S
C2463 C2465 1.327 . S
C2463 H2486 0.950 . S
C2464 C2463 1.349 . S
C2464 C2476 1.349 . S
C2465 C2463 1.327 . S
C2465 C2481 1.429 . S
C2465 H2487 0.950 . S
C2466 H2462 0.949 . S
C2466 C2474 1.574 . S
C2466 C2482 1.368 . S
H2467 C2475 0.950 . S
H2468 C2473 0.950 . S
H2469 C2474 0.949 . S
H2470 C2476 0.950 . S
H2471 C2477 0.950 . S
H2472 C2478 0.949 . S
C2473 H2468 0.950 . S
C2473 C2475 1.327 . S
C2473 C2479 1.429 . S
C2474 C2466 1.574 . S
C2474 H2469 0.949 . S
C2474 C2480 1.368 . S
C2475 C2459 1.349 . S
C2475 H2467 0.950 . S
C2475 C2473 1.327 . S
C2476 C2464 1.349 . S
C2476 H2470 0.950 . S
C2476 C2477 1.327 . S
C2477 H2471 0.950 . S
C2477 C2476 1.327 . S
C2477 C2481 1.429 . S
C2478 C2461 1.574 . S
C2478 H2472 0.949 . S
C2478 C2482 1.368 . S
C2479 C2460 1.429 . S
C2479 C2473 1.429 . S
C2479 C2480 1.523 . S
C2480 C2461 1.368 . S
C2480 C2474 1.368 . S
C2480 C2479 1.523 . S
C2481 C2465 1.429 . S
C2481 C2477 1.429 . S
C2481 C2482 1.523 . S
C2482 C2466 1.368 . S
C2482 C2478 1.368 . S
C2482 C2481 1.523 . S
H2483 C2458 0.950 . S
H2484 C2460 0.950 . S
H2485 C2461 0.949 . S
H2486 C2463 0.950 . S
H2487 C2465 0.950 . S
C2488 C2489 1.349 . S
C2488 C2490 1.327 . S
C2488 H2513 0.950 . S
C2489 C2488 1.349 . S
C2489 C2505 1.349 . S
C2490 C2488 1.327 . S
C2490 C2509 1.429 . S
C2490 H2514 0.950 . S
C2491 C2508 1.574 . S
C2491 C2510 1.368 . S
C2491 H2515 0.949 . S
H2492 C2496 0.949 . S
C2493 C2494 1.349 . S
C2493 C2495 1.327 . S
C2493 H2516 0.950 . S
C2494 C2493 1.349 . S
C2494 C2506 1.349 . S
C2495 C2493 1.327 . S
C2495 C2511 1.429 . S
C2495 H2517 0.950 . S
C2496 H2492 0.949 . S
C2496 C2504 1.574 . S
C2496 C2512 1.368 . S
H2497 C2505 0.950 . S
H2498 C2503 0.950 . S
H2499 C2504 0.949 . S
H2500 C2506 0.950 . S
H2501 C2507 0.950 . S
H2502 C2508 0.949 . S
C2503 H2498 0.950 . S
C2503 C2505 1.327 . S
C2503 C2509 1.429 . S
C2504 C2496 1.574 . S
C2504 H2499 0.949 . S
C2504 C2510 1.368 . S
C2505 C2489 1.349 . S
C2505 H2497 0.950 . S
C2505 C2503 1.327 . S
C2506 C2494 1.349 . S
C2506 H2500 0.950 . S
C2506 C2507 1.327 . S
C2507 H2501 0.950 . S
C2507 C2506 1.327 . S
C2507 C2511 1.429 . S
C2508 C2491 1.574 . S
C2508 H2502 0.949 . S
C2508 C2512 1.368 . S
C2509 C2490 1.429 . S
C2509 C2503 1.429 . S
C2509 C2510 1.523 . S
C2510 C2491 1.368 . S
C2510 C2504 1.368 . S
C2510 C2509 1.523 . S
C2511 C2495 1.429 . S
C2511 C2507 1.429 . S
C2511 C2512 1.523 . S
C2512 C2496 1.368 . S
C2512 C2508 1.368 . S
C2512 C2511 1.523 . S
H2513 C2488 0.950 . S
H2514 C2490 0.950 . S
H2515 C2491 0.949 . S
H2516 C2493 0.950 . S
H2517 C2495 0.950 . S
C2518 C2519 1.349 . S
C2518 C2520 1.327 . S
C2518 H2543 0.950 . S
C2519 C2518 1.349 . S
C2519 C2535 1.349 . S
C2520 C2518 1.327 . S
C2520 C2539 1.429 . S
C2520 H2544 0.950 . S
C2521 C2538 1.574 . S
C2521 C2540 1.368 . S
C2521 H2545 0.949 . S
H2522 C2526 0.949 . S
C2523 C2524 1.349 . S
C2523 C2525 1.327 . S
C2523 H2546 0.950 . S
C2524 C2523 1.349 . S
C2524 C2536 1.349 . S
C2525 C2523 1.327 . S
C2525 C2541 1.429 . S
C2525 H2547 0.950 . S
C2526 H2522 0.949 . S
C2526 C2534 1.574 . S
C2526 C2542 1.368 . S
H2527 C2535 0.950 . S
H2528 C2533 0.950 . S
H2529 C2534 0.949 . S
H2530 C2536 0.950 . S
H2531 C2537 0.950 . S
H2532 C2538 0.949 . S
C2533 H2528 0.950 . S
C2533 C2535 1.327 . S
C2533 C2539 1.429 . S
C2534 C2526 1.574 . S
C2534 H2529 0.949 . S
C2534 C2540 1.368 . S
C2535 C2519 1.349 . S
C2535 H2527 0.950 . S
C2535 C2533 1.327 . S
C2536 C2524 1.349 . S
C2536 H2530 0.950 . S
C2536 C2537 1.327 . S
C2537 H2531 0.950 . S
C2537 C2536 1.327 . S
C2537 C2541 1.429 . S
C2538 C2521 1.574 . S
C2538 H2532 0.949 . S
C2538 C2542 1.368 . S
C2539 C2520 1.429 . S
C2539 C2533 1.429 . S
C2539 C2540 1.523 . S
C2540 C2521 1.368 . S
C2540 C2534 1.368 . S
C2540 C2539 1.523 . S
C2541 C2525 1.429 . S
C2541 C2537 1.429 . S
C2541 C2542 1.523 . S
C2542 C2526 1.368 . S
C2542 C2538 1.368 . S
C2542 C2541 1.523 . S
H2543 C2518 0.950 . S
H2544 C2520 0.950 . S
H2545 C2521 0.949 . S
H2546 C2523 0.950 . S
H2547 C2525 0.950 . S
C2548 C2549 1.349 . S
C2548 C2550 1.327 . S
C2548 H2573 0.950 . S
C2549 C2548 1.349 . S
C2549 C2565 1.349 . S
C2550 C2548 1.327 . S
C2550 C2569 1.429 . S
C2550 H2574 0.950 . S
C2551 C2568 1.574 . S
C2551 C2570 1.368 . S
C2551 H2575 0.949 . S
H2552 C2556 0.949 . S
C2553 C2554 1.349 . S
C2553 C2555 1.327 . S
C2553 H2576 0.950 . S
C2554 C2553 1.349 . S
C2554 C2566 1.349 . S
C2555 C2553 1.327 . S
C2555 C2571 1.429 . S
C2555 H2577 0.950 . S
C2556 H2552 0.949 . S
C2556 C2564 1.574 . S
C2556 C2572 1.368 . S
H2557 C2565 0.950 . S
H2558 C2563 0.950 . S
H2559 C2564 0.949 . S
H2560 C2566 0.950 . S
H2561 C2567 0.950 . S
H2562 C2568 0.949 . S
C2563 H2558 0.950 . S
C2563 C2565 1.327 . S
C2563 C2569 1.429 . S
C2564 C2556 1.574 . S
C2564 H2559 0.949 . S
C2564 C2570 1.368 . S
C2565 C2549 1.349 . S
C2565 H2557 0.950 . S
C2565 C2563 1.327 . S
C2566 C2554 1.349 . S
C2566 H2560 0.950 . S
C2566 C2567 1.327 . S
C2567 H2561 0.950 . S
C2567 C2566 1.327 . S
C2567 C2571 1.429 . S
C2568 C2551 1.574 . S
C2568 H2562 0.949 . S
C2568 C2572 1.368 . S
C2569 C2550 1.429 . S
C2569 C2563 1.429 . S
C2569 C2570 1.523 . S
C2570 C2551 1.368 . S
C2570 C2564 1.368 . S
C2570 C2569 1.523 . S
C2571 C2555 1.429 . S
C2571 C2567 1.429 . S
C2571 C2572 1.523 . S
C2572 C2556 1.368 . S
C2572 C2568 1.368 . S
C2572 C2571 1.523 . S
H2573 C2548 0.950 . S
H2574 C2550 0.950 . S
H2575 C2551 0.949 . S
H2576 C2553 0.950 . S
H2577 C2555 0.950 . S
C2578 C2579 1.349 . S
C2578 C2580 1.327 . S
C2578 H2603 0.950 . S
C2579 C2578 1.349 . S
C2579 C2595 1.349 . S
C2580 C2578 1.327 . S
C2580 C2599 1.429 . S
C2580 H2604 0.950 . S
C2581 C2598 1.574 . S
C2581 C2600 1.368 . S
C2581 H2605 0.949 . S
H2582 C2586 0.949 . S
C2583 C2584 1.349 . S
C2583 C2585 1.327 . S
C2583 H2606 0.950 . S
C2584 C2583 1.349 . S
C2584 C2596 1.349 . S
C2585 C2583 1.327 . S
C2585 C2601 1.429 . S
C2585 H2607 0.950 . S
C2586 H2582 0.949 . S
C2586 C2594 1.574 . S
C2586 C2602 1.368 . S
H2587 C2595 0.950 . S
H2588 C2593 0.950 . S
H2589 C2594 0.949 . S
H2590 C2596 0.950 . S
H2591 C2597 0.950 . S
H2592 C2598 0.949 . S
C2593 H2588 0.950 . S
C2593 C2595 1.327 . S
C2593 C2599 1.429 . S
C2594 C2586 1.574 . S
C2594 H2589 0.949 . S
C2594 C2600 1.368 . S
C2595 C2579 1.349 . S
C2595 H2587 0.950 . S
C2595 C2593 1.327 . S
C2596 C2584 1.349 . S
C2596 H2590 0.950 . S
C2596 C2597 1.327 . S
C2597 H2591 0.950 . S
C2597 C2596 1.327 . S
C2597 C2601 1.429 . S
C2598 C2581 1.574 . S
C2598 H2592 0.949 . S
C2598 C2602 1.368 . S
C2599 C2580 1.429 . S
C2599 C2593 1.429 . S
C2599 C2600 1.523 . S
C2600 C2581 1.368 . S
C2600 C2594 1.368 . S
C2600 C2599 1.523 . S
C2601 C2585 1.429 . S
C2601 C2597 1.429 . S
C2601 C2602 1.523 . S
C2602 C2586 1.368 . S
C2602 C2598 1.368 . S
C2602 C2601 1.523 . S
H2603 C2578 0.950 . S
H2604 C2580 0.950 . S
H2605 C2581 0.949 . S
H2606 C2583 0.950 . S
H2607 C2585 0.950 . S
C2608 C2609 1.349 . S
C2608 C2610 1.327 . S
C2608 H2633 0.950 . S
C2609 C2608 1.349 . S
C2609 C2625 1.349 . S
C2610 C2608 1.327 . S
C2610 C2629 1.429 . S
C2610 H2634 0.950 . S
C2611 C2628 1.574 . S
C2611 C2630 1.368 . S
C2611 H2635 0.949 . S
H2612 C2616 0.949 . S
C2613 C2614 1.349 . S
C2613 C2615 1.327 . S
C2613 H2636 0.950 . S
C2614 C2613 1.349 . S
C2614 C2626 1.349 . S
C2615 C2613 1.327 . S
C2615 C2631 1.429 . S
C2615 H2637 0.950 . S
C2616 H2612 0.949 . S
C2616 C2624 1.574 . S
C2616 C2632 1.368 . S
H2617 C2625 0.950 . S
H2618 C2623 0.950 . S
H2619 C2624 0.949 . S
H2620 C2626 0.950 . S
H2621 C2627 0.950 . S
H2622 C2628 0.949 . S
C2623 H2618 0.950 . S
C2623 C2625 1.327 . S
C2623 C2629 1.429 . S
C2624 C2616 1.574 . S
C2624 H2619 0.949 . S
C2624 C2630 1.368 . S
C2625 C2609 1.349 . S
C2625 H2617 0.950 . S
C2625 C2623 1.327 . S
C2626 C2614 1.349 . S
C2626 H2620 0.950 . S
C2626 C2627 1.327 . S
C2627 H2621 0.950 . S
C2627 C2626 1.327 . S
C2627 C2631 1.429 . S
C2628 C2611 1.574 . S
C2628 H2622 0.949 . S
C2628 C2632 1.368 . S
C2629 C2610 1.429 . S
C2629 C2623 1.429 . S
C2629 C2630 1.523 . S
C2630 C2611 1.368 . S
C2630 C2624 1.368 . S
C2630 C2629 1.523 . S
C2631 C2615 1.429 . S
C2631 C2627 1.429 . S
C2631 C2632 1.523 . S
C2632 C2616 1.368 . S
C2632 C2628 1.368 . S
C2632 C2631 1.523 . S
H2633 C2608 0.950 . S
H2634 C2610 0.950 . S
H2635 C2611 0.949 . S
H2636 C2613 0.950 . S
H2637 C2615 0.950 . S
C2638 C2639 1.349 . S
C2638 C2640 1.327 . S
C2638 H2663 0.950 . S
C2639 C2638 1.349 . S
C2639 C2655 1.349 . S
C2640 C2638 1.327 . S
C2640 C2659 1.429 . S
C2640 H2664 0.950 . S
C2641 C2658 1.574 . S
C2641 C2660 1.368 . S
C2641 H2665 0.949 . S
H2642 C2646 0.949 . S
C2643 C2644 1.349 . S
C2643 C2645 1.327 . S
C2643 H2666 0.950 . S
C2644 C2643 1.349 . S
C2644 C2656 1.349 . S
C2645 C2643 1.327 . S
C2645 C2661 1.429 . S
C2645 H2667 0.950 . S
C2646 H2642 0.949 . S
C2646 C2654 1.574 . S
C2646 C2662 1.368 . S
H2647 C2655 0.950 . S
H2648 C2653 0.950 . S
H2649 C2654 0.949 . S
H2650 C2656 0.950 . S
H2651 C2657 0.950 . S
H2652 C2658 0.949 . S
C2653 H2648 0.950 . S
C2653 C2655 1.327 . S
C2653 C2659 1.429 . S
C2654 C2646 1.574 . S
C2654 H2649 0.949 . S
C2654 C2660 1.368 . S
C2655 C2639 1.349 . S
C2655 H2647 0.950 . S
C2655 C2653 1.327 . S
C2656 C2644 1.349 . S
C2656 H2650 0.950 . S
C2656 C2657 1.327 . S
C2657 H2651 0.950 . S
C2657 C2656 1.327 . S
C2657 C2661 1.429 . S
C2658 C2641 1.574 . S
C2658 H2652 0.949 . S
C2658 C2662 1.368 . S
C2659 C2640 1.429 . S
C2659 C2653 1.429 . S
C2659 C2660 1.523 . S
C2660 C2641 1.368 . S
C2660 C2654 1.368 . S
C2660 C2659 1.523 . S
C2661 C2645 1.429 . S
C2661 C2657 1.429 . S
C2661 C2662 1.523 . S
C2662 C2646 1.368 . S
C2662 C2658 1.368 . S
C2662 C2661 1.523 . S
H2663 C2638 0.950 . S
H2664 C2640 0.950 . S
H2665 C2641 0.949 . S
H2666 C2643 0.950 . S
H2667 C2645 0.950 . S
C2668 C2669 1.349 . S
C2668 C2670 1.327 . S
C2668 H2693 0.950 . S
C2669 C2668 1.349 . S
C2669 C2685 1.349 . S
C2670 C2668 1.327 . S
C2670 C2689 1.429 . S
C2670 H2694 0.950 . S
C2671 C2688 1.574 . S
C2671 C2690 1.368 . S
C2671 H2695 0.949 . S
H2672 C2676 0.949 . S
C2673 C2674 1.349 . S
C2673 C2675 1.327 . S
C2673 H2696 0.950 . S
C2674 C2673 1.349 . S
C2674 C2686 1.349 . S
C2675 C2673 1.327 . S
C2675 C2691 1.429 . S
C2675 H2697 0.950 . S
C2676 H2672 0.949 . S
C2676 C2684 1.574 . S
C2676 C2692 1.368 . S
H2677 C2685 0.950 . S
H2678 C2683 0.950 . S
H2679 C2684 0.949 . S
H2680 C2686 0.950 . S
H2681 C2687 0.950 . S
H2682 C2688 0.949 . S
C2683 H2678 0.950 . S
C2683 C2685 1.327 . S
C2683 C2689 1.429 . S
C2684 C2676 1.574 . S
C2684 H2679 0.949 . S
C2684 C2690 1.368 . S
C2685 C2669 1.349 . S
C2685 H2677 0.950 . S
C2685 C2683 1.327 . S
C2686 C2674 1.349 . S
C2686 H2680 0.950 . S
C2686 C2687 1.327 . S
C2687 H2681 0.950 . S
C2687 C2686 1.327 . S
C2687 C2691 1.429 . S
C2688 C2671 1.574 . S
C2688 H2682 0.949 . S
C2688 C2692 1.368 . S
C2689 C2670 1.429 . S
C2689 C2683 1.429 . S
C2689 C2690 1.523 . S
C2690 C2671 1.368 . S
C2690 C2684 1.368 . S
C2690 C2689 1.523 . S
C2691 C2675 1.429 . S
C2691 C2687 1.429 . S
C2691 C2692 1.523 . S
C2692 C2676 1.368 . S
C2692 C2688 1.368 . S
C2692 C2691 1.523 . S
H2693 C2668 0.950 . S
H2694 C2670 0.950 . S
H2695 C2671 0.949 . S
H2696 C2673 0.950 . S
H2697 C2675 0.950 . S
C2698 C2699 1.349 . S
C2698 C2700 1.327 . S
C2698 H2723 0.950 . S
C2699 C2698 1.349 . S
C2699 C2715 1.349 . S
C2700 C2698 1.327 . S
C2700 C2719 1.429 . S
C2700 H2724 0.950 . S
C2701 C2718 1.574 . S
C2701 C2720 1.368 . S
C2701 H2725 0.949 . S
H2702 C2706 0.949 . S
C2703 C2704 1.349 . S
C2703 C2705 1.327 . S
C2703 H2726 0.950 . S
C2704 C2703 1.349 . S
C2704 C2716 1.349 . S
C2705 C2703 1.327 . S
C2705 C2721 1.429 . S
C2705 H2727 0.950 . S
C2706 H2702 0.949 . S
C2706 C2714 1.574 . S
C2706 C2722 1.368 . S
H2707 C2715 0.950 . S
H2708 C2713 0.950 . S
H2709 C2714 0.949 . S
H2710 C2716 0.950 . S
H2711 C2717 0.950 . S
H2712 C2718 0.949 . S
C2713 H2708 0.950 . S
C2713 C2715 1.327 . S
C2713 C2719 1.429 . S
C2714 C2706 1.574 . S
C2714 H2709 0.949 . S
C2714 C2720 1.368 . S
C2715 C2699 1.349 . S
C2715 H2707 0.950 . S
C2715 C2713 1.327 . S
C2716 C2704 1.349 . S
C2716 H2710 0.950 . S
C2716 C2717 1.327 . S
C2717 H2711 0.950 . S
C2717 C2716 1.327 . S
C2717 C2721 1.429 . S
C2718 C2701 1.574 . S
C2718 H2712 0.949 . S
C2718 C2722 1.368 . S
C2719 C2700 1.429 . S
C2719 C2713 1.429 . S
C2719 C2720 1.523 . S
C2720 C2701 1.368 . S
C2720 C2714 1.368 . S
C2720 C2719 1.523 . S
C2721 C2705 1.429 . S
C2721 C2717 1.429 . S
C2721 C2722 1.523 . S
C2722 C2706 1.368 . S
C2722 C2718 1.368 . S
C2722 C2721 1.523 . S
H2723 C2698 0.950 . S
H2724 C2700 0.950 . S
H2725 C2701 0.949 . S
H2726 C2703 0.950 . S
H2727 C2705 0.950 . S
C2728 C2729 1.349 . S
C2728 C2730 1.327 . S
C2728 H2753 0.950 . S
C2729 C2728 1.349 . S
C2729 C2745 1.349 . S
C2730 C2728 1.327 . S
C2730 C2749 1.429 . S
C2730 H2754 0.950 . S
C2731 C2748 1.574 . S
C2731 C2750 1.368 . S
C2731 H2755 0.949 . S
H2732 C2736 0.949 . S
C2733 C2734 1.349 . S
C2733 C2735 1.327 . S
C2733 H2756 0.950 . S
C2734 C2733 1.349 . S
C2734 C2746 1.349 . S
C2735 C2733 1.327 . S
C2735 C2751 1.429 . S
C2735 H2757 0.950 . S
C2736 H2732 0.949 . S
C2736 C2744 1.574 . S
C2736 C2752 1.368 . S
H2737 C2745 0.950 . S
H2738 C2743 0.950 . S
H2739 C2744 0.949 . S
H2740 C2746 0.950 . S
H2741 C2747 0.950 . S
H2742 C2748 0.949 . S
C2743 H2738 0.950 . S
C2743 C2745 1.327 . S
C2743 C2749 1.429 . S
C2744 C2736 1.574 . S
C2744 H2739 0.949 . S
C2744 C2750 1.368 . S
C2745 C2729 1.349 . S
C2745 H2737 0.950 . S
C2745 C2743 1.327 . S
C2746 C2734 1.349 . S
C2746 H2740 0.950 . S
C2746 C2747 1.327 . S
C2747 H2741 0.950 . S
C2747 C2746 1.327 . S
C2747 C2751 1.429 . S
C2748 C2731 1.574 . S
C2748 H2742 0.949 . S
C2748 C2752 1.368 . S
C2749 C2730 1.429 . S
C2749 C2743 1.429 . S
C2749 C2750 1.523 . S
C2750 C2731 1.368 . S
C2750 C2744 1.368 . S
C2750 C2749 1.523 . S
C2751 C2735 1.429 . S
C2751 C2747 1.429 . S
C2751 C2752 1.523 . S
C2752 C2736 1.368 . S
C2752 C2748 1.368 . S
C2752 C2751 1.523 . S
H2753 C2728 0.950 . S
H2754 C2730 0.950 . S
H2755 C2731 0.949 . S
H2756 C2733 0.950 . S
H2757 C2735 0.950 . S
C2758 C2759 1.349 . S
C2758 C2760 1.327 . S
C2758 H2783 0.949 . S
C2759 C2758 1.349 . S
C2759 C2775 1.349 . S
C2760 C2758 1.327 . S
C2760 C2779 1.429 . S
C2760 H2784 0.950 . S
C2761 C2778 1.574 . S
C2761 C2780 1.368 . S
C2761 H2785 0.949 . S
H2762 C2766 0.949 . S
C2763 C2764 1.349 . S
C2763 C2765 1.327 . S
C2763 H2786 0.950 . S
C2764 C2763 1.349 . S
C2764 C2776 1.349 . S
C2765 C2763 1.327 . S
C2765 C2781 1.429 . S
C2765 H2787 0.950 . S
C2766 H2762 0.949 . S
C2766 C2774 1.574 . S
C2766 C2782 1.368 . S
H2767 C2775 0.950 . S
H2768 C2773 0.950 . S
H2769 C2774 0.949 . S
H2770 C2776 0.950 . S
H2771 C2777 0.950 . S
H2772 C2778 0.949 . S
C2773 H2768 0.950 . S
C2773 C2775 1.327 . S
C2773 C2779 1.429 . S
C2774 C2766 1.574 . S
C2774 H2769 0.949 . S
C2774 C2780 1.368 . S
C2775 C2759 1.349 . S
C2775 H2767 0.950 . S
C2775 C2773 1.327 . S
C2776 C2764 1.349 . S
C2776 H2770 0.950 . S
C2776 C2777 1.327 . S
C2777 H2771 0.950 . S
C2777 C2776 1.327 . S
C2777 C2781 1.429 . S
C2778 C2761 1.574 . S
C2778 H2772 0.949 . S
C2778 C2782 1.368 . S
C2779 C2760 1.429 . S
C2779 C2773 1.429 . S
C2779 C2780 1.523 . S
C2780 C2761 1.368 . S
C2780 C2774 1.368 . S
C2780 C2779 1.523 . S
C2781 C2765 1.429 . S
C2781 C2777 1.429 . S
C2781 C2782 1.523 . S
C2782 C2766 1.368 . S
C2782 C2778 1.368 . S
C2782 C2781 1.523 . S
H2783 C2758 0.949 . S
H2784 C2760 0.950 . S
H2785 C2761 0.949 . S
H2786 C2763 0.950 . S
H2787 C2765 0.950 . S
C2788 C2789 1.349 . S
C2788 C2790 1.327 . S
C2788 H2813 0.950 . S
C2789 C2788 1.349 . S
C2789 C2805 1.349 . S
C2790 C2788 1.327 . S
C2790 C2809 1.429 . S
C2790 H2814 0.950 . S
C2791 C2808 1.574 . S
C2791 C2810 1.368 . S
C2791 H2815 0.949 . S
H2792 C2796 0.949 . S
C2793 C2794 1.349 . S
C2793 C2795 1.327 . S
C2793 H2816 0.950 . S
C2794 C2793 1.349 . S
C2794 C2806 1.349 . S
C2795 C2793 1.327 . S
C2795 C2811 1.429 . S
C2795 H2817 0.950 . S
C2796 H2792 0.949 . S
C2796 C2804 1.574 . S
C2796 C2812 1.368 . S
H2797 C2805 0.950 . S
H2798 C2803 0.950 . S
H2799 C2804 0.949 . S
H2800 C2806 0.950 . S
H2801 C2807 0.950 . S
H2802 C2808 0.949 . S
C2803 H2798 0.950 . S
C2803 C2805 1.327 . S
C2803 C2809 1.429 . S
C2804 C2796 1.574 . S
C2804 H2799 0.949 . S
C2804 C2810 1.368 . S
C2805 C2789 1.349 . S
C2805 H2797 0.950 . S
C2805 C2803 1.327 . S
C2806 C2794 1.349 . S
C2806 H2800 0.950 . S
C2806 C2807 1.327 . S
C2807 H2801 0.950 . S
C2807 C2806 1.327 . S
C2807 C2811 1.429 . S
C2808 C2791 1.574 . S
C2808 H2802 0.949 . S
C2808 C2812 1.368 . S
C2809 C2790 1.429 . S
C2809 C2803 1.429 . S
C2809 C2810 1.523 . S
C2810 C2791 1.368 . S
C2810 C2804 1.368 . S
C2810 C2809 1.523 . S
C2811 C2795 1.429 . S
C2811 C2807 1.429 . S
C2811 C2812 1.523 . S
C2812 C2796 1.368 . S
C2812 C2808 1.368 . S
C2812 C2811 1.523 . S
H2813 C2788 0.950 . S
H2814 C2790 0.950 . S
H2815 C2791 0.949 . S
H2816 C2793 0.950 . S
H2817 C2795 0.950 . S
C2818 C2819 1.349 . S
C2818 C2820 1.327 . S
C2818 H2843 0.950 . S
C2819 C2818 1.349 . S
C2819 C2835 1.349 . S
C2820 C2818 1.327 . S
C2820 C2839 1.429 . S
C2820 H2844 0.950 . S
C2821 C2838 1.574 1_655 S
C2821 C2840 1.368 . S
C2821 H2845 0.949 . S
H2822 C2826 0.949 . S
C2823 C2824 1.349 . S
C2823 C2825 1.327 . S
C2823 H2846 0.950 . S
C2824 C2823 1.349 . S
C2824 C2836 1.349 . S
C2825 C2823 1.327 . S
C2825 C2841 1.429 . S
C2825 H2847 0.950 . S
C2826 H2822 0.949 . S
C2826 C2834 1.574 . S
C2826 C2842 1.368 1_655 S
H2827 C2835 0.950 . S
H2828 C2833 0.950 . S
H2829 C2834 0.949 . S
H2830 C2836 0.950 . S
H2831 C2837 0.950 . S
H2832 C2838 0.949 . S
C2833 H2828 0.950 . S
C2833 C2835 1.327 . S
C2833 C2839 1.429 . S
C2834 C2826 1.574 . S
C2834 H2829 0.949 . S
C2834 C2840 1.368 . S
C2835 C2819 1.349 . S
C2835 H2827 0.950 . S
C2835 C2833 1.327 . S
C2836 C2824 1.349 . S
C2836 H2830 0.950 . S
C2836 C2837 1.327 . S
C2837 H2831 0.950 . S
C2837 C2836 1.327 . S
C2837 C2841 1.429 . S
C2838 C2821 1.574 1_455 S
C2838 H2832 0.949 . S
C2838 C2842 1.368 . S
C2839 C2820 1.429 . S
C2839 C2833 1.429 . S
C2839 C2840 1.523 . S
C2840 C2821 1.368 . S
C2840 C2834 1.368 . S
C2840 C2839 1.523 . S
C2841 C2825 1.429 . S
C2841 C2837 1.429 . S
C2841 C2842 1.523 . S
C2842 C2826 1.368 1_455 S
C2842 C2838 1.368 . S
C2842 C2841 1.523 . S
H2843 C2818 0.950 . S
H2844 C2820 0.950 . S
H2845 C2821 0.949 . S
H2846 C2823 0.950 . S
H2847 C2825 0.950 . S
C2848 C2849 1.349 . S
C2848 C2850 1.327 . S
C2848 H2873 0.950 . S
C2849 C2848 1.349 . S
C2849 C2865 1.349 . S
C2850 C2848 1.327 . S
C2850 C2869 1.429 . S
C2850 H2874 0.950 . S
C2851 C2868 1.574 . S
C2851 C2870 1.368 . S
C2851 H2875 0.949 . S
H2852 C2856 0.949 . S
C2853 C2854 1.349 . S
C2853 C2855 1.327 . S
C2853 H2876 0.950 . S
C2854 C2853 1.349 . S
C2854 C2866 1.349 . S
C2855 C2853 1.327 . S
C2855 C2871 1.429 . S
C2855 H2877 0.950 . S
C2856 H2852 0.949 . S
C2856 C2864 1.574 . S
C2856 C2872 1.368 . S
H2857 C2865 0.950 . S
H2858 C2863 0.950 . S
H2859 C2864 0.949 . S
H2860 C2866 0.950 . S
H2861 C2867 0.950 . S
H2862 C2868 0.949 . S
C2863 H2858 0.950 . S
C2863 C2865 1.327 . S
C2863 C2869 1.429 . S
C2864 C2856 1.574 . S
C2864 H2859 0.949 . S
C2864 C2870 1.368 . S
C2865 C2849 1.349 . S
C2865 H2857 0.950 . S
C2865 C2863 1.327 . S
C2866 C2854 1.349 . S
C2866 H2860 0.950 . S
C2866 C2867 1.327 . S
C2867 H2861 0.950 . S
C2867 C2866 1.327 . S
C2867 C2871 1.429 . S
C2868 C2851 1.574 . S
C2868 H2862 0.949 . S
C2868 C2872 1.368 . S
C2869 C2850 1.429 . S
C2869 C2863 1.429 . S
C2869 C2870 1.523 . S
C2870 C2851 1.368 . S
C2870 C2864 1.368 . S
C2870 C2869 1.523 . S
C2871 C2855 1.429 . S
C2871 C2867 1.429 . S
C2871 C2872 1.523 . S
C2872 C2856 1.368 . S
C2872 C2868 1.368 . S
C2872 C2871 1.523 . S
H2873 C2848 0.950 . S
H2874 C2850 0.950 . S
H2875 C2851 0.949 . S
H2876 C2853 0.950 . S
H2877 C2855 0.950 . S
C2878 C2879 1.349 . S
C2878 C2880 1.327 . S
C2878 H2903 0.950 . S
C2879 C2878 1.349 . S
C2879 C2895 1.349 . S
C2880 C2878 1.327 . S
C2880 C2899 1.429 . S
C2880 H2904 0.950 . S
C2881 C2898 1.574 1_556 S
C2881 C2900 1.368 . S
C2881 H2905 0.949 . S
H2882 C2886 0.949 . S
C2883 C2884 1.349 . S
C2883 C2885 1.327 . S
C2883 H2906 0.950 . S
C2884 C2883 1.349 . S
C2884 C2896 1.349 . S
C2885 C2883 1.327 . S
C2885 C2901 1.429 . S
C2885 H2907 0.950 . S
C2886 H2882 0.949 . S
C2886 C2894 1.574 . S
C2886 C2902 1.368 1_556 S
H2887 C2895 0.950 . S
H2888 C2893 0.950 . S
H2889 C2894 0.949 . S
H2890 C2896 0.950 . S
H2891 C2897 0.950 . S
H2892 C2898 0.949 . S
C2893 H2888 0.950 . S
C2893 C2895 1.327 . S
C2893 C2899 1.429 . S
C2894 C2886 1.574 . S
C2894 H2889 0.949 . S
C2894 C2900 1.368 . S
C2895 C2879 1.349 . S
C2895 H2887 0.950 . S
C2895 C2893 1.327 . S
C2896 C2884 1.349 . S
C2896 H2890 0.950 . S
C2896 C2897 1.327 . S
C2897 H2891 0.950 . S
C2897 C2896 1.327 . S
C2897 C2901 1.429 . S
C2898 C2881 1.574 1_554 S
C2898 H2892 0.949 . S
C2898 C2902 1.368 . S
C2899 C2880 1.429 . S
C2899 C2893 1.429 . S
C2899 C2900 1.523 . S
C2900 C2881 1.368 . S
C2900 C2894 1.368 . S
C2900 C2899 1.523 . S
C2901 C2885 1.429 . S
C2901 C2897 1.429 . S
C2901 C2902 1.523 . S
C2902 C2886 1.368 1_554 S
C2902 C2898 1.368 . S
C2902 C2901 1.523 . S
H2903 C2878 0.950 . S
H2904 C2880 0.950 . S
H2905 C2881 0.949 . S
H2906 C2883 0.950 . S
H2907 C2885 0.950 . S
C2908 C2909 1.349 . S
C2908 C2910 1.327 . S
C2908 H2933 0.950 . S
C2909 C2908 1.349 . S
C2909 C2925 1.349 . S
C2910 C2908 1.327 . S
C2910 C2929 1.429 . S
C2910 H2934 0.950 . S
C2911 C2928 1.574 . S
C2911 C2930 1.368 . S
C2911 H2935 0.949 . S
H2912 C2916 0.949 . S
C2913 C2914 1.349 . S
C2913 C2915 1.327 . S
C2913 H2936 0.950 . S
C2914 C2913 1.349 . S
C2914 C2926 1.349 . S
C2915 C2913 1.327 . S
C2915 C2931 1.429 . S
C2915 H2937 0.950 . S
C2916 H2912 0.949 . S
C2916 C2924 1.574 . S
C2916 C2932 1.368 . S
H2917 C2925 0.950 . S
H2918 C2923 0.950 . S
H2919 C2924 0.949 . S
H2920 C2926 0.950 . S
H2921 C2927 0.950 . S
H2922 C2928 0.949 . S
C2923 H2918 0.950 . S
C2923 C2925 1.327 . S
C2923 C2929 1.429 . S
C2924 C2916 1.574 . S
C2924 H2919 0.949 . S
C2924 C2930 1.368 . S
C2925 C2909 1.349 . S
C2925 H2917 0.950 . S
C2925 C2923 1.327 . S
C2926 C2914 1.349 . S
C2926 H2920 0.950 . S
C2926 C2927 1.327 . S
C2927 H2921 0.950 . S
C2927 C2926 1.327 . S
C2927 C2931 1.429 . S
C2928 C2911 1.574 . S
C2928 H2922 0.949 . S
C2928 C2932 1.368 . S
C2929 C2910 1.429 . S
C2929 C2923 1.429 . S
C2929 C2930 1.523 . S
C2930 C2911 1.368 . S
C2930 C2924 1.368 . S
C2930 C2929 1.523 . S
C2931 C2915 1.429 . S
C2931 C2927 1.429 . S
C2931 C2932 1.523 . S
C2932 C2916 1.368 . S
C2932 C2928 1.368 . S
C2932 C2931 1.523 . S
H2933 C2908 0.950 . S
H2934 C2910 0.950 . S
H2935 C2911 0.949 . S
H2936 C2913 0.950 . S
H2937 C2915 0.950 . S
C2938 C2939 1.349 . S
C2938 C2940 1.327 . S
C2938 H2963 0.950 . S
C2939 C2938 1.349 . S
C2939 C2955 1.349 . S
C2940 C2938 1.327 . S
C2940 C2959 1.429 . S
C2940 H2964 0.950 . S
C2941 C2958 1.574 . S
C2941 C2960 1.368 . S
C2941 H2965 0.949 . S
H2942 C2946 0.949 . S
C2943 C2944 1.349 . S
C2943 C2945 1.327 . S
C2943 H2966 0.950 . S
C2944 C2943 1.349 . S
C2944 C2956 1.349 . S
C2945 C2943 1.327 . S
C2945 C2961 1.429 . S
C2945 H2967 0.950 . S
C2946 H2942 0.949 . S
C2946 C2954 1.574 . S
C2946 C2962 1.368 . S
H2947 C2955 0.950 . S
H2948 C2953 0.950 . S
H2949 C2954 0.949 . S
H2950 C2956 0.950 . S
H2951 C2957 0.950 . S
H2952 C2958 0.949 . S
C2953 H2948 0.950 . S
C2953 C2955 1.327 . S
C2953 C2959 1.429 . S
C2954 C2946 1.574 . S
C2954 H2949 0.949 . S
C2954 C2960 1.368 . S
C2955 C2939 1.349 . S
C2955 H2947 0.950 . S
C2955 C2953 1.327 . S
C2956 C2944 1.349 . S
C2956 H2950 0.950 . S
C2956 C2957 1.327 . S
C2957 H2951 0.950 . S
C2957 C2956 1.327 . S
C2957 C2961 1.429 . S
C2958 C2941 1.574 . S
C2958 H2952 0.949 . S
C2958 C2962 1.368 . S
C2959 C2940 1.429 . S
C2959 C2953 1.429 . S
C2959 C2960 1.523 . S
C2960 C2941 1.368 . S
C2960 C2954 1.368 . S
C2960 C2959 1.523 . S
C2961 C2945 1.429 . S
C2961 C2957 1.429 . S
C2961 C2962 1.523 . S
C2962 C2946 1.368 . S
C2962 C2958 1.368 . S
C2962 C2961 1.523 . S
H2963 C2938 0.950 . S
H2964 C2940 0.950 . S
H2965 C2941 0.949 . S
H2966 C2943 0.950 . S
H2967 C2945 0.950 . S
C2968 C2969 1.349 . S
C2968 C2970 1.327 . S
C2968 H2993 0.950 . S
C2969 C2968 1.349 . S
C2969 C2985 1.349 . S
C2970 C2968 1.327 . S
C2970 C2989 1.429 . S
C2970 H2994 0.950 . S
C2971 C2988 1.574 . S
C2971 C2990 1.368 . S
C2971 H2995 0.949 . S
H2972 C2976 0.949 . S
C2973 C2974 1.349 . S
C2973 C2975 1.327 . S
C2973 H2996 0.950 . S
C2974 C2973 1.349 . S
C2974 C2986 1.349 . S
C2975 C2973 1.327 . S
C2975 C2991 1.429 . S
C2975 H2997 0.950 . S
C2976 H2972 0.949 . S
C2976 C2984 1.574 . S
C2976 C2992 1.368 . S
H2977 C2985 0.950 . S
H2978 C2983 0.950 . S
H2979 C2984 0.949 . S
H2980 C2986 0.950 . S
H2981 C2987 0.950 . S
H2982 C2988 0.949 . S
C2983 H2978 0.950 . S
C2983 C2985 1.327 . S
C2983 C2989 1.429 . S
C2984 C2976 1.574 . S
C2984 H2979 0.949 . S
C2984 C2990 1.368 . S
C2985 C2969 1.349 . S
C2985 H2977 0.950 . S
C2985 C2983 1.327 . S
C2986 C2974 1.349 . S
C2986 H2980 0.950 . S
C2986 C2987 1.327 . S
C2987 H2981 0.950 . S
C2987 C2986 1.327 . S
C2987 C2991 1.429 . S
C2988 C2971 1.574 . S
C2988 H2982 0.949 . S
C2988 C2992 1.368 . S
C2989 C2970 1.429 . S
C2989 C2983 1.429 . S
C2989 C2990 1.523 . S
C2990 C2971 1.368 . S
C2990 C2984 1.368 . S
C2990 C2989 1.523 . S
C2991 C2975 1.429 . S
C2991 C2987 1.429 . S
C2991 C2992 1.523 . S
C2992 C2976 1.368 . S
C2992 C2988 1.368 . S
C2992 C2991 1.523 . S
H2993 C2968 0.950 . S
H2994 C2970 0.950 . S
H2995 C2971 0.949 . S
H2996 C2973 0.950 . S
H2997 C2975 0.950 . S
C2998 C2999 1.349 . S
C2998 C3000 1.327 . S
C2998 H3023 0.950 . S
C2999 C2998 1.349 . S
C2999 C3015 1.349 . S
C3000 C2998 1.327 . S
C3000 C3019 1.429 . S
C3000 H3024 0.950 . S
C3001 C3018 1.574 . S
C3001 C3020 1.368 . S
C3001 H3025 0.949 . S
H3002 C3006 0.949 1_556 S
C3003 C3004 1.349 . S
C3003 C3005 1.327 . S
C3003 H3026 0.950 . S
C3004 C3003 1.349 . S
C3004 C3016 1.349 . S
C3005 C3003 1.327 . S
C3005 C3021 1.429 . S
C3005 H3027 0.950 . S
C3006 H3002 0.949 1_554 S
C3006 C3014 1.574 . S
C3006 C3022 1.368 1_554 S
H3007 C3015 0.950 . S
H3008 C3013 0.950 . S
H3009 C3014 0.949 . S
H3010 C3016 0.950 . S
H3011 C3017 0.950 . S
H3012 C3018 0.949 1_556 S
C3013 H3008 0.950 . S
C3013 C3015 1.327 . S
C3013 C3019 1.429 . S
C3014 C3006 1.574 . S
C3014 H3009 0.949 . S
C3014 C3020 1.368 . S
C3015 C2999 1.349 . S
C3015 H3007 0.950 . S
C3015 C3013 1.327 . S
C3016 C3004 1.349 . S
C3016 H3010 0.950 . S
C3016 C3017 1.327 . S
C3017 H3011 0.950 . S
C3017 C3016 1.327 . S
C3017 C3021 1.429 . S
C3018 C3001 1.574 . S
C3018 H3012 0.949 1_554 S
C3018 C3022 1.368 1_554 S
C3019 C3000 1.429 . S
C3019 C3013 1.429 . S
C3019 C3020 1.523 . S
C3020 C3001 1.368 . S
C3020 C3014 1.368 . S
C3020 C3019 1.523 . S
C3021 C3005 1.429 . S
C3021 C3017 1.429 . S
C3021 C3022 1.523 . S
C3022 C3006 1.368 1_556 S
C3022 C3018 1.368 1_556 S
C3022 C3021 1.523 . S
H3023 C2998 0.950 . S
H3024 C3000 0.950 . S
H3025 C3001 0.949 . S
H3026 C3003 0.950 . S
H3027 C3005 0.950 . S
C3028 C3029 1.349 . S
C3028 C3030 1.327 . S
C3028 H3053 0.950 . S
C3029 C3028 1.349 . S
C3029 C3045 1.349 . S
C3030 C3028 1.327 . S
C3030 C3049 1.429 . S
C3030 H3054 0.950 . S
C3031 C3048 1.574 . S
C3031 C3050 1.368 . S
C3031 H3055 0.949 . S
H3032 C3036 0.949 . S
C3033 C3034 1.349 . S
C3033 C3035 1.327 . S
C3033 H3056 0.950 . S
C3034 C3033 1.349 . S
C3034 C3046 1.349 . S
C3035 C3033 1.327 . S
C3035 C3051 1.429 . S
C3035 H3057 0.950 . S
C3036 H3032 0.949 . S
C3036 C3044 1.574 . S
C3036 C3052 1.368 . S
H3037 C3045 0.950 . S
H3038 C3043 0.950 . S
H3039 C3044 0.949 . S
H3040 C3046 0.950 . S
H3041 C3047 0.950 . S
H3042 C3048 0.949 . S
C3043 H3038 0.950 . S
C3043 C3045 1.327 . S
C3043 C3049 1.429 . S
C3044 C3036 1.574 . S
C3044 H3039 0.949 . S
C3044 C3050 1.368 . S
C3045 C3029 1.349 . S
C3045 H3037 0.950 . S
C3045 C3043 1.327 . S
C3046 C3034 1.349 . S
C3046 H3040 0.950 . S
C3046 C3047 1.327 . S
C3047 H3041 0.950 . S
C3047 C3046 1.327 . S
C3047 C3051 1.429 . S
C3048 C3031 1.574 . S
C3048 H3042 0.949 . S
C3048 C3052 1.368 . S
C3049 C3030 1.429 . S
C3049 C3043 1.429 . S
C3049 C3050 1.523 . S
C3050 C3031 1.368 . S
C3050 C3044 1.368 . S
C3050 C3049 1.523 . S
C3051 C3035 1.429 . S
C3051 C3047 1.429 . S
C3051 C3052 1.523 . S
C3052 C3036 1.368 . S
C3052 C3048 1.368 . S
C3052 C3051 1.523 . S
H3053 C3028 0.950 . S
H3054 C3030 0.950 . S
H3055 C3031 0.949 . S
H3056 C3033 0.950 . S
H3057 C3035 0.950 . S
C3058 C3059 1.349 . S
C3058 C3060 1.327 . S
C3058 H3083 0.950 . S
C3059 C3058 1.349 . S
C3059 C3075 1.349 . S
C3060 C3058 1.327 . S
C3060 C3079 1.429 . S
C3060 H3084 0.950 . S
C3061 C3078 1.574 . S
C3061 C3080 1.368 . S
C3061 H3085 0.949 . S
H3062 C3066 0.949 . S
C3063 C3064 1.349 . S
C3063 C3065 1.327 . S
C3063 H3086 0.950 . S
C3064 C3063 1.349 . S
C3064 C3076 1.349 . S
C3065 C3063 1.327 . S
C3065 C3081 1.429 . S
C3065 H3087 0.950 . S
C3066 H3062 0.949 . S
C3066 C3074 1.574 . S
C3066 C3082 1.368 . S
H3067 C3075 0.950 . S
H3068 C3073 0.950 . S
H3069 C3074 0.949 . S
H3070 C3076 0.950 . S
H3071 C3077 0.950 . S
H3072 C3078 0.949 . S
C3073 H3068 0.950 . S
C3073 C3075 1.327 . S
C3073 C3079 1.429 . S
C3074 C3066 1.574 . S
C3074 H3069 0.949 . S
C3074 C3080 1.368 . S
C3075 C3059 1.349 . S
C3075 H3067 0.950 . S
C3075 C3073 1.327 . S
C3076 C3064 1.349 . S
C3076 H3070 0.950 . S
C3076 C3077 1.327 . S
C3077 H3071 0.950 . S
C3077 C3076 1.327 . S
C3077 C3081 1.429 . S
C3078 C3061 1.574 . S
C3078 H3072 0.949 . S
C3078 C3082 1.368 . S
C3079 C3060 1.429 . S
C3079 C3073 1.429 . S
C3079 C3080 1.523 . S
C3080 C3061 1.368 . S
C3080 C3074 1.368 . S
C3080 C3079 1.523 . S
C3081 C3065 1.429 . S
C3081 C3077 1.429 . S
C3081 C3082 1.523 . S
C3082 C3066 1.368 . S
C3082 C3078 1.368 . S
C3082 C3081 1.523 . S
H3083 C3058 0.950 . S
H3084 C3060 0.950 . S
H3085 C3061 0.949 . S
H3086 C3063 0.950 . S
H3087 C3065 0.950 . S
C3088 C3089 1.349 . S
C3088 C3090 1.327 . S
C3088 H3113 0.950 . S
C3089 C3088 1.349 . S
C3089 C3105 1.349 . S
C3090 C3088 1.327 . S
C3090 C3109 1.429 . S
C3090 H3114 0.950 . S
C3091 C3108 1.574 . S
C3091 C3110 1.368 . S
C3091 H3115 0.949 . S
H3092 C3096 0.949 . S
C3093 C3094 1.349 . S
C3093 C3095 1.327 . S
C3093 H3116 0.950 . S
C3094 C3093 1.349 . S
C3094 C3106 1.349 . S
C3095 C3093 1.327 . S
C3095 C3111 1.429 . S
C3095 H3117 0.950 . S
C3096 H3092 0.949 . S
C3096 C3104 1.574 . S
C3096 C3112 1.368 . S
H3097 C3105 0.950 . S
H3098 C3103 0.950 . S
H3099 C3104 0.949 . S
H3100 C3106 0.950 . S
H3101 C3107 0.950 . S
H3102 C3108 0.949 . S
C3103 H3098 0.950 . S
C3103 C3105 1.327 . S
C3103 C3109 1.429 . S
C3104 C3096 1.574 . S
C3104 H3099 0.949 . S
C3104 C3110 1.368 . S
C3105 C3089 1.349 . S
C3105 H3097 0.950 . S
C3105 C3103 1.327 . S
C3106 C3094 1.349 . S
C3106 H3100 0.950 . S
C3106 C3107 1.327 . S
C3107 H3101 0.950 . S
C3107 C3106 1.327 . S
C3107 C3111 1.429 . S
C3108 C3091 1.574 . S
C3108 H3102 0.949 . S
C3108 C3112 1.368 . S
C3109 C3090 1.429 . S
C3109 C3103 1.429 . S
C3109 C3110 1.523 . S
C3110 C3091 1.368 . S
C3110 C3104 1.368 . S
C3110 C3109 1.523 . S
C3111 C3095 1.429 . S
C3111 C3107 1.429 . S
C3111 C3112 1.523 . S
C3112 C3096 1.368 . S
C3112 C3108 1.368 . S
C3112 C3111 1.523 . S
H3113 C3088 0.950 . S
H3114 C3090 0.950 . S
H3115 C3091 0.949 . S
H3116 C3093 0.950 . S
H3117 C3095 0.950 . S
C3118 C3119 1.349 . S
C3118 C3120 1.327 . S
C3118 H3143 0.950 . S
C3119 C3118 1.349 . S
C3119 C3135 1.349 . S
C3120 C3118 1.327 . S
C3120 C3139 1.429 . S
C3120 H3144 0.950 . S
C3121 C3138 1.574 . S
C3121 C3140 1.368 . S
C3121 H3145 0.949 . S
H3122 C3126 0.949 . S
C3123 C3124 1.349 . S
C3123 C3125 1.327 . S
C3123 H3146 0.950 . S
C3124 C3123 1.349 . S
C3124 C3136 1.349 . S
C3125 C3123 1.327 . S
C3125 C3141 1.429 . S
C3125 H3147 0.950 . S
C3126 H3122 0.949 . S
C3126 C3134 1.574 . S
C3126 C3142 1.368 . S
H3127 C3135 0.977 . S
H3128 C3133 0.950 . S
H3129 C3134 0.949 . S
H3130 C3136 0.950 . S
H3131 C3137 0.950 . S
H3132 C3138 0.949 . S
C3133 H3128 0.950 . S
C3133 C3135 1.327 . S
C3133 C3139 1.429 . S
C3134 C3126 1.574 . S
C3134 H3129 0.949 . S
C3134 C3140 1.368 . S
C3135 C3119 1.349 . S
C3135 H3127 0.977 . S
C3135 C3133 1.327 . S
C3136 C3124 1.349 . S
C3136 H3130 0.950 . S
C3136 C3137 1.327 . S
C3137 H3131 0.950 . S
C3137 C3136 1.327 . S
C3137 C3141 1.429 . S
C3138 C3121 1.574 . S
C3138 H3132 0.949 . S
C3138 C3142 1.368 . S
C3139 C3120 1.429 . S
C3139 C3133 1.429 . S
C3139 C3140 1.523 . S
C3140 C3121 1.368 . S
C3140 C3134 1.368 . S
C3140 C3139 1.523 . S
C3141 C3125 1.429 . S
C3141 C3137 1.429 . S
C3141 C3142 1.523 . S
C3142 C3126 1.368 . S
C3142 C3138 1.368 . S
C3142 C3141 1.523 . S
H3143 C3118 0.950 . S
H3144 C3120 0.950 . S
H3145 C3121 0.949 . S
H3146 C3123 0.950 . S
H3147 C3125 0.950 . S
C3148 C3149 1.349 . S
C3148 C3150 1.327 . S
C3148 H3173 0.950 . S
C3149 C3148 1.349 . S
C3149 C3165 1.349 . S
C3150 C3148 1.327 . S
C3150 C3169 1.429 . S
C3150 H3174 0.950 . S
C3151 C3168 1.574 . S
C3151 C3170 1.368 . S
C3151 H3175 0.949 . S
H3152 C3156 0.949 . S
C3153 C3154 1.349 . S
C3153 C3155 1.327 . S
C3153 H3176 0.950 . S
C3154 C3153 1.349 . S
C3154 C3166 1.349 . S
C3155 C3153 1.327 . S
C3155 C3171 1.429 . S
C3155 H3177 0.950 . S
C3156 H3152 0.949 . S
C3156 C3164 1.574 . S
C3156 C3172 1.368 . S
H3157 C3165 0.950 . S
H3158 C3163 0.950 . S
H3159 C3164 0.949 . S
H3160 C3166 0.950 . S
H3161 C3167 0.950 . S
H3162 C3168 0.949 . S
C3163 H3158 0.950 . S
C3163 C3165 1.327 . S
C3163 C3169 1.429 . S
C3164 C3156 1.574 . S
C3164 H3159 0.949 . S
C3164 C3170 1.368 . S
C3165 C3149 1.349 . S
C3165 H3157 0.950 . S
C3165 C3163 1.327 . S
C3166 C3154 1.349 . S
C3166 H3160 0.950 . S
C3166 C3167 1.327 . S
C3167 H3161 0.950 . S
C3167 C3166 1.327 . S
C3167 C3171 1.429 . S
C3168 C3151 1.574 . S
C3168 H3162 0.949 . S
C3168 C3172 1.368 . S
C3169 C3150 1.429 . S
C3169 C3163 1.429 . S
C3169 C3170 1.523 . S
C3170 C3151 1.368 . S
C3170 C3164 1.368 . S
C3170 C3169 1.523 . S
C3171 C3155 1.429 . S
C3171 C3167 1.429 . S
C3171 C3172 1.523 . S
C3172 C3156 1.368 . S
C3172 C3168 1.368 . S
C3172 C3171 1.523 . S
H3173 C3148 0.950 . S
H3174 C3150 0.950 . S
H3175 C3151 0.949 . S
H3176 C3153 0.950 . S
H3177 C3155 0.950 . S
C3178 C3179 1.349 . S
C3178 C3180 1.327 . S
C3178 H3203 0.950 . S
C3179 C3178 1.349 . S
C3179 C3195 1.349 . S
C3180 C3178 1.327 . S
C3180 C3199 1.429 . S
C3180 H3204 0.950 . S
C3181 C3198 1.574 . S
C3181 C3200 1.368 . S
C3181 H3205 0.949 . S
H3182 C3186 0.949 . S
C3183 C3184 1.349 . S
C3183 C3185 1.327 . S
C3183 H3206 0.950 . S
C3184 C3183 1.349 . S
C3184 C3196 1.349 . S
C3185 C3183 1.327 . S
C3185 C3201 1.429 . S
C3185 H3207 0.950 . S
C3186 H3182 0.949 . S
C3186 C3194 1.574 . S
C3186 C3202 1.368 . S
H3187 C3195 0.950 . S
H3188 C3193 0.950 . S
H3189 C3194 0.949 . S
H3190 C3196 0.950 . S
H3191 C3197 0.950 . S
H3192 C3198 0.949 . S
C3193 H3188 0.950 . S
C3193 C3195 1.327 . S
C3193 C3199 1.429 . S
C3194 C3186 1.574 . S
C3194 H3189 0.949 . S
C3194 C3200 1.368 . S
C3195 C3179 1.349 . S
C3195 H3187 0.950 . S
C3195 C3193 1.327 . S
C3196 C3184 1.349 . S
C3196 H3190 0.950 . S
C3196 C3197 1.327 . S
C3197 H3191 0.950 . S
C3197 C3196 1.327 . S
C3197 C3201 1.429 . S
C3198 C3181 1.574 . S
C3198 H3192 0.949 . S
C3198 C3202 1.368 . S
C3199 C3180 1.429 . S
C3199 C3193 1.429 . S
C3199 C3200 1.523 . S
C3200 C3181 1.368 . S
C3200 C3194 1.368 . S
C3200 C3199 1.523 . S
C3201 C3185 1.429 . S
C3201 C3197 1.429 . S
C3201 C3202 1.523 . S
C3202 C3186 1.368 . S
C3202 C3198 1.368 . S
C3202 C3201 1.523 . S
H3203 C3178 0.950 . S
H3204 C3180 0.950 . S
H3205 C3181 0.949 . S
H3206 C3183 0.950 . S
H3207 C3185 0.950 . S
C3208 C3209 1.349 . S
C3208 C3210 1.327 . S
C3208 H3233 0.950 . S
C3209 C3208 1.349 . S
C3209 C3225 1.349 . S
C3210 C3208 1.327 . S
C3210 C3229 1.429 . S
C3210 H3234 0.950 . S
C3211 C3228 1.574 . S
C3211 C3230 1.368 . S
C3211 H3235 0.949 . S
H3212 C3216 0.949 . S
C3213 C3214 1.349 . S
C3213 C3215 1.327 . S
C3213 H3236 0.950 . S
C3214 C3213 1.349 . S
C3214 C3226 1.349 . S
C3215 C3213 1.327 . S
C3215 C3231 1.429 . S
C3215 H3237 0.950 . S
C3216 H3212 0.949 . S
C3216 C3224 1.574 . S
C3216 C3232 1.368 . S
H3217 C3225 0.950 . S
H3218 C3223 0.950 . S
H3219 C3224 0.949 . S
H3220 C3226 0.950 . S
H3221 C3227 0.950 . S
H3222 C3228 0.949 . S
C3223 H3218 0.950 . S
C3223 C3225 1.327 . S
C3223 C3229 1.429 . S
C3224 C3216 1.574 . S
C3224 H3219 0.949 . S
C3224 C3230 1.368 . S
C3225 C3209 1.349 . S
C3225 H3217 0.950 . S
C3225 C3223 1.327 . S
C3226 C3214 1.349 . S
C3226 H3220 0.950 . S
C3226 C3227 1.327 . S
C3227 H3221 0.950 . S
C3227 C3226 1.327 . S
C3227 C3231 1.429 . S
C3228 C3211 1.574 . S
C3228 H3222 0.949 . S
C3228 C3232 1.368 . S
C3229 C3210 1.429 . S
C3229 C3223 1.429 . S
C3229 C3230 1.523 . S
C3230 C3211 1.368 . S
C3230 C3224 1.368 . S
C3230 C3229 1.523 . S
C3231 C3215 1.429 . S
C3231 C3227 1.429 . S
C3231 C3232 1.523 . S
C3232 C3216 1.368 . S
C3232 C3228 1.368 . S
C3232 C3231 1.523 . S
H3233 C3208 0.950 . S
H3234 C3210 0.950 . S
H3235 C3211 0.949 . S
H3236 C3213 0.950 . S
H3237 C3215 0.950 . S
C3238 C3239 1.349 . S
C3238 C3240 1.327 . S
C3238 H3263 0.950 . S
C3239 C3238 1.349 . S
C3239 C3255 1.349 . S
C3240 C3238 1.327 . S
C3240 C3259 1.429 . S
C3240 H3264 0.950 . S
C3241 C3258 1.574 . S
C3241 C3260 1.368 . S
C3241 H3265 0.949 . S
H3242 C3246 0.949 . S
C3243 C3244 1.349 . S
C3243 C3245 1.327 . S
C3243 H3266 0.950 . S
C3244 C3243 1.349 . S
C3244 C3256 1.349 . S
C3245 C3243 1.327 . S
C3245 C3261 1.429 . S
C3245 H3267 0.950 . S
C3246 H3242 0.949 . S
C3246 C3254 1.574 . S
C3246 C3262 1.368 . S
H3247 C3255 0.950 . S
H3248 C3253 0.950 . S
H3249 C3254 0.949 . S
H3250 C3256 0.950 . S
H3251 C3257 0.950 . S
H3252 C3258 0.949 . S
C3253 H3248 0.950 . S
C3253 C3255 1.327 . S
C3253 C3259 1.429 . S
C3254 C3246 1.574 . S
C3254 H3249 0.949 . S
C3254 C3260 1.368 . S
C3255 C3239 1.349 . S
C3255 H3247 0.950 . S
C3255 C3253 1.327 . S
C3256 C3244 1.349 . S
C3256 H3250 0.950 . S
C3256 C3257 1.327 . S
C3257 H3251 0.950 . S
C3257 C3256 1.327 . S
C3257 C3261 1.429 . S
C3258 C3241 1.574 . S
C3258 H3252 0.949 . S
C3258 C3262 1.368 . S
C3259 C3240 1.429 . S
C3259 C3253 1.429 . S
C3259 C3260 1.523 . S
C3260 C3241 1.368 . S
C3260 C3254 1.368 . S
C3260 C3259 1.523 . S
C3261 C3245 1.429 . S
C3261 C3257 1.429 . S
C3261 C3262 1.523 . S
C3262 C3246 1.368 . S
C3262 C3258 1.368 . S
C3262 C3261 1.523 . S
H3263 C3238 0.950 . S
H3264 C3240 0.950 . S
H3265 C3241 0.949 . S
H3266 C3243 0.950 . S
H3267 C3245 0.950 . S
C3268 C3269 1.349 . S
C3268 C3270 1.327 . S
C3268 H3293 0.950 . S
C3269 C3268 1.349 . S
C3269 C3285 1.349 . S
C3270 C3268 1.327 . S
C3270 C3289 1.429 . S
C3270 H3294 0.950 . S
C3271 C3288 1.574 . S
C3271 C3290 1.368 . S
C3271 H3295 0.949 . S
H3272 C3276 0.949 . S
C3273 C3274 1.349 . S
C3273 C3275 1.327 . S
C3273 H3296 0.950 . S
C3274 C3273 1.349 . S
C3274 C3286 1.349 . S
C3275 C3273 1.327 . S
C3275 C3291 1.429 . S
C3275 H3297 0.950 . S
C3276 H3272 0.949 . S
C3276 C3284 1.574 . S
C3276 C3292 1.368 . S
H3277 C3285 0.950 . S
H3278 C3283 0.950 . S
H3279 C3284 0.949 . S
H3280 C3286 0.950 . S
H3281 C3287 0.950 . S
H3282 C3288 0.949 . S
C3283 H3278 0.950 . S
C3283 C3285 1.327 . S
C3283 C3289 1.429 . S
C3284 C3276 1.574 . S
C3284 H3279 0.949 . S
C3284 C3290 1.368 . S
C3285 C3269 1.349 . S
C3285 H3277 0.950 . S
C3285 C3283 1.327 . S
C3286 C3274 1.349 . S
C3286 H3280 0.950 . S
C3286 C3287 1.327 . S
C3287 H3281 0.950 . S
C3287 C3286 1.327 . S
C3287 C3291 1.429 . S
C3288 C3271 1.574 . S
C3288 H3282 0.949 . S
C3288 C3292 1.368 . S
C3289 C3270 1.429 . S
C3289 C3283 1.429 . S
C3289 C3290 1.523 . S
C3290 C3271 1.368 . S
C3290 C3284 1.368 . S
C3290 C3289 1.523 . S
C3291 C3275 1.429 . S
C3291 C3287 1.429 . S
C3291 C3292 1.523 . S
C3292 C3276 1.368 . S
C3292 C3288 1.368 . S
C3292 C3291 1.523 . S
H3293 C3268 0.950 . S
H3294 C3270 0.950 . S
H3295 C3271 0.949 . S
H3296 C3273 0.950 . S
H3297 C3275 0.950 . S
C3298 C3299 1.349 . S
C3298 C3300 1.327 . S
C3298 H3323 0.950 . S
C3299 C3298 1.349 . S
C3299 C3315 1.349 . S
C3300 C3298 1.327 . S
C3300 C3319 1.429 . S
C3300 H3324 0.950 . S
C3301 C3318 1.574 . S
C3301 C3320 1.368 . S
C3301 H3325 0.949 . S
H3302 C3306 0.949 . S
C3303 C3304 1.349 . S
C3303 C3305 1.327 . S
C3303 H3326 0.950 . S
C3304 C3303 1.349 . S
C3304 C3316 1.349 . S
C3305 C3303 1.327 . S
C3305 C3321 1.429 . S
C3305 H3327 0.950 . S
C3306 H3302 0.949 . S
C3306 C3314 1.574 . S
C3306 C3322 1.368 . S
H3307 C3315 0.950 . S
H3308 C3313 0.950 . S
H3309 C3314 0.949 . S
H3310 C3316 0.950 . S
H3311 C3317 0.950 . S
H3312 C3318 0.949 . S
C3313 H3308 0.950 . S
C3313 C3315 1.327 . S
C3313 C3319 1.429 . S
C3314 C3306 1.574 . S
C3314 H3309 0.949 . S
C3314 C3320 1.368 . S
C3315 C3299 1.349 . S
C3315 H3307 0.950 . S
C3315 C3313 1.327 . S
C3316 C3304 1.349 . S
C3316 H3310 0.950 . S
C3316 C3317 1.327 . S
C3317 H3311 0.950 . S
C3317 C3316 1.327 . S
C3317 C3321 1.429 . S
C3318 C3301 1.574 . S
C3318 H3312 0.949 . S
C3318 C3322 1.368 . S
C3319 C3300 1.429 . S
C3319 C3313 1.429 . S
C3319 C3320 1.523 . S
C3320 C3301 1.368 . S
C3320 C3314 1.368 . S
C3320 C3319 1.523 . S
C3321 C3305 1.429 . S
C3321 C3317 1.429 . S
C3321 C3322 1.523 . S
C3322 C3306 1.368 . S
C3322 C3318 1.368 . S
C3322 C3321 1.523 . S
H3323 C3298 0.950 . S
H3324 C3300 0.950 . S
H3325 C3301 0.949 . S
H3326 C3303 0.950 . S
H3327 C3305 0.950 . S
C3328 C3329 1.349 . S
C3328 C3330 1.327 . S
C3328 H3353 0.950 . S
C3329 C3328 1.349 . S
C3329 C3345 1.349 . S
C3330 C3328 1.327 . S
C3330 C3349 1.429 . S
C3330 H3354 0.950 . S
C3331 C3348 1.574 . S
C3331 C3350 1.368 . S
C3331 H3355 0.949 . S
H3332 C3336 0.949 . S
C3333 C3334 1.349 . S
C3333 C3335 1.327 . S
C3333 H3356 0.950 . S
C3334 C3333 1.349 . S
C3334 C3346 1.349 . S
C3335 C3333 1.327 . S
C3335 C3351 1.429 . S
C3335 H3357 0.950 . S
C3336 H3332 0.949 . S
C3336 C3344 1.574 . S
C3336 C3352 1.368 . S
H3337 C3345 0.950 . S
H3338 C3343 0.950 . S
H3339 C3344 0.949 . S
H3340 C3346 0.950 . S
H3341 C3347 0.950 . S
H3342 C3348 0.949 . S
C3343 H3338 0.950 . S
C3343 C3345 1.327 . S
C3343 C3349 1.429 . S
C3344 C3336 1.574 . S
C3344 H3339 0.949 . S
C3344 C3350 1.368 . S
C3345 C3329 1.349 . S
C3345 H3337 0.950 . S
C3345 C3343 1.327 . S
C3346 C3334 1.349 . S
C3346 H3340 0.950 . S
C3346 C3347 1.327 . S
C3347 H3341 0.950 . S
C3347 C3346 1.327 . S
C3347 C3351 1.429 . S
C3348 C3331 1.574 . S
C3348 H3342 0.949 . S
C3348 C3352 1.368 . S
C3349 C3330 1.429 . S
C3349 C3343 1.429 . S
C3349 C3350 1.523 . S
C3350 C3331 1.368 . S
C3350 C3344 1.368 . S
C3350 C3349 1.523 . S
C3351 C3335 1.429 . S
C3351 C3347 1.429 . S
C3351 C3352 1.523 . S
C3352 C3336 1.368 . S
C3352 C3348 1.368 . S
C3352 C3351 1.523 . S
H3353 C3328 0.950 . S
H3354 C3330 0.950 . S
H3355 C3331 0.949 . S
H3356 C3333 0.950 . S
H3357 C3335 0.950 . S
C3358 C3359 1.349 . S
C3358 C3360 1.327 . S
C3358 H3383 0.950 . S
C3359 C3358 1.349 . S
C3359 C3375 1.349 . S
C3360 C3358 1.327 . S
C3360 C3379 1.429 . S
C3360 H3384 0.950 . S
C3361 C3378 1.574 . S
C3361 C3380 1.368 . S
C3361 H3385 0.949 . S
H3362 C3366 0.949 . S
C3363 C3364 1.349 . S
C3363 C3365 1.327 . S
C3363 H3386 0.950 . S
C3364 C3363 1.349 . S
C3364 C3376 1.349 . S
C3365 C3363 1.327 . S
C3365 C3381 1.429 . S
C3365 H3387 0.950 . S
C3366 H3362 0.949 . S
C3366 C3374 1.574 . S
C3366 C3382 1.368 . S
H3367 C3375 0.950 . S
H3368 C3373 0.950 . S
H3369 C3374 0.949 . S
H3370 C3376 0.950 . S
H3371 C3377 0.950 . S
H3372 C3378 0.949 . S
C3373 H3368 0.950 . S
C3373 C3375 1.327 . S
C3373 C3379 1.429 . S
C3374 C3366 1.574 . S
C3374 H3369 0.949 . S
C3374 C3380 1.368 . S
C3375 C3359 1.349 . S
C3375 H3367 0.950 . S
C3375 C3373 1.327 . S
C3376 C3364 1.349 . S
C3376 H3370 0.950 . S
C3376 C3377 1.327 . S
C3377 H3371 0.950 . S
C3377 C3376 1.327 . S
C3377 C3381 1.429 . S
C3378 C3361 1.574 . S
C3378 H3372 0.949 . S
C3378 C3382 1.368 . S
C3379 C3360 1.429 . S
C3379 C3373 1.429 . S
C3379 C3380 1.523 . S
C3380 C3361 1.368 . S
C3380 C3374 1.368 . S
C3380 C3379 1.523 . S
C3381 C3365 1.429 . S
C3381 C3377 1.429 . S
C3381 C3382 1.523 . S
C3382 C3366 1.368 . S
C3382 C3378 1.368 . S
C3382 C3381 1.523 . S
H3383 C3358 0.950 . S
H3384 C3360 0.950 . S
H3385 C3361 0.949 . S
H3386 C3363 0.950 . S
H3387 C3365 0.950 . S
C3388 C3389 1.349 . S
C3388 C3390 1.327 . S
C3388 H3413 0.950 . S
C3389 C3388 1.349 . S
C3389 C3405 1.349 . S
C3390 C3388 1.327 . S
C3390 C3409 1.429 . S
C3390 H3414 0.950 . S
C3391 C3408 1.574 . S
C3391 C3410 1.368 . S
C3391 H3415 0.949 . S
H3392 C3396 0.949 . S
C3393 C3394 1.349 . S
C3393 C3395 1.327 . S
C3393 H3416 0.950 . S
C3394 C3393 1.349 . S
C3394 C3406 1.349 . S
C3395 C3393 1.327 . S
C3395 C3411 1.429 . S
C3395 H3417 0.950 . S
C3396 H3392 0.949 . S
C3396 C3404 1.574 . S
C3396 C3412 1.368 . S
H3397 C3405 0.950 . S
H3398 C3403 0.950 . S
H3399 C3404 0.949 . S
H3400 C3406 0.950 . S
H3401 C3407 0.950 . S
H3402 C3408 0.949 . S
C3403 H3398 0.950 . S
C3403 C3405 1.327 . S
C3403 C3409 1.429 . S
C3404 C3396 1.574 . S
C3404 H3399 0.949 . S
C3404 C3410 1.368 . S
C3405 C3389 1.349 . S
C3405 H3397 0.950 . S
C3405 C3403 1.327 . S
C3406 C3394 1.349 . S
C3406 H3400 0.950 . S
C3406 C3407 1.327 . S
C3407 H3401 0.950 . S
C3407 C3406 1.327 . S
C3407 C3411 1.429 . S
C3408 C3391 1.574 . S
C3408 H3402 0.949 . S
C3408 C3412 1.368 . S
C3409 C3390 1.429 . S
C3409 C3403 1.429 . S
C3409 C3410 1.523 . S
C3410 C3391 1.368 . S
C3410 C3404 1.368 . S
C3410 C3409 1.523 . S
C3411 C3395 1.429 . S
C3411 C3407 1.429 . S
C3411 C3412 1.523 . S
C3412 C3396 1.368 . S
C3412 C3408 1.368 . S
C3412 C3411 1.523 . S
H3413 C3388 0.950 . S
H3414 C3390 0.950 . S
H3415 C3391 0.949 . S
H3416 C3393 0.950 . S
H3417 C3395 0.950 . S
C3418 C3419 1.349 . S
C3418 C3420 1.327 . S
C3418 H3443 0.950 . S
C3419 C3418 1.349 . S
C3419 C3435 1.349 . S
C3420 C3418 1.327 . S
C3420 C3439 1.429 . S
C3420 H3444 0.950 . S
C3421 C3438 1.574 . S
C3421 C3440 1.368 . S
C3421 H3445 0.949 . S
H3422 C3426 0.949 . S
C3423 C3424 1.349 . S
C3423 C3425 1.327 . S
C3423 H3446 0.950 . S
C3424 C3423 1.349 . S
C3424 C3436 1.349 . S
C3425 C3423 1.327 . S
C3425 C3441 1.429 . S
C3425 H3447 0.950 . S
C3426 H3422 0.949 . S
C3426 C3434 1.574 . S
C3426 C3442 1.368 . S
H3427 C3435 0.950 . S
H3428 C3433 0.950 . S
H3429 C3434 0.949 . S
H3430 C3436 0.950 . S
H3431 C3437 0.950 . S
H3432 C3438 0.949 . S
C3433 H3428 0.950 . S
C3433 C3435 1.327 . S
C3433 C3439 1.429 . S
C3434 C3426 1.574 . S
C3434 H3429 0.949 . S
C3434 C3440 1.368 . S
C3435 C3419 1.349 . S
C3435 H3427 0.950 . S
C3435 C3433 1.327 . S
C3436 C3424 1.349 . S
C3436 H3430 0.950 . S
C3436 C3437 1.327 . S
C3437 H3431 0.950 . S
C3437 C3436 1.327 . S
C3437 C3441 1.429 . S
C3438 C3421 1.574 . S
C3438 H3432 0.949 . S
C3438 C3442 1.368 . S
C3439 C3420 1.429 . S
C3439 C3433 1.429 . S
C3439 C3440 1.523 . S
C3440 C3421 1.368 . S
C3440 C3434 1.368 . S
C3440 C3439 1.523 . S
C3441 C3425 1.429 . S
C3441 C3437 1.429 . S
C3441 C3442 1.523 . S
C3442 C3426 1.368 . S
C3442 C3438 1.368 . S
C3442 C3441 1.523 . S
H3443 C3418 0.950 . S
H3444 C3420 0.950 . S
H3445 C3421 0.949 . S
H3446 C3423 0.950 . S
H3447 C3425 0.950 . S
C3448 C3449 1.349 . S
C3448 C3450 1.327 . S
C3448 H3473 0.950 . S
C3449 C3448 1.349 . S
C3449 C3465 1.349 . S
C3450 C3448 1.327 . S
C3450 C3469 1.429 . S
C3450 H3474 0.950 . S
C3451 C3468 1.574 . S
C3451 C3470 1.368 . S
C3451 H3475 0.949 . S
H3452 C3456 0.949 . S
C3453 C3454 1.349 . S
C3453 C3455 1.327 . S
C3453 H3476 0.950 . S
C3454 C3453 1.349 . S
C3454 C3466 1.349 . S
C3455 C3453 1.327 . S
C3455 C3471 1.429 . S
C3455 H3477 0.950 . S
C3456 H3452 0.949 . S
C3456 C3464 1.574 . S
C3456 C3472 1.368 . S
H3457 C3465 0.950 . S
H3458 C3463 0.950 . S
H3459 C3464 0.949 . S
H3460 C3466 0.950 . S
H3461 C3467 0.950 . S
H3462 C3468 0.949 . S
C3463 H3458 0.950 . S
C3463 C3465 1.327 . S
C3463 C3469 1.429 . S
C3464 C3456 1.574 . S
C3464 H3459 0.949 . S
C3464 C3470 1.368 . S
C3465 C3449 1.349 . S
C3465 H3457 0.950 . S
C3465 C3463 1.327 . S
C3466 C3454 1.349 . S
C3466 H3460 0.950 . S
C3466 C3467 1.327 . S
C3467 H3461 0.950 . S
C3467 C3466 1.327 . S
C3467 C3471 1.429 . S
C3468 C3451 1.574 . S
C3468 H3462 0.949 . S
C3468 C3472 1.368 . S
C3469 C3450 1.429 . S
C3469 C3463 1.429 . S
C3469 C3470 1.523 . S
C3470 C3451 1.368 . S
C3470 C3464 1.368 . S
C3470 C3469 1.523 . S
C3471 C3455 1.429 . S
C3471 C3467 1.429 . S
C3471 C3472 1.523 . S
C3472 C3456 1.368 . S
C3472 C3468 1.368 . S
C3472 C3471 1.523 . S
H3473 C3448 0.950 . S
H3474 C3450 0.950 . S
H3475 C3451 0.949 . S
H3476 C3453 0.950 . S
H3477 C3455 0.950 . S
C3478 C3479 1.349 . S
C3478 C3480 1.327 . S
C3478 H3503 0.950 . S
C3479 C3478 1.349 . S
C3479 C3495 1.349 . S
C3480 C3478 1.327 . S
C3480 C3499 1.429 . S
C3480 H3504 0.950 . S
C3481 C3498 1.574 . S
C3481 C3500 1.368 . S
C3481 H3505 0.949 . S
H3482 C3486 0.949 . S
C3483 C3484 1.349 . S
C3483 C3485 1.327 . S
C3483 H3506 0.950 . S
C3484 C3483 1.349 . S
C3484 C3496 1.349 . S
C3485 C3483 1.327 . S
C3485 C3501 1.429 . S
C3485 H3507 0.950 . S
C3486 H3482 0.949 . S
C3486 C3494 1.574 . S
C3486 C3502 1.368 . S
H3487 C3495 0.950 . S
H3488 C3493 0.950 . S
H3489 C3494 0.949 . S
H3490 C3496 0.950 . S
H3491 C3497 0.950 . S
H3492 C3498 0.949 . S
C3493 H3488 0.950 . S
C3493 C3495 1.327 . S
C3493 C3499 1.429 . S
C3494 C3486 1.574 . S
C3494 H3489 0.949 . S
C3494 C3500 1.368 . S
C3495 C3479 1.349 . S
C3495 H3487 0.950 . S
C3495 C3493 1.327 . S
C3496 C3484 1.349 . S
C3496 H3490 0.950 . S
C3496 C3497 1.327 . S
C3497 H3491 0.950 . S
C3497 C3496 1.327 . S
C3497 C3501 1.429 . S
C3498 C3481 1.574 . S
C3498 H3492 0.949 . S
C3498 C3502 1.368 . S
C3499 C3480 1.429 . S
C3499 C3493 1.429 . S
C3499 C3500 1.523 . S
C3500 C3481 1.368 . S
C3500 C3494 1.368 . S
C3500 C3499 1.523 . S
C3501 C3485 1.429 . S
C3501 C3497 1.429 . S
C3501 C3502 1.523 . S
C3502 C3486 1.368 . S
C3502 C3498 1.368 . S
C3502 C3501 1.523 . S
H3503 C3478 0.950 . S
H3504 C3480 0.950 . S
H3505 C3481 0.949 . S
H3506 C3483 0.950 . S
H3507 C3485 0.950 . S
C3508 C3509 1.349 . S
C3508 C3510 1.327 . S
C3508 H3533 0.950 . S
C3509 C3508 1.349 . S
C3509 C3525 1.349 . S
C3510 C3508 1.327 . S
C3510 C3529 1.429 . S
C3510 H3534 0.950 . S
C3511 C3528 1.574 . S
C3511 C3530 1.368 . S
C3511 H3535 0.949 . S
H3512 C3516 0.949 . S
C3513 C3514 1.349 . S
C3513 C3515 1.327 . S
C3513 H3536 0.950 . S
C3514 C3513 1.349 . S
C3514 C3526 1.349 . S
C3515 C3513 1.327 . S
C3515 C3531 1.429 . S
C3515 H3537 0.950 . S
C3516 H3512 0.949 . S
C3516 C3524 1.574 . S
C3516 C3532 1.368 . S
H3517 C3525 0.950 . S
H3518 C3523 0.950 . S
H3519 C3524 0.949 . S
H3520 C3526 0.950 . S
H3521 C3527 0.950 . S
H3522 C3528 0.949 . S
C3523 H3518 0.950 . S
C3523 C3525 1.327 . S
C3523 C3529 1.429 . S
C3524 C3516 1.574 . S
C3524 H3519 0.949 . S
C3524 C3530 1.368 . S
C3525 C3509 1.349 . S
C3525 H3517 0.950 . S
C3525 C3523 1.327 . S
C3526 C3514 1.349 . S
C3526 H3520 0.950 . S
C3526 C3527 1.327 . S
C3527 H3521 0.950 . S
C3527 C3526 1.327 . S
C3527 C3531 1.429 . S
C3528 C3511 1.574 . S
C3528 H3522 0.949 . S
C3528 C3532 1.368 . S
C3529 C3510 1.429 . S
C3529 C3523 1.429 . S
C3529 C3530 1.523 . S
C3530 C3511 1.368 . S
C3530 C3524 1.368 . S
C3530 C3529 1.523 . S
C3531 C3515 1.429 . S
C3531 C3527 1.429 . S
C3531 C3532 1.523 . S
C3532 C3516 1.368 . S
C3532 C3528 1.368 . S
C3532 C3531 1.523 . S
H3533 C3508 0.950 . S
H3534 C3510 0.950 . S
H3535 C3511 0.949 . S
H3536 C3513 0.950 . S
H3537 C3515 0.950 . S
C3538 C3539 1.349 . S
C3538 C3540 1.327 . S
C3538 H3563 0.950 . S
C3539 C3538 1.349 . S
C3539 C3555 1.349 . S
C3540 C3538 1.327 . S
C3540 C3559 1.429 . S
C3540 H3564 0.950 . S
C3541 C3558 1.574 . S
C3541 C3560 1.368 . S
C3541 H3565 0.949 . S
H3542 C3546 0.949 1_655 S
C3543 C3544 1.349 . S
C3543 C3545 1.327 . S
C3543 H3566 0.950 . S
C3544 C3543 1.349 . S
C3544 C3556 1.349 . S
C3545 C3543 1.327 . S
C3545 C3561 1.429 . S
C3545 H3567 0.950 . S
C3546 H3542 0.949 1_455 S
C3546 C3554 1.574 . S
C3546 C3562 1.368 1_455 S
H3547 C3555 0.950 . S
H3548 C3553 0.950 . S
H3549 C3554 0.949 . S
H3550 C3556 0.950 . S
H3551 C3557 0.950 . S
H3552 C3558 0.949 1_655 S
C3553 H3548 0.950 . S
C3553 C3555 1.327 . S
C3553 C3559 1.429 . S
C3554 C3546 1.574 . S
C3554 H3549 0.949 . S
C3554 C3560 1.368 . S
C3555 C3539 1.349 . S
C3555 H3547 0.950 . S
C3555 C3553 1.327 . S
C3556 C3544 1.349 . S
C3556 H3550 0.950 . S
C3556 C3557 1.327 . S
C3557 H3551 0.950 . S
C3557 C3556 1.327 . S
C3557 C3561 1.429 . S
C3558 C3541 1.574 . S
C3558 H3552 0.949 1_455 S
C3558 C3562 1.368 1_455 S
C3559 C3540 1.429 . S
C3559 C3553 1.429 . S
C3559 C3560 1.523 . S
C3560 C3541 1.368 . S
C3560 C3554 1.368 . S
C3560 C3559 1.523 . S
C3561 C3545 1.429 . S
C3561 C3557 1.429 . S
C3561 C3562 1.523 . S
C3562 C3546 1.368 1_655 S
C3562 C3558 1.368 1_655 S
C3562 C3561 1.523 . S
H3563 C3538 0.950 . S
H3564 C3540 0.950 . S
H3565 C3541 0.949 . S
H3566 C3543 0.950 . S
H3567 C3545 0.950 . S
C694 C354 0.900 . S
C689 C11 0.899 . S
C719 C14 1.041 . S
C724 C366 1.052 . S
C754 C401 1.114 . S
C749 C37 1.121 . S
C784 C410 1.021 . S
C779 C47 1.024 . S
C814 C365 1.045 . S
C809 C61 1.060 . S
C839 C79 1.085 . S
C844 C390 1.091 . S
C874 C409 1.064 . S
C869 C84 1.066 . S
C899 C109 0.959 . S
C904 C351 0.951 . S
C929 C123 0.940 . S
C934 C344 0.944 . S
C964 C368 1.027 . S
C959 C131 1.032 . S
C994 C387 1.137 . S
C989 C140 1.140 . S
C1024 C412 1.035 . S
C1019 C163 1.028 . S
C1054 C373 1.032 . S
C1049 C121 1.037 . S
C1084 C398 1.110 . S
C1079 C126 1.098 . S
C1109 C145 1.031 . S
C1114 C417 1.014 . S
C1144 C357 0.935 . S
C1139 C165 0.942 . S
C1169 C168 0.971 . S
C1174 C346 0.978 . S
C1199 C193 1.015 . S
C1204 C445 1.008 . S
C1234 C461 1.053 . S
C1229 C205 1.059 . S
C1264 C475 1.062 . S
C1259 C215 1.079 . S
C1289 C224 0.992 . S
C1294 C343 0.991 . S
C1319 C247 1.085 . S
C1324 C395 1.075 . S
C1354 C478 1.003 . S
C1349 C207 1.002 . S
C1384 C442 1.100 . S
C1379 C257 1.105 . S
C1414 C498 1.050 . S
C1409 C23 1.041 . S
C1444 C522 0.976 . S
C1439 C0 0.969 . S
C1469 C53 0.927 . S
C1474 C555 0.923 . S
C1499 C33 1.108 . S
C1504 C563 1.097 . S
C1529 C103 1.102 . S
C1534 C533 1.090 . S
C1559 C95 0.910 . S
C1564 C544 0.911 . S
C1594 C564 0.996 . S
C1589 C70 0.989 . S
C1619 C65 1.093 . S
C1624 C497 1.094 . S
C1649 C271 1.072 . S
C1654 C500 1.069 . S
C1684 C530 1.035 . S
C1679 C219 1.025 . S
C1714 C541 0.941 . S
C1709 C235 0.943 . S
C1744 C571 1.013 . S
C1739 C182 1.014 . S
C1774 C519 1.011 . S
C1769 C266 1.012 . S
C1804 C552 0.906 . S
C1799 C221 0.904 . S
C1834 C566 1.038 . S
C1829 C233 1.031 . S
C1859 C187 1.135 . S
C1864 C505 1.117 . S
C1894 C508 0.985 . S
C1889 C289 0.978 . S
C1919 C154 1.054 . S
C1924 C596 1.064 . S
C1954 C608 0.997 . S
C1949 C299 0.998 . S
C1979 C137 1.025 . S
C1984 C629 1.021 . S
C2014 C511 1.056 . S
C2009 C149 1.060 . S
C2044 C549 0.983 . S
C2039 C313 0.993 . S
C2074 C632 1.008 . S
C2069 C294 0.999 . S
C2099 C333 1.000 . S
C2104 C599 0.996 . S
C2129 C39 0.922 . S
C2134 C654 0.923 . S
C2159 C42 1.042 . S
C2164 C432 1.053 . S
C2194 C456 1.067 . S
C2189 C9 1.060 . S
C2219 C19 1.036 . S
C2224 C486 1.031 . S
C2249 C89 1.041 . S
C2254 C431 1.025 . S
C2279 C107 1.115 . S
C2284 C467 1.110 . S
C2314 C483 1.087 . S
C2309 C56 1.093 . S
C2344 C665 0.929 . S
C2339 C81 0.936 . S
C2374 C662 0.922 . S
C2369 C305 0.919 . S
C2404 C434 1.018 . S
C2399 C285 1.023 . S
C2434 C464 1.132 . S
C2429 C322 1.119 . S
C2459 C317 1.059 . S
C2464 C476 1.066 . S
C2494 C439 1.028 . S
C2489 C303 1.032 . S
C2519 C280 1.094 . S
C2524 C453 1.091 . S
C2554 C489 1.016 . S
C2549 C327 1.033 . S
C2579 C319 0.964 . S
C2584 C651 0.956 . S
C2614 C652 0.986 . S
C2609 C210 0.978 . S
C2639 C249 1.002 . S
C2644 C379 0.993 . S
C2674 C388 1.028 . S
C2669 C275 1.022 . S
C2699 C173 1.069 . S
C2704 C423 1.054 . S
C2734 C659 0.982 . S
C2729 C252 0.983 . S
C2764 C454 1.064 . S
C2759 C191 1.058 . S
C2794 C420 0.993 . S
C2789 C277 0.990 . S
C2824 C376 1.080 . S
C2819 C229 1.085 . S
C2849 C51 1.083 . S
C2854 C673 1.081 . S
C2879 C28 1.004 . S
C2884 C585 1.003 . S
C2909 C25 0.929 . S
C2914 C621 0.926 . S
C2944 C640 1.049 . S
C2939 C5 1.050 . S
C2974 C586 1.056 . S
C2969 C75 1.057 . S
C2999 C67 0.915 . S
C3004 C610 0.914 . S
C3034 C637 1.024 . S
C3029 C98 1.026 . S
C3059 C93 1.070 . S
C3064 C674 1.078 . S
C3094 C681 1.113 . S
C3089 C201 1.124 . S
C3119 C177 1.038 . S
C3124 C593 1.040 . S
C3149 C263 0.937 . S
C3154 C607 0.933 . S
C3184 C630 0.986 . S
C3179 C238 0.979 . S
C3214 C588 0.990 . S
C3209 C196 0.985 . S
C3239 C179 0.902 . S
C3244 C618 0.903 . S
C3274 C643 1.055 . S
C3269 C261 1.055 . S
C3304 C676 1.115 . S
C3299 C243 1.118 . S
C3334 C687 1.008 . S
C3329 C135 1.011 . S
C3364 C527 1.106 . S
C3359 C308 1.104 . S
C3389 C117 0.995 . S
C3394 C542 0.991 . S
C3419 C291 0.999 . S
C3424 C574 1.004 . S
C3454 C684 1.035 . S
C3449 C331 1.030 . S
C3484 C615 0.974 . S
C3479 C159 0.984 . S
C3514 C577 1.054 . S
C3509 C112 1.054 . S
C3544 C520 0.980 . S
C3539 C151 0.977 . S
