# Generated by pormake.
# Topology nia, (6,6)-cn, num edge types: 1
# Building blocks:
#     Node 0, Type 0, BuildingBlock: KUMBOL_clean_sbu_0, # of connection points: 6
#     Node 1, Type 0, BuildingBlock: KUMBOL_clean_sbu_0, # of connection points: 6
#     Node 2, Type 1, BuildingBlock: MIDCAF_clean_sbu_0, # of connection points: 6
#     Node 3, Type 1, BuildingBlock: MIDCAF_clean_sbu_0, # of connection points: 6
#     Edge 4, Type (0, 1), BuildingBlock: FUNLAD_clean_linker_1, # of connection points: 2
#     Edge 5, Type (0, 1), BuildingBlock: FUNLAD_clean_linker_1, # of connection points: 2
#     Edge 6, Type (0, 1), BuildingBlock: FUNLAD_clean_linker_1, # of connection points: 2
#     Edge 7, Type (0, 1), BuildingBlock: FUNLAD_clean_linker_1, # of connection points: 2
#     Edge 8, Type (0, 1), BuildingBlock: FUNLAD_clean_linker_1, # of connection points: 2
#     Edge 9, Type (0, 1), BuildingBlock: FUNLAD_clean_linker_1, # of connection points: 2
#     Edge 10, Type (0, 1), BuildingBlock: FUNLAD_clean_linker_1, # of connection points: 2
#     Edge 11, Type (0, 1), BuildingBlock: FUNLAD_clean_linker_1, # of connection points: 2
#     Edge 12, Type (0, 1), BuildingBlock: FUNLAD_clean_linker_1, # of connection points: 2
#     Edge 13, Type (0, 1), BuildingBlock: FUNLAD_clean_linker_1, # of connection points: 2
#     Edge 14, Type (0, 1), BuildingBlock: FUNLAD_clean_linker_1, # of connection points: 2
#     Edge 15, Type (0, 1), BuildingBlock: FUNLAD_clean_linker_1, # of connection points: 2
# Relax obj value: 0.168
# Max RMSD: 0.284
# Mean RMSD: 0.204
data_MOF--net-nia--node1-KUMBOL_clean_sbu_0--node2-MIDCAF_clean_sbu_0--edge1-FUNLAD_clean_linker_1
_symmetry_space_group_name_H-M    P1
_symmetry_Int_Tables_number       1
_symmetry_cell_setting            triclinic
loop_
_symmetry_equiv_pos_as_xyz
'x, y, z'
_cell_length_a     29.268107
_cell_length_b     29.461203
_cell_length_c     34.056196
_cell_angle_alpha  89.569012
_cell_angle_beta   90.577061
_cell_angle_gamma 139.08417
loop_
_atom_site_label
_atom_site_type_symbol
_atom_site_fract_x
_atom_site_fract_y
_atom_site_fract_z
_atom_type_partial_charge
Gd0 Gd 0.97292 0.01013 0.95954 0.0
Gd1 Gd 0.0264 0.9789 0.04459 0.0
C2 C 0.88371 0.83564 0.14669 0.0
C3 C 0.94287 0.91576 0.20168 0.0
C4 C 0.98998 0.95818 0.13575 0.0
C5 C 0.93469 0.89152 0.12103 0.0
C6 C 0.99543 0.97071 0.17639 0.0
C7 C 0.8872 0.84836 0.18688 0.0
C8 C 0.8322 0.76832 0.13146 0.0
C9 C 0.83239 0.75796 0.09158 0.0
N10 N 0.93228 0.88085 0.08194 0.0
C11 C 0.88234 0.81505 0.06702 0.0
H12 H 0.88103 0.8058 0.03627 0.0
C13 C 0.10096 0.0741 0.12484 0.0
N14 N 0.04058 0.01006 0.11072 0.0
C15 C 0.1085 0.08915 0.16484 0.0
C16 C 0.05494 0.03753 0.19064 0.0
H17 H 0.14268 0.11394 0.10486 0.0
H18 H 0.84812 0.80616 0.20694 0.0
H19 H 0.11743 0.18339 0.96265 0.0
H20 H 0.79262 0.72399 0.15028 0.0
H21 H 0.79313 0.70602 0.07957 0.0
H22 H 0.946 0.92446 0.2329 0.0
H23 H 0.86022 0.86543 0.90487 0.0
H24 H 0.20217 0.25384 0.84704 0.0
H25 H 0.20595 0.27874 0.91692 0.0
H26 H 0.04525 0.04514 0.77094 0.0
H27 H 0.15559 0.14048 0.1757 0.0
H28 H 0.06108 0.04926 0.22163 0.0
H29 H 0.14205 0.16639 0.79286 0.0
H30 H 0.84678 0.83141 0.83571 0.0
N31 N 0.06408 0.10433 0.91944 0.0
C32 C 0.16293 0.21154 0.867 0.0
C33 C 0.16524 0.2258 0.90641 0.0
C34 C 0.10949 0.14296 0.85369 0.0
C35 C 0.05983 0.08971 0.88093 0.0
C36 C 0.1149 0.17136 0.93232 0.0
N37 N 0.9574 0.97144 0.89525 0.0
C38 C 0.00534 0.02131 0.86853 0.0
C39 C 0.89177 0.88488 0.8446 0.0
C40 C 0.94193 0.93513 0.81702 0.0
C41 C 0.89959 0.90417 0.88367 0.0
C42 C -0.00097 0.00442 0.82867 0.0
H43 H 0.93542 0.92012 0.7867 0.0
O44 O 0.87519 0.96925 0.94343 0.0
O45 O 0.94454 0.96242 0.01868 0.0
O46 O 0.97437 0.89889 0.99509 0.0
O47 O 0.99574 0.95708 0.93829 0.0
O48 O 0.8675 0.90294 0.97649 0.0
O49 O 0.96786 0.07984 0.95248 0.0
O50 O 0.12586 0.02031 0.05436 0.0
O51 O 0.05341 0.02793 0.98711 0.0
O52 O 0.02641 0.0924 1.00698 0.0
O53 O 0.02357 0.04907 0.06619 0.0
O54 O 0.13357 0.08452 0.02564 0.0
O55 O 0.03146 0.90924 0.05395 0.0
C56 C 0.88103 0.90587 0.01312 0.0
C57 C 0.04905 0.05716 0.80164 0.0
C58 C 0.10413 0.12623 0.81411 0.0
C59 C 0.90388 0.03075 0.93907 0.0
C60 C 0.89148 0.04473 0.90095 0.0
C61 C 0.87957 0.01048 0.86673 0.0
C62 C 0.89312 0.09366 0.89811 0.0
C63 C 0.88509 0.10922 0.86119 0.0
C64 C 0.87451 0.02784 0.83017 0.0
C65 C 0.87809 0.07756 0.8273 0.0
C66 C 0.97833 0.90589 0.95622 0.0
C67 C 0.11777 0.08293 0.98973 0.0
C68 C 0.09792 0.96003 0.06247 0.0
C69 C 0.11986 0.95484 0.10011 0.0
C70 C 0.15687 0.00786 0.12836 0.0
C71 C 0.10482 0.89752 0.10822 0.0
C72 C 0.12485 0.89309 0.14453 0.0
C73 C 0.17374 0.00175 0.16483 0.0
C74 C 0.1573 0.94439 0.17305 0.0
C75 C 0.03319 0.09428 0.04576 0.0
H76 H 0.87369 0.96989 0.86799 0.0
H77 H 0.9006 0.11934 0.92435 0.0
H78 H 0.86661 0.0018 0.80404 0.0
H79 H 0.87225 0.08909 0.79866 0.0
H80 H 0.17381 0.05477 0.12228 0.0
H81 H 0.07916 0.85759 0.08624 0.0
H82 H 0.20104 0.0424 0.18648 0.0
H83 H 0.17233 0.94132 0.20124 0.0
Gd84 Gd 0.02515 0.97915 0.46875 0.0
Gd85 Gd 0.00549 0.04592 0.55047 0.0
C86 C 0.19332 0.25343 0.61261 0.0
C87 C 0.20968 0.21727 0.66983 0.0
C88 C 0.11623 0.13158 0.6228 0.0
C89 C 0.13746 0.18369 0.59993 0.0
C90 C 0.15125 0.14785 0.65859 0.0
C91 C 0.2304 0.27 0.64701 0.0
C92 C 0.20803 0.30416 0.59155 0.0
C93 C 0.16411 0.28428 0.56077 0.0
N94 N 0.09874 0.16572 0.56775 0.0
C95 C 0.10805 0.21441 0.55026 0.0
H96 H 0.07236 0.19954 0.52768 0.0
C97 C 0.02663 0.01306 0.63884 0.0
N98 N 0.05742 0.06483 0.61211 0.0
C99 C 0.06047 0.02632 0.67382 0.0
C100 C 0.12413 0.09392 0.68328 0.0
H101 H 0.97483 0.96128 0.63461 0.0
H102 H 0.27393 0.32325 0.6568 0.0
H103 H 0.86663 0.82044 0.49327 0.0
H104 H 0.25068 0.35816 0.60019 0.0
H105 H 0.17247 0.32251 0.54564 0.0
H106 H 0.23746 0.23054 0.69691 0.0
H107 H 0.13353 0.0831 0.39478 0.0
H108 H 0.73177 0.73234 0.39349 0.0
H109 H 0.7512 0.72402 0.46272 0.0
H110 H 0.88328 0.90063 0.29248 0.0
H111 H 0.03624 0.98454 0.69409 0.0
H112 H 0.14949 0.10426 0.71087 0.0
H113 H 0.78109 0.79947 0.33035 0.0
H114 H 0.12742 0.09376 0.32323 0.0
N115 N 0.91304 0.88391 0.4421 0.0
C116 C 0.78283 0.77506 0.40676 0.0
C117 C 0.79365 0.77009 0.44581 0.0
C118 C 0.83843 0.83442 0.38504 0.0
C119 C 0.90382 0.88873 0.40375 0.0
C120 C 0.85953 0.82504 0.46304 0.0
N121 N 0.02345 -0.0037 0.40132 0.0
C122 C 0.96069 0.94696 0.38278 0.0
C123 C 0.08004 0.0527 0.33971 0.0
C124 C 0.01525 0.00564 0.32077 0.0
C125 C 0.08333 0.0467 0.38011 0.0
C126 C 0.95469 0.95084 0.34206 0.0
H127 H 0.01283 0.01054 0.2895 0.0
O128 O 0.11042 -0.00039 0.45015 0.0
O129 O 0.06638 0.03326 0.52731 0.0
O130 O 0.07215 0.12473 0.50043 0.0
O131 O 0.04723 0.06497 0.44354 0.0
O132 O 0.13772 0.07922 0.48202 0.0
O133 O 0.00889 0.89451 0.46099 0.0
O134 O 0.90552 0.97157 0.58049 0.0
O135 O 0.95386 0.97352 0.49948 0.0
O136 O 0.9842 0.90904 0.52036 0.0
O137 O 0.95944 0.94362 0.56883 0.0
O138 O 0.9443 0.03703 0.50374 0.0
O139 O 0.96545 0.07938 0.57411 0.0
C140 C 0.13043 0.08273 0.51876 0.0
C141 C 0.88923 0.89805 0.32358 0.0
C142 C 0.83106 0.84028 0.34512 0.0
C143 C 0.07162 0.93436 0.44793 0.0
C144 C 0.07732 0.91227 0.41139 0.0
C145 C 0.03569 0.89177 0.37863 0.0
C146 C 0.12486 0.91171 0.40903 0.0
C147 C 0.13174 0.89222 0.37394 0.0
C148 C 0.04301 0.87363 0.34362 0.0
C149 C 0.09063 0.87378 0.34115 0.0
C150 C 0.07187 0.11952 0.46173 0.0
C151 C 0.926 0.98777 0.48437 0.0
C152 C 0.90903 0.01765 0.58692 0.0
C153 C 0.8538 0.00115 0.60766 0.0
C154 C 0.78696 0.93184 0.6108 0.0
C155 C 0.866 0.05417 0.62261 0.0
C156 C 0.81123 0.03791 0.63936 0.0
C157 C 0.73285 0.91559 0.62789 0.0
C158 C 0.74465 0.96816 0.64189 0.0
C159 C 0.95918 0.90167 0.55484 0.0
H160 H 0.99672 0.88864 0.38017 0.0
H161 H 0.15598 0.92579 0.43456 0.0
H162 H 0.01054 0.85796 0.31854 0.0
H163 H 0.09272 0.85652 0.31403 0.0
H164 H 0.77616 0.89018 0.59944 0.0
H165 H 0.91738 0.1079 0.62045 0.0
H166 H 0.68142 0.86204 0.63007 0.0
H167 H 0.70186 0.95418 0.65518 0.0
Zn168 Zn 0.37201 0.67635 0.17333 0.0
Zn169 Zn 0.37782 0.67459 0.33284 0.0
Zn170 Zn 0.3771 0.6766 0.25189 0.0
C171 C 0.51414 0.75877 0.30587 0.0
C172 C 0.28278 0.53786 0.30603 0.0
O173 O 0.34011 0.71795 0.23196 0.0
O174 O 0.34514 0.72064 0.167 0.0
C175 C 0.50963 0.75727 0.19632 0.0
O176 O 0.48586 0.7449 0.27198 0.0
O177 O 0.47819 0.73327 0.33679 0.0
O178 O 0.3074 0.57274 0.33737 0.0
O179 O 0.30308 0.56817 0.27237 0.0
O180 O 0.47192 0.73572 0.16625 0.0
O181 O 0.48332 0.7408 0.23088 0.0
O182 O 0.30722 0.56941 0.23129 0.0
O183 O 0.30096 0.57378 0.1668 0.0
C184 C 0.28348 0.53928 0.19753 0.0
O185 O 0.34424 0.718 0.27379 0.0
O186 O 0.34823 0.71714 0.33894 0.0
C187 C 0.33223 0.7319 0.19826 0.0
C188 C 0.33647 0.73056 0.3077 0.0
Zn189 Zn 0.65083 0.33372 0.83522 0.0
Zn190 Zn 0.65847 0.34509 0.6893 0.0
Zn191 Zn 0.65255 0.33893 0.76416 0.0
C192 C 0.74589 0.4798 0.71318 0.0
C193 C 0.52053 0.26138 0.70735 0.0
O194 O 0.67704 0.2858 0.78503 0.0
O195 O 0.63911 0.26076 0.8461 0.0
C196 C 0.76322 0.47041 0.82124 0.0
O197 O 0.72676 0.44967 0.74687 0.0
O198 O 0.72401 0.445 0.68209 0.0
O199 O 0.55923 0.28316 0.67824 0.0
O200 O 0.54606 0.278 0.74245 0.0
O201 O 0.74293 0.42906 0.84826 0.0
O202 O 0.73223 0.44687 0.78752 0.0
O203 O 0.547 0.28284 0.78321 0.0
O204 O 0.56805 0.3076 0.84645 0.0
C205 C 0.52711 0.28066 0.8175 0.0
O206 O 0.68287 0.29197 0.74252 0.0
O207 O 0.68958 0.3069 0.6781 0.0
C208 C 0.66313 0.25591 0.81832 0.0
C209 C 0.69544 0.28589 0.7078 0.0
H210 H 0.07537 0.79404 0.16909 0.0
C211 C 0.11942 0.83979 0.15237 0.0
H212 H 0.22163 0.90538 0.13327 0.0
H213 H 0.3414 0.85619 0.24742 0.0
H214 H 0.39204 0.96294 0.27334 0.0
H215 H 0.34911 0.00575 0.25145 0.0
H216 H 0.25606 0.94205 0.20315 0.0
C217 C 0.17606 0.85624 0.14722 0.0
C218 C 0.18666 0.81993 0.16791 0.0
C219 C 0.24 0.8568 0.19686 0.0
C220 C 0.2624 0.83044 0.21094 0.0
C221 C 0.31923 0.87118 0.23763 0.0
C222 C 0.3496 0.93336 0.25228 0.0
C223 C 0.32562 0.95755 0.23987 0.0
C224 C 0.2722 0.92048 0.21208 0.0
H225 H 0.3402 0.80655 0.17324 0.0
C226 C 0.31191 0.76479 0.1945 0.0
H227 H 0.22077 0.69185 0.22848 0.0
H228 H 0.07928 0.73346 0.11483 0.0
H229 H 0.01727 0.61854 0.09608 0.0
H230 H 0.04942 0.56834 0.12468 0.0
H231 H 0.14461 0.6332 0.17167 0.0
C232 C 0.25378 0.73817 0.21041 0.0
C233 C 0.2279 0.7646 0.1982 0.0
C234 C 0.16979 0.7246 0.17229 0.0
C235 C 0.15014 0.75293 0.1564 0.0
C236 C 0.09528 0.71385 0.12845 0.0
C237 C 0.05937 0.64788 0.11734 0.0
C238 C 0.07751 0.61962 0.13343 0.0
C239 C 0.13222 0.6574 0.16043 0.0
H240 H 0.24132 0.16068 0.53405 0.0
C241 C 0.18917 0.11896 0.54615 0.0
H242 H 0.1282 0.04902 0.59217 0.0
H243 H 0.32973 0.06865 0.67996 0.0
H244 H 0.22602 0.9451 0.66869 0.0
H245 H 0.1287 0.90152 0.62826 0.0
H246 H 0.13304 0.97978 0.59984 0.0
C247 C 0.18074 0.09515 0.58234 0.0
C248 C 0.24027 0.12263 0.60717 0.0
C249 C 0.23615 0.07511 0.62388 0.0
C250 C 0.29325 0.10008 0.64607 0.0
C251 C 0.28817 0.05203 0.66228 0.0
C252 C 0.22901 0.98115 0.65613 0.0
C253 C 0.17412 0.95661 0.63351 0.0
C254 C 0.17724 0.00257 0.61755 0.0
H255 H 0.4182 0.21484 0.72345 0.0
C256 C 0.44762 0.22128 0.7 0.0
H257 H 0.44972 0.20416 0.6402 0.0
H258 H 0.26428 0.22969 0.58522 0.0
H259 H 0.36933 0.35177 0.5955 0.0
H260 H 0.46935 0.39381 0.63153 0.0
H261 H 0.46392 0.3131 0.65749 0.0
C262 C 0.42045 0.19837 0.66346 0.0
C263 C 0.3549 0.17209 0.65083 0.0
C264 C 0.35824 0.21947 0.63586 0.0
C265 C 0.30091 0.19503 0.61432 0.0
C266 C 0.30638 0.24441 0.6004 0.0
C267 C 0.36655 0.31514 0.60646 0.0
C268 C 0.42272 0.33878 0.62681 0.0
C269 C 0.41888 0.29179 0.64146 0.0
H270 H 0.07063 0.19295 0.04841 0.0
C271 C 0.05857 0.15427 0.06633 0.0
H272 H 0.05899 0.12679 0.12326 0.0
H273 H 0.29413 0.47418 0.11032 0.0
H274 H 0.34712 0.4713 0.05784 0.0
H275 H 0.29746 0.36082 0.0368 0.0
H276 H 0.19385 0.25273 0.06758 0.0
C277 C 0.07447 0.16662 0.10493 0.0
C278 C 0.1138 0.23445 0.12344 0.0
C279 C 0.17674 0.29779 0.10645 0.0
C280 C 0.20715 0.36174 0.11981 0.0
C281 C 0.26858 0.42398 0.10136 0.0
C282 C 0.29997 0.4232 0.07137 0.0
C283 C 0.27193 0.36103 0.05946 0.0
C284 C 0.21154 0.29907 0.07693 0.0
H285 H 0.24347 0.44252 0.21757 0.0
C286 C 0.24076 0.4656 0.1941 0.0
H287 H 0.2033 0.45358 0.13752 0.0
H288 H 0.00657 0.12481 0.17054 0.0
H289 H 0.96477 0.12977 0.22929 0.0
H290 H 0.01774 0.24077 0.25269 0.0
H291 H 0.11295 0.3475 0.21733 0.0
C292 C 0.20435 0.42936 0.16116 0.0
C293 C 0.17712 0.36287 0.15163 0.0
C294 C 0.1202 0.30065 0.17219 0.0
C295 C 0.08889 0.23632 0.15827 0.0
C296 C 0.03236 0.17505 0.17946 0.0
C297 C 0.00767 0.1771 0.21333 0.0
C298 C 0.0375 0.23959 0.2265 0.0
C299 C 0.0925 0.30064 0.20602 0.0
H300 H 0.86657 0.13108 0.67517 0.0
C301 C 0.82332 0.09323 0.65495 0.0
H302 H 0.7375 0.05701 0.62496 0.0
H303 H 0.64366 0.13604 0.73944 0.0
H304 H 0.54749 0.01109 0.74168 0.0
H305 H 0.55752 0.94275 0.71228 0.0
H306 H 0.66292 -0.00071 0.67925 0.0
C307 C 0.77996 0.09507 0.64558 0.0
C308 C 0.77926 0.13881 0.66674 0.0
C309 C 0.71785 0.10526 0.687 0.0
C310 C 0.7121 0.14474 0.70401 0.0
C311 C 0.65017 0.10914 0.72438 0.0
C312 C 0.59469 0.03713 0.72648 0.0
C313 C 0.60032 -0.0013 0.70995 0.0
C314 C 0.6612 0.03203 0.6908 0.0
H315 H 0.66913 0.20271 0.67865 0.0
C316 C 0.70466 0.24416 0.70005 0.0
H317 H 0.79881 0.30609 0.73071 0.0
H318 H 0.90377 0.22013 0.62905 0.0
H319 H 4e-05 0.34539 0.62624 0.0
H320 H 0.99177 0.41421 0.6574 0.0
H321 H 0.88714 0.35832 0.69117 0.0
C322 C 0.75836 0.25947 0.71346 0.0
C323 C 0.76766 0.21822 0.70049 0.0
C324 C 0.83063 0.25203 0.68201 0.0
C325 C 0.83605 0.21229 0.66462 0.0
C326 C 0.89764 0.24743 0.64406 0.0
C327 C 0.95321 0.31948 0.64188 0.0
C328 C 0.94852 0.35822 0.65938 0.0
C329 C 0.88796 0.32525 0.6789 0.0
H330 H 0.77246 0.83397 0.03103 0.0
C331 C 0.82576 0.87356 0.04208 0.0
H332 H 0.89262 0.94058 0.08852 0.0
H333 H 0.71064 0.94829 0.17384 0.0
H334 H 0.82185 0.07012 0.16475 0.0
H335 H 0.9157 0.10474 0.12675 0.0
H336 H 0.90079 0.01908 0.09908 0.0
C337 C 0.83895 0.89813 0.07872 0.0
C338 C 0.78345 0.87663 0.10412 0.0
C339 C 0.79413 0.92846 0.12061 0.0
C340 C 0.7392 0.90888 0.14132 0.0
C341 C 0.75054 0.96098 0.15727 0.0
C342 C 0.81401 0.03086 0.15239 0.0
C343 C 0.86702 0.05034 0.13121 0.0
C344 C 0.85762 0.00017 0.11549 0.0
H345 H 0.60936 0.80031 0.21561 0.0
C346 C 0.58221 0.79598 0.19108 0.0
H347 H 0.58401 0.81417 0.13072 0.0
H348 H 0.74754 0.76276 0.08342 0.0
H349 H 0.63763 0.64256 0.09433 0.0
H350 H 0.54177 0.60988 0.12809 0.0
H351 H 0.55675 0.69787 0.15165 0.0
C352 C 0.61112 0.81832 0.15519 0.0
C353 C 0.67364 0.8382 0.1449 0.0
C354 C 0.66443 0.78643 0.13129 0.0
C355 C 0.71935 0.80542 0.11118 0.0
C356 C 0.70808 0.75197 0.09839 0.0
C357 C 0.64485 0.6824 0.10451 0.0
C358 C 0.59098 0.66403 0.12349 0.0
C359 C 0.60029 0.71517 0.13674 0.0
H360 H 0.94344 0.81799 0.5702 0.0
C361 C 0.93209 0.84396 0.57937 0.0
H362 H 0.87763 0.84331 0.62036 0.0
H363 H 0.6871 0.52324 0.64954 0.0
H364 H 0.60798 0.50956 0.60975 0.0
H365 H 0.64661 0.61132 0.58083 0.0
H366 H 0.76453 0.72747 0.59177 0.0
C367 C 0.89364 0.82155 0.61166 0.0
C368 C 0.8673 0.76197 0.63415 0.0
C369 C 0.79809 0.69487 0.62803 0.0
C370 C 0.77622 0.63629 0.64428 0.0
C371 C 0.70685 0.56953 0.63734 0.0
C372 C 0.6608 0.56096 0.61471 0.0
C373 C 0.68253 0.61826 0.59847 0.0
C374 C 0.75033 0.68458 0.60493 0.0
H375 H 0.79277 0.57877 0.73586 0.0
C376 C 0.78605 0.55276 0.71001 0.0
H377 H 0.79665 0.55575 0.64861 0.0
H378 H -0.00101 0.88449 0.65711 0.0
H379 H 0.07679 0.89885 0.69926 0.0
H380 H 0.04069 0.79711 0.72532 0.0
H381 H 0.92523 0.68029 0.71121 0.0
C382 C 0.80534 0.58299 0.67447 0.0
C383 C 0.82377 0.645 0.66647 0.0
C384 C 0.8912 0.71254 0.67524 0.0
C385 C 0.91282 0.77122 0.65922 0.0
C386 C 0.98041 0.83829 0.66826 0.0
C387 C 0.02548 0.84717 0.69233 0.0
C388 C 0.00498 0.78983 0.7072 0.0
C389 C 0.9387 0.72311 0.6988 0.0
H390 H 0.18287 0.87043 0.4007 0.0
C391 C 0.17621 0.88426 0.37333 0.0
H392 H 0.19945 0.90352 0.31267 0.0
H393 H 0.39483 0.87942 0.38348 0.0
H394 H 0.46294 0.98886 0.4158 0.0
H395 H 0.42614 0.04144 0.41312 0.0
H396 H 0.32096 0.98486 0.3779 0.0
C397 C 0.20399 0.88836 0.34022 0.0
C398 C 0.23109 0.86135 0.33889 0.0
C399 C 0.29221 0.8946 0.35988 0.0
C400 C 0.3135 0.86429 0.36126 0.0
C401 C 0.37571 0.89957 0.38174 0.0
C402 C 0.41549 0.96261 0.40034 0.0
C403 C 0.39474 0.99219 0.39887 0.0
C404 C 0.33399 0.95893 0.37882 0.0
H405 H 0.30715 0.77357 0.28196 0.0
C406 C 0.31328 0.76058 0.30946 0.0
H407 H 0.30403 0.7584 0.371 0.0
H408 H 0.11756 0.78994 0.2908 0.0
H409 H 0.05076 0.68211 0.25708 0.0
H410 H 0.08082 0.62368 0.26452 0.0
H411 H 0.17898 0.67384 0.30472 0.0
C412 C 0.29706 0.76998 0.34275 0.0
C413 C 0.27343 0.80058 0.34177 0.0
C414 C 0.21259 0.7678 0.32032 0.0
C415 C 0.19303 0.79962 0.31771 0.0
C416 C 0.13423 0.76762 0.29444 0.0
C417 C 0.09517 0.70549 0.27496 0.0
C418 C 0.11221 0.67273 0.27905 0.0
C419 C 0.16953 0.70276 0.30182 0.0
H420 H 0.15479 0.05874 0.94945 0.0
C421 C 0.16363 0.10011 0.95879 0.0
H422 H 0.2282 0.20554 0.95618 0.0
H423 H 0.5077 0.32629 0.90508 0.0
H424 H 0.53919 0.39067 0.96406 0.0
H425 H 0.44928 0.36033 1.00398 0.0
H426 H 0.328 0.26631 0.9852 0.0
C427 C 0.21852 0.16444 0.94506 0.0
C428 C 0.27232 0.18302 0.9196 0.0
C429 C 0.34347 0.23826 0.9315 0.0
C430 C 0.39512 0.25412 0.90939 0.0
C431 C 0.46595 0.31046 0.92147 0.0
C432 C 0.48495 0.34828 0.95514 0.0
C433 C 0.43437 0.33131 0.97754 0.0
C434 C 0.36456 0.27711 0.9661 0.0
H435 H 0.43572 0.2555 0.80247 0.0
C436 C 0.45805 0.24932 0.82427 0.0
H437 H 0.45241 0.21611 0.88073 0.0
H438 H 0.14331 0.08041 0.88418 0.0
H439 H 0.11235 0.01383 0.82675 0.0
H440 H 0.20137 0.03674 0.79148 0.0
H441 H 0.32186 0.12697 0.81356 0.0
C442 C 0.42852 0.22161 0.85975 0.0
C443 C 0.37574 0.21333 0.87631 0.0
C444 C 0.30547 0.15992 0.8634 0.0
C445 C 0.25379 0.14542 0.8846 0.0
C446 C 0.1844 0.09283 0.87015 0.0
C447 C 0.16595 0.05425 0.83697 0.0
C448 C 0.21603 0.06715 0.81712 0.0
C449 C 0.28506 0.11922 0.83009 0.0
H450 H 0.13194 0.22715 0.45199 0.0
C451 C 0.09663 0.17675 0.43798 0.0
H452 H 0.03596 0.11655 0.3878 0.0
H453 H 0.15451 0.42249 0.39142 0.0
H454 H 0.08221 0.37738 0.44919 0.0
H455 H 0.01181 0.26071 0.47458 0.0
H456 H 0.01392 0.18884 0.44252 0.0
C457 C 0.07196 0.16711 0.40154 0.0
C458 C 0.09383 0.22533 0.37968 0.0
C459 C 0.08994 0.26541 0.39784 0.0
C460 C 0.12922 0.33182 0.38267 0.0
C461 C 0.12606 0.3718 0.40199 0.0
C462 C 0.0844 0.34632 0.43496 0.0
C463 C 0.04483 0.28068 0.44929 0.0
C464 C 0.04713 0.24034 0.43095 0.0
H465 H 0.19414 0.42968 0.2843 0.0
C466 C 0.23027 0.46186 0.30857 0.0
H467 H 0.26292 0.46627 0.36514 0.0
H468 H 0.08537 0.14799 0.32894 0.0
H469 H 0.14399 0.18526 0.26624 0.0
H470 H 0.21878 0.30342 0.24152 0.0
H471 H 0.23451 0.384 0.27897 0.0
C472 C 0.22679 0.43303 0.34099 0.0
C473 C 0.17097 0.35724 0.34888 0.0
C474 C 0.16523 0.31222 0.32704 0.0
C475 C 0.12464 0.24509 0.34207 0.0
C476 C 0.11767 0.20009 0.31948 0.0
C477 C 0.15063 0.2208 0.28335 0.0
C478 C 0.19253 0.28722 0.26939 0.0
C479 C 0.20068 0.33293 0.2911 0.0
H480 H 0.89536 0.18148 0.82866 0.0
C481 C 0.87919 0.15456 0.85655 0.0
H482 H 0.8178 0.11863 0.90688 0.0
H483 H 0.85597 0.35686 0.83334 0.0
H484 H 0.97364 0.44088 0.85887 0.0
H485 H 0.0189 0.40388 0.88822 0.0
H486 H 0.946 0.28193 0.89225 0.0
C487 C 0.84035 0.15061 0.88065 0.0
C488 C 0.81181 0.1732 0.86615 0.0
C489 C 0.85497 0.2444 0.86347 0.0
C490 C 0.82882 0.26549 0.84612 0.0
C491 C 0.87299 0.33728 0.84507 0.0
C492 C 0.94081 0.38635 0.85995 0.0
C493 C 0.96629 0.36554 0.8765 0.0
C494 C 0.92404 0.29546 0.87845 0.0
H495 H 0.65014 0.1831 0.8517 0.0
C496 C 0.67835 0.21945 0.8273 0.0
H497 H 0.76625 0.28113 0.79223 0.0
H498 H 0.71521 0.03225 0.86792 0.0
H499 H 0.5966 0.94662 0.84344 0.0
H500 H 0.55046 0.98203 0.81308 0.0
H501 H 0.62273 0.10274 0.80629 0.0
C502 C 0.73327 0.23865 0.81281 0.0
C503 C 0.75929 0.21504 0.83122 0.0
C504 C 0.71553 0.1433 0.83481 0.0
C505 C 0.74194 0.12262 0.85241 0.0
C506 C 0.69782 0.05095 0.85507 0.0
C507 C 0.62952 0.00108 0.8411 0.0
C508 C 0.60359 0.02104 0.82402 0.0
C509 C 0.64588 0.09102 0.82058 0.0
H510 H 0.83279 0.89227 0.45389 0.0
C511 C 0.87096 0.94787 0.45418 0.0
H512 H 0.89727 0.03206 0.43118 0.0
H513 H 0.70967 0.86505 0.27777 0.0
H514 H 0.8255 0.9599 0.25005 0.0
H515 H 0.9293 0.04328 0.29306 0.0
H516 H 0.91792 0.03154 0.36393 0.0
C517 C 0.86009 0.97629 0.43117 0.0
C518 C 0.79698 0.93182 0.40533 0.0
C519 C 0.80417 0.94025 0.36395 0.0
C520 C 0.74405 0.8931 0.33914 0.0
C521 C 0.75324 0.90069 0.29793 0.0
C522 C 0.81948 0.95466 0.28165 0.0
C523 C 0.87793 0.00162 0.30585 0.0
C524 C 0.8707 0.99438 0.34651 0.0
H525 H 0.62451 0.86198 0.30389 0.0
C526 C 0.58968 0.80767 0.31019 0.0
H527 H 0.57548 0.73375 0.3373 0.0
H528 H 0.76343 0.91035 0.48355 0.0
H529 H 0.6482 0.81814 0.51145 0.0
H530 H 0.54415 0.73444 0.46881 0.0
H531 H 0.55484 0.74302 0.39832 0.0
C532 C 0.61227 0.78856 0.33106 0.0
C533 C 0.67665 0.83885 0.35589 0.0
C534 C 0.66939 0.83225 0.39742 0.0
C535 C 0.72941 0.87938 0.42208 0.0
C536 C 0.72014 0.8739 0.46336 0.0
C537 C 0.65405 0.82168 0.47986 0.0
C538 C 0.59554 0.7747 0.45588 0.0
C539 C 0.60267 0.78007 0.41523 0.0
H540 H 0.9603 0.86157 0.89879 0.0
C541 C 0.95834 0.85336 0.93022 0.0
H542 H 0.92856 0.78399 0.97389 0.0
H543 H 0.69831 0.51868 0.86791 0.0
H544 H 0.63066 0.49837 0.92131 0.0
H545 H 0.68567 0.58792 0.97163 0.0
H546 H 0.80879 0.69818 0.96893 0.0
C547 C 0.9335 0.79468 0.94266 0.0
C548 C 0.90206 0.7391 0.91369 0.0
C549 C 0.82965 0.67506 0.91551 0.0
C550 C 0.79764 0.62385 0.8861 0.0
C551 C 0.7254 0.5599 0.88908 0.0
C552 C 0.68579 0.5474 0.91968 0.0
C553 C 0.71677 0.59781 0.94799 0.0
C554 C 0.78771 0.66097 0.94607 0.0
H555 H 0.85712 0.56345 0.8521 0.0
C556 C 0.81697 0.54423 0.83137 0.0
H557 H 0.76033 0.55765 0.8095 0.0
H558 H 0.04353 0.85261 0.90353 0.0
H559 H 0.1101 0.87478 0.84841 0.0
H560 H 0.05285 0.7888 0.79538 0.0
H561 H 0.92821 0.68004 0.79698 0.0
C562 C 0.8051 0.57987 0.82669 0.0
C563 C 0.83793 0.63684 0.85473 0.0
C564 C 0.91005 0.70103 0.85261 0.0
C565 C 0.94252 0.75163 0.88254 0.0
C566 C 0.01548 0.81369 0.88073 0.0
C567 C 0.05448 0.82678 0.84944 0.0
C568 C 0.02223 0.77832 0.81957 0.0
C569 C 0.95087 0.71602 0.821 0.0
loop_
_geom_bond_atom_site_label_1
_geom_bond_atom_site_label_2
_geom_bond_distance
_geom_bond_site_symmetry_2
_ccdc_geom_bond_type
Gd0 N31 2.661 1_655 S
Gd0 N37 2.601 . S
Gd0 O44 2.545 1_545 S
Gd0 O45 2.606 1_546 S
Gd0 O47 2.429 1_545 S
Gd0 O48 2.545 1_545 S
Gd0 O49 2.412 . S
Gd0 O51 2.362 1_655 S
Gd0 O52 2.324 1_656 S
Gd0 C59 2.828 . S
Gd1 N10 2.661 1_455 S
Gd1 N14 2.601 . S
Gd1 O45 2.362 1_455 S
Gd1 O46 2.324 1_454 S
Gd1 O50 2.545 1_565 S
Gd1 O51 2.606 1_564 S
Gd1 O53 2.429 1_565 S
Gd1 O54 2.545 1_565 S
Gd1 O55 2.412 . S
Gd1 C68 2.828 . S
C2 C5 1.417 . S
C2 C7 1.431 . S
C2 C8 1.412 . S
C3 C6 1.437 . S
C3 C7 1.317 . S
C3 H22 0.929 . S
C4 C5 1.426 . S
C4 C6 1.413 . S
C4 N14 1.359 1_655 S
C5 C2 1.417 . S
C5 C4 1.426 . S
C5 N10 1.350 . S
C6 C3 1.437 . S
C6 C4 1.413 . S
C6 C16 1.391 1_655 S
C7 C2 1.431 . S
C7 C3 1.317 . S
C7 H18 0.930 . S
C8 C2 1.412 . S
C8 C9 1.355 . S
C8 H20 0.930 . S
C9 C8 1.355 . S
C9 C11 1.402 . S
C9 H21 0.930 . S
N10 Gd1 2.661 1_655 S
N10 C5 1.350 . S
N10 C11 1.307 . S
C11 C9 1.402 . S
C11 N10 1.307 . S
C11 H12 0.930 . S
H12 C11 0.930 . S
C13 N14 1.334 1_545 S
C13 C15 1.394 . S
C13 H17 0.930 . S
N14 Gd1 2.601 . S
N14 C4 1.359 1_455 S
N14 C13 1.334 1_565 S
C15 C13 1.394 . S
C15 C16 1.359 1_545 S
C15 H27 0.930 . S
C16 C6 1.391 1_455 S
C16 C15 1.359 1_565 S
C16 H28 0.929 . S
H17 C13 0.930 . S
H18 C7 0.930 . S
H19 C36 0.930 . S
H20 C8 0.930 . S
H21 C9 0.930 . S
H22 C3 0.929 . S
H23 C41 0.930 . S
H24 C32 0.930 . S
H25 C33 0.930 . S
H26 C57 0.929 . S
H27 C15 0.930 . S
H28 C16 0.929 . S
H29 C58 0.930 . S
H30 C39 0.930 . S
N31 Gd0 2.661 1_455 S
N31 C35 1.350 . S
N31 C36 1.307 . S
C32 H24 0.930 . S
C32 C33 1.355 . S
C32 C34 1.412 . S
C33 H25 0.930 . S
C33 C32 1.355 . S
C33 C36 1.402 . S
C34 C32 1.412 . S
C34 C35 1.417 . S
C34 C58 1.431 . S
C35 N31 1.350 . S
C35 C34 1.417 . S
C35 C38 1.426 . S
C36 H19 0.930 . S
C36 N31 1.307 . S
C36 C33 1.402 . S
N37 Gd0 2.601 . S
N37 C38 1.359 1_655 S
N37 C41 1.334 1_545 S
C38 C35 1.426 . S
C38 N37 1.359 1_455 S
C38 C42 1.413 . S
C39 H30 0.930 . S
C39 C40 1.359 1_565 S
C39 C41 1.394 . S
C40 C39 1.359 1_545 S
C40 C42 1.391 1_655 S
C40 H43 0.929 . S
C41 H23 0.930 . S
C41 N37 1.334 1_565 S
C41 C39 1.394 . S
C42 C38 1.413 . S
C42 C40 1.391 1_455 S
C42 C57 1.437 . S
H43 C40 0.929 . S
O44 Gd0 2.545 1_565 S
O44 C59 1.258 1_565 S
O45 Gd0 2.606 1_564 S
O45 Gd1 2.362 1_655 S
O45 C56 1.284 . S
O46 Gd1 2.324 1_656 S
O46 C66 1.254 . S
O47 Gd0 2.429 1_565 S
O47 C66 1.268 . S
O48 Gd0 2.545 1_565 S
O48 C56 1.250 1_556 S
O49 Gd0 2.412 . S
O49 C59 1.252 . S
O50 Gd1 2.545 1_545 S
O50 C68 1.258 1_545 S
O51 Gd0 2.362 1_455 S
O51 Gd1 2.606 1_546 S
O51 C67 1.284 . S
O52 Gd0 2.324 1_454 S
O52 C75 1.254 . S
O53 Gd1 2.429 1_545 S
O53 C75 1.268 . S
O54 Gd1 2.545 1_545 S
O54 C67 1.250 1_554 S
O55 Gd1 2.412 . S
O55 C68 1.252 . S
C56 O45 1.284 . S
C56 O48 1.250 1_554 S
C57 H26 0.929 . S
C57 C42 1.437 . S
C57 C58 1.317 . S
C58 H29 0.930 . S
C58 C34 1.431 . S
C58 C57 1.317 . S
C59 Gd0 2.828 . S
C59 O44 1.258 1_545 S
C59 O49 1.252 . S
C59 C60 1.497 . S
C60 C59 1.497 . S
C60 C61 1.395 . S
C60 C62 1.380 . S
C61 C60 1.395 . S
C61 C64 1.398 . S
C61 H76 0.930 . S
C62 C60 1.380 . S
C62 C63 1.391 . S
C62 H77 0.930 . S
C63 C62 1.391 . S
C63 C65 1.387 . S
C64 C61 1.398 . S
C64 C65 1.380 . S
C64 H78 0.930 . S
C65 C63 1.387 . S
C65 C64 1.380 . S
C65 H79 0.930 . S
C66 O46 1.254 . S
C66 O47 1.268 . S
C67 O51 1.284 . S
C67 O54 1.250 1_556 S
C68 Gd1 2.828 . S
C68 O50 1.258 1_565 S
C68 O55 1.252 . S
C68 C69 1.497 . S
C69 C68 1.497 . S
C69 C70 1.395 . S
C69 C71 1.380 . S
C70 C69 1.395 . S
C70 C73 1.398 . S
C70 H80 0.930 . S
C71 C69 1.380 . S
C71 C72 1.391 . S
C71 H81 0.930 . S
C72 C71 1.391 . S
C72 C74 1.387 . S
C73 C70 1.398 . S
C73 C74 1.380 . S
C73 H82 0.930 . S
C74 C72 1.387 . S
C74 C73 1.380 . S
C74 H83 0.930 . S
C75 O52 1.254 . S
C75 O53 1.268 . S
H76 C61 0.930 . S
H77 C62 0.930 . S
H78 C64 0.930 . S
H79 C65 0.930 . S
H80 C70 0.930 . S
H81 C71 0.930 . S
H82 C73 0.930 . S
H83 C74 0.930 . S
Gd84 N115 2.661 1_455 S
Gd84 N121 2.601 1_565 S
Gd84 O128 2.545 1_565 S
Gd84 O129 2.606 1_565 S
Gd84 O131 2.429 1_565 S
Gd84 O132 2.545 1_565 S
Gd84 O133 2.412 . S
Gd84 O135 2.362 1_455 S
Gd84 O136 2.324 1_455 S
Gd84 C143 2.828 . S
Gd85 N94 2.661 1_655 S
Gd85 N98 2.601 1_655 S
Gd85 O129 2.362 1_655 S
Gd85 O130 2.324 1_655 S
Gd85 O134 2.545 . S
Gd85 O135 2.606 1_545 S
Gd85 O137 2.429 1_545 S
Gd85 O138 2.545 1_545 S
Gd85 O139 2.412 . S
Gd85 C152 2.828 . S
C86 C89 1.417 . S
C86 C91 1.431 . S
C86 C92 1.412 . S
C87 C90 1.437 . S
C87 C91 1.317 . S
C87 H106 0.929 . S
C88 C89 1.426 . S
C88 C90 1.413 . S
C88 N98 1.359 . S
C89 C86 1.417 . S
C89 C88 1.426 . S
C89 N94 1.350 . S
C90 C87 1.437 . S
C90 C88 1.413 . S
C90 C100 1.391 . S
C91 C86 1.431 . S
C91 C87 1.317 . S
C91 H102 0.930 . S
C92 C86 1.412 . S
C92 C93 1.355 . S
C92 H104 0.930 . S
C93 C92 1.355 . S
C93 C95 1.402 . S
C93 H105 0.930 . S
N94 Gd85 2.661 1_455 S
N94 C89 1.350 . S
N94 C95 1.307 . S
C95 C93 1.402 . S
C95 N94 1.307 . S
C95 H96 0.930 . S
H96 C95 0.930 . S
C97 N98 1.334 1_665 S
C97 C99 1.394 . S
C97 H101 0.930 . S
N98 Gd85 2.601 1_455 S
N98 C88 1.359 . S
N98 C97 1.334 1_445 S
C99 C97 1.394 . S
C99 C100 1.359 1_665 S
C99 H111 0.930 . S
C100 C90 1.391 . S
C100 C99 1.359 1_445 S
C100 H112 0.929 . S
H101 C97 0.930 . S
H102 C91 0.930 . S
H103 C120 0.930 . S
H104 C92 0.930 . S
H105 C93 0.930 . S
H106 C87 0.929 . S
H107 C125 0.930 . S
H108 C116 0.930 . S
H109 C117 0.930 . S
H110 C141 0.929 . S
H111 C99 0.930 . S
H112 C100 0.929 . S
H113 C142 0.930 . S
H114 C123 0.930 . S
N115 Gd84 2.661 1_655 S
N115 C119 1.350 . S
N115 C120 1.307 . S
C116 H108 0.930 . S
C116 C117 1.355 . S
C116 C118 1.412 . S
C117 H109 0.930 . S
C117 C116 1.355 . S
C117 C120 1.402 . S
C118 C116 1.412 . S
C118 C119 1.417 . S
C118 C142 1.431 . S
C119 N115 1.350 . S
C119 C118 1.417 . S
C119 C122 1.426 . S
C120 H103 0.930 . S
C120 N115 1.307 . S
C120 C117 1.402 . S
N121 Gd84 2.601 1_545 S
N121 C122 1.359 1_445 S
N121 C125 1.334 . S
C122 C119 1.426 . S
C122 N121 1.359 1_665 S
C122 C126 1.413 . S
C123 H114 0.930 . S
C123 C124 1.359 . S
C123 C125 1.394 . S
C124 C123 1.359 . S
C124 C126 1.391 1_445 S
C124 H127 0.929 . S
C125 H107 0.930 . S
C125 N121 1.334 . S
C125 C123 1.394 . S
C126 C122 1.413 . S
C126 C124 1.391 1_665 S
C126 C141 1.437 . S
H127 C124 0.929 . S
O128 Gd84 2.545 1_545 S
O128 C143 1.258 1_545 S
O129 Gd84 2.606 1_545 S
O129 Gd85 2.362 1_455 S
O129 C140 1.284 . S
O130 Gd85 2.324 1_455 S
O130 C150 1.254 . S
O131 Gd84 2.429 1_545 S
O131 C150 1.268 . S
O132 Gd84 2.545 1_545 S
O132 C140 1.250 . S
O133 Gd84 2.412 . S
O133 C143 1.252 . S
O134 Gd85 2.545 . S
O134 C152 1.258 . S
O135 Gd84 2.362 1_655 S
O135 Gd85 2.606 1_565 S
O135 C151 1.284 . S
O136 Gd84 2.324 1_655 S
O136 C159 1.254 . S
O137 Gd85 2.429 1_565 S
O137 C159 1.268 . S
O138 Gd85 2.545 1_565 S
O138 C151 1.250 . S
O139 Gd85 2.412 . S
O139 C152 1.252 . S
C140 O129 1.284 . S
C140 O132 1.250 . S
C141 H110 0.929 . S
C141 C126 1.437 . S
C141 C142 1.317 . S
C142 H113 0.930 . S
C142 C118 1.431 . S
C142 C141 1.317 . S
C143 Gd84 2.828 . S
C143 O128 1.258 1_565 S
C143 O133 1.252 . S
C143 C144 1.497 . S
C144 C143 1.497 . S
C144 C145 1.395 . S
C144 C146 1.380 . S
C145 C144 1.395 . S
C145 C148 1.398 . S
C145 H160 0.930 1_565 S
C146 C144 1.380 . S
C146 C147 1.391 . S
C146 H161 0.930 . S
C147 C146 1.391 . S
C147 C149 1.387 . S
C148 C145 1.398 . S
C148 C149 1.380 . S
C148 H162 0.930 . S
C149 C147 1.387 . S
C149 C148 1.380 . S
C149 H163 0.930 . S
C150 O130 1.254 . S
C150 O131 1.268 . S
C151 O135 1.284 . S
C151 O138 1.250 . S
C152 Gd85 2.828 . S
C152 O134 1.258 . S
C152 O139 1.252 . S
C152 C153 1.497 . S
C153 C152 1.497 . S
C153 C154 1.395 . S
C153 C155 1.380 . S
C154 C153 1.395 . S
C154 C157 1.398 . S
C154 H164 0.930 . S
C155 C153 1.380 . S
C155 C156 1.391 . S
C155 H165 0.930 . S
C156 C155 1.391 . S
C156 C158 1.387 . S
C157 C154 1.398 . S
C157 C158 1.380 . S
C157 H166 0.930 . S
C158 C156 1.387 . S
C158 C157 1.380 . S
C158 H167 0.930 . S
C159 O136 1.254 . S
C159 O137 1.268 . S
H160 C145 0.930 1_545 S
H161 C146 0.930 . S
H162 C148 0.930 . S
H163 C149 0.930 . S
H164 C154 0.930 . S
H165 C155 0.930 . S
H166 C157 0.930 . S
H167 C158 0.930 . S
Zn168 O174 1.920 . S
Zn168 O180 1.898 . S
Zn168 O183 1.905 . S
Zn169 O177 1.905 . S
Zn169 O178 1.898 . S
Zn169 O186 1.920 . S
Zn170 O173 2.080 . S
Zn170 O176 2.114 . S
Zn170 O179 2.120 . S
Zn170 O181 2.120 . S
Zn170 O182 2.114 . S
Zn170 O185 2.080 . S
C171 O176 1.166 . S
C171 O177 1.182 . S
C172 O178 1.167 . S
C172 O179 1.299 . S
O173 Zn170 2.080 . S
O173 C187 1.305 . S
O174 Zn168 1.920 . S
O174 C187 1.234 . S
C175 O180 1.167 . S
C175 O181 1.299 . S
O176 Zn170 2.114 . S
O176 C171 1.166 . S
O177 Zn169 1.905 . S
O177 C171 1.182 . S
O178 Zn169 1.898 . S
O178 C172 1.167 . S
O179 Zn170 2.120 . S
O179 C172 1.299 . S
O180 Zn168 1.898 . S
O180 C175 1.167 . S
O181 Zn170 2.120 . S
O181 C175 1.299 . S
O182 Zn170 2.114 . S
O182 C184 1.166 . S
O183 Zn168 1.905 . S
O183 C184 1.182 . S
C184 O182 1.166 . S
C184 O183 1.182 . S
O185 Zn170 2.080 . S
O185 C188 1.305 . S
O186 Zn169 1.920 . S
O186 C188 1.234 . S
C187 O173 1.305 . S
C187 O174 1.234 . S
C188 O185 1.305 . S
C188 O186 1.234 . S
Zn189 O195 1.920 . S
Zn189 O201 1.898 . S
Zn189 O204 1.905 . S
Zn190 O198 1.905 . S
Zn190 O199 1.898 . S
Zn190 O207 1.920 . S
Zn191 O194 2.080 . S
Zn191 O197 2.114 . S
Zn191 O200 2.120 . S
Zn191 O202 2.120 . S
Zn191 O203 2.114 . S
Zn191 O206 2.080 . S
C192 O197 1.166 . S
C192 O198 1.182 . S
C193 O199 1.167 . S
C193 O200 1.299 . S
O194 Zn191 2.080 . S
O194 C208 1.305 . S
O195 Zn189 1.920 . S
O195 C208 1.234 . S
C196 O201 1.167 . S
C196 O202 1.299 . S
O197 Zn191 2.114 . S
O197 C192 1.166 . S
O198 Zn190 1.905 . S
O198 C192 1.182 . S
O199 Zn190 1.898 . S
O199 C193 1.167 . S
O200 Zn191 2.120 . S
O200 C193 1.299 . S
O201 Zn189 1.898 . S
O201 C196 1.167 . S
O202 Zn191 2.120 . S
O202 C196 1.299 . S
O203 Zn191 2.114 . S
O203 C205 1.166 . S
O204 Zn189 1.905 . S
O204 C205 1.182 . S
C205 O203 1.166 . S
C205 O204 1.182 . S
O206 Zn191 2.080 . S
O206 C209 1.305 . S
O207 Zn190 1.920 . S
O207 C209 1.234 . S
C208 O194 1.305 . S
C208 O195 1.234 . S
C209 O206 1.305 . S
C209 O207 1.234 . S
H210 C211 0.951 . S
C211 H210 0.951 . S
C211 C217 1.265 . S
H212 C217 0.950 . S
H213 C221 0.949 . S
H214 C222 0.950 . S
H215 C223 0.951 1_545 S
H216 C224 0.951 . S
C217 C211 1.265 . S
C217 H212 0.950 . S
C217 C218 1.478 . S
C218 C217 1.478 . S
C218 C219 1.397 . S
C218 C235 1.394 . S
C219 C218 1.397 . S
C219 C220 1.438 . S
C219 C224 1.429 . S
C220 C219 1.438 . S
C220 C221 1.428 . S
C220 C233 1.394 . S
C221 H213 0.949 . S
C221 C220 1.428 . S
C221 C222 1.345 . S
C222 H214 0.950 . S
C222 C221 1.345 . S
C222 C223 1.424 . S
C223 H215 0.951 1_565 S
C223 C222 1.424 . S
C223 C224 1.347 . S
C224 H216 0.951 . S
C224 C219 1.429 . S
C224 C223 1.347 . S
H225 C226 0.951 . S
C226 H225 0.951 . S
C226 C232 1.265 . S
H227 C232 0.950 . S
H228 C236 0.949 . S
H229 C237 0.950 . S
H230 C238 0.951 . S
H231 C239 0.951 . S
C232 C226 1.265 . S
C232 H227 0.950 . S
C232 C233 1.478 . S
C233 C220 1.394 . S
C233 C232 1.478 . S
C233 C234 1.397 . S
C234 C233 1.397 . S
C234 C235 1.438 . S
C234 C239 1.429 . S
C235 C218 1.394 . S
C235 C234 1.438 . S
C235 C236 1.428 . S
C236 H228 0.949 . S
C236 C235 1.428 . S
C236 C237 1.345 . S
C237 H229 0.950 . S
C237 C236 1.345 . S
C237 C238 1.424 . S
C238 H230 0.951 . S
C238 C237 1.424 . S
C238 C239 1.347 . S
C239 H231 0.951 . S
C239 C234 1.429 . S
C239 C238 1.347 . S
H240 C241 0.951 . S
C241 H240 0.951 . S
C241 C247 1.265 . S
H242 C247 0.950 . S
H243 C251 0.949 . S
H244 C252 0.950 . S
H245 C253 0.951 . S
H246 C254 0.951 1_565 S
C247 C241 1.265 . S
C247 H242 0.950 . S
C247 C248 1.478 . S
C248 C247 1.478 . S
C248 C249 1.397 . S
C248 C265 1.394 . S
C249 C248 1.397 . S
C249 C250 1.438 . S
C249 C254 1.429 . S
C250 C249 1.438 . S
C250 C251 1.428 . S
C250 C263 1.394 . S
C251 H243 0.949 . S
C251 C250 1.428 . S
C251 C252 1.345 1_545 S
C252 H244 0.950 . S
C252 C251 1.345 1_565 S
C252 C253 1.424 . S
C253 H245 0.951 . S
C253 C252 1.424 . S
C253 C254 1.347 1_565 S
C254 H246 0.951 1_545 S
C254 C249 1.429 . S
C254 C253 1.347 1_545 S
H255 C256 0.951 . S
C256 H255 0.951 . S
C256 C262 1.265 . S
H257 C262 0.950 . S
H258 C266 0.949 . S
H259 C267 0.950 . S
H260 C268 0.951 . S
H261 C269 0.951 . S
C262 C256 1.265 . S
C262 H257 0.950 . S
C262 C263 1.478 . S
C263 C250 1.394 . S
C263 C262 1.478 . S
C263 C264 1.397 . S
C264 C263 1.397 . S
C264 C265 1.438 . S
C264 C269 1.429 . S
C265 C248 1.394 . S
C265 C264 1.438 . S
C265 C266 1.428 . S
C266 H258 0.949 . S
C266 C265 1.428 . S
C266 C267 1.345 . S
C267 H259 0.950 . S
C267 C266 1.345 . S
C267 C268 1.424 . S
C268 H260 0.951 . S
C268 C267 1.424 . S
C268 C269 1.347 . S
C269 H261 0.951 . S
C269 C264 1.429 . S
C269 C268 1.347 . S
H270 C271 0.951 . S
C271 H270 0.951 . S
C271 C277 1.265 . S
H272 C277 0.950 . S
H273 C281 0.949 . S
H274 C282 0.950 . S
H275 C283 0.951 . S
H276 C284 0.951 . S
C277 C271 1.265 . S
C277 H272 0.950 . S
C277 C278 1.478 . S
C278 C277 1.478 . S
C278 C279 1.397 . S
C278 C295 1.394 . S
C279 C278 1.397 . S
C279 C280 1.438 . S
C279 C284 1.429 . S
C280 C279 1.438 . S
C280 C281 1.428 . S
C280 C293 1.394 . S
C281 H273 0.949 . S
C281 C280 1.428 . S
C281 C282 1.345 . S
C282 H274 0.950 . S
C282 C281 1.345 . S
C282 C283 1.424 . S
C283 H275 0.951 . S
C283 C282 1.424 . S
C283 C284 1.347 . S
C284 H276 0.951 . S
C284 C279 1.429 . S
C284 C283 1.347 . S
H285 C286 0.951 . S
C286 H285 0.951 . S
C286 C292 1.265 . S
H287 C292 0.950 . S
H288 C296 0.949 . S
H289 C297 0.950 1_655 S
H290 C298 0.951 . S
H291 C299 0.951 . S
C292 C286 1.265 . S
C292 H287 0.950 . S
C292 C293 1.478 . S
C293 C280 1.394 . S
C293 C292 1.478 . S
C293 C294 1.397 . S
C294 C293 1.397 . S
C294 C295 1.438 . S
C294 C299 1.429 . S
C295 C278 1.394 . S
C295 C294 1.438 . S
C295 C296 1.428 . S
C296 H288 0.949 . S
C296 C295 1.428 . S
C296 C297 1.345 . S
C297 H289 0.950 1_455 S
C297 C296 1.345 . S
C297 C298 1.424 . S
C298 H290 0.951 . S
C298 C297 1.424 . S
C298 C299 1.347 . S
C299 H291 0.951 . S
C299 C294 1.429 . S
C299 C298 1.347 . S
H300 C301 0.951 . S
C301 H300 0.951 . S
C301 C307 1.265 . S
H302 C307 0.950 . S
H303 C311 0.949 . S
H304 C312 0.950 . S
H305 C313 0.951 . S
H306 C314 0.951 . S
C307 C301 1.265 . S
C307 H302 0.950 . S
C307 C308 1.478 . S
C308 C307 1.478 . S
C308 C309 1.397 . S
C308 C325 1.394 . S
C309 C308 1.397 . S
C309 C310 1.438 . S
C309 C314 1.429 . S
C310 C309 1.438 . S
C310 C311 1.428 . S
C310 C323 1.394 . S
C311 H303 0.949 . S
C311 C310 1.428 . S
C311 C312 1.345 . S
C312 H304 0.950 . S
C312 C311 1.345 . S
C312 C313 1.424 . S
C313 H305 0.951 . S
C313 C312 1.424 . S
C313 C314 1.347 . S
C314 H306 0.951 . S
C314 C309 1.429 . S
C314 C313 1.347 . S
H315 C316 0.951 . S
C316 H315 0.951 . S
C316 C322 1.265 . S
H317 C322 0.950 . S
H318 C326 0.949 . S
H319 C327 0.950 1_455 S
H320 C328 0.951 1_455 S
H321 C329 0.951 . S
C322 C316 1.265 . S
C322 H317 0.950 . S
C322 C323 1.478 . S
C323 C310 1.394 . S
C323 C322 1.478 . S
C323 C324 1.397 . S
C324 C323 1.397 . S
C324 C325 1.438 . S
C324 C329 1.429 . S
C325 C308 1.394 . S
C325 C324 1.438 . S
C325 C326 1.428 . S
C326 H318 0.949 . S
C326 C325 1.428 . S
C326 C327 1.345 . S
C327 H319 0.950 1_655 S
C327 C326 1.345 . S
C327 C328 1.424 . S
C328 H320 0.951 1_655 S
C328 C327 1.424 . S
C328 C329 1.347 . S
C329 H321 0.951 . S
C329 C324 1.429 . S
C329 C328 1.347 . S
H330 C331 0.951 . S
C331 H330 0.951 . S
C331 C337 1.265 . S
H332 C337 0.950 . S
H333 C341 0.949 . S
H334 C342 0.950 . S
H335 C343 0.951 . S
H336 C344 0.951 . S
C337 C331 1.265 . S
C337 H332 0.950 . S
C337 C338 1.478 . S
C338 C337 1.478 . S
C338 C339 1.397 . S
C338 C355 1.394 . S
C339 C338 1.397 . S
C339 C340 1.438 . S
C339 C344 1.429 1_565 S
C340 C339 1.438 . S
C340 C341 1.428 . S
C340 C353 1.394 . S
C341 H333 0.949 . S
C341 C340 1.428 . S
C341 C342 1.345 1_565 S
C342 H334 0.950 . S
C342 C341 1.345 1_545 S
C342 C343 1.424 . S
C343 H335 0.951 . S
C343 C342 1.424 . S
C343 C344 1.347 . S
C344 H336 0.951 . S
C344 C339 1.429 1_545 S
C344 C343 1.347 . S
H345 C346 0.951 . S
C346 H345 0.951 . S
C346 C352 1.265 . S
H347 C352 0.950 . S
H348 C356 0.949 . S
H349 C357 0.950 . S
H350 C358 0.951 . S
H351 C359 0.951 . S
C352 C346 1.265 . S
C352 H347 0.950 . S
C352 C353 1.478 . S
C353 C340 1.394 . S
C353 C352 1.478 . S
C353 C354 1.397 . S
C354 C353 1.397 . S
C354 C355 1.438 . S
C354 C359 1.429 . S
C355 C338 1.394 . S
C355 C354 1.438 . S
C355 C356 1.428 . S
C356 H348 0.949 . S
C356 C355 1.428 . S
C356 C357 1.345 . S
C357 H349 0.950 . S
C357 C356 1.345 . S
C357 C358 1.424 . S
C358 H350 0.951 . S
C358 C357 1.424 . S
C358 C359 1.347 . S
C359 H351 0.951 . S
C359 C354 1.429 . S
C359 C358 1.347 . S
H360 C361 0.951 . S
C361 H360 0.951 . S
C361 C367 1.265 . S
H362 C367 0.950 . S
H363 C371 0.949 . S
H364 C372 0.950 . S
H365 C373 0.951 . S
H366 C374 0.951 . S
C367 C361 1.265 . S
C367 H362 0.950 . S
C367 C368 1.478 . S
C368 C367 1.478 . S
C368 C369 1.397 . S
C368 C385 1.394 . S
C369 C368 1.397 . S
C369 C370 1.438 . S
C369 C374 1.429 . S
C370 C369 1.438 . S
C370 C371 1.428 . S
C370 C383 1.394 . S
C371 H363 0.949 . S
C371 C370 1.428 . S
C371 C372 1.345 . S
C372 H364 0.950 . S
C372 C371 1.345 . S
C372 C373 1.424 . S
C373 H365 0.951 . S
C373 C372 1.424 . S
C373 C374 1.347 . S
C374 H366 0.951 . S
C374 C369 1.429 . S
C374 C373 1.347 . S
H375 C376 0.951 . S
C376 H375 0.951 . S
C376 C382 1.265 . S
H377 C382 0.950 . S
H378 C386 0.949 . S
H379 C387 0.950 . S
H380 C388 0.951 1_455 S
H381 C389 0.951 . S
C382 C376 1.265 . S
C382 H377 0.950 . S
C382 C383 1.478 . S
C383 C370 1.394 . S
C383 C382 1.478 . S
C383 C384 1.397 . S
C384 C383 1.397 . S
C384 C385 1.438 . S
C384 C389 1.429 . S
C385 C368 1.394 . S
C385 C384 1.438 . S
C385 C386 1.428 . S
C386 H378 0.949 . S
C386 C385 1.428 . S
C386 C387 1.345 1_655 S
C387 H379 0.950 . S
C387 C386 1.345 1_455 S
C387 C388 1.424 1_455 S
C388 H380 0.951 1_655 S
C388 C387 1.424 1_655 S
C388 C389 1.347 . S
C389 H381 0.951 . S
C389 C384 1.429 . S
C389 C388 1.347 . S
H390 C391 0.951 . S
C391 H390 0.951 . S
C391 C397 1.265 . S
H392 C397 0.950 . S
H393 C401 0.949 . S
H394 C402 0.950 . S
H395 C403 0.951 1_545 S
H396 C404 0.951 . S
C397 C391 1.265 . S
C397 H392 0.950 . S
C397 C398 1.478 . S
C398 C397 1.478 . S
C398 C399 1.397 . S
C398 C415 1.394 . S
C399 C398 1.397 . S
C399 C400 1.438 . S
C399 C404 1.429 . S
C400 C399 1.438 . S
C400 C401 1.428 . S
C400 C413 1.394 . S
C401 H393 0.949 . S
C401 C400 1.428 . S
C401 C402 1.345 . S
C402 H394 0.950 . S
C402 C401 1.345 . S
C402 C403 1.424 . S
C403 H395 0.951 1_565 S
C403 C402 1.424 . S
C403 C404 1.347 . S
C404 H396 0.951 . S
C404 C399 1.429 . S
C404 C403 1.347 . S
H405 C406 0.951 . S
C406 H405 0.951 . S
C406 C412 1.265 . S
H407 C412 0.950 . S
H408 C416 0.949 . S
H409 C417 0.950 . S
H410 C418 0.951 . S
H411 C419 0.951 . S
C412 C406 1.265 . S
C412 H407 0.950 . S
C412 C413 1.478 . S
C413 C400 1.394 . S
C413 C412 1.478 . S
C413 C414 1.397 . S
C414 C413 1.397 . S
C414 C415 1.438 . S
C414 C419 1.429 . S
C415 C398 1.394 . S
C415 C414 1.438 . S
C415 C416 1.428 . S
C416 H408 0.949 . S
C416 C415 1.428 . S
C416 C417 1.345 . S
C417 H409 0.950 . S
C417 C416 1.345 . S
C417 C418 1.424 . S
C418 H410 0.951 . S
C418 C417 1.424 . S
C418 C419 1.347 . S
C419 H411 0.951 . S
C419 C414 1.429 . S
C419 C418 1.347 . S
H420 C421 0.951 . S
C421 H420 0.951 . S
C421 C427 1.265 . S
H422 C427 0.950 . S
H423 C431 0.949 . S
H424 C432 0.950 . S
H425 C433 0.951 . S
H426 C434 0.951 . S
C427 C421 1.265 . S
C427 H422 0.950 . S
C427 C428 1.478 . S
C428 C427 1.478 . S
C428 C429 1.397 . S
C428 C445 1.394 . S
C429 C428 1.397 . S
C429 C430 1.438 . S
C429 C434 1.429 . S
C430 C429 1.438 . S
C430 C431 1.428 . S
C430 C443 1.394 . S
C431 H423 0.949 . S
C431 C430 1.428 . S
C431 C432 1.345 . S
C432 H424 0.950 . S
C432 C431 1.345 . S
C432 C433 1.424 . S
C433 H425 0.951 . S
C433 C432 1.424 . S
C433 C434 1.347 . S
C434 H426 0.951 . S
C434 C429 1.429 . S
C434 C433 1.347 . S
H435 C436 0.951 . S
C436 H435 0.951 . S
C436 C442 1.265 . S
H437 C442 0.950 . S
H438 C446 0.949 . S
H439 C447 0.950 . S
H440 C448 0.951 . S
H441 C449 0.951 . S
C442 C436 1.265 . S
C442 H437 0.950 . S
C442 C443 1.478 . S
C443 C430 1.394 . S
C443 C442 1.478 . S
C443 C444 1.397 . S
C444 C443 1.397 . S
C444 C445 1.438 . S
C444 C449 1.429 . S
C445 C428 1.394 . S
C445 C444 1.438 . S
C445 C446 1.428 . S
C446 H438 0.949 . S
C446 C445 1.428 . S
C446 C447 1.345 . S
C447 H439 0.950 . S
C447 C446 1.345 . S
C447 C448 1.424 . S
C448 H440 0.951 . S
C448 C447 1.424 . S
C448 C449 1.347 . S
C449 H441 0.951 . S
C449 C444 1.429 . S
C449 C448 1.347 . S
H450 C451 0.951 . S
C451 H450 0.951 . S
C451 C457 1.265 . S
H452 C457 0.950 . S
H453 C461 0.949 . S
H454 C462 0.950 . S
H455 C463 0.951 . S
H456 C464 0.951 . S
C457 C451 1.265 . S
C457 H452 0.950 . S
C457 C458 1.478 . S
C458 C457 1.478 . S
C458 C459 1.397 . S
C458 C475 1.394 . S
C459 C458 1.397 . S
C459 C460 1.438 . S
C459 C464 1.429 . S
C460 C459 1.438 . S
C460 C461 1.428 . S
C460 C473 1.394 . S
C461 H453 0.949 . S
C461 C460 1.428 . S
C461 C462 1.345 . S
C462 H454 0.950 . S
C462 C461 1.345 . S
C462 C463 1.424 . S
C463 H455 0.951 . S
C463 C462 1.424 . S
C463 C464 1.347 . S
C464 H456 0.951 . S
C464 C459 1.429 . S
C464 C463 1.347 . S
H465 C466 0.951 . S
C466 H465 0.951 . S
C466 C472 1.265 . S
H467 C472 0.950 . S
H468 C476 0.949 . S
H469 C477 0.950 . S
H470 C478 0.951 . S
H471 C479 0.951 . S
C472 C466 1.265 . S
C472 H467 0.950 . S
C472 C473 1.478 . S
C473 C460 1.394 . S
C473 C472 1.478 . S
C473 C474 1.397 . S
C474 C473 1.397 . S
C474 C475 1.438 . S
C474 C479 1.429 . S
C475 C458 1.394 . S
C475 C474 1.438 . S
C475 C476 1.428 . S
C476 H468 0.949 . S
C476 C475 1.428 . S
C476 C477 1.345 . S
C477 H469 0.950 . S
C477 C476 1.345 . S
C477 C478 1.424 . S
C478 H470 0.951 . S
C478 C477 1.424 . S
C478 C479 1.347 . S
C479 H471 0.951 . S
C479 C474 1.429 . S
C479 C478 1.347 . S
H480 C481 0.951 . S
C481 H480 0.951 . S
C481 C487 1.265 . S
H482 C487 0.950 . S
H483 C491 0.949 . S
H484 C492 0.950 . S
H485 C493 0.951 . S
H486 C494 0.951 . S
C487 C481 1.265 . S
C487 H482 0.950 . S
C487 C488 1.478 . S
C488 C487 1.478 . S
C488 C489 1.397 . S
C488 C505 1.394 . S
C489 C488 1.397 . S
C489 C490 1.438 . S
C489 C494 1.429 . S
C490 C489 1.438 . S
C490 C491 1.428 . S
C490 C503 1.394 . S
C491 H483 0.949 . S
C491 C490 1.428 . S
C491 C492 1.345 . S
C492 H484 0.950 . S
C492 C491 1.345 . S
C492 C493 1.424 . S
C493 H485 0.951 . S
C493 C492 1.424 . S
C493 C494 1.347 . S
C494 H486 0.951 . S
C494 C489 1.429 . S
C494 C493 1.347 . S
H495 C496 0.951 . S
C496 H495 0.951 . S
C496 C502 1.265 . S
H497 C502 0.950 . S
H498 C506 0.949 . S
H499 C507 0.955 . S
H500 C508 0.951 1_565 S
H501 C509 0.951 . S
C502 C496 1.265 . S
C502 H497 0.950 . S
C502 C503 1.478 . S
C503 C490 1.394 . S
C503 C502 1.478 . S
C503 C504 1.397 . S
C504 C503 1.397 . S
C504 C505 1.438 . S
C504 C509 1.429 . S
C505 C488 1.394 . S
C505 C504 1.438 . S
C505 C506 1.428 . S
C506 H498 0.949 . S
C506 C505 1.428 . S
C506 C507 1.344 1_545 S
C507 H499 0.955 . S
C507 C506 1.344 1_565 S
C507 C508 1.420 1_565 S
C508 H500 0.951 1_545 S
C508 C507 1.420 1_545 S
C508 C509 1.347 . S
C509 H501 0.951 . S
C509 C504 1.429 . S
C509 C508 1.347 . S
H510 C511 0.951 . S
C511 H510 0.951 . S
C511 C517 1.265 . S
H512 C517 0.950 . S
H513 C521 0.949 . S
H514 C522 0.950 . S
H515 C523 0.951 . S
H516 C524 0.951 1_545 S
C517 C511 1.265 . S
C517 H512 0.950 . S
C517 C518 1.478 . S
C518 C517 1.478 . S
C518 C519 1.397 . S
C518 C535 1.394 . S
C519 C518 1.397 . S
C519 C520 1.438 . S
C519 C524 1.429 . S
C520 C519 1.438 . S
C520 C521 1.428 . S
C520 C533 1.394 . S
C521 H513 0.949 . S
C521 C520 1.428 . S
C521 C522 1.345 . S
C522 H514 0.950 . S
C522 C521 1.345 . S
C522 C523 1.424 1_565 S
C523 H515 0.951 . S
C523 C522 1.424 1_545 S
C523 C524 1.347 1_545 S
C524 H516 0.951 1_565 S
C524 C519 1.429 . S
C524 C523 1.347 1_565 S
H525 C526 0.951 . S
C526 H525 0.951 . S
C526 C532 1.265 . S
H527 C532 0.950 . S
H528 C536 0.949 . S
H529 C537 0.950 . S
H530 C538 0.951 . S
H531 C539 0.951 . S
C532 C526 1.265 . S
C532 H527 0.950 . S
C532 C533 1.478 . S
C533 C520 1.394 . S
C533 C532 1.478 . S
C533 C534 1.397 . S
C534 C533 1.397 . S
C534 C535 1.438 . S
C534 C539 1.429 . S
C535 C518 1.394 . S
C535 C534 1.438 . S
C535 C536 1.428 . S
C536 H528 0.949 . S
C536 C535 1.428 . S
C536 C537 1.345 . S
C537 H529 0.950 . S
C537 C536 1.345 . S
C537 C538 1.424 . S
C538 H530 0.951 . S
C538 C537 1.424 . S
C538 C539 1.347 . S
C539 H531 0.951 . S
C539 C534 1.429 . S
C539 C538 1.347 . S
H540 C541 0.951 . S
C541 H540 0.951 . S
C541 C547 1.265 . S
H542 C547 0.950 . S
H543 C551 0.949 . S
H544 C552 0.950 . S
H545 C553 0.951 . S
H546 C554 0.951 . S
C547 C541 1.265 . S
C547 H542 0.950 . S
C547 C548 1.478 . S
C548 C547 1.478 . S
C548 C549 1.397 . S
C548 C565 1.394 . S
C549 C548 1.397 . S
C549 C550 1.438 . S
C549 C554 1.429 . S
C550 C549 1.438 . S
C550 C551 1.428 . S
C550 C563 1.394 . S
C551 H543 0.949 . S
C551 C550 1.428 . S
C551 C552 1.345 . S
C552 H544 0.950 . S
C552 C551 1.345 . S
C552 C553 1.424 . S
C553 H545 0.951 . S
C553 C552 1.424 . S
C553 C554 1.347 . S
C554 H546 0.951 . S
C554 C549 1.429 . S
C554 C553 1.347 . S
H555 C556 0.951 . S
C556 H555 0.951 . S
C556 C562 1.265 . S
H557 C562 0.950 . S
H558 C566 0.949 1_455 S
H559 C567 0.950 . S
H560 C568 0.951 1_455 S
H561 C569 0.951 . S
C562 C556 1.265 . S
C562 H557 0.950 . S
C562 C563 1.478 . S
C563 C550 1.394 . S
C563 C562 1.478 . S
C563 C564 1.397 . S
C564 C563 1.397 . S
C564 C565 1.438 . S
C564 C569 1.429 . S
C565 C548 1.394 . S
C565 C564 1.438 . S
C565 C566 1.428 . S
C566 H558 0.949 1_655 S
C566 C565 1.428 . S
C566 C567 1.345 1_655 S
C567 H559 0.950 . S
C567 C566 1.345 1_455 S
C567 C568 1.424 1_455 S
C568 H560 0.951 1_655 S
C568 C567 1.424 1_655 S
C568 C569 1.347 . S
C569 H561 0.951 . S
C569 C564 1.429 . S
C569 C568 1.347 . S
C211 C72 1.095 . S
C226 C187 1.182 . S
C241 C140 1.518 . S
C256 C193 1.491 . S
C271 C75 1.579 . S
C286 C184 1.495 . S
C301 C156 1.072 . S
C316 C209 1.176 . S
C331 C56 1.518 . S
C346 C175 1.491 . S
C376 C192 1.501 . S
C361 C159 1.576 . S
C391 C147 1.234 . S
C406 C188 1.335 . S
C436 C205 1.483 . S
C421 C67 1.572 . S
C466 C172 1.465 . S
C451 C150 1.521 . S
C496 C208 1.189 . S
C481 C63 1.030 . S
C526 C171 1.445 . S
C511 C151 1.588 . S
C556 C196 1.375 . S
C541 C66 1.540 . S
