# Generated by pormake.
# Topology nia, (6,6)-cn, num edge types: 1
# Building blocks:
#     Node 0, Type 0, BuildingBlock: KUMBOL_clean_sbu_0, # of connection points: 6
#     Node 1, Type 0, BuildingBlock: KUMBOL_clean_sbu_0, # of connection points: 6
#     Node 2, Type 1, BuildingBlock: MIDCAF_clean_sbu_0, # of connection points: 6
#     Node 3, Type 1, BuildingBlock: MIDCAF_clean_sbu_0, # of connection points: 6
#     Edge 4, Type (0, 1), BuildingBlock: CIFDUS_clean_linker_0, # of connection points: 2
#     Edge 5, Type (0, 1), BuildingBlock: CIFDUS_clean_linker_0, # of connection points: 2
#     Edge 6, Type (0, 1), BuildingBlock: CIFDUS_clean_linker_0, # of connection points: 2
#     Edge 7, Type (0, 1), BuildingBlock: CIFDUS_clean_linker_0, # of connection points: 2
#     Edge 8, Type (0, 1), BuildingBlock: CIFDUS_clean_linker_0, # of connection points: 2
#     Edge 9, Type (0, 1), BuildingBlock: CIFDUS_clean_linker_0, # of connection points: 2
#     Edge 10, Type (0, 1), BuildingBlock: CIFDUS_clean_linker_0, # of connection points: 2
#     Edge 11, Type (0, 1), BuildingBlock: CIFDUS_clean_linker_0, # of connection points: 2
#     Edge 12, Type (0, 1), BuildingBlock: CIFDUS_clean_linker_0, # of connection points: 2
#     Edge 13, Type (0, 1), BuildingBlock: CIFDUS_clean_linker_0, # of connection points: 2
#     Edge 14, Type (0, 1), BuildingBlock: CIFDUS_clean_linker_0, # of connection points: 2
#     Edge 15, Type (0, 1), BuildingBlock: CIFDUS_clean_linker_0, # of connection points: 2
# Relax obj value: 0.171
# Max RMSD: 0.291
# Mean RMSD: 0.206
data_MOF--net-nia--node1-KUMBOL_clean_sbu_0--node2-MIDCAF_clean_sbu_0--edge1-CIFDUS_clean_linker_0
_symmetry_space_group_name_H-M    P1
_symmetry_Int_Tables_number       1
_symmetry_cell_setting            triclinic
loop_
_symmetry_equiv_pos_as_xyz
'x, y, z'
_cell_length_a     25.446555
_cell_length_b     25.495191
_cell_length_c     29.430619
_cell_angle_alpha  90.020578
_cell_angle_beta   90.042898
_cell_angle_gamma 140.20557
loop_
_atom_site_label
_atom_site_type_symbol
_atom_site_fract_x
_atom_site_fract_y
_atom_site_fract_z
_atom_type_partial_charge
Gd0 Gd 0.96458 0.01209 0.9597 0.0
Gd1 Gd 0.04421 -0.00153 0.05942 0.0
C2 C 0.90291 0.84131 0.1856 0.0
C3 C 0.99219 0.94216 0.24528 0.0
C4 C 0.01922 0.98579 0.16651 0.0
C5 C 0.95324 0.90449 0.15286 0.0
C6 C 0.03842 0.00539 0.2131 0.0
C7 C 0.92348 0.86055 0.23174 0.0
C8 C 0.83491 0.76026 0.17097 0.0
C9 C 0.81928 0.74343 0.12465 0.0
N10 N 0.93919 0.88693 0.10776 0.0
C11 C 0.87293 0.80741 0.09342 0.0
H12 H 0.85852 0.79212 0.05799 0.0
C13 C 0.13553 0.12591 0.14671 0.0
N14 N 0.06746 0.04531 0.13434 0.0
C15 C 0.1538 0.14846 0.19254 0.0
C16 C 0.10571 0.08783 0.2259 0.0
H17 H 0.17643 0.17245 0.12092 0.0
H18 H 0.88756 0.81261 0.25716 0.0
H19 H 0.1264 0.22014 0.95774 0.0
H20 H 0.79436 0.7103 0.19512 0.0
H21 H 0.76646 0.68099 0.11288 0.0
H22 H 0.00932 0.95561 0.2808 0.0
H23 H 0.82923 0.84824 0.8886 0.0
H24 H 0.26705 0.29567 0.8386 0.0
H25 H 0.24533 0.32992 0.90915 0.0
H26 H 0.10851 0.04325 0.76143 0.0
H27 H 0.20695 0.21222 0.20206 0.0
H28 H 0.12206 0.10517 0.26136 0.0
H29 H 0.2196 0.18741 0.78616 0.0
H30 H 0.83204 0.80613 0.81368 0.0
N31 N 0.07818 0.12341 0.91456 0.0
C32 C 0.21343 0.24699 0.85933 0.0
C33 C 0.2014 0.26652 0.89916 0.0
C34 C 0.15593 0.16479 0.8467 0.0
C35 C 0.08651 0.10385 0.87453 0.0
C36 C 0.13359 0.20369 0.92675 0.0
N37 N 0.95502 0.96717 0.88619 0.0
C38 C 0.02371 0.02302 0.86035 0.0
C39 C 0.88661 0.86713 0.82657 0.0
C40 C 0.96012 0.92087 0.80228 0.0
C41 C 0.88487 0.89153 0.86856 0.0
C42 C 0.02924 0.00071 0.81842 0.0
H43 H 0.96174 0.9014 0.77013 0.0
O44 O 0.84519 0.95451 0.9464 0.0
O45 O 0.94613 0.9738 0.03122 0.0
O46 O 0.9743 0.88997 0.01298 0.0
O47 O 0.95346 0.91702 0.94365 0.0
O48 O 0.8428 0.89468 0.99086 0.0
O49 O 0.95355 0.08534 0.93726 0.0
O50 O 0.16573 0.06111 0.07305 0.0
O51 O 0.06112 0.03519 0.98806 0.0
O52 O 0.02783 0.11598 0.01185 0.0
O53 O 0.03758 0.07708 0.08028 0.0
O54 O 0.16454 0.11637 0.02692 0.0
O55 O 0.06181 0.92804 0.06913 0.0
C56 C 0.86984 0.90774 0.03162 0.0
C57 C 0.1022 0.05962 0.79315 0.0
C58 C 0.16531 0.14178 0.80712 0.0
C59 C 0.87415 0.02138 0.93206 0.0
C60 C 0.8377 0.01452 0.88947 0.0
C61 C 0.79769 0.95007 0.85884 0.0
C62 C 0.83555 0.06745 0.88117 0.0
C63 C 0.79177 0.05409 0.84346 0.0
C64 C 0.75687 0.93838 0.82093 0.0
C65 C 0.75283 0.98909 0.81361 0.0
C66 C 0.95151 0.87327 0.96979 0.0
C67 C 0.13729 0.10029 0.98596 0.0
C68 C 0.13973 0.99319 0.07883 0.0
C69 C 0.16972 0.98891 0.11981 0.0
C70 C 0.18364 0.02698 0.16038 0.0
C71 C 0.1876 0.94887 0.11809 0.0
C72 C 0.21845 0.94655 0.15681 0.0
C73 C 0.21033 0.02172 0.19925 0.0
C74 C 0.22754 0.98163 0.19762 0.0
C75 C 0.04179 0.1241 0.05661 0.0
H76 H 0.79488 0.90641 0.86491 0.0
H77 H 0.86424 0.1161 0.90511 0.0
H78 H 0.72592 0.88807 0.79787 0.0
H79 H 0.71768 0.97635 0.78496 0.0
H80 H 0.17576 0.06233 0.16214 0.0
H81 H 0.18023 0.92231 0.08627 0.0
H82 H 0.21904 0.05015 0.23043 0.0
H83 H 0.24922 0.97926 0.22812 0.0
Gd84 Gd 0.02954 0.98184 0.4488 0.0
Gd85 Gd 0.97323 0.02824 0.5425 0.0
C86 C 0.15277 0.20822 0.65557 0.0
C87 C 0.06963 0.12944 0.72256 0.0
C88 C 0.01872 0.06484 0.648 0.0
C89 C 0.08905 0.13892 0.62815 0.0
C90 C 0.00811 0.05968 0.69553 0.0
C91 C 0.14284 0.20283 0.70286 0.0
C92 C 0.22306 0.28204 0.63457 0.0
C93 C 0.22738 0.28646 0.58733 0.0
N94 N 0.09372 0.14431 0.58213 0.0
C95 C 0.16139 0.21723 0.56157 0.0
H96 H 0.16677 0.22256 0.52526 0.0
C97 C 0.88542 0.92765 0.63918 0.0
N98 N 0.95825 -0.00048 0.62075 0.0
C99 C 0.87314 0.91883 0.68613 0.0
C100 C 0.93428 0.98564 0.71438 0.0
H101 H 0.83532 0.87784 0.61709 0.0
H102 H 0.19022 0.25585 0.72435 0.0
H103 H 0.93741 0.79073 0.46457 0.0
H104 H 0.27356 0.33629 0.65446 0.0
H105 H 0.28128 0.3434 0.57065 0.0
H106 H 0.06063 0.12747 0.75874 0.0
H107 H 0.07216 0.08521 0.35563 0.0
H108 H 0.71761 0.61647 0.38612 0.0
H109 H 0.81011 0.64844 0.44348 0.0
H110 H 0.74627 0.78478 0.28594 0.0
H111 H 0.8151 0.8617 0.70026 0.0
H112 H 0.92296 0.98016 0.7505 0.0
H113 H 0.69512 0.66807 0.32682 0.0
H114 H -0.00171 0.07349 0.29383 0.0
N115 N 0.91212 0.84079 0.42614 0.0
C116 C 0.77209 0.67937 0.39676 0.0
C117 C 0.82394 0.69716 0.42922 0.0
C118 C 0.79465 0.74363 0.3759 0.0
C119 C 0.86613 0.82455 0.39125 0.0
C120 C 0.89537 0.77851 0.44215 0.0
N121 N 0.96784 0.96605 0.38096 0.0
C122 C 0.89502 0.88957 0.36792 0.0
C123 C 0.96685 0.02144 0.31534 0.0
C124 C 0.8877 0.94419 0.30449 0.0
C125 C 0.0076 0.02972 0.35212 0.0
C126 C 0.85289 0.87632 0.32922 0.0
H127 H 0.85707 0.93682 0.27492 0.0
O128 O 0.14261 0.06776 0.40926 0.0
O129 O 0.07347 0.0581 0.51086 0.0
O130 O 0.03461 0.12339 0.48855 0.0
O131 O 0.08805 0.10688 0.43413 0.0
O132 O 0.1098 0.00842 0.50357 0.0
O133 O 0.0717 0.94118 0.4178 0.0
O134 O 0.85965 0.98531 0.54596 0.0
O135 O 0.94725 0.98163 0.47198 0.0
O136 O 0.97039 0.89013 0.50663 0.0
O137 O 0.95354 0.9316 0.57014 0.0
O138 O 0.84925 0.90708 0.51561 0.0
O139 O 0.97365 0.11222 0.55961 0.0
C140 C 0.11392 0.0524 0.52937 0.0
C141 C 0.77959 0.79608 0.31536 0.0
C142 C 0.75048 0.72974 0.33868 0.0
C143 C 0.13523 0.01246 0.39966 0.0
C144 C 0.1956 0.0301 0.37158 0.0
C145 C 0.24873 0.09896 0.34302 0.0
C146 C 0.19863 0.97708 0.37153 0.0
C147 C 0.25371 0.99267 0.34281 0.0
C148 C 0.30367 0.11464 0.3148 0.0
C149 C 0.30608 0.06178 0.31455 0.0
C150 C 0.07749 0.14655 0.45138 0.0
C151 C 0.87051 0.9178 0.47355 0.0
C152 C 0.8939 0.05425 0.56089 0.0
C153 C 0.85692 0.04913 0.60227 0.0
C154 C 0.80823 0.98079 0.63106 0.0
C155 C 0.86663 0.11019 0.61263 0.0
C156 C 0.83117 0.10384 0.65255 0.0
C157 C 0.7823 0.97973 0.67294 0.0
C158 C 0.79556 0.04206 0.68412 0.0
C159 C 0.95019 0.88282 0.5498 0.0
H160 H 0.2472 0.14026 0.34209 0.0
H161 H 0.1586 0.9241 0.3937 0.0
H162 H 0.34432 0.16782 0.29286 0.0
H163 H 0.3498 0.07549 0.29277 0.0
H164 H 0.78851 0.92717 0.62095 0.0
H165 H 0.89696 0.15901 0.58851 0.0
H166 H 0.7486 0.92866 0.69587 0.0
H167 H 0.77209 0.03858 0.71604 0.0
Zn168 Zn 0.3679 0.67814 0.16509 0.0
Zn169 Zn 0.39288 0.70415 0.32199 0.0
Zn170 Zn 0.37973 0.6747 0.24208 0.0
C171 C 0.53971 0.77556 0.30362 0.0
C172 C 0.28091 0.53231 0.30684 0.0
O173 O 0.37401 0.75389 0.22 0.0
O174 O 0.40982 0.77954 0.14761 0.0
C175 C 0.49322 0.70227 0.17777 0.0
O176 O 0.49783 0.73163 0.26785 0.0
O177 O 0.51176 0.7872 0.33135 0.0
O178 O 0.32331 0.58903 0.33612 0.0
O179 O 0.28649 0.54892 0.2647 0.0
O180 O 0.4358 0.66836 0.15032 0.0
O181 O 0.49399 0.72533 0.21696 0.0
O182 O 0.28083 0.54713 0.21264 0.0
O183 O 0.24795 0.57737 0.15887 0.0
C184 C 0.23566 0.52454 0.17813 0.0
O185 O 0.34479 0.73233 0.26398 0.0
O186 O 0.34659 0.7362 0.33892 0.0
C187 C 0.39403 0.79326 0.18299 0.0
C188 C 0.33181 0.74738 0.30179 0.0
Zn189 Zn 0.61882 0.31221 0.83906 0.0
Zn190 Zn 0.63876 0.34499 0.66958 0.0
Zn191 Zn 0.62584 0.34002 0.75551 0.0
C192 C 0.7498 0.50608 0.69628 0.0
C193 C 0.4796 0.26187 0.68943 0.0
O194 O 0.65052 0.27294 0.77483 0.0
O195 O 0.63921 0.25351 0.84921 0.0
C196 C 0.74193 0.48448 0.82701 0.0
O197 O 0.72043 0.47252 0.73589 0.0
O198 O 0.7258 0.46278 0.66178 0.0
O199 O 0.52669 0.28487 0.65732 0.0
O200 O 0.50347 0.27482 0.73098 0.0
O201 O 0.70865 0.42886 0.8556 0.0
O202 O 0.72019 0.46539 0.78491 0.0
O203 O 0.50543 0.27837 0.77997 0.0
O204 O 0.50833 0.25423 0.85156 0.0
C205 C 0.4727 0.25105 0.81981 0.0
O206 O 0.65463 0.28202 0.72785 0.0
O207 O 0.66871 0.29636 0.65297 0.0
C208 C 0.65376 0.24575 0.8106 0.0
C209 C 0.67063 0.27201 0.68934 0.0
H210 H 0.35151 0.0042 0.19708 0.0
H211 H 0.14302 0.80804 0.11169 0.0
H212 H 0.18577 0.74917 0.10848 0.0
H213 H 0.27829 0.74974 0.13298 0.0
H214 H 0.4756 0.93479 0.22607 0.0
H215 H 0.44145 0.00246 0.22346 0.0
C216 C 0.3149 0.94818 0.17805 0.0
C217 C 0.24416 0.91062 0.1546 0.0
C218 C 0.33847 0.91351 0.17741 0.0
C219 C 0.19836 0.83885 0.12948 0.0
C220 C 0.22251 0.80494 0.1278 0.0
C221 C 0.31443 0.80575 0.15199 0.0
C222 C 0.37996 0.83875 0.17901 0.0
C223 C 0.29211 0.84154 0.15181 0.0
C224 C 0.4256 0.9097 0.20464 0.0
C225 C 0.40587 0.94786 0.20322 0.0
H226 H 0.12078 0.02156 0.6168 0.0
H227 H 0.26002 0.2079 0.51327 0.0
H228 H 0.38388 0.29669 0.55959 0.0
H229 H 0.45604 0.31279 0.62306 0.0
H230 H 0.32433 0.12492 0.72505 0.0
H231 H 0.19348 0.04623 0.68711 0.0
C232 C 0.17796 0.08269 0.60533 0.0
C233 C 0.18129 0.10969 0.56239 0.0
C234 C 0.25003 0.13257 0.63176 0.0
C235 C 0.25593 0.18733 0.54678 0.0
C236 C 0.32673 0.23773 0.57311 0.0
C237 C 0.39847 0.25535 0.63761 0.0
C238 C 0.3997 0.22403 0.67632 0.0
C239 C 0.325 0.20986 0.61478 0.0
C240 C 0.32486 0.15022 0.69523 0.0
C241 C 0.25029 0.10493 0.67318 0.0
H242 H 0.11588 0.27193 0.02879 0.0
H243 H 0.01179 0.11664 0.14657 0.0
H244 H 0.0603 0.22429 0.1951 0.0
H245 H 0.14008 0.36733 0.20554 0.0
H246 H 0.24187 0.52093 0.0872 0.0
H247 H 0.18689 0.41063 0.03843 0.0
C248 C 0.10255 0.26121 0.06487 0.0
C249 C 0.06103 0.18647 0.08372 0.0
C250 C 0.13102 0.32391 0.09309 0.0
C251 C 0.0446 0.17392 0.13084 0.0
C252 C 0.07243 0.23565 0.15894 0.0
C253 C 0.14974 0.3762 0.16915 0.0
C254 C 0.1947 0.45221 0.1503 0.0
C255 C 0.11724 0.31173 0.14068 0.0
C256 C 0.2062 0.46257 0.1028 0.0
C257 C 0.17516 0.39956 0.07463 0.0
H258 H 0.69395 0.04566 0.68283 0.0
H259 H 0.9382 0.26768 0.63464 0.0
H260 H 0.91027 0.34051 0.64269 0.0
H261 H 0.81398 0.33887 0.66236 0.0
H262 H 0.57117 0.11514 0.71018 0.0
H263 H 0.60165 0.04475 0.7044 0.0
C264 C 0.74221 0.11055 0.67504 0.0
C265 C 0.81863 0.15149 0.6588 0.0
C266 C 0.72581 0.15137 0.67984 0.0
C267 C 0.87892 0.23477 0.64721 0.0
C268 C 0.86301 0.27634 0.65195 0.0
C269 C 0.76837 0.27486 0.67174 0.0
C270 C 0.691 0.23185 0.68739 0.0
C271 C 0.7864 0.23499 0.66801 0.0
C272 C 0.63147 0.14906 0.69892 0.0
C273 C 0.64878 0.10902 0.69536 0.0
H274 H 0.71512 0.75399 0.04167 0.0
H275 H 0.90224 0.98567 0.11114 0.0
H276 H 0.80509 0.93709 0.16943 0.0
H277 H 0.65959 0.83603 0.19287 0.0
H278 H 0.47344 0.60375 0.12304 0.0
H279 H 0.57663 0.64393 0.0739 0.0
C280 C 0.73485 0.79313 0.07012 0.0
C281 C 0.81588 0.8737 0.07167 0.0
C282 C 0.67807 0.76456 0.10357 0.0
C283 C 0.84081 0.92354 0.10891 0.0
C284 C 0.78471 0.89572 0.14235 0.0
C285 C 0.64233 0.79328 0.16809 0.0
C286 C 0.55898 0.71782 0.16098 0.0
C287 C 0.7022 0.81737 0.13905 0.0
C288 C 0.5373 0.66283 0.12868 0.0
C289 C 0.59616 0.68587 0.10027 0.0
H290 H 0.85634 0.80625 0.62688 0.0
H291 H -0.00063 0.8194 0.53654 0.0
H292 H 0.96198 0.71318 0.58036 0.0
H293 H 0.87841 0.60818 0.6398 0.0
H294 H 0.73198 0.59219 0.72859 0.0
H295 H 0.78624 0.713 0.69215 0.0
C296 C 0.88132 0.788 0.61733 0.0
C297 C 0.92985 0.82063 0.57796 0.0
C298 C 0.86035 0.72757 0.64313 0.0
C299 C 0.95987 0.79389 0.5658 0.0
C300 C 0.93945 0.73388 0.59124 0.0
C301 C 0.86065 0.63303 0.65217 0.0
C302 C 0.80223 0.59222 0.68719 0.0
C303 C 0.8885 0.69927 0.62943 0.0
C304 C 0.77836 0.62378 0.70246 0.0
C305 C 0.80812 0.69176 0.68097 0.0
H306 H 0.20195 0.88106 0.28022 0.0
H307 H 0.32653 0.99177 0.40878 0.0
H308 H 0.36081 0.92457 0.40752 0.0
H309 H 0.36332 0.84239 0.36762 0.0
H310 H 0.23583 0.72701 0.2401 0.0
H311 H 0.19451 0.78796 0.24293 0.0
C312 C 0.23621 0.88991 0.30793 0.0
C313 C 0.26239 0.94159 0.34444 0.0
C314 C 0.25597 0.85126 0.30679 0.0
C315 C 0.30558 0.95184 0.38057 0.0
C316 C 0.32562 0.91396 0.37965 0.0
C317 C 0.32639 0.8304 0.34037 0.0
C318 C 0.30471 0.78219 0.30294 0.0
C319 C 0.30253 0.86492 0.34254 0.0
C320 C 0.25572 0.76623 0.26841 0.0
C321 C 0.23153 0.80047 0.27029 0.0
H322 H 0.2826 0.24733 0.95196 0.0
H323 H 0.10281 0.987 0.93605 0.0
H324 H 0.1831 0.00876 0.8758 0.0
H325 H 0.313 0.10307 0.83305 0.0
H326 H 0.48704 0.36299 0.84307 0.0
H327 H 0.3996 0.34069 0.8983 0.0
C328 C 0.26053 0.19561 0.93461 0.0
C329 C 0.18573 0.11568 0.94779 0.0
C330 C 0.30591 0.20863 0.89848 0.0
C331 C 0.1586 0.04907 0.92571 0.0
C332 C 0.20485 0.06147 0.89124 0.0
C333 C 0.3295 0.15433 0.84563 0.0
C334 C 0.40553 0.23436 0.83367 0.0
C335 C 0.27911 0.14102 0.87762 0.0
C336 C 0.42762 0.30066 0.85105 0.0
C337 C 0.37862 0.28806 0.88346 0.0
H338 H 0.1365 0.20388 0.36329 0.0
H339 H 0.10878 0.26491 0.4906 0.0
H340 H 0.16246 0.38515 0.45583 0.0
H341 H 0.21627 0.47234 0.3899 0.0
H342 H 0.23847 0.40949 0.26132 0.0
H343 H 0.17969 0.28482 0.29515 0.0
C344 C 0.13925 0.24094 0.38337 0.0
C345 C 0.11579 0.22251 0.42944 0.0
C346 C 0.16691 0.30849 0.36258 0.0
C347 C 0.12493 0.27596 0.45493 0.0
C348 C 0.15533 0.34485 0.43505 0.0
C349 C 0.20727 0.43081 0.36901 0.0
C350 C 0.23127 0.44972 0.32313 0.0
C351 C 0.17576 0.36116 0.38888 0.0
C352 C 0.219 0.39536 0.29647 0.0
C353 C 0.18685 0.32502 0.31606 0.0
H354 H 0.65054 -0.00213 0.82544 0.0
H355 H 0.91014 0.22159 0.84456 0.0
H356 H 0.89201 0.30194 0.83061 0.0
H357 H 0.80019 0.30769 0.81641 0.0
H358 H 0.54009 0.08258 0.80241 0.0
H359 H 0.56032 0.00334 0.81001 0.0
C360 C 0.70335 0.06428 0.82619 0.0
C361 C 0.78162 0.10374 0.83603 0.0
C362 C 0.69222 0.10965 0.81864 0.0
C363 C 0.84917 0.18979 0.83755 0.0
C364 C 0.83884 0.23565 0.82927 0.0
C365 C 0.74852 0.24137 0.81403 0.0
C366 C 0.66904 0.20067 0.80752 0.0
C367 C 0.7605 0.19622 0.82009 0.0
C368 C 0.60188 0.11481 0.80625 0.0
C369 C 0.61341 0.06966 0.81101 0.0
H370 H 0.7225 0.77167 0.44022 0.0
H371 H 0.90385 0.0331 0.42829 0.0
H372 H 0.82304 0.01388 0.36928 0.0
H373 H 0.69659 0.92204 0.3235 0.0
H374 H 0.52219 0.66166 0.3287 0.0
H375 H 0.60478 0.68066 0.38662 0.0
C376 C 0.74398 0.82408 0.42451 0.0
C377 C 0.81919 0.90351 0.43824 0.0
C378 C 0.69886 0.81276 0.38893 0.0
C379 C 0.84664 0.97127 0.41784 0.0
C380 C 0.80055 0.96042 0.38399 0.0
C381 C 0.6789 0.87001 0.33585 0.0
C382 C 0.6045 0.79082 0.32134 0.0
C383 C 0.72676 0.88151 0.36907 0.0
C384 C 0.58066 0.72343 0.33846 0.0
C385 C 0.62672 0.7341 0.37244 0.0
H386 H 0.95666 0.84668 0.88082 0.0
H387 H 0.8854 0.7389 0.01409 0.0
H388 H 0.82163 0.61275 0.98111 0.0
H389 H 0.77418 0.52889 0.91514 0.0
H390 H 0.8392 0.63027 0.78048 0.0
H391 H 0.9153 0.76285 0.81301 0.0
C392 C 0.92507 0.79472 0.90234 0.0
C393 C 0.92174 0.80078 0.94959 0.0
C394 C 0.88697 0.72132 0.88292 0.0
C395 C 0.8868 0.73541 0.97757 0.0
C396 C 0.85028 0.66306 0.95872 0.0
C397 C 0.80528 0.57976 0.8925 0.0
C398 C 0.79848 0.56863 0.84503 0.0
C399 C 0.84809 0.65472 0.91148 0.0
C400 C 0.84081 0.63624 0.81683 0.0
C401 C 0.88483 0.71214 0.83557 0.0
loop_
_geom_bond_atom_site_label_1
_geom_bond_atom_site_label_2
_geom_bond_distance
_geom_bond_site_symmetry_2
_ccdc_geom_bond_type
Gd0 N31 2.661 1_655 S
Gd0 N37 2.601 . S
Gd0 O44 2.545 1_545 S
Gd0 O45 2.606 1_546 S
Gd0 O47 2.429 1_545 S
Gd0 O48 2.545 1_545 S
Gd0 O49 2.412 . S
Gd0 O51 2.362 1_655 S
Gd0 O52 2.324 1_656 S
Gd0 C59 2.828 . S
Gd1 N10 2.661 1_455 S
Gd1 N14 2.601 . S
Gd1 O45 2.362 1_455 S
Gd1 O46 2.324 1_454 S
Gd1 O50 2.545 1_565 S
Gd1 O51 2.606 1_564 S
Gd1 O53 2.429 1_565 S
Gd1 O54 2.545 1_565 S
Gd1 O55 2.412 . S
Gd1 C68 2.828 . S
C2 C5 1.417 . S
C2 C7 1.431 . S
C2 C8 1.412 . S
C3 C6 1.437 . S
C3 C7 1.317 . S
C3 H22 0.929 . S
C4 C5 1.426 . S
C4 C6 1.413 . S
C4 N14 1.359 1_655 S
C5 C2 1.417 . S
C5 C4 1.426 . S
C5 N10 1.350 . S
C6 C3 1.437 . S
C6 C4 1.413 . S
C6 C16 1.391 1_655 S
C7 C2 1.431 . S
C7 C3 1.317 . S
C7 H18 0.930 . S
C8 C2 1.412 . S
C8 C9 1.355 . S
C8 H20 0.930 . S
C9 C8 1.355 . S
C9 C11 1.402 . S
C9 H21 0.930 . S
N10 Gd1 2.661 1_655 S
N10 C5 1.350 . S
N10 C11 1.307 . S
C11 C9 1.402 . S
C11 N10 1.307 . S
C11 H12 0.930 . S
H12 C11 0.930 . S
C13 N14 1.334 1_545 S
C13 C15 1.394 . S
C13 H17 0.930 . S
N14 Gd1 2.601 . S
N14 C4 1.359 1_455 S
N14 C13 1.334 1_565 S
C15 C13 1.394 . S
C15 C16 1.359 1_545 S
C15 H27 0.930 . S
C16 C6 1.391 1_455 S
C16 C15 1.359 1_565 S
C16 H28 0.930 . S
H17 C13 0.930 . S
H18 C7 0.930 . S
H19 C36 0.930 . S
H20 C8 0.930 . S
H21 C9 0.930 . S
H22 C3 0.929 . S
H23 C41 0.930 . S
H24 C32 0.930 . S
H25 C33 0.930 . S
H26 C57 0.929 . S
H27 C15 0.930 . S
H28 C16 0.930 . S
H29 C58 0.930 . S
H30 C39 0.930 . S
N31 Gd0 2.661 1_455 S
N31 C35 1.350 . S
N31 C36 1.307 . S
C32 H24 0.930 . S
C32 C33 1.355 . S
C32 C34 1.412 . S
C33 H25 0.930 . S
C33 C32 1.355 . S
C33 C36 1.402 . S
C34 C32 1.412 . S
C34 C35 1.417 . S
C34 C58 1.431 . S
C35 N31 1.350 . S
C35 C34 1.417 . S
C35 C38 1.426 . S
C36 H19 0.930 . S
C36 N31 1.307 . S
C36 C33 1.402 . S
N37 Gd0 2.601 . S
N37 C38 1.359 1_655 S
N37 C41 1.334 1_545 S
C38 C35 1.426 . S
C38 N37 1.359 1_455 S
C38 C42 1.413 . S
C39 H30 0.930 . S
C39 C40 1.359 1_565 S
C39 C41 1.394 . S
C40 C39 1.359 1_545 S
C40 C42 1.391 1_655 S
C40 H43 0.929 . S
C41 H23 0.930 . S
C41 N37 1.334 1_565 S
C41 C39 1.394 . S
C42 C38 1.413 . S
C42 C40 1.391 1_455 S
C42 C57 1.437 . S
H43 C40 0.929 . S
O44 Gd0 2.545 1_565 S
O44 C59 1.258 1_565 S
O45 Gd0 2.606 1_564 S
O45 Gd1 2.362 1_655 S
O45 C56 1.284 . S
O46 Gd1 2.324 1_656 S
O46 C66 1.254 . S
O47 Gd0 2.429 1_565 S
O47 C66 1.268 . S
O48 Gd0 2.545 1_565 S
O48 C56 1.250 1_556 S
O49 Gd0 2.412 . S
O49 C59 1.252 . S
O50 Gd1 2.545 1_545 S
O50 C68 1.258 1_545 S
O51 Gd0 2.362 1_455 S
O51 Gd1 2.606 1_546 S
O51 C67 1.284 . S
O52 Gd0 2.324 1_454 S
O52 C75 1.254 . S
O53 Gd1 2.429 1_545 S
O53 C75 1.268 . S
O54 Gd1 2.545 1_545 S
O54 C67 1.250 1_554 S
O55 Gd1 2.412 . S
O55 C68 1.252 . S
C56 O45 1.284 . S
C56 O48 1.250 1_554 S
C57 H26 0.929 . S
C57 C42 1.437 . S
C57 C58 1.317 . S
C58 H29 0.930 . S
C58 C34 1.431 . S
C58 C57 1.317 . S
C59 Gd0 2.828 . S
C59 O44 1.258 1_545 S
C59 O49 1.252 . S
C59 C60 1.497 . S
C60 C59 1.497 . S
C60 C61 1.395 . S
C60 C62 1.380 . S
C61 C60 1.395 . S
C61 C64 1.398 . S
C61 H76 0.930 . S
C62 C60 1.380 . S
C62 C63 1.391 . S
C62 H77 0.930 . S
C63 C62 1.391 . S
C63 C65 1.387 . S
C64 C61 1.398 . S
C64 C65 1.380 . S
C64 H78 0.930 . S
C65 C63 1.387 . S
C65 C64 1.380 . S
C65 H79 0.930 . S
C66 O46 1.254 . S
C66 O47 1.268 . S
C67 O51 1.284 . S
C67 O54 1.250 1_556 S
C68 Gd1 2.828 . S
C68 O50 1.258 1_565 S
C68 O55 1.252 . S
C68 C69 1.497 . S
C69 C68 1.497 . S
C69 C70 1.395 . S
C69 C71 1.380 . S
C70 C69 1.395 . S
C70 C73 1.398 . S
C70 H80 0.930 . S
C71 C69 1.380 . S
C71 C72 1.391 . S
C71 H81 0.930 . S
C72 C71 1.391 . S
C72 C74 1.387 . S
C73 C70 1.398 . S
C73 C74 1.380 . S
C73 H82 0.930 . S
C74 C72 1.387 . S
C74 C73 1.380 . S
C74 H83 0.930 . S
C75 O52 1.254 . S
C75 O53 1.268 . S
H76 C61 0.930 . S
H77 C62 0.930 . S
H78 C64 0.930 . S
H79 C65 0.930 . S
H80 C70 0.930 . S
H81 C71 0.930 . S
H82 C73 0.930 . S
H83 C74 0.930 . S
Gd84 N115 2.661 1_455 S
Gd84 N121 2.601 1_565 S
Gd84 O128 2.545 1_565 S
Gd84 O129 2.606 1_565 S
Gd84 O131 2.429 1_565 S
Gd84 O132 2.545 1_565 S
Gd84 O133 2.412 . S
Gd84 O135 2.362 1_455 S
Gd84 O136 2.324 1_455 S
Gd84 C143 2.828 . S
Gd85 N94 2.661 1_655 S
Gd85 N98 2.601 1_655 S
Gd85 O129 2.362 1_655 S
Gd85 O130 2.324 1_655 S
Gd85 O134 2.545 . S
Gd85 O135 2.606 1_545 S
Gd85 O137 2.429 1_545 S
Gd85 O138 2.545 1_545 S
Gd85 O139 2.412 . S
Gd85 C152 2.828 . S
C86 C89 1.417 . S
C86 C91 1.431 . S
C86 C92 1.412 . S
C87 C90 1.437 . S
C87 C91 1.317 . S
C87 H106 0.929 . S
C88 C89 1.426 . S
C88 C90 1.413 . S
C88 N98 1.359 . S
C89 C86 1.417 . S
C89 C88 1.426 . S
C89 N94 1.350 . S
C90 C87 1.437 . S
C90 C88 1.413 . S
C90 C100 1.391 . S
C91 C86 1.431 . S
C91 C87 1.317 . S
C91 H102 0.930 . S
C92 C86 1.412 . S
C92 C93 1.355 . S
C92 H104 0.930 . S
C93 C92 1.355 . S
C93 C95 1.402 . S
C93 H105 0.930 . S
N94 Gd85 2.661 1_455 S
N94 C89 1.350 . S
N94 C95 1.307 . S
C95 C93 1.402 . S
C95 N94 1.307 . S
C95 H96 0.930 . S
H96 C95 0.930 . S
C97 N98 1.334 1_665 S
C97 C99 1.394 . S
C97 H101 0.930 . S
N98 Gd85 2.601 1_455 S
N98 C88 1.359 . S
N98 C97 1.334 1_445 S
C99 C97 1.394 . S
C99 C100 1.359 1_665 S
C99 H111 0.930 . S
C100 C90 1.391 . S
C100 C99 1.359 1_445 S
C100 H112 0.929 . S
H101 C97 0.930 . S
H102 C91 0.930 . S
H103 C120 0.930 . S
H104 C92 0.930 . S
H105 C93 0.930 . S
H106 C87 0.929 . S
H107 C125 0.930 . S
H108 C116 0.930 . S
H109 C117 0.930 . S
H110 C141 0.929 . S
H111 C99 0.930 . S
H112 C100 0.929 . S
H113 C142 0.930 . S
H114 C123 0.930 . S
N115 Gd84 2.661 1_655 S
N115 C119 1.350 . S
N115 C120 1.307 . S
C116 H108 0.930 . S
C116 C117 1.355 . S
C116 C118 1.412 . S
C117 H109 0.930 . S
C117 C116 1.355 . S
C117 C120 1.402 . S
C118 C116 1.412 . S
C118 C119 1.417 . S
C118 C142 1.431 . S
C119 N115 1.350 . S
C119 C118 1.417 . S
C119 C122 1.426 . S
C120 H103 0.930 . S
C120 N115 1.307 . S
C120 C117 1.402 . S
N121 Gd84 2.601 1_545 S
N121 C122 1.359 1_445 S
N121 C125 1.334 . S
C122 C119 1.426 . S
C122 N121 1.359 1_665 S
C122 C126 1.413 . S
C123 H114 0.930 . S
C123 C124 1.359 . S
C123 C125 1.394 . S
C124 C123 1.359 . S
C124 C126 1.391 1_445 S
C124 H127 0.929 . S
C125 H107 0.930 . S
C125 N121 1.334 . S
C125 C123 1.394 . S
C126 C122 1.413 . S
C126 C124 1.391 1_665 S
C126 C141 1.437 . S
H127 C124 0.929 . S
O128 Gd84 2.545 1_545 S
O128 C143 1.258 1_545 S
O129 Gd84 2.606 1_545 S
O129 Gd85 2.362 1_455 S
O129 C140 1.284 . S
O130 Gd85 2.324 1_455 S
O130 C150 1.254 . S
O131 Gd84 2.429 1_545 S
O131 C150 1.268 . S
O132 Gd84 2.545 1_545 S
O132 C140 1.250 . S
O133 Gd84 2.412 . S
O133 C143 1.252 . S
O134 Gd85 2.545 . S
O134 C152 1.258 . S
O135 Gd84 2.362 1_655 S
O135 Gd85 2.606 1_565 S
O135 C151 1.284 . S
O136 Gd84 2.324 1_655 S
O136 C159 1.254 . S
O137 Gd85 2.429 1_565 S
O137 C159 1.268 . S
O138 Gd85 2.545 1_565 S
O138 C151 1.250 . S
O139 Gd85 2.412 . S
O139 C152 1.252 . S
C140 O129 1.284 . S
C140 O132 1.250 . S
C141 H110 0.929 . S
C141 C126 1.437 . S
C141 C142 1.317 . S
C142 H113 0.930 . S
C142 C118 1.431 . S
C142 C141 1.317 . S
C143 Gd84 2.828 . S
C143 O128 1.258 1_565 S
C143 O133 1.252 . S
C143 C144 1.497 . S
C144 C143 1.497 . S
C144 C145 1.395 . S
C144 C146 1.380 . S
C145 C144 1.395 . S
C145 C148 1.398 . S
C145 H160 0.930 1_565 S
C146 C144 1.380 . S
C146 C147 1.391 . S
C146 H161 0.930 . S
C147 C146 1.391 . S
C147 C149 1.387 . S
C148 C145 1.398 . S
C148 C149 1.380 . S
C148 H162 0.930 . S
C149 C147 1.387 . S
C149 C148 1.380 . S
C149 H163 0.930 . S
C150 O130 1.254 . S
C150 O131 1.268 . S
C151 O135 1.284 . S
C151 O138 1.250 . S
C152 Gd85 2.828 . S
C152 O134 1.258 . S
C152 O139 1.252 . S
C152 C153 1.497 . S
C153 C152 1.497 . S
C153 C154 1.395 . S
C153 C155 1.380 . S
C154 C153 1.395 . S
C154 C157 1.398 . S
C154 H164 0.930 . S
C155 C153 1.380 . S
C155 C156 1.391 . S
C155 H165 0.930 . S
C156 C155 1.391 . S
C156 C158 1.387 . S
C157 C154 1.398 . S
C157 C158 1.380 . S
C157 H166 0.930 . S
C158 C156 1.387 . S
C158 C157 1.380 . S
C158 H167 0.930 . S
C159 O136 1.254 . S
C159 O137 1.268 . S
H160 C145 0.930 1_545 S
H161 C146 0.930 . S
H162 C148 0.930 . S
H163 C149 0.930 . S
H164 C154 0.930 . S
H165 C155 0.930 . S
H166 C157 0.930 . S
H167 C158 0.930 . S
Zn168 O174 1.920 . S
Zn168 O180 1.898 . S
Zn168 O183 1.905 . S
Zn169 O177 1.905 . S
Zn169 O178 1.898 . S
Zn169 O186 1.920 . S
Zn170 O173 2.080 . S
Zn170 O176 2.114 . S
Zn170 O179 2.120 . S
Zn170 O181 2.120 . S
Zn170 O182 2.114 . S
Zn170 O185 2.080 . S
C171 O176 1.166 . S
C171 O177 1.182 . S
C172 O178 1.167 . S
C172 O179 1.299 . S
O173 Zn170 2.080 . S
O173 C187 1.305 . S
O174 Zn168 1.920 . S
O174 C187 1.234 . S
C175 O180 1.167 . S
C175 O181 1.299 . S
O176 Zn170 2.114 . S
O176 C171 1.166 . S
O177 Zn169 1.905 . S
O177 C171 1.182 . S
O178 Zn169 1.898 . S
O178 C172 1.167 . S
O179 Zn170 2.120 . S
O179 C172 1.299 . S
O180 Zn168 1.898 . S
O180 C175 1.167 . S
O181 Zn170 2.120 . S
O181 C175 1.299 . S
O182 Zn170 2.114 . S
O182 C184 1.166 . S
O183 Zn168 1.905 . S
O183 C184 1.182 . S
C184 O182 1.166 . S
C184 O183 1.182 . S
O185 Zn170 2.080 . S
O185 C188 1.305 . S
O186 Zn169 1.920 . S
O186 C188 1.234 . S
C187 O173 1.305 . S
C187 O174 1.234 . S
C188 O185 1.305 . S
C188 O186 1.234 . S
Zn189 O195 1.920 . S
Zn189 O201 1.898 . S
Zn189 O204 1.905 . S
Zn190 O198 1.905 . S
Zn190 O199 1.898 . S
Zn190 O207 1.920 . S
Zn191 O194 2.080 . S
Zn191 O197 2.114 . S
Zn191 O200 2.120 . S
Zn191 O202 2.120 . S
Zn191 O203 2.114 . S
Zn191 O206 2.080 . S
C192 O197 1.166 . S
C192 O198 1.182 . S
C193 O199 1.167 . S
C193 O200 1.299 . S
O194 Zn191 2.080 . S
O194 C208 1.305 . S
O195 Zn189 1.920 . S
O195 C208 1.234 . S
C196 O201 1.167 . S
C196 O202 1.299 . S
O197 Zn191 2.114 . S
O197 C192 1.166 . S
O198 Zn190 1.905 . S
O198 C192 1.182 . S
O199 Zn190 1.898 . S
O199 C193 1.167 . S
O200 Zn191 2.120 . S
O200 C193 1.299 . S
O201 Zn189 1.898 . S
O201 C196 1.167 . S
O202 Zn191 2.120 . S
O202 C196 1.299 . S
O203 Zn191 2.114 . S
O203 C205 1.166 . S
O204 Zn189 1.905 . S
O204 C205 1.182 . S
C205 O203 1.166 . S
C205 O204 1.182 . S
O206 Zn191 2.080 . S
O206 C209 1.305 . S
O207 Zn190 1.920 . S
O207 C209 1.234 . S
C208 O194 1.305 . S
C208 O195 1.234 . S
C209 O206 1.305 . S
C209 O207 1.234 . S
H210 C216 0.930 . S
H211 C219 0.930 . S
H212 C220 0.930 . S
H213 C221 0.930 . S
H214 C224 0.930 . S
H215 C225 0.930 . S
C216 H210 0.930 . S
C216 C217 1.355 . S
C216 C218 1.415 . S
C217 C216 1.355 . S
C217 C219 1.419 . S
C218 C216 1.415 . S
C218 C223 1.425 . S
C218 C225 1.409 . S
C219 H211 0.930 . S
C219 C217 1.419 . S
C219 C220 1.362 . S
C220 H212 0.930 . S
C220 C219 1.362 . S
C220 C223 1.409 . S
C221 H213 0.930 . S
C221 C222 1.355 . S
C221 C223 1.415 . S
C222 C221 1.355 . S
C222 C224 1.419 . S
C223 C218 1.425 . S
C223 C220 1.409 . S
C223 C221 1.415 . S
C224 H214 0.930 . S
C224 C222 1.419 . S
C224 C225 1.362 . S
C225 H215 0.930 . S
C225 C218 1.409 . S
C225 C224 1.362 . S
H226 C232 0.930 . S
H227 C235 0.930 . S
H228 C236 0.930 . S
H229 C237 0.930 . S
H230 C240 0.930 . S
H231 C241 0.930 . S
C232 H226 0.930 . S
C232 C233 1.355 . S
C232 C234 1.415 . S
C233 C232 1.355 . S
C233 C235 1.419 . S
C234 C232 1.415 . S
C234 C239 1.425 . S
C234 C241 1.409 . S
C235 H227 0.930 . S
C235 C233 1.419 . S
C235 C236 1.362 . S
C236 H228 0.930 . S
C236 C235 1.362 . S
C236 C239 1.409 . S
C237 H229 0.930 . S
C237 C238 1.355 . S
C237 C239 1.415 . S
C238 C237 1.355 . S
C238 C240 1.419 . S
C239 C234 1.425 . S
C239 C236 1.409 . S
C239 C237 1.415 . S
C240 H230 0.930 . S
C240 C238 1.419 . S
C240 C241 1.362 . S
C241 H231 0.930 . S
C241 C234 1.409 . S
C241 C240 1.362 . S
H242 C248 0.930 . S
H243 C251 0.930 . S
H244 C252 0.930 . S
H245 C253 0.930 . S
H246 C256 0.930 . S
H247 C257 0.930 . S
C248 H242 0.930 . S
C248 C249 1.355 . S
C248 C250 1.415 . S
C249 C248 1.355 . S
C249 C251 1.419 . S
C250 C248 1.415 . S
C250 C255 1.425 . S
C250 C257 1.409 . S
C251 H243 0.930 . S
C251 C249 1.419 . S
C251 C252 1.362 . S
C252 H244 0.930 . S
C252 C251 1.362 . S
C252 C255 1.409 . S
C253 H245 0.930 . S
C253 C254 1.355 . S
C253 C255 1.415 . S
C254 C253 1.355 . S
C254 C256 1.419 . S
C255 C250 1.425 . S
C255 C252 1.409 . S
C255 C253 1.415 . S
C256 H246 0.930 . S
C256 C254 1.419 . S
C256 C257 1.362 . S
C257 H247 0.930 . S
C257 C250 1.409 . S
C257 C256 1.362 . S
H258 C264 0.930 . S
H259 C267 0.930 . S
H260 C268 0.930 . S
H261 C269 0.930 . S
H262 C272 0.930 . S
H263 C273 0.930 . S
C264 H258 0.930 . S
C264 C265 1.355 . S
C264 C266 1.415 . S
C265 C264 1.355 . S
C265 C267 1.419 . S
C266 C264 1.415 . S
C266 C271 1.425 . S
C266 C273 1.409 . S
C267 H259 0.930 . S
C267 C265 1.419 . S
C267 C268 1.362 . S
C268 H260 0.930 . S
C268 C267 1.362 . S
C268 C271 1.409 . S
C269 H261 0.930 . S
C269 C270 1.355 . S
C269 C271 1.415 . S
C270 C269 1.355 . S
C270 C272 1.419 . S
C271 C266 1.425 . S
C271 C268 1.409 . S
C271 C269 1.415 . S
C272 H262 0.930 . S
C272 C270 1.419 . S
C272 C273 1.362 . S
C273 H263 0.930 . S
C273 C266 1.409 . S
C273 C272 1.362 . S
H274 C280 0.930 . S
H275 C283 0.930 . S
H276 C284 0.930 . S
H277 C285 0.930 . S
H278 C288 0.930 . S
H279 C289 0.930 . S
C280 H274 0.930 . S
C280 C281 1.355 . S
C280 C282 1.415 . S
C281 C280 1.355 . S
C281 C283 1.419 . S
C282 C280 1.415 . S
C282 C287 1.425 . S
C282 C289 1.409 . S
C283 H275 0.930 . S
C283 C281 1.419 . S
C283 C284 1.362 . S
C284 H276 0.930 . S
C284 C283 1.362 . S
C284 C287 1.409 . S
C285 H277 0.930 . S
C285 C286 1.355 . S
C285 C287 1.415 . S
C286 C285 1.355 . S
C286 C288 1.419 . S
C287 C282 1.425 . S
C287 C284 1.409 . S
C287 C285 1.415 . S
C288 H278 0.930 . S
C288 C286 1.419 . S
C288 C289 1.362 . S
C289 H279 0.930 . S
C289 C282 1.409 . S
C289 C288 1.362 . S
H290 C296 0.930 . S
H291 C299 0.930 . S
H292 C300 0.930 . S
H293 C301 0.930 . S
H294 C304 0.930 . S
H295 C305 0.930 . S
C296 H290 0.930 . S
C296 C297 1.355 . S
C296 C298 1.415 . S
C297 C296 1.355 . S
C297 C299 1.419 . S
C298 C296 1.415 . S
C298 C303 1.425 . S
C298 C305 1.409 . S
C299 H291 0.930 . S
C299 C297 1.419 . S
C299 C300 1.362 . S
C300 H292 0.930 . S
C300 C299 1.362 . S
C300 C303 1.409 . S
C301 H293 0.930 . S
C301 C302 1.355 . S
C301 C303 1.415 . S
C302 C301 1.355 . S
C302 C304 1.419 . S
C303 C298 1.425 . S
C303 C300 1.409 . S
C303 C301 1.415 . S
C304 H294 0.930 . S
C304 C302 1.419 . S
C304 C305 1.362 . S
C305 H295 0.930 . S
C305 C298 1.409 . S
C305 C304 1.362 . S
H306 C312 0.930 . S
H307 C315 0.930 . S
H308 C316 0.930 . S
H309 C317 0.930 . S
H310 C320 0.930 . S
H311 C321 0.930 . S
C312 H306 0.930 . S
C312 C313 1.355 . S
C312 C314 1.415 . S
C313 C312 1.355 . S
C313 C315 1.419 . S
C314 C312 1.415 . S
C314 C319 1.425 . S
C314 C321 1.409 . S
C315 H307 0.930 . S
C315 C313 1.419 . S
C315 C316 1.362 . S
C316 H308 0.930 . S
C316 C315 1.362 . S
C316 C319 1.409 . S
C317 H309 0.930 . S
C317 C318 1.355 . S
C317 C319 1.415 . S
C318 C317 1.355 . S
C318 C320 1.419 . S
C319 C314 1.425 . S
C319 C316 1.409 . S
C319 C317 1.415 . S
C320 H310 0.930 . S
C320 C318 1.419 . S
C320 C321 1.362 . S
C321 H311 0.930 . S
C321 C314 1.409 . S
C321 C320 1.362 . S
H322 C328 0.930 . S
H323 C331 0.930 1_565 S
H324 C332 0.930 . S
H325 C333 0.930 . S
H326 C336 0.930 . S
H327 C337 0.930 . S
C328 H322 0.930 . S
C328 C329 1.355 . S
C328 C330 1.415 . S
C329 C328 1.355 . S
C329 C331 1.419 . S
C330 C328 1.415 . S
C330 C335 1.425 . S
C330 C337 1.409 . S
C331 H323 0.930 1_545 S
C331 C329 1.419 . S
C331 C332 1.362 . S
C332 H324 0.930 . S
C332 C331 1.362 . S
C332 C335 1.409 . S
C333 H325 0.930 . S
C333 C334 1.355 . S
C333 C335 1.415 . S
C334 C333 1.355 . S
C334 C336 1.419 . S
C335 C330 1.425 . S
C335 C332 1.409 . S
C335 C333 1.415 . S
C336 H326 0.930 . S
C336 C334 1.419 . S
C336 C337 1.362 . S
C337 H327 0.930 . S
C337 C330 1.409 . S
C337 C336 1.362 . S
H338 C344 0.930 . S
H339 C347 0.930 . S
H340 C348 0.930 . S
H341 C349 0.930 . S
H342 C352 0.930 . S
H343 C353 0.930 . S
C344 H338 0.930 . S
C344 C345 1.355 . S
C344 C346 1.415 . S
C345 C344 1.355 . S
C345 C347 1.419 . S
C346 C344 1.415 . S
C346 C351 1.425 . S
C346 C353 1.409 . S
C347 H339 0.930 . S
C347 C345 1.419 . S
C347 C348 1.362 . S
C348 H340 0.930 . S
C348 C347 1.362 . S
C348 C351 1.409 . S
C349 H341 0.930 . S
C349 C350 1.355 . S
C349 C351 1.415 . S
C350 C349 1.355 . S
C350 C352 1.419 . S
C351 C346 1.425 . S
C351 C348 1.409 . S
C351 C349 1.415 . S
C352 H342 0.930 . S
C352 C350 1.419 . S
C352 C353 1.362 . S
C353 H343 0.930 . S
C353 C346 1.409 . S
C353 C352 1.362 . S
H354 C360 0.930 . S
H355 C363 0.930 . S
H356 C364 0.930 . S
H357 C365 0.930 . S
H358 C368 0.930 . S
H359 C369 0.930 . S
C360 H354 0.930 . S
C360 C361 1.355 . S
C360 C362 1.415 . S
C361 C360 1.355 . S
C361 C363 1.419 . S
C362 C360 1.415 . S
C362 C367 1.425 . S
C362 C369 1.409 . S
C363 H355 0.930 . S
C363 C361 1.419 . S
C363 C364 1.362 . S
C364 H356 0.930 . S
C364 C363 1.362 . S
C364 C367 1.409 . S
C365 H357 0.930 . S
C365 C366 1.355 . S
C365 C367 1.415 . S
C366 C365 1.355 . S
C366 C368 1.419 . S
C367 C362 1.425 . S
C367 C364 1.409 . S
C367 C365 1.415 . S
C368 H358 0.930 . S
C368 C366 1.419 . S
C368 C369 1.362 . S
C369 H359 0.930 . S
C369 C362 1.409 . S
C369 C368 1.362 . S
H370 C376 0.930 . S
H371 C379 0.930 1_545 S
H372 C380 0.930 . S
H373 C381 0.930 . S
H374 C384 0.930 . S
H375 C385 0.930 . S
C376 H370 0.930 . S
C376 C377 1.355 . S
C376 C378 1.415 . S
C377 C376 1.355 . S
C377 C379 1.419 . S
C378 C376 1.415 . S
C378 C383 1.425 . S
C378 C385 1.409 . S
C379 H371 0.930 1_565 S
C379 C377 1.419 . S
C379 C380 1.362 . S
C380 H372 0.930 . S
C380 C379 1.362 . S
C380 C383 1.409 . S
C381 H373 0.930 . S
C381 C382 1.355 . S
C381 C383 1.415 . S
C382 C381 1.355 . S
C382 C384 1.419 . S
C383 C378 1.425 . S
C383 C380 1.409 . S
C383 C381 1.415 . S
C384 H374 0.930 . S
C384 C382 1.419 . S
C384 C385 1.362 . S
C385 H375 0.930 . S
C385 C378 1.409 . S
C385 C384 1.362 . S
H386 C392 0.930 . S
H387 C395 0.930 . S
H388 C396 0.930 . S
H389 C397 0.930 . S
H390 C400 0.930 . S
H391 C401 0.930 . S
C392 H386 0.930 . S
C392 C393 1.355 . S
C392 C394 1.415 . S
C393 C392 1.355 . S
C393 C395 1.419 . S
C394 C392 1.415 . S
C394 C399 1.425 . S
C394 C401 1.409 . S
C395 H387 0.930 . S
C395 C393 1.419 . S
C395 C396 1.362 . S
C396 H388 0.930 . S
C396 C395 1.362 . S
C396 C399 1.409 . S
C397 H389 0.930 . S
C397 C398 1.355 . S
C397 C399 1.415 . S
C398 C397 1.355 . S
C398 C400 1.419 . S
C399 C394 1.425 . S
C399 C396 1.409 . S
C399 C397 1.415 . S
C400 H390 0.930 . S
C400 C398 1.419 . S
C400 C401 1.362 . S
C401 H391 0.930 . S
C401 C394 1.409 . S
C401 C400 1.362 . S
C217 C72 1.108 . S
C222 C187 1.213 . S
C233 C140 1.561 . S
C238 C193 1.505 . S
C249 C75 1.569 . S
C254 C184 1.426 . S
C265 C156 1.165 . S
C270 C209 1.235 . S
C281 C56 1.613 . S
C286 C175 1.396 . S
C302 C192 1.516 . S
C297 C159 1.581 . S
C313 C147 1.223 . S
C318 C188 1.333 . S
C334 C205 1.480 . S
C329 C67 1.608 . S
C350 C172 1.477 . S
C345 C150 1.570 . S
C366 C208 1.224 . S
C361 C63 1.064 . S
C382 C171 1.437 . S
C377 C151 1.627 . S
C398 C196 1.478 . S
C393 C66 1.567 . S
