# Generated by pormake.
# Topology gar, (4,6)-cn, num edge types: 1
# Building blocks:
#     Node 0, Type 0, BuildingBlock: UXUYUI_clean_sbu_0, # of connection points: 4
#     Node 1, Type 0, BuildingBlock: UXUYUI_clean_sbu_0, # of connection points: 4
#     Node 2, Type 0, BuildingBlock: UXUYUI_clean_sbu_0, # of connection points: 4
#     Node 3, Type 0, BuildingBlock: UXUYUI_clean_sbu_0, # of connection points: 4
#     Node 4, Type 0, BuildingBlock: UXUYUI_clean_sbu_0, # of connection points: 4
#     Node 5, Type 0, BuildingBlock: UXUYUI_clean_sbu_0, # of connection points: 4
#     Node 6, Type 0, BuildingBlock: UXUYUI_clean_sbu_0, # of connection points: 4
#     Node 7, Type 0, BuildingBlock: UXUYUI_clean_sbu_0, # of connection points: 4
#     Node 8, Type 0, BuildingBlock: UXUYUI_clean_sbu_0, # of connection points: 4
#     Node 9, Type 0, BuildingBlock: UXUYUI_clean_sbu_0, # of connection points: 4
#     Node 10, Type 0, BuildingBlock: UXUYUI_clean_sbu_0, # of connection points: 4
#     Node 11, Type 0, BuildingBlock: UXUYUI_clean_sbu_0, # of connection points: 4
#     Node 12, Type 0, BuildingBlock: UXUYUI_clean_sbu_0, # of connection points: 4
#     Node 13, Type 0, BuildingBlock: UXUYUI_clean_sbu_0, # of connection points: 4
#     Node 14, Type 0, BuildingBlock: UXUYUI_clean_sbu_0, # of connection points: 4
#     Node 15, Type 0, BuildingBlock: UXUYUI_clean_sbu_0, # of connection points: 4
#     Node 16, Type 0, BuildingBlock: UXUYUI_clean_sbu_0, # of connection points: 4
#     Node 17, Type 0, BuildingBlock: UXUYUI_clean_sbu_0, # of connection points: 4
#     Node 18, Type 0, BuildingBlock: UXUYUI_clean_sbu_0, # of connection points: 4
#     Node 19, Type 0, BuildingBlock: UXUYUI_clean_sbu_0, # of connection points: 4
#     Node 20, Type 0, BuildingBlock: UXUYUI_clean_sbu_0, # of connection points: 4
#     Node 21, Type 0, BuildingBlock: UXUYUI_clean_sbu_0, # of connection points: 4
#     Node 22, Type 0, BuildingBlock: UXUYUI_clean_sbu_0, # of connection points: 4
#     Node 23, Type 0, BuildingBlock: UXUYUI_clean_sbu_0, # of connection points: 4
#     Node 24, Type 1, BuildingBlock: KUMBOL_clean_sbu_0, # of connection points: 6
#     Node 25, Type 1, BuildingBlock: KUMBOL_clean_sbu_0, # of connection points: 6
#     Node 26, Type 1, BuildingBlock: KUMBOL_clean_sbu_0, # of connection points: 6
#     Node 27, Type 1, BuildingBlock: KUMBOL_clean_sbu_0, # of connection points: 6
#     Node 28, Type 1, BuildingBlock: KUMBOL_clean_sbu_0, # of connection points: 6
#     Node 29, Type 1, BuildingBlock: KUMBOL_clean_sbu_0, # of connection points: 6
#     Node 30, Type 1, BuildingBlock: KUMBOL_clean_sbu_0, # of connection points: 6
#     Node 31, Type 1, BuildingBlock: KUMBOL_clean_sbu_0, # of connection points: 6
#     Node 32, Type 1, BuildingBlock: KUMBOL_clean_sbu_0, # of connection points: 6
#     Node 33, Type 1, BuildingBlock: KUMBOL_clean_sbu_0, # of connection points: 6
#     Node 34, Type 1, BuildingBlock: KUMBOL_clean_sbu_0, # of connection points: 6
#     Node 35, Type 1, BuildingBlock: KUMBOL_clean_sbu_0, # of connection points: 6
#     Node 36, Type 1, BuildingBlock: KUMBOL_clean_sbu_0, # of connection points: 6
#     Node 37, Type 1, BuildingBlock: KUMBOL_clean_sbu_0, # of connection points: 6
#     Node 38, Type 1, BuildingBlock: KUMBOL_clean_sbu_0, # of connection points: 6
#     Node 39, Type 1, BuildingBlock: KUMBOL_clean_sbu_0, # of connection points: 6
#     Edge 40, Type (0, 1), BuildingBlock: AJUNOK_clean_linker_0, # of connection points: 2
#     Edge 41, Type (0, 1), BuildingBlock: AJUNOK_clean_linker_0, # of connection points: 2
#     Edge 42, Type (0, 1), BuildingBlock: AJUNOK_clean_linker_0, # of connection points: 2
#     Edge 43, Type (0, 1), BuildingBlock: AJUNOK_clean_linker_0, # of connection points: 2
#     Edge 44, Type (0, 1), BuildingBlock: AJUNOK_clean_linker_0, # of connection points: 2
#     Edge 45, Type (0, 1), BuildingBlock: AJUNOK_clean_linker_0, # of connection points: 2
#     Edge 46, Type (0, 1), BuildingBlock: AJUNOK_clean_linker_0, # of connection points: 2
#     Edge 47, Type (0, 1), BuildingBlock: AJUNOK_clean_linker_0, # of connection points: 2
#     Edge 48, Type (0, 1), BuildingBlock: AJUNOK_clean_linker_0, # of connection points: 2
#     Edge 49, Type (0, 1), BuildingBlock: AJUNOK_clean_linker_0, # of connection points: 2
#     Edge 50, Type (0, 1), BuildingBlock: AJUNOK_clean_linker_0, # of connection points: 2
#     Edge 51, Type (0, 1), BuildingBlock: AJUNOK_clean_linker_0, # of connection points: 2
#     Edge 52, Type (0, 1), BuildingBlock: AJUNOK_clean_linker_0, # of connection points: 2
#     Edge 53, Type (0, 1), BuildingBlock: AJUNOK_clean_linker_0, # of connection points: 2
#     Edge 54, Type (0, 1), BuildingBlock: AJUNOK_clean_linker_0, # of connection points: 2
#     Edge 55, Type (0, 1), BuildingBlock: AJUNOK_clean_linker_0, # of connection points: 2
#     Edge 56, Type (0, 1), BuildingBlock: AJUNOK_clean_linker_0, # of connection points: 2
#     Edge 57, Type (0, 1), BuildingBlock: AJUNOK_clean_linker_0, # of connection points: 2
#     Edge 58, Type (0, 1), BuildingBlock: AJUNOK_clean_linker_0, # of connection points: 2
#     Edge 59, Type (0, 1), BuildingBlock: AJUNOK_clean_linker_0, # of connection points: 2
#     Edge 60, Type (0, 1), BuildingBlock: AJUNOK_clean_linker_0, # of connection points: 2
#     Edge 61, Type (0, 1), BuildingBlock: AJUNOK_clean_linker_0, # of connection points: 2
#     Edge 62, Type (0, 1), BuildingBlock: AJUNOK_clean_linker_0, # of connection points: 2
#     Edge 63, Type (0, 1), BuildingBlock: AJUNOK_clean_linker_0, # of connection points: 2
#     Edge 64, Type (0, 1), BuildingBlock: AJUNOK_clean_linker_0, # of connection points: 2
#     Edge 65, Type (0, 1), BuildingBlock: AJUNOK_clean_linker_0, # of connection points: 2
#     Edge 66, Type (0, 1), BuildingBlock: AJUNOK_clean_linker_0, # of connection points: 2
#     Edge 67, Type (0, 1), BuildingBlock: AJUNOK_clean_linker_0, # of connection points: 2
#     Edge 68, Type (0, 1), BuildingBlock: AJUNOK_clean_linker_0, # of connection points: 2
#     Edge 69, Type (0, 1), BuildingBlock: AJUNOK_clean_linker_0, # of connection points: 2
#     Edge 70, Type (0, 1), BuildingBlock: AJUNOK_clean_linker_0, # of connection points: 2
#     Edge 71, Type (0, 1), BuildingBlock: AJUNOK_clean_linker_0, # of connection points: 2
#     Edge 72, Type (0, 1), BuildingBlock: AJUNOK_clean_linker_0, # of connection points: 2
#     Edge 73, Type (0, 1), BuildingBlock: AJUNOK_clean_linker_0, # of connection points: 2
#     Edge 74, Type (0, 1), BuildingBlock: AJUNOK_clean_linker_0, # of connection points: 2
#     Edge 75, Type (0, 1), BuildingBlock: AJUNOK_clean_linker_0, # of connection points: 2
#     Edge 76, Type (0, 1), BuildingBlock: AJUNOK_clean_linker_0, # of connection points: 2
#     Edge 77, Type (0, 1), BuildingBlock: AJUNOK_clean_linker_0, # of connection points: 2
#     Edge 78, Type (0, 1), BuildingBlock: AJUNOK_clean_linker_0, # of connection points: 2
#     Edge 79, Type (0, 1), BuildingBlock: AJUNOK_clean_linker_0, # of connection points: 2
#     Edge 80, Type (0, 1), BuildingBlock: AJUNOK_clean_linker_0, # of connection points: 2
#     Edge 81, Type (0, 1), BuildingBlock: AJUNOK_clean_linker_0, # of connection points: 2
#     Edge 82, Type (0, 1), BuildingBlock: AJUNOK_clean_linker_0, # of connection points: 2
#     Edge 83, Type (0, 1), BuildingBlock: AJUNOK_clean_linker_0, # of connection points: 2
#     Edge 84, Type (0, 1), BuildingBlock: AJUNOK_clean_linker_0, # of connection points: 2
#     Edge 85, Type (0, 1), BuildingBlock: AJUNOK_clean_linker_0, # of connection points: 2
#     Edge 86, Type (0, 1), BuildingBlock: AJUNOK_clean_linker_0, # of connection points: 2
#     Edge 87, Type (0, 1), BuildingBlock: AJUNOK_clean_linker_0, # of connection points: 2
#     Edge 88, Type (0, 1), BuildingBlock: AJUNOK_clean_linker_0, # of connection points: 2
#     Edge 89, Type (0, 1), BuildingBlock: AJUNOK_clean_linker_0, # of connection points: 2
#     Edge 90, Type (0, 1), BuildingBlock: AJUNOK_clean_linker_0, # of connection points: 2
#     Edge 91, Type (0, 1), BuildingBlock: AJUNOK_clean_linker_0, # of connection points: 2
#     Edge 92, Type (0, 1), BuildingBlock: AJUNOK_clean_linker_0, # of connection points: 2
#     Edge 93, Type (0, 1), BuildingBlock: AJUNOK_clean_linker_0, # of connection points: 2
#     Edge 94, Type (0, 1), BuildingBlock: AJUNOK_clean_linker_0, # of connection points: 2
#     Edge 95, Type (0, 1), BuildingBlock: AJUNOK_clean_linker_0, # of connection points: 2
#     Edge 96, Type (0, 1), BuildingBlock: AJUNOK_clean_linker_0, # of connection points: 2
#     Edge 97, Type (0, 1), BuildingBlock: AJUNOK_clean_linker_0, # of connection points: 2
#     Edge 98, Type (0, 1), BuildingBlock: AJUNOK_clean_linker_0, # of connection points: 2
#     Edge 99, Type (0, 1), BuildingBlock: AJUNOK_clean_linker_0, # of connection points: 2
#     Edge 100, Type (0, 1), BuildingBlock: AJUNOK_clean_linker_0, # of connection points: 2
#     Edge 101, Type (0, 1), BuildingBlock: AJUNOK_clean_linker_0, # of connection points: 2
#     Edge 102, Type (0, 1), BuildingBlock: AJUNOK_clean_linker_0, # of connection points: 2
#     Edge 103, Type (0, 1), BuildingBlock: AJUNOK_clean_linker_0, # of connection points: 2
#     Edge 104, Type (0, 1), BuildingBlock: AJUNOK_clean_linker_0, # of connection points: 2
#     Edge 105, Type (0, 1), BuildingBlock: AJUNOK_clean_linker_0, # of connection points: 2
#     Edge 106, Type (0, 1), BuildingBlock: AJUNOK_clean_linker_0, # of connection points: 2
#     Edge 107, Type (0, 1), BuildingBlock: AJUNOK_clean_linker_0, # of connection points: 2
#     Edge 108, Type (0, 1), BuildingBlock: AJUNOK_clean_linker_0, # of connection points: 2
#     Edge 109, Type (0, 1), BuildingBlock: AJUNOK_clean_linker_0, # of connection points: 2
#     Edge 110, Type (0, 1), BuildingBlock: AJUNOK_clean_linker_0, # of connection points: 2
#     Edge 111, Type (0, 1), BuildingBlock: AJUNOK_clean_linker_0, # of connection points: 2
#     Edge 112, Type (0, 1), BuildingBlock: AJUNOK_clean_linker_0, # of connection points: 2
#     Edge 113, Type (0, 1), BuildingBlock: AJUNOK_clean_linker_0, # of connection points: 2
#     Edge 114, Type (0, 1), BuildingBlock: AJUNOK_clean_linker_0, # of connection points: 2
#     Edge 115, Type (0, 1), BuildingBlock: AJUNOK_clean_linker_0, # of connection points: 2
#     Edge 116, Type (0, 1), BuildingBlock: AJUNOK_clean_linker_0, # of connection points: 2
#     Edge 117, Type (0, 1), BuildingBlock: AJUNOK_clean_linker_0, # of connection points: 2
#     Edge 118, Type (0, 1), BuildingBlock: AJUNOK_clean_linker_0, # of connection points: 2
#     Edge 119, Type (0, 1), BuildingBlock: AJUNOK_clean_linker_0, # of connection points: 2
#     Edge 120, Type (0, 1), BuildingBlock: AJUNOK_clean_linker_0, # of connection points: 2
#     Edge 121, Type (0, 1), BuildingBlock: AJUNOK_clean_linker_0, # of connection points: 2
#     Edge 122, Type (0, 1), BuildingBlock: AJUNOK_clean_linker_0, # of connection points: 2
#     Edge 123, Type (0, 1), BuildingBlock: AJUNOK_clean_linker_0, # of connection points: 2
#     Edge 124, Type (0, 1), BuildingBlock: AJUNOK_clean_linker_0, # of connection points: 2
#     Edge 125, Type (0, 1), BuildingBlock: AJUNOK_clean_linker_0, # of connection points: 2
#     Edge 126, Type (0, 1), BuildingBlock: AJUNOK_clean_linker_0, # of connection points: 2
#     Edge 127, Type (0, 1), BuildingBlock: AJUNOK_clean_linker_0, # of connection points: 2
#     Edge 128, Type (0, 1), BuildingBlock: AJUNOK_clean_linker_0, # of connection points: 2
#     Edge 129, Type (0, 1), BuildingBlock: AJUNOK_clean_linker_0, # of connection points: 2
#     Edge 130, Type (0, 1), BuildingBlock: AJUNOK_clean_linker_0, # of connection points: 2
#     Edge 131, Type (0, 1), BuildingBlock: AJUNOK_clean_linker_0, # of connection points: 2
#     Edge 132, Type (0, 1), BuildingBlock: AJUNOK_clean_linker_0, # of connection points: 2
#     Edge 133, Type (0, 1), BuildingBlock: AJUNOK_clean_linker_0, # of connection points: 2
#     Edge 134, Type (0, 1), BuildingBlock: AJUNOK_clean_linker_0, # of connection points: 2
#     Edge 135, Type (0, 1), BuildingBlock: AJUNOK_clean_linker_0, # of connection points: 2
# Relax obj value: 0.150
# Max RMSD: 0.324
# Mean RMSD: 0.197
data_MOF--net-gar--node1-UXUYUI_clean_sbu_0--node2-KUMBOL_clean_sbu_0--edge1-AJUNOK_clean_linker_0
_symmetry_space_group_name_H-M    P1
_symmetry_Int_Tables_number       1
_symmetry_cell_setting            triclinic
loop_
_symmetry_equiv_pos_as_xyz
'x, y, z'
_cell_length_a     59.507682
_cell_length_b     54.951696
_cell_length_c     54.911158
_cell_angle_alpha  100.57144
_cell_angle_beta   93.493152
_cell_angle_gamma 102.25238
loop_
_atom_site_label
_atom_site_type_symbol
_atom_site_fract_x
_atom_site_fract_y
_atom_site_fract_z
_atom_type_partial_charge
Li0 Li 0.09874 0.32386 0.36308 0.0
Li1 Li 0.12248 0.35466 0.40084 0.0
Li2 Li 0.13906 0.32786 0.37203 0.0
Li3 Li 0.11602 0.30843 0.39978 0.0
C4 C 0.13962 0.36968 0.35458 0.0
N5 N 0.17309 0.39931 0.33305 0.0
C6 C 0.15778 0.38757 0.36953 0.0
C7 C 0.13838 0.36696 0.32869 0.0
C8 C 0.17456 0.40234 0.35828 0.0
C9 C 0.1555 0.3821 0.31816 0.0
C10 C 0.07334 0.32865 0.41086 0.0
C11 C 0.05287 0.34448 0.44475 0.0
N12 N 0.0334 0.32676 0.43446 0.0
C13 C 0.05308 0.31066 0.40066 0.0
C14 C 0.0732 0.34575 0.43312 0.0
C15 C 0.0331 0.30997 0.41285 0.0
C16 C 0.05403 0.30306 0.33449 0.0
N17 N 0.07305 0.32257 0.34034 0.0
C18 C 0.05451 0.34873 0.31969 0.0
C19 C 0.07377 0.34485 0.33271 0.0
C20 C 0.03394 0.32983 0.31512 0.0
C21 C 0.03399 0.30642 0.32209 0.0
H22 H 0.05396 0.28546 0.34069 0.0
H23 H 0.08894 0.3602 0.33781 0.0
C24 C 0.13598 0.39922 0.44045 0.0
N25 N 0.12201 0.38673 0.4194 0.0
C26 C 0.1316 0.42142 0.45419 0.0
C27 C 0.09954 0.41807 0.42349 0.0
C28 C 0.10445 0.39595 0.41046 0.0
C29 C 0.11297 0.43078 0.44584 0.0
H30 H 0.15007 0.39169 0.44694 0.0
H31 H 0.09365 0.38543 0.39368 0.0
C32 C 0.12604 0.2785 0.35148 0.0
N33 N 0.14994 0.24466 0.32788 0.0
C34 C 0.14437 0.27263 0.36462 0.0
C35 C 0.11974 0.26706 0.32639 0.0
C36 C 0.1563 0.25554 0.35232 0.0
C37 C 0.13209 0.25003 0.31477 0.0
C38 C 0.15122 0.3405 0.43435 0.0
C39 C 0.17434 0.3472 0.44449 0.0
C40 C 0.13373 0.33926 0.45026 0.0
C41 C 0.17955 0.35262 0.47035 0.0
C42 C 0.13962 0.34478 0.476 0.0
N43 N 0.16222 0.35131 0.48544 0.0
C44 C 0.18664 0.33974 0.36864 0.0
C45 C 0.16455 0.32047 0.32988 0.0
C46 C 0.20705 0.34186 0.35726 0.0
N47 N 0.16602 0.32867 0.35498 0.0
C48 C 0.18459 0.322 0.31775 0.0
C49 C 0.20618 0.33211 0.33164 0.0
H50 H 0.18719 0.34706 0.38836 0.0
H51 H 0.14783 0.31286 0.31928 0.0
C52 C 0.08854 0.27131 0.42253 0.0
N53 N 0.11057 0.28328 0.42032 0.0
C54 C 0.08416 0.25534 0.43961 0.0
C55 C 0.12527 0.2634 0.45116 0.0
C56 C 0.12886 0.27902 0.43369 0.0
C57 C 0.10265 0.25151 0.45448 0.0
H58 H 0.07432 0.2744 0.41129 0.0
H59 H 0.14627 0.28842 0.43142 0.0
O60 O 0.12341 0.35456 0.36526 0.0
O61 O 0.09298 0.32987 0.39884 0.0
O62 O 0.11422 0.29523 0.36318 0.0
O63 O 0.14597 0.33529 0.40901 0.0
H64 H 0.15911 0.38975 0.38959 0.0
H65 H 0.12454 0.35304 0.31683 0.0
H66 H 0.1888 0.41614 0.36961 0.0
H67 H 0.15486 0.38008 0.29814 0.0
H68 H 0.05258 0.35759 0.46196 0.0
H69 H 0.05289 0.29703 0.38375 0.0
H70 H 0.08858 0.35987 0.44145 0.0
H71 H 0.01737 0.29602 0.40517 0.0
H72 H 0.0554 0.3669 0.31432 0.0
H73 H 0.01843 0.29144 0.31933 0.0
H74 H 0.14234 0.43092 0.47136 0.0
H75 H 0.08481 0.42454 0.41673 0.0
H76 H 0.14948 0.28142 0.38403 0.0
H77 H 0.10555 0.27141 0.31601 0.0
H78 H 0.17063 0.25093 0.36219 0.0
H79 H 0.1275 0.2411 0.29534 0.0
H80 H 0.18816 0.34823 0.43254 0.0
H81 H 0.11581 0.33379 0.44286 0.0
H82 H 0.19737 0.35786 0.47841 0.0
H83 H 0.12621 0.34381 0.48847 0.0
H84 H 0.22339 0.35056 0.36845 0.0
H85 H 0.18324 0.3148 0.29788 0.0
H86 H 0.06647 0.24623 0.44131 0.0
H87 H 0.14004 0.26132 0.46245 0.0
Li88 Li 0.02143 0.80201 0.66768 0.0
Li89 Li 0.04085 0.78701 0.7006 0.0
Li90 Li 0.02061 0.75809 0.66329 0.0
Li91 Li 0.9977 0.77667 0.69306 0.0
C92 C 0.05826 0.79509 0.64647 0.0
N93 N 0.07745 0.81444 0.60737 0.0
C94 C 0.07675 0.81642 0.65113 0.0
C95 C 0.04946 0.78381 0.62184 0.0
C96 C 0.08621 0.82588 0.63114 0.0
C97 C 0.05941 0.79379 0.60236 0.0
C98 C 0.01962 0.82134 0.72885 0.0
C99 C 0.01412 0.81618 0.77091 0.0
N100 N 0.01897 0.84189 0.77858 0.0
C101 C 0.02455 0.84769 0.73712 0.0
C102 C 0.01438 0.80543 0.74585 0.0
C103 C 0.02415 0.85772 0.76235 0.0
C104 C 0.01177 0.82429 0.62732 0.0
N105 N 0.02369 0.82909 0.65023 0.0
C106 C 0.04593 0.86836 0.64333 0.0
C107 C 0.03977 0.85111 0.65891 0.0
C108 C 0.03535 0.8627 0.61878 0.0
C109 C 0.01735 0.84097 0.61117 0.0
H110 H 0.99891 0.80679 0.62105 0.0
H111 H 0.04905 0.85431 0.67719 0.0
C112 C 0.08813 0.80061 0.71883 0.0
N113 N 0.06657 0.79089 0.72448 0.0
C114 C 0.10752 0.79681 0.7319 0.0
C115 C 0.08224 0.77444 0.75741 0.0
C116 C 0.06333 0.77875 0.74389 0.0
C117 C 0.10458 0.78259 0.7507 0.0
H118 H 0.09024 0.8096 0.70303 0.0
H119 H 0.04601 0.77056 0.74759 0.0
C120 C 0.97886 0.75472 0.63945 0.0
N121 N 0.94813 0.71718 0.60542 0.0
C122 C 0.96023 0.73904 0.64746 0.0
C123 C 0.98172 0.75132 0.61404 0.0
C124 C 0.9449 0.7202 0.62999 0.0
C125 C 0.96606 0.73221 0.59716 0.0
C126 C 0.02046 0.72984 0.69724 0.0
C127 C 1.00082 0.70994 0.69396 0.0
C128 C 0.04241 0.72447 0.69817 0.0
C129 C 1.00347 0.68499 0.69178 0.0
C130 C 0.04433 0.69927 0.69588 0.0
N131 N 0.02498 0.68022 0.69277 0.0
C132 C 0.04614 0.72749 0.63727 0.0
C133 C 1.00669 0.70639 0.63434 0.0
C134 C 0.05152 0.7059 0.62379 0.0
N135 N 0.02401 0.72757 0.64205 0.0
C136 C 0.0114 0.68408 0.62116 0.0
C137 C 0.03416 0.68365 0.61604 0.0
H138 H 0.05984 0.74408 0.64443 0.0
H139 H 0.98943 0.70638 0.63927 0.0
C140 C 0.95698 0.79026 0.70358 0.0
N141 N 0.96976 0.77357 0.70813 0.0
C142 C 0.93522 0.78868 0.71193 0.0
C143 C 0.94021 0.75288 0.72986 0.0
C144 C 0.96209 0.75535 0.72134 0.0
C145 C 0.92639 0.76964 0.72505 0.0
H146 H 0.96362 0.80451 0.693 0.0
H147 H 0.97273 0.74243 0.72481 0.0
O148 O 0.04836 0.78576 0.66584 0.0
O149 O 0.01985 0.81134 0.70416 0.0
O150 O 0.99395 0.77351 0.65628 0.0
O151 O 0.01822 0.75435 0.69884 0.0
H152 H 0.08339 0.82609 0.66993 0.0
H153 H 0.03501 0.76757 0.61775 0.0
H154 H 0.10041 0.84245 0.63454 0.0
H155 H 0.05272 0.78519 0.58325 0.0
H156 H 0.01007 0.80408 0.78427 0.0
H157 H 0.02864 0.86026 0.72416 0.0
H158 H 0.01052 0.785 0.73982 0.0
H159 H 0.02793 0.87809 0.76901 0.0
H160 H 0.0599 0.88497 0.6498 0.0
H161 H 1.00852 0.83629 0.5925 0.0
H162 H 0.12447 0.80325 0.7261 0.0
H163 H 0.07935 0.76358 0.77198 0.0
H164 H 0.95767 0.74107 0.66693 0.0
H165 H 0.99586 0.76321 0.60731 0.0
H166 H 0.9305 0.7079 0.63599 0.0
H167 H 0.96817 0.72934 0.57749 0.0
H168 H 0.98369 0.71364 0.69258 0.0
H169 H 0.05782 0.73953 0.70014 0.0
H170 H 0.98841 0.66941 0.68911 0.0
H171 H 0.0612 0.69484 0.69643 0.0
H172 H 0.0692 0.70658 0.61974 0.0
H173 H 0.99757 0.66718 0.61569 0.0
H174 H 0.9253 0.80212 0.7079 0.0
H175 H 0.93397 0.7376 0.7394 0.0
Li176 Li 0.59359 0.82227 0.85779 0.0
Li177 Li 0.61151 0.84693 0.89774 0.0
Li178 Li 0.63441 0.82628 0.86679 0.0
Li179 Li 0.60546 0.80069 0.88938 0.0
C180 C 0.62154 0.87082 0.84929 0.0
N181 N 0.62847 0.90568 0.81842 0.0
C182 C 0.61441 0.89367 0.85534 0.0
C183 C 0.6323 0.86582 0.82757 0.0
C184 C 0.61803 0.91101 0.83948 0.0
C185 C 0.63561 0.88363 0.8122 0.0
C186 C 0.56362 0.83253 0.89395 0.0
C187 C 0.52721 0.83485 0.91023 0.0
N188 N 0.52698 0.85587 0.90054 0.0
C189 C 0.56302 0.8542 0.88423 0.0
C190 C 0.54558 0.82279 0.90711 0.0
C191 C 0.54436 0.8657 0.88771 0.0
C192 C 0.54763 0.8065 0.83554 0.0
N193 N 0.56877 0.82045 0.83275 0.0
C194 C 0.55218 0.83739 0.80073 0.0
C195 C 0.57143 0.83485 0.815 0.0
C196 C 0.53001 0.8248 0.80462 0.0
C197 C 0.52788 0.80853 0.82172 0.0
H198 H 0.54596 0.79496 0.84959 0.0
H199 H 0.58828 0.84519 0.81245 0.0
C200 C 0.62494 0.8987 0.92155 0.0
N201 N 0.61147 0.87571 0.92268 0.0
C202 C 0.62218 0.92066 0.9373 0.0
C203 C 0.59273 0.89459 0.95588 0.0
C204 C 0.59614 0.87321 0.93993 0.0
C205 C 0.60548 0.91866 0.95425 0.0
H206 H 0.63707 0.90006 0.90771 0.0
H207 H 0.58582 0.85473 0.94069 0.0
C208 C 0.59637 0.77837 0.83363 0.0
N209 N 0.56652 0.74778 0.79401 0.0
C210 C 0.57981 0.75757 0.83738 0.0
C211 C 0.59782 0.78356 0.80971 0.0
C212 C 0.56487 0.74233 0.81711 0.0
C213 C 0.58253 0.76789 0.78993 0.0
C214 C 0.64013 0.82894 0.92859 0.0
C215 C 0.66325 0.83494 0.9386 0.0
C216 C 0.62261 0.82507 0.94426 0.0
C217 C 0.66846 0.83702 0.96416 0.0
C218 C 0.62852 0.82728 0.9697 0.0
N219 N 0.65113 0.83317 0.97905 0.0
C220 C 0.6829 0.84377 0.86942 0.0
C221 C 0.66545 0.81729 0.83099 0.0
C222 C 0.70482 0.84543 0.86114 0.0
N223 N 0.66385 0.82944 0.85449 0.0
C224 C 0.68689 0.81917 0.82167 0.0
C225 C 0.70701 0.83257 0.83711 0.0
H226 H 0.68108 0.85358 0.88789 0.0
H227 H 0.65004 0.80612 0.81946 0.0
C228 C 0.57664 0.76452 0.91051 0.0
N229 N 0.59893 0.77305 0.90629 0.0
C230 C 0.57144 0.74859 0.92748 0.0
C231 C 0.61215 0.74961 0.9346 0.0
C232 C 0.61655 0.76541 0.91737 0.0
C233 C 0.5894 0.74145 0.9402 0.0
H234 H 0.56302 0.77106 0.90156 0.0
H235 H 0.63416 0.77277 0.91391 0.0
O236 O 0.61853 0.85379 0.86487 0.0
O237 O 0.58183 0.82098 0.89088 0.0
O238 O 0.61077 0.79383 0.85337 0.0
O239 O 0.63474 0.82679 0.90357 0.0
H240 H 0.60616 0.89806 0.87208 0.0
H241 H 0.63751 0.84813 0.82228 0.0
H242 H 0.61256 0.92872 0.84393 0.0
H243 H 0.64377 0.87988 0.79527 0.0
H244 H 0.51315 0.82752 0.9204 0.0
H245 H 0.57674 0.86196 0.87398 0.0
H246 H 0.54581 0.80619 0.91501 0.0
H247 H 0.54368 0.88244 0.88019 0.0
H248 H 0.55452 0.84983 0.78746 0.0
H249 H 0.51107 0.79869 0.82548 0.0
H250 H 0.63219 0.93903 0.93547 0.0
H251 H 0.57984 0.89242 0.96891 0.0
H252 H 0.57843 0.75331 0.85576 0.0
H253 H 0.61024 0.79984 0.80653 0.0
H254 H 0.55193 0.7262 0.81975 0.0
H255 H 0.58332 0.77181 0.77136 0.0
H256 H 0.67704 0.83787 0.92675 0.0
H257 H 0.60463 0.8202 0.93682 0.0
H258 H 0.68628 0.84165 0.97216 0.0
H259 H 0.61512 0.82426 0.982 0.0
H260 H 0.71991 0.85641 0.87344 0.0
H261 H 0.68769 0.8096 0.80283 0.0
H262 H 0.55371 0.74299 0.93153 0.0
H263 H 0.62644 0.74443 0.944 0.0
Li264 Li 0.51585 0.29851 0.16221 0.0
Li265 Li 0.53489 0.27892 0.19183 0.0
Li266 Li 0.51355 0.2541 0.15277 0.0
Li267 Li 0.49192 0.27036 0.18517 0.0
C268 C 0.55748 0.29688 0.14788 0.0
N269 N 0.59014 0.32868 0.12745 0.0
C270 C 0.57566 0.31435 0.16323 0.0
C271 C 0.55594 0.29552 0.12214 0.0
C272 C 0.59196 0.33032 0.15254 0.0
C273 C 0.57266 0.31172 0.11217 0.0
C274 C 0.51454 0.31076 0.22431 0.0
C275 C 0.51077 0.29939 0.26451 0.0
N276 N 0.51231 0.32419 0.27498 0.0
C277 C 0.51606 0.33612 0.23546 0.0
C278 C 0.51185 0.2922 0.23893 0.0
C279 C 0.51492 0.34254 0.26111 0.0
C280 C 0.50756 0.32457 0.12467 0.0
N281 N 0.51939 0.32749 0.14735 0.0
C282 C 0.5434 0.36668 0.14251 0.0
C283 C 0.53629 0.34857 0.15698 0.0
C284 C 0.53289 0.36287 0.11811 0.0
C285 C 0.51403 0.3422 0.10964 0.0
H286 H 0.49408 0.30775 0.11758 0.0
H287 H 0.54545 0.35029 0.17507 0.0
C288 C 0.57322 0.2629 0.1991 0.0
N289 N 0.56211 0.27963 0.21165 0.0
C290 C 0.59351 0.25897 0.20984 0.0
C291 C 0.59141 0.2906 0.24609 0.0
C292 C 0.57076 0.2937 0.23465 0.0
C293 C 0.60291 0.27284 0.23363 0.0
H294 H 0.56602 0.25227 0.18071 0.0
H295 H 0.56182 0.30729 0.24404 0.0
C296 C 0.47395 0.25518 0.12954 0.0
N297 N 0.44624 0.22228 0.08961 0.0
C298 C 0.45261 0.24054 0.13312 0.0
C299 C 0.48109 0.2533 0.10561 0.0
C300 C 0.43889 0.22395 0.11271 0.0
C301 C 0.46686 0.23651 0.08567 0.0
C302 C 0.50725 0.22006 0.18265 0.0
C303 C 0.48541 0.20553 0.17228 0.0
C304 C 0.52456 0.2078 0.18859 0.0
C305 C 0.4813 0.17903 0.16777 0.0
C306 C 0.51982 0.18125 0.1837 0.0
N307 N 0.49847 0.16753 0.17348 0.0
C308 C 0.54006 0.22829 0.12342 0.0
C309 C 0.50112 0.20501 0.11757 0.0
C310 C 0.54687 0.20842 0.10857 0.0
N311 N 0.51761 0.22627 0.12798 0.0
C312 C 0.50734 0.18424 0.10302 0.0
C313 C 0.53065 0.18565 0.09907 0.0
H314 H 0.55307 0.24496 0.13207 0.0
H315 H 0.48336 0.20365 0.12136 0.0
C316 C 0.45592 0.28787 0.20547 0.0
N317 N 0.46488 0.26691 0.20183 0.0
C318 C 0.43613 0.28798 0.21769 0.0
C319 C 0.43479 0.24467 0.22183 0.0
C320 C 0.45508 0.24569 0.21016 0.0
C321 C 0.42507 0.26608 0.22584 0.0
H322 H 0.46429 0.30458 0.1989 0.0
H323 H 0.46286 0.2295 0.20772 0.0
O324 O 0.54131 0.28108 0.15796 0.0
O325 O 0.51501 0.30422 0.19911 0.0
O326 O 0.48751 0.27167 0.14928 0.0
O327 O 0.5116 0.24609 0.18705 0.0
H328 H 0.57705 0.31576 0.1832 0.0
H329 H 0.54197 0.28209 0.11001 0.0
H330 H 0.60605 0.34404 0.1642 0.0
H331 H 0.57177 0.31076 0.09229 0.0
H332 H 0.50868 0.28524 0.27604 0.0
H333 H 0.518 0.35067 0.22436 0.0
H334 H 0.51056 0.27246 0.23069 0.0
H335 H 0.51605 0.3621 0.26998 0.0
H336 H 0.55803 0.38243 0.14961 0.0
H337 H 0.50528 0.33894 0.09105 0.0
H338 H 0.60165 0.24497 0.19963 0.0
H339 H 0.5984 0.30209 0.26424 0.0
H340 H 0.4467 0.24198 0.15147 0.0
H341 H 0.4976 0.26442 0.10251 0.0
H342 H 0.42238 0.21241 0.11522 0.0
H343 H 0.47225 0.23471 0.06709 0.0
H344 H 0.47188 0.21461 0.16727 0.0
H345 H 0.54143 0.21856 0.19705 0.0
H346 H 0.46452 0.16761 0.15956 0.0
H347 H 0.5331 0.17155 0.18812 0.0
H348 H 0.56489 0.2106 0.10528 0.0
H349 H 0.49427 0.16696 0.09586 0.0
H350 H 0.42951 0.30505 0.22054 0.0
H351 H 0.42665 0.22713 0.22713 0.0
Li352 Li 0.10643 0.84301 0.10338 0.0
Li353 Li 0.1319 0.8231 0.13618 0.0
Li354 Li 0.10343 0.7937 0.10145 0.0
Li355 Li 0.0877 0.81877 0.13639 0.0
C356 C 0.14129 0.80946 0.07928 0.0
N357 N 0.15973 0.78323 0.04061 0.0
C358 C 0.15882 0.79718 0.08431 0.0
C359 C 0.13324 0.80859 0.05463 0.0
C360 C 0.16789 0.78395 0.06449 0.0
C361 C 0.14277 0.79519 0.03533 0.0
C362 C 0.11511 0.86786 0.16363 0.0
C363 C 0.12308 0.87888 0.20836 0.0
N364 N 0.11829 0.90196 0.20813 0.0
C365 C 0.11045 0.89177 0.1638 0.0
C366 C 0.12165 0.86141 0.18604 0.0
C367 C 0.11208 0.90872 0.1865 0.0
C368 C 0.08443 0.88515 0.09593 0.0
N369 N 0.102 0.87423 0.0879 0.0
C370 C 0.11095 0.90612 0.06207 0.0
C371 C 0.11508 0.88444 0.07097 0.0
C372 C 0.09317 0.9181 0.07048 0.0
C373 C 0.0799 0.90685 0.08772 0.0
H374 H 0.07385 0.87717 0.10915 0.0
H375 H 0.12902 0.87602 0.06439 0.0
C376 C 0.16264 0.79945 0.16147 0.0
N377 N 0.16147 0.82266 0.15654 0.0
C378 C 0.18172 0.79619 0.176 0.0
C379 C 0.1993 0.84044 0.17944 0.0
C380 C 0.17953 0.84304 0.16524 0.0
C381 C 0.20052 0.81678 0.18535 0.0
H382 H 0.14867 0.78317 0.15407 0.0
H383 H 0.1787 0.8614 0.16122 0.0
C384 C 0.06255 0.80204 0.07998 0.0
N385 N 0.03054 0.7782 0.03957 0.0
C386 C 0.04337 0.78342 0.08268 0.0
C387 C 0.06539 0.80869 0.0568 0.0
C388 C 0.02738 0.77156 0.06201 0.0
C389 C 0.04904 0.79636 0.03657 0.0
C390 C 0.09903 0.77639 0.15176 0.0
C391 C 0.08388 0.75314 0.14123 0.0
C392 C 0.10627 0.78197 0.17727 0.0
C393 C 0.07624 0.73588 0.15638 0.0
C394 C 0.09822 0.76423 0.19181 0.0
N395 N 0.08351 0.74174 0.18115 0.0
C396 C 0.11733 0.74642 0.09235 0.0
C397 C 0.08352 0.74267 0.06591 0.0
C398 C 0.11599 0.72013 0.08544 0.0
N399 N 0.10101 0.75737 0.08311 0.0
C400 C 0.08146 0.71609 0.05857 0.0
C401 C 0.09743 0.70414 0.06896 0.0
H402 H 0.13097 0.75795 0.10622 0.0
H403 H 0.0705 0.75117 0.0586 0.0
C404 C 0.05798 0.83903 0.17182 0.0
N405 N 0.06173 0.81757 0.15737 0.0
C406 C 0.03933 0.83784 0.18642 0.0
C407 C 0.02807 0.79267 0.17068 0.0
C408 C 0.04686 0.79473 0.15634 0.0
C409 C 0.02416 0.81435 0.18629 0.0
H410 H 0.06928 0.85722 0.17194 0.0
H411 H 0.04943 0.77795 0.14425 0.0
O412 O 0.13184 0.822 0.09843 0.0
O413 O 0.1135 0.85093 0.14164 0.0
O414 O 0.07834 0.81396 0.09997 0.0
O415 O 0.10693 0.79346 0.13716 0.0
H416 H 0.16522 0.7977 0.10332 0.0
H417 H 0.11974 0.8181 0.05047 0.0
H418 H 0.18138 0.77423 0.06808 0.0
H419 H 0.13667 0.79427 0.01614 0.0
H420 H 0.12805 0.87409 0.22585 0.0
H421 H 0.10559 0.89717 0.1466 0.0
H422 H 0.12561 0.84314 0.18617 0.0
H423 H 0.10843 0.92725 0.18693 0.0
H424 H 0.12214 0.91384 0.04918 0.0
H425 H 0.06588 0.91475 0.09492 0.0
H426 H 0.18187 0.77751 0.17965 0.0
H427 H 0.21335 0.85692 0.18612 0.0
H428 H 0.04092 0.77808 0.10049 0.0
H429 H 0.08002 0.82327 0.0545 0.0
H430 H 0.0125 0.75704 0.06379 0.0
H431 H 0.05103 0.80126 0.0185 0.0
H432 H 0.07771 0.74859 0.12165 0.0
H433 H 0.1181 0.79973 0.18578 0.0
H434 H 0.06446 0.71787 0.14846 0.0
H435 H 0.10372 0.76831 0.21157 0.0
H436 H 0.12915 0.71229 0.09362 0.0
H437 H 0.06682 0.70482 0.04578 0.0
H438 H 0.03671 0.85526 0.19751 0.0
H439 H 0.01688 0.77414 0.16979 0.0
Li440 Li 0.53376 0.80048 0.44952 0.0
Li441 Li 0.50638 0.76977 0.41463 0.0
Li442 Li 0.53134 0.75051 0.44508 0.0
Li443 Li 0.5499 0.77355 0.413 0.0
C444 C 0.50046 0.77664 0.47619 0.0
N445 N 0.48967 0.78714 0.52468 0.0
C446 C 0.48078 0.78592 0.48139 0.0
C447 C 0.51458 0.77261 0.49563 0.0
C448 C 0.47563 0.79113 0.50604 0.0
C449 C 0.50887 0.77806 0.52002 0.0
C450 C 0.52254 0.81127 0.39609 0.0
C451 C 0.51541 0.81565 0.3536 0.0
N452 N 0.50292 0.83317 0.36132 0.0
C453 C 0.5097 0.82935 0.40364 0.0
C454 C 0.52548 0.80436 0.37091 0.0
C455 C 0.4999 0.84019 0.38576 0.0
C456 C 0.5536 0.85374 0.45631 0.0
N457 N 0.53895 0.83741 0.46731 0.0
C458 C 0.53025 0.87367 0.4944 0.0
C459 C 0.5275 0.84702 0.48633 0.0
C460 C 0.54473 0.89091 0.48271 0.0
C461 C 0.55665 0.88029 0.4636 0.0
H462 H 0.56245 0.84612 0.44108 0.0
H463 H 0.51561 0.83416 0.49484 0.0
C464 C 0.4732 0.75975 0.36895 0.0
N465 N 0.47683 0.76951 0.39396 0.0
C466 C 0.45386 0.76252 0.3543 0.0
C467 C 0.44214 0.78561 0.39101 0.0
C468 C 0.46164 0.78238 0.40494 0.0
C469 C 0.43777 0.77559 0.36518 0.0
H470 H 0.48568 0.7504 0.36006 0.0
H471 H 0.46506 0.79106 0.42448 0.0
C472 C 0.57627 0.77981 0.46682 0.0
N473 N 0.61109 0.77796 0.50159 0.0
C474 C 0.59273 0.76582 0.45989 0.0
C475 C 0.57768 0.79314 0.49132 0.0
C476 C 0.61016 0.76505 0.47778 0.0
C477 C 0.59537 0.79189 0.50866 0.0
C478 C 0.53099 0.72233 0.39266 0.0
C479 C 0.55071 0.71467 0.40045 0.0
C480 C 0.5183 0.70993 0.36989 0.0
C481 C 0.55747 0.69472 0.38527 0.0
C482 C 0.52563 0.69008 0.35521 0.0
N483 N 0.5449 0.68295 0.36314 0.0
C484 C 0.52306 0.69511 0.44712 0.0
C485 C 0.54917 0.71969 0.48092 0.0
C486 C 0.52641 0.67234 0.45399 0.0
N487 N 0.53461 0.71857 0.46018 0.0
C488 C 0.5528 0.69728 0.48862 0.0
C489 C 0.54177 0.67284 0.47487 0.0
H490 H 0.51148 0.69384 0.43074 0.0
H491 H 0.55854 0.73799 0.49148 0.0
C492 C 0.59588 0.79295 0.40334 0.0
N493 N 0.57591 0.77621 0.39269 0.0
C494 C 0.61537 0.79668 0.39017 0.0
C495 C 0.59373 0.76566 0.35523 0.0
C496 C 0.57455 0.76263 0.36903 0.0
C497 C 0.61446 0.78313 0.36565 0.0
H498 H 0.59664 0.80361 0.42212 0.0
H499 H 0.55852 0.74964 0.36067 0.0
O500 O 0.50603 0.77171 0.45226 0.0
O501 O 0.53157 0.79977 0.41317 0.0
O502 O 0.55896 0.78067 0.4497 0.0
O503 O 0.52424 0.74197 0.4072 0.0
H504 H 0.46963 0.78917 0.46663 0.0
H505 H 0.52984 0.76544 0.49191 0.0
H506 H 0.46049 0.79838 0.51035 0.0
H507 H 0.51971 0.77509 0.53525 0.0
H508 H 0.51745 0.81042 0.33403 0.0
H509 H 0.50707 0.83469 0.42305 0.0
H510 H 0.53521 0.79022 0.36478 0.0
H511 H 0.4898 0.85411 0.39129 0.0
H512 H 0.52038 0.88062 0.50898 0.0
H513 H 0.56815 0.89246 0.454 0.0
H514 H 0.45161 0.75451 0.33453 0.0
H515 H 0.431 0.79666 0.40039 0.0
H516 H 0.5921 0.75571 0.44092 0.0
H517 H 0.56518 0.80426 0.49689 0.0
H518 H 0.62296 0.7542 0.47272 0.0
H519 H 0.59661 0.802 0.52773 0.0
H520 H 0.56067 0.72403 0.41804 0.0
H521 H 0.50294 0.71553 0.36362 0.0
H522 H 0.57271 0.6886 0.39109 0.0
H523 H 0.516 0.68033 0.33752 0.0
H524 H 0.51698 0.65433 0.4428 0.0
H525 H 0.56482 0.69915 0.50483 0.0
H526 H 0.63103 0.8101 0.39911 0.0
H527 H 0.59217 0.75493 0.33633 0.0
Li528 Li 0.6058 0.34125 0.60303 0.0
Li529 Li 0.63043 0.32168 0.6353 0.0
Li530 Li 0.60322 0.29139 0.60097 0.0
Li531 Li 0.58733 0.3172 0.63558 0.0
C532 C 0.63835 0.31236 0.57502 0.0
N533 N 0.65301 0.29721 0.52906 0.0
C534 C 0.6574 0.30124 0.57326 0.0
C535 C 0.62685 0.31594 0.55347 0.0
C536 C 0.66453 0.29369 0.54983 0.0
C537 C 0.63449 0.30808 0.53039 0.0
C538 C 0.6039 0.36387 0.66012 0.0
C539 C 0.5991 0.37565 0.7037 0.0
N540 N 0.58529 0.39107 0.69806 0.0
C541 C 0.58963 0.3798 0.65476 0.0
C542 C 0.60866 0.36175 0.68479 0.0
C543 C 0.58041 0.39342 0.67419 0.0
C544 C 0.58783 0.3716 0.56725 0.0
N545 N 0.60281 0.37302 0.58772 0.0
C546 C 0.61115 0.41919 0.59316 0.0
C547 C 0.61463 0.39658 0.6003 0.0
C548 C 0.59541 0.4184 0.5725 0.0
C549 C 0.5841 0.39384 0.55925 0.0
H550 H 0.57813 0.35318 0.55728 0.0
H551 H 0.62637 0.39804 0.61661 0.0
C552 C 0.67234 0.30487 0.64834 0.0
N553 N 0.66064 0.32333 0.65587 0.0
C554 C 0.69185 0.30261 0.66297 0.0
C555 C 0.68792 0.33885 0.69289 0.0
C556 C 0.66841 0.34042 0.67768 0.0
C557 C 0.69989 0.31944 0.68595 0.0
H558 H 0.66609 0.29117 0.63123 0.0
H559 H 0.65933 0.35519 0.68362 0.0
C560 C 0.5602 0.29486 0.58404 0.0
N561 N 0.52447 0.25989 0.55381 0.0
C562 C 0.54445 0.27786 0.59429 0.0
C563 C 0.55782 0.29404 0.55842 0.0
C564 C 0.5265 0.26033 0.5787 0.0
C565 C 0.53962 0.27624 0.54344 0.0
C566 C 0.61566 0.27972 0.6532 0.0
C567 C 0.62534 0.25919 0.64417 0.0
C568 C 0.61707 0.28877 0.67888 0.0
C569 C 0.63622 0.24804 0.661 0.0
C570 C 0.62815 0.27716 0.69511 0.0
N571 N 0.63741 0.2572 0.68591 0.0
C572 C 0.60808 0.24436 0.56307 0.0
C573 C 0.58251 0.23811 0.59363 0.0
C574 C 0.60473 0.21765 0.5548 0.0
N575 N 0.59726 0.25429 0.58254 0.0
C576 C 0.57881 0.21152 0.58609 0.0
C577 C 0.59019 0.20058 0.56663 0.0
H578 H 0.61994 0.25699 0.55433 0.0
H579 H 0.57421 0.24586 0.60927 0.0
C580 C 0.54474 0.32931 0.64885 0.0
N581 N 0.56057 0.31617 0.65485 0.0
C582 C 0.52402 0.32745 0.65999 0.0
C583 C 0.53602 0.2986 0.68351 0.0
C584 C 0.55655 0.30101 0.6719 0.0
C585 C 0.51925 0.31176 0.67747 0.0
H586 H 0.54791 0.34072 0.63479 0.0
H587 H 0.56883 0.28998 0.67584 0.0
O588 O 0.63102 0.31989 0.59771 0.0
O589 O 0.61259 0.34986 0.64127 0.0
O590 O 0.57814 0.31184 0.59895 0.0
O591 O 0.60549 0.29138 0.637 0.0
H592 H 0.66657 0.29847 0.58976 0.0
H593 H 0.61219 0.3247 0.55458 0.0
H594 H 0.67922 0.285 0.54817 0.0
H595 H 0.6257 0.31066 0.51353 0.0
H596 H 0.60261 0.37413 0.72286 0.0
H597 H 0.58533 0.38128 0.63576 0.0
H598 H 0.61948 0.34938 0.68928 0.0
H599 H 0.56926 0.40572 0.67028 0.0
H600 H 0.62072 0.43732 0.60401 0.0
H601 H 0.57174 0.39176 0.54328 0.0
H602 H 0.70017 0.28723 0.65658 0.0
H603 H 0.69358 0.35287 0.70994 0.0
H604 H 0.54619 0.27798 0.61403 0.0
H605 H 0.56997 0.30687 0.55012 0.0
H606 H 0.51423 0.24702 0.58638 0.0
H607 H 0.53758 0.27537 0.52357 0.0
H608 H 0.62492 0.25223 0.62437 0.0
H609 H 0.60991 0.30477 0.68623 0.0
H610 H 0.64388 0.23224 0.65425 0.0
H611 H 0.62946 0.28407 0.71502 0.0
H612 H 0.6142 0.2105 0.53993 0.0
H613 H 0.56726 0.19956 0.59583 0.0
H614 H 0.51162 0.33784 0.6546 0.0
H615 H 0.53289 0.28566 0.69625 0.0
Li616 Li 0.03679 0.30522 0.95213 0.0
Li617 Li 1.00703 0.27495 0.9172 0.0
Li618 Li 0.03229 0.25427 0.94961 0.0
Li619 Li 0.05032 0.27786 0.91815 0.0
C620 C 0.9984 0.28993 0.97404 0.0
N621 N 0.98051 0.31739 0.01233 0.0
C622 C 0.98209 0.30364 0.96872 0.0
C623 C 1.00562 0.29012 0.99878 0.0
C624 C 0.97326 0.31743 0.98836 0.0
C625 C 0.99635 0.30413 0.01789 0.0
C626 C 0.04105 0.31657 0.89822 0.0
C627 C 0.04579 0.3168 0.85496 0.0
N628 N 0.05929 0.34076 0.86157 0.0
C629 C 0.0549 0.34123 0.9046 0.0
C630 C 0.03636 0.30428 0.87321 0.0
C631 C 0.06397 0.35312 0.88579 0.0
C632 C 0.05747 0.35445 0.98937 0.0
N633 N 0.04051 0.34161 0.97076 0.0
C634 C 0.02849 0.38081 0.96952 0.0
C635 C 0.02595 0.35444 0.9612 0.0
C636 C 0.04623 0.39486 0.98812 0.0
C637 C 0.06058 0.38099 0.99833 0.0
H638 H 0.06922 0.34439 0.99674 0.0
H639 H 0.01274 0.34433 0.94623 0.0
C640 C 0.95798 0.25609 0.89184 0.0
N641 N 0.97739 0.27537 0.89682 0.0
C642 C 0.938 0.25832 0.87773 0.0
C643 C 0.95808 0.29993 0.87364 0.0
C644 C 0.97745 0.29709 0.88805 0.0
C645 C 0.93775 0.28053 0.86826 0.0
H646 H 0.95786 0.23889 0.8988 0.0
H647 H 0.99259 0.31257 0.89233 0.0
C648 C 0.08329 0.28409 0.95531 0.0
N649 N 0.12973 0.28463 0.95427 0.0
C650 C 0.09036 0.26141 0.94788 0.0
C651 C 0.0998 0.30702 0.96238 0.0
C652 C 0.11393 0.26209 0.94742 0.0
C653 C 0.12321 0.30689 0.96169 0.0
C654 C 0.02462 0.22741 0.89227 0.0
C655 C 0.036 0.20817 0.89522 0.0
C656 C 0.013 0.22672 0.86917 0.0
C657 C 0.03575 0.18865 0.87485 0.0
C658 C 0.01319 0.2069 0.84926 0.0
N659 N 0.02446 0.18844 0.85249 0.0
C660 C 0.02172 0.19917 0.95433 0.0
C661 C 0.05127 0.22426 0.98459 0.0
C662 C 0.02529 0.1767 0.96171 0.0
N663 N 0.03489 0.22267 0.96532 0.0
C664 C 0.05514 0.20218 0.99283 0.0
C665 C 0.04247 0.17762 0.98105 0.0
H666 H 1.00882 0.19758 0.93901 0.0
H667 H 0.06202 0.24266 0.99326 0.0
C668 C 0.09256 0.30178 0.90027 0.0
N669 N 0.0764 0.2794 0.89679 0.0
C670 C 0.11126 0.30452 0.8858 0.0
C671 C 0.09711 0.26098 0.86464 0.0
C672 C 0.07861 0.25914 0.87938 0.0
C673 C 0.11363 0.28404 0.86739 0.0
H674 H 0.09093 0.31771 0.91428 0.0
H675 H 0.06611 0.2414 0.87666 0.0
O676 O 1.00775 0.27696 0.95511 0.0
O677 O 0.03235 0.30439 0.91637 0.0
O678 O 0.06028 0.28383 0.95535 0.0
O679 O 0.0243 0.24645 0.91203 0.0
H680 H 0.97647 0.30379 0.94963 0.0
H681 H 0.01836 0.2797 1.00314 0.0
H682 H 0.96068 0.32822 0.98455 0.0
H683 H 1.0018 0.30451 0.03714 0.0
H684 H 0.04241 0.30747 0.83554 0.0
H685 H 0.05885 0.35095 0.92388 0.0
H686 H 0.02571 0.28519 0.868 0.0
H687 H 0.07482 0.37215 0.89045 0.0
H688 H 0.01684 0.39025 0.96097 0.0
H689 H 0.07482 0.39071 0.01233 0.0
H690 H 0.92299 0.2426 0.87396 0.0
H691 H 0.95891 0.3175 0.86709 0.0
H692 H 0.07775 0.24353 0.94223 0.0
H693 H 0.09458 0.32474 0.96801 0.0
H694 H 0.11965 0.24472 0.94156 0.0
H695 H 0.1362 0.32451 0.96696 0.0
H696 H 0.04528 0.20855 0.91288 0.0
H697 H 1.00386 0.24128 0.86668 0.0
H698 H 0.0446 0.17373 0.87681 0.0
H699 H 1.00431 0.20615 0.83125 0.0
H700 H 0.01474 0.15855 0.95199 0.0
H701 H 0.06867 0.20431 1.00769 0.0
H702 H 0.12349 0.3227 0.88869 0.0
H703 H 0.09844 0.24438 0.85124 0.0
Li704 Li 0.4425 0.05947 0.32556 0.0
Li705 Li 0.41848 0.02587 0.29365 0.0
Li706 Li 0.45311 0.05402 0.28313 0.0
Li707 Li 0.41894 0.06866 0.29228 0.0
C708 C 0.47223 0.02708 0.31437 0.0
N709 N 0.51478 0.02174 0.33276 0.0
C710 C 0.47519 1.00329 0.3176 0.0
C711 C 0.49091 0.04818 0.32046 0.0
C712 C 0.49685 1.00097 0.32691 0.0
C713 C 0.51228 0.04508 0.32976 0.0
C714 C 0.39019 0.03578 0.32755 0.0
C715 C 0.35241 1.00738 0.3198 0.0
N716 N 0.35424 1.00389 0.34367 0.0
C717 C 0.39155 0.0322 0.3521 0.0
C718 C 0.37033 0.02356 0.31135 0.0
C719 C 0.37324 0.0159 0.35986 0.0
C720 C 0.47166 0.08719 0.37054 0.0
N721 N 0.45672 0.06529 0.35863 0.0
C722 C 0.46918 0.04251 0.38782 0.0
C723 C 0.4548 0.04342 0.36727 0.0
C724 C 0.48542 0.06451 0.40006 0.0
C725 C 0.48601 0.0873 0.39171 0.0
H726 H 0.47343 0.10424 0.36308 0.0
H727 H 0.44325 0.02615 0.35701 0.0
C728 C 0.39526 0.9789 0.26345 0.0
N729 N 0.40272 0.99117 0.28729 0.0
C730 C 0.3849 0.95297 0.25821 0.0
C731 C 0.38989 0.95292 0.30221 0.0
C732 C 0.40059 0.97869 0.30652 0.0
C733 C 0.38205 0.93956 0.27773 0.0
H734 H 0.39774 0.98916 0.24844 0.0
H735 H 0.40723 0.9888 0.32524 0.0
C736 C 0.45314 0.10968 0.31943 0.0
N737 N 0.45606 0.15742 0.34801 0.0
C738 C 0.4357 0.11409 0.33449 0.0
C739 C 0.47202 0.12957 0.31889 0.0
C740 C 0.43751 0.13836 0.3488 0.0
C741 C 0.47319 0.15356 0.33348 0.0
C742 C 0.4113 0.04823 0.24488 0.0
C743 C 0.4238 0.06459 0.23125 0.0
C744 C 0.38739 0.03955 0.23911 0.0
C745 C 0.41208 0.07232 0.21227 0.0
C746 C 0.3763 0.04776 0.22003 0.0
N747 N 0.38877 0.06386 0.20713 0.0
C748 C 0.48476 0.03228 0.25688 0.0
C749 C 0.49083 0.07694 0.26036 0.0
C750 C 0.50447 0.03188 0.24454 0.0
N751 N 0.47852 0.0546 0.2646 0.0
C752 C 0.5105 0.07737 0.24772 0.0
C753 C 0.51762 0.05463 0.23984 0.0
H754 H 0.47454 0.01484 0.26059 0.0
H755 H 0.4853 0.09433 0.26671 0.0
C756 C 0.37799 0.08614 0.28332 0.0
N757 N 0.4013 0.0912 0.28277 0.0
C758 C 0.3649 0.1008 0.27309 0.0
C759 C 0.40019 0.12641 0.26321 0.0
C760 C 0.41256 0.11109 0.27335 0.0
C761 C 0.37604 0.1209 0.26249 0.0
H762 H 0.36949 0.07019 0.29087 0.0
H763 H 0.43108 0.11444 0.27281 0.0
O764 O 0.45096 0.02971 0.30578 0.0
O765 O 0.40812 0.05136 0.31952 0.0
O766 O 0.45185 0.08615 0.30512 0.0
O767 O 0.42237 0.04112 0.26405 0.0
H768 H 0.46086 0.98682 0.31307 0.0
H769 H 0.48889 0.06678 0.31823 0.0
H770 H 0.4994 0.98268 0.32954 0.0
H771 H 0.52685 0.06124 0.33464 0.0
H772 H 0.33709 0.99752 0.30736 0.0
H773 H 0.40655 0.04192 0.36505 0.0
H774 H 0.36897 0.02612 0.2923 0.0
H775 H 0.37414 1.01282 0.37876 0.0
H776 H 0.46825 0.02442 0.39335 0.0
H777 H 0.49778 0.10487 0.40099 0.0
H778 H 0.3795 0.94347 0.23901 0.0
H779 H 0.38776 0.94372 0.31797 0.0
H780 H 0.42093 0.09903 0.33521 0.0
H781 H 0.48566 0.12647 0.30734 0.0
H782 H 0.42416 0.14203 0.36054 0.0
H783 H 0.48773 0.16911 0.33327 0.0
H784 H 0.44231 0.07152 0.23552 0.0
H785 H 0.37746 0.02687 0.24947 0.0
H786 H 0.42151 0.08515 0.2017 0.0
H787 H 0.35777 0.0414 0.21553 0.0
H788 H 0.50935 0.01396 0.23869 0.0
H789 H 0.51971 0.09518 0.24373 0.0
H790 H 0.34627 0.09623 0.27304 0.0
H791 H 0.40929 0.14171 0.25509 0.0
Li792 Li 0.30503 0.21732 0.54138 0.0
Li793 Li 0.32134 0.18249 0.51519 0.0
Li794 Li 0.30491 0.21162 0.49412 0.0
Li795 Li 0.27902 0.17868 0.51062 0.0
C796 C 0.34614 0.23864 0.51177 0.0
N797 N 0.37276 0.27495 0.49034 0.0
C798 C 0.36256 0.23211 0.49621 0.0
C799 C 0.34332 0.26362 0.51659 0.0
C800 C 0.37584 0.25076 0.48551 0.0
C801 C 0.35694 0.2817 0.50554 0.0
C802 C 0.30701 0.1645 0.5549 0.0
C803 C 0.31208 0.1231 0.55942 0.0
N804 N 0.32414 0.1336 0.5821 0.0
C805 C 0.3194 0.17488 0.57827 0.0
C806 C 0.30322 0.1384 0.54542 0.0
C807 C 0.32792 0.15893 0.59174 0.0
C808 C 0.28672 0.22817 0.58731 0.0
N809 N 0.30574 0.23602 0.5757 0.0
C810 C 0.32534 0.26142 0.61471 0.0
C811 C 0.32476 0.25274 0.58881 0.0
C812 C 0.30634 0.25252 0.62734 0.0
C813 C 0.28664 0.23619 0.61308 0.0
H814 H 0.27192 0.21458 0.57671 0.0
H815 H 0.33992 0.2584 0.57944 0.0
C816 C 0.34593 0.14387 0.49803 0.0
N817 N 0.34545 0.16368 0.51678 0.0
C818 C 0.36217 0.12898 0.49987 0.0
C819 C 0.37763 0.15551 0.53993 0.0
C820 C 0.36122 0.17001 0.53724 0.0
C821 C 0.37801 0.13433 0.52131 0.0
H822 H 0.33354 0.13941 0.48172 0.0
H823 H 0.36071 0.186 0.55181 0.0
C824 C 0.26863 0.23395 0.5096 0.0
N825 N 0.24749 0.27098 0.49769 0.0
C826 C 0.25129 0.2279 0.4897 0.0
C827 C 0.27515 0.25877 0.52353 0.0
C828 C 0.24082 0.24691 0.48395 0.0
C829 C 0.26427 0.27724 0.51718 0.0
C830 C 0.28576 0.15621 0.46605 0.0
C831 C 0.27416 0.16353 0.44669 0.0
C832 C 0.28212 0.13049 0.46721 0.0
C833 C 0.25911 0.14492 0.42875 0.0
C834 C 0.26689 0.11248 0.44895 0.0
N835 N 0.2558 0.12 0.43025 0.0
C836 C 0.32162 0.21704 0.44694 0.0
C837 C 0.30034 0.24788 0.46015 0.0
C838 C 0.32472 0.22553 0.42443 0.0
N839 N 0.30938 0.22799 0.46433 0.0
C840 C 0.30256 0.25656 0.4376 0.0
C841 C 0.31482 0.24532 0.41928 0.0
H842 H 0.32873 0.20127 0.45035 0.0
H843 H 0.29115 0.25699 0.47406 0.0
C844 C 0.24358 0.14368 0.52715 0.0
N845 N 0.24848 0.15604 0.5081 0.0
C846 C 0.22149 0.12863 0.52758 0.0
C847 C 0.20955 0.1392 0.48884 0.0
C848 C 0.23193 0.154 0.48911 0.0
C849 C 0.20401 0.12627 0.50832 0.0
H850 H 0.25668 0.14591 0.54239 0.0
H851 H 0.23587 0.1643 0.47437 0.0
O852 O 0.33236 0.22047 0.5216 0.0
O853 O 0.29902 0.17987 0.54113 0.0
O854 O 0.27892 0.2156 0.51571 0.0
O855 O 0.30039 0.17413 0.48395 0.0
H856 H 0.3648 0.21278 0.49221 0.0
H857 H 0.3306 0.26889 0.52854 0.0
H858 H 0.38852 0.24597 0.47329 0.0
H859 H 0.35487 0.30109 0.50898 0.0
H860 H 0.30941 0.1029 0.55225 0.0
H861 H 0.32263 0.19505 0.58584 0.0
H862 H 0.29371 0.13009 0.52734 0.0
H863 H 0.33761 0.16671 0.60981 0.0
H864 H 0.34096 0.27384 0.62497 0.0
H865 H 0.27157 0.22894 0.62195 0.0
H866 H 0.36221 0.11335 0.48467 0.0
H867 H 0.38947 0.16041 0.55677 0.0
H868 H 0.24615 0.20883 0.47865 0.0
H869 H 0.28845 0.26368 0.53909 0.0
H870 H 0.22745 0.24255 0.46852 0.0
H871 H 0.26917 0.29655 0.52776 0.0
H872 H 0.27648 0.18335 0.44567 0.0
H873 H 0.29087 0.1245 0.48213 0.0
H874 H 0.24995 0.15032 0.4137 0.0
H875 H 0.26386 0.09251 0.44966 0.0
H876 H 0.33422 0.2162 0.41085 0.0
H877 H 0.29476 0.27199 0.43452 0.0
H878 H 0.21808 0.11907 0.543 0.0
H879 H 0.19655 0.13858 0.47392 0.0
Li880 Li 0.20588 0.04652 0.77488 0.0
Li881 Li 0.1731 0.0214 0.79729 0.0
Li882 Li 0.2036 0.99513 0.77075 0.0
Li883 Li 0.17142 0.01836 0.74338 0.0
C884 C 0.22633 0.03765 0.81899 0.0
N885 N 0.26301 0.06475 0.85332 0.0
C886 C 0.22385 0.0587 0.83632 0.0
C887 C 0.24739 0.03025 0.81919 0.0
C888 C 0.24262 0.0722 0.8535 0.0
C889 C 0.26575 0.04423 0.83669 0.0
C890 C 0.17026 0.07152 0.77914 0.0
C891 C 0.17279 0.11183 0.76676 0.0
N892 N 0.1691 0.12232 0.79018 0.0
C893 C 0.16642 0.08266 0.80307 0.0
C894 C 0.17336 0.08614 0.76079 0.0
C895 C 0.1659 0.10838 0.80828 0.0
C896 C 0.23917 0.09059 0.75854 0.0
N897 N 0.22673 0.08398 0.7775 0.0
C898 C 0.23727 0.12881 0.79829 0.0
C899 C 0.22603 0.10298 0.79731 0.0
C900 C 0.25002 0.13619 0.77889 0.0
C901 C 0.25101 0.11616 0.75902 0.0
H902 H 0.23962 0.07623 0.74242 0.0
H903 H 0.21611 0.09844 0.81235 0.0
C904 C 0.16761 0.0269 0.85445 0.0
N905 N 0.15496 0.02289 0.83168 0.0
C906 C 0.1574 0.02927 0.87758 0.0
C907 C 0.12056 0.02267 0.85487 0.0
C908 C 0.13149 0.02067 0.83206 0.0
C909 C 0.1333 0.02748 0.87872 0.0
H910 H 0.18603 0.02832 0.85504 0.0
H911 H 0.12085 0.01746 0.81457 0.0
C912 C 0.22588 0.02367 0.73204 0.0
N913 N 0.26525 0.03366 0.708 0.0
C914 C 0.22418 0.02667 0.70732 0.0
C915 C 0.24756 0.02544 0.74444 0.0
C916 C 0.2443 0.0318 0.69551 0.0
C917 C 0.26727 0.03059 0.73199 0.0
C918 C 0.14778 0.97186 0.7691 0.0
C919 C 0.15031 0.95114 0.77958 0.0
C920 C 0.12569 0.97466 0.76194 0.0
C921 C 0.13058 0.93343 0.78265 0.0
C922 C 0.10639 0.95655 0.76533 0.0
N923 N 0.10922 0.93648 0.77552 0.0
C924 C 0.21968 0.94899 0.78965 0.0
C925 C 0.23591 0.95523 0.75309 0.0
C926 C 0.23109 0.92848 0.79106 0.0
N927 N 0.2219 0.96258 0.77086 0.0
C928 C 0.24769 0.93477 0.7539 0.0
C929 C 0.24598 0.92056 0.77328 0.0
H930 H 0.20886 0.95388 0.80406 0.0
H931 H 0.23833 0.96527 0.73791 0.0
C932 C 0.16341 0.03928 0.69506 0.0
N933 N 0.15312 0.02079 0.70727 0.0
C934 C 0.15339 0.04295 0.67191 0.0
C935 C 0.12141 1.009 0.67284 0.0
C936 C 0.13208 1.00586 0.6961 0.0
C937 C 0.13194 0.02766 0.65959 0.0
H938 H 0.17978 0.05171 0.70324 0.0
H939 H 0.1232 0.99117 0.70508 0.0
O940 O 0.20826 0.02442 0.80181 0.0
O941 O 0.17134 0.04651 0.77391 0.0
O942 O 0.20646 0.01867 0.74402 0.0
O943 O 0.16682 0.98955 0.76619 0.0
H944 H 0.20761 0.0646 0.83641 0.0
H945 H 0.2495 0.01384 0.80601 0.0
H946 H 0.24098 0.08861 0.86696 0.0
H947 H 0.28217 0.03876 0.83705 0.0
H948 H 0.17536 0.12344 0.7528 0.0
H949 H 0.16409 0.07161 0.81751 0.0
H950 H 0.17654 0.07786 0.74228 0.0
H951 H 0.16305 0.1173 0.82674 0.0
H952 H 0.23596 0.14294 0.81437 0.0
H953 H 0.26034 0.12028 0.74339 0.0
H954 H 0.16862 0.03211 0.8946 0.0
H955 H 0.10205 0.02093 0.8537 0.0
H956 H 0.20752 0.02489 0.6973 0.0
H957 H 0.24912 0.02299 0.76352 0.0
H958 H 0.24326 0.03424 0.6764 0.0
H959 H 0.28417 0.03213 0.74141 0.0
H960 H 0.16731 0.94879 0.78529 0.0
H961 H 0.12349 0.99071 0.75394 0.0
H962 H 0.13225 0.91728 0.79072 0.0
H963 H 0.08917 0.95845 0.75988 0.0
H964 H 0.22766 0.91859 0.8062 0.0
H965 H 0.25852 0.93045 0.73931 0.0
H966 H 0.16258 0.05831 0.66398 0.0
H967 H 0.10498 0.99637 0.66509 0.0
Li968 Li 0.32275 0.96261 0.03383 0.0
Li969 Li 0.33556 0.92791 0.04808 0.0
Li970 Li 0.36249 0.9593 0.03437 0.0
Li971 Li 0.33553 0.92752 1.00367 0.0
C972 C 0.35342 0.98451 0.08189 0.0
N973 N 0.37194 0.02552 0.12027 0.0
C974 C 0.36511 0.98101 0.10342 0.0
C975 C 0.35092 1.00888 0.0801 0.0
C976 C 0.37442 1.00198 0.12254 0.0
C977 C 0.36046 0.02936 0.09964 0.0
C978 C 0.29365 0.90568 0.03093 0.0
C979 C 0.27862 0.86089 0.02865 0.0
N980 N 0.26542 0.86652 0.04733 0.0
C981 C 0.2799 0.91105 0.05005 0.0
C982 C 0.29301 0.88043 0.02008 0.0
C983 C 0.26575 0.89097 0.0581 0.0
C984 C 0.29541 0.99558 0.02026 0.0
N985 N 0.30161 0.98391 0.03854 0.0
C986 C 0.27748 1.0027 0.06582 0.0
C987 C 0.29309 0.98719 0.06101 0.0
C988 C 0.27034 0.01465 0.04718 0.0
C989 C 0.27967 1.01117 0.02422 0.0
H990 H 0.30259 0.99266 1.00261 0.0
H991 H 0.29859 0.97785 0.07526 0.0
C992 C 0.3289 0.91681 0.09547 0.0
N993 N 0.3321 0.90669 0.07179 0.0
C994 C 0.33186 0.90386 0.1146 0.0
C995 C 0.33953 0.86955 0.08419 0.0
C996 C 0.33633 0.88311 0.06567 0.0
C997 C 0.33805 0.88032 0.10913 0.0
H998 H 0.32539 0.93556 0.09969 0.0
H999 H 0.33874 0.87556 0.04664 0.0
C1000 C 0.35876 0.98334 0.99799 0.0
N1001 N 0.39219 0.01932 0.9832 0.0
C1002 C 0.37116 0.97623 0.9781 0.0
C1003 C 0.36303 1.00884 0.01 0.0
C1004 C 0.38809 0.99468 0.971 0.0
C1005 C 0.38008 0.02672 1.00234 0.0
C1006 C 0.37666 0.91344 0.03712 0.0
C1007 C 0.3872 0.92539 0.06098 0.0
C1008 C 0.3835 0.89218 0.02446 0.0
C1009 C 0.40442 0.91586 0.07185 0.0
C1010 C 0.4008 0.8832 0.03595 0.0
N1011 N 0.41081 0.89512 0.05921 0.0
C1012 C 0.40499 0.99618 0.05618 0.0
C1013 C 0.40677 0.96486 0.02085 0.0
C1014 C 0.42891 1.00528 0.0583 0.0
N1015 N 0.39447 0.97608 0.03782 0.0
C1016 C 0.43064 0.97346 0.02214 0.0
C1017 C 0.442 0.9938 0.04115 0.0
H1018 H 0.39508 1.00496 0.06946 0.0
H1019 H 0.39801 0.94888 1.00644 0.0
C1020 C 0.31217 0.89566 0.95802 0.0
N1021 N 0.33281 0.90694 0.97164 0.0
C1022 C 0.31152 0.88031 0.93454 0.0
C1023 C 0.3533 0.88862 0.93977 0.0
C1024 C 0.35312 0.90351 0.96316 0.0
C1025 C 0.33233 0.87695 0.92516 0.0
H1026 H 0.29628 0.89857 0.96539 0.0
H1027 H 0.36923 0.91251 0.9746 0.0
O1028 O 0.3439 0.9641 0.06311 0.0
O1029 O 0.30809 0.92504 0.02326 0.0
O1030 O 0.34274 0.96539 1.00586 0.0
O1031 O 0.3596 0.92231 0.02616 0.0
H1032 H 0.36697 0.96231 0.10543 0.0
H1033 H 0.34174 1.01204 0.06384 0.0
H1034 H 0.38358 0.99952 0.13923 0.0
H1035 H 0.35871 0.0483 0.09841 0.0
H1036 H 0.27803 0.84126 0.02052 0.0
H1037 H 0.28031 0.93049 0.05871 0.0
H1038 H 0.30374 0.87599 1.00543 0.0
H1039 H 0.25508 0.89482 0.07295 0.0
H1040 H 0.27113 1.0054 0.08396 0.0
H1041 H 0.27455 0.02005 0.00939 0.0
H1042 H 0.33047 0.91268 0.13361 0.0
H1043 H 0.3447 0.85169 0.07923 0.0
H1044 H 0.36797 0.95666 0.96842 0.0
H1045 H 0.35336 0.01476 0.02512 0.0
H1046 H 0.39801 0.98938 0.95583 0.0
H1047 H 0.38369 0.04649 0.01163 0.0
H1048 H 0.38216 0.94188 0.07094 0.0
H1049 H 0.37545 0.88264 1.00599 0.0
H1050 H 0.41272 0.92494 0.09032 0.0
H1051 H 0.40624 0.86673 0.02639 0.0
H1052 H 0.4371 0.02078 0.07349 0.0
H1053 H 0.44012 0.96426 1.00843 0.0
H1054 H 0.29505 0.87152 0.92365 0.0
H1055 H 0.36963 0.88616 0.93319 0.0
Li1056 Li 0.31623 0.40759 0.03974 0.0
Li1057 Li 0.3298 0.37586 0.0598 0.0
Li1058 Li 0.35919 0.41038 0.04334 0.0
Li1059 Li 0.33173 0.37418 0.01353 0.0
C1060 C 0.33281 0.43205 0.0881 0.0
N1061 N 0.3214 0.4689 0.12345 0.0
C1062 C 0.31103 0.4278 0.09684 0.0
C1063 C 0.3488 0.45503 0.09733 0.0
C1064 C 0.30558 0.44667 0.1147 0.0
C1065 C 0.3427 0.47342 0.11521 0.0
C1066 C 0.28687 0.35133 0.03734 0.0
C1067 C 0.27083 0.30695 0.03623 0.0
N1068 N 0.25293 0.31327 0.04826 0.0
C1069 C 0.26825 0.35739 0.04955 0.0
C1070 C 0.28814 0.32593 0.03048 0.0
C1071 C 0.25129 0.33787 0.05496 0.0
C1072 C 0.27258 0.41712 0.02473 0.0
N1073 N 0.29331 0.42825 0.03831 0.0
C1074 C 0.2821 0.46821 0.04667 0.0
C1075 C 0.29837 0.45345 0.04893 0.0
C1076 C 0.26051 0.45729 0.03266 0.0
C1077 C 0.25604 0.43132 0.02144 0.0
H1078 H 0.26912 0.39727 0.01574 0.0
H1079 H 0.31518 0.4623 0.05892 0.0
C1080 C 0.34206 0.34737 0.0975 0.0
N1081 N 0.32556 0.35851 0.08892 0.0
C1082 C 0.34021 0.33786 0.1197 0.0
C1083 C 0.30439 0.35109 0.12399 0.0
C1084 C 0.30683 0.36016 0.10173 0.0
C1085 C 0.3214 0.34014 0.13367 0.0
H1086 H 0.35709 0.34648 0.08755 0.0
H1087 H 0.29389 0.36914 0.09512 0.0
C1088 C 0.32849 0.42188 0.99705 0.0
N1089 N 0.30684 0.44346 0.96342 0.0
C1090 C 0.30886 0.40754 0.98151 0.0
C1091 C 0.33708 0.44721 0.99551 0.0
C1092 C 0.29818 0.41878 0.96461 0.0
C1093 C 0.3259 0.45777 0.97838 0.0
C1094 C 0.36416 0.35204 0.02725 0.0
C1095 C 0.38152 0.35565 0.01138 0.0
C1096 C 0.35389 0.32747 0.02992 0.0
C1097 C 0.3882 0.33451 0.99824 0.0
C1098 C 0.36107 0.30682 0.01649 0.0
N1099 N 0.37792 0.31073 1.00104 0.0
C1100 C 0.40866 0.42158 0.04924 0.0
C1101 C 0.39301 0.45707 0.04564 0.0
C1102 C 0.43107 0.43581 0.04859 0.0
N1103 N 0.3901 0.43215 0.04717 0.0
C1104 C 0.41517 0.47203 0.04498 0.0
C1105 C 0.43454 0.46122 0.04575 0.0
H1106 H 0.40603 0.40185 0.05072 0.0
H1107 H 0.37807 0.46519 0.04426 0.0
C1108 C 0.31348 0.33597 0.96669 0.0
N1109 N 0.33078 0.35581 0.97872 0.0
C1110 C 0.31252 0.32695 0.94077 0.0
C1111 C 0.34739 0.35839 0.94015 0.0
C1112 C 0.34768 0.36676 0.96589 0.0
C1113 C 0.32942 0.33853 0.92698 0.0
H1114 H 0.29979 0.32785 0.97689 0.0
H1115 H 0.36101 0.38283 0.97554 0.0
O1116 O 0.33847 0.41393 0.07049 0.0
O1117 O 0.30373 0.37018 0.03205 0.0
O1118 O 0.33876 0.41141 0.01423 0.0
O1119 O 0.35691 0.37242 0.03976 0.0
H1120 H 0.29828 0.4104 0.08945 0.0
H1121 H 0.36573 0.4586 0.09075 0.0
H1122 H 0.28873 0.44371 0.12151 0.0
H1123 H 0.3549 0.4913 0.12252 0.0
H1124 H 0.27162 0.28721 0.0311 0.0
H1125 H 0.26706 0.37698 0.05506 0.0
H1126 H 0.30233 0.32092 0.02084 0.0
H1127 H 0.23686 0.34229 0.06455 0.0
H1128 H 0.28654 0.48811 0.05566 0.0
H1129 H 0.24024 0.4221 0.00952 0.0
H1130 H 0.35382 0.32966 0.12636 0.0
H1131 H 0.28937 0.35296 0.13373 0.0
H1132 H 0.30166 0.38807 0.98279 0.0
H1133 H 0.35215 0.45865 1.00747 0.0
H1134 H 0.28292 0.40793 0.95257 0.0
H1135 H 0.33234 0.47737 0.97702 0.0
H1136 H 0.38954 0.37454 0.00897 0.0
H1137 H 0.34047 0.32437 0.04219 0.0
H1138 H 0.40151 0.337 0.98576 0.0
H1139 H 0.35323 0.28768 0.01831 0.0
H1140 H 0.44553 0.42684 0.04986 0.0
H1141 H 0.41703 0.49155 0.04289 0.0
H1142 H 0.29804 0.31198 0.93147 0.0
H1143 H 0.36081 0.36797 0.93047 0.0
Li1144 Li 0.80882 0.1684 0.04833 0.0
Li1145 Li 0.81753 0.13567 0.01928 0.0
Li1146 Li 0.80294 0.17022 1.00434 0.0
Li1147 Li 0.77824 0.13756 0.02153 0.0
C1148 C 0.84733 0.19432 0.0378 0.0
N1149 N 0.87597 0.2382 0.06559 0.0
C1150 C 0.86196 0.19314 0.05825 0.0
C1151 C 0.8474 0.21779 0.03137 0.0
C1152 C 0.87626 0.21555 0.0721 0.0
C1153 C 0.86198 0.23976 0.04567 0.0
C1154 C 0.80799 0.11219 0.05433 0.0
C1155 C 0.80581 0.06742 0.05177 0.0
N1156 N 0.82681 0.0731 0.06534 0.0
C1157 C 0.82953 0.11756 0.06831 0.0
C1158 C 0.79601 0.0869 0.04602 0.0
C1159 C 0.83876 0.09755 0.07366 0.0
C1160 C 0.81687 0.18055 0.10118 0.0
N1161 N 0.81464 0.19023 0.08035 0.0
C1162 C 0.8122 0.23019 0.10466 0.0
C1163 C 0.81289 0.21471 0.08168 0.0
C1164 C 0.81345 0.22036 0.12643 0.0
C1165 C 0.81672 0.19552 0.12457 0.0
H1166 H 0.81768 0.1609 0.09962 0.0
H1167 H 0.81069 0.22175 0.06476 0.0
C1168 C 0.82985 0.08949 0.99912 0.0
N1169 N 0.83823 0.11373 0.01192 0.0
C1170 C 0.84462 0.07295 0.99428 0.0
C1171 C 0.87649 0.10681 0.01537 0.0
C1172 C 0.86109 0.12268 0.01983 0.0
C1173 C 0.86823 0.08154 1.00261 0.0
H1174 H 0.81168 0.08289 0.99284 0.0
H1175 H 0.86732 0.14206 0.02982 0.0
C1176 C 0.76664 0.18159 0.04641 0.0
N1177 N 0.73679 0.19545 0.08035 0.0
C1178 C 0.76028 0.16718 0.06447 0.0
C1179 C 0.75797 0.20326 0.04591 0.0
C1180 C 0.74513 0.17442 0.08136 0.0
C1181 C 0.74286 0.20989 0.06314 0.0
C1182 C 0.77709 0.11786 0.97362 0.0
C1183 C 0.76893 0.12716 0.95357 0.0
C1184 C 0.76742 0.09298 0.97596 0.0
C1185 C 0.7511 0.11151 0.93635 0.0
C1186 C 0.74957 0.07795 0.95839 0.0
N1187 N 0.74185 0.08744 0.93911 0.0
C1188 C 0.81669 0.18952 0.96161 0.0
C1189 C 0.7845 0.20188 0.97949 0.0
C1190 C 0.81304 0.20098 0.94145 0.0
N1191 N 0.80222 0.18991 0.97983 0.0
C1192 C 0.78043 0.21383 0.95999 0.0
C1193 C 0.79445 0.21293 0.94042 0.0
H1194 H 0.83036 0.17937 0.96221 0.0
H1195 H 0.77284 0.20104 0.99373 0.0
C1196 C 0.73654 0.10525 0.03213 0.0
N1197 N 0.74625 0.12205 0.0183 0.0
C1198 C 0.71251 0.09735 0.03074 0.0
C1199 C 0.70913 0.12401 1.00084 0.0
C1200 C 0.73312 0.13142 1.00284 0.0
C1201 C 0.69855 0.10724 0.01533 0.0
H1202 H 0.74734 0.09881 0.04494 0.0
H1203 H 0.74136 0.14524 0.99256 0.0
O1204 O 0.83284 0.17266 0.02429 0.0
O1205 O 0.79898 0.13153 0.04832 0.0
O1206 O 0.78177 0.17505 0.02981 0.0
O1207 O 0.79445 0.13301 0.9908 0.0
H1208 H 0.86205 0.17518 0.0636 0.0
H1209 H 0.83617 0.2191 0.01565 0.0
H1210 H 0.88754 0.21494 0.08808 0.0
H1211 H 0.86213 0.25807 0.04098 0.0
H1212 H 0.79678 0.04777 0.04533 0.0
H1213 H 0.83928 0.13695 0.07453 0.0
H1214 H 0.7795 0.08228 0.03491 0.0
H1215 H 0.85549 0.10146 0.08428 0.0
H1216 H 0.80963 0.24921 0.10526 0.0
H1217 H 0.81844 0.18745 0.14098 0.0
H1218 H 0.83769 0.05374 0.98396 0.0
H1219 H 0.8946 0.11411 0.0221 0.0
H1220 H 0.76701 0.15062 0.06563 0.0
H1221 H 0.763 0.21509 0.03258 0.0
H1222 H 0.74007 0.16337 0.09534 0.0
H1223 H 0.73605 0.22661 0.0629 0.0
H1224 H 0.7762 0.14626 0.9513 0.0
H1225 H 0.77322 0.08553 0.9915 0.0
H1226 H 0.7446 0.11851 0.9208 0.0
H1227 H 0.7418 0.05877 0.96015 0.0
H1228 H 0.82412 0.19994 0.92653 0.0
H1229 H 0.76572 0.22253 0.95952 0.0
H1230 H 0.70494 0.08436 0.04219 0.0
H1231 H 0.69897 0.13163 0.98834 0.0
Li1232 Li 0.22337 0.57147 0.26284 0.0
Li1233 Li 0.18736 0.54844 0.27594 0.0
Li1234 Li 0.21862 0.5285 0.26633 0.0
Li1235 Li 0.19587 0.53883 0.23282 0.0
C1236 C 0.22875 0.55156 0.31354 0.0
N1237 N 0.24887 0.53671 0.35336 0.0
C1238 C 0.21497 0.54069 0.33023 0.0
C1239 C 0.25277 0.55523 0.31729 0.0
C1240 C 0.22548 0.53324 0.35021 0.0
C1241 C 0.26261 0.54747 0.33747 0.0
C1242 C 0.17123 0.57759 0.24556 0.0
C1243 C 0.13017 0.56626 0.23319 0.0
N1244 N 0.1305 0.59112 0.23337 0.0
C1245 C 0.17117 0.60301 0.24564 0.0
C1246 C 0.15058 0.55903 0.23934 0.0
C1247 C 0.15039 0.60947 0.23942 0.0
C1248 C 0.24299 0.6169 0.24765 0.0
N1249 N 0.24167 0.60501 0.2673 0.0
C1250 C 0.26119 0.64349 0.29502 0.0
C1251 C 0.25061 0.61764 0.29066 0.0
C1252 C 0.26257 0.6565 0.27517 0.0
C1253 C 0.2538 0.6426 0.2511 0.0
H1254 H 0.23515 0.60656 0.22938 0.0
H1255 H 0.2488 0.60785 0.30606 0.0
C1256 C 0.14783 0.53203 0.29939 0.0
N1257 N 0.16325 0.55261 0.29546 0.0
C1258 C 0.12917 0.5353 0.3128 0.0
C1259 C 0.14263 0.58085 0.31749 0.0
C1260 C 0.16116 0.5767 0.30428 0.0
C1261 C 0.12633 0.55999 0.32185 0.0
H1262 H 0.15011 0.51313 0.29218 0.0
H1263 H 0.17378 0.59265 0.30076 0.0
C1264 C 0.24866 0.55633 0.22843 0.0
N1265 N 0.28592 0.58434 0.21046 0.0
C1266 C 0.24668 0.56074 0.2042 0.0
C1267 C 0.26972 0.56572 0.24334 0.0
C1268 C 0.26569 0.57505 0.1955 0.0
C1269 C 0.28832 0.57997 0.23397 0.0
C1270 C 0.18083 0.49013 0.24185 0.0
C1271 C 0.19743 0.48219 0.22728 0.0
C1272 C 0.16013 0.47288 0.24295 0.0
C1273 C 0.19299 0.45713 0.21402 0.0
C1274 C 0.15634 0.44799 0.22938 0.0
N1275 N 0.17271 0.44069 0.21532 0.0
C1276 C 0.22091 0.48905 0.29103 0.0
C1277 C 0.25422 0.50076 0.27039 0.0
C1278 C 0.23049 0.47144 0.30086 0.0
N1279 N 0.23298 0.50356 0.27651 0.0
C1280 C 0.26433 0.48298 0.2795 0.0
C1281 C 0.25247 0.46836 0.29519 0.0
H1282 H 0.20395 0.49156 0.29536 0.0
H1283 H 0.26338 0.51251 0.25872 0.0
C1284 C 0.18288 0.55445 0.19085 0.0
N1285 N 0.1808 0.5328 0.19994 0.0
C1286 C 0.16884 0.555 0.16987 0.0
C1287 C 0.15207 0.51028 0.16645 0.0
C1288 C 0.16603 0.51078 0.18804 0.0
C1289 C 0.15282 0.53284 0.15759 0.0
H1290 H 0.19455 0.57177 0.20083 0.0
H1291 H 0.16429 0.49381 0.19564 0.0
O1292 O 0.21875 0.55846 0.29357 0.0
O1293 O 0.19142 0.57103 0.25184 0.0
O1294 O 0.23011 0.5428 0.23746 0.0
O1295 O 0.18474 0.5145 0.25525 0.0
H1296 H 0.19635 0.53777 0.32761 0.0
H1297 H 0.26368 0.56377 0.30465 0.0
H1298 H 0.21503 0.52462 0.36317 0.0
H1299 H 0.28116 0.54998 0.34048 0.0
H1300 H 0.11407 0.55211 0.22832 0.0
H1301 H 0.18702 0.61757 0.25049 0.0
H1302 H 0.15032 0.53927 0.23932 0.0
H1303 H 0.15007 0.62908 0.23941 0.0
H1304 H 0.26763 0.65328 0.31388 0.0
H1305 H 0.25496 0.65142 0.23504 0.0
H1306 H 0.1174 0.51875 0.31647 0.0
H1307 H 0.14108 0.60016 0.32427 0.0
H1308 H 0.23064 0.55325 0.19226 0.0
H1309 H 0.27159 0.5623 0.26204 0.0
H1310 H 0.26435 0.57877 0.17685 0.0
H1311 H 0.30465 0.5876 0.2454 0.0
H1312 H 0.21355 0.49515 0.2261 0.0
H1313 H 0.1471 0.47869 0.25412 0.0
H1314 H 0.20567 0.45075 0.20267 0.0
H1315 H 0.14037 0.43447 0.23003 0.0
H1316 H 0.22084 0.46033 0.31277 0.0
H1317 H 0.28138 0.48106 0.27485 0.0
H1318 H 0.16996 0.57292 0.16393 0.0
H1319 H 0.14056 0.49256 0.15713 0.0
Li1320 Li 0.81164 0.9067 0.53647 0.0
Li1321 Li 0.82759 0.87711 0.55662 0.0
Li1322 Li 0.85563 0.9107 0.54048 0.0
Li1323 Li 0.82895 0.87378 0.51031 0.0
C1324 C 0.8388 0.92026 0.59186 0.0
N1325 N 0.84781 0.9277 0.64293 0.0
C1326 C 0.8222 0.92656 0.60728 0.0
C1327 C 0.86003 0.91793 0.60236 0.0
C1328 C 0.82708 0.93022 0.63308 0.0
C1329 C 0.86423 0.9217 0.62824 0.0
C1330 C 0.78434 0.8518 0.53667 0.0
C1331 C 0.76736 0.80862 0.53948 0.0
N1332 N 0.75073 0.81688 0.55247 0.0
C1333 C 0.76698 0.85986 0.54982 0.0
C1334 C 0.78445 0.82598 0.53124 0.0
C1335 C 0.75018 0.84191 0.55773 0.0
C1336 C 0.76959 0.91663 0.51685 0.0
N1337 N 0.78755 0.92576 0.53507 0.0
C1338 C 0.77259 0.96266 0.5489 0.0
C1339 C 0.78924 0.94829 0.55107 0.0
C1340 C 0.75399 0.95394 0.52999 0.0
C1341 C 0.75272 0.9305 0.51384 0.0
H1342 H 0.76868 0.89879 0.50417 0.0
H1343 H 0.80375 0.95535 0.56529 0.0
C1344 C 0.84012 0.84884 0.59457 0.0
N1345 N 0.8239 0.86071 0.58673 0.0
C1346 C 0.83911 0.84012 0.61721 0.0
C1347 C 0.80475 0.85578 0.62374 0.0
C1348 C 0.80631 0.86402 0.60092 0.0
C1349 C 0.82149 0.84393 0.63261 0.0
H1350 H 0.8543 0.84664 0.58358 0.0
H1351 H 0.79386 0.87409 0.59512 0.0
C1352 C 0.82461 0.9244 0.4965 0.0
N1353 N 0.80264 0.9515 0.46886 0.0
C1354 C 0.8099 0.91182 0.475 0.0
C1355 C 0.82802 0.95075 0.50399 0.0
C1356 C 0.79903 0.92587 0.46124 0.0
C1357 C 0.81677 0.96411 0.48977 0.0
C1358 C 0.86157 0.85266 0.52489 0.0
C1359 C 0.87916 0.85583 0.50921 0.0
C1360 C 0.85085 0.82823 0.52757 0.0
C1361 C 0.88569 0.83443 0.49642 0.0
C1362 C 0.85789 0.80732 0.51449 0.0
N1363 N 0.87501 0.81082 0.4993 0.0
C1364 C 0.90502 0.9221 0.54612 0.0
C1365 C 0.8897 0.95785 0.54288 0.0
C1366 C 0.92752 0.93617 0.54553 0.0
N1367 N 0.88655 0.93284 0.54415 0.0
C1368 C 0.91195 0.97269 0.54236 0.0
C1369 C 0.9312 0.96168 0.543 0.0
H1370 H 0.90228 0.90235 0.54757 0.0
H1371 H 0.87492 0.96621 0.54165 0.0
C1372 C 0.81202 0.8348 0.46339 0.0
N1373 N 0.82877 0.85517 0.47554 0.0
C1374 C 0.81159 0.82562 0.43753 0.0
C1375 C 0.84589 0.85791 0.43721 0.0
C1376 C 0.8457 0.86641 0.46289 0.0
C1377 C 0.82845 0.83755 0.42387 0.0
H1378 H 0.79839 0.82633 0.47347 0.0
H1379 H 0.85864 0.88283 0.47261 0.0
O1380 O 0.8341 0.9158 0.56656 0.0
O1381 O 0.80101 0.86909 0.52895 0.0
O1382 O 0.8348 0.91088 0.51073 0.0
O1383 O 0.85442 0.87329 0.53698 0.0
H1384 H 0.80562 0.92825 0.59939 0.0
H1385 H 0.87299 0.91291 0.59061 0.0
H1386 H 0.81436 0.93494 0.64527 0.0
H1387 H 0.88052 0.91977 0.63664 0.0
H1388 H 0.76728 0.78858 0.53552 0.0
H1389 H 0.76663 0.8798 0.5541 0.0
H1390 H 0.79758 0.81942 0.52075 0.0
H1391 H 0.73673 0.84788 0.56808 0.0
H1392 H 0.77438 0.98056 0.56183 0.0
H1393 H 0.73925 0.92325 0.49848 0.0
H1394 H 0.85218 0.83056 0.62259 0.0
H1395 H 0.79092 0.8595 0.63476 0.0
H1396 H 0.80656 0.8914 0.46916 0.0
H1397 H 0.8388 0.96073 0.52091 0.0
H1398 H 0.78757 0.91636 0.4446 0.0
H1399 H 0.81915 0.98448 0.49547 0.0
H1400 H 0.88744 0.87458 0.50664 0.0
H1401 H 0.83715 0.82545 0.53956 0.0
H1402 H 0.89919 0.83659 0.48412 0.0
H1403 H 0.84971 0.78829 0.51636 0.0
H1404 H 0.94188 0.92704 0.54669 0.0
H1405 H 0.91398 0.99231 0.54054 0.0
H1406 H 0.7975 0.81021 0.42813 0.0
H1407 H 0.85928 0.86777 0.42769 0.0
Li1408 Li 0.9619 0.07491 0.30201 0.0
Li1409 Li 0.92701 0.04551 0.27192 0.0
Li1410 Li 0.96124 0.07346 0.25004 0.0
Li1411 Li 0.93024 0.09785 0.27602 0.0
C1412 C 0.97901 0.03532 0.27741 0.0
N1413 N 0.01507 0.01399 0.28986 0.0
C1414 C 0.97539 0.01585 0.2909 0.0
C1415 C 1.00096 0.044 0.27029 0.0
C1416 C 0.99385 1.00531 0.29702 0.0
C1417 C 0.01896 0.03293 0.27673 0.0
C1418 C 0.90633 0.06658 0.31227 0.0
C1419 C 0.86561 0.06518 0.31314 0.0
N1420 N 0.86498 0.05158 0.33154 0.0
C1421 C 0.90531 0.05267 0.33122 0.0
C1422 C 0.88635 0.07293 0.30315 0.0
C1423 C 0.88422 0.04523 0.34071 0.0
C1424 C 1.00023 0.08861 0.35 0.0
N1425 N 0.98054 0.07199 0.33743 0.0
C1426 C 0.98207 0.04739 0.37062 0.0
C1427 C 0.97187 0.05142 0.34777 0.0
C1428 C 1.00207 0.06437 0.38439 0.0
C1429 C 0.01109 0.08513 0.37297 0.0
H1430 H 1.0078 0.10495 0.34242 0.0
H1431 H 0.95679 0.03755 0.33823 0.0
C1432 C 0.91728 0.98847 0.2605 0.0
N1433 N 0.90703 1.00804 0.26898 0.0
C1434 C 0.90643 0.96268 0.2601 0.0
C1435 C 0.87372 0.9764 0.2761 0.0
C1436 C 0.88529 1.00206 0.27643 0.0
C1437 C 0.88431 0.9559 0.26832 0.0
H1438 H 0.93428 0.99275 0.25421 0.0
H1439 H 0.87679 0.01716 0.28305 0.0
C1440 C 0.98525 0.12251 0.27711 0.0
N1441 N 0.02254 0.15832 0.26866 0.0
C1442 C 0.98166 0.14246 0.26598 0.0
C1443 C 1.00775 0.1207 0.28394 0.0
C1444 C 1.00076 0.16041 0.26187 0.0
C1445 C 0.02639 0.13902 0.27951 0.0
C1446 C 0.90864 0.06635 0.2269 0.0
C1447 C 0.91398 0.07647 0.20585 0.0
C1448 C 0.88576 0.055 0.2293 0.0
C1449 C 0.89621 0.07508 0.18745 0.0
C1450 C 0.86849 0.054 0.21049 0.0
N1451 N 0.87403 0.06398 0.19014 0.0
C1452 C 0.98352 0.04917 0.20352 0.0
C1453 C 0.98667 0.0926 0.20537 0.0
C1454 C 0.9945 0.04703 0.18081 0.0
N1455 N 0.97957 0.07177 0.21592 0.0
C1456 C 0.99771 0.09124 0.1827 0.0
C1457 C 1.0022 0.06819 0.16947 0.0
H1458 H 0.97804 0.03227 0.21109 0.0
H1459 H 0.98355 0.11066 0.21427 0.0
C1460 C 0.91562 0.15158 0.29489 0.0
N1461 N 0.91137 0.13002 0.2763 0.0
C1462 C 0.90369 0.172 0.29474 0.0
C1463 C 0.88242 0.14895 0.25658 0.0
C1464 C 0.89464 0.12898 0.2574 0.0
C1465 C 0.88662 0.1717 0.27522 0.0
H1466 H 0.92854 0.1534 0.31025 0.0
H1467 H 0.89039 0.11243 0.24245 0.0
O1468 O 0.96136 0.04635 0.27171 0.0
O1469 O 0.92669 0.07394 0.3025 0.0
O1470 O 0.96682 0.10454 0.28089 0.0
O1471 O 0.9257 0.06784 0.24527 0.0
H1472 H 0.95856 1.0091 0.29678 0.0
H1473 H 1.00406 0.0592 0.26 0.0
H1474 H 0.99132 0.99027 0.30752 0.0
H1475 H 0.03605 0.03946 0.27135 0.0
H1476 H 0.85 0.0699 0.30621 0.0
H1477 H 0.92057 0.04763 0.33853 0.0
H1478 H 0.88685 0.08362 0.2884 0.0
H1479 H 0.88315 0.0344 0.35534 0.0
H1480 H 0.97422 0.03051 0.37723 0.0
H1481 H 0.02637 0.09912 0.382 0.0
H1482 H 0.91545 0.9481 0.25314 0.0
H1483 H 0.85674 0.97277 0.28257 0.0
H1484 H 0.9643 0.144 0.2605 0.0
H1485 H 0.01075 0.10526 0.29249 0.0
H1486 H 0.99828 0.17596 0.25324 0.0
H1487 H 0.04392 0.13788 0.28467 0.0
H1488 H 0.93164 0.08538 0.20382 0.0
H1489 H 0.8814 0.04714 0.24554 0.0
H1490 H 0.90005 0.08286 0.17105 0.0
H1491 H 0.85068 0.04532 0.21208 0.0
H1492 H 0.9971 0.02858 0.17232 0.0
H1493 H 1.00212 0.1084 0.17537 0.0
H1494 H 0.9083 0.18834 0.30995 0.0
H1495 H 0.86927 0.14602 0.2412 0.0
Li1496 Li 0.30723 0.67222 0.54806 0.0
Li1497 Li 0.3195 0.63829 0.52418 0.0
Li1498 Li 0.30479 0.66939 0.50274 0.0
Li1499 Li 0.27937 0.63743 0.52186 0.0
C1500 C 0.34797 0.69821 0.53765 0.0
N1501 N 0.37813 0.74371 0.55958 0.0
C1502 C 0.36207 0.69999 0.55954 0.0
C1503 C 0.34916 0.71964 0.52702 0.0
C1504 C 0.37722 0.72314 0.57031 0.0
C1505 C 0.36453 0.74245 0.53836 0.0
C1506 C 0.30926 0.62217 0.56442 0.0
C1507 C 0.31394 0.58142 0.57151 0.0
N1508 N 0.3313 0.59337 0.5898 0.0
C1509 C 0.32703 0.63406 0.58341 0.0
C1510 C 0.30252 0.59565 0.55853 0.0
C1511 C 0.33798 0.61916 0.59599 0.0
C1512 C 0.29594 0.6833 0.59581 0.0
N1513 N 0.30862 0.69459 0.57949 0.0
C1514 C 0.31791 0.73426 0.60861 0.0
C1515 C 0.31903 0.71979 0.58517 0.0
C1516 C 0.30509 0.72292 0.6259 0.0
C1517 C 0.29383 0.69714 0.61909 0.0
H1518 H 0.287 0.66353 0.59053 0.0
H1519 H 0.32792 0.72884 0.57154 0.0
C1520 C 0.33615 0.59367 0.50913 0.0
N1521 N 0.34138 0.6175 0.52344 0.0
C1522 C 0.35137 0.57763 0.5101 0.0
C1523 C 0.37718 0.61112 0.54015 0.0
C1524 C 0.36156 0.62652 0.53848 0.0
C1525 C 0.372 0.58626 0.52606 0.0
H1526 H 0.32004 0.58699 0.49727 0.0
H1527 H 0.36533 0.64549 0.54956 0.0
C1528 C 0.27229 0.69281 0.53727 0.0
N1529 N 0.25544 0.73155 0.56393 0.0
C1530 C 0.25469 0.68728 0.5525 0.0
C1531 C 0.2812 0.71798 0.53541 0.0
C1532 C 0.24644 0.70716 0.56587 0.0
C1533 C 0.27248 0.73732 0.54909 0.0
C1534 C 0.28183 0.61325 0.47689 0.0
C1535 C 0.27373 0.61848 0.45442 0.0
C1536 C 0.27311 0.58955 0.48274 0.0
C1537 C 0.25676 0.60005 0.43836 0.0
C1538 C 0.25613 0.57165 0.46622 0.0
N1539 N 0.24836 0.57723 0.44456 0.0
C1540 C 0.32028 0.69344 0.46188 0.0
C1541 C 0.28083 0.68759 0.46952 0.0
C1542 C 0.31585 0.70402 0.44123 0.0
N1543 N 0.30279 0.68567 0.47554 0.0
C1544 C 0.2756 0.69751 0.44894 0.0
C1545 C 0.29319 0.70578 0.43458 0.0
H1546 H 0.33751 0.69131 0.46692 0.0
H1547 H 0.26723 0.68087 0.48047 0.0
C1548 C 0.239 0.60569 0.53436 0.0
N1549 N 0.24798 0.62092 0.51879 0.0
C1550 C 0.21504 0.59811 0.53424 0.0
C1551 C 0.21037 0.62165 0.50181 0.0
C1552 C 0.23429 0.62859 0.50241 0.0
C1553 C 0.20057 0.60682 0.51833 0.0
H1554 H 0.25038 0.60043 0.54758 0.0
H1555 H 0.24205 0.64107 0.49061 0.0
O1556 O 0.33345 0.67555 0.52639 0.0
O1557 O 0.29881 0.63643 0.55138 0.0
O1558 O 0.28112 0.67372 0.52466 0.0
O1559 O 0.29823 0.63118 0.49303 0.0
H1560 H 0.36106 0.68391 0.56846 0.0
H1561 H 0.33826 0.71878 0.5103 0.0
H1562 H 0.38813 0.7248 0.5873 0.0
H1563 H 0.3656 0.75916 0.53031 0.0
H1564 H 0.30903 0.56087 0.56701 0.0
H1565 H 0.33252 0.65457 0.58816 0.0
H1566 H 0.28879 0.58614 0.54391 0.0
H1567 H 0.35188 0.62809 0.61059 0.0
H1568 H 0.32716 0.75399 0.61314 0.0
H1569 H 0.28335 0.68773 0.63159 0.0
H1570 H 0.34691 0.55858 0.49885 0.0
H1571 H 0.39318 0.61861 0.55224 0.0
H1572 H 0.24771 0.66788 0.55422 0.0
H1573 H 0.29491 0.72254 0.52378 0.0
H1574 H 0.23293 0.7032 0.57787 0.0
H1575 H 0.27932 0.75692 0.54799 0.0
H1576 H 0.28052 0.6365 0.44933 0.0
H1577 H 0.27911 0.58519 0.50007 0.0
H1578 H 0.25029 0.60389 0.42094 0.0
H1579 H 0.24908 0.55335 0.47065 0.0
H1580 H 0.32975 0.71036 0.4304 0.0
H1581 H 0.25799 0.69879 0.44428 0.0
H1582 H 0.20795 0.58662 0.54719 0.0
H1583 H 0.19965 0.62838 0.48907 0.0
Li1584 Li 0.42703 0.54621 0.77153 0.0
Li1585 Li 0.46225 0.57518 0.80207 0.0
Li1586 Li 0.42997 0.59868 0.77516 0.0
Li1587 Li 0.45911 0.57203 0.74894 0.0
C1588 C 0.40934 0.56839 0.81565 0.0
N1589 N 0.37298 0.55571 0.84333 0.0
C1590 C 0.41228 0.55684 0.83589 0.0
C1591 C 0.38796 0.57359 0.80951 0.0
C1592 C 0.39367 0.55051 0.84963 0.0
C1593 C 0.36977 0.56702 0.82374 0.0
C1594 C 0.46146 0.52135 0.76781 0.0
C1595 C 0.45679 0.48099 0.73967 0.0
N1596 N 0.45934 0.46975 0.75945 0.0
C1597 C 0.4641 0.50944 0.78787 0.0
C1598 C 0.4578 0.50707 0.74351 0.0
C1599 C 0.46295 0.48331 0.78325 0.0
C1600 C 0.39426 0.49324 0.75008 0.0
N1601 N 0.40679 0.50905 0.77096 0.0
C1602 C 0.39716 0.47396 0.79296 0.0
C1603 C 0.40809 0.49943 0.7922 0.0
C1604 C 0.38437 0.45706 0.77167 0.0
C1605 C 0.38289 0.46759 0.75011 0.0
H1606 H 0.39338 0.50014 0.73295 0.0
H1607 H 0.41832 0.51129 0.80872 0.0
C1608 C 0.47433 0.5826 0.86025 0.0
N1609 N 0.48148 0.57365 0.83767 0.0
C1610 C 0.48466 0.57948 0.88349 0.0
C1611 C 0.5107 0.55862 0.86141 0.0
C1612 C 0.4998 0.56199 0.83846 0.0
C1613 C 0.50314 0.56687 0.88495 0.0
H1614 H 0.46009 0.592 0.86052 0.0
H1615 H 0.50593 0.55456 0.82111 0.0
C1616 C 0.41766 0.5698 0.72079 0.0
N1617 N 0.40718 0.5735 0.67207 0.0
C1618 C 0.42681 0.59213 0.7126 0.0
C1619 C 0.40317 0.54935 0.70421 0.0
C1620 C 0.42132 0.59363 0.6879 0.0
C1621 C 0.39807 0.5516 0.67965 0.0
C1622 C 0.48469 0.62207 0.77541 0.0
C1623 C 0.4809 0.6413 0.76327 0.0
C1624 C 0.50723 0.62127 0.78334 0.0
C1625 C 0.49985 0.65943 0.75914 0.0
C1626 C 0.52571 0.63976 0.77887 0.0
N1627 N 0.52167 0.65829 0.76696 0.0
C1628 C 0.41293 0.65054 0.79684 0.0
C1629 C 0.39729 0.63289 0.75591 0.0
C1630 C 0.40111 0.67114 0.79733 0.0
N1631 N 0.41124 0.63128 0.77629 0.0
C1632 C 0.38531 0.65319 0.75564 0.0
C1633 C 0.38661 0.67341 0.77652 0.0
H1634 H 0.4237 0.65035 0.81338 0.0
H1635 H 0.39514 0.61826 0.73929 0.0
C1636 C 0.46669 0.55286 0.69272 0.0
N1637 N 0.47716 0.56941 0.71433 0.0
C1638 C 0.47751 0.55026 0.66992 0.0
C1639 C 0.51035 0.58152 0.69062 0.0
C1640 C 0.49889 0.58368 0.71304 0.0
C1641 C 0.50007 0.56441 0.66802 0.0
H1642 H 0.44962 0.54119 0.69285 0.0
H1643 H 0.50775 0.59709 0.72948 0.0
O1644 O 0.42738 0.57506 0.80212 0.0
O1645 O 0.46157 0.54668 0.77196 0.0
O1646 O 0.42341 0.56786 0.74475 0.0
O1647 O 0.46641 0.60403 0.77942 0.0
H1648 H 0.4287 0.55259 0.84081 0.0
H1649 H 0.38547 0.58266 0.79394 0.0
H1650 H 0.39567 0.54148 0.86529 0.0
H1651 H 0.35312 0.57094 0.81922 0.0
H1652 H 0.45386 0.46967 0.72096 0.0
H1653 H 0.46652 0.52013 0.80681 0.0
H1654 H 0.45549 0.51599 0.72782 0.0
H1655 H 0.46476 0.47379 0.7986 0.0
H1656 H 0.39881 0.46761 0.81038 0.0
H1657 H 0.37352 0.45585 0.73299 0.0
H1658 H 0.47804 0.58722 0.9004 0.0
H1659 H 0.5247 0.54883 0.86052 0.0
H1660 H 0.43817 0.60806 0.72517 0.0
H1661 H 0.39596 0.53194 0.7102 0.0
H1662 H 0.42834 0.61077 0.6813 0.0
H1663 H 0.38689 0.53591 0.66661 0.0
H1664 H 0.46352 0.64225 0.75717 0.0
H1665 H 0.51039 0.60646 0.79275 0.0
H1666 H 0.49721 0.67442 0.74975 0.0
H1667 H 0.54327 0.63937 0.78485 0.0
H1668 H 0.40397 0.68561 0.81414 0.0
H1669 H 0.37469 0.65264 0.73876 0.0
H1670 H 0.46814 0.53665 0.65384 0.0
H1671 H 0.52724 0.59381 0.69113 0.0
Li1672 Li 0.68256 0.05162 0.76714 0.0
Li1673 Li 0.71696 0.07704 0.75332 0.0
Li1674 Li 0.69075 0.04298 0.72409 0.0
Li1675 Li 0.71548 0.03472 0.75661 0.0
C1676 C 0.66278 0.0773 0.73512 0.0
N1677 N 0.61979 0.08301 0.7186 0.0
C1678 C 0.66004 0.10078 0.73066 0.0
C1679 C 0.64366 0.05671 0.73119 0.0
C1680 C 0.63816 0.10329 0.72232 0.0
C1681 C 0.62207 0.05999 0.72281 0.0
C1682 C 0.72599 0.05766 0.80343 0.0
C1683 C 0.76192 0.05739 0.82607 0.0
N1684 N 0.7499 0.04454 0.84188 0.0
C1685 C 0.71397 0.04467 0.82003 0.0
C1686 C 0.75014 0.06432 0.8066 0.0
C1687 C 0.72639 0.03815 0.83932 0.0
C1688 C 0.64706 0.03145 0.79393 0.0
N1689 N 0.65861 0.0531 0.78762 0.0
C1690 C 0.63416 0.07708 0.809 0.0
C1691 C 0.65268 0.07569 0.79485 0.0
C1692 C 0.62201 0.05507 0.81604 0.0
C1693 C 0.62859 0.03201 0.80829 0.0
H1694 H 0.65227 0.01381 0.78787 0.0
H1695 H 0.66219 0.09255 0.78937 0.0
C1696 C 0.73984 0.12286 0.73935 0.0
N1697 N 0.73465 0.1107 0.75844 0.0
C1698 C 0.75281 0.14789 0.74427 0.0
C1699 C 0.75332 0.14781 0.78831 0.0
C1700 C 0.74091 0.12268 0.78255 0.0
C1701 C 0.75981 0.16063 0.76907 0.0
H1702 H 0.73395 0.11314 0.72035 0.0
H1703 H 0.73585 0.11283 0.79737 0.0
C1704 C 0.67954 0.99368 0.73395 0.0
N1705 N 0.67418 0.94411 0.70869 0.0
C1706 C 0.69556 0.98729 0.71773 0.0
C1707 C 0.66084 0.97483 0.73736 0.0
C1708 C 0.69254 0.96213 0.70513 0.0
C1709 C 0.65841 0.94989 0.7244 0.0
C1710 C 0.74291 0.06293 0.71753 0.0
C1711 C 0.7405 0.06431 0.69238 0.0
C1712 C 0.76392 0.07459 0.73198 0.0
C1713 C 0.75896 0.07789 0.68224 0.0
C1714 C 0.78196 0.08802 0.72117 0.0
N1715 N 0.77912 0.08941 0.69674 0.0
C1716 C 0.67749 0.05574 0.68059 0.0
C1717 C 0.65955 1.01315 0.68196 0.0
C1718 C 0.66296 0.05485 0.65948 0.0
N1719 N 0.67525 0.03527 0.69161 0.0
C1720 C 0.64488 1.0113 0.66057 0.0
C1721 C 0.6462 0.03258 0.64963 0.0
H1722 H 0.68964 0.07329 0.68915 0.0
H1723 H 0.65734 0.99746 0.69147 0.0
C1724 C 0.72463 0.9958 0.77989 0.0
N1725 N 0.73331 1.01241 0.76542 0.0
C1726 C 0.73832 0.98087 0.78859 0.0
C1727 C 0.76918 0.99974 0.76642 0.0
C1728 C 0.75493 0.01431 0.75822 0.0
C1729 C 0.76098 0.98301 0.78203 0.0
H1730 H 0.70731 0.99473 0.78524 0.0
H1731 H 0.76125 0.02744 0.74647 0.0
O1732 O 0.68421 0.0745 0.74289 0.0
O1733 O 0.71415 0.06369 0.78409 0.0
O1734 O 0.68209 0.01813 0.74668 0.0
O1735 O 0.72496 0.04976 0.72777 0.0
H1736 H 0.67472 0.11686 0.73354 0.0
H1737 H 0.64548 0.03835 0.73441 0.0
H1738 H 0.63578 0.12135 0.71877 0.0
H1739 H 0.60714 0.04421 0.71963 0.0
H1740 H 0.78062 0.0622 0.82861 0.0
H1741 H 0.69528 0.03942 0.81786 0.0
H1742 H 0.75969 0.07454 0.79403 0.0
H1743 H 0.71733 0.02793 0.8522 0.0
H1744 H 0.62936 0.09512 0.81427 0.0
H1745 H 0.61977 0.0147 0.81359 0.0
H1746 H 0.75723 0.15717 0.72888 0.0
H1747 H 0.75734 0.15725 0.80762 0.0
H1748 H 0.71014 1.00154 0.71478 0.0
H1749 H 0.64827 0.97944 0.74982 0.0
H1750 H 0.70478 0.95692 0.69251 0.0
H1751 H 0.64399 0.93513 0.72682 0.0
H1752 H 0.72461 0.05487 0.68074 0.0
H1753 H 0.76615 0.07365 0.75144 0.0
H1754 H 0.75727 0.07922 0.66283 0.0
H1755 H 0.79821 0.09739 0.73222 0.0
H1756 H 0.66428 0.0716 0.65139 0.0
H1757 H 0.63186 0.99397 0.65347 0.0
H1758 H 0.73152 0.96839 0.80085 0.0
H1759 H 0.7865 1.00165 0.76079 0.0
Li1760 Li 0.80882 0.71746 0.0381 0.0
Li1761 Li 0.82537 0.68316 0.01367 0.0
Li1762 Li 0.8079 0.71218 0.99131 0.0
Li1763 Li 0.78046 0.68076 0.00968 0.0
C1764 C 0.84883 0.74511 0.02288 0.0
N1765 N 0.87488 0.79444 0.03505 0.0
C1766 C 0.87128 0.75024 0.03468 0.0
C1767 C 0.83965 0.76499 0.01712 0.0
C1768 C 0.88417 0.77533 0.04073 0.0
C1769 C 0.85309 0.78982 0.02345 0.0
C1770 C 0.80563 0.67798 0.06276 0.0
C1771 C 0.79028 0.66808 0.1003 0.0
N1772 N 0.81211 0.67438 0.11207 0.0
C1773 C 0.82791 0.68436 0.0752 0.0
C1774 C 0.78663 0.66977 0.07535 0.0
C1775 C 0.83083 0.68244 0.10016 0.0
C1776 C 0.78981 0.73362 0.08307 0.0
N1777 N 0.8101 0.73732 0.0725 0.0
C1778 C 0.83032 0.75962 0.11241 0.0
C1779 C 0.83014 0.75047 0.08664 0.0
C1780 C 0.8098 0.75483 0.12396 0.0
C1781 C 0.7893 0.74203 0.10876 0.0
H1782 H 0.77412 0.72274 0.07177 0.0
H1783 H 0.84623 0.75276 0.07829 0.0
C1784 C 0.87051 0.67162 0.00964 0.0
N1785 N 0.84872 0.66336 0.01571 0.0
C1786 C 0.88758 0.65792 0.01276 0.0
C1787 C 0.85951 0.62743 0.02817 0.0
C1788 C 0.843 0.64159 0.02465 0.0
C1789 C 0.88224 0.63554 0.02233 0.0
H1790 H 0.87478 0.68911 1.00279 0.0
H1791 H 0.82564 0.63541 0.02947 0.0
C1792 C 0.76881 0.73298 1.00855 0.0
N1793 N 0.74012 0.76412 0.99845 0.0
C1794 C 0.74889 0.7231 0.99185 0.0
C1795 C 0.77401 0.75858 0.02036 0.0
C1796 C 0.73463 0.73918 0.98694 0.0
C1797 C 0.75933 0.77405 0.01492 0.0
C1798 C 0.79821 0.66626 0.95828 0.0
C1799 C 0.7781 0.66866 0.94534 0.0
C1800 C 0.81498 0.65683 0.94517 0.0
C1801 C 0.77525 0.66193 0.91936 0.0
C1802 C 0.81146 0.65024 0.91918 0.0
N1803 N 0.79186 0.65296 0.90692 0.0
C1804 C 0.82659 0.72041 0.94506 0.0
C1805 C 0.79639 0.74144 0.95315 0.0
C1806 C 0.828 0.72734 0.92164 0.0
N1807 N 0.81068 0.72704 0.9603 0.0
C1808 C 0.79751 0.7492 0.93005 0.0
C1809 C 0.8134 0.74211 0.91362 0.0
H1810 H 0.83791 0.70901 0.95076 0.0
H1811 H 0.78385 0.74685 0.96517 0.0
C1812 C 0.73488 0.66892 0.02285 0.0
N1813 N 0.74984 0.65952 1.00803 0.0
C1814 C 0.71262 0.65435 0.02343 0.0
C1815 C 0.72139 0.62061 0.99338 0.0
C1816 C 0.74351 0.63588 0.99332 0.0
C1817 C 0.70564 0.62971 1.00876 0.0
H1818 H 0.74036 0.68772 0.03447 0.0
H1819 H 0.75569 0.62881 0.98166 0.0
O1820 O 0.83594 0.72071 0.01704 0.0
O1821 O 0.80241 0.68015 0.03847 0.0
O1822 O 0.78293 0.71756 0.01369 0.0
O1823 O 0.80164 0.67347 0.98365 0.0
H1824 H 0.87859 0.73499 0.03925 0.0
H1825 H 0.82236 0.76128 1.00784 0.0
H1826 H 0.90154 0.77962 0.04996 0.0
H1827 H 0.84621 0.80542 0.01915 0.0
H1828 H 0.77575 0.66183 0.11033 0.0
H1829 H 0.84277 0.69096 0.06574 0.0
H1830 H 0.76927 0.66489 0.06597 0.0
H1831 H 0.84796 0.68741 0.11008 0.0
H1832 H 0.84658 0.76905 0.12345 0.0
H1833 H 0.77314 0.73774 0.11686 0.0
H1834 H 0.90492 0.66517 1.00838 0.0
H1835 H 0.85453 0.61027 0.03548 0.0
H1836 H 0.74452 0.70325 0.98275 0.0
H1837 H 0.78922 0.76641 0.03359 0.0
H1838 H 0.7192 0.73185 0.97398 0.0
H1839 H 0.76318 0.79394 0.02383 0.0
H1840 H 0.76498 0.67592 0.95527 0.0
H1841 H 0.83065 0.65489 0.95497 0.0
H1842 H 0.75987 0.66389 0.90907 0.0
H1843 H 0.82433 0.64304 0.90876 0.0
H1844 H 0.84013 0.72055 0.90978 0.0
H1845 H 0.78597 0.76076 0.92517 0.0
H1846 H 0.70114 0.66211 0.03564 0.0
H1847 H 0.71663 0.60191 0.98143 0.0
Li1848 Li 0.92174 0.52874 0.80622 0.0
Li1849 Li 0.94954 0.56047 0.83455 0.0
Li1850 Li 0.92172 0.57261 0.80587 0.0
Li1851 Li 0.95422 0.55329 0.79089 0.0
C1852 C 0.89543 0.54259 0.84179 0.0
N1853 N 0.85506 0.5185 0.85793 0.0
C1854 C 0.89546 0.52271 0.85446 0.0
C1855 C 0.87487 0.55034 0.83754 0.0
C1856 C 0.87487 0.51071 0.86238 0.0
C1857 C 0.85465 0.53791 0.84582 0.0
C1858 C 0.96849 0.52155 0.82932 0.0
C1859 C 1.00644 0.52303 0.84858 0.0
N1860 N 0.99683 0.50575 0.862 0.0
C1861 C 0.959 0.5039 0.84341 0.0
C1862 C 0.99242 0.53122 0.83195 0.0
C1863 C 0.97362 0.49612 0.85979 0.0
C1864 C 0.91584 0.47647 0.79339 0.0
N1865 N 0.90361 0.49457 0.79963 0.0
C1866 C 0.86823 0.4629 0.79259 0.0
C1867 C 0.88016 0.48833 0.79894 0.0
C1868 C 0.88061 0.44389 0.78692 0.0
C1869 C 0.90466 0.45089 0.7871 0.0
H1870 H 0.93432 0.48193 0.79291 0.0
H1871 H 0.87064 0.50304 0.80278 0.0
C1872 C 0.98854 0.58253 0.86915 0.0
N1873 N 0.9662 0.56927 0.86653 0.0
C1874 C 1.00324 0.58305 0.89005 0.0
C1875 C 0.97084 0.55909 0.90657 0.0
C1876 C 0.95687 0.55873 0.88517 0.0
C1877 C 0.99459 0.57005 0.9084 0.0
H1878 H 0.99541 0.59102 0.85423 0.0
H1879 H 0.93898 0.54869 0.88279 0.0
C1880 C 0.90953 0.52513 0.75865 0.0
N1881 N 0.88565 0.48292 0.72412 0.0
C1882 C 0.92152 0.50925 0.74451 0.0
C1883 C 0.88537 0.51953 0.75512 0.0
C1884 C 0.90914 0.48801 0.72718 0.0
C1885 C 0.87362 0.49812 0.73759 0.0
C1886 C 0.97121 0.60366 0.80389 0.0
C1887 C 0.9632 0.62068 0.7914 0.0
C1888 C 0.99483 0.60396 0.80584 0.0
C1889 C 0.97895 0.63787 0.78136 0.0
C1890 C 0.01002 0.62141 0.79551 0.0
N1891 N 1.00183 0.63788 0.78361 0.0
C1892 C 0.91037 0.61941 0.82086 0.0
C1893 C 0.88521 0.59175 0.7873 0.0
C1894 C 0.89692 0.63741 0.82158 0.0
N1895 N 0.90424 0.59712 0.80396 0.0
C1896 C 0.87088 0.60881 0.78787 0.0
C1897 C 0.87651 0.6319 0.80537 0.0
H1898 H 0.92569 0.6231 0.83386 0.0
H1899 H 0.88079 0.57394 0.77407 0.0
C1900 C 0.98777 0.53208 0.76812 0.0
N1901 N 0.97647 0.55109 0.76782 0.0
C1902 C 1.00601 0.53027 0.75375 0.0
C1903 C 0.99986 0.56685 0.73784 0.0
C1904 C 0.98149 0.56775 0.75235 0.0
C1905 C 0.01246 0.5481 0.73879 0.0
H1906 H 0.98276 0.51837 0.77969 0.0
H1907 H 0.97167 0.5821 0.75177 0.0
O1908 O 0.91543 0.55473 0.834 0.0
O1909 O 0.95445 0.5294 0.81311 0.0
O1910 O 0.92137 0.54559 0.77629 0.0
O1911 O 0.95603 0.58687 0.81413 0.0
H1912 H 0.91108 0.51624 0.85773 0.0
H1913 H 0.87451 0.56582 0.82802 0.0
H1914 H 0.87462 0.49514 0.87197 0.0
H1915 H 0.83863 0.54369 0.8426 0.0
H1916 H 0.02496 0.53046 0.85089 0.0
H1917 H 0.94056 0.49625 0.84175 0.0
H1918 H 1.00009 0.54518 0.8215 0.0
H1919 H 0.96649 0.48247 0.87079 0.0
H1920 H 0.84958 0.45814 0.79217 0.0
H1921 H 0.91468 0.43673 0.78209 0.0
H1922 H 0.02144 0.5919 0.89095 0.0
H1923 H 0.96343 0.54962 0.92084 0.0
H1924 H 0.94016 0.51305 0.74707 0.0
H1925 H 0.8757 0.53108 0.7663 0.0
H1926 H 0.91822 0.47551 0.71623 0.0
H1927 H 0.85493 0.49344 0.73489 0.0
H1928 H 0.94502 0.62056 0.78924 0.0
H1929 H 1.00135 0.59034 0.81447 0.0
H1930 H 0.97296 0.65113 0.77168 0.0
H1931 H 0.02828 0.62167 0.79673 0.0
H1932 H 0.90241 0.65529 0.83478 0.0
H1933 H 0.85523 0.60361 0.77513 0.0
H1934 H 0.01526 0.51542 0.75465 0.0
H1935 H 1.0042 0.58058 0.72604 0.0
Li1936 Li 0.8401 0.43183 0.5499 0.0
Li1937 Li 0.82485 0.45902 0.52529 0.0
Li1938 Li 0.83787 0.42081 0.50466 0.0
Li1939 Li 0.8647 0.45719 0.52792 0.0
C1940 C 0.79188 0.41993 0.53748 0.0
N1941 N 0.75205 0.41614 0.56127 0.0
C1942 C 0.79125 0.4371 0.5595 0.0
C1943 C 0.77226 0.40084 0.52757 0.0
C1944 C 0.77095 0.43487 0.57123 0.0
C1945 C 0.75229 0.39923 0.53988 0.0
C1946 C 0.86141 0.49302 0.56402 0.0
C1947 C 0.87808 0.53521 0.55789 0.0
N1948 N 0.89104 0.54019 0.58025 0.0
C1949 C 0.87472 0.49865 0.58706 0.0
C1950 C 0.86298 0.51151 0.54939 0.0
C1951 C 0.88965 0.52257 0.59489 0.0
C1952 C 0.86096 0.42843 0.59397 0.0
N1953 N 0.84054 0.41895 0.57947 0.0
C1954 C 0.82771 0.39049 0.60645 0.0
C1955 C 0.82388 0.40039 0.58523 0.0
C1956 C 0.84878 0.39995 0.62162 0.0
C1957 C 0.86536 0.4194 0.61541 0.0
H1958 H 0.87421 0.44231 0.58824 0.0
H1959 H 0.80806 0.39265 0.57296 0.0
C1960 C 0.78567 0.47119 0.50345 0.0
N1961 N 0.80239 0.47848 0.52301 0.0
C1962 C 0.76816 0.48444 0.50214 0.0
C1963 C 0.78583 0.5127 0.54079 0.0
C1964 C 0.80272 0.49869 0.54155 0.0
C1965 C 0.76799 0.50535 0.52114 0.0
H1966 H 0.78575 0.45482 0.48912 0.0
H1967 H 0.81594 0.5038 0.55713 0.0
C1968 C 0.86449 0.39705 0.53034 0.0
N1969 N 0.86652 0.34782 0.5331 0.0
C1970 C 0.88587 0.39066 0.53332 0.0
C1971 C 0.84413 0.37834 0.52869 0.0
C1972 C 0.88653 0.36568 0.53468 0.0
C1973 C 0.84553 0.35358 0.53016 0.0
C1974 C 0.85605 0.46783 0.48146 0.0
C1975 C 0.87319 0.45798 0.46945 0.0
C1976 C 0.85114 0.49037 0.47665 0.0
C1977 C 0.88537 0.47106 0.45302 0.0
C1978 C 0.8637 0.50287 0.46008 0.0
N1979 N 0.88042 0.49305 0.44872 0.0
C1980 C 0.81329 0.3857 0.46174 0.0
C1981 C 0.85376 0.38903 0.46761 0.0
C1982 C 0.81186 0.36983 0.43839 0.0
N1983 N 0.83412 0.39528 0.47551 0.0
C1984 C 0.85315 0.37349 0.4444 0.0
C1985 C 0.83212 0.36426 0.4293 0.0
H1986 H 0.79802 0.39124 0.46844 0.0
H1987 H 0.8701 0.39705 0.47889 0.0
C1988 C 0.90977 0.46472 0.54539 0.0
N1989 N 0.89631 0.47457 0.53077 0.0
C1990 C 0.93367 0.47327 0.54813 0.0
C1991 C 0.92953 0.50323 0.5219 0.0
C1992 C 0.90558 0.49403 0.51964 0.0
C1993 C 0.94383 0.49222 0.5357 0.0
H1994 H 0.90189 0.44989 0.55473 0.0
H1995 H 0.89455 0.50224 0.50881 0.0
O1996 O 0.81144 0.42176 0.52543 0.0
O1997 O 0.84701 0.46952 0.55567 0.0
O1998 O 0.86371 0.42156 0.52921 0.0
O1999 O 0.84386 0.45536 0.49757 0.0
H2000 H 0.80624 0.45197 0.56751 0.0
H2001 H 0.77248 0.38743 0.51052 0.0
H2002 H 0.77022 0.44803 0.58827 0.0
H2003 H 0.73698 0.38455 0.53242 0.0
H2004 H 0.87958 0.54959 0.54664 0.0
H2005 H 0.87348 0.48484 0.59889 0.0
H2006 H 0.85283 0.50748 0.53152 0.0
H2007 H 0.90011 0.52714 0.61264 0.0
H2008 H 0.81465 0.37528 0.61067 0.0
H2009 H 0.882 0.4267 0.62638 0.0
H2010 H 0.75467 0.47811 0.48672 0.0
H2011 H 0.78673 0.52909 0.55548 0.0
H2012 H 0.9018 0.40485 0.53453 0.0
H2013 H 0.8274 0.38276 0.52633 0.0
H2014 H 0.90297 0.3605 0.537 0.0
H2015 H 0.82991 0.33895 0.52896 0.0
H2016 H 0.87736 0.44072 0.47314 0.0
H2017 H 0.83777 0.49812 0.48564 0.0
H2018 H 0.89883 0.46377 0.44376 0.0
H2019 H 0.86014 0.52038 0.45624 0.0
H2020 H 0.79539 0.36308 0.42704 0.0
H2021 H 0.86906 0.36945 0.4379 0.0
H2022 H 0.9441 0.46499 0.55969 0.0
H2023 H 0.93678 0.51829 0.51249 0.0
Li2024 Li 0.67532 0.52153 0.29657 0.0
Li2025 Li 0.70766 0.54607 0.27401 0.0
Li2026 Li 0.67352 0.51868 0.24246 0.0
Li2027 Li 0.7059 0.49531 0.26987 0.0
C2028 C 0.67404 0.57212 0.27869 0.0
N2029 N 0.67735 0.62395 0.28996 0.0
C2030 C 0.67879 0.58531 0.30341 0.0
C2031 C 0.67067 0.58522 0.25974 0.0
C2032 C 0.68046 0.61152 0.30872 0.0
C2033 C 0.6725 0.61145 0.2658 0.0
C2034 C 0.72734 0.53658 0.31972 0.0
C2035 C 0.7669 0.54528 0.33773 0.0
N2036 N 0.76179 0.56118 0.35761 0.0
C2037 C 0.72242 0.55282 0.34041 0.0
C2038 C 0.7497 0.53259 0.31843 0.0
C2039 C 0.74009 0.56514 0.35935 0.0
C2040 C 0.66457 0.51494 0.35116 0.0
N2041 N 0.65699 0.52347 0.33078 0.0
C2042 C 0.62716 0.53716 0.3559 0.0
C2043 C 0.6384 0.53459 0.33338 0.0
C2044 C 0.63443 0.52838 0.37728 0.0
C2045 C 0.65384 0.51724 0.37404 0.0
H2046 H 0.67934 0.50636 0.35003 0.0
H2047 H 0.63218 0.54202 0.318 0.0
C2048 C 0.72732 0.5932 0.2548 0.0
N2049 N 0.72836 0.58314 0.27577 0.0
C2050 C 0.73855 0.61871 0.25455 0.0
C2051 C 0.75274 0.62402 0.29732 0.0
C2052 C 0.74111 0.59835 0.29683 0.0
C2053 C 0.7514 0.63512 0.2761 0.0
H2054 H 0.71723 0.58158 0.23804 0.0
H2055 H 0.74201 0.59094 0.31367 0.0
C2056 C 0.65183 0.47036 0.26869 0.0
N2057 N 0.61691 0.43112 0.27576 0.0
C2058 C 0.65684 0.45246 0.282 0.0
C2059 C 0.6291 0.4684 0.25903 0.0
C2060 C 0.63892 0.43273 0.28536 0.0
C2061 C 0.61168 0.44838 0.26278 0.0
C2062 C 0.72724 0.529 0.23186 0.0
C2063 C 0.72465 0.53174 0.20711 0.0
C2064 C 0.74905 0.53715 0.24542 0.0
C2065 C 0.74391 0.54299 0.19645 0.0
C2066 C 0.76788 0.54834 0.23412 0.0
N2067 N 0.76493 0.55103 0.21007 0.0
C2068 C 0.66499 0.5402 0.19463 0.0
C2069 C 0.63455 0.50552 0.19474 0.0
C2070 C 0.65496 0.54381 0.17147 0.0
N2071 N 0.65515 0.52109 0.20637 0.0
C2072 C 0.62385 0.50863 0.17149 0.0
C2073 C 0.63395 0.5279 0.1587 0.0
H2074 H 0.68096 0.55318 0.20325 0.0
H2075 H 0.62605 0.49032 0.20332 0.0
C2076 C 0.73488 0.45925 0.2914 0.0
N2077 N 0.72406 0.46259 0.26974 0.0
C2078 C 0.74665 0.43891 0.29236 0.0
C2079 C 0.73673 0.42432 0.24888 0.0
C2080 C 0.72514 0.44499 0.24865 0.0
C2081 C 0.74818 0.42036 0.27097 0.0
H2082 H 0.73458 0.47248 0.30852 0.0
H2083 H 0.71683 0.44659 0.23112 0.0
O2084 O 0.67331 0.54665 0.27311 0.0
O2085 O 0.71026 0.52431 0.30104 0.0
O2086 O 0.6691 0.48985 0.26532 0.0
O2087 O 0.70853 0.51858 0.24285 0.0
H2088 H 0.68134 0.57542 0.31829 0.0
H2089 H 0.6669 0.5753 0.24055 0.0
H2090 H 0.68429 0.622 0.32776 0.0
H2091 H 0.67013 0.62187 0.2513 0.0
H2092 H 0.78431 0.54245 0.33694 0.0
H2093 H 0.70515 0.55589 0.34184 0.0
H2094 H 0.75371 0.51975 0.30273 0.0
H2095 H 0.73655 0.57785 0.37543 0.0
H2096 H 0.61305 0.54674 0.35652 0.0
H2097 H 0.66078 0.50997 0.38917 0.0
H2098 H 0.73714 0.62543 0.23732 0.0
H2099 H 0.76223 0.63533 0.31457 0.0
H2100 H 0.67437 0.45382 0.28964 0.0
H2101 H 0.62498 0.48222 0.24878 0.0
H2102 H 0.64252 0.41871 0.2956 0.0
H2103 H 0.594 0.44659 0.25541 0.0
H2104 H 0.708 0.52506 0.1962 0.0
H2105 H 0.75132 0.53519 0.26458 0.0
H2106 H 0.74214 0.5453 0.17733 0.0
H2107 H 0.78481 0.55495 0.24448 0.0
H2108 H 0.66377 0.5596 0.16385 0.0
H2109 H 0.60779 0.4955 0.16335 0.0
H2110 H 0.7548 0.4381 0.31025 0.0
H2111 H 0.7361 0.41117 0.23148 0.0
Gd2112 Gd 0.09482 0.06687 0.04012 0.0
Gd2113 Gd 0.04187 0.02852 0.00913 0.0
C2114 C 0.02831 0.94161 0.99484 0.0
C2115 C 0.02393 0.93036 0.94965 0.0
C2116 C 0.0309 0.97464 0.9708 0.0
C2117 C 0.03212 0.96756 0.99354 0.0
C2118 C 0.02603 0.95607 0.94856 0.0
C2119 C 0.02507 0.92313 0.97279 0.0
C2120 C 0.0267 0.93497 0.01817 0.0
C2121 C 0.02758 0.95387 0.03922 0.0
N2122 N 0.03485 0.98591 0.01438 0.0
C2123 C 0.0312 0.97931 0.03688 0.0
H2124 H 0.03188 0.99366 0.05336 0.0
C2125 C 0.02724 1.00691 0.94877 0.0
N2126 N 0.03244 0.99954 0.97054 0.0
C2127 C 0.0225 0.98926 0.9262 0.0
C2128 C 0.02233 0.96379 0.92603 0.0
H2129 H 0.02738 0.02655 0.94865 0.0
H2130 H 0.02248 0.90314 0.97342 0.0
H2131 H 0.10488 0.10046 0.99482 0.0
H2132 H 0.02384 0.91527 0.02 0.0
H2133 H 0.02559 0.9489 0.05727 0.0
H2134 H 0.0205 0.91584 0.93276 0.0
H2135 H 0.10768 0.06951 0.10094 0.0
H2136 H 0.11571 0.17946 0.02687 0.0
H2137 H 0.11246 0.14493 0.99003 0.0
H2138 H 0.11976 0.18082 0.11445 0.0
H2139 H 0.01901 0.99533 0.90896 0.0
H2140 H 0.01851 0.95012 0.90854 0.0
H2141 H 0.11797 0.19267 0.0734 0.0
H2142 H 0.11744 0.10149 0.14008 0.0
N2143 N 0.1026 0.10918 0.03391 0.0
C2144 C 0.11223 0.15986 0.02909 0.0
C2145 C 0.11052 0.14046 1.00829 0.0
C2146 C 0.11061 0.1538 0.05266 0.0
C2147 C 0.10597 0.12795 0.05449 0.0
C2148 C 0.10618 0.11515 0.01114 0.0
N2149 N 0.1044 0.09642 0.0783 0.0
C2150 C 0.10699 0.12134 0.07749 0.0
C2151 C 0.11441 0.10734 0.12262 0.0
C2152 C 0.11601 0.13296 0.1222 0.0
C2153 C 0.10885 0.08926 0.10037 0.0
C2154 C 0.11263 0.14031 0.09942 0.0
H2155 H 0.12042 0.14695 0.13945 0.0
O2156 O 0.12432 0.0551 0.05561 0.0
O2157 O 0.07578 0.02578 0.02724 0.0
O2158 O 0.03839 0.03861 0.05218 0.0
O2159 O 0.06849 0.07306 0.06913 0.0
O2160 O 0.09105 0.03668 0.06344 0.0
O2161 O 0.12782 0.07486 0.02496 0.0
O2162 O 0.01229 0.04108 0.99498 0.0
O2163 O 0.06099 0.06957 0.02206 0.0
O2164 O 0.09856 0.05629 0.99726 0.0
O2165 O 0.06759 0.02332 0.97915 0.0
O2166 O 0.04525 0.0589 0.98614 0.0
O2167 O 1.00877 0.01903 0.02384 0.0
C2168 C 0.07989 0.0174 0.04705 0.0
C2169 C 0.11572 0.166 0.0978 0.0
C2170 C 0.11467 0.17274 0.07443 0.0
C2171 C 0.13813 0.06467 0.04064 0.0
C2172 C 0.16156 0.07803 0.05146 0.0
C2173 C 0.16693 0.10369 0.06338 0.0
C2174 C 0.17889 0.06433 0.04982 0.0
C2175 C 0.20161 0.07585 0.06032 0.0
C2176 C 0.18962 0.11547 0.07353 0.0
C2177 C 0.20693 0.10167 0.07199 0.0
C2178 C 0.04837 0.05757 0.07129 0.0
C2179 C 0.05682 0.0781 1.00236 0.0
C2180 C 0.9984 0.03009 0.00905 0.0
C2181 C 0.97523 0.01672 0.99737 0.0
C2182 C 0.97031 0.99125 0.98484 0.0
C2183 C 0.95766 0.03011 0.99891 0.0
C2184 C 0.93508 0.01831 0.98819 0.0
C2185 C 0.94783 0.97935 0.97405 0.0
C2186 C 0.93024 0.99276 0.97572 0.0
C2187 C 0.08812 0.03832 0.97753 0.0
H2188 H 0.15369 0.11454 0.06478 0.0
H2189 H 0.17466 0.0446 0.04015 0.0
H2190 H 0.19379 0.13531 0.08268 0.0
H2191 H 0.22436 0.11104 0.08015 0.0
H2192 H 0.98374 0.98065 0.98345 0.0
H2193 H 0.96156 0.04977 1.00878 0.0
H2194 H 0.94403 0.9597 0.96434 0.0
H2195 H 0.91299 0.9833 0.96707 0.0
Gd2196 Gd 0.31022 0.81506 0.30307 0.0
Gd2197 Gd 0.33054 0.78203 0.24649 0.0
C2198 C 0.28469 0.71443 0.19125 0.0
C2199 C 0.28998 0.67852 0.209 0.0
C2200 C 0.31049 0.72155 0.22907 0.0
C2201 C 0.29993 0.73109 0.21097 0.0
C2202 C 0.30629 0.69496 0.22758 0.0
C2203 C 0.27903 0.68825 0.19099 0.0
C2204 C 0.27666 0.72433 0.17156 0.0
C2205 C 0.28513 0.74986 0.17093 0.0
N2206 N 0.30641 0.75631 0.21116 0.0
C2207 C 0.30063 0.76544 0.19056 0.0
H2208 H 0.30741 0.78515 0.18976 0.0
C2209 C 0.34037 0.72846 0.26154 0.0
N2210 N 0.32636 0.73796 0.24675 0.0
C2211 C 0.33688 0.70232 0.26061 0.0
C2212 C 0.31939 0.68553 0.24401 0.0
H2213 H 0.35441 0.74044 0.27432 0.0
H2214 H 0.26714 0.67524 0.17619 0.0
H2215 H 0.33805 0.81871 0.35941 0.0
H2216 H 0.2649 0.71216 0.15615 0.0
H2217 H 0.27991 0.7575 0.15523 0.0
H2218 H 0.28643 0.65813 0.20778 0.0
H2219 H 0.28295 0.85095 0.27067 0.0
H2220 H 0.37581 0.89513 0.38729 0.0
H2221 H 0.36557 0.85012 0.39126 0.0
H2222 H 0.34596 0.94125 0.33221 0.0
H2223 H 0.34771 0.69516 0.27283 0.0
H2224 H 0.31671 0.66528 0.24342 0.0
H2225 H 0.36844 0.92899 0.36505 0.0
H2226 H 0.28596 0.89501 0.26855 0.0
N2227 N 0.33472 0.84488 0.33592 0.0
C2228 C 0.36416 0.88125 0.37291 0.0
C2229 C 0.35844 0.8559 0.37521 0.0
C2230 C 0.35365 0.88862 0.35286 0.0
C2231 C 0.33867 0.86975 0.33451 0.0
C2232 C 0.3431 0.83809 0.3569 0.0
N2233 N 0.31111 0.85795 0.29932 0.0
C2234 C 0.32622 0.87656 0.31589 0.0
C2235 C 0.29759 0.89011 0.28182 0.0
C2236 C 0.31396 0.90914 0.29769 0.0
C2237 C 0.29621 0.86466 0.28303 0.0
C2238 C 0.32828 0.90257 0.31525 0.0
H2239 H 0.31501 0.92885 0.29664 0.0
O2240 O 0.27292 0.80768 0.30387 0.0
O2241 O 0.30772 0.77834 0.2768 0.0
O2242 O 0.29712 0.79246 0.23365 0.0
O2243 O 0.28302 0.80978 0.27003 0.0
O2244 O 0.3096 0.77759 0.31452 0.0
O2245 O 0.29534 0.81781 0.33827 0.0
O2246 O 0.36789 0.79487 0.24787 0.0
O2247 O 0.33298 0.8184 0.27284 0.0
O2248 O 0.34418 0.80543 0.31559 0.0
O2249 O 0.35541 0.78235 0.28009 0.0
O2250 O 0.33163 0.81979 0.23531 0.0
O2251 O 0.34803 0.77415 0.2134 0.0
C2252 C 0.3072 0.76396 0.29234 0.0
C2253 C 0.34401 0.92128 0.33265 0.0
C2254 C 0.35681 0.9143 0.35133 0.0
C2255 C 0.27428 0.80889 0.32779 0.0
C2256 C 0.26049 0.78694 0.3362 0.0
C2257 C 0.23669 0.779 0.32873 0.0
C2258 C 0.27097 0.77348 0.35124 0.0
C2259 C 0.25786 0.75249 0.35914 0.0
C2260 C 0.22352 0.75808 0.33643 0.0
C2261 C 0.23395 0.745 0.3517 0.0
C2262 C 0.2812 0.80203 0.24546 0.0
C2263 C 0.33387 0.83313 0.25765 0.0
C2264 C 0.36806 0.78749 0.22405 0.0
C2265 C 0.38049 0.80648 0.21104 0.0
C2266 C 0.40467 0.81377 0.21487 0.0
C2267 C 0.36842 0.81766 0.19506 0.0
C2268 C 0.38038 0.83559 0.18246 0.0
C2269 C 0.41668 0.83192 0.20272 0.0
C2270 C 0.40466 0.84276 0.18656 0.0
C2271 C 0.35838 0.79244 0.3043 0.0
H2272 H 0.22829 0.78901 0.31701 0.0
H2273 H 0.2894 0.77928 0.35687 0.0
H2274 H 0.20512 0.75218 0.33078 0.0
H2275 H 0.22318 0.72946 0.35813 0.0
H2276 H 0.41424 0.80545 0.22727 0.0
H2277 H 0.3497 0.81251 0.1925 0.0
H2278 H 0.43536 0.83748 0.20571 0.0
H2279 H 0.41435 0.85647 0.17701 0.0
Gd2280 Gd 0.53859 0.04098 0.53737 0.0
Gd2281 Gd 0.59417 0.05017 0.51114 0.0
C2282 C 0.63596 0.12778 0.50317 0.0
C2283 C 0.63561 0.1229 0.45825 0.0
C2284 C 0.61642 0.08784 0.47637 0.0
C2285 C 0.62276 0.10264 0.49994 0.0
C2286 C 0.62323 0.09758 0.45525 0.0
C2287 C 0.64191 0.13801 0.48218 0.0
C2288 C 0.64329 0.14164 0.5274 0.0
C2289 C 0.63821 0.13002 0.54759 0.0
N2290 N 0.61692 0.09204 0.51977 0.0
C2291 C 0.62527 0.10494 0.54339 0.0
H2292 H 0.62152 0.09626 0.55921 0.0
C2293 C 0.5998 0.04736 0.45145 0.0
N2294 N 0.60449 0.06348 0.47419 0.0
C2295 C 0.60626 0.05609 0.42995 0.0
C2296 C 0.61785 0.08138 0.43182 0.0
H2297 H 0.59079 0.02781 0.44976 0.0
H2298 H 0.65186 0.15736 0.48428 0.0
H2299 H 0.51069 0.99468 0.48966 0.0
H2300 H 0.65336 0.16105 0.53069 0.0
H2301 H 0.6442 0.14037 0.5664 0.0
H2302 H 0.64078 0.13082 0.44224 0.0
H2303 H 0.54291 0.0632 0.59901 0.0
H2304 H 0.48078 0.9295 0.51863 0.0
H2305 H 0.48863 0.95036 0.48278 0.0
H2306 H 0.49569 0.95935 0.60703 0.0
H2307 H 0.60223 0.04334 0.41196 0.0
H2308 H 0.62281 0.08811 0.41514 0.0
H2309 H 0.48361 0.93299 0.56504 0.0
H2310 H 0.53358 0.04708 0.63708 0.0
N2311 N 0.51609 0.99897 0.52907 0.0
C2312 C 0.49052 0.94904 0.52179 0.0
C2313 C 0.49488 0.96076 0.50153 0.0
C2314 C 0.49824 0.96291 0.54593 0.0
C2315 C 0.51099 0.98823 0.54899 0.0
C2316 C 0.50746 0.98597 0.50555 0.0
N2317 N 0.52926 0.02749 0.57459 0.0
C2318 C 0.51778 1.00297 0.57253 0.0
C2319 C 0.52912 0.03443 0.61904 0.0
C2320 C 0.51813 1.00896 0.61726 0.0
C2321 C 0.53433 0.04352 0.59739 0.0
C2322 C 0.51205 0.99294 0.59379 0.0
H2323 H 0.51405 1.00198 0.63406 0.0
O2324 O 0.51898 0.06886 0.55148 0.0
O2325 O 0.56798 0.0701 0.52832 0.0
O2326 O 0.5976 0.05355 0.55297 0.0
O2327 O 0.56347 0.02939 0.56277 0.0
O2328 O 0.55538 0.07915 0.56197 0.0
O2329 O 0.50566 0.04104 0.51788 0.0
O2330 O 0.61372 0.02225 0.4971 0.0
O2331 O 0.56482 0.02114 0.52013 0.0
O2332 O 0.53568 0.0366 0.49558 0.0
O2333 O 0.56882 0.0617 0.4855 0.0
O2334 O 0.5774 1.01202 0.48649 0.0
O2335 O 0.62677 0.04955 0.53119 0.0
C2336 C 0.56998 0.08777 0.54752 0.0
C2337 C 0.50008 0.96748 0.59092 0.0
C2338 C 0.49321 0.95247 0.56702 0.0
C2339 C 0.50193 0.05998 0.53393 0.0
C2340 C 0.47839 0.05738 0.54172 0.0
C2341 C 0.47026 0.03982 0.55651 0.0
C2342 C 0.46391 0.07268 0.53446 0.0
C2343 C 0.44132 0.07026 0.54182 0.0
C2344 C 0.4481 0.03758 0.56413 0.0
C2345 C 0.43377 0.05269 0.55695 0.0
C2346 C 0.5858 0.03967 0.56721 0.0
C2347 C 0.56288 1.00339 0.50103 0.0
C2348 C 0.63046 0.03061 0.51507 0.0
C2349 C 0.65421 0.03253 0.50789 0.0
C2350 C 0.66295 0.04941 0.49268 0.0
C2351 C 0.66808 0.01688 0.51575 0.0
C2352 C 0.69051 0.01783 0.50813 0.0
C2353 C 0.68507 0.0506 0.4852 0.0
C2354 C 0.69869 0.03495 0.49272 0.0
C2355 C 0.54634 0.05141 0.48142 0.0
H2356 H 0.48109 0.02794 0.56227 0.0
H2357 H 0.47011 0.08621 0.52292 0.0
H2358 H 0.44202 0.02412 0.57574 0.0
H2359 H 0.4168 0.05081 0.56351 0.0
H2360 H 0.65261 0.06155 0.48647 0.0
H2361 H 0.66142 1.0042 0.5279 0.0
H2362 H 0.69165 0.0636 0.47333 0.0
H2363 H 0.7156 0.03606 0.48617 0.0
Gd2364 Gd 0.34616 0.28962 0.78023 0.0
Gd2365 Gd 0.28984 0.30443 0.77299 0.0
C2366 C 0.25824 0.29922 0.69365 0.0
C2367 C 0.25836 0.34336 0.69312 0.0
C2368 C 0.27249 0.33156 0.73077 0.0
C2369 C 0.26823 0.3065 0.71861 0.0
C2370 C 0.26679 0.35016 0.71847 0.0
C2371 C 0.25412 0.3179 0.6807 0.0
C2372 C 0.25164 0.27331 0.68287 0.0
C2373 C 0.25393 0.25542 0.69735 0.0
N2374 N 0.27192 0.28895 0.73189 0.0
C2375 C 0.26379 0.26362 0.72209 0.0
H2376 H 0.26559 0.24951 0.73291 0.0
C2377 C 0.28039 0.3607 0.76932 0.0
N2378 N 0.28012 0.33729 0.75534 0.0
C2379 C 0.27502 0.37985 0.75797 0.0
C2380 C 0.26865 0.3747 0.73232 0.0
H2381 H 0.28554 0.3648 0.78913 0.0
H2382 H 0.24676 0.31273 0.66142 0.0
H2383 H 0.3692 0.3438 0.82415 0.0
H2384 H 0.24398 0.26692 0.66373 0.0
H2385 H 0.24828 0.23531 0.68943 0.0
H2386 H 0.25419 0.35744 0.68323 0.0
H2387 H 0.35409 0.23059 0.76077 0.0
H2388 H 0.38912 0.32163 0.89105 0.0
H2389 H 0.38537 0.35517 0.86769 0.0
H2390 H 0.38038 0.23184 0.86649 0.0
H2391 H 0.27591 0.39856 0.76899 0.0
H2392 H 0.26439 0.38952 0.72358 0.0
H2393 H 0.3865 0.27548 0.89061 0.0
H2394 H 0.36326 0.19571 0.77927 0.0
N2395 N 0.36316 0.30373 0.822 0.0
C2396 C 0.3821 0.3164 0.87165 0.0
C2397 C 0.38011 0.33536 0.8585 0.0
C2398 C 0.37607 0.29096 0.85929 0.0
C2399 C 0.36692 0.28515 0.83401 0.0
C2400 C 0.37093 0.3287 0.8335 0.0
N2401 N 0.35691 0.25603 0.79567 0.0
C2402 C 0.36354 0.26054 0.82045 0.0
C2403 C 0.3632 0.21376 0.79111 0.0
C2404 C 0.36823 0.2174 0.81685 0.0
C2405 C 0.35807 0.23357 0.78069 0.0
C2406 C 0.36909 0.2412 0.8318 0.0
H2407 H 0.37237 0.20208 0.82487 0.0
O2408 O 0.36599 0.30534 0.75223 0.0
O2409 O 0.31838 0.29264 0.75252 0.0
O2410 O 0.28435 0.2617 0.77492 0.0
O2411 O 0.32024 0.25219 0.7821 0.0
O2412 O 0.33179 0.26049 0.74548 0.0
O2413 O 0.38226 0.28754 0.77759 0.0
O2414 O 0.26751 0.31837 0.79971 0.0
O2415 O 0.31696 0.29964 0.80083 0.0
O2416 O 0.35077 0.33323 0.78395 0.0
O2417 O 0.3166 0.33873 0.76507 0.0
O2418 O 0.30351 0.33167 0.80912 0.0
O2419 O 0.25566 0.28159 0.77575 0.0
C2420 C 0.31768 0.27237 0.73669 0.0
C2421 C 0.37641 0.24655 0.85738 0.0
C2422 C 0.37991 0.2714 0.87111 0.0
C2423 C 0.38452 0.2979 0.75819 0.0
C2424 C 0.39533 0.28497 0.73741 0.0
C2425 C 0.38323 0.2616 0.72285 0.0
C2426 C 0.41771 0.29594 0.73176 0.0
C2427 C 0.42757 0.28366 0.71148 0.0
C2428 C 0.39286 0.24945 0.70295 0.0
C2429 C 0.41476 0.26035 0.69725 0.0
C2430 C 0.29719 0.24537 0.77904 0.0
C2431 C 0.31722 0.31917 0.81748 0.0
C2432 C 0.25041 0.2986 0.79291 0.0
C2433 C 0.22704 0.30362 0.78952 0.0
C2434 C 0.22129 0.31491 0.76982 0.0
C2435 C 0.21032 0.29722 0.80598 0.0
C2436 C 0.18797 0.30197 0.80253 0.0
C2437 C 0.1995 0.32012 0.76665 0.0
C2438 C 0.18303 0.31385 0.78286 0.0
C2439 C 0.33887 0.34765 0.77382 0.0
H2440 H 0.36629 0.2526 0.72676 0.0
H2441 H 0.42719 0.31404 0.74279 0.0
H2442 H 0.38329 0.23144 0.69186 0.0
H2443 H 0.42184 0.25035 0.68175 0.0
H2444 H 0.23366 0.31977 0.7569 0.0
H2445 H 0.21457 0.28828 0.82114 0.0
H2446 H 0.19533 0.3291 0.75152 0.0
H2447 H 0.16635 0.31843 0.78006 0.0
Gd2448 Gd 0.07152 0.01676 0.50637 0.0
Gd2449 Gd 0.06024 0.07367 0.53777 0.0
C2450 C 0.06448 0.09586 0.6229 0.0
C2451 C 0.02475 0.0971 0.62967 0.0
C2452 C 0.03558 0.08704 0.58759 0.0
C2453 C 0.05804 0.08912 0.59695 0.0
C2454 C 0.01871 0.09146 0.6038 0.0
C2455 C 0.04762 0.09929 0.63921 0.0
C2456 C 0.08778 0.09977 0.63164 0.0
C2457 C 0.10408 0.09794 0.6146 0.0
N2458 N 0.07388 0.08603 0.58062 0.0
C2459 C 0.09683 0.09144 0.58907 0.0
H2460 H 0.10977 0.09015 0.57636 0.0
C2461 C 1.0089 0.08198 0.55242 0.0
N2462 N 0.03046 0.08182 0.56253 0.0
C2463 C 0.99159 0.08624 0.5677 0.0
C2464 C 0.99642 0.09071 0.59351 0.0
H2465 H 1.00473 0.07839 0.53252 0.0
H2466 H 0.0522 0.10426 0.65919 0.0
H2467 H 0.02075 0.99835 0.4681 0.0
H2468 H 0.09344 0.1049 0.65141 0.0
H2469 H 0.12224 0.10145 0.62109 0.0
H2470 H 0.012 0.10037 0.64241 0.0
H2471 H 0.12714 1.01022 0.51039 0.0
H2472 H 0.0375 0.99047 0.39319 0.0
H2473 H 1.00848 0.98937 0.42349 0.0
H2474 H 0.11908 0.99741 0.40092 0.0
H2475 H 0.97449 0.08595 0.55953 0.0
H2476 H 0.98299 0.09402 0.60532 0.0
H2477 H 0.07881 0.99391 0.385 0.0
H2478 H 0.15698 1.00465 0.48224 0.0
N2479 N 0.05689 1.00602 0.46394 0.0
C2480 C 0.04314 0.99463 0.41295 0.0
C2481 C 0.02671 0.99389 0.42998 0.0
C2482 C 0.06657 0.99939 0.42154 0.0
C2483 C 0.07305 1.00479 0.4475 0.0
C2484 C 0.03388 0.99912 0.45549 0.0
N2485 N 0.10143 1.01011 0.48147 0.0
C2486 C 0.09587 1.00669 0.45648 0.0
C2487 C 0.13993 1.00534 0.47478 0.0
C2488 C 0.13485 1.00305 0.44921 0.0
C2489 C 0.12289 1.00854 0.4907 0.0
C2490 C 0.11257 1.00335 0.43972 0.0
H2491 H 0.1481 1.00051 0.43693 0.0
O2492 O 0.05802 0.98788 0.5274 0.0
O2493 O 0.07282 0.03925 0.54583 0.0
O2494 O 0.09854 0.07947 0.5329 0.0
O2495 O 0.10127 0.04742 0.50042 0.0
O2496 O 0.10047 0.02355 0.53781 0.0
O2497 O 0.0704 0.97694 0.49188 0.0
O2498 O 0.04925 0.10568 0.52663 0.0
O2499 O 0.05994 0.05137 0.49814 0.0
O2500 O 0.03326 1.01283 0.51028 0.0
O2501 O 0.03253 0.04186 0.54607 0.0
O2502 O 0.0322 0.06667 0.50532 0.0
O2503 O 0.08518 0.10921 0.53954 0.0
C2504 C 0.09213 0.03629 0.55583 0.0
C2505 C 0.1064 0.99964 0.41401 0.0
C2506 C 0.08347 0.9977 0.40495 0.0
C2507 C 0.06336 0.96966 0.51187 0.0
C2508 C 0.07603 0.95331 0.52283 0.0
C2509 C 0.0983 0.95147 0.51673 0.0
C2510 C 0.06557 0.93918 0.53964 0.0
C2511 C 0.07708 0.9231 0.55004 0.0
C2512 C 0.10991 0.93578 0.52734 0.0
C2513 C 0.09937 0.9216 0.54388 0.0
C2514 C 0.10986 0.0697 0.51508 0.0
C2515 C 0.04096 0.05436 0.48757 0.0
C2516 C 0.07004 0.12003 0.53054 0.0
C2517 C 0.07276 0.14737 0.53937 0.0
C2518 C 0.07028 0.15793 0.564 0.0
C2519 C 0.07851 0.1632 0.52234 0.0
C2520 C 0.08229 0.18971 0.52968 0.0
C2521 C 0.07358 0.18431 0.57141 0.0
C2522 C 0.07953 0.20016 0.55439 0.0
C2523 C 0.02305 0.02051 0.53005 0.0
H2524 H 0.10672 0.96199 0.50372 0.0
H2525 H 0.04831 0.94033 0.54427 0.0
H2526 H 0.12707 0.9345 0.52261 0.0
H2527 H 0.10862 0.90948 0.55189 0.0
H2528 H 0.06587 0.14585 0.57734 0.0
H2529 H 0.07993 0.15475 0.50318 0.0
H2530 H 0.07164 0.19253 0.59043 0.0
H2531 H 0.08224 0.22054 0.56058 0.0
Gd2532 Gd 0.2906 0.77826 0.78362 0.0
Gd2533 Gd 0.34033 0.81534 0.76676 0.0
C2534 C 0.33836 0.88471 0.73237 0.0
C2535 C 0.34792 0.87114 0.6904 0.0
C2536 C 0.34652 0.84308 0.72008 0.0
C2537 C 0.34026 0.86106 0.73782 0.0
C2538 C 0.35073 0.84806 0.69626 0.0
C2539 C 0.34178 0.88944 0.70844 0.0
C2540 C 0.33373 0.90318 0.75134 0.0
C2541 C 0.33187 0.89815 0.77521 0.0
N2542 N 0.33728 0.85599 0.76083 0.0
C2543 C 0.33398 0.87446 0.7797 0.0
H2544 H 0.33235 0.87081 0.7982 0.0
C2545 C 0.35737 0.80376 0.71008 0.0
N2546 N 0.34917 0.821 0.7264 0.0
C2547 C 0.36156 0.80778 0.68619 0.0
C2548 C 0.35803 0.82991 0.67916 0.0
H2549 H 0.36025 0.78651 0.71502 0.0
H2550 H 0.34019 0.9074 0.70385 0.0
H2551 H 0.30032 0.7229 0.75398 0.0
H2552 H 0.33209 0.92156 0.74789 0.0
H2553 H 0.32868 0.91244 0.79015 0.0
H2554 H 0.35092 0.87521 0.67215 0.0
H2555 H 0.26267 0.8035 0.83042 0.0
H2556 H 0.30074 0.67382 0.80596 0.0
H2557 H 0.30511 0.68213 0.76353 0.0
H2558 H 0.27534 0.71893 0.87826 0.0
H2559 H 0.36751 0.79376 0.67321 0.0
H2560 H 0.36135 0.83298 0.66064 0.0
H2561 H 0.29004 0.68796 0.84894 0.0
H2562 H 0.25185 0.79576 0.87113 0.0
N2563 N 0.2946 0.73833 0.79093 0.0
C2564 C 0.29881 0.69188 0.80191 0.0
C2565 C 0.30122 0.69647 0.77794 0.0
C2566 C 0.29287 0.71021 0.82004 0.0
C2567 C 0.29064 0.73346 0.81382 0.0
C2568 C 0.29865 0.71974 0.77266 0.0
N2569 N 0.2787 0.77202 0.82278 0.0
C2570 C 0.28233 0.75081 0.83026 0.0
C2571 C 0.26064 0.7831 0.85994 0.0
C2572 C 0.2656 0.76227 0.86855 0.0
C2573 C 0.26703 0.78752 0.83677 0.0
C2574 C 0.27613 0.74551 0.85346 0.0
H2575 H 0.26052 0.75884 0.88646 0.0
O2576 O 0.25609 0.78363 0.77473 0.0
O2577 O 0.30219 0.815 0.76897 0.0
O2578 O 0.33509 0.82907 0.80713 0.0
O2579 O 0.31213 0.79526 0.81996 0.0
O2580 O 0.28157 0.81663 0.79718 0.0
O2581 O 0.26321 0.74658 0.76404 0.0
O2582 O 0.37549 0.8104 0.76971 0.0
O2583 O 0.32913 0.77874 0.78186 0.0
O2584 O 0.2978 0.76432 0.74404 0.0
O2585 O 0.31585 0.80088 0.73221 0.0
O2586 O 0.34955 0.77711 0.7534 0.0
O2587 O 0.368 0.84565 0.78806 0.0
C2588 C 0.29156 0.83017 0.78241 0.0
C2589 C 0.27974 0.72317 0.8604 0.0
C2590 C 0.28812 0.70555 0.84371 0.0
C2591 C 0.24738 0.75965 0.76617 0.0
C2592 C 0.22611 0.74887 0.77652 0.0
C2593 C 0.22587 0.73149 0.7924 0.0
C2594 C 0.20591 0.75709 0.77126 0.0
C2595 C 0.18555 0.74816 0.78173 0.0
C2596 C 0.20574 0.72269 0.80301 0.0
C2597 C 0.18568 0.73098 0.79779 0.0
C2598 C 0.3266 0.81769 0.82488 0.0
C2599 C 0.34009 0.76372 0.76853 0.0
C2600 C 0.38396 0.83335 0.78219 0.0
C2601 C 0.40495 0.84696 0.77351 0.0
C2602 C 0.40452 0.86571 0.75936 0.0
C2603 C 0.42575 0.83998 0.77872 0.0
C2604 C 0.44613 0.85129 0.76969 0.0
C2605 C 0.42481 0.8773 0.75056 0.0
C2606 C 0.44555 0.8702 0.7557 0.0
C2607 C 0.30383 0.77732 0.72663 0.0
H2608 H 0.2412 0.72484 0.79675 0.0
H2609 H 0.20604 0.77039 0.75888 0.0
H2610 H 0.20572 0.70947 0.81539 0.0
H2611 H 0.17033 0.72413 0.80642 0.0
H2612 H 0.38862 0.87133 0.75507 0.0
H2613 H 0.42605 0.82576 0.79 0.0
H2614 H 0.42445 0.89177 0.73965 0.0
H2615 H 0.46107 0.87931 0.74863 0.0
Gd2616 Gd 0.55434 0.05304 0.998 0.0
Gd2617 Gd 0.58632 0.05174 0.05819 0.0
C2618 C 0.66477 0.07108 0.07604 0.0
C2619 C 0.67251 0.0298 0.0782 0.0
C2620 C 0.63312 0.03388 0.06913 0.0
C2621 C 0.64102 0.05961 0.07013 0.0
C2622 C 0.64872 0.01873 0.07352 0.0
C2623 C 0.68051 0.05595 0.07954 0.0
C2624 C 0.67189 0.0975 0.079 0.0
C2625 C 0.65543 0.11183 0.07664 0.0
N2626 N 0.62534 0.07368 0.06676 0.0
C2627 C 0.63209 0.09957 0.0707 0.0
H2628 H 0.61956 0.11088 0.06887 0.0
C2629 C 0.60122 0.99907 0.06614 0.0
N2630 N 0.61002 0.02385 0.06487 0.0
C2631 C 0.61602 0.9832 0.0701 0.0
C2632 C 0.6399 0.99302 0.07361 0.0
H2633 H 0.58278 0.99136 0.06342 0.0
H2634 H 0.69884 0.06437 0.08382 0.0
H2635 H 0.52068 0.99434 0.98911 0.0
H2636 H 0.68996 0.10705 0.08359 0.0
H2637 H 0.6607 0.13231 0.07924 0.0
H2638 H 0.68479 0.01843 0.08141 0.0
H2639 H 0.55821 0.11169 0.98737 0.0
H2640 H 0.45012 0.99884 0.97665 0.0
H2641 H 0.47926 0.97329 0.9805 0.0
H2642 H 0.45601 0.08679 0.97487 0.0
H2643 H 0.60901 0.96345 0.0705 0.0
H2644 H 0.65133 0.98072 0.07681 0.0
H2645 H 0.44156 0.04144 0.97526 0.0
H2646 H 0.53223 0.13944 0.97894 0.0
N2647 N 0.51512 0.03154 0.99065 0.0
C2648 C 0.4683 1.00818 0.98038 0.0
C2649 C 0.4847 0.99369 0.98249 0.0
C2650 C 0.47564 0.03444 0.98231 0.0
C2651 C 0.49951 0.04564 0.98714 0.0
C2652 C 0.50817 1.00572 0.98743 0.0
N2653 N 0.53078 0.08053 0.98959 0.0
C2654 C 0.50761 0.071 0.98667 0.0
C2655 C 0.52507 0.12027 0.98121 0.0
C2656 C 0.50114 0.11116 0.97946 0.0
C2657 C 0.53973 0.10449 0.98594 0.0
C2658 C 0.49211 0.08609 0.98174 0.0
H2659 H 0.48981 0.12337 0.97569 0.0
O2660 O 0.56966 0.06236 0.96516 0.0
O2661 O 0.58773 0.06037 0.02064 0.0
O2662 O 0.57823 0.09035 0.05715 0.0
O2663 O 0.54699 0.08405 0.0269 0.0
O2664 O 0.58549 0.0848 0.99681 0.0
O2665 O 0.54886 0.02443 0.96393 0.0
O2666 O 0.57225 0.0405 0.09098 0.0
O2667 O 0.55253 0.04515 0.03607 0.0
O2668 O 0.5626 0.0147 1.00015 0.0
O2669 O 0.59586 0.02361 0.02792 0.0
O2670 O 0.55535 0.01969 0.05874 0.0
O2671 O 0.59097 0.07945 0.09264 0.0
C2672 C 0.5989 0.0792 0.01319 0.0
C2673 C 0.46821 0.07544 0.97841 0.0
C2674 C 0.45999 0.04963 0.97865 0.0
C2675 C 0.55979 0.04032 0.95133 0.0
C2676 C 0.5485 0.04111 0.92714 0.0
C2677 C 0.5245 0.03825 0.92271 0.0
C2678 C 0.56253 0.04597 0.90836 0.0
C2679 C 0.55301 0.04837 0.88519 0.0
C2680 C 0.5148 0.04011 0.89944 0.0
C2681 C 0.52897 0.04508 0.88065 0.0
C2682 C 0.56016 0.09727 0.04736 0.0
C2683 C 0.5415 0.02611 0.04342 0.0
C2684 C 0.5809 0.06283 0.105 0.0
C2685 C 0.59235 0.06295 0.12937 0.0
C2686 C 0.61629 0.0654 0.13367 0.0
C2687 C 0.57854 0.06002 0.1487 0.0
C2688 C 0.58823 0.05933 0.17239 0.0
C2689 C 0.62614 0.06489 0.15733 0.0
C2690 C 0.6122 0.06187 0.17669 0.0
C2691 C 0.58206 1.00932 1.00844 0.0
H2692 H 0.51335 0.03463 0.9371 0.0
H2693 H 0.58103 0.04785 0.91181 0.0
H2694 H 0.4963 0.03782 0.896 0.0
H2695 H 0.52126 0.04657 0.86276 0.0
H2696 H 0.62727 0.06767 0.11889 0.0
H2697 H 0.56006 0.05838 0.14528 0.0
H2698 H 0.6446 0.06673 0.16062 0.0
H2699 H 0.62003 0.06122 0.19482 0.0
Gd2700 Gd 0.29262 0.26538 0.26388 0.0
Gd2701 Gd 0.33608 0.32503 0.29167 0.0
C2702 C 0.39538 0.36488 0.25317 0.0
C2703 C 0.42621 0.34422 0.26234 0.0
C2704 C 0.38904 0.33295 0.27863 0.0
C2705 C 0.38091 0.34994 0.26693 0.0
C2706 C 0.41215 0.33062 0.27725 0.0
C2707 C 0.41778 0.36124 0.25018 0.0
C2708 C 0.38732 0.38384 0.24384 0.0
C2709 C 0.36588 0.38847 0.24952 0.0
N2710 N 0.35949 0.35345 0.27082 0.0
C2711 C 0.35236 0.37341 0.26356 0.0
H2712 H 0.33573 0.37704 0.26789 0.0
C2713 C 0.38385 0.30672 0.30816 0.0
N2714 N 0.37496 0.32024 0.29298 0.0
C2715 C 0.40672 0.30414 0.30775 0.0
C2716 C 0.42078 0.31561 0.29175 0.0
H2717 H 0.37345 0.29719 0.32019 0.0
H2718 H 0.42904 0.37226 0.2394 0.0
H2719 H 0.27763 0.22137 0.29912 0.0
H2720 H 0.39787 0.39566 0.23314 0.0
H2721 H 0.35977 0.40365 0.24313 0.0
H2722 H 0.44386 0.34235 0.26076 0.0
H2723 H 0.2699 0.2971 0.22336 0.0
H2724 H 0.20971 0.22225 0.31989 0.0
H2725 H 0.24513 0.20567 0.32205 0.0
H2726 H 0.18346 0.27515 0.26992 0.0
H2727 H 0.41335 0.29295 0.31954 0.0
H2728 H 0.43842 0.31337 0.29128 0.0
H2729 H 0.18695 0.24829 0.30041 0.0
H2730 H 0.23408 0.3094 0.21415 0.0
N2731 N 0.26161 0.24812 0.28536 0.0
C2732 C 0.22406 0.22944 0.30998 0.0
C2733 C 0.24396 0.22 0.31118 0.0
C2734 C 0.22241 0.24698 0.29484 0.0
C2735 C 0.24164 0.25588 0.28237 0.0
C2736 C 0.26237 0.22907 0.29819 0.0
N2737 N 0.25832 0.27855 0.25291 0.0
C2738 C 0.2398 0.2712 0.26537 0.0
C2739 C 0.23546 0.29877 0.22872 0.0
C2740 C 0.21668 0.29211 0.24196 0.0
C2741 C 0.25611 0.29174 0.23432 0.0
C2742 C 0.2186 0.278 0.26039 0.0
H2743 H 0.20072 0.29766 0.23761 0.0
O2744 O 0.28426 0.24611 0.22501 0.0
O2745 O 0.32905 0.28646 0.26825 0.0
O2746 O 0.32771 0.32601 0.25085 0.0
O2747 O 0.30409 0.28623 0.23251 0.0
O2748 O 0.32376 0.2486 0.26982 0.0
O2749 O 0.28604 0.22442 0.25398 0.0
O2750 O 0.335 0.33395 0.33187 0.0
O2751 O 0.29953 0.30411 0.2869 0.0
O2752 O 0.30027 0.26593 0.30518 0.0
O2753 O 0.33461 0.29681 0.31841 0.0
O2754 O 0.3051 0.34174 0.28489 0.0
O2755 O 0.34446 0.3642 0.31204 0.0
C2756 C 0.33927 0.26898 0.27001 0.0
C2757 C 0.1998 0.2701 0.27353 0.0
C2758 C 0.20178 0.2548 0.29089 0.0
C2759 C 0.28462 0.22391 0.23014 0.0
C2760 C 0.29859 0.20861 0.21533 0.0
C2761 C 0.29817 0.20732 0.18952 0.0
C2762 C 0.31186 0.19453 0.22663 0.0
C2763 C 0.32429 0.17916 0.21236 0.0
C2764 C 0.31076 0.19225 0.1753 0.0
C2765 C 0.3237 0.17814 0.1866 0.0
C2766 C 0.31605 0.3093 0.23126 0.0
C2767 C 0.28939 0.32163 0.28488 0.0
C2768 C 0.33762 0.35816 0.33257 0.0
C2769 C 0.31937 0.37004 0.34344 0.0
C2770 C 0.30915 0.3621 0.36388 0.0
C2771 C 0.31079 0.3879 0.33236 0.0
C2772 C 0.2915 0.39672 0.3407 0.0
C2773 C 0.29024 0.37108 0.37251 0.0
C2774 C 0.28131 0.38806 0.36089 0.0
C2775 C 0.31811 0.27751 0.32202 0.0
H2776 H 0.28802 0.21787 0.18034 0.0
H2777 H 0.31225 0.19503 0.24648 0.0
H2778 H 0.31036 0.19139 0.15542 0.0
H2779 H 0.33332 0.16652 0.17529 0.0
H2780 H 0.31541 0.34842 0.37279 0.0
H2781 H 0.31898 0.39479 0.31708 0.0
H2782 H 0.28222 0.36449 0.388 0.0
H2783 H 0.26627 0.39424 0.36756 0.0
Gd2784 Gd 0.57358 0.51639 1.00563 0.0
Gd2785 Gd 0.56221 0.57351 0.0365 0.0
C2786 C 0.57103 0.59679 0.12152 0.0
C2787 C 0.53189 0.59838 0.13075 0.0
C2788 C 0.54038 0.58757 0.08785 0.0
C2789 C 0.56325 0.58966 0.09588 0.0
C2790 C 0.52449 0.5924 0.10515 0.0
C2791 C 0.55513 0.60055 0.13893 0.0
C2792 C 0.59467 0.60081 0.12884 0.0
C2793 C 0.60997 0.59874 0.11071 0.0
N2794 N 0.57816 0.58628 0.07852 0.0
C2795 C 0.60141 0.59185 0.08552 0.0
H2796 H 0.61355 0.59034 0.07184 0.0
C2797 C 0.51204 0.58241 0.0541 0.0
N2798 N 0.53391 0.58202 0.063 0.0
C2799 C 0.49565 0.58707 0.07051 0.0
C2800 C 0.50182 0.59177 0.09616 0.0
H2801 H 0.50698 0.57864 0.03433 0.0
H2802 H 0.56074 0.60582 0.15871 0.0
H2803 H 0.52118 0.49688 0.96972 0.0
H2804 H 0.60134 0.60623 0.14834 0.0
H2805 H 0.62836 0.60236 0.11611 0.0
H2806 H 0.51991 0.60195 0.14434 0.0
H2807 H 0.62666 0.50419 1.00455 0.0
H2808 H 0.53402 0.49332 0.89386 0.0
H2809 H 0.50674 0.48936 0.92582 0.0
H2810 H 0.61569 0.50159 0.89647 0.0
H2811 H 0.47826 0.58692 0.06336 0.0
H2812 H 0.48911 0.59541 0.10884 0.0
H2813 H 0.57487 0.49878 0.88318 0.0
H2814 H 0.6555 0.49985 0.97445 0.0
N2815 N 0.55688 0.50658 0.96368 0.0
C2816 C 0.54063 0.49682 0.91331 0.0
C2817 C 0.52518 0.49445 0.93128 0.0
C2818 C 0.56438 0.50216 0.92054 0.0
C2819 C 0.57208 0.50658 0.94615 0.0
C2820 C 0.53362 0.49889 0.95642 0.0
N2821 N 0.60139 0.50925 0.97801 0.0
C2822 C 0.59508 0.50802 0.95358 0.0
C2823 C 0.63868 0.50243 0.96837 0.0
C2824 C 0.63314 0.50328 0.94352 0.0
C2825 C 0.62232 0.50487 0.98534 0.0
C2826 C 0.61091 0.50531 0.93568 0.0
H2827 H 0.64577 0.50115 0.93034 0.0
O2828 O 0.55946 0.48742 0.0263 0.0
O2829 O 0.57519 0.53938 0.04476 0.0
O2830 O 0.59959 0.58174 0.02843 0.0
O2831 O 0.60651 0.54536 1.0043 0.0
O2832 O 0.60272 0.52326 0.03686 0.0
O2833 O 0.57392 0.47676 0.99205 0.0
O2834 O 0.54949 0.60322 0.02272 0.0
O2835 O 0.56201 0.55109 0.99684 0.0
O2836 O 0.53556 0.51228 0.01108 0.0
O2837 O 0.53496 0.54221 0.04621 0.0
O2838 O 0.53328 0.56474 1.00502 0.0
O2839 O 0.58466 0.61108 0.04047 0.0
C2840 C 0.5945 0.53639 0.05477 0.0
C2841 C 0.60369 0.50325 0.91042 0.0
C2842 C 0.58044 0.50167 0.90286 0.0
C2843 C 0.56589 0.46941 0.01161 0.0
C2844 C 0.57822 0.45352 0.02376 0.0
C2845 C 0.60062 0.45133 0.0185 0.0
C2846 C 0.56719 0.43997 0.0407 0.0
C2847 C 0.57827 0.42413 0.05199 0.0
C2848 C 0.61184 0.436 0.03012 0.0
C2849 C 0.60073 0.42237 0.04674 0.0
C2850 C 0.61301 0.56954 0.01519 0.0
C2851 C 0.54245 0.55352 0.98686 0.0
C2852 C 0.56922 0.61955 0.02872 0.0
C2853 C 0.56911 0.64652 0.03516 0.0
C2854 C 0.56604 0.65849 0.05912 0.0
C2855 C 0.57223 0.66048 0.01623 0.0
C2856 C 0.57215 0.68641 0.02082 0.0
C2857 C 0.56625 0.68447 0.06399 0.0
C2858 C 0.56936 0.69842 0.04499 0.0
C2859 C 0.5256 0.52037 0.0309 0.0
H2860 H 0.60942 0.4612 1.00528 0.0
H2861 H 0.54977 0.44122 0.0446 0.0
H2862 H 0.6291 0.43444 0.02601 0.0
H2863 H 0.60956 0.41031 0.05538 0.0
H2864 H 0.56357 0.64785 0.07389 0.0
H2865 H 0.57501 0.65111 0.99784 0.0
H2866 H 0.56396 0.69381 0.08251 0.0
H2867 H 0.56935 0.71847 0.0491 0.0
Gd2868 Gd 0.79184 0.27743 0.28115 0.0
Gd2869 Gd 0.84322 0.31543 0.26949 0.0
C2870 C 0.84541 0.38838 0.23977 0.0
C2871 C 0.86097 0.37885 0.20015 0.0
C2872 C 0.85529 0.34775 0.22687 0.0
C2873 C 0.84644 0.36401 0.24391 0.0
C2874 C 0.86325 0.35526 0.2051 0.0
C2875 C 0.85205 0.39539 0.21747 0.0
C2876 C 0.83864 0.40535 0.25859 0.0
C2877 C 0.83415 0.39827 0.28125 0.0
N2878 N 0.84062 0.35682 0.26546 0.0
C2879 C 0.83561 0.37398 0.28451 0.0
H2880 H 0.83216 0.36888 0.30218 0.0
C2881 C 0.86938 0.31036 0.21793 0.0
N2882 N 0.85758 0.32529 0.23245 0.0
C2883 C 0.87752 0.31696 0.19612 0.0
C2884 C 0.87408 0.33929 0.18944 0.0
H2885 H 0.87232 0.29308 0.22276 0.0
H2886 H 0.8511 0.41389 0.21383 0.0
H2887 H 0.80265 0.22317 0.25005 0.0
H2888 H 0.83757 0.4242 0.25612 0.0
H2889 H 0.82949 0.41147 0.2962 0.0
H2890 H 0.86675 0.38483 0.1834 0.0
H2891 H 0.76248 0.30127 0.32727 0.0
H2892 H 0.79787 0.17005 0.29844 0.0
H2893 H 0.8058 0.18123 0.2577 0.0
H2894 H 0.76818 0.21139 0.36978 0.0
H2895 H 0.8864 0.30478 0.18447 0.0
H2896 H 0.88048 0.34441 0.17257 0.0
H2897 H 0.78406 0.18161 0.34038 0.0
H2898 H 0.74859 0.29095 0.36606 0.0
N2899 N 0.79439 0.23645 0.28655 0.0
C2900 C 0.7967 0.18865 0.29527 0.0
C2901 C 0.8011 0.19485 0.27224 0.0
C2902 C 0.78976 0.20608 0.3135 0.0
C2903 C 0.78857 0.23008 0.30843 0.0
C2904 C 0.79942 0.21876 0.26803 0.0
N2905 N 0.77734 0.26898 0.31862 0.0
C2906 C 0.77958 0.24677 0.32492 0.0
C2907 C 0.75747 0.27846 0.35479 0.0
C2908 C 0.76084 0.25643 0.36219 0.0
C2909 C 0.76558 0.28432 0.33271 0.0
C2910 C 0.77164 0.24003 0.34701 0.0
H2911 H 0.75446 0.2519 0.37926 0.0
O2912 O 0.75756 0.28323 0.27227 0.0
O2913 O 0.80465 0.31496 0.2681 0.0
O2914 O 0.83496 0.32679 0.30924 0.0
O2915 O 0.81175 0.2913 0.31871 0.0
O2916 O 0.78289 0.31562 0.29538 0.0
O2917 O 0.76538 0.24699 0.25821 0.0
O2918 O 0.87839 0.31084 0.27519 0.0
O2919 O 0.83037 0.27764 0.28184 0.0
O2920 O 0.80054 0.26534 0.24188 0.0
O2921 O 0.82322 0.30087 0.23186 0.0
O2922 O 0.8528 0.27765 0.25521 0.0
O2923 O 0.86877 0.34399 0.29549 0.0
C2924 C 0.79328 0.32959 0.28119 0.0
C2925 C 0.77397 0.21678 0.35279 0.0
C2926 C 0.78304 0.19983 0.33607 0.0
C2927 C 0.74939 0.25981 0.26102 0.0
C2928 C 0.72728 0.24735 0.26854 0.0
C2929 C 0.72534 0.22688 0.28088 0.0
C2930 C 0.70771 0.25661 0.26344 0.0
C2931 C 0.68603 0.24529 0.26988 0.0
C2932 C 0.70391 0.21567 0.28764 0.0
C2933 C 0.68429 0.22462 0.282 0.0
C2934 C 0.82598 0.31372 0.32562 0.0
C2935 C 0.84188 0.26321 0.26867 0.0
C2936 C 0.88557 0.33293 0.28987 0.0
C2937 C 0.907 0.34869 0.28416 0.0
C2938 C 0.90709 0.37058 0.27434 0.0
C2939 C 0.92781 0.34138 0.28849 0.0
C2940 C 0.9487 0.35595 0.28345 0.0
C2941 C 0.92787 0.38505 0.26914 0.0
C2942 C 0.94864 0.37792 0.27384 0.0
C2943 C 0.80943 0.27808 0.22525 0.0
H2944 H 0.74026 0.21949 0.28517 0.0
H2945 H 0.70941 0.27269 0.25425 0.0
H2946 H 0.70242 0.19974 0.29694 0.0
H2947 H 0.66773 0.21495 0.28655 0.0
H2948 H 0.89123 0.37658 0.27083 0.0
H2949 H 0.92781 0.32463 0.29632 0.0
H2950 H 0.92789 0.40196 0.26165 0.0
H2951 H 0.96466 0.38952 0.27004 0.0
Gd2952 Gd 0.05706 0.56078 0.50416 0.0
Gd2953 Gd 0.08734 0.54962 0.56137 0.0
C2954 C 0.16592 0.57159 0.57999 0.0
C2955 C 0.17522 0.53044 0.57876 0.0
C2956 C 0.13537 0.53338 0.57058 0.0
C2957 C 0.14237 0.55941 0.57365 0.0
C2958 C 0.15161 0.51859 0.57368 0.0
C2959 C 0.18236 0.55692 0.58194 0.0
C2960 C 0.17212 0.59817 0.58497 0.0
C2961 C 0.15492 0.61187 0.5844 0.0
N2962 N 0.12595 0.57294 0.57193 0.0
C2963 C 0.13179 0.59889 0.57814 0.0
H2964 H 0.11879 0.6098 0.5776 0.0
C2965 C 0.10436 0.4976 0.56666 0.0
N2966 N 0.11243 0.52269 0.56618 0.0
C2967 C 0.11977 0.48204 0.56935 0.0
C2968 C 0.14354 0.49251 0.57252 0.0
H2969 H 0.08598 0.48946 0.56428 0.0
H2970 H 0.20056 0.56591 0.58658 0.0
H2971 H 0.02564 0.50126 0.48368 0.0
H2972 H 0.19002 0.60827 0.58982 0.0
H2973 H 0.15946 0.63244 0.58863 0.0
H2974 H 0.18801 0.51939 0.58099 0.0
H2975 H 0.05929 0.62248 0.50769 0.0
H2976 H 0.9548 0.50416 0.4703 0.0
H2977 H 0.98497 0.47937 0.47022 0.0
H2978 H 0.95746 0.59349 0.48671 0.0
H2979 H 0.1133 0.46202 0.56904 0.0
H2980 H 0.15546 0.48048 0.57479 0.0
H2981 H 0.94461 0.54683 0.47709 0.0
H2982 H 0.03228 0.65068 0.50483 0.0
N2983 N 0.0186 0.5381 0.49211 0.0
C2984 C 0.97264 0.51389 0.47633 0.0
C2985 C 0.98962 0.49984 0.47619 0.0
C2986 C 0.97897 0.5404 0.48361 0.0
C2987 C 1.00245 0.55212 0.49126 0.0
C2988 C 0.01268 0.51234 0.48391 0.0
N2989 N 0.03259 0.58885 0.5021 0.0
C2990 C 1.00966 0.57834 0.49652 0.0
C2991 C 0.02568 0.63038 0.50257 0.0
C2992 C 1.0019 0.61998 0.49805 0.0
C2993 C 0.04091 0.6144 0.50415 0.0
C2994 C 0.99364 0.59362 0.4945 0.0
H2995 H 0.99015 0.63238 0.49668 0.0
O2996 O 0.07156 0.57933 0.47525 0.0
O2997 O 0.09004 0.56384 0.52632 0.0
O2998 O 0.07856 0.58851 0.56582 0.0
O2999 O 0.04648 0.58421 0.53757 0.0
O3000 O 0.08828 0.59388 0.50934 0.0
O3001 O 0.05426 0.53915 0.46655 0.0
O3002 O 0.07274 0.53287 0.5914 0.0
O3003 O 0.0546 0.54525 0.53839 0.0
O3004 O 0.0665 0.52214 0.4978 0.0
O3005 O 0.09568 0.52281 0.52905 0.0
O3006 O 0.05653 0.51609 0.55663 0.0
O3007 O 0.08871 0.57323 0.59767 0.0
C3008 C 0.10156 0.58453 0.52264 0.0
C3009 C 0.97007 0.58207 0.48815 0.0
C3010 C 0.96275 0.5555 0.48267 0.0
C3011 C 0.0643 0.55889 0.45798 0.0
C3012 C 0.0538 0.56236 0.4345 0.0
C3013 C 0.03091 0.56494 0.43135 0.0
C3014 C 0.06746 0.56341 0.41484 0.0
C3015 C 0.05867 0.56719 0.39193 0.0
C3016 C 0.02193 0.56857 0.40847 0.0
C3017 C 0.03573 0.56971 0.38876 0.0
C3018 C 0.05951 0.59537 0.5587 0.0
C3019 C 0.04345 0.5244 0.5421 0.0
C3020 C 0.07924 0.55424 0.60753 0.0
C3021 C 0.09001 0.55302 0.63174 0.0
C3022 C 0.114 0.55645 0.63686 0.0
C3023 C 0.07565 0.54923 0.65044 0.0
C3024 C 0.08495 0.54933 0.67445 0.0
C3025 C 0.1234 0.55647 0.66088 0.0
C3026 C 0.10894 0.55319 0.67978 0.0
C3027 C 0.08372 0.51337 0.50695 0.0
H3028 H 0.0201 0.56416 0.44641 0.0
H3029 H 0.08507 0.5611 0.41737 0.0
H3030 H 1.00428 0.57061 0.40604 0.0
H3031 H 0.02863 0.57279 0.37124 0.0
H3032 H 0.12538 0.55942 0.62252 0.0
H3033 H 0.05712 0.54688 0.64648 0.0
H3034 H 0.14191 0.55933 0.66491 0.0
H3035 H 0.11638 0.55361 0.6984 0.0
Gd3036 Gd 0.84622 0.78854 0.27807 0.0
Gd3037 Gd 0.78948 0.80306 0.26921 0.0
C3038 C 0.75916 0.80529 0.19124 0.0
C3039 C 0.75784 0.84973 0.19532 0.0
C3040 C 0.77188 0.83431 0.23078 0.0
C3041 C 0.76868 0.81031 0.21631 0.0
C3042 C 0.76573 0.85412 0.22073 0.0
C3043 C 0.75458 0.82532 0.18057 0.0
C3044 C 0.75332 0.78009 0.17811 0.0
C3045 C 0.75578 0.76062 0.19045 0.0
N3046 N 0.77268 0.79137 0.22747 0.0
C3047 C 0.76513 0.76662 0.21539 0.0
H3048 H 0.76714 0.75139 0.22456 0.0
C3049 C 0.77837 0.85966 0.27134 0.0
N3050 N 0.77896 0.83763 0.25532 0.0
C3051 C 0.7725 0.87993 0.26227 0.0
C3052 C 0.76659 0.87733 0.23677 0.0
H3053 H 0.78304 0.86186 0.29106 0.0
H3054 H 0.74757 0.8219 0.16126 0.0
H3055 H 0.8684 0.84261 0.32032 0.0
H3056 H 0.74601 0.7754 0.15881 0.0
H3057 H 0.75063 0.74098 0.18073 0.0
H3058 H 0.75332 0.86479 0.18716 0.0
H3059 H 0.85121 0.7286 0.26012 0.0
H3060 H 0.89115 0.82314 0.38795 0.0
H3061 H 0.88555 0.85561 0.36382 0.0
H3062 H 0.88308 0.73305 0.36527 0.0
H3063 H 0.77262 0.89755 0.27495 0.0
H3064 H 0.76195 0.89301 0.2298 0.0
H3065 H 0.88967 0.77718 0.38847 0.0
H3066 H 0.86127 0.69425 0.27895 0.0
N3067 N 0.8637 0.80293 0.3195 0.0
C3068 C 0.88365 0.81728 0.36873 0.0
C3069 C 0.88061 0.83565 0.35514 0.0
C3070 C 0.87788 0.79162 0.357 0.0
C3071 C 0.86807 0.78502 0.33197 0.0
C3072 C 0.87089 0.82813 0.33033 0.0
N3073 N 0.85667 0.75528 0.2945 0.0
C3074 C 0.86434 0.76031 0.31903 0.0
C3075 C 0.86208 0.7127 0.29049 0.0
C3076 C 0.86862 0.71714 0.31606 0.0
C3077 C 0.85648 0.7322 0.27988 0.0
C3078 C 0.87031 0.74134 0.33059 0.0
H3079 H 0.87306 0.70205 0.32423 0.0
O3080 O 0.86971 0.77622 0.25187 0.0
O3081 O 0.81926 0.79295 0.24993 0.0
O3082 O 0.78554 0.75965 0.26711 0.0
O3083 O 0.81987 0.75358 0.2851 0.0
O3084 O 0.83361 0.76164 0.24147 0.0
O3085 O 0.87935 0.81342 0.27535 0.0
O3086 O 0.76659 0.81251 0.29732 0.0
O3087 O 0.81636 0.79829 0.29724 0.0
O3088 O 0.85011 0.83172 0.27853 0.0
O3089 O 0.81527 0.83843 0.26246 0.0
O3090 O 0.80215 0.8296 0.30605 0.0
O3091 O 0.75539 0.77863 0.26899 0.0
C3092 C 0.81935 0.77356 0.23322 0.0
C3093 C 0.87869 0.74742 0.35595 0.0
C3094 C 0.88245 0.77255 0.36915 0.0
C3095 C 0.88582 0.79694 0.25866 0.0
C3096 C 0.90981 0.79386 0.26286 0.0
C3097 C 0.91643 0.7848 0.2838 0.0
C3098 C 0.92633 0.80022 0.24617 0.0
C3099 C 0.94938 0.79782 0.25073 0.0
C3100 C 0.93897 0.78196 0.28813 0.0
C3101 C 0.95529 0.78835 0.27178 0.0
C3102 C 0.79757 0.74489 0.27648 0.0
C3103 C 0.8163 0.81747 0.3142 0.0
C3104 C 0.74964 0.79324 0.28792 0.0
C3105 C 0.72635 0.79864 0.28536 0.0
C3106 C 0.71978 0.80891 0.26521 0.0
C3107 C 0.71066 0.79402 0.30328 0.0
C3108 C 0.6888 0.80019 0.30119 0.0
C3109 C 0.69817 0.81481 0.26299 0.0
C3110 C 0.68284 0.8106 0.28084 0.0
C3111 C 0.83782 0.84674 0.27001 0.0
H3112 H 0.90418 0.77995 0.29685 0.0
H3113 H 0.9214 0.80737 0.23 0.0
H3114 H 0.94385 0.77479 0.30428 0.0
H3115 H 0.9726 0.7857 0.27554 0.0
H3116 H 0.73136 0.81238 0.25117 0.0
H3117 H 0.71556 0.78611 0.31895 0.0
H3118 H 0.6933 0.82277 0.24737 0.0
H3119 H 0.66617 0.81536 0.27868 0.0
Gd3120 Gd 0.80838 0.3172 0.80629 0.0
Gd3121 Gd 0.83112 0.2877 0.74962 0.0
C3122 C 0.79125 0.22355 0.68684 0.0
C3123 C 0.79462 0.18573 0.70227 0.0
C3124 C 0.81353 0.22774 0.72644 0.0
C3125 C 0.80461 0.23879 0.70859 0.0
C3126 C 0.80932 0.20095 0.72292 0.0
C3127 C 0.78556 0.19702 0.68426 0.0
C3128 C 0.785 0.23536 0.66777 0.0
C3129 C 0.79313 0.26151 0.6701 0.0
N3130 N 0.81085 0.26437 0.71134 0.0
C3131 C 0.80651 0.27571 0.6919 0.0
H3132 H 0.81281 0.29599 0.69366 0.0
C3133 C 0.84046 0.23244 0.76123 0.0
N3134 N 0.82785 0.24308 0.7461 0.0
C3135 C 0.83692 0.20604 0.75839 0.0
C3136 C 0.82082 0.19022 0.73959 0.0
H3137 H 0.85315 0.24369 0.77595 0.0
H3138 H 0.77502 0.18503 0.66788 0.0
H3139 H 0.82906 0.31171 0.86271 0.0
H3140 H 0.77477 0.22433 0.65079 0.0
H3141 H 0.78912 0.27076 0.65513 0.0
H3142 H 0.79092 0.16518 0.69955 0.0
H3143 H 0.78507 0.35966 0.77896 0.0
H3144 H 0.86887 0.38438 0.9013 0.0
H3145 H 0.85479 0.33825 0.89929 0.0
H3146 H 0.84944 0.4408 0.85095 0.0
H3147 H 0.84653 0.19793 0.77091 0.0
H3148 H 0.81806 0.16977 0.73755 0.0
H3149 H 0.86716 0.42254 0.8828 0.0
H3150 H 0.79119 0.40519 0.78234 0.0
N3151 N 0.83016 0.34203 0.84336 0.0
C3152 C 0.85788 0.37271 0.88508 0.0
C3153 C 0.84994 0.34673 0.88405 0.0
C3154 C 0.85041 0.38356 0.86581 0.0
C3155 C 0.83614 0.3675 0.84504 0.0
C3156 C 0.83552 0.33174 0.86327 0.0
N3157 N 0.81137 0.36159 0.80829 0.0
C3158 C 0.82624 0.37766 0.82708 0.0
C3159 C 0.80141 0.39771 0.79488 0.0
C3160 C 0.81786 0.41422 0.81288 0.0
C3161 C 0.79818 0.37144 0.79298 0.0
C3162 C 0.83026 0.40434 0.82954 0.0
H3163 H 0.82024 0.43455 0.81434 0.0
O3164 O 0.77099 0.30438 0.802 0.0
O3165 O 0.80782 0.28205 0.77894 0.0
O3166 O 0.79528 0.29354 0.73708 0.0
O3167 O 0.7845 0.31778 0.77216 0.0
O3168 O 0.8085 0.27911 0.81609 0.0
O3169 O 0.78905 0.31837 0.83868 0.0
O3170 O 0.86853 0.30105 0.75558 0.0
O3171 O 0.83136 0.3228 0.77674 0.0
O3172 O 0.84323 0.30918 0.81889 0.0
O3173 O 0.85458 0.28581 0.78357 0.0
O3174 O 0.83048 0.32573 0.73972 0.0
O3175 O 0.85168 0.28776 0.71825 0.0
C3176 C 0.8072 0.26675 0.79349 0.0
C3177 C 0.84579 0.42034 0.84913 0.0
C3178 C 0.8559 0.40994 0.86724 0.0
C3179 C 0.76974 0.30578 0.8257 0.0
C3180 C 0.75799 0.28209 0.83294 0.0
C3181 C 0.73686 0.2679 0.8199 0.0
C3182 C 0.76854 0.27248 0.85153 0.0
C3183 C 0.7583 0.24891 0.85697 0.0
C3184 C 0.72657 0.24442 0.82525 0.0
C3185 C 0.73718 0.23492 0.84368 0.0
C3186 C 0.78098 0.3067 0.74814 0.0
C3187 C 0.83194 0.3382 0.7623 0.0
C3188 C 0.87056 0.30031 0.73207 0.0
C3189 C 0.88254 0.32434 0.72564 0.0
C3190 C 0.90357 0.33819 0.73913 0.0
C3191 C 0.87239 0.33444 0.70717 0.0
C3192 C 0.88322 0.35787 0.70183 0.0
C3193 C 0.91422 0.36176 0.73425 0.0
C3194 C 0.90416 0.37159 0.71571 0.0
C3195 C 0.85746 0.29605 0.80777 0.0
H3196 H 0.72849 0.27481 0.80534 0.0
H3197 H 0.785 0.28305 0.86154 0.0
H3198 H 0.71029 0.23356 0.81509 0.0
H3199 H 0.72868 0.21692 0.84785 0.0
H3200 H 0.91156 0.33094 0.75368 0.0
H3201 H 0.85581 0.32432 0.69719 0.0
H3202 H 0.93036 0.37242 0.74482 0.0
H3203 H 0.9129 0.38972 0.71197 0.0
Gd3204 Gd 0.78939 0.77018 0.76071 0.0
Gd3205 Gd 0.83923 0.82336 0.78998 0.0
C3206 C 0.91505 0.82406 0.80819 0.0
C3207 C 0.91822 0.82796 0.85308 0.0
C3208 C 0.88121 0.82604 0.83036 0.0
C3209 C 0.89112 0.82307 0.80804 0.0
C3210 C 0.89484 0.82891 0.85313 0.0
C3211 C 0.92834 0.82569 0.83068 0.0
C3212 C 0.9252 0.82478 0.78595 0.0
C3213 C 0.91171 0.82535 0.76449 0.0
N3214 N 0.8779 0.82146 0.78644 0.0
C3215 C 0.88799 0.8236 0.76508 0.0
H3216 H 0.87783 0.82414 0.74849 0.0
C3217 C 0.84905 0.83284 0.85182 0.0
N3218 N 0.85866 0.82756 0.82995 0.0
C3219 C 0.86181 0.83542 0.87472 0.0
C3220 C 0.88477 0.83335 0.8754 0.0
H3221 H 0.83128 0.83422 0.85188 0.0
H3222 H 0.94663 0.82605 0.83105 0.0
H3223 H 0.74804 0.77583 0.79842 0.0
H3224 H 0.94355 0.82589 0.78535 0.0
H3225 H 0.91955 0.82712 0.74748 0.0
H3226 H 0.92884 0.82986 0.87037 0.0
H3227 H 0.79981 0.75219 0.70115 0.0
H3228 H 0.68717 0.78038 0.75564 0.0
H3229 H 0.70719 0.77775 0.79567 0.0
H3230 H 0.70784 0.76861 0.6722 0.0
H3231 H 0.85391 0.83901 0.89187 0.0
H3232 H 0.89465 0.83553 0.89321 0.0
H3233 H 0.68791 0.77777 0.7096 0.0
H3234 H 0.78076 0.74713 0.65896 0.0
N3235 N 0.7515 0.77683 0.76028 0.0
C3236 C 0.70519 0.77941 0.7567 0.0
C3237 C 0.71641 0.77822 0.77935 0.0
C3238 C 0.71692 0.77753 0.73536 0.0
C3239 C 0.74017 0.77543 0.73767 0.0
C3240 C 0.73967 0.77724 0.78087 0.0
N3241 N 0.77253 0.76483 0.71945 0.0
C3242 C 0.75104 0.76934 0.71659 0.0
C3243 C 0.7722 0.7534 0.675 0.0
C3244 C 0.75047 0.75881 0.67178 0.0
C3245 C 0.78291 0.75618 0.69905 0.0
C3246 C 0.73944 0.76647 0.69268 0.0
H3247 H 0.74216 0.75648 0.65312 0.0
O3248 O 0.79107 0.73025 0.75284 0.0
O3249 O 0.82705 0.78491 0.76767 0.0
O3250 O 0.83574 0.81734 0.74709 0.0
O3251 O 0.79637 0.79951 0.73556 0.0
O3252 O 0.81638 0.7516 0.74194 0.0
O3253 O 0.76449 0.74211 0.77389 0.0
O3254 O 0.86374 0.8598 0.79554 0.0
O3255 O 0.8015 0.80823 0.78554 0.0
O3256 O 0.79574 0.77344 0.80306 0.0
O3257 O 0.83495 0.79239 0.81319 0.0
O3258 O 0.81407 0.83927 0.81407 0.0
O3259 O 0.8291 0.85561 0.77841 0.0
C3260 C 0.83422 0.76793 0.75384 0.0
C3261 C 0.71696 0.77053 0.69039 0.0
C3262 C 0.70565 0.77588 0.71169 0.0
C3263 C 0.77481 0.7239 0.76691 0.0
C3264 C 0.77948 0.7098 0.78634 0.0
C3265 C 0.76259 0.70369 0.80239 0.0
C3266 C 0.80054 0.70249 0.78922 0.0
C3267 C 0.80442 0.68832 0.8073 0.0
C3268 C 0.76657 0.69027 0.82082 0.0
C3269 C 0.7872 0.68231 0.82309 0.0
C3270 C 0.81674 0.8127 0.73105 0.0
C3271 C 0.79557 0.82381 0.80252 0.0
C3272 C 0.84819 0.87141 0.78889 0.0
C3273 C 0.84547 0.89396 0.80663 0.0
C3274 C 0.8576 0.90132 0.83059 0.0
C3275 C 0.82943 0.90752 0.79992 0.0
C3276 C 0.82506 0.92788 0.81698 0.0
C3277 C 0.85367 0.92197 0.84744 0.0
C3278 C 0.83748 0.93524 0.84072 0.0
C3279 C 0.81553 0.77739 0.81755 0.0
H3280 H 0.74624 0.70925 0.80065 0.0
H3281 H 0.81379 0.70743 0.77714 0.0
H3282 H 0.7534 0.6855 0.833 0.0
H3283 H 0.78923 0.67067 0.83661 0.0
H3284 H 0.86994 0.89105 0.83643 0.0
H3285 H 0.82023 0.90209 0.78138 0.0
H3286 H 0.86305 0.92755 0.86585 0.0
H3287 H 0.83444 0.95101 0.8541 0.0
Gd3288 Gd 0.59425 0.56445 0.53806 0.0
Gd3289 Gd 0.54155 0.52579 0.50808 0.0
C3290 C 0.53317 0.44076 0.50722 0.0
C3291 C 0.53288 0.42352 0.46319 0.0
C3292 C 0.53577 0.46879 0.47773 0.0
C3293 C 0.53578 0.46546 0.50213 0.0
C3294 C 0.53333 0.44766 0.45795 0.0
C3295 C 0.53277 0.42007 0.48781 0.0
C3296 C 0.52981 0.43731 0.53143 0.0
C3297 C 0.528 0.45792 0.54957 0.0
N3298 N 0.53595 0.48585 0.52052 0.0
C3299 C 0.53078 0.48204 0.54373 0.0
H3300 H 0.52935 0.49736 0.55836 0.0
C3301 C 0.52962 0.49495 0.44949 0.0
N3302 N 0.53539 0.49213 0.47317 0.0
C3303 C 0.52747 0.47473 0.42927 0.0
C3304 C 0.52995 0.45111 0.43348 0.0
H3305 H 0.5272 0.5131 0.44629 0.0
H3306 H 0.53125 0.40111 0.4915 0.0
H3307 H 0.60677 0.59341 0.48803 0.0
H3308 H 0.52773 0.41868 0.53607 0.0
H3309 H 0.52468 0.45534 0.5682 0.0
H3310 H 0.53141 0.40717 0.44827 0.0
H3311 H 0.60892 0.57632 0.59971 0.0
H3312 H 0.6093 0.67216 0.5112 0.0
H3313 H 0.61179 0.6356 0.47866 0.0
H3314 H 0.60649 0.68299 0.59908 0.0
H3315 H 0.5237 0.47731 0.41051 0.0
H3316 H 0.52798 0.43537 0.41781 0.0
H3317 H 0.60636 0.68947 0.55598 0.0
H3318 H 0.61337 0.61196 0.63581 0.0
N3319 N 0.60045 0.60464 0.52603 0.0
C3320 C 0.60705 0.65343 0.51564 0.0
C3321 C 0.60855 0.63287 0.49727 0.0
C3322 C 0.60383 0.64979 0.53981 0.0
C3323 C 0.60097 0.62496 0.54463 0.0
C3324 C 0.60557 0.60864 0.50285 0.0
N3325 N 0.60118 0.59789 0.57321 0.0
C3326 C 0.60112 0.6214 0.56895 0.0
C3327 C 0.60956 0.61481 0.61715 0.0
C3328 C 0.60747 0.63865 0.61328 0.0
C3329 C 0.60691 0.59468 0.59674 0.0
C3330 C 0.60398 0.64241 0.58893 0.0
H3331 H 0.60978 0.65431 0.62909 0.0
O3332 O 0.6299 0.58083 0.55347 0.0
O3333 O 0.5751 0.5233 0.52786 0.0
O3334 O 0.53504 0.53733 0.54979 0.0
O3335 O 0.56898 0.56489 0.56949 0.0
O3336 O 0.59068 0.53674 0.56405 0.0
O3337 O 0.62129 0.54439 0.52831 0.0
O3338 O 0.50614 0.50831 0.49237 0.0
O3339 O 0.56068 0.56687 0.5185 0.0
O3340 O 0.60059 0.55344 0.49623 0.0
O3341 O 0.56661 0.52604 0.47649 0.0
O3342 O 0.54485 0.5539 0.48243 0.0
O3343 O 0.51375 0.54487 0.51721 0.0
C3344 C 0.57953 0.51653 0.54854 0.0
C3345 C 0.6047 0.66672 0.58399 0.0
C3346 C 0.60464 0.67041 0.55945 0.0
C3347 C 0.63774 0.56251 0.54101 0.0
C3348 C 0.65848 0.5697 0.52843 0.0
C3349 C 0.662 0.59075 0.51687 0.0
C3350 C 0.67521 0.55522 0.52834 0.0
C3351 C 0.69588 0.5621 0.51761 0.0
C3352 C 0.68217 0.59726 0.50547 0.0
C3353 C 0.69909 0.58312 0.5059 0.0
C3354 C 0.54704 0.55271 0.57029 0.0
C3355 C 0.55623 0.57395 0.49801 0.0
C3356 C 0.4977 0.52623 0.50463 0.0
C3357 C 0.47724 0.51836 0.51742 0.0
C3358 C 0.47484 0.49778 0.52962 0.0
C3359 C 0.45989 0.53203 0.51762 0.0
C3360 C 0.44022 0.5254 0.53 0.0
C3361 C 0.45537 0.49117 0.54209 0.0
C3362 C 0.4381 0.5049 0.54232 0.0
C3363 C 0.5885 0.5383 0.47567 0.0
H3364 H 0.64931 0.6022 0.51679 0.0
H3365 H 0.67208 0.53859 0.53674 0.0
H3366 H 0.68483 0.61353 0.49658 0.0
H3367 H 0.71484 0.58889 0.49748 0.0
H3368 H 0.48786 0.48676 0.52939 0.0
H3369 H 0.46178 0.548 0.50827 0.0
H3370 H 0.4536 0.47527 0.55146 0.0
H3371 H 0.42296 0.49928 0.55176 0.0
Gd3372 Gd 0.04515 0.54451 0.04389 0.0
Gd3373 Gd 0.10139 0.55473 0.01849 0.0
C3374 C 0.14075 0.6326 1.00857 0.0
C3375 C 0.13882 0.62725 0.96351 0.0
C3376 C 0.12147 0.59208 0.98254 0.0
C3377 C 0.1282 0.60725 1.00593 0.0
C3378 C 0.12703 0.60177 0.96104 0.0
C3379 C 0.14564 0.64265 0.98723 0.0
C3380 C 0.14849 0.64689 0.03257 0.0
C3381 C 0.14437 0.63554 0.0531 0.0
N3382 N 0.12338 0.59687 0.02611 0.0
C3383 C 0.13202 0.61027 0.04949 0.0
H3384 H 0.12895 0.60178 0.06556 0.0
C3385 C 0.10505 0.55122 0.95821 0.0
N3386 N 0.11019 0.56753 0.98084 0.0
C3387 C 0.11011 0.55997 0.93636 0.0
C3388 C 0.12096 0.58541 0.93775 0.0
H3389 H 0.09658 0.53155 0.95684 0.0
H3390 H 0.15512 0.66213 0.98889 0.0
H3391 H 0.0179 0.4973 0.99707 0.0
H3392 H 0.1581 0.66645 0.0354 0.0
H3393 H 0.15063 0.64626 0.07173 0.0
H3394 H 0.1431 0.63509 0.94721 0.0
H3395 H 0.04873 0.5684 0.10507 0.0
H3396 H 0.98694 0.43338 0.0273 0.0
H3397 H 0.99562 0.45308 0.99088 0.0
H3398 H 0.99957 0.46603 0.1154 0.0
H3399 H 0.10563 0.54708 0.91846 0.0
H3400 H 0.12492 0.59211 0.92079 0.0
H3401 H 0.98863 0.43836 0.07387 0.0
H3402 H 0.03752 0.55402 0.14343 0.0
N3403 N 0.02284 0.50248 0.03648 0.0
C3404 C 0.99686 0.45282 0.03011 0.0
C3405 C 1.00166 0.46388 0.00952 0.0
C3406 C 1.00422 0.46729 0.05409 0.0
C3407 C 0.01722 0.49245 0.05667 0.0
C3408 C 0.01438 0.48901 0.01311 0.0
N3409 N 0.03507 0.53224 0.08142 0.0
C3410 C 0.02339 0.5079 0.07992 0.0
C3411 C 0.03348 0.54082 0.12569 0.0
C3412 C 0.02204 0.5156 0.1245 0.0
C3413 C 0.03979 0.54891 0.10385 0.0
C3414 C 0.01674 0.4988 0.10141 0.0
H3415 H 0.0172 0.50937 0.14145 0.0
O3416 O 0.02368 0.57079 0.05707 0.0
O3417 O 0.07462 0.57364 0.03548 0.0
O3418 O 0.1038 0.5595 0.06034 0.0
O3419 O 0.07074 0.53369 0.06985 0.0
O3420 O 0.0604 0.5835 0.06786 0.0
O3421 O 0.01384 0.54501 0.02151 0.0
O3422 O 0.12022 0.5255 1.00682 0.0
O3423 O 0.07206 0.52541 0.02726 0.0
O3424 O 0.04289 0.53976 1.00188 0.0
O3425 O 0.07618 0.56623 0.99326 0.0
O3426 O 0.08549 0.51617 0.99405 0.0
O3427 O 0.13565 0.55704 0.03673 0.0
C3428 C 0.07575 0.59174 0.054 0.0
C3429 C 1.00463 0.47346 0.09909 0.0
C3430 C 0.99842 0.4577 0.07546 0.0
C3431 C 1.00833 0.56271 0.03772 0.0
C3432 C 0.98377 0.55881 0.04252 0.0
C3433 C 0.97341 0.53778 0.05221 0.0
C3434 C 0.97051 0.57614 0.0373 0.0
C3435 C 0.94696 0.57242 0.04182 0.0
C3436 C 0.95022 0.53395 0.05664 0.0
C3437 C 0.93711 0.55105 0.05152 0.0
C3438 C 0.09314 0.54444 0.07431 0.0
C3439 C 0.07061 0.50761 1.0083 0.0
C3440 C 0.13832 0.53626 0.02264 0.0
C3441 C 0.16091 0.53663 0.01281 0.0
C3442 C 0.16737 0.55036 0.99426 0.0
C3443 C 0.17552 0.52188 0.02093 0.0
C3444 C 0.19626 0.52023 0.01004 0.0
C3445 C 0.18789 0.54913 0.98363 0.0
C3446 C 0.20211 0.53411 0.99125 0.0
C3447 C 0.05422 0.55436 0.98788 0.0
H3448 H 0.98326 0.52431 0.05631 0.0
H3449 H 0.97859 0.59259 0.0301 0.0
H3450 H 0.94233 0.51761 0.06406 0.0
H3451 H 0.91909 0.5474 0.05498 0.0
H3452 H 0.15639 0.56173 0.98776 0.0
H3453 H 0.17065 0.5118 0.03569 0.0
H3454 H 0.19267 0.55961 0.96914 0.0
H3455 H 0.21759 0.53311 0.98209 0.0
C3456 C 0.04909 0.14848 0.01215 0.0
C3457 C 0.0478 0.15312 0.98749 0.0
C3458 C 0.0527 0.12492 0.01758 0.0
C3459 C 0.05572 0.1049 0.99864 0.0
H3460 H 0.04661 0.16293 0.02738 0.0
H3461 H 0.05265 0.12222 0.03662 0.0
S3462 S 0.05697 0.10818 0.93159 0.0
N3463 N 0.05186 0.13578 0.94454 0.0
N3464 N 0.05892 0.09273 0.95443 0.0
C3465 C 0.0554 0.10988 0.97422 0.0
C3466 C 0.05148 0.13349 0.96874 0.0
C3467 C 0.24359 0.81833 0.19362 0.0
C3468 C 0.22105 0.81333 0.20109 0.0
C3469 C 0.26274 0.81411 0.20764 0.0
C3470 C 0.26042 0.80534 0.23021 0.0
H3471 H 0.24641 0.8252 0.17653 0.0
H3472 H 0.27961 0.81822 0.20096 0.0
S3473 S 0.20529 0.78938 0.25823 0.0
N3474 N 0.19773 0.79871 0.2326 0.0
N3475 N 0.23348 0.79172 0.25913 0.0
C3476 C 0.23803 0.80051 0.23797 0.0
C3477 C 0.21849 0.80422 0.22342 0.0
C3478 C 0.54596 0.93308 0.46949 0.0
C3479 C 0.54675 0.91957 0.48893 0.0
C3480 C 0.5498 0.95984 0.47407 0.0
C3481 C 0.55464 0.9749 0.49835 0.0
H3482 H 0.54267 0.92286 0.45032 0.0
H3483 H 0.54961 0.96896 0.45818 0.0
S3484 S 0.55854 0.94956 0.55628 0.0
N3485 N 0.55228 0.9238 0.53391 0.0
N3486 N 0.55991 0.97396 0.54231 0.0
C3487 C 0.55492 0.96177 0.51814 0.0
C3488 C 0.55081 0.93428 0.51349 0.0
C3489 C 0.47576 0.30219 0.6711 0.0
C3490 C 0.49611 0.30738 0.6875 0.0
C3491 C 0.45377 0.29578 0.67932 0.0
C3492 C 0.45101 0.29443 0.70439 0.0
H3493 H 0.4768 0.30211 0.65146 0.0
H3494 H 0.43874 0.29117 0.66574 0.0
S3495 S 0.4985 0.30827 0.75541 0.0
N3496 N 0.51191 0.31235 0.73049 0.0
N3497 N 0.47057 0.3001 0.74584 0.0
C3498 C 0.47111 0.30061 0.72124 0.0
C3499 C 0.49361 0.30701 0.71282 0.0
C3500 C 0.0479 0.90444 0.60559 0.0
C3501 C 0.04478 0.87784 0.6005 0.0
C3502 C 0.05797 0.91902 0.58892 0.0
C3503 C 0.06565 0.90746 0.56693 0.0
H3504 H 0.04257 0.91401 0.62257 0.0
H3505 H 0.06022 0.93948 0.59349 0.0
S3506 S 0.06143 0.83856 0.54506 0.0
N3507 N 0.05004 0.84059 0.57182 0.0
N3508 N 0.06911 0.86801 0.5407 0.0
C3509 C 0.06251 0.88092 0.56159 0.0
C3510 C 0.05202 0.86609 0.57833 0.0
C3511 C 0.50808 0.85639 0.79475 0.0
C3512 C 0.50924 0.83081 0.79303 0.0
C3513 C 0.48787 0.86285 0.7863 0.0
C3514 C 0.46806 0.84396 0.77587 0.0
H3515 H 0.52262 0.87158 0.80358 0.0
H3516 H 0.48746 0.88277 0.78887 0.0
S3517 S 0.46308 0.77424 0.76436 0.0
N3518 N 0.48954 0.78653 0.7782 0.0
N3519 N 0.4515 0.79864 0.76219 0.0
C3520 C 0.46931 0.81831 0.77305 0.0
C3521 C 0.48989 0.81175 0.78169 0.0
C3522 C 0.52656 0.14868 0.06358 0.0
C3523 C 0.53843 0.16325 0.08617 0.0
C3524 C 0.53399 0.12772 0.05103 0.0
C3525 C 0.55368 0.12056 0.06044 0.0
H3526 H 0.51148 0.15356 0.05546 0.0
H3527 H 0.52388 0.11688 0.03398 0.0
S3528 S 0.59004 0.15202 0.11998 0.0
N3529 N 0.56995 0.1684 0.11839 0.0
N3530 N 0.58463 0.1299 0.09431 0.0
C3531 C 0.56568 0.1351 0.08314 0.0
C3532 C 0.55788 0.15619 0.09611 0.0
C3533 C 0.23212 0.33875 0.29778 0.0
C3534 C 0.22771 0.33024 0.32005 0.0
C3535 C 0.25226 0.33607 0.28647 0.0
C3536 C 0.26813 0.32407 0.29665 0.0
H3537 H 0.22 0.34758 0.28912 0.0
H3538 H 0.25518 0.34286 0.26938 0.0
S3539 S 0.2655 0.30105 0.35603 0.0
N3540 N 0.24143 0.31084 0.35256 0.0
N3541 N 0.27918 0.30605 0.33153 0.0
C3542 C 0.26416 0.31621 0.31925 0.0
C3543 C 0.24392 0.31916 0.33084 0.0
C3544 C 1.00876 0.04363 0.12528 0.0
C3545 C 0.01427 0.06603 0.14442 0.0
C3546 C 0.01937 0.04123 0.10227 0.0
C3547 C 0.03674 0.06086 0.09639 0.0
H3548 H 0.9957 0.02757 0.12784 0.0
H3549 H 0.01389 0.02344 0.08893 0.0
S3550 S 0.05845 0.1238 0.13918 0.0
N3551 N 0.03933 0.10844 0.15484 0.0
N3552 N 0.05845 0.10406 0.11261 0.0
C3553 C 0.04248 0.08334 0.11528 0.0
C3554 C 0.03159 0.08587 0.13867 0.0
C3555 C 0.29368 0.74304 0.41484 0.0
C3556 C 0.2874 0.71667 0.41312 0.0
C3557 C 0.28456 0.75436 0.39686 0.0
C3558 C 0.269 0.73964 0.37644 0.0
H3559 H 0.30471 0.75508 0.43086 0.0
H3560 H 0.28895 0.77491 0.39961 0.0
S3561 S 0.24961 0.66929 0.36234 0.0
N3562 N 0.26624 0.67587 0.38898 0.0
N3563 N 0.24979 0.69692 0.35442 0.0
C3564 C 0.26373 0.71303 0.37388 0.0
C3565 C 0.27278 0.7016 0.3924 0.0
C3566 C 0.61496 0.04984 0.63191 0.0
C3567 C 0.62921 0.03231 0.62897 0.0
C3568 C 0.5998 0.05127 0.61199 0.0
C3569 C 0.5987 0.03533 0.58872 0.0
H3570 H 0.61586 0.06278 0.64958 0.0
H3571 H 0.58954 0.06548 0.61454 0.0
S3572 S 0.63204 0.98615 0.57158 0.0
N3573 N 0.64083 0.99836 0.60129 0.0
N3574 N 0.61254 1.00144 0.56364 0.0
C3575 C 0.61243 0.01741 0.58566 0.0
C3576 C 0.62765 0.01575 0.60594 0.0
C3577 C 0.32982 0.35214 0.88564 0.0
C3578 C 0.32726 0.33223 0.8989 0.0
C3579 C 0.32712 0.3474 0.85948 0.0
C3580 C 0.32218 0.32253 0.8451 0.0
H3581 H 0.33337 0.37171 0.89558 0.0
H3582 H 0.32883 0.3635 0.85036 0.0
S3583 S 0.31374 0.26337 0.87018 0.0
N3584 N 0.31955 0.28634 0.89531 0.0
N3585 N 0.31433 0.27754 0.84608 0.0
C3586 C 0.31964 0.30231 0.85792 0.0
C3587 C 0.32223 0.30713 0.88476 0.0
C3588 C 0.0369 0.06541 0.41769 0.0
C3589 C 0.01262 0.06064 0.41025 0.0
C3590 C 0.04638 0.06213 0.44154 0.0
C3591 C 0.03226 0.05416 0.45994 0.0
H3592 H 0.04889 0.07178 0.40489 0.0
H3593 H 0.06498 0.06665 0.4458 0.0
S3594 S 0.96786 0.03957 0.45136 0.0
N3595 N 0.97512 0.04751 0.42487 0.0
N3596 N 0.99238 0.04188 0.46829 0.0
C3597 C 1.00814 0.04941 0.45269 0.0
C3598 C 0.99856 0.05238 0.42852 0.0
C3599 C 0.30588 0.72563 0.67183 0.0
C3600 C 0.3039 0.73733 0.65128 0.0
C3601 C 0.30489 0.73843 0.69603 0.0
C3602 C 0.30221 0.76358 0.70072 0.0
H3603 H 0.30871 0.70653 0.66929 0.0
H3604 H 0.30711 0.7288 0.71124 0.0
S3605 S 0.29518 0.80265 0.65372 0.0
N3606 N 0.29794 0.77528 0.63727 0.0
N3607 N 0.29702 0.7997 0.68312 0.0
C3608 C 0.30007 0.77557 0.6805 0.0
C3609 C 0.30074 0.76239 0.65571 0.0
C3610 C 0.5822 0.0375 0.82632 0.0
C3611 C 0.60308 0.05608 0.8322 0.0
C3612 C 0.56517 0.03616 0.84286 0.0
C3613 C 0.56856 0.0533 0.86583 0.0
H3614 H 0.57932 0.02341 0.80915 0.0
H3615 H 0.54987 0.02079 0.83826 0.0
S3616 S 0.61917 0.10683 0.88912 0.0
N3617 N 0.62554 0.09287 0.86199 0.0
N3618 N 0.59324 0.09072 0.89273 0.0
C3619 C 0.58872 0.07287 0.87127 0.0
C3620 C 0.60607 0.07418 0.85453 0.0
C3621 C 0.32245 0.30798 0.16167 0.0
C3622 C 0.31992 0.33227 0.15863 0.0
C3623 C 0.32066 0.30039 0.18494 0.0
C3624 C 0.31678 0.31696 0.20634 0.0
H3625 H 0.32558 0.29459 0.14587 0.0
H3626 H 0.32277 0.28156 0.18629 0.0
S3627 S 0.30888 0.38251 0.20857 0.0
N3628 N 0.31337 0.37277 0.1794 0.0
N3629 N 0.30984 0.35854 0.22256 0.0
C3630 C 0.31421 0.34121 0.2035 0.0
C3631 C 0.31581 0.34883 0.17987 0.0
C3632 C 0.25693 0.05471 0.04563 0.0
C3633 C 0.25299 0.03038 0.05153 0.0
C3634 C 0.24055 0.06968 0.04923 0.0
C3635 C 0.21958 0.06074 0.05866 0.0
H3636 H 0.2728 0.06223 0.03818 0.0
H3637 H 0.24407 0.08809 0.04401 0.0
S3638 S 0.20107 0.9986 0.07742 0.0
N3639 N 0.22657 0.99811 0.06732 0.0
N3640 N 0.19611 0.02646 0.07466 0.0
C3641 C 0.21561 0.03664 0.06501 0.0
C3642 C 0.23223 0.02142 0.06132 0.0
C3643 C 0.66242 0.62402 1.00856 0.0
C3644 C 0.68211 0.61369 0.00978 0.0
C3645 C 0.64022 0.60956 0.0102 0.0
C3646 C 0.63672 0.5841 0.013 0.0
H3647 H 0.66416 0.64345 1.0062 0.0
H3648 H 0.62563 0.61837 0.00909 0.0
S3649 S 0.68271 0.54893 0.02008 0.0
N3650 N 0.69671 0.57689 0.01575 0.0
N3651 N 0.65514 0.54994 0.01896 0.0
C3652 C 0.65627 0.57367 0.01465 0.0
C3653 C 0.67888 0.58838 0.013 0.0
C3654 C 0.76316 0.38794 0.29458 0.0
C3655 C 0.76077 0.39743 0.27228 0.0
C3656 C 0.77391 0.36714 0.2967 0.0
C3657 C 0.7837 0.35357 0.27693 0.0
H3658 H 0.75611 0.39631 0.31092 0.0
H3659 H 0.77436 0.36141 0.31454 0.0
S3660 S 0.78357 0.36963 0.2139 0.0
N3661 N 0.77069 0.39056 0.22947 0.0
N3662 N 0.78987 0.35198 0.23352 0.0
C3663 C 0.78171 0.36268 0.25442 0.0
C3664 C 0.77069 0.3841 0.25215 0.0
C3665 C 0.98033 0.52606 0.54318 0.0
C3666 C 0.96928 0.50014 0.53697 0.0
C3667 C 1.00444 0.53386 0.54473 0.0
C3668 C 0.01819 0.51602 0.5397 0.0
H3669 H 0.97031 0.54037 0.54716 0.0
H3670 H 0.01229 0.55395 0.55008 0.0
S3671 S 0.99777 0.44611 0.52204 0.0
N3672 N 0.97392 0.4567 0.5253 0.0
N3673 N 0.01933 0.47155 0.52859 0.0
C3674 C 1.00745 0.49011 0.53386 0.0
C3675 C 0.98293 0.48213 0.5322 0.0
C3676 C 0.36703 0.16204 0.25671 0.0
C3677 C 0.36254 0.1354 0.24966 0.0
C3678 C 0.35458 0.17608 0.24449 0.0
C3679 C 0.33758 0.16398 0.22454 0.0
H3680 H 0.38008 0.17201 0.27191 0.0
H3681 H 0.35834 0.19654 0.25052 0.0
S3682 S 0.31982 0.09477 0.19858 0.0
N3683 N 0.34025 0.09751 0.22132 0.0
N3684 N 0.31696 0.12396 0.19824 0.0
C3685 C 0.33313 0.13742 0.21716 0.0
C3686 C 0.34557 0.1231 0.22978 0.0
C3687 C 0.41777 0.1282 0.53374 0.0
C3688 C 0.39436 0.11758 0.52471 0.0
C3689 C 0.43309 0.11281 0.53832 0.0
C3690 C 0.42558 0.08616 0.53432 0.0
H3691 H 0.4243 0.14862 0.53747 0.0
H3692 H 0.45076 0.1219 0.5458 0.0
S3693 S 0.36635 0.04869 0.50997 0.0
N3694 N 0.36467 0.07853 0.51155 0.0
N3695 N 0.39344 0.04978 0.51961 0.0
C3696 C 0.4024 0.07528 0.52471 0.0
C3697 C 0.38684 0.09091 0.52003 0.0
C3698 C 0.78527 0.67522 0.28871 0.0
C3699 C 0.76288 0.66331 0.27641 0.0
C3700 C 0.79617 0.70109 0.28871 0.0
C3701 C 0.78543 0.71702 0.2766 0.0
H3702 H 0.79473 0.66432 0.29825 0.0
H3703 H 0.81325 0.70868 0.29857 0.0
S3704 S 0.72588 0.69646 0.24342 0.0
N3705 N 0.72993 0.67081 0.25302 0.0
N3706 N 0.74995 0.71838 0.25297 0.0
C3707 C 0.7628 0.70548 0.26476 0.0
C3708 C 0.75178 0.67915 0.26464 0.0
C3709 C 0.85019 0.40822 0.7616 0.0
C3710 C 0.86854 0.41681 0.78072 0.0
C3711 C 0.8385 0.38258 0.75557 0.0
C3712 C 0.84436 0.365 0.769 0.0
H3713 H 0.84497 0.42137 0.75115 0.0
H3714 H 0.82447 0.37655 0.7407 0.0
S3715 S 0.8924 0.37751 0.81919 0.0
N3716 N 0.89291 0.40551 0.81201 0.0
N3717 N 0.87096 0.35733 0.8006 0.0
C3718 C 0.86318 0.37317 0.78754 0.0
C3719 C 0.8752 0.39914 0.79351 0.0
C3720 C 0.08425 0.96238 0.08081 0.0
C3721 C 0.08905 0.94268 0.06283 0.0
C3722 C 0.08086 0.98557 0.075 0.0
C3723 C 0.08152 0.99074 0.05068 0.0
H3724 H 0.08364 0.96022 0.09998 0.0
H3725 H 0.07774 0.99986 0.09001 0.0
S3726 S 0.09259 0.94581 0.99586 0.0
N3727 N 0.09363 0.93024 0.01883 0.0
N3728 N 0.08736 0.97358 1.0082 0.0
C3729 C 0.08602 0.97124 0.03227 0.0
C3730 C 0.08971 0.94749 0.03824 0.0
C3731 C 0.91921 0.29273 0.83039 0.0
C3732 C 0.91678 0.28372 0.85286 0.0
C3733 C 0.90007 0.29633 0.81589 0.0
C3734 C 0.87755 0.29179 0.82341 0.0
H3735 H 0.9361 0.29683 0.82376 0.0
H3736 H 0.90303 0.30315 0.7988 0.0
S3737 S 0.86124 0.26768 0.88028 0.0
N3738 N 0.88945 0.27001 0.88147 0.0
N3739 N 0.85395 0.27706 0.85461 0.0
C3740 C 0.87482 0.28278 0.84575 0.0
C3741 C 0.89421 0.27865 0.86029 0.0
C3742 C 0.58775 0.15801 0.57952 0.0
C3743 C 0.58752 0.17178 0.5602 0.0
C3744 C 0.58335 0.1312 0.57478 0.0
C3745 C 0.5785 0.11629 0.55042 0.0
H3746 H 0.59108 0.16808 0.59874 0.0
H3747 H 0.58319 0.12193 0.59059 0.0
S3748 S 0.57598 0.14223 0.49271 0.0
N3749 N 0.58251 0.16786 0.51522 0.0
N3750 N 0.57382 0.11764 0.50651 0.0
C3751 C 0.57875 0.12963 0.53075 0.0
C3752 C 0.58343 0.15718 0.53557 0.0
C3753 C 0.64302 0.76745 0.33781 0.0
C3754 C 0.63467 0.78784 0.35072 0.0
C3755 C 0.6614 0.77158 0.32286 0.0
C3756 C 0.6719 0.79623 0.31994 0.0
H3757 H 0.63516 0.74813 0.33913 0.0
H3758 H 0.66687 0.75532 0.3128 0.0
S3759 S 0.6568 0.85607 0.34971 0.0
N3760 N 0.63876 0.83365 0.35968 0.0
N3761 N 0.67293 0.84126 0.33156 0.0
C3762 C 0.66397 0.81673 0.33302 0.0
C3763 C 0.64551 0.81259 0.34841 0.0
C3764 C 0.08111 0.23942 0.48997 0.0
C3765 C 0.0982 0.23584 0.47386 0.0
C3766 C 0.07647 0.2249 0.50836 0.0
C3767 C 0.08865 0.20614 0.5113 0.0
H3768 H 0.07128 0.25364 0.48841 0.0
H3769 H 0.06289 0.22801 0.52002 0.0
S3770 S 0.13552 0.18967 0.4744 0.0
N3771 N 0.12742 0.21217 0.46221 0.0
N3772 N 0.11919 0.18545 0.49721 0.0
C3773 C 0.10605 0.20266 0.49561 0.0
C3774 C 0.11073 0.21737 0.47683 0.0
C3775 C 0.64277 0.26627 0.22957 0.0
C3776 C 0.62475 0.26849 0.24465 0.0
C3777 C 0.66247 0.25904 0.23805 0.0
C3778 C 0.66522 0.25407 0.26216 0.0
H3779 H 0.64144 0.26962 0.21075 0.0
H3780 H 0.67537 0.25668 0.22528 0.0
S3781 S 0.62394 0.25917 0.30985 0.0
N3782 N 0.61121 0.26606 0.28523 0.0
N3783 N 0.64894 0.25365 0.30172 0.0
C3784 C 0.64777 0.25722 0.27788 0.0
C3785 C 0.62746 0.2643 0.26906 0.0
C3786 C 0.57717 0.94472 0.96724 0.0
C3787 C 0.60002 0.94161 0.96889 0.0
C3788 C 0.57151 0.96662 0.9802 0.0
C3789 C 0.58847 0.98608 0.99552 0.0
H3790 H 0.56362 0.93027 0.95546 0.0
H3791 H 0.5537 0.96825 0.97817 0.0
S3792 S 0.65089 0.98659 1.00639 0.0
N3793 N 0.63963 0.95929 0.98709 0.0
N3794 N 0.6292 1.00056 0.01163 0.0
C3795 C 0.6114 0.98298 0.99754 0.0
C3796 C 0.61714 0.96074 0.98413 0.0
C3797 C 0.8849 0.77038 0.71615 0.0
C3798 C 0.9026 0.76719 0.73271 0.0
C3799 C 0.86284 0.77073 0.72334 0.0
C3800 C 0.85773 0.76823 0.74745 0.0
H3801 H 0.88815 0.77282 0.69745 0.0
H3802 H 0.84978 0.77342 0.71009 0.0
S3803 S 0.89645 0.75648 0.79714 0.0
N3804 N 0.91264 0.75957 0.77398 0.0
N3805 N 0.87074 0.7598 0.78712 0.0
C3806 C 0.87458 0.76363 0.76384 0.0
C3807 C 0.89716 0.7632 0.75655 0.0
C3808 C 0.09973 0.01576 0.90701 0.0
C3809 C 0.12187 0.0305 0.9041 0.0
C3810 C 0.08931 0.01804 0.93017 0.0
C3811 C 0.09986 0.03559 0.95242 0.0
H3812 H 0.09031 1.00179 0.89119 0.0
H3813 H 0.07261 1.00571 0.93051 0.0
S3814 S 0.1573 0.08025 0.95574 0.0
N3815 N 0.15338 0.06432 0.92666 0.0
N3816 N 0.13427 0.06862 0.96886 0.0
C3817 C 0.12186 0.05067 0.94967 0.0
C3818 C 0.13258 0.04816 0.92621 0.0
C3819 C 0.86259 0.40355 0.66629 0.0
C3820 C 0.85476 0.38826 0.64257 0.0
C3821 C 0.8713 0.39346 0.68554 0.0
C3822 C 0.87275 0.36783 0.68162 0.0
H3823 H 0.86234 0.42354 0.66982 0.0
H3824 H 0.87717 0.40589 0.70354 0.0
S3825 S 0.85518 0.32024 0.62245 0.0
N3826 N 0.84905 0.34646 0.61607 0.0
N3827 N 0.86594 0.32754 0.65198 0.0
C3828 C 0.86469 0.35231 0.658 0.0
C3829 C 0.85558 0.36253 0.63854 0.0
C3830 C 0.49325 0.04827 0.43836 0.0
C3831 C 0.50161 0.06303 0.42115 0.0
C3832 C 0.508 0.04445 0.45724 0.0
C3833 C 0.53186 0.05575 0.46035 0.0
H3834 H 0.47504 0.03933 0.43721 0.0
H3835 H 0.50033 0.03239 0.46945 0.0
S3836 S 0.56256 0.0971 0.42072 0.0
N3837 N 0.53543 0.08907 0.40816 0.0
N3838 N 0.56306 0.08329 0.44498 0.0
C3839 C 0.54049 0.07121 0.44369 0.0
C3840 C 0.52541 0.07462 0.42389 0.0
C3841 C 0.81701 0.78521 0.16628 0.0
C3842 C 0.81021 0.76025 0.15187 0.0
C3843 C 0.81853 0.78994 0.19269 0.0
C3844 C 0.81378 0.76979 0.20563 0.0
H3845 H 0.82141 0.80115 0.15707 0.0
H3846 H 0.82434 0.80931 0.20301 0.0
S3847 S 0.79492 0.7012 0.17678 0.0
N3848 N 0.79794 0.71547 0.15282 0.0
N3849 N 0.80177 0.7241 0.20187 0.0
C3850 C 0.80686 0.7449 0.19135 0.0
C3851 C 0.80474 0.7402 0.16469 0.0
C3852 C 0.09704 0.02776 0.62669 0.0
C3853 C 0.12129 0.03096 0.63348 0.0
C3854 C 0.08743 0.03065 0.60272 0.0
C3855 C 0.10131 0.0367 0.58345 0.0
H3856 H 0.08515 0.02296 0.64014 0.0
H3857 H 0.06884 0.02742 0.5991 0.0
S3858 S 0.16549 0.04649 0.58989 0.0
N3859 N 0.15847 0.04028 0.61708 0.0
N3860 N 0.14096 0.0455 0.57361 0.0
C3861 C 0.1254 0.03991 0.59002 0.0
C3862 C 0.13514 0.03721 0.61428 0.0
C3863 C 0.8187 0.32612 0.39487 0.0
C3864 C 0.83178 0.35104 0.40329 0.0
C3865 C 0.81785 0.31377 0.36999 0.0
C3866 C 0.82943 0.32618 0.35244 0.0
H3867 H 0.80914 0.3161 0.40762 0.0
H3868 H 0.80777 0.29445 0.3645 0.0
S3869 S 0.86693 0.39153 0.36602 0.0
N3870 N 0.85736 0.38749 0.39291 0.0
N3871 N 0.8555 0.36471 0.3461 0.0
C3872 C 0.84308 0.35101 0.361 0.0
C3873 C 0.84422 0.36336 0.3864 0.0
C3874 C 0.53506 0.03589 0.2029 0.0
C3875 C 0.53752 0.05425 0.22498 0.0
C3876 C 0.55235 0.03675 0.18681 0.0
C3877 C 0.57271 0.05605 0.19211 0.0
H3878 H 0.51919 0.02143 0.19736 0.0
H3879 H 0.54935 0.0228 0.16952 0.0
S3880 S 0.58881 0.10685 0.24886 0.0
N3881 N 0.56293 0.0907 0.25264 0.0
N3882 N 0.59524 0.09278 0.22178 0.0
C3883 C 0.57604 0.07366 0.21477 0.0
C3884 C 0.55843 0.07271 0.2313 0.0
C3885 C 0.794 0.75027 0.87407 0.0
C3886 C 0.81445 0.74994 0.88844 0.0
C3887 C 0.79445 0.75826 0.851 0.0
C3888 C 0.81538 0.76678 0.84113 0.0
H3889 H 0.77734 0.7442 0.88065 0.0
H3890 H 0.77814 0.75824 0.84109 0.0
S3891 S 0.87381 0.76689 0.86935 0.0
N3892 N 0.85636 0.75745 0.8897 0.0
N3893 N 0.85702 0.77156 0.84642 0.0
C3894 C 0.83589 0.76545 0.85465 0.0
C3895 C 0.83547 0.75732 0.87817 0.0
C3896 C 0.9051 0.07263 0.98779 0.0
C3897 C 0.88433 0.0644 0.99788 0.0
C3898 C 0.92107 0.05725 0.98405 0.0
C3899 C 0.91688 0.03307 0.99027 0.0
H3900 H 0.90907 0.09115 0.98282 0.0
H3901 H 0.93695 0.06444 0.97644 0.0
S3902 S 0.86552 1.00307 0.01807 0.0
N3903 N 0.8606 0.03073 0.01446 0.0
N3904 N 0.89068 1.00178 1.00738 0.0
C3905 C 0.89607 0.02447 1.00009 0.0
C3906 C 0.87979 0.04015 1.00393 0.0
C3907 C 0.4672 0.50061 0.0563 0.0
C3908 C 0.45799 0.4759 0.04228 0.0
C3909 C 0.48915 0.51466 0.05293 0.0
C3910 C 0.50264 0.50487 0.03497 0.0
H3911 H 0.45745 0.50908 0.0702 0.0
H3912 H 0.49549 0.53336 0.06448 0.0
S3913 S 0.48634 0.44079 0.99351 0.0
N3914 N 0.46411 0.44219 0.00983 0.0
N3915 N 0.50505 0.4682 1.00349 0.0
C3916 C 0.4936 0.48001 0.02099 0.0
C3917 C 0.4714 0.4657 0.0246 0.0
C3918 C 0.36853 0.70418 0.7533 0.0
C3919 C 0.37371 0.69623 0.7759 0.0
C3920 C 0.35743 0.72487 0.75174 0.0
C3921 C 0.34991 0.73977 0.77247 0.0
H3922 H 0.37362 0.69465 0.73619 0.0
H3923 H 0.35485 0.72943 0.73356 0.0
S3924 S 0.35775 0.72792 0.83677 0.0
N3925 N 0.36895 0.70601 0.82018 0.0
N3926 N 0.34892 0.7442 0.81708 0.0
C3927 C 0.35467 0.73215 0.79532 0.0
C3928 C 0.36614 0.71092 0.79701 0.0
C3929 C 0.16269 0.57632 0.51675 0.0
C3930 C 0.17537 0.60148 0.51967 0.0
C3931 C 0.13874 0.57094 0.51766 0.0
C3932 C 0.12679 0.59058 0.52212 0.0
H3933 H 0.17131 0.5607 0.51342 0.0
H3934 H 0.1296 0.55127 0.51476 0.0
S3935 S 0.1522 0.65963 0.53177 0.0
N3936 N 0.17442 0.64626 0.52755 0.0
N3937 N 0.12926 0.63601 0.52936 0.0
C3938 C 0.13923 0.61577 0.52485 0.0
C3939 C 0.16359 0.62127 0.5238 0.0
C3940 C 0.79873 0.98138 0.80319 0.0
C3941 C 0.77644 0.96857 0.79199 0.0
C3942 C 0.81413 0.96816 0.81195 0.0
C3943 C 0.80781 0.94166 0.80963 0.0
H3944 H 0.80434 1.00179 0.80509 0.0
H3945 H 0.83132 0.97865 0.81997 0.0
S3946 S 0.75115 0.89937 0.78271 0.0
N3947 N 0.74858 0.92803 0.77961 0.0
N3948 N 0.77748 0.90315 0.79644 0.0
C3949 C 0.78539 0.92868 0.79901 0.0
C3950 C 0.76969 0.94215 0.79014 0.0
C3951 C 0.74477 0.99627 0.5277 0.0
C3952 C 0.73693 0.96993 0.52622 0.0
C3953 C 0.72956 1.01154 0.52265 0.0
C3954 C 0.70571 1.00128 0.51578 0.0
H3955 H 0.76299 1.00516 0.53212 0.0
H3956 H 0.73669 0.03162 0.52385 0.0
S3957 S 0.67589 0.93367 0.51085 0.0
N3958 N 0.70326 0.93455 0.51904 0.0
N3959 N 0.6749 0.963 0.50866 0.0
C3960 C 0.69747 0.97509 0.51494 0.0
C3961 C 0.71299 0.95951 0.52025 0.0
C3962 C 0.35068 0.41675 0.76004 0.0
C3963 C 0.37313 0.42894 0.77196 0.0
C3964 C 0.33997 0.39097 0.76063 0.0
C3965 C 0.35096 0.3754 0.773 0.0
H3966 H 0.34101 0.42735 0.75035 0.0
H3967 H 0.32286 0.38314 0.75098 0.0
S3968 S 0.41102 0.39666 0.80485 0.0
N3969 N 0.40654 0.42206 0.79506 0.0
N3970 N 0.38697 0.37455 0.79592 0.0
C3971 C 0.37374 0.38717 0.78428 0.0
C3972 C 0.38455 0.41345 0.78387 0.0
C3973 C 0.29267 0.69488 0.29728 0.0
C3974 C 0.27315 0.68433 0.27969 0.0
C3975 C 0.30339 0.72077 0.30143 0.0
C3976 C 0.2956 0.73687 0.28746 0.0
H3977 H 0.30014 0.683 0.30758 0.0
H3978 H 0.3184 0.72808 0.31505 0.0
S3979 S 0.24307 0.72043 0.24258 0.0
N3980 N 0.24453 0.69342 0.251 0.0
N3981 N 0.26571 0.74172 0.25787 0.0
C3982 C 0.2756 0.7271 0.27072 0.0
C3983 C 0.26423 0.70088 0.26694 0.0
C3984 C 0.54674 0.64346 0.50607 0.0
C3985 C 0.54663 0.64819 0.48145 0.0
C3986 C 0.55026 0.62004 0.51185 0.0
C3987 C 0.55438 0.60024 0.49342 0.0
H3988 H 0.54354 0.65776 0.52099 0.0
H3989 H 0.54943 0.61735 0.53085 0.0
S3990 S 0.55824 0.60342 0.42667 0.0
N3991 N 0.55257 0.63093 0.43901 0.0
N3992 N 0.5592 0.58799 0.44967 0.0
C3993 C 0.55481 0.60507 0.46899 0.0
C3994 C 0.55109 0.62862 0.46311 0.0
C3995 C 0.74017 0.31047 0.6918 0.0
C3996 C 0.72045 0.31654 0.70231 0.0
C3997 C 0.75938 0.30737 0.70653 0.0
C3998 C 0.76006 0.30997 0.73267 0.0
H3999 H 0.74099 0.30843 0.6719 0.0
H4000 H 0.77401 0.30339 0.69723 0.0
S4001 S 0.71241 0.3243 0.76971 0.0
N4002 N 0.70266 0.32397 0.74083 0.0
N4003 N 0.73843 0.31846 0.76823 0.0
C4004 C 0.74039 0.31596 0.74344 0.0
C4005 C 0.7208 0.31911 0.72842 0.0
C4006 C 0.05009 0.4378 0.97575 0.0
C4007 C 0.05073 0.4238 0.99482 0.0
C4008 C 0.05546 0.46465 0.98075 0.0
C4009 C 0.06141 0.47925 1.00514 0.0
H4010 H 0.04618 0.42795 0.95648 0.0
H4011 H 0.0554 0.47415 0.96511 0.0
S4012 S 0.06454 0.45263 0.06235 0.0
N4013 N 0.05694 0.42719 0.03967 0.0
N4014 N 0.06719 0.47746 0.04884 0.0
C4015 C 0.06159 0.4657 0.02459 0.0
C4016 C 0.05625 0.43816 0.01949 0.0
C4017 C 0.9824 0.79715 0.19297 0.0
C4018 C 1.00461 0.81221 0.20249 0.0
C4019 C 0.96424 0.7936 0.20828 0.0
C4020 C 0.96757 0.80471 0.23384 0.0
H4021 H 0.97907 0.7878 0.17352 0.0
H4022 H 0.94774 0.78127 0.20024 0.0
S4023 S 0.02187 0.84669 0.26797 0.0
N4024 N 0.02844 0.83885 0.23923 0.0
N4025 N 0.99445 0.83248 0.26768 0.0
C4026 C 0.98943 0.82041 0.24341 0.0
C4027 C 1.00786 0.82409 0.22787 0.0
C4028 C 0.54762 0.4051 0.10658 0.0
C4029 C 0.54335 0.37841 0.10061 0.0
C4030 C 0.55856 0.41992 0.09052 0.0
C4031 C 0.56601 0.40845 0.06835 0.0
H4032 H 0.54247 0.41454 0.12374 0.0
H4033 H 0.56164 0.44043 0.09567 0.0
S4034 S 0.55905 0.33944 0.04437 0.0
N4035 N 0.54731 0.34123 0.07094 0.0
N4036 N 0.56815 0.36909 0.04107 0.0
C4037 C 0.5618 0.38186 0.06219 0.0
C4038 C 0.55039 0.36682 0.07825 0.0
C4039 C 1.0077 0.35982 0.31535 0.0
C4040 C 0.01226 0.33594 0.3057 0.0
C4041 C 0.98739 0.36633 0.30747 0.0
C4042 C 0.97065 0.34909 0.28994 0.0
H4043 H 0.01971 0.37351 0.32955 0.0
H4044 H 0.98446 0.38475 0.31568 0.0
S4045 S 0.97423 0.2847 0.25801 0.0
N4046 N 0.99857 0.29545 0.27667 0.0
N4047 N 0.95987 0.3075 0.26255 0.0
C4048 C 0.97485 0.32523 0.28 0.0
C4049 C 0.99575 0.31868 0.28775 0.0
C4050 C 0.02635 0.64573 0.5811 0.0
C4051 C 0.04 0.66016 0.6028 0.0
C4052 C 0.03256 0.62452 0.56736 0.0
C4053 C 0.05292 0.61722 0.57446 0.0
H4054 H 0.01101 0.65114 0.57436 0.0
H4055 H 0.02129 0.61396 0.55093 0.0
S4056 S 0.09287 0.64697 0.63198 0.0
N4057 N 0.07313 0.66402 0.63259 0.0
N4058 N 0.08563 0.62517 0.60612 0.0
C4059 C 0.06624 0.63103 0.59675 0.0
C4060 C 0.05961 0.65227 0.61101 0.0
C4061 C 0.73582 0.83704 0.80561 0.0
C4062 C 0.7301 0.8314 0.8288 0.0
C4063 C 0.75697 0.83406 0.79678 0.0
C4064 C 0.77269 0.82471 0.81061 0.0
H4065 H 0.7238 0.84358 0.79417 0.0
H4066 H 0.76094 0.83876 0.77896 0.0
S4067 S 0.76706 0.80964 0.87329 0.0
N4068 N 0.74262 0.81752 0.86592 0.0
N4069 N 0.78241 0.81257 0.84951 0.0
C4070 C 0.7677 0.82025 0.83424 0.0
C4071 C 0.74629 0.82323 0.84322 0.0
C4072 C 0.50005 0.55541 0.61888 0.0
C4073 C 0.5124 0.56138 0.64316 0.0
C4074 C 0.51102 0.55264 0.59608 0.0
C4075 C 0.53537 0.55569 0.59542 0.0
H4076 H 0.48146 0.55309 0.61731 0.0
H4077 H 0.50011 0.54825 0.57861 0.0
S4078 S 0.57613 0.56731 0.65282 0.0
N4079 N 0.55101 0.56755 0.66392 0.0
N4080 N 0.5709 0.56242 0.62224 0.0
C4081 C 0.54782 0.56086 0.61945 0.0
C4082 C 0.53669 0.56366 0.64267 0.0
C4083 C 0.78536 0.24761 0.92083 0.0
C4084 C 0.78809 0.22254 0.91822 0.0
C4085 C 0.77626 0.2561 0.9007 0.0
C4086 C 0.76928 0.2397 0.87734 0.0
H4087 H 0.78978 0.26055 0.93874 0.0
H4088 H 0.77393 0.27541 0.90368 0.0
S4089 S 0.77342 0.17236 0.86099 0.0
N4090 N 0.78365 0.18152 0.89064 0.0
N4091 N 0.76655 0.19745 0.85259 0.0
C4092 C 0.77245 0.21472 0.87437 0.0
C4093 C 0.78192 0.20617 0.89485 0.0
C4094 C 0.14569 0.54847 0.11863 0.0
C4095 C 0.13704 0.53388 0.13591 0.0
C4096 C 0.13123 0.55182 0.09919 0.0
C4097 C 0.10741 0.54032 0.09567 0.0
H4098 H 0.16388 0.55759 0.12017 0.0
H4099 H 0.13906 0.56365 0.08685 0.0
S4100 S 0.07617 0.49888 0.13491 0.0
N4101 N 0.10305 0.50749 0.14821 0.0
N4102 N 0.07606 0.51245 0.11047 0.0
C4103 C 0.09857 0.52491 0.11229 0.0
C4104 C 0.11332 0.52194 0.1326 0.0
C4105 C 0.82897 0.85083 0.3823 0.0
C4106 C 0.82671 0.83106 0.39575 0.0
C4107 C 0.82638 0.84591 0.35612 0.0
C4108 C 0.82185 0.82101 0.34182 0.0
H4109 H 0.83209 0.87041 0.39211 0.0
H4110 H 0.8277 0.86191 0.34689 0.0
S4111 S 0.8148 0.76218 0.36736 0.0
N4112 N 0.82008 0.78527 0.39239 0.0
N4113 N 0.81504 0.77614 0.34314 0.0
C4114 C 0.81982 0.80094 0.35482 0.0
C4115 C 0.8223 0.80594 0.3817 0.0
C4116 C 0.53778 0.56369 0.91649 0.0
C4117 C 0.51368 0.56204 0.91035 0.0
C4118 C 0.54736 0.56027 0.94025 0.0
C4119 C 0.53347 0.55445 0.95957 0.0
H4120 H 0.54964 0.56836 0.90298 0.0
H4121 H 0.56589 0.56272 0.9436 0.0
S4122 S 0.46925 0.5447 0.95307 0.0
N4123 N 0.4764 0.55184 0.92624 0.0
N4124 N 0.49375 0.54562 0.96935 0.0
C4125 C 0.50942 0.55196 0.95325 0.0
C4126 C 0.49978 0.55556 0.92937 0.0
C4127 C 0.82184 0.26132 0.15797 0.0
C4128 C 0.81043 0.23554 0.15081 0.0
C4129 C 0.82009 0.2755 0.18146 0.0
C4130 C 0.8074 0.2643 0.19897 0.0
H4131 H 0.83269 0.27048 0.14558 0.0
H4132 H 0.82922 0.29522 0.18605 0.0
S4133 S 0.77012 0.19893 0.18709 0.0
N4134 N 0.78271 0.20064 0.16132 0.0
N4135 N 0.78009 0.22687 0.20574 0.0
C4136 C 0.79449 0.23904 0.19126 0.0
C4137 C 0.79598 0.22474 0.16721 0.0
C4138 C 0.11296 0.58163 0.36031 0.0
C4139 C 0.10759 0.56405 0.33754 0.0
C4140 C 0.09644 0.58369 0.37709 0.0
C4141 C 0.07396 0.5682 0.37178 0.0
H4142 H 0.13038 0.59302 0.36579 0.0
H4143 H 0.10158 0.59674 0.39486 0.0
S4144 S 0.05037 0.52137 0.3135 0.0
N4145 N 0.07756 0.53281 0.30937 0.0
N4146 N 0.04658 0.53617 0.34145 0.0
C4147 C 0.06792 0.55163 0.3485 0.0
C4148 C 0.08476 0.5496 0.33129 0.0
C4149 C 0.79958 0.82521 0.66607 0.0
C4150 C 0.82072 0.8362 0.65785 0.0
C4151 C 0.79849 0.8181 0.68958 0.0
C4152 C 0.81847 0.82133 0.70625 0.0
H4153 H 0.7836 0.82181 0.65412 0.0
H4154 H 0.78166 0.81006 0.69469 0.0
S4155 S 0.87806 0.85171 0.69507 0.0
N4156 N 0.86203 0.85179 0.66951 0.0
N4157 N 0.86006 0.83818 0.71293 0.0
C4158 C 0.83965 0.83292 0.69847 0.0
C4159 C 0.84076 0.84026 0.67457 0.0
C4160 C 0.74232 0.52648 0.49842 0.0
C4161 C 0.74927 0.51939 0.52055 0.0
C4162 C 0.7251 0.54031 0.49762 0.0
C4163 C 0.71416 0.54754 0.51891 0.0
H4164 H 0.75046 0.5216 0.48164 0.0
H4165 H 0.72019 0.5452 0.48013 0.0
S4166 S 0.72587 0.53338 0.58142 0.0
N4167 N 0.7433 0.51989 0.56406 0.0
N4168 N 0.71183 0.54692 0.5629 0.0
C4169 C 0.72096 0.54056 0.54116 0.0
C4170 C 0.7383 0.52627 0.5419 0.0
C4171 C 0.16954 0.11443 0.53174 0.0
C4172 C 0.17997 0.11141 0.50935 0.0
C4173 C 0.14695 0.10103 0.53332 0.0
C4174 C 0.13376 0.08376 0.51265 0.0
H4175 H 0.17882 0.12757 0.5482 0.0
H4176 H 0.13988 0.10415 0.55102 0.0
S4177 S 0.15271 0.06915 0.44947 0.0
N4178 N 0.1752 0.08975 0.46595 0.0
N4179 N 0.13267 0.065 0.46878 0.0
C4180 C 0.1439 0.0806 0.49009 0.0
C4181 C 0.16694 0.09433 0.48846 0.0
C4182 C 0.26479 0.88181 0.75393 0.0
C4183 C 0.25923 0.89829 0.77509 0.0
C4184 C 0.27591 0.86086 0.75563 0.0
C4185 C 0.28268 0.85469 0.77873 0.0
H4186 H 0.25994 0.88462 0.73552 0.0
H4187 H 0.27864 0.84901 0.73853 0.0
S4188 S 0.27578 0.89276 0.84029 0.0
N4189 N 0.26446 0.90707 0.82033 0.0
N4190 N 0.2841 0.86888 0.82331 0.0
C4191 C 0.27797 0.87148 0.79984 0.0
C4192 C 0.26681 0.89266 0.79816 0.0
C4193 C 0.48158 0.98507 0.0415 0.0
C4194 C 0.46743 1.00272 0.04301 0.0
C4195 C 0.50562 0.99293 0.04197 0.0
C4196 C 0.51623 0.01862 0.04345 0.0
H4197 H 0.47399 0.96501 0.0398 0.0
H4198 H 0.51591 0.97876 0.04047 0.0
S4199 S 0.48723 0.07263 0.05095 0.0
N4200 N 0.46594 0.04718 0.04773 0.0
N4201 N 0.51115 0.06198 0.04973 0.0
C4202 C 0.50243 0.03657 0.04632 0.0
C4203 C 0.47798 0.0286 0.04574 0.0
C4204 C 0.84968 0.65299 0.78463 0.0
C4205 C 0.86059 0.6495 0.80678 0.0
C4206 C 0.83222 0.66643 0.78508 0.0
C4207 C 0.82521 0.67744 0.80771 0.0
H4208 H 0.85416 0.64456 0.76669 0.0
H4209 H 0.82349 0.66718 0.76743 0.0
S4210 S 0.85041 0.67705 0.87108 0.0
N4211 N 0.86413 0.6597 0.85216 0.0
N4212 N 0.83246 0.68672 0.8529 0.0
C4213 C 0.83709 0.67575 0.83006 0.0
C4214 C 0.85455 0.66147 0.82963 0.0
C4215 C 0.90223 0.61313 0.05005 0.0
C4216 C 0.90021 0.62104 0.02718 0.0
C4217 C 0.9179 0.59829 0.05481 0.0
C4218 C 0.93233 0.59051 0.03692 0.0
H4219 H 0.89147 0.61837 0.06444 0.0
H4220 H 0.91854 0.5926 0.07267 0.0
S4221 S 0.93385 0.60587 0.97388 0.0
N4222 N 0.9142 0.62001 0.9864 0.0
N4223 N 0.94354 0.59201 0.9953 0.0
C4224 C 0.9309 0.59873 0.01414 0.0
C4225 C 0.9149 0.61396 0.00929 0.0
C4226 C 0.28466 0.17134 0.7726 0.0
C4227 C 0.26184 0.16424 0.77918 0.0
C4228 C 0.2959 0.19715 0.77293 0.0
C4229 C 0.28497 0.21767 0.77938 0.0
H4230 H 0.29417 0.15676 0.76736 0.0
H4231 H 0.31328 0.20091 0.76756 0.0
S4232 S 0.22483 0.21007 0.79711 0.0
N4233 N 0.22865 0.18073 0.79182 0.0
N4234 N 0.24928 0.22831 0.7921 0.0
C4235 C 0.26203 0.2108 0.78564 0.0
C4236 C 0.25071 0.18458 0.78568 0.0
C4237 C 0.35132 0.90255 0.25437 0.0
C4238 C 0.37055 0.91199 0.2725 0.0
C4239 C 0.33971 0.8769 0.24951 0.0
C4240 C 0.34635 0.85996 0.26321 0.0
H4241 H 0.34479 0.91513 0.24418 0.0
H4242 H 0.32497 0.87043 0.23548 0.0
S4243 S 0.39746 0.87358 0.30975 0.0
N4244 N 0.39742 0.90113 0.30181 0.0
N4245 N 0.37474 0.85325 0.29343 0.0
C4246 C 0.366 0.86869 0.28061 0.0
C4247 C 0.3782 0.89467 0.2852 0.0
C4248 C 0.59003 0.44743 0.54105 0.0
C4249 C 0.59032 0.44289 0.56573 0.0
C4250 C 0.58621 0.47066 0.53508 0.0
C4251 C 0.5819 0.49046 0.55339 0.0
H4252 H 0.59332 0.4331 0.5262 0.0
H4253 H 0.58692 0.47321 0.51603 0.0
S4254 S 0.57858 0.48781 0.62032 0.0
N4255 N 0.58452 0.46039 0.60816 0.0
N4256 N 0.57722 0.50296 0.59715 0.0
C4257 C 0.58169 0.48584 0.57791 0.0
C4258 C 0.58577 0.4625 0.58398 0.0
C4259 C 0.41922 0.78531 0.32579 0.0
C4260 C 0.4171 0.77936 0.34969 0.0
C4261 C 0.40031 0.78933 0.31126 0.0
C4262 C 0.3783 0.78788 0.31992 0.0
H4263 H 0.43578 0.78729 0.31831 0.0
H4264 H 0.40307 0.79405 0.2932 0.0
S4265 S 0.36222 0.76961 0.37945 0.0
N4266 N 0.39008 0.76999 0.38005 0.0
N4267 N 0.35508 0.7777 0.35303 0.0
C4268 C 0.37574 0.78134 0.34341 0.0
C4269 C 0.39491 0.77709 0.35816 0.0
C4270 C 0.0878 0.65968 0.04035 0.0
C4271 C 0.09389 0.67531 0.06445 0.0
C4272 C 0.08345 0.63266 0.03645 0.0
C4273 C 0.0848 0.62002 0.05651 0.0
H4274 H 0.08615 0.66838 0.02437 0.0
H4275 H 0.07813 0.62161 0.01775 0.0
S4276 S 0.09975 0.65143 0.12312 0.0
N4277 N 0.10085 0.6753 0.10853 0.0
N4278 N 0.09284 0.62539 0.10121 0.0
C4279 C 0.09116 0.63542 0.08048 0.0
C4280 C 0.09569 0.66269 0.08444 0.0
C4281 C 0.15571 0.2994 0.86068 0.0
C4282 C 0.13282 0.28695 0.85079 0.0
C4283 C 0.17371 0.30321 0.8452 0.0
C4284 C 0.16955 0.29497 0.81914 0.0
H4285 H 0.15973 0.3064 0.88057 0.0
H4286 H 0.19084 0.31343 0.85363 0.0
S4287 S 0.11307 0.26067 0.78379 0.0
N4288 N 0.10733 0.2661 0.81306 0.0
N4289 N 0.14101 0.27269 0.78431 0.0
C4290 C 0.14691 0.28194 0.80912 0.0
C4291 C 0.12864 0.27807 0.8248 0.0
C4292 C 0.59726 0.73618 0.98404 0.0
C4293 C 0.58462 0.72703 0.96042 0.0
C4294 C 0.59272 0.72332 1.00369 0.0
C4295 C 0.57552 0.70073 1.00035 0.0
H4296 H 0.61064 0.75355 0.98744 0.0
H4297 H 0.60306 0.73085 0.02147 0.0
S4298 S 0.5374 0.66899 0.94219 0.0
N4299 N 0.55415 0.69408 0.93483 0.0
N4300 N 0.54542 0.67006 0.97176 0.0
C4301 C 0.56264 0.6915 0.97687 0.0
C4302 C 0.56721 0.70463 0.95692 0.0
C4303 C 0.14553 0.79113 0.76977 0.0
C4304 C 0.12437 0.77378 0.76091 0.0
C4305 C 0.1651 0.78275 0.77705 0.0
C4306 C 0.16423 0.75671 0.77561 0.0
H4307 H 0.14703 0.81129 0.77076 0.0
H4308 H 0.18111 0.79673 0.78362 0.0
S4309 S 0.11329 0.70354 0.75232 0.0
N4310 N 0.10387 0.72936 0.75036 0.0
N4311 N 0.14064 0.71363 0.76398 0.0
C4312 C 0.14312 0.7392 0.76697 0.0
C4313 C 0.1232 0.74773 0.75962 0.0
C4314 C 0.10256 0.4521 0.48618 0.0
C4315 C 0.10634 0.45255 0.46124 0.0
C4316 C 0.09485 0.47172 0.5008 0.0
C4317 C 0.09075 0.4924 0.49099 0.0
H4318 H 0.10508 0.43619 0.49427 0.0
H4319 H 0.0916 0.47036 0.51969 0.0
S4320 S 0.09951 0.50336 0.42726 0.0
N4321 N 0.10628 0.47577 0.42758 0.0
N4322 N 0.09202 0.51286 0.45529 0.0
C4323 C 0.09469 0.49323 0.46618 0.0
C4324 C 0.10248 0.47324 0.45125 0.0
C4325 C 0.38683 0.2778 0.228 0.0
C4326 C 0.40303 0.26561 0.23737 0.0
C4327 C 0.36644 0.27898 0.23892 0.0
C4328 C 0.36112 0.2676 0.25935 0.0
H4329 H 0.38984 0.28656 0.21201 0.0
H4330 H 0.35469 0.28873 0.23108 0.0
S4331 S 0.39697 0.23303 0.29108 0.0
N4332 N 0.41222 0.24215 0.26886 0.0
N4333 N 0.37282 0.24299 0.28819 0.0
C4334 C 0.37646 0.25441 0.26837 0.0
C4335 C 0.3977 0.25381 0.25773 0.0
C4336 C 0.6348 0.53524 0.42637 0.0
C4337 C 0.62234 0.53092 0.40231 0.0
C4338 C 0.62412 0.53785 0.44936 0.0
C4339 C 0.59992 0.53575 0.45039 0.0
H4340 H 0.65332 0.53707 0.42763 0.0
H4341 H 0.63512 0.5413 0.46667 0.0
S4342 S 0.55855 0.52515 0.39365 0.0
N4343 N 0.58351 0.52496 0.38213 0.0
N4344 N 0.56419 0.53 0.42417 0.0
C4345 C 0.58729 0.53157 0.42658 0.0
C4346 C 0.59815 0.52918 0.40319 0.0
C4347 C 0.36293 0.88391 0.14842 0.0
C4348 C 0.34613 0.8688 0.12941 0.0
C4349 C 0.37348 0.87308 0.16583 0.0
C4350 C 0.36766 0.84673 0.1649 0.0
H4351 H 0.36867 0.90415 0.14925 0.0
H4352 H 0.38659 0.8854 0.1799 0.0
S4353 S 0.32337 0.79913 0.11995 0.0
N4354 N 0.32291 0.82648 0.11175 0.0
N4355 N 0.34323 0.8059 0.14404 0.0
C4356 C 0.35025 0.83152 0.14656 0.0
C4357 C 0.33942 0.8426 0.12889 0.0
C4358 C 0.02801 0.58592 0.94159 0.0
C4359 C 0.01063 0.5657 0.92789 0.0
C4360 C 0.04314 0.58191 0.96026 0.0
C4361 C 0.04121 0.5576 0.96569 0.0
H4362 H 0.02952 0.60501 0.9383 0.0
H4363 H 0.0557 0.59805 0.97118 0.0
S4364 S 1.00133 0.49781 0.93251 0.0
N4365 N 0.99426 0.52009 0.91917 0.0
N4366 N 0.02268 0.51271 0.95423 0.0
C4367 C 0.0248 0.53709 0.95128 0.0
C4368 C 1.00946 0.54111 0.93238 0.0
C4369 C 0.31351 0.28305 0.66949 0.0
C4370 C 0.3078 0.25796 0.65532 0.0
C4371 C 0.31556 0.28797 0.69588 0.0
C4372 C 0.31227 0.26796 0.70905 0.0
H4373 H 0.31649 0.29897 0.66011 0.0
H4374 H 0.32041 0.30749 0.706 0.0
S4375 S 0.29749 0.19905 0.68099 0.0
N4376 N 0.29897 0.21307 0.6568 0.0
N4377 N 0.30319 0.22224 0.70586 0.0
C4378 C 0.30659 0.24292 0.69506 0.0
C4379 C 0.30418 0.23794 0.66841 0.0
C4380 C 0.59911 0.52761 0.12557 0.0
C4381 C 0.62337 0.53117 0.13257 0.0
C4382 C 0.58958 0.5305 0.10155 0.0
C4383 C 0.60357 0.53686 0.08246 0.0
H4384 H 0.58716 0.52253 0.13887 0.0
H4385 H 0.57099 0.52699 0.09775 0.0
S4386 S 0.66783 0.54773 0.08959 0.0
N4387 N 0.66068 0.54128 0.11666 0.0
N4388 N 0.64332 0.54634 0.07307 0.0
C4389 C 0.62766 0.5404 0.08927 0.0
C4390 C 0.63731 0.53778 0.11358 0.0
C4391 C 0.32019 0.83621 0.89384 0.0
C4392 C 0.33227 0.86174 0.89999 0.0
C4393 C 0.31964 0.82168 0.86992 0.0
C4394 C 0.33054 0.83235 0.851 0.0
H4395 H 0.31115 0.82739 0.90766 0.0
H4396 H 0.31029 0.80204 0.86622 0.0
S4397 S 0.36595 0.8983 0.85864 0.0
N4398 N 0.35654 0.89688 0.88612 0.0
N4399 N 0.35544 0.86986 0.84108 0.0
C4400 C 0.34347 0.85773 0.85736 0.0
C4401 C 0.34424 0.87238 0.88183 0.0
C4402 C 0.05068 0.56844 0.72703 0.0
C4403 C 0.03221 0.54705 0.72409 0.0
C4404 C 0.06896 0.56834 0.71214 0.0
C4405 C 0.06908 0.54694 0.69378 0.0
H4406 H 0.05072 0.5855 0.74057 0.0
H4407 H 0.08238 0.58553 0.71405 0.0
S4408 S 0.02521 0.48601 0.67932 0.0
N4409 N 0.01556 0.50369 0.70219 0.0
N4410 N 0.04984 0.50365 0.67395 0.0
C4411 C 0.05114 0.52518 0.69125 0.0
C4412 C 0.03268 0.52519 0.70651 0.0
C4413 C 0.29635 0.25073 0.37857 0.0
C4414 C 0.31646 0.25348 0.39461 0.0
C4415 C 0.29737 0.25786 0.35518 0.0
C4416 C 0.31838 0.26908 0.34685 0.0
H4417 H 0.27963 0.24268 0.38401 0.0
H4418 H 0.28127 0.25506 0.34382 0.0
S4419 S 0.37632 0.2795 0.38174 0.0
N4420 N 0.35827 0.26695 0.40017 0.0
N4421 N 0.3601 0.28153 0.35703 0.0
C4422 C 0.33868 0.27183 0.36285 0.0
C4423 C 0.33771 0.26378 0.38641 0.0
C4424 C 0.39614 0.55809 0.50565 0.0
C4425 C 0.38839 0.56966 0.52754 0.0
C4426 C 0.41271 0.54353 0.50664 0.0
C4427 C 0.4219 0.53982 0.52953 0.0
H4428 H 0.38977 0.56082 0.48767 0.0
H4429 H 0.41847 0.5352 0.48936 0.0
S4430 S 0.40656 0.5652 0.5921 0.0
N4431 N 0.39045 0.57576 0.57269 0.0
N4432 N 0.42177 0.54846 0.57455 0.0
C4433 C 0.41392 0.55081 0.55153 0.0
C4434 C 0.39715 0.56577 0.55053 0.0
C4435 C 0.96421 1.00066 0.55454 0.0
C4436 C 0.95478 0.97631 0.53986 0.0
C4437 C 0.98635 0.0146 0.55163 0.0
C4438 C 0.99982 1.00511 0.53347 0.0
H4439 H 0.95451 1.00889 0.56863 0.0
H4440 H 0.99286 0.03298 0.56372 0.0
S4441 S 0.98291 0.94207 0.49026 0.0
N4442 N 0.96065 0.94325 0.50658 0.0
N4443 N 1.0019 0.96914 0.50098 0.0
C4444 C 0.99052 0.98064 0.51877 0.0
C4445 C 0.96814 0.96639 0.52195 0.0
C4446 C 0.86835 0.21051 0.2955 0.0
C4447 C 0.87387 0.19445 0.27402 0.0
C4448 C 0.85709 0.23146 0.29437 0.0
C4449 C 0.85054 0.23837 0.27159 0.0
H4450 H 0.87281 0.20693 0.31371 0.0
H4451 H 0.85413 0.24276 0.31169 0.0
S4452 S 0.8608 0.20414 0.2095 0.0
N4453 N 0.87132 0.18871 0.22892 0.0
N4454 N 0.851 0.22659 0.22696 0.0
C4455 C 0.85591 0.22251 0.25017 0.0
C4456 C 0.86709 0.20123 0.25127 0.0
C4457 C 0.66138 0.07497 0.01205 0.0
C4458 C 0.67306 0.10053 0.01478 0.0
C4459 C 0.63731 0.06822 0.0116 0.0
C4460 C 0.62416 0.08678 0.01427 0.0
H4461 H 0.67087 0.06005 0.00997 0.0
H4462 H 0.62895 0.04835 0.00886 0.0
S4463 S 0.64625 0.15627 0.02249 0.0
N4464 N 0.66961 0.14456 0.02065 0.0
N4465 N 0.62419 0.13154 0.0193 0.0
C4466 C 0.63547 0.11229 0.0165 0.0
C4467 C 0.65999 0.11927 0.01709 0.0
C4468 C 0.26641 0.45318 0.3322 0.0
C4469 C 0.26305 0.45028 0.30619 0.0
C4470 C 0.27579 0.43592 0.34315 0.0
C4471 C 0.28198 0.41498 0.32848 0.0
H4472 H 0.26184 0.469 0.34417 0.0
H4473 H 0.27833 0.43911 0.36328 0.0
S4474 S 0.2749 0.39812 0.25936 0.0
N4475 N 0.2657 0.42465 0.26598 0.0
N4476 N 0.28303 0.3919 0.2864 0.0
C4477 C 0.27849 0.41184 0.30236 0.0
C4478 C 0.26909 0.42955 0.29126 0.0
C4479 C 0.25152 0.49816 0.02458 0.0
C4480 C 0.24353 0.47331 0.02857 0.0
C4481 C 0.23619 0.51324 0.01946 0.0
C4482 C 0.212 0.50421 0.01772 0.0
H4483 H 0.26985 0.50597 0.02478 0.0
H4484 H 0.24347 0.53218 0.01659 0.0
S4485 S 0.18185 0.44091 0.02786 0.0
N4486 N 0.20957 0.441 0.03212 0.0
N4487 N 0.18081 0.46867 0.02096 0.0
C4488 C 0.2037 0.47956 0.02214 0.0
C4489 C 0.21938 0.46429 0.02779 0.0
C4490 C 0.84888 0.91748 0.26094 0.0
C4491 C 0.87267 0.92799 0.2689 0.0
C4492 C 0.83803 0.89163 0.26101 0.0
C4493 C 0.85002 0.87452 0.26951 0.0
H4494 H 0.83848 0.92924 0.2541 0.0
H4495 H 0.81995 0.88503 0.25413 0.0
S4496 S 0.91253 0.89223 0.29346 0.0
N4497 N 0.90765 0.91862 0.28619 0.0
N4498 N 0.88768 0.87109 0.28651 0.0
C4499 C 0.87382 0.88491 0.27769 0.0
C4500 C 0.88491 0.91112 0.27736 0.0
C4501 C 0.76629 0.20516 0.76201 0.0
C4502 C 0.77287 0.18751 0.77497 0.0
C4503 C 0.77782 0.23081 0.76775 0.0
C4504 C 0.79621 0.23962 0.78672 0.0
H4505 H 0.75188 0.19924 0.74757 0.0
H4506 H 0.77212 0.24386 0.75751 0.0
S4507 S 0.82104 0.20145 0.82544 0.0
N4508 N 0.80001 0.1807 0.80674 0.0
N4509 N 0.82062 0.22932 0.81846 0.0
C4510 C 0.8028 0.22245 0.80008 0.0
C4511 C 0.79148 0.19623 0.79387 0.0
loop_
_geom_bond_atom_site_label_1
_geom_bond_atom_site_label_2
_geom_bond_distance
_geom_bond_site_symmetry_2
_ccdc_geom_bond_type
Li0 N17 1.990 . S
Li0 O60 1.956 . S
Li0 O61 1.970 . S
Li0 O62 1.961 . S
Li1 N25 1.990 . S
Li1 O60 1.970 . S
Li1 O61 1.956 . S
Li1 O63 1.961 . S
Li2 N47 1.990 . S
Li2 O60 1.961 . S
Li2 O62 1.956 . S
Li2 O63 1.970 . S
Li3 N53 1.990 . S
Li3 O61 1.961 . S
Li3 O62 1.970 . S
Li3 O63 1.956 . S
C4 C6 1.348 . S
C4 C7 1.356 . S
C4 O60 1.325 . S
N5 C8 1.314 . S
N5 C9 1.279 . S
C6 C4 1.348 . S
C6 C8 1.353 . S
C6 H64 0.929 . S
C7 C4 1.356 . S
C7 C9 1.358 . S
C7 H65 0.930 . S
C8 N5 1.314 . S
C8 C6 1.353 . S
C8 H66 0.930 . S
C9 N5 1.279 . S
C9 C7 1.358 . S
C9 H67 0.930 . S
C10 C13 1.348 . S
C10 C14 1.356 . S
C10 O61 1.325 . S
C11 N12 1.279 . S
C11 C14 1.358 . S
C11 H68 0.930 . S
N12 C11 1.279 . S
N12 C15 1.314 . S
C13 C10 1.348 . S
C13 C15 1.353 . S
C13 H69 0.929 . S
C14 C10 1.356 . S
C14 C11 1.358 . S
C14 H70 0.930 . S
C15 N12 1.314 . S
C15 C13 1.353 . S
C15 H71 0.930 . S
C16 N17 1.314 . S
C16 C21 1.353 . S
C16 H22 0.930 . S
N17 Li0 1.990 . S
N17 C16 1.314 . S
N17 C19 1.279 . S
C18 C19 1.358 . S
C18 C20 1.356 . S
C18 H72 0.930 . S
C19 N17 1.279 . S
C19 C18 1.358 . S
C19 H23 0.930 . S
C20 C18 1.356 . S
C20 C21 1.348 . S
C21 C16 1.353 . S
C21 C20 1.348 . S
C21 H73 0.929 . S
H22 C16 0.930 . S
H23 C19 0.930 . S
C24 N25 1.314 . S
C24 C26 1.353 . S
C24 H30 0.930 . S
N25 Li1 1.990 . S
N25 C24 1.314 . S
N25 C28 1.279 . S
C26 C24 1.353 . S
C26 C29 1.348 . S
C26 H74 0.929 . S
C27 C28 1.358 . S
C27 C29 1.356 . S
C27 H75 0.930 . S
C28 N25 1.279 . S
C28 C27 1.358 . S
C28 H31 0.930 . S
C29 C26 1.348 . S
C29 C27 1.356 . S
H30 C24 0.930 . S
H31 C28 0.930 . S
C32 C34 1.348 . S
C32 C35 1.356 . S
C32 O62 1.325 . S
N33 C36 1.314 . S
N33 C37 1.279 . S
C34 C32 1.348 . S
C34 C36 1.353 . S
C34 H76 0.929 . S
C35 C32 1.356 . S
C35 C37 1.358 . S
C35 H77 0.930 . S
C36 N33 1.314 . S
C36 C34 1.353 . S
C36 H78 0.930 . S
C37 N33 1.279 . S
C37 C35 1.358 . S
C37 H79 0.930 . S
C38 C39 1.348 . S
C38 C40 1.356 . S
C38 O63 1.325 . S
C39 C38 1.348 . S
C39 C41 1.353 . S
C39 H80 0.929 . S
C40 C38 1.356 . S
C40 C42 1.358 . S
C40 H81 0.930 . S
C41 C39 1.353 . S
C41 N43 1.314 . S
C41 H82 0.930 . S
C42 C40 1.358 . S
C42 N43 1.279 . S
C42 H83 0.930 . S
N43 C41 1.314 . S
N43 C42 1.279 . S
C44 C46 1.353 . S
C44 N47 1.314 . S
C44 H50 0.930 . S
C45 N47 1.279 . S
C45 C48 1.358 . S
C45 H51 0.930 . S
C46 C44 1.353 . S
C46 C49 1.348 . S
C46 H84 0.929 . S
N47 Li2 1.990 . S
N47 C44 1.314 . S
N47 C45 1.279 . S
C48 C45 1.358 . S
C48 C49 1.356 . S
C48 H85 0.930 . S
C49 C46 1.348 . S
C49 C48 1.356 . S
H50 C44 0.930 . S
H51 C45 0.930 . S
C52 N53 1.314 . S
C52 C54 1.353 . S
C52 H58 0.930 . S
N53 Li3 1.990 . S
N53 C52 1.314 . S
N53 C56 1.279 . S
C54 C52 1.353 . S
C54 C57 1.348 . S
C54 H86 0.929 . S
C55 C56 1.358 . S
C55 C57 1.356 . S
C55 H87 0.930 . S
C56 N53 1.279 . S
C56 C55 1.358 . S
C56 H59 0.930 . S
C57 C54 1.348 . S
C57 C55 1.356 . S
H58 C52 0.930 . S
H59 C56 0.930 . S
O60 Li0 1.956 . S
O60 Li1 1.970 . S
O60 Li2 1.961 . S
O60 C4 1.325 . S
O61 Li0 1.970 . S
O61 Li1 1.956 . S
O61 Li3 1.961 . S
O61 C10 1.325 . S
O62 Li0 1.961 . S
O62 Li2 1.956 . S
O62 Li3 1.970 . S
O62 C32 1.325 . S
O63 Li1 1.961 . S
O63 Li2 1.970 . S
O63 Li3 1.956 . S
O63 C38 1.325 . S
H64 C6 0.929 . S
H65 C7 0.930 . S
H66 C8 0.930 . S
H67 C9 0.930 . S
H68 C11 0.930 . S
H69 C13 0.929 . S
H70 C14 0.930 . S
H71 C15 0.930 . S
H72 C18 0.930 . S
H73 C21 0.929 . S
H74 C26 0.929 . S
H75 C27 0.930 . S
H76 C34 0.929 . S
H77 C35 0.930 . S
H78 C36 0.930 . S
H79 C37 0.930 . S
H80 C39 0.929 . S
H81 C40 0.930 . S
H82 C41 0.930 . S
H83 C42 0.930 . S
H84 C46 0.929 . S
H85 C48 0.930 . S
H86 C54 0.929 . S
H87 C55 0.930 . S
Li88 N105 1.990 . S
Li88 O148 1.956 . S
Li88 O149 1.970 . S
Li88 O150 1.961 1_455 S
Li89 N113 1.990 . S
Li89 O148 1.970 . S
Li89 O149 1.956 . S
Li89 O151 1.961 1_455 S
Li90 N135 1.990 . S
Li90 O148 1.961 1_655 S
Li90 O150 1.956 . S
Li90 O151 1.970 . S
Li91 N141 1.990 . S
Li91 O149 1.961 1_655 S
Li91 O150 1.970 . S
Li91 O151 1.956 . S
C92 C94 1.348 . S
C92 C95 1.356 . S
C92 O148 1.325 . S
N93 C96 1.314 . S
N93 C97 1.279 . S
C94 C92 1.348 . S
C94 C96 1.353 . S
C94 H152 0.929 . S
C95 C92 1.356 . S
C95 C97 1.358 . S
C95 H153 0.930 . S
C96 N93 1.314 . S
C96 C94 1.353 . S
C96 H154 0.930 . S
C97 N93 1.279 . S
C97 C95 1.358 . S
C97 H155 0.930 . S
C98 C101 1.348 . S
C98 C102 1.356 . S
C98 O149 1.325 . S
C99 N100 1.279 . S
C99 C102 1.358 . S
C99 H156 0.930 . S
N100 C99 1.279 . S
N100 C103 1.314 . S
C101 C98 1.348 . S
C101 C103 1.353 . S
C101 H157 0.929 . S
C102 C98 1.356 . S
C102 C99 1.358 . S
C102 H158 0.929 1_455 S
C103 N100 1.314 . S
C103 C101 1.353 . S
C103 H159 0.930 . S
C104 N105 1.314 1_655 S
C104 C109 1.353 . S
C104 H110 0.930 . S
N105 Li88 1.990 . S
N105 C104 1.314 1_455 S
N105 C107 1.279 . S
C106 C107 1.358 . S
C106 C108 1.356 . S
C106 H160 0.930 . S
C107 N105 1.279 . S
C107 C106 1.358 . S
C107 H111 0.930 . S
C108 C106 1.356 . S
C108 C109 1.348 1_455 S
C109 C104 1.353 . S
C109 C108 1.348 1_655 S
C109 H161 0.929 . S
H110 C104 0.930 . S
H111 C107 0.930 . S
C112 N113 1.314 . S
C112 C114 1.353 . S
C112 H118 0.930 . S
N113 Li89 1.990 . S
N113 C112 1.314 . S
N113 C116 1.279 . S
C114 C112 1.353 . S
C114 C117 1.348 . S
C114 H162 0.929 . S
C115 C116 1.358 . S
C115 C117 1.356 . S
C115 H163 0.930 . S
C116 N113 1.279 . S
C116 C115 1.358 . S
C116 H119 0.930 . S
C117 C114 1.348 . S
C117 C115 1.356 . S
H118 C112 0.930 . S
H119 C116 0.930 . S
C120 C122 1.348 . S
C120 C123 1.356 . S
C120 O150 1.325 . S
N121 C124 1.314 . S
N121 C125 1.279 . S
C122 C120 1.348 . S
C122 C124 1.353 . S
C122 H164 0.929 . S
C123 C120 1.356 . S
C123 C125 1.358 . S
C123 H165 0.930 . S
C124 N121 1.314 . S
C124 C122 1.353 . S
C124 H166 0.930 . S
C125 N121 1.279 . S
C125 C123 1.358 . S
C125 H167 0.930 . S
C126 C127 1.348 . S
C126 C128 1.356 1_655 S
C126 O151 1.325 . S
C127 C126 1.348 . S
C127 C129 1.353 . S
C127 H168 0.929 . S
C128 C126 1.356 1_455 S
C128 C130 1.358 . S
C128 H169 0.930 . S
C129 C127 1.353 . S
C129 N131 1.314 . S
C129 H170 0.930 . S
C130 C128 1.358 . S
C130 N131 1.279 1_455 S
C130 H171 0.930 . S
N131 C129 1.314 . S
N131 C130 1.279 1_655 S
C132 C134 1.353 . S
C132 N135 1.314 1_455 S
C132 H138 0.930 . S
C133 N135 1.279 . S
C133 C136 1.358 . S
C133 H139 0.930 . S
C134 C132 1.353 . S
C134 C137 1.348 1_455 S
C134 H172 0.929 . S
N135 Li90 1.990 . S
N135 C132 1.314 1_655 S
N135 C133 1.279 . S
C136 C133 1.358 . S
C136 C137 1.356 . S
C136 H173 0.930 . S
C137 C134 1.348 1_655 S
C137 C136 1.356 . S
H138 C132 0.930 . S
H139 C133 0.930 . S
C140 N141 1.314 . S
C140 C142 1.353 . S
C140 H146 0.930 . S
N141 Li91 1.990 . S
N141 C140 1.314 . S
N141 C144 1.279 . S
C142 C140 1.353 . S
C142 C145 1.348 . S
C142 H174 0.929 . S
C143 C144 1.358 . S
C143 C145 1.356 . S
C143 H175 0.930 . S
C144 N141 1.279 . S
C144 C143 1.358 . S
C144 H147 0.930 . S
C145 C142 1.348 . S
C145 C143 1.356 . S
H146 C140 0.930 . S
H147 C144 0.930 . S
O148 Li88 1.956 . S
O148 Li89 1.970 . S
O148 Li90 1.961 1_455 S
O148 C92 1.325 . S
O149 Li88 1.970 . S
O149 Li89 1.956 . S
O149 Li91 1.961 1_455 S
O149 C98 1.325 . S
O150 Li88 1.961 1_655 S
O150 Li90 1.956 . S
O150 Li91 1.970 . S
O150 C120 1.325 . S
O151 Li89 1.961 1_655 S
O151 Li90 1.970 . S
O151 Li91 1.956 . S
O151 C126 1.325 . S
H152 C94 0.929 . S
H153 C95 0.930 . S
H154 C96 0.930 . S
H155 C97 0.930 . S
H156 C99 0.930 . S
H157 C101 0.929 . S
H158 C102 0.929 1_655 S
H159 C103 0.930 . S
H160 C106 0.930 . S
H161 C109 0.929 . S
H162 C114 0.929 . S
H163 C115 0.930 . S
H164 C122 0.929 . S
H165 C123 0.930 . S
H166 C124 0.930 . S
H167 C125 0.930 . S
H168 C127 0.929 . S
H169 C128 0.930 . S
H170 C129 0.930 . S
H171 C130 0.930 . S
H172 C134 0.929 . S
H173 C136 0.930 . S
H174 C142 0.929 . S
H175 C143 0.930 . S
Li176 N193 1.990 . S
Li176 O236 1.956 . S
Li176 O237 1.970 . S
Li176 O238 1.961 . S
Li177 N201 1.990 . S
Li177 O236 1.970 . S
Li177 O237 1.956 . S
Li177 O239 1.961 . S
Li178 N223 1.990 . S
Li178 O236 1.961 . S
Li178 O238 1.956 . S
Li178 O239 1.970 . S
Li179 N229 1.990 . S
Li179 O237 1.961 . S
Li179 O238 1.970 . S
Li179 O239 1.956 . S
C180 C182 1.348 . S
C180 C183 1.356 . S
C180 O236 1.325 . S
N181 C184 1.314 . S
N181 C185 1.279 . S
C182 C180 1.348 . S
C182 C184 1.353 . S
C182 H240 0.929 . S
C183 C180 1.356 . S
C183 C185 1.358 . S
C183 H241 0.930 . S
C184 N181 1.314 . S
C184 C182 1.353 . S
C184 H242 0.930 . S
C185 N181 1.279 . S
C185 C183 1.358 . S
C185 H243 0.930 . S
C186 C189 1.348 . S
C186 C190 1.356 . S
C186 O237 1.325 . S
C187 N188 1.279 . S
C187 C190 1.358 . S
C187 H244 0.930 . S
N188 C187 1.279 . S
N188 C191 1.314 . S
C189 C186 1.348 . S
C189 C191 1.353 . S
C189 H245 0.929 . S
C190 C186 1.356 . S
C190 C187 1.358 . S
C190 H246 0.930 . S
C191 N188 1.314 . S
C191 C189 1.353 . S
C191 H247 0.930 . S
C192 N193 1.314 . S
C192 C197 1.353 . S
C192 H198 0.930 . S
N193 Li176 1.990 . S
N193 C192 1.314 . S
N193 C195 1.279 . S
C194 C195 1.358 . S
C194 C196 1.356 . S
C194 H248 0.930 . S
C195 N193 1.279 . S
C195 C194 1.358 . S
C195 H199 0.930 . S
C196 C194 1.356 . S
C196 C197 1.348 . S
C197 C192 1.353 . S
C197 C196 1.348 . S
C197 H249 0.929 . S
H198 C192 0.930 . S
H199 C195 0.930 . S
C200 N201 1.314 . S
C200 C202 1.353 . S
C200 H206 0.930 . S
N201 Li177 1.990 . S
N201 C200 1.314 . S
N201 C204 1.279 . S
C202 C200 1.353 . S
C202 C205 1.348 . S
C202 H250 0.929 . S
C203 C204 1.358 . S
C203 C205 1.356 . S
C203 H251 0.930 . S
C204 N201 1.279 . S
C204 C203 1.358 . S
C204 H207 0.930 . S
C205 C202 1.348 . S
C205 C203 1.356 . S
H206 C200 0.930 . S
H207 C204 0.930 . S
C208 C210 1.348 . S
C208 C211 1.356 . S
C208 O238 1.325 . S
N209 C212 1.314 . S
N209 C213 1.279 . S
C210 C208 1.348 . S
C210 C212 1.353 . S
C210 H252 0.929 . S
C211 C208 1.356 . S
C211 C213 1.358 . S
C211 H253 0.930 . S
C212 N209 1.314 . S
C212 C210 1.353 . S
C212 H254 0.930 . S
C213 N209 1.279 . S
C213 C211 1.358 . S
C213 H255 0.930 . S
C214 C215 1.348 . S
C214 C216 1.356 . S
C214 O239 1.325 . S
C215 C214 1.348 . S
C215 C217 1.353 . S
C215 H256 0.929 . S
C216 C214 1.356 . S
C216 C218 1.358 . S
C216 H257 0.930 . S
C217 C215 1.353 . S
C217 N219 1.314 . S
C217 H258 0.930 . S
C218 C216 1.358 . S
C218 N219 1.279 . S
C218 H259 0.930 . S
N219 C217 1.314 . S
N219 C218 1.279 . S
C220 C222 1.353 . S
C220 N223 1.314 . S
C220 H226 0.930 . S
C221 N223 1.279 . S
C221 C224 1.358 . S
C221 H227 0.930 . S
C222 C220 1.353 . S
C222 C225 1.348 . S
C222 H260 0.929 . S
N223 Li178 1.990 . S
N223 C220 1.314 . S
N223 C221 1.279 . S
C224 C221 1.358 . S
C224 C225 1.356 . S
C224 H261 0.930 . S
C225 C222 1.348 . S
C225 C224 1.356 . S
H226 C220 0.930 . S
H227 C221 0.930 . S
C228 N229 1.314 . S
C228 C230 1.353 . S
C228 H234 0.930 . S
N229 Li179 1.990 . S
N229 C228 1.314 . S
N229 C232 1.279 . S
C230 C228 1.353 . S
C230 C233 1.348 . S
C230 H262 0.929 . S
C231 C232 1.358 . S
C231 C233 1.356 . S
C231 H263 0.930 . S
C232 N229 1.279 . S
C232 C231 1.358 . S
C232 H235 0.930 . S
C233 C230 1.348 . S
C233 C231 1.356 . S
H234 C228 0.930 . S
H235 C232 0.930 . S
O236 Li176 1.956 . S
O236 Li177 1.970 . S
O236 Li178 1.961 . S
O236 C180 1.325 . S
O237 Li176 1.970 . S
O237 Li177 1.956 . S
O237 Li179 1.961 . S
O237 C186 1.325 . S
O238 Li176 1.961 . S
O238 Li178 1.956 . S
O238 Li179 1.970 . S
O238 C208 1.325 . S
O239 Li177 1.961 . S
O239 Li178 1.970 . S
O239 Li179 1.956 . S
O239 C214 1.325 . S
H240 C182 0.929 . S
H241 C183 0.930 . S
H242 C184 0.930 . S
H243 C185 0.930 . S
H244 C187 0.930 . S
H245 C189 0.929 . S
H246 C190 0.930 . S
H247 C191 0.930 . S
H248 C194 0.930 . S
H249 C197 0.929 . S
H250 C202 0.929 . S
H251 C203 0.930 . S
H252 C210 0.929 . S
H253 C211 0.930 . S
H254 C212 0.930 . S
H255 C213 0.930 . S
H256 C215 0.929 . S
H257 C216 0.930 . S
H258 C217 0.930 . S
H259 C218 0.930 . S
H260 C222 0.929 . S
H261 C224 0.930 . S
H262 C230 0.929 . S
H263 C231 0.930 . S
Li264 N281 1.990 . S
Li264 O324 1.956 . S
Li264 O325 1.970 . S
Li264 O326 1.961 . S
Li265 N289 1.990 . S
Li265 O324 1.970 . S
Li265 O325 1.956 . S
Li265 O327 1.961 . S
Li266 N311 1.990 . S
Li266 O324 1.961 . S
Li266 O326 1.956 . S
Li266 O327 1.970 . S
Li267 N317 1.990 . S
Li267 O325 1.961 . S
Li267 O326 1.970 . S
Li267 O327 1.956 . S
C268 C270 1.348 . S
C268 C271 1.356 . S
C268 O324 1.325 . S
N269 C272 1.314 . S
N269 C273 1.279 . S
C270 C268 1.348 . S
C270 C272 1.353 . S
C270 H328 0.929 . S
C271 C268 1.356 . S
C271 C273 1.358 . S
C271 H329 0.930 . S
C272 N269 1.314 . S
C272 C270 1.353 . S
C272 H330 0.930 . S
C273 N269 1.279 . S
C273 C271 1.358 . S
C273 H331 0.930 . S
C274 C277 1.348 . S
C274 C278 1.356 . S
C274 O325 1.325 . S
C275 N276 1.279 . S
C275 C278 1.358 . S
C275 H332 0.930 . S
N276 C275 1.279 . S
N276 C279 1.314 . S
C277 C274 1.348 . S
C277 C279 1.353 . S
C277 H333 0.929 . S
C278 C274 1.356 . S
C278 C275 1.358 . S
C278 H334 0.930 . S
C279 N276 1.314 . S
C279 C277 1.353 . S
C279 H335 0.930 . S
C280 N281 1.314 . S
C280 C285 1.353 . S
C280 H286 0.930 . S
N281 Li264 1.990 . S
N281 C280 1.314 . S
N281 C283 1.279 . S
C282 C283 1.358 . S
C282 C284 1.356 . S
C282 H336 0.930 . S
C283 N281 1.279 . S
C283 C282 1.358 . S
C283 H287 0.930 . S
C284 C282 1.356 . S
C284 C285 1.348 . S
C285 C280 1.353 . S
C285 C284 1.348 . S
C285 H337 0.929 . S
H286 C280 0.930 . S
H287 C283 0.930 . S
C288 N289 1.314 . S
C288 C290 1.353 . S
C288 H294 0.930 . S
N289 Li265 1.990 . S
N289 C288 1.314 . S
N289 C292 1.279 . S
C290 C288 1.353 . S
C290 C293 1.348 . S
C290 H338 0.929 . S
C291 C292 1.358 . S
C291 C293 1.356 . S
C291 H339 0.930 . S
C292 N289 1.279 . S
C292 C291 1.358 . S
C292 H295 0.930 . S
C293 C290 1.348 . S
C293 C291 1.356 . S
H294 C288 0.930 . S
H295 C292 0.930 . S
C296 C298 1.348 . S
C296 C299 1.356 . S
C296 O326 1.325 . S
N297 C300 1.314 . S
N297 C301 1.279 . S
C298 C296 1.348 . S
C298 C300 1.353 . S
C298 H340 0.929 . S
C299 C296 1.356 . S
C299 C301 1.358 . S
C299 H341 0.930 . S
C300 N297 1.314 . S
C300 C298 1.353 . S
C300 H342 0.930 . S
C301 N297 1.279 . S
C301 C299 1.358 . S
C301 H343 0.930 . S
C302 C303 1.348 . S
C302 C304 1.356 . S
C302 O327 1.325 . S
C303 C302 1.348 . S
C303 C305 1.353 . S
C303 H344 0.929 . S
C304 C302 1.356 . S
C304 C306 1.358 . S
C304 H345 0.930 . S
C305 C303 1.353 . S
C305 N307 1.314 . S
C305 H346 0.930 . S
C306 C304 1.358 . S
C306 N307 1.279 . S
C306 H347 0.930 . S
N307 C305 1.314 . S
N307 C306 1.279 . S
C308 C310 1.353 . S
C308 N311 1.314 . S
C308 H314 0.930 . S
C309 N311 1.279 . S
C309 C312 1.358 . S
C309 H315 0.930 . S
C310 C308 1.353 . S
C310 C313 1.348 . S
C310 H348 0.929 . S
N311 Li266 1.990 . S
N311 C308 1.314 . S
N311 C309 1.279 . S
C312 C309 1.358 . S
C312 C313 1.356 . S
C312 H349 0.930 . S
C313 C310 1.348 . S
C313 C312 1.356 . S
H314 C308 0.930 . S
H315 C309 0.930 . S
C316 N317 1.314 . S
C316 C318 1.353 . S
C316 H322 0.930 . S
N317 Li267 1.990 . S
N317 C316 1.314 . S
N317 C320 1.279 . S
C318 C316 1.353 . S
C318 C321 1.348 . S
C318 H350 0.929 . S
C319 C320 1.358 . S
C319 C321 1.356 . S
C319 H351 0.930 . S
C320 N317 1.279 . S
C320 C319 1.358 . S
C320 H323 0.930 . S
C321 C318 1.348 . S
C321 C319 1.356 . S
H322 C316 0.930 . S
H323 C320 0.930 . S
O324 Li264 1.956 . S
O324 Li265 1.970 . S
O324 Li266 1.961 . S
O324 C268 1.325 . S
O325 Li264 1.970 . S
O325 Li265 1.956 . S
O325 Li267 1.961 . S
O325 C274 1.325 . S
O326 Li264 1.961 . S
O326 Li266 1.956 . S
O326 Li267 1.970 . S
O326 C296 1.325 . S
O327 Li265 1.961 . S
O327 Li266 1.970 . S
O327 Li267 1.956 . S
O327 C302 1.325 . S
H328 C270 0.929 . S
H329 C271 0.930 . S
H330 C272 0.930 . S
H331 C273 0.930 . S
H332 C275 0.930 . S
H333 C277 0.929 . S
H334 C278 0.930 . S
H335 C279 0.930 . S
H336 C282 0.930 . S
H337 C285 0.929 . S
H338 C290 0.929 . S
H339 C291 0.930 . S
H340 C298 0.929 . S
H341 C299 0.930 . S
H342 C300 0.930 . S
H343 C301 0.930 . S
H344 C303 0.929 . S
H345 C304 0.930 . S
H346 C305 0.930 . S
H347 C306 0.930 . S
H348 C310 0.929 . S
H349 C312 0.930 . S
H350 C318 0.929 . S
H351 C319 0.930 . S
Li352 N369 1.990 . S
Li352 O412 1.956 . S
Li352 O413 1.970 . S
Li352 O414 1.961 . S
Li353 N377 1.990 . S
Li353 O412 1.970 . S
Li353 O413 1.956 . S
Li353 O415 1.961 . S
Li354 N399 1.990 . S
Li354 O412 1.961 . S
Li354 O414 1.956 . S
Li354 O415 1.970 . S
Li355 N405 1.990 . S
Li355 O413 1.961 . S
Li355 O414 1.970 . S
Li355 O415 1.956 . S
C356 C358 1.348 . S
C356 C359 1.356 . S
C356 O412 1.325 . S
N357 C360 1.314 . S
N357 C361 1.279 . S
C358 C356 1.348 . S
C358 C360 1.353 . S
C358 H416 0.929 . S
C359 C356 1.356 . S
C359 C361 1.358 . S
C359 H417 0.930 . S
C360 N357 1.314 . S
C360 C358 1.353 . S
C360 H418 0.930 . S
C361 N357 1.279 . S
C361 C359 1.358 . S
C361 H419 0.930 . S
C362 C365 1.348 . S
C362 C366 1.356 . S
C362 O413 1.325 . S
C363 N364 1.279 . S
C363 C366 1.358 . S
C363 H420 0.930 . S
N364 C363 1.279 . S
N364 C367 1.314 . S
C365 C362 1.348 . S
C365 C367 1.353 . S
C365 H421 0.929 . S
C366 C362 1.356 . S
C366 C363 1.358 . S
C366 H422 0.930 . S
C367 N364 1.314 . S
C367 C365 1.353 . S
C367 H423 0.930 . S
C368 N369 1.314 . S
C368 C373 1.353 . S
C368 H374 0.930 . S
N369 Li352 1.990 . S
N369 C368 1.314 . S
N369 C371 1.279 . S
C370 C371 1.358 . S
C370 C372 1.356 . S
C370 H424 0.930 . S
C371 N369 1.279 . S
C371 C370 1.358 . S
C371 H375 0.930 . S
C372 C370 1.356 . S
C372 C373 1.348 . S
C373 C368 1.353 . S
C373 C372 1.348 . S
C373 H425 0.929 . S
H374 C368 0.930 . S
H375 C371 0.930 . S
C376 N377 1.314 . S
C376 C378 1.353 . S
C376 H382 0.930 . S
N377 Li353 1.990 . S
N377 C376 1.314 . S
N377 C380 1.279 . S
C378 C376 1.353 . S
C378 C381 1.348 . S
C378 H426 0.929 . S
C379 C380 1.358 . S
C379 C381 1.356 . S
C379 H427 0.930 . S
C380 N377 1.279 . S
C380 C379 1.358 . S
C380 H383 0.930 . S
C381 C378 1.348 . S
C381 C379 1.356 . S
H382 C376 0.930 . S
H383 C380 0.930 . S
C384 C386 1.348 . S
C384 C387 1.356 . S
C384 O414 1.325 . S
N385 C388 1.314 . S
N385 C389 1.279 . S
C386 C384 1.348 . S
C386 C388 1.353 . S
C386 H428 0.929 . S
C387 C384 1.356 . S
C387 C389 1.358 . S
C387 H429 0.930 . S
C388 N385 1.314 . S
C388 C386 1.353 . S
C388 H430 0.930 1_455 S
C389 N385 1.279 . S
C389 C387 1.358 . S
C389 H431 0.930 . S
C390 C391 1.348 . S
C390 C392 1.356 . S
C390 O415 1.325 . S
C391 C390 1.348 . S
C391 C393 1.353 . S
C391 H432 0.929 . S
C392 C390 1.356 . S
C392 C394 1.358 . S
C392 H433 0.930 . S
C393 C391 1.353 . S
C393 N395 1.314 . S
C393 H434 0.930 . S
C394 C392 1.358 . S
C394 N395 1.279 . S
C394 H435 0.930 . S
N395 C393 1.314 . S
N395 C394 1.279 . S
C396 C398 1.353 . S
C396 N399 1.314 . S
C396 H402 0.930 . S
C397 N399 1.279 . S
C397 C400 1.358 . S
C397 H403 0.930 . S
C398 C396 1.353 . S
C398 C401 1.348 . S
C398 H436 0.929 . S
N399 Li354 1.990 . S
N399 C396 1.314 . S
N399 C397 1.279 . S
C400 C397 1.358 . S
C400 C401 1.356 . S
C400 H437 0.930 . S
C401 C398 1.348 . S
C401 C400 1.356 . S
H402 C396 0.930 . S
H403 C397 0.930 . S
C404 N405 1.314 . S
C404 C406 1.353 . S
C404 H410 0.930 . S
N405 Li355 1.990 . S
N405 C404 1.314 . S
N405 C408 1.279 . S
C406 C404 1.353 . S
C406 C409 1.348 . S
C406 H438 0.929 . S
C407 C408 1.358 . S
C407 C409 1.356 . S
C407 H439 0.930 . S
C408 N405 1.279 . S
C408 C407 1.358 . S
C408 H411 0.930 . S
C409 C406 1.348 . S
C409 C407 1.356 . S
H410 C404 0.930 . S
H411 C408 0.930 . S
O412 Li352 1.956 . S
O412 Li353 1.970 . S
O412 Li354 1.961 . S
O412 C356 1.325 . S
O413 Li352 1.970 . S
O413 Li353 1.956 . S
O413 Li355 1.961 . S
O413 C362 1.325 . S
O414 Li352 1.961 . S
O414 Li354 1.956 . S
O414 Li355 1.970 . S
O414 C384 1.325 . S
O415 Li353 1.961 . S
O415 Li354 1.970 . S
O415 Li355 1.956 . S
O415 C390 1.325 . S
H416 C358 0.929 . S
H417 C359 0.930 . S
H418 C360 0.930 . S
H419 C361 0.930 . S
H420 C363 0.930 . S
H421 C365 0.929 . S
H422 C366 0.930 . S
H423 C367 0.930 . S
H424 C370 0.930 . S
H425 C373 0.929 . S
H426 C378 0.929 . S
H427 C379 0.930 . S
H428 C386 0.929 . S
H429 C387 0.930 . S
H430 C388 0.930 1_655 S
H431 C389 0.930 . S
H432 C391 0.929 . S
H433 C392 0.930 . S
H434 C393 0.930 . S
H435 C394 0.930 . S
H436 C398 0.929 . S
H437 C400 0.930 . S
H438 C406 0.929 . S
H439 C407 0.930 . S
Li440 N457 1.990 . S
Li440 O500 1.956 . S
Li440 O501 1.970 . S
Li440 O502 1.961 . S
Li441 N465 1.990 . S
Li441 O500 1.970 . S
Li441 O501 1.956 . S
Li441 O503 1.961 . S
Li442 N487 1.990 . S
Li442 O500 1.961 . S
Li442 O502 1.956 . S
Li442 O503 1.970 . S
Li443 N493 1.990 . S
Li443 O501 1.961 . S
Li443 O502 1.970 . S
Li443 O503 1.956 . S
C444 C446 1.348 . S
C444 C447 1.356 . S
C444 O500 1.325 . S
N445 C448 1.314 . S
N445 C449 1.279 . S
C446 C444 1.348 . S
C446 C448 1.353 . S
C446 H504 0.929 . S
C447 C444 1.356 . S
C447 C449 1.358 . S
C447 H505 0.930 . S
C448 N445 1.314 . S
C448 C446 1.353 . S
C448 H506 0.930 . S
C449 N445 1.279 . S
C449 C447 1.358 . S
C449 H507 0.930 . S
C450 C453 1.348 . S
C450 C454 1.356 . S
C450 O501 1.325 . S
C451 N452 1.279 . S
C451 C454 1.358 . S
C451 H508 0.930 . S
N452 C451 1.279 . S
N452 C455 1.314 . S
C453 C450 1.348 . S
C453 C455 1.353 . S
C453 H509 0.929 . S
C454 C450 1.356 . S
C454 C451 1.358 . S
C454 H510 0.930 . S
C455 N452 1.314 . S
C455 C453 1.353 . S
C455 H511 0.930 . S
C456 N457 1.314 . S
C456 C461 1.353 . S
C456 H462 0.930 . S
N457 Li440 1.990 . S
N457 C456 1.314 . S
N457 C459 1.279 . S
C458 C459 1.358 . S
C458 C460 1.356 . S
C458 H512 0.930 . S
C459 N457 1.279 . S
C459 C458 1.358 . S
C459 H463 0.930 . S
C460 C458 1.356 . S
C460 C461 1.348 . S
C461 C456 1.353 . S
C461 C460 1.348 . S
C461 H513 0.929 . S
H462 C456 0.930 . S
H463 C459 0.930 . S
C464 N465 1.314 . S
C464 C466 1.353 . S
C464 H470 0.930 . S
N465 Li441 1.990 . S
N465 C464 1.314 . S
N465 C468 1.279 . S
C466 C464 1.353 . S
C466 C469 1.348 . S
C466 H514 0.929 . S
C467 C468 1.358 . S
C467 C469 1.356 . S
C467 H515 0.930 . S
C468 N465 1.279 . S
C468 C467 1.358 . S
C468 H471 0.930 . S
C469 C466 1.348 . S
C469 C467 1.356 . S
H470 C464 0.930 . S
H471 C468 0.930 . S
C472 C474 1.348 . S
C472 C475 1.356 . S
C472 O502 1.325 . S
N473 C476 1.314 . S
N473 C477 1.279 . S
C474 C472 1.348 . S
C474 C476 1.353 . S
C474 H516 0.929 . S
C475 C472 1.356 . S
C475 C477 1.358 . S
C475 H517 0.930 . S
C476 N473 1.314 . S
C476 C474 1.353 . S
C476 H518 0.930 . S
C477 N473 1.279 . S
C477 C475 1.358 . S
C477 H519 0.930 . S
C478 C479 1.348 . S
C478 C480 1.356 . S
C478 O503 1.325 . S
C479 C478 1.348 . S
C479 C481 1.353 . S
C479 H520 0.929 . S
C480 C478 1.356 . S
C480 C482 1.358 . S
C480 H521 0.930 . S
C481 C479 1.353 . S
C481 N483 1.314 . S
C481 H522 0.930 . S
C482 C480 1.358 . S
C482 N483 1.279 . S
C482 H523 0.930 . S
N483 C481 1.314 . S
N483 C482 1.279 . S
C484 C486 1.353 . S
C484 N487 1.314 . S
C484 H490 0.930 . S
C485 N487 1.279 . S
C485 C488 1.358 . S
C485 H491 0.930 . S
C486 C484 1.353 . S
C486 C489 1.348 . S
C486 H524 0.929 . S
N487 Li442 1.990 . S
N487 C484 1.314 . S
N487 C485 1.279 . S
C488 C485 1.358 . S
C488 C489 1.356 . S
C488 H525 0.930 . S
C489 C486 1.348 . S
C489 C488 1.356 . S
H490 C484 0.930 . S
H491 C485 0.930 . S
C492 N493 1.314 . S
C492 C494 1.353 . S
C492 H498 0.930 . S
N493 Li443 1.990 . S
N493 C492 1.314 . S
N493 C496 1.279 . S
C494 C492 1.353 . S
C494 C497 1.348 . S
C494 H526 0.929 . S
C495 C496 1.358 . S
C495 C497 1.356 . S
C495 H527 0.930 . S
C496 N493 1.279 . S
C496 C495 1.358 . S
C496 H499 0.930 . S
C497 C494 1.348 . S
C497 C495 1.356 . S
H498 C492 0.930 . S
H499 C496 0.930 . S
O500 Li440 1.956 . S
O500 Li441 1.970 . S
O500 Li442 1.961 . S
O500 C444 1.325 . S
O501 Li440 1.970 . S
O501 Li441 1.956 . S
O501 Li443 1.961 . S
O501 C450 1.325 . S
O502 Li440 1.961 . S
O502 Li442 1.956 . S
O502 Li443 1.970 . S
O502 C472 1.325 . S
O503 Li441 1.961 . S
O503 Li442 1.970 . S
O503 Li443 1.956 . S
O503 C478 1.325 . S
H504 C446 0.929 . S
H505 C447 0.930 . S
H506 C448 0.930 . S
H507 C449 0.930 . S
H508 C451 0.930 . S
H509 C453 0.929 . S
H510 C454 0.930 . S
H511 C455 0.930 . S
H512 C458 0.930 . S
H513 C461 0.929 . S
H514 C466 0.929 . S
H515 C467 0.930 . S
H516 C474 0.929 . S
H517 C475 0.930 . S
H518 C476 0.930 . S
H519 C477 0.930 . S
H520 C479 0.929 . S
H521 C480 0.930 . S
H522 C481 0.930 . S
H523 C482 0.930 . S
H524 C486 0.929 . S
H525 C488 0.930 . S
H526 C494 0.929 . S
H527 C495 0.930 . S
Li528 N545 1.990 . S
Li528 O588 1.956 . S
Li528 O589 1.970 . S
Li528 O590 1.961 . S
Li529 N553 1.990 . S
Li529 O588 1.970 . S
Li529 O589 1.956 . S
Li529 O591 1.961 . S
Li530 N575 1.990 . S
Li530 O588 1.961 . S
Li530 O590 1.956 . S
Li530 O591 1.970 . S
Li531 N581 1.990 . S
Li531 O589 1.961 . S
Li531 O590 1.970 . S
Li531 O591 1.956 . S
C532 C534 1.348 . S
C532 C535 1.356 . S
C532 O588 1.325 . S
N533 C536 1.314 . S
N533 C537 1.279 . S
C534 C532 1.348 . S
C534 C536 1.353 . S
C534 H592 0.929 . S
C535 C532 1.356 . S
C535 C537 1.358 . S
C535 H593 0.930 . S
C536 N533 1.314 . S
C536 C534 1.353 . S
C536 H594 0.930 . S
C537 N533 1.279 . S
C537 C535 1.358 . S
C537 H595 0.930 . S
C538 C541 1.348 . S
C538 C542 1.356 . S
C538 O589 1.325 . S
C539 N540 1.279 . S
C539 C542 1.358 . S
C539 H596 0.930 . S
N540 C539 1.279 . S
N540 C543 1.314 . S
C541 C538 1.348 . S
C541 C543 1.353 . S
C541 H597 0.929 . S
C542 C538 1.356 . S
C542 C539 1.358 . S
C542 H598 0.930 . S
C543 N540 1.314 . S
C543 C541 1.353 . S
C543 H599 0.930 . S
C544 N545 1.314 . S
C544 C549 1.353 . S
C544 H550 0.930 . S
N545 Li528 1.990 . S
N545 C544 1.314 . S
N545 C547 1.279 . S
C546 C547 1.358 . S
C546 C548 1.356 . S
C546 H600 0.930 . S
C547 N545 1.279 . S
C547 C546 1.358 . S
C547 H551 0.930 . S
C548 C546 1.356 . S
C548 C549 1.348 . S
C549 C544 1.353 . S
C549 C548 1.348 . S
C549 H601 0.929 . S
H550 C544 0.930 . S
H551 C547 0.930 . S
C552 N553 1.314 . S
C552 C554 1.353 . S
C552 H558 0.930 . S
N553 Li529 1.990 . S
N553 C552 1.314 . S
N553 C556 1.279 . S
C554 C552 1.353 . S
C554 C557 1.348 . S
C554 H602 0.929 . S
C555 C556 1.358 . S
C555 C557 1.356 . S
C555 H603 0.930 . S
C556 N553 1.279 . S
C556 C555 1.358 . S
C556 H559 0.930 . S
C557 C554 1.348 . S
C557 C555 1.356 . S
H558 C552 0.930 . S
H559 C556 0.930 . S
C560 C562 1.348 . S
C560 C563 1.356 . S
C560 O590 1.325 . S
N561 C564 1.314 . S
N561 C565 1.279 . S
C562 C560 1.348 . S
C562 C564 1.353 . S
C562 H604 0.929 . S
C563 C560 1.356 . S
C563 C565 1.358 . S
C563 H605 0.930 . S
C564 N561 1.314 . S
C564 C562 1.353 . S
C564 H606 0.930 . S
C565 N561 1.279 . S
C565 C563 1.358 . S
C565 H607 0.930 . S
C566 C567 1.348 . S
C566 C568 1.356 . S
C566 O591 1.325 . S
C567 C566 1.348 . S
C567 C569 1.353 . S
C567 H608 0.929 . S
C568 C566 1.356 . S
C568 C570 1.358 . S
C568 H609 0.930 . S
C569 C567 1.353 . S
C569 N571 1.314 . S
C569 H610 0.930 . S
C570 C568 1.358 . S
C570 N571 1.279 . S
C570 H611 0.930 . S
N571 C569 1.314 . S
N571 C570 1.279 . S
C572 C574 1.353 . S
C572 N575 1.314 . S
C572 H578 0.930 . S
C573 N575 1.279 . S
C573 C576 1.358 . S
C573 H579 0.930 . S
C574 C572 1.353 . S
C574 C577 1.348 . S
C574 H612 0.929 . S
N575 Li530 1.990 . S
N575 C572 1.314 . S
N575 C573 1.279 . S
C576 C573 1.358 . S
C576 C577 1.356 . S
C576 H613 0.930 . S
C577 C574 1.348 . S
C577 C576 1.356 . S
H578 C572 0.930 . S
H579 C573 0.930 . S
C580 N581 1.314 . S
C580 C582 1.353 . S
C580 H586 0.930 . S
N581 Li531 1.990 . S
N581 C580 1.314 . S
N581 C584 1.279 . S
C582 C580 1.353 . S
C582 C585 1.348 . S
C582 H614 0.929 . S
C583 C584 1.358 . S
C583 C585 1.356 . S
C583 H615 0.930 . S
C584 N581 1.279 . S
C584 C583 1.358 . S
C584 H587 0.930 . S
C585 C582 1.348 . S
C585 C583 1.356 . S
H586 C580 0.930 . S
H587 C584 0.930 . S
O588 Li528 1.956 . S
O588 Li529 1.970 . S
O588 Li530 1.961 . S
O588 C532 1.325 . S
O589 Li528 1.970 . S
O589 Li529 1.956 . S
O589 Li531 1.961 . S
O589 C538 1.325 . S
O590 Li528 1.961 . S
O590 Li530 1.956 . S
O590 Li531 1.970 . S
O590 C560 1.325 . S
O591 Li529 1.961 . S
O591 Li530 1.970 . S
O591 Li531 1.956 . S
O591 C566 1.325 . S
H592 C534 0.929 . S
H593 C535 0.930 . S
H594 C536 0.930 . S
H595 C537 0.930 . S
H596 C539 0.930 . S
H597 C541 0.929 . S
H598 C542 0.930 . S
H599 C543 0.930 . S
H600 C546 0.930 . S
H601 C549 0.929 . S
H602 C554 0.929 . S
H603 C555 0.930 . S
H604 C562 0.929 . S
H605 C563 0.930 . S
H606 C564 0.930 . S
H607 C565 0.930 . S
H608 C567 0.929 . S
H609 C568 0.930 . S
H610 C569 0.930 . S
H611 C570 0.930 . S
H612 C574 0.929 . S
H613 C576 0.930 . S
H614 C582 0.929 . S
H615 C583 0.930 . S
Li616 N633 1.990 . S
Li616 O676 1.927 1_455 S
Li616 O677 1.970 . S
Li616 O678 1.961 . S
Li617 N641 1.989 . S
Li617 O676 1.966 . S
Li617 O677 1.957 1_655 S
Li617 O679 1.962 1_655 S
Li618 N663 1.990 . S
Li618 O676 1.923 1_455 S
Li618 O678 1.956 . S
Li618 O679 1.970 . S
Li619 N669 1.990 . S
Li619 O677 1.961 . S
Li619 O678 1.970 . S
Li619 O679 1.956 . S
C620 C622 1.348 . S
C620 C623 1.356 . S
C620 O676 1.362 . S
N621 C624 1.314 1_554 S
N621 C625 1.279 . S
C622 C620 1.348 . S
C622 C624 1.353 . S
C622 H680 0.929 . S
C623 C620 1.356 . S
C623 C625 1.358 1_556 S
C623 H681 0.930 1_556 S
C624 N621 1.314 1_556 S
C624 C622 1.353 . S
C624 H682 0.930 . S
C625 N621 1.279 . S
C625 C623 1.358 1_554 S
C625 H683 0.930 . S
C626 C629 1.348 . S
C626 C630 1.356 . S
C626 O677 1.325 . S
C627 N628 1.279 . S
C627 C630 1.358 . S
C627 H684 0.930 . S
N628 C627 1.279 . S
N628 C631 1.314 . S
C629 C626 1.348 . S
C629 C631 1.353 . S
C629 H685 0.929 . S
C630 C626 1.356 . S
C630 C627 1.358 . S
C630 H686 0.930 . S
C631 N628 1.314 . S
C631 C629 1.353 . S
C631 H687 0.930 . S
C632 N633 1.314 . S
C632 C637 1.353 1_556 S
C632 H638 0.930 . S
N633 Li616 1.990 . S
N633 C632 1.314 . S
N633 C635 1.279 . S
C634 C635 1.358 1_554 S
C634 C636 1.356 . S
C634 H688 0.930 . S
C635 N633 1.279 . S
C635 C634 1.358 1_556 S
C635 H639 0.928 . S
C636 C634 1.356 . S
C636 C637 1.348 . S
C637 C632 1.353 1_554 S
C637 C636 1.348 . S
C637 H689 0.929 . S
H638 C632 0.930 . S
H639 C635 0.928 . S
C640 N641 1.314 . S
C640 C642 1.353 . S
C640 H646 0.930 . S
N641 Li617 1.989 . S
N641 C640 1.314 . S
N641 C644 1.279 . S
C642 C640 1.353 . S
C642 C645 1.348 . S
C642 H690 0.929 . S
C643 C644 1.358 . S
C643 C645 1.356 . S
C643 H691 0.930 . S
C644 N641 1.279 . S
C644 C643 1.358 . S
C644 H647 0.930 . S
C645 C642 1.348 . S
C645 C643 1.356 . S
H646 C640 0.930 . S
H647 C644 0.930 . S
C648 C650 1.348 . S
C648 C651 1.388 . S
C648 O678 1.325 . S
N649 C652 1.314 1_554 S
N649 C653 1.279 . S
C650 C648 1.348 . S
C650 C652 1.353 . S
C650 H692 0.929 . S
C651 C648 1.388 . S
C651 C653 1.341 1_556 S
C651 H693 0.916 1_556 S
C652 N649 1.314 1_556 S
C652 C650 1.353 . S
C652 H694 0.930 . S
C653 N649 1.279 . S
C653 C651 1.341 1_554 S
C653 H695 0.930 . S
C654 C655 1.348 . S
C654 C656 1.356 . S
C654 O679 1.325 . S
C655 C654 1.348 . S
C655 C657 1.353 . S
C655 H696 0.929 . S
C656 C654 1.356 . S
C656 C658 1.358 . S
C656 H697 0.930 . S
C657 C655 1.353 . S
C657 N659 1.314 . S
C657 H698 0.930 . S
C658 C656 1.358 . S
C658 N659 1.279 . S
C658 H699 0.930 . S
N659 C657 1.314 . S
N659 C658 1.279 . S
C660 C662 1.354 1_455 S
C660 N663 1.344 . S
C660 H666 0.896 1_455 S
C661 N663 1.279 . S
C661 C664 1.355 1_556 S
C661 H667 0.930 . S
C662 C660 1.354 1_655 S
C662 C665 1.340 1_656 S
C662 H700 0.929 . S
N663 Li618 1.990 . S
N663 C660 1.344 . S
N663 C661 1.279 . S
C664 C661 1.355 1_554 S
C664 C665 1.354 . S
C664 H701 0.932 . S
C665 C662 1.340 1_454 S
C665 C664 1.354 . S
H666 C660 0.896 1_655 S
H667 C661 0.930 . S
C668 N669 1.314 . S
C668 C670 1.353 . S
C668 H674 0.930 . S
N669 Li619 1.990 . S
N669 C668 1.314 . S
N669 C672 1.279 . S
C670 C668 1.353 . S
C670 C673 1.348 . S
C670 H702 0.929 . S
C671 C672 1.358 . S
C671 C673 1.356 . S
C671 H703 0.930 . S
C672 N669 1.279 . S
C672 C671 1.358 . S
C672 H675 0.930 . S
C673 C670 1.348 . S
C673 C671 1.356 . S
H674 C668 0.930 . S
H675 C672 0.930 . S
O676 Li616 1.927 1_655 S
O676 Li617 1.966 . S
O676 Li618 1.923 1_655 S
O676 C620 1.362 . S
O677 Li616 1.970 . S
O677 Li617 1.957 1_455 S
O677 Li619 1.961 . S
O677 C626 1.325 . S
O678 Li616 1.961 . S
O678 Li618 1.956 . S
O678 Li619 1.970 . S
O678 C648 1.325 . S
O679 Li617 1.962 1_455 S
O679 Li618 1.970 . S
O679 Li619 1.956 . S
O679 C654 1.325 . S
H680 C622 0.929 . S
H681 C623 0.930 1_554 S
H682 C624 0.930 . S
H683 C625 0.930 . S
H684 C627 0.930 . S
H685 C629 0.929 . S
H686 C630 0.930 . S
H687 C631 0.930 . S
H688 C634 0.930 . S
H689 C637 0.929 . S
H690 C642 0.929 . S
H691 C643 0.930 . S
H692 C650 0.929 . S
H693 C651 0.916 1_554 S
H694 C652 0.930 . S
H695 C653 0.930 . S
H696 C655 0.929 . S
H697 C656 0.930 . S
H698 C657 0.930 . S
H699 C658 0.930 . S
H700 C662 0.929 . S
H701 C664 0.932 . S
H702 C670 0.929 . S
H703 C671 0.930 . S
Li704 N721 1.990 . S
Li704 O764 1.956 1_545 S
Li704 O765 1.970 . S
Li704 O766 1.961 . S
Li705 N729 1.990 . S
Li705 O764 1.970 . S
Li705 O765 1.956 1_565 S
Li705 O767 1.961 1_565 S
Li706 N751 1.990 . S
Li706 O764 1.961 1_545 S
Li706 O766 1.956 . S
Li706 O767 1.970 . S
Li707 N757 1.990 . S
Li707 O765 1.961 . S
Li707 O766 1.970 . S
Li707 O767 1.956 . S
C708 C710 1.348 . S
C708 C711 1.356 . S
C708 O764 1.325 . S
N709 C712 1.314 . S
N709 C713 1.279 . S
C710 C708 1.348 . S
C710 C712 1.353 . S
C710 H768 0.929 . S
C711 C708 1.356 . S
C711 C713 1.358 . S
C711 H769 0.930 . S
C712 N709 1.314 . S
C712 C710 1.353 . S
C712 H770 0.930 . S
C713 N709 1.279 . S
C713 C711 1.358 . S
C713 H771 0.930 . S
C714 C717 1.348 . S
C714 C718 1.356 . S
C714 O765 1.325 . S
C715 N716 1.279 . S
C715 C718 1.358 . S
C715 H772 0.930 . S
N716 C715 1.279 . S
N716 C719 1.314 . S
C717 C714 1.348 . S
C717 C719 1.353 . S
C717 H773 0.929 . S
C718 C714 1.356 . S
C718 C715 1.358 . S
C718 H774 0.930 . S
C719 N716 1.314 . S
C719 C717 1.353 . S
C719 H775 0.930 . S
C720 N721 1.314 . S
C720 C725 1.353 . S
C720 H726 0.930 . S
N721 Li704 1.990 . S
N721 C720 1.314 . S
N721 C723 1.279 . S
C722 C723 1.358 . S
C722 C724 1.356 . S
C722 H776 0.930 . S
C723 N721 1.279 . S
C723 C722 1.358 . S
C723 H727 0.930 1_545 S
C724 C722 1.356 . S
C724 C725 1.348 . S
C725 C720 1.353 . S
C725 C724 1.348 . S
C725 H777 0.929 . S
H726 C720 0.930 . S
H727 C723 0.930 1_565 S
C728 N729 1.314 . S
C728 C730 1.353 . S
C728 H734 0.930 . S
N729 Li705 1.990 . S
N729 C728 1.314 . S
N729 C732 1.279 . S
C730 C728 1.353 . S
C730 C733 1.348 . S
C730 H778 0.929 . S
C731 C732 1.358 . S
C731 C733 1.356 . S
C731 H779 0.930 . S
C732 N729 1.279 . S
C732 C731 1.358 . S
C732 H735 0.930 . S
C733 C730 1.348 . S
C733 C731 1.356 . S
H734 C728 0.930 . S
H735 C732 0.930 . S
C736 C738 1.348 . S
C736 C739 1.356 . S
C736 O766 1.325 . S
N737 C740 1.314 . S
N737 C741 1.279 . S
C738 C736 1.348 . S
C738 C740 1.353 . S
C738 H780 0.929 . S
C739 C736 1.356 . S
C739 C741 1.358 . S
C739 H781 0.930 . S
C740 N737 1.314 . S
C740 C738 1.353 . S
C740 H782 0.930 . S
C741 N737 1.279 . S
C741 C739 1.358 . S
C741 H783 0.930 . S
C742 C743 1.348 . S
C742 C744 1.356 . S
C742 O767 1.325 . S
C743 C742 1.348 . S
C743 C745 1.353 . S
C743 H784 0.929 . S
C744 C742 1.356 . S
C744 C746 1.358 1_545 S
C744 H785 0.931 1_545 S
C745 C743 1.353 . S
C745 N747 1.318 . S
C745 H786 0.930 . S
C746 C744 1.358 1_565 S
C746 N747 1.271 1_565 S
C746 H787 0.930 . S
N747 C745 1.318 . S
N747 C746 1.271 1_545 S
C748 C750 1.353 . S
C748 N751 1.314 1_565 S
C748 H754 0.930 . S
C749 N751 1.279 . S
C749 C752 1.358 . S
C749 H755 0.930 . S
C750 C748 1.353 . S
C750 C753 1.348 1_565 S
C750 H788 0.929 . S
N751 Li706 1.990 . S
N751 C748 1.314 1_545 S
N751 C749 1.279 . S
C752 C749 1.358 . S
C752 C753 1.356 . S
C752 H789 0.930 . S
C753 C750 1.348 1_545 S
C753 C752 1.356 . S
H754 C748 0.930 . S
H755 C749 0.930 . S
C756 N757 1.314 . S
C756 C758 1.353 . S
C756 H762 0.930 . S
N757 Li707 1.990 . S
N757 C756 1.314 . S
N757 C760 1.279 . S
C758 C756 1.353 . S
C758 C761 1.348 . S
C758 H790 0.929 . S
C759 C760 1.358 . S
C759 C761 1.356 . S
C759 H791 0.930 . S
C760 N757 1.279 . S
C760 C759 1.358 . S
C760 H763 0.930 . S
C761 C758 1.348 . S
C761 C759 1.356 . S
H762 C756 0.930 . S
H763 C760 0.930 . S
O764 Li704 1.956 1_565 S
O764 Li705 1.970 . S
O764 Li706 1.961 1_565 S
O764 C708 1.325 . S
O765 Li704 1.970 . S
O765 Li705 1.956 1_545 S
O765 Li707 1.961 . S
O765 C714 1.325 . S
O766 Li704 1.961 . S
O766 Li706 1.956 . S
O766 Li707 1.970 . S
O766 C736 1.325 . S
O767 Li705 1.961 1_545 S
O767 Li706 1.970 . S
O767 Li707 1.956 . S
O767 C742 1.325 . S
H768 C710 0.929 . S
H769 C711 0.930 . S
H770 C712 0.930 . S
H771 C713 0.930 . S
H772 C715 0.930 . S
H773 C717 0.929 . S
H774 C718 0.930 . S
H775 C719 0.930 . S
H776 C722 0.930 . S
H777 C725 0.929 . S
H778 C730 0.929 . S
H779 C731 0.930 . S
H780 C738 0.929 . S
H781 C739 0.930 . S
H782 C740 0.930 . S
H783 C741 0.930 . S
H784 C743 0.929 . S
H785 C744 0.931 1_565 S
H786 C745 0.930 . S
H787 C746 0.930 . S
H788 C750 0.929 . S
H789 C752 0.930 . S
H790 C758 0.929 . S
H791 C759 0.930 . S
Li792 N809 1.990 . S
Li792 O852 1.956 . S
Li792 O853 1.970 . S
Li792 O854 1.961 . S
Li793 N817 1.990 . S
Li793 O852 1.970 . S
Li793 O853 1.956 . S
Li793 O855 1.961 . S
Li794 N839 1.990 . S
Li794 O852 1.961 . S
Li794 O854 1.956 . S
Li794 O855 1.970 . S
Li795 N845 1.990 . S
Li795 O853 1.961 . S
Li795 O854 1.970 . S
Li795 O855 1.956 . S
C796 C798 1.348 . S
C796 C799 1.356 . S
C796 O852 1.325 . S
N797 C800 1.314 . S
N797 C801 1.279 . S
C798 C796 1.348 . S
C798 C800 1.353 . S
C798 H856 0.929 . S
C799 C796 1.356 . S
C799 C801 1.358 . S
C799 H857 0.930 . S
C800 N797 1.314 . S
C800 C798 1.353 . S
C800 H858 0.930 . S
C801 N797 1.279 . S
C801 C799 1.358 . S
C801 H859 0.930 . S
C802 C805 1.348 . S
C802 C806 1.356 . S
C802 O853 1.325 . S
C803 N804 1.279 . S
C803 C806 1.358 . S
C803 H860 0.930 . S
N804 C803 1.279 . S
N804 C807 1.314 . S
C805 C802 1.348 . S
C805 C807 1.353 . S
C805 H861 0.929 . S
C806 C802 1.356 . S
C806 C803 1.358 . S
C806 H862 0.930 . S
C807 N804 1.314 . S
C807 C805 1.353 . S
C807 H863 0.930 . S
C808 N809 1.314 . S
C808 C813 1.353 . S
C808 H814 0.930 . S
N809 Li792 1.990 . S
N809 C808 1.314 . S
N809 C811 1.279 . S
C810 C811 1.358 . S
C810 C812 1.356 . S
C810 H864 0.930 . S
C811 N809 1.279 . S
C811 C810 1.358 . S
C811 H815 0.930 . S
C812 C810 1.356 . S
C812 C813 1.348 . S
C813 C808 1.353 . S
C813 C812 1.348 . S
C813 H865 0.929 . S
H814 C808 0.930 . S
H815 C811 0.930 . S
C816 N817 1.314 . S
C816 C818 1.353 . S
C816 H822 0.930 . S
N817 Li793 1.990 . S
N817 C816 1.314 . S
N817 C820 1.279 . S
C818 C816 1.353 . S
C818 C821 1.348 . S
C818 H866 0.929 . S
C819 C820 1.358 . S
C819 C821 1.356 . S
C819 H867 0.930 . S
C820 N817 1.279 . S
C820 C819 1.358 . S
C820 H823 0.930 . S
C821 C818 1.348 . S
C821 C819 1.356 . S
H822 C816 0.930 . S
H823 C820 0.930 . S
C824 C826 1.348 . S
C824 C827 1.356 . S
C824 O854 1.325 . S
N825 C828 1.314 . S
N825 C829 1.279 . S
C826 C824 1.348 . S
C826 C828 1.353 . S
C826 H868 0.929 . S
C827 C824 1.356 . S
C827 C829 1.358 . S
C827 H869 0.930 . S
C828 N825 1.314 . S
C828 C826 1.353 . S
C828 H870 0.930 . S
C829 N825 1.279 . S
C829 C827 1.358 . S
C829 H871 0.930 . S
C830 C831 1.348 . S
C830 C832 1.356 . S
C830 O855 1.325 . S
C831 C830 1.348 . S
C831 C833 1.353 . S
C831 H872 0.929 . S
C832 C830 1.356 . S
C832 C834 1.358 . S
C832 H873 0.930 . S
C833 C831 1.353 . S
C833 N835 1.314 . S
C833 H874 0.930 . S
C834 C832 1.358 . S
C834 N835 1.279 . S
C834 H875 0.930 . S
N835 C833 1.314 . S
N835 C834 1.279 . S
C836 C838 1.353 . S
C836 N839 1.314 . S
C836 H842 0.930 . S
C837 N839 1.279 . S
C837 C840 1.358 . S
C837 H843 0.930 . S
C838 C836 1.353 . S
C838 C841 1.348 . S
C838 H876 0.929 . S
N839 Li794 1.990 . S
N839 C836 1.314 . S
N839 C837 1.279 . S
C840 C837 1.358 . S
C840 C841 1.356 . S
C840 H877 0.930 . S
C841 C838 1.348 . S
C841 C840 1.356 . S
H842 C836 0.930 . S
H843 C837 0.930 . S
C844 N845 1.314 . S
C844 C846 1.353 . S
C844 H850 0.930 . S
N845 Li795 1.990 . S
N845 C844 1.314 . S
N845 C848 1.279 . S
C846 C844 1.353 . S
C846 C849 1.348 . S
C846 H878 0.929 . S
C847 C848 1.358 . S
C847 C849 1.356 . S
C847 H879 0.930 . S
C848 N845 1.279 . S
C848 C847 1.358 . S
C848 H851 0.930 . S
C849 C846 1.348 . S
C849 C847 1.356 . S
H850 C844 0.930 . S
H851 C848 0.930 . S
O852 Li792 1.956 . S
O852 Li793 1.970 . S
O852 Li794 1.961 . S
O852 C796 1.325 . S
O853 Li792 1.970 . S
O853 Li793 1.956 . S
O853 Li795 1.961 . S
O853 C802 1.325 . S
O854 Li792 1.961 . S
O854 Li794 1.956 . S
O854 Li795 1.970 . S
O854 C824 1.325 . S
O855 Li793 1.961 . S
O855 Li794 1.970 . S
O855 Li795 1.956 . S
O855 C830 1.325 . S
H856 C798 0.929 . S
H857 C799 0.930 . S
H858 C800 0.930 . S
H859 C801 0.930 . S
H860 C803 0.930 . S
H861 C805 0.929 . S
H862 C806 0.930 . S
H863 C807 0.930 . S
H864 C810 0.930 . S
H865 C813 0.929 . S
H866 C818 0.929 . S
H867 C819 0.930 . S
H868 C826 0.929 . S
H869 C827 0.930 . S
H870 C828 0.930 . S
H871 C829 0.930 . S
H872 C831 0.929 . S
H873 C832 0.930 . S
H874 C833 0.930 . S
H875 C834 0.930 . S
H876 C838 0.929 . S
H877 C840 0.930 . S
H878 C846 0.929 . S
H879 C847 0.930 . S
Li880 N897 1.990 . S
Li880 O940 1.956 . S
Li880 O941 1.970 . S
Li880 O942 1.977 . S
Li881 N905 1.990 . S
Li881 O940 1.966 . S
Li881 O941 1.982 . S
Li881 O943 1.938 1_545 S
Li882 N927 1.990 . S
Li882 O940 1.961 1_565 S
Li882 O942 1.935 1_565 S
Li882 O943 1.970 . S
Li883 N933 1.990 . S
Li883 O941 1.961 1_565 S
Li883 O942 1.972 1_565 S
Li883 O943 1.956 . S
C884 C886 1.348 . S
C884 C887 1.356 . S
C884 O940 1.325 . S
N885 C888 1.314 . S
N885 C889 1.279 . S
C886 C884 1.348 . S
C886 C888 1.353 . S
C886 H944 0.929 . S
C887 C884 1.356 . S
C887 C889 1.358 . S
C887 H945 0.930 . S
C888 N885 1.314 . S
C888 C886 1.353 . S
C888 H946 0.930 . S
C889 N885 1.279 . S
C889 C887 1.358 . S
C889 H947 0.930 . S
C890 C893 1.348 . S
C890 C894 1.356 . S
C890 O941 1.325 . S
C891 N892 1.279 . S
C891 C894 1.358 . S
C891 H948 0.930 . S
N892 C891 1.279 . S
N892 C895 1.314 . S
C893 C890 1.348 . S
C893 C895 1.353 . S
C893 H949 0.929 . S
C894 C890 1.356 . S
C894 C891 1.358 . S
C894 H950 0.930 . S
C895 N892 1.314 . S
C895 C893 1.353 . S
C895 H951 0.930 . S
C896 N897 1.314 . S
C896 C901 1.353 . S
C896 H902 0.930 . S
N897 Li880 1.990 . S
N897 C896 1.314 . S
N897 C899 1.279 . S
C898 C899 1.358 . S
C898 C900 1.356 . S
C898 H952 0.930 . S
C899 N897 1.279 . S
C899 C898 1.358 . S
C899 H903 0.930 . S
C900 C898 1.356 . S
C900 C901 1.348 . S
C901 C896 1.353 . S
C901 C900 1.348 . S
C901 H953 0.929 . S
H902 C896 0.930 . S
H903 C899 0.930 . S
C904 N905 1.280 1_565 S
C904 C906 1.353 . S
C904 H910 0.930 . S
N905 Li881 1.990 . S
N905 C904 1.280 1_545 S
N905 C908 1.312 . S
C906 C904 1.353 . S
C906 C909 1.333 1_565 S
C906 H954 0.929 . S
C907 C908 1.358 . S
C907 C909 1.371 . S
C907 H955 0.930 . S
C908 N905 1.312 . S
C908 C907 1.358 . S
C908 H911 0.930 . S
C909 C906 1.333 1_545 S
C909 C907 1.371 . S
H910 C904 0.930 . S
H911 C908 0.930 . S
C912 C914 1.348 1_545 S
C912 C915 1.356 . S
C912 O942 1.325 . S
N913 C916 1.314 . S
N913 C917 1.279 1_565 S
C914 C912 1.348 1_565 S
C914 C916 1.353 . S
C914 H956 0.929 . S
C915 C912 1.356 . S
C915 C917 1.358 . S
C915 H957 0.930 . S
C916 N913 1.314 . S
C916 C914 1.353 . S
C916 H958 0.930 . S
C917 N913 1.279 1_545 S
C917 C915 1.358 . S
C917 H959 0.930 . S
C918 C919 1.348 . S
C918 C920 1.356 . S
C918 O943 1.325 . S
C919 C918 1.348 . S
C919 C921 1.353 . S
C919 H960 0.929 . S
C920 C918 1.356 . S
C920 C922 1.358 . S
C920 H961 0.930 . S
C921 C919 1.353 . S
C921 N923 1.314 . S
C921 H962 0.930 . S
C922 C920 1.358 . S
C922 N923 1.279 . S
C922 H963 0.930 . S
N923 C921 1.314 . S
N923 C922 1.279 . S
C924 C926 1.353 . S
C924 N927 1.314 . S
C924 H930 0.930 . S
C925 N927 1.279 . S
C925 C928 1.358 . S
C925 H931 0.930 . S
C926 C924 1.353 . S
C926 C929 1.348 . S
C926 H964 0.929 . S
N927 Li882 1.990 . S
N927 C924 1.314 . S
N927 C925 1.279 . S
C928 C925 1.358 . S
C928 C929 1.356 . S
C928 H965 0.930 . S
C929 C926 1.348 . S
C929 C928 1.356 . S
H930 C924 0.930 . S
H931 C925 0.930 . S
C932 N933 1.314 1_545 S
C932 C934 1.353 . S
C932 H938 0.930 . S
N933 Li883 1.990 . S
N933 C932 1.314 1_565 S
N933 C936 1.279 . S
C934 C932 1.353 . S
C934 C937 1.348 1_545 S
C934 H966 0.929 . S
C935 C936 1.358 . S
C935 C937 1.356 . S
C935 H967 0.930 . S
C936 N933 1.279 . S
C936 C935 1.358 . S
C936 H939 0.930 . S
C937 C934 1.348 1_565 S
C937 C935 1.356 . S
H938 C932 0.930 . S
H939 C936 0.930 . S
O940 Li880 1.956 . S
O940 Li881 1.966 . S
O940 Li882 1.961 1_545 S
O940 C884 1.325 . S
O941 Li880 1.970 . S
O941 Li881 1.982 . S
O941 Li883 1.961 1_545 S
O941 C890 1.325 . S
O942 Li880 1.977 . S
O942 Li882 1.935 1_545 S
O942 Li883 1.972 1_545 S
O942 C912 1.325 . S
O943 Li881 1.938 1_565 S
O943 Li882 1.970 . S
O943 Li883 1.956 . S
O943 C918 1.325 . S
H944 C886 0.929 . S
H945 C887 0.930 . S
H946 C888 0.930 . S
H947 C889 0.930 . S
H948 C891 0.930 . S
H949 C893 0.929 . S
H950 C894 0.930 . S
H951 C895 0.930 . S
H952 C898 0.930 . S
H953 C901 0.929 . S
H954 C906 0.929 . S
H955 C907 0.930 . S
H956 C914 0.929 . S
H957 C915 0.930 . S
H958 C916 0.930 . S
H959 C917 0.930 . S
H960 C919 0.929 . S
H961 C920 0.930 . S
H962 C921 0.930 . S
H963 C922 0.930 . S
H964 C926 0.929 . S
H965 C928 0.930 . S
H966 C934 0.929 . S
H967 C935 0.930 . S
Li968 N985 1.990 . S
Li968 O1028 1.956 . S
Li968 O1029 1.970 . S
Li968 O1030 1.961 1_554 S
Li969 N993 1.990 . S
Li969 O1028 1.970 . S
Li969 O1029 1.956 . S
Li969 O1031 1.961 . S
Li970 N1015 1.990 . S
Li970 O1028 1.961 . S
Li970 O1030 1.956 1_554 S
Li970 O1031 1.970 . S
Li971 N1021 1.990 . S
Li971 O1029 1.961 1_556 S
Li971 O1030 1.970 . S
Li971 O1031 1.956 1_556 S
C972 C974 1.348 . S
C972 C975 1.356 . S
C972 O1028 1.325 . S
N973 C976 1.314 1_545 S
N973 C977 1.279 . S
C974 C972 1.348 . S
C974 C976 1.353 . S
C974 H1032 0.929 . S
C975 C972 1.356 . S
C975 C977 1.358 1_565 S
C975 H1033 0.930 1_565 S
C976 N973 1.314 1_565 S
C976 C974 1.353 . S
C976 H1034 0.930 . S
C977 N973 1.279 . S
C977 C975 1.358 1_545 S
C977 H1035 0.930 . S
C978 C981 1.348 . S
C978 C982 1.356 1_554 S
C978 O1029 1.325 . S
C979 N980 1.279 . S
C979 C982 1.358 . S
C979 H1036 0.930 . S
N980 C979 1.279 . S
N980 C983 1.314 1_556 S
C981 C978 1.348 . S
C981 C983 1.353 . S
C981 H1037 0.929 . S
C982 C978 1.356 1_556 S
C982 C979 1.358 . S
C982 H1038 0.930 . S
C983 N980 1.314 1_554 S
C983 C981 1.353 . S
C983 H1039 0.930 . S
C984 N985 1.314 1_556 S
C984 C989 1.353 . S
C984 H990 0.930 . S
N985 Li968 1.990 . S
N985 C984 1.314 1_554 S
N985 C987 1.279 . S
C986 C987 1.358 . S
C986 C988 1.356 . S
C986 H1040 0.930 1_565 S
C987 N985 1.279 . S
C987 C986 1.358 . S
C987 H991 0.930 . S
C988 C986 1.356 . S
C988 C989 1.348 1_554 S
C989 C984 1.353 . S
C989 C988 1.348 1_556 S
C989 H1041 0.929 . S
H990 C984 0.930 . S
H991 C987 0.930 . S
C992 N993 1.314 . S
C992 C994 1.353 . S
C992 H998 0.930 . S
N993 Li969 1.990 . S
N993 C992 1.314 . S
N993 C996 1.279 . S
C994 C992 1.353 . S
C994 C997 1.348 . S
C994 H1042 0.929 . S
C995 C996 1.358 . S
C995 C997 1.356 . S
C995 H1043 0.930 . S
C996 N993 1.279 . S
C996 C995 1.358 . S
C996 H999 0.930 . S
C997 C994 1.348 . S
C997 C995 1.356 . S
H998 C992 0.930 . S
H999 C996 0.930 . S
C1000 C1002 1.348 . S
C1000 C1003 1.356 . S
C1000 O1030 1.325 . S
N1001 C1004 1.314 . S
N1001 C1005 1.276 1_565 S
C1002 C1000 1.348 . S
C1002 C1004 1.353 . S
C1002 H1044 0.929 . S
C1003 C1000 1.356 . S
C1003 C1005 1.348 1_565 S
C1003 H1045 0.930 . S
C1004 N1001 1.314 . S
C1004 C1002 1.353 . S
C1004 H1046 0.930 . S
C1005 N1001 1.276 1_545 S
C1005 C1003 1.348 1_545 S
C1005 H1047 0.946 . S
C1006 C1007 1.356 . S
C1006 C1008 1.356 . S
C1006 O1031 1.325 . S
C1007 C1006 1.356 . S
C1007 C1009 1.356 1_554 S
C1007 H1048 0.921 1_554 S
C1008 C1006 1.356 . S
C1008 C1010 1.358 . S
C1008 H1049 0.930 . S
C1009 C1007 1.356 1_556 S
C1009 N1011 1.290 1_556 S
C1009 H1050 0.944 . S
C1010 C1008 1.358 . S
C1010 N1011 1.294 . S
C1010 H1051 0.930 . S
N1011 C1009 1.290 1_554 S
N1011 C1010 1.294 . S
C1012 C1014 1.353 1_565 S
C1012 N1015 1.314 . S
C1012 H1018 0.930 . S
C1013 N1015 1.279 1_556 S
C1013 C1016 1.363 1_566 S
C1013 H1019 0.930 . S
C1014 C1012 1.353 1_545 S
C1014 C1017 1.348 . S
C1014 H1052 0.929 . S
N1015 Li970 1.990 . S
N1015 C1012 1.314 . S
N1015 C1013 1.279 1_554 S
C1016 C1013 1.363 1_544 S
C1016 C1017 1.389 . S
C1016 H1053 0.893 1_554 S
C1017 C1014 1.348 . S
C1017 C1016 1.389 . S
H1018 C1012 0.930 . S
H1019 C1013 0.930 . S
C1020 N1021 1.314 . S
C1020 C1022 1.353 . S
C1020 H1026 0.930 . S
N1021 Li971 1.990 . S
N1021 C1020 1.314 . S
N1021 C1024 1.279 . S
C1022 C1020 1.353 . S
C1022 C1025 1.348 . S
C1022 H1054 0.929 . S
C1023 C1024 1.358 . S
C1023 C1025 1.356 . S
C1023 H1055 0.930 . S
C1024 N1021 1.279 . S
C1024 C1023 1.358 . S
C1024 H1027 0.930 . S
C1025 C1022 1.348 . S
C1025 C1023 1.356 . S
H1026 C1020 0.930 . S
H1027 C1024 0.930 . S
O1028 Li968 1.956 . S
O1028 Li969 1.970 . S
O1028 Li970 1.961 . S
O1028 C972 1.325 . S
O1029 Li968 1.970 . S
O1029 Li969 1.956 . S
O1029 Li971 1.961 1_554 S
O1029 C978 1.325 . S
O1030 Li968 1.961 1_556 S
O1030 Li970 1.956 1_556 S
O1030 Li971 1.970 . S
O1030 C1000 1.325 . S
O1031 Li969 1.961 . S
O1031 Li970 1.970 . S
O1031 Li971 1.956 1_554 S
O1031 C1006 1.325 . S
H1032 C974 0.929 . S
H1033 C975 0.930 1_545 S
H1034 C976 0.930 . S
H1035 C977 0.930 . S
H1036 C979 0.930 . S
H1037 C981 0.929 . S
H1038 C982 0.930 . S
H1039 C983 0.930 . S
H1040 C986 0.930 1_545 S
H1041 C989 0.929 . S
H1042 C994 0.929 . S
H1043 C995 0.930 . S
H1044 C1002 0.929 . S
H1045 C1003 0.930 . S
H1046 C1004 0.930 . S
H1047 C1005 0.946 . S
H1048 C1007 0.921 1_556 S
H1049 C1008 0.930 . S
H1050 C1009 0.944 . S
H1051 C1010 0.930 . S
H1052 C1014 0.929 . S
H1053 C1016 0.893 1_556 S
H1054 C1022 0.929 . S
H1055 C1023 0.930 . S
Li1056 N1073 1.990 . S
Li1056 O1116 1.956 . S
Li1056 O1117 1.970 . S
Li1056 O1118 1.961 . S
Li1057 N1081 1.990 . S
Li1057 O1116 1.970 . S
Li1057 O1117 1.956 . S
Li1057 O1119 1.961 . S
Li1058 N1103 1.990 . S
Li1058 O1116 1.961 . S
Li1058 O1118 1.956 . S
Li1058 O1119 1.970 . S
Li1059 N1109 1.990 1_554 S
Li1059 O1117 1.961 . S
Li1059 O1118 1.970 . S
Li1059 O1119 1.956 . S
C1060 C1062 1.348 . S
C1060 C1063 1.356 . S
C1060 O1116 1.325 . S
N1061 C1064 1.314 . S
N1061 C1065 1.279 . S
C1062 C1060 1.348 . S
C1062 C1064 1.353 . S
C1062 H1120 0.929 . S
C1063 C1060 1.356 . S
C1063 C1065 1.358 . S
C1063 H1121 0.930 . S
C1064 N1061 1.314 . S
C1064 C1062 1.353 . S
C1064 H1122 0.930 . S
C1065 N1061 1.279 . S
C1065 C1063 1.358 . S
C1065 H1123 0.930 . S
C1066 C1069 1.348 . S
C1066 C1070 1.356 . S
C1066 O1117 1.325 . S
C1067 N1068 1.279 . S
C1067 C1070 1.358 . S
C1067 H1124 0.930 . S
N1068 C1067 1.279 . S
N1068 C1071 1.314 . S
C1069 C1066 1.348 . S
C1069 C1071 1.353 . S
C1069 H1125 0.929 . S
C1070 C1066 1.356 . S
C1070 C1067 1.358 . S
C1070 H1126 0.930 . S
C1071 N1068 1.314 . S
C1071 C1069 1.353 . S
C1071 H1127 0.930 . S
C1072 N1073 1.314 . S
C1072 C1077 1.353 . S
C1072 H1078 0.930 . S
N1073 Li1056 1.990 . S
N1073 C1072 1.314 . S
N1073 C1075 1.279 . S
C1074 C1075 1.358 . S
C1074 C1076 1.356 . S
C1074 H1128 0.930 . S
C1075 N1073 1.279 . S
C1075 C1074 1.358 . S
C1075 H1079 0.930 . S
C1076 C1074 1.356 . S
C1076 C1077 1.348 . S
C1077 C1072 1.353 . S
C1077 C1076 1.348 . S
C1077 H1129 0.929 . S
H1078 C1072 0.930 . S
H1079 C1075 0.930 . S
C1080 N1081 1.314 . S
C1080 C1082 1.353 . S
C1080 H1086 0.930 . S
N1081 Li1057 1.990 . S
N1081 C1080 1.314 . S
N1081 C1084 1.279 . S
C1082 C1080 1.353 . S
C1082 C1085 1.348 . S
C1082 H1130 0.929 . S
C1083 C1084 1.358 . S
C1083 C1085 1.356 . S
C1083 H1131 0.930 . S
C1084 N1081 1.279 . S
C1084 C1083 1.358 . S
C1084 H1087 0.930 . S
C1085 C1082 1.348 . S
C1085 C1083 1.356 . S
H1086 C1080 0.930 . S
H1087 C1084 0.930 . S
C1088 C1090 1.348 . S
C1088 C1091 1.356 . S
C1088 O1118 1.325 1_556 S
N1089 C1092 1.314 . S
N1089 C1093 1.279 . S
C1090 C1088 1.348 . S
C1090 C1092 1.353 . S
C1090 H1132 0.929 . S
C1091 C1088 1.356 . S
C1091 C1093 1.396 . S
C1091 H1133 0.893 1_556 S
C1092 N1089 1.314 . S
C1092 C1090 1.353 . S
C1092 H1134 0.930 . S
C1093 N1089 1.279 . S
C1093 C1091 1.396 . S
C1093 H1135 0.930 . S
C1094 C1095 1.348 . S
C1094 C1096 1.356 . S
C1094 O1119 1.325 . S
C1095 C1094 1.348 . S
C1095 C1097 1.353 . S
C1095 H1136 0.929 . S
C1096 C1094 1.356 . S
C1096 C1098 1.358 . S
C1096 H1137 0.930 . S
C1097 C1095 1.353 . S
C1097 N1099 1.314 . S
C1097 H1138 0.930 . S
C1098 C1096 1.358 . S
C1098 N1099 1.279 . S
C1098 H1139 0.930 . S
N1099 C1097 1.314 . S
N1099 C1098 1.279 . S
C1100 C1102 1.353 . S
C1100 N1103 1.314 . S
C1100 H1106 0.930 . S
C1101 N1103 1.279 . S
C1101 C1104 1.358 . S
C1101 H1107 0.930 . S
C1102 C1100 1.353 . S
C1102 C1105 1.348 . S
C1102 H1140 0.929 . S
N1103 Li1058 1.990 . S
N1103 C1100 1.314 . S
N1103 C1101 1.279 . S
C1104 C1101 1.358 . S
C1104 C1105 1.356 . S
C1104 H1141 0.930 . S
C1105 C1102 1.348 . S
C1105 C1104 1.356 . S
H1106 C1100 0.930 . S
H1107 C1101 0.930 . S
C1108 N1109 1.314 . S
C1108 C1110 1.353 . S
C1108 H1114 0.930 . S
N1109 Li1059 1.990 1_556 S
N1109 C1108 1.314 . S
N1109 C1112 1.279 . S
C1110 C1108 1.353 . S
C1110 C1113 1.348 . S
C1110 H1142 0.929 . S
C1111 C1112 1.358 . S
C1111 C1113 1.356 . S
C1111 H1143 0.930 . S
C1112 N1109 1.279 . S
C1112 C1111 1.358 . S
C1112 H1115 0.930 . S
C1113 C1110 1.348 . S
C1113 C1111 1.356 . S
H1114 C1108 0.930 . S
H1115 C1112 0.930 . S
O1116 Li1056 1.956 . S
O1116 Li1057 1.970 . S
O1116 Li1058 1.961 . S
O1116 C1060 1.325 . S
O1117 Li1056 1.970 . S
O1117 Li1057 1.956 . S
O1117 Li1059 1.961 . S
O1117 C1066 1.325 . S
O1118 Li1056 1.961 . S
O1118 Li1058 1.956 . S
O1118 Li1059 1.970 . S
O1118 C1088 1.325 1_554 S
O1119 Li1057 1.961 . S
O1119 Li1058 1.970 . S
O1119 Li1059 1.956 . S
O1119 C1094 1.325 . S
H1120 C1062 0.929 . S
H1121 C1063 0.930 . S
H1122 C1064 0.930 . S
H1123 C1065 0.930 . S
H1124 C1067 0.930 . S
H1125 C1069 0.929 . S
H1126 C1070 0.930 . S
H1127 C1071 0.930 . S
H1128 C1074 0.930 . S
H1129 C1077 0.929 . S
H1130 C1082 0.929 . S
H1131 C1083 0.930 . S
H1132 C1090 0.929 . S
H1133 C1091 0.893 1_554 S
H1134 C1092 0.930 . S
H1135 C1093 0.930 . S
H1136 C1095 0.929 . S
H1137 C1096 0.930 . S
H1138 C1097 0.930 . S
H1139 C1098 0.930 . S
H1140 C1102 0.929 . S
H1141 C1104 0.930 . S
H1142 C1110 0.929 . S
H1143 C1111 0.930 . S
Li1144 N1161 1.990 . S
Li1144 O1204 1.956 . S
Li1144 O1205 1.970 . S
Li1144 O1206 1.961 . S
Li1145 N1169 1.990 . S
Li1145 O1204 1.970 . S
Li1145 O1205 1.956 . S
Li1145 O1207 1.961 1_554 S
Li1146 N1191 1.990 1_554 S
Li1146 O1204 1.961 . S
Li1146 O1206 1.956 . S
Li1146 O1207 1.970 1_554 S
Li1147 N1197 1.990 . S
Li1147 O1205 1.961 . S
Li1147 O1206 1.970 . S
Li1147 O1207 1.956 1_554 S
C1148 C1150 1.348 . S
C1148 C1151 1.356 . S
C1148 O1204 1.325 . S
N1149 C1152 1.314 . S
N1149 C1153 1.279 . S
C1150 C1148 1.348 . S
C1150 C1152 1.353 . S
C1150 H1208 0.929 . S
C1151 C1148 1.356 . S
C1151 C1153 1.358 . S
C1151 H1209 0.930 . S
C1152 N1149 1.314 . S
C1152 C1150 1.353 . S
C1152 H1210 0.930 . S
C1153 N1149 1.279 . S
C1153 C1151 1.358 . S
C1153 H1211 0.930 . S
C1154 C1157 1.348 . S
C1154 C1158 1.356 . S
C1154 O1205 1.325 . S
C1155 N1156 1.279 . S
C1155 C1158 1.358 . S
C1155 H1212 0.930 . S
N1156 C1155 1.279 . S
N1156 C1159 1.314 . S
C1157 C1154 1.348 . S
C1157 C1159 1.353 . S
C1157 H1213 0.929 . S
C1158 C1154 1.356 . S
C1158 C1155 1.358 . S
C1158 H1214 0.930 . S
C1159 N1156 1.314 . S
C1159 C1157 1.353 . S
C1159 H1215 0.930 . S
C1160 N1161 1.314 . S
C1160 C1165 1.353 . S
C1160 H1166 0.930 . S
N1161 Li1144 1.990 . S
N1161 C1160 1.314 . S
N1161 C1163 1.279 . S
C1162 C1163 1.358 . S
C1162 C1164 1.356 . S
C1162 H1216 0.930 . S
C1163 N1161 1.279 . S
C1163 C1162 1.358 . S
C1163 H1167 0.930 . S
C1164 C1162 1.356 . S
C1164 C1165 1.348 . S
C1165 C1160 1.353 . S
C1165 C1164 1.348 . S
C1165 H1217 0.929 . S
H1166 C1160 0.930 . S
H1167 C1163 0.930 . S
C1168 N1169 1.314 . S
C1168 C1170 1.353 . S
C1168 H1174 0.930 1_554 S
N1169 Li1145 1.990 . S
N1169 C1168 1.314 . S
N1169 C1172 1.279 . S
C1170 C1168 1.353 . S
C1170 C1173 1.348 . S
C1170 H1218 0.929 1_554 S
C1171 C1172 1.358 . S
C1171 C1173 1.356 . S
C1171 H1219 0.930 . S
C1172 N1169 1.279 . S
C1172 C1171 1.358 . S
C1172 H1175 0.930 . S
C1173 C1170 1.348 . S
C1173 C1171 1.356 . S
H1174 C1168 0.930 1_556 S
H1175 C1172 0.930 . S
C1176 C1178 1.348 . S
C1176 C1179 1.356 . S
C1176 O1206 1.325 . S
N1177 C1180 1.314 . S
N1177 C1181 1.279 . S
C1178 C1176 1.348 . S
C1178 C1180 1.353 . S
C1178 H1220 0.929 . S
C1179 C1176 1.356 . S
C1179 C1181 1.358 . S
C1179 H1221 0.930 . S
C1180 N1177 1.314 . S
C1180 C1178 1.353 . S
C1180 H1222 0.930 . S
C1181 N1177 1.279 . S
C1181 C1179 1.358 . S
C1181 H1223 0.930 . S
C1182 C1183 1.348 . S
C1182 C1184 1.356 . S
C1182 O1207 1.325 . S
C1183 C1182 1.348 . S
C1183 C1185 1.353 . S
C1183 H1224 0.929 . S
C1184 C1182 1.356 . S
C1184 C1186 1.358 . S
C1184 H1225 0.930 . S
C1185 C1183 1.353 . S
C1185 N1187 1.314 . S
C1185 H1226 0.930 . S
C1186 C1184 1.358 . S
C1186 N1187 1.279 . S
C1186 H1227 0.930 . S
N1187 C1185 1.314 . S
N1187 C1186 1.279 . S
C1188 C1190 1.353 . S
C1188 N1191 1.314 . S
C1188 H1194 0.930 . S
C1189 N1191 1.279 . S
C1189 C1192 1.358 . S
C1189 H1195 0.930 . S
C1190 C1188 1.353 . S
C1190 C1193 1.348 . S
C1190 H1228 0.929 . S
N1191 Li1146 1.990 1_556 S
N1191 C1188 1.314 . S
N1191 C1189 1.279 . S
C1192 C1189 1.358 . S
C1192 C1193 1.356 . S
C1192 H1229 0.930 . S
C1193 C1190 1.348 . S
C1193 C1192 1.356 . S
H1194 C1188 0.930 . S
H1195 C1189 0.930 . S
C1196 N1197 1.314 . S
C1196 C1198 1.353 . S
C1196 H1202 0.930 . S
N1197 Li1147 1.990 . S
N1197 C1196 1.314 . S
N1197 C1200 1.279 1_554 S
C1198 C1196 1.353 . S
C1198 C1201 1.348 . S
C1198 H1230 0.929 . S
C1199 C1200 1.358 . S
C1199 C1201 1.356 1_556 S
C1199 H1231 0.930 . S
C1200 N1197 1.279 1_556 S
C1200 C1199 1.358 . S
C1200 H1203 0.930 . S
C1201 C1198 1.348 . S
C1201 C1199 1.356 1_554 S
H1202 C1196 0.930 . S
H1203 C1200 0.930 . S
O1204 Li1144 1.956 . S
O1204 Li1145 1.970 . S
O1204 Li1146 1.961 . S
O1204 C1148 1.325 . S
O1205 Li1144 1.970 . S
O1205 Li1145 1.956 . S
O1205 Li1147 1.961 . S
O1205 C1154 1.325 . S
O1206 Li1144 1.961 . S
O1206 Li1146 1.956 . S
O1206 Li1147 1.970 . S
O1206 C1176 1.325 . S
O1207 Li1145 1.961 1_556 S
O1207 Li1146 1.970 1_556 S
O1207 Li1147 1.956 1_556 S
O1207 C1182 1.325 . S
H1208 C1150 0.929 . S
H1209 C1151 0.930 . S
H1210 C1152 0.930 . S
H1211 C1153 0.930 . S
H1212 C1155 0.930 . S
H1213 C1157 0.929 . S
H1214 C1158 0.930 . S
H1215 C1159 0.930 . S
H1216 C1162 0.930 . S
H1217 C1165 0.929 . S
H1218 C1170 0.929 1_556 S
H1219 C1171 0.930 . S
H1220 C1178 0.929 . S
H1221 C1179 0.930 . S
H1222 C1180 0.930 . S
H1223 C1181 0.930 . S
H1224 C1183 0.929 . S
H1225 C1184 0.930 . S
H1226 C1185 0.930 . S
H1227 C1186 0.930 . S
H1228 C1190 0.929 . S
H1229 C1192 0.930 . S
H1230 C1198 0.929 . S
H1231 C1199 0.930 . S
Li1232 N1249 1.990 . S
Li1232 O1292 1.956 . S
Li1232 O1293 1.970 . S
Li1232 O1294 1.961 . S
Li1233 N1257 1.990 . S
Li1233 O1292 1.970 . S
Li1233 O1293 1.956 . S
Li1233 O1295 1.961 . S
Li1234 N1279 1.990 . S
Li1234 O1292 1.961 . S
Li1234 O1294 1.956 . S
Li1234 O1295 1.970 . S
Li1235 N1285 1.990 . S
Li1235 O1293 1.961 . S
Li1235 O1294 1.970 . S
Li1235 O1295 1.956 . S
C1236 C1238 1.348 . S
C1236 C1239 1.356 . S
C1236 O1292 1.325 . S
N1237 C1240 1.314 . S
N1237 C1241 1.279 . S
C1238 C1236 1.348 . S
C1238 C1240 1.353 . S
C1238 H1296 0.929 . S
C1239 C1236 1.356 . S
C1239 C1241 1.358 . S
C1239 H1297 0.930 . S
C1240 N1237 1.314 . S
C1240 C1238 1.353 . S
C1240 H1298 0.930 . S
C1241 N1237 1.279 . S
C1241 C1239 1.358 . S
C1241 H1299 0.930 . S
C1242 C1245 1.348 . S
C1242 C1246 1.356 . S
C1242 O1293 1.325 . S
C1243 N1244 1.279 . S
C1243 C1246 1.358 . S
C1243 H1300 0.930 . S
N1244 C1243 1.279 . S
N1244 C1247 1.314 . S
C1245 C1242 1.348 . S
C1245 C1247 1.353 . S
C1245 H1301 0.929 . S
C1246 C1242 1.356 . S
C1246 C1243 1.358 . S
C1246 H1302 0.930 . S
C1247 N1244 1.314 . S
C1247 C1245 1.353 . S
C1247 H1303 0.930 . S
C1248 N1249 1.314 . S
C1248 C1253 1.353 . S
C1248 H1254 0.930 . S
N1249 Li1232 1.990 . S
N1249 C1248 1.314 . S
N1249 C1251 1.279 . S
C1250 C1251 1.358 . S
C1250 C1252 1.356 . S
C1250 H1304 0.930 . S
C1251 N1249 1.279 . S
C1251 C1250 1.358 . S
C1251 H1255 0.930 . S
C1252 C1250 1.356 . S
C1252 C1253 1.348 . S
C1253 C1248 1.353 . S
C1253 C1252 1.348 . S
C1253 H1305 0.929 . S
H1254 C1248 0.930 . S
H1255 C1251 0.930 . S
C1256 N1257 1.314 . S
C1256 C1258 1.353 . S
C1256 H1262 0.930 . S
N1257 Li1233 1.990 . S
N1257 C1256 1.314 . S
N1257 C1260 1.279 . S
C1258 C1256 1.353 . S
C1258 C1261 1.348 . S
C1258 H1306 0.929 . S
C1259 C1260 1.358 . S
C1259 C1261 1.356 . S
C1259 H1307 0.930 . S
C1260 N1257 1.279 . S
C1260 C1259 1.358 . S
C1260 H1263 0.930 . S
C1261 C1258 1.348 . S
C1261 C1259 1.356 . S
H1262 C1256 0.930 . S
H1263 C1260 0.930 . S
C1264 C1266 1.348 . S
C1264 C1267 1.356 . S
C1264 O1294 1.325 . S
N1265 C1268 1.314 . S
N1265 C1269 1.279 . S
C1266 C1264 1.348 . S
C1266 C1268 1.353 . S
C1266 H1308 0.929 . S
C1267 C1264 1.356 . S
C1267 C1269 1.358 . S
C1267 H1309 0.930 . S
C1268 N1265 1.314 . S
C1268 C1266 1.353 . S
C1268 H1310 0.930 . S
C1269 N1265 1.279 . S
C1269 C1267 1.358 . S
C1269 H1311 0.930 . S
C1270 C1271 1.348 . S
C1270 C1272 1.356 . S
C1270 O1295 1.325 . S
C1271 C1270 1.348 . S
C1271 C1273 1.353 . S
C1271 H1312 0.929 . S
C1272 C1270 1.356 . S
C1272 C1274 1.358 . S
C1272 H1313 0.930 . S
C1273 C1271 1.353 . S
C1273 N1275 1.314 . S
C1273 H1314 0.930 . S
C1274 C1272 1.358 . S
C1274 N1275 1.279 . S
C1274 H1315 0.930 . S
N1275 C1273 1.314 . S
N1275 C1274 1.279 . S
C1276 C1278 1.353 . S
C1276 N1279 1.314 . S
C1276 H1282 0.930 . S
C1277 N1279 1.279 . S
C1277 C1280 1.358 . S
C1277 H1283 0.930 . S
C1278 C1276 1.353 . S
C1278 C1281 1.348 . S
C1278 H1316 0.929 . S
N1279 Li1234 1.990 . S
N1279 C1276 1.314 . S
N1279 C1277 1.279 . S
C1280 C1277 1.358 . S
C1280 C1281 1.356 . S
C1280 H1317 0.930 . S
C1281 C1278 1.348 . S
C1281 C1280 1.356 . S
H1282 C1276 0.930 . S
H1283 C1277 0.930 . S
C1284 N1285 1.314 . S
C1284 C1286 1.353 . S
C1284 H1290 0.930 . S
N1285 Li1235 1.990 . S
N1285 C1284 1.314 . S
N1285 C1288 1.279 . S
C1286 C1284 1.353 . S
C1286 C1289 1.348 . S
C1286 H1318 0.929 . S
C1287 C1288 1.358 . S
C1287 C1289 1.356 . S
C1287 H1319 0.930 . S
C1288 N1285 1.279 . S
C1288 C1287 1.358 . S
C1288 H1291 0.930 . S
C1289 C1286 1.348 . S
C1289 C1287 1.356 . S
H1290 C1284 0.930 . S
H1291 C1288 0.930 . S
O1292 Li1232 1.956 . S
O1292 Li1233 1.970 . S
O1292 Li1234 1.961 . S
O1292 C1236 1.325 . S
O1293 Li1232 1.970 . S
O1293 Li1233 1.956 . S
O1293 Li1235 1.961 . S
O1293 C1242 1.325 . S
O1294 Li1232 1.961 . S
O1294 Li1234 1.956 . S
O1294 Li1235 1.970 . S
O1294 C1264 1.325 . S
O1295 Li1233 1.961 . S
O1295 Li1234 1.970 . S
O1295 Li1235 1.956 . S
O1295 C1270 1.325 . S
H1296 C1238 0.929 . S
H1297 C1239 0.930 . S
H1298 C1240 0.930 . S
H1299 C1241 0.930 . S
H1300 C1243 0.930 . S
H1301 C1245 0.929 . S
H1302 C1246 0.930 . S
H1303 C1247 0.930 . S
H1304 C1250 0.930 . S
H1305 C1253 0.929 . S
H1306 C1258 0.929 . S
H1307 C1259 0.930 . S
H1308 C1266 0.929 . S
H1309 C1267 0.930 . S
H1310 C1268 0.930 . S
H1311 C1269 0.930 . S
H1312 C1271 0.929 . S
H1313 C1272 0.930 . S
H1314 C1273 0.930 . S
H1315 C1274 0.930 . S
H1316 C1278 0.929 . S
H1317 C1280 0.930 . S
H1318 C1286 0.929 . S
H1319 C1287 0.930 . S
Li1320 N1337 1.990 . S
Li1320 O1380 1.956 . S
Li1320 O1381 1.970 . S
Li1320 O1382 1.961 . S
Li1321 N1345 1.990 . S
Li1321 O1380 1.970 . S
Li1321 O1381 1.956 . S
Li1321 O1383 1.961 . S
Li1322 N1367 1.990 . S
Li1322 O1380 1.961 . S
Li1322 O1382 1.956 . S
Li1322 O1383 1.970 . S
Li1323 N1373 1.990 . S
Li1323 O1381 1.961 . S
Li1323 O1382 1.970 . S
Li1323 O1383 1.956 . S
C1324 C1326 1.348 . S
C1324 C1327 1.356 . S
C1324 O1380 1.325 . S
N1325 C1328 1.314 . S
N1325 C1329 1.279 . S
C1326 C1324 1.348 . S
C1326 C1328 1.353 . S
C1326 H1384 0.929 . S
C1327 C1324 1.356 . S
C1327 C1329 1.358 . S
C1327 H1385 0.930 . S
C1328 N1325 1.314 . S
C1328 C1326 1.353 . S
C1328 H1386 0.930 . S
C1329 N1325 1.279 . S
C1329 C1327 1.358 . S
C1329 H1387 0.930 . S
C1330 C1333 1.348 . S
C1330 C1334 1.356 . S
C1330 O1381 1.325 . S
C1331 N1332 1.279 . S
C1331 C1334 1.358 . S
C1331 H1388 0.930 . S
N1332 C1331 1.279 . S
N1332 C1335 1.314 . S
C1333 C1330 1.348 . S
C1333 C1335 1.353 . S
C1333 H1389 0.929 . S
C1334 C1330 1.356 . S
C1334 C1331 1.358 . S
C1334 H1390 0.930 . S
C1335 N1332 1.314 . S
C1335 C1333 1.353 . S
C1335 H1391 0.930 . S
C1336 N1337 1.314 . S
C1336 C1341 1.353 . S
C1336 H1342 0.930 . S
N1337 Li1320 1.990 . S
N1337 C1336 1.314 . S
N1337 C1339 1.279 . S
C1338 C1339 1.358 . S
C1338 C1340 1.356 . S
C1338 H1392 0.930 . S
C1339 N1337 1.279 . S
C1339 C1338 1.358 . S
C1339 H1343 0.930 . S
C1340 C1338 1.356 . S
C1340 C1341 1.348 . S
C1341 C1336 1.353 . S
C1341 C1340 1.348 . S
C1341 H1393 0.929 . S
H1342 C1336 0.930 . S
H1343 C1339 0.930 . S
C1344 N1345 1.314 . S
C1344 C1346 1.353 . S
C1344 H1350 0.930 . S
N1345 Li1321 1.990 . S
N1345 C1344 1.314 . S
N1345 C1348 1.279 . S
C1346 C1344 1.353 . S
C1346 C1349 1.348 . S
C1346 H1394 0.929 . S
C1347 C1348 1.358 . S
C1347 C1349 1.356 . S
C1347 H1395 0.930 . S
C1348 N1345 1.279 . S
C1348 C1347 1.358 . S
C1348 H1351 0.930 . S
C1349 C1346 1.348 . S
C1349 C1347 1.356 . S
H1350 C1344 0.930 . S
H1351 C1348 0.930 . S
C1352 C1354 1.348 . S
C1352 C1355 1.356 . S
C1352 O1382 1.325 . S
N1353 C1356 1.314 . S
N1353 C1357 1.279 . S
C1354 C1352 1.348 . S
C1354 C1356 1.353 . S
C1354 H1396 0.929 . S
C1355 C1352 1.356 . S
C1355 C1357 1.358 . S
C1355 H1397 0.930 . S
C1356 N1353 1.314 . S
C1356 C1354 1.353 . S
C1356 H1398 0.930 . S
C1357 N1353 1.279 . S
C1357 C1355 1.358 . S
C1357 H1399 0.930 . S
C1358 C1359 1.348 . S
C1358 C1360 1.356 . S
C1358 O1383 1.325 . S
C1359 C1358 1.348 . S
C1359 C1361 1.353 . S
C1359 H1400 0.929 . S
C1360 C1358 1.356 . S
C1360 C1362 1.358 . S
C1360 H1401 0.930 . S
C1361 C1359 1.353 . S
C1361 N1363 1.314 . S
C1361 H1402 0.930 . S
C1362 C1360 1.358 . S
C1362 N1363 1.279 . S
C1362 H1403 0.930 . S
N1363 C1361 1.314 . S
N1363 C1362 1.279 . S
C1364 C1366 1.353 . S
C1364 N1367 1.314 . S
C1364 H1370 0.930 . S
C1365 N1367 1.279 . S
C1365 C1368 1.358 . S
C1365 H1371 0.930 . S
C1366 C1364 1.353 . S
C1366 C1369 1.348 . S
C1366 H1404 0.929 . S
N1367 Li1322 1.990 . S
N1367 C1364 1.314 . S
N1367 C1365 1.279 . S
C1368 C1365 1.358 . S
C1368 C1369 1.356 . S
C1368 H1405 0.930 . S
C1369 C1366 1.348 . S
C1369 C1368 1.356 . S
H1370 C1364 0.930 . S
H1371 C1365 0.930 . S
C1372 N1373 1.314 . S
C1372 C1374 1.353 . S
C1372 H1378 0.930 . S
N1373 Li1323 1.990 . S
N1373 C1372 1.314 . S
N1373 C1376 1.279 . S
C1374 C1372 1.353 . S
C1374 C1377 1.348 . S
C1374 H1406 0.929 . S
C1375 C1376 1.358 . S
C1375 C1377 1.356 . S
C1375 H1407 0.930 . S
C1376 N1373 1.279 . S
C1376 C1375 1.358 . S
C1376 H1379 0.930 . S
C1377 C1374 1.348 . S
C1377 C1375 1.356 . S
H1378 C1372 0.930 . S
H1379 C1376 0.930 . S
O1380 Li1320 1.956 . S
O1380 Li1321 1.970 . S
O1380 Li1322 1.961 . S
O1380 C1324 1.325 . S
O1381 Li1320 1.970 . S
O1381 Li1321 1.956 . S
O1381 Li1323 1.961 . S
O1381 C1330 1.325 . S
O1382 Li1320 1.961 . S
O1382 Li1322 1.956 . S
O1382 Li1323 1.970 . S
O1382 C1352 1.325 . S
O1383 Li1321 1.961 . S
O1383 Li1322 1.970 . S
O1383 Li1323 1.956 . S
O1383 C1358 1.325 . S
H1384 C1326 0.929 . S
H1385 C1327 0.930 . S
H1386 C1328 0.930 . S
H1387 C1329 0.930 . S
H1388 C1331 0.930 . S
H1389 C1333 0.929 . S
H1390 C1334 0.930 . S
H1391 C1335 0.930 . S
H1392 C1338 0.930 . S
H1393 C1341 0.929 . S
H1394 C1346 0.929 . S
H1395 C1347 0.930 . S
H1396 C1354 0.929 . S
H1397 C1355 0.930 . S
H1398 C1356 0.930 . S
H1399 C1357 0.930 . S
H1400 C1359 0.929 . S
H1401 C1360 0.930 . S
H1402 C1361 0.930 . S
H1403 C1362 0.930 . S
H1404 C1366 0.929 . S
H1405 C1368 0.930 . S
H1406 C1374 0.929 . S
H1407 C1375 0.930 . S
Li1408 N1425 1.990 . S
Li1408 O1468 1.956 . S
Li1408 O1469 1.970 . S
Li1408 O1470 1.961 . S
Li1409 N1433 1.990 . S
Li1409 O1468 1.970 . S
Li1409 O1469 1.956 . S
Li1409 O1471 1.961 . S
Li1410 N1455 1.990 . S
Li1410 O1468 1.961 . S
Li1410 O1470 1.956 . S
Li1410 O1471 1.970 . S
Li1411 N1461 1.990 . S
Li1411 O1469 1.961 . S
Li1411 O1470 1.970 . S
Li1411 O1471 1.956 . S
C1412 C1414 1.348 . S
C1412 C1415 1.356 . S
C1412 O1468 1.325 . S
N1413 C1416 1.305 1_455 S
N1413 C1417 1.281 1_565 S
C1414 C1412 1.348 . S
C1414 C1416 1.353 1_545 S
C1414 H1472 0.929 . S
C1415 C1412 1.356 . S
C1415 C1417 1.358 1_655 S
C1415 H1473 0.930 1_655 S
C1416 N1413 1.305 1_655 S
C1416 C1414 1.353 1_565 S
C1416 H1474 0.930 . S
C1417 N1413 1.281 1_545 S
C1417 C1415 1.358 1_455 S
C1417 H1475 0.930 . S
C1418 C1421 1.348 . S
C1418 C1422 1.356 . S
C1418 O1469 1.325 . S
C1419 N1420 1.279 . S
C1419 C1422 1.358 . S
C1419 H1476 0.930 . S
N1420 C1419 1.279 . S
N1420 C1423 1.314 . S
C1421 C1418 1.348 . S
C1421 C1423 1.353 . S
C1421 H1477 0.929 . S
C1422 C1418 1.356 . S
C1422 C1419 1.358 . S
C1422 H1478 0.930 . S
C1423 N1420 1.314 . S
C1423 C1421 1.353 . S
C1423 H1479 0.930 . S
C1424 N1425 1.314 . S
C1424 C1429 1.353 1_655 S
C1424 H1430 0.930 . S
N1425 Li1408 1.990 . S
N1425 C1424 1.314 . S
N1425 C1427 1.279 . S
C1426 C1427 1.358 1_455 S
C1426 C1428 1.356 . S
C1426 H1480 0.930 . S
C1427 N1425 1.279 . S
C1427 C1426 1.358 1_655 S
C1427 H1431 0.930 . S
C1428 C1426 1.356 . S
C1428 C1429 1.348 . S
C1429 C1424 1.353 1_455 S
C1429 C1428 1.348 . S
C1429 H1481 0.929 . S
H1430 C1424 0.930 . S
H1431 C1427 0.930 . S
C1432 N1433 1.314 1_565 S
C1432 C1434 1.353 . S
C1432 H1438 0.934 . S
N1433 Li1409 1.990 . S
N1433 C1432 1.314 1_545 S
N1433 C1436 1.279 . S
C1434 C1432 1.353 . S
C1434 C1437 1.348 . S
C1434 H1482 0.929 . S
C1435 C1436 1.358 1_565 S
C1435 C1437 1.356 . S
C1435 H1483 0.930 . S
C1436 N1433 1.279 . S
C1436 C1435 1.358 1_545 S
C1436 H1439 0.930 . S
C1437 C1434 1.348 . S
C1437 C1435 1.356 . S
H1438 C1432 0.934 . S
H1439 C1436 0.930 . S
C1440 C1442 1.348 . S
C1440 C1443 1.356 1_655 S
C1440 O1470 1.325 . S
N1441 C1444 1.314 1_455 S
N1441 C1445 1.279 . S
C1442 C1440 1.348 . S
C1442 C1444 1.353 . S
C1442 H1484 0.929 . S
C1443 C1440 1.356 1_455 S
C1443 C1445 1.358 . S
C1443 H1485 0.930 . S
C1444 N1441 1.314 1_655 S
C1444 C1442 1.353 . S
C1444 H1486 0.930 . S
C1445 N1441 1.279 . S
C1445 C1443 1.358 . S
C1445 H1487 0.930 . S
C1446 C1447 1.348 . S
C1446 C1448 1.356 . S
C1446 O1471 1.325 . S
C1447 C1446 1.348 . S
C1447 C1449 1.353 . S
C1447 H1488 0.929 . S
C1448 C1446 1.356 . S
C1448 C1450 1.358 . S
C1448 H1489 0.930 . S
C1449 C1447 1.353 . S
C1449 N1451 1.314 . S
C1449 H1490 0.930 . S
C1450 C1448 1.358 . S
C1450 N1451 1.279 . S
C1450 H1491 0.930 . S
N1451 C1449 1.314 . S
N1451 C1450 1.279 . S
C1452 C1454 1.353 . S
C1452 N1455 1.314 . S
C1452 H1458 0.930 . S
C1453 N1455 1.279 . S
C1453 C1456 1.358 1_655 S
C1453 H1459 0.930 . S
C1454 C1452 1.353 . S
C1454 C1457 1.348 1_655 S
C1454 H1492 0.929 . S
N1455 Li1410 1.990 . S
N1455 C1452 1.314 . S
N1455 C1453 1.279 . S
C1456 C1453 1.358 1_455 S
C1456 C1457 1.356 . S
C1456 H1493 0.930 . S
C1457 C1454 1.348 1_455 S
C1457 C1456 1.356 . S
H1458 C1452 0.930 . S
H1459 C1453 0.930 . S
C1460 N1461 1.314 . S
C1460 C1462 1.353 . S
C1460 H1466 0.930 . S
N1461 Li1411 1.990 . S
N1461 C1460 1.314 . S
N1461 C1464 1.279 . S
C1462 C1460 1.353 . S
C1462 C1465 1.348 . S
C1462 H1494 0.929 . S
C1463 C1464 1.358 . S
C1463 C1465 1.356 . S
C1463 H1495 0.930 . S
C1464 N1461 1.279 . S
C1464 C1463 1.358 . S
C1464 H1467 0.930 . S
C1465 C1462 1.348 . S
C1465 C1463 1.356 . S
H1466 C1460 0.930 . S
H1467 C1464 0.930 . S
O1468 Li1408 1.956 . S
O1468 Li1409 1.970 . S
O1468 Li1410 1.961 . S
O1468 C1412 1.325 . S
O1469 Li1408 1.970 . S
O1469 Li1409 1.956 . S
O1469 Li1411 1.961 . S
O1469 C1418 1.325 . S
O1470 Li1408 1.961 . S
O1470 Li1410 1.956 . S
O1470 Li1411 1.970 . S
O1470 C1440 1.325 . S
O1471 Li1409 1.961 . S
O1471 Li1410 1.970 . S
O1471 Li1411 1.956 . S
O1471 C1446 1.325 . S
H1472 C1414 0.929 . S
H1473 C1415 0.930 1_455 S
H1474 C1416 0.930 . S
H1475 C1417 0.930 . S
H1476 C1419 0.930 . S
H1477 C1421 0.929 . S
H1478 C1422 0.930 . S
H1479 C1423 0.930 . S
H1480 C1426 0.930 . S
H1481 C1429 0.929 . S
H1482 C1434 0.929 . S
H1483 C1435 0.930 . S
H1484 C1442 0.929 . S
H1485 C1443 0.930 . S
H1486 C1444 0.930 . S
H1487 C1445 0.930 . S
H1488 C1447 0.929 . S
H1489 C1448 0.930 . S
H1490 C1449 0.930 . S
H1491 C1450 0.930 . S
H1492 C1454 0.929 . S
H1493 C1456 0.930 . S
H1494 C1462 0.929 . S
H1495 C1463 0.930 . S
Li1496 N1513 1.990 . S
Li1496 O1556 1.956 . S
Li1496 O1557 1.970 . S
Li1496 O1558 1.961 . S
Li1497 N1521 1.990 . S
Li1497 O1556 1.970 . S
Li1497 O1557 1.956 . S
Li1497 O1559 1.961 . S
Li1498 N1543 1.990 . S
Li1498 O1556 1.961 . S
Li1498 O1558 1.956 . S
Li1498 O1559 1.970 . S
Li1499 N1549 1.990 . S
Li1499 O1557 1.961 . S
Li1499 O1558 1.970 . S
Li1499 O1559 1.956 . S
C1500 C1502 1.348 . S
C1500 C1503 1.356 . S
C1500 O1556 1.325 . S
N1501 C1504 1.314 . S
N1501 C1505 1.279 . S
C1502 C1500 1.348 . S
C1502 C1504 1.353 . S
C1502 H1560 0.929 . S
C1503 C1500 1.356 . S
C1503 C1505 1.358 . S
C1503 H1561 0.930 . S
C1504 N1501 1.314 . S
C1504 C1502 1.353 . S
C1504 H1562 0.930 . S
C1505 N1501 1.279 . S
C1505 C1503 1.358 . S
C1505 H1563 0.930 . S
C1506 C1509 1.348 . S
C1506 C1510 1.356 . S
C1506 O1557 1.325 . S
C1507 N1508 1.279 . S
C1507 C1510 1.358 . S
C1507 H1564 0.930 . S
N1508 C1507 1.279 . S
N1508 C1511 1.314 . S
C1509 C1506 1.348 . S
C1509 C1511 1.353 . S
C1509 H1565 0.929 . S
C1510 C1506 1.356 . S
C1510 C1507 1.358 . S
C1510 H1566 0.930 . S
C1511 N1508 1.314 . S
C1511 C1509 1.353 . S
C1511 H1567 0.930 . S
C1512 N1513 1.314 . S
C1512 C1517 1.353 . S
C1512 H1518 0.930 . S
N1513 Li1496 1.990 . S
N1513 C1512 1.314 . S
N1513 C1515 1.279 . S
C1514 C1515 1.358 . S
C1514 C1516 1.356 . S
C1514 H1568 0.930 . S
C1515 N1513 1.279 . S
C1515 C1514 1.358 . S
C1515 H1519 0.930 . S
C1516 C1514 1.356 . S
C1516 C1517 1.348 . S
C1517 C1512 1.353 . S
C1517 C1516 1.348 . S
C1517 H1569 0.929 . S
H1518 C1512 0.930 . S
H1519 C1515 0.930 . S
C1520 N1521 1.314 . S
C1520 C1522 1.353 . S
C1520 H1526 0.930 . S
N1521 Li1497 1.990 . S
N1521 C1520 1.314 . S
N1521 C1524 1.279 . S
C1522 C1520 1.353 . S
C1522 C1525 1.348 . S
C1522 H1570 0.929 . S
C1523 C1524 1.358 . S
C1523 C1525 1.356 . S
C1523 H1571 0.930 . S
C1524 N1521 1.279 . S
C1524 C1523 1.358 . S
C1524 H1527 0.930 . S
C1525 C1522 1.348 . S
C1525 C1523 1.356 . S
H1526 C1520 0.930 . S
H1527 C1524 0.930 . S
C1528 C1530 1.348 . S
C1528 C1531 1.356 . S
C1528 O1558 1.325 . S
N1529 C1532 1.314 . S
N1529 C1533 1.279 . S
C1530 C1528 1.348 . S
C1530 C1532 1.353 . S
C1530 H1572 0.929 . S
C1531 C1528 1.356 . S
C1531 C1533 1.358 . S
C1531 H1573 0.930 . S
C1532 N1529 1.314 . S
C1532 C1530 1.353 . S
C1532 H1574 0.930 . S
C1533 N1529 1.279 . S
C1533 C1531 1.358 . S
C1533 H1575 0.930 . S
C1534 C1535 1.348 . S
C1534 C1536 1.356 . S
C1534 O1559 1.325 . S
C1535 C1534 1.348 . S
C1535 C1537 1.353 . S
C1535 H1576 0.929 . S
C1536 C1534 1.356 . S
C1536 C1538 1.358 . S
C1536 H1577 0.930 . S
C1537 C1535 1.353 . S
C1537 N1539 1.314 . S
C1537 H1578 0.930 . S
C1538 C1536 1.358 . S
C1538 N1539 1.279 . S
C1538 H1579 0.930 . S
N1539 C1537 1.314 . S
N1539 C1538 1.279 . S
C1540 C1542 1.353 . S
C1540 N1543 1.314 . S
C1540 H1546 0.930 . S
C1541 N1543 1.279 . S
C1541 C1544 1.358 . S
C1541 H1547 0.930 . S
C1542 C1540 1.353 . S
C1542 C1545 1.348 . S
C1542 H1580 0.929 . S
N1543 Li1498 1.990 . S
N1543 C1540 1.314 . S
N1543 C1541 1.279 . S
C1544 C1541 1.358 . S
C1544 C1545 1.356 . S
C1544 H1581 0.930 . S
C1545 C1542 1.348 . S
C1545 C1544 1.356 . S
H1546 C1540 0.930 . S
H1547 C1541 0.930 . S
C1548 N1549 1.314 . S
C1548 C1550 1.353 . S
C1548 H1554 0.930 . S
N1549 Li1499 1.990 . S
N1549 C1548 1.314 . S
N1549 C1552 1.279 . S
C1550 C1548 1.353 . S
C1550 C1553 1.348 . S
C1550 H1582 0.929 . S
C1551 C1552 1.358 . S
C1551 C1553 1.356 . S
C1551 H1583 0.930 . S
C1552 N1549 1.279 . S
C1552 C1551 1.358 . S
C1552 H1555 0.930 . S
C1553 C1550 1.348 . S
C1553 C1551 1.356 . S
H1554 C1548 0.930 . S
H1555 C1552 0.930 . S
O1556 Li1496 1.956 . S
O1556 Li1497 1.970 . S
O1556 Li1498 1.961 . S
O1556 C1500 1.325 . S
O1557 Li1496 1.970 . S
O1557 Li1497 1.956 . S
O1557 Li1499 1.961 . S
O1557 C1506 1.325 . S
O1558 Li1496 1.961 . S
O1558 Li1498 1.956 . S
O1558 Li1499 1.970 . S
O1558 C1528 1.325 . S
O1559 Li1497 1.961 . S
O1559 Li1498 1.970 . S
O1559 Li1499 1.956 . S
O1559 C1534 1.325 . S
H1560 C1502 0.929 . S
H1561 C1503 0.930 . S
H1562 C1504 0.930 . S
H1563 C1505 0.930 . S
H1564 C1507 0.930 . S
H1565 C1509 0.929 . S
H1566 C1510 0.930 . S
H1567 C1511 0.930 . S
H1568 C1514 0.930 . S
H1569 C1517 0.929 . S
H1570 C1522 0.929 . S
H1571 C1523 0.930 . S
H1572 C1530 0.929 . S
H1573 C1531 0.930 . S
H1574 C1532 0.930 . S
H1575 C1533 0.930 . S
H1576 C1535 0.929 . S
H1577 C1536 0.930 . S
H1578 C1537 0.930 . S
H1579 C1538 0.930 . S
H1580 C1542 0.929 . S
H1581 C1544 0.930 . S
H1582 C1550 0.929 . S
H1583 C1551 0.930 . S
Li1584 N1601 1.990 . S
Li1584 O1644 1.956 . S
Li1584 O1645 1.970 . S
Li1584 O1646 1.961 . S
Li1585 N1609 1.990 . S
Li1585 O1644 1.970 . S
Li1585 O1645 1.956 . S
Li1585 O1647 1.961 . S
Li1586 N1631 1.990 . S
Li1586 O1644 1.961 . S
Li1586 O1646 1.956 . S
Li1586 O1647 1.970 . S
Li1587 N1637 1.990 . S
Li1587 O1645 1.961 . S
Li1587 O1646 1.970 . S
Li1587 O1647 1.956 . S
C1588 C1590 1.348 . S
C1588 C1591 1.356 . S
C1588 O1644 1.325 . S
N1589 C1592 1.314 . S
N1589 C1593 1.279 . S
C1590 C1588 1.348 . S
C1590 C1592 1.353 . S
C1590 H1648 0.929 . S
C1591 C1588 1.356 . S
C1591 C1593 1.358 . S
C1591 H1649 0.930 . S
C1592 N1589 1.314 . S
C1592 C1590 1.353 . S
C1592 H1650 0.930 . S
C1593 N1589 1.279 . S
C1593 C1591 1.358 . S
C1593 H1651 0.930 . S
C1594 C1597 1.348 . S
C1594 C1598 1.356 . S
C1594 O1645 1.325 . S
C1595 N1596 1.279 . S
C1595 C1598 1.358 . S
C1595 H1652 0.930 . S
N1596 C1595 1.279 . S
N1596 C1599 1.314 . S
C1597 C1594 1.348 . S
C1597 C1599 1.353 . S
C1597 H1653 0.929 . S
C1598 C1594 1.356 . S
C1598 C1595 1.358 . S
C1598 H1654 0.930 . S
C1599 N1596 1.314 . S
C1599 C1597 1.353 . S
C1599 H1655 0.930 . S
C1600 N1601 1.314 . S
C1600 C1605 1.353 . S
C1600 H1606 0.930 . S
N1601 Li1584 1.990 . S
N1601 C1600 1.314 . S
N1601 C1603 1.279 . S
C1602 C1603 1.358 . S
C1602 C1604 1.356 . S
C1602 H1656 0.930 . S
C1603 N1601 1.279 . S
C1603 C1602 1.358 . S
C1603 H1607 0.930 . S
C1604 C1602 1.356 . S
C1604 C1605 1.348 . S
C1605 C1600 1.353 . S
C1605 C1604 1.348 . S
C1605 H1657 0.929 . S
H1606 C1600 0.930 . S
H1607 C1603 0.930 . S
C1608 N1609 1.314 . S
C1608 C1610 1.353 . S
C1608 H1614 0.930 . S
N1609 Li1585 1.990 . S
N1609 C1608 1.314 . S
N1609 C1612 1.279 . S
C1610 C1608 1.353 . S
C1610 C1613 1.348 . S
C1610 H1658 0.929 . S
C1611 C1612 1.358 . S
C1611 C1613 1.356 . S
C1611 H1659 0.930 . S
C1612 N1609 1.279 . S
C1612 C1611 1.358 . S
C1612 H1615 0.930 . S
C1613 C1610 1.348 . S
C1613 C1611 1.356 . S
H1614 C1608 0.930 . S
H1615 C1612 0.930 . S
C1616 C1618 1.348 . S
C1616 C1619 1.356 . S
C1616 O1646 1.325 . S
N1617 C1620 1.314 . S
N1617 C1621 1.279 . S
C1618 C1616 1.348 . S
C1618 C1620 1.353 . S
C1618 H1660 0.929 . S
C1619 C1616 1.356 . S
C1619 C1621 1.358 . S
C1619 H1661 0.930 . S
C1620 N1617 1.314 . S
C1620 C1618 1.353 . S
C1620 H1662 0.930 . S
C1621 N1617 1.279 . S
C1621 C1619 1.358 . S
C1621 H1663 0.930 . S
C1622 C1623 1.348 . S
C1622 C1624 1.356 . S
C1622 O1647 1.325 . S
C1623 C1622 1.348 . S
C1623 C1625 1.353 . S
C1623 H1664 0.929 . S
C1624 C1622 1.356 . S
C1624 C1626 1.358 . S
C1624 H1665 0.930 . S
C1625 C1623 1.353 . S
C1625 N1627 1.314 . S
C1625 H1666 0.930 . S
C1626 C1624 1.358 . S
C1626 N1627 1.279 . S
C1626 H1667 0.930 . S
N1627 C1625 1.314 . S
N1627 C1626 1.279 . S
C1628 C1630 1.353 . S
C1628 N1631 1.314 . S
C1628 H1634 0.930 . S
C1629 N1631 1.279 . S
C1629 C1632 1.358 . S
C1629 H1635 0.930 . S
C1630 C1628 1.353 . S
C1630 C1633 1.348 . S
C1630 H1668 0.929 . S
N1631 Li1586 1.990 . S
N1631 C1628 1.314 . S
N1631 C1629 1.279 . S
C1632 C1629 1.358 . S
C1632 C1633 1.356 . S
C1632 H1669 0.930 . S
C1633 C1630 1.348 . S
C1633 C1632 1.356 . S
H1634 C1628 0.930 . S
H1635 C1629 0.930 . S
C1636 N1637 1.314 . S
C1636 C1638 1.353 . S
C1636 H1642 0.930 . S
N1637 Li1587 1.990 . S
N1637 C1636 1.314 . S
N1637 C1640 1.279 . S
C1638 C1636 1.353 . S
C1638 C1641 1.348 . S
C1638 H1670 0.929 . S
C1639 C1640 1.358 . S
C1639 C1641 1.356 . S
C1639 H1671 0.930 . S
C1640 N1637 1.279 . S
C1640 C1639 1.358 . S
C1640 H1643 0.930 . S
C1641 C1638 1.348 . S
C1641 C1639 1.356 . S
H1642 C1636 0.930 . S
H1643 C1640 0.930 . S
O1644 Li1584 1.956 . S
O1644 Li1585 1.970 . S
O1644 Li1586 1.961 . S
O1644 C1588 1.325 . S
O1645 Li1584 1.970 . S
O1645 Li1585 1.956 . S
O1645 Li1587 1.961 . S
O1645 C1594 1.325 . S
O1646 Li1584 1.961 . S
O1646 Li1586 1.956 . S
O1646 Li1587 1.970 . S
O1646 C1616 1.325 . S
O1647 Li1585 1.961 . S
O1647 Li1586 1.970 . S
O1647 Li1587 1.956 . S
O1647 C1622 1.325 . S
H1648 C1590 0.929 . S
H1649 C1591 0.930 . S
H1650 C1592 0.930 . S
H1651 C1593 0.930 . S
H1652 C1595 0.930 . S
H1653 C1597 0.929 . S
H1654 C1598 0.930 . S
H1655 C1599 0.930 . S
H1656 C1602 0.930 . S
H1657 C1605 0.929 . S
H1658 C1610 0.929 . S
H1659 C1611 0.930 . S
H1660 C1618 0.929 . S
H1661 C1619 0.930 . S
H1662 C1620 0.930 . S
H1663 C1621 0.930 . S
H1664 C1623 0.929 . S
H1665 C1624 0.930 . S
H1666 C1625 0.930 . S
H1667 C1626 0.930 . S
H1668 C1630 0.929 . S
H1669 C1632 0.930 . S
H1670 C1638 0.929 . S
H1671 C1639 0.930 . S
Li1672 N1689 1.990 . S
Li1672 O1732 1.956 . S
Li1672 O1733 1.970 . S
Li1672 O1734 1.961 . S
Li1673 N1697 1.990 . S
Li1673 O1732 1.970 . S
Li1673 O1733 1.956 . S
Li1673 O1735 1.961 . S
Li1674 N1719 1.990 . S
Li1674 O1732 1.961 . S
Li1674 O1734 1.956 . S
Li1674 O1735 1.970 . S
Li1675 N1725 1.990 . S
Li1675 O1733 1.961 . S
Li1675 O1734 1.970 . S
Li1675 O1735 1.956 . S
C1676 C1678 1.348 . S
C1676 C1679 1.356 . S
C1676 O1732 1.325 . S
N1677 C1680 1.314 . S
N1677 C1681 1.279 . S
C1678 C1676 1.348 . S
C1678 C1680 1.353 . S
C1678 H1736 0.929 . S
C1679 C1676 1.356 . S
C1679 C1681 1.358 . S
C1679 H1737 0.930 . S
C1680 N1677 1.314 . S
C1680 C1678 1.353 . S
C1680 H1738 0.930 . S
C1681 N1677 1.279 . S
C1681 C1679 1.358 . S
C1681 H1739 0.930 . S
C1682 C1685 1.348 . S
C1682 C1686 1.356 . S
C1682 O1733 1.325 . S
C1683 N1684 1.279 . S
C1683 C1686 1.358 . S
C1683 H1740 0.930 . S
N1684 C1683 1.279 . S
N1684 C1687 1.314 . S
C1685 C1682 1.348 . S
C1685 C1687 1.353 . S
C1685 H1741 0.929 . S
C1686 C1682 1.356 . S
C1686 C1683 1.358 . S
C1686 H1742 0.930 . S
C1687 N1684 1.314 . S
C1687 C1685 1.353 . S
C1687 H1743 0.930 . S
C1688 N1689 1.314 . S
C1688 C1693 1.353 . S
C1688 H1694 0.930 . S
N1689 Li1672 1.990 . S
N1689 C1688 1.314 . S
N1689 C1691 1.279 . S
C1690 C1691 1.358 . S
C1690 C1692 1.356 . S
C1690 H1744 0.930 . S
C1691 N1689 1.279 . S
C1691 C1690 1.358 . S
C1691 H1695 0.930 . S
C1692 C1690 1.356 . S
C1692 C1693 1.348 . S
C1693 C1688 1.353 . S
C1693 C1692 1.348 . S
C1693 H1745 0.929 . S
H1694 C1688 0.930 . S
H1695 C1691 0.930 . S
C1696 N1697 1.314 . S
C1696 C1698 1.353 . S
C1696 H1702 0.930 . S
N1697 Li1673 1.990 . S
N1697 C1696 1.314 . S
N1697 C1700 1.279 . S
C1698 C1696 1.353 . S
C1698 C1701 1.348 . S
C1698 H1746 0.929 . S
C1699 C1700 1.358 . S
C1699 C1701 1.356 . S
C1699 H1747 0.930 . S
C1700 N1697 1.279 . S
C1700 C1699 1.358 . S
C1700 H1703 0.930 . S
C1701 C1698 1.348 . S
C1701 C1699 1.356 . S
H1702 C1696 0.930 . S
H1703 C1700 0.930 . S
C1704 C1706 1.305 1_545 S
C1704 C1707 1.372 1_545 S
C1704 O1734 1.360 . S
N1705 C1708 1.314 . S
N1705 C1709 1.279 . S
C1706 C1704 1.305 1_565 S
C1706 C1708 1.353 . S
C1706 H1748 0.929 . S
C1707 C1704 1.372 1_565 S
C1707 C1709 1.396 . S
C1707 H1749 0.886 1_565 S
C1708 N1705 1.314 . S
C1708 C1706 1.353 . S
C1708 H1750 0.930 . S
C1709 N1705 1.279 . S
C1709 C1707 1.396 . S
C1709 H1751 0.930 . S
C1710 C1711 1.348 . S
C1710 C1712 1.356 . S
C1710 O1735 1.325 . S
C1711 C1710 1.348 . S
C1711 C1713 1.353 . S
C1711 H1752 0.929 . S
C1712 C1710 1.356 . S
C1712 C1714 1.358 . S
C1712 H1753 0.930 . S
C1713 C1711 1.353 . S
C1713 N1715 1.314 . S
C1713 H1754 0.930 . S
C1714 C1712 1.358 . S
C1714 N1715 1.279 . S
C1714 H1755 0.930 . S
N1715 C1713 1.314 . S
N1715 C1714 1.279 . S
C1716 C1718 1.353 . S
C1716 N1719 1.314 . S
C1716 H1722 0.930 . S
C1717 N1719 1.279 . S
C1717 C1720 1.358 . S
C1717 H1723 0.930 . S
C1718 C1716 1.353 . S
C1718 C1721 1.348 . S
C1718 H1756 0.929 . S
N1719 Li1674 1.990 . S
N1719 C1716 1.314 . S
N1719 C1717 1.279 . S
C1720 C1717 1.358 . S
C1720 C1721 1.356 . S
C1720 H1757 0.930 1_545 S
C1721 C1718 1.348 . S
C1721 C1720 1.356 . S
H1722 C1716 0.930 . S
H1723 C1717 0.930 . S
C1724 N1725 1.314 1_565 S
C1724 C1726 1.353 . S
C1724 H1730 0.932 . S
N1725 Li1675 1.990 . S
N1725 C1724 1.314 1_545 S
N1725 C1728 1.279 1_545 S
C1726 C1724 1.353 . S
C1726 C1729 1.348 . S
C1726 H1758 0.929 . S
C1727 C1728 1.358 . S
C1727 C1729 1.356 . S
C1727 H1759 0.930 . S
C1728 N1725 1.279 1_565 S
C1728 C1727 1.358 . S
C1728 H1731 0.930 1_565 S
C1729 C1726 1.348 . S
C1729 C1727 1.356 . S
H1730 C1724 0.932 . S
H1731 C1728 0.930 1_545 S
O1732 Li1672 1.956 . S
O1732 Li1673 1.970 . S
O1732 Li1674 1.961 . S
O1732 C1676 1.325 . S
O1733 Li1672 1.970 . S
O1733 Li1673 1.956 . S
O1733 Li1675 1.961 . S
O1733 C1682 1.325 . S
O1734 Li1672 1.961 . S
O1734 Li1674 1.956 . S
O1734 Li1675 1.970 . S
O1734 C1704 1.360 . S
O1735 Li1673 1.961 . S
O1735 Li1674 1.970 . S
O1735 Li1675 1.956 . S
O1735 C1710 1.325 . S
H1736 C1678 0.929 . S
H1737 C1679 0.930 . S
H1738 C1680 0.930 . S
H1739 C1681 0.930 . S
H1740 C1683 0.930 . S
H1741 C1685 0.929 . S
H1742 C1686 0.930 . S
H1743 C1687 0.930 . S
H1744 C1690 0.930 . S
H1745 C1693 0.929 . S
H1746 C1698 0.929 . S
H1747 C1699 0.930 . S
H1748 C1706 0.929 . S
H1749 C1707 0.886 1_545 S
H1750 C1708 0.930 . S
H1751 C1709 0.930 . S
H1752 C1711 0.929 . S
H1753 C1712 0.930 . S
H1754 C1713 0.930 . S
H1755 C1714 0.930 . S
H1756 C1718 0.929 . S
H1757 C1720 0.930 1_565 S
H1758 C1726 0.929 . S
H1759 C1727 0.930 . S
Li1760 N1777 1.990 . S
Li1760 O1820 1.956 . S
Li1760 O1821 1.970 . S
Li1760 O1822 1.961 . S
Li1761 N1785 1.989 . S
Li1761 O1820 1.975 1_556 S
Li1761 O1821 1.931 1_556 S
Li1761 O1823 1.986 . S
Li1762 N1807 1.990 . S
Li1762 O1820 1.961 1_556 S
Li1762 O1822 1.956 1_556 S
Li1762 O1823 1.970 . S
Li1763 N1813 1.990 . S
Li1763 O1821 1.961 1_556 S
Li1763 O1822 1.970 1_556 S
Li1763 O1823 1.956 . S
C1764 C1766 1.348 . S
C1764 C1767 1.356 . S
C1764 O1820 1.325 . S
N1765 C1768 1.314 . S
N1765 C1769 1.279 . S
C1766 C1764 1.348 . S
C1766 C1768 1.353 . S
C1766 H1824 0.929 . S
C1767 C1764 1.356 . S
C1767 C1769 1.358 . S
C1767 H1825 0.930 . S
C1768 N1765 1.314 . S
C1768 C1766 1.353 . S
C1768 H1826 0.930 . S
C1769 N1765 1.279 . S
C1769 C1767 1.358 . S
C1769 H1827 0.930 . S
C1770 C1773 1.348 . S
C1770 C1774 1.356 . S
C1770 O1821 1.325 . S
C1771 N1772 1.279 . S
C1771 C1774 1.358 . S
C1771 H1828 0.930 . S
N1772 C1771 1.279 . S
N1772 C1775 1.314 . S
C1773 C1770 1.348 . S
C1773 C1775 1.353 . S
C1773 H1829 0.929 . S
C1774 C1770 1.356 . S
C1774 C1771 1.358 . S
C1774 H1830 0.930 . S
C1775 N1772 1.314 . S
C1775 C1773 1.353 . S
C1775 H1831 0.930 . S
C1776 N1777 1.314 . S
C1776 C1781 1.353 . S
C1776 H1782 0.930 . S
N1777 Li1760 1.990 . S
N1777 C1776 1.314 . S
N1777 C1779 1.279 . S
C1778 C1779 1.358 . S
C1778 C1780 1.356 . S
C1778 H1832 0.930 . S
C1779 N1777 1.279 . S
C1779 C1778 1.358 . S
C1779 H1783 0.930 . S
C1780 C1778 1.356 . S
C1780 C1781 1.348 . S
C1781 C1776 1.353 . S
C1781 C1780 1.348 . S
C1781 H1833 0.929 . S
H1782 C1776 0.930 . S
H1783 C1779 0.930 . S
C1784 N1785 1.314 . S
C1784 C1786 1.353 . S
C1784 H1790 0.930 . S
N1785 Li1761 1.989 . S
N1785 C1784 1.314 . S
N1785 C1788 1.279 1_556 S
C1786 C1784 1.353 . S
C1786 C1789 1.348 . S
C1786 H1834 0.929 . S
C1787 C1788 1.358 . S
C1787 C1789 1.356 1_554 S
C1787 H1835 0.930 . S
C1788 N1785 1.279 1_554 S
C1788 C1787 1.358 . S
C1788 H1791 0.930 . S
C1789 C1786 1.348 . S
C1789 C1787 1.356 1_556 S
H1790 C1784 0.930 . S
H1791 C1788 0.930 . S
C1792 C1794 1.348 1_554 S
C1792 C1795 1.356 . S
C1792 O1822 1.325 . S
N1793 C1796 1.314 1_554 S
N1793 C1797 1.279 . S
C1794 C1792 1.348 1_556 S
C1794 C1796 1.353 . S
C1794 H1836 0.929 . S
C1795 C1792 1.356 . S
C1795 C1797 1.358 . S
C1795 H1837 0.930 . S
C1796 N1793 1.314 1_556 S
C1796 C1794 1.353 . S
C1796 H1838 0.930 . S
C1797 N1793 1.279 . S
C1797 C1795 1.358 . S
C1797 H1839 0.930 . S
C1798 C1799 1.348 . S
C1798 C1800 1.356 . S
C1798 O1823 1.325 . S
C1799 C1798 1.348 . S
C1799 C1801 1.353 . S
C1799 H1840 0.929 . S
C1800 C1798 1.356 . S
C1800 C1802 1.358 . S
C1800 H1841 0.930 . S
C1801 C1799 1.353 . S
C1801 N1803 1.314 . S
C1801 H1842 0.930 . S
C1802 C1800 1.358 . S
C1802 N1803 1.279 . S
C1802 H1843 0.930 . S
N1803 C1801 1.314 . S
N1803 C1802 1.279 . S
C1804 C1806 1.353 . S
C1804 N1807 1.314 . S
C1804 H1810 0.930 . S
C1805 N1807 1.279 . S
C1805 C1808 1.358 . S
C1805 H1811 0.930 . S
C1806 C1804 1.353 . S
C1806 C1809 1.348 . S
C1806 H1844 0.929 . S
N1807 Li1762 1.990 . S
N1807 C1804 1.314 . S
N1807 C1805 1.279 . S
C1808 C1805 1.358 . S
C1808 C1809 1.356 . S
C1808 H1845 0.930 . S
C1809 C1806 1.348 . S
C1809 C1808 1.356 . S
H1810 C1804 0.930 . S
H1811 C1805 0.930 . S
C1812 N1813 1.314 1_554 S
C1812 C1814 1.353 . S
C1812 H1818 0.930 . S
N1813 Li1763 1.990 . S
N1813 C1812 1.314 1_556 S
N1813 C1816 1.279 . S
C1814 C1812 1.353 . S
C1814 C1817 1.348 1_554 S
C1814 H1846 0.929 . S
C1815 C1816 1.358 . S
C1815 C1817 1.356 . S
C1815 H1847 0.930 . S
C1816 N1813 1.279 . S
C1816 C1815 1.358 . S
C1816 H1819 0.930 . S
C1817 C1814 1.348 1_556 S
C1817 C1815 1.356 . S
H1818 C1812 0.930 . S
H1819 C1816 0.930 . S
O1820 Li1760 1.956 . S
O1820 Li1761 1.975 1_554 S
O1820 Li1762 1.961 1_554 S
O1820 C1764 1.325 . S
O1821 Li1760 1.970 . S
O1821 Li1761 1.931 1_554 S
O1821 Li1763 1.961 1_554 S
O1821 C1770 1.325 . S
O1822 Li1760 1.961 . S
O1822 Li1762 1.956 1_554 S
O1822 Li1763 1.970 1_554 S
O1822 C1792 1.325 . S
O1823 Li1761 1.986 . S
O1823 Li1762 1.970 . S
O1823 Li1763 1.956 . S
O1823 C1798 1.325 . S
H1824 C1766 0.929 . S
H1825 C1767 0.930 . S
H1826 C1768 0.930 . S
H1827 C1769 0.930 . S
H1828 C1771 0.930 . S
H1829 C1773 0.929 . S
H1830 C1774 0.930 . S
H1831 C1775 0.930 . S
H1832 C1778 0.930 . S
H1833 C1781 0.929 . S
H1834 C1786 0.929 . S
H1835 C1787 0.930 . S
H1836 C1794 0.929 . S
H1837 C1795 0.930 . S
H1838 C1796 0.930 . S
H1839 C1797 0.930 . S
H1840 C1799 0.929 . S
H1841 C1800 0.930 . S
H1842 C1801 0.930 . S
H1843 C1802 0.930 . S
H1844 C1806 0.929 . S
H1845 C1808 0.930 . S
H1846 C1814 0.929 . S
H1847 C1815 0.930 . S
Li1848 N1865 1.990 . S
Li1848 O1908 1.956 . S
Li1848 O1909 1.970 . S
Li1848 O1910 1.961 . S
Li1849 N1873 1.990 . S
Li1849 O1908 1.970 . S
Li1849 O1909 1.956 . S
Li1849 O1911 1.961 . S
Li1850 N1895 1.990 . S
Li1850 O1908 1.961 . S
Li1850 O1910 1.956 . S
Li1850 O1911 1.970 . S
Li1851 N1901 1.990 . S
Li1851 O1909 1.961 . S
Li1851 O1910 1.970 . S
Li1851 O1911 1.956 . S
C1852 C1854 1.348 . S
C1852 C1855 1.356 . S
C1852 O1908 1.325 . S
N1853 C1856 1.314 . S
N1853 C1857 1.279 . S
C1854 C1852 1.348 . S
C1854 C1856 1.353 . S
C1854 H1912 0.929 . S
C1855 C1852 1.356 . S
C1855 C1857 1.358 . S
C1855 H1913 0.930 . S
C1856 N1853 1.314 . S
C1856 C1854 1.353 . S
C1856 H1914 0.930 . S
C1857 N1853 1.279 . S
C1857 C1855 1.358 . S
C1857 H1915 0.930 . S
C1858 C1861 1.348 . S
C1858 C1862 1.356 . S
C1858 O1909 1.325 . S
C1859 N1860 1.279 . S
C1859 C1862 1.358 . S
C1859 H1916 0.930 . S
N1860 C1859 1.279 . S
N1860 C1863 1.314 . S
C1861 C1858 1.348 . S
C1861 C1863 1.353 . S
C1861 H1917 0.929 . S
C1862 C1858 1.356 . S
C1862 C1859 1.358 . S
C1862 H1918 0.930 . S
C1863 N1860 1.314 . S
C1863 C1861 1.353 . S
C1863 H1919 0.930 . S
C1864 N1865 1.314 . S
C1864 C1869 1.353 . S
C1864 H1870 0.930 . S
N1865 Li1848 1.990 . S
N1865 C1864 1.314 . S
N1865 C1867 1.279 . S
C1866 C1867 1.358 . S
C1866 C1868 1.356 . S
C1866 H1920 0.930 . S
C1867 N1865 1.279 . S
C1867 C1866 1.358 . S
C1867 H1871 0.930 . S
C1868 C1866 1.356 . S
C1868 C1869 1.348 . S
C1869 C1864 1.353 . S
C1869 C1868 1.348 . S
C1869 H1921 0.929 . S
H1870 C1864 0.930 . S
H1871 C1867 0.930 . S
C1872 N1873 1.314 . S
C1872 C1874 1.353 . S
C1872 H1878 0.930 . S
N1873 Li1849 1.990 . S
N1873 C1872 1.314 . S
N1873 C1876 1.279 . S
C1874 C1872 1.353 . S
C1874 C1877 1.348 . S
C1874 H1922 0.929 . S
C1875 C1876 1.358 . S
C1875 C1877 1.356 . S
C1875 H1923 0.930 . S
C1876 N1873 1.279 . S
C1876 C1875 1.358 . S
C1876 H1879 0.930 . S
C1877 C1874 1.348 . S
C1877 C1875 1.356 . S
H1878 C1872 0.930 . S
H1879 C1876 0.930 . S
C1880 C1882 1.348 . S
C1880 C1883 1.356 . S
C1880 O1910 1.325 . S
N1881 C1884 1.314 . S
N1881 C1885 1.279 . S
C1882 C1880 1.348 . S
C1882 C1884 1.353 . S
C1882 H1924 0.929 . S
C1883 C1880 1.356 . S
C1883 C1885 1.358 . S
C1883 H1925 0.930 . S
C1884 N1881 1.314 . S
C1884 C1882 1.353 . S
C1884 H1926 0.930 . S
C1885 N1881 1.279 . S
C1885 C1883 1.358 . S
C1885 H1927 0.930 . S
C1886 C1887 1.348 . S
C1886 C1888 1.356 . S
C1886 O1911 1.325 . S
C1887 C1886 1.348 . S
C1887 C1889 1.353 . S
C1887 H1928 0.929 . S
C1888 C1886 1.356 . S
C1888 C1890 1.358 . S
C1888 H1929 0.930 . S
C1889 C1887 1.353 . S
C1889 N1891 1.314 . S
C1889 H1930 0.930 . S
C1890 C1888 1.358 . S
C1890 N1891 1.279 . S
C1890 H1931 0.930 1_655 S
N1891 C1889 1.314 . S
N1891 C1890 1.279 . S
C1892 C1894 1.353 . S
C1892 N1895 1.314 . S
C1892 H1898 0.930 . S
C1893 N1895 1.279 . S
C1893 C1896 1.358 . S
C1893 H1899 0.930 . S
C1894 C1892 1.353 . S
C1894 C1897 1.348 . S
C1894 H1932 0.929 . S
N1895 Li1850 1.990 . S
N1895 C1892 1.314 . S
N1895 C1893 1.279 . S
C1896 C1893 1.358 . S
C1896 C1897 1.356 . S
C1896 H1933 0.930 . S
C1897 C1894 1.348 . S
C1897 C1896 1.356 . S
H1898 C1892 0.930 . S
H1899 C1893 0.930 . S
C1900 N1901 1.314 . S
C1900 C1902 1.353 . S
C1900 H1906 0.930 . S
N1901 Li1851 1.990 . S
N1901 C1900 1.314 . S
N1901 C1904 1.279 . S
C1902 C1900 1.353 . S
C1902 C1905 1.348 . S
C1902 H1934 0.929 . S
C1903 C1904 1.358 . S
C1903 C1905 1.356 . S
C1903 H1935 0.930 . S
C1904 N1901 1.279 . S
C1904 C1903 1.358 . S
C1904 H1907 0.930 . S
C1905 C1902 1.348 . S
C1905 C1903 1.356 . S
H1906 C1900 0.930 . S
H1907 C1904 0.930 . S
O1908 Li1848 1.956 . S
O1908 Li1849 1.970 . S
O1908 Li1850 1.961 . S
O1908 C1852 1.325 . S
O1909 Li1848 1.970 . S
O1909 Li1849 1.956 . S
O1909 Li1851 1.961 . S
O1909 C1858 1.325 . S
O1910 Li1848 1.961 . S
O1910 Li1850 1.956 . S
O1910 Li1851 1.970 . S
O1910 C1880 1.325 . S
O1911 Li1849 1.961 . S
O1911 Li1850 1.970 . S
O1911 Li1851 1.956 . S
O1911 C1886 1.325 . S
H1912 C1854 0.929 . S
H1913 C1855 0.930 . S
H1914 C1856 0.930 . S
H1915 C1857 0.930 . S
H1916 C1859 0.930 . S
H1917 C1861 0.929 . S
H1918 C1862 0.930 . S
H1919 C1863 0.930 . S
H1920 C1866 0.930 . S
H1921 C1869 0.929 . S
H1922 C1874 0.929 . S
H1923 C1875 0.930 . S
H1924 C1882 0.929 . S
H1925 C1883 0.930 . S
H1926 C1884 0.930 . S
H1927 C1885 0.930 . S
H1928 C1887 0.929 . S
H1929 C1888 0.930 . S
H1930 C1889 0.930 . S
H1931 C1890 0.930 1_455 S
H1932 C1894 0.929 . S
H1933 C1896 0.930 . S
H1934 C1902 0.929 . S
H1935 C1903 0.930 . S
Li1936 N1953 1.990 . S
Li1936 O1996 1.956 . S
Li1936 O1997 1.970 . S
Li1936 O1998 1.961 . S
Li1937 N1961 1.990 . S
Li1937 O1996 1.970 . S
Li1937 O1997 1.956 . S
Li1937 O1999 1.961 . S
Li1938 N1983 1.990 . S
Li1938 O1996 1.961 . S
Li1938 O1998 1.956 . S
Li1938 O1999 1.970 . S
Li1939 N1989 1.990 . S
Li1939 O1997 1.961 . S
Li1939 O1998 1.970 . S
Li1939 O1999 1.956 . S
C1940 C1942 1.348 . S
C1940 C1943 1.356 . S
C1940 O1996 1.325 . S
N1941 C1944 1.314 . S
N1941 C1945 1.279 . S
C1942 C1940 1.348 . S
C1942 C1944 1.353 . S
C1942 H2000 0.929 . S
C1943 C1940 1.356 . S
C1943 C1945 1.358 . S
C1943 H2001 0.930 . S
C1944 N1941 1.314 . S
C1944 C1942 1.353 . S
C1944 H2002 0.930 . S
C1945 N1941 1.279 . S
C1945 C1943 1.358 . S
C1945 H2003 0.930 . S
C1946 C1949 1.348 . S
C1946 C1950 1.356 . S
C1946 O1997 1.325 . S
C1947 N1948 1.279 . S
C1947 C1950 1.358 . S
C1947 H2004 0.930 . S
N1948 C1947 1.279 . S
N1948 C1951 1.314 . S
C1949 C1946 1.348 . S
C1949 C1951 1.353 . S
C1949 H2005 0.929 . S
C1950 C1946 1.356 . S
C1950 C1947 1.358 . S
C1950 H2006 0.930 . S
C1951 N1948 1.314 . S
C1951 C1949 1.353 . S
C1951 H2007 0.930 . S
C1952 N1953 1.314 . S
C1952 C1957 1.353 . S
C1952 H1958 0.930 . S
N1953 Li1936 1.990 . S
N1953 C1952 1.314 . S
N1953 C1955 1.279 . S
C1954 C1955 1.358 . S
C1954 C1956 1.356 . S
C1954 H2008 0.930 . S
C1955 N1953 1.279 . S
C1955 C1954 1.358 . S
C1955 H1959 0.930 . S
C1956 C1954 1.356 . S
C1956 C1957 1.348 . S
C1957 C1952 1.353 . S
C1957 C1956 1.348 . S
C1957 H2009 0.929 . S
H1958 C1952 0.930 . S
H1959 C1955 0.930 . S
C1960 N1961 1.314 . S
C1960 C1962 1.353 . S
C1960 H1966 0.930 . S
N1961 Li1937 1.990 . S
N1961 C1960 1.314 . S
N1961 C1964 1.279 . S
C1962 C1960 1.353 . S
C1962 C1965 1.348 . S
C1962 H2010 0.929 . S
C1963 C1964 1.358 . S
C1963 C1965 1.356 . S
C1963 H2011 0.930 . S
C1964 N1961 1.279 . S
C1964 C1963 1.358 . S
C1964 H1967 0.930 . S
C1965 C1962 1.348 . S
C1965 C1963 1.356 . S
H1966 C1960 0.930 . S
H1967 C1964 0.930 . S
C1968 C1970 1.348 . S
C1968 C1971 1.356 . S
C1968 O1998 1.325 . S
N1969 C1972 1.314 . S
N1969 C1973 1.279 . S
C1970 C1968 1.348 . S
C1970 C1972 1.353 . S
C1970 H2012 0.929 . S
C1971 C1968 1.356 . S
C1971 C1973 1.358 . S
C1971 H2013 0.930 . S
C1972 N1969 1.314 . S
C1972 C1970 1.353 . S
C1972 H2014 0.930 . S
C1973 N1969 1.279 . S
C1973 C1971 1.358 . S
C1973 H2015 0.930 . S
C1974 C1975 1.348 . S
C1974 C1976 1.356 . S
C1974 O1999 1.325 . S
C1975 C1974 1.348 . S
C1975 C1977 1.353 . S
C1975 H2016 0.929 . S
C1976 C1974 1.356 . S
C1976 C1978 1.358 . S
C1976 H2017 0.930 . S
C1977 C1975 1.353 . S
C1977 N1979 1.314 . S
C1977 H2018 0.930 . S
C1978 C1976 1.358 . S
C1978 N1979 1.279 . S
C1978 H2019 0.930 . S
N1979 C1977 1.314 . S
N1979 C1978 1.279 . S
C1980 C1982 1.353 . S
C1980 N1983 1.314 . S
C1980 H1986 0.930 . S
C1981 N1983 1.279 . S
C1981 C1984 1.358 . S
C1981 H1987 0.930 . S
C1982 C1980 1.353 . S
C1982 C1985 1.348 . S
C1982 H2020 0.929 . S
N1983 Li1938 1.990 . S
N1983 C1980 1.314 . S
N1983 C1981 1.279 . S
C1984 C1981 1.358 . S
C1984 C1985 1.356 . S
C1984 H2021 0.930 . S
C1985 C1982 1.348 . S
C1985 C1984 1.356 . S
H1986 C1980 0.930 . S
H1987 C1981 0.930 . S
C1988 N1989 1.314 . S
C1988 C1990 1.353 . S
C1988 H1994 0.930 . S
N1989 Li1939 1.990 . S
N1989 C1988 1.314 . S
N1989 C1992 1.279 . S
C1990 C1988 1.353 . S
C1990 C1993 1.348 . S
C1990 H2022 0.929 . S
C1991 C1992 1.358 . S
C1991 C1993 1.356 . S
C1991 H2023 0.930 . S
C1992 N1989 1.279 . S
C1992 C1991 1.358 . S
C1992 H1995 0.930 . S
C1993 C1990 1.348 . S
C1993 C1991 1.356 . S
H1994 C1988 0.930 . S
H1995 C1992 0.930 . S
O1996 Li1936 1.956 . S
O1996 Li1937 1.970 . S
O1996 Li1938 1.961 . S
O1996 C1940 1.325 . S
O1997 Li1936 1.970 . S
O1997 Li1937 1.956 . S
O1997 Li1939 1.961 . S
O1997 C1946 1.325 . S
O1998 Li1936 1.961 . S
O1998 Li1938 1.956 . S
O1998 Li1939 1.970 . S
O1998 C1968 1.325 . S
O1999 Li1937 1.961 . S
O1999 Li1938 1.970 . S
O1999 Li1939 1.956 . S
O1999 C1974 1.325 . S
H2000 C1942 0.929 . S
H2001 C1943 0.930 . S
H2002 C1944 0.930 . S
H2003 C1945 0.930 . S
H2004 C1947 0.930 . S
H2005 C1949 0.929 . S
H2006 C1950 0.930 . S
H2007 C1951 0.930 . S
H2008 C1954 0.930 . S
H2009 C1957 0.929 . S
H2010 C1962 0.929 . S
H2011 C1963 0.930 . S
H2012 C1970 0.929 . S
H2013 C1971 0.930 . S
H2014 C1972 0.930 . S
H2015 C1973 0.930 . S
H2016 C1975 0.929 . S
H2017 C1976 0.930 . S
H2018 C1977 0.930 . S
H2019 C1978 0.930 . S
H2020 C1982 0.929 . S
H2021 C1984 0.930 . S
H2022 C1990 0.929 . S
H2023 C1991 0.930 . S
Li2024 N2041 1.990 . S
Li2024 O2084 1.956 . S
Li2024 O2085 1.970 . S
Li2024 O2086 1.961 . S
Li2025 N2049 1.990 . S
Li2025 O2084 1.970 . S
Li2025 O2085 1.956 . S
Li2025 O2087 1.961 . S
Li2026 N2071 1.990 . S
Li2026 O2084 1.961 . S
Li2026 O2086 1.956 . S
Li2026 O2087 1.970 . S
Li2027 N2077 1.990 . S
Li2027 O2085 1.961 . S
Li2027 O2086 1.970 . S
Li2027 O2087 1.956 . S
C2028 C2030 1.348 . S
C2028 C2031 1.356 . S
C2028 O2084 1.325 . S
N2029 C2032 1.314 . S
N2029 C2033 1.279 . S
C2030 C2028 1.348 . S
C2030 C2032 1.353 . S
C2030 H2088 0.929 . S
C2031 C2028 1.356 . S
C2031 C2033 1.358 . S
C2031 H2089 0.930 . S
C2032 N2029 1.314 . S
C2032 C2030 1.353 . S
C2032 H2090 0.930 . S
C2033 N2029 1.279 . S
C2033 C2031 1.358 . S
C2033 H2091 0.930 . S
C2034 C2037 1.348 . S
C2034 C2038 1.356 . S
C2034 O2085 1.325 . S
C2035 N2036 1.279 . S
C2035 C2038 1.358 . S
C2035 H2092 0.930 . S
N2036 C2035 1.279 . S
N2036 C2039 1.314 . S
C2037 C2034 1.348 . S
C2037 C2039 1.353 . S
C2037 H2093 0.929 . S
C2038 C2034 1.356 . S
C2038 C2035 1.358 . S
C2038 H2094 0.930 . S
C2039 N2036 1.314 . S
C2039 C2037 1.353 . S
C2039 H2095 0.930 . S
C2040 N2041 1.314 . S
C2040 C2045 1.353 . S
C2040 H2046 0.930 . S
N2041 Li2024 1.990 . S
N2041 C2040 1.314 . S
N2041 C2043 1.279 . S
C2042 C2043 1.358 . S
C2042 C2044 1.356 . S
C2042 H2096 0.930 . S
C2043 N2041 1.279 . S
C2043 C2042 1.358 . S
C2043 H2047 0.930 . S
C2044 C2042 1.356 . S
C2044 C2045 1.348 . S
C2045 C2040 1.353 . S
C2045 C2044 1.348 . S
C2045 H2097 0.929 . S
H2046 C2040 0.930 . S
H2047 C2043 0.930 . S
C2048 N2049 1.314 . S
C2048 C2050 1.353 . S
C2048 H2054 0.930 . S
N2049 Li2025 1.990 . S
N2049 C2048 1.314 . S
N2049 C2052 1.279 . S
C2050 C2048 1.353 . S
C2050 C2053 1.348 . S
C2050 H2098 0.929 . S
C2051 C2052 1.358 . S
C2051 C2053 1.356 . S
C2051 H2099 0.930 . S
C2052 N2049 1.279 . S
C2052 C2051 1.358 . S
C2052 H2055 0.930 . S
C2053 C2050 1.348 . S
C2053 C2051 1.356 . S
H2054 C2048 0.930 . S
H2055 C2052 0.930 . S
C2056 C2058 1.348 . S
C2056 C2059 1.356 . S
C2056 O2086 1.325 . S
N2057 C2060 1.314 . S
N2057 C2061 1.279 . S
C2058 C2056 1.348 . S
C2058 C2060 1.353 . S
C2058 H2100 0.929 . S
C2059 C2056 1.356 . S
C2059 C2061 1.358 . S
C2059 H2101 0.930 . S
C2060 N2057 1.314 . S
C2060 C2058 1.353 . S
C2060 H2102 0.930 . S
C2061 N2057 1.279 . S
C2061 C2059 1.358 . S
C2061 H2103 0.930 . S
C2062 C2063 1.348 . S
C2062 C2064 1.356 . S
C2062 O2087 1.325 . S
C2063 C2062 1.348 . S
C2063 C2065 1.353 . S
C2063 H2104 0.929 . S
C2064 C2062 1.356 . S
C2064 C2066 1.358 . S
C2064 H2105 0.930 . S
C2065 C2063 1.353 . S
C2065 N2067 1.314 . S
C2065 H2106 0.930 . S
C2066 C2064 1.358 . S
C2066 N2067 1.279 . S
C2066 H2107 0.930 . S
N2067 C2065 1.314 . S
N2067 C2066 1.279 . S
C2068 C2070 1.353 . S
C2068 N2071 1.314 . S
C2068 H2074 0.930 . S
C2069 N2071 1.279 . S
C2069 C2072 1.358 . S
C2069 H2075 0.930 . S
C2070 C2068 1.353 . S
C2070 C2073 1.348 . S
C2070 H2108 0.929 . S
N2071 Li2026 1.990 . S
N2071 C2068 1.314 . S
N2071 C2069 1.279 . S
C2072 C2069 1.358 . S
C2072 C2073 1.356 . S
C2072 H2109 0.930 . S
C2073 C2070 1.348 . S
C2073 C2072 1.356 . S
H2074 C2068 0.930 . S
H2075 C2069 0.930 . S
C2076 N2077 1.314 . S
C2076 C2078 1.353 . S
C2076 H2082 0.930 . S
N2077 Li2027 1.990 . S
N2077 C2076 1.314 . S
N2077 C2080 1.279 . S
C2078 C2076 1.353 . S
C2078 C2081 1.348 . S
C2078 H2110 0.929 . S
C2079 C2080 1.358 . S
C2079 C2081 1.356 . S
C2079 H2111 0.930 . S
C2080 N2077 1.279 . S
C2080 C2079 1.358 . S
C2080 H2083 0.930 . S
C2081 C2078 1.348 . S
C2081 C2079 1.356 . S
H2082 C2076 0.930 . S
H2083 C2080 0.930 . S
O2084 Li2024 1.956 . S
O2084 Li2025 1.970 . S
O2084 Li2026 1.961 . S
O2084 C2028 1.325 . S
O2085 Li2024 1.970 . S
O2085 Li2025 1.956 . S
O2085 Li2027 1.961 . S
O2085 C2034 1.325 . S
O2086 Li2024 1.961 . S
O2086 Li2026 1.956 . S
O2086 Li2027 1.970 . S
O2086 C2056 1.325 . S
O2087 Li2025 1.961 . S
O2087 Li2026 1.970 . S
O2087 Li2027 1.956 . S
O2087 C2062 1.325 . S
H2088 C2030 0.929 . S
H2089 C2031 0.930 . S
H2090 C2032 0.930 . S
H2091 C2033 0.930 . S
H2092 C2035 0.930 . S
H2093 C2037 0.929 . S
H2094 C2038 0.930 . S
H2095 C2039 0.930 . S
H2096 C2042 0.930 . S
H2097 C2045 0.929 . S
H2098 C2050 0.929 . S
H2099 C2051 0.930 . S
H2100 C2058 0.929 . S
H2101 C2059 0.930 . S
H2102 C2060 0.930 . S
H2103 C2061 0.930 . S
H2104 C2063 0.929 . S
H2105 C2064 0.930 . S
H2106 C2065 0.930 . S
H2107 C2066 0.930 . S
H2108 C2070 0.929 . S
H2109 C2072 0.930 . S
H2110 C2078 0.929 . S
H2111 C2079 0.930 . S
Gd2112 N2143 2.661 . S
Gd2112 N2149 2.601 . S
Gd2112 O2156 2.545 . S
Gd2112 O2157 2.606 . S
Gd2112 O2159 2.429 . S
Gd2112 O2160 2.545 . S
Gd2112 O2161 2.412 . S
Gd2112 O2163 2.362 . S
Gd2112 O2164 2.324 1_554 S
Gd2112 C2171 2.828 . S
Gd2113 N2122 2.661 1_545 S
Gd2113 N2126 2.601 1_544 S
Gd2113 O2157 2.362 . S
Gd2113 O2158 2.324 . S
Gd2113 O2162 2.545 1_454 S
Gd2113 O2163 2.606 . S
Gd2113 O2165 2.429 1_554 S
Gd2113 O2166 2.539 1_554 S
Gd2113 O2167 2.412 1_455 S
Gd2113 C2180 2.828 1_454 S
C2114 C2117 1.421 . S
C2114 C2119 1.431 1_554 S
C2114 C2120 1.412 . S
C2115 C2118 1.437 . S
C2115 C2119 1.317 . S
C2115 H2134 0.929 . S
C2116 C2117 1.426 1_556 S
C2116 C2118 1.413 . S
C2116 N2126 1.359 1_655 S
C2117 C2114 1.421 . S
C2117 C2116 1.426 1_554 S
C2117 N2122 1.347 1_655 S
C2118 C2115 1.437 . S
C2118 C2116 1.413 . S
C2118 C2128 1.391 . S
C2119 C2114 1.431 1_556 S
C2119 C2115 1.317 . S
C2119 H2130 0.922 1_556 S
C2120 C2114 1.412 . S
C2120 C2121 1.355 1_655 S
C2120 H2132 0.930 . S
C2121 C2120 1.355 1_455 S
C2121 C2123 1.402 . S
C2121 H2133 0.930 . S
N2122 Gd2113 2.661 1_565 S
N2122 C2117 1.347 1_455 S
N2122 C2123 1.307 . S
C2123 C2121 1.402 . S
C2123 N2122 1.307 . S
C2123 H2124 0.930 . S
H2124 C2123 0.930 . S
C2125 N2126 1.334 . S
C2125 C2127 1.394 1_455 S
C2125 H2129 0.930 . S
N2126 Gd2113 2.601 1_566 S
N2126 C2116 1.359 1_455 S
N2126 C2125 1.334 . S
C2127 C2125 1.394 1_655 S
C2127 C2128 1.359 . S
C2127 H2139 0.930 . S
C2128 C2118 1.391 . S
C2128 C2127 1.359 . S
C2128 H2140 0.929 . S
H2129 C2125 0.930 . S
H2130 C2119 0.922 1_554 S
H2131 C2148 0.930 . S
H2132 C2120 0.930 . S
H2133 C2121 0.930 . S
H2134 C2115 0.929 . S
H2135 C2153 0.930 . S
H2136 C2144 0.930 . S
H2137 C2145 0.930 . S
H2138 C2169 0.929 . S
H2139 C2127 0.930 . S
H2140 C2128 0.929 . S
H2141 C2170 0.930 . S
H2142 C2151 0.930 . S
N2143 Gd2112 2.661 . S
N2143 C2147 1.350 . S
N2143 C2148 1.307 1_554 S
C2144 H2136 0.930 . S
C2144 C2145 1.355 . S
C2144 C2146 1.412 1_556 S
C2145 H2137 0.930 . S
C2145 C2144 1.355 . S
C2145 C2148 1.402 . S
C2146 C2144 1.412 1_554 S
C2146 C2147 1.417 . S
C2146 C2170 1.431 . S
C2147 N2143 1.350 . S
C2147 C2146 1.417 . S
C2147 C2150 1.426 . S
C2148 H2131 0.930 . S
C2148 N2143 1.307 1_556 S
C2148 C2145 1.402 . S
N2149 Gd2112 2.601 . S
N2149 C2150 1.359 . S
N2149 C2153 1.334 . S
C2150 C2147 1.426 . S
C2150 N2149 1.359 . S
C2150 C2154 1.413 . S
C2151 H2142 0.930 . S
C2151 C2152 1.359 . S
C2151 C2153 1.394 . S
C2152 C2151 1.359 . S
C2152 C2154 1.391 . S
C2152 H2155 0.929 . S
C2153 H2135 0.930 . S
C2153 N2149 1.334 . S
C2153 C2151 1.394 . S
C2154 C2150 1.413 . S
C2154 C2152 1.391 . S
C2154 C2169 1.437 . S
H2155 C2152 0.929 . S
O2156 Gd2112 2.545 . S
O2156 C2171 1.258 . S
O2157 Gd2112 2.606 . S
O2157 Gd2113 2.362 . S
O2157 C2168 1.284 1_545 S
O2158 Gd2113 2.324 . S
O2158 C2178 1.254 . S
O2159 Gd2112 2.429 . S
O2159 C2178 1.268 . S
O2160 Gd2112 2.545 . S
O2160 C2168 1.250 1_545 S
O2161 Gd2112 2.412 . S
O2161 C2171 1.252 . S
O2162 Gd2113 2.545 1_656 S
O2162 C2180 1.258 . S
O2163 Gd2112 2.362 . S
O2163 Gd2113 2.606 . S
O2163 C2179 1.284 . S
O2164 Gd2112 2.324 1_556 S
O2164 C2187 1.254 . S
O2165 Gd2113 2.429 1_556 S
O2165 C2187 1.268 . S
O2166 Gd2113 2.539 1_556 S
O2166 C2179 1.242 1_556 S
O2167 Gd2113 2.412 1_655 S
O2167 C2180 1.252 1_554 S
C2168 O2157 1.284 1_565 S
C2168 O2160 1.250 1_565 S
C2169 H2138 0.929 . S
C2169 C2154 1.437 . S
C2169 C2170 1.317 . S
C2170 H2141 0.930 . S
C2170 C2146 1.431 . S
C2170 C2169 1.317 . S
C2171 Gd2112 2.828 . S
C2171 O2156 1.258 . S
C2171 O2161 1.252 . S
C2171 C2172 1.497 . S
C2172 C2171 1.497 . S
C2172 C2173 1.395 . S
C2172 C2174 1.380 . S
C2173 C2172 1.395 . S
C2173 C2176 1.398 . S
C2173 H2188 0.930 . S
C2174 C2172 1.380 . S
C2174 C2175 1.391 . S
C2174 H2189 0.930 . S
C2175 C2174 1.391 . S
C2175 C2177 1.387 . S
C2176 C2173 1.398 . S
C2176 C2177 1.380 . S
C2176 H2190 0.930 . S
C2177 C2175 1.387 . S
C2177 C2176 1.380 . S
C2177 H2191 0.930 . S
C2178 O2158 1.254 . S
C2178 O2159 1.268 . S
C2179 O2163 1.284 . S
C2179 O2166 1.242 1_554 S
C2180 Gd2113 2.828 1_656 S
C2180 O2162 1.258 . S
C2180 O2167 1.252 1_556 S
C2180 C2181 1.497 . S
C2181 C2180 1.497 . S
C2181 C2182 1.395 . S
C2181 C2183 1.380 1_556 S
C2182 C2181 1.395 . S
C2182 C2185 1.398 . S
C2182 H2192 0.930 . S
C2183 C2181 1.380 1_554 S
C2183 C2184 1.391 1_554 S
C2183 H2193 0.930 . S
C2184 C2183 1.391 1_556 S
C2184 C2186 1.387 . S
C2185 C2182 1.398 . S
C2185 C2186 1.380 . S
C2185 H2194 0.930 . S
C2186 C2184 1.387 . S
C2186 C2185 1.380 . S
C2186 H2195 0.930 . S
C2187 O2164 1.254 . S
C2187 O2165 1.268 . S
H2188 C2173 0.930 . S
H2189 C2174 0.930 . S
H2190 C2176 0.930 . S
H2191 C2177 0.930 . S
H2192 C2182 0.930 . S
H2193 C2183 0.930 . S
H2194 C2185 0.930 . S
H2195 C2186 0.930 . S
Gd2196 N2227 2.661 . S
Gd2196 N2233 2.601 . S
Gd2196 O2240 2.545 . S
Gd2196 O2241 2.606 . S
Gd2196 O2243 2.429 . S
Gd2196 O2244 2.545 . S
Gd2196 O2245 2.412 . S
Gd2196 O2247 2.362 . S
Gd2196 O2248 2.324 . S
Gd2196 C2255 2.828 . S
Gd2197 N2206 2.661 . S
Gd2197 N2210 2.601 . S
Gd2197 O2241 2.362 . S
Gd2197 O2242 2.324 . S
Gd2197 O2246 2.545 . S
Gd2197 O2247 2.606 . S
Gd2197 O2249 2.429 . S
Gd2197 O2250 2.545 . S
Gd2197 O2251 2.412 . S
Gd2197 C2264 2.828 . S
C2198 C2201 1.417 . S
C2198 C2203 1.431 . S
C2198 C2204 1.412 . S
C2199 C2202 1.437 . S
C2199 C2203 1.317 . S
C2199 H2218 0.929 . S
C2200 C2201 1.426 . S
C2200 C2202 1.413 . S
C2200 N2210 1.359 . S
C2201 C2198 1.417 . S
C2201 C2200 1.426 . S
C2201 N2206 1.350 . S
C2202 C2199 1.437 . S
C2202 C2200 1.413 . S
C2202 C2212 1.391 . S
C2203 C2198 1.431 . S
C2203 C2199 1.317 . S
C2203 H2214 0.930 . S
C2204 C2198 1.412 . S
C2204 C2205 1.355 . S
C2204 H2216 0.930 . S
C2205 C2204 1.355 . S
C2205 C2207 1.402 . S
C2205 H2217 0.930 . S
N2206 Gd2197 2.661 . S
N2206 C2201 1.350 . S
N2206 C2207 1.307 . S
C2207 C2205 1.402 . S
C2207 N2206 1.307 . S
C2207 H2208 0.930 . S
H2208 C2207 0.930 . S
C2209 N2210 1.334 . S
C2209 C2211 1.394 . S
C2209 H2213 0.930 . S
N2210 Gd2197 2.601 . S
N2210 C2200 1.359 . S
N2210 C2209 1.334 . S
C2211 C2209 1.394 . S
C2211 C2212 1.359 . S
C2211 H2223 0.930 . S
C2212 C2202 1.391 . S
C2212 C2211 1.359 . S
C2212 H2224 0.929 . S
H2213 C2209 0.930 . S
H2214 C2203 0.930 . S
H2215 C2232 0.930 . S
H2216 C2204 0.930 . S
H2217 C2205 0.930 . S
H2218 C2199 0.929 . S
H2219 C2237 0.930 . S
H2220 C2228 0.930 . S
H2221 C2229 0.930 . S
H2222 C2253 0.929 . S
H2223 C2211 0.930 . S
H2224 C2212 0.929 . S
H2225 C2254 0.930 . S
H2226 C2235 0.930 . S
N2227 Gd2196 2.661 . S
N2227 C2231 1.350 . S
N2227 C2232 1.307 . S
C2228 H2220 0.930 . S
C2228 C2229 1.355 . S
C2228 C2230 1.412 . S
C2229 H2221 0.930 . S
C2229 C2228 1.355 . S
C2229 C2232 1.402 . S
C2230 C2228 1.412 . S
C2230 C2231 1.417 . S
C2230 C2254 1.431 . S
C2231 N2227 1.350 . S
C2231 C2230 1.417 . S
C2231 C2234 1.426 . S
C2232 H2215 0.930 . S
C2232 N2227 1.307 . S
C2232 C2229 1.402 . S
N2233 Gd2196 2.601 . S
N2233 C2234 1.359 . S
N2233 C2237 1.334 . S
C2234 C2231 1.426 . S
C2234 N2233 1.359 . S
C2234 C2238 1.413 . S
C2235 H2226 0.930 . S
C2235 C2236 1.359 . S
C2235 C2237 1.394 . S
C2236 C2235 1.359 . S
C2236 C2238 1.391 . S
C2236 H2239 0.929 . S
C2237 H2219 0.930 . S
C2237 N2233 1.334 . S
C2237 C2235 1.394 . S
C2238 C2234 1.413 . S
C2238 C2236 1.391 . S
C2238 C2253 1.437 . S
H2239 C2236 0.929 . S
O2240 Gd2196 2.545 . S
O2240 C2255 1.258 . S
O2241 Gd2196 2.606 . S
O2241 Gd2197 2.362 . S
O2241 C2252 1.284 . S
O2242 Gd2197 2.324 . S
O2242 C2262 1.254 . S
O2243 Gd2196 2.429 . S
O2243 C2262 1.268 . S
O2244 Gd2196 2.545 . S
O2244 C2252 1.250 . S
O2245 Gd2196 2.412 . S
O2245 C2255 1.252 . S
O2246 Gd2197 2.545 . S
O2246 C2264 1.258 . S
O2247 Gd2196 2.362 . S
O2247 Gd2197 2.606 . S
O2247 C2263 1.284 . S
O2248 Gd2196 2.324 . S
O2248 C2271 1.254 . S
O2249 Gd2197 2.429 . S
O2249 C2271 1.268 . S
O2250 Gd2197 2.545 . S
O2250 C2263 1.250 . S
O2251 Gd2197 2.412 . S
O2251 C2264 1.252 . S
C2252 O2241 1.284 . S
C2252 O2244 1.250 . S
C2253 H2222 0.929 . S
C2253 C2238 1.437 . S
C2253 C2254 1.317 . S
C2254 H2225 0.930 . S
C2254 C2230 1.431 . S
C2254 C2253 1.317 . S
C2255 Gd2196 2.828 . S
C2255 O2240 1.258 . S
C2255 O2245 1.252 . S
C2255 C2256 1.497 . S
C2256 C2255 1.497 . S
C2256 C2257 1.395 . S
C2256 C2258 1.380 . S
C2257 C2256 1.395 . S
C2257 C2260 1.398 . S
C2257 H2272 0.930 . S
C2258 C2256 1.380 . S
C2258 C2259 1.391 . S
C2258 H2273 0.930 . S
C2259 C2258 1.391 . S
C2259 C2261 1.387 . S
C2260 C2257 1.398 . S
C2260 C2261 1.380 . S
C2260 H2274 0.930 . S
C2261 C2259 1.387 . S
C2261 C2260 1.380 . S
C2261 H2275 0.930 . S
C2262 O2242 1.254 . S
C2262 O2243 1.268 . S
C2263 O2247 1.284 . S
C2263 O2250 1.250 . S
C2264 Gd2197 2.828 . S
C2264 O2246 1.258 . S
C2264 O2251 1.252 . S
C2264 C2265 1.497 . S
C2265 C2264 1.497 . S
C2265 C2266 1.395 . S
C2265 C2267 1.380 . S
C2266 C2265 1.395 . S
C2266 C2269 1.398 . S
C2266 H2276 0.930 . S
C2267 C2265 1.380 . S
C2267 C2268 1.391 . S
C2267 H2277 0.930 . S
C2268 C2267 1.391 . S
C2268 C2270 1.387 . S
C2269 C2266 1.398 . S
C2269 C2270 1.380 . S
C2269 H2278 0.930 . S
C2270 C2268 1.387 . S
C2270 C2269 1.380 . S
C2270 H2279 0.930 . S
C2271 O2248 1.254 . S
C2271 O2249 1.268 . S
H2272 C2257 0.930 . S
H2273 C2258 0.930 . S
H2274 C2260 0.930 . S
H2275 C2261 0.930 . S
H2276 C2266 0.930 . S
H2277 C2267 0.930 . S
H2278 C2269 0.930 . S
H2279 C2270 0.930 . S
Gd2280 N2311 2.661 1_545 S
Gd2280 N2317 2.601 . S
Gd2280 O2324 2.545 . S
Gd2280 O2325 2.606 . S
Gd2280 O2327 2.429 . S
Gd2280 O2328 2.545 . S
Gd2280 O2329 2.412 . S
Gd2280 O2331 2.362 . S
Gd2280 O2332 2.324 . S
Gd2280 C2339 2.828 . S
Gd2281 N2290 2.661 . S
Gd2281 N2294 2.601 . S
Gd2281 O2325 2.362 . S
Gd2281 O2326 2.324 . S
Gd2281 O2330 2.545 . S
Gd2281 O2331 2.606 . S
Gd2281 O2333 2.429 . S
Gd2281 O2334 2.545 1_545 S
Gd2281 O2335 2.412 . S
Gd2281 C2348 2.828 . S
C2282 C2285 1.417 . S
C2282 C2287 1.431 . S
C2282 C2288 1.412 . S
C2283 C2286 1.437 . S
C2283 C2287 1.317 . S
C2283 H2302 0.929 . S
C2284 C2285 1.426 . S
C2284 C2286 1.413 . S
C2284 N2294 1.359 . S
C2285 C2282 1.417 . S
C2285 C2284 1.426 . S
C2285 N2290 1.350 . S
C2286 C2283 1.437 . S
C2286 C2284 1.413 . S
C2286 C2296 1.391 . S
C2287 C2282 1.431 . S
C2287 C2283 1.317 . S
C2287 H2298 0.930 . S
C2288 C2282 1.412 . S
C2288 C2289 1.355 . S
C2288 H2300 0.930 . S
C2289 C2288 1.355 . S
C2289 C2291 1.402 . S
C2289 H2301 0.930 . S
N2290 Gd2281 2.661 . S
N2290 C2285 1.350 . S
N2290 C2291 1.307 . S
C2291 C2289 1.402 . S
C2291 N2290 1.307 . S
C2291 H2292 0.930 . S
H2292 C2291 0.930 . S
C2293 N2294 1.334 . S
C2293 C2295 1.394 . S
C2293 H2297 0.930 . S
N2294 Gd2281 2.601 . S
N2294 C2284 1.359 . S
N2294 C2293 1.334 . S
C2295 C2293 1.394 . S
C2295 C2296 1.359 . S
C2295 H2307 0.930 . S
C2296 C2286 1.391 . S
C2296 C2295 1.359 . S
C2296 H2308 0.929 . S
H2297 C2293 0.930 . S
H2298 C2287 0.930 . S
H2299 C2316 0.930 . S
H2300 C2288 0.930 . S
H2301 C2289 0.930 . S
H2302 C2283 0.929 . S
H2303 C2321 0.930 . S
H2304 C2312 0.930 . S
H2305 C2313 0.930 . S
H2306 C2337 0.929 . S
H2307 C2295 0.930 . S
H2308 C2296 0.929 . S
H2309 C2338 0.930 . S
H2310 C2319 0.930 . S
N2311 Gd2280 2.661 1_565 S
N2311 C2315 1.350 . S
N2311 C2316 1.307 . S
C2312 H2304 0.930 . S
C2312 C2313 1.355 . S
C2312 C2314 1.412 . S
C2313 H2305 0.930 . S
C2313 C2312 1.355 . S
C2313 C2316 1.402 . S
C2314 C2312 1.412 . S
C2314 C2315 1.417 . S
C2314 C2338 1.431 . S
C2315 N2311 1.350 . S
C2315 C2314 1.417 . S
C2315 C2318 1.426 . S
C2316 H2299 0.930 . S
C2316 N2311 1.307 . S
C2316 C2313 1.402 . S
N2317 Gd2280 2.601 . S
N2317 C2318 1.359 1_545 S
N2317 C2321 1.334 . S
C2318 C2315 1.426 . S
C2318 N2317 1.359 1_565 S
C2318 C2322 1.413 . S
C2319 H2310 0.930 . S
C2319 C2320 1.359 1_545 S
C2319 C2321 1.394 . S
C2320 C2319 1.359 1_565 S
C2320 C2322 1.391 . S
C2320 H2323 0.929 . S
C2321 H2303 0.930 . S
C2321 N2317 1.334 . S
C2321 C2319 1.394 . S
C2322 C2318 1.413 . S
C2322 C2320 1.391 . S
C2322 C2337 1.437 . S
H2323 C2320 0.929 . S
O2324 Gd2280 2.545 . S
O2324 C2339 1.258 . S
O2325 Gd2280 2.606 . S
O2325 Gd2281 2.362 . S
O2325 C2336 1.284 . S
O2326 Gd2281 2.324 . S
O2326 C2346 1.254 . S
O2327 Gd2280 2.429 . S
O2327 C2346 1.268 . S
O2328 Gd2280 2.545 . S
O2328 C2336 1.250 . S
O2329 Gd2280 2.412 . S
O2329 C2339 1.252 . S
O2330 Gd2281 2.545 . S
O2330 C2348 1.258 . S
O2331 Gd2280 2.362 . S
O2331 Gd2281 2.606 . S
O2331 C2347 1.284 1_545 S
O2332 Gd2280 2.324 . S
O2332 C2355 1.254 . S
O2333 Gd2281 2.429 . S
O2333 C2355 1.268 . S
O2334 Gd2281 2.545 1_565 S
O2334 C2347 1.250 . S
O2335 Gd2281 2.412 . S
O2335 C2348 1.252 . S
C2336 O2325 1.284 . S
C2336 O2328 1.250 . S
C2337 H2306 0.929 . S
C2337 C2322 1.437 . S
C2337 C2338 1.317 . S
C2338 H2309 0.930 . S
C2338 C2314 1.431 . S
C2338 C2337 1.317 . S
C2339 Gd2280 2.828 . S
C2339 O2324 1.258 . S
C2339 O2329 1.252 . S
C2339 C2340 1.497 . S
C2340 C2339 1.497 . S
C2340 C2341 1.395 . S
C2340 C2342 1.380 . S
C2341 C2340 1.395 . S
C2341 C2344 1.398 . S
C2341 H2356 0.930 . S
C2342 C2340 1.380 . S
C2342 C2343 1.391 . S
C2342 H2357 0.930 . S
C2343 C2342 1.391 . S
C2343 C2345 1.387 . S
C2344 C2341 1.398 . S
C2344 C2345 1.380 . S
C2344 H2358 0.930 . S
C2345 C2343 1.387 . S
C2345 C2344 1.380 . S
C2345 H2359 0.930 . S
C2346 O2326 1.254 . S
C2346 O2327 1.268 . S
C2347 O2331 1.284 1_565 S
C2347 O2334 1.250 . S
C2348 Gd2281 2.828 . S
C2348 O2330 1.258 . S
C2348 O2335 1.252 . S
C2348 C2349 1.497 . S
C2349 C2348 1.497 . S
C2349 C2350 1.395 . S
C2349 C2351 1.380 1_545 S
C2350 C2349 1.395 . S
C2350 C2353 1.398 1_545 S
C2350 H2360 0.930 . S
C2351 C2349 1.380 1_565 S
C2351 C2352 1.391 . S
C2351 H2361 0.930 . S
C2352 C2351 1.391 . S
C2352 C2354 1.387 . S
C2353 C2350 1.398 1_565 S
C2353 C2354 1.380 . S
C2353 H2362 0.930 . S
C2354 C2352 1.387 . S
C2354 C2353 1.380 . S
C2354 H2363 0.930 . S
C2355 O2332 1.254 . S
C2355 O2333 1.268 . S
H2356 C2341 0.930 . S
H2357 C2342 0.930 . S
H2358 C2344 0.930 . S
H2359 C2345 0.930 . S
H2360 C2350 0.930 . S
H2361 C2351 0.930 . S
H2362 C2353 0.930 . S
H2363 C2354 0.930 . S
Gd2364 N2395 2.661 . S
Gd2364 N2401 2.601 . S
Gd2364 O2408 2.545 . S
Gd2364 O2409 2.606 . S
Gd2364 O2411 2.429 . S
Gd2364 O2412 2.545 . S
Gd2364 O2413 2.412 . S
Gd2364 O2415 2.362 . S
Gd2364 O2416 2.324 . S
Gd2364 C2423 2.828 . S
Gd2365 N2374 2.661 . S
Gd2365 N2378 2.601 . S
Gd2365 O2409 2.362 . S
Gd2365 O2410 2.324 . S
Gd2365 O2414 2.545 . S
Gd2365 O2415 2.606 . S
Gd2365 O2417 2.429 . S
Gd2365 O2418 2.545 . S
Gd2365 O2419 2.412 . S
Gd2365 C2432 2.828 . S
C2366 C2369 1.417 . S
C2366 C2371 1.431 . S
C2366 C2372 1.412 . S
C2367 C2370 1.437 . S
C2367 C2371 1.317 . S
C2367 H2386 0.929 . S
C2368 C2369 1.426 . S
C2368 C2370 1.413 . S
C2368 N2378 1.359 . S
C2369 C2366 1.417 . S
C2369 C2368 1.426 . S
C2369 N2374 1.350 . S
C2370 C2367 1.437 . S
C2370 C2368 1.413 . S
C2370 C2380 1.391 . S
C2371 C2366 1.431 . S
C2371 C2367 1.317 . S
C2371 H2382 0.930 . S
C2372 C2366 1.412 . S
C2372 C2373 1.355 . S
C2372 H2384 0.930 . S
C2373 C2372 1.355 . S
C2373 C2375 1.402 . S
C2373 H2385 0.930 . S
N2374 Gd2365 2.661 . S
N2374 C2369 1.350 . S
N2374 C2375 1.307 . S
C2375 C2373 1.402 . S
C2375 N2374 1.307 . S
C2375 H2376 0.930 . S
H2376 C2375 0.930 . S
C2377 N2378 1.334 . S
C2377 C2379 1.394 . S
C2377 H2381 0.930 . S
N2378 Gd2365 2.601 . S
N2378 C2368 1.359 . S
N2378 C2377 1.334 . S
C2379 C2377 1.394 . S
C2379 C2380 1.359 . S
C2379 H2391 0.930 . S
C2380 C2370 1.391 . S
C2380 C2379 1.359 . S
C2380 H2392 0.929 . S
H2381 C2377 0.930 . S
H2382 C2371 0.930 . S
H2383 C2400 0.930 . S
H2384 C2372 0.930 . S
H2385 C2373 0.930 . S
H2386 C2367 0.929 . S
H2387 C2405 0.930 . S
H2388 C2396 0.930 . S
H2389 C2397 0.930 . S
H2390 C2421 0.929 . S
H2391 C2379 0.930 . S
H2392 C2380 0.929 . S
H2393 C2422 0.930 . S
H2394 C2403 0.930 . S
N2395 Gd2364 2.661 . S
N2395 C2399 1.350 . S
N2395 C2400 1.307 . S
C2396 H2388 0.930 . S
C2396 C2397 1.355 . S
C2396 C2398 1.412 . S
C2397 H2389 0.930 . S
C2397 C2396 1.355 . S
C2397 C2400 1.402 . S
C2398 C2396 1.412 . S
C2398 C2399 1.417 . S
C2398 C2422 1.431 . S
C2399 N2395 1.350 . S
C2399 C2398 1.417 . S
C2399 C2402 1.426 . S
C2400 H2383 0.930 . S
C2400 N2395 1.307 . S
C2400 C2397 1.402 . S
N2401 Gd2364 2.601 . S
N2401 C2402 1.359 . S
N2401 C2405 1.334 . S
C2402 C2399 1.426 . S
C2402 N2401 1.359 . S
C2402 C2406 1.413 . S
C2403 H2394 0.930 . S
C2403 C2404 1.359 . S
C2403 C2405 1.394 . S
C2404 C2403 1.359 . S
C2404 C2406 1.391 . S
C2404 H2407 0.929 . S
C2405 H2387 0.930 . S
C2405 N2401 1.334 . S
C2405 C2403 1.394 . S
C2406 C2402 1.413 . S
C2406 C2404 1.391 . S
C2406 C2421 1.437 . S
H2407 C2404 0.929 . S
O2408 Gd2364 2.545 . S
O2408 C2423 1.258 . S
O2409 Gd2364 2.606 . S
O2409 Gd2365 2.362 . S
O2409 C2420 1.284 . S
O2410 Gd2365 2.324 . S
O2410 C2430 1.254 . S
O2411 Gd2364 2.429 . S
O2411 C2430 1.268 . S
O2412 Gd2364 2.545 . S
O2412 C2420 1.250 . S
O2413 Gd2364 2.412 . S
O2413 C2423 1.252 . S
O2414 Gd2365 2.545 . S
O2414 C2432 1.258 . S
O2415 Gd2364 2.362 . S
O2415 Gd2365 2.606 . S
O2415 C2431 1.284 . S
O2416 Gd2364 2.324 . S
O2416 C2439 1.254 . S
O2417 Gd2365 2.429 . S
O2417 C2439 1.268 . S
O2418 Gd2365 2.545 . S
O2418 C2431 1.250 . S
O2419 Gd2365 2.412 . S
O2419 C2432 1.252 . S
C2420 O2409 1.284 . S
C2420 O2412 1.250 . S
C2421 H2390 0.929 . S
C2421 C2406 1.437 . S
C2421 C2422 1.317 . S
C2422 H2393 0.930 . S
C2422 C2398 1.431 . S
C2422 C2421 1.317 . S
C2423 Gd2364 2.828 . S
C2423 O2408 1.258 . S
C2423 O2413 1.252 . S
C2423 C2424 1.497 . S
C2424 C2423 1.497 . S
C2424 C2425 1.395 . S
C2424 C2426 1.380 . S
C2425 C2424 1.395 . S
C2425 C2428 1.398 . S
C2425 H2440 0.930 . S
C2426 C2424 1.380 . S
C2426 C2427 1.391 . S
C2426 H2441 0.930 . S
C2427 C2426 1.391 . S
C2427 C2429 1.387 . S
C2428 C2425 1.398 . S
C2428 C2429 1.380 . S
C2428 H2442 0.930 . S
C2429 C2427 1.387 . S
C2429 C2428 1.380 . S
C2429 H2443 0.930 . S
C2430 O2410 1.254 . S
C2430 O2411 1.268 . S
C2431 O2415 1.284 . S
C2431 O2418 1.250 . S
C2432 Gd2365 2.828 . S
C2432 O2414 1.258 . S
C2432 O2419 1.252 . S
C2432 C2433 1.497 . S
C2433 C2432 1.497 . S
C2433 C2434 1.395 . S
C2433 C2435 1.380 . S
C2434 C2433 1.395 . S
C2434 C2437 1.398 . S
C2434 H2444 0.930 . S
C2435 C2433 1.380 . S
C2435 C2436 1.391 . S
C2435 H2445 0.930 . S
C2436 C2435 1.391 . S
C2436 C2438 1.387 . S
C2437 C2434 1.398 . S
C2437 C2438 1.380 . S
C2437 H2446 0.930 . S
C2438 C2436 1.387 . S
C2438 C2437 1.380 . S
C2438 H2447 0.930 . S
C2439 O2416 1.254 . S
C2439 O2417 1.268 . S
H2440 C2425 0.930 . S
H2441 C2426 0.930 . S
H2442 C2428 0.930 . S
H2443 C2429 0.930 . S
H2444 C2434 0.930 . S
H2445 C2435 0.930 . S
H2446 C2437 0.930 . S
H2447 C2438 0.930 . S
Gd2448 N2479 2.661 1_545 S
Gd2448 N2485 2.601 1_545 S
Gd2448 O2492 2.545 1_545 S
Gd2448 O2493 2.606 . S
Gd2448 O2495 2.429 . S
Gd2448 O2496 2.545 . S
Gd2448 O2497 2.412 1_545 S
Gd2448 O2499 2.362 . S
Gd2448 O2500 2.318 . S
Gd2448 C2507 2.828 1_545 S
Gd2449 N2458 2.661 . S
Gd2449 N2462 2.601 . S
Gd2449 O2493 2.362 . S
Gd2449 O2494 2.324 . S
Gd2449 O2498 2.545 . S
Gd2449 O2499 2.606 . S
Gd2449 O2501 2.429 . S
Gd2449 O2502 2.545 . S
Gd2449 O2503 2.412 . S
Gd2449 C2516 2.828 . S
C2450 C2453 1.417 . S
C2450 C2455 1.431 . S
C2450 C2456 1.412 . S
C2451 C2454 1.437 . S
C2451 C2455 1.317 . S
C2451 H2470 0.929 . S
C2452 C2453 1.426 . S
C2452 C2454 1.413 . S
C2452 N2462 1.359 . S
C2453 C2450 1.417 . S
C2453 C2452 1.426 . S
C2453 N2458 1.350 . S
C2454 C2451 1.437 . S
C2454 C2452 1.413 . S
C2454 C2464 1.391 . S
C2455 C2450 1.431 . S
C2455 C2451 1.317 . S
C2455 H2466 0.930 . S
C2456 C2450 1.412 . S
C2456 C2457 1.355 . S
C2456 H2468 0.930 . S
C2457 C2456 1.355 . S
C2457 C2459 1.402 . S
C2457 H2469 0.930 . S
N2458 Gd2449 2.661 . S
N2458 C2453 1.350 . S
N2458 C2459 1.307 . S
C2459 C2457 1.402 . S
C2459 N2458 1.307 . S
C2459 H2460 0.930 . S
H2460 C2459 0.930 . S
C2461 N2462 1.334 . S
C2461 C2463 1.408 . S
C2461 H2465 0.930 . S
N2462 Gd2449 2.601 . S
N2462 C2452 1.359 . S
N2462 C2461 1.334 . S
C2463 C2461 1.408 . S
C2463 C2464 1.368 . S
C2463 H2475 0.908 1_455 S
C2464 C2454 1.391 . S
C2464 C2463 1.368 . S
C2464 H2476 0.929 . S
H2465 C2461 0.930 . S
H2466 C2455 0.930 . S
H2467 C2484 0.930 . S
H2468 C2456 0.930 . S
H2469 C2457 0.930 . S
H2470 C2451 0.929 . S
H2471 C2489 0.930 . S
H2472 C2480 0.916 1_655 S
H2473 C2481 0.930 1_655 S
H2474 C2505 0.929 . S
H2475 C2463 0.908 1_655 S
H2476 C2464 0.929 . S
H2477 C2506 0.930 . S
H2478 C2487 0.930 . S
N2479 Gd2448 2.661 1_565 S
N2479 C2483 1.350 . S
N2479 C2484 1.307 . S
C2480 H2472 0.916 1_455 S
C2480 C2481 1.355 . S
C2480 C2482 1.412 . S
C2481 H2473 0.930 1_455 S
C2481 C2480 1.355 . S
C2481 C2484 1.402 . S
C2482 C2480 1.412 . S
C2482 C2483 1.417 . S
C2482 C2506 1.431 . S
C2483 N2479 1.350 . S
C2483 C2482 1.417 . S
C2483 C2486 1.426 . S
C2484 H2467 0.930 . S
C2484 N2479 1.307 . S
C2484 C2481 1.402 . S
N2485 Gd2448 2.601 1_565 S
N2485 C2486 1.359 . S
N2485 C2489 1.334 . S
C2486 C2483 1.426 . S
C2486 N2485 1.359 . S
C2486 C2490 1.413 . S
C2487 H2478 0.930 . S
C2487 C2488 1.359 . S
C2487 C2489 1.394 . S
C2488 C2487 1.359 . S
C2488 C2490 1.391 . S
C2488 H2491 0.929 . S
C2489 H2471 0.930 . S
C2489 N2485 1.334 . S
C2489 C2487 1.394 . S
C2490 C2486 1.413 . S
C2490 C2488 1.391 . S
C2490 C2505 1.437 . S
H2491 C2488 0.929 . S
O2492 Gd2448 2.545 1_565 S
O2492 C2507 1.258 . S
O2493 Gd2448 2.606 . S
O2493 Gd2449 2.362 . S
O2493 C2504 1.284 . S
O2494 Gd2449 2.324 . S
O2494 C2514 1.254 . S
O2495 Gd2448 2.429 . S
O2495 C2514 1.268 . S
O2496 Gd2448 2.545 . S
O2496 C2504 1.250 . S
O2497 Gd2448 2.412 1_565 S
O2497 C2507 1.252 . S
O2498 Gd2449 2.545 . S
O2498 C2516 1.258 . S
O2499 Gd2448 2.362 . S
O2499 Gd2449 2.606 . S
O2499 C2515 1.284 . S
O2500 Gd2448 2.318 . S
O2500 C2523 1.278 . S
O2501 Gd2449 2.429 . S
O2501 C2523 1.268 . S
O2502 Gd2449 2.545 . S
O2502 C2515 1.250 . S
O2503 Gd2449 2.412 . S
O2503 C2516 1.252 . S
C2504 O2493 1.284 . S
C2504 O2496 1.250 . S
C2505 H2474 0.929 . S
C2505 C2490 1.437 . S
C2505 C2506 1.317 . S
C2506 H2477 0.930 . S
C2506 C2482 1.431 . S
C2506 C2505 1.317 . S
C2507 Gd2448 2.828 1_565 S
C2507 O2492 1.258 . S
C2507 O2497 1.252 . S
C2507 C2508 1.497 . S
C2508 C2507 1.497 . S
C2508 C2509 1.395 . S
C2508 C2510 1.380 . S
C2509 C2508 1.395 . S
C2509 C2512 1.398 . S
C2509 H2524 0.930 . S
C2510 C2508 1.380 . S
C2510 C2511 1.391 . S
C2510 H2525 0.930 . S
C2511 C2510 1.391 . S
C2511 C2513 1.387 . S
C2512 C2509 1.398 . S
C2512 C2513 1.380 . S
C2512 H2526 0.930 . S
C2513 C2511 1.387 . S
C2513 C2512 1.380 . S
C2513 H2527 0.930 . S
C2514 O2494 1.254 . S
C2514 O2495 1.268 . S
C2515 O2499 1.284 . S
C2515 O2502 1.250 . S
C2516 Gd2449 2.828 . S
C2516 O2498 1.258 . S
C2516 O2503 1.252 . S
C2516 C2517 1.497 . S
C2517 C2516 1.497 . S
C2517 C2518 1.395 . S
C2517 C2519 1.380 . S
C2518 C2517 1.395 . S
C2518 C2521 1.398 . S
C2518 H2528 0.930 . S
C2519 C2517 1.380 . S
C2519 C2520 1.391 . S
C2519 H2529 0.930 . S
C2520 C2519 1.391 . S
C2520 C2522 1.387 . S
C2521 C2518 1.398 . S
C2521 C2522 1.380 . S
C2521 H2530 0.930 . S
C2522 C2520 1.387 . S
C2522 C2521 1.380 . S
C2522 H2531 0.930 . S
C2523 O2500 1.278 . S
C2523 O2501 1.268 . S
H2524 C2509 0.930 . S
H2525 C2510 0.930 . S
H2526 C2512 0.930 . S
H2527 C2513 0.930 . S
H2528 C2518 0.930 . S
H2529 C2519 0.930 . S
H2530 C2521 0.930 . S
H2531 C2522 0.930 . S
Gd2532 N2563 2.661 . S
Gd2532 N2569 2.601 . S
Gd2532 O2576 2.545 . S
Gd2532 O2577 2.606 . S
Gd2532 O2579 2.429 . S
Gd2532 O2580 2.545 . S
Gd2532 O2581 2.412 . S
Gd2532 O2583 2.362 . S
Gd2532 O2584 2.324 . S
Gd2532 C2591 2.828 . S
Gd2533 N2542 2.661 . S
Gd2533 N2546 2.601 . S
Gd2533 O2577 2.362 . S
Gd2533 O2578 2.324 . S
Gd2533 O2582 2.545 . S
Gd2533 O2583 2.606 . S
Gd2533 O2585 2.429 . S
Gd2533 O2586 2.545 . S
Gd2533 O2587 2.412 . S
Gd2533 C2600 2.828 . S
C2534 C2537 1.417 . S
C2534 C2539 1.431 . S
C2534 C2540 1.412 . S
C2535 C2538 1.437 . S
C2535 C2539 1.317 . S
C2535 H2554 0.929 . S
C2536 C2537 1.426 . S
C2536 C2538 1.413 . S
C2536 N2546 1.359 . S
C2537 C2534 1.417 . S
C2537 C2536 1.426 . S
C2537 N2542 1.350 . S
C2538 C2535 1.437 . S
C2538 C2536 1.413 . S
C2538 C2548 1.391 . S
C2539 C2534 1.431 . S
C2539 C2535 1.317 . S
C2539 H2550 0.930 . S
C2540 C2534 1.412 . S
C2540 C2541 1.355 . S
C2540 H2552 0.930 . S
C2541 C2540 1.355 . S
C2541 C2543 1.402 . S
C2541 H2553 0.930 . S
N2542 Gd2533 2.661 . S
N2542 C2537 1.350 . S
N2542 C2543 1.307 . S
C2543 C2541 1.402 . S
C2543 N2542 1.307 . S
C2543 H2544 0.930 . S
H2544 C2543 0.930 . S
C2545 N2546 1.334 . S
C2545 C2547 1.394 . S
C2545 H2549 0.930 . S
N2546 Gd2533 2.601 . S
N2546 C2536 1.359 . S
N2546 C2545 1.334 . S
C2547 C2545 1.394 . S
C2547 C2548 1.359 . S
C2547 H2559 0.930 . S
C2548 C2538 1.391 . S
C2548 C2547 1.359 . S
C2548 H2560 0.929 . S
H2549 C2545 0.930 . S
H2550 C2539 0.930 . S
H2551 C2568 0.930 . S
H2552 C2540 0.930 . S
H2553 C2541 0.930 . S
H2554 C2535 0.929 . S
H2555 C2573 0.930 . S
H2556 C2564 0.930 . S
H2557 C2565 0.930 . S
H2558 C2589 0.929 . S
H2559 C2547 0.930 . S
H2560 C2548 0.929 . S
H2561 C2590 0.930 . S
H2562 C2571 0.930 . S
N2563 Gd2532 2.661 . S
N2563 C2567 1.350 . S
N2563 C2568 1.307 . S
C2564 H2556 0.930 . S
C2564 C2565 1.355 . S
C2564 C2566 1.412 . S
C2565 H2557 0.930 . S
C2565 C2564 1.355 . S
C2565 C2568 1.402 . S
C2566 C2564 1.412 . S
C2566 C2567 1.417 . S
C2566 C2590 1.431 . S
C2567 N2563 1.350 . S
C2567 C2566 1.417 . S
C2567 C2570 1.426 . S
C2568 H2551 0.930 . S
C2568 N2563 1.307 . S
C2568 C2565 1.402 . S
N2569 Gd2532 2.601 . S
N2569 C2570 1.359 . S
N2569 C2573 1.334 . S
C2570 C2567 1.426 . S
C2570 N2569 1.359 . S
C2570 C2574 1.413 . S
C2571 H2562 0.930 . S
C2571 C2572 1.359 . S
C2571 C2573 1.394 . S
C2572 C2571 1.359 . S
C2572 C2574 1.391 . S
C2572 H2575 0.929 . S
C2573 H2555 0.930 . S
C2573 N2569 1.334 . S
C2573 C2571 1.394 . S
C2574 C2570 1.413 . S
C2574 C2572 1.391 . S
C2574 C2589 1.437 . S
H2575 C2572 0.929 . S
O2576 Gd2532 2.545 . S
O2576 C2591 1.258 . S
O2577 Gd2532 2.606 . S
O2577 Gd2533 2.362 . S
O2577 C2588 1.284 . S
O2578 Gd2533 2.324 . S
O2578 C2598 1.254 . S
O2579 Gd2532 2.429 . S
O2579 C2598 1.268 . S
O2580 Gd2532 2.545 . S
O2580 C2588 1.250 . S
O2581 Gd2532 2.412 . S
O2581 C2591 1.252 . S
O2582 Gd2533 2.545 . S
O2582 C2600 1.258 . S
O2583 Gd2532 2.362 . S
O2583 Gd2533 2.606 . S
O2583 C2599 1.284 . S
O2584 Gd2532 2.324 . S
O2584 C2607 1.254 . S
O2585 Gd2533 2.429 . S
O2585 C2607 1.268 . S
O2586 Gd2533 2.545 . S
O2586 C2599 1.250 . S
O2587 Gd2533 2.412 . S
O2587 C2600 1.252 . S
C2588 O2577 1.284 . S
C2588 O2580 1.250 . S
C2589 H2558 0.929 . S
C2589 C2574 1.437 . S
C2589 C2590 1.317 . S
C2590 H2561 0.930 . S
C2590 C2566 1.431 . S
C2590 C2589 1.317 . S
C2591 Gd2532 2.828 . S
C2591 O2576 1.258 . S
C2591 O2581 1.252 . S
C2591 C2592 1.497 . S
C2592 C2591 1.497 . S
C2592 C2593 1.395 . S
C2592 C2594 1.380 . S
C2593 C2592 1.395 . S
C2593 C2596 1.398 . S
C2593 H2608 0.930 . S
C2594 C2592 1.380 . S
C2594 C2595 1.391 . S
C2594 H2609 0.930 . S
C2595 C2594 1.391 . S
C2595 C2597 1.387 . S
C2596 C2593 1.398 . S
C2596 C2597 1.380 . S
C2596 H2610 0.930 . S
C2597 C2595 1.387 . S
C2597 C2596 1.380 . S
C2597 H2611 0.930 . S
C2598 O2578 1.254 . S
C2598 O2579 1.268 . S
C2599 O2583 1.284 . S
C2599 O2586 1.250 . S
C2600 Gd2533 2.828 . S
C2600 O2582 1.258 . S
C2600 O2587 1.252 . S
C2600 C2601 1.497 . S
C2601 C2600 1.497 . S
C2601 C2602 1.395 . S
C2601 C2603 1.380 . S
C2602 C2601 1.395 . S
C2602 C2605 1.398 . S
C2602 H2612 0.930 . S
C2603 C2601 1.380 . S
C2603 C2604 1.391 . S
C2603 H2613 0.930 . S
C2604 C2603 1.391 . S
C2604 C2606 1.387 . S
C2605 C2602 1.398 . S
C2605 C2606 1.380 . S
C2605 H2614 0.930 . S
C2606 C2604 1.387 . S
C2606 C2605 1.380 . S
C2606 H2615 0.930 . S
C2607 O2584 1.254 . S
C2607 O2585 1.268 . S
H2608 C2593 0.930 . S
H2609 C2594 0.930 . S
H2610 C2596 0.930 . S
H2611 C2597 0.930 . S
H2612 C2602 0.930 . S
H2613 C2603 0.930 . S
H2614 C2605 0.930 . S
H2615 C2606 0.930 . S
Gd2616 N2647 2.661 . S
Gd2616 N2653 2.601 . S
Gd2616 O2660 2.545 . S
Gd2616 O2661 2.606 1_556 S
Gd2616 O2663 2.429 1_556 S
Gd2616 O2664 2.545 . S
Gd2616 O2665 2.412 . S
Gd2616 O2667 2.362 1_556 S
Gd2616 O2668 2.324 . S
Gd2616 C2675 2.828 . S
Gd2617 N2626 2.661 . S
Gd2617 N2630 2.601 . S
Gd2617 O2661 2.362 . S
Gd2617 O2662 2.324 . S
Gd2617 O2666 2.545 1_545 S
Gd2617 O2667 2.606 . S
Gd2617 O2669 2.429 1_545 S
Gd2617 O2670 2.545 . S
Gd2617 O2671 2.412 . S
Gd2617 C2684 2.828 . S
C2618 C2621 1.417 . S
C2618 C2623 1.431 . S
C2618 C2624 1.412 . S
C2619 C2622 1.437 . S
C2619 C2623 1.317 . S
C2619 H2638 0.929 . S
C2620 C2621 1.426 . S
C2620 C2622 1.413 . S
C2620 N2630 1.359 . S
C2621 C2618 1.417 . S
C2621 C2620 1.426 . S
C2621 N2626 1.350 . S
C2622 C2619 1.437 . S
C2622 C2620 1.413 . S
C2622 C2632 1.391 1_545 S
C2623 C2618 1.431 . S
C2623 C2619 1.317 . S
C2623 H2634 0.930 . S
C2624 C2618 1.412 . S
C2624 C2625 1.355 . S
C2624 H2636 0.930 . S
C2625 C2624 1.355 . S
C2625 C2627 1.402 . S
C2625 H2637 0.930 . S
N2626 Gd2617 2.661 . S
N2626 C2621 1.350 . S
N2626 C2627 1.307 . S
C2627 C2625 1.402 . S
C2627 N2626 1.307 . S
C2627 H2628 0.930 . S
H2628 C2627 0.930 . S
C2629 N2630 1.334 1_565 S
C2629 C2631 1.394 . S
C2629 H2633 0.930 . S
N2630 Gd2617 2.601 . S
N2630 C2620 1.359 . S
N2630 C2629 1.334 1_545 S
C2631 C2629 1.394 . S
C2631 C2632 1.359 . S
C2631 H2643 0.930 . S
C2632 C2622 1.391 1_565 S
C2632 C2631 1.359 . S
C2632 H2644 0.929 . S
H2633 C2629 0.930 . S
H2634 C2623 0.930 . S
H2635 C2652 0.930 . S
H2636 C2624 0.930 . S
H2637 C2625 0.930 . S
H2638 C2619 0.929 . S
H2639 C2657 0.930 . S
H2640 C2648 0.930 . S
H2641 C2649 0.930 . S
H2642 C2673 0.929 . S
H2643 C2631 0.930 . S
H2644 C2632 0.929 . S
H2645 C2674 0.930 . S
H2646 C2655 0.930 . S
N2647 Gd2616 2.661 . S
N2647 C2651 1.350 . S
N2647 C2652 1.307 1_545 S
C2648 H2640 0.930 . S
C2648 C2649 1.355 . S
C2648 C2650 1.412 1_565 S
C2649 H2641 0.930 . S
C2649 C2648 1.355 . S
C2649 C2652 1.402 . S
C2650 C2648 1.412 1_545 S
C2650 C2651 1.417 . S
C2650 C2674 1.431 . S
C2651 N2647 1.350 . S
C2651 C2650 1.417 . S
C2651 C2654 1.426 . S
C2652 H2635 0.930 . S
C2652 N2647 1.307 1_565 S
C2652 C2649 1.402 . S
N2653 Gd2616 2.601 . S
N2653 C2654 1.359 . S
N2653 C2657 1.334 . S
C2654 C2651 1.426 . S
C2654 N2653 1.359 . S
C2654 C2658 1.413 . S
C2655 H2646 0.930 . S
C2655 C2656 1.359 . S
C2655 C2657 1.394 . S
C2656 C2655 1.359 . S
C2656 C2658 1.391 . S
C2656 H2659 0.929 . S
C2657 H2639 0.930 . S
C2657 N2653 1.334 . S
C2657 C2655 1.394 . S
C2658 C2654 1.413 . S
C2658 C2656 1.391 . S
C2658 C2673 1.437 . S
H2659 C2656 0.929 . S
O2660 Gd2616 2.545 . S
O2660 C2675 1.258 . S
O2661 Gd2616 2.606 1_554 S
O2661 Gd2617 2.362 . S
O2661 C2672 1.284 . S
O2662 Gd2617 2.324 . S
O2662 C2682 1.254 . S
O2663 Gd2616 2.429 1_554 S
O2663 C2682 1.268 . S
O2664 Gd2616 2.545 . S
O2664 C2672 1.250 1_556 S
O2665 Gd2616 2.412 . S
O2665 C2675 1.252 . S
O2666 Gd2617 2.545 1_565 S
O2666 C2684 1.258 1_565 S
O2667 Gd2616 2.362 1_554 S
O2667 Gd2617 2.606 . S
O2667 C2683 1.284 . S
O2668 Gd2616 2.324 . S
O2668 C2691 1.254 1_545 S
O2669 Gd2617 2.429 1_565 S
O2669 C2691 1.268 1_554 S
O2670 Gd2617 2.545 . S
O2670 C2683 1.250 . S
O2671 Gd2617 2.412 . S
O2671 C2684 1.252 . S
C2672 O2661 1.284 . S
C2672 O2664 1.250 1_554 S
C2673 H2642 0.929 . S
C2673 C2658 1.437 . S
C2673 C2674 1.317 . S
C2674 H2645 0.930 . S
C2674 C2650 1.431 . S
C2674 C2673 1.317 . S
C2675 Gd2616 2.828 . S
C2675 O2660 1.258 . S
C2675 O2665 1.252 . S
C2675 C2676 1.497 . S
C2676 C2675 1.497 . S
C2676 C2677 1.395 . S
C2676 C2678 1.380 . S
C2677 C2676 1.395 . S
C2677 C2680 1.398 . S
C2677 H2692 0.930 . S
C2678 C2676 1.380 . S
C2678 C2679 1.391 . S
C2678 H2693 0.930 . S
C2679 C2678 1.391 . S
C2679 C2681 1.387 . S
C2680 C2677 1.398 . S
C2680 C2681 1.380 . S
C2680 H2694 0.930 . S
C2681 C2679 1.387 . S
C2681 C2680 1.380 . S
C2681 H2695 0.930 . S
C2682 O2662 1.254 . S
C2682 O2663 1.268 . S
C2683 O2667 1.284 . S
C2683 O2670 1.250 . S
C2684 Gd2617 2.828 . S
C2684 O2666 1.258 1_545 S
C2684 O2671 1.252 . S
C2684 C2685 1.497 . S
C2685 C2684 1.497 . S
C2685 C2686 1.395 1_545 S
C2685 C2687 1.380 . S
C2686 C2685 1.395 1_565 S
C2686 C2689 1.398 . S
C2686 H2696 0.930 . S
C2687 C2685 1.380 . S
C2687 C2688 1.391 . S
C2687 H2697 0.930 . S
C2688 C2687 1.391 . S
C2688 C2690 1.387 1_545 S
C2689 C2686 1.398 . S
C2689 C2690 1.380 . S
C2689 H2698 0.930 . S
C2690 C2688 1.387 1_565 S
C2690 C2689 1.380 . S
C2690 H2699 0.930 . S
C2691 O2668 1.254 1_565 S
C2691 O2669 1.268 1_556 S
H2692 C2677 0.930 . S
H2693 C2678 0.930 . S
H2694 C2680 0.930 . S
H2695 C2681 0.930 . S
H2696 C2686 0.930 . S
H2697 C2687 0.930 . S
H2698 C2689 0.930 . S
H2699 C2690 0.930 . S
Gd2700 N2731 2.661 . S
Gd2700 N2737 2.601 . S
Gd2700 O2744 2.545 . S
Gd2700 O2745 2.606 . S
Gd2700 O2747 2.429 . S
Gd2700 O2748 2.545 . S
Gd2700 O2749 2.412 . S
Gd2700 O2751 2.362 . S
Gd2700 O2752 2.324 . S
Gd2700 C2759 2.828 . S
Gd2701 N2710 2.661 . S
Gd2701 N2714 2.601 . S
Gd2701 O2745 2.362 . S
Gd2701 O2746 2.324 . S
Gd2701 O2750 2.545 . S
Gd2701 O2751 2.606 . S
Gd2701 O2753 2.429 . S
Gd2701 O2754 2.545 . S
Gd2701 O2755 2.412 . S
Gd2701 C2768 2.828 . S
C2702 C2705 1.417 . S
C2702 C2707 1.431 . S
C2702 C2708 1.412 . S
C2703 C2706 1.437 . S
C2703 C2707 1.317 . S
C2703 H2722 0.929 . S
C2704 C2705 1.426 . S
C2704 C2706 1.413 . S
C2704 N2714 1.359 . S
C2705 C2702 1.417 . S
C2705 C2704 1.426 . S
C2705 N2710 1.350 . S
C2706 C2703 1.437 . S
C2706 C2704 1.413 . S
C2706 C2716 1.391 . S
C2707 C2702 1.431 . S
C2707 C2703 1.317 . S
C2707 H2718 0.930 . S
C2708 C2702 1.412 . S
C2708 C2709 1.355 . S
C2708 H2720 0.930 . S
C2709 C2708 1.355 . S
C2709 C2711 1.402 . S
C2709 H2721 0.930 . S
N2710 Gd2701 2.661 . S
N2710 C2705 1.350 . S
N2710 C2711 1.307 . S
C2711 C2709 1.402 . S
C2711 N2710 1.307 . S
C2711 H2712 0.930 . S
H2712 C2711 0.930 . S
C2713 N2714 1.334 . S
C2713 C2715 1.394 . S
C2713 H2717 0.930 . S
N2714 Gd2701 2.601 . S
N2714 C2704 1.359 . S
N2714 C2713 1.334 . S
C2715 C2713 1.394 . S
C2715 C2716 1.359 . S
C2715 H2727 0.930 . S
C2716 C2706 1.391 . S
C2716 C2715 1.359 . S
C2716 H2728 0.929 . S
H2717 C2713 0.930 . S
H2718 C2707 0.930 . S
H2719 C2736 0.930 . S
H2720 C2708 0.930 . S
H2721 C2709 0.930 . S
H2722 C2703 0.929 . S
H2723 C2741 0.930 . S
H2724 C2732 0.930 . S
H2725 C2733 0.930 . S
H2726 C2757 0.929 . S
H2727 C2715 0.930 . S
H2728 C2716 0.929 . S
H2729 C2758 0.930 . S
H2730 C2739 0.930 . S
N2731 Gd2700 2.661 . S
N2731 C2735 1.350 . S
N2731 C2736 1.307 . S
C2732 H2724 0.930 . S
C2732 C2733 1.355 . S
C2732 C2734 1.412 . S
C2733 H2725 0.930 . S
C2733 C2732 1.355 . S
C2733 C2736 1.402 . S
C2734 C2732 1.412 . S
C2734 C2735 1.417 . S
C2734 C2758 1.431 . S
C2735 N2731 1.350 . S
C2735 C2734 1.417 . S
C2735 C2738 1.426 . S
C2736 H2719 0.930 . S
C2736 N2731 1.307 . S
C2736 C2733 1.402 . S
N2737 Gd2700 2.601 . S
N2737 C2738 1.359 . S
N2737 C2741 1.334 . S
C2738 C2735 1.426 . S
C2738 N2737 1.359 . S
C2738 C2742 1.413 . S
C2739 H2730 0.930 . S
C2739 C2740 1.359 . S
C2739 C2741 1.394 . S
C2740 C2739 1.359 . S
C2740 C2742 1.391 . S
C2740 H2743 0.929 . S
C2741 H2723 0.930 . S
C2741 N2737 1.334 . S
C2741 C2739 1.394 . S
C2742 C2738 1.413 . S
C2742 C2740 1.391 . S
C2742 C2757 1.437 . S
H2743 C2740 0.929 . S
O2744 Gd2700 2.545 . S
O2744 C2759 1.258 . S
O2745 Gd2700 2.606 . S
O2745 Gd2701 2.362 . S
O2745 C2756 1.284 . S
O2746 Gd2701 2.324 . S
O2746 C2766 1.254 . S
O2747 Gd2700 2.429 . S
O2747 C2766 1.268 . S
O2748 Gd2700 2.545 . S
O2748 C2756 1.250 . S
O2749 Gd2700 2.412 . S
O2749 C2759 1.252 . S
O2750 Gd2701 2.545 . S
O2750 C2768 1.258 . S
O2751 Gd2700 2.362 . S
O2751 Gd2701 2.606 . S
O2751 C2767 1.284 . S
O2752 Gd2700 2.324 . S
O2752 C2775 1.254 . S
O2753 Gd2701 2.429 . S
O2753 C2775 1.268 . S
O2754 Gd2701 2.545 . S
O2754 C2767 1.250 . S
O2755 Gd2701 2.412 . S
O2755 C2768 1.252 . S
C2756 O2745 1.284 . S
C2756 O2748 1.250 . S
C2757 H2726 0.929 . S
C2757 C2742 1.437 . S
C2757 C2758 1.317 . S
C2758 H2729 0.930 . S
C2758 C2734 1.431 . S
C2758 C2757 1.317 . S
C2759 Gd2700 2.828 . S
C2759 O2744 1.258 . S
C2759 O2749 1.252 . S
C2759 C2760 1.497 . S
C2760 C2759 1.497 . S
C2760 C2761 1.395 . S
C2760 C2762 1.380 . S
C2761 C2760 1.395 . S
C2761 C2764 1.398 . S
C2761 H2776 0.930 . S
C2762 C2760 1.380 . S
C2762 C2763 1.391 . S
C2762 H2777 0.930 . S
C2763 C2762 1.391 . S
C2763 C2765 1.387 . S
C2764 C2761 1.398 . S
C2764 C2765 1.380 . S
C2764 H2778 0.930 . S
C2765 C2763 1.387 . S
C2765 C2764 1.380 . S
C2765 H2779 0.930 . S
C2766 O2746 1.254 . S
C2766 O2747 1.268 . S
C2767 O2751 1.284 . S
C2767 O2754 1.250 . S
C2768 Gd2701 2.828 . S
C2768 O2750 1.258 . S
C2768 O2755 1.252 . S
C2768 C2769 1.497 . S
C2769 C2768 1.497 . S
C2769 C2770 1.395 . S
C2769 C2771 1.380 . S
C2770 C2769 1.395 . S
C2770 C2773 1.398 . S
C2770 H2780 0.930 . S
C2771 C2769 1.380 . S
C2771 C2772 1.391 . S
C2771 H2781 0.930 . S
C2772 C2771 1.391 . S
C2772 C2774 1.387 . S
C2773 C2770 1.398 . S
C2773 C2774 1.380 . S
C2773 H2782 0.930 . S
C2774 C2772 1.387 . S
C2774 C2773 1.380 . S
C2774 H2783 0.930 . S
C2775 O2752 1.254 . S
C2775 O2753 1.268 . S
H2776 C2761 0.930 . S
H2777 C2762 0.930 . S
H2778 C2764 0.930 . S
H2779 C2765 0.930 . S
H2780 C2770 0.930 . S
H2781 C2771 0.930 . S
H2782 C2773 0.930 . S
H2783 C2774 0.930 . S
Gd2784 N2815 2.661 1_554 S
Gd2784 N2821 2.601 1_554 S
Gd2784 O2828 2.545 . S
Gd2784 O2829 2.606 . S
Gd2784 O2831 2.429 . S
Gd2784 O2832 2.545 . S
Gd2784 O2833 2.412 . S
Gd2784 O2835 2.362 1_554 S
Gd2784 O2836 2.324 . S
Gd2784 C2843 2.828 . S
Gd2785 N2794 2.661 . S
Gd2785 N2798 2.601 . S
Gd2785 O2829 2.362 . S
Gd2785 O2830 2.324 . S
Gd2785 O2834 2.545 . S
Gd2785 O2835 2.606 1_554 S
Gd2785 O2837 2.429 . S
Gd2785 O2838 2.545 1_554 S
Gd2785 O2839 2.412 . S
Gd2785 C2852 2.828 . S
C2786 C2789 1.417 . S
C2786 C2791 1.431 . S
C2786 C2792 1.412 . S
C2787 C2790 1.437 . S
C2787 C2791 1.317 . S
C2787 H2806 0.929 . S
C2788 C2789 1.426 . S
C2788 C2790 1.413 . S
C2788 N2798 1.359 . S
C2789 C2786 1.417 . S
C2789 C2788 1.426 . S
C2789 N2794 1.350 . S
C2790 C2787 1.437 . S
C2790 C2788 1.413 . S
C2790 C2800 1.391 . S
C2791 C2786 1.431 . S
C2791 C2787 1.317 . S
C2791 H2802 0.930 . S
C2792 C2786 1.412 . S
C2792 C2793 1.355 . S
C2792 H2804 0.930 . S
C2793 C2792 1.355 . S
C2793 C2795 1.402 . S
C2793 H2805 0.930 . S
N2794 Gd2785 2.661 . S
N2794 C2789 1.350 . S
N2794 C2795 1.307 . S
C2795 C2793 1.402 . S
C2795 N2794 1.307 . S
C2795 H2796 0.930 . S
H2796 C2795 0.930 . S
C2797 N2798 1.334 . S
C2797 C2799 1.394 . S
C2797 H2801 0.930 . S
N2798 Gd2785 2.601 . S
N2798 C2788 1.359 . S
N2798 C2797 1.334 . S
C2799 C2797 1.394 . S
C2799 C2800 1.359 . S
C2799 H2811 0.930 . S
C2800 C2790 1.391 . S
C2800 C2799 1.359 . S
C2800 H2812 0.929 . S
H2801 C2797 0.930 . S
H2802 C2791 0.930 . S
H2803 C2820 0.930 . S
H2804 C2792 0.930 . S
H2805 C2793 0.930 . S
H2806 C2787 0.929 . S
H2807 C2825 0.930 . S
H2808 C2816 0.930 . S
H2809 C2817 0.930 . S
H2810 C2841 0.929 . S
H2811 C2799 0.930 . S
H2812 C2800 0.929 . S
H2813 C2842 0.930 . S
H2814 C2823 0.930 . S
N2815 Gd2784 2.661 1_556 S
N2815 C2819 1.350 . S
N2815 C2820 1.307 . S
C2816 H2808 0.930 . S
C2816 C2817 1.355 . S
C2816 C2818 1.412 . S
C2817 H2809 0.930 . S
C2817 C2816 1.355 . S
C2817 C2820 1.402 . S
C2818 C2816 1.412 . S
C2818 C2819 1.417 . S
C2818 C2842 1.431 . S
C2819 N2815 1.350 . S
C2819 C2818 1.417 . S
C2819 C2822 1.426 . S
C2820 H2803 0.930 . S
C2820 N2815 1.307 . S
C2820 C2817 1.402 . S
N2821 Gd2784 2.601 1_556 S
N2821 C2822 1.359 . S
N2821 C2825 1.334 . S
C2822 C2819 1.426 . S
C2822 N2821 1.359 . S
C2822 C2826 1.413 . S
C2823 H2814 0.930 . S
C2823 C2824 1.359 . S
C2823 C2825 1.394 . S
C2824 C2823 1.359 . S
C2824 C2826 1.391 . S
C2824 H2827 0.929 . S
C2825 H2807 0.930 . S
C2825 N2821 1.334 . S
C2825 C2823 1.394 . S
C2826 C2822 1.413 . S
C2826 C2824 1.391 . S
C2826 C2841 1.437 . S
H2827 C2824 0.929 . S
O2828 Gd2784 2.545 . S
O2828 C2843 1.258 . S
O2829 Gd2784 2.606 . S
O2829 Gd2785 2.362 . S
O2829 C2840 1.284 . S
O2830 Gd2785 2.324 . S
O2830 C2850 1.254 . S
O2831 Gd2784 2.429 . S
O2831 C2850 1.268 . S
O2832 Gd2784 2.545 . S
O2832 C2840 1.250 . S
O2833 Gd2784 2.412 . S
O2833 C2843 1.252 . S
O2834 Gd2785 2.545 . S
O2834 C2852 1.258 . S
O2835 Gd2784 2.362 1_556 S
O2835 Gd2785 2.606 1_556 S
O2835 C2851 1.284 . S
O2836 Gd2784 2.324 . S
O2836 C2859 1.254 . S
O2837 Gd2785 2.429 . S
O2837 C2859 1.268 . S
O2838 Gd2785 2.545 1_556 S
O2838 C2851 1.250 . S
O2839 Gd2785 2.412 . S
O2839 C2852 1.252 . S
C2840 O2829 1.284 . S
C2840 O2832 1.250 . S
C2841 H2810 0.929 . S
C2841 C2826 1.437 . S
C2841 C2842 1.317 . S
C2842 H2813 0.930 . S
C2842 C2818 1.431 . S
C2842 C2841 1.317 . S
C2843 Gd2784 2.828 . S
C2843 O2828 1.258 . S
C2843 O2833 1.252 . S
C2843 C2844 1.497 . S
C2844 C2843 1.497 . S
C2844 C2845 1.395 . S
C2844 C2846 1.380 . S
C2845 C2844 1.395 . S
C2845 C2848 1.398 . S
C2845 H2860 0.930 . S
C2846 C2844 1.380 . S
C2846 C2847 1.391 . S
C2846 H2861 0.930 . S
C2847 C2846 1.391 . S
C2847 C2849 1.387 . S
C2848 C2845 1.398 . S
C2848 C2849 1.380 . S
C2848 H2862 0.930 . S
C2849 C2847 1.387 . S
C2849 C2848 1.380 . S
C2849 H2863 0.930 . S
C2850 O2830 1.254 . S
C2850 O2831 1.268 . S
C2851 O2835 1.284 . S
C2851 O2838 1.250 . S
C2852 Gd2785 2.828 . S
C2852 O2834 1.258 . S
C2852 O2839 1.252 . S
C2852 C2853 1.497 . S
C2853 C2852 1.497 . S
C2853 C2854 1.395 . S
C2853 C2855 1.380 . S
C2854 C2853 1.395 . S
C2854 C2857 1.398 . S
C2854 H2864 0.930 . S
C2855 C2853 1.380 . S
C2855 C2856 1.391 1_554 S
C2855 H2865 0.930 1_554 S
C2856 C2855 1.391 1_556 S
C2856 C2858 1.387 1_556 S
C2857 C2854 1.398 . S
C2857 C2858 1.380 . S
C2857 H2866 0.930 . S
C2858 C2856 1.387 1_554 S
C2858 C2857 1.380 . S
C2858 H2867 0.934 . S
C2859 O2836 1.254 . S
C2859 O2837 1.268 . S
H2860 C2845 0.930 . S
H2861 C2846 0.930 . S
H2862 C2848 0.930 . S
H2863 C2849 0.930 . S
H2864 C2854 0.930 . S
H2865 C2855 0.930 1_556 S
H2866 C2857 0.930 . S
H2867 C2858 0.934 . S
Gd2868 N2899 2.661 . S
Gd2868 N2905 2.601 . S
Gd2868 O2912 2.545 . S
Gd2868 O2913 2.606 . S
Gd2868 O2915 2.429 . S
Gd2868 O2916 2.545 . S
Gd2868 O2917 2.412 . S
Gd2868 O2919 2.362 . S
Gd2868 O2920 2.324 . S
Gd2868 C2927 2.828 . S
Gd2869 N2878 2.661 . S
Gd2869 N2882 2.601 . S
Gd2869 O2913 2.362 . S
Gd2869 O2914 2.324 . S
Gd2869 O2918 2.545 . S
Gd2869 O2919 2.606 . S
Gd2869 O2921 2.429 . S
Gd2869 O2922 2.545 . S
Gd2869 O2923 2.412 . S
Gd2869 C2936 2.828 . S
C2870 C2873 1.417 . S
C2870 C2875 1.431 . S
C2870 C2876 1.412 . S
C2871 C2874 1.437 . S
C2871 C2875 1.317 . S
C2871 H2890 0.929 . S
C2872 C2873 1.426 . S
C2872 C2874 1.413 . S
C2872 N2882 1.359 . S
C2873 C2870 1.417 . S
C2873 C2872 1.426 . S
C2873 N2878 1.350 . S
C2874 C2871 1.437 . S
C2874 C2872 1.413 . S
C2874 C2884 1.391 . S
C2875 C2870 1.431 . S
C2875 C2871 1.317 . S
C2875 H2886 0.930 . S
C2876 C2870 1.412 . S
C2876 C2877 1.355 . S
C2876 H2888 0.930 . S
C2877 C2876 1.355 . S
C2877 C2879 1.402 . S
C2877 H2889 0.930 . S
N2878 Gd2869 2.661 . S
N2878 C2873 1.350 . S
N2878 C2879 1.307 . S
C2879 C2877 1.402 . S
C2879 N2878 1.307 . S
C2879 H2880 0.930 . S
H2880 C2879 0.930 . S
C2881 N2882 1.334 . S
C2881 C2883 1.394 . S
C2881 H2885 0.930 . S
N2882 Gd2869 2.601 . S
N2882 C2872 1.359 . S
N2882 C2881 1.334 . S
C2883 C2881 1.394 . S
C2883 C2884 1.359 . S
C2883 H2895 0.930 . S
C2884 C2874 1.391 . S
C2884 C2883 1.359 . S
C2884 H2896 0.929 . S
H2885 C2881 0.930 . S
H2886 C2875 0.930 . S
H2887 C2904 0.930 . S
H2888 C2876 0.930 . S
H2889 C2877 0.930 . S
H2890 C2871 0.929 . S
H2891 C2909 0.930 . S
H2892 C2900 0.930 . S
H2893 C2901 0.930 . S
H2894 C2925 0.929 . S
H2895 C2883 0.930 . S
H2896 C2884 0.929 . S
H2897 C2926 0.930 . S
H2898 C2907 0.930 . S
N2899 Gd2868 2.661 . S
N2899 C2903 1.350 . S
N2899 C2904 1.307 . S
C2900 H2892 0.930 . S
C2900 C2901 1.355 . S
C2900 C2902 1.412 . S
C2901 H2893 0.930 . S
C2901 C2900 1.355 . S
C2901 C2904 1.402 . S
C2902 C2900 1.412 . S
C2902 C2903 1.417 . S
C2902 C2926 1.431 . S
C2903 N2899 1.350 . S
C2903 C2902 1.417 . S
C2903 C2906 1.426 . S
C2904 H2887 0.930 . S
C2904 N2899 1.307 . S
C2904 C2901 1.402 . S
N2905 Gd2868 2.601 . S
N2905 C2906 1.359 . S
N2905 C2909 1.334 . S
C2906 C2903 1.426 . S
C2906 N2905 1.359 . S
C2906 C2910 1.413 . S
C2907 H2898 0.930 . S
C2907 C2908 1.359 . S
C2907 C2909 1.394 . S
C2908 C2907 1.359 . S
C2908 C2910 1.391 . S
C2908 H2911 0.929 . S
C2909 H2891 0.930 . S
C2909 N2905 1.334 . S
C2909 C2907 1.394 . S
C2910 C2906 1.413 . S
C2910 C2908 1.391 . S
C2910 C2925 1.437 . S
H2911 C2908 0.929 . S
O2912 Gd2868 2.545 . S
O2912 C2927 1.258 . S
O2913 Gd2868 2.606 . S
O2913 Gd2869 2.362 . S
O2913 C2924 1.284 . S
O2914 Gd2869 2.324 . S
O2914 C2934 1.254 . S
O2915 Gd2868 2.429 . S
O2915 C2934 1.268 . S
O2916 Gd2868 2.545 . S
O2916 C2924 1.250 . S
O2917 Gd2868 2.412 . S
O2917 C2927 1.252 . S
O2918 Gd2869 2.545 . S
O2918 C2936 1.258 . S
O2919 Gd2868 2.362 . S
O2919 Gd2869 2.606 . S
O2919 C2935 1.284 . S
O2920 Gd2868 2.324 . S
O2920 C2943 1.254 . S
O2921 Gd2869 2.429 . S
O2921 C2943 1.268 . S
O2922 Gd2869 2.545 . S
O2922 C2935 1.250 . S
O2923 Gd2869 2.412 . S
O2923 C2936 1.252 . S
C2924 O2913 1.284 . S
C2924 O2916 1.250 . S
C2925 H2894 0.929 . S
C2925 C2910 1.437 . S
C2925 C2926 1.317 . S
C2926 H2897 0.930 . S
C2926 C2902 1.431 . S
C2926 C2925 1.317 . S
C2927 Gd2868 2.828 . S
C2927 O2912 1.258 . S
C2927 O2917 1.252 . S
C2927 C2928 1.497 . S
C2928 C2927 1.497 . S
C2928 C2929 1.395 . S
C2928 C2930 1.380 . S
C2929 C2928 1.395 . S
C2929 C2932 1.398 . S
C2929 H2944 0.930 . S
C2930 C2928 1.380 . S
C2930 C2931 1.391 . S
C2930 H2945 0.930 . S
C2931 C2930 1.391 . S
C2931 C2933 1.387 . S
C2932 C2929 1.398 . S
C2932 C2933 1.380 . S
C2932 H2946 0.930 . S
C2933 C2931 1.387 . S
C2933 C2932 1.380 . S
C2933 H2947 0.930 . S
C2934 O2914 1.254 . S
C2934 O2915 1.268 . S
C2935 O2919 1.284 . S
C2935 O2922 1.250 . S
C2936 Gd2869 2.828 . S
C2936 O2918 1.258 . S
C2936 O2923 1.252 . S
C2936 C2937 1.497 . S
C2937 C2936 1.497 . S
C2937 C2938 1.395 . S
C2937 C2939 1.380 . S
C2938 C2937 1.395 . S
C2938 C2941 1.398 . S
C2938 H2948 0.930 . S
C2939 C2937 1.380 . S
C2939 C2940 1.391 . S
C2939 H2949 0.930 . S
C2940 C2939 1.391 . S
C2940 C2942 1.387 . S
C2941 C2938 1.398 . S
C2941 C2942 1.380 . S
C2941 H2950 0.930 . S
C2942 C2940 1.387 . S
C2942 C2941 1.380 . S
C2942 H2951 0.930 . S
C2943 O2920 1.254 . S
C2943 O2921 1.268 . S
H2944 C2929 0.930 . S
H2945 C2930 0.930 . S
H2946 C2932 0.930 . S
H2947 C2933 0.930 . S
H2948 C2938 0.930 . S
H2949 C2939 0.930 . S
H2950 C2941 0.930 . S
H2951 C2942 0.930 . S
Gd2952 N2983 2.661 . S
Gd2952 N2989 2.601 . S
Gd2952 O2996 2.545 . S
Gd2952 O2997 2.606 . S
Gd2952 O2999 2.429 . S
Gd2952 O3000 2.545 . S
Gd2952 O3001 2.412 . S
Gd2952 O3003 2.362 . S
Gd2952 O3004 2.324 . S
Gd2952 C3011 2.828 . S
Gd2953 N2962 2.661 . S
Gd2953 N2966 2.601 . S
Gd2953 O2997 2.362 . S
Gd2953 O2998 2.324 . S
Gd2953 O3002 2.545 . S
Gd2953 O3003 2.606 . S
Gd2953 O3005 2.429 . S
Gd2953 O3006 2.545 . S
Gd2953 O3007 2.412 . S
Gd2953 C3020 2.828 . S
C2954 C2957 1.417 . S
C2954 C2959 1.431 . S
C2954 C2960 1.412 . S
C2955 C2958 1.437 . S
C2955 C2959 1.317 . S
C2955 H2974 0.929 . S
C2956 C2957 1.426 . S
C2956 C2958 1.413 . S
C2956 N2966 1.359 . S
C2957 C2954 1.417 . S
C2957 C2956 1.426 . S
C2957 N2962 1.350 . S
C2958 C2955 1.437 . S
C2958 C2956 1.413 . S
C2958 C2968 1.391 . S
C2959 C2954 1.431 . S
C2959 C2955 1.317 . S
C2959 H2970 0.930 . S
C2960 C2954 1.412 . S
C2960 C2961 1.355 . S
C2960 H2972 0.930 . S
C2961 C2960 1.355 . S
C2961 C2963 1.402 . S
C2961 H2973 0.930 . S
N2962 Gd2953 2.661 . S
N2962 C2957 1.350 . S
N2962 C2963 1.307 . S
C2963 C2961 1.402 . S
C2963 N2962 1.307 . S
C2963 H2964 0.930 . S
H2964 C2963 0.930 . S
C2965 N2966 1.334 . S
C2965 C2967 1.394 . S
C2965 H2969 0.930 . S
N2966 Gd2953 2.601 . S
N2966 C2956 1.359 . S
N2966 C2965 1.334 . S
C2967 C2965 1.394 . S
C2967 C2968 1.359 . S
C2967 H2979 0.930 . S
C2968 C2958 1.391 . S
C2968 C2967 1.359 . S
C2968 H2980 0.929 . S
H2969 C2965 0.930 . S
H2970 C2959 0.930 . S
H2971 C2988 0.930 . S
H2972 C2960 0.930 . S
H2973 C2961 0.930 . S
H2974 C2955 0.929 . S
H2975 C2993 0.930 . S
H2976 C2984 0.930 . S
H2977 C2985 0.930 . S
H2978 C3009 0.929 . S
H2979 C2967 0.930 . S
H2980 C2968 0.929 . S
H2981 C3010 0.930 . S
H2982 C2991 0.930 . S
N2983 Gd2952 2.661 . S
N2983 C2987 1.350 . S
N2983 C2988 1.307 . S
C2984 H2976 0.930 . S
C2984 C2985 1.355 . S
C2984 C2986 1.412 . S
C2985 H2977 0.930 . S
C2985 C2984 1.355 . S
C2985 C2988 1.402 1_655 S
C2986 C2984 1.412 . S
C2986 C2987 1.417 1_655 S
C2986 C3010 1.431 . S
C2987 N2983 1.350 . S
C2987 C2986 1.417 1_455 S
C2987 C2990 1.426 . S
C2988 H2971 0.930 . S
C2988 N2983 1.307 . S
C2988 C2985 1.402 1_455 S
N2989 Gd2952 2.601 . S
N2989 C2990 1.359 . S
N2989 C2993 1.334 . S
C2990 C2987 1.426 . S
C2990 N2989 1.359 . S
C2990 C2994 1.413 1_455 S
C2991 H2982 0.930 . S
C2991 C2992 1.359 1_455 S
C2991 C2993 1.394 . S
C2992 C2991 1.359 1_655 S
C2992 C2994 1.391 . S
C2992 H2995 0.929 . S
C2993 H2975 0.930 . S
C2993 N2989 1.334 . S
C2993 C2991 1.394 . S
C2994 C2990 1.413 1_655 S
C2994 C2992 1.391 . S
C2994 C3009 1.437 . S
H2995 C2992 0.929 . S
O2996 Gd2952 2.545 . S
O2996 C3011 1.258 . S
O2997 Gd2952 2.606 . S
O2997 Gd2953 2.362 . S
O2997 C3008 1.284 . S
O2998 Gd2953 2.324 . S
O2998 C3018 1.254 . S
O2999 Gd2952 2.429 . S
O2999 C3018 1.268 . S
O3000 Gd2952 2.545 . S
O3000 C3008 1.250 . S
O3001 Gd2952 2.412 . S
O3001 C3011 1.252 . S
O3002 Gd2953 2.545 . S
O3002 C3020 1.258 . S
O3003 Gd2952 2.362 . S
O3003 Gd2953 2.606 . S
O3003 C3019 1.284 . S
O3004 Gd2952 2.324 . S
O3004 C3027 1.254 . S
O3005 Gd2953 2.429 . S
O3005 C3027 1.268 . S
O3006 Gd2953 2.545 . S
O3006 C3019 1.250 . S
O3007 Gd2953 2.412 . S
O3007 C3020 1.252 . S
C3008 O2997 1.284 . S
C3008 O3000 1.250 . S
C3009 H2978 0.929 . S
C3009 C2994 1.437 . S
C3009 C3010 1.317 . S
C3010 H2981 0.930 . S
C3010 C2986 1.431 . S
C3010 C3009 1.317 . S
C3011 Gd2952 2.828 . S
C3011 O2996 1.258 . S
C3011 O3001 1.252 . S
C3011 C3012 1.497 . S
C3012 C3011 1.497 . S
C3012 C3013 1.395 . S
C3012 C3014 1.380 . S
C3013 C3012 1.395 . S
C3013 C3016 1.398 . S
C3013 H3028 0.930 . S
C3014 C3012 1.380 . S
C3014 C3015 1.391 . S
C3014 H3029 0.930 . S
C3015 C3014 1.391 . S
C3015 C3017 1.387 . S
C3016 C3013 1.398 . S
C3016 C3017 1.380 . S
C3016 H3030 0.930 . S
C3017 C3015 1.387 . S
C3017 C3016 1.380 . S
C3017 H3031 0.930 . S
C3018 O2998 1.254 . S
C3018 O2999 1.268 . S
C3019 O3003 1.284 . S
C3019 O3006 1.250 . S
C3020 Gd2953 2.828 . S
C3020 O3002 1.258 . S
C3020 O3007 1.252 . S
C3020 C3021 1.497 . S
C3021 C3020 1.497 . S
C3021 C3022 1.395 . S
C3021 C3023 1.380 . S
C3022 C3021 1.395 . S
C3022 C3025 1.398 . S
C3022 H3032 0.930 . S
C3023 C3021 1.380 . S
C3023 C3024 1.391 . S
C3023 H3033 0.930 . S
C3024 C3023 1.391 . S
C3024 C3026 1.387 . S
C3025 C3022 1.398 . S
C3025 C3026 1.380 . S
C3025 H3034 0.930 . S
C3026 C3024 1.387 . S
C3026 C3025 1.380 . S
C3026 H3035 0.930 . S
C3027 O3004 1.254 . S
C3027 O3005 1.268 . S
H3028 C3013 0.930 . S
H3029 C3014 0.930 . S
H3030 C3016 0.930 . S
H3031 C3017 0.930 . S
H3032 C3022 0.930 . S
H3033 C3023 0.930 . S
H3034 C3025 0.930 . S
H3035 C3026 0.930 . S
Gd3036 N3067 2.661 . S
Gd3036 N3073 2.601 . S
Gd3036 O3080 2.545 . S
Gd3036 O3081 2.606 . S
Gd3036 O3083 2.429 . S
Gd3036 O3084 2.545 . S
Gd3036 O3085 2.412 . S
Gd3036 O3087 2.362 . S
Gd3036 O3088 2.324 . S
Gd3036 C3095 2.828 . S
Gd3037 N3046 2.661 . S
Gd3037 N3050 2.601 . S
Gd3037 O3081 2.362 . S
Gd3037 O3082 2.324 . S
Gd3037 O3086 2.545 . S
Gd3037 O3087 2.606 . S
Gd3037 O3089 2.429 . S
Gd3037 O3090 2.545 . S
Gd3037 O3091 2.412 . S
Gd3037 C3104 2.828 . S
C3038 C3041 1.417 . S
C3038 C3043 1.431 . S
C3038 C3044 1.412 . S
C3039 C3042 1.437 . S
C3039 C3043 1.317 . S
C3039 H3058 0.929 . S
C3040 C3041 1.426 . S
C3040 C3042 1.413 . S
C3040 N3050 1.359 . S
C3041 C3038 1.417 . S
C3041 C3040 1.426 . S
C3041 N3046 1.350 . S
C3042 C3039 1.437 . S
C3042 C3040 1.413 . S
C3042 C3052 1.391 . S
C3043 C3038 1.431 . S
C3043 C3039 1.317 . S
C3043 H3054 0.930 . S
C3044 C3038 1.412 . S
C3044 C3045 1.355 . S
C3044 H3056 0.930 . S
C3045 C3044 1.355 . S
C3045 C3047 1.402 . S
C3045 H3057 0.930 . S
N3046 Gd3037 2.661 . S
N3046 C3041 1.350 . S
N3046 C3047 1.307 . S
C3047 C3045 1.402 . S
C3047 N3046 1.307 . S
C3047 H3048 0.930 . S
H3048 C3047 0.930 . S
C3049 N3050 1.334 . S
C3049 C3051 1.394 . S
C3049 H3053 0.930 . S
N3050 Gd3037 2.601 . S
N3050 C3040 1.359 . S
N3050 C3049 1.334 . S
C3051 C3049 1.394 . S
C3051 C3052 1.359 . S
C3051 H3063 0.930 . S
C3052 C3042 1.391 . S
C3052 C3051 1.359 . S
C3052 H3064 0.929 . S
H3053 C3049 0.930 . S
H3054 C3043 0.930 . S
H3055 C3072 0.930 . S
H3056 C3044 0.930 . S
H3057 C3045 0.930 . S
H3058 C3039 0.929 . S
H3059 C3077 0.930 . S
H3060 C3068 0.930 . S
H3061 C3069 0.930 . S
H3062 C3093 0.929 . S
H3063 C3051 0.930 . S
H3064 C3052 0.929 . S
H3065 C3094 0.930 . S
H3066 C3075 0.930 . S
N3067 Gd3036 2.661 . S
N3067 C3071 1.350 . S
N3067 C3072 1.307 . S
C3068 H3060 0.930 . S
C3068 C3069 1.355 . S
C3068 C3070 1.412 . S
C3069 H3061 0.930 . S
C3069 C3068 1.355 . S
C3069 C3072 1.402 . S
C3070 C3068 1.412 . S
C3070 C3071 1.417 . S
C3070 C3094 1.431 . S
C3071 N3067 1.350 . S
C3071 C3070 1.417 . S
C3071 C3074 1.426 . S
C3072 H3055 0.930 . S
C3072 N3067 1.307 . S
C3072 C3069 1.402 . S
N3073 Gd3036 2.601 . S
N3073 C3074 1.359 . S
N3073 C3077 1.334 . S
C3074 C3071 1.426 . S
C3074 N3073 1.359 . S
C3074 C3078 1.413 . S
C3075 H3066 0.930 . S
C3075 C3076 1.359 . S
C3075 C3077 1.394 . S
C3076 C3075 1.359 . S
C3076 C3078 1.391 . S
C3076 H3079 0.929 . S
C3077 H3059 0.930 . S
C3077 N3073 1.334 . S
C3077 C3075 1.394 . S
C3078 C3074 1.413 . S
C3078 C3076 1.391 . S
C3078 C3093 1.437 . S
H3079 C3076 0.929 . S
O3080 Gd3036 2.545 . S
O3080 C3095 1.258 . S
O3081 Gd3036 2.606 . S
O3081 Gd3037 2.362 . S
O3081 C3092 1.284 . S
O3082 Gd3037 2.324 . S
O3082 C3102 1.254 . S
O3083 Gd3036 2.429 . S
O3083 C3102 1.268 . S
O3084 Gd3036 2.545 . S
O3084 C3092 1.250 . S
O3085 Gd3036 2.412 . S
O3085 C3095 1.252 . S
O3086 Gd3037 2.545 . S
O3086 C3104 1.258 . S
O3087 Gd3036 2.362 . S
O3087 Gd3037 2.606 . S
O3087 C3103 1.284 . S
O3088 Gd3036 2.324 . S
O3088 C3111 1.254 . S
O3089 Gd3037 2.429 . S
O3089 C3111 1.268 . S
O3090 Gd3037 2.545 . S
O3090 C3103 1.250 . S
O3091 Gd3037 2.412 . S
O3091 C3104 1.252 . S
C3092 O3081 1.284 . S
C3092 O3084 1.250 . S
C3093 H3062 0.929 . S
C3093 C3078 1.437 . S
C3093 C3094 1.317 . S
C3094 H3065 0.930 . S
C3094 C3070 1.431 . S
C3094 C3093 1.317 . S
C3095 Gd3036 2.828 . S
C3095 O3080 1.258 . S
C3095 O3085 1.252 . S
C3095 C3096 1.497 . S
C3096 C3095 1.497 . S
C3096 C3097 1.395 . S
C3096 C3098 1.380 . S
C3097 C3096 1.395 . S
C3097 C3100 1.398 . S
C3097 H3112 0.930 . S
C3098 C3096 1.380 . S
C3098 C3099 1.391 . S
C3098 H3113 0.930 . S
C3099 C3098 1.391 . S
C3099 C3101 1.387 . S
C3100 C3097 1.398 . S
C3100 C3101 1.380 . S
C3100 H3114 0.930 . S
C3101 C3099 1.387 . S
C3101 C3100 1.380 . S
C3101 H3115 0.930 . S
C3102 O3082 1.254 . S
C3102 O3083 1.268 . S
C3103 O3087 1.284 . S
C3103 O3090 1.250 . S
C3104 Gd3037 2.828 . S
C3104 O3086 1.258 . S
C3104 O3091 1.252 . S
C3104 C3105 1.497 . S
C3105 C3104 1.497 . S
C3105 C3106 1.395 . S
C3105 C3107 1.380 . S
C3106 C3105 1.395 . S
C3106 C3109 1.398 . S
C3106 H3116 0.930 . S
C3107 C3105 1.380 . S
C3107 C3108 1.391 . S
C3107 H3117 0.930 . S
C3108 C3107 1.391 . S
C3108 C3110 1.387 . S
C3109 C3106 1.398 . S
C3109 C3110 1.380 . S
C3109 H3118 0.930 . S
C3110 C3108 1.387 . S
C3110 C3109 1.380 . S
C3110 H3119 0.930 . S
C3111 O3088 1.254 . S
C3111 O3089 1.268 . S
H3112 C3097 0.930 . S
H3113 C3098 0.930 . S
H3114 C3100 0.930 . S
H3115 C3101 0.930 . S
H3116 C3106 0.930 . S
H3117 C3107 0.930 . S
H3118 C3109 0.930 . S
H3119 C3110 0.930 . S
Gd3120 N3151 2.661 . S
Gd3120 N3157 2.601 . S
Gd3120 O3164 2.545 . S
Gd3120 O3165 2.606 . S
Gd3120 O3167 2.429 . S
Gd3120 O3168 2.545 . S
Gd3120 O3169 2.412 . S
Gd3120 O3171 2.362 . S
Gd3120 O3172 2.324 . S
Gd3120 C3179 2.828 . S
Gd3121 N3130 2.661 . S
Gd3121 N3134 2.601 . S
Gd3121 O3165 2.362 . S
Gd3121 O3166 2.324 . S
Gd3121 O3170 2.545 . S
Gd3121 O3171 2.606 . S
Gd3121 O3173 2.429 . S
Gd3121 O3174 2.545 . S
Gd3121 O3175 2.412 . S
Gd3121 C3188 2.828 . S
C3122 C3125 1.417 . S
C3122 C3127 1.431 . S
C3122 C3128 1.412 . S
C3123 C3126 1.437 . S
C3123 C3127 1.317 . S
C3123 H3142 0.929 . S
C3124 C3125 1.426 . S
C3124 C3126 1.413 . S
C3124 N3134 1.359 . S
C3125 C3122 1.417 . S
C3125 C3124 1.426 . S
C3125 N3130 1.350 . S
C3126 C3123 1.437 . S
C3126 C3124 1.413 . S
C3126 C3136 1.391 . S
C3127 C3122 1.431 . S
C3127 C3123 1.317 . S
C3127 H3138 0.930 . S
C3128 C3122 1.412 . S
C3128 C3129 1.355 . S
C3128 H3140 0.930 . S
C3129 C3128 1.355 . S
C3129 C3131 1.402 . S
C3129 H3141 0.930 . S
N3130 Gd3121 2.661 . S
N3130 C3125 1.350 . S
N3130 C3131 1.307 . S
C3131 C3129 1.402 . S
C3131 N3130 1.307 . S
C3131 H3132 0.930 . S
H3132 C3131 0.930 . S
C3133 N3134 1.334 . S
C3133 C3135 1.394 . S
C3133 H3137 0.930 . S
N3134 Gd3121 2.601 . S
N3134 C3124 1.359 . S
N3134 C3133 1.334 . S
C3135 C3133 1.394 . S
C3135 C3136 1.359 . S
C3135 H3147 0.930 . S
C3136 C3126 1.391 . S
C3136 C3135 1.359 . S
C3136 H3148 0.929 . S
H3137 C3133 0.930 . S
H3138 C3127 0.930 . S
H3139 C3156 0.930 . S
H3140 C3128 0.930 . S
H3141 C3129 0.930 . S
H3142 C3123 0.929 . S
H3143 C3161 0.930 . S
H3144 C3152 0.930 . S
H3145 C3153 0.930 . S
H3146 C3177 0.929 . S
H3147 C3135 0.930 . S
H3148 C3136 0.929 . S
H3149 C3178 0.930 . S
H3150 C3159 0.930 . S
N3151 Gd3120 2.661 . S
N3151 C3155 1.350 . S
N3151 C3156 1.307 . S
C3152 H3144 0.930 . S
C3152 C3153 1.355 . S
C3152 C3154 1.412 . S
C3153 H3145 0.930 . S
C3153 C3152 1.355 . S
C3153 C3156 1.402 . S
C3154 C3152 1.412 . S
C3154 C3155 1.417 . S
C3154 C3178 1.431 . S
C3155 N3151 1.350 . S
C3155 C3154 1.417 . S
C3155 C3158 1.426 . S
C3156 H3139 0.930 . S
C3156 N3151 1.307 . S
C3156 C3153 1.402 . S
N3157 Gd3120 2.601 . S
N3157 C3158 1.359 . S
N3157 C3161 1.334 . S
C3158 C3155 1.426 . S
C3158 N3157 1.359 . S
C3158 C3162 1.413 . S
C3159 H3150 0.930 . S
C3159 C3160 1.359 . S
C3159 C3161 1.394 . S
C3160 C3159 1.359 . S
C3160 C3162 1.391 . S
C3160 H3163 0.929 . S
C3161 H3143 0.930 . S
C3161 N3157 1.334 . S
C3161 C3159 1.394 . S
C3162 C3158 1.413 . S
C3162 C3160 1.391 . S
C3162 C3177 1.437 . S
H3163 C3160 0.929 . S
O3164 Gd3120 2.545 . S
O3164 C3179 1.258 . S
O3165 Gd3120 2.606 . S
O3165 Gd3121 2.362 . S
O3165 C3176 1.284 . S
O3166 Gd3121 2.324 . S
O3166 C3186 1.254 . S
O3167 Gd3120 2.429 . S
O3167 C3186 1.268 . S
O3168 Gd3120 2.545 . S
O3168 C3176 1.250 . S
O3169 Gd3120 2.412 . S
O3169 C3179 1.252 . S
O3170 Gd3121 2.545 . S
O3170 C3188 1.258 . S
O3171 Gd3120 2.362 . S
O3171 Gd3121 2.606 . S
O3171 C3187 1.284 . S
O3172 Gd3120 2.324 . S
O3172 C3195 1.254 . S
O3173 Gd3121 2.429 . S
O3173 C3195 1.268 . S
O3174 Gd3121 2.545 . S
O3174 C3187 1.250 . S
O3175 Gd3121 2.412 . S
O3175 C3188 1.252 . S
C3176 O3165 1.284 . S
C3176 O3168 1.250 . S
C3177 H3146 0.929 . S
C3177 C3162 1.437 . S
C3177 C3178 1.317 . S
C3178 H3149 0.930 . S
C3178 C3154 1.431 . S
C3178 C3177 1.317 . S
C3179 Gd3120 2.828 . S
C3179 O3164 1.258 . S
C3179 O3169 1.252 . S
C3179 C3180 1.497 . S
C3180 C3179 1.497 . S
C3180 C3181 1.395 . S
C3180 C3182 1.380 . S
C3181 C3180 1.395 . S
C3181 C3184 1.398 . S
C3181 H3196 0.930 . S
C3182 C3180 1.380 . S
C3182 C3183 1.391 . S
C3182 H3197 0.930 . S
C3183 C3182 1.391 . S
C3183 C3185 1.387 . S
C3184 C3181 1.398 . S
C3184 C3185 1.380 . S
C3184 H3198 0.930 . S
C3185 C3183 1.387 . S
C3185 C3184 1.380 . S
C3185 H3199 0.930 . S
C3186 O3166 1.254 . S
C3186 O3167 1.268 . S
C3187 O3171 1.284 . S
C3187 O3174 1.250 . S
C3188 Gd3121 2.828 . S
C3188 O3170 1.258 . S
C3188 O3175 1.252 . S
C3188 C3189 1.497 . S
C3189 C3188 1.497 . S
C3189 C3190 1.395 . S
C3189 C3191 1.380 . S
C3190 C3189 1.395 . S
C3190 C3193 1.398 . S
C3190 H3200 0.930 . S
C3191 C3189 1.380 . S
C3191 C3192 1.391 . S
C3191 H3201 0.930 . S
C3192 C3191 1.391 . S
C3192 C3194 1.387 . S
C3193 C3190 1.398 . S
C3193 C3194 1.380 . S
C3193 H3202 0.930 . S
C3194 C3192 1.387 . S
C3194 C3193 1.380 . S
C3194 H3203 0.930 . S
C3195 O3172 1.254 . S
C3195 O3173 1.268 . S
H3196 C3181 0.930 . S
H3197 C3182 0.930 . S
H3198 C3184 0.930 . S
H3199 C3185 0.930 . S
H3200 C3190 0.930 . S
H3201 C3191 0.930 . S
H3202 C3193 0.930 . S
H3203 C3194 0.930 . S
Gd3204 N3235 2.661 . S
Gd3204 N3241 2.601 . S
Gd3204 O3248 2.545 . S
Gd3204 O3249 2.606 . S
Gd3204 O3251 2.429 . S
Gd3204 O3252 2.545 . S
Gd3204 O3253 2.412 . S
Gd3204 O3255 2.362 . S
Gd3204 O3256 2.324 . S
Gd3204 C3263 2.828 . S
Gd3205 N3214 2.661 . S
Gd3205 N3218 2.601 . S
Gd3205 O3249 2.362 . S
Gd3205 O3250 2.324 . S
Gd3205 O3254 2.545 . S
Gd3205 O3255 2.606 . S
Gd3205 O3257 2.429 . S
Gd3205 O3258 2.545 . S
Gd3205 O3259 2.412 . S
Gd3205 C3272 2.828 . S
C3206 C3209 1.417 . S
C3206 C3211 1.431 . S
C3206 C3212 1.412 . S
C3207 C3210 1.437 . S
C3207 C3211 1.317 . S
C3207 H3226 0.929 . S
C3208 C3209 1.426 . S
C3208 C3210 1.413 . S
C3208 N3218 1.359 . S
C3209 C3206 1.417 . S
C3209 C3208 1.426 . S
C3209 N3214 1.350 . S
C3210 C3207 1.437 . S
C3210 C3208 1.413 . S
C3210 C3220 1.391 . S
C3211 C3206 1.431 . S
C3211 C3207 1.317 . S
C3211 H3222 0.930 . S
C3212 C3206 1.412 . S
C3212 C3213 1.355 . S
C3212 H3224 0.930 . S
C3213 C3212 1.355 . S
C3213 C3215 1.402 . S
C3213 H3225 0.930 . S
N3214 Gd3205 2.661 . S
N3214 C3209 1.350 . S
N3214 C3215 1.307 . S
C3215 C3213 1.402 . S
C3215 N3214 1.307 . S
C3215 H3216 0.930 . S
H3216 C3215 0.930 . S
C3217 N3218 1.334 . S
C3217 C3219 1.394 . S
C3217 H3221 0.930 . S
N3218 Gd3205 2.601 . S
N3218 C3208 1.359 . S
N3218 C3217 1.334 . S
C3219 C3217 1.394 . S
C3219 C3220 1.359 . S
C3219 H3231 0.930 . S
C3220 C3210 1.391 . S
C3220 C3219 1.359 . S
C3220 H3232 0.929 . S
H3221 C3217 0.930 . S
H3222 C3211 0.930 . S
H3223 C3240 0.930 . S
H3224 C3212 0.930 . S
H3225 C3213 0.930 . S
H3226 C3207 0.929 . S
H3227 C3245 0.930 . S
H3228 C3236 0.930 . S
H3229 C3237 0.930 . S
H3230 C3261 0.929 . S
H3231 C3219 0.930 . S
H3232 C3220 0.929 . S
H3233 C3262 0.930 . S
H3234 C3243 0.930 . S
N3235 Gd3204 2.661 . S
N3235 C3239 1.350 . S
N3235 C3240 1.307 . S
C3236 H3228 0.930 . S
C3236 C3237 1.355 . S
C3236 C3238 1.412 . S
C3237 H3229 0.930 . S
C3237 C3236 1.355 . S
C3237 C3240 1.402 . S
C3238 C3236 1.412 . S
C3238 C3239 1.417 . S
C3238 C3262 1.431 . S
C3239 N3235 1.350 . S
C3239 C3238 1.417 . S
C3239 C3242 1.426 . S
C3240 H3223 0.930 . S
C3240 N3235 1.307 . S
C3240 C3237 1.402 . S
N3241 Gd3204 2.601 . S
N3241 C3242 1.359 . S
N3241 C3245 1.334 . S
C3242 C3239 1.426 . S
C3242 N3241 1.359 . S
C3242 C3246 1.413 . S
C3243 H3234 0.930 . S
C3243 C3244 1.359 . S
C3243 C3245 1.394 . S
C3244 C3243 1.359 . S
C3244 C3246 1.391 . S
C3244 H3247 0.929 . S
C3245 H3227 0.930 . S
C3245 N3241 1.334 . S
C3245 C3243 1.394 . S
C3246 C3242 1.413 . S
C3246 C3244 1.391 . S
C3246 C3261 1.437 . S
H3247 C3244 0.929 . S
O3248 Gd3204 2.545 . S
O3248 C3263 1.258 . S
O3249 Gd3204 2.606 . S
O3249 Gd3205 2.362 . S
O3249 C3260 1.284 . S
O3250 Gd3205 2.324 . S
O3250 C3270 1.254 . S
O3251 Gd3204 2.429 . S
O3251 C3270 1.268 . S
O3252 Gd3204 2.545 . S
O3252 C3260 1.250 . S
O3253 Gd3204 2.412 . S
O3253 C3263 1.252 . S
O3254 Gd3205 2.545 . S
O3254 C3272 1.258 . S
O3255 Gd3204 2.362 . S
O3255 Gd3205 2.606 . S
O3255 C3271 1.284 . S
O3256 Gd3204 2.324 . S
O3256 C3279 1.254 . S
O3257 Gd3205 2.429 . S
O3257 C3279 1.268 . S
O3258 Gd3205 2.545 . S
O3258 C3271 1.250 . S
O3259 Gd3205 2.412 . S
O3259 C3272 1.252 . S
C3260 O3249 1.284 . S
C3260 O3252 1.250 . S
C3261 H3230 0.929 . S
C3261 C3246 1.437 . S
C3261 C3262 1.317 . S
C3262 H3233 0.930 . S
C3262 C3238 1.431 . S
C3262 C3261 1.317 . S
C3263 Gd3204 2.828 . S
C3263 O3248 1.258 . S
C3263 O3253 1.252 . S
C3263 C3264 1.497 . S
C3264 C3263 1.497 . S
C3264 C3265 1.395 . S
C3264 C3266 1.380 . S
C3265 C3264 1.395 . S
C3265 C3268 1.398 . S
C3265 H3280 0.930 . S
C3266 C3264 1.380 . S
C3266 C3267 1.391 . S
C3266 H3281 0.930 . S
C3267 C3266 1.391 . S
C3267 C3269 1.387 . S
C3268 C3265 1.398 . S
C3268 C3269 1.380 . S
C3268 H3282 0.930 . S
C3269 C3267 1.387 . S
C3269 C3268 1.380 . S
C3269 H3283 0.930 . S
C3270 O3250 1.254 . S
C3270 O3251 1.268 . S
C3271 O3255 1.284 . S
C3271 O3258 1.250 . S
C3272 Gd3205 2.828 . S
C3272 O3254 1.258 . S
C3272 O3259 1.252 . S
C3272 C3273 1.497 . S
C3273 C3272 1.497 . S
C3273 C3274 1.395 . S
C3273 C3275 1.380 . S
C3274 C3273 1.395 . S
C3274 C3277 1.398 . S
C3274 H3284 0.930 . S
C3275 C3273 1.380 . S
C3275 C3276 1.391 . S
C3275 H3285 0.930 . S
C3276 C3275 1.391 . S
C3276 C3278 1.387 . S
C3277 C3274 1.398 . S
C3277 C3278 1.380 . S
C3277 H3286 0.930 . S
C3278 C3276 1.387 . S
C3278 C3277 1.380 . S
C3278 H3287 0.930 . S
C3279 O3256 1.254 . S
C3279 O3257 1.268 . S
H3280 C3265 0.930 . S
H3281 C3266 0.930 . S
H3282 C3268 0.930 . S
H3283 C3269 0.930 . S
H3284 C3274 0.930 . S
H3285 C3275 0.930 . S
H3286 C3277 0.930 . S
H3287 C3278 0.930 . S
Gd3288 N3319 2.661 . S
Gd3288 N3325 2.601 . S
Gd3288 O3332 2.545 . S
Gd3288 O3333 2.606 . S
Gd3288 O3335 2.429 . S
Gd3288 O3336 2.545 . S
Gd3288 O3337 2.412 . S
Gd3288 O3339 2.362 . S
Gd3288 O3340 2.324 . S
Gd3288 C3347 2.828 . S
Gd3289 N3298 2.661 . S
Gd3289 N3302 2.601 . S
Gd3289 O3333 2.362 . S
Gd3289 O3334 2.324 . S
Gd3289 O3338 2.545 . S
Gd3289 O3339 2.606 . S
Gd3289 O3341 2.429 . S
Gd3289 O3342 2.545 . S
Gd3289 O3343 2.412 . S
Gd3289 C3356 2.828 . S
C3290 C3293 1.417 . S
C3290 C3295 1.431 . S
C3290 C3296 1.412 . S
C3291 C3294 1.437 . S
C3291 C3295 1.317 . S
C3291 H3310 0.929 . S
C3292 C3293 1.426 . S
C3292 C3294 1.413 . S
C3292 N3302 1.359 . S
C3293 C3290 1.417 . S
C3293 C3292 1.426 . S
C3293 N3298 1.350 . S
C3294 C3291 1.437 . S
C3294 C3292 1.413 . S
C3294 C3304 1.391 . S
C3295 C3290 1.431 . S
C3295 C3291 1.317 . S
C3295 H3306 0.930 . S
C3296 C3290 1.412 . S
C3296 C3297 1.355 . S
C3296 H3308 0.930 . S
C3297 C3296 1.355 . S
C3297 C3299 1.402 . S
C3297 H3309 0.930 . S
N3298 Gd3289 2.661 . S
N3298 C3293 1.350 . S
N3298 C3299 1.307 . S
C3299 C3297 1.402 . S
C3299 N3298 1.307 . S
C3299 H3300 0.930 . S
H3300 C3299 0.930 . S
C3301 N3302 1.334 . S
C3301 C3303 1.394 . S
C3301 H3305 0.930 . S
N3302 Gd3289 2.601 . S
N3302 C3292 1.359 . S
N3302 C3301 1.334 . S
C3303 C3301 1.394 . S
C3303 C3304 1.359 . S
C3303 H3315 0.930 . S
C3304 C3294 1.391 . S
C3304 C3303 1.359 . S
C3304 H3316 0.929 . S
H3305 C3301 0.930 . S
H3306 C3295 0.930 . S
H3307 C3324 0.930 . S
H3308 C3296 0.930 . S
H3309 C3297 0.930 . S
H3310 C3291 0.929 . S
H3311 C3329 0.930 . S
H3312 C3320 0.930 . S
H3313 C3321 0.930 . S
H3314 C3345 0.929 . S
H3315 C3303 0.930 . S
H3316 C3304 0.929 . S
H3317 C3346 0.930 . S
H3318 C3327 0.930 . S
N3319 Gd3288 2.661 . S
N3319 C3323 1.350 . S
N3319 C3324 1.307 . S
C3320 H3312 0.930 . S
C3320 C3321 1.355 . S
C3320 C3322 1.412 . S
C3321 H3313 0.930 . S
C3321 C3320 1.355 . S
C3321 C3324 1.402 . S
C3322 C3320 1.412 . S
C3322 C3323 1.417 . S
C3322 C3346 1.431 . S
C3323 N3319 1.350 . S
C3323 C3322 1.417 . S
C3323 C3326 1.426 . S
C3324 H3307 0.930 . S
C3324 N3319 1.307 . S
C3324 C3321 1.402 . S
N3325 Gd3288 2.601 . S
N3325 C3326 1.359 . S
N3325 C3329 1.334 . S
C3326 C3323 1.426 . S
C3326 N3325 1.359 . S
C3326 C3330 1.413 . S
C3327 H3318 0.930 . S
C3327 C3328 1.359 . S
C3327 C3329 1.394 . S
C3328 C3327 1.359 . S
C3328 C3330 1.391 . S
C3328 H3331 0.929 . S
C3329 H3311 0.930 . S
C3329 N3325 1.334 . S
C3329 C3327 1.394 . S
C3330 C3326 1.413 . S
C3330 C3328 1.391 . S
C3330 C3345 1.437 . S
H3331 C3328 0.929 . S
O3332 Gd3288 2.545 . S
O3332 C3347 1.258 . S
O3333 Gd3288 2.606 . S
O3333 Gd3289 2.362 . S
O3333 C3344 1.284 . S
O3334 Gd3289 2.324 . S
O3334 C3354 1.254 . S
O3335 Gd3288 2.429 . S
O3335 C3354 1.268 . S
O3336 Gd3288 2.545 . S
O3336 C3344 1.250 . S
O3337 Gd3288 2.412 . S
O3337 C3347 1.252 . S
O3338 Gd3289 2.545 . S
O3338 C3356 1.258 . S
O3339 Gd3288 2.362 . S
O3339 Gd3289 2.606 . S
O3339 C3355 1.284 . S
O3340 Gd3288 2.324 . S
O3340 C3363 1.254 . S
O3341 Gd3289 2.429 . S
O3341 C3363 1.268 . S
O3342 Gd3289 2.545 . S
O3342 C3355 1.250 . S
O3343 Gd3289 2.412 . S
O3343 C3356 1.252 . S
C3344 O3333 1.284 . S
C3344 O3336 1.250 . S
C3345 H3314 0.929 . S
C3345 C3330 1.437 . S
C3345 C3346 1.317 . S
C3346 H3317 0.930 . S
C3346 C3322 1.431 . S
C3346 C3345 1.317 . S
C3347 Gd3288 2.828 . S
C3347 O3332 1.258 . S
C3347 O3337 1.252 . S
C3347 C3348 1.497 . S
C3348 C3347 1.497 . S
C3348 C3349 1.395 . S
C3348 C3350 1.380 . S
C3349 C3348 1.395 . S
C3349 C3352 1.398 . S
C3349 H3364 0.930 . S
C3350 C3348 1.380 . S
C3350 C3351 1.391 . S
C3350 H3365 0.930 . S
C3351 C3350 1.391 . S
C3351 C3353 1.387 . S
C3352 C3349 1.398 . S
C3352 C3353 1.380 . S
C3352 H3366 0.930 . S
C3353 C3351 1.387 . S
C3353 C3352 1.380 . S
C3353 H3367 0.930 . S
C3354 O3334 1.254 . S
C3354 O3335 1.268 . S
C3355 O3339 1.284 . S
C3355 O3342 1.250 . S
C3356 Gd3289 2.828 . S
C3356 O3338 1.258 . S
C3356 O3343 1.252 . S
C3356 C3357 1.497 . S
C3357 C3356 1.497 . S
C3357 C3358 1.395 . S
C3357 C3359 1.380 . S
C3358 C3357 1.395 . S
C3358 C3361 1.398 . S
C3358 H3368 0.930 . S
C3359 C3357 1.380 . S
C3359 C3360 1.391 . S
C3359 H3369 0.930 . S
C3360 C3359 1.391 . S
C3360 C3362 1.387 . S
C3361 C3358 1.398 . S
C3361 C3362 1.380 . S
C3361 H3370 0.930 . S
C3362 C3360 1.387 . S
C3362 C3361 1.380 . S
C3362 H3371 0.930 . S
C3363 O3340 1.254 . S
C3363 O3341 1.268 . S
H3364 C3349 0.930 . S
H3365 C3350 0.930 . S
H3366 C3352 0.930 . S
H3367 C3353 0.930 . S
H3368 C3358 0.930 . S
H3369 C3359 0.930 . S
H3370 C3361 0.930 . S
H3371 C3362 0.930 . S
Gd3372 N3403 2.680 . S
Gd3372 N3409 2.601 . S
Gd3372 O3416 2.545 . S
Gd3372 O3417 2.606 . S
Gd3372 O3419 2.429 . S
Gd3372 O3420 2.545 . S
Gd3372 O3421 2.412 1_455 S
Gd3372 O3423 2.362 . S
Gd3372 O3424 2.324 1_554 S
Gd3372 C3431 2.828 1_455 S
Gd3373 N3382 2.661 . S
Gd3373 N3386 2.601 1_554 S
Gd3373 O3417 2.362 . S
Gd3373 O3418 2.324 . S
Gd3373 O3422 2.545 1_554 S
Gd3373 O3423 2.606 . S
Gd3373 O3425 2.429 1_554 S
Gd3373 O3426 2.545 1_554 S
Gd3373 O3427 2.412 . S
Gd3373 C3440 2.828 1_554 S
C3374 C3377 1.417 . S
C3374 C3379 1.423 1_554 S
C3374 C3380 1.412 . S
C3375 C3378 1.437 . S
C3375 C3379 1.326 . S
C3375 H3394 0.929 . S
C3376 C3377 1.426 1_556 S
C3376 C3378 1.413 . S
C3376 N3386 1.359 . S
C3377 C3374 1.417 . S
C3377 C3376 1.426 1_554 S
C3377 N3382 1.350 . S
C3378 C3375 1.437 . S
C3378 C3376 1.413 . S
C3378 C3388 1.391 . S
C3379 C3374 1.423 1_556 S
C3379 C3375 1.326 . S
C3379 H3390 0.929 1_556 S
C3380 C3374 1.412 . S
C3380 C3381 1.355 . S
C3380 H3392 0.930 . S
C3381 C3380 1.355 . S
C3381 C3383 1.402 . S
C3381 H3393 0.930 . S
N3382 Gd3373 2.661 . S
N3382 C3377 1.350 . S
N3382 C3383 1.307 . S
C3383 C3381 1.402 . S
C3383 N3382 1.307 . S
C3383 H3384 0.930 . S
H3384 C3383 0.930 . S
C3385 N3386 1.334 . S
C3385 C3387 1.394 . S
C3385 H3389 0.930 . S
N3386 Gd3373 2.601 1_556 S
N3386 C3376 1.359 . S
N3386 C3385 1.334 . S
C3387 C3385 1.394 . S
C3387 C3388 1.359 . S
C3387 H3399 0.930 . S
C3388 C3378 1.391 . S
C3388 C3387 1.359 . S
C3388 H3400 0.929 . S
H3389 C3385 0.930 . S
H3390 C3379 0.929 1_554 S
H3391 C3408 0.930 1_455 S
H3392 C3380 0.930 . S
H3393 C3381 0.930 . S
H3394 C3375 0.929 . S
H3395 C3413 0.930 . S
H3396 C3404 0.930 . S
H3397 C3405 0.930 . S
H3398 C3429 0.929 . S
H3399 C3387 0.930 . S
H3400 C3388 0.929 . S
H3401 C3430 0.930 . S
H3402 C3411 0.930 . S
N3403 Gd3372 2.680 . S
N3403 C3407 1.336 1_455 S
N3403 C3408 1.305 1_454 S
C3404 H3396 0.930 . S
C3404 C3405 1.355 . S
C3404 C3406 1.412 1_556 S
C3405 H3397 0.930 . S
C3405 C3404 1.355 . S
C3405 C3408 1.402 . S
C3406 C3404 1.412 1_554 S
C3406 C3407 1.417 . S
C3406 C3430 1.431 . S
C3407 N3403 1.336 1_655 S
C3407 C3406 1.417 . S
C3407 C3410 1.426 . S
C3408 H3391 0.930 1_655 S
C3408 N3403 1.305 1_656 S
C3408 C3405 1.402 . S
N3409 Gd3372 2.601 . S
N3409 C3410 1.359 1_455 S
N3409 C3413 1.334 . S
C3410 C3407 1.426 . S
C3410 N3409 1.359 1_655 S
C3410 C3414 1.413 . S
C3411 H3402 0.930 . S
C3411 C3412 1.359 1_455 S
C3411 C3413 1.394 . S
C3412 C3411 1.359 1_655 S
C3412 C3414 1.391 . S
C3412 H3415 0.929 . S
C3413 H3395 0.930 . S
C3413 N3409 1.334 . S
C3413 C3411 1.394 . S
C3414 C3410 1.413 . S
C3414 C3412 1.391 . S
C3414 C3429 1.437 . S
H3415 C3412 0.929 . S
O3416 Gd3372 2.545 . S
O3416 C3431 1.258 1_455 S
O3417 Gd3372 2.606 . S
O3417 Gd3373 2.362 . S
O3417 C3428 1.284 . S
O3418 Gd3373 2.324 . S
O3418 C3438 1.254 . S
O3419 Gd3372 2.429 . S
O3419 C3438 1.268 . S
O3420 Gd3372 2.545 . S
O3420 C3428 1.250 . S
O3421 Gd3372 2.412 1_655 S
O3421 C3431 1.252 . S
O3422 Gd3373 2.545 1_556 S
O3422 C3440 1.258 . S
O3423 Gd3372 2.362 . S
O3423 Gd3373 2.606 . S
O3423 C3439 1.284 . S
O3424 Gd3372 2.324 1_556 S
O3424 C3447 1.254 . S
O3425 Gd3373 2.429 1_556 S
O3425 C3447 1.268 . S
O3426 Gd3373 2.545 1_556 S
O3426 C3439 1.250 1_556 S
O3427 Gd3373 2.412 . S
O3427 C3440 1.252 1_554 S
C3428 O3417 1.284 . S
C3428 O3420 1.250 . S
C3429 H3398 0.929 . S
C3429 C3414 1.437 . S
C3429 C3430 1.317 . S
C3430 H3401 0.930 . S
C3430 C3406 1.431 . S
C3430 C3429 1.317 . S
C3431 Gd3372 2.828 1_655 S
C3431 O3416 1.258 1_655 S
C3431 O3421 1.252 . S
C3431 C3432 1.497 . S
C3432 C3431 1.497 . S
C3432 C3433 1.395 . S
C3432 C3434 1.380 . S
C3433 C3432 1.395 . S
C3433 C3436 1.398 . S
C3433 H3448 0.930 . S
C3434 C3432 1.380 . S
C3434 C3435 1.391 . S
C3434 H3449 0.930 . S
C3435 C3434 1.391 . S
C3435 C3437 1.387 . S
C3436 C3433 1.398 . S
C3436 C3437 1.380 . S
C3436 H3450 0.930 . S
C3437 C3435 1.387 . S
C3437 C3436 1.380 . S
C3437 H3451 0.930 . S
C3438 O3418 1.254 . S
C3438 O3419 1.268 . S
C3439 O3423 1.284 . S
C3439 O3426 1.250 1_554 S
C3440 Gd3373 2.828 1_556 S
C3440 O3422 1.258 . S
C3440 O3427 1.252 1_556 S
C3440 C3441 1.497 . S
C3441 C3440 1.497 . S
C3441 C3442 1.395 . S
C3441 C3443 1.384 1_556 S
C3442 C3441 1.395 . S
C3442 C3445 1.398 . S
C3442 H3452 0.930 . S
C3443 C3441 1.384 1_554 S
C3443 C3444 1.392 1_554 S
C3443 H3453 0.926 . S
C3444 C3443 1.392 1_556 S
C3444 C3446 1.387 . S
C3445 C3442 1.398 . S
C3445 C3446 1.380 . S
C3445 H3454 0.930 . S
C3446 C3444 1.387 . S
C3446 C3445 1.380 . S
C3446 H3455 0.930 . S
C3447 O3424 1.254 . S
C3447 O3425 1.268 . S
H3448 C3433 0.930 . S
H3449 C3434 0.930 . S
H3450 C3436 0.930 . S
H3451 C3437 0.930 . S
H3452 C3442 0.930 . S
H3453 C3443 0.926 . S
H3454 C3445 0.930 . S
H3455 C3446 0.930 . S
C3456 C3457 1.369 . S
C3456 C3458 1.419 . S
C3456 H3460 0.930 . S
C3457 C3456 1.369 . S
C3457 C3466 1.429 1_554 S
C3458 C3456 1.419 . S
C3458 C3459 1.363 . S
C3458 H3461 0.929 . S
C3459 C3458 1.363 . S
C3459 C3465 1.428 1_554 S
H3460 C3456 0.930 . S
H3461 C3458 0.929 . S
S3462 N3463 1.613 . S
S3462 N3464 1.610 . S
N3463 S3462 1.613 . S
N3463 C3466 1.350 . S
N3464 S3462 1.610 . S
N3464 C3465 1.351 . S
C3465 C3459 1.428 1_556 S
C3465 N3464 1.351 . S
C3465 C3466 1.434 . S
C3466 C3457 1.429 1_556 S
C3466 N3463 1.350 . S
C3466 C3465 1.434 . S
C3467 C3468 1.369 . S
C3467 C3469 1.419 . S
C3467 H3471 0.930 . S
C3468 C3467 1.369 . S
C3468 C3477 1.429 . S
C3469 C3467 1.419 . S
C3469 C3470 1.363 . S
C3469 H3472 0.929 . S
C3470 C3469 1.363 . S
C3470 C3476 1.428 . S
H3471 C3467 0.930 . S
H3472 C3469 0.929 . S
S3473 N3474 1.613 . S
S3473 N3475 1.610 . S
N3474 S3473 1.613 . S
N3474 C3477 1.350 . S
N3475 S3473 1.610 . S
N3475 C3476 1.351 . S
C3476 C3470 1.428 . S
C3476 N3475 1.351 . S
C3476 C3477 1.434 . S
C3477 C3468 1.429 . S
C3477 N3474 1.350 . S
C3477 C3476 1.434 . S
C3478 C3479 1.369 . S
C3478 C3480 1.419 . S
C3478 H3482 0.930 . S
C3479 C3478 1.369 . S
C3479 C3488 1.429 . S
C3480 C3478 1.419 . S
C3480 C3481 1.363 . S
C3480 H3483 0.929 . S
C3481 C3480 1.363 . S
C3481 C3487 1.428 . S
H3482 C3478 0.930 . S
H3483 C3480 0.929 . S
S3484 N3485 1.613 . S
S3484 N3486 1.610 . S
N3485 S3484 1.613 . S
N3485 C3488 1.350 . S
N3486 S3484 1.610 . S
N3486 C3487 1.351 . S
C3487 C3481 1.428 . S
C3487 N3486 1.351 . S
C3487 C3488 1.434 . S
C3488 C3479 1.429 . S
C3488 N3485 1.350 . S
C3488 C3487 1.434 . S
C3489 C3490 1.369 . S
C3489 C3491 1.419 . S
C3489 H3493 0.930 . S
C3490 C3489 1.369 . S
C3490 C3499 1.429 . S
C3491 C3489 1.419 . S
C3491 C3492 1.363 . S
C3491 H3494 0.929 . S
C3492 C3491 1.363 . S
C3492 C3498 1.428 . S
H3493 C3489 0.930 . S
H3494 C3491 0.929 . S
S3495 N3496 1.613 . S
S3495 N3497 1.610 . S
N3496 S3495 1.613 . S
N3496 C3499 1.350 . S
N3497 S3495 1.610 . S
N3497 C3498 1.351 . S
C3498 C3492 1.428 . S
C3498 N3497 1.351 . S
C3498 C3499 1.434 . S
C3499 C3490 1.429 . S
C3499 N3496 1.350 . S
C3499 C3498 1.434 . S
C3500 C3501 1.369 . S
C3500 C3502 1.419 . S
C3500 H3504 0.930 . S
C3501 C3500 1.369 . S
C3501 C3510 1.429 . S
C3502 C3500 1.419 . S
C3502 C3503 1.363 . S
C3502 H3505 0.929 . S
C3503 C3502 1.363 . S
C3503 C3509 1.428 . S
H3504 C3500 0.930 . S
H3505 C3502 0.929 . S
S3506 N3507 1.613 . S
S3506 N3508 1.610 . S
N3507 S3506 1.613 . S
N3507 C3510 1.350 . S
N3508 S3506 1.610 . S
N3508 C3509 1.351 . S
C3509 C3503 1.428 . S
C3509 N3508 1.351 . S
C3509 C3510 1.434 . S
C3510 C3501 1.429 . S
C3510 N3507 1.350 . S
C3510 C3509 1.434 . S
C3511 C3512 1.369 . S
C3511 C3513 1.419 . S
C3511 H3515 0.930 . S
C3512 C3511 1.369 . S
C3512 C3521 1.429 . S
C3513 C3511 1.419 . S
C3513 C3514 1.363 . S
C3513 H3516 0.929 . S
C3514 C3513 1.363 . S
C3514 C3520 1.428 . S
H3515 C3511 0.930 . S
H3516 C3513 0.929 . S
S3517 N3518 1.613 . S
S3517 N3519 1.610 . S
N3518 S3517 1.613 . S
N3518 C3521 1.350 . S
N3519 S3517 1.610 . S
N3519 C3520 1.351 . S
C3520 C3514 1.428 . S
C3520 N3519 1.351 . S
C3520 C3521 1.434 . S
C3521 C3512 1.429 . S
C3521 N3518 1.350 . S
C3521 C3520 1.434 . S
C3522 C3523 1.369 . S
C3522 C3524 1.419 . S
C3522 H3526 0.930 . S
C3523 C3522 1.369 . S
C3523 C3532 1.429 . S
C3524 C3522 1.419 . S
C3524 C3525 1.363 . S
C3524 H3527 0.929 . S
C3525 C3524 1.363 . S
C3525 C3531 1.428 . S
H3526 C3522 0.930 . S
H3527 C3524 0.929 . S
S3528 N3529 1.613 . S
S3528 N3530 1.610 . S
N3529 S3528 1.613 . S
N3529 C3532 1.350 . S
N3530 S3528 1.610 . S
N3530 C3531 1.351 . S
C3531 C3525 1.428 . S
C3531 N3530 1.351 . S
C3531 C3532 1.434 . S
C3532 C3523 1.429 . S
C3532 N3529 1.350 . S
C3532 C3531 1.434 . S
C3533 C3534 1.369 . S
C3533 C3535 1.419 . S
C3533 H3537 0.930 . S
C3534 C3533 1.369 . S
C3534 C3543 1.429 . S
C3535 C3533 1.419 . S
C3535 C3536 1.363 . S
C3535 H3538 0.929 . S
C3536 C3535 1.363 . S
C3536 C3542 1.428 . S
H3537 C3533 0.930 . S
H3538 C3535 0.929 . S
S3539 N3540 1.613 . S
S3539 N3541 1.610 . S
N3540 S3539 1.613 . S
N3540 C3543 1.350 . S
N3541 S3539 1.610 . S
N3541 C3542 1.351 . S
C3542 C3536 1.428 . S
C3542 N3541 1.351 . S
C3542 C3543 1.434 . S
C3543 C3534 1.429 . S
C3543 N3540 1.350 . S
C3543 C3542 1.434 . S
C3544 C3545 1.369 . S
C3544 C3546 1.419 . S
C3544 H3548 0.930 . S
C3545 C3544 1.369 . S
C3545 C3554 1.429 . S
C3546 C3544 1.419 . S
C3546 C3547 1.363 . S
C3546 H3549 0.929 . S
C3547 C3546 1.363 . S
C3547 C3553 1.428 . S
H3548 C3544 0.930 . S
H3549 C3546 0.929 . S
S3550 N3551 1.613 . S
S3550 N3552 1.610 . S
N3551 S3550 1.613 . S
N3551 C3554 1.350 . S
N3552 S3550 1.610 . S
N3552 C3553 1.351 . S
C3553 C3547 1.428 . S
C3553 N3552 1.351 . S
C3553 C3554 1.434 . S
C3554 C3545 1.429 . S
C3554 N3551 1.350 . S
C3554 C3553 1.434 . S
C3555 C3556 1.369 . S
C3555 C3557 1.419 . S
C3555 H3559 0.930 . S
C3556 C3555 1.369 . S
C3556 C3565 1.429 . S
C3557 C3555 1.419 . S
C3557 C3558 1.363 . S
C3557 H3560 0.929 . S
C3558 C3557 1.363 . S
C3558 C3564 1.428 . S
H3559 C3555 0.930 . S
H3560 C3557 0.929 . S
S3561 N3562 1.613 . S
S3561 N3563 1.610 . S
N3562 S3561 1.613 . S
N3562 C3565 1.350 . S
N3563 S3561 1.610 . S
N3563 C3564 1.351 . S
C3564 C3558 1.428 . S
C3564 N3563 1.351 . S
C3564 C3565 1.434 . S
C3565 C3556 1.429 . S
C3565 N3562 1.350 . S
C3565 C3564 1.434 . S
C3566 C3567 1.369 . S
C3566 C3568 1.419 . S
C3566 H3570 0.930 . S
C3567 C3566 1.369 . S
C3567 C3576 1.429 . S
C3568 C3566 1.419 . S
C3568 C3569 1.363 . S
C3568 H3571 0.929 . S
C3569 C3568 1.363 . S
C3569 C3575 1.428 . S
H3570 C3566 0.930 . S
H3571 C3568 0.929 . S
S3572 N3573 1.613 . S
S3572 N3574 1.610 . S
N3573 S3572 1.613 . S
N3573 C3576 1.350 1_565 S
N3574 S3572 1.610 . S
N3574 C3575 1.351 1_565 S
C3575 C3569 1.428 . S
C3575 N3574 1.351 1_545 S
C3575 C3576 1.434 . S
C3576 C3567 1.429 . S
C3576 N3573 1.350 1_545 S
C3576 C3575 1.434 . S
C3577 C3578 1.369 . S
C3577 C3579 1.419 . S
C3577 H3581 0.930 . S
C3578 C3577 1.369 . S
C3578 C3587 1.429 . S
C3579 C3577 1.419 . S
C3579 C3580 1.363 . S
C3579 H3582 0.929 . S
C3580 C3579 1.363 . S
C3580 C3586 1.428 . S
H3581 C3577 0.930 . S
H3582 C3579 0.929 . S
S3583 N3584 1.613 . S
S3583 N3585 1.610 . S
N3584 S3583 1.613 . S
N3584 C3587 1.350 . S
N3585 S3583 1.610 . S
N3585 C3586 1.351 . S
C3586 C3580 1.428 . S
C3586 N3585 1.351 . S
C3586 C3587 1.434 . S
C3587 C3578 1.429 . S
C3587 N3584 1.350 . S
C3587 C3586 1.434 . S
C3588 C3589 1.369 . S
C3588 C3590 1.419 . S
C3588 H3592 0.930 . S
C3589 C3588 1.369 . S
C3589 C3598 1.429 . S
C3590 C3588 1.419 . S
C3590 C3591 1.363 . S
C3590 H3593 0.929 . S
C3591 C3590 1.363 . S
C3591 C3597 1.428 . S
H3592 C3588 0.930 . S
H3593 C3590 0.929 . S
S3594 N3595 1.613 . S
S3594 N3596 1.610 1_655 S
N3595 S3594 1.613 . S
N3595 C3598 1.350 1_655 S
N3596 S3594 1.610 1_455 S
N3596 C3597 1.351 . S
C3597 C3591 1.428 . S
C3597 N3596 1.351 . S
C3597 C3598 1.434 . S
C3598 C3589 1.429 . S
C3598 N3595 1.350 1_455 S
C3598 C3597 1.434 . S
C3599 C3600 1.369 . S
C3599 C3601 1.419 . S
C3599 H3603 0.930 . S
C3600 C3599 1.369 . S
C3600 C3609 1.429 . S
C3601 C3599 1.419 . S
C3601 C3602 1.363 . S
C3601 H3604 0.929 . S
C3602 C3601 1.363 . S
C3602 C3608 1.428 . S
H3603 C3599 0.930 . S
H3604 C3601 0.929 . S
S3605 N3606 1.613 . S
S3605 N3607 1.610 . S
N3606 S3605 1.613 . S
N3606 C3609 1.350 . S
N3607 S3605 1.610 . S
N3607 C3608 1.351 . S
C3608 C3602 1.428 . S
C3608 N3607 1.351 . S
C3608 C3609 1.434 . S
C3609 C3600 1.429 . S
C3609 N3606 1.350 . S
C3609 C3608 1.434 . S
C3610 C3611 1.369 . S
C3610 C3612 1.419 . S
C3610 H3614 0.930 . S
C3611 C3610 1.369 . S
C3611 C3620 1.429 . S
C3612 C3610 1.419 . S
C3612 C3613 1.363 . S
C3612 H3615 0.929 . S
C3613 C3612 1.363 . S
C3613 C3619 1.428 . S
H3614 C3610 0.930 . S
H3615 C3612 0.929 . S
S3616 N3617 1.613 . S
S3616 N3618 1.610 . S
N3617 S3616 1.613 . S
N3617 C3620 1.350 . S
N3618 S3616 1.610 . S
N3618 C3619 1.351 . S
C3619 C3613 1.428 . S
C3619 N3618 1.351 . S
C3619 C3620 1.434 . S
C3620 C3611 1.429 . S
C3620 N3617 1.350 . S
C3620 C3619 1.434 . S
C3621 C3622 1.369 . S
C3621 C3623 1.419 . S
C3621 H3625 0.930 . S
C3622 C3621 1.369 . S
C3622 C3631 1.429 . S
C3623 C3621 1.419 . S
C3623 C3624 1.363 . S
C3623 H3626 0.929 . S
C3624 C3623 1.363 . S
C3624 C3630 1.428 . S
H3625 C3621 0.930 . S
H3626 C3623 0.929 . S
S3627 N3628 1.613 . S
S3627 N3629 1.610 . S
N3628 S3627 1.613 . S
N3628 C3631 1.350 . S
N3629 S3627 1.610 . S
N3629 C3630 1.351 . S
C3630 C3624 1.428 . S
C3630 N3629 1.351 . S
C3630 C3631 1.434 . S
C3631 C3622 1.429 . S
C3631 N3628 1.350 . S
C3631 C3630 1.434 . S
C3632 C3633 1.369 . S
C3632 C3634 1.419 . S
C3632 H3636 0.930 . S
C3633 C3632 1.369 . S
C3633 C3642 1.429 1_545 S
C3634 C3632 1.419 . S
C3634 C3635 1.363 . S
C3634 H3637 0.929 . S
C3635 C3634 1.363 . S
C3635 C3641 1.428 1_545 S
H3636 C3632 0.930 . S
H3637 C3634 0.929 . S
S3638 N3639 1.613 . S
S3638 N3640 1.623 . S
N3639 S3638 1.613 . S
N3639 C3642 1.350 1_556 S
N3640 S3638 1.623 . S
N3640 C3641 1.343 1_556 S
C3641 C3635 1.428 1_565 S
C3641 N3640 1.343 1_554 S
C3641 C3642 1.434 . S
C3642 C3633 1.429 1_565 S
C3642 N3639 1.350 1_554 S
C3642 C3641 1.434 . S
C3643 C3644 1.369 . S
C3643 C3645 1.419 . S
C3643 H3647 0.930 . S
C3644 C3643 1.369 . S
C3644 C3653 1.429 . S
C3645 C3643 1.419 . S
C3645 C3646 1.363 . S
C3645 H3648 0.929 . S
C3646 C3645 1.363 . S
C3646 C3652 1.428 . S
H3647 C3643 0.930 . S
H3648 C3645 0.929 . S
S3649 N3650 1.613 . S
S3649 N3651 1.610 . S
N3650 S3649 1.613 . S
N3650 C3653 1.350 . S
N3651 S3649 1.610 . S
N3651 C3652 1.351 . S
C3652 C3646 1.428 . S
C3652 N3651 1.351 . S
C3652 C3653 1.434 . S
C3653 C3644 1.429 . S
C3653 N3650 1.350 . S
C3653 C3652 1.434 . S
C3654 C3655 1.369 . S
C3654 C3656 1.419 . S
C3654 H3658 0.930 . S
C3655 C3654 1.369 . S
C3655 C3664 1.429 . S
C3656 C3654 1.419 . S
C3656 C3657 1.363 . S
C3656 H3659 0.929 . S
C3657 C3656 1.363 . S
C3657 C3663 1.428 . S
H3658 C3654 0.930 . S
H3659 C3656 0.929 . S
S3660 N3661 1.613 . S
S3660 N3662 1.610 . S
N3661 S3660 1.613 . S
N3661 C3664 1.350 . S
N3662 S3660 1.610 . S
N3662 C3663 1.351 . S
C3663 C3657 1.428 . S
C3663 N3662 1.351 . S
C3663 C3664 1.434 . S
C3664 C3655 1.429 . S
C3664 N3661 1.350 . S
C3664 C3663 1.434 . S
C3665 C3666 1.369 . S
C3665 C3667 1.419 . S
C3665 H3669 0.930 . S
C3666 C3665 1.369 . S
C3666 C3675 1.429 . S
C3667 C3665 1.419 . S
C3667 C3668 1.363 1_655 S
C3667 H3670 0.929 1_655 S
C3668 C3667 1.363 1_455 S
C3668 C3674 1.428 1_455 S
H3669 C3665 0.930 . S
H3670 C3667 0.929 1_455 S
S3671 N3672 1.613 . S
S3671 N3673 1.624 . S
N3672 S3671 1.613 . S
N3672 C3675 1.350 . S
N3673 S3671 1.624 . S
N3673 C3674 1.359 . S
C3674 C3668 1.428 1_655 S
C3674 N3673 1.359 . S
C3674 C3675 1.434 . S
C3675 C3666 1.429 . S
C3675 N3672 1.350 . S
C3675 C3674 1.434 . S
C3676 C3677 1.369 . S
C3676 C3678 1.419 . S
C3676 H3680 0.930 . S
C3677 C3676 1.369 . S
C3677 C3686 1.429 . S
C3678 C3676 1.419 . S
C3678 C3679 1.363 . S
C3678 H3681 0.929 . S
C3679 C3678 1.363 . S
C3679 C3685 1.428 . S
H3680 C3676 0.930 . S
H3681 C3678 0.929 . S
S3682 N3683 1.613 . S
S3682 N3684 1.610 . S
N3683 S3682 1.613 . S
N3683 C3686 1.350 . S
N3684 S3682 1.610 . S
N3684 C3685 1.351 . S
C3685 C3679 1.428 . S
C3685 N3684 1.351 . S
C3685 C3686 1.434 . S
C3686 C3677 1.429 . S
C3686 N3683 1.350 . S
C3686 C3685 1.434 . S
C3687 C3688 1.369 . S
C3687 C3689 1.419 . S
C3687 H3691 0.930 . S
C3688 C3687 1.369 . S
C3688 C3697 1.429 . S
C3689 C3687 1.419 . S
C3689 C3690 1.363 . S
C3689 H3692 0.929 . S
C3690 C3689 1.363 . S
C3690 C3696 1.428 . S
H3691 C3687 0.930 . S
H3692 C3689 0.929 . S
S3693 N3694 1.613 . S
S3693 N3695 1.610 . S
N3694 S3693 1.613 . S
N3694 C3697 1.350 . S
N3695 S3693 1.610 . S
N3695 C3696 1.351 . S
C3696 C3690 1.428 . S
C3696 N3695 1.351 . S
C3696 C3697 1.434 . S
C3697 C3688 1.429 . S
C3697 N3694 1.350 . S
C3697 C3696 1.434 . S
C3698 C3699 1.369 . S
C3698 C3700 1.419 . S
C3698 H3702 0.930 . S
C3699 C3698 1.369 . S
C3699 C3708 1.429 . S
C3700 C3698 1.419 . S
C3700 C3701 1.363 . S
C3700 H3703 0.929 . S
C3701 C3700 1.363 . S
C3701 C3707 1.428 . S
H3702 C3698 0.930 . S
H3703 C3700 0.929 . S
S3704 N3705 1.613 . S
S3704 N3706 1.610 . S
N3705 S3704 1.613 . S
N3705 C3708 1.350 . S
N3706 S3704 1.610 . S
N3706 C3707 1.351 . S
C3707 C3701 1.428 . S
C3707 N3706 1.351 . S
C3707 C3708 1.434 . S
C3708 C3699 1.429 . S
C3708 N3705 1.350 . S
C3708 C3707 1.434 . S
C3709 C3710 1.369 . S
C3709 C3711 1.419 . S
C3709 H3713 0.930 . S
C3710 C3709 1.369 . S
C3710 C3719 1.429 . S
C3711 C3709 1.419 . S
C3711 C3712 1.363 . S
C3711 H3714 0.929 . S
C3712 C3711 1.363 . S
C3712 C3718 1.428 . S
H3713 C3709 0.930 . S
H3714 C3711 0.929 . S
S3715 N3716 1.613 . S
S3715 N3717 1.610 . S
N3716 S3715 1.613 . S
N3716 C3719 1.350 . S
N3717 S3715 1.610 . S
N3717 C3718 1.351 . S
C3718 C3712 1.428 . S
C3718 N3717 1.351 . S
C3718 C3719 1.434 . S
C3719 C3710 1.429 . S
C3719 N3716 1.350 . S
C3719 C3718 1.434 . S
C3720 C3721 1.369 . S
C3720 C3722 1.419 . S
C3720 H3724 0.930 . S
C3721 C3720 1.369 . S
C3721 C3730 1.429 . S
C3722 C3720 1.419 . S
C3722 C3723 1.363 . S
C3722 H3725 0.929 . S
C3723 C3722 1.363 . S
C3723 C3729 1.428 . S
H3724 C3720 0.930 . S
H3725 C3722 0.929 . S
S3726 N3727 1.588 1_556 S
S3726 N3728 1.610 . S
N3727 S3726 1.588 1_554 S
N3727 C3730 1.372 . S
N3728 S3726 1.610 . S
N3728 C3729 1.351 1_556 S
C3729 C3723 1.428 . S
C3729 N3728 1.351 1_554 S
C3729 C3730 1.434 . S
C3730 C3721 1.429 . S
C3730 N3727 1.372 . S
C3730 C3729 1.434 . S
C3731 C3732 1.369 . S
C3731 C3733 1.419 . S
C3731 H3735 0.930 . S
C3732 C3731 1.369 . S
C3732 C3741 1.429 . S
C3733 C3731 1.419 . S
C3733 C3734 1.363 . S
C3733 H3736 0.929 . S
C3734 C3733 1.363 . S
C3734 C3740 1.428 . S
H3735 C3731 0.930 . S
H3736 C3733 0.929 . S
S3737 N3738 1.613 . S
S3737 N3739 1.610 . S
N3738 S3737 1.613 . S
N3738 C3741 1.350 . S
N3739 S3737 1.610 . S
N3739 C3740 1.351 . S
C3740 C3734 1.428 . S
C3740 N3739 1.351 . S
C3740 C3741 1.434 . S
C3741 C3732 1.429 . S
C3741 N3738 1.350 . S
C3741 C3740 1.434 . S
C3742 C3743 1.369 . S
C3742 C3744 1.419 . S
C3742 H3746 0.930 . S
C3743 C3742 1.369 . S
C3743 C3752 1.429 . S
C3744 C3742 1.419 . S
C3744 C3745 1.363 . S
C3744 H3747 0.929 . S
C3745 C3744 1.363 . S
C3745 C3751 1.428 . S
H3746 C3742 0.930 . S
H3747 C3744 0.929 . S
S3748 N3749 1.613 . S
S3748 N3750 1.610 . S
N3749 S3748 1.613 . S
N3749 C3752 1.350 . S
N3750 S3748 1.610 . S
N3750 C3751 1.351 . S
C3751 C3745 1.428 . S
C3751 N3750 1.351 . S
C3751 C3752 1.434 . S
C3752 C3743 1.429 . S
C3752 N3749 1.350 . S
C3752 C3751 1.434 . S
C3753 C3754 1.369 . S
C3753 C3755 1.419 . S
C3753 H3757 0.930 . S
C3754 C3753 1.369 . S
C3754 C3763 1.429 . S
C3755 C3753 1.419 . S
C3755 C3756 1.363 . S
C3755 H3758 0.929 . S
C3756 C3755 1.363 . S
C3756 C3762 1.428 . S
H3757 C3753 0.930 . S
H3758 C3755 0.929 . S
S3759 N3760 1.613 . S
S3759 N3761 1.610 . S
N3760 S3759 1.613 . S
N3760 C3763 1.350 . S
N3761 S3759 1.610 . S
N3761 C3762 1.351 . S
C3762 C3756 1.428 . S
C3762 N3761 1.351 . S
C3762 C3763 1.434 . S
C3763 C3754 1.429 . S
C3763 N3760 1.350 . S
C3763 C3762 1.434 . S
C3764 C3765 1.369 . S
C3764 C3766 1.419 . S
C3764 H3768 0.930 . S
C3765 C3764 1.369 . S
C3765 C3774 1.429 . S
C3766 C3764 1.419 . S
C3766 C3767 1.363 . S
C3766 H3769 0.929 . S
C3767 C3766 1.363 . S
C3767 C3773 1.428 . S
H3768 C3764 0.930 . S
H3769 C3766 0.929 . S
S3770 N3771 1.613 . S
S3770 N3772 1.610 . S
N3771 S3770 1.613 . S
N3771 C3774 1.350 . S
N3772 S3770 1.610 . S
N3772 C3773 1.351 . S
C3773 C3767 1.428 . S
C3773 N3772 1.351 . S
C3773 C3774 1.434 . S
C3774 C3765 1.429 . S
C3774 N3771 1.350 . S
C3774 C3773 1.434 . S
C3775 C3776 1.369 . S
C3775 C3777 1.419 . S
C3775 H3779 0.930 . S
C3776 C3775 1.369 . S
C3776 C3785 1.429 . S
C3777 C3775 1.419 . S
C3777 C3778 1.363 . S
C3777 H3780 0.929 . S
C3778 C3777 1.363 . S
C3778 C3784 1.428 . S
H3779 C3775 0.930 . S
H3780 C3777 0.929 . S
S3781 N3782 1.613 . S
S3781 N3783 1.610 . S
N3782 S3781 1.613 . S
N3782 C3785 1.350 . S
N3783 S3781 1.610 . S
N3783 C3784 1.351 . S
C3784 C3778 1.428 . S
C3784 N3783 1.351 . S
C3784 C3785 1.434 . S
C3785 C3776 1.429 . S
C3785 N3782 1.350 . S
C3785 C3784 1.434 . S
C3786 C3787 1.369 . S
C3786 C3788 1.419 . S
C3786 H3790 0.930 . S
C3787 C3786 1.369 . S
C3787 C3796 1.429 . S
C3788 C3786 1.419 . S
C3788 C3789 1.363 . S
C3788 H3791 0.929 . S
C3789 C3788 1.363 . S
C3789 C3795 1.417 1_556 S
H3790 C3786 0.930 . S
H3791 C3788 0.929 . S
S3792 N3793 1.613 1_545 S
S3792 N3794 1.610 . S
N3793 S3792 1.613 1_565 S
N3793 C3796 1.350 1_554 S
N3794 S3792 1.610 . S
N3794 C3795 1.370 1_545 S
C3795 C3789 1.417 1_554 S
C3795 N3794 1.370 1_565 S
C3795 C3796 1.428 1_554 S
C3796 C3787 1.429 . S
C3796 N3793 1.350 1_556 S
C3796 C3795 1.428 1_556 S
C3797 C3798 1.369 . S
C3797 C3799 1.419 . S
C3797 H3801 0.930 . S
C3798 C3797 1.369 . S
C3798 C3807 1.429 . S
C3799 C3797 1.419 . S
C3799 C3800 1.363 . S
C3799 H3802 0.929 . S
C3800 C3799 1.363 . S
C3800 C3806 1.428 . S
H3801 C3797 0.930 . S
H3802 C3799 0.929 . S
S3803 N3804 1.613 . S
S3803 N3805 1.610 . S
N3804 S3803 1.613 . S
N3804 C3807 1.350 . S
N3805 S3803 1.610 . S
N3805 C3806 1.351 . S
C3806 C3800 1.428 . S
C3806 N3805 1.351 . S
C3806 C3807 1.434 . S
C3807 C3798 1.429 . S
C3807 N3804 1.350 . S
C3807 C3806 1.434 . S
C3808 C3809 1.369 . S
C3808 C3810 1.419 . S
C3808 H3812 0.930 . S
C3809 C3808 1.369 . S
C3809 C3818 1.429 1_545 S
C3810 C3808 1.419 . S
C3810 C3811 1.363 . S
C3810 H3813 0.929 . S
C3811 C3810 1.363 . S
C3811 C3817 1.428 1_545 S
H3812 C3808 0.930 . S
H3813 C3810 0.929 . S
S3814 N3815 1.613 . S
S3814 N3816 1.610 . S
N3815 S3814 1.613 . S
N3815 C3818 1.350 . S
N3816 S3814 1.610 . S
N3816 C3817 1.351 . S
C3817 C3811 1.428 1_565 S
C3817 N3816 1.351 . S
C3817 C3818 1.434 . S
C3818 C3809 1.429 1_565 S
C3818 N3815 1.350 . S
C3818 C3817 1.434 . S
C3819 C3820 1.369 . S
C3819 C3821 1.419 . S
C3819 H3823 0.930 . S
C3820 C3819 1.369 . S
C3820 C3829 1.429 . S
C3821 C3819 1.419 . S
C3821 C3822 1.363 . S
C3821 H3824 0.929 . S
C3822 C3821 1.363 . S
C3822 C3828 1.428 . S
H3823 C3819 0.930 . S
H3824 C3821 0.929 . S
S3825 N3826 1.613 . S
S3825 N3827 1.610 . S
N3826 S3825 1.613 . S
N3826 C3829 1.350 . S
N3827 S3825 1.610 . S
N3827 C3828 1.351 . S
C3828 C3822 1.428 . S
C3828 N3827 1.351 . S
C3828 C3829 1.434 . S
C3829 C3820 1.429 . S
C3829 N3826 1.350 . S
C3829 C3828 1.434 . S
C3830 C3831 1.369 . S
C3830 C3832 1.419 . S
C3830 H3834 0.930 . S
C3831 C3830 1.369 . S
C3831 C3840 1.429 . S
C3832 C3830 1.419 . S
C3832 C3833 1.363 . S
C3832 H3835 0.929 . S
C3833 C3832 1.363 . S
C3833 C3839 1.428 . S
H3834 C3830 0.930 . S
H3835 C3832 0.929 . S
S3836 N3837 1.613 . S
S3836 N3838 1.610 . S
N3837 S3836 1.613 . S
N3837 C3840 1.350 . S
N3838 S3836 1.610 . S
N3838 C3839 1.351 . S
C3839 C3833 1.428 . S
C3839 N3838 1.351 . S
C3839 C3840 1.434 . S
C3840 C3831 1.429 . S
C3840 N3837 1.350 . S
C3840 C3839 1.434 . S
C3841 C3842 1.369 . S
C3841 C3843 1.419 . S
C3841 H3845 0.930 . S
C3842 C3841 1.369 . S
C3842 C3851 1.429 . S
C3843 C3841 1.419 . S
C3843 C3844 1.363 . S
C3843 H3846 0.929 . S
C3844 C3843 1.363 . S
C3844 C3850 1.428 . S
H3845 C3841 0.930 . S
H3846 C3843 0.929 . S
S3847 N3848 1.613 . S
S3847 N3849 1.610 . S
N3848 S3847 1.613 . S
N3848 C3851 1.350 . S
N3849 S3847 1.610 . S
N3849 C3850 1.351 . S
C3850 C3844 1.428 . S
C3850 N3849 1.351 . S
C3850 C3851 1.434 . S
C3851 C3842 1.429 . S
C3851 N3848 1.350 . S
C3851 C3850 1.434 . S
C3852 C3853 1.369 . S
C3852 C3854 1.419 . S
C3852 H3856 0.930 . S
C3853 C3852 1.369 . S
C3853 C3862 1.429 1_565 S
C3854 C3852 1.419 . S
C3854 C3855 1.363 1_565 S
C3854 H3857 0.929 . S
C3855 C3854 1.363 1_545 S
C3855 C3861 1.428 . S
H3856 C3852 0.930 . S
H3857 C3854 0.929 . S
S3858 N3859 1.613 . S
S3858 N3860 1.610 . S
N3859 S3858 1.613 . S
N3859 C3862 1.350 . S
N3860 S3858 1.610 . S
N3860 C3861 1.351 . S
C3861 C3855 1.428 . S
C3861 N3860 1.351 . S
C3861 C3862 1.434 . S
C3862 C3853 1.429 1_545 S
C3862 N3859 1.350 . S
C3862 C3861 1.434 . S
C3863 C3864 1.369 . S
C3863 C3865 1.419 . S
C3863 H3867 0.930 . S
C3864 C3863 1.369 . S
C3864 C3873 1.429 . S
C3865 C3863 1.419 . S
C3865 C3866 1.363 . S
C3865 H3868 0.929 . S
C3866 C3865 1.363 . S
C3866 C3872 1.428 . S
H3867 C3863 0.930 . S
H3868 C3865 0.929 . S
S3869 N3870 1.613 . S
S3869 N3871 1.610 . S
N3870 S3869 1.613 . S
N3870 C3873 1.350 . S
N3871 S3869 1.610 . S
N3871 C3872 1.351 . S
C3872 C3866 1.428 . S
C3872 N3871 1.351 . S
C3872 C3873 1.434 . S
C3873 C3864 1.429 . S
C3873 N3870 1.350 . S
C3873 C3872 1.434 . S
C3874 C3875 1.369 . S
C3874 C3876 1.419 . S
C3874 H3878 0.930 . S
C3875 C3874 1.369 . S
C3875 C3884 1.429 . S
C3876 C3874 1.419 . S
C3876 C3877 1.363 . S
C3876 H3879 0.929 . S
C3877 C3876 1.363 . S
C3877 C3883 1.428 . S
H3878 C3874 0.930 . S
H3879 C3876 0.929 . S
S3880 N3881 1.611 1_565 S
S3880 N3882 1.608 1_565 S
N3881 S3880 1.611 1_545 S
N3881 C3884 1.350 . S
N3882 S3880 1.608 1_545 S
N3882 C3883 1.351 . S
C3883 C3877 1.428 . S
C3883 N3882 1.351 . S
C3883 C3884 1.434 . S
C3884 C3875 1.429 . S
C3884 N3881 1.350 . S
C3884 C3883 1.434 . S
C3885 C3886 1.369 . S
C3885 C3887 1.419 . S
C3885 H3889 0.930 . S
C3886 C3885 1.369 . S
C3886 C3895 1.429 . S
C3887 C3885 1.419 . S
C3887 C3888 1.363 . S
C3887 H3890 0.929 . S
C3888 C3887 1.363 . S
C3888 C3894 1.428 . S
H3889 C3885 0.930 . S
H3890 C3887 0.929 . S
S3891 N3892 1.613 . S
S3891 N3893 1.610 . S
N3892 S3891 1.613 . S
N3892 C3895 1.350 . S
N3893 S3891 1.610 . S
N3893 C3894 1.351 . S
C3894 C3888 1.428 . S
C3894 N3893 1.351 . S
C3894 C3895 1.434 . S
C3895 C3886 1.429 . S
C3895 N3892 1.350 . S
C3895 C3894 1.434 . S
C3896 C3897 1.369 . S
C3896 C3898 1.419 . S
C3896 H3900 0.930 . S
C3897 C3896 1.369 . S
C3897 C3906 1.429 1_554 S
C3898 C3896 1.419 . S
C3898 C3899 1.363 . S
C3898 H3901 0.929 . S
C3899 C3898 1.363 . S
C3899 C3905 1.428 1_554 S
H3900 C3896 0.930 . S
H3901 C3898 0.929 . S
S3902 N3903 1.613 . S
S3902 N3904 1.610 . S
N3903 S3902 1.613 . S
N3903 C3906 1.350 . S
N3904 S3902 1.610 . S
N3904 C3905 1.351 . S
C3905 C3899 1.428 1_556 S
C3905 N3904 1.351 . S
C3905 C3906 1.434 . S
C3906 C3897 1.429 1_556 S
C3906 N3903 1.350 . S
C3906 C3905 1.434 . S
C3907 C3908 1.369 . S
C3907 C3909 1.419 . S
C3907 H3911 0.930 . S
C3908 C3907 1.369 . S
C3908 C3917 1.429 . S
C3909 C3907 1.419 . S
C3909 C3910 1.363 . S
C3909 H3912 0.929 . S
C3910 C3909 1.363 . S
C3910 C3916 1.428 . S
H3911 C3907 0.930 . S
H3912 C3909 0.929 . S
S3913 N3914 1.613 . S
S3913 N3915 1.610 . S
N3914 S3913 1.613 . S
N3914 C3917 1.350 . S
N3915 S3913 1.610 . S
N3915 C3916 1.351 . S
C3916 C3910 1.428 . S
C3916 N3915 1.351 . S
C3916 C3917 1.434 . S
C3917 C3908 1.429 . S
C3917 N3914 1.350 . S
C3917 C3916 1.434 . S
C3918 C3919 1.369 . S
C3918 C3920 1.419 . S
C3918 H3922 0.930 . S
C3919 C3918 1.369 . S
C3919 C3928 1.429 . S
C3920 C3918 1.419 . S
C3920 C3921 1.363 . S
C3920 H3923 0.929 . S
C3921 C3920 1.363 . S
C3921 C3927 1.428 . S
H3922 C3918 0.930 . S
H3923 C3920 0.929 . S
S3924 N3925 1.613 . S
S3924 N3926 1.610 . S
N3925 S3924 1.613 . S
N3925 C3928 1.350 . S
N3926 S3924 1.610 . S
N3926 C3927 1.351 . S
C3927 C3921 1.428 . S
C3927 N3926 1.351 . S
C3927 C3928 1.434 . S
C3928 C3919 1.429 . S
C3928 N3925 1.350 . S
C3928 C3927 1.434 . S
C3929 C3930 1.369 . S
C3929 C3931 1.419 . S
C3929 H3933 0.930 . S
C3930 C3929 1.369 . S
C3930 C3939 1.429 . S
C3931 C3929 1.419 . S
C3931 C3932 1.363 . S
C3931 H3934 0.929 . S
C3932 C3931 1.363 . S
C3932 C3938 1.428 . S
H3933 C3929 0.930 . S
H3934 C3931 0.929 . S
S3935 N3936 1.613 . S
S3935 N3937 1.610 . S
N3936 S3935 1.613 . S
N3936 C3939 1.350 . S
N3937 S3935 1.610 . S
N3937 C3938 1.351 . S
C3938 C3932 1.428 . S
C3938 N3937 1.351 . S
C3938 C3939 1.434 . S
C3939 C3930 1.429 . S
C3939 N3936 1.350 . S
C3939 C3938 1.434 . S
C3940 C3941 1.369 . S
C3940 C3942 1.419 . S
C3940 H3944 0.930 . S
C3941 C3940 1.369 . S
C3941 C3950 1.429 . S
C3942 C3940 1.419 . S
C3942 C3943 1.363 . S
C3942 H3945 0.929 . S
C3943 C3942 1.363 . S
C3943 C3949 1.428 . S
H3944 C3940 0.930 . S
H3945 C3942 0.929 . S
S3946 N3947 1.613 . S
S3946 N3948 1.610 . S
N3947 S3946 1.613 . S
N3947 C3950 1.350 . S
N3948 S3946 1.610 . S
N3948 C3949 1.351 . S
C3949 C3943 1.428 . S
C3949 N3948 1.351 . S
C3949 C3950 1.434 . S
C3950 C3941 1.429 . S
C3950 N3947 1.350 . S
C3950 C3949 1.434 . S
C3951 C3952 1.369 . S
C3951 C3953 1.419 . S
C3951 H3955 0.930 . S
C3952 C3951 1.369 . S
C3952 C3961 1.429 . S
C3953 C3951 1.419 . S
C3953 C3954 1.363 . S
C3953 H3956 0.929 . S
C3954 C3953 1.363 . S
C3954 C3960 1.428 . S
H3955 C3951 0.930 . S
H3956 C3953 0.929 . S
S3957 N3958 1.613 . S
S3957 N3959 1.610 . S
N3958 S3957 1.613 . S
N3958 C3961 1.350 . S
N3959 S3957 1.610 . S
N3959 C3960 1.351 . S
C3960 C3954 1.428 . S
C3960 N3959 1.351 . S
C3960 C3961 1.434 . S
C3961 C3952 1.429 . S
C3961 N3958 1.350 . S
C3961 C3960 1.434 . S
C3962 C3963 1.369 . S
C3962 C3964 1.419 . S
C3962 H3966 0.930 . S
C3963 C3962 1.369 . S
C3963 C3972 1.429 . S
C3964 C3962 1.419 . S
C3964 C3965 1.363 . S
C3964 H3967 0.929 . S
C3965 C3964 1.363 . S
C3965 C3971 1.428 . S
H3966 C3962 0.930 . S
H3967 C3964 0.929 . S
S3968 N3969 1.613 . S
S3968 N3970 1.610 . S
N3969 S3968 1.613 . S
N3969 C3972 1.350 . S
N3970 S3968 1.610 . S
N3970 C3971 1.351 . S
C3971 C3965 1.428 . S
C3971 N3970 1.351 . S
C3971 C3972 1.434 . S
C3972 C3963 1.429 . S
C3972 N3969 1.350 . S
C3972 C3971 1.434 . S
C3973 C3974 1.369 . S
C3973 C3975 1.419 . S
C3973 H3977 0.930 . S
C3974 C3973 1.369 . S
C3974 C3983 1.429 . S
C3975 C3973 1.419 . S
C3975 C3976 1.363 . S
C3975 H3978 0.929 . S
C3976 C3975 1.363 . S
C3976 C3982 1.428 . S
H3977 C3973 0.930 . S
H3978 C3975 0.929 . S
S3979 N3980 1.613 . S
S3979 N3981 1.610 . S
N3980 S3979 1.613 . S
N3980 C3983 1.350 . S
N3981 S3979 1.610 . S
N3981 C3982 1.351 . S
C3982 C3976 1.428 . S
C3982 N3981 1.351 . S
C3982 C3983 1.434 . S
C3983 C3974 1.429 . S
C3983 N3980 1.350 . S
C3983 C3982 1.434 . S
C3984 C3985 1.369 . S
C3984 C3986 1.419 . S
C3984 H3988 0.930 . S
C3985 C3984 1.369 . S
C3985 C3994 1.429 . S
C3986 C3984 1.419 . S
C3986 C3987 1.363 . S
C3986 H3989 0.929 . S
C3987 C3986 1.363 . S
C3987 C3993 1.428 . S
H3988 C3984 0.930 . S
H3989 C3986 0.929 . S
S3990 N3991 1.613 . S
S3990 N3992 1.610 . S
N3991 S3990 1.613 . S
N3991 C3994 1.350 . S
N3992 S3990 1.610 . S
N3992 C3993 1.351 . S
C3993 C3987 1.428 . S
C3993 N3992 1.351 . S
C3993 C3994 1.434 . S
C3994 C3985 1.429 . S
C3994 N3991 1.350 . S
C3994 C3993 1.434 . S
C3995 C3996 1.369 . S
C3995 C3997 1.419 . S
C3995 H3999 0.930 . S
C3996 C3995 1.369 . S
C3996 C4005 1.429 . S
C3997 C3995 1.419 . S
C3997 C3998 1.363 . S
C3997 H4000 0.929 . S
C3998 C3997 1.363 . S
C3998 C4004 1.428 . S
H3999 C3995 0.930 . S
H4000 C3997 0.929 . S
S4001 N4002 1.613 . S
S4001 N4003 1.610 . S
N4002 S4001 1.613 . S
N4002 C4005 1.350 . S
N4003 S4001 1.610 . S
N4003 C4004 1.351 . S
C4004 C3998 1.428 . S
C4004 N4003 1.351 . S
C4004 C4005 1.434 . S
C4005 C3996 1.429 . S
C4005 N4002 1.350 . S
C4005 C4004 1.434 . S
C4006 C4007 1.369 . S
C4006 C4008 1.419 . S
C4006 H4010 0.930 . S
C4007 C4006 1.369 . S
C4007 C4016 1.429 . S
C4008 C4006 1.419 . S
C4008 C4009 1.363 . S
C4008 H4011 0.929 1_554 S
C4009 C4008 1.363 . S
C4009 C4015 1.428 . S
H4010 C4006 0.930 . S
H4011 C4008 0.929 1_556 S
S4012 N4013 1.613 . S
S4012 N4014 1.610 . S
N4013 S4012 1.613 . S
N4013 C4016 1.350 . S
N4014 S4012 1.610 . S
N4014 C4015 1.351 . S
C4015 C4009 1.428 . S
C4015 N4014 1.351 . S
C4015 C4016 1.434 . S
C4016 C4007 1.429 . S
C4016 N4013 1.350 . S
C4016 C4015 1.434 . S
C4017 C4018 1.369 . S
C4017 C4019 1.419 . S
C4017 H4021 0.930 . S
C4018 C4017 1.369 . S
C4018 C4027 1.429 . S
C4019 C4017 1.419 . S
C4019 C4020 1.363 . S
C4019 H4022 0.929 . S
C4020 C4019 1.363 . S
C4020 C4026 1.428 . S
H4021 C4017 0.930 . S
H4022 C4019 0.929 . S
S4023 N4024 1.613 1_655 S
S4023 N4025 1.610 . S
N4024 S4023 1.613 1_455 S
N4024 C4027 1.350 1_455 S
N4025 S4023 1.610 . S
N4025 C4026 1.351 . S
C4026 C4020 1.428 . S
C4026 N4025 1.351 . S
C4026 C4027 1.434 . S
C4027 C4018 1.429 . S
C4027 N4024 1.350 1_655 S
C4027 C4026 1.434 . S
C4028 C4029 1.369 . S
C4028 C4030 1.419 . S
C4028 H4032 0.930 . S
C4029 C4028 1.369 . S
C4029 C4038 1.429 . S
C4030 C4028 1.419 . S
C4030 C4031 1.363 . S
C4030 H4033 0.929 . S
C4031 C4030 1.363 . S
C4031 C4037 1.428 . S
H4032 C4028 0.930 . S
H4033 C4030 0.929 . S
S4034 N4035 1.613 . S
S4034 N4036 1.610 . S
N4035 S4034 1.613 . S
N4035 C4038 1.350 . S
N4036 S4034 1.610 . S
N4036 C4037 1.351 . S
C4037 C4031 1.428 . S
C4037 N4036 1.351 . S
C4037 C4038 1.434 . S
C4038 C4029 1.429 . S
C4038 N4035 1.350 . S
C4038 C4037 1.434 . S
C4039 C4040 1.378 . S
C4039 C4041 1.397 1_455 S
C4039 H4043 0.944 . S
C4040 C4039 1.378 . S
C4040 C4049 1.429 1_455 S
C4041 C4039 1.397 1_655 S
C4041 C4042 1.363 . S
C4041 H4044 0.929 . S
C4042 C4041 1.363 . S
C4042 C4048 1.428 . S
H4043 C4039 0.944 . S
H4044 C4041 0.929 . S
S4045 N4046 1.613 . S
S4045 N4047 1.610 . S
N4046 S4045 1.613 . S
N4046 C4049 1.350 . S
N4047 S4045 1.610 . S
N4047 C4048 1.351 . S
C4048 C4042 1.428 . S
C4048 N4047 1.351 . S
C4048 C4049 1.434 . S
C4049 C4040 1.429 1_655 S
C4049 N4046 1.350 . S
C4049 C4048 1.434 . S
C4050 C4051 1.369 . S
C4050 C4052 1.419 1_655 S
C4050 H4054 0.930 . S
C4051 C4050 1.369 . S
C4051 C4060 1.429 1_655 S
C4052 C4050 1.419 1_455 S
C4052 C4053 1.363 . S
C4052 H4055 0.929 . S
C4053 C4052 1.363 . S
C4053 C4059 1.428 . S
H4054 C4050 0.930 . S
H4055 C4052 0.929 . S
S4056 N4057 1.613 . S
S4056 N4058 1.610 . S
N4057 S4056 1.613 . S
N4057 C4060 1.350 . S
N4058 S4056 1.610 . S
N4058 C4059 1.351 . S
C4059 C4053 1.428 . S
C4059 N4058 1.351 . S
C4059 C4060 1.434 . S
C4060 C4051 1.429 1_455 S
C4060 N4057 1.350 . S
C4060 C4059 1.434 . S
C4061 C4062 1.369 . S
C4061 C4063 1.419 . S
C4061 H4065 0.930 . S
C4062 C4061 1.369 . S
C4062 C4071 1.429 . S
C4063 C4061 1.419 . S
C4063 C4064 1.363 . S
C4063 H4066 0.929 . S
C4064 C4063 1.363 . S
C4064 C4070 1.428 . S
H4065 C4061 0.930 . S
H4066 C4063 0.929 . S
S4067 N4068 1.613 . S
S4067 N4069 1.610 . S
N4068 S4067 1.613 . S
N4068 C4071 1.350 . S
N4069 S4067 1.610 . S
N4069 C4070 1.351 . S
C4070 C4064 1.428 . S
C4070 N4069 1.351 . S
C4070 C4071 1.434 . S
C4071 C4062 1.429 . S
C4071 N4068 1.350 . S
C4071 C4070 1.434 . S
C4072 C4073 1.369 . S
C4072 C4074 1.419 . S
C4072 H4076 0.930 . S
C4073 C4072 1.369 . S
C4073 C4082 1.429 . S
C4074 C4072 1.419 . S
C4074 C4075 1.363 . S
C4074 H4077 0.929 . S
C4075 C4074 1.363 . S
C4075 C4081 1.428 . S
H4076 C4072 0.930 . S
H4077 C4074 0.929 . S
S4078 N4079 1.613 . S
S4078 N4080 1.610 . S
N4079 S4078 1.613 . S
N4079 C4082 1.350 . S
N4080 S4078 1.610 . S
N4080 C4081 1.351 . S
C4081 C4075 1.428 . S
C4081 N4080 1.351 . S
C4081 C4082 1.434 . S
C4082 C4073 1.429 . S
C4082 N4079 1.350 . S
C4082 C4081 1.434 . S
C4083 C4084 1.369 . S
C4083 C4085 1.419 . S
C4083 H4087 0.930 . S
C4084 C4083 1.369 . S
C4084 C4093 1.429 . S
C4085 C4083 1.419 . S
C4085 C4086 1.363 . S
C4085 H4088 0.929 . S
C4086 C4085 1.363 . S
C4086 C4092 1.428 . S
H4087 C4083 0.930 . S
H4088 C4085 0.929 . S
S4089 N4090 1.613 . S
S4089 N4091 1.610 . S
N4090 S4089 1.613 . S
N4090 C4093 1.350 . S
N4091 S4089 1.610 . S
N4091 C4092 1.351 . S
C4092 C4086 1.428 . S
C4092 N4091 1.351 . S
C4092 C4093 1.434 . S
C4093 C4084 1.429 . S
C4093 N4090 1.350 . S
C4093 C4092 1.434 . S
C4094 C4095 1.369 . S
C4094 C4096 1.419 . S
C4094 H4098 0.930 . S
C4095 C4094 1.369 . S
C4095 C4104 1.429 . S
C4096 C4094 1.419 . S
C4096 C4097 1.363 . S
C4096 H4099 0.929 . S
C4097 C4096 1.363 . S
C4097 C4103 1.428 . S
H4098 C4094 0.930 . S
H4099 C4096 0.929 . S
S4100 N4101 1.613 . S
S4100 N4102 1.610 . S
N4101 S4100 1.613 . S
N4101 C4104 1.350 . S
N4102 S4100 1.610 . S
N4102 C4103 1.351 . S
C4103 C4097 1.428 . S
C4103 N4102 1.351 . S
C4103 C4104 1.434 . S
C4104 C4095 1.429 . S
C4104 N4101 1.350 . S
C4104 C4103 1.434 . S
C4105 C4106 1.369 . S
C4105 C4107 1.419 . S
C4105 H4109 0.930 . S
C4106 C4105 1.369 . S
C4106 C4115 1.429 . S
C4107 C4105 1.419 . S
C4107 C4108 1.363 . S
C4107 H4110 0.929 . S
C4108 C4107 1.363 . S
C4108 C4114 1.428 . S
H4109 C4105 0.930 . S
H4110 C4107 0.929 . S
S4111 N4112 1.613 . S
S4111 N4113 1.610 . S
N4112 S4111 1.613 . S
N4112 C4115 1.350 . S
N4113 S4111 1.610 . S
N4113 C4114 1.351 . S
C4114 C4108 1.428 . S
C4114 N4113 1.351 . S
C4114 C4115 1.434 . S
C4115 C4106 1.429 . S
C4115 N4112 1.350 . S
C4115 C4114 1.434 . S
C4116 C4117 1.369 . S
C4116 C4118 1.419 . S
C4116 H4120 0.930 . S
C4117 C4116 1.369 . S
C4117 C4126 1.429 . S
C4118 C4116 1.419 . S
C4118 C4119 1.363 . S
C4118 H4121 0.929 . S
C4119 C4118 1.363 . S
C4119 C4125 1.428 . S
H4120 C4116 0.930 . S
H4121 C4118 0.929 . S
S4122 N4123 1.613 . S
S4122 N4124 1.610 . S
N4123 S4122 1.613 . S
N4123 C4126 1.350 . S
N4124 S4122 1.610 . S
N4124 C4125 1.351 . S
C4125 C4119 1.428 . S
C4125 N4124 1.351 . S
C4125 C4126 1.434 . S
C4126 C4117 1.429 . S
C4126 N4123 1.350 . S
C4126 C4125 1.434 . S
C4127 C4128 1.369 . S
C4127 C4129 1.419 . S
C4127 H4131 0.930 . S
C4128 C4127 1.369 . S
C4128 C4137 1.429 . S
C4129 C4127 1.419 . S
C4129 C4130 1.363 . S
C4129 H4132 0.929 . S
C4130 C4129 1.363 . S
C4130 C4136 1.428 . S
H4131 C4127 0.930 . S
H4132 C4129 0.929 . S
S4133 N4134 1.613 . S
S4133 N4135 1.610 . S
N4134 S4133 1.613 . S
N4134 C4137 1.350 . S
N4135 S4133 1.610 . S
N4135 C4136 1.351 . S
C4136 C4130 1.428 . S
C4136 N4135 1.351 . S
C4136 C4137 1.434 . S
C4137 C4128 1.429 . S
C4137 N4134 1.350 . S
C4137 C4136 1.434 . S
C4138 C4139 1.369 . S
C4138 C4140 1.419 . S
C4138 H4142 0.930 . S
C4139 C4138 1.369 . S
C4139 C4148 1.429 . S
C4140 C4138 1.419 . S
C4140 C4141 1.363 . S
C4140 H4143 0.929 . S
C4141 C4140 1.363 . S
C4141 C4147 1.428 . S
H4142 C4138 0.930 . S
H4143 C4140 0.929 . S
S4144 N4145 1.613 . S
S4144 N4146 1.610 . S
N4145 S4144 1.613 . S
N4145 C4148 1.350 . S
N4146 S4144 1.610 . S
N4146 C4147 1.351 . S
C4147 C4141 1.428 . S
C4147 N4146 1.351 . S
C4147 C4148 1.434 . S
C4148 C4139 1.429 . S
C4148 N4145 1.350 . S
C4148 C4147 1.434 . S
C4149 C4150 1.369 . S
C4149 C4151 1.419 . S
C4149 H4153 0.930 . S
C4150 C4149 1.369 . S
C4150 C4159 1.429 . S
C4151 C4149 1.419 . S
C4151 C4152 1.363 . S
C4151 H4154 0.929 . S
C4152 C4151 1.363 . S
C4152 C4158 1.428 . S
H4153 C4149 0.930 . S
H4154 C4151 0.929 . S
S4155 N4156 1.613 . S
S4155 N4157 1.610 . S
N4156 S4155 1.613 . S
N4156 C4159 1.350 . S
N4157 S4155 1.610 . S
N4157 C4158 1.351 . S
C4158 C4152 1.428 . S
C4158 N4157 1.351 . S
C4158 C4159 1.434 . S
C4159 C4150 1.429 . S
C4159 N4156 1.350 . S
C4159 C4158 1.434 . S
C4160 C4161 1.369 . S
C4160 C4162 1.419 . S
C4160 H4164 0.930 . S
C4161 C4160 1.369 . S
C4161 C4170 1.429 . S
C4162 C4160 1.419 . S
C4162 C4163 1.363 . S
C4162 H4165 0.929 . S
C4163 C4162 1.363 . S
C4163 C4169 1.428 . S
H4164 C4160 0.930 . S
H4165 C4162 0.929 . S
S4166 N4167 1.613 . S
S4166 N4168 1.610 . S
N4167 S4166 1.613 . S
N4167 C4170 1.350 . S
N4168 S4166 1.610 . S
N4168 C4169 1.351 . S
C4169 C4163 1.428 . S
C4169 N4168 1.351 . S
C4169 C4170 1.434 . S
C4170 C4161 1.429 . S
C4170 N4167 1.350 . S
C4170 C4169 1.434 . S
C4171 C4172 1.369 . S
C4171 C4173 1.419 . S
C4171 H4175 0.930 . S
C4172 C4171 1.369 . S
C4172 C4181 1.429 . S
C4173 C4171 1.419 . S
C4173 C4174 1.363 . S
C4173 H4176 0.929 . S
C4174 C4173 1.363 . S
C4174 C4180 1.428 . S
H4175 C4171 0.930 . S
H4176 C4173 0.929 . S
S4177 N4178 1.613 . S
S4177 N4179 1.610 . S
N4178 S4177 1.613 . S
N4178 C4181 1.350 . S
N4179 S4177 1.610 . S
N4179 C4180 1.351 . S
C4180 C4174 1.428 . S
C4180 N4179 1.351 . S
C4180 C4181 1.434 . S
C4181 C4172 1.429 . S
C4181 N4178 1.350 . S
C4181 C4180 1.434 . S
C4182 C4183 1.369 . S
C4182 C4184 1.419 . S
C4182 H4186 0.930 . S
C4183 C4182 1.369 . S
C4183 C4192 1.429 . S
C4184 C4182 1.419 . S
C4184 C4185 1.363 . S
C4184 H4187 0.929 . S
C4185 C4184 1.363 . S
C4185 C4191 1.428 . S
H4186 C4182 0.930 . S
H4187 C4184 0.929 . S
S4188 N4189 1.613 . S
S4188 N4190 1.610 . S
N4189 S4188 1.613 . S
N4189 C4192 1.350 . S
N4190 S4188 1.610 . S
N4190 C4191 1.351 . S
C4191 C4185 1.428 . S
C4191 N4190 1.351 . S
C4191 C4192 1.434 . S
C4192 C4183 1.429 . S
C4192 N4189 1.350 . S
C4192 C4191 1.434 . S
C4193 C4194 1.369 . S
C4193 C4195 1.425 . S
C4193 H4197 0.930 1_544 S
C4194 C4193 1.369 . S
C4194 C4203 1.429 . S
C4195 C4193 1.425 . S
C4195 C4196 1.380 . S
C4195 H4198 0.905 1_544 S
C4196 C4195 1.380 . S
C4196 C4202 1.428 . S
H4197 C4193 0.930 1_566 S
H4198 C4195 0.905 1_566 S
S4199 N4200 1.613 . S
S4199 N4201 1.610 . S
N4200 S4199 1.613 . S
N4200 C4203 1.350 . S
N4201 S4199 1.610 . S
N4201 C4202 1.351 . S
C4202 C4196 1.428 . S
C4202 N4201 1.351 . S
C4202 C4203 1.434 . S
C4203 C4194 1.429 . S
C4203 N4200 1.350 . S
C4203 C4202 1.434 . S
C4204 C4205 1.369 . S
C4204 C4206 1.419 . S
C4204 H4208 0.930 . S
C4205 C4204 1.369 . S
C4205 C4214 1.429 . S
C4206 C4204 1.419 . S
C4206 C4207 1.363 . S
C4206 H4209 0.929 . S
C4207 C4206 1.363 . S
C4207 C4213 1.428 . S
H4208 C4204 0.930 . S
H4209 C4206 0.929 . S
S4210 N4211 1.613 . S
S4210 N4212 1.610 . S
N4211 S4210 1.613 . S
N4211 C4214 1.350 . S
N4212 S4210 1.610 . S
N4212 C4213 1.351 . S
C4213 C4207 1.428 . S
C4213 N4212 1.351 . S
C4213 C4214 1.434 . S
C4214 C4205 1.429 . S
C4214 N4211 1.350 . S
C4214 C4213 1.434 . S
C4215 C4216 1.393 . S
C4215 C4217 1.419 . S
C4215 H4219 0.930 . S
C4216 C4215 1.393 . S
C4216 C4225 1.417 1_554 S
C4217 C4215 1.419 . S
C4217 C4218 1.363 . S
C4217 H4220 0.929 . S
C4218 C4217 1.363 . S
C4218 C4224 1.431 1_554 S
H4219 C4215 0.930 . S
H4220 C4217 0.929 . S
S4221 N4222 1.613 . S
S4221 N4223 1.610 . S
N4222 S4221 1.613 . S
N4222 C4225 1.350 . S
N4223 S4221 1.610 . S
N4223 C4224 1.350 . S
C4224 C4218 1.431 1_556 S
C4224 N4223 1.350 . S
C4224 C4225 1.433 . S
C4225 C4216 1.417 1_556 S
C4225 N4222 1.350 . S
C4225 C4224 1.433 . S
C4226 C4227 1.369 . S
C4226 C4228 1.419 . S
C4226 H4230 0.930 . S
C4227 C4226 1.369 . S
C4227 C4236 1.429 . S
C4228 C4226 1.419 . S
C4228 C4229 1.363 . S
C4228 H4231 0.929 . S
C4229 C4228 1.363 . S
C4229 C4235 1.428 . S
H4230 C4226 0.930 . S
H4231 C4228 0.929 . S
S4232 N4233 1.613 . S
S4232 N4234 1.610 . S
N4233 S4232 1.613 . S
N4233 C4236 1.350 . S
N4234 S4232 1.610 . S
N4234 C4235 1.351 . S
C4235 C4229 1.428 . S
C4235 N4234 1.351 . S
C4235 C4236 1.434 . S
C4236 C4227 1.429 . S
C4236 N4233 1.350 . S
C4236 C4235 1.434 . S
C4237 C4238 1.369 . S
C4237 C4239 1.419 . S
C4237 H4241 0.930 . S
C4238 C4237 1.369 . S
C4238 C4247 1.429 . S
C4239 C4237 1.419 . S
C4239 C4240 1.363 . S
C4239 H4242 0.929 . S
C4240 C4239 1.363 . S
C4240 C4246 1.428 . S
H4241 C4237 0.930 . S
H4242 C4239 0.929 . S
S4243 N4244 1.613 . S
S4243 N4245 1.610 . S
N4244 S4243 1.613 . S
N4244 C4247 1.350 . S
N4245 S4243 1.610 . S
N4245 C4246 1.351 . S
C4246 C4240 1.428 . S
C4246 N4245 1.351 . S
C4246 C4247 1.434 . S
C4247 C4238 1.429 . S
C4247 N4244 1.350 . S
C4247 C4246 1.434 . S
C4248 C4249 1.369 . S
C4248 C4250 1.419 . S
C4248 H4252 0.930 . S
C4249 C4248 1.369 . S
C4249 C4258 1.429 . S
C4250 C4248 1.419 . S
C4250 C4251 1.363 . S
C4250 H4253 0.929 . S
C4251 C4250 1.363 . S
C4251 C4257 1.428 . S
H4252 C4248 0.930 . S
H4253 C4250 0.929 . S
S4254 N4255 1.613 . S
S4254 N4256 1.610 . S
N4255 S4254 1.613 . S
N4255 C4258 1.350 . S
N4256 S4254 1.610 . S
N4256 C4257 1.351 . S
C4257 C4251 1.428 . S
C4257 N4256 1.351 . S
C4257 C4258 1.434 . S
C4258 C4249 1.429 . S
C4258 N4255 1.350 . S
C4258 C4257 1.434 . S
C4259 C4260 1.369 . S
C4259 C4261 1.419 . S
C4259 H4263 0.930 . S
C4260 C4259 1.369 . S
C4260 C4269 1.429 . S
C4261 C4259 1.419 . S
C4261 C4262 1.363 . S
C4261 H4264 0.929 . S
C4262 C4261 1.363 . S
C4262 C4268 1.428 . S
H4263 C4259 0.930 . S
H4264 C4261 0.929 . S
S4265 N4266 1.613 . S
S4265 N4267 1.610 . S
N4266 S4265 1.613 . S
N4266 C4269 1.350 . S
N4267 S4265 1.610 . S
N4267 C4268 1.351 . S
C4268 C4262 1.428 . S
C4268 N4267 1.351 . S
C4268 C4269 1.434 . S
C4269 C4260 1.429 . S
C4269 N4266 1.350 . S
C4269 C4268 1.434 . S
C4270 C4271 1.369 1_556 S
C4270 C4272 1.419 1_556 S
C4270 H4274 0.930 . S
C4271 C4270 1.369 1_554 S
C4271 C4280 1.429 . S
C4272 C4270 1.419 1_554 S
C4272 C4273 1.363 . S
C4272 H4275 0.929 1_554 S
C4273 C4272 1.363 . S
C4273 C4279 1.428 . S
H4274 C4270 0.930 . S
H4275 C4272 0.929 1_556 S
S4276 N4277 1.613 . S
S4276 N4278 1.610 . S
N4277 S4276 1.613 . S
N4277 C4280 1.350 . S
N4278 S4276 1.610 . S
N4278 C4279 1.351 . S
C4279 C4273 1.428 . S
C4279 N4278 1.351 . S
C4279 C4280 1.434 . S
C4280 C4271 1.429 . S
C4280 N4277 1.350 . S
C4280 C4279 1.434 . S
C4281 C4282 1.369 . S
C4281 C4283 1.419 . S
C4281 H4285 0.930 . S
C4282 C4281 1.369 . S
C4282 C4291 1.429 . S
C4283 C4281 1.419 . S
C4283 C4284 1.363 . S
C4283 H4286 0.929 . S
C4284 C4283 1.363 . S
C4284 C4290 1.428 . S
H4285 C4281 0.930 . S
H4286 C4283 0.929 . S
S4287 N4288 1.613 . S
S4287 N4289 1.610 . S
N4288 S4287 1.613 . S
N4288 C4291 1.350 . S
N4289 S4287 1.610 . S
N4289 C4290 1.351 . S
C4290 C4284 1.428 . S
C4290 N4289 1.351 . S
C4290 C4291 1.434 . S
C4291 C4282 1.429 . S
C4291 N4288 1.350 . S
C4291 C4290 1.434 . S
C4292 C4293 1.369 . S
C4292 C4294 1.419 . S
C4292 H4296 0.930 . S
C4293 C4292 1.369 . S
C4293 C4302 1.429 . S
C4294 C4292 1.419 . S
C4294 C4295 1.363 . S
C4294 H4297 0.929 1_556 S
C4295 C4294 1.363 . S
C4295 C4301 1.428 . S
H4296 C4292 0.930 . S
H4297 C4294 0.929 1_554 S
S4298 N4299 1.613 . S
S4298 N4300 1.610 . S
N4299 S4298 1.613 . S
N4299 C4302 1.350 . S
N4300 S4298 1.610 . S
N4300 C4301 1.351 . S
C4301 C4295 1.428 . S
C4301 N4300 1.351 . S
C4301 C4302 1.434 . S
C4302 C4293 1.429 . S
C4302 N4299 1.350 . S
C4302 C4301 1.434 . S
C4303 C4304 1.369 . S
C4303 C4305 1.419 . S
C4303 H4307 0.930 . S
C4304 C4303 1.369 . S
C4304 C4313 1.429 . S
C4305 C4303 1.419 . S
C4305 C4306 1.363 . S
C4305 H4308 0.929 . S
C4306 C4305 1.363 . S
C4306 C4312 1.428 . S
H4307 C4303 0.930 . S
H4308 C4305 0.929 . S
S4309 N4310 1.613 . S
S4309 N4311 1.610 . S
N4310 S4309 1.613 . S
N4310 C4313 1.350 . S
N4311 S4309 1.610 . S
N4311 C4312 1.351 . S
C4312 C4306 1.428 . S
C4312 N4311 1.351 . S
C4312 C4313 1.434 . S
C4313 C4304 1.429 . S
C4313 N4310 1.350 . S
C4313 C4312 1.434 . S
C4314 C4315 1.369 . S
C4314 C4316 1.419 . S
C4314 H4318 0.930 . S
C4315 C4314 1.369 . S
C4315 C4324 1.429 . S
C4316 C4314 1.419 . S
C4316 C4317 1.363 . S
C4316 H4319 0.929 . S
C4317 C4316 1.363 . S
C4317 C4323 1.428 . S
H4318 C4314 0.930 . S
H4319 C4316 0.929 . S
S4320 N4321 1.613 . S
S4320 N4322 1.610 . S
N4321 S4320 1.613 . S
N4321 C4324 1.350 . S
N4322 S4320 1.610 . S
N4322 C4323 1.351 . S
C4323 C4317 1.428 . S
C4323 N4322 1.351 . S
C4323 C4324 1.434 . S
C4324 C4315 1.429 . S
C4324 N4321 1.350 . S
C4324 C4323 1.434 . S
C4325 C4326 1.369 . S
C4325 C4327 1.419 . S
C4325 H4329 0.930 . S
C4326 C4325 1.369 . S
C4326 C4335 1.429 . S
C4327 C4325 1.419 . S
C4327 C4328 1.363 . S
C4327 H4330 0.929 . S
C4328 C4327 1.363 . S
C4328 C4334 1.428 . S
H4329 C4325 0.930 . S
H4330 C4327 0.929 . S
S4331 N4332 1.613 . S
S4331 N4333 1.610 . S
N4332 S4331 1.613 . S
N4332 C4335 1.350 . S
N4333 S4331 1.610 . S
N4333 C4334 1.351 . S
C4334 C4328 1.428 . S
C4334 N4333 1.351 . S
C4334 C4335 1.434 . S
C4335 C4326 1.429 . S
C4335 N4332 1.350 . S
C4335 C4334 1.434 . S
C4336 C4337 1.369 . S
C4336 C4338 1.419 . S
C4336 H4340 0.930 . S
C4337 C4336 1.369 . S
C4337 C4346 1.429 . S
C4338 C4336 1.419 . S
C4338 C4339 1.363 . S
C4338 H4341 0.929 . S
C4339 C4338 1.363 . S
C4339 C4345 1.428 . S
H4340 C4336 0.930 . S
H4341 C4338 0.929 . S
S4342 N4343 1.613 . S
S4342 N4344 1.610 . S
N4343 S4342 1.613 . S
N4343 C4346 1.350 . S
N4344 S4342 1.610 . S
N4344 C4345 1.351 . S
C4345 C4339 1.428 . S
C4345 N4344 1.351 . S
C4345 C4346 1.434 . S
C4346 C4337 1.429 . S
C4346 N4343 1.350 . S
C4346 C4345 1.434 . S
C4347 C4348 1.369 . S
C4347 C4349 1.419 . S
C4347 H4351 0.930 . S
C4348 C4347 1.369 . S
C4348 C4357 1.429 . S
C4349 C4347 1.419 . S
C4349 C4350 1.363 . S
C4349 H4352 0.929 . S
C4350 C4349 1.363 . S
C4350 C4356 1.428 . S
H4351 C4347 0.930 . S
H4352 C4349 0.929 . S
S4353 N4354 1.613 . S
S4353 N4355 1.610 . S
N4354 S4353 1.613 . S
N4354 C4357 1.350 . S
N4355 S4353 1.610 . S
N4355 C4356 1.351 . S
C4356 C4350 1.428 . S
C4356 N4355 1.351 . S
C4356 C4357 1.434 . S
C4357 C4348 1.429 . S
C4357 N4354 1.350 . S
C4357 C4356 1.434 . S
C4358 C4359 1.369 . S
C4358 C4360 1.419 1_655 S
C4358 H4362 0.930 . S
C4359 C4358 1.369 . S
C4359 C4368 1.429 1_655 S
C4360 C4358 1.419 1_455 S
C4360 C4361 1.363 . S
C4360 H4363 0.929 . S
C4361 C4360 1.363 . S
C4361 C4367 1.428 . S
H4362 C4358 0.930 . S
H4363 C4360 0.929 . S
S4364 N4365 1.613 . S
S4364 N4366 1.610 . S
N4365 S4364 1.613 . S
N4365 C4368 1.350 . S
N4366 S4364 1.610 . S
N4366 C4367 1.351 . S
C4367 C4361 1.428 . S
C4367 N4366 1.351 . S
C4367 C4368 1.434 . S
C4368 C4359 1.429 1_455 S
C4368 N4365 1.350 . S
C4368 C4367 1.434 . S
C4369 C4370 1.369 . S
C4369 C4371 1.419 . S
C4369 H4373 0.930 . S
C4370 C4369 1.369 . S
C4370 C4379 1.429 . S
C4371 C4369 1.419 . S
C4371 C4372 1.363 . S
C4371 H4374 0.929 . S
C4372 C4371 1.363 . S
C4372 C4378 1.428 . S
H4373 C4369 0.930 . S
H4374 C4371 0.929 . S
S4375 N4376 1.613 . S
S4375 N4377 1.610 . S
N4376 S4375 1.613 . S
N4376 C4379 1.350 . S
N4377 S4375 1.610 . S
N4377 C4378 1.351 . S
C4378 C4372 1.428 . S
C4378 N4377 1.351 . S
C4378 C4379 1.434 . S
C4379 C4370 1.429 . S
C4379 N4376 1.350 . S
C4379 C4378 1.434 . S
C4380 C4381 1.369 . S
C4380 C4382 1.419 . S
C4380 H4384 0.930 . S
C4381 C4380 1.369 . S
C4381 C4390 1.429 . S
C4382 C4380 1.419 . S
C4382 C4383 1.363 . S
C4382 H4385 0.929 . S
C4383 C4382 1.363 . S
C4383 C4389 1.428 . S
H4384 C4380 0.930 . S
H4385 C4382 0.929 . S
S4386 N4387 1.613 . S
S4386 N4388 1.610 . S
N4387 S4386 1.613 . S
N4387 C4390 1.350 . S
N4388 S4386 1.610 . S
N4388 C4389 1.351 . S
C4389 C4383 1.428 . S
C4389 N4388 1.351 . S
C4389 C4390 1.434 . S
C4390 C4381 1.429 . S
C4390 N4387 1.350 . S
C4390 C4389 1.434 . S
C4391 C4392 1.369 . S
C4391 C4393 1.419 . S
C4391 H4395 0.930 . S
C4392 C4391 1.369 . S
C4392 C4401 1.429 . S
C4393 C4391 1.419 . S
C4393 C4394 1.363 . S
C4393 H4396 0.929 . S
C4394 C4393 1.363 . S
C4394 C4400 1.428 . S
H4395 C4391 0.930 . S
H4396 C4393 0.929 . S
S4397 N4398 1.613 . S
S4397 N4399 1.610 . S
N4398 S4397 1.613 . S
N4398 C4401 1.350 . S
N4399 S4397 1.610 . S
N4399 C4400 1.351 . S
C4400 C4394 1.428 . S
C4400 N4399 1.351 . S
C4400 C4401 1.434 . S
C4401 C4392 1.429 . S
C4401 N4398 1.350 . S
C4401 C4400 1.434 . S
C4402 C4403 1.369 1_455 S
C4402 C4404 1.419 . S
C4402 H4406 0.930 . S
C4403 C4402 1.369 1_655 S
C4403 C4412 1.429 . S
C4404 C4402 1.419 . S
C4404 C4405 1.365 1_455 S
C4404 H4407 0.929 . S
C4405 C4404 1.365 1_655 S
C4405 C4411 1.424 . S
H4406 C4402 0.930 . S
H4407 C4404 0.929 . S
S4408 N4409 1.613 . S
S4408 N4410 1.610 . S
N4409 S4408 1.613 . S
N4409 C4412 1.350 . S
N4410 S4408 1.610 . S
N4410 C4411 1.351 . S
C4411 C4405 1.424 . S
C4411 N4410 1.351 . S
C4411 C4412 1.434 . S
C4412 C4403 1.429 . S
C4412 N4409 1.350 . S
C4412 C4411 1.434 . S
C4413 C4414 1.369 . S
C4413 C4415 1.419 . S
C4413 H4417 0.930 . S
C4414 C4413 1.369 . S
C4414 C4423 1.429 . S
C4415 C4413 1.419 . S
C4415 C4416 1.363 . S
C4415 H4418 0.929 . S
C4416 C4415 1.363 . S
C4416 C4422 1.428 . S
H4417 C4413 0.930 . S
H4418 C4415 0.929 . S
S4419 N4420 1.613 . S
S4419 N4421 1.610 . S
N4420 S4419 1.613 . S
N4420 C4423 1.350 . S
N4421 S4419 1.610 . S
N4421 C4422 1.351 . S
C4422 C4416 1.428 . S
C4422 N4421 1.351 . S
C4422 C4423 1.434 . S
C4423 C4414 1.429 . S
C4423 N4420 1.350 . S
C4423 C4422 1.434 . S
C4424 C4425 1.369 . S
C4424 C4426 1.419 . S
C4424 H4428 0.930 . S
C4425 C4424 1.369 . S
C4425 C4434 1.429 . S
C4426 C4424 1.419 . S
C4426 C4427 1.363 . S
C4426 H4429 0.929 . S
C4427 C4426 1.363 . S
C4427 C4433 1.428 . S
H4428 C4424 0.930 . S
H4429 C4426 0.929 . S
S4430 N4431 1.613 . S
S4430 N4432 1.610 . S
N4431 S4430 1.613 . S
N4431 C4434 1.350 . S
N4432 S4430 1.610 . S
N4432 C4433 1.351 . S
C4433 C4427 1.428 . S
C4433 N4432 1.351 . S
C4433 C4434 1.434 . S
C4434 C4425 1.429 . S
C4434 N4431 1.350 . S
C4434 C4433 1.434 . S
C4435 C4436 1.369 . S
C4435 C4437 1.419 . S
C4435 H4439 0.930 . S
C4436 C4435 1.369 . S
C4436 C4445 1.429 . S
C4437 C4435 1.419 . S
C4437 C4438 1.363 . S
C4437 H4440 0.929 1_565 S
C4438 C4437 1.363 . S
C4438 C4444 1.428 . S
H4439 C4435 0.930 . S
H4440 C4437 0.929 1_545 S
S4441 N4442 1.613 . S
S4441 N4443 1.610 1_655 S
N4442 S4441 1.613 . S
N4442 C4445 1.350 . S
N4443 S4441 1.610 1_455 S
N4443 C4444 1.351 1_455 S
C4444 C4438 1.428 . S
C4444 N4443 1.351 1_655 S
C4444 C4445 1.434 . S
C4445 C4436 1.429 . S
C4445 N4442 1.350 . S
C4445 C4444 1.434 . S
C4446 C4447 1.369 . S
C4446 C4448 1.419 . S
C4446 H4450 0.930 . S
C4447 C4446 1.369 . S
C4447 C4456 1.429 . S
C4448 C4446 1.419 . S
C4448 C4449 1.363 . S
C4448 H4451 0.929 . S
C4449 C4448 1.363 . S
C4449 C4455 1.428 . S
H4450 C4446 0.930 . S
H4451 C4448 0.929 . S
S4452 N4453 1.613 . S
S4452 N4454 1.610 . S
N4453 S4452 1.613 . S
N4453 C4456 1.350 . S
N4454 S4452 1.610 . S
N4454 C4455 1.351 . S
C4455 C4449 1.428 . S
C4455 N4454 1.351 . S
C4455 C4456 1.434 . S
C4456 C4447 1.429 . S
C4456 N4453 1.350 . S
C4456 C4455 1.434 . S
C4457 C4458 1.369 . S
C4457 C4459 1.419 . S
C4457 H4461 0.930 . S
C4458 C4457 1.369 . S
C4458 C4467 1.429 . S
C4459 C4457 1.419 . S
C4459 C4460 1.363 . S
C4459 H4462 0.929 . S
C4460 C4459 1.363 . S
C4460 C4466 1.428 . S
H4461 C4457 0.930 . S
H4462 C4459 0.929 . S
S4463 N4464 1.613 . S
S4463 N4465 1.610 . S
N4464 S4463 1.613 . S
N4464 C4467 1.350 . S
N4465 S4463 1.610 . S
N4465 C4466 1.351 . S
C4466 C4460 1.428 . S
C4466 N4465 1.351 . S
C4466 C4467 1.434 . S
C4467 C4458 1.429 . S
C4467 N4464 1.350 . S
C4467 C4466 1.434 . S
C4468 C4469 1.369 . S
C4468 C4470 1.419 . S
C4468 H4472 0.930 . S
C4469 C4468 1.369 . S
C4469 C4478 1.429 . S
C4470 C4468 1.419 . S
C4470 C4471 1.363 . S
C4470 H4473 0.929 . S
C4471 C4470 1.363 . S
C4471 C4477 1.428 . S
H4472 C4468 0.930 . S
H4473 C4470 0.929 . S
S4474 N4475 1.613 . S
S4474 N4476 1.610 . S
N4475 S4474 1.613 . S
N4475 C4478 1.350 . S
N4476 S4474 1.610 . S
N4476 C4477 1.351 . S
C4477 C4471 1.428 . S
C4477 N4476 1.351 . S
C4477 C4478 1.434 . S
C4478 C4469 1.429 . S
C4478 N4475 1.350 . S
C4478 C4477 1.434 . S
C4479 C4480 1.369 . S
C4479 C4481 1.419 . S
C4479 H4483 0.930 . S
C4480 C4479 1.369 . S
C4480 C4489 1.429 . S
C4481 C4479 1.419 . S
C4481 C4482 1.363 . S
C4481 H4484 0.929 . S
C4482 C4481 1.363 . S
C4482 C4488 1.428 . S
H4483 C4479 0.930 . S
H4484 C4481 0.929 . S
S4485 N4486 1.613 . S
S4485 N4487 1.610 . S
N4486 S4485 1.613 . S
N4486 C4489 1.350 . S
N4487 S4485 1.610 . S
N4487 C4488 1.351 . S
C4488 C4482 1.428 . S
C4488 N4487 1.351 . S
C4488 C4489 1.434 . S
C4489 C4480 1.429 . S
C4489 N4486 1.350 . S
C4489 C4488 1.434 . S
C4490 C4491 1.369 . S
C4490 C4492 1.419 . S
C4490 H4494 0.930 . S
C4491 C4490 1.369 . S
C4491 C4500 1.429 . S
C4492 C4490 1.419 . S
C4492 C4493 1.363 . S
C4492 H4495 0.929 . S
C4493 C4492 1.363 . S
C4493 C4499 1.428 . S
H4494 C4490 0.930 . S
H4495 C4492 0.929 . S
S4496 N4497 1.613 . S
S4496 N4498 1.610 . S
N4497 S4496 1.613 . S
N4497 C4500 1.350 . S
N4498 S4496 1.610 . S
N4498 C4499 1.351 . S
C4499 C4493 1.428 . S
C4499 N4498 1.351 . S
C4499 C4500 1.434 . S
C4500 C4491 1.429 . S
C4500 N4497 1.350 . S
C4500 C4499 1.434 . S
C4501 C4502 1.369 . S
C4501 C4503 1.419 . S
C4501 H4505 0.930 . S
C4502 C4501 1.369 . S
C4502 C4511 1.429 . S
C4503 C4501 1.419 . S
C4503 C4504 1.363 . S
C4503 H4506 0.929 . S
C4504 C4503 1.363 . S
C4504 C4510 1.428 . S
H4505 C4501 0.930 . S
H4506 C4503 0.929 . S
S4507 N4508 1.613 . S
S4507 N4509 1.610 . S
N4508 S4507 1.613 . S
N4508 C4511 1.350 . S
N4509 S4507 1.610 . S
N4509 C4510 1.351 . S
C4510 C4504 1.428 . S
C4510 N4509 1.351 . S
C4510 C4511 1.434 . S
C4511 C4502 1.429 . S
C4511 N4508 1.350 . S
C4511 C4510 1.434 . S
C3457 C665 1.939 . S
C3459 C2179 1.865 . S
C3468 C381 2.217 . S
C3470 C2262 2.231 . S
C3479 C460 1.815 . S
C3481 C2347 1.908 . S
C3492 C2427 1.424 . S
C3490 C585 1.553 . S
C3501 C108 1.585 . S
C3503 C2511 1.597 . S
C3514 C2604 1.016 . S
C3512 C196 1.182 . S
C3525 C2682 1.369 . S
C3523 C313 1.209 . S
C3534 C49 1.552 . S
C3536 C2767 1.362 . S
C3547 C2178 2.033 . S
C3545 C1457 2.125 . S
C3556 C1545 0.642 . S
C3558 C2259 0.669 . S
C3569 C2346 1.160 . S
C3567 C1721 1.188 . S
C3580 C2431 1.864 . S
C3578 C1113 1.844 . S
C3589 C1428 2.270 . S
C3591 C2515 2.132 . S
C3602 C2607 1.102 . S
C3600 C1516 1.168 . S
C3613 C2679 0.747 . S
C3611 C1692 0.756 . S
C3624 C2766 1.566 . S
C3622 C1085 1.710 . S
C3635 C2175 1.413 . S
C3633 C988 1.492 1_545 S
C3644 C1817 1.932 . S
C3646 C2850 1.885 1_556 S
C3657 C2924 2.174 . S
C3655 C2081 2.357 . S
C3668 C3019 0.673 . S
C3666 C1993 0.689 . S
C3677 C761 1.103 . S
C3679 C2763 1.199 . S
C3688 C821 1.516 . S
C3690 C2343 1.537 . S
C3699 C2053 2.289 . S
C3701 C3102 2.228 . S
C3712 C3187 0.754 . S
C3710 C1868 0.753 . S
C3723 C2168 1.859 . S
C3721 C372 1.941 . S
C3734 C3195 2.233 . S
C3732 C645 2.215 . S
C3743 C577 1.815 . S
C3745 C2336 1.904 . S
C3754 C497 1.552 . S
C3756 C3108 1.421 . S
C3767 C2520 1.599 . S
C3765 C57 1.594 . S
C3776 C293 1.180 . S
C3778 C2931 1.010 . S
C3789 C2691 1.365 . S
C3787 C205 1.201 . S
C3800 C3260 1.363 . S
C3798 C145 1.557 . S
C3811 C2187 2.030 . S
C3809 C909 2.120 . S
C3822 C3192 0.668 . S
C3820 C1956 0.641 . S
C3831 C724 1.185 . S
C3833 C2355 1.159 . S
C3842 C1780 1.834 . S
C3844 C3092 1.854 . S
C3853 C937 2.274 . S
C3855 C2504 2.128 . S
C3866 C2934 1.091 . S
C3864 C1985 1.166 . S
C3875 C753 0.756 . S
C3877 C2688 0.743 . S
C3886 C1809 1.713 . S
C3888 C3279 1.564 . S
C3897 C1173 1.494 . S
C3899 C2184 1.400 1_554 S
C3908 C1105 1.927 . S
C3910 C2859 1.889 . S
C3919 C1633 2.355 . S
C3921 C2599 2.171 . S
C3930 C1553 0.681 . S
C3932 C3008 0.682 . S
C3943 C3276 1.205 . S
C3941 C1729 1.102 . S
C3952 C1340 1.516 . S
C3954 C2352 1.535 . S
C3965 C2439 2.224 . S
C3963 C1604 2.285 . S
C3976 C2252 0.758 . S
C3974 C1252 0.756 . S
C3985 C489 1.935 . S
C3987 C3355 1.863 . S
C3998 C3186 2.231 . S
C3996 C557 2.217 . S
C4007 C636 1.820 . S
C4009 C3439 1.905 . S
C4018 C409 1.554 1_655 S
C4020 C3099 1.427 . S
C4029 C284 1.585 . S
C4031 C2847 1.597 . S
C4042 C2940 1.014 . S
C4040 C20 1.182 . S
C4053 C3018 1.370 . S
C4051 C137 1.198 . S
C4064 C3271 1.370 . S
C4062 C225 1.544 . S
C4075 C3354 2.029 . S
C4073 C1641 2.127 . S
C4084 C1193 0.643 . S
C4086 C3183 0.683 . S
C4097 C3438 1.160 . S
C4095 C1289 1.188 . S
C4108 C3103 1.864 . S
C4106 C1377 1.843 . S
C4119 C2851 2.129 . S
C4117 C1613 2.273 . S
C4128 C1164 1.168 . S
C4130 C2943 1.102 . S
C4141 C3015 0.756 . S
C4139 C1261 0.759 . S
C4150 C1349 1.714 . S
C4152 C3270 1.557 . S
C4163 C3351 1.412 . S
C4161 C1965 1.491 . S
C4172 C849 1.933 . S
C4174 C2514 1.889 . S
C4185 C2588 2.173 . S
C4183 C929 2.362 . S
C4196 C2683 0.675 . S
C4194 C1017 0.703 . S
C4207 C3267 1.199 . S
C4205 C1897 1.106 . S
C4216 C1789 1.511 1_554 S
C4218 C3435 1.534 . S
C4229 C2430 2.229 . S
C4227 C900 2.284 . S
C4240 C2263 0.755 . S
C4238 C733 0.753 . S
C4249 C548 1.938 . S
C4251 C3344 1.858 . S
C4262 C2271 2.231 . S
C4260 C469 2.212 . S
C4271 C401 1.806 . S
C4273 C3428 1.900 . S
C4282 C673 1.554 . S
C4284 C2436 1.430 . S
C4293 C233 1.591 . S
C4295 C2856 1.599 . S
C4306 C2595 1.010 . S
C4304 C117 1.178 . S
C4315 C29 1.196 . S
C4317 C3027 1.366 . S
C4326 C321 1.553 . S
C4328 C2756 1.369 . S
C4339 C3363 2.025 . S
C4337 C2044 2.122 . S
C4348 C997 0.640 . S
C4350 C2268 0.683 . S
C4361 C3447 1.154 . S
C4359 C1877 1.182 . S
C4370 C812 1.834 . S
C4372 C2420 1.860 . S
C4381 C2073 2.274 . S
C4383 C2840 2.127 . S
C4394 C2598 1.091 . S
C4392 C1025 1.165 . S
C4403 C1905 0.751 . S
C4405 C3024 0.757 1_655 S
C4416 C2775 1.555 . S
C4414 C841 1.714 . S
C4427 C3360 1.405 . S
C4425 C1525 1.496 . S
C4438 C2523 1.889 1_665 S
C4436 C1369 1.928 . S
C4447 C1465 2.355 . S
C4449 C2935 2.164 . S
C4460 C2672 0.675 . S
C4458 C1201 0.671 . S
C4469 C1281 1.116 . S
C4471 C2772 1.204 . S
C4480 C1076 1.515 . S
C4482 C3444 1.535 1_554 S
C4493 C3111 2.228 . S
C4491 C1437 2.287 . S
C4504 C3176 0.754 . S
C4502 C1701 0.757 . S
