# Generated by pormake.
# Topology tsx, (6,3)-cn, num edge types: 1
# Building blocks:
#     Node 0, Type 0, BuildingBlock: JUFBIX_clean_sbu_0, # of connection points: 6
#     Node 1, Type 0, BuildingBlock: JUFBIX_clean_sbu_0, # of connection points: 6
#     Node 2, Type 1, BuildingBlock: WUSLED_clean_sbu_0, # of connection points: 3
#     Node 3, Type 1, BuildingBlock: WUSLED_clean_sbu_0, # of connection points: 3
#     Node 4, Type 1, BuildingBlock: WUSLED_clean_sbu_0, # of connection points: 3
#     Node 5, Type 1, BuildingBlock: WUSLED_clean_sbu_0, # of connection points: 3
#     Edge 6, Type (0, 1), BuildingBlock: OJICUG_clean_linker_0, # of connection points: 2
#     Edge 7, Type (0, 1), BuildingBlock: OJICUG_clean_linker_0, # of connection points: 2
#     Edge 8, Type (0, 1), BuildingBlock: OJICUG_clean_linker_0, # of connection points: 2
#     Edge 9, Type (0, 1), BuildingBlock: OJICUG_clean_linker_0, # of connection points: 2
#     Edge 10, Type (0, 1), BuildingBlock: OJICUG_clean_linker_0, # of connection points: 2
#     Edge 11, Type (0, 1), BuildingBlock: OJICUG_clean_linker_0, # of connection points: 2
#     Edge 12, Type (0, 1), BuildingBlock: OJICUG_clean_linker_0, # of connection points: 2
#     Edge 13, Type (0, 1), BuildingBlock: OJICUG_clean_linker_0, # of connection points: 2
#     Edge 14, Type (0, 1), BuildingBlock: OJICUG_clean_linker_0, # of connection points: 2
#     Edge 15, Type (0, 1), BuildingBlock: OJICUG_clean_linker_0, # of connection points: 2
#     Edge 16, Type (0, 1), BuildingBlock: OJICUG_clean_linker_0, # of connection points: 2
#     Edge 17, Type (0, 1), BuildingBlock: OJICUG_clean_linker_0, # of connection points: 2
# Relax obj value: 0.150
# Max RMSD: 0.164
# Mean RMSD: 0.131
data_MOF--net-tsx--node1-JUFBIX_clean_sbu_0--node2-WUSLED_clean_sbu_0--edge1-OJICUG_clean_linker_0
_symmetry_space_group_name_H-M    P1
_symmetry_Int_Tables_number       1
_symmetry_cell_setting            triclinic
loop_
_symmetry_equiv_pos_as_xyz
'x, y, z'
_cell_length_a     20.369257
_cell_length_b     24.510817
_cell_length_c     36.168714
_cell_angle_alpha  92.692398
_cell_angle_beta   89.27681
_cell_angle_gamma 98.867867
loop_
_atom_site_label
_atom_site_type_symbol
_atom_site_fract_x
_atom_site_fract_y
_atom_site_fract_z
_atom_type_partial_charge
Co0 Co 0.06268 0.98682 0.025 0.0
C1 C 1.01322 0.01631 0.95765 0.0
Co2 Co 0.9839 0.03923 0.02937 0.0
C3 C 0.14163 0.89581 0.02577 0.0
C4 C 0.17986 0.96165 0.99078 0.0
N5 N 0.13131 0.94627 0.01569 0.0
N6 N 0.19431 0.87971 1.00767 0.0
C7 C 0.21836 0.92085 0.98576 0.0
H8 H 0.10964 0.87047 0.0445 0.0
H9 H 0.18517 0.99925 0.97579 0.0
C10 C 0.03247 0.00875 0.09681 0.0
N11 N 0.9155 0.08043 0.0364 0.0
C12 C 0.90313 0.12531 0.01885 0.0
C13 C 0.86612 0.07069 0.06147 0.0
N14 N 0.84811 0.14405 0.03229 0.0
C15 C 0.82487 0.10963 0.05908 0.0
C16 C 0.9385 0.92558 0.02774 0.0
O17 O 0.07417 0.98644 0.07708 0.0
O18 O 0.98959 0.03235 0.08112 0.0
O19 O 0.92058 0.97289 0.02625 0.0
O20 O 0.99996 0.92153 0.02748 0.0
O21 O 0.97943 0.04579 0.97756 0.0
H22 H 0.86036 0.0372 0.08024 0.0
H23 H 0.93441 0.14426 0.99707 0.0
O24 O 0.05004 0.98677 0.97289 0.0
O25 O 0.12504 0.05331 0.02371 0.0
O26 O 0.04686 0.10464 0.03338 0.0
C27 C 0.10794 0.1006 0.02957 0.0
H28 H 0.25988 0.9206 0.96679 0.0
H29 H 0.78054 0.11188 0.07553 0.0
Co30 Co 0.56257 0.48578 0.52401 0.0
C31 C 0.50993 0.51642 0.45705 0.0
Co32 Co 0.48255 0.5376 0.5289 0.0
C33 C 0.65154 0.39903 0.52421 0.0
C34 C 0.67492 0.46244 0.48538 0.0
N35 N 0.63207 0.44602 0.51283 0.0
N36 N 0.70499 0.38614 0.50463 0.0
C37 C 0.71853 0.42601 0.48004 0.0
H38 H 0.62686 0.37483 0.54606 0.0
H39 H 0.67379 0.49846 0.4694 0.0
C40 C 0.53451 0.50634 0.59568 0.0
N41 N 0.41454 0.57898 0.53752 0.0
C42 C 0.40154 0.62382 0.52015 0.0
C43 C 0.36716 0.57036 0.56382 0.0
N44 N 0.34806 0.64367 0.53483 0.0
C45 C 0.32647 0.60994 0.5623 0.0
C46 C 0.4383 0.42392 0.52728 0.0
O47 O 0.57516 0.4833 0.57563 0.0
O48 O 0.49192 0.53089 0.58048 0.0
O49 O 0.41985 0.4712 0.52702 0.0
O50 O 0.4999 0.42004 0.5257 0.0
O51 O 0.47386 0.54354 0.47723 0.0
H52 H 0.36244 0.53727 0.58289 0.0
H53 H 0.43139 0.64199 0.49759 0.0
O54 O 0.54873 0.48858 0.47226 0.0
O55 O 0.62448 0.55239 0.52359 0.0
O56 O 0.5457 0.60346 0.53163 0.0
C57 C 0.60703 0.59969 0.52858 0.0
H58 H 0.75625 0.42836 0.45864 0.0
H59 H 0.28358 0.61304 0.57978 0.0
C60 C 0.92285 0.11321 0.49642 0.0
C61 C 0.9117 0.14155 0.46485 0.0
C62 C 0.84459 0.19872 0.50143 0.0
C63 C 0.87298 0.18405 0.46736 0.0
C64 C 0.8545 0.16917 0.53269 0.0
C65 C 0.89357 0.12689 0.53019 0.0
U66 U 0.02704 0.01766 0.44331 0.0
O67 O 0.03696 0.93098 0.45275 0.0
O68 O 0.12474 0.99745 0.45886 0.0
C69 C 0.10024 0.94476 0.46089 0.0
C70 C 0.9664 0.07055 0.49499 0.0
C71 C 0.14152 0.90363 0.47078 0.0
C72 C 0.21336 0.86938 0.51437 0.0
C73 C 0.17613 0.90972 0.50432 0.0
C74 C 0.1827 0.81702 0.45704 0.0
C75 C 0.217 0.82241 0.49088 0.0
C76 C 0.14494 0.85712 0.44723 0.0
C77 C 0.02141 0.03277 0.33459 0.0
C78 C 0.05441 0.98135 0.28001 0.0
C79 C 1.00467 0.06399 0.27337 0.0
C80 C 0.99987 0.07064 0.31162 0.0
C81 C 0.03067 0.01876 0.25692 0.0
C82 C 0.04954 0.98818 0.31877 0.0
C83 C 1.00949 0.04102 0.37446 0.0
O84 O 0.9407 0.02225 0.47999 0.0
O85 O 0.02776 0.08701 0.48414 0.0
O86 O 0.05841 0.06704 0.39496 0.0
O87 O 0.97114 1.00157 0.3913 0.0
H88 H 0.93374 0.13141 0.43848 0.0
H89 H 0.86572 0.20587 0.44273 0.0
H90 H 0.83393 0.17998 0.5593 0.0
H91 H 0.90189 0.10545 0.55482 0.0
H92 H 0.23944 0.87509 0.54051 0.0
H93 H 0.1735 0.94522 0.523 0.0
H94 H 0.18359 0.78111 0.43854 0.0
H95 H 0.11826 0.85176 0.42126 0.0
H96 H 0.07475 0.9461 0.26815 0.0
H97 H 0.98746 0.09439 0.25663 0.0
H98 H 0.9781 0.1053 0.32334 0.0
H99 H 0.06644 0.95843 0.33619 0.0
C100 C 0.90913 0.88259 0.56354 0.0
C101 C 0.87881 0.85677 0.59454 0.0
C102 C 0.81213 0.78808 0.5538 0.0
C103 C 0.83028 0.80973 0.58966 0.0
C104 C 0.84345 0.81403 0.52309 0.0
C105 C 0.89131 0.86085 0.52796 0.0
U106 U 0.02733 0.01112 0.60813 0.0
O107 O 0.04216 0.09252 0.58337 0.0
O108 O 0.124 0.04308 0.58317 0.0
C109 C 0.10299 0.08792 0.5726 0.0
C110 C 0.95799 0.93314 0.56634 0.0
C111 C 0.15141 0.13829 0.56925 0.0
C112 C 0.2214 0.1975 0.52796 0.0
C113 C 0.17645 0.14982 0.53378 0.0
C114 C 0.21821 0.22278 0.5935 0.0
C115 C 0.24279 0.23455 0.55765 0.0
C116 C 0.17227 0.17491 0.59928 0.0
C117 C 0.01863 0.01257 0.72062 0.0
C118 C 0.0705 0.04222 0.77975 0.0
C119 C 0.96156 0.98602 0.77784 0.0
C120 C 0.96308 0.98543 0.73918 0.0
C121 C 0.01513 0.01463 0.79848 0.0
C122 C 0.07245 0.04078 0.74105 0.0
C123 C 0.02023 0.01123 0.68003 0.0
O124 O 0.93612 0.97892 0.57738 0.0
O125 O 0.01725 0.92933 0.57895 0.0
O126 O 0.06513 0.9882 0.66113 0.0
O127 O 0.97921 0.03471 0.66049 0.0
H128 H 0.89218 0.87314 0.62223 0.0
H129 H 0.80714 0.79018 0.6138 0.0
H130 H 0.8299 0.79877 0.4952 0.0
H131 H 0.91404 0.8806 0.50376 0.0
H132 H 0.24021 0.205 0.50022 0.0
H133 H 0.16103 0.12177 0.51034 0.0
H134 H 0.23392 0.25086 0.61684 0.0
H135 H 0.15317 0.16659 0.62686 0.0
H136 H 0.11263 0.0642 0.79504 0.0
H137 H 0.91818 0.96469 0.79163 0.0
H138 H 0.92116 0.96339 0.72375 0.0
H139 H 0.11572 0.06196 0.72708 0.0
C140 C 0.42144 0.61575 0.99306 0.0
C141 C 0.40864 0.64418 0.96182 0.0
C142 C 0.33685 0.69664 0.99903 0.0
C143 C 0.36681 0.68452 0.96482 0.0
C144 C 0.34967 0.66724 0.02993 0.0
C145 C 0.39176 0.62747 0.02696 0.0
U146 U 0.52857 0.51755 0.94317 0.0
O147 O 0.53965 0.43404 0.95884 0.0
O148 O 0.6264 0.5013 0.9621 0.0
C149 C 0.60196 0.44977 0.96855 0.0
C150 C 0.4661 0.57422 0.99164 0.0
C151 C 0.64524 0.40821 0.97348 0.0
C152 C 0.71932 0.37091 0.01402 0.0
C153 C 0.68195 0.41193 1.00618 0.0
C154 C 0.68503 0.32215 0.95592 0.0
C155 C 0.72049 0.32498 0.98935 0.0
C156 C 0.6473 0.36346 0.94811 0.0
C157 C 0.52405 0.52671 0.83316 0.0
C158 C 0.56294 0.48001 0.77822 0.0
C159 C 0.50013 0.55545 0.77232 0.0
C160 C 0.49561 0.56134 0.81059 0.0
C161 C 0.53268 0.51413 0.7555 0.0
C162 C 0.55851 0.48618 0.817 0.0
C163 C 0.51381 0.53452 0.87312 0.0
O164 O 0.44088 0.52491 0.97808 0.0
O165 O 0.527 0.59095 0.98022 0.0
O166 O 0.56221 0.56227 0.89323 0.0
O167 O 0.47571 0.49555 0.89058 0.0
H168 H 0.43144 0.6356 0.93538 0.0
H169 H 0.35909 0.70687 0.94052 0.0
H170 H 0.32684 0.67456 0.05651 0.0
H171 H 0.4012 0.60575 0.05129 0.0
H172 H 0.74673 0.37491 0.03972 0.0
H173 H 0.68046 0.44607 0.0262 0.0
H174 H 0.68447 0.2871 0.93649 0.0
H175 H 0.61878 0.35991 0.9228 0.0
H176 H 0.5884 0.4478 0.76608 0.0
H177 H 0.47782 0.58349 0.7559 0.0
H178 H 0.46908 0.59299 0.82266 0.0
H179 H 0.58094 0.45913 0.83417 0.0
C180 C 0.40718 0.38505 0.06317 0.0
C181 C 0.38618 0.3537 0.09381 0.0
C182 C 0.31154 0.28966 0.05399 0.0
C183 C 0.33823 0.30623 0.08924 0.0
C184 C 0.33321 0.32134 0.02362 0.0
C185 C 0.3804 0.36862 0.02823 0.0
U186 U 0.52598 0.51373 0.10694 0.0
O187 O 0.542 0.59424 0.08108 0.0
O188 O 0.62335 0.54446 0.08234 0.0
C189 C 0.60303 0.58915 0.07098 0.0
C190 C 0.4568 0.43509 0.06567 0.0
C191 C 0.6518 0.63935 0.06806 0.0
C192 C 0.72281 0.69869 0.02734 0.0
C193 C 0.67786 0.65091 0.03281 0.0
C194 C 0.71763 0.72394 0.09282 0.0
C195 C 0.74311 0.73581 0.05716 0.0
C196 C 0.6717 0.67597 0.09824 0.0
C197 C 0.51507 0.51847 0.21943 0.0
C198 C 0.57026 0.54134 0.27841 0.0
C199 C 0.45435 0.49966 0.27678 0.0
C200 C 0.45606 0.49882 0.2381 0.0
C201 C 0.51151 0.52082 0.29739 0.0
C202 C 0.5721 0.53978 0.23976 0.0
C203 C 0.51736 0.51614 0.17883 0.0
O204 O 0.43541 0.48151 0.07561 0.0
O205 O 0.51547 0.43108 0.07905 0.0
O206 O 0.56243 0.49237 0.1606 0.0
O207 O 0.47678 0.53903 0.15858 0.0
H208 H 0.40662 0.36588 0.12099 0.0
H209 H 0.32244 0.28224 0.11305 0.0
H210 H 0.31285 0.31001 0.99631 0.0
H211 H 0.39602 0.39258 1.00435 0.0
H212 H 0.74237 0.70628 0.99975 0.0
H213 H 0.6631 0.62287 0.00927 0.0
H214 H 0.73255 0.75208 0.11625 0.0
H215 H 0.65177 0.66761 0.12566 0.0
H216 H 0.61483 0.55879 0.29343 0.0
H217 H 0.40867 0.48274 0.29051 0.0
H218 H 0.41167 0.48186 0.22275 0.0
H219 H 0.61796 0.55554 0.22574 0.0
C220 C 0.15287 0.18827 0.06424 0.0
C221 C 0.15915 0.14947 0.03511 0.0
H222 H 0.19744 0.26244 0.09375 0.0
C223 C 0.21647 0.15598 0.01289 0.0
H224 H 0.10947 0.1834 0.08212 0.0
C225 C 0.26621 0.2014 0.0192 0.0
C226 C 0.26023 0.24021 0.04849 0.0
H227 H 0.22243 0.12625 0.99044 0.0
H228 H 0.30964 0.20603 1.00135 0.0
C229 C 0.2034 0.23295 0.07117 0.0
C230 C 0.25742 0.81777 0.0383 0.0
C231 C 0.2191 0.82834 1.00843 0.0
H232 H 0.32678 0.76934 0.05834 0.0
C233 C 0.21599 0.79371 0.97635 0.0
H234 H 0.26155 0.84514 0.06283 0.0
C235 C 0.25239 0.74983 0.97367 0.0
C236 C 0.29369 0.74047 1.00286 0.0
H237 H 0.18716 0.80205 0.95288 0.0
H238 H 0.24909 0.72401 0.94844 0.0
C239 C 0.29479 0.77446 0.0355 0.0
C240 C 0.83074 0.86511 0.01342 0.0
C241 C 0.88873 0.87693 0.03461 0.0
H242 H 0.73919 0.81042 1.00381 0.0
C243 C 0.89754 0.84363 0.06415 0.0
H244 H 0.82284 0.89065 0.99073 0.0
C245 C 0.84907 0.7989 0.07236 0.0
C246 C 0.79176 0.78598 0.05058 0.0
H247 H 0.94148 0.85281 0.08128 0.0
H248 H 0.85714 0.77363 0.09516 0.0
C249 C 0.78307 0.81947 0.02099 0.0
C250 C 0.82464 0.20818 0.98463 0.0
C251 C 0.81935 0.19095 0.02126 0.0
H252 H 0.79731 0.26412 0.9456 0.0
C253 C 0.78293 0.21893 0.04706 0.0
H254 H 0.85211 0.18725 0.96407 0.0
C255 C 0.75122 0.26211 0.03652 0.0
C256 C 0.75545 0.27907 0.99988 0.0
H257 H 0.7787 0.20735 0.07559 0.0
H258 H 0.7223 0.28161 0.05712 0.0
C259 C 0.79267 0.25172 0.97398 0.0
C260 C 0.64762 0.69218 0.55895 0.0
C261 C 0.65822 0.64888 0.53383 0.0
H262 H 0.68888 0.76965 0.58569 0.0
C263 C 0.71995 0.65111 0.51583 0.0
H264 H 0.60075 0.69093 0.57362 0.0
C265 C 0.76998 0.69621 0.52247 0.0
C266 C 0.75976 0.73934 0.54788 0.0
H267 H 0.72943 0.61804 0.4965 0.0
H268 H 0.81701 0.6971 0.508 0.0
C269 C 0.69823 0.73675 0.56622 0.0
C270 C 0.71337 0.29104 0.52427 0.0
C271 C 0.74096 0.33989 0.50721 0.0
H272 H 0.72464 0.20762 0.53586 0.0
C273 C 0.80432 0.34225 0.49069 0.0
H274 H 0.66508 0.28766 0.53751 0.0
C275 C 0.83719 0.29653 0.489 0.0
C276 C 0.8088 0.24717 0.50462 0.0
H277 H 0.82914 0.37947 0.47865 0.0
H278 H 0.8854 0.30001 0.47555 0.0
C279 C 0.74731 0.24515 0.52319 0.0
C280 C 0.39814 0.34165 0.56361 0.0
C281 C 0.38894 0.375 0.53417 0.0
H282 H 0.35791 0.27183 0.59485 0.0
C283 C 0.33046 0.36341 0.51337 0.0
H284 H 0.4424 0.35073 0.5805 0.0
C285 C 0.28267 0.31798 0.52122 0.0
C286 C 0.29172 0.28445 0.55073 0.0
H287 H 0.32217 0.38908 0.49082 0.0
H288 H 0.23839 0.30917 0.50435 0.0
C289 C 0.34957 0.29712 0.57211 0.0
C290 C 0.32369 0.7074 0.48719 0.0
C291 C 0.31897 0.69053 0.52389 0.0
H292 H 0.29565 0.76251 0.44796 0.0
C293 C 0.28299 0.71897 0.54974 0.0
H294 H 0.35079 0.68629 0.46654 0.0
C295 C 0.25092 0.76205 0.53909 0.0
C296 C 0.25415 0.77818 0.50227 0.0
H297 H 0.27923 0.70775 0.57834 0.0
H298 H 0.22218 0.78179 0.55965 0.0
C299 C 0.29147 0.75068 0.47647 0.0
C300 C 0.97683 0.0214 0.15744 0.0
C301 C 0.03195 0.0073 0.13762 0.0
H302 H 0.93224 0.03375 0.2101 0.0
C303 C 0.08553 0.99302 0.15725 0.0
H304 H 0.93417 0.03173 0.14324 0.0
C305 C 0.08485 0.99501 0.19611 0.0
C306 C 0.0304 0.01102 0.21585 0.0
H307 H 0.12858 0.98176 0.14264 0.0
H308 H 0.12769 0.9858 0.21064 0.0
C309 C 0.97584 0.02278 0.19592 0.0
C310 C 0.0274 0.06591 0.89903 0.0
C311 C 1.01089 0.01638 0.91721 0.0
H312 H 0.04299 0.10398 0.84681 0.0
C313 C 0.99549 0.96637 0.89647 0.0
H314 H 0.04028 0.10476 0.91473 0.0
C315 C 0.9958 0.96592 0.85785 0.0
C316 C 1.01336 0.01535 0.83943 0.0
H317 H 0.98294 0.92773 0.91018 0.0
H318 H 0.98364 0.92682 0.84235 0.0
C319 C 0.02943 0.06534 0.86037 0.0
C320 C 0.59029 0.49432 0.65581 0.0
C321 C 0.53434 0.50417 0.63635 0.0
H322 H 0.6343 0.49051 0.70908 0.0
C323 C 0.4771 0.51332 0.65616 0.0
H324 H 0.63502 0.48702 0.64112 0.0
C325 C 0.47616 0.51414 0.6946 0.0
C326 C 0.53291 0.507 0.71444 0.0
H327 H 0.4327 0.52003 0.64196 0.0
H328 H 0.43083 0.52102 0.70881 0.0
C329 C 0.58972 0.496 0.69464 0.0
C330 C 0.56424 0.50486 0.39581 0.0
C331 C 0.5094 0.51805 0.41637 0.0
H332 H 0.60777 0.49521 0.34238 0.0
C333 C 0.45504 0.53246 0.3977 0.0
H334 H 0.60705 0.49382 0.40945 0.0
C335 C 0.45542 0.53322 0.35902 0.0
C336 C 0.51053 0.52024 0.33844 0.0
H337 H 0.41205 0.54261 0.41292 0.0
H338 H 0.41292 0.54461 0.34529 0.0
C339 C 0.56492 0.50614 0.35734 0.0
loop_
_geom_bond_atom_site_label_1
_geom_bond_atom_site_label_2
_geom_bond_distance
_geom_bond_site_symmetry_2
_ccdc_geom_bond_type
Co0 N5 2.057 . S
Co0 O17 2.021 . S
Co0 O20 2.062 1_455 S
Co0 O24 2.117 1_554 S
Co0 O25 2.020 1_565 S
C1 O21 1.259 1_455 S
C1 O24 1.258 1_545 S
Co2 N11 2.057 . S
Co2 O18 2.117 . S
Co2 O19 2.020 1_545 S
Co2 O21 2.021 1_554 S
Co2 O26 2.062 1_655 S
C3 N5 1.316 . S
C3 N6 1.347 . S
C3 H8 0.931 . S
C4 N5 1.375 1_556 S
C4 C7 1.350 . S
C4 H9 0.930 . S
N5 Co0 2.057 . S
N5 C3 1.316 . S
N5 C4 1.375 1_554 S
N6 C3 1.347 . S
N6 C7 1.373 1_554 S
C7 C4 1.350 . S
C7 N6 1.373 1_556 S
C7 H28 0.931 . S
H8 C3 0.931 . S
H9 C4 0.930 . S
C10 O17 1.259 1_545 S
C10 O18 1.258 1_455 S
N11 Co2 2.057 . S
N11 C12 1.316 . S
N11 C13 1.375 . S
C12 N11 1.316 . S
C12 N14 1.347 . S
C12 H23 0.931 1_554 S
C13 N11 1.375 . S
C13 C15 1.350 . S
C13 H22 0.930 . S
N14 C12 1.347 . S
N14 C15 1.373 . S
C15 C13 1.350 . S
C15 N14 1.373 . S
C15 H29 0.931 . S
C16 O19 1.256 . S
C16 O20 1.255 . S
O17 Co0 2.021 . S
O17 C10 1.259 1_565 S
O18 Co2 2.117 . S
O18 C10 1.258 1_655 S
O19 Co2 2.020 1_565 S
O19 C16 1.256 . S
O20 Co0 2.062 1_655 S
O20 C16 1.255 . S
O21 C1 1.259 1_655 S
O21 Co2 2.021 1_556 S
H22 C13 0.930 . S
H23 C12 0.931 1_556 S
O24 Co0 2.117 1_556 S
O24 C1 1.258 1_565 S
O25 Co0 2.020 1_545 S
O25 C27 1.256 . S
O26 Co2 2.062 1_455 S
O26 C27 1.255 . S
C27 O25 1.256 . S
C27 O26 1.255 . S
H28 C7 0.931 . S
H29 C15 0.931 . S
Co30 N35 2.057 . S
Co30 O47 2.021 . S
Co30 O50 2.062 . S
Co30 O54 2.117 . S
Co30 O55 2.020 . S
C31 O51 1.259 . S
C31 O54 1.258 . S
Co32 N41 2.057 . S
Co32 O48 2.117 . S
Co32 O49 2.020 . S
Co32 O51 2.021 . S
Co32 O56 2.062 . S
C33 N35 1.316 . S
C33 N36 1.347 . S
C33 H38 0.931 . S
C34 N35 1.375 . S
C34 C37 1.350 . S
C34 H39 0.930 . S
N35 Co30 2.057 . S
N35 C33 1.316 . S
N35 C34 1.375 . S
N36 C33 1.347 . S
N36 C37 1.373 . S
C37 C34 1.350 . S
C37 N36 1.373 . S
C37 H58 0.931 . S
H38 C33 0.931 . S
H39 C34 0.930 . S
C40 O47 1.259 . S
C40 O48 1.258 . S
N41 Co32 2.057 . S
N41 C42 1.316 . S
N41 C43 1.375 . S
C42 N41 1.316 . S
C42 N44 1.347 . S
C42 H53 0.931 . S
C43 N41 1.375 . S
C43 C45 1.350 . S
C43 H52 0.930 . S
N44 C42 1.347 . S
N44 C45 1.373 . S
C45 C43 1.350 . S
C45 N44 1.373 . S
C45 H59 0.931 . S
C46 O49 1.256 . S
C46 O50 1.255 . S
O47 Co30 2.021 . S
O47 C40 1.259 . S
O48 Co32 2.117 . S
O48 C40 1.258 . S
O49 Co32 2.020 . S
O49 C46 1.256 . S
O50 Co30 2.062 . S
O50 C46 1.255 . S
O51 C31 1.259 . S
O51 Co32 2.021 . S
H52 C43 0.930 . S
H53 C42 0.931 . S
O54 Co30 2.117 . S
O54 C31 1.258 . S
O55 Co30 2.020 . S
O55 C57 1.256 . S
O56 Co32 2.062 . S
O56 C57 1.255 . S
C57 O55 1.256 . S
C57 O56 1.255 . S
H58 C37 0.931 . S
H59 C45 0.931 . S
C60 C61 1.264 . S
C60 C65 1.479 . S
C60 C70 1.465 . S
C61 C60 1.264 . S
C61 C63 1.339 . S
C61 H88 0.931 . S
C62 C63 1.395 . S
C62 C64 1.320 . S
C63 C61 1.339 . S
C63 C62 1.395 . S
C63 H89 0.929 . S
C64 C62 1.320 . S
C64 C65 1.405 . S
C64 H90 0.930 . S
C65 C60 1.479 . S
C65 C64 1.405 . S
C65 H91 0.931 . S
U66 O67 2.454 1_545 S
U66 O68 2.458 1_545 S
U66 C69 2.984 1_545 S
U66 C70 2.847 1_455 S
U66 C83 2.882 . S
U66 O84 2.441 1_455 S
U66 O85 2.420 1_455 S
U66 O86 2.455 1_545 S
U66 O87 2.449 . S
O67 U66 2.454 1_565 S
O67 C69 1.353 . S
O68 U66 2.458 1_565 S
O68 C69 1.286 . S
C69 U66 2.984 1_565 S
C69 O67 1.353 . S
C69 O68 1.286 . S
C69 C71 1.363 . S
C70 C60 1.465 . S
C70 U66 2.847 1_655 S
C70 O84 1.249 . S
C70 O85 1.202 . S
C71 C69 1.363 . S
C71 C73 1.408 . S
C71 C76 1.342 . S
C72 C73 1.310 . S
C72 C75 1.461 . S
C72 H92 0.932 . S
C73 C71 1.408 . S
C73 C72 1.310 . S
C73 H93 0.930 . S
C74 C75 1.474 . S
C74 C76 1.285 . S
C74 H94 0.929 . S
C75 C72 1.461 . S
C75 C74 1.474 . S
C76 C71 1.342 . S
C76 C74 1.285 . S
C76 H95 0.930 . S
C77 C80 1.424 1_455 S
C77 C82 1.245 1_545 S
C77 C83 1.428 . S
C78 C81 1.260 1_565 S
C78 C82 1.477 . S
C78 H96 0.932 . S
C79 C80 1.384 . S
C79 C81 1.479 1_655 S
C79 H97 0.929 . S
C80 C77 1.424 1_655 S
C80 C79 1.384 . S
C80 H98 0.928 . S
C81 C78 1.260 1_545 S
C81 C79 1.479 1_455 S
C82 C77 1.245 1_565 S
C82 C78 1.477 . S
C82 H99 0.932 . S
C83 U66 2.882 . S
C83 C77 1.428 . S
C83 O86 1.301 1_545 S
C83 O87 1.282 . S
O84 U66 2.441 1_655 S
O84 C70 1.249 . S
O85 U66 2.420 1_655 S
O85 C70 1.202 . S
O86 U66 2.455 1_565 S
O86 C83 1.301 1_565 S
O87 U66 2.449 . S
O87 C83 1.282 . S
H88 C61 0.931 . S
H89 C63 0.929 . S
H90 C64 0.930 . S
H91 C65 0.931 . S
H92 C72 0.932 . S
H93 C73 0.930 . S
H94 C74 0.929 . S
H95 C76 0.930 . S
H96 C78 0.932 . S
H97 C79 0.929 . S
H98 C80 0.928 . S
H99 C82 0.932 . S
C100 C101 1.264 . S
C100 C105 1.479 . S
C100 C110 1.465 . S
C101 C100 1.264 . S
C101 C103 1.339 . S
C101 H128 0.931 . S
C102 C103 1.395 . S
C102 C104 1.320 . S
C103 C101 1.339 . S
C103 C102 1.395 . S
C103 H129 0.929 . S
C104 C102 1.320 . S
C104 C105 1.405 . S
C104 H130 0.930 . S
C105 C100 1.479 . S
C105 C104 1.405 . S
C105 H131 0.931 . S
U106 O107 2.454 1_565 S
U106 O108 2.458 1_565 S
U106 C109 2.984 1_565 S
U106 C110 2.847 1_455 S
U106 C123 2.882 . S
U106 O124 2.441 1_455 S
U106 O125 2.420 1_455 S
U106 O126 2.455 1_565 S
U106 O127 2.449 . S
O107 U106 2.454 1_545 S
O107 C109 1.353 . S
O108 U106 2.458 1_545 S
O108 C109 1.286 . S
C109 U106 2.984 1_545 S
C109 O107 1.353 . S
C109 O108 1.286 . S
C109 C111 1.363 . S
C110 C100 1.465 . S
C110 U106 2.847 1_655 S
C110 O124 1.249 . S
C110 O125 1.202 . S
C111 C109 1.363 . S
C111 C113 1.408 . S
C111 C116 1.342 . S
C112 C113 1.310 . S
C112 C115 1.461 . S
C112 H132 0.932 . S
C113 C111 1.408 . S
C113 C112 1.310 . S
C113 H133 0.930 . S
C114 C115 1.474 . S
C114 C116 1.285 . S
C114 H134 0.929 . S
C115 C112 1.461 . S
C115 C114 1.474 . S
C116 C111 1.342 . S
C116 C114 1.285 . S
C116 H135 0.930 . S
C117 C120 1.424 1_445 S
C117 C122 1.245 . S
C117 C123 1.428 1_545 S
C118 C121 1.260 . S
C118 C122 1.477 . S
C118 H136 0.932 . S
C119 C120 1.384 . S
C119 C121 1.479 1_665 S
C119 H137 0.929 . S
C120 C117 1.424 1_665 S
C120 C119 1.384 . S
C120 H138 0.928 . S
C121 C118 1.260 . S
C121 C119 1.479 1_445 S
C122 C117 1.245 . S
C122 C118 1.477 . S
C122 H139 0.932 . S
C123 U106 2.882 . S
C123 C117 1.428 1_565 S
C123 O126 1.301 1_565 S
C123 O127 1.282 . S
O124 U106 2.441 1_655 S
O124 C110 1.249 . S
O125 U106 2.420 1_655 S
O125 C110 1.202 . S
O126 U106 2.455 1_545 S
O126 C123 1.301 1_545 S
O127 U106 2.449 . S
O127 C123 1.282 . S
H128 C101 0.931 . S
H129 C103 0.929 . S
H130 C104 0.930 . S
H131 C105 0.931 . S
H132 C112 0.932 . S
H133 C113 0.930 . S
H134 C114 0.929 . S
H135 C116 0.930 . S
H136 C118 0.932 . S
H137 C119 0.929 . S
H138 C120 0.928 . S
H139 C122 0.932 . S
C140 C141 1.264 . S
C140 C145 1.479 1_556 S
C140 C150 1.465 . S
C141 C140 1.264 . S
C141 C143 1.339 . S
C141 H168 0.931 . S
C142 C143 1.395 1_554 S
C142 C144 1.320 . S
C143 C141 1.339 . S
C143 C142 1.395 1_556 S
C143 H169 0.929 . S
C144 C142 1.320 . S
C144 C145 1.405 . S
C144 H170 0.930 . S
C145 C140 1.479 1_554 S
C145 C144 1.405 . S
C145 H171 0.931 . S
U146 O147 2.454 . S
U146 O148 2.458 . S
U146 C149 2.984 . S
U146 C150 2.847 . S
U146 C163 2.882 . S
U146 O164 2.441 . S
U146 O165 2.420 . S
U146 O166 2.455 . S
U146 O167 2.449 . S
O147 U146 2.454 . S
O147 C149 1.353 . S
O148 U146 2.458 . S
O148 C149 1.286 . S
C149 U146 2.984 . S
C149 O147 1.353 . S
C149 O148 1.286 . S
C149 C151 1.363 . S
C150 C140 1.465 . S
C150 U146 2.847 . S
C150 O164 1.249 . S
C150 O165 1.202 . S
C151 C149 1.363 . S
C151 C153 1.408 1_556 S
C151 C156 1.342 . S
C152 C153 1.310 . S
C152 C155 1.461 . S
C152 H172 0.932 . S
C153 C151 1.408 1_554 S
C153 C152 1.310 . S
C153 H173 0.930 . S
C154 C155 1.474 1_556 S
C154 C156 1.285 . S
C154 H174 0.929 . S
C155 C152 1.461 . S
C155 C154 1.474 1_554 S
C156 C151 1.342 . S
C156 C154 1.285 . S
C156 H175 0.930 . S
C157 C160 1.424 . S
C157 C162 1.245 . S
C157 C163 1.428 . S
C158 C161 1.260 . S
C158 C162 1.477 . S
C158 H176 0.932 . S
C159 C160 1.384 . S
C159 C161 1.479 . S
C159 H177 0.929 . S
C160 C157 1.424 . S
C160 C159 1.384 . S
C160 H178 0.928 . S
C161 C158 1.260 . S
C161 C159 1.479 . S
C162 C157 1.245 . S
C162 C158 1.477 . S
C162 H179 0.932 . S
C163 U146 2.882 . S
C163 C157 1.428 . S
C163 O166 1.301 . S
C163 O167 1.282 . S
O164 U146 2.441 . S
O164 C150 1.249 . S
O165 U146 2.420 . S
O165 C150 1.202 . S
O166 U146 2.455 . S
O166 C163 1.301 . S
O167 U146 2.449 . S
O167 C163 1.282 . S
H168 C141 0.931 . S
H169 C143 0.929 . S
H170 C144 0.930 . S
H171 C145 0.931 . S
H172 C152 0.932 . S
H173 C153 0.930 . S
H174 C154 0.929 . S
H175 C156 0.930 . S
H176 C158 0.932 . S
H177 C159 0.929 . S
H178 C160 0.928 . S
H179 C162 0.932 . S
C180 C181 1.264 . S
C180 C185 1.479 . S
C180 C190 1.465 . S
C181 C180 1.264 . S
C181 C183 1.339 . S
C181 H208 0.931 . S
C182 C183 1.395 . S
C182 C184 1.320 1_554 S
C183 C181 1.339 . S
C183 C182 1.395 . S
C183 H209 0.929 . S
C184 C182 1.320 1_556 S
C184 C185 1.405 1_556 S
C184 H210 0.930 . S
C185 C180 1.479 . S
C185 C184 1.405 1_554 S
C185 H211 0.931 1_554 S
U186 O187 2.454 . S
U186 O188 2.458 . S
U186 C189 2.984 . S
U186 C190 2.847 . S
U186 C203 2.882 . S
U186 O204 2.441 . S
U186 O205 2.420 . S
U186 O206 2.455 . S
U186 O207 2.449 . S
O187 U186 2.454 . S
O187 C189 1.353 . S
O188 U186 2.458 . S
O188 C189 1.286 . S
C189 U186 2.984 . S
C189 O187 1.353 . S
C189 O188 1.286 . S
C189 C191 1.363 . S
C190 C180 1.465 . S
C190 U186 2.847 . S
C190 O204 1.249 . S
C190 O205 1.202 . S
C191 C189 1.363 . S
C191 C193 1.408 . S
C191 C196 1.342 . S
C192 C193 1.310 1_556 S
C192 C195 1.461 1_556 S
C192 H212 0.932 . S
C193 C191 1.408 . S
C193 C192 1.310 1_554 S
C193 H213 0.930 1_554 S
C194 C195 1.474 . S
C194 C196 1.285 . S
C194 H214 0.929 . S
C195 C192 1.461 1_554 S
C195 C194 1.474 . S
C196 C191 1.342 . S
C196 C194 1.285 . S
C196 H215 0.930 . S
C197 C200 1.424 . S
C197 C202 1.245 . S
C197 C203 1.428 . S
C198 C201 1.260 . S
C198 C202 1.477 . S
C198 H216 0.932 . S
C199 C200 1.384 . S
C199 C201 1.479 . S
C199 H217 0.929 . S
C200 C197 1.424 . S
C200 C199 1.384 . S
C200 H218 0.928 . S
C201 C198 1.260 . S
C201 C199 1.479 . S
C202 C197 1.245 . S
C202 C198 1.477 . S
C202 H219 0.932 . S
C203 U186 2.882 . S
C203 C197 1.428 . S
C203 O206 1.301 . S
C203 O207 1.282 . S
O204 U186 2.441 . S
O204 C190 1.249 . S
O205 U186 2.420 . S
O205 C190 1.202 . S
O206 U186 2.455 . S
O206 C203 1.301 . S
O207 U186 2.449 . S
O207 C203 1.282 . S
H208 C181 0.931 . S
H209 C183 0.929 . S
H210 C184 0.930 . S
H211 C185 0.931 1_556 S
H212 C192 0.932 . S
H213 C193 0.930 1_556 S
H214 C194 0.929 . S
H215 C196 0.930 . S
H216 C198 0.932 . S
H217 C199 0.929 . S
H218 C200 0.928 . S
H219 C202 0.932 . S
C220 C221 1.387 . S
C220 H224 0.950 . S
C220 C229 1.390 . S
C221 C220 1.387 . S
C221 C223 1.387 1_554 S
H222 C229 0.950 . S
C223 C221 1.387 1_556 S
C223 C225 1.390 . S
C223 H227 0.950 . S
H224 C220 0.950 . S
C225 C223 1.390 . S
C225 C226 1.387 1_556 S
C225 H228 0.950 . S
C226 C225 1.387 1_554 S
C226 C229 1.387 . S
H227 C223 0.950 . S
H228 C225 0.950 . S
C229 C220 1.390 . S
C229 H222 0.950 . S
C229 C226 1.387 . S
C230 C231 1.387 . S
C230 H234 0.950 . S
C230 C239 1.390 . S
C231 C230 1.387 . S
C231 C233 1.387 1_554 S
H232 C239 0.950 . S
C233 C231 1.387 1_556 S
C233 C235 1.390 . S
C233 H237 0.950 . S
H234 C230 0.950 . S
C235 C233 1.390 . S
C235 C236 1.387 1_556 S
C235 H238 0.950 . S
C236 C235 1.387 1_554 S
C236 C239 1.387 . S
H237 C233 0.950 . S
H238 C235 0.950 . S
C239 C230 1.390 . S
C239 H232 0.950 . S
C239 C236 1.387 . S
C240 C241 1.387 1_556 S
C240 H244 0.950 . S
C240 C249 1.390 . S
C241 C240 1.387 1_554 S
C241 C243 1.387 . S
H242 C249 0.950 . S
C243 C241 1.387 . S
C243 C245 1.390 . S
C243 H247 0.950 . S
H244 C240 0.950 . S
C245 C243 1.390 . S
C245 C246 1.387 . S
C245 H248 0.950 . S
C246 C245 1.387 . S
C246 C249 1.387 1_554 S
H247 C243 0.950 . S
H248 C245 0.950 . S
C249 C240 1.390 . S
C249 H242 0.950 . S
C249 C246 1.387 1_556 S
C250 C251 1.387 1_556 S
C250 H254 0.950 . S
C250 C259 1.390 . S
C251 C250 1.387 1_554 S
C251 C253 1.387 . S
H252 C259 0.950 . S
C253 C251 1.387 . S
C253 C255 1.390 . S
C253 H257 0.950 . S
H254 C250 0.950 . S
C255 C253 1.390 . S
C255 C256 1.387 . S
C255 H258 0.950 . S
C256 C255 1.387 . S
C256 C259 1.387 1_554 S
H257 C253 0.950 . S
H258 C255 0.950 . S
C259 C250 1.390 . S
C259 H252 0.950 . S
C259 C256 1.387 1_556 S
C260 C261 1.387 . S
C260 H264 0.950 . S
C260 C269 1.390 . S
C261 C260 1.387 . S
C261 C263 1.387 . S
H262 C269 0.950 . S
C263 C261 1.387 . S
C263 C265 1.390 . S
C263 H267 0.950 . S
H264 C260 0.950 . S
C265 C263 1.390 . S
C265 C266 1.387 . S
C265 H268 0.950 . S
C266 C265 1.387 . S
C266 C269 1.387 . S
H267 C263 0.950 . S
H268 C265 0.950 . S
C269 C260 1.390 . S
C269 H262 0.950 . S
C269 C266 1.387 . S
C270 C271 1.387 . S
C270 H274 0.950 . S
C270 C279 1.390 . S
C271 C270 1.387 . S
C271 C273 1.387 . S
H272 C279 0.950 . S
C273 C271 1.387 . S
C273 C275 1.390 . S
C273 H277 0.950 . S
H274 C270 0.950 . S
C275 C273 1.390 . S
C275 C276 1.387 . S
C275 H278 0.950 . S
C276 C275 1.387 . S
C276 C279 1.387 . S
H277 C273 0.950 . S
H278 C275 0.950 . S
C279 C270 1.390 . S
C279 H272 0.950 . S
C279 C276 1.387 . S
C280 C281 1.387 . S
C280 H284 0.950 . S
C280 C289 1.390 . S
C281 C280 1.387 . S
C281 C283 1.387 . S
H282 C289 0.950 . S
C283 C281 1.387 . S
C283 C285 1.390 . S
C283 H287 0.950 . S
H284 C280 0.950 . S
C285 C283 1.390 . S
C285 C286 1.387 . S
C285 H288 0.950 . S
C286 C285 1.387 . S
C286 C289 1.387 . S
H287 C283 0.950 . S
H288 C285 0.950 . S
C289 C280 1.390 . S
C289 H282 0.950 . S
C289 C286 1.387 . S
C290 C291 1.387 . S
C290 H294 0.950 . S
C290 C299 1.390 . S
C291 C290 1.387 . S
C291 C293 1.387 . S
H292 C299 0.950 . S
C293 C291 1.387 . S
C293 C295 1.390 . S
C293 H297 0.950 . S
H294 C290 0.950 . S
C295 C293 1.390 . S
C295 C296 1.387 . S
C295 H298 0.950 . S
C296 C295 1.387 . S
C296 C299 1.387 . S
H297 C293 0.950 . S
H298 C295 0.950 . S
C299 C290 1.390 . S
C299 H292 0.950 . S
C299 C296 1.387 . S
C300 C301 1.387 1_655 S
C300 H304 0.950 . S
C300 C309 1.390 . S
C301 C300 1.387 1_455 S
C301 C303 1.387 1_545 S
H302 C309 0.950 . S
C303 C301 1.387 1_565 S
C303 C305 1.390 . S
C303 H307 0.950 . S
H304 C300 0.950 . S
C305 C303 1.390 . S
C305 C306 1.387 1_565 S
C305 H308 0.950 . S
C306 C305 1.387 1_545 S
C306 C309 1.387 1_455 S
H307 C303 0.950 . S
H308 C305 0.950 . S
C309 C300 1.390 . S
C309 H302 0.950 . S
C309 C306 1.387 1_655 S
C310 C311 1.387 . S
C310 H314 0.950 . S
C310 C319 1.390 . S
C311 C310 1.387 . S
C311 C313 1.387 1_445 S
H312 C319 0.950 . S
C313 C311 1.387 1_665 S
C313 C315 1.390 . S
C313 H317 0.950 . S
H314 C310 0.950 . S
C315 C313 1.390 . S
C315 C316 1.387 1_665 S
C315 H318 0.950 . S
C316 C315 1.387 1_445 S
C316 C319 1.387 . S
H317 C313 0.950 . S
H318 C315 0.950 . S
C319 C310 1.390 . S
C319 H312 0.950 . S
C319 C316 1.387 . S
C320 C321 1.387 . S
C320 H324 0.950 . S
C320 C329 1.390 . S
C321 C320 1.387 . S
C321 C323 1.387 . S
H322 C329 0.950 . S
C323 C321 1.387 . S
C323 C325 1.390 . S
C323 H327 0.950 . S
H324 C320 0.950 . S
C325 C323 1.390 . S
C325 C326 1.387 . S
C325 H328 0.950 . S
C326 C325 1.387 . S
C326 C329 1.387 . S
H327 C323 0.950 . S
H328 C325 0.950 . S
C329 C320 1.390 . S
C329 H322 0.950 . S
C329 C326 1.387 . S
C330 C331 1.387 . S
C330 H334 0.950 . S
C330 C339 1.390 . S
C331 C330 1.387 . S
C331 C333 1.387 . S
H332 C339 0.950 . S
C333 C331 1.387 . S
C333 C335 1.390 . S
C333 H337 0.950 . S
H334 C330 0.950 . S
C335 C333 1.390 . S
C335 C336 1.387 . S
C335 H338 0.950 . S
C336 C335 1.387 . S
C336 C339 1.387 . S
H337 C333 0.950 . S
H338 C335 0.950 . S
C339 C330 1.390 . S
C339 H332 0.950 . S
C339 C336 1.387 . S
C226 C182 1.597 . S
C221 C27 1.664 . S
C231 N6 1.570 . S
C236 C142 1.532 . S
C241 C16 1.639 . S
C246 C195 1.559 . S
C251 N14 1.519 . S
C256 C155 1.505 . S
C261 C57 1.664 . S
C266 C102 1.596 . S
C271 N36 1.571 . S
C276 C62 1.533 . S
C286 C115 1.559 . S
C281 C46 1.639 . S
C296 C75 1.505 . S
C291 N44 1.517 . S
C301 C10 1.396 . S
C306 C81 1.386 . S
C311 C1 1.533 . S
C316 C121 1.523 . S
C326 C161 1.384 . S
C321 C40 1.396 . S
C331 C31 1.534 . S
C336 C201 1.523 . S
