# Generated by pormake.
# Topology wbl, (4,4)-cn, num edge types: 1
# Building blocks:
#     Node 0, Type 0, BuildingBlock: MUDLON_clean_sbu_0, # of connection points: 4
#     Node 1, Type 0, BuildingBlock: MUDLON_clean_sbu_0, # of connection points: 4
#     Node 2, Type 0, BuildingBlock: MUDLON_clean_sbu_0, # of connection points: 4
#     Node 3, Type 0, BuildingBlock: MUDLON_clean_sbu_0, # of connection points: 4
#     Node 4, Type 0, BuildingBlock: MUDLON_clean_sbu_0, # of connection points: 4
#     Node 5, Type 0, BuildingBlock: MUDLON_clean_sbu_0, # of connection points: 4
#     Node 6, Type 0, BuildingBlock: MUDLON_clean_sbu_0, # of connection points: 4
#     Node 7, Type 0, BuildingBlock: MUDLON_clean_sbu_0, # of connection points: 4
#     Node 8, Type 1, BuildingBlock: KUFVIS_clean_sbu_0, # of connection points: 4
#     Node 9, Type 1, BuildingBlock: KUFVIS_clean_sbu_0, # of connection points: 4
#     Node 10, Type 1, BuildingBlock: KUFVIS_clean_sbu_0, # of connection points: 4
#     Node 11, Type 1, BuildingBlock: KUFVIS_clean_sbu_0, # of connection points: 4
#     Node 12, Type 1, BuildingBlock: KUFVIS_clean_sbu_0, # of connection points: 4
#     Node 13, Type 1, BuildingBlock: KUFVIS_clean_sbu_0, # of connection points: 4
#     Node 14, Type 1, BuildingBlock: KUFVIS_clean_sbu_0, # of connection points: 4
#     Node 15, Type 1, BuildingBlock: KUFVIS_clean_sbu_0, # of connection points: 4
#     Edge 16, Type (0, 1), BuildingBlock: UVAHIK_clean_linker_0, # of connection points: 2
#     Edge 17, Type (0, 1), BuildingBlock: UVAHIK_clean_linker_0, # of connection points: 2
#     Edge 18, Type (0, 1), BuildingBlock: UVAHIK_clean_linker_0, # of connection points: 2
#     Edge 19, Type (0, 1), BuildingBlock: UVAHIK_clean_linker_0, # of connection points: 2
#     Edge 20, Type (0, 1), BuildingBlock: UVAHIK_clean_linker_0, # of connection points: 2
#     Edge 21, Type (0, 1), BuildingBlock: UVAHIK_clean_linker_0, # of connection points: 2
#     Edge 22, Type (0, 1), BuildingBlock: UVAHIK_clean_linker_0, # of connection points: 2
#     Edge 23, Type (0, 1), BuildingBlock: UVAHIK_clean_linker_0, # of connection points: 2
#     Edge 24, Type (0, 1), BuildingBlock: UVAHIK_clean_linker_0, # of connection points: 2
#     Edge 25, Type (0, 1), BuildingBlock: UVAHIK_clean_linker_0, # of connection points: 2
#     Edge 26, Type (0, 1), BuildingBlock: UVAHIK_clean_linker_0, # of connection points: 2
#     Edge 27, Type (0, 1), BuildingBlock: UVAHIK_clean_linker_0, # of connection points: 2
#     Edge 28, Type (0, 1), BuildingBlock: UVAHIK_clean_linker_0, # of connection points: 2
#     Edge 29, Type (0, 1), BuildingBlock: UVAHIK_clean_linker_0, # of connection points: 2
#     Edge 30, Type (0, 1), BuildingBlock: UVAHIK_clean_linker_0, # of connection points: 2
#     Edge 31, Type (0, 1), BuildingBlock: UVAHIK_clean_linker_0, # of connection points: 2
#     Edge 32, Type (0, 1), BuildingBlock: UVAHIK_clean_linker_0, # of connection points: 2
#     Edge 33, Type (0, 1), BuildingBlock: UVAHIK_clean_linker_0, # of connection points: 2
#     Edge 34, Type (0, 1), BuildingBlock: UVAHIK_clean_linker_0, # of connection points: 2
#     Edge 35, Type (0, 1), BuildingBlock: UVAHIK_clean_linker_0, # of connection points: 2
#     Edge 36, Type (0, 1), BuildingBlock: UVAHIK_clean_linker_0, # of connection points: 2
#     Edge 37, Type (0, 1), BuildingBlock: UVAHIK_clean_linker_0, # of connection points: 2
#     Edge 38, Type (0, 1), BuildingBlock: UVAHIK_clean_linker_0, # of connection points: 2
#     Edge 39, Type (0, 1), BuildingBlock: UVAHIK_clean_linker_0, # of connection points: 2
#     Edge 40, Type (0, 1), BuildingBlock: UVAHIK_clean_linker_0, # of connection points: 2
#     Edge 41, Type (0, 1), BuildingBlock: UVAHIK_clean_linker_0, # of connection points: 2
#     Edge 42, Type (0, 1), BuildingBlock: UVAHIK_clean_linker_0, # of connection points: 2
#     Edge 43, Type (0, 1), BuildingBlock: UVAHIK_clean_linker_0, # of connection points: 2
#     Edge 44, Type (0, 1), BuildingBlock: UVAHIK_clean_linker_0, # of connection points: 2
#     Edge 45, Type (0, 1), BuildingBlock: UVAHIK_clean_linker_0, # of connection points: 2
#     Edge 46, Type (0, 1), BuildingBlock: UVAHIK_clean_linker_0, # of connection points: 2
#     Edge 47, Type (0, 1), BuildingBlock: UVAHIK_clean_linker_0, # of connection points: 2
# Relax obj value: 0.226
# Max RMSD: 0.214
# Mean RMSD: 0.170
data_MOF--net-wbl--node1-MUDLON_clean_sbu_0--node2-KUFVIS_clean_sbu_0--edge1-UVAHIK_clean_linker_0
_symmetry_space_group_name_H-M    P1
_symmetry_Int_Tables_number       1
_symmetry_cell_setting            triclinic
loop_
_symmetry_equiv_pos_as_xyz
'x, y, z'
_cell_length_a     44.64847
_cell_length_b     44.64738
_cell_length_c     96.090493
_cell_angle_alpha  90.020511
_cell_angle_beta   90.520153
_cell_angle_gamma 89.894424
loop_
_atom_site_label
_atom_site_type_symbol
_atom_site_fract_x
_atom_site_fract_y
_atom_site_fract_z
_atom_type_partial_charge
Mg0 Mg 0.03117 0.04545 0.34719 0.0
C1 C 0.02181 0.98804 0.36405 0.0
O2 O 0.99657 0.00115 0.36747 0.0
C3 C 0.99063 0.07753 0.32828 0.0
O4 O 0.01017 0.09789 0.33222 0.0
C5 C 0.07988 0.03713 0.32744 0.0
O6 O 0.06264 0.01358 0.32566 0.0
O7 O 0.07217 0.05674 0.33633 0.0
O8 O 0.03849 1.00037 0.35507 0.0
O9 O 0.02135 0.07254 0.36551 0.0
C10 C 0.99383 0.07338 0.36884 0.0
O11 O 0.97414 0.06047 0.36057 0.0
O12 O 0.99388 0.05089 0.33274 0.0
Mg13 Mg 0.13151 0.50555 0.59402 0.0
C14 C 0.11628 0.56727 0.60377 0.0
O15 O 0.13413 0.57459 0.59354 0.0
C16 C 0.11358 0.44677 0.58215 0.0
O17 O 0.14171 0.44167 0.58553 0.0
C18 C 0.18367 0.53895 0.57948 0.0
O19 O 0.19702 0.53868 0.59171 0.0
O20 O 0.1588 0.52549 0.57792 0.0
O21 O 0.10642 0.54062 0.60428 0.0
O22 O 0.15326 0.48602 0.61217 0.0
C23 C 0.16355 0.50371 0.62144 0.0
O24 O 0.16836 0.53179 0.6181 0.0
O25 O 0.10245 0.47243 0.58461 0.0
Mg26 Mg 0.6336 0.59754 0.83069 0.0
C27 C 0.61137 0.65039 0.84598 0.0
O28 O 0.58631 0.63669 0.84262 0.0
C29 C 0.68364 0.58638 0.80873 0.0
O30 O 0.66516 0.59908 0.79978 0.0
C31 C 0.58377 0.61593 0.81084 0.0
O32 O 0.5992 0.64096 0.81117 0.0
O33 O 0.59363 0.59338 0.81757 0.0
O34 O 0.6356 0.64144 0.84048 0.0
O35 O 0.62918 0.57145 0.84962 0.0
C36 C 0.64833 0.5797 0.85872 0.0
O37 O 0.66911 0.59889 0.85508 0.0
O38 O 0.67589 0.58372 0.82137 0.0
Mg39 Mg 0.53029 0.13222 0.08018 0.0
C40 C 0.58611 0.13872 0.09979 0.0
O41 O 0.60193 0.14412 0.08862 0.0
C42 C 0.53226 0.08859 0.05545 0.0
O43 O 0.52402 0.1122 0.0482 0.0
C44 C 0.56283 0.17603 0.06179 0.0
O45 O 0.58022 0.1525 0.06026 0.0
O46 O 0.53913 0.1735 0.06893 0.0
O47 O 0.55845 0.1325 0.0986 0.0
O48 O 0.48691 0.13176 0.09016 0.0
C49 C 0.47399 0.10687 0.09238 0.0
O50 O 0.48402 0.08276 0.08609 0.0
O51 O 0.53696 0.09121 0.06846 0.0
Mg52 Mg 0.13537 0.52846 0.94977 0.0
C53 C 0.11253 0.55355 0.9229 0.0
O54 O 0.09375 0.53133 0.92476 0.0
C55 C 0.07926 0.55298 0.96363 0.0
O56 O 0.08431 0.57566 0.95527 0.0
C57 C 0.18343 0.56502 0.96266 0.0
O58 O 0.16285 0.58517 0.95969 0.0
O59 O 0.17792 0.53766 0.96002 0.0
O60 O 0.13131 0.55963 0.93251 0.0
O61 O 0.13426 0.48569 0.93899 0.0
C62 C 0.11 0.47081 0.93897 0.0
O63 O 0.08877 0.47876 0.94761 0.0
O64 O 0.09752 0.53111 0.9638 0.0
Mg65 Mg 0.60811 0.64014 0.19899 0.0
C66 C 0.57181 0.66486 0.17607 0.0
O67 O 0.58454 0.68872 0.1815 0.0
C68 C 0.61472 0.59379 0.2228 0.0
O69 O 0.62066 0.61736 0.23053 0.0
C70 C 0.57366 0.68602 0.21539 0.0
O71 O 0.55236 0.66663 0.21254 0.0
O72 O 0.60026 0.68011 0.21159 0.0
O73 O 0.57548 0.6398 0.18214 0.0
O74 O 0.64819 0.64369 0.1865 0.0
C75 C 0.66435 0.62077 0.18417 0.0
O76 O 0.66006 0.59645 0.19157 0.0
O77 O 0.60818 0.59738 0.20999 0.0
Mg78 Mg 0.51388 0.12991 0.43432 0.0
C79 C 0.57234 0.1151 0.42106 0.0
O80 O 0.58226 0.13341 0.43075 0.0
C81 C 0.4561 0.11063 0.4471 0.0
O82 O 0.45088 0.13943 0.44561 0.0
C83 C 0.54931 0.1778 0.45156 0.0
O84 O 0.54746 0.19514 0.44055 0.0
O85 O 0.53686 0.15222 0.45137 0.0
O86 O 0.54584 0.10507 0.42205 0.0
O87 O 0.49433 0.15668 0.41767 0.0
C88 C 0.51256 0.16851 0.40918 0.0
O89 O 0.54045 0.17238 0.41322 0.0
O90 O 0.48091 0.09999 0.44299 0.0
Mg91 Mg 0.06599 0.02612 0.68562 0.0
C92 C 0.09526 0.03244 0.65792 0.0
O93 O 0.07486 0.05364 0.65712 0.0
C94 C 0.05876 0.09271 0.69122 0.0
O95 O 0.04362 0.09102 0.67946 0.0
C96 C 0.09203 0.99086 0.7092 0.0
O97 O 0.10942 0.01458 0.70926 0.0
O98 O 0.07052 0.98964 0.70045 0.0
O99 O 0.09856 0.01837 0.66934 0.0
O100 O 0.02405 0.02476 0.67404 0.0
C101 C 0.99914 0.0367 0.67716 0.0
O102 O 0.99606 0.04965 0.68934 0.0
O103 O 0.07134 0.06926 0.69602 0.0
Mn104 Mn 0.51039 0.73348 0.00958 0.0
Mn105 Mn 0.5378 0.66319 0.01221 0.0
C106 C 0.5143 0.71104 0.03115 0.0
C107 C 0.51859 0.78497 0.00853 0.0
C108 C 0.47419 0.67716 0.0027 0.0
O109 O 0.5294 0.72657 0.99071 0.0
O110 O 0.55022 0.68112 0.99415 0.0
C111 C 0.60171 0.68002 0.01444 0.0
N112 N 0.57764 0.66512 0.01958 0.0
C113 C 0.60608 0.64839 0.03951 0.0
C114 C 0.63127 0.66324 0.03434 0.0
C115 C 0.62897 0.67938 0.02182 0.0
C116 C 0.57941 0.65007 0.03176 0.0
H117 H 0.6 0.69256 0.00486 0.0
C118 C 0.54529 0.70447 0.9867 0.0
O119 O 0.49415 0.77314 0.00359 0.0
O120 O 0.53849 0.76681 0.01368 0.0
N121 N 0.52806 0.6429 0.02913 0.0
C122 C 0.50107 0.63206 0.03328 0.0
C123 C 0.49915 0.61646 0.04593 0.0
C124 C 0.525 0.61195 0.05411 0.0
C125 C 0.55261 0.62291 0.04951 0.0
C126 C 0.55321 0.638 0.03674 0.0
H127 H 0.48111 0.63548 0.02706 0.0
O128 O 0.49676 0.73388 0.02927 0.0
O129 O 0.52978 0.70255 0.02042 0.0
O130 O 0.47595 0.70553 0.00421 0.0
O131 O 0.4962 0.65935 0.00499 0.0
C132 C 0.57942 0.62004 0.05725 0.0
C133 C 0.60613 0.63286 0.05227 0.0
H134 H 0.65238 0.66275 0.03998 0.0
H135 H 0.64823 0.69119 0.01784 0.0
H136 H 0.47776 0.60806 0.04941 0.0
H137 H 0.52336 0.60025 0.06394 0.0
H138 H 0.57963 0.60855 0.06718 0.0
H139 H 0.62646 0.63106 0.05845 0.0
Mn140 Mn 0.41991 0.02151 0.26043 0.0
Mn141 Mn 0.4887 0.04896 0.25409 0.0
C142 C 0.45 0.03815 0.2786 0.0
C143 C 0.36852 0.02891 0.26323 0.0
C144 C 0.47377 0.98249 0.25293 0.0
O145 O 0.41827 0.03052 0.23962 0.0
O146 O 0.46341 0.05257 0.23699 0.0
C147 C 0.47266 0.1128 0.25014 0.0
N148 N 0.4888 0.09135 0.25696 0.0
C149 C 0.5116 0.12818 0.27195 0.0
C150 C 0.49531 0.15064 0.26504 0.0
C151 C 0.47581 0.14292 0.25407 0.0
C152 C 0.50767 0.09855 0.26752 0.0
H153 H 0.45727 0.10693 0.24186 0.0
C154 C 0.43767 0.04433 0.23231 0.0
O155 O 0.37934 0.00277 0.26006 0.0
O156 O 0.38742 0.05085 0.26416 0.0
N157 N 0.51484 0.04717 0.26998 0.0
C158 C 0.52686 0.02263 0.27636 0.0
C159 C 0.54613 0.02643 0.28786 0.0
C160 C 0.55287 0.05539 0.29266 0.0
C161 C 0.54033 0.0803 0.28588 0.0
C162 C 0.52156 0.07515 0.27438 0.0
H163 H 0.52163 1.00031 0.27278 0.0
O164 O 0.4285 0.01934 0.28093 0.0
O165 O 0.45327 0.04622 0.26575 0.0
O166 O 0.44662 0.98508 0.25679 0.0
O167 O 0.49111 0.00496 0.25124 0.0
C168 C 0.54521 0.10999 0.29029 0.0
C169 C 0.53087 0.13393 0.28334 0.0
H170 H 0.4974 0.17387 0.26816 0.0
H171 H 0.46306 0.16014 0.24874 0.0
H172 H 0.55564 0.00708 0.29305 0.0
H173 H 0.56746 0.05822 0.30163 0.0
H174 H 0.55953 0.11458 0.29918 0.0
H175 H 0.53441 0.15662 0.28698 0.0
Mn176 Mn 0.19353 0.87801 0.50195 0.0
Mn177 Mn 0.11998 0.8617 0.50383 0.0
C178 C 0.16567 0.87025 0.48187 0.0
C179 C 0.23171 0.91324 0.50052 0.0
C180 C 0.16919 0.81649 0.50994 0.0
O181 O 0.18321 0.89054 0.52168 0.0
O182 O 0.13371 0.88064 0.52158 0.0
C183 C 0.09627 0.92361 0.50499 0.0
N184 N 0.09721 0.89633 0.49866 0.0
C185 C 0.06206 0.91231 0.48102 0.0
C186 C 0.06057 0.94052 0.48741 0.0
C187 C 0.07778 0.94619 0.49943 0.0
C188 C 0.08074 0.89062 0.48709 0.0
H189 H 0.10959 0.92816 0.51418 0.0
C190 C 0.15762 0.89051 0.52751 0.0
O191 O 0.23695 0.88632 0.50508 0.0
O192 O 0.20428 0.91977 0.49718 0.0
N193 N 0.10386 0.84387 0.48725 0.0
C194 C 0.10907 0.81607 0.48192 0.0
C195 C 0.09404 0.80708 0.46972 0.0
C196 C 0.07384 0.82673 0.46312 0.0
C197 C 0.06876 0.85519 0.46882 0.0
C198 C 0.08411 0.86278 0.48109 0.0
H199 H 0.12482 0.80101 0.48684 0.0
O200 O 0.19455 0.86708 0.48174 0.0
O201 O 0.15413 0.87776 0.49373 0.0
O202 O 0.19119 0.83388 0.50758 0.0
O203 O 0.14177 0.8246 0.50891 0.0
C204 C 0.0495 0.87651 0.46265 0.0
C205 C 0.04619 0.90506 0.46874 0.0
H206 H 0.04649 0.95805 0.4831 0.0
H207 H 0.07686 0.96795 0.50437 0.0
H208 H 0.0982 0.78514 0.46535 0.0
H209 H 0.06257 0.81986 0.45361 0.0
H210 H 0.0374 0.87131 0.45313 0.0
H211 H 0.03161 0.9214 0.4638 0.0
Mn212 Mn 0.22083 0.66869 0.76133 0.0
Mn213 Mn 0.21913 0.5937 0.7572 0.0
C214 C 0.2175 0.64819 0.73929 0.0
C215 C 0.19629 0.71445 0.76413 0.0
C216 C 0.27569 0.62821 0.76478 0.0
O217 O 0.20976 0.65369 0.78063 0.0
O218 O 0.20545 0.60412 0.77628 0.0
C219 C 0.15375 0.58319 0.75874 0.0
N220 N 0.17992 0.58103 0.75162 0.0
C221 C 0.15503 0.55719 0.73226 0.0
C222 C 0.12788 0.55893 0.73944 0.0
C223 C 0.12726 0.57197 0.75274 0.0
C224 C 0.18081 0.5683 0.73886 0.0
H225 H 0.15308 0.5935 0.76889 0.0
C226 C 0.20331 0.62697 0.78433 0.0
O227 O 0.22416 0.71102 0.76781 0.0
O228 O 0.1824 0.69092 0.75953 0.0
N229 N 0.23129 0.58125 0.73903 0.0
C230 C 0.25877 0.58337 0.73306 0.0
C231 C 0.26293 0.5724 0.71952 0.0
C232 C 0.23882 0.55935 0.71226 0.0
C233 C 0.21076 0.55735 0.71861 0.0
C234 C 0.20802 0.56843 0.73218 0.0
H235 H 0.27734 0.59355 0.73856 0.0
O236 O 0.2279 0.67506 0.74103 0.0
O237 O 0.20988 0.63409 0.75053 0.0
O238 O 0.26396 0.65424 0.76421 0.0
O239 O 0.26076 0.6042 0.76266 0.0
C240 C 0.18523 0.54553 0.71188 0.0
C241 C 0.15736 0.54561 0.71868 0.0
H242 H 0.10733 0.55062 0.73478 0.0
H243 H 0.10636 0.57355 0.75831 0.0
H244 H 0.28462 0.57414 0.71466 0.0
H245 H 0.24204 0.55121 0.70175 0.0
H246 H 0.18664 0.5369 0.70137 0.0
H247 H 0.13773 0.53726 0.71326 0.0
Mn248 Mn 0.88402 0.17497 0.5329 0.0
Mn249 Mn 0.863 0.10248 0.53118 0.0
C250 C 0.87662 0.1479 0.55307 0.0
C251 C 0.92051 0.21206 0.53378 0.0
C252 C 0.82023 0.15402 0.52615 0.0
O253 O 0.89452 0.16374 0.51304 0.0
O254 O 0.87987 0.11541 0.51297 0.0
C255 C 0.923 0.07506 0.52806 0.0
N256 N 0.89676 0.0774 0.5351 0.0
C257 C 0.91222 0.0394 0.55142 0.0
C258 C 0.93933 0.03644 0.54429 0.0
C259 C 0.94476 0.0544 0.53258 0.0
C260 C 0.89131 0.06024 0.54639 0.0
H261 H 0.9273 0.08886 0.51908 0.0
C262 C 0.89117 0.13847 0.50703 0.0
O263 O 0.89344 0.21783 0.52951 0.0
O264 O 0.92657 0.18455 0.53716 0.0
N265 N 0.8467 0.08697 0.54806 0.0
C266 C 0.82043 0.09416 0.55436 0.0
C267 C 0.81215 0.07905 0.56654 0.0
C268 C 0.83086 0.05659 0.57207 0.0
C269 C 0.8577 0.04948 0.56536 0.0
C270 C 0.86472 0.06521 0.55321 0.0
H271 H 0.80608 0.11153 0.55021 0.0
O272 O 0.87473 0.17691 0.55317 0.0
O273 O 0.88258 0.13557 0.54113 0.0
O274 O 0.83938 0.17485 0.52783 0.0
O275 O 0.82658 0.12624 0.52731 0.0
C276 C 0.87808 0.02785 0.5704 0.0
C277 C 0.90536 0.02288 0.56347 0.0
H278 H 0.95624 0.02065 0.54779 0.0
H279 H 0.96569 0.05235 0.52707 0.0
H280 H 0.79147 0.08477 0.5717 0.0
H281 H 0.82452 0.04516 0.58153 0.0
H282 H 0.87319 0.01525 0.57974 0.0
H283 H 0.92107 0.00656 0.56759 0.0
Mn284 Mn 0.01127 0.42338 0.77759 0.0
Mn285 Mn 0.08503 0.4151 0.78493 0.0
C286 C 0.0271 0.41219 0.80001 0.0
C287 C 0.96847 0.45352 0.77562 0.0
C288 C 0.04798 0.36768 0.77007 0.0
O289 O 0.0313 0.44203 0.76067 0.0
O290 O 0.07979 0.43778 0.76728 0.0
C291 C 0.09951 0.47877 0.79037 0.0
N292 N 0.09885 0.44976 0.79474 0.0
C293 C 0.12081 0.46305 0.81686 0.0
C294 C 0.12189 0.49305 0.81257 0.0
C295 C 0.11115 0.50093 0.79927 0.0
C296 C 0.10904 0.44194 0.80753 0.0
H297 H 0.09119 0.48494 0.78018 0.0
C298 C 0.05929 0.44615 0.7587 0.0
O299 O 0.97038 0.42799 0.7692 0.0
O300 O 0.99187 0.46205 0.78265 0.0
N301 N 0.0935 0.39373 0.80178 0.0
C302 C 0.09036 0.36392 0.80442 0.0
C303 C 0.09999 0.35234 0.81729 0.0
C304 C 0.11291 0.37148 0.82727 0.0
C305 C 0.11618 0.40202 0.82427 0.0
C306 C 0.10648 0.41221 0.8112 0.0
H307 H 0.08051 0.3491 0.79677 0.0
O308 O 0.9998 0.40656 0.79612 0.0
O309 O 0.04416 0.42437 0.79072 0.0
O310 O 0.02309 0.38177 0.7705 0.0
O311 O 0.07246 0.37808 0.77511 0.0
C312 C 0.12842 0.4228 0.83377 0.0
C313 C 0.13063 0.45331 0.83009 0.0
H314 H 0.13077 0.51022 0.81941 0.0
H315 H 0.11183 0.52405 0.7959 0.0
H316 H 0.09741 0.32874 0.81953 0.0
H317 H 0.12019 0.36247 0.8372 0.0
H318 H 0.13593 0.41561 0.84399 0.0
H319 H 0.1398 0.46912 0.83753 0.0
Mn320 Mn 0.73264 0.50617 0.01993 0.0
Mn321 Mn 0.66182 0.53248 0.02143 0.0
C322 C 0.70442 0.51035 0.99979 0.0
C323 C 0.78383 0.51605 0.01823 0.0
C324 C 0.67907 0.4687 0.02922 0.0
O325 O 0.73062 0.52439 0.0393 0.0
O326 O 0.68435 0.54452 0.03852 0.0
C327 C 0.67731 0.59666 0.01908 0.0
N328 N 0.66143 0.57257 0.01446 0.0
C329 C 0.63976 0.60128 0.99571 0.0
C330 C 0.65567 0.62647 0.00034 0.0
C331 C 0.67471 0.62407 0.01201 0.0
C332 C 0.64349 0.57447 0.00309 0.0
H333 H 0.69213 0.59487 0.02799 0.0
C334 C 0.70955 0.53981 0.04464 0.0
O335 O 0.77423 0.49104 0.02348 0.0
O336 O 0.76373 0.53538 0.01437 0.0
N337 N 0.63716 0.52305 0.00563 0.0
C338 C 0.62498 0.49618 0.00195 0.0
C339 C 0.60596 0.49451 0.99025 0.0
C340 C 0.59946 0.52048 0.98254 0.0
C341 C 0.61181 0.54796 0.98667 0.0
C342 C 0.63029 0.54832 0.99853 0.0
H343 H 0.62989 0.47614 0.00783 0.0
O344 O 0.72793 0.4933 1.00014 0.0
O345 O 0.69869 0.52521 0.0111 0.0
O346 O 0.70687 0.47087 0.02629 0.0
O347 O 0.66059 0.4906 0.02825 0.0
C348 C 0.60698 0.57489 0.97934 0.0
C349 C 0.62108 0.6015 0.98381 0.0
H350 H 0.65375 0.64765 0.99491 0.0
H351 H 0.68737 0.64331 0.01555 0.0
H352 H 0.59645 0.47323 0.98715 0.0
H353 H 0.58509 0.51902 0.97342 0.0
H354 H 0.59293 0.57526 0.97009 0.0
H355 H 0.61775 0.62191 0.9779 0.0
Mn356 Mn 0.67589 0.23799 0.26094 0.0
Mn357 Mn 0.65533 0.16633 0.25478 0.0
C358 C 0.67314 0.22024 0.23839 0.0
C359 C 0.66276 0.28828 0.26402 0.0
C360 C 0.71727 0.18398 0.26524 0.0
O361 O 0.65798 0.22503 0.27943 0.0
O362 O 0.64193 0.17877 0.27357 0.0
C363 C 0.58973 0.17564 0.25373 0.0
N364 N 0.61526 0.1655 0.24767 0.0
C365 C 0.58796 0.14886 0.2274 0.0
C366 C 0.56131 0.15885 0.23349 0.0
C367 C 0.56227 0.17253 0.24666 0.0
C368 C 0.61468 0.15267 0.23493 0.0
H369 H 0.59037 0.18621 0.26384 0.0
C370 C 0.64468 0.20046 0.28222 0.0
O371 O 0.68824 0.27789 0.26856 0.0
O372 O 0.64457 0.26923 0.25831 0.0
N373 N 0.66664 0.15112 0.23696 0.0
C374 C 0.69452 0.14435 0.23222 0.0
C375 C 0.69766 0.13149 0.21897 0.0
C376 C 0.67212 0.12547 0.2108 0.0
C377 C 0.64364 0.13224 0.21598 0.0
C378 C 0.64189 0.14481 0.2293 0.0
H379 H 0.71421 0.14887 0.23847 0.0
O380 O 0.68884 0.24386 0.24128 0.0
O381 O 0.65911 0.20799 0.24872 0.0
O382 O 0.71309 0.21231 0.2651 0.0
O383 O 0.69705 0.16506 0.26179 0.0
C384 C 0.61697 0.12759 0.20834 0.0
C385 C 0.58915 0.13595 0.21403 0.0
H386 H 0.54006 0.15657 0.22806 0.0
H387 H 0.54194 0.1809 0.25128 0.0
H388 H 0.71971 0.12632 0.21504 0.0
H389 H 0.67465 0.11583 0.20053 0.0
H390 H 0.61764 0.11806 0.19797 0.0
H391 H 0.56885 0.13273 0.20796 0.0
C392 C 0.11732 0.01598 0.31093 0.0
C393 C 0.10809 0.03972 0.3195 0.0
C394 C 0.14419 0.01757 0.30366 0.0
C395 C 0.21722 0.05654 0.30362 0.0
H396 H 0.22392 0.01985 0.26717 0.0
C397 C 0.32691 0.06066 0.27242 0.0
C398 C 0.33669 0.0331 0.26699 0.0
C399 C 0.29789 0.06379 0.27757 0.0
C400 C 0.22241 0.03009 0.27736 0.0
H401 H 0.11972 0.08404 0.32698 0.0
H402 H 0.16655 0.08711 0.31406 0.0
H403 H 0.17534 0.0218 0.27855 0.0
H404 H 0.32327 0.98759 0.2622 0.0
H405 H 0.27247 0.99314 0.27111 0.0
H406 H 0.26435 0.06478 0.3024 0.0
C407 C 0.15317 0.06699 0.31315 0.0
C408 C 0.19459 0.03115 0.28392 0.0
C409 C 0.12625 0.06532 0.32051 0.0
C410 C 0.31641 0.00911 0.2663 0.0
C411 C 0.28728 0.01232 0.27137 0.0
C412 C 0.24499 0.05567 0.29701 0.0
C413 C 0.16254 0.04304 0.30468 0.0
C414 C 0.1917 0.04399 0.29723 0.0
C415 C 0.27791 0.03952 0.27733 0.0
C416 C 0.24798 0.0421 0.28389 0.0
H417 H 0.10399 0.99583 0.30995 0.0
H418 H 0.15087 0.99844 0.29748 0.0
H419 H 0.21601 0.0662 0.31394 0.0
H420 H 0.34195 0.07962 0.27309 0.0
H421 H 0.29121 0.08514 0.28192 0.0
C422 C 0.17673 0.56218 0.55605 0.0
C423 C 0.1927 0.5608 0.56872 0.0
C424 C 0.17949 0.58695 0.54733 0.0
C425 C 0.2212 0.65506 0.53885 0.0
H426 H 0.14216 0.69039 0.53499 0.0
C427 C 0.20234 0.77819 0.52142 0.0
C428 C 0.17558 0.78537 0.51436 0.0
C429 C 0.20725 0.74919 0.52649 0.0
C430 C 0.16437 0.6807 0.53562 0.0
H431 H 0.22654 0.58286 0.5814 0.0
H432 H 0.23151 0.62617 0.56599 0.0
H433 H 0.14767 0.64157 0.54568 0.0
H434 H 0.13373 0.76739 0.5064 0.0
H435 H 0.14291 0.71672 0.51445 0.0
H436 H 0.23791 0.69411 0.52858 0.0
C437 C 0.2167 0.60809 0.56294 0.0
C438 C 0.1675 0.65269 0.54184 0.0
C439 C 0.21379 0.5833 0.57176 0.0
C440 C 0.15443 0.7627 0.51195 0.0
C441 C 0.15963 0.73361 0.5167 0.0
C442 C 0.21803 0.68301 0.53235 0.0
C443 C 0.19848 0.61072 0.55101 0.0
C444 C 0.19589 0.63965 0.54358 0.0
C445 C 0.18573 0.72658 0.52436 0.0
C446 C 0.18953 0.69629 0.53072 0.0
H447 H 0.16059 0.54505 0.55327 0.0
H448 H 0.16552 0.58831 0.53807 0.0
H449 H 0.24333 0.64542 0.54012 0.0
H450 H 0.21901 0.79525 0.52349 0.0
H451 H 0.22745 0.74485 0.53247 0.0
C452 C 0.53704 0.58852 0.8035 0.0
C453 C 0.55377 0.61515 0.80405 0.0
C454 C 0.50784 0.58846 0.79805 0.0
C455 C 0.45392 0.6339 0.77686 0.0
H456 H 0.39442 0.58666 0.79609 0.0
C457 C 0.32632 0.65133 0.76908 0.0
C458 C 0.30818 0.62563 0.76818 0.0
C459 C 0.35674 0.64895 0.77255 0.0
C460 C 0.41081 0.59971 0.7905 0.0
H461 H 0.55301 0.66252 0.79903 0.0
H462 H 0.50213 0.66255 0.78981 0.0
H463 H 0.44663 0.58432 0.8036 0.0
H464 H 0.30818 0.57718 0.77012 0.0
H465 H 0.36118 0.57315 0.77623 0.0
H466 H 0.41781 0.64979 0.76398 0.0
C467 C 0.51163 0.64154 0.79335 0.0
C468 C 0.44083 0.59832 0.79477 0.0
C469 C 0.54085 0.64155 0.79872 0.0
C470 C 0.32137 0.59748 0.77074 0.0
C471 C 0.35175 0.59515 0.77432 0.0
C472 C 0.42386 0.63544 0.77265 0.0
C473 C 0.49457 0.61507 0.79307 0.0
C474 C 0.4628 0.61553 0.78807 0.0
C475 C 0.36978 0.62086 0.7753 0.0
C476 C 0.40192 0.61849 0.77946 0.0
H477 H 0.54635 0.56775 0.80746 0.0
H478 H 0.49564 0.56754 0.79779 0.0
H479 H 0.47022 0.64707 0.77127 0.0
H480 H 0.31703 0.67338 0.76716 0.0
H481 H 0.36993 0.66922 0.77335 0.0
C482 C 0.53167 0.05543 0.03429 0.0
C483 C 0.53428 0.05871 0.04881 0.0
C484 C 0.53252 0.02695 0.02818 0.0
C485 C 0.55429 0.94793 0.03568 0.0
H486 H 0.49991 0.92958 0.0052 0.0
C487 C 0.49805 0.83721 0.00858 0.0
C488 C 0.52274 0.81776 0.00942 0.0
C489 C 0.50146 0.86778 0.01141 0.0
C490 C 0.51514 0.93426 0.01375 0.0
H491 H 0.53979 0.03461 0.06827 0.0
H492 H 0.54055 0.98525 0.05773 0.0
H493 H 0.50185 0.98033 0.0145 0.0
H494 H 0.57069 0.81528 0.01294 0.0
H495 H 0.57691 0.86862 0.01732 0.0
H496 H 0.56642 0.90172 0.03553 0.0
C497 C 0.53858 0.00457 0.05097 0.0
C498 C 0.51655 0.96351 0.01897 0.0
C499 C 0.53795 0.03295 0.05705 0.0
C500 C 0.55117 0.8297 0.01236 0.0
C501 C 0.55467 0.86027 0.01499 0.0
C502 C 0.55268 0.91871 0.03057 0.0
C503 C 0.53585 0.00113 0.03646 0.0
C504 C 0.53584 0.97062 0.03015 0.0
C505 C 0.52973 0.8796 0.01498 0.0
C506 C 0.53286 0.91134 0.01963 0.0
H507 H 0.5289 0.07484 0.02765 0.0
H508 H 0.53072 0.02521 0.01697 0.0
H509 H 0.56982 0.95263 0.04412 0.0
H510 H 0.47582 0.82862 0.00639 0.0
H511 H 0.48165 0.8818 0.01142 0.0
C512 C 0.21877 0.60499 0.97069 0.0
C513 C 0.21308 0.57452 0.96813 0.0
C514 C 0.24706 0.61446 0.97515 0.0
C515 C 0.32662 0.59206 0.97536 0.0
H516 H 0.33408 0.65618 0.0024 0.0
C517 C 0.44119 0.633 0.99714 0.0
C518 C 0.44483 0.66418 0.99854 0.0
C519 C 0.41319 0.62084 0.99375 0.0
C520 C 0.33238 0.63843 0.99474 0.0
H521 H 0.23261 0.53001 0.96848 0.0
H522 H 0.28205 0.54657 0.97641 0.0
H523 H 0.28467 0.63678 0.99639 0.0
H524 H 0.4217 0.70695 0.99724 0.0
H525 H 0.37315 0.68574 0.99125 0.0
H526 H 0.37441 0.59388 0.97369 0.0
C527 C 0.26465 0.56316 0.9748 0.0
C528 C 0.30405 0.62729 0.99131 0.0
C529 C 0.23626 0.55366 0.97034 0.0
C530 C 0.41982 0.68285 0.99631 0.0
C531 C 0.39187 0.67068 0.99296 0.0
C532 C 0.35501 0.60318 0.97883 0.0
C533 C 0.27042 0.59372 0.97718 0.0
C534 C 0.30076 0.60421 0.98145 0.0
C535 C 0.38816 0.63953 0.99173 0.0
C536 C 0.35818 0.62674 0.98844 0.0
H537 H 0.20148 0.6217 0.96906 0.0
H538 H 0.25079 0.6382 0.97668 0.0
H539 H 0.32488 0.57453 0.96761 0.0
H540 H 0.45989 0.6179 0.99881 0.0
H541 H 0.41103 0.59673 0.99298 0.0
C542 C 0.53652 0.72171 0.2257 0.0
C543 C 0.56599 0.71563 0.22148 0.0
C544 C 0.52842 0.75029 0.23032 0.0
C545 C 0.55067 0.82956 0.22753 0.0
H546 H 0.49467 0.8406 0.25771 0.0
C547 C 0.51613 0.94752 0.24695 0.0
C548 C 0.48577 0.9519 0.25023 0.0
C549 C 0.52728 0.91877 0.24426 0.0
C550 C 0.5101 0.83793 0.24917 0.0
H551 H 0.61027 0.73478 0.21918 0.0
H552 H 0.59616 0.78466 0.22734 0.0
H553 H 0.51196 0.79035 0.25188 0.0
H554 H 0.44342 0.92912 0.25327 0.0
H555 H 0.46272 0.87925 0.24841 0.0
H556 H 0.54847 0.87707 0.22466 0.0
C557 C 0.57922 0.76734 0.22692 0.0
C558 C 0.52007 0.80908 0.24584 0.0
C559 C 0.58737 0.73867 0.22234 0.0
C560 C 0.46694 0.92671 0.25083 0.0
C561 C 0.47807 0.89799 0.24813 0.0
C562 C 0.54065 0.85842 0.23084 0.0
C563 C 0.54955 0.7736 0.23082 0.0
C564 C 0.54028 0.80448 0.2349 0.0
C565 C 0.50838 0.89361 0.24477 0.0
C566 C 0.52002 0.86298 0.24162 0.0
H567 H 0.51944 0.70454 0.22516 0.0
H568 H 0.50531 0.75433 0.2331 0.0
H569 H 0.56589 0.82683 0.21891 0.0
H570 H 0.5314 0.96631 0.24647 0.0
H571 H 0.55082 0.91624 0.2419 0.0
C572 C 0.40518 0.10218 0.45704 0.0
C573 C 0.43366 0.09099 0.45369 0.0
C574 C 0.38394 0.08368 0.46325 0.0
C575 C 0.37546 0.01439 0.48359 0.0
H576 H 0.29447 0.01555 0.46872 0.0
C577 C 0.286 0.92562 0.49761 0.0
C578 C 0.25599 0.93499 0.49814 0.0
C579 C 0.30838 0.94557 0.4935 0.0
C580 C 0.31682 0.01528 0.47318 0.0
H581 H 0.46229 0.05168 0.45438 0.0
H582 H 0.42514 0.0194 0.46524 0.0
H583 H 0.33202 0.04854 0.45889 0.0
H584 H 0.22608 0.97296 0.49565 0.0
H585 H 0.26508 0.00791 0.48892 0.0
H586 H 0.3602 0.98114 0.49793 0.0
C587 C 0.41934 0.04253 0.46311 0.0
C588 C 0.33837 0.03415 0.4675 0.0
C589 C 0.44053 0.06097 0.4568 0.0
C590 C 0.24899 0.965 0.49519 0.0
C591 C 0.27133 0.98498 0.49123 0.0
C592 C 0.35381 0.99561 0.48936 0.0
C593 C 0.39078 0.05366 0.46634 0.0
C594 C 0.36792 0.03387 0.47261 0.0
C595 C 0.30118 0.97533 0.48995 0.0
C596 C 0.32422 0.9958 0.4842 0.0
H597 H 0.39919 0.12521 0.45482 0.0
H598 H 0.3622 0.09295 0.46575 0.0
H599 H 0.39801 0.01393 0.48783 0.0
H600 H 0.29204 0.90257 0.49979 0.0
H601 H 0.33109 0.9373 0.49255 0.0
C602 C 0.12405 0.96604 0.72738 0.0
C603 C 0.09918 0.96497 0.71831 0.0
C604 C 0.13255 0.94084 0.73509 0.0
C605 C 0.10697 0.86643 0.74733 0.0
H606 H 0.19155 0.84684 0.74623 0.0
C607 C 0.15324 0.74765 0.75763 0.0
C608 C 0.18205 0.74439 0.76346 0.0
C609 C 0.14157 0.77608 0.75477 0.0
C610 C 0.16795 0.85219 0.74693 0.0
H611 H 0.06304 0.93686 0.71066 0.0
H612 H 0.07803 0.89279 0.72405 0.0
H613 H 0.17391 0.89368 0.73622 0.0
H614 H 0.22039 0.76846 0.77174 0.0
H615 H 0.19977 0.81815 0.76703 0.0
H616 H 0.10099 0.82459 0.75784 0.0
C617 C 0.09083 0.91321 0.72527 0.0
C618 C 0.15781 0.87909 0.74114 0.0
C619 C 0.08234 0.93844 0.71753 0.0
C620 C 0.19819 0.77022 0.76716 0.0
C621 C 0.18646 0.79869 0.76435 0.0
C622 C 0.11715 0.83952 0.75318 0.0
C623 C 0.11638 0.91396 0.73394 0.0
C624 C 0.12716 0.88636 0.74108 0.0
C625 C 0.15838 0.80196 0.75774 0.0
C626 C 0.14773 0.83186 0.75287 0.0
H627 H 0.13741 0.98617 0.72832 0.0
H628 H 0.15206 0.9423 0.74183 0.0
H629 H 0.08327 0.87157 0.74762 0.0
H630 H 0.1402 0.72821 0.75464 0.0
H631 H 0.12001 0.77764 0.74957 0.0
C632 C 0.73211 0.55977 0.81371 0.0
C633 C 0.71322 0.57473 0.80419 0.0
C634 C 0.75988 0.54854 0.80955 0.0
C635 C 0.8032 0.52616 0.77844 0.0
H636 H 0.8701 0.53039 0.80435 0.0
C637 C 0.93928 0.49905 0.78256 0.0
C638 C 0.94007 0.47079 0.77612 0.0
C639 C 0.91204 0.51386 0.78461 0.0
C640 C 0.85184 0.52932 0.79687 0.0
H641 H 0.7089 0.5896 0.78279 0.0
H642 H 0.75762 0.57033 0.77557 0.0
H643 H 0.82237 0.55253 0.81059 0.0
H644 H 0.91287 0.43642 0.76634 0.0
H645 H 0.86528 0.46196 0.77014 0.0
H646 H 0.83297 0.50332 0.76462 0.0
C647 C 0.75073 0.56694 0.78623 0.0
C648 C 0.82424 0.54168 0.80056 0.0
C649 C 0.72285 0.57816 0.79039 0.0
C650 C 0.91307 0.45822 0.77129 0.0
C651 C 0.88575 0.47295 0.77343 0.0
C652 C 0.83091 0.51384 0.77472 0.0
C653 C 0.76965 0.55202 0.79577 0.0
C654 C 0.79942 0.54001 0.79147 0.0
C655 C 0.8848 0.5007 0.78039 0.0
C656 C 0.85557 0.51506 0.78394 0.0
H657 H 0.72542 0.55654 0.82441 0.0
H658 H 0.77352 0.53672 0.81714 0.0
H659 H 0.78457 0.52424 0.7712 0.0
H660 H 0.95969 0.50948 0.78632 0.0
H661 H 0.91233 0.53548 0.78972 0.0
C662 C 0.60128 0.20945 0.05105 0.0
C663 C 0.57267 0.20582 0.0568 0.0
C664 C 0.61187 0.23792 0.0476 0.0
C665 C 0.59974 0.31812 0.05575 0.0
H666 H 0.65061 0.33064 0.02379 0.0
C667 C 0.6372 0.43573 0.03743 0.0
C668 C 0.66717 0.43891 0.03326 0.0
C669 C 0.62543 0.40746 0.04039 0.0
C670 C 0.63666 0.32743 0.03283 0.0
H671 H 0.53229 0.22927 0.06292 0.0
H672 H 0.55047 0.27886 0.0566 0.0
H673 H 0.62955 0.28117 0.02805 0.0
H674 H 0.70833 0.41459 0.02916 0.0
H675 H 0.68774 0.36536 0.03435 0.0
H676 H 0.60673 0.36451 0.06045 0.0
C677 C 0.56503 0.25975 0.05506 0.0
C678 C 0.62458 0.29906 0.03528 0.0
C679 C 0.5545 0.23126 0.05858 0.0
C680 C 0.68517 0.41309 0.03234 0.0
C681 C 0.67332 0.3848 0.03521 0.0
C682 C 0.61169 0.34653 0.05325 0.0
C683 C 0.59404 0.2635 0.04973 0.0
C684 C 0.60606 0.29398 0.04681 0.0
C685 C 0.64325 0.38164 0.03917 0.0
C686 C 0.63041 0.35148 0.0418 0.0
H687 H 0.61594 0.19037 0.04959 0.0
H688 H 0.63444 0.23992 0.04368 0.0
H689 H 0.58604 0.31496 0.06487 0.0
H690 H 0.62261 0.45506 0.03824 0.0
H691 H 0.60211 0.40576 0.0433 0.0
C692 C 0.9601 0.11651 0.31599 0.0
C693 C 0.96421 0.08637 0.31979 0.0
C694 C 0.93438 0.12559 0.30877 0.0
C695 C 0.85619 0.10291 0.30192 0.0
H696 H 0.85921 0.16616 0.2743 0.0
C697 C 0.75142 0.14099 0.27107 0.0
C698 C 0.74675 0.1721 0.26996 0.0
C699 C 0.77858 0.12962 0.27612 0.0
C700 C 0.858 0.14862 0.28206 0.0
H701 H 0.94484 0.04193 0.31862 0.0
H702 H 0.90004 0.05771 0.30577 0.0
H703 H 0.90564 0.14717 0.2846 0.0
H704 H 0.7675 0.21557 0.27303 0.0
H705 H 0.81492 0.19561 0.28184 0.0
H706 H 0.80854 0.10443 0.29937 0.0
C707 C 0.91654 0.07443 0.30861 0.0
C708 C 0.88459 0.13772 0.28797 0.0
C709 C 0.94229 0.06534 0.31589 0.0
C710 C 0.77024 0.19151 0.27375 0.0
C711 C 0.7975 0.18008 0.27874 0.0
C712 C 0.82963 0.1137 0.29595 0.0
C713 C 0.91213 0.10475 0.30509 0.0
C714 C 0.88401 0.11495 0.29809 0.0
C715 C 0.80184 0.14901 0.28012 0.0
C716 C 0.83021 0.13686 0.28604 0.0
H717 H 0.97647 0.13334 0.31885 0.0
H718 H 0.93159 0.14916 0.30644 0.0
H719 H 0.85482 0.08574 0.30984 0.0
H720 H 0.73397 0.12529 0.2682 0.0
H721 H 0.78137 0.10557 0.27688 0.0
C722 C 0.10693 0.39386 0.57412 0.0
C723 C 0.09521 0.4229 0.57568 0.0
C724 C 0.08952 0.37111 0.56824 0.0
C725 C 0.02325 0.35712 0.54608 0.0
H726 H 0.02201 0.28041 0.56495 0.0
C727 C 0.93424 0.26632 0.53468 0.0
C728 C 0.94281 0.23611 0.53576 0.0
C729 C 0.95443 0.28908 0.53812 0.0
C730 C 0.02247 0.30148 0.55939 0.0
H731 H 0.05616 0.45094 0.57208 0.0
H732 H 0.02574 0.41112 0.56182 0.0
H733 H 0.0541 0.32021 0.57378 0.0
H734 H 0.97969 0.20607 0.54055 0.0
H735 H 0.01514 0.24576 0.54622 0.0
H736 H 0.99154 0.3384 0.53168 0.0
C737 C 0.04847 0.40605 0.56508 0.0
C738 C 0.04082 0.32433 0.56449 0.0
C739 C 0.06583 0.42879 0.57105 0.0
C740 C 0.97235 0.22914 0.53973 0.0
C741 C 0.9926 0.2519 0.54307 0.0
C742 C 0.00499 0.33418 0.54091 0.0
C743 C 0.06007 0.37692 0.56371 0.0
C744 C 0.04126 0.35245 0.55795 0.0
C745 C 0.98369 0.28212 0.54262 0.0
C746 C 0.00424 0.30613 0.54757 0.0
H747 H 0.12951 0.38859 0.57754 0.0
H748 H 0.09917 0.34896 0.56718 0.0
H749 H 0.02341 0.37847 0.54073 0.0
H750 H 0.91159 0.27239 0.53168 0.0
H751 H 0.94669 0.31207 0.53777 0.0
C752 C 0.57052 0.16699 0.47512 0.0
C753 C 0.57041 0.18478 0.46305 0.0
C754 C 0.59407 0.16883 0.4847 0.0
C755 C 0.66138 0.21069 0.49587 0.0
H756 H 0.69435 0.13106 0.50118 0.0
C757 C 0.78322 0.18865 0.51472 0.0
C758 C 0.78923 0.16216 0.52214 0.0
C759 C 0.75436 0.19457 0.50962 0.0
C760 C 0.68525 0.15345 0.50014 0.0
H761 H 0.59349 0.22046 0.45224 0.0
H762 H 0.63489 0.22355 0.46903 0.0
H763 H 0.64698 0.13712 0.48909 0.0
H764 H 0.76934 0.1222 0.53089 0.0
H765 H 0.71895 0.13311 0.52261 0.0
H766 H 0.69993 0.227 0.50694 0.0
C767 C 0.61667 0.20819 0.47103 0.0
C768 C 0.65803 0.15691 0.49314 0.0
C769 C 0.593 0.20636 0.46141 0.0
C770 C 0.76552 0.14258 0.52503 0.0
C771 C 0.73663 0.14878 0.52018 0.0
C772 C 0.68861 0.20721 0.50308 0.0
C773 C 0.61804 0.1885 0.48243 0.0
C774 C 0.64588 0.18551 0.49084 0.0
C775 C 0.73082 0.17434 0.51202 0.0
C776 C 0.701 0.1785 0.5052 0.0
H777 H 0.55319 0.15046 0.47681 0.0
H778 H 0.59429 0.1538 0.49354 0.0
H779 H 0.65246 0.233 0.49424 0.0
H780 H 0.80108 0.20413 0.51231 0.0
H781 H 0.75088 0.21433 0.50328 0.0
C782 C 0.0393 0.14434 0.69582 0.0
C783 C 0.05934 0.12111 0.69921 0.0
C784 C 0.03874 0.17069 0.70366 0.0
C785 C 0.06269 0.20222 0.73792 0.0
H786 H 0.04414 0.27769 0.7198 0.0
C787 C 0.07314 0.31859 0.76479 0.0
C788 C 0.04882 0.33829 0.76285 0.0
C789 C 0.07457 0.29157 0.75743 0.0
C790 C 0.04914 0.25673 0.72501 0.0
H791 H 0.09496 0.10758 0.71334 0.0
H792 H 0.0948 0.154 0.72674 0.0
H793 H 0.04763 0.23216 0.70595 0.0
H794 H 0.00681 0.3448 0.7517 0.0
H795 H 0.00961 0.29789 0.73874 0.0
H796 H 0.06491 0.22729 0.75696 0.0
C797 C 0.07887 0.15158 0.71826 0.0
C798 C 0.05104 0.23055 0.71709 0.0
C799 C 0.07915 0.12502 0.71051 0.0
C800 C 0.02582 0.33016 0.75349 0.0
C801 C 0.0275 0.30338 0.74599 0.0
C802 C 0.06118 0.22853 0.74582 0.0
C803 C 0.05851 0.17474 0.715 0.0
C804 C 0.05757 0.20284 0.72343 0.0
C805 C 0.05196 0.2839 0.74781 0.0
C806 C 0.05414 0.256 0.73946 0.0
H807 H 0.02352 0.14195 0.68726 0.0
H808 H 0.02232 0.18764 0.70097 0.0
H809 H 0.06727 0.18133 0.74325 0.0
H810 H 0.09121 0.3241 0.77194 0.0
H811 H 0.09375 0.27703 0.75899 0.0
C812 C 0.04375 0.52548 0.97917 0.0
C813 C 0.05123 0.55155 0.97176 0.0
C814 C 0.01615 0.52316 0.98585 0.0
C815 C 0.93971 0.55454 0.98427 0.0
H816 H 0.92971 0.51341 0.01946 0.0
C817 C 0.8251 0.54973 0.01059 0.0
C818 C 0.81599 0.52178 0.01575 0.0
C819 C 0.85477 0.55452 0.00672 0.0
C820 C 0.93214 0.52477 0.00959 0.0
H821 H 0.03602 0.59608 0.96606 0.0
H822 H 0.98813 0.59221 0.97788 0.0
H823 H 0.97994 0.5201 0.01002 0.0
H824 H 0.83119 0.47727 0.02144 0.0
H825 H 0.88316 0.48555 0.01455 0.0
H826 H 0.89207 0.559 0.98371 0.0
C827 C 0.00334 0.57331 0.9783 0.0
C828 C 0.96091 0.52861 0.00417 0.0
C829 C 0.0309 0.5756 0.97159 0.0
C830 C 0.83753 0.49906 0.0175 0.0
C831 C 0.86731 0.50385 0.0136 0.0
C832 C 0.91106 0.55076 0.98968 0.0
C833 C 0.99538 0.54686 0.98531 0.0
C834 C 0.96503 0.54352 0.99142 0.0
C835 C 0.8761 0.53145 0.00787 0.0
C836 C 0.90687 0.53582 0.0024 0.0
H837 H 0.05887 0.50649 0.9795 0.0
H838 H 0.01068 0.50236 0.99103 0.0
H839 H 0.94193 0.56553 0.97429 0.0
H840 H 0.80914 0.56782 0.00922 0.0
H841 H 0.8609 0.57624 0.00262 0.0
C842 C 0.616 0.538 0.21986 0.0
C843 C 0.61726 0.5631 0.22867 0.0
C844 C 0.61947 0.50908 0.22521 0.0
C845 C 0.64853 0.46727 0.25599 0.0
H846 H 0.60422 0.40218 0.2389 0.0
C847 C 0.62637 0.3305 0.26121 0.0
C848 C 0.65578 0.32073 0.26387 0.0
C849 C 0.62021 0.36082 0.25892 0.0
C850 C 0.61649 0.42004 0.244 0.0
H851 H 0.62284 0.57737 0.25011 0.0
H852 H 0.62816 0.52682 0.25952 0.0
H853 H 0.59535 0.45311 0.23118 0.0
H854 H 0.70167 0.33526 0.26678 0.0
H855 H 0.69119 0.38809 0.26239 0.0
H856 H 0.66913 0.4341 0.26905 0.0
C857 C 0.62508 0.52952 0.2484 0.0
C858 C 0.61174 0.44935 0.23937 0.0
C859 C 0.62181 0.55853 0.24302 0.0
C860 C 0.67874 0.34213 0.26483 0.0
C861 C 0.67266 0.37248 0.26234 0.0
C862 C 0.65312 0.4379 0.26071 0.0
C863 C 0.62404 0.50437 0.23956 0.0
C864 C 0.62798 0.47336 0.24515 0.0
C865 C 0.6434 0.38215 0.25899 0.0
C866 C 0.63738 0.4138 0.25468 0.0
H867 H 0.6128 0.54065 0.20874 0.0
H868 H 0.61913 0.49043 0.21801 0.0
H869 H 0.66165 0.48509 0.26063 0.0
H870 H 0.60813 0.31458 0.26053 0.0
H871 H 0.59728 0.36741 0.25678 0.0
C872 C 0.01795 0.95271 0.38426 0.0
C873 C 0.03402 0.96339 0.37276 0.0
C874 C 0.03194 0.93441 0.3942 0.0
C875 C 0.10588 0.92658 0.40923 0.0
H876 H 0.07183 0.86162 0.43071 0.0
C877 C 0.14989 0.85316 0.45809 0.0
C878 C 0.1494 0.8748 0.46869 0.0
C879 C 0.13541 0.85876 0.44535 0.0
C880 C 0.08162 0.87953 0.42467 0.0
H881 H 0.0765 0.96076 0.36199 0.0
H882 H 0.10081 0.92904 0.37938 0.0
H883 H 0.04631 0.87885 0.40933 0.0
H884 H 0.13537 0.91968 0.47418 0.0
H885 H 0.11075 0.92974 0.45181 0.0
H886 H 0.14024 0.92837 0.42491 0.0
C887 C 0.07753 0.93514 0.38077 0.0
C888 C 0.06706 0.88944 0.41253 0.0
C889 C 0.06354 0.95326 0.3708 0.0
C890 C 0.13528 0.9024 0.46625 0.0
C891 C 0.12138 0.90819 0.45349 0.0
C892 C 0.12007 0.91705 0.42143 0.0
C893 C 0.06226 0.92656 0.39285 0.0
C894 C 0.07892 0.91331 0.40478 0.0
C895 C 0.12132 0.88645 0.44296 0.0
C896 C 0.10786 0.89377 0.42933 0.0
H897 H 0.99513 0.95992 0.38603 0.0
H898 H 0.01963 0.9282 0.40342 0.0
H899 H 0.11532 0.94532 0.40362 0.0
H900 H 0.16122 0.83197 0.45972 0.0
H901 H 0.13581 0.84186 0.43726 0.0
C902 C 0.14108 0.60523 0.61899 0.0
C903 C 0.1179 0.58442 0.61693 0.0
C904 C 0.1485 0.6151 0.63236 0.0
C905 C 0.14087 0.59008 0.66901 0.0
H906 H 0.1824 0.66463 0.67655 0.0
C907 C 0.17612 0.63058 0.72399 0.0
C908 C 0.20615 0.63929 0.7255 0.0
C909 C 0.16419 0.6242 0.71086 0.0
C910 C 0.171 0.64365 0.67453 0.0
H911 H 0.08224 0.56014 0.62709 0.0
H912 H 0.09398 0.57873 0.65033 0.0
H913 H 0.1602 0.65609 0.65362 0.0
H914 H 0.24682 0.6502 0.71456 0.0
H915 H 0.22574 0.63948 0.69136 0.0
H916 H 0.15091 0.57829 0.69014 0.0
C917 C 0.10747 0.58632 0.64172 0.0
C918 C 0.1583 0.63867 0.66139 0.0
C919 C 0.1004 0.57601 0.62835 0.0
C920 C 0.2238 0.64276 0.71362 0.0
C921 C 0.21174 0.63679 0.70042 0.0
C922 C 0.15308 0.59534 0.68221 0.0
C923 C 0.13249 0.60491 0.64399 0.0
C924 C 0.14344 0.6116 0.65837 0.0
C925 C 0.18182 0.62743 0.69896 0.0
C926 C 0.16862 0.62198 0.68502 0.0
H927 H 0.15515 0.61212 0.61045 0.0
H928 H 0.16805 0.62917 0.63359 0.0
H929 H 0.13014 0.56874 0.6671 0.0
H930 H 0.16171 0.62913 0.73297 0.0
H931 H 0.14094 0.6175 0.70998 0.0
C932 C 0.58589 0.68203 0.86374 0.0
C933 C 0.61221 0.66838 0.85892 0.0
C934 C 0.58418 0.69245 0.87744 0.0
C935 C 0.61012 0.67088 0.91123 0.0
H936 H 0.57692 0.74613 0.92407 0.0
C937 C 0.58376 0.68862 0.96932 0.0
C938 C 0.558 0.70527 0.97253 0.0
C939 C 0.5948 0.68808 0.95574 0.0
C940 C 0.58586 0.72482 0.92069 0.0
H941 H 0.65804 0.6568 0.86438 0.0
H942 H 0.65462 0.67408 0.88846 0.0
H943 H 0.58824 0.73953 0.89945 0.0
H944 H 0.52373 0.73461 0.96403 0.0
H945 H 0.54191 0.73259 0.94031 0.0
H946 H 0.60595 0.65512 0.93207 0.0
C947 C 0.63549 0.67697 0.88157 0.0
C948 C 0.59263 0.72123 0.90659 0.0
C949 C 0.63745 0.66724 0.86777 0.0
C950 C 0.54378 0.72175 0.96191 0.0
C951 C 0.55443 0.72073 0.94828 0.0
C952 C 0.60277 0.67419 0.92525 0.0
C953 C 0.60854 0.68883 0.88663 0.0
C954 C 0.60453 0.69413 0.90172 0.0
C955 C 0.57998 0.70369 0.94494 0.0
C956 C 0.59013 0.70108 0.93019 0.0
H957 H 0.56609 0.68316 0.85716 0.0
H958 H 0.56311 0.70142 0.88111 0.0
H959 H 0.61888 0.64957 0.90769 0.0
H960 H 0.59544 0.67598 0.97733 0.0
H961 H 0.61491 0.67526 0.95375 0.0
C962 C 0.4541 0.12569 0.11501 0.0
C963 C 0.45425 0.10359 0.1046 0.0
C964 C 0.4417 0.11978 0.12801 0.0
C965 C 0.42636 0.05432 0.15045 0.0
H966 H 0.40297 0.11655 0.17634 0.0
C967 C 0.41061 0.03379 0.20976 0.0
C968 C 0.43034 0.05167 0.21765 0.0
C969 C 0.4055 0.03997 0.19563 0.0
C970 C 0.40916 0.0989 0.16918 0.0
H971 H 0.43868 0.05912 0.09917 0.0
H972 H 0.41575 0.04927 0.12164 0.0
H973 H 0.40584 0.12794 0.15155 0.0
H974 H 0.45919 0.09071 0.21705 0.0
H975 H 0.44955 0.10191 0.19261 0.0
H976 H 0.42978 0.02544 0.16822 0.0
C977 C 0.42637 0.07074 0.11999 0.0
C978 C 0.41106 0.10542 0.15498 0.0
C979 C 0.43924 0.07649 0.10704 0.0
C980 C 0.44394 0.07643 0.21127 0.0
C981 C 0.43828 0.083 0.1973 0.0
C982 C 0.42389 0.04769 0.16462 0.0
C983 C 0.42865 0.09178 0.13088 0.0
C984 C 0.42084 0.08354 0.14548 0.0
C985 C 0.41939 0.06461 0.18929 0.0
C986 C 0.4163 0.07018 0.17415 0.0
H987 H 0.46552 0.14682 0.1135 0.0
H988 H 0.44426 0.13655 0.13607 0.0
H989 H 0.43436 0.03689 0.14359 0.0
H990 H 0.39989 0.0145 0.21438 0.0
H991 H 0.39091 0.02543 0.18962 0.0
C992 C 0.1017 0.55353 0.89735 0.0
C993 C 0.11584 0.56692 0.9089 0.0
C994 C 0.10856 0.56267 0.88386 0.0
C995 C 0.14091 0.62224 0.86254 0.0
H996 H 0.16598 0.55679 0.83877 0.0
C997 C 0.19761 0.64253 0.80932 0.0
C998 C 0.192 0.62187 0.79858 0.0
C999 C 0.18716 0.63718 0.82279 0.0
C1000 C 0.15856 0.57538 0.84511 0.0
H1001 H 0.14679 0.60174 0.91538 0.0
H1002 H 0.15833 0.6181 0.89172 0.0
H1003 H 0.14791 0.54621 0.86201 0.0
H1004 H 0.17016 0.57983 0.79348 0.0
H1005 H 0.15096 0.57117 0.81663 0.0
H1006 H 0.15092 0.65143 0.84555 0.0
C1007 C 0.14215 0.60035 0.89317 0.0
C1008 C 0.1483 0.56925 0.85848 0.0
C1009 C 0.13558 0.59094 0.90669 0.0
C1010 C 0.17524 0.59606 0.80154 0.0
C1011 C 0.16436 0.59099 0.81489 0.0
C1012 C 0.15075 0.62838 0.84904 0.0
C1013 C 0.12939 0.58566 0.88163 0.0
C1014 C 0.13941 0.59258 0.86733 0.0
C1015 C 0.17044 0.61127 0.82577 0.0
C1016 C 0.15977 0.60501 0.84014 0.0
H1017 H 0.08637 0.53498 0.89866 0.0
H1018 H 0.09816 0.55121 0.87513 0.0
H1019 H 0.13406 0.64061 0.86916 0.0
H1020 H 0.21056 0.66257 0.80739 0.0
H1021 H 0.19271 0.65312 0.8309 0.0
C1022 C 0.55329 0.69464 0.15579 0.0
C1023 C 0.5588 0.66654 0.16187 0.0
C1024 C 0.54611 0.69694 0.14167 0.0
C1025 C 0.5564 0.69664 0.11077 0.0
H1026 H 0.50385 0.64308 0.09029 0.0
C1027 C 0.54866 0.70099 0.0511 0.0
C1028 C 0.51973 0.70004 0.04534 0.0
C1029 C 0.55344 0.69374 0.06509 0.0
C1030 C 0.51853 0.65825 0.09589 0.0
H1031 H 0.55938 0.61865 0.15808 0.0
H1032 H 0.54701 0.62271 0.13332 0.0
H1033 H 0.5096 0.63733 0.11551 0.0
H1034 H 0.47293 0.69221 0.04961 0.0
H1035 H 0.4811 0.67959 0.07414 0.0
H1036 H 0.5649 0.71801 0.09132 0.0
C1037 C 0.54811 0.64295 0.13951 0.0
C1038 C 0.52198 0.65482 0.11031 0.0
C1039 C 0.55519 0.64063 0.15371 0.0
C1040 C 0.49553 0.69229 0.0538 0.0
C1041 C 0.50027 0.68495 0.06779 0.0
C1042 C 0.553 0.70003 0.09641 0.0
C1043 C 0.54442 0.67122 0.13326 0.0
C1044 C 0.54073 0.67422 0.11792 0.0
C1045 C 0.52924 0.68596 0.07364 0.0
C1046 C 0.5339 0.68102 0.0888 0.0
H1047 H 0.55557 0.71501 0.16183 0.0
H1048 H 0.54265 0.71901 0.13725 0.0
H1049 H 0.57147 0.71161 0.11626 0.0
H1050 H 0.56748 0.70793 0.04484 0.0
H1051 H 0.57605 0.69457 0.06924 0.0
C1052 C 0.47749 0.158 0.38924 0.0
C1053 C 0.50562 0.16782 0.39406 0.0
C1054 C 0.4732 0.15036 0.37526 0.0
C1055 C 0.51627 0.12074 0.34618 0.0
H1056 H 0.44196 0.13188 0.32563 0.0
C1057 C 0.45754 0.08729 0.29009 0.0
C1058 C 0.46199 0.05617 0.29017 0.0
C1059 C 0.46593 0.10462 0.30156 0.0
C1060 C 0.46299 0.12884 0.33117 0.0
H1061 H 0.55062 0.17968 0.38764 0.0
H1062 H 0.54291 0.16655 0.36325 0.0
H1063 H 0.44973 0.15822 0.34763 0.0
H1064 H 0.47793 0.01848 0.30227 0.0
H1065 H 0.49307 0.04889 0.32244 0.0
H1066 H 0.52916 0.09072 0.32983 0.0
C1067 C 0.52439 0.16427 0.37037 0.0
C1068 C 0.46733 0.14375 0.34381 0.0
C1069 C 0.52866 0.17206 0.38434 0.0
C1070 C 0.47487 0.04254 0.30193 0.0
C1071 C 0.48361 0.05994 0.31338 0.0
C1072 C 0.51179 0.10557 0.33359 0.0
C1073 C 0.49695 0.15234 0.36578 0.0
C1074 C 0.49378 0.13947 0.35158 0.0
C1075 C 0.47876 0.09111 0.31339 0.0
C1076 C 0.48489 0.1091 0.32608 0.0
H1077 H 0.45926 0.1545 0.39642 0.0
H1078 H 0.45179 0.14116 0.37206 0.0
H1079 H 0.53683 0.11681 0.35196 0.0
H1080 H 0.4469 0.09814 0.28125 0.0
H1081 H 0.46201 0.12856 0.30126 0.0
C1082 C 0.10559 0.03695 0.63246 0.0
C1083 C 0.10984 0.02153 0.64507 0.0
C1084 C 0.11498 0.02439 0.61991 0.0
C1085 C 0.11366 0.98263 0.59522 0.0
H1086 H 0.18549 0.93487 0.59054 0.0
C1087 C 0.12709 0.9042 0.54837 0.0
C1088 C 0.15491 0.90388 0.54162 0.0
C1089 C 0.12383 0.91854 0.56119 0.0
C1090 C 0.16544 0.94832 0.59165 0.0
H1091 H 0.12894 0.98157 0.65446 0.0
H1092 H 0.14501 0.95949 0.63254 0.0
H1093 H 0.17762 0.96194 0.61235 0.0
H1094 H 0.20135 0.91786 0.54334 0.0
H1095 H 0.19551 0.94309 0.56569 0.0
H1096 H 0.10152 0.96937 0.57457 0.0
C1097 C 0.1346 0.98141 0.63235 0.0
C1098 C 0.16081 0.96362 0.60419 0.0
C1099 C 0.1253 0.99405 0.64493 0.0
C1100 C 0.17959 0.91762 0.54822 0.0
C1101 C 0.17629 0.932 0.56107 0.0
C1102 C 0.11825 0.96736 0.58275 0.0
C1103 C 0.12874 0.99603 0.61964 0.0
C1104 C 0.13478 0.98087 0.60614 0.0
C1105 C 0.14824 0.93302 0.5676 0.0
C1106 C 0.14405 0.9498 0.58084 0.0
H1107 H 0.09402 0.05829 0.63219 0.0
H1108 H 0.11073 0.03658 0.61035 0.0
H1109 H 0.09314 0.99531 0.59641 0.0
H1110 H 0.1076 0.89373 0.54369 0.0
H1111 H 0.10204 0.91837 0.56606 0.0
C1112 C 0.65773 0.58998 0.88378 0.0
C1113 C 0.6458 0.571 0.87348 0.0
C1114 C 0.6561 0.58229 0.8978 0.0
C1115 C 0.65664 0.51825 0.92038 0.0
H1116 H 0.63643 0.57603 0.94897 0.0
C1117 C 0.67822 0.4926 0.9784 0.0
C1118 C 0.68953 0.5163 0.98641 0.0
C1119 C 0.6663 0.49797 0.96513 0.0
C1120 C 0.64232 0.55966 0.94113 0.0
H1121 H 0.62234 0.52931 0.86974 0.0
H1122 H 0.62055 0.51512 0.89446 0.0
H1123 H 0.62686 0.588 0.92454 0.0
H1124 H 0.6993 0.56369 0.98674 0.0
H1125 H 0.67939 0.57321 0.96344 0.0
H1126 H 0.67386 0.49065 0.93674 0.0
C1127 C 0.63076 0.53619 0.89158 0.0
C1128 C 0.63662 0.56646 0.92717 0.0
C1129 C 0.63179 0.54426 0.87749 0.0
C1130 C 0.68967 0.5453 0.98087 0.0
C1131 C 0.67816 0.55067 0.96754 0.0
C1132 C 0.66272 0.51159 0.93433 0.0
C1133 C 0.64301 0.55515 0.90184 0.0
C1134 C 0.64438 0.54609 0.91665 0.0
C1135 C 0.66641 0.52705 0.95946 0.0
C1136 C 0.65634 0.53254 0.94486 0.0
H1137 H 0.66843 0.61089 0.88104 0.0
H1138 H 0.666 0.59717 0.90547 0.0
H1139 H 0.66314 0.5023 0.91246 0.0
H1140 H 0.67849 0.46995 0.98244 0.0
H1141 H 0.65722 0.47929 0.95929 0.0
C1142 C 0.62918 0.15136 0.11581 0.0
C1143 C 0.59888 0.14371 0.11387 0.0
C1144 C 0.64002 0.15913 0.12906 0.0
C1145 C 0.61413 0.19319 0.16096 0.0
H1146 H 0.68294 0.15747 0.17946 0.0
C1147 C 0.63714 0.21131 0.2191 0.0
C1148 C 0.66684 0.21255 0.22383 0.0
C1149 C 0.63075 0.20418 0.20526 0.0
C1150 C 0.664 0.16806 0.17433 0.0
H1151 H 0.55656 0.13698 0.12443 0.0
H1152 H 0.57541 0.15091 0.14732 0.0
H1153 H 0.66908 0.14132 0.1559 0.0
H1154 H 0.71334 0.21023 0.21781 0.0
H1155 H 0.70234 0.1979 0.19343 0.0
H1156 H 0.60905 0.22024 0.1791 0.0
C1157 C 0.59069 0.151 0.13862 0.0
C1158 C 0.65605 0.1587 0.16089 0.0
C1159 C 0.57999 0.14291 0.1255 0.0
C1160 C 0.69022 0.20848 0.21438 0.0
C1161 C 0.68389 0.2013 0.20049 0.0
C1162 C 0.62226 0.20281 0.17426 0.0
C1163 C 0.62061 0.15972 0.14048 0.0
C1164 C 0.63072 0.17084 0.15423 0.0
C1165 C 0.65403 0.19873 0.19581 0.0
C1166 C 0.64695 0.19 0.18123 0.0
H1167 H 0.64431 0.1521 0.10708 0.0
H1168 H 0.66322 0.16578 0.13029 0.0
H1169 H 0.59475 0.20321 0.15592 0.0
H1170 H 0.61881 0.21547 0.22616 0.0
H1171 H 0.6075 0.20217 0.2021 0.0
C1172 C 0.95552 0.07756 0.38746 0.0
C1173 C 0.9842 0.08481 0.38257 0.0
C1174 C 0.94684 0.08562 0.40085 0.0
C1175 C 0.95712 0.1374 0.42927 0.0
H1176 H 0.93099 0.0715 0.45244 0.0
C1177 C 0.92432 0.1535 0.48724 0.0
C1178 C 0.90161 0.13506 0.49252 0.0
C1179 C 0.93546 0.14879 0.47383 0.0
C1180 C 0.9377 0.09031 0.44609 0.0
H1181 H 0.02583 0.10732 0.38775 0.0
H1182 H 0.01012 0.1222 0.41123 0.0
H1183 H 0.94829 0.06162 0.42896 0.0
H1184 H 0.87185 0.09814 0.48767 0.0
H1185 H 0.89014 0.09078 0.4642 0.0
H1186 H 0.94539 0.16633 0.44615 0.0
C1187 C 0.99466 0.10993 0.40462 0.0
C1188 C 0.94787 0.08454 0.43267 0.0
C1189 C 0.00363 0.10137 0.39123 0.0
C1190 C 0.88964 0.11248 0.48398 0.0
C1191 C 0.90036 0.10811 0.47052 0.0
C1192 C 0.9464 0.1433 0.44266 0.0
C1193 C 0.9664 0.10155 0.40961 0.0
C1194 C 0.95743 0.10801 0.4241 0.0
C1195 C 0.92382 0.12582 0.46533 0.0
C1196 C 0.93623 0.11982 0.45121 0.0
H1197 H 0.93996 0.06482 0.3811 0.0
H1198 H 0.92484 0.07912 0.40444 0.0
H1199 H 0.96425 0.15587 0.4228 0.0
H1200 H 0.93414 0.171 0.49361 0.0
H1201 H 0.95371 0.1627 0.4703 0.0
C1202 C 0.17216 0.51494 0.64673 0.0
C1203 C 0.16078 0.49572 0.63633 0.0
C1204 C 0.16414 0.51101 0.66066 0.0
C1205 C 0.10134 0.49231 0.68061 0.0
H1206 H 0.15205 0.46768 0.71149 0.0
C1207 C 0.05222 0.45516 0.73314 0.0
C1208 C 0.06934 0.45897 0.74533 0.0
C1209 C 0.06404 0.46279 0.72018 0.0
C1210 C 0.1376 0.47515 0.70307 0.0
H1211 H 0.13319 0.45649 0.63256 0.0
H1212 H 0.11866 0.4503 0.65682 0.0
H1213 H 0.1737 0.47422 0.68842 0.0
H1214 H 0.11147 0.47569 0.75361 0.0
H1215 H 0.13162 0.4899 0.73116 0.0
H1216 H 0.06539 0.49429 0.6951 0.0
C1217 C 0.134 0.46812 0.65413 0.0
C1218 C 0.15007 0.47866 0.68986 0.0
C1219 C 0.14252 0.4716 0.64028 0.0
C1220 C 0.09782 0.47217 0.74437 0.0
C1221 C 0.10949 0.48011 0.73146 0.0
C1222 C 0.08897 0.48945 0.69385 0.0
C1223 C 0.14415 0.48822 0.66434 0.0
C1224 C 0.13187 0.48667 0.67852 0.0
C1225 C 0.09311 0.47481 0.71913 0.0
C1226 C 0.10679 0.48026 0.70523 0.0
H1227 H 0.18616 0.53382 0.64402 0.0
H1228 H 0.17226 0.52667 0.66843 0.0
H1229 H 0.08702 0.49887 0.67197 0.0
H1230 H 0.03033 0.44478 0.73352 0.0
H1231 H 0.05081 0.45793 0.71096 0.0
C1232 C 0.61046 0.1351 0.4046 0.0
C1233 C 0.58604 0.11605 0.40708 0.0
C1234 C 0.61832 0.14265 0.39101 0.0
C1235 C 0.60738 0.12341 0.35386 0.0
H1236 H 0.61688 0.20896 0.34839 0.0
C1237 C 0.61187 0.17331 0.29892 0.0
C1238 C 0.63385 0.19517 0.29651 0.0
C1239 C 0.60486 0.16471 0.31247 0.0
C1240 C 0.61463 0.18499 0.34974 0.0
H1241 H 0.55255 0.08781 0.39715 0.0
H1242 H 0.56652 0.10074 0.3735 0.0
H1243 H 0.6101 0.18926 0.37179 0.0
H1244 H 0.66472 0.22609 0.30643 0.0
H1245 H 0.65296 0.21061 0.3301 0.0
H1246 H 0.61196 0.11904 0.33184 0.0
C1247 C 0.57943 0.11003 0.38205 0.0
C1248 C 0.61086 0.17368 0.36316 0.0
C1249 C 0.57146 0.10259 0.39564 0.0
C1250 C 0.64757 0.20932 0.30796 0.0
C1251 C 0.6408 0.20042 0.32153 0.0
C1252 C 0.61129 0.1347 0.34044 0.0
C1253 C 0.60212 0.13111 0.37961 0.0
C1254 C 0.60727 0.14276 0.36537 0.0
C1255 C 0.61992 0.17743 0.32392 0.0
C1256 C 0.61498 0.16564 0.33821 0.0
H1257 H 0.62232 0.14575 0.41314 0.0
H1258 H 0.63638 0.15842 0.38944 0.0
H1259 H 0.60478 0.09948 0.35523 0.0
H1260 H 0.60059 0.16226 0.29032 0.0
H1261 H 0.58805 0.14762 0.31397 0.0
C1262 C 0.95061 0.05843 0.66819 0.0
C1263 C 0.97614 0.04058 0.66607 0.0
C1264 C 0.93159 0.06575 0.65701 0.0
C1265 C 0.91597 0.04798 0.61947 0.0
H1266 H 0.89477 0.13213 0.61731 0.0
C1267 C 0.90495 0.11269 0.56824 0.0
C1268 C 0.88024 0.1317 0.56631 0.0
C1269 C 0.90984 0.09851 0.58099 0.0
C1270 C 0.90004 0.10846 0.61786 0.0
H1271 H 0.00068 0.01499 0.65068 0.0
H1272 H 0.9683 0.02818 0.63134 0.0
H1273 H 0.91502 0.11182 0.63899 0.0
H1274 H 0.84239 0.15261 0.57635 0.0
H1275 H 0.85133 0.12815 0.59896 0.0
H1276 H 0.90293 0.0453 0.59801 0.0
C1277 C 0.96245 0.03627 0.64158 0.0
C1278 C 0.91156 0.09673 0.63031 0.0
C1279 C 0.98127 0.02886 0.65272 0.0
C1280 C 0.86116 0.13739 0.57754 0.0
C1281 C 0.86628 0.12348 0.59042 0.0
C1282 C 0.90491 0.05982 0.60699 0.0
C1283 C 0.93776 0.05541 0.64348 0.0
C1284 C 0.92057 0.06653 0.63114 0.0
C1285 C 0.89064 0.10382 0.59222 0.0
C1286 C 0.89762 0.09034 0.60596 0.0
H1287 H 0.94593 0.0677 0.67835 0.0
H1288 H 0.91251 0.08014 0.6589 0.0
H1289 H 0.92193 0.02447 0.61981 0.0
H1290 H 0.92078 0.10914 0.55992 0.0
H1291 H 0.92922 0.08406 0.58218 0.0
C1292 C 0.07272 0.44231 0.92467 0.0
C1293 C 0.10249 0.45155 0.92688 0.0
C1294 C 0.06369 0.43083 0.91178 0.0
C1295 C 0.08772 0.40058 0.87808 0.0
H1296 H 0.02435 0.4507 0.86281 0.0
C1297 C 0.0435 0.43927 0.82121 0.0
C1298 C 0.03493 0.4123 0.81488 0.0
C1299 C 0.05024 0.44015 0.8354 0.0
C1300 C 0.04186 0.43637 0.867 0.0
H1301 H 0.14673 0.45309 0.91775 0.0
H1302 H 0.13092 0.43252 0.89529 0.0
H1303 H 0.03938 0.45639 0.88717 0.0
H1304 H 0.02504 0.36548 0.81829 0.0
H1305 H 0.03799 0.36673 0.84327 0.0
H1306 H 0.0902 0.3808 0.85774 0.0
C1307 C 0.1146 0.4345 0.90351 0.0
C1308 C 0.05033 0.43946 0.88093 0.0
C1309 C 0.12361 0.44634 0.91637 0.0
C1310 C 0.03222 0.38635 0.82299 0.0
C1311 C 0.03962 0.38707 0.83719 0.0
C1312 C 0.07879 0.39706 0.86417 0.0
C1313 C 0.08431 0.42791 0.90093 0.0
C1314 C 0.07363 0.42194 0.88656 0.0
C1315 C 0.04864 0.41403 0.84348 0.0
C1316 C 0.05618 0.41536 0.85847 0.0
H1317 H 0.05588 0.44579 0.93255 0.0
H1318 H 0.04026 0.42556 0.91008 0.0
H1319 H 0.10579 0.38687 0.88219 0.0
H1320 H 0.045 0.45969 0.81517 0.0
H1321 H 0.05717 0.46118 0.84004 0.0
C1322 C 0.67511 0.63848 0.16004 0.0
C1323 C 0.68159 0.61886 0.1711 0.0
C1324 C 0.68616 0.63283 0.14673 0.0
C1325 C 0.71252 0.56849 0.12573 0.0
H1326 H 0.72136 0.62964 0.09743 0.0
C1327 C 0.73482 0.53952 0.06809 0.0
C1328 C 0.71384 0.55226 0.05881 0.0
C1329 C 0.73692 0.54965 0.08185 0.0
C1330 C 0.71907 0.61235 0.10525 0.0
H1331 H 0.70697 0.57951 0.17717 0.0
H1332 H 0.7275 0.57043 0.15412 0.0
H1333 H 0.7164 0.64432 0.12178 0.0
H1334 H 0.67967 0.5866 0.05653 0.0
H1335 H 0.68374 0.6045 0.08047 0.0
H1336 H 0.71521 0.53661 0.10913 0.0
C1337 C 0.71283 0.5895 0.15555 0.0
C1338 C 0.71607 0.62071 0.11921 0.0
C1339 C 0.70134 0.59487 0.16882 0.0
C1340 C 0.69593 0.57616 0.06344 0.0
C1341 C 0.69839 0.58659 0.07711 0.0
C1342 C 0.71601 0.56017 0.11182 0.0
C1343 C 0.7044 0.60768 0.14419 0.0
C1344 C 0.71195 0.59892 0.12962 0.0
C1345 C 0.7185 0.57307 0.08653 0.0
C1346 C 0.71858 0.58201 0.10141 0.0
H1347 H 0.65981 0.65709 0.1614 0.0
H1348 H 0.67881 0.64724 0.13831 0.0
H1349 H 0.70885 0.55098 0.13331 0.0
H1350 H 0.74892 0.52106 0.06487 0.0
H1351 H 0.75269 0.53893 0.0889 0.0
loop_
_geom_bond_atom_site_label_1
_geom_bond_atom_site_label_2
_geom_bond_distance
_geom_bond_site_symmetry_2
_ccdc_geom_bond_type
Mg0 O7 2.141 . S
Mg0 O8 2.031 1_545 S
Mg0 O9 2.048 1_455 S
Mg0 O12 2.141 1_455 S
C1 O2 1.313 . S
C1 O8 1.223 . S
O2 C1 1.313 . S
C3 O4 1.245 . S
C3 O12 1.289 . S
O4 C3 1.245 . S
C5 O6 1.245 . S
C5 O7 1.289 1_565 S
O6 C5 1.245 . S
O7 Mg0 2.141 . S
O7 C5 1.289 1_545 S
O8 Mg0 2.031 1_565 S
O8 C1 1.223 . S
O9 Mg0 2.048 1_655 S
O9 C10 1.195 . S
C10 O9 1.195 . S
C10 O11 1.343 . S
O11 C10 1.343 . S
O12 Mg0 2.141 1_655 S
O12 C3 1.289 . S
Mg13 O20 2.141 . S
Mg13 O21 2.048 . S
Mg13 O22 2.048 . S
Mg13 O25 2.141 . S
C14 O15 1.313 . S
C14 O21 1.195 . S
O15 C14 1.313 . S
C16 O17 1.245 . S
C16 O25 1.289 . S
O17 C16 1.245 . S
C18 O19 1.245 . S
C18 O20 1.289 . S
O19 C18 1.245 . S
O20 Mg13 2.141 . S
O20 C18 1.289 . S
O21 Mg13 2.048 . S
O21 C14 1.195 . S
O22 Mg13 2.048 . S
O22 C23 1.195 . S
C23 O22 1.195 . S
C23 O24 1.313 . S
O24 C23 1.313 . S
O25 Mg13 2.141 . S
O25 C16 1.289 . S
Mg26 O33 2.141 . S
Mg26 O34 2.048 . S
Mg26 O35 2.048 . S
Mg26 O38 2.141 . S
C27 O28 1.313 . S
C27 O34 1.195 . S
O28 C27 1.313 . S
C29 O30 1.245 . S
C29 O38 1.289 . S
O30 C29 1.245 . S
C31 O32 1.245 . S
C31 O33 1.289 . S
O32 C31 1.245 . S
O33 Mg26 2.141 . S
O33 C31 1.289 . S
O34 Mg26 2.048 . S
O34 C27 1.195 . S
O35 Mg26 2.048 . S
O35 C36 1.195 . S
C36 O35 1.195 . S
C36 O37 1.313 . S
O37 C36 1.313 . S
O38 Mg26 2.141 . S
O38 C29 1.289 . S
Mg39 O46 2.141 . S
Mg39 O47 2.048 . S
Mg39 O48 2.048 . S
Mg39 O51 2.141 . S
C40 O41 1.313 . S
C40 O47 1.195 . S
O41 C40 1.313 . S
C42 O43 1.245 . S
C42 O51 1.289 . S
O43 C42 1.245 . S
C44 O45 1.245 . S
C44 O46 1.289 . S
O45 C44 1.245 . S
O46 Mg39 2.141 . S
O46 C44 1.289 . S
O47 Mg39 2.048 . S
O47 C40 1.195 . S
O48 Mg39 2.048 . S
O48 C49 1.195 . S
C49 O48 1.195 . S
C49 O50 1.313 . S
O50 C49 1.313 . S
O51 Mg39 2.141 . S
O51 C42 1.289 . S
Mg52 O59 2.141 . S
Mg52 O60 2.048 . S
Mg52 O61 2.048 . S
Mg52 O64 2.141 . S
C53 O54 1.313 . S
C53 O60 1.195 . S
O54 C53 1.313 . S
C55 O56 1.245 . S
C55 O64 1.289 . S
O56 C55 1.245 . S
C57 O58 1.245 . S
C57 O59 1.289 . S
O58 C57 1.245 . S
O59 Mg52 2.141 . S
O59 C57 1.289 . S
O60 Mg52 2.048 . S
O60 C53 1.195 . S
O61 Mg52 2.048 . S
O61 C62 1.195 . S
C62 O61 1.195 . S
C62 O63 1.313 . S
O63 C62 1.313 . S
O64 Mg52 2.141 . S
O64 C55 1.289 . S
Mg65 O72 2.141 . S
Mg65 O73 2.048 . S
Mg65 O74 2.048 . S
Mg65 O77 2.141 . S
C66 O67 1.313 . S
C66 O73 1.195 . S
O67 C66 1.313 . S
C68 O69 1.245 . S
C68 O77 1.289 . S
O69 C68 1.245 . S
C70 O71 1.245 . S
C70 O72 1.289 . S
O71 C70 1.245 . S
O72 Mg65 2.141 . S
O72 C70 1.289 . S
O73 Mg65 2.048 . S
O73 C66 1.195 . S
O74 Mg65 2.048 . S
O74 C75 1.195 . S
C75 O74 1.195 . S
C75 O76 1.313 . S
O76 C75 1.313 . S
O77 Mg65 2.141 . S
O77 C68 1.289 . S
Mg78 O85 2.141 . S
Mg78 O86 2.048 . S
Mg78 O87 2.048 . S
Mg78 O90 2.141 . S
C79 O80 1.313 . S
C79 O86 1.195 . S
O80 C79 1.313 . S
C81 O82 1.245 . S
C81 O90 1.289 . S
O82 C81 1.245 . S
C83 O84 1.245 . S
C83 O85 1.289 . S
O84 C83 1.245 . S
O85 Mg78 2.141 . S
O85 C83 1.289 . S
O86 Mg78 2.048 . S
O86 C79 1.195 . S
O87 Mg78 2.048 . S
O87 C88 1.195 . S
C88 O87 1.195 . S
C88 O89 1.313 . S
O89 C88 1.313 . S
O90 Mg78 2.141 . S
O90 C81 1.289 . S
Mg91 O98 2.141 1_655 S
Mg91 O99 2.048 1_655 S
Mg91 O100 2.048 1_565 S
Mg91 O103 2.141 1_565 S
C92 O93 1.313 . S
C92 O99 1.195 . S
O93 C92 1.313 . S
C94 O95 1.245 1_655 S
C94 O103 1.289 . S
O95 C94 1.245 1_455 S
C96 O97 1.245 . S
C96 O98 1.289 . S
O97 C96 1.245 . S
O98 Mg91 2.141 1_455 S
O98 C96 1.289 . S
O99 Mg91 2.048 1_455 S
O99 C92 1.195 . S
O100 Mg91 2.048 1_545 S
O100 C101 1.195 . S
C101 O100 1.195 . S
C101 O102 1.313 1_655 S
O102 C101 1.313 1_455 S
O103 Mg91 2.141 1_545 S
O103 C94 1.289 . S
Mn104 O109 2.095 1_554 S
Mn104 O119 2.162 . S
Mn104 O120 2.297 . S
Mn104 O128 2.385 . S
Mn104 O129 2.209 . S
Mn104 O130 2.094 . S
Mn105 O110 2.121 1_554 S
Mn105 N112 2.257 . S
Mn105 N121 2.282 . S
Mn105 O129 2.215 . S
Mn105 O131 2.119 . S
C106 O128 1.234 . S
C106 O129 1.283 . S
C107 O119 1.281 . S
C107 O120 1.236 . S
C108 O130 1.236 1_556 S
C108 O131 1.263 1_556 S
O109 Mn104 2.095 1_556 S
O109 C118 1.250 . S
O110 Mn105 2.121 1_556 S
O110 C118 1.258 . S
C111 N112 1.326 . S
C111 C115 1.460 . S
C111 H117 0.929 1_554 S
N112 Mn105 2.257 . S
N112 C111 1.326 . S
N112 C116 1.362 . S
C113 C114 1.258 . S
C113 C116 1.431 . S
C113 C133 1.449 . S
C114 C113 1.258 . S
C114 C115 1.477 . S
C114 H134 0.931 . S
C115 C111 1.460 . S
C115 C114 1.477 . S
C115 H135 0.930 . S
C116 N112 1.362 . S
C116 C113 1.431 . S
C116 C126 1.476 . S
H117 C111 0.929 1_556 S
C118 O109 1.250 . S
C118 O110 1.258 . S
O119 Mn104 2.162 . S
O119 C107 1.281 . S
O120 Mn104 2.297 . S
O120 C107 1.236 . S
N121 Mn105 2.282 . S
N121 C122 1.328 . S
N121 C126 1.318 . S
C122 N121 1.328 . S
C122 C123 1.457 . S
C122 H127 0.929 . S
C123 C122 1.457 . S
C123 C124 1.291 . S
C123 H136 0.931 . S
C124 C123 1.291 . S
C124 C125 1.373 . S
C124 H137 0.929 . S
C125 C124 1.373 . S
C125 C126 1.396 . S
C125 C132 1.403 . S
C126 C116 1.476 . S
C126 N121 1.318 . S
C126 C125 1.396 . S
H127 C122 0.929 . S
O128 Mn104 2.385 . S
O128 C106 1.234 . S
O129 Mn104 2.209 . S
O129 Mn105 2.215 . S
O129 C106 1.283 . S
O130 Mn104 2.094 . S
O130 C108 1.236 1_554 S
O131 Mn105 2.119 . S
O131 C108 1.263 1_554 S
C132 C125 1.403 . S
C132 C133 1.399 . S
C132 H138 0.929 . S
C133 C113 1.449 . S
C133 C132 1.399 . S
C133 H139 0.930 . S
H134 C114 0.931 . S
H135 C115 0.930 . S
H136 C123 0.931 . S
H137 C124 0.929 . S
H138 C132 0.929 . S
H139 C133 0.930 . S
Mn140 O145 2.095 . S
Mn140 O155 2.162 . S
Mn140 O156 2.297 . S
Mn140 O164 2.385 . S
Mn140 O165 2.209 . S
Mn140 O166 2.094 . S
Mn141 O146 2.121 . S
Mn141 N148 2.257 1_565 S
Mn141 N157 2.282 . S
Mn141 O165 2.215 . S
Mn141 O167 2.117 . S
C142 O164 1.234 . S
C142 O165 1.283 . S
C143 O155 1.281 . S
C143 O156 1.236 . S
C144 O166 1.240 . S
C144 O167 1.264 . S
O145 Mn140 2.095 . S
O145 C154 1.250 . S
O146 Mn141 2.121 . S
O146 C154 1.258 . S
C147 N148 1.326 . S
C147 C151 1.460 . S
C147 H153 0.929 . S
N148 Mn141 2.257 1_545 S
N148 C147 1.326 . S
N148 C152 1.362 1_545 S
C149 C150 1.258 . S
C149 C152 1.431 1_545 S
C149 C169 1.449 . S
C150 C149 1.258 . S
C150 C151 1.477 . S
C150 H170 0.931 . S
C151 C147 1.460 . S
C151 C150 1.477 . S
C151 H171 0.930 . S
C152 N148 1.362 1_565 S
C152 C149 1.431 1_565 S
C152 C162 1.476 . S
H153 C147 0.929 . S
C154 O145 1.250 . S
C154 O146 1.258 . S
O155 Mn140 2.162 . S
O155 C143 1.281 . S
O156 Mn140 2.297 . S
O156 C143 1.236 . S
N157 Mn141 2.282 . S
N157 C158 1.328 . S
N157 C162 1.318 . S
C158 N157 1.328 . S
C158 C159 1.457 . S
C158 H163 0.929 . S
C159 C158 1.457 . S
C159 C160 1.291 . S
C159 H172 0.931 . S
C160 C159 1.291 . S
C160 C161 1.373 . S
C160 H173 0.929 . S
C161 C160 1.373 . S
C161 C162 1.396 . S
C161 C168 1.403 . S
C162 C152 1.476 . S
C162 N157 1.318 . S
C162 C161 1.396 . S
H163 C158 0.929 . S
O164 Mn140 2.385 . S
O164 C142 1.234 . S
O165 Mn140 2.209 . S
O165 Mn141 2.215 . S
O165 C142 1.283 . S
O166 Mn140 2.094 . S
O166 C144 1.240 . S
O167 Mn141 2.117 . S
O167 C144 1.264 . S
C168 C161 1.403 . S
C168 C169 1.399 1_565 S
C168 H174 0.929 . S
C169 C149 1.449 . S
C169 C168 1.399 1_545 S
C169 H175 0.930 . S
H170 C150 0.931 . S
H171 C151 0.930 . S
H172 C159 0.931 . S
H173 C160 0.929 . S
H174 C168 0.929 . S
H175 C169 0.930 . S
Mn176 O181 2.095 . S
Mn176 O191 2.162 . S
Mn176 O192 2.297 . S
Mn176 O200 2.385 . S
Mn176 O201 2.209 . S
Mn176 O202 2.094 . S
Mn177 O182 2.121 . S
Mn177 N184 2.257 . S
Mn177 N193 2.282 . S
Mn177 O201 2.215 . S
Mn177 O203 2.117 . S
C178 O200 1.234 . S
C178 O201 1.283 . S
C179 O191 1.281 . S
C179 O192 1.236 . S
C180 O202 1.240 . S
C180 O203 1.264 . S
O181 Mn176 2.095 . S
O181 C190 1.250 . S
O182 Mn177 2.121 . S
O182 C190 1.258 . S
C183 N184 1.326 . S
C183 C187 1.460 . S
C183 H189 0.929 . S
N184 Mn177 2.257 . S
N184 C183 1.326 . S
N184 C188 1.362 . S
C185 C186 1.258 . S
C185 C188 1.431 . S
C185 C205 1.449 . S
C186 C185 1.258 . S
C186 C187 1.477 . S
C186 H206 0.931 . S
C187 C183 1.460 . S
C187 C186 1.477 . S
C187 H207 0.930 . S
C188 N184 1.362 . S
C188 C185 1.431 . S
C188 C198 1.476 . S
H189 C183 0.929 . S
C190 O181 1.250 . S
C190 O182 1.258 . S
O191 Mn176 2.162 . S
O191 C179 1.281 . S
O192 Mn176 2.297 . S
O192 C179 1.236 . S
N193 Mn177 2.282 . S
N193 C194 1.328 . S
N193 C198 1.318 . S
C194 N193 1.328 . S
C194 C195 1.457 . S
C194 H199 0.929 . S
C195 C194 1.457 . S
C195 C196 1.291 . S
C195 H208 0.931 . S
C196 C195 1.291 . S
C196 C197 1.373 . S
C196 H209 0.929 . S
C197 C196 1.373 . S
C197 C198 1.396 . S
C197 C204 1.403 . S
C198 C188 1.476 . S
C198 N193 1.318 . S
C198 C197 1.396 . S
H199 C194 0.929 . S
O200 Mn176 2.385 . S
O200 C178 1.234 . S
O201 Mn176 2.209 . S
O201 Mn177 2.215 . S
O201 C178 1.283 . S
O202 Mn176 2.094 . S
O202 C180 1.240 . S
O203 Mn177 2.117 . S
O203 C180 1.264 . S
C204 C197 1.403 . S
C204 C205 1.399 . S
C204 H210 0.929 . S
C205 C185 1.449 . S
C205 C204 1.399 . S
C205 H211 0.930 . S
H206 C186 0.931 . S
H207 C187 0.930 . S
H208 C195 0.931 . S
H209 C196 0.929 . S
H210 C204 0.929 . S
H211 C205 0.930 . S
Mn212 O217 2.095 . S
Mn212 O227 2.162 . S
Mn212 O228 2.297 . S
Mn212 O236 2.385 . S
Mn212 O237 2.209 . S
Mn212 O238 2.094 . S
Mn213 O218 2.121 . S
Mn213 N220 2.257 . S
Mn213 N229 2.282 . S
Mn213 O237 2.215 . S
Mn213 O239 2.117 . S
C214 O236 1.234 . S
C214 O237 1.283 . S
C215 O227 1.281 . S
C215 O228 1.236 . S
C216 O238 1.240 . S
C216 O239 1.264 . S
O217 Mn212 2.095 . S
O217 C226 1.250 . S
O218 Mn213 2.121 . S
O218 C226 1.258 . S
C219 N220 1.326 . S
C219 C223 1.460 . S
C219 H225 0.929 . S
N220 Mn213 2.257 . S
N220 C219 1.326 . S
N220 C224 1.362 . S
C221 C222 1.258 . S
C221 C224 1.431 . S
C221 C241 1.449 . S
C222 C221 1.258 . S
C222 C223 1.477 . S
C222 H242 0.931 . S
C223 C219 1.460 . S
C223 C222 1.477 . S
C223 H243 0.930 . S
C224 N220 1.362 . S
C224 C221 1.431 . S
C224 C234 1.476 . S
H225 C219 0.929 . S
C226 O217 1.250 . S
C226 O218 1.258 . S
O227 Mn212 2.162 . S
O227 C215 1.281 . S
O228 Mn212 2.297 . S
O228 C215 1.236 . S
N229 Mn213 2.282 . S
N229 C230 1.328 . S
N229 C234 1.318 . S
C230 N229 1.328 . S
C230 C231 1.457 . S
C230 H235 0.929 . S
C231 C230 1.457 . S
C231 C232 1.291 . S
C231 H244 0.931 . S
C232 C231 1.291 . S
C232 C233 1.373 . S
C232 H245 0.929 . S
C233 C232 1.373 . S
C233 C234 1.396 . S
C233 C240 1.403 . S
C234 C224 1.476 . S
C234 N229 1.318 . S
C234 C233 1.396 . S
H235 C230 0.929 . S
O236 Mn212 2.385 . S
O236 C214 1.234 . S
O237 Mn212 2.209 . S
O237 Mn213 2.215 . S
O237 C214 1.283 . S
O238 Mn212 2.094 . S
O238 C216 1.240 . S
O239 Mn213 2.117 . S
O239 C216 1.264 . S
C240 C233 1.403 . S
C240 C241 1.399 . S
C240 H246 0.929 . S
C241 C221 1.449 . S
C241 C240 1.399 . S
C241 H247 0.930 . S
H242 C222 0.931 . S
H243 C223 0.930 . S
H244 C231 0.931 . S
H245 C232 0.929 . S
H246 C240 0.929 . S
H247 C241 0.930 . S
Mn248 O253 2.095 . S
Mn248 O263 2.162 . S
Mn248 O264 2.297 . S
Mn248 O272 2.385 . S
Mn248 O273 2.209 . S
Mn248 O274 2.094 . S
Mn249 O254 2.121 . S
Mn249 N256 2.257 . S
Mn249 N265 2.282 . S
Mn249 O273 2.215 . S
Mn249 O275 2.117 . S
C250 O272 1.234 . S
C250 O273 1.283 . S
C251 O263 1.281 . S
C251 O264 1.236 . S
C252 O274 1.240 . S
C252 O275 1.264 . S
O253 Mn248 2.095 . S
O253 C262 1.250 . S
O254 Mn249 2.121 . S
O254 C262 1.258 . S
C255 N256 1.326 . S
C255 C259 1.460 . S
C255 H261 0.929 . S
N256 Mn249 2.257 . S
N256 C255 1.326 . S
N256 C260 1.362 . S
C257 C258 1.258 . S
C257 C260 1.431 . S
C257 C277 1.449 . S
C258 C257 1.258 . S
C258 C259 1.477 . S
C258 H278 0.931 . S
C259 C255 1.460 . S
C259 C258 1.477 . S
C259 H279 0.930 . S
C260 N256 1.362 . S
C260 C257 1.431 . S
C260 C270 1.476 . S
H261 C255 0.929 . S
C262 O253 1.250 . S
C262 O254 1.258 . S
O263 Mn248 2.162 . S
O263 C251 1.281 . S
O264 Mn248 2.297 . S
O264 C251 1.236 . S
N265 Mn249 2.282 . S
N265 C266 1.328 . S
N265 C270 1.318 . S
C266 N265 1.328 . S
C266 C267 1.457 . S
C266 H271 0.929 . S
C267 C266 1.457 . S
C267 C268 1.291 . S
C267 H280 0.931 . S
C268 C267 1.291 . S
C268 C269 1.373 . S
C268 H281 0.929 . S
C269 C268 1.373 . S
C269 C270 1.396 . S
C269 C276 1.403 . S
C270 C260 1.476 . S
C270 N265 1.318 . S
C270 C269 1.396 . S
H271 C266 0.929 . S
O272 Mn248 2.385 . S
O272 C250 1.234 . S
O273 Mn248 2.209 . S
O273 Mn249 2.215 . S
O273 C250 1.283 . S
O274 Mn248 2.094 . S
O274 C252 1.240 . S
O275 Mn249 2.117 . S
O275 C252 1.264 . S
C276 C269 1.403 . S
C276 C277 1.399 . S
C276 H282 0.929 . S
C277 C257 1.449 . S
C277 C276 1.399 . S
C277 H283 0.930 . S
H278 C258 0.931 . S
H279 C259 0.930 . S
H280 C267 0.931 . S
H281 C268 0.929 . S
H282 C276 0.929 . S
H283 C277 0.930 . S
Mn284 O289 2.095 . S
Mn284 O299 2.162 . S
Mn284 O300 2.297 . S
Mn284 O308 2.385 . S
Mn284 O309 2.209 . S
Mn284 O310 2.094 . S
Mn285 O290 2.121 1_455 S
Mn285 N292 2.257 . S
Mn285 N301 2.282 . S
Mn285 O309 2.215 1_455 S
Mn285 O311 2.117 1_455 S
C286 O308 1.234 . S
C286 O309 1.283 . S
C287 O299 1.281 . S
C287 O300 1.236 . S
C288 O310 1.240 . S
C288 O311 1.264 . S
O289 Mn284 2.095 . S
O289 C298 1.250 . S
O290 Mn285 2.121 1_655 S
O290 C298 1.258 . S
C291 N292 1.326 . S
C291 C295 1.460 . S
C291 H297 0.929 . S
N292 Mn285 2.257 . S
N292 C291 1.326 . S
N292 C296 1.362 . S
C293 C294 1.258 . S
C293 C296 1.431 . S
C293 C313 1.449 . S
C294 C293 1.258 . S
C294 C295 1.477 . S
C294 H314 0.931 . S
C295 C291 1.460 . S
C295 C294 1.477 . S
C295 H315 0.930 . S
C296 N292 1.362 . S
C296 C293 1.431 . S
C296 C306 1.476 . S
H297 C291 0.929 . S
C298 O289 1.250 . S
C298 O290 1.258 . S
O299 Mn284 2.162 . S
O299 C287 1.281 . S
O300 Mn284 2.297 . S
O300 C287 1.236 . S
N301 Mn285 2.282 . S
N301 C302 1.328 . S
N301 C306 1.318 . S
C302 N301 1.328 . S
C302 C303 1.457 . S
C302 H307 0.929 1_455 S
C303 C302 1.457 . S
C303 C304 1.291 . S
C303 H316 0.931 . S
C304 C303 1.291 . S
C304 C305 1.373 . S
C304 H317 0.929 . S
C305 C304 1.373 . S
C305 C306 1.396 . S
C305 C312 1.403 . S
C306 C296 1.476 . S
C306 N301 1.318 . S
C306 C305 1.396 . S
H307 C302 0.929 1_655 S
O308 Mn284 2.385 . S
O308 C286 1.234 . S
O309 Mn284 2.209 . S
O309 Mn285 2.215 1_655 S
O309 C286 1.283 . S
O310 Mn284 2.094 . S
O310 C288 1.240 . S
O311 Mn285 2.117 1_655 S
O311 C288 1.264 . S
C312 C305 1.403 . S
C312 C313 1.399 . S
C312 H318 0.929 . S
C313 C293 1.449 . S
C313 C312 1.399 . S
C313 H319 0.930 . S
H314 C294 0.931 . S
H315 C295 0.930 . S
H316 C303 0.931 . S
H317 C304 0.929 . S
H318 C312 0.929 . S
H319 C313 0.930 . S
Mn320 O325 2.095 . S
Mn320 O335 2.162 . S
Mn320 O336 2.297 . S
Mn320 O344 2.385 1_554 S
Mn320 O345 2.209 . S
Mn320 O346 2.094 . S
Mn321 O326 2.121 . S
Mn321 N328 2.257 . S
Mn321 N337 2.282 . S
Mn321 O345 2.215 . S
Mn321 O347 2.117 . S
C322 O344 1.223 1_554 S
C322 O345 1.346 . S
C323 O335 1.281 . S
C323 O336 1.236 . S
C324 O346 1.240 . S
C324 O347 1.264 . S
O325 Mn320 2.095 . S
O325 C334 1.250 . S
O326 Mn321 2.121 . S
O326 C334 1.258 . S
C327 N328 1.326 . S
C327 C331 1.460 . S
C327 H333 0.929 . S
N328 Mn321 2.257 . S
N328 C327 1.326 . S
N328 C332 1.362 . S
C329 C330 1.258 . S
C329 C332 1.431 . S
C329 C349 1.449 1_554 S
C330 C329 1.258 . S
C330 C331 1.477 . S
C330 H350 0.931 . S
C331 C327 1.460 . S
C331 C330 1.477 . S
C331 H351 0.930 . S
C332 N328 1.362 . S
C332 C329 1.431 . S
C332 C342 1.476 . S
H333 C327 0.929 . S
C334 O325 1.250 . S
C334 O326 1.258 . S
O335 Mn320 2.162 . S
O335 C323 1.281 . S
O336 Mn320 2.297 . S
O336 C323 1.236 . S
N337 Mn321 2.282 . S
N337 C338 1.328 . S
N337 C342 1.318 . S
C338 N337 1.328 . S
C338 C339 1.457 1_554 S
C338 H343 0.929 . S
C339 C338 1.457 1_556 S
C339 C340 1.291 . S
C339 H352 0.931 . S
C340 C339 1.291 . S
C340 C341 1.373 . S
C340 H353 0.929 . S
C341 C340 1.373 . S
C341 C342 1.396 1_556 S
C341 C348 1.403 . S
C342 C332 1.476 . S
C342 N337 1.318 . S
C342 C341 1.396 1_554 S
H343 C338 0.929 . S
O344 Mn320 2.385 1_556 S
O344 C322 1.223 1_556 S
O345 Mn320 2.209 . S
O345 Mn321 2.215 . S
O345 C322 1.346 . S
O346 Mn320 2.094 . S
O346 C324 1.240 . S
O347 Mn321 2.117 . S
O347 C324 1.264 . S
C348 C341 1.403 . S
C348 C349 1.399 . S
C348 H354 0.929 . S
C349 C329 1.449 1_556 S
C349 C348 1.399 . S
C349 H355 0.930 . S
H350 C330 0.931 . S
H351 C331 0.930 . S
H352 C339 0.931 . S
H353 C340 0.929 . S
H354 C348 0.929 . S
H355 C349 0.930 . S
Mn356 O361 2.095 . S
Mn356 O371 2.162 . S
Mn356 O372 2.297 . S
Mn356 O380 2.385 . S
Mn356 O381 2.209 . S
Mn356 O382 2.094 . S
Mn357 O362 2.121 . S
Mn357 N364 2.257 . S
Mn357 N373 2.282 . S
Mn357 O381 2.215 . S
Mn357 O383 2.117 . S
C358 O380 1.234 . S
C358 O381 1.283 . S
C359 O371 1.281 . S
C359 O372 1.236 . S
C360 O382 1.240 . S
C360 O383 1.264 . S
O361 Mn356 2.095 . S
O361 C370 1.250 . S
O362 Mn357 2.121 . S
O362 C370 1.258 . S
C363 N364 1.326 . S
C363 C367 1.460 . S
C363 H369 0.929 . S
N364 Mn357 2.257 . S
N364 C363 1.326 . S
N364 C368 1.362 . S
C365 C366 1.258 . S
C365 C368 1.431 . S
C365 C385 1.449 . S
C366 C365 1.258 . S
C366 C367 1.477 . S
C366 H386 0.931 . S
C367 C363 1.460 . S
C367 C366 1.477 . S
C367 H387 0.930 . S
C368 N364 1.362 . S
C368 C365 1.431 . S
C368 C378 1.476 . S
H369 C363 0.929 . S
C370 O361 1.250 . S
C370 O362 1.258 . S
O371 Mn356 2.162 . S
O371 C359 1.281 . S
O372 Mn356 2.297 . S
O372 C359 1.236 . S
N373 Mn357 2.282 . S
N373 C374 1.328 . S
N373 C378 1.318 . S
C374 N373 1.328 . S
C374 C375 1.457 . S
C374 H379 0.929 . S
C375 C374 1.457 . S
C375 C376 1.291 . S
C375 H388 0.931 . S
C376 C375 1.291 . S
C376 C377 1.373 . S
C376 H389 0.929 . S
C377 C376 1.373 . S
C377 C378 1.396 . S
C377 C384 1.403 . S
C378 C368 1.476 . S
C378 N373 1.318 . S
C378 C377 1.396 . S
H379 C374 0.929 . S
O380 Mn356 2.385 . S
O380 C358 1.234 . S
O381 Mn356 2.209 . S
O381 Mn357 2.215 . S
O381 C358 1.283 . S
O382 Mn356 2.094 . S
O382 C360 1.240 . S
O383 Mn357 2.117 . S
O383 C360 1.264 . S
C384 C377 1.403 . S
C384 C385 1.399 . S
C384 H390 0.929 . S
C385 C365 1.449 . S
C385 C384 1.399 . S
C385 H391 0.930 . S
H386 C366 0.931 . S
H387 C367 0.930 . S
H388 C375 0.931 . S
H389 C376 0.929 . S
H390 C384 0.929 . S
H391 C385 0.930 . S
C392 C393 1.349 . S
C392 C394 1.327 . S
C392 H417 0.950 . S
C393 C392 1.349 . S
C393 C409 1.349 1_565 S
C394 C392 1.327 . S
C394 C413 1.429 . S
C394 H418 0.950 . S
C395 C412 1.574 . S
C395 C414 1.368 . S
C395 H419 0.949 1_565 S
H396 C400 0.949 . S
C397 C398 1.349 . S
C397 C399 1.327 . S
C397 H420 0.950 . S
C398 C397 1.349 . S
C398 C410 1.349 . S
C399 C397 1.327 . S
C399 C415 1.429 . S
C399 H421 0.950 . S
C400 H396 0.949 . S
C400 C408 1.574 . S
C400 C416 1.368 . S
H401 C409 0.950 . S
H402 C407 0.950 1_545 S
H403 C408 0.949 . S
H404 C410 0.950 . S
H405 C411 0.950 . S
H406 C412 0.949 . S
C407 H402 0.950 1_565 S
C407 C409 1.327 1_565 S
C407 C413 1.429 . S
C408 C400 1.574 . S
C408 H403 0.949 . S
C408 C414 1.368 . S
C409 C393 1.349 1_545 S
C409 H401 0.950 . S
C409 C407 1.327 1_545 S
C410 C398 1.349 . S
C410 H404 0.950 . S
C410 C411 1.327 . S
C411 H405 0.950 . S
C411 C410 1.327 . S
C411 C415 1.429 . S
C412 C395 1.574 . S
C412 H406 0.949 . S
C412 C416 1.368 . S
C413 C394 1.429 . S
C413 C407 1.429 . S
C413 C414 1.523 . S
C414 C395 1.368 . S
C414 C408 1.368 . S
C414 C413 1.523 . S
C415 C399 1.429 . S
C415 C411 1.429 . S
C415 C416 1.523 . S
C416 C400 1.368 . S
C416 C412 1.368 . S
C416 C415 1.523 . S
H417 C392 0.950 . S
H418 C394 0.950 . S
H419 C395 0.949 1_545 S
H420 C397 0.950 . S
H421 C399 0.950 . S
C422 C423 1.349 . S
C422 C424 1.327 . S
C422 H447 0.950 . S
C423 C422 1.349 . S
C423 C439 1.349 . S
C424 C422 1.327 . S
C424 C443 1.429 . S
C424 H448 0.950 . S
C425 C442 1.574 . S
C425 C444 1.368 . S
C425 H449 0.949 . S
H426 C430 0.949 . S
C427 C428 1.349 . S
C427 C429 1.327 . S
C427 H450 0.950 . S
C428 C427 1.349 . S
C428 C440 1.349 . S
C429 C427 1.327 . S
C429 C445 1.429 . S
C429 H451 0.950 . S
C430 H426 0.949 . S
C430 C438 1.574 . S
C430 C446 1.368 . S
H431 C439 0.950 . S
H432 C437 0.950 . S
H433 C438 0.949 . S
H434 C440 0.950 . S
H435 C441 0.950 . S
H436 C442 0.949 . S
C437 H432 0.950 . S
C437 C439 1.327 . S
C437 C443 1.429 . S
C438 C430 1.574 . S
C438 H433 0.949 . S
C438 C444 1.368 . S
C439 C423 1.349 . S
C439 H431 0.950 . S
C439 C437 1.327 . S
C440 C428 1.349 . S
C440 H434 0.950 . S
C440 C441 1.327 . S
C441 H435 0.950 . S
C441 C440 1.327 . S
C441 C445 1.429 . S
C442 C425 1.574 . S
C442 H436 0.949 . S
C442 C446 1.368 . S
C443 C424 1.429 . S
C443 C437 1.429 . S
C443 C444 1.523 . S
C444 C425 1.368 . S
C444 C438 1.368 . S
C444 C443 1.523 . S
C445 C429 1.429 . S
C445 C441 1.429 . S
C445 C446 1.523 . S
C446 C430 1.368 . S
C446 C442 1.368 . S
C446 C445 1.523 . S
H447 C422 0.950 . S
H448 C424 0.950 . S
H449 C425 0.949 . S
H450 C427 0.950 . S
H451 C429 0.950 . S
C452 C453 1.349 . S
C452 C454 1.327 . S
C452 H477 0.950 . S
C453 C452 1.349 . S
C453 C469 1.349 . S
C454 C452 1.327 . S
C454 C473 1.429 . S
C454 H478 0.950 . S
C455 C472 1.574 . S
C455 C474 1.368 . S
C455 H479 0.949 . S
H456 C460 0.949 . S
C457 C458 1.349 . S
C457 C459 1.327 . S
C457 H480 0.950 . S
C458 C457 1.349 . S
C458 C470 1.349 . S
C459 C457 1.327 . S
C459 C475 1.429 . S
C459 H481 0.950 . S
C460 H456 0.949 . S
C460 C468 1.574 . S
C460 C476 1.368 . S
H461 C469 0.950 . S
H462 C467 0.950 . S
H463 C468 0.949 . S
H464 C470 0.950 . S
H465 C471 0.950 . S
H466 C472 0.949 . S
C467 H462 0.950 . S
C467 C469 1.327 . S
C467 C473 1.429 . S
C468 C460 1.574 . S
C468 H463 0.949 . S
C468 C474 1.368 . S
C469 C453 1.349 . S
C469 H461 0.950 . S
C469 C467 1.327 . S
C470 C458 1.349 . S
C470 H464 0.950 . S
C470 C471 1.327 . S
C471 H465 0.950 . S
C471 C470 1.327 . S
C471 C475 1.429 . S
C472 C455 1.574 . S
C472 H466 0.949 . S
C472 C476 1.368 . S
C473 C454 1.429 . S
C473 C467 1.429 . S
C473 C474 1.523 . S
C474 C455 1.368 . S
C474 C468 1.368 . S
C474 C473 1.523 . S
C475 C459 1.429 . S
C475 C471 1.429 . S
C475 C476 1.523 . S
C476 C460 1.368 . S
C476 C472 1.368 . S
C476 C475 1.523 . S
H477 C452 0.950 . S
H478 C454 0.950 . S
H479 C455 0.949 . S
H480 C457 0.950 . S
H481 C459 0.950 . S
C482 C483 1.349 . S
C482 C484 1.327 . S
C482 H507 0.950 . S
C483 C482 1.349 . S
C483 C499 1.349 . S
C484 C482 1.327 . S
C484 C503 1.429 . S
C484 H508 0.950 . S
C485 C502 1.583 . S
C485 C504 1.361 1_565 S
C485 H509 0.948 1_565 S
H486 C490 0.949 . S
C487 C488 1.349 . S
C487 C489 1.327 . S
C487 H510 0.950 . S
C488 C487 1.349 . S
C488 C500 1.349 . S
C489 C487 1.327 . S
C489 C505 1.429 . S
C489 H511 0.950 . S
C490 H486 0.949 . S
C490 C498 1.574 1_565 S
C490 C506 1.368 . S
H491 C499 0.950 . S
H492 C497 0.950 . S
H493 C498 0.949 . S
H494 C500 1.033 . S
H495 C501 0.950 . S
H496 C502 0.949 . S
C497 H492 0.950 . S
C497 C499 1.327 . S
C497 C503 1.429 . S
C498 C490 1.574 1_545 S
C498 H493 0.949 . S
C498 C504 1.368 . S
C499 C483 1.349 . S
C499 H491 0.950 . S
C499 C497 1.327 . S
C500 C488 1.349 . S
C500 H494 1.033 . S
C500 C501 1.327 . S
C501 H495 0.950 . S
C501 C500 1.327 . S
C501 C505 1.429 . S
C502 C485 1.583 . S
C502 H496 0.949 . S
C502 C506 1.368 . S
C503 C484 1.429 . S
C503 C497 1.429 . S
C503 C504 1.523 . S
C504 C485 1.361 1_545 S
C504 C498 1.368 . S
C504 C503 1.523 . S
C505 C489 1.429 . S
C505 C501 1.429 . S
C505 C506 1.523 . S
C506 C490 1.368 . S
C506 C502 1.368 . S
C506 C505 1.523 . S
H507 C482 0.950 . S
H508 C484 0.950 . S
H509 C485 0.948 1_545 S
H510 C487 0.950 . S
H511 C489 0.950 . S
C512 C513 1.349 . S
C512 C514 1.327 . S
C512 H537 0.950 . S
C513 C512 1.349 . S
C513 C529 1.349 . S
C514 C512 1.327 . S
C514 C533 1.429 . S
C514 H538 0.950 . S
C515 C532 1.574 . S
C515 C534 1.368 . S
C515 H539 0.949 . S
H516 C520 0.949 . S
C517 C518 1.349 . S
C517 C519 1.327 . S
C517 H540 0.950 . S
C518 C517 1.349 . S
C518 C530 1.349 1_556 S
C519 C517 1.327 . S
C519 C535 1.429 . S
C519 H541 0.950 . S
C520 H516 0.949 . S
C520 C528 1.574 . S
C520 C536 1.368 . S
H521 C529 0.950 . S
H522 C527 0.950 . S
H523 C528 0.949 . S
H524 C530 0.950 . S
H525 C531 0.950 1_554 S
H526 C532 0.949 . S
C527 H522 0.950 . S
C527 C529 1.327 . S
C527 C533 1.429 . S
C528 C520 1.574 . S
C528 H523 0.949 . S
C528 C534 1.368 . S
C529 C513 1.349 . S
C529 H521 0.950 . S
C529 C527 1.327 . S
C530 C518 1.349 1_554 S
C530 H524 0.950 . S
C530 C531 1.327 1_554 S
C531 H525 0.950 1_556 S
C531 C530 1.327 1_556 S
C531 C535 1.429 . S
C532 C515 1.574 . S
C532 H526 0.949 . S
C532 C536 1.368 . S
C533 C514 1.429 . S
C533 C527 1.429 . S
C533 C534 1.523 . S
C534 C515 1.368 . S
C534 C528 1.368 . S
C534 C533 1.523 . S
C535 C519 1.429 . S
C535 C531 1.429 . S
C535 C536 1.523 . S
C536 C520 1.368 . S
C536 C532 1.368 . S
C536 C535 1.523 . S
H537 C512 0.950 . S
H538 C514 0.950 . S
H539 C515 0.949 . S
H540 C517 0.950 . S
H541 C519 0.950 . S
C542 C543 1.349 . S
C542 C544 1.327 . S
C542 H567 0.950 . S
C543 C542 1.349 . S
C543 C559 1.349 . S
C544 C542 1.327 . S
C544 C563 1.429 . S
C544 H568 0.950 . S
C545 C562 1.574 . S
C545 C564 1.368 . S
C545 H569 0.949 . S
H546 C550 0.949 . S
C547 C548 1.349 . S
C547 C549 1.327 . S
C547 H570 0.950 . S
C548 C547 1.349 . S
C548 C560 1.349 . S
C549 C547 1.327 . S
C549 C565 1.429 . S
C549 H571 0.950 . S
C550 H546 0.949 . S
C550 C558 1.574 . S
C550 C566 1.368 . S
H551 C559 0.950 . S
H552 C557 0.950 . S
H553 C558 0.949 . S
H554 C560 0.950 . S
H555 C561 0.950 . S
H556 C562 0.949 . S
C557 H552 0.950 . S
C557 C559 1.327 . S
C557 C563 1.429 . S
C558 C550 1.574 . S
C558 H553 0.949 . S
C558 C564 1.368 . S
C559 C543 1.349 . S
C559 H551 0.950 . S
C559 C557 1.327 . S
C560 C548 1.349 . S
C560 H554 0.950 . S
C560 C561 1.327 . S
C561 H555 0.950 . S
C561 C560 1.327 . S
C561 C565 1.429 . S
C562 C545 1.574 . S
C562 H556 0.949 . S
C562 C566 1.368 . S
C563 C544 1.429 . S
C563 C557 1.429 . S
C563 C564 1.523 . S
C564 C545 1.368 . S
C564 C558 1.368 . S
C564 C563 1.523 . S
C565 C549 1.429 . S
C565 C561 1.429 . S
C565 C566 1.523 . S
C566 C550 1.368 . S
C566 C562 1.368 . S
C566 C565 1.523 . S
H567 C542 0.950 . S
H568 C544 0.950 . S
H569 C545 0.949 . S
H570 C547 0.950 . S
H571 C549 0.950 . S
C572 C573 1.349 . S
C572 C574 1.327 . S
C572 H597 0.950 . S
C573 C572 1.349 . S
C573 C589 1.349 . S
C574 C572 1.327 . S
C574 C593 1.429 . S
C574 H598 0.950 . S
C575 C592 1.574 . S
C575 C594 1.368 1_565 S
C575 H599 0.949 . S
H576 C580 0.949 . S
C577 C578 1.349 . S
C577 C579 1.327 . S
C577 H600 0.950 . S
C578 C577 1.349 . S
C578 C590 1.349 . S
C579 C577 1.327 . S
C579 C595 1.429 . S
C579 H601 0.950 . S
C580 H576 0.949 . S
C580 C588 1.574 . S
C580 C596 1.368 1_545 S
H581 C589 0.950 . S
H582 C587 0.950 . S
H583 C588 0.949 . S
H584 C590 0.950 . S
H585 C591 0.950 . S
H586 C592 0.949 . S
C587 H582 0.950 . S
C587 C589 1.327 . S
C587 C593 1.429 . S
C588 C580 1.574 . S
C588 H583 0.949 . S
C588 C594 1.368 . S
C589 C573 1.349 . S
C589 H581 0.950 . S
C589 C587 1.327 . S
C590 C578 1.349 . S
C590 H584 0.950 . S
C590 C591 1.327 . S
C591 H585 0.950 . S
C591 C590 1.327 . S
C591 C595 1.429 . S
C592 C575 1.574 . S
C592 H586 0.949 . S
C592 C596 1.368 . S
C593 C574 1.429 . S
C593 C587 1.429 . S
C593 C594 1.523 . S
C594 C575 1.368 1_545 S
C594 C588 1.368 . S
C594 C593 1.523 . S
C595 C579 1.429 . S
C595 C591 1.429 . S
C595 C596 1.523 . S
C596 C580 1.368 1_565 S
C596 C592 1.368 . S
C596 C595 1.523 . S
H597 C572 0.950 . S
H598 C574 0.950 . S
H599 C575 0.949 . S
H600 C577 0.950 . S
H601 C579 0.950 . S
C602 C603 1.349 . S
C602 C604 1.327 . S
C602 H627 0.950 . S
C603 C602 1.349 . S
C603 C619 1.349 . S
C604 C602 1.327 . S
C604 C623 1.429 . S
C604 H628 0.950 . S
C605 C622 1.574 . S
C605 C624 1.368 . S
C605 H629 0.949 . S
H606 C610 0.949 . S
C607 C608 1.349 . S
C607 C609 1.327 . S
C607 H630 0.950 . S
C608 C607 1.349 . S
C608 C620 1.349 . S
C609 C607 1.327 . S
C609 C625 1.429 . S
C609 H631 0.950 . S
C610 H606 0.949 . S
C610 C618 1.574 . S
C610 C626 1.368 . S
H611 C619 0.950 . S
H612 C617 0.950 . S
H613 C618 0.949 . S
H614 C620 0.950 . S
H615 C621 0.950 . S
H616 C622 0.949 . S
C617 H612 0.950 . S
C617 C619 1.327 . S
C617 C623 1.429 . S
C618 C610 1.574 . S
C618 H613 0.949 . S
C618 C624 1.368 . S
C619 C603 1.349 . S
C619 H611 0.950 . S
C619 C617 1.327 . S
C620 C608 1.349 . S
C620 H614 0.950 . S
C620 C621 1.327 . S
C621 H615 0.950 . S
C621 C620 1.327 . S
C621 C625 1.429 . S
C622 C605 1.574 . S
C622 H616 0.949 . S
C622 C626 1.368 . S
C623 C604 1.429 . S
C623 C617 1.429 . S
C623 C624 1.523 . S
C624 C605 1.368 . S
C624 C618 1.368 . S
C624 C623 1.523 . S
C625 C609 1.429 . S
C625 C621 1.429 . S
C625 C626 1.523 . S
C626 C610 1.368 . S
C626 C622 1.368 . S
C626 C625 1.523 . S
H627 C602 0.950 . S
H628 C604 0.950 . S
H629 C605 0.949 . S
H630 C607 0.950 . S
H631 C609 0.950 . S
C632 C633 1.349 . S
C632 C634 1.327 . S
C632 H657 0.950 . S
C633 C632 1.349 . S
C633 C649 1.349 . S
C634 C632 1.327 . S
C634 C653 1.429 . S
C634 H658 0.950 . S
C635 C652 1.574 . S
C635 C654 1.368 . S
C635 H659 0.949 . S
H636 C640 0.949 . S
C637 C638 1.349 . S
C637 C639 1.327 . S
C637 H660 0.950 . S
C638 C637 1.349 . S
C638 C650 1.349 . S
C639 C637 1.327 . S
C639 C655 1.429 . S
C639 H661 0.950 . S
C640 H636 0.949 . S
C640 C648 1.574 . S
C640 C656 1.368 . S
H641 C649 0.950 . S
H642 C647 0.950 . S
H643 C648 0.949 . S
H644 C650 0.950 . S
H645 C651 0.950 . S
H646 C652 0.949 . S
C647 H642 0.950 . S
C647 C649 1.327 . S
C647 C653 1.429 . S
C648 C640 1.574 . S
C648 H643 0.949 . S
C648 C654 1.368 . S
C649 C633 1.349 . S
C649 H641 0.950 . S
C649 C647 1.327 . S
C650 C638 1.349 . S
C650 H644 0.950 . S
C650 C651 1.327 . S
C651 H645 0.950 . S
C651 C650 1.327 . S
C651 C655 1.429 . S
C652 C635 1.574 . S
C652 H646 0.949 . S
C652 C656 1.368 . S
C653 C634 1.429 . S
C653 C647 1.429 . S
C653 C654 1.523 . S
C654 C635 1.368 . S
C654 C648 1.368 . S
C654 C653 1.523 . S
C655 C639 1.429 . S
C655 C651 1.429 . S
C655 C656 1.523 . S
C656 C640 1.368 . S
C656 C652 1.368 . S
C656 C655 1.523 . S
H657 C632 0.950 . S
H658 C634 0.950 . S
H659 C635 0.949 . S
H660 C637 0.950 . S
H661 C639 0.950 . S
C662 C663 1.349 . S
C662 C664 1.327 . S
C662 H687 0.950 . S
C663 C662 1.349 . S
C663 C679 1.349 . S
C664 C662 1.327 . S
C664 C683 1.429 . S
C664 H688 0.950 . S
C665 C682 1.574 . S
C665 C684 1.368 . S
C665 H689 0.949 . S
H666 C670 0.949 . S
C667 C668 1.349 . S
C667 C669 1.327 . S
C667 H690 0.950 . S
C668 C667 1.349 . S
C668 C680 1.349 . S
C669 C667 1.327 . S
C669 C685 1.429 . S
C669 H691 0.950 . S
C670 H666 0.949 . S
C670 C678 1.574 . S
C670 C686 1.368 . S
H671 C679 0.950 . S
H672 C677 0.950 . S
H673 C678 0.949 . S
H674 C680 0.950 . S
H675 C681 0.950 . S
H676 C682 0.949 . S
C677 H672 0.950 . S
C677 C679 1.327 . S
C677 C683 1.429 . S
C678 C670 1.574 . S
C678 H673 0.949 . S
C678 C684 1.368 . S
C679 C663 1.349 . S
C679 H671 0.950 . S
C679 C677 1.327 . S
C680 C668 1.349 . S
C680 H674 0.950 . S
C680 C681 1.327 . S
C681 H675 0.950 . S
C681 C680 1.327 . S
C681 C685 1.429 . S
C682 C665 1.574 . S
C682 H676 0.949 . S
C682 C686 1.368 . S
C683 C664 1.429 . S
C683 C677 1.429 . S
C683 C684 1.523 . S
C684 C665 1.368 . S
C684 C678 1.368 . S
C684 C683 1.523 . S
C685 C669 1.429 . S
C685 C681 1.429 . S
C685 C686 1.523 . S
C686 C670 1.368 . S
C686 C682 1.368 . S
C686 C685 1.523 . S
H687 C662 0.950 . S
H688 C664 0.950 . S
H689 C665 0.949 . S
H690 C667 0.950 . S
H691 C669 0.950 . S
C692 C693 1.349 . S
C692 C694 1.327 . S
C692 H717 0.950 . S
C693 C692 1.349 . S
C693 C709 1.349 . S
C694 C692 1.327 . S
C694 C713 1.429 . S
C694 H718 0.950 . S
C695 C712 1.574 . S
C695 C714 1.368 . S
C695 H719 0.949 . S
H696 C700 0.949 . S
C697 C698 1.349 . S
C697 C699 1.327 . S
C697 H720 0.950 . S
C698 C697 1.349 . S
C698 C710 1.349 . S
C699 C697 1.327 . S
C699 C715 1.429 . S
C699 H721 0.950 . S
C700 H696 0.949 . S
C700 C708 1.574 . S
C700 C716 1.368 . S
H701 C709 0.950 . S
H702 C707 0.950 . S
H703 C708 0.949 . S
H704 C710 0.950 . S
H705 C711 0.950 . S
H706 C712 0.949 . S
C707 H702 0.950 . S
C707 C709 1.327 . S
C707 C713 1.429 . S
C708 C700 1.574 . S
C708 H703 0.949 . S
C708 C714 1.368 . S
C709 C693 1.349 . S
C709 H701 0.950 . S
C709 C707 1.327 . S
C710 C698 1.349 . S
C710 H704 0.950 . S
C710 C711 1.327 . S
C711 H705 0.950 . S
C711 C710 1.327 . S
C711 C715 1.429 . S
C712 C695 1.574 . S
C712 H706 0.949 . S
C712 C716 1.368 . S
C713 C694 1.429 . S
C713 C707 1.429 . S
C713 C714 1.523 . S
C714 C695 1.368 . S
C714 C708 1.368 . S
C714 C713 1.523 . S
C715 C699 1.429 . S
C715 C711 1.429 . S
C715 C716 1.523 . S
C716 C700 1.368 . S
C716 C712 1.368 . S
C716 C715 1.523 . S
H717 C692 0.950 . S
H718 C694 0.950 . S
H719 C695 0.949 . S
H720 C697 0.950 . S
H721 C699 0.950 . S
C722 C723 1.349 . S
C722 C724 1.327 . S
C722 H747 0.950 . S
C723 C722 1.349 . S
C723 C739 1.349 . S
C724 C722 1.327 . S
C724 C743 1.429 . S
C724 H748 0.950 . S
C725 C742 1.574 1_455 S
C725 C744 1.368 . S
C725 H749 0.950 . S
H726 C730 0.949 . S
C727 C728 1.349 . S
C727 C729 1.327 . S
C727 H750 0.950 . S
C728 C727 1.349 . S
C728 C740 1.349 . S
C729 C727 1.327 . S
C729 C745 1.429 . S
C729 H751 0.950 . S
C730 H726 0.949 . S
C730 C738 1.574 . S
C730 C746 1.368 1_455 S
H731 C739 0.950 . S
H732 C737 0.950 . S
H733 C738 0.949 . S
H734 C740 0.950 . S
H735 C741 0.950 . S
H736 C742 0.949 . S
C737 H732 0.950 . S
C737 C739 1.327 . S
C737 C743 1.429 . S
C738 C730 1.574 . S
C738 H733 0.949 . S
C738 C744 1.368 . S
C739 C723 1.349 . S
C739 H731 0.950 . S
C739 C737 1.327 . S
C740 C728 1.349 . S
C740 H734 0.950 . S
C740 C741 1.327 . S
C741 H735 0.950 . S
C741 C740 1.327 . S
C741 C745 1.429 . S
C742 C725 1.574 1_655 S
C742 H736 0.949 . S
C742 C746 1.368 . S
C743 C724 1.429 . S
C743 C737 1.429 . S
C743 C744 1.523 . S
C744 C725 1.368 . S
C744 C738 1.368 . S
C744 C743 1.523 . S
C745 C729 1.429 . S
C745 C741 1.429 . S
C745 C746 1.523 . S
C746 C730 1.368 1_655 S
C746 C742 1.368 . S
C746 C745 1.523 . S
H747 C722 0.950 . S
H748 C724 0.950 . S
H749 C725 0.950 . S
H750 C727 0.950 . S
H751 C729 0.950 . S
C752 C753 1.349 . S
C752 C754 1.327 . S
C752 H777 0.950 . S
C753 C752 1.349 . S
C753 C769 1.349 . S
C754 C752 1.327 . S
C754 C773 1.429 . S
C754 H778 0.950 . S
C755 C772 1.574 . S
C755 C774 1.368 . S
C755 H779 0.949 . S
H756 C760 0.949 . S
C757 C758 1.349 . S
C757 C759 1.327 . S
C757 H780 0.950 . S
C758 C757 1.349 . S
C758 C770 1.349 . S
C759 C757 1.327 . S
C759 C775 1.429 . S
C759 H781 0.950 . S
C760 H756 0.949 . S
C760 C768 1.574 . S
C760 C776 1.368 . S
H761 C769 0.950 . S
H762 C767 0.950 . S
H763 C768 0.949 . S
H764 C770 0.950 . S
H765 C771 0.950 . S
H766 C772 0.949 . S
C767 H762 0.950 . S
C767 C769 1.327 . S
C767 C773 1.429 . S
C768 C760 1.574 . S
C768 H763 0.949 . S
C768 C774 1.368 . S
C769 C753 1.349 . S
C769 H761 0.950 . S
C769 C767 1.327 . S
C770 C758 1.349 . S
C770 H764 0.950 . S
C770 C771 1.327 . S
C771 H765 0.950 . S
C771 C770 1.327 . S
C771 C775 1.429 . S
C772 C755 1.574 . S
C772 H766 0.949 . S
C772 C776 1.368 . S
C773 C754 1.429 . S
C773 C767 1.429 . S
C773 C774 1.523 . S
C774 C755 1.368 . S
C774 C768 1.368 . S
C774 C773 1.523 . S
C775 C759 1.429 . S
C775 C771 1.429 . S
C775 C776 1.523 . S
C776 C760 1.368 . S
C776 C772 1.368 . S
C776 C775 1.523 . S
H777 C752 0.950 . S
H778 C754 0.950 . S
H779 C755 0.949 . S
H780 C757 0.950 . S
H781 C759 0.950 . S
C782 C783 1.349 . S
C782 C784 1.327 . S
C782 H807 0.950 1_655 S
C783 C782 1.349 . S
C783 C799 1.349 . S
C784 C782 1.327 . S
C784 C803 1.429 . S
C784 H808 0.950 . S
C785 C802 1.574 . S
C785 C804 1.368 . S
C785 H809 0.949 . S
H786 C790 0.949 . S
C787 C788 1.349 . S
C787 C789 1.327 . S
C787 H810 0.950 . S
C788 C787 1.349 . S
C788 C800 1.349 . S
C789 C787 1.327 . S
C789 C805 1.429 . S
C789 H811 0.950 . S
C790 H786 0.949 . S
C790 C798 1.574 . S
C790 C806 1.368 . S
H791 C799 0.950 . S
H792 C797 0.950 . S
H793 C798 0.949 . S
H794 C800 0.950 . S
H795 C801 0.950 . S
H796 C802 0.949 . S
C797 H792 0.950 . S
C797 C799 1.327 . S
C797 C803 1.429 . S
C798 C790 1.574 . S
C798 H793 0.949 . S
C798 C804 1.368 . S
C799 C783 1.349 . S
C799 H791 0.950 . S
C799 C797 1.327 . S
C800 C788 1.349 . S
C800 H794 0.950 . S
C800 C801 1.327 . S
C801 H795 0.950 . S
C801 C800 1.327 . S
C801 C805 1.429 . S
C802 C785 1.574 . S
C802 H796 0.949 . S
C802 C806 1.368 . S
C803 C784 1.429 . S
C803 C797 1.429 . S
C803 C804 1.523 . S
C804 C785 1.368 . S
C804 C798 1.368 . S
C804 C803 1.523 . S
C805 C789 1.429 . S
C805 C801 1.429 . S
C805 C806 1.523 . S
C806 C790 1.368 . S
C806 C802 1.368 . S
C806 C805 1.523 . S
H807 C782 0.950 1_455 S
H808 C784 0.950 . S
H809 C785 0.949 . S
H810 C787 0.950 . S
H811 C789 0.950 . S
C812 C813 1.349 . S
C812 C814 1.327 . S
C812 H837 0.950 . S
C813 C812 1.349 . S
C813 C829 1.349 . S
C814 C812 1.327 . S
C814 C833 1.429 . S
C814 H838 0.950 . S
C815 C832 1.574 1_455 S
C815 C834 1.368 . S
C815 H839 0.949 . S
H816 C820 0.949 . S
C817 C818 1.349 . S
C817 C819 1.342 . S
C817 H840 0.950 . S
C818 C817 1.349 . S
C818 C830 1.349 . S
C819 C817 1.342 . S
C819 C835 1.424 1_554 S
C819 H841 0.940 1_554 S
C820 H816 0.949 . S
C820 C828 1.574 1_655 S
C820 C836 1.368 . S
H821 C829 0.950 . S
H822 C827 0.950 . S
H823 C828 0.949 . S
H824 C830 0.950 . S
H825 C831 0.950 . S
H826 C832 0.949 . S
C827 H822 0.950 . S
C827 C829 1.327 . S
C827 C833 1.429 . S
C828 C820 1.574 1_455 S
C828 H823 0.949 . S
C828 C834 1.368 . S
C829 C813 1.349 . S
C829 H821 0.950 . S
C829 C827 1.327 . S
C830 C818 1.349 . S
C830 H824 0.950 . S
C830 C831 1.327 . S
C831 H825 0.950 . S
C831 C830 1.327 . S
C831 C835 1.429 1_554 S
C832 C815 1.574 1_655 S
C832 H826 0.949 . S
C832 C836 1.368 . S
C833 C814 1.429 . S
C833 C827 1.429 . S
C833 C834 1.523 . S
C834 C815 1.368 . S
C834 C828 1.368 . S
C834 C833 1.523 . S
C835 C819 1.424 1_556 S
C835 C831 1.429 1_556 S
C835 C836 1.523 . S
C836 C820 1.368 . S
C836 C832 1.368 . S
C836 C835 1.523 . S
H837 C812 0.950 . S
H838 C814 0.950 . S
H839 C815 0.949 . S
H840 C817 0.950 . S
H841 C819 0.940 1_556 S
C842 C843 1.349 . S
C842 C844 1.327 . S
C842 H867 0.950 . S
C843 C842 1.349 . S
C843 C859 1.349 . S
C844 C842 1.327 . S
C844 C863 1.429 . S
C844 H868 0.950 . S
C845 C862 1.574 . S
C845 C864 1.368 . S
C845 H869 0.949 . S
H846 C850 0.949 . S
C847 C848 1.349 . S
C847 C849 1.327 . S
C847 H870 0.950 . S
C848 C847 1.349 . S
C848 C860 1.349 . S
C849 C847 1.327 . S
C849 C865 1.429 . S
C849 H871 0.950 . S
C850 H846 0.949 . S
C850 C858 1.574 . S
C850 C866 1.368 . S
H851 C859 0.950 . S
H852 C857 0.950 . S
H853 C858 0.949 . S
H854 C860 0.950 . S
H855 C861 0.950 . S
H856 C862 0.949 . S
C857 H852 0.950 . S
C857 C859 1.327 . S
C857 C863 1.429 . S
C858 C850 1.574 . S
C858 H853 0.949 . S
C858 C864 1.368 . S
C859 C843 1.349 . S
C859 H851 0.950 . S
C859 C857 1.327 . S
C860 C848 1.349 . S
C860 H854 0.950 . S
C860 C861 1.327 . S
C861 H855 0.950 . S
C861 C860 1.327 . S
C861 C865 1.429 . S
C862 C845 1.574 . S
C862 H856 0.949 . S
C862 C866 1.368 . S
C863 C844 1.429 . S
C863 C857 1.429 . S
C863 C864 1.523 . S
C864 C845 1.368 . S
C864 C858 1.368 . S
C864 C863 1.523 . S
C865 C849 1.429 . S
C865 C861 1.429 . S
C865 C866 1.523 . S
C866 C850 1.368 . S
C866 C862 1.368 . S
C866 C865 1.523 . S
H867 C842 0.950 . S
H868 C844 0.950 . S
H869 C845 0.949 . S
H870 C847 0.950 . S
H871 C849 0.950 . S
C872 C873 1.349 . S
C872 C874 1.327 . S
C872 H897 0.950 . S
C873 C872 1.349 . S
C873 C889 1.349 . S
C874 C872 1.327 . S
C874 C893 1.429 . S
C874 H898 0.950 . S
C875 C892 1.574 . S
C875 C894 1.368 . S
C875 H899 0.949 . S
H876 C880 0.949 . S
C877 C878 1.349 . S
C877 C879 1.327 . S
C877 H900 0.950 . S
C878 C877 1.349 . S
C878 C890 1.349 . S
C879 C877 1.327 . S
C879 C895 1.429 . S
C879 H901 0.950 . S
C880 H876 0.949 . S
C880 C888 1.574 . S
C880 C896 1.368 . S
H881 C889 0.950 . S
H882 C887 0.950 . S
H883 C888 0.949 . S
H884 C890 0.950 . S
H885 C891 0.950 . S
H886 C892 0.949 . S
C887 H882 0.950 . S
C887 C889 1.327 . S
C887 C893 1.429 . S
C888 C880 1.574 . S
C888 H883 0.949 . S
C888 C894 1.368 . S
C889 C873 1.349 . S
C889 H881 0.950 . S
C889 C887 1.327 . S
C890 C878 1.349 . S
C890 H884 0.950 . S
C890 C891 1.327 . S
C891 H885 0.950 . S
C891 C890 1.327 . S
C891 C895 1.429 . S
C892 C875 1.574 . S
C892 H886 0.949 . S
C892 C896 1.368 . S
C893 C874 1.429 . S
C893 C887 1.429 . S
C893 C894 1.523 . S
C894 C875 1.368 . S
C894 C888 1.368 . S
C894 C893 1.523 . S
C895 C879 1.429 . S
C895 C891 1.429 . S
C895 C896 1.523 . S
C896 C880 1.368 . S
C896 C892 1.368 . S
C896 C895 1.523 . S
H897 C872 0.950 . S
H898 C874 0.950 . S
H899 C875 0.949 . S
H900 C877 0.950 . S
H901 C879 0.950 . S
C902 C903 1.349 . S
C902 C904 1.327 . S
C902 H927 0.950 . S
C903 C902 1.349 . S
C903 C919 1.349 . S
C904 C902 1.327 . S
C904 C923 1.429 . S
C904 H928 0.950 . S
C905 C922 1.574 . S
C905 C924 1.368 . S
C905 H929 0.949 . S
H906 C910 0.949 . S
C907 C908 1.349 . S
C907 C909 1.327 . S
C907 H930 0.950 . S
C908 C907 1.349 . S
C908 C920 1.349 . S
C909 C907 1.327 . S
C909 C925 1.429 . S
C909 H931 0.950 . S
C910 H906 0.949 . S
C910 C918 1.574 . S
C910 C926 1.368 . S
H911 C919 0.950 . S
H912 C917 0.950 . S
H913 C918 0.949 . S
H914 C920 0.950 . S
H915 C921 0.950 . S
H916 C922 0.949 . S
C917 H912 0.950 . S
C917 C919 1.327 . S
C917 C923 1.429 . S
C918 C910 1.574 . S
C918 H913 0.949 . S
C918 C924 1.368 . S
C919 C903 1.349 . S
C919 H911 0.950 . S
C919 C917 1.327 . S
C920 C908 1.349 . S
C920 H914 0.950 . S
C920 C921 1.327 . S
C921 H915 0.950 . S
C921 C920 1.327 . S
C921 C925 1.429 . S
C922 C905 1.574 . S
C922 H916 0.949 . S
C922 C926 1.368 . S
C923 C904 1.429 . S
C923 C917 1.429 . S
C923 C924 1.523 . S
C924 C905 1.368 . S
C924 C918 1.368 . S
C924 C923 1.523 . S
C925 C909 1.429 . S
C925 C921 1.429 . S
C925 C926 1.523 . S
C926 C910 1.368 . S
C926 C922 1.368 . S
C926 C925 1.523 . S
H927 C902 0.950 . S
H928 C904 0.950 . S
H929 C905 0.949 . S
H930 C907 0.950 . S
H931 C909 0.950 . S
C932 C933 1.349 . S
C932 C934 1.327 . S
C932 H957 0.950 . S
C933 C932 1.349 . S
C933 C949 1.349 . S
C934 C932 1.327 . S
C934 C953 1.429 . S
C934 H958 0.950 . S
C935 C952 1.574 . S
C935 C954 1.368 . S
C935 H959 0.949 . S
H936 C940 0.949 . S
C937 C938 1.349 . S
C937 C939 1.327 . S
C937 H960 0.950 . S
C938 C937 1.349 . S
C938 C950 1.349 . S
C939 C937 1.327 . S
C939 C955 1.429 . S
C939 H961 0.950 . S
C940 H936 0.949 . S
C940 C948 1.574 . S
C940 C956 1.368 . S
H941 C949 0.950 . S
H942 C947 0.950 . S
H943 C948 0.949 . S
H944 C950 0.950 . S
H945 C951 0.950 . S
H946 C952 0.949 . S
C947 H942 0.950 . S
C947 C949 1.327 . S
C947 C953 1.429 . S
C948 C940 1.574 . S
C948 H943 0.949 . S
C948 C954 1.368 . S
C949 C933 1.349 . S
C949 H941 0.950 . S
C949 C947 1.327 . S
C950 C938 1.349 . S
C950 H944 0.950 . S
C950 C951 1.327 . S
C951 H945 0.950 . S
C951 C950 1.327 . S
C951 C955 1.429 . S
C952 C935 1.574 . S
C952 H946 0.949 . S
C952 C956 1.368 . S
C953 C934 1.429 . S
C953 C947 1.429 . S
C953 C954 1.523 . S
C954 C935 1.368 . S
C954 C948 1.368 . S
C954 C953 1.523 . S
C955 C939 1.429 . S
C955 C951 1.429 . S
C955 C956 1.523 . S
C956 C940 1.368 . S
C956 C952 1.368 . S
C956 C955 1.523 . S
H957 C932 0.950 . S
H958 C934 0.950 . S
H959 C935 0.949 . S
H960 C937 0.950 . S
H961 C939 0.950 . S
C962 C963 1.349 . S
C962 C964 1.327 . S
C962 H987 0.950 . S
C963 C962 1.349 . S
C963 C979 1.349 . S
C964 C962 1.327 . S
C964 C983 1.429 . S
C964 H988 0.950 . S
C965 C982 1.574 . S
C965 C984 1.368 . S
C965 H989 0.949 . S
H966 C970 0.949 . S
C967 C968 1.349 . S
C967 C969 1.327 . S
C967 H990 0.950 . S
C968 C967 1.349 . S
C968 C980 1.349 1_565 S
C969 C967 1.327 . S
C969 C985 1.429 1_565 S
C969 H991 0.950 . S
C970 H966 0.949 . S
C970 C978 1.574 . S
C970 C986 1.368 . S
H971 C979 0.950 . S
H972 C977 0.950 . S
H973 C978 0.949 . S
H974 C980 0.950 . S
H975 C981 0.950 . S
H976 C982 0.949 1_565 S
C977 H972 0.950 . S
C977 C979 1.327 . S
C977 C983 1.429 . S
C978 C970 1.574 . S
C978 H973 0.949 . S
C978 C984 1.368 . S
C979 C963 1.349 . S
C979 H971 0.950 . S
C979 C977 1.327 . S
C980 C968 1.349 1_545 S
C980 H974 0.950 . S
C980 C981 1.327 . S
C981 H975 0.950 . S
C981 C980 1.327 . S
C981 C985 1.429 . S
C982 C965 1.574 . S
C982 H976 0.949 1_545 S
C982 C986 1.368 . S
C983 C964 1.429 . S
C983 C977 1.429 . S
C983 C984 1.523 . S
C984 C965 1.368 . S
C984 C978 1.368 . S
C984 C983 1.523 . S
C985 C969 1.429 1_545 S
C985 C981 1.429 . S
C985 C986 1.523 . S
C986 C970 1.368 . S
C986 C982 1.368 . S
C986 C985 1.523 . S
H987 C962 0.950 . S
H988 C964 0.950 . S
H989 C965 0.949 . S
H990 C967 0.950 . S
H991 C969 0.950 . S
C992 C993 1.349 . S
C992 C994 1.327 . S
C992 H1017 0.950 . S
C993 C992 1.349 . S
C993 C1009 1.349 . S
C994 C992 1.327 . S
C994 C1013 1.429 . S
C994 H1018 0.950 . S
C995 C1012 1.574 . S
C995 C1014 1.368 . S
C995 H1019 0.949 . S
H996 C1000 0.949 . S
C997 C998 1.349 . S
C997 C999 1.327 . S
C997 H1020 0.950 . S
C998 C997 1.349 . S
C998 C1010 1.349 . S
C999 C997 1.327 . S
C999 C1015 1.429 . S
C999 H1021 0.950 . S
C1000 H996 0.949 . S
C1000 C1008 1.574 . S
C1000 C1016 1.368 . S
H1001 C1009 0.950 . S
H1002 C1007 0.950 . S
H1003 C1008 0.949 . S
H1004 C1010 0.950 . S
H1005 C1011 0.950 . S
H1006 C1012 0.949 . S
C1007 H1002 0.950 . S
C1007 C1009 1.327 . S
C1007 C1013 1.429 . S
C1008 C1000 1.574 . S
C1008 H1003 0.949 . S
C1008 C1014 1.368 . S
C1009 C993 1.349 . S
C1009 H1001 0.950 . S
C1009 C1007 1.327 . S
C1010 C998 1.349 . S
C1010 H1004 0.950 . S
C1010 C1011 1.327 . S
C1011 H1005 0.950 . S
C1011 C1010 1.327 . S
C1011 C1015 1.429 . S
C1012 C995 1.574 . S
C1012 H1006 0.949 . S
C1012 C1016 1.368 . S
C1013 C994 1.429 . S
C1013 C1007 1.429 . S
C1013 C1014 1.523 . S
C1014 C995 1.368 . S
C1014 C1008 1.368 . S
C1014 C1013 1.523 . S
C1015 C999 1.429 . S
C1015 C1011 1.429 . S
C1015 C1016 1.523 . S
C1016 C1000 1.368 . S
C1016 C1012 1.368 . S
C1016 C1015 1.523 . S
H1017 C992 0.950 . S
H1018 C994 0.950 . S
H1019 C995 0.949 . S
H1020 C997 0.950 . S
H1021 C999 0.950 . S
C1022 C1023 1.349 . S
C1022 C1024 1.327 . S
C1022 H1047 0.950 . S
C1023 C1022 1.349 . S
C1023 C1039 1.349 . S
C1024 C1022 1.327 . S
C1024 C1043 1.429 . S
C1024 H1048 0.950 . S
C1025 C1042 1.574 . S
C1025 C1044 1.368 . S
C1025 H1049 0.949 . S
H1026 C1030 0.949 . S
C1027 C1028 1.349 . S
C1027 C1029 1.327 . S
C1027 H1050 0.950 . S
C1028 C1027 1.349 . S
C1028 C1040 1.349 . S
C1029 C1027 1.327 . S
C1029 C1045 1.429 . S
C1029 H1051 0.950 . S
C1030 H1026 0.949 . S
C1030 C1038 1.574 . S
C1030 C1046 1.368 . S
H1031 C1039 0.950 . S
H1032 C1037 0.950 . S
H1033 C1038 0.949 . S
H1034 C1040 0.950 . S
H1035 C1041 0.950 . S
H1036 C1042 0.949 . S
C1037 H1032 0.950 . S
C1037 C1039 1.327 . S
C1037 C1043 1.429 . S
C1038 C1030 1.574 . S
C1038 H1033 0.949 . S
C1038 C1044 1.368 . S
C1039 C1023 1.349 . S
C1039 H1031 0.950 . S
C1039 C1037 1.327 . S
C1040 C1028 1.349 . S
C1040 H1034 0.950 . S
C1040 C1041 1.327 . S
C1041 H1035 0.950 . S
C1041 C1040 1.327 . S
C1041 C1045 1.429 . S
C1042 C1025 1.574 . S
C1042 H1036 0.949 . S
C1042 C1046 1.368 . S
C1043 C1024 1.429 . S
C1043 C1037 1.429 . S
C1043 C1044 1.523 . S
C1044 C1025 1.368 . S
C1044 C1038 1.368 . S
C1044 C1043 1.523 . S
C1045 C1029 1.429 . S
C1045 C1041 1.429 . S
C1045 C1046 1.523 . S
C1046 C1030 1.368 . S
C1046 C1042 1.368 . S
C1046 C1045 1.523 . S
H1047 C1022 0.950 . S
H1048 C1024 0.950 . S
H1049 C1025 0.949 . S
H1050 C1027 0.950 . S
H1051 C1029 0.950 . S
C1052 C1053 1.349 . S
C1052 C1054 1.327 . S
C1052 H1077 0.950 . S
C1053 C1052 1.349 . S
C1053 C1069 1.349 . S
C1054 C1052 1.327 . S
C1054 C1073 1.429 . S
C1054 H1078 0.950 . S
C1055 C1072 1.574 . S
C1055 C1074 1.368 . S
C1055 H1079 0.949 . S
H1056 C1060 0.949 1_565 S
C1057 C1058 1.380 . S
C1057 C1059 1.308 1_565 S
C1057 H1080 0.938 1_565 S
C1058 C1057 1.380 . S
C1058 C1070 1.349 . S
C1059 C1057 1.308 1_545 S
C1059 C1075 1.429 . S
C1059 H1081 0.950 . S
C1060 H1056 0.949 1_545 S
C1060 C1068 1.574 . S
C1060 C1076 1.368 . S
H1061 C1069 0.950 . S
H1062 C1067 0.950 . S
H1063 C1068 0.949 . S
H1064 C1070 0.950 . S
H1065 C1071 0.950 . S
H1066 C1072 0.949 . S
C1067 H1062 0.950 . S
C1067 C1069 1.327 . S
C1067 C1073 1.429 . S
C1068 C1060 1.574 . S
C1068 H1063 0.949 . S
C1068 C1074 1.368 . S
C1069 C1053 1.349 . S
C1069 H1061 0.950 . S
C1069 C1067 1.327 . S
C1070 C1058 1.349 . S
C1070 H1064 0.950 . S
C1070 C1071 1.327 . S
C1071 H1065 0.950 . S
C1071 C1070 1.327 . S
C1071 C1075 1.429 1_565 S
C1072 C1055 1.574 . S
C1072 H1066 0.949 . S
C1072 C1076 1.368 . S
C1073 C1054 1.429 . S
C1073 C1067 1.429 . S
C1073 C1074 1.523 . S
C1074 C1055 1.368 . S
C1074 C1068 1.368 . S
C1074 C1073 1.523 . S
C1075 C1059 1.429 . S
C1075 C1071 1.429 1_545 S
C1075 C1076 1.523 . S
C1076 C1060 1.368 . S
C1076 C1072 1.368 . S
C1076 C1075 1.523 . S
H1077 C1052 0.950 . S
H1078 C1054 0.950 . S
H1079 C1055 0.949 . S
H1080 C1057 0.938 1_545 S
H1081 C1059 0.950 . S
C1082 C1083 1.349 . S
C1082 C1084 1.327 . S
C1082 H1107 0.950 . S
C1083 C1082 1.349 . S
C1083 C1099 1.349 . S
C1084 C1082 1.327 . S
C1084 C1103 1.429 . S
C1084 H1108 0.950 . S
C1085 C1102 1.574 . S
C1085 C1104 1.368 . S
C1085 H1109 0.949 . S
H1086 C1090 0.949 . S
C1087 C1088 1.349 . S
C1087 C1089 1.327 . S
C1087 H1110 0.950 . S
C1088 C1087 1.349 . S
C1088 C1100 1.349 . S
C1089 C1087 1.327 . S
C1089 C1105 1.429 . S
C1089 H1111 0.950 . S
C1090 H1086 0.949 . S
C1090 C1098 1.574 . S
C1090 C1106 1.368 . S
H1091 C1099 0.950 . S
H1092 C1097 0.950 . S
H1093 C1098 0.949 . S
H1094 C1100 0.950 . S
H1095 C1101 0.950 . S
H1096 C1102 0.949 . S
C1097 H1092 0.950 . S
C1097 C1099 1.327 . S
C1097 C1103 1.429 . S
C1098 C1090 1.574 . S
C1098 H1093 0.949 . S
C1098 C1104 1.368 . S
C1099 C1083 1.349 . S
C1099 H1091 0.950 . S
C1099 C1097 1.327 . S
C1100 C1088 1.349 . S
C1100 H1094 0.950 . S
C1100 C1101 1.327 . S
C1101 H1095 0.950 . S
C1101 C1100 1.327 . S
C1101 C1105 1.429 . S
C1102 C1085 1.574 . S
C1102 H1096 0.949 . S
C1102 C1106 1.368 . S
C1103 C1084 1.429 . S
C1103 C1097 1.429 . S
C1103 C1104 1.523 . S
C1104 C1085 1.368 . S
C1104 C1098 1.368 . S
C1104 C1103 1.523 . S
C1105 C1089 1.429 . S
C1105 C1101 1.429 . S
C1105 C1106 1.523 . S
C1106 C1090 1.368 . S
C1106 C1102 1.368 . S
C1106 C1105 1.523 . S
H1107 C1082 0.950 . S
H1108 C1084 0.950 . S
H1109 C1085 0.949 . S
H1110 C1087 0.950 . S
H1111 C1089 0.950 . S
C1112 C1113 1.349 . S
C1112 C1114 1.327 . S
C1112 H1137 0.950 . S
C1113 C1112 1.349 . S
C1113 C1129 1.349 . S
C1114 C1112 1.327 . S
C1114 C1133 1.429 . S
C1114 H1138 0.950 . S
C1115 C1132 1.574 . S
C1115 C1134 1.368 . S
C1115 H1139 0.949 . S
H1116 C1120 0.949 . S
C1117 C1118 1.349 . S
C1117 C1119 1.327 . S
C1117 H1140 0.950 . S
C1118 C1117 1.349 . S
C1118 C1130 1.349 . S
C1119 C1117 1.327 . S
C1119 C1135 1.429 . S
C1119 H1141 0.950 . S
C1120 H1116 0.949 . S
C1120 C1128 1.574 . S
C1120 C1136 1.368 . S
H1121 C1129 0.950 . S
H1122 C1127 0.950 . S
H1123 C1128 0.949 . S
H1124 C1130 0.950 . S
H1125 C1131 0.950 . S
H1126 C1132 0.949 . S
C1127 H1122 0.950 . S
C1127 C1129 1.327 . S
C1127 C1133 1.429 . S
C1128 C1120 1.574 . S
C1128 H1123 0.949 . S
C1128 C1134 1.368 . S
C1129 C1113 1.349 . S
C1129 H1121 0.950 . S
C1129 C1127 1.327 . S
C1130 C1118 1.349 . S
C1130 H1124 0.950 . S
C1130 C1131 1.327 . S
C1131 H1125 0.950 . S
C1131 C1130 1.327 . S
C1131 C1135 1.429 . S
C1132 C1115 1.574 . S
C1132 H1126 0.949 . S
C1132 C1136 1.368 . S
C1133 C1114 1.429 . S
C1133 C1127 1.429 . S
C1133 C1134 1.523 . S
C1134 C1115 1.368 . S
C1134 C1128 1.368 . S
C1134 C1133 1.523 . S
C1135 C1119 1.429 . S
C1135 C1131 1.429 . S
C1135 C1136 1.523 . S
C1136 C1120 1.368 . S
C1136 C1132 1.368 . S
C1136 C1135 1.523 . S
H1137 C1112 0.950 . S
H1138 C1114 0.950 . S
H1139 C1115 0.949 . S
H1140 C1117 0.950 . S
H1141 C1119 0.950 . S
C1142 C1143 1.349 . S
C1142 C1144 1.327 . S
C1142 H1167 0.950 . S
C1143 C1142 1.349 . S
C1143 C1159 1.349 . S
C1144 C1142 1.327 . S
C1144 C1163 1.429 . S
C1144 H1168 0.950 . S
C1145 C1162 1.574 . S
C1145 C1164 1.368 . S
C1145 H1169 0.949 . S
H1146 C1150 0.949 . S
C1147 C1148 1.349 . S
C1147 C1149 1.327 . S
C1147 H1170 0.950 . S
C1148 C1147 1.349 . S
C1148 C1160 1.349 . S
C1149 C1147 1.327 . S
C1149 C1165 1.429 . S
C1149 H1171 0.950 . S
C1150 H1146 0.949 . S
C1150 C1158 1.574 . S
C1150 C1166 1.368 . S
H1151 C1159 0.950 . S
H1152 C1157 0.950 . S
H1153 C1158 0.949 . S
H1154 C1160 0.950 . S
H1155 C1161 0.950 . S
H1156 C1162 0.949 . S
C1157 H1152 0.950 . S
C1157 C1159 1.327 . S
C1157 C1163 1.429 . S
C1158 C1150 1.574 . S
C1158 H1153 0.949 . S
C1158 C1164 1.368 . S
C1159 C1143 1.349 . S
C1159 H1151 0.950 . S
C1159 C1157 1.327 . S
C1160 C1148 1.349 . S
C1160 H1154 0.950 . S
C1160 C1161 1.327 . S
C1161 H1155 0.950 . S
C1161 C1160 1.327 . S
C1161 C1165 1.429 . S
C1162 C1145 1.574 . S
C1162 H1156 0.949 . S
C1162 C1166 1.368 . S
C1163 C1144 1.429 . S
C1163 C1157 1.429 . S
C1163 C1164 1.523 . S
C1164 C1145 1.368 . S
C1164 C1158 1.368 . S
C1164 C1163 1.523 . S
C1165 C1149 1.429 . S
C1165 C1161 1.429 . S
C1165 C1166 1.523 . S
C1166 C1150 1.368 . S
C1166 C1162 1.368 . S
C1166 C1165 1.523 . S
H1167 C1142 0.950 . S
H1168 C1144 0.950 . S
H1169 C1145 0.949 . S
H1170 C1147 0.950 . S
H1171 C1149 0.950 . S
C1172 C1173 1.349 . S
C1172 C1174 1.327 . S
C1172 H1197 0.950 . S
C1173 C1172 1.349 . S
C1173 C1189 1.349 . S
C1174 C1172 1.327 . S
C1174 C1193 1.429 . S
C1174 H1198 0.950 . S
C1175 C1192 1.574 . S
C1175 C1194 1.368 . S
C1175 H1199 0.949 . S
H1176 C1180 0.949 . S
C1177 C1178 1.349 . S
C1177 C1179 1.327 . S
C1177 H1200 0.950 . S
C1178 C1177 1.349 . S
C1178 C1190 1.349 . S
C1179 C1177 1.327 . S
C1179 C1195 1.429 . S
C1179 H1201 0.950 . S
C1180 H1176 0.949 . S
C1180 C1188 1.574 . S
C1180 C1196 1.368 . S
H1181 C1189 0.950 . S
H1182 C1187 0.950 . S
H1183 C1188 0.949 . S
H1184 C1190 0.950 . S
H1185 C1191 0.950 . S
H1186 C1192 0.949 . S
C1187 H1182 0.950 . S
C1187 C1189 1.327 . S
C1187 C1193 1.429 . S
C1188 C1180 1.574 . S
C1188 H1183 0.949 . S
C1188 C1194 1.368 . S
C1189 C1173 1.349 . S
C1189 H1181 0.950 . S
C1189 C1187 1.327 . S
C1190 C1178 1.349 . S
C1190 H1184 0.950 . S
C1190 C1191 1.327 . S
C1191 H1185 0.950 . S
C1191 C1190 1.327 . S
C1191 C1195 1.429 . S
C1192 C1175 1.574 . S
C1192 H1186 0.949 . S
C1192 C1196 1.368 . S
C1193 C1174 1.429 . S
C1193 C1187 1.429 . S
C1193 C1194 1.523 . S
C1194 C1175 1.368 . S
C1194 C1188 1.368 . S
C1194 C1193 1.523 . S
C1195 C1179 1.429 . S
C1195 C1191 1.429 . S
C1195 C1196 1.523 . S
C1196 C1180 1.368 . S
C1196 C1192 1.368 . S
C1196 C1195 1.523 . S
H1197 C1172 0.950 . S
H1198 C1174 0.950 . S
H1199 C1175 0.949 . S
H1200 C1177 0.950 . S
H1201 C1179 0.950 . S
C1202 C1203 1.349 . S
C1202 C1204 1.327 . S
C1202 H1227 0.950 . S
C1203 C1202 1.349 . S
C1203 C1219 1.349 . S
C1204 C1202 1.327 . S
C1204 C1223 1.429 . S
C1204 H1228 0.950 . S
C1205 C1222 1.574 . S
C1205 C1224 1.368 . S
C1205 H1229 0.949 . S
H1206 C1210 0.949 . S
C1207 C1208 1.349 . S
C1207 C1209 1.327 . S
C1207 H1230 0.950 . S
C1208 C1207 1.349 . S
C1208 C1220 1.345 1_655 S
C1209 C1207 1.327 . S
C1209 C1225 1.429 1_655 S
C1209 H1231 0.950 . S
C1210 H1206 0.949 . S
C1210 C1218 1.574 . S
C1210 C1226 1.368 . S
H1211 C1219 0.950 . S
H1212 C1217 0.950 . S
H1213 C1218 0.949 . S
H1214 C1220 0.951 . S
H1215 C1221 0.950 . S
H1216 C1222 0.949 1_655 S
C1217 H1212 0.950 . S
C1217 C1219 1.327 . S
C1217 C1223 1.429 . S
C1218 C1210 1.574 . S
C1218 H1213 0.949 . S
C1218 C1224 1.368 . S
C1219 C1203 1.349 . S
C1219 H1211 0.950 . S
C1219 C1217 1.327 . S
C1220 C1208 1.345 1_455 S
C1220 H1214 0.951 . S
C1220 C1221 1.329 . S
C1221 H1215 0.950 . S
C1221 C1220 1.329 . S
C1221 C1225 1.429 . S
C1222 C1205 1.574 . S
C1222 H1216 0.949 1_455 S
C1222 C1226 1.368 . S
C1223 C1204 1.429 . S
C1223 C1217 1.429 . S
C1223 C1224 1.523 . S
C1224 C1205 1.368 . S
C1224 C1218 1.368 . S
C1224 C1223 1.523 . S
C1225 C1209 1.429 1_455 S
C1225 C1221 1.429 . S
C1225 C1226 1.523 . S
C1226 C1210 1.368 . S
C1226 C1222 1.368 . S
C1226 C1225 1.523 . S
H1227 C1202 0.950 . S
H1228 C1204 0.950 . S
H1229 C1205 0.949 . S
H1230 C1207 0.950 . S
H1231 C1209 0.950 . S
C1232 C1233 1.349 . S
C1232 C1234 1.327 . S
C1232 H1257 0.950 . S
C1233 C1232 1.349 . S
C1233 C1249 1.349 . S
C1234 C1232 1.327 . S
C1234 C1253 1.429 . S
C1234 H1258 0.950 . S
C1235 C1252 1.574 . S
C1235 C1254 1.368 . S
C1235 H1259 0.949 . S
H1236 C1240 0.949 . S
C1237 C1238 1.349 . S
C1237 C1239 1.327 . S
C1237 H1260 0.950 . S
C1238 C1237 1.349 . S
C1238 C1250 1.349 . S
C1239 C1237 1.327 . S
C1239 C1255 1.429 . S
C1239 H1261 0.950 . S
C1240 H1236 0.949 . S
C1240 C1248 1.574 . S
C1240 C1256 1.368 . S
H1241 C1249 0.950 . S
H1242 C1247 0.950 . S
H1243 C1248 0.949 . S
H1244 C1250 0.950 . S
H1245 C1251 0.950 . S
H1246 C1252 0.949 . S
C1247 H1242 0.950 . S
C1247 C1249 1.327 . S
C1247 C1253 1.429 . S
C1248 C1240 1.574 . S
C1248 H1243 0.949 . S
C1248 C1254 1.368 . S
C1249 C1233 1.349 . S
C1249 H1241 0.950 . S
C1249 C1247 1.327 . S
C1250 C1238 1.349 . S
C1250 H1244 0.950 . S
C1250 C1251 1.327 . S
C1251 H1245 0.950 . S
C1251 C1250 1.327 . S
C1251 C1255 1.429 . S
C1252 C1235 1.574 . S
C1252 H1246 0.949 . S
C1252 C1256 1.368 . S
C1253 C1234 1.429 . S
C1253 C1247 1.429 . S
C1253 C1254 1.523 . S
C1254 C1235 1.368 . S
C1254 C1248 1.368 . S
C1254 C1253 1.523 . S
C1255 C1239 1.429 . S
C1255 C1251 1.429 . S
C1255 C1256 1.523 . S
C1256 C1240 1.368 . S
C1256 C1252 1.368 . S
C1256 C1255 1.523 . S
H1257 C1232 0.950 . S
H1258 C1234 0.950 . S
H1259 C1235 0.949 . S
H1260 C1237 0.950 . S
H1261 C1239 0.950 . S
C1262 C1263 1.349 . S
C1262 C1264 1.327 . S
C1262 H1287 0.950 . S
C1263 C1262 1.349 . S
C1263 C1279 1.349 . S
C1264 C1262 1.327 . S
C1264 C1283 1.429 . S
C1264 H1288 0.950 . S
C1265 C1282 1.574 . S
C1265 C1284 1.368 . S
C1265 H1289 0.949 . S
H1266 C1270 0.949 . S
C1267 C1268 1.349 . S
C1267 C1269 1.327 . S
C1267 H1290 0.950 . S
C1268 C1267 1.349 . S
C1268 C1280 1.349 . S
C1269 C1267 1.327 . S
C1269 C1285 1.429 . S
C1269 H1291 0.950 . S
C1270 H1266 0.949 . S
C1270 C1278 1.574 . S
C1270 C1286 1.368 . S
H1271 C1279 0.950 . S
H1272 C1277 0.950 . S
H1273 C1278 0.949 . S
H1274 C1280 0.950 . S
H1275 C1281 0.950 . S
H1276 C1282 0.949 . S
C1277 H1272 0.950 . S
C1277 C1279 1.327 . S
C1277 C1283 1.429 . S
C1278 C1270 1.574 . S
C1278 H1273 0.949 . S
C1278 C1284 1.368 . S
C1279 C1263 1.349 . S
C1279 H1271 0.950 . S
C1279 C1277 1.327 . S
C1280 C1268 1.349 . S
C1280 H1274 0.950 . S
C1280 C1281 1.327 . S
C1281 H1275 0.950 . S
C1281 C1280 1.327 . S
C1281 C1285 1.429 . S
C1282 C1265 1.574 . S
C1282 H1276 0.949 . S
C1282 C1286 1.368 . S
C1283 C1264 1.429 . S
C1283 C1277 1.429 . S
C1283 C1284 1.523 . S
C1284 C1265 1.368 . S
C1284 C1278 1.368 . S
C1284 C1283 1.523 . S
C1285 C1269 1.429 . S
C1285 C1281 1.429 . S
C1285 C1286 1.523 . S
C1286 C1270 1.368 . S
C1286 C1282 1.368 . S
C1286 C1285 1.523 . S
H1287 C1262 0.950 . S
H1288 C1264 0.950 . S
H1289 C1265 0.949 . S
H1290 C1267 0.950 . S
H1291 C1269 0.950 . S
C1292 C1293 1.349 . S
C1292 C1294 1.327 . S
C1292 H1317 0.950 . S
C1293 C1292 1.349 . S
C1293 C1309 1.349 . S
C1294 C1292 1.327 . S
C1294 C1313 1.429 . S
C1294 H1318 0.950 . S
C1295 C1312 1.574 . S
C1295 C1314 1.368 . S
C1295 H1319 0.949 . S
H1296 C1300 0.949 1_655 S
C1297 C1298 1.349 1_455 S
C1297 C1299 1.327 . S
C1297 H1320 0.950 . S
C1298 C1297 1.349 1_655 S
C1298 C1310 1.349 . S
C1299 C1297 1.327 . S
C1299 C1315 1.429 . S
C1299 H1321 0.950 . S
C1300 H1296 0.949 1_455 S
C1300 C1308 1.574 . S
C1300 C1316 1.368 . S
H1301 C1309 0.950 . S
H1302 C1307 0.950 . S
H1303 C1308 0.949 . S
H1304 C1310 0.950 . S
H1305 C1311 0.950 . S
H1306 C1312 0.949 . S
C1307 H1302 0.950 . S
C1307 C1309 1.327 . S
C1307 C1313 1.429 . S
C1308 C1300 1.574 . S
C1308 H1303 0.949 . S
C1308 C1314 1.368 . S
C1309 C1293 1.349 . S
C1309 H1301 0.950 . S
C1309 C1307 1.327 . S
C1310 C1298 1.349 . S
C1310 H1304 0.950 . S
C1310 C1311 1.327 . S
C1311 H1305 0.950 . S
C1311 C1310 1.327 . S
C1311 C1315 1.429 1_655 S
C1312 C1295 1.574 . S
C1312 H1306 0.949 . S
C1312 C1316 1.368 . S
C1313 C1294 1.429 . S
C1313 C1307 1.429 . S
C1313 C1314 1.523 . S
C1314 C1295 1.368 . S
C1314 C1308 1.368 . S
C1314 C1313 1.523 . S
C1315 C1299 1.429 . S
C1315 C1311 1.429 1_455 S
C1315 C1316 1.523 . S
C1316 C1300 1.368 . S
C1316 C1312 1.368 . S
C1316 C1315 1.523 . S
H1317 C1292 0.950 . S
H1318 C1294 0.950 . S
H1319 C1295 0.949 . S
H1320 C1297 0.950 . S
H1321 C1299 0.950 . S
C1322 C1323 1.349 . S
C1322 C1324 1.327 . S
C1322 H1347 0.950 . S
C1323 C1322 1.349 . S
C1323 C1339 1.349 . S
C1324 C1322 1.327 . S
C1324 C1343 1.429 . S
C1324 H1348 0.950 . S
C1325 C1342 1.574 . S
C1325 C1344 1.368 . S
C1325 H1349 0.949 . S
H1326 C1330 0.949 . S
C1327 C1328 1.349 . S
C1327 C1329 1.327 . S
C1327 H1350 0.950 . S
C1328 C1327 1.349 . S
C1328 C1340 1.349 . S
C1329 C1327 1.327 . S
C1329 C1345 1.429 . S
C1329 H1351 0.950 . S
C1330 H1326 0.949 . S
C1330 C1338 1.574 . S
C1330 C1346 1.368 . S
H1331 C1339 0.950 . S
H1332 C1337 0.950 . S
H1333 C1338 0.949 . S
H1334 C1340 0.950 . S
H1335 C1341 0.950 . S
H1336 C1342 0.949 . S
C1337 H1332 0.950 . S
C1337 C1339 1.327 . S
C1337 C1343 1.429 . S
C1338 C1330 1.574 . S
C1338 H1333 0.949 . S
C1338 C1344 1.368 . S
C1339 C1323 1.349 . S
C1339 H1331 0.950 . S
C1339 C1337 1.327 . S
C1340 C1328 1.349 . S
C1340 H1334 0.950 . S
C1340 C1341 1.327 . S
C1341 H1335 0.950 . S
C1341 C1340 1.327 . S
C1341 C1345 1.429 . S
C1342 C1325 1.574 . S
C1342 H1336 0.949 . S
C1342 C1346 1.368 . S
C1343 C1324 1.429 . S
C1343 C1337 1.429 . S
C1343 C1344 1.523 . S
C1344 C1325 1.368 . S
C1344 C1338 1.368 . S
C1344 C1343 1.523 . S
C1345 C1329 1.429 . S
C1345 C1341 1.429 . S
C1345 C1346 1.523 . S
C1346 C1330 1.368 . S
C1346 C1342 1.368 . S
C1346 C1345 1.523 . S
H1347 C1322 0.950 . S
H1348 C1324 0.950 . S
H1349 C1325 0.949 . S
H1350 C1327 0.950 . S
H1351 C1329 0.950 . S
C398 C143 1.142 . S
C393 C5 1.144 . S
C428 C180 1.129 . S
C423 C18 1.146 . S
C458 C216 1.139 . S
C453 C31 1.154 . S
C483 C42 1.110 . S
C488 C107 1.152 . S
C513 C57 1.418 . S
C518 C108 1.427 . S
C543 C70 1.412 . S
C548 C144 1.413 . S
C578 C179 1.423 . S
C573 C81 1.424 . S
C608 C215 1.431 . S
C603 C96 1.401 . S
C633 C29 1.425 . S
C638 C287 1.424 . S
C668 C324 1.412 . S
C663 C44 1.412 . S
C693 C3 1.447 . S
C698 C360 1.420 . S
C728 C251 1.431 . S
C723 C16 1.430 . S
C753 C83 1.154 . S
C758 C252 1.139 . S
C783 C94 1.105 . S
C788 C288 1.129 . S
C818 C323 1.142 . S
C813 C55 1.103 . S
C843 C68 1.109 . S
C848 C359 1.151 . S
C878 C178 1.272 . S
C873 C1 1.273 . S
C908 C214 1.250 . S
C903 C14 1.251 . S
C933 C27 1.221 . S
C938 C118 1.125 . S
C963 C49 1.236 . S
C968 C154 1.143 . S
C993 C53 1.561 . S
C998 C226 1.501 . S
C1028 C106 1.666 . S
C1023 C66 1.600 . S
C1058 C142 1.685 . S
C1053 C88 1.679 . S
C1088 C190 1.517 . S
C1083 C92 1.580 . S
C1118 C322 1.632 1_556 S
C1113 C36 1.679 . S
C1148 C358 1.666 . S
C1143 C40 1.600 . S
C1173 C10 1.620 . S
C1178 C262 1.500 . S
C1208 C298 1.517 . S
C1203 C23 1.639 . S
C1238 C370 1.124 . S
C1233 C79 1.220 . S
C1263 C101 1.242 . S
C1268 C250 1.250 . S
C1298 C286 1.273 . S
C1293 C62 1.265 . S
C1328 C334 1.143 . S
C1323 C75 1.236 . S
