# Generated by pormake.
# Topology gar, (4,6)-cn, num edge types: 1
# Building blocks:
#     Node 0, Type 0, BuildingBlock: UXUYUI_clean_sbu_0, # of connection points: 4
#     Node 1, Type 0, BuildingBlock: UXUYUI_clean_sbu_0, # of connection points: 4
#     Node 2, Type 0, BuildingBlock: UXUYUI_clean_sbu_0, # of connection points: 4
#     Node 3, Type 0, BuildingBlock: UXUYUI_clean_sbu_0, # of connection points: 4
#     Node 4, Type 0, BuildingBlock: UXUYUI_clean_sbu_0, # of connection points: 4
#     Node 5, Type 0, BuildingBlock: UXUYUI_clean_sbu_0, # of connection points: 4
#     Node 6, Type 0, BuildingBlock: UXUYUI_clean_sbu_0, # of connection points: 4
#     Node 7, Type 0, BuildingBlock: UXUYUI_clean_sbu_0, # of connection points: 4
#     Node 8, Type 0, BuildingBlock: UXUYUI_clean_sbu_0, # of connection points: 4
#     Node 9, Type 0, BuildingBlock: UXUYUI_clean_sbu_0, # of connection points: 4
#     Node 10, Type 0, BuildingBlock: UXUYUI_clean_sbu_0, # of connection points: 4
#     Node 11, Type 0, BuildingBlock: UXUYUI_clean_sbu_0, # of connection points: 4
#     Node 12, Type 0, BuildingBlock: UXUYUI_clean_sbu_0, # of connection points: 4
#     Node 13, Type 0, BuildingBlock: UXUYUI_clean_sbu_0, # of connection points: 4
#     Node 14, Type 0, BuildingBlock: UXUYUI_clean_sbu_0, # of connection points: 4
#     Node 15, Type 0, BuildingBlock: UXUYUI_clean_sbu_0, # of connection points: 4
#     Node 16, Type 0, BuildingBlock: UXUYUI_clean_sbu_0, # of connection points: 4
#     Node 17, Type 0, BuildingBlock: UXUYUI_clean_sbu_0, # of connection points: 4
#     Node 18, Type 0, BuildingBlock: UXUYUI_clean_sbu_0, # of connection points: 4
#     Node 19, Type 0, BuildingBlock: UXUYUI_clean_sbu_0, # of connection points: 4
#     Node 20, Type 0, BuildingBlock: UXUYUI_clean_sbu_0, # of connection points: 4
#     Node 21, Type 0, BuildingBlock: UXUYUI_clean_sbu_0, # of connection points: 4
#     Node 22, Type 0, BuildingBlock: UXUYUI_clean_sbu_0, # of connection points: 4
#     Node 23, Type 0, BuildingBlock: UXUYUI_clean_sbu_0, # of connection points: 4
#     Node 24, Type 1, BuildingBlock: INOVEN_clean_sbu_0, # of connection points: 6
#     Node 25, Type 1, BuildingBlock: INOVEN_clean_sbu_0, # of connection points: 6
#     Node 26, Type 1, BuildingBlock: INOVEN_clean_sbu_0, # of connection points: 6
#     Node 27, Type 1, BuildingBlock: INOVEN_clean_sbu_0, # of connection points: 6
#     Node 28, Type 1, BuildingBlock: INOVEN_clean_sbu_0, # of connection points: 6
#     Node 29, Type 1, BuildingBlock: INOVEN_clean_sbu_0, # of connection points: 6
#     Node 30, Type 1, BuildingBlock: INOVEN_clean_sbu_0, # of connection points: 6
#     Node 31, Type 1, BuildingBlock: INOVEN_clean_sbu_0, # of connection points: 6
#     Node 32, Type 1, BuildingBlock: INOVEN_clean_sbu_0, # of connection points: 6
#     Node 33, Type 1, BuildingBlock: INOVEN_clean_sbu_0, # of connection points: 6
#     Node 34, Type 1, BuildingBlock: INOVEN_clean_sbu_0, # of connection points: 6
#     Node 35, Type 1, BuildingBlock: INOVEN_clean_sbu_0, # of connection points: 6
#     Node 36, Type 1, BuildingBlock: INOVEN_clean_sbu_0, # of connection points: 6
#     Node 37, Type 1, BuildingBlock: INOVEN_clean_sbu_0, # of connection points: 6
#     Node 38, Type 1, BuildingBlock: INOVEN_clean_sbu_0, # of connection points: 6
#     Node 39, Type 1, BuildingBlock: INOVEN_clean_sbu_0, # of connection points: 6
#     Edge 40, Type (0, 1), BuildingBlock: MIFKUJ_clean_linker_0, # of connection points: 2
#     Edge 41, Type (0, 1), BuildingBlock: MIFKUJ_clean_linker_0, # of connection points: 2
#     Edge 42, Type (0, 1), BuildingBlock: MIFKUJ_clean_linker_0, # of connection points: 2
#     Edge 43, Type (0, 1), BuildingBlock: MIFKUJ_clean_linker_0, # of connection points: 2
#     Edge 44, Type (0, 1), BuildingBlock: MIFKUJ_clean_linker_0, # of connection points: 2
#     Edge 45, Type (0, 1), BuildingBlock: MIFKUJ_clean_linker_0, # of connection points: 2
#     Edge 46, Type (0, 1), BuildingBlock: MIFKUJ_clean_linker_0, # of connection points: 2
#     Edge 47, Type (0, 1), BuildingBlock: MIFKUJ_clean_linker_0, # of connection points: 2
#     Edge 48, Type (0, 1), BuildingBlock: MIFKUJ_clean_linker_0, # of connection points: 2
#     Edge 49, Type (0, 1), BuildingBlock: MIFKUJ_clean_linker_0, # of connection points: 2
#     Edge 50, Type (0, 1), BuildingBlock: MIFKUJ_clean_linker_0, # of connection points: 2
#     Edge 51, Type (0, 1), BuildingBlock: MIFKUJ_clean_linker_0, # of connection points: 2
#     Edge 52, Type (0, 1), BuildingBlock: MIFKUJ_clean_linker_0, # of connection points: 2
#     Edge 53, Type (0, 1), BuildingBlock: MIFKUJ_clean_linker_0, # of connection points: 2
#     Edge 54, Type (0, 1), BuildingBlock: MIFKUJ_clean_linker_0, # of connection points: 2
#     Edge 55, Type (0, 1), BuildingBlock: MIFKUJ_clean_linker_0, # of connection points: 2
#     Edge 56, Type (0, 1), BuildingBlock: MIFKUJ_clean_linker_0, # of connection points: 2
#     Edge 57, Type (0, 1), BuildingBlock: MIFKUJ_clean_linker_0, # of connection points: 2
#     Edge 58, Type (0, 1), BuildingBlock: MIFKUJ_clean_linker_0, # of connection points: 2
#     Edge 59, Type (0, 1), BuildingBlock: MIFKUJ_clean_linker_0, # of connection points: 2
#     Edge 60, Type (0, 1), BuildingBlock: MIFKUJ_clean_linker_0, # of connection points: 2
#     Edge 61, Type (0, 1), BuildingBlock: MIFKUJ_clean_linker_0, # of connection points: 2
#     Edge 62, Type (0, 1), BuildingBlock: MIFKUJ_clean_linker_0, # of connection points: 2
#     Edge 63, Type (0, 1), BuildingBlock: MIFKUJ_clean_linker_0, # of connection points: 2
#     Edge 64, Type (0, 1), BuildingBlock: MIFKUJ_clean_linker_0, # of connection points: 2
#     Edge 65, Type (0, 1), BuildingBlock: MIFKUJ_clean_linker_0, # of connection points: 2
#     Edge 66, Type (0, 1), BuildingBlock: MIFKUJ_clean_linker_0, # of connection points: 2
#     Edge 67, Type (0, 1), BuildingBlock: MIFKUJ_clean_linker_0, # of connection points: 2
#     Edge 68, Type (0, 1), BuildingBlock: MIFKUJ_clean_linker_0, # of connection points: 2
#     Edge 69, Type (0, 1), BuildingBlock: MIFKUJ_clean_linker_0, # of connection points: 2
#     Edge 70, Type (0, 1), BuildingBlock: MIFKUJ_clean_linker_0, # of connection points: 2
#     Edge 71, Type (0, 1), BuildingBlock: MIFKUJ_clean_linker_0, # of connection points: 2
#     Edge 72, Type (0, 1), BuildingBlock: MIFKUJ_clean_linker_0, # of connection points: 2
#     Edge 73, Type (0, 1), BuildingBlock: MIFKUJ_clean_linker_0, # of connection points: 2
#     Edge 74, Type (0, 1), BuildingBlock: MIFKUJ_clean_linker_0, # of connection points: 2
#     Edge 75, Type (0, 1), BuildingBlock: MIFKUJ_clean_linker_0, # of connection points: 2
#     Edge 76, Type (0, 1), BuildingBlock: MIFKUJ_clean_linker_0, # of connection points: 2
#     Edge 77, Type (0, 1), BuildingBlock: MIFKUJ_clean_linker_0, # of connection points: 2
#     Edge 78, Type (0, 1), BuildingBlock: MIFKUJ_clean_linker_0, # of connection points: 2
#     Edge 79, Type (0, 1), BuildingBlock: MIFKUJ_clean_linker_0, # of connection points: 2
#     Edge 80, Type (0, 1), BuildingBlock: MIFKUJ_clean_linker_0, # of connection points: 2
#     Edge 81, Type (0, 1), BuildingBlock: MIFKUJ_clean_linker_0, # of connection points: 2
#     Edge 82, Type (0, 1), BuildingBlock: MIFKUJ_clean_linker_0, # of connection points: 2
#     Edge 83, Type (0, 1), BuildingBlock: MIFKUJ_clean_linker_0, # of connection points: 2
#     Edge 84, Type (0, 1), BuildingBlock: MIFKUJ_clean_linker_0, # of connection points: 2
#     Edge 85, Type (0, 1), BuildingBlock: MIFKUJ_clean_linker_0, # of connection points: 2
#     Edge 86, Type (0, 1), BuildingBlock: MIFKUJ_clean_linker_0, # of connection points: 2
#     Edge 87, Type (0, 1), BuildingBlock: MIFKUJ_clean_linker_0, # of connection points: 2
#     Edge 88, Type (0, 1), BuildingBlock: MIFKUJ_clean_linker_0, # of connection points: 2
#     Edge 89, Type (0, 1), BuildingBlock: MIFKUJ_clean_linker_0, # of connection points: 2
#     Edge 90, Type (0, 1), BuildingBlock: MIFKUJ_clean_linker_0, # of connection points: 2
#     Edge 91, Type (0, 1), BuildingBlock: MIFKUJ_clean_linker_0, # of connection points: 2
#     Edge 92, Type (0, 1), BuildingBlock: MIFKUJ_clean_linker_0, # of connection points: 2
#     Edge 93, Type (0, 1), BuildingBlock: MIFKUJ_clean_linker_0, # of connection points: 2
#     Edge 94, Type (0, 1), BuildingBlock: MIFKUJ_clean_linker_0, # of connection points: 2
#     Edge 95, Type (0, 1), BuildingBlock: MIFKUJ_clean_linker_0, # of connection points: 2
#     Edge 96, Type (0, 1), BuildingBlock: MIFKUJ_clean_linker_0, # of connection points: 2
#     Edge 97, Type (0, 1), BuildingBlock: MIFKUJ_clean_linker_0, # of connection points: 2
#     Edge 98, Type (0, 1), BuildingBlock: MIFKUJ_clean_linker_0, # of connection points: 2
#     Edge 99, Type (0, 1), BuildingBlock: MIFKUJ_clean_linker_0, # of connection points: 2
#     Edge 100, Type (0, 1), BuildingBlock: MIFKUJ_clean_linker_0, # of connection points: 2
#     Edge 101, Type (0, 1), BuildingBlock: MIFKUJ_clean_linker_0, # of connection points: 2
#     Edge 102, Type (0, 1), BuildingBlock: MIFKUJ_clean_linker_0, # of connection points: 2
#     Edge 103, Type (0, 1), BuildingBlock: MIFKUJ_clean_linker_0, # of connection points: 2
#     Edge 104, Type (0, 1), BuildingBlock: MIFKUJ_clean_linker_0, # of connection points: 2
#     Edge 105, Type (0, 1), BuildingBlock: MIFKUJ_clean_linker_0, # of connection points: 2
#     Edge 106, Type (0, 1), BuildingBlock: MIFKUJ_clean_linker_0, # of connection points: 2
#     Edge 107, Type (0, 1), BuildingBlock: MIFKUJ_clean_linker_0, # of connection points: 2
#     Edge 108, Type (0, 1), BuildingBlock: MIFKUJ_clean_linker_0, # of connection points: 2
#     Edge 109, Type (0, 1), BuildingBlock: MIFKUJ_clean_linker_0, # of connection points: 2
#     Edge 110, Type (0, 1), BuildingBlock: MIFKUJ_clean_linker_0, # of connection points: 2
#     Edge 111, Type (0, 1), BuildingBlock: MIFKUJ_clean_linker_0, # of connection points: 2
#     Edge 112, Type (0, 1), BuildingBlock: MIFKUJ_clean_linker_0, # of connection points: 2
#     Edge 113, Type (0, 1), BuildingBlock: MIFKUJ_clean_linker_0, # of connection points: 2
#     Edge 114, Type (0, 1), BuildingBlock: MIFKUJ_clean_linker_0, # of connection points: 2
#     Edge 115, Type (0, 1), BuildingBlock: MIFKUJ_clean_linker_0, # of connection points: 2
#     Edge 116, Type (0, 1), BuildingBlock: MIFKUJ_clean_linker_0, # of connection points: 2
#     Edge 117, Type (0, 1), BuildingBlock: MIFKUJ_clean_linker_0, # of connection points: 2
#     Edge 118, Type (0, 1), BuildingBlock: MIFKUJ_clean_linker_0, # of connection points: 2
#     Edge 119, Type (0, 1), BuildingBlock: MIFKUJ_clean_linker_0, # of connection points: 2
#     Edge 120, Type (0, 1), BuildingBlock: MIFKUJ_clean_linker_0, # of connection points: 2
#     Edge 121, Type (0, 1), BuildingBlock: MIFKUJ_clean_linker_0, # of connection points: 2
#     Edge 122, Type (0, 1), BuildingBlock: MIFKUJ_clean_linker_0, # of connection points: 2
#     Edge 123, Type (0, 1), BuildingBlock: MIFKUJ_clean_linker_0, # of connection points: 2
#     Edge 124, Type (0, 1), BuildingBlock: MIFKUJ_clean_linker_0, # of connection points: 2
#     Edge 125, Type (0, 1), BuildingBlock: MIFKUJ_clean_linker_0, # of connection points: 2
#     Edge 126, Type (0, 1), BuildingBlock: MIFKUJ_clean_linker_0, # of connection points: 2
#     Edge 127, Type (0, 1), BuildingBlock: MIFKUJ_clean_linker_0, # of connection points: 2
#     Edge 128, Type (0, 1), BuildingBlock: MIFKUJ_clean_linker_0, # of connection points: 2
#     Edge 129, Type (0, 1), BuildingBlock: MIFKUJ_clean_linker_0, # of connection points: 2
#     Edge 130, Type (0, 1), BuildingBlock: MIFKUJ_clean_linker_0, # of connection points: 2
#     Edge 131, Type (0, 1), BuildingBlock: MIFKUJ_clean_linker_0, # of connection points: 2
#     Edge 132, Type (0, 1), BuildingBlock: MIFKUJ_clean_linker_0, # of connection points: 2
#     Edge 133, Type (0, 1), BuildingBlock: MIFKUJ_clean_linker_0, # of connection points: 2
#     Edge 134, Type (0, 1), BuildingBlock: MIFKUJ_clean_linker_0, # of connection points: 2
#     Edge 135, Type (0, 1), BuildingBlock: MIFKUJ_clean_linker_0, # of connection points: 2
# Relax obj value: 0.172
# Max RMSD: 0.272
# Mean RMSD: 0.193
data_MOF--net-gar--node1-UXUYUI_clean_sbu_0--node2-INOVEN_clean_sbu_0--edge1-MIFKUJ_clean_linker_0
_symmetry_space_group_name_H-M    P1
_symmetry_Int_Tables_number       1
_symmetry_cell_setting            triclinic
loop_
_symmetry_equiv_pos_as_xyz
'x, y, z'
_cell_length_a     90.514809
_cell_length_b     85.891209
_cell_length_c     86.046357
_cell_angle_alpha  98.488268
_cell_angle_beta   94.797012
_cell_angle_gamma 102.57249
loop_
_atom_site_label
_atom_site_type_symbol
_atom_site_fract_x
_atom_site_fract_y
_atom_site_fract_z
_atom_type_partial_charge
Li0 Li 0.06047 0.30366 0.36541 0.0
Li1 Li 0.07374 0.32232 0.38878 0.0
Li2 Li 0.0876 0.3072 0.37003 0.0
Li3 Li 0.07037 0.29324 0.38755 0.0
C4 C 0.07475 0.33373 0.35601 0.0
N5 N 0.07198 0.35473 0.33512 0.0
C6 C 0.06636 0.34544 0.35928 0.0
C7 C 0.08177 0.33271 0.34214 0.0
C8 C 0.06509 0.35595 0.34856 0.0
C9 C 0.08021 0.34342 0.33172 0.0
C10 C 0.04485 0.30593 0.39805 0.0
C11 C 0.03953 0.30539 0.42498 0.0
N12 N 0.02499 0.30639 0.42072 0.0
C13 C 0.02986 0.30691 0.39392 0.0
C14 C 0.04974 0.30515 0.41369 0.0
C15 C 0.02 0.30716 0.40556 0.0
C16 C 0.03158 0.28764 0.3534 0.0
N17 N 0.0433 0.29907 0.35017 0.0
C18 C 0.02832 0.3029 0.32755 0.0
C19 C 0.04211 0.3064 0.33732 0.0
C20 C 0.01581 0.2917 0.33107 0.0
C21 C 0.01768 0.28367 0.3439 0.0
H22 H 0.033 0.28187 0.3636 0.0
H23 H 0.05166 0.31517 0.33478 0.0
C24 C 0.08852 0.35272 0.4064 0.0
N25 N 0.07481 0.34232 0.40122 0.0
C26 C 0.08916 0.36824 0.41442 0.0
C27 C 0.06157 0.36179 0.41169 0.0
C28 C 0.06148 0.34652 0.40366 0.0
C29 C 0.07552 0.37295 0.41696 0.0
H30 H 0.09892 0.34907 0.40394 0.0
H31 H 0.05076 0.33822 0.39895 0.0
C32 C 0.06508 0.27641 0.35129 0.0
N33 N 0.05009 0.25656 0.32376 0.0
C34 C 0.05519 0.26164 0.35197 0.0
C35 C 0.06745 0.28105 0.33663 0.0
C36 C 0.0477 0.25177 0.33791 0.0
C37 C 0.05972 0.27086 0.32284 0.0
C38 C 0.09994 0.31346 0.40661 0.0
C39 C 0.1146 0.31113 0.40515 0.0
C40 C 0.09621 0.31933 0.42144 0.0
C41 C 0.12528 0.3146 0.41861 0.0
C42 C 0.1072 0.32263 0.43463 0.0
N43 N 0.12139 0.32022 0.43295 0.0
C44 C 0.11499 0.32216 0.36015 0.0
C45 C 0.10639 0.2937 0.3519 0.0
C46 C 0.12676 0.32261 0.35066 0.0
N47 N 0.10503 0.30787 0.36029 0.0
C48 C 0.1178 0.29361 0.34212 0.0
C49 C 0.12792 0.30823 0.34126 0.0
H50 H 0.11339 0.33321 0.36691 0.0
H51 H 0.09829 0.28256 0.3524 0.0
C52 C 0.05199 0.26767 0.39728 0.0
N53 N 0.06669 0.27622 0.39881 0.0
C54 C 0.04815 0.25441 0.40486 0.0
C55 C 0.07473 0.25889 0.41524 0.0
C56 C 0.07805 0.27218 0.40752 0.0
C57 C 0.0596 0.24987 0.41391 0.0
H58 H 0.0433 0.2711 0.39002 0.0
H59 H 0.08965 0.27915 0.40832 0.0
O60 O 0.0765 0.32365 0.36654 0.0
O61 O 0.05456 0.30554 0.38672 0.0
O62 O 0.07229 0.28639 0.36493 0.0
O63 O 0.08952 0.31048 0.39345 0.0
H64 H 0.06088 0.34639 0.36997 0.0
H65 H 0.08828 0.32369 0.33942 0.0
H66 H 0.05864 0.36508 0.35094 0.0
H67 H 0.08554 0.34276 0.32093 0.0
H68 H 0.04314 0.30473 0.43712 0.0
H69 H 0.02591 0.30759 0.38187 0.0
H70 H 0.06122 0.30413 0.41704 0.0
H71 H 0.00837 0.30795 0.40253 0.0
H72 H 0.0273 0.30941 0.3178 0.0
H73 H 0.00837 0.27473 0.34682 0.0
H74 H 0.10014 0.37657 0.41818 0.0
H75 H 0.05079 0.36484 0.41362 0.0
H76 H 0.05326 0.25787 0.36323 0.0
H77 H 0.075 0.29252 0.33593 0.0
H78 H 0.03996 0.24032 0.33824 0.0
H79 H 0.06136 0.27435 0.31141 0.0
H80 H 0.11769 0.30674 0.39371 0.0
H81 H 0.08504 0.32156 0.42274 0.0
H82 H 0.13667 0.31286 0.41766 0.0
H83 H 0.10448 0.3272 0.44618 0.0
H84 H 0.13447 0.33406 0.35019 0.0
H85 H 0.1186 0.28231 0.33515 0.0
H86 H 0.03641 0.24758 0.40338 0.0
H87 H 0.08382 0.25574 0.42221 0.0
Li88 Li 0.99722 0.77574 0.63443 0.0
Li89 Li 0.00799 0.76475 0.65667 0.0
Li90 Li 0.99323 0.74666 0.63294 0.0
Li91 Li 0.98061 0.76096 0.65235 0.0
C92 C 0.02243 0.76101 0.6238 0.0
N93 N 0.04211 0.75675 0.60156 0.0
C94 C 0.03758 0.76109 0.62863 0.0
C95 C 0.01727 0.75879 0.6077 0.0
C96 C 0.04736 0.75892 0.61719 0.0
C97 C 0.0274 0.75664 0.59662 0.0
C98 C 1.00089 0.79429 0.66981 0.0
C99 C 1.00312 0.80519 0.69761 0.0
N100 N 0.01062 0.81982 0.69472 0.0
C101 C 0.00848 0.80947 0.66709 0.0
C102 C 0.99807 0.79216 0.68517 0.0
C103 C 0.01336 0.82221 0.67985 0.0
C104 C 0.98961 0.79886 0.61731 0.0
N105 N 1.00115 0.79299 0.62347 0.0
C106 C 0.01978 0.81308 0.61497 0.0
C107 C 0.016 0.79976 0.62249 0.0
C108 C 0.00814 0.81954 0.60859 0.0
C109 C 0.99288 0.81229 0.60977 0.0
H110 H 0.97793 0.7932 0.61841 0.0
H111 H 0.0249 0.79497 0.62783 0.0
C112 C 0.02886 0.75442 0.67583 0.0
N113 N 0.02499 0.76775 0.67157 0.0
C114 C 0.04222 0.75604 0.68578 0.0
C115 C 0.04736 0.78505 0.68662 0.0
C116 C 0.03391 0.78287 0.67666 0.0
C117 C 0.05158 0.77149 0.69108 0.0
H118 H 0.02194 0.7425 0.67098 0.0
H119 H 0.03098 0.79314 0.67243 0.0
C120 C 0.96666 0.7521 0.61653 0.0
N121 N 0.94454 0.73741 0.59147 0.0
C122 C 0.95261 0.74302 0.61928 0.0
C123 C 0.96938 0.75395 0.60108 0.0
C124 C 0.9416 0.73563 0.60644 0.0
C125 C 0.95807 0.74635 0.58856 0.0
C126 C 0.99056 0.73486 0.66622 0.0
C127 C 0.98805 0.7181 0.66164 0.0
C128 C 0.99168 0.74146 0.68223 0.0
C129 C 0.98669 0.70821 0.6732 0.0
C130 C 0.99025 0.73117 0.69343 0.0
N131 N 0.98782 0.7149 0.68873 0.0
C132 C 0.00574 0.72164 0.62194 0.0
C133 C 0.97986 0.71721 0.61129 0.0
C134 C 0.00663 0.70665 0.61396 0.0
N135 N 0.99258 0.72669 0.62031 0.0
C136 C 0.9802 0.70206 0.60313 0.0
C137 C 0.99372 0.69664 0.60446 0.0
H138 H 0.0155 0.72918 0.62966 0.0
H139 H 0.96936 0.72113 0.61065 0.0
C140 C 0.96057 0.77367 0.66996 0.0
N141 N 0.96381 0.75968 0.66327 0.0
C142 C 0.94939 0.77325 0.6801 0.0
C143 C 0.94473 0.74397 0.67566 0.0
C144 C 0.95608 0.74497 0.66567 0.0
C145 C 0.94151 0.75827 0.68318 0.0
H146 H 0.96694 0.78514 0.66769 0.0
H147 H 0.95898 0.73409 0.6601 0.0
O148 O 0.01274 0.76306 0.63488 0.0
O149 O 0.99603 0.78171 0.65742 0.0
O150 O 0.97755 0.75946 0.62895 0.0
O151 O 0.9923 0.74469 0.65504 0.0
H152 H 0.04171 0.76279 0.64108 0.0
H153 H 0.00557 0.75866 0.60382 0.0
H154 H 0.05912 0.75895 0.62074 0.0
H155 H 0.02357 0.75487 0.5841 0.0
H156 H 1.00104 0.80369 0.70956 0.0
H157 H 0.01066 0.81138 0.65526 0.0
H158 H 0.99196 0.78061 0.68746 0.0
H159 H 0.01933 0.834 0.67793 0.0
H160 H 0.03167 0.81852 0.61448 0.0
H161 H 0.98363 0.81694 0.60489 0.0
H162 H 0.04559 0.74535 0.68867 0.0
H163 H 0.05472 0.79705 0.69021 0.0
H164 H 0.9503 0.74159 0.63118 0.0
H165 H 0.98007 0.7612 0.59879 0.0
H166 H 0.93071 0.72847 0.60837 0.0
H167 H 0.96004 0.7476 0.57653 0.0
H168 H 0.98721 0.7128 0.64928 0.0
H169 H 0.9938 0.75438 0.68597 0.0
H170 H 0.98479 0.69523 0.66983 0.0
H171 H 0.99113 0.73612 0.70588 0.0
H172 H 0.01732 0.70298 0.6152 0.0
H173 H 0.96993 0.69454 0.59615 0.0
H174 H 0.94694 0.78449 0.68548 0.0
H175 H 0.93881 0.73223 0.67779 0.0
Li176 Li 0.56174 0.8028 0.8642 0.0
Li177 Li 0.57541 0.82005 0.88833 0.0
Li178 Li 0.58892 0.80616 0.86908 0.0
Li179 Li 0.57099 0.79107 0.88575 0.0
C180 C 0.576 0.83363 0.85676 0.0
N181 N 0.57285 0.85614 0.83765 0.0
C182 C 0.56801 0.84542 0.86131 0.0
C183 C 0.58242 0.83329 0.84253 0.0
C184 C 0.56654 0.8567 0.85147 0.0
C185 C 0.58068 0.84476 0.83302 0.0
C186 C 0.54503 0.80309 0.89578 0.0
C187 C 0.53734 0.79982 0.9215 0.0
N188 N 0.52326 0.80168 0.91654 0.0
C189 C 0.5305 0.80504 0.89096 0.0
C190 C 0.54851 0.80053 0.91119 0.0
C191 C 0.51965 0.80426 0.90162 0.0
C192 C 0.53283 0.7874 0.85194 0.0
N193 N 0.54468 0.79875 0.84883 0.0
C194 C 0.52979 0.80315 0.8264 0.0
C195 C 0.54362 0.80628 0.83608 0.0
C196 C 0.51714 0.79227 0.83006 0.0
C197 C 0.51882 0.78402 0.84271 0.0
H198 H 0.53417 0.78139 0.86198 0.0
H199 H 0.55328 0.81496 0.83362 0.0
C200 C 0.59084 0.85076 0.90457 0.0
N201 N 0.57727 0.83967 0.90212 0.0
C202 C 0.59237 0.86571 0.9142 0.0
C203 C 0.56589 0.85749 0.91841 0.0
C204 C 0.56487 0.84281 0.90868 0.0
C205 C 0.57975 0.86913 0.92124 0.0
H206 H 0.6004 0.84806 0.89885 0.0
H207 H 0.55407 0.83417 0.90608 0.0
C208 C 0.56693 0.77628 0.84858 0.0
N209 N 0.55359 0.75811 0.81962 0.0
C210 C 0.55707 0.76113 0.84783 0.0
C211 C 0.5701 0.78214 0.83462 0.0
C212 C 0.55042 0.75214 0.83307 0.0
C213 C 0.56321 0.77279 0.82009 0.0
C214 C 0.60103 0.81531 0.90517 0.0
C215 C 0.61627 0.82121 0.90312 0.0
C216 C 0.59647 0.81741 0.9203 0.0
C217 C 0.62669 0.82921 0.91627 0.0
C218 C 0.60721 0.82554 0.93314 0.0
N219 N 0.62198 0.8312 0.93088 0.0
C220 C 0.6149 0.82286 0.85858 0.0
C221 C 0.60887 0.79427 0.85079 0.0
C222 C 0.62633 0.82459 0.84868 0.0
N223 N 0.60632 0.8079 0.85912 0.0
C224 C 0.62014 0.79542 0.84073 0.0
C225 C 0.62873 0.81075 0.83932 0.0
H226 H 0.61234 0.83344 0.86528 0.0
H227 H 0.60174 0.78259 0.85149 0.0
C228 C 0.55279 0.76337 0.89254 0.0
N229 N 0.56667 0.77376 0.89646 0.0
C230 C 0.54879 0.75034 0.90041 0.0
C231 C 0.57333 0.75936 0.91652 0.0
C232 C 0.57691 0.7721 0.90817 0.0
C233 C 0.55914 0.74821 0.91258 0.0
H234 H 0.54485 0.76528 0.8833 0.0
H235 H 0.58779 0.78075 0.91109 0.0
O236 O 0.57801 0.82283 0.86646 0.0
O237 O 0.55581 0.804 0.88548 0.0
O238 O 0.57337 0.78538 0.86292 0.0
O239 O 0.59082 0.80698 0.89248 0.0
H240 H 0.56305 0.84589 0.87234 0.0
H241 H 0.58859 0.8242 0.8388 0.0
H242 H 0.56041 0.86593 0.85484 0.0
H243 H 0.58555 0.84462 0.82195 0.0
H244 H 0.53988 0.79781 0.93345 0.0
H245 H 0.52768 0.80735 0.87918 0.0
H246 H 0.55968 0.79908 0.91517 0.0
H247 H 0.50837 0.80577 0.89805 0.0
H248 H 0.52877 0.80974 0.8167 0.0
H249 H 0.50925 0.77548 0.84575 0.0
H250 H 0.60319 0.87452 0.91604 0.0
H251 H 0.55579 0.85993 0.92325 0.0
H252 H 0.55458 0.75636 0.8585 0.0
H253 H 0.57765 0.79388 0.83501 0.0
H254 H 0.54274 0.74041 0.83231 0.0
H255 H 0.56548 0.77722 0.80919 0.0
H256 H 0.62006 0.81948 0.89153 0.0
H257 H 0.58476 0.81287 0.92213 0.0
H258 H 0.63854 0.83378 0.91486 0.0
H259 H 0.60382 0.8273 0.94492 0.0
H260 H 0.63275 0.83659 0.84785 0.0
H261 H 0.62191 0.78447 0.8339 0.0
H262 H 0.53783 0.74193 0.89686 0.0
H263 H 0.58151 0.75833 0.92601 0.0
Li264 Li 0.49811 0.27504 0.13568 0.0
Li265 Li 0.50742 0.26419 0.15825 0.0
Li266 Li 0.49374 0.24603 0.13495 0.0
Li267 Li 0.48057 0.26137 0.15327 0.0
C268 C 0.52206 0.26113 0.12465 0.0
N269 N 0.53961 0.25901 0.10002 0.0
C270 C 0.53785 0.26343 0.12779 0.0
C271 C 0.51518 0.25776 0.109 0.0
C272 C 0.54654 0.26231 0.11517 0.0
C273 C 0.52425 0.25673 0.0967 0.0
C274 C 0.49809 0.29391 0.17069 0.0
C275 C 0.49374 0.30392 0.1972 0.0
N276 N 0.50135 0.31904 0.19573 0.0
C277 C 0.50581 0.30955 0.16941 0.0
C278 C 0.49195 0.29106 0.18466 0.0
C279 C 0.50736 0.32209 0.18221 0.0
C280 C 0.49042 0.29768 0.1184 0.0
N281 N 0.50217 0.29204 0.12444 0.0
C282 C 0.52034 0.31193 0.11515 0.0
C283 C 0.51691 0.29889 0.12312 0.0
C284 C 0.50847 0.3181 0.10889 0.0
C285 C 0.49334 0.3109 0.11056 0.0
H286 H 0.47883 0.29201 0.11986 0.0
H287 H 0.52602 0.2944 0.12846 0.0
C288 C 0.53262 0.25583 0.17069 0.0
N289 N 0.5243 0.26709 0.17349 0.0
C290 C 0.54582 0.25681 0.1806 0.0
C291 C 0.54174 0.2811 0.19606 0.0
C292 C 0.5285 0.27956 0.18589 0.0
C293 C 0.55056 0.26966 0.19337 0.0
H294 H 0.52909 0.24623 0.16054 0.0
H295 H 0.52186 0.28849 0.18781 0.0
C296 C 0.46697 0.25138 0.11811 0.0
N297 N 0.44347 0.23618 0.09455 0.0
C298 C 0.4534 0.24229 0.12193 0.0
C299 C 0.46849 0.25301 0.10236 0.0
C300 C 0.44167 0.23463 0.10983 0.0
C301 C 0.45651 0.24515 0.09061 0.0
C302 C 0.49637 0.23676 0.16855 0.0
C303 C 0.50096 0.22234 0.16442 0.0
C304 C 0.49729 0.24351 0.18451 0.0
C305 C 0.50668 0.21505 0.17633 0.0
C306 C 0.50311 0.23589 0.19607 0.0
N307 N 0.50765 0.22194 0.19178 0.0
C308 C 0.50668 0.22197 0.122 0.0
C309 C 0.48007 0.21632 0.11397 0.0
C310 C 0.50772 0.20757 0.11295 0.0
N311 N 0.49308 0.2262 0.1221 0.0
C312 C 0.48057 0.20171 0.10477 0.0
C313 C 0.49458 0.19735 0.10411 0.0
H314 H 0.5167 0.22969 0.12917 0.0
H315 H 0.46931 0.21963 0.11468 0.0
C316 C 0.45609 0.27352 0.16322 0.0
N317 N 0.46328 0.26123 0.16323 0.0
C318 C 0.44443 0.27438 0.17265 0.0
C319 C 0.44784 0.24978 0.18158 0.0
C320 C 0.45926 0.24931 0.17186 0.0
C321 C 0.4404 0.26255 0.18221 0.0
H322 H 0.45975 0.28287 0.15627 0.0
H323 H 0.46528 0.23973 0.17159 0.0
O324 O 0.51343 0.26195 0.13692 0.0
O325 O 0.49642 0.28157 0.15821 0.0
O326 O 0.47853 0.25908 0.12978 0.0
O327 O 0.49082 0.24411 0.15703 0.0
H328 H 0.54333 0.26602 0.13986 0.0
H329 H 0.50297 0.25582 0.10642 0.0
H330 H 0.55877 0.26405 0.11742 0.0
H331 H 0.51908 0.25408 0.08453 0.0
H332 H 0.4891 0.30188 0.2081 0.0
H333 H 0.51057 0.31195 0.15863 0.0
H334 H 0.48594 0.27906 0.18588 0.0
H335 H 0.51333 0.33425 0.1814 0.0
H336 H 0.53215 0.3174 0.11425 0.0
H337 H 0.48395 0.31544 0.10584 0.0
H338 H 0.55253 0.24794 0.17796 0.0
H339 H 0.54512 0.2912 0.20579 0.0
H340 H 0.45199 0.241 0.13407 0.0
H341 H 0.47877 0.26034 0.09924 0.0
H342 H 0.43114 0.22743 0.11258 0.0
H343 H 0.45756 0.24623 0.07836 0.0
H344 H 0.5001 0.21678 0.15217 0.0
H345 H 0.49372 0.25462 0.18792 0.0
H346 H 0.51032 0.20392 0.1733 0.0
H347 H 0.50401 0.24107 0.20846 0.0
H348 H 0.51866 0.20436 0.11303 0.0
H349 H 0.47019 0.19402 0.09814 0.0
H350 H 0.43879 0.28428 0.17262 0.0
H351 H 0.44524 0.24055 0.1889 0.0
Li352 Li 0.06266 0.81727 0.10749 0.0
Li353 Li 0.07798 0.80378 0.1275 0.0
Li354 Li 0.05984 0.78772 0.1046 0.0
Li355 Li 0.04894 0.80058 0.12665 0.0
C356 C 0.08471 0.7981 0.09146 0.0
N357 N 0.09574 0.78354 0.06555 0.0
C358 C 0.0971 0.79105 0.09359 0.0
C359 C 0.07799 0.79786 0.07617 0.0
C360 C 0.1025 0.78372 0.08033 0.0
C361 C 0.08371 0.7904 0.06322 0.0
C362 C 0.06529 0.8316 0.14476 0.0
C363 C 0.06459 0.83757 0.17289 0.0
N364 N 0.06448 0.85316 0.17166 0.0
C365 C 0.06513 0.84765 0.14374 0.0
C366 C 0.06505 0.82648 0.15942 0.0
C367 C 0.06475 0.85838 0.15749 0.0
C368 C 0.04984 0.84263 0.0992 0.0
N369 N 0.06184 0.83569 0.09703 0.0
C370 C 0.07063 0.85373 0.07916 0.0
C371 C 0.07217 0.84098 0.08723 0.0
C372 C 0.05832 0.86117 0.08115 0.0
C373 C 0.04789 0.85541 0.09143 0.0
H374 H 0.04169 0.83814 0.10694 0.0
H375 H 0.08152 0.83518 0.08549 0.0
C376 C 0.1003 0.78908 0.14016 0.0
N377 N 0.09719 0.80391 0.14018 0.0
C378 C 0.11362 0.7874 0.14865 0.0
C379 C 0.12078 0.81635 0.15689 0.0
C380 C 0.10717 0.81747 0.14832 0.0
C381 C 0.12415 0.80111 0.15726 0.0
H382 H 0.09239 0.77846 0.13343 0.0
H383 H 0.10461 0.82918 0.14818 0.0
C384 C 0.03199 0.79445 0.09195 0.0
N385 N 0.00814 0.78311 0.06791 0.0
C386 C 0.01915 0.78292 0.09408 0.0
C387 C 0.03265 0.80034 0.07766 0.0
C388 C 0.00723 0.7773 0.08176 0.0
C389 C 0.02049 0.79442 0.06563 0.0
C390 C 0.05489 0.77031 0.13167 0.0
C391 C 0.04178 0.76006 0.1229 0.0
C392 C 0.06117 0.76617 0.14543 0.0
C393 C 0.03518 0.74573 0.12804 0.0
C394 C 0.05421 0.75176 0.1502 0.0
N395 N 0.04148 0.74192 0.14147 0.0
C396 C 0.0677 0.7587 0.09375 0.0
C397 C 0.04696 0.76229 0.0771 0.0
C398 C 0.06702 0.74362 0.08466 0.0
N399 N 0.05771 0.7677 0.08994 0.0
C400 C 0.04568 0.74711 0.06786 0.0
C401 C 0.05575 0.73754 0.07166 0.0
H402 H 0.0761 0.76318 0.10404 0.0
H403 H 0.03922 0.76955 0.07404 0.0
C404 C 0.01929 0.80425 0.13256 0.0
N405 N 0.03115 0.79856 0.13839 0.0
C406 C 0.00555 0.80198 0.1393 0.0
C407 C 0.01646 0.78838 0.15829 0.0
C408 C 0.02999 0.79085 0.15113 0.0
C409 C 0.00387 0.79383 0.15232 0.0
H410 H 0.02039 0.81035 0.12243 0.0
H411 H 0.03948 0.78636 0.15563 0.0
O412 O 0.07908 0.80506 0.10428 0.0
O413 O 0.06591 0.82105 0.13145 0.0
O414 O 0.04373 0.80019 0.10389 0.0
O415 O 0.06163 0.78432 0.12682 0.0
H416 H 0.10241 0.79114 0.10536 0.0
H417 H 0.06836 0.80324 0.07436 0.0
H418 H 0.11204 0.77815 0.08179 0.0
H419 H 0.07858 0.79004 0.05132 0.0
H420 H 0.06436 0.83379 0.18434 0.0
H421 H 0.06544 0.8518 0.13246 0.0
H422 H 0.0652 0.81408 0.16035 0.0
H423 H 0.0647 0.87087 0.15691 0.0
H424 H 0.07886 0.85748 0.07123 0.0
H425 H 0.03835 0.86081 0.09362 0.0
H426 H 0.11572 0.77542 0.14828 0.0
H427 H 0.12844 0.82728 0.16338 0.0
H428 H 0.01839 0.77835 0.10512 0.0
H429 H 0.04246 0.80933 0.07584 0.0
H430 H 0.99724 0.76833 0.08322 0.0
H431 H 0.02086 0.79882 0.05449 0.0
H432 H 0.03682 0.76308 0.11221 0.0
H433 H 0.07126 0.77405 0.1524 0.0
H434 H 0.02506 0.73765 0.12135 0.0
H435 H 0.05894 0.74841 0.16084 0.0
H436 H 0.07492 0.73655 0.08809 0.0
H437 H 0.03689 0.74289 0.05786 0.0
H438 H 0.99635 0.80666 0.13436 0.0
H439 H 0.01577 0.7819 0.16819 0.0
Li440 Li 0.51149 0.78055 0.41959 0.0
Li441 Li 0.49315 0.76586 0.39615 0.0
Li442 Li 0.50786 0.75087 0.41499 0.0
Li443 Li 0.52218 0.76804 0.39644 0.0
C444 C 0.48396 0.76759 0.43127 0.0
N445 N 0.46745 0.77537 0.45569 0.0
C446 C 0.47496 0.77879 0.43022 0.0
C447 C 0.48451 0.7603 0.44474 0.0
C448 C 0.46671 0.78258 0.44269 0.0
C449 C 0.4761 0.7644 0.45696 0.0
C450 C 0.50964 0.7972 0.38964 0.0
C451 C 0.51407 0.80983 0.3667 0.0
N452 N 0.50868 0.8225 0.37345 0.0
C453 C 0.50414 0.81034 0.39635 0.0
C454 C 0.51463 0.79691 0.3747 0.0
C455 C 0.50373 0.823 0.38797 0.0
C456 C 0.52563 0.81301 0.43065 0.0
N457 N 0.51606 0.80025 0.43494 0.0
C458 C 0.51182 0.8173 0.45796 0.0
C459 C 0.5097 0.802 0.44869 0.0
C460 C 0.52079 0.83089 0.45319 0.0
C461 C 0.52811 0.82851 0.43956 0.0
H462 H 0.53086 0.81127 0.41987 0.0
H463 H 0.50273 0.79168 0.45238 0.0
C464 C 0.46541 0.75368 0.37287 0.0
N465 N 0.47388 0.76649 0.38356 0.0
C466 C 0.45174 0.75481 0.36442 0.0
C467 C 0.45555 0.78215 0.37815 0.0
C468 C 0.46913 0.78055 0.3862 0.0
C469 C 0.44653 0.7692 0.36704 0.0
H470 H 0.46917 0.7425 0.37093 0.0
H471 H 0.47584 0.79063 0.39466 0.0
C472 C 0.53608 0.77348 0.43364 0.0
N473 N 0.55333 0.78594 0.46262 0.0
C474 C 0.55096 0.78271 0.4344 0.0
C475 C 0.53001 0.7705 0.44761 0.0
C476 C 0.5595 0.78891 0.44917 0.0
C477 C 0.53889 0.77694 0.46215 0.0
C478 C 0.50649 0.73688 0.37883 0.0
C479 C 0.51411 0.72497 0.38199 0.0
C480 C 0.50102 0.73728 0.36326 0.0
C481 C 0.51617 0.71363 0.36945 0.0
C482 C 0.50331 0.72571 0.35104 0.0
N483 N 0.51077 0.71423 0.35437 0.0
C484 C 0.49565 0.72252 0.42925 0.0
C485 C 0.52224 0.7289 0.42807 0.0
C486 C 0.49692 0.70967 0.43729 0.0
N487 N 0.50826 0.73195 0.42494 0.0
C488 C 0.524 0.71609 0.43584 0.0
C489 C 0.51128 0.70625 0.44077 0.0
H490 H 0.48462 0.72513 0.42672 0.0
H491 H 0.53213 0.73649 0.4245 0.0
C492 C 0.55106 0.78508 0.39013 0.0
N493 N 0.54006 0.77128 0.38474 0.0
C494 C 0.56487 0.78797 0.38354 0.0
C495 C 0.55561 0.76287 0.36531 0.0
C496 C 0.5421 0.7603 0.37245 0.0
C497 C 0.56735 0.77676 0.37097 0.0
H498 H 0.54917 0.79381 0.39972 0.0
H499 H 0.5334 0.74942 0.3682 0.0
O500 O 0.49203 0.76361 0.41913 0.0
O501 O 0.51057 0.78492 0.39784 0.0
O502 O 0.5274 0.76751 0.41932 0.0
O503 O 0.50435 0.74806 0.39093 0.0
H504 H 0.47447 0.78464 0.41999 0.0
H505 H 0.49143 0.75165 0.44584 0.0
H506 H 0.45976 0.79129 0.44205 0.0
H507 H 0.47646 0.75889 0.46746 0.0
H508 H 0.51794 0.8098 0.35514 0.0
H509 H 0.50016 0.81071 0.40789 0.0
H510 H 0.51896 0.78684 0.36937 0.0
H511 H 0.49949 0.83324 0.39302 0.0
H512 H 0.50629 0.81851 0.46861 0.0
H513 H 0.53511 0.8386 0.43539 0.0
H514 H 0.4452 0.7444 0.3561 0.0
H515 H 0.45228 0.79359 0.38051 0.0
H516 H 0.55592 0.78502 0.42374 0.0
H517 H 0.51852 0.76339 0.44722 0.0
H518 H 0.57104 0.79607 0.44993 0.0
H519 H 0.5343 0.7748 0.47305 0.0
H520 H 0.51844 0.72454 0.39397 0.0
H521 H 0.49519 0.7465 0.36064 0.0
H522 H 0.52208 0.70436 0.3717 0.0
H523 H 0.49918 0.72588 0.33892 0.0
H524 H 0.48674 0.7027 0.44095 0.0
H525 H 0.53528 0.71388 0.43779 0.0
H526 H 0.57349 0.79895 0.38816 0.0
H527 H 0.55701 0.75384 0.3557 0.0
Li528 Li 0.5618 0.31684 0.60724 0.0
Li529 Li 0.57688 0.30416 0.62762 0.0
Li530 Li 0.55925 0.28699 0.60399 0.0
Li531 Li 0.54794 0.30005 0.62628 0.0
C532 C 0.5866 0.30363 0.59209 0.0
N533 N 0.60349 0.30096 0.56694 0.0
C534 C 0.60135 0.30121 0.59445 0.0
C535 C 0.58052 0.30492 0.57699 0.0
C536 C 0.60968 0.29982 0.58157 0.0
C537 C 0.58922 0.30348 0.56442 0.0
C538 C 0.56551 0.33145 0.6449 0.0
C539 C 0.5663 0.33695 0.67326 0.0
N540 N 0.56824 0.35301 0.67271 0.0
C541 C 0.56748 0.34798 0.64458 0.0
C542 C 0.56491 0.32583 0.65931 0.0
C543 C 0.56886 0.35871 0.65879 0.0
C544 C 0.5472 0.33664 0.5908 0.0
N545 N 0.5612 0.33519 0.59664 0.0
C546 C 0.57301 0.35947 0.5875 0.0
C547 C 0.57402 0.34629 0.59511 0.0
C548 C 0.55868 0.36117 0.58121 0.0
C549 C 0.54569 0.34945 0.58292 0.0
H550 H 0.53713 0.32787 0.59235 0.0
H551 H 0.58504 0.34495 0.59986 0.0
C552 C 0.60153 0.2912 0.63691 0.0
N553 N 0.59591 0.30459 0.64052 0.0
C554 C 0.61482 0.28955 0.64548 0.0
C555 C 0.61649 0.31552 0.66149 0.0
C556 C 0.60313 0.3167 0.65256 0.0
C557 C 0.62255 0.30175 0.65809 0.0
H558 H 0.59562 0.28169 0.62733 0.0
H559 H 0.59849 0.32722 0.65535 0.0
C560 C 0.5313 0.2921 0.59129 0.0
N561 N 0.50787 0.27788 0.56731 0.0
C562 C 0.51776 0.28248 0.59464 0.0
C563 C 0.53286 0.29457 0.57575 0.0
C564 C 0.50607 0.27537 0.58235 0.0
C565 C 0.5209 0.28726 0.5638 0.0
C566 C 0.55743 0.27223 0.63519 0.0
C567 C 0.54593 0.25837 0.62931 0.0
C568 C 0.56543 0.27379 0.65016 0.0
C569 C 0.54269 0.2462 0.63849 0.0
C570 C 0.56184 0.26137 0.65899 0.0
N571 N 0.55065 0.24794 0.65301 0.0
C572 C 0.56996 0.26272 0.58486 0.0
C573 C 0.54326 0.25653 0.58534 0.0
C574 C 0.56908 0.24761 0.57571 0.0
N575 N 0.55716 0.26695 0.58947 0.0
C576 C 0.54185 0.24125 0.57632 0.0
C577 C 0.5549 0.2365 0.57151 0.0
H578 H 0.58097 0.2708 0.58872 0.0
H579 H 0.53329 0.25968 0.58966 0.0
C580 C 0.51882 0.30466 0.63274 0.0
N581 N 0.53025 0.29803 0.63801 0.0
C582 C 0.50508 0.30255 0.63947 0.0
C583 C 0.51523 0.28735 0.65743 0.0
C584 C 0.52875 0.28968 0.65029 0.0
C585 C 0.50304 0.29365 0.65193 0.0
H586 H 0.52023 0.31131 0.62302 0.0
H587 H 0.53794 0.28462 0.65448 0.0
O588 O 0.57819 0.30474 0.60452 0.0
O589 O 0.56425 0.32086 0.63111 0.0
O590 O 0.54283 0.2993 0.60321 0.0
O591 O 0.561 0.28413 0.62629 0.0
H592 H 0.60626 0.3003 0.60609 0.0
H593 H 0.56924 0.307 0.57502 0.0
H594 H 0.62106 0.29783 0.58321 0.0
H595 H 0.58463 0.30438 0.55265 0.0
H596 H 0.56585 0.33281 0.68453 0.0
H597 H 0.56799 0.35247 0.63347 0.0
H598 H 0.5634 0.31304 0.65969 0.0
H599 H 0.57042 0.37155 0.65874 0.0
H600 H 0.58334 0.36817 0.5864 0.0
H601 H 0.5344 0.35037 0.57852 0.0
H602 H 0.61903 0.27883 0.64208 0.0
H603 H 0.62183 0.3252 0.67117 0.0
H604 H 0.5164 0.28026 0.60654 0.0
H605 H 0.54312 0.30214 0.57295 0.0
H606 H 0.49558 0.26781 0.58477 0.0
H607 H 0.52197 0.28907 0.55173 0.0
H608 H 0.53953 0.25705 0.61782 0.0
H609 H 0.57428 0.28451 0.65495 0.0
H610 H 0.53384 0.23539 0.63407 0.0
H611 H 0.56794 0.26241 0.6706 0.0
H612 H 0.57947 0.24459 0.57222 0.0
H613 H 0.53071 0.233 0.57377 0.0
H614 H 0.49618 0.30789 0.63497 0.0
H615 H 0.51422 0.28033 0.66692 0.0
Li616 Li 0.01115 0.28191 0.92017 0.0
Li617 Li 0.99375 0.2665 0.89678 0.0
Li618 Li 0.00809 0.25225 0.91632 0.0
Li619 Li 0.02221 0.26893 0.89775 0.0
C620 C 0.98453 0.26687 0.93271 0.0
N621 N 0.96924 0.27071 0.95898 0.0
C622 C 0.9719 0.27376 0.93214 0.0
C623 C 0.98928 0.26176 0.94659 0.0
C624 C 0.96436 0.27565 0.94556 0.0
C625 C 0.98142 0.26385 0.95976 0.0
C626 C 0.00673 0.29566 0.88828 0.0
C627 C 1.00292 0.30167 0.86196 0.0
N628 N 0.99891 0.31548 0.86806 0.0
C629 C 1.0025 0.30986 0.8943 0.0
C630 C 0.00689 0.29147 0.87199 0.0
C631 C 0.9986 0.31974 0.88388 0.0
C632 C 0.02616 0.31391 0.93089 0.0
N633 N 0.01508 0.30213 0.9347 0.0
C634 C 0.00982 0.32096 0.95574 0.0
C635 C 0.00718 0.30528 0.94712 0.0
C636 C 0.02072 0.33352 0.95156 0.0
C637 C 0.02921 0.32971 0.9392 0.0
H638 H 0.03233 0.3111 0.92101 0.0
H639 H 0.99853 0.29585 0.95016 0.0
C640 C 0.96752 0.25528 0.87156 0.0
N641 N 0.97455 0.26692 0.8841 0.0
C642 C 0.95386 0.25638 0.86307 0.0
C643 C 0.9548 0.28133 0.88049 0.0
C644 C 0.96842 0.2798 0.88855 0.0
C645 C 0.9472 0.26953 0.86752 0.0
H646 H 0.97246 0.24509 0.86812 0.0
H647 H 0.97415 0.28903 0.89843 0.0
C648 C 0.03801 0.279 0.93235 0.0
N649 N 0.05928 0.2992 0.95576 0.0
C650 C 0.05184 0.28751 0.9285 0.0
C651 C 0.035 0.28077 0.94812 0.0
C652 C 0.06245 0.29765 0.94051 0.0
C653 C 0.04589 0.29106 0.95977 0.0
C654 C 0.00961 0.2392 0.88031 0.0
C655 C 0.01691 0.22714 0.88373 0.0
C656 C 0.00712 0.24158 0.86468 0.0
C657 C 0.02173 0.21769 0.8714 0.0
C658 C 0.01212 0.23188 0.85269 0.0
N659 N 0.01927 0.22025 0.85627 0.0
C660 C 0.99845 0.21883 0.92114 0.0
C661 C 0.01908 0.23527 0.9391 0.0
C662 C 0.99943 0.20536 0.92832 0.0
N663 N 0.00824 0.23345 0.92657 0.0
C664 C 0.02032 0.22223 0.94675 0.0
C665 C 0.01051 0.20695 0.94134 0.0
H666 H 0.99001 0.21756 0.91107 0.0
H667 H 0.02695 0.24684 0.9431 0.0
C668 C 0.04469 0.2848 0.87976 0.0
N669 N 0.04014 0.27132 0.88632 0.0
C670 C 0.05825 0.28737 0.8727 0.0
C671 C 0.06253 0.26237 0.87958 0.0
C672 C 0.04885 0.26024 0.88644 0.0
C673 C 0.06746 0.2761 0.87257 0.0
H674 H 0.03804 0.29384 0.88035 0.0
H675 H 0.04537 0.24989 0.89219 0.0
O676 O 0.992 0.26482 0.91965 0.0
O677 O 0.01082 0.28596 0.89832 0.0
O678 O 0.02743 0.26908 0.92074 0.0
O679 O 0.00482 0.24856 0.8922 0.0
H680 H 0.96796 0.27763 0.92148 0.0
H681 H 0.99894 0.2563 0.94723 0.0
H682 H 0.95461 0.28104 0.94531 0.0
H683 H 0.98502 0.26002 0.97059 0.0
H684 H 1.00306 0.29862 0.84933 0.0
H685 H 1.00216 0.31319 0.90686 0.0
H686 H 0.01013 0.28051 0.86717 0.0
H687 H 0.99533 0.33078 0.88837 0.0
H688 H 1.00295 0.32335 0.96513 0.0
H689 H 0.03792 0.33891 0.93574 0.0
H690 H 0.94847 0.24688 0.85326 0.0
H691 H 0.95041 0.29185 0.88429 0.0
H692 H 0.05436 0.28633 0.91638 0.0
H693 H 0.02429 0.27446 0.95131 0.0
H694 H 0.0732 0.3043 0.9377 0.0
H695 H 0.04367 0.2926 0.972 0.0
H696 H 0.01894 0.22518 0.89578 0.0
H697 H 1.00139 0.2508 0.86186 0.0
H698 H 0.02745 0.20835 0.87387 0.0
H699 H 0.01031 0.2336 0.84053 0.0
H700 H 0.99157 0.19384 0.92376 0.0
H701 H 0.02919 0.22402 0.95655 0.0
H702 H 0.06168 0.29831 0.86777 0.0
H703 H 0.06916 0.2533 0.87976 0.0
Li704 Li 0.42241 0.03346 0.29225 0.0
Li705 Li 0.40378 0.01716 0.27219 0.0
Li706 Li 0.42666 0.03315 0.26545 0.0
Li707 Li 0.40633 0.04567 0.27507 0.0
C708 C 0.4335 0.00676 0.284 0.0
N709 N 0.4518 0.98949 0.29789 0.0
C710 C 0.42711 0.99152 0.2875 0.0
C711 C 0.4492 0.01321 0.28757 0.0
C712 C 0.43656 0.98298 0.29453 0.0
C713 C 0.45826 0.0043 0.29459 0.0
C714 C 0.38663 0.0257 0.2962 0.0
C715 C 0.36 0.02502 0.29761 0.0
N716 N 0.3594 0.01392 0.30744 0.0
C717 C 0.38575 0.01434 0.30637 0.0
C718 C 0.37367 0.03114 0.29181 0.0
C719 C 0.37188 0.00851 0.3119 0.0
C720 C 0.44297 0.04841 0.31874 0.0
N721 N 0.43224 0.03483 0.31226 0.0
C722 C 0.43805 0.02134 0.33335 0.0
C723 C 0.42941 0.02156 0.31934 0.0
C724 C 0.44949 0.03503 0.34016 0.0
C725 C 0.45179 0.04881 0.33288 0.0
H726 H 0.44488 0.05875 0.31275 0.0
H727 H 0.42092 0.0109 0.31377 0.0
C728 C 0.39781 0.98662 0.25608 0.0
N729 N 0.39102 0.99664 0.26522 0.0
C730 C 0.39011 0.97072 0.25028 0.0
C731 C 0.36836 0.97602 0.26294 0.0
C732 C 0.37641 0.99188 0.26831 0.0
C733 C 0.37542 0.96533 0.2541 0.0
H734 H 0.40934 0.99095 0.25353 0.0
H735 H 0.371 1.00021 0.27494 0.0
C736 C 0.44032 0.06367 0.27762 0.0
N737 N 0.46362 0.08582 0.26862 0.0
C738 C 0.43705 0.07606 0.27006 0.0
C739 C 0.45545 0.06264 0.28076 0.0
C740 C 0.44899 0.08712 0.26557 0.0
C741 C 0.46706 0.07391 0.27606 0.0
C742 C 0.39554 0.02112 0.24349 0.0
C743 C 0.40063 0.01264 0.23068 0.0
C744 C 0.37989 0.01925 0.24426 0.0
C745 C 0.38994 1.00225 0.2189 0.0
C746 C 0.36957 0.00871 0.23226 0.0
N747 N 0.37477 1.00049 0.21994 0.0
C748 C 0.44516 0.01878 0.24755 0.0
C749 C 0.44158 0.04343 0.24025 0.0
C750 C 0.45144 0.01503 0.23374 0.0
N751 N 0.44011 0.03258 0.25034 0.0
C752 C 0.44786 0.04017 0.22624 0.0
C753 C 0.45221 0.02547 0.22266 0.0
H754 H 0.44313 0.00996 0.25527 0.0
H755 H 0.43673 0.05387 0.2424 0.0
C756 C 0.39531 0.07308 0.28542 0.0
N757 N 0.39633 0.06191 0.2729 0.0
C758 C 0.38768 0.08516 0.28313 0.0
C759 C 0.38224 0.07362 0.25524 0.0
C760 C 0.39017 0.06204 0.25803 0.0
C761 C 0.38103 0.08547 0.26784 0.0
H762 H 0.40048 0.07261 0.29709 0.0
H763 H 0.39143 0.05316 0.24828 0.0
O764 O 0.42449 0.01514 0.27675 0.0
O765 O 0.4002 0.03186 0.29097 0.0
O766 O 0.42881 0.05278 0.28218 0.0
O767 O 0.40582 0.03098 0.25539 0.0
H768 H 0.41498 0.98638 0.28495 0.0
H769 H 0.45434 0.02491 0.28482 0.0
H770 H 0.43177 0.97119 0.29731 0.0
H771 H 0.47042 0.00913 0.29738 0.0
H772 H 0.34987 0.02909 0.29429 0.0
H773 H 0.39561 0.00996 0.30987 0.0
H774 H 0.37412 0.03995 0.28399 0.0
H775 H 0.37104 0.99967 0.31972 0.0
H776 H 0.4361 0.0104 0.3385 0.0
H777 H 0.46037 0.05968 0.33796 0.0
H778 H 0.39576 0.96258 0.24351 0.0
H779 H 0.35692 0.972 0.26594 0.0
H780 H 0.42542 0.07709 0.26761 0.0
H781 H 0.45818 0.05325 0.28677 0.0
H782 H 0.44663 0.09674 0.25965 0.0
H783 H 0.47882 0.07323 0.27836 0.0
H784 H 0.41269 0.01393 0.22991 0.0
H785 H 0.37576 0.02563 0.25417 0.0
H786 H 0.39371 0.99553 0.20896 0.0
H787 H 0.35744 0.00701 0.23279 0.0
H788 H 0.45466 1.00356 0.23125 0.0
H789 H 0.44808 0.04833 0.21774 0.0
H790 H 0.38715 0.09421 0.29313 0.0
H791 H 0.37705 0.07321 0.24334 0.0
Li792 Li 0.28247 0.19619 0.5115 0.0
Li793 Li 0.29271 0.17361 0.49826 0.0
Li794 Li 0.28138 0.19219 0.48201 0.0
Li795 Li 0.2638 0.17132 0.49594 0.0
C796 C 0.31227 0.20953 0.50285 0.0
N797 N 0.33793 0.23437 0.51248 0.0
C798 C 0.32519 0.20663 0.51093 0.0
C799 C 0.31245 0.225 0.49952 0.0
C800 C 0.33804 0.21937 0.51574 0.0
C801 C 0.32552 0.23741 0.50453 0.0
C802 C 0.27902 0.16423 0.52634 0.0
C803 C 0.2741 0.13808 0.53444 0.0
N804 N 0.28009 0.14527 0.54948 0.0
C805 C 0.2851 0.17138 0.54187 0.0
C806 C 0.27346 0.14746 0.52256 0.0
C807 C 0.28554 0.16157 0.5534 0.0
C808 C 0.27156 0.21212 0.53771 0.0
N809 N 0.28457 0.21119 0.53113 0.0
C810 C 0.29965 0.22784 0.55435 0.0
C811 C 0.29847 0.21892 0.53912 0.0
C812 C 0.2864 0.22882 0.56148 0.0
C813 C 0.2722 0.22104 0.55282 0.0
H814 H 0.26067 0.20532 0.53153 0.0
H815 H 0.30872 0.21767 0.53406 0.0
C816 C 0.31773 0.16098 0.48758 0.0
N817 N 0.3093 0.16238 0.49989 0.0
C818 C 0.33048 0.15417 0.48877 0.0
C819 C 0.32562 0.15014 0.51518 0.0
C820 C 0.31312 0.15719 0.51356 0.0
C821 C 0.33459 0.14861 0.50273 0.0
H822 H 0.3147 0.16539 0.4769 0.0
H823 H 0.30674 0.15882 0.52345 0.0
C824 C 0.25755 0.20708 0.49851 0.0
N825 N 0.24332 0.23215 0.50556 0.0
C826 C 0.24285 0.20397 0.50298 0.0
C827 C 0.26497 0.22288 0.49748 0.0
C828 C 0.23585 0.21683 0.50654 0.0
C829 C 0.2576 0.23541 0.50113 0.0
C830 C 0.27605 0.15442 0.46761 0.0
C831 C 0.2745 0.15558 0.45156 0.0
C832 C 0.27655 0.13959 0.47218 0.0
C833 C 0.2734 0.14178 0.44028 0.0
C834 C 0.27545 0.12607 0.46054 0.0
N835 N 0.2739 0.12743 0.44496 0.0
C836 C 0.29666 0.20741 0.45837 0.0
C837 C 0.26991 0.20437 0.4554 0.0
C838 C 0.29791 0.21477 0.44487 0.0
N839 N 0.28282 0.20239 0.46337 0.0
C840 C 0.27063 0.21159 0.44181 0.0
C841 C 0.28478 0.21695 0.43629 0.0
H842 H 0.30679 0.20573 0.46488 0.0
H843 H 0.25902 0.20023 0.45955 0.0
C844 C 0.23855 0.15539 0.51004 0.0
N845 N 0.24333 0.15766 0.49577 0.0
C846 C 0.22384 0.14637 0.51099 0.0
C847 C 0.21882 0.14249 0.48257 0.0
C848 C 0.23375 0.15143 0.48213 0.0
C849 C 0.21364 0.13978 0.49716 0.0
H850 H 0.24612 0.16079 0.52078 0.0
H851 H 0.23764 0.15353 0.4709 0.0
O852 O 0.29963 0.19719 0.498 0.0
O853 O 0.27857 0.17361 0.51489 0.0
O854 O 0.26461 0.19466 0.49513 0.0
O855 O 0.27726 0.16784 0.47877 0.0
H856 H 0.32526 0.19471 0.51355 0.0
H857 H 0.30264 0.2274 0.49309 0.0
H858 H 0.34809 0.21733 0.52207 0.0
H859 H 0.32581 0.24946 0.50207 0.0
H860 H 0.26985 0.12508 0.5317 0.0
H861 H 0.28948 0.18434 0.54497 0.0
H862 H 0.26866 0.14178 0.5106 0.0
H863 H 0.29023 0.16693 0.56547 0.0
H864 H 0.31084 0.23361 0.56062 0.0
H865 H 0.2617 0.22115 0.55797 0.0
H866 H 0.337 0.15319 0.47882 0.0
H867 H 0.32847 0.14632 0.52627 0.0
H868 H 0.23695 0.19176 0.50378 0.0
H869 H 0.2763 0.22543 0.49391 0.0
H870 H 0.2245 0.21463 0.51009 0.0
H871 H 0.26323 0.24772 0.50044 0.0
H872 H 0.27414 0.16703 0.44787 0.0
H873 H 0.27789 0.13857 0.48458 0.0
H874 H 0.27217 0.14248 0.4278 0.0
H875 H 0.27585 0.1145 0.46388 0.0
H876 H 0.30911 0.21885 0.44132 0.0
H877 H 0.26012 0.21269 0.43555 0.0
H878 H 0.22037 0.14489 0.52253 0.0
H879 H 0.21144 0.13763 0.47156 0.0
Li880 Li 0.16621 0.02833 0.76947 0.0
Li881 Li 0.14387 0.01037 0.78389 0.0
Li882 Li 0.16339 0.99463 0.76708 0.0
Li883 Li 0.14374 0.00802 0.75273 0.0
C884 C 0.17915 0.01815 0.79861 0.0
N885 N 0.20282 0.02726 0.82293 0.0
C886 C 0.1774 0.02723 0.81291 0.0
C887 C 0.19292 0.01371 0.79663 0.0
C888 C 0.1895 0.03172 0.82508 0.0
C889 C 0.20477 0.01844 0.80909 0.0
C890 C 0.13237 0.03444 0.7654 0.0
C891 C 0.1056 0.03322 0.75937 0.0
N892 N 0.10914 0.04859 0.75628 0.0
C893 C 0.13575 0.05025 0.76225 0.0
C894 C 0.11719 0.02588 0.76404 0.0
C895 C 0.12384 0.05719 0.75764 0.0
C896 C 0.17737 0.0584 0.75642 0.0
N897 N 0.17932 0.05171 0.7697 0.0
C898 C 0.19661 0.07727 0.78216 0.0
C899 C 0.18885 0.06101 0.78248 0.0
C900 C 0.19474 0.08459 0.7686 0.0
C901 C 0.18488 0.07455 0.75561 0.0
H902 H 0.16968 0.05127 0.74632 0.0
H903 H 0.19034 0.05598 0.79315 0.0
C904 C 0.12348 0.9981 0.80876 0.0
N905 N 0.13238 0.01153 0.80454 0.0
C906 C 0.11609 0.999 0.8228 0.0
C907 C 0.12686 0.02751 0.82841 0.0
C908 C 0.13392 0.02611 0.81422 0.0
C909 C 0.11767 0.01387 0.8332 0.0
H910 H 0.12209 0.98646 0.80129 0.0
H911 H 0.14076 0.0369 0.81103 0.0
C912 C 0.16862 0.00784 0.7356 0.0
N913 N 0.17308 1.00255 0.70407 0.0
C914 C 0.16143 0.99315 0.72591 0.0
C915 C 0.17818 0.01978 0.7293 0.0
C916 C 0.16377 0.99073 0.70998 0.0
C917 C 0.18029 0.01688 0.71332 0.0
C918 C 0.12828 0.97744 0.75908 0.0
C919 C 0.1313 0.96475 0.74864 0.0
C920 C 0.11328 0.97723 0.762 0.0
C921 C 0.11919 0.9522 0.74098 0.0
C922 C 0.10148 0.96446 0.75411 0.0
N923 N 0.10465 0.95234 0.74383 0.0
C924 C 0.17306 0.96479 0.77744 0.0
C925 C 0.18343 0.97144 0.75457 0.0
C926 C 0.18013 0.95137 0.77701 0.0
N927 N 0.17468 0.9748 0.76634 0.0
C928 C 0.19071 0.95815 0.75373 0.0
C929 C 0.1893 0.94755 0.76502 0.0
H930 H 0.16619 0.96711 0.78683 0.0
H931 H 0.18482 0.97904 0.74558 0.0
C932 C 0.1337 0.02185 0.72519 0.0
N933 N 0.1311 0.00766 0.73104 0.0
C934 C 0.12631 0.02317 0.71041 0.0
C935 C 0.11353 0.9952 0.70718 0.0
C936 C 0.1211 0.99443 0.72216 0.0
C937 C 0.11599 0.00975 0.7008 0.0
H938 H 0.1417 0.03235 0.73199 0.0
H939 H 0.11903 0.98306 0.72649 0.0
O940 O 0.16736 0.01336 0.78666 0.0
O941 O 0.14385 0.02735 0.76974 0.0
O942 O 0.1665 0.01041 0.75123 0.0
O943 O 0.13998 0.98988 0.7666 0.0
H944 H 0.1668 0.03075 0.81459 0.0
H945 H 0.19442 0.00664 0.78562 0.0
H946 H 0.1883 0.03873 0.83623 0.0
H947 H 0.21549 0.01508 0.80776 0.0
H948 H 0.0938 0.0267 0.75819 0.0
H949 H 0.14742 0.05712 0.76341 0.0
H950 H 0.1144 0.01367 0.76648 0.0
H951 H 0.12629 0.06941 0.75515 0.0
H952 H 0.20376 0.08414 0.79272 0.0
H953 H 0.18294 0.07902 0.74469 0.0
H954 H 0.10938 0.98793 0.82557 0.0
H955 H 0.12849 0.03941 0.83546 0.0
H956 H 0.15403 0.98378 0.73061 0.0
H957 H 0.18408 0.03109 0.73671 0.0
H958 H 0.1582 0.97945 0.70231 0.0
H959 H 0.18769 0.02601 0.7083 0.0
H960 H 0.14287 0.96457 0.74649 0.0
H961 H 0.11078 0.98674 0.77034 0.0
H962 H 0.12134 0.94235 0.73279 0.0
H963 H 0.08981 0.96417 0.7562 0.0
H964 H 0.17847 0.94418 0.78629 0.0
H965 H 0.19724 0.95616 0.74397 0.0
H966 H 0.1287 0.03487 0.70671 0.0
H967 H 0.10601 0.98426 0.70058 0.0
Li968 Li 0.27666 0.92521 0.00736 0.0
Li969 Li 0.29147 0.90706 0.01749 0.0
Li970 Li 0.30381 0.93218 0.01091 0.0
Li971 Li 0.29172 0.91007 0.99018 0.0
C972 C 0.29734 0.9409 0.03952 0.0
N973 N 0.31277 0.9657 0.06342 0.0
C974 C 0.30425 0.9374 0.05332 0.0
C975 C 0.298 0.95703 0.03804 0.0
C976 C 0.31205 0.9501 0.06523 0.0
C977 C 0.30595 0.96939 0.0502 0.0
C978 C 0.26219 0.88923 0.00316 0.0
C979 C 0.249 0.86105 0.99861 0.0
N980 N 0.23863 0.86474 0.00824 0.0
C981 C 0.25139 0.89275 0.013 0.0
C982 C 0.26096 0.87326 0.99585 0.0
C983 C 0.23956 0.8802 0.01541 0.0
C984 C 0.24881 0.93198 0.9963 0.0
N985 N 0.25951 0.93371 0.00885 0.0
C986 C 0.24685 0.95003 0.02524 0.0
C987 C 0.25863 0.94227 0.02317 0.0
C988 C 0.23553 0.94851 0.01258 0.0
C989 C 0.23652 0.93924 0.99795 0.0
H990 H 0.24985 0.925 0.98507 0.0
H991 H 0.26714 0.9432 0.033 0.0
C992 C 0.30811 0.89697 0.03944 0.0
N993 N 0.29367 0.8933 0.03199 0.0
C994 C 0.31184 0.88902 0.05153 0.0
C995 C 0.28585 0.87304 0.0477 0.0
C996 C 0.28257 0.88151 0.03574 0.0
C997 C 0.30061 0.87697 0.0559 0.0
H998 H 0.3166 0.90661 0.03637 0.0
H999 H 0.27114 0.87885 0.0298 0.0
C1000 C 0.29708 0.94299 0.98238 0.0
N1001 N 0.31136 0.96368 0.96364 0.0
C1002 C 0.31122 0.94166 0.97768 0.0
C1003 C 0.29023 0.95488 0.97764 0.0
C1004 C 0.31825 0.95221 0.96817 0.0
C1005 C 0.29762 0.96523 0.96814 0.0
C1006 C 0.31629 0.899 0.00274 0.0
C1007 C 0.33214 0.90224 0.00322 0.0
C1008 C 0.30776 0.883 0.9994 0.0
C1009 C 0.33924 0.88937 1.00034 0.0
C1010 C 0.31528 0.87046 0.9966 0.0
N1011 N 0.33073 0.87388 0.99713 0.0
C1012 C 0.33234 0.94482 0.0264 0.0
C1013 C 0.32332 0.96386 0.01306 0.0
C1014 C 0.34642 0.95555 0.03098 0.0
N1015 N 0.32135 0.94896 0.01726 0.0
C1016 C 0.33734 0.97493 0.01719 0.0
C1017 C 0.34916 0.97059 0.02591 0.0
H1018 H 0.33028 0.93295 0.02972 0.0
H1019 H 0.31419 0.96701 0.00622 0.0
C1020 C 0.27931 0.88859 0.96226 0.0
N1021 N 0.29245 0.89849 0.97005 0.0
C1022 C 0.27962 0.87824 0.94826 0.0
C1023 C 0.30687 0.88901 0.95027 0.0
C1024 C 0.30608 0.89893 0.96437 0.0
C1025 C 0.29355 0.87839 0.94222 0.0
H1026 H 0.26866 0.88847 0.96713 0.0
H1027 H 0.31641 0.9066 0.97099 0.0
O1028 O 0.28983 0.92862 0.0276 0.0
O1029 O 0.27371 0.90136 1.00042 0.0
O1030 O 0.29018 0.93314 0.99205 0.0
O1031 O 0.30926 0.91151 0.00579 0.0
H1032 H 0.30351 0.92504 0.05492 0.0
H1033 H 0.29267 0.95997 0.02747 0.0
H1034 H 0.3175 0.94754 0.07593 0.0
H1035 H 0.30673 0.98192 0.0491 0.0
H1036 H 0.24794 0.84864 0.99307 0.0
H1037 H 0.25219 0.905 0.01883 0.0
H1038 H 0.26915 0.8703 0.98813 0.0
H1039 H 0.23114 0.88274 0.02302 0.0
H1040 H 0.24678 0.95728 0.03663 0.0
H1041 H 0.22791 0.93752 0.98794 0.0
H1042 H 0.32325 0.89281 0.05781 0.0
H1043 H 0.27689 0.86374 0.05066 0.0
H1044 H 0.31691 0.93291 0.98174 0.0
H1045 H 0.27935 0.95616 0.98135 0.0
H1046 H 0.32924 0.95139 0.96451 0.0
H1047 H 0.29247 0.97451 0.9644 0.0
H1048 H 0.33889 0.91458 0.0058 0.0
H1049 H 0.2955 0.88031 0.99907 0.0
H1050 H 0.35151 0.8917 1.00068 0.0
H1051 H 0.30883 0.85801 0.99404 0.0
H1052 H 0.35535 0.95172 0.03754 0.0
H1053 H 0.33913 0.98649 0.01316 0.0
H1054 H 0.26912 0.87024 0.94221 0.0
H1055 H 0.31781 0.88929 0.94595 0.0
Li1056 Li 0.27752 0.39429 0.02498 0.0
Li1057 Li 0.28924 0.37617 0.0409 0.0
Li1058 Li 0.30637 0.3972 0.02658 0.0
Li1059 Li 0.28773 0.37194 0.01149 0.0
C1060 C 0.29127 0.4126 0.05543 0.0
N1061 N 0.28627 0.43672 0.07793 0.0
C1062 C 0.28407 0.40862 0.06854 0.0
C1063 C 0.29609 0.42881 0.05383 0.0
C1064 C 0.28161 0.42101 0.07977 0.0
C1065 C 0.2934 0.44084 0.06531 0.0
C1066 C 0.25961 0.35727 0.01847 0.0
C1067 C 0.25038 0.32826 0.01248 0.0
N1068 N 0.23723 0.33016 0.00494 0.0
C1069 C 0.24599 0.35894 0.01071 0.0
C1070 C 0.26181 0.34183 0.01945 0.0
C1071 C 0.23482 0.34508 0.00394 0.0
C1072 C 0.25392 0.40493 0.00807 0.0
N1073 N 0.26084 0.40539 0.02288 0.0
C1074 C 0.24322 0.41978 0.03416 0.0
C1075 C 0.2556 0.41253 0.03582 0.0
C1076 C 0.23587 0.41955 0.01902 0.0
C1077 C 0.24141 0.41192 0.00587 0.0
H1078 H 0.25799 0.39891 0.99792 0.0
H1079 H 0.26079 0.4124 0.04752 0.0
C1080 C 0.30103 0.36543 0.06852 0.0
N1081 N 0.2881 0.36583 0.05947 0.0
C1082 C 0.30019 0.35809 0.08205 0.0
C1083 C 0.27275 0.35165 0.07673 0.0
C1084 C 0.27412 0.35907 0.06329 0.0
C1085 C 0.2859 0.3511 0.08641 0.0
H1086 H 0.31203 0.37089 0.06528 0.0
H1087 H 0.26398 0.3595 0.05591 0.0
C1088 C 0.2912 0.40494 0.99745 0.0
N1089 N 0.29156 0.42615 0.97623 0.0
C1090 C 0.29113 0.39947 0.98132 0.0
C1091 C 0.29151 0.42118 0.00283 0.0
C1092 C 0.29132 0.41039 0.97077 0.0
C1093 C 0.29166 0.43171 0.9919 0.0
C1094 C 0.31453 0.36281 0.02635 0.0
C1095 C 0.32883 0.36662 0.02101 0.0
C1096 C 0.30927 0.34764 0.03053 0.0
C1097 C 0.33758 0.35506 0.01976 0.0
C1098 C 0.31837 0.33641 0.02913 0.0
N1099 N 0.33221 0.34032 0.02381 0.0
C1100 C 0.33683 0.41569 0.03997 0.0
C1101 C 0.33116 0.41477 0.01248 0.0
C1102 C 0.35182 0.42454 0.03964 0.0
N1103 N 0.32681 0.41096 0.0265 0.0
C1104 C 0.34596 0.42369 0.01165 0.0
C1105 C 0.35665 0.42869 0.02532 0.0
H1106 H 0.33327 0.41241 0.05097 0.0
H1107 H 0.32324 0.41062 1.00181 0.0
C1108 C 0.27263 0.35608 0.98119 0.0
N1109 N 0.28493 0.35689 0.99179 0.0
C1110 C 0.27135 0.34759 0.96574 0.0
C1111 C 0.29514 0.34045 0.97249 0.0
C1112 C 0.29595 0.34903 0.98777 0.0
C1113 C 0.28294 0.34 0.96109 0.0
H1114 H 0.2642 0.36274 0.98446 0.0
H1115 H 0.30574 0.34991 0.99613 0.0
O1116 O 0.29375 0.40065 0.04431 0.0
O1117 O 0.27063 0.3707 0.02526 0.0
O1118 O 0.29092 0.3944 0.0079 0.0
O1119 O 0.30577 0.37393 0.02748 0.0
H1120 H 0.28033 0.39612 0.06995 0.0
H1121 H 0.30182 0.43205 0.04382 0.0
H1122 H 0.27598 0.41813 0.08994 0.0
H1123 H 0.297 0.45345 0.06421 0.0
H1124 H 0.25195 0.31623 0.0131 0.0
H1125 H 0.24406 0.37081 0.00995 0.0
H1126 H 0.27223 0.34033 0.0255 0.0
H1127 H 0.22422 0.34619 0.99789 0.0
H1128 H 0.23923 0.42519 0.0447 0.0
H1129 H 0.23622 0.41145 0.99395 0.0
H1130 H 0.31066 0.35818 0.08919 0.0
H1131 H 0.26148 0.34628 0.07941 0.0
H1132 H 0.29101 0.38696 0.977 0.0
H1133 H 0.29152 0.42555 0.01528 0.0
H1134 H 0.29128 0.40634 0.95825 0.0
H1135 H 0.29184 0.44431 0.99586 0.0
H1136 H 0.33305 0.37834 0.01775 0.0
H1137 H 0.2983 0.34456 0.03483 0.0
H1138 H 0.34864 0.35779 0.01557 0.0
H1139 H 0.31443 0.3246 0.03229 0.0
H1140 H 0.35951 0.42817 0.05054 0.0
H1141 H 0.34911 0.42626 1.00026 0.0
H1142 H 0.26183 0.34774 0.95731 0.0
H1143 H 0.30425 0.33462 0.96952 0.0
Li1144 Li 0.77741 0.16009 0.03331 0.0
Li1145 Li 0.79229 0.14354 0.01666 0.0
Li1146 Li 0.77973 0.16255 0.0062 0.0
Li1147 Li 0.76464 0.13739 0.0118 0.0
C1148 C 0.8051 0.18144 0.02038 0.0
N1149 N 0.82158 0.20951 0.01227 0.0
C1150 C 0.81754 0.18103 0.01188 0.0
C1151 C 0.80114 0.19615 0.02492 0.0
C1152 C 0.82571 0.19535 0.00785 0.0
C1153 C 0.80958 0.2102 0.02065 0.0
C1154 C 0.77303 0.12407 0.03934 0.0
C1155 C 0.76997 0.09589 0.04145 0.0
N1156 N 0.76352 0.0985 0.05502 0.0
C1157 C 0.76645 0.1265 0.05335 0.0
C1158 C 0.77489 0.10867 0.03337 0.0
C1159 C 0.76169 0.11341 0.0611 0.0
C1160 C 0.76214 0.17123 0.05827 0.0
N1161 N 0.77599 0.17124 0.05326 0.0
C1162 C 0.78865 0.18971 0.07629 0.0
C1163 C 0.78912 0.18003 0.06196 0.0
C1164 C 0.77449 0.19046 0.08157 0.0
C1165 C 0.76111 0.18089 0.07246 0.0
H1166 H 0.7519 0.16403 0.05102 0.0
H1167 H 0.79994 0.17971 0.05761 0.0
C1168 C 0.81579 0.13553 1.00206 0.0
N1169 N 0.80886 0.13433 0.01536 0.0
C1170 C 0.82766 0.12799 0.99941 0.0
C1171 C 0.8248 0.11794 0.02414 0.0
C1172 C 0.81312 0.12592 0.02644 0.0
C1173 C 0.83213 0.11897 0.01046 0.0
H1174 H 0.81187 0.14211 0.99339 0.0
H1175 H 0.80728 0.1252 0.03686 0.0
C1176 C 0.75028 0.16813 0.01656 0.0
N1177 N 0.72818 0.18585 0.01726 0.0
C1178 C 0.73573 0.16137 0.00842 0.0
C1179 C 0.75355 0.18387 0.02513 0.0
C1180 C 0.72473 0.17053 0.0089 0.0
C1181 C 0.74225 0.19265 0.0253 0.0
C1182 C 0.77719 0.12823 0.98385 0.0
C1183 C 0.77224 0.13079 0.96879 0.0
C1184 C 0.77944 0.11303 0.98584 0.0
C1185 C 0.76944 0.11802 0.95602 0.0
C1186 C 0.77653 0.10057 0.97277 0.0
N1187 N 0.77162 0.1033 0.95825 0.0
C1188 C 0.79009 0.17213 0.97938 0.0
C1189 C 0.77358 0.18763 0.99038 0.0
C1190 C 0.78963 0.17891 0.9657 0.0
N1191 N 0.78159 0.17605 0.99098 0.0
C1192 C 0.77291 0.19486 0.97699 0.0
C1193 C 0.78049 0.18996 0.96423 0.0
H1194 H 0.79647 0.16296 0.98035 0.0
H1195 H 0.7671 0.19066 0.99983 0.0
C1196 C 0.73983 0.11161 0.01442 0.0
N1197 N 0.74686 0.12094 0.00454 0.0
C1198 C 0.72616 0.10035 0.00903 0.0
C1199 C 0.72724 0.10839 0.9833 0.0
C1200 C 0.74083 0.1196 0.98926 0.0
C1201 C 0.71957 0.09884 0.99335 0.0
H1202 H 0.74432 0.11337 0.02669 0.0
H1203 H 0.74615 0.12778 0.9819 0.0
O1204 O 0.79674 0.1675 0.02411 0.0
O1205 O 0.77768 0.13676 0.0316 0.0
O1206 O 0.761 0.15909 0.01663 0.0
O1207 O 0.77972 0.14056 0.99654 0.0
H1208 H 0.82084 0.16979 0.00837 0.0
H1209 H 0.79161 0.19669 0.0316 0.0
H1210 H 0.83532 0.19519 1.00121 0.0
H1211 H 0.80658 0.22166 0.024 0.0
H1212 H 0.77128 0.08389 0.03692 0.0
H1213 H 0.76497 0.13834 0.05818 0.0
H1214 H 0.78004 0.10657 0.02261 0.0
H1215 H 0.75653 0.11511 0.07193 0.0
H1216 H 0.79926 0.19657 0.08312 0.0
H1217 H 0.74997 0.18118 0.07602 0.0
H1218 H 0.83302 0.12883 0.98866 0.0
H1219 H 0.82809 0.11107 0.03289 0.0
H1220 H 0.73293 0.14916 1.00187 0.0
H1221 H 0.76471 0.18928 0.03155 0.0
H1222 H 0.71342 0.16545 0.00267 0.0
H1223 H 0.74465 0.20486 0.03186 0.0
H1224 H 0.77022 0.14239 0.96702 0.0
H1225 H 0.78338 0.11087 0.99733 0.0
H1226 H 0.76547 0.1198 0.94434 0.0
H1227 H 0.77818 0.08873 0.97416 0.0
H1228 H 0.79569 0.17499 0.95608 0.0
H1229 H 0.76567 0.2033 0.97619 0.0
H1230 H 0.72035 0.0937 0.01738 0.0
H1231 H 0.72245 0.10776 0.9712 0.0
Li1232 Li 0.16277 0.5467 0.25147 0.0
Li1233 Li 0.14098 0.53 0.25825 0.0
Li1234 Li 0.16038 0.51813 0.24694 0.0
Li1235 Li 0.14344 0.53098 0.23098 0.0
C1236 C 0.17041 0.53926 0.28121 0.0
N1237 N 0.18768 0.55409 0.30964 0.0
C1238 C 0.16542 0.5508 0.29134 0.0
C1239 C 0.18403 0.53504 0.28563 0.0
C1240 C 0.17435 0.55822 0.30564 0.0
C1241 C 0.19264 0.54274 0.30003 0.0
C1242 C 0.13406 0.55995 0.25123 0.0
C1243 C 0.11292 0.57213 0.24608 0.0
N1244 N 0.11852 0.58382 0.25897 0.0
C1245 C 0.13958 0.57206 0.26444 0.0
C1246 C 0.12061 0.55996 0.24197 0.0
C1247 C 0.13157 0.58402 0.26815 0.0
C1248 C 0.1719 0.57844 0.24854 0.0
N1249 N 0.17615 0.56714 0.25628 0.0
C1250 C 0.19885 0.58594 0.26874 0.0
C1251 C 0.18939 0.57049 0.26611 0.0
C1252 C 0.19462 0.59788 0.26104 0.0
C1253 C 0.18093 0.59405 0.25089 0.0
H1254 H 0.16154 0.57523 0.24038 0.0
H1255 H 0.19289 0.56112 0.27149 0.0
C1256 C 0.13207 0.52017 0.28551 0.0
N1257 N 0.12805 0.52832 0.27411 0.0
C1258 C 0.1263 0.52197 0.29996 0.0
C1259 C 0.11151 0.53955 0.29013 0.0
C1260 C 0.11725 0.53701 0.27572 0.0
C1261 C 0.11668 0.53265 0.30275 0.0
H1262 H 0.14059 0.5132 0.28376 0.0
H1263 H 0.11381 0.54287 0.26627 0.0
C1264 C 0.17872 0.54261 0.22802 0.0
N1265 N 0.20472 0.5628 0.22128 0.0
C1266 C 0.1778 0.55203 0.2162 0.0
C1267 C 0.19287 0.54336 0.23633 0.0
C1268 C 0.19108 0.56218 0.21299 0.0
C1269 C 0.20588 0.55368 0.23277 0.0
C1270 C 0.12398 0.50306 0.24397 0.0
C1271 C 0.12302 0.48978 0.25177 0.0
C1272 C 0.11086 0.50845 0.24012 0.0
C1273 C 0.1089 0.48214 0.25568 0.0
C1274 C 0.09696 0.50049 0.24426 0.0
N1275 N 0.09627 0.48761 0.25189 0.0
C1276 C 0.1684 0.49278 0.2585 0.0
C1277 C 0.18119 0.50049 0.23682 0.0
C1278 C 0.17696 0.4814 0.26014 0.0
N1279 N 0.17077 0.50202 0.24706 0.0
C1280 C 0.19023 0.48947 0.23822 0.0
C1281 C 0.18815 0.47991 0.25007 0.0
H1282 H 0.16018 0.49462 0.2666 0.0
H1283 H 0.18273 0.5081 0.22786 0.0
C1284 C 0.13433 0.54557 0.20716 0.0
N1285 N 0.13366 0.53097 0.21163 0.0
C1286 C 0.12652 0.54648 0.19289 0.0
C1287 C 0.11789 0.5172 0.18807 0.0
C1288 C 0.12581 0.51689 0.20251 0.0
C1289 C 0.11811 0.53216 0.18325 0.0
H1290 H 0.14073 0.55649 0.21486 0.0
H1291 H 0.12563 0.50552 0.20655 0.0
O1292 O 0.162 0.532 0.26705 0.0
O1293 O 0.14193 0.54835 0.24708 0.0
O1294 O 0.1658 0.53285 0.23157 0.0
O1295 O 0.13775 0.51101 0.24043 0.0
H1296 H 0.15477 0.55397 0.28822 0.0
H1297 H 0.188 0.52608 0.27792 0.0
H1298 H 0.17068 0.56724 0.31357 0.0
H1299 H 0.20328 0.53972 0.30355 0.0
H1300 H 0.1025 0.57228 0.23903 0.0
H1301 H 0.15003 0.57234 0.27167 0.0
H1302 H 0.11608 0.5506 0.2318 0.0
H1303 H 0.13575 0.59351 0.2783 0.0
H1304 H 0.20958 0.58834 0.27627 0.0
H1305 H 0.17732 0.60295 0.24472 0.0
H1306 H 0.13014 0.51592 0.30916 0.0
H1307 H 0.10407 0.54783 0.29163 0.0
H1308 H 0.16696 0.55154 0.20961 0.0
H1309 H 0.19375 0.53628 0.24564 0.0
H1310 H 0.19053 0.56958 0.20391 0.0
H1311 H 0.21689 0.5545 0.23921 0.0
H1312 H 0.13308 0.48548 0.25484 0.0
H1313 H 0.11147 0.51881 0.2342 0.0
H1314 H 0.10798 0.47187 0.26176 0.0
H1315 H 0.08672 0.50459 0.24145 0.0
H1316 H 0.17529 0.4743 0.26954 0.0
H1317 H 0.19882 0.48853 0.23032 0.0
H1318 H 0.12678 0.55823 0.18963 0.0
H1319 H 0.11169 0.50591 0.18079 0.0
Li1320 Li 0.77828 0.89485 0.52503 0.0
Li1321 Li 0.78925 0.87637 0.54047 0.0
Li1322 Li 0.80701 0.89754 0.52696 0.0
Li1323 Li 0.78829 0.87259 0.51094 0.0
C1324 C 0.79075 0.9112 0.55657 0.0
N1325 N 0.78406 0.93204 0.58117 0.0
C1326 C 0.78008 0.90534 0.56641 0.0
C1327 C 0.79802 0.92763 0.55922 0.0
C1328 C 0.77686 0.91609 0.5788 0.0
C1329 C 0.79447 0.93798 0.57172 0.0
C1330 C 0.75917 0.85799 0.52156 0.0
C1331 C 0.74923 0.82908 0.5152 0.0
N1332 N 0.73486 0.83127 0.51604 0.0
C1333 C 0.74431 0.85996 0.52239 0.0
C1334 C 0.76166 0.84243 0.51796 0.0
C1335 C 0.73217 0.8463 0.51955 0.0
C1336 C 0.75103 0.89997 0.50975 0.0
N1337 N 0.7617 0.90602 0.52259 0.0
C1338 C 0.74786 0.92592 0.53138 0.0
C1339 C 0.76034 0.91887 0.53325 0.0
C1340 C 0.73655 0.91983 0.51834 0.0
C1341 C 0.73835 0.90667 0.50741 0.0
H1342 H 0.75229 0.88978 0.50137 0.0
H1343 H 0.76881 0.92367 0.54335 0.0
C1344 C 0.80012 0.87035 0.57073 0.0
N1345 N 0.78809 0.86588 0.55914 0.0
C1346 C 0.79971 0.8634 0.58452 0.0
C1347 C 0.77462 0.84718 0.57419 0.0
C1348 C 0.77546 0.85452 0.56068 0.0
C1349 C 0.7868 0.85161 0.58648 0.0
H1350 H 0.81002 0.87947 0.56935 0.0
H1351 H 0.76594 0.85115 0.55147 0.0
C1352 C 0.78963 0.90566 0.49811 0.0
N1353 N 0.78478 0.92652 0.47776 0.0
C1354 C 0.784 0.89959 0.48225 0.0
C1355 C 0.79279 0.92229 0.50366 0.0
C1356 C 0.78166 0.91035 0.47213 0.0
C1357 C 0.79022 0.93265 0.49318 0.0
C1358 C 0.81318 0.8615 0.52468 0.0
C1359 C 0.82721 0.86393 0.51865 0.0
C1360 C 0.80661 0.84636 0.52825 0.0
C1361 C 0.83425 0.851 0.51587 0.0
C1362 C 0.81401 0.83374 0.52533 0.0
N1363 N 0.82755 0.83629 0.51923 0.0
C1364 C 0.83511 0.92164 0.53993 0.0
C1365 C 0.83376 0.90935 0.51322 0.0
C1366 C 0.84989 0.93085 0.5394 0.0
N1367 N 0.82733 0.91115 0.52693 0.0
C1368 C 0.84857 0.91811 0.51224 0.0
C1369 C 0.85691 0.92908 0.52544 0.0
H1370 H 0.82993 0.92277 0.5508 0.0
H1371 H 0.8274 0.90093 0.50302 0.0
C1372 C 0.77219 0.85071 0.48296 0.0
N1373 N 0.78611 0.85817 0.49108 0.0
C1374 C 0.77105 0.84167 0.46778 0.0
C1375 C 0.79852 0.84838 0.46946 0.0
C1376 C 0.79912 0.85724 0.48457 0.0
C1377 C 0.78435 0.8405 0.46076 0.0
H1378 H 0.76195 0.85216 0.48802 0.0
H1379 H 0.81 0.86395 0.49083 0.0
O1380 O 0.79412 0.9009 0.54445 0.0
O1381 O 0.77114 0.87127 0.52406 0.0
O1382 O 0.79221 0.89534 0.5081 0.0
O1383 O 0.8061 0.87399 0.52737 0.0
H1384 H 0.77431 0.89266 0.56445 0.0
H1385 H 0.80618 0.93236 0.55159 0.0
H1386 H 0.76863 0.91174 0.58652 0.0
H1387 H 0.79996 0.95074 0.57388 0.0
H1388 H 0.75099 0.81697 0.51233 0.0
H1389 H 0.74218 0.87191 0.52523 0.0
H1390 H 0.77304 0.84069 0.51705 0.0
H1391 H 0.72061 0.84765 0.52013 0.0
H1392 H 0.74697 0.93588 0.54028 0.0
H1393 H 0.73011 0.90163 0.49705 0.0
H1394 H 0.80932 0.86752 0.59366 0.0
H1395 H 0.76449 0.83801 0.57488 0.0
H1396 H 0.78156 0.88672 0.47779 0.0
H1397 H 0.79714 0.92712 0.51593 0.0
H1398 H 0.77738 0.90585 0.45979 0.0
H1399 H 0.79257 0.94557 0.49729 0.0
H1400 H 0.83254 0.87563 0.51599 0.0
H1401 H 0.79597 0.8444 0.53333 0.0
H1402 H 0.84504 0.85266 0.51107 0.0
H1403 H 0.80902 0.82193 0.52797 0.0
H1404 H 0.85589 0.93903 0.54993 0.0
H1405 H 0.85339 0.91642 0.50119 0.0
H1406 H 0.75986 0.83586 0.46154 0.0
H1407 H 0.80908 0.8483 0.46443 0.0
Li1408 Li 0.92731 0.06031 0.27188 0.0
Li1409 Li 0.90398 0.03976 0.25501 0.0
Li1410 Li 0.92591 0.05795 0.24002 0.0
Li1411 Li 0.90661 0.07317 0.25665 0.0
C1412 C 0.93653 0.03176 0.25728 0.0
N1413 N 0.95682 0.01292 0.2631 0.0
C1414 C 0.93236 0.01874 0.26527 0.0
C1415 C 0.951 0.03522 0.25225 0.0
C1416 C 0.9428 0.00936 0.2681 0.0
C1417 C 0.9611 0.02554 0.2553 0.0
C1418 C 0.89891 0.05703 0.28745 0.0
C1419 C 0.88289 0.06488 0.30675 0.0
N1420 N 0.88775 0.05517 0.3162 0.0
C1421 C 0.90369 0.04707 0.29731 0.0
C1422 C 0.8884 0.06598 0.29216 0.0
C1423 C 0.89794 0.04632 0.31181 0.0
C1424 C 0.93717 0.0697 0.30738 0.0
N1425 N 0.94078 0.06193 0.29363 0.0
C1426 C 0.96019 0.05332 0.30949 0.0
C1427 C 0.95241 0.05412 0.29469 0.0
C1428 C 0.95627 0.0606 0.32393 0.0
C1429 C 0.94458 0.06907 0.32245 0.0
H1430 H 0.92816 0.07612 0.3068 0.0
H1431 H 0.95566 0.04814 0.28406 0.0
C1432 C 0.8886 0.00454 0.24141 0.0
N1433 N 0.89072 0.01628 0.25454 0.0
C1434 C 0.88085 0.98823 0.24152 0.0
C1435 C 0.87743 0.99584 0.26861 0.0
C1436 C 0.88506 0.01198 0.26795 0.0
C1437 C 0.8751 0.98332 0.25532 0.0
H1438 H 0.8931 0.00769 0.23074 0.0
H1439 H 0.88661 0.021 0.27843 0.0
C1440 C 0.94288 0.09025 0.26176 0.0
N1441 N 0.96895 0.11475 0.27016 0.0
C1442 C 0.9418 0.10636 0.265 0.0
C1443 C 0.95718 0.08656 0.26283 0.0
C1444 C 0.95513 0.11859 0.26919 0.0
C1445 C 0.97024 0.09913 0.26711 0.0
C1446 C 0.89156 0.05412 0.22549 0.0
C1447 C 0.89567 0.06225 0.21302 0.0
C1448 C 0.87637 0.0463 0.22572 0.0
C1449 C 0.88444 0.06246 0.20094 0.0
C1450 C 0.86546 0.04678 0.21341 0.0
N1451 N 0.86969 0.05479 0.20139 0.0
C1452 C 0.94165 0.04331 0.21316 0.0
C1453 C 0.93982 0.06978 0.2111 0.0
C1454 C 0.94899 0.04218 0.19914 0.0
N1455 N 0.93717 0.05702 0.21917 0.0
C1456 C 0.94683 0.06901 0.19683 0.0
C1457 C 0.9517 0.05506 0.19042 0.0
H1458 H 0.93946 0.03298 0.21916 0.0
H1459 H 0.93637 0.08072 0.21561 0.0
C1460 C 0.89556 0.10323 0.2714 0.0
N1461 N 0.89537 0.09308 0.25745 0.0
C1462 C 0.88845 0.11663 0.27227 0.0
C1463 C 0.88098 0.1097 0.24443 0.0
C1464 C 0.88814 0.09637 0.24409 0.0
C1465 C 0.88083 0.1204 0.25867 0.0
H1466 H 0.90131 0.10105 0.28213 0.0
H1467 H 0.88794 0.08873 0.23287 0.0
O1468 O 0.92652 0.0411 0.2544 0.0
O1469 O 0.90457 0.05815 0.27331 0.0
O1470 O 0.92997 0.07814 0.25761 0.0
O1471 O 0.90237 0.05386 0.23744 0.0
H1472 H 0.92122 0.01597 0.26928 0.0
H1473 H 0.95444 0.04536 0.2462 0.0
H1474 H 0.93975 0.99925 0.27429 0.0
H1475 H 0.97235 0.0281 0.25152 0.0
H1476 H 0.87475 0.07175 0.31054 0.0
H1477 H 0.91177 0.03999 0.29377 0.0
H1478 H 0.88448 0.07363 0.2846 0.0
H1479 H 0.90158 0.0387 0.31958 0.0
H1480 H 0.96896 0.04655 0.30952 0.0
H1481 H 0.9411 0.07529 0.33289 0.0
H1482 H 0.8794 0.97959 0.23069 0.0
H1483 H 0.8737 0.99327 0.27977 0.0
H1484 H 0.93079 0.10938 0.26422 0.0
H1485 H 0.95816 0.07412 0.26044 0.0
H1486 H 0.95449 0.13113 0.27168 0.0
H1487 H 0.98139 0.09647 0.26801 0.0
H1488 H 0.90739 0.06843 0.21275 0.0
H1489 H 0.87304 0.03995 0.23531 0.0
H1490 H 0.88744 0.06875 0.19124 0.0
H1491 H 0.85364 0.04079 0.21342 0.0
H1492 H 0.95219 0.031 0.19496 0.0
H1493 H 0.94859 0.07947 0.19097 0.0
H1494 H 0.8889 0.12386 0.28377 0.0
H1495 H 0.87578 0.11159 0.23331 0.0
Li1496 Li 0.27838 0.66081 0.53254 0.0
Li1497 Li 0.29334 0.64388 0.51647 0.0
Li1498 Li 0.28089 0.6627 0.50534 0.0
Li1499 Li 0.26568 0.63771 0.51192 0.0
C1500 C 0.30625 0.68193 0.5196 0.0
N1501 N 0.32302 0.71 0.51171 0.0
C1502 C 0.31951 0.68175 0.51241 0.0
C1503 C 0.30166 0.69645 0.523 0.0
C1504 C 0.32781 0.69604 0.50846 0.0
C1505 C 0.31024 0.71049 0.51884 0.0
C1506 C 0.27244 0.62436 0.53803 0.0
C1507 C 0.26524 0.59542 0.53659 0.0
N1508 N 0.25918 0.59756 0.55047 0.0
C1509 C 0.26624 0.62629 0.55233 0.0
C1510 C 0.27205 0.60883 0.53013 0.0
C1511 C 0.25955 0.61258 0.55841 0.0
C1512 C 0.26319 0.67136 0.55785 0.0
N1513 N 0.27689 0.67254 0.55221 0.0
C1514 C 0.28916 0.69265 0.57425 0.0
C1515 C 0.28978 0.68276 0.5601 0.0
C1516 C 0.2751 0.69209 0.58023 0.0
C1517 C 0.262 0.68116 0.57192 0.0
H1518 H 0.25314 0.66305 0.55125 0.0
H1519 H 0.30051 0.68332 0.5553 0.0
C1520 C 0.31787 0.63698 0.50292 0.0
N1521 N 0.30989 0.63458 0.51537 0.0
C1522 C 0.32982 0.62951 0.50046 0.0
C1523 C 0.32471 0.61681 0.52342 0.0
C1524 C 0.31301 0.62479 0.52561 0.0
C1525 C 0.33321 0.61922 0.51072 0.0
H1526 H 0.31468 0.64441 0.49471 0.0
H1527 H 0.30623 0.62297 0.53524 0.0
C1528 C 0.25071 0.66755 0.51737 0.0
N1529 N 0.22748 0.68347 0.52137 0.0
C1530 C 0.23562 0.65956 0.51173 0.0
C1531 C 0.25397 0.68365 0.52502 0.0
C1532 C 0.22404 0.66781 0.51388 0.0
C1533 C 0.24208 0.69148 0.52693 0.0
C1534 C 0.27926 0.629 0.48318 0.0
C1535 C 0.27367 0.63196 0.46852 0.0
C1536 C 0.28321 0.61429 0.48416 0.0
C1537 C 0.27223 0.6202 0.45506 0.0
C1538 C 0.28159 0.60283 0.47044 0.0
N1539 N 0.27618 0.60599 0.45629 0.0
C1540 C 0.29128 0.67217 0.47828 0.0
C1541 C 0.27408 0.68689 0.48913 0.0
C1542 C 0.29048 0.67881 0.46453 0.0
N1543 N 0.2826 0.67577 0.48984 0.0
C1544 C 0.27322 0.69411 0.47576 0.0
C1545 C 0.28102 0.68953 0.46309 0.0
H1546 H 0.29799 0.6633 0.47933 0.0
H1547 H 0.26737 0.68952 0.49853 0.0
C1548 C 0.23857 0.61849 0.51798 0.0
N1549 N 0.24765 0.62103 0.50637 0.0
C1550 C 0.22479 0.60696 0.51479 0.0
C1551 C 0.22972 0.60112 0.48761 0.0
C1552 C 0.24348 0.61265 0.49138 0.0
C1553 C 0.22019 0.59826 0.49938 0.0
H1554 H 0.2418 0.6258 0.52961 0.0
H1555 H 0.25047 0.61515 0.48216 0.0
O1556 O 0.29781 0.66799 0.5233 0.0
O1557 O 0.27891 0.63765 0.53187 0.0
O1558 O 0.26212 0.65952 0.5155 0.0
O1559 O 0.28062 0.64036 0.49649 0.0
H1560 H 0.32342 0.67073 0.50996 0.0
H1561 H 0.29155 0.69687 0.52873 0.0
H1562 H 0.33806 0.69604 0.50284 0.0
H1563 H 0.30675 0.72179 0.5213 0.0
H1564 H 0.26477 0.58331 0.53055 0.0
H1565 H 0.26654 0.63825 0.55864 0.0
H1566 H 0.27683 0.60714 0.51908 0.0
H1567 H 0.25465 0.61389 0.56944 0.0
H1568 H 0.29961 0.70061 0.58046 0.0
H1569 H 0.25094 0.6804 0.57605 0.0
H1570 H 0.33607 0.63137 0.49042 0.0
H1571 H 0.32712 0.60887 0.53149 0.0
H1572 H 0.23288 0.64713 0.5057 0.0
H1573 H 0.26554 0.69003 0.5295 0.0
H1574 H 0.21232 0.66176 0.50957 0.0
H1575 H 0.24445 0.70393 0.53286 0.0
H1576 H 0.27019 0.64309 0.46756 0.0
H1577 H 0.28746 0.61172 0.49538 0.0
H1578 H 0.26788 0.62232 0.44366 0.0
H1579 H 0.2846 0.5914 0.47103 0.0
H1580 H 0.29658 0.67508 0.45487 0.0
H1581 H 0.26572 0.70228 0.47487 0.0
H1582 H 0.2175 0.60546 0.52407 0.0
H1583 H 0.22641 0.59478 0.47554 0.0
Li1584 Li 0.40387 0.53876 0.7543 0.0
Li1585 Li 0.42685 0.55924 0.7714 0.0
Li1586 Li 0.40641 0.5722 0.75616 0.0
Li1587 Li 0.42582 0.55727 0.73977 0.0
C1588 C 0.39926 0.55548 0.78702 0.0
N1589 N 0.38995 0.55284 0.81645 0.0
C1590 C 0.40157 0.54264 0.79444 0.0
C1591 C 0.39223 0.56697 0.79453 0.0
C1592 C 0.39678 0.54153 0.80934 0.0
C1593 C 0.38758 0.56541 0.80942 0.0
C1594 C 0.43667 0.53128 0.75703 0.0
C1595 C 0.46125 0.52521 0.75472 0.0
N1596 N 0.45756 0.5133 0.76349 0.0
C1597 C 0.43308 0.51896 0.76598 0.0
C1598 C 0.45084 0.53444 0.75131 0.0
C1599 C 0.44382 0.51001 0.76914 0.0
C1600 C 0.39369 0.5026 0.7439 0.0
N1601 N 0.39075 0.51535 0.7537 0.0
C1602 C 0.37228 0.49602 0.76459 0.0
C1603 C 0.38007 0.51212 0.76386 0.0
C1604 C 0.3751 0.48249 0.7547 0.0
C1605 C 0.38604 0.48633 0.74414 0.0
H1606 H 0.40221 0.50497 0.73592 0.0
H1607 H 0.37768 0.52205 0.77176 0.0
C1608 C 0.43552 0.56726 0.80705 0.0
N1609 N 0.43999 0.56064 0.79326 0.0
C1610 C 0.44286 0.56659 0.82212 0.0
C1611 C 0.46011 0.55312 0.80914 0.0
C1612 C 0.45238 0.55394 0.79431 0.0
C1613 C 0.45535 0.55924 0.82359 0.0
H1614 H 0.42598 0.57293 0.80651 0.0
H1615 H 0.4563 0.54891 0.78362 0.0
C1616 C 0.3924 0.55423 0.72452 0.0
N1617 N 0.37228 0.55696 0.6997 0.0
C1618 C 0.39734 0.56442 0.71381 0.0
C1619 C 0.37726 0.54543 0.72265 0.0
C1620 C 0.38699 0.56562 0.70131 0.0
C1621 C 0.36725 0.54699 0.71001 0.0
C1622 C 0.44314 0.5889 0.76074 0.0
C1623 C 0.44296 0.60526 0.76193 0.0
C1624 C 0.457 0.58441 0.76294 0.0
C1625 C 0.45674 0.61692 0.76531 0.0
C1626 C 0.47054 0.59644 0.76633 0.0
N1627 N 0.47012 0.6123 0.76743 0.0
C1628 C 0.39968 0.60526 0.76878 0.0
C1629 C 0.38307 0.59183 0.7461 0.0
C1630 C 0.39262 0.6187 0.76967 0.0
N1631 N 0.39499 0.59191 0.75708 0.0
C1632 C 0.3757 0.60502 0.74659 0.0
C1633 C 0.38027 0.61904 0.75849 0.0
H1634 H 0.40903 0.60564 0.77763 0.0
H1635 H 0.37912 0.58151 0.73672 0.0
C1636 C 0.43909 0.54181 0.71156 0.0
N1637 N 0.43722 0.55635 0.71907 0.0
C1638 C 0.44632 0.54047 0.69748 0.0
C1639 C 0.4498 0.56899 0.69844 0.0
C1640 C 0.44258 0.56983 0.71259 0.0
C1641 C 0.45189 0.55412 0.69032 0.0
H1642 H 0.43494 0.53101 0.71647 0.0
H1643 H 0.44115 0.58143 0.71828 0.0
O1644 O 0.40397 0.55687 0.77252 0.0
O1645 O 0.4264 0.54025 0.75389 0.0
O1646 O 0.40231 0.55301 0.73689 0.0
O1647 O 0.42977 0.57733 0.75756 0.0
H1648 H 0.40709 0.53371 0.78878 0.0
H1649 H 0.39039 0.57698 0.78891 0.0
H1650 H 0.39853 0.53169 0.81526 0.0
H1651 H 0.38212 0.57421 0.81538 0.0
H1652 H 0.47228 0.52755 0.75043 0.0
H1653 H 0.42216 0.51641 0.7705 0.0
H1654 H 0.4538 0.544 0.74443 0.0
H1655 H 0.44123 0.50046 0.77608 0.0
H1656 H 0.36432 0.49433 0.77323 0.0
H1657 H 0.38878 0.47686 0.73594 0.0
H1658 H 0.43871 0.57194 0.83257 0.0
H1659 H 0.46955 0.54726 0.80917 0.0
H1660 H 0.40903 0.57135 0.71517 0.0
H1661 H 0.3733 0.53754 0.73091 0.0
H1662 H 0.39063 0.57346 0.69292 0.0
H1663 H 0.35549 0.54028 0.70841 0.0
H1664 H 0.4323 0.6089 0.76023 0.0
H1665 H 0.45729 0.57179 0.76212 0.0
H1666 H 0.45679 0.62963 0.76626 0.0
H1667 H 0.48136 0.59317 0.7681 0.0
H1668 H 0.39684 0.6287 0.77934 0.0
H1669 H 0.36654 0.60416 0.73737 0.0
H1670 H 0.4476 0.52862 0.6924 0.0
H1671 H 0.45346 0.58007 0.69384 0.0
Li1672 Li 0.64134 0.03115 0.7574 0.0
Li1673 Li 0.66452 0.04908 0.75425 0.0
Li1674 Li 0.64589 0.03345 0.73113 0.0
Li1675 Li 0.66106 0.02008 0.74765 0.0
C1676 C 0.63452 0.06084 0.75192 0.0
N1677 N 0.61615 0.08179 0.76019 0.0
C1678 C 0.63837 0.07195 0.76605 0.0
C1679 C 0.62135 0.0604 0.74197 0.0
C1680 C 0.62893 0.08244 0.77002 0.0
C1681 C 0.6122 0.07107 0.74638 0.0
C1682 C 0.67401 0.03643 0.77973 0.0
C1683 C 0.70098 0.03967 0.78686 0.0
N1684 N 0.69924 0.04427 0.80229 0.0
C1685 C 0.67248 0.04111 0.79567 0.0
C1686 C 0.68837 0.03565 0.77529 0.0
C1687 C 0.68537 0.04505 0.80689 0.0
C1688 C 0.63148 0.02298 0.78469 0.0
N1689 N 0.62688 0.02874 0.77171 0.0
C1690 C 0.60712 0.03767 0.78434 0.0
C1691 C 0.61433 0.03495 0.77088 0.0
C1692 C 0.61283 0.0336 0.79847 0.0
C1693 C 0.62457 0.02531 0.79836 0.0
H1694 H 0.64131 0.01773 0.7848 0.0
H1695 H 0.61052 0.03876 0.76017 0.0
C1696 C 0.68658 0.07465 0.75015 0.0
N1697 N 0.67875 0.06832 0.76138 0.0
C1698 C 0.69847 0.08823 0.75444 0.0
C1699 C 0.6935 0.08898 0.78175 0.0
C1700 C 0.68168 0.07529 0.77689 0.0
C1701 C 0.70214 0.0954 0.77042 0.0
H1702 H 0.68359 0.06907 0.73786 0.0
H1703 H 0.67488 0.07024 0.78546 0.0
C1704 C 0.62577 0.00399 0.74229 0.0
N1705 N 0.5986 0.98623 0.74926 0.0
C1706 C 0.62578 0.99171 0.75128 0.0
C1707 C 0.61197 0.0072 0.73677 0.0
C1708 C 0.61191 0.98287 0.7547 0.0
C1709 C 0.59834 0.9981 0.74045 0.0
C1710 C 0.67937 0.03467 0.72495 0.0
C1711 C 0.67527 0.02761 0.70903 0.0
C1712 C 0.6948 0.04015 0.73089 0.0
C1713 C 0.68668 0.02602 0.69935 0.0
C1714 C 0.70586 0.03835 0.72083 0.0
N1715 N 0.70161 0.03137 0.70539 0.0
C1716 C 0.63729 0.04905 0.70748 0.0
C1717 C 0.6303 0.02031 0.70166 0.0
C1718 C 0.6289 0.05009 0.69357 0.0
N1719 N 0.63742 0.03433 0.71133 0.0
C1720 C 0.62202 0.02076 0.68749 0.0
C1721 C 0.62089 0.0358 0.68355 0.0
H1722 H 0.6431 0.05993 0.71561 0.0
H1723 H 0.63074 0.00883 0.70521 0.0
C1724 C 0.66997 0.99697 0.76183 0.0
N1725 N 0.67083 1.00333 0.74832 0.0
C1726 C 0.67771 0.98513 0.76432 0.0
C1727 C 0.68671 0.98629 0.73868 0.0
C1728 C 0.67871 0.9981 0.73666 0.0
C1729 C 0.68632 0.97983 0.75272 0.0
H1730 H 0.66348 1.00136 0.7708 0.0
H1731 H 0.6789 1.0031 0.72589 0.0
O1732 O 0.64385 0.05083 0.74755 0.0
O1733 O 0.66156 0.03317 0.76854 0.0
O1734 O 0.63923 0.01299 0.73911 0.0
O1735 O 0.66833 0.03677 0.73447 0.0
H1736 H 0.64853 0.07246 0.77385 0.0
H1737 H 0.61809 0.05176 0.73108 0.0
H1738 H 0.63177 0.09111 0.78092 0.0
H1739 H 0.60194 0.07081 0.73883 0.0
H1740 H 0.71217 0.03918 0.78357 0.0
H1741 H 0.6615 0.04201 0.79932 0.0
H1742 H 0.68976 0.03203 0.76305 0.0
H1743 H 0.68436 0.04882 0.81924 0.0
H1744 H 0.59782 0.04375 0.78398 0.0
H1745 H 0.62925 0.02196 0.80904 0.0
H1746 H 0.7045 0.09327 0.74529 0.0
H1747 H 0.69586 0.09448 0.79413 0.0
H1748 H 0.63638 0.9891 0.75564 0.0
H1749 H 0.61181 0.01676 0.72989 0.0
H1750 H 0.61174 0.97336 0.76169 0.0
H1751 H 0.58757 1.0005 0.73634 0.0
H1752 H 0.66341 0.02336 0.70421 0.0
H1753 H 0.69824 0.04591 0.74309 0.0
H1754 H 0.68366 0.02054 0.68701 0.0
H1755 H 0.71784 0.04256 0.72527 0.0
H1756 H 0.6282 0.06191 0.69104 0.0
H1757 H 0.61634 0.00947 0.67988 0.0
H1758 H 0.6773 0.98048 0.77536 0.0
H1759 H 0.6931 0.98227 0.72941 0.0
Li1760 Li 0.78204 0.69615 0.01172 0.0
Li1761 Li 0.79275 0.67417 0.99851 0.0
Li1762 Li 0.78096 0.69239 0.98219 0.0
Li1763 Li 0.76396 0.67095 0.99568 0.0
C1764 C 0.81104 0.71116 0.00412 0.0
N1765 N 0.83478 0.73777 0.01546 0.0
C1766 C 0.82422 0.70934 0.01265 0.0
C1767 C 0.81005 0.72648 1.00116 0.0
C1768 C 0.83606 0.72295 0.01836 0.0
C1769 C 0.82214 0.73979 0.00703 0.0
C1770 C 0.78064 0.66331 0.02532 0.0
C1771 C 0.77792 0.63641 0.03141 0.0
N1772 N 0.78512 0.64282 0.04623 0.0
C1773 C 0.78788 0.66965 0.04064 0.0
C1774 C 0.77551 0.64658 0.02068 0.0
C1775 C 0.79009 0.65908 0.05102 0.0
C1776 C 0.77071 0.71432 0.03635 0.0
N1777 N 0.78369 0.71084 0.03142 0.0
C1778 C 0.79778 0.72416 0.05645 0.0
C1779 C 0.79712 0.7157 0.0411 0.0
C1780 C 0.78445 0.72761 0.06199 0.0
C1781 C 0.77087 0.72286 0.05152 0.0
H1782 H 0.76004 0.7099 0.0288 0.0
H1783 H 0.80717 0.71224 0.03729 0.0
C1784 C 0.81372 0.6551 0.98754 0.0
N1785 N 0.80936 0.6632 1.00054 0.0
C1786 C 0.8262 0.64793 0.98898 0.0
C1787 C 0.82962 0.65764 0.01711 0.0
C1788 C 0.81709 0.66457 0.01513 0.0
C1789 C 0.83442 0.64919 0.00393 0.0
H1790 H 0.80769 0.65442 0.97599 0.0
H1791 H 0.81375 0.67138 0.02527 0.0
C1792 C 0.7559 0.7057 0.99661 0.0
N1793 N 0.73916 0.72905 0.99967 0.0
C1794 C 0.74064 0.70158 0.99934 0.0
C1795 C 0.7626 0.72163 0.9953 0.0
C1796 C 0.73238 0.71358 1.00088 0.0
C1797 C 0.75396 0.73329 0.99693 0.0
C1798 C 0.77424 0.65455 0.96731 0.0
C1799 C 0.77064 0.65589 0.95153 0.0
C1800 C 0.7746 0.63944 0.97128 0.0
C1801 C 0.76745 0.64201 0.93992 0.0
C1802 C 0.77132 0.62584 0.95933 0.0
N1803 N 0.76785 0.6274 0.94404 0.0
C1804 C 0.79576 0.70996 0.95961 0.0
C1805 C 0.76884 0.70247 0.95451 0.0
C1806 C 0.79669 0.71724 0.94605 0.0
N1807 N 0.78198 0.70275 0.96358 0.0
C1808 C 0.76925 0.70947 0.94077 0.0
C1809 C 0.78332 0.71697 0.9363 0.0
H1810 H 0.80608 0.70996 0.96691 0.0
H1811 H 0.75801 0.69669 0.95788 0.0
C1812 C 0.73905 0.65479 0.00981 0.0
N1813 N 0.74367 0.65696 0.99546 0.0
C1814 C 0.7243 0.646 0.01097 0.0
C1815 C 0.71907 0.64177 0.98255 0.0
C1816 C 0.734 0.6506 0.98192 0.0
C1817 C 0.7139 0.6394 0.99726 0.0
H1818 H 0.74678 0.66012 0.02046 0.0
H1819 H 0.73775 0.65266 0.97063 0.0
O1820 O 0.79938 0.69792 0.99834 0.0
O1821 O 0.77839 0.67347 0.015 0.0
O1822 O 0.76419 0.69415 0.99531 0.0
O1823 O 0.7778 0.66808 0.97872 0.0
H1824 H 0.82529 0.69758 0.01493 0.0
H1825 H 0.80013 0.72809 0.99427 0.0
H1826 H 0.84627 0.72172 0.02507 0.0
H1827 H 0.8215 0.75172 0.00483 0.0
H1828 H 0.77404 0.62342 0.02797 0.0
H1829 H 0.79184 0.68258 0.04445 0.0
H1830 H 0.76964 0.64151 0.00896 0.0
H1831 H 0.79576 0.66381 0.06289 0.0
H1832 H 0.80847 0.72723 0.06412 0.0
H1833 H 0.76032 0.72537 0.05512 0.0
H1834 H 0.82956 0.64179 0.97842 0.0
H1835 H 0.83544 0.65886 0.02889 0.0
H1836 H 0.73529 0.68927 1.00036 0.0
H1837 H 0.77433 0.72497 0.99307 0.0
H1838 H 0.72058 0.71059 0.00307 0.0
H1839 H 0.75903 0.74569 0.99601 0.0
H1840 H 0.77043 0.66754 0.94826 0.0
H1841 H 0.77759 0.63825 0.9834 0.0
H1842 H 0.76469 0.64287 0.92765 0.0
H1843 H 0.77161 0.61406 0.96222 0.0
H1844 H 0.8078 0.72268 0.94303 0.0
H1845 H 0.75862 0.70909 0.93376 0.0
H1846 H 0.72114 0.64439 0.02259 0.0
H1847 H 0.71155 0.63723 0.97161 0.0
Li1848 Li 0.90238 0.5187 0.77089 0.0
Li1849 Li 0.92249 0.5333 0.79074 0.0
Li1850 Li 0.90651 0.54729 0.77525 0.0
Li1851 Li 0.92525 0.53364 0.7633 0.0
C1852 C 0.88786 0.52633 0.79717 0.0
N1853 N 0.86237 0.51336 0.81069 0.0
C1854 C 0.88828 0.51436 0.80647 0.0
C1855 C 0.87452 0.5318 0.79483 0.0
C1856 C 0.87526 0.50792 0.81317 0.0
C1857 C 0.86174 0.52506 0.80175 0.0
C1858 C 0.93331 0.5068 0.77774 0.0
C1859 C 0.9595 0.50522 0.78267 0.0
N1860 N 0.95474 0.48952 0.7845 0.0
C1861 C 0.92866 0.49062 0.77958 0.0
C1862 C 0.94884 0.51416 0.77922 0.0
C1863 C 0.93968 0.4821 0.78303 0.0
C1864 C 0.8948 0.48923 0.75308 0.0
N1865 N 0.88884 0.49866 0.76377 0.0
C1866 C 0.86662 0.47767 0.76252 0.0
C1867 C 0.8748 0.49344 0.76819 0.0
C1868 C 0.87292 0.46756 0.75201 0.0
C1869 C 0.88692 0.47352 0.74689 0.0
H1870 H 0.90584 0.49388 0.74958 0.0
H1871 H 0.87002 0.5013 0.77621 0.0
C1872 C 0.94273 0.54682 0.81787 0.0
N1873 N 0.93312 0.53307 0.80988 0.0
C1874 C 0.95195 0.54627 0.83143 0.0
C1875 C 0.94105 0.51742 0.82812 0.0
C1876 C 0.93188 0.51861 0.81484 0.0
C1877 C 0.95129 0.53136 0.83655 0.0
H1878 H 0.94336 0.55813 0.81355 0.0
H1879 H 0.92407 0.50792 0.80821 0.0
C1880 C 0.89244 0.52484 0.74368 0.0
N1881 N 0.86845 0.50707 0.72174 0.0
C1882 C 0.89527 0.51663 0.72938 0.0
C1883 C 0.87741 0.5242 0.74674 0.0
C1884 C 0.88298 0.50767 0.71846 0.0
C1885 C 0.86544 0.51509 0.73552 0.0
C1886 C 0.94094 0.56426 0.77763 0.0
C1887 C 0.93788 0.57679 0.77014 0.0
C1888 C 0.95603 0.56384 0.78211 0.0
C1889 C 0.95004 0.58858 0.76703 0.0
C1890 C 0.96786 0.57583 0.77875 0.0
N1891 N 0.96464 0.58785 0.77134 0.0
C1892 C 0.89527 0.57368 0.78842 0.0
C1893 C 0.89137 0.56605 0.76041 0.0
C1894 C 0.88706 0.58556 0.78754 0.0
N1895 N 0.89709 0.56423 0.77494 0.0
C1896 C 0.88289 0.57748 0.759 0.0
C1897 C 0.88062 0.58723 0.77268 0.0
H1898 H 0.89998 0.57179 0.79978 0.0
H1899 H 0.89326 0.5585 0.74993 0.0
C1900 C 0.93661 0.51616 0.74102 0.0
N1901 N 0.93768 0.5319 0.74721 0.0
C1902 C 0.94258 0.51216 0.72712 0.0
C1903 C 0.95132 0.54074 0.72638 0.0
C1904 C 0.94501 0.54422 0.74037 0.0
C1905 C 0.94963 0.52452 0.71949 0.0
H1906 H 0.93032 0.50661 0.74633 0.0
H1907 H 0.94524 0.5566 0.74519 0.0
O1908 O 0.90056 0.53301 0.79076 0.0
O1909 O 0.92263 0.51526 0.77427 0.0
O1910 O 0.90431 0.53326 0.75476 0.0
O1911 O 0.92921 0.55276 0.78099 0.0
H1912 H 0.8985 0.51002 0.80842 0.0
H1913 H 0.87402 0.54111 0.78773 0.0
H1914 H 0.87541 0.49861 0.82034 0.0
H1915 H 0.85131 0.52913 0.80001 0.0
H1916 H 0.97157 0.51076 0.78386 0.0
H1917 H 0.91667 0.48476 0.77847 0.0
H1918 H 0.95259 0.52658 0.77763 0.0
H1919 H 0.93625 0.4696 0.78454 0.0
H1920 H 0.85569 0.47326 0.76653 0.0
H1921 H 0.89203 0.4659 0.73883 0.0
H1922 H 0.95946 0.55736 0.83782 0.0
H1923 H 0.94031 0.50567 0.83155 0.0
H1924 H 0.90683 0.51706 0.7268 0.0
H1925 H 0.87503 0.53043 0.75779 0.0
H1926 H 0.88501 0.50116 0.70739 0.0
H1927 H 0.85375 0.51434 0.7378 0.0
H1928 H 0.92627 0.57736 0.7667 0.0
H1929 H 0.95858 0.55442 0.7882 0.0
H1930 H 0.94786 0.59831 0.76118 0.0
H1931 H 0.97959 0.57562 0.7821 0.0
H1932 H 0.88547 0.59308 0.79825 0.0
H1933 H 0.8782 0.57876 0.74737 0.0
H1934 H 0.94112 0.49953 0.72202 0.0
H1935 H 0.95662 0.5505 0.72055 0.0
Li1936 Li 0.79249 0.40799 0.51797 0.0
Li1937 Li 0.77837 0.42613 0.50639 0.0
Li1938 Li 0.79329 0.40953 0.49013 0.0
Li1939 Li 0.80576 0.43255 0.51027 0.0
C1940 C 0.76436 0.38907 0.50347 0.0
N1941 N 0.74278 0.36288 0.50881 0.0
C1942 C 0.75191 0.39151 0.51128 0.0
C1943 C 0.76571 0.37333 0.49814 0.0
C1944 C 0.74115 0.3781 0.51392 0.0
C1945 C 0.75472 0.36024 0.50103 0.0
C1946 C 0.79658 0.44328 0.53796 0.0
C1947 C 0.80198 0.47214 0.54664 0.0
N1948 N 0.80795 0.47018 0.56107 0.0
C1949 C 0.80265 0.44152 0.5529 0.0
C1950 C 0.79613 0.45868 0.5348 0.0
C1951 C 0.80838 0.45528 0.56442 0.0
C1952 C 0.80886 0.39734 0.5402 0.0
N1953 N 0.79419 0.39603 0.53426 0.0
C1954 C 0.78502 0.38249 0.55506 0.0
C1955 C 0.78228 0.38877 0.54131 0.0
C1956 C 0.80013 0.38395 0.56154 0.0
C1957 C 0.81211 0.39114 0.55373 0.0
H1958 H 0.81812 0.40384 0.53485 0.0
H1959 H 0.77075 0.3885 0.53677 0.0
C1960 C 0.75398 0.4382 0.49446 0.0
N1961 N 0.76144 0.43495 0.50751 0.0
C1962 C 0.74188 0.44573 0.496 0.0
C1963 C 0.74555 0.44634 0.52432 0.0
C1964 C 0.75744 0.4387 0.52222 0.0
C1965 C 0.73769 0.45 0.51112 0.0
H1966 H 0.75758 0.43513 0.48295 0.0
H1967 H 0.76356 0.43582 0.53233 0.0
C1968 C 0.8193 0.40064 0.50355 0.0
N1969 N 0.83756 0.37901 0.49802 0.0
C1970 C 0.83487 0.4063 0.50285 0.0
C1971 C 0.81301 0.38401 0.50155 0.0
C1972 C 0.84392 0.39516 0.50001 0.0
C1973 C 0.82243 0.37326 0.49873 0.0
C1974 C 0.79876 0.44449 0.48286 0.0
C1975 C 0.81023 0.44225 0.47344 0.0
C1976 C 0.7938 0.45889 0.48403 0.0
C1977 C 0.81664 0.45456 0.46539 0.0
C1978 C 0.80051 0.47091 0.47579 0.0
N1979 N 0.8117 0.46851 0.46673 0.0
C1980 C 0.78027 0.38924 0.46179 0.0
C1981 C 0.80733 0.39603 0.46504 0.0
C1982 C 0.77998 0.37917 0.44744 0.0
N1983 N 0.7938 0.39729 0.47027 0.0
C1984 C 0.80758 0.38588 0.45091 0.0
C1985 C 0.79378 0.37728 0.44202 0.0
H1986 H 0.76971 0.3905 0.4663 0.0
H1987 H 0.81792 0.40278 0.47188 0.0
C1988 C 0.83133 0.44512 0.53053 0.0
N1989 N 0.82365 0.44872 0.51781 0.0
C1990 C 0.84502 0.45534 0.53774 0.0
C1991 C 0.84287 0.47272 0.51839 0.0
C1992 C 0.8289 0.46242 0.5119 0.0
C1993 C 0.85128 0.46907 0.53133 0.0
H1994 H 0.82681 0.43415 0.53499 0.0
H1995 H 0.82256 0.46522 0.50195 0.0
O1996 O 0.77489 0.40203 0.50059 0.0
O1997 O 0.79131 0.42999 0.52639 0.0
O1998 O 0.81036 0.41143 0.50644 0.0
O1999 O 0.7922 0.43255 0.49066 0.0
H2000 H 0.75062 0.4036 0.51536 0.0
H2001 H 0.77507 0.37122 0.49173 0.0
H2002 H 0.73151 0.3798 0.52005 0.0
H2003 H 0.75565 0.34799 0.49703 0.0
H2004 H 0.80183 0.48416 0.54434 0.0
H2005 H 0.80306 0.42966 0.5555 0.0
H2006 H 0.7915 0.46021 0.52326 0.0
H2007 H 0.8132 0.45413 0.57601 0.0
H2008 H 0.77548 0.37722 0.56089 0.0
H2009 H 0.82391 0.39234 0.55822 0.0
H2010 H 0.73606 0.44849 0.48559 0.0
H2011 H 0.74246 0.44926 0.53612 0.0
H2012 H 0.83989 0.41916 0.50445 0.0
H2013 H 0.80102 0.37949 0.50227 0.0
H2014 H 0.85599 0.39935 0.4994 0.0
H2015 H 0.81773 0.36035 0.49715 0.0
H2016 H 0.8142 0.4312 0.47246 0.0
H2017 H 0.78491 0.46076 0.49126 0.0
H2018 H 0.82557 0.45303 0.45809 0.0
H2019 H 0.79683 0.48214 0.47662 0.0
H2020 H 0.76914 0.37264 0.44085 0.0
H2021 H 0.81842 0.38482 0.44693 0.0
H2022 H 0.85083 0.45217 0.5479 0.0
H2023 H 0.84727 0.48299 0.51281 0.0
Li2024 Li 0.64351 0.51058 0.28349 0.0
Li2025 Li 0.66578 0.52842 0.26911 0.0
Li2026 Li 0.64326 0.50839 0.25231 0.0
Li2027 Li 0.66304 0.49493 0.26663 0.0
C2028 C 0.63243 0.5345 0.26331 0.0
N2029 N 0.61019 0.54808 0.25065 0.0
C2030 C 0.6365 0.54941 0.25825 0.0
C2031 C 0.61707 0.52647 0.26189 0.0
C2032 C 0.62508 0.5561 0.25191 0.0
C2033 C 0.606 0.53352 0.25545 0.0
C2034 C 0.6784 0.51991 0.29848 0.0
C2035 C 0.70406 0.52274 0.31053 0.0
N2036 N 0.70118 0.53237 0.3234 0.0
C2037 C 0.67571 0.52993 0.31175 0.0
C2038 C 0.69269 0.51636 0.29778 0.0
C2039 C 0.68737 0.53608 0.32426 0.0
C2040 C 0.63846 0.50726 0.31775 0.0
N2041 N 0.63225 0.51137 0.3043 0.0
C2042 C 0.61155 0.51741 0.31894 0.0
C2043 C 0.6189 0.51638 0.3049 0.0
C2044 C 0.61776 0.51342 0.3331 0.0
C2045 C 0.63155 0.50825 0.33206 0.0
H2046 H 0.64898 0.50323 0.31755 0.0
H2047 H 0.61382 0.51978 0.29449 0.0
C2048 C 0.68012 0.55712 0.25529 0.0
N2049 N 0.67901 0.55168 0.26941 0.0
C2050 C 0.68777 0.57321 0.25445 0.0
C2051 C 0.69312 0.57849 0.2827 0.0
C2052 C 0.68544 0.56222 0.28301 0.0
C2053 C 0.69446 0.58453 0.26826 0.0
H2054 H 0.67474 0.54904 0.24449 0.0
H2055 H 0.68436 0.55821 0.29428 0.0
C2056 C 0.62702 0.47865 0.25882 0.0
N2057 N 0.60165 0.45546 0.24403 0.0
C2058 C 0.62855 0.4664 0.24687 0.0
C2059 C 0.61263 0.47899 0.26342 0.0
C2060 C 0.61557 0.45482 0.23948 0.0
C2061 C 0.59993 0.46718 0.25576 0.0
C2062 C 0.66999 0.50717 0.23599 0.0
C2063 C 0.66168 0.49349 0.22547 0.0
C2064 C 0.68246 0.51731 0.23127 0.0
C2065 C 0.66592 0.49027 0.21029 0.0
C2066 C 0.68634 0.51367 0.216 0.0
N2067 N 0.67805 0.50035 0.20591 0.0
C2068 C 0.63785 0.5177 0.2208 0.0
C2069 C 0.61578 0.49996 0.22591 0.0
C2070 C 0.63065 0.51871 0.20582 0.0
N2071 N 0.6306 0.50822 0.23064 0.0
C2072 C 0.60802 0.50091 0.21109 0.0
C2073 C 0.61542 0.51029 0.20053 0.0
H2074 H 0.6494 0.52466 0.22454 0.0
H2075 H 0.6098 0.49262 0.23364 0.0
C2076 C 0.68165 0.47189 0.27915 0.0
N2077 N 0.67429 0.47507 0.26578 0.0
C2078 C 0.68895 0.45866 0.27879 0.0
C2079 C 0.68113 0.45145 0.251 0.0
C2080 C 0.67406 0.46487 0.25183 0.0
C2081 C 0.68892 0.44788 0.26457 0.0
H2082 H 0.68185 0.47957 0.29035 0.0
H2083 H 0.66832 0.46702 0.2411 0.0
O2084 O 0.64342 0.5277 0.26948 0.0
O2085 O 0.66704 0.5135 0.28627 0.0
O2086 O 0.63955 0.49016 0.26611 0.0
O2087 O 0.66586 0.51067 0.25079 0.0
H2088 H 0.64833 0.55579 0.25928 0.0
H2089 H 0.61376 0.51483 0.26556 0.0
H2090 H 0.62805 0.56766 0.248 0.0
H2091 H 0.59407 0.52741 0.25424 0.0
H2092 H 0.71517 0.52003 0.31019 0.0
H2093 H 0.66473 0.53291 0.31239 0.0
H2094 H 0.69496 0.50872 0.2875 0.0
H2095 H 0.68545 0.5438 0.33465 0.0
H2096 H 0.60115 0.52167 0.31867 0.0
H2097 H 0.63701 0.50474 0.34223 0.0
H2098 H 0.68839 0.57661 0.24287 0.0
H2099 H 0.69763 0.58633 0.29388 0.0
H2100 H 0.63963 0.4658 0.24337 0.0
H2101 H 0.61129 0.48824 0.27284 0.0
H2102 H 0.61657 0.4453 0.23016 0.0
H2103 H 0.58871 0.46733 0.25915 0.0
H2104 H 0.65194 0.4856 0.2289 0.0
H2105 H 0.68912 0.52783 0.23934 0.0
H2106 H 0.65953 0.47978 0.20199 0.0
H2107 H 0.69596 0.52143 0.21217 0.0
H2108 H 0.63698 0.52639 0.19856 0.0
H2109 H 0.59634 0.49411 0.20785 0.0
H2110 H 0.69439 0.45682 0.28983 0.0
H2111 H 0.68061 0.44404 0.23956 0.0
Gd2112 Gd 0.019 0.02557 1.00204 0.0
Gd2113 Gd 0.04886 0.04235 0.02076 0.0
C2114 C 0.03043 0.06453 0.00443 0.0
C2115 C 0.99005 0.01494 0.99364 0.0
C2116 C 0.97693 0.0222 0.9945 0.0
C2117 C 0.96347 0.0148 0.98451 0.0
C2118 C 0.97824 0.03726 0.00404 0.0
C2119 C 0.95257 0.03753 0.99348 0.0
C2120 C 0.96611 0.04486 0.00359 0.0
C2121 C 0.95136 0.02241 0.98398 0.0
C2122 C 0.04 0.0236 0.98065 0.0
C2123 C 0.03801 1.00331 0.01744 0.0
C2124 C 0.07769 0.05295 0.02919 0.0
C2125 C 0.09032 0.0452 0.02686 0.0
C2126 C 0.10371 0.05044 0.03743 0.0
C2127 C 0.08819 0.0311 0.01557 0.0
C2128 C 0.11267 0.02724 0.02577 0.0
C2129 C 0.09932 0.02218 0.015 0.0
C2130 C 0.11486 0.04153 0.03687 0.0
C2131 C 0.02777 0.04334 0.04227 0.0
O2132 O 0.0192 0.05153 1.00009 0.0
O2133 O 0.04333 0.06414 0.01242 0.0
O2134 O 0.99959 0.02077 0.98424 0.0
O2135 O 0.99683 0.01312 0.00707 0.0
O2136 O 0.02564 0.01673 0.97825 0.0
O2137 O 0.04313 0.0304 0.99528 0.0
O2138 O 0.04955 0.01614 0.02036 0.0
O2139 O 0.02444 0.00414 0.01131 0.0
O2140 O 0.0683 0.04621 0.0383 0.0
O2141 O 0.07075 0.05618 0.01649 0.0
O2142 O 0.04224 0.04951 0.04512 0.0
O2143 O 0.02488 0.03698 0.02754 0.0
H2144 H 0.96245 1.00331 0.97686 0.0
H2145 H 0.9887 0.04323 0.01166 0.0
H2146 H 0.96732 0.05642 0.01117 0.0
H2147 H 0.94118 0.0166 0.97589 0.0
H2148 H 0.10533 0.06116 0.04638 0.0
H2149 H 0.07772 0.02671 0.00756 0.0
H2150 H 0.09732 0.01112 0.00645 0.0
H2151 H 0.12515 0.04576 0.04515 0.0
Gd2152 Gd 0.29037 0.78181 0.2461 0.0
Gd2153 Gd 0.27907 0.78694 0.27886 0.0
C2154 C 0.28818 0.8175 0.26266 0.0
C2155 C 0.29706 0.78114 0.21754 0.0
C2156 C 0.30697 0.79286 0.21015 0.0
C2157 C 0.31093 0.78817 0.1951 0.0
C2158 C 0.31231 0.80888 0.21801 0.0
C2159 C 0.32358 0.81603 0.19484 0.0
C2160 C 0.32052 0.82046 0.21032 0.0
C2161 C 0.31929 0.79975 0.18746 0.0
C2162 C 0.31171 0.7831 0.27076 0.0
C2163 C 0.27883 0.75162 0.26097 0.0
C2164 C 0.27565 0.78864 0.30823 0.0
C2165 C 0.26496 0.77845 0.31652 0.0
C2166 C 0.25734 0.78565 0.32802 0.0
C2167 C 0.2624 0.7615 0.31316 0.0
C2168 C 0.24708 0.7593 0.33488 0.0
C2169 C 0.2536 0.752 0.32233 0.0
C2170 C 0.24832 0.77612 0.33705 0.0
C2171 C 0.25463 0.77962 0.25542 0.0
O2172 O 0.2899 0.8079 0.24983 0.0
O2173 O 0.28619 0.81266 0.27628 0.0
O2174 O 0.30414 0.77506 0.2281 0.0
O2175 O 0.28483 0.78531 0.22211 0.0
O2176 O 0.30993 0.77387 0.25715 0.0
O2177 O 0.30228 0.79219 0.2708 0.0
O2178 O 0.28135 0.7614 0.27471 0.0
O2179 O 0.27792 0.75695 0.24744 0.0
O2180 O 0.26963 0.79719 0.29919 0.0
O2181 O 0.2859 0.78192 0.30183 0.0
O2182 O 0.25337 0.7819 0.2704 0.0
O2183 O 0.26847 0.78048 0.25428 0.0
H2184 H 0.30699 0.77578 0.18901 0.0
H2185 H 0.3095 0.81259 0.22974 0.0
H2186 H 0.32353 0.83304 0.21594 0.0
H2187 H 0.32127 0.79624 0.17532 0.0
H2188 H 0.25884 0.79867 0.33044 0.0
H2189 H 0.26779 0.75561 0.30396 0.0
H2190 H 0.25295 0.73911 0.32035 0.0
H2191 H 0.24313 0.78202 0.34642 0.0
Gd2192 Gd 0.55304 0.03523 0.51237 0.0
Gd2193 Gd 0.51753 0.03198 0.5104 0.0
C2194 C 0.5291 0.99934 0.50575 0.0
C2195 C 0.58054 0.03211 0.51937 0.0
C2196 C 0.59055 0.02073 0.51576 0.0
C2197 C 0.60451 0.02646 0.51019 0.0
C2198 C 0.587 0.00469 0.51864 0.0
C2199 C 0.61187 1.00093 0.51176 0.0
C2200 C 0.59757 0.99493 0.51673 0.0
C2201 C 0.61496 0.0167 0.50812 0.0
C2202 C 0.53872 0.03426 0.48372 0.0
C2203 C 0.54142 0.06775 0.516 0.0
C2204 C 0.48981 0.03523 0.50455 0.0
C2205 C 0.48025 0.04731 0.50726 0.0
C2206 C 0.47216 0.04821 0.52053 0.0
C2207 C 0.47798 0.05703 0.49588 0.0
C2208 C 0.45938 0.0678 0.51066 0.0
C2209 C 0.46774 0.06714 0.49757 0.0
C2210 C 0.46193 0.05834 0.52223 0.0
C2211 C 0.5324 0.033 0.53888 0.0
O2212 O 0.54301 0.00839 0.51082 0.0
O2213 O 0.51731 0.00572 0.50268 0.0
O2214 O 0.57674 0.03962 0.50801 0.0
O2215 O 0.56946 0.02797 0.52795 0.0
O2216 O 0.55277 0.04207 0.48809 0.0
O2217 O 0.53359 0.02631 0.49397 0.0
O2218 O 0.5276 0.05863 0.51062 0.0
O2219 O 0.55298 0.06137 0.52 0.0
O2220 O 0.49451 0.02935 0.51676 0.0
O2221 O 0.50006 0.03759 0.49471 0.0
O2222 O 0.51861 0.02442 0.53446 0.0
O2223 O 0.53703 0.04117 0.52864 0.0
H2224 H 0.60752 0.0387 0.50775 0.0
H2225 H 0.5763 0.99986 0.5229 0.0
H2226 H 0.59474 0.98291 0.51973 0.0
H2227 H 0.62562 0.02166 0.50386 0.0
H2228 H 0.47347 0.04083 0.52949 0.0
H2229 H 0.48382 0.05652 0.4854 0.0
H2230 H 0.46599 0.07401 0.48827 0.0
H2231 H 0.45592 0.05865 0.5326 0.0
Gd2232 Gd 0.26717 0.28603 0.76002 0.0
Gd2233 Gd 0.30206 0.28109 0.7627 0.0
C2234 C 0.28704 0.2903 0.79457 0.0
C2235 C 0.23806 0.28053 0.76201 0.0
C2236 C 0.22708 0.28372 0.77345 0.0
C2237 C 0.21913 0.29595 0.77229 0.0
C2238 C 0.22339 0.27362 0.78474 0.0
C2239 C 0.20363 0.28743 0.79292 0.0
C2240 C 0.21187 0.27545 0.79432 0.0
C2241 C 0.20763 0.29782 0.78193 0.0
C2242 C 0.28848 0.31547 0.76225 0.0
C2243 C 0.28183 0.27569 0.72803 0.0
C2244 C 0.3311 0.28661 0.76041 0.0
C2245 C 0.34227 0.28288 0.74947 0.0
C2246 C 0.35442 0.27658 0.75493 0.0
C2247 C 0.34194 0.28705 0.73424 0.0
C2248 C 0.36627 0.27976 0.73068 0.0
C2249 C 0.35378 0.28552 0.72498 0.0
C2250 C 0.36621 0.27497 0.74566 0.0
C2251 C 0.28078 0.25194 0.76177 0.0
O2252 O 0.27361 0.28793 0.78607 0.0
O2253 O 0.29994 0.29009 0.78827 0.0
O2254 O 0.24541 0.29264 0.75587 0.0
O2255 O 0.24654 0.27054 0.7651 0.0
O2256 O 0.27377 0.31369 0.76143 0.0
O2257 O 0.29067 0.30129 0.76223 0.0
O2258 O 0.29507 0.2769 0.73652 0.0
O2259 O 0.26934 0.27789 0.73429 0.0
O2260 O 0.32409 0.27512 0.76751 0.0
O2261 O 0.3223 0.29587 0.75618 0.0
O2262 O 0.29554 0.25386 0.76368 0.0
O2263 O 0.27867 0.26592 0.76043 0.0
H2264 H 0.22157 0.30388 0.76368 0.0
H2265 H 0.22911 0.26393 0.78591 0.0
H2266 H 0.20907 0.26701 0.80241 0.0
H2267 H 0.20178 0.30737 0.78063 0.0
H2268 H 0.35503 0.2733 0.76662 0.0
H2269 H 0.33277 0.29199 0.72962 0.0
H2270 H 0.35339 0.28948 0.71361 0.0
H2271 H 0.37541 0.27015 0.75038 0.0
Gd2272 Gd 0.03391 0.05083 0.51921 0.0
Gd2273 Gd 0.03802 0.0176 0.50554 0.0
C2274 C 0.02398 0.03852 0.48104 0.0
C2275 C 0.03869 0.08176 0.52655 0.0
C2276 C 0.038 0.09426 0.51666 0.0
C2277 C 0.0239 0.09581 0.50963 0.0
C2278 C 0.05151 0.10415 0.51343 0.0
C2279 C 0.03684 0.11673 0.49619 0.0
C2280 C 0.05094 0.11528 0.50325 0.0
C2281 C 0.02334 0.10693 0.49949 0.0
C2282 C 0.00816 0.02853 0.52236 0.0
C2283 C 0.04638 0.02937 0.54353 0.0
C2284 C 0.03519 0.98741 0.49474 0.0
C2285 C 0.03491 0.97376 0.50345 0.0
C2286 C 0.0484 0.96885 0.50733 0.0
C2287 C 0.02152 0.96666 0.50939 0.0
C2288 C 0.03543 0.95121 0.52407 0.0
C2289 C 0.02179 0.95555 0.51961 0.0
C2290 C 0.04867 0.95769 0.51757 0.0
C2291 C 0.06357 0.0417 0.50931 0.0
O2292 O 0.02444 0.04987 0.49349 0.0
O2293 O 0.02914 0.02537 0.48266 0.0
O2294 O 0.02569 0.07193 0.5275 0.0
O2295 O 0.0498 0.07432 0.52489 0.0
O2296 O 0.01042 0.04394 0.52724 0.0
O2297 O 0.0199 0.02594 0.51654 0.0
O2298 O 0.04109 0.01662 0.5321 0.0
O2299 O 0.04649 0.04419 0.54066 0.0
O2300 O 0.0482 0.99807 0.49632 0.0
O2301 O 0.02354 0.99413 0.49551 0.0
O2302 O 0.06324 0.02731 0.51241 0.0
O2303 O 0.05031 0.04255 0.50404 0.0
H2304 H 0.01325 0.0883 0.51177 0.0
H2305 H 0.06251 0.10317 0.51866 0.0
H2306 H 0.06152 0.12287 0.50104 0.0
H2307 H 0.01234 0.10771 0.49406 0.0
H2308 H 0.0589 0.97405 0.5029 0.0
H2309 H 0.01088 0.97 0.50653 0.0
H2310 H 0.01131 0.95042 0.52411 0.0
H2311 H 0.05933 0.95454 0.52079 0.0
Gd2312 Gd 0.30098 0.79737 0.76612 0.0
Gd2313 Gd 0.27014 0.77041 0.76054 0.0
C2314 C 0.30183 0.75784 0.76315 0.0
C2315 C 0.32493 0.81682 0.78169 0.0
C2316 C 0.34126 0.81726 0.78284 0.0
C2317 C 0.34905 0.81694 0.76939 0.0
C2318 C 0.34878 0.81626 0.79744 0.0
C2319 C 0.37128 0.81323 0.78493 0.0
C2320 C 0.3636 0.81413 0.79846 0.0
C2321 C 0.36399 0.81505 0.77046 0.0
C2322 C 0.29462 0.78335 0.7354 0.0
C2323 C 0.26895 0.80976 0.76136 0.0
C2324 C 0.24355 0.75272 0.74997 0.0
C2325 C 0.22904 0.75713 0.74689 0.0
C2326 C 0.216 0.74854 0.7522 0.0
C2327 C 0.2284 0.77078 0.73988 0.0
C2328 C 0.20172 0.76706 0.74333 0.0
C2329 C 0.2148 0.77567 0.73806 0.0
C2330 C 0.20238 0.75349 0.75045 0.0
C2331 C 0.28191 0.78295 0.79046 0.0
O2332 O 0.30914 0.77346 0.76796 0.0
O2333 O 0.28688 0.75387 0.75837 0.0
O2334 O 0.3185 0.81939 0.76831 0.0
O2335 O 0.31675 0.80486 0.78741 0.0
O2336 O 0.30651 0.79513 0.74057 0.0
O2337 O 0.28733 0.78047 0.74677 0.0
O2338 O 0.26146 0.79412 0.75942 0.0
O2339 O 0.28417 0.81388 0.76416 0.0
O2340 O 0.24902 0.75525 0.76493 0.0
O2341 O 0.25383 0.75737 0.7407 0.0
O2342 O 0.27492 0.76779 0.78617 0.0
O2343 O 0.28156 0.79037 0.77898 0.0
H2344 H 0.34348 0.81764 0.75795 0.0
H2345 H 0.34292 0.81638 0.80792 0.0
H2346 H 0.36878 0.8125 0.80974 0.0
H2347 H 0.36971 0.81468 0.75989 0.0
H2348 H 0.2164 0.73812 0.75781 0.0
H2349 H 0.23841 0.77778 0.73593 0.0
H2350 H 0.2145 0.78621 0.73261 0.0
H2351 H 0.19231 0.74657 0.7544 0.0
Gd2352 Gd 0.54163 0.03042 0.02644 0.0
Gd2353 Gd 0.5319 0.03695 0.99429 0.0
C2354 C 0.50588 0.01857 0.01216 0.0
C2355 C 0.54422 0.02349 0.0543 0.0
C2356 C 0.53287 0.01754 0.06438 0.0
C2357 C 0.53408 0.00398 0.07119 0.0
C2358 C 0.51995 0.02396 0.06572 0.0
C2359 C 0.50986 1.00367 0.08127 0.0
C2360 C 0.50851 0.01706 0.07415 0.0
C2361 C 0.52262 0.99705 0.07956 0.0
C2362 C 0.5502 0.01276 1.00183 0.0
C2363 C 0.56573 0.05301 0.01175 0.0
C2364 C 0.52785 0.03744 0.9646 0.0
C2365 C 0.53929 0.04604 0.9558 0.0
C2366 C 0.53512 0.0534 0.9432 0.0
C2367 C 0.55481 0.04788 0.96091 0.0
C2368 C 0.562 0.06386 0.94069 0.0
C2369 C 0.56599 0.05703 0.95378 0.0
C2370 C 0.5464 0.06209 0.93554 0.0
C2371 C 0.53299 0.06137 0.01801 0.0
O2372 O 0.51655 0.0198 0.024 0.0
O2373 O 0.50884 0.02403 0.99892 0.0
O2374 O 0.54417 0.01313 0.04154 0.0
O2375 O 0.5455 0.03842 0.05178 0.0
O2376 O 0.55889 0.01886 0.01496 0.0
O2377 O 0.53735 0.01584 0.00255 0.0
O2378 O 0.55737 0.04609 0.99818 0.0
O2379 O 0.56075 0.05108 0.02539 0.0
O2380 O 0.52234 0.04675 0.97494 0.0
O2381 O 0.53155 0.02524 0.97021 0.0
O2382 O 0.53728 0.06345 0.00431 0.0
O2383 O 0.528 0.0466 0.01833 0.0
H2384 H 0.54381 0.99866 0.06988 0.0
H2385 H 0.51865 0.03421 0.06021 0.0
H2386 H 0.49886 0.02251 0.07552 0.0
H2387 H 0.52384 0.98668 0.08493 0.0
H2388 H 0.52321 0.05223 0.93915 0.0
H2389 H 0.55841 0.04203 0.97031 0.0
H2390 H 0.5778 0.05832 0.9583 0.0
H2391 H 0.54285 0.06691 0.92529 0.0
Gd2392 Gd 0.28976 0.30185 0.26821 0.0
Gd2393 Gd 0.27878 0.26823 0.25561 0.0
C2394 C 0.25448 0.28969 0.26327 0.0
C2395 C 0.30118 0.33254 0.27512 0.0
C2396 C 0.29333 0.34576 0.27699 0.0
C2397 C 0.29896 0.35926 0.28891 0.0
C2398 C 0.27934 0.3442 0.26784 0.0
C2399 C 0.27676 0.3697 0.28235 0.0
C2400 C 0.27117 0.3561 0.27044 0.0
C2401 C 0.29073 0.37119 0.29157 0.0
C2402 C 0.28402 0.28342 0.29103 0.0
C2403 C 0.31402 0.28055 0.26118 0.0
C2404 C 0.26786 0.23748 0.24912 0.0
C2405 C 0.27605 0.22472 0.25022 0.0
C2406 C 0.27288 0.21099 0.23838 0.0
C2407 C 0.28851 0.2273 0.26194 0.0
C2408 C 0.29464 0.20259 0.2499 0.0
C2409 C 0.2977 0.21628 0.2618 0.0
C2410 C 0.28215 0.19995 0.23821 0.0
C2411 C 0.28457 0.28657 0.23281 0.0
O2412 O 0.26552 0.30255 0.26385 0.0
O2413 O 0.257 0.27505 0.26155 0.0
O2414 O 0.29925 0.32325 0.28583 0.0
O2415 O 0.2998 0.32438 0.26077 0.0
O2416 O 0.27997 0.29691 0.29067 0.0
O2417 O 0.29081 0.28006 0.27917 0.0
O2418 O 0.30305 0.26792 0.26181 0.0
O2419 O 0.31112 0.2949 0.26134 0.0
O2420 O 0.27192 0.24621 0.23833 0.0
O2421 O 0.26665 0.2462 0.26257 0.0
O2422 O 0.28859 0.27308 0.23321 0.0
O2423 O 0.27771 0.28997 0.24461 0.0
H2424 H 0.30959 0.36044 0.29626 0.0
H2425 H 0.27466 0.33375 0.25871 0.0
H2426 H 0.2606 0.35475 0.26292 0.0
H2427 H 0.29523 0.3815 0.3009 0.0
H2428 H 0.2635 0.20904 0.22909 0.0
H2429 H 0.2914 0.23806 0.27096 0.0
H2430 H 0.3074 0.21865 0.27081 0.0
H2431 H 0.27957 0.18938 0.22899 0.0
Gd2432 Gd 0.53239 0.55138 0.02002 0.0
Gd2433 Gd 0.53825 0.51703 0.00403 0.0
C2434 C 0.52368 0.53871 0.98102 0.0
C2435 C 0.53617 0.58199 0.0287 0.0
C2436 C 0.53823 0.59506 0.01938 0.0
C2437 C 0.53102 0.60779 0.02295 0.0
C2438 C 0.54566 0.59382 0.00572 0.0
C2439 C 0.53846 0.61786 0.99917 0.0
C2440 C 0.54585 0.60521 0.99573 0.0
C2441 C 0.53111 0.61913 0.01289 0.0
C2442 C 0.50789 0.52639 0.02034 0.0
C2443 C 0.54696 0.52971 0.04314 0.0
C2444 C 0.53483 0.48639 0.99585 0.0
C2445 C 0.53394 0.47315 0.00506 0.0
C2446 C 0.54615 0.46556 0.00611 0.0
C2447 C 0.52181 0.46902 0.01398 0.0
C2448 C 0.53455 0.45051 0.02547 0.0
C2449 C 0.5221 0.45776 0.02405 0.0
C2450 C 0.54651 0.45442 0.01629 0.0
C2451 C 0.56239 0.54186 1.00232 0.0
O2452 O 0.52559 0.55065 0.99343 0.0
O2453 O 0.52712 0.52458 0.98234 0.0
O2454 O 0.5227 0.57205 0.02563 0.0
O2455 O 0.54738 0.57462 0.0299 0.0
O2456 O 0.50817 0.54146 0.02542 0.0
O2457 O 0.52077 0.526 0.01595 0.0
O2458 O 0.54572 0.51806 0.03057 0.0
O2459 O 0.54284 0.54353 0.04189 0.0
O2460 O 0.54814 0.49665 0.99792 0.0
O2461 O 0.52331 0.49341 0.99539 0.0
O2462 O 0.56138 0.52685 0.99629 0.0
O2463 O 0.55022 0.54254 0.00833 0.0
H2464 H 0.525 0.60871 0.03329 0.0
H2465 H 0.55095 0.58382 0.00255 0.0
H2466 H 0.55144 0.6039 0.98512 0.0
H2467 H 0.52545 0.62888 0.01582 0.0
H2468 H 0.55567 0.46861 0.9994 0.0
H2469 H 0.51223 0.47465 0.01341 0.0
H2470 H 0.51254 0.45472 0.03071 0.0
H2471 H 0.55632 0.44915 0.01723 0.0
Gd2472 Gd 0.80016 0.29772 0.26639 0.0
Gd2473 Gd 0.76967 0.27042 0.26021 0.0
C2474 C 0.80174 0.25854 0.26281 0.0
C2475 C 0.82423 0.31709 0.28177 0.0
C2476 C 0.83998 0.31524 0.28428 0.0
C2477 C 0.85162 0.32477 0.27765 0.0
C2478 C 0.84328 0.3031 0.29238 0.0
C2479 C 0.86944 0.3097 0.28675 0.0
C2480 C 0.85786 0.30037 0.29359 0.0
C2481 C 0.86627 0.32197 0.27881 0.0
C2482 C 0.79335 0.28538 0.23515 0.0
C2483 C 0.768 0.30948 0.26088 0.0
C2484 C 0.74368 0.25049 0.25121 0.0
C2485 C 0.72865 0.25148 0.24455 0.0
C2486 C 0.71584 0.24298 0.25028 0.0
C2487 C 0.72698 0.26187 0.23373 0.0
C2488 C 0.69971 0.2559 0.23514 0.0
C2489 C 0.71256 0.26398 0.22896 0.0
C2490 C 0.70147 0.24521 0.24567 0.0
C2491 C 0.78186 0.28204 0.29032 0.0
O2492 O 0.80869 0.27411 0.26837 0.0
O2493 O 0.78693 0.25448 0.25742 0.0
O2494 O 0.81923 0.31825 0.26731 0.0
O2495 O 0.81424 0.30763 0.2885 0.0
O2496 O 0.80539 0.29677 0.24079 0.0
O2497 O 0.78618 0.28172 0.24641 0.0
O2498 O 0.76081 0.29369 0.25707 0.0
O2499 O 0.78301 0.31384 0.2655 0.0
O2500 O 0.74788 0.25803 0.26579 0.0
O2501 O 0.75458 0.25261 0.24209 0.0
O2502 O 0.77563 0.26681 0.28539 0.0
O2503 O 0.78096 0.28989 0.27928 0.0
H2504 H 0.84931 0.33415 0.27132 0.0
H2505 H 0.83457 0.29539 0.29752 0.0
H2506 H 0.85998 0.29068 0.29958 0.0
H2507 H 0.8751 0.32937 0.27354 0.0
H2508 H 0.71704 0.23507 0.25879 0.0
H2509 H 0.73681 0.26866 0.2293 0.0
H2510 H 0.7115 0.27214 0.22067 0.0
H2511 H 0.69185 0.23905 0.25086 0.0
Gd2512 Gd 0.03856 0.53553 0.52733 0.0
Gd2513 Gd 0.02956 0.53305 0.49243 0.0
C2514 C 0.00422 0.51648 0.51068 0.0
C2515 C 0.03835 0.53797 0.55731 0.0
C2516 C 0.02849 0.52737 0.56613 0.0
C2517 C 0.03203 0.51293 0.56938 0.0
C2518 C 0.01465 0.53082 0.56996 0.0
C2519 C 0.00806 0.50564 0.58014 0.0
C2520 C 0.0045 0.52001 0.57678 0.0
C2521 C 0.02188 0.50215 0.57632 0.0
C2522 C 0.04563 0.51076 0.50933 0.0
C2523 C 0.064 0.55141 0.50877 0.0
C2524 C 0.03051 0.53148 0.46269 0.0
C2525 C 0.04203 0.54161 0.45502 0.0
C2526 C 0.04046 0.55697 0.45234 0.0
C2527 C 0.05558 0.53688 0.45212 0.0
C2528 C 0.06556 0.56244 0.44358 0.0
C2529 C 0.06725 0.54722 0.44658 0.0
C2530 C 0.05214 0.5673 0.44672 0.0
C2531 C 0.02304 0.55813 0.51069 0.0
O2532 O 0.01333 0.52396 0.52367 0.0
O2533 O 0.00855 0.51625 0.49646 0.0
O2534 O 0.04818 0.53156 0.54984 0.0
O2535 O 0.03148 0.54638 0.54885 0.0
O2536 O 0.05402 0.51889 0.52209 0.0
O2537 O 0.0334 0.51528 0.50721 0.0
O2538 O 0.05495 0.54336 0.49596 0.0
O2539 O 0.0593 0.55262 0.52288 0.0
O2540 O 0.02148 0.53905 0.47025 0.0
O2541 O 0.03538 0.52127 0.47057 0.0
O2542 O 0.01432 0.54997 0.49813 0.0
O2543 O 0.03512 0.5533 0.51251 0.0
H2544 H 0.04257 0.50986 0.56646 0.0
H2545 H 0.01158 0.54182 0.56759 0.0
H2546 H 0.99408 0.52322 0.5799 0.0
H2547 H 0.02492 0.49119 0.57887 0.0
H2548 H 0.03024 0.5611 0.45468 0.0
H2549 H 0.05723 0.52521 0.45421 0.0
H2550 H 0.07734 0.54296 0.44406 0.0
H2551 H 0.05054 0.57897 0.44455 0.0
Gd2552 Gd 0.76905 0.78638 0.26048 0.0
Gd2553 Gd 0.80087 0.77966 0.26216 0.0
C2554 C 0.78927 0.79172 0.29465 0.0
C2555 C 0.74013 0.7815 0.2635 0.0
C2556 C 0.72908 0.78572 0.27446 0.0
C2557 C 0.71794 0.79364 0.26951 0.0
C2558 C 0.72832 0.7802 0.28907 0.0
C2559 C 0.70493 0.78944 0.29295 0.0
C2560 C 0.71643 0.78202 0.29816 0.0
C2561 C 0.70608 0.79555 0.27864 0.0
C2562 C 0.78985 0.81587 0.26195 0.0
C2563 C 0.78257 0.78007 0.22816 0.0
C2564 C 0.82818 0.77569 0.25847 0.0
C2565 C 0.84113 0.77754 0.24884 0.0
C2566 C 0.8546 0.77378 0.25472 0.0
C2567 C 0.84021 0.78209 0.23381 0.0
C2568 C 0.86632 0.77918 0.23086 0.0
C2569 C 0.85269 0.78292 0.22492 0.0
C2570 C 0.86696 0.77452 0.24589 0.0
C2571 C 0.77794 0.75381 0.2658 0.0
O2572 O 0.77572 0.78886 0.28647 0.0
O2573 O 0.80162 0.79053 0.2878 0.0
O2574 O 0.747 0.79241 0.25566 0.0
O2575 O 0.74899 0.77246 0.26813 0.0
O2576 O 0.77516 0.81385 0.26143 0.0
O2577 O 0.79274 0.802 0.26198 0.0
O2578 O 0.79593 0.78276 0.23682 0.0
O2579 O 0.76972 0.77886 0.23458 0.0
O2580 O 0.81567 0.76495 0.25244 0.0
O2581 O 0.82558 0.78865 0.26681 0.0
O2582 O 0.79126 0.7584 0.27406 0.0
O2583 O 0.77731 0.76346 0.25594 0.0
H2584 H 0.71811 0.79795 0.25829 0.0
H2585 H 0.73661 0.77393 0.29329 0.0
H2586 H 0.71596 0.77697 0.30896 0.0
H2587 H 0.69768 0.80162 0.27431 0.0
H2588 H 0.85551 0.77001 0.26617 0.0
H2589 H 0.82988 0.78492 0.22894 0.0
H2590 H 0.85169 0.78666 0.21348 0.0
H2591 H 0.87697 0.77112 0.25081 0.0
Gd2592 Gd 0.78905 0.28386 0.74911 0.0
Gd2593 Gd 0.77775 0.29189 0.78072 0.0
C2594 C 0.7916 0.32073 0.76502 0.0
C2595 C 0.79246 0.28138 0.71967 0.0
C2596 C 0.80331 0.2912 0.71118 0.0
C2597 C 0.81038 0.28362 0.6994 0.0
C2598 C 0.80634 0.30819 0.71446 0.0
C2599 C 0.82114 0.30973 0.69228 0.0
C2600 C 0.81508 0.31737 0.70501 0.0
C2601 C 0.81936 0.29283 0.69009 0.0
C2602 C 0.8135 0.28848 0.77183 0.0
C2603 C 0.77377 0.25441 0.76441 0.0
C2604 C 0.76999 0.29365 0.8089 0.0
C2605 C 0.76269 0.28166 0.81794 0.0
C2606 C 0.7524 0.28567 0.8282 0.0
C2607 C 0.76525 0.266 0.81579 0.0
C2608 C 0.74832 0.25892 0.83534 0.0
C2609 C 0.75812 0.25469 0.82446 0.0
C2610 C 0.74522 0.27437 0.83685 0.0
C2611 C 0.75825 0.29246 0.75528 0.0
O2612 O 0.78982 0.3101 0.75197 0.0
O2613 O 0.79077 0.3165 0.77903 0.0
O2614 O 0.79817 0.27278 0.72889 0.0
O2615 O 0.78247 0.28857 0.72596 0.0
O2616 O 0.8139 0.28541 0.75675 0.0
O2617 O 0.80013 0.28963 0.77416 0.0
O2618 O 0.77314 0.26479 0.77714 0.0
O2619 O 0.77848 0.25887 0.7514 0.0
O2620 O 0.76125 0.29544 0.79678 0.0
O2621 O 0.78385 0.29331 0.80583 0.0
O2622 O 0.76116 0.30315 0.76809 0.0
O2623 O 0.76583 0.28179 0.75643 0.0
H2624 H 0.80846 0.27055 0.69699 0.0
H2625 H 0.80134 0.31439 0.72379 0.0
H2626 H 0.81608 0.33033 0.70698 0.0
H2627 H 0.82418 0.28665 0.68058 0.0
H2628 H 0.75007 0.29763 0.82968 0.0
H2629 H 0.77301 0.2626 0.80771 0.0
H2630 H 0.76089 0.24295 0.82322 0.0
H2631 H 0.73762 0.27785 0.84509 0.0
Gd2632 Gd 0.79293 0.80123 0.7685 0.0
Gd2633 Gd 0.77733 0.76817 0.75495 0.0
C2634 C 0.75608 0.7902 0.76602 0.0
C2635 C 0.8016 0.8323 0.7759 0.0
C2636 C 0.79312 0.84495 0.77735 0.0
C2637 C 0.79949 0.85986 0.7871 0.0
C2638 C 0.77832 0.84191 0.76948 0.0
C2639 C 0.77629 0.86866 0.78101 0.0
C2640 C 0.76991 0.85364 0.77139 0.0
C2641 C 0.79114 0.87176 0.78884 0.0
C2642 C 0.79282 0.78103 0.78988 0.0
C2643 C 0.8141 0.77882 0.75826 0.0
C2644 C 0.76902 0.73726 0.74631 0.0
C2645 C 0.7779 0.72494 0.74563 0.0
C2646 C 0.77426 0.71171 0.73322 0.0
C2647 C 0.79086 0.7271 0.75657 0.0
C2648 C 0.79648 0.70278 0.74276 0.0
C2649 C 0.80005 0.71608 0.75518 0.0
C2650 C 0.78349 0.70065 0.7318 0.0
C2651 C 0.77787 0.78872 0.73387 0.0
O2652 O 0.7682 0.80214 0.76689 0.0
O2653 O 0.7568 0.77501 0.76306 0.0
O2654 O 0.79959 0.82278 0.78642 0.0
O2655 O 0.80108 0.82446 0.76156 0.0
O2656 O 0.80434 0.79253 0.78855 0.0
O2657 O 0.78165 0.78077 0.77984 0.0
O2658 O 0.80201 0.76695 0.75788 0.0
O2659 O 0.81323 0.79399 0.76035 0.0
O2660 O 0.77211 0.74724 0.73633 0.0
O2661 O 0.76791 0.74454 0.76048 0.0
O2662 O 0.76601 0.77774 0.73536 0.0
O2663 O 0.78894 0.78847 0.74374 0.0
H2664 H 0.81088 0.8623 0.79331 0.0
H2665 H 0.77329 0.83056 0.7617 0.0
H2666 H 0.75859 0.85113 0.76498 0.0
H2667 H 0.79624 0.88333 0.79627 0.0
H2668 H 0.76443 0.71009 0.72454 0.0
H2669 H 0.79395 0.73734 0.76616 0.0
H2670 H 0.80983 0.71784 0.76397 0.0
H2671 H 0.78057 0.69053 0.72208 0.0
Gd2672 Gd 0.5196 0.52523 0.50243 0.0
Gd2673 Gd 0.54948 0.54219 0.5209 0.0
C2674 C 0.53063 0.56425 0.50499 0.0
C2675 C 0.49071 0.51439 0.49395 0.0
C2676 C 0.47757 0.52159 0.49496 0.0
C2677 C 0.46439 0.51476 0.48437 0.0
C2678 C 0.47877 0.53633 0.50504 0.0
C2679 C 0.45364 0.53751 0.49365 0.0
C2680 C 0.46684 0.54421 0.50443 0.0
C2681 C 0.45249 0.52265 0.4837 0.0
C2682 C 0.54032 0.52402 0.48061 0.0
C2683 C 0.53851 0.50316 0.51828 0.0
C2684 C 0.57835 0.55256 0.52985 0.0
C2685 C 0.59152 0.54521 0.52904 0.0
C2686 C 0.60128 0.54649 0.54292 0.0
C2687 C 0.59354 0.53555 0.51512 0.0
C2688 C 0.6148 0.52822 0.5291 0.0
C2689 C 0.60517 0.52725 0.51511 0.0
C2690 C 0.61278 0.53801 0.54299 0.0
C2691 C 0.52848 0.54389 0.54239 0.0
O2692 O 0.51911 0.55138 0.50195 0.0
O2693 O 0.5441 0.56354 0.51153 0.0
O2694 O 0.50021 0.52052 0.48466 0.0
O2695 O 0.49751 0.51233 0.50728 0.0
O2696 O 0.52593 0.51735 0.47827 0.0
O2697 O 0.54361 0.53062 0.4953 0.0
O2698 O 0.54983 0.51616 0.52189 0.0
O2699 O 0.52523 0.50365 0.51115 0.0
O2700 O 0.5686 0.54651 0.53895 0.0
O2701 O 0.5718 0.55508 0.51658 0.0
O2702 O 0.54278 0.55093 0.54481 0.0
O2703 O 0.52547 0.53716 0.52777 0.0
H2704 H 0.46348 0.50355 0.4763 0.0
H2705 H 0.48903 0.54189 0.51311 0.0
H2706 H 0.46797 0.55553 0.51239 0.0
H2707 H 0.44255 0.51732 0.47512 0.0
H2708 H 0.59971 0.55367 0.55385 0.0
H2709 H 0.58598 0.53416 0.50434 0.0
H2710 H 0.60657 0.52004 0.50413 0.0
H2711 H 0.61982 0.53883 0.55402 0.0
Gd2712 Gd 0.05212 0.53583 0.0116 0.0
Gd2713 Gd 0.01688 0.53345 0.01015 0.0
C2714 C 0.02765 0.50065 0.00601 0.0
C2715 C 0.07979 0.53235 0.01717 0.0
C2716 C 0.08941 0.52027 0.01567 0.0
C2717 C 0.09193 0.51253 1.00084 0.0
C2718 C 0.09747 0.51765 0.02934 0.0
C2719 C 0.11109 0.5007 0.01345 0.0
C2720 C 0.10811 0.50799 0.02826 0.0
C2721 C 0.10263 0.50286 0.99975 0.0
C2722 C 0.03731 0.53588 0.98335 0.0
C2723 C 0.0414 0.56893 0.01595 0.0
C2724 C 0.98933 0.53717 0.00482 0.0
C2725 C 0.98014 0.54946 0.00828 0.0
C2726 C 0.97146 0.54938 0.02114 0.0
C2727 C 0.9788 0.5604 0.99789 0.0
C2728 C 0.95942 0.5698 0.01223 0.0
C2729 C 0.96849 0.57038 0.99978 0.0
C2730 C 0.96129 0.55955 0.02316 0.0
C2731 C 0.03158 0.53364 0.03842 0.0
O2732 O 0.04148 0.50939 0.01186 0.0
O2733 O 0.01645 0.50735 1.00163 0.0
O2734 O 0.07453 0.53662 0.00421 0.0
O2735 O 0.07011 0.53146 0.0277 0.0
O2736 O 0.05126 0.54394 0.98786 0.0
O2737 O 0.03242 0.52745 0.99335 0.0
O2738 O 0.02735 0.56012 0.01112 0.0
O2739 O 0.05298 0.56225 0.01906 0.0
O2740 O 0.99389 0.5306 0.0166 0.0
O2741 O 0.99954 0.53979 0.99496 0.0
O2742 O 0.01766 0.52551 0.03393 0.0
O2743 O 0.03652 0.54196 0.02836 0.0
H2744 H 0.08598 0.5143 0.99002 0.0
H2745 H 0.09585 0.52347 0.04092 0.0
H2746 H 0.11417 0.5064 0.03909 0.0
H2747 H 0.10467 0.49756 0.98814 0.0
H2748 H 0.97215 0.5411 0.02938 0.0
H2749 H 0.98541 0.5609 0.98799 0.0
H2750 H 0.96734 0.57833 0.99131 0.0
H2751 H 0.95441 0.5589 0.03286 0.0
H2752 H 0.01545 0.20568 0.97308 0.0
H2753 H 0.0187 0.18253 0.9854 0.0
H2754 H 0.0131 0.15301 0.93921 0.0
H2755 H 0.00943 0.17598 0.92689 0.0
H2756 H 0.99793 0.13642 0.95772 0.0
H2757 H 0.04952 0.17089 0.96441 0.0
H2758 H 0.06895 0.19624 0.97426 0.0
H2759 H 0.05945 0.19306 0.02191 0.0
H2760 H 0.03985 0.1678 0.01232 0.0
H2761 H 0.02315 0.06865 0.97445 0.0
H2762 H 0.02093 0.09361 0.96503 0.0
H2763 H 0.03115 0.11957 0.01307 0.0
H2764 H 0.03479 0.09472 0.02225 0.0
H2765 H 0.04284 0.13889 0.99597 0.0
H2766 H 0.99366 0.10395 0.99094 0.0
H2767 H 0.97483 0.07809 0.98249 0.0
H2768 H 0.97735 0.0829 0.9338 0.0
H2769 H 0.99708 0.1083 0.94189 0.0
C2770 C 0.01496 0.19426 0.96554 0.0
C2771 C 0.01217 0.19273 0.94896 0.0
C2772 C 0.0169 0.18101 0.97262 0.0
C2773 C 0.01645 0.16597 0.96329 0.0
C2774 C 0.01353 0.16442 0.94674 0.0
C2775 C 0.01138 0.17759 0.93968 0.0
C2776 C 0.01869 0.15171 0.97057 0.0
C2777 C 0.00786 0.13693 0.96592 0.0
C2778 C 0.03126 0.15243 0.98191 0.0
C2779 C 0.04313 0.16755 0.98762 0.0
C2780 C 0.05152 0.17565 0.97697 0.0
C2781 C 0.06257 0.19 0.98252 0.0
C2782 C 0.0654 0.19628 0.9987 0.0
C2783 C 0.05723 0.1882 0.00938 0.0
C2784 C 0.04617 0.17386 0.0039 0.0
C2785 C 0.02492 0.07971 0.98297 0.0
C2786 C 0.02885 0.07975 0.99909 0.0
C2787 C 0.02357 0.094 0.97761 0.0
C2788 C 0.02528 0.10852 0.98834 0.0
C2789 C 0.02959 0.1086 0.00448 0.0
C2790 C 0.03156 0.09438 0.00977 0.0
C2791 C 0.02231 0.12342 0.9827 0.0
C2792 C 0.03289 0.13833 0.98776 0.0
C2793 C 0.00934 0.12291 0.97196 0.0
C2794 C 0.99695 0.10802 0.96705 0.0
C2795 C 0.99026 0.09949 0.97842 0.0
C2796 C 0.97943 0.08488 0.97369 0.0
C2797 C 0.97472 0.07892 0.95763 0.0
C2798 C 0.98097 0.08753 0.94624 0.0
C2799 C 0.99208 0.10199 0.95089 0.0
H2800 H 0.96628 0.06762 0.95402 0.0
H2801 H 0.07395 0.20739 0.00296 0.0
H2802 H 0.12727 0.77789 0.17534 0.0
H2803 H 0.15027 0.77471 0.19034 0.0
H2804 H 0.1765 0.81707 0.17568 0.0
H2805 H 0.15346 0.82027 0.16045 0.0
H2806 H 0.19191 0.79182 0.17423 0.0
H2807 H 0.167 0.82007 0.21225 0.0
H2808 H 0.14542 0.82481 0.22649 0.0
H2809 H 0.14173 0.77943 0.24291 0.0
H2810 H 0.16316 0.77431 0.22857 0.0
H2811 H 0.25713 0.79652 0.23068 0.0
H2812 H 0.23631 0.80108 0.2131 0.0
H2813 H 0.20385 0.76818 0.23409 0.0
H2814 H 0.22457 0.76482 0.25246 0.0
H2815 H 0.1923 0.7909 0.23172 0.0
H2816 H 0.2164 0.7616 0.1927 0.0
H2817 H 0.23773 0.75657 0.17816 0.0
H2818 H 0.24282 0.80282 0.16327 0.0
H2819 H 0.22163 0.8082 0.17787 0.0
C2820 C 0.13792 0.7865 0.17516 0.0
C2821 C 0.13838 0.79937 0.16662 0.0
C2822 C 0.15111 0.78471 0.18386 0.0
C2823 C 0.16522 0.79568 0.18429 0.0
C2824 C 0.16581 0.80842 0.1756 0.0
C2825 C 0.15256 0.81032 0.16699 0.0
C2826 C 0.17916 0.79398 0.19412 0.0
C2827 C 0.19207 0.79177 0.18684 0.0
C2828 C 0.17943 0.79368 0.21055 0.0
C2829 C 0.16659 0.79675 0.21923 0.0
C2830 C 0.16151 0.81105 0.2188 0.0
C2831 C 0.14932 0.81381 0.2269 0.0
C2832 C 0.14219 0.80241 0.23557 0.0
C2833 C 0.14726 0.78824 0.23618 0.0
C2834 C 0.15943 0.78541 0.22808 0.0
C2835 C 0.24555 0.79004 0.23128 0.0
C2836 C 0.2425 0.78014 0.24282 0.0
C2837 C 0.23357 0.7926 0.22115 0.0
C2838 C 0.21824 0.78484 0.2219 0.0
C2839 C 0.2154 0.77448 0.23314 0.0
C2840 C 0.2273 0.77239 0.24359 0.0
C2841 C 0.20506 0.78806 0.21183 0.0
C2842 C 0.19224 0.79076 0.21909 0.0
C2843 C 0.20488 0.78865 0.19537 0.0
C2844 C 0.21753 0.78536 0.1865 0.0
C2845 C 0.22212 0.77073 0.18639 0.0
C2846 C 0.23418 0.76781 0.17813 0.0
C2847 C 0.24165 0.77938 0.16983 0.0
C2848 C 0.23704 0.79388 0.16972 0.0
C2849 C 0.225 0.79686 0.17797 0.0
H2850 H 0.25099 0.77711 0.16345 0.0
H2851 H 0.13275 0.80457 0.24184 0.0
H2852 H 0.49776 0.84304 0.46514 0.0
H2853 H 0.4986 0.87099 0.47676 0.0
H2854 H 0.54644 0.88457 0.47149 0.0
H2855 H 0.5458 0.8565 0.46026 0.0
H2856 H 0.5402 0.89992 0.4994 0.0
H2857 H 0.52062 0.89079 0.44444 0.0
H2858 H 0.50335 0.8765 0.42048 0.0
H2859 H 0.46494 0.88666 0.44269 0.0
H2860 H 0.48198 0.9008 0.4669 0.0
H2861 H 0.55154 0.98343 0.50055 0.0
H2862 H 0.54918 0.9545 0.49367 0.0
H2863 H 0.50066 0.94592 0.49584 0.0
H2864 H 0.50287 0.97524 0.50203 0.0
H2865 H 0.50601 0.92739 0.47123 0.0
H2866 H 0.52721 0.93896 0.52611 0.0
H2867 H 0.54565 0.9537 0.54911 0.0
H2868 H 0.58219 0.93968 0.52611 0.0
H2869 H 0.56402 0.92501 0.50292 0.0
C2870 C 0.50855 0.85188 0.46676 0.0
C2871 C 0.5217 0.84754 0.46168 0.0
C2872 C 0.50897 0.86789 0.47328 0.0
C2873 C 0.52253 0.8799 0.47478 0.0
C2874 C 0.53584 0.8755 0.47038 0.0
C2875 C 0.53542 0.85948 0.46385 0.0
C2876 C 0.52263 0.89719 0.48007 0.0
C2877 C 0.53279 0.90597 0.49322 0.0
C2878 C 0.5128 0.905 0.47213 0.0
C2879 C 0.50255 0.89669 0.45754 0.0
C2880 C 0.50847 0.88987 0.44426 0.0
C2881 C 0.49873 0.88181 0.43063 0.0
C2882 C 0.48305 0.88064 0.43008 0.0
C2883 C 0.47709 0.88756 0.44315 0.0
C2884 C 0.48678 0.8956 0.45683 0.0
C2885 C 0.54034 0.97543 0.49969 0.0
C2886 C 0.52739 0.98163 0.502 0.0
C2887 C 0.53903 0.95883 0.49583 0.0
C2888 C 0.52481 0.94794 0.49466 0.0
C2889 C 0.51179 0.95407 0.49682 0.0
C2890 C 0.51305 0.9708 0.50039 0.0
C2891 C 0.52358 0.93022 0.49063 0.0
C2892 C 0.51325 0.92133 0.47764 0.0
C2893 C 0.53336 0.92236 0.49866 0.0
C2894 C 0.54424 0.9309 0.51276 0.0
C2895 C 0.53918 0.93905 0.52595 0.0
C2896 C 0.54959 0.9474 0.53901 0.0
C2897 C 0.56507 0.94759 0.53906 0.0
C2898 C 0.57019 0.93947 0.52606 0.0
C2899 C 0.55984 0.93111 0.51297 0.0
H2900 H 0.5731 0.95397 0.54918 0.0
H2901 H 0.47553 0.87439 0.41952 0.0
H2902 H 0.49879 0.29408 0.68326 0.0
H2903 H 0.47483 0.28983 0.69487 0.0
H2904 H 0.44978 0.28269 0.64849 0.0
H2905 H 0.47376 0.2871 0.63681 0.0
H2906 H 0.43719 0.30017 0.6676 0.0
H2907 H 0.45111 0.25056 0.6692 0.0
H2908 H 0.4674 0.23191 0.67444 0.0
H2909 H 0.47154 0.24967 0.72432 0.0
H2910 H 0.45543 0.26862 0.71936 0.0
H2911 H 0.3663 0.27254 0.69825 0.0
H2912 H 0.38828 0.27313 0.6834 0.0
H2913 H 0.41849 0.28674 0.7271 0.0
H2914 H 0.39671 0.28644 0.742 0.0
H2915 H 0.42691 0.26369 0.70705 0.0
H2916 H 0.41249 0.31463 0.70285 0.0
H2917 H 0.39441 0.33078 0.69538 0.0
H2918 H 0.38905 0.30664 0.64715 0.0
H2919 H 0.40695 0.29022 0.65438 0.0
C2920 C 0.4882 0.29145 0.67547 0.0
C2921 C 0.4883 0.29092 0.65905 0.0
C2922 C 0.47443 0.28899 0.68215 0.0
C2923 C 0.46034 0.28568 0.67259 0.0
C2924 C 0.46041 0.28523 0.65619 0.0
C2925 C 0.47419 0.2878 0.64951 0.0
C2926 C 0.44563 0.28307 0.67978 0.0
C2927 C 0.43489 0.29199 0.67605 0.0
C2928 C 0.44242 0.2724 0.69081 0.0
C2929 C 0.45219 0.26113 0.69389 0.0
C2930 C 0.4556 0.2506 0.68128 0.0
C2931 C 0.46478 0.23995 0.6842 0.0
C2932 C 0.47053 0.23964 0.6997 0.0
C2933 C 0.46709 0.24995 0.71232 0.0
C2934 C 0.45793 0.26064 0.70946 0.0
C2935 C 0.37761 0.27578 0.70474 0.0
C2936 C 0.37961 0.27945 0.72142 0.0
C2937 C 0.39021 0.27607 0.69619 0.0
C2938 C 0.40514 0.28014 0.70408 0.0
C2939 C 0.40714 0.28352 0.7207 0.0
C2940 C 0.39459 0.28326 0.72924 0.0
C2941 C 0.41875 0.28109 0.69518 0.0
C2942 C 0.42925 0.27181 0.69856 0.0
C2943 C 0.42153 0.29109 0.68352 0.0
C2944 C 0.41094 0.30111 0.67918 0.0
C2945 C 0.40738 0.31272 0.69067 0.0
C2946 C 0.39718 0.32192 0.68648 0.0
C2947 C 0.39056 0.31971 0.67081 0.0
C2948 C 0.39417 0.30833 0.65928 0.0
C2949 C 0.40435 0.29908 0.66342 0.0
H2950 H 0.38266 0.32684 0.66759 0.0
H2951 H 0.47763 0.23138 0.70195 0.0
H2952 H 0.99686 0.84652 0.61337 0.0
H2953 H 0.00351 0.87068 0.60115 0.0
H2954 H 0.03474 0.84927 0.57473 0.0
H2955 H 0.02829 0.82519 0.58712 0.0
H2956 H 0.04705 0.88048 0.58644 0.0
H2957 H 0.99931 0.84943 0.55741 0.0
H2958 H 0.97236 0.83459 0.55435 0.0
H2959 H 0.95987 0.87758 0.57566 0.0
H2960 H 0.98678 0.89262 0.57903 0.0
H2961 H 0.04953 0.92599 0.52278 0.0
H2962 H 0.0476 0.90585 0.54033 0.0
H2963 H 0.01987 0.93082 0.56852 0.0
H2964 H 0.02199 0.95117 0.55126 0.0
H2965 H 0.00624 0.89879 0.55714 0.0
H2966 H 0.05382 0.9302 0.58517 0.0
H2967 H 0.0808 0.94496 0.58861 0.0
H2968 H 0.09359 0.90155 0.56898 0.0
H2969 H 0.06665 0.88656 0.56526 0.0
C2970 C 0.00506 0.84696 0.60487 0.0
C2971 C 0.01199 0.834 0.60106 0.0
C2972 C 0.00888 0.86074 0.59795 0.0
C2973 C 0.01947 0.86164 0.58691 0.0
C2974 C 0.02655 0.84879 0.58324 0.0
C2975 C 0.02285 0.83507 0.59028 0.0
C2976 C 0.02294 0.87584 0.57893 0.0
C2977 C 0.03817 0.88441 0.57987 0.0
C2978 C 0.01127 0.88112 0.57071 0.0
C2979 C 0.99507 0.8721 0.5686 0.0
C2980 C 0.99083 0.85568 0.56154 0.0
C2981 C 0.97556 0.84724 0.55974 0.0
C2982 C 0.96442 0.85513 0.56484 0.0
C2983 C 0.96851 0.87148 0.57173 0.0
C2984 C 0.98377 0.87997 0.57357 0.0
C2985 C 0.04333 0.9274 0.53294 0.0
C2986 C 0.03571 0.93999 0.53552 0.0
C2987 C 0.04226 0.91591 0.54295 0.0
C2988 C 0.03359 0.91691 0.55567 0.0
C2989 C 0.02657 0.92987 0.55871 0.0
C2990 C 0.02768 0.94137 0.54877 0.0
C2991 C 0.03035 0.90345 0.56463 0.0
C2992 C 0.01513 0.89495 0.56379 0.0
C2993 C 0.04202 0.89825 0.57287 0.0
C2994 C 0.0582 0.9073 0.57479 0.0
C2995 C 0.06236 0.92384 0.58142 0.0
C2996 C 0.07766 0.93224 0.58348 0.0
C2997 C 0.0889 0.92421 0.57898 0.0
C2998 C 0.08487 0.90776 0.57244 0.0
C2999 C 0.06959 0.8993 0.57038 0.0
H3000 H 0.10073 0.93073 0.5806 0.0
H3001 H 0.9526 0.84857 0.56344 0.0
H3002 H 0.50709 0.78398 0.79839 0.0
H3003 H 0.48131 0.78248 0.7857 0.0
H3004 H 0.46774 0.79741 0.83149 0.0
H3005 H 0.49302 0.79809 0.84406 0.0
H3006 H 0.44617 0.77515 0.81598 0.0
H3007 H 0.47879 0.82384 0.80395 0.0
H3008 H 0.50011 0.83933 0.79235 0.0
H3009 H 0.48175 0.81216 0.7462 0.0
H3010 H 0.46041 0.79638 0.75759 0.0
H3011 H 0.39468 0.82434 0.8089 0.0
H3012 H 0.41859 0.81573 0.81163 0.0
H3013 H 0.40655 0.78557 0.76564 0.0
H3014 H 0.38215 0.79341 0.76306 0.0
H3015 H 0.439 0.80882 0.77506 0.0
H3016 H 0.40235 0.76511 0.78981 0.0
H3017 H 0.38076 0.75464 0.80398 0.0
H3018 H 0.40729 0.77734 0.84847 0.0
H3019 H 0.42893 0.78828 0.83454 0.0
C3020 C 0.49847 0.78677 0.80562 0.0
C3021 C 0.50184 0.79102 0.82212 0.0
C3022 C 0.48383 0.78597 0.79842 0.0
C3023 C 0.47263 0.78989 0.80765 0.0
C3024 C 0.47612 0.79413 0.82414 0.0
C3025 C 0.49055 0.79458 0.83132 0.0
C3026 C 0.45734 0.79023 0.80043 0.0
C3027 C 0.44462 0.78244 0.80696 0.0
C3028 C 0.45525 0.79946 0.78841 0.0
C3029 C 0.46817 0.80877 0.78164 0.0
C3030 C 0.47939 0.82107 0.79135 0.0
C3031 C 0.49146 0.82992 0.78482 0.0
C3032 C 0.49232 0.82669 0.76856 0.0
C3033 C 0.4811 0.81462 0.7588 0.0
C3034 C 0.46903 0.80571 0.76528 0.0
C3035 C 0.39704 0.81581 0.79938 0.0
C3036 C 0.38646 0.80946 0.78582 0.0
C3037 C 0.41072 0.81101 0.80093 0.0
C3038 C 0.41412 0.79998 0.78887 0.0
C3039 C 0.40398 0.79411 0.77502 0.0
C3040 C 0.39015 0.79871 0.77355 0.0
C3041 C 0.42819 0.79439 0.79118 0.0
C3042 C 0.44058 0.80111 0.78368 0.0
C3043 C 0.43008 0.78464 0.80268 0.0
C3044 C 0.41724 0.77759 0.81111 0.0
C3045 C 0.40355 0.76795 0.80261 0.0
C3046 C 0.3913 0.76193 0.81061 0.0
C3047 C 0.39264 0.76534 0.82712 0.0
C3048 C 0.40627 0.77471 0.83568 0.0
C3049 C 0.41853 0.78082 0.82773 0.0
H3050 H 0.38313 0.76076 0.83331 0.0
H3051 H 0.50165 0.83357 0.76351 0.0
H3052 H 0.51543 0.19351 0.08397 0.0
H3053 H 0.51858 0.16823 0.06911 0.0
H3054 H 0.47932 0.14182 0.08713 0.0
H3055 H 0.47626 0.16722 0.10238 0.0
H3056 H 0.50494 0.12882 0.0901 0.0
H3057 H 0.47561 0.14563 0.04973 0.0
H3058 H 0.46872 0.16495 0.03351 0.0
H3059 H 0.51207 0.17077 0.0155 0.0
H3060 H 0.51931 0.15166 0.03179 0.0
H3061 H 0.51207 0.05789 0.03886 0.0
H3062 H 0.50255 0.07948 0.05356 0.0
H3063 H 0.53549 0.11516 0.0361 0.0
H3064 H 0.54453 0.09354 0.02077 0.0
H3065 H 0.50832 0.12101 0.03232 0.0
H3066 H 0.53917 0.10773 0.07509 0.0
H3067 H 0.54688 0.08888 0.09145 0.0
H3068 H 0.50178 0.07729 0.10512 0.0
H3069 H 0.49373 0.09577 0.08864 0.0
C3070 C 0.50745 0.18232 0.08472 0.0
C3071 C 0.49564 0.18222 0.0943 0.0
C3072 C 0.50918 0.16795 0.07616 0.0
C3073 C 0.49907 0.15329 0.07696 0.0
C3074 C 0.48714 0.15311 0.08636 0.0
C3075 C 0.48537 0.16755 0.09493 0.0
C3076 C 0.50161 0.13815 0.06849 0.0
C3077 C 0.50537 0.12688 0.07741 0.0
C3078 C 0.50241 0.13592 0.05203 0.0
C3079 C 0.49802 0.14726 0.04204 0.0
C3080 C 0.48371 0.1511 0.04238 0.0
C3081 C 0.47973 0.162 0.03316 0.0
C3082 C 0.48995 0.16909 0.02349 0.0
C3083 C 0.50416 0.16526 0.02299 0.0
C3084 C 0.50819 0.15437 0.03219 0.0
C3085 C 0.51741 0.07037 0.03837 0.0
C3086 C 0.52897 0.07419 0.02871 0.0
C3087 C 0.51198 0.08266 0.04676 0.0
C3088 C 0.51836 0.09888 0.04591 0.0
C3089 C 0.53036 0.10268 0.03678 0.0
C3090 C 0.53558 0.0904 0.02815 0.0
C3091 C 0.51222 0.11197 0.05401 0.0
C3092 C 0.50769 0.1228 0.04497 0.0
C3093 C 0.51087 0.11387 0.07038 0.0
C3094 C 0.51582 0.10301 0.08054 0.0
C3095 C 0.53089 0.10107 0.08153 0.0
C3096 C 0.53531 0.09043 0.09081 0.0
C3097 C 0.5248 0.0818 0.09927 0.0
C3098 C 0.50988 0.08387 0.09852 0.0
C3099 C 0.50539 0.09444 0.08923 0.0
H3100 H 0.52822 0.07355 0.10644 0.0
H3101 H 0.48686 0.17754 0.01637 0.0
H3102 H 0.15843 0.32006 0.34812 0.0
H3103 H 0.17776 0.31787 0.33019 0.0
H3104 H 0.14239 0.29465 0.29178 0.0
H3105 H 0.12306 0.29633 0.30987 0.0
H3106 H 0.16464 0.2784 0.29433 0.0
H3107 H 0.16256 0.33439 0.29356 0.0
H3108 H 0.16211 0.36102 0.30863 0.0
H3109 H 0.20678 0.36496 0.3323 0.0
H3110 H 0.20744 0.33831 0.31752 0.0
H3111 H 0.22612 0.27477 0.24798 0.0
H3112 H 0.20174 0.27921 0.25613 0.0
H3113 H 0.22624 0.31306 0.29723 0.0
H3114 H 0.25026 0.30971 0.28831 0.0
H3115 H 0.20563 0.3247 0.28738 0.0
H3116 H 0.20711 0.27036 0.29633 0.0
H3117 H 0.20781 0.24167 0.28902 0.0
H3118 H 0.16683 0.23326 0.2569 0.0
H3119 H 0.166 0.26195 0.26392 0.0
C3120 C 0.15485 0.31471 0.3358 0.0
C3121 C 0.13941 0.30834 0.33026 0.0
C3122 C 0.16582 0.31351 0.32558 0.0
C3123 C 0.16141 0.30633 0.30964 0.0
C3124 C 0.14594 0.30028 0.30404 0.0
C3125 C 0.13498 0.30124 0.31431 0.0
C3126 C 0.17306 0.30429 0.29909 0.0
C3127 C 0.17346 0.28851 0.29246 0.0
C3128 C 0.18465 0.31751 0.29707 0.0
C3129 C 0.185 0.33433 0.30449 0.0
C3130 C 0.17233 0.34101 0.30189 0.0
C3131 C 0.17201 0.35606 0.31044 0.0
C3132 C 0.18433 0.36456 0.32155 0.0
C3133 C 0.19721 0.3583 0.32377 0.0
C3134 C 0.19759 0.34325 0.31526 0.0
C3135 C 0.22611 0.28329 0.2586 0.0
C3136 C 0.23984 0.29209 0.26748 0.0
C3137 C 0.21227 0.28573 0.26332 0.0
C3138 C 0.21214 0.29639 0.27736 0.0
C3139 C 0.226 0.30498 0.28623 0.0
C3140 C 0.23972 0.30303 0.28119 0.0
C3141 C 0.19778 0.29864 0.2833 0.0
C3142 C 0.19668 0.31453 0.28886 0.0
C3143 C 0.18589 0.28544 0.28496 0.0
C3144 C 0.18664 0.26833 0.28044 0.0
C3145 C 0.19835 0.26242 0.28758 0.0
C3146 C 0.19875 0.24616 0.28352 0.0
C3147 C 0.18741 0.23567 0.27245 0.0
C3148 C 0.17564 0.24141 0.26543 0.0
C3149 C 0.1752 0.25767 0.26944 0.0
H3150 H 0.18772 0.22307 0.26935 0.0
H3151 H 0.18387 0.37599 0.32849 0.0
H3152 H 0.97503 0.03976 0.1821 0.0
H3153 H 0.98691 0.03775 0.15748 0.0
H3154 H 0.95782 0.06539 0.13811 0.0
H3155 H 0.94598 0.06758 0.16277 0.0
H3156 H 0.95973 0.04013 0.1151 0.0
H3157 H 0.99677 0.08153 0.1507 0.0
H3158 H 0.01466 0.09335 0.1749 0.0
H3159 H 0.03942 0.05644 0.16481 0.0
H3160 H 0.02155 0.04426 0.14066 0.0
H3161 H 0.99829 0.04906 0.04481 0.0
H3162 H 0.98532 0.05167 0.06877 0.0
H3163 H 0.02175 0.0379 0.09496 0.0
H3164 H 0.03502 0.03656 0.07149 0.0
H3165 H 0.01559 0.05688 0.11482 0.0
H3166 H 0.97884 0.01367 0.08127 0.0
H3167 H 0.96136 1.00031 0.05714 0.0
H3168 H 0.93639 0.0375 0.06355 0.0
H3169 H 0.95383 0.05116 0.08764 0.0
C3170 C 0.97103 0.04544 0.17267 0.0
C3171 C 0.95932 0.05389 0.1749 0.0
C3172 C 0.97802 0.04436 0.15841 0.0
C3173 C 0.97355 0.05145 0.14546 0.0
C3174 C 0.96174 0.05972 0.14759 0.0
C3175 C 0.95495 0.06107 0.16196 0.0
C3176 C 0.98102 0.0502 0.12988 0.0
C3177 C 0.97196 0.04398 0.11513 0.0
C3178 C 0.99707 0.05468 0.12935 0.0
C3179 C 0.00771 0.06187 0.14396 0.0
C3180 C 0.00593 0.07583 0.15372 0.0
C3181 C 0.01609 0.08262 0.16741 0.0
C3182 C 0.02814 0.07562 0.17141 0.0
C3183 C 0.03007 0.06183 0.16171 0.0
C3184 C 0.01993 0.05498 0.14802 0.0
C3185 C 0.00339 0.04627 0.05558 0.0
C3186 C 0.01773 0.04225 0.05581 0.0
C3187 C 0.99587 0.04772 0.06954 0.0
C3188 C 1.00208 0.04475 0.08432 0.0
C3189 C 0.01631 0.04045 0.08424 0.0
C3190 C 0.02394 0.03944 0.07051 0.0
C3191 C 0.99436 0.04645 0.09984 0.0
C3192 C 0.00336 0.05285 0.11465 0.0
C3193 C 0.97829 0.04176 0.10047 0.0
C3194 C 0.96771 0.03351 0.08614 0.0
C3195 C 0.96965 0.01902 0.07748 0.0
C3196 C 0.95976 0.0114 0.06382 0.0
C3197 C 0.9478 0.01808 0.05879 0.0
C3198 C 0.94567 0.03236 0.06745 0.0
C3199 C 0.95554 0.04004 0.08111 0.0
H3200 H 0.94016 0.01217 0.0482 0.0
H3201 H 0.036 0.0809 0.182 0.0
H3202 H 0.26841 0.66952 0.43579 0.0
H3203 H 0.2574 0.67722 0.41191 0.0
H3204 H 0.27448 0.72769 0.43243 0.0
H3205 H 0.28486 0.71995 0.45656 0.0
H3206 H 0.24524 0.72144 0.4229 0.0
H3207 H 0.28943 0.70734 0.40063 0.0
H3208 H 0.30592 0.68883 0.39292 0.0
H3209 H 0.26802 0.65583 0.36341 0.0
H3210 H 0.25125 0.67407 0.3711 0.0
H3211 H 0.25353 0.7697 0.36644 0.0
H3212 H 0.25236 0.75319 0.38677 0.0
H3213 H 0.22927 0.71105 0.35263 0.0
H3214 H 0.23052 0.72776 0.33178 0.0
H3215 H 0.25421 0.70632 0.36721 0.0
H3216 H 0.21182 0.72463 0.3857 0.0
H3217 H 0.1966 0.74461 0.39289 0.0
H3218 H 0.23225 0.77104 0.42939 0.0
H3219 H 0.24775 0.75135 0.42232 0.0
C3220 C 0.27012 0.68224 0.43494 0.0
C3221 C 0.27746 0.69422 0.44781 0.0
C3222 C 0.26383 0.68661 0.42136 0.0
C3223 C 0.26512 0.703 0.42045 0.0
C3224 C 0.27328 0.71496 0.43299 0.0
C3225 C 0.27928 0.71059 0.44666 0.0
C3226 C 0.25699 0.70788 0.40712 0.0
C3227 C 0.24724 0.7182 0.4107 0.0
C3228 C 0.25894 0.70288 0.39118 0.0
C3229 C 0.26905 0.69196 0.38659 0.0
C3230 C 0.28459 0.69607 0.3926 0.0
C3231 C 0.29399 0.68564 0.38822 0.0
C3232 C 0.28801 0.67113 0.37773 0.0
C3233 C 0.27263 0.66705 0.37156 0.0
C3234 C 0.26317 0.67743 0.37592 0.0
C3235 C 0.2475 0.75711 0.36326 0.0
C3236 C 0.24213 0.75006 0.34746 0.0
C3237 C 0.24685 0.74762 0.37499 0.0
C3238 C 0.24057 0.7309 0.37126 0.0
C3239 C 0.23409 0.72396 0.35572 0.0
C3240 C 0.23482 0.7335 0.34387 0.0
C3241 C 0.24325 0.72075 0.38312 0.0
C3242 C 0.25185 0.70924 0.37932 0.0
C3243 C 0.24038 0.72478 0.39892 0.0
C3244 C 0.23092 0.73645 0.4035 0.0
C3245 C 0.21642 0.73471 0.39525 0.0
C3246 C 0.20775 0.746 0.3993 0.0
C3247 C 0.21345 0.75907 0.4116 0.0
C3248 C 0.22782 0.76087 0.4199 0.0
C3249 C 0.23653 0.74962 0.41591 0.0
H3250 H 0.20673 0.76781 0.41469 0.0
H3251 H 0.29531 0.66308 0.37434 0.0
H3252 H 0.626 0.05745 0.66313 0.0
H3253 H 0.60952 0.05802 0.63931 0.0
H3254 H 0.57731 0.01603 0.64773 0.0
H3255 H 0.59313 0.01587 0.67206 0.0
H3256 H 0.59227 0.01661 0.616 0.0
H3257 H 0.56328 0.04234 0.65255 0.0
H3258 H 0.55988 0.06292 0.67429 0.0
H3259 H 0.57686 0.10055 0.64814 0.0
H3260 H 0.5806 0.08018 0.62633 0.0
H3261 H 0.52818 0.01065 0.55834 0.0
H3262 H 0.54399 0.01145 0.58322 0.0
H3263 H 0.57286 0.05675 0.57723 0.0
H3264 H 0.55741 0.05584 0.55226 0.0
H3265 H 0.55965 0.05499 0.60789 0.0
H3266 H 0.59013 0.03153 0.5727 0.0
H3267 H 0.5963 0.01267 0.55117 0.0
H3268 H 0.57857 0.97263 0.57416 0.0
H3269 H 0.57241 0.99134 0.59593 0.0
C3270 C 0.61526 0.04856 0.66012 0.0
C3271 C 0.61093 0.0365 0.66936 0.0
C3272 C 0.60593 0.04889 0.64654 0.0
C3273 C 0.59233 0.03709 0.64202 0.0
C3274 C 0.58784 0.0252 0.65123 0.0
C3275 C 0.59698 0.02503 0.66496 0.0
C3276 C 0.58344 0.03634 0.62691 0.0
C3277 C 0.58492 0.02479 0.61423 0.0
C3278 C 0.57441 0.04748 0.62473 0.0
C3279 C 0.57243 0.05976 0.63793 0.0
C3280 C 0.5665 0.05501 0.65154 0.0
C3281 C 0.56445 0.06664 0.66384 0.0
C3282 C 0.5682 0.08304 0.66262 0.0
C3283 C 0.574 0.08785 0.64908 0.0
C3284 C 0.57608 0.07627 0.63675 0.0
C3285 C 0.53792 0.02072 0.56238 0.0
C3286 C 0.54161 0.03323 0.55362 0.0
C3287 C 0.54692 0.02112 0.57644 0.0
C3288 C 0.55945 0.03416 0.58184 0.0
C3289 C 0.56317 0.04664 0.57309 0.0
C3290 C 0.55437 0.04609 0.55892 0.0
C3291 C 0.56834 0.0351 0.59702 0.0
C3292 C 0.56691 0.04672 0.60969 0.0
C3293 C 0.5776 0.02418 0.59917 0.0
C3294 C 0.58056 0.01278 0.58578 0.0
C3295 C 0.58731 0.01867 0.57302 0.0
C3296 C 0.59085 0.008 0.56078 0.0
C3297 C 0.58761 0.9914 0.56111 0.0
C3298 C 0.58094 0.98546 0.57379 0.0
C3299 C 0.57747 0.9961 0.58612 0.0
H3300 H 0.59041 0.98317 0.55163 0.0
H3301 H 0.56658 0.09202 0.67215 0.0
H3302 H 0.25892 0.32125 0.93986 0.0
H3303 H 0.25926 0.31088 0.91176 0.0
H3304 H 0.30745 0.33236 0.91612 0.0
H3305 H 0.30717 0.34296 0.94397 0.0
H3306 H 0.29137 0.33959 0.89055 0.0
H3307 H 0.29385 0.29156 0.91388 0.0
H3308 H 0.28413 0.27006 0.92904 0.0
H3309 H 0.24276 0.25479 0.89693 0.0
H3310 H 0.25214 0.27636 0.88171 0.0
H3311 H 0.311 0.30587 0.81734 0.0
H3312 H 0.31007 0.31245 0.84597 0.0
H3313 H 0.26248 0.28799 0.83966 0.0
H3314 H 0.26328 0.28146 0.81125 0.0
H3315 H 0.27701 0.28156 0.86596 0.0
H3316 H 0.27008 0.3266 0.84419 0.0
H3317 H 0.27468 0.34825 0.82811 0.0
H3318 H 0.31796 0.36953 0.85595 0.0
H3319 H 0.3137 0.34779 0.87207 0.0
C3320 C 0.26959 0.32373 0.93483 0.0
C3321 C 0.28303 0.33286 0.94422 0.0
C3322 C 0.26979 0.31769 0.9188 0.0
C3323 C 0.28342 0.32074 0.91186 0.0
C3324 C 0.29682 0.3298 0.92123 0.0
C3325 C 0.29666 0.33573 0.9372 0.0
C3326 C 0.28376 0.31516 0.89472 0.0
C3327 C 0.28851 0.32688 0.88526 0.0
C3328 C 0.27922 0.29863 0.88759 0.0
C3329 C 0.27364 0.28568 0.89676 0.0
C3330 C 0.28263 0.28371 0.91013 0.0
C3331 C 0.27719 0.27149 0.91872 0.0
C3332 C 0.26282 0.26109 0.91398 0.0
C3333 C 0.25387 0.26287 0.90061 0.0
C3334 C 0.25925 0.27508 0.892 0.0
C3335 C 0.30041 0.30175 0.8221 0.0
C3336 C 0.2872 0.29329 0.81201 0.0
C3337 C 0.29986 0.30555 0.83843 0.0
C3338 C 0.28616 0.30079 0.84493 0.0
C3339 C 0.27316 0.29176 0.83494 0.0
C3340 C 0.27364 0.28815 0.81866 0.0
C3341 C 0.28512 0.30598 0.86199 0.0
C3342 C 0.28009 0.29425 0.87134 0.0
C3343 C 0.28881 0.32252 0.86894 0.0
C3344 C 0.29166 0.33547 0.8592 0.0
C3345 C 0.28067 0.33579 0.84676 0.0
C3346 C 0.28319 0.34808 0.83766 0.0
C3347 C 0.2966 0.36023 0.84098 0.0
C3348 C 0.30757 0.36008 0.85338 0.0
C3349 C 0.30512 0.34777 0.86251 0.0
H3350 H 0.29839 0.36979 0.83399 0.0
H3351 H 0.25864 0.25164 0.92064 0.0
H3352 H 0.98612 0.05802 0.33247 0.0
H3353 H 0.99831 0.05534 0.35806 0.0
H3354 H 0.95686 0.05726 0.37862 0.0
H3355 H 0.94461 0.06009 0.35306 0.0
H3356 H 0.98008 0.074 0.39978 0.0
H3357 H 0.97211 0.01986 0.36671 0.0
H3358 H 0.97639 1.00207 0.34305 0.0
H3359 H 0.02482 0.01879 0.35543 0.0
H3360 H 0.02082 0.03676 0.37905 0.0
H3361 H 0.99848 0.04966 0.47307 0.0
H3362 H 0.98767 0.05311 0.44719 0.0
H3363 H 0.02471 0.03748 0.42603 0.0
H3364 H 0.03453 0.0324 0.4518 0.0
H3365 H 0.00525 0.02888 0.40454 0.0
H3366 H 0.01756 0.08121 0.43475 0.0
H3367 H 0.01859 0.10287 0.45736 0.0
H3368 H 0.96996 0.096 0.44954 0.0
H3369 H 0.9686 0.07409 0.42703 0.0
C3370 C 0.97941 0.05773 0.3423 0.0
C3371 C 0.9641 0.05921 0.34017 0.0
C3372 C 0.98651 0.05614 0.35717 0.0
C3373 C 0.97863 0.05568 0.37069 0.0
C3374 C 0.96345 0.05748 0.36868 0.0
C3375 C 0.95637 0.05917 0.35384 0.0
C3376 C 0.98598 0.05331 0.38676 0.0
C3377 C 0.98537 0.06395 0.40077 0.0
C3378 C 0.99388 0.04089 0.38849 0.0
C3379 C 0.99616 0.02968 0.37458 0.0
C3380 C 0.98366 0.01972 0.36436 0.0
C3381 C 0.98604 0.00963 0.35096 0.0
C3382 C 1.00087 0.00932 0.34773 0.0
C3383 C 0.01335 0.01904 0.35794 0.0
C3384 C 0.01103 0.02915 0.37134 0.0
C3385 C 0.00434 0.04691 0.4629 0.0
C3386 C 0.01751 0.04079 0.46479 0.0
C3387 C 0.99822 0.04915 0.44789 0.0
C3388 C 0.00542 0.04625 0.43409 0.0
C3389 C 0.01861 0.03999 0.43605 0.0
C3390 C 0.02438 0.03711 0.45099 0.0
C3391 C 0.99914 0.0494 0.41782 0.0
C3392 C 0.99997 0.03895 0.40373 0.0
C3393 C 0.99223 0.06258 0.41592 0.0
C3394 C 0.99296 0.07589 0.4293 0.0
C3395 C 0.00707 0.08424 0.43792 0.0
C3396 C 0.00772 0.09655 0.45073 0.0
C3397 C 0.99435 0.10077 0.45492 0.0
C3398 C 0.98031 0.09271 0.44629 0.0
C3399 C 0.97959 0.08034 0.4335 0.0
H3400 H 0.99488 0.11034 0.46482 0.0
H3401 H 1.00268 1.00153 0.33733 0.0
H3402 H 0.258 0.68476 0.60414 0.0
H3403 H 0.25853 0.70182 0.62968 0.0
H3404 H 0.29116 0.74031 0.61576 0.0
H3405 H 0.29032 0.72364 0.59001 0.0
H3406 H 0.30043 0.73073 0.64427 0.0
H3407 H 0.25751 0.74567 0.61903 0.0
H3408 H 0.23204 0.74083 0.60406 0.0
H3409 H 0.21184 0.71736 0.64047 0.0
H3410 H 0.23724 0.72183 0.65555 0.0
H3411 H 0.3062 0.79276 0.70934 0.0
H3412 H 0.30041 0.77791 0.68213 0.0
H3413 H 0.26846 0.73984 0.69752 0.0
H3414 H 0.27472 0.75434 0.7248 0.0
H3415 H 0.25788 0.74915 0.66834 0.0
H3416 H 0.29997 0.73255 0.69282 0.0
H3417 H 0.32513 0.73657 0.70819 0.0
H3418 H 0.34646 0.76179 0.6734 0.0
H3419 H 0.32136 0.75815 0.65794 0.0
C3420 C 0.26501 0.69699 0.60635 0.0
C3421 C 0.27428 0.70278 0.59513 0.0
C3422 C 0.26531 0.70669 0.62095 0.0
C3423 C 0.27492 0.72225 0.62452 0.0
C3424 C 0.28374 0.72827 0.61317 0.0
C3425 C 0.28334 0.71868 0.59855 0.0
C3426 C 0.27683 0.73171 0.64058 0.0
C3427 C 0.29119 0.73498 0.64945 0.0
C3428 C 0.26459 0.7367 0.64741 0.0
C3429 C 0.24931 0.73392 0.63834 0.0
C3430 C 0.24766 0.73932 0.62377 0.0
C3431 C 0.23323 0.73668 0.61528 0.0
C3432 C 0.22033 0.72875 0.62129 0.0
C3433 C 0.22184 0.72347 0.63582 0.0
C3434 C 0.23626 0.72607 0.64435 0.0
C3435 C 0.29786 0.78129 0.70687 0.0
C3436 C 0.29061 0.7748 0.71904 0.0
C3437 C 0.29453 0.77288 0.69138 0.0
C3438 C 0.28393 0.75789 0.68791 0.0
C3439 C 0.27648 0.75153 0.7 0.0
C3440 C 0.27994 0.75986 0.71551 0.0
C3441 C 0.28153 0.74834 0.67186 0.0
C3442 C 0.2671 0.74494 0.66308 0.0
C3443 C 0.29365 0.74305 0.6651 0.0
C3444 C 0.30877 0.74524 0.67432 0.0
C3445 C 0.31001 0.73909 0.68852 0.0
C3446 C 0.32426 0.74127 0.69724 0.0
C3447 C 0.33738 0.74947 0.6918 0.0
C3448 C 0.33628 0.75547 0.67761 0.0
C3449 C 0.32204 0.75335 0.66886 0.0
H3450 H 0.34841 0.75114 0.69856 0.0
H3451 H 0.20917 0.72673 0.6147 0.0
H3452 H 0.61021 0.06424 0.80842 0.0
H3453 H 0.60552 0.07578 0.83476 0.0
H3454 H 0.60169 0.02922 0.84934 0.0
H3455 H 0.60601 0.01752 0.82291 0.0
H3456 H 0.57911 0.04278 0.85767 0.0
H3457 H 0.63331 0.05812 0.86058 0.0
H3458 H 0.6582 0.07046 0.85277 0.0
H3459 H 0.64793 0.11729 0.86079 0.0
H3460 H 0.62284 0.10518 0.86839 0.0
H3461 H 0.5882 0.05392 0.93556 0.0
H3462 H 0.60316 0.05886 0.91417 0.0
H3463 H 0.57769 0.09302 0.90168 0.0
H3464 H 0.56298 0.08896 0.92391 0.0
H3465 H 0.61554 0.08901 0.89238 0.0
H3466 H 0.55663 0.06723 0.88257 0.0
H3467 H 0.53421 0.05267 0.8934 0.0
H3468 H 0.55738 0.01535 0.90116 0.0
H3469 H 0.57994 0.02979 0.89045 0.0
C3470 C 0.60803 0.05641 0.81717 0.0
C3471 C 0.60827 0.03996 0.81367 0.0
C3472 C 0.60563 0.06307 0.83223 0.0
C3473 C 0.60348 0.05337 0.84394 0.0
C3474 C 0.60341 0.03687 0.84039 0.0
C3475 C 0.60583 0.03021 0.82535 0.0
C3476 C 0.60063 0.06017 0.85977 0.0
C3477 C 0.58705 0.05298 0.86513 0.0
C3478 C 0.61107 0.07341 0.86954 0.0
C3479 C 0.62609 0.0807 0.86483 0.0
C3480 C 0.63627 0.07102 0.86049 0.0
C3481 C 0.65044 0.07798 0.85614 0.0
C3482 C 0.65462 0.09464 0.85622 0.0
C3483 C 0.64466 0.10438 0.86069 0.0
C3484 C 0.63046 0.09747 0.86502 0.0
C3485 C 0.58628 0.0633 0.92904 0.0
C3486 C 0.57395 0.07066 0.93116 0.0
C3487 C 0.59503 0.06618 0.91681 0.0
C3488 C 0.59131 0.07608 0.90632 0.0
C3489 C 0.58066 0.08533 0.90976 0.0
C3490 C 0.57202 0.08268 0.92223 0.0
C3491 C 0.59394 0.07182 0.88985 0.0
C3492 C 0.60748 0.07923 0.88454 0.0
C3493 C 0.58366 0.05857 0.88008 0.0
C3494 C 0.56989 0.04956 0.88578 0.0
C3495 C 0.55687 0.05589 0.88654 0.0
C3496 C 0.54417 0.04768 0.89267 0.0
C3497 C 0.54438 0.03311 0.89799 0.0
C3498 C 0.55724 0.02664 0.89706 0.0
C3499 C 0.56996 0.03481 0.89093 0.0
H3500 H 0.53457 0.02682 0.90283 0.0
H3501 H 0.6656 0.10001 0.85287 0.0
H3502 H 0.26503 0.35242 0.10779 0.0
H3503 H 0.26348 0.34075 0.132 0.0
H3504 H 0.30263 0.3214 0.1229 0.0
H3505 H 0.30399 0.33262 0.09836 0.0
H3506 H 0.28068 0.29958 0.13363 0.0
H3507 H 0.30604 0.3562 0.14957 0.0
H3508 H 0.30816 0.38549 0.15076 0.0
H3509 H 0.26705 0.3819 0.17294 0.0
H3510 H 0.26459 0.35254 0.17169 0.0
H3511 H 0.30154 0.28249 0.20877 0.0
H3512 H 0.30075 0.29305 0.18399 0.0
H3513 H 0.26605 0.31746 0.19882 0.0
H3514 H 0.2674 0.3074 0.22408 0.0
H3515 H 0.28407 0.33624 0.18474 0.0
H3516 H 0.25845 0.28058 0.17016 0.0
H3517 H 0.25479 0.25105 0.16853 0.0
H3518 H 0.29394 0.25202 0.14341 0.0
H3519 H 0.29794 0.28159 0.14506 0.0
C3520 C 0.27321 0.34551 0.11078 0.0
C3521 C 0.2847 0.34359 0.10107 0.0
C3522 C 0.27239 0.33895 0.12475 0.0
C3523 C 0.28307 0.33036 0.12946 0.0
C3524 C 0.2943 0.32804 0.11961 0.0
C3525 C 0.29515 0.33461 0.10563 0.0
C3526 C 0.28279 0.32419 0.14484 0.0
C3527 C 0.2816 0.30761 0.14482 0.0
C3528 C 0.28346 0.33453 0.15945 0.0
C3529 C 0.28507 0.35218 0.16041 0.0
C3530 C 0.29742 0.36165 0.15462 0.0
C3531 C 0.29868 0.37826 0.15531 0.0
C3532 C 0.28773 0.38554 0.16189 0.0
C3533 C 0.27552 0.37624 0.16784 0.0
C3534 C 0.27419 0.35963 0.16715 0.0
C3535 C 0.2938 0.29018 0.20678 0.0
C3536 C 0.28448 0.29404 0.21832 0.0
C3537 C 0.29322 0.2961 0.1925 0.0
C3538 C 0.28302 0.30573 0.18919 0.0
C3539 C 0.27395 0.30996 0.20094 0.0
C3540 C 0.27472 0.30423 0.2154 0.0
C3541 C 0.28208 0.31157 0.17364 0.0
C3542 C 0.28306 0.32811 0.17358 0.0
C3543 C 0.28098 0.30113 0.15894 0.0
C3544 C 0.27857 0.28333 0.15785 0.0
C3545 C 0.26634 0.27451 0.16438 0.0
C3546 C 0.26419 0.25776 0.16343 0.0
C3547 C 0.27415 0.24967 0.1559 0.0
C3548 C 0.28624 0.25831 0.14926 0.0
C3549 C 0.28844 0.27506 0.15017 0.0
H3550 H 0.27247 0.23671 0.1552 0.0
H3551 H 0.28872 0.3984 0.1624 0.0
H3552 H 0.22104 0.96254 0.99113 0.0
H3553 H 0.2 0.97562 0.99496 0.0
H3554 H 0.20129 0.96733 0.0433 0.0
H3555 H 0.22117 0.95276 0.03909 0.0
H3556 H 0.17398 0.96124 0.03196 0.0
H3557 H 0.21573 0.00578 0.03281 0.0
H3558 H 0.23822 0.02258 0.02411 0.0
H3559 H 0.21112 0.02591 0.98186 0.0
H3560 H 0.18851 0.00895 0.9902 0.0
H3561 H 0.12777 0.01877 0.0508 0.0
H3562 H 0.14846 0.00452 0.0501 0.0
H3563 H 0.14421 0.99974 0.99919 0.0
H3564 H 0.1238 0.01424 0.99981 0.0
H3565 H 0.17368 0.01368 0.01451 0.0
H3566 H 0.13151 0.96769 0.0162 0.0
H3567 H 0.11008 0.95289 0.02818 0.0
H3568 H 0.14005 0.95522 0.07029 0.0
H3569 H 0.16161 0.97025 0.05867 0.0
C3570 C 0.21667 0.96322 1.00249 0.0
C3571 C 0.22284 0.95661 0.0148 0.0
C3572 C 0.20484 0.971 0.00476 0.0
C3573 C 0.19932 0.97276 0.01953 0.0
C3574 C 0.20545 0.96619 0.03183 0.0
C3575 C 0.21696 0.95803 0.02944 0.0
C3576 C 0.18672 0.98088 0.02196 0.0
C3577 C 0.17404 0.97285 0.02838 0.0
C3578 C 0.1868 0.996 0.01729 0.0
C3579 C 0.20045 0.00597 0.01208 0.0
C3580 C 0.2146 0.00997 0.0216 0.0
C3581 C 0.22736 0.01955 0.01674 0.0
C3582 C 0.22611 0.02528 1.00243 0.0
C3583 C 0.21208 0.02145 0.99293 0.0
C3584 C 0.19929 0.01186 0.99773 0.0
C3585 C 0.13127 0.01465 0.03948 0.0
C3586 C 0.12434 0.01769 0.02536 0.0
C3587 C 0.14293 0.00641 0.0391 0.0
C3588 C 0.14772 1.00111 0.02459 0.0
C3589 C 0.14057 1.00376 0.01047 0.0
C3590 C 0.12891 0.01195 0.01084 0.0
C3591 C 0.16094 0.99384 0.02409 0.0
C3592 C 0.17375 1.00212 0.01814 0.0
C3593 C 0.16116 0.97923 0.02967 0.0
C3594 C 0.14814 0.97026 0.03663 0.0
C3595 C 0.1335 0.9652 0.02808 0.0
C3596 C 0.12134 0.95673 0.03479 0.0
C3597 C 0.12369 0.95317 0.05001 0.0
C3598 C 0.13823 0.95802 0.05853 0.0
C3599 C 0.15042 0.96651 0.05188 0.0
H3600 H 0.11427 0.94661 0.05518 0.0
H3601 H 0.236 0.03273 0.99871 0.0
H3602 H 0.69558 0.61328 0.97656 0.0
H3603 H 0.66946 0.599 0.97827 0.0
H3604 H 0.66937 0.63026 0.02228 0.0
H3605 H 0.69538 0.64486 0.02053 0.0
H3606 H 0.65621 0.59916 0.02418 0.0
H3607 H 0.65045 0.63528 0.98793 0.0
H3608 H 0.6554 0.64806 0.96445 0.0
H3609 H 0.63901 0.60187 0.93426 0.0
H3610 H 0.63417 0.58877 0.95759 0.0
H3611 H 0.57492 0.57004 0.02402 0.0
H3612 H 0.5999 0.58874 0.02426 0.0
H3613 H 0.6061 0.56118 0.98017 0.0
H3614 H 0.58144 0.54273 0.97994 0.0
H3615 H 0.61565 0.59274 0.97967 0.0
H3616 H 0.62287 0.55631 0.01542 0.0
H3617 H 0.61859 0.54286 0.0386 0.0
H3618 H 0.63259 0.58889 0.06946 0.0
H3619 H 0.63672 0.60265 0.04641 0.0
C3620 C 0.69002 0.61732 0.98654 0.0
C3621 C 0.69781 0.63039 0.99836 0.0
C3622 C 0.67501 0.60904 0.98754 0.0
C3623 C 0.66724 0.61357 1.00035 0.0
C3624 C 0.67502 0.62643 0.01229 0.0
C3625 C 0.69002 0.63476 0.01127 0.0
C3626 C 0.65101 0.60502 1.00118 0.0
C3627 C 0.6473 0.59801 0.01455 0.0
C3628 C 0.63929 0.60319 0.98857 0.0
C3629 C 0.64207 0.61103 0.97451 0.0
C3630 C 0.648 0.62783 0.97629 0.0
C3631 C 0.65077 0.63514 0.96301 0.0
C3632 C 0.64755 0.62578 0.94788 0.0
C3633 C 0.64151 0.6091 0.94599 0.0
C3634 C 0.63874 0.60173 0.95924 0.0
C3635 C 0.58146 0.56827 0.01421 0.0
C3636 C 0.57609 0.555 1.00187 0.0
C3637 C 0.59585 0.57883 0.01444 0.0
C3638 C 0.60507 0.57637 1.00227 0.0
C3639 C 0.59934 0.56347 0.98969 0.0
C3640 C 0.58516 0.55289 0.98957 0.0
C3641 C 0.62085 0.58671 0.00259 0.0
C3642 C 0.6245 0.59404 0.9894 0.0
C3643 C 0.6325 0.58875 0.01534 0.0
C3644 C 0.62988 0.58053 0.02918 0.0
C3645 C 0.62487 0.56358 0.02713 0.0
C3646 C 0.6225 0.5559 0.04025 0.0
C3647 C 0.62525 0.56502 0.05549 0.0
C3648 C 0.63041 0.58184 0.05764 0.0
C3649 C 0.63276 0.58959 0.04456 0.0
H3650 H 0.62344 0.55904 0.06563 0.0
H3651 H 0.64971 0.63145 0.93761 0.0
H3652 H 0.71377 0.4436 0.28428 0.0
H3653 H 0.72595 0.42078 0.28339 0.0
H3654 H 0.6949 0.39538 0.24242 0.0
H3655 H 0.68237 0.41803 0.24346 0.0
H3656 H 0.69902 0.37323 0.2594 0.0
H3657 H 0.73564 0.41454 0.2422 0.0
H3658 H 0.7525 0.44168 0.24418 0.0
H3659 H 0.77638 0.4358 0.2874 0.0
H3660 H 0.75953 0.40868 0.28576 0.0
H3661 H 0.73967 0.30926 0.24424 0.0
H3662 H 0.72651 0.33131 0.24359 0.0
H3663 H 0.76229 0.36283 0.27744 0.0
H3664 H 0.77593 0.34121 0.27699 0.0
H3665 H 0.75518 0.38205 0.26319 0.0
H3666 H 0.71834 0.34123 0.28148 0.0
H3667 H 0.70077 0.31465 0.28053 0.0
H3668 H 0.67677 0.31987 0.23709 0.0
H3669 H 0.69439 0.34626 0.23761 0.0
C3670 C 0.7093 0.43322 0.27504 0.0
C3671 C 0.69679 0.4333 0.26393 0.0
C3672 C 0.71655 0.41997 0.27443 0.0
C3673 C 0.71182 0.40587 0.26266 0.0
C3674 C 0.69918 0.40578 0.25169 0.0
C3675 C 0.69197 0.41909 0.25224 0.0
C3676 C 0.71988 0.39147 0.2618 0.0
C3677 C 0.71132 0.37528 0.26008 0.0
C3678 C 0.73604 0.39345 0.26298 0.0
C3679 C 0.74624 0.40966 0.26393 0.0
C3680 C 0.74443 0.41908 0.25217 0.0
C3681 C 0.75399 0.43445 0.25322 0.0
C3682 C 0.76548 0.44048 0.26593 0.0
C3683 C 0.76746 0.43112 0.27758 0.0
C3684 C 0.75792 0.41574 0.27658 0.0
C3685 C 0.7448 0.32087 0.25158 0.0
C3686 C 0.75911 0.32303 0.26068 0.0
C3687 C 0.73702 0.33372 0.25141 0.0
C3688 C 0.74277 0.34935 0.26082 0.0
C3689 C 0.75711 0.35135 0.2699 0.0
C3690 C 0.76505 0.3387 0.26971 0.0
C3691 C 0.73439 0.36359 0.26113 0.0
C3692 C 0.74289 0.37984 0.26266 0.0
C3693 C 0.71816 0.36164 0.25997 0.0
C3694 C 0.70778 0.34563 0.2595 0.0
C3695 C 0.7094 0.33662 0.27165 0.0
C3696 C 0.69943 0.32158 0.27118 0.0
C3697 C 0.6877 0.31552 0.25873 0.0
C3698 C 0.68591 0.32449 0.24669 0.0
C3699 C 0.69589 0.33948 0.24706 0.0
H3700 H 0.67995 0.30392 0.25845 0.0
H3701 H 0.77286 0.45238 0.26673 0.0
H3702 H 0.87525 0.45714 0.54191 0.0
H3703 H 0.90204 0.47008 0.54418 0.0
H3704 H 0.89094 0.51403 0.53371 0.0
H3705 H 0.86379 0.50153 0.5324 0.0
H3706 H 0.90527 0.49583 0.51042 0.0
H3707 H 0.9137 0.51917 0.5661 0.0
H3708 H 0.91166 0.51838 0.59441 0.0
H3709 H 0.93494 0.47972 0.59231 0.0
H3710 H 0.93737 0.48048 0.56407 0.0
H3711 H 0.9811 0.52704 0.49799 0.0
H3712 H 0.95514 0.52194 0.5049 0.0
H3713 H 0.9655 0.48742 0.53353 0.0
H3714 H 0.992 0.49388 0.52776 0.0
H3715 H 0.95122 0.50413 0.5491 0.0
H3716 H 0.94139 0.47715 0.49527 0.0
H3717 H 0.94215 0.47356 0.46639 0.0
H3718 H 0.91947 0.51223 0.46346 0.0
H3719 H 0.91873 0.51617 0.49235 0.0
C3720 C 0.87832 0.46982 0.54091 0.0
C3721 C 0.86725 0.47817 0.53661 0.0
C3722 C 0.89375 0.4772 0.54222 0.0
C3723 C 0.89836 0.49292 0.53904 0.0
C3724 C 0.88748 0.50185 0.53622 0.0
C3725 C 0.87199 0.49459 0.53524 0.0
C3726 C 0.91387 0.49819 0.53496 0.0
C3727 C 0.91541 0.4981 0.51889 0.0
C3728 C 0.92684 0.50015 0.54595 0.0
C3729 C 0.92565 0.49986 0.56298 0.0
C3730 C 0.91838 0.51051 0.57169 0.0
C3731 C 0.91723 0.51012 0.58774 0.0
C3732 C 0.92324 0.49906 0.59517 0.0
C3733 C 0.93043 0.48839 0.58657 0.0
C3734 C 0.93177 0.48885 0.57057 0.0
C3735 C 0.97764 0.51809 0.50544 0.0
C3736 C 0.98822 0.51057 0.51217 0.0
C3737 C 0.96282 0.51514 0.50937 0.0
C3738 C 0.95823 0.50405 0.51951 0.0
C3739 C 0.96877 0.49603 0.5257 0.0
C3740 C 0.98379 0.49952 0.52228 0.0
C3741 C 0.94274 0.50159 0.52439 0.0
C3742 C 0.94119 0.50212 0.54057 0.0
C3743 C 0.92963 0.49934 0.51337 0.0
C3744 C 0.93015 0.49706 0.496 0.0
C3745 C 0.93668 0.48497 0.48848 0.0
C3746 C 0.93708 0.48286 0.47211 0.0
C3747 C 0.9309 0.49269 0.46311 0.0
C3748 C 0.92427 0.50464 0.47045 0.0
C3749 C 0.92385 0.50681 0.48682 0.0
H3750 H 0.93122 0.49103 0.45043 0.0
H3751 H 0.92228 0.49872 0.60757 0.0
H3752 H 0.38118 0.10082 0.24225 0.0
H3753 H 0.36638 0.1202 0.2365 0.0
H3754 H 0.34844 0.11875 0.28135 0.0
H3755 H 0.36228 0.09833 0.28665 0.0
H3756 H 0.32665 0.11747 0.2585 0.0
H3757 H 0.37785 0.15032 0.27545 0.0
H3758 H 0.40558 0.15718 0.2741 0.0
H3759 H 0.39774 0.16391 0.22588 0.0
H3760 H 0.36994 0.15691 0.22691 0.0
H3761 H 0.30384 0.18971 0.27484 0.0
H3762 H 0.31959 0.16996 0.27495 0.0
H3763 H 0.32322 0.16961 0.22523 0.0
H3764 H 0.30745 0.18957 0.22503 0.0
H3765 H 0.3518 0.17112 0.24663 0.0
H3766 H 0.30052 0.14006 0.23051 0.0
H3767 H 0.27286 0.13321 0.23218 0.0
H3768 H 0.28109 0.12318 0.27916 0.0
H3769 H 0.30884 0.1302 0.27785 0.0
C3770 C 0.37393 0.10444 0.25081 0.0
C3771 C 0.37285 0.09801 0.26489 0.0
C3772 C 0.36564 0.11567 0.24758 0.0
C3773 C 0.35652 0.12102 0.2586 0.0
C3774 C 0.35549 0.11475 0.27273 0.0
C3775 C 0.36355 0.10326 0.27583 0.0
C3776 C 0.34794 0.1331 0.2554 0.0
C3777 C 0.33217 0.12924 0.25602 0.0
C3778 C 0.35513 0.14821 0.25166 0.0
C3779 C 0.37184 0.15301 0.25123 0.0
C3780 C 0.38205 0.15324 0.26456 0.0
C3781 C 0.39777 0.15714 0.26385 0.0
C3782 C 0.40342 0.16095 0.2499 0.0
C3783 C 0.39335 0.16095 0.23667 0.0
C3784 C 0.37761 0.15705 0.23732 0.0
C3785 C 0.30813 0.18555 0.26398 0.0
C3786 C 0.30441 0.191 0.2499 0.0
C3787 C 0.31706 0.17431 0.26406 0.0
C3788 C 0.3224 0.16842 0.25008 0.0
C3789 C 0.31913 0.17414 0.23608 0.0
C3790 C 0.31005 0.18533 0.23596 0.0
C3791 C 0.33068 0.15557 0.25016 0.0
C3792 C 0.34633 0.15926 0.24892 0.0
C3793 C 0.32342 0.1403 0.25337 0.0
C3794 C 0.30674 0.13575 0.25411 0.0
C3795 C 0.29643 0.13649 0.24124 0.0
C3796 C 0.28074 0.13256 0.24211 0.0
C3797 C 0.27522 0.12779 0.25578 0.0
C3798 C 0.28538 0.12688 0.26858 0.0
C3799 C 0.30109 0.1308 0.26777 0.0
H3800 H 0.26307 0.12477 0.25644 0.0
H3801 H 0.41559 0.16393 0.24936 0.0
H3802 H 0.36306 0.15921 0.49385 0.0
H3803 H 0.38527 0.14751 0.49687 0.0
H3804 H 0.35916 0.10988 0.51833 0.0
H3805 H 0.33707 0.12182 0.51574 0.0
H3806 H 0.3864 0.119 0.53356 0.0
H3807 H 0.36746 0.10465 0.47774 0.0
H3808 H 0.35981 0.11034 0.45135 0.0
H3809 H 0.40459 0.13997 0.45114 0.0
H3810 H 0.41244 0.13461 0.47761 0.0
H3811 H 0.43143 0.06054 0.52178 0.0
H3812 H 0.41182 0.07606 0.52236 0.0
H3813 H 0.44075 0.1131 0.5026 0.0
H3814 H 0.46054 0.09774 0.50215 0.0
H3815 H 0.41328 0.10587 0.48721 0.0
H3816 H 0.43308 0.11916 0.54172 0.0
H3817 H 0.44125 0.1146 0.5684 0.0
H3818 H 0.39584 0.08816 0.5716 0.0
H3819 H 0.38744 0.09235 0.54483 0.0
C3820 C 0.36201 0.14838 0.49912 0.0
C3821 C 0.34819 0.1414 0.50443 0.0
C3822 C 0.37475 0.14166 0.50084 0.0
C3823 C 0.37393 0.12756 0.50757 0.0
C3824 C 0.36019 0.12073 0.51308 0.0
C3825 C 0.34752 0.12757 0.51157 0.0
C3826 C 0.38724 0.11979 0.50874 0.0
C3827 C 0.39213 0.11594 0.52335 0.0
C3828 C 0.39518 0.11623 0.49563 0.0
C3829 C 0.39048 0.11935 0.47969 0.0
C3830 C 0.37564 0.11245 0.47209 0.0
C3831 C 0.37127 0.11561 0.45712 0.0
C3832 C 0.3817 0.12555 0.44959 0.0
C3833 C 0.39653 0.1323 0.457 0.0
C3834 C 0.40094 0.1292 0.47197 0.0
C3835 C 0.43381 0.07213 0.51783 0.0
C3836 C 0.44767 0.0778 0.51188 0.0
C3837 C 0.42251 0.08103 0.51816 0.0
C3838 C 0.42475 0.09588 0.51263 0.0
C3839 C 0.43865 0.10168 0.5069 0.0
C3840 C 0.44997 0.0928 0.50658 0.0
C3841 C 0.41232 0.10487 0.51196 0.0
C3842 C 0.40759 0.10895 0.49744 0.0
C3843 C 0.40461 0.1087 0.52518 0.0
C3844 C 0.40967 0.10592 0.54118 0.0
C3845 C 0.42487 0.11222 0.54804 0.0
C3846 C 0.42953 0.10974 0.56319 0.0
C3847 C 0.41908 0.10106 0.57167 0.0
C3848 C 0.40393 0.09485 0.56501 0.0
C3849 C 0.39921 0.09729 0.54985 0.0
H3850 H 0.42271 0.09917 0.58342 0.0
H3851 H 0.37829 0.12798 0.438 0.0
H3852 H 0.69055 0.60361 0.24499 0.0
H3853 H 0.70338 0.63139 0.24383 0.0
H3854 H 0.72946 0.6348 0.28886 0.0
H3855 H 0.71695 0.60685 0.29002 0.0
H3856 H 0.72163 0.6625 0.28877 0.0
H3857 H 0.74459 0.63129 0.25111 0.0
H3858 H 0.74517 0.61113 0.22772 0.0
H3859 H 0.72314 0.6374 0.19795 0.0
H3860 H 0.72224 0.65761 0.22121 0.0
H3861 H 0.77899 0.7336 0.2874 0.0
H3862 H 0.76432 0.70607 0.28697 0.0
H3863 H 0.73891 0.70738 0.24277 0.0
H3864 H 0.75381 0.73527 0.24317 0.0
H3865 H 0.74526 0.67768 0.24156 0.0
H3866 H 0.72287 0.70925 0.27864 0.0
H3867 H 0.72243 0.7298 0.30173 0.0
H3868 H 0.74293 0.70308 0.33228 0.0
H3869 H 0.74372 0.68248 0.30931 0.0
C3870 C 0.69916 0.60996 0.25464 0.0
C3871 C 0.7025 0.60226 0.26758 0.0
C3872 C 0.70659 0.62618 0.25395 0.0
C3873 C 0.71778 0.63565 0.26613 0.0
C3874 C 0.72098 0.62814 0.27917 0.0
C3875 C 0.71362 0.61188 0.27984 0.0
C3876 C 0.72598 0.65322 0.26541 0.0
C3877 C 0.72693 0.66563 0.27846 0.0
C3878 C 0.73271 0.65799 0.25191 0.0
C3879 C 0.7332 0.64586 0.23792 0.0
C3880 C 0.73976 0.63269 0.23959 0.0
C3881 C 0.74016 0.62127 0.22636 0.0
C3882 C 0.73416 0.62295 0.21137 0.0
C3883 C 0.72776 0.63609 0.20958 0.0
C3884 C 0.72731 0.64754 0.22278 0.0
C3885 C 0.77021 0.72819 0.27757 0.0
C3886 C 0.7677 0.73702 0.26538 0.0
C3887 C 0.76169 0.71224 0.27736 0.0
C3888 C 0.75015 0.70422 0.26493 0.0
C3889 C 0.74761 0.71298 0.25261 0.0
C3890 C 0.75613 0.72911 0.25289 0.0
C3891 C 0.741 0.68686 0.26498 0.0
C3892 C 0.7399 0.67452 0.25183 0.0
C3893 C 0.73406 0.68214 0.27836 0.0
C3894 C 0.73347 0.69439 0.29223 0.0
C3895 C 0.72738 0.70781 0.29027 0.0
C3896 C 0.72705 0.71946 0.30334 0.0
C3897 C 0.73268 0.71777 0.31846 0.0
C3898 C 0.73859 0.70439 0.32055 0.0
C3899 C 0.73897 0.6927 0.30751 0.0
H3900 H 0.73242 0.72681 0.32857 0.0
H3901 H 0.73449 0.6141 0.20113 0.0
H3902 H 0.86318 0.44978 0.72255 0.0
H3903 H 0.84923 0.42112 0.71645 0.0
H3904 H 0.85344 0.41868 0.76637 0.0
H3905 H 0.86709 0.44698 0.77238 0.0
H3906 H 0.8563 0.38997 0.74632 0.0
H3907 H 0.82336 0.43188 0.74968 0.0
H3908 H 0.81441 0.45299 0.73748 0.0
H3909 H 0.80265 0.4207 0.69284 0.0
H3910 H 0.81165 0.39949 0.70481 0.0
H3911 H 0.80771 0.34736 0.78572 0.0
H3912 H 0.81897 0.37311 0.7777 0.0
H3913 H 0.79248 0.35698 0.73175 0.0
H3914 H 0.78058 0.33184 0.73998 0.0
H3915 H 0.80113 0.38916 0.73789 0.0
H3916 H 0.82391 0.3445 0.73673 0.0
H3917 H 0.83121 0.32211 0.74804 0.0
H3918 H 0.86226 0.35632 0.78418 0.0
H3919 H 0.8549 0.37892 0.77325 0.0
C3920 C 0.86125 0.4429 0.73207 0.0
C3921 C 0.86574 0.45037 0.7479 0.0
C3922 C 0.85349 0.42665 0.7286 0.0
C3923 C 0.85046 0.41794 0.74098 0.0
C3924 C 0.85586 0.42523 0.75668 0.0
C3925 C 0.8634 0.44138 0.76013 0.0
C3926 C 0.83949 0.40234 0.7385 0.0
C3927 C 0.84423 0.38951 0.7441 0.0
C3928 C 0.8238 0.40159 0.73505 0.0
C3929 C 0.81825 0.41424 0.72805 0.0
C3930 C 0.81888 0.42935 0.73726 0.0
C3931 C 0.81382 0.44131 0.73039 0.0
C3932 C 0.808 0.4382 0.71438 0.0
C3933 C 0.80719 0.42311 0.70522 0.0
C3934 C 0.81227 0.41112 0.71203 0.0
C3935 C 0.80374 0.34973 0.77427 0.0
C3936 C 0.79399 0.33756 0.76313 0.0
C3937 C 0.81015 0.36433 0.76967 0.0
C3938 C 0.80701 0.36636 0.7539 0.0
C3939 C 0.79524 0.35537 0.74382 0.0
C3940 C 0.78864 0.34098 0.7485 0.0
C3941 C 0.81806 0.3776 0.74703 0.0
C3942 C 0.81316 0.38919 0.73945 0.0
C3943 C 0.83358 0.37687 0.74816 0.0
C3944 C 0.83885 0.3634 0.75416 0.0
C3945 C 0.83233 0.34724 0.74706 0.0
C3946 C 0.83644 0.33451 0.75343 0.0
C3947 C 0.8472 0.33779 0.76682 0.0
C3948 C 0.85394 0.3538 0.77379 0.0
C3949 C 0.84983 0.36658 0.76749 0.0
H3950 H 0.85031 0.32792 0.77179 0.0
H3951 H 0.80409 0.44748 0.70908 0.0
H3952 H 0.03163 0.86796 0.06905 0.0
H3953 H 0.02852 0.89101 0.05665 0.0
H3954 H 0.07737 0.90825 0.06085 0.0
H3955 H 0.08057 0.8857 0.07403 0.0
H3956 H 0.0658 0.93245 0.06942 0.0
H3957 H 0.0542 0.89022 0.02436 0.0
H3958 H 0.04125 0.86397 0.00798 0.0
H3959 H 0.99823 0.87725 0.00908 0.0
H3960 H 0.0109 0.90351 0.02566 0.0
H3961 H 0.065 0.99477 0.02432 0.0
H3962 H 0.06874 0.96983 0.03278 0.0
H3963 H 0.02002 0.95181 0.02941 0.0
H3964 H 0.01621 0.97645 0.02027 0.0
H3965 H 0.03201 0.9278 0.0197 0.0
H3966 H 0.04408 0.96961 0.06626 0.0
H3967 H 0.05766 0.99618 0.08166 0.0
H3968 H 0.10058 0.98348 0.07669 0.0
H3969 H 0.08725 0.9569 0.06114 0.0
C3970 C 0.04176 0.87669 0.06748 0.0
C3971 C 0.05638 0.87487 0.0727 0.0
C3972 C 0.03995 0.88981 0.06012 0.0
C3973 C 0.0527 0.9014 0.05757 0.0
C3974 C 0.06731 0.89952 0.0626 0.0
C3975 C 0.06913 0.88646 0.07004 0.0
C3976 C 0.05085 0.91586 0.05039 0.0
C3977 C 0.05858 0.93134 0.0584 0.0
C3978 C 0.04118 0.91464 0.03618 0.0
C3979 C 0.03349 0.89877 0.02641 0.0
C3980 C 0.04196 0.88748 0.02124 0.0
C3981 C 0.03467 0.87261 0.01189 0.0
C3982 C 0.01892 0.86893 0.00753 0.0
C3983 C 0.01043 0.88011 0.01249 0.0
C3984 C 0.01766 0.89499 0.02186 0.0
C3985 C 0.05506 0.98547 0.02528 0.0
C3986 C 0.0403 0.98772 0.02172 0.0
C3987 C 0.05722 0.9712 0.03024 0.0
C3988 C 0.04468 0.95898 0.03218 0.0
C3989 C 0.02992 0.96101 0.02813 0.0
C3990 C 0.02775 0.97517 0.02292 0.0
C3991 C 0.04692 0.94432 0.03877 0.0
C3992 C 0.03925 0.92884 0.03068 0.0
C3993 C 0.05669 0.94549 0.05288 0.0
C3994 C 0.06468 0.96133 0.06247 0.0
C3995 C 0.05641 0.97252 0.06842 0.0
C3996 C 0.06406 0.98757 0.07718 0.0
C3997 C 0.07997 0.99153 0.08014 0.0
C3998 C 0.08826 0.98041 0.07439 0.0
C3999 C 0.08066 0.96534 0.06563 0.0
H4000 H 0.08587 1.0032 0.0869 0.0
H4001 H 0.01331 0.85742 1.00027 0.0
H4002 H 0.93779 0.26218 0.83536 0.0
H4003 H 0.91457 0.2658 0.82106 0.0
H4004 H 0.90016 0.28435 0.86511 0.0
H4005 H 0.92326 0.28054 0.87955 0.0
H4006 H 0.87582 0.26342 0.84454 0.0
H4007 H 0.91566 0.31022 0.84209 0.0
H4008 H 0.94112 0.32385 0.83654 0.0
H4009 H 0.93036 0.30105 0.78779 0.0
H4010 H 0.9049 0.28712 0.7931 0.0
H4011 H 0.81584 0.29215 0.8049 0.0
H4012 H 0.83772 0.2901 0.82297 0.0
H4013 H 0.86226 0.28114 0.78296 0.0
H4014 H 0.84105 0.28393 0.76531 0.0
H4015 H 0.88149 0.29886 0.80382 0.0
H4016 H 0.84316 0.25066 0.80518 0.0
H4017 H 0.81812 0.23487 0.80965 0.0
H4018 H 0.82596 0.25744 0.85852 0.0
H4019 H 0.85096 0.27354 0.85428 0.0
C4020 C 0.92964 0.26685 0.84209 0.0
C4021 C 0.9326 0.27113 0.8587 0.0
C4022 C 0.91634 0.26903 0.83384 0.0
C4023 C 0.90554 0.27551 0.84192 0.0
C4024 C 0.90824 0.27937 0.85852 0.0
C4025 C 0.92159 0.2773 0.86678 0.0
C4026 C 0.89182 0.27882 0.83299 0.0
C4027 C 0.87705 0.27133 0.83577 0.0
C4028 C 0.89326 0.28889 0.8213 0.0
C4029 C 0.90842 0.29756 0.81802 0.0
C4030 C 0.91875 0.30807 0.8302 0.0
C4031 C 0.93318 0.31584 0.8271 0.0
C4032 C 0.93736 0.3133 0.81183 0.0
C4033 C 0.92711 0.30301 0.79961 0.0
C4034 C 0.91267 0.29519 0.80266 0.0
C4035 C 0.82598 0.28991 0.80005 0.0
C4036 C 0.8266 0.28822 0.7836 0.0
C4037 C 0.83849 0.28856 0.81038 0.0
C4038 C 0.85181 0.2852 0.80447 0.0
C4039 C 0.85235 0.28377 0.78805 0.0
C4040 C 0.84006 0.28532 0.77787 0.0
C4041 C 0.86529 0.28314 0.81499 0.0
C4042 C 0.88011 0.29094 0.81258 0.0
C4043 C 0.86385 0.2731 0.82679 0.0
C4044 C 0.84884 0.26345 0.82936 0.0
C4045 C 0.83949 0.25235 0.81685 0.0
C4046 C 0.82531 0.24333 0.81934 0.0
C4047 C 0.82043 0.24519 0.83434 0.0
C4048 C 0.82973 0.25604 0.84689 0.0
C4049 C 0.84391 0.26512 0.84445 0.0
H4050 H 0.80945 0.2382 0.83625 0.0
H4051 H 0.94855 0.31931 0.80945 0.0
H4052 H 0.53225 0.21757 0.54889 0.0
H4053 H 0.52976 0.18937 0.5367 0.0
H4054 H 0.57259 0.18929 0.56267 0.0
H4055 H 0.57501 0.21723 0.57522 0.0
H4056 H 0.5697 0.17442 0.53126 0.0
H4057 H 0.53961 0.17354 0.57552 0.0
H4058 H 0.51921 0.18026 0.59064 0.0
H4059 H 0.48579 0.15748 0.55079 0.0
H4060 H 0.50604 0.15087 0.53534 0.0
H4061 H 0.56652 0.09101 0.53062 0.0
H4062 H 0.56872 0.1202 0.53693 0.0
H4063 H 0.52305 0.11391 0.514 0.0
H4064 H 0.52065 0.0848 0.5079 0.0
H4065 H 0.52625 0.13236 0.54145 0.0
H4066 H 0.55423 0.13141 0.49743 0.0
H4067 H 0.57349 0.12465 0.48065 0.0
H4068 H 0.60929 0.15072 0.51714 0.0
H4069 H 0.59023 0.15741 0.53426 0.0
C4070 C 0.54113 0.21156 0.55207 0.0
C4071 C 0.55382 0.21973 0.56311 0.0
C4072 C 0.53971 0.19546 0.54502 0.0
C4073 C 0.55094 0.18722 0.54887 0.0
C4074 C 0.56382 0.19546 0.55948 0.0
C4075 C 0.56521 0.2115 0.56659 0.0
C4076 C 0.5491 0.16984 0.54237 0.0
C4077 C 0.56028 0.16518 0.53359 0.0
C4078 C 0.53651 0.15787 0.54492 0.0
C4079 C 0.52436 0.1619 0.55421 0.0
C4080 C 0.52793 0.17011 0.56993 0.0
C4081 C 0.51639 0.17387 0.57857 0.0
C4082 C 0.50122 0.16935 0.57166 0.0
C4083 C 0.49755 0.16102 0.55611 0.0
C4084 C 0.50906 0.15727 0.54741 0.0
C4085 C 0.557 0.09586 0.52678 0.0
C4086 C 0.5434 0.08555 0.5188 0.0
C4087 C 0.5583 0.11256 0.53034 0.0
C4088 C 0.54608 0.11927 0.52585 0.0
C4089 C 0.53262 0.10902 0.51761 0.0
C4090 C 0.53129 0.09235 0.51411 0.0
C4091 C 0.54699 0.13684 0.53051 0.0
C4092 C 0.53563 0.14155 0.53896 0.0
C4093 C 0.55926 0.14886 0.52739 0.0
C4094 C 0.57079 0.14478 0.5172 0.0
C4095 C 0.56621 0.13557 0.50195 0.0
C4096 C 0.57709 0.13177 0.49236 0.0
C4097 C 0.5926 0.13721 0.49784 0.0
C4098 C 0.59727 0.14649 0.51292 0.0
C4099 C 0.58643 0.1503 0.52257 0.0
H4100 H 0.60101 0.13428 0.49039 0.0
H4101 H 0.4923 0.17226 0.57838 0.0
H4102 H 0.59663 0.78608 0.38616 0.0
H4103 H 0.62058 0.78924 0.37435 0.0
H4104 H 0.59523 0.77719 0.32773 0.0
H4105 H 0.57134 0.77331 0.33954 0.0
H4106 H 0.61621 0.76241 0.327 0.0
H4107 H 0.61681 0.81806 0.3478 0.0
H4108 H 0.6163 0.84102 0.36852 0.0
H4109 H 0.65634 0.83412 0.39446 0.0
H4110 H 0.65697 0.81098 0.37399 0.0
H4111 H 0.67502 0.78629 0.28102 0.0
H4112 H 0.65288 0.78585 0.29534 0.0
H4113 H 0.68144 0.79248 0.33959 0.0
H4114 H 0.70389 0.7937 0.32536 0.0
H4115 H 0.66003 0.80979 0.34289 0.0
H4116 H 0.65974 0.75484 0.32215 0.0
H4117 H 0.66068 0.73204 0.30146 0.0
H4118 H 0.62011 0.73784 0.2756 0.0
H4119 H 0.61905 0.76083 0.29604 0.0
C4120 C 0.59619 0.78422 0.37339 0.0
C4121 C 0.58203 0.77943 0.36381 0.0
C4122 C 0.60993 0.78613 0.3666 0.0
C4123 C 0.60991 0.78373 0.35004 0.0
C4124 C 0.59573 0.7791 0.34051 0.0
C4125 C 0.58201 0.77688 0.34728 0.0
C4126 C 0.62448 0.78537 0.34251 0.0
C4127 C 0.62564 0.77294 0.33037 0.0
C4128 C 0.63721 0.79877 0.34716 0.0
C4129 C 0.63684 0.81269 0.35944 0.0
C4130 C 0.62544 0.82137 0.35798 0.0
C4131 C 0.62514 0.83442 0.36967 0.0
C4132 C 0.63625 0.83899 0.38282 0.0
C4133 C 0.64772 0.83055 0.38428 0.0
C4134 C 0.64806 0.81747 0.37264 0.0
C4135 C 0.67675 0.78798 0.29381 0.0
C4136 C 0.69141 0.78998 0.30193 0.0
C4137 C 0.66396 0.78752 0.30202 0.0
C4138 C 0.66534 0.78883 0.31859 0.0
C4139 C 0.67998 0.79133 0.32681 0.0
C4140 C 0.69283 0.79186 0.3186 0.0
C4141 C 0.65145 0.78706 0.32717 0.0
C4142 C 0.65051 0.79934 0.33954 0.0
C4143 C 0.63888 0.77356 0.32277 0.0
C4144 C 0.63939 0.75963 0.31056 0.0
C4145 C 0.65107 0.75131 0.312 0.0
C4146 C 0.65162 0.73835 0.30033 0.0
C4147 C 0.64048 0.73352 0.28721 0.0
C4148 C 0.62874 0.74161 0.28576 0.0
C4149 C 0.62815 0.75459 0.2974 0.0
H4150 H 0.64093 0.72348 0.27817 0.0
H4151 H 0.636 0.8491 0.39185 0.0
H4152 H 0.03596 0.24205 0.43105 0.0
H4153 H 0.02921 0.21802 0.44347 0.0
H4154 H 0.06775 0.2016 0.42672 0.0
H4155 H 0.07444 0.2255 0.41405 0.0
H4156 H 0.04027 0.17722 0.42215 0.0
H4157 H 0.07104 0.21923 0.46341 0.0
H4158 H 0.07751 0.24621 0.48022 0.0
H4159 H 0.0341 0.2361 0.498 0.0
H4160 H 0.02729 0.20913 0.48112 0.0
H4161 H 0.05434 0.12302 0.47257 0.0
H4162 H 0.05464 0.14438 0.45665 0.0
H4163 H 0.01804 0.15853 0.47999 0.0
H4164 H 0.01795 0.13744 0.49624 0.0
H4165 H 0.04157 0.18377 0.48057 0.0
H4166 H 0.01085 0.14173 0.44156 0.0
H4167 H 1.00288 0.11497 0.42443 0.0
H4168 H 0.0441 0.12462 0.40259 0.0
H4169 H 0.05228 0.15154 0.4195 0.0
C4170 C 0.04292 0.23325 0.42995 0.0
C4171 C 0.05574 0.2356 0.42168 0.0
C4172 C 0.03909 0.21961 0.43706 0.0
C4173 C 0.04804 0.20817 0.43599 0.0
C4174 C 0.06074 0.21036 0.4276 0.0
C4175 C 0.06462 0.22405 0.42054 0.0
C4176 C 0.04442 0.19412 0.44406 0.0
C4177 C 0.04066 0.17857 0.43493 0.0
C4178 C 0.04445 0.19607 0.46066 0.0
C4179 C 0.0486 0.21224 0.47088 0.0
C4180 C 0.06283 0.22281 0.47081 0.0
C4181 C 0.06656 0.23809 0.48037 0.0
C4182 C 0.05621 0.24288 0.49014 0.0
C4183 C 0.04211 0.23238 0.49041 0.0
C4184 C 0.03831 0.2171 0.48086 0.0
C4185 C 0.04634 0.13067 0.47425 0.0
C4186 C 0.03622 0.12872 0.48569 0.0
C4187 C 0.04639 0.1427 0.46504 0.0
C4188 C 0.03627 0.1529 0.46711 0.0
C4189 C 0.02587 0.15069 0.47821 0.0
C4190 C 0.0258 0.13864 0.48741 0.0
C4191 C 0.03759 0.16676 0.4587 0.0
C4192 C 0.04097 0.18233 0.46777 0.0
C4193 C 0.03703 0.16481 0.44205 0.0
C4194 C 0.03223 0.14861 0.43189 0.0
C4195 C 0.01827 0.13811 0.43318 0.0
C4196 C 0.0137 0.12293 0.42349 0.0
C4197 C 0.02303 0.11804 0.41253 0.0
C4198 C 0.0369 0.1284 0.41112 0.0
C4199 C 0.04148 0.14366 0.4207 0.0
H4200 H 0.01949 0.10625 0.40508 0.0
H4201 H 0.05912 0.25471 0.49753 0.0
H4202 H 0.56138 0.24654 0.20597 0.0
H4203 H 0.58745 0.24866 0.21744 0.0
H4204 H 0.59903 0.29938 0.2138 0.0
H4205 H 0.573 0.29719 0.20188 0.0
H4206 H 0.61764 0.28325 0.19952 0.0
H4207 H 0.60003 0.28825 0.24995 0.0
H4208 H 0.58299 0.28181 0.27018 0.0
H4209 H 0.59256 0.2347 0.26716 0.0
H4210 H 0.60948 0.24076 0.24674 0.0
H4211 H 0.69339 0.28518 0.23274 0.0
H4212 H 0.66826 0.29096 0.22839 0.0
H4213 H 0.64698 0.24048 0.22588 0.0
H4214 H 0.67203 0.23437 0.22952 0.0
H4215 H 0.63471 0.2615 0.24645 0.0
H4216 H 0.64856 0.25522 0.19301 0.0
H4217 H 0.66563 0.26145 0.17273 0.0
H4218 H 0.66305 0.31125 0.18185 0.0
H4219 H 0.64611 0.30534 0.20235 0.0
C4220 C 0.56943 0.25819 0.20789 0.0
C4221 C 0.56529 0.27167 0.20297 0.0
C4222 C 0.58425 0.25944 0.21457 0.0
C4223 C 0.59509 0.27421 0.21653 0.0
C4224 C 0.59076 0.28791 0.21243 0.0
C4225 C 0.57591 0.28667 0.20573 0.0
C4226 C 0.61125 0.27465 0.2209 0.0
C4227 C 0.62148 0.27891 0.21001 0.0
C4228 C 0.61611 0.26867 0.23441 0.0
C4229 C 0.60598 0.26495 0.24675 0.0
C4230 C 0.59842 0.27648 0.25352 0.0
C4231 C 0.5888 0.2729 0.26503 0.0
C4232 C 0.58668 0.25785 0.26994 0.0
C4233 C 0.59421 0.24636 0.26336 0.0
C4234 C 0.60385 0.24987 0.25183 0.0
C4235 C 0.68339 0.27525 0.23093 0.0
C4236 C 0.68466 0.2593 0.23146 0.0
C4237 C 0.66909 0.27863 0.22865 0.0
C4238 C 0.65592 0.26617 0.22701 0.0
C4239 C 0.65711 0.25024 0.22733 0.0
C4240 C 0.67139 0.2468 0.22942 0.0
C4241 C 0.64081 0.26969 0.22486 0.0
C4242 C 0.63087 0.26618 0.23617 0.0
C4243 C 0.6362 0.27636 0.21176 0.0
C4244 C 0.64619 0.27987 0.19929 0.0
C4245 C 0.65172 0.26752 0.19075 0.0
C4246 C 0.66135 0.27098 0.17922 0.0
C4247 C 0.66545 0.28674 0.17603 0.0
C4248 C 0.65988 0.29905 0.18435 0.0
C4249 C 0.65025 0.29565 0.19591 0.0
H4250 H 0.67292 0.28941 0.1671 0.0
H4251 H 0.57922 0.2551 0.27886 0.0
H4252 H 0.56961 0.87542 0.94978 0.0
H4253 H 0.56618 0.90147 0.96274 0.0
H4254 H 0.58759 0.92474 0.92653 0.0
H4255 H 0.59116 0.89867 0.91354 0.0
H4256 H 0.5949 0.94381 0.95655 0.0
H4257 H 0.55024 0.91264 0.92213 0.0
H4258 H 0.52974 0.88834 0.91177 0.0
H4259 H 0.51327 0.89019 0.95722 0.0
H4260 H 0.53385 0.91433 0.96794 0.0
H4261 H 0.56326 0.01222 0.9747 0.0
H4262 H 0.5688 0.98835 0.95879 0.0
H4263 H 0.54797 0.95838 0.9909 0.0
H4264 H 0.54223 0.98211 0.0065 0.0
H4265 H 0.5404 0.94375 0.96024 0.0
H4266 H 0.58581 0.97199 0.99555 0.0
H4267 H 0.60526 0.99686 0.00695 0.0
H4268 H 0.6196 1.00067 0.96106 0.0
H4269 H 0.60008 0.97586 0.94935 0.0
C4270 C 0.57384 0.88616 0.94478 0.0
C4271 C 0.58046 0.8851 0.9306 0.0
C4272 C 0.57188 0.90098 0.95216 0.0
C4273 C 0.57634 0.91485 0.94533 0.0
C4274 C 0.58402 0.91408 0.93186 0.0
C4275 C 0.58608 0.89924 0.92451 0.0
C4276 C 0.5717 0.92973 0.95145 0.0
C4277 C 0.58299 0.94389 0.95715 0.0
C4278 C 0.55614 0.92968 0.95233 0.0
C4279 C 0.54367 0.91522 0.94587 0.0
C4280 C 0.54232 0.90779 0.92995 0.0
C4281 C 0.53068 0.89405 0.92401 0.0
C4282 C 0.52023 0.88771 0.93384 0.0
C4283 C 0.52138 0.89511 0.94963 0.0
C4284 C 0.53303 0.90882 0.95563 0.0
C4285 C 0.55976 1.00044 0.9781 0.0
C4286 C 0.55244 0.9987 0.99165 0.0
C4287 C 0.56291 0.98692 0.96913 0.0
C4288 C 0.5589 0.97173 0.97383 0.0
C4289 C 0.55109 0.97002 0.98711 0.0
C4290 C 0.54789 0.98348 0.996 0.0
C4291 C 0.56359 0.9577 0.9656 0.0
C4292 C 0.5523 0.9437 0.95947 0.0
C4293 C 0.57911 0.95787 0.96446 0.0
C4294 C 0.59144 0.97218 0.97157 0.0
C4295 C 0.59312 0.97813 0.9879 0.0
C4296 C 0.60413 0.99221 0.99441 0.0
C4297 C 0.61361 1.00036 0.98472 0.0
C4298 C 0.61223 0.99434 0.96853 0.0
C4299 C 0.60121 0.98025 0.96195 0.0
H4300 H 0.62198 0.01135 0.98979 0.0
H4301 H 0.51122 0.87708 0.92922 0.0
H4302 H 0.94367 0.77639 0.71235 0.0
H4303 H 0.92306 0.77764 0.72886 0.0
H4304 H 0.89249 0.74003 0.69483 0.0
H4305 H 0.91297 0.73887 0.67818 0.0
H4306 H 0.88255 0.76837 0.70131 0.0
H4307 H 0.90251 0.73167 0.72955 0.0
H4308 H 0.92207 0.72198 0.74458 0.0
H4309 H 0.92927 0.76402 0.78069 0.0
H4310 H 0.9099 0.77408 0.76575 0.0
H4311 H 0.81842 0.75082 0.74233 0.0
H4312 H 0.8422 0.74636 0.73303 0.0
H4313 H 0.8662 0.79366 0.75785 0.0
H4314 H 0.84237 0.79847 0.76688 0.0
H4315 H 0.88 0.76126 0.75733 0.0
H4316 H 0.8623 0.79934 0.72796 0.0
H4317 H 0.84269 0.80925 0.71322 0.0
H4318 H 0.8319 0.76518 0.67935 0.0
H4319 H 0.85123 0.75486 0.69412 0.0
C4320 C 0.93258 0.76828 0.70852 0.0
C4321 C 0.92977 0.75765 0.69398 0.0
C4322 C 0.92092 0.7689 0.718 0.0
C4323 C 0.90638 0.75889 0.71299 0.0
C4324 C 0.90372 0.74777 0.69882 0.0
C4325 C 0.91539 0.7471 0.68939 0.0
C4326 C 0.89352 0.76136 0.72153 0.0
C4327 C 0.88191 0.76662 0.7135 0.0
C4328 C 0.89306 0.7596 0.73757 0.0
C4329 C 0.90488 0.75371 0.74644 0.0
C4330 C 0.90839 0.73894 0.7406 0.0
C4331 C 0.91941 0.73336 0.74913 0.0
C4332 C 0.92694 0.7424 0.76356 0.0
C4333 C 0.92345 0.75704 0.7695 0.0
C4334 C 0.91244 0.76269 0.76101 0.0
C4335 C 0.82882 0.76012 0.74609 0.0
C4336 C 0.82863 0.77504 0.75514 0.0
C4337 C 0.84232 0.75755 0.74078 0.0
C4338 C 0.85572 0.76976 0.74476 0.0
C4339 C 0.85583 0.78418 0.75476 0.0
C4340 C 0.84227 0.78691 0.7598 0.0
C4341 C 0.86912 0.76803 0.73701 0.0
C4342 C 0.88077 0.76301 0.74517 0.0
C4343 C 0.86975 0.77015 0.72112 0.0
C4344 C 0.85799 0.77621 0.71231 0.0
C4345 C 0.85556 0.79165 0.71752 0.0
C4346 C 0.84454 0.79737 0.70913 0.0
C4347 C 0.83599 0.78782 0.6954 0.0
C4348 C 0.83848 0.77254 0.69002 0.0
C4349 C 0.84945 0.76674 0.69841 0.0
H4350 H 0.82748 0.79228 0.6889 0.0
H4351 H 0.93545 0.73804 0.77016 0.0
H4352 H 0.12708 0.03573 0.86183 0.0
H4353 H 0.11502 0.03792 0.88619 0.0
H4354 H 0.07854 0.99717 0.8653 0.0
H4355 H 0.09039 0.99511 0.8407 0.0
H4356 H 0.06599 0.01773 0.88226 0.0
H4357 H 0.10869 0.99601 0.8956 0.0
H4358 H 0.13573 0.99479 0.89825 0.0
H4359 H 0.14745 0.04074 0.92933 0.0
H4360 H 0.12048 0.04233 0.92669 0.0
H4361 H 0.03313 1.00321 0.95233 0.0
H4362 H 0.04641 1.00204 0.92899 0.0
H4363 H 0.08286 0.04137 0.9531 0.0
H4364 H 0.06954 0.0422 0.97715 0.0
H4365 H 0.09566 0.02261 0.93456 0.0
H4366 H 0.05248 0.04394 0.92154 0.0
H4367 H 0.02536 0.04486 0.91868 0.0
H4368 H 0.01435 0.99949 0.88669 0.0
H4369 H 0.04138 0.99819 0.88952 0.0
C4370 C 0.11643 0.0272 0.86218 0.0
C4371 C 0.11 0.01517 0.84874 0.0
C4372 C 0.10951 0.02838 0.87646 0.0
C4373 C 0.09571 0.01761 0.87823 0.0
C4374 C 0.08913 0.00574 0.86476 0.0
C4375 C 0.09611 0.00447 0.85049 0.0
C4376 C 0.08824 0.01875 0.89386 0.0
C4377 C 0.07256 0.01858 0.89361 0.0
C4378 C 0.09644 0.0203 0.90915 0.0
C4379 C 0.11261 0.01937 0.91082 0.0
C4380 C 0.11706 0.00591 0.90291 0.0
C4381 C 0.13236 0.00514 0.90442 0.0
C4382 C 0.14331 0.0177 0.91391 0.0
C4383 C 0.13896 0.03104 0.92195 0.0
C4384 C 0.12367 0.03187 0.92047 0.0
C4385 C 0.04404 0.01167 0.95292 0.0
C4386 C 0.05001 0.02285 0.96703 0.0
C4387 C 0.05167 0.0111 0.9392 0.0
C4388 C 0.06568 0.02193 0.9385 0.0
C4389 C 0.07205 0.03285 0.9528 0.0
C4390 C 0.06438 0.03333 0.96676 0.0
C4391 C 0.07339 0.02159 0.92299 0.0
C4392 C 0.08909 0.02185 0.92324 0.0
C4393 C 0.0652 0.02013 0.90766 0.0
C4394 C 0.04894 0.02091 0.90586 0.0
C4395 C 0.04426 0.03411 0.91397 0.0
C4396 C 0.0289 0.03471 0.91235 0.0
C4397 C 0.01813 0.02222 0.90254 0.0
C4398 C 0.0227 0.00914 0.8943 0.0
C4399 C 0.03804 0.00848 0.8959 0.0
H4400 H 0.00625 0.0227 0.9013 0.0
H4401 H 0.15516 0.01709 0.91507 0.0
H4402 H 0.82206 0.39977 0.58571 0.0
H4403 H 0.82936 0.3901 0.60981 0.0
H4404 H 0.79307 0.34709 0.59619 0.0
H4405 H 0.78593 0.35642 0.57168 0.0
H4406 H 0.79603 0.36195 0.62862 0.0
H4407 H 0.82615 0.34336 0.58925 0.0
H4408 H 0.84367 0.34683 0.56891 0.0
H4409 H 0.87792 0.37936 0.60334 0.0
H4410 H 0.86049 0.37624 0.62385 0.0
H4411 H 0.81498 0.29952 0.66055 0.0
H4412 H 0.81704 0.3164 0.64027 0.0
H4413 H 0.84022 0.35789 0.67496 0.0
H4414 H 0.83854 0.34091 0.69561 0.0
H4415 H 0.84643 0.34795 0.63468 0.0
H4416 H 0.8143 0.36675 0.67424 0.0
H4417 H 0.79613 0.36082 0.69362 0.0
H4418 H 0.76534 0.32602 0.65773 0.0
H4419 H 0.78348 0.33159 0.63821 0.0
C4420 C 0.81568 0.38819 0.58778 0.0
C4421 C 0.80359 0.37868 0.5767 0.0
C4422 C 0.8198 0.38279 0.60158 0.0
C4423 C 0.81182 0.36788 0.60458 0.0
C4424 C 0.79931 0.35866 0.59396 0.0
C4425 C 0.79525 0.364 0.58004 0.0
C4426 C 0.81695 0.36156 0.61849 0.0
C4427 C 0.8071 0.35904 0.63002 0.0
C4428 C 0.83145 0.35793 0.62029 0.0
C4429 C 0.84196 0.35973 0.60802 0.0
C4430 C 0.83737 0.35136 0.59244 0.0
C4431 C 0.84729 0.35324 0.58089 0.0
C4432 C 0.86188 0.36335 0.58482 0.0
C4433 C 0.8666 0.37156 0.60031 0.0
C4434 C 0.85671 0.36973 0.6119 0.0
C4435 C 0.82121 0.31202 0.66386 0.0
C4436 C 0.82646 0.3189 0.67976 0.0
C4437 C 0.82228 0.32167 0.65222 0.0
C4438 C 0.82861 0.3383 0.65628 0.0
C4439 C 0.83527 0.34501 0.67175 0.0
C4440 C 0.83422 0.33533 0.68349 0.0
C4441 C 0.82561 0.3486 0.64485 0.0
C4442 C 0.83567 0.35155 0.63358 0.0
C4443 C 0.81131 0.35265 0.64326 0.0
C4444 C 0.80028 0.34946 0.65485 0.0
C4445 C 0.8037 0.35774 0.67054 0.0
C4446 C 0.79341 0.35446 0.68153 0.0
C4447 C 0.7796 0.34301 0.67692 0.0
C4448 C 0.77605 0.33486 0.66129 0.0
C4449 C 0.78632 0.33808 0.65026 0.0
H4450 H 0.77165 0.34048 0.68545 0.0
H4451 H 0.86955 0.36479 0.57586 0.0
H4452 H 0.44053 0.02242 0.366 0.0
H4453 H 0.45658 0.02185 0.39 0.0
H4454 H 0.49609 0.04689 0.3713 0.0
H4455 H 0.48021 0.04678 0.34684 0.0
H4456 H 0.50182 0.0223 0.38582 0.0
H4457 H 0.47917 0.06776 0.3971 0.0
H4458 H 0.45774 0.08122 0.39786 0.0
H4459 H 0.43745 0.05054 0.42926 0.0
H4460 H 0.45866 0.03672 0.4285 0.0
H4461 H 0.54805 0.05091 0.46047 0.0
H4462 H 0.53299 0.05101 0.43544 0.0
H4463 H 0.49465 0.01831 0.44876 0.0
H4464 H 0.50975 0.01762 0.47343 0.0
H4465 H 0.48894 0.04758 0.43711 0.0
H4466 H 0.51067 1.00136 0.42475 0.0
H4467 H 0.53194 0.98766 0.42411 0.0
H4468 H 0.55393 0.02 0.39498 0.0
H4469 H 0.53287 0.03405 0.39566 0.0
C4470 C 0.45266 0.02762 0.36691 0.0
C4471 C 0.45914 0.03478 0.35466 0.0
C4472 C 0.46177 0.02738 0.38063 0.0
C4473 C 0.47739 0.03456 0.38239 0.0
C4474 C 0.48399 0.04139 0.37008 0.0
C4475 C 0.47491 0.0415 0.35626 0.0
C4476 C 0.48676 0.03533 0.39732 0.0
C4477 C 0.49916 0.02803 0.39701 0.0
C4478 C 0.48302 0.04258 0.41185 0.0
C4479 C 0.47044 0.05113 0.41265 0.0
C4480 C 0.4701 0.06383 0.40411 0.0
C4481 C 0.45799 0.07152 0.40454 0.0
C4482 C 0.44622 0.06672 0.41358 0.0
C4483 C 0.44657 0.05424 0.42225 0.0
C4484 C 0.45864 0.04649 0.42185 0.0
C4485 C 0.53643 0.04374 0.45799 0.0
C4486 C 0.52994 0.03438 0.4688 0.0
C4487 C 0.52789 0.04384 0.44381 0.0
C4488 C 0.51282 0.03472 0.4405 0.0
C4489 C 0.50628 0.02548 0.45132 0.0
C4490 C 0.51488 0.02513 0.46534 0.0
C4491 C 0.50391 0.03454 0.42554 0.0
C4492 C 0.49161 0.04196 0.42587 0.0
C4493 C 0.50775 0.02742 0.41106 0.0
C4494 C 0.52029 0.01886 0.4104 0.0
C4495 C 0.52011 0.00563 0.41832 0.0
C4496 C 0.53211 0.99779 0.41793 0.0
C4497 C 0.54431 1.00299 0.40955 0.0
C4498 C 0.54449 0.016 0.40149 0.0
C4499 C 0.53252 0.0239 0.40186 0.0
H4500 H 0.5536 0.99691 0.40927 0.0
H4501 H 0.43685 0.07267 0.41387 0.0
H4502 H 0.7622 0.72068 0.08136 0.0
H4503 H 0.76232 0.73242 0.10893 0.0
H4504 H 0.80702 0.76277 0.10883 0.0
H4505 H 0.80688 0.75134 0.08099 0.0
H4506 H 0.80525 0.74829 0.13498 0.0
H4507 H 0.77692 0.77945 0.10882 0.0
H4508 H 0.75704 0.78434 0.09001 0.0
H4509 H 0.72226 0.75797 0.11351 0.0
H4510 H 0.74196 0.75273 0.13234 0.0
H4511 H 0.80542 0.7916 0.21124 0.0
H4512 H 0.80588 0.78576 0.18268 0.0
H4513 H 0.75981 0.75673 0.17718 0.0
H4514 H 0.75905 0.76322 0.20576 0.0
H4515 H 0.76349 0.77258 0.15348 0.0
H4516 H 0.79295 0.74046 0.17905 0.0
H4517 H 0.81344 0.73723 0.19823 0.0
H4518 H 0.84685 0.76676 0.17566 0.0
H4519 H 0.82655 0.7704 0.15656 0.0
C4520 C 0.77197 0.73008 0.08703 0.0
C4521 C 0.78448 0.73514 0.0788 0.0
C4522 C 0.77204 0.73673 0.10287 0.0
C4523 C 0.78461 0.7486 0.11092 0.0
C4524 C 0.79719 0.75363 0.10285 0.0
C4525 C 0.7971 0.74703 0.08693 0.0
C4526 C 0.78466 0.75541 0.12786 0.0
C4527 C 0.79624 0.75382 0.139 0.0
C4528 C 0.77282 0.76244 0.13316 0.0
C4529 C 0.76092 0.76557 0.1219 0.0
C4530 C 0.76504 0.77458 0.1099 0.0
C4531 C 0.7538 0.77744 0.09925 0.0
C4532 C 0.7384 0.77144 0.10054 0.0
C4533 C 0.7342 0.7626 0.11251 0.0
C4534 C 0.74539 0.7597 0.12319 0.0
C4535 C 0.79533 0.78411 0.20393 0.0
C4536 C 0.78224 0.77774 0.21074 0.0
C4537 C 0.79563 0.7807 0.18759 0.0
C4538 C 0.78304 0.77041 0.17778 0.0
C4539 C 0.76971 0.7646 0.1845 0.0
C4540 C 0.76928 0.76831 0.20083 0.0
C4541 C 0.78393 0.76521 0.16065 0.0
C4542 C 0.77252 0.76709 0.14947 0.0
C4543 C 0.79598 0.7585 0.15531 0.0
C4544 C 0.80822 0.7558 0.16645 0.0
C4545 C 0.80467 0.7463 0.17822 0.0
C4546 C 0.81625 0.74442 0.18909 0.0
C4547 C 0.83144 0.75183 0.18821 0.0
C4548 C 0.83509 0.76106 0.17639 0.0
C4549 C 0.82355 0.76302 0.16552 0.0
H4550 H 0.84039 0.7504 0.19667 0.0
H4551 H 0.72972 0.77366 0.09228 0.0
H4552 H 0.0885 0.99094 0.68336 0.0
H4553 H 0.07627 0.99322 0.65762 0.0
H4554 H 0.11275 0.0338 0.65469 0.0
H4555 H 0.12525 0.03143 0.6801 0.0
H4556 H 0.08695 0.04076 0.64503 0.0
H4557 H 0.10628 0.99219 0.63236 0.0
H4558 H 0.10817 0.96414 0.63346 0.0
H4559 H 0.05998 0.94717 0.61945 0.0
H4560 H 0.05776 0.97514 0.61855 0.0
H4561 H 0.06879 0.05043 0.56527 0.0
H4562 H 0.07993 0.04659 0.59084 0.0
H4563 H 0.04905 0.99963 0.58532 0.0
H4564 H 0.03892 1.00298 0.55901 0.0
H4565 H 0.07072 0.99527 0.60001 0.0
H4566 H 0.04869 0.0399 0.61363 0.0
H4567 H 0.04306 0.06669 0.61323 0.0
H4568 H 0.09037 0.08966 0.62721 0.0
H4569 H 0.09632 0.063 0.62751 0.0
C4570 C 0.09419 1.00027 0.6773 0.0
C4571 C 0.10814 0.01097 0.68445 0.0
C4572 C 0.08703 1.00158 0.66232 0.0
C4573 C 0.09345 0.01364 0.65366 0.0
C4574 C 0.10728 0.02436 0.66079 0.0
C4575 C 0.11448 0.02301 0.67567 0.0
C4576 C 0.08582 0.01549 0.63755 0.0
C4577 C 0.0836 0.03078 0.63517 0.0
C4578 C 0.0805 1.00251 0.62454 0.0
C4579 C 0.08184 0.98579 0.6256 0.0
C4580 C 0.09607 0.98251 0.62972 0.0
C4581 C 0.09719 0.96661 0.63027 0.0
C4582 C 0.08419 0.95389 0.6266 0.0
C4583 C 0.07003 0.95703 0.62237 0.0
C4584 C 0.06883 0.9729 0.62185 0.0
C4585 C 0.06429 0.03927 0.56948 0.0
C4586 C 0.05276 0.0271 0.55984 0.0
C4587 C 0.07062 0.03711 0.58444 0.0
C4588 C 0.06526 0.02294 0.59089 0.0
C4589 C 0.05369 0.01076 0.58115 0.0
C4590 C 0.04772 0.01272 0.56593 0.0
C4591 C 0.0719 0.02065 0.60735 0.0
C4592 C 0.07395 0.0053 0.60983 0.0
C4593 C 0.07645 0.03341 0.62069 0.0
C4594 C 0.07297 0.04945 0.62042 0.0
C4595 C 0.05791 0.05066 0.6165 0.0
C4596 C 0.05466 0.06582 0.61631 0.0
C4597 C 0.06635 0.07986 0.62014 0.0
C4598 C 0.08132 0.07878 0.62421 0.0
C4599 C 0.08464 0.06365 0.6244 0.0
H4600 H 0.06381 0.09159 0.62 0.0
H4601 H 0.08511 0.94159 0.62696 0.0
H4602 H 0.80878 0.35307 0.43757 0.0
H4603 H 0.80822 0.33431 0.41304 0.0
H4604 H 0.77862 0.35845 0.38859 0.0
H4605 H 0.77868 0.37673 0.41325 0.0
H4606 H 0.76858 0.32811 0.38007 0.0
H4607 H 0.8179 0.36401 0.38514 0.0
H4608 H 0.84354 0.3786 0.39802 0.0
H4609 H 0.85588 0.33339 0.40025 0.0
H4610 H 0.83022 0.31851 0.38757 0.0
H4611 H 0.78701 0.31401 0.30161 0.0
H4612 H 0.79101 0.3272 0.32919 0.0
H4613 H 0.78994 0.2813 0.34425 0.0
H4614 H 0.78557 0.26777 0.31638 0.0
H4615 H 0.81576 0.31897 0.35856 0.0
H4616 H 0.76317 0.28411 0.3519 0.0
H4617 H 0.73813 0.27311 0.33589 0.0
H4618 H 0.73308 0.32135 0.33377 0.0
H4619 H 0.75823 0.33261 0.34953 0.0
C4620 C 0.80221 0.35434 0.4269 0.0
C4621 C 0.79377 0.36627 0.42719 0.0
C4622 C 0.80194 0.34369 0.41292 0.0
C4623 C 0.79351 0.34508 0.39894 0.0
C4624 C 0.78514 0.35709 0.39925 0.0
C4625 C 0.78519 0.36753 0.41329 0.0
C4626 C 0.79318 0.33394 0.38398 0.0
C4627 C 0.77894 0.3261 0.37547 0.0
C4628 C 0.80666 0.33123 0.37792 0.0
C4629 C 0.82207 0.34015 0.3856 0.0
C4630 C 0.82603 0.35718 0.38851 0.0
C4631 C 0.84058 0.3655 0.39575 0.0
C4632 C 0.85131 0.35693 0.4 0.0
C4633 C 0.84754 0.34001 0.39698 0.0
C4634 C 0.833 0.33163 0.38977 0.0
C4635 C 0.78783 0.3067 0.31076 0.0
C4636 C 0.78591 0.28985 0.30694 0.0
C4637 C 0.79013 0.31428 0.32647 0.0
C4638 C 0.79069 0.30516 0.33859 0.0
C4639 C 0.78951 0.28844 0.33491 0.0
C4640 C 0.78699 0.28076 0.31909 0.0
C4641 C 0.79126 0.31322 0.35498 0.0
C4642 C 0.80549 0.32065 0.36357 0.0
C4643 C 0.77783 0.31595 0.36095 0.0
C4644 C 0.76262 0.30918 0.35174 0.0
C4645 C 0.75677 0.29236 0.34788 0.0
C4646 C 0.74256 0.28608 0.33888 0.0
C4647 C 0.73403 0.29652 0.33378 0.0
C4648 C 0.73969 0.31327 0.33771 0.0
C4649 C 0.75392 0.3196 0.34668 0.0
H4650 H 0.72303 0.29164 0.32681 0.0
H4651 H 0.86257 0.36339 0.4056 0.0
H4652 H 0.43904 0.99673 0.20413 0.0
H4653 H 0.44318 0.98748 0.17698 0.0
H4654 H 0.47609 0.03242 0.17784 0.0
H4655 H 0.47181 0.04183 0.20505 0.0
H4656 H 0.45718 0.02444 0.15113 0.0
H4657 H 0.48771 0.99868 0.18231 0.0
H4658 H 0.49337 0.98181 0.20182 0.0
H4659 H 0.46162 0.94046 0.1742 0.0
H4660 H 0.45561 0.95718 0.15463 0.0
H4661 H 0.51705 0.99847 0.11073 0.0
H4662 H 0.50023 0.99501 0.13105 0.0
H4663 H 0.46155 0.99291 0.09716 0.0
H4664 H 0.47864 0.99698 0.07664 0.0
H4665 H 0.47572 0.97451 0.13697 0.0
H4666 H 0.44376 0.0113 0.1094 0.0
H4667 H 0.4451 0.03254 0.0927 0.0
H4668 H 0.48915 0.05726 0.11728 0.0
H4669 H 0.48815 0.03603 0.13376 0.0
C4670 C 0.44729 0.00453 0.19856 0.0
C4671 C 0.45531 0.01988 0.20661 0.0
C4672 C 0.44956 0.99928 0.18308 0.0
C4673 C 0.45996 0.00925 0.17554 0.0
C4674 C 0.46795 0.02463 0.18353 0.0
C4675 C 0.46558 0.02995 0.199 0.0
C4676 C 0.46268 1.00362 0.15933 0.0
C4677 C 0.46097 0.01336 0.14795 0.0
C4678 C 0.46765 0.98921 0.15527 0.0
C4679 C 0.47101 0.97923 0.16716 0.0
C4680 C 0.48179 0.98604 0.18051 0.0
C4681 C 0.4851 0.9765 0.19155 0.0
C4682 C 0.4778 0.96009 0.18929 0.0
C4683 C 0.46721 0.95319 0.17597 0.0
C4684 C 0.46384 0.96269 0.1649 0.0
C4685 C 0.50491 0.99678 0.10746 0.0
C4686 C 0.4991 0.99812 0.09223 0.0
C4687 C 0.4953 0.99479 0.11907 0.0
C4688 C 0.47971 0.99398 0.11562 0.0
C4689 C 0.47362 0.9939 0.10007 0.0
C4690 C 0.48333 0.99614 0.08841 0.0
C4691 C 0.47073 0.99561 0.12895 0.0
C4692 C 0.47113 0.9851 0.13991 0.0
C4693 C 0.46522 0.00969 0.13289 0.0
C4694 C 0.46597 0.02206 0.12259 0.0
C4695 C 0.45376 0.02123 0.11108 0.0
C4696 C 0.45448 0.03324 0.10163 0.0
C4697 C 0.46726 0.04621 0.1038 0.0
C4698 C 0.47933 0.04717 0.11542 0.0
C4699 C 0.47873 0.03513 0.12477 0.0
H4700 H 0.46777 0.05555 0.09655 0.0
H4701 H 0.4804 0.95271 0.19784 0.0
H4702 H 0.76655 0.70458 0.90732 0.0
H4703 H 0.76804 0.71579 0.88283 0.0
H4704 H 0.80333 0.75652 0.90672 0.0
H4705 H 0.80176 0.74546 0.9314 0.0
H4706 H 0.78293 0.76629 0.88739 0.0
H4707 H 0.81301 0.72768 0.88267 0.0
H4708 H 0.81963 0.70141 0.88333 0.0
H4709 H 0.78341 0.67857 0.84611 0.0
H4710 H 0.77641 0.70469 0.84541 0.0
H4711 H 0.81182 0.79059 0.81749 0.0
H4712 H 0.80948 0.77999 0.84223 0.0
H4713 H 0.76881 0.74462 0.82052 0.0
H4714 H 0.77087 0.75554 0.79565 0.0
H4715 H 0.79218 0.73258 0.83879 0.0
H4716 H 0.76348 0.77396 0.84409 0.0
H4717 H 0.75977 0.80152 0.84382 0.0
H4718 H 0.79722 0.82069 0.88056 0.0
H4719 H 0.80132 0.79325 0.88087 0.0
C4720 C 0.77454 0.71601 0.90745 0.0
C4721 C 0.78405 0.72407 0.9214 0.0
C4722 C 0.77546 0.72236 0.89337 0.0
C4723 C 0.7859 0.73696 0.89282 0.0
C4724 C 0.79521 0.74523 0.90679 0.0
C4725 C 0.79438 0.73881 0.92087 0.0
C4726 C 0.7872 0.74335 0.8776 0.0
C4727 C 0.7851 0.75896 0.87682 0.0
C4728 C 0.79 0.73385 0.86372 0.0
C4729 C 0.79407 0.71809 0.86412 0.0
C4730 C 0.80635 0.71702 0.87474 0.0
C4731 C 0.81019 0.70217 0.8751 0.0
C4732 C 0.80191 0.68832 0.86481 0.0
C4733 C 0.78979 0.6893 0.8541 0.0
C4734 C 0.78588 0.70413 0.85371 0.0
C4735 C 0.80237 0.78053 0.81792 0.0
C4736 C 0.79151 0.7739 0.80458 0.0
C4737 C 0.80103 0.77452 0.83212 0.0
C4738 C 0.78894 0.76157 0.83329 0.0
C4739 C 0.77823 0.75465 0.8199 0.0
C4740 C 0.7794 0.76089 0.80571 0.0
C4741 C 0.7876 0.75534 0.84853 0.0
C4742 C 0.78985 0.73982 0.84933 0.0
C4743 C 0.78529 0.76508 0.86249 0.0
C4744 C 0.7828 0.78157 0.86238 0.0
C4745 C 0.77102 0.78407 0.85201 0.0
C4746 C 0.76883 0.79966 0.85187 0.0
C4747 C 0.77828 0.81285 0.86214 0.0
C4748 C 0.78992 0.81046 0.8726 0.0
C4749 C 0.79218 0.79489 0.87277 0.0
H4750 H 0.77656 0.82492 0.86202 0.0
H4751 H 0.80491 0.67683 0.8651 0.0
H4752 H 0.83064 0.08711 0.01033 0.0
H4753 H 0.85068 0.07269 0.00502 0.0
H4754 H 0.88078 0.11731 0.99893 0.0
H4755 H 0.86049 0.13158 0.00361 0.0
H4756 H 0.88375 0.09376 0.97758 0.0
H4757 H 0.88334 0.10187 0.03368 0.0
H4758 H 0.87201 0.1008 0.05869 0.0
H4759 H 0.85903 0.0489 0.0475 0.0
H4760 H 0.87009 0.04968 0.02229 0.0
H4761 H 0.95377 0.06973 0.99411 0.0
H4762 H 0.93253 0.083 0.99392 0.0
H4763 H 0.90106 0.0369 0.99169 0.0
H4764 H 0.92226 0.02352 0.99188 0.0
H4765 H 0.89874 0.06096 0.0164 0.0
H4766 H 0.90178 0.05431 0.96017 0.0
H4767 H 0.91429 0.05722 0.93604 0.0
H4768 H 0.92453 0.10897 0.94909 0.0
H4769 H 0.91231 0.10637 0.97344 0.0
C4770 C 0.84157 0.09377 0.0079 0.0
C4771 C 0.84421 0.11039 0.00751 0.0
C4772 C 0.85297 0.08558 0.00487 0.0
C4773 C 0.86727 0.09402 1.00187 0.0
C4774 C 0.86981 0.11061 1.00124 0.0
C4775 C 0.85831 0.11874 0.00398 0.0
C4776 C 0.87969 0.08562 0.99971 0.0
C4777 C 0.88717 0.08672 0.98614 0.0
C4778 C 0.88398 0.07635 0.01083 0.0
C4779 C 0.87741 0.07584 0.02604 0.0
C4780 C 0.87797 0.09023 0.0365 0.0
C4781 C 0.87161 0.08968 0.05072 0.0
C4782 C 0.86477 0.07479 0.05467 0.0
C4783 C 0.86431 0.06042 0.04442 0.0
C4784 C 0.87064 0.06091 0.03017 0.0
C4785 C 0.94235 0.06239 0.99338 0.0
C4786 C 0.9397 0.04556 0.99287 0.0
C4787 C 0.93023 0.06997 0.99317 0.0
C4788 C 0.91531 0.06084 0.9926 0.0
C4789 C 0.91256 0.04406 0.99196 0.0
C4790 C 0.92466 0.03645 0.99203 0.0
C4791 C 0.90271 0.06899 0.99423 0.0
C4792 C 0.89526 0.06791 0.00779 0.0
C4793 C 0.89874 0.07857 0.98328 0.0
C4794 C 0.90627 0.08013 0.96873 0.0
C4795 C 0.90686 0.0663 0.958 0.0
C4796 C 0.91386 0.0679 0.94425 0.0
C4797 C 0.92024 0.08327 0.94105 0.0
C4798 C 0.91961 0.09707 0.95159 0.0
C4799 C 0.91264 0.09554 0.96536 0.0
H4800 H 0.92563 0.08447 0.93039 0.0
H4801 H 0.85985 0.07439 0.06568 0.0
H4802 H 0.36628 0.4527 0.00793 0.0
H4803 H 0.39228 0.46731 0.0062 0.0
H4804 H 0.40966 0.44033 0.03901 0.0
H4805 H 0.3836 0.4258 0.04094 0.0
H4806 H 0.42517 0.47022 0.04608 0.0
H4807 H 0.41169 0.43264 0.99741 0.0
H4808 H 0.39591 0.41879 0.97239 0.0
H4809 H 0.40127 0.46401 0.9554 0.0
H4810 H 0.41692 0.47818 0.98041 0.0
H4811 H 0.50276 0.49667 0.03003 0.0
H4812 H 0.47774 0.47809 0.03003 0.0
H4813 H 0.45585 0.5088 0.00543 0.0
H4814 H 0.48063 0.5274 0.00577 0.0
H4815 H 0.44354 0.47533 0.99392 0.0
H4816 H 0.45546 0.51283 0.04316 0.0
H4817 H 0.47136 0.52679 0.06808 0.0
H4818 H 0.46916 0.48119 0.08368 0.0
H4819 H 0.45339 0.46693 0.05873 0.0
C4820 C 0.37561 0.44974 0.01471 0.0
C4821 C 0.37269 0.43792 0.02452 0.0
C4822 C 0.39057 0.45814 0.01368 0.0
C4823 C 0.40317 0.45482 0.02223 0.0
C4824 C 0.40028 0.4432 0.03223 0.0
C4825 C 0.38529 0.43488 0.03337 0.0
C4826 C 0.41926 0.46351 0.02081 0.0
C4827 C 0.42921 0.47103 0.03464 0.0
C4828 C 0.42469 0.46497 0.00594 0.0
C4829 C 0.41538 0.45649 0.99084 0.0
C4830 C 0.40942 0.43965 0.98838 0.0
C4831 C 0.40051 0.43174 0.97419 0.0
C4832 C 0.39756 0.44052 0.96233 0.0
C4833 C 0.40355 0.45723 0.96461 0.0
C4834 C 0.41246 0.4652 0.97878 0.0
C4835 C 0.49264 0.49914 0.02424 0.0
C4836 C 0.49367 0.51333 0.01767 0.0
C4837 C 0.47832 0.48864 0.02438 0.0
C4838 C 0.4648 0.49203 0.01777 0.0
C4839 C 0.46601 0.50582 0.01055 0.0
C4840 C 0.48021 0.51643 0.01072 0.0
C4841 C 0.44933 0.48193 0.01914 0.0
C4842 C 0.4395 0.47427 0.00532 0.0
C4843 C 0.44402 0.48028 0.03399 0.0
C4844 C 0.45342 0.48881 0.04901 0.0
C4845 C 0.45848 0.50577 0.05185 0.0
C4846 C 0.46745 0.51374 0.06598 0.0
C4847 C 0.47131 0.50487 0.07743 0.0
C4848 C 0.46618 0.48803 0.07479 0.0
C4849 C 0.45722 0.48 0.06065 0.0
H4850 H 0.47826 0.51106 0.08838 0.0
H4851 H 0.39066 0.43437 0.95135 0.0
H4852 H 0.35066 0.62019 0.74607 0.0
H4853 H 0.33834 0.64282 0.74713 0.0
H4854 H 0.37877 0.67462 0.77374 0.0
H4855 H 0.39122 0.65197 0.77281 0.0
H4856 H 0.35698 0.68508 0.78527 0.0
H4857 H 0.36431 0.67333 0.73072 0.0
H4858 H 0.36243 0.6563 0.70457 0.0
H4859 H 0.31357 0.64501 0.70182 0.0
H4860 H 0.31518 0.66183 0.72804 0.0
H4861 H 0.33203 0.7587 0.77528 0.0
H4862 H 0.3453 0.73651 0.7749 0.0
H4863 H 0.30489 0.70294 0.75015 0.0
H4864 H 0.29169 0.72501 0.75048 0.0
H4865 H 0.32714 0.69378 0.73773 0.0
H4866 H 0.31992 0.70686 0.7919 0.0
H4867 H 0.32193 0.72346 0.81826 0.0
H4868 H 0.37072 0.73183 0.82224 0.0
H4869 H 0.36905 0.71587 0.79564 0.0
C4870 C 0.35722 0.63194 0.75203 0.0
C4871 C 0.37234 0.63361 0.75921 0.0
C4872 C 0.34999 0.6452 0.75261 0.0
C4873 C 0.3574 0.66113 0.76025 0.0
C4874 C 0.3724 0.66282 0.76766 0.0
C4875 C 0.37965 0.64953 0.76713 0.0
C4876 C 0.34964 0.67576 0.76059 0.0
C4877 C 0.3507 0.68699 0.77471 0.0
C4878 C 0.34089 0.67872 0.74716 0.0
C4879 C 0.33987 0.6687 0.73139 0.0
C4880 C 0.35317 0.66713 0.72457 0.0
C4881 C 0.35216 0.65753 0.70974 0.0
C4882 C 0.33789 0.64954 0.70156 0.0
C4883 C 0.32461 0.65118 0.70817 0.0
C4884 C 0.32557 0.66076 0.72301 0.0
C4885 C 0.32586 0.74662 0.76975 0.0
C4886 C 0.31051 0.74407 0.76298 0.0
C4887 C 0.33355 0.73368 0.76961 0.0
C4888 C 0.32635 0.71744 0.76265 0.0
C4889 C 0.31109 0.715 0.75569 0.0
C4890 C 0.30339 0.72787 0.75594 0.0
C4891 C 0.33448 0.70313 0.76241 0.0
C4892 C 0.33347 0.69193 0.74829 0.0
C4893 C 0.3433 0.70027 0.77585 0.0
C4894 C 0.34436 0.71034 0.79164 0.0
C4895 C 0.33109 0.71248 0.79827 0.0
C4896 C 0.33217 0.7218 0.81326 0.0
C4897 C 0.34645 0.72884 0.82187 0.0
C4898 C 0.35967 0.72656 0.81549 0.0
C4899 C 0.35867 0.71741 0.80043 0.0
H4900 H 0.34727 0.73597 0.83351 0.0
H4901 H 0.33713 0.6421 0.69008 0.0
H4902 H 0.20591 0.57539 0.51543 0.0
H4903 H 0.17854 0.56328 0.51245 0.0
H4904 H 0.17221 0.5858 0.47153 0.0
H4905 H 0.1995 0.59811 0.47458 0.0
H4906 H 0.15701 0.5957 0.49567 0.0
H4907 H 0.16216 0.54573 0.46712 0.0
H4908 H 0.17249 0.52151 0.46117 0.0
H4909 H 0.15857 0.50618 0.50406 0.0
H4910 H 0.14834 0.53043 0.5104 0.0
H4911 H 0.07597 0.56179 0.48329 0.0
H4912 H 0.10292 0.56733 0.47909 0.0
H4913 H 0.11501 0.55858 0.52606 0.0
H4914 H 0.0881 0.5534 0.53052 0.0
H4915 H 0.12632 0.54043 0.49637 0.0
H4916 H 0.12553 0.59249 0.52678 0.0
H4917 H 0.11449 0.61623 0.53278 0.0
H4918 H 0.12013 0.62692 0.48612 0.0
H4919 H 0.13101 0.60308 0.4798 0.0
C4920 C 0.19871 0.57735 0.50555 0.0
C4921 C 0.20471 0.58782 0.49537 0.0
C4922 C 0.18314 0.57033 0.50377 0.0
C4923 C 0.17344 0.57373 0.4918 0.0
C4924 C 0.1796 0.58304 0.4808 0.0
C4925 C 0.19517 0.59001 0.48253 0.0
C4926 C 0.15692 0.57026 0.4927 0.0
C4927 C 0.15024 0.58355 0.49546 0.0
C4928 C 0.14828 0.55449 0.49293 0.0
C4929 C 0.15461 0.53999 0.4893 0.0
C4930 C 0.16145 0.53729 0.47537 0.0
C4931 C 0.16725 0.52353 0.47191 0.0
C4932 C 0.16623 0.51234 0.48225 0.0
C4933 C 0.15937 0.51487 0.49607 0.0
C4934 C 0.15355 0.52861 0.49959 0.0
C4935 C 0.08443 0.56135 0.4928 0.0
C4936 C 0.0801 0.55732 0.50726 0.0
C4937 C 0.09971 0.56438 0.49036 0.0
C4938 C 0.11072 0.56313 0.50224 0.0
C4939 C 0.10651 0.55945 0.51679 0.0
C4940 C 0.09124 0.55674 0.51938 0.0
C4941 C 0.12671 0.56585 0.49941 0.0
C4942 C 0.13318 0.55248 0.49635 0.0
C4943 C 0.13525 0.58152 0.49897 0.0
C4944 C 0.12893 0.59596 0.50277 0.0
C4945 C 0.12429 0.59984 0.51776 0.0
C4946 C 0.11809 0.61332 0.52123 0.0
C4947 C 0.11657 0.62306 0.50982 0.0
C4948 C 0.1213 0.61936 0.49494 0.0
C4949 C 0.1275 0.60588 0.49141 0.0
H4950 H 0.11176 0.63349 0.51252 0.0
H4951 H 0.17071 0.50168 0.47953 0.0
H4952 H 0.71581 0.98119 0.74794 0.0
H4953 H 0.73097 0.96205 0.75394 0.0
H4954 H 0.69204 0.93278 0.77004 0.0
H4955 H 0.67682 0.95194 0.76412 0.0
H4956 H 0.7172 0.9375 0.79042 0.0
H4957 H 0.70271 0.92077 0.735 0.0
H4958 H 0.69931 0.92405 0.70705 0.0
H4959 H 0.74776 0.94033 0.70796 0.0
H4960 H 0.75145 0.93742 0.73603 0.0
H4961 H 0.74695 0.86619 0.78713 0.0
H4962 H 0.73164 0.8861 0.78427 0.0
H4963 H 0.77101 0.91926 0.77332 0.0
H4964 H 0.78634 0.8994 0.7761 0.0
H4965 H 0.74508 0.91197 0.75048 0.0
H4966 H 0.75863 0.92843 0.80696 0.0
H4967 H 0.76079 0.92411 0.83468 0.0
H4968 H 0.71226 0.90618 0.83092 0.0
H4969 H 0.70983 0.91018 0.80309 0.0
C4970 C 0.71046 0.97055 0.75255 0.0
C4971 C 0.69519 0.96792 0.75553 0.0
C4972 C 0.71911 0.95969 0.756 0.0
C4973 C 0.71251 0.94601 0.76228 0.0
C4974 C 0.69726 0.94333 0.76521 0.0
C4975 C 0.68862 0.95422 0.76183 0.0
C4976 C 0.72167 0.93464 0.76606 0.0
C4977 C 0.72314 0.93173 0.78166 0.0
C4978 C 0.72949 0.92734 0.7546 0.0
C4979 C 0.72734 0.92902 0.73768 0.0
C4980 C 0.71264 0.92518 0.72929 0.0
C4981 C 0.71066 0.92696 0.71342 0.0
C4982 C 0.72331 0.93243 0.70575 0.0
C4983 C 0.73797 0.93611 0.71393 0.0
C4984 C 0.74001 0.93439 0.72982 0.0
C4985 C 0.75235 0.87786 0.7844 0.0
C4986 C 0.76775 0.88137 0.78181 0.0
C4987 C 0.74366 0.88917 0.78283 0.0
C4988 C 0.7503 0.90404 0.77861 0.0
C4989 C 0.7658 0.90781 0.77663 0.0
C4990 C 0.77452 0.89656 0.77832 0.0
C4991 C 0.74077 0.91505 0.77487 0.0
C4992 C 0.73915 0.91779 0.75923 0.0
C4993 C 0.73263 0.92195 0.78622 0.0
C4994 C 0.73407 0.91947 0.80291 0.0
C4995 C 0.74844 0.92343 0.812 0.0
C4996 C 0.74971 0.92107 0.82774 0.0
C4997 C 0.73668 0.91485 0.83455 0.0
C4998 C 0.72235 0.911 0.82563 0.0
C4999 C 0.72102 0.91332 0.80988 0.0
H5000 H 0.73768 0.91304 0.84674 0.0
H5001 H 0.72175 0.93379 0.69345 0.0
H5002 H 0.73568 0.95193 0.52476 0.0
H5003 H 0.71362 0.9638 0.52257 0.0
H5004 H 0.68454 0.91652 0.5049 0.0
H5005 H 0.70663 0.90447 0.50712 0.0
H5006 H 0.67598 0.93796 0.48893 0.0
H5007 H 0.68539 0.93512 0.54349 0.0
H5008 H 0.70029 0.93888 0.56965 0.0
H5009 H 0.71062 0.99042 0.57175 0.0
H5010 H 0.69595 0.98696 0.54548 0.0
H5011 H 0.60835 0.96788 0.50255 0.0
H5012 H 0.62821 0.95247 0.50241 0.0
H5013 H 0.66241 0.9967 0.51901 0.0
H5014 H 0.64274 0.012 0.51979 0.0
H5015 H 0.66667 0.97428 0.53562 0.0
H5016 H 0.65675 0.97596 0.47975 0.0
H5017 H 0.64093 0.97091 0.45394 0.0
H5018 H 0.63005 0.91988 0.45495 0.0
H5019 H 0.64564 0.92465 0.48088 0.0
C5020 C 0.7246 0.94397 0.52052 0.0
C5021 C 0.72303 0.92716 0.5163 0.0
C5022 C 0.71194 0.95082 0.51924 0.0
C5023 C 0.69727 0.94107 0.51383 0.0
C5024 C 0.69568 0.92434 0.50915 0.0
C5025 C 0.70838 0.91746 0.5104 0.0
C5026 C 0.68368 0.94839 0.51337 0.0
C5027 C 0.67383 0.94573 0.49921 0.0
C5028 C 0.68078 0.9586 0.52671 0.0
C5029 C 0.6897 0.96076 0.54246 0.0
C5030 C 0.69095 0.94725 0.54947 0.0
C5031 C 0.69933 0.94933 0.56433 0.0
C5032 C 0.70643 0.96488 0.57234 0.0
C5033 C 0.70514 0.97838 0.56552 0.0
C5034 C 0.69678 0.97637 0.55065 0.0
C5035 C 0.62009 0.97433 0.50623 0.0
C5036 C 0.62385 0.99128 0.51109 0.0
C5037 C 0.63148 0.9655 0.50598 0.0
C5038 C 0.6469 0.9734 0.51054 0.0
C5039 C 0.65064 0.99027 0.51536 0.0
C5040 C 0.63932 0.99906 0.51565 0.0
C5041 C 0.65921 0.96425 0.51106 0.0
C5042 C 0.66879 0.96651 0.52532 0.0
C5043 C 0.66168 0.95353 0.49786 0.0
C5044 C 0.65222 0.95069 0.48234 0.0
C5045 C 0.65086 0.96368 0.47454 0.0
C5046 C 0.64196 0.96086 0.45988 0.0
C5047 C 0.63445 0.94509 0.45283 0.0
C5048 C 0.63585 0.93209 0.46043 0.0
C5049 C 0.64472 0.93485 0.47511 0.0
H5050 H 0.62759 0.94293 0.44147 0.0
H5051 H 0.7129 0.96646 0.58385 0.0
H5052 H 0.38386 0.45327 0.74532 0.0
H5053 H 0.37084 0.42552 0.74651 0.0
H5054 H 0.3346 0.44266 0.76749 0.0
H5055 H 0.34724 0.47043 0.76598 0.0
H5056 H 0.34063 0.41971 0.78249 0.0
H5057 H 0.33151 0.42178 0.72703 0.0
H5058 H 0.33886 0.42639 0.70083 0.0
H5059 H 0.36526 0.39045 0.70072 0.0
H5060 H 0.35821 0.38578 0.72703 0.0
H5061 H 0.28425 0.3454 0.77328 0.0
H5062 H 0.29982 0.37226 0.77251 0.0
H5063 H 0.33342 0.3506 0.75098 0.0
H5064 H 0.31763 0.32344 0.75174 0.0
H5065 H 0.33034 0.37527 0.73636 0.0
H5066 H 0.33987 0.37228 0.79041 0.0
H5067 H 0.33642 0.3693 0.81803 0.0
H5068 H 0.31212 0.40715 0.82188 0.0
H5069 H 0.3152 0.4102 0.7942 0.0
C5070 C 0.373 0.45138 0.74998 0.0
C5071 C 0.36689 0.46481 0.75546 0.0
C5072 C 0.36546 0.43518 0.75069 0.0
C5073 C 0.3514 0.43145 0.75694 0.0
C5074 C 0.34535 0.44477 0.76259 0.0
C5075 C 0.35281 0.46096 0.76178 0.0
C5076 C 0.34313 0.41394 0.75786 0.0
C5077 C 0.33818 0.41013 0.77226 0.0
C5078 C 0.34029 0.40083 0.74488 0.0
C5079 C 0.34446 0.40355 0.72906 0.0
C5080 C 0.33897 0.41494 0.72146 0.0
C5081 C 0.34307 0.41756 0.70659 0.0
C5082 C 0.35256 0.40875 0.69914 0.0
C5083 C 0.35793 0.39728 0.70652 0.0
C5084 C 0.35388 0.39464 0.72141 0.0
C5085 C 0.29507 0.34622 0.76858 0.0
C5086 C 0.29961 0.33187 0.76289 0.0
C5087 C 0.30411 0.36182 0.76816 0.0
C5088 C 0.31817 0.364 0.76184 0.0
C5089 C 0.32278 0.34967 0.75605 0.0
C5090 C 0.31375 0.33394 0.75667 0.0
C5091 C 0.32756 0.38111 0.76098 0.0
C5092 C 0.33272 0.38484 0.7466 0.0
C5093 C 0.33077 0.39415 0.77405 0.0
C5094 C 0.32767 0.39138 0.79018 0.0
C5095 C 0.33355 0.37977 0.79705 0.0
C5096 C 0.33173 0.37813 0.81274 0.0
C5097 C 0.32415 0.38811 0.82171 0.0
C5098 C 0.31805 0.39948 0.81492 0.0
C5099 C 0.31981 0.40116 0.79923 0.0
H5100 H 0.3231 0.38711 0.83397 0.0
H5101 H 0.35572 0.41079 0.68762 0.0
H5102 H 0.21087 0.6165 0.28809 0.0
H5103 H 0.22992 0.64199 0.29021 0.0
H5104 H 0.22029 0.64095 0.24001 0.0
H5105 H 0.20185 0.61521 0.23767 0.0
H5106 H 0.24989 0.64638 0.24852 0.0
H5107 H 0.20769 0.6661 0.26702 0.0
H5108 H 0.18745 0.67002 0.28363 0.0
H5109 H 0.22082 0.68739 0.32452 0.0
H5110 H 0.24124 0.68326 0.3082 0.0
H5111 H 0.26716 0.72685 0.23653 0.0
H5112 H 0.25975 0.69828 0.23852 0.0
H5113 H 0.27977 0.70906 0.28736 0.0
H5114 H 0.28702 0.73767 0.28556 0.0
H5115 H 0.24931 0.6975 0.28349 0.0
H5116 H 0.29189 0.68223 0.2616 0.0
H5117 H 0.31059 0.68187 0.24238 0.0
H5118 H 0.27449 0.65926 0.20498 0.0
H5119 H 0.25554 0.65966 0.22394 0.0
C5120 C 0.21286 0.62174 0.27754 0.0
C5121 C 0.20498 0.61392 0.26272 0.0
C5122 C 0.22361 0.6363 0.27879 0.0
C5123 C 0.22644 0.64321 0.26525 0.0
C5124 C 0.21826 0.63567 0.25055 0.0
C5125 C 0.20763 0.62109 0.24927 0.0
C5126 C 0.23835 0.65799 0.26616 0.0
C5127 C 0.2498 0.6576 0.25616 0.0
C5128 C 0.23835 0.6724 0.27646 0.0
C5129 C 0.22597 0.67402 0.28644 0.0
C5130 C 0.21069 0.67045 0.2796 0.0
C5131 C 0.19919 0.67278 0.28895 0.0
C5132 C 0.20284 0.67885 0.30513 0.0
C5133 C 0.218 0.68259 0.312 0.0
C5134 C 0.22953 0.68022 0.30271 0.0
C5135 C 0.27034 0.72306 0.24754 0.0
C5136 C 0.27712 0.73439 0.26104 0.0
C5137 C 0.2663 0.70674 0.24861 0.0
C5138 C 0.26923 0.70171 0.26311 0.0
C5139 C 0.27747 0.71284 0.27611 0.0
C5140 C 0.28139 0.72914 0.27509 0.0
C5141 C 0.26062 0.68599 0.2656 0.0
C5142 C 0.24974 0.68616 0.27626 0.0
C5143 C 0.2609 0.67155 0.25562 0.0
C5144 C 0.27229 0.67096 0.24422 0.0
C5145 C 0.28793 0.67722 0.24927 0.0
C5146 C 0.29858 0.67701 0.23842 0.0
C5147 C 0.29373 0.67054 0.22247 0.0
C5148 C 0.27823 0.66423 0.21735 0.0
C5149 C 0.26753 0.66441 0.22815 0.0
H5150 H 0.30199 0.6704 0.21408 0.0
H5151 H 0.19392 0.68072 0.31233 0.0
H5152 H 0.49086 0.6769 0.43995 0.0
H5153 H 0.49418 0.65449 0.45326 0.0
H5154 H 0.53917 0.68141 0.4739 0.0
H5155 H 0.53577 0.7042 0.46125 0.0
H5156 H 0.53938 0.65074 0.46066 0.0
H5157 H 0.51137 0.67568 0.49697 0.0
H5158 H 0.49062 0.68754 0.50643 0.0
H5159 H 0.45835 0.64227 0.48953 0.0
H5160 H 0.47889 0.63019 0.47976 0.0
H5161 H 0.55156 0.59344 0.5093 0.0
H5162 H 0.54846 0.61845 0.50051 0.0
H5163 H 0.50203 0.59533 0.48115 0.0
H5164 H 0.50491 0.57039 0.49024 0.0
H5165 H 0.50347 0.62524 0.49514 0.0
H5166 H 0.53242 0.60098 0.45772 0.0
H5167 H 0.55397 0.58968 0.44963 0.0
H5168 H 0.58533 0.63463 0.47004 0.0
H5169 H 0.56396 0.64613 0.47843 0.0
C5170 C 0.50137 0.6783 0.44755 0.0
C5171 C 0.51305 0.69254 0.44933 0.0
C5172 C 0.50327 0.66536 0.45513 0.0
C5173 C 0.51692 0.66621 0.46464 0.0
C5174 C 0.52855 0.68038 0.46657 0.0
C5175 C 0.5266 0.69341 0.45916 0.0
C5176 C 0.51929 0.65208 0.47202 0.0
C5177 C 0.53164 0.64532 0.46838 0.0
C5178 C 0.50911 0.6448 0.48194 0.0
C5179 C 0.49665 0.6521 0.48744 0.0
C5180 C 0.49982 0.66831 0.49508 0.0
C5181 C 0.4881 0.67506 0.50055 0.0
C5182 C 0.47316 0.66568 0.49854 0.0
C5183 C 0.46992 0.64953 0.49106 0.0
C5184 C 0.4816 0.64273 0.48555 0.0
C5185 C 0.54064 0.59367 0.50325 0.0
C5186 C 0.52852 0.57979 0.50041 0.0
C5187 C 0.53892 0.608 0.49813 0.0
C5188 C 0.52509 0.60878 0.48986 0.0
C5189 C 0.51284 0.59508 0.48742 0.0
C5190 C 0.51453 0.58077 0.49261 0.0
C5191 C 0.52341 0.62372 0.48355 0.0
C5192 C 0.51121 0.63066 0.48741 0.0
C5193 C 0.53378 0.63124 0.47391 0.0
C5194 C 0.54661 0.62435 0.46883 0.0
C5195 C 0.54392 0.60841 0.46057 0.0
C5196 C 0.5561 0.60198 0.45592 0.0
C5197 C 0.57101 0.61142 0.45936 0.0
C5198 C 0.57377 0.62733 0.46741 0.0
C5199 C 0.56164 0.63381 0.47211 0.0
H5200 H 0.58043 0.60642 0.45574 0.0
H5201 H 0.46411 0.67092 0.50282 0.0
H5202 H 0.64815 0.32546 0.67152 0.0
H5203 H 0.67108 0.32243 0.6867 0.0
H5204 H 0.65258 0.27096 0.68089 0.0
H5205 H 0.62931 0.27398 0.66639 0.0
H5206 H 0.66578 0.28061 0.70949 0.0
H5207 H 0.68165 0.28894 0.6593 0.0
H5208 H 0.68588 0.30234 0.63608 0.0
H5209 H 0.71407 0.34465 0.66597 0.0
H5210 H 0.70981 0.3316 0.68941 0.0
H5211 H 0.7387 0.26568 0.73664 0.0
H5212 H 0.71567 0.26548 0.71899 0.0
H5213 H 0.72613 0.31766 0.72873 0.0
H5214 H 0.74876 0.31785 0.74645 0.0
H5215 H 0.71718 0.30547 0.69688 0.0
H5216 H 0.69998 0.29687 0.74719 0.0
H5217 H 0.6962 0.28266 0.76995 0.0
H5218 H 0.67094 0.2396 0.73885 0.0
H5219 H 0.67476 0.25351 0.71586 0.0
C5220 C 0.64882 0.31349 0.67358 0.0
C5221 C 0.63673 0.29998 0.66753 0.0
C5222 C 0.66212 0.31173 0.68214 0.0
C5223 C 0.66384 0.29639 0.68479 0.0
C5224 C 0.65171 0.28293 0.67899 0.0
C5225 C 0.63838 0.28468 0.6705 0.0
C5226 C 0.67815 0.29442 0.69374 0.0
C5227 C 0.67699 0.28584 0.70651 0.0
C5228 C 0.69293 0.30134 0.69015 0.0
C5229 C 0.69526 0.30935 0.67613 0.0
C5230 C 0.68861 0.30116 0.66094 0.0
C5231 C 0.69104 0.30868 0.64773 0.0
C5232 C 0.7002 0.32435 0.64955 0.0
C5233 C 0.70695 0.33253 0.66458 0.0
C5234 C 0.70453 0.32508 0.67783 0.0
C5235 C 0.73616 0.27707 0.73478 0.0
C5236 C 0.74554 0.29179 0.7429 0.0
C5237 C 0.72295 0.27696 0.72482 0.0
C5238 C 0.71904 0.29158 0.72259 0.0
C5239 C 0.72881 0.30623 0.73022 0.0
C5240 C 0.74177 0.30633 0.74036 0.0
C5241 C 0.70474 0.29186 0.71262 0.0
C5242 C 0.70593 0.30014 0.69971 0.0
C5243 C 0.69002 0.28455 0.71599 0.0
C5244 C 0.68784 0.27616 0.72978 0.0
C5245 C 0.69376 0.28432 0.74518 0.0
C5246 C 0.69158 0.27633 0.75813 0.0
C5247 C 0.68338 0.26022 0.75584 0.0
C5248 C 0.67732 0.25207 0.7406 0.0
C5249 C 0.67949 0.26 0.72761 0.0
H5250 H 0.68169 0.25407 0.76588 0.0
H5251 H 0.70209 0.33014 0.63931 0.0
H5252 H 0.02084 0.34547 0.98308 0.0
H5253 H 0.02259 0.37359 0.9952 0.0
H5254 H 0.02612 0.3882 0.94953 0.0
H5255 H 0.02442 0.3603 0.9374 0.0
H5256 H 0.04574 0.40933 0.97127 0.0
H5257 H 0.99223 0.38217 0.96658 0.0
H5258 H 0.97044 0.36133 0.97141 0.0
H5259 H 0.9815 0.37748 0.02155 0.0
H5260 H 0.00349 0.39826 0.01701 0.0
H5261 H 0.01184 0.47931 0.98034 0.0
H5262 H 0.01125 0.45029 0.97405 0.0
H5263 H 0.03742 0.45315 0.01903 0.0
H5264 H 0.03869 0.48228 0.02505 0.0
H5265 H 0.00421 0.4236 1.00052 0.0
H5266 H 0.05944 0.44907 0.0049 0.0
H5267 H 0.08074 0.47016 0.99958 0.0
H5268 H 0.06591 0.457 0.9497 0.0
H5269 H 0.04427 0.43608 0.95481 0.0
C5270 C 0.02199 0.35469 0.97563 0.0
C5271 C 0.02251 0.35062 0.95927 0.0
C5272 C 0.02299 0.37075 0.98258 0.0
C5273 C 0.02434 0.383 0.97325 0.0
C5274 C 0.02515 0.37899 0.95699 0.0
C5275 C 0.02423 0.36301 0.95007 0.0
C5276 C 0.0246 0.39997 0.9802 0.0
C5277 C 0.03665 0.41238 0.97768 0.0
C5278 C 0.01287 0.40405 0.98877 0.0
C5279 C 0.99959 0.39164 0.99147 0.0
C5280 C 0.99007 0.38119 0.97864 0.0
C5281 C 0.97768 0.36941 0.98132 0.0
C5282 C 0.97462 0.36805 0.99678 0.0
C5283 C 0.9839 0.37852 0.00958 0.0
C5284 C 0.99633 0.3903 0.00696 0.0
C5285 C 0.01727 0.47366 0.98895 0.0
C5286 C 0.02536 0.48294 0.00314 0.0
C5287 C 0.01697 0.45716 0.98534 0.0
C5288 C 0.02446 0.44973 0.99602 0.0
C5289 C 0.03177 0.45878 0.01058 0.0
C5290 C 0.03244 0.47534 0.014 0.0
C5291 C 0.02528 0.43271 0.99153 0.0
C5292 C 0.0134 0.4204 0.99437 0.0
C5293 C 0.03717 0.42867 0.98335 0.0
C5294 C 0.05009 0.44126 0.98026 0.0
C5295 C 0.06058 0.45087 0.99283 0.0
C5296 C 0.07274 0.46275 0.98985 0.0
C5297 C 0.07463 0.46498 0.97432 0.0
C5298 C 0.06438 0.45531 0.96173 0.0
C5299 C 0.05216 0.44347 0.96467 0.0
H5300 H 0.08408 0.47414 0.97201 0.0
H5301 H 0.96502 0.35892 0.99883 0.0
H5302 H 0.99966 0.79522 0.18381 0.0
H5303 H 0.97574 0.79113 0.19552 0.0
H5304 H 0.95051 0.78194 0.14903 0.0
H5305 H 0.97443 0.78615 0.13725 0.0
H5306 H 0.93753 0.7997 0.16732 0.0
H5307 H 0.95234 0.75102 0.17139 0.0
H5308 H 0.96898 0.73301 0.17764 0.0
H5309 H 0.97302 0.75282 0.22705 0.0
H5310 H 0.95656 0.77113 0.22107 0.0
H5311 H 0.86673 0.77181 0.19848 0.0
H5312 H 0.88886 0.77269 0.18381 0.0
H5313 H 0.91883 0.78898 0.22756 0.0
H5314 H 0.89689 0.78848 0.24222 0.0
H5315 H 0.92795 0.76533 0.20862 0.0
H5316 H 0.9125 0.81517 0.20175 0.0
H5317 H 0.89375 0.83017 0.19331 0.0
H5318 H 0.88856 0.80378 0.14597 0.0
H5319 H 0.90715 0.7885 0.15419 0.0
C5320 C 0.98905 0.79216 0.17602 0.0
C5321 C 0.98912 0.79103 0.15953 0.0
C5322 C 0.97529 0.78979 0.18276 0.0
C5323 C 0.96113 0.78599 0.17323 0.0
C5324 C 0.96117 0.78489 0.15675 0.0
C5325 C 0.97493 0.78735 0.15 0.0
C5326 C 0.9464 0.78355 0.18048 0.0
C5327 C 0.93542 0.79198 0.17618 0.0
C5328 C 0.94336 0.77346 0.19206 0.0
C5329 C 0.95335 0.76257 0.19575 0.0
C5330 C 0.95689 0.75164 0.18357 0.0
C5331 C 0.96626 0.74136 0.18707 0.0
C5332 C 0.97209 0.7418 0.20273 0.0
C5333 C 0.96852 0.75251 0.21492 0.0
C5334 C 0.95916 0.76284 0.21149 0.0
C5335 C 0.878 0.77579 0.205 0.0
C5336 C 0.87984 0.78004 0.22163 0.0
C5337 C 0.89071 0.77621 0.19657 0.0
C5338 C 0.90563 0.78098 0.20452 0.0
C5339 C 0.9075 0.78516 0.22109 0.0
C5340 C 0.89484 0.78481 0.2295 0.0
C5341 C 0.91937 0.7818 0.19575 0.0
C5342 C 0.93013 0.77301 0.19973 0.0
C5343 C 0.92199 0.79118 0.18358 0.0
C5344 C 0.91111 0.80063 0.1786 0.0
C5345 C 0.90731 0.81254 0.18956 0.0
C5346 C 0.89672 0.82109 0.18482 0.0
C5347 C 0.88995 0.81791 0.16913 0.0
C5348 C 0.8938 0.80622 0.15812 0.0
C5349 C 0.90438 0.79763 0.16281 0.0
H5350 H 0.88173 0.82452 0.16548 0.0
H5351 H 0.97934 0.73382 0.20541 0.0
H5352 H 0.49887 0.34586 0.11544 0.0
H5353 H 0.50537 0.36999 0.10314 0.0
H5354 H 0.5322 0.34628 0.07244 0.0
H5355 H 0.52616 0.32236 0.08518 0.0
H5356 H 0.5468 0.37615 0.08291 0.0
H5357 H 0.49579 0.34995 0.05942 0.0
H5358 H 0.46849 0.33744 0.05905 0.0
H5359 H 0.46172 0.38194 0.08409 0.0
H5360 H 0.48903 0.39466 0.08477 0.0
H5361 H 0.5443 0.42241 0.0204 0.0
H5362 H 0.54287 0.40197 0.03748 0.0
H5363 H 0.52381 0.43125 0.07188 0.0
H5364 H 0.52565 0.45205 0.05512 0.0
H5365 H 0.50598 0.39979 0.06084 0.0
H5366 H 0.55759 0.42629 0.0818 0.0
H5367 H 0.58482 0.438 0.08081 0.0
H5368 H 0.59029 0.39187 0.05832 0.0
H5369 H 0.56303 0.37992 0.05898 0.0
C5370 C 0.50608 0.34583 0.106 0.0
C5371 C 0.51195 0.33234 0.10111 0.0
C5372 C 0.50977 0.35956 0.09899 0.0
C5373 C 0.51907 0.35979 0.08673 0.0
C5374 C 0.52501 0.34632 0.0819 0.0
C5375 C 0.52153 0.33269 0.0891 0.0
C5376 C 0.52256 0.37408 0.07889 0.0
C5377 C 0.53788 0.38123 0.07791 0.0
C5378 C 0.5109 0.38084 0.07267 0.0
C5379 C 0.49448 0.37321 0.07228 0.0
C5380 C 0.4885 0.35703 0.06495 0.0
C5381 C 0.47302 0.34991 0.06467 0.0
C5382 C 0.46338 0.35888 0.07158 0.0
C5383 C 0.4692 0.375 0.07876 0.0
C5384 C 0.48467 0.38218 0.07909 0.0
C5385 C 0.54018 0.42472 0.03178 0.0
C5386 C 0.53493 0.43877 0.03635 0.0
C5387 C 0.53938 0.41303 0.0415 0.0
C5388 C 0.53328 0.41521 0.05588 0.0
C5389 C 0.52855 0.42944 0.06078 0.0
C5390 C 0.52947 0.4412 0.05113 0.0
C5391 C 0.53018 0.40181 0.06486 0.0
C5392 C 0.5149 0.39478 0.06596 0.0
C5393 C 0.54185 0.39504 0.07091 0.0
C5394 C 0.55822 0.40225 0.07031 0.0
C5395 C 0.56455 0.41868 0.07649 0.0
C5396 C 0.58001 0.42535 0.07603 0.0
C5397 C 0.58927 0.41569 0.06947 0.0
C5398 C 0.5831 0.39934 0.06338 0.0
C5399 C 0.56765 0.39261 0.06381 0.0
H5400 H 0.60124 0.42088 0.06915 0.0
H5401 H 0.4514 0.35334 0.07134 0.0
H5402 H 0.98923 0.29024 0.34373 0.0
H5403 H 0.96421 0.2886 0.33013 0.0
H5404 H 0.98269 0.28733 0.28544 0.0
H5405 H 0.00805 0.28892 0.2991 0.0
H5406 H 0.96565 0.30969 0.29018 0.0
H5407 H 0.95875 0.25356 0.2926 0.0
H5408 H 0.96035 0.22989 0.30518 0.0
H5409 H 0.93079 0.2433 0.33867 0.0
H5410 H 0.9292 0.26719 0.32645 0.0
H5411 H 0.8873 0.3064 0.263 0.0
H5412 H 0.91209 0.29915 0.26476 0.0
H5413 H 0.91036 0.29793 0.31457 0.0
H5414 H 0.88574 0.30514 0.31288 0.0
H5415 H 0.91871 0.27171 0.29944 0.0
H5416 H 0.93132 0.33026 0.30242 0.0
H5417 H 0.93022 0.35536 0.29212 0.0
H5418 H 0.94929 0.33838 0.25062 0.0
H5419 H 0.95032 0.31307 0.26061 0.0
C5420 C 0.98795 0.28919 0.33096 0.0
C5421 C 1.00054 0.28951 0.32243 0.0
C5422 C 0.97363 0.28826 0.3232 0.0
C5423 C 0.97159 0.28749 0.30676 0.0
C5424 C 0.98408 0.28774 0.29813 0.0
C5425 C 0.9985 0.2887 0.30593 0.0
C5426 C 0.95654 0.28781 0.29905 0.0
C5427 C 0.95538 0.30111 0.29174 0.0
C5428 C 0.9432 0.27674 0.30137 0.0
C5429 C 0.94387 0.26218 0.30858 0.0
C5430 C 0.95263 0.25149 0.30268 0.0
C5431 C 0.95354 0.23804 0.30975 0.0
C5432 C 0.94567 0.23509 0.32271 0.0
C5433 C 0.93686 0.24558 0.32861 0.0
C5434 C 0.93592 0.25906 0.32158 0.0
C5435 C 0.89234 0.30473 0.27433 0.0
C5436 C 0.8847 0.30631 0.28782 0.0
C5437 C 0.90638 0.3005 0.27529 0.0
C5438 C 0.91293 0.29796 0.28977 0.0
C5439 C 0.90535 0.29967 0.30325 0.0
C5440 C 0.89136 0.30383 0.30229 0.0
C5441 C 0.92791 0.29395 0.29127 0.0
C5442 C 0.92901 0.27994 0.29736 0.0
C5443 C 0.94118 0.30447 0.28805 0.0
C5444 C 0.94071 0.31972 0.28215 0.0
C5445 C 0.93517 0.33184 0.29104 0.0
C5446 C 0.93458 0.3461 0.28528 0.0
C5447 C 0.93963 0.34844 0.2707 0.0
C5448 C 0.94535 0.33654 0.26189 0.0
C5449 C 0.94594 0.32224 0.2676 0.0
H5450 H 0.93916 0.35948 0.26625 0.0
H5451 H 0.94641 0.22468 0.32819 0.0
H5452 H 0.98161 0.68271 0.57418 0.0
H5453 H 0.98482 0.6573 0.55944 0.0
H5454 H 0.01104 0.64944 0.60056 0.0
H5455 H 0.00761 0.67461 0.61552 0.0
H5456 H 0.02562 0.64834 0.57327 0.0
H5457 H 0.97656 0.62615 0.58932 0.0
H5458 H 0.94938 0.62474 0.59185 0.0
H5459 H 0.93943 0.61768 0.54128 0.0
H5460 H 0.96659 0.61927 0.53846 0.0
H5461 H 0.03782 0.57347 0.53949 0.0
H5462 H 0.03102 0.5951 0.55705 0.0
H5463 H 0.99523 0.59672 0.52117 0.0
H5464 H 1.00081 0.57368 0.50448 0.0
H5465 H 0.98517 0.60076 0.54696 0.0
H5466 H 0.03285 0.62485 0.5297 0.0
H5467 H 0.05986 0.62746 0.52553 0.0
H5468 H 0.07238 0.63304 0.57563 0.0
H5469 H 0.04542 0.63026 0.58009 0.0
C5470 C 0.98776 0.67539 0.58018 0.0
C5471 C 0.99448 0.68068 0.59594 0.0
C5472 C 0.98959 0.66092 0.57175 0.0
C5473 C 0.99813 0.6516 0.57899 0.0
C5474 C 0.00445 0.65657 0.59484 0.0
C5475 C 1.00256 0.67097 0.60329 0.0
C5476 C 1.00156 0.63735 0.56967 0.0
C5477 C 0.01683 0.6378 0.56767 0.0
C5478 C 0.98997 0.62399 0.56199 0.0
C5479 C 0.97363 0.62297 0.56369 0.0
C5480 C 0.9686 0.62443 0.57875 0.0
C5481 C 0.95319 0.62357 0.58023 0.0
C5482 C 0.94269 0.62116 0.56674 0.0
C5483 C 0.94757 0.61956 0.55173 0.0
C5484 C 0.96297 0.62042 0.55018 0.0
C5485 C 0.02829 0.57822 0.53555 0.0
C5486 C 0.01965 0.5718 0.52082 0.0
C5487 C 0.02459 0.59079 0.54544 0.0
C5488 C 0.01282 0.5978 0.5403 0.0
C5489 C 0.00433 0.59148 0.52543 0.0
C5490 C 0.00758 0.57842 0.51586 0.0
C5491 C 0.00931 0.61172 0.55035 0.0
C5492 C 0.99402 0.61125 0.55252 0.0
C5493 C 0.02087 0.62531 0.55786 0.0
C5494 C 0.03711 0.62721 0.55521 0.0
C5495 C 0.04136 0.62656 0.53982 0.0
C5496 C 0.05666 0.62807 0.5374 0.0
C5497 C 0.06782 0.63037 0.5503 0.0
C5498 C 0.06372 0.63123 0.56565 0.0
C5499 C 0.04844 0.62971 0.56813 0.0
H5500 H 0.07965 0.63152 0.5484 0.0
H5501 H 0.93077 0.6205 0.56791 0.0
H5502 H 0.65778 0.82934 0.84394 0.0
H5503 H 0.67719 0.82879 0.82583 0.0
H5504 H 0.64415 0.79476 0.79087 0.0
H5505 H 0.62469 0.79536 0.80884 0.0
H5506 H 0.66914 0.78368 0.80022 0.0
H5507 H 0.65891 0.83179 0.7836 0.0
H5508 H 0.65595 0.85992 0.78708 0.0
H5509 H 0.70232 0.87698 0.80873 0.0
H5510 H 0.70547 0.84896 0.80568 0.0
H5511 H 0.72762 0.7727 0.75391 0.0
H5512 H 0.70346 0.77829 0.76106 0.0
H5513 H 0.72818 0.82123 0.79342 0.0
H5514 H 0.75215 0.81628 0.78544 0.0
H5515 H 0.70462 0.82742 0.78114 0.0
H5516 H 0.71424 0.78245 0.80468 0.0
H5517 H 0.71888 0.7553 0.80538 0.0
H5518 H 0.67632 0.73361 0.77635 0.0
H5519 H 0.67152 0.76066 0.77532 0.0
C5520 C 0.65459 0.82209 0.83223 0.0
C5521 C 0.63988 0.81217 0.82783 0.0
C5522 C 0.66563 0.82185 0.8219 0.0
C5523 C 0.66199 0.81178 0.80706 0.0
C5524 C 0.64708 0.80262 0.8023 0.0
C5525 C 0.63607 0.80285 0.8126 0.0
C5526 C 0.67421 0.8088 0.79767 0.0
C5527 C 0.67673 0.79314 0.7957 0.0
C5528 C 0.68436 0.82137 0.79246 0.0
C5529 C 0.68237 0.83823 0.7945 0.0
C5530 C 0.66842 0.84152 0.78926 0.0
C5531 C 0.66672 0.85746 0.79113 0.0
C5532 C 0.67893 0.87023 0.79815 0.0
C5533 C 0.69286 0.86709 0.80331 0.0
C5534 C 0.69461 0.85118 0.80151 0.0
C5535 C 0.72779 0.78343 0.76237 0.0
C5536 C 0.74161 0.79404 0.76925 0.0
C5537 C 0.71405 0.78657 0.7665 0.0
C5538 C 0.71405 0.79997 0.77803 0.0
C5539 C 0.7279 0.81083 0.78448 0.0
C5540 C 0.74158 0.80798 0.77998 0.0
C5541 C 0.69982 0.80238 0.78406 0.0
C5542 C 0.69689 0.81788 0.7854 0.0
C5543 C 0.68962 0.78983 0.78935 0.0
C5544 C 0.69264 0.77358 0.78972 0.0
C5545 C 0.70595 0.7719 0.79831 0.0
C5546 C 0.70859 0.75652 0.7988 0.0
C5547 C 0.69793 0.74274 0.79086 0.0
C5548 C 0.68459 0.7443 0.78245 0.0
C5549 C 0.68191 0.75964 0.7819 0.0
H5550 H 0.69999 0.73084 0.79127 0.0
H5551 H 0.6776 0.88257 0.79955 0.0
H5552 H 0.4498 0.52719 0.6663 0.0
H5553 H 0.46177 0.52516 0.64201 0.0
H5554 H 0.48366 0.57585 0.65326 0.0
H5555 H 0.47189 0.57801 0.67777 0.0
H5556 H 0.47685 0.57089 0.62356 0.0
H5557 H 0.50299 0.54257 0.65445 0.0
H5558 H 0.50768 0.52295 0.67137 0.0
H5559 H 0.48558 0.48361 0.63421 0.0
H5560 H 0.48054 0.50302 0.61713 0.0
H5561 H 0.53226 0.56758 0.56821 0.0
H5562 H 0.51902 0.56868 0.5918 0.0
H5563 H 0.48883 0.52263 0.57224 0.0
H5564 H 0.50208 0.52163 0.54814 0.0
H5565 H 0.49987 0.525 0.60569 0.0
H5566 H 0.47593 0.55739 0.57463 0.0
H5567 H 0.47635 0.57946 0.55919 0.0
H5568 H 0.50026 0.61413 0.59943 0.0
H5569 H 0.50017 0.59223 0.61505 0.0
C5570 C 0.4573 0.53802 0.66398 0.0
C5571 C 0.45959 0.55282 0.67474 0.0
C5572 C 0.46429 0.53679 0.64973 0.0
C5573 C 0.47406 0.55025 0.64529 0.0
C5574 C 0.47628 0.56508 0.65589 0.0
C5575 C 0.46934 0.56631 0.67018 0.0
C5576 C 0.48165 0.54894 0.62972 0.0
C5577 C 0.48193 0.56083 0.6199 0.0
C5578 C 0.48858 0.536 0.62428 0.0
C5579 C 0.49117 0.52425 0.6346 0.0
C5580 C 0.49895 0.52973 0.64995 0.0
C5581 C 0.50171 0.51865 0.65956 0.0
C5582 C 0.49687 0.50204 0.65389 0.0
C5583 C 0.48927 0.49648 0.6386 0.0
C5584 C 0.48645 0.50752 0.62895 0.0
C5585 C 0.52262 0.55772 0.56865 0.0
C5586 C 0.51827 0.54465 0.55578 0.0
C5587 C 0.51499 0.55836 0.58239 0.0
C5588 C 0.50266 0.54582 0.58426 0.0
C5589 C 0.49821 0.53262 0.57144 0.0
C5590 C 0.50574 0.53211 0.55743 0.0
C5591 C 0.4947 0.54671 0.59952 0.0
C5592 C 0.49452 0.53486 0.60933 0.0
C5593 C 0.48835 0.55997 0.60523 0.0
C5594 C 0.48811 0.57316 0.59597 0.0
C5595 C 0.48133 0.56971 0.58016 0.0
C5596 C 0.48151 0.58219 0.57138 0.0
C5597 C 0.48835 0.59819 0.57832 0.0
C5598 C 0.49498 0.60174 0.59407 0.0
C5599 C 0.49484 0.5893 0.6029 0.0
H5600 H 0.48849 0.60783 0.57149 0.0
H5601 H 0.49905 0.49348 0.66134 0.0
H5602 H 0.77176 0.17001 0.93593 0.0
H5603 H 0.76139 0.17689 0.91137 0.0
H5604 H 0.77062 0.22708 0.93349 0.0
H5605 H 0.78077 0.22019 0.95816 0.0
H5606 H 0.74158 0.21596 0.92038 0.0
H5607 H 0.79171 0.21304 0.90514 0.0
H5608 H 0.81264 0.19957 0.89976 0.0
H5609 H 0.78221 0.16281 0.86528 0.0
H5610 H 0.76104 0.17595 0.87062 0.0
H5611 H 0.74945 0.26782 0.86692 0.0
H5612 H 0.74781 0.25032 0.88654 0.0
H5613 H 0.73512 0.20826 0.84964 0.0
H5614 H 0.73704 0.22599 0.82965 0.0
H5615 H 0.7594 0.2075 0.86753 0.0
H5616 H 0.71088 0.21513 0.87897 0.0
H5617 H 0.69093 0.23014 0.88384 0.0
H5618 H 0.7188 0.25932 0.92522 0.0
H5619 H 0.73899 0.24464 0.92052 0.0
C5620 C 0.77195 0.18257 0.93538 0.0
C5621 C 0.77704 0.19463 0.94884 0.0
C5622 C 0.76597 0.18645 0.9214 0.0
C5623 C 0.7652 0.20245 0.92071 0.0
C5624 C 0.77102 0.21463 0.93391 0.0
C5625 C 0.77686 0.21074 0.94791 0.0
C5626 C 0.75749 0.20651 0.90666 0.0
C5627 C 0.74546 0.21418 0.9088 0.0
C5628 C 0.76206 0.20332 0.89145 0.0
C5629 C 0.77475 0.19534 0.88844 0.0
C5630 C 0.78945 0.20198 0.89654 0.0
C5631 C 0.80136 0.19443 0.89347 0.0
C5632 C 0.79874 0.18031 0.88223 0.0
C5633 C 0.78421 0.17372 0.87402 0.0
C5634 C 0.77226 0.18121 0.87706 0.0
C5635 C 0.74565 0.25487 0.86293 0.0
C5636 C 0.74343 0.24824 0.84678 0.0
C5637 C 0.74464 0.24483 0.87421 0.0
C5638 C 0.74116 0.22796 0.86956 0.0
C5639 C 0.73775 0.22126 0.85343 0.0
C5640 C 0.73889 0.23136 0.84207 0.0
C5641 C 0.74405 0.2179 0.88143 0.0
C5642 C 0.75511 0.2089 0.87894 0.0
C5643 C 0.73866 0.21997 0.89636 0.0
C5644 C 0.72645 0.22872 0.89939 0.0
C5645 C 0.71278 0.22477 0.88908 0.0
C5646 C 0.70142 0.23323 0.89182 0.0
C5647 C 0.70359 0.24566 0.90484 0.0
C5648 C 0.71712 0.24965 0.91517 0.0
C5649 C 0.7285 0.24123 0.9125 0.0
H5650 H 0.6948 0.25221 0.90692 0.0
H5651 H 0.80799 0.1745 0.87986 0.0
H5652 H 0.08941 0.51498 0.17171 0.0
H5653 H 0.07503 0.51575 0.14664 0.0
H5654 H 0.11232 0.55213 0.13655 0.0
H5655 H 0.12705 0.5511 0.16139 0.0
H5656 H 0.08191 0.55822 0.13192 0.0
H5657 H 0.11006 0.51762 0.11817 0.0
H5658 H 0.11922 0.49327 0.12191 0.0
H5659 H 0.07308 0.46497 0.11504 0.0
H5660 H 0.06363 0.48924 0.11149 0.0
H5661 H 0.05881 0.5535 0.05066 0.0
H5662 H 0.07364 0.55347 0.07569 0.0
H5663 H 0.03903 0.51358 0.08459 0.0
H5664 H 0.02414 0.51346 0.05942 0.0
H5665 H 0.06848 0.50949 0.08987 0.0
H5666 H 0.04003 0.54928 0.10346 0.0
H5667 H 0.03007 0.57361 0.102 0.0
H5668 H 0.07567 0.60328 0.1104 0.0
H5669 H 0.08594 0.57907 0.11164 0.0
C5670 C 0.09461 0.523 0.16406 0.0
C5671 C 0.10936 0.53287 0.16834 0.0
C5672 C 0.08637 0.5235 0.14988 0.0
C5673 C 0.09277 0.53392 0.13991 0.0
C5674 C 0.10732 0.54407 0.14426 0.0
C5675 C 0.11564 0.54348 0.15839 0.0
C5676 C 0.0843 0.5339 0.12474 0.0
C5677 C 0.07915 0.54772 0.12257 0.0
C5678 C 0.08048 0.51994 0.11294 0.0
C5679 C 0.08614 0.50526 0.1147 0.0
C5680 C 0.10186 0.50623 0.11756 0.0
C5681 C 0.10711 0.49244 0.11963 0.0
C5682 C 0.09674 0.47759 0.11875 0.0
C5683 C 0.0811 0.47649 0.11573 0.0
C5684 C 0.07579 0.49025 0.11367 0.0
C5685 C 0.0544 0.54472 0.05796 0.0
C5686 C 0.04038 0.53351 0.0533 0.0
C5687 C 0.06282 0.54476 0.07221 0.0
C5688 C 0.05725 0.53364 0.0819 0.0
C5689 C 0.04337 0.52226 0.07717 0.0
C5690 C 0.03491 0.52225 0.06291 0.0
C5691 C 0.06604 0.53386 0.09699 0.0
C5692 C 0.07128 0.52006 0.09915 0.0
C5693 C 0.06986 0.54782 0.10883 0.0
C5694 C 0.06376 0.56234 0.10751 0.0
C5695 C 0.04795 0.56096 0.10479 0.0
C5696 C 0.04224 0.57474 0.10406 0.0
C5697 C 0.05223 0.58998 0.10617 0.0
C5698 C 0.06795 0.59146 0.10882 0.0
C5699 C 0.07372 0.57772 0.10953 0.0
H5700 H 0.04779 0.60066 0.10582 0.0
H5701 H 0.10082 0.46693 0.12038 0.0
H5702 H 0.76388 0.83997 0.43508 0.0
H5703 H 0.7644 0.82848 0.40746 0.0
H5704 H 0.80384 0.8108 0.42098 0.0
H5705 H 0.80323 0.82194 0.44868 0.0
H5706 H 0.80832 0.8284 0.39729 0.0
H5707 H 0.7695 0.78474 0.40821 0.0
H5708 H 0.7452 0.77193 0.41694 0.0
H5709 H 0.72046 0.79034 0.38188 0.0
H5710 H 0.74462 0.80347 0.37309 0.0
H5711 H 0.81151 0.79004 0.318 0.0
H5712 H 0.81088 0.79566 0.34677 0.0
H5713 H 0.76798 0.8092 0.33912 0.0
H5714 H 0.76833 0.80326 0.31074 0.0
H5715 H 0.76595 0.79126 0.36049 0.0
H5716 H 0.80271 0.83743 0.35157 0.0
H5717 H 0.82603 0.85187 0.34227 0.0
H5718 H 0.85335 0.8313 0.37306 0.0
H5719 H 0.83013 0.81651 0.38236 0.0
C5720 C 0.77245 0.8333 0.43228 0.0
C5721 C 0.78359 0.83201 0.44416 0.0
C5722 C 0.77275 0.82676 0.41643 0.0
C5723 C 0.78416 0.81876 0.41214 0.0
C5724 C 0.79497 0.81699 0.42401 0.0
C5725 C 0.79465 0.82345 0.43984 0.0
C5726 C 0.78558 0.81343 0.39519 0.0
C5727 C 0.79915 0.82003 0.3893 0.0
C5728 C 0.77344 0.80293 0.38465 0.0
C5729 C 0.75891 0.79523 0.3901 0.0
C5730 C 0.7589 0.78621 0.40247 0.0
C5731 C 0.74514 0.77885 0.40741 0.0
C5732 C 0.7313 0.78036 0.4 0.0
C5733 C 0.73119 0.78921 0.38763 0.0
C5734 C 0.74491 0.7966 0.38266 0.0
C5735 C 0.80204 0.79433 0.32251 0.0
C5736 C 0.78998 0.79616 0.31207 0.0
C5737 C 0.80166 0.79754 0.33894 0.0
C5738 C 0.78937 0.80289 0.34517 0.0
C5739 C 0.77751 0.80494 0.33469 0.0
C5740 C 0.77779 0.8016 0.3184 0.0
C5741 C 0.78862 0.80641 0.36254 0.0
C5742 C 0.77518 0.79949 0.36851 0.0
C5743 C 0.80072 0.81691 0.37311 0.0
C5744 C 0.81469 0.82572 0.36751 0.0
C5745 C 0.81369 0.83588 0.35625 0.0
C5746 C 0.82689 0.84415 0.351 0.0
C5747 C 0.84117 0.84248 0.35704 0.0
C5748 C 0.84228 0.83256 0.36837 0.0
C5749 C 0.8291 0.82422 0.37363 0.0
H5750 H 0.85139 0.84892 0.35296 0.0
H5751 H 0.72066 0.77463 0.40382 0.0
H5752 H 0.48574 0.5588 0.83277 0.0
H5753 H 0.49788 0.55633 0.85846 0.0
H5754 H 0.45527 0.55402 0.8778 0.0
H5755 H 0.44305 0.5566 0.85216 0.0
H5756 H 0.47698 0.57169 0.89966 0.0
H5757 H 0.47372 0.51908 0.86604 0.0
H5758 H 0.47963 0.50238 0.84252 0.0
H5759 H 0.52751 0.52244 0.85625 0.0
H5760 H 0.52187 0.53936 0.87974 0.0
H5761 H 0.49694 0.54758 0.97282 0.0
H5762 H 0.48591 0.55068 0.94687 0.0
H5763 H 0.52533 0.54004 0.92653 0.0
H5764 H 0.53546 0.53524 0.9523 0.0
H5765 H 0.50645 0.53002 0.90461 0.0
H5766 H 0.51379 0.58188 0.93553 0.0
H5767 H 0.51237 0.60246 0.95826 0.0
H5768 H 0.46349 0.58997 0.94919 0.0
H5769 H 0.46462 0.56919 0.92651 0.0
C5770 C 0.47877 0.55761 0.84234 0.0
C5771 C 0.46314 0.55786 0.83986 0.0
C5772 C 0.48585 0.55614 0.85727 0.0
C5773 C 0.47764 0.5546 0.87049 0.0
C5774 C 0.46212 0.55512 0.86811 0.0
C5775 C 0.45506 0.55668 0.85322 0.0
C5776 C 0.48502 0.55248 0.88664 0.0
C5777 C 0.48323 0.56239 0.90067 0.0
C5778 C 0.49406 0.54104 0.88846 0.0
C5779 C 0.49736 0.53053 0.87457 0.0
C5780 C 0.4855 0.51993 0.86401 0.0
C5781 C 0.4888 0.51044 0.85069 0.0
C5782 C 0.50393 0.51137 0.84788 0.0
C5783 C 0.5158 0.52173 0.85843 0.0
C5784 C 0.51256 0.53125 0.87176 0.0
C5785 C 0.50329 0.54591 0.96282 0.0
C5786 C 0.51723 0.54126 0.9649 0.0
C5787 C 0.49702 0.54794 0.94778 0.0
C5788 C 0.50478 0.54628 0.93418 0.0
C5789 C 0.51878 0.54155 0.93637 0.0
C5790 C 0.52473 0.53887 0.95131 0.0
C5791 C 0.49828 0.54911 0.91786 0.0
C5792 C 0.50022 0.53936 0.90377 0.0
C5793 C 0.49005 0.56128 0.91592 0.0
C5794 C 0.48929 0.57389 0.9294 0.0
C5795 C 0.50274 0.58349 0.93842 0.0
C5796 C 0.50199 0.59519 0.9513 0.0
C5797 C 0.48785 0.5975 0.95518 0.0
C5798 C 0.47443 0.58816 0.94617 0.0
C5799 C 0.47512 0.57643 0.93329 0.0
H5800 H 0.48729 0.60655 0.96516 0.0
H5801 H 0.50646 0.50404 0.83754 0.0
H5802 H 0.79208 0.22085 0.09252 0.0
H5803 H 0.79276 0.23763 0.11814 0.0
H5804 H 0.75563 0.20202 0.12959 0.0
H5805 H 0.75523 0.18471 0.10417 0.0
H5806 H 0.75488 0.23726 0.13811 0.0
H5807 H 0.78591 0.19912 0.14451 0.0
H5808 H 0.80554 0.18442 0.1372 0.0
H5809 H 0.83918 0.22938 0.14397 0.0
H5810 H 0.81965 0.24437 0.15105 0.0
H5811 H 0.76698 0.26434 0.22142 0.0
H5812 H 0.76176 0.24879 0.19464 0.0
H5813 H 0.80557 0.27402 0.18424 0.0
H5814 H 0.81112 0.28881 0.21143 0.0
H5815 H 0.8017 0.243 0.17498 0.0
H5816 H 0.77089 0.28137 0.16926 0.0
H5817 H 0.75125 0.29616 0.17633 0.0
H5818 H 0.71725 0.2514 0.16828 0.0
H5819 H 0.73674 0.23631 0.16137 0.0
C5820 C 0.78409 0.21651 0.10048 0.0
C5821 C 0.7738 0.20129 0.09643 0.0
C5822 C 0.78439 0.2262 0.11501 0.0
C5823 C 0.7743 0.22095 0.12566 0.0
C5824 C 0.76344 0.20623 0.1214 0.0
C5825 C 0.76324 0.19639 0.1069 0.0
C5826 C 0.77615 0.23024 0.14176 0.0
C5827 C 0.76499 0.23841 0.14631 0.0
C5828 C 0.78948 0.23185 0.1522 0.0
C5829 C 0.80129 0.22287 0.14814 0.0
C5830 C 0.79746 0.20588 0.14429 0.0
C5831 C 0.80857 0.19749 0.14021 0.0
C5832 C 0.82359 0.20596 0.14007 0.0
C5833 C 0.82753 0.22284 0.14406 0.0
C5834 C 0.81645 0.23129 0.14811 0.0
C5835 C 0.77551 0.26637 0.21349 0.0
C5836 C 0.78954 0.27739 0.21857 0.0
C5837 C 0.77244 0.25772 0.19809 0.0
C5838 C 0.78325 0.26032 0.18741 0.0
C5839 C 0.79709 0.2718 0.19233 0.0
C5840 C 0.80022 0.28027 0.2078 0.0
C5841 C 0.78055 0.25041 0.17142 0.0
C5842 C 0.79156 0.24198 0.16687 0.0
C5843 C 0.76708 0.24863 0.16102 0.0
C5844 C 0.7553 0.2577 0.16494 0.0
C5845 C 0.75925 0.27467 0.16909 0.0
C5846 C 0.74814 0.28311 0.17306 0.0
C5847 C 0.73302 0.27472 0.1728 0.0
C5848 C 0.72897 0.25788 0.1685 0.0
C5849 C 0.74004 0.24938 0.16454 0.0
H5850 H 0.72444 0.28128 0.17589 0.0
H5851 H 0.83218 0.19945 0.13692 0.0
H5852 H 0.09087 0.54105 0.31253 0.0
H5853 H 0.0877 0.55342 0.33914 0.0
H5854 H 0.13235 0.54886 0.35651 0.0
H5855 H 0.13616 0.53755 0.32994 0.0
H5856 H 0.10503 0.53603 0.37306 0.0
H5857 H 0.13219 0.583 0.35377 0.0
H5858 H 0.13607 0.60141 0.33428 0.0
H5859 H 0.09267 0.61247 0.34047 0.0
H5860 H 0.08839 0.59385 0.35976 0.0
H5861 H 0.09677 0.56772 0.4474 0.0
H5862 H 0.11233 0.57118 0.42575 0.0
H5863 H 0.07484 0.5813 0.3978 0.0
H5864 H 0.05916 0.57746 0.419 0.0
H5865 H 0.10303 0.59362 0.38779 0.0
H5866 H 0.07175 0.54351 0.39762 0.0
H5867 H 0.0624 0.52242 0.41338 0.0
H5868 H 0.10769 0.51529 0.42192 0.0
H5869 H 0.1173 0.5364 0.40619 0.0
C5870 C 0.10009 0.5428 0.32195 0.0
C5871 C 0.11376 0.53824 0.31905 0.0
C5872 C 0.09824 0.54984 0.3371 0.0
C5873 C 0.10991 0.55217 0.34955 0.0
C5874 C 0.12331 0.54718 0.3469 0.0
C5875 C 0.12532 0.54047 0.33174 0.0
C5876 C 0.10785 0.55919 0.36555 0.0
C5877 C 0.10503 0.54872 0.37648 0.0
C5878 C 0.10729 0.57558 0.36956 0.0
C5879 C 0.10992 0.58692 0.35811 0.0
C5880 C 0.12341 0.58923 0.35087 0.0
C5881 C 0.12569 0.59973 0.33987 0.0
C5882 C 0.11461 0.60808 0.33612 0.0
C5883 C 0.10124 0.60598 0.34338 0.0
C5884 C 0.09889 0.59547 0.35435 0.0
C5885 C 0.09208 0.57138 0.4369 0.0
C5886 C 0.07657 0.57161 0.43458 0.0
C5887 C 0.10102 0.57349 0.42462 0.0
C5888 C 0.09448 0.57595 0.4101 0.0
C5889 C 0.07999 0.57926 0.40892 0.0
C5890 C 0.07101 0.57703 0.42112 0.0
C5891 C 0.10042 0.5705 0.39541 0.0
C5892 C 0.10369 0.58111 0.38461 0.0
C5893 C 0.10086 0.55404 0.39119 0.0
C5894 C 0.09527 0.54169 0.401 0.0
C5895 C 0.07973 0.53755 0.403 0.0
C5896 C 0.07437 0.52553 0.41184 0.0
C5897 C 0.08446 0.51756 0.4187 0.0
C5898 C 0.09991 0.52153 0.41665 0.0
C5899 C 0.10531 0.5335 0.40776 0.0
H5900 H 0.0803 0.50829 0.42558 0.0
H5901 H 0.1164 0.61621 0.32761 0.0
H5902 H 0.81005 0.84463 0.6052 0.0
H5903 H 0.80873 0.83384 0.62985 0.0
H5904 H 0.76022 0.83006 0.62579 0.0
H5905 H 0.76159 0.84182 0.60172 0.0
H5906 H 0.77047 0.84116 0.65437 0.0
H5907 H 0.77712 0.79624 0.61891 0.0
H5908 H 0.78847 0.78054 0.59881 0.0
H5909 H 0.83 0.79005 0.63027 0.0
H5910 H 0.81899 0.80603 0.6505 0.0
H5911 H 0.75492 0.79023 0.71211 0.0
H5912 H 0.75682 0.80044 0.68712 0.0
H5913 H 0.80584 0.81354 0.69724 0.0
H5914 H 0.80397 0.80328 0.7224 0.0
H5915 H 0.79537 0.7974 0.66587 0.0
H5916 H 0.7859 0.84236 0.70167 0.0
H5917 H 0.77144 0.85461 0.72119 0.0
H5918 H 0.73129 0.84089 0.68731 0.0
H5919 H 0.74545 0.82834 0.66767 0.0
C5920 C 0.79909 0.84169 0.60958 0.0
C5921 C 0.78594 0.84423 0.6013 0.0
C5922 C 0.79832 0.83523 0.62364 0.0
C5923 C 0.78433 0.83087 0.62974 0.0
C5924 C 0.77118 0.83326 0.62144 0.0
C5925 C 0.77196 0.83986 0.60747 0.0
C5926 C 0.78349 0.82444 0.64503 0.0
C5927 C 0.77579 0.83145 0.65671 0.0
C5928 C 0.79049 0.81183 0.64838 0.0
C5929 C 0.79729 0.80253 0.63614 0.0
C5930 C 0.78874 0.79515 0.62148 0.0
C5931 C 0.7951 0.78617 0.61008 0.0
C5932 C 0.80997 0.78435 0.61324 0.0
C5933 C 0.8185 0.79151 0.62782 0.0
C5934 C 0.81221 0.80053 0.63926 0.0
C5935 C 0.76611 0.7954 0.70909 0.0
C5936 C 0.77928 0.79605 0.7193 0.0
C5937 C 0.76718 0.80124 0.69478 0.0
C5938 C 0.78147 0.80789 0.69029 0.0
C5939 C 0.79468 0.80851 0.70044 0.0
C5940 C 0.7936 0.80276 0.71487 0.0
C5941 C 0.78249 0.81422 0.67504 0.0
C5942 C 0.79017 0.80717 0.66342 0.0
C5943 C 0.77512 0.82646 0.67155 0.0
C5944 C 0.76671 0.83434 0.68324 0.0
C5945 C 0.77397 0.8419 0.69841 0.0
C5946 C 0.76583 0.84889 0.70949 0.0
C5947 C 0.75046 0.84852 0.7055 0.0
C5948 C 0.7432 0.84118 0.69039 0.0
C5949 C 0.75128 0.83414 0.67928 0.0
H5950 H 0.74417 0.85393 0.7141 0.0
H5951 H 0.81486 0.77736 0.60441 0.0
H5952 H 0.70941 0.44165 0.49456 0.0
H5953 H 0.68825 0.45463 0.49887 0.0
H5954 H 0.71669 0.4898 0.53668 0.0
H5955 H 0.73778 0.47663 0.53261 0.0
H5956 H 0.68952 0.47925 0.54521 0.0
H5957 H 0.70859 0.49986 0.5004 0.0
H5958 H 0.7172 0.49845 0.4739 0.0
H5959 H 0.67288 0.4703 0.45311 0.0
H5960 H 0.66406 0.47137 0.47954 0.0
H5961 H 0.64364 0.53792 0.54504 0.0
H5962 H 0.66391 0.52327 0.54397 0.0
H5963 H 0.63389 0.48347 0.51193 0.0
H5964 H 0.6133 0.49767 0.5134 0.0
H5965 H 0.66186 0.49653 0.50102 0.0
H5966 H 0.64311 0.47747 0.54723 0.0
H5967 H 0.6356 0.47995 0.57421 0.0
H5968 H 0.68074 0.50745 0.5929 0.0
H5969 H 0.68846 0.50533 0.56599 0.0
C5970 C 0.71114 0.45224 0.50368 0.0
C5971 C 0.72516 0.45821 0.51323 0.0
C5972 C 0.69909 0.45963 0.50614 0.0
C5973 C 0.70099 0.47327 0.51798 0.0
C5974 C 0.71501 0.47926 0.52752 0.0
C5975 C 0.72702 0.47177 0.52517 0.0
C5976 C 0.68829 0.48121 0.52046 0.0
C5977 C 0.68359 0.48324 0.53561 0.0
C5978 C 0.68048 0.48618 0.50787 0.0
C5979 C 0.68571 0.48557 0.49195 0.0
C5980 C 0.70072 0.49327 0.49019 0.0
C5981 C 0.70563 0.49255 0.47518 0.0
C5982 C 0.69561 0.48426 0.46183 0.0
C5983 C 0.68063 0.4767 0.46346 0.0
C5984 C 0.67567 0.47738 0.47845 0.0
C5985 C 0.6412 0.52589 0.53805 0.0
C5986 C 0.62688 0.51903 0.52918 0.0
C5987 C 0.65281 0.51757 0.53745 0.0
C5988 C 0.6503 0.50234 0.5279 0.0
C5989 C 0.63597 0.49526 0.51934 0.0
C5990 C 0.6243 0.50347 0.52008 0.0
C5991 C 0.66302 0.49444 0.52571 0.0
C5992 C 0.66778 0.49251 0.51061 0.0
C5993 C 0.67102 0.48985 0.53842 0.0
C5994 C 0.66631 0.4914 0.55457 0.0
C5995 C 0.65138 0.48422 0.55707 0.0
C5996 C 0.6471 0.48551 0.57236 0.0
C5997 C 0.65767 0.49389 0.58526 0.0
C5998 C 0.67255 0.50099 0.5829 0.0
C5999 C 0.67689 0.49973 0.56763 0.0
H6000 H 0.65434 0.49485 0.59709 0.0
H6001 H 0.69943 0.48371 0.45022 0.0
H6002 H 0.18657 0.141 0.48061 0.0
H6003 H 0.16072 0.12562 0.48248 0.0
H6004 H 0.17882 0.10161 0.51764 0.0
H6005 H 0.20463 0.11688 0.5158 0.0
H6006 H 0.15796 0.08018 0.49511 0.0
H6007 H 0.16058 0.13122 0.52821 0.0
H6008 H 0.16458 0.16091 0.53436 0.0
H6009 H 0.12841 0.15925 0.49808 0.0
H6010 H 0.12435 0.12956 0.49156 0.0
H6011 H 0.09156 0.04206 0.52347 0.0
H6012 H 0.11607 0.0597 0.52132 0.0
H6013 H 0.09356 0.08578 0.49142 0.0
H6014 H 0.06872 0.06836 0.49411 0.0
H6015 H 0.11622 0.10649 0.50962 0.0
H6016 H 0.11306 0.05593 0.47641 0.0
H6017 H 0.10902 0.0263 0.46936 0.0
H6018 H 0.14607 0.02699 0.50425 0.0
H6019 H 0.15021 0.05661 0.51166 0.0
C6020 C 0.18507 0.13239 0.48869 0.0
C6021 C 0.19778 0.13025 0.49806 0.0
C6022 C 0.17023 0.12367 0.48984 0.0
C6023 C 0.16769 0.11248 0.5003 0.0
C6024 C 0.18038 0.11018 0.50951 0.0
C6025 C 0.19517 0.11901 0.5085 0.0
C6026 C 0.15192 0.10294 0.50151 0.0
C6027 C 0.1489 0.08596 0.49846 0.0
C6028 C 0.13984 0.11036 0.50537 0.0
C6029 C 0.14228 0.1282 0.50927 0.0
C6030 C 0.15358 0.13721 0.52144 0.0
C6031 C 0.15584 0.15403 0.52502 0.0
C6032 C 0.14679 0.16197 0.51659 0.0
C6033 C 0.13543 0.15309 0.50458 0.0
C6034 C 0.13314 0.13627 0.50095 0.0
C6035 C 0.09177 0.05162 0.51651 0.0
C6036 C 0.07816 0.05365 0.50882 0.0
C6037 C 0.10588 0.06167 0.51517 0.0
C6038 C 0.10691 0.07387 0.50579 0.0
C6039 C 0.09322 0.0764 0.4986 0.0
C6040 C 0.07899 0.06641 0.50013 0.0
C6041 C 0.12227 0.08366 0.50339 0.0
C6042 C 0.12523 0.10068 0.50619 0.0
C6043 C 0.13429 0.07628 0.49912 0.0
C6044 C 0.13186 0.05847 0.49468 0.0
C6045 C 0.12028 0.04975 0.48265 0.0
C6046 C 0.11798 0.03296 0.47858 0.0
C6047 C 0.12726 0.02476 0.48637 0.0
C6048 C 0.13888 0.03335 0.49823 0.0
C6049 C 0.14122 0.05014 0.50237 0.0
H6050 H 0.12546 0.01176 0.4832 0.0
H6051 H 0.14855 0.17499 0.51938 0.0
H6052 H 0.21509 0.94215 0.75048 0.0
H6053 H 0.22743 0.91954 0.74954 0.0
H6054 H 0.19448 0.89606 0.77698 0.0
H6055 H 0.18209 0.91873 0.77807 0.0
H6056 H 0.2182 0.88818 0.78656 0.0
H6057 H 0.19764 0.8835 0.73326 0.0
H6058 H 0.19219 0.89147 0.70738 0.0
H6059 H 0.23998 0.90224 0.70236 0.0
H6060 H 0.24573 0.89452 0.72831 0.0
H6061 H 0.23861 0.80972 0.76643 0.0
H6062 H 0.22523 0.8319 0.76714 0.0
H6063 H 0.26535 0.86325 0.75585 0.0
H6064 H 0.27893 0.84137 0.75578 0.0
H6065 H 0.23737 0.86609 0.73776 0.0
H6066 H 0.25656 0.86933 0.79235 0.0
H6067 H 0.25989 0.8591 0.81743 0.0
H6068 H 0.21142 0.84791 0.81848 0.0
H6069 H 0.20779 0.8579 0.7933 0.0
C6070 C 0.21016 0.93221 0.75623 0.0
C6071 C 0.19718 0.93292 0.76432 0.0
C6072 C 0.21739 0.91892 0.75562 0.0
C6073 C 0.21207 0.90528 0.76291 0.0
C6074 C 0.19922 0.90602 0.77113 0.0
C6075 C 0.192 0.91934 0.77179 0.0
C6076 C 0.2199 0.89064 0.76217 0.0
C6077 C 0.22212 0.88337 0.7757 0.0
C6078 C 0.22545 0.88373 0.74828 0.0
C6079 C 0.22212 0.88864 0.73282 0.0
C6080 C 0.207 0.88772 0.7267 0.0
C6081 C 0.20385 0.89216 0.71201 0.0
C6082 C 0.21574 0.89741 0.70326 0.0
C6083 C 0.23079 0.8982 0.70917 0.0
C6084 C 0.234 0.89379 0.72387 0.0
C6085 C 0.24469 0.82129 0.76408 0.0
C6086 C 0.26011 0.82335 0.76106 0.0
C6087 C 0.23693 0.83419 0.76453 0.0
C6088 C 0.24401 0.84974 0.76158 0.0
C6089 C 0.25929 0.85166 0.7582 0.0
C6090 C 0.26717 0.83894 0.75818 0.0
C6091 C 0.23571 0.86389 0.76212 0.0
C6092 C 0.23341 0.87099 0.74856 0.0
C6093 C 0.22977 0.87037 0.77585 0.0
C6094 C 0.2319 0.86421 0.79087 0.0
C6095 C 0.24661 0.86454 0.79785 0.0
C6096 C 0.24855 0.85882 0.8121 0.0
C6097 C 0.23588 0.85282 0.81953 0.0
C6098 C 0.22123 0.85254 0.81271 0.0
C6099 C 0.21922 0.85824 0.79846 0.0
H6100 H 0.23741 0.84844 0.83058 0.0
H6101 H 0.21328 0.90083 0.69188 0.0
H6102 H 0.36986 0.97979 0.05251 0.0
H6103 H 0.3975 0.9902 0.05325 0.0
H6104 H 0.39147 0.99238 0.00344 0.0
H6105 H 0.364 0.98221 0.00261 0.0
H6106 H 0.41144 0.97068 0.0168 0.0
H6107 H 0.40084 0.02488 0.02217 0.0
H6108 H 0.39108 0.04702 0.03614 0.0
H6109 H 0.42144 0.04896 0.07788 0.0
H6110 H 0.43118 0.02661 0.0642 0.0
H6111 H 0.48068 0.00653 0.99028 0.0
H6112 H 0.45411 0.999 0.9958 0.0
H6113 H 0.46898 0.01122 0.04597 0.0
H6114 H 0.49531 0.01855 0.04062 0.0
H6115 H 0.44533 0.02503 0.03644 0.0
H6116 H 0.45802 0.97466 0.0332 0.0
H6117 H 0.46848 0.95167 0.02253 0.0
H6118 H 0.4352 0.94061 0.98149 0.0
H6119 H 0.42472 0.9638 0.99175 0.0
C6120 C 0.37445 0.98298 0.04187 0.0
C6121 C 0.3649 0.98028 0.02751 0.0
C6122 C 0.39013 0.98887 0.04231 0.0
C6123 C 0.39631 0.99191 0.02837 0.0
C6124 C 0.38674 0.99009 0.01427 0.0
C6125 C 0.37109 0.98444 0.01386 0.0
C6126 C 0.4128 0.99521 0.02792 0.0
C6127 C 0.41888 0.98258 0.02093 0.0
C6128 C 0.42242 0.0105 0.03411 0.0
C6129 C 0.41657 0.02393 0.04225 0.0
C6130 C 0.40529 0.02989 0.03438 0.0
C6131 C 0.3998 0.04251 0.04223 0.0
C6132 C 0.40559 0.04936 0.05791 0.0
C6133 C 0.41693 0.04363 0.06575 0.0
C6134 C 0.42244 0.03099 0.05795 0.0
C6135 C 0.47824 0.00744 1.00245 0.0
C6136 C 0.49002 0.01295 0.01502 0.0
C6137 C 0.46315 1.00316 0.00558 0.0
C6138 C 0.45975 0.00459 0.02128 0.0
C6139 C 0.47147 0.01006 0.03381 0.0
C6140 C 0.4865 0.01409 0.0307 0.0
C6141 C 0.44387 1.00069 0.02462 0.0
C6142 C 0.43793 0.0131 0.03232 0.0
C6143 C 0.43444 0.98505 0.01949 0.0
C6144 C 0.4407 0.97112 0.01315 0.0
C6145 C 0.45304 0.96746 0.0218 0.0
C6146 C 0.45896 0.95437 0.01584 0.0
C6147 C 0.45254 0.94472 1.00131 0.0
C6148 C 0.44018 0.94813 0.99272 0.0
C6149 C 0.43424 0.96125 0.99861 0.0
H6150 H 0.45713 0.93456 0.99673 0.0
H6151 H 0.40133 0.05913 0.06396 0.0
H6152 H 0.85099 0.58147 0.761 0.0
H6153 H 0.83694 0.60157 0.75485 0.0
H6154 H 0.87674 0.63986 0.77347 0.0
H6155 H 0.89052 0.61972 0.78031 0.0
H6156 H 0.85243 0.64844 0.78159 0.0
H6157 H 0.86721 0.6247 0.73303 0.0
H6158 H 0.86911 0.60243 0.71221 0.0
H6159 H 0.82032 0.58854 0.70224 0.0
H6160 H 0.81811 0.61057 0.72318 0.0
H6161 H 0.82751 0.70861 0.74696 0.0
H6162 H 0.84278 0.68881 0.75018 0.0
H6163 H 0.80206 0.65025 0.73977 0.0
H6164 H 0.78666 0.66995 0.73684 0.0
H6165 H 0.8277 0.6425 0.72663 0.0
H6166 H 0.81346 0.6656 0.77645 0.0
H6167 H 0.81192 0.68801 0.7973 0.0
H6168 H 0.86077 0.70343 0.80453 0.0
H6169 H 0.86259 0.68127 0.78351 0.0
C6170 C 0.85655 0.59423 0.76402 0.0
C6171 C 0.8717 0.59925 0.77109 0.0
C6172 C 0.84864 0.60564 0.76037 0.0
C6173 C 0.85598 0.62212 0.76332 0.0
C6174 C 0.87095 0.62716 0.77102 0.0
C6175 C 0.87876 0.61575 0.77496 0.0
C6176 C 0.84814 0.63411 0.7582 0.0
C6177 C 0.84726 0.64728 0.76951 0.0
C6178 C 0.84118 0.63238 0.74248 0.0
C6179 C 0.84249 0.61921 0.72977 0.0
C6180 C 0.85688 0.61683 0.72647 0.0
C6181 C 0.85801 0.60426 0.71464 0.0
C6182 C 0.84484 0.59406 0.70593 0.0
C6183 C 0.83051 0.59644 0.70901 0.0
C6184 C 0.82931 0.60897 0.72085 0.0
C6185 C 0.82185 0.69589 0.74519 0.0
C6186 C 0.80591 0.69079 0.74191 0.0
C6187 C 0.83057 0.68465 0.74695 0.0
C6188 C 0.82343 0.66822 0.74542 0.0
C6189 C 0.80768 0.66294 0.74098 0.0
C6190 C 0.79894 0.67419 0.73928 0.0
C6191 C 0.8321 0.65673 0.75002 0.0
C6192 C 0.83307 0.64368 0.73864 0.0
C6193 C 0.83925 0.6586 0.76564 0.0
C6194 C 0.83815 0.67191 0.77827 0.0
C6195 C 0.82387 0.67387 0.78237 0.0
C6196 C 0.82294 0.68651 0.79424 0.0
C6197 C 0.83624 0.69717 0.8022 0.0
C6198 C 0.85048 0.69519 0.79833 0.0
C6199 C 0.85146 0.6826 0.78644 0.0
H6200 H 0.8355 0.70694 0.81139 0.0
H6201 H 0.84574 0.58433 0.69678 0.0
H6202 H 0.86139 0.66151 0.0236 0.0
H6203 H 0.88314 0.6492 0.02695 0.0
H6204 H 0.86015 0.60816 0.9916 0.0
H6205 H 0.83815 0.62012 0.98856 0.0
H6206 H 0.87267 0.59829 0.0164 0.0
H6207 H 0.88988 0.63869 0.98408 0.0
H6208 H 0.89608 0.66624 0.97764 0.0
H6209 H 0.9284 0.68229 0.01949 0.0
H6210 H 0.92223 0.65487 0.02629 0.0
H6211 H 0.93397 0.56476 0.99142 0.0
H6212 H 0.91338 0.57923 0.99254 0.0
H6213 H 0.93696 0.6101 0.03552 0.0
H6214 H 0.95738 0.59518 0.03472 0.0
H6215 H 0.92524 0.62633 0.00985 0.0
H6216 H 0.90951 0.587 0.04204 0.0
H6217 H 0.90374 0.56001 0.04975 0.0
H6218 H 0.86908 0.54274 0.00996 0.0
H6219 H 0.87484 0.56959 1.00185 0.0
C6220 C 0.86087 0.6498 0.01661 0.0
C6221 C 0.84792 0.64185 0.00579 0.0
C6222 C 0.87344 0.64284 0.01843 0.0
C6223 C 0.87343 0.62779 0.00941 0.0
C6224 C 0.86051 0.6198 0.99867 0.0
C6225 C 0.84795 0.62674 0.99684 0.0
C6226 C 0.88671 0.62017 0.01129 0.0
C6227 C 0.88412 0.60439 0.01477 0.0
C6228 C 0.90183 0.62829 0.00982 0.0
C6229 C 0.90546 0.64478 0.00579 0.0
C6230 C 0.8982 0.64813 0.99199 0.0
C6231 C 0.90173 0.66371 0.98826 0.0
C6232 C 0.91259 0.67602 0.99818 0.0
C6233 C 0.91997 0.67276 0.01184 0.0
C6234 C 0.91646 0.6572 0.01563 0.0
C6235 C 0.93472 0.57462 1.00111 0.0
C6236 C 0.94721 0.57888 0.01299 0.0
C6237 C 0.92297 0.58285 1.00176 0.0
C6238 C 0.92362 0.59573 0.01412 0.0
C6239 C 0.93624 0.6002 0.02588 0.0
C6240 C 0.94784 0.59168 0.02545 0.0
C6241 C 0.91105 0.6044 0.01457 0.0
C6242 C 0.91378 0.62032 0.01154 0.0
C6243 C 0.89608 0.59651 0.01661 0.0
C6244 C 0.89276 0.58024 0.02121 0.0
C6245 C 0.90081 0.57739 0.0348 0.0
C6246 C 0.8975 0.56213 0.03928 0.0
C6247 C 0.88608 0.54965 0.03032 0.0
C6248 C 0.87795 0.55241 0.01687 0.0
C6249 C 0.88123 0.56765 0.01232 0.0
H6250 H 0.88351 0.53785 0.03383 0.0
H6251 H 0.91531 0.68807 0.99526 0.0
H6252 H 0.22244 0.10373 0.78488 0.0
H6253 H 0.23511 0.13164 0.78381 0.0
H6254 H 0.19859 0.13454 0.74976 0.0
H6255 H 0.18581 0.10662 0.75077 0.0
H6256 H 0.22273 0.15054 0.74094 0.0
H6257 H 0.20521 0.15447 0.79145 0.0
H6258 H 0.20148 0.14807 0.81807 0.0
H6259 H 0.24989 0.16175 0.83165 0.0
H6260 H 0.25392 0.16802 0.80502 0.0
H6261 H 0.24989 0.23879 0.74885 0.0
H6262 H 0.23413 0.2115 0.74961 0.0
H6263 H 0.27104 0.20148 0.77838 0.0
H6264 H 0.28667 0.22824 0.77739 0.0
H6265 H 0.24499 0.18979 0.78979 0.0
H6266 H 0.26157 0.1858 0.73803 0.0
H6267 H 0.26407 0.19159 0.71109 0.0
H6268 H 0.21535 0.17843 0.69984 0.0
H6269 H 0.21256 0.17288 0.7269 0.0
C6270 C 0.21685 0.1102 0.77725 0.0
C6271 C 0.2028 0.10232 0.76798 0.0
C6272 C 0.22424 0.12647 0.77665 0.0
C6273 C 0.21794 0.13587 0.76687 0.0
C6274 C 0.20401 0.12799 0.75747 0.0
C6275 C 0.19662 0.11171 0.75804 0.0
C6276 C 0.22583 0.15364 0.76637 0.0
C6277 C 0.22732 0.15909 0.75173 0.0
C6278 C 0.2322 0.16531 0.78021 0.0
C6279 C 0.22987 0.16154 0.7962 0.0
C6280 C 0.21506 0.15599 0.80008 0.0
C6281 C 0.21289 0.15241 0.81517 0.0
C6282 C 0.22544 0.15446 0.82653 0.0
C6283 C 0.24018 0.16014 0.82283 0.0
C6284 C 0.24242 0.16372 0.80774 0.0
C6285 C 0.25459 0.23087 0.75551 0.0
C6286 C 0.26971 0.23608 0.76315 0.0
C6287 C 0.24556 0.21505 0.75583 0.0
C6288 C 0.2512 0.20392 0.76401 0.0
C6289 C 0.26612 0.20943 0.77196 0.0
C6290 C 0.27515 0.22496 0.77138 0.0
C6291 C 0.24198 0.18662 0.76438 0.0
C6292 C 0.24028 0.18125 0.77902 0.0
C6293 C 0.23521 0.17514 0.75056 0.0
C6294 C 0.23685 0.17913 0.73455 0.0
C6295 C 0.25138 0.18437 0.72989 0.0
C6296 C 0.25284 0.18756 0.71457 0.0
C6297 C 0.23986 0.18536 0.70373 0.0
C6298 C 0.22539 0.18014 0.70825 0.0
C6299 C 0.22386 0.17699 0.72359 0.0
H6300 H 0.24099 0.18757 0.69179 0.0
H6301 H 0.22374 0.15169 0.83821 0.0
H6302 H 0.36298 0.94703 0.22553 0.0
H6303 H 0.34717 0.91914 0.22128 0.0
H6304 H 0.35587 0.91816 0.27125 0.0
H6305 H 0.37155 0.94565 0.27536 0.0
H6306 H 0.35441 0.88888 0.25307 0.0
H6307 H 0.3261 0.93297 0.25633 0.0
H6308 H 0.31808 0.95525 0.2454 0.0
H6309 H 0.30034 0.9233 0.20137 0.0
H6310 H 0.30843 0.90091 0.21203 0.0
H6311 H 0.30051 0.84321 0.28596 0.0
H6312 H 0.31254 0.87006 0.28096 0.0
H6313 H 0.29252 0.85659 0.23215 0.0
H6314 H 0.28022 0.82995 0.23715 0.0
H6315 H 0.29978 0.88952 0.24219 0.0
H6316 H 0.3218 0.84379 0.24231 0.0
H6317 H 0.3292 0.82137 0.2535 0.0
H6318 H 0.35928 0.85547 0.2904 0.0
H6319 H 0.3518 0.87808 0.27963 0.0
C6320 C 0.36173 0.94055 0.2354 0.0
C6321 C 0.36811 0.9482 0.25076 0.0
C6322 C 0.35282 0.92476 0.233 0.0
C6323 C 0.35035 0.91679 0.24599 0.0
C6324 C 0.35774 0.92414 0.26109 0.0
C6325 C 0.36654 0.9398 0.26347 0.0
C6326 C 0.33844 0.90199 0.24483 0.0
C6327 C 0.34246 0.88888 0.25056 0.0
C6328 C 0.32291 0.90197 0.24115 0.0
C6329 C 0.31801 0.91539 0.23488 0.0
C6330 C 0.32056 0.93076 0.2443 0.0
C6331 C 0.316 0.94339 0.23815 0.0
C6332 C 0.30874 0.94071 0.22268 0.0
C6333 C 0.30599 0.92538 0.21333 0.0
C6334 C 0.31056 0.91272 0.21941 0.0
C6335 C 0.29804 0.84631 0.27442 0.0
C6336 C 0.29011 0.83454 0.26171 0.0
C6337 C 0.30488 0.86159 0.27158 0.0
C6338 C 0.30383 0.86482 0.25605 0.0
C6339 C 0.29362 0.85407 0.24411 0.0
C6340 C 0.28676 0.83886 0.24695 0.0
C6341 C 0.31582 0.87701 0.25147 0.0
C6342 C 0.31172 0.88933 0.24441 0.0
C6343 C 0.3313 0.87624 0.25387 0.0
C6344 C 0.33615 0.86264 0.26017 0.0
C6345 C 0.32997 0.84651 0.25281 0.0
C6346 C 0.33415 0.83376 0.2591 0.0
C6347 C 0.34467 0.837 0.27267 0.0
C6348 C 0.3511 0.85299 0.27991 0.0
C6349 C 0.34688 0.86577 0.27372 0.0
H6350 H 0.34782 0.8271 0.27756 0.0
H6351 H 0.30522 0.9505 0.21794 0.0
H6352 H 0.54063 0.36102 0.55384 0.0
H6353 H 0.53716 0.38424 0.54165 0.0
H6354 H 0.5696 0.41634 0.57844 0.0
H6355 H 0.57309 0.39319 0.5907 0.0
H6356 H 0.54308 0.42687 0.57341 0.0
H6357 H 0.57934 0.4081 0.542 0.0
H6358 H 0.58927 0.38843 0.52445 0.0
H6359 H 0.55075 0.38215 0.4895 0.0
H6360 H 0.54046 0.40161 0.50695 0.0
H6361 H 0.55954 0.49934 0.54121 0.0
H6362 H 0.56212 0.47432 0.55039 0.0
H6363 H 0.5251 0.447 0.51548 0.0
H6364 H 0.52215 0.47212 0.50645 0.0
H6365 H 0.55238 0.43322 0.51841 0.0
H6366 H 0.51586 0.45115 0.54868 0.0
H6367 H 0.50495 0.47043 0.56556 0.0
H6368 H 0.54239 0.4774 0.60195 0.0
H6369 H 0.55369 0.45835 0.58514 0.0
C6370 C 0.54706 0.37302 0.55932 0.0
C6371 C 0.55715 0.37521 0.57328 0.0
C6372 C 0.54513 0.38629 0.55228 0.0
C6373 C 0.55316 0.40208 0.55907 0.0
C6374 C 0.56329 0.40429 0.57295 0.0
C6375 C 0.56535 0.39102 0.5799 0.0
C6376 C 0.55063 0.41635 0.55209 0.0
C6377 C 0.54532 0.42832 0.56145 0.0
C6378 C 0.55298 0.41803 0.53627 0.0
C6379 C 0.55903 0.40615 0.52587 0.0
C6380 C 0.57289 0.40238 0.53065 0.0
C6381 C 0.57861 0.39131 0.5207 0.0
C6382 C 0.57062 0.384 0.50589 0.0
C6383 C 0.55691 0.38779 0.50099 0.0
C6384 C 0.55113 0.39884 0.5109 0.0
C6385 C 0.552 0.48801 0.53538 0.0
C6386 C 0.54064 0.48775 0.52308 0.0
C6387 C 0.55347 0.47372 0.54069 0.0
C6388 C 0.54379 0.45879 0.53366 0.0
C6389 C 0.5327 0.45838 0.52107 0.0
C6390 C 0.53101 0.47275 0.51596 0.0
C6391 C 0.54509 0.44376 0.53984 0.0
C6392 C 0.55013 0.43169 0.53035 0.0
C6393 C 0.54233 0.44185 0.55547 0.0
C6394 C 0.53573 0.45349 0.56556 0.0
C6395 C 0.52188 0.45695 0.5602 0.0
C6396 C 0.5156 0.4678 0.56977 0.0
C6397 C 0.523 0.47518 0.5848 0.0
C6398 C 0.53669 0.4717 0.59029 0.0
C6399 C 0.54304 0.46088 0.58074 0.0
H6400 H 0.5181 0.48356 0.59221 0.0
H6401 H 0.57508 0.37545 0.49819 0.0
H6402 H 0.42497 0.78482 0.37836 0.0
H6403 H 0.40199 0.78873 0.3639 0.0
H6404 H 0.41161 0.76124 0.32143 0.0
H6405 H 0.43482 0.75755 0.33575 0.0
H6406 H 0.40381 0.78806 0.31495 0.0
H6407 H 0.3827 0.74575 0.34293 0.0
H6408 H 0.37802 0.73272 0.36632 0.0
H6409 H 0.35805 0.771 0.38616 0.0
H6410 H 0.36281 0.78439 0.36298 0.0
H6411 H 0.33505 0.76892 0.26594 0.0
H6412 H 0.35692 0.7687 0.28398 0.0
H6413 H 0.34167 0.79914 0.32068 0.0
H6414 H 0.31914 0.79934 0.30226 0.0
H6415 H 0.35223 0.77373 0.33193 0.0
H6416 H 0.37224 0.81526 0.30288 0.0
H6417 H 0.37665 0.82763 0.27906 0.0
H6418 H 0.39842 0.79022 0.26093 0.0
H6419 H 0.39408 0.77757 0.28461 0.0
C6420 C 0.42228 0.77962 0.36592 0.0
C6421 C 0.43193 0.77088 0.3583 0.0
C6422 C 0.40897 0.78175 0.35767 0.0
C6423 C 0.40485 0.77521 0.34151 0.0
C6424 C 0.41442 0.76642 0.33387 0.0
C6425 C 0.42769 0.7642 0.34215 0.0
C6426 C 0.3909 0.77793 0.33244 0.0
C6427 C 0.39255 0.78477 0.31864 0.0
C6428 C 0.37613 0.77417 0.33738 0.0
C6429 C 0.37328 0.76617 0.35132 0.0
C6430 C 0.37744 0.75147 0.35235 0.0
C6431 C 0.37475 0.74401 0.36556 0.0
C6432 C 0.36779 0.75106 0.37774 0.0
C6433 C 0.36347 0.76557 0.37673 0.0
C6434 C 0.36616 0.7731 0.36356 0.0
C6435 C 0.33622 0.7757 0.27781 0.0
C6436 C 0.32524 0.78423 0.28254 0.0
C6437 C 0.3489 0.77559 0.28817 0.0
C6438 C 0.35123 0.78407 0.30373 0.0
C6439 C 0.34024 0.79255 0.30871 0.0
C6440 C 0.3274 0.79275 0.29816 0.0
C6441 C 0.36518 0.7837 0.31439 0.0
C6442 C 0.36355 0.77723 0.3284 0.0
C6443 C 0.38001 0.78779 0.30968 0.0
C6444 C 0.38277 0.79543 0.29549 0.0
C6445 C 0.3779 0.80963 0.29378 0.0
C6446 C 0.38039 0.81669 0.28031 0.0
C6447 C 0.38776 0.80968 0.26847 0.0
C6448 C 0.39271 0.79563 0.27011 0.0
C6449 C 0.39028 0.78854 0.28357 0.0
H6450 H 0.38966 0.81515 0.25804 0.0
H6451 H 0.36571 0.74526 0.38795 0.0
H6452 H 0.07803 0.72397 0.05977 0.0
H6453 H 0.07554 0.69582 0.04718 0.0
H6454 H 0.02733 0.68552 0.05112 0.0
H6455 H 0.02974 0.71366 0.0636 0.0
H6456 H 0.04162 0.66415 0.06345 0.0
H6457 H 0.03779 0.68538 0.01595 0.0
H6458 H 0.04439 0.70306 0.99626 0.0
H6459 H 0.08629 0.68785 0.99243 0.0
H6460 H 0.08005 0.67025 0.01232 0.0
H6461 H 0.01938 0.58605 0.01758 0.0
H6462 H 0.02267 0.61521 0.02454 0.0
H6463 H 0.07149 0.62166 0.0285 0.0
H6464 H 0.06836 0.5922 0.02172 0.0
H6465 H 0.05722 0.64483 0.01146 0.0
H6466 H 0.05955 0.62314 0.06008 0.0
H6467 H 0.04993 0.60335 0.07694 0.0
H6468 H 0.00789 0.61885 0.07686 0.0
H6469 H 0.01712 0.63841 0.05948 0.0
C6470 C 0.06689 0.71572 0.05779 0.0
C6471 C 0.05409 0.72098 0.0627 0.0
C6472 C 0.06546 0.69969 0.05051 0.0
C6473 C 0.05125 0.68859 0.0482 0.0
C6474 C 0.0384 0.6939 0.05277 0.0
C6475 C 0.03977 0.70998 0.05983 0.0
C6476 C 0.05001 0.67118 0.04219 0.0
C6477 C 0.0449 0.65996 0.05201 0.0
C6478 C 0.05448 0.66569 0.02736 0.0
C6479 C 0.05857 0.67669 0.01582 0.0
C6480 C 0.04853 0.68599 0.01111 0.0
C6481 C 0.05217 0.69595 0.99985 0.0
C6482 C 0.06579 0.69663 0.99314 0.0
C6483 C 0.07578 0.68735 0.99768 0.0
C6484 C 0.07219 0.67738 0.00894 0.0
C6485 C 0.03086 0.5936 0.01976 0.0
C6486 C 0.04364 0.58676 0.01917 0.0
C6487 C 0.03269 0.61029 0.02372 0.0
C6488 C 0.0473 0.62053 0.02703 0.0
C6489 C 0.06012 0.6139 0.0259 0.0
C6490 C 0.05831 0.59709 0.02213 0.0
C6491 C 0.04901 0.63801 0.03279 0.0
C6492 C 0.05413 0.64917 0.02294 0.0
C6493 C 0.04436 0.64346 0.0475 0.0
C6494 C 0.03897 0.63213 0.05837 0.0
C6495 C 0.04821 0.62225 0.06355 0.0
C6496 C 0.04283 0.61107 0.07322 0.0
C6497 C 0.0283 0.60984 0.07801 0.0
C6498 C 0.01914 0.61981 0.07314 0.0
C6499 C 0.02443 0.63093 0.06336 0.0
H6500 H 0.02414 0.60117 0.08549 0.0
H6501 H 0.06856 0.70432 0.98439 0.0
H6502 H 0.09502 0.27057 0.88356 0.0
H6503 H 0.1187 0.27433 0.87123 0.0
H6504 H 0.09694 0.29154 0.83288 0.0
H6505 H 0.07319 0.28762 0.84501 0.0
H6506 H 0.11223 0.26914 0.82202 0.0
H6507 H 0.12301 0.31746 0.86094 0.0
H6508 H 0.12598 0.3337 0.88762 0.0
H6509 H 0.1606 0.31039 0.90316 0.0
H6510 H 0.15767 0.29382 0.87662 0.0
H6511 H 0.17654 0.29502 0.78366 0.0
H6512 H 0.15463 0.29522 0.79826 0.0
H6513 H 0.17829 0.28158 0.8378 0.0
H6514 H 0.20065 0.2822 0.82358 0.0
H6515 H 0.16227 0.30241 0.84856 0.0
H6516 H 0.15106 0.25343 0.81065 0.0
H6517 H 0.14845 0.23684 0.78417 0.0
H6518 H 0.11477 0.26065 0.76727 0.0
H6519 H 0.11734 0.27754 0.79361 0.0
C6520 C 0.09523 0.27511 0.87247 0.0
C6521 C 0.0821 0.27874 0.86528 0.0
C6522 C 0.10887 0.27741 0.8655 0.0
C6523 C 0.10971 0.28335 0.85114 0.0
C6524 C 0.09664 0.287 0.84397 0.0
C6525 C 0.08306 0.28483 0.85098 0.0
C6526 C 0.12395 0.28507 0.84321 0.0
C6527 C 0.12312 0.27662 0.82777 0.0
C6528 C 0.13832 0.29442 0.85081 0.0
C6529 C 0.13998 0.30424 0.86683 0.0
C6530 C 0.13114 0.31566 0.87009 0.0
C6531 C 0.13284 0.32496 0.88518 0.0
C6532 C 0.14344 0.32304 0.89709 0.0
C6533 C 0.15237 0.31184 0.89393 0.0
C6534 C 0.1507 0.30249 0.87886 0.0
C6535 C 0.17729 0.29237 0.79558 0.0
C6536 C 0.19048 0.28848 0.8023 0.0
C6537 C 0.1646 0.29229 0.80388 0.0
C6538 C 0.16457 0.28807 0.81906 0.0
C6539 C 0.17789 0.28475 0.82607 0.0
C6540 C 0.19066 0.28494 0.81781 0.0
C6541 C 0.1505 0.28655 0.82733 0.0
C6542 C 0.15138 0.29497 0.84281 0.0
C6543 C 0.13615 0.27705 0.81985 0.0
C6544 C 0.1345 0.26684 0.80405 0.0
C6545 C 0.14317 0.25519 0.80125 0.0
C6546 C 0.14169 0.24573 0.78628 0.0
C6547 C 0.13148 0.24772 0.77403 0.0
C6548 C 0.12269 0.25914 0.77676 0.0
C6549 C 0.12414 0.26865 0.79171 0.0
H6550 H 0.13035 0.24038 0.76245 0.0
H6551 H 0.14475 0.33027 0.90876 0.0
H6552 H 0.57805 0.72988 0.92239 0.0
H6553 H 0.57164 0.70666 0.93574 0.0
H6554 H 0.52492 0.71098 0.93397 0.0
H6555 H 0.53148 0.73498 0.92156 0.0
H6556 H 0.53417 0.70487 0.96166 0.0
H6557 H 0.53526 0.68172 0.90807 0.0
H6558 H 0.54592 0.67848 0.88266 0.0
H6559 H 0.58433 0.66517 0.9053 0.0
H6560 H 0.574 0.66855 0.93089 0.0
H6561 H 0.51427 0.62871 0.98766 0.0
H6562 H 0.5147 0.64933 0.97072 0.0
H6563 H 0.56313 0.65437 0.96989 0.0
H6564 H 0.56272 0.63369 0.98662 0.0
H6565 H 0.54893 0.65404 0.9411 0.0
H6566 H 0.54863 0.68058 0.99525 0.0
H6567 H 0.53771 0.68428 0.02049 0.0
H6568 H 0.49686 0.69105 0.996 0.0
H6569 H 0.50748 0.68716 0.97058 0.0
C6570 C 0.56647 0.72608 0.92506 0.0
C6571 C 0.55526 0.73424 0.92086 0.0
C6572 C 0.56277 0.71265 0.93247 0.0
C6573 C 0.54773 0.70691 0.93547 0.0
C6574 C 0.53656 0.71516 0.93158 0.0
C6575 C 0.5403 0.72876 0.92436 0.0
C6576 C 0.54382 0.69239 0.94291 0.0
C6577 C 0.53711 0.69364 0.957 0.0
C6578 C 0.54776 0.67782 0.93685 0.0
C6579 C 0.55388 0.67546 0.92141 0.0
C6580 C 0.54601 0.67817 0.90764 0.0
C6581 C 0.552 0.6763 0.8932 0.0
C6582 C 0.5658 0.67164 0.89237 0.0
C6583 C 0.57363 0.66878 0.90596 0.0
C6584 C 0.5677 0.67064 0.92043 0.0
C6585 C 0.52499 0.63427 0.98385 0.0
C6586 C 0.5385 0.62978 0.9885 0.0
C6587 C 0.52521 0.64597 0.97417 0.0
C6588 C 0.53898 0.65346 0.96925 0.0
C6589 C 0.55239 0.64868 0.97357 0.0
C6590 C 0.55215 0.63691 0.98311 0.0
C6591 C 0.53971 0.6667 0.96006 0.0
C6592 C 0.54577 0.66519 0.9456 0.0
C6593 C 0.53507 0.68098 0.96572 0.0
C6594 C 0.52877 0.68339 0.98102 0.0
C6595 C 0.53728 0.68274 0.99524 0.0
C6596 C 0.53115 0.68489 0.00958 0.0
C6597 C 0.51659 0.68785 0.00984 0.0
C6598 C 0.50813 0.68872 0.99577 0.0
C6599 C 0.5142 0.68655 0.98141 0.0
H6600 H 0.51186 0.68951 0.02095 0.0
H6601 H 0.57043 0.67022 0.88118 0.0
H6602 H 0.07691 0.77294 0.67699 0.0
H6603 H 0.1026 0.77433 0.68939 0.0
H6604 H 0.08605 0.775 0.73507 0.0
H6605 H 0.06015 0.77359 0.72253 0.0
H6606 H 0.11488 0.7978 0.73426 0.0
H6607 H 0.09088 0.74137 0.71932 0.0
H6608 H 0.07604 0.71677 0.70153 0.0
H6609 H 0.10958 0.72219 0.66905 0.0
H6610 H 0.12451 0.74698 0.68652 0.0
H6611 H 0.18151 0.77122 0.76443 0.0
H6612 H 0.15576 0.77532 0.75846 0.0
H6613 H 0.16357 0.77678 0.70985 0.0
H6614 H 0.1892 0.77271 0.7157 0.0
H6615 H 0.13815 0.75222 0.71558 0.0
H6616 H 0.16113 0.80926 0.729 0.0
H6617 H 0.17638 0.83399 0.74627 0.0
H6618 H 0.14537 0.82751 0.78117 0.0
H6619 H 0.13005 0.80256 0.7642 0.0
C6620 C 0.07887 0.77353 0.68968 0.0
C6621 C 0.06685 0.77315 0.69894 0.0
C6622 C 0.09342 0.7743 0.69672 0.0
C6623 C 0.09604 0.77464 0.71306 0.0
C6624 C 0.0841 0.77474 0.72243 0.0
C6625 C 0.06944 0.77388 0.71533 0.0
C6626 C 0.11123 0.77414 0.72001 0.0
C6627 C 0.11993 0.78773 0.73048 0.0
C6628 C 0.11771 0.76105 0.71475 0.0
C6629 C 0.10875 0.74612 0.70419 0.0
C6630 C 0.09502 0.7374 0.70832 0.0
C6631 C 0.08661 0.72341 0.6983 0.0
C6632 C 0.09185 0.71793 0.68416 0.0
C6633 C 0.10553 0.72644 0.68001 0.0
C6634 C 0.11398 0.74046 0.68997 0.0
C6635 C 0.17774 0.77267 0.75256 0.0
C6636 C 0.18715 0.77156 0.74046 0.0
C6637 C 0.16318 0.77511 0.74922 0.0
C6638 C 0.15796 0.77632 0.73377 0.0
C6639 C 0.16757 0.77592 0.72185 0.0
C6640 C 0.18214 0.77364 0.72521 0.0
C6641 C 0.14192 0.77604 0.72949 0.0
C6642 C 0.13305 0.76221 0.71955 0.0
C6643 C 0.13538 0.78891 0.73521 0.0
C6644 C 0.14455 0.80391 0.74542 0.0
C6645 C 0.15765 0.81299 0.74043 0.0
C6646 C 0.16629 0.82708 0.75015 0.0
C6647 C 0.16188 0.83229 0.76484 0.0
C6648 C 0.14879 0.82344 0.76981 0.0
C6649 C 0.14012 0.80933 0.76014 0.0
H6650 H 0.16858 0.8432 0.77234 0.0
H6651 H 0.08532 0.70709 0.67642 0.0
H6652 H 0.05673 0.39208 0.40902 0.0
H6653 H 0.05465 0.41769 0.42393 0.0
H6654 H 0.09295 0.41727 0.4572 0.0
H6655 H 0.09451 0.391 0.44281 0.0
H6656 H 0.07018 0.42257 0.47208 0.0
H6657 H 0.09517 0.44486 0.43099 0.0
H6658 H 0.09985 0.44773 0.40362 0.0
H6659 H 0.05597 0.45827 0.39474 0.0
H6660 H 0.05092 0.45522 0.42198 0.0
H6661 H 0.07164 0.50051 0.51312 0.0
H6662 H 0.07906 0.47878 0.49623 0.0
H6663 H 0.03711 0.47046 0.46518 0.0
H6664 H 0.02949 0.49219 0.4822 0.0
H6665 H 0.06396 0.47108 0.44958 0.0
H6666 H 0.03831 0.44617 0.48977 0.0
H6667 H 0.03371 0.44361 0.51722 0.0
H6668 H 0.07941 0.43834 0.52766 0.0
H6669 H 0.08436 0.44112 0.50031 0.0
C6670 C 0.06472 0.39743 0.41951 0.0
C6671 C 0.07564 0.38944 0.4249 0.0
C6672 C 0.06368 0.4122 0.42787 0.0
C6673 C 0.07376 0.41945 0.44156 0.0
C6674 C 0.08511 0.41186 0.4466 0.0
C6675 C 0.08605 0.39694 0.43833 0.0
C6676 C 0.07139 0.43406 0.45139 0.0
C6677 C 0.06917 0.43332 0.46723 0.0
C6678 C 0.06964 0.44787 0.44492 0.0
C6679 C 0.07263 0.4497 0.42851 0.0
C6680 C 0.08647 0.44766 0.42316 0.0
C6681 C 0.08919 0.44934 0.40768 0.0
C6682 C 0.07821 0.45315 0.39744 0.0
C6683 C 0.06448 0.45532 0.40268 0.0
C6684 C 0.06168 0.45363 0.41815 0.0
C6685 C 0.064 0.49406 0.50269 0.0
C6686 C 0.04998 0.49788 0.49893 0.0
C6687 C 0.06827 0.48172 0.49308 0.0
C6688 C 0.05857 0.47308 0.4796 0.0
C6689 C 0.0447 0.4771 0.47558 0.0
C6690 C 0.04037 0.48941 0.48528 0.0
C6691 C 0.06271 0.45941 0.47006 0.0
C6692 C 0.0652 0.46036 0.45436 0.0
C6693 C 0.06474 0.4458 0.47663 0.0
C6694 C 0.06176 0.44402 0.49305 0.0
C6695 C 0.04742 0.4446 0.49796 0.0
C6696 C 0.04474 0.44309 0.51349 0.0
C6697 C 0.05627 0.44086 0.52419 0.0
C6698 C 0.0705 0.44009 0.51937 0.0
C6699 C 0.07325 0.44162 0.50385 0.0
H6700 H 0.05418 0.43968 0.53621 0.0
H6701 H 0.08034 0.45445 0.38546 0.0
H6702 H 0.43592 0.28981 0.20008 0.0
H6703 H 0.41627 0.29163 0.21752 0.0
H6704 H 0.39988 0.23965 0.2074 0.0
H6705 H 0.41876 0.23782 0.18906 0.0
H6706 H 0.37748 0.25345 0.2044 0.0
H6707 H 0.41985 0.26016 0.24406 0.0
H6708 H 0.44573 0.27207 0.25789 0.0
H6709 H 0.43486 0.31851 0.26754 0.0
H6710 H 0.40898 0.30693 0.25359 0.0
H6711 H 0.32334 0.25227 0.2575 0.0
H6712 H 0.34727 0.24818 0.24845 0.0
H6713 H 0.36296 0.2996 0.24987 0.0
H6714 H 0.33914 0.30389 0.25904 0.0
H6715 H 0.38617 0.28438 0.25914 0.0
H6716 H 0.34603 0.27873 0.21604 0.0
H6717 H 0.32038 0.26757 0.20139 0.0
H6718 H 0.32748 0.21944 0.1983 0.0
H6719 H 0.35323 0.23035 0.21288 0.0
C6720 C 0.42803 0.27878 0.20144 0.0
C6721 C 0.42881 0.26368 0.19312 0.0
C6722 C 0.41701 0.27982 0.21165 0.0
C6723 C 0.40683 0.26574 0.21394 0.0
C6724 C 0.40774 0.25064 0.20585 0.0
C6725 C 0.41858 0.24961 0.19546 0.0
C6726 C 0.39436 0.26686 0.22366 0.0
C6727 C 0.37943 0.25988 0.2165 0.0
C6728 C 0.39693 0.27568 0.23927 0.0
C6729 C 0.4125 0.28269 0.24768 0.0
C6730 C 0.42301 0.27294 0.24903 0.0
C6731 C 0.43768 0.27963 0.25691 0.0
C6732 C 0.44194 0.29604 0.26357 0.0
C6733 C 0.43154 0.3058 0.26238 0.0
C6734 C 0.41687 0.29918 0.2545 0.0
C6735 C 0.33202 0.26275 0.25625 0.0
C6736 C 0.32932 0.27837 0.25871 0.0
C6737 C 0.34565 0.26038 0.2511 0.0
C6738 C 0.35666 0.27358 0.24834 0.0
C6739 C 0.35451 0.2893 0.25197 0.0
C6740 C 0.34089 0.2917 0.25711 0.0
C6741 C 0.36949 0.27085 0.23986 0.0
C6742 C 0.38438 0.27766 0.24716 0.0
C6743 C 0.36695 0.2619 0.22435 0.0
C6744 C 0.35145 0.25532 0.2157 0.0
C6745 C 0.34206 0.26576 0.21234 0.0
C6746 C 0.32752 0.25949 0.20403 0.0
C6747 C 0.32225 0.2428 0.19902 0.0
C6748 C 0.33156 0.23236 0.20222 0.0
C6749 C 0.34614 0.23858 0.21047 0.0
H6750 H 0.31098 0.23798 0.19259 0.0
H6751 H 0.4533 0.30119 0.26967 0.0
H6752 H 0.5868 0.50992 0.33739 0.0
H6753 H 0.57478 0.51189 0.36174 0.0
H6754 H 0.61876 0.522 0.38927 0.0
H6755 H 0.63084 0.51971 0.36491 0.0
H6756 H 0.60119 0.50519 0.40505 0.0
H6757 H 0.59345 0.55175 0.38287 0.0
H6758 H 0.5845 0.56608 0.36246 0.0
H6759 H 0.53866 0.53855 0.36165 0.0
H6760 H 0.54738 0.52393 0.38191 0.0
H6761 H 0.57259 0.53187 0.47937 0.0
H6762 H 0.58624 0.53049 0.4556 0.0
H6763 H 0.54325 0.51551 0.42588 0.0
H6764 H 0.52985 0.51663 0.44921 0.0
H6765 H 0.56081 0.53551 0.41176 0.0
H6766 H 0.56723 0.48889 0.43261 0.0
H6767 H 0.57473 0.47346 0.45269 0.0
H6768 H 0.62134 0.49959 0.45557 0.0
H6769 H 0.61407 0.51536 0.43562 0.0
C6770 C 0.5941 0.51274 0.34854 0.0
C6771 C 0.61008 0.51471 0.34862 0.0
C6772 C 0.58707 0.51396 0.36276 0.0
C6773 C 0.59561 0.51754 0.37798 0.0
C6774 C 0.61155 0.51928 0.37807 0.0
C6775 C 0.61857 0.51791 0.36385 0.0
C6776 C 0.5881 0.51935 0.39358 0.0
C6777 C 0.59257 0.51212 0.40645 0.0
C6778 C 0.57634 0.52788 0.39594 0.0
C6779 C 0.5711 0.53665 0.38378 0.0
C6780 C 0.58148 0.5487 0.37826 0.0
C6781 C 0.57645 0.55687 0.36673 0.0
C6782 C 0.56103 0.5532 0.36074 0.0
C6783 C 0.5506 0.54137 0.36629 0.0
C6784 C 0.55558 0.53314 0.3778 0.0
C6785 C 0.56604 0.52828 0.46782 0.0
C6786 C 0.54993 0.5243 0.46662 0.0
C6787 C 0.5739 0.5274 0.45403 0.0
C6788 C 0.566 0.52275 0.43843 0.0
C6789 C 0.54995 0.51916 0.43739 0.0
C6790 C 0.5422 0.51978 0.45102 0.0
C6791 C 0.57402 0.52151 0.4232 0.0
C6792 C 0.56957 0.52874 0.41039 0.0
C6793 C 0.58564 0.51286 0.42084 0.0
C6794 C 0.59009 0.50344 0.43279 0.0
C6795 C 0.57906 0.49145 0.43762 0.0
C6796 C 0.58327 0.48262 0.44896 0.0
C6797 C 0.5985 0.48558 0.45544 0.0
C6798 C 0.60955 0.49734 0.45056 0.0
C6799 C 0.60539 0.50622 0.43924 0.0
H6800 H 0.60174 0.47874 0.46422 0.0
H6801 H 0.55715 0.55955 0.35181 0.0
H6802 H 0.28231 0.86919 0.07869 0.0
H6803 H 0.28965 0.8608 0.10348 0.0
H6804 H 0.33461 0.86135 0.08999 0.0
H6805 H 0.32697 0.86832 0.0646 0.0
H6806 H 0.32537 0.83702 0.10439 0.0
H6807 H 0.32538 0.89473 0.11467 0.0
H6808 H 0.31293 0.91757 0.11426 0.0
H6809 H 0.27936 0.89596 0.142 0.0
H6810 H 0.2915 0.87294 0.14243 0.0
H6811 H 0.34875 0.82399 0.17948 0.0
H6812 H 0.35042 0.83975 0.15778 0.0
H6813 H 0.30625 0.84917 0.16516 0.0
H6814 H 0.30544 0.83503 0.1875 0.0
H6815 H 0.31976 0.87181 0.15391 0.0
H6816 H 0.31349 0.81305 0.13971 0.0
H6817 H 0.32195 0.78756 0.13946 0.0
H6818 H 0.36181 0.80741 0.11862 0.0
H6819 H 0.35366 0.83306 0.11893 0.0
C6820 C 0.29361 0.86705 0.08077 0.0
C6821 C 0.30416 0.86967 0.0698 0.0
C6822 C 0.29786 0.86255 0.09507 0.0
C6823 C 0.31284 0.86109 0.09875 0.0
C6824 C 0.32308 0.86272 0.08745 0.0
C6825 C 0.31873 0.86683 0.07302 0.0
C6826 C 0.318 0.85812 0.11446 0.0
C6827 C 0.32434 0.84474 0.11524 0.0
C6828 C 0.31637 0.86805 0.12854 0.0
C6829 C 0.30933 0.88211 0.12853 0.0
C6830 C 0.31533 0.89485 0.12065 0.0
C6831 C 0.30832 0.90782 0.12041 0.0
C6832 C 0.29536 0.90821 0.12809 0.0
C6833 C 0.2894 0.89566 0.13607 0.0
C6834 C 0.29635 0.88267 0.13633 0.0
C6835 C 0.33983 0.83014 0.17679 0.0
C6836 C 0.32698 0.82843 0.18494 0.0
C6837 C 0.34066 0.83892 0.16434 0.0
C6838 C 0.3282 0.84512 0.15948 0.0
C6839 C 0.31601 0.84451 0.16861 0.0
C6840 C 0.31551 0.83639 0.18137 0.0
C6841 C 0.32655 0.85027 0.14393 0.0
C6842 C 0.32101 0.86419 0.14309 0.0
C6843 C 0.32828 0.84043 0.12977 0.0
C6844 C 0.33309 0.825 0.12954 0.0
C6845 C 0.32409 0.81197 0.13514 0.0
C6846 C 0.32883 0.79751 0.135 0.0
C6847 C 0.34243 0.79589 0.12908 0.0
C6848 C 0.35131 0.8087 0.12325 0.0
C6849 C 0.34664 0.8232 0.12341 0.0
H6850 H 0.34609 0.78469 0.12898 0.0
H6851 H 0.28994 0.91825 0.12787 0.0
H6852 H 0.98095 0.54745 0.846 0.0
H6853 H 0.99616 0.54757 0.87081 0.0
H6854 H 0.95927 0.51231 0.88334 0.0
H6855 H 0.9436 0.51302 0.85922 0.0
H6856 H 0.96833 0.53669 0.906 0.0
H6857 H 0.99302 0.50282 0.87345 0.0
H6858 H 0.00644 0.49462 0.85097 0.0
H6859 H 0.04339 0.53632 0.8667 0.0
H6860 H 0.03008 0.5449 0.88915 0.0
H6861 H 0.00894 0.51798 0.97214 0.0
H6862 H 0.99398 0.51854 0.94741 0.0
H6863 H 0.03001 0.55641 0.93736 0.0
H6864 H 0.0451 0.55587 0.96219 0.0
H6865 H 0.02168 0.53098 0.91346 0.0
H6866 H 0.99466 0.56592 0.94411 0.0
H6867 H 0.97894 0.57503 0.96411 0.0
H6868 H 0.9458 0.52974 0.95136 0.0
H6869 H 0.96117 0.52054 0.93106 0.0
C6870 C 0.97607 0.53978 0.85409 0.0
C6871 C 0.96104 0.53036 0.85077 0.0
C6872 C 0.98486 0.53964 0.86809 0.0
C6873 C 0.97884 0.52982 0.87876 0.0
C6874 C 0.96409 0.51992 0.87517 0.0
C6875 C 0.9552 0.52026 0.86134 0.0
C6876 C 0.98724 0.53118 0.89442 0.0
C6877 C 0.97991 0.53514 0.90764 0.0
C6878 C 1.00247 0.52967 0.89644 0.0
C6879 C 0.01048 0.52458 0.8829 0.0
C6880 C 0.00394 0.51032 0.87204 0.0
C6881 C 0.01154 0.50559 0.85932 0.0
C6882 C 0.02574 0.51496 0.85739 0.0
C6883 C 0.03238 0.52908 0.8682 0.0
C6884 C 0.02482 0.53388 0.88093 0.0
C6885 C 0.01356 0.52658 0.96476 0.0
C6886 C 0.02814 0.53685 0.96892 0.0
C6887 C 0.00497 0.52698 0.95073 0.0
C6888 C 0.01087 0.53765 0.94073 0.0
C6889 C 0.02529 0.54817 0.94505 0.0
C6890 C 0.03389 0.5478 0.95912 0.0
C6891 C 1.00271 0.53646 0.92499 0.0
C6892 C 0.01009 0.5325 0.91177 0.0
C6893 C 0.98744 0.53774 0.92292 0.0
C6894 C 0.97912 0.54251 0.93623 0.0
C6895 C 0.98413 0.55784 0.94576 0.0
C6896 C 0.9752 0.56307 0.95701 0.0
C6897 C 0.96138 0.55296 0.959 0.0
C6898 C 0.9565 0.53756 0.94981 0.0
C6899 C 0.96527 0.53236 0.93838 0.0
H6900 H 0.95439 0.55706 0.96759 0.0
H6901 H 0.03162 0.51127 0.84754 0.0
H6902 H 0.26916 0.24895 0.57431 0.0
H6903 H 0.26893 0.25928 0.60241 0.0
H6904 H 0.30529 0.23653 0.61469 0.0
H6905 H 0.3055 0.22609 0.58672 0.0
H6906 H 0.28152 0.22843 0.63115 0.0
H6907 H 0.31225 0.27657 0.61963 0.0
H6908 H 0.32 0.29982 0.60602 0.0
H6909 H 0.28075 0.31708 0.6185 0.0
H6910 H 0.27262 0.29377 0.632 0.0
H6911 H 0.3018 0.26217 0.7119 0.0
H6912 H 0.30205 0.25611 0.68341 0.0
H6913 H 0.26152 0.27396 0.67582 0.0
H6914 H 0.26108 0.28006 0.70462 0.0
H6915 H 0.28631 0.28521 0.65692 0.0
H6916 H 0.25695 0.23594 0.66976 0.0
H6917 H 0.25179 0.21323 0.68443 0.0
H6918 H 0.29168 0.19851 0.66999 0.0
H6919 H 0.29731 0.22146 0.65555 0.0
C6920 C 0.27721 0.2463 0.58301 0.0
C6921 C 0.28733 0.23667 0.57828 0.0
C6922 C 0.27714 0.25231 0.59904 0.0
C6923 C 0.28711 0.2487 0.61066 0.0
C6924 C 0.29751 0.23948 0.60593 0.0
C6925 C 0.29768 0.23361 0.58992 0.0
C6926 C 0.28583 0.25329 0.62777 0.0
C6927 C 0.28274 0.24088 0.63678 0.0
C6928 C 0.28711 0.26949 0.63509 0.0
C6929 C 0.2917 0.28328 0.62662 0.0
C6930 C 0.30514 0.28519 0.61928 0.0
C6931 C 0.30964 0.29842 0.61164 0.0
C6932 C 0.30084 0.30989 0.61134 0.0
C6933 C 0.28753 0.30816 0.6187 0.0
C6934 C 0.28297 0.29494 0.62635 0.0
C6935 C 0.29289 0.26484 0.70425 0.0
C6936 C 0.28138 0.27158 0.71059 0.0
C6937 C 0.29307 0.26134 0.68793 0.0
C6938 C 0.2818 0.26455 0.67751 0.0
C6939 C 0.27033 0.27141 0.6837 0.0
C6940 C 0.27003 0.27477 0.70013 0.0
C6941 C 0.28202 0.26033 0.66017 0.0
C6942 C 0.28494 0.27278 0.65117 0.0
C6943 C 0.28087 0.24418 0.65285 0.0
C6944 C 0.2776 0.23048 0.66167 0.0
C6945 C 0.26471 0.22797 0.66985 0.0
C6946 C 0.26169 0.21502 0.67811 0.0
C6947 C 0.27138 0.20438 0.67811 0.0
C6948 C 0.28418 0.20675 0.66996 0.0
C6949 C 0.2873 0.21974 0.66175 0.0
H6950 H 0.26897 0.19425 0.68435 0.0
H6951 H 0.30436 0.32015 0.60545 0.0
H6952 H 0.62748 0.51133 0.17193 0.0
H6953 H 0.6155 0.51359 0.14616 0.0
H6954 H 0.57337 0.51457 0.16574 0.0
H6955 H 0.58524 0.51152 0.19151 0.0
H6956 H 0.56472 0.50061 0.13784 0.0
H6957 H 0.60102 0.55023 0.15548 0.0
H6958 H 0.62602 0.5684 0.16604 0.0
H6959 H 0.64545 0.54986 0.12544 0.0
H6960 H 0.6206 0.53141 0.11473 0.0
H6961 H 0.54284 0.54411 0.07313 0.0
H6962 H 0.55323 0.54007 0.09923 0.0
H6963 H 0.57664 0.5061 0.0766 0.0
H6964 H 0.56583 0.5096 0.05049 0.0
H6965 H 0.59368 0.53758 0.10603 0.0
H6966 H 0.55412 0.48729 0.08943 0.0
H6967 H 0.52753 0.47272 0.08002 0.0
H6968 H 0.51245 0.49738 0.12064 0.0
H6969 H 0.53896 0.51234 0.13013 0.0
C6970 C 0.61568 0.51211 0.17091 0.0
C6971 C 0.60758 0.5114 0.18425 0.0
C6972 C 0.60873 0.51353 0.15595 0.0
C6973 C 0.5934 0.51484 0.15356 0.0
C6974 C 0.58516 0.51373 0.1668 0.0
C6975 C 0.59205 0.51198 0.18175 0.0
C6976 C 0.58619 0.51739 0.13746 0.0
C6977 C 0.57118 0.50882 0.13109 0.0
C6978 C 0.59408 0.52817 0.12811 0.0
C6979 C 0.609 0.53933 0.13439 0.0
C6980 C 0.61065 0.54997 0.14885 0.0
C6981 C 0.62479 0.56032 0.15485 0.0
C6982 C 0.63732 0.56026 0.14643 0.0
C6983 C 0.63574 0.54988 0.13196 0.0
C6984 C 0.62162 0.53948 0.1259 0.0
C6985 C 0.55014 0.5357 0.07362 0.0
C6986 C 0.55335 0.52719 0.05939 0.0
C6987 C 0.55612 0.53338 0.08869 0.0
C6988 C 0.56582 0.52272 0.09021 0.0
C6989 C 0.5692 0.51437 0.07603 0.0
C6990 C 0.56292 0.51637 0.06097 0.0
C6991 C 0.57259 0.52049 0.10643 0.0
C6992 C 0.5874 0.52928 0.11284 0.0
C6993 C 0.56437 0.51029 0.11595 0.0
C6994 C 0.5485 0.50109 0.11038 0.0
C6995 C 0.54512 0.48975 0.09626 0.0
C6996 C 0.53007 0.48139 0.09093 0.0
C6997 C 0.5183 0.48417 0.09969 0.0
C6998 C 0.52157 0.49526 0.11384 0.0
C6999 C 0.53661 0.50368 0.11921 0.0
H7000 H 0.50665 0.47769 0.09554 0.0
H7001 H 0.64827 0.56827 0.15111 0.0
H7002 H 0.30568 0.88658 0.91595 0.0
H7003 H 0.30549 0.86857 0.89096 0.0
H7004 H 0.28302 0.82767 0.91073 0.0
H7005 H 0.28289 0.8457 0.93568 0.0
H7006 H 0.30977 0.82427 0.89162 0.0
H7007 H 0.26114 0.83922 0.89068 0.0
H7008 H 0.24435 0.8583 0.89315 0.0
H7009 H 0.26447 0.88121 0.85638 0.0
H7010 H 0.28166 0.86252 0.85397 0.0
H7011 H 0.28057 0.76999 0.81766 0.0
H7012 H 0.2849 0.78511 0.84485 0.0
H7013 H 0.29723 0.82998 0.82697 0.0
H7014 H 0.29271 0.81512 0.80003 0.0
H7015 H 0.27522 0.83014 0.84603 0.0
H7016 H 0.32384 0.81693 0.84648 0.0
H7017 H 0.34143 0.79879 0.84304 0.0
H7018 H 0.32276 0.77388 0.87929 0.0
H7019 H 0.30487 0.79173 0.88278 0.0
C7020 C 0.30084 0.87373 0.91497 0.0
C7021 C 0.29419 0.86746 0.92756 0.0
C7022 C 0.30075 0.8635 0.90078 0.0
C7023 C 0.29424 0.84689 0.89914 0.0
C7024 C 0.28813 0.84049 0.9119 0.0
C7025 C 0.28795 0.85076 0.92601 0.0
C7026 C 0.29285 0.83646 0.88369 0.0
C7027 C 0.30208 0.82533 0.88166 0.0
C7028 C 0.28306 0.83825 0.87075 0.0
C7029 C 0.27286 0.84963 0.87233 0.0
C7030 C 0.26216 0.84848 0.8833 0.0
C7031 C 0.25254 0.8592 0.88465 0.0
C7032 C 0.25339 0.87101 0.87498 0.0
C7033 C 0.26386 0.87211 0.86392 0.0
C7034 C 0.27356 0.86146 0.86256 0.0
C7035 C 0.28444 0.78305 0.81963 0.0
C7036 C 0.28628 0.79141 0.80683 0.0
C7037 C 0.28694 0.79165 0.83509 0.0
C7038 C 0.29135 0.80863 0.83782 0.0
C7039 C 0.29378 0.81688 0.82506 0.0
C7040 C 0.29125 0.80835 0.8097 0.0
C7041 C 0.29228 0.81801 0.85379 0.0
C7042 C 0.28289 0.82896 0.85595 0.0
C7043 C 0.30208 0.8162 0.86673 0.0
C7044 C 0.3129 0.80554 0.86477 0.0
C7045 C 0.32339 0.80749 0.85363 0.0
C7046 C 0.33343 0.79728 0.85168 0.0
C7047 C 0.33319 0.78515 0.86091 0.0
C7048 C 0.32292 0.78326 0.87213 0.0
C7049 C 0.31283 0.79342 0.87411 0.0
H7050 H 0.34097 0.77725 0.85938 0.0
H7051 H 0.24591 0.87927 0.87603 0.0
H7052 H 0.93099 0.50675 0.69404 0.0
H7053 H 0.93805 0.49764 0.66802 0.0
H7054 H 0.98487 0.52286 0.68383 0.0
H7055 H 0.97765 0.53243 0.70978 0.0
H7056 H 0.97623 0.52792 0.65555 0.0
H7057 H 0.97217 0.48112 0.68128 0.0
H7058 H 0.95909 0.46001 0.69526 0.0
H7059 H 0.92431 0.44249 0.65561 0.0
H7060 H 0.93707 0.46365 0.64149 0.0
H7061 H 0.01752 0.49333 0.60547 0.0
H7062 H 1.00263 0.48749 0.62697 0.0
H7063 H 0.96222 0.49128 0.59905 0.0
H7064 H 0.97689 0.49655 0.57707 0.0
H7065 H 0.96544 0.46959 0.63195 0.0
H7066 H 0.96675 0.52411 0.61226 0.0
H7067 H 0.9808 0.54532 0.59892 0.0
H7068 H 0.02222 0.54671 0.62793 0.0
H7069 H 0.00833 0.52555 0.64145 0.0
C7070 C 0.94276 0.51037 0.69185 0.0
C7071 C 0.95387 0.52017 0.70372 0.0
C7072 C 0.94678 0.50508 0.6771 0.0
C7073 C 0.962 0.50929 0.6742 0.0
C7074 C 0.97306 0.51942 0.68596 0.0
C7075 C 0.96899 0.52491 0.70067 0.0
C7076 C 0.96637 0.50353 0.65871 0.0
C7077 C 0.97384 0.51516 0.65047 0.0
C7078 C 0.96306 0.48688 0.65197 0.0
C7079 C 0.9555 0.47405 0.66039 0.0
C7080 C 0.96168 0.47283 0.67559 0.0
C7081 C 0.95433 0.46085 0.68353 0.0
C7082 C 0.94086 0.44994 0.67634 0.0
C7083 C 0.93473 0.45096 0.66117 0.0
C7084 C 0.94203 0.46293 0.65319 0.0
C7085 C 0.00529 0.49184 0.60344 0.0
C7086 C 0.99841 0.49585 0.5898 0.0
C7087 C 0.99678 0.48844 0.61576 0.0
C7088 C 0.98144 0.48913 0.61451 0.0
C7089 C 0.97403 0.49056 0.60004 0.0
C7090 C 0.98249 0.49382 0.58763 0.0
C7091 C 0.97517 0.494 0.62907 0.0
C7092 C 0.9675 0.4823 0.63708 0.0
C7093 C 0.97826 0.51057 0.63574 0.0
C7094 C 0.98657 0.52329 0.62775 0.0
C7095 C 0.97885 0.52899 0.61577 0.0
C7096 C 0.98677 0.541 0.60821 0.0
C7097 C 1.0024 0.54735 0.61257 0.0
C7098 C 0.01012 0.54177 0.62456 0.0
C7099 C 1.00224 0.52981 0.63219 0.0
H7100 H 0.00852 0.55658 0.60664 0.0
H7101 H 0.93518 0.44068 0.68251 0.0
H7102 H 0.26774 0.23718 0.42585 0.0
H7103 H 0.26848 0.24844 0.40141 0.0
H7104 H 0.30495 0.22582 0.38908 0.0
H7105 H 0.30413 0.21421 0.41338 0.0
H7106 H 0.31 0.25665 0.38232 0.0
H7107 H 0.2688 0.20913 0.37194 0.0
H7108 H 0.24508 0.19127 0.37707 0.0
H7109 H 0.22123 0.22888 0.37315 0.0
H7110 H 0.24488 0.24704 0.36822 0.0
H7111 H 0.30154 0.26281 0.29943 0.0
H7112 H 0.30275 0.25198 0.32432 0.0
H7113 H 0.26811 0.27602 0.33989 0.0
H7114 H 0.26707 0.28706 0.31527 0.0
H7115 H 0.26265 0.24416 0.34476 0.0
H7116 H 0.30315 0.2917 0.35523 0.0
H7117 H 0.32669 0.31037 0.35087 0.0
H7118 H 0.35168 0.27376 0.35508 0.0
H7119 H 0.32822 0.25475 0.35921 0.0
C7120 C 0.27585 0.23443 0.41793 0.0
C7121 C 0.28575 0.22456 0.42165 0.0
C7122 C 0.27631 0.24099 0.40394 0.0
C7123 C 0.28664 0.23784 0.39324 0.0
C7124 C 0.29687 0.22845 0.39711 0.0
C7125 C 0.2964 0.22183 0.4111 0.0
C7126 C 0.28638 0.24389 0.3778 0.0
C7127 C 0.29971 0.2537 0.374 0.0
C7128 C 0.27289 0.24041 0.36703 0.0
C7129 C 0.25863 0.22948 0.36985 0.0
C7130 C 0.25852 0.21362 0.37228 0.0
C7131 C 0.24509 0.20344 0.37514 0.0
C7132 C 0.23167 0.20895 0.37547 0.0
C7133 C 0.23164 0.22464 0.3729 0.0
C7134 C 0.24505 0.23487 0.37006 0.0
C7135 C 0.29415 0.2657 0.30814 0.0
C7136 C 0.28422 0.2758 0.30542 0.0
C7137 C 0.29491 0.2596 0.3224 0.0
C7138 C 0.28559 0.26328 0.33405 0.0
C7139 C 0.27542 0.27303 0.33112 0.0
C7140 C 0.27485 0.27934 0.31704 0.0
C7141 C 0.28625 0.2569 0.34926 0.0
C7142 C 0.27298 0.24703 0.35302 0.0
C7143 C 0.29978 0.26041 0.35999 0.0
C7144 C 0.31387 0.27172 0.3573 0.0
C7145 C 0.31362 0.28755 0.35503 0.0
C7146 C 0.32696 0.29821 0.35265 0.0
C7147 C 0.34066 0.29323 0.35264 0.0
C7148 C 0.34105 0.27758 0.35505 0.0
C7149 C 0.32773 0.26686 0.35741 0.0
H7150 H 0.35099 0.30152 0.35082 0.0
H7151 H 0.22128 0.20105 0.37769 0.0
H7152 H 0.33093 0.58688 0.50674 0.0
H7153 H 0.35118 0.57273 0.50145 0.0
H7154 H 0.3831 0.61862 0.50346 0.0
H7155 H 0.36264 0.63269 0.508 0.0
H7156 H 0.38769 0.59783 0.48036 0.0
H7157 H 0.38124 0.59727 0.53515 0.0
H7158 H 0.36681 0.59206 0.55766 0.0
H7159 H 0.35402 0.54129 0.53845 0.0
H7160 H 0.3682 0.54624 0.51571 0.0
H7161 H 0.45568 0.56997 0.49505 0.0
H7162 H 0.43479 0.58384 0.49558 0.0
H7163 H 0.40235 0.53786 0.49031 0.0
H7164 H 0.42315 0.52399 0.49051 0.0
H7165 H 0.39802 0.55872 0.51449 0.0
H7166 H 0.40604 0.56003 0.45989 0.0
H7167 H 0.42072 0.56623 0.43778 0.0
H7168 H 0.43167 0.61683 0.45767 0.0
H7169 H 0.41721 0.6109 0.48 0.0
C7170 C 0.3423 0.59386 0.50608 0.0
C7171 C 0.34541 0.61078 0.50791 0.0
C7172 C 0.35383 0.58583 0.50309 0.0
C7173 C 0.36868 0.59467 0.50237 0.0
C7174 C 0.37171 0.6116 0.504 0.0
C7175 C 0.36011 0.6196 0.50666 0.0
C7176 C 0.38114 0.58631 0.50017 0.0
C7177 C 0.39009 0.58941 0.48793 0.0
C7178 C 0.38406 0.57516 0.50991 0.0
C7179 C 0.37567 0.57215 0.52367 0.0
C7180 C 0.37527 0.58501 0.53569 0.0
C7181 C 0.36714 0.5821 0.54849 0.0
C7182 C 0.35947 0.56636 0.54947 0.0
C7183 C 0.35995 0.55348 0.53767 0.0
C7184 C 0.36804 0.55633 0.52483 0.0
C7185 C 0.44409 0.56283 0.49404 0.0
C7186 C 0.44104 0.5459 0.49286 0.0
C7187 C 0.43218 0.57075 0.49411 0.0
C7188 C 0.41706 0.56183 0.49284 0.0
C7189 C 0.41397 0.54492 0.49124 0.0
C7190 C 0.42585 0.53702 0.49127 0.0
C7191 C 0.40452 0.57013 0.49461 0.0
C7192 C 0.3956 0.56708 0.50687 0.0
C7193 C 0.40179 0.58146 0.48502 0.0
C7194 C 0.41067 0.58499 0.4717 0.0
C7195 C 0.4117 0.57245 0.45963 0.0
C7196 C 0.41995 0.57593 0.44704 0.0
C7197 C 0.42715 0.59191 0.44634 0.0
C7198 C 0.4261 0.60445 0.45823 0.0
C7199 C 0.41787 0.60104 0.47085 0.0
H7200 H 0.43351 0.59457 0.43656 0.0
H7201 H 0.35318 0.56413 0.55939 0.0
H7202 H 0.88035 0.91823 0.51247 0.0
H7203 H 0.90627 0.9337 0.51109 0.0
H7204 H 0.89542 0.97679 0.53501 0.0
H7205 H 0.86952 0.96136 0.53654 0.0
H7206 H 0.9107 0.98179 0.5081 0.0
H7207 H 0.91648 0.95815 0.55497 0.0
H7208 H 0.91445 0.93577 0.57019 0.0
H7209 H 0.94288 0.91411 0.54039 0.0
H7210 H 0.94488 0.93626 0.52481 0.0
H7211 H 0.98214 0.03544 0.5317 0.0
H7212 H 0.95723 0.01728 0.53085 0.0
H7213 H 0.97506 0.97681 0.51173 0.0
H7214 H 1.00033 0.99518 0.51271 0.0
H7215 H 0.95647 0.96873 0.53404 0.0
H7216 H 0.95212 0.99235 0.48797 0.0
H7217 H 0.95403 0.01396 0.47179 0.0
H7218 H 0.92281 0.03457 0.49843 0.0
H7219 H 0.9209 0.01323 0.51495 0.0
C7220 C 0.88345 0.93101 0.51741 0.0
C7221 C 0.87279 0.93852 0.52464 0.0
C7222 C 0.89833 0.93984 0.51668 0.0
C7223 C 0.9029 0.95645 0.523 0.0
C7224 C 0.89223 0.96401 0.53006 0.0
C7225 C 0.87743 0.95514 0.53101 0.0
C7226 C 0.91874 0.96596 0.52221 0.0
C7227 C 0.92069 0.97904 0.51393 0.0
C7228 C 0.93189 0.96207 0.52929 0.0
C7229 C 0.93067 0.94875 0.53861 0.0
C7230 C 0.92217 0.94853 0.55156 0.0
C7231 C 0.92105 0.9359 0.56027 0.0
C7232 C 0.92849 0.9235 0.55623 0.0
C7233 C 0.9371 0.92371 0.54348 0.0
C7234 C 0.93823 0.9363 0.53471 0.0
C7235 C 0.98084 0.02267 0.52733 0.0
C7236 C 0.99328 0.0168 0.52218 0.0
C7237 C 0.96649 0.01227 0.52676 0.0
C7238 C 0.96405 0.99563 0.52098 0.0
C7239 C 0.97655 0.98959 0.51616 0.0
C7240 C 0.991 1.0001 0.51667 0.0
C7241 C 0.94845 0.98478 0.52015 0.0
C7242 C 0.94652 0.97144 0.5281 0.0
C7243 C 0.9353 0.98832 0.51262 0.0
C7244 C 0.93649 1.00127 0.5028 0.0
C7245 C 0.94577 1.00158 0.49048 0.0
C7246 C 0.94684 0.01377 0.48123 0.0
C7247 C 0.93857 0.02565 0.4841 0.0
C7248 C 0.92922 0.02537 0.49623 0.0
C7249 C 0.92814 0.01322 0.50554 0.0
H7250 H 0.9394 0.03507 0.47691 0.0
H7251 H 0.92762 0.91374 0.563 0.0
H7252 H 0.85902 0.12712 0.23647 0.0
H7253 H 0.84697 0.14987 0.23739 0.0
H7254 H 0.87167 0.17082 0.28324 0.0
H7255 H 0.884 0.14816 0.28242 0.0
H7256 H 0.84583 0.17794 0.28489 0.0
H7257 H 0.87889 0.1863 0.2459 0.0
H7258 H 0.89122 0.18034 0.22195 0.0
H7259 H 0.84821 0.17148 0.19309 0.0
H7260 H 0.83557 0.17719 0.21691 0.0
H7261 H 0.82867 0.25747 0.28121 0.0
H7262 H 0.84194 0.23521 0.28105 0.0
H7263 H 0.80883 0.20621 0.24326 0.0
H7264 H 0.79525 0.2281 0.2438 0.0
H7265 H 0.83973 0.20419 0.23796 0.0
H7266 H 0.80762 0.1974 0.2795 0.0
H7267 H 0.79776 0.20599 0.30441 0.0
H7268 H 0.84262 0.21518 0.32962 0.0
H7269 H 0.8528 0.20687 0.30478 0.0
C7270 C 0.86227 0.1365 0.24679 0.0
C7271 C 0.87298 0.13508 0.2593 0.0
C7272 C 0.85517 0.14986 0.24729 0.0
C7273 C 0.85826 0.16282 0.2603 0.0
C7274 C 0.86874 0.16138 0.27291 0.0
C7275 C 0.87591 0.14804 0.2724 0.0
C7276 C 0.85062 0.17755 0.26075 0.0
C7277 C 0.84477 0.18367 0.27457 0.0
C7278 C 0.84881 0.18563 0.24755 0.0
C7279 C 0.85625 0.18196 0.2332 0.0
C7280 C 0.87203 0.18293 0.23446 0.0
C7281 C 0.87908 0.17962 0.22091 0.0
C7282 C 0.87049 0.17547 0.20601 0.0
C7283 C 0.85484 0.17465 0.20464 0.0
C7284 C 0.84772 0.17793 0.21816 0.0
C7285 C 0.82413 0.24639 0.27282 0.0
C7286 C 0.81063 0.24497 0.26254 0.0
C7287 C 0.83181 0.23346 0.27276 0.0
C7288 C 0.82665 0.21854 0.26213 0.0
C7289 C 0.81337 0.21729 0.25165 0.0
C7290 C 0.80547 0.23 0.25201 0.0
C7291 C 0.83484 0.20435 0.26197 0.0
C7292 C 0.8408 0.19837 0.24822 0.0
C7293 C 0.83708 0.1967 0.27534 0.0
C7294 C 0.831 0.20169 0.29026 0.0
C7295 C 0.81541 0.2014 0.29033 0.0
C7296 C 0.80976 0.20619 0.30444 0.0
C7297 C 0.81956 0.21117 0.31858 0.0
C7298 C 0.83504 0.21134 0.31865 0.0
C7299 C 0.84076 0.20659 0.30456 0.0
H7300 H 0.81516 0.21487 0.3295 0.0
H7301 H 0.87598 0.17294 0.19553 0.0
H7302 H 0.70604 0.06927 1.00017 0.0
H7303 H 0.67869 0.05909 1.00023 0.0
H7304 H 0.66983 0.09711 0.9758 0.0
H7305 H 0.69703 0.10782 0.97636 0.0
H7306 H 0.66052 0.09929 0.00476 0.0
H7307 H 0.65346 0.05716 0.95866 0.0
H7308 H 0.65906 0.03365 0.94205 0.0
H7309 H 0.65349 0.00668 0.98026 0.0
H7310 H 0.64803 0.03013 0.99712 0.0
H7311 H 0.578 0.07031 0.99025 0.0
H7312 H 0.60507 0.07744 0.98664 0.0
H7313 H 0.61637 0.05754 0.02805 0.0
H7314 H 0.58938 0.05088 0.03206 0.0
H7315 H 0.62431 0.0455 0.99161 0.0
H7316 H 0.63143 0.08745 0.03768 0.0
H7317 H 0.62481 0.11046 0.05402 0.0
H7318 H 0.63065 0.13776 0.01608 0.0
H7319 H 0.63704 0.11475 0.99941 0.0
C7320 C 0.69823 0.07517 0.9944 0.0
C7321 C 0.70367 0.08955 0.98862 0.0
C7322 C 0.68262 0.06924 0.9943 0.0
C7323 C 0.67234 0.07751 0.98818 0.0
C7324 C 0.67767 0.09066 0.98063 0.0
C7325 C 0.69325 0.09668 0.98087 0.0
C7326 C 0.65674 0.07465 0.9925 0.0
C7327 C 0.65252 0.08758 1.00164 0.0
C7328 C 0.64663 0.05924 0.98904 0.0
C7329 C 0.65037 0.04536 0.97912 0.0
C7330 C 0.65356 0.04625 0.96353 0.0
C7331 C 0.65668 0.03294 0.95407 0.0
C7332 C 0.65664 0.01868 0.9601 0.0
C7333 C 0.65353 0.01773 0.97561 0.0
C7334 C 0.6504 0.03101 0.9851 0.0
C7335 C 0.58634 0.06791 0.9988 0.0
C7336 C 0.58179 0.06018 0.01144 0.0
C7337 C 0.60169 0.07191 0.99672 0.0
C7338 C 0.61248 0.06793 0.0071 0.0
C7339 C 0.60805 0.06074 0.02006 0.0
C7340 C 0.59274 0.05709 0.02238 0.0
C7341 C 0.62819 0.07018 0.00353 0.0
C7342 C 0.63239 0.05716 0.99464 0.0
C7343 C 0.63835 0.08547 0.0073 0.0
C7344 C 0.63447 0.0993 0.01722 0.0
C7345 C 0.63109 0.09827 0.03274 0.0
C7346 C 0.62744 0.11133 0.04209 0.0
C7347 C 0.62725 0.12554 0.03607 0.0
C7348 C 0.63076 0.12673 0.02071 0.0
C7349 C 0.6344 0.11368 0.01131 0.0
H7350 H 0.62444 0.13566 0.04333 0.0
H7351 H 0.65902 0.00837 0.95274 0.0
H7352 H 0.21897 0.4879 0.25526 0.0
H7353 H 0.23559 0.47065 0.26297 0.0
H7354 H 0.19638 0.4305 0.25829 0.0
H7355 H 0.17973 0.44793 0.25119 0.0
H7356 H 0.21305 0.43425 0.28553 0.0
H7357 H 0.22327 0.43343 0.23106 0.0
H7358 H 0.23136 0.44587 0.20816 0.0
H7359 H 0.27528 0.46836 0.23418 0.0
H7360 H 0.26738 0.45622 0.25731 0.0
H7361 H 0.24596 0.36634 0.28156 0.0
H7362 H 0.23205 0.38743 0.27957 0.0
H7363 H 0.2746 0.4234 0.28623 0.0
H7364 H 0.28861 0.40227 0.28735 0.0
H7365 H 0.25821 0.42459 0.26028 0.0
H7366 H 0.24862 0.42138 0.3135 0.0
H7367 H 0.2398 0.41007 0.33671 0.0
H7368 H 0.1939 0.39591 0.31341 0.0
H7369 H 0.20251 0.40617 0.28983 0.0
C7370 C 0.21401 0.4753 0.25563 0.0
C7371 C 0.19819 0.4691 0.25266 0.0
C7372 C 0.22347 0.46549 0.26 0.0
C7373 C 0.21718 0.44931 0.26108 0.0
C7374 C 0.2014 0.44299 0.25755 0.0
C7375 C 0.19194 0.45287 0.25346 0.0
C7376 C 0.22685 0.43916 0.26686 0.0
C7377 C 0.22281 0.43187 0.2799 0.0
C7378 C 0.23994 0.43683 0.2599 0.0
C7379 C 0.24468 0.44405 0.24595 0.0
C7380 C 0.23461 0.44112 0.23193 0.0
C7381 C 0.23917 0.44811 0.2189 0.0
C7382 C 0.25381 0.45794 0.21972 0.0
C7383 C 0.26394 0.46077 0.23356 0.0
C7384 C 0.25943 0.45383 0.24663 0.0
C7385 C 0.25234 0.37878 0.28278 0.0
C7386 C 0.26837 0.38265 0.28436 0.0
C7387 C 0.24438 0.39083 0.28186 0.0
C7388 C 0.25233 0.40696 0.28279 0.0
C7389 C 0.2683 0.411 0.2855 0.0
C7390 C 0.27627 0.39893 0.28625 0.0
C7391 C 0.24412 0.41911 0.27871 0.0
C7392 C 0.24849 0.42691 0.26602 0.0
C7393 C 0.23122 0.42178 0.28592 0.0
C7394 C 0.22627 0.41447 0.29978 0.0
C7395 C 0.2367 0.4155 0.31318 0.0
C7396 C 0.23173 0.40922 0.32643 0.0
C7397 C 0.21631 0.40212 0.32653 0.0
C7398 C 0.20587 0.40115 0.31333 0.0
C7399 C 0.21081 0.40714 0.29997 0.0
H7400 H 0.21245 0.39746 0.33688 0.0
H7401 H 0.25731 0.46333 0.20963 0.0
H7402 H 0.20943 0.40829 0.99828 0.0
H7403 H 0.18746 0.42046 0.99571 0.0
H7404 H 0.21003 0.46018 0.03267 0.0
H7405 H 0.2319 0.44801 0.03539 0.0
H7406 H 0.18162 0.45036 0.03752 0.0
H7407 H 0.20627 0.46242 0.99117 0.0
H7408 H 0.21642 0.45505 0.96608 0.0
H7409 H 0.17229 0.42589 0.94595 0.0
H7410 H 0.16192 0.43291 0.97099 0.0
H7411 H 0.13927 0.50852 0.03073 0.0
H7412 H 0.1592 0.49349 0.02985 0.0
H7413 H 0.13122 0.45712 0.99282 0.0
H7414 H 0.11112 0.47228 0.99356 0.0
H7415 H 0.16027 0.4625 0.98689 0.0
H7416 H 0.13496 0.45026 0.03118 0.0
H7417 H 0.12356 0.45604 0.0558 0.0
H7418 H 0.16731 0.48302 0.07937 0.0
H7419 H 0.17894 0.4776 0.0548 0.0
C7420 C 0.2098 0.41971 0.00575 0.0
C7421 C 0.22252 0.42713 0.01706 0.0
C7422 C 0.19719 0.42669 0.00426 0.0
C7423 C 0.19704 0.4414 0.01387 0.0
C7424 C 0.20975 0.44882 0.02511 0.0
C7425 C 0.22228 0.4418 0.02669 0.0
C7426 C 0.18362 0.44899 0.01262 0.0
C7427 C 0.17713 0.45318 0.02645 0.0
C7428 C 0.17716 0.45208 0.9981 0.0
C7429 C 0.18336 0.44806 0.983 0.0
C7430 C 0.19875 0.45436 0.98142 0.0
C7431 C 0.20454 0.45025 0.96721 0.0
C7432 C 0.19501 0.43998 0.95444 0.0
C7433 C 0.17966 0.43383 0.95585 0.0
C7434 C 0.17382 0.43787 0.97004 0.0
C7435 C 0.13723 0.49725 0.02247 0.0
C7436 C 0.12341 0.49152 0.01241 0.0
C7437 C 0.14871 0.48865 0.02194 0.0
C7438 C 0.14668 0.47393 0.0115 0.0
C7439 C 0.13309 0.46839 1.00106 0.0
C7440 C 0.12159 0.47708 1.0015 0.0
C7441 C 0.15866 0.46431 0.01189 0.0
C7442 C 0.16479 0.45965 0.99793 0.0
C7443 C 0.16466 0.46052 0.02624 0.0
C7444 C 0.15779 0.46362 0.04112 0.0
C7445 C 0.14213 0.4575 0.04159 0.0
C7446 C 0.13563 0.4607 0.05554 0.0
C7447 C 0.1447 0.46992 0.06913 0.0
C7448 C 0.1603 0.47589 0.06882 0.0
C7449 C 0.16686 0.47274 0.0549 0.0
H7450 H 0.13964 0.4724 0.07992 0.0
H7451 H 0.19952 0.4368 0.94346 0.0
H7452 H 0.8768 0.95418 0.2364 0.0
H7453 H 0.86392 0.92636 0.23749 0.0
H7454 H 0.842 0.94317 0.27699 0.0
H7455 H 0.85448 0.97106 0.27581 0.0
H7456 H 0.84946 0.9168 0.28295 0.0
H7457 H 0.82295 0.92816 0.23731 0.0
H7458 H 0.8198 0.93674 0.21137 0.0
H7459 H 0.83944 0.8987 0.19031 0.0
H7460 H 0.8429 0.89003 0.2162 0.0
H7461 H 0.7869 0.8457 0.27563 0.0
H7462 H 0.80256 0.87268 0.27487 0.0
H7463 H 0.83266 0.85106 0.24721 0.0
H7464 H 0.81725 0.82379 0.24858 0.0
H7465 H 0.82194 0.87902 0.23499 0.0
H7466 H 0.84697 0.86698 0.28123 0.0
H7467 H 0.8492 0.85866 0.30737 0.0
H7468 H 0.8311 0.89831 0.32748 0.0
H7469 H 0.82849 0.9067 0.30136 0.0
C7470 C 0.8691 0.95224 0.24525 0.0
C7471 C 0.86696 0.96559 0.25595 0.0
C7472 C 0.86164 0.93599 0.24589 0.0
C7473 C 0.8516 0.93214 0.25724 0.0
C7474 C 0.84958 0.94536 0.26806 0.0
C7475 C 0.85695 0.96161 0.26738 0.0
C7476 C 0.84329 0.91456 0.25787 0.0
C7477 C 0.84335 0.90872 0.2724 0.0
C7478 C 0.83533 0.90338 0.24427 0.0
C7479 C 0.83335 0.90858 0.22872 0.0
C7480 C 0.82672 0.92171 0.22718 0.0
C7481 C 0.82486 0.92658 0.21248 0.0
C7482 C 0.82947 0.9183 0.19921 0.0
C7483 C 0.83591 0.90512 0.2006 0.0
C7484 C 0.83782 0.90022 0.21529 0.0
C7485 C 0.79698 0.84657 0.26956 0.0
C7486 C 0.80074 0.83229 0.26233 0.0
C7487 C 0.80598 0.86218 0.26909 0.0
C7488 C 0.81896 0.86432 0.26093 0.0
C7489 C 0.82278 0.85005 0.25361 0.0
C7490 C 0.81398 0.83433 0.2545 0.0
C7491 C 0.82819 0.88137 0.26001 0.0
C7492 C 0.82818 0.88712 0.24548 0.0
C7493 C 0.83607 0.8925 0.27362 0.0
C7494 C 0.83736 0.88735 0.28928 0.0
C7495 C 0.84327 0.8738 0.29117 0.0
C7496 C 0.84465 0.8691 0.306 0.0
C7497 C 0.84026 0.87793 0.31907 0.0
C7498 C 0.83447 0.89147 0.31733 0.0
C7499 C 0.83304 0.8962 0.30252 0.0
H7500 H 0.84143 0.87434 0.33056 0.0
H7501 H 0.82801 0.92208 0.18783 0.0
H7502 H 0.73041 0.10182 0.76097 0.0
H7503 H 0.74622 0.12877 0.76109 0.0
H7504 H 0.71618 0.14986 0.78961 0.0
H7505 H 0.70002 0.12301 0.78902 0.0
H7506 H 0.7172 0.15941 0.76112 0.0
H7507 H 0.75346 0.1548 0.80366 0.0
H7508 H 0.77169 0.14245 0.81756 0.0
H7509 H 0.79856 0.14407 0.77873 0.0
H7510 H 0.78041 0.15631 0.76455 0.0
H7511 H 0.75399 0.24075 0.78316 0.0
H7512 H 0.74384 0.2119 0.78246 0.0
H7513 H 0.77049 0.20059 0.74485 0.0
H7514 H 0.78064 0.22954 0.7453 0.0
H7515 H 0.77247 0.18489 0.77357 0.0
H7516 H 0.73742 0.19254 0.73255 0.0
H7517 H 0.71996 0.20662 0.7199 0.0
H7518 H 0.69101 0.20017 0.75663 0.0
H7519 H 0.70842 0.18625 0.76964 0.0
C7520 C 0.72748 0.11221 0.76765 0.0
C7521 C 0.71391 0.1105 0.77471 0.0
C7522 C 0.73655 0.12753 0.76781 0.0
C7523 C 0.73219 0.14117 0.77521 0.0
C7524 C 0.7196 0.13936 0.78379 0.0
C7525 C 0.71046 0.12405 0.78354 0.0
C7526 C 0.73898 0.15712 0.77165 0.0
C7527 C 0.72926 0.16508 0.76403 0.0
C7528 C 0.75479 0.16398 0.77467 0.0
C7529 C 0.76549 0.15626 0.78298 0.0
C7530 C 0.76316 0.15234 0.79802 0.0
C7531 C 0.77351 0.14542 0.80597 0.0
C7532 C 0.78625 0.14242 0.79901 0.0
C7533 C 0.78868 0.14637 0.78409 0.0
C7534 C 0.77837 0.15331 0.77611 0.0
C7535 C 0.75772 0.23213 0.77479 0.0
C7536 C 0.76809 0.23723 0.76433 0.0
C7537 C 0.75185 0.21575 0.77432 0.0
C7538 C 0.75641 0.20441 0.7635 0.0
C7539 C 0.76688 0.20938 0.75315 0.0
C7540 C 0.77261 0.2258 0.75345 0.0
C7541 C 0.75059 0.18732 0.76375 0.0
C7542 C 0.76046 0.17905 0.77053 0.0
C7543 C 0.73491 0.18019 0.75999 0.0
C7544 C 0.7243 0.18843 0.75214 0.0
C7545 C 0.7274 0.19423 0.73801 0.0
C7546 C 0.71749 0.20216 0.73075 0.0
C7547 C 0.7044 0.20432 0.73747 0.0
C7548 C 0.70116 0.1985 0.75144 0.0
C7549 C 0.71103 0.19056 0.75875 0.0
H7550 H 0.69675 0.21047 0.73185 0.0
H7551 H 0.79426 0.13709 0.80519 0.0
loop_
_geom_bond_atom_site_label_1
_geom_bond_atom_site_label_2
_geom_bond_distance
_geom_bond_site_symmetry_2
_ccdc_geom_bond_type
Li0 N17 1.990 . S
Li0 O60 1.956 . S
Li0 O61 1.970 . S
Li0 O62 1.961 . S
Li1 N25 1.990 . S
Li1 O60 1.970 . S
Li1 O61 1.956 . S
Li1 O63 1.961 . S
Li2 N47 1.990 . S
Li2 O60 1.961 . S
Li2 O62 1.956 . S
Li2 O63 1.970 . S
Li3 N53 1.990 . S
Li3 O61 1.961 . S
Li3 O62 1.970 . S
Li3 O63 1.956 . S
C4 C6 1.348 . S
C4 C7 1.356 . S
C4 O60 1.325 . S
N5 C8 1.314 . S
N5 C9 1.279 . S
C6 C4 1.348 . S
C6 C8 1.353 . S
C6 H64 0.929 . S
C7 C4 1.356 . S
C7 C9 1.358 . S
C7 H65 0.930 . S
C8 N5 1.314 . S
C8 C6 1.353 . S
C8 H66 0.930 . S
C9 N5 1.279 . S
C9 C7 1.358 . S
C9 H67 0.930 . S
C10 C13 1.348 . S
C10 C14 1.356 . S
C10 O61 1.325 . S
C11 N12 1.279 . S
C11 C14 1.358 . S
C11 H68 0.930 . S
N12 C11 1.279 . S
N12 C15 1.314 . S
C13 C10 1.348 . S
C13 C15 1.353 . S
C13 H69 0.929 . S
C14 C10 1.356 . S
C14 C11 1.358 . S
C14 H70 0.930 . S
C15 N12 1.314 . S
C15 C13 1.353 . S
C15 H71 0.930 . S
C16 N17 1.314 . S
C16 C21 1.353 . S
C16 H22 0.930 . S
N17 Li0 1.990 . S
N17 C16 1.314 . S
N17 C19 1.279 . S
C18 C19 1.358 . S
C18 C20 1.356 . S
C18 H72 0.930 . S
C19 N17 1.279 . S
C19 C18 1.358 . S
C19 H23 0.930 . S
C20 C18 1.356 . S
C20 C21 1.348 . S
C21 C16 1.353 . S
C21 C20 1.348 . S
C21 H73 0.926 1_455 S
H22 C16 0.930 . S
H23 C19 0.930 . S
C24 N25 1.314 . S
C24 C26 1.353 . S
C24 H30 0.930 . S
N25 Li1 1.990 . S
N25 C24 1.314 . S
N25 C28 1.279 . S
C26 C24 1.353 . S
C26 C29 1.348 . S
C26 H74 0.929 . S
C27 C28 1.358 . S
C27 C29 1.356 . S
C27 H75 0.930 . S
C28 N25 1.279 . S
C28 C27 1.358 . S
C28 H31 0.930 . S
C29 C26 1.348 . S
C29 C27 1.356 . S
H30 C24 0.930 . S
H31 C28 0.930 . S
C32 C34 1.348 . S
C32 C35 1.356 . S
C32 O62 1.325 . S
N33 C36 1.314 . S
N33 C37 1.279 . S
C34 C32 1.348 . S
C34 C36 1.353 . S
C34 H76 0.929 . S
C35 C32 1.356 . S
C35 C37 1.358 . S
C35 H77 0.930 . S
C36 N33 1.314 . S
C36 C34 1.353 . S
C36 H78 0.930 . S
C37 N33 1.279 . S
C37 C35 1.358 . S
C37 H79 0.930 . S
C38 C39 1.348 . S
C38 C40 1.356 . S
C38 O63 1.325 . S
C39 C38 1.348 . S
C39 C41 1.353 . S
C39 H80 0.929 . S
C40 C38 1.356 . S
C40 C42 1.358 . S
C40 H81 0.930 . S
C41 C39 1.353 . S
C41 N43 1.314 . S
C41 H82 0.930 . S
C42 C40 1.358 . S
C42 N43 1.279 . S
C42 H83 0.930 . S
N43 C41 1.314 . S
N43 C42 1.279 . S
C44 C46 1.353 . S
C44 N47 1.314 . S
C44 H50 0.930 . S
C45 N47 1.279 . S
C45 C48 1.358 . S
C45 H51 0.930 . S
C46 C44 1.353 . S
C46 C49 1.348 . S
C46 H84 0.929 . S
N47 Li2 1.990 . S
N47 C44 1.314 . S
N47 C45 1.279 . S
C48 C45 1.358 . S
C48 C49 1.356 . S
C48 H85 0.930 . S
C49 C46 1.348 . S
C49 C48 1.356 . S
H50 C44 0.930 . S
H51 C45 0.930 . S
C52 N53 1.314 . S
C52 C54 1.353 . S
C52 H58 0.930 . S
N53 Li3 1.990 . S
N53 C52 1.314 . S
N53 C56 1.279 . S
C54 C52 1.353 . S
C54 C57 1.348 . S
C54 H86 0.929 . S
C55 C56 1.358 . S
C55 C57 1.356 . S
C55 H87 0.930 . S
C56 N53 1.279 . S
C56 C55 1.358 . S
C56 H59 0.930 . S
C57 C54 1.348 . S
C57 C55 1.356 . S
H58 C52 0.930 . S
H59 C56 0.930 . S
O60 Li0 1.956 . S
O60 Li1 1.970 . S
O60 Li2 1.961 . S
O60 C4 1.325 . S
O61 Li0 1.970 . S
O61 Li1 1.956 . S
O61 Li3 1.961 . S
O61 C10 1.325 . S
O62 Li0 1.961 . S
O62 Li2 1.956 . S
O62 Li3 1.970 . S
O62 C32 1.325 . S
O63 Li1 1.961 . S
O63 Li2 1.970 . S
O63 Li3 1.956 . S
O63 C38 1.325 . S
H64 C6 0.929 . S
H65 C7 0.930 . S
H66 C8 0.930 . S
H67 C9 0.930 . S
H68 C11 0.930 . S
H69 C13 0.929 . S
H70 C14 0.930 . S
H71 C15 0.930 . S
H72 C18 0.930 . S
H73 C21 0.926 1_655 S
H74 C26 0.929 . S
H75 C27 0.930 . S
H76 C34 0.929 . S
H77 C35 0.930 . S
H78 C36 0.930 . S
H79 C37 0.930 . S
H80 C39 0.929 . S
H81 C40 0.930 . S
H82 C41 0.930 . S
H83 C42 0.930 . S
H84 C46 0.929 . S
H85 C48 0.930 . S
H86 C54 0.929 . S
H87 C55 0.930 . S
Li88 N105 1.990 . S
Li88 O148 1.956 . S
Li88 O149 1.970 . S
Li88 O150 1.961 1_455 S
Li89 N113 1.990 . S
Li89 O148 1.970 . S
Li89 O149 1.956 . S
Li89 O151 1.934 1_455 S
Li90 N135 1.990 . S
Li90 O148 1.961 1_655 S
Li90 O150 1.956 . S
Li90 O151 1.971 . S
Li91 N141 1.990 . S
Li91 O149 1.961 1_655 S
Li91 O150 1.970 . S
Li91 O151 1.994 . S
C92 C94 1.348 . S
C92 C95 1.356 . S
C92 O148 1.325 . S
N93 C96 1.314 . S
N93 C97 1.279 . S
C94 C92 1.348 . S
C94 C96 1.353 . S
C94 H152 0.929 . S
C95 C92 1.356 . S
C95 C97 1.358 . S
C95 H153 0.930 . S
C96 N93 1.314 . S
C96 C94 1.353 . S
C96 H154 0.930 . S
C97 N93 1.279 . S
C97 C95 1.358 . S
C97 H155 0.930 . S
C98 C101 1.348 . S
C98 C102 1.356 . S
C98 O149 1.325 . S
C99 N100 1.279 . S
C99 C102 1.358 . S
C99 H156 0.930 . S
N100 C99 1.279 . S
N100 C103 1.314 . S
C101 C98 1.348 . S
C101 C103 1.353 . S
C101 H157 0.929 . S
C102 C98 1.356 . S
C102 C99 1.358 . S
C102 H158 0.931 . S
C103 N100 1.314 . S
C103 C101 1.353 . S
C103 H159 0.930 . S
C104 N105 1.314 1_655 S
C104 C109 1.353 . S
C104 H110 0.930 . S
N105 Li88 1.990 . S
N105 C104 1.314 1_455 S
N105 C107 1.279 . S
C106 C107 1.358 . S
C106 C108 1.356 . S
C106 H160 0.930 . S
C107 N105 1.279 . S
C107 C106 1.358 . S
C107 H111 0.930 . S
C108 C106 1.356 . S
C108 C109 1.348 1_455 S
C109 C104 1.353 . S
C109 C108 1.348 1_655 S
C109 H161 0.929 . S
H110 C104 0.930 . S
H111 C107 0.930 . S
C112 N113 1.314 . S
C112 C114 1.353 . S
C112 H118 0.930 . S
N113 Li89 1.990 . S
N113 C112 1.314 . S
N113 C116 1.279 . S
C114 C112 1.353 . S
C114 C117 1.348 . S
C114 H162 0.929 . S
C115 C116 1.358 . S
C115 C117 1.356 . S
C115 H163 0.930 . S
C116 N113 1.279 . S
C116 C115 1.358 . S
C116 H119 0.930 . S
C117 C114 1.348 . S
C117 C115 1.356 . S
H118 C112 0.930 . S
H119 C116 0.930 . S
C120 C122 1.348 . S
C120 C123 1.356 . S
C120 O150 1.325 . S
N121 C124 1.314 . S
N121 C125 1.279 . S
C122 C120 1.348 . S
C122 C124 1.353 . S
C122 H164 0.929 . S
C123 C120 1.356 . S
C123 C125 1.358 . S
C123 H165 0.930 . S
C124 N121 1.314 . S
C124 C122 1.353 . S
C124 H166 0.930 . S
C125 N121 1.279 . S
C125 C123 1.358 . S
C125 H167 0.930 . S
C126 C127 1.348 . S
C126 C128 1.356 1_655 S
C126 O151 1.324 . S
C127 C126 1.348 . S
C127 C129 1.353 . S
C127 H168 0.929 . S
C128 C126 1.356 1_455 S
C128 C130 1.357 . S
C128 H169 0.930 . S
C129 C127 1.353 . S
C129 N131 1.314 . S
C129 H170 0.930 . S
C130 C128 1.357 . S
C130 N131 1.274 1_455 S
C130 H171 0.943 . S
N131 C129 1.314 . S
N131 C130 1.274 1_655 S
C132 C134 1.353 . S
C132 N135 1.314 1_455 S
C132 H138 0.930 . S
C133 N135 1.279 . S
C133 C136 1.358 . S
C133 H139 0.930 . S
C134 C132 1.353 . S
C134 C137 1.348 1_455 S
C134 H172 0.929 . S
N135 Li90 1.990 . S
N135 C132 1.314 1_655 S
N135 C133 1.279 . S
C136 C133 1.358 . S
C136 C137 1.356 . S
C136 H173 0.930 . S
C137 C134 1.348 1_655 S
C137 C136 1.356 . S
H138 C132 0.930 . S
H139 C133 0.930 . S
C140 N141 1.314 . S
C140 C142 1.353 . S
C140 H146 0.930 . S
N141 Li91 1.990 . S
N141 C140 1.314 . S
N141 C144 1.279 . S
C142 C140 1.353 . S
C142 C145 1.348 . S
C142 H174 0.929 . S
C143 C144 1.358 . S
C143 C145 1.356 . S
C143 H175 0.930 . S
C144 N141 1.279 . S
C144 C143 1.358 . S
C144 H147 0.930 . S
C145 C142 1.348 . S
C145 C143 1.356 . S
H146 C140 0.930 . S
H147 C144 0.930 . S
O148 Li88 1.956 . S
O148 Li89 1.970 . S
O148 Li90 1.961 1_455 S
O148 C92 1.325 . S
O149 Li88 1.970 . S
O149 Li89 1.956 . S
O149 Li91 1.961 1_455 S
O149 C98 1.325 . S
O150 Li88 1.961 1_655 S
O150 Li90 1.956 . S
O150 Li91 1.970 . S
O150 C120 1.325 . S
O151 Li89 1.934 1_655 S
O151 Li90 1.971 . S
O151 Li91 1.994 . S
O151 C126 1.324 . S
H152 C94 0.929 . S
H153 C95 0.930 . S
H154 C96 0.930 . S
H155 C97 0.930 . S
H156 C99 0.930 . S
H157 C101 0.929 . S
H158 C102 0.931 . S
H159 C103 0.930 . S
H160 C106 0.930 . S
H161 C109 0.929 . S
H162 C114 0.929 . S
H163 C115 0.930 . S
H164 C122 0.929 . S
H165 C123 0.930 . S
H166 C124 0.930 . S
H167 C125 0.930 . S
H168 C127 0.929 . S
H169 C128 0.930 . S
H170 C129 0.930 . S
H171 C130 0.943 . S
H172 C134 0.929 . S
H173 C136 0.930 . S
H174 C142 0.929 . S
H175 C143 0.930 . S
Li176 N193 1.990 . S
Li176 O236 1.956 . S
Li176 O237 1.970 . S
Li176 O238 1.961 . S
Li177 N201 1.990 . S
Li177 O236 1.970 . S
Li177 O237 1.956 . S
Li177 O239 1.961 . S
Li178 N223 1.990 . S
Li178 O236 1.961 . S
Li178 O238 1.956 . S
Li178 O239 1.970 . S
Li179 N229 1.990 . S
Li179 O237 1.961 . S
Li179 O238 1.970 . S
Li179 O239 1.956 . S
C180 C182 1.348 . S
C180 C183 1.356 . S
C180 O236 1.325 . S
N181 C184 1.314 . S
N181 C185 1.279 . S
C182 C180 1.348 . S
C182 C184 1.353 . S
C182 H240 0.929 . S
C183 C180 1.356 . S
C183 C185 1.358 . S
C183 H241 0.930 . S
C184 N181 1.314 . S
C184 C182 1.353 . S
C184 H242 0.930 . S
C185 N181 1.279 . S
C185 C183 1.358 . S
C185 H243 0.930 . S
C186 C189 1.348 . S
C186 C190 1.356 . S
C186 O237 1.325 . S
C187 N188 1.279 . S
C187 C190 1.358 . S
C187 H244 0.930 . S
N188 C187 1.279 . S
N188 C191 1.314 . S
C189 C186 1.348 . S
C189 C191 1.353 . S
C189 H245 0.929 . S
C190 C186 1.356 . S
C190 C187 1.358 . S
C190 H246 0.930 . S
C191 N188 1.314 . S
C191 C189 1.353 . S
C191 H247 0.930 . S
C192 N193 1.314 . S
C192 C197 1.353 . S
C192 H198 0.930 . S
N193 Li176 1.990 . S
N193 C192 1.314 . S
N193 C195 1.279 . S
C194 C195 1.358 . S
C194 C196 1.356 . S
C194 H248 0.930 . S
C195 N193 1.279 . S
C195 C194 1.358 . S
C195 H199 0.930 . S
C196 C194 1.356 . S
C196 C197 1.348 . S
C197 C192 1.353 . S
C197 C196 1.348 . S
C197 H249 0.929 . S
H198 C192 0.930 . S
H199 C195 0.930 . S
C200 N201 1.314 . S
C200 C202 1.353 . S
C200 H206 0.930 . S
N201 Li177 1.990 . S
N201 C200 1.314 . S
N201 C204 1.279 . S
C202 C200 1.353 . S
C202 C205 1.348 . S
C202 H250 0.929 . S
C203 C204 1.358 . S
C203 C205 1.356 . S
C203 H251 0.930 . S
C204 N201 1.279 . S
C204 C203 1.358 . S
C204 H207 0.930 . S
C205 C202 1.348 . S
C205 C203 1.356 . S
H206 C200 0.930 . S
H207 C204 0.930 . S
C208 C210 1.348 . S
C208 C211 1.356 . S
C208 O238 1.325 . S
N209 C212 1.314 . S
N209 C213 1.279 . S
C210 C208 1.348 . S
C210 C212 1.353 . S
C210 H252 0.929 . S
C211 C208 1.356 . S
C211 C213 1.358 . S
C211 H253 0.930 . S
C212 N209 1.314 . S
C212 C210 1.353 . S
C212 H254 0.930 . S
C213 N209 1.279 . S
C213 C211 1.358 . S
C213 H255 0.930 . S
C214 C215 1.348 . S
C214 C216 1.356 . S
C214 O239 1.325 . S
C215 C214 1.348 . S
C215 C217 1.353 . S
C215 H256 0.929 . S
C216 C214 1.356 . S
C216 C218 1.358 . S
C216 H257 0.930 . S
C217 C215 1.353 . S
C217 N219 1.314 . S
C217 H258 0.930 . S
C218 C216 1.358 . S
C218 N219 1.279 . S
C218 H259 0.930 . S
N219 C217 1.314 . S
N219 C218 1.279 . S
C220 C222 1.353 . S
C220 N223 1.314 . S
C220 H226 0.930 . S
C221 N223 1.279 . S
C221 C224 1.358 . S
C221 H227 0.930 . S
C222 C220 1.353 . S
C222 C225 1.348 . S
C222 H260 0.929 . S
N223 Li178 1.990 . S
N223 C220 1.314 . S
N223 C221 1.279 . S
C224 C221 1.358 . S
C224 C225 1.356 . S
C224 H261 0.930 . S
C225 C222 1.348 . S
C225 C224 1.356 . S
H226 C220 0.930 . S
H227 C221 0.930 . S
C228 N229 1.314 . S
C228 C230 1.353 . S
C228 H234 0.930 . S
N229 Li179 1.990 . S
N229 C228 1.314 . S
N229 C232 1.279 . S
C230 C228 1.353 . S
C230 C233 1.348 . S
C230 H262 0.929 . S
C231 C232 1.358 . S
C231 C233 1.356 . S
C231 H263 0.930 . S
C232 N229 1.279 . S
C232 C231 1.358 . S
C232 H235 0.930 . S
C233 C230 1.348 . S
C233 C231 1.356 . S
H234 C228 0.930 . S
H235 C232 0.930 . S
O236 Li176 1.956 . S
O236 Li177 1.970 . S
O236 Li178 1.961 . S
O236 C180 1.325 . S
O237 Li176 1.970 . S
O237 Li177 1.956 . S
O237 Li179 1.961 . S
O237 C186 1.325 . S
O238 Li176 1.961 . S
O238 Li178 1.956 . S
O238 Li179 1.970 . S
O238 C208 1.325 . S
O239 Li177 1.961 . S
O239 Li178 1.970 . S
O239 Li179 1.956 . S
O239 C214 1.325 . S
H240 C182 0.929 . S
H241 C183 0.930 . S
H242 C184 0.930 . S
H243 C185 0.930 . S
H244 C187 0.930 . S
H245 C189 0.929 . S
H246 C190 0.930 . S
H247 C191 0.930 . S
H248 C194 0.930 . S
H249 C197 0.929 . S
H250 C202 0.929 . S
H251 C203 0.930 . S
H252 C210 0.929 . S
H253 C211 0.930 . S
H254 C212 0.930 . S
H255 C213 0.930 . S
H256 C215 0.929 . S
H257 C216 0.930 . S
H258 C217 0.930 . S
H259 C218 0.930 . S
H260 C222 0.929 . S
H261 C224 0.930 . S
H262 C230 0.929 . S
H263 C231 0.930 . S
Li264 N281 1.990 . S
Li264 O324 1.956 . S
Li264 O325 1.970 . S
Li264 O326 1.961 . S
Li265 N289 1.990 . S
Li265 O324 1.970 . S
Li265 O325 1.956 . S
Li265 O327 1.961 . S
Li266 N311 1.990 . S
Li266 O324 1.961 . S
Li266 O326 1.956 . S
Li266 O327 1.970 . S
Li267 N317 1.990 . S
Li267 O325 1.961 . S
Li267 O326 1.970 . S
Li267 O327 1.956 . S
C268 C270 1.348 . S
C268 C271 1.356 . S
C268 O324 1.325 . S
N269 C272 1.314 . S
N269 C273 1.279 . S
C270 C268 1.348 . S
C270 C272 1.353 . S
C270 H328 0.929 . S
C271 C268 1.356 . S
C271 C273 1.358 . S
C271 H329 0.930 . S
C272 N269 1.314 . S
C272 C270 1.353 . S
C272 H330 0.930 . S
C273 N269 1.279 . S
C273 C271 1.358 . S
C273 H331 0.930 . S
C274 C277 1.348 . S
C274 C278 1.356 . S
C274 O325 1.325 . S
C275 N276 1.279 . S
C275 C278 1.358 . S
C275 H332 0.930 . S
N276 C275 1.279 . S
N276 C279 1.314 . S
C277 C274 1.348 . S
C277 C279 1.353 . S
C277 H333 0.929 . S
C278 C274 1.356 . S
C278 C275 1.358 . S
C278 H334 0.930 . S
C279 N276 1.314 . S
C279 C277 1.353 . S
C279 H335 0.930 . S
C280 N281 1.314 . S
C280 C285 1.353 . S
C280 H286 0.930 . S
N281 Li264 1.990 . S
N281 C280 1.314 . S
N281 C283 1.279 . S
C282 C283 1.358 . S
C282 C284 1.356 . S
C282 H336 0.930 . S
C283 N281 1.279 . S
C283 C282 1.358 . S
C283 H287 0.930 . S
C284 C282 1.356 . S
C284 C285 1.348 . S
C285 C280 1.353 . S
C285 C284 1.348 . S
C285 H337 0.929 . S
H286 C280 0.930 . S
H287 C283 0.930 . S
C288 N289 1.314 . S
C288 C290 1.353 . S
C288 H294 0.930 . S
N289 Li265 1.990 . S
N289 C288 1.314 . S
N289 C292 1.279 . S
C290 C288 1.353 . S
C290 C293 1.348 . S
C290 H338 0.929 . S
C291 C292 1.358 . S
C291 C293 1.356 . S
C291 H339 0.930 . S
C292 N289 1.279 . S
C292 C291 1.358 . S
C292 H295 0.930 . S
C293 C290 1.348 . S
C293 C291 1.356 . S
H294 C288 0.930 . S
H295 C292 0.930 . S
C296 C298 1.348 . S
C296 C299 1.356 . S
C296 O326 1.325 . S
N297 C300 1.314 . S
N297 C301 1.279 . S
C298 C296 1.348 . S
C298 C300 1.353 . S
C298 H340 0.929 . S
C299 C296 1.356 . S
C299 C301 1.358 . S
C299 H341 0.930 . S
C300 N297 1.314 . S
C300 C298 1.353 . S
C300 H342 0.930 . S
C301 N297 1.279 . S
C301 C299 1.358 . S
C301 H343 0.930 . S
C302 C303 1.348 . S
C302 C304 1.356 . S
C302 O327 1.325 . S
C303 C302 1.348 . S
C303 C305 1.353 . S
C303 H344 0.929 . S
C304 C302 1.356 . S
C304 C306 1.358 . S
C304 H345 0.930 . S
C305 C303 1.353 . S
C305 N307 1.314 . S
C305 H346 0.930 . S
C306 C304 1.358 . S
C306 N307 1.279 . S
C306 H347 0.930 . S
N307 C305 1.314 . S
N307 C306 1.279 . S
C308 C310 1.353 . S
C308 N311 1.314 . S
C308 H314 0.930 . S
C309 N311 1.279 . S
C309 C312 1.358 . S
C309 H315 0.930 . S
C310 C308 1.353 . S
C310 C313 1.348 . S
C310 H348 0.929 . S
N311 Li266 1.990 . S
N311 C308 1.314 . S
N311 C309 1.279 . S
C312 C309 1.358 . S
C312 C313 1.356 . S
C312 H349 0.930 . S
C313 C310 1.348 . S
C313 C312 1.356 . S
H314 C308 0.930 . S
H315 C309 0.930 . S
C316 N317 1.314 . S
C316 C318 1.353 . S
C316 H322 0.930 . S
N317 Li267 1.990 . S
N317 C316 1.314 . S
N317 C320 1.279 . S
C318 C316 1.353 . S
C318 C321 1.348 . S
C318 H350 0.929 . S
C319 C320 1.358 . S
C319 C321 1.356 . S
C319 H351 0.930 . S
C320 N317 1.279 . S
C320 C319 1.358 . S
C320 H323 0.930 . S
C321 C318 1.348 . S
C321 C319 1.356 . S
H322 C316 0.930 . S
H323 C320 0.930 . S
O324 Li264 1.956 . S
O324 Li265 1.970 . S
O324 Li266 1.961 . S
O324 C268 1.325 . S
O325 Li264 1.970 . S
O325 Li265 1.956 . S
O325 Li267 1.961 . S
O325 C274 1.325 . S
O326 Li264 1.961 . S
O326 Li266 1.956 . S
O326 Li267 1.970 . S
O326 C296 1.325 . S
O327 Li265 1.961 . S
O327 Li266 1.970 . S
O327 Li267 1.956 . S
O327 C302 1.325 . S
H328 C270 0.929 . S
H329 C271 0.930 . S
H330 C272 0.930 . S
H331 C273 0.930 . S
H332 C275 0.930 . S
H333 C277 0.929 . S
H334 C278 0.930 . S
H335 C279 0.930 . S
H336 C282 0.930 . S
H337 C285 0.929 . S
H338 C290 0.929 . S
H339 C291 0.930 . S
H340 C298 0.929 . S
H341 C299 0.930 . S
H342 C300 0.930 . S
H343 C301 0.930 . S
H344 C303 0.929 . S
H345 C304 0.930 . S
H346 C305 0.930 . S
H347 C306 0.930 . S
H348 C310 0.929 . S
H349 C312 0.930 . S
H350 C318 0.929 . S
H351 C319 0.930 . S
Li352 N369 1.990 . S
Li352 O412 1.956 . S
Li352 O413 1.970 . S
Li352 O414 1.961 . S
Li353 N377 1.990 . S
Li353 O412 1.970 . S
Li353 O413 1.956 . S
Li353 O415 1.961 . S
Li354 N399 1.990 . S
Li354 O412 1.961 . S
Li354 O414 1.956 . S
Li354 O415 1.970 . S
Li355 N405 1.990 . S
Li355 O413 1.961 . S
Li355 O414 1.970 . S
Li355 O415 1.956 . S
C356 C358 1.348 . S
C356 C359 1.356 . S
C356 O412 1.325 . S
N357 C360 1.314 . S
N357 C361 1.279 . S
C358 C356 1.348 . S
C358 C360 1.353 . S
C358 H416 0.929 . S
C359 C356 1.356 . S
C359 C361 1.358 . S
C359 H417 0.930 . S
C360 N357 1.314 . S
C360 C358 1.353 . S
C360 H418 0.930 . S
C361 N357 1.279 . S
C361 C359 1.358 . S
C361 H419 0.930 . S
C362 C365 1.348 . S
C362 C366 1.356 . S
C362 O413 1.325 . S
C363 N364 1.279 . S
C363 C366 1.358 . S
C363 H420 0.930 . S
N364 C363 1.279 . S
N364 C367 1.314 . S
C365 C362 1.348 . S
C365 C367 1.353 . S
C365 H421 0.929 . S
C366 C362 1.356 . S
C366 C363 1.358 . S
C366 H422 0.930 . S
C367 N364 1.314 . S
C367 C365 1.353 . S
C367 H423 0.930 . S
C368 N369 1.314 . S
C368 C373 1.353 . S
C368 H374 0.930 . S
N369 Li352 1.990 . S
N369 C368 1.314 . S
N369 C371 1.279 . S
C370 C371 1.358 . S
C370 C372 1.356 . S
C370 H424 0.930 . S
C371 N369 1.279 . S
C371 C370 1.358 . S
C371 H375 0.930 . S
C372 C370 1.356 . S
C372 C373 1.348 . S
C373 C368 1.353 . S
C373 C372 1.348 . S
C373 H425 0.929 . S
H374 C368 0.930 . S
H375 C371 0.930 . S
C376 N377 1.314 . S
C376 C378 1.353 . S
C376 H382 0.930 . S
N377 Li353 1.990 . S
N377 C376 1.314 . S
N377 C380 1.279 . S
C378 C376 1.353 . S
C378 C381 1.348 . S
C378 H426 0.929 . S
C379 C380 1.358 . S
C379 C381 1.356 . S
C379 H427 0.930 . S
C380 N377 1.279 . S
C380 C379 1.358 . S
C380 H383 0.930 . S
C381 C378 1.348 . S
C381 C379 1.356 . S
H382 C376 0.930 . S
H383 C380 0.930 . S
C384 C386 1.348 . S
C384 C387 1.356 . S
C384 O414 1.325 . S
N385 C388 1.314 . S
N385 C389 1.279 1_655 S
C386 C384 1.348 . S
C386 C388 1.353 1_455 S
C386 H428 0.929 . S
C387 C384 1.356 . S
C387 C389 1.358 . S
C387 H429 0.930 . S
C388 N385 1.314 . S
C388 C386 1.353 1_655 S
C388 H430 0.930 . S
C389 N385 1.279 1_455 S
C389 C387 1.358 . S
C389 H431 0.930 . S
C390 C391 1.348 . S
C390 C392 1.356 . S
C390 O415 1.325 . S
C391 C390 1.348 . S
C391 C393 1.353 . S
C391 H432 0.929 . S
C392 C390 1.356 . S
C392 C394 1.358 . S
C392 H433 0.930 . S
C393 C391 1.353 . S
C393 N395 1.314 . S
C393 H434 0.930 . S
C394 C392 1.358 . S
C394 N395 1.279 . S
C394 H435 0.930 . S
N395 C393 1.314 . S
N395 C394 1.279 . S
C396 C398 1.353 . S
C396 N399 1.314 . S
C396 H402 0.930 . S
C397 N399 1.279 . S
C397 C400 1.358 . S
C397 H403 0.930 . S
C398 C396 1.353 . S
C398 C401 1.348 . S
C398 H436 0.929 . S
N399 Li354 1.990 . S
N399 C396 1.314 . S
N399 C397 1.279 . S
C400 C397 1.358 . S
C400 C401 1.356 . S
C400 H437 0.930 . S
C401 C398 1.348 . S
C401 C400 1.356 . S
H402 C396 0.930 . S
H403 C397 0.930 . S
C404 N405 1.314 . S
C404 C406 1.353 . S
C404 H410 0.930 . S
N405 Li355 1.990 . S
N405 C404 1.314 . S
N405 C408 1.279 . S
C406 C404 1.353 . S
C406 C409 1.348 1_455 S
C406 H438 0.929 1_455 S
C407 C408 1.358 . S
C407 C409 1.356 1_455 S
C407 H439 0.925 1_455 S
C408 N405 1.279 . S
C408 C407 1.358 . S
C408 H411 0.930 . S
C409 C406 1.348 1_655 S
C409 C407 1.356 1_655 S
H410 C404 0.930 . S
H411 C408 0.930 . S
O412 Li352 1.956 . S
O412 Li353 1.970 . S
O412 Li354 1.961 . S
O412 C356 1.325 . S
O413 Li352 1.970 . S
O413 Li353 1.956 . S
O413 Li355 1.961 . S
O413 C362 1.325 . S
O414 Li352 1.961 . S
O414 Li354 1.956 . S
O414 Li355 1.970 . S
O414 C384 1.325 . S
O415 Li353 1.961 . S
O415 Li354 1.970 . S
O415 Li355 1.956 . S
O415 C390 1.325 . S
H416 C358 0.929 . S
H417 C359 0.930 . S
H418 C360 0.930 . S
H419 C361 0.930 . S
H420 C363 0.930 . S
H421 C365 0.929 . S
H422 C366 0.930 . S
H423 C367 0.930 . S
H424 C370 0.930 . S
H425 C373 0.929 . S
H426 C378 0.929 . S
H427 C379 0.930 . S
H428 C386 0.929 . S
H429 C387 0.930 . S
H430 C388 0.930 . S
H431 C389 0.930 . S
H432 C391 0.929 . S
H433 C392 0.930 . S
H434 C393 0.930 . S
H435 C394 0.930 . S
H436 C398 0.929 . S
H437 C400 0.930 . S
H438 C406 0.929 1_655 S
H439 C407 0.925 1_655 S
Li440 N457 1.990 . S
Li440 O500 1.956 . S
Li440 O501 1.970 . S
Li440 O502 1.961 . S
Li441 N465 1.990 . S
Li441 O500 1.970 . S
Li441 O501 1.956 . S
Li441 O503 1.961 . S
Li442 N487 1.990 . S
Li442 O500 1.961 . S
Li442 O502 1.956 . S
Li442 O503 1.970 . S
Li443 N493 1.990 . S
Li443 O501 1.961 . S
Li443 O502 1.970 . S
Li443 O503 1.956 . S
C444 C446 1.348 . S
C444 C447 1.356 . S
C444 O500 1.325 . S
N445 C448 1.314 . S
N445 C449 1.279 . S
C446 C444 1.348 . S
C446 C448 1.353 . S
C446 H504 0.929 . S
C447 C444 1.356 . S
C447 C449 1.358 . S
C447 H505 0.930 . S
C448 N445 1.314 . S
C448 C446 1.353 . S
C448 H506 0.930 . S
C449 N445 1.279 . S
C449 C447 1.358 . S
C449 H507 0.930 . S
C450 C453 1.348 . S
C450 C454 1.356 . S
C450 O501 1.325 . S
C451 N452 1.279 . S
C451 C454 1.358 . S
C451 H508 0.930 . S
N452 C451 1.279 . S
N452 C455 1.314 . S
C453 C450 1.348 . S
C453 C455 1.353 . S
C453 H509 0.929 . S
C454 C450 1.356 . S
C454 C451 1.358 . S
C454 H510 0.930 . S
C455 N452 1.314 . S
C455 C453 1.353 . S
C455 H511 0.930 . S
C456 N457 1.314 . S
C456 C461 1.353 . S
C456 H462 0.930 . S
N457 Li440 1.990 . S
N457 C456 1.314 . S
N457 C459 1.279 . S
C458 C459 1.358 . S
C458 C460 1.356 . S
C458 H512 0.930 . S
C459 N457 1.279 . S
C459 C458 1.358 . S
C459 H463 0.930 . S
C460 C458 1.356 . S
C460 C461 1.348 . S
C461 C456 1.353 . S
C461 C460 1.348 . S
C461 H513 0.929 . S
H462 C456 0.930 . S
H463 C459 0.930 . S
C464 N465 1.314 . S
C464 C466 1.353 . S
C464 H470 0.930 . S
N465 Li441 1.990 . S
N465 C464 1.314 . S
N465 C468 1.279 . S
C466 C464 1.353 . S
C466 C469 1.348 . S
C466 H514 0.929 . S
C467 C468 1.358 . S
C467 C469 1.356 . S
C467 H515 0.930 . S
C468 N465 1.279 . S
C468 C467 1.358 . S
C468 H471 0.930 . S
C469 C466 1.348 . S
C469 C467 1.356 . S
H470 C464 0.930 . S
H471 C468 0.930 . S
C472 C474 1.348 . S
C472 C475 1.356 . S
C472 O502 1.325 . S
N473 C476 1.314 . S
N473 C477 1.279 . S
C474 C472 1.348 . S
C474 C476 1.353 . S
C474 H516 0.929 . S
C475 C472 1.356 . S
C475 C477 1.358 . S
C475 H517 0.930 . S
C476 N473 1.314 . S
C476 C474 1.353 . S
C476 H518 0.930 . S
C477 N473 1.279 . S
C477 C475 1.358 . S
C477 H519 0.930 . S
C478 C479 1.348 . S
C478 C480 1.356 . S
C478 O503 1.325 . S
C479 C478 1.348 . S
C479 C481 1.353 . S
C479 H520 0.929 . S
C480 C478 1.356 . S
C480 C482 1.358 . S
C480 H521 0.930 . S
C481 C479 1.353 . S
C481 N483 1.314 . S
C481 H522 0.930 . S
C482 C480 1.358 . S
C482 N483 1.279 . S
C482 H523 0.930 . S
N483 C481 1.314 . S
N483 C482 1.279 . S
C484 C486 1.353 . S
C484 N487 1.314 . S
C484 H490 0.930 . S
C485 N487 1.279 . S
C485 C488 1.358 . S
C485 H491 0.930 . S
C486 C484 1.353 . S
C486 C489 1.348 . S
C486 H524 0.929 . S
N487 Li442 1.990 . S
N487 C484 1.314 . S
N487 C485 1.279 . S
C488 C485 1.358 . S
C488 C489 1.356 . S
C488 H525 0.930 . S
C489 C486 1.348 . S
C489 C488 1.356 . S
H490 C484 0.930 . S
H491 C485 0.930 . S
C492 N493 1.314 . S
C492 C494 1.353 . S
C492 H498 0.930 . S
N493 Li443 1.990 . S
N493 C492 1.314 . S
N493 C496 1.279 . S
C494 C492 1.353 . S
C494 C497 1.348 . S
C494 H526 0.929 . S
C495 C496 1.358 . S
C495 C497 1.356 . S
C495 H527 0.930 . S
C496 N493 1.279 . S
C496 C495 1.358 . S
C496 H499 0.930 . S
C497 C494 1.348 . S
C497 C495 1.356 . S
H498 C492 0.930 . S
H499 C496 0.930 . S
O500 Li440 1.956 . S
O500 Li441 1.970 . S
O500 Li442 1.961 . S
O500 C444 1.325 . S
O501 Li440 1.970 . S
O501 Li441 1.956 . S
O501 Li443 1.961 . S
O501 C450 1.325 . S
O502 Li440 1.961 . S
O502 Li442 1.956 . S
O502 Li443 1.970 . S
O502 C472 1.325 . S
O503 Li441 1.961 . S
O503 Li442 1.970 . S
O503 Li443 1.956 . S
O503 C478 1.325 . S
H504 C446 0.929 . S
H505 C447 0.930 . S
H506 C448 0.930 . S
H507 C449 0.930 . S
H508 C451 0.930 . S
H509 C453 0.929 . S
H510 C454 0.930 . S
H511 C455 0.930 . S
H512 C458 0.930 . S
H513 C461 0.929 . S
H514 C466 0.929 . S
H515 C467 0.930 . S
H516 C474 0.929 . S
H517 C475 0.930 . S
H518 C476 0.930 . S
H519 C477 0.930 . S
H520 C479 0.929 . S
H521 C480 0.930 . S
H522 C481 0.930 . S
H523 C482 0.930 . S
H524 C486 0.929 . S
H525 C488 0.930 . S
H526 C494 0.929 . S
H527 C495 0.930 . S
Li528 N545 1.990 . S
Li528 O588 1.956 . S
Li528 O589 1.970 . S
Li528 O590 1.961 . S
Li529 N553 1.990 . S
Li529 O588 1.970 . S
Li529 O589 1.956 . S
Li529 O591 1.961 . S
Li530 N575 1.990 . S
Li530 O588 1.961 . S
Li530 O590 1.956 . S
Li530 O591 1.970 . S
Li531 N581 1.990 . S
Li531 O589 1.961 . S
Li531 O590 1.970 . S
Li531 O591 1.956 . S
C532 C534 1.348 . S
C532 C535 1.356 . S
C532 O588 1.325 . S
N533 C536 1.314 . S
N533 C537 1.279 . S
C534 C532 1.348 . S
C534 C536 1.353 . S
C534 H592 0.929 . S
C535 C532 1.356 . S
C535 C537 1.358 . S
C535 H593 0.930 . S
C536 N533 1.314 . S
C536 C534 1.353 . S
C536 H594 0.930 . S
C537 N533 1.279 . S
C537 C535 1.358 . S
C537 H595 0.930 . S
C538 C541 1.348 . S
C538 C542 1.356 . S
C538 O589 1.325 . S
C539 N540 1.279 . S
C539 C542 1.358 . S
C539 H596 0.930 . S
N540 C539 1.279 . S
N540 C543 1.314 . S
C541 C538 1.348 . S
C541 C543 1.353 . S
C541 H597 0.929 . S
C542 C538 1.356 . S
C542 C539 1.358 . S
C542 H598 0.930 . S
C543 N540 1.314 . S
C543 C541 1.353 . S
C543 H599 0.930 . S
C544 N545 1.314 . S
C544 C549 1.353 . S
C544 H550 0.930 . S
N545 Li528 1.990 . S
N545 C544 1.314 . S
N545 C547 1.279 . S
C546 C547 1.358 . S
C546 C548 1.356 . S
C546 H600 0.930 . S
C547 N545 1.279 . S
C547 C546 1.358 . S
C547 H551 0.930 . S
C548 C546 1.356 . S
C548 C549 1.348 . S
C549 C544 1.353 . S
C549 C548 1.348 . S
C549 H601 0.929 . S
H550 C544 0.930 . S
H551 C547 0.930 . S
C552 N553 1.314 . S
C552 C554 1.353 . S
C552 H558 0.930 . S
N553 Li529 1.990 . S
N553 C552 1.314 . S
N553 C556 1.279 . S
C554 C552 1.353 . S
C554 C557 1.348 . S
C554 H602 0.929 . S
C555 C556 1.358 . S
C555 C557 1.356 . S
C555 H603 0.930 . S
C556 N553 1.279 . S
C556 C555 1.358 . S
C556 H559 0.930 . S
C557 C554 1.348 . S
C557 C555 1.356 . S
H558 C552 0.930 . S
H559 C556 0.930 . S
C560 C562 1.348 . S
C560 C563 1.356 . S
C560 O590 1.325 . S
N561 C564 1.314 . S
N561 C565 1.279 . S
C562 C560 1.348 . S
C562 C564 1.353 . S
C562 H604 0.929 . S
C563 C560 1.356 . S
C563 C565 1.358 . S
C563 H605 0.930 . S
C564 N561 1.314 . S
C564 C562 1.353 . S
C564 H606 0.930 . S
C565 N561 1.279 . S
C565 C563 1.358 . S
C565 H607 0.930 . S
C566 C567 1.348 . S
C566 C568 1.356 . S
C566 O591 1.325 . S
C567 C566 1.348 . S
C567 C569 1.353 . S
C567 H608 0.929 . S
C568 C566 1.356 . S
C568 C570 1.358 . S
C568 H609 0.930 . S
C569 C567 1.353 . S
C569 N571 1.314 . S
C569 H610 0.930 . S
C570 C568 1.358 . S
C570 N571 1.279 . S
C570 H611 0.930 . S
N571 C569 1.314 . S
N571 C570 1.279 . S
C572 C574 1.353 . S
C572 N575 1.314 . S
C572 H578 0.930 . S
C573 N575 1.279 . S
C573 C576 1.358 . S
C573 H579 0.930 . S
C574 C572 1.353 . S
C574 C577 1.348 . S
C574 H612 0.929 . S
N575 Li530 1.990 . S
N575 C572 1.314 . S
N575 C573 1.279 . S
C576 C573 1.358 . S
C576 C577 1.356 . S
C576 H613 0.930 . S
C577 C574 1.348 . S
C577 C576 1.356 . S
H578 C572 0.930 . S
H579 C573 0.930 . S
C580 N581 1.314 . S
C580 C582 1.353 . S
C580 H586 0.930 . S
N581 Li531 1.990 . S
N581 C580 1.314 . S
N581 C584 1.279 . S
C582 C580 1.353 . S
C582 C585 1.348 . S
C582 H614 0.929 . S
C583 C584 1.358 . S
C583 C585 1.356 . S
C583 H615 0.930 . S
C584 N581 1.279 . S
C584 C583 1.358 . S
C584 H587 0.930 . S
C585 C582 1.348 . S
C585 C583 1.356 . S
H586 C580 0.930 . S
H587 C584 0.930 . S
O588 Li528 1.956 . S
O588 Li529 1.970 . S
O588 Li530 1.961 . S
O588 C532 1.325 . S
O589 Li528 1.970 . S
O589 Li529 1.956 . S
O589 Li531 1.961 . S
O589 C538 1.325 . S
O590 Li528 1.961 . S
O590 Li530 1.956 . S
O590 Li531 1.970 . S
O590 C560 1.325 . S
O591 Li529 1.961 . S
O591 Li530 1.970 . S
O591 Li531 1.956 . S
O591 C566 1.325 . S
H592 C534 0.929 . S
H593 C535 0.930 . S
H594 C536 0.930 . S
H595 C537 0.930 . S
H596 C539 0.930 . S
H597 C541 0.929 . S
H598 C542 0.930 . S
H599 C543 0.930 . S
H600 C546 0.930 . S
H601 C549 0.929 . S
H602 C554 0.929 . S
H603 C555 0.930 . S
H604 C562 0.929 . S
H605 C563 0.930 . S
H606 C564 0.930 . S
H607 C565 0.930 . S
H608 C567 0.929 . S
H609 C568 0.930 . S
H610 C569 0.930 . S
H611 C570 0.930 . S
H612 C574 0.929 . S
H613 C576 0.930 . S
H614 C582 0.929 . S
H615 C583 0.930 . S
Li616 N633 1.990 . S
Li616 O676 1.956 1_455 S
Li616 O677 1.970 . S
Li616 O678 1.961 . S
Li617 N641 1.990 . S
Li617 O676 1.970 . S
Li617 O677 1.956 1_655 S
Li617 O679 1.961 1_655 S
Li618 N663 1.990 . S
Li618 O676 1.961 1_455 S
Li618 O678 1.956 . S
Li618 O679 1.970 . S
Li619 N669 1.990 . S
Li619 O677 1.961 . S
Li619 O678 1.970 . S
Li619 O679 1.956 . S
C620 C622 1.348 . S
C620 C623 1.356 . S
C620 O676 1.325 . S
N621 C624 1.314 . S
N621 C625 1.279 . S
C622 C620 1.348 . S
C622 C624 1.353 . S
C622 H680 0.929 . S
C623 C620 1.356 . S
C623 C625 1.358 . S
C623 H681 0.930 . S
C624 N621 1.314 . S
C624 C622 1.353 . S
C624 H682 0.930 . S
C625 N621 1.279 . S
C625 C623 1.358 . S
C625 H683 0.930 . S
C626 C629 1.348 . S
C626 C630 1.356 . S
C626 O677 1.325 . S
C627 N628 1.279 . S
C627 C630 1.358 . S
C627 H684 0.930 . S
N628 C627 1.279 . S
N628 C631 1.314 . S
C629 C626 1.348 . S
C629 C631 1.353 . S
C629 H685 0.929 . S
C630 C626 1.356 . S
C630 C627 1.358 . S
C630 H686 0.930 . S
C631 N628 1.314 . S
C631 C629 1.353 . S
C631 H687 0.930 . S
C632 N633 1.314 . S
C632 C637 1.353 . S
C632 H638 0.930 . S
N633 Li616 1.990 . S
N633 C632 1.314 . S
N633 C635 1.279 . S
C634 C635 1.358 . S
C634 C636 1.356 . S
C634 H688 0.930 1_455 S
C635 N633 1.279 . S
C635 C634 1.358 . S
C635 H639 0.930 1_455 S
C636 C634 1.356 . S
C636 C637 1.348 . S
C637 C632 1.353 . S
C637 C636 1.348 . S
C637 H689 0.929 . S
H638 C632 0.930 . S
H639 C635 0.930 1_655 S
C640 N641 1.314 . S
C640 C642 1.353 . S
C640 H646 0.930 . S
N641 Li617 1.990 . S
N641 C640 1.314 . S
N641 C644 1.279 . S
C642 C640 1.353 . S
C642 C645 1.348 . S
C642 H690 0.929 . S
C643 C644 1.358 . S
C643 C645 1.356 . S
C643 H691 0.930 . S
C644 N641 1.279 . S
C644 C643 1.358 . S
C644 H647 0.930 . S
C645 C642 1.348 . S
C645 C643 1.356 . S
H646 C640 0.930 . S
H647 C644 0.930 . S
C648 C650 1.348 . S
C648 C651 1.356 . S
C648 O678 1.325 . S
N649 C652 1.314 . S
N649 C653 1.279 . S
C650 C648 1.348 . S
C650 C652 1.353 . S
C650 H692 0.929 . S
C651 C648 1.356 . S
C651 C653 1.358 . S
C651 H693 0.930 . S
C652 N649 1.314 . S
C652 C650 1.353 . S
C652 H694 0.930 . S
C653 N649 1.279 . S
C653 C651 1.358 . S
C653 H695 0.930 . S
C654 C655 1.348 . S
C654 C656 1.356 . S
C654 O679 1.325 . S
C655 C654 1.348 . S
C655 C657 1.353 . S
C655 H696 0.929 . S
C656 C654 1.356 . S
C656 C658 1.358 . S
C656 H697 0.930 . S
C657 C655 1.353 . S
C657 N659 1.314 . S
C657 H698 0.930 . S
C658 C656 1.358 . S
C658 N659 1.279 . S
C658 H699 0.930 1_455 S
N659 C657 1.314 . S
N659 C658 1.279 . S
C660 C662 1.353 . S
C660 N663 1.314 1_655 S
C660 H666 0.930 . S
C661 N663 1.279 . S
C661 C664 1.358 . S
C661 H667 0.930 . S
C662 C660 1.353 . S
C662 C665 1.348 1_655 S
C662 H700 0.929 . S
N663 Li618 1.990 . S
N663 C660 1.314 1_455 S
N663 C661 1.279 . S
C664 C661 1.358 . S
C664 C665 1.356 . S
C664 H701 0.930 . S
C665 C662 1.348 1_455 S
C665 C664 1.356 . S
H666 C660 0.930 . S
H667 C661 0.930 . S
C668 N669 1.314 . S
C668 C670 1.353 . S
C668 H674 0.930 . S
N669 Li619 1.990 . S
N669 C668 1.314 . S
N669 C672 1.279 . S
C670 C668 1.353 . S
C670 C673 1.348 . S
C670 H702 0.929 . S
C671 C672 1.358 . S
C671 C673 1.356 . S
C671 H703 0.930 . S
C672 N669 1.279 . S
C672 C671 1.358 . S
C672 H675 0.930 . S
C673 C670 1.348 . S
C673 C671 1.356 . S
H674 C668 0.930 . S
H675 C672 0.930 . S
O676 Li616 1.956 1_655 S
O676 Li617 1.970 . S
O676 Li618 1.961 1_655 S
O676 C620 1.325 . S
O677 Li616 1.970 . S
O677 Li617 1.956 1_455 S
O677 Li619 1.961 . S
O677 C626 1.325 . S
O678 Li616 1.961 . S
O678 Li618 1.956 . S
O678 Li619 1.970 . S
O678 C648 1.325 . S
O679 Li617 1.961 1_455 S
O679 Li618 1.970 . S
O679 Li619 1.956 . S
O679 C654 1.325 . S
H680 C622 0.929 . S
H681 C623 0.930 . S
H682 C624 0.930 . S
H683 C625 0.930 . S
H684 C627 0.930 . S
H685 C629 0.929 . S
H686 C630 0.930 . S
H687 C631 0.930 . S
H688 C634 0.930 1_655 S
H689 C637 0.929 . S
H690 C642 0.929 . S
H691 C643 0.930 . S
H692 C650 0.929 . S
H693 C651 0.930 . S
H694 C652 0.930 . S
H695 C653 0.930 . S
H696 C655 0.929 . S
H697 C656 0.930 . S
H698 C657 0.930 . S
H699 C658 0.930 1_655 S
H700 C662 0.929 . S
H701 C664 0.930 . S
H702 C670 0.929 . S
H703 C671 0.930 . S
Li704 N721 1.990 . S
Li704 O764 1.956 1_545 S
Li704 O765 1.970 . S
Li704 O766 1.961 . S
Li705 N729 1.990 . S
Li705 O764 1.970 . S
Li705 O765 1.956 1_565 S
Li705 O767 1.961 1_565 S
Li706 N751 1.990 . S
Li706 O764 1.961 1_545 S
Li706 O766 1.956 . S
Li706 O767 1.970 . S
Li707 N757 1.990 . S
Li707 O765 1.961 . S
Li707 O766 1.970 . S
Li707 O767 1.956 . S
C708 C710 1.348 . S
C708 C711 1.356 . S
C708 O764 1.325 . S
N709 C712 1.314 . S
N709 C713 1.279 . S
C710 C708 1.348 . S
C710 C712 1.353 . S
C710 H768 0.929 . S
C711 C708 1.356 . S
C711 C713 1.358 . S
C711 H769 0.984 . S
C712 N709 1.314 . S
C712 C710 1.353 . S
C712 H770 0.930 . S
C713 N709 1.279 . S
C713 C711 1.358 . S
C713 H771 0.930 . S
C714 C717 1.348 . S
C714 C718 1.356 . S
C714 O765 1.325 . S
C715 N716 1.279 . S
C715 C718 1.358 . S
C715 H772 0.930 . S
N716 C715 1.279 . S
N716 C719 1.314 . S
C717 C714 1.348 . S
C717 C719 1.353 . S
C717 H773 0.929 . S
C718 C714 1.356 . S
C718 C715 1.358 . S
C718 H774 0.930 . S
C719 N716 1.314 . S
C719 C717 1.353 . S
C719 H775 0.930 . S
C720 N721 1.314 . S
C720 C725 1.353 . S
C720 H726 0.930 . S
N721 Li704 1.990 . S
N721 C720 1.314 . S
N721 C723 1.279 . S
C722 C723 1.358 . S
C722 C724 1.356 . S
C722 H776 0.930 . S
C723 N721 1.279 . S
C723 C722 1.358 . S
C723 H727 0.930 1_545 S
C724 C722 1.356 . S
C724 C725 1.348 . S
C725 C720 1.353 . S
C725 C724 1.348 . S
C725 H777 0.929 . S
H726 C720 0.930 . S
H727 C723 0.930 1_565 S
C728 N729 1.314 . S
C728 C730 1.353 . S
C728 H734 0.930 . S
N729 Li705 1.990 . S
N729 C728 1.314 . S
N729 C732 1.279 . S
C730 C728 1.353 . S
C730 C733 1.348 . S
C730 H778 0.929 . S
C731 C732 1.358 . S
C731 C733 1.356 . S
C731 H779 0.930 . S
C732 N729 1.279 . S
C732 C731 1.358 . S
C732 H735 0.930 . S
C733 C730 1.348 . S
C733 C731 1.356 . S
H734 C728 0.930 . S
H735 C732 0.930 . S
C736 C738 1.348 . S
C736 C739 1.356 . S
C736 O766 1.325 . S
N737 C740 1.314 . S
N737 C741 1.279 . S
C738 C736 1.348 . S
C738 C740 1.353 . S
C738 H780 0.929 . S
C739 C736 1.356 . S
C739 C741 1.358 . S
C739 H781 0.930 . S
C740 N737 1.314 . S
C740 C738 1.353 . S
C740 H782 0.930 . S
C741 N737 1.279 . S
C741 C739 1.358 . S
C741 H783 0.930 . S
C742 C743 1.348 . S
C742 C744 1.356 . S
C742 O767 1.325 . S
C743 C742 1.348 . S
C743 C745 1.353 . S
C743 H784 0.929 . S
C744 C742 1.356 . S
C744 C746 1.359 1_545 S
C744 H785 0.928 1_545 S
C745 C743 1.353 . S
C745 N747 1.314 . S
C745 H786 0.930 . S
C746 C744 1.359 1_565 S
C746 N747 1.279 1_565 S
C746 H787 0.930 . S
N747 C745 1.314 . S
N747 C746 1.279 1_545 S
C748 C750 1.354 . S
C748 N751 1.314 . S
C748 H754 0.930 1_545 S
C749 N751 1.279 . S
C749 C752 1.358 . S
C749 H755 0.930 . S
C750 C748 1.354 . S
C750 C753 1.366 . S
C750 H788 0.910 1_545 S
N751 Li706 1.990 . S
N751 C748 1.314 . S
N751 C749 1.279 . S
C752 C749 1.358 . S
C752 C753 1.356 . S
C752 H789 0.930 . S
C753 C750 1.366 . S
C753 C752 1.356 . S
H754 C748 0.930 1_565 S
H755 C749 0.930 . S
C756 N757 1.314 . S
C756 C758 1.353 . S
C756 H762 0.930 . S
N757 Li707 1.990 . S
N757 C756 1.314 . S
N757 C760 1.279 . S
C758 C756 1.353 . S
C758 C761 1.348 . S
C758 H790 0.929 . S
C759 C760 1.358 . S
C759 C761 1.356 . S
C759 H791 0.930 . S
C760 N757 1.279 . S
C760 C759 1.358 . S
C760 H763 0.930 . S
C761 C758 1.348 . S
C761 C759 1.356 . S
H762 C756 0.930 . S
H763 C760 0.930 . S
O764 Li704 1.956 1_565 S
O764 Li705 1.970 . S
O764 Li706 1.961 1_565 S
O764 C708 1.325 . S
O765 Li704 1.970 . S
O765 Li705 1.956 1_545 S
O765 Li707 1.961 . S
O765 C714 1.325 . S
O766 Li704 1.961 . S
O766 Li706 1.956 . S
O766 Li707 1.970 . S
O766 C736 1.325 . S
O767 Li705 1.961 1_545 S
O767 Li706 1.970 . S
O767 Li707 1.956 . S
O767 C742 1.325 . S
H768 C710 0.929 . S
H769 C711 0.984 . S
H770 C712 0.930 . S
H771 C713 0.930 . S
H772 C715 0.930 . S
H773 C717 0.929 . S
H774 C718 0.930 . S
H775 C719 0.930 . S
H776 C722 0.930 . S
H777 C725 0.929 . S
H778 C730 0.929 . S
H779 C731 0.930 . S
H780 C738 0.929 . S
H781 C739 0.930 . S
H782 C740 0.930 . S
H783 C741 0.930 . S
H784 C743 0.929 . S
H785 C744 0.928 1_565 S
H786 C745 0.930 . S
H787 C746 0.930 . S
H788 C750 0.910 1_565 S
H789 C752 0.930 . S
H790 C758 0.929 . S
H791 C759 0.930 . S
Li792 N809 1.990 . S
Li792 O852 1.956 . S
Li792 O853 1.970 . S
Li792 O854 1.961 . S
Li793 N817 1.990 . S
Li793 O852 1.970 . S
Li793 O853 1.956 . S
Li793 O855 1.961 . S
Li794 N839 1.990 . S
Li794 O852 1.961 . S
Li794 O854 1.956 . S
Li794 O855 1.970 . S
Li795 N845 1.990 . S
Li795 O853 1.961 . S
Li795 O854 1.970 . S
Li795 O855 1.956 . S
C796 C798 1.348 . S
C796 C799 1.356 . S
C796 O852 1.325 . S
N797 C800 1.314 . S
N797 C801 1.279 . S
C798 C796 1.348 . S
C798 C800 1.353 . S
C798 H856 0.929 . S
C799 C796 1.356 . S
C799 C801 1.358 . S
C799 H857 0.930 . S
C800 N797 1.314 . S
C800 C798 1.353 . S
C800 H858 0.930 . S
C801 N797 1.279 . S
C801 C799 1.358 . S
C801 H859 0.930 . S
C802 C805 1.348 . S
C802 C806 1.356 . S
C802 O853 1.325 . S
C803 N804 1.279 . S
C803 C806 1.358 . S
C803 H860 0.930 . S
N804 C803 1.279 . S
N804 C807 1.314 . S
C805 C802 1.348 . S
C805 C807 1.353 . S
C805 H861 0.929 . S
C806 C802 1.356 . S
C806 C803 1.358 . S
C806 H862 0.930 . S
C807 N804 1.314 . S
C807 C805 1.353 . S
C807 H863 0.930 . S
C808 N809 1.314 . S
C808 C813 1.353 . S
C808 H814 0.930 . S
N809 Li792 1.990 . S
N809 C808 1.314 . S
N809 C811 1.279 . S
C810 C811 1.358 . S
C810 C812 1.356 . S
C810 H864 0.930 . S
C811 N809 1.279 . S
C811 C810 1.358 . S
C811 H815 0.930 . S
C812 C810 1.356 . S
C812 C813 1.348 . S
C813 C808 1.353 . S
C813 C812 1.348 . S
C813 H865 0.929 . S
H814 C808 0.930 . S
H815 C811 0.930 . S
C816 N817 1.314 . S
C816 C818 1.353 . S
C816 H822 0.930 . S
N817 Li793 1.990 . S
N817 C816 1.314 . S
N817 C820 1.279 . S
C818 C816 1.353 . S
C818 C821 1.348 . S
C818 H866 0.929 . S
C819 C820 1.358 . S
C819 C821 1.356 . S
C819 H867 0.930 . S
C820 N817 1.279 . S
C820 C819 1.358 . S
C820 H823 0.930 . S
C821 C818 1.348 . S
C821 C819 1.356 . S
H822 C816 0.930 . S
H823 C820 0.930 . S
C824 C826 1.348 . S
C824 C827 1.356 . S
C824 O854 1.325 . S
N825 C828 1.314 . S
N825 C829 1.279 . S
C826 C824 1.348 . S
C826 C828 1.353 . S
C826 H868 0.929 . S
C827 C824 1.356 . S
C827 C829 1.358 . S
C827 H869 0.930 . S
C828 N825 1.314 . S
C828 C826 1.353 . S
C828 H870 0.930 . S
C829 N825 1.279 . S
C829 C827 1.358 . S
C829 H871 0.930 . S
C830 C831 1.348 . S
C830 C832 1.356 . S
C830 O855 1.325 . S
C831 C830 1.348 . S
C831 C833 1.353 . S
C831 H872 0.929 . S
C832 C830 1.356 . S
C832 C834 1.358 . S
C832 H873 0.930 . S
C833 C831 1.353 . S
C833 N835 1.314 . S
C833 H874 0.930 . S
C834 C832 1.358 . S
C834 N835 1.279 . S
C834 H875 0.930 . S
N835 C833 1.314 . S
N835 C834 1.279 . S
C836 C838 1.353 . S
C836 N839 1.314 . S
C836 H842 0.930 . S
C837 N839 1.279 . S
C837 C840 1.358 . S
C837 H843 0.930 . S
C838 C836 1.353 . S
C838 C841 1.348 . S
C838 H876 0.929 . S
N839 Li794 1.990 . S
N839 C836 1.314 . S
N839 C837 1.279 . S
C840 C837 1.358 . S
C840 C841 1.356 . S
C840 H877 0.930 . S
C841 C838 1.348 . S
C841 C840 1.356 . S
H842 C836 0.930 . S
H843 C837 0.930 . S
C844 N845 1.314 . S
C844 C846 1.353 . S
C844 H850 0.930 . S
N845 Li795 1.990 . S
N845 C844 1.314 . S
N845 C848 1.279 . S
C846 C844 1.353 . S
C846 C849 1.348 . S
C846 H878 0.929 . S
C847 C848 1.358 . S
C847 C849 1.356 . S
C847 H879 0.930 . S
C848 N845 1.279 . S
C848 C847 1.358 . S
C848 H851 0.930 . S
C849 C846 1.348 . S
C849 C847 1.356 . S
H850 C844 0.930 . S
H851 C848 0.930 . S
O852 Li792 1.956 . S
O852 Li793 1.970 . S
O852 Li794 1.961 . S
O852 C796 1.325 . S
O853 Li792 1.970 . S
O853 Li793 1.956 . S
O853 Li795 1.961 . S
O853 C802 1.325 . S
O854 Li792 1.961 . S
O854 Li794 1.956 . S
O854 Li795 1.970 . S
O854 C824 1.325 . S
O855 Li793 1.961 . S
O855 Li794 1.970 . S
O855 Li795 1.956 . S
O855 C830 1.325 . S
H856 C798 0.929 . S
H857 C799 0.930 . S
H858 C800 0.930 . S
H859 C801 0.930 . S
H860 C803 0.930 . S
H861 C805 0.929 . S
H862 C806 0.930 . S
H863 C807 0.930 . S
H864 C810 0.930 . S
H865 C813 0.929 . S
H866 C818 0.929 . S
H867 C819 0.930 . S
H868 C826 0.929 . S
H869 C827 0.930 . S
H870 C828 0.930 . S
H871 C829 0.930 . S
H872 C831 0.929 . S
H873 C832 0.930 . S
H874 C833 0.930 . S
H875 C834 0.930 . S
H876 C838 0.929 . S
H877 C840 0.930 . S
H878 C846 0.929 . S
H879 C847 0.930 . S
Li880 N897 1.990 . S
Li880 O940 1.956 . S
Li880 O941 1.970 . S
Li880 O942 1.997 . S
Li881 N905 1.990 1_545 S
Li881 O940 1.970 . S
Li881 O941 1.959 . S
Li881 O943 1.958 1_545 S
Li882 N927 1.990 . S
Li882 O940 1.961 1_565 S
Li882 O942 1.912 1_565 S
Li882 O943 1.970 . S
Li883 N933 1.990 . S
Li883 O941 1.961 1_565 S
Li883 O942 1.974 1_565 S
Li883 O943 1.956 . S
C884 C886 1.348 . S
C884 C887 1.356 . S
C884 O940 1.325 . S
N885 C888 1.314 . S
N885 C889 1.279 . S
C886 C884 1.348 . S
C886 C888 1.353 . S
C886 H944 0.929 . S
C887 C884 1.356 . S
C887 C889 1.358 . S
C887 H945 0.930 . S
C888 N885 1.314 . S
C888 C886 1.353 . S
C888 H946 0.930 . S
C889 N885 1.279 . S
C889 C887 1.358 . S
C889 H947 0.930 . S
C890 C893 1.348 . S
C890 C894 1.356 . S
C890 O941 1.325 . S
C891 N892 1.279 . S
C891 C894 1.358 . S
C891 H948 0.930 . S
N892 C891 1.279 . S
N892 C895 1.314 . S
C893 C890 1.348 . S
C893 C895 1.353 . S
C893 H949 0.929 . S
C894 C890 1.356 . S
C894 C891 1.358 . S
C894 H950 0.930 . S
C895 N892 1.314 . S
C895 C893 1.353 . S
C895 H951 0.930 . S
C896 N897 1.314 . S
C896 C901 1.353 . S
C896 H902 0.930 . S
N897 Li880 1.990 . S
N897 C896 1.314 . S
N897 C899 1.279 . S
C898 C899 1.358 . S
C898 C900 1.356 . S
C898 H952 0.930 . S
C899 N897 1.279 . S
C899 C898 1.358 . S
C899 H903 0.930 . S
C900 C898 1.356 . S
C900 C901 1.348 . S
C901 C896 1.353 . S
C901 C900 1.348 . S
C901 H953 0.929 . S
H902 C896 0.930 . S
H903 C899 0.930 . S
C904 N905 1.320 . S
C904 C906 1.353 . S
C904 H910 0.930 . S
N905 Li881 1.990 1_565 S
N905 C904 1.320 . S
N905 C908 1.274 1_565 S
C906 C904 1.353 . S
C906 C909 1.348 . S
C906 H954 0.929 . S
C907 C908 1.358 . S
C907 C909 1.356 1_545 S
C907 H955 0.930 . S
C908 N905 1.274 1_545 S
C908 C907 1.358 . S
C908 H911 0.930 . S
C909 C906 1.348 . S
C909 C907 1.356 1_565 S
H910 C904 0.930 . S
H911 C908 0.930 . S
C912 C914 1.338 1_545 S
C912 C915 1.362 . S
C912 O942 1.325 . S
N913 C916 1.312 1_545 S
N913 C917 1.282 . S
C914 C912 1.338 1_565 S
C914 C916 1.353 . S
C914 H956 0.929 . S
C915 C912 1.362 . S
C915 C917 1.358 . S
C915 H957 0.930 . S
C916 N913 1.312 1_565 S
C916 C914 1.353 . S
C916 H958 0.930 . S
C917 N913 1.282 . S
C917 C915 1.358 . S
C917 H959 0.930 . S
C918 C919 1.348 . S
C918 C920 1.356 . S
C918 O943 1.325 . S
C919 C918 1.348 . S
C919 C921 1.353 . S
C919 H960 0.929 . S
C920 C918 1.356 . S
C920 C922 1.358 . S
C920 H961 0.930 . S
C921 C919 1.353 . S
C921 N923 1.314 . S
C921 H962 0.930 . S
C922 C920 1.358 . S
C922 N923 1.279 . S
C922 H963 0.930 . S
N923 C921 1.314 . S
N923 C922 1.279 . S
C924 C926 1.353 . S
C924 N927 1.314 . S
C924 H930 0.930 . S
C925 N927 1.279 . S
C925 C928 1.358 . S
C925 H931 0.930 . S
C926 C924 1.353 . S
C926 C929 1.348 . S
C926 H964 0.929 . S
N927 Li882 1.990 . S
N927 C924 1.314 . S
N927 C925 1.279 . S
C928 C925 1.358 . S
C928 C929 1.356 . S
C928 H965 0.930 . S
C929 C926 1.348 . S
C929 C928 1.356 . S
H930 C924 0.930 . S
H931 C925 0.930 . S
C932 N933 1.314 1_545 S
C932 C934 1.353 . S
C932 H938 0.930 . S
N933 Li883 1.990 . S
N933 C932 1.314 1_565 S
N933 C936 1.279 . S
C934 C932 1.353 . S
C934 C937 1.348 1_545 S
C934 H966 0.929 . S
C935 C936 1.358 . S
C935 C937 1.356 . S
C935 H967 0.930 . S
C936 N933 1.279 . S
C936 C935 1.358 . S
C936 H939 0.930 . S
C937 C934 1.348 1_565 S
C937 C935 1.356 . S
H938 C932 0.930 . S
H939 C936 0.930 . S
O940 Li880 1.956 . S
O940 Li881 1.970 . S
O940 Li882 1.961 1_545 S
O940 C884 1.325 . S
O941 Li880 1.970 . S
O941 Li881 1.959 . S
O941 Li883 1.961 1_545 S
O941 C890 1.325 . S
O942 Li880 1.997 . S
O942 Li882 1.912 1_545 S
O942 Li883 1.974 1_545 S
O942 C912 1.325 . S
O943 Li881 1.958 1_565 S
O943 Li882 1.970 . S
O943 Li883 1.956 . S
O943 C918 1.325 . S
H944 C886 0.929 . S
H945 C887 0.930 . S
H946 C888 0.930 . S
H947 C889 0.930 . S
H948 C891 0.930 . S
H949 C893 0.929 . S
H950 C894 0.930 . S
H951 C895 0.930 . S
H952 C898 0.930 . S
H953 C901 0.929 . S
H954 C906 0.929 . S
H955 C907 0.930 . S
H956 C914 0.929 . S
H957 C915 0.930 . S
H958 C916 0.930 . S
H959 C917 0.930 . S
H960 C919 0.929 . S
H961 C920 0.930 . S
H962 C921 0.930 . S
H963 C922 0.930 . S
H964 C926 0.929 . S
H965 C928 0.930 . S
H966 C934 0.929 . S
H967 C935 0.930 . S
Li968 N985 1.990 . S
Li968 O1028 1.956 . S
Li968 O1029 1.970 . S
Li968 O1030 1.961 1_554 S
Li969 N993 1.990 . S
Li969 O1028 1.970 . S
Li969 O1029 1.956 . S
Li969 O1031 1.961 . S
Li970 N1015 1.990 . S
Li970 O1028 1.961 . S
Li970 O1030 1.956 1_554 S
Li970 O1031 1.970 . S
Li971 N1021 1.990 . S
Li971 O1029 1.961 1_556 S
Li971 O1030 1.970 . S
Li971 O1031 1.956 1_556 S
C972 C974 1.348 . S
C972 C975 1.356 . S
C972 O1028 1.325 . S
N973 C976 1.314 . S
N973 C977 1.279 . S
C974 C972 1.348 . S
C974 C976 1.353 . S
C974 H1032 0.929 . S
C975 C972 1.356 . S
C975 C977 1.358 . S
C975 H1033 0.930 . S
C976 N973 1.314 . S
C976 C974 1.353 . S
C976 H1034 0.930 . S
C977 N973 1.279 . S
C977 C975 1.358 . S
C977 H1035 0.930 . S
C978 C981 1.348 . S
C978 C982 1.356 . S
C978 O1029 1.325 . S
C979 N980 1.279 . S
C979 C982 1.358 . S
C979 H1036 0.937 . S
N980 C979 1.279 . S
N980 C983 1.314 . S
C981 C978 1.348 . S
C981 C983 1.353 . S
C981 H1037 0.929 . S
C982 C978 1.356 . S
C982 C979 1.358 . S
C982 H1038 0.930 . S
C983 N980 1.314 . S
C983 C981 1.353 . S
C983 H1039 0.930 . S
C984 N985 1.314 . S
C984 C989 1.353 . S
C984 H990 0.930 1_554 S
N985 Li968 1.990 . S
N985 C984 1.314 . S
N985 C987 1.279 . S
C986 C987 1.358 . S
C986 C988 1.356 . S
C986 H1040 0.930 . S
C987 N985 1.279 . S
C987 C986 1.358 . S
C987 H991 0.930 . S
C988 C986 1.356 . S
C988 C989 1.348 . S
C989 C984 1.353 . S
C989 C988 1.348 . S
C989 H1041 0.929 1_554 S
H990 C984 0.930 1_556 S
H991 C987 0.930 . S
C992 N993 1.314 . S
C992 C994 1.353 . S
C992 H998 0.930 . S
N993 Li969 1.990 . S
N993 C992 1.314 . S
N993 C996 1.279 . S
C994 C992 1.353 . S
C994 C997 1.348 . S
C994 H1042 0.929 . S
C995 C996 1.358 . S
C995 C997 1.356 . S
C995 H1043 0.930 . S
C996 N993 1.279 . S
C996 C995 1.358 . S
C996 H999 0.930 . S
C997 C994 1.348 . S
C997 C995 1.356 . S
H998 C992 0.930 . S
H999 C996 0.930 . S
C1000 C1002 1.348 . S
C1000 C1003 1.356 . S
C1000 O1030 1.325 . S
N1001 C1004 1.314 . S
N1001 C1005 1.279 . S
C1002 C1000 1.348 . S
C1002 C1004 1.353 . S
C1002 H1044 0.929 . S
C1003 C1000 1.356 . S
C1003 C1005 1.358 . S
C1003 H1045 0.994 . S
C1004 N1001 1.314 . S
C1004 C1002 1.353 . S
C1004 H1046 0.930 . S
C1005 N1001 1.279 . S
C1005 C1003 1.358 . S
C1005 H1047 0.930 . S
C1006 C1007 1.348 . S
C1006 C1008 1.356 . S
C1006 O1031 1.325 . S
C1007 C1006 1.348 . S
C1007 C1009 1.353 . S
C1007 H1048 0.929 . S
C1008 C1006 1.356 . S
C1008 C1010 1.358 . S
C1008 H1049 0.930 . S
C1009 C1007 1.353 . S
C1009 N1011 1.314 . S
C1009 H1050 0.930 . S
C1010 C1008 1.358 . S
C1010 N1011 1.279 . S
C1010 H1051 0.930 . S
N1011 C1009 1.314 . S
N1011 C1010 1.279 . S
C1012 C1014 1.353 . S
C1012 N1015 1.314 . S
C1012 H1018 0.930 . S
C1013 N1015 1.279 . S
C1013 C1016 1.358 . S
C1013 H1019 0.930 1_554 S
C1014 C1012 1.353 . S
C1014 C1017 1.348 . S
C1014 H1052 0.929 . S
N1015 Li970 1.990 . S
N1015 C1012 1.314 . S
N1015 C1013 1.279 . S
C1016 C1013 1.358 . S
C1016 C1017 1.356 . S
C1016 H1053 0.934 1_554 S
C1017 C1014 1.348 . S
C1017 C1016 1.356 . S
H1018 C1012 0.930 . S
H1019 C1013 0.930 1_556 S
C1020 N1021 1.314 . S
C1020 C1022 1.353 . S
C1020 H1026 0.930 . S
N1021 Li971 1.990 . S
N1021 C1020 1.314 . S
N1021 C1024 1.279 . S
C1022 C1020 1.353 . S
C1022 C1025 1.348 . S
C1022 H1054 0.929 . S
C1023 C1024 1.358 . S
C1023 C1025 1.356 . S
C1023 H1055 0.930 . S
C1024 N1021 1.279 . S
C1024 C1023 1.358 . S
C1024 H1027 0.930 . S
C1025 C1022 1.348 . S
C1025 C1023 1.356 . S
H1026 C1020 0.930 . S
H1027 C1024 0.930 . S
O1028 Li968 1.956 . S
O1028 Li969 1.970 . S
O1028 Li970 1.961 . S
O1028 C972 1.325 . S
O1029 Li968 1.970 . S
O1029 Li969 1.956 . S
O1029 Li971 1.961 1_554 S
O1029 C978 1.325 . S
O1030 Li968 1.961 1_556 S
O1030 Li970 1.956 1_556 S
O1030 Li971 1.970 . S
O1030 C1000 1.325 . S
O1031 Li969 1.961 . S
O1031 Li970 1.970 . S
O1031 Li971 1.956 1_554 S
O1031 C1006 1.325 . S
H1032 C974 0.929 . S
H1033 C975 0.930 . S
H1034 C976 0.930 . S
H1035 C977 0.930 . S
H1036 C979 0.937 . S
H1037 C981 0.929 . S
H1038 C982 0.930 . S
H1039 C983 0.930 . S
H1040 C986 0.930 . S
H1041 C989 0.929 1_556 S
H1042 C994 0.929 . S
H1043 C995 0.930 . S
H1044 C1002 0.929 . S
H1045 C1003 0.994 . S
H1046 C1004 0.930 . S
H1047 C1005 0.930 . S
H1048 C1007 0.929 . S
H1049 C1008 0.930 . S
H1050 C1009 0.930 . S
H1051 C1010 0.930 . S
H1052 C1014 0.929 . S
H1053 C1016 0.934 1_556 S
H1054 C1022 0.929 . S
H1055 C1023 0.930 . S
Li1056 N1073 1.990 . S
Li1056 O1116 1.956 . S
Li1056 O1117 1.970 . S
Li1056 O1118 1.961 1_554 S
Li1057 N1081 1.990 . S
Li1057 O1116 1.970 . S
Li1057 O1117 1.956 . S
Li1057 O1119 1.961 . S
Li1058 N1103 1.990 . S
Li1058 O1116 1.961 . S
Li1058 O1118 1.956 1_554 S
Li1058 O1119 1.970 . S
Li1059 N1109 1.990 . S
Li1059 O1117 1.961 1_556 S
Li1059 O1118 1.970 . S
Li1059 O1119 1.956 1_556 S
C1060 C1062 1.348 . S
C1060 C1063 1.356 . S
C1060 O1116 1.325 . S
N1061 C1064 1.314 . S
N1061 C1065 1.279 . S
C1062 C1060 1.348 . S
C1062 C1064 1.353 . S
C1062 H1120 0.929 . S
C1063 C1060 1.356 . S
C1063 C1065 1.358 . S
C1063 H1121 0.930 . S
C1064 N1061 1.314 . S
C1064 C1062 1.353 . S
C1064 H1122 0.930 . S
C1065 N1061 1.279 . S
C1065 C1063 1.358 . S
C1065 H1123 0.930 . S
C1066 C1069 1.348 . S
C1066 C1070 1.356 . S
C1066 O1117 1.325 . S
C1067 N1068 1.279 . S
C1067 C1070 1.358 . S
C1067 H1124 0.942 . S
N1068 C1067 1.279 . S
N1068 C1071 1.314 . S
C1069 C1066 1.348 . S
C1069 C1071 1.353 . S
C1069 H1125 0.929 . S
C1070 C1066 1.356 . S
C1070 C1067 1.358 . S
C1070 H1126 0.930 . S
C1071 N1068 1.314 . S
C1071 C1069 1.353 . S
C1071 H1127 0.930 . S
C1072 N1073 1.314 . S
C1072 C1077 1.353 . S
C1072 H1078 0.930 1_554 S
N1073 Li1056 1.990 . S
N1073 C1072 1.314 . S
N1073 C1075 1.279 . S
C1074 C1075 1.358 . S
C1074 C1076 1.356 . S
C1074 H1128 0.930 . S
C1075 N1073 1.279 . S
C1075 C1074 1.358 . S
C1075 H1079 0.930 . S
C1076 C1074 1.356 . S
C1076 C1077 1.348 . S
C1077 C1072 1.353 . S
C1077 C1076 1.348 . S
C1077 H1129 0.929 1_554 S
H1078 C1072 0.930 1_556 S
H1079 C1075 0.930 . S
C1080 N1081 1.314 . S
C1080 C1082 1.353 . S
C1080 H1086 0.930 . S
N1081 Li1057 1.990 . S
N1081 C1080 1.314 . S
N1081 C1084 1.279 . S
C1082 C1080 1.353 . S
C1082 C1085 1.348 . S
C1082 H1130 0.929 . S
C1083 C1084 1.358 . S
C1083 C1085 1.356 . S
C1083 H1131 0.930 . S
C1084 N1081 1.279 . S
C1084 C1083 1.358 . S
C1084 H1087 0.930 . S
C1085 C1082 1.348 . S
C1085 C1083 1.356 . S
H1086 C1080 0.930 . S
H1087 C1084 0.930 . S
C1088 C1090 1.348 . S
C1088 C1091 1.356 . S
C1088 O1118 1.325 . S
N1089 C1092 1.314 . S
N1089 C1093 1.279 . S
C1090 C1088 1.348 . S
C1090 C1092 1.353 . S
C1090 H1132 0.929 . S
C1091 C1088 1.356 . S
C1091 C1093 1.358 . S
C1091 H1133 0.975 . S
C1092 N1089 1.314 . S
C1092 C1090 1.353 . S
C1092 H1134 0.930 . S
C1093 N1089 1.279 . S
C1093 C1091 1.358 . S
C1093 H1135 0.930 . S
C1094 C1095 1.348 . S
C1094 C1096 1.356 . S
C1094 O1119 1.325 . S
C1095 C1094 1.348 . S
C1095 C1097 1.353 . S
C1095 H1136 0.929 . S
C1096 C1094 1.356 . S
C1096 C1098 1.358 . S
C1096 H1137 0.930 . S
C1097 C1095 1.353 . S
C1097 N1099 1.314 . S
C1097 H1138 0.930 . S
C1098 C1096 1.358 . S
C1098 N1099 1.279 . S
C1098 H1139 0.930 . S
N1099 C1097 1.314 . S
N1099 C1098 1.279 . S
C1100 C1102 1.353 . S
C1100 N1103 1.314 . S
C1100 H1106 0.930 . S
C1101 N1103 1.279 . S
C1101 C1104 1.358 . S
C1101 H1107 0.930 1_554 S
C1102 C1100 1.353 . S
C1102 C1105 1.348 . S
C1102 H1140 0.929 . S
N1103 Li1058 1.990 . S
N1103 C1100 1.314 . S
N1103 C1101 1.279 . S
C1104 C1101 1.358 . S
C1104 C1105 1.356 . S
C1104 H1141 0.938 . S
C1105 C1102 1.348 . S
C1105 C1104 1.356 . S
H1106 C1100 0.930 . S
H1107 C1101 0.930 1_556 S
C1108 N1109 1.314 . S
C1108 C1110 1.353 . S
C1108 H1114 0.930 . S
N1109 Li1059 1.990 . S
N1109 C1108 1.314 . S
N1109 C1112 1.279 . S
C1110 C1108 1.353 . S
C1110 C1113 1.348 . S
C1110 H1142 0.929 . S
C1111 C1112 1.358 . S
C1111 C1113 1.356 . S
C1111 H1143 0.930 . S
C1112 N1109 1.279 . S
C1112 C1111 1.358 . S
C1112 H1115 0.930 . S
C1113 C1110 1.348 . S
C1113 C1111 1.356 . S
H1114 C1108 0.930 . S
H1115 C1112 0.930 . S
O1116 Li1056 1.956 . S
O1116 Li1057 1.970 . S
O1116 Li1058 1.961 . S
O1116 C1060 1.325 . S
O1117 Li1056 1.970 . S
O1117 Li1057 1.956 . S
O1117 Li1059 1.961 1_554 S
O1117 C1066 1.325 . S
O1118 Li1056 1.961 1_556 S
O1118 Li1058 1.956 1_556 S
O1118 Li1059 1.970 . S
O1118 C1088 1.325 . S
O1119 Li1057 1.961 . S
O1119 Li1058 1.970 . S
O1119 Li1059 1.956 1_554 S
O1119 C1094 1.325 . S
H1120 C1062 0.929 . S
H1121 C1063 0.930 . S
H1122 C1064 0.930 . S
H1123 C1065 0.930 . S
H1124 C1067 0.942 . S
H1125 C1069 0.929 . S
H1126 C1070 0.930 . S
H1127 C1071 0.930 . S
H1128 C1074 0.930 . S
H1129 C1077 0.929 1_556 S
H1130 C1082 0.929 . S
H1131 C1083 0.930 . S
H1132 C1090 0.929 . S
H1133 C1091 0.975 . S
H1134 C1092 0.930 . S
H1135 C1093 0.930 . S
H1136 C1095 0.929 . S
H1137 C1096 0.930 . S
H1138 C1097 0.930 . S
H1139 C1098 0.930 . S
H1140 C1102 0.929 . S
H1141 C1104 0.938 . S
H1142 C1110 0.929 . S
H1143 C1111 0.930 . S
Li1144 N1161 1.990 . S
Li1144 O1204 1.956 . S
Li1144 O1205 1.970 . S
Li1144 O1206 1.961 . S
Li1145 N1169 1.990 . S
Li1145 O1204 1.970 . S
Li1145 O1205 1.956 . S
Li1145 O1207 1.961 1_554 S
Li1146 N1191 1.990 . S
Li1146 O1204 1.961 1_556 S
Li1146 O1206 1.956 1_556 S
Li1146 O1207 1.970 . S
Li1147 N1197 1.990 1_554 S
Li1147 O1205 1.961 . S
Li1147 O1206 1.970 . S
Li1147 O1207 1.956 1_554 S
C1148 C1150 1.348 . S
C1148 C1151 1.356 . S
C1148 O1204 1.325 . S
N1149 C1152 1.314 . S
N1149 C1153 1.279 . S
C1150 C1148 1.348 . S
C1150 C1152 1.353 . S
C1150 H1208 0.929 . S
C1151 C1148 1.356 . S
C1151 C1153 1.358 . S
C1151 H1209 0.930 . S
C1152 N1149 1.314 . S
C1152 C1150 1.353 . S
C1152 H1210 0.930 . S
C1153 N1149 1.279 . S
C1153 C1151 1.358 . S
C1153 H1211 0.930 . S
C1154 C1157 1.348 . S
C1154 C1158 1.356 . S
C1154 O1205 1.325 . S
C1155 N1156 1.279 . S
C1155 C1158 1.358 . S
C1155 H1212 0.930 . S
N1156 C1155 1.279 . S
N1156 C1159 1.314 . S
C1157 C1154 1.348 . S
C1157 C1159 1.353 . S
C1157 H1213 0.929 . S
C1158 C1154 1.356 . S
C1158 C1155 1.358 . S
C1158 H1214 0.930 . S
C1159 N1156 1.314 . S
C1159 C1157 1.353 . S
C1159 H1215 0.930 . S
C1160 N1161 1.314 . S
C1160 C1165 1.353 . S
C1160 H1166 0.930 . S
N1161 Li1144 1.990 . S
N1161 C1160 1.314 . S
N1161 C1163 1.279 . S
C1162 C1163 1.358 . S
C1162 C1164 1.356 . S
C1162 H1216 0.930 . S
C1163 N1161 1.279 . S
C1163 C1162 1.358 . S
C1163 H1167 0.930 . S
C1164 C1162 1.356 . S
C1164 C1165 1.348 . S
C1165 C1160 1.353 . S
C1165 C1164 1.348 . S
C1165 H1217 0.929 . S
H1166 C1160 0.930 . S
H1167 C1163 0.930 . S
C1168 N1169 1.314 1_556 S
C1168 C1170 1.353 . S
C1168 H1174 0.930 . S
N1169 Li1145 1.990 . S
N1169 C1168 1.314 1_554 S
N1169 C1172 1.279 . S
C1170 C1168 1.353 . S
C1170 C1173 1.348 1_556 S
C1170 H1218 0.929 . S
C1171 C1172 1.358 . S
C1171 C1173 1.356 . S
C1171 H1219 0.930 . S
C1172 N1169 1.279 . S
C1172 C1171 1.358 . S
C1172 H1175 0.930 . S
C1173 C1170 1.348 1_554 S
C1173 C1171 1.356 . S
H1174 C1168 0.930 . S
H1175 C1172 0.930 . S
C1176 C1178 1.335 1_554 S
C1176 C1179 1.356 . S
C1176 O1206 1.325 . S
N1177 C1180 1.311 1_554 S
N1177 C1181 1.279 . S
C1178 C1176 1.335 1_556 S
C1178 C1180 1.354 . S
C1178 H1220 0.946 . S
C1179 C1176 1.356 . S
C1179 C1181 1.358 . S
C1179 H1221 0.930 . S
C1180 N1177 1.311 1_556 S
C1180 C1178 1.354 . S
C1180 H1222 0.934 . S
C1181 N1177 1.279 . S
C1181 C1179 1.358 . S
C1181 H1223 0.930 . S
C1182 C1183 1.348 . S
C1182 C1184 1.356 . S
C1182 O1207 1.325 . S
C1183 C1182 1.348 . S
C1183 C1185 1.353 . S
C1183 H1224 0.929 . S
C1184 C1182 1.356 . S
C1184 C1186 1.358 . S
C1184 H1225 0.930 . S
C1185 C1183 1.353 . S
C1185 N1187 1.314 . S
C1185 H1226 0.930 . S
C1186 C1184 1.358 . S
C1186 N1187 1.279 . S
C1186 H1227 0.930 . S
N1187 C1185 1.314 . S
N1187 C1186 1.279 . S
C1188 C1190 1.353 . S
C1188 N1191 1.314 . S
C1188 H1194 0.930 . S
C1189 N1191 1.279 . S
C1189 C1192 1.358 . S
C1189 H1195 0.930 . S
C1190 C1188 1.353 . S
C1190 C1193 1.348 . S
C1190 H1228 0.929 . S
N1191 Li1146 1.990 . S
N1191 C1188 1.314 . S
N1191 C1189 1.279 . S
C1192 C1189 1.358 . S
C1192 C1193 1.356 . S
C1192 H1229 0.930 . S
C1193 C1190 1.348 . S
C1193 C1192 1.356 . S
H1194 C1188 0.930 . S
H1195 C1189 0.930 . S
C1196 N1197 1.314 1_554 S
C1196 C1198 1.353 . S
C1196 H1202 0.930 . S
N1197 Li1147 1.990 1_556 S
N1197 C1196 1.314 1_556 S
N1197 C1200 1.279 . S
C1198 C1196 1.353 . S
C1198 C1201 1.348 1_554 S
C1198 H1230 0.929 . S
C1199 C1200 1.358 . S
C1199 C1201 1.356 . S
C1199 H1231 0.930 . S
C1200 N1197 1.279 . S
C1200 C1199 1.358 . S
C1200 H1203 0.930 . S
C1201 C1198 1.348 1_556 S
C1201 C1199 1.356 . S
H1202 C1196 0.930 . S
H1203 C1200 0.930 . S
O1204 Li1144 1.956 . S
O1204 Li1145 1.970 . S
O1204 Li1146 1.961 1_554 S
O1204 C1148 1.325 . S
O1205 Li1144 1.970 . S
O1205 Li1145 1.956 . S
O1205 Li1147 1.961 . S
O1205 C1154 1.325 . S
O1206 Li1144 1.961 . S
O1206 Li1146 1.956 1_554 S
O1206 Li1147 1.970 . S
O1206 C1176 1.325 . S
O1207 Li1145 1.961 1_556 S
O1207 Li1146 1.970 . S
O1207 Li1147 1.956 1_556 S
O1207 C1182 1.325 . S
H1208 C1150 0.929 . S
H1209 C1151 0.930 . S
H1210 C1152 0.930 . S
H1211 C1153 0.930 . S
H1212 C1155 0.930 . S
H1213 C1157 0.929 . S
H1214 C1158 0.930 . S
H1215 C1159 0.930 . S
H1216 C1162 0.930 . S
H1217 C1165 0.929 . S
H1218 C1170 0.929 . S
H1219 C1171 0.930 . S
H1220 C1178 0.946 . S
H1221 C1179 0.930 . S
H1222 C1180 0.934 . S
H1223 C1181 0.930 . S
H1224 C1183 0.929 . S
H1225 C1184 0.930 . S
H1226 C1185 0.930 . S
H1227 C1186 0.930 . S
H1228 C1190 0.929 . S
H1229 C1192 0.930 . S
H1230 C1198 0.929 . S
H1231 C1199 0.930 . S
Li1232 N1249 1.990 . S
Li1232 O1292 1.956 . S
Li1232 O1293 1.970 . S
Li1232 O1294 1.961 . S
Li1233 N1257 1.990 . S
Li1233 O1292 1.970 . S
Li1233 O1293 1.956 . S
Li1233 O1295 1.961 . S
Li1234 N1279 1.990 . S
Li1234 O1292 1.961 . S
Li1234 O1294 1.956 . S
Li1234 O1295 1.970 . S
Li1235 N1285 1.990 . S
Li1235 O1293 1.961 . S
Li1235 O1294 1.970 . S
Li1235 O1295 1.956 . S
C1236 C1238 1.348 . S
C1236 C1239 1.356 . S
C1236 O1292 1.325 . S
N1237 C1240 1.314 . S
N1237 C1241 1.279 . S
C1238 C1236 1.348 . S
C1238 C1240 1.353 . S
C1238 H1296 0.929 . S
C1239 C1236 1.356 . S
C1239 C1241 1.358 . S
C1239 H1297 0.930 . S
C1240 N1237 1.314 . S
C1240 C1238 1.353 . S
C1240 H1298 0.930 . S
C1241 N1237 1.279 . S
C1241 C1239 1.358 . S
C1241 H1299 0.930 . S
C1242 C1245 1.348 . S
C1242 C1246 1.356 . S
C1242 O1293 1.325 . S
C1243 N1244 1.279 . S
C1243 C1246 1.358 . S
C1243 H1300 0.930 . S
N1244 C1243 1.279 . S
N1244 C1247 1.314 . S
C1245 C1242 1.348 . S
C1245 C1247 1.353 . S
C1245 H1301 0.929 . S
C1246 C1242 1.356 . S
C1246 C1243 1.358 . S
C1246 H1302 0.930 . S
C1247 N1244 1.314 . S
C1247 C1245 1.353 . S
C1247 H1303 0.930 . S
C1248 N1249 1.314 . S
C1248 C1253 1.353 . S
C1248 H1254 0.930 . S
N1249 Li1232 1.990 . S
N1249 C1248 1.314 . S
N1249 C1251 1.279 . S
C1250 C1251 1.358 . S
C1250 C1252 1.356 . S
C1250 H1304 0.930 . S
C1251 N1249 1.279 . S
C1251 C1250 1.358 . S
C1251 H1255 0.930 . S
C1252 C1250 1.356 . S
C1252 C1253 1.348 . S
C1253 C1248 1.353 . S
C1253 C1252 1.348 . S
C1253 H1305 0.929 . S
H1254 C1248 0.930 . S
H1255 C1251 0.930 . S
C1256 N1257 1.314 . S
C1256 C1258 1.353 . S
C1256 H1262 0.930 . S
N1257 Li1233 1.990 . S
N1257 C1256 1.314 . S
N1257 C1260 1.279 . S
C1258 C1256 1.353 . S
C1258 C1261 1.348 . S
C1258 H1306 0.929 . S
C1259 C1260 1.358 . S
C1259 C1261 1.356 . S
C1259 H1307 0.930 . S
C1260 N1257 1.279 . S
C1260 C1259 1.358 . S
C1260 H1263 0.930 . S
C1261 C1258 1.348 . S
C1261 C1259 1.356 . S
H1262 C1256 0.930 . S
H1263 C1260 0.930 . S
C1264 C1266 1.348 . S
C1264 C1267 1.356 . S
C1264 O1294 1.325 . S
N1265 C1268 1.314 . S
N1265 C1269 1.279 . S
C1266 C1264 1.348 . S
C1266 C1268 1.353 . S
C1266 H1308 0.929 . S
C1267 C1264 1.356 . S
C1267 C1269 1.358 . S
C1267 H1309 0.930 . S
C1268 N1265 1.314 . S
C1268 C1266 1.353 . S
C1268 H1310 0.930 . S
C1269 N1265 1.279 . S
C1269 C1267 1.358 . S
C1269 H1311 0.930 . S
C1270 C1271 1.348 . S
C1270 C1272 1.356 . S
C1270 O1295 1.325 . S
C1271 C1270 1.348 . S
C1271 C1273 1.353 . S
C1271 H1312 0.929 . S
C1272 C1270 1.356 . S
C1272 C1274 1.358 . S
C1272 H1313 0.930 . S
C1273 C1271 1.353 . S
C1273 N1275 1.314 . S
C1273 H1314 0.930 . S
C1274 C1272 1.358 . S
C1274 N1275 1.279 . S
C1274 H1315 0.930 . S
N1275 C1273 1.314 . S
N1275 C1274 1.279 . S
C1276 C1278 1.353 . S
C1276 N1279 1.314 . S
C1276 H1282 0.930 . S
C1277 N1279 1.279 . S
C1277 C1280 1.358 . S
C1277 H1283 0.930 . S
C1278 C1276 1.353 . S
C1278 C1281 1.348 . S
C1278 H1316 0.929 . S
N1279 Li1234 1.990 . S
N1279 C1276 1.314 . S
N1279 C1277 1.279 . S
C1280 C1277 1.358 . S
C1280 C1281 1.356 . S
C1280 H1317 0.930 . S
C1281 C1278 1.348 . S
C1281 C1280 1.356 . S
H1282 C1276 0.930 . S
H1283 C1277 0.930 . S
C1284 N1285 1.314 . S
C1284 C1286 1.353 . S
C1284 H1290 0.930 . S
N1285 Li1235 1.990 . S
N1285 C1284 1.314 . S
N1285 C1288 1.279 . S
C1286 C1284 1.353 . S
C1286 C1289 1.348 . S
C1286 H1318 0.929 . S
C1287 C1288 1.358 . S
C1287 C1289 1.356 . S
C1287 H1319 0.930 . S
C1288 N1285 1.279 . S
C1288 C1287 1.358 . S
C1288 H1291 0.930 . S
C1289 C1286 1.348 . S
C1289 C1287 1.356 . S
H1290 C1284 0.930 . S
H1291 C1288 0.930 . S
O1292 Li1232 1.956 . S
O1292 Li1233 1.970 . S
O1292 Li1234 1.961 . S
O1292 C1236 1.325 . S
O1293 Li1232 1.970 . S
O1293 Li1233 1.956 . S
O1293 Li1235 1.961 . S
O1293 C1242 1.325 . S
O1294 Li1232 1.961 . S
O1294 Li1234 1.956 . S
O1294 Li1235 1.970 . S
O1294 C1264 1.325 . S
O1295 Li1233 1.961 . S
O1295 Li1234 1.970 . S
O1295 Li1235 1.956 . S
O1295 C1270 1.325 . S
H1296 C1238 0.929 . S
H1297 C1239 0.930 . S
H1298 C1240 0.930 . S
H1299 C1241 0.930 . S
H1300 C1243 0.930 . S
H1301 C1245 0.929 . S
H1302 C1246 0.930 . S
H1303 C1247 0.930 . S
H1304 C1250 0.930 . S
H1305 C1253 0.929 . S
H1306 C1258 0.929 . S
H1307 C1259 0.930 . S
H1308 C1266 0.929 . S
H1309 C1267 0.930 . S
H1310 C1268 0.930 . S
H1311 C1269 0.930 . S
H1312 C1271 0.929 . S
H1313 C1272 0.930 . S
H1314 C1273 0.930 . S
H1315 C1274 0.930 . S
H1316 C1278 0.929 . S
H1317 C1280 0.930 . S
H1318 C1286 0.929 . S
H1319 C1287 0.930 . S
Li1320 N1337 1.990 . S
Li1320 O1380 1.956 . S
Li1320 O1381 1.970 . S
Li1320 O1382 1.961 . S
Li1321 N1345 1.990 . S
Li1321 O1380 1.970 . S
Li1321 O1381 1.956 . S
Li1321 O1383 1.961 . S
Li1322 N1367 1.990 . S
Li1322 O1380 1.961 . S
Li1322 O1382 1.956 . S
Li1322 O1383 1.970 . S
Li1323 N1373 1.990 . S
Li1323 O1381 1.961 . S
Li1323 O1382 1.970 . S
Li1323 O1383 1.956 . S
C1324 C1326 1.348 . S
C1324 C1327 1.356 . S
C1324 O1380 1.325 . S
N1325 C1328 1.314 . S
N1325 C1329 1.279 . S
C1326 C1324 1.348 . S
C1326 C1328 1.353 . S
C1326 H1384 0.929 . S
C1327 C1324 1.356 . S
C1327 C1329 1.358 . S
C1327 H1385 0.930 . S
C1328 N1325 1.314 . S
C1328 C1326 1.353 . S
C1328 H1386 0.930 . S
C1329 N1325 1.279 . S
C1329 C1327 1.358 . S
C1329 H1387 0.930 . S
C1330 C1333 1.348 . S
C1330 C1334 1.356 . S
C1330 O1381 1.325 . S
C1331 N1332 1.279 . S
C1331 C1334 1.358 . S
C1331 H1388 0.930 . S
N1332 C1331 1.279 . S
N1332 C1335 1.314 . S
C1333 C1330 1.348 . S
C1333 C1335 1.353 . S
C1333 H1389 0.929 . S
C1334 C1330 1.356 . S
C1334 C1331 1.358 . S
C1334 H1390 0.930 . S
C1335 N1332 1.314 . S
C1335 C1333 1.353 . S
C1335 H1391 0.930 . S
C1336 N1337 1.314 . S
C1336 C1341 1.353 . S
C1336 H1342 0.930 . S
N1337 Li1320 1.990 . S
N1337 C1336 1.314 . S
N1337 C1339 1.279 . S
C1338 C1339 1.358 . S
C1338 C1340 1.356 . S
C1338 H1392 0.930 . S
C1339 N1337 1.279 . S
C1339 C1338 1.358 . S
C1339 H1343 0.930 . S
C1340 C1338 1.356 . S
C1340 C1341 1.348 . S
C1341 C1336 1.353 . S
C1341 C1340 1.348 . S
C1341 H1393 0.929 . S
H1342 C1336 0.930 . S
H1343 C1339 0.930 . S
C1344 N1345 1.314 . S
C1344 C1346 1.353 . S
C1344 H1350 0.930 . S
N1345 Li1321 1.990 . S
N1345 C1344 1.314 . S
N1345 C1348 1.279 . S
C1346 C1344 1.353 . S
C1346 C1349 1.348 . S
C1346 H1394 0.929 . S
C1347 C1348 1.358 . S
C1347 C1349 1.356 . S
C1347 H1395 0.930 . S
C1348 N1345 1.279 . S
C1348 C1347 1.358 . S
C1348 H1351 0.930 . S
C1349 C1346 1.348 . S
C1349 C1347 1.356 . S
H1350 C1344 0.930 . S
H1351 C1348 0.930 . S
C1352 C1354 1.348 . S
C1352 C1355 1.356 . S
C1352 O1382 1.325 . S
N1353 C1356 1.314 . S
N1353 C1357 1.279 . S
C1354 C1352 1.348 . S
C1354 C1356 1.353 . S
C1354 H1396 0.929 . S
C1355 C1352 1.356 . S
C1355 C1357 1.358 . S
C1355 H1397 0.930 . S
C1356 N1353 1.314 . S
C1356 C1354 1.353 . S
C1356 H1398 0.930 . S
C1357 N1353 1.279 . S
C1357 C1355 1.358 . S
C1357 H1399 0.930 . S
C1358 C1359 1.348 . S
C1358 C1360 1.356 . S
C1358 O1383 1.325 . S
C1359 C1358 1.348 . S
C1359 C1361 1.353 . S
C1359 H1400 0.929 . S
C1360 C1358 1.356 . S
C1360 C1362 1.358 . S
C1360 H1401 0.930 . S
C1361 C1359 1.353 . S
C1361 N1363 1.314 . S
C1361 H1402 0.930 . S
C1362 C1360 1.358 . S
C1362 N1363 1.279 . S
C1362 H1403 0.930 . S
N1363 C1361 1.314 . S
N1363 C1362 1.279 . S
C1364 C1366 1.353 . S
C1364 N1367 1.314 . S
C1364 H1370 0.930 . S
C1365 N1367 1.279 . S
C1365 C1368 1.358 . S
C1365 H1371 0.930 . S
C1366 C1364 1.353 . S
C1366 C1369 1.348 . S
C1366 H1404 0.929 . S
N1367 Li1322 1.990 . S
N1367 C1364 1.314 . S
N1367 C1365 1.279 . S
C1368 C1365 1.358 . S
C1368 C1369 1.356 . S
C1368 H1405 0.930 . S
C1369 C1366 1.348 . S
C1369 C1368 1.356 . S
H1370 C1364 0.930 . S
H1371 C1365 0.930 . S
C1372 N1373 1.314 . S
C1372 C1374 1.353 . S
C1372 H1378 0.930 . S
N1373 Li1323 1.990 . S
N1373 C1372 1.314 . S
N1373 C1376 1.279 . S
C1374 C1372 1.353 . S
C1374 C1377 1.348 . S
C1374 H1406 0.929 . S
C1375 C1376 1.358 . S
C1375 C1377 1.356 . S
C1375 H1407 0.930 . S
C1376 N1373 1.279 . S
C1376 C1375 1.358 . S
C1376 H1379 0.930 . S
C1377 C1374 1.348 . S
C1377 C1375 1.356 . S
H1378 C1372 0.930 . S
H1379 C1376 0.930 . S
O1380 Li1320 1.956 . S
O1380 Li1321 1.970 . S
O1380 Li1322 1.961 . S
O1380 C1324 1.325 . S
O1381 Li1320 1.970 . S
O1381 Li1321 1.956 . S
O1381 Li1323 1.961 . S
O1381 C1330 1.325 . S
O1382 Li1320 1.961 . S
O1382 Li1322 1.956 . S
O1382 Li1323 1.970 . S
O1382 C1352 1.325 . S
O1383 Li1321 1.961 . S
O1383 Li1322 1.970 . S
O1383 Li1323 1.956 . S
O1383 C1358 1.325 . S
H1384 C1326 0.929 . S
H1385 C1327 0.930 . S
H1386 C1328 0.930 . S
H1387 C1329 0.930 . S
H1388 C1331 0.930 . S
H1389 C1333 0.929 . S
H1390 C1334 0.930 . S
H1391 C1335 0.930 . S
H1392 C1338 0.930 . S
H1393 C1341 0.929 . S
H1394 C1346 0.929 . S
H1395 C1347 0.930 . S
H1396 C1354 0.929 . S
H1397 C1355 0.930 . S
H1398 C1356 0.930 . S
H1399 C1357 0.930 . S
H1400 C1359 0.929 . S
H1401 C1360 0.930 . S
H1402 C1361 0.930 . S
H1403 C1362 0.930 . S
H1404 C1366 0.929 . S
H1405 C1368 0.930 . S
H1406 C1374 0.929 . S
H1407 C1375 0.930 . S
Li1408 N1425 1.990 . S
Li1408 O1468 1.956 . S
Li1408 O1469 1.970 . S
Li1408 O1470 1.961 . S
Li1409 N1433 1.990 . S
Li1409 O1468 1.970 . S
Li1409 O1469 1.956 . S
Li1409 O1471 1.961 . S
Li1410 N1455 1.990 . S
Li1410 O1468 1.961 . S
Li1410 O1470 1.956 . S
Li1410 O1471 1.970 . S
Li1411 N1461 1.990 . S
Li1411 O1469 1.961 . S
Li1411 O1470 1.970 . S
Li1411 O1471 1.956 . S
C1412 C1414 1.348 . S
C1412 C1415 1.356 . S
C1412 O1468 1.325 . S
N1413 C1416 1.314 . S
N1413 C1417 1.279 . S
C1414 C1412 1.348 . S
C1414 C1416 1.353 . S
C1414 H1472 0.929 . S
C1415 C1412 1.356 . S
C1415 C1417 1.358 . S
C1415 H1473 0.930 . S
C1416 N1413 1.314 . S
C1416 C1414 1.353 . S
C1416 H1474 0.930 1_545 S
C1417 N1413 1.279 . S
C1417 C1415 1.358 . S
C1417 H1475 0.930 . S
C1418 C1421 1.348 . S
C1418 C1422 1.356 . S
C1418 O1469 1.325 . S
C1419 N1420 1.279 . S
C1419 C1422 1.358 . S
C1419 H1476 0.930 . S
N1420 C1419 1.279 . S
N1420 C1423 1.314 . S
C1421 C1418 1.348 . S
C1421 C1423 1.353 . S
C1421 H1477 0.929 . S
C1422 C1418 1.356 . S
C1422 C1419 1.358 . S
C1422 H1478 0.930 . S
C1423 N1420 1.314 . S
C1423 C1421 1.353 . S
C1423 H1479 0.930 . S
C1424 N1425 1.314 . S
C1424 C1429 1.353 . S
C1424 H1430 0.930 . S
N1425 Li1408 1.990 . S
N1425 C1424 1.314 . S
N1425 C1427 1.279 . S
C1426 C1427 1.358 . S
C1426 C1428 1.356 . S
C1426 H1480 0.930 . S
C1427 N1425 1.279 . S
C1427 C1426 1.358 . S
C1427 H1431 0.930 . S
C1428 C1426 1.356 . S
C1428 C1429 1.348 . S
C1429 C1424 1.353 . S
C1429 C1428 1.348 . S
C1429 H1481 0.929 . S
H1430 C1424 0.930 . S
H1431 C1427 0.930 . S
C1432 N1433 1.314 . S
C1432 C1434 1.353 1_545 S
C1432 H1438 0.930 . S
N1433 Li1409 1.990 . S
N1433 C1432 1.314 . S
N1433 C1436 1.279 . S
C1434 C1432 1.353 1_565 S
C1434 C1437 1.348 . S
C1434 H1482 0.929 . S
C1435 C1436 1.358 . S
C1435 C1437 1.356 1_545 S
C1435 H1483 0.922 1_545 S
C1436 N1433 1.279 . S
C1436 C1435 1.358 . S
C1436 H1439 0.930 . S
C1437 C1434 1.348 . S
C1437 C1435 1.356 1_565 S
H1438 C1432 0.930 . S
H1439 C1436 0.930 . S
C1440 C1442 1.348 . S
C1440 C1443 1.356 . S
C1440 O1470 1.325 . S
N1441 C1444 1.314 . S
N1441 C1445 1.279 . S
C1442 C1440 1.348 . S
C1442 C1444 1.353 . S
C1442 H1484 0.929 . S
C1443 C1440 1.356 . S
C1443 C1445 1.358 . S
C1443 H1485 0.930 . S
C1444 N1441 1.314 . S
C1444 C1442 1.353 . S
C1444 H1486 0.930 . S
C1445 N1441 1.279 . S
C1445 C1443 1.358 . S
C1445 H1487 0.930 . S
C1446 C1447 1.348 . S
C1446 C1448 1.356 . S
C1446 O1471 1.325 . S
C1447 C1446 1.348 . S
C1447 C1449 1.353 . S
C1447 H1488 0.929 . S
C1448 C1446 1.356 . S
C1448 C1450 1.358 . S
C1448 H1489 0.930 . S
C1449 C1447 1.353 . S
C1449 N1451 1.314 . S
C1449 H1490 0.930 . S
C1450 C1448 1.358 . S
C1450 N1451 1.279 . S
C1450 H1491 0.930 . S
N1451 C1449 1.314 . S
N1451 C1450 1.279 . S
C1452 C1454 1.353 . S
C1452 N1455 1.314 . S
C1452 H1458 0.930 . S
C1453 N1455 1.279 . S
C1453 C1456 1.358 . S
C1453 H1459 0.930 . S
C1454 C1452 1.353 . S
C1454 C1457 1.348 . S
C1454 H1492 0.929 . S
N1455 Li1410 1.990 . S
N1455 C1452 1.314 . S
N1455 C1453 1.279 . S
C1456 C1453 1.358 . S
C1456 C1457 1.356 . S
C1456 H1493 0.930 . S
C1457 C1454 1.348 . S
C1457 C1456 1.356 . S
H1458 C1452 0.930 . S
H1459 C1453 0.930 . S
C1460 N1461 1.314 . S
C1460 C1462 1.353 . S
C1460 H1466 0.930 . S
N1461 Li1411 1.990 . S
N1461 C1460 1.314 . S
N1461 C1464 1.279 . S
C1462 C1460 1.353 . S
C1462 C1465 1.348 . S
C1462 H1494 0.929 . S
C1463 C1464 1.358 . S
C1463 C1465 1.356 . S
C1463 H1495 0.930 . S
C1464 N1461 1.279 . S
C1464 C1463 1.358 . S
C1464 H1467 0.930 . S
C1465 C1462 1.348 . S
C1465 C1463 1.356 . S
H1466 C1460 0.930 . S
H1467 C1464 0.930 . S
O1468 Li1408 1.956 . S
O1468 Li1409 1.970 . S
O1468 Li1410 1.961 . S
O1468 C1412 1.325 . S
O1469 Li1408 1.970 . S
O1469 Li1409 1.956 . S
O1469 Li1411 1.961 . S
O1469 C1418 1.325 . S
O1470 Li1408 1.961 . S
O1470 Li1410 1.956 . S
O1470 Li1411 1.970 . S
O1470 C1440 1.325 . S
O1471 Li1409 1.961 . S
O1471 Li1410 1.970 . S
O1471 Li1411 1.956 . S
O1471 C1446 1.325 . S
H1472 C1414 0.929 . S
H1473 C1415 0.930 . S
H1474 C1416 0.930 1_565 S
H1475 C1417 0.930 . S
H1476 C1419 0.930 . S
H1477 C1421 0.929 . S
H1478 C1422 0.930 . S
H1479 C1423 0.930 . S
H1480 C1426 0.930 . S
H1481 C1429 0.929 . S
H1482 C1434 0.929 . S
H1483 C1435 0.922 1_565 S
H1484 C1442 0.929 . S
H1485 C1443 0.930 . S
H1486 C1444 0.930 . S
H1487 C1445 0.930 . S
H1488 C1447 0.929 . S
H1489 C1448 0.930 . S
H1490 C1449 0.930 . S
H1491 C1450 0.930 . S
H1492 C1454 0.929 . S
H1493 C1456 0.930 . S
H1494 C1462 0.929 . S
H1495 C1463 0.930 . S
Li1496 N1513 1.990 . S
Li1496 O1556 1.956 . S
Li1496 O1557 1.970 . S
Li1496 O1558 1.961 . S
Li1497 N1521 1.990 . S
Li1497 O1556 1.970 . S
Li1497 O1557 1.956 . S
Li1497 O1559 1.961 . S
Li1498 N1543 1.990 . S
Li1498 O1556 1.961 . S
Li1498 O1558 1.956 . S
Li1498 O1559 1.970 . S
Li1499 N1549 1.990 . S
Li1499 O1557 1.961 . S
Li1499 O1558 1.970 . S
Li1499 O1559 1.956 . S
C1500 C1502 1.348 . S
C1500 C1503 1.356 . S
C1500 O1556 1.325 . S
N1501 C1504 1.314 . S
N1501 C1505 1.279 . S
C1502 C1500 1.348 . S
C1502 C1504 1.353 . S
C1502 H1560 0.929 . S
C1503 C1500 1.356 . S
C1503 C1505 1.358 . S
C1503 H1561 0.930 . S
C1504 N1501 1.314 . S
C1504 C1502 1.353 . S
C1504 H1562 0.930 . S
C1505 N1501 1.279 . S
C1505 C1503 1.358 . S
C1505 H1563 0.930 . S
C1506 C1509 1.348 . S
C1506 C1510 1.356 . S
C1506 O1557 1.325 . S
C1507 N1508 1.279 . S
C1507 C1510 1.358 . S
C1507 H1564 0.930 . S
N1508 C1507 1.279 . S
N1508 C1511 1.314 . S
C1509 C1506 1.348 . S
C1509 C1511 1.353 . S
C1509 H1565 0.929 . S
C1510 C1506 1.356 . S
C1510 C1507 1.358 . S
C1510 H1566 0.930 . S
C1511 N1508 1.314 . S
C1511 C1509 1.353 . S
C1511 H1567 0.930 . S
C1512 N1513 1.314 . S
C1512 C1517 1.353 . S
C1512 H1518 0.930 . S
N1513 Li1496 1.990 . S
N1513 C1512 1.314 . S
N1513 C1515 1.279 . S
C1514 C1515 1.358 . S
C1514 C1516 1.356 . S
C1514 H1568 0.930 . S
C1515 N1513 1.279 . S
C1515 C1514 1.358 . S
C1515 H1519 0.930 . S
C1516 C1514 1.356 . S
C1516 C1517 1.348 . S
C1517 C1512 1.353 . S
C1517 C1516 1.348 . S
C1517 H1569 0.929 . S
H1518 C1512 0.930 . S
H1519 C1515 0.930 . S
C1520 N1521 1.314 . S
C1520 C1522 1.353 . S
C1520 H1526 0.930 . S
N1521 Li1497 1.990 . S
N1521 C1520 1.314 . S
N1521 C1524 1.279 . S
C1522 C1520 1.353 . S
C1522 C1525 1.348 . S
C1522 H1570 0.929 . S
C1523 C1524 1.358 . S
C1523 C1525 1.356 . S
C1523 H1571 0.930 . S
C1524 N1521 1.279 . S
C1524 C1523 1.358 . S
C1524 H1527 0.930 . S
C1525 C1522 1.348 . S
C1525 C1523 1.356 . S
H1526 C1520 0.930 . S
H1527 C1524 0.930 . S
C1528 C1530 1.348 . S
C1528 C1531 1.356 . S
C1528 O1558 1.325 . S
N1529 C1532 1.314 . S
N1529 C1533 1.279 . S
C1530 C1528 1.348 . S
C1530 C1532 1.353 . S
C1530 H1572 0.929 . S
C1531 C1528 1.356 . S
C1531 C1533 1.358 . S
C1531 H1573 0.930 . S
C1532 N1529 1.314 . S
C1532 C1530 1.353 . S
C1532 H1574 0.930 . S
C1533 N1529 1.279 . S
C1533 C1531 1.358 . S
C1533 H1575 0.930 . S
C1534 C1535 1.348 . S
C1534 C1536 1.356 . S
C1534 O1559 1.325 . S
C1535 C1534 1.348 . S
C1535 C1537 1.353 . S
C1535 H1576 0.929 . S
C1536 C1534 1.356 . S
C1536 C1538 1.358 . S
C1536 H1577 0.930 . S
C1537 C1535 1.353 . S
C1537 N1539 1.314 . S
C1537 H1578 0.930 . S
C1538 C1536 1.358 . S
C1538 N1539 1.279 . S
C1538 H1579 0.930 . S
N1539 C1537 1.314 . S
N1539 C1538 1.279 . S
C1540 C1542 1.353 . S
C1540 N1543 1.314 . S
C1540 H1546 0.930 . S
C1541 N1543 1.279 . S
C1541 C1544 1.358 . S
C1541 H1547 0.930 . S
C1542 C1540 1.353 . S
C1542 C1545 1.348 . S
C1542 H1580 0.929 . S
N1543 Li1498 1.990 . S
N1543 C1540 1.314 . S
N1543 C1541 1.279 . S
C1544 C1541 1.358 . S
C1544 C1545 1.356 . S
C1544 H1581 0.930 . S
C1545 C1542 1.348 . S
C1545 C1544 1.356 . S
H1546 C1540 0.930 . S
H1547 C1541 0.930 . S
C1548 N1549 1.314 . S
C1548 C1550 1.353 . S
C1548 H1554 0.930 . S
N1549 Li1499 1.990 . S
N1549 C1548 1.314 . S
N1549 C1552 1.279 . S
C1550 C1548 1.353 . S
C1550 C1553 1.348 . S
C1550 H1582 0.929 . S
C1551 C1552 1.358 . S
C1551 C1553 1.356 . S
C1551 H1583 0.930 . S
C1552 N1549 1.279 . S
C1552 C1551 1.358 . S
C1552 H1555 0.930 . S
C1553 C1550 1.348 . S
C1553 C1551 1.356 . S
H1554 C1548 0.930 . S
H1555 C1552 0.930 . S
O1556 Li1496 1.956 . S
O1556 Li1497 1.970 . S
O1556 Li1498 1.961 . S
O1556 C1500 1.325 . S
O1557 Li1496 1.970 . S
O1557 Li1497 1.956 . S
O1557 Li1499 1.961 . S
O1557 C1506 1.325 . S
O1558 Li1496 1.961 . S
O1558 Li1498 1.956 . S
O1558 Li1499 1.970 . S
O1558 C1528 1.325 . S
O1559 Li1497 1.961 . S
O1559 Li1498 1.970 . S
O1559 Li1499 1.956 . S
O1559 C1534 1.325 . S
H1560 C1502 0.929 . S
H1561 C1503 0.930 . S
H1562 C1504 0.930 . S
H1563 C1505 0.930 . S
H1564 C1507 0.930 . S
H1565 C1509 0.929 . S
H1566 C1510 0.930 . S
H1567 C1511 0.930 . S
H1568 C1514 0.930 . S
H1569 C1517 0.929 . S
H1570 C1522 0.929 . S
H1571 C1523 0.930 . S
H1572 C1530 0.929 . S
H1573 C1531 0.930 . S
H1574 C1532 0.930 . S
H1575 C1533 0.930 . S
H1576 C1535 0.929 . S
H1577 C1536 0.930 . S
H1578 C1537 0.930 . S
H1579 C1538 0.930 . S
H1580 C1542 0.929 . S
H1581 C1544 0.930 . S
H1582 C1550 0.929 . S
H1583 C1551 0.930 . S
Li1584 N1601 1.990 . S
Li1584 O1644 1.956 . S
Li1584 O1645 1.970 . S
Li1584 O1646 1.961 . S
Li1585 N1609 1.990 . S
Li1585 O1644 1.970 . S
Li1585 O1645 1.956 . S
Li1585 O1647 1.961 . S
Li1586 N1631 1.990 . S
Li1586 O1644 1.961 . S
Li1586 O1646 1.956 . S
Li1586 O1647 1.970 . S
Li1587 N1637 1.990 . S
Li1587 O1645 1.961 . S
Li1587 O1646 1.970 . S
Li1587 O1647 1.956 . S
C1588 C1590 1.348 . S
C1588 C1591 1.356 . S
C1588 O1644 1.325 . S
N1589 C1592 1.314 . S
N1589 C1593 1.279 . S
C1590 C1588 1.348 . S
C1590 C1592 1.353 . S
C1590 H1648 0.929 . S
C1591 C1588 1.356 . S
C1591 C1593 1.358 . S
C1591 H1649 0.930 . S
C1592 N1589 1.314 . S
C1592 C1590 1.353 . S
C1592 H1650 0.930 . S
C1593 N1589 1.279 . S
C1593 C1591 1.358 . S
C1593 H1651 0.930 . S
C1594 C1597 1.348 . S
C1594 C1598 1.356 . S
C1594 O1645 1.325 . S
C1595 N1596 1.279 . S
C1595 C1598 1.358 . S
C1595 H1652 0.930 . S
N1596 C1595 1.279 . S
N1596 C1599 1.314 . S
C1597 C1594 1.348 . S
C1597 C1599 1.353 . S
C1597 H1653 0.929 . S
C1598 C1594 1.356 . S
C1598 C1595 1.358 . S
C1598 H1654 0.930 . S
C1599 N1596 1.314 . S
C1599 C1597 1.353 . S
C1599 H1655 0.930 . S
C1600 N1601 1.314 . S
C1600 C1605 1.353 . S
C1600 H1606 0.930 . S
N1601 Li1584 1.990 . S
N1601 C1600 1.314 . S
N1601 C1603 1.279 . S
C1602 C1603 1.358 . S
C1602 C1604 1.356 . S
C1602 H1656 0.930 . S
C1603 N1601 1.279 . S
C1603 C1602 1.358 . S
C1603 H1607 0.930 . S
C1604 C1602 1.356 . S
C1604 C1605 1.348 . S
C1605 C1600 1.353 . S
C1605 C1604 1.348 . S
C1605 H1657 0.929 . S
H1606 C1600 0.930 . S
H1607 C1603 0.930 . S
C1608 N1609 1.314 . S
C1608 C1610 1.353 . S
C1608 H1614 0.930 . S
N1609 Li1585 1.990 . S
N1609 C1608 1.314 . S
N1609 C1612 1.279 . S
C1610 C1608 1.353 . S
C1610 C1613 1.348 . S
C1610 H1658 0.929 . S
C1611 C1612 1.358 . S
C1611 C1613 1.356 . S
C1611 H1659 0.930 . S
C1612 N1609 1.279 . S
C1612 C1611 1.358 . S
C1612 H1615 0.930 . S
C1613 C1610 1.348 . S
C1613 C1611 1.356 . S
H1614 C1608 0.930 . S
H1615 C1612 0.930 . S
C1616 C1618 1.348 . S
C1616 C1619 1.356 . S
C1616 O1646 1.325 . S
N1617 C1620 1.314 . S
N1617 C1621 1.279 . S
C1618 C1616 1.348 . S
C1618 C1620 1.353 . S
C1618 H1660 0.929 . S
C1619 C1616 1.356 . S
C1619 C1621 1.358 . S
C1619 H1661 0.930 . S
C1620 N1617 1.314 . S
C1620 C1618 1.353 . S
C1620 H1662 0.930 . S
C1621 N1617 1.279 . S
C1621 C1619 1.358 . S
C1621 H1663 0.930 . S
C1622 C1623 1.348 . S
C1622 C1624 1.356 . S
C1622 O1647 1.325 . S
C1623 C1622 1.348 . S
C1623 C1625 1.353 . S
C1623 H1664 0.929 . S
C1624 C1622 1.356 . S
C1624 C1626 1.358 . S
C1624 H1665 0.930 . S
C1625 C1623 1.353 . S
C1625 N1627 1.314 . S
C1625 H1666 0.930 . S
C1626 C1624 1.358 . S
C1626 N1627 1.279 . S
C1626 H1667 0.930 . S
N1627 C1625 1.314 . S
N1627 C1626 1.279 . S
C1628 C1630 1.353 . S
C1628 N1631 1.314 . S
C1628 H1634 0.930 . S
C1629 N1631 1.279 . S
C1629 C1632 1.358 . S
C1629 H1635 0.930 . S
C1630 C1628 1.353 . S
C1630 C1633 1.348 . S
C1630 H1668 0.929 . S
N1631 Li1586 1.990 . S
N1631 C1628 1.314 . S
N1631 C1629 1.279 . S
C1632 C1629 1.358 . S
C1632 C1633 1.356 . S
C1632 H1669 0.930 . S
C1633 C1630 1.348 . S
C1633 C1632 1.356 . S
H1634 C1628 0.930 . S
H1635 C1629 0.930 . S
C1636 N1637 1.314 . S
C1636 C1638 1.353 . S
C1636 H1642 0.930 . S
N1637 Li1587 1.990 . S
N1637 C1636 1.314 . S
N1637 C1640 1.279 . S
C1638 C1636 1.353 . S
C1638 C1641 1.348 . S
C1638 H1670 0.929 . S
C1639 C1640 1.358 . S
C1639 C1641 1.356 . S
C1639 H1671 0.930 . S
C1640 N1637 1.279 . S
C1640 C1639 1.358 . S
C1640 H1643 0.930 . S
C1641 C1638 1.348 . S
C1641 C1639 1.356 . S
H1642 C1636 0.930 . S
H1643 C1640 0.930 . S
O1644 Li1584 1.956 . S
O1644 Li1585 1.970 . S
O1644 Li1586 1.961 . S
O1644 C1588 1.325 . S
O1645 Li1584 1.970 . S
O1645 Li1585 1.956 . S
O1645 Li1587 1.961 . S
O1645 C1594 1.325 . S
O1646 Li1584 1.961 . S
O1646 Li1586 1.956 . S
O1646 Li1587 1.970 . S
O1646 C1616 1.325 . S
O1647 Li1585 1.961 . S
O1647 Li1586 1.970 . S
O1647 Li1587 1.956 . S
O1647 C1622 1.325 . S
H1648 C1590 0.929 . S
H1649 C1591 0.930 . S
H1650 C1592 0.930 . S
H1651 C1593 0.930 . S
H1652 C1595 0.930 . S
H1653 C1597 0.929 . S
H1654 C1598 0.930 . S
H1655 C1599 0.930 . S
H1656 C1602 0.930 . S
H1657 C1605 0.929 . S
H1658 C1610 0.929 . S
H1659 C1611 0.930 . S
H1660 C1618 0.929 . S
H1661 C1619 0.930 . S
H1662 C1620 0.930 . S
H1663 C1621 0.930 . S
H1664 C1623 0.929 . S
H1665 C1624 0.930 . S
H1666 C1625 0.930 . S
H1667 C1626 0.930 . S
H1668 C1630 0.929 . S
H1669 C1632 0.930 . S
H1670 C1638 0.929 . S
H1671 C1639 0.930 . S
Li1672 N1689 1.990 . S
Li1672 O1732 1.956 . S
Li1672 O1733 1.970 . S
Li1672 O1734 1.961 . S
Li1673 N1697 1.990 . S
Li1673 O1732 1.970 . S
Li1673 O1733 1.956 . S
Li1673 O1735 1.961 . S
Li1674 N1719 1.990 . S
Li1674 O1732 1.961 . S
Li1674 O1734 1.956 . S
Li1674 O1735 1.970 . S
Li1675 N1725 1.990 . S
Li1675 O1733 1.961 . S
Li1675 O1734 1.970 . S
Li1675 O1735 1.956 . S
C1676 C1678 1.348 . S
C1676 C1679 1.356 . S
C1676 O1732 1.325 . S
N1677 C1680 1.314 . S
N1677 C1681 1.279 . S
C1678 C1676 1.348 . S
C1678 C1680 1.353 . S
C1678 H1736 0.929 . S
C1679 C1676 1.356 . S
C1679 C1681 1.358 . S
C1679 H1737 0.930 . S
C1680 N1677 1.314 . S
C1680 C1678 1.353 . S
C1680 H1738 0.930 . S
C1681 N1677 1.279 . S
C1681 C1679 1.358 . S
C1681 H1739 0.930 . S
C1682 C1685 1.348 . S
C1682 C1686 1.356 . S
C1682 O1733 1.325 . S
C1683 N1684 1.279 . S
C1683 C1686 1.358 . S
C1683 H1740 0.930 . S
N1684 C1683 1.279 . S
N1684 C1687 1.314 . S
C1685 C1682 1.348 . S
C1685 C1687 1.353 . S
C1685 H1741 0.929 . S
C1686 C1682 1.356 . S
C1686 C1683 1.358 . S
C1686 H1742 0.930 . S
C1687 N1684 1.314 . S
C1687 C1685 1.353 . S
C1687 H1743 0.930 . S
C1688 N1689 1.314 . S
C1688 C1693 1.353 . S
C1688 H1694 0.930 . S
N1689 Li1672 1.990 . S
N1689 C1688 1.314 . S
N1689 C1691 1.279 . S
C1690 C1691 1.358 . S
C1690 C1692 1.356 . S
C1690 H1744 0.930 . S
C1691 N1689 1.279 . S
C1691 C1690 1.358 . S
C1691 H1695 0.930 . S
C1692 C1690 1.356 . S
C1692 C1693 1.348 . S
C1693 C1688 1.353 . S
C1693 C1692 1.348 . S
C1693 H1745 0.929 . S
H1694 C1688 0.930 . S
H1695 C1691 0.930 . S
C1696 N1697 1.314 . S
C1696 C1698 1.353 . S
C1696 H1702 0.930 . S
N1697 Li1673 1.990 . S
N1697 C1696 1.314 . S
N1697 C1700 1.279 . S
C1698 C1696 1.353 . S
C1698 C1701 1.348 . S
C1698 H1746 0.929 . S
C1699 C1700 1.358 . S
C1699 C1701 1.356 . S
C1699 H1747 0.930 . S
C1700 N1697 1.279 . S
C1700 C1699 1.358 . S
C1700 H1703 0.930 . S
C1701 C1698 1.348 . S
C1701 C1699 1.356 . S
H1702 C1696 0.930 . S
H1703 C1700 0.930 . S
C1704 C1706 1.392 . S
C1704 C1707 1.356 . S
C1704 O1734 1.325 . S
N1705 C1708 1.314 . S
N1705 C1709 1.279 . S
C1706 C1704 1.392 . S
C1706 C1708 1.319 1_545 S
C1706 H1748 0.926 . S
C1707 C1704 1.356 . S
C1707 C1709 1.358 1_545 S
C1707 H1749 0.930 . S
C1708 N1705 1.314 . S
C1708 C1706 1.319 1_565 S
C1708 H1750 0.930 . S
C1709 N1705 1.279 . S
C1709 C1707 1.358 1_565 S
C1709 H1751 0.930 . S
C1710 C1711 1.348 . S
C1710 C1712 1.356 . S
C1710 O1735 1.325 . S
C1711 C1710 1.348 . S
C1711 C1713 1.353 . S
C1711 H1752 0.929 . S
C1712 C1710 1.356 . S
C1712 C1714 1.358 . S
C1712 H1753 0.930 . S
C1713 C1711 1.353 . S
C1713 N1715 1.314 . S
C1713 H1754 0.930 . S
C1714 C1712 1.358 . S
C1714 N1715 1.279 . S
C1714 H1755 0.930 . S
N1715 C1713 1.314 . S
N1715 C1714 1.279 . S
C1716 C1718 1.353 . S
C1716 N1719 1.314 . S
C1716 H1722 0.930 . S
C1717 N1719 1.279 . S
C1717 C1720 1.358 . S
C1717 H1723 0.930 . S
C1718 C1716 1.353 . S
C1718 C1721 1.348 . S
C1718 H1756 0.929 . S
N1719 Li1674 1.990 . S
N1719 C1716 1.314 . S
N1719 C1717 1.279 . S
C1720 C1717 1.358 . S
C1720 C1721 1.356 . S
C1720 H1757 0.930 . S
C1721 C1718 1.348 . S
C1721 C1720 1.356 . S
H1722 C1716 0.930 . S
H1723 C1717 0.930 . S
C1724 N1725 1.314 . S
C1724 C1726 1.353 1_545 S
C1724 H1730 0.930 . S
N1725 Li1675 1.990 . S
N1725 C1724 1.314 . S
N1725 C1728 1.279 . S
C1726 C1724 1.353 1_565 S
C1726 C1729 1.348 . S
C1726 H1758 0.929 . S
C1727 C1728 1.359 1_565 S
C1727 C1729 1.356 . S
C1727 H1759 0.929 . S
C1728 N1725 1.279 . S
C1728 C1727 1.359 1_545 S
C1728 H1731 0.930 . S
C1729 C1726 1.348 . S
C1729 C1727 1.356 . S
H1730 C1724 0.930 . S
H1731 C1728 0.930 . S
O1732 Li1672 1.956 . S
O1732 Li1673 1.970 . S
O1732 Li1674 1.961 . S
O1732 C1676 1.325 . S
O1733 Li1672 1.970 . S
O1733 Li1673 1.956 . S
O1733 Li1675 1.961 . S
O1733 C1682 1.325 . S
O1734 Li1672 1.961 . S
O1734 Li1674 1.956 . S
O1734 Li1675 1.970 . S
O1734 C1704 1.325 . S
O1735 Li1673 1.961 . S
O1735 Li1674 1.970 . S
O1735 Li1675 1.956 . S
O1735 C1710 1.325 . S
H1736 C1678 0.929 . S
H1737 C1679 0.930 . S
H1738 C1680 0.930 . S
H1739 C1681 0.930 . S
H1740 C1683 0.930 . S
H1741 C1685 0.929 . S
H1742 C1686 0.930 . S
H1743 C1687 0.930 . S
H1744 C1690 0.930 . S
H1745 C1693 0.929 . S
H1746 C1698 0.929 . S
H1747 C1699 0.930 . S
H1748 C1706 0.926 . S
H1749 C1707 0.930 . S
H1750 C1708 0.930 . S
H1751 C1709 0.930 . S
H1752 C1711 0.929 . S
H1753 C1712 0.930 . S
H1754 C1713 0.930 . S
H1755 C1714 0.930 . S
H1756 C1718 0.929 . S
H1757 C1720 0.930 . S
H1758 C1726 0.929 . S
H1759 C1727 0.929 . S
Li1760 N1777 1.990 . S
Li1760 O1820 1.956 . S
Li1760 O1821 1.970 . S
Li1760 O1822 1.961 . S
Li1761 N1785 1.990 . S
Li1761 O1820 1.970 . S
Li1761 O1821 1.956 . S
Li1761 O1823 1.961 1_554 S
Li1762 N1807 1.990 . S
Li1762 O1820 1.961 1_556 S
Li1762 O1822 1.956 1_556 S
Li1762 O1823 1.970 . S
Li1763 N1813 1.990 1_554 S
Li1763 O1821 1.961 . S
Li1763 O1822 1.970 . S
Li1763 O1823 1.956 1_554 S
C1764 C1766 1.348 . S
C1764 C1767 1.356 . S
C1764 O1820 1.325 . S
N1765 C1768 1.314 . S
N1765 C1769 1.279 . S
C1766 C1764 1.348 . S
C1766 C1768 1.353 . S
C1766 H1824 0.929 . S
C1767 C1764 1.356 . S
C1767 C1769 1.358 . S
C1767 H1825 0.930 . S
C1768 N1765 1.314 . S
C1768 C1766 1.353 . S
C1768 H1826 0.930 . S
C1769 N1765 1.279 . S
C1769 C1767 1.358 . S
C1769 H1827 0.930 . S
C1770 C1773 1.348 . S
C1770 C1774 1.356 . S
C1770 O1821 1.325 . S
C1771 N1772 1.279 . S
C1771 C1774 1.358 . S
C1771 H1828 0.930 . S
N1772 C1771 1.279 . S
N1772 C1775 1.314 . S
C1773 C1770 1.348 . S
C1773 C1775 1.353 . S
C1773 H1829 0.929 . S
C1774 C1770 1.356 . S
C1774 C1771 1.358 . S
C1774 H1830 0.930 . S
C1775 N1772 1.314 . S
C1775 C1773 1.353 . S
C1775 H1831 0.930 . S
C1776 N1777 1.314 . S
C1776 C1781 1.353 . S
C1776 H1782 0.930 . S
N1777 Li1760 1.990 . S
N1777 C1776 1.314 . S
N1777 C1779 1.279 . S
C1778 C1779 1.358 . S
C1778 C1780 1.356 . S
C1778 H1832 0.930 . S
C1779 N1777 1.279 . S
C1779 C1778 1.358 . S
C1779 H1783 0.930 . S
C1780 C1778 1.356 . S
C1780 C1781 1.348 . S
C1781 C1776 1.353 . S
C1781 C1780 1.348 . S
C1781 H1833 0.929 . S
H1782 C1776 0.930 . S
H1783 C1779 0.930 . S
C1784 N1785 1.314 1_556 S
C1784 C1786 1.353 . S
C1784 H1790 0.930 . S
N1785 Li1761 1.990 . S
N1785 C1784 1.314 1_554 S
N1785 C1788 1.279 . S
C1786 C1784 1.353 . S
C1786 C1789 1.348 1_556 S
C1786 H1834 0.929 . S
C1787 C1788 1.358 . S
C1787 C1789 1.356 . S
C1787 H1835 0.930 . S
C1788 N1785 1.279 . S
C1788 C1787 1.358 . S
C1788 H1791 0.930 . S
C1789 C1786 1.348 1_554 S
C1789 C1787 1.356 . S
H1790 C1784 0.930 . S
H1791 C1788 0.930 . S
C1792 C1794 1.348 1_554 S
C1792 C1795 1.356 . S
C1792 O1822 1.325 . S
N1793 C1796 1.308 1_554 S
N1793 C1797 1.279 . S
C1794 C1792 1.348 1_556 S
C1794 C1796 1.354 . S
C1794 H1836 0.929 . S
C1795 C1792 1.356 . S
C1795 C1797 1.358 . S
C1795 H1837 0.930 . S
C1796 N1793 1.308 1_556 S
C1796 C1794 1.354 . S
C1796 H1838 0.939 . S
C1797 N1793 1.279 . S
C1797 C1795 1.358 . S
C1797 H1839 0.930 . S
C1798 C1799 1.348 . S
C1798 C1800 1.356 . S
C1798 O1823 1.325 . S
C1799 C1798 1.348 . S
C1799 C1801 1.353 . S
C1799 H1840 0.929 . S
C1800 C1798 1.356 . S
C1800 C1802 1.358 . S
C1800 H1841 0.930 . S
C1801 C1799 1.353 . S
C1801 N1803 1.314 . S
C1801 H1842 0.930 . S
C1802 C1800 1.358 . S
C1802 N1803 1.279 . S
C1802 H1843 0.930 . S
N1803 C1801 1.314 . S
N1803 C1802 1.279 . S
C1804 C1806 1.353 . S
C1804 N1807 1.314 . S
C1804 H1810 0.930 . S
C1805 N1807 1.279 . S
C1805 C1808 1.358 . S
C1805 H1811 0.930 . S
C1806 C1804 1.353 . S
C1806 C1809 1.348 . S
C1806 H1844 0.929 . S
N1807 Li1762 1.990 . S
N1807 C1804 1.314 . S
N1807 C1805 1.279 . S
C1808 C1805 1.358 . S
C1808 C1809 1.356 . S
C1808 H1845 0.930 . S
C1809 C1806 1.348 . S
C1809 C1808 1.356 . S
H1810 C1804 0.930 . S
H1811 C1805 0.930 . S
C1812 N1813 1.314 1_554 S
C1812 C1814 1.353 . S
C1812 H1818 0.930 . S
N1813 Li1763 1.990 1_556 S
N1813 C1812 1.314 1_556 S
N1813 C1816 1.279 . S
C1814 C1812 1.353 . S
C1814 C1817 1.348 1_554 S
C1814 H1846 0.929 . S
C1815 C1816 1.358 . S
C1815 C1817 1.356 . S
C1815 H1847 0.930 . S
C1816 N1813 1.279 . S
C1816 C1815 1.358 . S
C1816 H1819 0.930 . S
C1817 C1814 1.348 1_556 S
C1817 C1815 1.356 . S
H1818 C1812 0.930 . S
H1819 C1816 0.930 . S
O1820 Li1760 1.956 . S
O1820 Li1761 1.970 . S
O1820 Li1762 1.961 1_554 S
O1820 C1764 1.325 . S
O1821 Li1760 1.970 . S
O1821 Li1761 1.956 . S
O1821 Li1763 1.961 . S
O1821 C1770 1.325 . S
O1822 Li1760 1.961 . S
O1822 Li1762 1.956 1_554 S
O1822 Li1763 1.970 . S
O1822 C1792 1.325 . S
O1823 Li1761 1.961 1_556 S
O1823 Li1762 1.970 . S
O1823 Li1763 1.956 1_556 S
O1823 C1798 1.325 . S
H1824 C1766 0.929 . S
H1825 C1767 0.930 . S
H1826 C1768 0.930 . S
H1827 C1769 0.930 . S
H1828 C1771 0.930 . S
H1829 C1773 0.929 . S
H1830 C1774 0.930 . S
H1831 C1775 0.930 . S
H1832 C1778 0.930 . S
H1833 C1781 0.929 . S
H1834 C1786 0.929 . S
H1835 C1787 0.930 . S
H1836 C1794 0.929 . S
H1837 C1795 0.930 . S
H1838 C1796 0.939 . S
H1839 C1797 0.930 . S
H1840 C1799 0.929 . S
H1841 C1800 0.930 . S
H1842 C1801 0.930 . S
H1843 C1802 0.930 . S
H1844 C1806 0.929 . S
H1845 C1808 0.930 . S
H1846 C1814 0.929 . S
H1847 C1815 0.930 . S
Li1848 N1865 1.990 . S
Li1848 O1908 1.956 . S
Li1848 O1909 1.970 . S
Li1848 O1910 1.961 . S
Li1849 N1873 1.990 . S
Li1849 O1908 1.970 . S
Li1849 O1909 1.956 . S
Li1849 O1911 1.961 . S
Li1850 N1895 1.990 . S
Li1850 O1908 1.961 . S
Li1850 O1910 1.956 . S
Li1850 O1911 1.970 . S
Li1851 N1901 1.990 . S
Li1851 O1909 1.961 . S
Li1851 O1910 1.970 . S
Li1851 O1911 1.956 . S
C1852 C1854 1.348 . S
C1852 C1855 1.356 . S
C1852 O1908 1.325 . S
N1853 C1856 1.314 . S
N1853 C1857 1.279 . S
C1854 C1852 1.348 . S
C1854 C1856 1.353 . S
C1854 H1912 0.929 . S
C1855 C1852 1.356 . S
C1855 C1857 1.358 . S
C1855 H1913 0.930 . S
C1856 N1853 1.314 . S
C1856 C1854 1.353 . S
C1856 H1914 0.930 . S
C1857 N1853 1.279 . S
C1857 C1855 1.358 . S
C1857 H1915 0.930 . S
C1858 C1861 1.348 . S
C1858 C1862 1.356 . S
C1858 O1909 1.325 . S
C1859 N1860 1.279 . S
C1859 C1862 1.358 . S
C1859 H1916 0.930 . S
N1860 C1859 1.279 . S
N1860 C1863 1.314 . S
C1861 C1858 1.348 . S
C1861 C1863 1.353 . S
C1861 H1917 0.929 . S
C1862 C1858 1.356 . S
C1862 C1859 1.358 . S
C1862 H1918 0.930 . S
C1863 N1860 1.314 . S
C1863 C1861 1.353 . S
C1863 H1919 0.930 . S
C1864 N1865 1.314 . S
C1864 C1869 1.353 . S
C1864 H1870 0.930 . S
N1865 Li1848 1.990 . S
N1865 C1864 1.314 . S
N1865 C1867 1.279 . S
C1866 C1867 1.358 . S
C1866 C1868 1.356 . S
C1866 H1920 0.930 . S
C1867 N1865 1.279 . S
C1867 C1866 1.358 . S
C1867 H1871 0.930 . S
C1868 C1866 1.356 . S
C1868 C1869 1.348 . S
C1869 C1864 1.353 . S
C1869 C1868 1.348 . S
C1869 H1921 0.929 . S
H1870 C1864 0.930 . S
H1871 C1867 0.930 . S
C1872 N1873 1.314 . S
C1872 C1874 1.353 . S
C1872 H1878 0.930 . S
N1873 Li1849 1.990 . S
N1873 C1872 1.314 . S
N1873 C1876 1.279 . S
C1874 C1872 1.353 . S
C1874 C1877 1.348 . S
C1874 H1922 0.929 . S
C1875 C1876 1.358 . S
C1875 C1877 1.356 . S
C1875 H1923 0.930 . S
C1876 N1873 1.279 . S
C1876 C1875 1.358 . S
C1876 H1879 0.930 . S
C1877 C1874 1.348 . S
C1877 C1875 1.356 . S
H1878 C1872 0.930 . S
H1879 C1876 0.930 . S
C1880 C1882 1.348 . S
C1880 C1883 1.356 . S
C1880 O1910 1.325 . S
N1881 C1884 1.314 . S
N1881 C1885 1.279 . S
C1882 C1880 1.348 . S
C1882 C1884 1.353 . S
C1882 H1924 0.929 . S
C1883 C1880 1.356 . S
C1883 C1885 1.358 . S
C1883 H1925 0.930 . S
C1884 N1881 1.314 . S
C1884 C1882 1.353 . S
C1884 H1926 0.930 . S
C1885 N1881 1.279 . S
C1885 C1883 1.358 . S
C1885 H1927 0.930 . S
C1886 C1887 1.348 . S
C1886 C1888 1.356 . S
C1886 O1911 1.325 . S
C1887 C1886 1.348 . S
C1887 C1889 1.353 . S
C1887 H1928 0.929 . S
C1888 C1886 1.356 . S
C1888 C1890 1.358 . S
C1888 H1929 0.930 . S
C1889 C1887 1.353 . S
C1889 N1891 1.314 . S
C1889 H1930 0.930 . S
C1890 C1888 1.358 . S
C1890 N1891 1.279 . S
C1890 H1931 0.930 . S
N1891 C1889 1.314 . S
N1891 C1890 1.279 . S
C1892 C1894 1.353 . S
C1892 N1895 1.314 . S
C1892 H1898 0.930 . S
C1893 N1895 1.279 . S
C1893 C1896 1.358 . S
C1893 H1899 0.930 . S
C1894 C1892 1.353 . S
C1894 C1897 1.348 . S
C1894 H1932 0.929 . S
N1895 Li1850 1.990 . S
N1895 C1892 1.314 . S
N1895 C1893 1.279 . S
C1896 C1893 1.358 . S
C1896 C1897 1.356 . S
C1896 H1933 0.930 . S
C1897 C1894 1.348 . S
C1897 C1896 1.356 . S
H1898 C1892 0.930 . S
H1899 C1893 0.930 . S
C1900 N1901 1.314 . S
C1900 C1902 1.353 . S
C1900 H1906 0.930 . S
N1901 Li1851 1.990 . S
N1901 C1900 1.314 . S
N1901 C1904 1.279 . S
C1902 C1900 1.353 . S
C1902 C1905 1.348 . S
C1902 H1934 0.929 . S
C1903 C1904 1.358 . S
C1903 C1905 1.356 . S
C1903 H1935 0.930 . S
C1904 N1901 1.279 . S
C1904 C1903 1.358 . S
C1904 H1907 0.930 . S
C1905 C1902 1.348 . S
C1905 C1903 1.356 . S
H1906 C1900 0.930 . S
H1907 C1904 0.930 . S
O1908 Li1848 1.956 . S
O1908 Li1849 1.970 . S
O1908 Li1850 1.961 . S
O1908 C1852 1.325 . S
O1909 Li1848 1.970 . S
O1909 Li1849 1.956 . S
O1909 Li1851 1.961 . S
O1909 C1858 1.325 . S
O1910 Li1848 1.961 . S
O1910 Li1850 1.956 . S
O1910 Li1851 1.970 . S
O1910 C1880 1.325 . S
O1911 Li1849 1.961 . S
O1911 Li1850 1.970 . S
O1911 Li1851 1.956 . S
O1911 C1886 1.325 . S
H1912 C1854 0.929 . S
H1913 C1855 0.930 . S
H1914 C1856 0.930 . S
H1915 C1857 0.930 . S
H1916 C1859 0.930 . S
H1917 C1861 0.929 . S
H1918 C1862 0.930 . S
H1919 C1863 0.930 . S
H1920 C1866 0.930 . S
H1921 C1869 0.929 . S
H1922 C1874 0.929 . S
H1923 C1875 0.930 . S
H1924 C1882 0.929 . S
H1925 C1883 0.930 . S
H1926 C1884 0.930 . S
H1927 C1885 0.930 . S
H1928 C1887 0.929 . S
H1929 C1888 0.930 . S
H1930 C1889 0.930 . S
H1931 C1890 0.930 . S
H1932 C1894 0.929 . S
H1933 C1896 0.930 . S
H1934 C1902 0.929 . S
H1935 C1903 0.930 . S
Li1936 N1953 1.990 . S
Li1936 O1996 1.956 . S
Li1936 O1997 1.970 . S
Li1936 O1998 1.961 . S
Li1937 N1961 1.990 . S
Li1937 O1996 1.970 . S
Li1937 O1997 1.956 . S
Li1937 O1999 1.961 . S
Li1938 N1983 1.990 . S
Li1938 O1996 1.961 . S
Li1938 O1998 1.956 . S
Li1938 O1999 1.970 . S
Li1939 N1989 1.990 . S
Li1939 O1997 1.961 . S
Li1939 O1998 1.970 . S
Li1939 O1999 1.956 . S
C1940 C1942 1.348 . S
C1940 C1943 1.356 . S
C1940 O1996 1.325 . S
N1941 C1944 1.314 . S
N1941 C1945 1.279 . S
C1942 C1940 1.348 . S
C1942 C1944 1.353 . S
C1942 H2000 0.929 . S
C1943 C1940 1.356 . S
C1943 C1945 1.358 . S
C1943 H2001 0.930 . S
C1944 N1941 1.314 . S
C1944 C1942 1.353 . S
C1944 H2002 0.930 . S
C1945 N1941 1.279 . S
C1945 C1943 1.358 . S
C1945 H2003 0.930 . S
C1946 C1949 1.348 . S
C1946 C1950 1.356 . S
C1946 O1997 1.325 . S
C1947 N1948 1.279 . S
C1947 C1950 1.358 . S
C1947 H2004 0.930 . S
N1948 C1947 1.279 . S
N1948 C1951 1.314 . S
C1949 C1946 1.348 . S
C1949 C1951 1.353 . S
C1949 H2005 0.929 . S
C1950 C1946 1.356 . S
C1950 C1947 1.358 . S
C1950 H2006 0.930 . S
C1951 N1948 1.314 . S
C1951 C1949 1.353 . S
C1951 H2007 0.930 . S
C1952 N1953 1.314 . S
C1952 C1957 1.353 . S
C1952 H1958 0.930 . S
N1953 Li1936 1.990 . S
N1953 C1952 1.314 . S
N1953 C1955 1.279 . S
C1954 C1955 1.358 . S
C1954 C1956 1.356 . S
C1954 H2008 0.930 . S
C1955 N1953 1.279 . S
C1955 C1954 1.358 . S
C1955 H1959 0.930 . S
C1956 C1954 1.356 . S
C1956 C1957 1.348 . S
C1957 C1952 1.353 . S
C1957 C1956 1.348 . S
C1957 H2009 0.929 . S
H1958 C1952 0.930 . S
H1959 C1955 0.930 . S
C1960 N1961 1.314 . S
C1960 C1962 1.353 . S
C1960 H1966 0.930 . S
N1961 Li1937 1.990 . S
N1961 C1960 1.314 . S
N1961 C1964 1.279 . S
C1962 C1960 1.353 . S
C1962 C1965 1.348 . S
C1962 H2010 0.929 . S
C1963 C1964 1.358 . S
C1963 C1965 1.356 . S
C1963 H2011 0.930 . S
C1964 N1961 1.279 . S
C1964 C1963 1.358 . S
C1964 H1967 0.930 . S
C1965 C1962 1.348 . S
C1965 C1963 1.356 . S
H1966 C1960 0.930 . S
H1967 C1964 0.930 . S
C1968 C1970 1.348 . S
C1968 C1971 1.356 . S
C1968 O1998 1.325 . S
N1969 C1972 1.314 . S
N1969 C1973 1.279 . S
C1970 C1968 1.348 . S
C1970 C1972 1.353 . S
C1970 H2012 0.929 . S
C1971 C1968 1.356 . S
C1971 C1973 1.358 . S
C1971 H2013 0.930 . S
C1972 N1969 1.314 . S
C1972 C1970 1.353 . S
C1972 H2014 0.930 . S
C1973 N1969 1.279 . S
C1973 C1971 1.358 . S
C1973 H2015 0.930 . S
C1974 C1975 1.348 . S
C1974 C1976 1.356 . S
C1974 O1999 1.325 . S
C1975 C1974 1.348 . S
C1975 C1977 1.353 . S
C1975 H2016 0.929 . S
C1976 C1974 1.356 . S
C1976 C1978 1.358 . S
C1976 H2017 0.930 . S
C1977 C1975 1.353 . S
C1977 N1979 1.314 . S
C1977 H2018 0.930 . S
C1978 C1976 1.358 . S
C1978 N1979 1.279 . S
C1978 H2019 0.930 . S
N1979 C1977 1.314 . S
N1979 C1978 1.279 . S
C1980 C1982 1.353 . S
C1980 N1983 1.314 . S
C1980 H1986 0.930 . S
C1981 N1983 1.279 . S
C1981 C1984 1.358 . S
C1981 H1987 0.930 . S
C1982 C1980 1.353 . S
C1982 C1985 1.348 . S
C1982 H2020 0.929 . S
N1983 Li1938 1.990 . S
N1983 C1980 1.314 . S
N1983 C1981 1.279 . S
C1984 C1981 1.358 . S
C1984 C1985 1.356 . S
C1984 H2021 0.930 . S
C1985 C1982 1.348 . S
C1985 C1984 1.356 . S
H1986 C1980 0.930 . S
H1987 C1981 0.930 . S
C1988 N1989 1.314 . S
C1988 C1990 1.353 . S
C1988 H1994 0.930 . S
N1989 Li1939 1.990 . S
N1989 C1988 1.314 . S
N1989 C1992 1.279 . S
C1990 C1988 1.353 . S
C1990 C1993 1.348 . S
C1990 H2022 0.929 . S
C1991 C1992 1.358 . S
C1991 C1993 1.356 . S
C1991 H2023 0.930 . S
C1992 N1989 1.279 . S
C1992 C1991 1.358 . S
C1992 H1995 0.930 . S
C1993 C1990 1.348 . S
C1993 C1991 1.356 . S
H1994 C1988 0.930 . S
H1995 C1992 0.930 . S
O1996 Li1936 1.956 . S
O1996 Li1937 1.970 . S
O1996 Li1938 1.961 . S
O1996 C1940 1.325 . S
O1997 Li1936 1.970 . S
O1997 Li1937 1.956 . S
O1997 Li1939 1.961 . S
O1997 C1946 1.325 . S
O1998 Li1936 1.961 . S
O1998 Li1938 1.956 . S
O1998 Li1939 1.970 . S
O1998 C1968 1.325 . S
O1999 Li1937 1.961 . S
O1999 Li1938 1.970 . S
O1999 Li1939 1.956 . S
O1999 C1974 1.325 . S
H2000 C1942 0.929 . S
H2001 C1943 0.930 . S
H2002 C1944 0.930 . S
H2003 C1945 0.930 . S
H2004 C1947 0.930 . S
H2005 C1949 0.929 . S
H2006 C1950 0.930 . S
H2007 C1951 0.930 . S
H2008 C1954 0.930 . S
H2009 C1957 0.929 . S
H2010 C1962 0.929 . S
H2011 C1963 0.930 . S
H2012 C1970 0.929 . S
H2013 C1971 0.930 . S
H2014 C1972 0.930 . S
H2015 C1973 0.930 . S
H2016 C1975 0.929 . S
H2017 C1976 0.930 . S
H2018 C1977 0.930 . S
H2019 C1978 0.930 . S
H2020 C1982 0.929 . S
H2021 C1984 0.930 . S
H2022 C1990 0.929 . S
H2023 C1991 0.930 . S
Li2024 N2041 1.990 . S
Li2024 O2084 1.956 . S
Li2024 O2085 1.970 . S
Li2024 O2086 1.961 . S
Li2025 N2049 1.990 . S
Li2025 O2084 1.970 . S
Li2025 O2085 1.956 . S
Li2025 O2087 1.961 . S
Li2026 N2071 1.990 . S
Li2026 O2084 1.961 . S
Li2026 O2086 1.956 . S
Li2026 O2087 1.970 . S
Li2027 N2077 1.990 . S
Li2027 O2085 1.961 . S
Li2027 O2086 1.970 . S
Li2027 O2087 1.956 . S
C2028 C2030 1.348 . S
C2028 C2031 1.356 . S
C2028 O2084 1.325 . S
N2029 C2032 1.314 . S
N2029 C2033 1.279 . S
C2030 C2028 1.348 . S
C2030 C2032 1.353 . S
C2030 H2088 0.929 . S
C2031 C2028 1.356 . S
C2031 C2033 1.358 . S
C2031 H2089 0.930 . S
C2032 N2029 1.314 . S
C2032 C2030 1.353 . S
C2032 H2090 0.930 . S
C2033 N2029 1.279 . S
C2033 C2031 1.358 . S
C2033 H2091 0.930 . S
C2034 C2037 1.348 . S
C2034 C2038 1.356 . S
C2034 O2085 1.325 . S
C2035 N2036 1.279 . S
C2035 C2038 1.358 . S
C2035 H2092 0.930 . S
N2036 C2035 1.279 . S
N2036 C2039 1.314 . S
C2037 C2034 1.348 . S
C2037 C2039 1.353 . S
C2037 H2093 0.929 . S
C2038 C2034 1.356 . S
C2038 C2035 1.358 . S
C2038 H2094 0.930 . S
C2039 N2036 1.314 . S
C2039 C2037 1.353 . S
C2039 H2095 0.930 . S
C2040 N2041 1.314 . S
C2040 C2045 1.353 . S
C2040 H2046 0.930 . S
N2041 Li2024 1.990 . S
N2041 C2040 1.314 . S
N2041 C2043 1.279 . S
C2042 C2043 1.358 . S
C2042 C2044 1.356 . S
C2042 H2096 0.930 . S
C2043 N2041 1.279 . S
C2043 C2042 1.358 . S
C2043 H2047 0.930 . S
C2044 C2042 1.356 . S
C2044 C2045 1.348 . S
C2045 C2040 1.353 . S
C2045 C2044 1.348 . S
C2045 H2097 0.929 . S
H2046 C2040 0.930 . S
H2047 C2043 0.930 . S
C2048 N2049 1.314 . S
C2048 C2050 1.353 . S
C2048 H2054 0.930 . S
N2049 Li2025 1.990 . S
N2049 C2048 1.314 . S
N2049 C2052 1.279 . S
C2050 C2048 1.353 . S
C2050 C2053 1.348 . S
C2050 H2098 0.929 . S
C2051 C2052 1.358 . S
C2051 C2053 1.356 . S
C2051 H2099 0.930 . S
C2052 N2049 1.279 . S
C2052 C2051 1.358 . S
C2052 H2055 0.930 . S
C2053 C2050 1.348 . S
C2053 C2051 1.356 . S
H2054 C2048 0.930 . S
H2055 C2052 0.930 . S
C2056 C2058 1.348 . S
C2056 C2059 1.356 . S
C2056 O2086 1.325 . S
N2057 C2060 1.314 . S
N2057 C2061 1.279 . S
C2058 C2056 1.348 . S
C2058 C2060 1.353 . S
C2058 H2100 0.929 . S
C2059 C2056 1.356 . S
C2059 C2061 1.358 . S
C2059 H2101 0.930 . S
C2060 N2057 1.314 . S
C2060 C2058 1.353 . S
C2060 H2102 0.930 . S
C2061 N2057 1.279 . S
C2061 C2059 1.358 . S
C2061 H2103 0.930 . S
C2062 C2063 1.348 . S
C2062 C2064 1.356 . S
C2062 O2087 1.325 . S
C2063 C2062 1.348 . S
C2063 C2065 1.353 . S
C2063 H2104 0.929 . S
C2064 C2062 1.356 . S
C2064 C2066 1.358 . S
C2064 H2105 0.930 . S
C2065 C2063 1.353 . S
C2065 N2067 1.314 . S
C2065 H2106 0.930 . S
C2066 C2064 1.358 . S
C2066 N2067 1.279 . S
C2066 H2107 0.930 . S
N2067 C2065 1.314 . S
N2067 C2066 1.279 . S
C2068 C2070 1.353 . S
C2068 N2071 1.314 . S
C2068 H2074 0.930 . S
C2069 N2071 1.279 . S
C2069 C2072 1.358 . S
C2069 H2075 0.930 . S
C2070 C2068 1.353 . S
C2070 C2073 1.348 . S
C2070 H2108 0.929 . S
N2071 Li2026 1.990 . S
N2071 C2068 1.314 . S
N2071 C2069 1.279 . S
C2072 C2069 1.358 . S
C2072 C2073 1.356 . S
C2072 H2109 0.930 . S
C2073 C2070 1.348 . S
C2073 C2072 1.356 . S
H2074 C2068 0.930 . S
H2075 C2069 0.930 . S
C2076 N2077 1.314 . S
C2076 C2078 1.353 . S
C2076 H2082 0.930 . S
N2077 Li2027 1.990 . S
N2077 C2076 1.314 . S
N2077 C2080 1.279 . S
C2078 C2076 1.353 . S
C2078 C2081 1.348 . S
C2078 H2110 0.929 . S
C2079 C2080 1.358 . S
C2079 C2081 1.356 . S
C2079 H2111 0.930 . S
C2080 N2077 1.279 . S
C2080 C2079 1.358 . S
C2080 H2083 0.930 . S
C2081 C2078 1.348 . S
C2081 C2079 1.356 . S
H2082 C2076 0.930 . S
H2083 C2080 0.930 . S
O2084 Li2024 1.956 . S
O2084 Li2025 1.970 . S
O2084 Li2026 1.961 . S
O2084 C2028 1.325 . S
O2085 Li2024 1.970 . S
O2085 Li2025 1.956 . S
O2085 Li2027 1.961 . S
O2085 C2034 1.325 . S
O2086 Li2024 1.961 . S
O2086 Li2026 1.956 . S
O2086 Li2027 1.970 . S
O2086 C2056 1.325 . S
O2087 Li2025 1.961 . S
O2087 Li2026 1.970 . S
O2087 Li2027 1.956 . S
O2087 C2062 1.325 . S
H2088 C2030 0.929 . S
H2089 C2031 0.930 . S
H2090 C2032 0.930 . S
H2091 C2033 0.930 . S
H2092 C2035 0.930 . S
H2093 C2037 0.929 . S
H2094 C2038 0.930 . S
H2095 C2039 0.930 . S
H2096 C2042 0.930 . S
H2097 C2045 0.929 . S
H2098 C2050 0.929 . S
H2099 C2051 0.930 . S
H2100 C2058 0.929 . S
H2101 C2059 0.930 . S
H2102 C2060 0.930 . S
H2103 C2061 0.930 . S
H2104 C2063 0.929 . S
H2105 C2064 0.930 . S
H2106 C2065 0.930 . S
H2107 C2066 0.930 . S
H2108 C2070 0.929 . S
H2109 C2072 0.930 . S
H2110 C2078 0.929 . S
H2111 C2079 0.930 . S
Gd2112 C2115 2.817 1_454 S
Gd2112 O2132 2.375 1_554 S
Gd2112 O2134 2.444 1_454 S
Gd2112 O2135 2.508 1_455 S
Gd2112 O2136 2.429 1_554 S
Gd2112 O2137 2.715 1_554 S
Gd2112 O2139 2.437 . S
Gd2112 O2143 2.333 . S
Gd2113 C2124 2.818 . S
Gd2113 O2133 2.395 . S
Gd2113 O2137 2.327 1_554 S
Gd2113 O2138 2.377 . S
Gd2113 O2140 2.448 . S
Gd2113 O2141 2.506 . S
Gd2113 O2142 2.435 . S
Gd2113 O2143 2.717 . S
C2114 O2132 1.240 1_554 S
C2114 O2133 1.240 . S
C2115 Gd2112 2.817 1_656 S
C2115 C2116 1.510 . S
C2115 O2134 1.249 . S
C2115 O2135 1.252 1_556 S
C2116 C2115 1.510 . S
C2116 C2117 1.404 . S
C2116 C2118 1.352 1_556 S
C2117 C2116 1.404 . S
C2117 C2121 1.389 . S
C2117 H2144 0.930 . S
C2118 C2116 1.352 1_554 S
C2118 C2120 1.363 1_554 S
C2118 H2145 0.931 . S
C2119 C2120 1.413 . S
C2119 C2121 1.364 . S
C2120 C2118 1.363 1_556 S
C2120 C2119 1.413 . S
C2120 H2146 0.891 1_556 S
C2121 C2117 1.389 . S
C2121 C2119 1.364 . S
C2121 H2147 0.931 . S
C2122 O2136 1.256 . S
C2122 O2137 1.257 . S
C2123 O2138 1.240 . S
C2123 O2139 1.227 . S
C2124 Gd2113 2.818 . S
C2124 C2125 1.510 . S
C2124 O2140 1.249 . S
C2124 O2141 1.252 . S
C2125 C2124 1.510 . S
C2125 C2126 1.404 . S
C2125 C2127 1.352 . S
C2126 C2125 1.404 . S
C2126 C2130 1.389 . S
C2126 H2148 0.930 . S
C2127 C2125 1.352 . S
C2127 C2129 1.354 1_545 S
C2127 H2149 0.931 . S
C2128 C2129 1.359 1_545 S
C2128 C2130 1.364 . S
C2129 C2127 1.354 1_565 S
C2129 C2128 1.359 1_565 S
C2129 H2150 0.951 . S
C2130 C2126 1.389 . S
C2130 C2128 1.364 . S
C2130 H2151 0.931 . S
C2131 O2142 1.256 . S
C2131 O2143 1.257 . S
O2132 Gd2112 2.375 1_556 S
O2132 C2114 1.240 1_556 S
O2133 Gd2113 2.395 . S
O2133 C2114 1.240 . S
O2134 Gd2112 2.444 1_656 S
O2134 C2115 1.249 . S
O2135 Gd2112 2.508 1_655 S
O2135 C2115 1.252 1_554 S
O2136 Gd2112 2.429 1_556 S
O2136 C2122 1.256 . S
O2137 Gd2112 2.715 1_556 S
O2137 Gd2113 2.327 1_556 S
O2137 C2122 1.257 . S
O2138 Gd2113 2.377 . S
O2138 C2123 1.240 . S
O2139 Gd2112 2.437 . S
O2139 C2123 1.227 . S
O2140 Gd2113 2.448 . S
O2140 C2124 1.249 . S
O2141 Gd2113 2.506 . S
O2141 C2124 1.252 . S
O2142 Gd2113 2.435 . S
O2142 C2131 1.256 . S
O2143 Gd2112 2.333 . S
O2143 Gd2113 2.717 . S
O2143 C2131 1.257 . S
H2144 C2117 0.930 . S
H2145 C2118 0.931 . S
H2146 C2120 0.891 1_554 S
H2147 C2121 0.931 . S
H2148 C2126 0.930 . S
H2149 C2127 0.931 . S
H2150 C2129 0.951 . S
H2151 C2130 0.931 . S
Gd2152 C2155 2.818 . S
Gd2152 O2172 2.377 . S
Gd2152 O2174 2.448 . S
Gd2152 O2175 2.506 . S
Gd2152 O2176 2.435 . S
Gd2152 O2177 2.717 . S
Gd2152 O2179 2.395 . S
Gd2152 O2183 2.327 . S
Gd2153 C2164 2.818 . S
Gd2153 O2173 2.395 . S
Gd2153 O2177 2.327 . S
Gd2153 O2178 2.377 . S
Gd2153 O2180 2.448 . S
Gd2153 O2181 2.506 . S
Gd2153 O2182 2.435 . S
Gd2153 O2183 2.717 . S
C2154 O2172 1.240 . S
C2154 O2173 1.240 . S
C2155 Gd2152 2.818 . S
C2155 C2156 1.510 . S
C2155 O2174 1.249 . S
C2155 O2175 1.252 . S
C2156 C2155 1.510 . S
C2156 C2157 1.404 . S
C2156 C2158 1.352 . S
C2157 C2156 1.404 . S
C2157 C2161 1.389 . S
C2157 H2184 0.930 . S
C2158 C2156 1.352 . S
C2158 C2160 1.374 . S
C2158 H2185 0.931 . S
C2159 C2160 1.359 . S
C2159 C2161 1.364 . S
C2160 C2158 1.374 . S
C2160 C2159 1.359 . S
C2160 H2186 0.931 . S
C2161 C2157 1.389 . S
C2161 C2159 1.364 . S
C2161 H2187 0.931 . S
C2162 O2176 1.256 . S
C2162 O2177 1.257 . S
C2163 O2178 1.240 . S
C2163 O2179 1.240 . S
C2164 Gd2153 2.818 . S
C2164 C2165 1.510 . S
C2164 O2180 1.249 . S
C2164 O2181 1.252 . S
C2165 C2164 1.510 . S
C2165 C2166 1.404 . S
C2165 C2167 1.352 . S
C2166 C2165 1.404 . S
C2166 C2170 1.389 . S
C2166 H2188 0.930 . S
C2167 C2165 1.352 . S
C2167 C2169 1.374 . S
C2167 H2189 0.931 . S
C2168 C2169 1.359 . S
C2168 C2170 1.364 . S
C2169 C2167 1.374 . S
C2169 C2168 1.359 . S
C2169 H2190 0.931 . S
C2170 C2166 1.389 . S
C2170 C2168 1.364 . S
C2170 H2191 0.931 . S
C2171 O2182 1.256 . S
C2171 O2183 1.257 . S
O2172 Gd2152 2.377 . S
O2172 C2154 1.240 . S
O2173 Gd2153 2.395 . S
O2173 C2154 1.240 . S
O2174 Gd2152 2.448 . S
O2174 C2155 1.249 . S
O2175 Gd2152 2.506 . S
O2175 C2155 1.252 . S
O2176 Gd2152 2.435 . S
O2176 C2162 1.256 . S
O2177 Gd2152 2.717 . S
O2177 Gd2153 2.327 . S
O2177 C2162 1.257 . S
O2178 Gd2153 2.377 . S
O2178 C2163 1.240 . S
O2179 Gd2152 2.395 . S
O2179 C2163 1.240 . S
O2180 Gd2153 2.448 . S
O2180 C2164 1.249 . S
O2181 Gd2153 2.506 . S
O2181 C2164 1.252 . S
O2182 Gd2153 2.435 . S
O2182 C2171 1.256 . S
O2183 Gd2152 2.327 . S
O2183 Gd2153 2.717 . S
O2183 C2171 1.257 . S
H2184 C2157 0.930 . S
H2185 C2158 0.931 . S
H2186 C2160 0.931 . S
H2187 C2161 0.931 . S
H2188 C2166 0.930 . S
H2189 C2167 0.931 . S
H2190 C2169 0.931 . S
H2191 C2170 0.931 . S
Gd2192 C2195 2.818 . S
Gd2192 O2212 2.377 . S
Gd2192 O2214 2.448 . S
Gd2192 O2215 2.506 . S
Gd2192 O2216 2.435 . S
Gd2192 O2217 2.717 . S
Gd2192 O2219 2.395 . S
Gd2192 O2223 2.327 . S
Gd2193 C2204 2.818 . S
Gd2193 O2213 2.395 . S
Gd2193 O2217 2.327 . S
Gd2193 O2218 2.377 . S
Gd2193 O2220 2.448 . S
Gd2193 O2221 2.506 . S
Gd2193 O2222 2.435 . S
Gd2193 O2223 2.717 . S
C2194 O2212 1.240 1_565 S
C2194 O2213 1.240 1_565 S
C2195 Gd2192 2.818 . S
C2195 C2196 1.510 . S
C2195 O2214 1.249 . S
C2195 O2215 1.252 . S
C2196 C2195 1.510 . S
C2196 C2197 1.404 . S
C2196 C2198 1.352 1_545 S
C2197 C2196 1.404 . S
C2197 C2201 1.389 1_545 S
C2197 H2224 0.930 . S
C2198 C2196 1.352 1_565 S
C2198 C2200 1.374 . S
C2198 H2225 0.931 . S
C2199 C2200 1.359 . S
C2199 C2201 1.364 . S
C2200 C2198 1.374 . S
C2200 C2199 1.359 . S
C2200 H2226 0.931 . S
C2201 C2197 1.389 1_565 S
C2201 C2199 1.364 . S
C2201 H2227 0.931 . S
C2202 O2216 1.256 . S
C2202 O2217 1.257 . S
C2203 O2218 1.240 . S
C2203 O2219 1.240 . S
C2204 Gd2193 2.818 . S
C2204 C2205 1.510 . S
C2204 O2220 1.249 . S
C2204 O2221 1.252 . S
C2205 C2204 1.510 . S
C2205 C2206 1.404 . S
C2205 C2207 1.352 . S
C2206 C2205 1.404 . S
C2206 C2210 1.389 . S
C2206 H2228 0.930 . S
C2207 C2205 1.352 . S
C2207 C2209 1.374 . S
C2207 H2229 0.931 . S
C2208 C2209 1.359 . S
C2208 C2210 1.364 . S
C2209 C2207 1.374 . S
C2209 C2208 1.359 . S
C2209 H2230 0.931 . S
C2210 C2206 1.389 . S
C2210 C2208 1.364 . S
C2210 H2231 0.931 . S
C2211 O2222 1.256 . S
C2211 O2223 1.257 . S
O2212 Gd2192 2.377 . S
O2212 C2194 1.240 1_545 S
O2213 Gd2193 2.395 . S
O2213 C2194 1.240 1_545 S
O2214 Gd2192 2.448 . S
O2214 C2195 1.249 . S
O2215 Gd2192 2.506 . S
O2215 C2195 1.252 . S
O2216 Gd2192 2.435 . S
O2216 C2202 1.256 . S
O2217 Gd2192 2.717 . S
O2217 Gd2193 2.327 . S
O2217 C2202 1.257 . S
O2218 Gd2193 2.377 . S
O2218 C2203 1.240 . S
O2219 Gd2192 2.395 . S
O2219 C2203 1.240 . S
O2220 Gd2193 2.448 . S
O2220 C2204 1.249 . S
O2221 Gd2193 2.506 . S
O2221 C2204 1.252 . S
O2222 Gd2193 2.435 . S
O2222 C2211 1.256 . S
O2223 Gd2192 2.327 . S
O2223 Gd2193 2.717 . S
O2223 C2211 1.257 . S
H2224 C2197 0.930 . S
H2225 C2198 0.931 . S
H2226 C2200 0.931 . S
H2227 C2201 0.931 . S
H2228 C2206 0.930 . S
H2229 C2207 0.931 . S
H2230 C2209 0.931 . S
H2231 C2210 0.931 . S
Gd2232 C2235 2.818 . S
Gd2232 O2252 2.377 . S
Gd2232 O2254 2.448 . S
Gd2232 O2255 2.506 . S
Gd2232 O2256 2.435 . S
Gd2232 O2257 2.717 . S
Gd2232 O2259 2.395 . S
Gd2232 O2263 2.327 . S
Gd2233 C2244 2.818 . S
Gd2233 O2253 2.395 . S
Gd2233 O2257 2.327 . S
Gd2233 O2258 2.377 . S
Gd2233 O2260 2.448 . S
Gd2233 O2261 2.506 . S
Gd2233 O2262 2.435 . S
Gd2233 O2263 2.717 . S
C2234 O2252 1.240 . S
C2234 O2253 1.240 . S
C2235 Gd2232 2.818 . S
C2235 C2236 1.510 . S
C2235 O2254 1.249 . S
C2235 O2255 1.252 . S
C2236 C2235 1.510 . S
C2236 C2237 1.404 . S
C2236 C2238 1.352 . S
C2237 C2236 1.404 . S
C2237 C2241 1.389 . S
C2237 H2264 0.930 . S
C2238 C2236 1.352 . S
C2238 C2240 1.374 . S
C2238 H2265 0.931 . S
C2239 C2240 1.359 . S
C2239 C2241 1.364 . S
C2240 C2238 1.374 . S
C2240 C2239 1.359 . S
C2240 H2266 0.931 . S
C2241 C2237 1.389 . S
C2241 C2239 1.364 . S
C2241 H2267 0.931 . S
C2242 O2256 1.256 . S
C2242 O2257 1.257 . S
C2243 O2258 1.240 . S
C2243 O2259 1.240 . S
C2244 Gd2233 2.818 . S
C2244 C2245 1.510 . S
C2244 O2260 1.249 . S
C2244 O2261 1.252 . S
C2245 C2244 1.510 . S
C2245 C2246 1.404 . S
C2245 C2247 1.352 . S
C2246 C2245 1.404 . S
C2246 C2250 1.389 . S
C2246 H2268 0.930 . S
C2247 C2245 1.352 . S
C2247 C2249 1.374 . S
C2247 H2269 0.931 . S
C2248 C2249 1.359 . S
C2248 C2250 1.364 . S
C2249 C2247 1.374 . S
C2249 C2248 1.359 . S
C2249 H2270 0.931 . S
C2250 C2246 1.389 . S
C2250 C2248 1.364 . S
C2250 H2271 0.931 . S
C2251 O2262 1.256 . S
C2251 O2263 1.257 . S
O2252 Gd2232 2.377 . S
O2252 C2234 1.240 . S
O2253 Gd2233 2.395 . S
O2253 C2234 1.240 . S
O2254 Gd2232 2.448 . S
O2254 C2235 1.249 . S
O2255 Gd2232 2.506 . S
O2255 C2235 1.252 . S
O2256 Gd2232 2.435 . S
O2256 C2242 1.256 . S
O2257 Gd2232 2.717 . S
O2257 Gd2233 2.327 . S
O2257 C2242 1.257 . S
O2258 Gd2233 2.377 . S
O2258 C2243 1.240 . S
O2259 Gd2232 2.395 . S
O2259 C2243 1.240 . S
O2260 Gd2233 2.448 . S
O2260 C2244 1.249 . S
O2261 Gd2233 2.506 . S
O2261 C2244 1.252 . S
O2262 Gd2233 2.435 . S
O2262 C2251 1.256 . S
O2263 Gd2232 2.327 . S
O2263 Gd2233 2.717 . S
O2263 C2251 1.257 . S
H2264 C2237 0.930 . S
H2265 C2238 0.931 . S
H2266 C2240 0.931 . S
H2267 C2241 0.931 . S
H2268 C2246 0.930 . S
H2269 C2247 0.931 . S
H2270 C2249 0.931 . S
H2271 C2250 0.931 . S
Gd2272 C2275 2.818 . S
Gd2272 O2292 2.377 . S
Gd2272 O2294 2.448 . S
Gd2272 O2295 2.506 . S
Gd2272 O2296 2.435 . S
Gd2272 O2297 2.717 . S
Gd2272 O2299 2.395 . S
Gd2272 O2303 2.327 . S
Gd2273 C2284 2.818 1_545 S
Gd2273 O2293 2.395 . S
Gd2273 O2297 2.327 . S
Gd2273 O2298 2.377 . S
Gd2273 O2300 2.448 1_545 S
Gd2273 O2301 2.506 1_545 S
Gd2273 O2302 2.435 . S
Gd2273 O2303 2.717 . S
C2274 O2292 1.240 . S
C2274 O2293 1.240 . S
C2275 Gd2272 2.818 . S
C2275 C2276 1.510 . S
C2275 O2294 1.249 . S
C2275 O2295 1.252 . S
C2276 C2275 1.510 . S
C2276 C2277 1.404 . S
C2276 C2278 1.352 . S
C2277 C2276 1.404 . S
C2277 C2281 1.389 . S
C2277 H2304 0.930 . S
C2278 C2276 1.352 . S
C2278 C2280 1.374 . S
C2278 H2305 0.931 . S
C2279 C2280 1.359 . S
C2279 C2281 1.364 . S
C2280 C2278 1.374 . S
C2280 C2279 1.359 . S
C2280 H2306 0.931 . S
C2281 C2277 1.389 . S
C2281 C2279 1.364 . S
C2281 H2307 0.931 1_455 S
C2282 O2296 1.256 . S
C2282 O2297 1.257 . S
C2283 O2298 1.240 . S
C2283 O2299 1.240 . S
C2284 Gd2273 2.818 1_565 S
C2284 C2285 1.510 . S
C2284 O2300 1.249 . S
C2284 O2301 1.252 . S
C2285 C2284 1.510 . S
C2285 C2286 1.404 . S
C2285 C2287 1.352 . S
C2286 C2285 1.404 . S
C2286 C2290 1.389 . S
C2286 H2308 0.930 . S
C2287 C2285 1.352 . S
C2287 C2289 1.374 . S
C2287 H2309 0.931 . S
C2288 C2289 1.359 . S
C2288 C2290 1.364 . S
C2289 C2287 1.374 . S
C2289 C2288 1.359 . S
C2289 H2310 0.931 . S
C2290 C2286 1.389 . S
C2290 C2288 1.364 . S
C2290 H2311 0.931 . S
C2291 O2302 1.256 . S
C2291 O2303 1.257 . S
O2292 Gd2272 2.377 . S
O2292 C2274 1.240 . S
O2293 Gd2273 2.395 . S
O2293 C2274 1.240 . S
O2294 Gd2272 2.448 . S
O2294 C2275 1.249 . S
O2295 Gd2272 2.506 . S
O2295 C2275 1.252 . S
O2296 Gd2272 2.435 . S
O2296 C2282 1.256 . S
O2297 Gd2272 2.717 . S
O2297 Gd2273 2.327 . S
O2297 C2282 1.257 . S
O2298 Gd2273 2.377 . S
O2298 C2283 1.240 . S
O2299 Gd2272 2.395 . S
O2299 C2283 1.240 . S
O2300 Gd2273 2.448 1_565 S
O2300 C2284 1.249 . S
O2301 Gd2273 2.506 1_565 S
O2301 C2284 1.252 . S
O2302 Gd2273 2.435 . S
O2302 C2291 1.256 . S
O2303 Gd2272 2.327 . S
O2303 Gd2273 2.717 . S
O2303 C2291 1.257 . S
H2304 C2277 0.930 . S
H2305 C2278 0.931 . S
H2306 C2280 0.931 . S
H2307 C2281 0.931 1_655 S
H2308 C2286 0.930 . S
H2309 C2287 0.931 . S
H2310 C2289 0.931 . S
H2311 C2290 0.931 . S
Gd2312 C2315 2.818 . S
Gd2312 O2332 2.377 . S
Gd2312 O2334 2.448 . S
Gd2312 O2335 2.506 . S
Gd2312 O2336 2.435 . S
Gd2312 O2337 2.717 . S
Gd2312 O2339 2.395 . S
Gd2312 O2343 2.327 . S
Gd2313 C2324 2.818 . S
Gd2313 O2333 2.395 . S
Gd2313 O2337 2.327 . S
Gd2313 O2338 2.377 . S
Gd2313 O2340 2.448 . S
Gd2313 O2341 2.506 . S
Gd2313 O2342 2.435 . S
Gd2313 O2343 2.717 . S
C2314 O2332 1.240 . S
C2314 O2333 1.240 . S
C2315 Gd2312 2.818 . S
C2315 C2316 1.510 . S
C2315 O2334 1.249 . S
C2315 O2335 1.252 . S
C2316 C2315 1.510 . S
C2316 C2317 1.404 . S
C2316 C2318 1.352 . S
C2317 C2316 1.404 . S
C2317 C2321 1.389 . S
C2317 H2344 0.930 . S
C2318 C2316 1.352 . S
C2318 C2320 1.374 . S
C2318 H2345 0.931 . S
C2319 C2320 1.359 . S
C2319 C2321 1.364 . S
C2320 C2318 1.374 . S
C2320 C2319 1.359 . S
C2320 H2346 0.931 . S
C2321 C2317 1.389 . S
C2321 C2319 1.364 . S
C2321 H2347 0.931 . S
C2322 O2336 1.256 . S
C2322 O2337 1.257 . S
C2323 O2338 1.240 . S
C2323 O2339 1.240 . S
C2324 Gd2313 2.818 . S
C2324 C2325 1.510 . S
C2324 O2340 1.249 . S
C2324 O2341 1.252 . S
C2325 C2324 1.510 . S
C2325 C2326 1.404 . S
C2325 C2327 1.352 . S
C2326 C2325 1.404 . S
C2326 C2330 1.389 . S
C2326 H2348 0.930 . S
C2327 C2325 1.352 . S
C2327 C2329 1.374 . S
C2327 H2349 0.931 . S
C2328 C2329 1.359 . S
C2328 C2330 1.364 . S
C2329 C2327 1.374 . S
C2329 C2328 1.359 . S
C2329 H2350 0.931 . S
C2330 C2326 1.389 . S
C2330 C2328 1.364 . S
C2330 H2351 0.931 . S
C2331 O2342 1.256 . S
C2331 O2343 1.257 . S
O2332 Gd2312 2.377 . S
O2332 C2314 1.240 . S
O2333 Gd2313 2.395 . S
O2333 C2314 1.240 . S
O2334 Gd2312 2.448 . S
O2334 C2315 1.249 . S
O2335 Gd2312 2.506 . S
O2335 C2315 1.252 . S
O2336 Gd2312 2.435 . S
O2336 C2322 1.256 . S
O2337 Gd2312 2.717 . S
O2337 Gd2313 2.327 . S
O2337 C2322 1.257 . S
O2338 Gd2313 2.377 . S
O2338 C2323 1.240 . S
O2339 Gd2312 2.395 . S
O2339 C2323 1.240 . S
O2340 Gd2313 2.448 . S
O2340 C2324 1.249 . S
O2341 Gd2313 2.506 . S
O2341 C2324 1.252 . S
O2342 Gd2313 2.435 . S
O2342 C2331 1.256 . S
O2343 Gd2312 2.327 . S
O2343 Gd2313 2.717 . S
O2343 C2331 1.257 . S
H2344 C2317 0.930 . S
H2345 C2318 0.931 . S
H2346 C2320 0.931 . S
H2347 C2321 0.931 . S
H2348 C2326 0.930 . S
H2349 C2327 0.931 . S
H2350 C2329 0.931 . S
H2351 C2330 0.931 . S
Gd2352 C2355 2.818 . S
Gd2352 O2372 2.377 . S
Gd2352 O2374 2.448 . S
Gd2352 O2375 2.506 . S
Gd2352 O2376 2.435 1_545 S
Gd2352 O2377 2.717 1_554 S
Gd2352 O2379 2.395 . S
Gd2352 O2383 2.327 . S
Gd2353 C2364 2.818 . S
Gd2353 O2373 2.395 . S
Gd2353 O2377 2.327 . S
Gd2353 O2378 2.388 . S
Gd2353 O2380 2.448 . S
Gd2353 O2381 2.506 . S
Gd2353 O2382 2.435 1_556 S
Gd2353 O2383 2.717 1_556 S
C2354 O2372 1.240 . S
C2354 O2373 1.240 1_554 S
C2355 Gd2352 2.818 . S
C2355 C2356 1.510 . S
C2355 O2374 1.249 . S
C2355 O2375 1.252 . S
C2356 C2355 1.510 . S
C2356 C2357 1.404 1_545 S
C2356 C2358 1.352 . S
C2357 C2356 1.404 1_565 S
C2357 C2361 1.389 . S
C2357 H2384 0.930 . S
C2358 C2356 1.352 . S
C2358 C2360 1.374 . S
C2358 H2385 0.931 . S
C2359 C2360 1.359 . S
C2359 C2361 1.364 1_545 S
C2360 C2358 1.374 . S
C2360 C2359 1.359 . S
C2360 H2386 0.931 . S
C2361 C2357 1.389 . S
C2361 C2359 1.364 1_565 S
C2361 H2387 0.931 . S
C2362 O2376 1.256 1_545 S
C2362 O2377 1.257 1_554 S
C2363 O2378 1.216 1_554 S
C2363 O2379 1.240 . S
C2364 Gd2353 2.818 . S
C2364 C2365 1.510 . S
C2364 O2380 1.249 . S
C2364 O2381 1.252 . S
C2365 C2364 1.510 . S
C2365 C2366 1.404 . S
C2365 C2367 1.352 . S
C2366 C2365 1.404 . S
C2366 C2370 1.389 . S
C2366 H2388 0.930 . S
C2367 C2365 1.352 . S
C2367 C2369 1.374 . S
C2367 H2389 0.931 . S
C2368 C2369 1.359 . S
C2368 C2370 1.364 . S
C2369 C2367 1.374 . S
C2369 C2368 1.359 . S
C2369 H2390 0.931 . S
C2370 C2366 1.389 . S
C2370 C2368 1.364 . S
C2370 H2391 0.931 . S
C2371 O2382 1.256 . S
C2371 O2383 1.257 . S
O2372 Gd2352 2.377 . S
O2372 C2354 1.240 . S
O2373 Gd2353 2.395 . S
O2373 C2354 1.240 1_556 S
O2374 Gd2352 2.448 . S
O2374 C2355 1.249 . S
O2375 Gd2352 2.506 . S
O2375 C2355 1.252 . S
O2376 Gd2352 2.435 1_565 S
O2376 C2362 1.256 1_565 S
O2377 Gd2352 2.717 1_556 S
O2377 Gd2353 2.327 . S
O2377 C2362 1.257 1_556 S
O2378 Gd2353 2.388 . S
O2378 C2363 1.216 1_556 S
O2379 Gd2352 2.395 . S
O2379 C2363 1.240 . S
O2380 Gd2353 2.448 . S
O2380 C2364 1.249 . S
O2381 Gd2353 2.506 . S
O2381 C2364 1.252 . S
O2382 Gd2353 2.435 1_554 S
O2382 C2371 1.256 . S
O2383 Gd2352 2.327 . S
O2383 Gd2353 2.717 1_554 S
O2383 C2371 1.257 . S
H2384 C2357 0.930 . S
H2385 C2358 0.931 . S
H2386 C2360 0.931 . S
H2387 C2361 0.931 . S
H2388 C2366 0.930 . S
H2389 C2367 0.931 . S
H2390 C2369 0.931 . S
H2391 C2370 0.931 . S
Gd2392 C2395 2.818 . S
Gd2392 O2412 2.377 . S
Gd2392 O2414 2.448 . S
Gd2392 O2415 2.506 . S
Gd2392 O2416 2.435 . S
Gd2392 O2417 2.717 . S
Gd2392 O2419 2.395 . S
Gd2392 O2423 2.327 . S
Gd2393 C2404 2.818 . S
Gd2393 O2413 2.395 . S
Gd2393 O2417 2.327 . S
Gd2393 O2418 2.377 . S
Gd2393 O2420 2.448 . S
Gd2393 O2421 2.506 . S
Gd2393 O2422 2.435 . S
Gd2393 O2423 2.717 . S
C2394 O2412 1.240 . S
C2394 O2413 1.240 . S
C2395 Gd2392 2.818 . S
C2395 C2396 1.510 . S
C2395 O2414 1.249 . S
C2395 O2415 1.252 . S
C2396 C2395 1.510 . S
C2396 C2397 1.404 . S
C2396 C2398 1.352 . S
C2397 C2396 1.404 . S
C2397 C2401 1.389 . S
C2397 H2424 0.930 . S
C2398 C2396 1.352 . S
C2398 C2400 1.374 . S
C2398 H2425 0.931 . S
C2399 C2400 1.359 . S
C2399 C2401 1.364 . S
C2400 C2398 1.374 . S
C2400 C2399 1.359 . S
C2400 H2426 0.931 . S
C2401 C2397 1.389 . S
C2401 C2399 1.364 . S
C2401 H2427 0.931 . S
C2402 O2416 1.256 . S
C2402 O2417 1.257 . S
C2403 O2418 1.240 . S
C2403 O2419 1.240 . S
C2404 Gd2393 2.818 . S
C2404 C2405 1.510 . S
C2404 O2420 1.249 . S
C2404 O2421 1.252 . S
C2405 C2404 1.510 . S
C2405 C2406 1.404 . S
C2405 C2407 1.352 . S
C2406 C2405 1.404 . S
C2406 C2410 1.389 . S
C2406 H2428 0.930 . S
C2407 C2405 1.352 . S
C2407 C2409 1.374 . S
C2407 H2429 0.931 . S
C2408 C2409 1.359 . S
C2408 C2410 1.364 . S
C2409 C2407 1.374 . S
C2409 C2408 1.359 . S
C2409 H2430 0.931 . S
C2410 C2406 1.389 . S
C2410 C2408 1.364 . S
C2410 H2431 0.931 . S
C2411 O2422 1.256 . S
C2411 O2423 1.257 . S
O2412 Gd2392 2.377 . S
O2412 C2394 1.240 . S
O2413 Gd2393 2.395 . S
O2413 C2394 1.240 . S
O2414 Gd2392 2.448 . S
O2414 C2395 1.249 . S
O2415 Gd2392 2.506 . S
O2415 C2395 1.252 . S
O2416 Gd2392 2.435 . S
O2416 C2402 1.256 . S
O2417 Gd2392 2.717 . S
O2417 Gd2393 2.327 . S
O2417 C2402 1.257 . S
O2418 Gd2393 2.377 . S
O2418 C2403 1.240 . S
O2419 Gd2392 2.395 . S
O2419 C2403 1.240 . S
O2420 Gd2393 2.448 . S
O2420 C2404 1.249 . S
O2421 Gd2393 2.506 . S
O2421 C2404 1.252 . S
O2422 Gd2393 2.435 . S
O2422 C2411 1.256 . S
O2423 Gd2392 2.327 . S
O2423 Gd2393 2.717 . S
O2423 C2411 1.257 . S
H2424 C2397 0.930 . S
H2425 C2398 0.931 . S
H2426 C2400 0.931 . S
H2427 C2401 0.931 . S
H2428 C2406 0.930 . S
H2429 C2407 0.931 . S
H2430 C2409 0.931 . S
H2431 C2410 0.931 . S
Gd2432 C2435 2.852 . S
Gd2432 O2452 2.377 1_554 S
Gd2432 O2454 2.448 . S
Gd2432 O2455 2.532 . S
Gd2432 O2456 2.435 . S
Gd2432 O2457 2.717 . S
Gd2432 O2459 2.395 . S
Gd2432 O2463 2.327 . S
Gd2433 C2444 2.818 . S
Gd2433 O2453 2.395 1_554 S
Gd2433 O2457 2.327 . S
Gd2433 O2458 2.377 . S
Gd2433 O2460 2.448 . S
Gd2433 O2461 2.506 . S
Gd2433 O2462 2.435 . S
Gd2433 O2463 2.717 . S
C2434 O2452 1.240 . S
C2434 O2453 1.240 . S
C2435 Gd2432 2.852 . S
C2435 C2436 1.476 1_554 S
C2435 O2454 1.286 . S
C2435 O2455 1.251 . S
C2436 C2435 1.476 1_556 S
C2436 C2437 1.404 . S
C2436 C2438 1.352 . S
C2437 C2436 1.404 . S
C2437 C2441 1.389 . S
C2437 H2464 0.902 1_556 S
C2438 C2436 1.352 . S
C2438 C2440 1.374 . S
C2438 H2465 0.931 . S
C2439 C2440 1.359 . S
C2439 C2441 1.364 . S
C2440 C2438 1.374 . S
C2440 C2439 1.359 . S
C2440 H2466 0.931 . S
C2441 C2437 1.389 . S
C2441 C2439 1.364 . S
C2441 H2467 0.931 . S
C2442 O2456 1.256 . S
C2442 O2457 1.257 . S
C2443 O2458 1.240 . S
C2443 O2459 1.240 . S
C2444 Gd2433 2.818 . S
C2444 C2445 1.510 . S
C2444 O2460 1.249 . S
C2444 O2461 1.252 . S
C2445 C2444 1.510 . S
C2445 C2446 1.404 . S
C2445 C2447 1.352 . S
C2446 C2445 1.404 . S
C2446 C2450 1.389 . S
C2446 H2468 0.930 . S
C2447 C2445 1.352 . S
C2447 C2449 1.374 . S
C2447 H2469 0.931 . S
C2448 C2449 1.359 . S
C2448 C2450 1.364 . S
C2449 C2447 1.374 . S
C2449 C2448 1.359 . S
C2449 H2470 0.931 . S
C2450 C2446 1.389 . S
C2450 C2448 1.364 . S
C2450 H2471 0.931 . S
C2451 O2462 1.256 . S
C2451 O2463 1.257 . S
O2452 Gd2432 2.377 1_556 S
O2452 C2434 1.240 . S
O2453 Gd2433 2.395 1_556 S
O2453 C2434 1.240 . S
O2454 Gd2432 2.448 . S
O2454 C2435 1.286 . S
O2455 Gd2432 2.532 . S
O2455 C2435 1.251 . S
O2456 Gd2432 2.435 . S
O2456 C2442 1.256 . S
O2457 Gd2432 2.717 . S
O2457 Gd2433 2.327 . S
O2457 C2442 1.257 . S
O2458 Gd2433 2.377 . S
O2458 C2443 1.240 . S
O2459 Gd2432 2.395 . S
O2459 C2443 1.240 . S
O2460 Gd2433 2.448 . S
O2460 C2444 1.249 . S
O2461 Gd2433 2.506 . S
O2461 C2444 1.252 . S
O2462 Gd2433 2.435 . S
O2462 C2451 1.256 . S
O2463 Gd2432 2.327 . S
O2463 Gd2433 2.717 . S
O2463 C2451 1.257 . S
H2464 C2437 0.902 1_554 S
H2465 C2438 0.931 . S
H2466 C2440 0.931 . S
H2467 C2441 0.931 . S
H2468 C2446 0.930 . S
H2469 C2447 0.931 . S
H2470 C2449 0.931 . S
H2471 C2450 0.931 . S
Gd2472 C2475 2.818 . S
Gd2472 O2492 2.377 . S
Gd2472 O2494 2.448 . S
Gd2472 O2495 2.506 . S
Gd2472 O2496 2.435 . S
Gd2472 O2497 2.717 . S
Gd2472 O2499 2.395 . S
Gd2472 O2503 2.327 . S
Gd2473 C2484 2.818 . S
Gd2473 O2493 2.395 . S
Gd2473 O2497 2.327 . S
Gd2473 O2498 2.377 . S
Gd2473 O2500 2.448 . S
Gd2473 O2501 2.506 . S
Gd2473 O2502 2.435 . S
Gd2473 O2503 2.717 . S
C2474 O2492 1.240 . S
C2474 O2493 1.240 . S
C2475 Gd2472 2.818 . S
C2475 C2476 1.510 . S
C2475 O2494 1.249 . S
C2475 O2495 1.252 . S
C2476 C2475 1.510 . S
C2476 C2477 1.404 . S
C2476 C2478 1.352 . S
C2477 C2476 1.404 . S
C2477 C2481 1.389 . S
C2477 H2504 0.930 . S
C2478 C2476 1.352 . S
C2478 C2480 1.374 . S
C2478 H2505 0.931 . S
C2479 C2480 1.359 . S
C2479 C2481 1.364 . S
C2480 C2478 1.374 . S
C2480 C2479 1.359 . S
C2480 H2506 0.931 . S
C2481 C2477 1.389 . S
C2481 C2479 1.364 . S
C2481 H2507 0.931 . S
C2482 O2496 1.256 . S
C2482 O2497 1.257 . S
C2483 O2498 1.240 . S
C2483 O2499 1.240 . S
C2484 Gd2473 2.818 . S
C2484 C2485 1.510 . S
C2484 O2500 1.249 . S
C2484 O2501 1.252 . S
C2485 C2484 1.510 . S
C2485 C2486 1.404 . S
C2485 C2487 1.352 . S
C2486 C2485 1.404 . S
C2486 C2490 1.389 . S
C2486 H2508 0.930 . S
C2487 C2485 1.352 . S
C2487 C2489 1.374 . S
C2487 H2509 0.931 . S
C2488 C2489 1.359 . S
C2488 C2490 1.364 . S
C2489 C2487 1.374 . S
C2489 C2488 1.359 . S
C2489 H2510 0.931 . S
C2490 C2486 1.389 . S
C2490 C2488 1.364 . S
C2490 H2511 0.931 . S
C2491 O2502 1.256 . S
C2491 O2503 1.257 . S
O2492 Gd2472 2.377 . S
O2492 C2474 1.240 . S
O2493 Gd2473 2.395 . S
O2493 C2474 1.240 . S
O2494 Gd2472 2.448 . S
O2494 C2475 1.249 . S
O2495 Gd2472 2.506 . S
O2495 C2475 1.252 . S
O2496 Gd2472 2.435 . S
O2496 C2482 1.256 . S
O2497 Gd2472 2.717 . S
O2497 Gd2473 2.327 . S
O2497 C2482 1.257 . S
O2498 Gd2473 2.377 . S
O2498 C2483 1.240 . S
O2499 Gd2472 2.395 . S
O2499 C2483 1.240 . S
O2500 Gd2473 2.448 . S
O2500 C2484 1.249 . S
O2501 Gd2473 2.506 . S
O2501 C2484 1.252 . S
O2502 Gd2473 2.435 . S
O2502 C2491 1.256 . S
O2503 Gd2472 2.327 . S
O2503 Gd2473 2.717 . S
O2503 C2491 1.257 . S
H2504 C2477 0.930 . S
H2505 C2478 0.931 . S
H2506 C2480 0.931 . S
H2507 C2481 0.931 . S
H2508 C2486 0.930 . S
H2509 C2487 0.931 . S
H2510 C2489 0.931 . S
H2511 C2490 0.931 . S
Gd2512 C2515 2.818 . S
Gd2512 O2532 2.377 . S
Gd2512 O2534 2.448 . S
Gd2512 O2535 2.506 . S
Gd2512 O2536 2.435 . S
Gd2512 O2537 2.717 . S
Gd2512 O2539 2.395 . S
Gd2512 O2543 2.327 . S
Gd2513 C2524 2.818 . S
Gd2513 O2533 2.395 . S
Gd2513 O2537 2.327 . S
Gd2513 O2538 2.377 . S
Gd2513 O2540 2.448 . S
Gd2513 O2541 2.506 . S
Gd2513 O2542 2.435 . S
Gd2513 O2543 2.717 . S
C2514 O2532 1.240 . S
C2514 O2533 1.240 . S
C2515 Gd2512 2.818 . S
C2515 C2516 1.510 . S
C2515 O2534 1.249 . S
C2515 O2535 1.252 . S
C2516 C2515 1.510 . S
C2516 C2517 1.404 . S
C2516 C2518 1.358 1_455 S
C2517 C2516 1.404 . S
C2517 C2521 1.389 . S
C2517 H2544 0.930 . S
C2518 C2516 1.358 1_655 S
C2518 C2520 1.369 . S
C2518 H2545 0.918 . S
C2519 C2520 1.359 . S
C2519 C2521 1.364 1_655 S
C2520 C2518 1.369 . S
C2520 C2519 1.359 . S
C2520 H2546 0.931 . S
C2521 C2517 1.389 . S
C2521 C2519 1.364 1_455 S
C2521 H2547 0.931 . S
C2522 O2536 1.256 . S
C2522 O2537 1.257 . S
C2523 O2538 1.240 . S
C2523 O2539 1.240 . S
C2524 Gd2513 2.818 . S
C2524 C2525 1.510 . S
C2524 O2540 1.249 . S
C2524 O2541 1.252 . S
C2525 C2524 1.510 . S
C2525 C2526 1.404 . S
C2525 C2527 1.352 . S
C2526 C2525 1.404 . S
C2526 C2530 1.389 . S
C2526 H2548 0.930 . S
C2527 C2525 1.352 . S
C2527 C2529 1.374 . S
C2527 H2549 0.931 . S
C2528 C2529 1.359 . S
C2528 C2530 1.364 . S
C2529 C2527 1.374 . S
C2529 C2528 1.359 . S
C2529 H2550 0.931 . S
C2530 C2526 1.389 . S
C2530 C2528 1.364 . S
C2530 H2551 0.931 . S
C2531 O2542 1.256 . S
C2531 O2543 1.257 . S
O2532 Gd2512 2.377 . S
O2532 C2514 1.240 . S
O2533 Gd2513 2.395 . S
O2533 C2514 1.240 . S
O2534 Gd2512 2.448 . S
O2534 C2515 1.249 . S
O2535 Gd2512 2.506 . S
O2535 C2515 1.252 . S
O2536 Gd2512 2.435 . S
O2536 C2522 1.256 . S
O2537 Gd2512 2.717 . S
O2537 Gd2513 2.327 . S
O2537 C2522 1.257 . S
O2538 Gd2513 2.377 . S
O2538 C2523 1.240 . S
O2539 Gd2512 2.395 . S
O2539 C2523 1.240 . S
O2540 Gd2513 2.448 . S
O2540 C2524 1.249 . S
O2541 Gd2513 2.506 . S
O2541 C2524 1.252 . S
O2542 Gd2513 2.435 . S
O2542 C2531 1.256 . S
O2543 Gd2512 2.327 . S
O2543 Gd2513 2.717 . S
O2543 C2531 1.257 . S
H2544 C2517 0.930 . S
H2545 C2518 0.918 . S
H2546 C2520 0.931 . S
H2547 C2521 0.931 . S
H2548 C2526 0.930 . S
H2549 C2527 0.931 . S
H2550 C2529 0.931 . S
H2551 C2530 0.931 . S
Gd2552 C2555 2.818 . S
Gd2552 O2572 2.377 . S
Gd2552 O2574 2.448 . S
Gd2552 O2575 2.506 . S
Gd2552 O2576 2.435 . S
Gd2552 O2577 2.717 . S
Gd2552 O2579 2.395 . S
Gd2552 O2583 2.327 . S
Gd2553 C2564 2.818 . S
Gd2553 O2573 2.395 . S
Gd2553 O2577 2.327 . S
Gd2553 O2578 2.377 . S
Gd2553 O2580 2.448 . S
Gd2553 O2581 2.506 . S
Gd2553 O2582 2.435 . S
Gd2553 O2583 2.717 . S
C2554 O2572 1.240 . S
C2554 O2573 1.240 . S
C2555 Gd2552 2.818 . S
C2555 C2556 1.510 . S
C2555 O2574 1.249 . S
C2555 O2575 1.252 . S
C2556 C2555 1.510 . S
C2556 C2557 1.404 . S
C2556 C2558 1.352 . S
C2557 C2556 1.404 . S
C2557 C2561 1.389 . S
C2557 H2584 0.930 . S
C2558 C2556 1.352 . S
C2558 C2560 1.374 . S
C2558 H2585 0.931 . S
C2559 C2560 1.359 . S
C2559 C2561 1.364 . S
C2560 C2558 1.374 . S
C2560 C2559 1.359 . S
C2560 H2586 0.931 . S
C2561 C2557 1.389 . S
C2561 C2559 1.364 . S
C2561 H2587 0.931 . S
C2562 O2576 1.256 . S
C2562 O2577 1.257 . S
C2563 O2578 1.240 . S
C2563 O2579 1.240 . S
C2564 Gd2553 2.818 . S
C2564 C2565 1.510 . S
C2564 O2580 1.249 . S
C2564 O2581 1.252 . S
C2565 C2564 1.510 . S
C2565 C2566 1.404 . S
C2565 C2567 1.352 . S
C2566 C2565 1.404 . S
C2566 C2570 1.389 . S
C2566 H2588 0.930 . S
C2567 C2565 1.352 . S
C2567 C2569 1.374 . S
C2567 H2589 0.931 . S
C2568 C2569 1.359 . S
C2568 C2570 1.364 . S
C2569 C2567 1.374 . S
C2569 C2568 1.359 . S
C2569 H2590 0.931 . S
C2570 C2566 1.389 . S
C2570 C2568 1.364 . S
C2570 H2591 0.931 . S
C2571 O2582 1.256 . S
C2571 O2583 1.257 . S
O2572 Gd2552 2.377 . S
O2572 C2554 1.240 . S
O2573 Gd2553 2.395 . S
O2573 C2554 1.240 . S
O2574 Gd2552 2.448 . S
O2574 C2555 1.249 . S
O2575 Gd2552 2.506 . S
O2575 C2555 1.252 . S
O2576 Gd2552 2.435 . S
O2576 C2562 1.256 . S
O2577 Gd2552 2.717 . S
O2577 Gd2553 2.327 . S
O2577 C2562 1.257 . S
O2578 Gd2553 2.377 . S
O2578 C2563 1.240 . S
O2579 Gd2552 2.395 . S
O2579 C2563 1.240 . S
O2580 Gd2553 2.448 . S
O2580 C2564 1.249 . S
O2581 Gd2553 2.506 . S
O2581 C2564 1.252 . S
O2582 Gd2553 2.435 . S
O2582 C2571 1.256 . S
O2583 Gd2552 2.327 . S
O2583 Gd2553 2.717 . S
O2583 C2571 1.257 . S
H2584 C2557 0.930 . S
H2585 C2558 0.931 . S
H2586 C2560 0.931 . S
H2587 C2561 0.931 . S
H2588 C2566 0.930 . S
H2589 C2567 0.931 . S
H2590 C2569 0.931 . S
H2591 C2570 0.931 . S
Gd2592 C2595 2.818 . S
Gd2592 O2612 2.377 . S
Gd2592 O2614 2.448 . S
Gd2592 O2615 2.506 . S
Gd2592 O2616 2.435 . S
Gd2592 O2617 2.717 . S
Gd2592 O2619 2.395 . S
Gd2592 O2623 2.327 . S
Gd2593 C2604 2.818 . S
Gd2593 O2613 2.395 . S
Gd2593 O2617 2.327 . S
Gd2593 O2618 2.377 . S
Gd2593 O2620 2.448 . S
Gd2593 O2621 2.506 . S
Gd2593 O2622 2.435 . S
Gd2593 O2623 2.717 . S
C2594 O2612 1.240 . S
C2594 O2613 1.240 . S
C2595 Gd2592 2.818 . S
C2595 C2596 1.510 . S
C2595 O2614 1.249 . S
C2595 O2615 1.252 . S
C2596 C2595 1.510 . S
C2596 C2597 1.404 . S
C2596 C2598 1.352 . S
C2597 C2596 1.404 . S
C2597 C2601 1.389 . S
C2597 H2624 0.930 . S
C2598 C2596 1.352 . S
C2598 C2600 1.374 . S
C2598 H2625 0.931 . S
C2599 C2600 1.359 . S
C2599 C2601 1.364 . S
C2600 C2598 1.374 . S
C2600 C2599 1.359 . S
C2600 H2626 0.931 . S
C2601 C2597 1.389 . S
C2601 C2599 1.364 . S
C2601 H2627 0.931 . S
C2602 O2616 1.256 . S
C2602 O2617 1.257 . S
C2603 O2618 1.240 . S
C2603 O2619 1.240 . S
C2604 Gd2593 2.818 . S
C2604 C2605 1.510 . S
C2604 O2620 1.249 . S
C2604 O2621 1.252 . S
C2605 C2604 1.510 . S
C2605 C2606 1.404 . S
C2605 C2607 1.352 . S
C2606 C2605 1.404 . S
C2606 C2610 1.389 . S
C2606 H2628 0.930 . S
C2607 C2605 1.352 . S
C2607 C2609 1.374 . S
C2607 H2629 0.931 . S
C2608 C2609 1.359 . S
C2608 C2610 1.364 . S
C2609 C2607 1.374 . S
C2609 C2608 1.359 . S
C2609 H2630 0.931 . S
C2610 C2606 1.389 . S
C2610 C2608 1.364 . S
C2610 H2631 0.931 . S
C2611 O2622 1.256 . S
C2611 O2623 1.257 . S
O2612 Gd2592 2.377 . S
O2612 C2594 1.240 . S
O2613 Gd2593 2.395 . S
O2613 C2594 1.240 . S
O2614 Gd2592 2.448 . S
O2614 C2595 1.249 . S
O2615 Gd2592 2.506 . S
O2615 C2595 1.252 . S
O2616 Gd2592 2.435 . S
O2616 C2602 1.256 . S
O2617 Gd2592 2.717 . S
O2617 Gd2593 2.327 . S
O2617 C2602 1.257 . S
O2618 Gd2593 2.377 . S
O2618 C2603 1.240 . S
O2619 Gd2592 2.395 . S
O2619 C2603 1.240 . S
O2620 Gd2593 2.448 . S
O2620 C2604 1.249 . S
O2621 Gd2593 2.506 . S
O2621 C2604 1.252 . S
O2622 Gd2593 2.435 . S
O2622 C2611 1.256 . S
O2623 Gd2592 2.327 . S
O2623 Gd2593 2.717 . S
O2623 C2611 1.257 . S
H2624 C2597 0.930 . S
H2625 C2598 0.931 . S
H2626 C2600 0.931 . S
H2627 C2601 0.931 . S
H2628 C2606 0.930 . S
H2629 C2607 0.931 . S
H2630 C2609 0.931 . S
H2631 C2610 0.931 . S
Gd2632 C2635 2.818 . S
Gd2632 O2652 2.377 . S
Gd2632 O2654 2.448 . S
Gd2632 O2655 2.506 . S
Gd2632 O2656 2.435 . S
Gd2632 O2657 2.717 . S
Gd2632 O2659 2.395 . S
Gd2632 O2663 2.327 . S
Gd2633 C2644 2.818 . S
Gd2633 O2653 2.395 . S
Gd2633 O2657 2.327 . S
Gd2633 O2658 2.377 . S
Gd2633 O2660 2.448 . S
Gd2633 O2661 2.506 . S
Gd2633 O2662 2.435 . S
Gd2633 O2663 2.717 . S
C2634 O2652 1.240 . S
C2634 O2653 1.240 . S
C2635 Gd2632 2.818 . S
C2635 C2636 1.510 . S
C2635 O2654 1.249 . S
C2635 O2655 1.252 . S
C2636 C2635 1.510 . S
C2636 C2637 1.404 . S
C2636 C2638 1.352 . S
C2637 C2636 1.404 . S
C2637 C2641 1.389 . S
C2637 H2664 0.930 . S
C2638 C2636 1.352 . S
C2638 C2640 1.374 . S
C2638 H2665 0.931 . S
C2639 C2640 1.359 . S
C2639 C2641 1.364 . S
C2640 C2638 1.374 . S
C2640 C2639 1.359 . S
C2640 H2666 0.931 . S
C2641 C2637 1.389 . S
C2641 C2639 1.364 . S
C2641 H2667 0.931 . S
C2642 O2656 1.256 . S
C2642 O2657 1.257 . S
C2643 O2658 1.240 . S
C2643 O2659 1.240 . S
C2644 Gd2633 2.818 . S
C2644 C2645 1.510 . S
C2644 O2660 1.249 . S
C2644 O2661 1.252 . S
C2645 C2644 1.510 . S
C2645 C2646 1.404 . S
C2645 C2647 1.352 . S
C2646 C2645 1.404 . S
C2646 C2650 1.389 . S
C2646 H2668 0.930 . S
C2647 C2645 1.352 . S
C2647 C2649 1.374 . S
C2647 H2669 0.931 . S
C2648 C2649 1.359 . S
C2648 C2650 1.364 . S
C2649 C2647 1.374 . S
C2649 C2648 1.359 . S
C2649 H2670 0.931 . S
C2650 C2646 1.389 . S
C2650 C2648 1.364 . S
C2650 H2671 0.931 . S
C2651 O2662 1.256 . S
C2651 O2663 1.257 . S
O2652 Gd2632 2.377 . S
O2652 C2634 1.240 . S
O2653 Gd2633 2.395 . S
O2653 C2634 1.240 . S
O2654 Gd2632 2.448 . S
O2654 C2635 1.249 . S
O2655 Gd2632 2.506 . S
O2655 C2635 1.252 . S
O2656 Gd2632 2.435 . S
O2656 C2642 1.256 . S
O2657 Gd2632 2.717 . S
O2657 Gd2633 2.327 . S
O2657 C2642 1.257 . S
O2658 Gd2633 2.377 . S
O2658 C2643 1.240 . S
O2659 Gd2632 2.395 . S
O2659 C2643 1.240 . S
O2660 Gd2633 2.448 . S
O2660 C2644 1.249 . S
O2661 Gd2633 2.506 . S
O2661 C2644 1.252 . S
O2662 Gd2633 2.435 . S
O2662 C2651 1.256 . S
O2663 Gd2632 2.327 . S
O2663 Gd2633 2.717 . S
O2663 C2651 1.257 . S
H2664 C2637 0.930 . S
H2665 C2638 0.931 . S
H2666 C2640 0.931 . S
H2667 C2641 0.931 . S
H2668 C2646 0.930 . S
H2669 C2647 0.931 . S
H2670 C2649 0.931 . S
H2671 C2650 0.931 . S
Gd2672 C2675 2.818 . S
Gd2672 O2692 2.377 . S
Gd2672 O2694 2.448 . S
Gd2672 O2695 2.506 . S
Gd2672 O2696 2.435 . S
Gd2672 O2697 2.717 . S
Gd2672 O2699 2.395 . S
Gd2672 O2703 2.327 . S
Gd2673 C2684 2.818 . S
Gd2673 O2693 2.395 . S
Gd2673 O2697 2.327 . S
Gd2673 O2698 2.377 . S
Gd2673 O2700 2.448 . S
Gd2673 O2701 2.506 . S
Gd2673 O2702 2.435 . S
Gd2673 O2703 2.717 . S
C2674 O2692 1.240 . S
C2674 O2693 1.240 . S
C2675 Gd2672 2.818 . S
C2675 C2676 1.510 . S
C2675 O2694 1.249 . S
C2675 O2695 1.252 . S
C2676 C2675 1.510 . S
C2676 C2677 1.404 . S
C2676 C2678 1.352 . S
C2677 C2676 1.404 . S
C2677 C2681 1.389 . S
C2677 H2704 0.930 . S
C2678 C2676 1.352 . S
C2678 C2680 1.374 . S
C2678 H2705 0.931 . S
C2679 C2680 1.359 . S
C2679 C2681 1.364 . S
C2680 C2678 1.374 . S
C2680 C2679 1.359 . S
C2680 H2706 0.931 . S
C2681 C2677 1.389 . S
C2681 C2679 1.364 . S
C2681 H2707 0.931 . S
C2682 O2696 1.256 . S
C2682 O2697 1.257 . S
C2683 O2698 1.240 . S
C2683 O2699 1.240 . S
C2684 Gd2673 2.818 . S
C2684 C2685 1.510 . S
C2684 O2700 1.249 . S
C2684 O2701 1.252 . S
C2685 C2684 1.510 . S
C2685 C2686 1.404 . S
C2685 C2687 1.352 . S
C2686 C2685 1.404 . S
C2686 C2690 1.389 . S
C2686 H2708 0.930 . S
C2687 C2685 1.352 . S
C2687 C2689 1.374 . S
C2687 H2709 0.931 . S
C2688 C2689 1.359 . S
C2688 C2690 1.364 . S
C2689 C2687 1.374 . S
C2689 C2688 1.359 . S
C2689 H2710 0.931 . S
C2690 C2686 1.389 . S
C2690 C2688 1.364 . S
C2690 H2711 0.931 . S
C2691 O2702 1.256 . S
C2691 O2703 1.257 . S
O2692 Gd2672 2.377 . S
O2692 C2674 1.240 . S
O2693 Gd2673 2.395 . S
O2693 C2674 1.240 . S
O2694 Gd2672 2.448 . S
O2694 C2675 1.249 . S
O2695 Gd2672 2.506 . S
O2695 C2675 1.252 . S
O2696 Gd2672 2.435 . S
O2696 C2682 1.256 . S
O2697 Gd2672 2.717 . S
O2697 Gd2673 2.327 . S
O2697 C2682 1.257 . S
O2698 Gd2673 2.377 . S
O2698 C2683 1.240 . S
O2699 Gd2672 2.395 . S
O2699 C2683 1.240 . S
O2700 Gd2673 2.448 . S
O2700 C2684 1.249 . S
O2701 Gd2673 2.506 . S
O2701 C2684 1.252 . S
O2702 Gd2673 2.435 . S
O2702 C2691 1.256 . S
O2703 Gd2672 2.327 . S
O2703 Gd2673 2.717 . S
O2703 C2691 1.257 . S
H2704 C2677 0.930 . S
H2705 C2678 0.931 . S
H2706 C2680 0.931 . S
H2707 C2681 0.931 . S
H2708 C2686 0.930 . S
H2709 C2687 0.931 . S
H2710 C2689 0.931 . S
H2711 C2690 0.931 . S
Gd2712 C2715 2.818 1_554 S
Gd2712 O2732 2.377 1_554 S
Gd2712 O2734 2.448 1_554 S
Gd2712 O2735 2.506 . S
Gd2712 O2736 2.435 1_554 S
Gd2712 O2737 2.717 1_554 S
Gd2712 O2739 2.395 . S
Gd2712 O2743 2.327 . S
Gd2713 C2724 2.818 1_455 S
Gd2713 O2733 2.395 . S
Gd2713 O2737 2.327 1_554 S
Gd2713 O2738 2.377 . S
Gd2713 O2740 2.448 1_455 S
Gd2713 O2741 2.506 1_455 S
Gd2713 O2742 2.435 . S
Gd2713 O2743 2.717 . S
C2714 O2732 1.240 1_554 S
C2714 O2733 1.240 . S
C2715 Gd2712 2.818 1_556 S
C2715 C2716 1.510 . S
C2715 O2734 1.249 . S
C2715 O2735 1.252 1_556 S
C2716 C2715 1.510 . S
C2716 C2717 1.404 . S
C2716 C2718 1.352 1_556 S
C2717 C2716 1.404 . S
C2717 C2721 1.389 . S
C2717 H2744 0.930 . S
C2718 C2716 1.352 1_554 S
C2718 C2720 1.374 . S
C2718 H2745 0.931 . S
C2719 C2720 1.359 1_556 S
C2719 C2721 1.364 . S
C2720 C2718 1.374 . S
C2720 C2719 1.359 1_554 S
C2720 H2746 0.931 . S
C2721 C2717 1.389 . S
C2721 C2719 1.364 . S
C2721 H2747 0.931 . S
C2722 O2736 1.256 . S
C2722 O2737 1.257 . S
C2723 O2738 1.240 . S
C2723 O2739 1.240 . S
C2724 Gd2713 2.818 1_655 S
C2724 C2725 1.510 . S
C2724 O2740 1.249 . S
C2724 O2741 1.252 . S
C2725 C2724 1.510 . S
C2725 C2726 1.404 . S
C2725 C2727 1.352 . S
C2726 C2725 1.404 . S
C2726 C2730 1.389 . S
C2726 H2748 0.930 . S
C2727 C2725 1.352 . S
C2727 C2729 1.374 . S
C2727 H2749 0.931 . S
C2728 C2729 1.359 . S
C2728 C2730 1.364 . S
C2729 C2727 1.374 . S
C2729 C2728 1.359 . S
C2729 H2750 0.931 . S
C2730 C2726 1.389 . S
C2730 C2728 1.364 . S
C2730 H2751 0.931 . S
C2731 O2742 1.256 . S
C2731 O2743 1.257 . S
O2732 Gd2712 2.377 1_556 S
O2732 C2714 1.240 1_556 S
O2733 Gd2713 2.395 . S
O2733 C2714 1.240 . S
O2734 Gd2712 2.448 1_556 S
O2734 C2715 1.249 . S
O2735 Gd2712 2.506 . S
O2735 C2715 1.252 1_554 S
O2736 Gd2712 2.435 1_556 S
O2736 C2722 1.256 . S
O2737 Gd2712 2.717 1_556 S
O2737 Gd2713 2.327 1_556 S
O2737 C2722 1.257 . S
O2738 Gd2713 2.377 . S
O2738 C2723 1.240 . S
O2739 Gd2712 2.395 . S
O2739 C2723 1.240 . S
O2740 Gd2713 2.448 1_655 S
O2740 C2724 1.249 . S
O2741 Gd2713 2.506 1_655 S
O2741 C2724 1.252 . S
O2742 Gd2713 2.435 . S
O2742 C2731 1.256 . S
O2743 Gd2712 2.327 . S
O2743 Gd2713 2.717 . S
O2743 C2731 1.257 . S
H2744 C2717 0.930 . S
H2745 C2718 0.931 . S
H2746 C2720 0.931 . S
H2747 C2721 0.931 . S
H2748 C2726 0.930 . S
H2749 C2727 0.931 . S
H2750 C2729 0.931 . S
H2751 C2730 0.931 . S
H2752 C2770 0.951 . S
H2753 C2772 0.951 . S
H2754 C2774 0.950 . S
H2755 C2775 0.950 . S
H2756 C2777 0.927 1_655 S
H2757 C2780 0.950 . S
H2758 C2781 0.950 . S
H2759 C2783 0.950 . S
H2760 C2784 0.950 . S
H2761 C2785 0.951 . S
H2762 C2787 0.951 . S
H2763 C2789 0.950 . S
H2764 C2790 0.950 . S
H2765 C2792 0.950 1_554 S
H2766 C2795 0.950 . S
H2767 C2796 0.950 . S
H2768 C2798 0.950 . S
H2769 C2799 0.975 . S
C2770 H2752 0.951 . S
C2770 C2771 1.366 . S
C2770 C2772 1.388 . S
C2771 C2770 1.366 . S
C2771 C2775 1.385 . S
C2772 H2753 0.951 . S
C2772 C2770 1.388 . S
C2772 C2773 1.366 . S
C2773 C2772 1.366 . S
C2773 C2774 1.414 . S
C2773 C2776 1.499 . S
C2774 H2754 0.950 . S
C2774 C2773 1.414 . S
C2774 C2775 1.374 . S
C2775 H2755 0.950 . S
C2775 C2771 1.385 . S
C2775 C2774 1.374 . S
C2776 C2773 1.499 . S
C2776 C2777 1.373 . S
C2776 C2778 1.389 . S
C2777 H2756 0.927 1_455 S
C2777 C2776 1.373 . S
C2777 C2793 1.377 . S
C2778 C2776 1.389 . S
C2778 C2779 1.524 . S
C2778 C2792 1.377 . S
C2779 C2778 1.524 . S
C2779 C2780 1.397 . S
C2779 C2784 1.363 1_556 S
C2780 H2757 0.950 . S
C2780 C2779 1.397 . S
C2780 C2781 1.334 . S
C2781 H2758 0.950 . S
C2781 C2780 1.334 . S
C2781 C2782 1.287 1_556 S
C2782 C2781 1.287 1_554 S
C2782 C2783 1.524 . S
C2782 H2801 0.913 . S
C2783 H2759 0.950 . S
C2783 C2782 1.524 . S
C2783 C2784 1.415 . S
C2784 H2760 0.950 . S
C2784 C2779 1.363 1_554 S
C2784 C2783 1.415 . S
C2785 H2761 0.951 . S
C2785 C2786 1.360 1_556 S
C2785 C2787 1.388 . S
C2786 C2785 1.360 1_554 S
C2786 C2790 1.388 . S
C2787 H2762 0.951 . S
C2787 C2785 1.388 . S
C2787 C2788 1.366 . S
C2788 C2787 1.366 . S
C2788 C2789 1.414 1_556 S
C2788 C2791 1.499 . S
C2789 H2763 0.950 . S
C2789 C2788 1.414 1_554 S
C2789 C2790 1.374 . S
C2790 H2764 0.950 . S
C2790 C2786 1.388 . S
C2790 C2789 1.374 . S
C2791 C2788 1.499 . S
C2791 C2792 1.373 . S
C2791 C2793 1.389 . S
C2792 H2765 0.950 1_556 S
C2792 C2778 1.377 . S
C2792 C2791 1.373 . S
C2793 C2777 1.377 . S
C2793 C2791 1.389 . S
C2793 C2794 1.524 1_455 S
C2794 C2793 1.524 1_655 S
C2794 C2795 1.397 . S
C2794 C2799 1.363 . S
C2795 H2766 0.950 . S
C2795 C2794 1.397 . S
C2795 C2796 1.334 . S
C2796 H2767 0.950 . S
C2796 C2795 1.334 . S
C2796 C2797 1.287 . S
C2797 C2796 1.287 . S
C2797 C2798 1.524 . S
C2797 H2800 0.999 . S
C2798 H2768 0.950 . S
C2798 C2797 1.524 . S
C2798 C2799 1.415 . S
C2799 H2769 0.975 . S
C2799 C2794 1.363 . S
C2799 C2798 1.415 . S
H2800 C2797 0.999 . S
H2801 C2782 0.913 . S
H2802 C2820 0.951 . S
H2803 C2822 0.951 . S
H2804 C2824 0.950 . S
H2805 C2825 0.950 . S
H2806 C2827 0.950 . S
H2807 C2830 0.950 . S
H2808 C2831 0.950 . S
H2809 C2833 0.950 . S
H2810 C2834 0.950 . S
H2811 C2835 0.951 . S
H2812 C2837 0.951 . S
H2813 C2839 0.950 . S
H2814 C2840 0.950 . S
H2815 C2842 0.950 . S
H2816 C2845 0.950 . S
H2817 C2846 0.950 . S
H2818 C2848 0.950 . S
H2819 C2849 0.950 . S
C2820 H2802 0.951 . S
C2820 C2821 1.366 . S
C2820 C2822 1.388 . S
C2821 C2820 1.366 . S
C2821 C2825 1.385 . S
C2822 H2803 0.951 . S
C2822 C2820 1.388 . S
C2822 C2823 1.366 . S
C2823 C2822 1.366 . S
C2823 C2824 1.414 . S
C2823 C2826 1.499 . S
C2824 H2804 0.950 . S
C2824 C2823 1.414 . S
C2824 C2825 1.374 . S
C2825 H2805 0.950 . S
C2825 C2821 1.385 . S
C2825 C2824 1.374 . S
C2826 C2823 1.499 . S
C2826 C2827 1.373 . S
C2826 C2828 1.389 . S
C2827 H2806 0.950 . S
C2827 C2826 1.373 . S
C2827 C2843 1.377 . S
C2828 C2826 1.389 . S
C2828 C2829 1.524 . S
C2828 C2842 1.377 . S
C2829 C2828 1.524 . S
C2829 C2830 1.397 . S
C2829 C2834 1.363 . S
C2830 H2807 0.950 . S
C2830 C2829 1.397 . S
C2830 C2831 1.334 . S
C2831 H2808 0.950 . S
C2831 C2830 1.334 . S
C2831 C2832 1.287 . S
C2832 C2831 1.287 . S
C2832 C2833 1.524 . S
C2832 H2851 0.913 . S
C2833 H2809 0.950 . S
C2833 C2832 1.524 . S
C2833 C2834 1.415 . S
C2834 H2810 0.950 . S
C2834 C2829 1.363 . S
C2834 C2833 1.415 . S
C2835 H2811 0.951 . S
C2835 C2836 1.366 . S
C2835 C2837 1.388 . S
C2836 C2835 1.366 . S
C2836 C2840 1.385 . S
C2837 H2812 0.951 . S
C2837 C2835 1.388 . S
C2837 C2838 1.366 . S
C2838 C2837 1.366 . S
C2838 C2839 1.414 . S
C2838 C2841 1.499 . S
C2839 H2813 0.950 . S
C2839 C2838 1.414 . S
C2839 C2840 1.374 . S
C2840 H2814 0.950 . S
C2840 C2836 1.385 . S
C2840 C2839 1.374 . S
C2841 C2838 1.499 . S
C2841 C2842 1.373 . S
C2841 C2843 1.389 . S
C2842 H2815 0.950 . S
C2842 C2828 1.377 . S
C2842 C2841 1.373 . S
C2843 C2827 1.377 . S
C2843 C2841 1.389 . S
C2843 C2844 1.524 . S
C2844 C2843 1.524 . S
C2844 C2845 1.397 . S
C2844 C2849 1.363 . S
C2845 H2816 0.950 . S
C2845 C2844 1.397 . S
C2845 C2846 1.334 . S
C2846 H2817 0.950 . S
C2846 C2845 1.334 . S
C2846 C2847 1.287 . S
C2847 C2846 1.287 . S
C2847 C2848 1.524 . S
C2847 H2850 0.999 . S
C2848 H2818 0.950 . S
C2848 C2847 1.524 . S
C2848 C2849 1.415 . S
C2849 H2819 0.950 . S
C2849 C2844 1.363 . S
C2849 C2848 1.415 . S
H2850 C2847 0.999 . S
H2851 C2832 0.913 . S
H2852 C2870 0.951 . S
H2853 C2872 0.951 . S
H2854 C2874 0.950 . S
H2855 C2875 0.950 . S
H2856 C2877 0.950 . S
H2857 C2880 0.950 . S
H2858 C2881 0.950 . S
H2859 C2883 0.950 . S
H2860 C2884 0.950 . S
H2861 C2885 0.951 . S
H2862 C2887 0.951 . S
H2863 C2889 0.950 . S
H2864 C2890 0.950 . S
H2865 C2892 0.950 . S
H2866 C2895 0.950 . S
H2867 C2896 0.950 . S
H2868 C2898 0.950 . S
H2869 C2899 0.950 . S
C2870 H2852 0.951 . S
C2870 C2871 1.366 . S
C2870 C2872 1.388 . S
C2871 C2870 1.366 . S
C2871 C2875 1.385 . S
C2872 H2853 0.951 . S
C2872 C2870 1.388 . S
C2872 C2873 1.366 . S
C2873 C2872 1.366 . S
C2873 C2874 1.414 . S
C2873 C2876 1.499 . S
C2874 H2854 0.950 . S
C2874 C2873 1.414 . S
C2874 C2875 1.374 . S
C2875 H2855 0.950 . S
C2875 C2871 1.385 . S
C2875 C2874 1.374 . S
C2876 C2873 1.499 . S
C2876 C2877 1.373 . S
C2876 C2878 1.389 . S
C2877 H2856 0.950 . S
C2877 C2876 1.373 . S
C2877 C2893 1.377 . S
C2878 C2876 1.389 . S
C2878 C2879 1.524 . S
C2878 C2892 1.377 . S
C2879 C2878 1.524 . S
C2879 C2880 1.397 . S
C2879 C2884 1.363 . S
C2880 H2857 0.950 . S
C2880 C2879 1.397 . S
C2880 C2881 1.334 . S
C2881 H2858 0.950 . S
C2881 C2880 1.334 . S
C2881 C2882 1.287 . S
C2882 C2881 1.287 . S
C2882 C2883 1.524 . S
C2882 H2901 0.913 . S
C2883 H2859 0.950 . S
C2883 C2882 1.524 . S
C2883 C2884 1.415 . S
C2884 H2860 0.950 . S
C2884 C2879 1.363 . S
C2884 C2883 1.415 . S
C2885 H2861 0.951 . S
C2885 C2886 1.366 . S
C2885 C2887 1.388 . S
C2886 C2885 1.366 . S
C2886 C2890 1.385 . S
C2887 H2862 0.951 . S
C2887 C2885 1.388 . S
C2887 C2888 1.366 . S
C2888 C2887 1.366 . S
C2888 C2889 1.414 . S
C2888 C2891 1.499 . S
C2889 H2863 0.950 . S
C2889 C2888 1.414 . S
C2889 C2890 1.374 . S
C2890 H2864 0.950 . S
C2890 C2886 1.385 . S
C2890 C2889 1.374 . S
C2891 C2888 1.499 . S
C2891 C2892 1.373 . S
C2891 C2893 1.389 . S
C2892 H2865 0.950 . S
C2892 C2878 1.377 . S
C2892 C2891 1.373 . S
C2893 C2877 1.377 . S
C2893 C2891 1.389 . S
C2893 C2894 1.524 . S
C2894 C2893 1.524 . S
C2894 C2895 1.397 . S
C2894 C2899 1.363 . S
C2895 H2866 0.950 . S
C2895 C2894 1.397 . S
C2895 C2896 1.334 . S
C2896 H2867 0.950 . S
C2896 C2895 1.334 . S
C2896 C2897 1.287 . S
C2897 C2896 1.287 . S
C2897 C2898 1.524 . S
C2897 H2900 0.999 . S
C2898 H2868 0.950 . S
C2898 C2897 1.524 . S
C2898 C2899 1.415 . S
C2899 H2869 0.950 . S
C2899 C2894 1.363 . S
C2899 C2898 1.415 . S
H2900 C2897 0.999 . S
H2901 C2882 0.913 . S
H2902 C2920 0.951 . S
H2903 C2922 0.951 . S
H2904 C2924 0.950 . S
H2905 C2925 0.950 . S
H2906 C2927 0.950 . S
H2907 C2930 0.950 . S
H2908 C2931 0.950 . S
H2909 C2933 0.950 . S
H2910 C2934 0.950 . S
H2911 C2935 0.951 . S
H2912 C2937 0.951 . S
H2913 C2939 0.950 . S
H2914 C2940 0.950 . S
H2915 C2942 0.950 . S
H2916 C2945 0.950 . S
H2917 C2946 0.950 . S
H2918 C2948 0.950 . S
H2919 C2949 0.950 . S
C2920 H2902 0.951 . S
C2920 C2921 1.366 . S
C2920 C2922 1.388 . S
C2921 C2920 1.366 . S
C2921 C2925 1.385 . S
C2922 H2903 0.951 . S
C2922 C2920 1.388 . S
C2922 C2923 1.366 . S
C2923 C2922 1.366 . S
C2923 C2924 1.414 . S
C2923 C2926 1.499 . S
C2924 H2904 0.950 . S
C2924 C2923 1.414 . S
C2924 C2925 1.374 . S
C2925 H2905 0.950 . S
C2925 C2921 1.385 . S
C2925 C2924 1.374 . S
C2926 C2923 1.499 . S
C2926 C2927 1.373 . S
C2926 C2928 1.389 . S
C2927 H2906 0.950 . S
C2927 C2926 1.373 . S
C2927 C2943 1.377 . S
C2928 C2926 1.389 . S
C2928 C2929 1.524 . S
C2928 C2942 1.377 . S
C2929 C2928 1.524 . S
C2929 C2930 1.397 . S
C2929 C2934 1.363 . S
C2930 H2907 0.950 . S
C2930 C2929 1.397 . S
C2930 C2931 1.334 . S
C2931 H2908 0.950 . S
C2931 C2930 1.334 . S
C2931 C2932 1.287 . S
C2932 C2931 1.287 . S
C2932 C2933 1.524 . S
C2932 H2951 0.913 . S
C2933 H2909 0.950 . S
C2933 C2932 1.524 . S
C2933 C2934 1.415 . S
C2934 H2910 0.950 . S
C2934 C2929 1.363 . S
C2934 C2933 1.415 . S
C2935 H2911 0.951 . S
C2935 C2936 1.366 . S
C2935 C2937 1.388 . S
C2936 C2935 1.366 . S
C2936 C2940 1.385 . S
C2937 H2912 0.951 . S
C2937 C2935 1.388 . S
C2937 C2938 1.366 . S
C2938 C2937 1.366 . S
C2938 C2939 1.414 . S
C2938 C2941 1.499 . S
C2939 H2913 0.950 . S
C2939 C2938 1.414 . S
C2939 C2940 1.374 . S
C2940 H2914 0.950 . S
C2940 C2936 1.385 . S
C2940 C2939 1.374 . S
C2941 C2938 1.499 . S
C2941 C2942 1.373 . S
C2941 C2943 1.389 . S
C2942 H2915 0.950 . S
C2942 C2928 1.377 . S
C2942 C2941 1.373 . S
C2943 C2927 1.377 . S
C2943 C2941 1.389 . S
C2943 C2944 1.524 . S
C2944 C2943 1.524 . S
C2944 C2945 1.397 . S
C2944 C2949 1.363 . S
C2945 H2916 0.950 . S
C2945 C2944 1.397 . S
C2945 C2946 1.334 . S
C2946 H2917 0.950 . S
C2946 C2945 1.334 . S
C2946 C2947 1.287 . S
C2947 C2946 1.287 . S
C2947 C2948 1.524 . S
C2947 H2950 0.999 . S
C2948 H2918 0.950 . S
C2948 C2947 1.524 . S
C2948 C2949 1.415 . S
C2949 H2919 0.950 . S
C2949 C2944 1.363 . S
C2949 C2948 1.415 . S
H2950 C2947 0.999 . S
H2951 C2932 0.913 . S
H2952 C2970 0.950 . S
H2953 C2972 0.956 1_655 S
H2954 C2974 0.950 . S
H2955 C2975 0.950 . S
H2956 C2977 0.950 . S
H2957 C2980 0.950 . S
H2958 C2981 0.950 . S
H2959 C2983 0.950 . S
H2960 C2984 0.950 . S
H2961 C2985 0.951 . S
H2962 C2987 0.951 . S
H2963 C2989 0.950 . S
H2964 C2990 0.950 . S
H2965 C2992 0.950 . S
H2966 C2995 0.950 . S
H2967 C2996 0.950 . S
H2968 C2998 0.950 . S
H2969 C2999 0.950 . S
C2970 H2952 0.950 . S
C2970 C2971 1.367 1_655 S
C2970 C2972 1.388 1_655 S
C2971 C2970 1.367 1_455 S
C2971 C2975 1.385 . S
C2972 H2953 0.956 1_455 S
C2972 C2970 1.388 1_455 S
C2972 C2973 1.366 . S
C2973 C2972 1.366 . S
C2973 C2974 1.414 . S
C2973 C2976 1.499 . S
C2974 H2954 0.950 . S
C2974 C2973 1.414 . S
C2974 C2975 1.374 . S
C2975 H2955 0.950 . S
C2975 C2971 1.385 . S
C2975 C2974 1.374 . S
C2976 C2973 1.499 . S
C2976 C2977 1.373 . S
C2976 C2978 1.389 . S
C2977 H2956 0.950 . S
C2977 C2976 1.373 . S
C2977 C2993 1.377 . S
C2978 C2976 1.389 . S
C2978 C2979 1.524 1_455 S
C2978 C2992 1.377 . S
C2979 C2978 1.524 1_655 S
C2979 C2980 1.397 . S
C2979 C2984 1.363 . S
C2980 H2957 0.950 . S
C2980 C2979 1.397 . S
C2980 C2981 1.334 . S
C2981 H2958 0.950 . S
C2981 C2980 1.334 . S
C2981 C2982 1.287 . S
C2982 C2981 1.287 . S
C2982 C2983 1.524 . S
C2982 H3001 0.913 . S
C2983 H2959 0.950 . S
C2983 C2982 1.524 . S
C2983 C2984 1.415 . S
C2984 H2960 0.950 . S
C2984 C2979 1.363 . S
C2984 C2983 1.415 . S
C2985 H2961 0.951 . S
C2985 C2986 1.366 . S
C2985 C2987 1.388 . S
C2986 C2985 1.366 . S
C2986 C2990 1.385 . S
C2987 H2962 0.951 . S
C2987 C2985 1.388 . S
C2987 C2988 1.366 . S
C2988 C2987 1.366 . S
C2988 C2989 1.414 . S
C2988 C2991 1.499 . S
C2989 H2963 0.950 . S
C2989 C2988 1.414 . S
C2989 C2990 1.374 . S
C2990 H2964 0.950 . S
C2990 C2986 1.385 . S
C2990 C2989 1.374 . S
C2991 C2988 1.499 . S
C2991 C2992 1.373 . S
C2991 C2993 1.389 . S
C2992 H2965 0.950 . S
C2992 C2978 1.377 . S
C2992 C2991 1.373 . S
C2993 C2977 1.377 . S
C2993 C2991 1.389 . S
C2993 C2994 1.524 . S
C2994 C2993 1.524 . S
C2994 C2995 1.397 . S
C2994 C2999 1.363 . S
C2995 H2966 0.950 . S
C2995 C2994 1.397 . S
C2995 C2996 1.334 . S
C2996 H2967 0.950 . S
C2996 C2995 1.334 . S
C2996 C2997 1.287 . S
C2997 C2996 1.287 . S
C2997 C2998 1.524 . S
C2997 H3000 0.999 . S
C2998 H2968 0.950 . S
C2998 C2997 1.524 . S
C2998 C2999 1.415 . S
C2999 H2969 0.950 . S
C2999 C2994 1.363 . S
C2999 C2998 1.415 . S
H3000 C2997 0.999 . S
H3001 C2982 0.913 . S
H3002 C3020 0.951 . S
H3003 C3022 0.951 . S
H3004 C3024 0.950 . S
H3005 C3025 0.950 . S
H3006 C3027 0.950 . S
H3007 C3030 0.950 . S
H3008 C3031 0.950 . S
H3009 C3033 0.950 . S
H3010 C3034 0.950 . S
H3011 C3035 0.951 . S
H3012 C3037 0.951 . S
H3013 C3039 0.950 . S
H3014 C3040 0.950 . S
H3015 C3042 0.950 . S
H3016 C3045 0.950 . S
H3017 C3046 0.950 . S
H3018 C3048 0.950 . S
H3019 C3049 0.950 . S
C3020 H3002 0.951 . S
C3020 C3021 1.366 . S
C3020 C3022 1.388 . S
C3021 C3020 1.366 . S
C3021 C3025 1.385 . S
C3022 H3003 0.951 . S
C3022 C3020 1.388 . S
C3022 C3023 1.366 . S
C3023 C3022 1.366 . S
C3023 C3024 1.414 . S
C3023 C3026 1.499 . S
C3024 H3004 0.950 . S
C3024 C3023 1.414 . S
C3024 C3025 1.374 . S
C3025 H3005 0.950 . S
C3025 C3021 1.385 . S
C3025 C3024 1.374 . S
C3026 C3023 1.499 . S
C3026 C3027 1.373 . S
C3026 C3028 1.389 . S
C3027 H3006 0.950 . S
C3027 C3026 1.373 . S
C3027 C3043 1.377 . S
C3028 C3026 1.389 . S
C3028 C3029 1.524 . S
C3028 C3042 1.377 . S
C3029 C3028 1.524 . S
C3029 C3030 1.397 . S
C3029 C3034 1.363 . S
C3030 H3007 0.950 . S
C3030 C3029 1.397 . S
C3030 C3031 1.334 . S
C3031 H3008 0.950 . S
C3031 C3030 1.334 . S
C3031 C3032 1.287 . S
C3032 C3031 1.287 . S
C3032 C3033 1.524 . S
C3032 H3051 0.913 . S
C3033 H3009 0.950 . S
C3033 C3032 1.524 . S
C3033 C3034 1.415 . S
C3034 H3010 0.950 . S
C3034 C3029 1.363 . S
C3034 C3033 1.415 . S
C3035 H3011 0.951 . S
C3035 C3036 1.366 . S
C3035 C3037 1.388 . S
C3036 C3035 1.366 . S
C3036 C3040 1.385 . S
C3037 H3012 0.951 . S
C3037 C3035 1.388 . S
C3037 C3038 1.366 . S
C3038 C3037 1.366 . S
C3038 C3039 1.414 . S
C3038 C3041 1.499 . S
C3039 H3013 0.950 . S
C3039 C3038 1.414 . S
C3039 C3040 1.374 . S
C3040 H3014 0.950 . S
C3040 C3036 1.385 . S
C3040 C3039 1.374 . S
C3041 C3038 1.499 . S
C3041 C3042 1.373 . S
C3041 C3043 1.389 . S
C3042 H3015 0.950 . S
C3042 C3028 1.377 . S
C3042 C3041 1.373 . S
C3043 C3027 1.377 . S
C3043 C3041 1.389 . S
C3043 C3044 1.524 . S
C3044 C3043 1.524 . S
C3044 C3045 1.397 . S
C3044 C3049 1.363 . S
C3045 H3016 0.950 . S
C3045 C3044 1.397 . S
C3045 C3046 1.334 . S
C3046 H3017 0.950 . S
C3046 C3045 1.334 . S
C3046 C3047 1.287 . S
C3047 C3046 1.287 . S
C3047 C3048 1.524 . S
C3047 H3050 0.999 . S
C3048 H3018 0.950 . S
C3048 C3047 1.524 . S
C3048 C3049 1.415 . S
C3049 H3019 0.950 . S
C3049 C3044 1.363 . S
C3049 C3048 1.415 . S
H3050 C3047 0.999 . S
H3051 C3032 0.913 . S
H3052 C3070 0.951 . S
H3053 C3072 0.951 . S
H3054 C3074 0.950 . S
H3055 C3075 0.950 . S
H3056 C3077 0.950 . S
H3057 C3080 0.950 . S
H3058 C3081 0.950 . S
H3059 C3083 0.950 . S
H3060 C3084 0.950 . S
H3061 C3085 0.951 . S
H3062 C3087 0.951 . S
H3063 C3089 0.950 . S
H3064 C3090 0.950 . S
H3065 C3092 0.950 . S
H3066 C3095 0.950 . S
H3067 C3096 0.950 . S
H3068 C3098 0.950 . S
H3069 C3099 0.950 . S
C3070 H3052 0.951 . S
C3070 C3071 1.366 . S
C3070 C3072 1.388 . S
C3071 C3070 1.366 . S
C3071 C3075 1.385 . S
C3072 H3053 0.951 . S
C3072 C3070 1.388 . S
C3072 C3073 1.366 . S
C3073 C3072 1.366 . S
C3073 C3074 1.414 . S
C3073 C3076 1.499 . S
C3074 H3054 0.950 . S
C3074 C3073 1.414 . S
C3074 C3075 1.374 . S
C3075 H3055 0.950 . S
C3075 C3071 1.385 . S
C3075 C3074 1.374 . S
C3076 C3073 1.499 . S
C3076 C3077 1.373 . S
C3076 C3078 1.389 . S
C3077 H3056 0.950 . S
C3077 C3076 1.373 . S
C3077 C3093 1.377 . S
C3078 C3076 1.389 . S
C3078 C3079 1.524 . S
C3078 C3092 1.377 . S
C3079 C3078 1.524 . S
C3079 C3080 1.397 . S
C3079 C3084 1.363 . S
C3080 H3057 0.950 . S
C3080 C3079 1.397 . S
C3080 C3081 1.334 . S
C3081 H3058 0.950 . S
C3081 C3080 1.334 . S
C3081 C3082 1.287 . S
C3082 C3081 1.287 . S
C3082 C3083 1.524 . S
C3082 H3101 0.913 . S
C3083 H3059 0.950 . S
C3083 C3082 1.524 . S
C3083 C3084 1.415 . S
C3084 H3060 0.950 . S
C3084 C3079 1.363 . S
C3084 C3083 1.415 . S
C3085 H3061 0.951 . S
C3085 C3086 1.366 . S
C3085 C3087 1.388 . S
C3086 C3085 1.366 . S
C3086 C3090 1.385 . S
C3087 H3062 0.951 . S
C3087 C3085 1.388 . S
C3087 C3088 1.366 . S
C3088 C3087 1.366 . S
C3088 C3089 1.414 . S
C3088 C3091 1.499 . S
C3089 H3063 0.950 . S
C3089 C3088 1.414 . S
C3089 C3090 1.374 . S
C3090 H3064 0.950 . S
C3090 C3086 1.385 . S
C3090 C3089 1.374 . S
C3091 C3088 1.499 . S
C3091 C3092 1.373 . S
C3091 C3093 1.389 . S
C3092 H3065 0.950 . S
C3092 C3078 1.377 . S
C3092 C3091 1.373 . S
C3093 C3077 1.377 . S
C3093 C3091 1.389 . S
C3093 C3094 1.524 . S
C3094 C3093 1.524 . S
C3094 C3095 1.397 . S
C3094 C3099 1.363 . S
C3095 H3066 0.950 . S
C3095 C3094 1.397 . S
C3095 C3096 1.334 . S
C3096 H3067 0.950 . S
C3096 C3095 1.334 . S
C3096 C3097 1.287 . S
C3097 C3096 1.287 . S
C3097 C3098 1.524 . S
C3097 H3100 0.999 . S
C3098 H3068 0.950 . S
C3098 C3097 1.524 . S
C3098 C3099 1.415 . S
C3099 H3069 0.950 . S
C3099 C3094 1.363 . S
C3099 C3098 1.415 . S
H3100 C3097 0.999 . S
H3101 C3082 0.913 . S
H3102 C3120 0.951 . S
H3103 C3122 0.951 . S
H3104 C3124 0.950 . S
H3105 C3125 0.950 . S
H3106 C3127 0.950 . S
H3107 C3130 0.950 . S
H3108 C3131 0.950 . S
H3109 C3133 0.950 . S
H3110 C3134 0.950 . S
H3111 C3135 0.951 . S
H3112 C3137 0.951 . S
H3113 C3139 0.950 . S
H3114 C3140 0.950 . S
H3115 C3142 0.950 . S
H3116 C3145 0.950 . S
H3117 C3146 0.950 . S
H3118 C3148 0.950 . S
H3119 C3149 0.950 . S
C3120 H3102 0.951 . S
C3120 C3121 1.366 . S
C3120 C3122 1.388 . S
C3121 C3120 1.366 . S
C3121 C3125 1.385 . S
C3122 H3103 0.951 . S
C3122 C3120 1.388 . S
C3122 C3123 1.366 . S
C3123 C3122 1.366 . S
C3123 C3124 1.414 . S
C3123 C3126 1.499 . S
C3124 H3104 0.950 . S
C3124 C3123 1.414 . S
C3124 C3125 1.374 . S
C3125 H3105 0.950 . S
C3125 C3121 1.385 . S
C3125 C3124 1.374 . S
C3126 C3123 1.499 . S
C3126 C3127 1.373 . S
C3126 C3128 1.389 . S
C3127 H3106 0.950 . S
C3127 C3126 1.373 . S
C3127 C3143 1.377 . S
C3128 C3126 1.389 . S
C3128 C3129 1.524 . S
C3128 C3142 1.377 . S
C3129 C3128 1.524 . S
C3129 C3130 1.397 . S
C3129 C3134 1.363 . S
C3130 H3107 0.950 . S
C3130 C3129 1.397 . S
C3130 C3131 1.334 . S
C3131 H3108 0.950 . S
C3131 C3130 1.334 . S
C3131 C3132 1.287 . S
C3132 C3131 1.287 . S
C3132 C3133 1.524 . S
C3132 H3151 0.913 . S
C3133 H3109 0.950 . S
C3133 C3132 1.524 . S
C3133 C3134 1.415 . S
C3134 H3110 0.950 . S
C3134 C3129 1.363 . S
C3134 C3133 1.415 . S
C3135 H3111 0.951 . S
C3135 C3136 1.366 . S
C3135 C3137 1.388 . S
C3136 C3135 1.366 . S
C3136 C3140 1.385 . S
C3137 H3112 0.951 . S
C3137 C3135 1.388 . S
C3137 C3138 1.366 . S
C3138 C3137 1.366 . S
C3138 C3139 1.414 . S
C3138 C3141 1.499 . S
C3139 H3113 0.950 . S
C3139 C3138 1.414 . S
C3139 C3140 1.374 . S
C3140 H3114 0.950 . S
C3140 C3136 1.385 . S
C3140 C3139 1.374 . S
C3141 C3138 1.499 . S
C3141 C3142 1.373 . S
C3141 C3143 1.389 . S
C3142 H3115 0.950 . S
C3142 C3128 1.377 . S
C3142 C3141 1.373 . S
C3143 C3127 1.377 . S
C3143 C3141 1.389 . S
C3143 C3144 1.524 . S
C3144 C3143 1.524 . S
C3144 C3145 1.397 . S
C3144 C3149 1.363 . S
C3145 H3116 0.950 . S
C3145 C3144 1.397 . S
C3145 C3146 1.334 . S
C3146 H3117 0.950 . S
C3146 C3145 1.334 . S
C3146 C3147 1.287 . S
C3147 C3146 1.287 . S
C3147 C3148 1.524 . S
C3147 H3150 0.999 . S
C3148 H3118 0.950 . S
C3148 C3147 1.524 . S
C3148 C3149 1.415 . S
C3149 H3119 0.950 . S
C3149 C3144 1.363 . S
C3149 C3148 1.415 . S
H3150 C3147 0.999 . S
H3151 C3132 0.913 . S
H3152 C3170 0.951 . S
H3153 C3172 1.008 . S
H3154 C3174 0.950 . S
H3155 C3175 0.950 . S
H3156 C3177 0.950 . S
H3157 C3180 0.950 . S
H3158 C3181 0.950 . S
H3159 C3183 0.950 . S
H3160 C3184 0.950 . S
H3161 C3185 0.951 . S
H3162 C3187 0.951 1_655 S
H3163 C3189 0.950 . S
H3164 C3190 0.950 . S
H3165 C3192 0.950 . S
H3166 C3195 0.950 . S
H3167 C3196 0.950 . S
H3168 C3198 0.950 . S
H3169 C3199 0.950 . S
C3170 H3152 0.951 . S
C3170 C3171 1.366 . S
C3170 C3172 1.388 . S
C3171 C3170 1.366 . S
C3171 C3175 1.385 . S
C3172 H3153 1.008 . S
C3172 C3170 1.388 . S
C3172 C3173 1.366 . S
C3173 C3172 1.366 . S
C3173 C3174 1.414 . S
C3173 C3176 1.499 . S
C3174 H3154 0.950 . S
C3174 C3173 1.414 . S
C3174 C3175 1.374 . S
C3175 H3155 0.950 . S
C3175 C3171 1.385 . S
C3175 C3174 1.374 . S
C3176 C3173 1.499 . S
C3176 C3177 1.373 . S
C3176 C3178 1.389 1_655 S
C3177 H3156 0.950 . S
C3177 C3176 1.373 . S
C3177 C3193 1.377 . S
C3178 C3176 1.389 1_455 S
C3178 C3179 1.524 . S
C3178 C3192 1.377 . S
C3179 C3178 1.524 . S
C3179 C3180 1.397 . S
C3179 C3184 1.363 . S
C3180 H3157 0.950 . S
C3180 C3179 1.397 . S
C3180 C3181 1.334 . S
C3181 H3158 0.950 . S
C3181 C3180 1.334 . S
C3181 C3182 1.287 . S
C3182 C3181 1.287 . S
C3182 C3183 1.524 . S
C3182 H3201 0.913 . S
C3183 H3159 0.950 . S
C3183 C3182 1.524 . S
C3183 C3184 1.415 . S
C3184 H3160 0.950 . S
C3184 C3179 1.363 . S
C3184 C3183 1.415 . S
C3185 H3161 0.951 . S
C3185 C3186 1.366 . S
C3185 C3187 1.388 . S
C3186 C3185 1.366 . S
C3186 C3190 1.385 . S
C3187 H3162 0.951 1_455 S
C3187 C3185 1.388 . S
C3187 C3188 1.366 . S
C3188 C3187 1.366 . S
C3188 C3189 1.414 . S
C3188 C3191 1.499 . S
C3189 H3163 0.950 . S
C3189 C3188 1.414 . S
C3189 C3190 1.374 . S
C3190 H3164 0.950 . S
C3190 C3186 1.385 . S
C3190 C3189 1.374 . S
C3191 C3188 1.499 . S
C3191 C3192 1.373 . S
C3191 C3193 1.389 1_455 S
C3192 H3165 0.950 . S
C3192 C3178 1.377 . S
C3192 C3191 1.373 . S
C3193 C3177 1.377 . S
C3193 C3191 1.389 1_655 S
C3193 C3194 1.524 . S
C3194 C3193 1.524 . S
C3194 C3195 1.397 . S
C3194 C3199 1.363 . S
C3195 H3166 0.950 . S
C3195 C3194 1.397 . S
C3195 C3196 1.334 . S
C3196 H3167 0.950 . S
C3196 C3195 1.334 . S
C3196 C3197 1.287 . S
C3197 C3196 1.287 . S
C3197 C3198 1.524 . S
C3197 H3200 0.999 . S
C3198 H3168 0.950 . S
C3198 C3197 1.524 . S
C3198 C3199 1.415 . S
C3199 H3169 0.950 . S
C3199 C3194 1.363 . S
C3199 C3198 1.415 . S
H3200 C3197 0.999 . S
H3201 C3182 0.913 . S
H3202 C3220 0.951 . S
H3203 C3222 0.951 . S
H3204 C3224 0.950 . S
H3205 C3225 0.950 . S
H3206 C3227 0.950 . S
H3207 C3230 0.950 . S
H3208 C3231 0.950 . S
H3209 C3233 0.950 . S
H3210 C3234 0.950 . S
H3211 C3235 0.951 . S
H3212 C3237 0.951 . S
H3213 C3239 0.950 . S
H3214 C3240 0.950 . S
H3215 C3242 0.950 . S
H3216 C3245 0.950 . S
H3217 C3246 0.950 . S
H3218 C3248 0.950 . S
H3219 C3249 0.950 . S
C3220 H3202 0.951 . S
C3220 C3221 1.366 . S
C3220 C3222 1.388 . S
C3221 C3220 1.366 . S
C3221 C3225 1.385 . S
C3222 H3203 0.951 . S
C3222 C3220 1.388 . S
C3222 C3223 1.366 . S
C3223 C3222 1.366 . S
C3223 C3224 1.414 . S
C3223 C3226 1.499 . S
C3224 H3204 0.950 . S
C3224 C3223 1.414 . S
C3224 C3225 1.374 . S
C3225 H3205 0.950 . S
C3225 C3221 1.385 . S
C3225 C3224 1.374 . S
C3226 C3223 1.499 . S
C3226 C3227 1.373 . S
C3226 C3228 1.389 . S
C3227 H3206 0.950 . S
C3227 C3226 1.373 . S
C3227 C3243 1.377 . S
C3228 C3226 1.389 . S
C3228 C3229 1.524 . S
C3228 C3242 1.377 . S
C3229 C3228 1.524 . S
C3229 C3230 1.397 . S
C3229 C3234 1.363 . S
C3230 H3207 0.950 . S
C3230 C3229 1.397 . S
C3230 C3231 1.334 . S
C3231 H3208 0.950 . S
C3231 C3230 1.334 . S
C3231 C3232 1.287 . S
C3232 C3231 1.287 . S
C3232 C3233 1.524 . S
C3232 H3251 0.913 . S
C3233 H3209 0.950 . S
C3233 C3232 1.524 . S
C3233 C3234 1.415 . S
C3234 H3210 0.950 . S
C3234 C3229 1.363 . S
C3234 C3233 1.415 . S
C3235 H3211 0.951 . S
C3235 C3236 1.366 . S
C3235 C3237 1.388 . S
C3236 C3235 1.366 . S
C3236 C3240 1.385 . S
C3237 H3212 0.951 . S
C3237 C3235 1.388 . S
C3237 C3238 1.366 . S
C3238 C3237 1.366 . S
C3238 C3239 1.414 . S
C3238 C3241 1.499 . S
C3239 H3213 0.950 . S
C3239 C3238 1.414 . S
C3239 C3240 1.374 . S
C3240 H3214 0.950 . S
C3240 C3236 1.385 . S
C3240 C3239 1.374 . S
C3241 C3238 1.499 . S
C3241 C3242 1.373 . S
C3241 C3243 1.389 . S
C3242 H3215 0.950 . S
C3242 C3228 1.377 . S
C3242 C3241 1.373 . S
C3243 C3227 1.377 . S
C3243 C3241 1.389 . S
C3243 C3244 1.524 . S
C3244 C3243 1.524 . S
C3244 C3245 1.397 . S
C3244 C3249 1.363 . S
C3245 H3216 0.950 . S
C3245 C3244 1.397 . S
C3245 C3246 1.334 . S
C3246 H3217 0.950 . S
C3246 C3245 1.334 . S
C3246 C3247 1.287 . S
C3247 C3246 1.287 . S
C3247 C3248 1.524 . S
C3247 H3250 0.999 . S
C3248 H3218 0.950 . S
C3248 C3247 1.524 . S
C3248 C3249 1.415 . S
C3249 H3219 0.950 . S
C3249 C3244 1.363 . S
C3249 C3248 1.415 . S
H3250 C3247 0.999 . S
H3251 C3232 0.913 . S
H3252 C3270 0.951 . S
H3253 C3272 0.951 . S
H3254 C3274 0.950 . S
H3255 C3275 0.950 . S
H3256 C3277 0.950 . S
H3257 C3280 0.950 . S
H3258 C3281 0.950 . S
H3259 C3283 0.950 . S
H3260 C3284 0.950 . S
H3261 C3285 0.951 . S
H3262 C3287 0.951 . S
H3263 C3289 0.950 . S
H3264 C3290 0.950 . S
H3265 C3292 0.950 . S
H3266 C3295 0.950 . S
H3267 C3296 0.950 . S
H3268 C3298 0.950 . S
H3269 C3299 0.950 . S
C3270 H3252 0.951 . S
C3270 C3271 1.366 . S
C3270 C3272 1.388 . S
C3271 C3270 1.366 . S
C3271 C3275 1.385 . S
C3272 H3253 0.951 . S
C3272 C3270 1.388 . S
C3272 C3273 1.366 . S
C3273 C3272 1.366 . S
C3273 C3274 1.414 . S
C3273 C3276 1.499 . S
C3274 H3254 0.950 . S
C3274 C3273 1.414 . S
C3274 C3275 1.374 . S
C3275 H3255 0.950 . S
C3275 C3271 1.385 . S
C3275 C3274 1.374 . S
C3276 C3273 1.499 . S
C3276 C3277 1.373 . S
C3276 C3278 1.389 . S
C3277 H3256 0.950 . S
C3277 C3276 1.373 . S
C3277 C3293 1.377 . S
C3278 C3276 1.389 . S
C3278 C3279 1.524 . S
C3278 C3292 1.377 . S
C3279 C3278 1.524 . S
C3279 C3280 1.397 . S
C3279 C3284 1.363 . S
C3280 H3257 0.950 . S
C3280 C3279 1.397 . S
C3280 C3281 1.334 . S
C3281 H3258 0.950 . S
C3281 C3280 1.334 . S
C3281 C3282 1.287 . S
C3282 C3281 1.287 . S
C3282 C3283 1.524 . S
C3282 H3301 0.913 . S
C3283 H3259 0.950 . S
C3283 C3282 1.524 . S
C3283 C3284 1.415 . S
C3284 H3260 0.950 . S
C3284 C3279 1.363 . S
C3284 C3283 1.415 . S
C3285 H3261 0.951 . S
C3285 C3286 1.366 . S
C3285 C3287 1.388 . S
C3286 C3285 1.366 . S
C3286 C3290 1.385 . S
C3287 H3262 0.951 . S
C3287 C3285 1.388 . S
C3287 C3288 1.366 . S
C3288 C3287 1.366 . S
C3288 C3289 1.414 . S
C3288 C3291 1.499 . S
C3289 H3263 0.950 . S
C3289 C3288 1.414 . S
C3289 C3290 1.374 . S
C3290 H3264 0.950 . S
C3290 C3286 1.385 . S
C3290 C3289 1.374 . S
C3291 C3288 1.499 . S
C3291 C3292 1.373 . S
C3291 C3293 1.389 . S
C3292 H3265 0.950 . S
C3292 C3278 1.377 . S
C3292 C3291 1.373 . S
C3293 C3277 1.377 . S
C3293 C3291 1.389 . S
C3293 C3294 1.524 . S
C3294 C3293 1.524 . S
C3294 C3295 1.397 . S
C3294 C3299 1.363 1_545 S
C3295 H3266 0.950 . S
C3295 C3294 1.397 . S
C3295 C3296 1.334 . S
C3296 H3267 0.950 . S
C3296 C3295 1.334 . S
C3296 C3297 1.287 1_545 S
C3297 C3296 1.287 1_565 S
C3297 C3298 1.524 . S
C3297 H3300 0.999 . S
C3298 H3268 0.950 . S
C3298 C3297 1.524 . S
C3298 C3299 1.415 . S
C3299 H3269 0.950 . S
C3299 C3294 1.363 1_565 S
C3299 C3298 1.415 . S
H3300 C3297 0.999 . S
H3301 C3282 0.913 . S
H3302 C3320 0.951 . S
H3303 C3322 0.951 . S
H3304 C3324 0.950 . S
H3305 C3325 0.950 . S
H3306 C3327 0.950 . S
H3307 C3330 0.950 . S
H3308 C3331 0.950 . S
H3309 C3333 0.950 . S
H3310 C3334 0.950 . S
H3311 C3335 0.951 . S
H3312 C3337 0.951 . S
H3313 C3339 0.950 . S
H3314 C3340 0.950 . S
H3315 C3342 0.950 . S
H3316 C3345 0.950 . S
H3317 C3346 0.950 . S
H3318 C3348 0.950 . S
H3319 C3349 0.950 . S
C3320 H3302 0.951 . S
C3320 C3321 1.366 . S
C3320 C3322 1.388 . S
C3321 C3320 1.366 . S
C3321 C3325 1.385 . S
C3322 H3303 0.951 . S
C3322 C3320 1.388 . S
C3322 C3323 1.366 . S
C3323 C3322 1.366 . S
C3323 C3324 1.414 . S
C3323 C3326 1.499 . S
C3324 H3304 0.950 . S
C3324 C3323 1.414 . S
C3324 C3325 1.374 . S
C3325 H3305 0.950 . S
C3325 C3321 1.385 . S
C3325 C3324 1.374 . S
C3326 C3323 1.499 . S
C3326 C3327 1.373 . S
C3326 C3328 1.389 . S
C3327 H3306 0.950 . S
C3327 C3326 1.373 . S
C3327 C3343 1.377 . S
C3328 C3326 1.389 . S
C3328 C3329 1.524 . S
C3328 C3342 1.377 . S
C3329 C3328 1.524 . S
C3329 C3330 1.397 . S
C3329 C3334 1.363 . S
C3330 H3307 0.950 . S
C3330 C3329 1.397 . S
C3330 C3331 1.334 . S
C3331 H3308 0.950 . S
C3331 C3330 1.334 . S
C3331 C3332 1.287 . S
C3332 C3331 1.287 . S
C3332 C3333 1.524 . S
C3332 H3351 0.913 . S
C3333 H3309 0.950 . S
C3333 C3332 1.524 . S
C3333 C3334 1.415 . S
C3334 H3310 0.950 . S
C3334 C3329 1.363 . S
C3334 C3333 1.415 . S
C3335 H3311 0.951 . S
C3335 C3336 1.366 . S
C3335 C3337 1.388 . S
C3336 C3335 1.366 . S
C3336 C3340 1.385 . S
C3337 H3312 0.951 . S
C3337 C3335 1.388 . S
C3337 C3338 1.366 . S
C3338 C3337 1.366 . S
C3338 C3339 1.414 . S
C3338 C3341 1.499 . S
C3339 H3313 0.950 . S
C3339 C3338 1.414 . S
C3339 C3340 1.374 . S
C3340 H3314 0.950 . S
C3340 C3336 1.385 . S
C3340 C3339 1.374 . S
C3341 C3338 1.499 . S
C3341 C3342 1.373 . S
C3341 C3343 1.389 . S
C3342 H3315 0.950 . S
C3342 C3328 1.377 . S
C3342 C3341 1.373 . S
C3343 C3327 1.377 . S
C3343 C3341 1.389 . S
C3343 C3344 1.524 . S
C3344 C3343 1.524 . S
C3344 C3345 1.397 . S
C3344 C3349 1.363 . S
C3345 H3316 0.950 . S
C3345 C3344 1.397 . S
C3345 C3346 1.334 . S
C3346 H3317 0.950 . S
C3346 C3345 1.334 . S
C3346 C3347 1.287 . S
C3347 C3346 1.287 . S
C3347 C3348 1.524 . S
C3347 H3350 0.999 . S
C3348 H3318 0.950 . S
C3348 C3347 1.524 . S
C3348 C3349 1.415 . S
C3349 H3319 0.950 . S
C3349 C3344 1.363 . S
C3349 C3348 1.415 . S
H3350 C3347 0.999 . S
H3351 C3332 0.913 . S
H3352 C3370 0.918 1_455 S
H3353 C3372 0.951 1_455 S
H3354 C3374 0.950 . S
H3355 C3375 0.950 . S
H3356 C3377 0.950 . S
H3357 C3380 0.950 . S
H3358 C3381 0.950 . S
H3359 C3383 0.950 . S
H3360 C3384 0.950 . S
H3361 C3385 0.951 1_655 S
H3362 C3387 0.958 . S
H3363 C3389 0.950 . S
H3364 C3390 0.950 . S
H3365 C3392 0.950 . S
H3366 C3395 0.950 . S
H3367 C3396 0.950 . S
H3368 C3398 0.950 . S
H3369 C3399 0.950 . S
C3370 H3352 0.918 1_655 S
C3370 C3371 1.366 . S
C3370 C3372 1.388 . S
C3371 C3370 1.366 . S
C3371 C3375 1.385 . S
C3372 H3353 0.951 1_655 S
C3372 C3370 1.388 . S
C3372 C3373 1.366 . S
C3373 C3372 1.366 . S
C3373 C3374 1.414 . S
C3373 C3376 1.499 . S
C3374 H3354 0.950 . S
C3374 C3373 1.414 . S
C3374 C3375 1.374 . S
C3375 H3355 0.950 . S
C3375 C3371 1.385 . S
C3375 C3374 1.374 . S
C3376 C3373 1.499 . S
C3376 C3377 1.373 . S
C3376 C3378 1.389 1_655 S
C3377 H3356 0.950 . S
C3377 C3376 1.373 . S
C3377 C3393 1.377 . S
C3378 C3376 1.389 1_455 S
C3378 C3379 1.524 . S
C3378 C3392 1.377 . S
C3379 C3378 1.524 . S
C3379 C3380 1.397 1_455 S
C3379 C3384 1.363 . S
C3380 H3357 0.950 . S
C3380 C3379 1.397 1_655 S
C3380 C3381 1.334 . S
C3381 H3358 0.950 . S
C3381 C3380 1.334 . S
C3381 C3382 1.287 1_655 S
C3382 C3381 1.287 1_455 S
C3382 C3383 1.524 . S
C3382 H3401 0.913 . S
C3383 H3359 0.950 . S
C3383 C3382 1.524 . S
C3383 C3384 1.415 . S
C3384 H3360 0.950 . S
C3384 C3379 1.363 . S
C3384 C3383 1.415 . S
C3385 H3361 0.951 1_455 S
C3385 C3386 1.366 . S
C3385 C3387 1.385 1_455 S
C3386 C3385 1.366 . S
C3386 C3390 1.385 . S
C3387 H3362 0.958 . S
C3387 C3385 1.385 1_655 S
C3387 C3388 1.361 1_655 S
C3388 C3387 1.361 1_455 S
C3388 C3389 1.414 . S
C3388 C3391 1.499 . S
C3389 H3363 0.950 . S
C3389 C3388 1.414 . S
C3389 C3390 1.374 . S
C3390 H3364 0.950 . S
C3390 C3386 1.385 . S
C3390 C3389 1.374 . S
C3391 C3388 1.499 . S
C3391 C3392 1.373 . S
C3391 C3393 1.389 1_455 S
C3392 H3365 0.950 . S
C3392 C3378 1.377 . S
C3392 C3391 1.373 . S
C3393 C3377 1.377 . S
C3393 C3391 1.389 1_655 S
C3393 C3394 1.524 . S
C3394 C3393 1.524 . S
C3394 C3395 1.397 1_655 S
C3394 C3399 1.363 . S
C3395 H3366 0.950 . S
C3395 C3394 1.397 1_455 S
C3395 C3396 1.334 . S
C3396 H3367 0.950 . S
C3396 C3395 1.334 . S
C3396 C3397 1.287 1_455 S
C3397 C3396 1.287 1_655 S
C3397 C3398 1.524 . S
C3397 H3400 0.999 . S
C3398 H3368 0.950 . S
C3398 C3397 1.524 . S
C3398 C3399 1.415 . S
C3399 H3369 0.950 . S
C3399 C3394 1.363 . S
C3399 C3398 1.415 . S
H3400 C3397 0.999 . S
H3401 C3382 0.913 . S
H3402 C3420 0.951 . S
H3403 C3422 0.951 . S
H3404 C3424 0.950 . S
H3405 C3425 0.950 . S
H3406 C3427 0.950 . S
H3407 C3430 0.950 . S
H3408 C3431 0.950 . S
H3409 C3433 0.950 . S
H3410 C3434 0.950 . S
H3411 C3435 0.951 . S
H3412 C3437 0.951 . S
H3413 C3439 0.950 . S
H3414 C3440 0.950 . S
H3415 C3442 0.950 . S
H3416 C3445 0.950 . S
H3417 C3446 0.950 . S
H3418 C3448 0.950 . S
H3419 C3449 0.950 . S
C3420 H3402 0.951 . S
C3420 C3421 1.366 . S
C3420 C3422 1.388 . S
C3421 C3420 1.366 . S
C3421 C3425 1.385 . S
C3422 H3403 0.951 . S
C3422 C3420 1.388 . S
C3422 C3423 1.366 . S
C3423 C3422 1.366 . S
C3423 C3424 1.414 . S
C3423 C3426 1.499 . S
C3424 H3404 0.950 . S
C3424 C3423 1.414 . S
C3424 C3425 1.374 . S
C3425 H3405 0.950 . S
C3425 C3421 1.385 . S
C3425 C3424 1.374 . S
C3426 C3423 1.499 . S
C3426 C3427 1.373 . S
C3426 C3428 1.389 . S
C3427 H3406 0.950 . S
C3427 C3426 1.373 . S
C3427 C3443 1.377 . S
C3428 C3426 1.389 . S
C3428 C3429 1.524 . S
C3428 C3442 1.377 . S
C3429 C3428 1.524 . S
C3429 C3430 1.397 . S
C3429 C3434 1.363 . S
C3430 H3407 0.950 . S
C3430 C3429 1.397 . S
C3430 C3431 1.334 . S
C3431 H3408 0.950 . S
C3431 C3430 1.334 . S
C3431 C3432 1.287 . S
C3432 C3431 1.287 . S
C3432 C3433 1.524 . S
C3432 H3451 0.913 . S
C3433 H3409 0.950 . S
C3433 C3432 1.524 . S
C3433 C3434 1.415 . S
C3434 H3410 0.950 . S
C3434 C3429 1.363 . S
C3434 C3433 1.415 . S
C3435 H3411 0.951 . S
C3435 C3436 1.366 . S
C3435 C3437 1.388 . S
C3436 C3435 1.366 . S
C3436 C3440 1.385 . S
C3437 H3412 0.951 . S
C3437 C3435 1.388 . S
C3437 C3438 1.366 . S
C3438 C3437 1.366 . S
C3438 C3439 1.414 . S
C3438 C3441 1.499 . S
C3439 H3413 0.950 . S
C3439 C3438 1.414 . S
C3439 C3440 1.374 . S
C3440 H3414 0.950 . S
C3440 C3436 1.385 . S
C3440 C3439 1.374 . S
C3441 C3438 1.499 . S
C3441 C3442 1.373 . S
C3441 C3443 1.389 . S
C3442 H3415 0.950 . S
C3442 C3428 1.377 . S
C3442 C3441 1.373 . S
C3443 C3427 1.377 . S
C3443 C3441 1.389 . S
C3443 C3444 1.524 . S
C3444 C3443 1.524 . S
C3444 C3445 1.397 . S
C3444 C3449 1.363 . S
C3445 H3416 0.950 . S
C3445 C3444 1.397 . S
C3445 C3446 1.334 . S
C3446 H3417 0.950 . S
C3446 C3445 1.334 . S
C3446 C3447 1.287 . S
C3447 C3446 1.287 . S
C3447 C3448 1.524 . S
C3447 H3450 0.999 . S
C3448 H3418 0.950 . S
C3448 C3447 1.524 . S
C3448 C3449 1.415 . S
C3449 H3419 0.950 . S
C3449 C3444 1.363 . S
C3449 C3448 1.415 . S
H3450 C3447 0.999 . S
H3451 C3432 0.913 . S
H3452 C3470 0.951 . S
H3453 C3472 0.951 . S
H3454 C3474 0.950 . S
H3455 C3475 0.950 . S
H3456 C3477 0.950 . S
H3457 C3480 0.950 . S
H3458 C3481 0.950 . S
H3459 C3483 0.950 . S
H3460 C3484 0.950 . S
H3461 C3485 0.951 . S
H3462 C3487 0.951 . S
H3463 C3489 0.950 . S
H3464 C3490 0.950 . S
H3465 C3492 0.950 . S
H3466 C3495 0.950 . S
H3467 C3496 0.950 . S
H3468 C3498 0.950 1_565 S
H3469 C3499 0.950 . S
C3470 H3452 0.951 . S
C3470 C3471 1.366 . S
C3470 C3472 1.388 . S
C3471 C3470 1.366 . S
C3471 C3475 1.385 . S
C3472 H3453 0.951 . S
C3472 C3470 1.388 . S
C3472 C3473 1.366 . S
C3473 C3472 1.366 . S
C3473 C3474 1.414 . S
C3473 C3476 1.499 . S
C3474 H3454 0.950 . S
C3474 C3473 1.414 . S
C3474 C3475 1.374 . S
C3475 H3455 0.950 . S
C3475 C3471 1.385 . S
C3475 C3474 1.374 . S
C3476 C3473 1.499 . S
C3476 C3477 1.373 . S
C3476 C3478 1.389 . S
C3477 H3456 0.950 . S
C3477 C3476 1.373 . S
C3477 C3493 1.377 . S
C3478 C3476 1.389 . S
C3478 C3479 1.524 . S
C3478 C3492 1.377 . S
C3479 C3478 1.524 . S
C3479 C3480 1.397 . S
C3479 C3484 1.363 . S
C3480 H3457 0.950 . S
C3480 C3479 1.397 . S
C3480 C3481 1.334 . S
C3481 H3458 0.950 . S
C3481 C3480 1.334 . S
C3481 C3482 1.287 . S
C3482 C3481 1.287 . S
C3482 C3483 1.524 . S
C3482 H3501 0.913 . S
C3483 H3459 0.950 . S
C3483 C3482 1.524 . S
C3483 C3484 1.415 . S
C3484 H3460 0.950 . S
C3484 C3479 1.363 . S
C3484 C3483 1.415 . S
C3485 H3461 0.951 . S
C3485 C3486 1.366 . S
C3485 C3487 1.388 . S
C3486 C3485 1.366 . S
C3486 C3490 1.385 . S
C3487 H3462 0.951 . S
C3487 C3485 1.388 . S
C3487 C3488 1.366 . S
C3488 C3487 1.366 . S
C3488 C3489 1.414 . S
C3488 C3491 1.499 . S
C3489 H3463 0.950 . S
C3489 C3488 1.414 . S
C3489 C3490 1.374 . S
C3490 H3464 0.950 . S
C3490 C3486 1.385 . S
C3490 C3489 1.374 . S
C3491 C3488 1.499 . S
C3491 C3492 1.373 . S
C3491 C3493 1.389 . S
C3492 H3465 0.950 . S
C3492 C3478 1.377 . S
C3492 C3491 1.373 . S
C3493 C3477 1.377 . S
C3493 C3491 1.389 . S
C3493 C3494 1.524 . S
C3494 C3493 1.524 . S
C3494 C3495 1.397 . S
C3494 C3499 1.363 . S
C3495 H3466 0.950 . S
C3495 C3494 1.397 . S
C3495 C3496 1.334 . S
C3496 H3467 0.950 . S
C3496 C3495 1.334 . S
C3496 C3497 1.287 . S
C3497 C3496 1.287 . S
C3497 C3498 1.524 . S
C3497 H3500 0.999 . S
C3498 H3468 0.950 1_545 S
C3498 C3497 1.524 . S
C3498 C3499 1.415 . S
C3499 H3469 0.950 . S
C3499 C3494 1.363 . S
C3499 C3498 1.415 . S
H3500 C3497 0.999 . S
H3501 C3482 0.913 . S
H3502 C3520 0.951 . S
H3503 C3522 0.951 . S
H3504 C3524 0.950 . S
H3505 C3525 0.950 . S
H3506 C3527 0.950 . S
H3507 C3530 0.950 . S
H3508 C3531 0.950 . S
H3509 C3533 0.950 . S
H3510 C3534 0.950 . S
H3511 C3535 0.951 . S
H3512 C3537 0.951 . S
H3513 C3539 0.950 . S
H3514 C3540 0.950 . S
H3515 C3542 0.950 . S
H3516 C3545 0.950 . S
H3517 C3546 0.950 . S
H3518 C3548 0.950 . S
H3519 C3549 0.950 . S
C3520 H3502 0.951 . S
C3520 C3521 1.366 . S
C3520 C3522 1.388 . S
C3521 C3520 1.366 . S
C3521 C3525 1.385 . S
C3522 H3503 0.951 . S
C3522 C3520 1.388 . S
C3522 C3523 1.366 . S
C3523 C3522 1.366 . S
C3523 C3524 1.414 . S
C3523 C3526 1.499 . S
C3524 H3504 0.950 . S
C3524 C3523 1.414 . S
C3524 C3525 1.374 . S
C3525 H3505 0.950 . S
C3525 C3521 1.385 . S
C3525 C3524 1.374 . S
C3526 C3523 1.499 . S
C3526 C3527 1.373 . S
C3526 C3528 1.389 . S
C3527 H3506 0.950 . S
C3527 C3526 1.373 . S
C3527 C3543 1.377 . S
C3528 C3526 1.389 . S
C3528 C3529 1.524 . S
C3528 C3542 1.377 . S
C3529 C3528 1.524 . S
C3529 C3530 1.397 . S
C3529 C3534 1.363 . S
C3530 H3507 0.950 . S
C3530 C3529 1.397 . S
C3530 C3531 1.334 . S
C3531 H3508 0.950 . S
C3531 C3530 1.334 . S
C3531 C3532 1.287 . S
C3532 C3531 1.287 . S
C3532 C3533 1.524 . S
C3532 H3551 0.913 . S
C3533 H3509 0.950 . S
C3533 C3532 1.524 . S
C3533 C3534 1.415 . S
C3534 H3510 0.950 . S
C3534 C3529 1.363 . S
C3534 C3533 1.415 . S
C3535 H3511 0.951 . S
C3535 C3536 1.366 . S
C3535 C3537 1.388 . S
C3536 C3535 1.366 . S
C3536 C3540 1.385 . S
C3537 H3512 0.951 . S
C3537 C3535 1.388 . S
C3537 C3538 1.366 . S
C3538 C3537 1.366 . S
C3538 C3539 1.414 . S
C3538 C3541 1.499 . S
C3539 H3513 0.950 . S
C3539 C3538 1.414 . S
C3539 C3540 1.374 . S
C3540 H3514 0.950 . S
C3540 C3536 1.385 . S
C3540 C3539 1.374 . S
C3541 C3538 1.499 . S
C3541 C3542 1.373 . S
C3541 C3543 1.389 . S
C3542 H3515 0.950 . S
C3542 C3528 1.377 . S
C3542 C3541 1.373 . S
C3543 C3527 1.377 . S
C3543 C3541 1.389 . S
C3543 C3544 1.524 . S
C3544 C3543 1.524 . S
C3544 C3545 1.397 . S
C3544 C3549 1.363 . S
C3545 H3516 0.950 . S
C3545 C3544 1.397 . S
C3545 C3546 1.334 . S
C3546 H3517 0.950 . S
C3546 C3545 1.334 . S
C3546 C3547 1.287 . S
C3547 C3546 1.287 . S
C3547 C3548 1.524 . S
C3547 H3550 0.999 . S
C3548 H3518 0.950 . S
C3548 C3547 1.524 . S
C3548 C3549 1.415 . S
C3549 H3519 0.950 . S
C3549 C3544 1.363 . S
C3549 C3548 1.415 . S
H3550 C3547 0.999 . S
H3551 C3532 0.913 . S
H3552 C3570 0.951 1_556 S
H3553 C3572 0.951 1_556 S
H3554 C3574 0.950 . S
H3555 C3575 0.950 . S
H3556 C3577 0.950 . S
H3557 C3580 0.950 . S
H3558 C3581 0.950 . S
H3559 C3583 0.950 . S
H3560 C3584 0.960 . S
H3561 C3585 0.951 . S
H3562 C3587 0.951 . S
H3563 C3589 0.950 . S
H3564 C3590 0.975 . S
H3565 C3592 0.950 1_545 S
H3566 C3595 0.950 . S
H3567 C3596 0.950 . S
H3568 C3598 0.950 . S
H3569 C3599 0.950 . S
C3570 H3552 0.951 1_554 S
C3570 C3571 1.366 . S
C3570 C3572 1.388 . S
C3571 C3570 1.366 . S
C3571 C3575 1.385 . S
C3572 H3553 0.951 1_554 S
C3572 C3570 1.388 . S
C3572 C3573 1.366 . S
C3573 C3572 1.366 . S
C3573 C3574 1.414 . S
C3573 C3576 1.499 . S
C3574 H3554 0.950 . S
C3574 C3573 1.414 . S
C3574 C3575 1.374 . S
C3575 H3555 0.950 . S
C3575 C3571 1.385 . S
C3575 C3574 1.374 . S
C3576 C3573 1.499 . S
C3576 C3577 1.373 . S
C3576 C3578 1.389 . S
C3577 H3556 0.950 . S
C3577 C3576 1.373 . S
C3577 C3593 1.377 . S
C3578 C3576 1.389 . S
C3578 C3579 1.483 1_565 S
C3578 C3592 1.377 . S
C3579 C3578 1.483 1_545 S
C3579 C3580 1.409 . S
C3579 C3584 1.399 1_554 S
C3580 H3557 0.950 . S
C3580 C3579 1.409 . S
C3580 C3581 1.334 . S
C3581 H3558 0.950 . S
C3581 C3580 1.334 . S
C3581 C3582 1.287 . S
C3582 C3581 1.287 . S
C3582 C3583 1.524 1_554 S
C3582 H3601 0.913 1_554 S
C3583 H3559 0.950 . S
C3583 C3582 1.524 1_556 S
C3583 C3584 1.415 . S
C3584 H3560 0.960 . S
C3584 C3579 1.399 1_556 S
C3584 C3583 1.415 . S
C3585 H3561 0.951 . S
C3585 C3586 1.366 . S
C3585 C3587 1.388 . S
C3586 C3585 1.366 . S
C3586 C3590 1.385 . S
C3587 H3562 0.951 . S
C3587 C3585 1.388 . S
C3587 C3588 1.366 . S
C3588 C3587 1.366 . S
C3588 C3589 1.414 . S
C3588 C3591 1.499 . S
C3589 H3563 0.950 . S
C3589 C3588 1.414 . S
C3589 C3590 1.374 . S
C3590 H3564 0.975 . S
C3590 C3586 1.385 . S
C3590 C3589 1.374 . S
C3591 C3588 1.499 . S
C3591 C3592 1.373 . S
C3591 C3593 1.389 . S
C3592 H3565 0.950 1_565 S
C3592 C3578 1.377 . S
C3592 C3591 1.373 . S
C3593 C3577 1.377 . S
C3593 C3591 1.389 . S
C3593 C3594 1.524 . S
C3594 C3593 1.524 . S
C3594 C3595 1.397 . S
C3594 C3599 1.363 . S
C3595 H3566 0.950 . S
C3595 C3594 1.397 . S
C3595 C3596 1.334 . S
C3596 H3567 0.950 . S
C3596 C3595 1.334 . S
C3596 C3597 1.287 . S
C3597 C3596 1.287 . S
C3597 C3598 1.524 . S
C3597 H3600 0.999 . S
C3598 H3568 0.950 . S
C3598 C3597 1.524 . S
C3598 C3599 1.415 . S
C3599 H3569 0.950 . S
C3599 C3594 1.363 . S
C3599 C3598 1.415 . S
H3600 C3597 0.999 . S
H3601 C3582 0.913 1_556 S
H3602 C3620 0.951 . S
H3603 C3622 0.951 . S
H3604 C3624 0.950 . S
H3605 C3625 0.950 . S
H3606 C3627 0.950 . S
H3607 C3630 0.950 . S
H3608 C3631 0.950 . S
H3609 C3633 0.950 . S
H3610 C3634 0.950 . S
H3611 C3635 0.951 . S
H3612 C3637 0.951 . S
H3613 C3639 0.950 . S
H3614 C3640 0.950 . S
H3615 C3642 0.950 . S
H3616 C3645 0.950 . S
H3617 C3646 0.950 . S
H3618 C3648 0.950 . S
H3619 C3649 0.950 . S
C3620 H3602 0.951 . S
C3620 C3621 1.366 . S
C3620 C3622 1.388 . S
C3621 C3620 1.366 . S
C3621 C3625 1.385 1_556 S
C3622 H3603 0.951 . S
C3622 C3620 1.388 . S
C3622 C3623 1.366 . S
C3623 C3622 1.366 . S
C3623 C3624 1.414 1_556 S
C3623 C3626 1.499 . S
C3624 H3604 0.950 . S
C3624 C3623 1.414 1_554 S
C3624 C3625 1.374 . S
C3625 H3605 0.950 . S
C3625 C3621 1.385 1_554 S
C3625 C3624 1.374 . S
C3626 C3623 1.499 . S
C3626 C3627 1.373 1_556 S
C3626 C3628 1.389 . S
C3627 H3606 0.950 . S
C3627 C3626 1.373 1_554 S
C3627 C3643 1.377 . S
C3628 C3626 1.389 . S
C3628 C3629 1.524 . S
C3628 C3642 1.377 . S
C3629 C3628 1.524 . S
C3629 C3630 1.397 . S
C3629 C3634 1.363 . S
C3630 H3607 0.950 . S
C3630 C3629 1.397 . S
C3630 C3631 1.334 . S
C3631 H3608 0.950 . S
C3631 C3630 1.334 . S
C3631 C3632 1.287 . S
C3632 C3631 1.287 . S
C3632 C3633 1.524 . S
C3632 H3651 0.913 . S
C3633 H3609 0.950 . S
C3633 C3632 1.524 . S
C3633 C3634 1.415 . S
C3634 H3610 0.950 . S
C3634 C3629 1.363 . S
C3634 C3633 1.415 . S
C3635 H3611 0.951 . S
C3635 C3636 1.366 . S
C3635 C3637 1.388 . S
C3636 C3635 1.366 . S
C3636 C3640 1.385 1_554 S
C3637 H3612 0.951 . S
C3637 C3635 1.388 . S
C3637 C3638 1.366 . S
C3638 C3637 1.366 . S
C3638 C3639 1.414 1_554 S
C3638 C3641 1.506 . S
C3639 H3613 0.950 . S
C3639 C3638 1.414 1_556 S
C3639 C3640 1.374 . S
C3640 H3614 0.950 . S
C3640 C3636 1.385 1_556 S
C3640 C3639 1.374 . S
C3641 C3638 1.506 . S
C3641 C3642 1.348 1_554 S
C3641 C3643 1.408 . S
C3642 H3615 0.950 . S
C3642 C3628 1.377 . S
C3642 C3641 1.348 1_556 S
C3643 C3627 1.377 . S
C3643 C3641 1.408 . S
C3643 C3644 1.524 . S
C3644 C3643 1.524 . S
C3644 C3645 1.397 . S
C3644 C3649 1.363 . S
C3645 H3616 0.950 . S
C3645 C3644 1.397 . S
C3645 C3646 1.334 . S
C3646 H3617 0.950 . S
C3646 C3645 1.334 . S
C3646 C3647 1.287 . S
C3647 C3646 1.287 . S
C3647 C3648 1.524 . S
C3647 H3650 0.999 . S
C3648 H3618 0.950 . S
C3648 C3647 1.524 . S
C3648 C3649 1.415 . S
C3649 H3619 0.950 . S
C3649 C3644 1.363 . S
C3649 C3648 1.415 . S
H3650 C3647 0.999 . S
H3651 C3632 0.913 . S
H3652 C3670 0.951 . S
H3653 C3672 0.951 . S
H3654 C3674 0.950 . S
H3655 C3675 0.950 . S
H3656 C3677 0.950 . S
H3657 C3680 0.950 . S
H3658 C3681 0.950 . S
H3659 C3683 0.950 . S
H3660 C3684 0.950 . S
H3661 C3685 0.951 . S
H3662 C3687 0.951 . S
H3663 C3689 0.950 . S
H3664 C3690 0.950 . S
H3665 C3692 0.950 . S
H3666 C3695 0.950 . S
H3667 C3696 0.950 . S
H3668 C3698 0.950 . S
H3669 C3699 0.950 . S
C3670 H3652 0.951 . S
C3670 C3671 1.366 . S
C3670 C3672 1.388 . S
C3671 C3670 1.366 . S
C3671 C3675 1.385 . S
C3672 H3653 0.951 . S
C3672 C3670 1.388 . S
C3672 C3673 1.366 . S
C3673 C3672 1.366 . S
C3673 C3674 1.414 . S
C3673 C3676 1.499 . S
C3674 H3654 0.950 . S
C3674 C3673 1.414 . S
C3674 C3675 1.374 . S
C3675 H3655 0.950 . S
C3675 C3671 1.385 . S
C3675 C3674 1.374 . S
C3676 C3673 1.499 . S
C3676 C3677 1.373 . S
C3676 C3678 1.389 . S
C3677 H3656 0.950 . S
C3677 C3676 1.373 . S
C3677 C3693 1.377 . S
C3678 C3676 1.389 . S
C3678 C3679 1.524 . S
C3678 C3692 1.377 . S
C3679 C3678 1.524 . S
C3679 C3680 1.397 . S
C3679 C3684 1.363 . S
C3680 H3657 0.950 . S
C3680 C3679 1.397 . S
C3680 C3681 1.334 . S
C3681 H3658 0.950 . S
C3681 C3680 1.334 . S
C3681 C3682 1.287 . S
C3682 C3681 1.287 . S
C3682 C3683 1.524 . S
C3682 H3701 0.913 . S
C3683 H3659 0.950 . S
C3683 C3682 1.524 . S
C3683 C3684 1.415 . S
C3684 H3660 0.950 . S
C3684 C3679 1.363 . S
C3684 C3683 1.415 . S
C3685 H3661 0.951 . S
C3685 C3686 1.366 . S
C3685 C3687 1.388 . S
C3686 C3685 1.366 . S
C3686 C3690 1.385 . S
C3687 H3662 0.951 . S
C3687 C3685 1.388 . S
C3687 C3688 1.366 . S
C3688 C3687 1.366 . S
C3688 C3689 1.414 . S
C3688 C3691 1.499 . S
C3689 H3663 0.950 . S
C3689 C3688 1.414 . S
C3689 C3690 1.374 . S
C3690 H3664 0.950 . S
C3690 C3686 1.385 . S
C3690 C3689 1.374 . S
C3691 C3688 1.499 . S
C3691 C3692 1.373 . S
C3691 C3693 1.389 . S
C3692 H3665 0.950 . S
C3692 C3678 1.377 . S
C3692 C3691 1.373 . S
C3693 C3677 1.377 . S
C3693 C3691 1.389 . S
C3693 C3694 1.524 . S
C3694 C3693 1.524 . S
C3694 C3695 1.397 . S
C3694 C3699 1.363 . S
C3695 H3666 0.950 . S
C3695 C3694 1.397 . S
C3695 C3696 1.334 . S
C3696 H3667 0.950 . S
C3696 C3695 1.334 . S
C3696 C3697 1.287 . S
C3697 C3696 1.287 . S
C3697 C3698 1.524 . S
C3697 H3700 0.999 . S
C3698 H3668 0.950 . S
C3698 C3697 1.524 . S
C3698 C3699 1.415 . S
C3699 H3669 0.950 . S
C3699 C3694 1.363 . S
C3699 C3698 1.415 . S
H3700 C3697 0.999 . S
H3701 C3682 0.913 . S
H3702 C3720 0.951 . S
H3703 C3722 0.951 . S
H3704 C3724 0.950 . S
H3705 C3725 0.950 . S
H3706 C3727 0.950 . S
H3707 C3730 0.950 . S
H3708 C3731 0.950 . S
H3709 C3733 0.950 . S
H3710 C3734 0.950 . S
H3711 C3735 0.951 . S
H3712 C3737 0.951 . S
H3713 C3739 0.950 . S
H3714 C3740 0.894 1_455 S
H3715 C3742 0.950 . S
H3716 C3745 0.950 . S
H3717 C3746 0.950 . S
H3718 C3748 0.950 . S
H3719 C3749 0.950 . S
C3720 H3702 0.951 . S
C3720 C3721 1.366 . S
C3720 C3722 1.388 . S
C3721 C3720 1.366 . S
C3721 C3725 1.385 . S
C3722 H3703 0.951 . S
C3722 C3720 1.388 . S
C3722 C3723 1.366 . S
C3723 C3722 1.366 . S
C3723 C3724 1.414 . S
C3723 C3726 1.499 . S
C3724 H3704 0.950 . S
C3724 C3723 1.414 . S
C3724 C3725 1.374 . S
C3725 H3705 0.950 . S
C3725 C3721 1.385 . S
C3725 C3724 1.374 . S
C3726 C3723 1.499 . S
C3726 C3727 1.373 . S
C3726 C3728 1.389 . S
C3727 H3706 0.950 . S
C3727 C3726 1.373 . S
C3727 C3743 1.377 . S
C3728 C3726 1.389 . S
C3728 C3729 1.524 . S
C3728 C3742 1.377 . S
C3729 C3728 1.524 . S
C3729 C3730 1.397 . S
C3729 C3734 1.363 . S
C3730 H3707 0.950 . S
C3730 C3729 1.397 . S
C3730 C3731 1.334 . S
C3731 H3708 0.950 . S
C3731 C3730 1.334 . S
C3731 C3732 1.287 . S
C3732 C3731 1.287 . S
C3732 C3733 1.524 . S
C3732 H3751 0.913 . S
C3733 H3709 0.950 . S
C3733 C3732 1.524 . S
C3733 C3734 1.415 . S
C3734 H3710 0.950 . S
C3734 C3729 1.363 . S
C3734 C3733 1.415 . S
C3735 H3711 0.951 . S
C3735 C3736 1.366 . S
C3735 C3737 1.388 . S
C3736 C3735 1.366 . S
C3736 C3740 1.385 . S
C3737 H3712 0.951 . S
C3737 C3735 1.388 . S
C3737 C3738 1.366 . S
C3738 C3737 1.366 . S
C3738 C3739 1.414 . S
C3738 C3741 1.499 . S
C3739 H3713 0.950 . S
C3739 C3738 1.414 . S
C3739 C3740 1.374 . S
C3740 H3714 0.894 1_655 S
C3740 C3736 1.385 . S
C3740 C3739 1.374 . S
C3741 C3738 1.499 . S
C3741 C3742 1.373 . S
C3741 C3743 1.389 . S
C3742 H3715 0.950 . S
C3742 C3728 1.377 . S
C3742 C3741 1.373 . S
C3743 C3727 1.377 . S
C3743 C3741 1.389 . S
C3743 C3744 1.524 . S
C3744 C3743 1.524 . S
C3744 C3745 1.397 . S
C3744 C3749 1.363 . S
C3745 H3716 0.950 . S
C3745 C3744 1.397 . S
C3745 C3746 1.334 . S
C3746 H3717 0.950 . S
C3746 C3745 1.334 . S
C3746 C3747 1.287 . S
C3747 C3746 1.287 . S
C3747 C3748 1.524 . S
C3747 H3750 0.999 . S
C3748 H3718 0.950 . S
C3748 C3747 1.524 . S
C3748 C3749 1.415 . S
C3749 H3719 0.950 . S
C3749 C3744 1.363 . S
C3749 C3748 1.415 . S
H3750 C3747 0.999 . S
H3751 C3732 0.913 . S
H3752 C3770 0.951 . S
H3753 C3772 0.951 . S
H3754 C3774 0.950 . S
H3755 C3775 0.950 . S
H3756 C3777 0.950 . S
H3757 C3780 0.950 . S
H3758 C3781 0.950 . S
H3759 C3783 0.950 . S
H3760 C3784 0.950 . S
H3761 C3785 0.951 . S
H3762 C3787 0.951 . S
H3763 C3789 0.950 . S
H3764 C3790 0.950 . S
H3765 C3792 0.950 . S
H3766 C3795 0.950 . S
H3767 C3796 0.950 . S
H3768 C3798 0.950 . S
H3769 C3799 0.950 . S
C3770 H3752 0.951 . S
C3770 C3771 1.366 . S
C3770 C3772 1.388 . S
C3771 C3770 1.366 . S
C3771 C3775 1.385 . S
C3772 H3753 0.951 . S
C3772 C3770 1.388 . S
C3772 C3773 1.366 . S
C3773 C3772 1.366 . S
C3773 C3774 1.414 . S
C3773 C3776 1.499 . S
C3774 H3754 0.950 . S
C3774 C3773 1.414 . S
C3774 C3775 1.374 . S
C3775 H3755 0.950 . S
C3775 C3771 1.385 . S
C3775 C3774 1.374 . S
C3776 C3773 1.499 . S
C3776 C3777 1.373 . S
C3776 C3778 1.389 . S
C3777 H3756 0.950 . S
C3777 C3776 1.373 . S
C3777 C3793 1.377 . S
C3778 C3776 1.389 . S
C3778 C3779 1.524 . S
C3778 C3792 1.377 . S
C3779 C3778 1.524 . S
C3779 C3780 1.397 . S
C3779 C3784 1.363 . S
C3780 H3757 0.950 . S
C3780 C3779 1.397 . S
C3780 C3781 1.334 . S
C3781 H3758 0.950 . S
C3781 C3780 1.334 . S
C3781 C3782 1.287 . S
C3782 C3781 1.287 . S
C3782 C3783 1.524 . S
C3782 H3801 0.913 . S
C3783 H3759 0.950 . S
C3783 C3782 1.524 . S
C3783 C3784 1.415 . S
C3784 H3760 0.950 . S
C3784 C3779 1.363 . S
C3784 C3783 1.415 . S
C3785 H3761 0.951 . S
C3785 C3786 1.366 . S
C3785 C3787 1.388 . S
C3786 C3785 1.366 . S
C3786 C3790 1.385 . S
C3787 H3762 0.951 . S
C3787 C3785 1.388 . S
C3787 C3788 1.366 . S
C3788 C3787 1.366 . S
C3788 C3789 1.414 . S
C3788 C3791 1.499 . S
C3789 H3763 0.950 . S
C3789 C3788 1.414 . S
C3789 C3790 1.374 . S
C3790 H3764 0.950 . S
C3790 C3786 1.385 . S
C3790 C3789 1.374 . S
C3791 C3788 1.499 . S
C3791 C3792 1.373 . S
C3791 C3793 1.389 . S
C3792 H3765 0.950 . S
C3792 C3778 1.377 . S
C3792 C3791 1.373 . S
C3793 C3777 1.377 . S
C3793 C3791 1.389 . S
C3793 C3794 1.524 . S
C3794 C3793 1.524 . S
C3794 C3795 1.397 . S
C3794 C3799 1.363 . S
C3795 H3766 0.950 . S
C3795 C3794 1.397 . S
C3795 C3796 1.334 . S
C3796 H3767 0.950 . S
C3796 C3795 1.334 . S
C3796 C3797 1.287 . S
C3797 C3796 1.287 . S
C3797 C3798 1.524 . S
C3797 H3800 0.999 . S
C3798 H3768 0.950 . S
C3798 C3797 1.524 . S
C3798 C3799 1.415 . S
C3799 H3769 0.950 . S
C3799 C3794 1.363 . S
C3799 C3798 1.415 . S
H3800 C3797 0.999 . S
H3801 C3782 0.913 . S
H3802 C3820 0.951 . S
H3803 C3822 0.951 . S
H3804 C3824 0.950 . S
H3805 C3825 0.950 . S
H3806 C3827 0.950 . S
H3807 C3830 0.950 . S
H3808 C3831 0.950 . S
H3809 C3833 0.950 . S
H3810 C3834 0.950 . S
H3811 C3835 0.951 . S
H3812 C3837 0.951 . S
H3813 C3839 0.950 . S
H3814 C3840 0.950 . S
H3815 C3842 0.950 . S
H3816 C3845 0.950 . S
H3817 C3846 0.950 . S
H3818 C3848 0.950 . S
H3819 C3849 0.950 . S
C3820 H3802 0.951 . S
C3820 C3821 1.366 . S
C3820 C3822 1.388 . S
C3821 C3820 1.366 . S
C3821 C3825 1.385 . S
C3822 H3803 0.951 . S
C3822 C3820 1.388 . S
C3822 C3823 1.366 . S
C3823 C3822 1.366 . S
C3823 C3824 1.414 . S
C3823 C3826 1.499 . S
C3824 H3804 0.950 . S
C3824 C3823 1.414 . S
C3824 C3825 1.374 . S
C3825 H3805 0.950 . S
C3825 C3821 1.385 . S
C3825 C3824 1.374 . S
C3826 C3823 1.499 . S
C3826 C3827 1.373 . S
C3826 C3828 1.389 . S
C3827 H3806 0.950 . S
C3827 C3826 1.373 . S
C3827 C3843 1.377 . S
C3828 C3826 1.389 . S
C3828 C3829 1.524 . S
C3828 C3842 1.377 . S
C3829 C3828 1.524 . S
C3829 C3830 1.397 . S
C3829 C3834 1.363 . S
C3830 H3807 0.950 . S
C3830 C3829 1.397 . S
C3830 C3831 1.334 . S
C3831 H3808 0.950 . S
C3831 C3830 1.334 . S
C3831 C3832 1.287 . S
C3832 C3831 1.287 . S
C3832 C3833 1.524 . S
C3832 H3851 0.913 . S
C3833 H3809 0.950 . S
C3833 C3832 1.524 . S
C3833 C3834 1.415 . S
C3834 H3810 0.950 . S
C3834 C3829 1.363 . S
C3834 C3833 1.415 . S
C3835 H3811 0.951 . S
C3835 C3836 1.366 . S
C3835 C3837 1.388 . S
C3836 C3835 1.366 . S
C3836 C3840 1.385 . S
C3837 H3812 0.951 . S
C3837 C3835 1.388 . S
C3837 C3838 1.366 . S
C3838 C3837 1.366 . S
C3838 C3839 1.414 . S
C3838 C3841 1.499 . S
C3839 H3813 0.950 . S
C3839 C3838 1.414 . S
C3839 C3840 1.374 . S
C3840 H3814 0.950 . S
C3840 C3836 1.385 . S
C3840 C3839 1.374 . S
C3841 C3838 1.499 . S
C3841 C3842 1.373 . S
C3841 C3843 1.389 . S
C3842 H3815 0.950 . S
C3842 C3828 1.377 . S
C3842 C3841 1.373 . S
C3843 C3827 1.377 . S
C3843 C3841 1.389 . S
C3843 C3844 1.524 . S
C3844 C3843 1.524 . S
C3844 C3845 1.397 . S
C3844 C3849 1.363 . S
C3845 H3816 0.950 . S
C3845 C3844 1.397 . S
C3845 C3846 1.334 . S
C3846 H3817 0.950 . S
C3846 C3845 1.334 . S
C3846 C3847 1.287 . S
C3847 C3846 1.287 . S
C3847 C3848 1.524 . S
C3847 H3850 0.999 . S
C3848 H3818 0.950 . S
C3848 C3847 1.524 . S
C3848 C3849 1.415 . S
C3849 H3819 0.950 . S
C3849 C3844 1.363 . S
C3849 C3848 1.415 . S
H3850 C3847 0.999 . S
H3851 C3832 0.913 . S
H3852 C3870 0.951 . S
H3853 C3872 0.951 . S
H3854 C3874 0.950 . S
H3855 C3875 0.950 . S
H3856 C3877 0.950 . S
H3857 C3880 0.950 . S
H3858 C3881 0.950 . S
H3859 C3883 0.950 . S
H3860 C3884 0.950 . S
H3861 C3885 0.951 . S
H3862 C3887 0.951 . S
H3863 C3889 0.950 . S
H3864 C3890 0.950 . S
H3865 C3892 0.950 . S
H3866 C3895 0.950 . S
H3867 C3896 0.950 . S
H3868 C3898 0.950 . S
H3869 C3899 0.950 . S
C3870 H3852 0.951 . S
C3870 C3871 1.366 . S
C3870 C3872 1.388 . S
C3871 C3870 1.366 . S
C3871 C3875 1.385 . S
C3872 H3853 0.951 . S
C3872 C3870 1.388 . S
C3872 C3873 1.366 . S
C3873 C3872 1.366 . S
C3873 C3874 1.414 . S
C3873 C3876 1.499 . S
C3874 H3854 0.950 . S
C3874 C3873 1.414 . S
C3874 C3875 1.374 . S
C3875 H3855 0.950 . S
C3875 C3871 1.385 . S
C3875 C3874 1.374 . S
C3876 C3873 1.499 . S
C3876 C3877 1.373 . S
C3876 C3878 1.389 . S
C3877 H3856 0.950 . S
C3877 C3876 1.373 . S
C3877 C3893 1.377 . S
C3878 C3876 1.389 . S
C3878 C3879 1.524 . S
C3878 C3892 1.377 . S
C3879 C3878 1.524 . S
C3879 C3880 1.397 . S
C3879 C3884 1.363 . S
C3880 H3857 0.950 . S
C3880 C3879 1.397 . S
C3880 C3881 1.334 . S
C3881 H3858 0.950 . S
C3881 C3880 1.334 . S
C3881 C3882 1.287 . S
C3882 C3881 1.287 . S
C3882 C3883 1.524 . S
C3882 H3901 0.913 . S
C3883 H3859 0.950 . S
C3883 C3882 1.524 . S
C3883 C3884 1.415 . S
C3884 H3860 0.950 . S
C3884 C3879 1.363 . S
C3884 C3883 1.415 . S
C3885 H3861 0.951 . S
C3885 C3886 1.366 . S
C3885 C3887 1.388 . S
C3886 C3885 1.366 . S
C3886 C3890 1.385 . S
C3887 H3862 0.951 . S
C3887 C3885 1.388 . S
C3887 C3888 1.366 . S
C3888 C3887 1.366 . S
C3888 C3889 1.414 . S
C3888 C3891 1.499 . S
C3889 H3863 0.950 . S
C3889 C3888 1.414 . S
C3889 C3890 1.374 . S
C3890 H3864 0.950 . S
C3890 C3886 1.385 . S
C3890 C3889 1.374 . S
C3891 C3888 1.499 . S
C3891 C3892 1.373 . S
C3891 C3893 1.389 . S
C3892 H3865 0.950 . S
C3892 C3878 1.377 . S
C3892 C3891 1.373 . S
C3893 C3877 1.377 . S
C3893 C3891 1.389 . S
C3893 C3894 1.524 . S
C3894 C3893 1.524 . S
C3894 C3895 1.397 . S
C3894 C3899 1.363 . S
C3895 H3866 0.950 . S
C3895 C3894 1.397 . S
C3895 C3896 1.334 . S
C3896 H3867 0.950 . S
C3896 C3895 1.334 . S
C3896 C3897 1.287 . S
C3897 C3896 1.287 . S
C3897 C3898 1.524 . S
C3897 H3900 0.999 . S
C3898 H3868 0.950 . S
C3898 C3897 1.524 . S
C3898 C3899 1.415 . S
C3899 H3869 0.950 . S
C3899 C3894 1.363 . S
C3899 C3898 1.415 . S
H3900 C3897 0.999 . S
H3901 C3882 0.913 . S
H3902 C3920 0.951 . S
H3903 C3922 0.951 . S
H3904 C3924 0.950 . S
H3905 C3925 0.950 . S
H3906 C3927 0.950 . S
H3907 C3930 0.950 . S
H3908 C3931 0.950 . S
H3909 C3933 0.950 . S
H3910 C3934 0.950 . S
H3911 C3935 0.951 . S
H3912 C3937 0.951 . S
H3913 C3939 0.950 . S
H3914 C3940 0.950 . S
H3915 C3942 0.950 . S
H3916 C3945 0.950 . S
H3917 C3946 0.950 . S
H3918 C3948 0.950 . S
H3919 C3949 0.950 . S
C3920 H3902 0.951 . S
C3920 C3921 1.366 . S
C3920 C3922 1.388 . S
C3921 C3920 1.366 . S
C3921 C3925 1.385 . S
C3922 H3903 0.951 . S
C3922 C3920 1.388 . S
C3922 C3923 1.366 . S
C3923 C3922 1.366 . S
C3923 C3924 1.414 . S
C3923 C3926 1.499 . S
C3924 H3904 0.950 . S
C3924 C3923 1.414 . S
C3924 C3925 1.374 . S
C3925 H3905 0.950 . S
C3925 C3921 1.385 . S
C3925 C3924 1.374 . S
C3926 C3923 1.499 . S
C3926 C3927 1.373 . S
C3926 C3928 1.389 . S
C3927 H3906 0.950 . S
C3927 C3926 1.373 . S
C3927 C3943 1.377 . S
C3928 C3926 1.389 . S
C3928 C3929 1.524 . S
C3928 C3942 1.377 . S
C3929 C3928 1.524 . S
C3929 C3930 1.397 . S
C3929 C3934 1.363 . S
C3930 H3907 0.950 . S
C3930 C3929 1.397 . S
C3930 C3931 1.334 . S
C3931 H3908 0.950 . S
C3931 C3930 1.334 . S
C3931 C3932 1.287 . S
C3932 C3931 1.287 . S
C3932 C3933 1.524 . S
C3932 H3951 0.913 . S
C3933 H3909 0.950 . S
C3933 C3932 1.524 . S
C3933 C3934 1.415 . S
C3934 H3910 0.950 . S
C3934 C3929 1.363 . S
C3934 C3933 1.415 . S
C3935 H3911 0.951 . S
C3935 C3936 1.366 . S
C3935 C3937 1.388 . S
C3936 C3935 1.366 . S
C3936 C3940 1.385 . S
C3937 H3912 0.951 . S
C3937 C3935 1.388 . S
C3937 C3938 1.366 . S
C3938 C3937 1.366 . S
C3938 C3939 1.414 . S
C3938 C3941 1.499 . S
C3939 H3913 0.950 . S
C3939 C3938 1.414 . S
C3939 C3940 1.374 . S
C3940 H3914 0.950 . S
C3940 C3936 1.385 . S
C3940 C3939 1.374 . S
C3941 C3938 1.499 . S
C3941 C3942 1.373 . S
C3941 C3943 1.389 . S
C3942 H3915 0.950 . S
C3942 C3928 1.377 . S
C3942 C3941 1.373 . S
C3943 C3927 1.377 . S
C3943 C3941 1.389 . S
C3943 C3944 1.524 . S
C3944 C3943 1.524 . S
C3944 C3945 1.397 . S
C3944 C3949 1.363 . S
C3945 H3916 0.950 . S
C3945 C3944 1.397 . S
C3945 C3946 1.334 . S
C3946 H3917 0.950 . S
C3946 C3945 1.334 . S
C3946 C3947 1.287 . S
C3947 C3946 1.287 . S
C3947 C3948 1.524 . S
C3947 H3950 0.999 . S
C3948 H3918 0.950 . S
C3948 C3947 1.524 . S
C3948 C3949 1.415 . S
C3949 H3919 0.950 . S
C3949 C3944 1.363 . S
C3949 C3948 1.415 . S
H3950 C3947 0.999 . S
H3951 C3932 0.913 . S
H3952 C3970 0.951 . S
H3953 C3972 0.951 . S
H3954 C3974 0.950 . S
H3955 C3975 0.950 . S
H3956 C3977 0.950 . S
H3957 C3980 0.950 . S
H3958 C3981 0.950 . S
H3959 C3983 0.944 1_656 S
H3960 C3984 0.950 . S
H3961 C3985 0.951 . S
H3962 C3987 0.951 . S
H3963 C3989 0.950 . S
H3964 C3990 0.950 . S
H3965 C3992 0.950 . S
H3966 C3995 0.950 . S
H3967 C3996 0.950 . S
H3968 C3998 0.950 . S
H3969 C3999 0.950 . S
C3970 H3952 0.951 . S
C3970 C3971 1.366 . S
C3970 C3972 1.388 . S
C3971 C3970 1.366 . S
C3971 C3975 1.385 . S
C3972 H3953 0.951 . S
C3972 C3970 1.388 . S
C3972 C3973 1.366 . S
C3973 C3972 1.366 . S
C3973 C3974 1.414 . S
C3973 C3976 1.499 . S
C3974 H3954 0.950 . S
C3974 C3973 1.414 . S
C3974 C3975 1.374 . S
C3975 H3955 0.950 . S
C3975 C3971 1.385 . S
C3975 C3974 1.374 . S
C3976 C3973 1.499 . S
C3976 C3977 1.373 . S
C3976 C3978 1.389 . S
C3977 H3956 0.950 . S
C3977 C3976 1.373 . S
C3977 C3993 1.377 . S
C3978 C3976 1.389 . S
C3978 C3979 1.524 . S
C3978 C3992 1.377 . S
C3979 C3978 1.524 . S
C3979 C3980 1.397 . S
C3979 C3984 1.363 . S
C3980 H3957 0.950 . S
C3980 C3979 1.397 . S
C3980 C3981 1.334 1_554 S
C3981 H3958 0.950 . S
C3981 C3980 1.334 1_556 S
C3981 C3982 1.287 . S
C3982 C3981 1.287 . S
C3982 C3983 1.504 1_556 S
C3982 H4001 0.913 . S
C3983 H3959 0.944 1_454 S
C3983 C3982 1.504 1_554 S
C3983 C3984 1.444 . S
C3984 H3960 0.950 . S
C3984 C3979 1.363 . S
C3984 C3983 1.444 . S
C3985 H3961 0.951 . S
C3985 C3986 1.366 . S
C3985 C3987 1.388 . S
C3986 C3985 1.366 . S
C3986 C3990 1.385 . S
C3987 H3962 0.951 . S
C3987 C3985 1.388 . S
C3987 C3988 1.366 . S
C3988 C3987 1.366 . S
C3988 C3989 1.414 . S
C3988 C3991 1.499 . S
C3989 H3963 0.950 . S
C3989 C3988 1.414 . S
C3989 C3990 1.374 . S
C3990 H3964 0.950 . S
C3990 C3986 1.385 . S
C3990 C3989 1.374 . S
C3991 C3988 1.499 . S
C3991 C3992 1.373 . S
C3991 C3993 1.389 . S
C3992 H3965 0.950 . S
C3992 C3978 1.377 . S
C3992 C3991 1.373 . S
C3993 C3977 1.377 . S
C3993 C3991 1.389 . S
C3993 C3994 1.524 . S
C3994 C3993 1.524 . S
C3994 C3995 1.397 . S
C3994 C3999 1.363 . S
C3995 H3966 0.950 . S
C3995 C3994 1.397 . S
C3995 C3996 1.334 . S
C3996 H3967 0.950 . S
C3996 C3995 1.334 . S
C3996 C3997 1.287 . S
C3997 C3996 1.287 . S
C3997 C3998 1.524 . S
C3997 H4000 0.999 . S
C3998 H3968 0.950 . S
C3998 C3997 1.524 . S
C3998 C3999 1.415 . S
C3999 H3969 0.950 . S
C3999 C3994 1.363 . S
C3999 C3998 1.415 . S
H4000 C3997 0.999 . S
H4001 C3982 0.913 . S
H4002 C4020 0.951 . S
H4003 C4022 0.951 . S
H4004 C4024 0.950 . S
H4005 C4025 0.950 . S
H4006 C4027 0.950 . S
H4007 C4030 0.950 . S
H4008 C4031 0.950 . S
H4009 C4033 0.950 . S
H4010 C4034 0.950 . S
H4011 C4035 0.951 . S
H4012 C4037 0.951 . S
H4013 C4039 0.950 . S
H4014 C4040 0.950 . S
H4015 C4042 0.950 . S
H4016 C4045 0.950 . S
H4017 C4046 0.950 . S
H4018 C4048 0.950 . S
H4019 C4049 0.950 . S
C4020 H4002 0.951 . S
C4020 C4021 1.366 . S
C4020 C4022 1.388 . S
C4021 C4020 1.366 . S
C4021 C4025 1.385 . S
C4022 H4003 0.951 . S
C4022 C4020 1.388 . S
C4022 C4023 1.366 . S
C4023 C4022 1.366 . S
C4023 C4024 1.414 . S
C4023 C4026 1.499 . S
C4024 H4004 0.950 . S
C4024 C4023 1.414 . S
C4024 C4025 1.374 . S
C4025 H4005 0.950 . S
C4025 C4021 1.385 . S
C4025 C4024 1.374 . S
C4026 C4023 1.499 . S
C4026 C4027 1.373 . S
C4026 C4028 1.389 . S
C4027 H4006 0.950 . S
C4027 C4026 1.373 . S
C4027 C4043 1.377 . S
C4028 C4026 1.389 . S
C4028 C4029 1.524 . S
C4028 C4042 1.377 . S
C4029 C4028 1.524 . S
C4029 C4030 1.397 . S
C4029 C4034 1.363 . S
C4030 H4007 0.950 . S
C4030 C4029 1.397 . S
C4030 C4031 1.334 . S
C4031 H4008 0.950 . S
C4031 C4030 1.334 . S
C4031 C4032 1.287 . S
C4032 C4031 1.287 . S
C4032 C4033 1.524 . S
C4032 H4051 0.913 . S
C4033 H4009 0.950 . S
C4033 C4032 1.524 . S
C4033 C4034 1.415 . S
C4034 H4010 0.950 . S
C4034 C4029 1.363 . S
C4034 C4033 1.415 . S
C4035 H4011 0.951 . S
C4035 C4036 1.366 . S
C4035 C4037 1.388 . S
C4036 C4035 1.366 . S
C4036 C4040 1.385 . S
C4037 H4012 0.951 . S
C4037 C4035 1.388 . S
C4037 C4038 1.366 . S
C4038 C4037 1.366 . S
C4038 C4039 1.414 . S
C4038 C4041 1.499 . S
C4039 H4013 0.950 . S
C4039 C4038 1.414 . S
C4039 C4040 1.374 . S
C4040 H4014 0.950 . S
C4040 C4036 1.385 . S
C4040 C4039 1.374 . S
C4041 C4038 1.499 . S
C4041 C4042 1.373 . S
C4041 C4043 1.389 . S
C4042 H4015 0.950 . S
C4042 C4028 1.377 . S
C4042 C4041 1.373 . S
C4043 C4027 1.377 . S
C4043 C4041 1.389 . S
C4043 C4044 1.524 . S
C4044 C4043 1.524 . S
C4044 C4045 1.397 . S
C4044 C4049 1.363 . S
C4045 H4016 0.950 . S
C4045 C4044 1.397 . S
C4045 C4046 1.334 . S
C4046 H4017 0.950 . S
C4046 C4045 1.334 . S
C4046 C4047 1.287 . S
C4047 C4046 1.287 . S
C4047 C4048 1.524 . S
C4047 H4050 0.999 . S
C4048 H4018 0.950 . S
C4048 C4047 1.524 . S
C4048 C4049 1.415 . S
C4049 H4019 0.950 . S
C4049 C4044 1.363 . S
C4049 C4048 1.415 . S
H4050 C4047 0.999 . S
H4051 C4032 0.913 . S
H4052 C4070 0.951 . S
H4053 C4072 0.951 . S
H4054 C4074 0.950 . S
H4055 C4075 0.950 . S
H4056 C4077 0.950 . S
H4057 C4080 0.950 . S
H4058 C4081 0.950 . S
H4059 C4083 0.950 . S
H4060 C4084 0.950 . S
H4061 C4085 0.951 . S
H4062 C4087 0.951 . S
H4063 C4089 0.950 . S
H4064 C4090 0.950 . S
H4065 C4092 0.950 . S
H4066 C4095 0.950 . S
H4067 C4096 0.950 . S
H4068 C4098 0.950 . S
H4069 C4099 0.950 . S
C4070 H4052 0.951 . S
C4070 C4071 1.366 . S
C4070 C4072 1.388 . S
C4071 C4070 1.366 . S
C4071 C4075 1.385 . S
C4072 H4053 0.951 . S
C4072 C4070 1.388 . S
C4072 C4073 1.366 . S
C4073 C4072 1.366 . S
C4073 C4074 1.414 . S
C4073 C4076 1.499 . S
C4074 H4054 0.950 . S
C4074 C4073 1.414 . S
C4074 C4075 1.374 . S
C4075 H4055 0.950 . S
C4075 C4071 1.385 . S
C4075 C4074 1.374 . S
C4076 C4073 1.499 . S
C4076 C4077 1.373 . S
C4076 C4078 1.389 . S
C4077 H4056 0.950 . S
C4077 C4076 1.373 . S
C4077 C4093 1.377 . S
C4078 C4076 1.389 . S
C4078 C4079 1.524 . S
C4078 C4092 1.377 . S
C4079 C4078 1.524 . S
C4079 C4080 1.397 . S
C4079 C4084 1.363 . S
C4080 H4057 0.950 . S
C4080 C4079 1.397 . S
C4080 C4081 1.334 . S
C4081 H4058 0.950 . S
C4081 C4080 1.334 . S
C4081 C4082 1.287 . S
C4082 C4081 1.287 . S
C4082 C4083 1.524 . S
C4082 H4101 0.913 . S
C4083 H4059 0.950 . S
C4083 C4082 1.524 . S
C4083 C4084 1.415 . S
C4084 H4060 0.950 . S
C4084 C4079 1.363 . S
C4084 C4083 1.415 . S
C4085 H4061 0.951 . S
C4085 C4086 1.366 . S
C4085 C4087 1.388 . S
C4086 C4085 1.366 . S
C4086 C4090 1.385 . S
C4087 H4062 0.951 . S
C4087 C4085 1.388 . S
C4087 C4088 1.366 . S
C4088 C4087 1.366 . S
C4088 C4089 1.414 . S
C4088 C4091 1.499 . S
C4089 H4063 0.950 . S
C4089 C4088 1.414 . S
C4089 C4090 1.374 . S
C4090 H4064 0.950 . S
C4090 C4086 1.385 . S
C4090 C4089 1.374 . S
C4091 C4088 1.499 . S
C4091 C4092 1.373 . S
C4091 C4093 1.389 . S
C4092 H4065 0.950 . S
C4092 C4078 1.377 . S
C4092 C4091 1.373 . S
C4093 C4077 1.377 . S
C4093 C4091 1.389 . S
C4093 C4094 1.524 . S
C4094 C4093 1.524 . S
C4094 C4095 1.397 . S
C4094 C4099 1.363 . S
C4095 H4066 0.950 . S
C4095 C4094 1.397 . S
C4095 C4096 1.334 . S
C4096 H4067 0.950 . S
C4096 C4095 1.334 . S
C4096 C4097 1.287 . S
C4097 C4096 1.287 . S
C4097 C4098 1.524 . S
C4097 H4100 0.999 . S
C4098 H4068 0.950 . S
C4098 C4097 1.524 . S
C4098 C4099 1.415 . S
C4099 H4069 0.950 . S
C4099 C4094 1.363 . S
C4099 C4098 1.415 . S
H4100 C4097 0.999 . S
H4101 C4082 0.913 . S
H4102 C4120 0.951 . S
H4103 C4122 0.951 . S
H4104 C4124 0.950 . S
H4105 C4125 0.950 . S
H4106 C4127 0.950 . S
H4107 C4130 0.950 . S
H4108 C4131 0.950 . S
H4109 C4133 0.950 . S
H4110 C4134 0.950 . S
H4111 C4135 0.951 . S
H4112 C4137 0.951 . S
H4113 C4139 0.950 . S
H4114 C4140 0.950 . S
H4115 C4142 0.950 . S
H4116 C4145 0.950 . S
H4117 C4146 0.950 . S
H4118 C4148 0.950 . S
H4119 C4149 0.950 . S
C4120 H4102 0.951 . S
C4120 C4121 1.366 . S
C4120 C4122 1.388 . S
C4121 C4120 1.366 . S
C4121 C4125 1.385 . S
C4122 H4103 0.951 . S
C4122 C4120 1.388 . S
C4122 C4123 1.366 . S
C4123 C4122 1.366 . S
C4123 C4124 1.414 . S
C4123 C4126 1.499 . S
C4124 H4104 0.950 . S
C4124 C4123 1.414 . S
C4124 C4125 1.374 . S
C4125 H4105 0.950 . S
C4125 C4121 1.385 . S
C4125 C4124 1.374 . S
C4126 C4123 1.499 . S
C4126 C4127 1.373 . S
C4126 C4128 1.389 . S
C4127 H4106 0.950 . S
C4127 C4126 1.373 . S
C4127 C4143 1.377 . S
C4128 C4126 1.389 . S
C4128 C4129 1.524 . S
C4128 C4142 1.377 . S
C4129 C4128 1.524 . S
C4129 C4130 1.397 . S
C4129 C4134 1.363 . S
C4130 H4107 0.950 . S
C4130 C4129 1.397 . S
C4130 C4131 1.334 . S
C4131 H4108 0.950 . S
C4131 C4130 1.334 . S
C4131 C4132 1.287 . S
C4132 C4131 1.287 . S
C4132 C4133 1.524 . S
C4132 H4151 0.913 . S
C4133 H4109 0.950 . S
C4133 C4132 1.524 . S
C4133 C4134 1.415 . S
C4134 H4110 0.950 . S
C4134 C4129 1.363 . S
C4134 C4133 1.415 . S
C4135 H4111 0.951 . S
C4135 C4136 1.366 . S
C4135 C4137 1.388 . S
C4136 C4135 1.366 . S
C4136 C4140 1.385 . S
C4137 H4112 0.951 . S
C4137 C4135 1.388 . S
C4137 C4138 1.366 . S
C4138 C4137 1.366 . S
C4138 C4139 1.414 . S
C4138 C4141 1.499 . S
C4139 H4113 0.950 . S
C4139 C4138 1.414 . S
C4139 C4140 1.374 . S
C4140 H4114 0.950 . S
C4140 C4136 1.385 . S
C4140 C4139 1.374 . S
C4141 C4138 1.499 . S
C4141 C4142 1.373 . S
C4141 C4143 1.389 . S
C4142 H4115 0.950 . S
C4142 C4128 1.377 . S
C4142 C4141 1.373 . S
C4143 C4127 1.377 . S
C4143 C4141 1.389 . S
C4143 C4144 1.524 . S
C4144 C4143 1.524 . S
C4144 C4145 1.397 . S
C4144 C4149 1.363 . S
C4145 H4116 0.950 . S
C4145 C4144 1.397 . S
C4145 C4146 1.334 . S
C4146 H4117 0.950 . S
C4146 C4145 1.334 . S
C4146 C4147 1.287 . S
C4147 C4146 1.287 . S
C4147 C4148 1.524 . S
C4147 H4150 0.999 . S
C4148 H4118 0.950 . S
C4148 C4147 1.524 . S
C4148 C4149 1.415 . S
C4149 H4119 0.950 . S
C4149 C4144 1.363 . S
C4149 C4148 1.415 . S
H4150 C4147 0.999 . S
H4151 C4132 0.913 . S
H4152 C4170 0.951 . S
H4153 C4172 0.951 . S
H4154 C4174 0.950 . S
H4155 C4175 0.950 . S
H4156 C4177 0.950 . S
H4157 C4180 0.950 . S
H4158 C4181 0.950 . S
H4159 C4183 0.950 . S
H4160 C4184 0.950 . S
H4161 C4185 0.951 . S
H4162 C4187 0.951 . S
H4163 C4189 0.950 . S
H4164 C4190 0.950 . S
H4165 C4192 0.950 . S
H4166 C4195 0.950 . S
H4167 C4196 0.950 . S
H4168 C4198 0.950 . S
H4169 C4199 0.950 . S
C4170 H4152 0.951 . S
C4170 C4171 1.366 . S
C4170 C4172 1.388 . S
C4171 C4170 1.366 . S
C4171 C4175 1.385 . S
C4172 H4153 0.951 . S
C4172 C4170 1.388 . S
C4172 C4173 1.366 . S
C4173 C4172 1.366 . S
C4173 C4174 1.414 . S
C4173 C4176 1.499 . S
C4174 H4154 0.950 . S
C4174 C4173 1.414 . S
C4174 C4175 1.374 . S
C4175 H4155 0.950 . S
C4175 C4171 1.385 . S
C4175 C4174 1.374 . S
C4176 C4173 1.499 . S
C4176 C4177 1.373 . S
C4176 C4178 1.389 . S
C4177 H4156 0.950 . S
C4177 C4176 1.373 . S
C4177 C4193 1.377 . S
C4178 C4176 1.389 . S
C4178 C4179 1.524 . S
C4178 C4192 1.377 . S
C4179 C4178 1.524 . S
C4179 C4180 1.397 . S
C4179 C4184 1.363 . S
C4180 H4157 0.950 . S
C4180 C4179 1.397 . S
C4180 C4181 1.334 . S
C4181 H4158 0.950 . S
C4181 C4180 1.334 . S
C4181 C4182 1.287 . S
C4182 C4181 1.287 . S
C4182 C4183 1.524 . S
C4182 H4201 0.913 . S
C4183 H4159 0.950 . S
C4183 C4182 1.524 . S
C4183 C4184 1.415 . S
C4184 H4160 0.950 . S
C4184 C4179 1.363 . S
C4184 C4183 1.415 . S
C4185 H4161 0.951 . S
C4185 C4186 1.366 . S
C4185 C4187 1.388 . S
C4186 C4185 1.366 . S
C4186 C4190 1.385 . S
C4187 H4162 0.951 . S
C4187 C4185 1.388 . S
C4187 C4188 1.366 . S
C4188 C4187 1.366 . S
C4188 C4189 1.414 . S
C4188 C4191 1.499 . S
C4189 H4163 0.950 . S
C4189 C4188 1.414 . S
C4189 C4190 1.374 . S
C4190 H4164 0.950 . S
C4190 C4186 1.385 . S
C4190 C4189 1.374 . S
C4191 C4188 1.499 . S
C4191 C4192 1.373 . S
C4191 C4193 1.389 . S
C4192 H4165 0.950 . S
C4192 C4178 1.377 . S
C4192 C4191 1.373 . S
C4193 C4177 1.377 . S
C4193 C4191 1.389 . S
C4193 C4194 1.524 . S
C4194 C4193 1.524 . S
C4194 C4195 1.397 . S
C4194 C4199 1.363 . S
C4195 H4166 0.950 . S
C4195 C4194 1.397 . S
C4195 C4196 1.334 . S
C4196 H4167 0.950 . S
C4196 C4195 1.334 . S
C4196 C4197 1.287 . S
C4197 C4196 1.287 . S
C4197 C4198 1.524 . S
C4197 H4200 0.999 . S
C4198 H4168 0.950 . S
C4198 C4197 1.524 . S
C4198 C4199 1.415 . S
C4199 H4169 0.950 . S
C4199 C4194 1.363 . S
C4199 C4198 1.415 . S
H4200 C4197 0.999 . S
H4201 C4182 0.913 . S
H4202 C4220 0.951 . S
H4203 C4222 0.951 . S
H4204 C4224 0.950 . S
H4205 C4225 0.950 . S
H4206 C4227 0.950 . S
H4207 C4230 0.950 . S
H4208 C4231 0.950 . S
H4209 C4233 0.950 . S
H4210 C4234 0.950 . S
H4211 C4235 0.951 . S
H4212 C4237 0.951 . S
H4213 C4239 0.950 . S
H4214 C4240 0.950 . S
H4215 C4242 0.950 . S
H4216 C4245 0.950 . S
H4217 C4246 0.950 . S
H4218 C4248 0.950 . S
H4219 C4249 0.950 . S
C4220 H4202 0.951 . S
C4220 C4221 1.366 . S
C4220 C4222 1.388 . S
C4221 C4220 1.366 . S
C4221 C4225 1.385 . S
C4222 H4203 0.951 . S
C4222 C4220 1.388 . S
C4222 C4223 1.366 . S
C4223 C4222 1.366 . S
C4223 C4224 1.414 . S
C4223 C4226 1.499 . S
C4224 H4204 0.950 . S
C4224 C4223 1.414 . S
C4224 C4225 1.374 . S
C4225 H4205 0.950 . S
C4225 C4221 1.385 . S
C4225 C4224 1.374 . S
C4226 C4223 1.499 . S
C4226 C4227 1.373 . S
C4226 C4228 1.389 . S
C4227 H4206 0.950 . S
C4227 C4226 1.373 . S
C4227 C4243 1.377 . S
C4228 C4226 1.389 . S
C4228 C4229 1.524 . S
C4228 C4242 1.377 . S
C4229 C4228 1.524 . S
C4229 C4230 1.397 . S
C4229 C4234 1.363 . S
C4230 H4207 0.950 . S
C4230 C4229 1.397 . S
C4230 C4231 1.334 . S
C4231 H4208 0.950 . S
C4231 C4230 1.334 . S
C4231 C4232 1.287 . S
C4232 C4231 1.287 . S
C4232 C4233 1.524 . S
C4232 H4251 0.913 . S
C4233 H4209 0.950 . S
C4233 C4232 1.524 . S
C4233 C4234 1.415 . S
C4234 H4210 0.950 . S
C4234 C4229 1.363 . S
C4234 C4233 1.415 . S
C4235 H4211 0.951 . S
C4235 C4236 1.366 . S
C4235 C4237 1.388 . S
C4236 C4235 1.366 . S
C4236 C4240 1.385 . S
C4237 H4212 0.951 . S
C4237 C4235 1.388 . S
C4237 C4238 1.366 . S
C4238 C4237 1.366 . S
C4238 C4239 1.414 . S
C4238 C4241 1.499 . S
C4239 H4213 0.950 . S
C4239 C4238 1.414 . S
C4239 C4240 1.374 . S
C4240 H4214 0.950 . S
C4240 C4236 1.385 . S
C4240 C4239 1.374 . S
C4241 C4238 1.499 . S
C4241 C4242 1.373 . S
C4241 C4243 1.389 . S
C4242 H4215 0.950 . S
C4242 C4228 1.377 . S
C4242 C4241 1.373 . S
C4243 C4227 1.377 . S
C4243 C4241 1.389 . S
C4243 C4244 1.524 . S
C4244 C4243 1.524 . S
C4244 C4245 1.397 . S
C4244 C4249 1.363 . S
C4245 H4216 0.950 . S
C4245 C4244 1.397 . S
C4245 C4246 1.334 . S
C4246 H4217 0.950 . S
C4246 C4245 1.334 . S
C4246 C4247 1.287 . S
C4247 C4246 1.287 . S
C4247 C4248 1.524 . S
C4247 H4250 0.999 . S
C4248 H4218 0.950 . S
C4248 C4247 1.524 . S
C4248 C4249 1.415 . S
C4249 H4219 0.950 . S
C4249 C4244 1.363 . S
C4249 C4248 1.415 . S
H4250 C4247 0.999 . S
H4251 C4232 0.913 . S
H4252 C4270 0.951 . S
H4253 C4272 0.951 . S
H4254 C4274 0.950 . S
H4255 C4275 0.950 . S
H4256 C4277 0.950 . S
H4257 C4280 0.950 . S
H4258 C4281 0.950 . S
H4259 C4283 0.950 . S
H4260 C4284 0.950 . S
H4261 C4285 0.951 1_545 S
H4262 C4287 0.951 . S
H4263 C4289 0.950 . S
H4264 C4290 0.950 1_554 S
H4265 C4292 0.950 . S
H4266 C4295 0.950 . S
H4267 C4296 0.950 1_554 S
H4268 C4298 0.950 . S
H4269 C4299 0.950 . S
C4270 H4252 0.951 . S
C4270 C4271 1.366 . S
C4270 C4272 1.388 . S
C4271 C4270 1.366 . S
C4271 C4275 1.385 . S
C4272 H4253 0.951 . S
C4272 C4270 1.388 . S
C4272 C4273 1.366 . S
C4273 C4272 1.366 . S
C4273 C4274 1.414 . S
C4273 C4276 1.499 . S
C4274 H4254 0.950 . S
C4274 C4273 1.414 . S
C4274 C4275 1.374 . S
C4275 H4255 0.950 . S
C4275 C4271 1.385 . S
C4275 C4274 1.374 . S
C4276 C4273 1.499 . S
C4276 C4277 1.373 . S
C4276 C4278 1.389 . S
C4277 H4256 0.950 . S
C4277 C4276 1.373 . S
C4277 C4293 1.377 . S
C4278 C4276 1.389 . S
C4278 C4279 1.524 . S
C4278 C4292 1.377 . S
C4279 C4278 1.524 . S
C4279 C4280 1.397 . S
C4279 C4284 1.363 . S
C4280 H4257 0.950 . S
C4280 C4279 1.397 . S
C4280 C4281 1.334 . S
C4281 H4258 0.950 . S
C4281 C4280 1.334 . S
C4281 C4282 1.287 . S
C4282 C4281 1.287 . S
C4282 C4283 1.524 . S
C4282 H4301 0.913 . S
C4283 H4259 0.950 . S
C4283 C4282 1.524 . S
C4283 C4284 1.415 . S
C4284 H4260 0.950 . S
C4284 C4279 1.363 . S
C4284 C4283 1.415 . S
C4285 H4261 0.951 1_565 S
C4285 C4286 1.366 . S
C4285 C4287 1.388 . S
C4286 C4285 1.366 . S
C4286 C4290 1.385 . S
C4287 H4262 0.951 . S
C4287 C4285 1.388 . S
C4287 C4288 1.366 . S
C4288 C4287 1.366 . S
C4288 C4289 1.414 . S
C4288 C4291 1.499 . S
C4289 H4263 0.950 . S
C4289 C4288 1.414 . S
C4289 C4290 1.374 . S
C4290 H4264 0.950 1_556 S
C4290 C4286 1.385 . S
C4290 C4289 1.374 . S
C4291 C4288 1.499 . S
C4291 C4292 1.373 . S
C4291 C4293 1.389 . S
C4292 H4265 0.950 . S
C4292 C4278 1.377 . S
C4292 C4291 1.373 . S
C4293 C4277 1.377 . S
C4293 C4291 1.389 . S
C4293 C4294 1.524 . S
C4294 C4293 1.524 . S
C4294 C4295 1.397 . S
C4294 C4299 1.363 . S
C4295 H4266 0.950 . S
C4295 C4294 1.397 . S
C4295 C4296 1.334 . S
C4296 H4267 0.950 1_556 S
C4296 C4295 1.334 . S
C4296 C4297 1.287 . S
C4297 C4296 1.287 . S
C4297 C4298 1.524 . S
C4297 H4300 0.999 1_565 S
C4298 H4268 0.950 . S
C4298 C4297 1.524 . S
C4298 C4299 1.415 . S
C4299 H4269 0.950 . S
C4299 C4294 1.363 . S
C4299 C4298 1.415 . S
H4300 C4297 0.999 1_545 S
H4301 C4282 0.913 . S
H4302 C4320 0.951 . S
H4303 C4322 0.951 . S
H4304 C4324 0.950 . S
H4305 C4325 0.950 . S
H4306 C4327 0.950 . S
H4307 C4330 0.950 . S
H4308 C4331 0.950 . S
H4309 C4333 0.950 . S
H4310 C4334 0.950 . S
H4311 C4335 0.951 . S
H4312 C4337 0.951 . S
H4313 C4339 0.950 . S
H4314 C4340 0.950 . S
H4315 C4342 0.950 . S
H4316 C4345 0.950 . S
H4317 C4346 0.950 . S
H4318 C4348 0.950 . S
H4319 C4349 0.950 . S
C4320 H4302 0.951 . S
C4320 C4321 1.366 . S
C4320 C4322 1.388 . S
C4321 C4320 1.366 . S
C4321 C4325 1.385 . S
C4322 H4303 0.951 . S
C4322 C4320 1.388 . S
C4322 C4323 1.366 . S
C4323 C4322 1.366 . S
C4323 C4324 1.414 . S
C4323 C4326 1.499 . S
C4324 H4304 0.950 . S
C4324 C4323 1.414 . S
C4324 C4325 1.374 . S
C4325 H4305 0.950 . S
C4325 C4321 1.385 . S
C4325 C4324 1.374 . S
C4326 C4323 1.499 . S
C4326 C4327 1.373 . S
C4326 C4328 1.389 . S
C4327 H4306 0.950 . S
C4327 C4326 1.373 . S
C4327 C4343 1.377 . S
C4328 C4326 1.389 . S
C4328 C4329 1.524 . S
C4328 C4342 1.377 . S
C4329 C4328 1.524 . S
C4329 C4330 1.397 . S
C4329 C4334 1.363 . S
C4330 H4307 0.950 . S
C4330 C4329 1.397 . S
C4330 C4331 1.334 . S
C4331 H4308 0.950 . S
C4331 C4330 1.334 . S
C4331 C4332 1.287 . S
C4332 C4331 1.287 . S
C4332 C4333 1.524 . S
C4332 H4351 0.913 . S
C4333 H4309 0.950 . S
C4333 C4332 1.524 . S
C4333 C4334 1.415 . S
C4334 H4310 0.950 . S
C4334 C4329 1.363 . S
C4334 C4333 1.415 . S
C4335 H4311 0.951 . S
C4335 C4336 1.366 . S
C4335 C4337 1.388 . S
C4336 C4335 1.366 . S
C4336 C4340 1.385 . S
C4337 H4312 0.951 . S
C4337 C4335 1.388 . S
C4337 C4338 1.366 . S
C4338 C4337 1.366 . S
C4338 C4339 1.414 . S
C4338 C4341 1.499 . S
C4339 H4313 0.950 . S
C4339 C4338 1.414 . S
C4339 C4340 1.374 . S
C4340 H4314 0.950 . S
C4340 C4336 1.385 . S
C4340 C4339 1.374 . S
C4341 C4338 1.499 . S
C4341 C4342 1.373 . S
C4341 C4343 1.389 . S
C4342 H4315 0.950 . S
C4342 C4328 1.377 . S
C4342 C4341 1.373 . S
C4343 C4327 1.377 . S
C4343 C4341 1.389 . S
C4343 C4344 1.524 . S
C4344 C4343 1.524 . S
C4344 C4345 1.397 . S
C4344 C4349 1.363 . S
C4345 H4316 0.950 . S
C4345 C4344 1.397 . S
C4345 C4346 1.334 . S
C4346 H4317 0.950 . S
C4346 C4345 1.334 . S
C4346 C4347 1.287 . S
C4347 C4346 1.287 . S
C4347 C4348 1.524 . S
C4347 H4350 0.999 . S
C4348 H4318 0.950 . S
C4348 C4347 1.524 . S
C4348 C4349 1.415 . S
C4349 H4319 0.950 . S
C4349 C4344 1.363 . S
C4349 C4348 1.415 . S
H4350 C4347 0.999 . S
H4351 C4332 0.913 . S
H4352 C4370 0.951 . S
H4353 C4372 0.951 . S
H4354 C4374 0.950 . S
H4355 C4375 0.950 . S
H4356 C4377 0.950 . S
H4357 C4380 0.950 . S
H4358 C4381 0.950 . S
H4359 C4383 0.950 . S
H4360 C4384 0.950 . S
H4361 C4385 0.951 1_565 S
H4362 C4387 0.951 1_565 S
H4363 C4389 0.950 . S
H4364 C4390 0.950 . S
H4365 C4392 0.950 . S
H4366 C4395 0.950 . S
H4367 C4396 0.950 . S
H4368 C4398 0.973 . S
H4369 C4399 0.950 . S
C4370 H4352 0.951 . S
C4370 C4371 1.366 . S
C4370 C4372 1.388 . S
C4371 C4370 1.366 . S
C4371 C4375 1.385 1_545 S
C4372 H4353 0.951 . S
C4372 C4370 1.388 . S
C4372 C4373 1.366 . S
C4373 C4372 1.366 . S
C4373 C4374 1.414 1_545 S
C4373 C4376 1.499 . S
C4374 H4354 0.950 . S
C4374 C4373 1.414 1_565 S
C4374 C4375 1.374 . S
C4375 H4355 0.950 . S
C4375 C4371 1.385 1_565 S
C4375 C4374 1.374 . S
C4376 C4373 1.499 . S
C4376 C4377 1.373 . S
C4376 C4378 1.389 . S
C4377 H4356 0.950 . S
C4377 C4376 1.373 . S
C4377 C4393 1.377 . S
C4378 C4376 1.389 . S
C4378 C4379 1.524 . S
C4378 C4392 1.377 . S
C4379 C4378 1.524 . S
C4379 C4380 1.397 1_545 S
C4379 C4384 1.363 . S
C4380 H4357 0.950 . S
C4380 C4379 1.397 1_565 S
C4380 C4381 1.334 . S
C4381 H4358 0.950 . S
C4381 C4380 1.334 . S
C4381 C4382 1.287 1_565 S
C4382 C4381 1.287 1_545 S
C4382 C4383 1.524 . S
C4382 H4401 0.913 . S
C4383 H4359 0.950 . S
C4383 C4382 1.524 . S
C4383 C4384 1.415 . S
C4384 H4360 0.950 . S
C4384 C4379 1.363 . S
C4384 C4383 1.415 . S
C4385 H4361 0.951 1_545 S
C4385 C4386 1.366 . S
C4385 C4387 1.388 . S
C4386 C4385 1.366 . S
C4386 C4390 1.385 . S
C4387 H4362 0.951 1_545 S
C4387 C4385 1.388 . S
C4387 C4388 1.366 . S
C4388 C4387 1.366 . S
C4388 C4389 1.414 . S
C4388 C4391 1.499 . S
C4389 H4363 0.950 . S
C4389 C4388 1.414 . S
C4389 C4390 1.374 . S
C4390 H4364 0.950 . S
C4390 C4386 1.385 . S
C4390 C4389 1.374 . S
C4391 C4388 1.499 . S
C4391 C4392 1.373 . S
C4391 C4393 1.389 . S
C4392 H4365 0.950 . S
C4392 C4378 1.377 . S
C4392 C4391 1.373 . S
C4393 C4377 1.377 . S
C4393 C4391 1.389 . S
C4393 C4394 1.524 . S
C4394 C4393 1.524 . S
C4394 C4395 1.397 . S
C4394 C4399 1.363 1_545 S
C4395 H4366 0.950 . S
C4395 C4394 1.397 . S
C4395 C4396 1.334 . S
C4396 H4367 0.950 . S
C4396 C4395 1.334 . S
C4396 C4397 1.287 . S
C4397 C4396 1.287 . S
C4397 C4398 1.524 1_545 S
C4397 H4400 0.999 1_455 S
C4398 H4368 0.973 . S
C4398 C4397 1.524 1_565 S
C4398 C4399 1.415 . S
C4399 H4369 0.950 . S
C4399 C4394 1.363 1_565 S
C4399 C4398 1.415 . S
H4400 C4397 0.999 1_655 S
H4401 C4382 0.913 . S
H4402 C4420 0.951 . S
H4403 C4422 0.951 . S
H4404 C4424 0.950 . S
H4405 C4425 0.950 . S
H4406 C4427 0.950 . S
H4407 C4430 0.950 . S
H4408 C4431 0.950 . S
H4409 C4433 0.950 . S
H4410 C4434 0.950 . S
H4411 C4435 0.951 . S
H4412 C4437 0.951 . S
H4413 C4439 0.950 . S
H4414 C4440 0.950 . S
H4415 C4442 0.950 . S
H4416 C4445 0.950 . S
H4417 C4446 0.950 . S
H4418 C4448 0.950 . S
H4419 C4449 0.950 . S
C4420 H4402 0.951 . S
C4420 C4421 1.366 . S
C4420 C4422 1.388 . S
C4421 C4420 1.366 . S
C4421 C4425 1.385 . S
C4422 H4403 0.951 . S
C4422 C4420 1.388 . S
C4422 C4423 1.366 . S
C4423 C4422 1.366 . S
C4423 C4424 1.414 . S
C4423 C4426 1.499 . S
C4424 H4404 0.950 . S
C4424 C4423 1.414 . S
C4424 C4425 1.374 . S
C4425 H4405 0.950 . S
C4425 C4421 1.385 . S
C4425 C4424 1.374 . S
C4426 C4423 1.499 . S
C4426 C4427 1.373 . S
C4426 C4428 1.389 . S
C4427 H4406 0.950 . S
C4427 C4426 1.373 . S
C4427 C4443 1.377 . S
C4428 C4426 1.389 . S
C4428 C4429 1.524 . S
C4428 C4442 1.377 . S
C4429 C4428 1.524 . S
C4429 C4430 1.397 . S
C4429 C4434 1.363 . S
C4430 H4407 0.950 . S
C4430 C4429 1.397 . S
C4430 C4431 1.334 . S
C4431 H4408 0.950 . S
C4431 C4430 1.334 . S
C4431 C4432 1.287 . S
C4432 C4431 1.287 . S
C4432 C4433 1.524 . S
C4432 H4451 0.913 . S
C4433 H4409 0.950 . S
C4433 C4432 1.524 . S
C4433 C4434 1.415 . S
C4434 H4410 0.950 . S
C4434 C4429 1.363 . S
C4434 C4433 1.415 . S
C4435 H4411 0.951 . S
C4435 C4436 1.366 . S
C4435 C4437 1.388 . S
C4436 C4435 1.366 . S
C4436 C4440 1.385 . S
C4437 H4412 0.951 . S
C4437 C4435 1.388 . S
C4437 C4438 1.366 . S
C4438 C4437 1.366 . S
C4438 C4439 1.414 . S
C4438 C4441 1.499 . S
C4439 H4413 0.950 . S
C4439 C4438 1.414 . S
C4439 C4440 1.374 . S
C4440 H4414 0.950 . S
C4440 C4436 1.385 . S
C4440 C4439 1.374 . S
C4441 C4438 1.499 . S
C4441 C4442 1.373 . S
C4441 C4443 1.389 . S
C4442 H4415 0.950 . S
C4442 C4428 1.377 . S
C4442 C4441 1.373 . S
C4443 C4427 1.377 . S
C4443 C4441 1.389 . S
C4443 C4444 1.524 . S
C4444 C4443 1.524 . S
C4444 C4445 1.397 . S
C4444 C4449 1.363 . S
C4445 H4416 0.950 . S
C4445 C4444 1.397 . S
C4445 C4446 1.334 . S
C4446 H4417 0.950 . S
C4446 C4445 1.334 . S
C4446 C4447 1.287 . S
C4447 C4446 1.287 . S
C4447 C4448 1.524 . S
C4447 H4450 0.999 . S
C4448 H4418 0.950 . S
C4448 C4447 1.524 . S
C4448 C4449 1.415 . S
C4449 H4419 0.950 . S
C4449 C4444 1.363 . S
C4449 C4448 1.415 . S
H4450 C4447 0.999 . S
H4451 C4432 0.913 . S
H4452 C4470 0.951 . S
H4453 C4472 0.951 . S
H4454 C4474 0.950 . S
H4455 C4475 0.950 . S
H4456 C4477 0.950 . S
H4457 C4480 0.950 . S
H4458 C4481 0.950 . S
H4459 C4483 0.950 . S
H4460 C4484 0.950 . S
H4461 C4485 0.951 . S
H4462 C4487 0.951 . S
H4463 C4489 0.950 . S
H4464 C4490 0.950 . S
H4465 C4492 0.950 . S
H4466 C4495 0.950 1_565 S
H4467 C4496 0.950 . S
H4468 C4498 0.950 . S
H4469 C4499 0.950 . S
C4470 H4452 0.951 . S
C4470 C4471 1.366 . S
C4470 C4472 1.388 . S
C4471 C4470 1.366 . S
C4471 C4475 1.385 . S
C4472 H4453 0.951 . S
C4472 C4470 1.388 . S
C4472 C4473 1.366 . S
C4473 C4472 1.366 . S
C4473 C4474 1.414 . S
C4473 C4476 1.499 . S
C4474 H4454 0.950 . S
C4474 C4473 1.414 . S
C4474 C4475 1.374 . S
C4475 H4455 0.950 . S
C4475 C4471 1.385 . S
C4475 C4474 1.374 . S
C4476 C4473 1.499 . S
C4476 C4477 1.373 . S
C4476 C4478 1.389 . S
C4477 H4456 0.950 . S
C4477 C4476 1.373 . S
C4477 C4493 1.377 . S
C4478 C4476 1.389 . S
C4478 C4479 1.524 . S
C4478 C4492 1.377 . S
C4479 C4478 1.524 . S
C4479 C4480 1.397 . S
C4479 C4484 1.363 . S
C4480 H4457 0.950 . S
C4480 C4479 1.397 . S
C4480 C4481 1.334 . S
C4481 H4458 0.950 . S
C4481 C4480 1.334 . S
C4481 C4482 1.287 . S
C4482 C4481 1.287 . S
C4482 C4483 1.524 . S
C4482 H4501 0.913 . S
C4483 H4459 0.950 . S
C4483 C4482 1.524 . S
C4483 C4484 1.415 . S
C4484 H4460 0.950 . S
C4484 C4479 1.363 . S
C4484 C4483 1.415 . S
C4485 H4461 0.951 . S
C4485 C4486 1.366 . S
C4485 C4487 1.388 . S
C4486 C4485 1.366 . S
C4486 C4490 1.385 . S
C4487 H4462 0.951 . S
C4487 C4485 1.388 . S
C4487 C4488 1.366 . S
C4488 C4487 1.366 . S
C4488 C4489 1.414 . S
C4488 C4491 1.499 . S
C4489 H4463 0.950 . S
C4489 C4488 1.414 . S
C4489 C4490 1.374 . S
C4490 H4464 0.950 . S
C4490 C4486 1.385 . S
C4490 C4489 1.374 . S
C4491 C4488 1.499 . S
C4491 C4492 1.373 . S
C4491 C4493 1.389 . S
C4492 H4465 0.950 . S
C4492 C4478 1.377 . S
C4492 C4491 1.373 . S
C4493 C4477 1.377 . S
C4493 C4491 1.389 . S
C4493 C4494 1.524 . S
C4494 C4493 1.524 . S
C4494 C4495 1.397 . S
C4494 C4499 1.363 . S
C4495 H4466 0.950 1_545 S
C4495 C4494 1.397 . S
C4495 C4496 1.334 1_545 S
C4496 H4467 0.950 . S
C4496 C4495 1.334 1_565 S
C4496 C4497 1.287 . S
C4497 C4496 1.287 . S
C4497 C4498 1.524 1_565 S
C4497 H4500 0.999 . S
C4498 H4468 0.950 . S
C4498 C4497 1.524 1_545 S
C4498 C4499 1.415 . S
C4499 H4469 0.950 . S
C4499 C4494 1.363 . S
C4499 C4498 1.415 . S
H4500 C4497 0.999 . S
H4501 C4482 0.913 . S
H4502 C4520 0.951 . S
H4503 C4522 0.951 . S
H4504 C4524 0.950 . S
H4505 C4525 0.950 . S
H4506 C4527 0.950 . S
H4507 C4530 0.950 . S
H4508 C4531 0.950 . S
H4509 C4533 0.950 . S
H4510 C4534 0.950 . S
H4511 C4535 0.951 . S
H4512 C4537 0.951 . S
H4513 C4539 0.950 . S
H4514 C4540 0.950 . S
H4515 C4542 0.950 . S
H4516 C4545 0.950 . S
H4517 C4546 0.950 . S
H4518 C4548 0.950 . S
H4519 C4549 0.950 . S
C4520 H4502 0.951 . S
C4520 C4521 1.366 . S
C4520 C4522 1.388 . S
C4521 C4520 1.366 . S
C4521 C4525 1.385 . S
C4522 H4503 0.951 . S
C4522 C4520 1.388 . S
C4522 C4523 1.366 . S
C4523 C4522 1.366 . S
C4523 C4524 1.414 . S
C4523 C4526 1.499 . S
C4524 H4504 0.950 . S
C4524 C4523 1.414 . S
C4524 C4525 1.374 . S
C4525 H4505 0.950 . S
C4525 C4521 1.385 . S
C4525 C4524 1.374 . S
C4526 C4523 1.499 . S
C4526 C4527 1.373 . S
C4526 C4528 1.389 . S
C4527 H4506 0.950 . S
C4527 C4526 1.373 . S
C4527 C4543 1.377 . S
C4528 C4526 1.389 . S
C4528 C4529 1.524 . S
C4528 C4542 1.377 . S
C4529 C4528 1.524 . S
C4529 C4530 1.397 . S
C4529 C4534 1.363 . S
C4530 H4507 0.950 . S
C4530 C4529 1.397 . S
C4530 C4531 1.334 . S
C4531 H4508 0.950 . S
C4531 C4530 1.334 . S
C4531 C4532 1.287 . S
C4532 C4531 1.287 . S
C4532 C4533 1.524 . S
C4532 H4551 0.913 . S
C4533 H4509 0.950 . S
C4533 C4532 1.524 . S
C4533 C4534 1.415 . S
C4534 H4510 0.950 . S
C4534 C4529 1.363 . S
C4534 C4533 1.415 . S
C4535 H4511 0.951 . S
C4535 C4536 1.366 . S
C4535 C4537 1.388 . S
C4536 C4535 1.366 . S
C4536 C4540 1.385 . S
C4537 H4512 0.951 . S
C4537 C4535 1.388 . S
C4537 C4538 1.366 . S
C4538 C4537 1.366 . S
C4538 C4539 1.414 . S
C4538 C4541 1.499 . S
C4539 H4513 0.950 . S
C4539 C4538 1.414 . S
C4539 C4540 1.374 . S
C4540 H4514 0.950 . S
C4540 C4536 1.385 . S
C4540 C4539 1.374 . S
C4541 C4538 1.499 . S
C4541 C4542 1.373 . S
C4541 C4543 1.389 . S
C4542 H4515 0.950 . S
C4542 C4528 1.377 . S
C4542 C4541 1.373 . S
C4543 C4527 1.377 . S
C4543 C4541 1.389 . S
C4543 C4544 1.524 . S
C4544 C4543 1.524 . S
C4544 C4545 1.397 . S
C4544 C4549 1.363 . S
C4545 H4516 0.950 . S
C4545 C4544 1.397 . S
C4545 C4546 1.334 . S
C4546 H4517 0.950 . S
C4546 C4545 1.334 . S
C4546 C4547 1.287 . S
C4547 C4546 1.287 . S
C4547 C4548 1.524 . S
C4547 H4550 0.999 . S
C4548 H4518 0.950 . S
C4548 C4547 1.524 . S
C4548 C4549 1.415 . S
C4549 H4519 0.950 . S
C4549 C4544 1.363 . S
C4549 C4548 1.415 . S
H4550 C4547 0.999 . S
H4551 C4532 0.913 . S
H4552 C4570 0.951 . S
H4553 C4572 0.951 . S
H4554 C4574 0.950 . S
H4555 C4575 0.950 . S
H4556 C4577 0.950 . S
H4557 C4580 0.950 . S
H4558 C4581 0.950 . S
H4559 C4583 0.950 . S
H4560 C4584 0.950 . S
H4561 C4585 0.951 . S
H4562 C4587 0.951 . S
H4563 C4589 0.907 1_565 S
H4564 C4590 0.950 . S
H4565 C4592 0.950 . S
H4566 C4595 0.950 . S
H4567 C4596 0.950 . S
H4568 C4598 0.950 . S
H4569 C4599 0.950 . S
C4570 H4552 0.951 . S
C4570 C4571 1.366 . S
C4570 C4572 1.388 . S
C4571 C4570 1.366 . S
C4571 C4575 1.385 1_565 S
C4572 H4553 0.951 . S
C4572 C4570 1.388 . S
C4572 C4573 1.366 . S
C4573 C4572 1.366 . S
C4573 C4574 1.414 1_565 S
C4573 C4576 1.499 1_565 S
C4574 H4554 0.950 . S
C4574 C4573 1.414 1_545 S
C4574 C4575 1.374 . S
C4575 H4555 0.950 . S
C4575 C4571 1.385 1_545 S
C4575 C4574 1.374 . S
C4576 C4573 1.499 1_545 S
C4576 C4577 1.373 . S
C4576 C4578 1.389 1_545 S
C4577 H4556 0.950 . S
C4577 C4576 1.373 . S
C4577 C4593 1.377 . S
C4578 C4576 1.389 1_565 S
C4578 C4579 1.524 . S
C4578 C4592 1.377 . S
C4579 C4578 1.524 . S
C4579 C4580 1.397 . S
C4579 C4584 1.363 . S
C4580 H4557 0.950 . S
C4580 C4579 1.397 . S
C4580 C4581 1.334 . S
C4581 H4558 0.950 . S
C4581 C4580 1.334 . S
C4581 C4582 1.287 . S
C4582 C4581 1.287 . S
C4582 C4583 1.524 . S
C4582 H4601 0.913 . S
C4583 H4559 0.950 . S
C4583 C4582 1.524 . S
C4583 C4584 1.415 . S
C4584 H4560 0.950 . S
C4584 C4579 1.363 . S
C4584 C4583 1.415 . S
C4585 H4561 0.951 . S
C4585 C4586 1.366 . S
C4585 C4587 1.388 . S
C4586 C4585 1.366 . S
C4586 C4590 1.385 . S
C4587 H4562 0.951 . S
C4587 C4585 1.388 . S
C4587 C4588 1.366 . S
C4588 C4587 1.366 . S
C4588 C4589 1.414 . S
C4588 C4591 1.499 . S
C4589 H4563 0.907 1_545 S
C4589 C4588 1.414 . S
C4589 C4590 1.374 . S
C4590 H4564 0.950 . S
C4590 C4586 1.385 . S
C4590 C4589 1.374 . S
C4591 C4588 1.499 . S
C4591 C4592 1.373 1_545 S
C4591 C4593 1.389 . S
C4592 H4565 0.950 . S
C4592 C4578 1.377 . S
C4592 C4591 1.373 1_565 S
C4593 C4577 1.377 . S
C4593 C4591 1.389 . S
C4593 C4594 1.524 . S
C4594 C4593 1.524 . S
C4594 C4595 1.397 . S
C4594 C4599 1.363 . S
C4595 H4566 0.950 . S
C4595 C4594 1.397 . S
C4595 C4596 1.334 . S
C4596 H4567 0.950 . S
C4596 C4595 1.334 . S
C4596 C4597 1.287 . S
C4597 C4596 1.287 . S
C4597 C4598 1.524 . S
C4597 H4600 0.999 . S
C4598 H4568 0.950 . S
C4598 C4597 1.524 . S
C4598 C4599 1.415 . S
C4599 H4569 0.950 . S
C4599 C4594 1.363 . S
C4599 C4598 1.415 . S
H4600 C4597 0.999 . S
H4601 C4582 0.913 . S
H4602 C4620 0.951 . S
H4603 C4622 0.951 . S
H4604 C4624 0.950 . S
H4605 C4625 0.950 . S
H4606 C4627 0.950 . S
H4607 C4630 0.950 . S
H4608 C4631 0.950 . S
H4609 C4633 0.950 . S
H4610 C4634 0.950 . S
H4611 C4635 0.951 . S
H4612 C4637 0.951 . S
H4613 C4639 0.950 . S
H4614 C4640 0.950 . S
H4615 C4642 0.950 . S
H4616 C4645 0.950 . S
H4617 C4646 0.950 . S
H4618 C4648 0.950 . S
H4619 C4649 0.950 . S
C4620 H4602 0.951 . S
C4620 C4621 1.366 . S
C4620 C4622 1.388 . S
C4621 C4620 1.366 . S
C4621 C4625 1.385 . S
C4622 H4603 0.951 . S
C4622 C4620 1.388 . S
C4622 C4623 1.366 . S
C4623 C4622 1.366 . S
C4623 C4624 1.414 . S
C4623 C4626 1.499 . S
C4624 H4604 0.950 . S
C4624 C4623 1.414 . S
C4624 C4625 1.374 . S
C4625 H4605 0.950 . S
C4625 C4621 1.385 . S
C4625 C4624 1.374 . S
C4626 C4623 1.499 . S
C4626 C4627 1.373 . S
C4626 C4628 1.389 . S
C4627 H4606 0.950 . S
C4627 C4626 1.373 . S
C4627 C4643 1.377 . S
C4628 C4626 1.389 . S
C4628 C4629 1.524 . S
C4628 C4642 1.377 . S
C4629 C4628 1.524 . S
C4629 C4630 1.397 . S
C4629 C4634 1.363 . S
C4630 H4607 0.950 . S
C4630 C4629 1.397 . S
C4630 C4631 1.334 . S
C4631 H4608 0.950 . S
C4631 C4630 1.334 . S
C4631 C4632 1.287 . S
C4632 C4631 1.287 . S
C4632 C4633 1.524 . S
C4632 H4651 0.913 . S
C4633 H4609 0.950 . S
C4633 C4632 1.524 . S
C4633 C4634 1.415 . S
C4634 H4610 0.950 . S
C4634 C4629 1.363 . S
C4634 C4633 1.415 . S
C4635 H4611 0.951 . S
C4635 C4636 1.366 . S
C4635 C4637 1.388 . S
C4636 C4635 1.366 . S
C4636 C4640 1.385 . S
C4637 H4612 0.951 . S
C4637 C4635 1.388 . S
C4637 C4638 1.366 . S
C4638 C4637 1.366 . S
C4638 C4639 1.414 . S
C4638 C4641 1.499 . S
C4639 H4613 0.950 . S
C4639 C4638 1.414 . S
C4639 C4640 1.374 . S
C4640 H4614 0.950 . S
C4640 C4636 1.385 . S
C4640 C4639 1.374 . S
C4641 C4638 1.499 . S
C4641 C4642 1.373 . S
C4641 C4643 1.389 . S
C4642 H4615 0.950 . S
C4642 C4628 1.377 . S
C4642 C4641 1.373 . S
C4643 C4627 1.377 . S
C4643 C4641 1.389 . S
C4643 C4644 1.524 . S
C4644 C4643 1.524 . S
C4644 C4645 1.397 . S
C4644 C4649 1.363 . S
C4645 H4616 0.950 . S
C4645 C4644 1.397 . S
C4645 C4646 1.334 . S
C4646 H4617 0.950 . S
C4646 C4645 1.334 . S
C4646 C4647 1.287 . S
C4647 C4646 1.287 . S
C4647 C4648 1.524 . S
C4647 H4650 0.999 . S
C4648 H4618 0.950 . S
C4648 C4647 1.524 . S
C4648 C4649 1.415 . S
C4649 H4619 0.950 . S
C4649 C4644 1.363 . S
C4649 C4648 1.415 . S
H4650 C4647 0.999 . S
H4651 C4632 0.913 . S
H4652 C4670 0.907 1_565 S
H4653 C4672 0.951 . S
H4654 C4674 0.950 . S
H4655 C4675 0.950 . S
H4656 C4677 0.950 . S
H4657 C4680 0.896 1_545 S
H4658 C4681 0.950 . S
H4659 C4683 0.950 . S
H4660 C4684 0.950 . S
H4661 C4685 0.951 . S
H4662 C4687 0.951 . S
H4663 C4689 0.950 . S
H4664 C4690 0.950 . S
H4665 C4692 0.950 . S
H4666 C4695 0.950 . S
H4667 C4696 0.950 . S
H4668 C4698 0.950 . S
H4669 C4699 0.950 . S
C4670 H4652 0.907 1_545 S
C4670 C4671 1.416 . S
C4670 C4672 1.384 1_545 S
C4671 C4670 1.416 . S
C4671 C4675 1.385 . S
C4672 H4653 0.951 . S
C4672 C4670 1.384 1_565 S
C4672 C4673 1.366 1_565 S
C4673 C4672 1.366 1_545 S
C4673 C4674 1.414 . S
C4673 C4676 1.499 . S
C4674 H4654 0.950 . S
C4674 C4673 1.414 . S
C4674 C4675 1.374 . S
C4675 H4655 0.950 . S
C4675 C4671 1.385 . S
C4675 C4674 1.374 . S
C4676 C4673 1.499 . S
C4676 C4677 1.373 . S
C4676 C4678 1.389 1_545 S
C4677 H4656 0.950 . S
C4677 C4676 1.373 . S
C4677 C4693 1.377 . S
C4678 C4676 1.389 1_565 S
C4678 C4679 1.524 . S
C4678 C4692 1.377 . S
C4679 C4678 1.524 . S
C4679 C4680 1.397 . S
C4679 C4684 1.363 . S
C4680 H4657 0.896 1_565 S
C4680 C4679 1.397 . S
C4680 C4681 1.334 . S
C4681 H4658 0.950 . S
C4681 C4680 1.334 . S
C4681 C4682 1.287 . S
C4682 C4681 1.287 . S
C4682 C4683 1.524 . S
C4682 H4701 0.913 . S
C4683 H4659 0.950 . S
C4683 C4682 1.524 . S
C4683 C4684 1.415 . S
C4684 H4660 0.950 . S
C4684 C4679 1.363 . S
C4684 C4683 1.415 . S
C4685 H4661 0.951 . S
C4685 C4686 1.330 1_545 S
C4685 C4687 1.388 . S
C4686 C4685 1.330 1_565 S
C4686 C4690 1.418 . S
C4687 H4662 0.951 . S
C4687 C4685 1.388 . S
C4687 C4688 1.366 . S
C4688 C4687 1.366 . S
C4688 C4689 1.414 1_545 S
C4688 C4691 1.499 . S
C4689 H4663 0.950 . S
C4689 C4688 1.414 1_565 S
C4689 C4690 1.374 . S
C4690 H4664 0.950 . S
C4690 C4686 1.418 . S
C4690 C4689 1.374 . S
C4691 C4688 1.499 . S
C4691 C4692 1.373 1_545 S
C4691 C4693 1.389 . S
C4692 H4665 0.950 . S
C4692 C4678 1.377 . S
C4692 C4691 1.373 1_565 S
C4693 C4677 1.377 . S
C4693 C4691 1.389 . S
C4693 C4694 1.524 . S
C4694 C4693 1.524 . S
C4694 C4695 1.397 . S
C4694 C4699 1.363 . S
C4695 H4666 0.950 . S
C4695 C4694 1.397 . S
C4695 C4696 1.334 . S
C4696 H4667 0.950 . S
C4696 C4695 1.334 . S
C4696 C4697 1.287 . S
C4697 C4696 1.287 . S
C4697 C4698 1.524 . S
C4697 H4700 0.999 . S
C4698 H4668 0.950 . S
C4698 C4697 1.524 . S
C4698 C4699 1.415 . S
C4699 H4669 0.950 . S
C4699 C4694 1.363 . S
C4699 C4698 1.415 . S
H4700 C4697 0.999 . S
H4701 C4682 0.913 . S
H4702 C4720 0.951 . S
H4703 C4722 0.951 . S
H4704 C4724 0.950 . S
H4705 C4725 0.950 . S
H4706 C4727 0.950 . S
H4707 C4730 0.950 . S
H4708 C4731 0.950 . S
H4709 C4733 0.950 . S
H4710 C4734 0.950 . S
H4711 C4735 0.951 . S
H4712 C4737 0.951 . S
H4713 C4739 0.950 . S
H4714 C4740 0.950 . S
H4715 C4742 0.950 . S
H4716 C4745 0.950 . S
H4717 C4746 0.950 . S
H4718 C4748 0.950 . S
H4719 C4749 0.950 . S
C4720 H4702 0.951 . S
C4720 C4721 1.366 . S
C4720 C4722 1.388 . S
C4721 C4720 1.366 . S
C4721 C4725 1.385 . S
C4722 H4703 0.951 . S
C4722 C4720 1.388 . S
C4722 C4723 1.366 . S
C4723 C4722 1.366 . S
C4723 C4724 1.414 . S
C4723 C4726 1.499 . S
C4724 H4704 0.950 . S
C4724 C4723 1.414 . S
C4724 C4725 1.374 . S
C4725 H4705 0.950 . S
C4725 C4721 1.385 . S
C4725 C4724 1.374 . S
C4726 C4723 1.499 . S
C4726 C4727 1.373 . S
C4726 C4728 1.389 . S
C4727 H4706 0.950 . S
C4727 C4726 1.373 . S
C4727 C4743 1.377 . S
C4728 C4726 1.389 . S
C4728 C4729 1.524 . S
C4728 C4742 1.377 . S
C4729 C4728 1.524 . S
C4729 C4730 1.397 . S
C4729 C4734 1.363 . S
C4730 H4707 0.950 . S
C4730 C4729 1.397 . S
C4730 C4731 1.334 . S
C4731 H4708 0.950 . S
C4731 C4730 1.334 . S
C4731 C4732 1.287 . S
C4732 C4731 1.287 . S
C4732 C4733 1.524 . S
C4732 H4751 0.913 . S
C4733 H4709 0.950 . S
C4733 C4732 1.524 . S
C4733 C4734 1.415 . S
C4734 H4710 0.950 . S
C4734 C4729 1.363 . S
C4734 C4733 1.415 . S
C4735 H4711 0.951 . S
C4735 C4736 1.366 . S
C4735 C4737 1.388 . S
C4736 C4735 1.366 . S
C4736 C4740 1.385 . S
C4737 H4712 0.951 . S
C4737 C4735 1.388 . S
C4737 C4738 1.366 . S
C4738 C4737 1.366 . S
C4738 C4739 1.414 . S
C4738 C4741 1.499 . S
C4739 H4713 0.950 . S
C4739 C4738 1.414 . S
C4739 C4740 1.374 . S
C4740 H4714 0.950 . S
C4740 C4736 1.385 . S
C4740 C4739 1.374 . S
C4741 C4738 1.499 . S
C4741 C4742 1.373 . S
C4741 C4743 1.389 . S
C4742 H4715 0.950 . S
C4742 C4728 1.377 . S
C4742 C4741 1.373 . S
C4743 C4727 1.377 . S
C4743 C4741 1.389 . S
C4743 C4744 1.524 . S
C4744 C4743 1.524 . S
C4744 C4745 1.397 . S
C4744 C4749 1.363 . S
C4745 H4716 0.950 . S
C4745 C4744 1.397 . S
C4745 C4746 1.334 . S
C4746 H4717 0.950 . S
C4746 C4745 1.334 . S
C4746 C4747 1.287 . S
C4747 C4746 1.287 . S
C4747 C4748 1.524 . S
C4747 H4750 0.999 . S
C4748 H4718 0.950 . S
C4748 C4747 1.524 . S
C4748 C4749 1.415 . S
C4749 H4719 0.950 . S
C4749 C4744 1.363 . S
C4749 C4748 1.415 . S
H4750 C4747 0.999 . S
H4751 C4732 0.913 . S
H4752 C4770 0.951 . S
H4753 C4772 0.968 . S
H4754 C4774 0.950 . S
H4755 C4775 0.950 . S
H4756 C4777 0.950 . S
H4757 C4780 0.950 . S
H4758 C4781 0.950 . S
H4759 C4783 0.950 . S
H4760 C4784 0.950 . S
H4761 C4785 0.951 . S
H4762 C4787 0.951 . S
H4763 C4789 0.950 . S
H4764 C4790 0.950 . S
H4765 C4792 0.950 . S
H4766 C4795 0.950 . S
H4767 C4796 0.950 . S
H4768 C4798 0.950 . S
H4769 C4799 0.950 . S
C4770 H4752 0.951 . S
C4770 C4771 1.366 . S
C4770 C4772 1.399 . S
C4771 C4770 1.366 . S
C4771 C4775 1.385 1_554 S
C4772 H4753 0.968 . S
C4772 C4770 1.399 . S
C4772 C4773 1.343 1_554 S
C4773 C4772 1.343 1_556 S
C4773 C4774 1.414 . S
C4773 C4776 1.499 . S
C4774 H4754 0.950 . S
C4774 C4773 1.414 . S
C4774 C4775 1.374 . S
C4775 H4755 0.950 . S
C4775 C4771 1.385 1_556 S
C4775 C4774 1.374 . S
C4776 C4773 1.499 . S
C4776 C4777 1.373 . S
C4776 C4778 1.389 1_556 S
C4777 H4756 0.950 . S
C4777 C4776 1.373 . S
C4777 C4793 1.377 . S
C4778 C4776 1.389 1_554 S
C4778 C4779 1.524 . S
C4778 C4792 1.377 . S
C4779 C4778 1.524 . S
C4779 C4780 1.397 . S
C4779 C4784 1.363 . S
C4780 H4757 0.950 . S
C4780 C4779 1.397 . S
C4780 C4781 1.334 . S
C4781 H4758 0.950 . S
C4781 C4780 1.334 . S
C4781 C4782 1.287 . S
C4782 C4781 1.287 . S
C4782 C4783 1.524 . S
C4782 H4801 0.913 . S
C4783 H4759 0.950 . S
C4783 C4782 1.524 . S
C4783 C4784 1.415 . S
C4784 H4760 0.950 . S
C4784 C4779 1.363 . S
C4784 C4783 1.415 . S
C4785 H4761 0.951 . S
C4785 C4786 1.366 . S
C4785 C4787 1.388 . S
C4786 C4785 1.366 . S
C4786 C4790 1.385 . S
C4787 H4762 0.951 . S
C4787 C4785 1.388 . S
C4787 C4788 1.366 . S
C4788 C4787 1.366 . S
C4788 C4789 1.414 . S
C4788 C4791 1.499 . S
C4789 H4763 0.950 . S
C4789 C4788 1.414 . S
C4789 C4790 1.374 . S
C4790 H4764 0.950 . S
C4790 C4786 1.385 . S
C4790 C4789 1.374 . S
C4791 C4788 1.499 . S
C4791 C4792 1.373 1_556 S
C4791 C4793 1.389 . S
C4792 H4765 0.950 . S
C4792 C4778 1.377 . S
C4792 C4791 1.373 1_554 S
C4793 C4777 1.377 . S
C4793 C4791 1.389 . S
C4793 C4794 1.524 . S
C4794 C4793 1.524 . S
C4794 C4795 1.397 . S
C4794 C4799 1.363 . S
C4795 H4766 0.950 . S
C4795 C4794 1.397 . S
C4795 C4796 1.334 . S
C4796 H4767 0.950 . S
C4796 C4795 1.334 . S
C4796 C4797 1.287 . S
C4797 C4796 1.287 . S
C4797 C4798 1.524 . S
C4797 H4800 0.999 . S
C4798 H4768 0.950 . S
C4798 C4797 1.524 . S
C4798 C4799 1.415 . S
C4799 H4769 0.950 . S
C4799 C4794 1.363 . S
C4799 C4798 1.415 . S
H4800 C4797 0.999 . S
H4801 C4782 0.913 . S
H4802 C4820 0.951 . S
H4803 C4822 0.951 . S
H4804 C4824 0.950 . S
H4805 C4825 0.950 . S
H4806 C4827 0.950 . S
H4807 C4830 0.950 . S
H4808 C4831 0.950 . S
H4809 C4833 0.950 . S
H4810 C4834 0.950 . S
H4811 C4835 0.951 . S
H4812 C4837 0.951 . S
H4813 C4839 0.990 . S
H4814 C4840 0.928 1_556 S
H4815 C4842 0.950 1_556 S
H4816 C4845 0.950 . S
H4817 C4846 0.950 . S
H4818 C4848 0.950 . S
H4819 C4849 0.950 . S
C4820 H4802 0.951 . S
C4820 C4821 1.366 . S
C4820 C4822 1.388 . S
C4821 C4820 1.366 . S
C4821 C4825 1.385 . S
C4822 H4803 0.951 . S
C4822 C4820 1.388 . S
C4822 C4823 1.366 . S
C4823 C4822 1.366 . S
C4823 C4824 1.414 . S
C4823 C4826 1.499 . S
C4824 H4804 0.950 . S
C4824 C4823 1.414 . S
C4824 C4825 1.374 . S
C4825 H4805 0.950 . S
C4825 C4821 1.385 . S
C4825 C4824 1.374 . S
C4826 C4823 1.499 . S
C4826 C4827 1.373 . S
C4826 C4828 1.389 . S
C4827 H4806 0.950 . S
C4827 C4826 1.373 . S
C4827 C4843 1.377 . S
C4828 C4826 1.389 . S
C4828 C4829 1.524 1_554 S
C4828 C4842 1.377 . S
C4829 C4828 1.524 1_556 S
C4829 C4830 1.397 . S
C4829 C4834 1.363 . S
C4830 H4807 0.950 . S
C4830 C4829 1.397 . S
C4830 C4831 1.334 . S
C4831 H4808 0.950 . S
C4831 C4830 1.334 . S
C4831 C4832 1.287 . S
C4832 C4831 1.287 . S
C4832 C4833 1.524 . S
C4832 H4851 0.913 . S
C4833 H4809 0.950 . S
C4833 C4832 1.524 . S
C4833 C4834 1.415 . S
C4834 H4810 0.950 . S
C4834 C4829 1.363 . S
C4834 C4833 1.415 . S
C4835 H4811 0.951 . S
C4835 C4836 1.366 . S
C4835 C4837 1.388 . S
C4836 C4835 1.366 . S
C4836 C4840 1.385 . S
C4837 H4812 0.951 . S
C4837 C4835 1.388 . S
C4837 C4838 1.366 . S
C4838 C4837 1.366 . S
C4838 C4839 1.414 . S
C4838 C4841 1.499 . S
C4839 H4813 0.990 . S
C4839 C4838 1.414 . S
C4839 C4840 1.374 . S
C4840 H4814 0.928 1_554 S
C4840 C4836 1.385 . S
C4840 C4839 1.374 . S
C4841 C4838 1.499 . S
C4841 C4842 1.373 . S
C4841 C4843 1.389 . S
C4842 H4815 0.950 1_554 S
C4842 C4828 1.377 . S
C4842 C4841 1.373 . S
C4843 C4827 1.377 . S
C4843 C4841 1.389 . S
C4843 C4844 1.524 . S
C4844 C4843 1.524 . S
C4844 C4845 1.397 . S
C4844 C4849 1.363 . S
C4845 H4816 0.950 . S
C4845 C4844 1.397 . S
C4845 C4846 1.334 . S
C4846 H4817 0.950 . S
C4846 C4845 1.334 . S
C4846 C4847 1.287 . S
C4847 C4846 1.287 . S
C4847 C4848 1.524 . S
C4847 H4850 0.999 . S
C4848 H4818 0.950 . S
C4848 C4847 1.524 . S
C4848 C4849 1.415 . S
C4849 H4819 0.950 . S
C4849 C4844 1.363 . S
C4849 C4848 1.415 . S
H4850 C4847 0.999 . S
H4851 C4832 0.913 . S
H4852 C4870 0.951 . S
H4853 C4872 0.951 . S
H4854 C4874 0.950 . S
H4855 C4875 0.950 . S
H4856 C4877 0.950 . S
H4857 C4880 0.950 . S
H4858 C4881 0.950 . S
H4859 C4883 0.950 . S
H4860 C4884 0.950 . S
H4861 C4885 0.951 . S
H4862 C4887 0.951 . S
H4863 C4889 0.950 . S
H4864 C4890 0.950 . S
H4865 C4892 0.950 . S
H4866 C4895 0.950 . S
H4867 C4896 0.950 . S
H4868 C4898 0.950 . S
H4869 C4899 0.950 . S
C4870 H4852 0.951 . S
C4870 C4871 1.366 . S
C4870 C4872 1.388 . S
C4871 C4870 1.366 . S
C4871 C4875 1.385 . S
C4872 H4853 0.951 . S
C4872 C4870 1.388 . S
C4872 C4873 1.366 . S
C4873 C4872 1.366 . S
C4873 C4874 1.414 . S
C4873 C4876 1.499 . S
C4874 H4854 0.950 . S
C4874 C4873 1.414 . S
C4874 C4875 1.374 . S
C4875 H4855 0.950 . S
C4875 C4871 1.385 . S
C4875 C4874 1.374 . S
C4876 C4873 1.499 . S
C4876 C4877 1.373 . S
C4876 C4878 1.389 . S
C4877 H4856 0.950 . S
C4877 C4876 1.373 . S
C4877 C4893 1.377 . S
C4878 C4876 1.389 . S
C4878 C4879 1.524 . S
C4878 C4892 1.377 . S
C4879 C4878 1.524 . S
C4879 C4880 1.397 . S
C4879 C4884 1.363 . S
C4880 H4857 0.950 . S
C4880 C4879 1.397 . S
C4880 C4881 1.334 . S
C4881 H4858 0.950 . S
C4881 C4880 1.334 . S
C4881 C4882 1.287 . S
C4882 C4881 1.287 . S
C4882 C4883 1.524 . S
C4882 H4901 0.913 . S
C4883 H4859 0.950 . S
C4883 C4882 1.524 . S
C4883 C4884 1.415 . S
C4884 H4860 0.950 . S
C4884 C4879 1.363 . S
C4884 C4883 1.415 . S
C4885 H4861 0.951 . S
C4885 C4886 1.366 . S
C4885 C4887 1.388 . S
C4886 C4885 1.366 . S
C4886 C4890 1.385 . S
C4887 H4862 0.951 . S
C4887 C4885 1.388 . S
C4887 C4888 1.366 . S
C4888 C4887 1.366 . S
C4888 C4889 1.414 . S
C4888 C4891 1.499 . S
C4889 H4863 0.950 . S
C4889 C4888 1.414 . S
C4889 C4890 1.374 . S
C4890 H4864 0.950 . S
C4890 C4886 1.385 . S
C4890 C4889 1.374 . S
C4891 C4888 1.499 . S
C4891 C4892 1.373 . S
C4891 C4893 1.389 . S
C4892 H4865 0.950 . S
C4892 C4878 1.377 . S
C4892 C4891 1.373 . S
C4893 C4877 1.377 . S
C4893 C4891 1.389 . S
C4893 C4894 1.524 . S
C4894 C4893 1.524 . S
C4894 C4895 1.397 . S
C4894 C4899 1.363 . S
C4895 H4866 0.950 . S
C4895 C4894 1.397 . S
C4895 C4896 1.334 . S
C4896 H4867 0.950 . S
C4896 C4895 1.334 . S
C4896 C4897 1.287 . S
C4897 C4896 1.287 . S
C4897 C4898 1.524 . S
C4897 H4900 0.999 . S
C4898 H4868 0.950 . S
C4898 C4897 1.524 . S
C4898 C4899 1.415 . S
C4899 H4869 0.950 . S
C4899 C4894 1.363 . S
C4899 C4898 1.415 . S
H4900 C4897 0.999 . S
H4901 C4882 0.913 . S
H4902 C4920 0.951 . S
H4903 C4922 0.951 . S
H4904 C4924 0.950 . S
H4905 C4925 0.950 . S
H4906 C4927 0.950 . S
H4907 C4930 0.950 . S
H4908 C4931 0.950 . S
H4909 C4933 0.950 . S
H4910 C4934 0.950 . S
H4911 C4935 0.951 . S
H4912 C4937 0.951 . S
H4913 C4939 0.950 . S
H4914 C4940 0.950 . S
H4915 C4942 0.950 . S
H4916 C4945 0.950 . S
H4917 C4946 0.950 . S
H4918 C4948 0.950 . S
H4919 C4949 0.950 . S
C4920 H4902 0.951 . S
C4920 C4921 1.366 . S
C4920 C4922 1.388 . S
C4921 C4920 1.366 . S
C4921 C4925 1.385 . S
C4922 H4903 0.951 . S
C4922 C4920 1.388 . S
C4922 C4923 1.366 . S
C4923 C4922 1.366 . S
C4923 C4924 1.414 . S
C4923 C4926 1.499 . S
C4924 H4904 0.950 . S
C4924 C4923 1.414 . S
C4924 C4925 1.374 . S
C4925 H4905 0.950 . S
C4925 C4921 1.385 . S
C4925 C4924 1.374 . S
C4926 C4923 1.499 . S
C4926 C4927 1.373 . S
C4926 C4928 1.389 . S
C4927 H4906 0.950 . S
C4927 C4926 1.373 . S
C4927 C4943 1.377 . S
C4928 C4926 1.389 . S
C4928 C4929 1.524 . S
C4928 C4942 1.377 . S
C4929 C4928 1.524 . S
C4929 C4930 1.397 . S
C4929 C4934 1.363 . S
C4930 H4907 0.950 . S
C4930 C4929 1.397 . S
C4930 C4931 1.334 . S
C4931 H4908 0.950 . S
C4931 C4930 1.334 . S
C4931 C4932 1.287 . S
C4932 C4931 1.287 . S
C4932 C4933 1.524 . S
C4932 H4951 0.913 . S
C4933 H4909 0.950 . S
C4933 C4932 1.524 . S
C4933 C4934 1.415 . S
C4934 H4910 0.950 . S
C4934 C4929 1.363 . S
C4934 C4933 1.415 . S
C4935 H4911 0.951 . S
C4935 C4936 1.366 . S
C4935 C4937 1.388 . S
C4936 C4935 1.366 . S
C4936 C4940 1.385 . S
C4937 H4912 0.951 . S
C4937 C4935 1.388 . S
C4937 C4938 1.366 . S
C4938 C4937 1.366 . S
C4938 C4939 1.414 . S
C4938 C4941 1.499 . S
C4939 H4913 0.950 . S
C4939 C4938 1.414 . S
C4939 C4940 1.374 . S
C4940 H4914 0.950 . S
C4940 C4936 1.385 . S
C4940 C4939 1.374 . S
C4941 C4938 1.499 . S
C4941 C4942 1.373 . S
C4941 C4943 1.389 . S
C4942 H4915 0.950 . S
C4942 C4928 1.377 . S
C4942 C4941 1.373 . S
C4943 C4927 1.377 . S
C4943 C4941 1.389 . S
C4943 C4944 1.524 . S
C4944 C4943 1.524 . S
C4944 C4945 1.397 . S
C4944 C4949 1.363 . S
C4945 H4916 0.950 . S
C4945 C4944 1.397 . S
C4945 C4946 1.334 . S
C4946 H4917 0.950 . S
C4946 C4945 1.334 . S
C4946 C4947 1.287 . S
C4947 C4946 1.287 . S
C4947 C4948 1.524 . S
C4947 H4950 0.999 . S
C4948 H4918 0.950 . S
C4948 C4947 1.524 . S
C4948 C4949 1.415 . S
C4949 H4919 0.950 . S
C4949 C4944 1.363 . S
C4949 C4948 1.415 . S
H4950 C4947 0.999 . S
H4951 C4932 0.913 . S
H4952 C4970 0.951 . S
H4953 C4972 0.951 . S
H4954 C4974 0.950 . S
H4955 C4975 0.950 . S
H4956 C4977 0.950 . S
H4957 C4980 0.950 . S
H4958 C4981 0.950 . S
H4959 C4983 0.950 . S
H4960 C4984 0.950 . S
H4961 C4985 0.951 . S
H4962 C4987 0.951 . S
H4963 C4989 0.950 . S
H4964 C4990 0.950 . S
H4965 C4992 0.950 . S
H4966 C4995 0.950 . S
H4967 C4996 0.950 . S
H4968 C4998 0.950 . S
H4969 C4999 0.950 . S
C4970 H4952 0.951 . S
C4970 C4971 1.366 . S
C4970 C4972 1.388 . S
C4971 C4970 1.366 . S
C4971 C4975 1.385 . S
C4972 H4953 0.951 . S
C4972 C4970 1.388 . S
C4972 C4973 1.366 . S
C4973 C4972 1.366 . S
C4973 C4974 1.414 . S
C4973 C4976 1.499 . S
C4974 H4954 0.950 . S
C4974 C4973 1.414 . S
C4974 C4975 1.374 . S
C4975 H4955 0.950 . S
C4975 C4971 1.385 . S
C4975 C4974 1.374 . S
C4976 C4973 1.499 . S
C4976 C4977 1.373 . S
C4976 C4978 1.389 . S
C4977 H4956 0.950 . S
C4977 C4976 1.373 . S
C4977 C4993 1.377 . S
C4978 C4976 1.389 . S
C4978 C4979 1.524 . S
C4978 C4992 1.377 . S
C4979 C4978 1.524 . S
C4979 C4980 1.397 . S
C4979 C4984 1.363 . S
C4980 H4957 0.950 . S
C4980 C4979 1.397 . S
C4980 C4981 1.334 . S
C4981 H4958 0.950 . S
C4981 C4980 1.334 . S
C4981 C4982 1.287 . S
C4982 C4981 1.287 . S
C4982 C4983 1.524 . S
C4982 H5001 0.913 . S
C4983 H4959 0.950 . S
C4983 C4982 1.524 . S
C4983 C4984 1.415 . S
C4984 H4960 0.950 . S
C4984 C4979 1.363 . S
C4984 C4983 1.415 . S
C4985 H4961 0.951 . S
C4985 C4986 1.366 . S
C4985 C4987 1.388 . S
C4986 C4985 1.366 . S
C4986 C4990 1.385 . S
C4987 H4962 0.951 . S
C4987 C4985 1.388 . S
C4987 C4988 1.366 . S
C4988 C4987 1.366 . S
C4988 C4989 1.414 . S
C4988 C4991 1.499 . S
C4989 H4963 0.950 . S
C4989 C4988 1.414 . S
C4989 C4990 1.374 . S
C4990 H4964 0.950 . S
C4990 C4986 1.385 . S
C4990 C4989 1.374 . S
C4991 C4988 1.499 . S
C4991 C4992 1.373 . S
C4991 C4993 1.389 . S
C4992 H4965 0.950 . S
C4992 C4978 1.377 . S
C4992 C4991 1.373 . S
C4993 C4977 1.377 . S
C4993 C4991 1.389 . S
C4993 C4994 1.524 . S
C4994 C4993 1.524 . S
C4994 C4995 1.397 . S
C4994 C4999 1.363 . S
C4995 H4966 0.950 . S
C4995 C4994 1.397 . S
C4995 C4996 1.334 . S
C4996 H4967 0.950 . S
C4996 C4995 1.334 . S
C4996 C4997 1.287 . S
C4997 C4996 1.287 . S
C4997 C4998 1.524 . S
C4997 H5000 0.999 . S
C4998 H4968 0.950 . S
C4998 C4997 1.524 . S
C4998 C4999 1.415 . S
C4999 H4969 0.950 . S
C4999 C4994 1.363 . S
C4999 C4998 1.415 . S
H5000 C4997 0.999 . S
H5001 C4982 0.913 . S
H5002 C5020 0.951 . S
H5003 C5022 0.951 . S
H5004 C5024 0.950 . S
H5005 C5025 0.950 . S
H5006 C5027 0.950 . S
H5007 C5030 0.950 . S
H5008 C5031 0.950 . S
H5009 C5033 0.950 . S
H5010 C5034 0.950 . S
H5011 C5035 0.951 . S
H5012 C5037 0.951 . S
H5013 C5039 0.950 . S
H5014 C5040 0.950 . S
H5015 C5042 0.950 . S
H5016 C5045 0.950 . S
H5017 C5046 0.950 . S
H5018 C5048 0.950 . S
H5019 C5049 0.950 . S
C5020 H5002 0.951 . S
C5020 C5021 1.366 . S
C5020 C5022 1.388 . S
C5021 C5020 1.366 . S
C5021 C5025 1.385 . S
C5022 H5003 0.951 . S
C5022 C5020 1.388 . S
C5022 C5023 1.366 . S
C5023 C5022 1.366 . S
C5023 C5024 1.414 . S
C5023 C5026 1.499 . S
C5024 H5004 0.950 . S
C5024 C5023 1.414 . S
C5024 C5025 1.374 . S
C5025 H5005 0.950 . S
C5025 C5021 1.385 . S
C5025 C5024 1.374 . S
C5026 C5023 1.499 . S
C5026 C5027 1.373 . S
C5026 C5028 1.389 . S
C5027 H5006 0.950 . S
C5027 C5026 1.373 . S
C5027 C5043 1.377 . S
C5028 C5026 1.389 . S
C5028 C5029 1.524 . S
C5028 C5042 1.377 . S
C5029 C5028 1.524 . S
C5029 C5030 1.397 . S
C5029 C5034 1.363 . S
C5030 H5007 0.950 . S
C5030 C5029 1.397 . S
C5030 C5031 1.334 . S
C5031 H5008 0.950 . S
C5031 C5030 1.334 . S
C5031 C5032 1.287 . S
C5032 C5031 1.287 . S
C5032 C5033 1.524 . S
C5032 H5051 0.913 . S
C5033 H5009 0.950 . S
C5033 C5032 1.524 . S
C5033 C5034 1.415 . S
C5034 H5010 0.950 . S
C5034 C5029 1.363 . S
C5034 C5033 1.415 . S
C5035 H5011 0.951 . S
C5035 C5036 1.366 . S
C5035 C5037 1.388 . S
C5036 C5035 1.366 . S
C5036 C5040 1.385 . S
C5037 H5012 0.951 . S
C5037 C5035 1.388 . S
C5037 C5038 1.366 . S
C5038 C5037 1.366 . S
C5038 C5039 1.414 . S
C5038 C5041 1.499 . S
C5039 H5013 0.950 . S
C5039 C5038 1.414 . S
C5039 C5040 1.374 . S
C5040 H5014 0.950 . S
C5040 C5036 1.385 . S
C5040 C5039 1.374 . S
C5041 C5038 1.499 . S
C5041 C5042 1.373 . S
C5041 C5043 1.389 . S
C5042 H5015 0.950 . S
C5042 C5028 1.377 . S
C5042 C5041 1.373 . S
C5043 C5027 1.377 . S
C5043 C5041 1.389 . S
C5043 C5044 1.524 . S
C5044 C5043 1.524 . S
C5044 C5045 1.397 . S
C5044 C5049 1.363 . S
C5045 H5016 0.950 . S
C5045 C5044 1.397 . S
C5045 C5046 1.334 . S
C5046 H5017 0.950 . S
C5046 C5045 1.334 . S
C5046 C5047 1.287 . S
C5047 C5046 1.287 . S
C5047 C5048 1.524 . S
C5047 H5050 0.999 . S
C5048 H5018 0.950 . S
C5048 C5047 1.524 . S
C5048 C5049 1.415 . S
C5049 H5019 0.950 . S
C5049 C5044 1.363 . S
C5049 C5048 1.415 . S
H5050 C5047 0.999 . S
H5051 C5032 0.913 . S
H5052 C5070 0.951 . S
H5053 C5072 0.951 . S
H5054 C5074 0.950 . S
H5055 C5075 0.950 . S
H5056 C5077 0.950 . S
H5057 C5080 0.950 . S
H5058 C5081 0.950 . S
H5059 C5083 0.950 . S
H5060 C5084 0.950 . S
H5061 C5085 0.951 . S
H5062 C5087 0.951 . S
H5063 C5089 0.950 . S
H5064 C5090 0.950 . S
H5065 C5092 0.950 . S
H5066 C5095 0.950 . S
H5067 C5096 0.950 . S
H5068 C5098 0.950 . S
H5069 C5099 0.950 . S
C5070 H5052 0.951 . S
C5070 C5071 1.366 . S
C5070 C5072 1.388 . S
C5071 C5070 1.366 . S
C5071 C5075 1.385 . S
C5072 H5053 0.951 . S
C5072 C5070 1.388 . S
C5072 C5073 1.366 . S
C5073 C5072 1.366 . S
C5073 C5074 1.414 . S
C5073 C5076 1.499 . S
C5074 H5054 0.950 . S
C5074 C5073 1.414 . S
C5074 C5075 1.374 . S
C5075 H5055 0.950 . S
C5075 C5071 1.385 . S
C5075 C5074 1.374 . S
C5076 C5073 1.499 . S
C5076 C5077 1.373 . S
C5076 C5078 1.389 . S
C5077 H5056 0.950 . S
C5077 C5076 1.373 . S
C5077 C5093 1.377 . S
C5078 C5076 1.389 . S
C5078 C5079 1.524 . S
C5078 C5092 1.377 . S
C5079 C5078 1.524 . S
C5079 C5080 1.397 . S
C5079 C5084 1.363 . S
C5080 H5057 0.950 . S
C5080 C5079 1.397 . S
C5080 C5081 1.334 . S
C5081 H5058 0.950 . S
C5081 C5080 1.334 . S
C5081 C5082 1.287 . S
C5082 C5081 1.287 . S
C5082 C5083 1.524 . S
C5082 H5101 0.913 . S
C5083 H5059 0.950 . S
C5083 C5082 1.524 . S
C5083 C5084 1.415 . S
C5084 H5060 0.950 . S
C5084 C5079 1.363 . S
C5084 C5083 1.415 . S
C5085 H5061 0.951 . S
C5085 C5086 1.366 . S
C5085 C5087 1.388 . S
C5086 C5085 1.366 . S
C5086 C5090 1.385 . S
C5087 H5062 0.951 . S
C5087 C5085 1.388 . S
C5087 C5088 1.366 . S
C5088 C5087 1.366 . S
C5088 C5089 1.414 . S
C5088 C5091 1.499 . S
C5089 H5063 0.950 . S
C5089 C5088 1.414 . S
C5089 C5090 1.374 . S
C5090 H5064 0.950 . S
C5090 C5086 1.385 . S
C5090 C5089 1.374 . S
C5091 C5088 1.499 . S
C5091 C5092 1.373 . S
C5091 C5093 1.389 . S
C5092 H5065 0.950 . S
C5092 C5078 1.377 . S
C5092 C5091 1.373 . S
C5093 C5077 1.377 . S
C5093 C5091 1.389 . S
C5093 C5094 1.524 . S
C5094 C5093 1.524 . S
C5094 C5095 1.397 . S
C5094 C5099 1.363 . S
C5095 H5066 0.950 . S
C5095 C5094 1.397 . S
C5095 C5096 1.334 . S
C5096 H5067 0.950 . S
C5096 C5095 1.334 . S
C5096 C5097 1.287 . S
C5097 C5096 1.287 . S
C5097 C5098 1.524 . S
C5097 H5100 0.999 . S
C5098 H5068 0.950 . S
C5098 C5097 1.524 . S
C5098 C5099 1.415 . S
C5099 H5069 0.950 . S
C5099 C5094 1.363 . S
C5099 C5098 1.415 . S
H5100 C5097 0.999 . S
H5101 C5082 0.913 . S
H5102 C5120 0.951 . S
H5103 C5122 0.951 . S
H5104 C5124 0.950 . S
H5105 C5125 0.950 . S
H5106 C5127 0.950 . S
H5107 C5130 0.950 . S
H5108 C5131 0.950 . S
H5109 C5133 0.950 . S
H5110 C5134 0.950 . S
H5111 C5135 0.951 . S
H5112 C5137 0.951 . S
H5113 C5139 0.950 . S
H5114 C5140 0.950 . S
H5115 C5142 0.950 . S
H5116 C5145 0.950 . S
H5117 C5146 0.950 . S
H5118 C5148 0.950 . S
H5119 C5149 0.950 . S
C5120 H5102 0.951 . S
C5120 C5121 1.366 . S
C5120 C5122 1.388 . S
C5121 C5120 1.366 . S
C5121 C5125 1.385 . S
C5122 H5103 0.951 . S
C5122 C5120 1.388 . S
C5122 C5123 1.366 . S
C5123 C5122 1.366 . S
C5123 C5124 1.414 . S
C5123 C5126 1.499 . S
C5124 H5104 0.950 . S
C5124 C5123 1.414 . S
C5124 C5125 1.374 . S
C5125 H5105 0.950 . S
C5125 C5121 1.385 . S
C5125 C5124 1.374 . S
C5126 C5123 1.499 . S
C5126 C5127 1.373 . S
C5126 C5128 1.389 . S
C5127 H5106 0.950 . S
C5127 C5126 1.373 . S
C5127 C5143 1.377 . S
C5128 C5126 1.389 . S
C5128 C5129 1.524 . S
C5128 C5142 1.377 . S
C5129 C5128 1.524 . S
C5129 C5130 1.397 . S
C5129 C5134 1.363 . S
C5130 H5107 0.950 . S
C5130 C5129 1.397 . S
C5130 C5131 1.334 . S
C5131 H5108 0.950 . S
C5131 C5130 1.334 . S
C5131 C5132 1.287 . S
C5132 C5131 1.287 . S
C5132 C5133 1.524 . S
C5132 H5151 0.913 . S
C5133 H5109 0.950 . S
C5133 C5132 1.524 . S
C5133 C5134 1.415 . S
C5134 H5110 0.950 . S
C5134 C5129 1.363 . S
C5134 C5133 1.415 . S
C5135 H5111 0.951 . S
C5135 C5136 1.366 . S
C5135 C5137 1.388 . S
C5136 C5135 1.366 . S
C5136 C5140 1.385 . S
C5137 H5112 0.951 . S
C5137 C5135 1.388 . S
C5137 C5138 1.366 . S
C5138 C5137 1.366 . S
C5138 C5139 1.414 . S
C5138 C5141 1.499 . S
C5139 H5113 0.950 . S
C5139 C5138 1.414 . S
C5139 C5140 1.374 . S
C5140 H5114 0.950 . S
C5140 C5136 1.385 . S
C5140 C5139 1.374 . S
C5141 C5138 1.499 . S
C5141 C5142 1.373 . S
C5141 C5143 1.389 . S
C5142 H5115 0.950 . S
C5142 C5128 1.377 . S
C5142 C5141 1.373 . S
C5143 C5127 1.377 . S
C5143 C5141 1.389 . S
C5143 C5144 1.524 . S
C5144 C5143 1.524 . S
C5144 C5145 1.397 . S
C5144 C5149 1.363 . S
C5145 H5116 0.950 . S
C5145 C5144 1.397 . S
C5145 C5146 1.334 . S
C5146 H5117 0.950 . S
C5146 C5145 1.334 . S
C5146 C5147 1.287 . S
C5147 C5146 1.287 . S
C5147 C5148 1.524 . S
C5147 H5150 0.999 . S
C5148 H5118 0.950 . S
C5148 C5147 1.524 . S
C5148 C5149 1.415 . S
C5149 H5119 0.950 . S
C5149 C5144 1.363 . S
C5149 C5148 1.415 . S
H5150 C5147 0.999 . S
H5151 C5132 0.913 . S
H5152 C5170 0.951 . S
H5153 C5172 0.951 . S
H5154 C5174 0.950 . S
H5155 C5175 0.950 . S
H5156 C5177 0.950 . S
H5157 C5180 0.950 . S
H5158 C5181 0.950 . S
H5159 C5183 0.950 . S
H5160 C5184 0.950 . S
H5161 C5185 0.951 . S
H5162 C5187 0.951 . S
H5163 C5189 0.950 . S
H5164 C5190 0.950 . S
H5165 C5192 0.950 . S
H5166 C5195 0.950 . S
H5167 C5196 0.950 . S
H5168 C5198 0.950 . S
H5169 C5199 0.950 . S
C5170 H5152 0.951 . S
C5170 C5171 1.366 . S
C5170 C5172 1.388 . S
C5171 C5170 1.366 . S
C5171 C5175 1.385 . S
C5172 H5153 0.951 . S
C5172 C5170 1.388 . S
C5172 C5173 1.366 . S
C5173 C5172 1.366 . S
C5173 C5174 1.414 . S
C5173 C5176 1.499 . S
C5174 H5154 0.950 . S
C5174 C5173 1.414 . S
C5174 C5175 1.374 . S
C5175 H5155 0.950 . S
C5175 C5171 1.385 . S
C5175 C5174 1.374 . S
C5176 C5173 1.499 . S
C5176 C5177 1.373 . S
C5176 C5178 1.389 . S
C5177 H5156 0.950 . S
C5177 C5176 1.373 . S
C5177 C5193 1.377 . S
C5178 C5176 1.389 . S
C5178 C5179 1.524 . S
C5178 C5192 1.377 . S
C5179 C5178 1.524 . S
C5179 C5180 1.397 . S
C5179 C5184 1.363 . S
C5180 H5157 0.950 . S
C5180 C5179 1.397 . S
C5180 C5181 1.334 . S
C5181 H5158 0.950 . S
C5181 C5180 1.334 . S
C5181 C5182 1.287 . S
C5182 C5181 1.287 . S
C5182 C5183 1.524 . S
C5182 H5201 0.913 . S
C5183 H5159 0.950 . S
C5183 C5182 1.524 . S
C5183 C5184 1.415 . S
C5184 H5160 0.950 . S
C5184 C5179 1.363 . S
C5184 C5183 1.415 . S
C5185 H5161 0.951 . S
C5185 C5186 1.366 . S
C5185 C5187 1.388 . S
C5186 C5185 1.366 . S
C5186 C5190 1.385 . S
C5187 H5162 0.951 . S
C5187 C5185 1.388 . S
C5187 C5188 1.366 . S
C5188 C5187 1.366 . S
C5188 C5189 1.414 . S
C5188 C5191 1.499 . S
C5189 H5163 0.950 . S
C5189 C5188 1.414 . S
C5189 C5190 1.374 . S
C5190 H5164 0.950 . S
C5190 C5186 1.385 . S
C5190 C5189 1.374 . S
C5191 C5188 1.499 . S
C5191 C5192 1.373 . S
C5191 C5193 1.389 . S
C5192 H5165 0.950 . S
C5192 C5178 1.377 . S
C5192 C5191 1.373 . S
C5193 C5177 1.377 . S
C5193 C5191 1.389 . S
C5193 C5194 1.524 . S
C5194 C5193 1.524 . S
C5194 C5195 1.397 . S
C5194 C5199 1.363 . S
C5195 H5166 0.950 . S
C5195 C5194 1.397 . S
C5195 C5196 1.334 . S
C5196 H5167 0.950 . S
C5196 C5195 1.334 . S
C5196 C5197 1.287 . S
C5197 C5196 1.287 . S
C5197 C5198 1.524 . S
C5197 H5200 0.999 . S
C5198 H5168 0.950 . S
C5198 C5197 1.524 . S
C5198 C5199 1.415 . S
C5199 H5169 0.950 . S
C5199 C5194 1.363 . S
C5199 C5198 1.415 . S
H5200 C5197 0.999 . S
H5201 C5182 0.913 . S
H5202 C5220 0.951 . S
H5203 C5222 0.951 . S
H5204 C5224 0.950 . S
H5205 C5225 0.950 . S
H5206 C5227 0.950 . S
H5207 C5230 0.950 . S
H5208 C5231 0.950 . S
H5209 C5233 0.950 . S
H5210 C5234 0.950 . S
H5211 C5235 0.951 . S
H5212 C5237 0.951 . S
H5213 C5239 0.950 . S
H5214 C5240 0.950 . S
H5215 C5242 0.950 . S
H5216 C5245 0.950 . S
H5217 C5246 0.950 . S
H5218 C5248 0.950 . S
H5219 C5249 0.950 . S
C5220 H5202 0.951 . S
C5220 C5221 1.366 . S
C5220 C5222 1.388 . S
C5221 C5220 1.366 . S
C5221 C5225 1.385 . S
C5222 H5203 0.951 . S
C5222 C5220 1.388 . S
C5222 C5223 1.366 . S
C5223 C5222 1.366 . S
C5223 C5224 1.414 . S
C5223 C5226 1.499 . S
C5224 H5204 0.950 . S
C5224 C5223 1.414 . S
C5224 C5225 1.374 . S
C5225 H5205 0.950 . S
C5225 C5221 1.385 . S
C5225 C5224 1.374 . S
C5226 C5223 1.499 . S
C5226 C5227 1.373 . S
C5226 C5228 1.389 . S
C5227 H5206 0.950 . S
C5227 C5226 1.373 . S
C5227 C5243 1.377 . S
C5228 C5226 1.389 . S
C5228 C5229 1.524 . S
C5228 C5242 1.377 . S
C5229 C5228 1.524 . S
C5229 C5230 1.397 . S
C5229 C5234 1.363 . S
C5230 H5207 0.950 . S
C5230 C5229 1.397 . S
C5230 C5231 1.334 . S
C5231 H5208 0.950 . S
C5231 C5230 1.334 . S
C5231 C5232 1.287 . S
C5232 C5231 1.287 . S
C5232 C5233 1.524 . S
C5232 H5251 0.913 . S
C5233 H5209 0.950 . S
C5233 C5232 1.524 . S
C5233 C5234 1.415 . S
C5234 H5210 0.950 . S
C5234 C5229 1.363 . S
C5234 C5233 1.415 . S
C5235 H5211 0.951 . S
C5235 C5236 1.366 . S
C5235 C5237 1.388 . S
C5236 C5235 1.366 . S
C5236 C5240 1.385 . S
C5237 H5212 0.951 . S
C5237 C5235 1.388 . S
C5237 C5238 1.366 . S
C5238 C5237 1.366 . S
C5238 C5239 1.414 . S
C5238 C5241 1.499 . S
C5239 H5213 0.950 . S
C5239 C5238 1.414 . S
C5239 C5240 1.374 . S
C5240 H5214 0.950 . S
C5240 C5236 1.385 . S
C5240 C5239 1.374 . S
C5241 C5238 1.499 . S
C5241 C5242 1.373 . S
C5241 C5243 1.389 . S
C5242 H5215 0.950 . S
C5242 C5228 1.377 . S
C5242 C5241 1.373 . S
C5243 C5227 1.377 . S
C5243 C5241 1.389 . S
C5243 C5244 1.524 . S
C5244 C5243 1.524 . S
C5244 C5245 1.397 . S
C5244 C5249 1.363 . S
C5245 H5216 0.950 . S
C5245 C5244 1.397 . S
C5245 C5246 1.334 . S
C5246 H5217 0.950 . S
C5246 C5245 1.334 . S
C5246 C5247 1.287 . S
C5247 C5246 1.287 . S
C5247 C5248 1.524 . S
C5247 H5250 0.999 . S
C5248 H5218 0.950 . S
C5248 C5247 1.524 . S
C5248 C5249 1.415 . S
C5249 H5219 0.950 . S
C5249 C5244 1.363 . S
C5249 C5248 1.415 . S
H5250 C5247 0.999 . S
H5251 C5232 0.913 . S
H5252 C5270 0.951 . S
H5253 C5272 0.951 . S
H5254 C5274 0.950 . S
H5255 C5275 0.950 . S
H5256 C5277 0.950 . S
H5257 C5280 0.950 . S
H5258 C5281 0.950 . S
H5259 C5283 0.950 . S
H5260 C5284 0.950 1_455 S
H5261 C5285 0.951 . S
H5262 C5287 0.951 . S
H5263 C5289 0.950 . S
H5264 C5290 0.950 . S
H5265 C5292 0.936 1_554 S
H5266 C5295 0.942 1_554 S
H5267 C5296 0.950 . S
H5268 C5298 0.950 . S
H5269 C5299 0.950 . S
C5270 H5252 0.951 . S
C5270 C5271 1.366 . S
C5270 C5272 1.388 . S
C5271 C5270 1.366 . S
C5271 C5275 1.385 . S
C5272 H5253 0.951 . S
C5272 C5270 1.388 . S
C5272 C5273 1.366 . S
C5273 C5272 1.366 . S
C5273 C5274 1.414 . S
C5273 C5276 1.499 . S
C5274 H5254 0.950 . S
C5274 C5273 1.414 . S
C5274 C5275 1.374 . S
C5275 H5255 0.950 . S
C5275 C5271 1.385 . S
C5275 C5274 1.374 . S
C5276 C5273 1.499 . S
C5276 C5277 1.373 . S
C5276 C5278 1.389 . S
C5277 H5256 0.950 . S
C5277 C5276 1.373 . S
C5277 C5293 1.377 . S
C5278 C5276 1.389 . S
C5278 C5279 1.529 1_455 S
C5278 C5292 1.377 . S
C5279 C5278 1.529 1_655 S
C5279 C5280 1.394 . S
C5279 C5284 1.360 1_556 S
C5280 H5257 0.950 . S
C5280 C5279 1.394 . S
C5280 C5281 1.334 . S
C5281 H5258 0.950 . S
C5281 C5280 1.334 . S
C5281 C5282 1.287 . S
C5282 C5281 1.287 . S
C5282 C5283 1.524 1_556 S
C5282 H5301 0.935 . S
C5283 H5259 0.950 . S
C5283 C5282 1.524 1_554 S
C5283 C5284 1.415 . S
C5284 H5260 0.950 1_655 S
C5284 C5279 1.360 1_554 S
C5284 C5283 1.415 . S
C5285 H5261 0.951 . S
C5285 C5286 1.366 1_556 S
C5285 C5287 1.388 . S
C5286 C5285 1.366 1_554 S
C5286 C5290 1.385 . S
C5287 H5262 0.951 . S
C5287 C5285 1.388 . S
C5287 C5288 1.366 . S
C5288 C5287 1.366 . S
C5288 C5289 1.414 1_556 S
C5288 C5291 1.499 . S
C5289 H5263 0.950 . S
C5289 C5288 1.414 1_554 S
C5289 C5290 1.374 . S
C5290 H5264 0.950 . S
C5290 C5286 1.385 . S
C5290 C5289 1.374 . S
C5291 C5288 1.499 . S
C5291 C5292 1.373 . S
C5291 C5293 1.389 . S
C5292 H5265 0.936 1_556 S
C5292 C5278 1.377 . S
C5292 C5291 1.373 . S
C5293 C5277 1.377 . S
C5293 C5291 1.389 . S
C5293 C5294 1.524 . S
C5294 C5293 1.524 . S
C5294 C5295 1.397 . S
C5294 C5299 1.363 . S
C5295 H5266 0.942 1_556 S
C5295 C5294 1.397 . S
C5295 C5296 1.334 . S
C5296 H5267 0.950 . S
C5296 C5295 1.334 . S
C5296 C5297 1.287 . S
C5297 C5296 1.287 . S
C5297 C5298 1.524 . S
C5297 H5300 0.999 . S
C5298 H5268 0.950 . S
C5298 C5297 1.524 . S
C5298 C5299 1.415 . S
C5299 H5269 0.950 . S
C5299 C5294 1.363 . S
C5299 C5298 1.415 . S
H5300 C5297 0.999 . S
H5301 C5282 0.935 . S
H5302 C5320 0.951 . S
H5303 C5322 0.951 . S
H5304 C5324 0.950 . S
H5305 C5325 0.950 . S
H5306 C5327 0.950 . S
H5307 C5330 0.950 . S
H5308 C5331 0.950 . S
H5309 C5333 0.950 . S
H5310 C5334 0.950 . S
H5311 C5335 0.951 . S
H5312 C5337 0.951 . S
H5313 C5339 0.950 . S
H5314 C5340 0.950 . S
H5315 C5342 0.950 . S
H5316 C5345 0.950 . S
H5317 C5346 0.950 . S
H5318 C5348 0.950 . S
H5319 C5349 0.950 . S
C5320 H5302 0.951 . S
C5320 C5321 1.366 . S
C5320 C5322 1.388 . S
C5321 C5320 1.366 . S
C5321 C5325 1.385 . S
C5322 H5303 0.951 . S
C5322 C5320 1.388 . S
C5322 C5323 1.366 . S
C5323 C5322 1.366 . S
C5323 C5324 1.414 . S
C5323 C5326 1.499 . S
C5324 H5304 0.950 . S
C5324 C5323 1.414 . S
C5324 C5325 1.374 . S
C5325 H5305 0.950 . S
C5325 C5321 1.385 . S
C5325 C5324 1.374 . S
C5326 C5323 1.499 . S
C5326 C5327 1.373 . S
C5326 C5328 1.389 . S
C5327 H5306 0.950 . S
C5327 C5326 1.373 . S
C5327 C5343 1.377 . S
C5328 C5326 1.389 . S
C5328 C5329 1.524 . S
C5328 C5342 1.377 . S
C5329 C5328 1.524 . S
C5329 C5330 1.397 . S
C5329 C5334 1.363 . S
C5330 H5307 0.950 . S
C5330 C5329 1.397 . S
C5330 C5331 1.334 . S
C5331 H5308 0.950 . S
C5331 C5330 1.334 . S
C5331 C5332 1.287 . S
C5332 C5331 1.287 . S
C5332 C5333 1.524 . S
C5332 H5351 0.913 . S
C5333 H5309 0.950 . S
C5333 C5332 1.524 . S
C5333 C5334 1.415 . S
C5334 H5310 0.950 . S
C5334 C5329 1.363 . S
C5334 C5333 1.415 . S
C5335 H5311 0.951 . S
C5335 C5336 1.366 . S
C5335 C5337 1.388 . S
C5336 C5335 1.366 . S
C5336 C5340 1.385 . S
C5337 H5312 0.951 . S
C5337 C5335 1.388 . S
C5337 C5338 1.366 . S
C5338 C5337 1.366 . S
C5338 C5339 1.414 . S
C5338 C5341 1.499 . S
C5339 H5313 0.950 . S
C5339 C5338 1.414 . S
C5339 C5340 1.374 . S
C5340 H5314 0.950 . S
C5340 C5336 1.385 . S
C5340 C5339 1.374 . S
C5341 C5338 1.499 . S
C5341 C5342 1.373 . S
C5341 C5343 1.389 . S
C5342 H5315 0.950 . S
C5342 C5328 1.377 . S
C5342 C5341 1.373 . S
C5343 C5327 1.377 . S
C5343 C5341 1.389 . S
C5343 C5344 1.524 . S
C5344 C5343 1.524 . S
C5344 C5345 1.397 . S
C5344 C5349 1.363 . S
C5345 H5316 0.950 . S
C5345 C5344 1.397 . S
C5345 C5346 1.334 . S
C5346 H5317 0.950 . S
C5346 C5345 1.334 . S
C5346 C5347 1.287 . S
C5347 C5346 1.287 . S
C5347 C5348 1.524 . S
C5347 H5350 0.999 . S
C5348 H5318 0.950 . S
C5348 C5347 1.524 . S
C5348 C5349 1.415 . S
C5349 H5319 0.950 . S
C5349 C5344 1.363 . S
C5349 C5348 1.415 . S
H5350 C5347 0.999 . S
H5351 C5332 0.913 . S
H5352 C5370 0.951 . S
H5353 C5372 0.951 . S
H5354 C5374 0.950 . S
H5355 C5375 0.950 . S
H5356 C5377 0.950 . S
H5357 C5380 0.950 . S
H5358 C5381 0.950 . S
H5359 C5383 0.950 . S
H5360 C5384 0.950 . S
H5361 C5385 0.951 . S
H5362 C5387 0.951 . S
H5363 C5389 0.950 . S
H5364 C5390 0.950 . S
H5365 C5392 0.950 . S
H5366 C5395 0.950 . S
H5367 C5396 0.950 . S
H5368 C5398 0.950 . S
H5369 C5399 0.950 . S
C5370 H5352 0.951 . S
C5370 C5371 1.366 . S
C5370 C5372 1.388 . S
C5371 C5370 1.366 . S
C5371 C5375 1.385 . S
C5372 H5353 0.951 . S
C5372 C5370 1.388 . S
C5372 C5373 1.366 . S
C5373 C5372 1.366 . S
C5373 C5374 1.414 . S
C5373 C5376 1.499 . S
C5374 H5354 0.950 . S
C5374 C5373 1.414 . S
C5374 C5375 1.374 . S
C5375 H5355 0.950 . S
C5375 C5371 1.385 . S
C5375 C5374 1.374 . S
C5376 C5373 1.499 . S
C5376 C5377 1.373 . S
C5376 C5378 1.389 . S
C5377 H5356 0.950 . S
C5377 C5376 1.373 . S
C5377 C5393 1.377 . S
C5378 C5376 1.389 . S
C5378 C5379 1.524 . S
C5378 C5392 1.377 . S
C5379 C5378 1.524 . S
C5379 C5380 1.397 . S
C5379 C5384 1.363 . S
C5380 H5357 0.950 . S
C5380 C5379 1.397 . S
C5380 C5381 1.334 . S
C5381 H5358 0.950 . S
C5381 C5380 1.334 . S
C5381 C5382 1.287 . S
C5382 C5381 1.287 . S
C5382 C5383 1.524 . S
C5382 H5401 0.913 . S
C5383 H5359 0.950 . S
C5383 C5382 1.524 . S
C5383 C5384 1.415 . S
C5384 H5360 0.950 . S
C5384 C5379 1.363 . S
C5384 C5383 1.415 . S
C5385 H5361 0.951 . S
C5385 C5386 1.366 . S
C5385 C5387 1.388 . S
C5386 C5385 1.366 . S
C5386 C5390 1.385 . S
C5387 H5362 0.951 . S
C5387 C5385 1.388 . S
C5387 C5388 1.366 . S
C5388 C5387 1.366 . S
C5388 C5389 1.414 . S
C5388 C5391 1.499 . S
C5389 H5363 0.950 . S
C5389 C5388 1.414 . S
C5389 C5390 1.374 . S
C5390 H5364 0.950 . S
C5390 C5386 1.385 . S
C5390 C5389 1.374 . S
C5391 C5388 1.499 . S
C5391 C5392 1.373 . S
C5391 C5393 1.389 . S
C5392 H5365 0.950 . S
C5392 C5378 1.377 . S
C5392 C5391 1.373 . S
C5393 C5377 1.377 . S
C5393 C5391 1.389 . S
C5393 C5394 1.524 . S
C5394 C5393 1.524 . S
C5394 C5395 1.397 . S
C5394 C5399 1.363 . S
C5395 H5366 0.950 . S
C5395 C5394 1.397 . S
C5395 C5396 1.334 . S
C5396 H5367 0.950 . S
C5396 C5395 1.334 . S
C5396 C5397 1.287 . S
C5397 C5396 1.287 . S
C5397 C5398 1.524 . S
C5397 H5400 0.999 . S
C5398 H5368 0.950 . S
C5398 C5397 1.524 . S
C5398 C5399 1.415 . S
C5399 H5369 0.950 . S
C5399 C5394 1.363 . S
C5399 C5398 1.415 . S
H5400 C5397 0.999 . S
H5401 C5382 0.913 . S
H5402 C5420 0.951 . S
H5403 C5422 0.951 . S
H5404 C5424 0.950 . S
H5405 C5425 0.950 1_455 S
H5406 C5427 0.950 . S
H5407 C5430 0.950 . S
H5408 C5431 0.950 . S
H5409 C5433 0.950 . S
H5410 C5434 0.950 . S
H5411 C5435 0.951 . S
H5412 C5437 0.951 . S
H5413 C5439 0.950 . S
H5414 C5440 0.950 . S
H5415 C5442 0.950 . S
H5416 C5445 0.950 . S
H5417 C5446 0.950 . S
H5418 C5448 0.950 . S
H5419 C5449 0.950 . S
C5420 H5402 0.951 . S
C5420 C5421 1.366 1_655 S
C5420 C5422 1.388 . S
C5421 C5420 1.366 1_455 S
C5421 C5425 1.385 1_455 S
C5422 H5403 0.951 . S
C5422 C5420 1.388 . S
C5422 C5423 1.366 . S
C5423 C5422 1.366 . S
C5423 C5424 1.414 . S
C5423 C5426 1.499 . S
C5424 H5404 0.950 . S
C5424 C5423 1.414 . S
C5424 C5425 1.374 . S
C5425 H5405 0.950 1_655 S
C5425 C5421 1.385 1_655 S
C5425 C5424 1.374 . S
C5426 C5423 1.499 . S
C5426 C5427 1.373 . S
C5426 C5428 1.389 . S
C5427 H5406 0.950 . S
C5427 C5426 1.373 . S
C5427 C5443 1.377 . S
C5428 C5426 1.389 . S
C5428 C5429 1.524 . S
C5428 C5442 1.377 . S
C5429 C5428 1.524 . S
C5429 C5430 1.397 . S
C5429 C5434 1.363 . S
C5430 H5407 0.950 . S
C5430 C5429 1.397 . S
C5430 C5431 1.334 . S
C5431 H5408 0.950 . S
C5431 C5430 1.334 . S
C5431 C5432 1.287 . S
C5432 C5431 1.287 . S
C5432 C5433 1.524 . S
C5432 H5451 0.913 . S
C5433 H5409 0.950 . S
C5433 C5432 1.524 . S
C5433 C5434 1.415 . S
C5434 H5410 0.950 . S
C5434 C5429 1.363 . S
C5434 C5433 1.415 . S
C5435 H5411 0.951 . S
C5435 C5436 1.366 . S
C5435 C5437 1.388 . S
C5436 C5435 1.366 . S
C5436 C5440 1.385 . S
C5437 H5412 0.951 . S
C5437 C5435 1.388 . S
C5437 C5438 1.366 . S
C5438 C5437 1.366 . S
C5438 C5439 1.414 . S
C5438 C5441 1.499 . S
C5439 H5413 0.950 . S
C5439 C5438 1.414 . S
C5439 C5440 1.374 . S
C5440 H5414 0.950 . S
C5440 C5436 1.385 . S
C5440 C5439 1.374 . S
C5441 C5438 1.499 . S
C5441 C5442 1.373 . S
C5441 C5443 1.389 . S
C5442 H5415 0.950 . S
C5442 C5428 1.377 . S
C5442 C5441 1.373 . S
C5443 C5427 1.377 . S
C5443 C5441 1.389 . S
C5443 C5444 1.524 . S
C5444 C5443 1.524 . S
C5444 C5445 1.397 . S
C5444 C5449 1.363 . S
C5445 H5416 0.950 . S
C5445 C5444 1.397 . S
C5445 C5446 1.334 . S
C5446 H5417 0.950 . S
C5446 C5445 1.334 . S
C5446 C5447 1.287 . S
C5447 C5446 1.287 . S
C5447 C5448 1.524 . S
C5447 H5450 0.999 . S
C5448 H5418 0.950 . S
C5448 C5447 1.524 . S
C5448 C5449 1.415 . S
C5449 H5419 0.950 . S
C5449 C5444 1.363 . S
C5449 C5448 1.415 . S
H5450 C5447 0.999 . S
H5451 C5432 0.913 . S
H5452 C5470 0.951 . S
H5453 C5472 0.951 . S
H5454 C5474 0.950 . S
H5455 C5475 0.942 1_455 S
H5456 C5477 0.950 . S
H5457 C5480 0.950 . S
H5458 C5481 0.950 . S
H5459 C5483 0.950 . S
H5460 C5484 0.950 . S
H5461 C5485 0.951 . S
H5462 C5487 0.951 . S
H5463 C5489 0.950 . S
H5464 C5490 0.950 . S
H5465 C5492 0.950 . S
H5466 C5495 0.950 . S
H5467 C5496 0.950 . S
H5468 C5498 0.950 . S
H5469 C5499 0.950 . S
C5470 H5452 0.951 . S
C5470 C5471 1.366 . S
C5470 C5472 1.388 . S
C5471 C5470 1.366 . S
C5471 C5475 1.419 . S
C5472 H5453 0.951 . S
C5472 C5470 1.388 . S
C5472 C5473 1.366 . S
C5473 C5472 1.366 . S
C5473 C5474 1.414 1_655 S
C5473 C5476 1.499 1_655 S
C5474 H5454 0.950 . S
C5474 C5473 1.414 1_455 S
C5474 C5475 1.349 1_455 S
C5475 H5455 0.942 1_655 S
C5475 C5471 1.419 . S
C5475 C5474 1.349 1_655 S
C5476 C5473 1.499 1_455 S
C5476 C5477 1.373 . S
C5476 C5478 1.389 1_455 S
C5477 H5456 0.950 . S
C5477 C5476 1.373 . S
C5477 C5493 1.377 . S
C5478 C5476 1.389 1_655 S
C5478 C5479 1.524 . S
C5478 C5492 1.377 . S
C5479 C5478 1.524 . S
C5479 C5480 1.397 . S
C5479 C5484 1.363 . S
C5480 H5457 0.950 . S
C5480 C5479 1.397 . S
C5480 C5481 1.334 . S
C5481 H5458 0.950 . S
C5481 C5480 1.334 . S
C5481 C5482 1.287 . S
C5482 C5481 1.287 . S
C5482 C5483 1.524 . S
C5482 H5501 0.913 . S
C5483 H5459 0.950 . S
C5483 C5482 1.524 . S
C5483 C5484 1.415 . S
C5484 H5460 0.950 . S
C5484 C5479 1.363 . S
C5484 C5483 1.415 . S
C5485 H5461 0.951 . S
C5485 C5486 1.366 . S
C5485 C5487 1.388 . S
C5486 C5485 1.366 . S
C5486 C5490 1.385 . S
C5487 H5462 0.951 . S
C5487 C5485 1.388 . S
C5487 C5488 1.366 . S
C5488 C5487 1.366 . S
C5488 C5489 1.414 . S
C5488 C5491 1.499 . S
C5489 H5463 0.950 . S
C5489 C5488 1.414 . S
C5489 C5490 1.374 . S
C5490 H5464 0.950 . S
C5490 C5486 1.385 . S
C5490 C5489 1.374 . S
C5491 C5488 1.499 . S
C5491 C5492 1.373 1_455 S
C5491 C5493 1.389 . S
C5492 H5465 0.950 . S
C5492 C5478 1.377 . S
C5492 C5491 1.373 1_655 S
C5493 C5477 1.377 . S
C5493 C5491 1.389 . S
C5493 C5494 1.524 . S
C5494 C5493 1.524 . S
C5494 C5495 1.397 . S
C5494 C5499 1.363 . S
C5495 H5466 0.950 . S
C5495 C5494 1.397 . S
C5495 C5496 1.334 . S
C5496 H5467 0.950 . S
C5496 C5495 1.334 . S
C5496 C5497 1.287 . S
C5497 C5496 1.287 . S
C5497 C5498 1.524 . S
C5497 H5500 0.999 . S
C5498 H5468 0.950 . S
C5498 C5497 1.524 . S
C5498 C5499 1.415 . S
C5499 H5469 0.950 . S
C5499 C5494 1.363 . S
C5499 C5498 1.415 . S
H5500 C5497 0.999 . S
H5501 C5482 0.913 . S
H5502 C5520 0.951 . S
H5503 C5522 0.951 . S
H5504 C5524 0.950 . S
H5505 C5525 0.950 . S
H5506 C5527 0.950 . S
H5507 C5530 0.950 . S
H5508 C5531 0.950 . S
H5509 C5533 0.950 . S
H5510 C5534 0.950 . S
H5511 C5535 0.951 . S
H5512 C5537 0.951 . S
H5513 C5539 0.950 . S
H5514 C5540 0.950 . S
H5515 C5542 0.950 . S
H5516 C5545 0.950 . S
H5517 C5546 0.950 . S
H5518 C5548 0.950 . S
H5519 C5549 0.950 . S
C5520 H5502 0.951 . S
C5520 C5521 1.366 . S
C5520 C5522 1.388 . S
C5521 C5520 1.366 . S
C5521 C5525 1.385 . S
C5522 H5503 0.951 . S
C5522 C5520 1.388 . S
C5522 C5523 1.366 . S
C5523 C5522 1.366 . S
C5523 C5524 1.414 . S
C5523 C5526 1.499 . S
C5524 H5504 0.950 . S
C5524 C5523 1.414 . S
C5524 C5525 1.374 . S
C5525 H5505 0.950 . S
C5525 C5521 1.385 . S
C5525 C5524 1.374 . S
C5526 C5523 1.499 . S
C5526 C5527 1.373 . S
C5526 C5528 1.389 . S
C5527 H5506 0.950 . S
C5527 C5526 1.373 . S
C5527 C5543 1.377 . S
C5528 C5526 1.389 . S
C5528 C5529 1.524 . S
C5528 C5542 1.377 . S
C5529 C5528 1.524 . S
C5529 C5530 1.397 . S
C5529 C5534 1.363 . S
C5530 H5507 0.950 . S
C5530 C5529 1.397 . S
C5530 C5531 1.334 . S
C5531 H5508 0.950 . S
C5531 C5530 1.334 . S
C5531 C5532 1.287 . S
C5532 C5531 1.287 . S
C5532 C5533 1.524 . S
C5532 H5551 0.913 . S
C5533 H5509 0.950 . S
C5533 C5532 1.524 . S
C5533 C5534 1.415 . S
C5534 H5510 0.950 . S
C5534 C5529 1.363 . S
C5534 C5533 1.415 . S
C5535 H5511 0.951 . S
C5535 C5536 1.366 . S
C5535 C5537 1.388 . S
C5536 C5535 1.366 . S
C5536 C5540 1.385 . S
C5537 H5512 0.951 . S
C5537 C5535 1.388 . S
C5537 C5538 1.366 . S
C5538 C5537 1.366 . S
C5538 C5539 1.414 . S
C5538 C5541 1.499 . S
C5539 H5513 0.950 . S
C5539 C5538 1.414 . S
C5539 C5540 1.374 . S
C5540 H5514 0.950 . S
C5540 C5536 1.385 . S
C5540 C5539 1.374 . S
C5541 C5538 1.499 . S
C5541 C5542 1.373 . S
C5541 C5543 1.389 . S
C5542 H5515 0.950 . S
C5542 C5528 1.377 . S
C5542 C5541 1.373 . S
C5543 C5527 1.377 . S
C5543 C5541 1.389 . S
C5543 C5544 1.524 . S
C5544 C5543 1.524 . S
C5544 C5545 1.397 . S
C5544 C5549 1.363 . S
C5545 H5516 0.950 . S
C5545 C5544 1.397 . S
C5545 C5546 1.334 . S
C5546 H5517 0.950 . S
C5546 C5545 1.334 . S
C5546 C5547 1.287 . S
C5547 C5546 1.287 . S
C5547 C5548 1.524 . S
C5547 H5550 0.999 . S
C5548 H5518 0.950 . S
C5548 C5547 1.524 . S
C5548 C5549 1.415 . S
C5549 H5519 0.950 . S
C5549 C5544 1.363 . S
C5549 C5548 1.415 . S
H5550 C5547 0.999 . S
H5551 C5532 0.913 . S
H5552 C5570 0.951 . S
H5553 C5572 0.951 . S
H5554 C5574 0.950 . S
H5555 C5575 0.950 . S
H5556 C5577 0.950 . S
H5557 C5580 0.950 . S
H5558 C5581 0.950 . S
H5559 C5583 0.950 . S
H5560 C5584 0.950 . S
H5561 C5585 0.951 . S
H5562 C5587 0.951 . S
H5563 C5589 0.950 . S
H5564 C5590 0.950 . S
H5565 C5592 0.950 . S
H5566 C5595 0.950 . S
H5567 C5596 0.950 . S
H5568 C5598 0.950 . S
H5569 C5599 0.950 . S
C5570 H5552 0.951 . S
C5570 C5571 1.366 . S
C5570 C5572 1.388 . S
C5571 C5570 1.366 . S
C5571 C5575 1.385 . S
C5572 H5553 0.951 . S
C5572 C5570 1.388 . S
C5572 C5573 1.366 . S
C5573 C5572 1.366 . S
C5573 C5574 1.414 . S
C5573 C5576 1.499 . S
C5574 H5554 0.950 . S
C5574 C5573 1.414 . S
C5574 C5575 1.374 . S
C5575 H5555 0.950 . S
C5575 C5571 1.385 . S
C5575 C5574 1.374 . S
C5576 C5573 1.499 . S
C5576 C5577 1.373 . S
C5576 C5578 1.389 . S
C5577 H5556 0.950 . S
C5577 C5576 1.373 . S
C5577 C5593 1.377 . S
C5578 C5576 1.389 . S
C5578 C5579 1.524 . S
C5578 C5592 1.377 . S
C5579 C5578 1.524 . S
C5579 C5580 1.397 . S
C5579 C5584 1.363 . S
C5580 H5557 0.950 . S
C5580 C5579 1.397 . S
C5580 C5581 1.334 . S
C5581 H5558 0.950 . S
C5581 C5580 1.334 . S
C5581 C5582 1.287 . S
C5582 C5581 1.287 . S
C5582 C5583 1.524 . S
C5582 H5601 0.913 . S
C5583 H5559 0.950 . S
C5583 C5582 1.524 . S
C5583 C5584 1.415 . S
C5584 H5560 0.950 . S
C5584 C5579 1.363 . S
C5584 C5583 1.415 . S
C5585 H5561 0.951 . S
C5585 C5586 1.366 . S
C5585 C5587 1.388 . S
C5586 C5585 1.366 . S
C5586 C5590 1.385 . S
C5587 H5562 0.951 . S
C5587 C5585 1.388 . S
C5587 C5588 1.366 . S
C5588 C5587 1.366 . S
C5588 C5589 1.414 . S
C5588 C5591 1.499 . S
C5589 H5563 0.950 . S
C5589 C5588 1.414 . S
C5589 C5590 1.374 . S
C5590 H5564 0.950 . S
C5590 C5586 1.385 . S
C5590 C5589 1.374 . S
C5591 C5588 1.499 . S
C5591 C5592 1.373 . S
C5591 C5593 1.389 . S
C5592 H5565 0.950 . S
C5592 C5578 1.377 . S
C5592 C5591 1.373 . S
C5593 C5577 1.377 . S
C5593 C5591 1.389 . S
C5593 C5594 1.524 . S
C5594 C5593 1.524 . S
C5594 C5595 1.397 . S
C5594 C5599 1.363 . S
C5595 H5566 0.950 . S
C5595 C5594 1.397 . S
C5595 C5596 1.334 . S
C5596 H5567 0.950 . S
C5596 C5595 1.334 . S
C5596 C5597 1.287 . S
C5597 C5596 1.287 . S
C5597 C5598 1.524 . S
C5597 H5600 0.999 . S
C5598 H5568 0.950 . S
C5598 C5597 1.524 . S
C5598 C5599 1.415 . S
C5599 H5569 0.950 . S
C5599 C5594 1.363 . S
C5599 C5598 1.415 . S
H5600 C5597 0.999 . S
H5601 C5582 0.913 . S
H5602 C5620 0.951 . S
H5603 C5622 0.951 . S
H5604 C5624 0.950 . S
H5605 C5625 0.950 . S
H5606 C5627 0.950 . S
H5607 C5630 0.950 . S
H5608 C5631 0.950 . S
H5609 C5633 0.950 . S
H5610 C5634 0.950 . S
H5611 C5635 0.951 . S
H5612 C5637 0.951 . S
H5613 C5639 0.950 . S
H5614 C5640 0.950 . S
H5615 C5642 0.950 . S
H5616 C5645 0.950 . S
H5617 C5646 0.950 . S
H5618 C5648 0.950 . S
H5619 C5649 0.950 . S
C5620 H5602 0.951 . S
C5620 C5621 1.366 . S
C5620 C5622 1.388 . S
C5621 C5620 1.366 . S
C5621 C5625 1.385 . S
C5622 H5603 0.951 . S
C5622 C5620 1.388 . S
C5622 C5623 1.366 . S
C5623 C5622 1.366 . S
C5623 C5624 1.414 . S
C5623 C5626 1.499 . S
C5624 H5604 0.950 . S
C5624 C5623 1.414 . S
C5624 C5625 1.374 . S
C5625 H5605 0.950 . S
C5625 C5621 1.385 . S
C5625 C5624 1.374 . S
C5626 C5623 1.499 . S
C5626 C5627 1.373 . S
C5626 C5628 1.389 . S
C5627 H5606 0.950 . S
C5627 C5626 1.373 . S
C5627 C5643 1.377 . S
C5628 C5626 1.389 . S
C5628 C5629 1.524 . S
C5628 C5642 1.377 . S
C5629 C5628 1.524 . S
C5629 C5630 1.397 . S
C5629 C5634 1.363 . S
C5630 H5607 0.950 . S
C5630 C5629 1.397 . S
C5630 C5631 1.334 . S
C5631 H5608 0.950 . S
C5631 C5630 1.334 . S
C5631 C5632 1.287 . S
C5632 C5631 1.287 . S
C5632 C5633 1.524 . S
C5632 H5651 0.913 . S
C5633 H5609 0.950 . S
C5633 C5632 1.524 . S
C5633 C5634 1.415 . S
C5634 H5610 0.950 . S
C5634 C5629 1.363 . S
C5634 C5633 1.415 . S
C5635 H5611 0.951 . S
C5635 C5636 1.366 . S
C5635 C5637 1.388 . S
C5636 C5635 1.366 . S
C5636 C5640 1.385 . S
C5637 H5612 0.951 . S
C5637 C5635 1.388 . S
C5637 C5638 1.366 . S
C5638 C5637 1.366 . S
C5638 C5639 1.414 . S
C5638 C5641 1.499 . S
C5639 H5613 0.950 . S
C5639 C5638 1.414 . S
C5639 C5640 1.374 . S
C5640 H5614 0.950 . S
C5640 C5636 1.385 . S
C5640 C5639 1.374 . S
C5641 C5638 1.499 . S
C5641 C5642 1.373 . S
C5641 C5643 1.389 . S
C5642 H5615 0.950 . S
C5642 C5628 1.377 . S
C5642 C5641 1.373 . S
C5643 C5627 1.377 . S
C5643 C5641 1.389 . S
C5643 C5644 1.524 . S
C5644 C5643 1.524 . S
C5644 C5645 1.397 . S
C5644 C5649 1.363 . S
C5645 H5616 0.950 . S
C5645 C5644 1.397 . S
C5645 C5646 1.334 . S
C5646 H5617 0.950 . S
C5646 C5645 1.334 . S
C5646 C5647 1.287 . S
C5647 C5646 1.287 . S
C5647 C5648 1.524 . S
C5647 H5650 0.999 . S
C5648 H5618 0.950 . S
C5648 C5647 1.524 . S
C5648 C5649 1.415 . S
C5649 H5619 0.950 . S
C5649 C5644 1.363 . S
C5649 C5648 1.415 . S
H5650 C5647 0.999 . S
H5651 C5632 0.913 . S
H5652 C5670 0.951 . S
H5653 C5672 0.951 . S
H5654 C5674 0.950 . S
H5655 C5675 0.950 . S
H5656 C5677 0.950 . S
H5657 C5680 0.950 . S
H5658 C5681 0.950 . S
H5659 C5683 0.950 . S
H5660 C5684 0.950 . S
H5661 C5685 0.951 . S
H5662 C5687 0.951 . S
H5663 C5689 0.950 . S
H5664 C5690 0.950 . S
H5665 C5692 0.950 . S
H5666 C5695 0.950 . S
H5667 C5696 0.950 . S
H5668 C5698 0.950 . S
H5669 C5699 0.950 . S
C5670 H5652 0.951 . S
C5670 C5671 1.366 . S
C5670 C5672 1.388 . S
C5671 C5670 1.366 . S
C5671 C5675 1.385 . S
C5672 H5653 0.951 . S
C5672 C5670 1.388 . S
C5672 C5673 1.366 . S
C5673 C5672 1.366 . S
C5673 C5674 1.414 . S
C5673 C5676 1.499 . S
C5674 H5654 0.950 . S
C5674 C5673 1.414 . S
C5674 C5675 1.374 . S
C5675 H5655 0.950 . S
C5675 C5671 1.385 . S
C5675 C5674 1.374 . S
C5676 C5673 1.499 . S
C5676 C5677 1.373 . S
C5676 C5678 1.389 . S
C5677 H5656 0.950 . S
C5677 C5676 1.373 . S
C5677 C5693 1.377 . S
C5678 C5676 1.389 . S
C5678 C5679 1.524 . S
C5678 C5692 1.377 . S
C5679 C5678 1.524 . S
C5679 C5680 1.397 . S
C5679 C5684 1.363 . S
C5680 H5657 0.950 . S
C5680 C5679 1.397 . S
C5680 C5681 1.334 . S
C5681 H5658 0.950 . S
C5681 C5680 1.334 . S
C5681 C5682 1.287 . S
C5682 C5681 1.287 . S
C5682 C5683 1.524 . S
C5682 H5701 0.913 . S
C5683 H5659 0.950 . S
C5683 C5682 1.524 . S
C5683 C5684 1.415 . S
C5684 H5660 0.950 . S
C5684 C5679 1.363 . S
C5684 C5683 1.415 . S
C5685 H5661 0.951 . S
C5685 C5686 1.366 . S
C5685 C5687 1.388 . S
C5686 C5685 1.366 . S
C5686 C5690 1.385 . S
C5687 H5662 0.951 . S
C5687 C5685 1.388 . S
C5687 C5688 1.366 . S
C5688 C5687 1.366 . S
C5688 C5689 1.414 . S
C5688 C5691 1.499 . S
C5689 H5663 0.950 . S
C5689 C5688 1.414 . S
C5689 C5690 1.374 . S
C5690 H5664 0.950 . S
C5690 C5686 1.385 . S
C5690 C5689 1.374 . S
C5691 C5688 1.499 . S
C5691 C5692 1.373 . S
C5691 C5693 1.389 . S
C5692 H5665 0.950 . S
C5692 C5678 1.377 . S
C5692 C5691 1.373 . S
C5693 C5677 1.377 . S
C5693 C5691 1.389 . S
C5693 C5694 1.524 . S
C5694 C5693 1.524 . S
C5694 C5695 1.397 . S
C5694 C5699 1.363 . S
C5695 H5666 0.950 . S
C5695 C5694 1.397 . S
C5695 C5696 1.334 . S
C5696 H5667 0.950 . S
C5696 C5695 1.334 . S
C5696 C5697 1.287 . S
C5697 C5696 1.287 . S
C5697 C5698 1.524 . S
C5697 H5700 0.999 . S
C5698 H5668 0.950 . S
C5698 C5697 1.524 . S
C5698 C5699 1.415 . S
C5699 H5669 0.950 . S
C5699 C5694 1.363 . S
C5699 C5698 1.415 . S
H5700 C5697 0.999 . S
H5701 C5682 0.913 . S
H5702 C5720 0.951 . S
H5703 C5722 0.951 . S
H5704 C5724 0.950 . S
H5705 C5725 0.950 . S
H5706 C5727 0.950 . S
H5707 C5730 0.950 . S
H5708 C5731 0.950 . S
H5709 C5733 0.950 . S
H5710 C5734 0.950 . S
H5711 C5735 0.951 . S
H5712 C5737 0.951 . S
H5713 C5739 0.950 . S
H5714 C5740 0.950 . S
H5715 C5742 0.950 . S
H5716 C5745 0.950 . S
H5717 C5746 0.950 . S
H5718 C5748 0.950 . S
H5719 C5749 0.950 . S
C5720 H5702 0.951 . S
C5720 C5721 1.366 . S
C5720 C5722 1.388 . S
C5721 C5720 1.366 . S
C5721 C5725 1.385 . S
C5722 H5703 0.951 . S
C5722 C5720 1.388 . S
C5722 C5723 1.366 . S
C5723 C5722 1.366 . S
C5723 C5724 1.414 . S
C5723 C5726 1.499 . S
C5724 H5704 0.950 . S
C5724 C5723 1.414 . S
C5724 C5725 1.374 . S
C5725 H5705 0.950 . S
C5725 C5721 1.385 . S
C5725 C5724 1.374 . S
C5726 C5723 1.499 . S
C5726 C5727 1.373 . S
C5726 C5728 1.389 . S
C5727 H5706 0.950 . S
C5727 C5726 1.373 . S
C5727 C5743 1.377 . S
C5728 C5726 1.389 . S
C5728 C5729 1.524 . S
C5728 C5742 1.377 . S
C5729 C5728 1.524 . S
C5729 C5730 1.397 . S
C5729 C5734 1.363 . S
C5730 H5707 0.950 . S
C5730 C5729 1.397 . S
C5730 C5731 1.334 . S
C5731 H5708 0.950 . S
C5731 C5730 1.334 . S
C5731 C5732 1.287 . S
C5732 C5731 1.287 . S
C5732 C5733 1.524 . S
C5732 H5751 0.913 . S
C5733 H5709 0.950 . S
C5733 C5732 1.524 . S
C5733 C5734 1.415 . S
C5734 H5710 0.950 . S
C5734 C5729 1.363 . S
C5734 C5733 1.415 . S
C5735 H5711 0.951 . S
C5735 C5736 1.366 . S
C5735 C5737 1.388 . S
C5736 C5735 1.366 . S
C5736 C5740 1.385 . S
C5737 H5712 0.951 . S
C5737 C5735 1.388 . S
C5737 C5738 1.366 . S
C5738 C5737 1.366 . S
C5738 C5739 1.414 . S
C5738 C5741 1.499 . S
C5739 H5713 0.950 . S
C5739 C5738 1.414 . S
C5739 C5740 1.374 . S
C5740 H5714 0.950 . S
C5740 C5736 1.385 . S
C5740 C5739 1.374 . S
C5741 C5738 1.499 . S
C5741 C5742 1.373 . S
C5741 C5743 1.389 . S
C5742 H5715 0.950 . S
C5742 C5728 1.377 . S
C5742 C5741 1.373 . S
C5743 C5727 1.377 . S
C5743 C5741 1.389 . S
C5743 C5744 1.524 . S
C5744 C5743 1.524 . S
C5744 C5745 1.397 . S
C5744 C5749 1.363 . S
C5745 H5716 0.950 . S
C5745 C5744 1.397 . S
C5745 C5746 1.334 . S
C5746 H5717 0.950 . S
C5746 C5745 1.334 . S
C5746 C5747 1.287 . S
C5747 C5746 1.287 . S
C5747 C5748 1.524 . S
C5747 H5750 0.999 . S
C5748 H5718 0.950 . S
C5748 C5747 1.524 . S
C5748 C5749 1.415 . S
C5749 H5719 0.950 . S
C5749 C5744 1.363 . S
C5749 C5748 1.415 . S
H5750 C5747 0.999 . S
H5751 C5732 0.913 . S
H5752 C5770 0.951 . S
H5753 C5772 0.951 . S
H5754 C5774 0.950 . S
H5755 C5775 0.950 . S
H5756 C5777 0.950 . S
H5757 C5780 0.950 . S
H5758 C5781 0.950 . S
H5759 C5783 0.950 . S
H5760 C5784 0.950 . S
H5761 C5785 0.951 . S
H5762 C5787 0.951 . S
H5763 C5789 0.950 . S
H5764 C5790 0.950 . S
H5765 C5792 0.950 . S
H5766 C5795 0.950 . S
H5767 C5796 0.950 . S
H5768 C5798 0.950 . S
H5769 C5799 0.950 . S
C5770 H5752 0.951 . S
C5770 C5771 1.366 . S
C5770 C5772 1.388 . S
C5771 C5770 1.366 . S
C5771 C5775 1.385 . S
C5772 H5753 0.951 . S
C5772 C5770 1.388 . S
C5772 C5773 1.366 . S
C5773 C5772 1.366 . S
C5773 C5774 1.414 . S
C5773 C5776 1.499 . S
C5774 H5754 0.950 . S
C5774 C5773 1.414 . S
C5774 C5775 1.374 . S
C5775 H5755 0.950 . S
C5775 C5771 1.385 . S
C5775 C5774 1.374 . S
C5776 C5773 1.499 . S
C5776 C5777 1.373 . S
C5776 C5778 1.389 . S
C5777 H5756 0.950 . S
C5777 C5776 1.373 . S
C5777 C5793 1.377 . S
C5778 C5776 1.389 . S
C5778 C5779 1.524 . S
C5778 C5792 1.377 . S
C5779 C5778 1.524 . S
C5779 C5780 1.397 . S
C5779 C5784 1.363 . S
C5780 H5757 0.950 . S
C5780 C5779 1.397 . S
C5780 C5781 1.334 . S
C5781 H5758 0.950 . S
C5781 C5780 1.334 . S
C5781 C5782 1.287 . S
C5782 C5781 1.287 . S
C5782 C5783 1.524 . S
C5782 H5801 0.913 . S
C5783 H5759 0.950 . S
C5783 C5782 1.524 . S
C5783 C5784 1.415 . S
C5784 H5760 0.950 . S
C5784 C5779 1.363 . S
C5784 C5783 1.415 . S
C5785 H5761 0.951 . S
C5785 C5786 1.366 . S
C5785 C5787 1.388 . S
C5786 C5785 1.366 . S
C5786 C5790 1.385 . S
C5787 H5762 0.951 . S
C5787 C5785 1.388 . S
C5787 C5788 1.366 . S
C5788 C5787 1.366 . S
C5788 C5789 1.414 . S
C5788 C5791 1.499 . S
C5789 H5763 0.950 . S
C5789 C5788 1.414 . S
C5789 C5790 1.374 . S
C5790 H5764 0.950 . S
C5790 C5786 1.385 . S
C5790 C5789 1.374 . S
C5791 C5788 1.499 . S
C5791 C5792 1.373 . S
C5791 C5793 1.389 . S
C5792 H5765 0.950 . S
C5792 C5778 1.377 . S
C5792 C5791 1.373 . S
C5793 C5777 1.377 . S
C5793 C5791 1.389 . S
C5793 C5794 1.524 . S
C5794 C5793 1.524 . S
C5794 C5795 1.397 . S
C5794 C5799 1.363 . S
C5795 H5766 0.950 . S
C5795 C5794 1.397 . S
C5795 C5796 1.334 . S
C5796 H5767 0.950 . S
C5796 C5795 1.334 . S
C5796 C5797 1.287 . S
C5797 C5796 1.287 . S
C5797 C5798 1.524 . S
C5797 H5800 0.999 . S
C5798 H5768 0.950 . S
C5798 C5797 1.524 . S
C5798 C5799 1.415 . S
C5799 H5769 0.950 . S
C5799 C5794 1.363 . S
C5799 C5798 1.415 . S
H5800 C5797 0.999 . S
H5801 C5782 0.913 . S
H5802 C5820 0.951 . S
H5803 C5822 0.951 . S
H5804 C5824 0.950 . S
H5805 C5825 0.950 . S
H5806 C5827 0.950 . S
H5807 C5830 0.950 . S
H5808 C5831 0.950 . S
H5809 C5833 0.950 . S
H5810 C5834 0.950 . S
H5811 C5835 0.951 . S
H5812 C5837 0.951 . S
H5813 C5839 0.950 . S
H5814 C5840 0.950 . S
H5815 C5842 0.950 . S
H5816 C5845 0.950 . S
H5817 C5846 0.950 . S
H5818 C5848 0.950 . S
H5819 C5849 0.950 . S
C5820 H5802 0.951 . S
C5820 C5821 1.366 . S
C5820 C5822 1.388 . S
C5821 C5820 1.366 . S
C5821 C5825 1.385 . S
C5822 H5803 0.951 . S
C5822 C5820 1.388 . S
C5822 C5823 1.366 . S
C5823 C5822 1.366 . S
C5823 C5824 1.414 . S
C5823 C5826 1.499 . S
C5824 H5804 0.950 . S
C5824 C5823 1.414 . S
C5824 C5825 1.374 . S
C5825 H5805 0.950 . S
C5825 C5821 1.385 . S
C5825 C5824 1.374 . S
C5826 C5823 1.499 . S
C5826 C5827 1.373 . S
C5826 C5828 1.389 . S
C5827 H5806 0.950 . S
C5827 C5826 1.373 . S
C5827 C5843 1.377 . S
C5828 C5826 1.389 . S
C5828 C5829 1.524 . S
C5828 C5842 1.377 . S
C5829 C5828 1.524 . S
C5829 C5830 1.397 . S
C5829 C5834 1.363 . S
C5830 H5807 0.950 . S
C5830 C5829 1.397 . S
C5830 C5831 1.334 . S
C5831 H5808 0.950 . S
C5831 C5830 1.334 . S
C5831 C5832 1.287 . S
C5832 C5831 1.287 . S
C5832 C5833 1.524 . S
C5832 H5851 0.913 . S
C5833 H5809 0.950 . S
C5833 C5832 1.524 . S
C5833 C5834 1.415 . S
C5834 H5810 0.950 . S
C5834 C5829 1.363 . S
C5834 C5833 1.415 . S
C5835 H5811 0.951 . S
C5835 C5836 1.366 . S
C5835 C5837 1.388 . S
C5836 C5835 1.366 . S
C5836 C5840 1.385 . S
C5837 H5812 0.951 . S
C5837 C5835 1.388 . S
C5837 C5838 1.366 . S
C5838 C5837 1.366 . S
C5838 C5839 1.414 . S
C5838 C5841 1.499 . S
C5839 H5813 0.950 . S
C5839 C5838 1.414 . S
C5839 C5840 1.374 . S
C5840 H5814 0.950 . S
C5840 C5836 1.385 . S
C5840 C5839 1.374 . S
C5841 C5838 1.499 . S
C5841 C5842 1.373 . S
C5841 C5843 1.389 . S
C5842 H5815 0.950 . S
C5842 C5828 1.377 . S
C5842 C5841 1.373 . S
C5843 C5827 1.377 . S
C5843 C5841 1.389 . S
C5843 C5844 1.524 . S
C5844 C5843 1.524 . S
C5844 C5845 1.397 . S
C5844 C5849 1.363 . S
C5845 H5816 0.950 . S
C5845 C5844 1.397 . S
C5845 C5846 1.334 . S
C5846 H5817 0.950 . S
C5846 C5845 1.334 . S
C5846 C5847 1.287 . S
C5847 C5846 1.287 . S
C5847 C5848 1.524 . S
C5847 H5850 0.999 . S
C5848 H5818 0.950 . S
C5848 C5847 1.524 . S
C5848 C5849 1.415 . S
C5849 H5819 0.950 . S
C5849 C5844 1.363 . S
C5849 C5848 1.415 . S
H5850 C5847 0.999 . S
H5851 C5832 0.913 . S
H5852 C5870 0.951 . S
H5853 C5872 0.951 . S
H5854 C5874 0.950 . S
H5855 C5875 0.950 . S
H5856 C5877 0.950 . S
H5857 C5880 0.950 . S
H5858 C5881 0.950 . S
H5859 C5883 0.950 . S
H5860 C5884 0.950 . S
H5861 C5885 0.951 . S
H5862 C5887 0.951 . S
H5863 C5889 0.950 . S
H5864 C5890 0.950 . S
H5865 C5892 0.950 . S
H5866 C5895 0.950 . S
H5867 C5896 0.950 . S
H5868 C5898 0.950 . S
H5869 C5899 0.950 . S
C5870 H5852 0.951 . S
C5870 C5871 1.366 . S
C5870 C5872 1.388 . S
C5871 C5870 1.366 . S
C5871 C5875 1.385 . S
C5872 H5853 0.951 . S
C5872 C5870 1.388 . S
C5872 C5873 1.366 . S
C5873 C5872 1.366 . S
C5873 C5874 1.414 . S
C5873 C5876 1.499 . S
C5874 H5854 0.950 . S
C5874 C5873 1.414 . S
C5874 C5875 1.374 . S
C5875 H5855 0.950 . S
C5875 C5871 1.385 . S
C5875 C5874 1.374 . S
C5876 C5873 1.499 . S
C5876 C5877 1.373 . S
C5876 C5878 1.389 . S
C5877 H5856 0.950 . S
C5877 C5876 1.373 . S
C5877 C5893 1.377 . S
C5878 C5876 1.389 . S
C5878 C5879 1.524 . S
C5878 C5892 1.377 . S
C5879 C5878 1.524 . S
C5879 C5880 1.397 . S
C5879 C5884 1.363 . S
C5880 H5857 0.950 . S
C5880 C5879 1.397 . S
C5880 C5881 1.334 . S
C5881 H5858 0.950 . S
C5881 C5880 1.334 . S
C5881 C5882 1.287 . S
C5882 C5881 1.287 . S
C5882 C5883 1.524 . S
C5882 H5901 0.913 . S
C5883 H5859 0.950 . S
C5883 C5882 1.524 . S
C5883 C5884 1.415 . S
C5884 H5860 0.950 . S
C5884 C5879 1.363 . S
C5884 C5883 1.415 . S
C5885 H5861 0.951 . S
C5885 C5886 1.366 . S
C5885 C5887 1.388 . S
C5886 C5885 1.366 . S
C5886 C5890 1.385 . S
C5887 H5862 0.951 . S
C5887 C5885 1.388 . S
C5887 C5888 1.366 . S
C5888 C5887 1.366 . S
C5888 C5889 1.414 . S
C5888 C5891 1.499 . S
C5889 H5863 0.950 . S
C5889 C5888 1.414 . S
C5889 C5890 1.374 . S
C5890 H5864 0.950 . S
C5890 C5886 1.385 . S
C5890 C5889 1.374 . S
C5891 C5888 1.499 . S
C5891 C5892 1.373 . S
C5891 C5893 1.389 . S
C5892 H5865 0.950 . S
C5892 C5878 1.377 . S
C5892 C5891 1.373 . S
C5893 C5877 1.377 . S
C5893 C5891 1.389 . S
C5893 C5894 1.524 . S
C5894 C5893 1.524 . S
C5894 C5895 1.397 . S
C5894 C5899 1.363 . S
C5895 H5866 0.950 . S
C5895 C5894 1.397 . S
C5895 C5896 1.334 . S
C5896 H5867 0.950 . S
C5896 C5895 1.334 . S
C5896 C5897 1.287 . S
C5897 C5896 1.287 . S
C5897 C5898 1.524 . S
C5897 H5900 0.999 . S
C5898 H5868 0.950 . S
C5898 C5897 1.524 . S
C5898 C5899 1.415 . S
C5899 H5869 0.950 . S
C5899 C5894 1.363 . S
C5899 C5898 1.415 . S
H5900 C5897 0.999 . S
H5901 C5882 0.913 . S
H5902 C5920 0.951 . S
H5903 C5922 0.951 . S
H5904 C5924 0.950 . S
H5905 C5925 0.950 . S
H5906 C5927 0.950 . S
H5907 C5930 0.950 . S
H5908 C5931 0.950 . S
H5909 C5933 0.950 . S
H5910 C5934 0.950 . S
H5911 C5935 0.951 . S
H5912 C5937 0.951 . S
H5913 C5939 0.950 . S
H5914 C5940 0.950 . S
H5915 C5942 0.950 . S
H5916 C5945 0.950 . S
H5917 C5946 0.950 . S
H5918 C5948 0.950 . S
H5919 C5949 0.950 . S
C5920 H5902 0.951 . S
C5920 C5921 1.366 . S
C5920 C5922 1.388 . S
C5921 C5920 1.366 . S
C5921 C5925 1.385 . S
C5922 H5903 0.951 . S
C5922 C5920 1.388 . S
C5922 C5923 1.366 . S
C5923 C5922 1.366 . S
C5923 C5924 1.414 . S
C5923 C5926 1.499 . S
C5924 H5904 0.950 . S
C5924 C5923 1.414 . S
C5924 C5925 1.374 . S
C5925 H5905 0.950 . S
C5925 C5921 1.385 . S
C5925 C5924 1.374 . S
C5926 C5923 1.499 . S
C5926 C5927 1.373 . S
C5926 C5928 1.389 . S
C5927 H5906 0.950 . S
C5927 C5926 1.373 . S
C5927 C5943 1.377 . S
C5928 C5926 1.389 . S
C5928 C5929 1.524 . S
C5928 C5942 1.377 . S
C5929 C5928 1.524 . S
C5929 C5930 1.397 . S
C5929 C5934 1.363 . S
C5930 H5907 0.950 . S
C5930 C5929 1.397 . S
C5930 C5931 1.334 . S
C5931 H5908 0.950 . S
C5931 C5930 1.334 . S
C5931 C5932 1.287 . S
C5932 C5931 1.287 . S
C5932 C5933 1.524 . S
C5932 H5951 0.913 . S
C5933 H5909 0.950 . S
C5933 C5932 1.524 . S
C5933 C5934 1.415 . S
C5934 H5910 0.950 . S
C5934 C5929 1.363 . S
C5934 C5933 1.415 . S
C5935 H5911 0.951 . S
C5935 C5936 1.366 . S
C5935 C5937 1.388 . S
C5936 C5935 1.366 . S
C5936 C5940 1.385 . S
C5937 H5912 0.951 . S
C5937 C5935 1.388 . S
C5937 C5938 1.366 . S
C5938 C5937 1.366 . S
C5938 C5939 1.414 . S
C5938 C5941 1.499 . S
C5939 H5913 0.950 . S
C5939 C5938 1.414 . S
C5939 C5940 1.374 . S
C5940 H5914 0.950 . S
C5940 C5936 1.385 . S
C5940 C5939 1.374 . S
C5941 C5938 1.499 . S
C5941 C5942 1.373 . S
C5941 C5943 1.389 . S
C5942 H5915 0.950 . S
C5942 C5928 1.377 . S
C5942 C5941 1.373 . S
C5943 C5927 1.377 . S
C5943 C5941 1.389 . S
C5943 C5944 1.524 . S
C5944 C5943 1.524 . S
C5944 C5945 1.397 . S
C5944 C5949 1.363 . S
C5945 H5916 0.950 . S
C5945 C5944 1.397 . S
C5945 C5946 1.334 . S
C5946 H5917 0.950 . S
C5946 C5945 1.334 . S
C5946 C5947 1.287 . S
C5947 C5946 1.287 . S
C5947 C5948 1.524 . S
C5947 H5950 0.999 . S
C5948 H5918 0.950 . S
C5948 C5947 1.524 . S
C5948 C5949 1.415 . S
C5949 H5919 0.950 . S
C5949 C5944 1.363 . S
C5949 C5948 1.415 . S
H5950 C5947 0.999 . S
H5951 C5932 0.913 . S
H5952 C5970 0.951 . S
H5953 C5972 0.951 . S
H5954 C5974 0.950 . S
H5955 C5975 0.950 . S
H5956 C5977 0.950 . S
H5957 C5980 0.950 . S
H5958 C5981 0.950 . S
H5959 C5983 0.950 . S
H5960 C5984 0.950 . S
H5961 C5985 0.951 . S
H5962 C5987 0.951 . S
H5963 C5989 0.950 . S
H5964 C5990 0.950 . S
H5965 C5992 0.950 . S
H5966 C5995 0.950 . S
H5967 C5996 0.950 . S
H5968 C5998 0.950 . S
H5969 C5999 0.950 . S
C5970 H5952 0.951 . S
C5970 C5971 1.366 . S
C5970 C5972 1.388 . S
C5971 C5970 1.366 . S
C5971 C5975 1.385 . S
C5972 H5953 0.951 . S
C5972 C5970 1.388 . S
C5972 C5973 1.366 . S
C5973 C5972 1.366 . S
C5973 C5974 1.414 . S
C5973 C5976 1.499 . S
C5974 H5954 0.950 . S
C5974 C5973 1.414 . S
C5974 C5975 1.374 . S
C5975 H5955 0.950 . S
C5975 C5971 1.385 . S
C5975 C5974 1.374 . S
C5976 C5973 1.499 . S
C5976 C5977 1.373 . S
C5976 C5978 1.389 . S
C5977 H5956 0.950 . S
C5977 C5976 1.373 . S
C5977 C5993 1.377 . S
C5978 C5976 1.389 . S
C5978 C5979 1.524 . S
C5978 C5992 1.377 . S
C5979 C5978 1.524 . S
C5979 C5980 1.397 . S
C5979 C5984 1.363 . S
C5980 H5957 0.950 . S
C5980 C5979 1.397 . S
C5980 C5981 1.334 . S
C5981 H5958 0.950 . S
C5981 C5980 1.334 . S
C5981 C5982 1.287 . S
C5982 C5981 1.287 . S
C5982 C5983 1.524 . S
C5982 H6001 0.913 . S
C5983 H5959 0.950 . S
C5983 C5982 1.524 . S
C5983 C5984 1.415 . S
C5984 H5960 0.950 . S
C5984 C5979 1.363 . S
C5984 C5983 1.415 . S
C5985 H5961 0.951 . S
C5985 C5986 1.366 . S
C5985 C5987 1.388 . S
C5986 C5985 1.366 . S
C5986 C5990 1.385 . S
C5987 H5962 0.951 . S
C5987 C5985 1.388 . S
C5987 C5988 1.366 . S
C5988 C5987 1.366 . S
C5988 C5989 1.414 . S
C5988 C5991 1.499 . S
C5989 H5963 0.950 . S
C5989 C5988 1.414 . S
C5989 C5990 1.374 . S
C5990 H5964 0.950 . S
C5990 C5986 1.385 . S
C5990 C5989 1.374 . S
C5991 C5988 1.499 . S
C5991 C5992 1.373 . S
C5991 C5993 1.389 . S
C5992 H5965 0.950 . S
C5992 C5978 1.377 . S
C5992 C5991 1.373 . S
C5993 C5977 1.377 . S
C5993 C5991 1.389 . S
C5993 C5994 1.524 . S
C5994 C5993 1.524 . S
C5994 C5995 1.397 . S
C5994 C5999 1.363 . S
C5995 H5966 0.950 . S
C5995 C5994 1.397 . S
C5995 C5996 1.334 . S
C5996 H5967 0.950 . S
C5996 C5995 1.334 . S
C5996 C5997 1.287 . S
C5997 C5996 1.287 . S
C5997 C5998 1.524 . S
C5997 H6000 0.999 . S
C5998 H5968 0.950 . S
C5998 C5997 1.524 . S
C5998 C5999 1.415 . S
C5999 H5969 0.950 . S
C5999 C5994 1.363 . S
C5999 C5998 1.415 . S
H6000 C5997 0.999 . S
H6001 C5982 0.913 . S
H6002 C6020 0.951 . S
H6003 C6022 0.951 . S
H6004 C6024 0.950 . S
H6005 C6025 0.950 . S
H6006 C6027 0.950 . S
H6007 C6030 0.950 . S
H6008 C6031 0.950 . S
H6009 C6033 0.950 . S
H6010 C6034 0.950 . S
H6011 C6035 0.951 . S
H6012 C6037 0.951 . S
H6013 C6039 0.950 . S
H6014 C6040 0.950 . S
H6015 C6042 0.950 . S
H6016 C6045 0.950 . S
H6017 C6046 0.950 . S
H6018 C6048 0.950 . S
H6019 C6049 0.950 . S
C6020 H6002 0.951 . S
C6020 C6021 1.366 . S
C6020 C6022 1.388 . S
C6021 C6020 1.366 . S
C6021 C6025 1.385 . S
C6022 H6003 0.951 . S
C6022 C6020 1.388 . S
C6022 C6023 1.366 . S
C6023 C6022 1.366 . S
C6023 C6024 1.414 . S
C6023 C6026 1.499 . S
C6024 H6004 0.950 . S
C6024 C6023 1.414 . S
C6024 C6025 1.374 . S
C6025 H6005 0.950 . S
C6025 C6021 1.385 . S
C6025 C6024 1.374 . S
C6026 C6023 1.499 . S
C6026 C6027 1.373 . S
C6026 C6028 1.389 . S
C6027 H6006 0.950 . S
C6027 C6026 1.373 . S
C6027 C6043 1.377 . S
C6028 C6026 1.389 . S
C6028 C6029 1.524 . S
C6028 C6042 1.377 . S
C6029 C6028 1.524 . S
C6029 C6030 1.397 . S
C6029 C6034 1.363 . S
C6030 H6007 0.950 . S
C6030 C6029 1.397 . S
C6030 C6031 1.334 . S
C6031 H6008 0.950 . S
C6031 C6030 1.334 . S
C6031 C6032 1.287 . S
C6032 C6031 1.287 . S
C6032 C6033 1.524 . S
C6032 H6051 0.913 . S
C6033 H6009 0.950 . S
C6033 C6032 1.524 . S
C6033 C6034 1.415 . S
C6034 H6010 0.950 . S
C6034 C6029 1.363 . S
C6034 C6033 1.415 . S
C6035 H6011 0.951 . S
C6035 C6036 1.366 . S
C6035 C6037 1.388 . S
C6036 C6035 1.366 . S
C6036 C6040 1.385 . S
C6037 H6012 0.951 . S
C6037 C6035 1.388 . S
C6037 C6038 1.366 . S
C6038 C6037 1.366 . S
C6038 C6039 1.414 . S
C6038 C6041 1.499 . S
C6039 H6013 0.950 . S
C6039 C6038 1.414 . S
C6039 C6040 1.374 . S
C6040 H6014 0.950 . S
C6040 C6036 1.385 . S
C6040 C6039 1.374 . S
C6041 C6038 1.499 . S
C6041 C6042 1.373 . S
C6041 C6043 1.389 . S
C6042 H6015 0.950 . S
C6042 C6028 1.377 . S
C6042 C6041 1.373 . S
C6043 C6027 1.377 . S
C6043 C6041 1.389 . S
C6043 C6044 1.524 . S
C6044 C6043 1.524 . S
C6044 C6045 1.397 . S
C6044 C6049 1.363 . S
C6045 H6016 0.950 . S
C6045 C6044 1.397 . S
C6045 C6046 1.334 . S
C6046 H6017 0.950 . S
C6046 C6045 1.334 . S
C6046 C6047 1.287 . S
C6047 C6046 1.287 . S
C6047 C6048 1.524 . S
C6047 H6050 0.999 . S
C6048 H6018 0.950 . S
C6048 C6047 1.524 . S
C6048 C6049 1.415 . S
C6049 H6019 0.950 . S
C6049 C6044 1.363 . S
C6049 C6048 1.415 . S
H6050 C6047 0.999 . S
H6051 C6032 0.913 . S
H6052 C6070 0.951 . S
H6053 C6072 0.951 . S
H6054 C6074 0.950 . S
H6055 C6075 0.950 . S
H6056 C6077 0.950 . S
H6057 C6080 0.950 . S
H6058 C6081 0.950 . S
H6059 C6083 0.950 . S
H6060 C6084 0.950 . S
H6061 C6085 0.951 . S
H6062 C6087 0.951 . S
H6063 C6089 0.950 . S
H6064 C6090 0.950 . S
H6065 C6092 0.950 . S
H6066 C6095 0.950 . S
H6067 C6096 0.950 . S
H6068 C6098 0.950 . S
H6069 C6099 0.950 . S
C6070 H6052 0.951 . S
C6070 C6071 1.366 . S
C6070 C6072 1.388 . S
C6071 C6070 1.366 . S
C6071 C6075 1.385 . S
C6072 H6053 0.951 . S
C6072 C6070 1.388 . S
C6072 C6073 1.366 . S
C6073 C6072 1.366 . S
C6073 C6074 1.414 . S
C6073 C6076 1.499 . S
C6074 H6054 0.950 . S
C6074 C6073 1.414 . S
C6074 C6075 1.374 . S
C6075 H6055 0.950 . S
C6075 C6071 1.385 . S
C6075 C6074 1.374 . S
C6076 C6073 1.499 . S
C6076 C6077 1.373 . S
C6076 C6078 1.389 . S
C6077 H6056 0.950 . S
C6077 C6076 1.373 . S
C6077 C6093 1.377 . S
C6078 C6076 1.389 . S
C6078 C6079 1.524 . S
C6078 C6092 1.377 . S
C6079 C6078 1.524 . S
C6079 C6080 1.397 . S
C6079 C6084 1.363 . S
C6080 H6057 0.950 . S
C6080 C6079 1.397 . S
C6080 C6081 1.334 . S
C6081 H6058 0.950 . S
C6081 C6080 1.334 . S
C6081 C6082 1.287 . S
C6082 C6081 1.287 . S
C6082 C6083 1.524 . S
C6082 H6101 0.913 . S
C6083 H6059 0.950 . S
C6083 C6082 1.524 . S
C6083 C6084 1.415 . S
C6084 H6060 0.950 . S
C6084 C6079 1.363 . S
C6084 C6083 1.415 . S
C6085 H6061 0.951 . S
C6085 C6086 1.366 . S
C6085 C6087 1.388 . S
C6086 C6085 1.366 . S
C6086 C6090 1.385 . S
C6087 H6062 0.951 . S
C6087 C6085 1.388 . S
C6087 C6088 1.366 . S
C6088 C6087 1.366 . S
C6088 C6089 1.414 . S
C6088 C6091 1.499 . S
C6089 H6063 0.950 . S
C6089 C6088 1.414 . S
C6089 C6090 1.374 . S
C6090 H6064 0.950 . S
C6090 C6086 1.385 . S
C6090 C6089 1.374 . S
C6091 C6088 1.499 . S
C6091 C6092 1.373 . S
C6091 C6093 1.389 . S
C6092 H6065 0.950 . S
C6092 C6078 1.377 . S
C6092 C6091 1.373 . S
C6093 C6077 1.377 . S
C6093 C6091 1.389 . S
C6093 C6094 1.524 . S
C6094 C6093 1.524 . S
C6094 C6095 1.397 . S
C6094 C6099 1.363 . S
C6095 H6066 0.950 . S
C6095 C6094 1.397 . S
C6095 C6096 1.334 . S
C6096 H6067 0.950 . S
C6096 C6095 1.334 . S
C6096 C6097 1.287 . S
C6097 C6096 1.287 . S
C6097 C6098 1.524 . S
C6097 H6100 0.999 . S
C6098 H6068 0.950 . S
C6098 C6097 1.524 . S
C6098 C6099 1.415 . S
C6099 H6069 0.950 . S
C6099 C6094 1.363 . S
C6099 C6098 1.415 . S
H6100 C6097 0.999 . S
H6101 C6082 0.913 . S
H6102 C6120 0.951 . S
H6103 C6122 0.951 . S
H6104 C6124 0.950 1_556 S
H6105 C6125 0.928 1_556 S
H6106 C6127 0.950 . S
H6107 C6130 0.950 . S
H6108 C6131 0.950 . S
H6109 C6133 0.950 . S
H6110 C6134 0.950 . S
H6111 C6135 0.951 . S
H6112 C6137 0.964 1_565 S
H6113 C6139 0.950 . S
H6114 C6140 0.950 . S
H6115 C6142 0.950 . S
H6116 C6145 0.950 . S
H6117 C6146 0.950 . S
H6118 C6148 0.950 . S
H6119 C6149 0.950 . S
C6120 H6102 0.951 . S
C6120 C6121 1.366 . S
C6120 C6122 1.388 . S
C6121 C6120 1.366 . S
C6121 C6125 1.385 . S
C6122 H6103 0.951 . S
C6122 C6120 1.388 . S
C6122 C6123 1.366 . S
C6123 C6122 1.366 . S
C6123 C6124 1.414 . S
C6123 C6126 1.499 . S
C6124 H6104 0.950 1_554 S
C6124 C6123 1.414 . S
C6124 C6125 1.374 . S
C6125 H6105 0.928 1_554 S
C6125 C6121 1.385 . S
C6125 C6124 1.374 . S
C6126 C6123 1.499 . S
C6126 C6127 1.373 . S
C6126 C6128 1.389 1_565 S
C6127 H6106 0.950 . S
C6127 C6126 1.373 . S
C6127 C6143 1.377 . S
C6128 C6126 1.389 1_545 S
C6128 C6129 1.524 . S
C6128 C6142 1.377 . S
C6129 C6128 1.524 . S
C6129 C6130 1.397 . S
C6129 C6134 1.363 . S
C6130 H6107 0.950 . S
C6130 C6129 1.397 . S
C6130 C6131 1.334 . S
C6131 H6108 0.950 . S
C6131 C6130 1.334 . S
C6131 C6132 1.287 . S
C6132 C6131 1.287 . S
C6132 C6133 1.524 . S
C6132 H6151 0.913 . S
C6133 H6109 0.950 . S
C6133 C6132 1.524 . S
C6133 C6134 1.415 . S
C6134 H6110 0.950 . S
C6134 C6129 1.363 . S
C6134 C6133 1.415 . S
C6135 H6111 0.951 . S
C6135 C6136 1.366 1_556 S
C6135 C6137 1.393 . S
C6136 C6135 1.366 1_554 S
C6136 C6140 1.385 . S
C6137 H6112 0.964 1_545 S
C6137 C6135 1.393 . S
C6137 C6138 1.348 1_556 S
C6138 C6137 1.348 1_554 S
C6138 C6139 1.414 . S
C6138 C6141 1.499 1_545 S
C6139 H6113 0.950 . S
C6139 C6138 1.414 . S
C6139 C6140 1.374 . S
C6140 H6114 0.950 . S
C6140 C6136 1.385 . S
C6140 C6139 1.374 . S
C6141 C6138 1.499 1_565 S
C6141 C6142 1.373 1_565 S
C6141 C6143 1.389 . S
C6142 H6115 0.950 . S
C6142 C6128 1.377 . S
C6142 C6141 1.373 1_545 S
C6143 C6127 1.377 . S
C6143 C6141 1.389 . S
C6143 C6144 1.540 . S
C6144 C6143 1.540 . S
C6144 C6145 1.415 . S
C6144 C6149 1.333 1_554 S
C6145 H6116 0.950 . S
C6145 C6144 1.415 . S
C6145 C6146 1.334 . S
C6146 H6117 0.950 . S
C6146 C6145 1.334 . S
C6146 C6147 1.287 1_554 S
C6147 C6146 1.287 1_556 S
C6147 C6148 1.524 . S
C6147 H6150 0.999 . S
C6148 H6118 0.950 . S
C6148 C6147 1.524 . S
C6148 C6149 1.415 . S
C6149 H6119 0.950 . S
C6149 C6144 1.333 1_556 S
C6149 C6148 1.415 . S
H6150 C6147 0.999 . S
H6151 C6132 0.913 . S
H6152 C6170 0.951 . S
H6153 C6172 0.951 . S
H6154 C6174 0.950 . S
H6155 C6175 0.950 . S
H6156 C6177 0.950 . S
H6157 C6180 0.950 . S
H6158 C6181 0.950 . S
H6159 C6183 0.950 . S
H6160 C6184 0.950 . S
H6161 C6185 0.951 . S
H6162 C6187 0.951 . S
H6163 C6189 0.950 . S
H6164 C6190 0.950 . S
H6165 C6192 0.950 . S
H6166 C6195 0.950 . S
H6167 C6196 0.950 . S
H6168 C6198 0.950 . S
H6169 C6199 0.950 . S
C6170 H6152 0.951 . S
C6170 C6171 1.366 . S
C6170 C6172 1.388 . S
C6171 C6170 1.366 . S
C6171 C6175 1.385 . S
C6172 H6153 0.951 . S
C6172 C6170 1.388 . S
C6172 C6173 1.366 . S
C6173 C6172 1.366 . S
C6173 C6174 1.414 . S
C6173 C6176 1.499 . S
C6174 H6154 0.950 . S
C6174 C6173 1.414 . S
C6174 C6175 1.374 . S
C6175 H6155 0.950 . S
C6175 C6171 1.385 . S
C6175 C6174 1.374 . S
C6176 C6173 1.499 . S
C6176 C6177 1.373 . S
C6176 C6178 1.389 . S
C6177 H6156 0.950 . S
C6177 C6176 1.373 . S
C6177 C6193 1.377 . S
C6178 C6176 1.389 . S
C6178 C6179 1.524 . S
C6178 C6192 1.377 . S
C6179 C6178 1.524 . S
C6179 C6180 1.397 . S
C6179 C6184 1.363 . S
C6180 H6157 0.950 . S
C6180 C6179 1.397 . S
C6180 C6181 1.334 . S
C6181 H6158 0.950 . S
C6181 C6180 1.334 . S
C6181 C6182 1.287 . S
C6182 C6181 1.287 . S
C6182 C6183 1.524 . S
C6182 H6201 0.913 . S
C6183 H6159 0.950 . S
C6183 C6182 1.524 . S
C6183 C6184 1.415 . S
C6184 H6160 0.950 . S
C6184 C6179 1.363 . S
C6184 C6183 1.415 . S
C6185 H6161 0.951 . S
C6185 C6186 1.366 . S
C6185 C6187 1.388 . S
C6186 C6185 1.366 . S
C6186 C6190 1.385 . S
C6187 H6162 0.951 . S
C6187 C6185 1.388 . S
C6187 C6188 1.366 . S
C6188 C6187 1.366 . S
C6188 C6189 1.414 . S
C6188 C6191 1.499 . S
C6189 H6163 0.950 . S
C6189 C6188 1.414 . S
C6189 C6190 1.374 . S
C6190 H6164 0.950 . S
C6190 C6186 1.385 . S
C6190 C6189 1.374 . S
C6191 C6188 1.499 . S
C6191 C6192 1.373 . S
C6191 C6193 1.389 . S
C6192 H6165 0.950 . S
C6192 C6178 1.377 . S
C6192 C6191 1.373 . S
C6193 C6177 1.377 . S
C6193 C6191 1.389 . S
C6193 C6194 1.524 . S
C6194 C6193 1.524 . S
C6194 C6195 1.397 . S
C6194 C6199 1.363 . S
C6195 H6166 0.950 . S
C6195 C6194 1.397 . S
C6195 C6196 1.334 . S
C6196 H6167 0.950 . S
C6196 C6195 1.334 . S
C6196 C6197 1.287 . S
C6197 C6196 1.287 . S
C6197 C6198 1.524 . S
C6197 H6200 0.999 . S
C6198 H6168 0.950 . S
C6198 C6197 1.524 . S
C6198 C6199 1.415 . S
C6199 H6169 0.950 . S
C6199 C6194 1.363 . S
C6199 C6198 1.415 . S
H6200 C6197 0.999 . S
H6201 C6182 0.913 . S
H6202 C6220 0.951 . S
H6203 C6222 0.951 . S
H6204 C6224 0.950 . S
H6205 C6225 0.950 . S
H6206 C6227 0.950 . S
H6207 C6230 0.950 . S
H6208 C6231 0.950 . S
H6209 C6233 0.950 . S
H6210 C6234 0.950 . S
H6211 C6235 0.951 . S
H6212 C6237 0.951 . S
H6213 C6239 0.950 . S
H6214 C6240 0.950 . S
H6215 C6242 0.950 . S
H6216 C6245 0.950 . S
H6217 C6246 0.950 . S
H6218 C6248 0.950 . S
H6219 C6249 0.950 . S
C6220 H6202 0.951 . S
C6220 C6221 1.366 . S
C6220 C6222 1.388 . S
C6221 C6220 1.366 . S
C6221 C6225 1.385 1_554 S
C6222 H6203 0.951 . S
C6222 C6220 1.388 . S
C6222 C6223 1.366 . S
C6223 C6222 1.366 . S
C6223 C6224 1.414 1_554 S
C6223 C6226 1.499 . S
C6224 H6204 0.950 . S
C6224 C6223 1.414 1_556 S
C6224 C6225 1.374 . S
C6225 H6205 0.950 . S
C6225 C6221 1.385 1_556 S
C6225 C6224 1.374 . S
C6226 C6223 1.499 . S
C6226 C6227 1.373 . S
C6226 C6228 1.389 . S
C6227 H6206 0.950 . S
C6227 C6226 1.373 . S
C6227 C6243 1.377 . S
C6228 C6226 1.389 . S
C6228 C6229 1.524 . S
C6228 C6242 1.377 . S
C6229 C6228 1.524 . S
C6229 C6230 1.397 1_554 S
C6229 C6234 1.363 . S
C6230 H6207 0.950 . S
C6230 C6229 1.397 1_556 S
C6230 C6231 1.334 . S
C6231 H6208 0.950 . S
C6231 C6230 1.334 . S
C6231 C6232 1.287 . S
C6232 C6231 1.287 . S
C6232 C6233 1.524 1_556 S
C6232 H6251 0.913 . S
C6233 H6209 0.950 . S
C6233 C6232 1.524 1_554 S
C6233 C6234 1.415 . S
C6234 H6210 0.950 . S
C6234 C6229 1.363 . S
C6234 C6233 1.415 . S
C6235 H6211 0.951 . S
C6235 C6236 1.366 . S
C6235 C6237 1.388 . S
C6236 C6235 1.366 . S
C6236 C6240 1.385 . S
C6237 H6212 0.951 . S
C6237 C6235 1.388 . S
C6237 C6238 1.366 . S
C6238 C6237 1.366 . S
C6238 C6239 1.414 . S
C6238 C6241 1.499 . S
C6239 H6213 0.950 . S
C6239 C6238 1.414 . S
C6239 C6240 1.374 . S
C6240 H6214 0.950 . S
C6240 C6236 1.385 . S
C6240 C6239 1.374 . S
C6241 C6238 1.499 . S
C6241 C6242 1.373 . S
C6241 C6243 1.389 . S
C6242 H6215 0.950 . S
C6242 C6228 1.377 . S
C6242 C6241 1.373 . S
C6243 C6227 1.377 . S
C6243 C6241 1.389 . S
C6243 C6244 1.524 . S
C6244 C6243 1.524 . S
C6244 C6245 1.397 . S
C6244 C6249 1.363 . S
C6245 H6216 0.950 . S
C6245 C6244 1.397 . S
C6245 C6246 1.334 . S
C6246 H6217 0.950 . S
C6246 C6245 1.334 . S
C6246 C6247 1.287 . S
C6247 C6246 1.287 . S
C6247 C6248 1.524 . S
C6247 H6250 0.999 . S
C6248 H6218 0.950 . S
C6248 C6247 1.524 . S
C6248 C6249 1.415 . S
C6249 H6219 0.950 . S
C6249 C6244 1.363 . S
C6249 C6248 1.415 . S
H6250 C6247 0.999 . S
H6251 C6232 0.913 . S
H6252 C6270 0.951 . S
H6253 C6272 0.951 . S
H6254 C6274 0.950 . S
H6255 C6275 0.950 . S
H6256 C6277 0.950 . S
H6257 C6280 0.950 . S
H6258 C6281 0.950 . S
H6259 C6283 0.950 . S
H6260 C6284 0.950 . S
H6261 C6285 0.951 . S
H6262 C6287 0.951 . S
H6263 C6289 0.950 . S
H6264 C6290 0.950 . S
H6265 C6292 0.950 . S
H6266 C6295 0.950 . S
H6267 C6296 0.950 . S
H6268 C6298 0.950 . S
H6269 C6299 0.950 . S
C6270 H6252 0.951 . S
C6270 C6271 1.366 . S
C6270 C6272 1.388 . S
C6271 C6270 1.366 . S
C6271 C6275 1.385 . S
C6272 H6253 0.951 . S
C6272 C6270 1.388 . S
C6272 C6273 1.366 . S
C6273 C6272 1.366 . S
C6273 C6274 1.414 . S
C6273 C6276 1.499 . S
C6274 H6254 0.950 . S
C6274 C6273 1.414 . S
C6274 C6275 1.374 . S
C6275 H6255 0.950 . S
C6275 C6271 1.385 . S
C6275 C6274 1.374 . S
C6276 C6273 1.499 . S
C6276 C6277 1.373 . S
C6276 C6278 1.389 . S
C6277 H6256 0.950 . S
C6277 C6276 1.373 . S
C6277 C6293 1.377 . S
C6278 C6276 1.389 . S
C6278 C6279 1.524 . S
C6278 C6292 1.377 . S
C6279 C6278 1.524 . S
C6279 C6280 1.397 . S
C6279 C6284 1.363 . S
C6280 H6257 0.950 . S
C6280 C6279 1.397 . S
C6280 C6281 1.334 . S
C6281 H6258 0.950 . S
C6281 C6280 1.334 . S
C6281 C6282 1.287 . S
C6282 C6281 1.287 . S
C6282 C6283 1.524 . S
C6282 H6301 0.913 . S
C6283 H6259 0.950 . S
C6283 C6282 1.524 . S
C6283 C6284 1.415 . S
C6284 H6260 0.950 . S
C6284 C6279 1.363 . S
C6284 C6283 1.415 . S
C6285 H6261 0.951 . S
C6285 C6286 1.366 . S
C6285 C6287 1.388 . S
C6286 C6285 1.366 . S
C6286 C6290 1.385 . S
C6287 H6262 0.951 . S
C6287 C6285 1.388 . S
C6287 C6288 1.366 . S
C6288 C6287 1.366 . S
C6288 C6289 1.414 . S
C6288 C6291 1.499 . S
C6289 H6263 0.950 . S
C6289 C6288 1.414 . S
C6289 C6290 1.374 . S
C6290 H6264 0.950 . S
C6290 C6286 1.385 . S
C6290 C6289 1.374 . S
C6291 C6288 1.499 . S
C6291 C6292 1.373 . S
C6291 C6293 1.389 . S
C6292 H6265 0.950 . S
C6292 C6278 1.377 . S
C6292 C6291 1.373 . S
C6293 C6277 1.377 . S
C6293 C6291 1.389 . S
C6293 C6294 1.524 . S
C6294 C6293 1.524 . S
C6294 C6295 1.397 . S
C6294 C6299 1.363 . S
C6295 H6266 0.950 . S
C6295 C6294 1.397 . S
C6295 C6296 1.334 . S
C6296 H6267 0.950 . S
C6296 C6295 1.334 . S
C6296 C6297 1.287 . S
C6297 C6296 1.287 . S
C6297 C6298 1.524 . S
C6297 H6300 0.999 . S
C6298 H6268 0.950 . S
C6298 C6297 1.524 . S
C6298 C6299 1.415 . S
C6299 H6269 0.950 . S
C6299 C6294 1.363 . S
C6299 C6298 1.415 . S
H6300 C6297 0.999 . S
H6301 C6282 0.913 . S
H6302 C6320 0.951 . S
H6303 C6322 0.951 . S
H6304 C6324 0.950 . S
H6305 C6325 0.950 . S
H6306 C6327 0.950 . S
H6307 C6330 0.950 . S
H6308 C6331 0.950 . S
H6309 C6333 0.950 . S
H6310 C6334 0.950 . S
H6311 C6335 0.951 . S
H6312 C6337 0.951 . S
H6313 C6339 0.950 . S
H6314 C6340 0.950 . S
H6315 C6342 0.950 . S
H6316 C6345 0.950 . S
H6317 C6346 0.950 . S
H6318 C6348 0.950 . S
H6319 C6349 0.950 . S
C6320 H6302 0.951 . S
C6320 C6321 1.366 . S
C6320 C6322 1.388 . S
C6321 C6320 1.366 . S
C6321 C6325 1.385 . S
C6322 H6303 0.951 . S
C6322 C6320 1.388 . S
C6322 C6323 1.366 . S
C6323 C6322 1.366 . S
C6323 C6324 1.414 . S
C6323 C6326 1.499 . S
C6324 H6304 0.950 . S
C6324 C6323 1.414 . S
C6324 C6325 1.374 . S
C6325 H6305 0.950 . S
C6325 C6321 1.385 . S
C6325 C6324 1.374 . S
C6326 C6323 1.499 . S
C6326 C6327 1.373 . S
C6326 C6328 1.389 . S
C6327 H6306 0.950 . S
C6327 C6326 1.373 . S
C6327 C6343 1.377 . S
C6328 C6326 1.389 . S
C6328 C6329 1.524 . S
C6328 C6342 1.377 . S
C6329 C6328 1.524 . S
C6329 C6330 1.397 . S
C6329 C6334 1.363 . S
C6330 H6307 0.950 . S
C6330 C6329 1.397 . S
C6330 C6331 1.334 . S
C6331 H6308 0.950 . S
C6331 C6330 1.334 . S
C6331 C6332 1.287 . S
C6332 C6331 1.287 . S
C6332 C6333 1.524 . S
C6332 H6351 0.913 . S
C6333 H6309 0.950 . S
C6333 C6332 1.524 . S
C6333 C6334 1.415 . S
C6334 H6310 0.950 . S
C6334 C6329 1.363 . S
C6334 C6333 1.415 . S
C6335 H6311 0.951 . S
C6335 C6336 1.366 . S
C6335 C6337 1.388 . S
C6336 C6335 1.366 . S
C6336 C6340 1.385 . S
C6337 H6312 0.951 . S
C6337 C6335 1.388 . S
C6337 C6338 1.366 . S
C6338 C6337 1.366 . S
C6338 C6339 1.414 . S
C6338 C6341 1.499 . S
C6339 H6313 0.950 . S
C6339 C6338 1.414 . S
C6339 C6340 1.374 . S
C6340 H6314 0.950 . S
C6340 C6336 1.385 . S
C6340 C6339 1.374 . S
C6341 C6338 1.499 . S
C6341 C6342 1.373 . S
C6341 C6343 1.389 . S
C6342 H6315 0.950 . S
C6342 C6328 1.377 . S
C6342 C6341 1.373 . S
C6343 C6327 1.377 . S
C6343 C6341 1.389 . S
C6343 C6344 1.524 . S
C6344 C6343 1.524 . S
C6344 C6345 1.397 . S
C6344 C6349 1.363 . S
C6345 H6316 0.950 . S
C6345 C6344 1.397 . S
C6345 C6346 1.334 . S
C6346 H6317 0.950 . S
C6346 C6345 1.334 . S
C6346 C6347 1.287 . S
C6347 C6346 1.287 . S
C6347 C6348 1.524 . S
C6347 H6350 0.999 . S
C6348 H6318 0.950 . S
C6348 C6347 1.524 . S
C6348 C6349 1.415 . S
C6349 H6319 0.950 . S
C6349 C6344 1.363 . S
C6349 C6348 1.415 . S
H6350 C6347 0.999 . S
H6351 C6332 0.913 . S
H6352 C6370 0.951 . S
H6353 C6372 0.951 . S
H6354 C6374 0.950 . S
H6355 C6375 0.950 . S
H6356 C6377 0.950 . S
H6357 C6380 0.950 . S
H6358 C6381 0.950 . S
H6359 C6383 0.950 . S
H6360 C6384 0.950 . S
H6361 C6385 0.951 . S
H6362 C6387 0.951 . S
H6363 C6389 0.950 . S
H6364 C6390 0.950 . S
H6365 C6392 0.950 . S
H6366 C6395 0.950 . S
H6367 C6396 0.950 . S
H6368 C6398 0.950 . S
H6369 C6399 0.950 . S
C6370 H6352 0.951 . S
C6370 C6371 1.366 . S
C6370 C6372 1.388 . S
C6371 C6370 1.366 . S
C6371 C6375 1.385 . S
C6372 H6353 0.951 . S
C6372 C6370 1.388 . S
C6372 C6373 1.366 . S
C6373 C6372 1.366 . S
C6373 C6374 1.414 . S
C6373 C6376 1.499 . S
C6374 H6354 0.950 . S
C6374 C6373 1.414 . S
C6374 C6375 1.374 . S
C6375 H6355 0.950 . S
C6375 C6371 1.385 . S
C6375 C6374 1.374 . S
C6376 C6373 1.499 . S
C6376 C6377 1.373 . S
C6376 C6378 1.389 . S
C6377 H6356 0.950 . S
C6377 C6376 1.373 . S
C6377 C6393 1.377 . S
C6378 C6376 1.389 . S
C6378 C6379 1.524 . S
C6378 C6392 1.377 . S
C6379 C6378 1.524 . S
C6379 C6380 1.397 . S
C6379 C6384 1.363 . S
C6380 H6357 0.950 . S
C6380 C6379 1.397 . S
C6380 C6381 1.334 . S
C6381 H6358 0.950 . S
C6381 C6380 1.334 . S
C6381 C6382 1.287 . S
C6382 C6381 1.287 . S
C6382 C6383 1.524 . S
C6382 H6401 0.913 . S
C6383 H6359 0.950 . S
C6383 C6382 1.524 . S
C6383 C6384 1.415 . S
C6384 H6360 0.950 . S
C6384 C6379 1.363 . S
C6384 C6383 1.415 . S
C6385 H6361 0.951 . S
C6385 C6386 1.366 . S
C6385 C6387 1.388 . S
C6386 C6385 1.366 . S
C6386 C6390 1.385 . S
C6387 H6362 0.951 . S
C6387 C6385 1.388 . S
C6387 C6388 1.366 . S
C6388 C6387 1.366 . S
C6388 C6389 1.414 . S
C6388 C6391 1.499 . S
C6389 H6363 0.950 . S
C6389 C6388 1.414 . S
C6389 C6390 1.374 . S
C6390 H6364 0.950 . S
C6390 C6386 1.385 . S
C6390 C6389 1.374 . S
C6391 C6388 1.499 . S
C6391 C6392 1.373 . S
C6391 C6393 1.389 . S
C6392 H6365 0.950 . S
C6392 C6378 1.377 . S
C6392 C6391 1.373 . S
C6393 C6377 1.377 . S
C6393 C6391 1.389 . S
C6393 C6394 1.524 . S
C6394 C6393 1.524 . S
C6394 C6395 1.397 . S
C6394 C6399 1.363 . S
C6395 H6366 0.950 . S
C6395 C6394 1.397 . S
C6395 C6396 1.334 . S
C6396 H6367 0.950 . S
C6396 C6395 1.334 . S
C6396 C6397 1.287 . S
C6397 C6396 1.287 . S
C6397 C6398 1.524 . S
C6397 H6400 0.999 . S
C6398 H6368 0.950 . S
C6398 C6397 1.524 . S
C6398 C6399 1.415 . S
C6399 H6369 0.950 . S
C6399 C6394 1.363 . S
C6399 C6398 1.415 . S
H6400 C6397 0.999 . S
H6401 C6382 0.913 . S
H6402 C6420 0.951 . S
H6403 C6422 0.951 . S
H6404 C6424 0.950 . S
H6405 C6425 0.950 . S
H6406 C6427 0.950 . S
H6407 C6430 0.950 . S
H6408 C6431 0.950 . S
H6409 C6433 0.950 . S
H6410 C6434 0.950 . S
H6411 C6435 0.951 . S
H6412 C6437 0.951 . S
H6413 C6439 0.950 . S
H6414 C6440 0.950 . S
H6415 C6442 0.950 . S
H6416 C6445 0.950 . S
H6417 C6446 0.950 . S
H6418 C6448 0.950 . S
H6419 C6449 0.950 . S
C6420 H6402 0.951 . S
C6420 C6421 1.366 . S
C6420 C6422 1.388 . S
C6421 C6420 1.366 . S
C6421 C6425 1.385 . S
C6422 H6403 0.951 . S
C6422 C6420 1.388 . S
C6422 C6423 1.366 . S
C6423 C6422 1.366 . S
C6423 C6424 1.414 . S
C6423 C6426 1.499 . S
C6424 H6404 0.950 . S
C6424 C6423 1.414 . S
C6424 C6425 1.374 . S
C6425 H6405 0.950 . S
C6425 C6421 1.385 . S
C6425 C6424 1.374 . S
C6426 C6423 1.499 . S
C6426 C6427 1.373 . S
C6426 C6428 1.389 . S
C6427 H6406 0.950 . S
C6427 C6426 1.373 . S
C6427 C6443 1.377 . S
C6428 C6426 1.389 . S
C6428 C6429 1.524 . S
C6428 C6442 1.377 . S
C6429 C6428 1.524 . S
C6429 C6430 1.397 . S
C6429 C6434 1.363 . S
C6430 H6407 0.950 . S
C6430 C6429 1.397 . S
C6430 C6431 1.334 . S
C6431 H6408 0.950 . S
C6431 C6430 1.334 . S
C6431 C6432 1.287 . S
C6432 C6431 1.287 . S
C6432 C6433 1.524 . S
C6432 H6451 0.913 . S
C6433 H6409 0.950 . S
C6433 C6432 1.524 . S
C6433 C6434 1.415 . S
C6434 H6410 0.950 . S
C6434 C6429 1.363 . S
C6434 C6433 1.415 . S
C6435 H6411 0.951 . S
C6435 C6436 1.366 . S
C6435 C6437 1.388 . S
C6436 C6435 1.366 . S
C6436 C6440 1.385 . S
C6437 H6412 0.951 . S
C6437 C6435 1.388 . S
C6437 C6438 1.366 . S
C6438 C6437 1.366 . S
C6438 C6439 1.414 . S
C6438 C6441 1.499 . S
C6439 H6413 0.950 . S
C6439 C6438 1.414 . S
C6439 C6440 1.374 . S
C6440 H6414 0.950 . S
C6440 C6436 1.385 . S
C6440 C6439 1.374 . S
C6441 C6438 1.499 . S
C6441 C6442 1.373 . S
C6441 C6443 1.389 . S
C6442 H6415 0.950 . S
C6442 C6428 1.377 . S
C6442 C6441 1.373 . S
C6443 C6427 1.377 . S
C6443 C6441 1.389 . S
C6443 C6444 1.524 . S
C6444 C6443 1.524 . S
C6444 C6445 1.397 . S
C6444 C6449 1.363 . S
C6445 H6416 0.950 . S
C6445 C6444 1.397 . S
C6445 C6446 1.334 . S
C6446 H6417 0.950 . S
C6446 C6445 1.334 . S
C6446 C6447 1.287 . S
C6447 C6446 1.287 . S
C6447 C6448 1.524 . S
C6447 H6450 0.999 . S
C6448 H6418 0.950 . S
C6448 C6447 1.524 . S
C6448 C6449 1.415 . S
C6449 H6419 0.950 . S
C6449 C6444 1.363 . S
C6449 C6448 1.415 . S
H6450 C6447 0.999 . S
H6451 C6432 0.913 . S
H6452 C6470 0.951 . S
H6453 C6472 0.951 . S
H6454 C6474 0.950 . S
H6455 C6475 0.950 . S
H6456 C6477 0.950 . S
H6457 C6480 0.950 . S
H6458 C6481 0.950 . S
H6459 C6483 0.950 . S
H6460 C6484 0.950 . S
H6461 C6485 0.951 . S
H6462 C6487 0.951 . S
H6463 C6489 0.950 . S
H6464 C6490 0.950 . S
H6465 C6492 0.950 . S
H6466 C6495 0.950 . S
H6467 C6496 0.950 . S
H6468 C6498 0.947 . S
H6469 C6499 0.950 . S
C6470 H6452 0.951 . S
C6470 C6471 1.366 . S
C6470 C6472 1.388 . S
C6471 C6470 1.366 . S
C6471 C6475 1.385 . S
C6472 H6453 0.951 . S
C6472 C6470 1.388 . S
C6472 C6473 1.366 . S
C6473 C6472 1.366 . S
C6473 C6474 1.414 . S
C6473 C6476 1.499 . S
C6474 H6454 0.950 . S
C6474 C6473 1.414 . S
C6474 C6475 1.374 . S
C6475 H6455 0.950 . S
C6475 C6471 1.385 . S
C6475 C6474 1.374 . S
C6476 C6473 1.499 . S
C6476 C6477 1.373 . S
C6476 C6478 1.389 . S
C6477 H6456 0.950 . S
C6477 C6476 1.373 . S
C6477 C6493 1.377 . S
C6478 C6476 1.389 . S
C6478 C6479 1.524 . S
C6478 C6492 1.377 . S
C6479 C6478 1.524 . S
C6479 C6480 1.397 . S
C6479 C6484 1.363 . S
C6480 H6457 0.950 . S
C6480 C6479 1.397 . S
C6480 C6481 1.334 1_554 S
C6481 H6458 0.950 . S
C6481 C6480 1.334 1_556 S
C6481 C6482 1.287 . S
C6482 C6481 1.287 . S
C6482 C6483 1.524 . S
C6482 H6501 0.913 . S
C6483 H6459 0.950 . S
C6483 C6482 1.524 . S
C6483 C6484 1.415 1_556 S
C6484 H6460 0.950 . S
C6484 C6479 1.363 . S
C6484 C6483 1.415 1_554 S
C6485 H6461 0.951 . S
C6485 C6486 1.366 . S
C6485 C6487 1.388 . S
C6486 C6485 1.366 . S
C6486 C6490 1.385 . S
C6487 H6462 0.951 . S
C6487 C6485 1.388 . S
C6487 C6488 1.366 . S
C6488 C6487 1.366 . S
C6488 C6489 1.414 . S
C6488 C6491 1.499 . S
C6489 H6463 0.950 . S
C6489 C6488 1.414 . S
C6489 C6490 1.374 . S
C6490 H6464 0.950 . S
C6490 C6486 1.385 . S
C6490 C6489 1.374 . S
C6491 C6488 1.499 . S
C6491 C6492 1.373 . S
C6491 C6493 1.389 . S
C6492 H6465 0.950 . S
C6492 C6478 1.377 . S
C6492 C6491 1.373 . S
C6493 C6477 1.377 . S
C6493 C6491 1.389 . S
C6493 C6494 1.524 . S
C6494 C6493 1.524 . S
C6494 C6495 1.397 . S
C6494 C6499 1.363 . S
C6495 H6466 0.950 . S
C6495 C6494 1.397 . S
C6495 C6496 1.334 . S
C6496 H6467 0.950 . S
C6496 C6495 1.334 . S
C6496 C6497 1.287 . S
C6497 C6496 1.287 . S
C6497 C6498 1.524 . S
C6497 H6500 0.999 . S
C6498 H6468 0.947 . S
C6498 C6497 1.524 . S
C6498 C6499 1.415 . S
C6499 H6469 0.950 . S
C6499 C6494 1.363 . S
C6499 C6498 1.415 . S
H6500 C6497 0.999 . S
H6501 C6482 0.913 . S
H6502 C6520 0.951 . S
H6503 C6522 0.951 . S
H6504 C6524 0.950 . S
H6505 C6525 0.950 . S
H6506 C6527 0.950 . S
H6507 C6530 0.950 . S
H6508 C6531 0.950 . S
H6509 C6533 0.950 . S
H6510 C6534 0.950 . S
H6511 C6535 0.951 . S
H6512 C6537 0.951 . S
H6513 C6539 0.950 . S
H6514 C6540 0.950 . S
H6515 C6542 0.950 . S
H6516 C6545 0.950 . S
H6517 C6546 0.950 . S
H6518 C6548 0.950 . S
H6519 C6549 0.950 . S
C6520 H6502 0.951 . S
C6520 C6521 1.366 . S
C6520 C6522 1.388 . S
C6521 C6520 1.366 . S
C6521 C6525 1.385 . S
C6522 H6503 0.951 . S
C6522 C6520 1.388 . S
C6522 C6523 1.366 . S
C6523 C6522 1.366 . S
C6523 C6524 1.414 . S
C6523 C6526 1.499 . S
C6524 H6504 0.950 . S
C6524 C6523 1.414 . S
C6524 C6525 1.374 . S
C6525 H6505 0.950 . S
C6525 C6521 1.385 . S
C6525 C6524 1.374 . S
C6526 C6523 1.499 . S
C6526 C6527 1.373 . S
C6526 C6528 1.389 . S
C6527 H6506 0.950 . S
C6527 C6526 1.373 . S
C6527 C6543 1.377 . S
C6528 C6526 1.389 . S
C6528 C6529 1.524 . S
C6528 C6542 1.377 . S
C6529 C6528 1.524 . S
C6529 C6530 1.397 . S
C6529 C6534 1.363 . S
C6530 H6507 0.950 . S
C6530 C6529 1.397 . S
C6530 C6531 1.334 . S
C6531 H6508 0.950 . S
C6531 C6530 1.334 . S
C6531 C6532 1.287 . S
C6532 C6531 1.287 . S
C6532 C6533 1.524 . S
C6532 H6551 0.913 . S
C6533 H6509 0.950 . S
C6533 C6532 1.524 . S
C6533 C6534 1.415 . S
C6534 H6510 0.950 . S
C6534 C6529 1.363 . S
C6534 C6533 1.415 . S
C6535 H6511 0.951 . S
C6535 C6536 1.366 . S
C6535 C6537 1.388 . S
C6536 C6535 1.366 . S
C6536 C6540 1.385 . S
C6537 H6512 0.951 . S
C6537 C6535 1.388 . S
C6537 C6538 1.366 . S
C6538 C6537 1.366 . S
C6538 C6539 1.414 . S
C6538 C6541 1.499 . S
C6539 H6513 0.950 . S
C6539 C6538 1.414 . S
C6539 C6540 1.374 . S
C6540 H6514 0.950 . S
C6540 C6536 1.385 . S
C6540 C6539 1.374 . S
C6541 C6538 1.499 . S
C6541 C6542 1.373 . S
C6541 C6543 1.389 . S
C6542 H6515 0.950 . S
C6542 C6528 1.377 . S
C6542 C6541 1.373 . S
C6543 C6527 1.377 . S
C6543 C6541 1.389 . S
C6543 C6544 1.524 . S
C6544 C6543 1.524 . S
C6544 C6545 1.397 . S
C6544 C6549 1.363 . S
C6545 H6516 0.950 . S
C6545 C6544 1.397 . S
C6545 C6546 1.334 . S
C6546 H6517 0.950 . S
C6546 C6545 1.334 . S
C6546 C6547 1.287 . S
C6547 C6546 1.287 . S
C6547 C6548 1.524 . S
C6547 H6550 0.999 . S
C6548 H6518 0.950 . S
C6548 C6547 1.524 . S
C6548 C6549 1.415 . S
C6549 H6519 0.950 . S
C6549 C6544 1.363 . S
C6549 C6548 1.415 . S
H6550 C6547 0.999 . S
H6551 C6532 0.913 . S
H6552 C6570 0.951 . S
H6553 C6572 0.951 . S
H6554 C6574 0.950 . S
H6555 C6575 0.950 . S
H6556 C6577 0.950 . S
H6557 C6580 0.950 . S
H6558 C6581 0.950 . S
H6559 C6583 0.950 . S
H6560 C6584 0.950 . S
H6561 C6585 0.951 . S
H6562 C6587 0.951 . S
H6563 C6589 0.950 . S
H6564 C6590 0.950 . S
H6565 C6592 0.950 . S
H6566 C6595 0.950 . S
H6567 C6596 0.946 1_554 S
H6568 C6598 0.950 . S
H6569 C6599 0.950 . S
C6570 H6552 0.951 . S
C6570 C6571 1.366 . S
C6570 C6572 1.388 . S
C6571 C6570 1.366 . S
C6571 C6575 1.385 . S
C6572 H6553 0.951 . S
C6572 C6570 1.388 . S
C6572 C6573 1.366 . S
C6573 C6572 1.366 . S
C6573 C6574 1.414 . S
C6573 C6576 1.499 . S
C6574 H6554 0.950 . S
C6574 C6573 1.414 . S
C6574 C6575 1.374 . S
C6575 H6555 0.950 . S
C6575 C6571 1.385 . S
C6575 C6574 1.374 . S
C6576 C6573 1.499 . S
C6576 C6577 1.373 . S
C6576 C6578 1.389 . S
C6577 H6556 0.950 . S
C6577 C6576 1.373 . S
C6577 C6593 1.377 . S
C6578 C6576 1.389 . S
C6578 C6579 1.524 . S
C6578 C6592 1.377 . S
C6579 C6578 1.524 . S
C6579 C6580 1.397 . S
C6579 C6584 1.363 . S
C6580 H6557 0.950 . S
C6580 C6579 1.397 . S
C6580 C6581 1.334 . S
C6581 H6558 0.950 . S
C6581 C6580 1.334 . S
C6581 C6582 1.287 . S
C6582 C6581 1.287 . S
C6582 C6583 1.524 . S
C6582 H6601 0.913 . S
C6583 H6559 0.950 . S
C6583 C6582 1.524 . S
C6583 C6584 1.415 . S
C6584 H6560 0.950 . S
C6584 C6579 1.363 . S
C6584 C6583 1.415 . S
C6585 H6561 0.951 . S
C6585 C6586 1.366 . S
C6585 C6587 1.388 . S
C6586 C6585 1.366 . S
C6586 C6590 1.385 . S
C6587 H6562 0.951 . S
C6587 C6585 1.388 . S
C6587 C6588 1.366 . S
C6588 C6587 1.366 . S
C6588 C6589 1.414 . S
C6588 C6591 1.499 . S
C6589 H6563 0.950 . S
C6589 C6588 1.414 . S
C6589 C6590 1.374 . S
C6590 H6564 0.950 . S
C6590 C6586 1.385 . S
C6590 C6589 1.374 . S
C6591 C6588 1.499 . S
C6591 C6592 1.373 . S
C6591 C6593 1.389 . S
C6592 H6565 0.950 . S
C6592 C6578 1.377 . S
C6592 C6591 1.373 . S
C6593 C6577 1.377 . S
C6593 C6591 1.389 . S
C6593 C6594 1.524 . S
C6594 C6593 1.524 . S
C6594 C6595 1.397 . S
C6594 C6599 1.363 . S
C6595 H6566 0.950 . S
C6595 C6594 1.397 . S
C6595 C6596 1.338 . S
C6596 H6567 0.946 1_556 S
C6596 C6595 1.338 . S
C6596 C6597 1.287 1_556 S
C6597 C6596 1.287 1_554 S
C6597 C6598 1.526 1_554 S
C6597 H6600 0.997 . S
C6598 H6568 0.950 . S
C6598 C6597 1.526 1_556 S
C6598 C6599 1.415 . S
C6599 H6569 0.950 . S
C6599 C6594 1.363 . S
C6599 C6598 1.415 . S
H6600 C6597 0.997 . S
H6601 C6582 0.913 . S
H6602 C6620 0.951 . S
H6603 C6622 0.951 . S
H6604 C6624 0.950 . S
H6605 C6625 0.950 . S
H6606 C6627 0.950 . S
H6607 C6630 0.950 . S
H6608 C6631 0.950 . S
H6609 C6633 0.950 . S
H6610 C6634 0.950 . S
H6611 C6635 0.951 . S
H6612 C6637 0.951 . S
H6613 C6639 0.950 . S
H6614 C6640 0.950 . S
H6615 C6642 0.950 . S
H6616 C6645 0.950 . S
H6617 C6646 0.950 . S
H6618 C6648 0.950 . S
H6619 C6649 0.950 . S
C6620 H6602 0.951 . S
C6620 C6621 1.366 . S
C6620 C6622 1.388 . S
C6621 C6620 1.366 . S
C6621 C6625 1.385 . S
C6622 H6603 0.951 . S
C6622 C6620 1.388 . S
C6622 C6623 1.366 . S
C6623 C6622 1.366 . S
C6623 C6624 1.414 . S
C6623 C6626 1.499 . S
C6624 H6604 0.950 . S
C6624 C6623 1.414 . S
C6624 C6625 1.374 . S
C6625 H6605 0.950 . S
C6625 C6621 1.385 . S
C6625 C6624 1.374 . S
C6626 C6623 1.499 . S
C6626 C6627 1.373 . S
C6626 C6628 1.389 . S
C6627 H6606 0.950 . S
C6627 C6626 1.373 . S
C6627 C6643 1.377 . S
C6628 C6626 1.389 . S
C6628 C6629 1.524 . S
C6628 C6642 1.377 . S
C6629 C6628 1.524 . S
C6629 C6630 1.397 . S
C6629 C6634 1.363 . S
C6630 H6607 0.950 . S
C6630 C6629 1.397 . S
C6630 C6631 1.334 . S
C6631 H6608 0.950 . S
C6631 C6630 1.334 . S
C6631 C6632 1.287 . S
C6632 C6631 1.287 . S
C6632 C6633 1.524 . S
C6632 H6651 0.913 . S
C6633 H6609 0.950 . S
C6633 C6632 1.524 . S
C6633 C6634 1.415 . S
C6634 H6610 0.950 . S
C6634 C6629 1.363 . S
C6634 C6633 1.415 . S
C6635 H6611 0.951 . S
C6635 C6636 1.366 . S
C6635 C6637 1.388 . S
C6636 C6635 1.366 . S
C6636 C6640 1.385 . S
C6637 H6612 0.951 . S
C6637 C6635 1.388 . S
C6637 C6638 1.366 . S
C6638 C6637 1.366 . S
C6638 C6639 1.414 . S
C6638 C6641 1.499 . S
C6639 H6613 0.950 . S
C6639 C6638 1.414 . S
C6639 C6640 1.374 . S
C6640 H6614 0.950 . S
C6640 C6636 1.385 . S
C6640 C6639 1.374 . S
C6641 C6638 1.499 . S
C6641 C6642 1.373 . S
C6641 C6643 1.389 . S
C6642 H6615 0.950 . S
C6642 C6628 1.377 . S
C6642 C6641 1.373 . S
C6643 C6627 1.377 . S
C6643 C6641 1.389 . S
C6643 C6644 1.524 . S
C6644 C6643 1.524 . S
C6644 C6645 1.397 . S
C6644 C6649 1.363 . S
C6645 H6616 0.950 . S
C6645 C6644 1.397 . S
C6645 C6646 1.334 . S
C6646 H6617 0.950 . S
C6646 C6645 1.334 . S
C6646 C6647 1.287 . S
C6647 C6646 1.287 . S
C6647 C6648 1.524 . S
C6647 H6650 0.999 . S
C6648 H6618 0.950 . S
C6648 C6647 1.524 . S
C6648 C6649 1.415 . S
C6649 H6619 0.950 . S
C6649 C6644 1.363 . S
C6649 C6648 1.415 . S
H6650 C6647 0.999 . S
H6651 C6632 0.913 . S
H6652 C6670 0.951 . S
H6653 C6672 0.951 . S
H6654 C6674 0.950 . S
H6655 C6675 0.950 . S
H6656 C6677 0.950 . S
H6657 C6680 0.950 . S
H6658 C6681 0.950 . S
H6659 C6683 0.950 . S
H6660 C6684 0.950 . S
H6661 C6685 0.951 . S
H6662 C6687 0.951 . S
H6663 C6689 0.950 . S
H6664 C6690 0.950 . S
H6665 C6692 0.950 . S
H6666 C6695 0.950 . S
H6667 C6696 0.950 . S
H6668 C6698 0.950 . S
H6669 C6699 0.950 . S
C6670 H6652 0.951 . S
C6670 C6671 1.366 . S
C6670 C6672 1.388 . S
C6671 C6670 1.366 . S
C6671 C6675 1.385 . S
C6672 H6653 0.951 . S
C6672 C6670 1.388 . S
C6672 C6673 1.366 . S
C6673 C6672 1.366 . S
C6673 C6674 1.414 . S
C6673 C6676 1.499 . S
C6674 H6654 0.950 . S
C6674 C6673 1.414 . S
C6674 C6675 1.374 . S
C6675 H6655 0.950 . S
C6675 C6671 1.385 . S
C6675 C6674 1.374 . S
C6676 C6673 1.499 . S
C6676 C6677 1.373 . S
C6676 C6678 1.389 . S
C6677 H6656 0.950 . S
C6677 C6676 1.373 . S
C6677 C6693 1.377 . S
C6678 C6676 1.389 . S
C6678 C6679 1.524 . S
C6678 C6692 1.377 . S
C6679 C6678 1.524 . S
C6679 C6680 1.397 . S
C6679 C6684 1.363 . S
C6680 H6657 0.950 . S
C6680 C6679 1.397 . S
C6680 C6681 1.334 . S
C6681 H6658 0.950 . S
C6681 C6680 1.334 . S
C6681 C6682 1.287 . S
C6682 C6681 1.287 . S
C6682 C6683 1.524 . S
C6682 H6701 0.913 . S
C6683 H6659 0.950 . S
C6683 C6682 1.524 . S
C6683 C6684 1.415 . S
C6684 H6660 0.950 . S
C6684 C6679 1.363 . S
C6684 C6683 1.415 . S
C6685 H6661 0.951 . S
C6685 C6686 1.366 . S
C6685 C6687 1.388 . S
C6686 C6685 1.366 . S
C6686 C6690 1.385 . S
C6687 H6662 0.951 . S
C6687 C6685 1.388 . S
C6687 C6688 1.366 . S
C6688 C6687 1.366 . S
C6688 C6689 1.414 . S
C6688 C6691 1.499 . S
C6689 H6663 0.950 . S
C6689 C6688 1.414 . S
C6689 C6690 1.374 . S
C6690 H6664 0.950 . S
C6690 C6686 1.385 . S
C6690 C6689 1.374 . S
C6691 C6688 1.499 . S
C6691 C6692 1.373 . S
C6691 C6693 1.389 . S
C6692 H6665 0.950 . S
C6692 C6678 1.377 . S
C6692 C6691 1.373 . S
C6693 C6677 1.377 . S
C6693 C6691 1.389 . S
C6693 C6694 1.524 . S
C6694 C6693 1.524 . S
C6694 C6695 1.397 . S
C6694 C6699 1.363 . S
C6695 H6666 0.950 . S
C6695 C6694 1.397 . S
C6695 C6696 1.334 . S
C6696 H6667 0.950 . S
C6696 C6695 1.334 . S
C6696 C6697 1.287 . S
C6697 C6696 1.287 . S
C6697 C6698 1.524 . S
C6697 H6700 0.999 . S
C6698 H6668 0.950 . S
C6698 C6697 1.524 . S
C6698 C6699 1.415 . S
C6699 H6669 0.950 . S
C6699 C6694 1.363 . S
C6699 C6698 1.415 . S
H6700 C6697 0.999 . S
H6701 C6682 0.913 . S
H6702 C6720 0.951 . S
H6703 C6722 0.951 . S
H6704 C6724 0.950 . S
H6705 C6725 0.950 . S
H6706 C6727 0.950 . S
H6707 C6730 0.950 . S
H6708 C6731 0.950 . S
H6709 C6733 0.950 . S
H6710 C6734 0.950 . S
H6711 C6735 0.951 . S
H6712 C6737 0.951 . S
H6713 C6739 0.950 . S
H6714 C6740 0.950 . S
H6715 C6742 0.950 . S
H6716 C6745 0.950 . S
H6717 C6746 0.950 . S
H6718 C6748 0.950 . S
H6719 C6749 0.950 . S
C6720 H6702 0.951 . S
C6720 C6721 1.366 . S
C6720 C6722 1.388 . S
C6721 C6720 1.366 . S
C6721 C6725 1.385 . S
C6722 H6703 0.951 . S
C6722 C6720 1.388 . S
C6722 C6723 1.366 . S
C6723 C6722 1.366 . S
C6723 C6724 1.414 . S
C6723 C6726 1.499 . S
C6724 H6704 0.950 . S
C6724 C6723 1.414 . S
C6724 C6725 1.374 . S
C6725 H6705 0.950 . S
C6725 C6721 1.385 . S
C6725 C6724 1.374 . S
C6726 C6723 1.499 . S
C6726 C6727 1.373 . S
C6726 C6728 1.389 . S
C6727 H6706 0.950 . S
C6727 C6726 1.373 . S
C6727 C6743 1.377 . S
C6728 C6726 1.389 . S
C6728 C6729 1.524 . S
C6728 C6742 1.377 . S
C6729 C6728 1.524 . S
C6729 C6730 1.397 . S
C6729 C6734 1.363 . S
C6730 H6707 0.950 . S
C6730 C6729 1.397 . S
C6730 C6731 1.334 . S
C6731 H6708 0.950 . S
C6731 C6730 1.334 . S
C6731 C6732 1.287 . S
C6732 C6731 1.287 . S
C6732 C6733 1.524 . S
C6732 H6751 0.913 . S
C6733 H6709 0.950 . S
C6733 C6732 1.524 . S
C6733 C6734 1.415 . S
C6734 H6710 0.950 . S
C6734 C6729 1.363 . S
C6734 C6733 1.415 . S
C6735 H6711 0.951 . S
C6735 C6736 1.366 . S
C6735 C6737 1.388 . S
C6736 C6735 1.366 . S
C6736 C6740 1.385 . S
C6737 H6712 0.951 . S
C6737 C6735 1.388 . S
C6737 C6738 1.366 . S
C6738 C6737 1.366 . S
C6738 C6739 1.414 . S
C6738 C6741 1.499 . S
C6739 H6713 0.950 . S
C6739 C6738 1.414 . S
C6739 C6740 1.374 . S
C6740 H6714 0.950 . S
C6740 C6736 1.385 . S
C6740 C6739 1.374 . S
C6741 C6738 1.499 . S
C6741 C6742 1.373 . S
C6741 C6743 1.389 . S
C6742 H6715 0.950 . S
C6742 C6728 1.377 . S
C6742 C6741 1.373 . S
C6743 C6727 1.377 . S
C6743 C6741 1.389 . S
C6743 C6744 1.524 . S
C6744 C6743 1.524 . S
C6744 C6745 1.397 . S
C6744 C6749 1.363 . S
C6745 H6716 0.950 . S
C6745 C6744 1.397 . S
C6745 C6746 1.334 . S
C6746 H6717 0.950 . S
C6746 C6745 1.334 . S
C6746 C6747 1.287 . S
C6747 C6746 1.287 . S
C6747 C6748 1.524 . S
C6747 H6750 0.999 . S
C6748 H6718 0.950 . S
C6748 C6747 1.524 . S
C6748 C6749 1.415 . S
C6749 H6719 0.950 . S
C6749 C6744 1.363 . S
C6749 C6748 1.415 . S
H6750 C6747 0.999 . S
H6751 C6732 0.913 . S
H6752 C6770 0.951 . S
H6753 C6772 0.951 . S
H6754 C6774 0.950 . S
H6755 C6775 0.950 . S
H6756 C6777 0.950 . S
H6757 C6780 0.950 . S
H6758 C6781 0.950 . S
H6759 C6783 0.950 . S
H6760 C6784 0.950 . S
H6761 C6785 0.951 . S
H6762 C6787 0.951 . S
H6763 C6789 0.950 . S
H6764 C6790 0.950 . S
H6765 C6792 0.950 . S
H6766 C6795 0.950 . S
H6767 C6796 0.950 . S
H6768 C6798 0.950 . S
H6769 C6799 0.950 . S
C6770 H6752 0.951 . S
C6770 C6771 1.366 . S
C6770 C6772 1.388 . S
C6771 C6770 1.366 . S
C6771 C6775 1.385 . S
C6772 H6753 0.951 . S
C6772 C6770 1.388 . S
C6772 C6773 1.366 . S
C6773 C6772 1.366 . S
C6773 C6774 1.414 . S
C6773 C6776 1.499 . S
C6774 H6754 0.950 . S
C6774 C6773 1.414 . S
C6774 C6775 1.374 . S
C6775 H6755 0.950 . S
C6775 C6771 1.385 . S
C6775 C6774 1.374 . S
C6776 C6773 1.499 . S
C6776 C6777 1.373 . S
C6776 C6778 1.389 . S
C6777 H6756 0.950 . S
C6777 C6776 1.373 . S
C6777 C6793 1.377 . S
C6778 C6776 1.389 . S
C6778 C6779 1.524 . S
C6778 C6792 1.377 . S
C6779 C6778 1.524 . S
C6779 C6780 1.397 . S
C6779 C6784 1.363 . S
C6780 H6757 0.950 . S
C6780 C6779 1.397 . S
C6780 C6781 1.334 . S
C6781 H6758 0.950 . S
C6781 C6780 1.334 . S
C6781 C6782 1.287 . S
C6782 C6781 1.287 . S
C6782 C6783 1.524 . S
C6782 H6801 0.913 . S
C6783 H6759 0.950 . S
C6783 C6782 1.524 . S
C6783 C6784 1.415 . S
C6784 H6760 0.950 . S
C6784 C6779 1.363 . S
C6784 C6783 1.415 . S
C6785 H6761 0.951 . S
C6785 C6786 1.366 . S
C6785 C6787 1.388 . S
C6786 C6785 1.366 . S
C6786 C6790 1.385 . S
C6787 H6762 0.951 . S
C6787 C6785 1.388 . S
C6787 C6788 1.366 . S
C6788 C6787 1.366 . S
C6788 C6789 1.414 . S
C6788 C6791 1.499 . S
C6789 H6763 0.950 . S
C6789 C6788 1.414 . S
C6789 C6790 1.374 . S
C6790 H6764 0.950 . S
C6790 C6786 1.385 . S
C6790 C6789 1.374 . S
C6791 C6788 1.499 . S
C6791 C6792 1.373 . S
C6791 C6793 1.389 . S
C6792 H6765 0.950 . S
C6792 C6778 1.377 . S
C6792 C6791 1.373 . S
C6793 C6777 1.377 . S
C6793 C6791 1.389 . S
C6793 C6794 1.524 . S
C6794 C6793 1.524 . S
C6794 C6795 1.397 . S
C6794 C6799 1.363 . S
C6795 H6766 0.950 . S
C6795 C6794 1.397 . S
C6795 C6796 1.334 . S
C6796 H6767 0.950 . S
C6796 C6795 1.334 . S
C6796 C6797 1.287 . S
C6797 C6796 1.287 . S
C6797 C6798 1.524 . S
C6797 H6800 0.999 . S
C6798 H6768 0.950 . S
C6798 C6797 1.524 . S
C6798 C6799 1.415 . S
C6799 H6769 0.950 . S
C6799 C6794 1.363 . S
C6799 C6798 1.415 . S
H6800 C6797 0.999 . S
H6801 C6782 0.913 . S
H6802 C6820 0.951 . S
H6803 C6822 0.951 . S
H6804 C6824 0.950 . S
H6805 C6825 0.950 . S
H6806 C6827 0.950 . S
H6807 C6830 0.950 . S
H6808 C6831 0.950 . S
H6809 C6833 0.950 . S
H6810 C6834 0.950 . S
H6811 C6835 0.951 . S
H6812 C6837 0.951 . S
H6813 C6839 0.950 . S
H6814 C6840 0.950 . S
H6815 C6842 0.950 . S
H6816 C6845 0.950 . S
H6817 C6846 0.950 . S
H6818 C6848 0.950 . S
H6819 C6849 0.950 . S
C6820 H6802 0.951 . S
C6820 C6821 1.366 . S
C6820 C6822 1.388 . S
C6821 C6820 1.366 . S
C6821 C6825 1.385 . S
C6822 H6803 0.951 . S
C6822 C6820 1.388 . S
C6822 C6823 1.366 . S
C6823 C6822 1.366 . S
C6823 C6824 1.414 . S
C6823 C6826 1.499 . S
C6824 H6804 0.950 . S
C6824 C6823 1.414 . S
C6824 C6825 1.374 . S
C6825 H6805 0.950 . S
C6825 C6821 1.385 . S
C6825 C6824 1.374 . S
C6826 C6823 1.499 . S
C6826 C6827 1.373 . S
C6826 C6828 1.389 . S
C6827 H6806 0.950 . S
C6827 C6826 1.373 . S
C6827 C6843 1.377 . S
C6828 C6826 1.389 . S
C6828 C6829 1.524 . S
C6828 C6842 1.377 . S
C6829 C6828 1.524 . S
C6829 C6830 1.397 . S
C6829 C6834 1.363 . S
C6830 H6807 0.950 . S
C6830 C6829 1.397 . S
C6830 C6831 1.334 . S
C6831 H6808 0.950 . S
C6831 C6830 1.334 . S
C6831 C6832 1.287 . S
C6832 C6831 1.287 . S
C6832 C6833 1.524 . S
C6832 H6851 0.913 . S
C6833 H6809 0.950 . S
C6833 C6832 1.524 . S
C6833 C6834 1.415 . S
C6834 H6810 0.950 . S
C6834 C6829 1.363 . S
C6834 C6833 1.415 . S
C6835 H6811 0.951 . S
C6835 C6836 1.366 . S
C6835 C6837 1.388 . S
C6836 C6835 1.366 . S
C6836 C6840 1.385 . S
C6837 H6812 0.951 . S
C6837 C6835 1.388 . S
C6837 C6838 1.366 . S
C6838 C6837 1.366 . S
C6838 C6839 1.414 . S
C6838 C6841 1.499 . S
C6839 H6813 0.950 . S
C6839 C6838 1.414 . S
C6839 C6840 1.374 . S
C6840 H6814 0.950 . S
C6840 C6836 1.385 . S
C6840 C6839 1.374 . S
C6841 C6838 1.499 . S
C6841 C6842 1.373 . S
C6841 C6843 1.389 . S
C6842 H6815 0.950 . S
C6842 C6828 1.377 . S
C6842 C6841 1.373 . S
C6843 C6827 1.377 . S
C6843 C6841 1.389 . S
C6843 C6844 1.524 . S
C6844 C6843 1.524 . S
C6844 C6845 1.397 . S
C6844 C6849 1.363 . S
C6845 H6816 0.950 . S
C6845 C6844 1.397 . S
C6845 C6846 1.334 . S
C6846 H6817 0.950 . S
C6846 C6845 1.334 . S
C6846 C6847 1.287 . S
C6847 C6846 1.287 . S
C6847 C6848 1.524 . S
C6847 H6850 0.999 . S
C6848 H6818 0.950 . S
C6848 C6847 1.524 . S
C6848 C6849 1.415 . S
C6849 H6819 0.950 . S
C6849 C6844 1.363 . S
C6849 C6848 1.415 . S
H6850 C6847 0.999 . S
H6851 C6832 0.913 . S
H6852 C6870 0.951 . S
H6853 C6872 0.951 . S
H6854 C6874 0.950 . S
H6855 C6875 0.950 . S
H6856 C6877 0.950 . S
H6857 C6880 0.950 . S
H6858 C6881 0.969 . S
H6859 C6883 0.950 . S
H6860 C6884 0.950 . S
H6861 C6885 0.951 1_655 S
H6862 C6887 0.951 . S
H6863 C6889 0.950 . S
H6864 C6890 0.950 . S
H6865 C6892 0.950 . S
H6866 C6895 0.950 . S
H6867 C6896 0.950 . S
H6868 C6898 0.950 . S
H6869 C6899 0.950 . S
C6870 H6852 0.951 . S
C6870 C6871 1.366 . S
C6870 C6872 1.388 . S
C6871 C6870 1.366 . S
C6871 C6875 1.385 . S
C6872 H6853 0.951 . S
C6872 C6870 1.388 . S
C6872 C6873 1.366 . S
C6873 C6872 1.366 . S
C6873 C6874 1.414 . S
C6873 C6876 1.499 . S
C6874 H6854 0.950 . S
C6874 C6873 1.414 . S
C6874 C6875 1.374 . S
C6875 H6855 0.950 . S
C6875 C6871 1.385 . S
C6875 C6874 1.374 . S
C6876 C6873 1.499 . S
C6876 C6877 1.373 . S
C6876 C6878 1.389 . S
C6877 H6856 0.950 . S
C6877 C6876 1.373 . S
C6877 C6893 1.377 . S
C6878 C6876 1.389 . S
C6878 C6879 1.524 1_655 S
C6878 C6892 1.377 1_655 S
C6879 C6878 1.524 1_455 S
C6879 C6880 1.397 1_455 S
C6879 C6884 1.363 . S
C6880 H6857 0.950 . S
C6880 C6879 1.397 1_655 S
C6880 C6881 1.334 1_655 S
C6881 H6858 0.969 . S
C6881 C6880 1.334 1_455 S
C6881 C6882 1.287 . S
C6882 C6881 1.287 . S
C6882 C6883 1.524 . S
C6882 H6901 0.913 . S
C6883 H6859 0.950 . S
C6883 C6882 1.524 . S
C6883 C6884 1.415 . S
C6884 H6860 0.950 . S
C6884 C6879 1.363 . S
C6884 C6883 1.415 . S
C6885 H6861 0.951 1_455 S
C6885 C6886 1.366 . S
C6885 C6887 1.388 1_455 S
C6886 C6885 1.366 . S
C6886 C6890 1.385 . S
C6887 H6862 0.951 . S
C6887 C6885 1.388 1_655 S
C6887 C6888 1.366 1_655 S
C6888 C6887 1.366 1_455 S
C6888 C6889 1.414 . S
C6888 C6891 1.499 1_455 S
C6889 H6863 0.950 . S
C6889 C6888 1.414 . S
C6889 C6890 1.374 . S
C6890 H6864 0.950 . S
C6890 C6886 1.385 . S
C6890 C6889 1.374 . S
C6891 C6888 1.499 1_655 S
C6891 C6892 1.373 1_655 S
C6891 C6893 1.389 . S
C6892 H6865 0.950 . S
C6892 C6878 1.377 1_455 S
C6892 C6891 1.373 1_455 S
C6893 C6877 1.377 . S
C6893 C6891 1.389 . S
C6893 C6894 1.524 . S
C6894 C6893 1.524 . S
C6894 C6895 1.397 . S
C6894 C6899 1.363 . S
C6895 H6866 0.950 . S
C6895 C6894 1.397 . S
C6895 C6896 1.334 . S
C6896 H6867 0.950 . S
C6896 C6895 1.334 . S
C6896 C6897 1.287 . S
C6897 C6896 1.287 . S
C6897 C6898 1.524 . S
C6897 H6900 0.999 . S
C6898 H6868 0.950 . S
C6898 C6897 1.524 . S
C6898 C6899 1.415 . S
C6899 H6869 0.950 . S
C6899 C6894 1.363 . S
C6899 C6898 1.415 . S
H6900 C6897 0.999 . S
H6901 C6882 0.913 . S
H6902 C6920 0.951 . S
H6903 C6922 0.951 . S
H6904 C6924 0.950 . S
H6905 C6925 0.950 . S
H6906 C6927 0.950 . S
H6907 C6930 0.950 . S
H6908 C6931 0.950 . S
H6909 C6933 0.950 . S
H6910 C6934 0.950 . S
H6911 C6935 0.951 . S
H6912 C6937 0.951 . S
H6913 C6939 0.950 . S
H6914 C6940 0.950 . S
H6915 C6942 0.950 . S
H6916 C6945 0.950 . S
H6917 C6946 0.950 . S
H6918 C6948 0.950 . S
H6919 C6949 0.950 . S
C6920 H6902 0.951 . S
C6920 C6921 1.366 . S
C6920 C6922 1.388 . S
C6921 C6920 1.366 . S
C6921 C6925 1.385 . S
C6922 H6903 0.951 . S
C6922 C6920 1.388 . S
C6922 C6923 1.366 . S
C6923 C6922 1.366 . S
C6923 C6924 1.414 . S
C6923 C6926 1.499 . S
C6924 H6904 0.950 . S
C6924 C6923 1.414 . S
C6924 C6925 1.374 . S
C6925 H6905 0.950 . S
C6925 C6921 1.385 . S
C6925 C6924 1.374 . S
C6926 C6923 1.499 . S
C6926 C6927 1.373 . S
C6926 C6928 1.389 . S
C6927 H6906 0.950 . S
C6927 C6926 1.373 . S
C6927 C6943 1.377 . S
C6928 C6926 1.389 . S
C6928 C6929 1.524 . S
C6928 C6942 1.377 . S
C6929 C6928 1.524 . S
C6929 C6930 1.397 . S
C6929 C6934 1.363 . S
C6930 H6907 0.950 . S
C6930 C6929 1.397 . S
C6930 C6931 1.334 . S
C6931 H6908 0.950 . S
C6931 C6930 1.334 . S
C6931 C6932 1.287 . S
C6932 C6931 1.287 . S
C6932 C6933 1.524 . S
C6932 H6951 0.913 . S
C6933 H6909 0.950 . S
C6933 C6932 1.524 . S
C6933 C6934 1.415 . S
C6934 H6910 0.950 . S
C6934 C6929 1.363 . S
C6934 C6933 1.415 . S
C6935 H6911 0.951 . S
C6935 C6936 1.366 . S
C6935 C6937 1.388 . S
C6936 C6935 1.366 . S
C6936 C6940 1.385 . S
C6937 H6912 0.951 . S
C6937 C6935 1.388 . S
C6937 C6938 1.366 . S
C6938 C6937 1.366 . S
C6938 C6939 1.414 . S
C6938 C6941 1.499 . S
C6939 H6913 0.950 . S
C6939 C6938 1.414 . S
C6939 C6940 1.374 . S
C6940 H6914 0.950 . S
C6940 C6936 1.385 . S
C6940 C6939 1.374 . S
C6941 C6938 1.499 . S
C6941 C6942 1.373 . S
C6941 C6943 1.389 . S
C6942 H6915 0.950 . S
C6942 C6928 1.377 . S
C6942 C6941 1.373 . S
C6943 C6927 1.377 . S
C6943 C6941 1.389 . S
C6943 C6944 1.524 . S
C6944 C6943 1.524 . S
C6944 C6945 1.397 . S
C6944 C6949 1.363 . S
C6945 H6916 0.950 . S
C6945 C6944 1.397 . S
C6945 C6946 1.334 . S
C6946 H6917 0.950 . S
C6946 C6945 1.334 . S
C6946 C6947 1.287 . S
C6947 C6946 1.287 . S
C6947 C6948 1.524 . S
C6947 H6950 0.999 . S
C6948 H6918 0.950 . S
C6948 C6947 1.524 . S
C6948 C6949 1.415 . S
C6949 H6919 0.950 . S
C6949 C6944 1.363 . S
C6949 C6948 1.415 . S
H6950 C6947 0.999 . S
H6951 C6932 0.913 . S
H6952 C6970 0.951 . S
H6953 C6972 0.951 . S
H6954 C6974 0.950 . S
H6955 C6975 0.950 . S
H6956 C6977 0.950 . S
H6957 C6980 0.950 . S
H6958 C6981 0.950 . S
H6959 C6983 0.950 . S
H6960 C6984 0.950 . S
H6961 C6985 0.951 . S
H6962 C6987 0.951 . S
H6963 C6989 0.950 . S
H6964 C6990 0.950 . S
H6965 C6992 0.950 . S
H6966 C6995 0.950 . S
H6967 C6996 0.950 . S
H6968 C6998 0.950 . S
H6969 C6999 0.950 . S
C6970 H6952 0.951 . S
C6970 C6971 1.366 . S
C6970 C6972 1.388 . S
C6971 C6970 1.366 . S
C6971 C6975 1.385 . S
C6972 H6953 0.951 . S
C6972 C6970 1.388 . S
C6972 C6973 1.366 . S
C6973 C6972 1.366 . S
C6973 C6974 1.414 . S
C6973 C6976 1.499 . S
C6974 H6954 0.950 . S
C6974 C6973 1.414 . S
C6974 C6975 1.374 . S
C6975 H6955 0.950 . S
C6975 C6971 1.385 . S
C6975 C6974 1.374 . S
C6976 C6973 1.499 . S
C6976 C6977 1.373 . S
C6976 C6978 1.389 . S
C6977 H6956 0.950 . S
C6977 C6976 1.373 . S
C6977 C6993 1.377 . S
C6978 C6976 1.389 . S
C6978 C6979 1.524 . S
C6978 C6992 1.377 . S
C6979 C6978 1.524 . S
C6979 C6980 1.397 . S
C6979 C6984 1.363 . S
C6980 H6957 0.950 . S
C6980 C6979 1.397 . S
C6980 C6981 1.334 . S
C6981 H6958 0.950 . S
C6981 C6980 1.334 . S
C6981 C6982 1.287 . S
C6982 C6981 1.287 . S
C6982 C6983 1.524 . S
C6982 H7001 0.913 . S
C6983 H6959 0.950 . S
C6983 C6982 1.524 . S
C6983 C6984 1.415 . S
C6984 H6960 0.950 . S
C6984 C6979 1.363 . S
C6984 C6983 1.415 . S
C6985 H6961 0.951 . S
C6985 C6986 1.366 . S
C6985 C6987 1.388 . S
C6986 C6985 1.366 . S
C6986 C6990 1.385 . S
C6987 H6962 0.951 . S
C6987 C6985 1.388 . S
C6987 C6988 1.366 . S
C6988 C6987 1.366 . S
C6988 C6989 1.414 . S
C6988 C6991 1.499 . S
C6989 H6963 0.950 . S
C6989 C6988 1.414 . S
C6989 C6990 1.374 . S
C6990 H6964 0.950 . S
C6990 C6986 1.385 . S
C6990 C6989 1.374 . S
C6991 C6988 1.499 . S
C6991 C6992 1.373 . S
C6991 C6993 1.389 . S
C6992 H6965 0.950 . S
C6992 C6978 1.377 . S
C6992 C6991 1.373 . S
C6993 C6977 1.377 . S
C6993 C6991 1.389 . S
C6993 C6994 1.524 . S
C6994 C6993 1.524 . S
C6994 C6995 1.397 . S
C6994 C6999 1.363 . S
C6995 H6966 0.950 . S
C6995 C6994 1.397 . S
C6995 C6996 1.334 . S
C6996 H6967 0.950 . S
C6996 C6995 1.334 . S
C6996 C6997 1.287 . S
C6997 C6996 1.287 . S
C6997 C6998 1.524 . S
C6997 H7000 0.999 . S
C6998 H6968 0.950 . S
C6998 C6997 1.524 . S
C6998 C6999 1.415 . S
C6999 H6969 0.950 . S
C6999 C6994 1.363 . S
C6999 C6998 1.415 . S
H7000 C6997 0.999 . S
H7001 C6982 0.913 . S
H7002 C7020 0.951 . S
H7003 C7022 0.951 . S
H7004 C7024 0.950 . S
H7005 C7025 0.950 . S
H7006 C7027 0.950 . S
H7007 C7030 0.950 . S
H7008 C7031 0.950 . S
H7009 C7033 0.950 . S
H7010 C7034 0.950 . S
H7011 C7035 0.951 . S
H7012 C7037 0.951 . S
H7013 C7039 0.950 . S
H7014 C7040 0.950 . S
H7015 C7042 0.950 . S
H7016 C7045 0.950 . S
H7017 C7046 0.950 . S
H7018 C7048 0.950 . S
H7019 C7049 0.950 . S
C7020 H7002 0.951 . S
C7020 C7021 1.366 . S
C7020 C7022 1.388 . S
C7021 C7020 1.366 . S
C7021 C7025 1.385 . S
C7022 H7003 0.951 . S
C7022 C7020 1.388 . S
C7022 C7023 1.366 . S
C7023 C7022 1.366 . S
C7023 C7024 1.414 . S
C7023 C7026 1.499 . S
C7024 H7004 0.950 . S
C7024 C7023 1.414 . S
C7024 C7025 1.374 . S
C7025 H7005 0.950 . S
C7025 C7021 1.385 . S
C7025 C7024 1.374 . S
C7026 C7023 1.499 . S
C7026 C7027 1.373 . S
C7026 C7028 1.389 . S
C7027 H7006 0.950 . S
C7027 C7026 1.373 . S
C7027 C7043 1.377 . S
C7028 C7026 1.389 . S
C7028 C7029 1.524 . S
C7028 C7042 1.377 . S
C7029 C7028 1.524 . S
C7029 C7030 1.397 . S
C7029 C7034 1.363 . S
C7030 H7007 0.950 . S
C7030 C7029 1.397 . S
C7030 C7031 1.334 . S
C7031 H7008 0.950 . S
C7031 C7030 1.334 . S
C7031 C7032 1.287 . S
C7032 C7031 1.287 . S
C7032 C7033 1.524 . S
C7032 H7051 0.913 . S
C7033 H7009 0.950 . S
C7033 C7032 1.524 . S
C7033 C7034 1.415 . S
C7034 H7010 0.950 . S
C7034 C7029 1.363 . S
C7034 C7033 1.415 . S
C7035 H7011 0.951 . S
C7035 C7036 1.366 . S
C7035 C7037 1.388 . S
C7036 C7035 1.366 . S
C7036 C7040 1.385 . S
C7037 H7012 0.951 . S
C7037 C7035 1.388 . S
C7037 C7038 1.366 . S
C7038 C7037 1.366 . S
C7038 C7039 1.414 . S
C7038 C7041 1.499 . S
C7039 H7013 0.950 . S
C7039 C7038 1.414 . S
C7039 C7040 1.374 . S
C7040 H7014 0.950 . S
C7040 C7036 1.385 . S
C7040 C7039 1.374 . S
C7041 C7038 1.499 . S
C7041 C7042 1.373 . S
C7041 C7043 1.389 . S
C7042 H7015 0.950 . S
C7042 C7028 1.377 . S
C7042 C7041 1.373 . S
C7043 C7027 1.377 . S
C7043 C7041 1.389 . S
C7043 C7044 1.524 . S
C7044 C7043 1.524 . S
C7044 C7045 1.397 . S
C7044 C7049 1.363 . S
C7045 H7016 0.950 . S
C7045 C7044 1.397 . S
C7045 C7046 1.334 . S
C7046 H7017 0.950 . S
C7046 C7045 1.334 . S
C7046 C7047 1.287 . S
C7047 C7046 1.287 . S
C7047 C7048 1.524 . S
C7047 H7050 0.999 . S
C7048 H7018 0.950 . S
C7048 C7047 1.524 . S
C7048 C7049 1.415 . S
C7049 H7019 0.950 . S
C7049 C7044 1.363 . S
C7049 C7048 1.415 . S
H7050 C7047 0.999 . S
H7051 C7032 0.913 . S
H7052 C7070 0.951 . S
H7053 C7072 0.951 . S
H7054 C7074 0.950 . S
H7055 C7075 0.950 . S
H7056 C7077 0.950 . S
H7057 C7080 0.950 . S
H7058 C7081 0.950 . S
H7059 C7083 0.950 . S
H7060 C7084 0.950 . S
H7061 C7085 0.951 . S
H7062 C7087 0.951 1_455 S
H7063 C7089 0.950 . S
H7064 C7090 0.950 . S
H7065 C7092 0.950 . S
H7066 C7095 0.950 . S
H7067 C7096 0.950 . S
H7068 C7098 0.950 . S
H7069 C7099 0.950 1_455 S
C7070 H7052 0.951 . S
C7070 C7071 1.366 . S
C7070 C7072 1.388 . S
C7071 C7070 1.366 . S
C7071 C7075 1.385 . S
C7072 H7053 0.951 . S
C7072 C7070 1.388 . S
C7072 C7073 1.366 . S
C7073 C7072 1.366 . S
C7073 C7074 1.414 . S
C7073 C7076 1.499 . S
C7074 H7054 0.950 . S
C7074 C7073 1.414 . S
C7074 C7075 1.374 . S
C7075 H7055 0.950 . S
C7075 C7071 1.385 . S
C7075 C7074 1.374 . S
C7076 C7073 1.499 . S
C7076 C7077 1.373 . S
C7076 C7078 1.389 . S
C7077 H7056 0.950 . S
C7077 C7076 1.373 . S
C7077 C7093 1.377 . S
C7078 C7076 1.389 . S
C7078 C7079 1.524 . S
C7078 C7092 1.377 . S
C7079 C7078 1.524 . S
C7079 C7080 1.397 . S
C7079 C7084 1.363 . S
C7080 H7057 0.950 . S
C7080 C7079 1.397 . S
C7080 C7081 1.334 . S
C7081 H7058 0.950 . S
C7081 C7080 1.334 . S
C7081 C7082 1.287 . S
C7082 C7081 1.287 . S
C7082 C7083 1.524 . S
C7082 H7101 0.913 . S
C7083 H7059 0.950 . S
C7083 C7082 1.524 . S
C7083 C7084 1.415 . S
C7084 H7060 0.950 . S
C7084 C7079 1.363 . S
C7084 C7083 1.415 . S
C7085 H7061 0.951 . S
C7085 C7086 1.366 1_455 S
C7085 C7087 1.388 1_455 S
C7086 C7085 1.366 1_655 S
C7086 C7090 1.385 . S
C7087 H7062 0.951 1_655 S
C7087 C7085 1.388 1_655 S
C7087 C7088 1.366 . S
C7088 C7087 1.366 . S
C7088 C7089 1.414 . S
C7088 C7091 1.499 . S
C7089 H7063 0.950 . S
C7089 C7088 1.414 . S
C7089 C7090 1.374 . S
C7090 H7064 0.950 . S
C7090 C7086 1.385 . S
C7090 C7089 1.374 . S
C7091 C7088 1.499 . S
C7091 C7092 1.373 . S
C7091 C7093 1.389 . S
C7092 H7065 0.950 . S
C7092 C7078 1.377 . S
C7092 C7091 1.373 . S
C7093 C7077 1.377 . S
C7093 C7091 1.389 . S
C7093 C7094 1.524 . S
C7094 C7093 1.524 . S
C7094 C7095 1.397 . S
C7094 C7099 1.363 . S
C7095 H7066 0.950 . S
C7095 C7094 1.397 . S
C7095 C7096 1.334 . S
C7096 H7067 0.950 . S
C7096 C7095 1.334 . S
C7096 C7097 1.287 . S
C7097 C7096 1.287 . S
C7097 C7098 1.524 1_655 S
C7097 H7100 0.999 1_655 S
C7098 H7068 0.950 . S
C7098 C7097 1.524 1_455 S
C7098 C7099 1.415 1_455 S
C7099 H7069 0.950 1_655 S
C7099 C7094 1.363 . S
C7099 C7098 1.415 1_655 S
H7100 C7097 0.999 1_455 S
H7101 C7082 0.913 . S
H7102 C7120 0.951 . S
H7103 C7122 0.951 . S
H7104 C7124 0.950 . S
H7105 C7125 0.950 . S
H7106 C7127 0.950 . S
H7107 C7130 0.950 . S
H7108 C7131 0.950 . S
H7109 C7133 0.950 . S
H7110 C7134 0.950 . S
H7111 C7135 0.951 . S
H7112 C7137 0.951 . S
H7113 C7139 0.950 . S
H7114 C7140 0.950 . S
H7115 C7142 0.950 . S
H7116 C7145 0.950 . S
H7117 C7146 0.950 . S
H7118 C7148 0.950 . S
H7119 C7149 0.950 . S
C7120 H7102 0.951 . S
C7120 C7121 1.366 . S
C7120 C7122 1.388 . S
C7121 C7120 1.366 . S
C7121 C7125 1.385 . S
C7122 H7103 0.951 . S
C7122 C7120 1.388 . S
C7122 C7123 1.366 . S
C7123 C7122 1.366 . S
C7123 C7124 1.414 . S
C7123 C7126 1.499 . S
C7124 H7104 0.950 . S
C7124 C7123 1.414 . S
C7124 C7125 1.374 . S
C7125 H7105 0.950 . S
C7125 C7121 1.385 . S
C7125 C7124 1.374 . S
C7126 C7123 1.499 . S
C7126 C7127 1.373 . S
C7126 C7128 1.389 . S
C7127 H7106 0.950 . S
C7127 C7126 1.373 . S
C7127 C7143 1.377 . S
C7128 C7126 1.389 . S
C7128 C7129 1.524 . S
C7128 C7142 1.377 . S
C7129 C7128 1.524 . S
C7129 C7130 1.397 . S
C7129 C7134 1.363 . S
C7130 H7107 0.950 . S
C7130 C7129 1.397 . S
C7130 C7131 1.334 . S
C7131 H7108 0.950 . S
C7131 C7130 1.334 . S
C7131 C7132 1.287 . S
C7132 C7131 1.287 . S
C7132 C7133 1.524 . S
C7132 H7151 0.913 . S
C7133 H7109 0.950 . S
C7133 C7132 1.524 . S
C7133 C7134 1.415 . S
C7134 H7110 0.950 . S
C7134 C7129 1.363 . S
C7134 C7133 1.415 . S
C7135 H7111 0.951 . S
C7135 C7136 1.366 . S
C7135 C7137 1.388 . S
C7136 C7135 1.366 . S
C7136 C7140 1.385 . S
C7137 H7112 0.951 . S
C7137 C7135 1.388 . S
C7137 C7138 1.366 . S
C7138 C7137 1.366 . S
C7138 C7139 1.414 . S
C7138 C7141 1.499 . S
C7139 H7113 0.950 . S
C7139 C7138 1.414 . S
C7139 C7140 1.374 . S
C7140 H7114 0.950 . S
C7140 C7136 1.385 . S
C7140 C7139 1.374 . S
C7141 C7138 1.499 . S
C7141 C7142 1.373 . S
C7141 C7143 1.389 . S
C7142 H7115 0.950 . S
C7142 C7128 1.377 . S
C7142 C7141 1.373 . S
C7143 C7127 1.377 . S
C7143 C7141 1.389 . S
C7143 C7144 1.524 . S
C7144 C7143 1.524 . S
C7144 C7145 1.397 . S
C7144 C7149 1.363 . S
C7145 H7116 0.950 . S
C7145 C7144 1.397 . S
C7145 C7146 1.334 . S
C7146 H7117 0.950 . S
C7146 C7145 1.334 . S
C7146 C7147 1.287 . S
C7147 C7146 1.287 . S
C7147 C7148 1.524 . S
C7147 H7150 0.999 . S
C7148 H7118 0.950 . S
C7148 C7147 1.524 . S
C7148 C7149 1.415 . S
C7149 H7119 0.950 . S
C7149 C7144 1.363 . S
C7149 C7148 1.415 . S
H7150 C7147 0.999 . S
H7151 C7132 0.913 . S
H7152 C7170 0.951 . S
H7153 C7172 0.951 . S
H7154 C7174 0.950 . S
H7155 C7175 0.950 . S
H7156 C7177 0.950 . S
H7157 C7180 0.950 . S
H7158 C7181 0.950 . S
H7159 C7183 0.950 . S
H7160 C7184 0.950 . S
H7161 C7185 0.951 . S
H7162 C7187 0.951 . S
H7163 C7189 0.950 . S
H7164 C7190 0.950 . S
H7165 C7192 0.950 . S
H7166 C7195 0.950 . S
H7167 C7196 0.950 . S
H7168 C7198 0.950 . S
H7169 C7199 0.950 . S
C7170 H7152 0.951 . S
C7170 C7171 1.366 . S
C7170 C7172 1.388 . S
C7171 C7170 1.366 . S
C7171 C7175 1.385 . S
C7172 H7153 0.951 . S
C7172 C7170 1.388 . S
C7172 C7173 1.366 . S
C7173 C7172 1.366 . S
C7173 C7174 1.414 . S
C7173 C7176 1.499 . S
C7174 H7154 0.950 . S
C7174 C7173 1.414 . S
C7174 C7175 1.374 . S
C7175 H7155 0.950 . S
C7175 C7171 1.385 . S
C7175 C7174 1.374 . S
C7176 C7173 1.499 . S
C7176 C7177 1.373 . S
C7176 C7178 1.389 . S
C7177 H7156 0.950 . S
C7177 C7176 1.373 . S
C7177 C7193 1.377 . S
C7178 C7176 1.389 . S
C7178 C7179 1.524 . S
C7178 C7192 1.377 . S
C7179 C7178 1.524 . S
C7179 C7180 1.397 . S
C7179 C7184 1.363 . S
C7180 H7157 0.950 . S
C7180 C7179 1.397 . S
C7180 C7181 1.334 . S
C7181 H7158 0.950 . S
C7181 C7180 1.334 . S
C7181 C7182 1.287 . S
C7182 C7181 1.287 . S
C7182 C7183 1.524 . S
C7182 H7201 0.913 . S
C7183 H7159 0.950 . S
C7183 C7182 1.524 . S
C7183 C7184 1.415 . S
C7184 H7160 0.950 . S
C7184 C7179 1.363 . S
C7184 C7183 1.415 . S
C7185 H7161 0.951 . S
C7185 C7186 1.366 . S
C7185 C7187 1.388 . S
C7186 C7185 1.366 . S
C7186 C7190 1.385 . S
C7187 H7162 0.951 . S
C7187 C7185 1.388 . S
C7187 C7188 1.366 . S
C7188 C7187 1.366 . S
C7188 C7189 1.414 . S
C7188 C7191 1.499 . S
C7189 H7163 0.950 . S
C7189 C7188 1.414 . S
C7189 C7190 1.374 . S
C7190 H7164 0.950 . S
C7190 C7186 1.385 . S
C7190 C7189 1.374 . S
C7191 C7188 1.499 . S
C7191 C7192 1.373 . S
C7191 C7193 1.389 . S
C7192 H7165 0.950 . S
C7192 C7178 1.377 . S
C7192 C7191 1.373 . S
C7193 C7177 1.377 . S
C7193 C7191 1.389 . S
C7193 C7194 1.524 . S
C7194 C7193 1.524 . S
C7194 C7195 1.397 . S
C7194 C7199 1.363 . S
C7195 H7166 0.950 . S
C7195 C7194 1.397 . S
C7195 C7196 1.334 . S
C7196 H7167 0.950 . S
C7196 C7195 1.334 . S
C7196 C7197 1.287 . S
C7197 C7196 1.287 . S
C7197 C7198 1.524 . S
C7197 H7200 0.999 . S
C7198 H7168 0.950 . S
C7198 C7197 1.524 . S
C7198 C7199 1.415 . S
C7199 H7169 0.950 . S
C7199 C7194 1.363 . S
C7199 C7198 1.415 . S
H7200 C7197 0.999 . S
H7201 C7182 0.913 . S
H7202 C7220 0.951 . S
H7203 C7222 0.951 . S
H7204 C7224 0.950 . S
H7205 C7225 0.950 . S
H7206 C7227 0.950 . S
H7207 C7230 0.950 . S
H7208 C7231 0.950 . S
H7209 C7233 0.950 . S
H7210 C7234 0.950 . S
H7211 C7235 0.951 . S
H7212 C7237 0.951 . S
H7213 C7239 0.950 . S
H7214 C7240 0.950 . S
H7215 C7242 0.950 . S
H7216 C7245 0.950 . S
H7217 C7246 0.950 . S
H7218 C7248 0.950 . S
H7219 C7249 0.950 . S
C7220 H7202 0.951 . S
C7220 C7221 1.366 . S
C7220 C7222 1.388 . S
C7221 C7220 1.366 . S
C7221 C7225 1.385 . S
C7222 H7203 0.951 . S
C7222 C7220 1.388 . S
C7222 C7223 1.366 . S
C7223 C7222 1.366 . S
C7223 C7224 1.414 . S
C7223 C7226 1.499 . S
C7224 H7204 0.950 . S
C7224 C7223 1.414 . S
C7224 C7225 1.374 . S
C7225 H7205 0.950 . S
C7225 C7221 1.385 . S
C7225 C7224 1.374 . S
C7226 C7223 1.499 . S
C7226 C7227 1.373 . S
C7226 C7228 1.389 . S
C7227 H7206 0.950 . S
C7227 C7226 1.373 . S
C7227 C7243 1.377 . S
C7228 C7226 1.389 . S
C7228 C7229 1.524 . S
C7228 C7242 1.377 . S
C7229 C7228 1.524 . S
C7229 C7230 1.397 . S
C7229 C7234 1.363 . S
C7230 H7207 0.950 . S
C7230 C7229 1.397 . S
C7230 C7231 1.334 . S
C7231 H7208 0.950 . S
C7231 C7230 1.334 . S
C7231 C7232 1.287 . S
C7232 C7231 1.287 . S
C7232 C7233 1.524 . S
C7232 H7251 0.913 . S
C7233 H7209 0.950 . S
C7233 C7232 1.524 . S
C7233 C7234 1.415 . S
C7234 H7210 0.950 . S
C7234 C7229 1.363 . S
C7234 C7233 1.415 . S
C7235 H7211 0.951 . S
C7235 C7236 1.366 . S
C7235 C7237 1.388 . S
C7236 C7235 1.366 . S
C7236 C7240 1.385 1_545 S
C7237 H7212 0.951 . S
C7237 C7235 1.388 . S
C7237 C7238 1.366 1_545 S
C7238 C7237 1.366 1_565 S
C7238 C7239 1.414 . S
C7238 C7241 1.499 . S
C7239 H7213 0.950 . S
C7239 C7238 1.414 . S
C7239 C7240 1.374 . S
C7240 H7214 0.950 . S
C7240 C7236 1.385 1_565 S
C7240 C7239 1.374 . S
C7241 C7238 1.499 . S
C7241 C7242 1.373 . S
C7241 C7243 1.389 . S
C7242 H7215 0.950 . S
C7242 C7228 1.377 . S
C7242 C7241 1.373 . S
C7243 C7227 1.377 . S
C7243 C7241 1.389 . S
C7243 C7244 1.524 . S
C7244 C7243 1.524 . S
C7244 C7245 1.397 . S
C7244 C7249 1.363 1_565 S
C7245 H7216 0.950 . S
C7245 C7244 1.397 . S
C7245 C7246 1.334 1_565 S
C7246 H7217 0.950 . S
C7246 C7245 1.334 1_545 S
C7246 C7247 1.287 . S
C7247 C7246 1.287 . S
C7247 C7248 1.524 . S
C7247 H7250 0.999 . S
C7248 H7218 0.950 . S
C7248 C7247 1.524 . S
C7248 C7249 1.415 . S
C7249 H7219 0.950 . S
C7249 C7244 1.363 1_545 S
C7249 C7248 1.415 . S
H7250 C7247 0.999 . S
H7251 C7232 0.913 . S
H7252 C7270 0.951 . S
H7253 C7272 0.951 . S
H7254 C7274 0.950 . S
H7255 C7275 0.950 . S
H7256 C7277 0.950 . S
H7257 C7280 0.950 . S
H7258 C7281 0.950 . S
H7259 C7283 0.950 . S
H7260 C7284 0.950 . S
H7261 C7285 0.951 . S
H7262 C7287 0.951 . S
H7263 C7289 0.950 . S
H7264 C7290 0.950 . S
H7265 C7292 0.950 . S
H7266 C7295 0.950 . S
H7267 C7296 0.950 . S
H7268 C7298 0.950 . S
H7269 C7299 0.950 . S
C7270 H7252 0.951 . S
C7270 C7271 1.366 . S
C7270 C7272 1.388 . S
C7271 C7270 1.366 . S
C7271 C7275 1.385 . S
C7272 H7253 0.951 . S
C7272 C7270 1.388 . S
C7272 C7273 1.366 . S
C7273 C7272 1.366 . S
C7273 C7274 1.414 . S
C7273 C7276 1.499 . S
C7274 H7254 0.950 . S
C7274 C7273 1.414 . S
C7274 C7275 1.374 . S
C7275 H7255 0.950 . S
C7275 C7271 1.385 . S
C7275 C7274 1.374 . S
C7276 C7273 1.499 . S
C7276 C7277 1.373 . S
C7276 C7278 1.389 . S
C7277 H7256 0.950 . S
C7277 C7276 1.373 . S
C7277 C7293 1.377 . S
C7278 C7276 1.389 . S
C7278 C7279 1.524 . S
C7278 C7292 1.377 . S
C7279 C7278 1.524 . S
C7279 C7280 1.397 . S
C7279 C7284 1.363 . S
C7280 H7257 0.950 . S
C7280 C7279 1.397 . S
C7280 C7281 1.334 . S
C7281 H7258 0.950 . S
C7281 C7280 1.334 . S
C7281 C7282 1.287 . S
C7282 C7281 1.287 . S
C7282 C7283 1.524 . S
C7282 H7301 0.913 . S
C7283 H7259 0.950 . S
C7283 C7282 1.524 . S
C7283 C7284 1.415 . S
C7284 H7260 0.950 . S
C7284 C7279 1.363 . S
C7284 C7283 1.415 . S
C7285 H7261 0.951 . S
C7285 C7286 1.366 . S
C7285 C7287 1.388 . S
C7286 C7285 1.366 . S
C7286 C7290 1.385 . S
C7287 H7262 0.951 . S
C7287 C7285 1.388 . S
C7287 C7288 1.366 . S
C7288 C7287 1.366 . S
C7288 C7289 1.414 . S
C7288 C7291 1.499 . S
C7289 H7263 0.950 . S
C7289 C7288 1.414 . S
C7289 C7290 1.374 . S
C7290 H7264 0.950 . S
C7290 C7286 1.385 . S
C7290 C7289 1.374 . S
C7291 C7288 1.499 . S
C7291 C7292 1.373 . S
C7291 C7293 1.389 . S
C7292 H7265 0.950 . S
C7292 C7278 1.377 . S
C7292 C7291 1.373 . S
C7293 C7277 1.377 . S
C7293 C7291 1.389 . S
C7293 C7294 1.524 . S
C7294 C7293 1.524 . S
C7294 C7295 1.397 . S
C7294 C7299 1.363 . S
C7295 H7266 0.950 . S
C7295 C7294 1.397 . S
C7295 C7296 1.334 . S
C7296 H7267 0.950 . S
C7296 C7295 1.334 . S
C7296 C7297 1.287 . S
C7297 C7296 1.287 . S
C7297 C7298 1.524 . S
C7297 H7300 0.999 . S
C7298 H7268 0.950 . S
C7298 C7297 1.524 . S
C7298 C7299 1.415 . S
C7299 H7269 0.950 . S
C7299 C7294 1.363 . S
C7299 C7298 1.415 . S
H7300 C7297 0.999 . S
H7301 C7282 0.913 . S
H7302 C7320 0.958 . S
H7303 C7322 0.951 . S
H7304 C7324 0.950 . S
H7305 C7325 0.950 . S
H7306 C7327 0.950 . S
H7307 C7330 0.950 . S
H7308 C7331 0.950 . S
H7309 C7333 0.950 . S
H7310 C7334 0.950 . S
H7311 C7335 0.951 1_556 S
H7312 C7337 0.926 1_556 S
H7313 C7339 0.950 . S
H7314 C7340 0.950 . S
H7315 C7342 0.950 . S
H7316 C7345 0.950 . S
H7317 C7346 0.950 . S
H7318 C7348 0.950 . S
H7319 C7349 0.950 . S
C7320 H7302 0.958 . S
C7320 C7321 1.354 1_554 S
C7320 C7322 1.393 . S
C7321 C7320 1.354 1_556 S
C7321 C7325 1.385 . S
C7322 H7303 0.951 . S
C7322 C7320 1.393 . S
C7322 C7323 1.366 1_554 S
C7323 C7322 1.366 1_556 S
C7323 C7324 1.414 . S
C7323 C7326 1.499 . S
C7324 H7304 0.950 . S
C7324 C7323 1.414 . S
C7324 C7325 1.374 . S
C7325 H7305 0.950 . S
C7325 C7321 1.385 . S
C7325 C7324 1.374 . S
C7326 C7323 1.499 . S
C7326 C7327 1.373 1_556 S
C7326 C7328 1.389 . S
C7327 H7306 0.950 . S
C7327 C7326 1.373 1_554 S
C7327 C7343 1.377 . S
C7328 C7326 1.389 . S
C7328 C7329 1.524 . S
C7328 C7342 1.377 . S
C7329 C7328 1.524 . S
C7329 C7330 1.397 . S
C7329 C7334 1.363 . S
C7330 H7307 0.950 . S
C7330 C7329 1.397 . S
C7330 C7331 1.334 . S
C7331 H7308 0.950 . S
C7331 C7330 1.334 . S
C7331 C7332 1.287 . S
C7332 C7331 1.287 . S
C7332 C7333 1.524 . S
C7332 H7351 0.913 . S
C7333 H7309 0.950 . S
C7333 C7332 1.524 . S
C7333 C7334 1.415 . S
C7334 H7310 0.950 . S
C7334 C7329 1.363 . S
C7334 C7333 1.415 . S
C7335 H7311 0.951 1_554 S
C7335 C7336 1.366 . S
C7335 C7337 1.399 . S
C7336 C7335 1.366 . S
C7336 C7340 1.385 . S
C7337 H7312 0.926 1_554 S
C7337 C7335 1.399 . S
C7337 C7338 1.381 . S
C7338 C7337 1.381 . S
C7338 C7339 1.414 . S
C7338 C7341 1.499 . S
C7339 H7313 0.950 . S
C7339 C7338 1.414 . S
C7339 C7340 1.374 . S
C7340 H7314 0.950 . S
C7340 C7336 1.385 . S
C7340 C7339 1.374 . S
C7341 C7338 1.499 . S
C7341 C7342 1.373 1_554 S
C7341 C7343 1.389 . S
C7342 H7315 0.950 . S
C7342 C7328 1.377 . S
C7342 C7341 1.373 1_556 S
C7343 C7327 1.377 . S
C7343 C7341 1.389 . S
C7343 C7344 1.524 . S
C7344 C7343 1.524 . S
C7344 C7345 1.397 . S
C7344 C7349 1.363 . S
C7345 H7316 0.950 . S
C7345 C7344 1.397 . S
C7345 C7346 1.334 . S
C7346 H7317 0.950 . S
C7346 C7345 1.334 . S
C7346 C7347 1.287 . S
C7347 C7346 1.287 . S
C7347 C7348 1.524 . S
C7347 H7350 0.999 . S
C7348 H7318 0.950 . S
C7348 C7347 1.524 . S
C7348 C7349 1.415 . S
C7349 H7319 0.950 . S
C7349 C7344 1.363 . S
C7349 C7348 1.415 . S
H7350 C7347 0.999 . S
H7351 C7332 0.913 . S
H7352 C7370 0.951 . S
H7353 C7372 0.951 . S
H7354 C7374 0.950 . S
H7355 C7375 0.950 . S
H7356 C7377 0.950 . S
H7357 C7380 0.950 . S
H7358 C7381 0.950 . S
H7359 C7383 0.950 . S
H7360 C7384 0.950 . S
H7361 C7385 0.951 . S
H7362 C7387 0.951 . S
H7363 C7389 0.950 . S
H7364 C7390 0.950 . S
H7365 C7392 0.950 . S
H7366 C7395 0.950 . S
H7367 C7396 0.950 . S
H7368 C7398 0.950 . S
H7369 C7399 0.950 . S
C7370 H7352 0.951 . S
C7370 C7371 1.366 . S
C7370 C7372 1.388 . S
C7371 C7370 1.366 . S
C7371 C7375 1.385 . S
C7372 H7353 0.951 . S
C7372 C7370 1.388 . S
C7372 C7373 1.366 . S
C7373 C7372 1.366 . S
C7373 C7374 1.414 . S
C7373 C7376 1.499 . S
C7374 H7354 0.950 . S
C7374 C7373 1.414 . S
C7374 C7375 1.374 . S
C7375 H7355 0.950 . S
C7375 C7371 1.385 . S
C7375 C7374 1.374 . S
C7376 C7373 1.499 . S
C7376 C7377 1.373 . S
C7376 C7378 1.389 . S
C7377 H7356 0.950 . S
C7377 C7376 1.373 . S
C7377 C7393 1.377 . S
C7378 C7376 1.389 . S
C7378 C7379 1.524 . S
C7378 C7392 1.377 . S
C7379 C7378 1.524 . S
C7379 C7380 1.397 . S
C7379 C7384 1.363 . S
C7380 H7357 0.950 . S
C7380 C7379 1.397 . S
C7380 C7381 1.334 . S
C7381 H7358 0.950 . S
C7381 C7380 1.334 . S
C7381 C7382 1.287 . S
C7382 C7381 1.287 . S
C7382 C7383 1.524 . S
C7382 H7401 0.913 . S
C7383 H7359 0.950 . S
C7383 C7382 1.524 . S
C7383 C7384 1.415 . S
C7384 H7360 0.950 . S
C7384 C7379 1.363 . S
C7384 C7383 1.415 . S
C7385 H7361 0.951 . S
C7385 C7386 1.366 . S
C7385 C7387 1.388 . S
C7386 C7385 1.366 . S
C7386 C7390 1.385 . S
C7387 H7362 0.951 . S
C7387 C7385 1.388 . S
C7387 C7388 1.366 . S
C7388 C7387 1.366 . S
C7388 C7389 1.414 . S
C7388 C7391 1.499 . S
C7389 H7363 0.950 . S
C7389 C7388 1.414 . S
C7389 C7390 1.374 . S
C7390 H7364 0.950 . S
C7390 C7386 1.385 . S
C7390 C7389 1.374 . S
C7391 C7388 1.499 . S
C7391 C7392 1.373 . S
C7391 C7393 1.389 . S
C7392 H7365 0.950 . S
C7392 C7378 1.377 . S
C7392 C7391 1.373 . S
C7393 C7377 1.377 . S
C7393 C7391 1.389 . S
C7393 C7394 1.524 . S
C7394 C7393 1.524 . S
C7394 C7395 1.397 . S
C7394 C7399 1.363 . S
C7395 H7366 0.950 . S
C7395 C7394 1.397 . S
C7395 C7396 1.334 . S
C7396 H7367 0.950 . S
C7396 C7395 1.334 . S
C7396 C7397 1.287 . S
C7397 C7396 1.287 . S
C7397 C7398 1.524 . S
C7397 H7400 0.999 . S
C7398 H7368 0.950 . S
C7398 C7397 1.524 . S
C7398 C7399 1.415 . S
C7399 H7369 0.950 . S
C7399 C7394 1.363 . S
C7399 C7398 1.415 . S
H7400 C7397 0.999 . S
H7401 C7382 0.913 . S
H7402 C7420 0.951 1_556 S
H7403 C7422 0.949 . S
H7404 C7424 0.950 . S
H7405 C7425 0.950 . S
H7406 C7427 0.950 . S
H7407 C7430 0.950 . S
H7408 C7431 0.950 . S
H7409 C7433 0.950 . S
H7410 C7434 0.950 . S
H7411 C7435 0.953 1_554 S
H7412 C7437 0.951 . S
H7413 C7439 0.950 . S
H7414 C7440 0.950 . S
H7415 C7442 0.950 . S
H7416 C7445 0.950 . S
H7417 C7446 0.950 . S
H7418 C7448 0.950 . S
H7419 C7449 0.950 . S
C7420 H7402 0.951 1_554 S
C7420 C7421 1.366 . S
C7420 C7422 1.388 1_554 S
C7421 C7420 1.366 . S
C7421 C7425 1.385 . S
C7422 H7403 0.949 . S
C7422 C7420 1.388 1_556 S
C7422 C7423 1.366 1_556 S
C7423 C7422 1.366 1_554 S
C7423 C7424 1.414 . S
C7423 C7426 1.499 . S
C7424 H7404 0.950 . S
C7424 C7423 1.414 . S
C7424 C7425 1.374 . S
C7425 H7405 0.950 . S
C7425 C7421 1.385 . S
C7425 C7424 1.374 . S
C7426 C7423 1.499 . S
C7426 C7427 1.373 . S
C7426 C7428 1.389 1_554 S
C7427 H7406 0.950 . S
C7427 C7426 1.373 . S
C7427 C7443 1.377 . S
C7428 C7426 1.389 1_556 S
C7428 C7429 1.524 . S
C7428 C7442 1.377 . S
C7429 C7428 1.524 . S
C7429 C7430 1.397 . S
C7429 C7434 1.363 . S
C7430 H7407 0.950 . S
C7430 C7429 1.397 . S
C7430 C7431 1.334 . S
C7431 H7408 0.950 . S
C7431 C7430 1.334 . S
C7431 C7432 1.287 . S
C7432 C7431 1.287 . S
C7432 C7433 1.524 . S
C7432 H7451 0.913 . S
C7433 H7409 0.950 . S
C7433 C7432 1.524 . S
C7433 C7434 1.415 . S
C7434 H7410 0.950 . S
C7434 C7429 1.363 . S
C7434 C7433 1.415 . S
C7435 H7411 0.953 1_556 S
C7435 C7436 1.363 . S
C7435 C7437 1.389 1_556 S
C7436 C7435 1.363 . S
C7436 C7440 1.385 . S
C7437 H7412 0.951 . S
C7437 C7435 1.389 1_554 S
C7437 C7438 1.366 1_554 S
C7438 C7437 1.366 1_556 S
C7438 C7439 1.414 . S
C7438 C7441 1.499 . S
C7439 H7413 0.950 . S
C7439 C7438 1.414 . S
C7439 C7440 1.374 . S
C7440 H7414 0.950 . S
C7440 C7436 1.385 . S
C7440 C7439 1.374 . S
C7441 C7438 1.499 . S
C7441 C7442 1.373 . S
C7441 C7443 1.389 1_556 S
C7442 H7415 0.950 . S
C7442 C7428 1.377 . S
C7442 C7441 1.373 . S
C7443 C7427 1.377 . S
C7443 C7441 1.389 1_554 S
C7443 C7444 1.524 . S
C7444 C7443 1.524 . S
C7444 C7445 1.397 . S
C7444 C7449 1.363 . S
C7445 H7416 0.950 . S
C7445 C7444 1.397 . S
C7445 C7446 1.334 . S
C7446 H7417 0.950 . S
C7446 C7445 1.334 . S
C7446 C7447 1.287 . S
C7447 C7446 1.287 . S
C7447 C7448 1.524 . S
C7447 H7450 0.999 . S
C7448 H7418 0.950 . S
C7448 C7447 1.524 . S
C7448 C7449 1.415 . S
C7449 H7419 0.950 . S
C7449 C7444 1.363 . S
C7449 C7448 1.415 . S
H7450 C7447 0.999 . S
H7451 C7432 0.913 . S
H7452 C7470 0.951 . S
H7453 C7472 0.951 . S
H7454 C7474 0.950 . S
H7455 C7475 0.950 . S
H7456 C7477 0.950 . S
H7457 C7480 0.950 . S
H7458 C7481 0.950 . S
H7459 C7483 0.950 . S
H7460 C7484 0.950 . S
H7461 C7485 0.951 . S
H7462 C7487 0.951 . S
H7463 C7489 0.950 . S
H7464 C7490 0.950 . S
H7465 C7492 0.950 . S
H7466 C7495 0.950 . S
H7467 C7496 0.950 . S
H7468 C7498 0.950 . S
H7469 C7499 0.950 . S
C7470 H7452 0.951 . S
C7470 C7471 1.366 . S
C7470 C7472 1.388 . S
C7471 C7470 1.366 . S
C7471 C7475 1.385 . S
C7472 H7453 0.951 . S
C7472 C7470 1.388 . S
C7472 C7473 1.366 . S
C7473 C7472 1.366 . S
C7473 C7474 1.414 . S
C7473 C7476 1.499 . S
C7474 H7454 0.950 . S
C7474 C7473 1.414 . S
C7474 C7475 1.374 . S
C7475 H7455 0.950 . S
C7475 C7471 1.385 . S
C7475 C7474 1.374 . S
C7476 C7473 1.499 . S
C7476 C7477 1.373 . S
C7476 C7478 1.389 . S
C7477 H7456 0.950 . S
C7477 C7476 1.373 . S
C7477 C7493 1.377 . S
C7478 C7476 1.389 . S
C7478 C7479 1.524 . S
C7478 C7492 1.377 . S
C7479 C7478 1.524 . S
C7479 C7480 1.397 . S
C7479 C7484 1.363 . S
C7480 H7457 0.950 . S
C7480 C7479 1.397 . S
C7480 C7481 1.334 . S
C7481 H7458 0.950 . S
C7481 C7480 1.334 . S
C7481 C7482 1.287 . S
C7482 C7481 1.287 . S
C7482 C7483 1.524 . S
C7482 H7501 0.913 . S
C7483 H7459 0.950 . S
C7483 C7482 1.524 . S
C7483 C7484 1.415 . S
C7484 H7460 0.950 . S
C7484 C7479 1.363 . S
C7484 C7483 1.415 . S
C7485 H7461 0.951 . S
C7485 C7486 1.366 . S
C7485 C7487 1.388 . S
C7486 C7485 1.366 . S
C7486 C7490 1.385 . S
C7487 H7462 0.951 . S
C7487 C7485 1.388 . S
C7487 C7488 1.366 . S
C7488 C7487 1.366 . S
C7488 C7489 1.414 . S
C7488 C7491 1.499 . S
C7489 H7463 0.950 . S
C7489 C7488 1.414 . S
C7489 C7490 1.374 . S
C7490 H7464 0.950 . S
C7490 C7486 1.385 . S
C7490 C7489 1.374 . S
C7491 C7488 1.499 . S
C7491 C7492 1.373 . S
C7491 C7493 1.389 . S
C7492 H7465 0.950 . S
C7492 C7478 1.377 . S
C7492 C7491 1.373 . S
C7493 C7477 1.377 . S
C7493 C7491 1.389 . S
C7493 C7494 1.524 . S
C7494 C7493 1.524 . S
C7494 C7495 1.397 . S
C7494 C7499 1.363 . S
C7495 H7466 0.950 . S
C7495 C7494 1.397 . S
C7495 C7496 1.334 . S
C7496 H7467 0.950 . S
C7496 C7495 1.334 . S
C7496 C7497 1.287 . S
C7497 C7496 1.287 . S
C7497 C7498 1.524 . S
C7497 H7500 0.999 . S
C7498 H7468 0.950 . S
C7498 C7497 1.524 . S
C7498 C7499 1.415 . S
C7499 H7469 0.950 . S
C7499 C7494 1.363 . S
C7499 C7498 1.415 . S
H7500 C7497 0.999 . S
H7501 C7482 0.913 . S
H7502 C7520 0.951 . S
H7503 C7522 0.951 . S
H7504 C7524 0.950 . S
H7505 C7525 0.950 . S
H7506 C7527 0.950 . S
H7507 C7530 0.950 . S
H7508 C7531 0.950 . S
H7509 C7533 0.950 . S
H7510 C7534 0.950 . S
H7511 C7535 0.951 . S
H7512 C7537 0.951 . S
H7513 C7539 0.950 . S
H7514 C7540 0.950 . S
H7515 C7542 0.950 . S
H7516 C7545 0.950 . S
H7517 C7546 0.950 . S
H7518 C7548 0.950 . S
H7519 C7549 0.950 . S
C7520 H7502 0.951 . S
C7520 C7521 1.366 . S
C7520 C7522 1.388 . S
C7521 C7520 1.366 . S
C7521 C7525 1.385 . S
C7522 H7503 0.951 . S
C7522 C7520 1.388 . S
C7522 C7523 1.366 . S
C7523 C7522 1.366 . S
C7523 C7524 1.414 . S
C7523 C7526 1.499 . S
C7524 H7504 0.950 . S
C7524 C7523 1.414 . S
C7524 C7525 1.374 . S
C7525 H7505 0.950 . S
C7525 C7521 1.385 . S
C7525 C7524 1.374 . S
C7526 C7523 1.499 . S
C7526 C7527 1.373 . S
C7526 C7528 1.389 . S
C7527 H7506 0.950 . S
C7527 C7526 1.373 . S
C7527 C7543 1.377 . S
C7528 C7526 1.389 . S
C7528 C7529 1.524 . S
C7528 C7542 1.377 . S
C7529 C7528 1.524 . S
C7529 C7530 1.397 . S
C7529 C7534 1.363 . S
C7530 H7507 0.950 . S
C7530 C7529 1.397 . S
C7530 C7531 1.334 . S
C7531 H7508 0.950 . S
C7531 C7530 1.334 . S
C7531 C7532 1.287 . S
C7532 C7531 1.287 . S
C7532 C7533 1.524 . S
C7532 H7551 0.913 . S
C7533 H7509 0.950 . S
C7533 C7532 1.524 . S
C7533 C7534 1.415 . S
C7534 H7510 0.950 . S
C7534 C7529 1.363 . S
C7534 C7533 1.415 . S
C7535 H7511 0.951 . S
C7535 C7536 1.366 . S
C7535 C7537 1.388 . S
C7536 C7535 1.366 . S
C7536 C7540 1.385 . S
C7537 H7512 0.951 . S
C7537 C7535 1.388 . S
C7537 C7538 1.366 . S
C7538 C7537 1.366 . S
C7538 C7539 1.414 . S
C7538 C7541 1.499 . S
C7539 H7513 0.950 . S
C7539 C7538 1.414 . S
C7539 C7540 1.374 . S
C7540 H7514 0.950 . S
C7540 C7536 1.385 . S
C7540 C7539 1.374 . S
C7541 C7538 1.499 . S
C7541 C7542 1.373 . S
C7541 C7543 1.389 . S
C7542 H7515 0.950 . S
C7542 C7528 1.377 . S
C7542 C7541 1.373 . S
C7543 C7527 1.377 . S
C7543 C7541 1.389 . S
C7543 C7544 1.524 . S
C7544 C7543 1.524 . S
C7544 C7545 1.397 . S
C7544 C7549 1.363 . S
C7545 H7516 0.950 . S
C7545 C7544 1.397 . S
C7545 C7546 1.334 . S
C7546 H7517 0.950 . S
C7546 C7545 1.334 . S
C7546 C7547 1.287 . S
C7547 C7546 1.287 . S
C7547 C7548 1.524 . S
C7547 H7550 0.999 . S
C7548 H7518 0.950 . S
C7548 C7547 1.524 . S
C7548 C7549 1.415 . S
C7549 H7519 0.950 . S
C7549 C7544 1.363 . S
C7549 C7548 1.415 . S
H7550 C7547 0.999 . S
H7551 C7532 0.913 . S
C2771 C665 2.057 . S
C2786 C2114 2.067 . S
C2821 C381 1.997 . S
C2836 C2171 1.992 . S
C2871 C460 0.904 . S
C2886 C2194 0.911 . S
C2936 C2248 1.419 . S
C2921 C585 1.434 . S
C2971 C108 1.163 . S
C2986 C2288 1.140 . S
C3036 C2319 0.121 . S
C3021 C196 0.239 . S
C3086 C2371 1.047 . S
C3071 C313 1.042 . S
C3121 C49 1.558 . S
C3136 C2394 1.540 . S
C3186 C2131 2.331 . S
C3171 C1457 2.354 . S
C3221 C1545 0.146 . S
C3236 C2168 0.373 . S
C3286 C2211 1.365 . S
C3271 C1721 1.382 . S
C3336 C2234 1.195 . S
C3321 C1113 1.168 . S
C3371 C1428 1.689 . S
C3386 C2274 1.717 . S
C3436 C2322 1.444 . S
C3421 C1516 1.472 . S
C3486 C2368 0.371 . S
C3471 C1692 0.204 . S
C3536 C2411 1.855 . S
C3521 C1085 1.879 . S
C3586 C2128 1.401 1_565 S
C3571 C988 1.421 . S
C3621 C1817 2.004 . S
C3636 C2451 1.990 . S
C3686 C2483 2.464 . S
C3671 C2081 2.509 . S
C3736 C2514 0.355 1_655 S
C3721 C1993 0.393 . S
C3771 C761 1.161 . S
C3786 C2408 1.139 . S
C3821 C821 1.435 . S
C3836 C2208 1.411 . S
C3871 C2053 2.347 . S
C3886 C2571 2.317 . S
C3936 C2594 0.290 . S
C3921 C1868 0.240 . S
C3986 C2123 2.062 1_565 S
C3971 C372 2.055 . S
C4036 C2602 1.988 . S
C4021 C645 1.990 . S
C4071 C577 0.898 . S
C4086 C2203 0.905 . S
C4121 C497 1.431 . S
C4136 C2559 1.416 . S
C4186 C2279 1.137 . S
C4171 C57 1.163 . S
C4221 C293 0.228 . S
C4236 C2488 0.120 . S
C4286 C2362 1.043 1_566 S
C4271 C205 1.036 . S
C4336 C2643 1.536 . S
C4321 C145 1.563 . S
C4386 C2122 2.328 . S
C4371 C909 2.348 1_545 S
C4436 C2599 0.378 . S
C4421 C1956 0.130 . S
C4471 C724 1.377 . S
C4486 C2202 1.362 . S
C4521 C1780 1.163 . S
C4536 C2563 1.188 . S
C4571 C937 1.687 . S
C4586 C2283 1.707 . S
C4636 C2491 1.442 . S
C4621 C1985 1.469 . S
C4671 C753 0.196 . S
C4686 C2359 0.334 1_565 S
C4721 C1809 1.875 . S
C4736 C2642 1.851 . S
C4771 C1173 1.420 . S
C4786 C2119 1.398 . S
C4821 C1105 1.998 . S
C4836 C2442 1.986 . S
C4871 C1633 2.505 . S
C4886 C2314 2.460 . S
C4921 C1553 0.381 . S
C4936 C2523 0.346 . S
C4986 C2639 1.136 . S
C4971 C1729 1.160 . S
C5021 C1340 1.435 . S
C5036 C2199 1.409 . S
C5086 C2242 2.313 . S
C5071 C1604 2.341 . S
C5136 C2163 0.283 . S
C5121 C1252 0.228 . S
C5171 C489 2.056 . S
C5186 C2674 2.065 . S
C5236 C2611 1.992 . S
C5221 C557 1.997 . S
C5271 C636 0.903 . S
C5286 C2714 0.911 . S
C5321 C409 1.434 . S
C5336 C2568 1.419 . S
C5371 C284 1.163 . S
C5386 C2448 1.139 . S
C5436 C2479 0.118 . S
C5421 C20 0.239 . S
C5486 C2531 1.047 . S
C5471 C137 1.040 . S
C5536 C2634 1.540 . S
C5521 C225 1.558 . S
C5586 C2691 2.331 . S
C5571 C1641 2.354 . S
C5621 C1193 0.145 . S
C5636 C2608 0.373 . S
C5686 C2731 1.366 . S
C5671 C1289 1.382 . S
C5736 C2554 1.195 . S
C5721 C1377 1.168 . S
C5786 C2434 1.717 . S
C5771 C1613 1.689 . S
C5821 C1164 1.472 . S
C5836 C2482 1.444 . S
C5886 C2528 0.371 . S
C5871 C1261 0.204 . S
C5921 C1349 1.878 . S
C5936 C2651 1.854 . S
C5986 C2688 1.401 . S
C5971 C1965 1.421 . S
C6021 C849 2.004 . S
C6036 C2291 1.990 . S
C6086 C2323 2.465 . S
C6071 C929 2.517 . S
C6136 C2354 0.355 . S
C6121 C1017 0.392 . S
C6186 C2648 1.139 . S
C6171 C1897 1.161 . S
C6221 C1789 1.436 . S
C6236 C2728 1.412 . S
C6286 C2251 2.316 . S
C6271 C900 2.339 . S
C6336 C2154 0.290 . S
C6321 C733 0.240 . S
C6371 C548 2.055 . S
C6386 C2683 2.061 . S
C6436 C2162 1.989 . S
C6421 C469 1.990 . S
C6471 C401 0.896 . S
C6486 C2723 0.905 . S
C6521 C673 1.431 . S
C6536 C2239 1.416 . S
C6571 C233 1.163 . S
C6586 C2439 1.137 . S
C6636 C2328 0.118 . S
C6621 C117 0.232 . S
C6671 C29 1.035 . S
C6686 C2522 1.043 . S
C6721 C321 1.557 . S
C6736 C2403 1.536 . S
C6786 C2682 2.328 . S
C6771 C2044 2.349 . S
C6821 C997 0.130 . S
C6836 C2159 0.376 . S
C6886 C2722 1.361 . S
C6871 C1877 1.377 . S
C6921 C812 1.163 . S
C6936 C2243 1.188 . S
C6971 C2073 1.688 . S
C6986 C2443 1.711 . S
C7036 C2331 1.440 . S
C7021 C1025 1.468 . S
C7071 C1905 0.197 . S
C7086 C2519 0.374 . S
C7136 C2402 1.850 . S
C7121 C841 1.875 . S
C7186 C2679 1.398 . S
C7171 C1525 1.420 . S
C7236 C2282 1.987 1_655 S
C7221 C1369 1.998 . S
C7271 C1465 2.505 . S
C7286 C2474 2.460 . S
C7336 C2363 0.346 . S
C7321 C1201 0.381 . S
C7371 C1281 1.160 . S
C7386 C2399 1.136 . S
C7421 C1076 1.435 . S
C7436 C2719 1.410 . S
C7486 C2562 2.313 . S
C7471 C1437 2.341 . S
C7536 C2603 0.287 . S
C7521 C1701 0.227 . S
