# Generated by pormake.
# Topology bcu-b, (8,8)-cn, num edge types: 1
# Building blocks:
#     Node 0, Type 0, BuildingBlock: VETTIZ_charged_sbu_0, # of connection points: 8
#     Node 1, Type 1, BuildingBlock: VETTIZ_charged_sbu_0, # of connection points: 8
#     Edge 2, Type (0, 1), BuildingBlock: FUNLAD_clean_linker_1, # of connection points: 2
#     Edge 3, Type (0, 1), BuildingBlock: FUNLAD_clean_linker_1, # of connection points: 2
#     Edge 4, Type (0, 1), BuildingBlock: FUNLAD_clean_linker_1, # of connection points: 2
#     Edge 5, Type (0, 1), BuildingBlock: FUNLAD_clean_linker_1, # of connection points: 2
#     Edge 6, Type (0, 1), BuildingBlock: FUNLAD_clean_linker_1, # of connection points: 2
#     Edge 7, Type (0, 1), BuildingBlock: FUNLAD_clean_linker_1, # of connection points: 2
#     Edge 8, Type (0, 1), BuildingBlock: FUNLAD_clean_linker_1, # of connection points: 2
#     Edge 9, Type (0, 1), BuildingBlock: FUNLAD_clean_linker_1, # of connection points: 2
# Relax obj value: 0.000
# Max RMSD: 0.009
# Mean RMSD: 0.009
data_MOF--net-bcu-b--node1-VETTIZ_charged_sbu_0--node2-VETTIZ_charged_sbu_0--edge1-FUNLAD_clean_linker_1
_symmetry_space_group_name_H-M    P1
_symmetry_Int_Tables_number       1
_symmetry_cell_setting            triclinic
loop_
_symmetry_equiv_pos_as_xyz
'x, y, z'
_cell_length_a     19.982095
_cell_length_b     20.839293
_cell_length_c     20.087071
_cell_angle_alpha  90.124416
_cell_angle_beta   90.405116
_cell_angle_gamma 89.593088
loop_
_atom_site_label
_atom_site_type_symbol
_atom_site_fract_x
_atom_site_fract_y
_atom_site_fract_z
_atom_type_partial_charge
Fe0 Fe 1.0203 0.92944 0.03232 0.0
O1 O 0.96787 0.99943 0.07636 0.0
Fe2 Fe 0.06169 1.00076 0.88015 0.0
Fe3 Fe 0.96053 0.00781 0.17336 0.0
O4 O 0.05807 1.00083 0.9781 0.0
O5 O 0.05725 0.00691 0.97759 0.0
O6 O 0.96783 0.00583 0.07635 0.0
Fe7 Fe 1.00797 0.07726 0.02444 0.0
C8 C 0.92189 0.8718 0.13611 0.0
O9 O 0.09769 0.93852 0.1 0.0
O10 O 0.03822 0.94486 0.19338 0.0
O11 O 0.0573 0.14303 0.96226 0.0
O12 O 0.12229 0.07959 0.8932 0.0
O13 O 0.13155 0.92923 0.8978 0.0
O14 O 0.08262 0.86582 0.97847 0.0
O15 O 0.026 0.08311 0.18496 0.0
O16 O 0.0861 0.08618 0.09183 0.0
C17 C 0.12692 0.87682 0.93243 0.0
O18 O 0.92926 0.0722 0.95856 0.0
O19 O 0.98492 0.0662 0.86315 0.0
O20 O 0.97174 0.86356 0.09518 0.0
O21 O 0.90299 0.92682 0.16067 0.0
C22 C 0.0922 0.93199 0.16272 0.0
C23 C 0.07853 0.0984 0.15352 0.0
C24 C 0.90138 0.13212 0.12247 0.0
O25 O 0.88996 0.07769 0.15176 0.0
O26 O 0.94962 0.1421 0.08043 0.0
C27 C 0.10565 0.13434 0.91977 0.0
O28 O 0.99317 0.92807 0.86814 0.0
O29 O 0.9427 0.91624 0.96611 0.0
C30 C 0.93229 0.0796 0.89599 0.0
C31 C 0.94414 0.90966 0.90326 0.0
Fe32 Fe 0.50813 0.58036 0.52461 0.0
O33 O 0.4527 0.51014 0.48537 0.0
Fe34 Fe 0.65873 0.5035 0.56226 0.0
Fe35 Fe 0.35465 0.50773 0.48757 0.0
O36 O 0.56034 0.50853 0.56629 0.0
O37 O 0.56048 0.50199 0.5658 0.0
O38 O 0.45263 0.50432 0.48532 0.0
Fe39 Fe 0.50707 0.43226 0.523 0.0
C40 C 0.3849 0.59361 0.60925 0.0
O41 O 0.44662 0.64616 0.47332 0.0
O42 O 0.36495 0.5842 0.42271 0.0
O43 O 0.56559 0.43324 0.43963 0.0
O44 O 0.66594 0.43476 0.48824 0.0
O45 O 0.66752 0.57286 0.49 0.0
O46 O 0.56739 0.57896 0.4412 0.0
O47 O 0.36473 0.43321 0.42006 0.0
O48 O 0.44411 0.36837 0.4711 0.0
C49 C 0.63039 0.58647 0.44021 0.0
O50 O 0.57196 0.36516 0.56928 0.0
O51 O 0.6484 0.42722 0.62684 0.0
O52 O 0.44829 0.58673 0.60778 0.0
O53 O 0.34671 0.5758 0.56179 0.0
C54 C 0.39857 0.63709 0.43012 0.0
C55 C 0.39687 0.3791 0.42728 0.0
C56 C 0.38502 0.42033 0.60754 0.0
O57 O 0.34655 0.43719 0.55963 0.0
O58 O 0.44802 0.42791 0.60602 0.0
C59 C 0.62823 0.42318 0.43832 0.0
O60 O 0.64982 0.5794 0.62808 0.0
O61 O 0.57396 0.64465 0.57241 0.0
C62 C 0.61912 0.37298 0.61381 0.0
C63 C 0.62119 0.63466 0.61649 0.0
H64 H 0.10999 0.16164 0.23465 0.0
C65 C 0.12782 0.13718 0.1902 0.0
H66 H 0.21172 0.11766 0.13001 0.0
H67 H 0.36035 0.37091 0.22649 0.0
H68 H 0.35697 0.38382 0.10643 0.0
H69 H 0.29896 0.30508 0.03504 0.0
H70 H 0.24477 0.21254 0.08306 0.0
C71 C 0.19277 0.1416 0.17419 0.0
C72 C 0.23837 0.18235 0.21559 0.0
C73 C 0.27036 0.23582 0.18657 0.0
C74 C 0.30261 0.28199 0.2279 0.0
C75 C 0.33409 0.33503 0.19756 0.0
C76 C 0.33273 0.34292 0.1287 0.0
C77 C 0.30014 0.29854 0.0885 0.0
C78 C 0.26918 0.24558 0.11679 0.0
H79 H 0.40388 0.27959 0.38847 0.0
C80 C 0.37701 0.3249 0.38375 0.0
H81 H 0.29917 0.37524 0.33439 0.0
H82 H 0.19934 0.07654 0.28548 0.0
H83 H 0.19635 0.06613 0.4058 0.0
H84 H 0.23967 0.15208 0.47834 0.0
H85 H 0.28726 0.24809 0.43152 0.0
C86 C 0.32514 0.32965 0.34077 0.0
C87 C 0.30189 0.2753 0.29823 0.0
C88 C 0.27269 0.22009 0.32707 0.0
C89 C 0.24353 0.17236 0.28543 0.0
C90 C 0.2184 0.11592 0.31508 0.0
C91 C 0.21708 0.109 0.38397 0.0
C92 C 0.24175 0.15727 0.42481 0.0
C93 C 0.2694 0.21215 0.39706 0.0
H94 H 0.88504 0.23602 0.13782 0.0
C95 C 0.86415 0.18886 0.14698 0.0
H96 H 0.7919 0.13558 0.19854 0.0
H97 H 0.77353 0.30119 0.45444 0.0
H98 H 0.82983 0.20556 0.49456 0.0
H99 H 0.87101 0.12325 0.41619 0.0
H100 H 0.85537 0.13585 0.29738 0.0
C101 C 0.812 0.18287 0.1884 0.0
C102 C 0.79141 0.23582 0.23383 0.0
C103 C 0.80259 0.22841 0.3033 0.0
C104 C 0.78051 0.27661 0.34836 0.0
C105 C 0.79038 0.26685 0.41764 0.0
C106 C 0.82256 0.21199 0.44152 0.0
C107 C 0.8456 0.16563 0.39743 0.0
C108 C 0.83595 0.17344 0.3292 0.0
H109 H 0.62111 0.3663 0.34585 0.0
C110 C 0.65591 0.38887 0.3804 0.0
H111 H 0.75712 0.40219 0.40716 0.0
H112 H 0.76017 0.26431 0.10418 0.0
H113 H 0.70978 0.36318 0.06352 0.0
H114 H 0.67878 0.45009 0.14121 0.0
H115 H 0.69708 0.43836 0.26022 0.0
C116 C 0.72206 0.38062 0.37222 0.0
C117 C 0.74836 0.33273 0.32387 0.0
C118 C 0.73976 0.34149 0.2543 0.0
C119 C 0.76013 0.29238 0.20924 0.0
C120 C 0.74772 0.3009 0.14037 0.0
C121 C 0.71854 0.3573 0.11641 0.0
C122 C 0.70092 0.4062 0.16018 0.0
C123 C 0.71129 0.39868 0.22838 0.0
H124 H 0.91083 0.76712 0.15204 0.0
C125 C 0.8886 0.81386 0.16214 0.0
H126 H 0.81454 0.86533 0.21492 0.0
H127 H 0.69367 0.57434 0.25884 0.0
H128 H 0.67436 0.57158 0.13936 0.0
H129 H 0.71726 0.65727 0.06706 0.0
H130 H 0.78039 0.74603 0.11361 0.0
C131 C 0.83587 0.81855 0.20329 0.0
C132 C 0.81308 0.76401 0.24481 0.0
C133 C 0.77537 0.71315 0.21684 0.0
C134 C 0.74873 0.66478 0.25885 0.0
C135 C 0.71311 0.61338 0.22949 0.0
C136 C 0.70209 0.61098 0.16096 0.0
C137 C 0.72634 0.65921 0.12022 0.0
C138 C 0.7626 0.70983 0.14755 0.0
H139 H 0.62733 0.64737 0.35024 0.0
C140 C 0.66016 0.61996 0.38307 0.0
H141 H 0.75961 0.5944 0.40749 0.0
H142 H 0.88829 0.85174 0.31368 0.0
H143 H 0.90601 0.85566 0.43308 0.0
H144 H 0.85566 0.7748 0.50648 0.0
H145 H 0.788 0.68925 0.46098 0.0
C146 C 0.72681 0.62147 0.37433 0.0
C147 C 0.75825 0.66857 0.32881 0.0
C148 C 0.79756 0.71852 0.35653 0.0
C149 C 0.8253 0.76598 0.31444 0.0
C150 C 0.86489 0.81504 0.3434 0.0
C151 C 0.87571 0.81778 0.41191 0.0
C152 C 0.84751 0.77218 0.4532 0.0
C153 C 0.80883 0.72312 0.42622 0.0
H154 H 0.13525 0.88955 0.25318 0.0
C155 C 0.14626 0.90112 0.20162 0.0
H156 H 0.21607 0.89126 0.12387 0.0
H157 H 0.32911 0.79682 0.42844 0.0
H158 H 0.32465 0.90911 0.4585 0.0
H159 H 0.29044 0.99086 0.37638 0.0
H160 H 0.25614 0.95996 0.26434 0.0
C161 C 0.20487 0.88174 0.17573 0.0
C162 C 0.24953 0.83815 0.21517 0.0
C163 C 0.27347 0.85722 0.27877 0.0
C164 C 0.29852 0.8105 0.32432 0.0
C165 C 0.3143 0.83029 0.39008 0.0
C166 C 0.31118 0.89476 0.40836 0.0
C167 C 0.29128 0.94079 0.36229 0.0
C168 C 0.27177 0.92246 0.29839 0.0
H169 H 0.41735 0.72983 0.38023 0.0
C170 C 0.38157 0.69115 0.38541 0.0
H171 H 0.28761 0.65456 0.35688 0.0
H172 H 0.2187 0.7874 0.09268 0.0
H173 H 0.2371 0.67786 0.05685 0.0
H174 H 0.28904 0.59832 0.13228 0.0
H175 H 0.32188 0.62791 0.24466 0.0
C176 C 0.32291 0.69372 0.35216 0.0
C177 C 0.30499 0.74544 0.30382 0.0
C178 C 0.2886 0.72809 0.23728 0.0
C179 C 0.26018 0.77429 0.19313 0.0
C180 C 0.24122 0.75468 0.12814 0.0
C181 C 0.2516 0.69181 0.10678 0.0
C182 C 0.28072 0.64703 0.1493 0.0
C183 C 0.29905 0.66463 0.21381 0.0
H184 H 0.20846 0.80756 0.95573 0.0
C185 C 0.17629 0.82622 0.91639 0.0
H186 H 0.15238 0.83018 0.8149 0.0
H187 H 0.40572 0.77266 0.6595 0.0
H188 H 0.38293 0.88391 0.63106 0.0
H189 H 0.29974 0.94729 0.69381 0.0
H190 H 0.23814 0.89971 0.78443 0.0
C191 C 0.18578 0.80958 0.85232 0.0
C192 C 0.24591 0.77453 0.82667 0.0
C193 C 0.28392 0.80411 0.77568 0.0
C194 C 0.33315 0.76824 0.74051 0.0
C195 C 0.36803 0.79801 0.68792 0.0
C196 C 0.35563 0.86185 0.67126 0.0
C197 C 0.30873 0.89748 0.7065 0.0
C198 C 0.27331 0.86933 0.75817 0.0
H199 H 0.29806 0.62478 0.66766 0.0
C200 C 0.35246 0.62608 0.66604 0.0
H201 H 0.43913 0.66767 0.70874 0.0
H202 H 0.18497 0.7014 0.92285 0.0
H203 H 0.22006 0.59588 0.96013 0.0
H204 H 0.31498 0.53978 0.90715 0.0
H205 H 0.37221 0.58725 0.81302 0.0
C206 C 0.38518 0.6621 0.71109 0.0
C207 C 0.34574 0.70343 0.75737 0.0
C208 C 0.31387 0.67631 0.81323 0.0
C209 C 0.26228 0.71091 0.84679 0.0
C210 C 0.22729 0.67963 0.89829 0.0
C211 C 0.24651 0.6186 0.91978 0.0
C212 C 0.29961 0.58674 0.88962 0.0
C213 C 0.33204 0.6144 0.83587 0.0
H214 H 0.10692 0.23395 0.88366 0.0
C215 C 0.13781 0.19152 0.89175 0.0
H216 H 0.23051 0.14584 0.87734 0.0
H217 H 0.31038 0.26543 0.60573 0.0
H218 H 0.31084 0.15121 0.58302 0.0
H219 H 0.26965 0.07445 0.66619 0.0
H220 H 0.2294 0.11101 0.77285 0.0
C221 C 0.20056 0.18866 0.86798 0.0
C222 C 0.22597 0.23594 0.81862 0.0
C223 C 0.24811 0.21338 0.75551 0.0
C224 C 0.27029 0.25764 0.70674 0.0
C225 C 0.29291 0.23392 0.64457 0.0
C226 C 0.29315 0.16846 0.63066 0.0
C227 C 0.27014 0.12525 0.67756 0.0
C228 C 0.24752 0.1471 0.73906 0.0
H229 H 0.39203 0.36656 0.70189 0.0
C230 C 0.35727 0.38475 0.66441 0.0
H231 H 0.25636 0.38663 0.63154 0.0
H232 H 0.19877 0.29552 0.93763 0.0
H233 H 0.18913 0.41023 0.95625 0.0
H234 H 0.21189 0.48661 0.86583 0.0
H235 H 0.25142 0.4492 0.75826 0.0
C236 C 0.29209 0.37009 0.66883 0.0
C237 C 0.26859 0.32437 0.72018 0.0
C238 C 0.24505 0.34707 0.78228 0.0
C239 C 0.22629 0.30279 0.83258 0.0
C240 C 0.20887 0.32688 0.89615 0.0
C241 C 0.20405 0.39264 0.90779 0.0
C242 C 0.2178 0.43574 0.85714 0.0
C243 C 0.23965 0.4136 0.79548 0.0
H244 H 0.83807 0.13534 0.89403 0.0
C245 C 0.87596 0.11313 0.86275 0.0
H246 H 0.91133 0.10052 0.76491 0.0
H247 H 0.60411 0.23552 0.74177 0.0
H248 H 0.56228 0.13634 0.7882 0.0
H249 H 0.63991 0.04958 0.82213 0.0
H250 H 0.76002 0.06217 0.81129 0.0
C251 C 0.87297 0.12153 0.79644 0.0
C252 C 0.82505 0.16841 0.76603 0.0
C253 C 0.75487 0.15914 0.76979 0.0
C254 C 0.70994 0.20798 0.74713 0.0
C255 C 0.64037 0.19912 0.75565 0.0
C256 C 0.61569 0.14251 0.7826 0.0
C257 C 0.6594 0.09375 0.80194 0.0
C258 C 0.72823 0.10173 0.79583 0.0
H259 H 0.63757 0.26844 0.62297 0.0
C260 C 0.64738 0.31476 0.64587 0.0
H261 H 0.70077 0.36533 0.71968 0.0
H262 H 0.95681 0.20076 0.7488 0.0
H263 H 0.99842 0.29588 0.69465 0.0
H264 H 0.9206 0.37683 0.64823 0.0
H265 H 0.80074 0.36353 0.65667 0.0
C266 C 0.69036 0.31875 0.69761 0.0
C267 C 0.73534 0.26462 0.71774 0.0
C268 C 0.8055 0.27194 0.71027 0.0
C269 C 0.85034 0.22428 0.73515 0.0
C270 C 0.92019 0.2345 0.72954 0.0
C271 C 0.94493 0.28908 0.69864 0.0
C272 C 0.90115 0.33471 0.67267 0.0
C273 C 0.83232 0.32654 0.67822 0.0
H274 H 0.85725 0.84481 0.90155 0.0
C275 C 0.88884 0.87471 0.87075 0.0
H276 H 0.90927 0.90741 0.77377 0.0
H277 H 0.80115 0.66205 0.6263 0.0
H278 H 0.91784 0.66328 0.59433 0.0
H279 H 0.99583 0.74158 0.64377 0.0
H280 H 0.95748 0.81955 0.72465 0.0
C281 C 0.87786 0.87746 0.80466 0.0
C282 C 0.82917 0.83398 0.77108 0.0
C283 C 0.85289 0.78819 0.72434 0.0
C284 C 0.8084 0.74195 0.69716 0.0
C285 C 0.8331 0.69733 0.64976 0.0
C286 C 0.89996 0.69761 0.63073 0.0
C287 C 0.94379 0.7418 0.65842 0.0
C288 C 0.92094 0.78649 0.7048 0.0
H289 H 0.63417 0.73893 0.63363 0.0
C290 C 0.64945 0.6915 0.65057 0.0
H291 H 0.7153 0.63834 0.71215 0.0
H292 H 0.76422 0.9246 0.84597 0.0
H293 H 0.64669 0.9248 0.87596 0.0
H294 H 0.57142 0.83944 0.83583 0.0
H295 H 0.61283 0.7542 0.76423 0.0
C296 C 0.69835 0.68569 0.69659 0.0
C297 C 0.74064 0.74069 0.71763 0.0
C298 C 0.71593 0.78877 0.7612 0.0
C299 C 0.76002 0.83639 0.7868 0.0
C300 C 0.73352 0.88577 0.82753 0.0
C301 C 0.66608 0.88671 0.84468 0.0
C302 C 0.62366 0.83875 0.8219 0.0
C303 C 0.64803 0.79016 0.78072 0.0
loop_
_geom_bond_atom_site_label_1
_geom_bond_atom_site_label_2
_geom_bond_distance
_geom_bond_site_symmetry_2
_ccdc_geom_bond_type
Fe0 O1 1.886 . S
Fe0 O4 1.715 1_554 S
Fe0 O9 2.077 . S
Fe0 O14 1.935 1_554 S
Fe0 O20 2.077 1_455 S
Fe0 O29 1.935 1_454 S
O1 Fe0 1.886 . S
O1 Fe3 1.715 1_565 S
Fe2 O4 1.886 . S
Fe2 O5 1.715 1_565 S
Fe2 O12 1.935 1_565 S
Fe2 O13 2.077 . S
Fe2 O19 1.935 1_465 S
Fe2 O28 2.077 1_455 S
Fe3 O1 1.715 1_545 S
Fe3 O6 1.886 . S
Fe3 O10 1.935 1_545 S
Fe3 O15 2.077 . S
Fe3 O21 1.935 1_445 S
Fe3 O25 2.077 1_455 S
O4 Fe0 1.715 1_556 S
O4 Fe2 1.886 . S
O5 Fe2 1.715 1_545 S
O5 Fe7 1.886 . S
O6 Fe3 1.886 . S
O6 Fe7 1.715 1_554 S
Fe7 O5 1.886 . S
Fe7 O6 1.715 1_556 S
Fe7 O11 2.077 . S
Fe7 O16 1.935 1_556 S
Fe7 O18 2.077 1_455 S
Fe7 O26 1.935 1_456 S
C8 O20 1.381 . S
C8 O21 1.421 . S
O9 Fe0 2.077 . S
O9 C22 1.381 . S
O10 Fe3 1.935 1_565 S
O10 C22 1.421 . S
O11 Fe7 2.077 . S
O11 C27 1.381 . S
O12 Fe2 1.935 1_545 S
O12 C27 1.421 . S
O13 Fe2 2.077 . S
O13 C17 1.381 . S
O14 Fe0 1.935 1_556 S
O14 C17 1.421 . S
O15 Fe3 2.077 . S
O15 C23 1.381 . S
O16 Fe7 1.935 1_554 S
O16 C23 1.421 . S
C17 O13 1.381 . S
C17 O14 1.421 . S
O18 Fe7 2.077 1_655 S
O18 C30 1.381 . S
O19 Fe2 1.935 1_645 S
O19 C30 1.421 . S
O20 Fe0 2.077 1_655 S
O20 C8 1.381 . S
O21 Fe3 1.935 1_665 S
O21 C8 1.421 . S
C22 O9 1.381 . S
C22 O10 1.421 . S
C23 O15 1.381 . S
C23 O16 1.421 . S
C24 O25 1.381 . S
C24 O26 1.421 . S
O25 Fe3 2.077 1_655 S
O25 C24 1.381 . S
O26 Fe7 1.935 1_654 S
O26 C24 1.421 . S
C27 O11 1.381 . S
C27 O12 1.421 . S
O28 Fe2 2.077 1_655 S
O28 C31 1.381 . S
O29 Fe0 1.935 1_656 S
O29 C31 1.421 . S
C30 O18 1.381 . S
C30 O19 1.421 . S
C31 O28 1.381 . S
C31 O29 1.421 . S
Fe32 O33 1.886 . S
Fe32 O36 1.715 . S
Fe32 O41 2.077 . S
Fe32 O46 1.935 . S
Fe32 O52 2.077 . S
Fe32 O61 1.935 . S
O33 Fe32 1.886 . S
O33 Fe35 1.715 . S
Fe34 O36 1.886 . S
Fe34 O37 1.715 . S
Fe34 O44 1.935 . S
Fe34 O45 2.077 . S
Fe34 O51 1.935 . S
Fe34 O60 2.077 . S
Fe35 O33 1.715 . S
Fe35 O38 1.886 . S
Fe35 O42 1.935 . S
Fe35 O47 2.077 . S
Fe35 O53 1.935 . S
Fe35 O57 2.077 . S
O36 Fe32 1.715 . S
O36 Fe34 1.886 . S
O37 Fe34 1.715 . S
O37 Fe39 1.886 . S
O38 Fe35 1.886 . S
O38 Fe39 1.715 . S
Fe39 O37 1.886 . S
Fe39 O38 1.715 . S
Fe39 O43 2.077 . S
Fe39 O48 1.935 . S
Fe39 O50 2.077 . S
Fe39 O58 1.935 . S
C40 O52 1.381 . S
C40 O53 1.421 . S
O41 Fe32 2.077 . S
O41 C54 1.381 . S
O42 Fe35 1.935 . S
O42 C54 1.421 . S
O43 Fe39 2.077 . S
O43 C59 1.381 . S
O44 Fe34 1.935 . S
O44 C59 1.421 . S
O45 Fe34 2.077 . S
O45 C49 1.381 . S
O46 Fe32 1.935 . S
O46 C49 1.421 . S
O47 Fe35 2.077 . S
O47 C55 1.381 . S
O48 Fe39 1.935 . S
O48 C55 1.421 . S
C49 O45 1.381 . S
C49 O46 1.421 . S
O50 Fe39 2.077 . S
O50 C62 1.381 . S
O51 Fe34 1.935 . S
O51 C62 1.421 . S
O52 Fe32 2.077 . S
O52 C40 1.381 . S
O53 Fe35 1.935 . S
O53 C40 1.421 . S
C54 O41 1.381 . S
C54 O42 1.421 . S
C55 O47 1.381 . S
C55 O48 1.421 . S
C56 O57 1.381 . S
C56 O58 1.421 . S
O57 Fe35 2.077 . S
O57 C56 1.381 . S
O58 Fe39 1.935 . S
O58 C56 1.421 . S
C59 O43 1.381 . S
C59 O44 1.421 . S
O60 Fe34 2.077 . S
O60 C63 1.381 . S
O61 Fe32 1.935 . S
O61 C63 1.421 . S
C62 O50 1.381 . S
C62 O51 1.421 . S
C63 O60 1.381 . S
C63 O61 1.421 . S
H64 C65 0.951 . S
C65 H64 0.951 . S
C65 C71 1.265 . S
H66 C71 0.950 . S
H67 C75 0.949 . S
H68 C76 0.950 . S
H69 C77 0.951 . S
H70 C78 0.951 . S
C71 C65 1.265 . S
C71 H66 0.950 . S
C71 C72 1.478 . S
C72 C71 1.478 . S
C72 C73 1.397 . S
C72 C89 1.394 . S
C73 C72 1.397 . S
C73 C74 1.438 . S
C73 C78 1.429 . S
C74 C73 1.438 . S
C74 C75 1.428 . S
C74 C87 1.394 . S
C75 H67 0.949 . S
C75 C74 1.428 . S
C75 C76 1.345 . S
C76 H68 0.950 . S
C76 C75 1.345 . S
C76 C77 1.424 . S
C77 H69 0.951 . S
C77 C76 1.424 . S
C77 C78 1.347 . S
C78 H70 0.951 . S
C78 C73 1.429 . S
C78 C77 1.347 . S
H79 C80 0.951 . S
C80 H79 0.951 . S
C80 C86 1.265 . S
H81 C86 0.950 . S
H82 C90 0.949 . S
H83 C91 0.950 . S
H84 C92 0.951 . S
H85 C93 0.951 . S
C86 C80 1.265 . S
C86 H81 0.950 . S
C86 C87 1.478 . S
C87 C74 1.394 . S
C87 C86 1.478 . S
C87 C88 1.397 . S
C88 C87 1.397 . S
C88 C89 1.438 . S
C88 C93 1.429 . S
C89 C72 1.394 . S
C89 C88 1.438 . S
C89 C90 1.428 . S
C90 H82 0.949 . S
C90 C89 1.428 . S
C90 C91 1.345 . S
C91 H83 0.950 . S
C91 C90 1.345 . S
C91 C92 1.424 . S
C92 H84 0.951 . S
C92 C91 1.424 . S
C92 C93 1.347 . S
C93 H85 0.951 . S
C93 C88 1.429 . S
C93 C92 1.347 . S
H94 C95 0.951 . S
C95 H94 0.951 . S
C95 C101 1.265 . S
H96 C101 0.950 . S
H97 C105 0.949 . S
H98 C106 0.950 . S
H99 C107 0.951 . S
H100 C108 0.951 . S
C101 C95 1.265 . S
C101 H96 0.950 . S
C101 C102 1.478 . S
C102 C101 1.478 . S
C102 C103 1.397 . S
C102 C119 1.394 . S
C103 C102 1.397 . S
C103 C104 1.438 . S
C103 C108 1.429 . S
C104 C103 1.438 . S
C104 C105 1.428 . S
C104 C117 1.394 . S
C105 H97 0.949 . S
C105 C104 1.428 . S
C105 C106 1.345 . S
C106 H98 0.950 . S
C106 C105 1.345 . S
C106 C107 1.424 . S
C107 H99 0.951 . S
C107 C106 1.424 . S
C107 C108 1.347 . S
C108 H100 0.951 . S
C108 C103 1.429 . S
C108 C107 1.347 . S
H109 C110 0.951 . S
C110 H109 0.951 . S
C110 C116 1.265 . S
H111 C116 0.950 . S
H112 C120 0.949 . S
H113 C121 0.950 . S
H114 C122 0.951 . S
H115 C123 0.951 . S
C116 C110 1.265 . S
C116 H111 0.950 . S
C116 C117 1.478 . S
C117 C104 1.394 . S
C117 C116 1.478 . S
C117 C118 1.397 . S
C118 C117 1.397 . S
C118 C119 1.438 . S
C118 C123 1.429 . S
C119 C102 1.394 . S
C119 C118 1.438 . S
C119 C120 1.428 . S
C120 H112 0.949 . S
C120 C119 1.428 . S
C120 C121 1.345 . S
C121 H113 0.950 . S
C121 C120 1.345 . S
C121 C122 1.424 . S
C122 H114 0.951 . S
C122 C121 1.424 . S
C122 C123 1.347 . S
C123 H115 0.951 . S
C123 C118 1.429 . S
C123 C122 1.347 . S
H124 C125 0.951 . S
C125 H124 0.951 . S
C125 C131 1.265 . S
H126 C131 0.950 . S
H127 C135 0.949 . S
H128 C136 0.950 . S
H129 C137 0.951 . S
H130 C138 0.951 . S
C131 C125 1.265 . S
C131 H126 0.950 . S
C131 C132 1.478 . S
C132 C131 1.478 . S
C132 C133 1.397 . S
C132 C149 1.394 . S
C133 C132 1.397 . S
C133 C134 1.438 . S
C133 C138 1.429 . S
C134 C133 1.438 . S
C134 C135 1.428 . S
C134 C147 1.394 . S
C135 H127 0.949 . S
C135 C134 1.428 . S
C135 C136 1.345 . S
C136 H128 0.950 . S
C136 C135 1.345 . S
C136 C137 1.424 . S
C137 H129 0.951 . S
C137 C136 1.424 . S
C137 C138 1.347 . S
C138 H130 0.951 . S
C138 C133 1.429 . S
C138 C137 1.347 . S
H139 C140 0.951 . S
C140 H139 0.951 . S
C140 C146 1.265 . S
H141 C146 0.950 . S
H142 C150 0.949 . S
H143 C151 0.950 . S
H144 C152 0.951 . S
H145 C153 0.951 . S
C146 C140 1.265 . S
C146 H141 0.950 . S
C146 C147 1.478 . S
C147 C134 1.394 . S
C147 C146 1.478 . S
C147 C148 1.397 . S
C148 C147 1.397 . S
C148 C149 1.438 . S
C148 C153 1.429 . S
C149 C132 1.394 . S
C149 C148 1.438 . S
C149 C150 1.428 . S
C150 H142 0.949 . S
C150 C149 1.428 . S
C150 C151 1.345 . S
C151 H143 0.950 . S
C151 C150 1.345 . S
C151 C152 1.424 . S
C152 H144 0.951 . S
C152 C151 1.424 . S
C152 C153 1.347 . S
C153 H145 0.951 . S
C153 C148 1.429 . S
C153 C152 1.347 . S
H154 C155 0.951 . S
C155 H154 0.951 . S
C155 C161 1.265 . S
H156 C161 0.950 . S
H157 C165 0.949 . S
H158 C166 0.950 . S
H159 C167 0.951 . S
H160 C168 0.951 . S
C161 C155 1.265 . S
C161 H156 0.950 . S
C161 C162 1.478 . S
C162 C161 1.478 . S
C162 C163 1.397 . S
C162 C179 1.394 . S
C163 C162 1.397 . S
C163 C164 1.438 . S
C163 C168 1.429 . S
C164 C163 1.438 . S
C164 C165 1.428 . S
C164 C177 1.394 . S
C165 H157 0.949 . S
C165 C164 1.428 . S
C165 C166 1.345 . S
C166 H158 0.950 . S
C166 C165 1.345 . S
C166 C167 1.424 . S
C167 H159 0.951 . S
C167 C166 1.424 . S
C167 C168 1.347 . S
C168 H160 0.951 . S
C168 C163 1.429 . S
C168 C167 1.347 . S
H169 C170 0.951 . S
C170 H169 0.951 . S
C170 C176 1.265 . S
H171 C176 0.950 . S
H172 C180 0.949 . S
H173 C181 0.950 . S
H174 C182 0.951 . S
H175 C183 0.951 . S
C176 C170 1.265 . S
C176 H171 0.950 . S
C176 C177 1.478 . S
C177 C164 1.394 . S
C177 C176 1.478 . S
C177 C178 1.397 . S
C178 C177 1.397 . S
C178 C179 1.438 . S
C178 C183 1.429 . S
C179 C162 1.394 . S
C179 C178 1.438 . S
C179 C180 1.428 . S
C180 H172 0.949 . S
C180 C179 1.428 . S
C180 C181 1.345 . S
C181 H173 0.950 . S
C181 C180 1.345 . S
C181 C182 1.424 . S
C182 H174 0.951 . S
C182 C181 1.424 . S
C182 C183 1.347 . S
C183 H175 0.951 . S
C183 C178 1.429 . S
C183 C182 1.347 . S
H184 C185 0.951 . S
C185 H184 0.951 . S
C185 C191 1.265 . S
H186 C191 0.950 . S
H187 C195 0.949 . S
H188 C196 0.950 . S
H189 C197 0.951 . S
H190 C198 0.951 . S
C191 C185 1.265 . S
C191 H186 0.950 . S
C191 C192 1.478 . S
C192 C191 1.478 . S
C192 C193 1.397 . S
C192 C209 1.394 . S
C193 C192 1.397 . S
C193 C194 1.438 . S
C193 C198 1.429 . S
C194 C193 1.438 . S
C194 C195 1.428 . S
C194 C207 1.394 . S
C195 H187 0.949 . S
C195 C194 1.428 . S
C195 C196 1.345 . S
C196 H188 0.950 . S
C196 C195 1.345 . S
C196 C197 1.424 . S
C197 H189 0.951 . S
C197 C196 1.424 . S
C197 C198 1.347 . S
C198 H190 0.951 . S
C198 C193 1.429 . S
C198 C197 1.347 . S
H199 C200 0.951 . S
C200 H199 0.951 . S
C200 C206 1.265 . S
H201 C206 0.950 . S
H202 C210 0.949 . S
H203 C211 0.950 . S
H204 C212 0.951 . S
H205 C213 0.951 . S
C206 C200 1.265 . S
C206 H201 0.950 . S
C206 C207 1.478 . S
C207 C194 1.394 . S
C207 C206 1.478 . S
C207 C208 1.397 . S
C208 C207 1.397 . S
C208 C209 1.438 . S
C208 C213 1.429 . S
C209 C192 1.394 . S
C209 C208 1.438 . S
C209 C210 1.428 . S
C210 H202 0.949 . S
C210 C209 1.428 . S
C210 C211 1.345 . S
C211 H203 0.950 . S
C211 C210 1.345 . S
C211 C212 1.424 . S
C212 H204 0.951 . S
C212 C211 1.424 . S
C212 C213 1.347 . S
C213 H205 0.951 . S
C213 C208 1.429 . S
C213 C212 1.347 . S
H214 C215 0.951 . S
C215 H214 0.951 . S
C215 C221 1.265 . S
H216 C221 0.950 . S
H217 C225 0.949 . S
H218 C226 0.950 . S
H219 C227 0.951 . S
H220 C228 0.951 . S
C221 C215 1.265 . S
C221 H216 0.950 . S
C221 C222 1.478 . S
C222 C221 1.478 . S
C222 C223 1.397 . S
C222 C239 1.394 . S
C223 C222 1.397 . S
C223 C224 1.438 . S
C223 C228 1.429 . S
C224 C223 1.438 . S
C224 C225 1.428 . S
C224 C237 1.394 . S
C225 H217 0.949 . S
C225 C224 1.428 . S
C225 C226 1.345 . S
C226 H218 0.950 . S
C226 C225 1.345 . S
C226 C227 1.424 . S
C227 H219 0.951 . S
C227 C226 1.424 . S
C227 C228 1.347 . S
C228 H220 0.951 . S
C228 C223 1.429 . S
C228 C227 1.347 . S
H229 C230 0.951 . S
C230 H229 0.951 . S
C230 C236 1.265 . S
H231 C236 0.950 . S
H232 C240 0.949 . S
H233 C241 0.950 . S
H234 C242 0.951 . S
H235 C243 0.951 . S
C236 C230 1.265 . S
C236 H231 0.950 . S
C236 C237 1.478 . S
C237 C224 1.394 . S
C237 C236 1.478 . S
C237 C238 1.397 . S
C238 C237 1.397 . S
C238 C239 1.438 . S
C238 C243 1.429 . S
C239 C222 1.394 . S
C239 C238 1.438 . S
C239 C240 1.428 . S
C240 H232 0.949 . S
C240 C239 1.428 . S
C240 C241 1.345 . S
C241 H233 0.950 . S
C241 C240 1.345 . S
C241 C242 1.424 . S
C242 H234 0.951 . S
C242 C241 1.424 . S
C242 C243 1.347 . S
C243 H235 0.951 . S
C243 C238 1.429 . S
C243 C242 1.347 . S
H244 C245 0.951 . S
C245 H244 0.951 . S
C245 C251 1.265 . S
H246 C251 0.950 . S
H247 C255 0.949 . S
H248 C256 0.950 . S
H249 C257 0.951 . S
H250 C258 0.951 . S
C251 C245 1.265 . S
C251 H246 0.950 . S
C251 C252 1.478 . S
C252 C251 1.478 . S
C252 C253 1.397 . S
C252 C269 1.394 . S
C253 C252 1.397 . S
C253 C254 1.438 . S
C253 C258 1.429 . S
C254 C253 1.438 . S
C254 C255 1.428 . S
C254 C267 1.394 . S
C255 H247 0.949 . S
C255 C254 1.428 . S
C255 C256 1.345 . S
C256 H248 0.950 . S
C256 C255 1.345 . S
C256 C257 1.424 . S
C257 H249 0.951 . S
C257 C256 1.424 . S
C257 C258 1.347 . S
C258 H250 0.951 . S
C258 C253 1.429 . S
C258 C257 1.347 . S
H259 C260 0.951 . S
C260 H259 0.951 . S
C260 C266 1.265 . S
H261 C266 0.950 . S
H262 C270 0.949 . S
H263 C271 0.950 . S
H264 C272 0.951 . S
H265 C273 0.951 . S
C266 C260 1.265 . S
C266 H261 0.950 . S
C266 C267 1.478 . S
C267 C254 1.394 . S
C267 C266 1.478 . S
C267 C268 1.397 . S
C268 C267 1.397 . S
C268 C269 1.438 . S
C268 C273 1.429 . S
C269 C252 1.394 . S
C269 C268 1.438 . S
C269 C270 1.428 . S
C270 H262 0.949 . S
C270 C269 1.428 . S
C270 C271 1.345 . S
C271 H263 0.950 . S
C271 C270 1.345 . S
C271 C272 1.424 . S
C272 H264 0.951 . S
C272 C271 1.424 . S
C272 C273 1.347 . S
C273 H265 0.951 . S
C273 C268 1.429 . S
C273 C272 1.347 . S
H274 C275 0.951 . S
C275 H274 0.951 . S
C275 C281 1.265 . S
H276 C281 0.950 . S
H277 C285 0.949 . S
H278 C286 0.950 . S
H279 C287 0.951 . S
H280 C288 0.951 . S
C281 C275 1.265 . S
C281 H276 0.950 . S
C281 C282 1.478 . S
C282 C281 1.478 . S
C282 C283 1.397 . S
C282 C299 1.394 . S
C283 C282 1.397 . S
C283 C284 1.438 . S
C283 C288 1.429 . S
C284 C283 1.438 . S
C284 C285 1.428 . S
C284 C297 1.394 . S
C285 H277 0.949 . S
C285 C284 1.428 . S
C285 C286 1.345 . S
C286 H278 0.950 . S
C286 C285 1.345 . S
C286 C287 1.424 . S
C287 H279 0.951 . S
C287 C286 1.424 . S
C287 C288 1.347 . S
C288 H280 0.951 . S
C288 C283 1.429 . S
C288 C287 1.347 . S
H289 C290 0.951 . S
C290 H289 0.951 . S
C290 C296 1.265 . S
H291 C296 0.950 . S
H292 C300 0.949 . S
H293 C301 0.950 . S
H294 C302 0.951 . S
H295 C303 0.951 . S
C296 C290 1.265 . S
C296 H291 0.950 . S
C296 C297 1.478 . S
C297 C284 1.394 . S
C297 C296 1.478 . S
C297 C298 1.397 . S
C298 C297 1.397 . S
C298 C299 1.438 . S
C298 C303 1.429 . S
C299 C282 1.394 . S
C299 C298 1.438 . S
C299 C300 1.428 . S
C300 H292 0.949 . S
C300 C299 1.428 . S
C300 C301 1.345 . S
C301 H293 0.950 . S
C301 C300 1.345 . S
C301 C302 1.424 . S
C302 H294 0.951 . S
C302 C301 1.424 . S
C302 C303 1.347 . S
C303 H295 0.951 . S
C303 C298 1.429 . S
C303 C302 1.347 . S
C65 C23 1.397 . S
C80 C55 1.441 . S
C95 C24 1.398 . S
C110 C59 1.471 . S
C125 C8 1.410 . S
C140 C49 1.431 . S
C155 C22 1.397 . S
C170 C54 1.474 . S
C185 C17 1.486 . S
C200 C40 1.425 . S
C230 C56 1.459 . S
C215 C27 1.396 . S
C245 C30 1.480 . S
C260 C62 1.399 . S
C290 C63 1.397 . S
C275 C31 1.459 . S
