# Generated by pormake.
# Topology gar, (4,6)-cn, num edge types: 1
# Building blocks:
#     Node 0, Type 0, BuildingBlock: UXUYUI_clean_sbu_0, # of connection points: 4
#     Node 1, Type 0, BuildingBlock: UXUYUI_clean_sbu_0, # of connection points: 4
#     Node 2, Type 0, BuildingBlock: UXUYUI_clean_sbu_0, # of connection points: 4
#     Node 3, Type 0, BuildingBlock: UXUYUI_clean_sbu_0, # of connection points: 4
#     Node 4, Type 0, BuildingBlock: UXUYUI_clean_sbu_0, # of connection points: 4
#     Node 5, Type 0, BuildingBlock: UXUYUI_clean_sbu_0, # of connection points: 4
#     Node 6, Type 0, BuildingBlock: UXUYUI_clean_sbu_0, # of connection points: 4
#     Node 7, Type 0, BuildingBlock: UXUYUI_clean_sbu_0, # of connection points: 4
#     Node 8, Type 0, BuildingBlock: UXUYUI_clean_sbu_0, # of connection points: 4
#     Node 9, Type 0, BuildingBlock: UXUYUI_clean_sbu_0, # of connection points: 4
#     Node 10, Type 0, BuildingBlock: UXUYUI_clean_sbu_0, # of connection points: 4
#     Node 11, Type 0, BuildingBlock: UXUYUI_clean_sbu_0, # of connection points: 4
#     Node 12, Type 0, BuildingBlock: UXUYUI_clean_sbu_0, # of connection points: 4
#     Node 13, Type 0, BuildingBlock: UXUYUI_clean_sbu_0, # of connection points: 4
#     Node 14, Type 0, BuildingBlock: UXUYUI_clean_sbu_0, # of connection points: 4
#     Node 15, Type 0, BuildingBlock: UXUYUI_clean_sbu_0, # of connection points: 4
#     Node 16, Type 0, BuildingBlock: UXUYUI_clean_sbu_0, # of connection points: 4
#     Node 17, Type 0, BuildingBlock: UXUYUI_clean_sbu_0, # of connection points: 4
#     Node 18, Type 0, BuildingBlock: UXUYUI_clean_sbu_0, # of connection points: 4
#     Node 19, Type 0, BuildingBlock: UXUYUI_clean_sbu_0, # of connection points: 4
#     Node 20, Type 0, BuildingBlock: UXUYUI_clean_sbu_0, # of connection points: 4
#     Node 21, Type 0, BuildingBlock: UXUYUI_clean_sbu_0, # of connection points: 4
#     Node 22, Type 0, BuildingBlock: UXUYUI_clean_sbu_0, # of connection points: 4
#     Node 23, Type 0, BuildingBlock: UXUYUI_clean_sbu_0, # of connection points: 4
#     Node 24, Type 1, BuildingBlock: CUKXOW_clean_sbu_0, # of connection points: 6
#     Node 25, Type 1, BuildingBlock: CUKXOW_clean_sbu_0, # of connection points: 6
#     Node 26, Type 1, BuildingBlock: CUKXOW_clean_sbu_0, # of connection points: 6
#     Node 27, Type 1, BuildingBlock: CUKXOW_clean_sbu_0, # of connection points: 6
#     Node 28, Type 1, BuildingBlock: CUKXOW_clean_sbu_0, # of connection points: 6
#     Node 29, Type 1, BuildingBlock: CUKXOW_clean_sbu_0, # of connection points: 6
#     Node 30, Type 1, BuildingBlock: CUKXOW_clean_sbu_0, # of connection points: 6
#     Node 31, Type 1, BuildingBlock: CUKXOW_clean_sbu_0, # of connection points: 6
#     Node 32, Type 1, BuildingBlock: CUKXOW_clean_sbu_0, # of connection points: 6
#     Node 33, Type 1, BuildingBlock: CUKXOW_clean_sbu_0, # of connection points: 6
#     Node 34, Type 1, BuildingBlock: CUKXOW_clean_sbu_0, # of connection points: 6
#     Node 35, Type 1, BuildingBlock: CUKXOW_clean_sbu_0, # of connection points: 6
#     Node 36, Type 1, BuildingBlock: CUKXOW_clean_sbu_0, # of connection points: 6
#     Node 37, Type 1, BuildingBlock: CUKXOW_clean_sbu_0, # of connection points: 6
#     Node 38, Type 1, BuildingBlock: CUKXOW_clean_sbu_0, # of connection points: 6
#     Node 39, Type 1, BuildingBlock: CUKXOW_clean_sbu_0, # of connection points: 6
#     Edge 40, Type (0, 1), BuildingBlock: XIVTED_clean_linker_0, # of connection points: 2
#     Edge 41, Type (0, 1), BuildingBlock: XIVTED_clean_linker_0, # of connection points: 2
#     Edge 42, Type (0, 1), BuildingBlock: XIVTED_clean_linker_0, # of connection points: 2
#     Edge 43, Type (0, 1), BuildingBlock: XIVTED_clean_linker_0, # of connection points: 2
#     Edge 44, Type (0, 1), BuildingBlock: XIVTED_clean_linker_0, # of connection points: 2
#     Edge 45, Type (0, 1), BuildingBlock: XIVTED_clean_linker_0, # of connection points: 2
#     Edge 46, Type (0, 1), BuildingBlock: XIVTED_clean_linker_0, # of connection points: 2
#     Edge 47, Type (0, 1), BuildingBlock: XIVTED_clean_linker_0, # of connection points: 2
#     Edge 48, Type (0, 1), BuildingBlock: XIVTED_clean_linker_0, # of connection points: 2
#     Edge 49, Type (0, 1), BuildingBlock: XIVTED_clean_linker_0, # of connection points: 2
#     Edge 50, Type (0, 1), BuildingBlock: XIVTED_clean_linker_0, # of connection points: 2
#     Edge 51, Type (0, 1), BuildingBlock: XIVTED_clean_linker_0, # of connection points: 2
#     Edge 52, Type (0, 1), BuildingBlock: XIVTED_clean_linker_0, # of connection points: 2
#     Edge 53, Type (0, 1), BuildingBlock: XIVTED_clean_linker_0, # of connection points: 2
#     Edge 54, Type (0, 1), BuildingBlock: XIVTED_clean_linker_0, # of connection points: 2
#     Edge 55, Type (0, 1), BuildingBlock: XIVTED_clean_linker_0, # of connection points: 2
#     Edge 56, Type (0, 1), BuildingBlock: XIVTED_clean_linker_0, # of connection points: 2
#     Edge 57, Type (0, 1), BuildingBlock: XIVTED_clean_linker_0, # of connection points: 2
#     Edge 58, Type (0, 1), BuildingBlock: XIVTED_clean_linker_0, # of connection points: 2
#     Edge 59, Type (0, 1), BuildingBlock: XIVTED_clean_linker_0, # of connection points: 2
#     Edge 60, Type (0, 1), BuildingBlock: XIVTED_clean_linker_0, # of connection points: 2
#     Edge 61, Type (0, 1), BuildingBlock: XIVTED_clean_linker_0, # of connection points: 2
#     Edge 62, Type (0, 1), BuildingBlock: XIVTED_clean_linker_0, # of connection points: 2
#     Edge 63, Type (0, 1), BuildingBlock: XIVTED_clean_linker_0, # of connection points: 2
#     Edge 64, Type (0, 1), BuildingBlock: XIVTED_clean_linker_0, # of connection points: 2
#     Edge 65, Type (0, 1), BuildingBlock: XIVTED_clean_linker_0, # of connection points: 2
#     Edge 66, Type (0, 1), BuildingBlock: XIVTED_clean_linker_0, # of connection points: 2
#     Edge 67, Type (0, 1), BuildingBlock: XIVTED_clean_linker_0, # of connection points: 2
#     Edge 68, Type (0, 1), BuildingBlock: XIVTED_clean_linker_0, # of connection points: 2
#     Edge 69, Type (0, 1), BuildingBlock: XIVTED_clean_linker_0, # of connection points: 2
#     Edge 70, Type (0, 1), BuildingBlock: XIVTED_clean_linker_0, # of connection points: 2
#     Edge 71, Type (0, 1), BuildingBlock: XIVTED_clean_linker_0, # of connection points: 2
#     Edge 72, Type (0, 1), BuildingBlock: XIVTED_clean_linker_0, # of connection points: 2
#     Edge 73, Type (0, 1), BuildingBlock: XIVTED_clean_linker_0, # of connection points: 2
#     Edge 74, Type (0, 1), BuildingBlock: XIVTED_clean_linker_0, # of connection points: 2
#     Edge 75, Type (0, 1), BuildingBlock: XIVTED_clean_linker_0, # of connection points: 2
#     Edge 76, Type (0, 1), BuildingBlock: XIVTED_clean_linker_0, # of connection points: 2
#     Edge 77, Type (0, 1), BuildingBlock: XIVTED_clean_linker_0, # of connection points: 2
#     Edge 78, Type (0, 1), BuildingBlock: XIVTED_clean_linker_0, # of connection points: 2
#     Edge 79, Type (0, 1), BuildingBlock: XIVTED_clean_linker_0, # of connection points: 2
#     Edge 80, Type (0, 1), BuildingBlock: XIVTED_clean_linker_0, # of connection points: 2
#     Edge 81, Type (0, 1), BuildingBlock: XIVTED_clean_linker_0, # of connection points: 2
#     Edge 82, Type (0, 1), BuildingBlock: XIVTED_clean_linker_0, # of connection points: 2
#     Edge 83, Type (0, 1), BuildingBlock: XIVTED_clean_linker_0, # of connection points: 2
#     Edge 84, Type (0, 1), BuildingBlock: XIVTED_clean_linker_0, # of connection points: 2
#     Edge 85, Type (0, 1), BuildingBlock: XIVTED_clean_linker_0, # of connection points: 2
#     Edge 86, Type (0, 1), BuildingBlock: XIVTED_clean_linker_0, # of connection points: 2
#     Edge 87, Type (0, 1), BuildingBlock: XIVTED_clean_linker_0, # of connection points: 2
#     Edge 88, Type (0, 1), BuildingBlock: XIVTED_clean_linker_0, # of connection points: 2
#     Edge 89, Type (0, 1), BuildingBlock: XIVTED_clean_linker_0, # of connection points: 2
#     Edge 90, Type (0, 1), BuildingBlock: XIVTED_clean_linker_0, # of connection points: 2
#     Edge 91, Type (0, 1), BuildingBlock: XIVTED_clean_linker_0, # of connection points: 2
#     Edge 92, Type (0, 1), BuildingBlock: XIVTED_clean_linker_0, # of connection points: 2
#     Edge 93, Type (0, 1), BuildingBlock: XIVTED_clean_linker_0, # of connection points: 2
#     Edge 94, Type (0, 1), BuildingBlock: XIVTED_clean_linker_0, # of connection points: 2
#     Edge 95, Type (0, 1), BuildingBlock: XIVTED_clean_linker_0, # of connection points: 2
#     Edge 96, Type (0, 1), BuildingBlock: XIVTED_clean_linker_0, # of connection points: 2
#     Edge 97, Type (0, 1), BuildingBlock: XIVTED_clean_linker_0, # of connection points: 2
#     Edge 98, Type (0, 1), BuildingBlock: XIVTED_clean_linker_0, # of connection points: 2
#     Edge 99, Type (0, 1), BuildingBlock: XIVTED_clean_linker_0, # of connection points: 2
#     Edge 100, Type (0, 1), BuildingBlock: XIVTED_clean_linker_0, # of connection points: 2
#     Edge 101, Type (0, 1), BuildingBlock: XIVTED_clean_linker_0, # of connection points: 2
#     Edge 102, Type (0, 1), BuildingBlock: XIVTED_clean_linker_0, # of connection points: 2
#     Edge 103, Type (0, 1), BuildingBlock: XIVTED_clean_linker_0, # of connection points: 2
#     Edge 104, Type (0, 1), BuildingBlock: XIVTED_clean_linker_0, # of connection points: 2
#     Edge 105, Type (0, 1), BuildingBlock: XIVTED_clean_linker_0, # of connection points: 2
#     Edge 106, Type (0, 1), BuildingBlock: XIVTED_clean_linker_0, # of connection points: 2
#     Edge 107, Type (0, 1), BuildingBlock: XIVTED_clean_linker_0, # of connection points: 2
#     Edge 108, Type (0, 1), BuildingBlock: XIVTED_clean_linker_0, # of connection points: 2
#     Edge 109, Type (0, 1), BuildingBlock: XIVTED_clean_linker_0, # of connection points: 2
#     Edge 110, Type (0, 1), BuildingBlock: XIVTED_clean_linker_0, # of connection points: 2
#     Edge 111, Type (0, 1), BuildingBlock: XIVTED_clean_linker_0, # of connection points: 2
#     Edge 112, Type (0, 1), BuildingBlock: XIVTED_clean_linker_0, # of connection points: 2
#     Edge 113, Type (0, 1), BuildingBlock: XIVTED_clean_linker_0, # of connection points: 2
#     Edge 114, Type (0, 1), BuildingBlock: XIVTED_clean_linker_0, # of connection points: 2
#     Edge 115, Type (0, 1), BuildingBlock: XIVTED_clean_linker_0, # of connection points: 2
#     Edge 116, Type (0, 1), BuildingBlock: XIVTED_clean_linker_0, # of connection points: 2
#     Edge 117, Type (0, 1), BuildingBlock: XIVTED_clean_linker_0, # of connection points: 2
#     Edge 118, Type (0, 1), BuildingBlock: XIVTED_clean_linker_0, # of connection points: 2
#     Edge 119, Type (0, 1), BuildingBlock: XIVTED_clean_linker_0, # of connection points: 2
#     Edge 120, Type (0, 1), BuildingBlock: XIVTED_clean_linker_0, # of connection points: 2
#     Edge 121, Type (0, 1), BuildingBlock: XIVTED_clean_linker_0, # of connection points: 2
#     Edge 122, Type (0, 1), BuildingBlock: XIVTED_clean_linker_0, # of connection points: 2
#     Edge 123, Type (0, 1), BuildingBlock: XIVTED_clean_linker_0, # of connection points: 2
#     Edge 124, Type (0, 1), BuildingBlock: XIVTED_clean_linker_0, # of connection points: 2
#     Edge 125, Type (0, 1), BuildingBlock: XIVTED_clean_linker_0, # of connection points: 2
#     Edge 126, Type (0, 1), BuildingBlock: XIVTED_clean_linker_0, # of connection points: 2
#     Edge 127, Type (0, 1), BuildingBlock: XIVTED_clean_linker_0, # of connection points: 2
#     Edge 128, Type (0, 1), BuildingBlock: XIVTED_clean_linker_0, # of connection points: 2
#     Edge 129, Type (0, 1), BuildingBlock: XIVTED_clean_linker_0, # of connection points: 2
#     Edge 130, Type (0, 1), BuildingBlock: XIVTED_clean_linker_0, # of connection points: 2
#     Edge 131, Type (0, 1), BuildingBlock: XIVTED_clean_linker_0, # of connection points: 2
#     Edge 132, Type (0, 1), BuildingBlock: XIVTED_clean_linker_0, # of connection points: 2
#     Edge 133, Type (0, 1), BuildingBlock: XIVTED_clean_linker_0, # of connection points: 2
#     Edge 134, Type (0, 1), BuildingBlock: XIVTED_clean_linker_0, # of connection points: 2
#     Edge 135, Type (0, 1), BuildingBlock: XIVTED_clean_linker_0, # of connection points: 2
# Relax obj value: 0.135
# Max RMSD: 0.217
# Mean RMSD: 0.173
data_MOF--net-gar--node1-UXUYUI_clean_sbu_0--node2-CUKXOW_clean_sbu_0--edge1-XIVTED_clean_linker_0
_symmetry_space_group_name_H-M    P1
_symmetry_Int_Tables_number       1
_symmetry_cell_setting            triclinic
loop_
_symmetry_equiv_pos_as_xyz
'x, y, z'
_cell_length_a     68.052922
_cell_length_b     66.571928
_cell_length_c     67.012202
_cell_angle_alpha  93.587775
_cell_angle_beta   95.468634
_cell_angle_gamma 99.266657
loop_
_atom_site_label
_atom_site_type_symbol
_atom_site_fract_x
_atom_site_fract_y
_atom_site_fract_z
_atom_type_partial_charge
Li0 Li 0.00126 0.26604 0.39331 0.0
Li1 Li 0.02026 0.29051 0.42213 0.0
Li2 Li 0.03725 0.27072 0.39923 0.0
Li3 Li 0.01756 0.25408 0.42286 0.0
C4 C 0.02806 0.30575 0.37998 0.0
N5 N 0.04326 0.33435 0.35476 0.0
C6 C 0.0396 0.3243 0.38798 0.0
C7 C 0.02384 0.302 0.35911 0.0
C8 C 0.04726 0.33849 0.375 0.0
C9 C 0.03178 0.31657 0.34662 0.0
C10 C 0.98336 0.2611 0.43463 0.0
C11 C 0.97621 0.25579 0.46863 0.0
N12 N 0.95978 0.24185 0.46144 0.0
C13 C 0.96637 0.2468 0.42756 0.0
C14 C 0.9883 0.26574 0.45531 0.0
C15 C 0.95465 0.2372 0.44137 0.0
C16 C 0.96977 0.24292 0.36679 0.0
N17 N 0.97946 0.26199 0.37339 0.0
C18 C 0.95856 0.27701 0.3502 0.0
C19 C 0.97415 0.27889 0.36556 0.0
C20 C 0.94831 0.25751 0.3429 0.0
C21 C 0.95413 0.2403 0.35134 0.0
H22 H 0.97415 0.22977 0.37354 0.0
H23 H 0.98201 0.29385 0.37136 0.0
C24 C 0.03703 0.32792 0.44459 0.0
N25 N 0.01992 0.31488 0.43771 0.0
C26 C 0.03614 0.34596 0.45601 0.0
C27 C 1.00014 0.33616 0.45379 0.0
C28 C 0.00171 0.31858 0.4421 0.0
C29 C 0.01746 0.35033 0.46072 0.0
H30 H 0.05132 0.32443 0.44094 0.0
H31 H 0.98838 0.30781 0.43654 0.0
C32 C 0.01607 0.23261 0.37705 0.0
N33 N 0.01163 0.20837 0.34134 0.0
C34 C 0.01131 0.21138 0.37701 0.0
C35 C 0.01876 0.24146 0.35895 0.0
C36 C 0.00907 0.1994 0.3588 0.0
C37 C 0.01642 0.22898 0.34105 0.0
C38 C 0.05931 0.26815 0.43529 0.0
C39 C 0.06146 0.24808 0.42978 0.0
C40 C 0.07509 0.28124 0.44665 0.0
C41 C 0.07937 0.24141 0.43583 0.0
C42 C 0.09277 0.27399 0.45241 0.0
N43 N 0.09453 0.2544 0.44693 0.0
C44 C 0.07186 0.28783 0.38114 0.0
C45 C 0.06455 0.25174 0.37964 0.0
C46 C 0.08695 0.28695 0.36858 0.0
N47 N 0.06047 0.27036 0.38567 0.0
C48 C 0.07931 0.25011 0.36696 0.0
C49 C 0.09041 0.26787 0.36085 0.0
H50 H 0.0691 0.30244 0.38698 0.0
H51 H 0.05593 0.23804 0.38415 0.0
C52 C 0.00119 0.21572 0.43261 0.0
N53 N 0.01442 0.23263 0.43997 0.0
C54 C 0.99891 0.19851 0.44344 0.0
C55 C 0.02335 0.21674 0.46967 0.0
C56 C 0.02506 0.23371 0.45834 0.0
C57 C 0.01047 0.1987 0.46198 0.0
H58 H 0.99257 0.21559 0.41817 0.0
H59 H 0.03522 0.24754 0.46394 0.0
O60 O 0.02031 0.29175 0.39253 0.0
O61 O 0.99521 0.27038 0.42138 0.0
O62 O 0.01805 0.24458 0.39476 0.0
O63 O 0.04212 0.27524 0.42915 0.0
H64 H 0.04287 0.3276 0.40404 0.0
H65 H 0.01433 0.28815 0.35254 0.0
H66 H 0.0564 0.3528 0.38102 0.0
H67 H 0.02872 0.31378 0.33046 0.0
H68 H 0.97991 0.25912 0.48468 0.0
H69 H 0.96238 0.24305 0.41158 0.0
H70 H 0.00147 0.27673 0.46099 0.0
H71 H 0.9415 0.22603 0.43613 0.0
H72 H 0.95423 0.29072 0.34454 0.0
H73 H 0.94665 0.225 0.34614 0.0
H74 H 0.04988 0.3565 0.46072 0.0
H75 H 0.98547 0.33853 0.45738 0.0
H76 H 0.00941 0.20419 0.39088 0.0
H77 H 0.02286 0.25777 0.35879 0.0
H78 H 0.00532 0.18296 0.35856 0.0
H79 H 0.01848 0.23567 0.32694 0.0
H80 H 0.04947 0.23778 0.42085 0.0
H81 H 0.0737 0.29687 0.45091 0.0
H82 H 0.08124 0.22592 0.43167 0.0
H83 H 0.10511 0.28396 0.46121 0.0
H84 H 0.09566 0.30104 0.36483 0.0
H85 H 0.08148 0.23506 0.36147 0.0
H86 H 0.98845 0.18507 0.4372 0.0
H87 H 0.03256 0.21749 0.48388 0.0
Li88 Li 0.99491 0.80732 0.60729 0.0
Li89 Li 0.01381 0.79301 0.63561 0.0
Li90 Li 0.99529 0.77154 0.60724 0.0
Li91 Li 0.97727 0.78626 0.63151 0.0
C92 C 0.02956 0.78492 0.594 0.0
N93 N 0.0503 0.76517 0.56761 0.0
C94 C 0.04573 0.77595 0.60129 0.0
C95 C 0.02403 0.78402 0.57329 0.0
C96 C 0.056 0.766 0.5877 0.0
C97 C 0.03468 0.77392 0.5602 0.0
C98 C 0.99808 0.82869 0.6509 0.0
C99 C 0.99639 0.84239 0.68477 0.0
N100 N 0.00455 0.8612 0.67982 0.0
C101 C 0.00634 0.84819 0.64612 0.0
C102 C 0.99297 0.82577 0.67036 0.0
C103 C 0.00954 0.86441 0.66096 0.0
C104 C 0.97944 0.84083 0.59306 0.0
N105 N 0.99489 0.83026 0.59248 0.0
C106 C 0.01129 0.85363 0.57138 0.0
C107 C 0.01066 0.83626 0.58201 0.0
C108 C 0.99565 0.865 0.57181 0.0
C109 C 0.97955 0.85844 0.58281 0.0
H110 H 0.9672 0.83567 0.60168 0.0
H111 H 0.0229 0.82773 0.58217 0.0
C112 C 0.04415 0.78019 0.65939 0.0
N113 N 0.0365 0.79716 0.65484 0.0
C114 C 0.06031 0.78152 0.67405 0.0
C115 C 0.06068 0.81789 0.67891 0.0
C116 C 0.04449 0.81584 0.66408 0.0
C117 C 0.06874 0.80055 0.68407 0.0
H118 H 0.03767 0.76557 0.65157 0.0
H119 H 0.03839 0.82916 0.65997 0.0
C120 C 0.95441 0.77088 0.59597 0.0
N121 N 0.92006 0.74263 0.58477 0.0
C122 C 0.9516 0.75223 0.6047 0.0
C123 C 0.93974 0.77515 0.58155 0.0
C124 C 0.93414 0.73816 0.59884 0.0
C125 C 0.92248 0.76067 0.57609 0.0
C126 C 0.99479 0.75614 0.65254 0.0
C127 C 0.9898 0.73485 0.65067 0.0
C128 C 0.99838 0.76652 0.67165 0.0
C129 C 0.98836 0.7243 0.66799 0.0
C130 C 0.99682 0.75543 0.68861 0.0
N131 N 0.99186 0.73472 0.68644 0.0
C132 C 0.008 0.73479 0.59809 0.0
C133 C 0.98628 0.74431 0.57183 0.0
C134 C 0.01 0.71724 0.58657 0.0
N135 N 0.99629 0.74783 0.59059 0.0
C136 C 0.98771 0.72682 0.55982 0.0
C137 C 0.99973 0.71307 0.56719 0.0
H138 H 0.01589 0.73814 0.61302 0.0
H139 H 0.97733 0.75516 0.56616 0.0
C140 C 0.94739 0.80168 0.64966 0.0
N141 N 0.95525 0.78436 0.6468 0.0
C142 C 0.9337 0.80292 0.66368 0.0
C143 C 0.93569 0.76808 0.67074 0.0
C144 C 0.9491 0.76744 0.65636 0.0
C145 C 0.92817 0.78618 0.67494 0.0
H146 H 0.95244 0.81483 0.64164 0.0
H147 H 0.95512 0.75365 0.65344 0.0
O148 O 0.019 0.79427 0.60709 0.0
O149 O 0.99477 0.81268 0.63649 0.0
O150 O 0.97136 0.78498 0.60139 0.0
O151 O 0.9961 0.76662 0.63566 0.0
H152 H 0.05021 0.77653 0.61726 0.0
H153 H 0.01144 0.79076 0.56743 0.0
H154 H 0.06849 0.75889 0.59313 0.0
H155 H 0.03046 0.77294 0.54415 0.0
H156 H 0.99251 0.84033 0.69988 0.0
H157 H 0.01037 0.85073 0.63113 0.0
H158 H 0.98627 0.8109 0.67429 0.0
H159 H 0.01599 0.87956 0.65749 0.0
H160 H 0.0241 0.85842 0.56334 0.0
H161 H 0.9672 0.86681 0.58342 0.0
H162 H 0.06639 0.76784 0.67717 0.0
H163 H 0.06677 0.83285 0.68625 0.0
H164 H 0.96277 0.74858 0.6158 0.0
H165 H 0.9417 0.78952 0.57466 0.0
H166 H 0.93179 0.72367 0.60546 0.0
H167 H 0.91101 0.76378 0.56494 0.0
H168 H 0.98692 0.72658 0.63598 0.0
H169 H 0.00245 0.78294 0.67338 0.0
H170 H 0.98443 0.70784 0.66676 0.0
H171 H 0.99957 0.76327 0.70349 0.0
H172 H 0.01921 0.70688 0.59289 0.0
H173 H 0.9797 0.72419 0.54488 0.0
H174 H 0.92783 0.81698 0.66592 0.0
H175 H 0.93193 0.75478 0.679 0.0
Li176 Li 0.50263 0.76346 0.88755 0.0
Li177 Li 0.51757 0.78775 0.91443 0.0
Li178 Li 0.53815 0.77056 0.89239 0.0
Li179 Li 0.51822 0.75166 0.91676 0.0
C180 C 0.50883 0.80418 0.8785 0.0
N181 N 0.48655 0.83277 0.86483 0.0
C182 C 0.48967 0.80441 0.88433 0.0
C183 C 0.51659 0.81845 0.86562 0.0
C184 C 0.47867 0.819 0.87729 0.0
C185 C 0.50511 0.83279 0.85889 0.0
C186 C 0.48583 0.76661 0.93253 0.0
C187 C 0.48894 0.771 0.96874 0.0
N188 N 0.46874 0.76977 0.96812 0.0
C189 C 0.46511 0.76538 0.93224 0.0
C190 C 0.49785 0.76945 0.9509 0.0
C191 C 0.45675 0.76702 0.9504 0.0
C192 C 0.46335 0.74776 0.87081 0.0
N193 N 0.48155 0.75721 0.86675 0.0
C194 C 0.46911 0.76054 0.83286 0.0
C195 C 0.48485 0.76321 0.84817 0.0
C196 C 0.44989 0.75162 0.83682 0.0
C197 C 0.44718 0.74475 0.85594 0.0
H198 H 0.46131 0.74314 0.88576 0.0
H199 H 0.49961 0.77055 0.84545 0.0
C200 C 0.53455 0.82603 0.93333 0.0
N201 N 0.51702 0.81282 0.92906 0.0
C202 C 0.535 0.84484 0.94397 0.0
C203 C 0.49938 0.83585 0.9458 0.0
C204 C 0.49958 0.81745 0.93484 0.0
C205 C 0.51722 0.84996 0.9504 0.0
H206 H 0.54815 0.82199 0.92831 0.0
H207 H 0.48574 0.80695 0.93088 0.0
C208 C 0.51213 0.72931 0.87388 0.0
N209 N 0.49244 0.70137 0.84342 0.0
C210 C 0.49704 0.71377 0.87807 0.0
C211 C 0.51731 0.73059 0.85426 0.0
C212 C 0.48724 0.6998 0.86244 0.0
C213 C 0.50715 0.71633 0.83906 0.0
C214 C 0.55608 0.77414 0.9369 0.0
C215 C 0.57197 0.76416 0.93277 0.0
C216 C 0.556 0.78367 0.95608 0.0
C217 C 0.58717 0.76327 0.94808 0.0
C218 C 0.57149 0.78247 0.97099 0.0
N219 N 0.58661 0.77234 0.96672 0.0
C220 C 0.56628 0.78977 0.86924 0.0
C221 C 0.56875 0.7554 0.87492 0.0
C222 C 0.58016 0.7901 0.85521 0.0
N223 N 0.56065 0.77246 0.87838 0.0
C224 C 0.5829 0.75514 0.86125 0.0
C225 C 0.58836 0.77247 0.85076 0.0
H226 H 0.55929 0.80296 0.87215 0.0
H227 H 0.56358 0.74175 0.88216 0.0
C228 C 0.50082 0.72146 0.941 0.0
N229 N 0.51792 0.72964 0.93345 0.0
C230 C 0.50064 0.70496 0.95283 0.0
C231 C 0.53536 0.70479 0.94792 0.0
C232 C 0.53491 0.72145 0.93638 0.0
C233 C 0.51807 0.69644 0.95635 0.0
H234 H 0.48713 0.72735 0.93752 0.0
H235 H 0.54796 0.7275 0.92933 0.0
O236 O 0.51987 0.78989 0.88497 0.0
O237 O 0.49418 0.76536 0.91481 0.0
O238 O 0.52153 0.74342 0.88887 0.0
O239 O 0.54115 0.77533 0.92202 0.0
H240 H 0.48325 0.7934 0.89407 0.0
H241 H 0.53129 0.81842 0.86077 0.0
H242 H 0.46383 0.81933 0.8817 0.0
H243 H 0.51095 0.84391 0.84892 0.0
H244 H 0.49808 0.77314 0.98307 0.0
H245 H 0.4556 0.76332 0.91811 0.0
H246 H 0.51382 0.77019 0.95135 0.0
H247 H 0.44074 0.76613 0.9504 0.0
H248 H 0.47181 0.76587 0.81827 0.0
H249 H 0.43254 0.73807 0.85969 0.0
H250 H 0.54904 0.85533 0.94678 0.0
H251 H 0.48535 0.83889 0.95064 0.0
H252 H 0.49283 0.71265 0.89319 0.0
H253 H 0.52886 0.74264 0.85077 0.0
H254 H 0.47545 0.68775 0.86541 0.0
H255 H 0.51091 0.7172 0.82377 0.0
H256 H 0.57246 0.75697 0.91796 0.0
H257 H 0.54421 0.79207 0.95944 0.0
H258 H 0.59943 0.75538 0.94513 0.0
H259 H 0.57155 0.78968 0.98592 0.0
H260 H 0.58371 0.80373 0.84736 0.0
H261 H 0.58913 0.74135 0.85864 0.0
H262 H 0.48686 0.6985 0.95858 0.0
H263 H 0.54901 0.69842 0.9501 0.0
Li264 Li 0.49545 0.30947 0.10682 0.0
Li265 Li 0.51414 0.29432 0.13446 0.0
Li266 Li 0.49495 0.27326 0.10601 0.0
Li267 Li 0.47775 0.28891 0.13117 0.0
C268 C 0.52802 0.28946 0.08988 0.0
N269 N 0.54632 0.27673 0.05745 0.0
C270 C 0.54646 0.28285 0.09297 0.0
C271 C 0.51892 0.28974 0.07033 0.0
C272 C 0.55546 0.27643 0.07636 0.0
C273 C 0.52841 0.2832 0.05412 0.0
C274 C 0.49736 0.33029 0.15076 0.0
C275 C 0.49349 0.34226 0.18465 0.0
N276 N 0.49979 0.36177 0.18026 0.0
C277 C 0.50375 0.35046 0.14656 0.0
C278 C 0.49216 0.32614 0.16995 0.0
C279 C 0.5049 0.36616 0.16169 0.0
C280 C 0.47889 0.33995 0.08783 0.0
N281 N 0.49607 0.33254 0.09242 0.0
C282 C 0.5151 0.35949 0.07719 0.0
C283 C 0.51397 0.34182 0.08738 0.0
C284 C 0.49762 0.36764 0.07227 0.0
C285 C 0.47932 0.35762 0.07766 0.0
H286 H 0.46494 0.33222 0.09227 0.0
H287 H 0.52738 0.33554 0.09142 0.0
C288 C 0.54635 0.28088 0.15419 0.0
N289 N 0.53691 0.29733 0.15325 0.0
C290 C 0.56213 0.28083 0.16897 0.0
C291 C 0.55864 0.31496 0.1811 0.0
C292 C 0.54283 0.3143 0.16611 0.0
C293 C 0.56833 0.29796 0.18275 0.0
H294 H 0.54131 0.26766 0.14366 0.0
H295 H 0.53522 0.32725 0.16491 0.0
C296 C 0.45391 0.27456 0.09537 0.0
N297 N 0.41848 0.24809 0.08366 0.0
C298 C 0.44936 0.25655 0.10491 0.0
C299 C 0.44043 0.27913 0.07993 0.0
C300 C 0.43137 0.24337 0.09876 0.0
C301 C 0.42261 0.26554 0.07421 0.0
C302 C 0.49858 0.25696 0.15024 0.0
C303 C 0.49843 0.23602 0.14675 0.0
C304 C 0.50197 0.26598 0.16994 0.0
C305 C 0.50176 0.22445 0.16305 0.0
C306 C 0.50527 0.2539 0.18583 0.0
N307 N 0.50509 0.23355 0.18208 0.0
C308 C 0.5118 0.24011 0.09485 0.0
C309 C 0.48173 0.2412 0.07432 0.0
C310 C 0.51388 0.22182 0.08472 0.0
N311 N 0.49586 0.24928 0.08966 0.0
C312 C 0.48282 0.2225 0.06421 0.0
C313 C 0.49897 0.21237 0.06952 0.0
H314 H 0.52285 0.24697 0.10708 0.0
H315 H 0.46939 0.24896 0.07014 0.0
C316 C 0.44684 0.30341 0.14849 0.0
N317 N 0.45637 0.28706 0.14689 0.0
C318 C 0.43332 0.30443 0.16271 0.0
C319 C 0.43922 0.27141 0.17273 0.0
C320 C 0.4524 0.27094 0.15815 0.0
C321 C 0.42978 0.28852 0.17544 0.0
H322 H 0.4504 0.31599 0.13927 0.0
H323 H 0.45996 0.258 0.15634 0.0
O324 O 0.5188 0.29544 0.10594 0.0
O325 O 0.49618 0.31478 0.13607 0.0
O326 O 0.47137 0.28782 0.10107 0.0
O327 O 0.49546 0.26849 0.13439 0.0
H328 H 0.55365 0.28254 0.10805 0.0
H329 H 0.5046 0.29477 0.06775 0.0
H330 H 0.5697 0.27118 0.07851 0.0
H331 H 0.52151 0.28323 0.0389 0.0
H332 H 0.48948 0.33927 0.19955 0.0
H333 H 0.50785 0.35394 0.1318 0.0
H334 H 0.48703 0.31069 0.17347 0.0
H335 H 0.50986 0.38183 0.15866 0.0
H336 H 0.52946 0.36661 0.07309 0.0
H337 H 0.46556 0.36358 0.07439 0.0
H338 H 0.56954 0.26761 0.16946 0.0
H339 H 0.56306 0.32846 0.19142 0.0
H340 H 0.45964 0.25268 0.11679 0.0
H341 H 0.44375 0.29303 0.07244 0.0
H342 H 0.42767 0.22936 0.10597 0.0
H343 H 0.41206 0.26886 0.06225 0.0
H344 H 0.49567 0.22875 0.13162 0.0
H345 H 0.50226 0.28216 0.17291 0.0
H346 H 0.50168 0.20822 0.16056 0.0
H347 H 0.508 0.26071 0.20113 0.0
H348 H 0.527 0.21516 0.08899 0.0
H349 H 0.47083 0.2159 0.05276 0.0
H350 H 0.42599 0.31766 0.16392 0.0
H351 H 0.43705 0.25884 0.18222 0.0
Li352 Li 0.99577 0.78852 0.14114 0.0
Li353 Li 0.0128 0.77402 0.16925 0.0
Li354 Li 0.9929 0.75176 0.14104 0.0
Li355 Li 0.97586 0.77023 0.16673 0.0
C356 C 0.03015 0.78203 0.12882 0.0
N357 N 0.0557 0.80313 0.10475 0.0
C358 C 0.04791 0.79432 0.13744 0.0
C359 C 0.02544 0.78036 0.10795 0.0
C360 C 0.06062 0.80488 0.12501 0.0
C361 C 0.03853 0.79119 0.09604 0.0
C362 C 1.00021 0.8091 0.18737 0.0
C363 C 0.99853 0.81652 0.22279 0.0
N364 N 0.00854 0.83573 0.22157 0.0
C365 C 0.01029 0.82899 0.18641 0.0
C366 C 0.99411 0.80286 0.20565 0.0
C367 C 0.01444 0.84219 0.20388 0.0
C368 C 0.98235 0.81021 0.10888 0.0
N369 N 0.99706 0.81071 0.12422 0.0
C370 C 0.01403 0.84252 0.11496 0.0
C371 C 0.01269 0.82645 0.12747 0.0
C372 C 0.99913 0.84241 0.09887 0.0
C373 C 0.98313 0.82591 0.09593 0.0
H374 H 0.97002 0.79759 0.10665 0.0
H375 H 0.02421 0.8265 0.13975 0.0
C376 C 0.04672 0.75932 0.18429 0.0
N377 N 0.03763 0.77595 0.18638 0.0
C378 C 0.06553 0.75906 0.19445 0.0
C379 C 0.066 0.79352 0.20818 0.0
C380 C 0.04684 0.79288 0.19814 0.0
C381 C 0.07579 0.77648 0.20629 0.0
H382 H 0.03956 0.74633 0.17427 0.0
H383 H 0.03976 0.80621 0.19921 0.0
C384 C 0.95725 0.7557 0.12282 0.0
N385 N 0.93022 0.73022 0.09524 0.0
C386 C 0.93961 0.74516 0.12884 0.0
C387 C 0.96112 0.75335 0.10276 0.0
C388 C 0.92612 0.73235 0.11466 0.0
C389 C 0.94728 0.74036 0.08905 0.0
C390 C 0.99946 0.73666 0.18419 0.0
C391 C 0.00557 0.71842 0.17795 0.0
C392 C 0.0008 0.74266 0.2047 0.0
C393 C 0.01322 0.70663 0.19237 0.0
C394 C 0.00855 0.73046 0.21865 0.0
N395 N 0.01456 0.71286 0.21225 0.0
C396 C 0.00965 0.72626 0.11534 0.0
C397 C 0.97688 0.71167 0.12141 0.0
C398 C 0.01114 0.70923 0.10272 0.0
N399 N 0.99266 0.72732 0.12421 0.0
C400 C 0.9777 0.69429 0.10881 0.0
C401 C 0.99502 0.69295 0.09921 0.0
H402 H 0.02224 0.73855 0.11824 0.0
H403 H 0.96367 0.71265 0.12894 0.0
C404 C 0.9425 0.78564 0.17929 0.0
N405 N 0.95268 0.76975 0.18089 0.0
C406 C 0.92529 0.78605 0.18907 0.0
C407 C 0.9294 0.75377 0.20208 0.0
C408 C 0.94653 0.75397 0.192 0.0
C409 C 0.91845 0.76995 0.20064 0.0
H410 H 0.94777 0.79801 0.17039 0.0
H411 H 0.95486 0.74146 0.19294 0.0
O412 O 0.01742 0.77169 0.14074 0.0
O413 O 0.99598 0.79601 0.17038 0.0
O414 O 0.97063 0.76831 0.13648 0.0
O415 O 0.99211 0.74848 0.17025 0.0
H416 H 0.05178 0.79581 0.15356 0.0
H417 H 0.01175 0.7709 0.10105 0.0
H418 H 0.07438 0.81451 0.13147 0.0
H419 H 0.03503 0.79012 0.07988 0.0
H420 H 0.99393 0.81186 0.23706 0.0
H421 H 0.01494 0.83416 0.17236 0.0
H422 H 0.98593 0.78771 0.2066 0.0
H423 H 0.02234 0.85758 0.20338 0.0
H424 H 0.02648 0.85502 0.11808 0.0
H425 H 0.97141 0.82498 0.08363 0.0
H426 H 0.07198 0.74531 0.1927 0.0
H427 H 0.07326 0.80751 0.21673 0.0
H428 H 0.93637 0.74682 0.1443 0.0
H429 H 0.97474 0.76135 0.09788 0.0
H430 H 0.91242 0.72407 0.1191 0.0
H431 H 0.95013 0.73833 0.07351 0.0
H432 H 0.00457 0.71351 0.16213 0.0
H433 H 0.99604 0.75663 0.20981 0.0
H434 H 0.01812 0.69255 0.18776 0.0
H435 H 0.00979 0.73499 0.23457 0.0
H436 H 0.02499 0.70868 0.09614 0.0
H437 H 0.96489 0.68211 0.10655 0.0
H438 H 0.91756 0.79898 0.18774 0.0
H439 H 0.9246 0.74093 0.21061 0.0
Li440 Li 0.52689 0.80941 0.38827 0.0
Li441 Li 0.50726 0.78684 0.36062 0.0
Li442 Li 0.52396 0.77203 0.38844 0.0
Li443 Li 0.54395 0.79018 0.36247 0.0
C444 C 0.48935 0.78065 0.40134 0.0
N445 N 0.46214 0.76356 0.42615 0.0
C446 C 0.47219 0.76709 0.39318 0.0
C447 C 0.4926 0.78562 0.4221 0.0
C448 C 0.45863 0.75858 0.40598 0.0
C449 C 0.47868 0.77678 0.43439 0.0
C450 C 0.51774 0.82095 0.34388 0.0
C451 C 0.50733 0.82286 0.30875 0.0
N452 N 0.49628 0.83736 0.31378 0.0
C453 C 0.50641 0.83595 0.34872 0.0
C454 C 0.51834 0.81442 0.32376 0.0
C455 C 0.49562 0.84403 0.33327 0.0
C456 C 0.54422 0.84722 0.41189 0.0
N457 N 0.52728 0.83385 0.40499 0.0
C458 C 0.50725 0.85419 0.42217 0.0
C459 C 0.50902 0.83715 0.40971 0.0
C460 C 0.52444 0.86816 0.42981 0.0
C461 C 0.54313 0.86459 0.42441 0.0
H462 H 0.55857 0.84439 0.40776 0.0
H463 H 0.49574 0.82652 0.4037 0.0
C464 C 0.47658 0.77323 0.32612 0.0
N465 N 0.48207 0.78497 0.34376 0.0
C466 C 0.45752 0.77241 0.31582 0.0
C467 C 0.45035 0.79641 0.34151 0.0
C468 C 0.46939 0.79656 0.35141 0.0
C469 C 0.44408 0.78406 0.32355 0.0
H470 H 0.48683 0.76443 0.31993 0.0
H471 H 0.47404 0.80584 0.3654 0.0
C472 C 0.56245 0.80083 0.40847 0.0
N473 N 0.59038 0.81634 0.44062 0.0
C474 C 0.5825 0.80693 0.40542 0.0
C475 C 0.55659 0.80264 0.42783 0.0
C476 C 0.5964 0.8147 0.42189 0.0
C477 C 0.57093 0.81056 0.44389 0.0
C478 C 0.51722 0.75127 0.34265 0.0
C479 C 0.50316 0.73379 0.3441 0.0
C480 C 0.52489 0.75482 0.32432 0.0
C481 C 0.49691 0.72016 0.32712 0.0
C482 C 0.51828 0.7408 0.3077 0.0
N483 N 0.50454 0.72392 0.30943 0.0
C484 C 0.50657 0.73515 0.4038 0.0
C485 C 0.53927 0.74897 0.41874 0.0
C486 C 0.50573 0.71885 0.41601 0.0
N487 N 0.52311 0.74988 0.40545 0.0
C488 C 0.53905 0.73302 0.43135 0.0
C489 C 0.52211 0.71762 0.43009 0.0
H490 H 0.49406 0.7359 0.39287 0.0
H491 H 0.55245 0.76053 0.41951 0.0
C492 C 0.57774 0.80712 0.34254 0.0
N493 N 0.56758 0.7899 0.3491 0.0
C494 C 0.59515 0.80634 0.33308 0.0
C495 C 0.5912 0.77018 0.33727 0.0
C496 C 0.57406 0.7717 0.34682 0.0
C497 C 0.60201 0.78764 0.33021 0.0
H498 H 0.57233 0.82144 0.34466 0.0
H499 H 0.56583 0.75829 0.35239 0.0
O500 O 0.50276 0.78922 0.38905 0.0
O501 O 0.52792 0.81243 0.3588 0.0
O502 O 0.54876 0.7927 0.39259 0.0
O503 O 0.52382 0.76457 0.3592 0.0
H504 H 0.4695 0.76296 0.37716 0.0
H505 H 0.50568 0.79624 0.42864 0.0
H506 H 0.44535 0.74798 0.39988 0.0
H507 H 0.48102 0.78047 0.45048 0.0
H508 H 0.50754 0.81787 0.29311 0.0
H509 H 0.50578 0.84113 0.36425 0.0
H510 H 0.52708 0.80284 0.31981 0.0
H511 H 0.48668 0.85556 0.33678 0.0
H512 H 0.49249 0.85654 0.42553 0.0
H513 H 0.55677 0.87496 0.42998 0.0
H514 H 0.45341 0.76289 0.30187 0.0
H515 H 0.44045 0.80552 0.34813 0.0
H516 H 0.58729 0.80551 0.39053 0.0
H517 H 0.54115 0.79788 0.43043 0.0
H518 H 0.612 0.81938 0.41979 0.0
H519 H 0.5666 0.81203 0.45897 0.0
H520 H 0.49709 0.73079 0.35814 0.0
H521 H 0.53573 0.76828 0.32288 0.0
H522 H 0.48601 0.70659 0.32802 0.0
H523 H 0.52405 0.74338 0.29342 0.0
H524 H 0.49252 0.70715 0.41412 0.0
H525 H 0.55199 0.73285 0.44202 0.0
H526 H 0.60295 0.82015 0.32777 0.0
H527 H 0.59608 0.75552 0.33564 0.0
Li528 Li 0.4934 0.28681 0.6414 0.0
Li529 Li 0.5104 0.27312 0.67046 0.0
Li530 Li 0.49005 0.24935 0.64331 0.0
Li531 Li 0.47351 0.26997 0.66818 0.0
C532 C 0.52849 0.27454 0.6293 0.0
N533 N 0.55739 0.28487 0.60375 0.0
C534 C 0.54659 0.28705 0.63658 0.0
C535 C 0.52517 0.26708 0.6091 0.0
C536 C 0.56098 0.29217 0.6234 0.0
C537 C 0.53995 0.27253 0.5964 0.0
C538 C 0.50043 0.31108 0.6849 0.0
C539 C 0.50198 0.32574 0.71896 0.0
N540 N 0.51352 0.34295 0.71397 0.0
C541 C 0.51213 0.32899 0.68006 0.0
C542 C 0.49515 0.30949 0.70446 0.0
C543 C 0.51867 0.34491 0.69498 0.0
C544 C 0.47762 0.3108 0.61236 0.0
N545 N 0.49467 0.30825 0.62352 0.0
C546 C 0.51318 0.33693 0.60991 0.0
C547 C 0.51226 0.32095 0.62254 0.0
C548 C 0.49584 0.33986 0.598 0.0
C549 C 0.4779 0.32638 0.59931 0.0
H550 H 0.46371 0.3008 0.61367 0.0
H551 H 0.52553 0.31898 0.63187 0.0
C552 C 0.54367 0.25808 0.6866 0.0
N553 N 0.53541 0.27534 0.6873 0.0
C554 C 0.56259 0.25783 0.69654 0.0
C555 C 0.56473 0.29344 0.70735 0.0
C556 C 0.54549 0.29285 0.69754 0.0
C557 C 0.57372 0.2758 0.70678 0.0
H558 H 0.53576 0.24454 0.6778 0.0
H559 H 0.53904 0.30659 0.69758 0.0
C560 C 0.45594 0.25816 0.62112 0.0
N561 N 0.43097 0.24182 0.58709 0.0
C562 C 0.43612 0.24942 0.62271 0.0
C563 C 0.46307 0.25866 0.60224 0.0
C564 C 0.42373 0.24122 0.60531 0.0
C565 C 0.45021 0.2503 0.58521 0.0
C566 C 0.49515 0.23853 0.68937 0.0
C567 C 0.50143 0.21961 0.68704 0.0
C568 C 0.49452 0.2475 0.70865 0.0
C569 C 0.50729 0.21013 0.70412 0.0
C570 C 0.50049 0.23753 0.72535 0.0
N571 N 0.50672 0.21922 0.72276 0.0
C572 C 0.50849 0.21861 0.62816 0.0
C573 C 0.47368 0.21226 0.61766 0.0
C574 C 0.51112 0.20106 0.61694 0.0
N575 N 0.49008 0.22402 0.62814 0.0
C576 C 0.47566 0.19461 0.60603 0.0
C577 C 0.49464 0.18889 0.60538 0.0
H578 H 0.52123 0.22807 0.63686 0.0
H579 H 0.45911 0.2166 0.6181 0.0
C580 C 0.44391 0.28867 0.68505 0.0
N581 N 0.45054 0.2706 0.68236 0.0
C582 C 0.42707 0.28988 0.69521 0.0
C583 C 0.42405 0.25378 0.6995 0.0
C584 C 0.44103 0.25329 0.68933 0.0
C585 C 0.41685 0.27227 0.70259 0.0
H586 H 0.4517 0.30217 0.67922 0.0
H587 H 0.44663 0.23911 0.68696 0.0
O588 O 0.5143 0.26924 0.64202 0.0
O589 O 0.49378 0.29541 0.67044 0.0
O590 O 0.46827 0.26622 0.63798 0.0
O591 O 0.48961 0.24814 0.67283 0.0
H592 H 0.54942 0.29289 0.65221 0.0
H593 H 0.51139 0.25709 0.60331 0.0
H594 H 0.57501 0.30194 0.62879 0.0
H595 H 0.53757 0.26689 0.58072 0.0
H596 H 0.49805 0.32469 0.73417 0.0
H597 H 0.51624 0.33055 0.66498 0.0
H598 H 0.48577 0.29593 0.70838 0.0
H599 H 0.52784 0.35881 0.69147 0.0
H600 H 0.52727 0.34713 0.60988 0.0
H601 H 0.46417 0.32776 0.59033 0.0
H602 H 0.56845 0.24366 0.69589 0.0
H603 H 0.57267 0.30781 0.71464 0.0
H604 H 0.4304 0.24894 0.63724 0.0
H605 H 0.47833 0.26549 0.60077 0.0
H606 H 0.40835 0.23438 0.6063 0.0
H607 H 0.45552 0.25057 0.5705 0.0
H608 H 0.50191 0.21243 0.67219 0.0
H609 H 0.48952 0.26201 0.71069 0.0
H610 H 0.5123 0.19555 0.70255 0.0
H611 H 0.50017 0.24435 0.74037 0.0
H612 H 0.52595 0.19708 0.6174 0.0
H613 H 0.46251 0.18581 0.59734 0.0
H614 H 0.42193 0.30439 0.69696 0.0
H615 H 0.4168 0.23988 0.70509 0.0
Li616 Li 0.02526 0.31077 0.88594 0.0
Li617 Li 0.00614 0.28699 0.85852 0.0
Li618 Li 0.02495 0.27389 0.88764 0.0
Li619 Li 0.04344 0.2914 0.86098 0.0
C620 C 0.99013 0.29326 0.90154 0.0
N621 N 0.96596 0.30251 0.93049 0.0
C622 C 0.9706 0.29634 0.89589 0.0
C623 C 0.9973 0.2947 0.92191 0.0
C624 C 0.95863 0.30106 0.91075 0.0
C625 C 0.98487 0.29944 0.93632 0.0
C626 C 0.02213 0.32286 0.8401 0.0
C627 C 0.01995 0.32562 0.80429 0.0
N628 N 0.01508 0.34455 0.8071 0.0
C629 C 0.01718 0.34237 0.84265 0.0
C630 C 0.0236 0.31442 0.8208 0.0
C631 C 0.01364 0.35308 0.82577 0.0
C632 C 0.0406 0.34686 0.91231 0.0
N633 N 0.02445 0.33606 0.90062 0.0
C634 C 0.0044 0.36104 0.90909 0.0
C635 C 0.00667 0.34291 0.89868 0.0
C636 C 0.02073 0.37264 0.92136 0.0
C637 C 0.03907 0.3653 0.92284 0.0
H638 H 0.05467 0.34123 0.91338 0.0
H639 H 0.99418 0.33425 0.88896 0.0
C640 C 0.97166 0.26501 0.83279 0.0
N641 N 0.98132 0.28353 0.84119 0.0
C642 C 0.95263 0.26308 0.82217 0.0
C643 C 0.95377 0.2993 0.8289 0.0
C644 C 0.97276 0.30053 0.83935 0.0
C645 C 0.94327 0.28034 0.8203 0.0
H646 H 0.97836 0.25157 0.83475 0.0
H647 H 0.98035 0.31497 0.84672 0.0
C648 C 0.06191 0.29357 0.90692 0.0
N649 N 0.08859 0.2873 0.93874 0.0
C650 C 0.07896 0.28524 0.90335 0.0
C651 C 0.05861 0.29902 0.92664 0.0
C652 C 0.09222 0.2821 0.91965 0.0
C653 C 0.07222 0.29564 0.94253 0.0
C654 C 0.01798 0.24925 0.84499 0.0
C655 C 0.00813 0.23099 0.8512 0.0
C656 C 0.02163 0.25049 0.8249 0.0
C657 C 0.0018 0.21431 0.83706 0.0
C658 C 0.01503 0.23348 0.81122 0.0
N659 N 0.00533 0.21591 0.81753 0.0
C660 C 0.00715 0.24531 0.91288 0.0
C661 C 0.04073 0.24267 0.90829 0.0
C662 C 0.0059 0.2291 0.92521 0.0
N663 N 0.02443 0.25192 0.90488 0.0
C664 C 0.04016 0.2264 0.92058 0.0
C665 C 0.02254 0.21936 0.92921 0.0
H666 H 0.99418 0.25245 0.9095 0.0
H667 H 0.05407 0.24767 0.90119 0.0
C668 C 0.07489 0.30829 0.83805 0.0
N669 N 0.06628 0.29141 0.84642 0.0
C670 C 0.09186 0.30773 0.82784 0.0
C671 C 0.09072 0.27249 0.83511 0.0
C672 C 0.07374 0.27368 0.84501 0.0
C673 C 0.10011 0.28968 0.82642 0.0
H674 H 0.06868 0.32222 0.83943 0.0
H675 H 0.06655 0.26048 0.85177 0.0
O676 O 0.00203 0.28859 0.88718 0.0
O677 O 0.02586 0.31229 0.8565 0.0
O678 O 0.04882 0.29683 0.89113 0.0
O679 O 0.02419 0.26573 0.85859 0.0
H680 H 0.96474 0.29511 0.88021 0.0
H681 H 0.01222 0.29198 0.92654 0.0
H682 H 0.94351 0.30354 0.90659 0.0
H683 H 0.99023 0.3006 0.95214 0.0
H684 H 0.02103 0.31927 0.78926 0.0
H685 H 0.01613 0.34917 0.85752 0.0
H686 H 0.02757 0.29942 0.81861 0.0
H687 H 0.00977 0.36818 0.82751 0.0
H688 H 0.98986 0.36574 0.90764 0.0
H689 H 0.05219 0.37381 0.93182 0.0
H690 H 0.94526 0.24815 0.81568 0.0
H691 H 0.94709 0.31298 0.82831 0.0
H692 H 0.08186 0.28113 0.88818 0.0
H693 H 0.04579 0.30595 0.92966 0.0
H694 H 0.1054 0.27554 0.91711 0.0
H695 H 0.06981 0.29973 0.95788 0.0
H696 H 0.00528 0.22978 0.86673 0.0
H697 H 0.02948 0.26441 0.81993 0.0
H698 H 0.99406 0.20012 0.84161 0.0
H699 H 0.01766 0.23425 0.7956 0.0
H700 H 0.99202 0.22429 0.93157 0.0
H701 H 0.05322 0.21908 0.92285 0.0
H702 H 0.09869 0.32139 0.82151 0.0
H703 H 0.09636 0.25819 0.83415 0.0
Li704 Li 0.41173 0.06678 0.26891 0.0
Li705 Li 0.38301 0.04982 0.24692 0.0
Li706 Li 0.41093 0.06702 0.23175 0.0
Li707 Li 0.38903 0.08684 0.25022 0.0
C708 C 0.42837 0.03669 0.24863 0.0
N709 N 0.46466 0.0231 0.24901 0.0
C710 C 0.42891 0.01586 0.24545 0.0
C711 C 0.44628 0.05064 0.25196 0.0
C712 C 0.44741 0.00928 0.24572 0.0
C713 C 0.46447 0.04346 0.2521 0.0
C714 C 0.37677 0.05724 0.2872 0.0
C715 C 0.35771 0.05346 0.31568 0.0
N716 N 0.36409 0.03544 0.31871 0.0
C717 C 0.38306 0.03863 0.29053 0.0
C718 C 0.36394 0.06469 0.29983 0.0
C719 C 0.37653 0.02787 0.30657 0.0
C720 C 0.42905 0.08281 0.30803 0.0
N721 N 0.42703 0.06616 0.29469 0.0
C722 C 0.44266 0.0478 0.31959 0.0
C723 C 0.43367 0.04884 0.30011 0.0
C724 C 0.44462 0.06461 0.33383 0.0
C725 C 0.43779 0.08236 0.32776 0.0
H726 H 0.42335 0.09628 0.30349 0.0
H727 H 0.43135 0.0355 0.2896 0.0
C728 C 0.36744 0.01031 0.23076 0.0
N729 N 0.36331 0.02555 0.24328 0.0
C730 C 0.35566 0.99098 0.22926 0.0
C731 C 0.33511 0.00352 0.25308 0.0
C732 C 0.34706 0.02276 0.25377 0.0
C733 C 0.33968 0.98708 0.24114 0.0
H734 H 0.38031 0.01305 0.22238 0.0
H735 H 0.34383 0.03522 0.26335 0.0
C736 C 0.43005 0.10751 0.24686 0.0
N737 N 0.45277 0.14136 0.23377 0.0
C738 C 0.42353 0.11563 0.22917 0.0
C739 C 0.44814 0.11651 0.25786 0.0
C740 C 0.43522 0.1328 0.22282 0.0
C741 C 0.45942 0.13363 0.25099 0.0
C742 C 0.36286 0.06232 0.21654 0.0
C743 C 0.35898 0.05085 0.19798 0.0
C744 C 0.3469 0.06652 0.22688 0.0
C745 C 0.33915 0.04368 0.1901 0.0
C746 C 0.32729 0.05909 0.21849 0.0
N747 N 0.32385 0.04791 0.20044 0.0
C748 C 0.41754 0.05019 0.19409 0.0
C749 C 0.44413 0.07644 0.20728 0.0
C750 C 0.42694 0.04709 0.17674 0.0
N751 N 0.426 0.06488 0.20879 0.0
C752 C 0.45415 0.07377 0.19021 0.0
C753 C 0.44553 0.059 0.17449 0.0
H754 H 0.40347 0.04073 0.19591 0.0
H755 H 0.45099 0.08758 0.21938 0.0
C756 C 0.37128 0.11682 0.27006 0.0
N757 N 0.37671 0.11087 0.25191 0.0
C758 C 0.36048 0.1329 0.27195 0.0
C759 C 0.36185 0.13717 0.23659 0.0
C760 C 0.37223 0.12067 0.2353 0.0
C761 C 0.35547 0.1434 0.25507 0.0
H762 H 0.37494 0.10873 0.28303 0.0
H763 H 0.37639 0.11548 0.22093 0.0
O764 O 0.41032 0.04327 0.24826 0.0
O765 O 0.38284 0.06802 0.2715 0.0
O766 O 0.41913 0.09047 0.25316 0.0
O767 O 0.38215 0.06896 0.22489 0.0
H768 H 0.41516 0.00489 0.24282 0.0
H769 H 0.44618 0.06681 0.25446 0.0
H770 H 0.44806 0.99319 0.2433 0.0
H771 H 0.47844 0.05407 0.25467 0.0
H772 H 0.34776 0.05904 0.32556 0.0
H773 H 0.39273 0.03245 0.28074 0.0
H774 H 0.35872 0.07894 0.29735 0.0
H775 H 0.38129 0.01346 0.30932 0.0
H776 H 0.44733 0.03367 0.32366 0.0
H777 H 0.43908 0.09572 0.33819 0.0
H778 H 0.35944 0.97909 0.21929 0.0
H779 H 0.32305 0.00141 0.26257 0.0
H780 H 0.40981 0.10851 0.22027 0.0
H781 H 0.45344 0.11025 0.27149 0.0
H782 H 0.4304 0.13923 0.20913 0.0
H783 H 0.47347 0.14075 0.25932 0.0
H784 H 0.37109 0.04749 0.18972 0.0
H785 H 0.34962 0.07514 0.24139 0.0
H786 H 0.33593 0.03475 0.17578 0.0
H787 H 0.3148 0.06212 0.22638 0.0
H788 H 0.41952 0.03561 0.16513 0.0
H789 H 0.46865 0.08302 0.18953 0.0
H790 H 0.35568 0.13657 0.28647 0.0
H791 H 0.35884 0.14483 0.22314 0.0
Li792 Li 0.28025 0.17812 0.5178 0.0
Li793 Li 0.28666 0.1481 0.50077 0.0
Li794 Li 0.27751 0.17365 0.48116 0.0
Li795 Li 0.25247 0.15119 0.49888 0.0
C796 C 0.31379 0.19477 0.50061 0.0
N797 N 0.33723 0.23282 0.50086 0.0
C798 C 0.33468 0.19677 0.50263 0.0
C799 C 0.30489 0.21214 0.49864 0.0
C800 C 0.34626 0.21613 0.50275 0.0
C801 C 0.31696 0.23122 0.49881 0.0
C802 C 0.27741 0.13665 0.53603 0.0
C803 C 0.27573 0.10293 0.54763 0.0
N804 N 0.29269 0.10958 0.5603 0.0
C805 C 0.29471 0.14322 0.54929 0.0
C806 C 0.26774 0.1164 0.53526 0.0
C807 C 0.30224 0.12927 0.56139 0.0
C808 C 0.26887 0.20249 0.54753 0.0
N809 N 0.28535 0.19733 0.54004 0.0
C810 C 0.30691 0.22101 0.56389 0.0
C811 C 0.30416 0.20596 0.54798 0.0
C812 C 0.29011 0.2269 0.57175 0.0
C813 C 0.27089 0.21736 0.56342 0.0
H814 H 0.25413 0.19505 0.54104 0.0
H815 H 0.31702 0.20121 0.54199 0.0
C816 C 0.29602 0.10777 0.49956 0.0
N817 N 0.30326 0.12804 0.50346 0.0
C818 C 0.30851 0.09344 0.50332 0.0
C819 C 0.33545 0.12118 0.51524 0.0
C820 C 0.32252 0.13492 0.51114 0.0
C821 C 0.32845 0.10015 0.51141 0.0
H822 H 0.28044 0.10272 0.4941 0.0
H823 H 0.32767 0.15108 0.51454 0.0
C824 C 0.24446 0.19481 0.49401 0.0
N825 N 0.21795 0.22129 0.48525 0.0
C826 C 0.2263 0.18782 0.48218 0.0
C827 C 0.24897 0.21528 0.50162 0.0
C828 C 0.21316 0.20144 0.47784 0.0
C829 C 0.23542 0.22842 0.49696 0.0
C830 C 0.27363 0.13083 0.46316 0.0
C831 C 0.29223 0.13602 0.45595 0.0
C832 C 0.26177 0.11191 0.45698 0.0
C833 C 0.29876 0.12207 0.44273 0.0
C834 C 0.26884 0.09838 0.44373 0.0
N835 N 0.28703 0.1037 0.43694 0.0
C836 C 0.2993 0.19451 0.45265 0.0
C837 C 0.26427 0.19404 0.44843 0.0
C838 C 0.30219 0.20864 0.43829 0.0
N839 N 0.28067 0.18831 0.45808 0.0
C840 C 0.2664 0.20799 0.43386 0.0
C841 C 0.28564 0.216 0.42914 0.0
H842 H 0.31207 0.18918 0.46006 0.0
H843 H 0.24957 0.18814 0.45233 0.0
C844 C 0.21947 0.13474 0.51732 0.0
N845 N 0.22598 0.13787 0.49907 0.0
C846 C 0.20016 0.12453 0.51864 0.0
C847 C 0.19451 0.12131 0.48231 0.0
C848 C 0.21411 0.13123 0.4817 0.0
C849 C 0.18727 0.11778 0.50099 0.0
H850 H 0.2294 0.14002 0.53085 0.0
H851 H 0.21983 0.13386 0.4674 0.0
O852 O 0.30229 0.17586 0.50062 0.0
O853 O 0.27011 0.14995 0.52371 0.0
O854 O 0.25735 0.18152 0.4987 0.0
O855 O 0.26701 0.14422 0.47617 0.0
H856 H 0.3419 0.18353 0.50406 0.0
H857 H 0.28885 0.21083 0.49669 0.0
H858 H 0.36242 0.21789 0.50433 0.0
H859 H 0.3102 0.24476 0.49724 0.0
H860 H 0.26851 0.08716 0.54709 0.0
H861 H 0.30238 0.15885 0.55 0.0
H862 H 0.25436 0.11109 0.52501 0.0
H863 H 0.31572 0.13408 0.5716 0.0
H864 H 0.32197 0.2279 0.56998 0.0
H865 H 0.25754 0.22095 0.56942 0.0
H866 H 0.30253 0.07733 0.50038 0.0
H867 H 0.3508 0.12697 0.52126 0.0
H868 H 0.22254 0.17213 0.47608 0.0
H869 H 0.26269 0.22105 0.51115 0.0
H870 H 0.19914 0.19622 0.46855 0.0
H871 H 0.23878 0.24428 0.50272 0.0
H872 H 0.3016 0.15057 0.46071 0.0
H873 H 0.24733 0.10771 0.46246 0.0
H874 H 0.31317 0.12583 0.43709 0.0
H875 H 0.25986 0.08365 0.43885 0.0
H876 H 0.31727 0.21424 0.43496 0.0
H877 H 0.25314 0.2126 0.42654 0.0
H878 H 0.19555 0.12175 0.53338 0.0
H879 H 0.18512 0.11669 0.46829 0.0
Li880 Li 0.15903 0.02687 0.7848 0.0
Li881 Li 0.13602 0.00584 0.80425 0.0
Li882 Li 0.15878 0.98786 0.78626 0.0
Li883 Li 0.13111 0.00084 0.76886 0.0
C884 C 0.16838 0.01393 0.82867 0.0
N885 N 0.17046 0.01951 0.87005 0.0
C886 C 0.16904 0.03342 0.83803 0.0
C887 C 0.16887 0.9973 0.84032 0.0
C888 C 0.17007 0.03592 0.85899 0.0
C889 C 0.16989 0.00043 0.86123 0.0
C890 C 0.11456 0.03553 0.78789 0.0
C891 C 0.079 0.03457 0.78795 0.0
N892 N 0.08231 0.05501 0.79315 0.0
C893 C 0.11761 0.05654 0.79307 0.0
C894 C 0.09511 0.02445 0.78518 0.0
C895 C 0.10112 0.0661 0.79573 0.0
C896 C 0.16541 0.06399 0.76777 0.0
N897 N 0.17356 0.05325 0.78205 0.0
C898 C 0.19995 0.08142 0.79206 0.0
C899 C 0.19056 0.06144 0.79407 0.0
C900 C 0.19181 0.09291 0.77742 0.0
C901 C 0.17438 0.08387 0.7651 0.0
H902 H 0.1517 0.05717 0.75866 0.0
H903 H 0.19667 0.05256 0.80536 0.0
C904 C 0.11585 0.98887 0.83607 0.0
N905 N 0.12238 0.00656 0.82783 0.0
C906 C 0.10476 0.98904 0.85259 0.0
C907 C 0.10751 0.02562 0.85185 0.0
C908 C 0.11879 0.02477 0.83564 0.0
C909 C 0.10021 0.00759 0.86058 0.0
H910 H 0.11915 0.97461 0.82972 0.0
H911 H 0.12456 0.03867 0.82918 0.0
C912 C 0.15694 1.00013 0.74253 0.0
N913 N 0.14989 0.99017 0.70155 0.0
C914 C 0.15232 0.97968 0.73501 0.0
C915 C 0.15809 0.01552 0.72923 0.0
C916 C 0.14878 0.97495 0.71424 0.0
C917 C 0.15445 0.01017 0.70856 0.0
C918 C 0.11522 0.9633 0.78282 0.0
C919 C 0.11941 0.94554 0.77306 0.0
C920 C 0.09575 0.96416 0.7874 0.0
C921 C 0.1039 0.92906 0.76764 0.0
C922 C 0.08066 0.94738 0.78171 0.0
N923 N 0.08501 0.93033 0.77201 0.0
C924 C 0.1708 0.95117 0.79791 0.0
C925 C 0.18822 0.9668 0.7724 0.0
C926 C 0.18114 0.9347 0.79662 0.0
N927 N 0.17444 0.9667 0.78581 0.0
C928 C 0.19874 0.95055 0.77045 0.0
C929 C 0.19517 0.93417 0.78258 0.0
H930 H 0.15952 0.95136 0.80822 0.0
H931 H 0.19078 0.97935 0.76295 0.0
C932 C 0.10869 0.01551 0.73839 0.0
N933 N 0.11193 0.99758 0.74565 0.0
C934 C 0.09559 0.01561 0.72115 0.0
C935 C 0.08961 0.97872 0.71875 0.0
C936 C 0.10279 0.97934 0.73617 0.0
C937 C 0.08589 0.99705 0.71106 0.0
H938 H 0.11663 0.0298 0.74579 0.0
H939 H 0.10603 0.96527 0.74172 0.0
O940 O 0.16663 0.01106 0.80816 0.0
O941 O 0.13058 0.026 0.78516 0.0
O942 O 0.15987 0.00503 0.76284 0.0
O943 O 0.13026 0.97948 0.78846 0.0
H944 H 0.16841 0.04641 0.8292 0.0
H945 H 0.16824 0.98211 0.83327 0.0
H946 H 0.17045 0.05089 0.86644 0.0
H947 H 0.17017 0.98768 0.87044 0.0
H948 H 0.06386 0.02618 0.78591 0.0
H949 H 0.13259 0.06534 0.79517 0.0
H950 H 0.09248 0.00828 0.78079 0.0
H951 H 0.10326 0.08234 0.79985 0.0
H952 H 0.21343 0.08778 0.80179 0.0
H953 H 0.16742 0.09227 0.75388 0.0
H954 H 0.09987 0.97479 0.859 0.0
H955 H 0.10425 0.04029 0.85716 0.0
H956 H 0.15119 0.96759 0.74511 0.0
H957 H 0.16166 0.03142 0.7348 0.0
H958 H 0.14506 0.95919 0.70821 0.0
H959 H 0.15521 0.02193 0.69808 0.0
H960 H 0.13442 0.94453 0.76953 0.0
H961 H 0.09234 0.97755 0.79543 0.0
H962 H 0.10689 0.91528 0.75995 0.0
H963 H 0.06551 0.94786 0.78509 0.0
H964 H 0.17782 0.92227 0.8061 0.0
H965 H 0.20959 0.95082 0.7596 0.0
H966 H 0.09358 0.03009 0.71543 0.0
H967 H 0.08252 0.96408 0.71131 0.0
Li968 Li 0.20616 0.90747 0.02274 0.0
Li969 Li 0.22477 0.88358 0.04111 0.0
Li970 Li 0.24322 0.91268 0.02529 0.0
Li971 Li 0.2245 0.88285 0.00362 0.0
C972 C 0.22653 0.93334 0.05506 0.0
N973 N 0.22862 0.97328 0.0702 0.0
C974 C 0.22924 0.93829 0.07582 0.0
C975 C 0.22482 0.94868 0.042 0.0
C976 C 0.23028 0.95858 0.08318 0.0
C977 C 0.22592 0.96878 0.04995 0.0
C978 C 0.18926 0.85955 0.02428 0.0
C979 C 0.17834 0.82311 0.01979 0.0
N980 N 0.16512 0.82467 0.03359 0.0
C981 C 0.17553 0.86083 0.03835 0.0
C982 C 0.19067 0.84058 0.01487 0.0
C983 C 0.16348 0.843 0.04288 0.0
C984 C 0.17821 0.93127 0.00568 0.0
N985 N 0.18294 0.92119 0.02203 0.0
C986 C 0.15608 0.93223 0.0382 0.0
C987 C 0.1722 0.92147 0.03813 0.0
C988 C 0.15104 0.94327 0.02169 0.0
C989 C 0.16251 0.94256 0.00527 0.0
H990 H 0.18684 0.93078 0.99299 0.0
H991 H 0.17626 0.91347 0.05105 0.0
C992 C 0.2392 0.87967 0.08092 0.0
N993 N 0.22734 0.86871 0.06514 0.0
C994 C 0.24336 0.87077 0.09889 0.0
C995 C 0.22327 0.8392 0.08419 0.0
C996 C 0.21933 0.84879 0.06652 0.0
C997 C 0.23547 0.8502 0.10072 0.0
H998 H 0.24578 0.89533 0.0794 0.0
H999 H 0.2103 0.84009 0.05381 0.0
C1000 C 0.2346 0.92226 0.98651 0.0
N1001 N 0.25636 0.94167 0.95836 0.0
C1002 C 0.25058 0.91416 0.97943 0.0
C1003 C 0.22975 0.94031 0.97932 0.0
C1004 C 0.26137 0.92417 0.96519 0.0
C1005 C 0.24091 0.94988 0.96508 0.0
C1006 C 0.26027 0.8707 0.02181 0.0
C1007 C 0.27746 0.87651 0.01225 0.0
C1008 C 0.25652 0.85118 0.02864 0.0
C1009 C 0.29051 0.86261 0.00956 0.0
C1010 C 0.26994 0.83773 0.02567 0.0
N1011 N 0.28651 0.84367 0.01626 0.0
C1012 C 0.28406 0.92536 0.03779 0.0
C1013 C 0.26972 0.95022 0.02034 0.0
C1014 C 0.30312 0.93708 0.03858 0.0
N1015 N 0.26791 0.93179 0.0283 0.0
C1016 C 0.28853 0.96246 0.02077 0.0
C1017 C 0.30564 0.95575 0.02964 0.0
H1018 H 0.28221 0.91077 0.04422 0.0
H1019 H 0.25667 0.9553 0.01325 0.0
C1020 C 0.21728 0.87418 0.96103 0.0
N1021 N 0.22465 0.86679 0.97818 0.0
C1022 C 0.21925 0.86492 0.94213 0.0
C1023 C 0.23549 0.83992 0.95869 0.0
C1024 C 0.23319 0.84965 0.97727 0.0
C1025 C 0.22879 0.84771 0.94072 0.0
H1026 H 0.21041 0.88771 0.96199 0.0
H1027 H 0.23847 0.84356 0.9909 0.0
O1028 O 0.22554 0.91355 0.04763 0.0
O1029 O 0.20106 0.87681 0.01952 0.0
O1030 O 0.22414 0.91286 0.00079 0.0
O1031 O 0.24738 0.88414 0.02477 0.0
H1032 H 0.2305 0.92659 0.08615 0.0
H1033 H 0.22265 0.94515 0.0259 0.0
H1034 H 0.2324 0.96264 0.09922 0.0
H1035 H 0.22464 0.98081 0.04 0.0
H1036 H 0.17929 0.80831 0.01267 0.0
H1037 H 0.17426 0.87541 0.04573 0.0
H1038 H 0.2012 0.83936 0.00392 0.0
H1039 H 0.15282 0.84373 0.05378 0.0
H1040 H 0.14768 0.93177 0.05112 0.0
H1041 H 0.15977 0.95098 0.99228 0.0
H1042 H 0.2531 0.8798 0.11106 0.0
H1043 H 0.21676 0.82334 0.08491 0.0
H1044 H 0.25461 0.90031 0.98491 0.0
H1045 H 0.21771 0.94707 0.98488 0.0
H1046 H 0.27376 0.91803 0.9596 0.0
H1047 H 0.23735 0.96388 0.95943 0.0
H1048 H 0.28076 0.8916 0.00702 0.0
H1049 H 0.2432 0.8463 0.0358 0.0
H1050 H 0.30384 0.8669 0.00216 0.0
H1051 H 0.26713 0.82253 0.03078 0.0
H1052 H 0.31583 0.93116 0.04545 0.0
H1053 H 0.28967 0.97692 0.01405 0.0
H1054 H 0.21391 0.87161 0.92877 0.0
H1055 H 0.2425 0.82643 0.95844 0.0
Li1056 Li 0.22805 0.40993 0.02746 0.0
Li1057 Li 0.24016 0.38464 0.04862 0.0
Li1058 Li 0.2632 0.40662 0.02842 0.0
Li1059 Li 0.23707 0.37892 0.01233 0.0
C1060 C 0.24518 0.42687 0.0672 0.0
N1061 N 0.23747 0.451 0.0996 0.0
C1062 C 0.22906 0.42027 0.07797 0.0
C1063 C 0.25739 0.44571 0.07289 0.0
C1064 C 0.22542 0.4327 0.09433 0.0
C1065 C 0.25323 0.45771 0.08931 0.0
C1066 C 0.1994 0.36635 0.02719 0.0
C1067 C 0.18507 0.33065 0.02596 0.0
N1068 N 0.1666 0.33539 0.02103 0.0
C1069 C 0.18028 0.37087 0.02216 0.0
C1070 C 0.20183 0.34609 0.02915 0.0
C1071 C 0.16388 0.355 0.01909 0.0
C1072 C 0.19888 0.42459 0.00486 0.0
N1073 N 0.2099 0.42816 0.02309 0.0
C1074 C 0.19437 0.45683 0.03121 0.0
C1075 C 0.20811 0.44404 0.03616 0.0
C1076 C 0.18263 0.45341 0.01251 0.0
C1077 C 0.18521 0.43715 0.99915 0.0
H1078 H 0.20086 0.41196 0.9947 0.0
H1079 H 0.21723 0.44688 0.05041 0.0
C1080 C 0.25522 0.36569 0.08114 0.0
N1081 N 0.23819 0.37036 0.07171 0.0
C1082 C 0.25412 0.35212 0.09614 0.0
C1083 C 0.21801 0.34905 0.09181 0.0
C1084 C 0.21983 0.36278 0.07699 0.0
C1085 C 0.23529 0.34328 0.10133 0.0
H1086 H 0.26959 0.37196 0.07648 0.0
H1087 H 0.20655 0.36685 0.06924 0.0
C1088 C 0.24683 0.42511 0.99543 0.0
N1089 N 0.25193 0.46166 0.97766 0.0
C1090 C 0.24292 0.42532 0.9746 0.0
C1091 C 0.25324 0.44349 0.00725 0.0
C1092 C 0.24562 0.44396 0.96589 0.0
C1093 C 0.25576 0.4618 0.99797 0.0
C1094 C 0.27136 0.36185 0.0308 0.0
C1095 C 0.29043 0.36544 0.02428 0.0
C1096 C 0.26378 0.34252 0.03651 0.0
C1097 C 0.30153 0.34955 0.02337 0.0
C1098 C 0.27535 0.32704 0.03541 0.0
N1099 N 0.29382 0.33083 0.0289 0.0
C1100 C 0.30132 0.4265 0.04504 0.0
C1101 C 0.29602 0.42417 0.00943 0.0
C1102 C 0.32066 0.43724 0.04471 0.0
N1103 N 0.28948 0.42038 0.02756 0.0
C1104 C 0.31506 0.43517 0.00839 0.0
C1105 C 0.32772 0.44191 0.02619 0.0
H1106 H 0.2957 0.42304 0.05922 0.0
H1107 H 0.28636 0.41883 0.99575 0.0
C1108 C 0.21202 0.35242 0.98204 0.0
N1109 N 0.23109 0.35848 0.99083 0.0
C1110 C 0.20796 0.33743 0.96604 0.0
C1111 C 0.24331 0.33574 0.96805 0.0
C1112 C 0.24664 0.35061 0.98405 0.0
C1113 C 0.22378 0.32902 0.95873 0.0
H1114 H 0.2 0.35951 0.98709 0.0
H1115 H 0.26174 0.35637 0.99059 0.0
O1116 O 0.24913 0.415 0.0512 0.0
O1117 O 0.21561 0.38172 0.02996 0.0
O1118 O 0.24376 0.40702 0.00419 0.0
O1119 O 0.26036 0.37731 0.03182 0.0
H1120 H 0.21932 0.40586 0.07358 0.0
H1121 H 0.26991 0.45102 0.06465 0.0
H1122 H 0.21297 0.42783 0.10279 0.0
H1123 H 0.26252 0.47235 0.09386 0.0
H1124 H 0.18676 0.3149 0.02737 0.0
H1125 H 0.17813 0.38648 0.02059 0.0
H1126 H 0.2165 0.34233 0.03293 0.0
H1127 H 0.149 0.35827 0.01514 0.0
H1128 H 0.19271 0.46899 0.04211 0.0
H1129 H 0.17679 0.43415 0.98443 0.0
H1130 H 0.26785 0.34845 0.10344 0.0
H1131 H 0.20321 0.34256 0.09529 0.0
H1132 H 0.23778 0.41121 0.96529 0.0
H1133 H 0.25614 0.44362 0.02342 0.0
H1134 H 0.24264 0.44435 0.94979 0.0
H1135 H 0.26071 0.47614 0.00692 0.0
H1136 H 0.29656 0.38032 0.01985 0.0
H1137 H 0.24921 0.33951 0.04188 0.0
H1138 H 0.31627 0.3521 0.01827 0.0
H1139 H 0.26966 0.31201 0.03978 0.0
H1140 H 0.32996 0.44169 0.05881 0.0
H1141 H 0.31961 0.43861 0.99378 0.0
H1142 H 0.1927 0.33284 0.95918 0.0
H1143 H 0.25609 0.33032 0.96245 0.0
Li1144 Li 0.79595 0.17931 0.02505 0.0
Li1145 Li 0.81411 0.15491 0.00646 0.0
Li1146 Li 0.79315 0.17847 0.98845 0.0
Li1147 Li 0.77669 0.14884 0.00464 0.0
C1148 C 0.82993 0.20122 0.01986 0.0
N1149 N 0.85241 0.23189 0.04607 0.0
C1150 C 0.84602 0.1971 0.0326 0.0
C1151 C 0.8253 0.22093 0.02037 0.0
C1152 C 0.85721 0.21282 0.04576 0.0
C1153 C 0.83683 0.23623 0.03375 0.0
C1154 C 0.79234 0.13606 0.04196 0.0
C1155 C 0.79231 0.10246 0.05352 0.0
N1156 N 0.78273 0.10775 0.06945 0.0
C1157 C 0.78268 0.14123 0.05858 0.0
C1158 C 0.79737 0.11658 0.03951 0.0
C1159 C 0.77787 0.12668 0.07225 0.0
C1160 C 0.77994 0.20589 0.05136 0.0
N1161 N 0.79534 0.1953 0.05012 0.0
C1162 C 0.80566 0.20337 0.08534 0.0
C1163 C 0.80827 0.19406 0.06662 0.0
C1164 C 0.78951 0.21397 0.08718 0.0
C1165 C 0.77681 0.21544 0.0697 0.0
H1166 H 0.76959 0.20639 0.03824 0.0
H1167 H 0.82012 0.18514 0.06543 0.0
C1168 C 0.84353 0.13517 0.98874 0.0
N1169 N 0.83709 0.14106 0.00646 0.0
C1170 C 0.85912 0.12374 0.98846 0.0
C1171 C 0.86161 0.1251 0.02469 0.0
C1172 C 0.84593 0.13643 0.02427 0.0
C1173 C 0.86833 0.11833 0.0066 0.0
H1174 H 0.83626 0.13897 0.97474 0.0
H1175 H 0.84061 0.1413 0.03818 0.0
C1176 C 0.75792 0.18741 0.99687 0.0
N1177 N 0.73102 0.2082 0.97693 0.0
C1178 C 0.73972 0.1768 0.98732 0.0
C1179 C 0.76239 0.2086 0.99637 0.0
C1180 C 0.72632 0.18759 0.97731 0.0
C1181 C 0.74862 0.21883 0.98617 0.0
C1182 C 0.79124 0.13156 0.96955 0.0
C1183 C 0.78575 0.13225 0.949 0.0
C1184 C 0.79406 0.11303 0.97709 0.0
C1185 C 0.78299 0.11431 0.93635 0.0
C1186 C 0.7912 0.09542 0.96396 0.0
N1187 N 0.78575 0.09641 0.94403 0.0
C1188 C 0.80283 0.21042 0.96163 0.0
C1189 C 0.77378 0.186 0.95115 0.0
C1190 C 0.79984 0.22068 0.94419 0.0
N1191 N 0.78986 0.19338 0.96475 0.0
C1192 C 0.77024 0.19572 0.93358 0.0
C1193 C 0.7834 0.21327 0.92978 0.0
H1194 H 0.81556 0.216 0.97259 0.0
H1195 H 0.76363 0.17247 0.95396 0.0
C1196 C 0.74277 0.12982 0.02063 0.0
N1197 N 0.75266 0.12906 0.00397 0.0
C1198 C 0.72427 0.11743 0.02125 0.0
C1199 C 0.726 0.10397 0.98728 0.0
C1200 C 0.74462 0.1165 0.98739 0.0
C1201 C 0.71552 0.10442 0.00435 0.0
H1202 H 0.74889 0.14067 0.0332 0.0
H1203 H 0.75223 0.11663 0.97399 0.0
O1204 O 0.81857 0.18595 0.00716 0.0
O1205 O 0.79735 0.1502 0.02852 0.0
O1206 O 0.7713 0.1771 0.00664 0.0
O1207 O 0.79378 0.14896 0.98217 0.0
H1208 H 0.84975 0.1819 0.03241 0.0
H1209 H 0.81287 0.22435 0.0106 0.0
H1210 H 0.86967 0.20985 0.05576 0.0
H1211 H 0.83339 0.25155 0.03435 0.0
H1212 H 0.79608 0.08731 0.05176 0.0
H1213 H 0.77871 0.15625 0.06078 0.0
H1214 H 0.80525 0.11242 0.02705 0.0
H1215 H 0.77027 0.13044 0.08509 0.0
H1216 H 0.81573 0.20154 0.09836 0.0
H1217 H 0.76436 0.22366 0.07017 0.0
H1218 H 0.8635 0.11875 0.9741 0.0
H1219 H 0.86838 0.12171 0.0391 0.0
H1220 H 0.73599 0.1604 0.98754 0.0
H1221 H 0.77643 0.21704 0.00364 0.0
H1222 H 0.7122 0.17957 0.96981 0.0
H1223 H 0.75194 0.23521 0.98557 0.0
H1224 H 0.78368 0.14648 0.94284 0.0
H1225 H 0.79833 0.11224 0.99291 0.0
H1226 H 0.77868 0.11461 0.92042 0.0
H1227 H 0.7933 0.08096 0.96962 0.0
H1228 H 0.8105 0.23403 0.94186 0.0
H1229 H 0.75719 0.18959 0.92315 0.0
H1230 H 0.71649 0.11871 0.03452 0.0
H1231 H 0.71974 0.09424 0.97387 0.0
Li1232 Li 0.13262 0.51264 0.27949 0.0
Li1233 Li 0.10479 0.49613 0.29733 0.0
Li1234 Li 0.12791 0.47511 0.27966 0.0
Li1235 Li 0.10273 0.4924 0.25994 0.0
C1236 C 0.14842 0.50488 0.3183 0.0
N1237 N 0.17684 0.52308 0.34906 0.0
C1238 C 0.14401 0.52002 0.33175 0.0
C1239 C 0.16725 0.49895 0.32051 0.0
C1240 C 0.15859 0.52905 0.3472 0.0
C1241 C 0.18142 0.50835 0.33616 0.0
C1242 C 0.09096 0.5298 0.27635 0.0
C1243 C 0.05666 0.53467 0.26997 0.0
N1244 N 0.06269 0.55521 0.27323 0.0
C1245 C 0.09685 0.55094 0.27956 0.0
C1246 C 0.07074 0.52156 0.27148 0.0
C1247 C 0.08232 0.56354 0.27795 0.0
C1248 C 0.14646 0.54694 0.26089 0.0
N1249 N 0.15097 0.53747 0.27769 0.0
C1250 C 0.17786 0.56488 0.28891 0.0
C1251 C 0.16655 0.54589 0.2915 0.0
C1252 C 0.17328 0.5752 0.27181 0.0
C1253 C 0.15753 0.56569 0.25752 0.0
H1254 H 0.13403 0.53994 0.25013 0.0
H1255 H 0.17011 0.53821 0.3047 0.0
C1256 C 0.08469 0.48318 0.33121 0.0
N1257 N 0.09041 0.49935 0.32041 0.0
C1258 C 0.07509 0.48581 0.34857 0.0
C1259 C 0.07723 0.52159 0.34323 0.0
C1260 C 0.08688 0.51831 0.32612 0.0
C1261 C 0.07126 0.50525 0.35481 0.0
H1262 H 0.08774 0.46827 0.32644 0.0
H1263 H 0.09198 0.53106 0.31766 0.0
C1264 C 0.14846 0.49708 0.24781 0.0
N1265 N 0.18353 0.509 0.23091 0.0
C1266 C 0.14784 0.50467 0.22883 0.0
C1267 C 0.16688 0.49547 0.25818 0.0
C1268 C 0.16575 0.51064 0.22055 0.0
C1269 C 0.18445 0.50159 0.24938 0.0
C1270 C 0.08055 0.45683 0.27343 0.0
C1271 C 0.08126 0.43833 0.26268 0.0
C1272 C 0.06221 0.4613 0.27855 0.0
C1273 C 0.06346 0.4247 0.25692 0.0
C1274 C 0.04475 0.44729 0.27248 0.0
N1275 N 0.04573 0.42944 0.26187 0.0
C1276 C 0.14963 0.44529 0.29635 0.0
C1277 C 0.14369 0.44346 0.26082 0.0
C1278 C 0.16121 0.42973 0.29527 0.0
N1279 N 0.14141 0.45199 0.27923 0.0
C1280 C 0.15512 0.42791 0.25905 0.0
C1281 C 0.16438 0.42103 0.2764 0.0
H1282 H 0.14765 0.4524 0.31082 0.0
H1283 H 0.13699 0.44908 0.24745 0.0
C1284 C 0.0916 0.50992 0.22545 0.0
N1285 N 0.08663 0.4925 0.2347 0.0
C1286 C 0.08287 0.51197 0.20615 0.0
C1287 C 0.06322 0.47839 0.20632 0.0
C1288 C 0.07253 0.4769 0.22566 0.0
C1289 C 0.06869 0.49596 0.19617 0.0
H1290 H 0.10278 0.52211 0.23295 0.0
H1291 H 0.0688 0.46312 0.23311 0.0
O1292 O 0.13429 0.4957 0.30322 0.0
O1293 O 0.10502 0.5173 0.27795 0.0
O1294 O 0.13116 0.49167 0.25642 0.0
O1295 O 0.09782 0.47028 0.27931 0.0
H1296 H 0.12957 0.52486 0.33019 0.0
H1297 H 0.17091 0.48726 0.31024 0.0
H1298 H 0.15542 0.54083 0.35769 0.0
H1299 H 0.19607 0.50395 0.33803 0.0
H1300 H 0.04095 0.52851 0.26618 0.0
H1301 H 0.11247 0.55753 0.28338 0.0
H1302 H 0.06598 0.50525 0.26875 0.0
H1303 H 0.08664 0.57993 0.28047 0.0
H1304 H 0.1897 0.57158 0.30048 0.0
H1305 H 0.15365 0.57266 0.24384 0.0
H1306 H 0.07063 0.47274 0.35695 0.0
H1307 H 0.07494 0.5369 0.34763 0.0
H1308 H 0.13369 0.50604 0.22063 0.0
H1309 H 0.1676 0.48973 0.27293 0.0
H1310 H 0.16551 0.51661 0.2059 0.0
H1311 H 0.19883 0.5005 0.25726 0.0
H1312 H 0.09539 0.43461 0.25876 0.0
H1313 H 0.06148 0.47539 0.2872 0.0
H1314 H 0.06373 0.41036 0.2485 0.0
H1315 H 0.03043 0.45057 0.27626 0.0
H1316 H 0.16817 0.42508 0.30905 0.0
H1317 H 0.1568 0.42146 0.24419 0.0
H1318 H 0.08733 0.5259 0.19902 0.0
H1319 H 0.05243 0.46564 0.19912 0.0
Li1320 Li 0.73069 0.91598 0.52624 0.0
Li1321 Li 0.74102 0.88972 0.54716 0.0
Li1322 Li 0.7644 0.90949 0.52678 0.0
Li1323 Li 0.7368 0.88482 0.51171 0.0
C1324 C 0.74507 0.92851 0.56673 0.0
N1325 N 0.73196 0.94598 0.60042 0.0
C1326 C 0.72588 0.92154 0.57195 0.0
C1327 C 0.75759 0.94435 0.57866 0.0
C1328 C 0.71953 0.93057 0.58903 0.0
C1329 C 0.75068 0.953 0.59563 0.0
C1330 C 0.70159 0.87215 0.52262 0.0
C1331 C 0.69029 0.83574 0.5182 0.0
N1332 N 0.67316 0.83888 0.50756 0.0
C1333 C 0.68385 0.87502 0.51172 0.0
C1334 C 0.70484 0.85236 0.52596 0.0
C1335 C 0.66967 0.858 0.5042 0.0
C1336 C 0.70203 0.93238 0.50474 0.0
N1337 N 0.71443 0.93595 0.52215 0.0
C1338 C 0.7014 0.96605 0.53095 0.0
C1339 C 0.71488 0.95275 0.53491 0.0
C1340 C 0.68777 0.96215 0.51353 0.0
C1341 C 0.68851 0.94541 0.50004 0.0
H1342 H 0.70239 0.91911 0.49471 0.0
H1343 H 0.72539 0.95572 0.54827 0.0
C1344 C 0.75668 0.87338 0.58068 0.0
N1345 N 0.73924 0.87609 0.57047 0.0
C1346 C 0.7564 0.86037 0.59613 0.0
C1347 C 0.72018 0.85377 0.59054 0.0
C1348 C 0.72117 0.8671 0.57535 0.0
C1349 C 0.73798 0.84995 0.60087 0.0
H1350 H 0.77079 0.88075 0.57626 0.0
H1351 H 0.70757 0.86962 0.56689 0.0
C1352 C 0.75153 0.93047 0.49543 0.0
N1353 N 0.76309 0.96747 0.47986 0.0
C1354 C 0.75039 0.93174 0.47463 0.0
C1355 C 0.75849 0.94803 0.50833 0.0
C1356 C 0.75632 0.95059 0.46705 0.0
C1357 C 0.76428 0.96659 0.50015 0.0
C1358 C 0.76918 0.86491 0.52315 0.0
C1359 C 0.77942 0.8671 0.50611 0.0
C1360 C 0.76864 0.84706 0.53316 0.0
C1361 C 0.78899 0.85132 0.49932 0.0
C1362 C 0.77841 0.83163 0.5259 0.0
N1363 N 0.7883 0.83407 0.50928 0.0
C1364 C 0.80193 0.92994 0.54354 0.0
C1365 C 0.79901 0.92325 0.5081 0.0
C1366 C 0.82133 0.9406 0.54353 0.0
N1367 N 0.79122 0.92172 0.52598 0.0
C1368 C 0.81835 0.93373 0.50739 0.0
C1369 C 0.8297 0.94275 0.52525 0.0
H1370 H 0.79523 0.92854 0.55749 0.0
H1371 H 0.79006 0.91667 0.49434 0.0
C1372 C 0.71647 0.87378 0.47473 0.0
N1373 N 0.72743 0.86597 0.48938 0.0
C1374 C 0.71015 0.86254 0.45644 0.0
C1375 C 0.72555 0.83489 0.4691 0.0
C1376 C 0.73117 0.84654 0.48735 0.0
C1377 C 0.7157 0.8433 0.45308 0.0
H1378 H 0.71327 0.88909 0.47705 0.0
H1379 H 0.73911 0.84031 0.49954 0.0
O1380 O 0.75176 0.91994 0.55012 0.0
O1381 O 0.71584 0.88859 0.52979 0.0
O1382 O 0.74569 0.91206 0.50295 0.0
O1383 O 0.75974 0.88013 0.53012 0.0
H1384 H 0.71588 0.90942 0.56288 0.0
H1385 H 0.77247 0.94996 0.57482 0.0
H1386 H 0.70471 0.92535 0.59322 0.0
H1387 H 0.7602 0.96529 0.60498 0.0
H1388 H 0.69268 0.82034 0.52054 0.0
H1389 H 0.68106 0.89022 0.50905 0.0
H1390 H 0.71862 0.84984 0.53413 0.0
H1391 H 0.65589 0.85999 0.49568 0.0
H1392 H 0.70126 0.97895 0.5416 0.0
H1393 H 0.67806 0.94184 0.48656 0.0
H1394 H 0.77046 0.85827 0.60406 0.0
H1395 H 0.70567 0.84599 0.59362 0.0
H1396 H 0.74499 0.91827 0.46447 0.0
H1397 H 0.75944 0.9474 0.52446 0.0
H1398 H 0.75554 0.95179 0.45098 0.0
H1399 H 0.76971 0.9803 0.50995 0.0
H1400 H 0.77973 0.8807 0.49806 0.0
H1401 H 0.76067 0.84509 0.54631 0.0
H1402 H 0.79693 0.85276 0.48611 0.0
H1403 H 0.77809 0.81771 0.53346 0.0
H1404 H 0.82946 0.94751 0.55761 0.0
H1405 H 0.82433 0.93478 0.49301 0.0
H1406 H 0.70212 0.86937 0.44464 0.0
H1407 H 0.73014 0.82011 0.46719 0.0
Li1408 Li 0.89011 0.05671 0.26128 0.0
Li1409 Li 0.86059 0.03321 0.24258 0.0
Li1410 Li 0.8853 0.0558 0.2257 0.0
Li1411 Li 0.86297 0.07134 0.24414 0.0
C1412 C 0.90292 0.02209 0.25063 0.0
N1413 N 0.93016 0.00097 0.26958 0.0
C1414 C 0.89624 0.00402 0.25932 0.0
C1415 C 0.92346 0.0293 0.25142 0.0
C1416 C 0.91025 0.99359 0.26886 0.0
C1417 C 0.93699 0.01845 0.26112 0.0
C1418 C 0.85042 0.06164 0.27888 0.0
C1419 C 0.81819 0.06767 0.28756 0.0
N1420 N 0.82745 0.08165 0.30259 0.0
C1421 C 0.85964 0.07602 0.29442 0.0
C1422 C 0.82954 0.05738 0.27541 0.0
C1423 C 0.84775 0.08598 0.30625 0.0
C1424 C 0.92356 0.07439 0.28941 0.0
N1425 N 0.90823 0.05847 0.28478 0.0
C1426 C 0.91812 0.0425 0.31411 0.0
C1427 C 0.90508 0.0429 0.29689 0.0
C1428 C 0.93419 0.05859 0.3192 0.0
C1429 C 0.93677 0.07484 0.30681 0.0
H1430 H 0.92549 0.08674 0.27967 0.0
H1431 H 0.89244 0.03074 0.29307 0.0
C1432 C 0.84453 0.99256 0.22776 0.0
N1433 N 0.84454 0.00706 0.24296 0.0
C1434 C 0.83502 0.9725 0.22905 0.0
C1435 C 0.82543 0.98279 0.26145 0.0
C1436 C 0.8352 0.0026 0.25957 0.0
C1437 C 0.82549 0.9673 0.2462 0.0
H1438 H 0.85257 0.9964 0.21498 0.0
H1439 H 0.83585 0.01429 0.27167 0.0
C1440 C 0.90489 0.09352 0.23567 0.0
N1441 N 0.93086 0.11985 0.21616 0.0
C1442 C 0.89817 0.10959 0.22609 0.0
C1443 C 0.92486 0.09097 0.23551 0.0
C1444 C 0.91152 0.12273 0.21628 0.0
C1445 C 0.93773 0.10439 0.22549 0.0
C1446 C 0.85148 0.0544 0.20086 0.0
C1447 C 0.85067 0.07408 0.19504 0.0
C1448 C 0.84852 0.03796 0.18628 0.0
C1449 C 0.84697 0.07699 0.17465 0.0
C1450 C 0.84485 0.0415 0.16603 0.0
N1451 N 0.84417 0.06078 0.16069 0.0
C1452 C 0.90976 0.04041 0.19939 0.0
C1453 C 0.89978 0.07093 0.18906 0.0
C1454 C 0.92132 0.03952 0.18339 0.0
N1455 N 0.89946 0.05605 0.20213 0.0
C1456 C 0.91103 0.07054 0.17266 0.0
C1457 C 0.9221 0.0547 0.16969 0.0
H1458 H 0.90913 0.02858 0.20971 0.0
H1459 H 0.89141 0.08318 0.19134 0.0
C1460 C 0.8564 0.11037 0.25759 0.0
N1461 N 0.84765 0.0927 0.24681 0.0
C1462 C 0.84572 0.12644 0.25998 0.0
C1463 C 0.81711 0.10566 0.24038 0.0
C1464 C 0.82836 0.09 0.23838 0.0
C1465 C 0.82581 0.12426 0.2512 0.0
H1466 H 0.87174 0.11199 0.26427 0.0
H1467 H 0.82173 0.07565 0.23011 0.0
O1468 O 0.88944 0.03265 0.24138 0.0
O1469 O 0.8618 0.05221 0.26675 0.0
O1470 O 0.89205 0.08054 0.2454 0.0
O1471 O 0.85494 0.05122 0.22076 0.0
H1472 H 0.88043 0.99819 0.25889 0.0
H1473 H 0.9289 0.04317 0.24467 0.0
H1474 H 0.90528 0.97965 0.27574 0.0
H1475 H 0.95292 0.02392 0.26192 0.0
H1476 H 0.80201 0.06463 0.28498 0.0
H1477 H 0.87581 0.07959 0.29717 0.0
H1478 H 0.8222 0.04646 0.26326 0.0
H1479 H 0.85467 0.09722 0.31828 0.0
H1480 H 0.91546 0.02993 0.32356 0.0
H1481 H 0.94894 0.08757 0.31044 0.0
H1482 H 0.83582 0.96107 0.21707 0.0
H1483 H 0.81813 0.97962 0.27485 0.0
H1484 H 0.88277 0.11181 0.22606 0.0
H1485 H 0.93034 0.07872 0.24296 0.0
H1486 H 0.90651 0.13517 0.20872 0.0
H1487 H 0.9532 0.10251 0.22514 0.0
H1488 H 0.85313 0.08701 0.20609 0.0
H1489 H 0.84906 0.02264 0.19054 0.0
H1490 H 0.84641 0.09215 0.16993 0.0
H1491 H 0.84254 0.02892 0.15457 0.0
H1492 H 0.9298 0.02716 0.18201 0.0
H1493 H 0.91089 0.08243 0.16236 0.0
H1494 H 0.85311 0.14054 0.26827 0.0
H1495 H 0.80172 0.10316 0.23366 0.0
Li1496 Li 0.29563 0.67982 0.52432 0.0
Li1497 Li 0.31369 0.65521 0.50505 0.0
Li1498 Li 0.29292 0.67949 0.48659 0.0
Li1499 Li 0.27677 0.65028 0.50373 0.0
C1500 C 0.3323 0.70167 0.51508 0.0
N1501 N 0.36157 0.73281 0.53315 0.0
C1502 C 0.34826 0.6972 0.52778 0.0
C1503 C 0.33138 0.72192 0.51129 0.0
C1504 C 0.36288 0.71318 0.53685 0.0
C1505 C 0.34628 0.73746 0.52066 0.0
C1506 C 0.29007 0.63358 0.53651 0.0
C1507 C 0.28455 0.59698 0.5373 0.0
N1508 N 0.27531 0.59879 0.55429 0.0
C1509 C 0.28059 0.63512 0.554 0.0
C1510 C 0.29214 0.61441 0.52809 0.0
C1511 C 0.2732 0.61733 0.56276 0.0
C1512 C 0.27567 0.69602 0.55478 0.0
N1513 N 0.29446 0.69522 0.54979 0.0
C1514 C 0.30843 0.71254 0.58176 0.0
C1515 C 0.31076 0.70322 0.56292 0.0
C1516 C 0.28912 0.71372 0.58725 0.0
C1517 C 0.27266 0.70547 0.57318 0.0
H1518 H 0.26282 0.6889 0.54461 0.0
H1519 H 0.32557 0.70188 0.55913 0.0
C1520 C 0.34364 0.63611 0.48744 0.0
N1521 N 0.33665 0.6414 0.50505 0.0
C1522 C 0.35921 0.62463 0.48725 0.0
C1523 C 0.36053 0.62473 0.52337 0.0
C1524 C 0.34487 0.63609 0.52284 0.0
C1525 C 0.36781 0.61854 0.50538 0.0
H1526 H 0.33678 0.64037 0.47344 0.0
H1527 H 0.33907 0.64044 0.53666 0.0
C1528 C 0.26076 0.69388 0.50486 0.0
N1529 N 0.23869 0.72524 0.50532 0.0
C1530 C 0.23986 0.68954 0.50175 0.0
C1531 C 0.27044 0.71413 0.50824 0.0
C1532 C 0.22897 0.70562 0.50202 0.0
C1533 C 0.25902 0.72978 0.50841 0.0
C1534 C 0.28546 0.63504 0.46592 0.0
C1535 C 0.27099 0.63906 0.45116 0.0
C1536 C 0.29182 0.61608 0.46511 0.0
C1537 C 0.26303 0.62395 0.43581 0.0
C1538 C 0.28349 0.60138 0.44952 0.0
N1539 N 0.26939 0.60559 0.43531 0.0
C1540 C 0.30607 0.70054 0.45262 0.0
C1541 C 0.27154 0.69826 0.45622 0.0
C1542 C 0.30371 0.71048 0.43488 0.0
N1543 N 0.29008 0.69465 0.46292 0.0
C1544 C 0.26859 0.70843 0.43882 0.0
C1545 C 0.28475 0.71464 0.42781 0.0
H1546 H 0.32063 0.6973 0.45805 0.0
H1547 H 0.25886 0.69288 0.46412 0.0
C1548 C 0.2413 0.63699 0.519 0.0
N1549 N 0.25215 0.63149 0.50417 0.0
C1550 C 0.22248 0.62586 0.52098 0.0
C1551 C 0.22612 0.60343 0.49232 0.0
C1552 C 0.24506 0.61488 0.49106 0.0
C1553 C 0.21452 0.60896 0.50739 0.0
H1554 H 0.2472 0.65033 0.52915 0.0
H1555 H 0.25385 0.61056 0.47946 0.0
O1556 O 0.31792 0.68624 0.50599 0.0
O1557 O 0.29721 0.65078 0.52759 0.0
O1558 O 0.2716 0.67829 0.50484 0.0
O1559 O 0.29368 0.64972 0.48086 0.0
H1560 H 0.34925 0.68159 0.53074 0.0
H1561 H 0.31939 0.72559 0.50111 0.0
H1562 H 0.37525 0.70997 0.54683 0.0
H1563 H 0.34572 0.75322 0.51794 0.0
H1564 H 0.28599 0.58202 0.53092 0.0
H1565 H 0.27888 0.64989 0.56067 0.0
H1566 H 0.29943 0.61301 0.51452 0.0
H1567 H 0.26577 0.61825 0.57628 0.0
H1568 H 0.32167 0.71819 0.59208 0.0
H1569 H 0.25746 0.70615 0.57627 0.0
H1570 H 0.36402 0.6201 0.47296 0.0
H1571 H 0.36681 0.62083 0.53778 0.0
H1572 H 0.23215 0.67392 0.49911 0.0
H1573 H 0.28657 0.71768 0.51089 0.0
H1574 H 0.21278 0.7025 0.49962 0.0
H1575 H 0.26631 0.74554 0.51105 0.0
H1576 H 0.26592 0.65365 0.45159 0.0
H1577 H 0.30299 0.61273 0.47645 0.0
H1578 H 0.2518 0.62683 0.42428 0.0
H1579 H 0.28822 0.58663 0.44872 0.0
H1580 H 0.3166 0.71504 0.42689 0.0
H1581 H 0.25365 0.71097 0.43376 0.0
H1582 H 0.21399 0.63084 0.53267 0.0
H1583 H 0.22062 0.59038 0.48164 0.0
Li1584 Li 0.36275 0.5372 0.74413 0.0
Li1585 Li 0.39215 0.56032 0.76122 0.0
Li1586 Li 0.36351 0.57423 0.74327 0.0
Li1587 Li 0.3873 0.5588 0.72453 0.0
C1588 C 0.34966 0.55066 0.77915 0.0
N1589 N 0.32081 0.53576 0.80328 0.0
C1590 C 0.35527 0.54384 0.79782 0.0
C1591 C 0.32941 0.55021 0.7729 0.0
C1592 C 0.34045 0.53627 0.80976 0.0
C1593 C 0.31504 0.54254 0.78527 0.0
C1594 C 0.40739 0.52702 0.7475 0.0
C1595 C 0.44304 0.52753 0.75281 0.0
N1596 N 0.43966 0.50837 0.75911 0.0
C1597 C 0.40427 0.50724 0.75378 0.0
C1598 C 0.42693 0.53716 0.7468 0.0
C1599 C 0.42077 0.49811 0.75968 0.0
C1600 C 0.33376 0.50153 0.73054 0.0
N1601 N 0.34711 0.51099 0.74598 0.0
C1602 C 0.34097 0.48193 0.76514 0.0
C1603 C 0.35078 0.50164 0.76308 0.0
C1604 C 0.32726 0.47158 0.74939 0.0
C1605 C 0.32358 0.48172 0.73195 0.0
H1606 H 0.33129 0.50918 0.71699 0.0
H1607 H 0.36188 0.50927 0.7749 0.0
C1608 C 0.42347 0.58055 0.79056 0.0
N1609 N 0.41104 0.56274 0.78419 0.0
C1610 C 0.43718 0.58154 0.80767 0.0
C1611 C 0.42503 0.54584 0.81106 0.0
C1612 C 0.41143 0.54564 0.79416 0.0
C1613 C 0.43808 0.56395 0.81803 0.0
H1614 H 0.42262 0.594 0.78249 0.0
H1615 H 0.40099 0.53186 0.78906 0.0
C1616 C 0.34184 0.55678 0.70748 0.0
N1617 N 0.31044 0.56513 0.68181 0.0
C1618 C 0.34556 0.56611 0.68979 0.0
C1619 C 0.32213 0.55135 0.71192 0.0
C1620 C 0.32949 0.57029 0.67705 0.0
C1621 C 0.30646 0.5558 0.69881 0.0
C1622 C 0.40591 0.5982 0.73611 0.0
C1623 C 0.39859 0.61354 0.72581 0.0
C1624 C 0.42653 0.59813 0.73862 0.0
C1625 C 0.41197 0.62827 0.71779 0.0
C1626 C 0.43943 0.61311 0.73036 0.0
N1627 N 0.43194 0.62773 0.72018 0.0
C1628 C 0.34344 0.60159 0.76371 0.0
C1629 C 0.34194 0.60511 0.72869 0.0
C1630 C 0.33248 0.6174 0.76635 0.0
N1631 N 0.34782 0.59564 0.74508 0.0
C1632 C 0.331 0.62105 0.73064 0.0
C1633 C 0.3261 0.62741 0.74968 0.0
H1634 H 0.34859 0.59412 0.77659 0.0
H1635 H 0.3461 0.60066 0.71413 0.0
C1636 C 0.40996 0.54183 0.69745 0.0
N1637 N 0.40153 0.55865 0.7012 0.0
C1638 C 0.42179 0.54073 0.68171 0.0
C1639 C 0.41522 0.57385 0.67299 0.0
C1640 C 0.40371 0.57443 0.68919 0.0
C1641 C 0.4246 0.55686 0.66914 0.0
H1642 H 0.40764 0.52922 0.70679 0.0
H1643 H 0.39648 0.58744 0.69206 0.0
O1644 O 0.36395 0.5579 0.76714 0.0
O1645 O 0.39141 0.53634 0.7419 0.0
O1646 O 0.3574 0.55257 0.7201 0.0
O1647 O 0.393 0.58365 0.74407 0.0
H1648 H 0.37088 0.54428 0.80301 0.0
H1649 H 0.32485 0.55584 0.75871 0.0
H1650 H 0.34457 0.53081 0.82419 0.0
H1651 H 0.2993 0.54204 0.78058 0.0
H1652 H 0.45824 0.53527 0.75243 0.0
H1653 H 0.38929 0.49898 0.75409 0.0
H1654 H 0.42961 0.55227 0.74158 0.0
H1655 H 0.41856 0.48284 0.76468 0.0
H1656 H 0.34463 0.47462 0.77868 0.0
H1657 H 0.31304 0.47441 0.71948 0.0
H1658 H 0.44695 0.59581 0.81273 0.0
H1659 H 0.42493 0.53211 0.81893 0.0
H1660 H 0.36069 0.57021 0.686 0.0
H1661 H 0.31893 0.54366 0.72526 0.0
H1662 H 0.33217 0.57765 0.6634 0.0
H1663 H 0.29114 0.55177 0.70212 0.0
H1664 H 0.38273 0.61397 0.72386 0.0
H1665 H 0.43255 0.58674 0.74696 0.0
H1666 H 0.40647 0.64012 0.70965 0.0
H1667 H 0.4554 0.61315 0.73211 0.0
H1668 H 0.32894 0.62162 0.78129 0.0
H1669 H 0.32681 0.62858 0.71741 0.0
H1670 H 0.42886 0.52742 0.67966 0.0
H1671 H 0.41654 0.58647 0.66351 0.0
Li1672 Li 0.60363 0.99265 0.7935 0.0
Li1673 Li 0.6306 0.01029 0.77771 0.0
Li1674 Li 0.60071 0.99133 0.75625 0.0
Li1675 Li 0.62625 0.97282 0.7769 0.0
C1676 C 0.59335 0.03047 0.78153 0.0
N1677 N 0.57413 0.06212 0.79312 0.0
C1678 C 0.60347 0.04658 0.79491 0.0
C1679 C 0.57356 0.03061 0.77379 0.0
C1680 C 0.59346 0.0624 0.80065 0.0
C1681 C 0.56407 0.0467 0.77992 0.0
C1682 C 0.64539 0.00267 0.81626 0.0
C1683 C 0.67668 0.0069 0.83747 0.0
N1684 N 0.67127 0.0228 0.84817 0.0
C1685 C 0.64009 0.01897 0.82752 0.0
C1686 C 0.66379 0.9965 0.8213 0.0
C1687 C 0.65339 0.02898 0.84357 0.0
C1688 C 0.59691 0.98874 0.83468 0.0
N1689 N 0.58859 0.99387 0.81682 0.0
C1690 C 0.56058 0.00258 0.83264 0.0
C1691 C 0.57052 1.00024 0.81549 0.0
C1692 C 0.56919 0.99817 0.85146 0.0
C1693 C 0.58751 0.99087 0.85222 0.0
H1694 H 0.61101 0.98318 0.83539 0.0
H1695 H 0.56379 0.00364 0.80114 0.0
C1696 C 0.64304 0.04804 0.76394 0.0
N1697 N 0.6494 0.03495 0.77693 0.0
C1698 C 0.65527 0.06638 0.76131 0.0
C1699 C 0.68051 0.05766 0.78557 0.0
C1700 C 0.66787 0.03927 0.7875 0.0
C1701 C 0.67422 0.07146 0.77231 0.0
H1702 H 0.6284 0.04411 0.75551 0.0
H1703 H 0.67293 0.02845 0.79727 0.0
C1704 C 0.57975 0.95866 0.78238 0.0
N1705 N 0.54758 0.94208 0.80166 0.0
C1706 C 0.58256 0.94622 0.79809 0.0
C1707 C 0.5606 0.9626 0.77638 0.0
C1708 C 0.56609 0.938 0.80767 0.0
C1709 C 0.54452 0.95408 0.78634 0.0
C1710 C 0.64626 0.99848 0.74543 0.0
C1711 C 0.6443 0.00977 0.72869 0.0
C1712 C 0.66529 0.99621 0.75387 0.0
C1713 C 0.66152 0.01874 0.72068 0.0
C1714 C 0.68213 0.00541 0.74541 0.0
N1715 N 0.67992 0.0164 0.72914 0.0
C1716 C 0.58381 0.0112 0.72494 0.0
C1717 C 0.57745 0.9752 0.71877 0.0
C1718 C 0.57417 0.01349 0.70605 0.0
N1719 N 0.58526 0.9923 0.73094 0.0
C1720 C 0.56787 0.97679 0.69959 0.0
C1721 C 0.5662 0.99616 0.69297 0.0
H1722 H 0.59059 0.02458 0.73468 0.0
H1723 H 0.57903 0.96035 0.72379 0.0
C1724 C 0.64721 0.9424 0.79325 0.0
N1725 N 0.64035 0.95006 0.77607 0.0
C1726 C 0.65918 0.92715 0.79245 0.0
C1727 C 0.65641 0.92763 0.75629 0.0
C1728 C 0.64451 0.94283 0.75779 0.0
C1729 C 0.6642 0.91973 0.77379 0.0
H1730 H 0.6438 0.94851 0.80762 0.0
H1731 H 0.63892 0.94921 0.74436 0.0
O1732 O 0.60297 0.01503 0.77537 0.0
O1733 O 0.63256 0.99258 0.80055 0.0
O1734 O 0.59576 0.96744 0.77331 0.0
O1735 O 0.62966 0.99016 0.75392 0.0
H1736 H 0.61895 0.04703 0.80061 0.0
H1737 H 0.56556 0.0183 0.76333 0.0
H1738 H 0.6011 0.07495 0.81102 0.0
H1739 H 0.54871 0.04693 0.77417 0.0
H1740 H 0.69101 0.00235 0.84151 0.0
H1741 H 0.62578 0.02371 0.82403 0.0
H1742 H 0.66812 0.98391 0.81273 0.0
H1743 H 0.64947 0.04162 0.85241 0.0
H1744 H 0.54652 0.00825 0.8312 0.0
H1745 H 0.59454 0.98678 0.86623 0.0
H1746 H 0.6498 0.07668 0.75105 0.0
H1747 H 0.69512 0.06095 0.79416 0.0
H1748 H 0.59735 0.94317 0.80296 0.0
H1749 H 0.55826 0.97235 0.76433 0.0
H1750 H 0.56804 0.92844 0.81994 0.0
H1751 H 0.52962 0.95709 0.78195 0.0
H1752 H 0.62966 0.01175 0.72209 0.0
H1753 H 0.66702 0.98769 0.76698 0.0
H1754 H 0.66027 0.02761 0.70778 0.0
H1755 H 0.69696 0.0039 0.75184 0.0
H1756 H 0.57357 0.02871 0.70148 0.0
H1757 H 0.56189 0.96303 0.69002 0.0
H1758 H 0.66496 0.92172 0.80636 0.0
H1759 H 0.65955 0.92221 0.74155 0.0
Li1760 Li 0.77909 0.67709 0.02028 0.0
Li1761 Li 0.78586 0.64724 0.00376 0.0
Li1762 Li 0.77309 0.67067 0.98368 0.0
Li1763 Li 0.7518 0.64795 0.00501 0.0
C1764 C 0.80897 0.69492 0.99887 0.0
N1765 N 0.82845 0.73412 0.99521 0.0
C1766 C 0.82984 0.69899 0.99946 0.0
C1767 C 0.79806 0.71084 0.99645 0.0
C1768 C 0.8394 0.71889 0.99759 0.0
C1769 C 0.80815 0.73052 0.99459 0.0
C1770 C 0.7824 0.64009 0.04249 0.0
C1771 C 0.78493 0.61265 0.06391 0.0
N1772 N 0.804 0.62155 0.07076 0.0
C1773 C 0.80195 0.64906 0.04985 0.0
C1774 C 0.77373 0.62182 0.04963 0.0
C1775 C 0.81266 0.6394 0.0641 0.0
C1776 C 0.7687 0.70126 0.05062 0.0
N1777 N 0.7848 0.6976 0.0414 0.0
C1778 C 0.80618 0.7245 0.06194 0.0
C1779 C 0.80339 0.70855 0.04689 0.0
C1780 C 0.78967 0.72896 0.07136 0.0
C1781 C 0.77076 0.71705 0.06561 0.0
H1782 H 0.7542 0.69197 0.04614 0.0
H1783 H 0.81604 0.70495 0.03966 0.0
C1784 C 0.82313 0.63576 0.00192 0.0
N1785 N 0.80405 0.62852 0.00526 0.0
C1786 C 0.83771 0.62342 0.00395 0.0
C1787 C 0.81261 0.5961 0.01233 0.0
C1788 C 0.79849 0.60907 0.01021 0.0
C1789 C 0.83256 0.60331 0.0093 0.0
H1790 H 0.82707 0.65125 0.99796 0.0
H1791 H 0.78313 0.6037 0.01269 0.0
C1792 C 0.73937 0.68946 0.00096 0.0
N1793 N 0.70904 0.71255 0.99713 0.0
C1794 C 0.72024 0.68058 0.99213 0.0
C1795 C 0.74304 0.71017 0.00778 0.0
C1796 C 0.70512 0.69248 0.99034 0.0
C1797 C 0.72752 0.72155 0.00572 0.0
C1798 C 0.77073 0.62488 0.97097 0.0
C1799 C 0.78628 0.62859 0.9588 0.0
C1800 C 0.762 0.6048 0.97332 0.0
C1801 C 0.79302 0.61208 0.94933 0.0
C1802 C 0.76914 0.58871 0.96357 0.0
N1803 N 0.78439 0.59265 0.95189 0.0
C1804 C 0.7897 0.68798 0.95047 0.0
C1805 C 0.75647 0.6928 0.95427 0.0
C1806 C 0.79074 0.701 0.93495 0.0
N1807 N 0.77284 0.68447 0.95996 0.0
C1808 C 0.75699 0.70623 0.93922 0.0
C1809 C 0.77435 0.71067 0.92942 0.0
H1810 H 0.80257 0.68123 0.95542 0.0
H1811 H 0.74319 0.68958 0.9618 0.0
C1812 C 0.71824 0.63474 0.02506 0.0
N1813 N 0.72617 0.63371 0.00726 0.0
C1814 C 0.69889 0.62462 0.02657 0.0
C1815 C 0.69651 0.61254 0.99145 0.0
C1816 C 0.71586 0.62288 0.99063 0.0
C1817 C 0.68775 0.61345 0.00955 0.0
H1818 H 0.72689 0.64361 0.03797 0.0
H1819 H 0.72258 0.62253 0.97666 0.0
O1820 O 0.79947 0.67546 0.00087 0.0
O1821 O 0.77178 0.64915 0.02835 0.0
O1822 O 0.75432 0.67791 0.00298 0.0
O1823 O 0.76415 0.64085 0.98059 0.0
H1824 H 0.83862 0.68696 0.00147 0.0
H1825 H 0.78199 0.70803 0.99581 0.0
H1826 H 0.85554 0.72223 0.99806 0.0
H1827 H 0.79983 0.74293 0.99264 0.0
H1828 H 0.77847 0.59845 0.06951 0.0
H1829 H 0.80886 0.66319 0.04441 0.0
H1830 H 0.75858 0.61474 0.04408 0.0
H1831 H 0.82786 0.64607 0.06982 0.0
H1832 H 0.82104 0.73317 0.0662 0.0
H1833 H 0.75777 0.71952 0.07299 0.0
H1834 H 0.85298 0.62979 0.00183 0.0
H1835 H 0.80798 0.58066 0.01629 0.0
H1836 H 0.71714 0.66475 0.98638 0.0
H1837 H 0.75767 0.71747 0.01462 0.0
H1838 H 0.69029 0.68577 0.98349 0.0
H1839 H 0.73018 0.73755 0.01096 0.0
H1840 H 0.79323 0.64404 0.9569 0.0
H1841 H 0.75005 0.60166 0.98282 0.0
H1842 H 0.80514 0.61472 0.93997 0.0
H1843 H 0.76263 0.57308 0.96536 0.0
H1844 H 0.80429 0.70359 0.92756 0.0
H1845 H 0.74405 0.71346 0.9358 0.0
H1846 H 0.69258 0.62588 0.04074 0.0
H1847 H 0.68852 0.6039 0.97806 0.0
Li1848 Li 0.88332 0.54695 0.75165 0.0
Li1849 Li 0.91376 0.56753 0.77313 0.0
Li1850 Li 0.88793 0.58493 0.75249 0.0
Li1851 Li 0.91026 0.56586 0.73647 0.0
C1852 C 0.87194 0.56325 0.78966 0.0
N1853 N 0.84684 0.55564 0.81941 0.0
C1854 C 0.87824 0.55402 0.80676 0.0
C1855 C 0.85295 0.56887 0.78785 0.0
C1856 C 0.86532 0.55022 0.82159 0.0
C1857 C 0.84046 0.56482 0.80301 0.0
C1858 C 0.92332 0.53198 0.74443 0.0
C1859 C 0.95589 0.52467 0.73832 0.0
N1860 N 0.94715 0.51046 0.72328 0.0
C1861 C 0.91464 0.51724 0.72899 0.0
C1862 C 0.94409 0.53572 0.7492 0.0
C1863 C 0.92696 0.50655 0.71844 0.0
C1864 C 0.85447 0.51272 0.73378 0.0
N1865 N 0.86514 0.52173 0.75113 0.0
C1866 C 0.85241 0.49344 0.76916 0.0
C1867 C 0.86449 0.51237 0.76856 0.0
C1868 C 0.8411 0.48377 0.75154 0.0
C1869 C 0.84222 0.49368 0.73366 0.0
H1870 H 0.85571 0.52013 0.71994 0.0
H1871 H 0.87381 0.51934 0.78191 0.0
C1872 C 0.9313 0.58406 0.81235 0.0
N1873 N 0.92938 0.56785 0.7985 0.0
C1874 C 0.94052 0.58312 0.8318 0.0
C1875 C 0.94598 0.54904 0.82219 0.0
C1876 C 0.93655 0.55058 0.80302 0.0
C1877 C 0.94785 0.56534 0.837 0.0
H1878 H 0.92515 0.59749 0.80846 0.0
H1879 H 0.93431 0.53767 0.79195 0.0
C1880 C 0.86231 0.56491 0.7199 0.0
N1881 N 0.82423 0.56642 0.70227 0.0
C1882 C 0.85946 0.57037 0.70015 0.0
C1883 C 0.84579 0.56022 0.73065 0.0
C1884 C 0.84009 0.57106 0.69151 0.0
C1885 C 0.82666 0.56105 0.72148 0.0
C1886 C 0.93223 0.60301 0.74716 0.0
C1887 C 0.92696 0.61227 0.72975 0.0
C1888 C 0.95217 0.60623 0.7556 0.0
C1889 C 0.94188 0.62444 0.72086 0.0
C1890 C 0.96663 0.61854 0.74628 0.0
N1891 N 0.96123 0.62729 0.72923 0.0
C1892 C 0.87149 0.61619 0.77197 0.0
C1893 C 0.86698 0.61569 0.73647 0.0
C1894 C 0.86039 0.63203 0.7738 0.0
N1895 N 0.87421 0.60807 0.75352 0.0
C1896 C 0.85579 0.63157 0.7376 0.0
C1897 C 0.85209 0.63978 0.75647 0.0
H1898 H 0.87768 0.61012 0.78532 0.0
H1899 H 0.86964 0.6093 0.72196 0.0
C1900 C 0.91357 0.55585 0.69562 0.0
N1901 N 0.92484 0.56366 0.71306 0.0
C1902 C 0.92258 0.55243 0.67811 0.0
C1903 C 0.95482 0.56492 0.69671 0.0
C1904 C 0.94516 0.56812 0.7139 0.0
C1905 C 0.94352 0.55694 0.67845 0.0
H1906 H 0.89752 0.55178 0.6954 0.0
H1907 H 0.95396 0.57373 0.72798 0.0
O1908 O 0.88457 0.56739 0.77515 0.0
O1909 O 0.91156 0.54298 0.75456 0.0
O1910 O 0.88124 0.56444 0.72862 0.0
O1911 O 0.9179 0.59102 0.75606 0.0
H1912 H 0.89289 0.54963 0.8085 0.0
H1913 H 0.84791 0.57645 0.775 0.0
H1914 H 0.86997 0.54297 0.83483 0.0
H1915 H 0.82573 0.56906 0.80176 0.0
H1916 H 0.972 0.5275 0.74175 0.0
H1917 H 0.89858 0.51428 0.72506 0.0
H1918 H 0.95105 0.54728 0.76095 0.0
H1919 H 0.92047 0.49518 0.70637 0.0
H1920 H 0.85247 0.48614 0.78316 0.0
H1921 H 0.83379 0.48678 0.71971 0.0
H1922 H 0.94173 0.5961 0.84269 0.0
H1923 H 0.95104 0.5349 0.82558 0.0
H1924 H 0.8721 0.57425 0.69165 0.0
H1925 H 0.84769 0.55575 0.74581 0.0
H1926 H 0.83768 0.57531 0.67626 0.0
H1927 H 0.81374 0.5574 0.72964 0.0
H1928 H 0.91155 0.60992 0.7231 0.0
H1929 H 0.95642 0.59919 0.76914 0.0
H1930 H 0.93807 0.63162 0.7073 0.0
H1931 H 0.98215 0.62111 0.75257 0.0
H1932 H 0.85833 0.63812 0.78868 0.0
H1933 H 0.84967 0.63695 0.72381 0.0
H1934 H 0.91323 0.54583 0.66456 0.0
H1935 H 0.97099 0.56871 0.69774 0.0
Li1936 Li 0.72427 0.38054 0.54095 0.0
Li1937 Li 0.70487 0.40487 0.52291 0.0
Li1938 Li 0.72365 0.3802 0.50366 0.0
Li1939 Li 0.74238 0.41034 0.52539 0.0
C1940 C 0.68792 0.35745 0.52546 0.0
N1941 N 0.66319 0.32433 0.53749 0.0
C1942 C 0.67213 0.36044 0.53659 0.0
C1943 C 0.69094 0.33763 0.52017 0.0
C1944 C 0.65984 0.3435 0.54261 0.0
C1945 C 0.67833 0.32108 0.52648 0.0
C1946 C 0.73033 0.42497 0.56268 0.0
C1947 C 0.73242 0.45959 0.57666 0.0
N1948 N 0.74288 0.45501 0.59363 0.0
C1949 C 0.7409 0.42053 0.58032 0.0
C1950 C 0.72585 0.44458 0.56088 0.0
C1951 C 0.74719 0.43596 0.59577 0.0
C1952 C 0.74505 0.35976 0.56956 0.0
N1953 N 0.72679 0.36492 0.56437 0.0
C1954 C 0.71454 0.35048 0.59367 0.0
C1955 C 0.71166 0.36064 0.57616 0.0
C1956 C 0.73321 0.34475 0.59923 0.0
C1957 C 0.74854 0.34954 0.58681 0.0
H1958 H 0.75719 0.36405 0.5606 0.0
H1959 H 0.69748 0.36546 0.57226 0.0
C1960 C 0.6762 0.42715 0.5048 0.0
N1961 N 0.68191 0.41879 0.52196 0.0
C1962 C 0.66034 0.43821 0.50397 0.0
C1963 C 0.65581 0.43121 0.53825 0.0
C1964 C 0.67207 0.42065 0.53855 0.0
C1965 C 0.64971 0.44041 0.52082 0.0
H1966 H 0.68411 0.42546 0.49172 0.0
H1967 H 0.67689 0.41393 0.55208 0.0
C1968 C 0.75943 0.36852 0.52036 0.0
N1969 N 0.78482 0.34142 0.51189 0.0
C1970 C 0.77923 0.37578 0.51717 0.0
C1971 C 0.75258 0.34751 0.51939 0.0
C1972 C 0.79183 0.36182 0.51286 0.0
C1973 C 0.76564 0.33405 0.51506 0.0
C1974 C 0.72518 0.42569 0.48949 0.0
C1975 C 0.72603 0.42221 0.46884 0.0
C1976 C 0.72656 0.44562 0.49802 0.0
C1977 C 0.72819 0.4388 0.457 0.0
C1978 C 0.72871 0.46181 0.48567 0.0
N1979 N 0.72946 0.4581 0.46559 0.0
C1980 C 0.70913 0.35353 0.46745 0.0
C1981 C 0.7435 0.36797 0.47144 0.0
C1982 C 0.71115 0.34399 0.44863 0.0
N1983 N 0.72523 0.36527 0.47841 0.0
C1984 C 0.74631 0.35836 0.45306 0.0
C1985 C 0.72999 0.34632 0.44107 0.0
H1986 H 0.69464 0.35188 0.47312 0.0
H1987 H 0.75597 0.37784 0.48008 0.0
C1988 C 0.7777 0.43727 0.54428 0.0
N1989 N 0.76698 0.42939 0.52656 0.0
C1990 C 0.79674 0.44901 0.54447 0.0
C1991 C 0.79337 0.44443 0.50821 0.0
C1992 C 0.77447 0.43274 0.50873 0.0
C1993 C 0.80493 0.45255 0.52626 0.0
H1994 H 0.77185 0.43394 0.55831 0.0
H1995 H 0.76611 0.42563 0.49487 0.0
O1996 O 0.7001 0.37385 0.51945 0.0
O1997 O 0.72404 0.41006 0.54742 0.0
O1998 O 0.74688 0.38198 0.52452 0.0
O1999 O 0.72297 0.40959 0.50125 0.0
H2000 H 0.6695 0.37568 0.54066 0.0
H2001 H 0.7028 0.33505 0.51117 0.0
H2002 H 0.64765 0.34558 0.55135 0.0
H2003 H 0.68053 0.30565 0.52256 0.0
H2004 H 0.72915 0.47487 0.57545 0.0
H2005 H 0.74437 0.40538 0.58198 0.0
H2006 H 0.71733 0.44814 0.54749 0.0
H2007 H 0.75551 0.43279 0.60946 0.0
H2008 H 0.70225 0.34714 0.60274 0.0
H2009 H 0.76333 0.34596 0.59068 0.0
H2010 H 0.65678 0.44523 0.49025 0.0
H2011 H 0.64808 0.43198 0.55159 0.0
H2012 H 0.78479 0.39201 0.51796 0.0
H2013 H 0.73738 0.34169 0.52208 0.0
H2014 H 0.80717 0.36721 0.51029 0.0
H2015 H 0.76053 0.31774 0.51424 0.0
H2016 H 0.72497 0.40684 0.46203 0.0
H2017 H 0.72601 0.44854 0.51398 0.0
H2018 H 0.72883 0.43635 0.44098 0.0
H2019 H 0.72978 0.47733 0.49206 0.0
H2020 H 0.69795 0.33527 0.43999 0.0
H2021 H 0.76125 0.36044 0.44843 0.0
H2022 H 0.80507 0.455 0.55876 0.0
H2023 H 0.79919 0.44631 0.49384 0.0
Li2024 Li 0.63269 0.50313 0.30366 0.0
Li2025 Li 0.65736 0.52408 0.28572 0.0
Li2026 Li 0.62807 0.50045 0.26663 0.0
Li2027 Li 0.65672 0.4871 0.28327 0.0
C2028 C 0.61194 0.53324 0.28912 0.0
N2029 N 0.5787 0.55033 0.29661 0.0
C2030 C 0.6142 0.55356 0.29689 0.0
C2031 C 0.59277 0.52172 0.2849 0.0
C2032 C 0.59721 0.56189 0.30065 0.0
C2033 C 0.57615 0.5306 0.28885 0.0
C2034 C 0.67867 0.51804 0.31943 0.0
C2035 C 0.71419 0.53025 0.32559 0.0
N2036 N 0.71108 0.54221 0.34182 0.0
C2037 C 0.67582 0.53028 0.33627 0.0
C2038 C 0.698 0.51786 0.31412 0.0
C2039 C 0.6924 0.54245 0.34736 0.0
C2040 C 0.60881 0.48423 0.33211 0.0
N2041 N 0.61822 0.50236 0.3267 0.0
C2042 C 0.60411 0.52059 0.35205 0.0
C2043 C 0.61646 0.52032 0.3366 0.0
C2044 C 0.5935 0.50217 0.35745 0.0
C2045 C 0.59627 0.48377 0.34749 0.0
H2046 H 0.61066 0.47014 0.32416 0.0
H2047 H 0.62441 0.53451 0.33228 0.0
C2048 C 0.68338 0.55503 0.26948 0.0
N2049 N 0.67322 0.55064 0.2856 0.0
C2050 C 0.69348 0.57477 0.2679 0.0
C2051 C 0.68255 0.58524 0.29958 0.0
C2052 C 0.67272 0.56524 0.30058 0.0
C2053 C 0.69294 0.59032 0.28292 0.0
H2054 H 0.6832 0.54338 0.25751 0.0
H2055 H 0.66416 0.56153 0.31303 0.0
C2056 C 0.61283 0.46152 0.27884 0.0
N2057 N 0.58322 0.42829 0.26661 0.0
C2058 C 0.61752 0.44413 0.26883 0.0
C2059 C 0.5931 0.46185 0.28289 0.0
C2060 C 0.60234 0.42753 0.2627 0.0
C2061 C 0.57834 0.44495 0.27651 0.0
C2062 C 0.66805 0.50063 0.24677 0.0
C2063 C 0.65921 0.49271 0.22761 0.0
C2064 C 0.68885 0.50328 0.25112 0.0
C2065 C 0.67136 0.48741 0.21314 0.0
C2066 C 0.70047 0.49778 0.23625 0.0
N2067 N 0.69156 0.49002 0.21773 0.0
C2068 C 0.60526 0.5164 0.23703 0.0
C2069 C 0.60035 0.48025 0.23349 0.0
C2070 C 0.59195 0.51675 0.21996 0.0
N2071 N 0.60911 0.49835 0.24351 0.0
C2072 C 0.58686 0.47987 0.21636 0.0
C2073 C 0.58257 0.49831 0.20933 0.0
H2074 H 0.61277 0.53059 0.24502 0.0
H2075 H 0.60401 0.46612 0.23851 0.0
C2076 C 0.68235 0.46055 0.29844 0.0
N2077 N 0.67247 0.46571 0.2814 0.0
C2078 C 0.69364 0.44476 0.29755 0.0
C2079 C 0.68472 0.4402 0.26159 0.0
C2080 C 0.67325 0.45569 0.26324 0.0
C2081 C 0.69501 0.43453 0.2789 0.0
H2082 H 0.68133 0.46859 0.31274 0.0
H2083 H 0.66469 0.45943 0.25 0.0
O2084 O 0.62843 0.52479 0.28551 0.0
O2085 O 0.66261 0.50622 0.30825 0.0
O2086 O 0.62756 0.47789 0.285 0.0
O2087 O 0.65636 0.50579 0.26113 0.0
H2088 H 0.62891 0.56277 0.30009 0.0
H2089 H 0.59072 0.50616 0.27848 0.0
H2090 H 0.59875 0.57756 0.30678 0.0
H2091 H 0.56123 0.52182 0.28569 0.0
H2092 H 0.72924 0.53034 0.32161 0.0
H2093 H 0.66096 0.53049 0.34064 0.0
H2094 H 0.70047 0.50824 0.30131 0.0
H2095 H 0.69041 0.55211 0.36035 0.0
H2096 H 0.60283 0.5351 0.35962 0.0
H2097 H 0.58838 0.46922 0.3511 0.0
H2098 H 0.70147 0.57781 0.2549 0.0
H2099 H 0.68139 0.59673 0.31138 0.0
H2100 H 0.63269 0.44347 0.26571 0.0
H2101 H 0.58919 0.47492 0.29102 0.0
H2102 H 0.60577 0.41404 0.25483 0.0
H2103 H 0.56301 0.44505 0.2795 0.0
H2104 H 0.64314 0.49061 0.22398 0.0
H2105 H 0.69592 0.50948 0.26583 0.0
H2106 H 0.66472 0.48121 0.19827 0.0
H2107 H 0.71658 0.49968 0.23943 0.0
H2108 H 0.58949 0.53134 0.21485 0.0
H2109 H 0.57996 0.46529 0.20866 0.0
H2110 H 0.70134 0.44068 0.31123 0.0
H2111 H 0.68514 0.43237 0.24701 0.0
Tb2112 Tb 0.01463 0.05298 0.01032 0.0
C2113 C 0.01784 0.02064 0.97521 0.0
Tb2114 Tb 0.00359 0.00731 0.01693 0.0
O2115 O 0.04575 0.04926 0.00772 0.0
O2116 O 0.02826 0.03081 0.02553 0.0
O2117 O 0.01513 0.03955 0.98011 0.0
C2118 C 0.0041 0.96855 0.02485 0.0
O2119 O 0.01522 0.0058 0.98758 0.0
C2120 C 0.97321 0.02655 0.00891 0.0
C2121 C 0.0005 0.03964 0.05208 0.0
O2122 O 0.01854 0.98375 0.02998 0.0
O2123 O 0.98938 0.9751 0.01488 0.0
O2124 O 0.97245 0.01079 0.01948 0.0
O2125 O 0.9899 0.02947 0.00183 0.0
O2126 O 0.00341 0.02077 0.04722 0.0
O2127 O 0.00278 0.05441 0.03958 0.0
C2128 C 0.0139 0.09157 0.00175 0.0
O2129 O 0.02828 0.08549 0.01274 0.0
O2130 O 1.0 0.07604 0.99607 0.0
C2131 C 0.04493 0.03362 0.01845 0.0
Tb2132 Tb 0.26383 0.80547 0.2677 0.0
C2133 C 0.30057 0.78047 0.26903 0.0
Tb2134 Tb 0.25637 0.75749 0.25774 0.0
O2135 O 0.26608 0.80547 0.30097 0.0
O2136 O 0.2614 0.77893 0.2826 0.0
O2137 O 0.29415 0.79824 0.26734 0.0
C2138 C 0.24367 0.71736 0.2578 0.0
O2139 O 0.28835 0.76258 0.26732 0.0
C2140 C 0.26277 0.78043 0.22741 0.0
C2141 C 0.21947 0.78168 0.26054 0.0
O2142 O 0.25641 0.7284 0.27141 0.0
O2143 O 0.2383 0.72887 0.24405 0.0
O2144 O 0.26697 0.76204 0.228 0.0
O2145 O 0.25402 0.78407 0.24259 0.0
O2146 O 0.22638 0.76412 0.262 0.0
O2147 O 0.23135 0.79968 0.26065 0.0
C2148 C 0.27503 0.84398 0.25953 0.0
O2149 O 0.26188 0.83808 0.27182 0.0
O2150 O 0.28164 0.82825 0.25198 0.0
C2151 C 0.26389 0.78562 0.30076 0.0
Tb2152 Tb 0.52741 0.03023 0.50784 0.0
C2153 C 0.51542 0.01979 0.55162 0.0
Tb2154 Tb 0.48268 0.02631 0.51749 0.0
O2155 O 0.53792 0.06221 0.5201 0.0
O2156 O 0.5089 0.04794 0.52093 0.0
O2157 O 0.52821 0.01893 0.5379 0.0
C2158 C 0.44556 0.03142 0.5228 0.0
O2159 O 0.49737 0.02471 0.54757 0.0
C2160 C 0.49514 0.99261 0.50552 0.0
C2161 C 0.49537 0.04132 0.47528 0.0
O2162 O 0.4614 0.03898 0.53491 0.0
O2163 O 0.4506 0.02095 0.50769 0.0
O2164 O 0.48098 0.99295 0.5172 0.0
O2165 O 0.50006 0.01019 0.49999 0.0
O2166 O 0.48269 0.04172 0.4893 0.0
O2167 O 0.51295 0.03507 0.47855 0.0
C2168 C 0.55989 0.01524 0.5005 0.0
O2169 O 0.55597 0.03266 0.49475 0.0
O2170 O 0.54558 0.00655 0.51007 0.0
C2171 C 0.52056 0.06451 0.52575 0.0
Tb2172 Tb 0.26051 0.28615 0.78751 0.0
C2173 C 0.27231 0.32403 0.76316 0.0
Tb2174 Tb 0.25703 0.27904 0.74162 0.0
O2175 O 0.29324 0.29329 0.78937 0.0
O2176 O 0.27664 0.27327 0.76618 0.0
O2177 O 0.26747 0.31787 0.78078 0.0
C2178 C 0.26801 0.27734 0.70474 0.0
O2179 O 0.2707 0.31131 0.74676 0.0
C2180 C 0.2235 0.28183 0.75663 0.0
C2181 C 0.24505 0.24122 0.76576 0.0
O2182 O 0.25143 0.28274 0.70944 0.0
O2183 O 0.27796 0.27243 0.7206 0.0
O2184 O 0.22416 0.27229 0.73921 0.0
O2185 O 0.24072 0.29128 0.76309 0.0
O2186 O 0.25067 0.24727 0.74834 0.0
O2187 O 0.24594 0.25409 0.78196 0.0
C2188 C 0.24973 0.28876 0.82438 0.0
O2189 O 0.26347 0.27875 0.81891 0.0
O2190 O 0.24274 0.29778 0.80937 0.0
C2191 C 0.29391 0.28273 0.77249 0.0
Tb2192 Tb 0.00294 0.03234 0.49356 0.0
C2193 C 0.96902 0.01747 0.52052 0.0
Tb2194 Tb 0.01394 0.03224 0.54022 0.0
O2195 O 0.99647 0.9989 0.48947 0.0
O2196 O 0.01574 0.01389 0.51382 0.0
O2197 O 0.97325 0.02526 0.50335 0.0
C2198 C 0.02334 0.02096 0.57681 0.0
O2199 O 0.98275 0.01698 0.53591 0.0
C2200 C 0.01009 0.06778 0.52746 0.0
C2201 C 0.04774 0.04777 0.51327 0.0
O2202 O 0.00987 0.03221 0.57227 0.0
O2203 O 0.03151 0.01621 0.56084 0.0
O2204 O 0.01968 0.06573 0.54473 0.0
O2205 O 0.0011 0.05054 0.52003 0.0
O2206 O 0.04354 0.04048 0.53065 0.0
O2207 O 0.03412 0.04765 0.49766 0.0
C2208 C 0.99454 0.0424 0.45626 0.0
O2209 O 0.00732 0.03069 0.4616 0.0
O2210 O 0.9864 0.04831 0.47186 0.0
C2211 C 0.00636 0.99674 0.50652 0.0
Tb2212 Tb 0.28175 0.78174 0.77101 0.0
C2213 C 0.25384 0.79025 0.80397 0.0
Tb2214 Tb 0.23711 0.77865 0.75754 0.0
O2215 O 0.28452 0.81433 0.7796 0.0
O2216 O 0.26328 0.80009 0.75626 0.0
O2217 O 0.27134 0.78485 0.80073 0.0
C2218 C 0.20049 0.78709 0.74987 0.0
O2219 O 0.2394 0.79042 0.78916 0.0
C2220 C 0.24942 0.74378 0.76161 0.0
C2221 C 0.26498 0.7704 0.72449 0.0
O2222 O 0.20482 0.77158 0.75916 0.0
O2223 O 0.21667 0.79756 0.74463 0.0
O2224 O 0.23416 0.74596 0.7492 0.0
O2225 O 0.25556 0.76029 0.77228 0.0
O2226 O 0.24728 0.77514 0.72787 0.0
O2227 O 0.2797 0.77069 0.73913 0.0
C2228 C 0.31847 0.77337 0.77814 0.0
O2229 O 0.31408 0.78944 0.7699 0.0
O2230 O 0.3023 0.76236 0.78275 0.0
C2231 C 0.26938 0.81655 0.76705 0.0
Tb2232 Tb 0.48706 0.02434 0.01176 0.0
C2233 C 0.51298 0.98964 0.01066 0.0
Tb2234 Tb 0.53312 0.03622 0.0172 0.0
O2235 O 0.48659 0.01141 0.98089 0.0
O2236 O 0.50995 0.03443 0.99322 0.0
O2237 O 0.49556 0.99458 0.01469 0.0
C2238 C 0.57224 0.045 0.01316 0.0
O2239 O 0.52906 0.00344 0.009 0.0
C2240 C 0.51542 0.03832 0.05034 0.0
C2241 C 0.50724 0.071 0.01689 0.0
O2242 O 0.56444 0.03314 0.02606 0.0
O2243 O 0.55807 0.05179 0.00271 0.0
O2244 O 0.5325 0.04924 0.04798 0.0
O2245 O 0.51031 0.0255 0.03536 0.0
O2246 O 0.52482 0.06594 0.01385 0.0
O2247 O 0.4909 0.05741 0.01806 0.0
C2248 C 0.44838 0.01631 0.01789 0.0
O2249 O 0.45519 0.02367 0.00191 0.0
O2250 O 0.46334 0.01367 0.03037 0.0
C2251 C 0.50406 0.02146 0.97832 0.0
Tb2252 Tb 0.2405 0.27431 0.27202 0.0
C2253 C 0.27298 0.2868 0.30844 0.0
Tb2254 Tb 0.28204 0.29204 0.26337 0.0
O2255 O 0.2511 0.24649 0.28105 0.0
O2256 O 0.26399 0.26295 0.25874 0.0
O2257 O 0.25355 0.28446 0.30248 0.0
C2258 C 0.32096 0.29615 0.2597 0.0
O2259 O 0.2867 0.28856 0.29559 0.0
C2260 C 0.25751 0.31841 0.26605 0.0
C2261 C 0.2494 0.27997 0.22692 0.0
O2262 O 0.31037 0.31065 0.25811 0.0
O2263 O 0.30963 0.27951 0.2633 0.0
O2264 O 0.27218 0.32035 0.25486 0.0
O2265 O 0.2585 0.30343 0.27647 0.0
O2266 O 0.26887 0.28268 0.23283 0.0
O2267 O 0.23567 0.27785 0.23977 0.0
C2268 C 0.20167 0.2676 0.27662 0.0
O2269 O 0.21351 0.25425 0.27835 0.0
O2270 O 0.21166 0.28467 0.27213 0.0
C2271 C 0.26528 0.24816 0.26933 0.0
Tb2272 Tb 0.50077 0.53341 0.99239 0.0
C2273 C 0.4657 0.5177 0.01766 0.0
Tb2274 Tb 0.5102 0.53184 0.0387 0.0
O2275 O 0.49344 0.50013 0.9881 0.0
O2276 O 0.51379 0.51464 0.01205 0.0
O2277 O 0.47061 0.52533 0.00063 0.0
C2278 C 0.51663 0.5197 0.07553 0.0
O2279 O 0.47883 0.51733 0.03359 0.0
C2280 C 0.50722 0.56789 0.02658 0.0
C2281 C 0.5455 0.54686 0.01377 0.0
O2282 O 0.50818 0.53525 0.07116 0.0
O2283 O 0.52137 0.51106 0.05922 0.0
O2284 O 0.51715 0.56526 0.04349 0.0
O2285 O 0.49781 0.55091 0.01885 0.0
O2286 O 0.54049 0.53886 0.03061 0.0
O2287 O 0.5323 0.54776 0.99802 0.0
C2288 C 0.49429 0.54491 0.95535 0.0
O2289 O 0.506 0.53213 0.96064 0.0
O2290 O 0.48613 0.55105 0.97084 0.0
C2291 C 0.50423 0.49768 0.00455 0.0
Tb2292 Tb 0.78057 0.28076 0.27093 0.0
C2293 C 0.75265 0.28717 0.30453 0.0
Tb2294 Tb 0.7352 0.27466 0.25821 0.0
O2295 O 0.78275 0.31372 0.2779 0.0
O2296 O 0.76015 0.29749 0.2569 0.0
O2297 O 0.7709 0.28448 0.30074 0.0
C2298 C 0.69824 0.28181 0.24993 0.0
O2299 O 0.73719 0.28489 0.29034 0.0
C2300 C 0.7499 0.2412 0.26212 0.0
C2301 C 0.76364 0.26802 0.22484 0.0
O2302 O 0.70297 0.26689 0.25994 0.0
O2303 O 0.71418 0.29234 0.24426 0.0
O2304 O 0.73396 0.24219 0.25012 0.0
O2305 O 0.75541 0.25797 0.27256 0.0
O2306 O 0.74548 0.27135 0.22839 0.0
O2307 O 0.7787 0.26953 0.23931 0.0
C2308 C 0.81707 0.27215 0.27869 0.0
O2309 O 0.81295 0.28778 0.26943 0.0
O2310 O 0.80083 0.26188 0.28395 0.0
C2311 C 0.7661 0.31445 0.2669 0.0
Tb2312 Tb 0.98722 0.52616 0.51357 0.0
C2313 C 0.01248 0.48988 0.51906 0.0
Tb2314 Tb 0.03278 0.53596 0.52305 0.0
O2315 O 0.98917 0.53209 0.4819 0.0
O2316 O 0.01237 0.52182 0.49852 0.0
O2317 O 0.99473 0.49591 0.51863 0.0
C2318 C 0.0717 0.54825 0.51973 0.0
O2319 O 0.02942 0.50289 0.51871 0.0
C2320 C 0.01232 0.53323 0.55447 0.0
C2321 C 0.0076 0.57213 0.51714 0.0
O2322 O 0.06419 0.54293 0.53609 0.0
O2323 O 0.05729 0.54665 0.50528 0.0
O2324 O 0.03045 0.52936 0.55455 0.0
O2325 O 0.00758 0.54028 0.53805 0.0
O2326 O 0.02531 0.56608 0.51714 0.0
O2327 O 0.9908 0.55918 0.51835 0.0
C2328 C 0.94856 0.51341 0.51768 0.0
O2329 O 0.95534 0.52173 0.50212 0.0
O2330 O 0.96353 0.51231 0.53084 0.0
C2331 C 0.00742 0.52855 0.48199 0.0
Tb2332 Tb 0.76344 0.78227 0.28864 0.0
C2333 C 0.77237 0.81979 0.26228 0.0
Tb2334 Tb 0.75653 0.77498 0.24122 0.0
O2335 O 0.7953 0.77751 0.29207 0.0
O2336 O 0.77854 0.77512 0.26481 0.0
O2337 O 0.76797 0.81368 0.28012 0.0
C2338 C 0.76518 0.77236 0.20372 0.0
O2339 O 0.77066 0.80706 0.24584 0.0
C2340 C 0.7247 0.77755 0.2597 0.0
C2341 C 0.74905 0.73725 0.26747 0.0
O2342 O 0.75228 0.78301 0.21017 0.0
O2343 O 0.77238 0.76262 0.2181 0.0
O2344 O 0.72402 0.76785 0.24205 0.0
O2345 O 0.74225 0.78693 0.26481 0.0
O2346 O 0.75246 0.74352 0.24944 0.0
O2347 O 0.75093 0.7498 0.28404 0.0
C2348 C 0.75382 0.7883 0.32549 0.0
O2349 O 0.74382 0.77483 0.31188 0.0
O2350 O 0.76942 0.79817 0.31845 0.0
C2351 C 0.79576 0.77442 0.27272 0.0
Tb2352 Tb 0.76241 0.30059 0.76841 0.0
C2353 C 0.7992 0.27591 0.76748 0.0
Tb2354 Tb 0.7542 0.25453 0.75884 0.0
O2355 O 0.75551 0.29804 0.79954 0.0
O2356 O 0.7663 0.2747 0.78434 0.0
O2357 O 0.79289 0.2938 0.76639 0.0
C2358 C 0.74153 0.21478 0.76175 0.0
O2359 O 0.78648 0.25846 0.76719 0.0
C2360 C 0.75777 0.27643 0.72747 0.0
C2361 C 0.71733 0.27886 0.76053 0.0
O2362 O 0.75029 0.22244 0.74688 0.0
O2363 O 0.73991 0.22946 0.7748 0.0
O2364 O 0.76204 0.2581 0.72794 0.0
O2365 O 0.75008 0.28041 0.74325 0.0
O2366 O 0.72379 0.26105 0.761 0.0
O2367 O 0.72986 0.2965 0.76123 0.0
C2368 C 0.77479 0.34001 0.76371 0.0
O2369 O 0.76628 0.33302 0.77901 0.0
O2370 O 0.77629 0.32483 0.75117 0.0
C2371 C 0.75901 0.27943 0.80023 0.0
Tb2372 Tb 0.73897 0.77341 0.76779 0.0
C2373 C 0.76835 0.78259 0.80722 0.0
Tb2374 Tb 0.7824 0.79056 0.76424 0.0
O2375 O 0.74674 0.7438 0.77485 0.0
O2376 O 0.76349 0.76223 0.75634 0.0
O2377 O 0.7495 0.78101 0.79928 0.0
C2378 C 0.82174 0.79372 0.76287 0.0
O2379 O 0.78364 0.78498 0.79618 0.0
C2380 C 0.75853 0.81773 0.76667 0.0
C2381 C 0.75274 0.78184 0.72488 0.0
O2382 O 0.81156 0.80845 0.76047 0.0
O2383 O 0.80978 0.77745 0.7664 0.0
O2384 O 0.77455 0.82031 0.75737 0.0
O2385 O 0.7579 0.80164 0.77564 0.0
O2386 O 0.77171 0.7837 0.73256 0.0
O2387 O 0.73763 0.77903 0.73607 0.0
C2388 C 0.69956 0.76982 0.76849 0.0
O2389 O 0.7099 0.75531 0.77142 0.0
O2390 O 0.7114 0.78616 0.76496 0.0
C2391 C 0.76269 0.74619 0.76547 0.0
Tb2392 Tb 0.51363 0.5502 0.50843 0.0
C2393 C 0.51377 0.51699 0.47334 0.0
Tb2394 Tb 0.50141 0.50526 0.51622 0.0
O2395 O 0.54402 0.54484 0.50455 0.0
O2396 O 0.52691 0.52799 0.52392 0.0
O2397 O 0.51176 0.53618 0.47802 0.0
C2398 C 0.50051 0.4663 0.5242 0.0
O2399 O 0.51167 0.50267 0.48631 0.0
C2400 C 0.47171 0.52558 0.5089 0.0
C2401 C 0.50137 0.53845 0.55136 0.0
O2402 O 0.51601 0.48065 0.52762 0.0
O2403 O 0.48553 0.4738 0.51592 0.0
O2404 O 0.47093 0.51023 0.52001 0.0
O2405 O 0.48797 0.52757 0.50097 0.0
O2406 O 0.50333 0.51928 0.54656 0.0
O2407 O 0.50354 0.55286 0.53848 0.0
C2408 C 0.51482 0.58933 0.50097 0.0
O2409 O 0.49926 0.57509 0.49748 0.0
O2410 O 0.52978 0.58163 0.50898 0.0
C2411 C 0.54315 0.5298 0.51605 0.0
Tb2412 Tb 0.03018 0.53172 0.0111 0.0
C2413 C 0.01893 0.51755 0.05414 0.0
Tb2414 Tb 0.98667 0.52868 0.0213 0.0
O2415 O 0.0328 0.56523 0.01089 0.0
O2416 O 0.01389 0.54872 0.02875 0.0
O2417 O 0.03247 0.51996 0.04093 0.0
C2418 C 0.95426 0.54149 0.03254 0.0
O2419 O 1.00009 0.52055 0.05005 0.0
C2420 C 0.99406 0.49777 0.99872 0.0
C2421 C 0.99781 0.54114 0.97842 0.0
O2422 O 0.9571 0.52255 0.03243 0.0
O2423 O 0.96969 0.55276 0.02673 0.0
O2424 O 0.97644 0.50299 0.99853 0.0
O2425 O 0.00561 0.50833 0.0126 0.0
O2426 O 0.98625 0.54344 0.99298 0.0
O2427 O 0.0148 0.53397 0.98155 0.0
C2428 C 0.06526 0.523 0.00264 0.0
O2429 O 0.04801 0.51452 0.99346 0.0
O2430 O 0.06282 0.5365 0.01665 0.0
C2431 C 0.0191 0.56614 0.02302 0.0
H2432 H 0.05119 0.20982 0.95728 0.0
H2433 H 0.98388 0.10502 0.9796 0.0
H2434 H 0.99095 0.18814 0.92963 0.0
H2435 H 0.04486 0.12411 0.00606 0.0
H2436 H 0.98555 0.137 0.96347 0.0
H2437 H 0.04877 0.1799 0.97698 0.0
C2438 C 0.03747 0.19878 0.95531 0.0
C2439 C 0.02125 0.20155 0.94173 0.0
C2440 C 0.99856 0.13434 0.9729 0.0
C2441 C 0.01833 0.16736 0.96441 0.0
C2442 C 0.99758 0.11609 0.98218 0.0
C2443 C 0.01428 0.11193 0.99411 0.0
C2444 C 0.01643 0.14856 0.97546 0.0
C2445 C 0.03164 0.12679 0.99697 0.0
C2446 C 0.03606 0.18176 0.96667 0.0
C2447 C 0.00375 0.18686 0.94008 0.0
N2448 N 0.03233 0.14442 0.98757 0.0
N2449 N 0.0028 0.17043 0.9512 0.0
H2450 H 0.10495 0.75632 0.19268 0.0
H2451 H 0.19713 0.81226 0.2658 0.0
H2452 H 0.09531 0.7983 0.2413 0.0
H2453 H 0.19196 0.74897 0.24422 0.0
H2454 H 0.16146 0.81084 0.25424 0.0
H2455 H 0.13872 0.75681 0.20827 0.0
C2456 C 0.10966 0.76545 0.20676 0.0
C2457 C 0.09679 0.77703 0.21573 0.0
C2458 C 0.16817 0.79725 0.2523 0.0
C2459 C 0.13621 0.77826 0.23323 0.0
C2460 C 0.18848 0.79804 0.25885 0.0
C2461 C 0.19756 0.7807 0.256 0.0
C2462 C 0.15709 0.77919 0.24235 0.0
C2463 C 0.18562 0.76268 0.24687 0.0
C2464 C 0.12913 0.76582 0.21556 0.0
C2465 C 0.10453 0.78924 0.23359 0.0
N2466 N 0.16612 0.76249 0.2401 0.0
N2467 N 0.12377 0.78966 0.24166 0.0
H2468 H 0.54387 0.9076 0.42912 0.0
H2469 H 0.48412 0.95301 0.51422 0.0
H2470 H 0.5007 0.87051 0.46046 0.0
H2471 H 0.51999 0.99015 0.47619 0.0
H2472 H 0.4931 0.92242 0.49751 0.0
H2473 H 0.53866 0.93783 0.44932 0.0
C2474 C 0.53346 0.90577 0.4404 0.0
C2475 C 0.52259 0.88649 0.44296 0.0
C2476 C 0.49912 0.93727 0.49293 0.0
C2477 C 0.51639 0.92108 0.46603 0.0
C2478 C 0.49401 0.95471 0.50247 0.0
C2479 C 0.50135 0.97409 0.49659 0.0
C2480 C 0.51168 0.93928 0.47741 0.0
C2481 C 0.5141 0.97548 0.48127 0.0
C2482 C 0.53038 0.92306 0.45183 0.0
C2483 C 0.50916 0.88511 0.4577 0.0
N2484 N 0.51882 0.95832 0.47219 0.0
N2485 N 0.50639 0.90215 0.46861 0.0
H2486 H 0.3819 0.24449 0.69946 0.0
H2487 H 0.32964 0.30873 0.77823 0.0
H2488 H 0.41041 0.30226 0.73013 0.0
H2489 H 0.30007 0.25265 0.74524 0.0
H2490 H 0.35981 0.30606 0.76163 0.0
H2491 H 0.35223 0.24662 0.71688 0.0
C2492 C 0.382 0.25756 0.70996 0.0
C2493 C 0.39873 0.27322 0.71329 0.0
C2494 C 0.34672 0.29435 0.75797 0.0
C2495 C 0.36465 0.27584 0.73323 0.0
C2496 C 0.32953 0.29585 0.76748 0.0
C2497 C 0.3123 0.28104 0.76288 0.0
C2498 C 0.34671 0.2778 0.74385 0.0
C2499 C 0.31294 0.26462 0.74891 0.0
C2500 C 0.36498 0.25883 0.71982 0.0
C2501 C 0.3978 0.28994 0.72686 0.0
N2502 N 0.32984 0.26345 0.73987 0.0
N2503 N 0.3811 0.29079 0.73632 0.0
H2504 H 0.00534 0.87129 0.53373 0.0
H2505 H 0.0035 0.99074 0.54607 0.0
H2506 H 0.98822 0.9019 0.58641 0.0
H2507 H 0.00502 0.95871 0.48861 0.0
H2508 H 0.00104 0.95867 0.5618 0.0
H2509 H 0.00801 0.90339 0.51741 0.0
C2510 C 0.00213 0.88478 0.54183 0.0
C2511 C 0.99653 0.884 0.56142 0.0
C2512 C 0.00206 0.9586 0.54576 0.0
C2513 C 0.99961 0.92062 0.54295 0.0
C2514 C 0.00388 0.97703 0.53687 0.0
C2515 C 0.00519 0.97746 0.51621 0.0
C2516 C 0.00153 0.9404 0.53384 0.0
C2517 C 0.00429 0.95897 0.50469 0.0
C2518 C 0.00357 0.90303 0.53249 0.0
C2519 C 0.99238 0.90182 0.57121 0.0
N2520 N 0.00266 0.94112 0.5137 0.0
N2521 N 0.99412 0.91945 0.56191 0.0
H2522 H 0.41754 0.72119 0.82684 0.0
H2523 H 0.35396 0.79644 0.77202 0.0
H2524 H 0.44215 0.78217 0.81348 0.0
H2525 H 0.32844 0.73865 0.79228 0.0
H2526 H 0.38749 0.78853 0.78072 0.0
H2527 H 0.38603 0.72427 0.80746 0.0
C2528 C 0.41639 0.7351 0.81958 0.0
C2529 C 0.43233 0.75156 0.82203 0.0
C2530 C 0.37455 0.7775 0.78308 0.0
C2531 C 0.39642 0.75526 0.8 0.0
C2532 C 0.35547 0.78203 0.77817 0.0
C2533 C 0.33858 0.76832 0.78183 0.0
C2534 C 0.37662 0.75914 0.7917 0.0
C2535 C 0.34119 0.74976 0.78957 0.0
C2536 C 0.39844 0.73686 0.80852 0.0
C2537 C 0.43023 0.76909 0.81198 0.0
N2538 N 0.3599 0.74578 0.79444 0.0
N2539 N 0.41247 0.7706 0.80165 0.0
H2540 H 0.48447 0.19594 0.03087 0.0
H2541 H 0.5374 0.09992 0.0348 0.0
H2542 H 0.51554 0.18139 0.08614 0.0
H2543 H 0.47541 0.0912 0.01004 0.0
H2544 H 0.53534 0.13506 0.04614 0.0
H2545 H 0.48596 0.16168 0.01611 0.0
C2546 C 0.49155 0.18571 0.03998 0.0
C2547 C 0.50001 0.19185 0.05987 0.0
C2548 C 0.52231 0.12547 0.03798 0.0
C2549 C 0.50239 0.15313 0.04263 0.0
C2550 C 0.52348 0.10554 0.03138 0.0
C2551 C 0.50652 0.09272 0.02147 0.0
C2552 C 0.50424 0.13275 0.03422 0.0
C2553 C 0.48877 0.10067 0.0177 0.0
C2554 C 0.49247 0.16625 0.03143 0.0
C2555 C 0.50934 0.17784 0.07062 0.0
N2556 N 0.48807 0.12033 0.02404 0.0
N2557 N 0.51046 0.15925 0.06179 0.0
H2558 H 0.11594 0.24015 0.35813 0.0
H2559 H 0.17661 0.2956 0.2767 0.0
H2560 H 0.09832 0.2921 0.33 0.0
H2561 H 0.18186 0.23474 0.29263 0.0
H2562 H 0.14684 0.2942 0.29468 0.0
H2563 H 0.13967 0.23766 0.33351 0.0
C2564 C 0.11693 0.25094 0.34668 0.0
C2565 C 0.10516 0.26641 0.3462 0.0
C2566 C 0.15428 0.28101 0.29393 0.0
C2567 C 0.13253 0.2638 0.3181 0.0
C2568 C 0.1712 0.28178 0.28363 0.0
C2569 C 0.1817 0.26534 0.28346 0.0
C2570 C 0.14814 0.26378 0.30428 0.0
C2571 C 0.17419 0.24779 0.29259 0.0
C2572 C 0.1305 0.24951 0.33261 0.0
C2573 C 0.10737 0.28018 0.3312 0.0
N2574 N 0.158 0.24758 0.30294 0.0
N2575 N 0.12092 0.27864 0.31782 0.0
H2576 H 0.94395 0.08654 0.15255 0.0
H2577 H 0.992 0.01263 0.08034 0.0
H2578 H 0.92824 0.02076 0.14735 0.0
H2579 H 0.98951 0.07506 0.06761 0.0
H2580 H 0.97382 0.01721 0.10934 0.0
H2581 H 0.96475 0.08413 0.12484 0.0
C2582 C 0.94474 0.07161 0.14558 0.0
C2583 C 0.93437 0.0538 0.15249 0.0
C2584 C 0.97736 0.02996 0.10028 0.0
C2585 C 0.95854 0.05103 0.12118 0.0
C2586 C 0.98788 0.02742 0.08375 0.0
C2587 C 0.99222 0.04345 0.07136 0.0
C2588 C 0.97118 0.0487 0.10466 0.0
C2589 C 0.98647 0.06226 0.0767 0.0
C2590 C 0.95673 0.07029 0.12986 0.0
C2591 C 0.93627 0.0349 0.14298 0.0
N2592 N 0.97615 0.06436 0.09293 0.0
N2593 N 0.94817 0.03403 0.12794 0.0
H2594 H 0.26364 0.74584 0.42157 0.0
H2595 H 0.27521 0.74798 0.30376 0.0
H2596 H 0.29856 0.70737 0.39115 0.0
H2597 H 0.25769 0.7972 0.33895 0.0
H2598 H 0.28009 0.73025 0.33449 0.0
H2599 H 0.2578 0.7624 0.39045 0.0
C2600 C 0.27005 0.74084 0.40832 0.0
C2601 C 0.28164 0.72519 0.40902 0.0
C2602 C 0.27504 0.74486 0.33546 0.0
C2603 C 0.27488 0.74405 0.37317 0.0
C2604 C 0.272 0.75484 0.31787 0.0
C2605 C 0.26571 0.77391 0.31876 0.0
C2606 C 0.27157 0.75395 0.35403 0.0
C2607 C 0.26245 0.78246 0.33758 0.0
C2608 C 0.26677 0.75036 0.39056 0.0
C2609 C 0.2897 0.71949 0.39137 0.0
N2610 N 0.26531 0.77241 0.35442 0.0
N2611 N 0.28607 0.72881 0.37416 0.0
H2612 H 0.53995 0.02167 0.68141 0.0
H2613 H 0.54574 0.9994 0.56388 0.0
H2614 H 0.57175 0.9762 0.65738 0.0
H2615 H 0.50003 0.02963 0.58683 0.0
H2616 H 0.55698 0.99267 0.59815 0.0
H2617 H 0.52664 0.02667 0.6471 0.0
C2618 C 0.5441 0.0127 0.66892 0.0
C2619 C 0.55701 0.99848 0.67231 0.0
C2620 C 0.54444 0.00069 0.5957 0.0
C2621 C 0.5419 0.00423 0.63296 0.0
C2622 C 0.53804 0.00463 0.57612 0.0
C2623 C 0.52189 0.01514 0.57241 0.0
C2624 C 0.53487 0.00754 0.61186 0.0
C2625 C 0.51247 0.02141 0.58893 0.0
C2626 C 0.53642 0.0155 0.64935 0.0
C2627 C 0.56172 0.98717 0.65553 0.0
N2628 N 0.51919 0.01767 0.60794 0.0
N2629 N 0.55432 0.99041 0.63662 0.0
H2630 H 0.19869 0.33139 0.92487 0.0
H2631 H 0.26362 0.27217 0.85814 0.0
H2632 H 0.24188 0.29612 0.9495 0.0
H2633 H 0.21801 0.3052 0.83482 0.0
H2634 H 0.25145 0.27487 0.89132 0.0
H2635 H 0.19999 0.31506 0.89176 0.0
C2636 C 0.20805 0.31979 0.92346 0.0
C2637 C 0.22063 0.31553 0.93992 0.0
C2638 C 0.24395 0.2813 0.87888 0.0
C2639 C 0.22277 0.29734 0.90183 0.0
C2640 C 0.25098 0.27987 0.86004 0.0
C2641 C 0.24209 0.28896 0.84404 0.0
C2642 C 0.22802 0.29195 0.88155 0.0
C2643 C 0.22555 0.29843 0.847 0.0
C2644 C 0.20895 0.31059 0.90444 0.0
C2645 C 0.23246 0.30037 0.93706 0.0
N2646 N 0.21919 0.29989 0.86548 0.0
N2647 N 0.23361 0.29215 0.91826 0.0
H2648 H 0.95418 0.0283 0.33094 0.0
H2649 H 0.97369 0.07197 0.44448 0.0
H2650 H 0.9441 0.08856 0.34987 0.0
H2651 H 0.00354 0.02443 0.42135 0.0
H2652 H 0.96271 0.07846 0.40997 0.0
H2653 H 0.97259 0.02653 0.36383 0.0
C2654 C 0.95609 0.04125 0.342 0.0
C2655 C 0.94757 0.05854 0.33786 0.0
C2656 C 0.97186 0.06678 0.41243 0.0
C2657 C 0.96824 0.05655 0.37547 0.0
C2658 C 0.97802 0.06301 0.43209 0.0
C2659 C 0.98932 0.04752 0.43564 0.0
C2660 C 0.97674 0.0547 0.39629 0.0
C2661 C 0.99474 0.03644 0.41916 0.0
C2662 C 0.96662 0.04027 0.3607 0.0
C2663 C 0.95051 0.07498 0.35255 0.0
N2664 N 0.98815 0.04005 0.40015 0.0
N2665 N 0.96035 0.07346 0.37087 0.0
H2666 H 0.3136 0.74496 0.61165 0.0
H2667 H 0.23686 0.7533 0.69349 0.0
H2668 H 0.25744 0.70356 0.60978 0.0
H2669 H 0.30062 0.77145 0.70823 0.0
H2670 H 0.2428 0.74002 0.66002 0.0
H2671 H 0.30796 0.75932 0.64472 0.0
C2672 C 0.30014 0.73875 0.61807 0.0
C2673 C 0.28599 0.72293 0.60755 0.0
C2674 C 0.25548 0.747 0.67057 0.0
C2675 C 0.27923 0.73992 0.64537 0.0
C2676 C 0.25209 0.75471 0.68962 0.0
C2677 C 0.26827 0.76352 0.70371 0.0
C2678 C 0.27515 0.74844 0.66536 0.0
C2679 C 0.28771 0.76472 0.69789 0.0
C2680 C 0.2969 0.74711 0.63696 0.0
C2681 C 0.26864 0.71601 0.6168 0.0
N2682 N 0.29061 0.75737 0.67914 0.0
N2683 N 0.26573 0.7246 0.63502 0.0
H2684 H 0.52893 0.99114 0.8563 0.0
H2685 H 0.54405 0.03062 0.97322 0.0
H2686 H 0.58682 0.01283 0.88941 0.0
H2687 H 0.48675 0.00544 0.94119 0.0
H2688 H 0.55996 0.02534 0.94255 0.0
H2689 H 0.51316 0.9973 0.88688 0.0
C2690 C 0.53836 0.99727 0.86995 0.0
C2691 C 0.55931 0.00144 0.87015 0.0
C2692 C 0.54388 0.02111 0.94214 0.0
C2693 C 0.54124 0.00841 0.90546 0.0
C2694 C 0.53479 0.02439 0.95968 0.0
C2695 C 0.51405 0.01893 0.95977 0.0
C2696 C 0.53209 0.01227 0.92443 0.0
C2697 C 0.50281 0.01002 0.94181 0.0
C2698 C 0.52932 0.00068 0.88748 0.0
C2699 C 0.57067 0.00909 0.88849 0.0
N2700 N 0.51193 0.00704 0.9249 0.0
N2701 N 0.56151 0.01235 0.90533 0.0
H2702 H 0.25737 0.31274 0.10696 0.0
H2703 H 0.21319 0.28671 0.20988 0.0
H2704 H 0.2095 0.33921 0.13038 0.0
H2705 H 0.27129 0.27608 0.19525 0.0
H2706 H 0.20588 0.29629 0.17569 0.0
H2707 H 0.25698 0.29043 0.13455 0.0
C2708 C 0.24673 0.31381 0.11785 0.0
C2709 C 0.23376 0.3282 0.11664 0.0
C2710 C 0.22007 0.29147 0.17989 0.0
C2711 C 0.23297 0.30245 0.14789 0.0
C2712 C 0.22421 0.28591 0.19935 0.0
C2713 C 0.24306 0.28109 0.20549 0.0
C2714 C 0.23485 0.29211 0.1666 0.0
C2715 C 0.25674 0.28016 0.19122 0.0
C2716 C 0.2464 0.30095 0.13345 0.0
C2717 C 0.21981 0.32841 0.13075 0.0
N2718 N 0.25248 0.28594 0.17248 0.0
N2719 N 0.21994 0.31589 0.14594 0.0
H2720 H 0.13642 0.96204 0.05409 0.0
H2721 H 0.06857 0.0257 0.98939 0.0
H2722 H 0.12687 0.95309 0.9892 0.0
H2723 H 0.05481 0.00931 0.04831 0.0
H2724 H 0.09338 0.00274 0.9901 0.0
H2725 H 0.10963 0.98246 0.0534 0.0
C2726 C 0.12871 0.96408 0.03967 0.0
C2727 C 0.13428 0.95561 0.02165 0.0
C2728 C 0.08491 0.00411 0.00286 0.0
C2729 C 0.1038 0.97984 0.0209 0.0
C2730 C 0.07083 0.01728 0.00251 0.0
C2731 C 0.05964 0.0194 0.01883 0.0
C2732 C 0.08826 0.99332 0.01987 0.0
C2733 C 0.06307 0.00802 0.03539 0.0
C2734 C 0.11343 0.97593 0.03935 0.0
C2735 C 0.12374 0.95953 0.00353 0.0
N2736 N 0.07723 0.99564 0.0356 0.0
N2737 N 0.10924 0.97146 0.00363 0.0
H2738 H 0.67265 0.59157 0.03964 0.0
H2739 H 0.56168 0.56613 0.9828 0.0
H2740 H 0.65548 0.61192 0.98158 0.0
H2741 H 0.57755 0.54785 0.04215 0.0
H2742 H 0.59638 0.58183 0.98169 0.0
H2743 H 0.63812 0.57466 0.04064 0.0
C2744 C 0.6616 0.59254 0.02715 0.0
C2745 C 0.66694 0.60312 0.01048 0.0
C2746 C 0.5923 0.57435 0.99494 0.0
C2747 C 0.62753 0.58369 0.01143 0.0
C2748 C 0.57246 0.56531 0.99558 0.0
C2749 C 0.56666 0.55565 0.01261 0.0
C2750 C 0.60647 0.57375 0.01145 0.0
C2751 C 0.58132 0.55515 0.02872 0.0
C2752 C 0.64193 0.5828 0.02767 0.0
C2753 C 0.65209 0.60368 0.9946 0.0
N2754 N 0.60056 0.56412 0.02775 0.0
N2755 N 0.63307 0.59411 0.99547 0.0
H2756 H 0.72491 0.43047 0.25524 0.0
H2757 H 0.72764 0.31502 0.27539 0.0
H2758 H 0.6909 0.39993 0.29893 0.0
H2759 H 0.7805 0.354 0.26118 0.0
H2760 H 0.71079 0.34453 0.27834 0.0
H2761 H 0.74277 0.40129 0.25197 0.0
C2762 C 0.72128 0.41762 0.26416 0.0
C2763 C 0.70653 0.41754 0.27743 0.0
C2764 C 0.72604 0.34661 0.27444 0.0
C2765 C 0.72645 0.38418 0.27347 0.0
C2766 C 0.73558 0.32969 0.27246 0.0
C2767 C 0.75533 0.33198 0.26758 0.0
C2768 C 0.73626 0.36599 0.27129 0.0
C2769 C 0.76516 0.35162 0.26476 0.0
C2770 C 0.73147 0.40108 0.26233 0.0
C2771 C 0.70231 0.40059 0.28866 0.0
N2772 N 0.75545 0.36792 0.26646 0.0
N2773 N 0.71207 0.38447 0.28627 0.0
H2774 H 0.81925 0.47998 0.49989 0.0
H2775 H 0.93338 0.49334 0.54851 0.0
H2776 H 0.8383 0.45012 0.55194 0.0
H2777 H 0.91555 0.51623 0.49196 0.0
H2778 H 0.89823 0.47991 0.5516 0.0
H2779 H 0.854 0.49591 0.49835 0.0
C2780 C 0.83072 0.47677 0.51101 0.0
C2781 C 0.82578 0.46358 0.52602 0.0
C2782 C 0.90197 0.48791 0.53853 0.0
C2783 C 0.86567 0.48191 0.52439 0.0
C2784 C 0.92202 0.49559 0.53677 0.0
C2785 C 0.92733 0.50582 0.51991 0.0
C2786 C 0.88708 0.49056 0.52335 0.0
C2787 C 0.91206 0.50835 0.50516 0.0
C2788 C 0.85056 0.48592 0.51015 0.0
C2789 C 0.84129 0.46032 0.54023 0.0
N2790 N 0.89263 0.50075 0.50721 0.0
N2791 N 0.8605 0.46933 0.53901 0.0
H2792 H 0.32918 0.15551 0.22576 0.0
H2793 H 0.27828 0.22444 0.29775 0.0
H2794 H 0.35331 0.17003 0.28803 0.0
H2795 H 0.28478 0.23943 0.23681 0.0
H2796 H 0.30152 0.20004 0.29429 0.0
H2797 H 0.30881 0.18227 0.22908 0.0
C2798 C 0.33049 0.16433 0.24008 0.0
C2799 C 0.34321 0.1602 0.25664 0.0
C2800 C 0.29788 0.20873 0.28172 0.0
C2801 C 0.31906 0.19047 0.26058 0.0
C2802 C 0.2846 0.22254 0.28365 0.0
C2803 C 0.27963 0.23386 0.26752 0.0
C2804 C 0.30579 0.20583 0.26336 0.0
C2805 C 0.28828 0.23097 0.24959 0.0
C2806 C 0.31867 0.17956 0.24194 0.0
C2807 C 0.34352 0.17205 0.2749 0.0
N2808 N 0.30076 0.21701 0.24788 0.0
N2809 N 0.33148 0.18643 0.27642 0.0
H2810 H 0.33306 0.06663 0.48769 0.0
H2811 H 0.43375 0.05435 0.55298 0.0
H2812 H 0.35497 0.10041 0.54468 0.0
H2813 H 0.41228 0.02042 0.496 0.0
H2814 H 0.40204 0.06708 0.55289 0.0
H2815 H 0.35884 0.04528 0.4931 0.0
C2816 C 0.34309 0.06931 0.5015 0.0
C2817 C 0.34215 0.08549 0.51561 0.0
C2818 C 0.40412 0.05662 0.54052 0.0
C2819 C 0.37174 0.06138 0.5218 0.0
C2820 C 0.42219 0.04935 0.5406 0.0
C2821 C 0.4256 0.03657 0.52436 0.0
C2822 C 0.38949 0.05119 0.52398 0.0
C2823 C 0.41021 0.03042 0.50873 0.0
C2824 C 0.35785 0.0572 0.50454 0.0
C2825 C 0.35553 0.08838 0.5332 0.0
N2826 N 0.39286 0.03802 0.50878 0.0
N2827 N 0.36992 0.07658 0.5357 0.0
H2828 H 0.71278 0.61905 0.31247 0.0
H2829 H 0.73706 0.70659 0.23723 0.0
H2830 H 0.69473 0.61076 0.24854 0.0
H2831 H 0.74528 0.71748 0.30193 0.0
H2832 H 0.72434 0.67063 0.24084 0.0
H2833 H 0.72729 0.65446 0.30866 0.0
C2834 C 0.7118 0.62464 0.29764 0.0
C2835 C 0.70246 0.61178 0.28082 0.0
C2836 C 0.72899 0.6809 0.25424 0.0
C2837 C 0.71933 0.65237 0.27632 0.0
C2838 C 0.73633 0.70144 0.25219 0.0
C2839 C 0.74223 0.71517 0.26929 0.0
C2840 C 0.72764 0.67396 0.27353 0.0
C2841 C 0.74084 0.70754 0.28829 0.0
C2842 C 0.72019 0.64487 0.29546 0.0
C2843 C 0.70202 0.6199 0.26192 0.0
N2844 N 0.7337 0.68749 0.28988 0.0
N2845 N 0.7103 0.63963 0.2602 0.0
H2846 H 0.83707 0.45119 0.72339 0.0
H2847 H 0.77357 0.37338 0.78924 0.0
H2848 H 0.81774 0.46908 0.78038 0.0
H2849 H 0.79339 0.35565 0.7325 0.0
H2850 H 0.78781 0.40897 0.78531 0.0
H2851 H 0.8191 0.41663 0.72532 0.0
C2852 C 0.82884 0.44793 0.73619 0.0
C2853 C 0.82902 0.46308 0.7518 0.0
C2854 C 0.78898 0.39732 0.77367 0.0
C2855 C 0.8086 0.42338 0.75425 0.0
C2856 C 0.78085 0.37703 0.77592 0.0
C2857 C 0.78242 0.36162 0.76122 0.0
C2858 C 0.79877 0.40218 0.75661 0.0
C2859 C 0.79194 0.36711 0.74423 0.0
C2860 C 0.81868 0.42814 0.73736 0.0
C2861 C 0.8183 0.45783 0.76816 0.0
N2862 N 0.79984 0.38692 0.74243 0.0
N2863 N 0.80861 0.43843 0.76899 0.0
H2864 H 0.03245 0.86432 0.08541 0.0
H2865 H 0.97173 0.93808 0.0236 0.0
H2866 H 0.96813 0.85963 0.08161 0.0
H2867 H 0.03503 0.95263 0.04285 0.0
H2868 H 0.97049 0.90576 0.03954 0.0
H2869 H 0.03388 0.89353 0.06497 0.0
C2870 C 0.01862 0.86942 0.08035 0.0
C2871 C 1.00015 0.85953 0.08548 0.0
C2872 C 0.98467 0.91595 0.04011 0.0
C2873 C 0.00171 0.8928 0.06166 0.0
C2874 C 0.98541 0.9343 0.03093 0.0
C2875 C 0.00349 0.948 0.03203 0.0
C2876 C 0.00219 0.91125 0.05028 0.0
C2877 C 0.02077 0.94248 0.04176 0.0
C2878 C 0.01946 0.88603 0.06856 0.0
C2879 C 0.9827 0.86657 0.07795 0.0
N2880 N 0.01969 0.92455 0.05057 0.0
N2881 N 0.98392 0.88279 0.06649 0.0
H2882 H 0.91149 0.24926 0.82146 0.0
H2883 H 0.83051 0.30735 0.76618 0.0
H2884 H 0.92712 0.30729 0.79662 0.0
H2885 H 0.81756 0.24443 0.78004 0.0
H2886 H 0.86589 0.30777 0.77728 0.0
H2887 H 0.87705 0.24729 0.80648 0.0
C2888 C 0.9078 0.26149 0.81265 0.0
C2889 C 0.92238 0.27848 0.81036 0.0
C2890 C 0.85533 0.29382 0.77773 0.0
C2891 C 0.88265 0.27647 0.7934 0.0
C2892 C 0.8351 0.29356 0.77139 0.0
C2893 C 0.82096 0.27583 0.77219 0.0
C2894 C 0.8615 0.2763 0.78517 0.0
C2895 C 0.82787 0.25844 0.77908 0.0
C2896 C 0.88804 0.26039 0.80418 0.0
C2897 C 0.91642 0.29403 0.79909 0.0
N2898 N 0.84758 0.25917 0.78545 0.0
N2899 N 0.89704 0.29269 0.79115 0.0
H2900 H 0.46934 0.15183 0.59751 0.0
H2901 H 0.54621 0.09992 0.53683 0.0
H2902 H 0.52629 0.184 0.58403 0.0
H2903 H 0.48506 0.07148 0.53889 0.0
H2904 H 0.53947 0.13039 0.5554 0.0
H2905 H 0.47487 0.12184 0.57716 0.0
C2906 C 0.48294 0.1527 0.5902 0.0
C2907 C 0.49742 0.17054 0.59268 0.0
C2908 C 0.52746 0.11752 0.55178 0.0
C2909 C 0.50396 0.13605 0.56959 0.0
C2910 C 0.53131 0.1001 0.54118 0.0
C2911 C 0.51615 0.08309 0.53645 0.0
C2912 C 0.5083 0.11791 0.55781 0.0
C2913 C 0.49715 0.08416 0.54243 0.0
C2914 C 0.48612 0.1355 0.57865 0.0
C2915 C 0.51486 0.17053 0.58299 0.0
N2916 N 0.49375 0.10124 0.55289 0.0
N2917 N 0.51766 0.15358 0.57199 0.0
H2918 H 0.60722 0.75818 0.30172 0.0
H2919 H 0.7224 0.80313 0.29282 0.0
H2920 H 0.63824 0.81365 0.33493 0.0
H2921 H 0.68712 0.75545 0.2518 0.0
H2922 H 0.69274 0.80566 0.31041 0.0
H2923 H 0.63725 0.75547 0.28515 0.0
C2924 C 0.62039 0.76976 0.3056 0.0
C2925 C 0.62018 0.78615 0.31978 0.0
C2926 C 0.69149 0.79465 0.29756 0.0
C2927 C 0.65475 0.78316 0.30077 0.0
C2928 C 0.70842 0.79314 0.28758 0.0
C2929 C 0.70718 0.77903 0.27085 0.0
C2930 C 0.6732 0.78192 0.29078 0.0
C2931 C 0.6887 0.76655 0.26461 0.0
C2932 C 0.63752 0.76826 0.29605 0.0
C2933 C 0.63765 0.80085 0.32397 0.0
N2934 N 0.67247 0.76827 0.27458 0.0
N2935 N 0.65424 0.79897 0.31458 0.0
H2936 H 0.01061 0.19407 0.50251 0.0
H2937 H 0.01259 0.0744 0.48821 0.0
H2938 H 0.0097 0.16023 0.44523 0.0
H2939 H 0.00966 0.10536 0.54584 0.0
H2940 H 0.01178 0.10613 0.47245 0.0
H2941 H 0.01079 0.1623 0.51913 0.0
C2942 C 0.01045 0.17998 0.49346 0.0
C2943 C 0.01001 0.17975 0.47246 0.0
C2944 C 0.01108 0.10607 0.48853 0.0
C2945 C 0.01017 0.14352 0.49127 0.0
C2946 C 0.01115 0.08779 0.49742 0.0
C2947 C 0.01025 0.08711 0.51809 0.0
C2948 C 0.01037 0.12395 0.50051 0.0
C2949 C 0.01005 0.1053 0.52972 0.0
C2950 C 0.01047 0.16187 0.50292 0.0
C2951 C 0.00967 0.16108 0.46141 0.0
N2952 N 0.00999 0.12306 0.52074 0.0
N2953 N 0.00977 0.14375 0.47095 0.0
H2954 H 0.5995 0.32915 0.19402 0.0
H2955 H 0.66286 0.2582 0.25569 0.0
H2956 H 0.57605 0.26753 0.20639 0.0
H2957 H 0.68783 0.3154 0.23387 0.0
H2958 H 0.62919 0.26456 0.24455 0.0
H2959 H 0.62995 0.32762 0.21586 0.0
C2960 C 0.60062 0.31543 0.20163 0.0
C2961 C 0.58545 0.29829 0.19812 0.0
C2962 C 0.64204 0.27581 0.24241 0.0
C2963 C 0.62028 0.29632 0.2228 0.0
C2964 C 0.66119 0.27218 0.24873 0.0
C2965 C 0.67798 0.28613 0.24526 0.0
C2966 C 0.63986 0.29353 0.23266 0.0
C2967 C 0.67517 0.30411 0.23644 0.0
C2968 C 0.61804 0.31452 0.21399 0.0
C2969 C 0.58767 0.28088 0.20831 0.0
N2970 N 0.65644 0.30722 0.23026 0.0
N2971 N 0.60491 0.28024 0.22002 0.0
H2972 H 0.5466 0.8725 0.97783 0.0
H2973 H 0.48154 0.95826 0.00234 0.0
H2974 H 0.48758 0.87345 0.948 0.0
H2975 H 0.54617 0.9716 0.00727 0.0
H2976 H 0.48278 0.92341 0.98972 0.0
H2977 H 0.54595 0.90589 0.99505 0.0
C2978 C 0.53353 0.87965 0.97483 0.0
C2979 C 0.5171 0.87002 0.96139 0.0
C2980 C 0.49668 0.93394 0.99374 0.0
C2981 C 0.51613 0.90782 0.98154 0.0
C2982 C 0.49603 0.9538 0.00108 0.0
C2983 C 0.5138 0.96792 0.00572 0.0
C2984 C 0.51522 0.92807 0.99124 0.0
C2985 C 0.53211 0.96124 0.00371 0.0
C2986 C 0.53316 0.89862 0.98479 0.0
C2987 C 0.50044 0.87994 0.9585 0.0
N2988 N 0.53237 0.94174 0.99654 0.0
N2989 N 0.50037 0.89824 0.96854 0.0
H2990 H 0.92693 0.81956 0.70085 0.0
H2991 H 0.84058 0.76102 0.75853 0.0
H2992 H 0.89971 0.75635 0.68664 0.0
H2993 H 0.84796 0.82587 0.75239 0.0
H2994 H 0.86984 0.75932 0.74039 0.0
H2995 H 0.90443 0.82202 0.72689 0.0
C2996 C 0.91623 0.80621 0.7031 0.0
C2997 C 0.91508 0.78776 0.69126 0.0
C2998 C 0.86526 0.77398 0.74336 0.0
C2999 C 0.88994 0.79039 0.72157 0.0
C3000 C 0.8487 0.775 0.75383 0.0
C3001 C 0.8418 0.79359 0.75666 0.0
C3002 C 0.87498 0.79169 0.73587 0.0
C3003 C 0.85279 0.81124 0.7503 0.0
C3004 C 0.90359 0.80761 0.71813 0.0
C3005 C 0.90134 0.77083 0.69543 0.0
N3006 N 0.86879 0.80984 0.73995 0.0
N3007 N 0.88928 0.77258 0.7102 0.0
H3008 H 0.10318 0.03796 0.89099 0.0
H3009 H 0.02373 0.98406 0.95696 0.0
H3010 H 0.06888 0.97881 0.86962 0.0
H3011 H 0.03301 0.04902 0.9507 0.0
H3012 H 0.04324 0.97971 0.92837 0.0
H3013 H 0.08121 0.04018 0.91731 0.0
C3014 C 0.09099 0.02546 0.89166 0.0
C3015 C 0.08777 0.00831 0.87769 0.0
C3016 C 0.0407 0.99482 0.93321 0.0
C3017 C 0.0629 0.0106 0.90841 0.0
C3018 C 0.02957 0.99733 0.94945 0.0
C3019 C 0.02672 0.01694 0.95628 0.0
C3020 C 0.04936 0.01208 0.92418 0.0
C3021 C 0.03474 0.0336 0.94602 0.0
C3022 C 0.07851 0.02674 0.90681 0.0
C3023 C 0.0721 0.99229 0.88005 0.0
N3024 N 0.04591 0.03081 0.93071 0.0
N3025 N 0.06026 0.99379 0.89516 0.0
H3026 H 0.75478 0.31362 0.60521 0.0
H3027 H 0.74092 0.31066 0.72267 0.0
H3028 H 0.72047 0.35225 0.63638 0.0
H3029 H 0.76908 0.26716 0.6902 0.0
H3030 H 0.73518 0.32741 0.69168 0.0
H3031 H 0.76176 0.29766 0.63643 0.0
C3032 C 0.74874 0.31881 0.61861 0.0
C3033 C 0.73699 0.33437 0.61806 0.0
C3034 C 0.74266 0.31424 0.69129 0.0
C3035 C 0.74493 0.316 0.65402 0.0
C3036 C 0.74603 0.30471 0.70903 0.0
C3037 C 0.75548 0.28745 0.70902 0.0
C3038 C 0.74883 0.30653 0.67333 0.0
C3039 C 0.76172 0.2804 0.69087 0.0
C3040 C 0.75267 0.3096 0.63644 0.0
C3041 C 0.72938 0.34018 0.63594 0.0
N3042 N 0.75827 0.28994 0.67377 0.0
N3043 N 0.73352 0.33107 0.65314 0.0
H3044 H 0.43112 0.07829 0.36875 0.0
H3045 H 0.51433 0.0376 0.44121 0.0
H3046 H 0.47716 0.04761 0.34727 0.0
H3047 H 0.46201 0.05747 0.46222 0.0
H3048 H 0.50286 0.0447 0.40716 0.0
H3049 H 0.44419 0.07433 0.40338 0.0
C3050 C 0.4441 0.07091 0.3713 0.0
C3051 C 0.45301 0.06324 0.35501 0.0
C3052 C 0.49391 0.04758 0.41922 0.0
C3053 C 0.468 0.05853 0.3947 0.0
C3054 C 0.50049 0.0436 0.43875 0.0
C3055 C 0.48912 0.04686 0.45472 0.0
C3056 C 0.47584 0.05502 0.41551 0.0
C3057 C 0.47128 0.05463 0.45044 0.0
C3058 C 0.45147 0.06852 0.39109 0.0
C3059 C 0.46965 0.05356 0.3593 0.0
N3060 N 0.46519 0.05842 0.43127 0.0
N3061 N 0.47658 0.0515 0.37867 0.0
H3062 H 0.81918 0.73576 0.10276 0.0
H3063 H 0.74937 0.78823 0.17033 0.0
H3064 H 0.76564 0.75709 0.07922 0.0
H3065 H 0.79755 0.75781 0.19236 0.0
H3066 H 0.76074 0.7862 0.13669 0.0
H3067 H 0.81782 0.75433 0.13494 0.0
C3068 C 0.80747 0.74485 0.10418 0.0
C3069 C 0.79214 0.74441 0.08856 0.0
C3070 C 0.76896 0.78023 0.14898 0.0
C3071 C 0.79014 0.76511 0.12542 0.0
C3072 C 0.7624 0.78127 0.16806 0.0
C3073 C 0.77223 0.77262 0.1838 0.0
C3074 C 0.78544 0.77056 0.14586 0.0
C3075 C 0.78925 0.76414 0.18038 0.0
C3076 C 0.80659 0.75531 0.12262 0.0
C3077 C 0.77736 0.75652 0.09119 0.0
N3078 N 0.79521 0.76313 0.1617 0.0
N3079 N 0.77644 0.76602 0.10948 0.0
H3080 H 0.08486 0.97296 0.67626 0.0
H3081 H 0.01198 0.03426 0.6127 0.0
H3082 H 0.0578 0.0213 0.70238 0.0
H3083 H 0.04764 0.9937 0.58643 0.0
H3084 H 0.02402 0.02554 0.64622 0.0
H3085 H 0.06635 0.97594 0.64382 0.0
C3086 C 0.07476 0.98397 0.67524 0.0
C3087 C 0.073 0.99704 0.69198 0.0
C3088 C 0.02908 0.01844 0.6331 0.0
C3089 C 0.05203 0.00075 0.65486 0.0
C3090 C 0.0222 0.02339 0.61403 0.0
C3091 C 0.02906 0.01484 0.59692 0.0
C3092 C 0.04277 0.00478 0.63495 0.0
C3093 C 0.0422 0.00079 0.59933 0.0
C3094 C 0.06432 0.98578 0.65669 0.0
C3095 C 0.05985 0.01117 0.68975 0.0
N3096 N 0.04872 0.99626 0.61802 0.0
N3097 N 0.04997 0.01276 0.67148 0.0
H3098 H 0.70886 0.31061 0.42049 0.0
H3099 H 0.78053 0.30813 0.33374 0.0
H3100 H 0.7573 0.35994 0.41478 0.0
H3101 H 0.7177 0.28265 0.32249 0.0
H3102 H 0.77478 0.32195 0.36704 0.0
H3103 H 0.71398 0.29549 0.38754 0.0
C3104 C 0.7205 0.3184 0.41245 0.0
C3105 C 0.73271 0.33668 0.42083 0.0
C3106 C 0.76229 0.31324 0.3573 0.0
C3107 C 0.73901 0.31885 0.38325 0.0
C3108 C 0.76557 0.30521 0.33836 0.0
C3109 C 0.74957 0.2942 0.32529 0.0
C3110 C 0.74295 0.3099 0.36345 0.0
C3111 C 0.73045 0.2911 0.33205 0.0
C3112 C 0.72347 0.30961 0.39365 0.0
C3113 C 0.74779 0.34561 0.40953 0.0
N3114 N 0.72768 0.29881 0.35072 0.0
N3115 N 0.7506 0.33654 0.3915 0.0
H3116 H 0.46862 0.08797 0.15504 0.0
H3117 H 0.48626 0.01067 0.06424 0.0
H3118 H 0.44584 0.02326 0.15117 0.0
H3119 H 0.51942 0.07172 0.07676 0.0
H3120 H 0.46868 0.01561 0.09413 0.0
H3121 H 0.48512 0.08283 0.12481 0.0
C3122 C 0.46715 0.07264 0.148 0.0
C3123 C 0.45576 0.05605 0.15591 0.0
C3124 C 0.47977 0.02794 0.0903 0.0
C3125 C 0.47444 0.05013 0.12076 0.0
C3126 C 0.48967 0.02517 0.07316 0.0
C3127 C 0.50419 0.04086 0.06796 0.0
C3128 C 0.48438 0.04658 0.10224 0.0
C3129 C 0.50835 0.05921 0.08026 0.0
C3130 C 0.47651 0.06975 0.13059 0.0
C3131 C 0.45415 0.03663 0.14562 0.0
N3132 N 0.49848 0.06158 0.09675 0.0
N3133 N 0.46333 0.03424 0.12862 0.0
H3134 H 0.8069 0.73771 0.92032 0.0
H3135 H 0.74178 0.78309 0.83504 0.0
H3136 H 0.74372 0.71722 0.90233 0.0
H3137 H 0.80291 0.77601 0.82854 0.0
H3138 H 0.74497 0.77018 0.86817 0.0
H3139 H 0.80756 0.76115 0.89349 0.0
C3140 C 0.79319 0.73808 0.91083 0.0
C3141 C 0.77521 0.72533 0.91363 0.0
C3142 C 0.75779 0.77184 0.85961 0.0
C3143 C 0.77583 0.75272 0.88378 0.0
C3144 C 0.75602 0.77922 0.84073 0.0
C3145 C 0.77194 0.78003 0.82881 0.0
C3146 C 0.77556 0.76529 0.86659 0.0
C3147 C 0.79018 0.77527 0.83715 0.0
C3148 C 0.79359 0.75163 0.89575 0.0
C3149 C 0.75785 0.72693 0.90115 0.0
N3150 N 0.79142 0.76769 0.85551 0.0
N3151 N 0.75861 0.74039 0.88683 0.0
H3152 H 0.89832 0.11816 0.98145 0.0
H3153 H 0.94576 0.0299 0.03525 0.0
H3154 H 0.87516 0.08846 0.03183 0.0
H3155 H 0.96593 0.05425 0.98126 0.0
H3156 H 0.92071 0.05239 0.03477 0.0
H3157 H 0.9239 0.09615 0.98163 0.0
C3158 C 0.8985 0.107 0.99251 0.0
C3159 C 0.88441 0.10531 0.00667 0.0
C3160 C 0.93062 0.05293 0.02303 0.0
C3161 C 0.914 0.08009 0.00706 0.0
C3162 C 0.94492 0.04004 0.02328 0.0
C3163 C 0.95813 0.04038 0.0084 0.0
C3164 C 0.92934 0.06631 0.00772 0.0
C3165 C 0.95637 0.05386 0.99328 0.0
C3166 C 0.91323 0.09448 0.99265 0.0
C3167 C 0.88578 0.09069 0.02081 0.0
N3168 N 0.94226 0.0663 0.99333 0.0
N3169 N 0.90022 0.07873 0.02062 0.0
H3170 H 0.34843 0.47301 0.05289 0.0
H3171 H 0.43784 0.50159 0.98642 0.0
H3172 H 0.35356 0.43811 0.99756 0.0
H3173 H 0.44609 0.51199 0.05114 0.0
H3174 H 0.40383 0.4837 0.98851 0.0
H3175 H 0.3818 0.49236 0.05096 0.0
C3176 C 0.35654 0.46927 0.04041 0.0
C3177 C 0.34805 0.45381 0.02537 0.0
C3178 C 0.4131 0.48999 0.00222 0.0
C3179 C 0.38594 0.47641 0.02283 0.0
C3180 C 0.43241 0.50031 0.00105 0.0
C3181 C 0.44476 0.50823 0.01865 0.0
C3182 C 0.40602 0.48791 0.02109 0.0
C3183 C 0.43706 0.50599 0.03723 0.0
C3184 C 0.37552 0.48045 0.03928 0.0
C3185 C 0.3592 0.4501 0.00932 0.0
N3186 N 0.4181 0.49608 0.03797 0.0
N3187 N 0.37752 0.4614 0.00842 0.0
H3188 H 0.33108 0.65778 0.78046 0.0
H3189 H 0.24661 0.71529 0.73022 0.0
H3190 H 0.29483 0.63608 0.7245 0.0
H3191 H 0.27572 0.7319 0.79031 0.0
H3192 H 0.26496 0.68674 0.72755 0.0
H3193 H 0.31195 0.68565 0.78403 0.0
C3194 C 0.31901 0.65875 0.76898 0.0
C3195 C 0.31459 0.64447 0.75214 0.0
C3196 C 0.26739 0.69661 0.74134 0.0
C3197 C 0.29278 0.67658 0.75605 0.0
C3198 C 0.25687 0.71287 0.74289 0.0
C3199 C 0.25993 0.7261 0.76041 0.0
C3200 C 0.28107 0.69352 0.75746 0.0
C3201 C 0.27336 0.72231 0.77636 0.0
C3202 C 0.30816 0.67475 0.771 0.0
C3203 C 0.29901 0.64683 0.73759 0.0
N3204 N 0.28353 0.7064 0.77449 0.0
N3205 N 0.28871 0.66255 0.73988 0.0
H3206 H 0.18486 0.5956 0.47657 0.0
H3207 H 0.10302 0.55381 0.54932 0.0
H3208 H 0.19725 0.59702 0.54103 0.0
H3209 H 0.08892 0.55922 0.48598 0.0
H3210 H 0.13826 0.56689 0.54613 0.0
H3211 H 0.15038 0.57933 0.47921 0.0
C3212 C 0.1804 0.59226 0.49126 0.0
C3213 C 0.19396 0.59775 0.50861 0.0
C3214 C 0.12748 0.56519 0.53291 0.0
C3215 C 0.15444 0.57928 0.51178 0.0
C3216 C 0.10739 0.5577 0.53473 0.0
C3217 C 0.09308 0.55552 0.51791 0.0
C3218 C 0.13332 0.57049 0.5141 0.0
C3219 C 0.0995 0.56074 0.49934 0.0
C3220 C 0.16067 0.58311 0.49277 0.0
C3221 C 0.18725 0.59329 0.52728 0.0
N3222 N 0.11914 0.56802 0.49793 0.0
N3223 N 0.16799 0.58436 0.52837 0.0
H3224 H 0.69373 0.9181 0.74878 0.0
H3225 H 0.72886 0.81815 0.7916 0.0
H3226 H 0.66636 0.88645 0.79603 0.0
H3227 H 0.75612 0.85071 0.74492 0.0
H3228 H 0.70546 0.84249 0.79321 0.0
H3229 H 0.71618 0.89313 0.74686 0.0
C3230 C 0.69229 0.90581 0.75866 0.0
C3231 C 0.67797 0.90442 0.77254 0.0
C3232 C 0.71655 0.84433 0.78261 0.0
C3233 C 0.70404 0.87574 0.77059 0.0
C3234 C 0.72985 0.83039 0.78163 0.0
C3235 C 0.74436 0.83235 0.768 0.0
C3236 C 0.71781 0.86044 0.76993 0.0
C3237 C 0.74516 0.84864 0.75564 0.0
C3238 C 0.70526 0.89159 0.75765 0.0
C3239 C 0.67724 0.88832 0.78523 0.0
N3240 N 0.73209 0.86202 0.75688 0.0
N3241 N 0.69004 0.87463 0.78393 0.0
H3242 H 0.67456 0.97959 0.47978 0.0
H3243 H 0.56962 0.98177 0.51671 0.0
H3244 H 0.66266 0.96976 0.54084 0.0
H3245 H 0.59283 0.03107 0.48204 0.0
H3246 H 0.60211 0.97078 0.51902 0.0
H3247 H 0.64335 0.9939 0.47467 0.0
C3248 C 0.66554 0.98078 0.49214 0.0
C3249 C 0.67109 0.97362 0.51078 0.0
C3250 C 0.60004 0.98395 0.51082 0.0
C3251 C 0.63567 0.98919 0.50488 0.0
C3252 C 0.58153 0.99016 0.50938 0.0
C3253 C 0.57873 0.00748 0.49936 0.0
C3254 C 0.61576 0.99493 0.50194 0.0
C3255 C 0.59458 0.01771 0.49 0.0
C3256 C 0.64789 0.9889 0.48922 0.0
C3257 C 0.65899 0.97533 0.52634 0.0
N3258 N 0.61263 0.01125 0.49151 0.0
N3259 N 0.64165 0.98265 0.52294 0.0
H3260 H 0.32005 0.43993 0.71994 0.0
H3261 H 0.27751 0.3558 0.79254 0.0
H3262 H 0.31282 0.454 0.78231 0.0
H3263 H 0.28406 0.34251 0.72983 0.0
H3264 H 0.28986 0.39188 0.78909 0.0
H3265 H 0.30593 0.40433 0.72316 0.0
C3266 C 0.31529 0.43561 0.73427 0.0
C3267 C 0.31767 0.45005 0.75088 0.0
C3268 C 0.28856 0.38105 0.77609 0.0
C3269 C 0.30174 0.4091 0.75477 0.0
C3270 C 0.28151 0.36042 0.77805 0.0
C3271 C 0.27972 0.34601 0.76146 0.0
C3272 C 0.29388 0.38736 0.75742 0.0
C3273 C 0.28516 0.35299 0.74307 0.0
C3274 C 0.30736 0.4152 0.73614 0.0
C3275 C 0.31154 0.44338 0.76916 0.0
N3276 N 0.29199 0.37311 0.74156 0.0
N3277 N 0.30391 0.42341 0.77062 0.0
H3278 H 0.15858 0.6069 0.25451 0.0
H3279 H 0.25599 0.69045 0.28354 0.0
H3280 H 0.21314 0.59133 0.28319 0.0
H3281 H 0.21132 0.69538 0.23475 0.0
H3282 H 0.23962 0.6552 0.28643 0.0
H3283 H 0.17666 0.64061 0.24995 0.0
C3284 C 0.17441 0.61038 0.25967 0.0
C3285 C 0.18431 0.59597 0.2691 0.0
C3286 C 0.23353 0.66397 0.275 0.0
C3287 C 0.20501 0.63507 0.26439 0.0
C3288 C 0.24283 0.68404 0.27336 0.0
C3289 C 0.23496 0.69575 0.25888 0.0
C3290 C 0.21607 0.65579 0.26231 0.0
C3291 C 0.21787 0.68681 0.24608 0.0
C3292 C 0.18469 0.62976 0.25714 0.0
C3293 C 0.20474 0.60189 0.27604 0.0
N3294 N 0.20888 0.66743 0.24822 0.0
N3295 N 0.21439 0.62101 0.27363 0.0
H3296 H 0.55304 0.69764 0.44229 0.0
H3297 H 0.48374 0.60775 0.48757 0.0
H3298 H 0.49021 0.69752 0.44732 0.0
H3299 H 0.5482 0.61756 0.4982 0.0
H3300 H 0.4857 0.64042 0.47244 0.0
H3301 H 0.55165 0.66819 0.46235 0.0
C3302 C 0.53899 0.69162 0.44778 0.0
C3303 C 0.52169 0.70013 0.44297 0.0
C3304 C 0.49942 0.63556 0.47828 0.0
C3305 C 0.51995 0.66605 0.46569 0.0
C3306 C 0.4983 0.61693 0.48691 0.0
C3307 C 0.51584 0.61001 0.49408 0.0
C3308 C 0.51824 0.64718 0.47651 0.0
C3309 C 0.53433 0.62242 0.49287 0.0
C3310 C 0.53821 0.67472 0.45919 0.0
C3311 C 0.50385 0.6913 0.45026 0.0
N3312 N 0.53507 0.64033 0.48402 0.0
N3313 N 0.50342 0.67469 0.46111 0.0
H3314 H 0.60162 0.25339 0.69417 0.0
H3315 H 0.69602 0.31051 0.76457 0.0
H3316 H 0.59455 0.29952 0.7401 0.0
H3317 H 0.68904 0.24656 0.74471 0.0
H3318 H 0.6605 0.30988 0.75285 0.0
H3319 H 0.63556 0.25378 0.70931 0.0
C3320 C 0.60696 0.26344 0.70758 0.0
C3321 C 0.59478 0.27622 0.71594 0.0
C3322 C 0.66679 0.29599 0.7513 0.0
C3323 C 0.63433 0.27724 0.73291 0.0
C3324 C 0.68701 0.29633 0.75795 0.0
C3325 C 0.69555 0.27856 0.75565 0.0
C3326 C 0.65524 0.27792 0.74185 0.0
C3327 C 0.68316 0.26062 0.74692 0.0
C3328 C 0.6265 0.26373 0.71611 0.0
C3329 C 0.60325 0.2895 0.73289 0.0
N3330 N 0.66376 0.26083 0.7401 0.0
N3331 N 0.62253 0.28975 0.74074 0.0
H3332 H 0.03851 0.38905 0.95888 0.0
H3333 H 0.97261 0.4775 0.96506 0.0
H3334 H 0.99777 0.40102 0.90924 0.0
H3335 H 0.02628 0.47827 0.00507 0.0
H3336 H 0.98014 0.44778 0.94566 0.0
H3337 H 0.03325 0.42038 0.97715 0.0
C3338 C 0.02861 0.39828 0.9517 0.0
C3339 C 0.01846 0.39215 0.93246 0.0
C3340 C 0.99035 0.45452 0.95861 0.0
C3341 C 0.01206 0.42786 0.95358 0.0
C3342 C 0.98602 0.47141 0.9697 0.0
C3343 C 0.99887 0.4803 0.98661 0.0
C3344 C 0.00753 0.44628 0.96467 0.0
C3345 C 0.01606 0.47189 0.99202 0.0
C3346 C 0.02554 0.41613 0.96222 0.0
C3347 C 0.00557 0.40472 0.92418 0.0
N3348 N 0.01984 0.45524 0.98115 0.0
N3349 N 0.00264 0.42183 0.93483 0.0
H3350 H 0.8833 0.78215 0.18667 0.0
H3351 H 0.82982 0.76075 0.28678 0.0
H3352 H 0.91133 0.75789 0.23825 0.0
H3353 H 0.80288 0.78587 0.23536 0.0
H3354 H 0.85966 0.759 0.26923 0.0
H3355 H 0.85348 0.78288 0.20407 0.0
C3356 C 0.88326 0.77707 0.20171 0.0
C3357 C 0.89998 0.77004 0.211 0.0
C3358 C 0.84713 0.76469 0.26168 0.0
C3359 C 0.86563 0.77066 0.23105 0.0
C3360 C 0.83013 0.76568 0.2717 0.0
C3361 C 0.81365 0.77287 0.26222 0.0
C3362 C 0.84771 0.77116 0.24213 0.0
C3363 C 0.81488 0.77937 0.24282 0.0
C3364 C 0.86614 0.77739 0.21161 0.0
C3365 C 0.89879 0.76326 0.23038 0.0
N3366 N 0.83158 0.77836 0.23341 0.0
N3367 N 0.88196 0.7638 0.23976 0.0
H3368 H 0.4713 0.37629 0.04178 0.0
H3369 H 0.53275 0.48751 0.03148 0.0
H3370 H 0.52606 0.40212 0.07883 0.0
H3371 H 0.47553 0.46385 0.99806 0.0
H3372 H 0.53128 0.4557 0.0481 0.0
H3373 H 0.47311 0.40778 0.02474 0.0
C3374 C 0.48365 0.38862 0.04639 0.0
C3375 C 0.49855 0.38658 0.06174 0.0
C3376 C 0.51902 0.45744 0.03715 0.0
C3377 C 0.50085 0.42254 0.04216 0.0
C3378 C 0.51982 0.47561 0.0278 0.0
C3379 C 0.50407 0.4783 0.01376 0.0
C3380 C 0.50241 0.44184 0.03222 0.0
C3381 C 0.48794 0.46229 0.00891 0.0
C3382 C 0.48474 0.40655 0.03658 0.0
C3383 C 0.51439 0.40293 0.06689 0.0
N3384 N 0.48747 0.44471 0.0182 0.0
N3385 N 0.51511 0.42023 0.05712 0.0
H3386 H 0.94313 0.27944 0.30997 0.0
H3387 H 0.82582 0.23788 0.29457 0.0
H3388 H 0.91301 0.23097 0.34159 0.0
H3389 H 0.85326 0.29392 0.27232 0.0
H3390 H 0.85899 0.23023 0.30484 0.0
H3391 H 0.91165 0.2799 0.28924 0.0
C3392 C 0.92997 0.26875 0.3124 0.0
C3393 C 0.9306 0.25545 0.32783 0.0
C3394 C 0.8578 0.24412 0.29755 0.0
C3395 C 0.89473 0.25577 0.3041 0.0
C3396 C 0.8389 0.24851 0.29175 0.0
C3397 C 0.83696 0.26675 0.28302 0.0
C3398 C 0.87483 0.25817 0.29472 0.0
C3399 C 0.85425 0.27984 0.2793 0.0
C3400 C 0.91206 0.26897 0.30052 0.0
C3401 C 0.91327 0.24151 0.32992 0.0
N3402 N 0.87257 0.27542 0.28544 0.0
N3403 N 0.89597 0.24223 0.31837 0.0
H3404 H 0.96935 0.68648 0.5453 0.0
H3405 H 0.03919 0.6039 0.52275 0.0
H3406 H 0.03324 0.69643 0.56174 0.0
H3407 H 0.97453 0.59075 0.51592 0.0
H3408 H 0.03765 0.63985 0.53078 0.0
H3409 H 0.97151 0.65343 0.52832 0.0
C3410 C 0.98387 0.68183 0.54507 0.0
C3411 C 0.00112 0.69407 0.55511 0.0
C3412 C 0.02381 0.62911 0.5273 0.0
C3413 C 0.00368 0.65628 0.53591 0.0
C3414 C 0.02466 0.60858 0.52264 0.0
C3415 C 0.00696 0.59422 0.51895 0.0
C3416 C 0.00512 0.63531 0.52823 0.0
C3417 C 0.98857 0.60123 0.51893 0.0
C3418 C 0.98509 0.66294 0.53548 0.0
C3419 C 0.01953 0.68726 0.55448 0.0
N3420 N 0.98814 0.62126 0.52371 0.0
N3421 N 0.02031 0.66875 0.54517 0.0
H3422 H 0.59082 0.74036 0.82382 0.0
H3423 H 0.68024 0.8022 0.77257 0.0
H3424 H 0.61683 0.8034 0.84103 0.0
H3425 H 0.67294 0.73707 0.77696 0.0
H3426 H 0.64972 0.80295 0.78892 0.0
H3427 H 0.6146 0.73936 0.79882 0.0
C3428 C 0.60152 0.75398 0.82242 0.0
C3429 C 0.60202 0.77192 0.83484 0.0
C3430 C 0.65462 0.78846 0.78594 0.0
C3431 C 0.62865 0.77098 0.80576 0.0
C3432 C 0.6719 0.78798 0.77651 0.0
C3433 C 0.67913 0.76957 0.77374 0.0
C3434 C 0.64452 0.77037 0.79242 0.0
C3435 C 0.66785 0.75158 0.77907 0.0
C3436 C 0.6149 0.75342 0.808 0.0
C3437 C 0.61577 0.78927 0.83178 0.0
N3438 N 0.65113 0.75244 0.7884 0.0
N3439 N 0.6286 0.78834 0.8176 0.0
H3440 H 0.44917 0.58809 0.65376 0.0
H3441 H 0.49377 0.51243 0.58063 0.0
H3442 H 0.42857 0.52292 0.64542 0.0
H3443 H 0.49196 0.57468 0.5668 0.0
H3444 H 0.47645 0.51807 0.61004 0.0
H3445 H 0.47016 0.58511 0.62627 0.0
C3446 C 0.44893 0.57319 0.64618 0.0
C3447 C 0.43711 0.5557 0.65215 0.0
C3448 C 0.48 0.53055 0.60066 0.0
C3449 C 0.46157 0.55224 0.6212 0.0
C3450 C 0.49002 0.52741 0.58389 0.0
C3451 C 0.49417 0.54305 0.57103 0.0
C3452 C 0.47417 0.5495 0.60478 0.0
C3453 C 0.48898 0.56216 0.57623 0.0
C3454 C 0.46104 0.57154 0.63061 0.0
C3455 C 0.43774 0.5368 0.64186 0.0
N3456 N 0.47912 0.56485 0.59269 0.0
N3457 N 0.44984 0.53558 0.62704 0.0
H3458 H 0.78815 0.25449 0.92446 0.0
H3459 H 0.76586 0.24044 0.8048 0.0
H3460 H 0.77097 0.19541 0.89162 0.0
H3461 H 0.75971 0.29571 0.83896 0.0
H3462 H 0.77121 0.22428 0.83623 0.0
H3463 H 0.78198 0.27066 0.89306 0.0
C3464 C 0.78317 0.2449 0.91068 0.0
C3465 C 0.78002 0.2235 0.91079 0.0
C3466 C 0.76859 0.23991 0.83686 0.0
C3467 C 0.77289 0.24197 0.87476 0.0
C3468 C 0.76538 0.2491 0.81889 0.0
C3469 C 0.76185 0.2693 0.81919 0.0
C3470 C 0.76896 0.25121 0.85537 0.0
C3471 C 0.76206 0.28 0.83799 0.0
C3472 C 0.7795 0.25415 0.89279 0.0
C3473 C 0.77337 0.21193 0.8924 0.0
N3474 N 0.76572 0.27089 0.85532 0.0
N3475 N 0.77012 0.22128 0.87518 0.0
H3476 H 0.02957 0.486 0.17896 0.0
H3477 H 0.05701 0.5147 0.06951 0.0
H3478 H 0.08923 0.50913 0.1651 0.0
H3479 H 0.9965 0.5084 0.08567 0.0
H3480 H 0.06853 0.50805 0.10356 0.0
H3481 H 0.01675 0.48969 0.14402 0.0
C3482 C 0.03996 0.49175 0.16856 0.0
C3483 C 0.06048 0.49743 0.17501 0.0
C3484 C 0.05271 0.50806 0.09968 0.0
C3485 C 0.04597 0.50157 0.1351 0.0
C3486 C 0.04606 0.51179 0.08015 0.0
C3487 C 0.0257 0.51222 0.07461 0.0
C3488 C 0.03897 0.50457 0.11394 0.0
C3489 C 0.01234 0.50831 0.08923 0.0
C3490 C 0.03263 0.49394 0.14868 0.0
C3491 C 0.07327 0.50486 0.1609 0.0
N3492 N 0.0192 0.50466 0.10823 0.0
N3493 N 0.06583 0.50667 0.14168 0.0
H3494 H 0.72317 0.86318 0.41973 0.0
H3495 H 0.72352 0.76749 0.3439 0.0
H3496 H 0.70732 0.80253 0.43922 0.0
H3497 H 0.76729 0.82276 0.3495 0.0
H3498 H 0.70968 0.77993 0.37413 0.0
H3499 H 0.72939 0.8483 0.38753 0.0
C3500 C 0.72039 0.8467 0.4171 0.0
C3501 C 0.71489 0.83407 0.43233 0.0
C3502 C 0.72235 0.78916 0.36867 0.0
C3503 C 0.72267 0.81708 0.39561 0.0
C3504 C 0.73027 0.78212 0.35161 0.0
C3505 C 0.74658 0.79416 0.34445 0.0
C3506 C 0.73057 0.8085 0.378 0.0
C3507 C 0.75479 0.813 0.35469 0.0
C3508 C 0.72424 0.83826 0.39877 0.0
C3509 C 0.7119 0.81279 0.42799 0.0
N3510 N 0.74655 0.8197 0.37089 0.0
N3511 N 0.71609 0.80487 0.40999 0.0
H3512 H 0.46262 0.53678 0.82841 0.0
H3513 H 0.47443 0.57526 0.94384 0.0
H3514 H 0.44371 0.59212 0.85036 0.0
H3515 H 0.50474 0.52821 0.9205 0.0
H3516 H 0.46501 0.58319 0.90947 0.0
H3517 H 0.48037 0.53483 0.86152 0.0
C3518 C 0.46246 0.54866 0.84017 0.0
C3519 C 0.45153 0.56451 0.83678 0.0
C3520 C 0.47391 0.57128 0.91183 0.0
C3521 C 0.47157 0.56229 0.87469 0.0
C3522 C 0.47921 0.56671 0.93143 0.0
C3523 C 0.49013 0.55091 0.93487 0.0
C3524 C 0.47936 0.55975 0.8956 0.0
C3525 C 0.49617 0.54041 0.91838 0.0
C3526 C 0.47262 0.54759 0.85904 0.0
C3527 C 0.45197 0.57966 0.85239 0.0
N3528 N 0.49047 0.54484 0.89939 0.0
N3529 N 0.46156 0.57801 0.87079 0.0
H3530 H 0.75302 0.21532 0.10141 0.0
H3531 H 0.79975 0.26548 0.21085 0.0
H3532 H 0.81652 0.23256 0.11893 0.0
H3533 H 0.73639 0.25553 0.19138 0.0
H3534 H 0.80598 0.25312 0.17742 0.0
H3535 H 0.74656 0.22956 0.13415 0.0
C3536 C 0.76565 0.22227 0.11202 0.0
C3537 C 0.78541 0.22276 0.1072 0.0
C3538 C 0.79071 0.2537 0.18038 0.0
C3539 C 0.77799 0.23887 0.1451 0.0
C3540 C 0.7871 0.26077 0.19954 0.0
C3541 C 0.76747 0.26159 0.20405 0.0
C3542 C 0.7746 0.24717 0.16549 0.0
C3543 C 0.75177 0.25528 0.18863 0.0
C3544 C 0.7619 0.2303 0.13081 0.0
C3545 C 0.80106 0.23157 0.12192 0.0
N3546 N 0.75566 0.24825 0.1701 0.0
N3547 N 0.79702 0.23922 0.14013 0.0
H3548 H 0.04238 0.52881 0.36075 0.0
H3549 H 0.04067 0.51101 0.47786 0.0
H3550 H 0.07796 0.48974 0.39147 0.0
H3551 H 0.9975 0.54039 0.44451 0.0
H3552 H 0.05631 0.5054 0.44701 0.0
H3553 H 0.02741 0.53528 0.39178 0.0
C3554 C 0.04709 0.52162 0.37403 0.0
C3555 C 0.06149 0.5087 0.37345 0.0
C3556 C 0.04345 0.51311 0.44642 0.0
C3557 C 0.04434 0.51607 0.40914 0.0
C3558 C 0.03457 0.51642 0.46406 0.0
C3559 C 0.01775 0.52618 0.46372 0.0
C3560 C 0.03553 0.51972 0.42831 0.0
C3561 C 0.01043 0.53277 0.44541 0.0
C3562 C 0.03845 0.52525 0.39174 0.0
C3563 C 0.06678 0.49962 0.39112 0.0
N3564 N 0.01935 0.52943 0.42844 0.0
N3565 N 0.05828 0.50354 0.40823 0.0
H3566 H 0.71101 0.84295 0.62856 0.0
H3567 H 0.77852 0.78369 0.69585 0.0
H3568 H 0.76352 0.82274 0.60827 0.0
H3569 H 0.71696 0.78625 0.70506 0.0
H3570 H 0.77245 0.79516 0.6623 0.0
H3571 H 0.71177 0.81995 0.65533 0.0
C3572 C 0.72254 0.83348 0.62954 0.0
C3573 C 0.73743 0.83505 0.61635 0.0
C3574 C 0.76017 0.79281 0.67152 0.0
C3575 C 0.73857 0.80895 0.64719 0.0
C3576 C 0.76364 0.78631 0.69069 0.0
C3577 C 0.74834 0.78448 0.7034 0.0
C3578 C 0.74139 0.7978 0.66526 0.0
C3579 C 0.72928 0.78776 0.69586 0.0
C3580 C 0.72297 0.82035 0.64486 0.0
C3581 C 0.7521 0.8225 0.61849 0.0
N3582 N 0.72644 0.79468 0.67739 0.0
N3583 N 0.75248 0.81018 0.63383 0.0
H3584 H 0.62369 0.44628 0.48806 0.0
H3585 H 0.55277 0.50701 0.54721 0.0
H3586 H 0.63619 0.46203 0.55212 0.0
H3587 H 0.56651 0.52001 0.4874 0.0
H3588 H 0.57804 0.48425 0.54876 0.0
H3589 H 0.59752 0.46735 0.48708 0.0
C3590 C 0.62117 0.45417 0.50195 0.0
C3591 C 0.63268 0.45237 0.52019 0.0
C3592 C 0.57545 0.49209 0.53531 0.0
C3593 C 0.6018 0.47602 0.51911 0.0
C3594 C 0.56103 0.50496 0.53439 0.0
C3595 C 0.55769 0.51546 0.5172 0.0
C3596 C 0.5862 0.48934 0.51873 0.0
C3597 C 0.56878 0.51233 0.501 0.0
C3598 C 0.60601 0.46609 0.50134 0.0
C3599 C 0.62779 0.46254 0.53769 0.0
N3600 N 0.58242 0.49946 0.50209 0.0
N3601 N 0.61273 0.47384 0.53672 0.0
H3602 H 0.16484 0.08689 0.47509 0.0
H3603 H 0.07648 0.06431 0.54357 0.0
H3604 H 0.16204 0.12426 0.52956 0.0
H3605 H 0.06623 0.05285 0.47898 0.0
H3606 H 0.11057 0.08122 0.54033 0.0
H3607 H 0.13078 0.0696 0.47766 0.0
C3608 C 0.15712 0.09162 0.4875 0.0
C3609 C 0.16649 0.10712 0.50215 0.0
C3610 C 0.10083 0.07496 0.5269 0.0
C3611 C 0.12776 0.08687 0.50542 0.0
C3612 C 0.08146 0.0652 0.52872 0.0
C3613 C 0.06855 0.0572 0.5115 0.0
C3614 C 0.10743 0.07637 0.50776 0.0
C3615 C 0.07571 0.05892 0.49262 0.0
C3616 C 0.13772 0.08161 0.48899 0.0
C3617 C 0.15574 0.11214 0.51813 0.0
N3618 N 0.09477 0.06824 0.49124 0.0
N3619 N 0.13702 0.10195 0.51941 0.0
H3620 H 0.21276 0.9146 0.81241 0.0
H3621 H 0.24444 0.82955 0.73795 0.0
H3622 H 0.20177 0.91353 0.74784 0.0
H3623 H 0.26952 0.84273 0.79982 0.0
H3624 H 0.22563 0.85789 0.74162 0.0
H3625 H 0.23052 0.88566 0.80848 0.0
C3626 C 0.21402 0.90821 0.79741 0.0
C3627 C 0.20585 0.91652 0.78042 0.0
C3628 C 0.23529 0.85459 0.75437 0.0
C3629 C 0.22616 0.88344 0.7758 0.0
C3630 C 0.2459 0.8384 0.7523 0.0
C3631 C 0.25842 0.83384 0.76862 0.0
C3632 C 0.23716 0.86615 0.77295 0.0
C3633 C 0.26008 0.84587 0.78683 0.0
C3634 C 0.22425 0.89178 0.79517 0.0
C3635 C 0.20806 0.90774 0.76133 0.0
N3636 N 0.24949 0.86141 0.78854 0.0
N3637 N 0.21794 0.89163 0.75952 0.0
H3638 H 0.3202 0.97633 0.99842 0.0
H3639 H 0.43303 0.00115 0.051 0.0
H3640 H 0.33787 0.96193 0.05874 0.0
H3641 H 0.4154 0.01731 0.9914 0.0
H3642 H 0.39789 0.98862 0.05485 0.0
H3643 H 0.35442 0.99345 0.99636 0.0
C3644 C 0.33118 0.97698 0.01135 0.0
C3645 C 0.32608 0.96755 0.02876 0.0
C3646 C 0.40164 0.99501 0.04096 0.0
C3647 C 0.3655 0.98691 0.02635 0.0
C3648 C 0.4217 0.00218 0.03877 0.0
C3649 C 0.42708 0.01017 0.02082 0.0
C3650 C 0.38682 0.99576 0.02503 0.0
C3651 C 0.41185 0.01121 0.00547 0.0
C3652 C 0.35079 0.98666 0.0101 0.0
C3653 C 0.34112 0.96866 0.04489 0.0
N3654 N 0.39241 0.00396 0.00787 0.0
N3655 N 0.36012 0.97805 0.04325 0.0
H3656 H 0.82422 0.64355 0.7829 0.0
H3657 H 0.79208 0.74487 0.74024 0.0
H3658 H 0.85045 0.67277 0.73373 0.0
H3659 H 0.76442 0.71322 0.78724 0.0
H3660 H 0.81446 0.71952 0.73824 0.0
H3661 H 0.80316 0.66977 0.78537 0.0
C3662 C 0.8257 0.65557 0.7727 0.0
C3663 C 0.83926 0.65591 0.75812 0.0
C3664 C 0.8035 0.71812 0.749 0.0
C3665 C 0.81482 0.68603 0.76072 0.0
C3666 C 0.79079 0.73264 0.7502 0.0
C3667 C 0.77645 0.73118 0.764 0.0
C3668 C 0.80181 0.70199 0.76166 0.0
C3669 C 0.77526 0.7149 0.77638 0.0
C3670 C 0.81353 0.6705 0.77404 0.0
C3671 C 0.84011 0.67172 0.74508 0.0
N3672 N 0.78775 0.70098 0.77493 0.0
N3673 N 0.82811 0.68613 0.74671 0.0
H3674 H 0.86369 0.60078 0.98699 0.0
H3675 H 0.91721 0.51976 0.03781 0.0
H3676 H 0.83719 0.57646 0.03838 0.0
H3677 H 0.94819 0.58014 0.02982 0.0
H3678 H 0.88505 0.53256 0.0328 0.0
H3679 H 0.89238 0.58398 0.99523 0.0
C3680 C 0.86383 0.59182 0.99993 0.0
C3681 C 0.84826 0.59045 0.01232 0.0
C3682 C 0.89902 0.5429 0.0325 0.0
C3683 C 0.88073 0.57082 0.02139 0.0
C3684 C 0.91725 0.53571 0.03544 0.0
C3685 C 0.93525 0.54891 0.03401 0.0
C3686 C 0.89913 0.56312 0.02768 0.0
C3687 C 0.93463 0.56941 0.03083 0.0
C3688 C 0.88012 0.5822 0.00453 0.0
C3689 C 0.84892 0.57796 0.02848 0.0
N3690 N 0.91683 0.57578 0.02736 0.0
N3691 N 0.86507 0.56866 0.0327 0.0
H3692 H 0.19809 0.11174 0.74276 0.0
H3693 H 0.23576 0.22246 0.79967 0.0
H3694 H 0.20619 0.12314 0.80735 0.0
H3695 H 0.23759 0.20974 0.73594 0.0
H3696 H 0.22377 0.18634 0.80248 0.0
H3697 H 0.21149 0.14768 0.7397 0.0
C3698 C 0.2027 0.12181 0.7563 0.0
C3699 C 0.20098 0.11442 0.77535 0.0
C3700 C 0.22684 0.19142 0.78789 0.0
C3701 C 0.21632 0.1556 0.77196 0.0
C3702 C 0.23365 0.2121 0.78623 0.0
C3703 C 0.23772 0.21923 0.76751 0.0
C3704 C 0.2239 0.17766 0.77069 0.0
C3705 C 0.23469 0.20498 0.75068 0.0
C3706 C 0.21043 0.1423 0.75455 0.0
C3707 C 0.20742 0.12811 0.79238 0.0
N3708 N 0.2279 0.18489 0.75266 0.0
N3709 N 0.21468 0.14804 0.79028 0.0
H3710 H 0.35493 0.95138 0.23813 0.0
H3711 H 0.26144 0.87907 0.27166 0.0
H3712 H 0.30003 0.97391 0.24711 0.0
H3713 H 0.3059 0.85704 0.23831 0.0
H3714 H 0.27599 0.91429 0.26579 0.0
H3715 H 0.33793 0.91694 0.24102 0.0
C3716 C 0.33921 0.94917 0.24038 0.0
C3717 C 0.32894 0.9658 0.24215 0.0
C3718 C 0.28241 0.90168 0.25967 0.0
C3719 C 0.30949 0.92604 0.24623 0.0
C3720 C 0.27418 0.88166 0.26305 0.0
C3721 C 0.28257 0.86521 0.25553 0.0
C3722 C 0.2993 0.90514 0.24899 0.0
C3723 C 0.29901 0.86931 0.24443 0.0
C3724 C 0.32955 0.9294 0.24221 0.0
C3725 C 0.30871 0.96172 0.24585 0.0
N3726 N 0.30694 0.88884 0.24166 0.0
N3727 N 0.29967 0.94226 0.2479 0.0
H3728 H 0.52658 0.35676 0.57703 0.0
H3729 H 0.46701 0.43863 0.52772 0.0
H3730 H 0.46628 0.36266 0.58862 0.0
H3731 H 0.53147 0.44768 0.53785 0.0
H3732 H 0.46547 0.4064 0.54385 0.0
H3733 H 0.52759 0.38623 0.55695 0.0
C3734 C 0.51355 0.3642 0.57545 0.0
C3735 C 0.49636 0.35715 0.58478 0.0
C3736 C 0.47994 0.41537 0.54237 0.0
C3737 C 0.49732 0.39063 0.56125 0.0
C3738 C 0.48083 0.43365 0.53307 0.0
C3739 C 0.49939 0.44578 0.53155 0.0
C3740 C 0.49775 0.40909 0.54993 0.0
C3741 C 0.51686 0.43874 0.5388 0.0
C3742 C 0.51413 0.38095 0.56384 0.0
C3743 C 0.47979 0.36722 0.58159 0.0
N3744 N 0.51563 0.42085 0.54771 0.0
N3745 N 0.4807 0.38341 0.57012 0.0
H3746 H 0.41752 0.7503 0.30694 0.0
H3747 H 0.3304 0.81395 0.27573 0.0
H3748 H 0.42373 0.81578 0.31681 0.0
H3749 H 0.32063 0.74815 0.27489 0.0
H3750 H 0.36562 0.81472 0.2872 0.0
H3751 H 0.38311 0.74913 0.29169 0.0
C3752 C 0.41172 0.76445 0.30572 0.0
C3753 C 0.42352 0.78316 0.31326 0.0
C3754 C 0.35581 0.8001 0.28442 0.0
C3755 C 0.3841 0.78192 0.29588 0.0
C3756 C 0.33564 0.79962 0.27779 0.0
C3757 C 0.32238 0.78094 0.27437 0.0
C3758 C 0.36294 0.78178 0.28766 0.0
C3759 C 0.33021 0.76292 0.27734 0.0
C3760 C 0.39203 0.76376 0.29712 0.0
C3761 C 0.41511 0.80099 0.31146 0.0
N3762 N 0.34993 0.7638 0.28387 0.0
N3763 N 0.39596 0.79992 0.30298 0.0
H3764 H 0.01245 0.69095 0.06392 0.0
H3765 H 0.9988 0.56904 0.05571 0.0
H3766 H 0.98163 0.65275 0.10483 0.0
H3767 H 0.02854 0.60582 0.01316 0.0
H3768 H 0.99111 0.59972 0.07275 0.0
H3769 H 0.01735 0.6603 0.04422 0.0
C3770 C 0.00669 0.67613 0.06877 0.0
C3771 C 0.99672 0.67448 0.08619 0.0
C3772 C 0.99922 0.60117 0.05963 0.0
C3773 C 0.00217 0.6393 0.06356 0.0
C3774 C 0.00353 0.58362 0.04981 0.0
C3775 C 0.01413 0.58489 0.03285 0.0
C3776 C 0.00574 0.6203 0.05265 0.0
C3777 C 0.02027 0.6042 0.02615 0.0
C3778 C 0.00942 0.65864 0.05744 0.0
C3779 C 0.98925 0.65484 0.09147 0.0
N3780 N 0.01603 0.62121 0.03612 0.0
N3781 N 0.99223 0.63807 0.08028 0.0
H3782 H 0.13231 0.27181 0.83866 0.0
H3783 H 0.18997 0.29568 0.74159 0.0
H3784 H 0.10994 0.30545 0.79096 0.0
H3785 H 0.21497 0.26956 0.79334 0.0
H3786 H 0.15975 0.29802 0.75844 0.0
H3787 H 0.16209 0.26972 0.82151 0.0
C3788 C 0.1336 0.27868 0.82451 0.0
C3789 C 0.11851 0.28875 0.81621 0.0
C3790 C 0.17192 0.29193 0.76619 0.0
C3791 C 0.15275 0.28648 0.79646 0.0
C3792 C 0.18909 0.29055 0.75656 0.0
C3793 C 0.20513 0.28296 0.76638 0.0
C3794 C 0.17072 0.28533 0.78564 0.0
C3795 C 0.20326 0.27625 0.78561 0.0
C3796 C 0.15069 0.27758 0.81477 0.0
C3797 C 0.12124 0.29767 0.798 0.0
N3798 N 0.18639 0.27759 0.79462 0.0
N3799 N 0.13797 0.29625 0.78869 0.0
H3800 H 0.53204 0.66164 0.94585 0.0
H3801 H 0.5054 0.60549 0.04403 0.0
H3802 H 0.50327 0.6896 0.99235 0.0
H3803 H 0.51415 0.57464 0.98804 0.0
H3804 H 0.50881 0.63791 0.02782 0.0
H3805 H 0.53015 0.63076 0.96384 0.0
C3806 C 0.52552 0.66132 0.95998 0.0
C3807 C 0.51781 0.67812 0.96768 0.0
C3808 C 0.50977 0.62392 0.01909 0.0
C3809 C 0.51545 0.64287 0.98825 0.0
C3810 C 0.50785 0.60552 0.02829 0.0
C3811 C 0.50885 0.58729 0.0171 0.0
C3812 C 0.51323 0.62395 0.99876 0.0
C3813 C 0.51237 0.58806 0.99694 0.0
C3814 C 0.5243 0.64366 0.97016 0.0
C3815 C 0.50924 0.67685 0.9859 0.0
N3816 N 0.5145 0.60608 0.98841 0.0
N3817 N 0.50832 0.65947 0.99564 0.0
H3818 H 0.10198 0.83033 0.68873 0.0
H3819 H 0.16502 0.76488 0.75732 0.0
H3820 H 0.07629 0.77467 0.71302 0.0
H3821 H 0.19035 0.81988 0.73181 0.0
H3822 H 0.13145 0.7713 0.74613 0.0
H3823 H 0.13323 0.83016 0.70967 0.0
C3824 C 0.10278 0.81827 0.69875 0.0
C3825 C 0.08663 0.80228 0.69886 0.0
C3826 C 0.14434 0.78209 0.74317 0.0
C3827 C 0.1225 0.80175 0.72253 0.0
C3828 C 0.16345 0.7784 0.74952 0.0
C3829 C 0.18032 0.7917 0.74511 0.0
C3830 C 0.14222 0.79913 0.7323 0.0
C3831 C 0.17763 0.8091 0.73519 0.0
C3832 C 0.12069 0.8181 0.71061 0.0
C3833 C 0.08858 0.787 0.71207 0.0
N3834 N 0.1589 0.81222 0.72891 0.0
N3835 N 0.1063 0.78696 0.72319 0.0
H3836 H 0.98751 0.37332 0.45625 0.0
H3837 H 0.04517 0.47052 0.52188 0.0
H3838 H 0.04392 0.37196 0.49134 0.0
H3839 H 0.98078 0.45902 0.50867 0.0
H3840 H 0.04586 0.43499 0.51058 0.0
H3841 H 0.98545 0.4054 0.47459 0.0
C3842 C 0.99936 0.37954 0.46799 0.0
C3843 C 0.01591 0.36974 0.47222 0.0
C3844 C 0.03158 0.44021 0.5105 0.0
C3845 C 0.01382 0.40698 0.49294 0.0
C3846 C 0.03116 0.46047 0.51693 0.0
C3847 C 0.01291 0.46783 0.51599 0.0
C3848 C 0.01368 0.42741 0.50278 0.0
C3849 C 0.99522 0.45408 0.50955 0.0
C3850 C 0.99817 0.39797 0.47842 0.0
C3851 C 0.03104 0.37906 0.48726 0.0
N3852 N 0.99608 0.43463 0.50286 0.0
N3853 N 0.02973 0.39728 0.49695 0.0
H3854 H 0.40391 0.25758 0.18883 0.0
H3855 H 0.34571 0.32902 0.24847 0.0
H3856 H 0.42564 0.32245 0.19911 0.0
H3857 H 0.34188 0.26493 0.25739 0.0
H3858 H 0.37608 0.32779 0.23183 0.0
H3859 H 0.38169 0.26024 0.21482 0.0
C3860 C 0.40422 0.27236 0.1967 0.0
C3861 C 0.41656 0.28985 0.1916 0.0
C3862 C 0.36882 0.31412 0.23783 0.0
C3863 C 0.39079 0.29304 0.22114 0.0
C3864 C 0.35156 0.31483 0.24731 0.0
C3865 C 0.34124 0.29697 0.25392 0.0
C3866 C 0.37542 0.29535 0.23475 0.0
C3867 C 0.34934 0.27897 0.25222 0.0
C3868 C 0.39149 0.27386 0.21155 0.0
C3869 C 0.416 0.30864 0.20215 0.0
N3870 N 0.36579 0.27851 0.24243 0.0
N3871 N 0.40311 0.30979 0.21626 0.0
H3872 H 0.58715 0.47554 0.38689 0.0
H3873 H 0.51469 0.53969 0.44066 0.0
H3874 H 0.56761 0.52893 0.3637 0.0
H3875 H 0.53017 0.48368 0.46172 0.0
H3876 H 0.5319 0.53441 0.41096 0.0
H3877 H 0.56462 0.47681 0.4131 0.0
C3878 C 0.57802 0.48743 0.38719 0.0
C3879 C 0.57946 0.50227 0.37315 0.0
C3880 C 0.53134 0.52313 0.42194 0.0
C3881 C 0.55371 0.5039 0.40324 0.0
C3882 C 0.52145 0.52611 0.43891 0.0
C3883 C 0.52104 0.51216 0.45378 0.0
C3884 C 0.5411 0.50618 0.41988 0.0
C3885 C 0.53003 0.49482 0.45063 0.0
C3886 C 0.56519 0.48818 0.4022 0.0
C3887 C 0.56735 0.51742 0.37443 0.0
N3888 N 0.5399 0.49244 0.43415 0.0
N3889 N 0.5551 0.5179 0.38925 0.0
H3890 H 0.23704 0.86612 0.13981 0.0
H3891 H 0.27178 0.7692 0.18965 0.0
H3892 H 0.24482 0.81181 0.10494 0.0
H3893 H 0.24946 0.81669 0.22294 0.0
H3894 H 0.26587 0.78635 0.15876 0.0
H3895 H 0.24526 0.84995 0.17063 0.0
C3896 C 0.24056 0.85082 0.1386 0.0
C3897 C 0.24018 0.84033 0.11966 0.0
C3898 C 0.2624 0.79308 0.17286 0.0
C3899 C 0.24965 0.82166 0.15507 0.0
C3900 C 0.26588 0.78336 0.19051 0.0
C3901 C 0.2612 0.79156 0.20893 0.0
C3902 C 0.25432 0.81125 0.17363 0.0
C3903 C 0.25344 0.80989 0.20912 0.0
C3904 C 0.24516 0.84155 0.15624 0.0
C3905 C 0.24467 0.82041 0.11915 0.0
N3906 N 0.25026 0.81909 0.19178 0.0
N3907 N 0.24928 0.81178 0.13654 0.0
H3908 H 0.98065 0.5481 0.84919 0.0
H3909 H 0.96541 0.55891 0.96627 0.0
H3910 H 0.93478 0.57771 0.87259 0.0
H3911 H 0.01491 0.53487 0.94351 0.0
H3912 H 0.95405 0.56598 0.93212 0.0
H3913 H 0.99343 0.54315 0.88358 0.0
C3914 C 0.97326 0.55359 0.86155 0.0
C3915 C 0.95657 0.56332 0.85792 0.0
C3916 C 0.96745 0.55924 0.9346 0.0
C3917 C 0.97119 0.55771 0.89746 0.0
C3918 C 0.97396 0.55517 0.95413 0.0
C3919 C 0.99118 0.54626 0.95785 0.0
C3920 C 0.97812 0.55427 0.91856 0.0
C3921 C 0.00159 0.54179 0.94144 0.0
C3922 C 0.98063 0.55082 0.88121 0.0
C3923 C 0.9478 0.57033 0.87462 0.0
N3924 N 0.99486 0.54575 0.92254 0.0
N3925 N 0.95514 0.56729 0.8936 0.0
H3926 H 0.31725 0.23021 0.60512 0.0
H3927 H 0.24866 0.28646 0.66975 0.0
H3928 H 0.26793 0.25691 0.57915 0.0
H3929 H 0.30247 0.26634 0.6943 0.0
H3930 H 0.25865 0.28119 0.63593 0.0
H3931 H 0.31604 0.24931 0.63699 0.0
C3932 C 0.30647 0.24048 0.60597 0.0
C3933 C 0.29232 0.24157 0.58961 0.0
C3934 C 0.26843 0.27822 0.64873 0.0
C3935 C 0.29046 0.26301 0.62621 0.0
C3936 C 0.26267 0.28113 0.66797 0.0
C3937 C 0.27457 0.27636 0.68461 0.0
C3938 C 0.28608 0.2703 0.64629 0.0
C3939 C 0.29271 0.26981 0.68171 0.0
C3940 C 0.30569 0.2513 0.62424 0.0
C3941 C 0.27868 0.25511 0.59162 0.0
N3942 N 0.29779 0.26668 0.66285 0.0
N3943 N 0.27781 0.265 0.60974 0.0
H3944 H 0.58004 0.47373 0.17448 0.0
H3945 H 0.51122 0.53887 0.11136 0.0
H3946 H 0.55496 0.52337 0.201 0.0
H3947 H 0.53473 0.48776 0.08584 0.0
H3948 H 0.52409 0.53127 0.14496 0.0
H3949 H 0.56044 0.47628 0.14265 0.0
C3950 C 0.57019 0.48498 0.17372 0.0
C3951 C 0.56931 0.49848 0.19044 0.0
C3952 C 0.52625 0.52158 0.13203 0.0
C3953 C 0.54707 0.50175 0.15382 0.0
C3954 C 0.51889 0.5259 0.11289 0.0
C3955 C 0.52214 0.51403 0.0959 0.0
C3956 C 0.53697 0.50532 0.13409 0.0
C3957 C 0.53209 0.49738 0.09861 0.0
C3958 C 0.55908 0.48652 0.15547 0.0
C3959 C 0.55644 0.51292 0.1884 0.0
N3960 N 0.53932 0.49363 0.11735 0.0
N3961 N 0.54596 0.51429 0.17039 0.0
H3962 H 0.20342 0.84199 0.90553 0.0
H3963 H 0.27929 0.79387 0.8392 0.0
H3964 H 0.26166 0.83182 0.93003 0.0
H3965 H 0.2203 0.80318 0.81608 0.0
H3966 H 0.27318 0.80709 0.87265 0.0
H3967 H 0.20946 0.82745 0.87276 0.0
C3968 C 0.21752 0.83677 0.90405 0.0
C3969 C 0.23204 0.83823 0.92069 0.0
C3970 C 0.26156 0.80615 0.86025 0.0
C3971 C 0.23904 0.82129 0.88298 0.0
C3972 C 0.26503 0.79856 0.84112 0.0
C3973 C 0.2503 0.79733 0.82469 0.0
C3974 C 0.24324 0.81262 0.86301 0.0
C3975 C 0.23214 0.80376 0.82819 0.0
C3976 C 0.22093 0.82834 0.8853 0.0
C3977 C 0.24989 0.83082 0.91777 0.0
N3978 N 0.22918 0.81113 0.84687 0.0
N3979 N 0.2529 0.82277 0.89932 0.0
H3980 H 0.93093 0.56303 0.63941 0.0
H3981 H 0.02344 0.52359 0.59255 0.0
H3982 H 0.97862 0.54194 0.67509 0.0
H3983 H 0.97714 0.54749 0.5577 0.0
H3984 H 0.00659 0.52879 0.62276 0.0
H3985 H 0.94695 0.55609 0.60922 0.0
C3986 C 0.94473 0.55684 0.64092 0.0
C3987 C 0.95339 0.55308 0.65993 0.0
C3988 C 1.00006 0.53282 0.60849 0.0
C3989 C 0.972 0.54524 0.62523 0.0
C3990 C 0.00966 0.52981 0.59125 0.0
C3991 C 0.00167 0.53511 0.57261 0.0
C3992 C 0.98233 0.5412 0.6071 0.0
C3993 C 0.98379 0.54314 0.57177 0.0
C3994 C 0.95394 0.55298 0.62364 0.0
C3995 C 0.97149 0.54536 0.66086 0.0
N3996 N 0.97475 0.54597 0.58875 0.0
N3997 N 0.98015 0.54168 0.64379 0.0
H3998 H 0.3118 0.22016 0.40037 0.0
H3999 H 0.25147 0.291 0.34038 0.0
H4000 H 0.26567 0.24831 0.42529 0.0
H4001 H 0.30859 0.27817 0.32487 0.0
H4002 H 0.25879 0.27951 0.37369 0.0
H4003 H 0.31345 0.24458 0.37474 0.0
C4004 C 0.30224 0.23167 0.40066 0.0
C4005 C 0.28826 0.2319 0.41472 0.0
C4006 C 0.26994 0.27965 0.36317 0.0
C4007 C 0.28987 0.2597 0.38526 0.0
C4008 C 0.26575 0.28619 0.34415 0.0
C4009 C 0.27925 0.28508 0.32975 0.0
C4010 C 0.28754 0.27157 0.36758 0.0
C4011 C 0.29765 0.27903 0.33547 0.0
C4012 C 0.30319 0.24563 0.38601 0.0
C4013 C 0.2762 0.24715 0.41431 0.0
N4014 N 0.30107 0.27202 0.35384 0.0
N4015 N 0.27705 0.26023 0.3996 0.0
H4016 H 0.39854 0.61872 0.48101 0.0
H4017 H 0.44402 0.52938 0.53485 0.0
H4018 H 0.37363 0.58792 0.53 0.0
H4019 H 0.46518 0.55348 0.48114 0.0
H4020 H 0.41927 0.55215 0.53401 0.0
H4021 H 0.42394 0.59646 0.48142 0.0
C4022 C 0.39829 0.60728 0.49181 0.0
C4023 C 0.38377 0.60536 0.50553 0.0
C4024 C 0.42932 0.55258 0.52239 0.0
C4025 C 0.41315 0.57988 0.50619 0.0
C4026 C 0.44347 0.53952 0.52285 0.0
C4027 C 0.45684 0.53967 0.50815 0.0
C4028 C 0.42837 0.56597 0.50706 0.0
C4029 C 0.45543 0.55318 0.493 0.0
C4030 C 0.41292 0.59462 0.49208 0.0
C4031 C 0.3846 0.59037 0.51935 0.0
N4032 N 0.44147 0.5658 0.49284 0.0
N4033 N 0.39895 0.5783 0.51931 0.0
H4034 H 0.8425 0.96929 0.4977 0.0
H4035 H 0.95465 0.99637 0.55132 0.0
H4036 H 0.86313 0.94343 0.55176 0.0
H4037 H 0.93582 0.01676 0.49369 0.0
H4038 H 0.92054 0.97903 0.55301 0.0
H4039 H 0.87609 0.98854 0.49704 0.0
C4040 C 0.85412 0.96756 0.50937 0.0
C4041 C 0.85001 0.95463 0.52476 0.0
C4042 C 0.92385 0.98736 0.54003 0.0
C4043 C 0.88843 0.97689 0.52425 0.0
C4044 C 0.94334 0.99734 0.53907 0.0
C4045 C 0.94815 0.00802 0.5223 0.0
C4046 C 0.90905 0.98806 0.52412 0.0
C4047 C 0.93283 0.00867 0.50688 0.0
C4048 C 0.87327 0.97867 0.50905 0.0
C4049 C 0.86556 0.95335 0.53972 0.0
N4050 N 0.91398 0.99877 0.50815 0.0
N4051 N 0.88409 0.96431 0.53907 0.0
H4052 H 0.79997 0.13652 0.22236 0.0
H4053 H 0.77578 0.23011 0.29173 0.0
H4054 H 0.8256 0.15121 0.28402 0.0
H4055 H 0.74892 0.21303 0.23091 0.0
H4056 H 0.79472 0.20178 0.28931 0.0
H4057 H 0.78137 0.16473 0.22537 0.0
C4058 C 0.80158 0.14557 0.2366 0.0
C4059 C 0.81434 0.14139 0.25298 0.0
C4060 C 0.7847 0.20424 0.27649 0.0
C4061 C 0.79322 0.17403 0.25646 0.0
C4062 C 0.77405 0.22049 0.27782 0.0
C4063 C 0.76108 0.22402 0.26139 0.0
C4064 C 0.7822 0.19143 0.25861 0.0
C4065 C 0.75881 0.21079 0.24392 0.0
C4066 C 0.79103 0.16179 0.23828 0.0
C4067 C 0.81611 0.15398 0.27092 0.0
N4068 N 0.76932 0.19513 0.24297 0.0
N4069 N 0.80567 0.16972 0.27219 0.0
H4070 H 0.68459 0.09957 0.97421 0.0
H4071 H 0.60441 0.03746 0.03775 0.0
H4072 H 0.69958 0.08264 0.03419 0.0
H4073 H 0.58884 0.06586 0.98369 0.0
H4074 H 0.64 0.04953 0.03466 0.0
H4075 H 0.65012 0.08263 0.97528 0.0
C4076 C 0.68071 0.09203 0.9875 0.0
C4077 C 0.69499 0.09259 0.00417 0.0
C4078 C 0.62878 0.05302 0.02343 0.0
C4079 C 0.65543 0.07336 0.0056 0.0
C4080 C 0.60852 0.04609 0.02517 0.0
C4081 C 0.59375 0.05081 0.01103 0.0
C4082 C 0.63422 0.06457 0.00734 0.0
C4083 C 0.59979 0.06202 0.995 0.0
C4084 C 0.66097 0.0825 0.98817 0.0
C4085 C 0.68899 0.08279 0.0211 0.0
N4086 N 0.61954 0.06855 0.99361 0.0
N4087 N 0.66966 0.07363 0.02141 0.0
H4088 H 0.19128 0.41757 0.2489 0.0
H4089 H 0.23027 0.32028 0.29351 0.0
H4090 H 0.16845 0.38915 0.30007 0.0
H4091 H 0.25259 0.34962 0.24268 0.0
H4092 H 0.20705 0.34474 0.29598 0.0
H4093 H 0.21327 0.39227 0.24618 0.0
C4094 C 0.19073 0.4059 0.25948 0.0
C4095 C 0.17783 0.4055 0.27468 0.0
C4096 C 0.21701 0.34582 0.28427 0.0
C4097 C 0.20339 0.37647 0.2718 0.0
C4098 C 0.2302 0.33182 0.28282 0.0
C4099 C 0.2433 0.3329 0.26781 0.0
C4100 C 0.21697 0.36106 0.27066 0.0
C4101 C 0.24276 0.34827 0.25449 0.0
C4102 C 0.20344 0.3915 0.25799 0.0
C4103 C 0.17823 0.39021 0.28822 0.0
N4104 N 0.22984 0.36172 0.25622 0.0
N4105 N 0.19076 0.37632 0.28644 0.0
H4106 H 0.18428 0.49458 0.02159 0.0
H4107 H 0.07092 0.49208 0.97665 0.0
H4108 H 0.14555 0.44117 0.99173 0.0
H4109 H 0.10236 0.53793 0.02198 0.0
H4110 H 0.10138 0.47725 0.9753 0.0
H4111 H 0.15714 0.51421 0.01565 0.0
C4112 C 0.17015 0.48698 0.01373 0.0
C4113 C 0.16716 0.4661 0.00736 0.0
C4114 C 0.10169 0.49071 0.98536 0.0
C4115 C 0.13632 0.48858 1.00015 0.0
C4116 C 0.08436 0.4992 0.98609 0.0
C4117 C 0.08419 0.51605 0.99962 0.0
C4118 C 0.11889 0.49917 0.99827 0.0
C4119 C 0.10194 0.5248 0.01147 0.0
C4120 C 0.15475 0.49824 0.01023 0.0
C4121 C 0.14868 0.45723 0.99677 0.0
N4122 N 0.11861 0.51611 0.01067 0.0
N4123 N 0.13394 0.4685 0.99361 0.0
H4124 H 0.80486 0.93849 0.21717 0.0
H4125 H 0.78417 0.85049 0.29247 0.0
H4126 H 0.82553 0.94672 0.28057 0.0
H4127 H 0.77641 0.8394 0.22779 0.0
H4128 H 0.79625 0.88661 0.28878 0.0
H4129 H 0.79137 0.90287 0.22117 0.0
C4130 C 0.80663 0.93285 0.23192 0.0
C4131 C 0.81643 0.94574 0.24853 0.0
C4132 C 0.79188 0.87625 0.27541 0.0
C4133 C 0.80072 0.90489 0.25326 0.0
C4134 C 0.78491 0.85563 0.2775 0.0
C4135 C 0.77929 0.84182 0.26042 0.0
C4136 C 0.79306 0.88318 0.25611 0.0
C4137 C 0.78066 0.84941 0.2414 0.0
C4138 C 0.79883 0.91249 0.23421 0.0
C4139 C 0.81787 0.93754 0.26736 0.0
N4140 N 0.78736 0.86954 0.23978 0.0
N4141 N 0.81013 0.91767 0.2692 0.0
H4142 H 0.68299 0.08941 0.7378 0.0
H4143 H 0.72896 0.19735 0.79485 0.0
H4144 H 0.69416 0.09893 0.80241 0.0
H4145 H 0.73685 0.18289 0.7328 0.0
H4146 H 0.71491 0.16157 0.79756 0.0
H4147 H 0.70157 0.12372 0.73513 0.0
C4148 C 0.68945 0.0987 0.75141 0.0
C4149 C 0.68695 0.09139 0.77036 0.0
C4150 C 0.71985 0.16615 0.78338 0.0
C4151 C 0.70804 0.13063 0.76743 0.0
C4152 C 0.72779 0.18657 0.78181 0.0
C4153 C 0.73399 0.19302 0.76356 0.0
C4154 C 0.71778 0.15211 0.76648 0.0
C4155 C 0.73222 0.17847 0.74714 0.0
C4156 C 0.70012 0.11822 0.74987 0.0
C4157 C 0.69581 0.10394 0.78751 0.0
N4158 N 0.72408 0.15868 0.74892 0.0
N4159 N 0.70575 0.12303 0.78565 0.0
loop_
_geom_bond_atom_site_label_1
_geom_bond_atom_site_label_2
_geom_bond_distance
_geom_bond_site_symmetry_2
_ccdc_geom_bond_type
Li0 N17 1.990 . S
Li0 O60 1.956 1_655 S
Li0 O61 1.970 . S
Li0 O62 1.961 1_655 S
Li1 N25 1.990 . S
Li1 O60 1.970 . S
Li1 O61 1.956 1_455 S
Li1 O63 1.961 . S
Li2 N47 1.990 . S
Li2 O60 1.961 . S
Li2 O62 1.956 . S
Li2 O63 1.970 . S
Li3 N53 1.990 . S
Li3 O61 1.961 1_455 S
Li3 O62 1.970 . S
Li3 O63 1.956 . S
C4 C6 1.348 . S
C4 C7 1.356 . S
C4 O60 1.325 . S
N5 C8 1.314 . S
N5 C9 1.279 . S
C6 C4 1.348 . S
C6 C8 1.353 . S
C6 H64 0.929 . S
C7 C4 1.356 . S
C7 C9 1.358 . S
C7 H65 0.930 . S
C8 N5 1.314 . S
C8 C6 1.353 . S
C8 H66 0.930 . S
C9 N5 1.279 . S
C9 C7 1.358 . S
C9 H67 0.930 . S
C10 C13 1.348 . S
C10 C14 1.356 . S
C10 O61 1.325 . S
C11 N12 1.279 . S
C11 C14 1.358 . S
C11 H68 0.930 . S
N12 C11 1.279 . S
N12 C15 1.314 . S
C13 C10 1.348 . S
C13 C15 1.353 . S
C13 H69 0.929 . S
C14 C10 1.356 . S
C14 C11 1.358 . S
C14 H70 0.930 . S
C15 N12 1.314 . S
C15 C13 1.353 . S
C15 H71 0.930 . S
C16 N17 1.314 . S
C16 C21 1.353 . S
C16 H22 0.930 . S
N17 Li0 1.990 . S
N17 C16 1.314 . S
N17 C19 1.279 . S
C18 C19 1.358 . S
C18 C20 1.356 . S
C18 H72 0.930 . S
C19 N17 1.279 . S
C19 C18 1.358 . S
C19 H23 0.930 . S
C20 C18 1.356 . S
C20 C21 1.348 . S
C21 C16 1.353 . S
C21 C20 1.348 . S
C21 H73 0.929 . S
H22 C16 0.930 . S
H23 C19 0.930 . S
C24 N25 1.314 . S
C24 C26 1.353 . S
C24 H30 0.930 . S
N25 Li1 1.990 . S
N25 C24 1.314 . S
N25 C28 1.279 . S
C26 C24 1.353 . S
C26 C29 1.348 . S
C26 H74 0.929 . S
C27 C28 1.358 . S
C27 C29 1.356 . S
C27 H75 0.930 1_455 S
C28 N25 1.279 . S
C28 C27 1.358 . S
C28 H31 0.930 1_455 S
C29 C26 1.348 . S
C29 C27 1.356 . S
H30 C24 0.930 . S
H31 C28 0.930 1_655 S
C32 C34 1.348 . S
C32 C35 1.356 . S
C32 O62 1.325 . S
N33 C36 1.314 . S
N33 C37 1.279 . S
C34 C32 1.348 . S
C34 C36 1.353 . S
C34 H76 0.929 . S
C35 C32 1.356 . S
C35 C37 1.358 . S
C35 H77 0.930 . S
C36 N33 1.314 . S
C36 C34 1.353 . S
C36 H78 0.930 . S
C37 N33 1.279 . S
C37 C35 1.358 . S
C37 H79 0.930 . S
C38 C39 1.348 . S
C38 C40 1.356 . S
C38 O63 1.325 . S
C39 C38 1.348 . S
C39 C41 1.353 . S
C39 H80 0.929 . S
C40 C38 1.356 . S
C40 C42 1.358 . S
C40 H81 0.930 . S
C41 C39 1.353 . S
C41 N43 1.314 . S
C41 H82 0.930 . S
C42 C40 1.358 . S
C42 N43 1.279 . S
C42 H83 0.930 . S
N43 C41 1.314 . S
N43 C42 1.279 . S
C44 C46 1.353 . S
C44 N47 1.314 . S
C44 H50 0.930 . S
C45 N47 1.279 . S
C45 C48 1.358 . S
C45 H51 0.930 . S
C46 C44 1.353 . S
C46 C49 1.348 . S
C46 H84 0.929 . S
N47 Li2 1.990 . S
N47 C44 1.314 . S
N47 C45 1.279 . S
C48 C45 1.358 . S
C48 C49 1.356 . S
C48 H85 0.930 . S
C49 C46 1.348 . S
C49 C48 1.356 . S
H50 C44 0.930 . S
H51 C45 0.930 . S
C52 N53 1.288 1_655 S
C52 C54 1.354 . S
C52 H58 0.959 . S
N53 Li3 1.990 . S
N53 C52 1.288 1_455 S
N53 C56 1.279 . S
C54 C52 1.354 . S
C54 C57 1.348 1_655 S
C54 H86 0.929 . S
C55 C56 1.358 . S
C55 C57 1.356 . S
C55 H87 0.930 . S
C56 N53 1.279 . S
C56 C55 1.358 . S
C56 H59 0.930 . S
C57 C54 1.348 1_455 S
C57 C55 1.356 . S
H58 C52 0.959 . S
H59 C56 0.930 . S
O60 Li0 1.956 1_455 S
O60 Li1 1.970 . S
O60 Li2 1.961 . S
O60 C4 1.325 . S
O61 Li0 1.970 . S
O61 Li1 1.956 1_655 S
O61 Li3 1.961 1_655 S
O61 C10 1.325 . S
O62 Li0 1.961 1_455 S
O62 Li2 1.956 . S
O62 Li3 1.970 . S
O62 C32 1.325 . S
O63 Li1 1.961 . S
O63 Li2 1.970 . S
O63 Li3 1.956 . S
O63 C38 1.325 . S
H64 C6 0.929 . S
H65 C7 0.930 . S
H66 C8 0.930 . S
H67 C9 0.930 . S
H68 C11 0.930 . S
H69 C13 0.929 . S
H70 C14 0.930 . S
H71 C15 0.930 . S
H72 C18 0.930 . S
H73 C21 0.929 . S
H74 C26 0.929 . S
H75 C27 0.930 1_655 S
H76 C34 0.929 . S
H77 C35 0.930 . S
H78 C36 0.930 . S
H79 C37 0.930 . S
H80 C39 0.929 . S
H81 C40 0.930 . S
H82 C41 0.930 . S
H83 C42 0.930 . S
H84 C46 0.929 . S
H85 C48 0.930 . S
H86 C54 0.929 . S
H87 C55 0.930 . S
Li88 N105 1.990 . S
Li88 O148 1.956 . S
Li88 O149 1.970 . S
Li88 O150 1.961 1_455 S
Li89 N113 1.990 . S
Li89 O148 1.970 . S
Li89 O149 1.956 . S
Li89 O151 1.957 1_455 S
Li90 N135 1.990 . S
Li90 O148 1.961 1_655 S
Li90 O150 1.956 . S
Li90 O151 1.970 . S
Li91 N141 1.990 . S
Li91 O149 1.961 1_655 S
Li91 O150 1.970 . S
Li91 O151 1.961 . S
C92 C94 1.348 . S
C92 C95 1.356 . S
C92 O148 1.325 . S
N93 C96 1.314 . S
N93 C97 1.279 . S
C94 C92 1.348 . S
C94 C96 1.353 . S
C94 H152 0.929 . S
C95 C92 1.356 . S
C95 C97 1.358 . S
C95 H153 0.930 . S
C96 N93 1.314 . S
C96 C94 1.353 . S
C96 H154 0.930 . S
C97 N93 1.279 . S
C97 C95 1.358 . S
C97 H155 0.930 . S
C98 C101 1.348 . S
C98 C102 1.356 . S
C98 O149 1.325 . S
C99 N100 1.279 . S
C99 C102 1.358 . S
C99 H156 0.930 . S
N100 C99 1.279 . S
N100 C103 1.314 . S
C101 C98 1.348 . S
C101 C103 1.353 . S
C101 H157 0.929 . S
C102 C98 1.356 . S
C102 C99 1.358 . S
C102 H158 0.924 1_455 S
C103 N100 1.314 . S
C103 C101 1.353 . S
C103 H159 0.930 . S
C104 N105 1.314 1_655 S
C104 C109 1.353 . S
C104 H110 0.930 . S
N105 Li88 1.990 . S
N105 C104 1.314 1_455 S
N105 C107 1.279 . S
C106 C107 1.358 . S
C106 C108 1.356 . S
C106 H160 0.930 . S
C107 N105 1.279 . S
C107 C106 1.358 . S
C107 H111 0.930 . S
C108 C106 1.356 . S
C108 C109 1.348 1_455 S
C109 C104 1.353 . S
C109 C108 1.348 1_655 S
C109 H161 0.929 . S
H110 C104 0.930 . S
H111 C107 0.930 . S
C112 N113 1.314 . S
C112 C114 1.353 . S
C112 H118 0.930 . S
N113 Li89 1.990 . S
N113 C112 1.314 . S
N113 C116 1.279 . S
C114 C112 1.353 . S
C114 C117 1.348 . S
C114 H162 0.929 . S
C115 C116 1.358 . S
C115 C117 1.356 . S
C115 H163 0.930 . S
C116 N113 1.279 . S
C116 C115 1.358 . S
C116 H119 0.930 . S
C117 C114 1.348 . S
C117 C115 1.356 . S
H118 C112 0.930 . S
H119 C116 0.930 . S
C120 C122 1.348 . S
C120 C123 1.356 . S
C120 O150 1.325 . S
N121 C124 1.314 . S
N121 C125 1.279 . S
C122 C120 1.348 . S
C122 C124 1.353 . S
C122 H164 0.929 . S
C123 C120 1.356 . S
C123 C125 1.358 . S
C123 H165 0.930 . S
C124 N121 1.314 . S
C124 C122 1.353 . S
C124 H166 0.930 . S
C125 N121 1.279 . S
C125 C123 1.358 . S
C125 H167 0.930 . S
C126 C127 1.348 . S
C126 C128 1.356 1_655 S
C126 O151 1.325 . S
C127 C126 1.348 . S
C127 C129 1.353 . S
C127 H168 0.929 . S
C128 C126 1.356 1_455 S
C128 C130 1.358 . S
C128 H169 0.930 . S
C129 C127 1.353 . S
C129 N131 1.314 . S
C129 H170 0.930 . S
C130 C128 1.358 . S
C130 N131 1.279 1_455 S
C130 H171 0.930 . S
N131 C129 1.314 . S
N131 C130 1.279 1_655 S
C132 C134 1.353 . S
C132 N135 1.314 1_455 S
C132 H138 0.930 . S
C133 N135 1.279 . S
C133 C136 1.358 . S
C133 H139 0.930 . S
C134 C132 1.353 . S
C134 C137 1.348 1_455 S
C134 H172 0.929 . S
N135 Li90 1.990 . S
N135 C132 1.314 1_655 S
N135 C133 1.279 . S
C136 C133 1.358 . S
C136 C137 1.356 . S
C136 H173 0.930 . S
C137 C134 1.348 1_655 S
C137 C136 1.356 . S
H138 C132 0.930 . S
H139 C133 0.930 . S
C140 N141 1.314 . S
C140 C142 1.353 . S
C140 H146 0.930 . S
N141 Li91 1.990 . S
N141 C140 1.314 . S
N141 C144 1.279 . S
C142 C140 1.353 . S
C142 C145 1.348 . S
C142 H174 0.929 . S
C143 C144 1.358 . S
C143 C145 1.356 . S
C143 H175 0.930 . S
C144 N141 1.279 . S
C144 C143 1.358 . S
C144 H147 0.930 . S
C145 C142 1.348 . S
C145 C143 1.356 . S
H146 C140 0.930 . S
H147 C144 0.930 . S
O148 Li88 1.956 . S
O148 Li89 1.970 . S
O148 Li90 1.961 1_455 S
O148 C92 1.325 . S
O149 Li88 1.970 . S
O149 Li89 1.956 . S
O149 Li91 1.961 1_455 S
O149 C98 1.325 . S
O150 Li88 1.961 1_655 S
O150 Li90 1.956 . S
O150 Li91 1.970 . S
O150 C120 1.325 . S
O151 Li89 1.957 1_655 S
O151 Li90 1.970 . S
O151 Li91 1.961 . S
O151 C126 1.325 . S
H152 C94 0.929 . S
H153 C95 0.930 . S
H154 C96 0.930 . S
H155 C97 0.930 . S
H156 C99 0.930 . S
H157 C101 0.929 . S
H158 C102 0.924 1_655 S
H159 C103 0.930 . S
H160 C106 0.930 . S
H161 C109 0.929 . S
H162 C114 0.929 . S
H163 C115 0.930 . S
H164 C122 0.929 . S
H165 C123 0.930 . S
H166 C124 0.930 . S
H167 C125 0.930 . S
H168 C127 0.929 . S
H169 C128 0.930 . S
H170 C129 0.930 . S
H171 C130 0.930 . S
H172 C134 0.929 . S
H173 C136 0.930 . S
H174 C142 0.929 . S
H175 C143 0.930 . S
Li176 N193 1.990 . S
Li176 O236 1.956 . S
Li176 O237 1.970 . S
Li176 O238 1.961 . S
Li177 N201 1.990 . S
Li177 O236 1.970 . S
Li177 O237 1.956 . S
Li177 O239 1.961 . S
Li178 N223 1.990 . S
Li178 O236 1.961 . S
Li178 O238 1.956 . S
Li178 O239 1.970 . S
Li179 N229 1.990 . S
Li179 O237 1.961 . S
Li179 O238 1.970 . S
Li179 O239 1.956 . S
C180 C182 1.348 . S
C180 C183 1.356 . S
C180 O236 1.325 . S
N181 C184 1.314 . S
N181 C185 1.279 . S
C182 C180 1.348 . S
C182 C184 1.353 . S
C182 H240 0.929 . S
C183 C180 1.356 . S
C183 C185 1.358 . S
C183 H241 0.930 . S
C184 N181 1.314 . S
C184 C182 1.353 . S
C184 H242 0.930 . S
C185 N181 1.279 . S
C185 C183 1.358 . S
C185 H243 0.930 . S
C186 C189 1.348 . S
C186 C190 1.356 . S
C186 O237 1.325 . S
C187 N188 1.279 . S
C187 C190 1.358 . S
C187 H244 0.930 . S
N188 C187 1.279 . S
N188 C191 1.314 . S
C189 C186 1.348 . S
C189 C191 1.353 . S
C189 H245 0.929 . S
C190 C186 1.356 . S
C190 C187 1.358 . S
C190 H246 0.930 . S
C191 N188 1.314 . S
C191 C189 1.353 . S
C191 H247 0.930 . S
C192 N193 1.314 . S
C192 C197 1.353 . S
C192 H198 0.930 . S
N193 Li176 1.990 . S
N193 C192 1.314 . S
N193 C195 1.279 . S
C194 C195 1.358 . S
C194 C196 1.356 . S
C194 H248 0.930 . S
C195 N193 1.279 . S
C195 C194 1.358 . S
C195 H199 0.930 . S
C196 C194 1.356 . S
C196 C197 1.348 . S
C197 C192 1.353 . S
C197 C196 1.348 . S
C197 H249 0.929 . S
H198 C192 0.930 . S
H199 C195 0.930 . S
C200 N201 1.314 . S
C200 C202 1.353 . S
C200 H206 0.930 . S
N201 Li177 1.990 . S
N201 C200 1.314 . S
N201 C204 1.279 . S
C202 C200 1.353 . S
C202 C205 1.348 . S
C202 H250 0.929 . S
C203 C204 1.358 . S
C203 C205 1.356 . S
C203 H251 0.930 . S
C204 N201 1.279 . S
C204 C203 1.358 . S
C204 H207 0.930 . S
C205 C202 1.348 . S
C205 C203 1.356 . S
H206 C200 0.930 . S
H207 C204 0.930 . S
C208 C210 1.348 . S
C208 C211 1.356 . S
C208 O238 1.325 . S
N209 C212 1.314 . S
N209 C213 1.279 . S
C210 C208 1.348 . S
C210 C212 1.353 . S
C210 H252 0.929 . S
C211 C208 1.356 . S
C211 C213 1.358 . S
C211 H253 0.930 . S
C212 N209 1.314 . S
C212 C210 1.353 . S
C212 H254 0.930 . S
C213 N209 1.279 . S
C213 C211 1.358 . S
C213 H255 0.930 . S
C214 C215 1.348 . S
C214 C216 1.356 . S
C214 O239 1.325 . S
C215 C214 1.348 . S
C215 C217 1.353 . S
C215 H256 0.929 . S
C216 C214 1.356 . S
C216 C218 1.358 . S
C216 H257 0.930 . S
C217 C215 1.353 . S
C217 N219 1.314 . S
C217 H258 0.930 . S
C218 C216 1.358 . S
C218 N219 1.279 . S
C218 H259 0.930 . S
N219 C217 1.314 . S
N219 C218 1.279 . S
C220 C222 1.353 . S
C220 N223 1.314 . S
C220 H226 0.930 . S
C221 N223 1.279 . S
C221 C224 1.358 . S
C221 H227 0.930 . S
C222 C220 1.353 . S
C222 C225 1.348 . S
C222 H260 0.929 . S
N223 Li178 1.990 . S
N223 C220 1.314 . S
N223 C221 1.279 . S
C224 C221 1.358 . S
C224 C225 1.356 . S
C224 H261 0.930 . S
C225 C222 1.348 . S
C225 C224 1.356 . S
H226 C220 0.930 . S
H227 C221 0.930 . S
C228 N229 1.314 . S
C228 C230 1.353 . S
C228 H234 0.930 . S
N229 Li179 1.990 . S
N229 C228 1.314 . S
N229 C232 1.279 . S
C230 C228 1.353 . S
C230 C233 1.348 . S
C230 H262 0.929 . S
C231 C232 1.358 . S
C231 C233 1.356 . S
C231 H263 0.930 . S
C232 N229 1.279 . S
C232 C231 1.358 . S
C232 H235 0.930 . S
C233 C230 1.348 . S
C233 C231 1.356 . S
H234 C228 0.930 . S
H235 C232 0.930 . S
O236 Li176 1.956 . S
O236 Li177 1.970 . S
O236 Li178 1.961 . S
O236 C180 1.325 . S
O237 Li176 1.970 . S
O237 Li177 1.956 . S
O237 Li179 1.961 . S
O237 C186 1.325 . S
O238 Li176 1.961 . S
O238 Li178 1.956 . S
O238 Li179 1.970 . S
O238 C208 1.325 . S
O239 Li177 1.961 . S
O239 Li178 1.970 . S
O239 Li179 1.956 . S
O239 C214 1.325 . S
H240 C182 0.929 . S
H241 C183 0.930 . S
H242 C184 0.930 . S
H243 C185 0.930 . S
H244 C187 0.930 . S
H245 C189 0.929 . S
H246 C190 0.930 . S
H247 C191 0.930 . S
H248 C194 0.930 . S
H249 C197 0.929 . S
H250 C202 0.929 . S
H251 C203 0.930 . S
H252 C210 0.929 . S
H253 C211 0.930 . S
H254 C212 0.930 . S
H255 C213 0.930 . S
H256 C215 0.929 . S
H257 C216 0.930 . S
H258 C217 0.930 . S
H259 C218 0.930 . S
H260 C222 0.929 . S
H261 C224 0.930 . S
H262 C230 0.929 . S
H263 C231 0.930 . S
Li264 N281 1.990 . S
Li264 O324 1.956 . S
Li264 O325 1.970 . S
Li264 O326 1.961 . S
Li265 N289 1.990 . S
Li265 O324 1.970 . S
Li265 O325 1.956 . S
Li265 O327 1.961 . S
Li266 N311 1.990 . S
Li266 O324 1.961 . S
Li266 O326 1.956 . S
Li266 O327 1.970 . S
Li267 N317 1.990 . S
Li267 O325 1.961 . S
Li267 O326 1.970 . S
Li267 O327 1.956 . S
C268 C270 1.348 . S
C268 C271 1.356 . S
C268 O324 1.325 . S
N269 C272 1.314 . S
N269 C273 1.279 . S
C270 C268 1.348 . S
C270 C272 1.353 . S
C270 H328 0.929 . S
C271 C268 1.356 . S
C271 C273 1.358 . S
C271 H329 0.930 . S
C272 N269 1.314 . S
C272 C270 1.353 . S
C272 H330 0.930 . S
C273 N269 1.279 . S
C273 C271 1.358 . S
C273 H331 0.930 . S
C274 C277 1.348 . S
C274 C278 1.356 . S
C274 O325 1.325 . S
C275 N276 1.279 . S
C275 C278 1.358 . S
C275 H332 0.930 . S
N276 C275 1.279 . S
N276 C279 1.314 . S
C277 C274 1.348 . S
C277 C279 1.353 . S
C277 H333 0.929 . S
C278 C274 1.356 . S
C278 C275 1.358 . S
C278 H334 0.930 . S
C279 N276 1.314 . S
C279 C277 1.353 . S
C279 H335 0.930 . S
C280 N281 1.314 . S
C280 C285 1.353 . S
C280 H286 0.930 . S
N281 Li264 1.990 . S
N281 C280 1.314 . S
N281 C283 1.279 . S
C282 C283 1.358 . S
C282 C284 1.356 . S
C282 H336 0.930 . S
C283 N281 1.279 . S
C283 C282 1.358 . S
C283 H287 0.930 . S
C284 C282 1.356 . S
C284 C285 1.348 . S
C285 C280 1.353 . S
C285 C284 1.348 . S
C285 H337 0.929 . S
H286 C280 0.930 . S
H287 C283 0.930 . S
C288 N289 1.314 . S
C288 C290 1.353 . S
C288 H294 0.930 . S
N289 Li265 1.990 . S
N289 C288 1.314 . S
N289 C292 1.279 . S
C290 C288 1.353 . S
C290 C293 1.348 . S
C290 H338 0.929 . S
C291 C292 1.358 . S
C291 C293 1.356 . S
C291 H339 0.930 . S
C292 N289 1.279 . S
C292 C291 1.358 . S
C292 H295 0.930 . S
C293 C290 1.348 . S
C293 C291 1.356 . S
H294 C288 0.930 . S
H295 C292 0.930 . S
C296 C298 1.348 . S
C296 C299 1.356 . S
C296 O326 1.325 . S
N297 C300 1.314 . S
N297 C301 1.279 . S
C298 C296 1.348 . S
C298 C300 1.353 . S
C298 H340 0.929 . S
C299 C296 1.356 . S
C299 C301 1.358 . S
C299 H341 0.930 . S
C300 N297 1.314 . S
C300 C298 1.353 . S
C300 H342 0.930 . S
C301 N297 1.279 . S
C301 C299 1.358 . S
C301 H343 0.930 . S
C302 C303 1.348 . S
C302 C304 1.356 . S
C302 O327 1.325 . S
C303 C302 1.348 . S
C303 C305 1.353 . S
C303 H344 0.929 . S
C304 C302 1.356 . S
C304 C306 1.358 . S
C304 H345 0.930 . S
C305 C303 1.353 . S
C305 N307 1.314 . S
C305 H346 0.930 . S
C306 C304 1.358 . S
C306 N307 1.279 . S
C306 H347 0.930 . S
N307 C305 1.314 . S
N307 C306 1.279 . S
C308 C310 1.353 . S
C308 N311 1.314 . S
C308 H314 0.930 . S
C309 N311 1.279 . S
C309 C312 1.358 . S
C309 H315 0.930 . S
C310 C308 1.353 . S
C310 C313 1.348 . S
C310 H348 0.929 . S
N311 Li266 1.990 . S
N311 C308 1.314 . S
N311 C309 1.279 . S
C312 C309 1.358 . S
C312 C313 1.356 . S
C312 H349 0.930 . S
C313 C310 1.348 . S
C313 C312 1.356 . S
H314 C308 0.930 . S
H315 C309 0.930 . S
C316 N317 1.314 . S
C316 C318 1.353 . S
C316 H322 0.930 . S
N317 Li267 1.990 . S
N317 C316 1.314 . S
N317 C320 1.279 . S
C318 C316 1.353 . S
C318 C321 1.348 . S
C318 H350 0.929 . S
C319 C320 1.358 . S
C319 C321 1.356 . S
C319 H351 0.930 . S
C320 N317 1.279 . S
C320 C319 1.358 . S
C320 H323 0.930 . S
C321 C318 1.348 . S
C321 C319 1.356 . S
H322 C316 0.930 . S
H323 C320 0.930 . S
O324 Li264 1.956 . S
O324 Li265 1.970 . S
O324 Li266 1.961 . S
O324 C268 1.325 . S
O325 Li264 1.970 . S
O325 Li265 1.956 . S
O325 Li267 1.961 . S
O325 C274 1.325 . S
O326 Li264 1.961 . S
O326 Li266 1.956 . S
O326 Li267 1.970 . S
O326 C296 1.325 . S
O327 Li265 1.961 . S
O327 Li266 1.970 . S
O327 Li267 1.956 . S
O327 C302 1.325 . S
H328 C270 0.929 . S
H329 C271 0.930 . S
H330 C272 0.930 . S
H331 C273 0.930 . S
H332 C275 0.930 . S
H333 C277 0.929 . S
H334 C278 0.930 . S
H335 C279 0.930 . S
H336 C282 0.930 . S
H337 C285 0.929 . S
H338 C290 0.929 . S
H339 C291 0.930 . S
H340 C298 0.929 . S
H341 C299 0.930 . S
H342 C300 0.930 . S
H343 C301 0.930 . S
H344 C303 0.929 . S
H345 C304 0.930 . S
H346 C305 0.930 . S
H347 C306 0.930 . S
H348 C310 0.929 . S
H349 C312 0.930 . S
H350 C318 0.929 . S
H351 C319 0.930 . S
Li352 N369 1.990 . S
Li352 O412 1.956 . S
Li352 O413 1.970 . S
Li352 O414 1.961 1_455 S
Li353 N377 1.990 . S
Li353 O412 1.970 . S
Li353 O413 1.956 . S
Li353 O415 1.961 . S
Li354 N399 1.987 . S
Li354 O412 1.961 . S
Li354 O414 1.956 1_455 S
Li354 O415 1.970 . S
Li355 N405 1.990 . S
Li355 O413 1.961 1_655 S
Li355 O414 1.970 . S
Li355 O415 1.956 1_655 S
C356 C358 1.348 . S
C356 C359 1.356 . S
C356 O412 1.325 . S
N357 C360 1.314 . S
N357 C361 1.279 . S
C358 C356 1.348 . S
C358 C360 1.353 . S
C358 H416 0.929 . S
C359 C356 1.356 . S
C359 C361 1.358 . S
C359 H417 0.930 . S
C360 N357 1.314 . S
C360 C358 1.353 . S
C360 H418 0.930 . S
C361 N357 1.279 . S
C361 C359 1.358 . S
C361 H419 0.930 . S
C362 C365 1.348 . S
C362 C366 1.356 . S
C362 O413 1.325 . S
C363 N364 1.279 . S
C363 C366 1.358 . S
C363 H420 0.930 . S
N364 C363 1.279 . S
N364 C367 1.314 . S
C365 C362 1.348 . S
C365 C367 1.353 . S
C365 H421 0.929 . S
C366 C362 1.356 . S
C366 C363 1.358 . S
C366 H422 0.930 . S
C367 N364 1.314 . S
C367 C365 1.353 . S
C367 H423 0.930 . S
C368 N369 1.314 1_655 S
C368 C373 1.353 . S
C368 H374 0.930 . S
N369 Li352 1.990 . S
N369 C368 1.314 1_455 S
N369 C371 1.279 . S
C370 C371 1.358 . S
C370 C372 1.356 . S
C370 H424 0.930 . S
C371 N369 1.279 . S
C371 C370 1.358 . S
C371 H375 0.930 . S
C372 C370 1.356 . S
C372 C373 1.348 1_455 S
C373 C368 1.353 . S
C373 C372 1.348 1_655 S
C373 H425 0.929 . S
H374 C368 0.930 . S
H375 C371 0.930 . S
C376 N377 1.314 . S
C376 C378 1.353 . S
C376 H382 0.930 . S
N377 Li353 1.990 . S
N377 C376 1.314 . S
N377 C380 1.279 . S
C378 C376 1.353 . S
C378 C381 1.348 . S
C378 H426 0.929 . S
C379 C380 1.358 . S
C379 C381 1.356 . S
C379 H427 0.930 . S
C380 N377 1.279 . S
C380 C379 1.358 . S
C380 H383 0.930 . S
C381 C378 1.348 . S
C381 C379 1.356 . S
H382 C376 0.930 . S
H383 C380 0.930 . S
C384 C386 1.348 . S
C384 C387 1.356 . S
C384 O414 1.325 . S
N385 C388 1.314 . S
N385 C389 1.279 . S
C386 C384 1.348 . S
C386 C388 1.353 . S
C386 H428 0.929 . S
C387 C384 1.356 . S
C387 C389 1.358 . S
C387 H429 0.930 . S
C388 N385 1.314 . S
C388 C386 1.353 . S
C388 H430 0.930 . S
C389 N385 1.279 . S
C389 C387 1.358 . S
C389 H431 0.930 . S
C390 C391 1.348 1_455 S
C390 C392 1.356 . S
C390 O415 1.325 . S
C391 C390 1.348 1_655 S
C391 C393 1.353 . S
C391 H432 0.929 . S
C392 C390 1.356 . S
C392 C394 1.358 . S
C392 H433 0.930 . S
C393 C391 1.353 . S
C393 N395 1.314 1_655 S
C393 H434 0.930 . S
C394 C392 1.358 . S
C394 N395 1.279 . S
C394 H435 0.930 . S
N395 C393 1.314 1_455 S
N395 C394 1.279 . S
C396 C398 1.353 . S
C396 N399 1.359 . S
C396 H402 0.930 . S
C397 N399 1.242 1_655 S
C397 C400 1.358 . S
C397 H403 0.930 . S
C398 C396 1.353 . S
C398 C401 1.348 1_455 S
C398 H436 0.929 . S
N399 Li354 1.987 . S
N399 C396 1.359 . S
N399 C397 1.242 1_455 S
C400 C397 1.358 . S
C400 C401 1.356 . S
C400 H437 0.930 . S
C401 C398 1.348 1_655 S
C401 C400 1.356 . S
H402 C396 0.930 . S
H403 C397 0.930 . S
C404 N405 1.314 . S
C404 C406 1.353 . S
C404 H410 0.930 . S
N405 Li355 1.990 . S
N405 C404 1.314 . S
N405 C408 1.279 . S
C406 C404 1.353 . S
C406 C409 1.348 . S
C406 H438 0.929 . S
C407 C408 1.358 . S
C407 C409 1.356 . S
C407 H439 0.930 . S
C408 N405 1.279 . S
C408 C407 1.358 . S
C408 H411 0.930 . S
C409 C406 1.348 . S
C409 C407 1.356 . S
H410 C404 0.930 . S
H411 C408 0.930 . S
O412 Li352 1.956 . S
O412 Li353 1.970 . S
O412 Li354 1.961 . S
O412 C356 1.325 . S
O413 Li352 1.970 . S
O413 Li353 1.956 . S
O413 Li355 1.961 1_455 S
O413 C362 1.325 . S
O414 Li352 1.961 1_655 S
O414 Li354 1.956 1_655 S
O414 Li355 1.970 . S
O414 C384 1.325 . S
O415 Li353 1.961 . S
O415 Li354 1.970 . S
O415 Li355 1.956 1_455 S
O415 C390 1.325 . S
H416 C358 0.929 . S
H417 C359 0.930 . S
H418 C360 0.930 . S
H419 C361 0.930 . S
H420 C363 0.930 . S
H421 C365 0.929 . S
H422 C366 0.930 . S
H423 C367 0.930 . S
H424 C370 0.930 . S
H425 C373 0.929 . S
H426 C378 0.929 . S
H427 C379 0.930 . S
H428 C386 0.929 . S
H429 C387 0.930 . S
H430 C388 0.930 . S
H431 C389 0.930 . S
H432 C391 0.929 . S
H433 C392 0.930 . S
H434 C393 0.930 . S
H435 C394 0.930 . S
H436 C398 0.929 . S
H437 C400 0.930 . S
H438 C406 0.929 . S
H439 C407 0.930 . S
Li440 N457 1.990 . S
Li440 O500 1.956 . S
Li440 O501 1.970 . S
Li440 O502 1.961 . S
Li441 N465 1.990 . S
Li441 O500 1.970 . S
Li441 O501 1.956 . S
Li441 O503 1.961 . S
Li442 N487 1.990 . S
Li442 O500 1.961 . S
Li442 O502 1.956 . S
Li442 O503 1.970 . S
Li443 N493 1.990 . S
Li443 O501 1.961 . S
Li443 O502 1.970 . S
Li443 O503 1.956 . S
C444 C446 1.348 . S
C444 C447 1.356 . S
C444 O500 1.325 . S
N445 C448 1.314 . S
N445 C449 1.279 . S
C446 C444 1.348 . S
C446 C448 1.353 . S
C446 H504 0.929 . S
C447 C444 1.356 . S
C447 C449 1.358 . S
C447 H505 0.930 . S
C448 N445 1.314 . S
C448 C446 1.353 . S
C448 H506 0.930 . S
C449 N445 1.279 . S
C449 C447 1.358 . S
C449 H507 0.930 . S
C450 C453 1.348 . S
C450 C454 1.356 . S
C450 O501 1.325 . S
C451 N452 1.279 . S
C451 C454 1.358 . S
C451 H508 0.930 . S
N452 C451 1.279 . S
N452 C455 1.314 . S
C453 C450 1.348 . S
C453 C455 1.353 . S
C453 H509 0.929 . S
C454 C450 1.356 . S
C454 C451 1.358 . S
C454 H510 0.930 . S
C455 N452 1.314 . S
C455 C453 1.353 . S
C455 H511 0.930 . S
C456 N457 1.314 . S
C456 C461 1.353 . S
C456 H462 0.930 . S
N457 Li440 1.990 . S
N457 C456 1.314 . S
N457 C459 1.279 . S
C458 C459 1.358 . S
C458 C460 1.356 . S
C458 H512 0.930 . S
C459 N457 1.279 . S
C459 C458 1.358 . S
C459 H463 0.930 . S
C460 C458 1.356 . S
C460 C461 1.348 . S
C461 C456 1.353 . S
C461 C460 1.348 . S
C461 H513 0.929 . S
H462 C456 0.930 . S
H463 C459 0.930 . S
C464 N465 1.314 . S
C464 C466 1.353 . S
C464 H470 0.930 . S
N465 Li441 1.990 . S
N465 C464 1.314 . S
N465 C468 1.279 . S
C466 C464 1.353 . S
C466 C469 1.348 . S
C466 H514 0.929 . S
C467 C468 1.358 . S
C467 C469 1.356 . S
C467 H515 0.930 . S
C468 N465 1.279 . S
C468 C467 1.358 . S
C468 H471 0.930 . S
C469 C466 1.348 . S
C469 C467 1.356 . S
H470 C464 0.930 . S
H471 C468 0.930 . S
C472 C474 1.348 . S
C472 C475 1.356 . S
C472 O502 1.325 . S
N473 C476 1.314 . S
N473 C477 1.279 . S
C474 C472 1.348 . S
C474 C476 1.353 . S
C474 H516 0.929 . S
C475 C472 1.356 . S
C475 C477 1.358 . S
C475 H517 0.930 . S
C476 N473 1.314 . S
C476 C474 1.353 . S
C476 H518 0.930 . S
C477 N473 1.279 . S
C477 C475 1.358 . S
C477 H519 0.930 . S
C478 C479 1.348 . S
C478 C480 1.356 . S
C478 O503 1.325 . S
C479 C478 1.348 . S
C479 C481 1.353 . S
C479 H520 0.929 . S
C480 C478 1.356 . S
C480 C482 1.358 . S
C480 H521 0.930 . S
C481 C479 1.353 . S
C481 N483 1.314 . S
C481 H522 0.930 . S
C482 C480 1.358 . S
C482 N483 1.279 . S
C482 H523 0.930 . S
N483 C481 1.314 . S
N483 C482 1.279 . S
C484 C486 1.353 . S
C484 N487 1.314 . S
C484 H490 0.930 . S
C485 N487 1.279 . S
C485 C488 1.358 . S
C485 H491 0.930 . S
C486 C484 1.353 . S
C486 C489 1.348 . S
C486 H524 0.929 . S
N487 Li442 1.990 . S
N487 C484 1.314 . S
N487 C485 1.279 . S
C488 C485 1.358 . S
C488 C489 1.356 . S
C488 H525 0.930 . S
C489 C486 1.348 . S
C489 C488 1.356 . S
H490 C484 0.930 . S
H491 C485 0.930 . S
C492 N493 1.314 . S
C492 C494 1.353 . S
C492 H498 0.930 . S
N493 Li443 1.990 . S
N493 C492 1.314 . S
N493 C496 1.279 . S
C494 C492 1.353 . S
C494 C497 1.348 . S
C494 H526 0.929 . S
C495 C496 1.358 . S
C495 C497 1.356 . S
C495 H527 0.930 . S
C496 N493 1.279 . S
C496 C495 1.358 . S
C496 H499 0.930 . S
C497 C494 1.348 . S
C497 C495 1.356 . S
H498 C492 0.930 . S
H499 C496 0.930 . S
O500 Li440 1.956 . S
O500 Li441 1.970 . S
O500 Li442 1.961 . S
O500 C444 1.325 . S
O501 Li440 1.970 . S
O501 Li441 1.956 . S
O501 Li443 1.961 . S
O501 C450 1.325 . S
O502 Li440 1.961 . S
O502 Li442 1.956 . S
O502 Li443 1.970 . S
O502 C472 1.325 . S
O503 Li441 1.961 . S
O503 Li442 1.970 . S
O503 Li443 1.956 . S
O503 C478 1.325 . S
H504 C446 0.929 . S
H505 C447 0.930 . S
H506 C448 0.930 . S
H507 C449 0.930 . S
H508 C451 0.930 . S
H509 C453 0.929 . S
H510 C454 0.930 . S
H511 C455 0.930 . S
H512 C458 0.930 . S
H513 C461 0.929 . S
H514 C466 0.929 . S
H515 C467 0.930 . S
H516 C474 0.929 . S
H517 C475 0.930 . S
H518 C476 0.930 . S
H519 C477 0.930 . S
H520 C479 0.929 . S
H521 C480 0.930 . S
H522 C481 0.930 . S
H523 C482 0.930 . S
H524 C486 0.929 . S
H525 C488 0.930 . S
H526 C494 0.929 . S
H527 C495 0.930 . S
Li528 N545 1.990 . S
Li528 O588 1.956 . S
Li528 O589 1.970 . S
Li528 O590 1.961 . S
Li529 N553 1.990 . S
Li529 O588 1.970 . S
Li529 O589 1.956 . S
Li529 O591 1.961 . S
Li530 N575 1.990 . S
Li530 O588 1.961 . S
Li530 O590 1.956 . S
Li530 O591 1.970 . S
Li531 N581 1.990 . S
Li531 O589 1.961 . S
Li531 O590 1.970 . S
Li531 O591 1.956 . S
C532 C534 1.348 . S
C532 C535 1.356 . S
C532 O588 1.325 . S
N533 C536 1.314 . S
N533 C537 1.279 . S
C534 C532 1.348 . S
C534 C536 1.353 . S
C534 H592 0.929 . S
C535 C532 1.356 . S
C535 C537 1.358 . S
C535 H593 0.930 . S
C536 N533 1.314 . S
C536 C534 1.353 . S
C536 H594 0.930 . S
C537 N533 1.279 . S
C537 C535 1.358 . S
C537 H595 0.930 . S
C538 C541 1.348 . S
C538 C542 1.356 . S
C538 O589 1.325 . S
C539 N540 1.279 . S
C539 C542 1.358 . S
C539 H596 0.930 . S
N540 C539 1.279 . S
N540 C543 1.314 . S
C541 C538 1.348 . S
C541 C543 1.353 . S
C541 H597 0.929 . S
C542 C538 1.356 . S
C542 C539 1.358 . S
C542 H598 0.930 . S
C543 N540 1.314 . S
C543 C541 1.353 . S
C543 H599 0.930 . S
C544 N545 1.314 . S
C544 C549 1.353 . S
C544 H550 0.930 . S
N545 Li528 1.990 . S
N545 C544 1.314 . S
N545 C547 1.279 . S
C546 C547 1.358 . S
C546 C548 1.356 . S
C546 H600 0.930 . S
C547 N545 1.279 . S
C547 C546 1.358 . S
C547 H551 0.930 . S
C548 C546 1.356 . S
C548 C549 1.348 . S
C549 C544 1.353 . S
C549 C548 1.348 . S
C549 H601 0.929 . S
H550 C544 0.930 . S
H551 C547 0.930 . S
C552 N553 1.314 . S
C552 C554 1.353 . S
C552 H558 0.930 . S
N553 Li529 1.990 . S
N553 C552 1.314 . S
N553 C556 1.279 . S
C554 C552 1.353 . S
C554 C557 1.348 . S
C554 H602 0.929 . S
C555 C556 1.358 . S
C555 C557 1.356 . S
C555 H603 0.930 . S
C556 N553 1.279 . S
C556 C555 1.358 . S
C556 H559 0.930 . S
C557 C554 1.348 . S
C557 C555 1.356 . S
H558 C552 0.930 . S
H559 C556 0.930 . S
C560 C562 1.348 . S
C560 C563 1.356 . S
C560 O590 1.325 . S
N561 C564 1.314 . S
N561 C565 1.279 . S
C562 C560 1.348 . S
C562 C564 1.353 . S
C562 H604 0.929 . S
C563 C560 1.356 . S
C563 C565 1.358 . S
C563 H605 0.930 . S
C564 N561 1.314 . S
C564 C562 1.353 . S
C564 H606 0.930 . S
C565 N561 1.279 . S
C565 C563 1.358 . S
C565 H607 0.930 . S
C566 C567 1.348 . S
C566 C568 1.356 . S
C566 O591 1.325 . S
C567 C566 1.348 . S
C567 C569 1.353 . S
C567 H608 0.929 . S
C568 C566 1.356 . S
C568 C570 1.358 . S
C568 H609 0.930 . S
C569 C567 1.353 . S
C569 N571 1.314 . S
C569 H610 0.930 . S
C570 C568 1.358 . S
C570 N571 1.279 . S
C570 H611 0.930 . S
N571 C569 1.314 . S
N571 C570 1.279 . S
C572 C574 1.353 . S
C572 N575 1.314 . S
C572 H578 0.930 . S
C573 N575 1.279 . S
C573 C576 1.358 . S
C573 H579 0.930 . S
C574 C572 1.353 . S
C574 C577 1.348 . S
C574 H612 0.929 . S
N575 Li530 1.990 . S
N575 C572 1.314 . S
N575 C573 1.279 . S
C576 C573 1.358 . S
C576 C577 1.356 . S
C576 H613 0.930 . S
C577 C574 1.348 . S
C577 C576 1.356 . S
H578 C572 0.930 . S
H579 C573 0.930 . S
C580 N581 1.314 . S
C580 C582 1.353 . S
C580 H586 0.930 . S
N581 Li531 1.990 . S
N581 C580 1.314 . S
N581 C584 1.279 . S
C582 C580 1.353 . S
C582 C585 1.348 . S
C582 H614 0.929 . S
C583 C584 1.358 . S
C583 C585 1.356 . S
C583 H615 0.930 . S
C584 N581 1.279 . S
C584 C583 1.358 . S
C584 H587 0.930 . S
C585 C582 1.348 . S
C585 C583 1.356 . S
H586 C580 0.930 . S
H587 C584 0.930 . S
O588 Li528 1.956 . S
O588 Li529 1.970 . S
O588 Li530 1.961 . S
O588 C532 1.325 . S
O589 Li528 1.970 . S
O589 Li529 1.956 . S
O589 Li531 1.961 . S
O589 C538 1.325 . S
O590 Li528 1.961 . S
O590 Li530 1.956 . S
O590 Li531 1.970 . S
O590 C560 1.325 . S
O591 Li529 1.961 . S
O591 Li530 1.970 . S
O591 Li531 1.956 . S
O591 C566 1.325 . S
H592 C534 0.929 . S
H593 C535 0.930 . S
H594 C536 0.930 . S
H595 C537 0.930 . S
H596 C539 0.930 . S
H597 C541 0.929 . S
H598 C542 0.930 . S
H599 C543 0.930 . S
H600 C546 0.930 . S
H601 C549 0.929 . S
H602 C554 0.929 . S
H603 C555 0.930 . S
H604 C562 0.929 . S
H605 C563 0.930 . S
H606 C564 0.930 . S
H607 C565 0.930 . S
H608 C567 0.929 . S
H609 C568 0.930 . S
H610 C569 0.930 . S
H611 C570 0.930 . S
H612 C574 0.929 . S
H613 C576 0.930 . S
H614 C582 0.929 . S
H615 C583 0.930 . S
Li616 N633 1.990 . S
Li616 O676 1.956 1_455 S
Li616 O677 1.970 . S
Li616 O678 1.961 . S
Li617 N641 1.990 . S
Li617 O676 1.970 . S
Li617 O677 1.956 1_655 S
Li617 O679 1.961 1_655 S
Li618 N663 1.990 . S
Li618 O676 1.961 1_455 S
Li618 O678 1.956 . S
Li618 O679 1.970 . S
Li619 N669 1.990 . S
Li619 O677 1.961 . S
Li619 O678 1.970 . S
Li619 O679 1.956 . S
C620 C622 1.348 . S
C620 C623 1.356 . S
C620 O676 1.325 . S
N621 C624 1.314 . S
N621 C625 1.279 . S
C622 C620 1.348 . S
C622 C624 1.353 . S
C622 H680 0.929 . S
C623 C620 1.356 . S
C623 C625 1.358 . S
C623 H681 0.930 . S
C624 N621 1.314 . S
C624 C622 1.353 . S
C624 H682 0.930 . S
C625 N621 1.279 . S
C625 C623 1.358 . S
C625 H683 0.930 . S
C626 C629 1.348 . S
C626 C630 1.356 . S
C626 O677 1.325 . S
C627 N628 1.279 . S
C627 C630 1.358 . S
C627 H684 0.930 . S
N628 C627 1.279 . S
N628 C631 1.314 . S
C629 C626 1.348 . S
C629 C631 1.353 . S
C629 H685 0.929 . S
C630 C626 1.356 . S
C630 C627 1.358 . S
C630 H686 0.930 . S
C631 N628 1.314 . S
C631 C629 1.353 . S
C631 H687 0.930 . S
C632 N633 1.314 . S
C632 C637 1.353 . S
C632 H638 0.930 . S
N633 Li616 1.990 . S
N633 C632 1.314 . S
N633 C635 1.278 . S
C634 C635 1.359 . S
C634 C636 1.356 . S
C634 H688 0.930 1_455 S
C635 N633 1.278 . S
C635 C634 1.359 . S
C635 H639 0.931 1_455 S
C636 C634 1.356 . S
C636 C637 1.348 . S
C637 C632 1.353 . S
C637 C636 1.348 . S
C637 H689 0.929 . S
H638 C632 0.930 . S
H639 C635 0.931 1_655 S
C640 N641 1.314 . S
C640 C642 1.353 . S
C640 H646 0.930 . S
N641 Li617 1.990 . S
N641 C640 1.314 . S
N641 C644 1.279 . S
C642 C640 1.353 . S
C642 C645 1.348 . S
C642 H690 0.929 . S
C643 C644 1.358 . S
C643 C645 1.356 . S
C643 H691 0.930 . S
C644 N641 1.279 . S
C644 C643 1.358 . S
C644 H647 0.930 . S
C645 C642 1.348 . S
C645 C643 1.356 . S
H646 C640 0.930 . S
H647 C644 0.930 . S
C648 C650 1.348 . S
C648 C651 1.356 . S
C648 O678 1.325 . S
N649 C652 1.314 . S
N649 C653 1.279 . S
C650 C648 1.348 . S
C650 C652 1.353 . S
C650 H692 0.929 . S
C651 C648 1.356 . S
C651 C653 1.358 . S
C651 H693 0.930 . S
C652 N649 1.314 . S
C652 C650 1.353 . S
C652 H694 0.930 . S
C653 N649 1.279 . S
C653 C651 1.358 . S
C653 H695 0.930 . S
C654 C655 1.348 . S
C654 C656 1.350 1_455 S
C654 O679 1.325 . S
C655 C654 1.348 . S
C655 C657 1.353 . S
C655 H696 0.929 . S
C656 C654 1.350 1_655 S
C656 C658 1.354 . S
C656 H697 0.943 . S
C657 C655 1.353 . S
C657 N659 1.326 . S
C657 H698 0.930 . S
C658 C656 1.354 . S
C658 N659 1.263 1_655 S
C658 H699 0.930 . S
N659 C657 1.326 . S
N659 C658 1.263 1_455 S
C660 C662 1.353 . S
C660 N663 1.314 1_655 S
C660 H666 0.930 . S
C661 N663 1.279 . S
C661 C664 1.358 . S
C661 H667 0.930 . S
C662 C660 1.353 . S
C662 C665 1.348 1_655 S
C662 H700 0.929 . S
N663 Li618 1.990 . S
N663 C660 1.314 1_455 S
N663 C661 1.279 . S
C664 C661 1.358 . S
C664 C665 1.356 . S
C664 H701 0.930 . S
C665 C662 1.348 1_455 S
C665 C664 1.356 . S
H666 C660 0.930 . S
H667 C661 0.930 . S
C668 N669 1.314 . S
C668 C670 1.353 . S
C668 H674 0.930 . S
N669 Li619 1.990 . S
N669 C668 1.314 . S
N669 C672 1.279 . S
C670 C668 1.353 . S
C670 C673 1.348 . S
C670 H702 0.929 . S
C671 C672 1.358 . S
C671 C673 1.356 . S
C671 H703 0.930 . S
C672 N669 1.279 . S
C672 C671 1.358 . S
C672 H675 0.930 . S
C673 C670 1.348 . S
C673 C671 1.356 . S
H674 C668 0.930 . S
H675 C672 0.930 . S
O676 Li616 1.956 1_655 S
O676 Li617 1.970 . S
O676 Li618 1.961 1_655 S
O676 C620 1.325 . S
O677 Li616 1.970 . S
O677 Li617 1.956 1_455 S
O677 Li619 1.961 . S
O677 C626 1.325 . S
O678 Li616 1.961 . S
O678 Li618 1.956 . S
O678 Li619 1.970 . S
O678 C648 1.325 . S
O679 Li617 1.961 1_455 S
O679 Li618 1.970 . S
O679 Li619 1.956 . S
O679 C654 1.325 . S
H680 C622 0.929 . S
H681 C623 0.930 . S
H682 C624 0.930 . S
H683 C625 0.930 . S
H684 C627 0.930 . S
H685 C629 0.929 . S
H686 C630 0.930 . S
H687 C631 0.930 . S
H688 C634 0.930 1_655 S
H689 C637 0.929 . S
H690 C642 0.929 . S
H691 C643 0.930 . S
H692 C650 0.929 . S
H693 C651 0.930 . S
H694 C652 0.930 . S
H695 C653 0.930 . S
H696 C655 0.929 . S
H697 C656 0.943 . S
H698 C657 0.930 . S
H699 C658 0.930 . S
H700 C662 0.929 . S
H701 C664 0.930 . S
H702 C670 0.929 . S
H703 C671 0.930 . S
Li704 N721 1.990 . S
Li704 O764 1.956 . S
Li704 O765 1.970 . S
Li704 O766 1.961 . S
Li705 N729 1.990 1_545 S
Li705 O764 1.970 . S
Li705 O765 1.956 . S
Li705 O767 1.961 . S
Li706 N751 1.990 . S
Li706 O764 1.961 . S
Li706 O766 1.956 . S
Li706 O767 1.970 . S
Li707 N757 1.990 . S
Li707 O765 1.961 . S
Li707 O766 1.970 . S
Li707 O767 1.956 . S
C708 C710 1.348 1_545 S
C708 C711 1.356 . S
C708 O764 1.325 . S
N709 C712 1.314 . S
N709 C713 1.279 . S
C710 C708 1.348 1_565 S
C710 C712 1.353 . S
C710 H768 0.929 . S
C711 C708 1.356 . S
C711 C713 1.358 1_545 S
C711 H769 0.930 . S
C712 N709 1.314 . S
C712 C710 1.353 . S
C712 H770 0.930 . S
C713 N709 1.279 . S
C713 C711 1.358 1_565 S
C713 H771 0.930 . S
C714 C717 1.348 . S
C714 C718 1.356 . S
C714 O765 1.325 . S
C715 N716 1.279 . S
C715 C718 1.358 . S
C715 H772 0.930 . S
N716 C715 1.279 . S
N716 C719 1.314 . S
C717 C714 1.348 . S
C717 C719 1.353 . S
C717 H773 0.929 . S
C718 C714 1.356 . S
C718 C715 1.358 . S
C718 H774 0.930 . S
C719 N716 1.314 . S
C719 C717 1.353 . S
C719 H775 0.930 . S
C720 N721 1.314 . S
C720 C725 1.353 . S
C720 H726 0.930 . S
N721 Li704 1.990 . S
N721 C720 1.314 . S
N721 C723 1.279 . S
C722 C723 1.358 . S
C722 C724 1.356 . S
C722 H776 0.930 . S
C723 N721 1.279 . S
C723 C722 1.358 . S
C723 H727 0.930 . S
C724 C722 1.356 . S
C724 C725 1.348 . S
C725 C720 1.353 . S
C725 C724 1.348 . S
C725 H777 0.929 . S
H726 C720 0.930 . S
H727 C723 0.930 . S
C728 N729 1.314 . S
C728 C730 1.353 . S
C728 H734 0.930 . S
N729 Li705 1.990 1_565 S
N729 C728 1.314 . S
N729 C732 1.279 . S
C730 C728 1.353 . S
C730 C733 1.348 . S
C730 H778 0.929 . S
C731 C732 1.358 . S
C731 C733 1.356 . S
C731 H779 0.930 . S
C732 N729 1.279 . S
C732 C731 1.358 . S
C732 H735 0.930 . S
C733 C730 1.348 . S
C733 C731 1.356 . S
H734 C728 0.930 . S
H735 C732 0.930 . S
C736 C738 1.348 . S
C736 C739 1.356 . S
C736 O766 1.325 . S
N737 C740 1.314 . S
N737 C741 1.279 . S
C738 C736 1.348 . S
C738 C740 1.353 . S
C738 H780 0.929 . S
C739 C736 1.356 . S
C739 C741 1.358 . S
C739 H781 0.930 . S
C740 N737 1.314 . S
C740 C738 1.353 . S
C740 H782 0.930 . S
C741 N737 1.279 . S
C741 C739 1.358 . S
C741 H783 0.930 . S
C742 C743 1.348 . S
C742 C744 1.356 . S
C742 O767 1.325 . S
C743 C742 1.348 . S
C743 C745 1.353 . S
C743 H784 0.929 . S
C744 C742 1.356 . S
C744 C746 1.358 . S
C744 H785 0.930 . S
C745 C743 1.353 . S
C745 N747 1.314 . S
C745 H786 0.930 . S
C746 C744 1.358 . S
C746 N747 1.279 . S
C746 H787 0.930 . S
N747 C745 1.314 . S
N747 C746 1.279 . S
C748 C750 1.353 . S
C748 N751 1.314 . S
C748 H754 0.930 . S
C749 N751 1.279 . S
C749 C752 1.358 . S
C749 H755 0.930 . S
C750 C748 1.353 . S
C750 C753 1.348 . S
C750 H788 0.929 . S
N751 Li706 1.990 . S
N751 C748 1.314 . S
N751 C749 1.279 . S
C752 C749 1.358 . S
C752 C753 1.356 . S
C752 H789 0.930 . S
C753 C750 1.348 . S
C753 C752 1.356 . S
H754 C748 0.930 . S
H755 C749 0.930 . S
C756 N757 1.314 . S
C756 C758 1.353 . S
C756 H762 0.930 . S
N757 Li707 1.990 . S
N757 C756 1.314 . S
N757 C760 1.279 . S
C758 C756 1.353 . S
C758 C761 1.348 . S
C758 H790 0.929 . S
C759 C760 1.358 . S
C759 C761 1.356 . S
C759 H791 0.930 . S
C760 N757 1.279 . S
C760 C759 1.358 . S
C760 H763 0.930 . S
C761 C758 1.348 . S
C761 C759 1.356 . S
H762 C756 0.930 . S
H763 C760 0.930 . S
O764 Li704 1.956 . S
O764 Li705 1.970 . S
O764 Li706 1.961 . S
O764 C708 1.325 . S
O765 Li704 1.970 . S
O765 Li705 1.956 . S
O765 Li707 1.961 . S
O765 C714 1.325 . S
O766 Li704 1.961 . S
O766 Li706 1.956 . S
O766 Li707 1.970 . S
O766 C736 1.325 . S
O767 Li705 1.961 . S
O767 Li706 1.970 . S
O767 Li707 1.956 . S
O767 C742 1.325 . S
H768 C710 0.929 . S
H769 C711 0.930 . S
H770 C712 0.930 . S
H771 C713 0.930 . S
H772 C715 0.930 . S
H773 C717 0.929 . S
H774 C718 0.930 . S
H775 C719 0.930 . S
H776 C722 0.930 . S
H777 C725 0.929 . S
H778 C730 0.929 . S
H779 C731 0.930 . S
H780 C738 0.929 . S
H781 C739 0.930 . S
H782 C740 0.930 . S
H783 C741 0.930 . S
H784 C743 0.929 . S
H785 C744 0.930 . S
H786 C745 0.930 . S
H787 C746 0.930 . S
H788 C750 0.929 . S
H789 C752 0.930 . S
H790 C758 0.929 . S
H791 C759 0.930 . S
Li792 N809 1.990 . S
Li792 O852 1.956 . S
Li792 O853 1.970 . S
Li792 O854 1.961 . S
Li793 N817 1.990 . S
Li793 O852 1.970 . S
Li793 O853 1.956 . S
Li793 O855 1.961 . S
Li794 N839 1.990 . S
Li794 O852 1.961 . S
Li794 O854 1.956 . S
Li794 O855 1.970 . S
Li795 N845 1.990 . S
Li795 O853 1.961 . S
Li795 O854 1.970 . S
Li795 O855 1.956 . S
C796 C798 1.348 . S
C796 C799 1.356 . S
C796 O852 1.325 . S
N797 C800 1.314 . S
N797 C801 1.279 . S
C798 C796 1.348 . S
C798 C800 1.353 . S
C798 H856 0.929 . S
C799 C796 1.356 . S
C799 C801 1.358 . S
C799 H857 0.930 . S
C800 N797 1.314 . S
C800 C798 1.353 . S
C800 H858 0.930 . S
C801 N797 1.279 . S
C801 C799 1.358 . S
C801 H859 0.930 . S
C802 C805 1.348 . S
C802 C806 1.356 . S
C802 O853 1.325 . S
C803 N804 1.279 . S
C803 C806 1.358 . S
C803 H860 0.930 . S
N804 C803 1.279 . S
N804 C807 1.314 . S
C805 C802 1.348 . S
C805 C807 1.353 . S
C805 H861 0.929 . S
C806 C802 1.356 . S
C806 C803 1.358 . S
C806 H862 0.930 . S
C807 N804 1.314 . S
C807 C805 1.353 . S
C807 H863 0.930 . S
C808 N809 1.314 . S
C808 C813 1.353 . S
C808 H814 0.930 . S
N809 Li792 1.990 . S
N809 C808 1.314 . S
N809 C811 1.279 . S
C810 C811 1.358 . S
C810 C812 1.356 . S
C810 H864 0.930 . S
C811 N809 1.279 . S
C811 C810 1.358 . S
C811 H815 0.930 . S
C812 C810 1.356 . S
C812 C813 1.348 . S
C813 C808 1.353 . S
C813 C812 1.348 . S
C813 H865 0.929 . S
H814 C808 0.930 . S
H815 C811 0.930 . S
C816 N817 1.314 . S
C816 C818 1.353 . S
C816 H822 0.930 . S
N817 Li793 1.990 . S
N817 C816 1.314 . S
N817 C820 1.279 . S
C818 C816 1.353 . S
C818 C821 1.348 . S
C818 H866 0.929 . S
C819 C820 1.358 . S
C819 C821 1.356 . S
C819 H867 0.930 . S
C820 N817 1.279 . S
C820 C819 1.358 . S
C820 H823 0.930 . S
C821 C818 1.348 . S
C821 C819 1.356 . S
H822 C816 0.930 . S
H823 C820 0.930 . S
C824 C826 1.348 . S
C824 C827 1.356 . S
C824 O854 1.325 . S
N825 C828 1.314 . S
N825 C829 1.279 . S
C826 C824 1.348 . S
C826 C828 1.353 . S
C826 H868 0.929 . S
C827 C824 1.356 . S
C827 C829 1.358 . S
C827 H869 0.930 . S
C828 N825 1.314 . S
C828 C826 1.353 . S
C828 H870 0.930 . S
C829 N825 1.279 . S
C829 C827 1.358 . S
C829 H871 0.930 . S
C830 C831 1.348 . S
C830 C832 1.356 . S
C830 O855 1.325 . S
C831 C830 1.348 . S
C831 C833 1.353 . S
C831 H872 0.929 . S
C832 C830 1.356 . S
C832 C834 1.358 . S
C832 H873 0.930 . S
C833 C831 1.353 . S
C833 N835 1.314 . S
C833 H874 0.930 . S
C834 C832 1.358 . S
C834 N835 1.279 . S
C834 H875 0.930 . S
N835 C833 1.314 . S
N835 C834 1.279 . S
C836 C838 1.353 . S
C836 N839 1.314 . S
C836 H842 0.930 . S
C837 N839 1.279 . S
C837 C840 1.358 . S
C837 H843 0.930 . S
C838 C836 1.353 . S
C838 C841 1.348 . S
C838 H876 0.929 . S
N839 Li794 1.990 . S
N839 C836 1.314 . S
N839 C837 1.279 . S
C840 C837 1.358 . S
C840 C841 1.356 . S
C840 H877 0.930 . S
C841 C838 1.348 . S
C841 C840 1.356 . S
H842 C836 0.930 . S
H843 C837 0.930 . S
C844 N845 1.314 . S
C844 C846 1.353 . S
C844 H850 0.930 . S
N845 Li795 1.990 . S
N845 C844 1.314 . S
N845 C848 1.279 . S
C846 C844 1.353 . S
C846 C849 1.348 . S
C846 H878 0.929 . S
C847 C848 1.358 . S
C847 C849 1.356 . S
C847 H879 0.930 . S
C848 N845 1.279 . S
C848 C847 1.358 . S
C848 H851 0.930 . S
C849 C846 1.348 . S
C849 C847 1.356 . S
H850 C844 0.930 . S
H851 C848 0.930 . S
O852 Li792 1.956 . S
O852 Li793 1.970 . S
O852 Li794 1.961 . S
O852 C796 1.325 . S
O853 Li792 1.970 . S
O853 Li793 1.956 . S
O853 Li795 1.961 . S
O853 C802 1.325 . S
O854 Li792 1.961 . S
O854 Li794 1.956 . S
O854 Li795 1.970 . S
O854 C824 1.325 . S
O855 Li793 1.961 . S
O855 Li794 1.970 . S
O855 Li795 1.956 . S
O855 C830 1.325 . S
H856 C798 0.929 . S
H857 C799 0.930 . S
H858 C800 0.930 . S
H859 C801 0.930 . S
H860 C803 0.930 . S
H861 C805 0.929 . S
H862 C806 0.930 . S
H863 C807 0.930 . S
H864 C810 0.930 . S
H865 C813 0.929 . S
H866 C818 0.929 . S
H867 C819 0.930 . S
H868 C826 0.929 . S
H869 C827 0.930 . S
H870 C828 0.930 . S
H871 C829 0.930 . S
H872 C831 0.929 . S
H873 C832 0.930 . S
H874 C833 0.930 . S
H875 C834 0.930 . S
H876 C838 0.929 . S
H877 C840 0.930 . S
H878 C846 0.929 . S
H879 C847 0.930 . S
Li880 N897 1.990 . S
Li880 O940 1.956 . S
Li880 O941 1.970 . S
Li880 O942 1.961 . S
Li881 N905 1.990 . S
Li881 O940 1.971 1_565 S
Li881 O941 1.951 1_565 S
Li881 O943 1.966 . S
Li882 N927 1.990 . S
Li882 O940 1.961 1_565 S
Li882 O942 1.956 1_565 S
Li882 O943 1.970 . S
Li883 N933 1.990 . S
Li883 O941 1.961 1_565 S
Li883 O942 1.970 1_565 S
Li883 O943 1.956 . S
C884 C886 1.348 . S
C884 C887 1.356 . S
C884 O940 1.325 . S
N885 C888 1.314 . S
N885 C889 1.279 . S
C886 C884 1.348 . S
C886 C888 1.353 . S
C886 H944 0.929 . S
C887 C884 1.356 . S
C887 C889 1.358 . S
C887 H945 0.930 . S
C888 N885 1.314 . S
C888 C886 1.353 . S
C888 H946 0.930 . S
C889 N885 1.279 . S
C889 C887 1.358 . S
C889 H947 0.930 . S
C890 C893 1.348 . S
C890 C894 1.356 . S
C890 O941 1.325 . S
C891 N892 1.279 . S
C891 C894 1.358 . S
C891 H948 0.930 . S
N892 C891 1.279 . S
N892 C895 1.314 . S
C893 C890 1.348 . S
C893 C895 1.353 . S
C893 H949 0.929 . S
C894 C890 1.356 . S
C894 C891 1.358 . S
C894 H950 0.930 . S
C895 N892 1.314 . S
C895 C893 1.353 . S
C895 H951 0.930 . S
C896 N897 1.314 . S
C896 C901 1.353 . S
C896 H902 0.930 . S
N897 Li880 1.990 . S
N897 C896 1.314 . S
N897 C899 1.279 . S
C898 C899 1.358 . S
C898 C900 1.356 . S
C898 H952 0.930 . S
C899 N897 1.279 . S
C899 C898 1.358 . S
C899 H903 0.930 . S
C900 C898 1.356 . S
C900 C901 1.348 . S
C901 C896 1.353 . S
C901 C900 1.348 . S
C901 H953 0.929 . S
H902 C896 0.930 . S
H903 C899 0.930 . S
C904 N905 1.314 . S
C904 C906 1.353 . S
C904 H910 0.930 . S
N905 Li881 1.990 . S
N905 C904 1.314 . S
N905 C908 1.279 1_565 S
C906 C904 1.353 . S
C906 C909 1.348 . S
C906 H954 0.929 . S
C907 C908 1.358 . S
C907 C909 1.356 1_545 S
C907 H955 0.930 . S
C908 N905 1.279 1_545 S
C908 C907 1.358 . S
C908 H911 0.930 . S
C909 C906 1.348 . S
C909 C907 1.356 1_565 S
H910 C904 0.930 . S
H911 C908 0.930 . S
C912 C914 1.348 1_545 S
C912 C915 1.356 . S
C912 O942 1.325 . S
N913 C916 1.314 1_545 S
N913 C917 1.279 . S
C914 C912 1.348 1_565 S
C914 C916 1.353 . S
C914 H956 0.929 . S
C915 C912 1.356 . S
C915 C917 1.358 . S
C915 H957 0.930 . S
C916 N913 1.314 1_565 S
C916 C914 1.353 . S
C916 H958 0.930 . S
C917 N913 1.279 . S
C917 C915 1.358 . S
C917 H959 0.930 . S
C918 C919 1.348 . S
C918 C920 1.356 . S
C918 O943 1.325 . S
C919 C918 1.348 . S
C919 C921 1.353 . S
C919 H960 0.929 . S
C920 C918 1.356 . S
C920 C922 1.358 . S
C920 H961 0.930 . S
C921 C919 1.353 . S
C921 N923 1.314 . S
C921 H962 0.930 . S
C922 C920 1.358 . S
C922 N923 1.279 . S
C922 H963 0.930 . S
N923 C921 1.314 . S
N923 C922 1.279 . S
C924 C926 1.353 . S
C924 N927 1.314 . S
C924 H930 0.930 . S
C925 N927 1.279 . S
C925 C928 1.358 . S
C925 H931 0.930 . S
C926 C924 1.353 . S
C926 C929 1.348 . S
C926 H964 0.929 . S
N927 Li882 1.990 . S
N927 C924 1.314 . S
N927 C925 1.279 . S
C928 C925 1.358 . S
C928 C929 1.356 . S
C928 H965 0.930 . S
C929 C926 1.348 . S
C929 C928 1.356 . S
H930 C924 0.930 . S
H931 C925 0.930 . S
C932 N933 1.314 1_545 S
C932 C934 1.353 . S
C932 H938 0.930 . S
N933 Li883 1.990 . S
N933 C932 1.314 1_565 S
N933 C936 1.279 . S
C934 C932 1.353 . S
C934 C937 1.348 1_545 S
C934 H966 0.929 . S
C935 C936 1.358 . S
C935 C937 1.356 . S
C935 H967 0.930 . S
C936 N933 1.279 . S
C936 C935 1.358 . S
C936 H939 0.930 . S
C937 C934 1.348 1_565 S
C937 C935 1.356 . S
H938 C932 0.930 . S
H939 C936 0.930 . S
O940 Li880 1.956 . S
O940 Li881 1.971 1_545 S
O940 Li882 1.961 1_545 S
O940 C884 1.325 . S
O941 Li880 1.970 . S
O941 Li881 1.951 1_545 S
O941 Li883 1.961 1_545 S
O941 C890 1.325 . S
O942 Li880 1.961 . S
O942 Li882 1.956 1_545 S
O942 Li883 1.970 1_545 S
O942 C912 1.325 . S
O943 Li881 1.966 . S
O943 Li882 1.970 . S
O943 Li883 1.956 . S
O943 C918 1.325 . S
H944 C886 0.929 . S
H945 C887 0.930 . S
H946 C888 0.930 . S
H947 C889 0.930 . S
H948 C891 0.930 . S
H949 C893 0.929 . S
H950 C894 0.930 . S
H951 C895 0.930 . S
H952 C898 0.930 . S
H953 C901 0.929 . S
H954 C906 0.929 . S
H955 C907 0.930 . S
H956 C914 0.929 . S
H957 C915 0.930 . S
H958 C916 0.930 . S
H959 C917 0.930 . S
H960 C919 0.929 . S
H961 C920 0.930 . S
H962 C921 0.930 . S
H963 C922 0.930 . S
H964 C926 0.929 . S
H965 C928 0.930 . S
H966 C934 0.929 . S
H967 C935 0.930 . S
Li968 N985 1.990 . S
Li968 O1028 1.956 . S
Li968 O1029 1.970 . S
Li968 O1030 1.961 . S
Li969 N993 1.990 . S
Li969 O1028 1.970 . S
Li969 O1029 1.956 . S
Li969 O1031 1.961 . S
Li970 N1015 1.990 . S
Li970 O1028 1.961 . S
Li970 O1030 1.956 . S
Li970 O1031 1.970 . S
Li971 N1021 1.990 1_554 S
Li971 O1029 1.961 . S
Li971 O1030 1.970 . S
Li971 O1031 1.956 . S
C972 C974 1.348 . S
C972 C975 1.356 . S
C972 O1028 1.325 . S
N973 C976 1.314 . S
N973 C977 1.279 . S
C974 C972 1.348 . S
C974 C976 1.353 . S
C974 H1032 0.929 . S
C975 C972 1.356 . S
C975 C977 1.358 . S
C975 H1033 0.930 . S
C976 N973 1.314 . S
C976 C974 1.353 . S
C976 H1034 0.930 . S
C977 N973 1.279 . S
C977 C975 1.358 . S
C977 H1035 0.930 . S
C978 C981 1.348 . S
C978 C982 1.356 . S
C978 O1029 1.325 . S
C979 N980 1.279 . S
C979 C982 1.358 . S
C979 H1036 0.930 . S
N980 C979 1.279 . S
N980 C983 1.314 . S
C981 C978 1.348 . S
C981 C983 1.353 . S
C981 H1037 0.929 . S
C982 C978 1.356 . S
C982 C979 1.358 . S
C982 H1038 0.930 . S
C983 N980 1.314 . S
C983 C981 1.353 . S
C983 H1039 0.930 . S
C984 N985 1.314 . S
C984 C989 1.353 . S
C984 H990 0.944 . S
N985 Li968 1.990 . S
N985 C984 1.314 . S
N985 C987 1.279 . S
C986 C987 1.358 . S
C986 C988 1.356 . S
C986 H1040 0.930 . S
C987 N985 1.279 . S
C987 C986 1.358 . S
C987 H991 0.930 . S
C988 C986 1.356 . S
C988 C989 1.348 . S
C989 C984 1.353 . S
C989 C988 1.348 . S
C989 H1041 0.929 1_554 S
H990 C984 0.944 . S
H991 C987 0.930 . S
C992 N993 1.314 . S
C992 C994 1.353 . S
C992 H998 0.930 . S
N993 Li969 1.990 . S
N993 C992 1.314 . S
N993 C996 1.279 . S
C994 C992 1.353 . S
C994 C997 1.348 . S
C994 H1042 0.929 . S
C995 C996 1.358 . S
C995 C997 1.356 . S
C995 H1043 0.930 . S
C996 N993 1.279 . S
C996 C995 1.358 . S
C996 H999 0.930 . S
C997 C994 1.348 . S
C997 C995 1.356 . S
H998 C992 0.930 . S
H999 C996 0.930 . S
C1000 C1002 1.348 . S
C1000 C1003 1.356 . S
C1000 O1030 1.325 1_556 S
N1001 C1004 1.314 . S
N1001 C1005 1.279 . S
C1002 C1000 1.348 . S
C1002 C1004 1.353 . S
C1002 H1044 0.929 . S
C1003 C1000 1.356 . S
C1003 C1005 1.358 . S
C1003 H1045 0.930 1_556 S
C1004 N1001 1.314 . S
C1004 C1002 1.353 . S
C1004 H1046 0.930 . S
C1005 N1001 1.279 . S
C1005 C1003 1.358 . S
C1005 H1047 0.930 . S
C1006 C1007 1.348 . S
C1006 C1008 1.356 . S
C1006 O1031 1.325 . S
C1007 C1006 1.348 . S
C1007 C1009 1.353 . S
C1007 H1048 0.929 . S
C1008 C1006 1.356 . S
C1008 C1010 1.358 . S
C1008 H1049 0.930 . S
C1009 C1007 1.353 . S
C1009 N1011 1.314 . S
C1009 H1050 0.930 . S
C1010 C1008 1.358 . S
C1010 N1011 1.279 . S
C1010 H1051 0.930 . S
N1011 C1009 1.314 . S
N1011 C1010 1.279 . S
C1012 C1014 1.353 . S
C1012 N1015 1.314 . S
C1012 H1018 0.930 . S
C1013 N1015 1.279 . S
C1013 C1016 1.358 . S
C1013 H1019 0.930 . S
C1014 C1012 1.353 . S
C1014 C1017 1.348 . S
C1014 H1052 0.929 . S
N1015 Li970 1.990 . S
N1015 C1012 1.314 . S
N1015 C1013 1.279 . S
C1016 C1013 1.358 . S
C1016 C1017 1.356 . S
C1016 H1053 0.930 . S
C1017 C1014 1.348 . S
C1017 C1016 1.356 . S
H1018 C1012 0.930 . S
H1019 C1013 0.930 . S
C1020 N1021 1.314 . S
C1020 C1022 1.353 . S
C1020 H1026 0.930 . S
N1021 Li971 1.990 1_556 S
N1021 C1020 1.314 . S
N1021 C1024 1.279 . S
C1022 C1020 1.353 . S
C1022 C1025 1.348 . S
C1022 H1054 0.929 . S
C1023 C1024 1.358 . S
C1023 C1025 1.356 . S
C1023 H1055 0.930 . S
C1024 N1021 1.279 . S
C1024 C1023 1.358 . S
C1024 H1027 0.930 . S
C1025 C1022 1.348 . S
C1025 C1023 1.356 . S
H1026 C1020 0.930 . S
H1027 C1024 0.930 . S
O1028 Li968 1.956 . S
O1028 Li969 1.970 . S
O1028 Li970 1.961 . S
O1028 C972 1.325 . S
O1029 Li968 1.970 . S
O1029 Li969 1.956 . S
O1029 Li971 1.961 . S
O1029 C978 1.325 . S
O1030 Li968 1.961 . S
O1030 Li970 1.956 . S
O1030 Li971 1.970 . S
O1030 C1000 1.325 1_554 S
O1031 Li969 1.961 . S
O1031 Li970 1.970 . S
O1031 Li971 1.956 . S
O1031 C1006 1.325 . S
H1032 C974 0.929 . S
H1033 C975 0.930 . S
H1034 C976 0.930 . S
H1035 C977 0.930 . S
H1036 C979 0.930 . S
H1037 C981 0.929 . S
H1038 C982 0.930 . S
H1039 C983 0.930 . S
H1040 C986 0.930 . S
H1041 C989 0.929 1_556 S
H1042 C994 0.929 . S
H1043 C995 0.930 . S
H1044 C1002 0.929 . S
H1045 C1003 0.930 1_554 S
H1046 C1004 0.930 . S
H1047 C1005 0.930 . S
H1048 C1007 0.929 . S
H1049 C1008 0.930 . S
H1050 C1009 0.930 . S
H1051 C1010 0.930 . S
H1052 C1014 0.929 . S
H1053 C1016 0.930 . S
H1054 C1022 0.929 . S
H1055 C1023 0.930 . S
Li1056 N1073 1.990 . S
Li1056 O1116 1.956 . S
Li1056 O1117 1.970 . S
Li1056 O1118 1.961 . S
Li1057 N1081 1.990 . S
Li1057 O1116 1.970 . S
Li1057 O1117 1.956 . S
Li1057 O1119 1.961 . S
Li1058 N1103 1.990 . S
Li1058 O1116 1.961 . S
Li1058 O1118 1.956 . S
Li1058 O1119 1.970 . S
Li1059 N1109 1.990 1_554 S
Li1059 O1117 1.961 . S
Li1059 O1118 1.970 . S
Li1059 O1119 1.956 . S
C1060 C1062 1.348 . S
C1060 C1063 1.356 . S
C1060 O1116 1.325 . S
N1061 C1064 1.314 . S
N1061 C1065 1.279 . S
C1062 C1060 1.348 . S
C1062 C1064 1.353 . S
C1062 H1120 0.929 . S
C1063 C1060 1.356 . S
C1063 C1065 1.358 . S
C1063 H1121 0.930 . S
C1064 N1061 1.314 . S
C1064 C1062 1.353 . S
C1064 H1122 0.930 . S
C1065 N1061 1.279 . S
C1065 C1063 1.358 . S
C1065 H1123 0.930 . S
C1066 C1069 1.348 . S
C1066 C1070 1.356 . S
C1066 O1117 1.325 . S
C1067 N1068 1.279 . S
C1067 C1070 1.358 . S
C1067 H1124 0.930 . S
N1068 C1067 1.279 . S
N1068 C1071 1.314 . S
C1069 C1066 1.348 . S
C1069 C1071 1.353 . S
C1069 H1125 0.929 . S
C1070 C1066 1.356 . S
C1070 C1067 1.358 . S
C1070 H1126 0.930 . S
C1071 N1068 1.314 . S
C1071 C1069 1.353 . S
C1071 H1127 0.930 . S
C1072 N1073 1.314 . S
C1072 C1077 1.353 . S
C1072 H1078 0.930 1_554 S
N1073 Li1056 1.990 . S
N1073 C1072 1.314 . S
N1073 C1075 1.279 . S
C1074 C1075 1.358 . S
C1074 C1076 1.356 . S
C1074 H1128 0.930 . S
C1075 N1073 1.279 . S
C1075 C1074 1.358 . S
C1075 H1079 0.930 . S
C1076 C1074 1.356 . S
C1076 C1077 1.348 . S
C1077 C1072 1.353 . S
C1077 C1076 1.348 . S
C1077 H1129 0.929 1_554 S
H1078 C1072 0.930 1_556 S
H1079 C1075 0.930 . S
C1080 N1081 1.314 . S
C1080 C1082 1.353 . S
C1080 H1086 0.930 . S
N1081 Li1057 1.990 . S
N1081 C1080 1.314 . S
N1081 C1084 1.279 . S
C1082 C1080 1.353 . S
C1082 C1085 1.348 . S
C1082 H1130 0.929 . S
C1083 C1084 1.358 . S
C1083 C1085 1.356 . S
C1083 H1131 0.930 . S
C1084 N1081 1.279 . S
C1084 C1083 1.358 . S
C1084 H1087 0.930 . S
C1085 C1082 1.348 . S
C1085 C1083 1.356 . S
H1086 C1080 0.930 . S
H1087 C1084 0.930 . S
C1088 C1090 1.348 . S
C1088 C1091 1.356 . S
C1088 O1118 1.325 1_556 S
N1089 C1092 1.314 . S
N1089 C1093 1.279 . S
C1090 C1088 1.348 . S
C1090 C1092 1.353 . S
C1090 H1132 0.929 . S
C1091 C1088 1.356 . S
C1091 C1093 1.358 . S
C1091 H1133 0.930 1_556 S
C1092 N1089 1.314 . S
C1092 C1090 1.353 . S
C1092 H1134 0.930 . S
C1093 N1089 1.279 . S
C1093 C1091 1.358 . S
C1093 H1135 0.930 . S
C1094 C1095 1.348 . S
C1094 C1096 1.356 . S
C1094 O1119 1.325 . S
C1095 C1094 1.348 . S
C1095 C1097 1.353 . S
C1095 H1136 0.929 . S
C1096 C1094 1.356 . S
C1096 C1098 1.358 . S
C1096 H1137 0.930 . S
C1097 C1095 1.353 . S
C1097 N1099 1.314 . S
C1097 H1138 0.930 . S
C1098 C1096 1.358 . S
C1098 N1099 1.279 . S
C1098 H1139 0.930 . S
N1099 C1097 1.314 . S
N1099 C1098 1.279 . S
C1100 C1102 1.353 . S
C1100 N1103 1.314 . S
C1100 H1106 0.930 . S
C1101 N1103 1.279 . S
C1101 C1104 1.358 . S
C1101 H1107 0.906 1_554 S
C1102 C1100 1.353 . S
C1102 C1105 1.348 . S
C1102 H1140 0.929 . S
N1103 Li1058 1.990 . S
N1103 C1100 1.314 . S
N1103 C1101 1.279 . S
C1104 C1101 1.358 . S
C1104 C1105 1.356 . S
C1104 H1141 0.930 . S
C1105 C1102 1.348 . S
C1105 C1104 1.356 . S
H1106 C1100 0.930 . S
H1107 C1101 0.906 1_556 S
C1108 N1109 1.314 . S
C1108 C1110 1.353 . S
C1108 H1114 0.930 . S
N1109 Li1059 1.990 1_556 S
N1109 C1108 1.314 . S
N1109 C1112 1.279 . S
C1110 C1108 1.353 . S
C1110 C1113 1.348 . S
C1110 H1142 0.929 . S
C1111 C1112 1.358 . S
C1111 C1113 1.356 . S
C1111 H1143 0.930 . S
C1112 N1109 1.279 . S
C1112 C1111 1.358 . S
C1112 H1115 0.930 . S
C1113 C1110 1.348 . S
C1113 C1111 1.356 . S
H1114 C1108 0.930 . S
H1115 C1112 0.930 . S
O1116 Li1056 1.956 . S
O1116 Li1057 1.970 . S
O1116 Li1058 1.961 . S
O1116 C1060 1.325 . S
O1117 Li1056 1.970 . S
O1117 Li1057 1.956 . S
O1117 Li1059 1.961 . S
O1117 C1066 1.325 . S
O1118 Li1056 1.961 . S
O1118 Li1058 1.956 . S
O1118 Li1059 1.970 . S
O1118 C1088 1.325 1_554 S
O1119 Li1057 1.961 . S
O1119 Li1058 1.970 . S
O1119 Li1059 1.956 . S
O1119 C1094 1.325 . S
H1120 C1062 0.929 . S
H1121 C1063 0.930 . S
H1122 C1064 0.930 . S
H1123 C1065 0.930 . S
H1124 C1067 0.930 . S
H1125 C1069 0.929 . S
H1126 C1070 0.930 . S
H1127 C1071 0.930 . S
H1128 C1074 0.930 . S
H1129 C1077 0.929 1_556 S
H1130 C1082 0.929 . S
H1131 C1083 0.930 . S
H1132 C1090 0.929 . S
H1133 C1091 0.930 1_554 S
H1134 C1092 0.930 . S
H1135 C1093 0.930 . S
H1136 C1095 0.929 . S
H1137 C1096 0.930 . S
H1138 C1097 0.930 . S
H1139 C1098 0.930 . S
H1140 C1102 0.929 . S
H1141 C1104 0.930 . S
H1142 C1110 0.929 . S
H1143 C1111 0.930 . S
Li1144 N1161 1.990 . S
Li1144 O1204 1.956 . S
Li1144 O1205 1.970 . S
Li1144 O1206 1.966 . S
Li1145 N1169 1.990 . S
Li1145 O1204 1.967 . S
Li1145 O1205 2.001 . S
Li1145 O1207 1.918 1_554 S
Li1146 N1191 1.990 . S
Li1146 O1204 1.961 1_556 S
Li1146 O1206 1.950 1_556 S
Li1146 O1207 1.970 . S
Li1147 N1197 1.990 . S
Li1147 O1205 1.961 1_556 S
Li1147 O1206 1.970 1_556 S
Li1147 O1207 1.956 . S
C1148 C1150 1.348 . S
C1148 C1151 1.363 . S
C1148 O1204 1.325 . S
N1149 C1152 1.314 . S
N1149 C1153 1.279 . S
C1150 C1148 1.348 . S
C1150 C1152 1.353 . S
C1150 H1208 0.929 . S
C1151 C1148 1.363 . S
C1151 C1153 1.358 . S
C1151 H1209 0.924 1_554 S
C1152 N1149 1.314 . S
C1152 C1150 1.353 . S
C1152 H1210 0.930 . S
C1153 N1149 1.279 . S
C1153 C1151 1.358 . S
C1153 H1211 0.929 1_554 S
C1154 C1157 1.348 . S
C1154 C1158 1.356 . S
C1154 O1205 1.325 . S
C1155 N1156 1.279 . S
C1155 C1158 1.358 . S
C1155 H1212 0.930 . S
N1156 C1155 1.279 . S
N1156 C1159 1.314 . S
C1157 C1154 1.348 . S
C1157 C1159 1.353 . S
C1157 H1213 0.929 . S
C1158 C1154 1.356 . S
C1158 C1155 1.358 . S
C1158 H1214 0.930 . S
C1159 N1156 1.314 . S
C1159 C1157 1.353 . S
C1159 H1215 0.930 . S
C1160 N1161 1.314 . S
C1160 C1165 1.353 . S
C1160 H1166 0.930 . S
N1161 Li1144 1.990 . S
N1161 C1160 1.314 . S
N1161 C1163 1.279 . S
C1162 C1163 1.358 . S
C1162 C1164 1.356 . S
C1162 H1216 0.930 . S
C1163 N1161 1.279 . S
C1163 C1162 1.358 . S
C1163 H1167 0.930 . S
C1164 C1162 1.356 . S
C1164 C1165 1.348 . S
C1165 C1160 1.353 . S
C1165 C1164 1.348 . S
C1165 H1217 0.929 . S
H1166 C1160 0.930 . S
H1167 C1163 0.930 . S
C1168 N1169 1.314 1_556 S
C1168 C1170 1.353 . S
C1168 H1174 0.930 . S
N1169 Li1145 1.990 . S
N1169 C1168 1.314 1_554 S
N1169 C1172 1.279 . S
C1170 C1168 1.353 . S
C1170 C1173 1.348 1_556 S
C1170 H1218 0.929 . S
C1171 C1172 1.358 . S
C1171 C1173 1.356 . S
C1171 H1219 0.930 . S
C1172 N1169 1.279 . S
C1172 C1171 1.358 . S
C1172 H1175 0.930 . S
C1173 C1170 1.348 1_554 S
C1173 C1171 1.356 . S
H1174 C1168 0.930 . S
H1175 C1172 0.930 . S
C1176 C1178 1.355 . S
C1176 C1179 1.352 1_556 S
C1176 O1206 1.325 1_556 S
N1177 C1180 1.314 . S
N1177 C1181 1.279 1_556 S
C1178 C1176 1.355 . S
C1178 C1180 1.353 . S
C1178 H1220 0.929 . S
C1179 C1176 1.352 1_554 S
C1179 C1181 1.358 . S
C1179 H1221 0.930 . S
C1180 N1177 1.314 . S
C1180 C1178 1.353 . S
C1180 H1222 0.930 . S
C1181 N1177 1.279 1_554 S
C1181 C1179 1.358 . S
C1181 H1223 0.930 . S
C1182 C1183 1.348 . S
C1182 C1184 1.356 . S
C1182 O1207 1.325 . S
C1183 C1182 1.348 . S
C1183 C1185 1.353 . S
C1183 H1224 0.929 . S
C1184 C1182 1.356 . S
C1184 C1186 1.358 . S
C1184 H1225 0.930 . S
C1185 C1183 1.353 . S
C1185 N1187 1.314 . S
C1185 H1226 0.930 . S
C1186 C1184 1.358 . S
C1186 N1187 1.279 . S
C1186 H1227 0.930 . S
N1187 C1185 1.314 . S
N1187 C1186 1.279 . S
C1188 C1190 1.353 . S
C1188 N1191 1.314 . S
C1188 H1194 0.930 . S
C1189 N1191 1.279 . S
C1189 C1192 1.358 . S
C1189 H1195 0.930 . S
C1190 C1188 1.353 . S
C1190 C1193 1.348 . S
C1190 H1228 0.929 . S
N1191 Li1146 1.990 . S
N1191 C1188 1.314 . S
N1191 C1189 1.279 . S
C1192 C1189 1.358 . S
C1192 C1193 1.356 . S
C1192 H1229 0.930 . S
C1193 C1190 1.348 . S
C1193 C1192 1.356 . S
H1194 C1188 0.930 . S
H1195 C1189 0.930 . S
C1196 N1197 1.314 1_554 S
C1196 C1198 1.353 . S
C1196 H1202 0.930 . S
N1197 Li1147 1.990 . S
N1197 C1196 1.314 1_556 S
N1197 C1200 1.279 . S
C1198 C1196 1.353 . S
C1198 C1201 1.348 1_554 S
C1198 H1230 0.929 . S
C1199 C1200 1.358 . S
C1199 C1201 1.356 . S
C1199 H1231 0.930 . S
C1200 N1197 1.279 . S
C1200 C1199 1.358 . S
C1200 H1203 0.930 . S
C1201 C1198 1.348 1_556 S
C1201 C1199 1.356 . S
H1202 C1196 0.930 . S
H1203 C1200 0.930 . S
O1204 Li1144 1.956 . S
O1204 Li1145 1.967 . S
O1204 Li1146 1.961 1_554 S
O1204 C1148 1.325 . S
O1205 Li1144 1.970 . S
O1205 Li1145 2.001 . S
O1205 Li1147 1.961 1_554 S
O1205 C1154 1.325 . S
O1206 Li1144 1.966 . S
O1206 Li1146 1.950 1_554 S
O1206 Li1147 1.970 1_554 S
O1206 C1176 1.325 1_554 S
O1207 Li1145 1.918 1_556 S
O1207 Li1146 1.970 . S
O1207 Li1147 1.956 . S
O1207 C1182 1.325 . S
H1208 C1150 0.929 . S
H1209 C1151 0.924 1_556 S
H1210 C1152 0.930 . S
H1211 C1153 0.929 1_556 S
H1212 C1155 0.930 . S
H1213 C1157 0.929 . S
H1214 C1158 0.930 . S
H1215 C1159 0.930 . S
H1216 C1162 0.930 . S
H1217 C1165 0.929 . S
H1218 C1170 0.929 . S
H1219 C1171 0.930 . S
H1220 C1178 0.929 . S
H1221 C1179 0.930 . S
H1222 C1180 0.930 . S
H1223 C1181 0.930 . S
H1224 C1183 0.929 . S
H1225 C1184 0.930 . S
H1226 C1185 0.930 . S
H1227 C1186 0.930 . S
H1228 C1190 0.929 . S
H1229 C1192 0.930 . S
H1230 C1198 0.929 . S
H1231 C1199 0.930 . S
Li1232 N1249 1.990 . S
Li1232 O1292 1.956 . S
Li1232 O1293 1.970 . S
Li1232 O1294 1.961 . S
Li1233 N1257 1.990 . S
Li1233 O1292 1.970 . S
Li1233 O1293 1.956 . S
Li1233 O1295 1.961 . S
Li1234 N1279 1.990 . S
Li1234 O1292 1.961 . S
Li1234 O1294 1.956 . S
Li1234 O1295 1.970 . S
Li1235 N1285 1.990 . S
Li1235 O1293 1.961 . S
Li1235 O1294 1.970 . S
Li1235 O1295 1.956 . S
C1236 C1238 1.348 . S
C1236 C1239 1.356 . S
C1236 O1292 1.325 . S
N1237 C1240 1.314 . S
N1237 C1241 1.279 . S
C1238 C1236 1.348 . S
C1238 C1240 1.353 . S
C1238 H1296 0.929 . S
C1239 C1236 1.356 . S
C1239 C1241 1.358 . S
C1239 H1297 0.930 . S
C1240 N1237 1.314 . S
C1240 C1238 1.353 . S
C1240 H1298 0.930 . S
C1241 N1237 1.279 . S
C1241 C1239 1.358 . S
C1241 H1299 0.930 . S
C1242 C1245 1.348 . S
C1242 C1246 1.356 . S
C1242 O1293 1.325 . S
C1243 N1244 1.279 . S
C1243 C1246 1.358 . S
C1243 H1300 0.930 . S
N1244 C1243 1.279 . S
N1244 C1247 1.314 . S
C1245 C1242 1.348 . S
C1245 C1247 1.353 . S
C1245 H1301 0.929 . S
C1246 C1242 1.356 . S
C1246 C1243 1.358 . S
C1246 H1302 0.930 . S
C1247 N1244 1.314 . S
C1247 C1245 1.353 . S
C1247 H1303 0.930 . S
C1248 N1249 1.314 . S
C1248 C1253 1.353 . S
C1248 H1254 0.930 . S
N1249 Li1232 1.990 . S
N1249 C1248 1.314 . S
N1249 C1251 1.279 . S
C1250 C1251 1.358 . S
C1250 C1252 1.356 . S
C1250 H1304 0.930 . S
C1251 N1249 1.279 . S
C1251 C1250 1.358 . S
C1251 H1255 0.930 . S
C1252 C1250 1.356 . S
C1252 C1253 1.348 . S
C1253 C1248 1.353 . S
C1253 C1252 1.348 . S
C1253 H1305 0.929 . S
H1254 C1248 0.930 . S
H1255 C1251 0.930 . S
C1256 N1257 1.314 . S
C1256 C1258 1.353 . S
C1256 H1262 0.930 . S
N1257 Li1233 1.990 . S
N1257 C1256 1.314 . S
N1257 C1260 1.279 . S
C1258 C1256 1.353 . S
C1258 C1261 1.348 . S
C1258 H1306 0.929 . S
C1259 C1260 1.358 . S
C1259 C1261 1.356 . S
C1259 H1307 0.930 . S
C1260 N1257 1.279 . S
C1260 C1259 1.358 . S
C1260 H1263 0.930 . S
C1261 C1258 1.348 . S
C1261 C1259 1.356 . S
H1262 C1256 0.930 . S
H1263 C1260 0.930 . S
C1264 C1266 1.348 . S
C1264 C1267 1.356 . S
C1264 O1294 1.325 . S
N1265 C1268 1.314 . S
N1265 C1269 1.279 . S
C1266 C1264 1.348 . S
C1266 C1268 1.353 . S
C1266 H1308 0.929 . S
C1267 C1264 1.356 . S
C1267 C1269 1.358 . S
C1267 H1309 0.930 . S
C1268 N1265 1.314 . S
C1268 C1266 1.353 . S
C1268 H1310 0.930 . S
C1269 N1265 1.279 . S
C1269 C1267 1.358 . S
C1269 H1311 0.930 . S
C1270 C1271 1.348 . S
C1270 C1272 1.356 . S
C1270 O1295 1.325 . S
C1271 C1270 1.348 . S
C1271 C1273 1.353 . S
C1271 H1312 0.929 . S
C1272 C1270 1.356 . S
C1272 C1274 1.358 . S
C1272 H1313 0.930 . S
C1273 C1271 1.353 . S
C1273 N1275 1.314 . S
C1273 H1314 0.930 . S
C1274 C1272 1.358 . S
C1274 N1275 1.279 . S
C1274 H1315 0.930 . S
N1275 C1273 1.314 . S
N1275 C1274 1.279 . S
C1276 C1278 1.353 . S
C1276 N1279 1.314 . S
C1276 H1282 0.930 . S
C1277 N1279 1.279 . S
C1277 C1280 1.358 . S
C1277 H1283 0.930 . S
C1278 C1276 1.353 . S
C1278 C1281 1.348 . S
C1278 H1316 0.929 . S
N1279 Li1234 1.990 . S
N1279 C1276 1.314 . S
N1279 C1277 1.279 . S
C1280 C1277 1.358 . S
C1280 C1281 1.356 . S
C1280 H1317 0.930 . S
C1281 C1278 1.348 . S
C1281 C1280 1.356 . S
H1282 C1276 0.930 . S
H1283 C1277 0.930 . S
C1284 N1285 1.314 . S
C1284 C1286 1.353 . S
C1284 H1290 0.930 . S
N1285 Li1235 1.990 . S
N1285 C1284 1.314 . S
N1285 C1288 1.279 . S
C1286 C1284 1.353 . S
C1286 C1289 1.348 . S
C1286 H1318 0.929 . S
C1287 C1288 1.358 . S
C1287 C1289 1.356 . S
C1287 H1319 0.930 . S
C1288 N1285 1.279 . S
C1288 C1287 1.358 . S
C1288 H1291 0.930 . S
C1289 C1286 1.348 . S
C1289 C1287 1.356 . S
H1290 C1284 0.930 . S
H1291 C1288 0.930 . S
O1292 Li1232 1.956 . S
O1292 Li1233 1.970 . S
O1292 Li1234 1.961 . S
O1292 C1236 1.325 . S
O1293 Li1232 1.970 . S
O1293 Li1233 1.956 . S
O1293 Li1235 1.961 . S
O1293 C1242 1.325 . S
O1294 Li1232 1.961 . S
O1294 Li1234 1.956 . S
O1294 Li1235 1.970 . S
O1294 C1264 1.325 . S
O1295 Li1233 1.961 . S
O1295 Li1234 1.970 . S
O1295 Li1235 1.956 . S
O1295 C1270 1.325 . S
H1296 C1238 0.929 . S
H1297 C1239 0.930 . S
H1298 C1240 0.930 . S
H1299 C1241 0.930 . S
H1300 C1243 0.930 . S
H1301 C1245 0.929 . S
H1302 C1246 0.930 . S
H1303 C1247 0.930 . S
H1304 C1250 0.930 . S
H1305 C1253 0.929 . S
H1306 C1258 0.929 . S
H1307 C1259 0.930 . S
H1308 C1266 0.929 . S
H1309 C1267 0.930 . S
H1310 C1268 0.930 . S
H1311 C1269 0.930 . S
H1312 C1271 0.929 . S
H1313 C1272 0.930 . S
H1314 C1273 0.930 . S
H1315 C1274 0.930 . S
H1316 C1278 0.929 . S
H1317 C1280 0.930 . S
H1318 C1286 0.929 . S
H1319 C1287 0.930 . S
Li1320 N1337 1.990 . S
Li1320 O1380 1.956 . S
Li1320 O1381 1.970 . S
Li1320 O1382 1.961 . S
Li1321 N1345 1.990 . S
Li1321 O1380 1.970 . S
Li1321 O1381 1.956 . S
Li1321 O1383 1.961 . S
Li1322 N1367 1.990 . S
Li1322 O1380 1.961 . S
Li1322 O1382 1.956 . S
Li1322 O1383 1.970 . S
Li1323 N1373 1.990 . S
Li1323 O1381 1.961 . S
Li1323 O1382 1.970 . S
Li1323 O1383 1.956 . S
C1324 C1326 1.348 . S
C1324 C1327 1.356 . S
C1324 O1380 1.325 . S
N1325 C1328 1.314 . S
N1325 C1329 1.279 . S
C1326 C1324 1.348 . S
C1326 C1328 1.353 . S
C1326 H1384 0.929 . S
C1327 C1324 1.356 . S
C1327 C1329 1.358 . S
C1327 H1385 0.930 . S
C1328 N1325 1.314 . S
C1328 C1326 1.353 . S
C1328 H1386 0.930 . S
C1329 N1325 1.279 . S
C1329 C1327 1.358 . S
C1329 H1387 0.930 . S
C1330 C1333 1.348 . S
C1330 C1334 1.356 . S
C1330 O1381 1.325 . S
C1331 N1332 1.279 . S
C1331 C1334 1.358 . S
C1331 H1388 0.930 . S
N1332 C1331 1.279 . S
N1332 C1335 1.314 . S
C1333 C1330 1.348 . S
C1333 C1335 1.353 . S
C1333 H1389 0.929 . S
C1334 C1330 1.356 . S
C1334 C1331 1.358 . S
C1334 H1390 0.930 . S
C1335 N1332 1.314 . S
C1335 C1333 1.353 . S
C1335 H1391 0.930 . S
C1336 N1337 1.314 . S
C1336 C1341 1.353 . S
C1336 H1342 0.930 . S
N1337 Li1320 1.990 . S
N1337 C1336 1.314 . S
N1337 C1339 1.279 . S
C1338 C1339 1.358 . S
C1338 C1340 1.356 . S
C1338 H1392 0.930 . S
C1339 N1337 1.279 . S
C1339 C1338 1.358 . S
C1339 H1343 0.930 . S
C1340 C1338 1.356 . S
C1340 C1341 1.348 . S
C1341 C1336 1.353 . S
C1341 C1340 1.348 . S
C1341 H1393 0.929 . S
H1342 C1336 0.930 . S
H1343 C1339 0.930 . S
C1344 N1345 1.314 . S
C1344 C1346 1.353 . S
C1344 H1350 0.930 . S
N1345 Li1321 1.990 . S
N1345 C1344 1.314 . S
N1345 C1348 1.279 . S
C1346 C1344 1.353 . S
C1346 C1349 1.348 . S
C1346 H1394 0.929 . S
C1347 C1348 1.358 . S
C1347 C1349 1.356 . S
C1347 H1395 0.930 . S
C1348 N1345 1.279 . S
C1348 C1347 1.358 . S
C1348 H1351 0.930 . S
C1349 C1346 1.348 . S
C1349 C1347 1.356 . S
H1350 C1344 0.930 . S
H1351 C1348 0.930 . S
C1352 C1354 1.348 . S
C1352 C1355 1.356 . S
C1352 O1382 1.325 . S
N1353 C1356 1.314 . S
N1353 C1357 1.279 . S
C1354 C1352 1.348 . S
C1354 C1356 1.353 . S
C1354 H1396 0.929 . S
C1355 C1352 1.356 . S
C1355 C1357 1.358 . S
C1355 H1397 0.930 . S
C1356 N1353 1.314 . S
C1356 C1354 1.353 . S
C1356 H1398 0.930 . S
C1357 N1353 1.279 . S
C1357 C1355 1.358 . S
C1357 H1399 0.930 . S
C1358 C1359 1.348 . S
C1358 C1360 1.356 . S
C1358 O1383 1.325 . S
C1359 C1358 1.348 . S
C1359 C1361 1.353 . S
C1359 H1400 0.929 . S
C1360 C1358 1.356 . S
C1360 C1362 1.358 . S
C1360 H1401 0.930 . S
C1361 C1359 1.353 . S
C1361 N1363 1.314 . S
C1361 H1402 0.930 . S
C1362 C1360 1.358 . S
C1362 N1363 1.279 . S
C1362 H1403 0.930 . S
N1363 C1361 1.314 . S
N1363 C1362 1.279 . S
C1364 C1366 1.353 . S
C1364 N1367 1.314 . S
C1364 H1370 0.930 . S
C1365 N1367 1.279 . S
C1365 C1368 1.358 . S
C1365 H1371 0.930 . S
C1366 C1364 1.353 . S
C1366 C1369 1.348 . S
C1366 H1404 0.929 . S
N1367 Li1322 1.990 . S
N1367 C1364 1.314 . S
N1367 C1365 1.279 . S
C1368 C1365 1.358 . S
C1368 C1369 1.356 . S
C1368 H1405 0.930 . S
C1369 C1366 1.348 . S
C1369 C1368 1.356 . S
H1370 C1364 0.930 . S
H1371 C1365 0.930 . S
C1372 N1373 1.314 . S
C1372 C1374 1.353 . S
C1372 H1378 0.930 . S
N1373 Li1323 1.990 . S
N1373 C1372 1.314 . S
N1373 C1376 1.279 . S
C1374 C1372 1.353 . S
C1374 C1377 1.348 . S
C1374 H1406 0.929 . S
C1375 C1376 1.358 . S
C1375 C1377 1.356 . S
C1375 H1407 0.930 . S
C1376 N1373 1.279 . S
C1376 C1375 1.358 . S
C1376 H1379 0.930 . S
C1377 C1374 1.348 . S
C1377 C1375 1.356 . S
H1378 C1372 0.930 . S
H1379 C1376 0.930 . S
O1380 Li1320 1.956 . S
O1380 Li1321 1.970 . S
O1380 Li1322 1.961 . S
O1380 C1324 1.325 . S
O1381 Li1320 1.970 . S
O1381 Li1321 1.956 . S
O1381 Li1323 1.961 . S
O1381 C1330 1.325 . S
O1382 Li1320 1.961 . S
O1382 Li1322 1.956 . S
O1382 Li1323 1.970 . S
O1382 C1352 1.325 . S
O1383 Li1321 1.961 . S
O1383 Li1322 1.970 . S
O1383 Li1323 1.956 . S
O1383 C1358 1.325 . S
H1384 C1326 0.929 . S
H1385 C1327 0.930 . S
H1386 C1328 0.930 . S
H1387 C1329 0.930 . S
H1388 C1331 0.930 . S
H1389 C1333 0.929 . S
H1390 C1334 0.930 . S
H1391 C1335 0.930 . S
H1392 C1338 0.930 . S
H1393 C1341 0.929 . S
H1394 C1346 0.929 . S
H1395 C1347 0.930 . S
H1396 C1354 0.929 . S
H1397 C1355 0.930 . S
H1398 C1356 0.930 . S
H1399 C1357 0.930 . S
H1400 C1359 0.929 . S
H1401 C1360 0.930 . S
H1402 C1361 0.930 . S
H1403 C1362 0.930 . S
H1404 C1366 0.929 . S
H1405 C1368 0.930 . S
H1406 C1374 0.929 . S
H1407 C1375 0.930 . S
Li1408 N1425 1.990 . S
Li1408 O1468 1.956 . S
Li1408 O1469 1.970 . S
Li1408 O1470 1.961 . S
Li1409 N1433 1.990 . S
Li1409 O1468 1.970 . S
Li1409 O1469 1.956 . S
Li1409 O1471 1.961 . S
Li1410 N1455 1.990 . S
Li1410 O1468 1.961 . S
Li1410 O1470 1.956 . S
Li1410 O1471 1.970 . S
Li1411 N1461 1.990 . S
Li1411 O1469 1.961 . S
Li1411 O1470 1.970 . S
Li1411 O1471 1.956 . S
C1412 C1414 1.348 . S
C1412 C1415 1.356 . S
C1412 O1468 1.325 . S
N1413 C1416 1.314 . S
N1413 C1417 1.279 1_565 S
C1414 C1412 1.348 . S
C1414 C1416 1.353 1_545 S
C1414 H1472 0.929 . S
C1415 C1412 1.356 . S
C1415 C1417 1.358 . S
C1415 H1473 0.930 . S
C1416 N1413 1.314 . S
C1416 C1414 1.353 1_565 S
C1416 H1474 0.930 . S
C1417 N1413 1.279 1_545 S
C1417 C1415 1.358 . S
C1417 H1475 0.930 . S
C1418 C1421 1.348 . S
C1418 C1422 1.356 . S
C1418 O1469 1.325 . S
C1419 N1420 1.279 . S
C1419 C1422 1.358 . S
C1419 H1476 0.930 . S
N1420 C1419 1.279 . S
N1420 C1423 1.314 . S
C1421 C1418 1.348 . S
C1421 C1423 1.353 . S
C1421 H1477 0.929 . S
C1422 C1418 1.356 . S
C1422 C1419 1.358 . S
C1422 H1478 0.930 . S
C1423 N1420 1.314 . S
C1423 C1421 1.353 . S
C1423 H1479 0.930 . S
C1424 N1425 1.314 . S
C1424 C1429 1.353 . S
C1424 H1430 0.930 . S
N1425 Li1408 1.990 . S
N1425 C1424 1.314 . S
N1425 C1427 1.279 . S
C1426 C1427 1.358 . S
C1426 C1428 1.356 . S
C1426 H1480 0.930 . S
C1427 N1425 1.279 . S
C1427 C1426 1.358 . S
C1427 H1431 0.930 . S
C1428 C1426 1.356 . S
C1428 C1429 1.348 . S
C1429 C1424 1.353 . S
C1429 C1428 1.348 . S
C1429 H1481 0.929 . S
H1430 C1424 0.930 . S
H1431 C1427 0.930 . S
C1432 N1433 1.317 . S
C1432 C1434 1.350 1_545 S
C1432 H1438 0.931 . S
N1433 Li1409 1.990 . S
N1433 C1432 1.317 . S
N1433 C1436 1.279 . S
C1434 C1432 1.350 1_565 S
C1434 C1437 1.348 . S
C1434 H1482 0.929 . S
C1435 C1436 1.358 1_565 S
C1435 C1437 1.356 . S
C1435 H1483 0.930 . S
C1436 N1433 1.279 . S
C1436 C1435 1.358 1_545 S
C1436 H1439 0.930 . S
C1437 C1434 1.348 . S
C1437 C1435 1.356 . S
H1438 C1432 0.931 . S
H1439 C1436 0.930 . S
C1440 C1442 1.348 . S
C1440 C1443 1.356 . S
C1440 O1470 1.325 . S
N1441 C1444 1.314 . S
N1441 C1445 1.279 . S
C1442 C1440 1.348 . S
C1442 C1444 1.353 . S
C1442 H1484 0.929 . S
C1443 C1440 1.356 . S
C1443 C1445 1.358 . S
C1443 H1485 0.930 . S
C1444 N1441 1.314 . S
C1444 C1442 1.353 . S
C1444 H1486 0.930 . S
C1445 N1441 1.279 . S
C1445 C1443 1.358 . S
C1445 H1487 0.930 . S
C1446 C1447 1.348 . S
C1446 C1448 1.356 . S
C1446 O1471 1.325 . S
C1447 C1446 1.348 . S
C1447 C1449 1.353 . S
C1447 H1488 0.929 . S
C1448 C1446 1.356 . S
C1448 C1450 1.358 . S
C1448 H1489 0.930 . S
C1449 C1447 1.353 . S
C1449 N1451 1.314 . S
C1449 H1490 0.930 . S
C1450 C1448 1.358 . S
C1450 N1451 1.279 . S
C1450 H1491 0.930 . S
N1451 C1449 1.314 . S
N1451 C1450 1.279 . S
C1452 C1454 1.353 . S
C1452 N1455 1.314 . S
C1452 H1458 0.930 . S
C1453 N1455 1.279 . S
C1453 C1456 1.358 . S
C1453 H1459 0.930 . S
C1454 C1452 1.353 . S
C1454 C1457 1.348 . S
C1454 H1492 0.929 . S
N1455 Li1410 1.990 . S
N1455 C1452 1.314 . S
N1455 C1453 1.279 . S
C1456 C1453 1.358 . S
C1456 C1457 1.356 . S
C1456 H1493 0.930 . S
C1457 C1454 1.348 . S
C1457 C1456 1.356 . S
H1458 C1452 0.930 . S
H1459 C1453 0.930 . S
C1460 N1461 1.314 . S
C1460 C1462 1.353 . S
C1460 H1466 0.930 . S
N1461 Li1411 1.990 . S
N1461 C1460 1.314 . S
N1461 C1464 1.279 . S
C1462 C1460 1.353 . S
C1462 C1465 1.348 . S
C1462 H1494 0.929 . S
C1463 C1464 1.358 . S
C1463 C1465 1.356 . S
C1463 H1495 0.930 . S
C1464 N1461 1.279 . S
C1464 C1463 1.358 . S
C1464 H1467 0.930 . S
C1465 C1462 1.348 . S
C1465 C1463 1.356 . S
H1466 C1460 0.930 . S
H1467 C1464 0.930 . S
O1468 Li1408 1.956 . S
O1468 Li1409 1.970 . S
O1468 Li1410 1.961 . S
O1468 C1412 1.325 . S
O1469 Li1408 1.970 . S
O1469 Li1409 1.956 . S
O1469 Li1411 1.961 . S
O1469 C1418 1.325 . S
O1470 Li1408 1.961 . S
O1470 Li1410 1.956 . S
O1470 Li1411 1.970 . S
O1470 C1440 1.325 . S
O1471 Li1409 1.961 . S
O1471 Li1410 1.970 . S
O1471 Li1411 1.956 . S
O1471 C1446 1.325 . S
H1472 C1414 0.929 . S
H1473 C1415 0.930 . S
H1474 C1416 0.930 . S
H1475 C1417 0.930 . S
H1476 C1419 0.930 . S
H1477 C1421 0.929 . S
H1478 C1422 0.930 . S
H1479 C1423 0.930 . S
H1480 C1426 0.930 . S
H1481 C1429 0.929 . S
H1482 C1434 0.929 . S
H1483 C1435 0.930 . S
H1484 C1442 0.929 . S
H1485 C1443 0.930 . S
H1486 C1444 0.930 . S
H1487 C1445 0.930 . S
H1488 C1447 0.929 . S
H1489 C1448 0.930 . S
H1490 C1449 0.930 . S
H1491 C1450 0.930 . S
H1492 C1454 0.929 . S
H1493 C1456 0.930 . S
H1494 C1462 0.929 . S
H1495 C1463 0.930 . S
Li1496 N1513 1.990 . S
Li1496 O1556 1.956 . S
Li1496 O1557 1.970 . S
Li1496 O1558 1.961 . S
Li1497 N1521 1.990 . S
Li1497 O1556 1.970 . S
Li1497 O1557 1.956 . S
Li1497 O1559 1.961 . S
Li1498 N1543 1.990 . S
Li1498 O1556 1.961 . S
Li1498 O1558 1.956 . S
Li1498 O1559 1.970 . S
Li1499 N1549 1.990 . S
Li1499 O1557 1.961 . S
Li1499 O1558 1.970 . S
Li1499 O1559 1.956 . S
C1500 C1502 1.348 . S
C1500 C1503 1.356 . S
C1500 O1556 1.325 . S
N1501 C1504 1.314 . S
N1501 C1505 1.279 . S
C1502 C1500 1.348 . S
C1502 C1504 1.353 . S
C1502 H1560 0.929 . S
C1503 C1500 1.356 . S
C1503 C1505 1.358 . S
C1503 H1561 0.930 . S
C1504 N1501 1.314 . S
C1504 C1502 1.353 . S
C1504 H1562 0.930 . S
C1505 N1501 1.279 . S
C1505 C1503 1.358 . S
C1505 H1563 0.930 . S
C1506 C1509 1.348 . S
C1506 C1510 1.356 . S
C1506 O1557 1.325 . S
C1507 N1508 1.279 . S
C1507 C1510 1.358 . S
C1507 H1564 0.930 . S
N1508 C1507 1.279 . S
N1508 C1511 1.314 . S
C1509 C1506 1.348 . S
C1509 C1511 1.353 . S
C1509 H1565 0.929 . S
C1510 C1506 1.356 . S
C1510 C1507 1.358 . S
C1510 H1566 0.930 . S
C1511 N1508 1.314 . S
C1511 C1509 1.353 . S
C1511 H1567 0.930 . S
C1512 N1513 1.314 . S
C1512 C1517 1.353 . S
C1512 H1518 0.930 . S
N1513 Li1496 1.990 . S
N1513 C1512 1.314 . S
N1513 C1515 1.279 . S
C1514 C1515 1.358 . S
C1514 C1516 1.356 . S
C1514 H1568 0.930 . S
C1515 N1513 1.279 . S
C1515 C1514 1.358 . S
C1515 H1519 0.930 . S
C1516 C1514 1.356 . S
C1516 C1517 1.348 . S
C1517 C1512 1.353 . S
C1517 C1516 1.348 . S
C1517 H1569 0.929 . S
H1518 C1512 0.930 . S
H1519 C1515 0.930 . S
C1520 N1521 1.314 . S
C1520 C1522 1.353 . S
C1520 H1526 0.930 . S
N1521 Li1497 1.990 . S
N1521 C1520 1.314 . S
N1521 C1524 1.279 . S
C1522 C1520 1.353 . S
C1522 C1525 1.348 . S
C1522 H1570 0.929 . S
C1523 C1524 1.358 . S
C1523 C1525 1.356 . S
C1523 H1571 0.930 . S
C1524 N1521 1.279 . S
C1524 C1523 1.358 . S
C1524 H1527 0.930 . S
C1525 C1522 1.348 . S
C1525 C1523 1.356 . S
H1526 C1520 0.930 . S
H1527 C1524 0.930 . S
C1528 C1530 1.348 . S
C1528 C1531 1.356 . S
C1528 O1558 1.325 . S
N1529 C1532 1.314 . S
N1529 C1533 1.279 . S
C1530 C1528 1.348 . S
C1530 C1532 1.353 . S
C1530 H1572 0.929 . S
C1531 C1528 1.356 . S
C1531 C1533 1.358 . S
C1531 H1573 0.930 . S
C1532 N1529 1.314 . S
C1532 C1530 1.353 . S
C1532 H1574 0.930 . S
C1533 N1529 1.279 . S
C1533 C1531 1.358 . S
C1533 H1575 0.930 . S
C1534 C1535 1.348 . S
C1534 C1536 1.356 . S
C1534 O1559 1.325 . S
C1535 C1534 1.348 . S
C1535 C1537 1.353 . S
C1535 H1576 0.929 . S
C1536 C1534 1.356 . S
C1536 C1538 1.358 . S
C1536 H1577 0.930 . S
C1537 C1535 1.353 . S
C1537 N1539 1.314 . S
C1537 H1578 0.930 . S
C1538 C1536 1.358 . S
C1538 N1539 1.279 . S
C1538 H1579 0.930 . S
N1539 C1537 1.314 . S
N1539 C1538 1.279 . S
C1540 C1542 1.353 . S
C1540 N1543 1.314 . S
C1540 H1546 0.930 . S
C1541 N1543 1.279 . S
C1541 C1544 1.358 . S
C1541 H1547 0.930 . S
C1542 C1540 1.353 . S
C1542 C1545 1.348 . S
C1542 H1580 0.929 . S
N1543 Li1498 1.990 . S
N1543 C1540 1.314 . S
N1543 C1541 1.279 . S
C1544 C1541 1.358 . S
C1544 C1545 1.356 . S
C1544 H1581 0.930 . S
C1545 C1542 1.348 . S
C1545 C1544 1.356 . S
H1546 C1540 0.930 . S
H1547 C1541 0.930 . S
C1548 N1549 1.314 . S
C1548 C1550 1.353 . S
C1548 H1554 0.930 . S
N1549 Li1499 1.990 . S
N1549 C1548 1.314 . S
N1549 C1552 1.279 . S
C1550 C1548 1.353 . S
C1550 C1553 1.348 . S
C1550 H1582 0.929 . S
C1551 C1552 1.358 . S
C1551 C1553 1.356 . S
C1551 H1583 0.930 . S
C1552 N1549 1.279 . S
C1552 C1551 1.358 . S
C1552 H1555 0.930 . S
C1553 C1550 1.348 . S
C1553 C1551 1.356 . S
H1554 C1548 0.930 . S
H1555 C1552 0.930 . S
O1556 Li1496 1.956 . S
O1556 Li1497 1.970 . S
O1556 Li1498 1.961 . S
O1556 C1500 1.325 . S
O1557 Li1496 1.970 . S
O1557 Li1497 1.956 . S
O1557 Li1499 1.961 . S
O1557 C1506 1.325 . S
O1558 Li1496 1.961 . S
O1558 Li1498 1.956 . S
O1558 Li1499 1.970 . S
O1558 C1528 1.325 . S
O1559 Li1497 1.961 . S
O1559 Li1498 1.970 . S
O1559 Li1499 1.956 . S
O1559 C1534 1.325 . S
H1560 C1502 0.929 . S
H1561 C1503 0.930 . S
H1562 C1504 0.930 . S
H1563 C1505 0.930 . S
H1564 C1507 0.930 . S
H1565 C1509 0.929 . S
H1566 C1510 0.930 . S
H1567 C1511 0.930 . S
H1568 C1514 0.930 . S
H1569 C1517 0.929 . S
H1570 C1522 0.929 . S
H1571 C1523 0.930 . S
H1572 C1530 0.929 . S
H1573 C1531 0.930 . S
H1574 C1532 0.930 . S
H1575 C1533 0.930 . S
H1576 C1535 0.929 . S
H1577 C1536 0.930 . S
H1578 C1537 0.930 . S
H1579 C1538 0.930 . S
H1580 C1542 0.929 . S
H1581 C1544 0.930 . S
H1582 C1550 0.929 . S
H1583 C1551 0.930 . S
Li1584 N1601 1.990 . S
Li1584 O1644 1.956 . S
Li1584 O1645 1.970 . S
Li1584 O1646 1.961 . S
Li1585 N1609 1.990 . S
Li1585 O1644 1.970 . S
Li1585 O1645 1.956 . S
Li1585 O1647 1.961 . S
Li1586 N1631 1.990 . S
Li1586 O1644 1.961 . S
Li1586 O1646 1.956 . S
Li1586 O1647 1.970 . S
Li1587 N1637 1.990 . S
Li1587 O1645 1.961 . S
Li1587 O1646 1.970 . S
Li1587 O1647 1.956 . S
C1588 C1590 1.348 . S
C1588 C1591 1.356 . S
C1588 O1644 1.325 . S
N1589 C1592 1.314 . S
N1589 C1593 1.279 . S
C1590 C1588 1.348 . S
C1590 C1592 1.353 . S
C1590 H1648 0.929 . S
C1591 C1588 1.356 . S
C1591 C1593 1.358 . S
C1591 H1649 0.930 . S
C1592 N1589 1.314 . S
C1592 C1590 1.353 . S
C1592 H1650 0.930 . S
C1593 N1589 1.279 . S
C1593 C1591 1.358 . S
C1593 H1651 0.930 . S
C1594 C1597 1.348 . S
C1594 C1598 1.356 . S
C1594 O1645 1.325 . S
C1595 N1596 1.279 . S
C1595 C1598 1.358 . S
C1595 H1652 0.930 . S
N1596 C1595 1.279 . S
N1596 C1599 1.314 . S
C1597 C1594 1.348 . S
C1597 C1599 1.353 . S
C1597 H1653 0.929 . S
C1598 C1594 1.356 . S
C1598 C1595 1.358 . S
C1598 H1654 0.930 . S
C1599 N1596 1.314 . S
C1599 C1597 1.353 . S
C1599 H1655 0.930 . S
C1600 N1601 1.314 . S
C1600 C1605 1.353 . S
C1600 H1606 0.930 . S
N1601 Li1584 1.990 . S
N1601 C1600 1.314 . S
N1601 C1603 1.279 . S
C1602 C1603 1.358 . S
C1602 C1604 1.356 . S
C1602 H1656 0.930 . S
C1603 N1601 1.279 . S
C1603 C1602 1.358 . S
C1603 H1607 0.930 . S
C1604 C1602 1.356 . S
C1604 C1605 1.348 . S
C1605 C1600 1.353 . S
C1605 C1604 1.348 . S
C1605 H1657 0.929 . S
H1606 C1600 0.930 . S
H1607 C1603 0.930 . S
C1608 N1609 1.314 . S
C1608 C1610 1.353 . S
C1608 H1614 0.930 . S
N1609 Li1585 1.990 . S
N1609 C1608 1.314 . S
N1609 C1612 1.279 . S
C1610 C1608 1.353 . S
C1610 C1613 1.348 . S
C1610 H1658 0.929 . S
C1611 C1612 1.358 . S
C1611 C1613 1.356 . S
C1611 H1659 0.930 . S
C1612 N1609 1.279 . S
C1612 C1611 1.358 . S
C1612 H1615 0.930 . S
C1613 C1610 1.348 . S
C1613 C1611 1.356 . S
H1614 C1608 0.930 . S
H1615 C1612 0.930 . S
C1616 C1618 1.348 . S
C1616 C1619 1.356 . S
C1616 O1646 1.325 . S
N1617 C1620 1.314 . S
N1617 C1621 1.279 . S
C1618 C1616 1.348 . S
C1618 C1620 1.353 . S
C1618 H1660 0.929 . S
C1619 C1616 1.356 . S
C1619 C1621 1.358 . S
C1619 H1661 0.930 . S
C1620 N1617 1.314 . S
C1620 C1618 1.353 . S
C1620 H1662 0.930 . S
C1621 N1617 1.279 . S
C1621 C1619 1.358 . S
C1621 H1663 0.930 . S
C1622 C1623 1.348 . S
C1622 C1624 1.356 . S
C1622 O1647 1.325 . S
C1623 C1622 1.348 . S
C1623 C1625 1.353 . S
C1623 H1664 0.929 . S
C1624 C1622 1.356 . S
C1624 C1626 1.358 . S
C1624 H1665 0.930 . S
C1625 C1623 1.353 . S
C1625 N1627 1.314 . S
C1625 H1666 0.930 . S
C1626 C1624 1.358 . S
C1626 N1627 1.279 . S
C1626 H1667 0.930 . S
N1627 C1625 1.314 . S
N1627 C1626 1.279 . S
C1628 C1630 1.353 . S
C1628 N1631 1.314 . S
C1628 H1634 0.930 . S
C1629 N1631 1.279 . S
C1629 C1632 1.358 . S
C1629 H1635 0.930 . S
C1630 C1628 1.353 . S
C1630 C1633 1.348 . S
C1630 H1668 0.929 . S
N1631 Li1586 1.990 . S
N1631 C1628 1.314 . S
N1631 C1629 1.279 . S
C1632 C1629 1.358 . S
C1632 C1633 1.356 . S
C1632 H1669 0.930 . S
C1633 C1630 1.348 . S
C1633 C1632 1.356 . S
H1634 C1628 0.930 . S
H1635 C1629 0.930 . S
C1636 N1637 1.314 . S
C1636 C1638 1.353 . S
C1636 H1642 0.930 . S
N1637 Li1587 1.990 . S
N1637 C1636 1.314 . S
N1637 C1640 1.279 . S
C1638 C1636 1.353 . S
C1638 C1641 1.348 . S
C1638 H1670 0.929 . S
C1639 C1640 1.358 . S
C1639 C1641 1.356 . S
C1639 H1671 0.930 . S
C1640 N1637 1.279 . S
C1640 C1639 1.358 . S
C1640 H1643 0.930 . S
C1641 C1638 1.348 . S
C1641 C1639 1.356 . S
H1642 C1636 0.930 . S
H1643 C1640 0.930 . S
O1644 Li1584 1.956 . S
O1644 Li1585 1.970 . S
O1644 Li1586 1.961 . S
O1644 C1588 1.325 . S
O1645 Li1584 1.970 . S
O1645 Li1585 1.956 . S
O1645 Li1587 1.961 . S
O1645 C1594 1.325 . S
O1646 Li1584 1.961 . S
O1646 Li1586 1.956 . S
O1646 Li1587 1.970 . S
O1646 C1616 1.325 . S
O1647 Li1585 1.961 . S
O1647 Li1586 1.970 . S
O1647 Li1587 1.956 . S
O1647 C1622 1.325 . S
H1648 C1590 0.929 . S
H1649 C1591 0.930 . S
H1650 C1592 0.930 . S
H1651 C1593 0.930 . S
H1652 C1595 0.930 . S
H1653 C1597 0.929 . S
H1654 C1598 0.930 . S
H1655 C1599 0.930 . S
H1656 C1602 0.930 . S
H1657 C1605 0.929 . S
H1658 C1610 0.929 . S
H1659 C1611 0.930 . S
H1660 C1618 0.929 . S
H1661 C1619 0.930 . S
H1662 C1620 0.930 . S
H1663 C1621 0.930 . S
H1664 C1623 0.929 . S
H1665 C1624 0.930 . S
H1666 C1625 0.930 . S
H1667 C1626 0.930 . S
H1668 C1630 0.929 . S
H1669 C1632 0.930 . S
H1670 C1638 0.929 . S
H1671 C1639 0.930 . S
Li1672 N1689 1.990 . S
Li1672 O1732 1.956 . S
Li1672 O1733 1.970 . S
Li1672 O1734 1.961 1_545 S
Li1673 N1697 1.990 . S
Li1673 O1732 1.970 . S
Li1673 O1733 1.956 . S
Li1673 O1735 1.961 . S
Li1674 N1719 1.990 . S
Li1674 O1732 1.961 . S
Li1674 O1734 1.956 1_545 S
Li1674 O1735 1.970 . S
Li1675 N1725 1.990 . S
Li1675 O1733 1.961 1_565 S
Li1675 O1734 1.970 . S
Li1675 O1735 1.956 1_565 S
C1676 C1678 1.348 . S
C1676 C1679 1.356 . S
C1676 O1732 1.325 . S
N1677 C1680 1.314 . S
N1677 C1681 1.279 . S
C1678 C1676 1.348 . S
C1678 C1680 1.353 . S
C1678 H1736 0.929 . S
C1679 C1676 1.356 . S
C1679 C1681 1.358 . S
C1679 H1737 0.930 . S
C1680 N1677 1.314 . S
C1680 C1678 1.353 . S
C1680 H1738 0.930 . S
C1681 N1677 1.279 . S
C1681 C1679 1.358 . S
C1681 H1739 0.930 . S
C1682 C1685 1.348 . S
C1682 C1686 1.356 . S
C1682 O1733 1.325 . S
C1683 N1684 1.279 . S
C1683 C1686 1.358 . S
C1683 H1740 0.930 . S
N1684 C1683 1.279 . S
N1684 C1687 1.314 . S
C1685 C1682 1.348 . S
C1685 C1687 1.353 . S
C1685 H1741 0.929 . S
C1686 C1682 1.356 . S
C1686 C1683 1.358 . S
C1686 H1742 0.930 . S
C1687 N1684 1.314 . S
C1687 C1685 1.353 . S
C1687 H1743 0.930 . S
C1688 N1689 1.314 1_565 S
C1688 C1693 1.353 . S
C1688 H1694 0.930 . S
N1689 Li1672 1.990 . S
N1689 C1688 1.314 1_545 S
N1689 C1691 1.279 . S
C1690 C1691 1.358 . S
C1690 C1692 1.356 . S
C1690 H1744 0.930 . S
C1691 N1689 1.279 . S
C1691 C1690 1.358 . S
C1691 H1695 0.930 . S
C1692 C1690 1.356 . S
C1692 C1693 1.348 1_545 S
C1693 C1688 1.353 . S
C1693 C1692 1.348 1_565 S
C1693 H1745 0.929 . S
H1694 C1688 0.930 . S
H1695 C1691 0.930 . S
C1696 N1697 1.314 . S
C1696 C1698 1.353 . S
C1696 H1702 0.930 . S
N1697 Li1673 1.990 . S
N1697 C1696 1.314 . S
N1697 C1700 1.279 . S
C1698 C1696 1.353 . S
C1698 C1701 1.348 . S
C1698 H1746 0.929 . S
C1699 C1700 1.358 . S
C1699 C1701 1.356 . S
C1699 H1747 0.930 . S
C1700 N1697 1.279 . S
C1700 C1699 1.358 . S
C1700 H1703 0.930 . S
C1701 C1698 1.348 . S
C1701 C1699 1.356 . S
H1702 C1696 0.930 . S
H1703 C1700 0.930 . S
C1704 C1706 1.348 . S
C1704 C1707 1.356 . S
C1704 O1734 1.325 . S
N1705 C1708 1.314 . S
N1705 C1709 1.279 . S
C1706 C1704 1.348 . S
C1706 C1708 1.353 . S
C1706 H1748 0.929 . S
C1707 C1704 1.356 . S
C1707 C1709 1.358 . S
C1707 H1749 0.930 . S
C1708 N1705 1.314 . S
C1708 C1706 1.353 . S
C1708 H1750 0.930 . S
C1709 N1705 1.279 . S
C1709 C1707 1.358 . S
C1709 H1751 0.930 . S
C1710 C1711 1.348 . S
C1710 C1712 1.356 . S
C1710 O1735 1.325 . S
C1711 C1710 1.348 . S
C1711 C1713 1.353 . S
C1711 H1752 0.929 . S
C1712 C1710 1.356 . S
C1712 C1714 1.358 . S
C1712 H1753 0.930 . S
C1713 C1711 1.353 . S
C1713 N1715 1.314 . S
C1713 H1754 0.930 . S
C1714 C1712 1.358 . S
C1714 N1715 1.279 . S
C1714 H1755 0.930 . S
N1715 C1713 1.314 . S
N1715 C1714 1.279 . S
C1716 C1718 1.353 . S
C1716 N1719 1.314 . S
C1716 H1722 0.930 . S
C1717 N1719 1.279 1_565 S
C1717 C1720 1.358 . S
C1717 H1723 0.930 . S
C1718 C1716 1.353 . S
C1718 C1721 1.348 . S
C1718 H1756 0.929 . S
N1719 Li1674 1.990 . S
N1719 C1716 1.314 . S
N1719 C1717 1.279 1_545 S
C1720 C1717 1.358 . S
C1720 C1721 1.356 1_565 S
C1720 H1757 0.930 . S
C1721 C1718 1.348 . S
C1721 C1720 1.356 1_545 S
H1722 C1716 0.930 . S
H1723 C1717 0.930 . S
C1724 N1725 1.314 . S
C1724 C1726 1.353 . S
C1724 H1730 0.930 . S
N1725 Li1675 1.990 . S
N1725 C1724 1.314 . S
N1725 C1728 1.279 . S
C1726 C1724 1.353 . S
C1726 C1729 1.348 . S
C1726 H1758 0.929 . S
C1727 C1728 1.358 . S
C1727 C1729 1.356 . S
C1727 H1759 0.930 . S
C1728 N1725 1.279 . S
C1728 C1727 1.358 . S
C1728 H1731 0.930 . S
C1729 C1726 1.348 . S
C1729 C1727 1.356 . S
H1730 C1724 0.930 . S
H1731 C1728 0.930 . S
O1732 Li1672 1.956 . S
O1732 Li1673 1.970 . S
O1732 Li1674 1.961 . S
O1732 C1676 1.325 . S
O1733 Li1672 1.970 . S
O1733 Li1673 1.956 . S
O1733 Li1675 1.961 1_545 S
O1733 C1682 1.325 . S
O1734 Li1672 1.961 1_565 S
O1734 Li1674 1.956 1_565 S
O1734 Li1675 1.970 . S
O1734 C1704 1.325 . S
O1735 Li1673 1.961 . S
O1735 Li1674 1.970 . S
O1735 Li1675 1.956 1_545 S
O1735 C1710 1.325 . S
H1736 C1678 0.929 . S
H1737 C1679 0.930 . S
H1738 C1680 0.930 . S
H1739 C1681 0.930 . S
H1740 C1683 0.930 . S
H1741 C1685 0.929 . S
H1742 C1686 0.930 . S
H1743 C1687 0.930 . S
H1744 C1690 0.930 . S
H1745 C1693 0.929 . S
H1746 C1698 0.929 . S
H1747 C1699 0.930 . S
H1748 C1706 0.929 . S
H1749 C1707 0.930 . S
H1750 C1708 0.930 . S
H1751 C1709 0.930 . S
H1752 C1711 0.929 . S
H1753 C1712 0.930 . S
H1754 C1713 0.930 . S
H1755 C1714 0.930 . S
H1756 C1718 0.929 . S
H1757 C1720 0.930 . S
H1758 C1726 0.929 . S
H1759 C1727 0.930 . S
Li1760 N1777 1.990 . S
Li1760 O1820 1.956 . S
Li1760 O1821 1.970 . S
Li1760 O1822 1.961 . S
Li1761 N1785 1.990 . S
Li1761 O1820 1.970 . S
Li1761 O1821 1.956 . S
Li1761 O1823 1.961 1_554 S
Li1762 N1807 1.990 . S
Li1762 O1820 1.961 1_556 S
Li1762 O1822 1.956 1_556 S
Li1762 O1823 1.970 . S
Li1763 N1813 1.990 . S
Li1763 O1821 1.961 . S
Li1763 O1822 1.970 . S
Li1763 O1823 1.956 1_554 S
C1764 C1766 1.348 . S
C1764 C1767 1.356 . S
C1764 O1820 1.325 . S
N1765 C1768 1.314 . S
N1765 C1769 1.279 . S
C1766 C1764 1.348 . S
C1766 C1768 1.353 . S
C1766 H1824 0.929 . S
C1767 C1764 1.356 . S
C1767 C1769 1.358 . S
C1767 H1825 0.930 . S
C1768 N1765 1.314 . S
C1768 C1766 1.353 . S
C1768 H1826 0.930 . S
C1769 N1765 1.279 . S
C1769 C1767 1.358 . S
C1769 H1827 0.930 . S
C1770 C1773 1.348 . S
C1770 C1774 1.356 . S
C1770 O1821 1.325 . S
C1771 N1772 1.279 . S
C1771 C1774 1.358 . S
C1771 H1828 0.930 . S
N1772 C1771 1.279 . S
N1772 C1775 1.314 . S
C1773 C1770 1.348 . S
C1773 C1775 1.353 . S
C1773 H1829 0.929 . S
C1774 C1770 1.356 . S
C1774 C1771 1.358 . S
C1774 H1830 0.930 . S
C1775 N1772 1.314 . S
C1775 C1773 1.353 . S
C1775 H1831 0.930 . S
C1776 N1777 1.314 . S
C1776 C1781 1.353 . S
C1776 H1782 0.930 . S
N1777 Li1760 1.990 . S
N1777 C1776 1.314 . S
N1777 C1779 1.279 . S
C1778 C1779 1.358 . S
C1778 C1780 1.356 . S
C1778 H1832 0.930 . S
C1779 N1777 1.279 . S
C1779 C1778 1.358 . S
C1779 H1783 0.930 . S
C1780 C1778 1.356 . S
C1780 C1781 1.348 . S
C1781 C1776 1.353 . S
C1781 C1780 1.348 . S
C1781 H1833 0.929 . S
H1782 C1776 0.930 . S
H1783 C1779 0.930 . S
C1784 N1785 1.314 1_556 S
C1784 C1786 1.353 . S
C1784 H1790 0.930 . S
N1785 Li1761 1.990 . S
N1785 C1784 1.314 1_554 S
N1785 C1788 1.279 . S
C1786 C1784 1.353 . S
C1786 C1789 1.348 1_556 S
C1786 H1834 0.929 . S
C1787 C1788 1.358 . S
C1787 C1789 1.356 . S
C1787 H1835 0.930 . S
C1788 N1785 1.279 . S
C1788 C1787 1.358 . S
C1788 H1791 0.930 . S
C1789 C1786 1.348 1_554 S
C1789 C1787 1.356 . S
H1790 C1784 0.930 . S
H1791 C1788 0.930 . S
C1792 C1794 1.348 1_554 S
C1792 C1795 1.356 . S
C1792 O1822 1.325 . S
N1793 C1796 1.314 1_554 S
N1793 C1797 1.279 . S
C1794 C1792 1.348 1_556 S
C1794 C1796 1.353 . S
C1794 H1836 0.929 . S
C1795 C1792 1.356 . S
C1795 C1797 1.358 . S
C1795 H1837 0.930 . S
C1796 N1793 1.314 1_556 S
C1796 C1794 1.353 . S
C1796 H1838 0.930 . S
C1797 N1793 1.279 . S
C1797 C1795 1.358 . S
C1797 H1839 0.930 . S
C1798 C1799 1.348 . S
C1798 C1800 1.356 . S
C1798 O1823 1.325 . S
C1799 C1798 1.348 . S
C1799 C1801 1.353 . S
C1799 H1840 0.929 . S
C1800 C1798 1.356 . S
C1800 C1802 1.358 . S
C1800 H1841 0.930 . S
C1801 C1799 1.353 . S
C1801 N1803 1.314 . S
C1801 H1842 0.930 . S
C1802 C1800 1.358 . S
C1802 N1803 1.279 . S
C1802 H1843 0.930 . S
N1803 C1801 1.314 . S
N1803 C1802 1.279 . S
C1804 C1806 1.353 . S
C1804 N1807 1.314 . S
C1804 H1810 0.930 . S
C1805 N1807 1.279 . S
C1805 C1808 1.358 . S
C1805 H1811 0.930 . S
C1806 C1804 1.353 . S
C1806 C1809 1.348 . S
C1806 H1844 0.929 . S
N1807 Li1762 1.990 . S
N1807 C1804 1.314 . S
N1807 C1805 1.279 . S
C1808 C1805 1.358 . S
C1808 C1809 1.356 . S
C1808 H1845 0.930 . S
C1809 C1806 1.348 . S
C1809 C1808 1.356 . S
H1810 C1804 0.930 . S
H1811 C1805 0.930 . S
C1812 N1813 1.327 . S
C1812 C1814 1.353 . S
C1812 H1818 0.930 . S
N1813 Li1763 1.990 . S
N1813 C1812 1.327 . S
N1813 C1816 1.267 1_554 S
C1814 C1812 1.353 . S
C1814 C1817 1.348 1_554 S
C1814 H1846 0.929 . S
C1815 C1816 1.358 . S
C1815 C1817 1.356 . S
C1815 H1847 0.930 . S
C1816 N1813 1.267 1_556 S
C1816 C1815 1.358 . S
C1816 H1819 0.930 . S
C1817 C1814 1.348 1_556 S
C1817 C1815 1.356 . S
H1818 C1812 0.930 . S
H1819 C1816 0.930 . S
O1820 Li1760 1.956 . S
O1820 Li1761 1.970 . S
O1820 Li1762 1.961 1_554 S
O1820 C1764 1.325 . S
O1821 Li1760 1.970 . S
O1821 Li1761 1.956 . S
O1821 Li1763 1.961 . S
O1821 C1770 1.325 . S
O1822 Li1760 1.961 . S
O1822 Li1762 1.956 1_554 S
O1822 Li1763 1.970 . S
O1822 C1792 1.325 . S
O1823 Li1761 1.961 1_556 S
O1823 Li1762 1.970 . S
O1823 Li1763 1.956 1_556 S
O1823 C1798 1.325 . S
H1824 C1766 0.929 . S
H1825 C1767 0.930 . S
H1826 C1768 0.930 . S
H1827 C1769 0.930 . S
H1828 C1771 0.930 . S
H1829 C1773 0.929 . S
H1830 C1774 0.930 . S
H1831 C1775 0.930 . S
H1832 C1778 0.930 . S
H1833 C1781 0.929 . S
H1834 C1786 0.929 . S
H1835 C1787 0.930 . S
H1836 C1794 0.929 . S
H1837 C1795 0.930 . S
H1838 C1796 0.930 . S
H1839 C1797 0.930 . S
H1840 C1799 0.929 . S
H1841 C1800 0.930 . S
H1842 C1801 0.930 . S
H1843 C1802 0.930 . S
H1844 C1806 0.929 . S
H1845 C1808 0.930 . S
H1846 C1814 0.929 . S
H1847 C1815 0.930 . S
Li1848 N1865 1.990 . S
Li1848 O1908 1.956 . S
Li1848 O1909 1.970 . S
Li1848 O1910 1.961 . S
Li1849 N1873 1.990 . S
Li1849 O1908 1.970 . S
Li1849 O1909 1.956 . S
Li1849 O1911 1.961 . S
Li1850 N1895 1.990 . S
Li1850 O1908 1.961 . S
Li1850 O1910 1.956 . S
Li1850 O1911 1.970 . S
Li1851 N1901 1.990 . S
Li1851 O1909 1.961 . S
Li1851 O1910 1.970 . S
Li1851 O1911 1.956 . S
C1852 C1854 1.348 . S
C1852 C1855 1.356 . S
C1852 O1908 1.325 . S
N1853 C1856 1.314 . S
N1853 C1857 1.279 . S
C1854 C1852 1.348 . S
C1854 C1856 1.353 . S
C1854 H1912 0.929 . S
C1855 C1852 1.356 . S
C1855 C1857 1.358 . S
C1855 H1913 0.930 . S
C1856 N1853 1.314 . S
C1856 C1854 1.353 . S
C1856 H1914 0.930 . S
C1857 N1853 1.279 . S
C1857 C1855 1.358 . S
C1857 H1915 0.930 . S
C1858 C1861 1.348 . S
C1858 C1862 1.356 . S
C1858 O1909 1.325 . S
C1859 N1860 1.279 . S
C1859 C1862 1.358 . S
C1859 H1916 0.930 . S
N1860 C1859 1.279 . S
N1860 C1863 1.314 . S
C1861 C1858 1.348 . S
C1861 C1863 1.353 . S
C1861 H1917 0.929 . S
C1862 C1858 1.356 . S
C1862 C1859 1.358 . S
C1862 H1918 0.930 . S
C1863 N1860 1.314 . S
C1863 C1861 1.353 . S
C1863 H1919 0.930 . S
C1864 N1865 1.314 . S
C1864 C1869 1.353 . S
C1864 H1870 0.930 . S
N1865 Li1848 1.990 . S
N1865 C1864 1.314 . S
N1865 C1867 1.279 . S
C1866 C1867 1.358 . S
C1866 C1868 1.356 . S
C1866 H1920 0.930 . S
C1867 N1865 1.279 . S
C1867 C1866 1.358 . S
C1867 H1871 0.930 . S
C1868 C1866 1.356 . S
C1868 C1869 1.348 . S
C1869 C1864 1.353 . S
C1869 C1868 1.348 . S
C1869 H1921 0.929 . S
H1870 C1864 0.930 . S
H1871 C1867 0.930 . S
C1872 N1873 1.314 . S
C1872 C1874 1.353 . S
C1872 H1878 0.930 . S
N1873 Li1849 1.990 . S
N1873 C1872 1.314 . S
N1873 C1876 1.279 . S
C1874 C1872 1.353 . S
C1874 C1877 1.348 . S
C1874 H1922 0.929 . S
C1875 C1876 1.358 . S
C1875 C1877 1.356 . S
C1875 H1923 0.930 . S
C1876 N1873 1.279 . S
C1876 C1875 1.358 . S
C1876 H1879 0.930 . S
C1877 C1874 1.348 . S
C1877 C1875 1.356 . S
H1878 C1872 0.930 . S
H1879 C1876 0.930 . S
C1880 C1882 1.348 . S
C1880 C1883 1.356 . S
C1880 O1910 1.325 . S
N1881 C1884 1.314 . S
N1881 C1885 1.279 . S
C1882 C1880 1.348 . S
C1882 C1884 1.353 . S
C1882 H1924 0.929 . S
C1883 C1880 1.356 . S
C1883 C1885 1.358 . S
C1883 H1925 0.930 . S
C1884 N1881 1.314 . S
C1884 C1882 1.353 . S
C1884 H1926 0.930 . S
C1885 N1881 1.279 . S
C1885 C1883 1.358 . S
C1885 H1927 0.930 . S
C1886 C1887 1.348 . S
C1886 C1888 1.356 . S
C1886 O1911 1.325 . S
C1887 C1886 1.348 . S
C1887 C1889 1.353 . S
C1887 H1928 0.929 . S
C1888 C1886 1.356 . S
C1888 C1890 1.358 . S
C1888 H1929 0.930 . S
C1889 C1887 1.353 . S
C1889 N1891 1.314 . S
C1889 H1930 0.930 . S
C1890 C1888 1.358 . S
C1890 N1891 1.279 . S
C1890 H1931 0.930 . S
N1891 C1889 1.314 . S
N1891 C1890 1.279 . S
C1892 C1894 1.353 . S
C1892 N1895 1.314 . S
C1892 H1898 0.930 . S
C1893 N1895 1.279 . S
C1893 C1896 1.358 . S
C1893 H1899 0.930 . S
C1894 C1892 1.353 . S
C1894 C1897 1.348 . S
C1894 H1932 0.929 . S
N1895 Li1850 1.990 . S
N1895 C1892 1.314 . S
N1895 C1893 1.279 . S
C1896 C1893 1.358 . S
C1896 C1897 1.356 . S
C1896 H1933 0.930 . S
C1897 C1894 1.348 . S
C1897 C1896 1.356 . S
H1898 C1892 0.930 . S
H1899 C1893 0.930 . S
C1900 N1901 1.314 . S
C1900 C1902 1.353 . S
C1900 H1906 0.930 . S
N1901 Li1851 1.990 . S
N1901 C1900 1.314 . S
N1901 C1904 1.279 . S
C1902 C1900 1.353 . S
C1902 C1905 1.348 . S
C1902 H1934 0.929 . S
C1903 C1904 1.358 . S
C1903 C1905 1.356 . S
C1903 H1935 0.930 . S
C1904 N1901 1.279 . S
C1904 C1903 1.358 . S
C1904 H1907 0.930 . S
C1905 C1902 1.348 . S
C1905 C1903 1.356 . S
H1906 C1900 0.930 . S
H1907 C1904 0.930 . S
O1908 Li1848 1.956 . S
O1908 Li1849 1.970 . S
O1908 Li1850 1.961 . S
O1908 C1852 1.325 . S
O1909 Li1848 1.970 . S
O1909 Li1849 1.956 . S
O1909 Li1851 1.961 . S
O1909 C1858 1.325 . S
O1910 Li1848 1.961 . S
O1910 Li1850 1.956 . S
O1910 Li1851 1.970 . S
O1910 C1880 1.325 . S
O1911 Li1849 1.961 . S
O1911 Li1850 1.970 . S
O1911 Li1851 1.956 . S
O1911 C1886 1.325 . S
H1912 C1854 0.929 . S
H1913 C1855 0.930 . S
H1914 C1856 0.930 . S
H1915 C1857 0.930 . S
H1916 C1859 0.930 . S
H1917 C1861 0.929 . S
H1918 C1862 0.930 . S
H1919 C1863 0.930 . S
H1920 C1866 0.930 . S
H1921 C1869 0.929 . S
H1922 C1874 0.929 . S
H1923 C1875 0.930 . S
H1924 C1882 0.929 . S
H1925 C1883 0.930 . S
H1926 C1884 0.930 . S
H1927 C1885 0.930 . S
H1928 C1887 0.929 . S
H1929 C1888 0.930 . S
H1930 C1889 0.930 . S
H1931 C1890 0.930 . S
H1932 C1894 0.929 . S
H1933 C1896 0.930 . S
H1934 C1902 0.929 . S
H1935 C1903 0.930 . S
Li1936 N1953 1.990 . S
Li1936 O1996 1.956 . S
Li1936 O1997 1.970 . S
Li1936 O1998 1.961 . S
Li1937 N1961 1.990 . S
Li1937 O1996 1.970 . S
Li1937 O1997 1.956 . S
Li1937 O1999 1.961 . S
Li1938 N1983 1.990 . S
Li1938 O1996 1.961 . S
Li1938 O1998 1.956 . S
Li1938 O1999 1.970 . S
Li1939 N1989 1.990 . S
Li1939 O1997 1.961 . S
Li1939 O1998 1.970 . S
Li1939 O1999 1.956 . S
C1940 C1942 1.348 . S
C1940 C1943 1.356 . S
C1940 O1996 1.325 . S
N1941 C1944 1.314 . S
N1941 C1945 1.279 . S
C1942 C1940 1.348 . S
C1942 C1944 1.353 . S
C1942 H2000 0.929 . S
C1943 C1940 1.356 . S
C1943 C1945 1.358 . S
C1943 H2001 0.930 . S
C1944 N1941 1.314 . S
C1944 C1942 1.353 . S
C1944 H2002 0.930 . S
C1945 N1941 1.279 . S
C1945 C1943 1.358 . S
C1945 H2003 0.930 . S
C1946 C1949 1.348 . S
C1946 C1950 1.356 . S
C1946 O1997 1.325 . S
C1947 N1948 1.279 . S
C1947 C1950 1.358 . S
C1947 H2004 0.930 . S
N1948 C1947 1.279 . S
N1948 C1951 1.314 . S
C1949 C1946 1.348 . S
C1949 C1951 1.353 . S
C1949 H2005 0.929 . S
C1950 C1946 1.356 . S
C1950 C1947 1.358 . S
C1950 H2006 0.930 . S
C1951 N1948 1.314 . S
C1951 C1949 1.353 . S
C1951 H2007 0.930 . S
C1952 N1953 1.314 . S
C1952 C1957 1.353 . S
C1952 H1958 0.930 . S
N1953 Li1936 1.990 . S
N1953 C1952 1.314 . S
N1953 C1955 1.279 . S
C1954 C1955 1.358 . S
C1954 C1956 1.356 . S
C1954 H2008 0.930 . S
C1955 N1953 1.279 . S
C1955 C1954 1.358 . S
C1955 H1959 0.930 . S
C1956 C1954 1.356 . S
C1956 C1957 1.348 . S
C1957 C1952 1.353 . S
C1957 C1956 1.348 . S
C1957 H2009 0.929 . S
H1958 C1952 0.930 . S
H1959 C1955 0.930 . S
C1960 N1961 1.314 . S
C1960 C1962 1.353 . S
C1960 H1966 0.930 . S
N1961 Li1937 1.990 . S
N1961 C1960 1.314 . S
N1961 C1964 1.279 . S
C1962 C1960 1.353 . S
C1962 C1965 1.348 . S
C1962 H2010 0.929 . S
C1963 C1964 1.358 . S
C1963 C1965 1.356 . S
C1963 H2011 0.930 . S
C1964 N1961 1.279 . S
C1964 C1963 1.358 . S
C1964 H1967 0.930 . S
C1965 C1962 1.348 . S
C1965 C1963 1.356 . S
H1966 C1960 0.930 . S
H1967 C1964 0.930 . S
C1968 C1970 1.348 . S
C1968 C1971 1.356 . S
C1968 O1998 1.325 . S
N1969 C1972 1.314 . S
N1969 C1973 1.279 . S
C1970 C1968 1.348 . S
C1970 C1972 1.353 . S
C1970 H2012 0.929 . S
C1971 C1968 1.356 . S
C1971 C1973 1.358 . S
C1971 H2013 0.930 . S
C1972 N1969 1.314 . S
C1972 C1970 1.353 . S
C1972 H2014 0.930 . S
C1973 N1969 1.279 . S
C1973 C1971 1.358 . S
C1973 H2015 0.930 . S
C1974 C1975 1.348 . S
C1974 C1976 1.356 . S
C1974 O1999 1.325 . S
C1975 C1974 1.348 . S
C1975 C1977 1.353 . S
C1975 H2016 0.929 . S
C1976 C1974 1.356 . S
C1976 C1978 1.358 . S
C1976 H2017 0.930 . S
C1977 C1975 1.353 . S
C1977 N1979 1.314 . S
C1977 H2018 0.930 . S
C1978 C1976 1.358 . S
C1978 N1979 1.279 . S
C1978 H2019 0.930 . S
N1979 C1977 1.314 . S
N1979 C1978 1.279 . S
C1980 C1982 1.353 . S
C1980 N1983 1.314 . S
C1980 H1986 0.930 . S
C1981 N1983 1.279 . S
C1981 C1984 1.358 . S
C1981 H1987 0.930 . S
C1982 C1980 1.353 . S
C1982 C1985 1.348 . S
C1982 H2020 0.929 . S
N1983 Li1938 1.990 . S
N1983 C1980 1.314 . S
N1983 C1981 1.279 . S
C1984 C1981 1.358 . S
C1984 C1985 1.356 . S
C1984 H2021 0.930 . S
C1985 C1982 1.348 . S
C1985 C1984 1.356 . S
H1986 C1980 0.930 . S
H1987 C1981 0.930 . S
C1988 N1989 1.314 . S
C1988 C1990 1.353 . S
C1988 H1994 0.930 . S
N1989 Li1939 1.990 . S
N1989 C1988 1.314 . S
N1989 C1992 1.279 . S
C1990 C1988 1.353 . S
C1990 C1993 1.348 . S
C1990 H2022 0.929 . S
C1991 C1992 1.358 . S
C1991 C1993 1.356 . S
C1991 H2023 0.930 . S
C1992 N1989 1.279 . S
C1992 C1991 1.358 . S
C1992 H1995 0.930 . S
C1993 C1990 1.348 . S
C1993 C1991 1.356 . S
H1994 C1988 0.930 . S
H1995 C1992 0.930 . S
O1996 Li1936 1.956 . S
O1996 Li1937 1.970 . S
O1996 Li1938 1.961 . S
O1996 C1940 1.325 . S
O1997 Li1936 1.970 . S
O1997 Li1937 1.956 . S
O1997 Li1939 1.961 . S
O1997 C1946 1.325 . S
O1998 Li1936 1.961 . S
O1998 Li1938 1.956 . S
O1998 Li1939 1.970 . S
O1998 C1968 1.325 . S
O1999 Li1937 1.961 . S
O1999 Li1938 1.970 . S
O1999 Li1939 1.956 . S
O1999 C1974 1.325 . S
H2000 C1942 0.929 . S
H2001 C1943 0.930 . S
H2002 C1944 0.930 . S
H2003 C1945 0.930 . S
H2004 C1947 0.930 . S
H2005 C1949 0.929 . S
H2006 C1950 0.930 . S
H2007 C1951 0.930 . S
H2008 C1954 0.930 . S
H2009 C1957 0.929 . S
H2010 C1962 0.929 . S
H2011 C1963 0.930 . S
H2012 C1970 0.929 . S
H2013 C1971 0.930 . S
H2014 C1972 0.930 . S
H2015 C1973 0.930 . S
H2016 C1975 0.929 . S
H2017 C1976 0.930 . S
H2018 C1977 0.930 . S
H2019 C1978 0.930 . S
H2020 C1982 0.929 . S
H2021 C1984 0.930 . S
H2022 C1990 0.929 . S
H2023 C1991 0.930 . S
Li2024 N2041 1.990 . S
Li2024 O2084 1.956 . S
Li2024 O2085 1.970 . S
Li2024 O2086 1.961 . S
Li2025 N2049 1.990 . S
Li2025 O2084 1.970 . S
Li2025 O2085 1.956 . S
Li2025 O2087 1.961 . S
Li2026 N2071 1.990 . S
Li2026 O2084 1.961 . S
Li2026 O2086 1.956 . S
Li2026 O2087 1.970 . S
Li2027 N2077 1.990 . S
Li2027 O2085 1.961 . S
Li2027 O2086 1.970 . S
Li2027 O2087 1.956 . S
C2028 C2030 1.348 . S
C2028 C2031 1.356 . S
C2028 O2084 1.325 . S
N2029 C2032 1.314 . S
N2029 C2033 1.279 . S
C2030 C2028 1.348 . S
C2030 C2032 1.353 . S
C2030 H2088 0.929 . S
C2031 C2028 1.356 . S
C2031 C2033 1.358 . S
C2031 H2089 0.930 . S
C2032 N2029 1.314 . S
C2032 C2030 1.353 . S
C2032 H2090 0.930 . S
C2033 N2029 1.279 . S
C2033 C2031 1.358 . S
C2033 H2091 0.930 . S
C2034 C2037 1.348 . S
C2034 C2038 1.356 . S
C2034 O2085 1.325 . S
C2035 N2036 1.279 . S
C2035 C2038 1.358 . S
C2035 H2092 0.930 . S
N2036 C2035 1.279 . S
N2036 C2039 1.314 . S
C2037 C2034 1.348 . S
C2037 C2039 1.353 . S
C2037 H2093 0.929 . S
C2038 C2034 1.356 . S
C2038 C2035 1.358 . S
C2038 H2094 0.930 . S
C2039 N2036 1.314 . S
C2039 C2037 1.353 . S
C2039 H2095 0.930 . S
C2040 N2041 1.314 . S
C2040 C2045 1.353 . S
C2040 H2046 0.930 . S
N2041 Li2024 1.990 . S
N2041 C2040 1.314 . S
N2041 C2043 1.279 . S
C2042 C2043 1.358 . S
C2042 C2044 1.356 . S
C2042 H2096 0.930 . S
C2043 N2041 1.279 . S
C2043 C2042 1.358 . S
C2043 H2047 0.930 . S
C2044 C2042 1.356 . S
C2044 C2045 1.348 . S
C2045 C2040 1.353 . S
C2045 C2044 1.348 . S
C2045 H2097 0.929 . S
H2046 C2040 0.930 . S
H2047 C2043 0.930 . S
C2048 N2049 1.314 . S
C2048 C2050 1.353 . S
C2048 H2054 0.930 . S
N2049 Li2025 1.990 . S
N2049 C2048 1.314 . S
N2049 C2052 1.279 . S
C2050 C2048 1.353 . S
C2050 C2053 1.348 . S
C2050 H2098 0.929 . S
C2051 C2052 1.358 . S
C2051 C2053 1.356 . S
C2051 H2099 0.930 . S
C2052 N2049 1.279 . S
C2052 C2051 1.358 . S
C2052 H2055 0.930 . S
C2053 C2050 1.348 . S
C2053 C2051 1.356 . S
H2054 C2048 0.930 . S
H2055 C2052 0.930 . S
C2056 C2058 1.348 . S
C2056 C2059 1.356 . S
C2056 O2086 1.325 . S
N2057 C2060 1.314 . S
N2057 C2061 1.279 . S
C2058 C2056 1.348 . S
C2058 C2060 1.353 . S
C2058 H2100 0.929 . S
C2059 C2056 1.356 . S
C2059 C2061 1.358 . S
C2059 H2101 0.930 . S
C2060 N2057 1.314 . S
C2060 C2058 1.353 . S
C2060 H2102 0.930 . S
C2061 N2057 1.279 . S
C2061 C2059 1.358 . S
C2061 H2103 0.930 . S
C2062 C2063 1.348 . S
C2062 C2064 1.356 . S
C2062 O2087 1.325 . S
C2063 C2062 1.348 . S
C2063 C2065 1.353 . S
C2063 H2104 0.929 . S
C2064 C2062 1.356 . S
C2064 C2066 1.358 . S
C2064 H2105 0.930 . S
C2065 C2063 1.353 . S
C2065 N2067 1.314 . S
C2065 H2106 0.930 . S
C2066 C2064 1.358 . S
C2066 N2067 1.279 . S
C2066 H2107 0.930 . S
N2067 C2065 1.314 . S
N2067 C2066 1.279 . S
C2068 C2070 1.353 . S
C2068 N2071 1.314 . S
C2068 H2074 0.930 . S
C2069 N2071 1.279 . S
C2069 C2072 1.358 . S
C2069 H2075 0.930 . S
C2070 C2068 1.353 . S
C2070 C2073 1.348 . S
C2070 H2108 0.929 . S
N2071 Li2026 1.990 . S
N2071 C2068 1.314 . S
N2071 C2069 1.279 . S
C2072 C2069 1.358 . S
C2072 C2073 1.356 . S
C2072 H2109 0.930 . S
C2073 C2070 1.348 . S
C2073 C2072 1.356 . S
H2074 C2068 0.930 . S
H2075 C2069 0.930 . S
C2076 N2077 1.314 . S
C2076 C2078 1.353 . S
C2076 H2082 0.930 . S
N2077 Li2027 1.990 . S
N2077 C2076 1.314 . S
N2077 C2080 1.279 . S
C2078 C2076 1.353 . S
C2078 C2081 1.348 . S
C2078 H2110 0.929 . S
C2079 C2080 1.358 . S
C2079 C2081 1.356 . S
C2079 H2111 0.930 . S
C2080 N2077 1.279 . S
C2080 C2079 1.358 . S
C2080 H2083 0.930 . S
C2081 C2078 1.348 . S
C2081 C2079 1.356 . S
H2082 C2076 0.930 . S
H2083 C2080 0.930 . S
O2084 Li2024 1.956 . S
O2084 Li2025 1.970 . S
O2084 Li2026 1.961 . S
O2084 C2028 1.325 . S
O2085 Li2024 1.970 . S
O2085 Li2025 1.956 . S
O2085 Li2027 1.961 . S
O2085 C2034 1.325 . S
O2086 Li2024 1.961 . S
O2086 Li2026 1.956 . S
O2086 Li2027 1.970 . S
O2086 C2056 1.325 . S
O2087 Li2025 1.961 . S
O2087 Li2026 1.970 . S
O2087 Li2027 1.956 . S
O2087 C2062 1.325 . S
H2088 C2030 0.929 . S
H2089 C2031 0.930 . S
H2090 C2032 0.930 . S
H2091 C2033 0.930 . S
H2092 C2035 0.930 . S
H2093 C2037 0.929 . S
H2094 C2038 0.930 . S
H2095 C2039 0.930 . S
H2096 C2042 0.930 . S
H2097 C2045 0.929 . S
H2098 C2050 0.929 . S
H2099 C2051 0.930 . S
H2100 C2058 0.929 . S
H2101 C2059 0.930 . S
H2102 C2060 0.930 . S
H2103 C2061 0.930 . S
H2104 C2063 0.929 . S
H2105 C2064 0.930 . S
H2106 C2065 0.930 . S
H2107 C2066 0.930 . S
H2108 C2070 0.929 . S
H2109 C2072 0.930 . S
H2110 C2078 0.929 . S
H2111 C2079 0.930 . S
Tb2112 O2115 2.453 . S
Tb2112 O2116 2.596 . S
Tb2112 O2117 2.374 1_554 S
Tb2112 O2125 2.343 1_455 S
Tb2112 O2127 2.353 . S
Tb2112 O2129 2.427 . S
Tb2112 O2130 2.513 1_554 S
C2113 O2117 1.251 . S
C2113 O2119 1.263 . S
Tb2114 O2116 2.343 1_655 S
Tb2114 O2119 2.353 1_654 S
Tb2114 O2122 2.427 1_645 S
Tb2114 O2123 2.513 1_645 S
Tb2114 O2124 2.454 1_554 S
Tb2114 O2125 2.596 . S
Tb2114 O2126 2.374 . S
O2115 Tb2112 2.453 . S
O2115 C2131 1.245 . S
O2116 Tb2112 2.596 . S
O2116 Tb2114 2.343 1_455 S
O2116 C2131 1.259 . S
O2117 Tb2112 2.374 1_556 S
O2117 C2113 1.251 . S
C2118 O2122 1.275 . S
C2118 O2123 1.246 . S
O2119 C2113 1.263 . S
O2119 Tb2114 2.353 1_456 S
C2120 O2124 1.245 1_554 S
C2120 O2125 1.259 . S
C2121 O2126 1.250 . S
C2121 O2127 1.263 1_655 S
O2122 Tb2114 2.427 1_465 S
O2122 C2118 1.275 . S
O2123 Tb2114 2.513 1_465 S
O2123 C2118 1.246 . S
O2124 Tb2114 2.454 1_556 S
O2124 C2120 1.245 1_556 S
O2125 Tb2112 2.343 1_655 S
O2125 Tb2114 2.596 . S
O2125 C2120 1.259 . S
O2126 Tb2114 2.374 . S
O2126 C2121 1.250 . S
O2127 Tb2112 2.353 . S
O2127 C2121 1.263 1_455 S
C2128 O2129 1.275 . S
C2128 O2130 1.246 1_554 S
O2129 Tb2112 2.427 . S
O2129 C2128 1.275 . S
O2130 Tb2112 2.513 1_556 S
O2130 C2128 1.246 1_556 S
C2131 O2115 1.245 . S
C2131 O2116 1.259 . S
Tb2132 O2135 2.453 . S
Tb2132 O2136 2.596 . S
Tb2132 O2137 2.374 . S
Tb2132 O2145 2.343 . S
Tb2132 O2147 2.353 . S
Tb2132 O2149 2.427 . S
Tb2132 O2150 2.513 . S
C2133 O2137 1.251 . S
C2133 O2139 1.263 . S
Tb2134 O2136 2.343 . S
Tb2134 O2139 2.353 . S
Tb2134 O2142 2.427 . S
Tb2134 O2143 2.513 . S
Tb2134 O2144 2.453 . S
Tb2134 O2145 2.596 . S
Tb2134 O2146 2.374 . S
O2135 Tb2132 2.453 . S
O2135 C2151 1.245 . S
O2136 Tb2132 2.596 . S
O2136 Tb2134 2.343 . S
O2136 C2151 1.259 . S
O2137 Tb2132 2.374 . S
O2137 C2133 1.251 . S
C2138 O2142 1.275 . S
C2138 O2143 1.246 . S
O2139 C2133 1.263 . S
O2139 Tb2134 2.353 . S
C2140 O2144 1.245 . S
C2140 O2145 1.259 . S
C2141 O2146 1.250 . S
C2141 O2147 1.263 . S
O2142 Tb2134 2.427 . S
O2142 C2138 1.275 . S
O2143 Tb2134 2.513 . S
O2143 C2138 1.246 . S
O2144 Tb2134 2.453 . S
O2144 C2140 1.245 . S
O2145 Tb2132 2.343 . S
O2145 Tb2134 2.596 . S
O2145 C2140 1.259 . S
O2146 Tb2134 2.374 . S
O2146 C2141 1.250 . S
O2147 Tb2132 2.353 . S
O2147 C2141 1.263 . S
C2148 O2149 1.275 . S
C2148 O2150 1.246 . S
O2149 Tb2132 2.427 . S
O2149 C2148 1.275 . S
O2150 Tb2132 2.513 . S
O2150 C2148 1.246 . S
C2151 O2135 1.245 . S
C2151 O2136 1.259 . S
Tb2152 O2155 2.453 . S
Tb2152 O2156 2.596 . S
Tb2152 O2157 2.374 . S
Tb2152 O2165 2.343 . S
Tb2152 O2167 2.353 . S
Tb2152 O2169 2.427 . S
Tb2152 O2170 2.513 . S
C2153 O2157 1.251 . S
C2153 O2159 1.263 . S
Tb2154 O2156 2.343 . S
Tb2154 O2159 2.353 . S
Tb2154 O2162 2.427 . S
Tb2154 O2163 2.513 . S
Tb2154 O2164 2.453 1_545 S
Tb2154 O2165 2.596 . S
Tb2154 O2166 2.374 . S
O2155 Tb2152 2.453 . S
O2155 C2171 1.245 . S
O2156 Tb2152 2.596 . S
O2156 Tb2154 2.343 . S
O2156 C2171 1.259 . S
O2157 Tb2152 2.374 . S
O2157 C2153 1.251 . S
C2158 O2162 1.275 . S
C2158 O2163 1.246 . S
O2159 C2153 1.263 . S
O2159 Tb2154 2.353 . S
C2160 O2164 1.245 . S
C2160 O2165 1.259 1_565 S
C2161 O2166 1.250 . S
C2161 O2167 1.263 . S
O2162 Tb2154 2.427 . S
O2162 C2158 1.275 . S
O2163 Tb2154 2.513 . S
O2163 C2158 1.246 . S
O2164 Tb2154 2.453 1_565 S
O2164 C2160 1.245 . S
O2165 Tb2152 2.343 . S
O2165 Tb2154 2.596 . S
O2165 C2160 1.259 1_545 S
O2166 Tb2154 2.374 . S
O2166 C2161 1.250 . S
O2167 Tb2152 2.353 . S
O2167 C2161 1.263 . S
C2168 O2169 1.275 . S
C2168 O2170 1.246 . S
O2169 Tb2152 2.427 . S
O2169 C2168 1.275 . S
O2170 Tb2152 2.513 . S
O2170 C2168 1.246 . S
C2171 O2155 1.245 . S
C2171 O2156 1.259 . S
Tb2172 O2175 2.453 . S
Tb2172 O2176 2.596 . S
Tb2172 O2177 2.374 . S
Tb2172 O2185 2.343 . S
Tb2172 O2187 2.353 . S
Tb2172 O2189 2.427 . S
Tb2172 O2190 2.513 . S
C2173 O2177 1.251 . S
C2173 O2179 1.263 . S
Tb2174 O2176 2.343 . S
Tb2174 O2179 2.353 . S
Tb2174 O2182 2.427 . S
Tb2174 O2183 2.513 . S
Tb2174 O2184 2.453 . S
Tb2174 O2185 2.596 . S
Tb2174 O2186 2.374 . S
O2175 Tb2172 2.453 . S
O2175 C2191 1.245 . S
O2176 Tb2172 2.596 . S
O2176 Tb2174 2.343 . S
O2176 C2191 1.259 . S
O2177 Tb2172 2.374 . S
O2177 C2173 1.251 . S
C2178 O2182 1.275 . S
C2178 O2183 1.246 . S
O2179 C2173 1.263 . S
O2179 Tb2174 2.353 . S
C2180 O2184 1.245 . S
C2180 O2185 1.259 . S
C2181 O2186 1.250 . S
C2181 O2187 1.263 . S
O2182 Tb2174 2.427 . S
O2182 C2178 1.275 . S
O2183 Tb2174 2.513 . S
O2183 C2178 1.246 . S
O2184 Tb2174 2.453 . S
O2184 C2180 1.245 . S
O2185 Tb2172 2.343 . S
O2185 Tb2174 2.596 . S
O2185 C2180 1.259 . S
O2186 Tb2174 2.374 . S
O2186 C2181 1.250 . S
O2187 Tb2172 2.353 . S
O2187 C2181 1.263 . S
C2188 O2189 1.275 . S
C2188 O2190 1.246 . S
O2189 Tb2172 2.427 . S
O2189 C2188 1.275 . S
O2190 Tb2172 2.513 . S
O2190 C2188 1.246 . S
C2191 O2175 1.245 . S
C2191 O2176 1.259 . S
Tb2192 O2195 2.453 1_545 S
Tb2192 O2196 2.596 . S
Tb2192 O2197 2.374 1_455 S
Tb2192 O2205 2.343 . S
Tb2192 O2207 2.353 . S
Tb2192 O2209 2.427 . S
Tb2192 O2210 2.513 1_455 S
C2193 O2197 1.251 . S
C2193 O2199 1.263 . S
Tb2194 O2196 2.343 . S
Tb2194 O2199 2.353 1_455 S
Tb2194 O2202 2.427 . S
Tb2194 O2203 2.513 . S
Tb2194 O2204 2.453 . S
Tb2194 O2205 2.596 . S
Tb2194 O2206 2.374 . S
O2195 Tb2192 2.453 1_565 S
O2195 C2211 1.245 . S
O2196 Tb2192 2.596 . S
O2196 Tb2194 2.343 . S
O2196 C2211 1.259 1_545 S
O2197 Tb2192 2.374 1_655 S
O2197 C2193 1.251 . S
C2198 O2202 1.275 . S
C2198 O2203 1.246 . S
O2199 C2193 1.263 . S
O2199 Tb2194 2.353 1_655 S
C2200 O2204 1.245 . S
C2200 O2205 1.259 . S
C2201 O2206 1.250 . S
C2201 O2207 1.263 . S
O2202 Tb2194 2.427 . S
O2202 C2198 1.275 . S
O2203 Tb2194 2.513 . S
O2203 C2198 1.246 . S
O2204 Tb2194 2.453 . S
O2204 C2200 1.245 . S
O2205 Tb2192 2.343 . S
O2205 Tb2194 2.596 . S
O2205 C2200 1.259 . S
O2206 Tb2194 2.374 . S
O2206 C2201 1.250 . S
O2207 Tb2192 2.353 . S
O2207 C2201 1.263 . S
C2208 O2209 1.275 1_655 S
C2208 O2210 1.246 . S
O2209 Tb2192 2.427 . S
O2209 C2208 1.275 1_455 S
O2210 Tb2192 2.513 1_655 S
O2210 C2208 1.246 . S
C2211 O2195 1.245 . S
C2211 O2196 1.259 1_565 S
Tb2212 O2215 2.453 . S
Tb2212 O2216 2.596 . S
Tb2212 O2217 2.374 . S
Tb2212 O2225 2.343 . S
Tb2212 O2227 2.353 . S
Tb2212 O2229 2.427 . S
Tb2212 O2230 2.513 . S
C2213 O2217 1.251 . S
C2213 O2219 1.263 . S
Tb2214 O2216 2.343 . S
Tb2214 O2219 2.353 . S
Tb2214 O2222 2.427 . S
Tb2214 O2223 2.513 . S
Tb2214 O2224 2.453 . S
Tb2214 O2225 2.596 . S
Tb2214 O2226 2.374 . S
O2215 Tb2212 2.453 . S
O2215 C2231 1.245 . S
O2216 Tb2212 2.596 . S
O2216 Tb2214 2.343 . S
O2216 C2231 1.259 . S
O2217 Tb2212 2.374 . S
O2217 C2213 1.251 . S
C2218 O2222 1.275 . S
C2218 O2223 1.246 . S
O2219 C2213 1.263 . S
O2219 Tb2214 2.353 . S
C2220 O2224 1.245 . S
C2220 O2225 1.259 . S
C2221 O2226 1.250 . S
C2221 O2227 1.263 . S
O2222 Tb2214 2.427 . S
O2222 C2218 1.275 . S
O2223 Tb2214 2.513 . S
O2223 C2218 1.246 . S
O2224 Tb2214 2.453 . S
O2224 C2220 1.245 . S
O2225 Tb2212 2.343 . S
O2225 Tb2214 2.596 . S
O2225 C2220 1.259 . S
O2226 Tb2214 2.374 . S
O2226 C2221 1.250 . S
O2227 Tb2212 2.353 . S
O2227 C2221 1.263 . S
C2228 O2229 1.275 . S
C2228 O2230 1.246 . S
O2229 Tb2212 2.427 . S
O2229 C2228 1.275 . S
O2230 Tb2212 2.513 . S
O2230 C2228 1.246 . S
C2231 O2215 1.245 . S
C2231 O2216 1.259 . S
Tb2232 O2235 2.453 . S
Tb2232 O2236 2.596 . S
Tb2232 O2237 2.374 1_545 S
Tb2232 O2245 2.343 1_556 S
Tb2232 O2247 2.353 1_556 S
Tb2232 O2249 2.427 1_556 S
Tb2232 O2250 2.509 1_546 S
C2233 O2237 1.251 1_554 S
C2233 O2239 1.280 . S
Tb2234 O2236 2.343 1_554 S
Tb2234 O2239 2.301 1_545 S
Tb2234 O2242 2.427 . S
Tb2234 O2243 2.513 . S
Tb2234 O2244 2.453 . S
Tb2234 O2245 2.596 . S
Tb2234 O2246 2.374 . S
O2235 Tb2232 2.453 . S
O2235 C2251 1.245 . S
O2236 Tb2232 2.596 . S
O2236 Tb2234 2.343 1_556 S
O2236 C2251 1.259 . S
O2237 Tb2232 2.374 1_565 S
O2237 C2233 1.251 1_556 S
C2238 O2242 1.275 . S
C2238 O2243 1.246 . S
O2239 C2233 1.280 . S
O2239 Tb2234 2.301 1_565 S
C2240 O2244 1.245 . S
C2240 O2245 1.259 . S
C2241 O2246 1.250 . S
C2241 O2247 1.263 . S
O2242 Tb2234 2.427 . S
O2242 C2238 1.275 . S
O2243 Tb2234 2.513 . S
O2243 C2238 1.246 . S
O2244 Tb2234 2.453 . S
O2244 C2240 1.245 . S
O2245 Tb2232 2.343 1_554 S
O2245 Tb2234 2.596 . S
O2245 C2240 1.259 . S
O2246 Tb2234 2.374 . S
O2246 C2241 1.250 . S
O2247 Tb2232 2.353 1_554 S
O2247 C2241 1.263 . S
C2248 O2249 1.275 . S
C2248 O2250 1.241 1_545 S
O2249 Tb2232 2.427 1_554 S
O2249 C2248 1.275 . S
O2250 Tb2232 2.509 1_564 S
O2250 C2248 1.241 1_565 S
C2251 O2235 1.245 . S
C2251 O2236 1.259 . S
Tb2252 O2255 2.453 . S
Tb2252 O2256 2.596 . S
Tb2252 O2257 2.374 . S
Tb2252 O2265 2.343 . S
Tb2252 O2267 2.353 . S
Tb2252 O2269 2.427 . S
Tb2252 O2270 2.513 . S
C2253 O2257 1.251 . S
C2253 O2259 1.263 . S
Tb2254 O2256 2.343 . S
Tb2254 O2259 2.353 . S
Tb2254 O2262 2.427 . S
Tb2254 O2263 2.513 . S
Tb2254 O2264 2.453 . S
Tb2254 O2265 2.596 . S
Tb2254 O2266 2.374 . S
O2255 Tb2252 2.453 . S
O2255 C2271 1.245 . S
O2256 Tb2252 2.596 . S
O2256 Tb2254 2.343 . S
O2256 C2271 1.259 . S
O2257 Tb2252 2.374 . S
O2257 C2253 1.251 . S
C2258 O2262 1.275 . S
C2258 O2263 1.246 . S
O2259 C2253 1.263 . S
O2259 Tb2254 2.353 . S
C2260 O2264 1.245 . S
C2260 O2265 1.259 . S
C2261 O2266 1.250 . S
C2261 O2267 1.263 . S
O2262 Tb2254 2.427 . S
O2262 C2258 1.275 . S
O2263 Tb2254 2.513 . S
O2263 C2258 1.246 . S
O2264 Tb2254 2.453 . S
O2264 C2260 1.245 . S
O2265 Tb2252 2.343 . S
O2265 Tb2254 2.596 . S
O2265 C2260 1.259 . S
O2266 Tb2254 2.374 . S
O2266 C2261 1.250 . S
O2267 Tb2252 2.353 . S
O2267 C2261 1.263 . S
C2268 O2269 1.275 . S
C2268 O2270 1.246 . S
O2269 Tb2252 2.427 . S
O2269 C2268 1.275 . S
O2270 Tb2252 2.513 . S
O2270 C2268 1.246 . S
C2271 O2255 1.245 . S
C2271 O2256 1.259 . S
Tb2272 O2275 2.453 1_556 S
Tb2272 O2276 2.596 1_556 S
Tb2272 O2277 2.374 1_556 S
Tb2272 O2285 2.343 1_556 S
Tb2272 O2287 2.353 . S
Tb2272 O2289 2.427 . S
Tb2272 O2290 2.513 . S
C2273 O2277 1.251 . S
C2273 O2279 1.263 . S
Tb2274 O2276 2.343 . S
Tb2274 O2279 2.353 . S
Tb2274 O2282 2.427 . S
Tb2274 O2283 2.513 . S
Tb2274 O2284 2.453 . S
Tb2274 O2285 2.596 . S
Tb2274 O2286 2.374 . S
O2275 Tb2272 2.453 1_554 S
O2275 C2291 1.245 . S
O2276 Tb2272 2.596 1_554 S
O2276 Tb2274 2.343 . S
O2276 C2291 1.259 . S
O2277 Tb2272 2.374 1_554 S
O2277 C2273 1.251 . S
C2278 O2282 1.275 . S
C2278 O2283 1.246 . S
O2279 C2273 1.263 . S
O2279 Tb2274 2.353 . S
C2280 O2284 1.245 . S
C2280 O2285 1.259 . S
C2281 O2286 1.250 . S
C2281 O2287 1.263 1_554 S
O2282 Tb2274 2.427 . S
O2282 C2278 1.275 . S
O2283 Tb2274 2.513 . S
O2283 C2278 1.246 . S
O2284 Tb2274 2.453 . S
O2284 C2280 1.245 . S
O2285 Tb2272 2.343 1_554 S
O2285 Tb2274 2.596 . S
O2285 C2280 1.259 . S
O2286 Tb2274 2.374 . S
O2286 C2281 1.250 . S
O2287 Tb2272 2.353 . S
O2287 C2281 1.263 1_556 S
C2288 O2289 1.275 . S
C2288 O2290 1.246 . S
O2289 Tb2272 2.427 . S
O2289 C2288 1.275 . S
O2290 Tb2272 2.513 . S
O2290 C2288 1.246 . S
C2291 O2275 1.245 . S
C2291 O2276 1.259 . S
Tb2292 O2295 2.453 . S
Tb2292 O2296 2.596 . S
Tb2292 O2297 2.374 . S
Tb2292 O2305 2.343 . S
Tb2292 O2307 2.353 . S
Tb2292 O2309 2.427 . S
Tb2292 O2310 2.513 . S
C2293 O2297 1.251 . S
C2293 O2299 1.263 . S
Tb2294 O2296 2.343 . S
Tb2294 O2299 2.353 . S
Tb2294 O2302 2.427 . S
Tb2294 O2303 2.513 . S
Tb2294 O2304 2.453 . S
Tb2294 O2305 2.596 . S
Tb2294 O2306 2.374 . S
O2295 Tb2292 2.453 . S
O2295 C2311 1.245 . S
O2296 Tb2292 2.596 . S
O2296 Tb2294 2.343 . S
O2296 C2311 1.259 . S
O2297 Tb2292 2.374 . S
O2297 C2293 1.251 . S
C2298 O2302 1.275 . S
C2298 O2303 1.246 . S
O2299 C2293 1.263 . S
O2299 Tb2294 2.353 . S
C2300 O2304 1.245 . S
C2300 O2305 1.259 . S
C2301 O2306 1.250 . S
C2301 O2307 1.263 . S
O2302 Tb2294 2.427 . S
O2302 C2298 1.275 . S
O2303 Tb2294 2.513 . S
O2303 C2298 1.246 . S
O2304 Tb2294 2.453 . S
O2304 C2300 1.245 . S
O2305 Tb2292 2.343 . S
O2305 Tb2294 2.596 . S
O2305 C2300 1.259 . S
O2306 Tb2294 2.374 . S
O2306 C2301 1.250 . S
O2307 Tb2292 2.353 . S
O2307 C2301 1.263 . S
C2308 O2309 1.275 . S
C2308 O2310 1.246 . S
O2309 Tb2292 2.427 . S
O2309 C2308 1.275 . S
O2310 Tb2292 2.513 . S
O2310 C2308 1.246 . S
C2311 O2295 1.245 . S
C2311 O2296 1.259 . S
Tb2312 O2315 2.453 1_655 S
Tb2312 O2316 2.596 1_655 S
Tb2312 O2317 2.374 . S
Tb2312 O2325 2.343 . S
Tb2312 O2327 2.353 . S
Tb2312 O2329 2.427 . S
Tb2312 O2330 2.513 . S
C2313 O2317 1.251 1_455 S
C2313 O2319 1.263 . S
Tb2314 O2316 2.343 . S
Tb2314 O2319 2.353 . S
Tb2314 O2322 2.427 . S
Tb2314 O2323 2.513 . S
Tb2314 O2324 2.453 . S
Tb2314 O2325 2.596 1_455 S
Tb2314 O2326 2.374 . S
O2315 Tb2312 2.453 1_455 S
O2315 C2331 1.245 . S
O2316 Tb2312 2.596 1_455 S
O2316 Tb2314 2.343 . S
O2316 C2331 1.259 . S
O2317 Tb2312 2.374 . S
O2317 C2313 1.251 1_655 S
C2318 O2322 1.275 . S
C2318 O2323 1.246 . S
O2319 C2313 1.263 . S
O2319 Tb2314 2.353 . S
C2320 O2324 1.245 1_655 S
C2320 O2325 1.259 . S
C2321 O2326 1.250 . S
C2321 O2327 1.263 1_455 S
O2322 Tb2314 2.427 . S
O2322 C2318 1.275 . S
O2323 Tb2314 2.513 . S
O2323 C2318 1.246 . S
O2324 Tb2314 2.453 . S
O2324 C2320 1.245 1_455 S
O2325 Tb2312 2.343 . S
O2325 Tb2314 2.596 1_655 S
O2325 C2320 1.259 . S
O2326 Tb2314 2.374 . S
O2326 C2321 1.250 . S
O2327 Tb2312 2.353 . S
O2327 C2321 1.263 1_655 S
C2328 O2329 1.275 . S
C2328 O2330 1.246 . S
O2329 Tb2312 2.427 . S
O2329 C2328 1.275 . S
O2330 Tb2312 2.513 . S
O2330 C2328 1.246 . S
C2331 O2315 1.245 . S
C2331 O2316 1.259 . S
Tb2332 O2335 2.453 . S
Tb2332 O2336 2.596 . S
Tb2332 O2337 2.374 . S
Tb2332 O2345 2.343 . S
Tb2332 O2347 2.353 . S
Tb2332 O2349 2.427 . S
Tb2332 O2350 2.513 . S
C2333 O2337 1.251 . S
C2333 O2339 1.263 . S
Tb2334 O2336 2.343 . S
Tb2334 O2339 2.353 . S
Tb2334 O2342 2.427 . S
Tb2334 O2343 2.513 . S
Tb2334 O2344 2.453 . S
Tb2334 O2345 2.596 . S
Tb2334 O2346 2.374 . S
O2335 Tb2332 2.453 . S
O2335 C2351 1.245 . S
O2336 Tb2332 2.596 . S
O2336 Tb2334 2.343 . S
O2336 C2351 1.259 . S
O2337 Tb2332 2.374 . S
O2337 C2333 1.251 . S
C2338 O2342 1.275 . S
C2338 O2343 1.246 . S
O2339 C2333 1.263 . S
O2339 Tb2334 2.353 . S
C2340 O2344 1.245 . S
C2340 O2345 1.259 . S
C2341 O2346 1.250 . S
C2341 O2347 1.263 . S
O2342 Tb2334 2.427 . S
O2342 C2338 1.275 . S
O2343 Tb2334 2.513 . S
O2343 C2338 1.246 . S
O2344 Tb2334 2.453 . S
O2344 C2340 1.245 . S
O2345 Tb2332 2.343 . S
O2345 Tb2334 2.596 . S
O2345 C2340 1.259 . S
O2346 Tb2334 2.374 . S
O2346 C2341 1.250 . S
O2347 Tb2332 2.353 . S
O2347 C2341 1.263 . S
C2348 O2349 1.275 . S
C2348 O2350 1.246 . S
O2349 Tb2332 2.427 . S
O2349 C2348 1.275 . S
O2350 Tb2332 2.513 . S
O2350 C2348 1.246 . S
C2351 O2335 1.245 . S
C2351 O2336 1.259 . S
Tb2352 O2355 2.453 . S
Tb2352 O2356 2.596 . S
Tb2352 O2357 2.374 . S
Tb2352 O2365 2.343 . S
Tb2352 O2367 2.353 . S
Tb2352 O2369 2.427 . S
Tb2352 O2370 2.513 . S
C2353 O2357 1.251 . S
C2353 O2359 1.263 . S
Tb2354 O2356 2.343 . S
Tb2354 O2359 2.353 . S
Tb2354 O2362 2.427 . S
Tb2354 O2363 2.513 . S
Tb2354 O2364 2.453 . S
Tb2354 O2365 2.596 . S
Tb2354 O2366 2.374 . S
O2355 Tb2352 2.453 . S
O2355 C2371 1.245 . S
O2356 Tb2352 2.596 . S
O2356 Tb2354 2.343 . S
O2356 C2371 1.259 . S
O2357 Tb2352 2.374 . S
O2357 C2353 1.251 . S
C2358 O2362 1.275 . S
C2358 O2363 1.246 . S
O2359 C2353 1.263 . S
O2359 Tb2354 2.353 . S
C2360 O2364 1.245 . S
C2360 O2365 1.259 . S
C2361 O2366 1.250 . S
C2361 O2367 1.263 . S
O2362 Tb2354 2.427 . S
O2362 C2358 1.275 . S
O2363 Tb2354 2.513 . S
O2363 C2358 1.246 . S
O2364 Tb2354 2.453 . S
O2364 C2360 1.245 . S
O2365 Tb2352 2.343 . S
O2365 Tb2354 2.596 . S
O2365 C2360 1.259 . S
O2366 Tb2354 2.374 . S
O2366 C2361 1.250 . S
O2367 Tb2352 2.353 . S
O2367 C2361 1.263 . S
C2368 O2369 1.275 . S
C2368 O2370 1.246 . S
O2369 Tb2352 2.427 . S
O2369 C2368 1.275 . S
O2370 Tb2352 2.513 . S
O2370 C2368 1.246 . S
C2371 O2355 1.245 . S
C2371 O2356 1.259 . S
Tb2372 O2375 2.453 . S
Tb2372 O2376 2.596 . S
Tb2372 O2377 2.374 . S
Tb2372 O2385 2.343 . S
Tb2372 O2387 2.353 . S
Tb2372 O2389 2.427 . S
Tb2372 O2390 2.513 . S
C2373 O2377 1.251 . S
C2373 O2379 1.263 . S
Tb2374 O2376 2.343 . S
Tb2374 O2379 2.353 . S
Tb2374 O2382 2.427 . S
Tb2374 O2383 2.513 . S
Tb2374 O2384 2.453 . S
Tb2374 O2385 2.596 . S
Tb2374 O2386 2.374 . S
O2375 Tb2372 2.453 . S
O2375 C2391 1.245 . S
O2376 Tb2372 2.596 . S
O2376 Tb2374 2.343 . S
O2376 C2391 1.259 . S
O2377 Tb2372 2.374 . S
O2377 C2373 1.251 . S
C2378 O2382 1.275 . S
C2378 O2383 1.246 . S
O2379 C2373 1.263 . S
O2379 Tb2374 2.353 . S
C2380 O2384 1.245 . S
C2380 O2385 1.259 . S
C2381 O2386 1.250 . S
C2381 O2387 1.263 . S
O2382 Tb2374 2.427 . S
O2382 C2378 1.275 . S
O2383 Tb2374 2.513 . S
O2383 C2378 1.246 . S
O2384 Tb2374 2.453 . S
O2384 C2380 1.245 . S
O2385 Tb2372 2.343 . S
O2385 Tb2374 2.596 . S
O2385 C2380 1.259 . S
O2386 Tb2374 2.374 . S
O2386 C2381 1.250 . S
O2387 Tb2372 2.353 . S
O2387 C2381 1.263 . S
C2388 O2389 1.275 . S
C2388 O2390 1.246 . S
O2389 Tb2372 2.427 . S
O2389 C2388 1.275 . S
O2390 Tb2372 2.513 . S
O2390 C2388 1.246 . S
C2391 O2375 1.245 . S
C2391 O2376 1.259 . S
Tb2392 O2395 2.453 . S
Tb2392 O2396 2.596 . S
Tb2392 O2397 2.374 . S
Tb2392 O2405 2.343 . S
Tb2392 O2407 2.353 . S
Tb2392 O2409 2.427 . S
Tb2392 O2410 2.513 . S
C2393 O2397 1.251 . S
C2393 O2399 1.263 . S
Tb2394 O2396 2.343 . S
Tb2394 O2399 2.353 . S
Tb2394 O2402 2.427 . S
Tb2394 O2403 2.513 . S
Tb2394 O2404 2.453 . S
Tb2394 O2405 2.596 . S
Tb2394 O2406 2.374 . S
O2395 Tb2392 2.453 . S
O2395 C2411 1.245 . S
O2396 Tb2392 2.596 . S
O2396 Tb2394 2.343 . S
O2396 C2411 1.259 . S
O2397 Tb2392 2.374 . S
O2397 C2393 1.251 . S
C2398 O2402 1.275 . S
C2398 O2403 1.246 . S
O2399 C2393 1.263 . S
O2399 Tb2394 2.353 . S
C2400 O2404 1.245 . S
C2400 O2405 1.259 . S
C2401 O2406 1.250 . S
C2401 O2407 1.263 . S
O2402 Tb2394 2.427 . S
O2402 C2398 1.275 . S
O2403 Tb2394 2.513 . S
O2403 C2398 1.246 . S
O2404 Tb2394 2.453 . S
O2404 C2400 1.245 . S
O2405 Tb2392 2.343 . S
O2405 Tb2394 2.596 . S
O2405 C2400 1.259 . S
O2406 Tb2394 2.374 . S
O2406 C2401 1.250 . S
O2407 Tb2392 2.353 . S
O2407 C2401 1.263 . S
C2408 O2409 1.275 . S
C2408 O2410 1.246 . S
O2409 Tb2392 2.427 . S
O2409 C2408 1.275 . S
O2410 Tb2392 2.513 . S
O2410 C2408 1.246 . S
C2411 O2395 1.245 . S
C2411 O2396 1.259 . S
Tb2412 O2415 2.453 . S
Tb2412 O2416 2.596 . S
Tb2412 O2417 2.374 . S
Tb2412 O2425 2.343 . S
Tb2412 O2427 2.353 1_554 S
Tb2412 O2429 2.427 1_554 S
Tb2412 O2430 2.513 . S
C2413 O2417 1.251 . S
C2413 O2419 1.263 1_455 S
Tb2414 O2416 2.343 1_655 S
Tb2414 O2419 2.353 . S
Tb2414 O2422 2.427 . S
Tb2414 O2423 2.513 . S
Tb2414 O2424 2.453 . S
Tb2414 O2425 2.596 1_655 S
Tb2414 O2426 2.374 1_554 S
O2415 Tb2412 2.453 . S
O2415 C2431 1.245 . S
O2416 Tb2412 2.596 . S
O2416 Tb2414 2.343 1_455 S
O2416 C2431 1.259 . S
O2417 Tb2412 2.374 . S
O2417 C2413 1.251 . S
C2418 O2422 1.275 . S
C2418 O2423 1.246 . S
O2419 C2413 1.263 1_655 S
O2419 Tb2414 2.353 . S
C2420 O2424 1.245 1_455 S
C2420 O2425 1.259 . S
C2421 O2426 1.219 1_455 S
C2421 O2427 1.296 . S
O2422 Tb2414 2.427 . S
O2422 C2418 1.275 . S
O2423 Tb2414 2.513 . S
O2423 C2418 1.246 . S
O2424 Tb2414 2.453 . S
O2424 C2420 1.245 1_655 S
O2425 Tb2412 2.343 . S
O2425 Tb2414 2.596 1_455 S
O2425 C2420 1.259 . S
O2426 Tb2414 2.374 1_556 S
O2426 C2421 1.219 1_655 S
O2427 Tb2412 2.353 1_556 S
O2427 C2421 1.296 . S
C2428 O2429 1.275 1_554 S
C2428 O2430 1.246 . S
O2429 Tb2412 2.427 1_556 S
O2429 C2428 1.275 1_556 S
O2430 Tb2412 2.513 . S
O2430 C2428 1.246 . S
C2431 O2415 1.245 . S
C2431 O2416 1.259 . S
H2432 C2438 0.930 . S
H2433 C2442 0.930 . S
H2434 C2447 0.929 . S
H2435 C2445 0.929 . S
H2436 C2440 0.929 . S
H2437 C2446 0.929 . S
C2438 H2432 0.930 . S
C2438 C2439 1.367 . S
C2438 C2446 1.378 . S
C2439 C2438 1.367 . S
C2439 C2447 1.433 1_455 S
C2440 H2436 0.929 . S
C2440 C2442 1.378 . S
C2440 C2444 1.350 1_655 S
C2441 C2444 1.463 . S
C2441 C2446 1.350 . S
C2441 N2449 1.427 1_455 S
C2442 H2433 0.930 . S
C2442 C2440 1.378 . S
C2442 C2443 1.367 1_655 S
C2443 C2442 1.367 1_455 S
C2443 C2445 1.433 1_556 S
C2444 C2440 1.350 1_455 S
C2444 C2441 1.463 . S
C2444 N2448 1.427 . S
C2445 H2435 0.929 . S
C2445 C2443 1.433 1_554 S
C2445 N2448 1.384 1_554 S
C2446 H2437 0.929 . S
C2446 C2438 1.378 . S
C2446 C2441 1.350 . S
C2447 H2434 0.929 . S
C2447 C2439 1.433 1_655 S
C2447 N2449 1.384 . S
N2448 C2444 1.427 . S
N2448 C2445 1.384 1_556 S
N2449 C2441 1.427 1_655 S
N2449 C2447 1.384 . S
H2450 C2456 0.930 . S
H2451 C2460 0.930 . S
H2452 C2465 0.929 . S
H2453 C2463 0.929 . S
H2454 C2458 0.929 . S
H2455 C2464 0.929 . S
C2456 H2450 0.930 . S
C2456 C2457 1.367 . S
C2456 C2464 1.378 . S
C2457 C2456 1.367 . S
C2457 C2465 1.433 . S
C2458 H2454 0.929 . S
C2458 C2460 1.378 . S
C2458 C2462 1.350 . S
C2459 C2462 1.463 . S
C2459 C2464 1.350 . S
C2459 N2467 1.427 . S
C2460 H2451 0.930 . S
C2460 C2458 1.378 . S
C2460 C2461 1.367 . S
C2461 C2460 1.367 . S
C2461 C2463 1.433 . S
C2462 C2458 1.350 . S
C2462 C2459 1.463 . S
C2462 N2466 1.427 . S
C2463 H2453 0.929 . S
C2463 C2461 1.433 . S
C2463 N2466 1.384 . S
C2464 H2455 0.929 . S
C2464 C2456 1.378 . S
C2464 C2459 1.350 . S
C2465 H2452 0.929 . S
C2465 C2457 1.433 . S
C2465 N2467 1.384 . S
N2466 C2462 1.427 . S
N2466 C2463 1.384 . S
N2467 C2459 1.427 . S
N2467 C2465 1.384 . S
H2468 C2474 0.930 . S
H2469 C2478 0.930 . S
H2470 C2483 0.929 . S
H2471 C2481 0.929 . S
H2472 C2476 0.929 . S
H2473 C2482 0.929 . S
C2474 H2468 0.930 . S
C2474 C2475 1.367 . S
C2474 C2482 1.378 . S
C2475 C2474 1.367 . S
C2475 C2483 1.433 . S
C2476 H2472 0.929 . S
C2476 C2478 1.378 . S
C2476 C2480 1.350 . S
C2477 C2480 1.463 . S
C2477 C2482 1.350 . S
C2477 N2485 1.427 . S
C2478 H2469 0.930 . S
C2478 C2476 1.378 . S
C2478 C2479 1.367 . S
C2479 C2478 1.367 . S
C2479 C2481 1.433 . S
C2480 C2476 1.350 . S
C2480 C2477 1.463 . S
C2480 N2484 1.427 . S
C2481 H2471 0.929 . S
C2481 C2479 1.433 . S
C2481 N2484 1.384 . S
C2482 H2473 0.929 . S
C2482 C2474 1.378 . S
C2482 C2477 1.350 . S
C2483 H2470 0.929 . S
C2483 C2475 1.433 . S
C2483 N2485 1.384 . S
N2484 C2480 1.427 . S
N2484 C2481 1.384 . S
N2485 C2477 1.427 . S
N2485 C2483 1.384 . S
H2486 C2492 0.930 . S
H2487 C2496 0.930 . S
H2488 C2501 0.929 . S
H2489 C2499 0.929 . S
H2490 C2494 0.929 . S
H2491 C2500 0.929 . S
C2492 H2486 0.930 . S
C2492 C2493 1.367 . S
C2492 C2500 1.378 . S
C2493 C2492 1.367 . S
C2493 C2501 1.433 . S
C2494 H2490 0.929 . S
C2494 C2496 1.378 . S
C2494 C2498 1.350 . S
C2495 C2498 1.463 . S
C2495 C2500 1.350 . S
C2495 N2503 1.427 . S
C2496 H2487 0.930 . S
C2496 C2494 1.378 . S
C2496 C2497 1.367 . S
C2497 C2496 1.367 . S
C2497 C2499 1.433 . S
C2498 C2494 1.350 . S
C2498 C2495 1.463 . S
C2498 N2502 1.427 . S
C2499 H2489 0.929 . S
C2499 C2497 1.433 . S
C2499 N2502 1.384 . S
C2500 H2491 0.929 . S
C2500 C2492 1.378 . S
C2500 C2495 1.350 . S
C2501 H2488 0.929 . S
C2501 C2493 1.433 . S
C2501 N2503 1.384 . S
N2502 C2498 1.427 . S
N2502 C2499 1.384 . S
N2503 C2495 1.427 . S
N2503 C2501 1.384 . S
H2504 C2510 0.930 1_655 S
H2505 C2514 0.930 . S
H2506 C2519 0.929 . S
H2507 C2517 0.929 . S
H2508 C2512 0.929 . S
H2509 C2518 0.928 1_655 S
C2510 H2504 0.930 1_455 S
C2510 C2511 1.371 . S
C2510 C2518 1.377 . S
C2511 C2510 1.371 . S
C2511 C2519 1.433 . S
C2512 H2508 0.929 . S
C2512 C2514 1.378 . S
C2512 C2516 1.350 . S
C2513 C2516 1.463 . S
C2513 C2518 1.350 . S
C2513 N2521 1.427 . S
C2514 H2505 0.930 . S
C2514 C2512 1.378 . S
C2514 C2515 1.367 . S
C2515 C2514 1.367 . S
C2515 C2517 1.433 . S
C2516 C2512 1.350 . S
C2516 C2513 1.463 . S
C2516 N2520 1.427 . S
C2517 H2507 0.929 . S
C2517 C2515 1.433 . S
C2517 N2520 1.384 . S
C2518 H2509 0.928 1_455 S
C2518 C2510 1.377 . S
C2518 C2513 1.350 . S
C2519 H2506 0.929 . S
C2519 C2511 1.433 . S
C2519 N2521 1.384 . S
N2520 C2516 1.427 . S
N2520 C2517 1.384 . S
N2521 C2513 1.427 . S
N2521 C2519 1.384 . S
H2522 C2528 0.930 . S
H2523 C2532 0.930 . S
H2524 C2537 0.929 . S
H2525 C2535 0.929 . S
H2526 C2530 0.929 . S
H2527 C2536 0.929 . S
C2528 H2522 0.930 . S
C2528 C2529 1.367 . S
C2528 C2536 1.378 . S
C2529 C2528 1.367 . S
C2529 C2537 1.433 . S
C2530 H2526 0.929 . S
C2530 C2532 1.378 . S
C2530 C2534 1.350 . S
C2531 C2534 1.463 . S
C2531 C2536 1.350 . S
C2531 N2539 1.427 . S
C2532 H2523 0.930 . S
C2532 C2530 1.378 . S
C2532 C2533 1.367 . S
C2533 C2532 1.367 . S
C2533 C2535 1.433 . S
C2534 C2530 1.350 . S
C2534 C2531 1.463 . S
C2534 N2538 1.427 . S
C2535 H2525 0.929 . S
C2535 C2533 1.433 . S
C2535 N2538 1.384 . S
C2536 H2527 0.929 . S
C2536 C2528 1.378 . S
C2536 C2531 1.350 . S
C2537 H2524 0.929 . S
C2537 C2529 1.433 . S
C2537 N2539 1.384 . S
N2538 C2534 1.427 . S
N2538 C2535 1.384 . S
N2539 C2531 1.427 . S
N2539 C2537 1.384 . S
H2540 C2546 0.930 . S
H2541 C2550 0.930 . S
H2542 C2555 0.929 . S
H2543 C2553 0.929 . S
H2544 C2548 0.929 . S
H2545 C2554 0.929 . S
C2546 H2540 0.930 . S
C2546 C2547 1.367 . S
C2546 C2554 1.378 . S
C2547 C2546 1.367 . S
C2547 C2555 1.433 . S
C2548 H2544 0.929 . S
C2548 C2550 1.378 . S
C2548 C2552 1.350 . S
C2549 C2552 1.463 . S
C2549 C2554 1.350 . S
C2549 N2557 1.427 . S
C2550 H2541 0.930 . S
C2550 C2548 1.378 . S
C2550 C2551 1.367 . S
C2551 C2550 1.367 . S
C2551 C2553 1.433 . S
C2552 C2548 1.350 . S
C2552 C2549 1.463 . S
C2552 N2556 1.427 . S
C2553 H2543 0.929 . S
C2553 C2551 1.433 . S
C2553 N2556 1.384 . S
C2554 H2545 0.929 . S
C2554 C2546 1.378 . S
C2554 C2549 1.350 . S
C2555 H2542 0.929 . S
C2555 C2547 1.433 . S
C2555 N2557 1.384 . S
N2556 C2552 1.427 . S
N2556 C2553 1.384 . S
N2557 C2549 1.427 . S
N2557 C2555 1.384 . S
H2558 C2564 0.930 . S
H2559 C2568 0.930 . S
H2560 C2573 0.929 . S
H2561 C2571 0.929 . S
H2562 C2566 0.929 . S
H2563 C2572 0.929 . S
C2564 H2558 0.930 . S
C2564 C2565 1.367 . S
C2564 C2572 1.378 . S
C2565 C2564 1.367 . S
C2565 C2573 1.433 . S
C2566 H2562 0.929 . S
C2566 C2568 1.378 . S
C2566 C2570 1.350 . S
C2567 C2570 1.463 . S
C2567 C2572 1.350 . S
C2567 N2575 1.427 . S
C2568 H2559 0.930 . S
C2568 C2566 1.378 . S
C2568 C2569 1.367 . S
C2569 C2568 1.367 . S
C2569 C2571 1.433 . S
C2570 C2566 1.350 . S
C2570 C2567 1.463 . S
C2570 N2574 1.427 . S
C2571 H2561 0.929 . S
C2571 C2569 1.433 . S
C2571 N2574 1.384 . S
C2572 H2563 0.929 . S
C2572 C2564 1.378 . S
C2572 C2567 1.350 . S
C2573 H2560 0.929 . S
C2573 C2565 1.433 . S
C2573 N2575 1.384 . S
N2574 C2570 1.427 . S
N2574 C2571 1.384 . S
N2575 C2567 1.427 . S
N2575 C2573 1.384 . S
H2576 C2582 0.930 . S
H2577 C2586 0.930 . S
H2578 C2591 0.929 . S
H2579 C2589 0.929 1_455 S
H2580 C2584 0.929 . S
H2581 C2590 0.929 . S
C2582 H2576 0.930 . S
C2582 C2583 1.367 . S
C2582 C2590 1.378 . S
C2583 C2582 1.367 . S
C2583 C2591 1.433 . S
C2584 H2580 0.929 . S
C2584 C2586 1.378 . S
C2584 C2588 1.350 . S
C2585 C2588 1.463 . S
C2585 C2590 1.350 . S
C2585 N2593 1.427 . S
C2586 H2577 0.930 . S
C2586 C2584 1.378 . S
C2586 C2587 1.367 . S
C2587 C2586 1.367 . S
C2587 C2589 1.433 . S
C2588 C2584 1.350 . S
C2588 C2585 1.463 . S
C2588 N2592 1.427 . S
C2589 H2579 0.929 1_655 S
C2589 C2587 1.433 . S
C2589 N2592 1.384 . S
C2590 H2581 0.929 . S
C2590 C2582 1.378 . S
C2590 C2585 1.350 . S
C2591 H2578 0.929 . S
C2591 C2583 1.433 . S
C2591 N2593 1.384 . S
N2592 C2588 1.427 . S
N2592 C2589 1.384 . S
N2593 C2585 1.427 . S
N2593 C2591 1.384 . S
H2594 C2600 0.930 . S
H2595 C2604 0.930 . S
H2596 C2609 0.929 . S
H2597 C2607 0.929 . S
H2598 C2602 0.929 . S
H2599 C2608 0.929 . S
C2600 H2594 0.930 . S
C2600 C2601 1.367 . S
C2600 C2608 1.378 . S
C2601 C2600 1.367 . S
C2601 C2609 1.433 . S
C2602 H2598 0.929 . S
C2602 C2604 1.378 . S
C2602 C2606 1.350 . S
C2603 C2606 1.463 . S
C2603 C2608 1.350 . S
C2603 N2611 1.427 . S
C2604 H2595 0.930 . S
C2604 C2602 1.378 . S
C2604 C2605 1.367 . S
C2605 C2604 1.367 . S
C2605 C2607 1.433 . S
C2606 C2602 1.350 . S
C2606 C2603 1.463 . S
C2606 N2610 1.427 . S
C2607 H2597 0.929 . S
C2607 C2605 1.433 . S
C2607 N2610 1.384 . S
C2608 H2599 0.929 . S
C2608 C2600 1.378 . S
C2608 C2603 1.350 . S
C2609 H2596 0.929 . S
C2609 C2601 1.433 . S
C2609 N2611 1.384 . S
N2610 C2606 1.427 . S
N2610 C2607 1.384 . S
N2611 C2603 1.427 . S
N2611 C2609 1.384 . S
H2612 C2618 0.930 . S
H2613 C2622 0.930 1_565 S
H2614 C2627 0.929 . S
H2615 C2625 0.929 . S
H2616 C2620 0.929 1_565 S
H2617 C2626 0.929 . S
C2618 H2612 0.930 . S
C2618 C2619 1.367 . S
C2618 C2626 1.378 . S
C2619 C2618 1.367 . S
C2619 C2627 1.433 1_545 S
C2620 H2616 0.929 1_545 S
C2620 C2622 1.378 . S
C2620 C2624 1.350 . S
C2621 C2624 1.463 . S
C2621 C2626 1.350 . S
C2621 N2629 1.427 1_545 S
C2622 H2613 0.930 1_545 S
C2622 C2620 1.378 . S
C2622 C2623 1.367 . S
C2623 C2622 1.367 . S
C2623 C2625 1.433 . S
C2624 C2620 1.350 . S
C2624 C2621 1.463 . S
C2624 N2628 1.427 . S
C2625 H2615 0.929 . S
C2625 C2623 1.433 . S
C2625 N2628 1.384 . S
C2626 H2617 0.929 . S
C2626 C2618 1.378 . S
C2626 C2621 1.350 . S
C2627 H2614 0.929 . S
C2627 C2619 1.433 1_565 S
C2627 N2629 1.384 . S
N2628 C2624 1.427 . S
N2628 C2625 1.384 . S
N2629 C2621 1.427 1_565 S
N2629 C2627 1.384 . S
H2630 C2636 0.930 . S
H2631 C2640 0.930 . S
H2632 C2645 0.929 . S
H2633 C2643 0.929 . S
H2634 C2638 0.929 . S
H2635 C2644 0.929 . S
C2636 H2630 0.930 . S
C2636 C2637 1.367 . S
C2636 C2644 1.378 . S
C2637 C2636 1.367 . S
C2637 C2645 1.433 . S
C2638 H2634 0.929 . S
C2638 C2640 1.378 . S
C2638 C2642 1.350 . S
C2639 C2642 1.463 . S
C2639 C2644 1.350 . S
C2639 N2647 1.427 . S
C2640 H2631 0.930 . S
C2640 C2638 1.378 . S
C2640 C2641 1.367 . S
C2641 C2640 1.367 . S
C2641 C2643 1.433 . S
C2642 C2638 1.350 . S
C2642 C2639 1.463 . S
C2642 N2646 1.427 . S
C2643 H2633 0.929 . S
C2643 C2641 1.433 . S
C2643 N2646 1.384 . S
C2644 H2635 0.929 . S
C2644 C2636 1.378 . S
C2644 C2639 1.350 . S
C2645 H2632 0.929 . S
C2645 C2637 1.433 . S
C2645 N2647 1.384 . S
N2646 C2642 1.427 . S
N2646 C2643 1.384 . S
N2647 C2639 1.427 . S
N2647 C2645 1.384 . S
H2648 C2654 0.930 . S
H2649 C2658 0.930 . S
H2650 C2663 0.929 . S
H2651 C2661 0.929 1_455 S
H2652 C2656 0.929 . S
H2653 C2662 0.929 . S
C2654 H2648 0.930 . S
C2654 C2655 1.367 . S
C2654 C2662 1.378 . S
C2655 C2654 1.367 . S
C2655 C2663 1.433 . S
C2656 H2652 0.929 . S
C2656 C2658 1.378 . S
C2656 C2660 1.350 . S
C2657 C2660 1.463 . S
C2657 C2662 1.350 . S
C2657 N2665 1.427 . S
C2658 H2649 0.930 . S
C2658 C2656 1.378 . S
C2658 C2659 1.367 . S
C2659 C2658 1.367 . S
C2659 C2661 1.433 . S
C2660 C2656 1.350 . S
C2660 C2657 1.463 . S
C2660 N2664 1.427 . S
C2661 H2651 0.929 1_655 S
C2661 C2659 1.433 . S
C2661 N2664 1.384 . S
C2662 H2653 0.929 . S
C2662 C2654 1.378 . S
C2662 C2657 1.350 . S
C2663 H2650 0.929 . S
C2663 C2655 1.433 . S
C2663 N2665 1.384 . S
N2664 C2660 1.427 . S
N2664 C2661 1.384 . S
N2665 C2657 1.427 . S
N2665 C2663 1.384 . S
H2666 C2672 0.930 . S
H2667 C2676 0.930 . S
H2668 C2681 0.929 . S
H2669 C2679 0.929 . S
H2670 C2674 0.929 . S
H2671 C2680 0.929 . S
C2672 H2666 0.930 . S
C2672 C2673 1.367 . S
C2672 C2680 1.378 . S
C2673 C2672 1.367 . S
C2673 C2681 1.433 . S
C2674 H2670 0.929 . S
C2674 C2676 1.378 . S
C2674 C2678 1.350 . S
C2675 C2678 1.463 . S
C2675 C2680 1.350 . S
C2675 N2683 1.427 . S
C2676 H2667 0.930 . S
C2676 C2674 1.378 . S
C2676 C2677 1.367 . S
C2677 C2676 1.367 . S
C2677 C2679 1.433 . S
C2678 C2674 1.350 . S
C2678 C2675 1.463 . S
C2678 N2682 1.427 . S
C2679 H2669 0.929 . S
C2679 C2677 1.433 . S
C2679 N2682 1.384 . S
C2680 H2671 0.929 . S
C2680 C2672 1.378 . S
C2680 C2675 1.350 . S
C2681 H2668 0.929 . S
C2681 C2673 1.433 . S
C2681 N2683 1.384 . S
N2682 C2678 1.427 . S
N2682 C2679 1.384 . S
N2683 C2675 1.427 . S
N2683 C2681 1.384 . S
H2684 C2690 0.930 . S
H2685 C2694 0.930 . S
H2686 C2699 0.929 1_565 S
H2687 C2697 0.929 . S
H2688 C2692 0.929 . S
H2689 C2698 0.929 . S
C2690 H2684 0.930 . S
C2690 C2691 1.367 . S
C2690 C2698 1.378 . S
C2691 C2690 1.367 . S
C2691 C2699 1.433 . S
C2692 H2688 0.929 . S
C2692 C2694 1.378 . S
C2692 C2696 1.350 . S
C2693 C2696 1.463 . S
C2693 C2698 1.350 . S
C2693 N2701 1.427 . S
C2694 H2685 0.930 . S
C2694 C2692 1.378 . S
C2694 C2695 1.367 . S
C2695 C2694 1.367 . S
C2695 C2697 1.433 . S
C2696 C2692 1.350 . S
C2696 C2693 1.463 . S
C2696 N2700 1.427 . S
C2697 H2687 0.929 . S
C2697 C2695 1.433 . S
C2697 N2700 1.384 . S
C2698 H2689 0.929 . S
C2698 C2690 1.378 . S
C2698 C2693 1.350 . S
C2699 H2686 0.929 1_545 S
C2699 C2691 1.433 . S
C2699 N2701 1.384 . S
N2700 C2696 1.427 . S
N2700 C2697 1.384 . S
N2701 C2693 1.427 . S
N2701 C2699 1.384 . S
H2702 C2708 0.930 . S
H2703 C2712 0.930 . S
H2704 C2717 0.929 . S
H2705 C2715 0.929 . S
H2706 C2710 0.929 . S
H2707 C2716 0.929 . S
C2708 H2702 0.930 . S
C2708 C2709 1.367 . S
C2708 C2716 1.378 . S
C2709 C2708 1.367 . S
C2709 C2717 1.433 . S
C2710 H2706 0.929 . S
C2710 C2712 1.378 . S
C2710 C2714 1.350 . S
C2711 C2714 1.463 . S
C2711 C2716 1.350 . S
C2711 N2719 1.427 . S
C2712 H2703 0.930 . S
C2712 C2710 1.378 . S
C2712 C2713 1.367 . S
C2713 C2712 1.367 . S
C2713 C2715 1.433 . S
C2714 C2710 1.350 . S
C2714 C2711 1.463 . S
C2714 N2718 1.427 . S
C2715 H2705 0.929 . S
C2715 C2713 1.433 . S
C2715 N2718 1.384 . S
C2716 H2707 0.929 . S
C2716 C2708 1.378 . S
C2716 C2711 1.350 . S
C2717 H2704 0.929 . S
C2717 C2709 1.433 . S
C2717 N2719 1.384 . S
N2718 C2714 1.427 . S
N2718 C2715 1.384 . S
N2719 C2711 1.427 . S
N2719 C2717 1.384 . S
H2720 C2726 0.930 . S
H2721 C2730 0.930 1_556 S
H2722 C2735 0.929 1_556 S
H2723 C2733 0.929 . S
H2724 C2728 0.929 1_556 S
H2725 C2734 0.929 . S
C2726 H2720 0.930 . S
C2726 C2727 1.367 . S
C2726 C2734 1.378 . S
C2727 C2726 1.367 . S
C2727 C2735 1.433 . S
C2728 H2724 0.929 1_554 S
C2728 C2730 1.378 . S
C2728 C2732 1.350 . S
C2729 C2732 1.463 . S
C2729 C2734 1.350 . S
C2729 N2737 1.427 . S
C2730 H2721 0.930 1_554 S
C2730 C2728 1.378 . S
C2730 C2731 1.367 1_565 S
C2731 C2730 1.367 1_545 S
C2731 C2733 1.433 . S
C2732 C2728 1.350 . S
C2732 C2729 1.463 . S
C2732 N2736 1.422 1_565 S
C2733 H2723 0.929 . S
C2733 C2731 1.433 . S
C2733 N2736 1.390 . S
C2734 H2725 0.929 . S
C2734 C2726 1.378 . S
C2734 C2729 1.350 . S
C2735 H2722 0.929 1_554 S
C2735 C2727 1.433 . S
C2735 N2737 1.384 . S
N2736 C2732 1.422 1_545 S
N2736 C2733 1.390 . S
N2737 C2729 1.427 . S
N2737 C2735 1.384 . S
H2738 C2744 0.930 . S
H2739 C2748 0.930 . S
H2740 C2753 0.929 . S
H2741 C2751 0.929 . S
H2742 C2746 0.929 . S
H2743 C2752 0.929 . S
C2744 H2738 0.930 . S
C2744 C2745 1.367 1_554 S
C2744 C2752 1.378 . S
C2745 C2744 1.367 1_556 S
C2745 C2753 1.433 . S
C2746 H2742 0.929 . S
C2746 C2748 1.378 . S
C2746 C2750 1.350 1_556 S
C2747 C2750 1.463 . S
C2747 C2752 1.350 . S
C2747 N2755 1.427 1_554 S
C2748 H2739 0.930 . S
C2748 C2746 1.378 . S
C2748 C2749 1.367 1_556 S
C2749 C2748 1.367 1_554 S
C2749 C2751 1.433 . S
C2750 C2746 1.350 1_554 S
C2750 C2747 1.463 . S
C2750 N2754 1.427 . S
C2751 H2741 0.929 . S
C2751 C2749 1.433 . S
C2751 N2754 1.384 . S
C2752 H2743 0.929 . S
C2752 C2744 1.378 . S
C2752 C2747 1.350 . S
C2753 H2740 0.929 . S
C2753 C2745 1.433 . S
C2753 N2755 1.384 . S
N2754 C2750 1.427 . S
N2754 C2751 1.384 . S
N2755 C2747 1.427 1_556 S
N2755 C2753 1.384 . S
H2756 C2762 0.930 . S
H2757 C2766 0.930 . S
H2758 C2771 0.929 . S
H2759 C2769 0.929 . S
H2760 C2764 0.929 . S
H2761 C2770 0.929 . S
C2762 H2756 0.930 . S
C2762 C2763 1.367 . S
C2762 C2770 1.378 . S
C2763 C2762 1.367 . S
C2763 C2771 1.433 . S
C2764 H2760 0.929 . S
C2764 C2766 1.378 . S
C2764 C2768 1.350 . S
C2765 C2768 1.463 . S
C2765 C2770 1.350 . S
C2765 N2773 1.427 . S
C2766 H2757 0.930 . S
C2766 C2764 1.378 . S
C2766 C2767 1.367 . S
C2767 C2766 1.367 . S
C2767 C2769 1.433 . S
C2768 C2764 1.350 . S
C2768 C2765 1.463 . S
C2768 N2772 1.427 . S
C2769 H2759 0.929 . S
C2769 C2767 1.433 . S
C2769 N2772 1.384 . S
C2770 H2761 0.929 . S
C2770 C2762 1.378 . S
C2770 C2765 1.350 . S
C2771 H2758 0.929 . S
C2771 C2763 1.433 . S
C2771 N2773 1.384 . S
N2772 C2768 1.427 . S
N2772 C2769 1.384 . S
N2773 C2765 1.427 . S
N2773 C2771 1.384 . S
H2774 C2780 0.930 . S
H2775 C2784 0.930 . S
H2776 C2789 0.929 . S
H2777 C2787 0.929 . S
H2778 C2782 0.929 . S
H2779 C2788 0.929 . S
C2780 H2774 0.930 . S
C2780 C2781 1.367 . S
C2780 C2788 1.378 . S
C2781 C2780 1.367 . S
C2781 C2789 1.433 . S
C2782 H2778 0.929 . S
C2782 C2784 1.378 . S
C2782 C2786 1.350 . S
C2783 C2786 1.463 . S
C2783 C2788 1.350 . S
C2783 N2791 1.427 . S
C2784 H2775 0.930 . S
C2784 C2782 1.378 . S
C2784 C2785 1.367 . S
C2785 C2784 1.367 . S
C2785 C2787 1.433 . S
C2786 C2782 1.350 . S
C2786 C2783 1.463 . S
C2786 N2790 1.427 . S
C2787 H2777 0.929 . S
C2787 C2785 1.433 . S
C2787 N2790 1.384 . S
C2788 H2779 0.929 . S
C2788 C2780 1.378 . S
C2788 C2783 1.350 . S
C2789 H2776 0.929 . S
C2789 C2781 1.433 . S
C2789 N2791 1.384 . S
N2790 C2786 1.427 . S
N2790 C2787 1.384 . S
N2791 C2783 1.427 . S
N2791 C2789 1.384 . S
H2792 C2798 0.930 . S
H2793 C2802 0.930 . S
H2794 C2807 0.929 . S
H2795 C2805 0.929 . S
H2796 C2800 0.929 . S
H2797 C2806 0.929 . S
C2798 H2792 0.930 . S
C2798 C2799 1.367 . S
C2798 C2806 1.378 . S
C2799 C2798 1.367 . S
C2799 C2807 1.433 . S
C2800 H2796 0.929 . S
C2800 C2802 1.378 . S
C2800 C2804 1.350 . S
C2801 C2804 1.463 . S
C2801 C2806 1.350 . S
C2801 N2809 1.427 . S
C2802 H2793 0.930 . S
C2802 C2800 1.378 . S
C2802 C2803 1.367 . S
C2803 C2802 1.367 . S
C2803 C2805 1.433 . S
C2804 C2800 1.350 . S
C2804 C2801 1.463 . S
C2804 N2808 1.427 . S
C2805 H2795 0.929 . S
C2805 C2803 1.433 . S
C2805 N2808 1.384 . S
C2806 H2797 0.929 . S
C2806 C2798 1.378 . S
C2806 C2801 1.350 . S
C2807 H2794 0.929 . S
C2807 C2799 1.433 . S
C2807 N2809 1.384 . S
N2808 C2804 1.427 . S
N2808 C2805 1.384 . S
N2809 C2801 1.427 . S
N2809 C2807 1.384 . S
H2810 C2816 0.930 . S
H2811 C2820 0.930 . S
H2812 C2825 0.929 . S
H2813 C2823 0.929 . S
H2814 C2818 0.929 . S
H2815 C2824 0.929 . S
C2816 H2810 0.930 . S
C2816 C2817 1.367 . S
C2816 C2824 1.378 . S
C2817 C2816 1.367 . S
C2817 C2825 1.433 . S
C2818 H2814 0.929 . S
C2818 C2820 1.378 . S
C2818 C2822 1.350 . S
C2819 C2822 1.463 . S
C2819 C2824 1.350 . S
C2819 N2827 1.427 . S
C2820 H2811 0.930 . S
C2820 C2818 1.378 . S
C2820 C2821 1.367 . S
C2821 C2820 1.367 . S
C2821 C2823 1.433 . S
C2822 C2818 1.350 . S
C2822 C2819 1.463 . S
C2822 N2826 1.427 . S
C2823 H2813 0.929 . S
C2823 C2821 1.433 . S
C2823 N2826 1.384 . S
C2824 H2815 0.929 . S
C2824 C2816 1.378 . S
C2824 C2819 1.350 . S
C2825 H2812 0.929 . S
C2825 C2817 1.433 . S
C2825 N2827 1.384 . S
N2826 C2822 1.427 . S
N2826 C2823 1.384 . S
N2827 C2819 1.427 . S
N2827 C2825 1.384 . S
H2828 C2834 0.930 . S
H2829 C2838 0.930 . S
H2830 C2843 0.929 . S
H2831 C2841 0.929 . S
H2832 C2836 0.929 . S
H2833 C2842 0.929 . S
C2834 H2828 0.930 . S
C2834 C2835 1.367 . S
C2834 C2842 1.378 . S
C2835 C2834 1.367 . S
C2835 C2843 1.433 . S
C2836 H2832 0.929 . S
C2836 C2838 1.378 . S
C2836 C2840 1.350 . S
C2837 C2840 1.463 . S
C2837 C2842 1.350 . S
C2837 N2845 1.427 . S
C2838 H2829 0.930 . S
C2838 C2836 1.378 . S
C2838 C2839 1.367 . S
C2839 C2838 1.367 . S
C2839 C2841 1.433 . S
C2840 C2836 1.350 . S
C2840 C2837 1.463 . S
C2840 N2844 1.427 . S
C2841 H2831 0.929 . S
C2841 C2839 1.433 . S
C2841 N2844 1.384 . S
C2842 H2833 0.929 . S
C2842 C2834 1.378 . S
C2842 C2837 1.350 . S
C2843 H2830 0.929 . S
C2843 C2835 1.433 . S
C2843 N2845 1.384 . S
N2844 C2840 1.427 . S
N2844 C2841 1.384 . S
N2845 C2837 1.427 . S
N2845 C2843 1.384 . S
H2846 C2852 0.930 . S
H2847 C2856 0.930 . S
H2848 C2861 0.929 . S
H2849 C2859 0.929 . S
H2850 C2854 0.929 . S
H2851 C2860 0.929 . S
C2852 H2846 0.930 . S
C2852 C2853 1.367 . S
C2852 C2860 1.378 . S
C2853 C2852 1.367 . S
C2853 C2861 1.433 . S
C2854 H2850 0.929 . S
C2854 C2856 1.378 . S
C2854 C2858 1.350 . S
C2855 C2858 1.463 . S
C2855 C2860 1.350 . S
C2855 N2863 1.427 . S
C2856 H2847 0.930 . S
C2856 C2854 1.378 . S
C2856 C2857 1.367 . S
C2857 C2856 1.367 . S
C2857 C2859 1.433 . S
C2858 C2854 1.350 . S
C2858 C2855 1.463 . S
C2858 N2862 1.427 . S
C2859 H2849 0.929 . S
C2859 C2857 1.433 . S
C2859 N2862 1.384 . S
C2860 H2851 0.929 . S
C2860 C2852 1.378 . S
C2860 C2855 1.350 . S
C2861 H2848 0.929 . S
C2861 C2853 1.433 . S
C2861 N2863 1.384 . S
N2862 C2858 1.427 . S
N2862 C2859 1.384 . S
N2863 C2855 1.427 . S
N2863 C2861 1.384 . S
H2864 C2870 0.930 . S
H2865 C2874 0.917 1_655 S
H2866 C2879 0.902 1_655 S
H2867 C2877 0.929 . S
H2868 C2872 0.912 1_655 S
H2869 C2878 0.929 . S
C2870 H2864 0.930 . S
C2870 C2871 1.367 . S
C2870 C2878 1.378 . S
C2871 C2870 1.367 . S
C2871 C2879 1.469 . S
C2872 H2868 0.912 1_455 S
C2872 C2874 1.377 . S
C2872 C2876 1.370 . S
C2873 C2876 1.463 . S
C2873 C2878 1.350 . S
C2873 N2881 1.456 . S
C2874 H2865 0.917 1_455 S
C2874 C2872 1.377 . S
C2874 C2875 1.378 . S
C2875 C2874 1.378 . S
C2875 C2877 1.433 . S
C2876 C2872 1.370 . S
C2876 C2873 1.463 . S
C2876 N2880 1.427 . S
C2877 H2867 0.929 . S
C2877 C2875 1.433 . S
C2877 N2880 1.384 . S
C2878 H2869 0.929 . S
C2878 C2870 1.378 . S
C2878 C2873 1.350 . S
C2879 H2866 0.902 1_455 S
C2879 C2871 1.469 . S
C2879 N2881 1.383 . S
N2880 C2876 1.427 . S
N2880 C2877 1.384 . S
N2881 C2873 1.456 . S
N2881 C2879 1.383 . S
H2882 C2888 0.930 . S
H2883 C2892 0.930 . S
H2884 C2897 0.929 . S
H2885 C2895 0.929 . S
H2886 C2890 0.929 . S
H2887 C2896 0.929 . S
C2888 H2882 0.930 . S
C2888 C2889 1.367 . S
C2888 C2896 1.378 . S
C2889 C2888 1.367 . S
C2889 C2897 1.433 . S
C2890 H2886 0.929 . S
C2890 C2892 1.378 . S
C2890 C2894 1.350 . S
C2891 C2894 1.463 . S
C2891 C2896 1.350 . S
C2891 N2899 1.427 . S
C2892 H2883 0.930 . S
C2892 C2890 1.378 . S
C2892 C2893 1.367 . S
C2893 C2892 1.367 . S
C2893 C2895 1.433 . S
C2894 C2890 1.350 . S
C2894 C2891 1.463 . S
C2894 N2898 1.427 . S
C2895 H2885 0.929 . S
C2895 C2893 1.433 . S
C2895 N2898 1.384 . S
C2896 H2887 0.929 . S
C2896 C2888 1.378 . S
C2896 C2891 1.350 . S
C2897 H2884 0.929 . S
C2897 C2889 1.433 . S
C2897 N2899 1.384 . S
N2898 C2894 1.427 . S
N2898 C2895 1.384 . S
N2899 C2891 1.427 . S
N2899 C2897 1.384 . S
H2900 C2906 0.930 . S
H2901 C2910 0.930 . S
H2902 C2915 0.929 . S
H2903 C2913 0.929 . S
H2904 C2908 0.929 . S
H2905 C2914 0.929 . S
C2906 H2900 0.930 . S
C2906 C2907 1.367 . S
C2906 C2914 1.378 . S
C2907 C2906 1.367 . S
C2907 C2915 1.433 . S
C2908 H2904 0.929 . S
C2908 C2910 1.378 . S
C2908 C2912 1.350 . S
C2909 C2912 1.463 . S
C2909 C2914 1.350 . S
C2909 N2917 1.427 . S
C2910 H2901 0.930 . S
C2910 C2908 1.378 . S
C2910 C2911 1.367 . S
C2911 C2910 1.367 . S
C2911 C2913 1.433 . S
C2912 C2908 1.350 . S
C2912 C2909 1.463 . S
C2912 N2916 1.427 . S
C2913 H2903 0.929 . S
C2913 C2911 1.433 . S
C2913 N2916 1.384 . S
C2914 H2905 0.929 . S
C2914 C2906 1.378 . S
C2914 C2909 1.350 . S
C2915 H2902 0.929 . S
C2915 C2907 1.433 . S
C2915 N2917 1.384 . S
N2916 C2912 1.427 . S
N2916 C2913 1.384 . S
N2917 C2909 1.427 . S
N2917 C2915 1.384 . S
H2918 C2924 0.930 . S
H2919 C2928 0.930 . S
H2920 C2933 0.929 . S
H2921 C2931 0.929 . S
H2922 C2926 0.929 . S
H2923 C2932 0.929 . S
C2924 H2918 0.930 . S
C2924 C2925 1.367 . S
C2924 C2932 1.378 . S
C2925 C2924 1.367 . S
C2925 C2933 1.433 . S
C2926 H2922 0.929 . S
C2926 C2928 1.378 . S
C2926 C2930 1.350 . S
C2927 C2930 1.463 . S
C2927 C2932 1.350 . S
C2927 N2935 1.427 . S
C2928 H2919 0.930 . S
C2928 C2926 1.378 . S
C2928 C2929 1.367 . S
C2929 C2928 1.367 . S
C2929 C2931 1.433 . S
C2930 C2926 1.350 . S
C2930 C2927 1.463 . S
C2930 N2934 1.427 . S
C2931 H2921 0.929 . S
C2931 C2929 1.433 . S
C2931 N2934 1.384 . S
C2932 H2923 0.929 . S
C2932 C2924 1.378 . S
C2932 C2927 1.350 . S
C2933 H2920 0.929 . S
C2933 C2925 1.433 . S
C2933 N2935 1.384 . S
N2934 C2930 1.427 . S
N2934 C2931 1.384 . S
N2935 C2927 1.427 . S
N2935 C2933 1.384 . S
H2936 C2942 0.930 . S
H2937 C2946 0.930 . S
H2938 C2951 0.929 . S
H2939 C2949 0.929 . S
H2940 C2944 0.929 . S
H2941 C2950 0.929 . S
C2942 H2936 0.930 . S
C2942 C2943 1.367 . S
C2942 C2950 1.378 . S
C2943 C2942 1.367 . S
C2943 C2951 1.433 . S
C2944 H2940 0.929 . S
C2944 C2946 1.378 . S
C2944 C2948 1.350 . S
C2945 C2948 1.463 . S
C2945 C2950 1.350 . S
C2945 N2953 1.427 . S
C2946 H2937 0.930 . S
C2946 C2944 1.378 . S
C2946 C2947 1.367 . S
C2947 C2946 1.367 . S
C2947 C2949 1.433 . S
C2948 C2944 1.350 . S
C2948 C2945 1.463 . S
C2948 N2952 1.427 . S
C2949 H2939 0.929 . S
C2949 C2947 1.433 . S
C2949 N2952 1.384 . S
C2950 H2941 0.929 . S
C2950 C2942 1.378 . S
C2950 C2945 1.350 . S
C2951 H2938 0.929 . S
C2951 C2943 1.433 . S
C2951 N2953 1.384 . S
N2952 C2948 1.427 . S
N2952 C2949 1.384 . S
N2953 C2945 1.427 . S
N2953 C2951 1.384 . S
H2954 C2960 0.930 . S
H2955 C2964 0.930 . S
H2956 C2969 0.929 . S
H2957 C2967 0.929 . S
H2958 C2962 0.929 . S
H2959 C2968 0.929 . S
C2960 H2954 0.930 . S
C2960 C2961 1.367 . S
C2960 C2968 1.378 . S
C2961 C2960 1.367 . S
C2961 C2969 1.433 . S
C2962 H2958 0.929 . S
C2962 C2964 1.378 . S
C2962 C2966 1.350 . S
C2963 C2966 1.463 . S
C2963 C2968 1.350 . S
C2963 N2971 1.427 . S
C2964 H2955 0.930 . S
C2964 C2962 1.378 . S
C2964 C2965 1.367 . S
C2965 C2964 1.367 . S
C2965 C2967 1.433 . S
C2966 C2962 1.350 . S
C2966 C2963 1.463 . S
C2966 N2970 1.427 . S
C2967 H2957 0.929 . S
C2967 C2965 1.433 . S
C2967 N2970 1.384 . S
C2968 H2959 0.929 . S
C2968 C2960 1.378 . S
C2968 C2963 1.350 . S
C2969 H2956 0.929 . S
C2969 C2961 1.433 . S
C2969 N2971 1.384 . S
N2970 C2966 1.427 . S
N2970 C2967 1.384 . S
N2971 C2963 1.427 . S
N2971 C2969 1.384 . S
H2972 C2978 0.930 . S
H2973 C2982 0.930 . S
H2974 C2987 0.929 . S
H2975 C2985 0.929 . S
H2976 C2980 0.929 . S
H2977 C2986 0.929 . S
C2978 H2972 0.930 . S
C2978 C2979 1.367 . S
C2978 C2986 1.378 . S
C2979 C2978 1.367 . S
C2979 C2987 1.433 . S
C2980 H2976 0.929 . S
C2980 C2982 1.378 . S
C2980 C2984 1.350 . S
C2981 C2984 1.463 . S
C2981 C2986 1.350 . S
C2981 N2989 1.427 . S
C2982 H2973 0.930 . S
C2982 C2980 1.378 . S
C2982 C2983 1.367 . S
C2983 C2982 1.367 . S
C2983 C2985 1.433 1_556 S
C2984 C2980 1.350 . S
C2984 C2981 1.463 . S
C2984 N2988 1.427 . S
C2985 H2975 0.929 . S
C2985 C2983 1.433 1_554 S
C2985 N2988 1.384 1_554 S
C2986 H2977 0.929 . S
C2986 C2978 1.378 . S
C2986 C2981 1.350 . S
C2987 H2974 0.929 . S
C2987 C2979 1.433 . S
C2987 N2989 1.384 . S
N2988 C2984 1.427 . S
N2988 C2985 1.384 1_556 S
N2989 C2981 1.427 . S
N2989 C2987 1.384 . S
H2990 C2996 0.930 . S
H2991 C3000 0.930 . S
H2992 C3005 0.929 . S
H2993 C3003 0.929 . S
H2994 C2998 0.929 . S
H2995 C3004 0.929 . S
C2996 H2990 0.930 . S
C2996 C2997 1.367 . S
C2996 C3004 1.378 . S
C2997 C2996 1.367 . S
C2997 C3005 1.433 . S
C2998 H2994 0.929 . S
C2998 C3000 1.378 . S
C2998 C3002 1.350 . S
C2999 C3002 1.463 . S
C2999 C3004 1.350 . S
C2999 N3007 1.427 . S
C3000 H2991 0.930 . S
C3000 C2998 1.378 . S
C3000 C3001 1.367 . S
C3001 C3000 1.367 . S
C3001 C3003 1.433 . S
C3002 C2998 1.350 . S
C3002 C2999 1.463 . S
C3002 N3006 1.427 . S
C3003 H2993 0.929 . S
C3003 C3001 1.433 . S
C3003 N3006 1.384 . S
C3004 H2995 0.929 . S
C3004 C2996 1.378 . S
C3004 C2999 1.350 . S
C3005 H2992 0.929 . S
C3005 C2997 1.433 . S
C3005 N3007 1.384 . S
N3006 C3002 1.427 . S
N3006 C3003 1.384 . S
N3007 C2999 1.427 . S
N3007 C3005 1.384 . S
H3008 C3014 0.930 . S
H3009 C3018 0.930 . S
H3010 C3023 0.929 . S
H3011 C3021 0.929 . S
H3012 C3016 0.929 . S
H3013 C3022 0.929 . S
C3014 H3008 0.930 . S
C3014 C3015 1.367 1_545 S
C3014 C3022 1.378 . S
C3015 C3014 1.367 1_565 S
C3015 C3023 1.433 . S
C3016 H3012 0.929 . S
C3016 C3018 1.378 . S
C3016 C3020 1.350 1_565 S
C3017 C3020 1.463 . S
C3017 C3022 1.350 . S
C3017 N3025 1.427 1_545 S
C3018 H3009 0.930 . S
C3018 C3016 1.378 . S
C3018 C3019 1.367 1_565 S
C3019 C3018 1.367 1_545 S
C3019 C3021 1.433 . S
C3020 C3016 1.350 1_545 S
C3020 C3017 1.463 . S
C3020 N3024 1.427 . S
C3021 H3011 0.929 . S
C3021 C3019 1.433 . S
C3021 N3024 1.384 . S
C3022 H3013 0.929 . S
C3022 C3014 1.378 . S
C3022 C3017 1.350 . S
C3023 H3010 0.929 . S
C3023 C3015 1.433 . S
C3023 N3025 1.384 . S
N3024 C3020 1.427 . S
N3024 C3021 1.384 . S
N3025 C3017 1.427 1_565 S
N3025 C3023 1.384 . S
H3026 C3032 0.930 . S
H3027 C3036 0.930 . S
H3028 C3041 0.929 . S
H3029 C3039 0.929 . S
H3030 C3034 0.929 . S
H3031 C3040 0.929 . S
C3032 H3026 0.930 . S
C3032 C3033 1.367 . S
C3032 C3040 1.378 . S
C3033 C3032 1.367 . S
C3033 C3041 1.433 . S
C3034 H3030 0.929 . S
C3034 C3036 1.378 . S
C3034 C3038 1.350 . S
C3035 C3038 1.463 . S
C3035 C3040 1.350 . S
C3035 N3043 1.427 . S
C3036 H3027 0.930 . S
C3036 C3034 1.378 . S
C3036 C3037 1.367 . S
C3037 C3036 1.367 . S
C3037 C3039 1.433 . S
C3038 C3034 1.350 . S
C3038 C3035 1.463 . S
C3038 N3042 1.427 . S
C3039 H3029 0.929 . S
C3039 C3037 1.433 . S
C3039 N3042 1.384 . S
C3040 H3031 0.929 . S
C3040 C3032 1.378 . S
C3040 C3035 1.350 . S
C3041 H3028 0.929 . S
C3041 C3033 1.433 . S
C3041 N3043 1.384 . S
N3042 C3038 1.427 . S
N3042 C3039 1.384 . S
N3043 C3035 1.427 . S
N3043 C3041 1.384 . S
H3044 C3050 0.930 . S
H3045 C3054 0.930 . S
H3046 C3059 0.929 . S
H3047 C3057 0.929 . S
H3048 C3052 0.929 . S
H3049 C3058 0.929 . S
C3050 H3044 0.930 . S
C3050 C3051 1.367 . S
C3050 C3058 1.378 . S
C3051 C3050 1.367 . S
C3051 C3059 1.433 . S
C3052 H3048 0.929 . S
C3052 C3054 1.378 . S
C3052 C3056 1.350 . S
C3053 C3056 1.463 . S
C3053 C3058 1.350 . S
C3053 N3061 1.427 . S
C3054 H3045 0.930 . S
C3054 C3052 1.378 . S
C3054 C3055 1.367 . S
C3055 C3054 1.367 . S
C3055 C3057 1.433 . S
C3056 C3052 1.350 . S
C3056 C3053 1.463 . S
C3056 N3060 1.427 . S
C3057 H3047 0.929 . S
C3057 C3055 1.433 . S
C3057 N3060 1.384 . S
C3058 H3049 0.929 . S
C3058 C3050 1.378 . S
C3058 C3053 1.350 . S
C3059 H3046 0.929 . S
C3059 C3051 1.433 . S
C3059 N3061 1.384 . S
N3060 C3056 1.427 . S
N3060 C3057 1.384 . S
N3061 C3053 1.427 . S
N3061 C3059 1.384 . S
H3062 C3068 0.930 . S
H3063 C3072 0.930 . S
H3064 C3077 0.929 . S
H3065 C3075 0.929 . S
H3066 C3070 0.929 . S
H3067 C3076 0.929 . S
C3068 H3062 0.930 . S
C3068 C3069 1.367 . S
C3068 C3076 1.378 . S
C3069 C3068 1.367 . S
C3069 C3077 1.433 . S
C3070 H3066 0.929 . S
C3070 C3072 1.378 . S
C3070 C3074 1.350 . S
C3071 C3074 1.463 . S
C3071 C3076 1.350 . S
C3071 N3079 1.427 . S
C3072 H3063 0.930 . S
C3072 C3070 1.378 . S
C3072 C3073 1.367 . S
C3073 C3072 1.367 . S
C3073 C3075 1.433 . S
C3074 C3070 1.350 . S
C3074 C3071 1.463 . S
C3074 N3078 1.427 . S
C3075 H3065 0.929 . S
C3075 C3073 1.433 . S
C3075 N3078 1.384 . S
C3076 H3067 0.929 . S
C3076 C3068 1.378 . S
C3076 C3071 1.350 . S
C3077 H3064 0.929 . S
C3077 C3069 1.433 . S
C3077 N3079 1.384 . S
N3078 C3074 1.427 . S
N3078 C3075 1.384 . S
N3079 C3071 1.427 . S
N3079 C3077 1.384 . S
H3080 C3086 0.930 . S
H3081 C3090 0.930 1_655 S
H3082 C3095 0.929 . S
H3083 C3093 0.929 . S
H3084 C3088 0.929 . S
H3085 C3094 0.929 . S
C3086 H3080 0.930 . S
C3086 C3087 1.367 . S
C3086 C3094 1.378 1_565 S
C3087 C3086 1.367 . S
C3087 C3095 1.433 . S
C3088 H3084 0.929 . S
C3088 C3090 1.378 . S
C3088 C3092 1.350 . S
C3089 C3092 1.463 . S
C3089 C3094 1.350 . S
C3089 N3097 1.427 1_545 S
C3090 H3081 0.930 1_455 S
C3090 C3088 1.378 . S
C3090 C3091 1.367 . S
C3091 C3090 1.367 . S
C3091 C3093 1.433 . S
C3092 C3088 1.350 . S
C3092 C3089 1.463 . S
C3092 N3096 1.427 . S
C3093 H3083 0.929 . S
C3093 C3091 1.433 . S
C3093 N3096 1.384 . S
C3094 H3085 0.929 . S
C3094 C3086 1.378 1_545 S
C3094 C3089 1.350 . S
C3095 H3082 0.929 . S
C3095 C3087 1.433 . S
C3095 N3097 1.384 . S
N3096 C3092 1.427 . S
N3096 C3093 1.384 . S
N3097 C3089 1.427 1_565 S
N3097 C3095 1.384 . S
H3098 C3104 0.930 . S
H3099 C3108 0.930 . S
H3100 C3113 0.929 . S
H3101 C3111 0.929 . S
H3102 C3106 0.929 . S
H3103 C3112 0.929 . S
C3104 H3098 0.930 . S
C3104 C3105 1.367 . S
C3104 C3112 1.378 . S
C3105 C3104 1.367 . S
C3105 C3113 1.433 . S
C3106 H3102 0.929 . S
C3106 C3108 1.378 . S
C3106 C3110 1.350 . S
C3107 C3110 1.463 . S
C3107 C3112 1.350 . S
C3107 N3115 1.427 . S
C3108 H3099 0.930 . S
C3108 C3106 1.378 . S
C3108 C3109 1.367 . S
C3109 C3108 1.367 . S
C3109 C3111 1.433 . S
C3110 C3106 1.350 . S
C3110 C3107 1.463 . S
C3110 N3114 1.427 . S
C3111 H3101 0.929 . S
C3111 C3109 1.433 . S
C3111 N3114 1.384 . S
C3112 H3103 0.929 . S
C3112 C3104 1.378 . S
C3112 C3107 1.350 . S
C3113 H3100 0.929 . S
C3113 C3105 1.433 . S
C3113 N3115 1.384 . S
N3114 C3110 1.427 . S
N3114 C3111 1.384 . S
N3115 C3107 1.427 . S
N3115 C3113 1.384 . S
H3116 C3122 0.930 . S
H3117 C3126 0.930 1_565 S
H3118 C3131 0.929 . S
H3119 C3129 0.929 . S
H3120 C3124 0.929 . S
H3121 C3130 0.929 . S
C3122 H3116 0.930 . S
C3122 C3123 1.367 . S
C3122 C3130 1.378 . S
C3123 C3122 1.367 . S
C3123 C3131 1.433 . S
C3124 H3120 0.929 . S
C3124 C3126 1.378 . S
C3124 C3128 1.350 . S
C3125 C3128 1.463 . S
C3125 C3130 1.350 . S
C3125 N3133 1.427 . S
C3126 H3117 0.930 1_545 S
C3126 C3124 1.378 . S
C3126 C3127 1.367 . S
C3127 C3126 1.367 . S
C3127 C3129 1.433 . S
C3128 C3124 1.350 . S
C3128 C3125 1.463 . S
C3128 N3132 1.427 . S
C3129 H3119 0.929 . S
C3129 C3127 1.433 . S
C3129 N3132 1.384 . S
C3130 H3121 0.929 . S
C3130 C3122 1.378 . S
C3130 C3125 1.350 . S
C3131 H3118 0.929 . S
C3131 C3123 1.433 . S
C3131 N3133 1.384 . S
N3132 C3128 1.427 . S
N3132 C3129 1.384 . S
N3133 C3125 1.427 . S
N3133 C3131 1.384 . S
H3134 C3140 0.930 . S
H3135 C3144 0.930 . S
H3136 C3149 0.929 . S
H3137 C3147 0.929 . S
H3138 C3142 0.929 . S
H3139 C3148 0.929 . S
C3140 H3134 0.930 . S
C3140 C3141 1.367 . S
C3140 C3148 1.378 . S
C3141 C3140 1.367 . S
C3141 C3149 1.433 . S
C3142 H3138 0.929 . S
C3142 C3144 1.378 . S
C3142 C3146 1.350 . S
C3143 C3146 1.463 . S
C3143 C3148 1.350 . S
C3143 N3151 1.427 . S
C3144 H3135 0.930 . S
C3144 C3142 1.378 . S
C3144 C3145 1.367 . S
C3145 C3144 1.367 . S
C3145 C3147 1.433 . S
C3146 C3142 1.350 . S
C3146 C3143 1.463 . S
C3146 N3150 1.427 . S
C3147 H3137 0.929 . S
C3147 C3145 1.433 . S
C3147 N3150 1.384 . S
C3148 H3139 0.929 . S
C3148 C3140 1.378 . S
C3148 C3143 1.350 . S
C3149 H3136 0.929 . S
C3149 C3141 1.433 . S
C3149 N3151 1.384 . S
N3150 C3146 1.427 . S
N3150 C3147 1.384 . S
N3151 C3143 1.427 . S
N3151 C3149 1.384 . S
H3152 C3158 0.930 . S
H3153 C3162 0.930 . S
H3154 C3167 0.929 . S
H3155 C3165 0.929 . S
H3156 C3160 0.929 . S
H3157 C3166 0.929 . S
C3158 H3152 0.930 . S
C3158 C3159 1.367 1_556 S
C3158 C3166 1.378 . S
C3159 C3158 1.367 1_554 S
C3159 C3167 1.433 . S
C3160 H3156 0.929 . S
C3160 C3162 1.378 . S
C3160 C3164 1.350 . S
C3161 C3164 1.463 . S
C3161 C3166 1.350 1_554 S
C3161 N3169 1.427 . S
C3162 H3153 0.930 . S
C3162 C3160 1.378 . S
C3162 C3163 1.367 . S
C3163 C3162 1.367 . S
C3163 C3165 1.433 1_554 S
C3164 C3160 1.350 . S
C3164 C3161 1.463 . S
C3164 N3168 1.427 1_554 S
C3165 H3155 0.929 . S
C3165 C3163 1.433 1_556 S
C3165 N3168 1.384 . S
C3166 H3157 0.929 . S
C3166 C3158 1.378 . S
C3166 C3161 1.350 1_556 S
C3167 H3154 0.929 . S
C3167 C3159 1.433 . S
C3167 N3169 1.384 . S
N3168 C3164 1.427 1_556 S
N3168 C3165 1.384 . S
N3169 C3161 1.427 . S
N3169 C3167 1.384 . S
H3170 C3176 0.930 . S
H3171 C3180 0.930 1_556 S
H3172 C3185 0.929 . S
H3173 C3183 0.929 . S
H3174 C3178 0.929 1_556 S
H3175 C3184 0.929 . S
C3176 H3170 0.930 . S
C3176 C3177 1.367 . S
C3176 C3184 1.378 . S
C3177 C3176 1.367 . S
C3177 C3185 1.433 . S
C3178 H3174 0.929 1_554 S
C3178 C3180 1.378 . S
C3178 C3182 1.350 . S
C3179 C3182 1.463 . S
C3179 C3184 1.350 . S
C3179 N3187 1.427 . S
C3180 H3171 0.930 1_554 S
C3180 C3178 1.378 . S
C3180 C3181 1.367 . S
C3181 C3180 1.367 . S
C3181 C3183 1.433 . S
C3182 C3178 1.350 . S
C3182 C3179 1.463 . S
C3182 N3186 1.427 . S
C3183 H3173 0.929 . S
C3183 C3181 1.433 . S
C3183 N3186 1.384 . S
C3184 H3175 0.929 . S
C3184 C3176 1.378 . S
C3184 C3179 1.350 . S
C3185 H3172 0.929 . S
C3185 C3177 1.433 . S
C3185 N3187 1.384 . S
N3186 C3182 1.427 . S
N3186 C3183 1.384 . S
N3187 C3179 1.427 . S
N3187 C3185 1.384 . S
H3188 C3194 0.930 . S
H3189 C3198 0.930 . S
H3190 C3203 0.929 . S
H3191 C3201 0.929 . S
H3192 C3196 0.929 . S
H3193 C3202 0.929 . S
C3194 H3188 0.930 . S
C3194 C3195 1.367 . S
C3194 C3202 1.378 . S
C3195 C3194 1.367 . S
C3195 C3203 1.433 . S
C3196 H3192 0.929 . S
C3196 C3198 1.378 . S
C3196 C3200 1.350 . S
C3197 C3200 1.463 . S
C3197 C3202 1.350 . S
C3197 N3205 1.427 . S
C3198 H3189 0.930 . S
C3198 C3196 1.378 . S
C3198 C3199 1.367 . S
C3199 C3198 1.367 . S
C3199 C3201 1.433 . S
C3200 C3196 1.350 . S
C3200 C3197 1.463 . S
C3200 N3204 1.427 . S
C3201 H3191 0.929 . S
C3201 C3199 1.433 . S
C3201 N3204 1.384 . S
C3202 H3193 0.929 . S
C3202 C3194 1.378 . S
C3202 C3197 1.350 . S
C3203 H3190 0.929 . S
C3203 C3195 1.433 . S
C3203 N3205 1.384 . S
N3204 C3200 1.427 . S
N3204 C3201 1.384 . S
N3205 C3197 1.427 . S
N3205 C3203 1.384 . S
H3206 C3212 0.930 . S
H3207 C3216 0.930 . S
H3208 C3221 0.929 . S
H3209 C3219 0.929 . S
H3210 C3214 0.929 . S
H3211 C3220 0.929 . S
C3212 H3206 0.930 . S
C3212 C3213 1.367 . S
C3212 C3220 1.378 . S
C3213 C3212 1.367 . S
C3213 C3221 1.433 . S
C3214 H3210 0.929 . S
C3214 C3216 1.378 . S
C3214 C3218 1.350 . S
C3215 C3218 1.463 . S
C3215 C3220 1.350 . S
C3215 N3223 1.427 . S
C3216 H3207 0.930 . S
C3216 C3214 1.378 . S
C3216 C3217 1.367 . S
C3217 C3216 1.367 . S
C3217 C3219 1.433 . S
C3218 C3214 1.350 . S
C3218 C3215 1.463 . S
C3218 N3222 1.427 . S
C3219 H3209 0.929 . S
C3219 C3217 1.433 . S
C3219 N3222 1.384 . S
C3220 H3211 0.929 . S
C3220 C3212 1.378 . S
C3220 C3215 1.350 . S
C3221 H3208 0.929 . S
C3221 C3213 1.433 . S
C3221 N3223 1.384 . S
N3222 C3218 1.427 . S
N3222 C3219 1.384 . S
N3223 C3215 1.427 . S
N3223 C3221 1.384 . S
H3224 C3230 0.930 . S
H3225 C3234 0.930 . S
H3226 C3239 0.929 . S
H3227 C3237 0.929 . S
H3228 C3232 0.929 . S
H3229 C3238 0.929 . S
C3230 H3224 0.930 . S
C3230 C3231 1.367 . S
C3230 C3238 1.378 . S
C3231 C3230 1.367 . S
C3231 C3239 1.433 . S
C3232 H3228 0.929 . S
C3232 C3234 1.378 . S
C3232 C3236 1.350 . S
C3233 C3236 1.463 . S
C3233 C3238 1.350 . S
C3233 N3241 1.427 . S
C3234 H3225 0.930 . S
C3234 C3232 1.378 . S
C3234 C3235 1.367 . S
C3235 C3234 1.367 . S
C3235 C3237 1.433 . S
C3236 C3232 1.350 . S
C3236 C3233 1.463 . S
C3236 N3240 1.427 . S
C3237 H3227 0.929 . S
C3237 C3235 1.433 . S
C3237 N3240 1.384 . S
C3238 H3229 0.929 . S
C3238 C3230 1.378 . S
C3238 C3233 1.350 . S
C3239 H3226 0.929 . S
C3239 C3231 1.433 . S
C3239 N3241 1.384 . S
N3240 C3236 1.427 . S
N3240 C3237 1.384 . S
N3241 C3233 1.427 . S
N3241 C3239 1.384 . S
H3242 C3248 0.930 . S
H3243 C3252 0.930 1_545 S
H3244 C3257 0.929 . S
H3245 C3255 0.929 . S
H3246 C3250 0.929 . S
H3247 C3256 0.929 . S
C3248 H3242 0.930 . S
C3248 C3249 1.367 . S
C3248 C3256 1.378 . S
C3249 C3248 1.367 . S
C3249 C3257 1.433 . S
C3250 H3246 0.929 . S
C3250 C3252 1.378 . S
C3250 C3254 1.350 . S
C3251 C3254 1.463 . S
C3251 C3256 1.350 . S
C3251 N3259 1.427 . S
C3252 H3243 0.930 1_565 S
C3252 C3250 1.378 . S
C3252 C3253 1.367 . S
C3253 C3252 1.367 . S
C3253 C3255 1.433 . S
C3254 C3250 1.350 . S
C3254 C3251 1.463 . S
C3254 N3258 1.427 . S
C3255 H3245 0.929 . S
C3255 C3253 1.433 . S
C3255 N3258 1.384 . S
C3256 H3247 0.929 . S
C3256 C3248 1.378 . S
C3256 C3251 1.350 . S
C3257 H3244 0.929 . S
C3257 C3249 1.433 . S
C3257 N3259 1.384 . S
N3258 C3254 1.427 . S
N3258 C3255 1.384 . S
N3259 C3251 1.427 . S
N3259 C3257 1.384 . S
H3260 C3266 0.930 . S
H3261 C3270 0.930 . S
H3262 C3275 0.929 . S
H3263 C3273 0.929 . S
H3264 C3268 0.929 . S
H3265 C3274 0.929 . S
C3266 H3260 0.930 . S
C3266 C3267 1.367 . S
C3266 C3274 1.378 . S
C3267 C3266 1.367 . S
C3267 C3275 1.433 . S
C3268 H3264 0.929 . S
C3268 C3270 1.378 . S
C3268 C3272 1.350 . S
C3269 C3272 1.463 . S
C3269 C3274 1.350 . S
C3269 N3277 1.427 . S
C3270 H3261 0.930 . S
C3270 C3268 1.378 . S
C3270 C3271 1.367 . S
C3271 C3270 1.367 . S
C3271 C3273 1.433 . S
C3272 C3268 1.350 . S
C3272 C3269 1.463 . S
C3272 N3276 1.427 . S
C3273 H3263 0.929 . S
C3273 C3271 1.433 . S
C3273 N3276 1.384 . S
C3274 H3265 0.929 . S
C3274 C3266 1.378 . S
C3274 C3269 1.350 . S
C3275 H3262 0.929 . S
C3275 C3267 1.433 . S
C3275 N3277 1.384 . S
N3276 C3272 1.427 . S
N3276 C3273 1.384 . S
N3277 C3269 1.427 . S
N3277 C3275 1.384 . S
H3278 C3284 0.930 . S
H3279 C3288 0.930 . S
H3280 C3293 0.929 . S
H3281 C3291 0.929 . S
H3282 C3286 0.929 . S
H3283 C3292 0.929 . S
C3284 H3278 0.930 . S
C3284 C3285 1.367 . S
C3284 C3292 1.378 . S
C3285 C3284 1.367 . S
C3285 C3293 1.433 . S
C3286 H3282 0.929 . S
C3286 C3288 1.378 . S
C3286 C3290 1.350 . S
C3287 C3290 1.463 . S
C3287 C3292 1.350 . S
C3287 N3295 1.427 . S
C3288 H3279 0.930 . S
C3288 C3286 1.378 . S
C3288 C3289 1.367 . S
C3289 C3288 1.367 . S
C3289 C3291 1.433 . S
C3290 C3286 1.350 . S
C3290 C3287 1.463 . S
C3290 N3294 1.427 . S
C3291 H3281 0.929 . S
C3291 C3289 1.433 . S
C3291 N3294 1.384 . S
C3292 H3283 0.929 . S
C3292 C3284 1.378 . S
C3292 C3287 1.350 . S
C3293 H3280 0.929 . S
C3293 C3285 1.433 . S
C3293 N3295 1.384 . S
N3294 C3290 1.427 . S
N3294 C3291 1.384 . S
N3295 C3287 1.427 . S
N3295 C3293 1.384 . S
H3296 C3302 0.930 . S
H3297 C3306 0.930 . S
H3298 C3311 0.929 . S
H3299 C3309 0.929 . S
H3300 C3304 0.929 . S
H3301 C3310 0.929 . S
C3302 H3296 0.930 . S
C3302 C3303 1.367 . S
C3302 C3310 1.378 . S
C3303 C3302 1.367 . S
C3303 C3311 1.433 . S
C3304 H3300 0.929 . S
C3304 C3306 1.378 . S
C3304 C3308 1.350 . S
C3305 C3308 1.463 . S
C3305 C3310 1.350 . S
C3305 N3313 1.427 . S
C3306 H3297 0.930 . S
C3306 C3304 1.378 . S
C3306 C3307 1.367 . S
C3307 C3306 1.367 . S
C3307 C3309 1.433 . S
C3308 C3304 1.350 . S
C3308 C3305 1.463 . S
C3308 N3312 1.427 . S
C3309 H3299 0.929 . S
C3309 C3307 1.433 . S
C3309 N3312 1.384 . S
C3310 H3301 0.929 . S
C3310 C3302 1.378 . S
C3310 C3305 1.350 . S
C3311 H3298 0.929 . S
C3311 C3303 1.433 . S
C3311 N3313 1.384 . S
N3312 C3308 1.427 . S
N3312 C3309 1.384 . S
N3313 C3305 1.427 . S
N3313 C3311 1.384 . S
H3314 C3320 0.930 . S
H3315 C3324 0.930 . S
H3316 C3329 0.929 . S
H3317 C3327 0.929 . S
H3318 C3322 0.929 . S
H3319 C3328 0.929 . S
C3320 H3314 0.930 . S
C3320 C3321 1.367 . S
C3320 C3328 1.378 . S
C3321 C3320 1.367 . S
C3321 C3329 1.433 . S
C3322 H3318 0.929 . S
C3322 C3324 1.378 . S
C3322 C3326 1.350 . S
C3323 C3326 1.463 . S
C3323 C3328 1.350 . S
C3323 N3331 1.427 . S
C3324 H3315 0.930 . S
C3324 C3322 1.378 . S
C3324 C3325 1.367 . S
C3325 C3324 1.367 . S
C3325 C3327 1.433 . S
C3326 C3322 1.350 . S
C3326 C3323 1.463 . S
C3326 N3330 1.427 . S
C3327 H3317 0.929 . S
C3327 C3325 1.433 . S
C3327 N3330 1.384 . S
C3328 H3319 0.929 . S
C3328 C3320 1.378 . S
C3328 C3323 1.350 . S
C3329 H3316 0.929 . S
C3329 C3321 1.433 . S
C3329 N3331 1.384 . S
N3330 C3326 1.427 . S
N3330 C3327 1.384 . S
N3331 C3323 1.427 . S
N3331 C3329 1.384 . S
H3332 C3338 0.930 . S
H3333 C3342 0.930 . S
H3334 C3347 0.906 1_655 S
H3335 C3345 0.929 1_554 S
H3336 C3340 0.929 . S
H3337 C3346 0.929 . S
C3338 H3332 0.930 . S
C3338 C3339 1.367 . S
C3338 C3346 1.378 . S
C3339 C3338 1.367 . S
C3339 C3347 1.470 . S
C3340 H3336 0.929 . S
C3340 C3342 1.378 . S
C3340 C3344 1.350 1_655 S
C3341 C3344 1.463 . S
C3341 C3346 1.350 . S
C3341 N3349 1.427 1_455 S
C3342 H3333 0.930 . S
C3342 C3340 1.378 . S
C3342 C3343 1.367 1_655 S
C3343 C3342 1.367 1_455 S
C3343 C3345 1.433 . S
C3344 C3340 1.350 1_455 S
C3344 C3341 1.463 . S
C3344 N3348 1.427 . S
C3345 H3335 0.929 1_556 S
C3345 C3343 1.433 . S
C3345 N3348 1.384 . S
C3346 H3337 0.929 . S
C3346 C3338 1.378 . S
C3346 C3341 1.350 . S
C3347 H3334 0.906 1_455 S
C3347 C3339 1.470 . S
C3347 N3349 1.372 1_455 S
N3348 C3344 1.427 . S
N3348 C3345 1.384 . S
N3349 C3341 1.427 1_655 S
N3349 C3347 1.372 1_655 S
H3350 C3356 0.930 . S
H3351 C3360 0.930 . S
H3352 C3365 0.929 . S
H3353 C3363 0.929 . S
H3354 C3358 0.929 . S
H3355 C3364 0.929 . S
C3356 H3350 0.930 . S
C3356 C3357 1.367 . S
C3356 C3364 1.378 . S
C3357 C3356 1.367 . S
C3357 C3365 1.433 . S
C3358 H3354 0.929 . S
C3358 C3360 1.378 . S
C3358 C3362 1.350 . S
C3359 C3362 1.463 . S
C3359 C3364 1.350 . S
C3359 N3367 1.427 . S
C3360 H3351 0.930 . S
C3360 C3358 1.378 . S
C3360 C3361 1.367 . S
C3361 C3360 1.367 . S
C3361 C3363 1.433 . S
C3362 C3358 1.350 . S
C3362 C3359 1.463 . S
C3362 N3366 1.427 . S
C3363 H3353 0.929 . S
C3363 C3361 1.433 . S
C3363 N3366 1.384 . S
C3364 H3355 0.929 . S
C3364 C3356 1.378 . S
C3364 C3359 1.350 . S
C3365 H3352 0.929 . S
C3365 C3357 1.433 . S
C3365 N3367 1.384 . S
N3366 C3362 1.427 . S
N3366 C3363 1.384 . S
N3367 C3359 1.427 . S
N3367 C3365 1.384 . S
H3368 C3374 0.930 . S
H3369 C3378 0.930 . S
H3370 C3383 0.929 . S
H3371 C3381 0.929 . S
H3372 C3376 0.929 . S
H3373 C3382 0.929 . S
C3374 H3368 0.930 . S
C3374 C3375 1.367 . S
C3374 C3382 1.378 . S
C3375 C3374 1.367 . S
C3375 C3383 1.433 . S
C3376 H3372 0.929 . S
C3376 C3378 1.378 . S
C3376 C3380 1.350 . S
C3377 C3380 1.463 . S
C3377 C3382 1.350 . S
C3377 N3385 1.427 . S
C3378 H3369 0.930 . S
C3378 C3376 1.378 . S
C3378 C3379 1.367 . S
C3379 C3378 1.367 . S
C3379 C3381 1.433 . S
C3380 C3376 1.350 . S
C3380 C3377 1.463 . S
C3380 N3384 1.427 . S
C3381 H3371 0.929 . S
C3381 C3379 1.433 . S
C3381 N3384 1.384 . S
C3382 H3373 0.929 . S
C3382 C3374 1.378 . S
C3382 C3377 1.350 . S
C3383 H3370 0.929 . S
C3383 C3375 1.433 . S
C3383 N3385 1.384 . S
N3384 C3380 1.427 . S
N3384 C3381 1.384 . S
N3385 C3377 1.427 . S
N3385 C3383 1.384 . S
H3386 C3392 0.930 . S
H3387 C3396 0.930 . S
H3388 C3401 0.929 . S
H3389 C3399 0.929 . S
H3390 C3394 0.929 . S
H3391 C3400 0.929 . S
C3392 H3386 0.930 . S
C3392 C3393 1.367 . S
C3392 C3400 1.378 . S
C3393 C3392 1.367 . S
C3393 C3401 1.433 . S
C3394 H3390 0.929 . S
C3394 C3396 1.378 . S
C3394 C3398 1.350 . S
C3395 C3398 1.463 . S
C3395 C3400 1.350 . S
C3395 N3403 1.427 . S
C3396 H3387 0.930 . S
C3396 C3394 1.378 . S
C3396 C3397 1.367 . S
C3397 C3396 1.367 . S
C3397 C3399 1.433 . S
C3398 C3394 1.350 . S
C3398 C3395 1.463 . S
C3398 N3402 1.427 . S
C3399 H3389 0.929 . S
C3399 C3397 1.433 . S
C3399 N3402 1.384 . S
C3400 H3391 0.929 . S
C3400 C3392 1.378 . S
C3400 C3395 1.350 . S
C3401 H3388 0.929 . S
C3401 C3393 1.433 . S
C3401 N3403 1.384 . S
N3402 C3398 1.427 . S
N3402 C3399 1.384 . S
N3403 C3395 1.427 . S
N3403 C3401 1.384 . S
H3404 C3410 0.930 . S
H3405 C3414 0.930 . S
H3406 C3419 0.929 . S
H3407 C3417 0.929 . S
H3408 C3412 0.929 . S
H3409 C3418 0.929 . S
C3410 H3404 0.930 . S
C3410 C3411 1.367 . S
C3410 C3418 1.378 . S
C3411 C3410 1.367 . S
C3411 C3419 1.433 1_655 S
C3412 H3408 0.929 . S
C3412 C3414 1.378 . S
C3412 C3416 1.350 1_455 S
C3413 C3416 1.463 . S
C3413 C3418 1.350 . S
C3413 N3421 1.427 1_655 S
C3414 H3405 0.930 . S
C3414 C3412 1.378 . S
C3414 C3415 1.381 . S
C3415 C3414 1.381 . S
C3415 C3417 1.412 1_455 S
C3416 C3412 1.350 1_655 S
C3416 C3413 1.463 . S
C3416 N3420 1.427 . S
C3417 H3407 0.929 . S
C3417 C3415 1.412 1_655 S
C3417 N3420 1.384 . S
C3418 H3409 0.929 . S
C3418 C3410 1.378 . S
C3418 C3413 1.350 . S
C3419 H3406 0.929 . S
C3419 C3411 1.433 1_455 S
C3419 N3421 1.384 . S
N3420 C3416 1.427 . S
N3420 C3417 1.384 . S
N3421 C3413 1.427 1_455 S
N3421 C3419 1.384 . S
H3422 C3428 0.930 . S
H3423 C3432 0.930 . S
H3424 C3437 0.929 . S
H3425 C3435 0.929 . S
H3426 C3430 0.929 . S
H3427 C3436 0.929 . S
C3428 H3422 0.930 . S
C3428 C3429 1.367 . S
C3428 C3436 1.378 . S
C3429 C3428 1.367 . S
C3429 C3437 1.433 . S
C3430 H3426 0.929 . S
C3430 C3432 1.378 . S
C3430 C3434 1.350 . S
C3431 C3434 1.463 . S
C3431 C3436 1.350 . S
C3431 N3439 1.427 . S
C3432 H3423 0.930 . S
C3432 C3430 1.378 . S
C3432 C3433 1.367 . S
C3433 C3432 1.367 . S
C3433 C3435 1.433 . S
C3434 C3430 1.350 . S
C3434 C3431 1.463 . S
C3434 N3438 1.427 . S
C3435 H3425 0.929 . S
C3435 C3433 1.433 . S
C3435 N3438 1.384 . S
C3436 H3427 0.929 . S
C3436 C3428 1.378 . S
C3436 C3431 1.350 . S
C3437 H3424 0.929 . S
C3437 C3429 1.433 . S
C3437 N3439 1.384 . S
N3438 C3434 1.427 . S
N3438 C3435 1.384 . S
N3439 C3431 1.427 . S
N3439 C3437 1.384 . S
H3440 C3446 0.930 . S
H3441 C3450 0.930 . S
H3442 C3455 0.929 . S
H3443 C3453 0.929 . S
H3444 C3448 0.929 . S
H3445 C3454 0.929 . S
C3446 H3440 0.930 . S
C3446 C3447 1.367 . S
C3446 C3454 1.378 . S
C3447 C3446 1.367 . S
C3447 C3455 1.433 . S
C3448 H3444 0.929 . S
C3448 C3450 1.378 . S
C3448 C3452 1.350 . S
C3449 C3452 1.463 . S
C3449 C3454 1.350 . S
C3449 N3457 1.427 . S
C3450 H3441 0.930 . S
C3450 C3448 1.378 . S
C3450 C3451 1.367 . S
C3451 C3450 1.367 . S
C3451 C3453 1.433 . S
C3452 C3448 1.350 . S
C3452 C3449 1.463 . S
C3452 N3456 1.427 . S
C3453 H3443 0.929 . S
C3453 C3451 1.433 . S
C3453 N3456 1.384 . S
C3454 H3445 0.929 . S
C3454 C3446 1.378 . S
C3454 C3449 1.350 . S
C3455 H3442 0.929 . S
C3455 C3447 1.433 . S
C3455 N3457 1.384 . S
N3456 C3452 1.427 . S
N3456 C3453 1.384 . S
N3457 C3449 1.427 . S
N3457 C3455 1.384 . S
H3458 C3464 0.930 . S
H3459 C3468 0.930 . S
H3460 C3473 0.929 . S
H3461 C3471 0.929 . S
H3462 C3466 0.929 . S
H3463 C3472 0.929 . S
C3464 H3458 0.930 . S
C3464 C3465 1.367 . S
C3464 C3472 1.378 . S
C3465 C3464 1.367 . S
C3465 C3473 1.433 . S
C3466 H3462 0.929 . S
C3466 C3468 1.378 . S
C3466 C3470 1.350 . S
C3467 C3470 1.463 . S
C3467 C3472 1.350 . S
C3467 N3475 1.427 . S
C3468 H3459 0.930 . S
C3468 C3466 1.378 . S
C3468 C3469 1.367 . S
C3469 C3468 1.367 . S
C3469 C3471 1.433 . S
C3470 C3466 1.350 . S
C3470 C3467 1.463 . S
C3470 N3474 1.427 . S
C3471 H3461 0.929 . S
C3471 C3469 1.433 . S
C3471 N3474 1.384 . S
C3472 H3463 0.929 . S
C3472 C3464 1.378 . S
C3472 C3467 1.350 . S
C3473 H3460 0.929 . S
C3473 C3465 1.433 . S
C3473 N3475 1.384 . S
N3474 C3470 1.427 . S
N3474 C3471 1.384 . S
N3475 C3467 1.427 . S
N3475 C3473 1.384 . S
H3476 C3482 0.930 . S
H3477 C3486 0.930 . S
H3478 C3491 0.929 . S
H3479 C3489 0.929 . S
H3480 C3484 0.929 . S
H3481 C3490 0.929 . S
C3482 H3476 0.930 . S
C3482 C3483 1.367 . S
C3482 C3490 1.378 . S
C3483 C3482 1.367 . S
C3483 C3491 1.433 . S
C3484 H3480 0.929 . S
C3484 C3486 1.378 . S
C3484 C3488 1.350 . S
C3485 C3488 1.463 . S
C3485 C3490 1.350 . S
C3485 N3493 1.427 . S
C3486 H3477 0.930 . S
C3486 C3484 1.378 . S
C3486 C3487 1.367 . S
C3487 C3486 1.367 . S
C3487 C3489 1.433 . S
C3488 C3484 1.350 . S
C3488 C3485 1.463 . S
C3488 N3492 1.427 . S
C3489 H3479 0.929 . S
C3489 C3487 1.433 . S
C3489 N3492 1.384 . S
C3490 H3481 0.929 . S
C3490 C3482 1.378 . S
C3490 C3485 1.350 . S
C3491 H3478 0.929 . S
C3491 C3483 1.433 . S
C3491 N3493 1.384 . S
N3492 C3488 1.427 . S
N3492 C3489 1.384 . S
N3493 C3485 1.427 . S
N3493 C3491 1.384 . S
H3494 C3500 0.930 . S
H3495 C3504 0.930 . S
H3496 C3509 0.929 . S
H3497 C3507 0.929 . S
H3498 C3502 0.929 . S
H3499 C3508 0.929 . S
C3500 H3494 0.930 . S
C3500 C3501 1.367 . S
C3500 C3508 1.378 . S
C3501 C3500 1.367 . S
C3501 C3509 1.433 . S
C3502 H3498 0.929 . S
C3502 C3504 1.378 . S
C3502 C3506 1.350 . S
C3503 C3506 1.463 . S
C3503 C3508 1.350 . S
C3503 N3511 1.427 . S
C3504 H3495 0.930 . S
C3504 C3502 1.378 . S
C3504 C3505 1.367 . S
C3505 C3504 1.367 . S
C3505 C3507 1.433 . S
C3506 C3502 1.350 . S
C3506 C3503 1.463 . S
C3506 N3510 1.427 . S
C3507 H3497 0.929 . S
C3507 C3505 1.433 . S
C3507 N3510 1.384 . S
C3508 H3499 0.929 . S
C3508 C3500 1.378 . S
C3508 C3503 1.350 . S
C3509 H3496 0.929 . S
C3509 C3501 1.433 . S
C3509 N3511 1.384 . S
N3510 C3506 1.427 . S
N3510 C3507 1.384 . S
N3511 C3503 1.427 . S
N3511 C3509 1.384 . S
H3512 C3518 0.930 . S
H3513 C3522 0.930 . S
H3514 C3527 0.929 . S
H3515 C3525 0.929 . S
H3516 C3520 0.929 . S
H3517 C3526 0.929 . S
C3518 H3512 0.930 . S
C3518 C3519 1.367 . S
C3518 C3526 1.378 . S
C3519 C3518 1.367 . S
C3519 C3527 1.433 . S
C3520 H3516 0.929 . S
C3520 C3522 1.378 . S
C3520 C3524 1.350 . S
C3521 C3524 1.463 . S
C3521 C3526 1.350 . S
C3521 N3529 1.427 . S
C3522 H3513 0.930 . S
C3522 C3520 1.378 . S
C3522 C3523 1.367 . S
C3523 C3522 1.367 . S
C3523 C3525 1.433 . S
C3524 C3520 1.350 . S
C3524 C3521 1.463 . S
C3524 N3528 1.427 . S
C3525 H3515 0.929 . S
C3525 C3523 1.433 . S
C3525 N3528 1.384 . S
C3526 H3517 0.929 . S
C3526 C3518 1.378 . S
C3526 C3521 1.350 . S
C3527 H3514 0.929 . S
C3527 C3519 1.433 . S
C3527 N3529 1.384 . S
N3528 C3524 1.427 . S
N3528 C3525 1.384 . S
N3529 C3521 1.427 . S
N3529 C3527 1.384 . S
H3530 C3536 0.930 . S
H3531 C3540 0.930 . S
H3532 C3545 0.929 . S
H3533 C3543 0.929 . S
H3534 C3538 0.929 . S
H3535 C3544 0.929 . S
C3536 H3530 0.930 . S
C3536 C3537 1.367 . S
C3536 C3544 1.378 . S
C3537 C3536 1.367 . S
C3537 C3545 1.433 . S
C3538 H3534 0.929 . S
C3538 C3540 1.378 . S
C3538 C3542 1.350 . S
C3539 C3542 1.463 . S
C3539 C3544 1.350 . S
C3539 N3547 1.427 . S
C3540 H3531 0.930 . S
C3540 C3538 1.378 . S
C3540 C3541 1.367 . S
C3541 C3540 1.367 . S
C3541 C3543 1.433 . S
C3542 C3538 1.350 . S
C3542 C3539 1.463 . S
C3542 N3546 1.427 . S
C3543 H3533 0.929 . S
C3543 C3541 1.433 . S
C3543 N3546 1.384 . S
C3544 H3535 0.929 . S
C3544 C3536 1.378 . S
C3544 C3539 1.350 . S
C3545 H3532 0.929 . S
C3545 C3537 1.433 . S
C3545 N3547 1.384 . S
N3546 C3542 1.427 . S
N3546 C3543 1.384 . S
N3547 C3539 1.427 . S
N3547 C3545 1.384 . S
H3548 C3554 0.930 . S
H3549 C3558 0.930 . S
H3550 C3563 0.929 . S
H3551 C3561 0.929 . S
H3552 C3556 0.929 . S
H3553 C3562 0.929 . S
C3554 H3548 0.930 . S
C3554 C3555 1.367 . S
C3554 C3562 1.378 . S
C3555 C3554 1.367 . S
C3555 C3563 1.433 . S
C3556 H3552 0.929 . S
C3556 C3558 1.378 . S
C3556 C3560 1.350 . S
C3557 C3560 1.463 . S
C3557 C3562 1.350 . S
C3557 N3565 1.427 . S
C3558 H3549 0.930 . S
C3558 C3556 1.378 . S
C3558 C3559 1.367 . S
C3559 C3558 1.367 . S
C3559 C3561 1.433 . S
C3560 C3556 1.350 . S
C3560 C3557 1.463 . S
C3560 N3564 1.427 . S
C3561 H3551 0.929 . S
C3561 C3559 1.433 . S
C3561 N3564 1.384 . S
C3562 H3553 0.929 . S
C3562 C3554 1.378 . S
C3562 C3557 1.350 . S
C3563 H3550 0.929 . S
C3563 C3555 1.433 . S
C3563 N3565 1.384 . S
N3564 C3560 1.427 . S
N3564 C3561 1.384 . S
N3565 C3557 1.427 . S
N3565 C3563 1.384 . S
H3566 C3572 0.930 . S
H3567 C3576 0.930 . S
H3568 C3581 0.929 . S
H3569 C3579 0.929 . S
H3570 C3574 0.929 . S
H3571 C3580 0.929 . S
C3572 H3566 0.930 . S
C3572 C3573 1.367 . S
C3572 C3580 1.378 . S
C3573 C3572 1.367 . S
C3573 C3581 1.433 . S
C3574 H3570 0.929 . S
C3574 C3576 1.378 . S
C3574 C3578 1.350 . S
C3575 C3578 1.463 . S
C3575 C3580 1.350 . S
C3575 N3583 1.427 . S
C3576 H3567 0.930 . S
C3576 C3574 1.378 . S
C3576 C3577 1.367 . S
C3577 C3576 1.367 . S
C3577 C3579 1.433 . S
C3578 C3574 1.350 . S
C3578 C3575 1.463 . S
C3578 N3582 1.427 . S
C3579 H3569 0.929 . S
C3579 C3577 1.433 . S
C3579 N3582 1.384 . S
C3580 H3571 0.929 . S
C3580 C3572 1.378 . S
C3580 C3575 1.350 . S
C3581 H3568 0.929 . S
C3581 C3573 1.433 . S
C3581 N3583 1.384 . S
N3582 C3578 1.427 . S
N3582 C3579 1.384 . S
N3583 C3575 1.427 . S
N3583 C3581 1.384 . S
H3584 C3590 0.930 . S
H3585 C3594 0.930 . S
H3586 C3599 0.929 . S
H3587 C3597 0.929 . S
H3588 C3592 0.929 . S
H3589 C3598 0.929 . S
C3590 H3584 0.930 . S
C3590 C3591 1.367 . S
C3590 C3598 1.378 . S
C3591 C3590 1.367 . S
C3591 C3599 1.433 . S
C3592 H3588 0.929 . S
C3592 C3594 1.378 . S
C3592 C3596 1.350 . S
C3593 C3596 1.463 . S
C3593 C3598 1.350 . S
C3593 N3601 1.427 . S
C3594 H3585 0.930 . S
C3594 C3592 1.378 . S
C3594 C3595 1.367 . S
C3595 C3594 1.367 . S
C3595 C3597 1.433 . S
C3596 C3592 1.350 . S
C3596 C3593 1.463 . S
C3596 N3600 1.427 . S
C3597 H3587 0.929 . S
C3597 C3595 1.433 . S
C3597 N3600 1.384 . S
C3598 H3589 0.929 . S
C3598 C3590 1.378 . S
C3598 C3593 1.350 . S
C3599 H3586 0.929 . S
C3599 C3591 1.433 . S
C3599 N3601 1.384 . S
N3600 C3596 1.427 . S
N3600 C3597 1.384 . S
N3601 C3593 1.427 . S
N3601 C3599 1.384 . S
H3602 C3608 0.930 . S
H3603 C3612 0.930 . S
H3604 C3617 0.929 . S
H3605 C3615 0.929 . S
H3606 C3610 0.929 . S
H3607 C3616 0.929 . S
C3608 H3602 0.930 . S
C3608 C3609 1.367 . S
C3608 C3616 1.378 . S
C3609 C3608 1.367 . S
C3609 C3617 1.433 . S
C3610 H3606 0.929 . S
C3610 C3612 1.378 . S
C3610 C3614 1.350 . S
C3611 C3614 1.463 . S
C3611 C3616 1.350 . S
C3611 N3619 1.427 . S
C3612 H3603 0.930 . S
C3612 C3610 1.378 . S
C3612 C3613 1.367 . S
C3613 C3612 1.367 . S
C3613 C3615 1.433 . S
C3614 C3610 1.350 . S
C3614 C3611 1.463 . S
C3614 N3618 1.427 . S
C3615 H3605 0.929 . S
C3615 C3613 1.433 . S
C3615 N3618 1.384 . S
C3616 H3607 0.929 . S
C3616 C3608 1.378 . S
C3616 C3611 1.350 . S
C3617 H3604 0.929 . S
C3617 C3609 1.433 . S
C3617 N3619 1.384 . S
N3618 C3614 1.427 . S
N3618 C3615 1.384 . S
N3619 C3611 1.427 . S
N3619 C3617 1.384 . S
H3620 C3626 0.930 . S
H3621 C3630 0.930 . S
H3622 C3635 0.929 . S
H3623 C3633 0.929 . S
H3624 C3628 0.929 . S
H3625 C3634 0.929 . S
C3626 H3620 0.930 . S
C3626 C3627 1.367 . S
C3626 C3634 1.378 . S
C3627 C3626 1.367 . S
C3627 C3635 1.433 . S
C3628 H3624 0.929 . S
C3628 C3630 1.378 . S
C3628 C3632 1.350 . S
C3629 C3632 1.463 . S
C3629 C3634 1.350 . S
C3629 N3637 1.427 . S
C3630 H3621 0.930 . S
C3630 C3628 1.378 . S
C3630 C3631 1.367 . S
C3631 C3630 1.367 . S
C3631 C3633 1.433 . S
C3632 C3628 1.350 . S
C3632 C3629 1.463 . S
C3632 N3636 1.427 . S
C3633 H3623 0.929 . S
C3633 C3631 1.433 . S
C3633 N3636 1.384 . S
C3634 H3625 0.929 . S
C3634 C3626 1.378 . S
C3634 C3629 1.350 . S
C3635 H3622 0.929 . S
C3635 C3627 1.433 . S
C3635 N3637 1.384 . S
N3636 C3632 1.427 . S
N3636 C3633 1.384 . S
N3637 C3629 1.427 . S
N3637 C3635 1.384 . S
H3638 C3644 0.930 . S
H3639 C3648 0.930 . S
H3640 C3653 0.929 . S
H3641 C3651 0.929 1_556 S
H3642 C3646 0.929 . S
H3643 C3652 0.930 . S
C3644 H3638 0.930 . S
C3644 C3645 1.367 . S
C3644 C3652 1.378 . S
C3645 C3644 1.367 . S
C3645 C3653 1.433 . S
C3646 H3642 0.929 . S
C3646 C3648 1.378 1_565 S
C3646 C3650 1.350 . S
C3647 C3650 1.463 . S
C3647 C3652 1.350 . S
C3647 N3655 1.427 . S
C3648 H3639 0.930 . S
C3648 C3646 1.378 1_545 S
C3648 C3649 1.367 . S
C3649 C3648 1.367 . S
C3649 C3651 1.433 . S
C3650 C3646 1.350 . S
C3650 C3647 1.463 . S
C3650 N3654 1.427 . S
C3651 H3641 0.929 1_554 S
C3651 C3649 1.433 . S
C3651 N3654 1.384 1_545 S
C3652 H3643 0.930 . S
C3652 C3644 1.378 . S
C3652 C3647 1.350 . S
C3653 H3640 0.929 . S
C3653 C3645 1.433 . S
C3653 N3655 1.384 . S
N3654 C3650 1.427 . S
N3654 C3651 1.384 1_565 S
N3655 C3647 1.427 . S
N3655 C3653 1.384 . S
H3656 C3662 0.930 . S
H3657 C3666 0.930 . S
H3658 C3671 0.929 . S
H3659 C3669 0.929 . S
H3660 C3664 0.929 . S
H3661 C3670 0.929 . S
C3662 H3656 0.930 . S
C3662 C3663 1.367 . S
C3662 C3670 1.378 . S
C3663 C3662 1.367 . S
C3663 C3671 1.433 . S
C3664 H3660 0.929 . S
C3664 C3666 1.378 . S
C3664 C3668 1.350 . S
C3665 C3668 1.463 . S
C3665 C3670 1.350 . S
C3665 N3673 1.427 . S
C3666 H3657 0.930 . S
C3666 C3664 1.378 . S
C3666 C3667 1.367 . S
C3667 C3666 1.367 . S
C3667 C3669 1.433 . S
C3668 C3664 1.350 . S
C3668 C3665 1.463 . S
C3668 N3672 1.427 . S
C3669 H3659 0.929 . S
C3669 C3667 1.433 . S
C3669 N3672 1.384 . S
C3670 H3661 0.929 . S
C3670 C3662 1.378 . S
C3670 C3665 1.350 . S
C3671 H3658 0.929 . S
C3671 C3663 1.433 . S
C3671 N3673 1.384 . S
N3672 C3668 1.427 . S
N3672 C3669 1.384 . S
N3673 C3665 1.427 . S
N3673 C3671 1.384 . S
H3674 C3680 0.930 . S
H3675 C3684 0.930 . S
H3676 C3689 0.929 . S
H3677 C3687 0.929 1_556 S
H3678 C3682 0.929 . S
H3679 C3688 0.929 . S
C3680 H3674 0.930 . S
C3680 C3681 1.367 1_556 S
C3680 C3688 1.378 . S
C3681 C3680 1.367 1_554 S
C3681 C3689 1.433 . S
C3682 H3678 0.929 . S
C3682 C3684 1.378 . S
C3682 C3686 1.350 . S
C3683 C3686 1.463 . S
C3683 C3688 1.350 1_554 S
C3683 N3691 1.427 . S
C3684 H3675 0.930 . S
C3684 C3682 1.378 . S
C3684 C3685 1.367 . S
C3685 C3684 1.367 . S
C3685 C3687 1.433 . S
C3686 C3682 1.350 . S
C3686 C3683 1.463 . S
C3686 N3690 1.427 . S
C3687 H3677 0.929 1_554 S
C3687 C3685 1.433 . S
C3687 N3690 1.384 . S
C3688 H3679 0.929 . S
C3688 C3680 1.378 . S
C3688 C3683 1.350 1_556 S
C3689 H3676 0.929 . S
C3689 C3681 1.433 . S
C3689 N3691 1.384 . S
N3690 C3686 1.427 . S
N3690 C3687 1.384 . S
N3691 C3683 1.427 . S
N3691 C3689 1.384 . S
H3692 C3698 0.930 . S
H3693 C3702 0.930 . S
H3694 C3707 0.929 . S
H3695 C3705 0.929 . S
H3696 C3700 0.929 . S
H3697 C3706 0.929 . S
C3698 H3692 0.930 . S
C3698 C3699 1.367 . S
C3698 C3706 1.378 . S
C3699 C3698 1.367 . S
C3699 C3707 1.433 . S
C3700 H3696 0.929 . S
C3700 C3702 1.378 . S
C3700 C3704 1.350 . S
C3701 C3704 1.463 . S
C3701 C3706 1.350 . S
C3701 N3709 1.427 . S
C3702 H3693 0.930 . S
C3702 C3700 1.378 . S
C3702 C3703 1.367 . S
C3703 C3702 1.367 . S
C3703 C3705 1.433 . S
C3704 C3700 1.350 . S
C3704 C3701 1.463 . S
C3704 N3708 1.427 . S
C3705 H3695 0.929 . S
C3705 C3703 1.433 . S
C3705 N3708 1.384 . S
C3706 H3697 0.929 . S
C3706 C3698 1.378 . S
C3706 C3701 1.350 . S
C3707 H3694 0.929 . S
C3707 C3699 1.433 . S
C3707 N3709 1.384 . S
N3708 C3704 1.427 . S
N3708 C3705 1.384 . S
N3709 C3701 1.427 . S
N3709 C3707 1.384 . S
H3710 C3716 0.930 . S
H3711 C3720 0.930 . S
H3712 C3725 0.929 . S
H3713 C3723 0.929 . S
H3714 C3718 0.929 . S
H3715 C3724 0.929 . S
C3716 H3710 0.930 . S
C3716 C3717 1.367 . S
C3716 C3724 1.378 . S
C3717 C3716 1.367 . S
C3717 C3725 1.433 . S
C3718 H3714 0.929 . S
C3718 C3720 1.378 . S
C3718 C3722 1.350 . S
C3719 C3722 1.463 . S
C3719 C3724 1.350 . S
C3719 N3727 1.427 . S
C3720 H3711 0.930 . S
C3720 C3718 1.378 . S
C3720 C3721 1.367 . S
C3721 C3720 1.367 . S
C3721 C3723 1.433 . S
C3722 C3718 1.350 . S
C3722 C3719 1.463 . S
C3722 N3726 1.427 . S
C3723 H3713 0.929 . S
C3723 C3721 1.433 . S
C3723 N3726 1.384 . S
C3724 H3715 0.929 . S
C3724 C3716 1.378 . S
C3724 C3719 1.350 . S
C3725 H3712 0.929 . S
C3725 C3717 1.433 . S
C3725 N3727 1.384 . S
N3726 C3722 1.427 . S
N3726 C3723 1.384 . S
N3727 C3719 1.427 . S
N3727 C3725 1.384 . S
H3728 C3734 0.930 . S
H3729 C3738 0.930 . S
H3730 C3743 0.929 . S
H3731 C3741 0.929 . S
H3732 C3736 0.929 . S
H3733 C3742 0.929 . S
C3734 H3728 0.930 . S
C3734 C3735 1.367 . S
C3734 C3742 1.378 . S
C3735 C3734 1.367 . S
C3735 C3743 1.433 . S
C3736 H3732 0.929 . S
C3736 C3738 1.378 . S
C3736 C3740 1.350 . S
C3737 C3740 1.463 . S
C3737 C3742 1.350 . S
C3737 N3745 1.427 . S
C3738 H3729 0.930 . S
C3738 C3736 1.378 . S
C3738 C3739 1.367 . S
C3739 C3738 1.367 . S
C3739 C3741 1.433 . S
C3740 C3736 1.350 . S
C3740 C3737 1.463 . S
C3740 N3744 1.427 . S
C3741 H3731 0.929 . S
C3741 C3739 1.433 . S
C3741 N3744 1.384 . S
C3742 H3733 0.929 . S
C3742 C3734 1.378 . S
C3742 C3737 1.350 . S
C3743 H3730 0.929 . S
C3743 C3735 1.433 . S
C3743 N3745 1.384 . S
N3744 C3740 1.427 . S
N3744 C3741 1.384 . S
N3745 C3737 1.427 . S
N3745 C3743 1.384 . S
H3746 C3752 0.930 . S
H3747 C3756 0.930 . S
H3748 C3761 0.929 . S
H3749 C3759 0.929 . S
H3750 C3754 0.929 . S
H3751 C3760 0.929 . S
C3752 H3746 0.930 . S
C3752 C3753 1.367 . S
C3752 C3760 1.378 . S
C3753 C3752 1.367 . S
C3753 C3761 1.433 . S
C3754 H3750 0.929 . S
C3754 C3756 1.378 . S
C3754 C3758 1.350 . S
C3755 C3758 1.463 . S
C3755 C3760 1.350 . S
C3755 N3763 1.427 . S
C3756 H3747 0.930 . S
C3756 C3754 1.378 . S
C3756 C3757 1.367 . S
C3757 C3756 1.367 . S
C3757 C3759 1.433 . S
C3758 C3754 1.350 . S
C3758 C3755 1.463 . S
C3758 N3762 1.427 . S
C3759 H3749 0.929 . S
C3759 C3757 1.433 . S
C3759 N3762 1.384 . S
C3760 H3751 0.929 . S
C3760 C3752 1.378 . S
C3760 C3755 1.350 . S
C3761 H3748 0.929 . S
C3761 C3753 1.433 . S
C3761 N3763 1.384 . S
N3762 C3758 1.427 . S
N3762 C3759 1.384 . S
N3763 C3755 1.427 . S
N3763 C3761 1.384 . S
H3764 C3770 0.930 . S
H3765 C3774 0.930 . S
H3766 C3779 0.929 . S
H3767 C3777 0.929 . S
H3768 C3772 0.929 . S
H3769 C3778 0.929 . S
C3770 H3764 0.930 . S
C3770 C3771 1.367 1_455 S
C3770 C3778 1.378 . S
C3771 C3770 1.367 1_655 S
C3771 C3779 1.433 . S
C3772 H3768 0.929 . S
C3772 C3774 1.378 . S
C3772 C3776 1.350 1_655 S
C3773 C3776 1.463 . S
C3773 C3778 1.350 . S
C3773 N3781 1.427 1_455 S
C3774 H3765 0.930 . S
C3774 C3772 1.378 . S
C3774 C3775 1.367 1_655 S
C3775 C3774 1.367 1_455 S
C3775 C3777 1.433 . S
C3776 C3772 1.350 1_455 S
C3776 C3773 1.463 . S
C3776 N3780 1.427 . S
C3777 H3767 0.929 . S
C3777 C3775 1.433 . S
C3777 N3780 1.384 . S
C3778 H3769 0.929 . S
C3778 C3770 1.378 . S
C3778 C3773 1.350 . S
C3779 H3766 0.929 . S
C3779 C3771 1.433 . S
C3779 N3781 1.384 . S
N3780 C3776 1.427 . S
N3780 C3777 1.384 . S
N3781 C3773 1.427 1_655 S
N3781 C3779 1.384 . S
H3782 C3788 0.930 . S
H3783 C3792 0.930 . S
H3784 C3797 0.929 . S
H3785 C3795 0.929 . S
H3786 C3790 0.929 . S
H3787 C3796 0.929 . S
C3788 H3782 0.930 . S
C3788 C3789 1.367 . S
C3788 C3796 1.378 . S
C3789 C3788 1.367 . S
C3789 C3797 1.433 . S
C3790 H3786 0.929 . S
C3790 C3792 1.378 . S
C3790 C3794 1.350 . S
C3791 C3794 1.463 . S
C3791 C3796 1.350 . S
C3791 N3799 1.427 . S
C3792 H3783 0.930 . S
C3792 C3790 1.378 . S
C3792 C3793 1.367 . S
C3793 C3792 1.367 . S
C3793 C3795 1.433 . S
C3794 C3790 1.350 . S
C3794 C3791 1.463 . S
C3794 N3798 1.427 . S
C3795 H3785 0.929 . S
C3795 C3793 1.433 . S
C3795 N3798 1.384 . S
C3796 H3787 0.929 . S
C3796 C3788 1.378 . S
C3796 C3791 1.350 . S
C3797 H3784 0.929 . S
C3797 C3789 1.433 . S
C3797 N3799 1.384 . S
N3798 C3794 1.427 . S
N3798 C3795 1.384 . S
N3799 C3791 1.427 . S
N3799 C3797 1.384 . S
H3800 C3806 0.930 . S
H3801 C3810 0.914 1_554 S
H3802 C3815 0.929 . S
H3803 C3813 0.929 . S
H3804 C3808 0.929 . S
H3805 C3814 0.929 . S
C3806 H3800 0.930 . S
C3806 C3807 1.367 . S
C3806 C3814 1.378 . S
C3807 C3806 1.367 . S
C3807 C3815 1.433 . S
C3808 H3804 0.929 . S
C3808 C3810 1.386 . S
C3808 C3812 1.350 . S
C3809 C3812 1.463 . S
C3809 C3814 1.350 . S
C3809 N3817 1.427 . S
C3810 H3801 0.914 1_556 S
C3810 C3808 1.386 . S
C3810 C3811 1.375 . S
C3811 C3810 1.375 . S
C3811 C3813 1.433 . S
C3812 C3808 1.350 . S
C3812 C3809 1.463 . S
C3812 N3816 1.427 . S
C3813 H3803 0.929 . S
C3813 C3811 1.433 . S
C3813 N3816 1.384 . S
C3814 H3805 0.929 . S
C3814 C3806 1.378 . S
C3814 C3809 1.350 . S
C3815 H3802 0.929 . S
C3815 C3807 1.433 . S
C3815 N3817 1.384 . S
N3816 C3812 1.427 . S
N3816 C3813 1.384 . S
N3817 C3809 1.427 . S
N3817 C3815 1.384 . S
H3818 C3824 0.930 . S
H3819 C3828 0.930 . S
H3820 C3833 0.929 . S
H3821 C3831 0.929 . S
H3822 C3826 0.929 . S
H3823 C3832 0.929 . S
C3824 H3818 0.930 . S
C3824 C3825 1.367 . S
C3824 C3832 1.378 . S
C3825 C3824 1.367 . S
C3825 C3833 1.433 . S
C3826 H3822 0.929 . S
C3826 C3828 1.378 . S
C3826 C3830 1.350 . S
C3827 C3830 1.463 . S
C3827 C3832 1.350 . S
C3827 N3835 1.427 . S
C3828 H3819 0.930 . S
C3828 C3826 1.378 . S
C3828 C3829 1.367 . S
C3829 C3828 1.367 . S
C3829 C3831 1.433 . S
C3830 C3826 1.350 . S
C3830 C3827 1.463 . S
C3830 N3834 1.427 . S
C3831 H3821 0.929 . S
C3831 C3829 1.433 . S
C3831 N3834 1.384 . S
C3832 H3823 0.929 . S
C3832 C3824 1.378 . S
C3832 C3827 1.350 . S
C3833 H3820 0.929 . S
C3833 C3825 1.433 . S
C3833 N3835 1.384 . S
N3834 C3830 1.427 . S
N3834 C3831 1.384 . S
N3835 C3827 1.427 . S
N3835 C3833 1.384 . S
H3836 C3842 0.930 . S
H3837 C3846 0.930 . S
H3838 C3851 0.929 . S
H3839 C3849 0.929 1_655 S
H3840 C3844 0.929 . S
H3841 C3850 0.929 1_655 S
C3842 H3836 0.930 . S
C3842 C3843 1.367 . S
C3842 C3850 1.378 . S
C3843 C3842 1.367 . S
C3843 C3851 1.433 . S
C3844 H3840 0.929 . S
C3844 C3846 1.378 . S
C3844 C3848 1.350 . S
C3845 C3848 1.463 . S
C3845 C3850 1.350 . S
C3845 N3853 1.427 . S
C3846 H3837 0.930 . S
C3846 C3844 1.378 . S
C3846 C3847 1.367 . S
C3847 C3846 1.367 . S
C3847 C3849 1.433 . S
C3848 C3844 1.350 . S
C3848 C3845 1.463 . S
C3848 N3852 1.427 . S
C3849 H3839 0.929 1_455 S
C3849 C3847 1.433 . S
C3849 N3852 1.384 . S
C3850 H3841 0.929 1_455 S
C3850 C3842 1.378 . S
C3850 C3845 1.350 . S
C3851 H3838 0.929 . S
C3851 C3843 1.433 . S
C3851 N3853 1.384 . S
N3852 C3848 1.427 . S
N3852 C3849 1.384 . S
N3853 C3845 1.427 . S
N3853 C3851 1.384 . S
H3854 C3860 0.930 . S
H3855 C3864 0.930 . S
H3856 C3869 0.929 . S
H3857 C3867 0.929 . S
H3858 C3862 0.929 . S
H3859 C3868 0.929 . S
C3860 H3854 0.930 . S
C3860 C3861 1.367 . S
C3860 C3868 1.378 . S
C3861 C3860 1.367 . S
C3861 C3869 1.433 . S
C3862 H3858 0.929 . S
C3862 C3864 1.378 . S
C3862 C3866 1.350 . S
C3863 C3866 1.463 . S
C3863 C3868 1.350 . S
C3863 N3871 1.427 . S
C3864 H3855 0.930 . S
C3864 C3862 1.378 . S
C3864 C3865 1.367 . S
C3865 C3864 1.367 . S
C3865 C3867 1.433 . S
C3866 C3862 1.350 . S
C3866 C3863 1.463 . S
C3866 N3870 1.427 . S
C3867 H3857 0.929 . S
C3867 C3865 1.433 . S
C3867 N3870 1.384 . S
C3868 H3859 0.929 . S
C3868 C3860 1.378 . S
C3868 C3863 1.350 . S
C3869 H3856 0.929 . S
C3869 C3861 1.433 . S
C3869 N3871 1.384 . S
N3870 C3866 1.427 . S
N3870 C3867 1.384 . S
N3871 C3863 1.427 . S
N3871 C3869 1.384 . S
H3872 C3878 0.930 . S
H3873 C3882 0.930 . S
H3874 C3887 0.929 . S
H3875 C3885 0.929 . S
H3876 C3880 0.929 . S
H3877 C3886 0.929 . S
C3878 H3872 0.930 . S
C3878 C3879 1.367 . S
C3878 C3886 1.378 . S
C3879 C3878 1.367 . S
C3879 C3887 1.433 . S
C3880 H3876 0.929 . S
C3880 C3882 1.378 . S
C3880 C3884 1.350 . S
C3881 C3884 1.463 . S
C3881 C3886 1.350 . S
C3881 N3889 1.427 . S
C3882 H3873 0.930 . S
C3882 C3880 1.378 . S
C3882 C3883 1.367 . S
C3883 C3882 1.367 . S
C3883 C3885 1.433 . S
C3884 C3880 1.350 . S
C3884 C3881 1.463 . S
C3884 N3888 1.427 . S
C3885 H3875 0.929 . S
C3885 C3883 1.433 . S
C3885 N3888 1.384 . S
C3886 H3877 0.929 . S
C3886 C3878 1.378 . S
C3886 C3881 1.350 . S
C3887 H3874 0.929 . S
C3887 C3879 1.433 . S
C3887 N3889 1.384 . S
N3888 C3884 1.427 . S
N3888 C3885 1.384 . S
N3889 C3881 1.427 . S
N3889 C3887 1.384 . S
H3890 C3896 0.930 . S
H3891 C3900 0.930 . S
H3892 C3905 0.929 . S
H3893 C3903 0.929 . S
H3894 C3898 0.929 . S
H3895 C3904 0.929 . S
C3896 H3890 0.930 . S
C3896 C3897 1.367 . S
C3896 C3904 1.378 . S
C3897 C3896 1.367 . S
C3897 C3905 1.433 . S
C3898 H3894 0.929 . S
C3898 C3900 1.378 . S
C3898 C3902 1.350 . S
C3899 C3902 1.463 . S
C3899 C3904 1.350 . S
C3899 N3907 1.427 . S
C3900 H3891 0.930 . S
C3900 C3898 1.378 . S
C3900 C3901 1.367 . S
C3901 C3900 1.367 . S
C3901 C3903 1.433 . S
C3902 C3898 1.350 . S
C3902 C3899 1.463 . S
C3902 N3906 1.427 . S
C3903 H3893 0.929 . S
C3903 C3901 1.433 . S
C3903 N3906 1.384 . S
C3904 H3895 0.929 . S
C3904 C3896 1.378 . S
C3904 C3899 1.350 . S
C3905 H3892 0.929 . S
C3905 C3897 1.433 . S
C3905 N3907 1.384 . S
N3906 C3902 1.427 . S
N3906 C3903 1.384 . S
N3907 C3899 1.427 . S
N3907 C3905 1.384 . S
H3908 C3914 0.930 . S
H3909 C3918 0.930 . S
H3910 C3923 0.929 . S
H3911 C3921 0.929 . S
H3912 C3916 0.929 . S
H3913 C3922 0.929 . S
C3914 H3908 0.930 . S
C3914 C3915 1.367 . S
C3914 C3922 1.378 . S
C3915 C3914 1.367 . S
C3915 C3923 1.433 . S
C3916 H3912 0.929 . S
C3916 C3918 1.378 . S
C3916 C3920 1.350 . S
C3917 C3920 1.463 . S
C3917 C3922 1.350 . S
C3917 N3925 1.427 . S
C3918 H3909 0.930 . S
C3918 C3916 1.378 . S
C3918 C3919 1.367 . S
C3919 C3918 1.367 . S
C3919 C3921 1.433 . S
C3920 C3916 1.350 . S
C3920 C3917 1.463 . S
C3920 N3924 1.427 . S
C3921 H3911 0.929 . S
C3921 C3919 1.433 . S
C3921 N3924 1.384 . S
C3922 H3913 0.929 . S
C3922 C3914 1.378 . S
C3922 C3917 1.350 . S
C3923 H3910 0.929 . S
C3923 C3915 1.433 . S
C3923 N3925 1.384 . S
N3924 C3920 1.427 . S
N3924 C3921 1.384 . S
N3925 C3917 1.427 . S
N3925 C3923 1.384 . S
H3926 C3932 0.930 . S
H3927 C3936 0.930 . S
H3928 C3941 0.929 . S
H3929 C3939 0.929 . S
H3930 C3934 0.929 . S
H3931 C3940 0.929 . S
C3932 H3926 0.930 . S
C3932 C3933 1.367 . S
C3932 C3940 1.378 . S
C3933 C3932 1.367 . S
C3933 C3941 1.433 . S
C3934 H3930 0.929 . S
C3934 C3936 1.378 . S
C3934 C3938 1.350 . S
C3935 C3938 1.463 . S
C3935 C3940 1.350 . S
C3935 N3943 1.427 . S
C3936 H3927 0.930 . S
C3936 C3934 1.378 . S
C3936 C3937 1.367 . S
C3937 C3936 1.367 . S
C3937 C3939 1.433 . S
C3938 C3934 1.350 . S
C3938 C3935 1.463 . S
C3938 N3942 1.427 . S
C3939 H3929 0.929 . S
C3939 C3937 1.433 . S
C3939 N3942 1.384 . S
C3940 H3931 0.929 . S
C3940 C3932 1.378 . S
C3940 C3935 1.350 . S
C3941 H3928 0.929 . S
C3941 C3933 1.433 . S
C3941 N3943 1.384 . S
N3942 C3938 1.427 . S
N3942 C3939 1.384 . S
N3943 C3935 1.427 . S
N3943 C3941 1.384 . S
H3944 C3950 0.930 . S
H3945 C3954 0.930 . S
H3946 C3959 0.929 . S
H3947 C3957 0.929 . S
H3948 C3952 0.929 . S
H3949 C3958 0.929 . S
C3950 H3944 0.930 . S
C3950 C3951 1.367 . S
C3950 C3958 1.378 . S
C3951 C3950 1.367 . S
C3951 C3959 1.433 . S
C3952 H3948 0.929 . S
C3952 C3954 1.378 . S
C3952 C3956 1.350 . S
C3953 C3956 1.463 . S
C3953 C3958 1.350 . S
C3953 N3961 1.427 . S
C3954 H3945 0.930 . S
C3954 C3952 1.378 . S
C3954 C3955 1.367 . S
C3955 C3954 1.367 . S
C3955 C3957 1.433 . S
C3956 C3952 1.350 . S
C3956 C3953 1.463 . S
C3956 N3960 1.427 . S
C3957 H3947 0.929 . S
C3957 C3955 1.433 . S
C3957 N3960 1.384 . S
C3958 H3949 0.929 . S
C3958 C3950 1.378 . S
C3958 C3953 1.350 . S
C3959 H3946 0.929 . S
C3959 C3951 1.433 . S
C3959 N3961 1.384 . S
N3960 C3956 1.427 . S
N3960 C3957 1.384 . S
N3961 C3953 1.427 . S
N3961 C3959 1.384 . S
H3962 C3968 0.930 . S
H3963 C3972 0.930 . S
H3964 C3977 0.929 . S
H3965 C3975 0.929 . S
H3966 C3970 0.929 . S
H3967 C3976 0.929 . S
C3968 H3962 0.930 . S
C3968 C3969 1.367 . S
C3968 C3976 1.378 . S
C3969 C3968 1.367 . S
C3969 C3977 1.433 . S
C3970 H3966 0.929 . S
C3970 C3972 1.378 . S
C3970 C3974 1.350 . S
C3971 C3974 1.463 . S
C3971 C3976 1.350 . S
C3971 N3979 1.427 . S
C3972 H3963 0.930 . S
C3972 C3970 1.378 . S
C3972 C3973 1.367 . S
C3973 C3972 1.367 . S
C3973 C3975 1.433 . S
C3974 C3970 1.350 . S
C3974 C3971 1.463 . S
C3974 N3978 1.427 . S
C3975 H3965 0.929 . S
C3975 C3973 1.433 . S
C3975 N3978 1.384 . S
C3976 H3967 0.929 . S
C3976 C3968 1.378 . S
C3976 C3971 1.350 . S
C3977 H3964 0.929 . S
C3977 C3969 1.433 . S
C3977 N3979 1.384 . S
N3978 C3974 1.427 . S
N3978 C3975 1.384 . S
N3979 C3971 1.427 . S
N3979 C3977 1.384 . S
H3980 C3986 0.930 . S
H3981 C3990 0.930 . S
H3982 C3995 0.929 . S
H3983 C3993 0.929 . S
H3984 C3988 0.929 1_455 S
H3985 C3994 0.929 . S
C3986 H3980 0.930 . S
C3986 C3987 1.367 . S
C3986 C3994 1.378 . S
C3987 C3986 1.367 . S
C3987 C3995 1.433 . S
C3988 H3984 0.929 1_655 S
C3988 C3990 1.378 1_655 S
C3988 C3992 1.350 . S
C3989 C3992 1.463 . S
C3989 C3994 1.350 . S
C3989 N3997 1.427 . S
C3990 H3981 0.930 . S
C3990 C3988 1.378 1_455 S
C3990 C3991 1.367 1_455 S
C3991 C3990 1.367 1_655 S
C3991 C3993 1.433 . S
C3992 C3988 1.350 . S
C3992 C3989 1.463 . S
C3992 N3996 1.427 . S
C3993 H3983 0.929 . S
C3993 C3991 1.433 . S
C3993 N3996 1.384 . S
C3994 H3985 0.929 . S
C3994 C3986 1.378 . S
C3994 C3989 1.350 . S
C3995 H3982 0.929 . S
C3995 C3987 1.433 . S
C3995 N3997 1.384 . S
N3996 C3992 1.427 . S
N3996 C3993 1.384 . S
N3997 C3989 1.427 . S
N3997 C3995 1.384 . S
H3998 C4004 0.930 . S
H3999 C4008 0.930 . S
H4000 C4013 0.929 . S
H4001 C4011 0.929 . S
H4002 C4006 0.929 . S
H4003 C4012 0.929 . S
C4004 H3998 0.930 . S
C4004 C4005 1.367 . S
C4004 C4012 1.378 . S
C4005 C4004 1.367 . S
C4005 C4013 1.433 . S
C4006 H4002 0.929 . S
C4006 C4008 1.378 . S
C4006 C4010 1.350 . S
C4007 C4010 1.463 . S
C4007 C4012 1.350 . S
C4007 N4015 1.427 . S
C4008 H3999 0.930 . S
C4008 C4006 1.378 . S
C4008 C4009 1.367 . S
C4009 C4008 1.367 . S
C4009 C4011 1.433 . S
C4010 C4006 1.350 . S
C4010 C4007 1.463 . S
C4010 N4014 1.427 . S
C4011 H4001 0.929 . S
C4011 C4009 1.433 . S
C4011 N4014 1.384 . S
C4012 H4003 0.929 . S
C4012 C4004 1.378 . S
C4012 C4007 1.350 . S
C4013 H4000 0.929 . S
C4013 C4005 1.433 . S
C4013 N4015 1.384 . S
N4014 C4010 1.427 . S
N4014 C4011 1.384 . S
N4015 C4007 1.427 . S
N4015 C4013 1.384 . S
H4016 C4022 0.930 . S
H4017 C4026 0.930 . S
H4018 C4031 0.929 . S
H4019 C4029 0.929 . S
H4020 C4024 0.929 . S
H4021 C4030 0.929 . S
C4022 H4016 0.930 . S
C4022 C4023 1.367 . S
C4022 C4030 1.378 . S
C4023 C4022 1.367 . S
C4023 C4031 1.433 . S
C4024 H4020 0.929 . S
C4024 C4026 1.378 . S
C4024 C4028 1.350 . S
C4025 C4028 1.463 . S
C4025 C4030 1.350 . S
C4025 N4033 1.427 . S
C4026 H4017 0.930 . S
C4026 C4024 1.378 . S
C4026 C4027 1.367 . S
C4027 C4026 1.367 . S
C4027 C4029 1.433 . S
C4028 C4024 1.350 . S
C4028 C4025 1.463 . S
C4028 N4032 1.427 . S
C4029 H4019 0.929 . S
C4029 C4027 1.433 . S
C4029 N4032 1.384 . S
C4030 H4021 0.929 . S
C4030 C4022 1.378 . S
C4030 C4025 1.350 . S
C4031 H4018 0.929 . S
C4031 C4023 1.433 . S
C4031 N4033 1.384 . S
N4032 C4028 1.427 . S
N4032 C4029 1.384 . S
N4033 C4025 1.427 . S
N4033 C4031 1.384 . S
H4034 C4040 0.930 . S
H4035 C4044 0.930 . S
H4036 C4049 0.929 . S
H4037 C4047 0.929 . S
H4038 C4042 0.929 . S
H4039 C4048 0.929 . S
C4040 H4034 0.930 . S
C4040 C4041 1.367 . S
C4040 C4048 1.378 . S
C4041 C4040 1.367 . S
C4041 C4049 1.433 . S
C4042 H4038 0.929 . S
C4042 C4044 1.378 . S
C4042 C4046 1.350 . S
C4043 C4046 1.463 . S
C4043 C4048 1.350 . S
C4043 N4051 1.427 . S
C4044 H4035 0.930 . S
C4044 C4042 1.378 . S
C4044 C4045 1.367 1_565 S
C4045 C4044 1.367 1_545 S
C4045 C4047 1.433 . S
C4046 C4042 1.350 . S
C4046 C4043 1.463 . S
C4046 N4050 1.427 . S
C4047 H4037 0.929 . S
C4047 C4045 1.433 . S
C4047 N4050 1.384 1_545 S
C4048 H4039 0.929 . S
C4048 C4040 1.378 . S
C4048 C4043 1.350 . S
C4049 H4036 0.929 . S
C4049 C4041 1.433 . S
C4049 N4051 1.384 . S
N4050 C4046 1.427 . S
N4050 C4047 1.384 1_565 S
N4051 C4043 1.427 . S
N4051 C4049 1.384 . S
H4052 C4058 0.930 . S
H4053 C4062 0.930 . S
H4054 C4067 0.929 . S
H4055 C4065 0.929 . S
H4056 C4060 0.929 . S
H4057 C4066 0.929 . S
C4058 H4052 0.930 . S
C4058 C4059 1.367 . S
C4058 C4066 1.378 . S
C4059 C4058 1.367 . S
C4059 C4067 1.433 . S
C4060 H4056 0.929 . S
C4060 C4062 1.378 . S
C4060 C4064 1.350 . S
C4061 C4064 1.463 . S
C4061 C4066 1.350 . S
C4061 N4069 1.427 . S
C4062 H4053 0.930 . S
C4062 C4060 1.378 . S
C4062 C4063 1.367 . S
C4063 C4062 1.367 . S
C4063 C4065 1.433 . S
C4064 C4060 1.350 . S
C4064 C4061 1.463 . S
C4064 N4068 1.427 . S
C4065 H4055 0.929 . S
C4065 C4063 1.433 . S
C4065 N4068 1.384 . S
C4066 H4057 0.929 . S
C4066 C4058 1.378 . S
C4066 C4061 1.350 . S
C4067 H4054 0.929 . S
C4067 C4059 1.433 . S
C4067 N4069 1.384 . S
N4068 C4064 1.427 . S
N4068 C4065 1.384 . S
N4069 C4061 1.427 . S
N4069 C4067 1.384 . S
H4070 C4076 0.930 . S
H4071 C4080 0.930 . S
H4072 C4085 0.929 . S
H4073 C4083 0.929 . S
H4074 C4078 0.929 . S
H4075 C4084 0.929 . S
C4076 H4070 0.930 . S
C4076 C4077 1.367 . S
C4076 C4084 1.378 . S
C4077 C4076 1.367 . S
C4077 C4085 1.433 1_556 S
C4078 H4074 0.929 . S
C4078 C4080 1.378 . S
C4078 C4082 1.350 . S
C4079 C4082 1.463 1_556 S
C4079 C4084 1.350 . S
C4079 N4087 1.427 1_556 S
C4080 H4071 0.930 . S
C4080 C4078 1.378 . S
C4080 C4081 1.367 . S
C4081 C4080 1.367 . S
C4081 C4083 1.433 1_554 S
C4082 C4078 1.350 . S
C4082 C4079 1.463 1_554 S
C4082 N4086 1.427 1_554 S
C4083 H4073 0.929 . S
C4083 C4081 1.433 1_556 S
C4083 N4086 1.384 . S
C4084 H4075 0.929 . S
C4084 C4076 1.378 . S
C4084 C4079 1.350 . S
C4085 H4072 0.929 . S
C4085 C4077 1.433 1_554 S
C4085 N4087 1.384 . S
N4086 C4082 1.427 1_556 S
N4086 C4083 1.384 . S
N4087 C4079 1.427 1_554 S
N4087 C4085 1.384 . S
H4088 C4094 0.930 . S
H4089 C4098 0.930 . S
H4090 C4103 0.929 . S
H4091 C4101 0.929 . S
H4092 C4096 0.929 . S
H4093 C4102 0.929 . S
C4094 H4088 0.930 . S
C4094 C4095 1.367 . S
C4094 C4102 1.378 . S
C4095 C4094 1.367 . S
C4095 C4103 1.433 . S
C4096 H4092 0.929 . S
C4096 C4098 1.378 . S
C4096 C4100 1.350 . S
C4097 C4100 1.463 . S
C4097 C4102 1.350 . S
C4097 N4105 1.427 . S
C4098 H4089 0.930 . S
C4098 C4096 1.378 . S
C4098 C4099 1.367 . S
C4099 C4098 1.367 . S
C4099 C4101 1.433 . S
C4100 C4096 1.350 . S
C4100 C4097 1.463 . S
C4100 N4104 1.427 . S
C4101 H4091 0.929 . S
C4101 C4099 1.433 . S
C4101 N4104 1.384 . S
C4102 H4093 0.929 . S
C4102 C4094 1.378 . S
C4102 C4097 1.350 . S
C4103 H4090 0.929 . S
C4103 C4095 1.433 . S
C4103 N4105 1.384 . S
N4104 C4100 1.427 . S
N4104 C4101 1.384 . S
N4105 C4097 1.427 . S
N4105 C4103 1.384 . S
H4106 C4112 0.930 . S
H4107 C4116 0.930 . S
H4108 C4121 0.929 1_556 S
H4109 C4119 0.929 . S
H4110 C4114 0.929 . S
H4111 C4120 0.929 . S
C4112 H4106 0.930 . S
C4112 C4113 1.367 . S
C4112 C4120 1.378 . S
C4113 C4112 1.367 . S
C4113 C4121 1.433 . S
C4114 H4110 0.929 . S
C4114 C4116 1.378 . S
C4114 C4118 1.350 1_556 S
C4115 C4118 1.463 . S
C4115 C4120 1.350 . S
C4115 N4123 1.427 1_554 S
C4116 H4107 0.930 . S
C4116 C4114 1.378 . S
C4116 C4117 1.367 . S
C4117 C4116 1.367 . S
C4117 C4119 1.433 1_556 S
C4118 C4114 1.350 1_554 S
C4118 C4115 1.463 . S
C4118 N4122 1.427 . S
C4119 H4109 0.929 . S
C4119 C4117 1.433 1_554 S
C4119 N4122 1.384 . S
C4120 H4111 0.929 . S
C4120 C4112 1.378 . S
C4120 C4115 1.350 . S
C4121 H4108 0.929 1_554 S
C4121 C4113 1.433 . S
C4121 N4123 1.384 1_554 S
N4122 C4118 1.427 . S
N4122 C4119 1.384 . S
N4123 C4115 1.427 1_556 S
N4123 C4121 1.384 1_556 S
H4124 C4130 0.930 . S
H4125 C4134 0.930 . S
H4126 C4139 0.929 . S
H4127 C4137 0.929 . S
H4128 C4132 0.929 . S
H4129 C4138 0.929 . S
C4130 H4124 0.930 . S
C4130 C4131 1.367 . S
C4130 C4138 1.378 . S
C4131 C4130 1.367 . S
C4131 C4139 1.433 . S
C4132 H4128 0.929 . S
C4132 C4134 1.378 . S
C4132 C4136 1.350 . S
C4133 C4136 1.463 . S
C4133 C4138 1.350 . S
C4133 N4141 1.427 . S
C4134 H4125 0.930 . S
C4134 C4132 1.378 . S
C4134 C4135 1.367 . S
C4135 C4134 1.367 . S
C4135 C4137 1.433 . S
C4136 C4132 1.350 . S
C4136 C4133 1.463 . S
C4136 N4140 1.427 . S
C4137 H4127 0.929 . S
C4137 C4135 1.433 . S
C4137 N4140 1.384 . S
C4138 H4129 0.929 . S
C4138 C4130 1.378 . S
C4138 C4133 1.350 . S
C4139 H4126 0.929 . S
C4139 C4131 1.433 . S
C4139 N4141 1.384 . S
N4140 C4136 1.427 . S
N4140 C4137 1.384 . S
N4141 C4133 1.427 . S
N4141 C4139 1.384 . S
H4142 C4148 0.930 . S
H4143 C4152 0.930 . S
H4144 C4157 0.929 . S
H4145 C4155 0.929 . S
H4146 C4150 0.929 . S
H4147 C4156 0.929 . S
C4148 H4142 0.930 . S
C4148 C4149 1.367 . S
C4148 C4156 1.378 . S
C4149 C4148 1.367 . S
C4149 C4157 1.433 . S
C4150 H4146 0.929 . S
C4150 C4152 1.378 . S
C4150 C4154 1.350 . S
C4151 C4154 1.463 . S
C4151 C4156 1.350 . S
C4151 N4159 1.427 . S
C4152 H4143 0.930 . S
C4152 C4150 1.378 . S
C4152 C4153 1.367 . S
C4153 C4152 1.367 . S
C4153 C4155 1.433 . S
C4154 C4150 1.350 . S
C4154 C4151 1.463 . S
C4154 N4158 1.427 . S
C4155 H4145 0.929 . S
C4155 C4153 1.433 . S
C4155 N4158 1.384 . S
C4156 H4147 0.929 . S
C4156 C4148 1.378 . S
C4156 C4151 1.350 . S
C4157 H4144 0.929 . S
C4157 C4149 1.433 . S
C4157 N4159 1.384 . S
N4158 C4154 1.427 . S
N4158 C4155 1.384 . S
N4159 C4151 1.427 . S
N4159 C4157 1.384 . S
C2439 C665 1.082 . S
C2443 C2128 1.061 1_556 S
C2457 C381 1.197 . S
C2461 C2141 1.190 . S
C2475 C460 1.227 . S
C2479 C2160 1.219 . S
C2497 C2191 1.925 . S
C2493 C585 1.988 . S
C2511 C108 1.746 . S
C2515 C2211 1.702 . S
C2533 C2228 0.744 . S
C2529 C196 0.758 . S
C2551 C2241 1.444 . S
C2547 C313 1.442 . S
C2565 C49 0.832 . S
C2569 C2268 0.839 . S
C2587 C2121 1.095 . S
C2583 C1457 1.110 . S
C2601 C1545 1.382 . S
C2605 C2151 1.349 . S
C2623 C2153 1.753 . S
C2619 C1721 1.769 . S
C2641 C2188 0.875 . S
C2637 C1113 0.856 . S
C2655 C1428 1.138 . S
C2659 C2208 1.167 . S
C2677 C2221 1.853 . S
C2673 C1516 1.836 . S
C2695 C2251 1.149 . S
C2691 C1692 1.180 . S
C2713 C2261 1.156 . S
C2709 C1085 1.167 . S
C2731 C2131 1.476 . S
C2727 C988 1.521 . S
C2745 C1817 1.858 . S
C2749 C2281 1.849 . S
C2767 C2311 1.527 . S
C2763 C2081 1.551 . S
C2785 C2328 1.134 . S
C2781 C1993 1.140 . S
C2799 C761 1.937 . S
C2803 C2271 1.891 . S
C2817 C821 1.136 . S
C2821 C2158 1.102 . S
C2835 C2053 1.927 . S
C2839 C2341 1.916 . S
C2857 C2368 0.795 . S
C2853 C1868 0.799 . S
C2875 C2118 1.048 . S
C2871 C372 1.080 . S
C2893 C2353 1.185 . S
C2889 C645 1.194 . S
C2907 C577 1.232 . S
C2911 C2171 1.213 . S
C2925 C497 1.985 . S
C2929 C2340 1.928 . S
C2947 C2200 1.699 . S
C2943 C57 1.743 . S
C2961 C293 0.748 . S
C2965 C2298 0.741 . S
C2983 C2233 1.440 1_556 S
C2979 C205 1.439 . S
C3001 C2378 0.832 . S
C2997 C145 0.836 . S
C3019 C2113 1.100 . S
C3015 C909 1.097 . S
C3037 C2360 1.347 . S
C3033 C1956 1.382 . S
C3051 C724 1.765 . S
C3055 C2161 1.759 . S
C3069 C1780 0.857 . S
C3073 C2338 0.866 . S
C3087 C937 1.132 . S
C3091 C2198 1.157 . S
C3109 C2293 1.850 . S
C3105 C1985 1.831 . S
C3123 C753 1.182 . S
C3127 C2240 1.145 . S
C3141 C1809 1.163 . S
C3145 C2373 1.139 . S
C3159 C1173 1.517 . S
C3163 C2120 1.468 . S
C3177 C1105 1.855 . S
C3181 C2273 1.841 . S
C3195 C1633 1.549 . S
C3199 C2220 1.517 . S
C3213 C1553 1.125 . S
C3217 C2318 1.133 . S
C3235 C2380 1.887 . S
C3231 C1729 1.932 . S
C3249 C1340 1.128 . S
C3253 C2168 1.082 1_565 S
C3271 C2173 1.911 . S
C3267 C1604 1.918 . S
C3289 C2138 0.798 . S
C3285 C1252 0.788 . S
C3303 C489 1.080 . S
C3307 C2408 1.067 . S
C3325 C2361 1.191 . S
C3321 C557 1.197 . S
C3339 C636 1.236 . S
C3343 C2420 1.220 1_556 S
C3357 C409 1.986 . S
C3361 C2351 1.921 . S
C3375 C284 1.745 . S
C3379 C2291 1.697 . S
C3397 C2308 0.749 . S
C3393 C20 0.757 . S
C3415 C2321 1.448 . S
C3411 C137 1.440 . S
C3433 C2388 0.835 . S
C3429 C225 0.834 . S
C3451 C2401 1.096 . S
C3447 C1641 1.110 . S
C3465 C1193 1.387 . S
C3469 C2371 1.356 . S
C3487 C2413 1.761 . S
C3483 C1289 1.775 . S
C3505 C2348 0.879 . S
C3501 C1377 0.853 . S
C3523 C2288 1.164 . S
C3519 C1613 1.146 . S
C3537 C1164 1.829 . S
C3541 C2301 1.847 . S
C3559 C2331 1.149 . S
C3555 C1261 1.180 . S
C3573 C1349 1.163 . S
C3577 C2381 1.140 . S
C3595 C2411 1.472 . S
C3591 C1965 1.521 . S
C3609 C849 1.859 . S
C3613 C2201 1.844 . S
C3631 C2231 1.525 . S
C3627 C929 1.561 . S
C3649 C2248 1.142 . S
C3645 C1017 1.130 . S
C3667 C2391 1.886 . S
C3663 C1897 1.935 . S
C3681 C1789 1.137 . S
C3685 C2418 1.104 . S
C3703 C2181 1.919 . S
C3699 C900 1.916 . S
C3721 C2148 0.802 . S
C3717 C733 0.792 . S
C3735 C548 1.080 . S
C3739 C2398 1.049 . S
C3757 C2133 1.184 . S
C3753 C469 1.198 . S
C3771 C401 1.228 . S
C3775 C2431 1.225 . S
C3789 C673 1.981 . S
C3793 C2180 1.918 . S
C3807 C233 1.740 . S
C3811 C2280 1.688 1_556 S
C3829 C2218 0.741 . S
C3825 C117 0.744 . S
C3843 C29 1.432 . S
C3847 C2313 1.441 . S
C3861 C321 0.831 . S
C3865 C2258 0.820 . S
C3883 C2393 1.090 . S
C3879 C2044 1.103 . S
C3897 C997 1.378 . S
C3901 C2140 1.332 . S
C3919 C2421 1.744 1_655 S
C3915 C1877 1.764 . S
C3933 C812 0.861 . S
C3937 C2178 0.865 . S
C3951 C2073 1.144 . S
C3955 C2278 1.156 . S
C3973 C2213 1.847 . S
C3969 C1025 1.830 . S
C3987 C1905 1.175 . S
C3991 C2320 1.131 . S
C4009 C2253 1.138 . S
C4005 C841 1.157 . S
C4027 C2400 1.464 . S
C4023 C1525 1.516 . S
C4045 C2193 1.846 . S
C4041 C1369 1.852 . S
C4059 C1465 1.554 . S
C4063 C2300 1.523 . S
C4081 C2238 1.130 . S
C4077 C1201 1.127 . S
C4095 C1281 1.932 . S
C4099 C2260 1.885 . S
C4113 C1076 1.134 . S
C4117 C2428 1.103 1_556 S
C4135 C2333 1.915 . S
C4131 C1437 1.923 . S
C4153 C2358 0.798 . S
C4149 C1701 0.786 . S
