# Generated by pormake.
# Topology pyr, (3,6)-cn, num edge types: 1
# Building blocks:
#     Node 0, Type 0, BuildingBlock: WUSLED_clean_sbu_0, # of connection points: 3
#     Node 1, Type 0, BuildingBlock: WUSLED_clean_sbu_0, # of connection points: 3
#     Node 2, Type 0, BuildingBlock: WUSLED_clean_sbu_0, # of connection points: 3
#     Node 3, Type 0, BuildingBlock: WUSLED_clean_sbu_0, # of connection points: 3
#     Node 4, Type 0, BuildingBlock: WUSLED_clean_sbu_0, # of connection points: 3
#     Node 5, Type 0, BuildingBlock: WUSLED_clean_sbu_0, # of connection points: 3
#     Node 6, Type 0, BuildingBlock: WUSLED_clean_sbu_0, # of connection points: 3
#     Node 7, Type 0, BuildingBlock: WUSLED_clean_sbu_0, # of connection points: 3
#     Node 8, Type 1, BuildingBlock: CIFDUS_clean_sbu_1, # of connection points: 6
#     Node 9, Type 1, BuildingBlock: CIFDUS_clean_sbu_1, # of connection points: 6
#     Node 10, Type 1, BuildingBlock: CIFDUS_clean_sbu_1, # of connection points: 6
#     Node 11, Type 1, BuildingBlock: CIFDUS_clean_sbu_1, # of connection points: 6
#     Edge 12, Type (0, 1), BuildingBlock: UVAHIK_clean_linker_0, # of connection points: 2
#     Edge 13, Type (0, 1), BuildingBlock: UVAHIK_clean_linker_0, # of connection points: 2
#     Edge 14, Type (0, 1), BuildingBlock: UVAHIK_clean_linker_0, # of connection points: 2
#     Edge 15, Type (0, 1), BuildingBlock: UVAHIK_clean_linker_0, # of connection points: 2
#     Edge 16, Type (0, 1), BuildingBlock: UVAHIK_clean_linker_0, # of connection points: 2
#     Edge 17, Type (0, 1), BuildingBlock: UVAHIK_clean_linker_0, # of connection points: 2
#     Edge 18, Type (0, 1), BuildingBlock: UVAHIK_clean_linker_0, # of connection points: 2
#     Edge 19, Type (0, 1), BuildingBlock: UVAHIK_clean_linker_0, # of connection points: 2
#     Edge 20, Type (0, 1), BuildingBlock: UVAHIK_clean_linker_0, # of connection points: 2
#     Edge 21, Type (0, 1), BuildingBlock: UVAHIK_clean_linker_0, # of connection points: 2
#     Edge 22, Type (0, 1), BuildingBlock: UVAHIK_clean_linker_0, # of connection points: 2
#     Edge 23, Type (0, 1), BuildingBlock: UVAHIK_clean_linker_0, # of connection points: 2
#     Edge 24, Type (0, 1), BuildingBlock: UVAHIK_clean_linker_0, # of connection points: 2
#     Edge 25, Type (0, 1), BuildingBlock: UVAHIK_clean_linker_0, # of connection points: 2
#     Edge 26, Type (0, 1), BuildingBlock: UVAHIK_clean_linker_0, # of connection points: 2
#     Edge 27, Type (0, 1), BuildingBlock: UVAHIK_clean_linker_0, # of connection points: 2
#     Edge 28, Type (0, 1), BuildingBlock: UVAHIK_clean_linker_0, # of connection points: 2
#     Edge 29, Type (0, 1), BuildingBlock: UVAHIK_clean_linker_0, # of connection points: 2
#     Edge 30, Type (0, 1), BuildingBlock: UVAHIK_clean_linker_0, # of connection points: 2
#     Edge 31, Type (0, 1), BuildingBlock: UVAHIK_clean_linker_0, # of connection points: 2
#     Edge 32, Type (0, 1), BuildingBlock: UVAHIK_clean_linker_0, # of connection points: 2
#     Edge 33, Type (0, 1), BuildingBlock: UVAHIK_clean_linker_0, # of connection points: 2
#     Edge 34, Type (0, 1), BuildingBlock: UVAHIK_clean_linker_0, # of connection points: 2
#     Edge 35, Type (0, 1), BuildingBlock: UVAHIK_clean_linker_0, # of connection points: 2
# Relax obj value: 0.035
# Max RMSD: 0.110
# Mean RMSD: 0.045
data_MOF--net-pry--node1-WUSLED_clean_sbu_0--node2-CIFDUS_clean_sbu_1--edge1-UVAHIK_clean_linker_0
_symmetry_space_group_name_H-M    P1
_symmetry_Int_Tables_number       1
_symmetry_cell_setting            triclinic
loop_
_symmetry_equiv_pos_as_xyz
'x, y, z'
_cell_length_a     59.079012
_cell_length_b     57.357593
_cell_length_c     57.10069
_cell_angle_alpha  91.822967
_cell_angle_beta   91.356695
_cell_angle_gamma 94.097223
loop_
_atom_site_label
_atom_site_type_symbol
_atom_site_fract_x
_atom_site_fract_y
_atom_site_fract_z
_atom_type_partial_charge
C0 C 0.13222 0.20634 0.10411 0.0
C1 C 0.12025 0.21856 0.12102 0.0
C2 C 0.10902 0.24622 0.0917 0.0
C3 C 0.10888 0.2384 0.11488 0.0
C4 C 0.12049 0.23354 0.07481 0.0
C5 C 0.132 0.21398 0.08098 0.0
U6 U 0.15218 0.15257 0.139 0.0
O7 O 0.16629 0.12084 0.124 0.0
O8 O 0.18751 0.14485 0.14746 0.0
C9 C 0.18618 0.12535 0.13463 0.0
C10 C 0.14654 0.18683 0.10995 0.0
C11 C 0.20686 0.11864 0.12248 0.0
C12 C 0.23456 0.12118 0.09133 0.0
C13 C 0.2147 0.12861 0.10172 0.0
C14 C 0.23887 0.09403 0.12236 0.0
C15 C 0.24697 0.10366 0.1015 0.0
C16 C 0.21915 0.10133 0.13254 0.0
C17 C 0.11681 0.13225 0.19421 0.0
C18 C 0.12483 0.10846 0.22783 0.0
C19 C 0.08822 0.12439 0.22363 0.0
C20 C 0.09497 0.13452 0.2027 0.0
C21 C 0.10313 0.11157 0.23684 0.0
C22 C 0.13167 0.11882 0.20678 0.0
C23 C 0.12353 0.14581 0.17338 0.0
O24 O 0.15922 0.18923 0.12923 0.0
O25 O 0.13773 0.16532 0.10605 0.0
O26 O 0.12049 0.13559 0.1525 0.0
O27 O 0.14205 0.15993 0.17525 0.0
H28 H 0.12008 0.21308 0.139 0.0
H29 H 0.10007 0.24771 0.12827 0.0
H30 H 0.12118 0.23923 0.05692 0.0
H31 H 0.14127 0.20508 0.06765 0.0
H32 H 0.23998 0.12898 0.0752 0.0
H33 H 0.20553 0.14202 0.09356 0.0
H34 H 0.24795 0.08102 0.13125 0.0
H35 H 0.21352 0.09342 0.14858 0.0
H36 H 0.13682 0.09875 0.23747 0.0
H37 H 0.07125 0.12682 0.22958 0.0
H38 H 0.08318 0.14475 0.19336 0.0
H39 H 0.14865 0.1168 0.20065 0.0
C40 C 0.31768 0.89647 0.59479 0.0
C41 C 0.30609 0.90871 0.61193 0.0
C42 C 0.27628 0.91593 0.58309 0.0
C43 C 0.28555 0.91835 0.60612 0.0
C44 C 0.28858 0.90443 0.56594 0.0
C45 C 0.30891 0.89475 0.57176 0.0
U46 U 0.37142 0.8835 0.6317 0.0
O47 O 0.38321 0.84918 0.64 0.0
O48 O 0.40431 0.87314 0.61888 0.0
C49 C 0.40171 0.8523 0.6278 0.0
C50 C 0.33809 0.88404 0.60036 0.0
C51 C 0.40773 0.83233 0.61285 0.0
C52 C 0.39761 0.79672 0.5895 0.0
C53 C 0.39124 0.81704 0.60116 0.0
C54 C 0.43697 0.80728 0.60036 0.0
C55 C 0.42054 0.79139 0.58934 0.0
C56 C 0.43061 0.82751 0.61194 0.0
C57 C 0.38759 0.92071 0.68892 0.0
C58 C 0.42231 0.9232 0.71316 0.0
C59 C 0.3892 0.9417 0.7266 0.0
C60 C 0.37727 0.93385 0.70615 0.0
C61 C 0.41201 0.93686 0.73037 0.0
C62 C 0.41018 0.91516 0.69259 0.0
C63 C 0.37414 0.9138 0.66736 0.0
O64 O 0.35786 0.89573 0.59825 0.0
O65 O 0.33717 0.87098 0.61886 0.0
O66 O 0.362 0.8937 0.66748 0.0
O67 O 0.38376 0.91784 0.64722 0.0
H68 H 0.31261 0.9103 0.62984 0.0
H69 H 0.27661 0.927 0.61985 0.0
H70 H 0.28244 0.9027 0.5479 0.0
H71 H 0.31762 0.88547 0.55826 0.0
H72 H 0.38455 0.78503 0.58091 0.0
H73 H 0.37346 0.82046 0.60154 0.0
H74 H 0.45471 0.80364 0.60092 0.0
H75 H 0.44356 0.83904 0.62094 0.0
H76 H 0.43983 0.91911 0.71531 0.0
H77 H 0.38033 0.95149 0.73956 0.0
H78 H 0.35984 0.9382 0.70374 0.0
H79 H 0.41847 0.90491 0.67951 0.0
C80 C 0.59895 0.40966 0.82432 0.0
C81 C 0.61504 0.42659 0.81626 0.0
C82 C 0.59116 0.43137 0.78165 0.0
C83 C 0.61112 0.43746 0.79505 0.0
C84 C 0.57462 0.41542 0.79059 0.0
C85 C 0.57853 0.40464 0.81169 0.0
U86 U 0.63589 0.39453 0.87694 0.0
O87 O 0.62599 0.37995 0.9108 0.0
O88 O 0.64667 0.36027 0.88678 0.0
C89 C 0.6356 0.36034 0.90647 0.0
C90 C 0.60387 0.39539 0.84446 0.0
C91 C 0.62225 0.33847 0.9114 0.0
C92 C 0.59537 0.30579 0.89976 0.0
C93 C 0.6062 0.32771 0.89522 0.0
C94 C 0.61619 0.30559 0.9368 0.0
C95 C 0.60045 0.29433 0.92052 0.0
C96 C 0.62691 0.3274 0.93228 0.0
C97 C 0.69049 0.43268 0.89259 0.0
C98 C 0.71814 0.42302 0.92226 0.0
C99 C 0.72505 0.45764 0.89949 0.0
C100 C 0.70436 0.45257 0.88745 0.0
C101 C 0.73227 0.44288 0.91696 0.0
C102 C 0.69739 0.41795 0.91016 0.0
C103 C 0.66938 0.42724 0.87879 0.0
O104 O 0.62168 0.3831 0.84232 0.0
O105 O 0.6025 0.40545 0.86535 0.0
O106 O 0.65041 0.42905 0.89007 0.0
O107 O 0.66909 0.40845 0.86499 0.0
H108 H 0.63094 0.43067 0.82587 0.0
H109 H 0.62416 0.44967 0.78857 0.0
H110 H 0.55891 0.41072 0.78086 0.0
H111 H 0.56592 0.39169 0.81771 0.0
H112 H 0.58315 0.29777 0.88697 0.0
H113 H 0.60237 0.33603 0.87897 0.0
H114 H 0.62086 0.29722 0.95276 0.0
H115 H 0.63937 0.33538 0.94488 0.0
H116 H 0.72311 0.41144 0.93579 0.0
H117 H 0.73563 0.47287 0.89472 0.0
H118 H 0.69932 0.46403 0.87384 0.0
H119 H 0.68683 0.40249 0.91434 0.0
C120 C 0.82718 0.58197 0.41574 0.0
C121 C 0.82284 0.59522 0.43602 0.0
C122 C 0.78632 0.57275 0.44006 0.0
C123 C 0.80267 0.59056 0.44815 0.0
C124 C 0.79111 0.55946 0.41982 0.0
C125 C 0.8113 0.56394 0.40796 0.0
U126 U 0.8821 0.61828 0.39879 0.0
O127 O 0.91358 0.6056 0.38435 0.0
O128 O 0.89261 0.6278 0.36351 0.0
C129 C 0.91058 0.61557 0.36419 0.0
C130 C 0.84744 0.58704 0.40159 0.0
C131 C 0.91539 0.60216 0.34253 0.0
C132 C 0.90319 0.57978 0.30684 0.0
C133 C 0.89838 0.58906 0.32914 0.0
C134 C 0.94214 0.59566 0.31168 0.0
C135 C 0.925 0.58363 0.29754 0.0
C136 C 0.93736 0.6048 0.33384 0.0
C137 C 0.90094 0.67513 0.43657 0.0
C138 C 0.92826 0.70748 0.42812 0.0
C139 C 0.90738 0.70844 0.46403 0.0
C140 C 0.89649 0.68659 0.45782 0.0
C141 C 0.92328 0.71947 0.4492 0.0
C142 C 0.91713 0.68558 0.42181 0.0
C143 C 0.88707 0.65329 0.42996 0.0
O144 O 0.84709 0.60559 0.38872 0.0
O145 O 0.86734 0.58482 0.41174 0.0
O146 O 0.89644 0.63338 0.43251 0.0
O147 O 0.87437 0.65358 0.41079 0.0
H148 H 0.8349 0.60927 0.44232 0.0
H149 H 0.79997 0.60098 0.46383 0.0
H150 H 0.77899 0.54596 0.41255 0.0
H151 H 0.81428 0.55358 0.39229 0.0
H152 H 0.88956 0.57062 0.29647 0.0
H153 H 0.88126 0.58678 0.3355 0.0
H154 H 0.95923 0.59854 0.30538 0.0
H155 H 0.95074 0.6148 0.34388 0.0
H156 H 0.94066 0.71505 0.41636 0.0
H157 H 0.90262 0.717 0.48015 0.0
H158 H 0.88398 0.67891 0.46941 0.0
H159 H 0.92086 0.67703 0.40531 0.0
C160 C 0.88956 0.82729 0.91962 0.0
C161 C 0.90501 0.81759 0.90439 0.0
C162 C 0.91302 0.78772 0.93289 0.0
C163 C 0.91666 0.79807 0.91098 0.0
C164 C 0.89755 0.7978 0.94794 0.0
C165 C 0.88618 0.81728 0.94144 0.0
U166 U 0.87059 0.8806 0.88355 0.0
O167 O 0.83546 0.88905 0.87535 0.0
O168 O 0.85754 0.91312 0.89794 0.0
C169 C 0.83743 0.90882 0.88774 0.0
C170 C 0.87577 0.84702 0.91341 0.0
C171 C 0.81721 0.91605 0.90028 0.0
C172 C 0.79037 0.91446 0.9322 0.0
C173 C 0.80983 0.90658 0.92143 0.0
C174 C 0.7855 0.94096 0.90067 0.0
C175 C 0.77787 0.93187 0.92195 0.0
C176 C 0.80487 0.93328 0.89017 0.0
C177 C 0.90503 0.89884 0.8274 0.0
C178 C 0.89676 0.92333 0.79446 0.0
C179 C 0.93269 0.90573 0.79694 0.0
C180 C 0.9263 0.89564 0.81798 0.0
C181 C 0.91805 0.91967 0.78465 0.0
C182 C 0.89027 0.91295 0.81558 0.0
C183 C 0.89873 0.8857 0.84856 0.0
O184 O 0.88523 0.86837 0.91657 0.0
O185 O 0.86281 0.84438 0.89435 0.0
O186 O 0.87994 0.87196 0.84733 0.0
O187 O 0.90238 0.89634 0.86917 0.0
H188 H 0.90794 0.82497 0.8874 0.0
H189 H 0.92856 0.79119 0.8989 0.0
H190 H 0.89363 0.79033 0.96465 0.0
H191 H 0.87426 0.82431 0.95345 0.0
H192 H 0.78533 0.90708 0.94865 0.0
H193 H 0.81906 0.89323 0.92962 0.0
H194 H 0.77631 0.95382 0.89168 0.0
H195 H 0.81017 0.94079 0.87383 0.0
H196 H 0.88507 0.93418 0.78583 0.0
H197 H 0.94895 0.90191 0.79002 0.0
H198 H 0.9379 0.88468 0.82665 0.0
H199 H 0.87371 0.9157 0.82248 0.0
C200 C 0.61705 0.1374 0.33571 0.0
C201 C 0.63053 0.12 0.32708 0.0
C202 C 0.60414 0.1119 0.29361 0.0
C203 C 0.62414 0.10736 0.30615 0.0
C204 C 0.59085 0.12939 0.30251 0.0
C205 C 0.59722 0.14191 0.32328 0.0
U206 U 0.65319 0.15631 0.39212 0.0
O207 O 0.66293 0.19219 0.40525 0.0
O208 O 0.64095 0.1689 0.42609 0.0
C209 C 0.65058 0.19008 0.424 0.0
C210 C 0.62315 0.15171 0.35719 0.0
C211 C 0.63654 0.20966 0.42967 0.0
C212 C 0.60717 0.23577 0.42007 0.0
C213 C 0.61955 0.21648 0.41423 0.0
C214 C 0.62848 0.24129 0.45683 0.0
C215 C 0.61154 0.24842 0.44147 0.0
C216 C 0.64081 0.22215 0.45097 0.0
C217 C 0.70623 0.12125 0.40719 0.0
C218 C 0.73552 0.12762 0.43801 0.0
C219 C 0.73799 0.09664 0.40856 0.0
C220 C 0.71768 0.10254 0.39817 0.0
C221 C 0.74735 0.10926 0.42839 0.0
C222 C 0.71511 0.13372 0.42737 0.0
C223 C 0.68572 0.12738 0.39419 0.0
O224 O 0.62027 0.14149 0.37729 0.0
O225 O 0.64193 0.1654 0.35676 0.0
O226 O 0.68734 0.14689 0.38269 0.0
O227 O 0.66605 0.12343 0.40415 0.0
H228 H 0.64595 0.11626 0.33644 0.0
H229 H 0.6347 0.09392 0.29991 0.0
H230 H 0.57563 0.13377 0.29319 0.0
H231 H 0.58667 0.15537 0.32955 0.0
H232 H 0.5941 0.24069 0.40795 0.0
H233 H 0.61598 0.20701 0.39768 0.0
H234 H 0.63257 0.25081 0.47325 0.0
H235 H 0.65392 0.21722 0.46305 0.0
H236 H 0.74242 0.13768 0.45325 0.0
H237 H 0.74654 0.08225 0.40092 0.0
H238 H 0.71107 0.09267 0.38269 0.0
H239 H 0.70652 0.14827 0.4346 0.0
C240 C 0.31593 0.6226 0.14469 0.0
C241 C 0.31089 0.63576 0.12514 0.0
C242 C 0.27538 0.61191 0.11829 0.0
C243 C 0.29076 0.63036 0.11192 0.0
C244 C 0.28076 0.59868 0.13769 0.0
C245 C 0.30085 0.60397 0.15073 0.0
U246 U 0.37002 0.6608 0.16187 0.0
O247 O 0.38344 0.67262 0.19679 0.0
O248 O 0.4033 0.65043 0.17432 0.0
C249 C 0.4016 0.6608 0.195 0.0
C250 C 0.33646 0.6282 0.15944 0.0
C251 C 0.40712 0.64714 0.21544 0.0
C252 C 0.39798 0.61652 0.24292 0.0
C253 C 0.39299 0.62794 0.22225 0.0
C254 C 0.43149 0.64304 0.2496 0.0
C255 C 0.41707 0.62431 0.25705 0.0
C256 C 0.42652 0.65435 0.22904 0.0
C257 C 0.38449 0.71539 0.12529 0.0
C258 C 0.41576 0.74488 0.13247 0.0
C259 C 0.38872 0.7489 0.10052 0.0
C260 C 0.37702 0.72802 0.10639 0.0
C261 C 0.40817 0.75766 0.1135 0.0
C262 C 0.40401 0.72381 0.13831 0.0
C263 C 0.37101 0.69395 0.13118 0.0
O264 O 0.35592 0.62601 0.1492 0.0
O265 O 0.33631 0.64723 0.17285 0.0
O266 O 0.35987 0.69496 0.15079 0.0
O267 O 0.38054 0.67415 0.12778 0.0
H268 H 0.32236 0.6503 0.12028 0.0
H269 H 0.28695 0.64091 0.09713 0.0
H270 H 0.26938 0.58419 0.14282 0.0
H271 H 0.30452 0.5936 0.16571 0.0
H272 H 0.38651 0.6022 0.24824 0.0
H273 H 0.3779 0.62215 0.21191 0.0
H274 H 0.44654 0.64917 0.25983 0.0
H275 H 0.43764 0.66908 0.22398 0.0
H276 H 0.43076 0.75115 0.1427 0.0
H277 H 0.38218 0.7585 0.08611 0.0
H278 H 0.3619 0.72183 0.09628 0.0
H279 H 0.40999 0.71424 0.153 0.0
C280 C 0.088 0.34647 0.61162 0.0
C281 C 0.10257 0.33673 0.59545 0.0
C282 C 0.07548 0.30275 0.58878 0.0
C283 C 0.09627 0.31506 0.58398 0.0
C284 C 0.06076 0.31305 0.60437 0.0
C285 C 0.06693 0.33466 0.61557 0.0
U286 U 0.1255 0.4033 0.63016 0.0
O287 O 0.11407 0.4363 0.64522 0.0
O288 O 0.13625 0.41525 0.66591 0.0
C289 C 0.12432 0.43371 0.66556 0.0
C290 C 0.09463 0.36784 0.62603 0.0
C291 C 0.11148 0.43857 0.68685 0.0
C292 C 0.08689 0.42619 0.7185 0.0
C293 C 0.09679 0.42153 0.69686 0.0
C294 C 0.10588 0.46504 0.71998 0.0
C295 C 0.09164 0.44791 0.73062 0.0
C296 C 0.11554 0.46043 0.69837 0.0
C297 C 0.179 0.42146 0.59366 0.0
C298 C 0.21333 0.44595 0.60445 0.0
C299 C 0.20808 0.42958 0.56494 0.0
C300 C 0.18701 0.41905 0.57087 0.0
C301 C 0.22175 0.44282 0.58173 0.0
C302 C 0.19211 0.43537 0.61038 0.0
C303 C 0.15811 0.40736 0.59959 0.0
O304 O 0.11337 0.36756 0.63884 0.0
O305 O 0.09222 0.38807 0.61642 0.0
O306 O 0.13867 0.41692 0.59696 0.0
O307 O 0.15919 0.39485 0.61842 0.0
H308 H 0.11897 0.34555 0.59217 0.0
H309 H 0.10798 0.30753 0.57208 0.0
H310 H 0.04452 0.30418 0.60818 0.0
H311 H 0.05541 0.34187 0.6279 0.0
H312 H 0.07572 0.41267 0.72582 0.0
H313 H 0.09338 0.40451 0.68822 0.0
H314 H 0.11038 0.48181 0.7287 0.0
H315 H 0.1269 0.47378 0.691 0.0
H316 H 0.2233 0.45627 0.61773 0.0
H317 H 0.21408 0.42647 0.54742 0.0
H318 H 0.17727 0.40825 0.55776 0.0
H319 H 0.18624 0.43752 0.6281 0.0
O320 O 0.97876 0.02814 0.50498 0.0
Mn321 Mn 0.00993 0.01261 0.50975 0.0
O322 O 0.96285 0.01141 0.47221 0.0
Mn323 Mn 0.98655 0.9932 0.46695 0.0
O324 O 0.04144 0.9974 0.51484 0.0
O325 O 0.02152 0.04376 0.52674 0.0
Mn326 Mn 0.03635 0.03438 0.55166 0.0
O327 O 0.99712 0.99828 0.54142 0.0
O328 O 0.06127 0.01998 0.54203 0.0
O329 O 0.02358 0.0276 0.4786 0.0
O330 O 0.00878 1.00567 0.44842 0.0
O331 O 0.03928 0.06564 0.55546 0.0
O332 O 0.01729 0.01752 0.57072 0.0
C333 C 0.98973 0.96137 0.48134 0.0
C334 C 0.96257 0.02573 0.48948 0.0
C335 C 0.05986 1.0034 0.52679 0.0
C336 C 0.02797 0.06463 0.53567 0.0
C337 C 1.00187 1.00229 0.56349 0.0
C338 C 0.0226 0.02186 0.45654 0.0
O339 O 0.9978 0.98079 0.49281 0.0
O340 O 0.97912 0.9631 0.46139 0.0
O341 O 0.50448 0.0173 0.97542 0.0
Mn342 Mn 0.51382 0.0201 0.01178 0.0
O343 O 0.50717 0.97947 0.96495 0.0
Mn344 Mn 0.51881 0.97086 0.99304 0.0
O345 O 0.52364 0.0217 0.04784 0.0
O346 O 0.52238 0.05557 0.00753 0.0
Mn347 Mn 0.5094 0.06713 0.03288 0.0
O348 O 0.47892 0.02559 0.01937 0.0
O349 O 0.5226 0.05885 0.06034 0.0
O350 O 0.5486 0.01434 1.00402 0.0
O351 O 0.54963 0.97576 0.99702 0.0
O352 O 0.52159 0.09295 0.02055 0.0
O353 O 0.47849 0.06317 0.0307 0.0
C354 C 0.49873 0.96397 0.02177 0.0
C355 C 0.5028 1.00013 0.96009 0.0
C356 C 0.52691 0.03799 0.06381 0.0
C357 C 0.52779 0.07802 1.00486 0.0
C358 C 0.46812 0.04358 0.02551 0.0
C359 C 0.55965 0.99596 1.00001 0.0
O360 O 0.50549 0.98523 0.01616 0.0
O361 O 0.50456 0.9471 0.00807 0.0
O362 O 0.53942 0.52652 0.51343 0.0
Mn363 Mn 0.50461 0.5152 0.51488 0.0
O364 O 0.54975 0.51899 0.47642 0.0
Mn365 Mn 0.5224 0.50416 0.46644 0.0
O366 O 0.46943 0.5034 0.51622 0.0
O367 O 0.50971 0.51293 0.55016 0.0
Mn368 Mn 0.48535 0.52308 0.56309 0.0
O369 O 0.49624 0.55032 0.51893 0.0
O370 O 0.46121 0.5028 0.55435 0.0
O371 O 0.51271 0.47978 0.51094 0.0
O372 O 0.51803 0.47308 0.47258 0.0
O373 O 0.50287 0.51634 0.58797 0.0
O374 O 0.48279 0.5536 0.55534 0.0
C375 C 0.49455 0.52313 0.45818 0.0
C376 C 0.55423 0.52685 0.4972 0.0
C377 C 0.45591 0.49802 0.53302 0.0
C378 C 0.51645 0.51024 0.57174 0.0
C379 C 0.48763 0.56214 0.53566 0.0
C380 C 0.51579 0.46592 0.49322 0.0
O381 O 0.50037 0.51867 0.47963 0.0
O382 O 0.50709 0.51522 0.44184 0.0
O383 O 0.97421 0.50174 0.0113 0.0
Mn384 Mn 1.00792 0.51629 0.01452 0.0
O385 O 0.96254 0.51046 0.97543 0.0
Mn386 Mn 0.98987 0.52509 0.96831 0.0
O387 O 0.04172 0.53158 0.01795 0.0
O388 O 1.00106 0.52041 0.05042 0.0
Mn389 Mn 0.02675 0.51015 0.06165 0.0
O390 O 0.0189 0.48143 0.018 0.0
O391 O 0.05092 0.53037 0.05599 0.0
O392 O 0.99705 0.55131 0.01139 0.0
O393 O 0.99234 0.5566 0.97331 0.0
O394 O 0.01291 0.51616 0.08794 0.0
O395 O 0.03019 0.4793 0.05535 0.0
C396 C 0.01611 0.5089 0.95529 0.0
C397 C 0.95891 0.50148 0.99499 0.0
C398 C 0.05519 0.53705 0.03561 0.0
C399 C 0.99767 0.52256 0.07325 0.0
C400 C 0.02682 0.46995 0.03515 0.0
C401 C 0.99331 0.56465 0.99408 0.0
O402 O 0.01423 0.51119 0.97841 0.0
O403 O 1.00056 0.5161 0.94141 0.0
C404 C 0.08347 0.11602 0.27543 0.0
C405 C 0.09612 0.10248 0.26023 0.0
C406 C 0.07669 0.10783 0.29725 0.0
C407 C 0.08874 0.06313 0.3416 0.0
H408 H 0.03169 0.08048 0.36673 0.0
C409 C 0.04951 0.02073 0.42381 0.0
C410 C 0.03687 0.03415 0.43904 0.0
C411 C 0.05818 0.02996 0.40316 0.0
C412 C 0.04785 0.07573 0.36022 0.0
H413 H 0.11127 0.06931 0.25639 0.0
H414 H 0.09922 0.05484 0.29426 0.0
H415 H 0.04296 0.09356 0.32832 0.0
H416 H 0.02339 0.06792 0.44445 0.0
H417 H 0.03894 0.08441 0.4085 0.0
H418 H 0.09342 0.04499 0.3734 0.0
C419 C 0.09488 0.07211 0.2895 0.0
C420 C 0.05437 0.08325 0.33802 0.0
C421 C 0.1018 0.0804 0.26765 0.0
C422 C 0.03367 0.05739 0.43345 0.0
C423 C 0.04222 0.06664 0.41258 0.0
C424 C 0.08217 0.05553 0.36375 0.0
C425 C 0.08221 0.08572 0.30472 0.0
C426 C 0.07498 0.07716 0.32831 0.0
C427 C 0.05422 0.05287 0.39684 0.0
C428 C 0.06164 0.06174 0.37348 0.0
H429 H 0.07909 0.13329 0.27066 0.0
H430 H 0.06745 0.11918 0.30845 0.0
H431 H 0.10488 0.05829 0.33512 0.0
H432 H 0.05169 1.00256 0.42732 0.0
H433 H 0.06697 0.0186 0.39153 0.0
C434 C 0.41977 0.96795 0.76235 0.0
C435 C 0.4246 0.94623 0.7522 0.0
C436 C 0.42979 0.97605 0.78377 0.0
C437 C 0.46238 0.95544 0.83573 0.0
H438 H 0.46661 0.02163 0.85298 0.0
C439 C 0.51062 0.99221 0.91854 0.0
C440 C 0.49728 1.00326 0.93504 0.0
C441 C 0.50287 0.98791 0.89547 0.0
C442 C 0.4654 1.0031 0.84839 0.0
H443 H 0.445 0.91661 0.7565 0.0
H444 H 0.46374 0.93143 0.79285 0.0
H445 H 0.45297 0.00864 0.8138 0.0
H446 H 0.46584 0.01976 0.93992 0.0
H447 H 0.4525 0.01308 0.89876 0.0
H448 H 0.47613 0.95033 0.87013 0.0
C449 C 0.45127 0.94182 0.78488 0.0
C450 C 0.4574 0.99549 0.82592 0.0
C451 C 0.44078 0.93342 0.76363 0.0
C452 C 0.47667 0.01166 0.92747 0.0
C453 C 0.46897 0.00759 0.90405 0.0
C454 C 0.47095 0.96315 0.85792 0.0
C455 C 0.4456 0.9631 0.79561 0.0
C456 C 0.45546 0.97145 0.81923 0.0
C457 C 0.48165 0.99484 0.88815 0.0
C458 C 0.47235 0.98702 0.86456 0.0
H459 H 0.40794 0.97877 0.75389 0.0
H460 H 0.42451 0.9923 0.79121 0.0
H461 H 0.46083 0.9368 0.83185 0.0
H462 H 0.52653 0.98542 0.92393 0.0
H463 H 0.51308 0.9783 0.88356 0.0
C464 C 0.59321 0.46336 0.75226 0.0
C465 C 0.58823 0.4398 0.75755 0.0
C466 C 0.58987 0.47085 0.72938 0.0
C467 C 0.55766 0.45291 0.67462 0.0
H468 H 0.59908 0.49815 0.64561 0.0
C469 C 0.53838 0.47717 0.58159 0.0
C470 C 0.53795 0.50136 0.57915 0.0
C471 C 0.55034 0.46846 0.60044 0.0
C472 C 0.58738 0.48547 0.65346 0.0
H473 H 0.57707 0.40546 0.74285 0.0
H474 H 0.57151 0.41833 0.70325 0.0
H475 H 0.6069 0.48656 0.68569 0.0
H476 H 0.55184 0.53525 0.59235 0.0
H477 H 0.57279 0.52028 0.62499 0.0
H478 H 0.5378 0.45211 0.64296 0.0
C479 C 0.5773 0.43123 0.71673 0.0
C480 C 0.59178 0.47895 0.67647 0.0
C481 C 0.58049 0.42384 0.73947 0.0
C482 C 0.55231 0.51647 0.59362 0.0
C483 C 0.5641 0.50784 0.61258 0.0
C484 C 0.55328 0.45938 0.65175 0.0
C485 C 0.58164 0.45485 0.71142 0.0
C486 C 0.577 0.46249 0.68725 0.0
C487 C 0.5619 0.48387 0.61715 0.0
C488 C 0.56809 0.47567 0.64077 0.0
H489 H 0.5992 0.47604 0.76588 0.0
H490 H 0.59322 0.4892 0.72588 0.0
H491 H 0.54558 0.44066 0.68258 0.0
H492 H 0.5271 0.46521 0.57091 0.0
H493 H 0.54881 0.44981 0.6031 0.0
C494 C 0.94303 0.59199 0.25894 0.0
C495 C 0.92965 0.57675 0.27271 0.0
C496 C 0.94709 0.58622 0.23552 0.0
C497 C 0.94577 0.53659 0.19193 0.0
H498 H 0.94668 0.58633 0.14745 0.0
C499 C 0.96226 0.51676 0.09451 0.0
C500 C 0.97803 0.53248 0.0841 0.0
C501 C 0.95226 0.52277 0.11571 0.0
C502 C 0.94665 0.5722 0.15958 0.0
H503 H 0.91035 0.54315 0.27245 0.0
H504 H 0.91717 0.53316 0.23133 0.0
H505 H 0.93869 0.5948 0.18828 0.0
H506 H 0.99443 0.56736 0.08699 0.0
H507 H 0.97687 0.57813 0.12342 0.0
H508 H 0.95423 0.51408 0.16335 0.0
C509 C 0.92467 0.54959 0.23881 0.0
C510 C 0.94209 0.57709 0.18312 0.0
C511 C 0.92057 0.55541 0.26235 0.0
C512 C 0.98166 0.55519 0.09403 0.0
C513 C 0.97184 0.56119 0.11529 0.0
C514 C 0.95042 0.53171 0.16837 0.0
C515 C 0.93782 0.56505 0.225 0.0
C516 C 0.94179 0.55943 0.1997 0.0
C517 C 0.95787 0.54466 0.12706 0.0
C518 C 0.9511 0.54949 0.15183 0.0
H519 H 0.9501 0.60871 0.26613 0.0
H520 H 0.95762 0.59842 0.22566 0.0
H521 H 0.94597 0.52258 0.20419 0.0
H522 H 0.95971 0.49887 0.08776 0.0
H523 H 0.94122 0.5097 0.12388 0.0
C524 C 0.28348 0.11087 0.07912 0.0
C525 C 0.26837 0.0955 0.09095 0.0
C526 C 0.30395 0.10341 0.07046 0.0
C527 C 0.33562 0.04921 0.0583 0.0
H528 H 0.38695 0.09495 0.05639 0.0
C529 C 0.43022 0.02699 0.04048 0.0
C530 C 0.44289 0.04312 0.02701 0.0
C531 C 0.40788 0.03127 0.04699 0.0
C532 C 0.37277 0.0819 0.05659 0.0
H533 H 0.26314 0.05959 0.10183 0.0
H534 H 0.29894 0.04717 0.08813 0.0
H535 H 0.35093 0.10686 0.07021 0.0
H536 H 0.44148 0.07556 0.00879 0.0
H537 H 0.40303 0.08265 0.01957 0.0
H538 H 0.35809 0.02415 0.04523 0.0
C539 C 0.29494 0.06494 0.08504 0.0
C540 C 0.35188 0.08881 0.06445 0.0
C541 C 0.27435 0.07229 0.09338 0.0
C542 C 0.43223 0.0627 0.01909 0.0
C543 C 0.4102 0.06696 0.02557 0.0
C544 C 0.3567 0.04223 0.0507 0.0
C545 C 0.31027 0.08038 0.07355 0.0
C546 C 0.33278 0.07269 0.06525 0.0
C547 C 0.39792 0.05183 0.0403 0.0
C548 C 0.37553 0.05856 0.04943 0.0
H549 H 0.2798 0.1289 0.07693 0.0
H550 H 0.3148 0.11588 0.06128 0.0
H551 H 0.32147 0.03615 0.05826 0.0
H552 H 0.43805 0.012 0.04728 0.0
H553 H 0.39893 0.01917 0.05834 0.0
C554 C 0.24633 0.94525 0.58709 0.0
C555 C 0.25362 0.9245 0.5769 0.0
C556 C 0.22508 0.95307 0.58094 0.0
C557 C 0.16966 0.93273 0.55041 0.0
H558 H 0.16153 0.99908 0.55053 0.0
C559 C 0.08133 0.96835 0.53366 0.0
C560 C 0.08047 0.99064 0.52446 0.0
C561 C 0.10233 0.95947 0.53888 0.0
C562 C 0.16349 0.98046 0.54992 0.0
H563 H 0.24368 0.89552 0.55254 0.0
H564 H 0.20778 0.90973 0.54085 0.0
H565 H 0.19811 0.98585 0.56176 0.0
H566 H 0.10059 0.02085 0.51283 0.0
H567 H 0.13703 1.00487 0.52011 0.0
H568 H 0.1355 0.92737 0.53722 0.0
C569 C 0.21802 0.9198 0.55408 0.0
C570 C 0.18451 0.9728 0.55692 0.0
C571 C 0.23901 0.91182 0.56048 0.0
C572 C 0.10084 1.00334 0.51937 0.0
C573 C 0.12176 0.99435 0.52415 0.0
C574 C 0.14881 0.9404 0.54292 0.0
C575 C 0.2106 0.94049 0.56425 0.0
C576 C 0.18798 0.94879 0.55726 0.0
C577 C 0.12291 0.97264 0.53481 0.0
C578 C 0.14534 0.96439 0.54252 0.0
H579 H 0.25712 0.95563 0.59964 0.0
H580 H 0.22 0.96891 0.58949 0.0
H581 H 0.17127 0.91408 0.55088 0.0
H582 H 0.06586 0.95861 0.53853 0.0
H583 H 0.10229 0.94286 0.54736 0.0
C584 C 0.76227 0.47113 0.93571 0.0
C585 C 0.75469 0.44802 0.92911 0.0
C586 C 0.78377 0.47615 0.94611 0.0
C587 C 0.83118 0.44891 0.97629 0.0
H588 H 0.86577 0.50494 0.9576 0.0
C589 C 0.92818 0.4696 0.99386 0.0
C590 C 0.93539 0.49307 0.99887 0.0
C591 C 0.90517 0.4632 0.989 0.0
C592 C 0.85621 0.48939 0.96328 0.0
H593 H 0.7638 0.41204 0.92832 0.0
H594 H 0.80139 0.42081 0.94631 0.0
H595 H 0.82781 0.49558 0.94109 0.0
H596 H 0.92461 0.52814 1.00355 0.0
H597 H 0.88447 0.517 0.99565 0.0
H598 H 0.86007 0.44254 0.99804 0.0
C599 C 0.79056 0.43503 0.94382 0.0
C600 C 0.83441 0.48402 0.95381 0.0
C601 C 0.769 0.43 0.93349 0.0
C602 C 0.91926 0.50981 1.00038 0.0
C603 C 0.89639 0.50349 0.99543 0.0
C604 C 0.85312 0.45422 0.98566 0.0
C605 C 0.79829 0.45821 0.9501 0.0
C606 C 0.82155 0.46377 0.96026 0.0
C607 C 0.88923 0.4803 0.98876 0.0
C608 C 0.86579 0.47461 0.97936 0.0
H609 H 0.75154 0.48538 0.93293 0.0
H610 H 0.78896 0.49414 0.95113 0.0
H611 H 0.82168 0.43329 0.98184 0.0
H612 H 0.94049 0.4566 0.99184 0.0
H613 H 0.90017 0.44523 0.98373 0.0
C614 C 0.75245 0.54616 0.45128 0.0
C615 C 0.76401 0.56854 0.45188 0.0
C616 C 0.73072 0.54263 0.46039 0.0
C617 C 0.6818 0.57638 0.47996 0.0
H618 H 0.65801 0.51501 0.49781 0.0
C619 C 0.58606 0.5548 0.48777 0.0
C620 C 0.57773 0.53661 0.50169 0.0
C621 C 0.60936 0.55997 0.48584 0.0
C622 C 0.66439 0.53243 0.49341 0.0
H623 H 0.76152 0.60462 0.46368 0.0
H624 H 0.72495 0.59816 0.48126 0.0
H625 H 0.69752 0.52107 0.48765 0.0
H626 H 0.58713 0.50976 0.52504 0.0
H627 H 0.62811 0.51943 0.52272 0.0
H628 H 0.64919 0.58813 0.48715 0.0
C629 C 0.73205 0.58338 0.47266 0.0
C630 C 0.68714 0.53584 0.487 0.0
C631 C 0.75351 0.58704 0.46295 0.0
C632 C 0.59316 0.52435 0.51471 0.0
C633 C 0.61666 0.5296 0.5129 0.0
C634 C 0.65933 0.57314 0.48701 0.0
C635 C 0.72 0.56123 0.47109 0.0
C636 C 0.69615 0.55779 0.47969 0.0
C637 C 0.62513 0.54708 0.49787 0.0
C638 C 0.65001 0.551 0.49326 0.0
H639 H 0.76002 0.53122 0.44351 0.0
H640 H 0.72222 0.52532 0.45841 0.0
H641 H 0.68757 0.5935 0.47415 0.0
H642 H 0.57449 0.56408 0.47709 0.0
H643 H 0.61484 0.57317 0.47368 0.0
C644 C 0.104 0.28931 0.09742 0.0
C645 C 0.09821 0.26805 0.08515 0.0
C646 C 0.09525 0.31018 0.09028 0.0
C647 C 0.06242 0.33596 0.04004 0.0
H648 H 0.06245 0.38824 0.08464 0.0
C649 C 0.02105 0.42626 0.02487 0.0
C650 C 0.0351 0.44606 0.03245 0.0
C651 C 0.02774 0.40349 0.02901 0.0
C652 C 0.06231 0.37381 0.07191 0.0
H653 H 0.07819 0.25199 0.05599 0.0
H654 H 0.06166 0.28772 0.04445 0.0
H655 H 0.07479 0.35128 0.09735 0.0
H656 H 0.06748 0.45732 0.04926 0.0
H657 H 0.07887 0.41829 0.05636 0.0
H658 H 0.04883 0.35891 0.01494 0.0
C659 C 0.07374 0.28886 0.05903 0.0
C660 C 0.06973 0.35243 0.07913 0.0
C661 C 0.08304 0.26811 0.06581 0.0
C662 C 0.05629 0.4425 0.04303 0.0
C663 C 0.06276 0.42007 0.04737 0.0
C664 C 0.05445 0.35731 0.03297 0.0
C665 C 0.07981 0.31047 0.07095 0.0
C666 C 0.07044 0.3331 0.06329 0.0
C667 C 0.04837 0.40022 0.04112 0.0
C668 C 0.05473 0.37667 0.0487 0.0
H669 H 0.11595 0.28996 0.11216 0.0
H670 H 0.1012 0.32612 0.09978 0.0
H671 H 0.06278 0.322 0.02693 0.0
H672 H 1.00442 0.42835 0.01717 0.0
H673 H 0.01625 0.38853 0.02396 0.0
C674 C 0.58762 0.25319 0.90676 0.0
C675 C 0.5903 0.27036 0.92496 0.0
C676 C 0.58002 0.23015 0.9114 0.0
C677 C 0.55157 0.19344 0.9562 0.0
H678 H 0.58336 0.14347 0.92732 0.0
C679 C 0.56098 0.10056 0.99057 0.0
C680 C 0.54011 0.08799 0.98512 0.0
C681 C 0.56774 0.12047 0.97829 0.0
C682 C 0.57422 0.15728 0.93524 0.0
H683 H 0.58599 0.27684 0.96218 0.0
H684 H 0.57331 0.23671 0.97033 0.0
H685 H 0.59245 0.18403 0.91646 0.0
H686 H 0.51077 0.08544 0.9616 0.0
H687 H 0.52289 0.12008 0.93967 0.0
H688 H 0.53384 0.16658 0.97542 0.0
C689 C 0.57691 0.24103 0.95241 0.0
C690 C 0.5793 0.18047 0.92902 0.0
C691 C 0.58446 0.26404 0.94777 0.0
C692 C 0.5273 0.09427 0.96558 0.0
C693 C 0.534 0.11433 0.95336 0.0
C694 C 0.5464 0.17027 0.96226 0.0
C695 C 0.57488 0.2237 0.93434 0.0
C696 C 0.56826 0.19888 0.93966 0.0
C697 C 0.55373 0.1281 0.96036 0.0
C698 C 0.55783 0.15208 0.95198 0.0
H699 H 0.59211 0.25733 0.88902 0.0
H700 H 0.57835 0.21733 0.89701 0.0
H701 H 0.54257 0.2071 0.96458 0.0
H702 H 0.57069 0.09669 1.00613 0.0
H703 H 0.58286 0.13106 0.98416 0.0
C704 C 0.9376 0.75143 0.47888 0.0
C705 C 0.9336 0.74372 0.45533 0.0
C706 C 0.94549 0.77461 0.48464 0.0
C707 C 0.95159 0.834 0.45844 0.0
H708 H 0.98912 0.85025 0.51406 0.0
C709 C 1.00195 0.92249 0.47129 0.0
C710 C 0.99298 0.93722 0.48836 0.0
C711 C 0.99642 0.89839 0.47062 0.0
C712 C 0.97849 0.84592 0.4986 0.0
H713 H 0.93554 0.75491 0.41943 0.0
H714 H 0.9505 0.7945 0.42929 0.0
H715 H 0.97645 0.80926 0.50511 0.0
H716 H 0.97226 0.93784 0.51906 0.0
H717 H 0.96372 0.89506 0.51883 0.0
H718 H 0.95464 0.87061 0.45148 0.0
C719 C 0.94675 0.78291 0.4435 0.0
C720 C 0.9711 0.82242 0.49342 0.0
C721 C 0.93853 0.75984 0.43776 0.0
C722 C 0.98007 0.92692 0.5062 0.0
C723 C 0.97487 0.90251 0.5058 0.0
C724 C 0.95931 0.85732 0.4634 0.0
C725 C 0.95 0.79087 0.46706 0.0
C726 C 0.95765 0.81601 0.47311 0.0
C727 C 0.98215 0.88823 0.48732 0.0
C728 C 0.97293 0.86353 0.48343 0.0
H729 H 0.93451 0.73959 0.49303 0.0
H730 H 0.94755 0.77983 0.50299 0.0
H731 H 0.94075 0.83019 0.44305 0.0
H732 H 0.01136 0.92994 0.45691 0.0
H733 H 1.00219 0.88784 0.45616 0.0
C734 C 0.4477 0.76744 0.56715 0.0
C735 C 0.42725 0.76873 0.57917 0.0
C736 C 0.45486 0.74582 0.55939 0.0
C737 C 0.44719 0.68335 0.5725 0.0
H738 H 0.47449 0.67256 0.51232 0.0
C739 C 0.45915 0.591 0.54045 0.0
C740 C 0.48056 0.58597 0.53232 0.0
C741 C 0.45333 0.61395 0.54308 0.0
C742 C 0.46711 0.67542 0.52926 0.0
H743 H 0.39819 0.74817 0.59206 0.0
H744 H 0.41033 0.71071 0.57806 0.0
H745 H 0.46277 0.71161 0.52313 0.0
H746 H 0.51219 0.60087 0.51899 0.0
H747 H 0.50188 0.64171 0.52356 0.0
H748 H 0.45139 0.64744 0.57877 0.0
C749 C 0.42101 0.72638 0.5749 0.0
C750 C 0.46039 0.69773 0.53546 0.0
C751 C 0.41387 0.74793 0.58265 0.0
C752 C 0.49552 0.60435 0.52516 0.0
C753 C 0.48965 0.62763 0.52789 0.0
C754 C 0.45386 0.66122 0.56634 0.0
C755 C 0.44177 0.72501 0.56353 0.0
C756 C 0.44997 0.7018 0.557 0.0
C757 C 0.46882 0.6326 0.5378 0.0
C758 C 0.46348 0.65683 0.54449 0.0
H759 H 0.45832 0.78313 0.56395 0.0
H760 H 0.47097 0.74537 0.55078 0.0
H761 H 0.43986 0.68601 0.5895 0.0
H762 H 0.44723 0.5771 0.54593 0.0
H763 H 0.43692 0.61711 0.55015 0.0
C764 C 0.90894 0.9319 0.74321 0.0
C765 C 0.92496 0.92956 0.76152 0.0
C766 C 0.91574 0.93974 0.72119 0.0
C767 C 0.96551 0.96886 0.69075 0.0
H768 H 0.9337 0.94347 0.63437 0.0
C769 C 1.00456 0.98192 0.60095 0.0
C770 C 0.99074 0.98851 0.58223 0.0
C771 C 0.99518 0.9739 0.62166 0.0
C772 C 0.94265 0.9509 0.64993 0.0
H773 H 0.9609 0.93478 0.77071 0.0
H774 H 0.97273 0.94708 0.73251 0.0
H775 H 0.92029 0.93194 0.67276 0.0
H776 H 0.95597 0.99079 0.57031 0.0
H777 H 0.93927 0.97635 0.60679 0.0
H778 H 0.98809 0.98745 0.66799 0.0
C779 C 0.95477 0.94331 0.7351 0.0
C780 C 0.93492 0.94435 0.67207 0.0
C781 C 0.94795 0.93578 0.75713 0.0
C782 C 0.96705 0.98553 0.58426 0.0
C783 C 0.95754 0.97743 0.60525 0.0
C784 C 0.9733 0.97522 0.66871 0.0
C785 C 0.93882 0.94535 0.71665 0.0
C786 C 0.94637 0.95304 0.69289 0.0
C787 C 0.97158 0.97226 0.62452 0.0
C788 C 0.96219 0.96614 0.64793 0.0
H789 H 0.89111 0.92716 0.74562 0.0
H790 H 0.9028 0.9414 0.70773 0.0
H791 H 0.97455 0.97656 0.70614 0.0
H792 H 0.02289 0.98394 0.59995 0.0
H793 H 1.00657 0.96951 0.63573 0.0
C794 C 0.61297 0.09368 0.25422 0.0
C795 C 0.59704 0.09892 0.2712 0.0
C796 C 0.60587 0.08325 0.23245 0.0
C797 C 0.55472 0.07548 0.19301 0.0
H798 H 0.5891 0.03056 0.15956 0.0
C799 C 0.51997 0.03362 0.10595 0.0
C800 C 0.53526 0.03333 0.08755 0.0
C801 C 0.52784 0.03767 0.12912 0.0
C802 C 0.57935 0.04316 0.16864 0.0
H803 H 0.56119 0.09591 0.27893 0.0
H804 H 0.54891 0.07775 0.24133 0.0
H805 H 0.60234 0.04569 0.19842 0.0
H806 H 0.57071 0.03659 0.0788 0.0
H807 H 0.58466 0.04339 0.11935 0.0
H808 H 0.53189 0.07324 0.16333 0.0
C809 C 0.56686 0.08225 0.24448 0.0
C810 C 0.58698 0.0519 0.19091 0.0
C811 C 0.57394 0.09267 0.26614 0.0
C812 C 0.55865 0.03591 0.0928 0.0
C813 C 0.56658 0.04002 0.11603 0.0
C814 C 0.54709 0.06672 0.17088 0.0
C815 C 0.58266 0.07776 0.22713 0.0
C816 C 0.57472 0.06816 0.20343 0.0
C817 C 0.55121 0.04189 0.13438 0.0
C818 C 0.55923 0.05039 0.15838 0.0
H819 H 0.63088 0.0984 0.2574 0.0
H820 H 0.61854 0.08024 0.21951 0.0
H821 H 0.54509 0.0884 0.20175 0.0
H822 H 0.50184 0.03236 0.10224 0.0
H823 H 0.51552 0.0386 0.1428 0.0
C824 C 0.42833 0.62849 0.29959 0.0
C825 C 0.42152 0.6139 0.28008 0.0
C826 C 0.43288 0.61909 0.32127 0.0
C827 C 0.44646 0.56398 0.34883 0.0
H828 H 0.4321 0.59776 0.40597 0.0
C829 C 0.45814 0.52414 0.43772 0.0
C830 C 0.47557 0.53651 0.45104 0.0
C831 C 0.44736 0.53477 0.41933 0.0
C832 C 0.43614 0.5882 0.39013 0.0
H833 H 0.41406 0.57788 0.26809 0.0
H834 H 0.42145 0.56135 0.30622 0.0
H835 H 0.42174 0.61286 0.36791 0.0
H836 H 0.49386 0.57025 0.45727 0.0
H837 H 0.47403 0.58935 0.42579 0.0
H838 H 0.46047 0.53913 0.37122 0.0
C839 C 0.42362 0.58014 0.30464 0.0
C840 C 0.43039 0.59686 0.36831 0.0
C841 C 0.41913 0.58959 0.28283 0.0
C842 C 0.47996 0.56055 0.44773 0.0
C843 C 0.46891 0.57135 0.42946 0.0
C844 C 0.45184 0.55515 0.37062 0.0
C845 C 0.43055 0.5948 0.32415 0.0
C846 C 0.43567 0.58497 0.34737 0.0
C847 C 0.45357 0.55808 0.41427 0.0
C848 C 0.44679 0.56722 0.39143 0.0
H849 H 0.43004 0.64732 0.29816 0.0
H850 H 0.43855 0.63094 0.3357 0.0
H851 H 0.45124 0.5546 0.33316 0.0
H852 H 0.45495 0.50544 0.43952 0.0
H853 H 0.4355 0.52425 0.40789 0.0
C854 C 0.07818 0.47517 0.76223 0.0
C855 C 0.08296 0.45247 0.75469 0.0
C856 C 0.07233 0.47995 0.78542 0.0
C857 C 0.07406 0.45447 0.84524 0.0
H858 H 0.03741 0.50598 0.86049 0.0
C859 C 0.03282 0.47557 0.93568 0.0
C860 C 0.0352 0.49922 0.94319 0.0
C861 C 0.04138 0.4684 0.91406 0.0
C862 C 0.0478 0.49162 0.85649 0.0
H863 H 0.08435 0.4168 0.76598 0.0
H864 H 0.07269 0.42475 0.8057 0.0
H865 H 0.04416 0.49604 0.81964 0.0
H866 H 0.04966 0.53351 0.93462 0.0
H867 H 0.06466 0.52107 0.89717 0.0
H868 H 0.0766 0.4496 0.88237 0.0
C869 C 0.07438 0.43918 0.79398 0.0
C870 C 0.05182 0.48595 0.833 0.0
C871 C 0.08066 0.43449 0.77088 0.0
C872 C 0.04827 0.51503 0.92977 0.0
C873 C 0.05636 0.50803 0.90801 0.0
C874 C 0.06956 0.45985 0.86874 0.0
C875 C 0.07054 0.46209 0.8018 0.0
C876 C 0.06528 0.46745 0.82694 0.0
C877 C 0.05211 0.48487 0.89947 0.0
C878 C 0.05668 0.47868 0.87461 0.0
H879 H 0.07923 0.48948 0.7503 0.0
H880 H 0.06981 0.49789 0.79052 0.0
H881 H 0.08484 0.4404 0.84158 0.0
H882 H 0.02206 0.46319 0.94511 0.0
H883 H 0.0378 0.45044 0.90784 0.0
C884 C 0.74228 0.92566 0.9459 0.0
C885 C 0.75687 0.94045 0.93286 0.0
C886 C 0.72216 0.93349 0.95495 0.0
C887 C 0.6907 0.98821 0.96472 0.0
H888 H 0.64017 0.94264 0.97288 0.0
C889 C 0.59703 0.01126 0.98287 0.0
C890 C 0.58487 0.99669 0.99832 0.0
C891 C 0.6193 0.00656 0.97661 0.0
C892 C 0.65417 0.95563 0.97093 0.0
H893 H 0.76162 0.97581 0.92029 0.0
H894 H 0.72624 0.98864 0.93422 0.0
H895 H 0.67554 0.92982 0.95829 0.0
H896 H 0.58716 0.9668 0.02027 0.0
H897 H 0.62536 0.95865 0.00937 0.0
H898 H 0.6686 0.01408 0.97655 0.0
C899 C 0.73042 0.97111 0.93814 0.0
C900 C 0.67469 0.94823 0.96263 0.0
C901 C 0.75075 0.96348 0.9296 0.0
C902 C 0.59601 0.97839 0.00835 0.0
C903 C 0.61788 0.97353 1.0019 0.0
C904 C 0.66999 0.99564 0.97264 0.0
C905 C 0.71562 0.95625 0.9509 0.0
C906 C 0.69348 0.96433 0.95959 0.0
C907 C 0.62955 0.98696 0.98529 0.0
C908 C 0.65154 0.97942 0.97617 0.0
H909 H 0.74607 0.90778 0.94878 0.0
H910 H 0.71178 0.92151 0.96516 0.0
H911 H 0.7046 1.00132 0.96307 0.0
H912 H 0.58887 0.02518 0.97439 0.0
H913 H 0.6279 0.01735 0.96386 0.0
C914 C 0.77352 0.09954 0.46179 0.0
C915 C 0.76992 0.10365 0.4379 0.0
C916 C 0.79448 0.09239 0.46995 0.0
C917 C 0.84687 0.06715 0.44718 0.0
H918 H 0.87204 0.08392 0.50928 0.0
C919 C 0.93898 0.05301 0.4694 0.0
C920 C 0.94338 0.04078 0.48971 0.0
C921 C 0.91809 0.06231 0.46574 0.0
C922 C 0.86512 0.07902 0.49195 0.0
H923 H 0.78574 0.10474 0.40411 0.0
H924 H 0.82227 0.09351 0.41823 0.0
H925 H 0.83502 0.09703 0.49746 0.0
H926 H 0.92976 0.02931 0.52258 0.0
H927 H 0.89284 0.04598 0.51631 0.0
H928 H 0.87712 0.04972 0.44142 0.0
C929 C 0.80884 0.09464 0.4307 0.0
C930 C 0.84384 0.08644 0.48515 0.0
C931 C 0.7879 0.10134 0.42255 0.0
C932 C 0.92692 0.03916 0.50704 0.0
C933 C 0.90579 0.04852 0.50334 0.0
C934 C 0.86813 0.0601 0.45383 0.0
C935 C 0.81239 0.08953 0.45442 0.0
C936 C 0.83455 0.08089 0.46249 0.0
C937 C 0.90092 0.05944 0.48222 0.0
C938 C 0.87769 0.0662 0.47614 0.0
H939 H 0.75991 0.10109 0.47399 0.0
H940 H 0.79638 0.0885 0.48828 0.0
H941 H 0.84012 0.06168 0.42993 0.0
H942 H 0.95133 0.05425 0.45567 0.0
H943 H 0.91503 0.07095 0.44949 0.0
C944 C 0.23338 0.60312 0.11793 0.0
C945 C 0.25341 0.60665 0.10539 0.0
C946 C 0.21276 0.59673 0.10628 0.0
C947 C 0.18306 0.59374 0.048 0.0
H948 H 0.14166 0.55085 0.08013 0.0
C949 C 0.09355 0.5442 0.01814 0.0
C950 C 0.07687 0.55107 0.03353 0.0
C951 C 0.11635 0.55242 0.02215 0.0
C952 C 0.15317 0.56267 0.07087 0.0
H953 H 0.2675 0.60685 0.07072 0.0
H954 H 0.23136 0.5951 0.05021 0.0
H955 H 0.17927 0.56142 0.09714 0.0
H956 H 0.0704 0.57316 0.06379 0.0
H957 H 0.10987 0.58733 0.07065 0.0
H958 H 0.15644 0.59466 0.02167 0.0
C959 C 0.23158 0.59759 0.06909 0.0
C960 C 0.17462 0.56898 0.08072 0.0
C961 C 0.25227 0.60428 0.08081 0.0
C962 C 0.08293 0.56776 0.05155 0.0
C963 C 0.10549 0.57578 0.05559 0.0
C964 C 0.16154 0.58717 0.03798 0.0
C965 C 0.21161 0.59337 0.08175 0.0
C966 C 0.18965 0.58512 0.0698 0.0
C967 C 0.12247 0.56747 0.04155 0.0
C968 C 0.14632 0.57199 0.04967 0.0
H969 H 0.23366 0.6053 0.13686 0.0
H970 H 0.19768 0.5944 0.11661 0.0
H971 H 0.19414 0.60626 0.03914 0.0
H972 H 0.08932 0.531 1.00444 0.0
H973 H 0.12932 0.54573 0.01123 0.0
C974 C 0.24974 0.46122 0.55377 0.0
C975 C 0.24522 0.45183 0.57578 0.0
C976 C 0.27204 0.46769 0.5474 0.0
C977 C 0.33233 0.47547 0.57208 0.0
H978 H 0.34734 0.47086 0.5064 0.0
C979 C 0.4241 0.47078 0.54434 0.0
C980 C 0.43235 0.48782 0.5289 0.0
C981 C 0.40086 0.46653 0.54755 0.0
C982 C 0.34335 0.47234 0.52478 0.0
H983 H 0.26079 0.44207 0.60839 0.0
H984 H 0.29939 0.45227 0.59722 0.0
H985 H 0.308 0.46398 0.51779 0.0
H986 H 0.42251 0.51278 0.50361 0.0
H987 H 0.38139 0.50458 0.50854 0.0
H988 H 0.368 0.48253 0.57895 0.0
C989 C 0.28589 0.45555 0.58491 0.0
C990 C 0.32068 0.46858 0.53144 0.0
C991 C 0.26356 0.44953 0.59142 0.0
C992 C 0.41666 0.49914 0.51518 0.0
C993 C 0.39317 0.49467 0.51826 0.0
C994 C 0.35496 0.47862 0.56545 0.0
C995 C 0.29062 0.46454 0.56267 0.0
C996 C 0.31474 0.46983 0.55528 0.0
C997 C 0.38513 0.47905 0.53527 0.0
C998 C 0.36079 0.47687 0.54176 0.0
H999 H 0.23599 0.46353 0.54136 0.0
H1000 H 0.27455 0.47511 0.5304 0.0
H1001 H 0.3288 0.47749 0.5905 0.0
H1002 H 0.43577 0.46199 0.55536 0.0
H1003 H 0.39521 0.45413 0.5605 0.0
C1004 C 0.93004 0.74901 0.9234 0.0
C1005 C 0.92458 0.76627 0.94004 0.0
C1006 C 0.93941 0.72837 0.93038 0.0
C1007 C 0.96521 0.6998 0.98271 0.0
H1008 H 0.94851 0.6432 0.9457 0.0
C1009 C 1.00007 0.60828 1.0019 0.0
C1010 C 0.98513 0.58845 0.99694 0.0
C1011 C 0.99361 0.63083 0.99665 0.0
C1012 C 0.9532 0.65875 0.95648 0.0
H1013 H 0.92612 0.77521 0.97735 0.0
H1014 H 0.94092 0.73911 0.98941 0.0
H1015 H 0.93585 0.68011 0.93305 0.0
H1016 H 0.95169 0.57682 0.98307 0.0
H1017 H 0.94028 0.61556 0.97461 0.0
H1018 H 0.98181 0.67795 1.00665 0.0
C1019 C 0.93843 0.74156 0.97084 0.0
C1020 C 0.94622 0.6802 0.94893 0.0
C1021 C 0.92942 0.76231 0.96385 0.0
C1022 C 0.96338 0.59179 0.98767 0.0
C1023 C 0.95702 0.61406 0.98231 0.0
C1024 C 0.97207 0.67823 0.99037 0.0
C1025 C 0.9434 0.72404 0.95428 0.0
C1026 C 0.95191 0.70116 0.96196 0.0
C1027 C 0.97224 0.63392 0.98595 0.0
C1028 C 0.96592 0.65729 0.97753 0.0
H1029 H 0.92657 0.75106 0.90492 0.0
H1030 H 0.94339 0.71576 0.91687 0.0
H1031 H 0.97043 0.7154 0.99316 0.0
H1032 H 0.01719 0.60624 0.0083 0.0
H1033 H 1.00585 0.64564 0.9997 0.0
C1034 C 0.42307 0.78594 0.08398 0.0
C1035 C 0.41976 0.78047 0.10752 0.0
C1036 C 0.43176 0.8082 0.07807 0.0
C1037 C 0.46006 0.86429 0.1032 0.0
H1038 H 0.43601 0.88819 0.04576 0.0
C1039 C 0.49961 0.94655 0.06001 0.0
C1040 C 0.48683 0.95741 0.04304 0.0
C1041 C 0.48991 0.9278 0.07226 0.0
C1042 C 0.44258 0.88217 0.06218 0.0
H1043 H 0.42365 0.7939 0.14338 0.0
H1044 H 0.43835 0.83293 0.13316 0.0
H1045 H 0.42324 0.84946 0.05739 0.0
H1046 H 0.45326 0.95929 0.02771 0.0
H1047 H 0.43565 0.92809 0.05063 0.0
H1048 H 0.47864 0.89748 0.10849 0.0
C1049 C 0.43462 0.81994 0.11917 0.0
C1050 C 0.43563 0.85954 0.06858 0.0
C1051 C 0.42615 0.79753 0.12509 0.0
C1052 C 0.46341 0.95153 0.04104 0.0
C1053 C 0.45352 0.93307 0.05367 0.0
C1054 C 0.46671 0.88716 0.09701 0.0
C1055 C 0.43712 0.82574 0.09554 0.0
C1056 C 0.44446 0.85011 0.08903 0.0
C1057 C 0.46702 0.91984 0.06815 0.0
C1058 C 0.45824 0.8964 0.07627 0.0
H1059 H 0.41869 0.77302 0.07005 0.0
H1060 H 0.43409 0.81165 0.05972 0.0
H1061 H 0.46748 0.85766 0.11894 0.0
H1062 H 0.51784 0.95035 0.06142 0.0
H1063 H 0.50104 0.91822 0.0831 0.0
C1064 C 0.06176 0.26088 0.59357 0.0
C1065 C 0.0694 0.27873 0.57878 0.0
C1066 C 0.05527 0.23839 0.58455 0.0
C1067 C 0.05755 0.19932 0.53057 0.0
H1068 H 0.01323 0.16175 0.56466 0.0
C1069 C 0.04435 0.09908 0.51634 0.0
C1070 C 0.02481 0.08702 0.52466 0.0
C1071 C 0.04707 0.12353 0.518 0.0
C1072 C 0.02523 0.17197 0.55443 0.0
H1073 H 0.07633 0.2869 0.5428 0.0
H1074 H 0.06409 0.2479 0.52673 0.0
H1075 H 0.02303 0.20171 0.5774 0.0
H1076 H 0.99192 0.09117 0.5393 0.0
H1077 H 0.99555 0.1338 0.54026 0.0
H1078 H 0.05878 0.16989 0.50682 0.0
C1079 C 0.06365 0.25098 0.54549 0.0
C1080 C 0.03136 0.195 0.5622 0.0
C1081 C 0.0706 0.27346 0.55466 0.0
C1082 C 1.00691 0.09999 0.53212 0.0
C1083 C 0.00939 0.12452 0.53339 0.0
C1084 C 0.05101 0.17642 0.52245 0.0
C1085 C 0.05573 0.23306 0.5603 0.0
C1086 C 0.04804 0.20894 0.55078 0.0
C1087 C 0.03011 0.13665 0.52775 0.0
C1088 C 0.03506 0.16213 0.53452 0.0
H1089 H 0.061 0.26428 0.6123 0.0
H1090 H 0.05011 0.22516 0.59682 0.0
H1091 H 0.07055 0.20918 0.52124 0.0
H1092 H 0.05874 0.08953 0.51125 0.0
H1093 H 0.06337 0.13179 0.51358 0.0
C1094 C 0.5946 0.286 0.43117 0.0
C1095 C 0.59892 0.26923 0.44781 0.0
C1096 C 0.58405 0.30626 0.43762 0.0
C1097 C 0.56977 0.3421 0.4907 0.0
H1098 H 0.53312 0.37232 0.44527 0.0
C1099 C 0.53901 0.43481 0.50815 0.0
C1100 C 0.51958 0.44107 0.49602 0.0
C1101 C 0.54723 0.41274 0.50408 0.0
C1102 C 0.5429 0.36398 0.45845 0.0
H1103 H 0.59464 0.26023 0.48411 0.0
H1104 H 0.57566 0.29494 0.49517 0.0
H1105 H 0.54921 0.33608 0.43439 0.0
H1106 H 0.49283 0.42899 0.47109 0.0
H1107 H 0.50589 0.39002 0.46539 0.0
H1108 H 0.56242 0.36933 0.51515 0.0
C1109 C 0.5811 0.29303 0.47729 0.0
C1110 C 0.55262 0.34328 0.45197 0.0
C1111 C 0.5919 0.27295 0.47091 0.0
C1112 C 0.50762 0.42438 0.48103 0.0
C1113 C 0.5155 0.40221 0.47734 0.0
C1114 C 0.55964 0.36254 0.49734 0.0
C1115 C 0.57722 0.31018 0.46083 0.0
C1116 C 0.56637 0.33206 0.46793 0.0
C1117 C 0.53598 0.39634 0.48801 0.0
C1118 C 0.54612 0.37392 0.4813 0.0
H1119 H 0.60003 0.28383 0.4133 0.0
H1120 H 0.58181 0.3191 0.42443 0.0
H1121 H 0.58054 0.33439 0.50347 0.0
H1122 H 0.54893 0.44765 0.5192 0.0
H1123 H 0.56318 0.40919 0.51248 0.0
loop_
_geom_bond_atom_site_label_1
_geom_bond_atom_site_label_2
_geom_bond_distance
_geom_bond_site_symmetry_2
_ccdc_geom_bond_type
C0 C1 1.264 . S
C0 C5 1.479 . S
C0 C10 1.465 . S
C1 C0 1.264 . S
C1 C3 1.339 . S
C1 H28 0.931 . S
C2 C3 1.395 . S
C2 C4 1.320 . S
C3 C1 1.339 . S
C3 C2 1.395 . S
C3 H29 0.929 . S
C4 C2 1.320 . S
C4 C5 1.405 . S
C4 H30 0.930 . S
C5 C0 1.479 . S
C5 C4 1.405 . S
C5 H31 0.931 . S
U6 O7 2.454 . S
U6 O8 2.458 . S
U6 C9 2.984 . S
U6 C10 2.847 . S
U6 C23 2.882 . S
U6 O24 2.441 . S
U6 O25 2.420 . S
U6 O26 2.455 . S
U6 O27 2.449 . S
O7 U6 2.454 . S
O7 C9 1.353 . S
O8 U6 2.458 . S
O8 C9 1.286 . S
C9 U6 2.984 . S
C9 O7 1.353 . S
C9 O8 1.286 . S
C9 C11 1.363 . S
C10 C0 1.465 . S
C10 U6 2.847 . S
C10 O24 1.249 . S
C10 O25 1.202 . S
C11 C9 1.363 . S
C11 C13 1.408 . S
C11 C16 1.342 . S
C12 C13 1.310 . S
C12 C15 1.461 . S
C12 H32 0.932 . S
C13 C11 1.408 . S
C13 C12 1.310 . S
C13 H33 0.930 . S
C14 C15 1.474 . S
C14 C16 1.285 . S
C14 H34 0.929 . S
C15 C12 1.461 . S
C15 C14 1.474 . S
C16 C11 1.342 . S
C16 C14 1.285 . S
C16 H35 0.930 . S
C17 C20 1.424 . S
C17 C22 1.245 . S
C17 C23 1.428 . S
C18 C21 1.260 . S
C18 C22 1.477 . S
C18 H36 0.932 . S
C19 C20 1.384 . S
C19 C21 1.479 . S
C19 H37 0.929 . S
C20 C17 1.424 . S
C20 C19 1.384 . S
C20 H38 0.928 . S
C21 C18 1.260 . S
C21 C19 1.479 . S
C22 C17 1.245 . S
C22 C18 1.477 . S
C22 H39 0.932 . S
C23 U6 2.882 . S
C23 C17 1.428 . S
C23 O26 1.301 . S
C23 O27 1.282 . S
O24 U6 2.441 . S
O24 C10 1.249 . S
O25 U6 2.420 . S
O25 C10 1.202 . S
O26 U6 2.455 . S
O26 C23 1.301 . S
O27 U6 2.449 . S
O27 C23 1.282 . S
H28 C1 0.931 . S
H29 C3 0.929 . S
H30 C4 0.930 . S
H31 C5 0.931 . S
H32 C12 0.932 . S
H33 C13 0.930 . S
H34 C14 0.929 . S
H35 C16 0.930 . S
H36 C18 0.932 . S
H37 C19 0.929 . S
H38 C20 0.928 . S
H39 C22 0.932 . S
C40 C41 1.264 . S
C40 C45 1.479 . S
C40 C50 1.465 . S
C41 C40 1.264 . S
C41 C43 1.339 . S
C41 H68 0.931 . S
C42 C43 1.395 . S
C42 C44 1.320 . S
C43 C41 1.339 . S
C43 C42 1.395 . S
C43 H69 0.929 . S
C44 C42 1.320 . S
C44 C45 1.405 . S
C44 H70 0.930 . S
C45 C40 1.479 . S
C45 C44 1.405 . S
C45 H71 0.931 . S
U46 O47 2.454 . S
U46 O48 2.458 . S
U46 C49 2.984 . S
U46 C50 2.847 . S
U46 C63 2.882 . S
U46 O64 2.441 . S
U46 O65 2.420 . S
U46 O66 2.455 . S
U46 O67 2.449 . S
O47 U46 2.454 . S
O47 C49 1.353 . S
O48 U46 2.458 . S
O48 C49 1.286 . S
C49 U46 2.984 . S
C49 O47 1.353 . S
C49 O48 1.286 . S
C49 C51 1.363 . S
C50 C40 1.465 . S
C50 U46 2.847 . S
C50 O64 1.249 . S
C50 O65 1.202 . S
C51 C49 1.363 . S
C51 C53 1.408 . S
C51 C56 1.342 . S
C52 C53 1.310 . S
C52 C55 1.461 . S
C52 H72 0.932 . S
C53 C51 1.408 . S
C53 C52 1.310 . S
C53 H73 0.930 . S
C54 C55 1.474 . S
C54 C56 1.285 . S
C54 H74 0.929 . S
C55 C52 1.461 . S
C55 C54 1.474 . S
C56 C51 1.342 . S
C56 C54 1.285 . S
C56 H75 0.930 . S
C57 C60 1.424 . S
C57 C62 1.245 . S
C57 C63 1.428 . S
C58 C61 1.260 . S
C58 C62 1.477 . S
C58 H76 0.932 . S
C59 C60 1.384 . S
C59 C61 1.479 . S
C59 H77 0.929 . S
C60 C57 1.424 . S
C60 C59 1.384 . S
C60 H78 0.928 . S
C61 C58 1.260 . S
C61 C59 1.479 . S
C62 C57 1.245 . S
C62 C58 1.477 . S
C62 H79 0.932 . S
C63 U46 2.882 . S
C63 C57 1.428 . S
C63 O66 1.301 . S
C63 O67 1.282 . S
O64 U46 2.441 . S
O64 C50 1.249 . S
O65 U46 2.420 . S
O65 C50 1.202 . S
O66 U46 2.455 . S
O66 C63 1.301 . S
O67 U46 2.449 . S
O67 C63 1.282 . S
H68 C41 0.931 . S
H69 C43 0.929 . S
H70 C44 0.930 . S
H71 C45 0.931 . S
H72 C52 0.932 . S
H73 C53 0.930 . S
H74 C54 0.929 . S
H75 C56 0.930 . S
H76 C58 0.932 . S
H77 C59 0.929 . S
H78 C60 0.928 . S
H79 C62 0.932 . S
C80 C81 1.264 . S
C80 C85 1.479 . S
C80 C90 1.465 . S
C81 C80 1.264 . S
C81 C83 1.339 . S
C81 H108 0.931 . S
C82 C83 1.395 . S
C82 C84 1.320 . S
C83 C81 1.339 . S
C83 C82 1.395 . S
C83 H109 0.929 . S
C84 C82 1.320 . S
C84 C85 1.405 . S
C84 H110 0.930 . S
C85 C80 1.479 . S
C85 C84 1.405 . S
C85 H111 0.931 . S
U86 O87 2.454 . S
U86 O88 2.458 . S
U86 C89 2.984 . S
U86 C90 2.847 . S
U86 C103 2.882 . S
U86 O104 2.441 . S
U86 O105 2.420 . S
U86 O106 2.455 . S
U86 O107 2.449 . S
O87 U86 2.454 . S
O87 C89 1.353 . S
O88 U86 2.458 . S
O88 C89 1.286 . S
C89 U86 2.984 . S
C89 O87 1.353 . S
C89 O88 1.286 . S
C89 C91 1.363 . S
C90 C80 1.465 . S
C90 U86 2.847 . S
C90 O104 1.249 . S
C90 O105 1.202 . S
C91 C89 1.363 . S
C91 C93 1.408 . S
C91 C96 1.342 . S
C92 C93 1.310 . S
C92 C95 1.461 . S
C92 H112 0.932 . S
C93 C91 1.408 . S
C93 C92 1.310 . S
C93 H113 0.930 . S
C94 C95 1.474 . S
C94 C96 1.285 . S
C94 H114 0.929 . S
C95 C92 1.461 . S
C95 C94 1.474 . S
C96 C91 1.342 . S
C96 C94 1.285 . S
C96 H115 0.930 . S
C97 C100 1.424 . S
C97 C102 1.245 . S
C97 C103 1.428 . S
C98 C101 1.260 . S
C98 C102 1.477 . S
C98 H116 0.932 . S
C99 C100 1.384 . S
C99 C101 1.479 . S
C99 H117 0.929 . S
C100 C97 1.424 . S
C100 C99 1.384 . S
C100 H118 0.928 . S
C101 C98 1.260 . S
C101 C99 1.479 . S
C102 C97 1.245 . S
C102 C98 1.477 . S
C102 H119 0.932 . S
C103 U86 2.882 . S
C103 C97 1.428 . S
C103 O106 1.301 . S
C103 O107 1.282 . S
O104 U86 2.441 . S
O104 C90 1.249 . S
O105 U86 2.420 . S
O105 C90 1.202 . S
O106 U86 2.455 . S
O106 C103 1.301 . S
O107 U86 2.449 . S
O107 C103 1.282 . S
H108 C81 0.931 . S
H109 C83 0.929 . S
H110 C84 0.930 . S
H111 C85 0.931 . S
H112 C92 0.932 . S
H113 C93 0.930 . S
H114 C94 0.929 . S
H115 C96 0.930 . S
H116 C98 0.932 . S
H117 C99 0.929 . S
H118 C100 0.928 . S
H119 C102 0.932 . S
C120 C121 1.264 . S
C120 C125 1.479 . S
C120 C130 1.465 . S
C121 C120 1.264 . S
C121 C123 1.339 . S
C121 H148 0.931 . S
C122 C123 1.395 . S
C122 C124 1.320 . S
C123 C121 1.339 . S
C123 C122 1.395 . S
C123 H149 0.929 . S
C124 C122 1.320 . S
C124 C125 1.405 . S
C124 H150 0.930 . S
C125 C120 1.479 . S
C125 C124 1.405 . S
C125 H151 0.931 . S
U126 O127 2.454 . S
U126 O128 2.458 . S
U126 C129 2.984 . S
U126 C130 2.847 . S
U126 C143 2.882 . S
U126 O144 2.441 . S
U126 O145 2.420 . S
U126 O146 2.455 . S
U126 O147 2.449 . S
O127 U126 2.454 . S
O127 C129 1.353 . S
O128 U126 2.458 . S
O128 C129 1.286 . S
C129 U126 2.984 . S
C129 O127 1.353 . S
C129 O128 1.286 . S
C129 C131 1.363 . S
C130 C120 1.465 . S
C130 U126 2.847 . S
C130 O144 1.249 . S
C130 O145 1.202 . S
C131 C129 1.363 . S
C131 C133 1.408 . S
C131 C136 1.342 . S
C132 C133 1.310 . S
C132 C135 1.461 . S
C132 H152 0.932 . S
C133 C131 1.408 . S
C133 C132 1.310 . S
C133 H153 0.930 . S
C134 C135 1.474 . S
C134 C136 1.285 . S
C134 H154 0.929 . S
C135 C132 1.461 . S
C135 C134 1.474 . S
C136 C131 1.342 . S
C136 C134 1.285 . S
C136 H155 0.930 . S
C137 C140 1.424 . S
C137 C142 1.245 . S
C137 C143 1.428 . S
C138 C141 1.260 . S
C138 C142 1.477 . S
C138 H156 0.932 . S
C139 C140 1.384 . S
C139 C141 1.479 . S
C139 H157 0.929 . S
C140 C137 1.424 . S
C140 C139 1.384 . S
C140 H158 0.928 . S
C141 C138 1.260 . S
C141 C139 1.479 . S
C142 C137 1.245 . S
C142 C138 1.477 . S
C142 H159 0.932 . S
C143 U126 2.882 . S
C143 C137 1.428 . S
C143 O146 1.301 . S
C143 O147 1.282 . S
O144 U126 2.441 . S
O144 C130 1.249 . S
O145 U126 2.420 . S
O145 C130 1.202 . S
O146 U126 2.455 . S
O146 C143 1.301 . S
O147 U126 2.449 . S
O147 C143 1.282 . S
H148 C121 0.931 . S
H149 C123 0.929 . S
H150 C124 0.930 . S
H151 C125 0.931 . S
H152 C132 0.932 . S
H153 C133 0.930 . S
H154 C134 0.929 . S
H155 C136 0.930 . S
H156 C138 0.932 . S
H157 C139 0.929 . S
H158 C140 0.928 . S
H159 C142 0.932 . S
C160 C161 1.264 . S
C160 C165 1.479 . S
C160 C170 1.465 . S
C161 C160 1.264 . S
C161 C163 1.339 . S
C161 H188 0.931 . S
C162 C163 1.395 . S
C162 C164 1.320 . S
C163 C161 1.339 . S
C163 C162 1.395 . S
C163 H189 0.929 . S
C164 C162 1.320 . S
C164 C165 1.405 . S
C164 H190 0.930 . S
C165 C160 1.479 . S
C165 C164 1.405 . S
C165 H191 0.931 . S
U166 O167 2.454 . S
U166 O168 2.458 . S
U166 C169 2.984 . S
U166 C170 2.847 . S
U166 C183 2.882 . S
U166 O184 2.441 . S
U166 O185 2.420 . S
U166 O186 2.455 . S
U166 O187 2.449 . S
O167 U166 2.454 . S
O167 C169 1.353 . S
O168 U166 2.458 . S
O168 C169 1.286 . S
C169 U166 2.984 . S
C169 O167 1.353 . S
C169 O168 1.286 . S
C169 C171 1.363 . S
C170 C160 1.465 . S
C170 U166 2.847 . S
C170 O184 1.249 . S
C170 O185 1.202 . S
C171 C169 1.363 . S
C171 C173 1.408 . S
C171 C176 1.342 . S
C172 C173 1.310 . S
C172 C175 1.461 . S
C172 H192 0.932 . S
C173 C171 1.408 . S
C173 C172 1.310 . S
C173 H193 0.930 . S
C174 C175 1.474 . S
C174 C176 1.285 . S
C174 H194 0.929 . S
C175 C172 1.461 . S
C175 C174 1.474 . S
C176 C171 1.342 . S
C176 C174 1.285 . S
C176 H195 0.930 . S
C177 C180 1.424 . S
C177 C182 1.245 . S
C177 C183 1.428 . S
C178 C181 1.260 . S
C178 C182 1.477 . S
C178 H196 0.932 . S
C179 C180 1.384 . S
C179 C181 1.479 . S
C179 H197 0.929 . S
C180 C177 1.424 . S
C180 C179 1.384 . S
C180 H198 0.928 . S
C181 C178 1.260 . S
C181 C179 1.479 . S
C182 C177 1.245 . S
C182 C178 1.477 . S
C182 H199 0.932 . S
C183 U166 2.882 . S
C183 C177 1.428 . S
C183 O186 1.301 . S
C183 O187 1.282 . S
O184 U166 2.441 . S
O184 C170 1.249 . S
O185 U166 2.420 . S
O185 C170 1.202 . S
O186 U166 2.455 . S
O186 C183 1.301 . S
O187 U166 2.449 . S
O187 C183 1.282 . S
H188 C161 0.931 . S
H189 C163 0.929 . S
H190 C164 0.930 . S
H191 C165 0.931 . S
H192 C172 0.932 . S
H193 C173 0.930 . S
H194 C174 0.929 . S
H195 C176 0.930 . S
H196 C178 0.932 . S
H197 C179 0.929 . S
H198 C180 0.928 . S
H199 C182 0.932 . S
C200 C201 1.264 . S
C200 C205 1.479 . S
C200 C210 1.465 . S
C201 C200 1.264 . S
C201 C203 1.339 . S
C201 H228 0.931 . S
C202 C203 1.395 . S
C202 C204 1.320 . S
C203 C201 1.339 . S
C203 C202 1.395 . S
C203 H229 0.929 . S
C204 C202 1.320 . S
C204 C205 1.405 . S
C204 H230 0.930 . S
C205 C200 1.479 . S
C205 C204 1.405 . S
C205 H231 0.931 . S
U206 O207 2.454 . S
U206 O208 2.458 . S
U206 C209 2.984 . S
U206 C210 2.847 . S
U206 C223 2.882 . S
U206 O224 2.441 . S
U206 O225 2.420 . S
U206 O226 2.455 . S
U206 O227 2.449 . S
O207 U206 2.454 . S
O207 C209 1.353 . S
O208 U206 2.458 . S
O208 C209 1.286 . S
C209 U206 2.984 . S
C209 O207 1.353 . S
C209 O208 1.286 . S
C209 C211 1.363 . S
C210 C200 1.465 . S
C210 U206 2.847 . S
C210 O224 1.249 . S
C210 O225 1.202 . S
C211 C209 1.363 . S
C211 C213 1.408 . S
C211 C216 1.342 . S
C212 C213 1.310 . S
C212 C215 1.461 . S
C212 H232 0.932 . S
C213 C211 1.408 . S
C213 C212 1.310 . S
C213 H233 0.930 . S
C214 C215 1.474 . S
C214 C216 1.285 . S
C214 H234 0.929 . S
C215 C212 1.461 . S
C215 C214 1.474 . S
C216 C211 1.342 . S
C216 C214 1.285 . S
C216 H235 0.930 . S
C217 C220 1.424 . S
C217 C222 1.245 . S
C217 C223 1.428 . S
C218 C221 1.260 . S
C218 C222 1.477 . S
C218 H236 0.932 . S
C219 C220 1.384 . S
C219 C221 1.479 . S
C219 H237 0.929 . S
C220 C217 1.424 . S
C220 C219 1.384 . S
C220 H238 0.928 . S
C221 C218 1.260 . S
C221 C219 1.479 . S
C222 C217 1.245 . S
C222 C218 1.477 . S
C222 H239 0.932 . S
C223 U206 2.882 . S
C223 C217 1.428 . S
C223 O226 1.301 . S
C223 O227 1.282 . S
O224 U206 2.441 . S
O224 C210 1.249 . S
O225 U206 2.420 . S
O225 C210 1.202 . S
O226 U206 2.455 . S
O226 C223 1.301 . S
O227 U206 2.449 . S
O227 C223 1.282 . S
H228 C201 0.931 . S
H229 C203 0.929 . S
H230 C204 0.930 . S
H231 C205 0.931 . S
H232 C212 0.932 . S
H233 C213 0.930 . S
H234 C214 0.929 . S
H235 C216 0.930 . S
H236 C218 0.932 . S
H237 C219 0.929 . S
H238 C220 0.928 . S
H239 C222 0.932 . S
C240 C241 1.264 . S
C240 C245 1.479 . S
C240 C250 1.465 . S
C241 C240 1.264 . S
C241 C243 1.339 . S
C241 H268 0.931 . S
C242 C243 1.395 . S
C242 C244 1.320 . S
C243 C241 1.339 . S
C243 C242 1.395 . S
C243 H269 0.929 . S
C244 C242 1.320 . S
C244 C245 1.405 . S
C244 H270 0.930 . S
C245 C240 1.479 . S
C245 C244 1.405 . S
C245 H271 0.931 . S
U246 O247 2.454 . S
U246 O248 2.458 . S
U246 C249 2.984 . S
U246 C250 2.847 . S
U246 C263 2.882 . S
U246 O264 2.441 . S
U246 O265 2.420 . S
U246 O266 2.455 . S
U246 O267 2.449 . S
O247 U246 2.454 . S
O247 C249 1.353 . S
O248 U246 2.458 . S
O248 C249 1.286 . S
C249 U246 2.984 . S
C249 O247 1.353 . S
C249 O248 1.286 . S
C249 C251 1.363 . S
C250 C240 1.465 . S
C250 U246 2.847 . S
C250 O264 1.249 . S
C250 O265 1.202 . S
C251 C249 1.363 . S
C251 C253 1.408 . S
C251 C256 1.342 . S
C252 C253 1.310 . S
C252 C255 1.461 . S
C252 H272 0.932 . S
C253 C251 1.408 . S
C253 C252 1.310 . S
C253 H273 0.930 . S
C254 C255 1.474 . S
C254 C256 1.285 . S
C254 H274 0.929 . S
C255 C252 1.461 . S
C255 C254 1.474 . S
C256 C251 1.342 . S
C256 C254 1.285 . S
C256 H275 0.930 . S
C257 C260 1.424 . S
C257 C262 1.245 . S
C257 C263 1.428 . S
C258 C261 1.260 . S
C258 C262 1.477 . S
C258 H276 0.932 . S
C259 C260 1.384 . S
C259 C261 1.479 . S
C259 H277 0.929 . S
C260 C257 1.424 . S
C260 C259 1.384 . S
C260 H278 0.928 . S
C261 C258 1.260 . S
C261 C259 1.479 . S
C262 C257 1.245 . S
C262 C258 1.477 . S
C262 H279 0.932 . S
C263 U246 2.882 . S
C263 C257 1.428 . S
C263 O266 1.301 . S
C263 O267 1.282 . S
O264 U246 2.441 . S
O264 C250 1.249 . S
O265 U246 2.420 . S
O265 C250 1.202 . S
O266 U246 2.455 . S
O266 C263 1.301 . S
O267 U246 2.449 . S
O267 C263 1.282 . S
H268 C241 0.931 . S
H269 C243 0.929 . S
H270 C244 0.930 . S
H271 C245 0.931 . S
H272 C252 0.932 . S
H273 C253 0.930 . S
H274 C254 0.929 . S
H275 C256 0.930 . S
H276 C258 0.932 . S
H277 C259 0.929 . S
H278 C260 0.928 . S
H279 C262 0.932 . S
C280 C281 1.264 . S
C280 C285 1.479 . S
C280 C290 1.465 . S
C281 C280 1.264 . S
C281 C283 1.339 . S
C281 H308 0.931 . S
C282 C283 1.395 . S
C282 C284 1.320 . S
C283 C281 1.339 . S
C283 C282 1.395 . S
C283 H309 0.929 . S
C284 C282 1.320 . S
C284 C285 1.405 . S
C284 H310 0.930 . S
C285 C280 1.479 . S
C285 C284 1.405 . S
C285 H311 0.931 . S
U286 O287 2.454 . S
U286 O288 2.458 . S
U286 C289 2.984 . S
U286 C290 2.847 . S
U286 C303 2.882 . S
U286 O304 2.441 . S
U286 O305 2.420 . S
U286 O306 2.455 . S
U286 O307 2.449 . S
O287 U286 2.454 . S
O287 C289 1.353 . S
O288 U286 2.458 . S
O288 C289 1.286 . S
C289 U286 2.984 . S
C289 O287 1.353 . S
C289 O288 1.286 . S
C289 C291 1.363 . S
C290 C280 1.465 . S
C290 U286 2.847 . S
C290 O304 1.249 . S
C290 O305 1.202 . S
C291 C289 1.363 . S
C291 C293 1.408 . S
C291 C296 1.342 . S
C292 C293 1.310 . S
C292 C295 1.461 . S
C292 H312 0.932 . S
C293 C291 1.408 . S
C293 C292 1.310 . S
C293 H313 0.930 . S
C294 C295 1.474 . S
C294 C296 1.285 . S
C294 H314 0.929 . S
C295 C292 1.461 . S
C295 C294 1.474 . S
C296 C291 1.342 . S
C296 C294 1.285 . S
C296 H315 0.930 . S
C297 C300 1.424 . S
C297 C302 1.245 . S
C297 C303 1.428 . S
C298 C301 1.260 . S
C298 C302 1.477 . S
C298 H316 0.932 . S
C299 C300 1.384 . S
C299 C301 1.479 . S
C299 H317 0.929 . S
C300 C297 1.424 . S
C300 C299 1.384 . S
C300 H318 0.928 . S
C301 C298 1.260 . S
C301 C299 1.479 . S
C302 C297 1.245 . S
C302 C298 1.477 . S
C302 H319 0.932 . S
C303 U286 2.882 . S
C303 C297 1.428 . S
C303 O306 1.301 . S
C303 O307 1.282 . S
O304 U286 2.441 . S
O304 C290 1.249 . S
O305 U286 2.420 . S
O305 C290 1.202 . S
O306 U286 2.455 . S
O306 C303 1.301 . S
O307 U286 2.449 . S
O307 C303 1.282 . S
H308 C281 0.931 . S
H309 C283 0.929 . S
H310 C284 0.930 . S
H311 C285 0.931 . S
H312 C292 0.932 . S
H313 C293 0.930 . S
H314 C294 0.929 . S
H315 C296 0.930 . S
H316 C298 0.932 . S
H317 C299 0.929 . S
H318 C300 0.928 . S
H319 C302 0.932 . S
O320 Mn321 2.163 1_655 S
O320 C334 1.244 . S
Mn321 O320 2.163 1_455 S
Mn321 O324 2.160 1_545 S
Mn321 O325 2.221 . S
Mn321 O327 2.163 1_445 S
Mn321 O329 2.160 . S
Mn321 O339 2.221 1_445 S
O322 Mn323 2.087 1_545 S
O322 C334 1.256 . S
Mn323 O322 2.087 1_565 S
Mn323 O330 2.089 1_565 S
Mn323 O339 2.290 . S
Mn323 O340 2.251 . S
O324 Mn321 2.160 1_565 S
O324 C335 1.239 . S
O325 Mn321 2.221 . S
O325 Mn326 2.290 . S
O325 C336 1.278 . S
Mn326 O325 2.290 . S
Mn326 O328 2.082 1_545 S
Mn326 O331 2.251 . S
Mn326 O332 2.087 . S
O327 Mn321 2.163 1_665 S
O327 C337 1.244 . S
O328 Mn326 2.082 1_565 S
O328 C335 1.259 . S
O329 Mn321 2.160 . S
O329 C338 1.239 . S
O330 Mn323 2.089 1_545 S
O330 C338 1.256 1_655 S
O331 Mn326 2.251 . S
O331 C336 1.241 . S
O332 Mn326 2.087 . S
O332 C337 1.256 1_445 S
C333 O339 1.278 . S
C333 O340 1.241 . S
C334 O320 1.244 . S
C334 O322 1.256 . S
C335 O324 1.239 . S
C335 O328 1.259 . S
C336 O325 1.278 . S
C336 O331 1.241 . S
C337 O327 1.244 . S
C337 O332 1.256 1_665 S
C338 O329 1.239 . S
C338 O330 1.256 1_455 S
O339 Mn321 2.221 1_665 S
O339 Mn323 2.290 . S
O339 C333 1.278 . S
O340 Mn323 2.251 . S
O340 C333 1.241 . S
O341 Mn342 2.163 1_556 S
O341 C355 1.244 1_545 S
Mn342 O341 2.163 1_554 S
Mn342 O345 2.160 . S
Mn342 O346 2.221 . S
Mn342 O348 2.163 . S
Mn342 O350 2.160 1_554 S
Mn342 O360 2.221 1_545 S
O343 Mn344 2.087 . S
O343 C355 1.256 . S
Mn344 O343 2.087 . S
Mn344 O351 2.089 . S
Mn344 O360 2.290 1_556 S
Mn344 O361 2.251 1_556 S
O345 Mn342 2.160 . S
O345 C356 1.239 . S
O346 Mn342 2.221 . S
O346 Mn347 2.290 . S
O346 C357 1.278 1_554 S
Mn347 O346 2.290 . S
Mn347 O349 2.089 . S
Mn347 O352 2.251 1_554 S
Mn347 O353 2.087 . S
O348 Mn342 2.163 . S
O348 C358 1.244 . S
O349 Mn347 2.089 . S
O349 C356 1.256 . S
O350 Mn342 2.160 1_556 S
O350 C359 1.239 1_545 S
O351 Mn344 2.089 . S
O351 C359 1.256 . S
O352 Mn347 2.251 1_556 S
O352 C357 1.241 . S
O353 Mn347 2.087 . S
O353 C358 1.256 . S
C354 O360 1.278 . S
C354 O361 1.241 . S
C355 O341 1.244 1_565 S
C355 O343 1.256 . S
C356 O345 1.239 . S
C356 O349 1.256 . S
C357 O346 1.278 1_556 S
C357 O352 1.241 . S
C358 O348 1.244 . S
C358 O353 1.256 . S
C359 O350 1.239 1_565 S
C359 O351 1.256 . S
O360 Mn342 2.221 1_565 S
O360 Mn344 2.290 1_554 S
O360 C354 1.278 . S
O361 Mn344 2.251 1_554 S
O361 C354 1.241 . S
O362 Mn363 2.163 . S
O362 C376 1.244 . S
Mn363 O362 2.163 . S
Mn363 O366 2.160 . S
Mn363 O367 2.221 . S
Mn363 O369 2.163 . S
Mn363 O371 2.160 . S
Mn363 O381 2.221 . S
O364 Mn365 2.087 . S
O364 C376 1.256 . S
Mn365 O364 2.087 . S
Mn365 O372 2.089 . S
Mn365 O381 2.290 . S
Mn365 O382 2.251 . S
O366 Mn363 2.160 . S
O366 C377 1.239 . S
O367 Mn363 2.221 . S
O367 Mn368 2.290 . S
O367 C378 1.278 . S
Mn368 O367 2.290 . S
Mn368 O370 2.089 . S
Mn368 O373 2.251 . S
Mn368 O374 2.087 . S
O369 Mn363 2.163 . S
O369 C379 1.244 . S
O370 Mn368 2.089 . S
O370 C377 1.256 . S
O371 Mn363 2.160 . S
O371 C380 1.239 . S
O372 Mn365 2.089 . S
O372 C380 1.256 . S
O373 Mn368 2.251 . S
O373 C378 1.241 . S
O374 Mn368 2.087 . S
O374 C379 1.256 . S
C375 O381 1.278 . S
C375 O382 1.241 . S
C376 O362 1.244 . S
C376 O364 1.256 . S
C377 O366 1.239 . S
C377 O370 1.256 . S
C378 O367 1.278 . S
C378 O373 1.241 . S
C379 O369 1.244 . S
C379 O374 1.256 . S
C380 O371 1.239 . S
C380 O372 1.256 . S
O381 Mn363 2.221 . S
O381 Mn365 2.290 . S
O381 C375 1.278 . S
O382 Mn365 2.251 . S
O382 C375 1.241 . S
O383 Mn384 2.163 1_655 S
O383 C397 1.244 1_554 S
Mn384 O383 2.163 1_455 S
Mn384 O387 2.160 . S
Mn384 O388 2.221 1_455 S
Mn384 O390 2.163 . S
Mn384 O392 2.150 1_454 S
Mn384 O402 2.221 1_554 S
O385 Mn386 2.087 . S
O385 C397 1.256 . S
Mn386 O385 2.087 . S
Mn386 O393 2.089 . S
Mn386 O402 2.290 1_655 S
Mn386 O403 2.251 . S
O387 Mn384 2.160 . S
O387 C398 1.239 . S
O388 Mn384 2.221 1_655 S
O388 Mn389 2.290 1_655 S
O388 C399 1.278 . S
Mn389 O388 2.290 1_455 S
Mn389 O391 2.089 . S
Mn389 O394 2.251 1_455 S
Mn389 O395 2.087 . S
O390 Mn384 2.163 . S
O390 C400 1.244 . S
O391 Mn389 2.089 . S
O391 C398 1.256 . S
O392 Mn384 2.150 1_656 S
O392 C401 1.271 . S
O393 Mn386 2.089 . S
O393 C401 1.256 . S
O394 Mn389 2.251 1_655 S
O394 C399 1.241 . S
O395 Mn389 2.087 . S
O395 C400 1.256 . S
C396 O402 1.278 . S
C396 O403 1.241 1_455 S
C397 O383 1.244 1_556 S
C397 O385 1.256 . S
C398 O387 1.239 . S
C398 O391 1.256 . S
C399 O388 1.278 . S
C399 O394 1.241 . S
C400 O390 1.244 . S
C400 O395 1.256 . S
C401 O392 1.271 . S
C401 O393 1.256 . S
O402 Mn384 2.221 1_556 S
O402 Mn386 2.290 1_455 S
O402 C396 1.278 . S
O403 Mn386 2.251 . S
O403 C396 1.241 1_655 S
C404 C405 1.349 . S
C404 C406 1.327 . S
C404 H429 0.950 . S
C405 C404 1.349 . S
C405 C421 1.349 . S
C406 C404 1.327 . S
C406 C425 1.429 . S
C406 H430 0.950 . S
C407 C424 1.574 . S
C407 C426 1.368 . S
C407 H431 0.949 . S
H408 C412 0.949 . S
C409 C410 1.349 . S
C409 C411 1.327 . S
C409 H432 0.950 . S
C410 C409 1.349 . S
C410 C422 1.349 . S
C411 C409 1.327 . S
C411 C427 1.429 . S
C411 H433 0.950 . S
C412 H408 0.949 . S
C412 C420 1.574 . S
C412 C428 1.368 . S
H413 C421 0.950 . S
H414 C419 0.950 . S
H415 C420 0.949 . S
H416 C422 0.950 . S
H417 C423 0.950 . S
H418 C424 0.949 . S
C419 H414 0.950 . S
C419 C421 1.327 . S
C419 C425 1.429 . S
C420 C412 1.574 . S
C420 H415 0.949 . S
C420 C426 1.368 . S
C421 C405 1.349 . S
C421 H413 0.950 . S
C421 C419 1.327 . S
C422 C410 1.349 . S
C422 H416 0.950 . S
C422 C423 1.327 . S
C423 H417 0.950 . S
C423 C422 1.327 . S
C423 C427 1.429 . S
C424 C407 1.574 . S
C424 H418 0.949 . S
C424 C428 1.368 . S
C425 C406 1.429 . S
C425 C419 1.429 . S
C425 C426 1.523 . S
C426 C407 1.368 . S
C426 C420 1.368 . S
C426 C425 1.523 . S
C427 C411 1.429 . S
C427 C423 1.429 . S
C427 C428 1.523 . S
C428 C412 1.368 . S
C428 C424 1.368 . S
C428 C427 1.523 . S
H429 C404 0.950 . S
H430 C406 0.950 . S
H431 C407 0.949 . S
H432 C409 0.950 . S
H433 C411 0.950 . S
C434 C435 1.349 . S
C434 C436 1.327 . S
C434 H459 0.950 . S
C435 C434 1.349 . S
C435 C451 1.349 . S
C436 C434 1.327 . S
C436 C455 1.429 . S
C436 H460 0.950 . S
C437 C454 1.574 . S
C437 C456 1.368 . S
C437 H461 0.949 . S
H438 C442 0.949 1_545 S
C439 C440 1.349 . S
C439 C441 1.327 . S
C439 H462 0.950 . S
C440 C439 1.349 . S
C440 C452 1.349 1_565 S
C441 C439 1.327 . S
C441 C457 1.429 . S
C441 H463 0.950 . S
C442 H438 0.949 1_565 S
C442 C450 1.574 . S
C442 C458 1.368 . S
H443 C451 0.950 . S
H444 C449 0.950 . S
H445 C450 0.949 . S
H446 C452 0.950 . S
H447 C453 0.950 . S
H448 C454 0.949 . S
C449 H444 0.950 . S
C449 C451 1.327 . S
C449 C455 1.429 . S
C450 C442 1.574 . S
C450 H445 0.949 . S
C450 C456 1.368 . S
C451 C435 1.349 . S
C451 H443 0.950 . S
C451 C449 1.327 . S
C452 C440 1.349 1_545 S
C452 H446 0.950 . S
C452 C453 1.327 . S
C453 H447 0.950 . S
C453 C452 1.327 . S
C453 C457 1.429 1_545 S
C454 C437 1.574 . S
C454 H448 0.949 . S
C454 C458 1.368 . S
C455 C436 1.429 . S
C455 C449 1.429 . S
C455 C456 1.523 . S
C456 C437 1.368 . S
C456 C450 1.368 . S
C456 C455 1.523 . S
C457 C441 1.429 . S
C457 C453 1.429 1_565 S
C457 C458 1.523 . S
C458 C442 1.368 . S
C458 C454 1.368 . S
C458 C457 1.523 . S
H459 C434 0.950 . S
H460 C436 0.950 . S
H461 C437 0.949 . S
H462 C439 0.950 . S
H463 C441 0.950 . S
C464 C465 1.349 . S
C464 C466 1.327 . S
C464 H489 0.950 . S
C465 C464 1.349 . S
C465 C481 1.349 . S
C466 C464 1.327 . S
C466 C485 1.429 . S
C466 H490 0.950 . S
C467 C484 1.574 . S
C467 C486 1.368 . S
C467 H491 0.949 . S
H468 C472 0.949 . S
C469 C470 1.349 . S
C469 C471 1.327 . S
C469 H492 0.950 . S
C470 C469 1.349 . S
C470 C482 1.349 . S
C471 C469 1.327 . S
C471 C487 1.429 . S
C471 H493 0.950 . S
C472 H468 0.949 . S
C472 C480 1.574 . S
C472 C488 1.368 . S
H473 C481 0.950 . S
H474 C479 0.950 . S
H475 C480 0.949 . S
H476 C482 0.950 . S
H477 C483 0.950 . S
H478 C484 0.949 . S
C479 H474 0.950 . S
C479 C481 1.327 . S
C479 C485 1.429 . S
C480 C472 1.574 . S
C480 H475 0.949 . S
C480 C486 1.368 . S
C481 C465 1.349 . S
C481 H473 0.950 . S
C481 C479 1.327 . S
C482 C470 1.349 . S
C482 H476 0.950 . S
C482 C483 1.327 . S
C483 H477 0.950 . S
C483 C482 1.327 . S
C483 C487 1.429 . S
C484 C467 1.574 . S
C484 H478 0.949 . S
C484 C488 1.368 . S
C485 C466 1.429 . S
C485 C479 1.429 . S
C485 C486 1.523 . S
C486 C467 1.368 . S
C486 C480 1.368 . S
C486 C485 1.523 . S
C487 C471 1.429 . S
C487 C483 1.429 . S
C487 C488 1.523 . S
C488 C472 1.368 . S
C488 C484 1.368 . S
C488 C487 1.523 . S
H489 C464 0.950 . S
H490 C466 0.950 . S
H491 C467 0.949 . S
H492 C469 0.950 . S
H493 C471 0.950 . S
C494 C495 1.349 . S
C494 C496 1.327 . S
C494 H519 0.950 . S
C495 C494 1.349 . S
C495 C511 1.349 . S
C496 C494 1.327 . S
C496 C515 1.429 . S
C496 H520 0.950 . S
C497 C514 1.574 . S
C497 C516 1.368 . S
C497 H521 0.949 . S
H498 C502 0.949 . S
C499 C500 1.349 . S
C499 C501 1.327 . S
C499 H522 0.950 . S
C500 C499 1.349 . S
C500 C512 1.349 . S
C501 C499 1.327 . S
C501 C517 1.429 . S
C501 H523 0.950 . S
C502 H498 0.949 . S
C502 C510 1.574 . S
C502 C518 1.368 . S
H503 C511 0.950 . S
H504 C509 0.950 . S
H505 C510 0.949 . S
H506 C512 0.950 . S
H507 C513 0.950 . S
H508 C514 0.949 . S
C509 H504 0.950 . S
C509 C511 1.327 . S
C509 C515 1.429 . S
C510 C502 1.574 . S
C510 H505 0.949 . S
C510 C516 1.368 . S
C511 C495 1.349 . S
C511 H503 0.950 . S
C511 C509 1.327 . S
C512 C500 1.349 . S
C512 H506 0.950 . S
C512 C513 1.327 . S
C513 H507 0.950 . S
C513 C512 1.327 . S
C513 C517 1.429 . S
C514 C497 1.574 . S
C514 H508 0.949 . S
C514 C518 1.368 . S
C515 C496 1.429 . S
C515 C509 1.429 . S
C515 C516 1.523 . S
C516 C497 1.368 . S
C516 C510 1.368 . S
C516 C515 1.523 . S
C517 C501 1.429 . S
C517 C513 1.429 . S
C517 C518 1.523 . S
C518 C502 1.368 . S
C518 C514 1.368 . S
C518 C517 1.523 . S
H519 C494 0.950 . S
H520 C496 0.950 . S
H521 C497 0.949 . S
H522 C499 0.950 . S
H523 C501 0.950 . S
C524 C525 1.349 . S
C524 C526 1.327 . S
C524 H549 0.950 . S
C525 C524 1.349 . S
C525 C541 1.349 . S
C526 C524 1.327 . S
C526 C545 1.429 . S
C526 H550 0.950 . S
C527 C544 1.574 . S
C527 C546 1.368 . S
C527 H551 0.949 . S
H528 C532 0.949 . S
C529 C530 1.349 . S
C529 C531 1.327 . S
C529 H552 0.950 . S
C530 C529 1.349 . S
C530 C542 1.349 . S
C531 C529 1.327 . S
C531 C547 1.429 . S
C531 H553 0.950 . S
C532 H528 0.949 . S
C532 C540 1.574 . S
C532 C548 1.368 . S
H533 C541 0.950 . S
H534 C539 0.950 . S
H535 C540 0.949 . S
H536 C542 0.950 . S
H537 C543 0.950 . S
H538 C544 0.949 . S
C539 H534 0.950 . S
C539 C541 1.327 . S
C539 C545 1.429 . S
C540 C532 1.574 . S
C540 H535 0.949 . S
C540 C546 1.368 . S
C541 C525 1.349 . S
C541 H533 0.950 . S
C541 C539 1.327 . S
C542 C530 1.349 . S
C542 H536 0.950 . S
C542 C543 1.327 . S
C543 H537 0.950 . S
C543 C542 1.327 . S
C543 C547 1.429 . S
C544 C527 1.574 . S
C544 H538 0.949 . S
C544 C548 1.368 . S
C545 C526 1.429 . S
C545 C539 1.429 . S
C545 C546 1.523 . S
C546 C527 1.368 . S
C546 C540 1.368 . S
C546 C545 1.523 . S
C547 C531 1.429 . S
C547 C543 1.429 . S
C547 C548 1.523 . S
C548 C532 1.368 . S
C548 C544 1.368 . S
C548 C547 1.523 . S
H549 C524 0.950 . S
H550 C526 0.950 . S
H551 C527 0.949 . S
H552 C529 0.950 . S
H553 C531 0.950 . S
C554 C555 1.349 . S
C554 C556 1.327 . S
C554 H579 0.950 . S
C555 C554 1.349 . S
C555 C571 1.349 . S
C556 C554 1.327 . S
C556 C575 1.429 . S
C556 H580 0.950 . S
C557 C574 1.574 . S
C557 C576 1.368 . S
C557 H581 0.949 . S
H558 C562 0.949 . S
C559 C560 1.349 . S
C559 C561 1.327 . S
C559 H582 0.950 . S
C560 C559 1.349 . S
C560 C572 1.349 . S
C561 C559 1.327 . S
C561 C577 1.429 . S
C561 H583 0.950 . S
C562 H558 0.949 . S
C562 C570 1.574 . S
C562 C578 1.368 . S
H563 C571 0.950 . S
H564 C569 0.950 . S
H565 C570 0.949 . S
H566 C572 0.950 1_545 S
H567 C573 0.950 1_545 S
H568 C574 0.949 . S
C569 H564 0.950 . S
C569 C571 1.327 . S
C569 C575 1.429 . S
C570 C562 1.574 . S
C570 H565 0.949 . S
C570 C576 1.368 . S
C571 C555 1.349 . S
C571 H563 0.950 . S
C571 C569 1.327 . S
C572 C560 1.349 . S
C572 H566 0.950 1_565 S
C572 C573 1.327 . S
C573 H567 0.950 1_565 S
C573 C572 1.327 . S
C573 C577 1.429 . S
C574 C557 1.574 . S
C574 H568 0.949 . S
C574 C578 1.368 . S
C575 C556 1.429 . S
C575 C569 1.429 . S
C575 C576 1.523 . S
C576 C557 1.368 . S
C576 C570 1.368 . S
C576 C575 1.523 . S
C577 C561 1.429 . S
C577 C573 1.429 . S
C577 C578 1.523 . S
C578 C562 1.368 . S
C578 C574 1.368 . S
C578 C577 1.523 . S
H579 C554 0.950 . S
H580 C556 0.950 . S
H581 C557 0.949 . S
H582 C559 0.950 . S
H583 C561 0.950 . S
C584 C585 1.349 . S
C584 C586 1.327 . S
C584 H609 0.950 . S
C585 C584 1.349 . S
C585 C601 1.349 . S
C586 C584 1.327 . S
C586 C605 1.429 . S
C586 H610 0.950 . S
C587 C604 1.574 . S
C587 C606 1.368 . S
C587 H611 0.949 . S
H588 C592 0.949 . S
C589 C590 1.349 . S
C589 C591 1.327 . S
C589 H612 0.950 . S
C590 C589 1.349 . S
C590 C602 1.349 . S
C591 C589 1.327 . S
C591 C607 1.429 . S
C591 H613 0.950 . S
C592 H588 0.949 . S
C592 C600 1.574 . S
C592 C608 1.368 . S
H593 C601 0.950 . S
H594 C599 0.950 . S
H595 C600 0.949 . S
H596 C602 0.950 . S
H597 C603 0.950 . S
H598 C604 0.949 . S
C599 H594 0.950 . S
C599 C601 1.327 . S
C599 C605 1.429 . S
C600 C592 1.574 . S
C600 H595 0.949 . S
C600 C606 1.368 . S
C601 C585 1.349 . S
C601 H593 0.950 . S
C601 C599 1.327 . S
C602 C590 1.349 . S
C602 H596 0.950 . S
C602 C603 1.327 . S
C603 H597 0.950 . S
C603 C602 1.327 . S
C603 C607 1.429 . S
C604 C587 1.574 . S
C604 H598 0.949 . S
C604 C608 1.368 . S
C605 C586 1.429 . S
C605 C599 1.429 . S
C605 C606 1.523 . S
C606 C587 1.368 . S
C606 C600 1.368 . S
C606 C605 1.523 . S
C607 C591 1.429 . S
C607 C603 1.429 . S
C607 C608 1.523 . S
C608 C592 1.368 . S
C608 C604 1.368 . S
C608 C607 1.523 . S
H609 C584 0.950 . S
H610 C586 0.950 . S
H611 C587 0.949 . S
H612 C589 0.950 . S
H613 C591 0.950 . S
C614 C615 1.349 . S
C614 C616 1.327 . S
C614 H639 0.950 . S
C615 C614 1.349 . S
C615 C631 1.349 . S
C616 C614 1.327 . S
C616 C635 1.429 . S
C616 H640 0.950 . S
C617 C634 1.574 . S
C617 C636 1.368 . S
C617 H641 0.949 . S
H618 C622 0.949 . S
C619 C620 1.349 . S
C619 C621 1.327 . S
C619 H642 0.950 . S
C620 C619 1.349 . S
C620 C632 1.349 . S
C621 C619 1.327 . S
C621 C637 1.429 . S
C621 H643 0.950 . S
C622 H618 0.949 . S
C622 C630 1.574 . S
C622 C638 1.368 . S
H623 C631 0.950 . S
H624 C629 0.950 . S
H625 C630 0.949 . S
H626 C632 0.950 . S
H627 C633 0.950 . S
H628 C634 0.949 . S
C629 H624 0.950 . S
C629 C631 1.327 . S
C629 C635 1.429 . S
C630 C622 1.574 . S
C630 H625 0.949 . S
C630 C636 1.368 . S
C631 C615 1.349 . S
C631 H623 0.950 . S
C631 C629 1.327 . S
C632 C620 1.349 . S
C632 H626 0.950 . S
C632 C633 1.327 . S
C633 H627 0.950 . S
C633 C632 1.327 . S
C633 C637 1.429 . S
C634 C617 1.574 . S
C634 H628 0.949 . S
C634 C638 1.368 . S
C635 C616 1.429 . S
C635 C629 1.429 . S
C635 C636 1.523 . S
C636 C617 1.368 . S
C636 C630 1.368 . S
C636 C635 1.523 . S
C637 C621 1.429 . S
C637 C633 1.429 . S
C637 C638 1.523 . S
C638 C622 1.368 . S
C638 C634 1.368 . S
C638 C637 1.523 . S
H639 C614 0.950 . S
H640 C616 0.950 . S
H641 C617 0.949 . S
H642 C619 0.950 . S
H643 C621 0.950 . S
C644 C645 1.349 . S
C644 C646 1.327 . S
C644 H669 0.950 . S
C645 C644 1.349 . S
C645 C661 1.349 . S
C646 C644 1.327 . S
C646 C665 1.429 . S
C646 H670 0.950 . S
C647 C664 1.574 . S
C647 C666 1.368 . S
C647 H671 0.949 . S
H648 C652 0.949 . S
C649 C650 1.349 . S
C649 C651 1.327 . S
C649 H672 0.950 . S
C650 C649 1.349 . S
C650 C662 1.349 . S
C651 C649 1.327 . S
C651 C667 1.429 . S
C651 H673 0.950 . S
C652 H648 0.949 . S
C652 C660 1.574 . S
C652 C668 1.368 . S
H653 C661 0.950 . S
H654 C659 0.950 . S
H655 C660 0.949 . S
H656 C662 0.950 . S
H657 C663 0.950 . S
H658 C664 0.949 . S
C659 H654 0.950 . S
C659 C661 1.327 . S
C659 C665 1.429 . S
C660 C652 1.574 . S
C660 H655 0.949 . S
C660 C666 1.368 . S
C661 C645 1.349 . S
C661 H653 0.950 . S
C661 C659 1.327 . S
C662 C650 1.349 . S
C662 H656 0.950 . S
C662 C663 1.327 . S
C663 H657 0.950 . S
C663 C662 1.327 . S
C663 C667 1.429 . S
C664 C647 1.574 . S
C664 H658 0.949 . S
C664 C668 1.368 . S
C665 C646 1.429 . S
C665 C659 1.429 . S
C665 C666 1.523 . S
C666 C647 1.368 . S
C666 C660 1.368 . S
C666 C665 1.523 . S
C667 C651 1.429 . S
C667 C663 1.429 . S
C667 C668 1.523 . S
C668 C652 1.368 . S
C668 C664 1.368 . S
C668 C667 1.523 . S
H669 C644 0.950 . S
H670 C646 0.950 . S
H671 C647 0.949 . S
H672 C649 0.950 . S
H673 C651 0.950 . S
C674 C675 1.349 . S
C674 C676 1.327 . S
C674 H699 0.950 . S
C675 C674 1.349 . S
C675 C691 1.349 . S
C676 C674 1.327 . S
C676 C695 1.429 . S
C676 H700 0.950 . S
C677 C694 1.574 . S
C677 C696 1.368 . S
C677 H701 0.949 . S
H678 C682 0.949 . S
C679 C680 1.349 . S
C679 C681 1.327 . S
C679 H702 0.970 . S
C680 C679 1.349 . S
C680 C692 1.349 . S
C681 C679 1.327 . S
C681 C697 1.429 . S
C681 H703 0.950 . S
C682 H678 0.949 . S
C682 C690 1.574 . S
C682 C698 1.368 . S
H683 C691 0.950 . S
H684 C689 0.950 . S
H685 C690 0.949 . S
H686 C692 0.950 . S
H687 C693 0.950 . S
H688 C694 0.949 . S
C689 H684 0.950 . S
C689 C691 1.327 . S
C689 C695 1.429 . S
C690 C682 1.574 . S
C690 H685 0.949 . S
C690 C696 1.368 . S
C691 C675 1.349 . S
C691 H683 0.950 . S
C691 C689 1.327 . S
C692 C680 1.349 . S
C692 H686 0.950 . S
C692 C693 1.327 . S
C693 H687 0.950 . S
C693 C692 1.327 . S
C693 C697 1.429 . S
C694 C677 1.574 . S
C694 H688 0.949 . S
C694 C698 1.368 . S
C695 C676 1.429 . S
C695 C689 1.429 . S
C695 C696 1.523 . S
C696 C677 1.368 . S
C696 C690 1.368 . S
C696 C695 1.523 . S
C697 C681 1.429 . S
C697 C693 1.429 . S
C697 C698 1.523 . S
C698 C682 1.368 . S
C698 C694 1.368 . S
C698 C697 1.523 . S
H699 C674 0.950 . S
H700 C676 0.950 . S
H701 C677 0.949 . S
H702 C679 0.970 . S
H703 C681 0.950 . S
C704 C705 1.349 . S
C704 C706 1.327 . S
C704 H729 0.950 . S
C705 C704 1.349 . S
C705 C721 1.349 . S
C706 C704 1.327 . S
C706 C725 1.429 . S
C706 H730 0.950 . S
C707 C724 1.574 . S
C707 C726 1.368 . S
C707 H731 0.949 . S
H708 C712 0.949 . S
C709 C710 1.349 . S
C709 C711 1.327 . S
C709 H732 0.950 . S
C710 C709 1.349 . S
C710 C722 1.349 . S
C711 C709 1.327 . S
C711 C727 1.429 . S
C711 H733 0.950 . S
C712 H708 0.949 . S
C712 C720 1.574 . S
C712 C728 1.368 . S
H713 C721 0.950 . S
H714 C719 0.950 . S
H715 C720 0.949 . S
H716 C722 0.950 . S
H717 C723 0.950 . S
H718 C724 0.949 . S
C719 H714 0.950 . S
C719 C721 1.327 . S
C719 C725 1.429 . S
C720 C712 1.574 . S
C720 H715 0.949 . S
C720 C726 1.368 . S
C721 C705 1.349 . S
C721 H713 0.950 . S
C721 C719 1.327 . S
C722 C710 1.349 . S
C722 H716 0.950 . S
C722 C723 1.327 . S
C723 H717 0.950 . S
C723 C722 1.327 . S
C723 C727 1.429 . S
C724 C707 1.574 . S
C724 H718 0.949 . S
C724 C728 1.368 . S
C725 C706 1.429 . S
C725 C719 1.429 . S
C725 C726 1.523 . S
C726 C707 1.368 . S
C726 C720 1.368 . S
C726 C725 1.523 . S
C727 C711 1.429 . S
C727 C723 1.429 . S
C727 C728 1.523 . S
C728 C712 1.368 . S
C728 C724 1.368 . S
C728 C727 1.523 . S
H729 C704 0.950 . S
H730 C706 0.950 . S
H731 C707 0.949 . S
H732 C709 0.950 . S
H733 C711 0.950 . S
C734 C735 1.349 . S
C734 C736 1.327 . S
C734 H759 0.950 . S
C735 C734 1.349 . S
C735 C751 1.349 . S
C736 C734 1.327 . S
C736 C755 1.429 . S
C736 H760 0.950 . S
C737 C754 1.574 . S
C737 C756 1.368 . S
C737 H761 0.949 . S
H738 C742 0.949 . S
C739 C740 1.349 . S
C739 C741 1.327 . S
C739 H762 0.950 . S
C740 C739 1.349 . S
C740 C752 1.349 . S
C741 C739 1.327 . S
C741 C757 1.429 . S
C741 H763 0.950 . S
C742 H738 0.949 . S
C742 C750 1.574 . S
C742 C758 1.368 . S
H743 C751 0.950 . S
H744 C749 0.950 . S
H745 C750 0.949 . S
H746 C752 0.950 . S
H747 C753 0.950 . S
H748 C754 0.949 . S
C749 H744 0.950 . S
C749 C751 1.327 . S
C749 C755 1.429 . S
C750 C742 1.574 . S
C750 H745 0.949 . S
C750 C756 1.368 . S
C751 C735 1.349 . S
C751 H743 0.950 . S
C751 C749 1.327 . S
C752 C740 1.349 . S
C752 H746 0.950 . S
C752 C753 1.327 . S
C753 H747 0.950 . S
C753 C752 1.327 . S
C753 C757 1.429 . S
C754 C737 1.574 . S
C754 H748 0.949 . S
C754 C758 1.368 . S
C755 C736 1.429 . S
C755 C749 1.429 . S
C755 C756 1.523 . S
C756 C737 1.368 . S
C756 C750 1.368 . S
C756 C755 1.523 . S
C757 C741 1.429 . S
C757 C753 1.429 . S
C757 C758 1.523 . S
C758 C742 1.368 . S
C758 C754 1.368 . S
C758 C757 1.523 . S
H759 C734 0.950 . S
H760 C736 0.950 . S
H761 C737 0.949 . S
H762 C739 0.950 . S
H763 C741 0.950 . S
C764 C765 1.349 . S
C764 C766 1.327 . S
C764 H789 0.950 . S
C765 C764 1.349 . S
C765 C781 1.349 . S
C766 C764 1.327 . S
C766 C785 1.429 . S
C766 H790 0.950 . S
C767 C784 1.574 . S
C767 C786 1.368 . S
C767 H791 0.949 . S
H768 C772 0.949 . S
C769 C770 1.349 . S
C769 C771 1.327 . S
C769 H792 0.950 1_655 S
C770 C769 1.349 . S
C770 C782 1.349 . S
C771 C769 1.327 . S
C771 C787 1.429 . S
C771 H793 0.950 1_655 S
C772 H768 0.949 . S
C772 C780 1.574 . S
C772 C788 1.368 . S
H773 C781 0.950 . S
H774 C779 0.950 . S
H775 C780 0.949 . S
H776 C782 0.950 . S
H777 C783 0.950 . S
H778 C784 0.949 . S
C779 H774 0.950 . S
C779 C781 1.327 . S
C779 C785 1.429 . S
C780 C772 1.574 . S
C780 H775 0.949 . S
C780 C786 1.368 . S
C781 C765 1.349 . S
C781 H773 0.950 . S
C781 C779 1.327 . S
C782 C770 1.349 . S
C782 H776 0.950 . S
C782 C783 1.327 . S
C783 H777 0.950 . S
C783 C782 1.327 . S
C783 C787 1.429 . S
C784 C767 1.574 . S
C784 H778 0.949 . S
C784 C788 1.368 . S
C785 C766 1.429 . S
C785 C779 1.429 . S
C785 C786 1.523 . S
C786 C767 1.368 . S
C786 C780 1.368 . S
C786 C785 1.523 . S
C787 C771 1.429 . S
C787 C783 1.429 . S
C787 C788 1.523 . S
C788 C772 1.368 . S
C788 C784 1.368 . S
C788 C787 1.523 . S
H789 C764 0.950 . S
H790 C766 0.950 . S
H791 C767 0.949 . S
H792 C769 0.950 1_455 S
H793 C771 0.950 1_455 S
C794 C795 1.349 . S
C794 C796 1.327 . S
C794 H819 0.950 . S
C795 C794 1.349 . S
C795 C811 1.349 . S
C796 C794 1.327 . S
C796 C815 1.429 . S
C796 H820 0.950 . S
C797 C814 1.574 . S
C797 C816 1.368 . S
C797 H821 0.949 . S
H798 C802 0.949 . S
C799 C800 1.349 . S
C799 C801 1.327 . S
C799 H822 0.950 . S
C800 C799 1.349 . S
C800 C812 1.349 . S
C801 C799 1.327 . S
C801 C817 1.429 . S
C801 H823 0.950 . S
C802 H798 0.949 . S
C802 C810 1.574 . S
C802 C818 1.368 . S
H803 C811 0.950 . S
H804 C809 0.950 . S
H805 C810 0.949 . S
H806 C812 0.950 . S
H807 C813 0.950 . S
H808 C814 0.949 . S
C809 H804 0.950 . S
C809 C811 1.327 . S
C809 C815 1.429 . S
C810 C802 1.574 . S
C810 H805 0.949 . S
C810 C816 1.368 . S
C811 C795 1.349 . S
C811 H803 0.950 . S
C811 C809 1.327 . S
C812 C800 1.349 . S
C812 H806 0.950 . S
C812 C813 1.327 . S
C813 H807 0.950 . S
C813 C812 1.327 . S
C813 C817 1.429 . S
C814 C797 1.574 . S
C814 H808 0.949 . S
C814 C818 1.368 . S
C815 C796 1.429 . S
C815 C809 1.429 . S
C815 C816 1.523 . S
C816 C797 1.368 . S
C816 C810 1.368 . S
C816 C815 1.523 . S
C817 C801 1.429 . S
C817 C813 1.429 . S
C817 C818 1.523 . S
C818 C802 1.368 . S
C818 C814 1.368 . S
C818 C817 1.523 . S
H819 C794 0.950 . S
H820 C796 0.950 . S
H821 C797 0.949 . S
H822 C799 0.950 . S
H823 C801 0.950 . S
C824 C825 1.349 . S
C824 C826 1.327 . S
C824 H849 0.950 . S
C825 C824 1.349 . S
C825 C841 1.349 . S
C826 C824 1.327 . S
C826 C845 1.429 . S
C826 H850 0.950 . S
C827 C844 1.574 . S
C827 C846 1.368 . S
C827 H851 0.949 . S
H828 C832 0.949 . S
C829 C830 1.349 . S
C829 C831 1.327 . S
C829 H852 0.950 . S
C830 C829 1.349 . S
C830 C842 1.349 . S
C831 C829 1.327 . S
C831 C847 1.429 . S
C831 H853 0.950 . S
C832 H828 0.949 . S
C832 C840 1.574 . S
C832 C848 1.368 . S
H833 C841 0.950 . S
H834 C839 0.950 . S
H835 C840 0.949 . S
H836 C842 0.950 . S
H837 C843 0.950 . S
H838 C844 0.949 . S
C839 H834 0.950 . S
C839 C841 1.327 . S
C839 C845 1.429 . S
C840 C832 1.574 . S
C840 H835 0.949 . S
C840 C846 1.368 . S
C841 C825 1.349 . S
C841 H833 0.950 . S
C841 C839 1.327 . S
C842 C830 1.349 . S
C842 H836 0.950 . S
C842 C843 1.327 . S
C843 H837 0.950 . S
C843 C842 1.327 . S
C843 C847 1.429 . S
C844 C827 1.574 . S
C844 H838 0.949 . S
C844 C848 1.368 . S
C845 C826 1.429 . S
C845 C839 1.429 . S
C845 C846 1.523 . S
C846 C827 1.368 . S
C846 C840 1.368 . S
C846 C845 1.523 . S
C847 C831 1.429 . S
C847 C843 1.429 . S
C847 C848 1.523 . S
C848 C832 1.368 . S
C848 C844 1.368 . S
C848 C847 1.523 . S
H849 C824 0.950 . S
H850 C826 0.950 . S
H851 C827 0.949 . S
H852 C829 0.950 . S
H853 C831 0.950 . S
C854 C855 1.349 . S
C854 C856 1.327 . S
C854 H879 0.950 . S
C855 C854 1.349 . S
C855 C871 1.349 . S
C856 C854 1.327 . S
C856 C875 1.429 . S
C856 H880 0.950 . S
C857 C874 1.574 . S
C857 C876 1.368 . S
C857 H881 0.949 . S
H858 C862 0.949 . S
C859 C860 1.349 . S
C859 C861 1.327 . S
C859 H882 0.950 . S
C860 C859 1.349 . S
C860 C872 1.349 . S
C861 C859 1.327 . S
C861 C877 1.429 . S
C861 H883 0.950 . S
C862 H858 0.949 . S
C862 C870 1.574 . S
C862 C878 1.368 . S
H863 C871 0.950 . S
H864 C869 0.950 . S
H865 C870 0.949 . S
H866 C872 0.950 . S
H867 C873 0.950 . S
H868 C874 0.949 . S
C869 H864 0.950 . S
C869 C871 1.327 . S
C869 C875 1.429 . S
C870 C862 1.574 . S
C870 H865 0.949 . S
C870 C876 1.368 . S
C871 C855 1.349 . S
C871 H863 0.950 . S
C871 C869 1.327 . S
C872 C860 1.349 . S
C872 H866 0.950 . S
C872 C873 1.327 . S
C873 H867 0.950 . S
C873 C872 1.327 . S
C873 C877 1.429 . S
C874 C857 1.574 . S
C874 H868 0.949 . S
C874 C878 1.368 . S
C875 C856 1.429 . S
C875 C869 1.429 . S
C875 C876 1.523 . S
C876 C857 1.368 . S
C876 C870 1.368 . S
C876 C875 1.523 . S
C877 C861 1.429 . S
C877 C873 1.429 . S
C877 C878 1.523 . S
C878 C862 1.368 . S
C878 C874 1.368 . S
C878 C877 1.523 . S
H879 C854 0.950 . S
H880 C856 0.950 . S
H881 C857 0.949 . S
H882 C859 0.950 . S
H883 C861 0.950 . S
C884 C885 1.349 . S
C884 C886 1.327 . S
C884 H909 0.950 . S
C885 C884 1.349 . S
C885 C901 1.349 . S
C886 C884 1.327 . S
C886 C905 1.429 . S
C886 H910 0.950 . S
C887 C904 1.574 . S
C887 C906 1.368 . S
C887 H911 0.949 . S
H888 C892 0.949 . S
C889 C890 1.349 1_545 S
C889 C891 1.327 1_545 S
C889 H912 0.950 . S
C890 C889 1.349 1_565 S
C890 C902 1.349 . S
C891 C889 1.327 1_565 S
C891 C907 1.429 . S
C891 H913 0.950 1_565 S
C892 H888 0.949 . S
C892 C900 1.574 . S
C892 C908 1.368 . S
H893 C901 0.950 . S
H894 C899 0.950 . S
H895 C900 0.949 . S
H896 C902 0.950 . S
H897 C903 0.950 . S
H898 C904 0.949 1_545 S
C899 H894 0.950 . S
C899 C901 1.327 . S
C899 C905 1.429 . S
C900 C892 1.574 . S
C900 H895 0.949 . S
C900 C906 1.368 . S
C901 C885 1.349 . S
C901 H893 0.950 . S
C901 C899 1.327 . S
C902 C890 1.349 . S
C902 H896 0.950 . S
C902 C903 1.327 . S
C903 H897 0.950 . S
C903 C902 1.327 . S
C903 C907 1.429 . S
C904 C887 1.574 . S
C904 H898 0.949 1_565 S
C904 C908 1.368 . S
C905 C886 1.429 . S
C905 C899 1.429 . S
C905 C906 1.523 . S
C906 C887 1.368 . S
C906 C900 1.368 . S
C906 C905 1.523 . S
C907 C891 1.429 . S
C907 C903 1.429 . S
C907 C908 1.523 . S
C908 C892 1.368 . S
C908 C904 1.368 . S
C908 C907 1.523 . S
H909 C884 0.950 . S
H910 C886 0.950 . S
H911 C887 0.949 . S
H912 C889 0.950 . S
H913 C891 0.950 1_545 S
C914 C915 1.349 . S
C914 C916 1.327 . S
C914 H939 0.950 . S
C915 C914 1.349 . S
C915 C931 1.349 . S
C916 C914 1.327 . S
C916 C935 1.429 . S
C916 H940 0.950 . S
C917 C934 1.574 . S
C917 C936 1.368 . S
C917 H941 0.949 . S
H918 C922 0.949 . S
C919 C920 1.349 . S
C919 C921 1.327 . S
C919 H942 0.950 . S
C920 C919 1.349 . S
C920 C932 1.349 . S
C921 C919 1.327 . S
C921 C937 1.429 . S
C921 H943 0.950 . S
C922 H918 0.949 . S
C922 C930 1.574 . S
C922 C938 1.368 . S
H923 C931 0.950 . S
H924 C929 0.950 . S
H925 C930 0.949 . S
H926 C932 0.950 . S
H927 C933 0.950 . S
H928 C934 0.949 . S
C929 H924 0.950 . S
C929 C931 1.327 . S
C929 C935 1.429 . S
C930 C922 1.574 . S
C930 H925 0.949 . S
C930 C936 1.368 . S
C931 C915 1.349 . S
C931 H923 0.950 . S
C931 C929 1.327 . S
C932 C920 1.349 . S
C932 H926 0.950 . S
C932 C933 1.327 . S
C933 H927 0.950 . S
C933 C932 1.327 . S
C933 C937 1.429 . S
C934 C917 1.574 . S
C934 H928 0.949 . S
C934 C938 1.368 . S
C935 C916 1.429 . S
C935 C929 1.429 . S
C935 C936 1.523 . S
C936 C917 1.368 . S
C936 C930 1.368 . S
C936 C935 1.523 . S
C937 C921 1.429 . S
C937 C933 1.429 . S
C937 C938 1.523 . S
C938 C922 1.368 . S
C938 C934 1.368 . S
C938 C937 1.523 . S
H939 C914 0.950 . S
H940 C916 0.950 . S
H941 C917 0.949 . S
H942 C919 0.950 . S
H943 C921 0.950 . S
C944 C945 1.349 . S
C944 C946 1.327 . S
C944 H969 0.950 . S
C945 C944 1.349 . S
C945 C961 1.349 . S
C946 C944 1.327 . S
C946 C965 1.429 . S
C946 H970 0.950 . S
C947 C964 1.574 . S
C947 C966 1.368 . S
C947 H971 0.949 . S
H948 C952 0.949 . S
C949 C950 1.349 . S
C949 C951 1.327 . S
C949 H972 0.950 1_554 S
C950 C949 1.349 . S
C950 C962 1.349 . S
C951 C949 1.327 . S
C951 C967 1.429 . S
C951 H973 0.950 . S
C952 H948 0.949 . S
C952 C960 1.574 . S
C952 C968 1.368 . S
H953 C961 0.950 . S
H954 C959 0.950 . S
H955 C960 0.949 . S
H956 C962 0.950 . S
H957 C963 0.950 . S
H958 C964 0.949 . S
C959 H954 0.950 . S
C959 C961 1.327 . S
C959 C965 1.429 . S
C960 C952 1.574 . S
C960 H955 0.949 . S
C960 C966 1.368 . S
C961 C945 1.349 . S
C961 H953 0.950 . S
C961 C959 1.327 . S
C962 C950 1.349 . S
C962 H956 0.950 . S
C962 C963 1.327 . S
C963 H957 0.950 . S
C963 C962 1.327 . S
C963 C967 1.429 . S
C964 C947 1.574 . S
C964 H958 0.949 . S
C964 C968 1.368 . S
C965 C946 1.429 . S
C965 C959 1.429 . S
C965 C966 1.523 . S
C966 C947 1.368 . S
C966 C960 1.368 . S
C966 C965 1.523 . S
C967 C951 1.429 . S
C967 C963 1.429 . S
C967 C968 1.523 . S
C968 C952 1.368 . S
C968 C964 1.368 . S
C968 C967 1.523 . S
H969 C944 0.950 . S
H970 C946 0.950 . S
H971 C947 0.949 . S
H972 C949 0.950 1_556 S
H973 C951 0.950 . S
C974 C975 1.349 . S
C974 C976 1.327 . S
C974 H999 0.950 . S
C975 C974 1.349 . S
C975 C991 1.349 . S
C976 C974 1.327 . S
C976 C995 1.429 . S
C976 H1000 0.950 . S
C977 C994 1.574 . S
C977 C996 1.368 . S
C977 H1001 0.949 . S
H978 C982 0.949 . S
C979 C980 1.349 . S
C979 C981 1.327 . S
C979 H1002 0.950 . S
C980 C979 1.349 . S
C980 C992 1.349 . S
C981 C979 1.327 . S
C981 C997 1.429 . S
C981 H1003 0.950 . S
C982 H978 0.949 . S
C982 C990 1.574 . S
C982 C998 1.368 . S
H983 C991 0.950 . S
H984 C989 0.950 . S
H985 C990 0.949 . S
H986 C992 0.950 . S
H987 C993 0.950 . S
H988 C994 0.949 . S
C989 H984 0.950 . S
C989 C991 1.327 . S
C989 C995 1.429 . S
C990 C982 1.574 . S
C990 H985 0.949 . S
C990 C996 1.368 . S
C991 C975 1.349 . S
C991 H983 0.950 . S
C991 C989 1.327 . S
C992 C980 1.349 . S
C992 H986 0.950 . S
C992 C993 1.327 . S
C993 H987 0.950 . S
C993 C992 1.327 . S
C993 C997 1.429 . S
C994 C977 1.574 . S
C994 H988 0.949 . S
C994 C998 1.368 . S
C995 C976 1.429 . S
C995 C989 1.429 . S
C995 C996 1.523 . S
C996 C977 1.368 . S
C996 C990 1.368 . S
C996 C995 1.523 . S
C997 C981 1.429 . S
C997 C993 1.429 . S
C997 C998 1.523 . S
C998 C982 1.368 . S
C998 C994 1.368 . S
C998 C997 1.523 . S
H999 C974 0.950 . S
H1000 C976 0.950 . S
H1001 C977 0.949 . S
H1002 C979 0.950 . S
H1003 C981 0.950 . S
C1004 C1005 1.349 . S
C1004 C1006 1.327 . S
C1004 H1029 0.950 . S
C1005 C1004 1.349 . S
C1005 C1021 1.349 . S
C1006 C1004 1.327 . S
C1006 C1025 1.429 . S
C1006 H1030 0.950 . S
C1007 C1024 1.574 . S
C1007 C1026 1.368 . S
C1007 H1031 0.949 . S
H1008 C1012 0.949 . S
C1009 C1010 1.374 . S
C1009 C1011 1.338 . S
C1009 H1032 0.914 1_556 S
C1010 C1009 1.374 . S
C1010 C1022 1.349 . S
C1011 C1009 1.338 . S
C1011 C1027 1.429 . S
C1011 H1033 0.950 1_556 S
C1012 H1008 0.949 . S
C1012 C1020 1.574 . S
C1012 C1028 1.368 . S
H1013 C1021 0.950 . S
H1014 C1019 0.950 . S
H1015 C1020 0.949 . S
H1016 C1022 0.950 . S
H1017 C1023 0.950 . S
H1018 C1024 0.949 . S
C1019 H1014 0.950 . S
C1019 C1021 1.327 . S
C1019 C1025 1.429 . S
C1020 C1012 1.574 . S
C1020 H1015 0.949 . S
C1020 C1026 1.368 . S
C1021 C1005 1.349 . S
C1021 H1013 0.950 . S
C1021 C1019 1.327 . S
C1022 C1010 1.349 . S
C1022 H1016 0.950 . S
C1022 C1023 1.327 . S
C1023 H1017 0.950 . S
C1023 C1022 1.327 . S
C1023 C1027 1.429 . S
C1024 C1007 1.574 . S
C1024 H1018 0.949 . S
C1024 C1028 1.368 . S
C1025 C1006 1.429 . S
C1025 C1019 1.429 . S
C1025 C1026 1.523 . S
C1026 C1007 1.368 . S
C1026 C1020 1.368 . S
C1026 C1025 1.523 . S
C1027 C1011 1.429 . S
C1027 C1023 1.429 . S
C1027 C1028 1.523 . S
C1028 C1012 1.368 . S
C1028 C1024 1.368 . S
C1028 C1027 1.523 . S
H1029 C1004 0.950 . S
H1030 C1006 0.950 . S
H1031 C1007 0.949 . S
H1032 C1009 0.914 1_554 S
H1033 C1011 0.950 1_554 S
C1034 C1035 1.349 . S
C1034 C1036 1.327 . S
C1034 H1059 0.950 . S
C1035 C1034 1.349 . S
C1035 C1051 1.349 . S
C1036 C1034 1.327 . S
C1036 C1055 1.429 . S
C1036 H1060 0.950 . S
C1037 C1054 1.574 . S
C1037 C1056 1.368 . S
C1037 H1061 0.949 . S
H1038 C1042 0.949 . S
C1039 C1040 1.349 . S
C1039 C1041 1.327 . S
C1039 H1062 0.950 . S
C1040 C1039 1.349 . S
C1040 C1052 1.349 . S
C1041 C1039 1.327 . S
C1041 C1057 1.429 . S
C1041 H1063 0.950 . S
C1042 H1038 0.949 . S
C1042 C1050 1.574 . S
C1042 C1058 1.368 . S
H1043 C1051 0.950 . S
H1044 C1049 0.950 . S
H1045 C1050 0.949 . S
H1046 C1052 0.950 . S
H1047 C1053 0.950 . S
H1048 C1054 0.949 . S
C1049 H1044 0.950 . S
C1049 C1051 1.327 . S
C1049 C1055 1.429 . S
C1050 C1042 1.574 . S
C1050 H1045 0.949 . S
C1050 C1056 1.368 . S
C1051 C1035 1.349 . S
C1051 H1043 0.950 . S
C1051 C1049 1.327 . S
C1052 C1040 1.349 . S
C1052 H1046 0.950 . S
C1052 C1053 1.327 . S
C1053 H1047 0.950 . S
C1053 C1052 1.327 . S
C1053 C1057 1.429 . S
C1054 C1037 1.574 . S
C1054 H1048 0.949 . S
C1054 C1058 1.368 . S
C1055 C1036 1.429 . S
C1055 C1049 1.429 . S
C1055 C1056 1.523 . S
C1056 C1037 1.368 . S
C1056 C1050 1.368 . S
C1056 C1055 1.523 . S
C1057 C1041 1.429 . S
C1057 C1053 1.429 . S
C1057 C1058 1.523 . S
C1058 C1042 1.368 . S
C1058 C1054 1.368 . S
C1058 C1057 1.523 . S
H1059 C1034 0.950 . S
H1060 C1036 0.950 . S
H1061 C1037 0.949 . S
H1062 C1039 0.950 . S
H1063 C1041 0.950 . S
C1064 C1065 1.349 . S
C1064 C1066 1.327 . S
C1064 H1089 0.950 . S
C1065 C1064 1.349 . S
C1065 C1081 1.349 . S
C1066 C1064 1.327 . S
C1066 C1085 1.429 . S
C1066 H1090 0.950 . S
C1067 C1084 1.574 . S
C1067 C1086 1.368 . S
C1067 H1091 0.949 . S
H1068 C1072 0.949 . S
C1069 C1070 1.349 . S
C1069 C1071 1.327 . S
C1069 H1092 0.950 . S
C1070 C1069 1.349 . S
C1070 C1082 1.349 . S
C1071 C1069 1.327 . S
C1071 C1087 1.429 . S
C1071 H1093 0.950 . S
C1072 H1068 0.949 . S
C1072 C1080 1.574 . S
C1072 C1088 1.368 . S
H1073 C1081 0.950 . S
H1074 C1079 0.950 . S
H1075 C1080 0.949 . S
H1076 C1082 0.950 1_655 S
H1077 C1083 0.950 . S
H1078 C1084 0.949 . S
C1079 H1074 0.950 . S
C1079 C1081 1.327 . S
C1079 C1085 1.429 . S
C1080 C1072 1.574 . S
C1080 H1075 0.949 . S
C1080 C1086 1.368 . S
C1081 C1065 1.349 . S
C1081 H1073 0.950 . S
C1081 C1079 1.327 . S
C1082 C1070 1.349 . S
C1082 H1076 0.950 1_455 S
C1082 C1083 1.327 . S
C1083 H1077 0.950 . S
C1083 C1082 1.327 . S
C1083 C1087 1.429 . S
C1084 C1067 1.574 . S
C1084 H1078 0.949 . S
C1084 C1088 1.368 . S
C1085 C1066 1.429 . S
C1085 C1079 1.429 . S
C1085 C1086 1.523 . S
C1086 C1067 1.368 . S
C1086 C1080 1.368 . S
C1086 C1085 1.523 . S
C1087 C1071 1.429 . S
C1087 C1083 1.429 . S
C1087 C1088 1.523 . S
C1088 C1072 1.368 . S
C1088 C1084 1.368 . S
C1088 C1087 1.523 . S
H1089 C1064 0.950 . S
H1090 C1066 0.950 . S
H1091 C1067 0.949 . S
H1092 C1069 0.950 . S
H1093 C1071 0.950 . S
C1094 C1095 1.349 . S
C1094 C1096 1.327 . S
C1094 H1119 0.950 . S
C1095 C1094 1.349 . S
C1095 C1111 1.349 . S
C1096 C1094 1.327 . S
C1096 C1115 1.429 . S
C1096 H1120 0.950 . S
C1097 C1114 1.574 . S
C1097 C1116 1.368 . S
C1097 H1121 0.949 . S
H1098 C1102 0.949 . S
C1099 C1100 1.349 . S
C1099 C1101 1.327 . S
C1099 H1122 0.950 . S
C1100 C1099 1.349 . S
C1100 C1112 1.349 . S
C1101 C1099 1.327 . S
C1101 C1117 1.429 . S
C1101 H1123 0.950 . S
C1102 H1098 0.949 . S
C1102 C1110 1.574 . S
C1102 C1118 1.368 . S
H1103 C1111 0.950 . S
H1104 C1109 0.950 . S
H1105 C1110 0.949 . S
H1106 C1112 0.950 . S
H1107 C1113 0.950 . S
H1108 C1114 0.949 . S
C1109 H1104 0.950 . S
C1109 C1111 1.327 . S
C1109 C1115 1.429 . S
C1110 C1102 1.574 . S
C1110 H1105 0.949 . S
C1110 C1116 1.368 . S
C1111 C1095 1.349 . S
C1111 H1103 0.950 . S
C1111 C1109 1.327 . S
C1112 C1100 1.349 . S
C1112 H1106 0.950 . S
C1112 C1113 1.327 . S
C1113 H1107 0.950 . S
C1113 C1112 1.327 . S
C1113 C1117 1.429 . S
C1114 C1097 1.574 . S
C1114 H1108 0.949 . S
C1114 C1118 1.368 . S
C1115 C1096 1.429 . S
C1115 C1109 1.429 . S
C1115 C1116 1.523 . S
C1116 C1097 1.368 . S
C1116 C1110 1.368 . S
C1116 C1115 1.523 . S
C1117 C1101 1.429 . S
C1117 C1113 1.429 . S
C1117 C1118 1.523 . S
C1118 C1102 1.368 . S
C1118 C1114 1.368 . S
C1118 C1117 1.523 . S
H1119 C1094 0.950 . S
H1120 C1096 0.950 . S
H1121 C1097 0.949 . S
H1122 C1099 0.950 . S
H1123 C1101 0.950 . S
C405 C21 1.706 . S
C410 C338 1.653 . S
C435 C61 1.518 . S
C440 C355 1.509 . S
C470 C378 1.120 . S
C465 C82 1.345 . S
C495 C135 1.908 . S
C500 C399 1.570 . S
C530 C358 1.844 . S
C525 C15 1.893 . S
C560 C335 1.756 . S
C555 C42 1.764 . S
C590 C397 1.264 . S
C585 C101 1.321 . S
C620 C376 1.407 . S
C615 C122 1.458 . S
C645 C2 1.888 . S
C650 C400 1.835 . S
C680 C357 1.297 . S
C675 C95 1.586 . S
C705 C141 1.788 . S
C710 C333 1.596 . S
C735 C55 1.526 . S
C740 C379 1.517 . S
C770 C337 1.682 . S
C765 C181 1.709 . S
C795 C202 1.256 . S
C800 C356 1.253 . S
C825 C255 1.468 . S
C830 C375 1.239 . S
C855 C295 1.776 . S
C860 C396 1.453 . S
C885 C175 1.847 . S
C890 C359 1.819 . S
C920 C334 1.868 . S
C915 C221 1.883 . S
C950 C398 1.066 . S
C945 C242 1.087 . S
C980 C377 1.613 . S
C975 C301 1.675 . S
C1005 C162 1.564 . S
C1010 C401 1.566 . S
C1040 C354 1.226 . S
C1035 C261 1.435 . S
C1070 C336 1.309 . S
C1065 C282 1.471 . S
C1095 C215 1.513 . S
C1100 C380 1.497 . S
