# Generated by pormake.
# Topology csq, (4,8)-cn, num edge types: 1
# Building blocks:
#     Node 0, Type 0, BuildingBlock: MUDLON_clean_sbu_0, # of connection points: 4
#     Node 1, Type 0, BuildingBlock: MUDLON_clean_sbu_0, # of connection points: 4
#     Node 2, Type 0, BuildingBlock: MUDLON_clean_sbu_0, # of connection points: 4
#     Node 3, Type 0, BuildingBlock: MUDLON_clean_sbu_0, # of connection points: 4
#     Node 4, Type 0, BuildingBlock: MUDLON_clean_sbu_0, # of connection points: 4
#     Node 5, Type 0, BuildingBlock: MUDLON_clean_sbu_0, # of connection points: 4
#     Node 6, Type 1, BuildingBlock: TAGTUT_clean_sbu_1, # of connection points: 8
#     Node 7, Type 1, BuildingBlock: TAGTUT_clean_sbu_1, # of connection points: 8
#     Node 8, Type 1, BuildingBlock: TAGTUT_clean_sbu_1, # of connection points: 8
#     Edge 9, Type (0, 1), BuildingBlock: AJUNOK_clean_linker_0, # of connection points: 2
#     Edge 10, Type (0, 1), BuildingBlock: AJUNOK_clean_linker_0, # of connection points: 2
#     Edge 11, Type (0, 1), BuildingBlock: AJUNOK_clean_linker_0, # of connection points: 2
#     Edge 12, Type (0, 1), BuildingBlock: AJUNOK_clean_linker_0, # of connection points: 2
#     Edge 13, Type (0, 1), BuildingBlock: AJUNOK_clean_linker_0, # of connection points: 2
#     Edge 14, Type (0, 1), BuildingBlock: AJUNOK_clean_linker_0, # of connection points: 2
#     Edge 15, Type (0, 1), BuildingBlock: AJUNOK_clean_linker_0, # of connection points: 2
#     Edge 16, Type (0, 1), BuildingBlock: AJUNOK_clean_linker_0, # of connection points: 2
#     Edge 17, Type (0, 1), BuildingBlock: AJUNOK_clean_linker_0, # of connection points: 2
#     Edge 18, Type (0, 1), BuildingBlock: AJUNOK_clean_linker_0, # of connection points: 2
#     Edge 19, Type (0, 1), BuildingBlock: AJUNOK_clean_linker_0, # of connection points: 2
#     Edge 20, Type (0, 1), BuildingBlock: AJUNOK_clean_linker_0, # of connection points: 2
#     Edge 21, Type (0, 1), BuildingBlock: AJUNOK_clean_linker_0, # of connection points: 2
#     Edge 22, Type (0, 1), BuildingBlock: AJUNOK_clean_linker_0, # of connection points: 2
#     Edge 23, Type (0, 1), BuildingBlock: AJUNOK_clean_linker_0, # of connection points: 2
#     Edge 24, Type (0, 1), BuildingBlock: AJUNOK_clean_linker_0, # of connection points: 2
#     Edge 25, Type (0, 1), BuildingBlock: AJUNOK_clean_linker_0, # of connection points: 2
#     Edge 26, Type (0, 1), BuildingBlock: AJUNOK_clean_linker_0, # of connection points: 2
#     Edge 27, Type (0, 1), BuildingBlock: AJUNOK_clean_linker_0, # of connection points: 2
#     Edge 28, Type (0, 1), BuildingBlock: AJUNOK_clean_linker_0, # of connection points: 2
#     Edge 29, Type (0, 1), BuildingBlock: AJUNOK_clean_linker_0, # of connection points: 2
#     Edge 30, Type (0, 1), BuildingBlock: AJUNOK_clean_linker_0, # of connection points: 2
#     Edge 31, Type (0, 1), BuildingBlock: AJUNOK_clean_linker_0, # of connection points: 2
#     Edge 32, Type (0, 1), BuildingBlock: AJUNOK_clean_linker_0, # of connection points: 2
# Relax obj value: 0.062
# Max RMSD: 0.133
# Mean RMSD: 0.096
data_MOF--net-csq--node1-MUDLON_clean_sbu_0--node2-TAGTUT_clean_sbu_1--edge1-AJUNOK_clean_linker_0
_symmetry_space_group_name_H-M    P1
_symmetry_Int_Tables_number       1
_symmetry_cell_setting            triclinic
loop_
_symmetry_equiv_pos_as_xyz
'x, y, z'
_cell_length_a     37.669213
_cell_length_b     37.623931
_cell_length_c     15.497484
_cell_angle_alpha  92.772391
_cell_angle_beta   93.014139
_cell_angle_gamma 120.02235
loop_
_atom_site_label
_atom_site_type_symbol
_atom_site_fract_x
_atom_site_fract_y
_atom_site_fract_z
_atom_type_partial_charge
Mg0 Mg 0.23303 0.46269 0.19426 0.0
C1 C 0.18188 0.45774 0.04673 0.0
O2 O 0.1631 0.42303 0.08391 0.0
C3 C 0.28181 0.47568 0.3557 0.0
O4 O 0.24854 0.43934 0.35569 0.0
C5 C 0.18508 0.47211 0.33166 0.0
O6 O 0.21984 0.50743 0.33716 0.0
O7 O 0.18026 0.44347 0.27561 0.0
O8 O 0.21573 0.48688 0.08431 0.0
O9 O 0.26135 0.4308 0.12595 0.0
C10 C 0.25895 0.42417 0.04344 0.0
O11 O 0.22855 0.42311 0.99605 0.0
O12 O 0.28461 0.49731 0.29249 0.0
Mg13 Mg 0.783 0.25102 0.17366 0.0
C14 C 0.84559 0.25616 0.05148 0.0
O15 O 0.81276 0.22639 0.00611 0.0
C16 C 0.74768 0.22932 0.34149 0.0
O17 O 0.73883 0.25732 0.31832 0.0
C18 C 0.82768 0.34234 0.20107 0.0
O19 O 0.8419 0.34306 0.12522 0.0
O20 O 0.79305 0.31161 0.21394 0.0
O21 O 0.84216 0.26667 0.12825 0.0
O22 O 0.73118 0.21006 0.07869 0.0
C23 C 0.72358 0.21316 0.99916 0.0
O24 O 0.74837 0.24688 0.96342 0.0
O25 O 0.76883 0.22027 0.29307 0.0
Mg26 Mg 0.52193 0.76486 0.0735 0.0
C27 C 0.56812 0.84982 0.16655 0.0
O28 O 0.5909 0.85289 0.10309 0.0
C29 C 0.54781 0.7179 0.96542 0.0
O30 O 0.58101 0.74828 0.00846 0.0
C31 C 0.54706 0.82646 0.93027 0.0
O32 O 0.57744 0.81875 0.93101 0.0
O33 O 0.51738 0.8062 0.97577 0.0
O34 O 0.53671 0.81534 0.17736 0.0
O35 O 0.52399 0.7221 0.17037 0.0
C36 C 0.55712 0.72529 0.2035 0.0
O37 O 0.59244 0.75801 0.19185 0.0
O38 O 0.51379 0.71692 0.97051 0.0
Mg39 Mg 0.77137 0.53688 0.09001 0.0
C40 C 0.74819 0.56374 0.92017 0.0
O41 O 0.77383 0.55443 0.88561 0.0
C42 C 0.81751 0.54392 0.24542 0.0
O43 O 0.79227 0.50494 0.21902 0.0
C44 C 0.72223 0.53167 0.23174 0.0
O45 O 0.74857 0.57073 0.22455 0.0
O46 O 0.72079 0.50488 0.17522 0.0
O47 O 0.74708 0.56524 1.00242 0.0
O48 O 0.8051 0.51375 0.01515 0.0
C49 C 0.79977 0.49483 0.94079 0.0
O50 O 0.76367 0.47786 0.8961 0.0
O51 O 0.81899 0.5711 0.1971 0.0
Mg52 Mg 0.24982 0.7673 0.12551 0.0
C53 C 0.18255 0.70045 0.02727 0.0
O54 O 0.17748 0.73256 0.03262 0.0
C55 C 0.30667 0.80973 0.28871 0.0
O56 O 0.27175 0.80424 0.3143 0.0
C57 C 0.19135 0.72772 0.24206 0.0
O58 O 0.21512 0.71152 0.23741 0.0
O59 O 0.20049 0.75985 0.20314 0.0
O60 O 0.21661 0.70482 0.0591 0.0
O61 O 0.26606 0.80521 0.0171 0.0
C62 C 0.28299 0.79378 0.96173 0.0
O63 O 0.28626 0.76127 0.97504 0.0
O64 O 0.30672 0.79438 0.21343 0.0
Mg65 Mg 0.48873 0.23617 0.22035 0.0
C66 C 0.48098 0.29037 0.34239 0.0
O67 O 0.51681 0.29386 0.36452 0.0
C68 C 0.46548 0.15533 0.14988 0.0
O69 O 0.50417 0.17239 0.18039 0.0
C70 C 0.53394 0.31736 0.13911 0.0
O71 O 0.54601 0.3331 0.21978 0.0
O72 O 0.51875 0.27873 0.12257 0.0
O73 O 0.45719 0.26321 0.2828 0.0
O74 O 0.51896 0.21931 0.32157 0.0
C75 C 0.49078 0.19605 0.36798 0.0
O76 O 0.45436 0.19252 0.35479 0.0
O77 O 0.44803 0.17677 0.15195 0.0
C78 C 0.96326 0.38143 0.85112 0.0
C79 C 0.08276 0.45728 0.76451 0.0
C80 C 0.05679 0.58113 0.78305 0.0
Mg81 Mg 0.99467 0.41068 0.67101 0.0
O82 O 0.98526 0.45298 0.71307 0.0
Mg83 Mg 0.01521 0.48418 0.82735 0.0
Mg84 Mg 0.00284 0.5006 0.64174 0.0
O85 O 0.0218 0.54826 0.56987 0.0
Mg86 Mg 0.02021 0.59611 0.60494 0.0
Mg87 Mg 0.994 0.51857 0.45442 0.0
C88 C 0.95015 0.42203 0.49725 0.0
C89 C 0.06135 0.49098 0.50062 0.0
O90 O 0.98042 0.41934 0.88246 0.0
O91 O 0.96403 0.37136 0.77121 0.0
O92 O 0.06911 0.47571 0.81093 0.0
O93 O 0.0604 0.43108 0.7008 0.0
O94 O 0.96068 0.39975 0.54065 0.0
O95 O 0.95984 0.45868 0.52596 0.0
C96 C 0.94143 0.50284 0.7847 0.0
O97 O 0.95026 0.50797 0.70513 0.0
O98 O 0.96159 0.49364 0.839 0.0
O99 O 0.03453 0.58171 0.39869 0.0
O100 O 0.05611 0.6324 0.50606 0.0
O101 O 0.94398 0.53532 0.46616 0.0
C102 C 0.05561 0.62002 0.42726 0.0
O103 O 0.95871 0.585 0.5706 0.0
O104 O 0.04888 0.60457 0.73765 0.0
C105 C 0.93477 0.55914 0.50828 0.0
O106 O 0.04581 0.54396 0.75569 0.0
O107 O 0.05369 0.4903 0.58071 0.0
O108 O 0.04327 0.50124 0.44352 0.0
C109 C 0.43977 0.02835 0.90411 0.0
C110 C 0.39563 0.9169 0.75825 0.0
C111 C 0.55796 0.9619 0.7476 0.0
Mg112 Mg 0.43149 0.00507 0.70732 0.0
O113 O 0.4848 0.01575 0.7366 0.0
Mg114 Mg 0.49426 0.98604 0.83035 0.0
Mg115 Mg 0.51659 0.00875 0.64646 0.0
O116 O 0.54883 0.00204 0.55811 0.0
Mg117 Mg 0.60293 0.01556 0.59206 0.0
Mg118 Mg 0.53955 0.03108 0.46283 0.0
C119 C 0.47846 0.0608 0.55392 0.0
C120 C 0.45245 0.94703 0.48091 0.0
O121 O 0.4633 0.01304 0.91631 0.0
O122 O 0.42555 0.02992 0.82838 0.0
O123 O 0.43047 0.92878 0.79977 0.0
O124 O 0.38942 0.9403 0.71032 0.0
O125 O 0.44665 0.0432 0.59735 0.0
O126 O 0.50816 0.05325 0.5631 0.0
C127 C 0.58167 0.06922 0.81024 0.0
O128 O 0.5743 0.06326 0.72725 0.0
O129 O 0.55637 0.04405 0.85963 0.0
O130 O 0.56942 0.00102 0.37982 0.0
O131 O 0.60793 0.9878 0.47505 0.0
O132 O 0.60303 0.08907 0.49454 0.0
C133 C 0.59199 0.98513 0.39832 0.0
O134 O 0.644 0.08085 0.59081 0.0
O135 O 0.59 0.97988 0.70519 0.0
C136 C 0.63732 0.10305 0.54022 0.0
O137 O 0.52608 0.96535 0.73063 0.0
O138 O 0.4587 0.95345 0.56421 0.0
O139 O 0.47799 0.97269 0.43278 0.0
C140 C 0.55559 0.59578 0.39634 0.0
C141 C 0.60814 0.5227 0.47472 0.0
C142 C 0.4609 0.40844 0.54186 0.0
Mg143 Mg 0.58146 0.57753 0.5755 0.0
O144 O 0.52525 0.53792 0.55813 0.0
Mg145 Mg 0.50856 0.49794 0.45329 0.0
Mg146 Mg 0.50422 0.49931 0.65083 0.0
O147 O 0.48578 0.46106 0.74398 0.0
Mg148 Mg 0.43804 0.4095 0.73881 0.0
Mg149 Mg 0.50312 0.49906 0.85145 0.0
C150 C 0.54875 0.58627 0.76225 0.0
C151 C 0.58863 0.52177 0.76971 0.0
O152 O 0.53045 0.55691 0.37705 0.0
O153 O 0.57798 0.61004 0.46864 0.0
O154 O 0.57095 0.50297 0.44195 0.0
O155 O 0.61955 0.5513 0.5361 0.0
O156 O 0.57605 0.59963 0.70662 0.0
O157 O 0.51648 0.55014 0.75293 0.0
C158 C 0.42746 0.49221 0.52836 0.0
O159 O 0.43936 0.49044 0.60668 0.0
O160 O 0.44841 0.49429 0.46491 0.0
O161 O 0.49777 0.44422 0.92719 0.0
O162 O 0.46147 0.38654 0.83741 0.0
O163 O 0.43435 0.47776 0.87338 0.0
C164 C 0.48413 0.4056 0.90761 0.0
O165 O 0.3912 0.41908 0.79273 0.0
O166 O 0.43847 0.39009 0.60323 0.0
C167 C 0.39781 0.44784 0.8501 0.0
O168 O 0.4888 0.44679 0.5509 0.0
O169 O 0.57146 0.51304 0.69182 0.0
O170 O 0.56824 0.51818 0.83481 0.0
C171 C 0.16219 0.49574 0.46078 0.0
C172 C 0.15171 0.46913 0.38432 0.0
C173 C 0.13231 0.50028 0.5032 0.0
C174 C 0.09088 0.4789 0.46985 0.0
H175 H 0.1941 0.51466 0.48614 0.0
H176 H 0.14214 0.52264 0.55887 0.0
S177 S 0.04623 0.40167 0.27906 0.0
N178 N 0.09597 0.41788 0.28331 0.0
N179 N 0.0401 0.42713 0.36128 0.0
C180 C 0.07957 0.45032 0.39695 0.0
C181 C 0.10985 0.44515 0.35474 0.0
C182 C 0.69073 0.20305 0.4387 0.0
C183 C 0.72606 0.20344 0.41176 0.0
C184 C 0.66393 0.17266 0.48929 0.0
C185 C 0.67194 0.14214 0.51677 0.0
H186 H 0.68179 0.22434 0.41511 0.0
H187 H 0.63524 0.1713 0.5018 0.0
S188 S 0.76446 0.13454 0.47896 0.0
N189 N 0.77071 0.17432 0.427 0.0
N190 N 0.72067 0.11761 0.52405 0.0
C191 C 0.70945 0.14495 0.49874 0.0
C192 C 0.73643 0.17548 0.44556 0.0
C193 C 0.59149 0.69749 0.29874 0.0
C194 C 0.55618 0.69098 0.24876 0.0
C195 C 0.59149 0.6659 0.34299 0.0
C196 C 0.55637 0.62627 0.33822 0.0
H197 H 0.61922 0.72749 0.30533 0.0
H198 H 0.61913 0.67286 0.38262 0.0
S199 S 0.45652 0.59232 0.21225 0.0
N200 N 0.48548 0.64117 0.19401 0.0
N201 N 0.48566 0.58185 0.27709 0.0
C202 C 0.52124 0.61884 0.28609 0.0
C203 C 0.52107 0.65118 0.24164 0.0
C204 C 0.83402 0.52216 0.38365 0.0
C205 C 0.8437 0.55379 0.32795 0.0
C206 C 0.86202 0.52616 0.45168 0.0
C207 C 0.90038 0.56225 0.4679 0.0
H208 H 0.8057 0.49281 0.37117 0.0
H209 H 0.85505 0.49957 0.48703 0.0
S210 S 0.93841 0.65653 0.35074 0.0
N211 N 0.89253 0.62431 0.30067 0.0
N212 N 0.94509 0.63197 0.42987 0.0
C213 C 0.90876 0.59573 0.419 0.0
C214 C 0.88038 0.59151 0.34864 0.0
C215 C 0.38034 0.86668 0.29895 0.0
C216 C 0.3456 0.84007 0.34051 0.0
C217 C 0.41462 0.90046 0.34551 0.0
C218 C 0.41602 0.90897 0.43603 0.0
H219 H 0.38033 0.86266 0.22925 0.0
H220 H 0.43999 0.92051 0.30929 0.0
S221 S 0.33456 0.84464 0.57623 0.0
N222 N 0.31568 0.82199 0.47769 0.0
N223 N 0.38047 0.88458 0.56563 0.0
C224 C 0.38231 0.88092 0.4788 0.0
C225 C 0.34709 0.84683 0.431 0.0
C226 C 0.50501 0.36247 0.39447 0.0
C227 C 0.47224 0.32182 0.37709 0.0
C228 C 0.49962 0.39227 0.43897 0.0
C229 C 0.46145 0.38213 0.46926 0.0
H230 H 0.53557 0.37095 0.37692 0.0
H231 H 0.52655 0.42223 0.45668 0.0
S232 S 0.36433 0.28175 0.42672 0.0
N233 N 0.3991 0.27424 0.38163 0.0
N234 N 0.38896 0.33025 0.46806 0.0
C235 C 0.42752 0.34256 0.44521 0.0
C236 C 0.43293 0.31231 0.39842 0.0
C237 C 0.51487 0.86419 0.86379 0.0
C238 C 0.55044 0.86261 0.88919 0.0
C239 C 0.51753 0.89787 0.82308 0.0
C240 C 0.55592 0.93133 0.80703 0.0
H241 H 0.48468 0.83866 0.87295 0.0
H242 H 0.48922 0.89669 0.80049 0.0
S243 S 0.65846 0.94559 0.87638 0.0
N244 N 0.62529 0.89973 0.9057 0.0
N245 N 0.63039 0.96312 0.83053 0.0
C246 C 0.59176 0.93133 0.8378 0.0
C247 C 0.58902 0.89692 0.87832 0.0
C248 C 0.69141 0.57897 0.9001 0.0
C249 C 0.71338 0.56145 0.86545 0.0
C250 C 0.65247 0.56848 0.86284 0.0
C251 C 0.63352 0.53965 0.7898 0.0
H252 H 0.70326 0.59906 0.95967 0.0
H253 H 0.63595 0.58125 0.895 0.0
S254 S 0.68093 0.49056 0.66447 0.0
N255 N 0.71588 0.51839 0.7457 0.0
N256 N 0.64192 0.49827 0.6767 0.0
C257 C 0.65666 0.52507 0.74896 0.0
C258 C 0.69681 0.53604 0.78669 0.0
C259 C 0.15672 0.63728 0.92397 0.0
C260 C 0.14872 0.66147 0.98283 0.0
C261 C 0.12509 0.60725 0.86443 0.0
C262 C 0.08481 0.60071 0.8624 0.0
H263 H 0.18801 0.64402 0.91878 0.0
H264 H 0.133 0.59187 0.81461 0.0
S265 S 0.04663 0.65019 0.01418 0.0
N266 N 0.0963 0.6721 0.04452 0.0
N267 N 0.03761 0.61664 0.93128 0.0
C268 C 0.07584 0.62194 0.92609 0.0
C269 C 0.10767 0.65206 0.98687 0.0
C270 C 0.42322 0.10775 0.02219 0.0
C271 C 0.44642 0.11485 0.1013 0.0
C272 C 0.41715 0.0762 0.96119 0.0
C273 C 0.43429 0.05106 0.97776 0.0
H274 H 0.41325 0.12902 1.00378 0.0
H275 H 0.40215 0.07409 0.89804 0.0
S276 S 0.48583 0.04975 0.1875 0.0
N277 N 0.47795 0.08894 0.2019 0.0
N278 N 0.46649 0.02931 0.08754 0.0
C279 C 0.45215 0.05422 0.06185 0.0
C280 C 0.45832 0.08637 0.12367 0.0
C281 C 0.28889 0.41436 0.90917 0.0
C282 C 0.29443 0.42718 0.99844 0.0
C283 C 0.32233 0.42161 0.86145 0.0
C284 C 0.36301 0.44293 0.90022 0.0
H285 H 0.25836 0.39886 0.87532 0.0
H286 H 0.31626 0.41077 0.79332 0.0
S287 S 0.39456 0.48124 0.13292 0.0
N288 N 0.34408 0.46079 0.12432 0.0
N289 N 0.40675 0.47498 0.03479 0.0
C290 C 0.36904 0.45549 0.98969 0.0
C291 C 0.33488 0.44741 0.03868 0.0
C292 C 0.88127 0.27783 0.91602 0.0
C293 C 0.88164 0.28495 0.00609 0.0
C294 C 0.90919 0.30855 0.8674 0.0
C295 C 0.93859 0.34786 0.9066 0.0
H296 H 0.85783 0.24906 0.88167 0.0
H297 H 0.90614 0.30192 0.79774 0.0
S298 S 0.95765 0.37977 0.1425 0.0
N299 N 0.91807 0.33232 0.13444 0.0
N300 N 0.96999 0.39029 0.04257 0.0
C301 C 0.94148 0.35436 0.99746 0.0
C302 C 0.91328 0.32283 0.04729 0.0
C303 C 0.83318 0.48357 0.8122 0.0
C304 C 0.83637 0.498 0.89989 0.0
C305 C 0.86775 0.48758 0.77224 0.0
C306 C 0.9068 0.50612 0.81856 0.0
H307 H 0.80369 0.46869 0.77413 0.0
H308 H 0.86352 0.47458 0.70604 0.0
S309 S 0.933 0.5519 0.04694 0.0
N310 N 0.88305 0.53364 0.02962 0.0
N311 N 0.94717 0.54127 0.95485 0.0
C312 C 0.91064 0.5219 0.90501 0.0
C313 C 0.87574 0.51778 0.94559 0.0
C314 C 0.33824 0.81729 0.86055 0.0
C315 C 0.30544 0.82017 0.89301 0.0
C316 C 0.36542 0.84676 0.8088 0.0
C317 C 0.3602 0.87958 0.78569 0.0
H318 H 0.34489 0.79383 0.88019 0.0
H319 H 0.39221 0.84535 0.79134 0.0
S320 S 0.27507 0.89696 0.84101 0.0
N321 N 0.26629 0.85551 0.88942 0.0
N322 N 0.31688 0.91049 0.79015 0.0
C323 C 0.32519 0.88049 0.81035 0.0
C324 C 0.29796 0.85092 0.86472 0.0
C325 C 0.53167 0.38034 0.10139 0.0
C326 C 0.52584 0.34124 0.07491 0.0
C327 C 0.51802 0.40078 0.04733 0.0
C328 C 0.49782 0.38303 0.96442 0.0
H329 H 0.54578 0.39492 0.16561 0.0
H330 H 0.52283 0.4305 0.07152 0.0
S331 S 0.47865 0.283 0.8603 0.0
N332 N 0.5012 0.28698 0.95731 0.0
N333 N 0.47549 0.32506 0.85598 0.0
C334 C 0.49316 0.34457 0.93582 0.0
C335 C 0.50726 0.32387 0.99077 0.0
C336 C 0.13734 0.42231 0.90932 0.0
C337 C 0.16551 0.4595 0.95865 0.0
C338 C 0.11519 0.42194 0.83335 0.0
C339 C 0.11987 0.45873 0.80477 0.0
H340 H 0.13036 0.39294 0.93225 0.0
H341 H 0.09072 0.39251 0.8034 0.0
S342 S 0.19644 0.56446 0.898 0.0
N343 N 0.20245 0.53421 0.9637 0.0
N344 N 0.16003 0.53348 0.82182 0.0
C345 C 0.15165 0.49617 0.84701 0.0
C346 C 0.17452 0.4966 0.9241 0.0
C347 C 0.66502 0.14033 0.9861 0.0
C348 C 0.68816 0.17726 0.94705 0.0
C349 C 0.63164 0.10572 0.94033 0.0
C350 C 0.61951 0.1061 0.85295 0.0
H351 H 0.67257 0.13789 0.05316 0.0
H352 H 0.61504 0.07837 0.97449 0.0
S353 S 0.66949 0.19492 0.71946 0.0
N354 N 0.69663 0.21198 0.81467 0.0
N355 N 0.63345 0.14679 0.72879 0.0
C356 C 0.64254 0.14257 0.81228 0.0
C357 C 0.67682 0.17811 0.85923 0.0
C358 C 0.51272 0.64615 0.89583 0.0
C359 C 0.54942 0.6835 0.9198 0.0
C360 C 0.51314 0.61326 0.85106 0.0
C361 C 0.55026 0.61676 0.82765 0.0
H362 H 0.48328 0.64239 0.91048 0.0
H363 H 0.4839 0.58583 0.83046 0.0
S364 S 0.65521 0.70598 0.88435 0.0
N365 N 0.62431 0.72065 0.92413 0.0
N366 N 0.62488 0.65871 0.83896 0.0
C367 C 0.58735 0.653 0.85543 0.0
C368 C 0.58699 0.68645 0.90164 0.0
C369 C 0.51454 0.14562 0.39748 0.0
C370 C 0.49462 0.1671 0.42358 0.0
C371 C 0.50962 0.11122 0.43973 0.0
C372 C 0.48436 0.09717 0.50875 0.0
H373 H 0.53228 0.1541 0.34159 0.0
H374 H 0.52461 0.09488 0.41661 0.0
S375 S 0.43179 0.14792 0.61045 0.0
N376 N 0.45322 0.17523 0.52864 0.0
N377 N 0.44397 0.11147 0.60811 0.0
C378 C 0.46654 0.12029 0.53833 0.0
C379 C 0.47173 0.15504 0.49579 0.0
C380 C 0.35713 0.51766 0.40016 0.0
C381 C 0.31791 0.48654 0.41767 0.0
C382 C 0.39258 0.52163 0.44351 0.0
C383 C 0.39031 0.49484 0.50634 0.0
H384 H 0.36071 0.53719 0.34827 0.0
H385 H 0.42217 0.54418 0.42335 0.0
S386 S 0.29539 0.41407 0.58933 0.0
N387 N 0.27889 0.43281 0.51283 0.0
N388 N 0.34617 0.44042 0.5933 0.0
C389 C 0.35159 0.46661 0.53134 0.0
C390 C 0.3152 0.46239 0.48705 0.0
C391 C 0.85472 0.34517 0.35396 0.0
C392 C 0.85806 0.36476 0.27709 0.0
C393 C 0.88546 0.36352 0.42321 0.0
C394 C 0.92052 0.40245 0.41915 0.0
H395 H 0.82866 0.31488 0.36017 0.0
H396 H 0.88134 0.34733 0.48115 0.0
S397 S 0.94433 0.46654 0.23238 0.0
N398 N 0.89938 0.4252 0.20095 0.0
N399 N 0.95717 0.45959 0.33104 0.0
C400 C 0.92423 0.42246 0.34292 0.0
C401 C 0.89302 0.40363 0.27198 0.0
C402 C 0.58315 0.88572 0.31221 0.0
C403 C 0.57807 0.88641 0.22255 0.0
C404 C 0.59046 0.91935 0.36773 0.0
C405 C 0.59168 0.95436 0.33549 0.0
H406 H 0.58104 0.85883 0.33964 0.0
H407 H 0.59303 0.91683 0.43685 0.0
S408 S 0.58109 0.97094 0.10398 0.0
N409 N 0.57649 0.92485 0.1022 0.0
N410 N 0.58831 0.98788 0.20748 0.0
C411 C 0.58733 0.95562 0.24536 0.0
C412 C 0.58104 0.92164 0.18855 0.0
C413 C 0.65298 0.49188 0.29035 0.0
C414 C 0.69502 0.52132 0.3039 0.0
C415 C 0.62548 0.48984 0.35076 0.0
C416 C 0.63894 0.51729 0.42695 0.0
H417 H 0.64074 0.47244 0.22998 0.0
H418 H 0.59299 0.4684 0.33422 0.0
S419 S 0.74783 0.59286 0.50175 0.0
N420 N 0.75004 0.5731 0.40606 0.0
N421 N 0.69859 0.56951 0.51877 0.0
C422 C 0.68159 0.54362 0.44531 0.0
C423 C 0.70951 0.54565 0.38388 0.0
C424 C 0.12807 0.66149 0.25179 0.0
C425 C 0.15165 0.70377 0.27799 0.0
C426 C 0.09481 0.63511 0.29645 0.0
C427 C 0.08444 0.64996 0.37033 0.0
H428 H 0.13663 0.64833 0.19862 0.0
H429 H 0.07899 0.60248 0.276 0.0
S430 S 0.13342 0.75968 0.45688 0.0
N431 N 0.16003 0.76048 0.37483 0.0
N432 N 0.09752 0.71096 0.46074 0.0
C433 C 0.10594 0.69292 0.39297 0.0
C434 C 0.13962 0.71986 0.34628 0.0
loop_
_geom_bond_atom_site_label_1
_geom_bond_atom_site_label_2
_geom_bond_distance
_geom_bond_site_symmetry_2
_ccdc_geom_bond_type
Mg0 O7 2.141 . S
Mg0 O8 2.048 . S
Mg0 O9 2.048 . S
Mg0 O12 2.141 . S
C1 O2 1.313 . S
C1 O8 1.195 . S
O2 C1 1.313 . S
C3 O4 1.245 . S
C3 O12 1.289 . S
O4 C3 1.245 . S
C5 O6 1.245 . S
C5 O7 1.289 . S
O6 C5 1.245 . S
O7 Mg0 2.141 . S
O7 C5 1.289 . S
O8 Mg0 2.048 . S
O8 C1 1.195 . S
O9 Mg0 2.048 . S
O9 C10 1.195 . S
C10 O9 1.195 . S
C10 O11 1.313 . S
O11 C10 1.313 . S
O12 Mg0 2.141 . S
O12 C3 1.289 . S
Mg13 O20 2.141 . S
Mg13 O21 2.048 . S
Mg13 O22 2.048 . S
Mg13 O25 2.141 . S
C14 O15 1.313 . S
C14 O21 1.195 . S
O15 C14 1.313 . S
C16 O17 1.245 . S
C16 O25 1.289 . S
O17 C16 1.245 . S
C18 O19 1.245 . S
C18 O20 1.289 . S
O19 C18 1.245 . S
O20 Mg13 2.141 . S
O20 C18 1.289 . S
O21 Mg13 2.048 . S
O21 C14 1.195 . S
O22 Mg13 2.048 . S
O22 C23 1.195 . S
C23 O22 1.195 . S
C23 O24 1.313 . S
O24 C23 1.313 . S
O25 Mg13 2.141 . S
O25 C16 1.289 . S
Mg26 O33 2.141 1_554 S
Mg26 O34 2.048 . S
Mg26 O35 2.048 . S
Mg26 O38 2.141 1_554 S
C27 O28 1.313 . S
C27 O34 1.195 . S
O28 C27 1.313 . S
C29 O30 1.245 . S
C29 O38 1.289 . S
O30 C29 1.245 . S
C31 O32 1.245 . S
C31 O33 1.289 . S
O32 C31 1.245 . S
O33 Mg26 2.141 1_556 S
O33 C31 1.289 . S
O34 Mg26 2.048 . S
O34 C27 1.195 . S
O35 Mg26 2.048 . S
O35 C36 1.195 . S
C36 O35 1.195 . S
C36 O37 1.313 . S
O37 C36 1.313 . S
O38 Mg26 2.141 1_556 S
O38 C29 1.289 . S
Mg39 O46 2.141 . S
Mg39 O47 2.048 1_554 S
Mg39 O48 2.048 . S
Mg39 O51 2.141 . S
C40 O41 1.313 . S
C40 O47 1.195 . S
O41 C40 1.313 . S
C42 O43 1.245 . S
C42 O51 1.289 . S
O43 C42 1.245 . S
C44 O45 1.245 . S
C44 O46 1.289 . S
O45 C44 1.245 . S
O46 Mg39 2.141 . S
O46 C44 1.289 . S
O47 Mg39 2.048 1_556 S
O47 C40 1.195 . S
O48 Mg39 2.048 . S
O48 C49 1.195 1_554 S
C49 O48 1.195 1_556 S
C49 O50 1.313 . S
O50 C49 1.313 . S
O51 Mg39 2.141 . S
O51 C42 1.289 . S
Mg52 O59 2.141 . S
Mg52 O60 2.048 . S
Mg52 O61 2.048 . S
Mg52 O64 2.141 . S
C53 O54 1.313 . S
C53 O60 1.195 1_556 S
O54 C53 1.313 . S
C55 O56 1.245 . S
C55 O64 1.289 . S
O56 C55 1.245 . S
C57 O58 1.245 . S
C57 O59 1.289 . S
O58 C57 1.245 . S
O59 Mg52 2.141 . S
O59 C57 1.289 . S
O60 Mg52 2.048 . S
O60 C53 1.195 1_554 S
O61 Mg52 2.048 . S
O61 C62 1.195 1_554 S
C62 O61 1.195 1_556 S
C62 O63 1.313 . S
O63 C62 1.313 . S
O64 Mg52 2.141 . S
O64 C55 1.289 . S
Mg65 O72 2.141 . S
Mg65 O73 2.048 . S
Mg65 O74 2.048 . S
Mg65 O77 2.141 . S
C66 O67 1.313 . S
C66 O73 1.195 . S
O67 C66 1.313 . S
C68 O69 1.245 . S
C68 O77 1.289 . S
O69 C68 1.245 . S
C70 O71 1.245 . S
C70 O72 1.289 . S
O71 C70 1.245 . S
O72 Mg65 2.141 . S
O72 C70 1.289 . S
O73 Mg65 2.048 . S
O73 C66 1.195 . S
O74 Mg65 2.048 . S
O74 C75 1.195 . S
C75 O74 1.195 . S
C75 O76 1.313 . S
O76 C75 1.313 . S
O77 Mg65 2.141 . S
O77 C68 1.289 . S
C78 O90 1.241 . S
C78 O91 1.280 . S
C79 O92 1.277 . S
C79 O93 1.245 . S
C80 O104 1.247 . S
C80 O106 1.289 . S
Mg81 O82 1.926 . S
Mg81 O91 1.984 . S
Mg81 O93 1.988 1_655 S
Mg81 O94 2.061 . S
O82 Mg81 1.926 . S
O82 Mg83 1.986 1_655 S
O82 Mg84 1.917 1_655 S
Mg83 O82 1.986 1_455 S
Mg83 O90 2.042 1_455 S
Mg83 O92 2.041 . S
Mg83 O98 2.038 1_455 S
Mg83 O106 2.238 . S
Mg84 O82 1.917 1_455 S
Mg84 O85 1.917 . S
Mg84 O95 2.106 1_455 S
Mg84 O97 2.079 1_455 S
Mg84 O106 2.106 . S
Mg84 O107 2.079 . S
O85 Mg84 1.917 . S
O85 Mg86 1.926 . S
O85 Mg87 1.986 . S
Mg86 O85 1.926 . S
Mg86 O100 1.984 . S
Mg86 O103 1.988 1_455 S
Mg86 O104 2.061 . S
Mg87 O85 1.986 . S
Mg87 O95 2.238 1_455 S
Mg87 O99 2.042 . S
Mg87 O101 2.041 1_455 S
Mg87 O108 2.038 . S
C88 O94 1.247 . S
C88 O95 1.289 . S
C89 O107 1.245 . S
C89 O108 1.274 . S
O90 C78 1.241 . S
O90 Mg83 2.042 1_655 S
O91 C78 1.280 . S
O91 Mg81 1.984 . S
O92 C79 1.277 . S
O92 Mg83 2.041 . S
O93 C79 1.245 . S
O93 Mg81 1.988 1_455 S
O94 Mg81 2.061 . S
O94 C88 1.247 . S
O95 Mg84 2.106 1_655 S
O95 Mg87 2.238 1_655 S
O95 C88 1.289 . S
C96 O97 1.245 . S
C96 O98 1.274 . S
O97 Mg84 2.079 1_655 S
O97 C96 1.245 . S
O98 Mg83 2.038 1_655 S
O98 C96 1.274 . S
O99 Mg87 2.042 . S
O99 C102 1.241 . S
O100 Mg86 1.984 . S
O100 C102 1.280 . S
O101 Mg87 2.041 1_655 S
O101 C105 1.277 . S
C102 O99 1.241 . S
C102 O100 1.280 . S
O103 Mg86 1.988 1_655 S
O103 C105 1.245 . S
O104 C80 1.247 . S
O104 Mg86 2.061 . S
C105 O101 1.277 . S
C105 O103 1.245 . S
O106 C80 1.289 . S
O106 Mg83 2.238 . S
O106 Mg84 2.106 . S
O107 Mg84 2.079 . S
O107 C89 1.245 . S
O108 Mg87 2.038 . S
O108 C89 1.274 . S
C109 O121 1.241 . S
C109 O122 1.280 . S
C110 O123 1.277 . S
C110 O124 1.245 . S
C111 O135 1.247 . S
C111 O137 1.289 . S
Mg112 O113 1.926 . S
Mg112 O122 1.984 . S
Mg112 O124 1.988 1_545 S
Mg112 O125 2.061 . S
O113 Mg112 1.926 . S
O113 Mg114 1.986 . S
O113 Mg115 1.917 . S
Mg114 O113 1.986 . S
Mg114 O121 2.042 . S
Mg114 O123 2.041 1_545 S
Mg114 O129 2.038 . S
Mg114 O137 2.238 1_545 S
Mg115 O113 1.917 . S
Mg115 O116 1.917 1_545 S
Mg115 O126 2.106 . S
Mg115 O128 2.079 . S
Mg115 O137 2.106 1_545 S
Mg115 O138 2.079 1_545 S
O116 Mg115 1.917 1_565 S
O116 Mg117 1.926 . S
O116 Mg118 1.986 1_565 S
Mg117 O116 1.926 . S
Mg117 O131 1.984 . S
Mg117 O134 1.988 1_565 S
Mg117 O135 2.061 . S
Mg118 O116 1.986 1_545 S
Mg118 O126 2.238 . S
Mg118 O130 2.042 1_545 S
Mg118 O132 2.041 . S
Mg118 O139 2.038 1_545 S
C119 O125 1.247 . S
C119 O126 1.289 . S
C120 O138 1.245 . S
C120 O139 1.274 . S
O121 C109 1.241 . S
O121 Mg114 2.042 . S
O122 C109 1.280 . S
O122 Mg112 1.984 . S
O123 C110 1.277 . S
O123 Mg114 2.041 1_565 S
O124 C110 1.245 . S
O124 Mg112 1.988 1_565 S
O125 Mg112 2.061 . S
O125 C119 1.247 . S
O126 Mg115 2.106 . S
O126 Mg118 2.238 . S
O126 C119 1.289 . S
C127 O128 1.245 . S
C127 O129 1.274 . S
O128 Mg115 2.079 . S
O128 C127 1.245 . S
O129 Mg114 2.038 . S
O129 C127 1.274 . S
O130 Mg118 2.042 1_565 S
O130 C133 1.241 . S
O131 Mg117 1.984 . S
O131 C133 1.280 . S
O132 Mg118 2.041 . S
O132 C136 1.277 . S
C133 O130 1.241 . S
C133 O131 1.280 . S
O134 Mg117 1.988 1_545 S
O134 C136 1.245 . S
O135 C111 1.247 . S
O135 Mg117 2.061 . S
C136 O132 1.277 . S
C136 O134 1.245 . S
O137 C111 1.289 . S
O137 Mg114 2.238 1_565 S
O137 Mg115 2.106 1_565 S
O138 Mg115 2.079 1_565 S
O138 C120 1.245 . S
O139 Mg118 2.038 1_565 S
O139 C120 1.274 . S
C140 O152 1.241 . S
C140 O153 1.280 . S
C141 O154 1.277 . S
C141 O155 1.245 . S
C142 O166 1.247 . S
C142 O168 1.289 . S
Mg143 O144 1.926 . S
Mg143 O153 1.984 . S
Mg143 O155 1.988 . S
Mg143 O156 2.061 . S
O144 Mg143 1.926 . S
O144 Mg145 1.986 . S
O144 Mg146 1.917 . S
Mg145 O144 1.986 . S
Mg145 O152 2.042 . S
Mg145 O154 2.041 . S
Mg145 O160 2.038 . S
Mg145 O168 2.238 . S
Mg146 O144 1.917 . S
Mg146 O147 1.917 . S
Mg146 O157 2.106 . S
Mg146 O159 2.079 . S
Mg146 O168 2.106 . S
Mg146 O169 2.079 . S
O147 Mg146 1.917 . S
O147 Mg148 1.926 . S
O147 Mg149 1.986 . S
Mg148 O147 1.926 . S
Mg148 O162 1.984 . S
Mg148 O165 1.988 . S
Mg148 O166 2.061 . S
Mg149 O147 1.986 . S
Mg149 O157 2.238 . S
Mg149 O161 2.042 . S
Mg149 O163 2.041 . S
Mg149 O170 2.038 . S
C150 O156 1.247 . S
C150 O157 1.289 . S
C151 O169 1.245 . S
C151 O170 1.274 . S
O152 C140 1.241 . S
O152 Mg145 2.042 . S
O153 C140 1.280 . S
O153 Mg143 1.984 . S
O154 C141 1.277 . S
O154 Mg145 2.041 . S
O155 C141 1.245 . S
O155 Mg143 1.988 . S
O156 Mg143 2.061 . S
O156 C150 1.247 . S
O157 Mg146 2.106 . S
O157 Mg149 2.238 . S
O157 C150 1.289 . S
C158 O159 1.245 . S
C158 O160 1.274 . S
O159 Mg146 2.079 . S
O159 C158 1.245 . S
O160 Mg145 2.038 . S
O160 C158 1.274 . S
O161 Mg149 2.042 . S
O161 C164 1.241 . S
O162 Mg148 1.984 . S
O162 C164 1.280 . S
O163 Mg149 2.041 . S
O163 C167 1.277 . S
C164 O161 1.241 . S
C164 O162 1.280 . S
O165 Mg148 1.988 . S
O165 C167 1.245 . S
O166 C142 1.247 . S
O166 Mg148 2.061 . S
C167 O163 1.277 . S
C167 O165 1.245 . S
O168 C142 1.289 . S
O168 Mg145 2.238 . S
O168 Mg146 2.106 . S
O169 Mg146 2.079 . S
O169 C151 1.245 . S
O170 Mg149 2.038 . S
O170 C151 1.274 . S
C171 C172 1.369 . S
C171 C173 1.419 . S
C171 H175 0.930 . S
C172 C171 1.369 . S
C172 C181 1.429 . S
C173 C171 1.419 . S
C173 C174 1.363 . S
C173 H176 0.929 . S
C174 C173 1.363 . S
C174 C180 1.428 . S
H175 C171 0.930 . S
H176 C173 0.929 . S
S177 N178 1.613 . S
S177 N179 1.610 . S
N178 S177 1.613 . S
N178 C181 1.350 . S
N179 S177 1.610 . S
N179 C180 1.351 . S
C180 C174 1.428 . S
C180 N179 1.351 . S
C180 C181 1.434 . S
C181 C172 1.429 . S
C181 N178 1.350 . S
C181 C180 1.434 . S
C182 C183 1.369 . S
C182 C184 1.419 . S
C182 H186 0.930 . S
C183 C182 1.369 . S
C183 C192 1.429 . S
C184 C182 1.419 . S
C184 C185 1.363 . S
C184 H187 0.929 . S
C185 C184 1.363 . S
C185 C191 1.428 . S
H186 C182 0.930 . S
H187 C184 0.929 . S
S188 N189 1.613 . S
S188 N190 1.610 . S
N189 S188 1.613 . S
N189 C192 1.350 . S
N190 S188 1.610 . S
N190 C191 1.351 . S
C191 C185 1.428 . S
C191 N190 1.351 . S
C191 C192 1.434 . S
C192 C183 1.429 . S
C192 N189 1.350 . S
C192 C191 1.434 . S
C193 C194 1.369 . S
C193 C195 1.419 . S
C193 H197 0.930 . S
C194 C193 1.369 . S
C194 C203 1.429 . S
C195 C193 1.419 . S
C195 C196 1.363 . S
C195 H198 0.929 . S
C196 C195 1.363 . S
C196 C202 1.428 . S
H197 C193 0.930 . S
H198 C195 0.929 . S
S199 N200 1.613 . S
S199 N201 1.610 . S
N200 S199 1.613 . S
N200 C203 1.350 . S
N201 S199 1.610 . S
N201 C202 1.351 . S
C202 C196 1.428 . S
C202 N201 1.351 . S
C202 C203 1.434 . S
C203 C194 1.429 . S
C203 N200 1.350 . S
C203 C202 1.434 . S
C204 C205 1.369 . S
C204 C206 1.419 . S
C204 H208 0.930 . S
C205 C204 1.369 . S
C205 C214 1.429 . S
C206 C204 1.419 . S
C206 C207 1.363 . S
C206 H209 0.929 . S
C207 C206 1.363 . S
C207 C213 1.428 . S
H208 C204 0.930 . S
H209 C206 0.929 . S
S210 N211 1.613 . S
S210 N212 1.610 . S
N211 S210 1.613 . S
N211 C214 1.350 . S
N212 S210 1.610 . S
N212 C213 1.351 . S
C213 C207 1.428 . S
C213 N212 1.351 . S
C213 C214 1.434 . S
C214 C205 1.429 . S
C214 N211 1.350 . S
C214 C213 1.434 . S
C215 C216 1.369 . S
C215 C217 1.419 . S
C215 H219 0.930 . S
C216 C215 1.369 . S
C216 C225 1.429 . S
C217 C215 1.419 . S
C217 C218 1.363 . S
C217 H220 0.929 . S
C218 C217 1.363 . S
C218 C224 1.428 . S
H219 C215 0.930 . S
H220 C217 0.929 . S
S221 N222 1.613 . S
S221 N223 1.610 . S
N222 S221 1.613 . S
N222 C225 1.350 . S
N223 S221 1.610 . S
N223 C224 1.351 . S
C224 C218 1.428 . S
C224 N223 1.351 . S
C224 C225 1.434 . S
C225 C216 1.429 . S
C225 N222 1.350 . S
C225 C224 1.434 . S
C226 C227 1.369 . S
C226 C228 1.419 . S
C226 H230 0.930 . S
C227 C226 1.369 . S
C227 C236 1.429 . S
C228 C226 1.419 . S
C228 C229 1.363 . S
C228 H231 0.929 . S
C229 C228 1.363 . S
C229 C235 1.428 . S
H230 C226 0.930 . S
H231 C228 0.929 . S
S232 N233 1.613 . S
S232 N234 1.610 . S
N233 S232 1.613 . S
N233 C236 1.350 . S
N234 S232 1.610 . S
N234 C235 1.351 . S
C235 C229 1.428 . S
C235 N234 1.351 . S
C235 C236 1.434 . S
C236 C227 1.429 . S
C236 N233 1.350 . S
C236 C235 1.434 . S
C237 C238 1.369 . S
C237 C239 1.419 . S
C237 H241 0.930 . S
C238 C237 1.369 . S
C238 C247 1.429 . S
C239 C237 1.419 . S
C239 C240 1.363 . S
C239 H242 0.929 . S
C240 C239 1.363 . S
C240 C246 1.428 . S
H241 C237 0.930 . S
H242 C239 0.929 . S
S243 N244 1.613 . S
S243 N245 1.610 . S
N244 S243 1.613 . S
N244 C247 1.350 . S
N245 S243 1.610 . S
N245 C246 1.351 . S
C246 C240 1.428 . S
C246 N245 1.351 . S
C246 C247 1.434 . S
C247 C238 1.429 . S
C247 N244 1.350 . S
C247 C246 1.434 . S
C248 C249 1.369 . S
C248 C250 1.419 . S
C248 H252 0.930 . S
C249 C248 1.369 . S
C249 C258 1.429 . S
C250 C248 1.419 . S
C250 C251 1.363 . S
C250 H253 0.929 . S
C251 C250 1.363 . S
C251 C257 1.428 . S
H252 C248 0.930 . S
H253 C250 0.929 . S
S254 N255 1.613 . S
S254 N256 1.610 . S
N255 S254 1.613 . S
N255 C258 1.350 . S
N256 S254 1.610 . S
N256 C257 1.351 . S
C257 C251 1.428 . S
C257 N256 1.351 . S
C257 C258 1.434 . S
C258 C249 1.429 . S
C258 N255 1.350 . S
C258 C257 1.434 . S
C259 C260 1.369 . S
C259 C261 1.419 . S
C259 H263 0.930 . S
C260 C259 1.369 . S
C260 C269 1.429 . S
C261 C259 1.419 . S
C261 C262 1.363 . S
C261 H264 0.929 . S
C262 C261 1.363 . S
C262 C268 1.428 . S
H263 C259 0.930 . S
H264 C261 0.929 . S
S265 N266 1.613 . S
S265 N267 1.610 1_554 S
N266 S265 1.613 . S
N266 C269 1.350 1_554 S
N267 S265 1.610 1_556 S
N267 C268 1.351 . S
C268 C262 1.428 . S
C268 N267 1.351 . S
C268 C269 1.434 . S
C269 C260 1.429 . S
C269 N266 1.350 1_556 S
C269 C268 1.434 . S
C270 C271 1.369 . S
C270 C272 1.419 1_554 S
C270 H274 0.930 1_554 S
C271 C270 1.369 . S
C271 C280 1.429 . S
C272 C270 1.419 1_556 S
C272 C273 1.363 . S
C272 H275 0.929 . S
C273 C272 1.363 . S
C273 C279 1.428 1_556 S
H274 C270 0.930 1_556 S
H275 C272 0.929 . S
S276 N277 1.613 . S
S276 N278 1.610 . S
N277 S276 1.613 . S
N277 C280 1.350 . S
N278 S276 1.610 . S
N278 C279 1.351 . S
C279 C273 1.428 1_554 S
C279 N278 1.351 . S
C279 C280 1.434 . S
C280 C271 1.429 . S
C280 N277 1.350 . S
C280 C279 1.434 . S
C281 C282 1.369 . S
C281 C283 1.419 . S
C281 H285 0.930 . S
C282 C281 1.369 . S
C282 C291 1.429 . S
C283 C281 1.419 . S
C283 C284 1.363 . S
C283 H286 0.929 . S
C284 C283 1.363 . S
C284 C290 1.428 . S
H285 C281 0.930 . S
H286 C283 0.929 . S
S287 N288 1.613 . S
S287 N289 1.610 1_554 S
N288 S287 1.613 . S
N288 C291 1.350 1_554 S
N289 S287 1.610 1_556 S
N289 C290 1.351 . S
C290 C284 1.428 . S
C290 N289 1.351 . S
C290 C291 1.434 . S
C291 C282 1.429 . S
C291 N288 1.350 1_556 S
C291 C290 1.434 . S
C292 C293 1.369 . S
C292 C294 1.419 . S
C292 H296 0.930 . S
C293 C292 1.369 . S
C293 C302 1.429 1_556 S
C294 C292 1.419 . S
C294 C295 1.363 . S
C294 H297 0.929 . S
C295 C294 1.363 . S
C295 C301 1.428 . S
H296 C292 0.930 . S
H297 C294 0.929 . S
S298 N299 1.613 . S
S298 N300 1.610 . S
N299 S298 1.613 . S
N299 C302 1.350 . S
N300 S298 1.610 . S
N300 C301 1.351 1_554 S
C301 C295 1.428 . S
C301 N300 1.351 1_556 S
C301 C302 1.434 1_556 S
C302 C293 1.429 1_554 S
C302 N299 1.350 . S
C302 C301 1.434 1_554 S
C303 C304 1.369 . S
C303 C305 1.419 . S
C303 H307 0.930 . S
C304 C303 1.369 . S
C304 C313 1.429 . S
C305 C303 1.419 . S
C305 C306 1.363 . S
C305 H308 0.929 . S
C306 C305 1.363 . S
C306 C312 1.428 . S
H307 C303 0.930 . S
H308 C305 0.929 . S
S309 N310 1.613 . S
S309 N311 1.610 . S
N310 S309 1.613 . S
N310 C313 1.350 . S
N311 S309 1.610 . S
N311 C312 1.351 . S
C312 C306 1.428 . S
C312 N311 1.351 . S
C312 C313 1.434 . S
C313 C304 1.429 . S
C313 N310 1.350 . S
C313 C312 1.434 . S
C314 C315 1.369 . S
C314 C316 1.419 . S
C314 H318 0.930 1_556 S
C315 C314 1.369 . S
C315 C324 1.429 . S
C316 C314 1.419 . S
C316 C317 1.363 . S
C316 H319 0.929 . S
C317 C316 1.363 . S
C317 C323 1.428 . S
H318 C314 0.930 1_554 S
H319 C316 0.929 . S
S320 N321 1.613 . S
S320 N322 1.610 . S
N321 S320 1.613 . S
N321 C324 1.350 . S
N322 S320 1.610 . S
N322 C323 1.351 . S
C323 C317 1.428 . S
C323 N322 1.351 . S
C323 C324 1.434 . S
C324 C315 1.429 . S
C324 N321 1.350 . S
C324 C323 1.434 . S
C325 C326 1.369 . S
C325 C327 1.419 . S
C325 H329 0.930 . S
C326 C325 1.369 . S
C326 C335 1.429 1_554 S
C327 C325 1.419 . S
C327 C328 1.363 1_554 S
C327 H330 0.929 . S
C328 C327 1.363 1_556 S
C328 C334 1.428 . S
H329 C325 0.930 . S
H330 C327 0.929 . S
S331 N332 1.613 . S
S331 N333 1.610 . S
N332 S331 1.613 . S
N332 C335 1.350 . S
N333 S331 1.610 . S
N333 C334 1.351 . S
C334 C328 1.428 . S
C334 N333 1.351 . S
C334 C335 1.434 . S
C335 C326 1.429 1_556 S
C335 N332 1.350 . S
C335 C334 1.434 . S
C336 C337 1.369 1_556 S
C336 C338 1.419 . S
C336 H340 0.930 1_556 S
C337 C336 1.369 1_554 S
C337 C346 1.429 1_554 S
C338 C336 1.419 . S
C338 C339 1.363 . S
C338 H341 0.929 . S
C339 C338 1.363 . S
C339 C345 1.428 . S
H340 C336 0.930 1_554 S
H341 C338 0.929 . S
S342 N343 1.613 . S
S342 N344 1.610 . S
N343 S342 1.613 . S
N343 C346 1.350 . S
N344 S342 1.610 . S
N344 C345 1.351 . S
C345 C339 1.428 . S
C345 N344 1.351 . S
C345 C346 1.434 . S
C346 C337 1.429 1_556 S
C346 N343 1.350 . S
C346 C345 1.434 . S
C347 C348 1.369 . S
C347 C349 1.419 . S
C347 H351 0.930 1_556 S
C348 C347 1.369 . S
C348 C357 1.429 . S
C349 C347 1.419 . S
C349 C350 1.363 . S
C349 H352 0.929 . S
C350 C349 1.363 . S
C350 C356 1.428 . S
H351 C347 0.930 1_554 S
H352 C349 0.929 . S
S353 N354 1.613 . S
S353 N355 1.610 . S
N354 S353 1.613 . S
N354 C357 1.350 . S
N355 S353 1.610 . S
N355 C356 1.351 . S
C356 C350 1.428 . S
C356 N355 1.351 . S
C356 C357 1.434 . S
C357 C348 1.429 . S
C357 N354 1.350 . S
C357 C356 1.434 . S
C358 C359 1.369 . S
C358 C360 1.419 . S
C358 H362 0.930 . S
C359 C358 1.369 . S
C359 C368 1.429 . S
C360 C358 1.419 . S
C360 C361 1.363 . S
C360 H363 0.929 . S
C361 C360 1.363 . S
C361 C367 1.428 . S
H362 C358 0.930 . S
H363 C360 0.929 . S
S364 N365 1.613 . S
S364 N366 1.610 . S
N365 S364 1.613 . S
N365 C368 1.350 . S
N366 S364 1.610 . S
N366 C367 1.351 . S
C367 C361 1.428 . S
C367 N366 1.351 . S
C367 C368 1.434 . S
C368 C359 1.429 . S
C368 N365 1.350 . S
C368 C367 1.434 . S
C369 C370 1.369 . S
C369 C371 1.419 . S
C369 H373 0.930 . S
C370 C369 1.369 . S
C370 C379 1.429 . S
C371 C369 1.419 . S
C371 C372 1.363 . S
C371 H374 0.929 . S
C372 C371 1.363 . S
C372 C378 1.428 . S
H373 C369 0.930 . S
H374 C371 0.929 . S
S375 N376 1.613 . S
S375 N377 1.610 . S
N376 S375 1.613 . S
N376 C379 1.350 . S
N377 S375 1.610 . S
N377 C378 1.351 . S
C378 C372 1.428 . S
C378 N377 1.351 . S
C378 C379 1.434 . S
C379 C370 1.429 . S
C379 N376 1.350 . S
C379 C378 1.434 . S
C380 C381 1.369 . S
C380 C382 1.419 . S
C380 H384 0.930 . S
C381 C380 1.369 . S
C381 C390 1.429 . S
C382 C380 1.419 . S
C382 C383 1.363 . S
C382 H385 0.929 . S
C383 C382 1.363 . S
C383 C389 1.428 . S
H384 C380 0.930 . S
H385 C382 0.929 . S
S386 N387 1.613 . S
S386 N388 1.610 . S
N387 S386 1.613 . S
N387 C390 1.350 . S
N388 S386 1.610 . S
N388 C389 1.351 . S
C389 C383 1.428 . S
C389 N388 1.351 . S
C389 C390 1.434 . S
C390 C381 1.429 . S
C390 N387 1.350 . S
C390 C389 1.434 . S
C391 C392 1.369 . S
C391 C393 1.419 . S
C391 H395 0.930 . S
C392 C391 1.369 . S
C392 C401 1.429 . S
C393 C391 1.419 . S
C393 C394 1.363 . S
C393 H396 0.929 . S
C394 C393 1.363 . S
C394 C400 1.428 . S
H395 C391 0.930 . S
H396 C393 0.929 . S
S397 N398 1.613 . S
S397 N399 1.610 . S
N398 S397 1.613 . S
N398 C401 1.350 . S
N399 S397 1.610 . S
N399 C400 1.351 . S
C400 C394 1.428 . S
C400 N399 1.351 . S
C400 C401 1.434 . S
C401 C392 1.429 . S
C401 N398 1.350 . S
C401 C400 1.434 . S
C402 C403 1.369 . S
C402 C404 1.419 . S
C402 H406 0.930 . S
C403 C402 1.369 . S
C403 C412 1.429 . S
C404 C402 1.419 . S
C404 C405 1.363 . S
C404 H407 0.929 . S
C405 C404 1.363 . S
C405 C411 1.428 . S
H406 C402 0.930 . S
H407 C404 0.929 . S
S408 N409 1.613 . S
S408 N410 1.610 . S
N409 S408 1.613 . S
N409 C412 1.350 . S
N410 S408 1.610 . S
N410 C411 1.351 . S
C411 C405 1.428 . S
C411 N410 1.351 . S
C411 C412 1.434 . S
C412 C403 1.429 . S
C412 N409 1.350 . S
C412 C411 1.434 . S
C413 C414 1.369 . S
C413 C415 1.419 . S
C413 H417 0.930 . S
C414 C413 1.369 . S
C414 C423 1.429 . S
C415 C413 1.419 . S
C415 C416 1.363 . S
C415 H418 0.929 . S
C416 C415 1.363 . S
C416 C422 1.428 . S
H417 C413 0.930 . S
H418 C415 0.929 . S
S419 N420 1.613 . S
S419 N421 1.610 . S
N420 S419 1.613 . S
N420 C423 1.350 . S
N421 S419 1.610 . S
N421 C422 1.351 . S
C422 C416 1.428 . S
C422 N421 1.351 . S
C422 C423 1.434 . S
C423 C414 1.429 . S
C423 N420 1.350 . S
C423 C422 1.434 . S
C424 C425 1.369 . S
C424 C426 1.419 . S
C424 H428 0.930 . S
C425 C424 1.369 . S
C425 C434 1.429 . S
C426 C424 1.419 . S
C426 C427 1.363 . S
C426 H429 0.929 . S
C427 C426 1.363 . S
C427 C433 1.428 . S
H428 C424 0.930 . S
H429 C426 0.929 . S
S430 N431 1.613 . S
S430 N432 1.610 . S
N431 S430 1.613 . S
N431 C434 1.350 . S
N432 S430 1.610 . S
N432 C433 1.351 . S
C433 C427 1.428 . S
C433 N432 1.351 . S
C433 C434 1.434 . S
C434 C425 1.429 . S
C434 N431 1.350 . S
C434 C433 1.434 . S
C172 C5 1.792 . S
C174 C89 1.686 . S
C183 C16 1.464 . S
C185 C136 1.448 . S
C196 C140 1.640 . S
C194 C36 1.711 . S
C207 C105 1.379 . S
C205 C42 1.410 . S
C216 C55 1.676 . S
C218 C120 1.640 . S
C229 C142 1.131 . S
C227 C66 1.158 . S
C240 C111 1.406 . S
C238 C31 1.481 . S
C249 C40 1.424 . S
C251 C151 1.416 . S
C262 C80 1.414 . S
C260 C53 1.448 . S
C271 C68 1.311 . S
C273 C109 1.299 . S
C282 C10 1.808 1_556 S
C284 C167 1.742 . S
C295 C78 1.430 . S
C293 C14 1.443 1_556 S
C306 C96 1.765 . S
C304 C49 1.807 . S
C317 C110 1.517 . S
C315 C62 1.533 . S
C328 C164 1.583 . S
C326 C70 1.620 . S
C339 C79 1.439 . S
C337 C1 1.486 . S
C350 C127 1.700 . S
C348 C23 1.743 1_556 S
C359 C29 1.106 . S
C361 C150 1.060 . S
C372 C119 1.485 . S
C370 C75 1.517 . S
C383 C158 1.339 . S
C381 C3 1.408 . S
C394 C88 1.355 . S
C392 C18 1.377 . S
C405 C133 1.349 . S
C403 C27 1.401 . S
C414 C44 1.725 . S
C416 C141 1.689 . S
C425 C57 1.373 . S
C427 C102 1.364 . S
