# Generated by pormake.
# Topology zzz, (3,6)-cn, num edge types: 1
# Building blocks:
#     Node 0, Type 0, BuildingBlock: WUSLED_clean_sbu_0, # of connection points: 3
#     Node 1, Type 0, BuildingBlock: WUSLED_clean_sbu_0, # of connection points: 3
#     Node 2, Type 0, BuildingBlock: WUSLED_clean_sbu_0, # of connection points: 3
#     Node 3, Type 0, BuildingBlock: WUSLED_clean_sbu_0, # of connection points: 3
#     Node 4, Type 0, BuildingBlock: WUSLED_clean_sbu_0, # of connection points: 3
#     Node 5, Type 0, BuildingBlock: WUSLED_clean_sbu_0, # of connection points: 3
#     Node 6, Type 0, BuildingBlock: WUSLED_clean_sbu_0, # of connection points: 3
#     Node 7, Type 0, BuildingBlock: WUSLED_clean_sbu_0, # of connection points: 3
#     Node 8, Type 1, BuildingBlock: MIFKUJ_clean_sbu_0, # of connection points: 6
#     Node 9, Type 1, BuildingBlock: MIFKUJ_clean_sbu_0, # of connection points: 6
#     Node 10, Type 1, BuildingBlock: MIFKUJ_clean_sbu_0, # of connection points: 6
#     Node 11, Type 1, BuildingBlock: MIFKUJ_clean_sbu_0, # of connection points: 6
#     Edge 12, Type (0, 1), BuildingBlock: KIFKEQ_clean_linker_1, # of connection points: 2
#     Edge 13, Type (0, 1), BuildingBlock: KIFKEQ_clean_linker_1, # of connection points: 2
#     Edge 14, Type (0, 1), BuildingBlock: KIFKEQ_clean_linker_1, # of connection points: 2
#     Edge 15, Type (0, 1), BuildingBlock: KIFKEQ_clean_linker_1, # of connection points: 2
#     Edge 16, Type (0, 1), BuildingBlock: KIFKEQ_clean_linker_1, # of connection points: 2
#     Edge 17, Type (0, 1), BuildingBlock: KIFKEQ_clean_linker_1, # of connection points: 2
#     Edge 18, Type (0, 1), BuildingBlock: KIFKEQ_clean_linker_1, # of connection points: 2
#     Edge 19, Type (0, 1), BuildingBlock: KIFKEQ_clean_linker_1, # of connection points: 2
#     Edge 20, Type (0, 1), BuildingBlock: KIFKEQ_clean_linker_1, # of connection points: 2
#     Edge 21, Type (0, 1), BuildingBlock: KIFKEQ_clean_linker_1, # of connection points: 2
#     Edge 22, Type (0, 1), BuildingBlock: KIFKEQ_clean_linker_1, # of connection points: 2
#     Edge 23, Type (0, 1), BuildingBlock: KIFKEQ_clean_linker_1, # of connection points: 2
#     Edge 24, Type (0, 1), BuildingBlock: KIFKEQ_clean_linker_1, # of connection points: 2
#     Edge 25, Type (0, 1), BuildingBlock: KIFKEQ_clean_linker_1, # of connection points: 2
#     Edge 26, Type (0, 1), BuildingBlock: KIFKEQ_clean_linker_1, # of connection points: 2
#     Edge 27, Type (0, 1), BuildingBlock: KIFKEQ_clean_linker_1, # of connection points: 2
#     Edge 28, Type (0, 1), BuildingBlock: KIFKEQ_clean_linker_1, # of connection points: 2
#     Edge 29, Type (0, 1), BuildingBlock: KIFKEQ_clean_linker_1, # of connection points: 2
#     Edge 30, Type (0, 1), BuildingBlock: KIFKEQ_clean_linker_1, # of connection points: 2
#     Edge 31, Type (0, 1), BuildingBlock: KIFKEQ_clean_linker_1, # of connection points: 2
#     Edge 32, Type (0, 1), BuildingBlock: KIFKEQ_clean_linker_1, # of connection points: 2
#     Edge 33, Type (0, 1), BuildingBlock: KIFKEQ_clean_linker_1, # of connection points: 2
#     Edge 34, Type (0, 1), BuildingBlock: KIFKEQ_clean_linker_1, # of connection points: 2
#     Edge 35, Type (0, 1), BuildingBlock: KIFKEQ_clean_linker_1, # of connection points: 2
# Relax obj value: 0.290
# Max RMSD: 0.206
# Mean RMSD: 0.186
data_MOF--net-zzz--node1-WUSLED_clean_sbu_0--node2-MIFKUJ_clean_sbu_0--edge1-KIFKEQ_clean_linker_1
_symmetry_space_group_name_H-M    P1
_symmetry_Int_Tables_number       1
_symmetry_cell_setting            triclinic
loop_
_symmetry_equiv_pos_as_xyz
'x, y, z'
_cell_length_a     63.600386
_cell_length_b     61.511015
_cell_length_c     22.997656
_cell_angle_alpha  89.857039
_cell_angle_beta   90.313362
_cell_angle_gamma 89.30244
loop_
_atom_site_label
_atom_site_type_symbol
_atom_site_fract_x
_atom_site_fract_y
_atom_site_fract_z
_atom_type_partial_charge
C0 C 0.77584 0.46472 0.215 0.0
C1 C 0.79529 0.46057 0.18871 0.0
C2 C 0.81345 0.47146 0.27783 0.0
C3 C 0.81397 0.46384 0.21998 0.0
C4 C 0.79379 0.47539 0.30372 0.0
C5 C 0.77523 0.47198 0.27264 0.0
U6 U 0.73794 0.46017 0.08072 0.0
O7 O 0.70744 0.47715 0.07777 0.0
O8 O 0.70855 0.44151 0.07644 0.0
C9 C 0.69675 0.45915 0.07225 0.0
C10 C 0.75579 0.46238 0.18382 0.0
C11 C 0.68084 0.45951 0.0257 0.0
C12 C 0.64402 0.45892 0.99775 0.0
C13 C 0.65973 0.45636 0.03998 0.0
C14 C 0.67046 0.46722 0.92583 0.0
C15 C 0.64913 0.4648 0.94038 0.0
C16 C 0.68619 0.46461 0.96819 0.0
C17 C 0.78137 0.46117 0.96057 0.0
C18 C 0.80391 0.45698 0.87632 0.0
C19 C 0.81862 0.46925 0.96775 0.0
C20 C 0.79873 0.46786 0.99358 0.0
C21 C 0.8214 0.46394 0.90863 0.0
C22 C 0.78415 0.45562 0.90206 0.0
C23 C 0.75996 0.46053 0.98436 0.0
O24 O 0.74927 0.47952 0.15437 0.0
O25 O 0.75234 0.4439 0.15692 0.0
O26 O 0.75459 0.44256 0.01117 0.0
O27 O 0.7529 0.47827 0.00981 0.0
H28 H 0.79603 0.45492 0.14418 0.0
H29 H 0.82879 0.46031 0.19888 0.0
H30 H 0.79268 0.48156 0.34765 0.0
H31 H 0.7603 0.47534 0.29351 0.0
H32 H 0.62782 0.45651 0.01025 0.0
H33 H 0.65534 0.45241 0.08419 0.0
H34 H 0.67495 0.47188 0.88224 0.0
H35 H 0.70246 0.46717 0.95651 0.0
H36 H 0.80535 0.45312 0.83058 0.0
H37 H 0.8318 0.47449 0.99398 0.0
H38 H 0.79686 0.4722 0.03889 0.0
H39 H 0.77088 0.45055 0.87583 0.0
C40 C 0.92843 0.78323 0.19644 0.0
C41 C 0.93594 0.80222 0.17018 0.0
C42 C 0.93463 0.82107 0.26364 0.0
C43 C 0.93889 0.82107 0.20352 0.0
C44 C 0.92642 0.80218 0.28891 0.0
C45 C 0.92334 0.78352 0.25565 0.0
U46 U 0.92752 0.74099 0.06699 0.0
O47 O 0.91054 0.70996 0.06646 0.0
O48 O 0.94495 0.71002 0.07295 0.0
C49 C 0.92802 0.69831 0.06606 0.0
C50 C 0.92771 0.76219 0.16608 0.0
C51 C 0.92977 0.68152 0.02093 0.0
C52 C 0.94075 0.64503 0.99401 0.0
C53 C 0.93707 0.66075 0.03654 0.0
C54 C 0.92944 0.67054 0.9194 0.0
C55 C 0.93714 0.64973 0.9348 0.0
C56 C 0.92586 0.68634 0.96212 0.0
C57 C 0.9304 0.78204 0.93771 0.0
C58 C 0.93554 0.80226 0.84837 0.0
C59 C 0.93716 0.82075 0.94127 0.0
C60 C 0.93297 0.80116 0.96989 0.0
C61 C 0.93905 0.8213 0.88033 0.0
C62 C 0.93119 0.78281 0.87689 0.0
C63 C 0.92886 0.76072 0.96575 0.0
O64 O 0.91029 0.75709 0.13847 0.0
O65 O 0.94488 0.75584 0.13915 0.0
O66 O 0.91116 0.75628 0.99234 0.0
O67 O 0.94568 0.75407 0.99438 0.0
H68 H 0.94013 0.80227 0.12462 0.0
H69 H 0.94536 0.83532 0.18282 0.0
H70 H 0.92271 0.80168 0.33481 0.0
H71 H 0.91762 0.76899 0.27678 0.0
H72 H 0.9471 0.62939 0.00753 0.0
H73 H 0.94046 0.65686 0.08164 0.0
H74 H 0.92632 0.67467 0.87435 0.0
H75 H 0.9204 0.7024 0.94921 0.0
H76 H 0.93663 0.80233 0.80137 0.0
H77 H 0.93985 0.83522 0.96685 0.0
H78 H 0.93243 0.80077 0.01693 0.0
H79 H 0.92918 0.76816 0.85146 0.0
C80 C 0.74616 1.00457 0.24726 0.0
C81 C 0.72653 1.00011 0.22201 0.0
C82 C 0.70957 1.00286 0.31595 0.0
C83 C 0.70849 0.99916 0.25588 0.0
C84 C 0.72917 0.0077 0.34141 0.0
C85 C 0.74741 0.00845 0.30723 0.0
U86 U 0.76278 0.00663 0.09582 0.0
O87 O 0.78608 0.02426 0.04392 0.0
O88 O 0.78533 0.98841 0.04211 0.0
C89 C 0.79431 0.00618 0.02294 0.0
C90 C 0.76469 0.00555 0.20915 0.0
C91 C 0.81706 0.00516 0.01082 0.0
C92 C 0.84996 0.02383 0.99366 0.0
C93 C 0.83007 0.02319 0.01941 0.0
C94 C 0.84461 0.98795 0.95356 0.0
C95 C 0.8571 0.00653 0.95869 0.0
C96 C 0.82481 0.98731 0.97924 0.0
C97 C 0.71488 0.00705 0.99356 0.0
C98 C 0.70756 0.02456 0.9008 0.0
C99 C 0.68706 0.99365 0.93156 0.0
C100 C 0.69897 0.99209 0.98237 0.0
C101 C 0.69077 0.01036 0.89131 0.0
C102 C 0.71964 0.02287 0.95156 0.0
C103 C 0.72488 0.00682 0.05118 0.0
O104 O 0.76751 0.98813 0.17691 0.0
O105 O 0.76626 0.02376 0.17939 0.0
O106 O 0.7346 0.02461 0.06703 0.0
O107 O 0.73506 0.98885 0.06527 0.0
H108 H 0.72512 0.99738 0.17573 0.0
H109 H 0.69359 0.99587 0.23483 0.0
H110 H 0.73039 0.01069 0.38769 0.0
H111 H 0.76237 0.0121 0.32745 0.0
H112 H 0.85937 0.03826 0.99899 0.0
H113 H 0.82448 0.03727 0.0432 0.0
H114 H 0.84945 0.97448 0.92632 0.0
H115 H 0.81497 0.97339 0.97093 0.0
H116 H 0.71075 0.0375 0.87016 0.0
H117 H 0.67403 0.98266 0.92575 0.0
H118 H 0.69509 0.97979 0.01426 0.0
H119 H 0.73205 0.03446 0.95895 0.0
C120 C 0.57751 0.73676 0.23296 0.0
C121 C 0.57934 0.71635 0.20614 0.0
C122 C 0.57069 0.69835 0.29747 0.0
C123 C 0.57604 0.6973 0.23818 0.0
C124 C 0.56948 0.71886 0.32433 0.0
C125 C 0.57283 0.73786 0.29233 0.0
U126 U 0.57639 0.76652 0.08731 0.0
O127 O 0.55782 0.7959 0.06659 0.0
O128 O 0.59223 0.79626 0.05714 0.0
C129 C 0.57444 0.80733 0.0533 0.0
C130 C 0.57841 0.75697 0.19869 0.0
C131 C 0.57189 0.8236 0.00662 0.0
C132 C 0.56486 0.86146 0.98233 0.0
C133 C 0.56938 0.84534 0.02342 0.0
C134 C 0.56615 0.83449 0.90583 0.0
C135 C 0.56276 0.85623 0.92319 0.0
C136 C 0.57056 0.8182 0.94743 0.0
C137 C 0.57091 0.72417 0.95726 0.0
C138 C 0.5462 0.71196 0.88362 0.0
C139 C 0.57992 0.69368 0.89457 0.0
C140 C 0.58538 0.70827 0.93851 0.0
C141 C 0.55981 0.69467 0.86914 0.0
C142 C 0.55172 0.72666 0.92721 0.0
C143 C 0.57382 0.73356 0.01571 0.0
O144 O 0.59518 0.75967 0.16636 0.0
O145 O 0.56085 0.76202 0.17142 0.0
O146 O 0.55743 0.74275 0.04066 0.0
O147 O 0.59185 0.74253 0.02944 0.0
H148 H 0.58267 0.71519 0.16009 0.0
H149 H 0.57684 0.68182 0.21593 0.0
H150 H 0.56562 0.72027 0.37 0.0
H151 H 0.57121 0.75348 0.31365 0.0
H152 H 0.56265 0.87804 0.99707 0.0
H153 H 0.57037 0.84983 0.0689 0.0
H154 H 0.56455 0.82997 0.86056 0.0
H155 H 0.5724 0.80146 0.93367 0.0
H156 H 0.5307 0.7132 0.86403 0.0
H157 H 0.59068 0.68045 0.88438 0.0
H158 H 0.60018 0.70586 0.96135 0.0
H159 H 0.54025 0.73879 0.94054 0.0
C160 C 0.24099 0.52655 0.9759 0.0
C161 C 0.22322 0.51499 0.994 0.0
C162 C 0.20554 0.52267 0.90224 0.0
C163 C 0.20581 0.51291 0.95741 0.0
C164 C 0.22324 0.53429 0.88387 0.0
C165 C 0.24091 0.5361 0.92036 0.0
U166 U 0.25534 0.53834 0.12837 0.0
O167 O 0.27712 0.52369 0.19175 0.0
O168 O 0.27887 0.55874 0.17255 0.0
C169 C 0.28682 0.54209 0.20166 0.0
C170 C 0.25846 0.53026 0.01733 0.0
C171 C 0.30982 0.54104 0.21058 0.0
C172 C 0.34192 0.5195 0.22211 0.0
C173 C 0.32155 0.52199 0.19949 0.0
C174 C 0.33969 0.5556 0.26344 0.0
C175 C 0.35088 0.53593 0.25644 0.0
C176 C 0.31938 0.55809 0.2408 0.0
C177 C 0.2058 0.54498 0.22341 0.0
C178 C 0.1989 0.53449 0.32334 0.0
C179 C 0.17429 0.55799 0.27159 0.0
C180 C 0.18731 0.55754 0.22303 0.0
C181 C 0.17952 0.54581 0.32157 0.0
C182 C 0.21195 0.53405 0.27457 0.0
C183 C 0.21693 0.54176 0.16822 0.0
O184 O 0.25939 0.5501 0.03838 0.0
O185 O 0.26099 0.51514 0.05743 0.0
O186 O 0.2269 0.52308 0.16196 0.0
O187 O 0.22737 0.55845 0.14814 0.0
H188 H 0.22254 0.5079 0.03711 0.0
H189 H 0.19223 0.50423 0.97304 0.0
H190 H 0.22336 0.54201 0.84149 0.0
H191 H 0.25429 0.54533 0.90579 0.0
H192 H 0.35028 0.5043 0.21495 0.0
H193 H 0.3146 0.50856 0.1762 0.0
H194 H 0.34596 0.56854 0.28998 0.0
H195 H 0.31059 0.57284 0.25042 0.0
H196 H 0.20355 0.52522 0.3615 0.0
H197 H 0.15943 0.56669 0.26825 0.0
H198 H 0.18234 0.5661 0.18396 0.0
H199 H 0.22632 0.52442 0.27601 0.0
C200 C 0.08466 0.23408 0.98905 0.0
C201 C 0.08981 0.21379 0.01368 0.0
C202 C 0.07791 0.19541 0.92556 0.0
C203 C 0.08658 0.19463 0.98212 0.0
C204 C 0.07309 0.2159 0.90108 0.0
C205 C 0.07647 0.23498 0.93245 0.0
U206 U 0.08587 0.26373 0.13462 0.0
O207 O 0.10084 0.29424 0.16292 0.0
O208 O 0.06637 0.29212 0.15708 0.0
C209 C 0.08263 0.30437 0.16867 0.0
C210 C 0.08565 0.25425 0.02328 0.0
C211 C 0.07999 0.32031 0.21581 0.0
C212 C 0.07014 0.35733 0.24122 0.0
C213 C 0.07539 0.34181 0.19954 0.0
C214 C 0.07511 0.33038 0.31723 0.0
C215 C 0.06951 0.35174 0.30038 0.0
C216 C 0.08016 0.31464 0.27503 0.0
C217 C 0.08517 0.22127 0.26522 0.0
C218 C 0.06414 0.21353 0.35049 0.0
C219 C 0.09224 0.18883 0.3226 0.0
C220 C 0.09734 0.2026 0.27667 0.0
C221 C 0.07485 0.19354 0.35817 0.0
C222 C 0.0692 0.22728 0.30413 0.0
C223 C 0.08634 0.23064 0.20647 0.0
O224 O 0.06859 0.25857 0.05305 0.0
O225 O 0.10304 0.25767 0.05297 0.0
O226 O 0.10363 0.24043 0.19022 0.0
O227 O 0.06901 0.23915 0.18423 0.0
H228 H 0.09592 0.21274 0.05769 0.0
H229 H 0.09072 0.17923 0.00225 0.0
H230 H 0.066 0.21725 0.85831 0.0
H231 H 0.07209 0.25047 0.91306 0.0
H232 H 0.06612 0.37367 0.22704 0.0
H233 H 0.07516 0.34648 0.15405 0.0
H234 H 0.07469 0.32567 0.36262 0.0
H235 H 0.08358 0.29807 0.28836 0.0
H236 H 0.051 0.21789 0.37801 0.0
H237 H 0.10081 0.17358 0.32674 0.0
H238 H 0.10964 0.19759 0.24692 0.0
H239 H 0.05966 0.2417 0.29629 0.0
C240 C 0.2601 0.01622 0.96213 0.0
C241 C 0.27982 0.01407 0.98936 0.0
C242 C 0.29731 0.01472 0.89594 0.0
C243 C 0.29817 0.01319 0.95673 0.0
C244 C 0.27764 0.01758 0.86835 0.0
C245 C 0.25907 0.01815 0.90134 0.0
U246 U 0.24167 0.01466 0.11236 0.0
O247 O 0.21633 0.02959 0.16405 0.0
O248 O 0.22011 0.99386 0.16136 0.0
C249 C 0.20967 0.01062 0.18259 0.0
C250 C 0.24116 0.01574 0.99879 0.0
C251 C 0.18727 0.00797 0.19705 0.0
C252 C 0.15334 0.02426 0.22089 0.0
C253 C 0.17282 0.02539 0.19294 0.0
C254 C 0.16206 0.98793 0.25469 0.0
C255 C 0.14804 0.00576 0.25361 0.0
C256 C 0.18143 0.98905 0.22683 0.0
C257 C 0.287 0.01461 0.22136 0.0
C258 C 0.29028 0.99558 0.31373 0.0
C259 C 0.31383 0.02503 0.29036 0.0
C260 C 0.30361 0.02808 0.23724 0.0
C261 C 0.30771 0.00827 0.3281 0.0
C262 C 0.27981 0.99888 0.26082 0.0
C263 C 0.27871 0.01602 0.16187 0.0
O264 O 0.23923 0.99762 0.02866 0.0
O265 O 0.23808 0.03324 0.03065 0.0
O266 O 0.26772 0.03363 0.14909 0.0
O267 O 0.27056 0.9981 0.14113 0.0
H268 H 0.28103 0.01274 0.03614 0.0
H269 H 0.31312 0.01126 0.97911 0.0
H270 H 0.27663 0.0188 0.82143 0.0
H271 H 0.244 0.01986 0.87952 0.0
H272 H 0.14275 0.03817 0.21873 0.0
H273 H 0.17696 0.04029 0.17084 0.0
H274 H 0.15867 0.97359 0.28022 0.0
H275 H 0.19244 0.97559 0.23193 0.0
H276 H 0.28534 0.98258 0.34224 0.0
H277 H 0.32747 0.0348 0.30005 0.0
H278 H 0.30933 0.04029 0.20737 0.0
H279 H 0.26678 0.98847 0.24966 0.0
C280 C 0.41855 0.27373 0.97544 0.0
C281 C 0.41301 0.29396 0.99951 0.0
C282 C 0.42632 0.31251 0.91366 0.0
C283 C 0.4167 0.31321 0.96859 0.0
C284 C 0.43121 0.29217 0.88911 0.0
C285 C 0.4273 0.27298 0.91966 0.0
U286 U 0.42006 0.24427 0.12161 0.0
O287 O 0.40605 0.21371 0.15273 0.0
O288 O 0.44034 0.21608 0.14226 0.0
C289 C 0.42445 0.20377 0.1566 0.0
C290 C 0.41791 0.25357 0.01011 0.0
C291 C 0.42812 0.18784 0.2037 0.0
C292 C 0.44138 0.15193 0.22998 0.0
C293 C 0.4376 0.16803 0.18839 0.0
C294 C 0.42626 0.17516 0.30401 0.0
C295 C 0.43563 0.15509 0.28836 0.0
C296 C 0.42248 0.19144 0.26189 0.0
C297 C 0.42419 0.28604 0.25214 0.0
C298 C 0.44881 0.29523 0.32903 0.0
C299 C 0.41718 0.31697 0.31502 0.0
C300 C 0.41099 0.30319 0.26999 0.0
C301 C 0.43677 0.31385 0.34245 0.0
C302 C 0.44254 0.28137 0.28427 0.0
C303 C 0.42126 0.27739 0.193 0.0
O304 O 0.43554 0.24903 0.0376 0.0
O305 O 0.40115 0.25039 0.04223 0.0
O306 O 0.40365 0.26748 0.17985 0.0
O307 O 0.43792 0.26919 0.16709 0.0
H308 H 0.40657 0.29492 0.04296 0.0
H309 H 0.41297 0.32866 0.98877 0.0
H310 H 0.43852 0.29114 0.84675 0.0
H311 H 0.43187 0.25755 0.9006 0.0
H312 H 0.44913 0.13706 0.21624 0.0
H313 H 0.44217 0.16497 0.14378 0.0
H314 H 0.42161 0.17818 0.34851 0.0
H315 H 0.41517 0.20668 0.27463 0.0
H316 H 0.46384 0.29231 0.35023 0.0
H317 H 0.40761 0.33122 0.3244 0.0
H318 H 0.39682 0.30718 0.24562 0.0
H319 H 0.45296 0.26816 0.27165 0.0
Zn320 Zn 0.01661 0.0291 0.63595 0.0
Zn321 Zn 0.98778 0.98473 0.57726 0.0
C322 C 0.0234 0.06691 0.70094 0.0
O323 O 0.00519 0.07076 0.67547 0.0
C324 C 0.98314 0.9479 0.50839 0.0
O325 O 0.00225 0.94612 0.53005 0.0
O326 O 0.01073 0.0506 0.57057 0.0
O327 O 0.03578 0.00581 0.60247 0.0
O328 O 0.01385 0.994 0.53477 0.0
C329 C 0.0283 0.05696 0.55087 0.0
O330 O 0.04565 0.04796 0.57122 0.0
O331 O 0.03226 0.0484 0.69373 0.0
C332 C 0.97768 0.9574 0.66815 0.0
O333 O 0.95944 0.96581 0.65266 0.0
O334 O 0.99425 0.96373 0.64279 0.0
O335 O 0.96874 0.00838 0.61013 0.0
O336 O 0.99094 0.01912 0.67851 0.0
O337 O 0.9723 0.96486 0.52057 0.0
C338 C 0.03232 0.99894 0.55112 0.0
C339 C 0.97243 0.01457 0.66195 0.0
Zn340 Zn 0.46845 0.99963 0.61544 0.0
Zn341 Zn 0.5331 0.01163 0.57983 0.0
C342 C 0.44076 1.00142 0.71296 0.0
O343 O 0.45003 0.98267 0.72416 0.0
C344 C 0.56822 0.0149 0.50955 0.0
O345 O 0.56458 0.03496 0.52652 0.0
O346 O 0.44892 0.98459 0.56082 0.0
O347 O 0.48474 0.02195 0.57137 0.0
O348 O 0.51474 0.03427 0.53991 0.0
C349 C 0.44545 0.99251 0.51069 0.0
O350 O 0.4582 0.00725 0.49021 0.0
O351 O 0.44752 0.01301 0.67133 0.0
C352 C 0.5541 0.02291 0.68901 0.0
O353 O 0.54031 0.01098 0.71633 0.0
O354 O 0.5517 0.02701 0.6354 0.0
O355 O 0.51901 0.9875 0.62671 0.0
O356 O 0.48725 0.97723 0.65369 0.0
O357 O 0.55512 1.00021 0.52299 0.0
C358 C 0.49491 0.03612 0.54341 0.0
C359 C 0.50711 0.97429 0.65342 0.0
Zn360 Zn 0.48651 0.47815 0.62805 0.0
Zn361 Zn 0.5148 0.52847 0.57694 0.0
C362 C 0.48025 0.44728 0.71584 0.0
O363 O 0.50078 0.44691 0.70976 0.0
C364 C 0.51958 0.56337 0.50194 0.0
O365 O 0.4999 0.56475 0.51878 0.0
O366 O 0.49423 0.45302 0.57566 0.0
O367 O 0.467 0.49813 0.58285 0.0
O368 O 0.48728 0.52183 0.53716 0.0
C369 C 0.48867 0.4515 0.52266 0.0
O370 O 0.48168 0.46884 0.495 0.0
O371 O 0.46947 0.46118 0.68686 0.0
C372 C 0.52125 0.55334 0.68453 0.0
O373 O 0.53508 0.5382 0.69845 0.0
O374 O 0.50988 0.55109 0.63937 0.0
O375 O 0.53352 0.50384 0.60734 0.0
O376 O 0.51186 0.48954 0.67184 0.0
O377 O 0.53071 0.54723 0.51935 0.0
C378 C 0.46981 0.51229 0.54329 0.0
C379 C 0.5304 0.49346 0.65445 0.0
Zn380 Zn 0.02713 0.50124 0.64757 0.0
Zn381 Zn 0.9788 0.50227 0.58605 0.0
C382 C 0.06349 0.51668 0.70361 0.0
O383 O 0.05615 0.5343 0.67782 0.0
C384 C 0.9491 0.4894 0.49992 0.0
O385 O 0.96064 0.47157 0.5029 0.0
O386 O 0.03965 0.51654 0.57817 0.0
O387 O 0.01901 0.47097 0.62093 0.0
O388 O 0.00046 0.48311 0.54603 0.0
C389 C 0.05416 0.50505 0.55532 0.0
O390 O 0.05742 0.48514 0.57435 0.0
O391 O 0.05279 0.4993 0.70092 0.0
C392 C 0.94926 0.49825 0.67373 0.0
O393 O 0.9452 0.51766 0.65231 0.0
O394 O 0.96459 0.48719 0.65345 0.0
O395 O 0.98752 0.53207 0.61291 0.0
O396 O 0.00555 0.51995 0.68875 0.0
O397 O 0.95433 0.50583 0.52992 0.0
C398 C 0.01278 0.46894 0.56854 0.0
C399 C 0.9934 0.53412 0.6655 0.0
H400 H 0.13302 0.03864 0.32231 0.0
H401 H 0.12062 0.97244 0.27136 0.0
H402 H 0.10459 0.03696 0.39311 0.0
H403 H 0.09256 0.97064 0.34311 0.0
H404 H 0.03045 0.98417 0.43939 0.0
H405 H 0.05719 0.98674 0.36445 0.0
H406 H 0.09942 0.01652 0.48747 0.0
H407 H 0.07275 0.01376 0.56307 0.0
C408 C 0.12402 0.02385 0.32552 0.0
C409 C 0.12911 0.00565 0.29123 0.0
C410 C 0.10794 0.02281 0.36664 0.0
C411 C 0.09653 1.00359 0.37407 0.0
C412 C 0.10106 0.98568 0.33825 0.0
C413 C 0.11719 0.98668 0.29739 0.0
C414 C 0.04547 0.99115 0.45078 0.0
C415 C 0.04937 0.9989 0.50732 0.0
C416 C 0.06079 0.9926 0.40772 0.0
C417 C 0.08031 1.00199 0.41997 0.0
C418 C 0.08437 0.0095 0.47658 0.0
C419 C 0.06914 0.00778 0.51996 0.0
H420 H 0.43203 0.11108 0.27343 0.0
H421 H 0.44924 0.1589 0.40209 0.0
H422 H 0.44451 0.08213 0.33796 0.0
H423 H 0.46079 0.12955 0.46774 0.0
H424 H 0.4605 0.06068 0.57448 0.0
H425 H 0.44329 0.0899 0.51725 0.0
H426 H 0.48664 0.07807 0.37696 0.0
H427 H 0.50431 0.04974 0.43464 0.0
C428 C 0.43829 0.11547 0.31561 0.0
C429 C 0.44003 0.13746 0.33186 0.0
C430 C 0.44526 0.09883 0.35268 0.0
C431 C 0.45369 0.10367 0.40751 0.0
C432 C 0.45423 0.12544 0.42567 0.0
C433 C 0.44755 0.14222 0.38809 0.0
C434 C 0.4663 0.06442 0.53144 0.0
C435 C 0.48381 0.05313 0.50905 0.0
C436 C 0.45653 0.0811 0.49893 0.0
C437 C 0.4637 0.08617 0.44287 0.0
C438 C 0.48084 0.07446 0.42009 0.0
C439 C 0.49097 0.05833 0.45313 0.0
H440 H 0.36246 0.4986 0.31338 0.0
H441 H 0.38334 0.56393 0.27878 0.0
H442 H 0.39192 0.49299 0.37966 0.0
H443 H 0.41233 0.55865 0.34748 0.0
H444 H 0.4723 0.5348 0.44074 0.0
H445 H 0.44502 0.53978 0.36703 0.0
H446 H 0.40134 0.50505 0.47528 0.0
H447 H 0.42877 0.49949 0.5482 0.0
C448 C 0.37352 0.51168 0.31914 0.0
C449 C 0.37046 0.53175 0.29074 0.0
C450 C 0.39024 0.50858 0.35803 0.0
C451 C 0.4043 0.52548 0.36978 0.0
C452 C 0.40182 0.54525 0.33947 0.0
C453 C 0.38509 0.54835 0.30039 0.0
C454 C 0.45684 0.52833 0.44904 0.0
C455 C 0.45275 0.51671 0.50048 0.0
C456 C 0.44117 0.53123 0.40671 0.0
C457 C 0.42101 0.52268 0.41491 0.0
C458 C 0.41682 0.51145 0.4669 0.0
C459 C 0.43251 0.50842 0.50902 0.0
H460 H 0.03311 0.37488 0.2936 0.0
H461 H 0.08781 0.36521 0.40263 0.0
H462 H 0.01988 0.40252 0.35958 0.0
H463 H 0.07506 0.39378 0.46827 0.0
H464 H 0.03553 0.43254 0.60144 0.0
H465 H 0.04964 0.40389 0.53879 0.0
H466 H 0.02538 0.4382 0.38797 0.0
H467 H 0.01057 0.46603 0.45042 0.0
C468 C 0.04238 0.37885 0.3317 0.0
C469 C 0.06151 0.36796 0.3429 0.0
C470 C 0.03489 0.39486 0.36944 0.0
C471 C 0.04647 0.40074 0.41921 0.0
C472 C 0.06556 0.3896 0.43084 0.0
C473 C 0.07293 0.37326 0.39324 0.0
C474 C 0.03312 0.43383 0.55491 0.0
C475 C 0.02161 0.45142 0.53115 0.0
C476 C 0.04138 0.41749 0.51884 0.0
C477 C 0.03851 0.41847 0.45808 0.0
C478 C 0.02745 0.43643 0.43451 0.0
C479 C 0.019 0.45254 0.47047 0.0
H480 H 0.86919 0.04197 0.8961 0.0
H481 H 0.88761 0.97577 0.93663 0.0
H482 H 0.89756 0.04406 0.8253 0.0
H483 H 0.91582 0.97785 0.86506 0.0
H484 H 0.97679 1.00065 0.77308 0.0
H485 H 0.9499 0.99904 0.84832 0.0
H486 H 0.90386 0.02459 0.72669 0.0
H487 H 0.93082 0.02574 0.65067 0.0
C488 C 0.87952 0.028 0.89073 0.0
C489 C 0.87613 0.00869 0.922 0.0
C490 C 0.89556 0.02912 0.8496 0.0
C491 C 0.90866 0.01103 0.83927 0.0
C492 C 0.90591 0.99203 0.87222 0.0
C493 C 0.88974 0.99083 0.913 0.0
C494 C 0.96092 0.00598 0.76249 0.0
C495 C 0.95583 0.01349 0.70631 0.0
C496 C 0.94555 0.00494 0.80542 0.0
C497 C 0.92488 0.01184 0.79338 0.0
C498 C 0.91976 0.01937 0.73716 0.0
C499 C 0.93508 0.01992 0.69369 0.0
H500 H 0.53082 0.88546 0.93714 0.0
H501 H 0.57852 0.86572 0.81466 0.0
H502 H 0.5188 0.91381 0.87057 0.0
H503 H 0.56618 0.89419 0.74693 0.0
H504 H 0.54897 0.96416 0.67332 0.0
H505 H 0.5634 0.93543 0.73664 0.0
H506 H 0.50043 0.91485 0.7764 0.0
H507 H 0.48606 0.94334 0.7142 0.0
C508 C 0.53881 0.88724 0.89596 0.0
C509 C 0.55563 0.87332 0.88121 0.0
C510 C 0.5318 0.9034 0.85754 0.0
C511 C 0.54142 0.90618 0.8032 0.0
C512 C 0.55848 0.8925 0.78855 0.0
C513 C 0.56542 0.87609 0.82702 0.0
C514 C 0.53822 0.95339 0.69526 0.0
C515 C 0.51632 0.95618 0.68872 0.0
C516 C 0.54651 0.93689 0.73138 0.0
C517 C 0.53306 0.92296 0.76193 0.0
C518 C 0.51123 0.92551 0.7543 0.0
C519 C 0.50299 0.94184 0.71827 0.0
H520 H 0.61163 0.48599 0.95717 0.0
H521 H 0.64834 0.45378 0.82457 0.0
H522 H 0.58355 0.49273 0.88684 0.0
H523 H 0.62022 0.46084 0.75381 0.0
H524 H 0.57269 0.4985 0.6342 0.0
H525 H 0.60182 0.49176 0.7021 0.0
H526 H 0.55781 0.47081 0.83241 0.0
H527 H 0.52881 0.47762 0.76538 0.0
C528 C 0.61365 0.48016 0.91314 0.0
C529 C 0.63219 0.46913 0.89674 0.0
C530 C 0.59757 0.48409 0.87277 0.0
C531 C 0.59961 0.47721 0.81484 0.0
C532 C 0.61826 0.46652 0.79802 0.0
C533 C 0.63436 0.46248 0.83857 0.0
C534 C 0.56924 0.49237 0.67726 0.0
C535 C 0.54837 0.48863 0.6942 0.0
C536 C 0.58594 0.48844 0.71604 0.0
C537 C 0.5821 0.48085 0.77269 0.0
C538 C 0.56127 0.47693 0.78935 0.0
C539 C 0.54464 0.4807 0.75063 0.0
H540 H 0.95516 0.65618 0.82781 0.0
H541 H 0.93109 0.60573 0.93949 0.0
H542 H 0.96724 0.62854 0.75912 0.0
H543 H 0.94367 0.57824 0.87156 0.0
H544 H 0.9961 0.53831 0.78325 0.0
H545 H 0.98043 0.56639 0.84399 0.0
H546 H 0.95457 0.59812 0.69152 0.0
H547 H 0.97025 0.56982 0.6301 0.0
C548 C 0.95211 0.63927 0.83733 0.0
C549 C 0.94239 0.6332 0.8897 0.0
C550 C 0.95909 0.62345 0.79799 0.0
C551 C 0.95666 0.60125 0.81045 0.0
C552 C 0.94613 0.59522 0.86142 0.0
C553 C 0.93899 0.61099 0.9004 0.0
C554 C 0.98714 0.55127 0.76244 0.0
C555 C 0.98446 0.55181 0.70174 0.0
C556 C 0.97802 0.56727 0.79737 0.0
C557 C 0.96615 0.58434 0.77252 0.0
C558 C 0.96369 0.58516 0.71178 0.0
C559 C 0.97264 0.56895 0.67672 0.0
H560 H 0.03348 0.1835 0.37489 0.0
H561 H 0.09644 0.16382 0.42579 0.0
H562 H 0.01958 0.15086 0.42012 0.0
H563 H 0.08248 0.131 0.46992 0.0
H564 H 0.0568 0.06353 0.46695 0.0
H565 H 0.06663 0.09825 0.42454 0.0
H566 H 0.01523 0.12988 0.51419 0.0
H567 H 0.00518 0.09477 0.55619 0.0
C568 C 0.04433 0.17255 0.39704 0.0
C569 C 0.06616 0.17621 0.39605 0.0
C570 C 0.03632 0.15375 0.42257 0.0
C571 C 0.04998 0.13815 0.44722 0.0
C572 C 0.07162 0.14249 0.44977 0.0
C573 C 0.07962 0.16133 0.42467 0.0
C574 C 0.04729 0.07782 0.4764 0.0
C575 C 0.03025 0.07655 0.51465 0.0
C576 C 0.05307 0.09772 0.45281 0.0
C577 C 0.04205 0.11685 0.46736 0.0
C578 C 0.02405 0.11539 0.50245 0.0
C579 C 0.01817 0.09532 0.52599 0.0
H580 H 0.32317 0.03442 0.41307 0.0
H581 H 0.32484 0.96844 0.34952 0.0
H582 H 0.35553 0.02743 0.46809 0.0
H583 H 0.35727 0.9615 0.40425 0.0
H584 H 0.41609 0.96133 0.53297 0.0
H585 H 0.37879 0.96256 0.50457 0.0
H586 H 0.38967 0.02138 0.407 0.0
H587 H 0.42656 0.02008 0.43406 0.0
C588 C 0.33002 0.01821 0.41282 0.0
C589 C 0.32185 1.00208 0.37645 0.0
C590 C 0.34851 0.01423 0.44398 0.0
C591 C 0.35903 0.99412 0.43888 0.0
C592 C 0.34941 0.97713 0.40861 0.0
C593 C 0.33084 0.9811 0.3775 0.0
C594 C 0.4105 0.97428 0.50464 0.0
C595 C 0.42421 0.9906 0.48566 0.0
C596 C 0.38922 0.97506 0.48894 0.0
C597 C 0.3814 0.9924 0.45518 0.0
C598 C 0.39528 0.00815 0.43441 0.0
C599 C 0.41648 0.00718 0.44911 0.0
H600 H 0.41944 0.33741 0.43208 0.0
H601 H 0.47503 0.33151 0.32596 0.0
H602 H 0.43416 0.36992 0.47834 0.0
H603 H 0.48939 0.36404 0.3712 0.0
H604 H 0.48461 0.44069 0.40807 0.0
H605 H 0.47316 0.40583 0.36828 0.0
H606 H 0.47081 0.37894 0.54148 0.0
H607 H 0.4828 0.41348 0.58143 0.0
C608 C 0.43488 0.34287 0.41936 0.0
C609 C 0.44623 0.33181 0.37606 0.0
C610 C 0.44327 0.36139 0.4457 0.0
C611 C 0.46286 0.36936 0.42805 0.0
C612 C 0.47427 0.35815 0.38541 0.0
C613 C 0.46612 0.33946 0.36003 0.0
C614 C 0.48208 0.4272 0.4375 0.0
C615 C 0.48481 0.42977 0.49774 0.0
C616 C 0.47547 0.40734 0.4148 0.0
C617 C 0.47103 0.38987 0.45204 0.0
C618 C 0.47407 0.39225 0.51208 0.0
C619 C 0.48114 0.41194 0.53471 0.0
H620 H 0.17061 0.50813 0.37872 0.0
H621 H 0.15157 0.57571 0.36687 0.0
H622 H 0.14004 0.50061 0.43755 0.0
H623 H 0.12013 0.56783 0.42319 0.0
H624 H 0.07222 0.54499 0.5635 0.0
H625 H 0.10428 0.55657 0.51415 0.0
H626 H 0.10372 0.49761 0.41215 0.0
H627 H 0.07242 0.48582 0.4632 0.0
C628 C 0.16015 0.52152 0.38959 0.0
C629 C 0.16341 0.54248 0.36721 0.0
C630 C 0.14236 0.51711 0.42247 0.0
C631 C 0.12725 0.53346 0.4333 0.0
C632 C 0.13132 0.55481 0.41505 0.0
C633 C 0.14927 0.55928 0.38243 0.0
C634 C 0.07874 0.53486 0.52946 0.0
C635 C 0.06995 0.51456 0.51683 0.0
C636 C 0.09715 0.54138 0.50152 0.0
C637 C 0.10685 0.52776 0.46024 0.0
C638 C 0.09708 0.50816 0.44513 0.0
C639 C 0.07898 0.50153 0.47358 0.0
H640 H 0.92357 0.86268 0.89192 0.0
H641 H 0.97049 0.82473 0.8014 0.0
H642 H 0.93546 0.89541 0.84266 0.0
H643 H 0.98321 0.85744 0.7542 0.0
H644 H 0.98438 0.91639 0.63133 0.0
H645 H 0.97568 0.88314 0.68324 0.0
H646 H 0.96187 0.921 0.83715 0.0
H647 H 0.9692 0.95427 0.78306 0.0
C648 C 0.93659 0.86144 0.86189 0.0
C649 C 0.94608 0.84123 0.85032 0.0
C650 C 0.94358 0.88021 0.83395 0.0
C651 C 0.96051 0.87924 0.79464 0.0
C652 C 0.96998 0.8589 0.7834 0.0
C653 C 0.96274 0.84012 0.81057 0.0
C654 C 0.98003 0.9174 0.67676 0.0
C655 C 0.97774 0.93766 0.7038 0.0
C656 C 0.97498 0.89837 0.70664 0.0
C657 C 0.96782 0.89926 0.76451 0.0
C658 C 0.96677 0.91964 0.79229 0.0
C659 C 0.97134 0.93869 0.76186 0.0
H660 H 0.67329 0.98137 0.81606 0.0
H661 H 0.67222 0.04914 0.86509 0.0
H662 H 0.64114 0.98706 0.75912 0.0
H663 H 0.64014 0.05481 0.80789 0.0
H664 H 0.56711 0.03885 0.79399 0.0
H665 H 0.60334 0.03857 0.8319 0.0
H666 H 0.62498 0.00845 0.67324 0.0
H667 H 0.58901 0.00877 0.63585 0.0
C668 C 0.66649 0.99758 0.81324 0.0
C669 C 0.67506 0.01477 0.84526 0.0
C670 C 0.64817 1.00085 0.78069 0.0
C671 C 0.6381 0.0213 0.78017 0.0
C672 C 0.64755 0.03885 0.80845 0.0
C673 C 0.66599 0.03564 0.8405 0.0
C674 C 0.57973 0.0325 0.76728 0.0
C675 C 0.57554 0.0242 0.71192 0.0
C676 C 0.60037 0.03246 0.78853 0.0
C677 C 0.61686 0.02365 0.75505 0.0
C678 C 0.61256 0.01545 0.69958 0.0
C679 C 0.59208 0.0158 0.67814 0.0
H680 H 0.52415 0.67241 0.88971 0.0
H681 H 0.57799 0.67384 0.77622 0.0
H682 H 0.51267 0.63863 0.84426 0.0
H683 H 0.56607 0.64014 0.72966 0.0
H684 H 0.51766 0.59274 0.63144 0.0
H685 H 0.52604 0.62829 0.67291 0.0
H686 H 0.53719 0.59822 0.84005 0.0
H687 H 0.52962 0.56244 0.79818 0.0
C688 C 0.53323 0.66577 0.85406 0.0
C689 C 0.55184 0.67583 0.83599 0.0
C690 C 0.52674 0.64641 0.82851 0.0
C691 C 0.53849 0.63697 0.78365 0.0
C692 C 0.55673 0.64731 0.76407 0.0
C693 C 0.56351 0.66648 0.79057 0.0
C694 C 0.5215 0.59378 0.67731 0.0
C695 C 0.52283 0.57491 0.71189 0.0
C696 C 0.52648 0.61404 0.70071 0.0
C697 C 0.53228 0.61581 0.75937 0.0
C698 C 0.53272 0.59714 0.79462 0.0
C699 C 0.52834 0.57677 0.77084 0.0
H700 H 0.84956 0.49696 0.92105 0.0
H701 H 0.84012 0.43652 0.82999 0.0
H702 H 0.88207 0.50246 0.86781 0.0
H703 H 0.87276 0.44186 0.7771 0.0
H704 H 0.91577 0.47467 0.64154 0.0
H705 H 0.88594 0.46454 0.70182 0.0
H706 H 0.91751 0.49071 0.8528 0.0
H707 H 0.94698 0.50149 0.79129 0.0
C708 C 0.85463 0.48463 0.89049 0.0
C709 C 0.84217 0.46635 0.87973 0.0
C710 C 0.87333 0.48776 0.85992 0.0
C711 C 0.88011 0.47263 0.81795 0.0
C712 C 0.8679 0.45404 0.80835 0.0
C713 C 0.84918 0.45096 0.83877 0.0
C714 C 0.91647 0.47768 0.68793 0.0
C715 C 0.9337 0.48842 0.7123 0.0
C716 C 0.8994 0.47192 0.72256 0.0
C717 C 0.89922 0.47682 0.78237 0.0
C718 C 0.91695 0.48693 0.80687 0.0
C719 C 0.93396 0.49283 0.77201 0.0
H720 H 0.06336 0.15659 0.96861 0.0
H721 H 0.0812 0.18796 0.80812 0.0
H722 H 0.05275 0.12451 0.91399 0.0
H723 H 0.06982 0.15619 0.75382 0.0
H724 H 0.01784 0.11017 0.68392 0.0
H725 H 0.03337 0.14004 0.73781 0.0
H726 H 0.06759 0.09411 0.84568 0.0
H727 H 0.05216 0.06391 0.79066 0.0
C728 C 0.06537 0.15659 0.9219 0.0
C729 C 0.07303 0.17506 0.89293 0.0
C730 C 0.05921 0.13818 0.89063 0.0
C731 C 0.06034 0.1379 0.82965 0.0
C732 C 0.06853 0.15605 0.80077 0.0
C733 C 0.07494 0.17432 0.83198 0.0
C734 C 0.02871 0.10638 0.71904 0.0
C735 C 0.0337 0.08468 0.73332 0.0
C736 C 0.03772 0.12352 0.74961 0.0
C737 C 0.0517 0.11942 0.79591 0.0
C738 C 0.05679 0.09771 0.81027 0.0
C739 C 0.04806 0.08047 0.77873 0.0
H740 H 0.32591 0.9818 0.90091 0.0
H741 H 0.3135 0.04344 0.81718 0.0
H742 H 0.36029 0.97983 0.8555 0.0
H743 H 0.34853 0.04222 0.7735 0.0
H744 H 0.40709 0.02341 0.66608 0.0
H745 H 0.37174 0.02657 0.70621 0.0
H746 H 0.39341 0.99461 0.86364 0.0
H747 H 0.42826 0.99037 0.82178 0.0
C748 C 0.33064 0.99495 0.87258 0.0
C749 C 0.31714 0.0128 0.86265 0.0
C750 C 0.35048 0.994 0.84704 0.0
C751 C 0.35758 0.01111 0.81169 0.0
C752 C 0.34369 0.02867 0.80018 0.0
C753 C 0.3236 0.02943 0.82514 0.0
C754 C 0.4043 0.01738 0.70963 0.0
C755 C 0.42042 0.00664 0.74089 0.0
C756 C 0.384 0.01917 0.73272 0.0
C757 C 0.37945 0.01056 0.78801 0.0
C758 C 0.39599 1.00084 0.82023 0.0
C759 C 0.41611 0.99865 0.79665 0.0
H760 H 0.40275 0.34941 0.89218 0.0
H761 H 0.46468 0.32147 0.86885 0.0
H762 H 0.41438 0.38325 0.84626 0.0
H763 H 0.47623 0.35494 0.82283 0.0
H764 H 0.49765 0.42389 0.80425 0.0
H765 H 0.48346 0.39209 0.85267 0.0
H766 H 0.42634 0.3985 0.75131 0.0
H767 H 0.44048 0.43083 0.70348 0.0
C768 C 0.41881 0.35052 0.87714 0.0
C769 C 0.43281 0.33283 0.88404 0.0
C770 C 0.42543 0.36981 0.85056 0.0
C771 C 0.44629 0.37188 0.83133 0.0
C772 C 0.46016 0.35404 0.83787 0.0
C773 C 0.45349 0.33476 0.86371 0.0
C774 C 0.48195 0.4187 0.79277 0.0
C775 C 0.47018 0.42987 0.75008 0.0
C776 C 0.47387 0.40036 0.82021 0.0
C777 C 0.45388 0.39255 0.80531 0.0
C778 C 0.44173 0.40419 0.76408 0.0
C779 C 0.4498 0.42272 0.73678 0.0
H780 H 0.18303 0.55617 0.85383 0.0
H781 H 0.18439 0.48634 0.8702 0.0
H782 H 0.149 0.55445 0.80493 0.0
H783 H 0.1509 0.48427 0.81849 0.0
H784 H 0.08022 0.48889 0.78567 0.0
H785 H 0.11509 0.49024 0.83025 0.0
H786 H 0.13004 0.54564 0.72249 0.0
H787 H 0.09491 0.54492 0.68081 0.0
C788 C 0.17622 0.54041 0.84559 0.0
C789 C 0.18628 0.5214 0.86581 0.0
C790 C 0.1567 0.53935 0.8174 0.0
C791 C 0.14692 0.51919 0.80785 0.0
C792 C 0.15754 0.50013 0.82622 0.0
C793 C 0.17686 0.50125 0.85532 0.0
C794 C 0.09099 0.50137 0.77183 0.0
C795 C 0.08473 0.51693 0.73034 0.0
C796 C 0.1111 0.50207 0.79695 0.0
C797 C 0.12558 0.51811 0.78028 0.0
C798 C 0.11931 0.53337 0.73771 0.0
C799 C 0.09913 0.53289 0.7135 0.0
H800 H 0.95408 0.82051 0.36968 0.0
H801 H 0.92735 0.86455 0.24201 0.0
H802 H 0.96382 0.8512 0.43023 0.0
H803 H 0.93759 0.8955 0.30239 0.0
H804 H 0.94426 0.94483 0.45483 0.0
H805 H 0.93098 0.91431 0.3972 0.0
H806 H 0.98978 0.87981 0.42407 0.0
H807 H 0.00284 0.9098 0.48145 0.0
C808 C 0.95011 0.83677 0.35473 0.0
C809 C 0.93994 0.84006 0.30089 0.0
C810 C 0.95588 0.8544 0.38926 0.0
C811 C 0.95163 0.87586 0.37104 0.0
C812 C 0.941 0.87919 0.31786 0.0
C813 C 0.93533 0.86148 0.28299 0.0
C814 C 0.95432 0.93073 0.44827 0.0
C815 C 0.97464 0.92985 0.47266 0.0
C816 C 0.94674 0.91328 0.41515 0.0
C817 C 0.95929 0.89456 0.40617 0.0
C818 C 0.97955 0.89378 0.43075 0.0
C819 C 0.98711 0.91114 0.46341 0.0
H820 H 0.67956 0.97151 0.31541 0.0
H821 H 0.69518 0.03292 0.39364 0.0
H822 H 0.64601 0.9717 0.3661 0.0
H823 H 0.66132 0.0339 0.44204 0.0
H824 H 0.60555 0.02678 0.55372 0.0
H825 H 0.64029 0.02087 0.51365 0.0
H826 H 0.61266 0.98709 0.36762 0.0
H827 H 0.57788 0.9914 0.41165 0.0
C828 C 0.67576 0.98506 0.34361 0.0
C829 C 0.68999 1.00218 0.35077 0.0
C830 C 0.65642 0.9853 0.37234 0.0
C831 C 0.65067 1.00284 0.40831 0.0
C832 C 0.66518 0.01981 0.41594 0.0
C833 C 0.68465 0.01936 0.38799 0.0
C834 C 0.60699 0.01769 0.51365 0.0
C835 C 0.5891 0.00947 0.48579 0.0
C836 C 0.62693 0.01456 0.49004 0.0
C837 C 0.6295 1.00389 0.43648 0.0
C838 C 0.6115 0.99518 0.40922 0.0
C839 C 0.59151 0.99771 0.43412 0.0
H840 H 0.53842 0.69317 0.374 0.0
H841 H 0.58996 0.65806 0.29457 0.0
H842 H 0.52775 0.6602 0.4236 0.0
H843 H 0.57876 0.62468 0.34291 0.0
H844 H 0.56124 0.57361 0.48555 0.0
H845 H 0.57498 0.60623 0.43807 0.0
H846 H 0.51157 0.62662 0.39463 0.0
H847 H 0.49798 0.59458 0.44249 0.0
C848 C 0.54763 0.67846 0.36752 0.0
C849 C 0.56504 0.67829 0.33012 0.0
C850 C 0.54133 0.65944 0.39543 0.0
C851 C 0.55222 0.63968 0.38666 0.0
C852 C 0.57004 0.63961 0.3507 0.0
C853 C 0.57633 0.65869 0.32256 0.0
C854 C 0.55032 0.58497 0.4652 0.0
C855 C 0.52853 0.58155 0.46801 0.0
C856 C 0.55817 0.60366 0.43807 0.0
C857 C 0.54435 0.61922 0.41325 0.0
C858 C 0.52265 0.6153 0.41451 0.0
C859 C 0.51485 0.59678 0.44161 0.0
H860 H 0.85038 0.48806 0.23669 0.0
H861 H 0.82144 0.46466 0.39432 0.0
H862 H 0.88299 0.49418 0.29029 0.0
H863 H 0.85386 0.47181 0.44801 0.0
H864 H 0.91185 0.50975 0.52555 0.0
H865 H 0.87833 0.50669 0.47256 0.0
H866 H 0.90867 0.4659 0.34487 0.0
H867 H 0.94187 0.4684 0.39848 0.0
C868 C 0.85093 0.48413 0.28259 0.0
C869 C 0.83324 0.47566 0.31087 0.0
C870 C 0.86955 0.48785 0.31331 0.0
C871 C 0.87085 0.48351 0.37316 0.0
C872 C 0.85314 0.47553 0.40196 0.0
C873 C 0.83458 0.47148 0.37109 0.0
C874 C 0.91134 0.50038 0.48574 0.0
C875 C 0.92942 0.48943 0.4657 0.0
C876 C 0.8922 0.4985 0.45581 0.0
C877 C 0.89103 0.48613 0.40462 0.0
C878 C 0.90924 0.47567 0.38397 0.0
C879 C 0.92818 0.47707 0.41462 0.0
loop_
_geom_bond_atom_site_label_1
_geom_bond_atom_site_label_2
_geom_bond_distance
_geom_bond_site_symmetry_2
_ccdc_geom_bond_type
C0 C1 1.264 . S
C0 C5 1.479 . S
C0 C10 1.465 . S
C1 C0 1.264 . S
C1 C3 1.339 . S
C1 H28 0.931 . S
C2 C3 1.395 . S
C2 C4 1.320 . S
C3 C1 1.339 . S
C3 C2 1.395 . S
C3 H29 0.929 . S
C4 C2 1.320 . S
C4 C5 1.405 . S
C4 H30 0.930 . S
C5 C0 1.479 . S
C5 C4 1.405 . S
C5 H31 0.931 . S
U6 O7 2.454 . S
U6 O8 2.458 1_554 S
U6 C9 2.984 . S
U6 C10 2.847 . S
U6 C23 2.882 1_554 S
U6 O24 2.441 . S
U6 O25 2.420 . S
U6 O26 2.455 1_554 S
U6 O27 2.449 . S
O7 U6 2.454 . S
O7 C9 1.353 . S
O8 U6 2.458 1_556 S
O8 C9 1.286 1_556 S
C9 U6 2.984 . S
C9 O7 1.353 . S
C9 O8 1.286 1_554 S
C9 C11 1.363 . S
C10 C0 1.465 . S
C10 U6 2.847 . S
C10 O24 1.249 . S
C10 O25 1.202 . S
C11 C9 1.363 . S
C11 C13 1.408 . S
C11 C16 1.342 1_554 S
C12 C13 1.310 . S
C12 C15 1.461 1_554 S
C12 H32 0.932 . S
C13 C11 1.408 . S
C13 C12 1.310 . S
C13 H33 0.930 . S
C14 C15 1.474 . S
C14 C16 1.285 . S
C14 H34 0.929 . S
C15 C12 1.461 1_556 S
C15 C14 1.474 . S
C16 C11 1.342 1_556 S
C16 C14 1.285 . S
C16 H35 0.930 . S
C17 C20 1.424 . S
C17 C22 1.245 . S
C17 C23 1.428 . S
C18 C21 1.260 . S
C18 C22 1.477 . S
C18 H36 0.932 . S
C19 C20 1.384 . S
C19 C21 1.479 . S
C19 H37 0.929 . S
C20 C17 1.424 . S
C20 C19 1.384 . S
C20 H38 0.928 . S
C21 C18 1.260 . S
C21 C19 1.479 . S
C22 C17 1.245 . S
C22 C18 1.477 . S
C22 H39 0.932 . S
C23 U6 2.882 1_556 S
C23 C17 1.428 . S
C23 O26 1.301 . S
C23 O27 1.282 1_556 S
O24 U6 2.441 . S
O24 C10 1.249 . S
O25 U6 2.420 . S
O25 C10 1.202 . S
O26 U6 2.455 1_556 S
O26 C23 1.301 . S
O27 U6 2.449 . S
O27 C23 1.282 1_554 S
H28 C1 0.931 . S
H29 C3 0.929 . S
H30 C4 0.930 . S
H31 C5 0.931 . S
H32 C12 0.932 . S
H33 C13 0.930 . S
H34 C14 0.929 . S
H35 C16 0.930 . S
H36 C18 0.932 . S
H37 C19 0.929 . S
H38 C20 0.928 . S
H39 C22 0.932 . S
C40 C41 1.264 . S
C40 C45 1.479 . S
C40 C50 1.465 . S
C41 C40 1.264 . S
C41 C43 1.339 . S
C41 H68 0.931 . S
C42 C43 1.395 . S
C42 C44 1.320 . S
C43 C41 1.339 . S
C43 C42 1.395 . S
C43 H69 0.929 . S
C44 C42 1.320 . S
C44 C45 1.405 . S
C44 H70 0.930 . S
C45 C40 1.479 . S
C45 C44 1.405 . S
C45 H71 0.931 . S
U46 O47 2.454 . S
U46 O48 2.458 1_554 S
U46 C49 2.984 1_554 S
U46 C50 2.847 . S
U46 C63 2.882 1_554 S
U46 O64 2.441 . S
U46 O65 2.420 . S
U46 O66 2.455 1_554 S
U46 O67 2.449 1_554 S
O47 U46 2.454 . S
O47 C49 1.353 1_554 S
O48 U46 2.458 1_556 S
O48 C49 1.286 . S
C49 U46 2.984 1_556 S
C49 O47 1.353 1_556 S
C49 O48 1.286 . S
C49 C51 1.363 . S
C50 C40 1.465 . S
C50 U46 2.847 . S
C50 O64 1.249 . S
C50 O65 1.202 . S
C51 C49 1.363 . S
C51 C53 1.408 1_556 S
C51 C56 1.342 . S
C52 C53 1.310 . S
C52 C55 1.461 1_554 S
C52 H72 0.932 . S
C53 C51 1.408 1_554 S
C53 C52 1.310 . S
C53 H73 0.930 . S
C54 C55 1.474 . S
C54 C56 1.285 . S
C54 H74 0.929 . S
C55 C52 1.461 1_556 S
C55 C54 1.474 . S
C56 C51 1.342 . S
C56 C54 1.285 . S
C56 H75 0.930 . S
C57 C60 1.424 . S
C57 C62 1.245 . S
C57 C63 1.428 . S
C58 C61 1.260 . S
C58 C62 1.477 . S
C58 H76 0.932 . S
C59 C60 1.384 . S
C59 C61 1.479 . S
C59 H77 0.929 . S
C60 C57 1.424 . S
C60 C59 1.384 . S
C60 H78 0.928 . S
C61 C58 1.260 . S
C61 C59 1.479 . S
C62 C57 1.245 . S
C62 C58 1.477 . S
C62 H79 0.932 . S
C63 U46 2.882 1_556 S
C63 C57 1.428 . S
C63 O66 1.301 . S
C63 O67 1.282 . S
O64 U46 2.441 . S
O64 C50 1.249 . S
O65 U46 2.420 . S
O65 C50 1.202 . S
O66 U46 2.455 1_556 S
O66 C63 1.301 . S
O67 U46 2.449 1_556 S
O67 C63 1.282 . S
H68 C41 0.931 . S
H69 C43 0.929 . S
H70 C44 0.930 . S
H71 C45 0.931 . S
H72 C52 0.932 . S
H73 C53 0.930 . S
H74 C54 0.929 . S
H75 C56 0.930 . S
H76 C58 0.932 . S
H77 C59 0.929 . S
H78 C60 0.928 . S
H79 C62 0.932 . S
C80 C81 1.264 . S
C80 C85 1.479 . S
C80 C90 1.465 . S
C81 C80 1.264 . S
C81 C83 1.339 . S
C81 H108 0.931 . S
C82 C83 1.395 . S
C82 C84 1.320 . S
C83 C81 1.339 . S
C83 C82 1.395 . S
C83 H109 0.929 . S
C84 C82 1.320 . S
C84 C85 1.405 . S
C84 H110 0.921 1_545 S
C85 C80 1.479 . S
C85 C84 1.405 . S
C85 H111 0.931 . S
U86 O87 2.454 . S
U86 O88 2.458 1_554 S
U86 C89 2.984 . S
U86 C90 2.847 . S
U86 C103 2.882 1_554 S
U86 O104 2.441 . S
U86 O105 2.420 . S
U86 O106 2.455 1_554 S
U86 O107 2.449 . S
O87 U86 2.454 . S
O87 C89 1.353 . S
O88 U86 2.458 1_556 S
O88 C89 1.286 1_556 S
C89 U86 2.984 . S
C89 O87 1.353 . S
C89 O88 1.286 1_554 S
C89 C91 1.363 . S
C90 C80 1.465 . S
C90 U86 2.847 . S
C90 O104 1.249 . S
C90 O105 1.202 . S
C91 C89 1.363 . S
C91 C93 1.408 . S
C91 C96 1.342 1_554 S
C92 C93 1.310 . S
C92 C95 1.461 1_554 S
C92 H112 0.932 . S
C93 C91 1.408 . S
C93 C92 1.310 . S
C93 H113 0.930 . S
C94 C95 1.474 1_565 S
C94 C96 1.285 1_565 S
C94 H114 0.930 . S
C95 C92 1.461 1_556 S
C95 C94 1.474 1_545 S
C96 C91 1.342 1_556 S
C96 C94 1.285 1_545 S
C96 H115 0.933 . S
C97 C100 1.424 . S
C97 C102 1.245 . S
C97 C103 1.428 . S
C98 C101 1.260 . S
C98 C102 1.477 . S
C98 H116 0.932 . S
C99 C100 1.384 . S
C99 C101 1.479 . S
C99 H117 0.929 . S
C100 C97 1.424 . S
C100 C99 1.384 . S
C100 H118 0.928 . S
C101 C98 1.260 . S
C101 C99 1.479 . S
C102 C97 1.245 . S
C102 C98 1.477 . S
C102 H119 0.932 . S
C103 U86 2.882 1_556 S
C103 C97 1.428 . S
C103 O106 1.301 . S
C103 O107 1.282 1_556 S
O104 U86 2.441 . S
O104 C90 1.249 . S
O105 U86 2.420 . S
O105 C90 1.202 . S
O106 U86 2.455 1_556 S
O106 C103 1.301 . S
O107 U86 2.449 . S
O107 C103 1.282 1_554 S
H108 C81 0.931 . S
H109 C83 0.929 . S
H110 C84 0.921 1_565 S
H111 C85 0.931 . S
H112 C92 0.932 . S
H113 C93 0.930 . S
H114 C94 0.930 . S
H115 C96 0.933 . S
H116 C98 0.932 . S
H117 C99 0.929 . S
H118 C100 0.928 . S
H119 C102 0.932 . S
C120 C121 1.264 . S
C120 C125 1.479 . S
C120 C130 1.465 . S
C121 C120 1.264 . S
C121 C123 1.339 . S
C121 H148 0.931 . S
C122 C123 1.395 . S
C122 C124 1.320 . S
C123 C121 1.339 . S
C123 C122 1.395 . S
C123 H149 0.929 . S
C124 C122 1.320 . S
C124 C125 1.405 . S
C124 H150 0.930 . S
C125 C120 1.479 . S
C125 C124 1.405 . S
C125 H151 0.931 . S
U126 O127 2.454 . S
U126 O128 2.458 1_554 S
U126 C129 2.984 . S
U126 C130 2.847 . S
U126 C143 2.882 1_554 S
U126 O144 2.441 . S
U126 O145 2.420 . S
U126 O146 2.455 1_554 S
U126 O147 2.449 . S
O127 U126 2.454 . S
O127 C129 1.353 . S
O128 U126 2.458 1_556 S
O128 C129 1.286 1_556 S
C129 U126 2.984 . S
C129 O127 1.353 . S
C129 O128 1.286 1_554 S
C129 C131 1.363 1_554 S
C130 C120 1.465 . S
C130 U126 2.847 . S
C130 O144 1.249 . S
C130 O145 1.202 . S
C131 C129 1.363 1_556 S
C131 C133 1.408 1_556 S
C131 C136 1.342 . S
C132 C133 1.310 . S
C132 C135 1.461 1_554 S
C132 H152 0.932 . S
C133 C131 1.408 1_554 S
C133 C132 1.310 . S
C133 H153 0.930 . S
C134 C135 1.474 . S
C134 C136 1.285 . S
C134 H154 0.929 . S
C135 C132 1.461 1_556 S
C135 C134 1.474 . S
C136 C131 1.342 . S
C136 C134 1.285 . S
C136 H155 0.930 . S
C137 C140 1.424 . S
C137 C142 1.245 . S
C137 C143 1.428 . S
C138 C141 1.260 . S
C138 C142 1.477 . S
C138 H156 0.932 . S
C139 C140 1.384 . S
C139 C141 1.479 . S
C139 H157 0.929 . S
C140 C137 1.424 . S
C140 C139 1.384 . S
C140 H158 0.928 . S
C141 C138 1.260 . S
C141 C139 1.479 . S
C142 C137 1.245 . S
C142 C138 1.477 . S
C142 H159 0.932 . S
C143 U126 2.882 1_556 S
C143 C137 1.428 . S
C143 O146 1.301 . S
C143 O147 1.282 1_556 S
O144 U126 2.441 . S
O144 C130 1.249 . S
O145 U126 2.420 . S
O145 C130 1.202 . S
O146 U126 2.455 1_556 S
O146 C143 1.301 . S
O147 U126 2.449 . S
O147 C143 1.282 1_554 S
H148 C121 0.931 . S
H149 C123 0.929 . S
H150 C124 0.930 . S
H151 C125 0.931 . S
H152 C132 0.932 . S
H153 C133 0.930 . S
H154 C134 0.929 . S
H155 C136 0.930 . S
H156 C138 0.932 . S
H157 C139 0.929 . S
H158 C140 0.928 . S
H159 C142 0.932 . S
C160 C161 1.264 . S
C160 C165 1.479 . S
C160 C170 1.465 1_556 S
C161 C160 1.264 . S
C161 C163 1.339 . S
C161 H188 0.931 1_556 S
C162 C163 1.395 . S
C162 C164 1.320 . S
C163 C161 1.339 . S
C163 C162 1.395 . S
C163 H189 0.929 . S
C164 C162 1.320 . S
C164 C165 1.405 . S
C164 H190 0.930 . S
C165 C160 1.479 . S
C165 C164 1.405 . S
C165 H191 0.931 . S
U166 O167 2.454 . S
U166 O168 2.458 . S
U166 C169 2.984 . S
U166 C170 2.847 . S
U166 C183 2.882 . S
U166 O184 2.441 . S
U166 O185 2.420 . S
U166 O186 2.455 . S
U166 O187 2.449 . S
O167 U166 2.454 . S
O167 C169 1.353 . S
O168 U166 2.458 . S
O168 C169 1.286 . S
C169 U166 2.984 . S
C169 O167 1.353 . S
C169 O168 1.286 . S
C169 C171 1.363 . S
C170 C160 1.465 1_554 S
C170 U166 2.847 . S
C170 O184 1.249 . S
C170 O185 1.202 . S
C171 C169 1.363 . S
C171 C173 1.408 . S
C171 C176 1.342 . S
C172 C173 1.310 . S
C172 C175 1.461 . S
C172 H192 0.932 . S
C173 C171 1.408 . S
C173 C172 1.310 . S
C173 H193 0.930 . S
C174 C175 1.474 . S
C174 C176 1.285 . S
C174 H194 0.929 . S
C175 C172 1.461 . S
C175 C174 1.474 . S
C176 C171 1.342 . S
C176 C174 1.285 . S
C176 H195 0.930 . S
C177 C180 1.424 . S
C177 C182 1.245 . S
C177 C183 1.428 . S
C178 C181 1.260 . S
C178 C182 1.477 . S
C178 H196 0.932 . S
C179 C180 1.384 . S
C179 C181 1.479 . S
C179 H197 0.929 . S
C180 C177 1.424 . S
C180 C179 1.384 . S
C180 H198 0.928 . S
C181 C178 1.260 . S
C181 C179 1.479 . S
C182 C177 1.245 . S
C182 C178 1.477 . S
C182 H199 0.932 . S
C183 U166 2.882 . S
C183 C177 1.428 . S
C183 O186 1.301 . S
C183 O187 1.282 . S
O184 U166 2.441 . S
O184 C170 1.249 . S
O185 U166 2.420 . S
O185 C170 1.202 . S
O186 U166 2.455 . S
O186 C183 1.301 . S
O187 U166 2.449 . S
O187 C183 1.282 . S
H188 C161 0.931 1_554 S
H189 C163 0.929 . S
H190 C164 0.930 . S
H191 C165 0.931 . S
H192 C172 0.932 . S
H193 C173 0.930 . S
H194 C174 0.929 . S
H195 C176 0.930 . S
H196 C178 0.932 . S
H197 C179 0.929 . S
H198 C180 0.928 . S
H199 C182 0.932 . S
C200 C201 1.262 1_554 S
C200 C205 1.479 1_554 S
C200 C210 1.465 . S
C201 C200 1.262 1_556 S
C201 C203 1.350 . S
C201 H228 0.922 1_556 S
C202 C203 1.395 . S
C202 C204 1.320 . S
C203 C201 1.350 . S
C203 C202 1.395 . S
C203 H229 0.929 . S
C204 C202 1.320 . S
C204 C205 1.405 . S
C204 H230 0.930 . S
C205 C200 1.479 1_556 S
C205 C204 1.405 . S
C205 H231 0.931 . S
U206 O207 2.454 . S
U206 O208 2.458 . S
U206 C209 2.984 . S
U206 C210 2.847 . S
U206 C223 2.882 . S
U206 O224 2.441 . S
U206 O225 2.420 . S
U206 O226 2.455 . S
U206 O227 2.449 . S
O207 U206 2.454 . S
O207 C209 1.353 . S
O208 U206 2.458 . S
O208 C209 1.286 . S
C209 U206 2.984 . S
C209 O207 1.353 . S
C209 O208 1.286 . S
C209 C211 1.363 . S
C210 C200 1.465 . S
C210 U206 2.847 . S
C210 O224 1.249 . S
C210 O225 1.202 . S
C211 C209 1.363 . S
C211 C213 1.408 . S
C211 C216 1.342 . S
C212 C213 1.310 . S
C212 C215 1.461 . S
C212 H232 0.932 . S
C213 C211 1.408 . S
C213 C212 1.310 . S
C213 H233 0.930 . S
C214 C215 1.474 . S
C214 C216 1.285 . S
C214 H234 0.929 . S
C215 C212 1.461 . S
C215 C214 1.474 . S
C216 C211 1.342 . S
C216 C214 1.285 . S
C216 H235 0.930 . S
C217 C220 1.424 . S
C217 C222 1.245 . S
C217 C223 1.428 . S
C218 C221 1.260 . S
C218 C222 1.477 . S
C218 H236 0.932 . S
C219 C220 1.384 . S
C219 C221 1.479 . S
C219 H237 0.929 . S
C220 C217 1.424 . S
C220 C219 1.384 . S
C220 H238 0.928 . S
C221 C218 1.260 . S
C221 C219 1.479 . S
C222 C217 1.245 . S
C222 C218 1.477 . S
C222 H239 0.932 . S
C223 U206 2.882 . S
C223 C217 1.428 . S
C223 O226 1.301 . S
C223 O227 1.282 . S
O224 U206 2.441 . S
O224 C210 1.249 . S
O225 U206 2.420 . S
O225 C210 1.202 . S
O226 U206 2.455 . S
O226 C223 1.301 . S
O227 U206 2.449 . S
O227 C223 1.282 . S
H228 C201 0.922 1_554 S
H229 C203 0.929 . S
H230 C204 0.930 . S
H231 C205 0.931 . S
H232 C212 0.932 . S
H233 C213 0.930 . S
H234 C214 0.929 . S
H235 C216 0.930 . S
H236 C218 0.932 . S
H237 C219 0.929 . S
H238 C220 0.928 . S
H239 C222 0.932 . S
C240 C241 1.264 . S
C240 C245 1.479 . S
C240 C250 1.465 1_556 S
C241 C240 1.264 . S
C241 C243 1.339 . S
C241 H268 0.931 1_556 S
C242 C243 1.395 . S
C242 C244 1.320 . S
C243 C241 1.339 . S
C243 C242 1.395 . S
C243 H269 0.929 . S
C244 C242 1.320 . S
C244 C245 1.405 . S
C244 H270 0.923 1_545 S
C245 C240 1.479 . S
C245 C244 1.405 . S
C245 H271 0.931 . S
U246 O247 2.454 . S
U246 O248 2.458 . S
U246 C249 2.984 . S
U246 C250 2.847 . S
U246 C263 2.882 . S
U246 O264 2.441 . S
U246 O265 2.420 . S
U246 O266 2.455 . S
U246 O267 2.449 . S
O247 U246 2.454 . S
O247 C249 1.353 . S
O248 U246 2.458 . S
O248 C249 1.286 . S
C249 U246 2.984 . S
C249 O247 1.353 . S
C249 O248 1.286 . S
C249 C251 1.363 . S
C250 C240 1.465 1_554 S
C250 U246 2.847 . S
C250 O264 1.249 . S
C250 O265 1.202 . S
C251 C249 1.363 . S
C251 C253 1.408 . S
C251 C256 1.342 . S
C252 C253 1.310 . S
C252 C255 1.462 . S
C252 H272 0.932 . S
C253 C251 1.408 . S
C253 C252 1.310 . S
C253 H273 0.930 . S
C254 C255 1.474 1_565 S
C254 C256 1.286 1_565 S
C254 H274 0.929 . S
C255 C252 1.462 . S
C255 C254 1.474 1_545 S
C256 C251 1.342 . S
C256 C254 1.286 1_545 S
C256 H275 0.933 . S
C257 C260 1.424 . S
C257 C262 1.245 . S
C257 C263 1.428 . S
C258 C261 1.260 . S
C258 C262 1.477 . S
C258 H276 0.932 . S
C259 C260 1.384 . S
C259 C261 1.479 . S
C259 H277 0.929 . S
C260 C257 1.424 . S
C260 C259 1.384 . S
C260 H278 0.928 . S
C261 C258 1.260 . S
C261 C259 1.479 . S
C262 C257 1.245 . S
C262 C258 1.477 . S
C262 H279 0.932 . S
C263 U246 2.882 . S
C263 C257 1.428 . S
C263 O266 1.301 . S
C263 O267 1.282 . S
O264 U246 2.441 . S
O264 C250 1.249 . S
O265 U246 2.420 . S
O265 C250 1.202 . S
O266 U246 2.455 . S
O266 C263 1.301 . S
O267 U246 2.449 . S
O267 C263 1.282 . S
H268 C241 0.931 1_554 S
H269 C243 0.929 . S
H270 C244 0.923 1_565 S
H271 C245 0.931 . S
H272 C252 0.932 . S
H273 C253 0.930 . S
H274 C254 0.929 . S
H275 C256 0.933 . S
H276 C258 0.932 . S
H277 C259 0.929 . S
H278 C260 0.928 . S
H279 C262 0.932 . S
C280 C281 1.264 . S
C280 C285 1.479 . S
C280 C290 1.465 1_556 S
C281 C280 1.264 . S
C281 C283 1.339 . S
C281 H308 0.931 1_556 S
C282 C283 1.395 . S
C282 C284 1.320 . S
C283 C281 1.339 . S
C283 C282 1.395 . S
C283 H309 0.929 . S
C284 C282 1.320 . S
C284 C285 1.405 . S
C284 H310 0.930 . S
C285 C280 1.479 . S
C285 C284 1.405 . S
C285 H311 0.931 . S
U286 O287 2.454 . S
U286 O288 2.458 . S
U286 C289 2.984 . S
U286 C290 2.847 . S
U286 C303 2.882 . S
U286 O304 2.441 . S
U286 O305 2.420 . S
U286 O306 2.455 . S
U286 O307 2.449 . S
O287 U286 2.454 . S
O287 C289 1.353 . S
O288 U286 2.458 . S
O288 C289 1.286 . S
C289 U286 2.984 . S
C289 O287 1.353 . S
C289 O288 1.286 . S
C289 C291 1.363 . S
C290 C280 1.465 1_554 S
C290 U286 2.847 . S
C290 O304 1.249 . S
C290 O305 1.202 . S
C291 C289 1.363 . S
C291 C293 1.408 . S
C291 C296 1.342 . S
C292 C293 1.310 . S
C292 C295 1.461 . S
C292 H312 0.932 . S
C293 C291 1.408 . S
C293 C292 1.310 . S
C293 H313 0.930 . S
C294 C295 1.474 . S
C294 C296 1.285 . S
C294 H314 0.929 . S
C295 C292 1.461 . S
C295 C294 1.474 . S
C296 C291 1.342 . S
C296 C294 1.285 . S
C296 H315 0.930 . S
C297 C300 1.424 . S
C297 C302 1.245 . S
C297 C303 1.428 . S
C298 C301 1.260 . S
C298 C302 1.477 . S
C298 H316 0.932 . S
C299 C300 1.384 . S
C299 C301 1.479 . S
C299 H317 0.929 . S
C300 C297 1.424 . S
C300 C299 1.384 . S
C300 H318 0.928 . S
C301 C298 1.260 . S
C301 C299 1.479 . S
C302 C297 1.245 . S
C302 C298 1.477 . S
C302 H319 0.932 . S
C303 U286 2.882 . S
C303 C297 1.428 . S
C303 O306 1.301 . S
C303 O307 1.282 . S
O304 U286 2.441 . S
O304 C290 1.249 . S
O305 U286 2.420 . S
O305 C290 1.202 . S
O306 U286 2.455 . S
O306 C303 1.301 . S
O307 U286 2.449 . S
O307 C303 1.282 . S
H308 C281 0.931 1_554 S
H309 C283 0.929 . S
H310 C284 0.930 . S
H311 C285 0.931 . S
H312 C292 0.932 . S
H313 C293 0.930 . S
H314 C294 0.929 . S
H315 C296 0.930 . S
H316 C298 0.932 . S
H317 C299 0.929 . S
H318 C300 0.928 . S
H319 C302 0.932 . S
Zn320 O326 1.954 1_455 S
Zn320 O327 1.965 . S
Zn320 O331 2.024 . S
Zn320 O336 1.969 1_455 S
Zn321 O328 1.923 1_655 S
Zn321 O334 1.952 1_655 S
Zn321 O335 1.982 . S
Zn321 O337 2.055 . S
C322 O323 1.229 . S
C322 O331 1.058 . S
O323 C322 1.229 . S
C324 O325 1.246 . S
C324 O337 1.058 . S
O325 C324 1.246 . S
O326 Zn320 1.954 1_655 S
O326 C329 1.231 1_655 S
O327 Zn320 1.965 . S
O327 C338 1.260 1_545 S
O328 Zn321 1.923 1_455 S
O328 C338 1.258 . S
C329 O326 1.231 1_455 S
C329 O330 1.228 . S
O330 C329 1.228 . S
O331 Zn320 2.024 . S
O331 C322 1.058 . S
C332 O333 1.228 . S
C332 O334 1.267 1_655 S
O333 C332 1.228 . S
O334 Zn321 1.952 1_455 S
O334 C332 1.267 1_455 S
O335 Zn321 1.982 . S
O335 C339 1.260 1_565 S
O336 Zn320 1.969 1_655 S
O336 C339 1.258 . S
O337 Zn321 2.055 . S
O337 C324 1.058 . S
C338 O327 1.260 1_565 S
C338 O328 1.258 . S
C339 O335 1.260 1_545 S
C339 O336 1.258 . S
Zn340 O346 1.969 . S
Zn340 O347 1.965 1_565 S
Zn340 O351 2.024 1_565 S
Zn340 O356 1.969 . S
Zn341 O348 1.969 . S
Zn341 O354 1.969 . S
Zn341 O355 1.965 1_545 S
Zn341 O357 2.024 1_545 S
C342 O343 1.229 1_545 S
C342 O351 1.058 . S
O343 C342 1.229 1_565 S
C344 O345 1.229 1_565 S
C344 O357 1.058 . S
O345 C344 1.229 1_545 S
O346 Zn340 1.969 . S
O346 C349 1.267 . S
O347 Zn340 1.965 1_545 S
O347 C358 1.260 . S
O348 Zn341 1.969 . S
O348 C358 1.258 . S
C349 O346 1.267 . S
C349 O350 1.228 1_565 S
O350 C349 1.228 1_545 S
O351 Zn340 2.024 1_545 S
O351 C342 1.058 . S
C352 O353 1.228 1_545 S
C352 O354 1.267 . S
O353 C352 1.228 1_565 S
O354 Zn341 1.969 . S
O354 C352 1.267 . S
O355 Zn341 1.965 1_565 S
O355 C359 1.260 . S
O356 Zn340 1.969 . S
O356 C359 1.258 . S
O357 Zn341 2.024 1_565 S
O357 C344 1.058 . S
C358 O347 1.260 . S
C358 O348 1.258 . S
C359 O355 1.260 . S
C359 O356 1.258 . S
Zn360 O366 1.969 . S
Zn360 O367 1.965 . S
Zn360 O371 2.024 . S
Zn360 O376 1.969 . S
Zn361 O368 1.969 . S
Zn361 O374 1.969 . S
Zn361 O375 1.965 . S
Zn361 O377 2.024 . S
C362 O363 1.229 . S
C362 O371 1.058 . S
O363 C362 1.229 . S
C364 O365 1.229 . S
C364 O377 1.058 . S
O365 C364 1.229 . S
O366 Zn360 1.969 . S
O366 C369 1.267 . S
O367 Zn360 1.965 . S
O367 C378 1.260 . S
O368 Zn361 1.969 . S
O368 C378 1.258 . S
C369 O366 1.267 . S
C369 O370 1.228 . S
O370 C369 1.228 . S
O371 Zn360 2.024 . S
O371 C362 1.058 . S
C372 O373 1.228 . S
C372 O374 1.267 . S
O373 C372 1.228 . S
O374 Zn361 1.969 . S
O374 C372 1.267 . S
O375 Zn361 1.965 . S
O375 C379 1.260 . S
O376 Zn360 1.969 . S
O376 C379 1.258 . S
O377 Zn361 2.024 . S
O377 C364 1.058 . S
C378 O367 1.260 . S
C378 O368 1.258 . S
C379 O375 1.260 . S
C379 O376 1.258 . S
Zn380 O386 1.969 . S
Zn380 O387 1.965 . S
Zn380 O391 2.024 . S
Zn380 O396 1.969 . S
Zn381 O388 1.969 . S
Zn381 O394 1.969 . S
Zn381 O395 1.965 . S
Zn381 O397 2.024 . S
C382 O383 1.229 . S
C382 O391 1.058 . S
O383 C382 1.229 . S
C384 O385 1.229 . S
C384 O397 1.058 . S
O385 C384 1.229 . S
O386 Zn380 1.969 . S
O386 C389 1.267 . S
O387 Zn380 1.965 . S
O387 C398 1.260 . S
O388 Zn381 1.969 . S
O388 C398 1.258 1_655 S
C389 O386 1.267 . S
C389 O390 1.228 . S
O390 C389 1.228 . S
O391 Zn380 2.024 . S
O391 C382 1.058 . S
C392 O393 1.228 . S
C392 O394 1.267 . S
O393 C392 1.228 . S
O394 Zn381 1.969 . S
O394 C392 1.267 . S
O395 Zn381 1.965 . S
O395 C399 1.284 . S
O396 Zn380 1.969 . S
O396 C399 1.210 1_455 S
O397 Zn381 2.024 . S
O397 C384 1.058 . S
C398 O387 1.260 . S
C398 O388 1.258 1_455 S
C399 O395 1.284 . S
C399 O396 1.210 1_655 S
H400 C408 0.950 . S
H401 C413 0.950 . S
H402 C410 0.950 . S
H403 C412 0.950 . S
H404 C414 0.950 . S
H405 C416 0.950 . S
H406 C418 0.950 . S
H407 C419 0.950 . S
C408 H400 0.950 . S
C408 C409 1.386 . S
C408 C410 1.391 . S
C409 C408 1.386 . S
C409 C413 1.393 1_545 S
C410 H402 0.950 . S
C410 C408 1.391 . S
C410 C411 1.400 1_545 S
C411 C410 1.400 1_565 S
C411 C412 1.398 . S
C411 C417 1.491 . S
C412 H403 0.950 . S
C412 C411 1.398 . S
C412 C413 1.391 . S
C413 H401 0.950 . S
C413 C409 1.393 1_565 S
C413 C412 1.391 . S
C414 H404 0.950 . S
C414 C415 1.386 . S
C414 C416 1.391 . S
C415 C414 1.386 . S
C415 C419 1.393 1_565 S
C416 H405 0.950 . S
C416 C414 1.391 . S
C416 C417 1.400 . S
C417 C411 1.491 . S
C417 C416 1.400 . S
C417 C418 1.398 1_565 S
C418 H406 0.950 . S
C418 C417 1.398 1_545 S
C418 C419 1.391 . S
C419 H407 0.950 . S
C419 C415 1.393 1_545 S
C419 C418 1.391 . S
H420 C428 0.950 . S
H421 C433 0.950 . S
H422 C430 0.950 . S
H423 C432 0.950 . S
H424 C434 0.950 . S
H425 C436 0.950 . S
H426 C438 0.950 . S
H427 C439 0.950 . S
C428 H420 0.950 . S
C428 C429 1.386 . S
C428 C430 1.391 . S
C429 C428 1.386 . S
C429 C433 1.393 . S
C430 H422 0.950 . S
C430 C428 1.391 . S
C430 C431 1.400 . S
C431 C430 1.400 . S
C431 C432 1.398 . S
C431 C437 1.491 . S
C432 H423 0.950 . S
C432 C431 1.398 . S
C432 C433 1.391 . S
C433 H421 0.950 . S
C433 C429 1.393 . S
C433 C432 1.391 . S
C434 H424 0.950 . S
C434 C435 1.386 . S
C434 C436 1.391 . S
C435 C434 1.386 . S
C435 C439 1.393 . S
C436 H425 0.950 . S
C436 C434 1.391 . S
C436 C437 1.400 . S
C437 C431 1.491 . S
C437 C436 1.400 . S
C437 C438 1.398 . S
C438 H426 0.950 . S
C438 C437 1.398 . S
C438 C439 1.391 . S
C439 H427 0.950 . S
C439 C435 1.393 . S
C439 C438 1.391 . S
H440 C448 0.950 . S
H441 C453 0.950 . S
H442 C450 0.950 . S
H443 C452 0.950 . S
H444 C454 0.950 . S
H445 C456 0.950 . S
H446 C458 0.950 . S
H447 C459 0.950 . S
C448 H440 0.950 . S
C448 C449 1.386 . S
C448 C450 1.391 . S
C449 C448 1.386 . S
C449 C453 1.393 . S
C450 H442 0.950 . S
C450 C448 1.391 . S
C450 C451 1.400 . S
C451 C450 1.400 . S
C451 C452 1.398 . S
C451 C457 1.491 . S
C452 H443 0.950 . S
C452 C451 1.398 . S
C452 C453 1.391 . S
C453 H441 0.950 . S
C453 C449 1.393 . S
C453 C452 1.391 . S
C454 H444 0.950 . S
C454 C455 1.386 . S
C454 C456 1.391 . S
C455 C454 1.386 . S
C455 C459 1.393 . S
C456 H445 0.950 . S
C456 C454 1.391 . S
C456 C457 1.400 . S
C457 C451 1.491 . S
C457 C456 1.400 . S
C457 C458 1.398 . S
C458 H446 0.950 . S
C458 C457 1.398 . S
C458 C459 1.391 . S
C459 H447 0.950 . S
C459 C455 1.393 . S
C459 C458 1.391 . S
H460 C468 0.950 . S
H461 C473 0.950 . S
H462 C470 0.950 . S
H463 C472 0.950 . S
H464 C474 0.950 . S
H465 C476 0.950 . S
H466 C478 0.950 . S
H467 C479 0.950 . S
C468 H460 0.950 . S
C468 C469 1.386 . S
C468 C470 1.391 . S
C469 C468 1.386 . S
C469 C473 1.393 . S
C470 H462 0.950 . S
C470 C468 1.391 . S
C470 C471 1.400 . S
C471 C470 1.400 . S
C471 C472 1.398 . S
C471 C477 1.491 . S
C472 H463 0.950 . S
C472 C471 1.398 . S
C472 C473 1.391 . S
C473 H461 0.950 . S
C473 C469 1.393 . S
C473 C472 1.391 . S
C474 H464 0.950 . S
C474 C475 1.386 . S
C474 C476 1.391 . S
C475 C474 1.386 . S
C475 C479 1.393 . S
C476 H465 0.950 . S
C476 C474 1.391 . S
C476 C477 1.400 . S
C477 C471 1.491 . S
C477 C476 1.400 . S
C477 C478 1.398 . S
C478 H466 0.950 . S
C478 C477 1.398 . S
C478 C479 1.391 . S
C479 H467 0.950 . S
C479 C475 1.393 . S
C479 C478 1.391 . S
H480 C488 0.950 . S
H481 C493 0.950 . S
H482 C490 0.950 . S
H483 C492 0.950 . S
H484 C494 0.950 . S
H485 C496 0.950 . S
H486 C498 0.950 . S
H487 C499 0.950 . S
C488 H480 0.950 . S
C488 C489 1.424 . S
C488 C490 1.391 . S
C489 C488 1.424 . S
C489 C493 1.358 1_545 S
C490 H482 0.950 . S
C490 C488 1.391 . S
C490 C491 1.400 . S
C491 C490 1.400 . S
C491 C492 1.398 1_545 S
C491 C497 1.491 . S
C492 H483 0.950 . S
C492 C491 1.398 1_565 S
C492 C493 1.391 . S
C493 H481 0.950 . S
C493 C489 1.358 1_565 S
C493 C492 1.391 . S
C494 H484 0.950 . S
C494 C495 1.386 1_565 S
C494 C496 1.391 . S
C495 C494 1.386 1_545 S
C495 C499 1.393 . S
C496 H485 0.950 . S
C496 C494 1.391 . S
C496 C497 1.400 1_565 S
C497 C491 1.491 . S
C497 C496 1.400 1_545 S
C497 C498 1.398 . S
C498 H486 0.950 . S
C498 C497 1.398 . S
C498 C499 1.391 . S
C499 H487 0.950 . S
C499 C495 1.393 . S
C499 C498 1.391 . S
H500 C508 0.950 . S
H501 C513 0.950 . S
H502 C510 0.950 . S
H503 C512 0.950 . S
H504 C514 0.950 . S
H505 C516 0.950 . S
H506 C518 0.950 . S
H507 C519 0.950 . S
C508 H500 0.950 . S
C508 C509 1.386 . S
C508 C510 1.391 . S
C509 C508 1.386 . S
C509 C513 1.393 . S
C510 H502 0.950 . S
C510 C508 1.391 . S
C510 C511 1.400 . S
C511 C510 1.400 . S
C511 C512 1.398 . S
C511 C517 1.491 . S
C512 H503 0.950 . S
C512 C511 1.398 . S
C512 C513 1.391 . S
C513 H501 0.950 . S
C513 C509 1.393 . S
C513 C512 1.391 . S
C514 H504 0.950 . S
C514 C515 1.386 . S
C514 C516 1.391 . S
C515 C514 1.386 . S
C515 C519 1.393 . S
C516 H505 0.950 . S
C516 C514 1.391 . S
C516 C517 1.400 . S
C517 C511 1.491 . S
C517 C516 1.400 . S
C517 C518 1.398 . S
C518 H506 0.950 . S
C518 C517 1.398 . S
C518 C519 1.391 . S
C519 H507 0.950 . S
C519 C515 1.393 . S
C519 C518 1.391 . S
H520 C528 0.950 . S
H521 C533 0.950 . S
H522 C530 0.950 . S
H523 C532 0.950 . S
H524 C534 0.950 . S
H525 C536 0.950 . S
H526 C538 0.950 . S
H527 C539 0.950 . S
C528 H520 0.950 . S
C528 C529 1.386 . S
C528 C530 1.391 . S
C529 C528 1.386 . S
C529 C533 1.393 . S
C530 H522 0.950 . S
C530 C528 1.391 . S
C530 C531 1.400 . S
C531 C530 1.400 . S
C531 C532 1.398 . S
C531 C537 1.491 . S
C532 H523 0.950 . S
C532 C531 1.398 . S
C532 C533 1.391 . S
C533 H521 0.950 . S
C533 C529 1.393 . S
C533 C532 1.391 . S
C534 H524 0.950 . S
C534 C535 1.386 . S
C534 C536 1.391 . S
C535 C534 1.386 . S
C535 C539 1.393 . S
C536 H525 0.950 . S
C536 C534 1.391 . S
C536 C537 1.400 . S
C537 C531 1.491 . S
C537 C536 1.400 . S
C537 C538 1.398 . S
C538 H526 0.950 . S
C538 C537 1.398 . S
C538 C539 1.391 . S
C539 H527 0.950 . S
C539 C535 1.393 . S
C539 C538 1.391 . S
H540 C548 0.950 . S
H541 C553 0.950 . S
H542 C550 0.950 . S
H543 C552 0.950 . S
H544 C554 0.950 . S
H545 C556 0.950 . S
H546 C558 0.950 . S
H547 C559 0.950 . S
C548 H540 0.950 . S
C548 C549 1.386 . S
C548 C550 1.391 . S
C549 C548 1.386 . S
C549 C553 1.393 . S
C550 H542 0.950 . S
C550 C548 1.391 . S
C550 C551 1.400 . S
C551 C550 1.400 . S
C551 C552 1.398 . S
C551 C557 1.491 . S
C552 H543 0.950 . S
C552 C551 1.398 . S
C552 C553 1.391 . S
C553 H541 0.950 . S
C553 C549 1.393 . S
C553 C552 1.391 . S
C554 H544 0.950 . S
C554 C555 1.386 . S
C554 C556 1.391 . S
C555 C554 1.386 . S
C555 C559 1.393 . S
C556 H545 0.950 . S
C556 C554 1.391 . S
C556 C557 1.400 . S
C557 C551 1.491 . S
C557 C556 1.400 . S
C557 C558 1.398 . S
C558 H546 0.950 . S
C558 C557 1.398 . S
C558 C559 1.391 . S
C559 H547 0.950 . S
C559 C555 1.393 . S
C559 C558 1.391 . S
H560 C568 0.950 . S
H561 C573 0.950 . S
H562 C570 0.950 . S
H563 C572 0.950 . S
H564 C574 0.950 . S
H565 C576 0.950 . S
H566 C578 0.950 . S
H567 C579 0.950 1_655 S
C568 H560 0.950 . S
C568 C569 1.386 . S
C568 C570 1.391 . S
C569 C568 1.386 . S
C569 C573 1.393 . S
C570 H562 0.950 . S
C570 C568 1.391 . S
C570 C571 1.400 . S
C571 C570 1.400 . S
C571 C572 1.398 . S
C571 C577 1.491 . S
C572 H563 0.950 . S
C572 C571 1.398 . S
C572 C573 1.391 . S
C573 H561 0.950 . S
C573 C569 1.393 . S
C573 C572 1.391 . S
C574 H564 0.950 . S
C574 C575 1.386 . S
C574 C576 1.391 . S
C575 C574 1.386 . S
C575 C579 1.393 . S
C576 H565 0.950 . S
C576 C574 1.391 . S
C576 C577 1.400 . S
C577 C571 1.491 . S
C577 C576 1.400 . S
C577 C578 1.398 . S
C578 H566 0.950 . S
C578 C577 1.398 . S
C578 C579 1.391 . S
C579 H567 0.950 1_455 S
C579 C575 1.393 . S
C579 C578 1.391 . S
H580 C588 0.950 . S
H581 C593 0.950 . S
H582 C590 0.950 . S
H583 C592 0.950 . S
H584 C594 0.950 . S
H585 C596 0.950 . S
H586 C598 0.950 . S
H587 C599 0.950 . S
C588 H580 0.950 . S
C588 C589 1.383 . S
C588 C590 1.391 . S
C589 C588 1.383 . S
C589 C593 1.397 1_545 S
C590 H582 0.950 . S
C590 C588 1.391 . S
C590 C591 1.400 1_545 S
C591 C590 1.400 1_565 S
C591 C592 1.398 . S
C591 C597 1.491 . S
C592 H583 0.950 . S
C592 C591 1.398 . S
C592 C593 1.391 . S
C593 H581 0.950 . S
C593 C589 1.397 1_565 S
C593 C592 1.391 . S
C594 H584 0.950 . S
C594 C595 1.386 . S
C594 C596 1.391 . S
C595 C594 1.386 . S
C595 C599 1.393 1_565 S
C596 H585 0.950 . S
C596 C594 1.391 . S
C596 C597 1.400 . S
C597 C591 1.491 . S
C597 C596 1.400 . S
C597 C598 1.398 1_565 S
C598 H586 0.950 . S
C598 C597 1.398 1_545 S
C598 C599 1.391 . S
C599 H587 0.950 . S
C599 C595 1.393 1_545 S
C599 C598 1.391 . S
H600 C608 0.950 . S
H601 C613 0.950 . S
H602 C610 0.950 . S
H603 C612 0.950 . S
H604 C614 0.950 . S
H605 C616 0.950 . S
H606 C618 0.950 . S
H607 C619 0.950 . S
C608 H600 0.950 . S
C608 C609 1.386 . S
C608 C610 1.391 . S
C609 C608 1.386 . S
C609 C613 1.393 . S
C610 H602 0.950 . S
C610 C608 1.391 . S
C610 C611 1.400 . S
C611 C610 1.400 . S
C611 C612 1.398 . S
C611 C617 1.491 . S
C612 H603 0.950 . S
C612 C611 1.398 . S
C612 C613 1.391 . S
C613 H601 0.950 . S
C613 C609 1.393 . S
C613 C612 1.391 . S
C614 H604 0.950 . S
C614 C615 1.386 . S
C614 C616 1.391 . S
C615 C614 1.386 . S
C615 C619 1.393 . S
C616 H605 0.950 . S
C616 C614 1.391 . S
C616 C617 1.400 . S
C617 C611 1.491 . S
C617 C616 1.400 . S
C617 C618 1.398 . S
C618 H606 0.950 . S
C618 C617 1.398 . S
C618 C619 1.391 . S
C619 H607 0.950 . S
C619 C615 1.393 . S
C619 C618 1.391 . S
H620 C628 0.950 . S
H621 C633 0.950 . S
H622 C630 0.950 . S
H623 C632 0.950 . S
H624 C634 0.950 . S
H625 C636 0.950 . S
H626 C638 0.950 . S
H627 C639 0.950 . S
C628 H620 0.950 . S
C628 C629 1.386 . S
C628 C630 1.391 . S
C629 C628 1.386 . S
C629 C633 1.393 . S
C630 H622 0.950 . S
C630 C628 1.391 . S
C630 C631 1.400 . S
C631 C630 1.400 . S
C631 C632 1.398 . S
C631 C637 1.491 . S
C632 H623 0.950 . S
C632 C631 1.398 . S
C632 C633 1.391 . S
C633 H621 0.950 . S
C633 C629 1.393 . S
C633 C632 1.391 . S
C634 H624 0.950 . S
C634 C635 1.386 . S
C634 C636 1.391 . S
C635 C634 1.386 . S
C635 C639 1.393 . S
C636 H625 0.950 . S
C636 C634 1.391 . S
C636 C637 1.400 . S
C637 C631 1.491 . S
C637 C636 1.400 . S
C637 C638 1.398 . S
C638 H626 0.950 . S
C638 C637 1.398 . S
C638 C639 1.391 . S
C639 H627 0.950 . S
C639 C635 1.393 . S
C639 C638 1.391 . S
H640 C648 0.950 . S
H641 C653 0.950 . S
H642 C650 0.950 . S
H643 C652 0.950 . S
H644 C654 0.950 1_455 S
H645 C656 0.950 . S
H646 C658 0.950 . S
H647 C659 0.950 . S
C648 H640 0.950 . S
C648 C649 1.386 . S
C648 C650 1.391 . S
C649 C648 1.386 . S
C649 C653 1.393 . S
C650 H642 0.950 . S
C650 C648 1.391 . S
C650 C651 1.400 . S
C651 C650 1.400 . S
C651 C652 1.398 . S
C651 C657 1.491 . S
C652 H643 0.950 . S
C652 C651 1.398 . S
C652 C653 1.391 . S
C653 H641 0.950 . S
C653 C649 1.393 . S
C653 C652 1.391 . S
C654 H644 0.950 1_655 S
C654 C655 1.386 . S
C654 C656 1.391 . S
C655 C654 1.386 . S
C655 C659 1.393 . S
C656 H645 0.950 . S
C656 C654 1.391 . S
C656 C657 1.400 . S
C657 C651 1.491 . S
C657 C656 1.400 . S
C657 C658 1.398 . S
C658 H646 0.950 . S
C658 C657 1.398 . S
C658 C659 1.391 . S
C659 H647 0.950 . S
C659 C655 1.393 . S
C659 C658 1.391 . S
H660 C668 0.950 . S
H661 C673 0.950 . S
H662 C670 0.950 . S
H663 C672 0.950 . S
H664 C674 0.950 . S
H665 C676 0.950 . S
H666 C678 0.950 . S
H667 C679 0.950 . S
C668 H660 0.950 . S
C668 C669 1.410 . S
C668 C670 1.391 . S
C669 C668 1.410 . S
C669 C673 1.365 1_565 S
C670 H662 0.950 . S
C670 C668 1.391 . S
C670 C671 1.400 1_565 S
C671 C670 1.400 1_545 S
C671 C672 1.398 . S
C671 C677 1.491 . S
C672 H663 0.950 . S
C672 C671 1.398 . S
C672 C673 1.391 . S
C673 H661 0.950 . S
C673 C669 1.365 1_545 S
C673 C672 1.391 . S
C674 H664 0.950 . S
C674 C675 1.386 . S
C674 C676 1.391 . S
C675 C674 1.386 . S
C675 C679 1.393 1_545 S
C676 H665 0.950 . S
C676 C674 1.391 . S
C676 C677 1.400 . S
C677 C671 1.491 . S
C677 C676 1.400 . S
C677 C678 1.398 1_545 S
C678 H666 0.950 . S
C678 C677 1.398 1_565 S
C678 C679 1.391 . S
C679 H667 0.950 . S
C679 C675 1.393 1_565 S
C679 C678 1.391 . S
H680 C688 0.950 . S
H681 C693 0.950 . S
H682 C690 0.950 . S
H683 C692 0.950 . S
H684 C694 0.950 . S
H685 C696 0.950 . S
H686 C698 0.950 . S
H687 C699 0.950 . S
C688 H680 0.950 . S
C688 C689 1.386 . S
C688 C690 1.391 . S
C689 C688 1.386 . S
C689 C693 1.393 . S
C690 H682 0.950 . S
C690 C688 1.391 . S
C690 C691 1.400 . S
C691 C690 1.400 . S
C691 C692 1.398 . S
C691 C697 1.491 . S
C692 H683 0.950 . S
C692 C691 1.398 . S
C692 C693 1.391 . S
C693 H681 0.950 . S
C693 C689 1.393 . S
C693 C692 1.391 . S
C694 H684 0.950 . S
C694 C695 1.386 . S
C694 C696 1.391 . S
C695 C694 1.386 . S
C695 C699 1.393 . S
C696 H685 0.950 . S
C696 C694 1.391 . S
C696 C697 1.400 . S
C697 C691 1.491 . S
C697 C696 1.400 . S
C697 C698 1.398 . S
C698 H686 0.950 . S
C698 C697 1.398 . S
C698 C699 1.391 . S
C699 H687 0.950 . S
C699 C695 1.393 . S
C699 C698 1.391 . S
H700 C708 0.950 . S
H701 C713 0.950 . S
H702 C710 0.950 . S
H703 C712 0.950 . S
H704 C714 0.950 . S
H705 C716 0.950 . S
H706 C718 0.950 . S
H707 C719 0.950 . S
C708 H700 0.950 . S
C708 C709 1.386 . S
C708 C710 1.391 . S
C709 C708 1.386 . S
C709 C713 1.393 . S
C710 H702 0.950 . S
C710 C708 1.391 . S
C710 C711 1.400 . S
C711 C710 1.400 . S
C711 C712 1.398 . S
C711 C717 1.491 . S
C712 H703 0.950 . S
C712 C711 1.398 . S
C712 C713 1.391 . S
C713 H701 0.950 . S
C713 C709 1.393 . S
C713 C712 1.391 . S
C714 H704 0.950 . S
C714 C715 1.386 . S
C714 C716 1.391 . S
C715 C714 1.386 . S
C715 C719 1.393 . S
C716 H705 0.950 . S
C716 C714 1.391 . S
C716 C717 1.400 . S
C717 C711 1.491 . S
C717 C716 1.400 . S
C717 C718 1.398 . S
C718 H706 0.950 . S
C718 C717 1.398 . S
C718 C719 1.391 . S
C719 H707 0.950 . S
C719 C715 1.393 . S
C719 C718 1.391 . S
H720 C728 0.950 . S
H721 C733 0.950 . S
H722 C730 0.950 . S
H723 C732 0.950 . S
H724 C734 0.950 . S
H725 C736 0.950 . S
H726 C738 0.950 . S
H727 C739 0.950 . S
C728 H720 0.950 . S
C728 C729 1.386 . S
C728 C730 1.391 . S
C729 C728 1.386 . S
C729 C733 1.393 . S
C730 H722 0.950 . S
C730 C728 1.391 . S
C730 C731 1.400 . S
C731 C730 1.400 . S
C731 C732 1.398 . S
C731 C737 1.491 . S
C732 H723 0.950 . S
C732 C731 1.398 . S
C732 C733 1.391 . S
C733 H721 0.950 . S
C733 C729 1.393 . S
C733 C732 1.391 . S
C734 H724 0.950 . S
C734 C735 1.386 . S
C734 C736 1.391 . S
C735 C734 1.386 . S
C735 C739 1.393 . S
C736 H725 0.950 . S
C736 C734 1.391 . S
C736 C737 1.400 . S
C737 C731 1.491 . S
C737 C736 1.400 . S
C737 C738 1.398 . S
C738 H726 0.950 . S
C738 C737 1.398 . S
C738 C739 1.391 . S
C739 H727 0.950 . S
C739 C735 1.393 . S
C739 C738 1.391 . S
H740 C748 0.950 . S
H741 C753 0.950 . S
H742 C750 0.950 . S
H743 C752 0.950 . S
H744 C754 0.950 . S
H745 C756 0.950 . S
H746 C758 0.950 . S
H747 C759 0.950 . S
C748 H740 0.950 . S
C748 C749 1.375 1_565 S
C748 C750 1.391 . S
C749 C748 1.375 1_545 S
C749 C753 1.405 . S
C750 H742 0.950 . S
C750 C748 1.391 . S
C750 C751 1.400 1_565 S
C751 C750 1.400 1_545 S
C751 C752 1.398 . S
C751 C757 1.491 . S
C752 H743 0.950 . S
C752 C751 1.398 . S
C752 C753 1.391 . S
C753 H741 0.950 . S
C753 C749 1.405 . S
C753 C752 1.391 . S
C754 H744 0.950 . S
C754 C755 1.386 . S
C754 C756 1.391 . S
C755 C754 1.386 . S
C755 C759 1.393 1_545 S
C756 H745 0.950 . S
C756 C754 1.391 . S
C756 C757 1.400 . S
C757 C751 1.491 . S
C757 C756 1.400 . S
C757 C758 1.398 1_545 S
C758 H746 0.950 . S
C758 C757 1.398 1_565 S
C758 C759 1.391 . S
C759 H747 0.950 . S
C759 C755 1.393 1_565 S
C759 C758 1.391 . S
H760 C768 0.950 . S
H761 C773 0.950 . S
H762 C770 0.950 . S
H763 C772 0.950 . S
H764 C774 0.950 . S
H765 C776 0.950 . S
H766 C778 0.950 . S
H767 C779 0.950 . S
C768 H760 0.950 . S
C768 C769 1.386 . S
C768 C770 1.391 . S
C769 C768 1.386 . S
C769 C773 1.393 . S
C770 H762 0.950 . S
C770 C768 1.391 . S
C770 C771 1.400 . S
C771 C770 1.400 . S
C771 C772 1.398 . S
C771 C777 1.491 . S
C772 H763 0.950 . S
C772 C771 1.398 . S
C772 C773 1.391 . S
C773 H761 0.950 . S
C773 C769 1.393 . S
C773 C772 1.391 . S
C774 H764 0.950 . S
C774 C775 1.386 . S
C774 C776 1.391 . S
C775 C774 1.386 . S
C775 C779 1.393 . S
C776 H765 0.950 . S
C776 C774 1.391 . S
C776 C777 1.400 . S
C777 C771 1.491 . S
C777 C776 1.400 . S
C777 C778 1.398 . S
C778 H766 0.950 . S
C778 C777 1.398 . S
C778 C779 1.391 . S
C779 H767 0.950 . S
C779 C775 1.393 . S
C779 C778 1.391 . S
H780 C788 0.950 . S
H781 C793 0.950 . S
H782 C790 0.950 . S
H783 C792 0.950 . S
H784 C794 0.950 . S
H785 C796 0.950 . S
H786 C798 0.950 . S
H787 C799 0.950 . S
C788 H780 0.950 . S
C788 C789 1.386 . S
C788 C790 1.391 . S
C789 C788 1.386 . S
C789 C793 1.393 . S
C790 H782 0.950 . S
C790 C788 1.391 . S
C790 C791 1.400 . S
C791 C790 1.400 . S
C791 C792 1.398 . S
C791 C797 1.491 . S
C792 H783 0.950 . S
C792 C791 1.398 . S
C792 C793 1.391 . S
C793 H781 0.950 . S
C793 C789 1.393 . S
C793 C792 1.391 . S
C794 H784 0.950 . S
C794 C795 1.386 . S
C794 C796 1.391 . S
C795 C794 1.386 . S
C795 C799 1.393 . S
C796 H785 0.950 . S
C796 C794 1.391 . S
C796 C797 1.400 . S
C797 C791 1.491 . S
C797 C796 1.400 . S
C797 C798 1.398 . S
C798 H786 0.950 . S
C798 C797 1.398 . S
C798 C799 1.391 . S
C799 H787 0.950 . S
C799 C795 1.393 . S
C799 C798 1.391 . S
H800 C808 0.950 . S
H801 C813 0.950 . S
H802 C810 0.950 . S
H803 C812 0.950 . S
H804 C814 0.950 . S
H805 C816 0.950 . S
H806 C818 0.950 . S
H807 C819 0.950 . S
C808 H800 0.950 . S
C808 C809 1.386 . S
C808 C810 1.391 . S
C809 C808 1.386 . S
C809 C813 1.393 . S
C810 H802 0.950 . S
C810 C808 1.391 . S
C810 C811 1.400 . S
C811 C810 1.400 . S
C811 C812 1.398 . S
C811 C817 1.491 . S
C812 H803 0.950 . S
C812 C811 1.398 . S
C812 C813 1.391 . S
C813 H801 0.950 . S
C813 C809 1.393 . S
C813 C812 1.391 . S
C814 H804 0.950 . S
C814 C815 1.386 . S
C814 C816 1.391 . S
C815 C814 1.386 . S
C815 C819 1.393 . S
C816 H805 0.950 . S
C816 C814 1.391 . S
C816 C817 1.400 . S
C817 C811 1.491 . S
C817 C816 1.400 . S
C817 C818 1.398 . S
C818 H806 0.950 . S
C818 C817 1.398 . S
C818 C819 1.391 . S
C819 H807 0.950 . S
C819 C815 1.393 . S
C819 C818 1.391 . S
H820 C828 0.950 . S
H821 C833 0.950 . S
H822 C830 0.950 . S
H823 C832 0.950 . S
H824 C834 0.950 . S
H825 C836 0.950 . S
H826 C838 0.950 . S
H827 C839 0.950 . S
C828 H820 0.950 . S
C828 C829 1.386 . S
C828 C830 1.391 . S
C829 C828 1.386 . S
C829 C833 1.393 1_565 S
C830 H822 0.950 . S
C830 C828 1.391 . S
C830 C831 1.400 . S
C831 C830 1.400 . S
C831 C832 1.398 1_565 S
C831 C837 1.491 . S
C832 H823 0.950 . S
C832 C831 1.398 1_545 S
C832 C833 1.391 . S
C833 H821 0.950 . S
C833 C829 1.393 1_545 S
C833 C832 1.391 . S
C834 H824 0.950 . S
C834 C835 1.386 1_545 S
C834 C836 1.391 . S
C835 C834 1.386 1_565 S
C835 C839 1.393 . S
C836 H825 0.950 . S
C836 C834 1.391 . S
C836 C837 1.400 1_545 S
C837 C831 1.491 . S
C837 C836 1.400 1_565 S
C837 C838 1.398 . S
C838 H826 0.950 . S
C838 C837 1.398 . S
C838 C839 1.391 . S
C839 H827 0.950 . S
C839 C835 1.393 . S
C839 C838 1.391 . S
H840 C848 0.950 . S
H841 C853 0.950 . S
H842 C850 0.950 . S
H843 C852 0.950 . S
H844 C854 0.950 . S
H845 C856 0.950 . S
H846 C858 0.950 . S
H847 C859 0.950 . S
C848 H840 0.950 . S
C848 C849 1.386 . S
C848 C850 1.391 . S
C849 C848 1.386 . S
C849 C853 1.393 . S
C850 H842 0.950 . S
C850 C848 1.391 . S
C850 C851 1.400 . S
C851 C850 1.400 . S
C851 C852 1.398 . S
C851 C857 1.491 . S
C852 H843 0.950 . S
C852 C851 1.398 . S
C852 C853 1.391 . S
C853 H841 0.950 . S
C853 C849 1.393 . S
C853 C852 1.391 . S
C854 H844 0.950 . S
C854 C855 1.386 . S
C854 C856 1.391 . S
C855 C854 1.386 . S
C855 C859 1.393 . S
C856 H845 0.950 . S
C856 C854 1.391 . S
C856 C857 1.400 . S
C857 C851 1.491 . S
C857 C856 1.400 . S
C857 C858 1.398 . S
C858 H846 0.950 . S
C858 C857 1.398 . S
C858 C859 1.391 . S
C859 H847 0.950 . S
C859 C855 1.393 . S
C859 C858 1.391 . S
H860 C868 0.950 . S
H861 C873 0.950 . S
H862 C870 0.950 . S
H863 C872 0.950 . S
H864 C874 0.950 . S
H865 C876 0.950 . S
H866 C878 0.950 . S
H867 C879 0.950 . S
C868 H860 0.950 . S
C868 C869 1.386 . S
C868 C870 1.391 . S
C869 C868 1.386 . S
C869 C873 1.393 . S
C870 H862 0.950 . S
C870 C868 1.391 . S
C870 C871 1.400 . S
C871 C870 1.400 . S
C871 C872 1.398 . S
C871 C877 1.491 . S
C872 H863 0.950 . S
C872 C871 1.398 . S
C872 C873 1.391 . S
C873 H861 0.950 . S
C873 C869 1.393 . S
C873 C872 1.391 . S
C874 H864 0.950 . S
C874 C875 1.386 . S
C874 C876 1.391 . S
C875 C874 1.386 . S
C875 C879 1.393 . S
C876 H865 0.950 . S
C876 C874 1.391 . S
C876 C877 1.400 . S
C877 C871 1.491 . S
C877 C876 1.400 . S
C877 C878 1.398 . S
C878 H866 0.950 . S
C878 C877 1.398 . S
C878 C879 1.391 . S
C879 H867 0.950 . S
C879 C875 1.393 . S
C879 C878 1.391 . S
C409 C255 1.607 . S
C415 C338 1.588 . S
C435 C358 1.959 . S
C429 C295 1.906 . S
C455 C378 1.601 . S
C449 C175 1.625 . S
C475 C398 1.908 . S
C469 C215 1.859 . S
C495 C339 1.592 . S
C489 C95 1.606 . S
C509 C135 1.921 . S
C515 C359 1.976 . S
C529 C15 1.620 . S
C535 C379 1.591 . S
C549 C55 1.856 . S
C555 C399 1.943 . S
C575 C329 0.799 . S
C569 C221 0.821 . S
C595 C349 0.634 . S
C589 C261 0.614 . S
C615 C369 0.815 . S
C609 C301 0.859 . S
C629 C181 0.678 . S
C635 C389 0.702 . S
C649 C61 0.777 . S
C655 C332 0.783 . S
C675 C352 0.620 . S
C669 C101 0.572 1_565 S
C695 C372 0.819 . S
C689 C141 0.815 . S
C709 C21 0.643 . S
C715 C392 0.643 . S
C729 C202 2.412 . S
C735 C322 2.312 . S
C749 C242 2.235 . S
C755 C342 2.162 . S
C775 C362 2.206 . S
C769 C282 2.310 . S
C795 C382 2.074 . S
C789 C162 2.133 . S
C809 C42 2.317 . S
C815 C324 2.306 . S
C835 C344 2.151 . S
C829 C82 2.241 1_565 S
C855 C364 2.206 . S
C849 C122 2.235 . S
C869 C2 2.183 . S
C875 C384 2.061 . S
