# Generated by pormake.
# Topology pyr, (3,6)-cn, num edge types: 1
# Building blocks:
#     Node 0, Type 0, BuildingBlock: OLANEW_clean_sbu_2, # of connection points: 3
#     Node 1, Type 0, BuildingBlock: OLANEW_clean_sbu_2, # of connection points: 3
#     Node 2, Type 0, BuildingBlock: OLANEW_clean_sbu_2, # of connection points: 3
#     Node 3, Type 0, BuildingBlock: OLANEW_clean_sbu_2, # of connection points: 3
#     Node 4, Type 0, BuildingBlock: OLANEW_clean_sbu_2, # of connection points: 3
#     Node 5, Type 0, BuildingBlock: OLANEW_clean_sbu_2, # of connection points: 3
#     Node 6, Type 0, BuildingBlock: OLANEW_clean_sbu_2, # of connection points: 3
#     Node 7, Type 0, BuildingBlock: OLANEW_clean_sbu_2, # of connection points: 3
#     Node 8, Type 1, BuildingBlock: BETDEL_clean_sbu_0, # of connection points: 6
#     Node 9, Type 1, BuildingBlock: BETDEL_clean_sbu_0, # of connection points: 6
#     Node 10, Type 1, BuildingBlock: BETDEL_clean_sbu_0, # of connection points: 6
#     Node 11, Type 1, BuildingBlock: BETDEL_clean_sbu_0, # of connection points: 6
#     Edge 12, Type (0, 1), BuildingBlock: UVAHIK_clean_linker_0, # of connection points: 2
#     Edge 13, Type (0, 1), BuildingBlock: UVAHIK_clean_linker_0, # of connection points: 2
#     Edge 14, Type (0, 1), BuildingBlock: UVAHIK_clean_linker_0, # of connection points: 2
#     Edge 15, Type (0, 1), BuildingBlock: UVAHIK_clean_linker_0, # of connection points: 2
#     Edge 16, Type (0, 1), BuildingBlock: UVAHIK_clean_linker_0, # of connection points: 2
#     Edge 17, Type (0, 1), BuildingBlock: UVAHIK_clean_linker_0, # of connection points: 2
#     Edge 18, Type (0, 1), BuildingBlock: UVAHIK_clean_linker_0, # of connection points: 2
#     Edge 19, Type (0, 1), BuildingBlock: UVAHIK_clean_linker_0, # of connection points: 2
#     Edge 20, Type (0, 1), BuildingBlock: UVAHIK_clean_linker_0, # of connection points: 2
#     Edge 21, Type (0, 1), BuildingBlock: UVAHIK_clean_linker_0, # of connection points: 2
#     Edge 22, Type (0, 1), BuildingBlock: UVAHIK_clean_linker_0, # of connection points: 2
#     Edge 23, Type (0, 1), BuildingBlock: UVAHIK_clean_linker_0, # of connection points: 2
#     Edge 24, Type (0, 1), BuildingBlock: UVAHIK_clean_linker_0, # of connection points: 2
#     Edge 25, Type (0, 1), BuildingBlock: UVAHIK_clean_linker_0, # of connection points: 2
#     Edge 26, Type (0, 1), BuildingBlock: UVAHIK_clean_linker_0, # of connection points: 2
#     Edge 27, Type (0, 1), BuildingBlock: UVAHIK_clean_linker_0, # of connection points: 2
#     Edge 28, Type (0, 1), BuildingBlock: UVAHIK_clean_linker_0, # of connection points: 2
#     Edge 29, Type (0, 1), BuildingBlock: UVAHIK_clean_linker_0, # of connection points: 2
#     Edge 30, Type (0, 1), BuildingBlock: UVAHIK_clean_linker_0, # of connection points: 2
#     Edge 31, Type (0, 1), BuildingBlock: UVAHIK_clean_linker_0, # of connection points: 2
#     Edge 32, Type (0, 1), BuildingBlock: UVAHIK_clean_linker_0, # of connection points: 2
#     Edge 33, Type (0, 1), BuildingBlock: UVAHIK_clean_linker_0, # of connection points: 2
#     Edge 34, Type (0, 1), BuildingBlock: UVAHIK_clean_linker_0, # of connection points: 2
#     Edge 35, Type (0, 1), BuildingBlock: UVAHIK_clean_linker_0, # of connection points: 2
# Relax obj value: 0.050
# Max RMSD: 0.147
# Mean RMSD: 0.112
data_MOF--net-pyr--node1-OLANEW_clean_sbu_2--node2-BETDEL_clean_sbu_0--edge1-UVAHIK_clean_linker_0
_symmetry_space_group_name_H-M    P1
_symmetry_Int_Tables_number       1
_symmetry_cell_setting            triclinic
loop_
_symmetry_equiv_pos_as_xyz
'x, y, z'
_cell_length_a     51.060631
_cell_length_b     52.525118
_cell_length_c     47.063796
_cell_angle_alpha  95.47733
_cell_angle_beta   88.430855
_cell_angle_gamma 98.422196
loop_
_atom_site_label
_atom_site_type_symbol
_atom_site_fract_x
_atom_site_fract_y
_atom_site_fract_z
_atom_type_partial_charge
O0 O 0.22046 0.18329 0.13903 0.0
Cd1 Cd 0.17432 0.19016 0.14711 0.0
O2 O 0.22582 0.1802 0.18472 0.0
Cd3 Cd 0.18595 0.18606 0.19892 0.0
O4 O 0.15375 0.17858 0.22978 0.0
C5 C 0.15909 0.1864 0.25564 0.0
O6 O 0.18238 0.1999 0.26151 0.0
C7 C 0.23501 0.17962 0.15933 0.0
C8 C 0.16124 0.23547 0.12835 0.0
O9 O 0.16902 0.23494 0.15393 0.0
O10 O 0.16022 0.21471 0.11146 0.0
O11 O 0.31194 0.8467 0.7417 0.0
Cd12 Cd 0.2952 0.83068 0.69429 0.0
O13 O 0.27329 0.84598 0.76374 0.0
Cd14 Cd 0.25057 0.84081 0.72434 0.0
O15 O 0.22179 0.85146 0.69557 0.0
C16 C 0.20428 0.86404 0.70732 0.0
O17 O 0.20433 0.86899 0.73522 0.0
C18 C 0.29844 0.84931 0.76461 0.0
C19 C 0.32223 0.78982 0.67439 0.0
O20 O 0.33165 0.81325 0.67054 0.0
O21 O 0.29963 0.78561 0.68694 0.0
O22 O 0.69978 0.39724 0.88787 0.0
Cd23 Cd 0.65362 0.38066 0.87578 0.0
O24 O 0.70789 0.35954 0.89948 0.0
Cd25 Cd 0.6679 0.33853 0.89453 0.0
O26 O 0.63836 0.30667 0.90628 0.0
C27 C 0.64079 0.29954 0.93103 0.0
O28 O 0.6597 0.31218 0.94748 0.0
C29 C 0.71581 0.3832 0.89626 0.0
C30 C 0.6342 0.40481 0.83188 0.0
O31 O 0.63181 0.4135 0.85807 0.0
O32 O 0.64598 0.38492 0.82648 0.0
O33 O 0.85679 0.71791 0.36271 0.0
Cd34 Cd 0.8259 0.67936 0.34675 0.0
O35 O 0.8818 0.69893 0.38895 0.0
Cd36 Cd 0.85529 0.66251 0.38343 0.0
O37 O 0.81998 0.63829 0.39746 0.0
C38 C 0.81576 0.64073 0.42424 0.0
O39 O 0.83319 0.65598 0.44044 0.0
C40 C 0.87673 0.71915 0.37867 0.0
C41 C 0.84674 0.65035 0.30132 0.0
O42 O 0.83617 0.67035 0.29724 0.0
O43 O 0.84734 0.64394 0.32686 0.0
O44 O 0.82107 0.79755 0.82818 0.0
Cd45 Cd 0.79262 0.77002 0.85885 0.0
O46 O 0.80093 0.82995 0.84442 0.0
Cd47 Cd 0.78808 0.86806 0.84927 0.0
O48 O 0.7635 0.89723 0.86482 0.0
C49 C 0.73895 0.89232 0.85935 0.0
O50 O 0.73015 0.87091 0.84359 0.0
C51 C 0.81856 0.82125 0.8282 0.0
C52 C 0.82366 0.7441 0.89046 0.0
O53 O 0.81619 0.73511 0.86524 0.0
O54 O 0.81602 0.76524 0.90104 0.0
O55 O 0.72333 0.19094 0.36448 0.0
Cd56 Cd 0.74709 0.21329 0.40623 0.0
O57 O 0.74053 0.21971 0.33563 0.0
Cd58 Cd 0.75292 0.24836 0.3711 0.0
O59 O 0.73693 0.28104 0.39383 0.0
C60 C 0.71177 0.27841 0.39432 0.0
O61 O 0.69854 0.25662 0.38297 0.0
C62 C 0.72649 0.1982 0.33943 0.0
C63 C 0.77988 0.18197 0.4283 0.0
O64 O 0.75589 0.18184 0.43712 0.0
O65 O 0.78841 0.197 0.40911 0.0
O66 O 0.42274 0.73054 0.19074 0.0
Cd67 Cd 0.40464 0.687 0.20322 0.0
O68 O 0.38264 0.73869 0.18282 0.0
Cd69 Cd 0.36049 0.70166 0.19218 0.0
O70 O 0.32375 0.67493 0.1861 0.0
C71 C 0.30294 0.68559 0.18632 0.0
O72 O 0.30514 0.71083 0.19162 0.0
C73 C 0.40752 0.74583 0.18335 0.0
C74 C 0.42666 0.66987 0.25044 0.0
O75 O 0.43627 0.66568 0.22525 0.0
O76 O 0.40711 0.68273 0.25336 0.0
O77 O 0.16799 0.4163 0.7311 0.0
Cd78 Cd 0.17484 0.39478 0.68374 0.0
O79 O 0.16648 0.38061 0.75246 0.0
Cd80 Cd 0.1689 0.35493 0.71373 0.0
O81 O 0.15365 0.31782 0.69126 0.0
C82 C 0.14874 0.29909 0.70673 0.0
O83 O 0.15444 0.30316 0.734 0.0
C84 C 0.16577 0.40477 0.75378 0.0
C85 C 0.22424 0.41361 0.66156 0.0
O86 O 0.20387 0.42437 0.65747 0.0
O87 O 0.22116 0.39383 0.67595 0.0
Dy88 Dy 0.00655 0.02345 0.52378 0.0
C89 C 0.96921 0.97446 0.62758 0.0
C90 C 0.02519 0.0528 0.48098 0.0
Dy91 Dy 0.97977 0.00039 0.58024 0.0
O92 O 0.03759 0.05147 0.5044 0.0
O93 O 0.00246 0.03786 0.4807 0.0
O94 O 0.03582 0.99527 0.52308 0.0
O95 O 0.01955 0.00862 0.5621 0.0
C96 C 0.03377 0.99288 0.55032 0.0
C97 C 0.94556 0.0229 0.55142 0.0
O98 O 0.00306 0.03774 0.59799 0.0
O99 O 0.00723 0.05793 0.55572 0.0
O100 O 0.96594 -0.00166 0.62577 0.0
O101 O 0.97869 0.96487 0.60361 0.0
O102 O 0.93904 0.0121 0.57481 0.0
O103 O 0.96908 0.02011 0.54564 0.0
O104 O 0.98166 0.98775 0.50497 0.0
O105 O 0.97546 0.96661 0.54673 0.0
C106 C 0.00892 0.05864 0.58389 0.0
C107 C 0.97451 0.96672 0.51852 0.0
Dy108 Dy 0.52102 0.04347 0.07764 0.0
C109 C 0.44249 0.97813 0.00379 0.0
C110 C 0.55196 0.07413 0.11722 0.0
Dy111 Dy 0.47867 0.01381 0.03261 0.0
O112 O 0.53108 0.058 0.12285 0.0
O113 O 0.55583 0.07389 0.08973 0.0
O114 O 0.52812 0.00491 0.08973 0.0
O115 O 0.49041 0.00921 0.076 0.0
C116 C 0.50462 0.99321 0.08313 0.0
C117 C 0.50089 0.0601 0.01609 0.0
O118 O 0.45286 0.03168 0.06545 0.0
O119 O 0.48511 0.06318 0.087 0.0
O120 O 0.44048 0.00249 0.0093 0.0
O121 O 0.46424 0.97307 0.01441 0.0
O122 O 0.48352 0.0444 0.00081 0.0
O123 O 0.50464 0.04952 0.03803 0.0
O124 O 0.54742 0.03176 0.04162 0.0
O125 O 0.51674 -0.00014 0.01791 0.0
C126 C 0.45997 0.05335 0.08205 0.0
C127 C 0.54133 0.01189 0.02209 0.0
Dy128 Dy 0.53127 0.51142 0.52582 0.0
C129 C 0.47897 0.58742 0.59504 0.0
C130 C 0.56084 0.48071 0.4924 0.0
Dy131 Dy 0.50761 0.55541 0.56213 0.0
O132 O 0.53527 0.47624 0.49558 0.0
O133 O 0.57012 0.5022 0.50699 0.0
O134 O 0.49985 0.48237 0.54314 0.0
O135 O 0.49154 0.51967 0.53762 0.0
C136 C 0.48276 0.49845 0.54727 0.0
C137 C 0.55641 0.5679 0.54092 0.0
O138 O 0.51848 0.53157 0.59635 0.0
O139 O 0.54532 0.50609 0.56901 0.0
O140 O 0.50418 0.59221 0.58961 0.0
O141 O 0.46948 0.56473 0.58309 0.0
O142 O 0.53949 0.58417 0.54459 0.0
O143 O 0.54713 0.5469 0.55062 0.0
O144 O 0.52149 0.53615 0.49205 0.0
O145 O 0.49326 0.56034 0.5189 0.0
C146 C 0.53525 0.51429 0.59393 0.0
C147 C 0.50423 0.55292 0.49419 0.0
Dy148 Dy 0.02207 0.49574 0.04594 0.0
C149 C -0.01142 0.58924 0.01411 0.0
C150 C 0.04478 0.45354 0.05599 0.0
Dy151 Dy 0.01001 0.54768 0.02847 0.0
O152 O 0.03749 0.47035 0.07549 0.0
O153 O 0.03945 0.45961 0.03088 0.0
O154 O 0.98638 0.49243 0.07495 0.0
O155 O 0.00687 0.52907 0.06795 0.0
C156 C 0.98657 0.51727 0.07931 0.0
C157 C 0.04634 0.52642 0.99612 0.0
O158 O 0.04241 0.56282 0.0588 0.0
O159 O 0.05881 0.52374 0.05814 0.0
O160 O -0.00059 0.57325 0.99646 0.0
O161 O -0.01035 0.58277 0.03999 0.0
O162 O 0.04684 0.55119 0.00146 0.0
O163 O 0.02556 0.51444 0.00646 0.0
O164 O -0.01235 0.48074 0.01766 0.0
O165 O 0.97306 0.52052 0.01665 0.0
C166 C 0.06105 0.54914 0.0648 0.0
C167 C 0.96973 0.49504 0.01107 0.0
C168 C 0.1174 0.16067 0.27315 0.0
C169 C 0.14115 0.17741 0.27903 0.0
C170 C 0.10236 0.14954 0.29529 0.0
C171 C 0.11184 0.13001 0.36617 0.0
H172 H 0.03525 0.12109 0.37294 0.0
C173 C 0.05908 0.08652 0.46289 0.0
C174 C 0.03588 0.06887 0.45817 0.0
C175 C 0.07015 0.10119 0.44123 0.0
C176 C 0.05663 0.12319 0.37114 0.0
H177 H 0.16684 0.19679 0.3129 0.0
H178 H 0.14063 0.17739 0.35136 0.0
H179 H 0.05742 0.14491 0.33464 0.0
H180 H 0.00561 0.05299 0.42745 0.0
H181 H 0.02538 0.07823 0.38908 0.0
H182 H 0.11132 0.10791 0.40198 0.0
C183 C 0.13385 0.1726 0.32963 0.0
C184 C 0.0693 0.13689 0.34929 0.0
C185 C 0.14879 0.1838 0.30758 0.0
C186 C 0.02357 0.06649 0.43156 0.0
C187 C 0.0348 0.08105 0.4097 0.0
C188 C 0.09925 0.11621 0.38778 0.0
C189 C 0.11087 0.15484 0.32366 0.0
C190 C 0.09705 0.14058 0.34676 0.0
C191 C 0.05844 0.09834 0.4142 0.0
C192 C 0.07151 0.11278 0.39072 0.0
H193 H 0.11092 0.15542 0.25139 0.0
H194 H 0.08476 0.13586 0.29007 0.0
H195 H 0.13323 0.13201 0.36436 0.0
H196 H 0.06882 0.08895 0.48334 0.0
H197 H 0.08799 0.11475 0.4457 0.0
C198 C 0.29786 0.85632 0.81812 0.0
C199 C 0.31206 0.85708 0.79214 0.0
C200 C 0.31059 0.86484 0.84396 0.0
C201 C 0.33773 0.9003 0.89228 0.0
H202 H 0.41151 0.89409 0.90262 0.0
C203 C 0.40344 0.96881 0.97207 0.0
C204 C 0.42433 0.95993 0.98508 0.0
C205 C 0.38789 0.95271 0.95181 0.0
C206 C 0.39077 0.89565 0.9004 0.0
H207 H 0.35089 0.86706 0.77297 0.0
H208 H 0.37287 0.88262 0.81774 0.0
H209 H 0.38827 0.87142 0.86111 0.0
H210 H 0.44471 0.92695 0.98822 0.0
H211 H 0.41708 0.89844 0.95316 0.0
H212 H 0.34011 0.92421 0.93178 0.0
C213 C 0.35203 0.87486 0.81838 0.0
C214 C 0.37753 0.88295 0.87631 0.0
C215 C 0.33936 0.8661 0.79261 0.0
C216 C 0.42874 0.93428 0.97838 0.0
C217 C 0.41304 0.91805 0.95816 0.0
C218 C 0.3509 0.91279 0.9165 0.0
C219 C 0.33778 0.87456 0.84439 0.0
C220 C 0.35102 0.88564 0.87156 0.0
C221 C 0.39274 0.92725 0.94422 0.0
C222 C 0.37778 0.91119 0.92051 0.0
H223 H 0.27684 0.84927 0.81852 0.0
H224 H 0.29907 0.86391 0.86358 0.0
H225 H 0.3174 0.90301 0.88933 0.0
H226 H 0.39965 0.98855 0.97678 0.0
H227 H 0.37276 0.96066 0.94126 0.0
C228 C 0.609 0.43792 0.81465 0.0
C229 C 0.62329 0.41705 0.80857 0.0
C230 C 0.59812 0.44894 0.7926 0.0
C231 C 0.578 0.43457 0.717 0.0
H232 H 0.58092 0.50887 0.71827 0.0
C233 C 0.55885 0.48339 0.6171 0.0
C234 C 0.54356 0.50373 0.61987 0.0
C235 C 0.56692 0.47318 0.64116 0.0
C236 C 0.57963 0.48807 0.7178 0.0
H237 H 0.63769 0.3917 0.77447 0.0
H238 H 0.61914 0.4111 0.73611 0.0
H239 H 0.59861 0.49051 0.75822 0.0
H240 H 0.52485 0.52929 0.65034 0.0
H241 H 0.53912 0.51138 0.69257 0.0
H242 H 0.55943 0.4321 0.67644 0.0
C243 C 0.61587 0.41868 0.75793 0.0
C244 C 0.58978 0.47753 0.74068 0.0
C245 C 0.62669 0.40765 0.77994 0.0
C246 C 0.53659 0.51364 0.64742 0.0
C247 C 0.54486 0.50347 0.67161 0.0
C248 C 0.56797 0.44508 0.69414 0.0
C249 C 0.60129 0.43935 0.76396 0.0
C250 C 0.5894 0.45065 0.74038 0.0
C251 C 0.56003 0.48304 0.6687 0.0
C252 C 0.56898 0.47196 0.69407 0.0
H253 H 0.60596 0.44559 0.83648 0.0
H254 H 0.58682 0.46467 0.79804 0.0
H255 H 0.5768 0.41376 0.71632 0.0
H256 H 0.56464 0.47522 0.59628 0.0
H257 H 0.57892 0.45772 0.63815 0.0
C258 C 0.86166 0.60955 0.27946 0.0
C259 C 0.85829 0.63533 0.27731 0.0
C260 C 0.87303 0.59548 0.2569 0.0
C261 C 0.8925 0.59717 0.1797 0.0
H262 H 0.93717 0.54742 0.19788 0.0
C263 C 0.97118 0.5568 0.10383 0.0
C264 C 0.96908 0.52975 0.09991 0.0
C265 C 0.95533 0.56868 0.12414 0.0
C266 C 0.92455 0.56111 0.19256 0.0
H267 H 0.86429 0.66673 0.25007 0.0
H268 H 0.88535 0.64278 0.21134 0.0
H269 H 0.91452 0.57039 0.23623 0.0
H270 H 0.94885 0.49384 0.11408 0.0
H271 H 0.92175 0.51475 0.15046 0.0
H272 H 0.90399 0.58865 0.13602 0.0
C273 C 0.87837 0.63293 0.22988 0.0
C274 C 0.9114 0.5742 0.21447 0.0
C275 C 0.86646 0.64679 0.2522 0.0
C276 C 0.95081 0.51475 0.11663 0.0
C277 C 0.93537 0.52664 0.13741 0.0
C278 C 0.90614 0.58446 0.15787 0.0
C279 C 0.88186 0.60706 0.23191 0.0
C280 C 0.89522 0.59249 0.20839 0.0
C281 C 0.93757 0.55369 0.14133 0.0
C282 C 0.92227 0.56637 0.16416 0.0
H283 H 0.85529 0.60015 0.2985 0.0
H284 H 0.87478 0.57547 0.25911 0.0
H285 H 0.87981 0.61063 0.174 0.0
H286 H 0.98538 0.5688 0.09155 0.0
H287 H 0.95751 0.58959 0.12704 0.0
C288 C 0.27218 0.17043 0.12547 0.0
C289 C 0.26174 0.17232 0.15344 0.0
C290 C 0.29596 0.16049 0.11973 0.0
C291 C 0.33477 0.11542 0.1472 0.0
H292 H 0.38991 0.14285 0.09545 0.0
C293 C 0.41244 0.0558 0.09482 0.0
C294 C 0.43887 0.06786 0.09416 0.0
C295 C 0.3922 0.06991 0.10426 0.0
C296 C 0.37475 0.13511 0.11012 0.0
H297 H 0.26887 0.16645 0.19748 0.0
H298 H 0.31011 0.14908 0.18735 0.0
H299 H 0.35251 0.16644 0.10756 0.0
H300 H 0.46482 0.10418 0.10319 0.0
H301 H 0.4293 0.12888 0.11944 0.0
H302 H 0.35667 0.08389 0.14939 0.0
C303 C 0.29979 0.15505 0.16987 0.0
C304 C 0.35329 0.14848 0.11686 0.0
C305 C 0.2762 0.16513 0.17565 0.0
C306 C 0.44467 0.09428 0.10357 0.0
C307 C 0.42435 0.10848 0.11266 0.0
C308 C 0.35602 0.10193 0.14021 0.0
C309 C 0.30963 0.15209 0.14179 0.0
C310 C 0.33304 0.13871 0.13539 0.0
C311 C 0.39791 0.09645 0.11292 0.0
C312 C 0.37614 0.11154 0.12148 0.0
H313 H 0.26159 0.17584 0.10789 0.0
H314 H 0.30305 0.15834 0.09785 0.0
H315 H 0.31932 0.10728 0.16131 0.0
H316 H 0.4073 0.03549 0.08774 0.0
H317 H 0.37197 0.06018 0.10404 0.0
C318 C 0.18535 0.87021 0.66009 0.0
C319 C 0.18481 0.87398 0.69006 0.0
C320 C 0.16756 0.88064 0.64401 0.0
C321 C 0.10405 0.9075 0.64935 0.0
H322 H 0.13115 0.94159 0.58284 0.0
C323 C 0.04724 0.97707 0.59547 0.0
C324 C 0.0486 0.97642 0.56558 0.0
C325 C 0.06247 0.96247 0.6099 0.0
C326 C 0.12314 0.93183 0.60111 0.0
H327 H 0.16485 0.89137 0.72663 0.0
H328 H 0.13413 0.90968 0.69869 0.0
H329 H 0.16026 0.91969 0.60911 0.0
H330 H 0.06622 0.95949 0.52725 0.0
H331 H 0.09265 0.93384 0.55237 0.0
H332 H 0.06701 0.91995 0.64153 0.0
C333 C 0.14805 0.89842 0.68755 0.0
C334 C 0.13984 0.91925 0.61618 0.0
C335 C 0.16582 0.88804 0.70358 0.0
C336 C 0.06495 0.96048 0.55034 0.0
C337 C 0.08018 0.94591 0.56474 0.0
C338 C 0.08734 0.92009 0.63429 0.0
C339 C 0.14879 0.89501 0.65757 0.0
C340 C 0.13058 0.90712 0.64063 0.0
C341 C 0.07937 0.94694 0.59472 0.0
C342 C 0.09674 0.93258 0.61011 0.0
H343 H 0.19968 0.85942 0.64901 0.0
H344 H 0.16846 0.8774 0.62096 0.0
H345 H 0.09616 0.898 0.66784 0.0
H346 H 0.0348 0.98924 0.60774 0.0
H347 H 0.06155 0.96392 0.63301 0.0
C348 C 0.75183 0.42116 0.90432 0.0
C349 C 0.74338 0.39442 0.90382 0.0
C350 C 0.77721 0.43178 0.91373 0.0
C351 C 0.84361 0.41549 0.9279 0.0
H352 H 0.84856 0.47714 0.98089 0.0
C353 C 0.93798 0.4556 0.9936 0.0
C354 C 0.9448 0.48262 -0.00291 0.0
C355 C 0.91396 0.44438 0.98097 0.0
C356 C 0.84763 0.46011 0.96585 0.0
H357 H 0.75538 0.3578 0.91189 0.0
H358 H 0.79943 0.37635 0.92835 0.0
H359 H 0.80608 0.45897 0.95996 0.0
H360 H 0.93197 0.51897 0.98924 0.0
H361 H 0.89068 0.4995 0.96708 0.0
H362 H 0.88524 0.41665 0.93391 0.0
C363 C 0.78654 0.38909 0.92134 0.0
C364 C 0.82325 0.44971 0.95381 0.0
C365 C 0.76118 0.37849 0.91205 0.0
C366 C 0.92732 0.49809 0.98725 0.0
C367 C 0.90348 0.48693 0.97461 0.0
C368 C 0.86807 0.42594 0.93991 0.0
C369 C 0.79471 0.4159 0.92272 0.0
C370 C 0.82093 0.42729 0.93469 0.0
C371 C 0.89634 0.45996 0.97156 0.0
C372 C 0.87037 0.44842 0.959 0.0
H373 H 0.73868 0.43397 0.89804 0.0
H374 H 0.78306 0.45248 0.91417 0.0
H375 H 0.84251 0.3983 0.91305 0.0
H376 H 0.95099 0.44313 0.00094 0.0
H377 H 0.90896 0.42353 0.97913 0.0
C378 C 0.77107 0.6136 0.41954 0.0
C379 C 0.79049 0.62898 0.43676 0.0
C380 C 0.74626 0.6047 0.43109 0.0
C381 C 0.70115 0.62264 0.4886 0.0
H382 H 0.66344 0.55339 0.47184 0.0
C383 C 0.60166 0.55657 0.53009 0.0
C384 C 0.58312 0.57363 0.52846 0.0
C385 C 0.62703 0.56209 0.51828 0.0
C386 C 0.67382 0.57276 0.47676 0.0
H387 H 0.79953 0.64608 0.47984 0.0
H388 H 0.7563 0.63061 0.49985 0.0
H389 H 0.70844 0.5644 0.45291 0.0
H390 H 0.57641 0.60985 0.5135 0.0
H391 H 0.62088 0.61972 0.49315 0.0
H392 H 0.66668 0.63109 0.51238 0.0
C393 C 0.76016 0.62569 0.4774 0.0
C394 C 0.69944 0.57909 0.46579 0.0
C395 C 0.78496 0.63443 0.46593 0.0
C396 C 0.59038 0.5964 0.51506 0.0
C397 C 0.6158 0.60205 0.50348 0.0
C398 C 0.67552 0.6164 0.49931 0.0
C399 C 0.74039 0.61117 0.45999 0.0
C400 C 0.71336 0.60408 0.4717 0.0
C401 C 0.63439 0.58498 0.50503 0.0
C402 C 0.66159 0.59142 0.4935 0.0
H403 H 0.77476 0.60901 0.397 0.0
H404 H 0.73133 0.59362 0.41717 0.0
H405 H 0.7113 0.64214 0.49322 0.0
H406 H 0.59671 0.53915 0.54087 0.0
H407 H 0.64108 0.54877 0.52012 0.0
C408 C 0.15035 0.28045 0.13863 0.0
C409 C 0.15264 0.25902 0.11893 0.0
C410 C 0.14058 0.30203 0.13018 0.0
C411 C 0.10001 0.32147 0.0742 0.0
H412 H 0.12666 0.39066 0.10697 0.0
C413 C 0.06383 0.41331 0.03939 0.0
C414 C 0.05797 0.43142 0.06169 0.0
C415 C 0.07658 0.39252 0.045 0.0
C416 C 0.11893 0.37142 0.09776 0.0
H417 H 0.14724 0.24377 0.07467 0.0
H418 H 0.13074 0.28162 0.05979 0.0
H419 H 0.14753 0.35422 0.11888 0.0
H420 H 0.06086 0.44217 0.10723 0.0
H421 H 0.08315 0.40595 0.11703 0.0
H422 H 0.07143 0.33879 0.05304 0.0
C423 C 0.13594 0.28155 0.08193 0.0
C424 C 0.13084 0.35052 0.10462 0.0
C425 C 0.14557 0.25991 0.09043 0.0
C426 C 0.06514 0.42847 0.08964 0.0
C427 C 0.07806 0.40784 0.09521 0.0
C428 C 0.08822 0.3424 0.06719 0.0
C429 C 0.13301 0.30277 0.10178 0.0
C430 C 0.12134 0.32523 0.0932 0.0
C431 C 0.08392 0.38963 0.07298 0.0
C432 C 0.09734 0.36757 0.07916 0.0
H433 H 0.15553 0.28036 0.16078 0.0
H434 H 0.13827 0.31783 0.14616 0.0
H435 H 0.09189 0.30224 0.06533 0.0
H436 H 0.05857 0.41522 0.01763 0.0
H437 H 0.081 0.37888 0.02741 0.0
C438 C 0.62759 0.2684 0.96769 0.0
C439 C 0.62392 0.27646 0.94063 0.0
C440 C 0.61287 0.24582 0.97631 0.0
C441 C 0.57552 0.18399 0.94703 0.0
H442 H 0.54983 0.17963 0.02499 0.0
C443 C 0.50872 0.09385 0.98193 0.0
C444 C 0.51417 0.08531 0.0082 0.0
C445 C 0.52129 0.11761 0.97403 0.0
C446 C 0.55711 0.18048 0.00322 0.0
H447 H 0.60137 0.26745 0.90165 0.0
H448 H 0.57544 0.22811 0.91683 0.0
H449 H 0.5725 0.22068 0.01053 0.0
H450 H 0.53668 0.09489 0.047 0.0
H451 H 0.55903 0.13642 0.03314 0.0
H452 H 0.56029 0.1438 0.93973 0.0
C453 C 0.59002 0.23909 0.93122 0.0
C454 C 0.57007 0.204 0.99492 0.0
C455 C 0.60476 0.26172 0.92259 0.0
C456 C 0.53226 0.10102 0.02659 0.0
C457 C 0.54486 0.12486 0.01872 0.0
C458 C 0.56256 0.1605 0.95532 0.0
C459 C 0.5941 0.23075 0.95808 0.0
C460 C 0.57949 0.20601 0.96674 0.0
C461 C 0.53959 0.13337 0.99227 0.0
C462 C 0.55325 0.15844 0.98353 0.0
H463 H 0.6422 0.27928 0.98212 0.0
H464 H 0.61673 0.23981 -0.00301 0.0
H465 H 0.58294 0.18474 0.9253 0.0
H466 H 0.49472 0.08213 0.96741 0.0
H467 H 0.51649 0.12375 0.95372 0.0
C468 C 0.90867 0.74764 0.41143 0.0
C469 C 0.89239 0.74454 0.3874 0.0
C470 C 0.92054 0.77221 0.42213 0.0
C471 C 0.91154 0.84079 0.42199 0.0
H472 H 0.97812 0.85262 0.46221 0.0
C473 C 0.95846 0.94145 0.47285 0.0
C474 C 0.9662 0.94193 0.50136 0.0
C475 C 0.95112 0.9179 0.45659 0.0
C476 C 0.95948 0.84954 0.45105 0.0
H477 H 0.8772 0.76457 0.35461 0.0
H478 H 0.89865 0.80734 0.37267 0.0
H479 H 0.96373 0.81051 0.4365 0.0
H480 H 0.97261 0.9181 0.53504 0.0
H481 H 0.96003 0.87709 0.50653 0.0
H482 H 0.90747 0.87995 0.43652 0.0
C483 C 0.90156 0.79091 0.38386 0.0
C484 C 0.95117 0.82542 0.4364 0.0
C485 C 0.88942 0.76636 0.37336 0.0
C486 C 0.9666 0.91841 0.5132 0.0
C487 C 0.95963 0.89492 0.49682 0.0
C488 C 0.92002 0.86499 0.43634 0.0
C489 C 0.91667 0.79424 0.40884 0.0
C490 C 0.92686 0.82058 0.4221 0.0
C491 C 0.95179 0.89444 0.46839 0.0
C492 C 0.94384 0.86944 0.4514 0.0
H493 H 0.91127 0.73123 0.42281 0.0
H494 H 0.93175 0.77398 0.44159 0.0
H495 H 0.89248 0.83771 0.41169 0.0
H496 H 0.95794 0.95924 0.46313 0.0
H497 H 0.94521 0.91802 0.43468 0.0
C498 C 0.32575 0.74255 0.666 0.0
C499 C 0.33753 0.76843 0.66566 0.0
C500 C 0.34059 0.72241 0.65893 0.0
C501 C 0.40386 0.70832 0.62381 0.0
H502 H 0.39107 0.64705 0.66501 0.0
C503 C 0.47477 0.6324 0.61466 0.0
C504 C 0.46295 0.60672 0.60817 0.0
C505 C 0.45925 0.65162 0.62329 0.0
C506 C 0.39474 0.664 0.65326 0.0
H507 H 0.37414 0.79349 0.65772 0.0
H508 H 0.40016 0.75855 0.64624 0.0
H509 H 0.36433 0.68174 0.67611 0.0
H510 H 0.42585 0.58067 0.60682 0.0
H511 H 0.39865 0.61432 0.62248 0.0
H512 H 0.43465 0.69075 0.60144 0.0
C513 C 0.37931 0.75365 0.65121 0.0
C514 C 0.37934 0.68385 0.65947 0.0
C515 C 0.3644 0.77374 0.65795 0.0
C516 C 0.43545 0.60034 0.61177 0.0
C517 C 0.41991 0.61956 0.62073 0.0
C518 C 0.41942 0.68865 0.61788 0.0
C519 C 0.36764 0.72768 0.65166 0.0
C520 C 0.38372 0.70631 0.64484 0.0
C521 C 0.43162 0.64549 0.6259 0.0
C522 C 0.41506 0.66632 0.63256 0.0
H523 H 0.30503 0.73782 0.67173 0.0
H524 H 0.33077 0.70269 0.65902 0.0
H525 H 0.40748 0.725 0.61164 0.0
H526 H 0.49593 0.63786 0.61207 0.0
H527 H 0.46882 0.67139 0.6275 0.0
C528 C 0.8479 0.82583 0.78518 0.0
C529 C 0.83554 0.83758 0.80897 0.0
C530 C 0.86433 0.84073 0.76698 0.0
C531 C 0.90336 0.90561 0.76249 0.0
H532 H 0.89935 0.8856 0.68108 0.0
C533 C 0.94794 0.97124 0.67572 0.0
C534 C 0.95954 0.95935 0.65154 0.0
C535 C 0.93548 0.95638 0.69668 0.0
C536 C 0.90099 0.89124 0.70378 0.0
H537 H 0.83204 0.87425 0.83304 0.0
H538 H 0.85971 0.9004 0.80055 0.0
H539 H 0.87144 0.86009 0.71379 0.0
H540 H 0.96846 0.9229 0.63089 0.0
H541 H 0.94671 0.89689 0.66754 0.0
H542 H 0.93255 0.93719 0.75216 0.0
C543 C 0.85673 0.87958 0.79604 0.0
C544 C 0.88497 0.87661 0.72257 0.0
C545 C 0.84037 0.86461 0.81438 0.0
C546 C 0.95957 0.93252 0.64929 0.0
C547 C 0.94699 0.91764 0.67015 0.0
C548 C 0.91929 0.92037 0.74362 0.0
C549 C 0.86884 0.86781 0.77204 0.0
C550 C 0.88595 0.88357 0.75217 0.0
C551 C 0.93427 0.92935 0.69373 0.0
C552 C 0.91827 0.91331 0.71406 0.0
H553 H 0.84483 0.80502 0.78053 0.0
H554 H 0.87372 0.83094 0.74906 0.0
H555 H 0.90491 0.91132 0.78517 0.0
H556 H 0.94765 0.99191 0.67795 0.0
H557 H 0.92574 0.96593 0.71451 0.0
C558 C 0.69159 0.16264 0.32023 0.0
C559 C 0.71181 0.18301 0.31524 0.0
C560 C 0.67542 0.15048 0.29799 0.0
C561 C 0.66987 0.13909 0.21993 0.0
H562 H 0.59438 0.13249 0.23585 0.0
C563 C 0.59229 0.10547 0.13158 0.0
C564 C 0.56986 0.08853 0.13914 0.0
C565 C 0.60994 0.11778 0.15255 0.0
C566 C 0.61539 0.13387 0.23109 0.0
H567 H 0.73175 0.20566 0.28266 0.0
H568 H 0.70362 0.18414 0.24377 0.0
H569 H 0.62545 0.15066 0.2733 0.0
H570 H 0.54812 0.07122 0.17435 0.0
H571 H 0.57899 0.09213 0.21072 0.0
H572 H 0.65985 0.12187 0.17784 0.0
C573 C 0.70026 0.17773 0.26494 0.0
C574 C 0.63318 0.1443 0.25258 0.0
C575 C 0.7163 0.19008 0.28724 0.0
C576 C 0.56518 0.08434 0.16795 0.0
C577 C 0.58284 0.09646 0.18883 0.0
C578 C 0.65205 0.1284 0.19845 0.0
C579 C 0.67927 0.15823 0.27024 0.0
C580 C 0.66059 0.14691 0.24728 0.0
C581 C 0.60552 0.11326 0.18143 0.0
C582 C 0.62457 0.12555 0.20381 0.0
H583 H 0.68761 0.15668 0.34151 0.0
H584 H 0.6596 0.13524 0.30259 0.0
H585 H 0.69092 0.14078 0.21532 0.0
H586 H 0.5963 0.10902 0.10947 0.0
H587 H 0.62699 0.13088 0.14613 0.0
C588 C 0.45727 0.64363 0.27157 0.0
C589 C 0.43714 0.65934 0.27525 0.0
C590 C 0.46613 0.63258 0.29478 0.0
C591 C 0.46727 0.63859 0.37382 0.0
H592 H 0.47787 0.56663 0.36416 0.0
C593 C 0.47816 0.5813 0.46999 0.0
C594 C 0.49708 0.56423 0.46824 0.0
C595 C 0.472 0.59287 0.446 0.0
C596 C 0.47535 0.58683 0.36714 0.0
H597 H 0.41083 0.67603 0.30632 0.0
H598 H 0.42619 0.65672 0.34668 0.0
H599 H 0.46553 0.58739 0.32326 0.0
H600 H 0.52419 0.54582 0.43961 0.0
H601 H 0.5135 0.5662 0.39769 0.0
H602 H 0.47693 0.63806 0.41767 0.0
C603 C 0.43531 0.65311 0.32593 0.0
C604 C 0.46827 0.59874 0.34369 0.0
C605 C 0.42641 0.66409 0.30273 0.0
C606 C 0.50946 0.5588 0.44173 0.0
C607 C 0.50327 0.57042 0.41766 0.0
C608 C 0.47436 0.62671 0.39722 0.0
C609 C 0.45515 0.63706 0.32221 0.0
C610 C 0.4639 0.6247 0.34681 0.0
C611 C 0.4846 0.58776 0.41957 0.0
C612 C 0.47821 0.60061 0.39427 0.0
H613 H 0.46599 0.6396 0.25069 0.0
H614 H 0.48166 0.62057 0.29124 0.0
H615 H 0.46454 0.65874 0.37687 0.0
H616 H 0.46809 0.58588 0.48996 0.0
H617 H 0.45717 0.60573 0.44814 0.0
C618 C 0.16389 0.44605 0.78481 0.0
C619 C 0.1604 0.41892 0.7815 0.0
C620 C 0.1566 0.45917 0.8104 0.0
C621 C 0.13551 0.44942 0.88594 0.0
H622 H 0.10019 0.50891 0.8785 0.0
C623 C 0.06086 0.48788 0.96818 0.0
C624 C 0.0641 0.51472 0.97521 0.0
C625 C 0.07663 0.47718 0.94684 0.0
C626 C 0.1103 0.49251 0.88093 0.0
H627 H 0.14712 0.38426 0.80263 0.0
H628 H 0.1335 0.40692 0.84656 0.0
H629 H 0.12075 0.4887 0.83669 0.0
H630 H 0.08667 0.55139 0.96608 0.0
H631 H 0.11376 0.5327 0.92828 0.0
H632 H 0.12357 0.45263 0.93004 0.0
C633 C 0.14254 0.41826 0.82989 0.0
C634 C 0.12225 0.48097 0.85701 0.0
C635 C 0.1502 0.4052 0.80453 0.0
C636 C 0.08372 0.53063 0.96101 0.0
C637 C 0.09917 0.51998 0.9394 0.0
C638 C 0.12315 0.46073 0.90976 0.0
C639 C 0.14528 0.44541 0.83305 0.0
C640 C 0.13474 0.45907 0.8591 0.0
C641 C 0.09556 0.49321 0.93192 0.0
C642 C 0.11023 0.48221 0.90737 0.0
H643 H 0.17194 0.45715 0.76752 0.0
H644 H 0.15953 0.48009 0.81224 0.0
H645 H 0.14541 0.43294 0.88853 0.0
H646 H 0.04572 0.47524 0.97861 0.0
H647 H 0.07332 0.45648 0.94123 0.0
C648 C 0.72909 0.93069 0.89167 0.0
C649 C 0.72019 0.90906 0.87263 0.0
C650 C 0.711 0.9451 0.90604 0.0
C651 C 0.64123 0.9573 0.90572 0.0
H652 H 0.6514 0.97458 0.98702 0.0
C653 C 0.557 0.98264 0.98205 0.0
C654 C 0.56285 0.00267 0.00397 0.0
C655 C 0.57718 0.97382 0.96495 0.0
C656 C 0.64846 0.97026 0.96427 0.0
H657 H 0.68537 0.88613 0.85307 0.0
H658 H 0.65393 0.91104 0.87827 0.0
H659 H 0.68507 0.95503 0.95849 0.0
H660 H 0.59465 0.02921 0.02492 0.0
H661 H 0.62988 0.01374 0.99498 0.0
H662 H 0.60434 0.97203 0.91165 0.0
C663 C 0.67486 0.91707 0.88193 0.0
C664 C 0.66778 0.95908 0.94789 0.0
C665 C 0.69291 0.90267 0.86759 0.0
C666 C 0.58941 0.01372 0.00829 0.0
C667 C 0.60963 0.0048 0.99121 0.0
C668 C 0.6219 0.96843 0.92209 0.0
C669 C 0.68366 0.93822 0.90164 0.0
C670 C 0.66421 0.95212 0.9185 0.0
C671 C 0.60372 0.98474 0.96936 0.0
C672 C 0.62512 0.97468 0.95162 0.0
H673 H 0.74999 0.93619 0.89594 0.0
H674 H 0.71843 0.9615 0.9208 0.0
H675 H 0.63808 0.95258 0.88305 0.0
H676 H 0.5368 0.97365 0.97807 0.0
H677 H 0.57201 0.95807 0.94857 0.0
C678 C 0.82339 0.16528 0.42992 0.0
C679 C 0.79718 0.16526 0.43994 0.0
C680 C 0.83972 0.14956 0.44103 0.0
C681 C 0.84725 0.11469 0.50416 0.0
H682 H 0.89339 0.07743 0.45438 0.0
C683 C 0.9023 0.03786 0.54505 0.0
C684 C 0.92876 0.03765 0.53634 0.0
C685 C 0.88648 0.05297 0.53228 0.0
C686 C 0.88084 0.08793 0.4686 0.0
H687 H 0.76754 0.14852 0.46934 0.0
H688 H 0.79593 0.12103 0.48854 0.0
H689 H 0.86534 0.10483 0.43416 0.0
H690 H 0.95949 0.0528 0.50735 0.0
H691 H 0.93188 0.07945 0.48494 0.0
H692 H 0.86269 0.09793 0.53859 0.0
C693 C 0.80398 0.13343 0.47235 0.0
C694 C 0.86476 0.10363 0.45702 0.0
C695 C 0.78765 0.1491 0.46122 0.0
C696 C 0.93906 0.05247 0.51424 0.0
C697 C 0.92323 0.06767 0.50143 0.0
C698 C 0.8633 0.09905 0.51572 0.0
C699 C 0.83024 0.13352 0.46245 0.0
C700 C 0.84767 0.11709 0.47466 0.0
C701 C 0.89682 0.06833 0.51056 0.0
C702 C 0.88018 0.08534 0.49808 0.0
H703 H 0.83136 0.17752 0.41355 0.0
H704 H 0.85992 0.1503 0.43315 0.0
H705 H 0.83471 0.12518 0.51843 0.0
H706 H 0.89383 0.02652 0.56199 0.0
H707 H 0.86611 0.05263 0.53947 0.0
C708 C 0.27481 0.64374 0.16984 0.0
C709 C 0.27709 0.67041 0.17804 0.0
C710 C 0.25082 0.63003 0.15966 0.0
C711 C 0.1902 0.64041 0.12492 0.0
H712 H 0.16265 0.57162 0.14511 0.0
C713 C 0.08762 0.5891 0.08836 0.0
C714 C 0.08533 0.56262 0.07914 0.0
C715 C 0.11062 0.60189 0.10164 0.0
C716 C 0.17023 0.59071 0.13903 0.0
H717 H 0.25567 0.70337 0.18307 0.0
H718 H 0.2139 0.67945 0.16552 0.0
H719 H 0.20348 0.59442 0.16673 0.0
H720 H 0.10546 0.52881 0.07679 0.0
H721 H 0.14571 0.55125 0.09955 0.0
H722 H 0.15728 0.6367 0.09699 0.0
C723 C 0.23075 0.66921 0.16653 0.0
C724 C 0.19359 0.60377 0.15145 0.0
C725 C 0.25466 0.68288 0.17675 0.0
C726 C 0.10651 0.5492 0.08368 0.0
C727 C 0.12956 0.56203 0.0969 0.0
C728 C 0.16695 0.62736 0.11246 0.0
C729 C 0.22867 0.64275 0.15742 0.0
C730 C 0.20378 0.62879 0.14457 0.0
C731 C 0.13192 0.58854 0.10594 0.0
C732 C 0.15664 0.60237 0.11938 0.0
H733 H 0.29173 0.63357 0.1706 0.0
H734 H 0.24987 0.60967 0.15264 0.0
H735 H 0.19782 0.65947 0.11875 0.0
H736 H 0.07163 0.60001 0.08538 0.0
H737 H 0.11162 0.62223 0.10874 0.0
C738 C 0.25427 0.44665 0.63633 0.0
C739 C 0.25062 0.42386 0.65026 0.0
C740 C 0.2793 0.45649 0.62604 0.0
C741 C 0.35061 0.45304 0.63431 0.0
H742 H 0.35783 0.48032 0.56032 0.0
C743 C 0.45029 0.46944 0.57415 0.0
C744 C 0.45634 0.4921 0.56028 0.0
C745 C 0.42523 0.46296 0.58623 0.0
C746 C 0.35609 0.47308 0.58118 0.0
H747 H 0.27032 0.39337 0.66407 0.0
H748 H 0.3138 0.41023 0.64572 0.0
H749 H 0.31383 0.4652 0.57904 0.0
H750 H 0.44106 0.52573 0.54791 0.0
H751 H 0.39705 0.51442 0.56917 0.0
H752 H 0.3929 0.46047 0.63618 0.0
C753 C 0.29746 0.42082 0.6432 0.0
C754 C 0.33089 0.46442 0.59193 0.0
C755 C 0.27248 0.41104 0.65355 0.0
C756 C 0.43691 0.50823 0.55869 0.0
C757 C 0.41171 0.50166 0.57064 0.0
C758 C 0.37577 0.46158 0.62351 0.0
C759 C 0.30121 0.44371 0.62941 0.0
C760 C 0.32787 0.45403 0.61849 0.0
C761 C 0.40562 0.47893 0.58452 0.0
C762 C 0.37881 0.47143 0.59671 0.0
H763 H 0.23784 0.45704 0.63354 0.0
H764 H 0.28155 0.4743 0.6158 0.0
H765 H 0.34898 0.44567 0.6551 0.0
H766 H 0.46494 0.45666 0.57565 0.0
H767 H 0.42103 0.44515 0.59644 0.0
C768 C 0.85499 0.71203 0.89207 0.0
C769 C 0.8413 0.73085 0.90643 0.0
C770 C 0.87258 0.70019 0.90669 0.0
C771 C 0.88754 0.68185 0.97595 0.0
H772 H 0.9573 0.67773 0.94268 0.0
C773 C 0.96205 0.62564 0.0251 0.0
C774 C 0.97509 0.61004 0.00521 0.0
C775 C 0.94771 0.64402 0.01584 0.0
C776 C 0.93785 0.67856 0.95219 0.0
H777 H 0.83482 0.75166 0.94749 0.0
H778 H 0.86526 0.73034 0.97327 0.0
H779 H 0.9275 0.70226 0.9209 0.0
H780 H 0.98384 0.60157 0.96028 0.0
H781 H 0.9586 0.63298 0.94412 0.0
H782 H 0.89733 0.6571 0.00643 0.0
C783 C 0.86249 0.72506 0.95062 0.0
C784 C 0.92086 0.69268 0.93975 0.0
C785 C 0.84517 0.73726 0.93587 0.0
C786 C 0.97407 0.61344 0.9761 0.0
C787 C 0.95974 0.63163 0.96686 0.0
C788 C 0.90445 0.6674 0.98823 0.0
C789 C 0.87655 0.70665 0.93605 0.0
C790 C 0.89537 0.69398 0.95115 0.0
C791 C 0.94619 0.64703 0.98655 0.0
C792 C 0.92957 0.66508 0.97605 0.0
H793 H 0.85247 0.70671 0.8694 0.0
H794 H 0.88297 0.68582 0.89505 0.0
H795 H 0.86791 0.68253 0.98505 0.0
H796 H 0.96256 0.62334 0.0477 0.0
H797 H 0.9377 0.65574 0.03158 0.0
C798 C 0.40109 0.78764 0.16506 0.0
C799 C 0.41838 0.77147 0.17388 0.0
C800 C 0.41092 0.81111 0.1544 0.0
C801 C 0.46972 0.86072 0.15317 0.0
H802 H 0.43682 0.87939 0.08627 0.0
C803 C 0.51284 0.95091 0.09793 0.0
C804 C 0.49489 0.96645 0.08938 0.0
C805 C 0.50384 0.92641 0.10653 0.0
C806 C 0.44605 0.8746 0.10512 0.0
H807 H 0.45969 0.76765 0.17885 0.0
H808 H 0.47692 0.80883 0.1602 0.0
H809 H 0.42081 0.83829 0.10538 0.0
H810 H 0.45355 0.96831 0.08207 0.0
H811 H 0.43764 0.92548 0.09752 0.0
H812 H 0.49474 0.89711 0.15318 0.0
C813 C 0.45568 0.80326 0.16168 0.0
C814 C 0.4369 0.85103 0.11607 0.0
C815 C 0.44582 0.77964 0.17231 0.0
C816 C 0.46779 0.95669 0.0886 0.0
C817 C 0.45873 0.93214 0.09735 0.0
C818 C 0.47882 0.88431 0.14228 0.0
C819 C 0.43832 0.8191 0.15231 0.0
C820 C 0.44856 0.84386 0.14028 0.0
C821 C 0.47665 0.9169 0.10691 0.0
C822 C 0.46708 0.89158 0.11814 0.0
H823 H 0.37982 0.78207 0.16606 0.0
H824 H 0.39701 0.82307 0.14787 0.0
H825 H 0.47887 0.85594 0.17207 0.0
H826 H 0.53388 0.95787 0.09846 0.0
H827 H 0.51824 0.91499 0.11312 0.0
C828 C 0.12572 0.27016 0.66679 0.0
C829 C 0.13486 0.27374 0.69498 0.0
C830 C 0.11101 0.24674 0.65641 0.0
C831 C 0.09587 0.17789 0.66873 0.0
H832 H 0.03373 0.18009 0.62395 0.0
C833 C 0.02651 0.08513 0.62843 0.0
C834 C 0.0194 0.08365 0.59961 0.0
C835 C 0.03869 0.10848 0.64222 0.0
C836 C 0.05111 0.17915 0.63629 0.0
H837 H 0.13626 0.25532 0.73417 0.0
H838 H 0.1106 0.21447 0.71601 0.0
H839 H 0.05993 0.22034 0.64304 0.0
H840 H 0.01864 0.10581 0.56302 0.0
H841 H 0.03994 0.14616 0.58689 0.0
H842 H 0.08727 0.13668 0.66158 0.0
C843 C 0.11489 0.22974 0.70192 0.0
C844 C 0.06614 0.2022 0.64715 0.0
C845 C 0.12951 0.2532 0.71234 0.0
C846 C 0.0239 0.10617 0.58521 0.0
C847 C 0.03597 0.12943 0.59897 0.0
C848 C 0.08085 0.15481 0.65779 0.0
C849 C 0.10522 0.22637 0.67396 0.0
C850 C 0.08885 0.20183 0.66321 0.0
C851 C 0.04385 0.13079 0.62749 0.0
C852 C 0.05848 0.1552 0.64115 0.0
H853 H 0.12956 0.28558 0.65284 0.0
H854 H 0.10418 0.24456 0.63461 0.0
H855 H 0.11339 0.177 0.68084 0.0
H856 H 0.02329 0.06815 0.64016 0.0
H857 H 0.04427 0.10901 0.66433 0.0
C858 C 0.71121 0.32427 0.41505 0.0
C859 C 0.69745 0.29998 0.40525 0.0
C860 C 0.69743 0.34495 0.42354 0.0
C861 C 0.63325 0.36748 0.41404 0.0
H862 H 0.65265 0.41365 0.48179 0.0
C863 C 0.5654 0.43812 0.4658 0.0
C864 C 0.57724 0.46236 0.47795 0.0
C865 C 0.58102 0.41959 0.45498 0.0
C866 C 0.64723 0.40118 0.46255 0.0
H867 H 0.65838 0.27821 0.39746 0.0
H868 H 0.63449 0.31408 0.4125 0.0
H869 H 0.67821 0.37863 0.46768 0.0
H870 H 0.6146 0.48671 0.48743 0.0
H871 H 0.64195 0.45447 0.46814 0.0
H872 H 0.60216 0.38986 0.409 0.0
C873 C 0.65591 0.31732 0.41315 0.0
C874 C 0.66186 0.38108 0.45451 0.0
C875 C 0.66964 0.29669 0.40472 0.0
C876 C 0.60497 0.46811 0.47821 0.0
C877 C 0.62061 0.44959 0.46738 0.0
C878 C 0.61865 0.38758 0.42205 0.0
C879 C 0.66963 0.34177 0.42233 0.0
C880 C 0.65485 0.36382 0.43033 0.0
C881 C 0.60881 0.42495 0.45607 0.0
C882 C 0.6253 0.40452 0.44656 0.0
H883 H 0.73264 0.32744 0.41568 0.0
H884 H 0.70859 0.36359 0.43038 0.0
H885 H 0.62765 0.35482 0.39497 0.0
H886 H 0.54405 0.43316 0.46546 0.0
H887 H 0.57127 0.40074 0.44669 0.0
loop_
_geom_bond_atom_site_label_1
_geom_bond_atom_site_label_2
_geom_bond_distance
_geom_bond_site_symmetry_2
_ccdc_geom_bond_type
O0 Cd1 2.300 . S
O0 C7 1.275 . S
Cd1 O0 2.300 . S
Cd1 O9 2.381 . S
Cd1 O10 2.378 . S
O2 Cd3 2.385 . S
O2 C7 1.255 . S
Cd3 O2 2.385 . S
Cd3 O4 2.317 . S
O4 Cd3 2.317 . S
O4 C5 1.232 . S
C5 O4 1.232 . S
C5 O6 1.218 . S
O6 C5 1.218 . S
C7 O0 1.275 . S
C7 O2 1.255 . S
C8 O9 1.258 . S
C8 O10 1.256 . S
O9 Cd1 2.381 . S
O9 C8 1.258 . S
O10 Cd1 2.378 . S
O10 C8 1.256 . S
O11 Cd12 2.300 . S
O11 C18 1.275 . S
Cd12 O11 2.300 . S
Cd12 O20 2.381 . S
Cd12 O21 2.378 . S
O13 Cd14 2.385 . S
O13 C18 1.255 . S
Cd14 O13 2.385 . S
Cd14 O15 2.317 . S
O15 Cd14 2.317 . S
O15 C16 1.232 . S
C16 O15 1.232 . S
C16 O17 1.218 . S
O17 C16 1.218 . S
C18 O11 1.275 . S
C18 O13 1.255 . S
C19 O20 1.258 . S
C19 O21 1.256 . S
O20 Cd12 2.381 . S
O20 C19 1.258 . S
O21 Cd12 2.378 . S
O21 C19 1.256 . S
O22 Cd23 2.300 . S
O22 C29 1.275 . S
Cd23 O22 2.300 . S
Cd23 O31 2.381 . S
Cd23 O32 2.378 . S
O24 Cd25 2.385 . S
O24 C29 1.255 . S
Cd25 O24 2.385 . S
Cd25 O26 2.317 . S
O26 Cd25 2.317 . S
O26 C27 1.232 . S
C27 O26 1.232 . S
C27 O28 1.218 . S
O28 C27 1.218 . S
C29 O22 1.275 . S
C29 O24 1.255 . S
C30 O31 1.258 . S
C30 O32 1.256 . S
O31 Cd23 2.381 . S
O31 C30 1.258 . S
O32 Cd23 2.378 . S
O32 C30 1.256 . S
O33 Cd34 2.300 . S
O33 C40 1.275 . S
Cd34 O33 2.300 . S
Cd34 O42 2.381 . S
Cd34 O43 2.378 . S
O35 Cd36 2.385 . S
O35 C40 1.255 . S
Cd36 O35 2.385 . S
Cd36 O37 2.317 . S
O37 Cd36 2.317 . S
O37 C38 1.232 . S
C38 O37 1.232 . S
C38 O39 1.218 . S
O39 C38 1.218 . S
C40 O33 1.275 . S
C40 O35 1.255 . S
C41 O42 1.258 . S
C41 O43 1.256 . S
O42 Cd34 2.381 . S
O42 C41 1.258 . S
O43 Cd34 2.378 . S
O43 C41 1.256 . S
O44 Cd45 2.300 . S
O44 C51 1.275 . S
Cd45 O44 2.300 . S
Cd45 O53 2.381 . S
Cd45 O54 2.378 . S
O46 Cd47 2.385 . S
O46 C51 1.255 . S
Cd47 O46 2.385 . S
Cd47 O48 2.317 . S
O48 Cd47 2.317 . S
O48 C49 1.232 . S
C49 O48 1.232 . S
C49 O50 1.218 . S
O50 C49 1.218 . S
C51 O44 1.275 . S
C51 O46 1.255 . S
C52 O53 1.258 . S
C52 O54 1.256 . S
O53 Cd45 2.381 . S
O53 C52 1.258 . S
O54 Cd45 2.378 . S
O54 C52 1.256 . S
O55 Cd56 2.300 . S
O55 C62 1.275 . S
Cd56 O55 2.300 . S
Cd56 O64 2.381 . S
Cd56 O65 2.378 . S
O57 Cd58 2.385 . S
O57 C62 1.255 . S
Cd58 O57 2.385 . S
Cd58 O59 2.317 . S
O59 Cd58 2.317 . S
O59 C60 1.232 . S
C60 O59 1.232 . S
C60 O61 1.218 . S
O61 C60 1.218 . S
C62 O55 1.275 . S
C62 O57 1.255 . S
C63 O64 1.258 . S
C63 O65 1.256 . S
O64 Cd56 2.381 . S
O64 C63 1.258 . S
O65 Cd56 2.378 . S
O65 C63 1.256 . S
O66 Cd67 2.300 . S
O66 C73 1.275 . S
Cd67 O66 2.300 . S
Cd67 O75 2.381 . S
Cd67 O76 2.378 . S
O68 Cd69 2.385 . S
O68 C73 1.255 . S
Cd69 O68 2.385 . S
Cd69 O70 2.317 . S
O70 Cd69 2.317 . S
O70 C71 1.232 . S
C71 O70 1.232 . S
C71 O72 1.218 . S
O72 C71 1.218 . S
C73 O66 1.275 . S
C73 O68 1.255 . S
C74 O75 1.258 . S
C74 O76 1.256 . S
O75 Cd67 2.381 . S
O75 C74 1.258 . S
O76 Cd67 2.378 . S
O76 C74 1.256 . S
O77 Cd78 2.300 . S
O77 C84 1.275 . S
Cd78 O77 2.300 . S
Cd78 O86 2.381 . S
Cd78 O87 2.378 . S
O79 Cd80 2.385 . S
O79 C84 1.255 . S
Cd80 O79 2.385 . S
Cd80 O81 2.317 . S
O81 Cd80 2.317 . S
O81 C82 1.232 . S
C82 O81 1.232 . S
C82 O83 1.218 . S
O83 C82 1.218 . S
C84 O77 1.275 . S
C84 O79 1.255 . S
C85 O86 1.258 . S
C85 O87 1.256 . S
O86 Cd78 2.381 . S
O86 C85 1.258 . S
O87 Cd78 2.378 . S
O87 C85 1.256 . S
Dy88 O92 2.398 . S
Dy88 O93 2.491 . S
Dy88 O94 2.403 . S
Dy88 O95 2.664 . S
Dy88 O99 2.326 . S
Dy88 O103 2.310 1_455 S
Dy88 O104 2.351 1_545 S
C89 O100 1.185 . S
C89 O101 1.355 . S
C90 O92 1.185 . S
C90 O93 1.355 . S
Dy91 O95 2.310 1_655 S
Dy91 O98 2.351 1_655 S
Dy91 O100 2.398 1_545 S
Dy91 O101 2.491 1_545 S
Dy91 O102 2.403 . S
Dy91 O103 2.664 . S
Dy91 O105 2.326 1_545 S
O92 Dy88 2.398 . S
O92 C90 1.185 . S
O93 Dy88 2.491 . S
O93 C90 1.355 . S
O94 Dy88 2.403 . S
O94 C96 1.259 . S
O95 Dy88 2.664 . S
O95 Dy91 2.310 1_455 S
O95 C96 1.272 . S
C96 O94 1.259 . S
C96 O95 1.272 . S
C97 O102 1.254 . S
C97 O103 1.268 . S
O98 Dy91 2.351 1_455 S
O98 C106 1.249 . S
O99 Dy88 2.326 . S
O99 C106 1.267 . S
O100 C89 1.185 . S
O100 Dy91 2.398 1_565 S
O101 C89 1.355 . S
O101 Dy91 2.491 1_565 S
O102 Dy91 2.403 . S
O102 C97 1.254 . S
O103 Dy88 2.310 1_655 S
O103 Dy91 2.664 . S
O103 C97 1.268 . S
O104 Dy88 2.351 1_565 S
O104 C107 1.249 1_455 S
O105 Dy91 2.326 1_565 S
O105 C107 1.267 . S
C106 O98 1.249 . S
C106 O99 1.267 . S
C107 O104 1.249 1_655 S
C107 O105 1.267 . S
Dy108 O112 2.398 . S
Dy108 O113 2.491 . S
Dy108 O114 2.383 1_545 S
Dy108 O115 2.664 . S
Dy108 O119 2.326 . S
Dy108 O123 2.310 . S
Dy108 O124 2.351 . S
C109 O120 1.185 1_565 S
C109 O121 1.355 . S
C110 O112 1.185 . S
C110 O113 1.355 . S
Dy111 O115 2.310 . S
Dy111 O118 2.351 . S
Dy111 O120 2.398 1_554 S
Dy111 O121 2.491 1_544 S
Dy111 O122 2.403 . S
Dy111 O123 2.664 . S
Dy111 O125 2.326 . S
O112 Dy108 2.398 . S
O112 C110 1.185 . S
O113 Dy108 2.491 . S
O113 C110 1.355 . S
O114 Dy108 2.383 1_565 S
O114 C116 1.257 . S
O115 Dy108 2.664 . S
O115 Dy111 2.310 . S
O115 C116 1.268 1_545 S
C116 O114 1.257 . S
C116 O115 1.268 1_565 S
C117 O122 1.254 . S
C117 O123 1.268 . S
O118 Dy111 2.351 . S
O118 C126 1.249 . S
O119 Dy108 2.326 . S
O119 C126 1.267 . S
O120 C109 1.185 1_545 S
O120 Dy111 2.398 1_556 S
O121 C109 1.355 . S
O121 Dy111 2.491 1_566 S
O122 Dy111 2.403 . S
O122 C117 1.254 . S
O123 Dy108 2.310 . S
O123 Dy111 2.664 . S
O123 C117 1.268 . S
O124 Dy108 2.351 . S
O124 C127 1.249 . S
O125 Dy111 2.326 . S
O125 C127 1.267 . S
C126 O118 1.249 . S
C126 O119 1.267 . S
C127 O124 1.249 . S
C127 O125 1.267 . S
Dy128 O132 2.398 . S
Dy128 O133 2.491 . S
Dy128 O134 2.403 . S
Dy128 O135 2.664 . S
Dy128 O139 2.326 . S
Dy128 O143 2.310 . S
Dy128 O144 2.351 . S
C129 O140 1.185 . S
C129 O141 1.355 . S
C130 O132 1.185 . S
C130 O133 1.355 . S
Dy131 O135 2.310 . S
Dy131 O138 2.351 . S
Dy131 O140 2.398 . S
Dy131 O141 2.491 . S
Dy131 O142 2.403 . S
Dy131 O143 2.664 . S
Dy131 O145 2.326 . S
O132 Dy128 2.398 . S
O132 C130 1.185 . S
O133 Dy128 2.491 . S
O133 C130 1.355 . S
O134 Dy128 2.403 . S
O134 C136 1.254 . S
O135 Dy128 2.664 . S
O135 Dy131 2.310 . S
O135 C136 1.268 . S
C136 O134 1.254 . S
C136 O135 1.268 . S
C137 O142 1.254 . S
C137 O143 1.268 . S
O138 Dy131 2.351 . S
O138 C146 1.249 . S
O139 Dy128 2.326 . S
O139 C146 1.267 . S
O140 C129 1.185 . S
O140 Dy131 2.398 . S
O141 C129 1.355 . S
O141 Dy131 2.491 . S
O142 Dy131 2.403 . S
O142 C137 1.254 . S
O143 Dy128 2.310 . S
O143 Dy131 2.664 . S
O143 C137 1.268 . S
O144 Dy128 2.351 . S
O144 C147 1.249 . S
O145 Dy131 2.326 . S
O145 C147 1.267 . S
C146 O138 1.249 . S
C146 O139 1.267 . S
C147 O144 1.249 . S
C147 O145 1.267 . S
Dy148 O152 2.398 . S
Dy148 O153 2.491 . S
Dy148 O154 2.403 . S
Dy148 O155 2.664 . S
Dy148 O159 2.326 . S
Dy148 O163 2.310 1_554 S
Dy148 O164 2.351 1_455 S
C149 O160 1.185 1_655 S
C149 O161 1.338 1_556 S
C150 O152 1.185 . S
C150 O153 1.355 . S
Dy151 O155 2.310 1_556 S
Dy151 O158 2.351 1_556 S
Dy151 O160 2.398 . S
Dy151 O161 2.492 1_456 S
Dy151 O162 2.403 . S
Dy151 O163 2.664 . S
Dy151 O165 2.326 1_455 S
O152 Dy148 2.398 . S
O152 C150 1.185 . S
O153 Dy148 2.491 . S
O153 C150 1.355 . S
O154 Dy148 2.403 . S
O154 C156 1.254 . S
O155 Dy148 2.664 . S
O155 Dy151 2.310 1_554 S
O155 C156 1.268 . S
C156 O154 1.254 . S
C156 O155 1.268 . S
C157 O162 1.254 . S
C157 O163 1.268 . S
O158 Dy151 2.351 1_554 S
O158 C166 1.249 . S
O159 Dy148 2.326 . S
O159 C166 1.267 . S
O160 C149 1.185 1_455 S
O160 Dy151 2.398 . S
O161 C149 1.338 1_554 S
O161 Dy151 2.492 1_654 S
O162 Dy151 2.403 . S
O162 C157 1.254 . S
O163 Dy148 2.310 1_556 S
O163 Dy151 2.664 . S
O163 C157 1.268 . S
O164 Dy148 2.351 1_655 S
O164 C167 1.249 1_554 S
O165 Dy151 2.326 1_655 S
O165 C167 1.267 . S
C166 O158 1.249 . S
C166 O159 1.267 . S
C167 O164 1.249 1_556 S
C167 O165 1.267 . S
C168 C169 1.349 . S
C168 C170 1.327 . S
C168 H193 0.950 . S
C169 C168 1.349 . S
C169 C185 1.349 . S
C170 C168 1.327 . S
C170 C189 1.429 . S
C170 H194 0.950 . S
C171 C188 1.574 . S
C171 C190 1.368 . S
C171 H195 0.949 . S
H172 C176 0.949 . S
C173 C174 1.349 . S
C173 C175 1.327 . S
C173 H196 0.950 . S
C174 C173 1.349 . S
C174 C186 1.349 . S
C175 C173 1.327 . S
C175 C191 1.429 . S
C175 H197 0.950 . S
C176 H172 0.949 . S
C176 C184 1.574 . S
C176 C192 1.368 . S
H177 C185 0.950 . S
H178 C183 0.950 . S
H179 C184 0.949 . S
H180 C186 0.950 . S
H181 C187 0.950 . S
H182 C188 0.949 . S
C183 H178 0.950 . S
C183 C185 1.327 . S
C183 C189 1.429 . S
C184 C176 1.574 . S
C184 H179 0.949 . S
C184 C190 1.368 . S
C185 C169 1.349 . S
C185 H177 0.950 . S
C185 C183 1.327 . S
C186 C174 1.349 . S
C186 H180 0.950 . S
C186 C187 1.327 . S
C187 H181 0.950 . S
C187 C186 1.327 . S
C187 C191 1.429 . S
C188 C171 1.574 . S
C188 H182 0.949 . S
C188 C192 1.368 . S
C189 C170 1.429 . S
C189 C183 1.429 . S
C189 C190 1.523 . S
C190 C171 1.368 . S
C190 C184 1.368 . S
C190 C189 1.523 . S
C191 C175 1.429 . S
C191 C187 1.429 . S
C191 C192 1.523 . S
C192 C176 1.368 . S
C192 C188 1.368 . S
C192 C191 1.523 . S
H193 C168 0.950 . S
H194 C170 0.950 . S
H195 C171 0.949 . S
H196 C173 0.950 . S
H197 C175 0.950 . S
C198 C199 1.349 . S
C198 C200 1.327 . S
C198 H223 0.950 . S
C199 C198 1.349 . S
C199 C215 1.349 . S
C200 C198 1.327 . S
C200 C219 1.429 . S
C200 H224 0.950 . S
C201 C218 1.574 . S
C201 C220 1.368 . S
C201 H225 0.949 . S
H202 C206 0.949 . S
C203 C204 1.377 . S
C203 C205 1.333 . S
C203 H226 0.916 1_565 S
C204 C203 1.377 . S
C204 C216 1.349 . S
C205 C203 1.333 . S
C205 C221 1.429 . S
C205 H227 0.950 1_565 S
C206 H202 0.949 . S
C206 C214 1.574 . S
C206 C222 1.368 . S
H207 C215 0.950 . S
H208 C213 0.950 . S
H209 C214 0.949 . S
H210 C216 0.950 . S
H211 C217 0.950 . S
H212 C218 0.949 . S
C213 H208 0.950 . S
C213 C215 1.327 . S
C213 C219 1.429 . S
C214 C206 1.574 . S
C214 H209 0.949 . S
C214 C220 1.368 . S
C215 C199 1.349 . S
C215 H207 0.950 . S
C215 C213 1.327 . S
C216 C204 1.349 . S
C216 H210 0.950 . S
C216 C217 1.327 . S
C217 H211 0.950 . S
C217 C216 1.327 . S
C217 C221 1.429 . S
C218 C201 1.574 . S
C218 H212 0.949 . S
C218 C222 1.368 . S
C219 C200 1.429 . S
C219 C213 1.429 . S
C219 C220 1.523 . S
C220 C201 1.368 . S
C220 C214 1.368 . S
C220 C219 1.523 . S
C221 C205 1.429 . S
C221 C217 1.429 . S
C221 C222 1.523 . S
C222 C206 1.368 . S
C222 C218 1.368 . S
C222 C221 1.523 . S
H223 C198 0.950 . S
H224 C200 0.950 . S
H225 C201 0.949 . S
H226 C203 0.916 1_545 S
H227 C205 0.950 1_545 S
C228 C229 1.349 . S
C228 C230 1.327 . S
C228 H253 0.950 . S
C229 C228 1.349 . S
C229 C245 1.349 . S
C230 C228 1.327 . S
C230 C249 1.429 . S
C230 H254 0.950 . S
C231 C248 1.574 . S
C231 C250 1.368 . S
C231 H255 0.949 . S
H232 C236 0.949 . S
C233 C234 1.349 . S
C233 C235 1.327 . S
C233 H256 0.950 . S
C234 C233 1.349 . S
C234 C246 1.349 . S
C235 C233 1.327 . S
C235 C251 1.429 . S
C235 H257 0.950 . S
C236 H232 0.949 . S
C236 C244 1.574 . S
C236 C252 1.368 . S
H237 C245 0.950 . S
H238 C243 0.950 . S
H239 C244 0.949 . S
H240 C246 0.950 . S
H241 C247 0.950 . S
H242 C248 0.949 . S
C243 H238 0.950 . S
C243 C245 1.327 . S
C243 C249 1.429 . S
C244 C236 1.574 . S
C244 H239 0.949 . S
C244 C250 1.368 . S
C245 C229 1.349 . S
C245 H237 0.950 . S
C245 C243 1.327 . S
C246 C234 1.349 . S
C246 H240 0.950 . S
C246 C247 1.327 . S
C247 H241 0.950 . S
C247 C246 1.327 . S
C247 C251 1.429 . S
C248 C231 1.574 . S
C248 H242 0.949 . S
C248 C252 1.368 . S
C249 C230 1.429 . S
C249 C243 1.429 . S
C249 C250 1.523 . S
C250 C231 1.368 . S
C250 C244 1.368 . S
C250 C249 1.523 . S
C251 C235 1.429 . S
C251 C247 1.429 . S
C251 C252 1.523 . S
C252 C236 1.368 . S
C252 C248 1.368 . S
C252 C251 1.523 . S
H253 C228 0.950 . S
H254 C230 0.950 . S
H255 C231 0.949 . S
H256 C233 0.950 . S
H257 C235 0.950 . S
C258 C259 1.349 . S
C258 C260 1.327 . S
C258 H283 0.950 . S
C259 C258 1.349 . S
C259 C275 1.349 . S
C260 C258 1.327 . S
C260 C279 1.429 . S
C260 H284 0.950 . S
C261 C278 1.574 . S
C261 C280 1.368 . S
C261 H285 0.949 . S
H262 C266 0.949 . S
C263 C264 1.349 1_455 S
C263 C265 1.327 1_455 S
C263 H286 0.950 . S
C264 C263 1.349 1_655 S
C264 C276 1.349 . S
C265 C263 1.327 1_655 S
C265 C281 1.429 . S
C265 H287 0.950 1_655 S
C266 H262 0.949 . S
C266 C274 1.574 . S
C266 C282 1.368 . S
H267 C275 0.950 . S
H268 C273 0.950 . S
H269 C274 0.949 . S
H270 C276 0.950 . S
H271 C277 0.950 . S
H272 C278 0.949 . S
C273 H268 0.950 . S
C273 C275 1.327 . S
C273 C279 1.429 . S
C274 C266 1.574 . S
C274 H269 0.949 . S
C274 C280 1.368 . S
C275 C259 1.349 . S
C275 H267 0.950 . S
C275 C273 1.327 . S
C276 C264 1.349 . S
C276 H270 0.950 . S
C276 C277 1.327 . S
C277 H271 0.950 . S
C277 C276 1.327 . S
C277 C281 1.429 . S
C278 C261 1.574 . S
C278 H272 0.949 . S
C278 C282 1.368 . S
C279 C260 1.429 . S
C279 C273 1.429 . S
C279 C280 1.523 . S
C280 C261 1.368 . S
C280 C274 1.368 . S
C280 C279 1.523 . S
C281 C265 1.429 . S
C281 C277 1.429 . S
C281 C282 1.523 . S
C282 C266 1.368 . S
C282 C278 1.368 . S
C282 C281 1.523 . S
H283 C258 0.950 . S
H284 C260 0.950 . S
H285 C261 0.949 . S
H286 C263 0.950 . S
H287 C265 0.950 1_455 S
C288 C289 1.349 . S
C288 C290 1.327 . S
C288 H313 0.950 . S
C289 C288 1.349 . S
C289 C305 1.349 . S
C290 C288 1.327 . S
C290 C309 1.429 . S
C290 H314 0.950 . S
C291 C308 1.574 . S
C291 C310 1.368 . S
C291 H315 0.949 . S
H292 C296 0.949 . S
C293 C294 1.349 . S
C293 C295 1.327 . S
C293 H316 0.950 . S
C294 C293 1.349 . S
C294 C306 1.349 . S
C295 C293 1.327 . S
C295 C311 1.429 . S
C295 H317 0.950 . S
C296 H292 0.949 . S
C296 C304 1.574 . S
C296 C312 1.368 . S
H297 C305 0.950 . S
H298 C303 0.950 . S
H299 C304 0.949 . S
H300 C306 0.950 . S
H301 C307 0.950 . S
H302 C308 0.949 . S
C303 H298 0.950 . S
C303 C305 1.327 . S
C303 C309 1.429 . S
C304 C296 1.574 . S
C304 H299 0.949 . S
C304 C310 1.368 . S
C305 C289 1.349 . S
C305 H297 0.950 . S
C305 C303 1.327 . S
C306 C294 1.349 . S
C306 H300 0.950 . S
C306 C307 1.327 . S
C307 H301 0.950 . S
C307 C306 1.327 . S
C307 C311 1.429 . S
C308 C291 1.574 . S
C308 H302 0.949 . S
C308 C312 1.368 . S
C309 C290 1.429 . S
C309 C303 1.429 . S
C309 C310 1.523 . S
C310 C291 1.368 . S
C310 C304 1.368 . S
C310 C309 1.523 . S
C311 C295 1.429 . S
C311 C307 1.429 . S
C311 C312 1.523 . S
C312 C296 1.368 . S
C312 C308 1.368 . S
C312 C311 1.523 . S
H313 C288 0.950 . S
H314 C290 0.950 . S
H315 C291 0.949 . S
H316 C293 0.950 . S
H317 C295 0.950 . S
C318 C319 1.349 . S
C318 C320 1.327 . S
C318 H343 0.950 . S
C319 C318 1.349 . S
C319 C335 1.349 . S
C320 C318 1.327 . S
C320 C339 1.429 . S
C320 H344 0.950 . S
C321 C338 1.574 . S
C321 C340 1.368 . S
C321 H345 0.949 . S
H322 C326 0.949 . S
C323 C324 1.349 1_545 S
C323 C325 1.327 1_545 S
C323 H346 0.950 . S
C324 C323 1.349 1_565 S
C324 C336 1.349 . S
C325 C323 1.327 1_565 S
C325 C341 1.429 . S
C325 H347 0.950 1_565 S
C326 H322 0.949 . S
C326 C334 1.574 . S
C326 C342 1.368 . S
H327 C335 0.950 . S
H328 C333 0.950 . S
H329 C334 0.949 . S
H330 C336 0.950 . S
H331 C337 0.950 . S
H332 C338 0.949 . S
C333 H328 0.950 . S
C333 C335 1.327 . S
C333 C339 1.429 . S
C334 C326 1.574 . S
C334 H329 0.949 . S
C334 C340 1.368 . S
C335 C319 1.349 . S
C335 H327 0.950 . S
C335 C333 1.327 . S
C336 C324 1.349 . S
C336 H330 0.950 . S
C336 C337 1.327 . S
C337 H331 0.950 . S
C337 C336 1.327 . S
C337 C341 1.429 . S
C338 C321 1.574 . S
C338 H332 0.949 . S
C338 C342 1.368 . S
C339 C320 1.429 . S
C339 C333 1.429 . S
C339 C340 1.523 . S
C340 C321 1.368 . S
C340 C334 1.368 . S
C340 C339 1.523 . S
C341 C325 1.429 . S
C341 C337 1.429 . S
C341 C342 1.523 . S
C342 C326 1.368 . S
C342 C338 1.368 . S
C342 C341 1.523 . S
H343 C318 0.950 . S
H344 C320 0.950 . S
H345 C321 0.949 . S
H346 C323 0.950 . S
H347 C325 0.950 1_545 S
C348 C349 1.349 . S
C348 C350 1.327 . S
C348 H373 0.950 . S
C349 C348 1.349 . S
C349 C365 1.349 . S
C350 C348 1.327 . S
C350 C369 1.429 . S
C350 H374 0.950 . S
C351 C368 1.574 . S
C351 C370 1.368 . S
C351 H375 0.949 . S
H352 C356 0.949 . S
C353 C354 1.349 . S
C353 C355 1.327 . S
C353 H376 0.950 . S
C354 C353 1.349 . S
C354 C366 1.349 . S
C355 C353 1.327 . S
C355 C371 1.429 . S
C355 H377 0.950 . S
C356 H352 0.949 . S
C356 C364 1.574 . S
C356 C372 1.368 . S
H357 C365 0.950 . S
H358 C363 0.950 . S
H359 C364 0.949 . S
H360 C366 0.950 . S
H361 C367 0.950 . S
H362 C368 0.949 . S
C363 H358 0.950 . S
C363 C365 1.327 . S
C363 C369 1.429 . S
C364 C356 1.574 . S
C364 H359 0.949 . S
C364 C370 1.368 . S
C365 C349 1.349 . S
C365 H357 0.950 . S
C365 C363 1.327 . S
C366 C354 1.349 . S
C366 H360 0.950 . S
C366 C367 1.327 . S
C367 H361 0.950 . S
C367 C366 1.327 . S
C367 C371 1.429 . S
C368 C351 1.574 . S
C368 H362 0.949 . S
C368 C372 1.368 . S
C369 C350 1.429 . S
C369 C363 1.429 . S
C369 C370 1.523 . S
C370 C351 1.368 . S
C370 C364 1.368 . S
C370 C369 1.523 . S
C371 C355 1.429 . S
C371 C367 1.429 . S
C371 C372 1.523 . S
C372 C356 1.368 . S
C372 C368 1.368 . S
C372 C371 1.523 . S
H373 C348 0.950 . S
H374 C350 0.950 . S
H375 C351 0.949 . S
H376 C353 0.950 . S
H377 C355 0.950 . S
C378 C379 1.349 . S
C378 C380 1.327 . S
C378 H403 0.950 . S
C379 C378 1.349 . S
C379 C395 1.349 . S
C380 C378 1.327 . S
C380 C399 1.429 . S
C380 H404 0.950 . S
C381 C398 1.574 . S
C381 C400 1.368 . S
C381 H405 0.949 . S
H382 C386 0.949 . S
C383 C384 1.349 . S
C383 C385 1.327 . S
C383 H406 0.950 . S
C384 C383 1.349 . S
C384 C396 1.349 . S
C385 C383 1.327 . S
C385 C401 1.429 . S
C385 H407 0.950 . S
C386 H382 0.949 . S
C386 C394 1.574 . S
C386 C402 1.368 . S
H387 C395 0.950 . S
H388 C393 0.950 . S
H389 C394 0.949 . S
H390 C396 0.950 . S
H391 C397 0.950 . S
H392 C398 0.949 . S
C393 H388 0.950 . S
C393 C395 1.327 . S
C393 C399 1.429 . S
C394 C386 1.574 . S
C394 H389 0.949 . S
C394 C400 1.368 . S
C395 C379 1.349 . S
C395 H387 0.950 . S
C395 C393 1.327 . S
C396 C384 1.349 . S
C396 H390 0.950 . S
C396 C397 1.327 . S
C397 H391 0.950 . S
C397 C396 1.327 . S
C397 C401 1.429 . S
C398 C381 1.574 . S
C398 H392 0.949 . S
C398 C402 1.368 . S
C399 C380 1.429 . S
C399 C393 1.429 . S
C399 C400 1.523 . S
C400 C381 1.368 . S
C400 C394 1.368 . S
C400 C399 1.523 . S
C401 C385 1.429 . S
C401 C397 1.429 . S
C401 C402 1.523 . S
C402 C386 1.368 . S
C402 C398 1.368 . S
C402 C401 1.523 . S
H403 C378 0.950 . S
H404 C380 0.950 . S
H405 C381 0.949 . S
H406 C383 0.950 . S
H407 C385 0.950 . S
C408 C409 1.349 . S
C408 C410 1.327 . S
C408 H433 0.950 . S
C409 C408 1.349 . S
C409 C425 1.349 . S
C410 C408 1.327 . S
C410 C429 1.429 . S
C410 H434 0.950 . S
C411 C428 1.574 . S
C411 C430 1.368 . S
C411 H435 0.949 . S
H412 C416 0.949 . S
C413 C414 1.349 . S
C413 C415 1.327 . S
C413 H436 0.950 . S
C414 C413 1.349 . S
C414 C426 1.349 . S
C415 C413 1.327 . S
C415 C431 1.429 . S
C415 H437 0.950 . S
C416 H412 0.949 . S
C416 C424 1.574 . S
C416 C432 1.368 . S
H417 C425 0.950 . S
H418 C423 0.950 . S
H419 C424 0.949 . S
H420 C426 0.950 . S
H421 C427 0.950 . S
H422 C428 0.949 . S
C423 H418 0.950 . S
C423 C425 1.327 . S
C423 C429 1.429 . S
C424 C416 1.574 . S
C424 H419 0.949 . S
C424 C430 1.368 . S
C425 C409 1.349 . S
C425 H417 0.950 . S
C425 C423 1.327 . S
C426 C414 1.349 . S
C426 H420 0.950 . S
C426 C427 1.327 . S
C427 H421 0.950 . S
C427 C426 1.327 . S
C427 C431 1.429 . S
C428 C411 1.574 . S
C428 H422 0.949 . S
C428 C432 1.368 . S
C429 C410 1.429 . S
C429 C423 1.429 . S
C429 C430 1.523 . S
C430 C411 1.368 . S
C430 C424 1.368 . S
C430 C429 1.523 . S
C431 C415 1.429 . S
C431 C427 1.429 . S
C431 C432 1.523 . S
C432 C416 1.368 . S
C432 C428 1.368 . S
C432 C431 1.523 . S
H433 C408 0.950 . S
H434 C410 0.950 . S
H435 C411 0.949 . S
H436 C413 0.950 . S
H437 C415 0.950 . S
C438 C439 1.349 . S
C438 C440 1.327 . S
C438 H463 0.950 . S
C439 C438 1.349 . S
C439 C455 1.349 . S
C440 C438 1.327 . S
C440 C459 1.429 . S
C440 H464 0.950 . S
C441 C458 1.574 . S
C441 C460 1.368 . S
C441 H465 0.949 . S
H442 C446 0.949 . S
C443 C444 1.349 1_556 S
C443 C445 1.327 . S
C443 H466 0.950 . S
C444 C443 1.349 1_554 S
C444 C456 1.349 . S
C445 C443 1.327 . S
C445 C461 1.434 . S
C445 H467 0.950 . S
C446 H442 0.949 . S
C446 C454 1.574 1_554 S
C446 C462 1.368 1_554 S
H447 C455 0.950 . S
H448 C453 0.950 . S
H449 C454 0.949 1_554 S
H450 C456 0.950 . S
H451 C457 0.950 . S
H452 C458 0.949 . S
C453 H448 0.950 . S
C453 C455 1.327 . S
C453 C459 1.429 . S
C454 C446 1.574 1_556 S
C454 H449 0.949 1_556 S
C454 C460 1.368 . S
C455 C439 1.349 . S
C455 H447 0.950 . S
C455 C453 1.327 . S
C456 C444 1.349 . S
C456 H450 0.950 . S
C456 C457 1.327 . S
C457 H451 0.950 . S
C457 C456 1.327 . S
C457 C461 1.417 1_554 S
C458 C441 1.574 . S
C458 H452 0.949 . S
C458 C462 1.368 . S
C459 C440 1.429 . S
C459 C453 1.429 . S
C459 C460 1.523 . S
C460 C441 1.368 . S
C460 C454 1.368 . S
C460 C459 1.523 . S
C461 C445 1.434 . S
C461 C457 1.417 1_556 S
C461 C462 1.528 . S
C462 C446 1.368 1_556 S
C462 C458 1.368 . S
C462 C461 1.528 . S
H463 C438 0.950 . S
H464 C440 0.950 . S
H465 C441 0.949 . S
H466 C443 0.950 . S
H467 C445 0.950 . S
C468 C469 1.349 . S
C468 C470 1.327 . S
C468 H493 0.950 . S
C469 C468 1.349 . S
C469 C485 1.349 . S
C470 C468 1.327 . S
C470 C489 1.429 . S
C470 H494 0.950 . S
C471 C488 1.574 . S
C471 C490 1.368 . S
C471 H495 0.949 . S
H472 C476 0.949 . S
C473 C474 1.349 . S
C473 C475 1.327 . S
C473 H496 0.950 . S
C474 C473 1.349 . S
C474 C486 1.349 . S
C475 C473 1.327 . S
C475 C491 1.429 . S
C475 H497 0.950 . S
C476 H472 0.949 . S
C476 C484 1.574 . S
C476 C492 1.368 . S
H477 C485 0.950 . S
H478 C483 0.950 . S
H479 C484 0.949 . S
H480 C486 0.950 1_455 S
H481 C487 0.950 . S
H482 C488 0.949 . S
C483 H478 0.950 . S
C483 C485 1.327 . S
C483 C489 1.429 . S
C484 C476 1.574 . S
C484 H479 0.949 . S
C484 C490 1.368 . S
C485 C469 1.349 . S
C485 H477 0.950 . S
C485 C483 1.327 . S
C486 C474 1.349 . S
C486 H480 0.950 1_655 S
C486 C487 1.327 . S
C487 H481 0.950 . S
C487 C486 1.327 . S
C487 C491 1.429 . S
C488 C471 1.574 . S
C488 H482 0.949 . S
C488 C492 1.368 . S
C489 C470 1.429 . S
C489 C483 1.429 . S
C489 C490 1.523 . S
C490 C471 1.368 . S
C490 C484 1.368 . S
C490 C489 1.523 . S
C491 C475 1.429 . S
C491 C487 1.429 . S
C491 C492 1.523 . S
C492 C476 1.368 . S
C492 C488 1.368 . S
C492 C491 1.523 . S
H493 C468 0.950 . S
H494 C470 0.950 . S
H495 C471 0.949 . S
H496 C473 0.950 . S
H497 C475 0.950 . S
C498 C499 1.349 . S
C498 C500 1.327 . S
C498 H523 0.950 . S
C499 C498 1.349 . S
C499 C515 1.349 . S
C500 C498 1.327 . S
C500 C519 1.429 . S
C500 H524 0.950 . S
C501 C518 1.574 . S
C501 C520 1.368 . S
C501 H525 0.949 . S
H502 C506 0.949 . S
C503 C504 1.349 . S
C503 C505 1.327 . S
C503 H526 0.950 . S
C504 C503 1.349 . S
C504 C516 1.349 . S
C505 C503 1.327 . S
C505 C521 1.429 . S
C505 H527 0.950 . S
C506 H502 0.949 . S
C506 C514 1.574 . S
C506 C522 1.368 . S
H507 C515 0.950 . S
H508 C513 0.950 . S
H509 C514 0.949 . S
H510 C516 0.950 . S
H511 C517 0.950 . S
H512 C518 0.949 . S
C513 H508 0.950 . S
C513 C515 1.327 . S
C513 C519 1.429 . S
C514 C506 1.574 . S
C514 H509 0.949 . S
C514 C520 1.368 . S
C515 C499 1.349 . S
C515 H507 0.950 . S
C515 C513 1.327 . S
C516 C504 1.349 . S
C516 H510 0.950 . S
C516 C517 1.327 . S
C517 H511 0.950 . S
C517 C516 1.327 . S
C517 C521 1.429 . S
C518 C501 1.574 . S
C518 H512 0.949 . S
C518 C522 1.368 . S
C519 C500 1.429 . S
C519 C513 1.429 . S
C519 C520 1.523 . S
C520 C501 1.368 . S
C520 C514 1.368 . S
C520 C519 1.523 . S
C521 C505 1.429 . S
C521 C517 1.429 . S
C521 C522 1.523 . S
C522 C506 1.368 . S
C522 C518 1.368 . S
C522 C521 1.523 . S
H523 C498 0.950 . S
H524 C500 0.950 . S
H525 C501 0.949 . S
H526 C503 0.950 . S
H527 C505 0.950 . S
C528 C529 1.349 . S
C528 C530 1.327 . S
C528 H553 0.950 . S
C529 C528 1.349 . S
C529 C545 1.349 . S
C530 C528 1.327 . S
C530 C549 1.429 . S
C530 H554 0.950 . S
C531 C548 1.574 . S
C531 C550 1.368 . S
C531 H555 0.949 . S
H532 C536 0.949 . S
C533 C534 1.349 . S
C533 C535 1.327 . S
C533 H556 0.950 . S
C534 C533 1.349 . S
C534 C546 1.349 . S
C535 C533 1.327 . S
C535 C551 1.429 . S
C535 H557 0.950 . S
C536 H532 0.949 . S
C536 C544 1.574 . S
C536 C552 1.368 . S
H537 C545 0.950 . S
H538 C543 0.950 . S
H539 C544 0.949 . S
H540 C546 0.950 . S
H541 C547 0.950 . S
H542 C548 0.949 . S
C543 H538 0.950 . S
C543 C545 1.327 . S
C543 C549 1.429 . S
C544 C536 1.574 . S
C544 H539 0.949 . S
C544 C550 1.368 . S
C545 C529 1.349 . S
C545 H537 0.950 . S
C545 C543 1.327 . S
C546 C534 1.349 . S
C546 H540 0.950 . S
C546 C547 1.327 . S
C547 H541 0.950 . S
C547 C546 1.327 . S
C547 C551 1.429 . S
C548 C531 1.574 . S
C548 H542 0.949 . S
C548 C552 1.368 . S
C549 C530 1.429 . S
C549 C543 1.429 . S
C549 C550 1.523 . S
C550 C531 1.368 . S
C550 C544 1.368 . S
C550 C549 1.523 . S
C551 C535 1.429 . S
C551 C547 1.429 . S
C551 C552 1.523 . S
C552 C536 1.368 . S
C552 C548 1.368 . S
C552 C551 1.523 . S
H553 C528 0.950 . S
H554 C530 0.950 . S
H555 C531 0.949 . S
H556 C533 0.950 . S
H557 C535 0.950 . S
C558 C559 1.349 . S
C558 C560 1.327 . S
C558 H583 0.950 . S
C559 C558 1.349 . S
C559 C575 1.349 . S
C560 C558 1.327 . S
C560 C579 1.429 . S
C560 H584 0.950 . S
C561 C578 1.574 . S
C561 C580 1.368 . S
C561 H585 0.949 . S
H562 C566 0.949 . S
C563 C564 1.349 . S
C563 C565 1.327 . S
C563 H586 0.950 . S
C564 C563 1.349 . S
C564 C576 1.349 . S
C565 C563 1.327 . S
C565 C581 1.429 . S
C565 H587 0.950 . S
C566 H562 0.949 . S
C566 C574 1.574 . S
C566 C582 1.368 . S
H567 C575 0.950 . S
H568 C573 0.950 . S
H569 C574 0.949 . S
H570 C576 0.950 . S
H571 C577 0.950 . S
H572 C578 0.949 . S
C573 H568 0.950 . S
C573 C575 1.327 . S
C573 C579 1.429 . S
C574 C566 1.574 . S
C574 H569 0.949 . S
C574 C580 1.368 . S
C575 C559 1.349 . S
C575 H567 0.950 . S
C575 C573 1.327 . S
C576 C564 1.349 . S
C576 H570 0.950 . S
C576 C577 1.327 . S
C577 H571 0.950 . S
C577 C576 1.327 . S
C577 C581 1.429 . S
C578 C561 1.574 . S
C578 H572 0.949 . S
C578 C582 1.368 . S
C579 C560 1.429 . S
C579 C573 1.429 . S
C579 C580 1.523 . S
C580 C561 1.368 . S
C580 C574 1.368 . S
C580 C579 1.523 . S
C581 C565 1.429 . S
C581 C577 1.429 . S
C581 C582 1.523 . S
C582 C566 1.368 . S
C582 C578 1.368 . S
C582 C581 1.523 . S
H583 C558 0.950 . S
H584 C560 0.950 . S
H585 C561 0.949 . S
H586 C563 0.950 . S
H587 C565 0.950 . S
C588 C589 1.349 . S
C588 C590 1.327 . S
C588 H613 0.950 . S
C589 C588 1.349 . S
C589 C605 1.349 . S
C590 C588 1.327 . S
C590 C609 1.429 . S
C590 H614 0.950 . S
C591 C608 1.574 . S
C591 C610 1.368 . S
C591 H615 0.949 . S
H592 C596 0.949 . S
C593 C594 1.349 . S
C593 C595 1.327 . S
C593 H616 0.950 . S
C594 C593 1.349 . S
C594 C606 1.349 . S
C595 C593 1.327 . S
C595 C611 1.429 . S
C595 H617 0.950 . S
C596 H592 0.949 . S
C596 C604 1.574 . S
C596 C612 1.368 . S
H597 C605 0.950 . S
H598 C603 0.950 . S
H599 C604 0.949 . S
H600 C606 0.950 . S
H601 C607 0.950 . S
H602 C608 0.949 . S
C603 H598 0.950 . S
C603 C605 1.327 . S
C603 C609 1.429 . S
C604 C596 1.574 . S
C604 H599 0.949 . S
C604 C610 1.368 . S
C605 C589 1.349 . S
C605 H597 0.950 . S
C605 C603 1.327 . S
C606 C594 1.349 . S
C606 H600 0.950 . S
C606 C607 1.327 . S
C607 H601 0.950 . S
C607 C606 1.327 . S
C607 C611 1.429 . S
C608 C591 1.574 . S
C608 H602 0.949 . S
C608 C612 1.368 . S
C609 C590 1.429 . S
C609 C603 1.429 . S
C609 C610 1.523 . S
C610 C591 1.368 . S
C610 C604 1.368 . S
C610 C609 1.523 . S
C611 C595 1.429 . S
C611 C607 1.429 . S
C611 C612 1.523 . S
C612 C596 1.368 . S
C612 C608 1.368 . S
C612 C611 1.523 . S
H613 C588 0.950 . S
H614 C590 0.950 . S
H615 C591 0.949 . S
H616 C593 0.950 . S
H617 C595 0.950 . S
C618 C619 1.349 . S
C618 C620 1.327 . S
C618 H643 0.950 . S
C619 C618 1.349 . S
C619 C635 1.349 . S
C620 C618 1.327 . S
C620 C639 1.429 . S
C620 H644 0.950 . S
C621 C638 1.574 . S
C621 C640 1.368 . S
C621 H645 0.949 . S
H622 C626 0.949 . S
C623 C624 1.349 . S
C623 C625 1.327 . S
C623 H646 0.950 . S
C624 C623 1.349 . S
C624 C636 1.349 . S
C625 C623 1.327 . S
C625 C641 1.429 . S
C625 H647 0.950 . S
C626 H622 0.949 . S
C626 C634 1.574 . S
C626 C642 1.368 . S
H627 C635 0.950 . S
H628 C633 0.950 . S
H629 C634 0.949 . S
H630 C636 0.950 . S
H631 C637 0.950 . S
H632 C638 0.949 . S
C633 H628 0.950 . S
C633 C635 1.327 . S
C633 C639 1.429 . S
C634 C626 1.574 . S
C634 H629 0.949 . S
C634 C640 1.368 . S
C635 C619 1.349 . S
C635 H627 0.950 . S
C635 C633 1.327 . S
C636 C624 1.349 . S
C636 H630 0.950 . S
C636 C637 1.327 . S
C637 H631 0.950 . S
C637 C636 1.327 . S
C637 C641 1.429 . S
C638 C621 1.574 . S
C638 H632 0.949 . S
C638 C642 1.368 . S
C639 C620 1.429 . S
C639 C633 1.429 . S
C639 C640 1.523 . S
C640 C621 1.368 . S
C640 C634 1.368 . S
C640 C639 1.523 . S
C641 C625 1.429 . S
C641 C637 1.429 . S
C641 C642 1.523 . S
C642 C626 1.368 . S
C642 C638 1.368 . S
C642 C641 1.523 . S
H643 C618 0.950 . S
H644 C620 0.950 . S
H645 C621 0.949 . S
H646 C623 0.950 . S
H647 C625 0.950 . S
C648 C649 1.349 . S
C648 C650 1.327 . S
C648 H673 0.950 . S
C649 C648 1.349 . S
C649 C665 1.349 . S
C650 C648 1.327 . S
C650 C669 1.429 . S
C650 H674 0.950 . S
C651 C668 1.574 . S
C651 C670 1.368 . S
C651 H675 0.949 . S
H652 C656 0.949 . S
C653 C654 1.349 . S
C653 C655 1.327 . S
C653 H676 0.950 1_565 S
C654 C653 1.349 . S
C654 C666 1.349 1_556 S
C655 C653 1.327 . S
C655 C671 1.429 . S
C655 H677 0.950 . S
C656 H652 0.949 . S
C656 C664 1.574 . S
C656 C672 1.368 . S
H657 C665 0.950 . S
H658 C663 0.950 . S
H659 C664 0.949 . S
H660 C666 0.950 . S
H661 C667 0.963 . S
H662 C668 0.949 . S
C663 H658 0.950 . S
C663 C665 1.327 . S
C663 C669 1.429 . S
C664 C656 1.574 . S
C664 H659 0.949 . S
C664 C670 1.368 . S
C665 C649 1.349 . S
C665 H657 0.950 . S
C665 C663 1.327 . S
C666 C654 1.349 1_554 S
C666 H660 0.950 . S
C666 C667 1.327 1_554 S
C667 H661 0.963 . S
C667 C666 1.327 1_556 S
C667 C671 1.429 . S
C668 C651 1.574 . S
C668 H662 0.949 . S
C668 C672 1.368 . S
C669 C650 1.429 . S
C669 C663 1.429 . S
C669 C670 1.523 . S
C670 C651 1.368 . S
C670 C664 1.368 . S
C670 C669 1.523 . S
C671 C655 1.429 . S
C671 C667 1.429 . S
C671 C672 1.523 . S
C672 C656 1.368 . S
C672 C668 1.368 . S
C672 C671 1.523 . S
H673 C648 0.950 . S
H674 C650 0.950 . S
H675 C651 0.949 . S
H676 C653 0.950 1_545 S
H677 C655 0.950 . S
C678 C679 1.349 . S
C678 C680 1.327 . S
C678 H703 0.950 . S
C679 C678 1.349 . S
C679 C695 1.349 . S
C680 C678 1.327 . S
C680 C699 1.429 . S
C680 H704 0.950 . S
C681 C698 1.574 . S
C681 C700 1.368 . S
C681 H705 0.949 . S
H682 C686 0.949 . S
C683 C684 1.349 . S
C683 C685 1.327 . S
C683 H706 0.950 . S
C684 C683 1.349 . S
C684 C696 1.349 . S
C685 C683 1.327 . S
C685 C701 1.429 . S
C685 H707 0.950 . S
C686 H682 0.949 . S
C686 C694 1.574 . S
C686 C702 1.368 . S
H687 C695 0.950 . S
H688 C693 0.950 . S
H689 C694 0.949 . S
H690 C696 0.950 . S
H691 C697 0.950 . S
H692 C698 0.949 . S
C693 H688 0.950 . S
C693 C695 1.327 . S
C693 C699 1.429 . S
C694 C686 1.574 . S
C694 H689 0.949 . S
C694 C700 1.368 . S
C695 C679 1.349 . S
C695 H687 0.950 . S
C695 C693 1.327 . S
C696 C684 1.349 . S
C696 H690 0.950 . S
C696 C697 1.327 . S
C697 H691 0.950 . S
C697 C696 1.327 . S
C697 C701 1.429 . S
C698 C681 1.574 . S
C698 H692 0.949 . S
C698 C702 1.368 . S
C699 C680 1.429 . S
C699 C693 1.429 . S
C699 C700 1.523 . S
C700 C681 1.368 . S
C700 C694 1.368 . S
C700 C699 1.523 . S
C701 C685 1.429 . S
C701 C697 1.429 . S
C701 C702 1.523 . S
C702 C686 1.368 . S
C702 C698 1.368 . S
C702 C701 1.523 . S
H703 C678 0.950 . S
H704 C680 0.950 . S
H705 C681 0.949 . S
H706 C683 0.950 . S
H707 C685 0.950 . S
C708 C709 1.349 . S
C708 C710 1.327 . S
C708 H733 0.950 . S
C709 C708 1.349 . S
C709 C725 1.349 . S
C710 C708 1.327 . S
C710 C729 1.429 . S
C710 H734 0.950 . S
C711 C728 1.574 . S
C711 C730 1.368 . S
C711 H735 0.949 . S
H712 C716 0.949 . S
C713 C714 1.349 . S
C713 C715 1.327 . S
C713 H736 0.950 . S
C714 C713 1.349 . S
C714 C726 1.349 . S
C715 C713 1.327 . S
C715 C731 1.429 . S
C715 H737 0.950 . S
C716 H712 0.949 . S
C716 C724 1.574 . S
C716 C732 1.368 . S
H717 C725 0.950 . S
H718 C723 0.950 . S
H719 C724 0.949 . S
H720 C726 0.950 . S
H721 C727 0.950 . S
H722 C728 0.949 . S
C723 H718 0.950 . S
C723 C725 1.327 . S
C723 C729 1.429 . S
C724 C716 1.574 . S
C724 H719 0.949 . S
C724 C730 1.368 . S
C725 C709 1.349 . S
C725 H717 0.950 . S
C725 C723 1.327 . S
C726 C714 1.349 . S
C726 H720 0.950 . S
C726 C727 1.327 . S
C727 H721 0.950 . S
C727 C726 1.327 . S
C727 C731 1.429 . S
C728 C711 1.574 . S
C728 H722 0.949 . S
C728 C732 1.368 . S
C729 C710 1.429 . S
C729 C723 1.429 . S
C729 C730 1.523 . S
C730 C711 1.368 . S
C730 C724 1.368 . S
C730 C729 1.523 . S
C731 C715 1.429 . S
C731 C727 1.429 . S
C731 C732 1.523 . S
C732 C716 1.368 . S
C732 C728 1.368 . S
C732 C731 1.523 . S
H733 C708 0.950 . S
H734 C710 0.950 . S
H735 C711 0.949 . S
H736 C713 0.950 . S
H737 C715 0.950 . S
C738 C739 1.349 . S
C738 C740 1.327 . S
C738 H763 0.950 . S
C739 C738 1.349 . S
C739 C755 1.349 . S
C740 C738 1.327 . S
C740 C759 1.429 . S
C740 H764 0.950 . S
C741 C758 1.574 . S
C741 C760 1.368 . S
C741 H765 0.949 . S
H742 C746 0.949 . S
C743 C744 1.349 . S
C743 C745 1.327 . S
C743 H766 0.950 . S
C744 C743 1.349 . S
C744 C756 1.349 . S
C745 C743 1.327 . S
C745 C761 1.429 . S
C745 H767 0.950 . S
C746 H742 0.949 . S
C746 C754 1.574 . S
C746 C762 1.368 . S
H747 C755 0.950 . S
H748 C753 0.950 . S
H749 C754 0.949 . S
H750 C756 0.950 . S
H751 C757 0.950 . S
H752 C758 0.949 . S
C753 H748 0.950 . S
C753 C755 1.327 . S
C753 C759 1.429 . S
C754 C746 1.574 . S
C754 H749 0.949 . S
C754 C760 1.368 . S
C755 C739 1.349 . S
C755 H747 0.950 . S
C755 C753 1.327 . S
C756 C744 1.349 . S
C756 H750 0.950 . S
C756 C757 1.327 . S
C757 H751 0.950 . S
C757 C756 1.327 . S
C757 C761 1.429 . S
C758 C741 1.574 . S
C758 H752 0.949 . S
C758 C762 1.368 . S
C759 C740 1.429 . S
C759 C753 1.429 . S
C759 C760 1.523 . S
C760 C741 1.368 . S
C760 C754 1.368 . S
C760 C759 1.523 . S
C761 C745 1.429 . S
C761 C757 1.429 . S
C761 C762 1.523 . S
C762 C746 1.368 . S
C762 C758 1.368 . S
C762 C761 1.523 . S
H763 C738 0.950 . S
H764 C740 0.950 . S
H765 C741 0.949 . S
H766 C743 0.950 . S
H767 C745 0.950 . S
C768 C769 1.349 . S
C768 C770 1.327 . S
C768 H793 0.950 . S
C769 C768 1.349 . S
C769 C785 1.349 . S
C770 C768 1.327 . S
C770 C789 1.429 . S
C770 H794 0.950 . S
C771 C788 1.574 . S
C771 C790 1.368 . S
C771 H795 0.949 . S
H772 C776 0.949 . S
C773 C774 1.349 . S
C773 C775 1.327 . S
C773 H796 0.950 . S
C774 C773 1.349 . S
C774 C786 1.349 . S
C775 C773 1.327 . S
C775 C791 1.429 . S
C775 H797 0.950 . S
C776 H772 0.949 . S
C776 C784 1.574 . S
C776 C792 1.368 . S
H777 C785 0.950 . S
H778 C783 0.950 . S
H779 C784 0.949 . S
H780 C786 0.950 . S
H781 C787 0.950 . S
H782 C788 0.949 . S
C783 H778 0.950 . S
C783 C785 1.327 . S
C783 C789 1.429 . S
C784 C776 1.574 . S
C784 H779 0.949 . S
C784 C790 1.368 . S
C785 C769 1.349 . S
C785 H777 0.950 . S
C785 C783 1.327 . S
C786 C774 1.349 . S
C786 H780 0.950 . S
C786 C787 1.327 . S
C787 H781 0.950 . S
C787 C786 1.327 . S
C787 C791 1.429 . S
C788 C771 1.574 . S
C788 H782 0.949 . S
C788 C792 1.368 . S
C789 C770 1.429 . S
C789 C783 1.429 . S
C789 C790 1.523 . S
C790 C771 1.368 . S
C790 C784 1.368 . S
C790 C789 1.523 . S
C791 C775 1.429 . S
C791 C787 1.429 . S
C791 C792 1.523 . S
C792 C776 1.368 . S
C792 C788 1.368 . S
C792 C791 1.523 . S
H793 C768 0.950 . S
H794 C770 0.950 . S
H795 C771 0.949 . S
H796 C773 0.950 . S
H797 C775 0.950 . S
C798 C799 1.349 . S
C798 C800 1.327 . S
C798 H823 0.950 . S
C799 C798 1.349 . S
C799 C815 1.349 . S
C800 C798 1.327 . S
C800 C819 1.429 . S
C800 H824 0.950 . S
C801 C818 1.574 . S
C801 C820 1.368 . S
C801 H825 0.949 . S
H802 C806 0.949 . S
C803 C804 1.349 . S
C803 C805 1.327 . S
C803 H826 0.950 . S
C804 C803 1.349 . S
C804 C816 1.349 . S
C805 C803 1.327 . S
C805 C821 1.429 . S
C805 H827 0.950 . S
C806 H802 0.949 . S
C806 C814 1.574 . S
C806 C822 1.368 . S
H807 C815 0.950 . S
H808 C813 0.950 . S
H809 C814 0.949 . S
H810 C816 0.950 . S
H811 C817 0.950 . S
H812 C818 0.949 . S
C813 H808 0.950 . S
C813 C815 1.327 . S
C813 C819 1.429 . S
C814 C806 1.574 . S
C814 H809 0.949 . S
C814 C820 1.368 . S
C815 C799 1.349 . S
C815 H807 0.950 . S
C815 C813 1.327 . S
C816 C804 1.349 . S
C816 H810 0.950 . S
C816 C817 1.327 . S
C817 H811 0.950 . S
C817 C816 1.327 . S
C817 C821 1.429 . S
C818 C801 1.574 . S
C818 H812 0.949 . S
C818 C822 1.368 . S
C819 C800 1.429 . S
C819 C813 1.429 . S
C819 C820 1.523 . S
C820 C801 1.368 . S
C820 C814 1.368 . S
C820 C819 1.523 . S
C821 C805 1.429 . S
C821 C817 1.429 . S
C821 C822 1.523 . S
C822 C806 1.368 . S
C822 C818 1.368 . S
C822 C821 1.523 . S
H823 C798 0.950 . S
H824 C800 0.950 . S
H825 C801 0.949 . S
H826 C803 0.950 . S
H827 C805 0.950 . S
C828 C829 1.349 . S
C828 C830 1.327 . S
C828 H853 0.950 . S
C829 C828 1.349 . S
C829 C845 1.349 . S
C830 C828 1.327 . S
C830 C849 1.429 . S
C830 H854 0.950 . S
C831 C848 1.574 . S
C831 C850 1.368 . S
C831 H855 0.949 . S
H832 C836 0.949 . S
C833 C834 1.349 . S
C833 C835 1.327 . S
C833 H856 0.950 . S
C834 C833 1.349 . S
C834 C846 1.349 . S
C835 C833 1.327 . S
C835 C851 1.429 . S
C835 H857 0.950 . S
C836 H832 0.949 . S
C836 C844 1.574 . S
C836 C852 1.368 . S
H837 C845 0.950 . S
H838 C843 0.950 . S
H839 C844 0.949 . S
H840 C846 0.950 . S
H841 C847 0.950 . S
H842 C848 0.949 . S
C843 H838 0.950 . S
C843 C845 1.327 . S
C843 C849 1.429 . S
C844 C836 1.574 . S
C844 H839 0.949 . S
C844 C850 1.368 . S
C845 C829 1.349 . S
C845 H837 0.950 . S
C845 C843 1.327 . S
C846 C834 1.349 . S
C846 H840 0.950 . S
C846 C847 1.327 . S
C847 H841 0.950 . S
C847 C846 1.327 . S
C847 C851 1.429 . S
C848 C831 1.574 . S
C848 H842 0.949 . S
C848 C852 1.368 . S
C849 C830 1.429 . S
C849 C843 1.429 . S
C849 C850 1.523 . S
C850 C831 1.368 . S
C850 C844 1.368 . S
C850 C849 1.523 . S
C851 C835 1.429 . S
C851 C847 1.429 . S
C851 C852 1.523 . S
C852 C836 1.368 . S
C852 C848 1.368 . S
C852 C851 1.523 . S
H853 C828 0.950 . S
H854 C830 0.950 . S
H855 C831 0.949 . S
H856 C833 0.950 . S
H857 C835 0.950 . S
C858 C859 1.349 . S
C858 C860 1.327 . S
C858 H883 0.950 . S
C859 C858 1.349 . S
C859 C875 1.349 . S
C860 C858 1.327 . S
C860 C879 1.429 . S
C860 H884 0.950 . S
C861 C878 1.574 . S
C861 C880 1.368 . S
C861 H885 0.949 . S
H862 C866 0.949 . S
C863 C864 1.349 . S
C863 C865 1.327 . S
C863 H886 0.950 . S
C864 C863 1.349 . S
C864 C876 1.349 . S
C865 C863 1.327 . S
C865 C881 1.429 . S
C865 H887 0.950 . S
C866 H862 0.949 . S
C866 C874 1.574 . S
C866 C882 1.368 . S
H867 C875 0.950 . S
H868 C873 0.950 . S
H869 C874 0.949 . S
H870 C876 0.950 . S
H871 C877 0.950 . S
H872 C878 0.949 . S
C873 H868 0.950 . S
C873 C875 1.327 . S
C873 C879 1.429 . S
C874 C866 1.574 . S
C874 H869 0.949 . S
C874 C880 1.368 . S
C875 C859 1.349 . S
C875 H867 0.950 . S
C875 C873 1.327 . S
C876 C864 1.349 . S
C876 H870 0.950 . S
C876 C877 1.327 . S
C877 H871 0.950 . S
C877 C876 1.327 . S
C877 C881 1.429 . S
C878 C861 1.574 . S
C878 H872 0.949 . S
C878 C882 1.368 . S
C879 C860 1.429 . S
C879 C873 1.429 . S
C879 C880 1.523 . S
C880 C861 1.368 . S
C880 C874 1.368 . S
C880 C879 1.523 . S
C881 C865 1.429 . S
C881 C877 1.429 . S
C881 C882 1.523 . S
C882 C866 1.368 . S
C882 C878 1.368 . S
C882 C881 1.523 . S
H883 C858 0.950 . S
H884 C860 0.950 . S
H885 C861 0.949 . S
H886 C863 0.950 . S
H887 C865 0.950 . S
C169 C5 1.403 . S
C174 C90 1.692 . S
C199 C18 1.401 . S
C204 C109 1.468 . S
C234 C146 1.521 . S
C229 C30 1.532 . S
C259 C41 1.326 . S
C264 C156 1.289 1_655 S
C294 C126 2.166 . S
C289 C7 2.059 . S
C324 C96 1.668 1_565 S
C319 C16 1.458 . S
C354 C167 1.528 . S
C349 C29 1.468 . S
C384 C137 0.897 . S
C379 C38 0.861 . S
C409 C8 1.773 . S
C414 C150 1.803 . S
C444 C117 1.914 . S
C439 C27 1.734 . S
C469 C40 1.771 . S
C474 C107 1.798 . S
C499 C19 0.890 . S
C504 C129 0.893 . S
C534 C89 1.490 . S
C529 C51 1.384 . S
C559 C62 1.633 . S
C564 C110 1.644 . S
C589 C74 1.659 . S
C594 C147 1.655 . S
C619 C84 1.466 . S
C624 C157 1.507 . S
C649 C49 1.907 . S
C654 C127 2.303 1_566 S
C684 C97 1.521 . S
C679 C63 1.542 . S
C714 C166 1.442 . S
C709 C71 1.299 . S
C744 C136 1.002 . S
C739 C85 1.006 . S
C769 C52 1.686 . S
C774 C149 1.729 . S
C804 C116 1.978 . S
C799 C73 1.983 . S
C834 C106 1.366 . S
C829 C82 1.141 . S
C859 C60 1.097 . S
C864 C130 1.298 . S
