# Generated by pormake.
# Topology anh, (6,3)-cn, num edge types: 1
# Building blocks:
#     Node 0, Type 0, BuildingBlock: PAMTUU_clean_sbu_0, # of connection points: 6
#     Node 1, Type 0, BuildingBlock: PAMTUU_clean_sbu_0, # of connection points: 6
#     Node 2, Type 0, BuildingBlock: PAMTUU_clean_sbu_0, # of connection points: 6
#     Node 3, Type 1, BuildingBlock: OLANEW_clean_sbu_2, # of connection points: 3
#     Node 4, Type 1, BuildingBlock: OLANEW_clean_sbu_2, # of connection points: 3
#     Node 5, Type 1, BuildingBlock: OLANEW_clean_sbu_2, # of connection points: 3
#     Node 6, Type 1, BuildingBlock: OLANEW_clean_sbu_2, # of connection points: 3
#     Node 7, Type 1, BuildingBlock: OLANEW_clean_sbu_2, # of connection points: 3
#     Node 8, Type 1, BuildingBlock: OLANEW_clean_sbu_2, # of connection points: 3
#     Edge 9, Type (0, 1), BuildingBlock: OJICUG_clean_linker_0, # of connection points: 2
#     Edge 10, Type (0, 1), BuildingBlock: OJICUG_clean_linker_0, # of connection points: 2
#     Edge 11, Type (0, 1), BuildingBlock: OJICUG_clean_linker_0, # of connection points: 2
#     Edge 12, Type (0, 1), BuildingBlock: OJICUG_clean_linker_0, # of connection points: 2
#     Edge 13, Type (0, 1), BuildingBlock: OJICUG_clean_linker_0, # of connection points: 2
#     Edge 14, Type (0, 1), BuildingBlock: OJICUG_clean_linker_0, # of connection points: 2
#     Edge 15, Type (0, 1), BuildingBlock: OJICUG_clean_linker_0, # of connection points: 2
#     Edge 16, Type (0, 1), BuildingBlock: OJICUG_clean_linker_0, # of connection points: 2
#     Edge 17, Type (0, 1), BuildingBlock: OJICUG_clean_linker_0, # of connection points: 2
#     Edge 18, Type (0, 1), BuildingBlock: OJICUG_clean_linker_0, # of connection points: 2
#     Edge 19, Type (0, 1), BuildingBlock: OJICUG_clean_linker_0, # of connection points: 2
#     Edge 20, Type (0, 1), BuildingBlock: OJICUG_clean_linker_0, # of connection points: 2
#     Edge 21, Type (0, 1), BuildingBlock: OJICUG_clean_linker_0, # of connection points: 2
#     Edge 22, Type (0, 1), BuildingBlock: OJICUG_clean_linker_0, # of connection points: 2
#     Edge 23, Type (0, 1), BuildingBlock: OJICUG_clean_linker_0, # of connection points: 2
#     Edge 24, Type (0, 1), BuildingBlock: OJICUG_clean_linker_0, # of connection points: 2
#     Edge 25, Type (0, 1), BuildingBlock: OJICUG_clean_linker_0, # of connection points: 2
#     Edge 26, Type (0, 1), BuildingBlock: OJICUG_clean_linker_0, # of connection points: 2
# Relax obj value: 0.346
# Max RMSD: 0.146
# Mean RMSD: 0.120
data_MOF--net-anh--node1-PAMTUU_clean_sbu_0--node2-OLANEW_clean_sbu_2--edge1-OJICUG_clean_linker_0
_symmetry_space_group_name_H-M    P1
_symmetry_Int_Tables_number       1
_symmetry_cell_setting            triclinic
loop_
_symmetry_equiv_pos_as_xyz
'x, y, z'
_cell_length_a     28.240793
_cell_length_b     28.133454
_cell_length_c     36.83876
_cell_angle_alpha  92.917203
_cell_angle_beta   93.24486
_cell_angle_gamma 119.84661
loop_
_atom_site_label
_atom_site_type_symbol
_atom_site_fract_x
_atom_site_fract_y
_atom_site_fract_z
_atom_type_partial_charge
Tb0 Tb 0.06728 0.6392 0.17892 0.0
Tb1 Tb 0.12668 0.56692 0.19306 0.0
C2 C 0.10742 0.59501 0.11434 0.0
C3 C 0.95905 0.6708 0.18368 0.0
C4 C 0.84804 0.60975 0.19672 0.0
C5 C 0.86397 0.64398 0.16792 0.0
C6 C 0.91917 0.67416 0.16137 0.0
C7 C 0.94377 0.64089 0.21451 0.0
C8 C 0.88872 0.61074 0.22103 0.0
C9 C 1.0127 0.68708 0.17051 0.0
O10 O 1.00258 0.55993 0.19457 0.0
O11 O 1.03972 0.50577 0.18058 0.0
O12 O 0.08979 0.56747 0.24307 0.0
O13 O 0.08714 0.64673 0.23746 0.0
O14 O 0.14282 0.50497 0.17475 0.0
O15 O 0.17706 0.55017 0.22774 0.0
O16 O 0.18951 0.6526 0.20801 0.0
O17 O 0.15464 0.69871 0.1766 0.0
O18 O 0.06833 0.60291 0.12537 0.0
O19 O 0.14246 0.59253 0.13804 0.0
C20 C 0.9978 0.51097 0.18924 0.0
O21 O 0.05371 0.70388 0.19538 0.0
O22 O 1.01173 0.65144 0.1461 0.0
C23 C 0.085 0.60841 0.25724 0.0
C24 C 0.23274 0.52626 0.19578 0.0
C25 C 0.33934 0.54844 0.18391 0.0
C26 C 0.31947 0.53513 0.2183 0.0
C27 C 0.2666 0.52391 0.22409 0.0
C28 C 0.25268 0.54056 0.16158 0.0
C29 C 0.30537 0.55124 0.15566 0.0
C30 C 0.17782 0.51585 0.20301 0.0
C31 C 0.1956 0.69795 0.19517 0.0
H32 H 0.83351 0.64365 0.14852 0.0
H33 H 0.93009 0.69642 0.13723 0.0
H34 H 0.97379 0.63722 0.23196 0.0
H35 H 0.87764 0.5851 0.24358 0.0
H36 H 0.34479 0.53347 0.24083 0.0
H37 H 0.25221 0.51365 0.2508 0.0
H38 H 0.22759 0.54329 0.13935 0.0
H39 H 0.31897 0.56054 0.12869 0.0
Tb40 Tb 0.50027 1.02508 0.50285 0.0
Tb41 Tb 0.62991 0.08874 0.52927 0.0
C42 C 0.58475 0.07253 0.44552 0.0
C43 C 0.35466 0.92299 0.50277 0.0
C44 C 0.27474 0.82978 0.53337 0.0
C45 C 0.29977 0.82384 0.50292 0.0
C46 C 0.33905 0.86984 0.48772 0.0
C47 C 0.32981 0.92912 0.53335 0.0
C48 C 0.29009 0.88287 0.54848 0.0
C49 C 0.39811 0.97135 0.48729 0.0
O50 O 0.51703 0.96119 0.52119 0.0
O51 O 0.61067 1.00337 0.51979 0.0
O52 O 0.59055 0.04664 0.57628 0.0
O53 O 0.50883 0.04268 0.56157 0.0
O54 O 0.71105 0.11571 0.51754 0.0
O55 O 0.69401 0.14194 0.56871 0.0
O56 O 0.59987 0.14509 0.54179 0.0
O57 O 0.52823 0.11234 0.49778 0.0
O58 O 0.53804 0.03102 0.4525 0.0
O59 O 0.62128 0.10525 0.47223 0.0
C60 C 0.56286 0.95915 0.52267 0.0
O61 O 0.42311 1.01719 0.50844 0.0
O62 O 0.43256 0.96304 0.46978 0.0
C63 C 0.543 0.0389 0.58518 0.0
C64 C 0.75784 0.20977 0.53628 0.0
C65 C 0.80228 0.31965 0.52003 0.0
C66 C 0.834 0.30368 0.54155 0.0
C67 C 0.81174 0.24877 0.54973 0.0
C68 C 0.72657 0.22616 0.51512 0.0
C69 C 0.74825 0.28028 0.50727 0.0
C70 C 0.73054 0.15263 0.54559 0.0
C71 C 0.56486 0.15238 0.52136 0.0
H72 H 0.28765 0.78348 0.48996 0.0
H73 H 0.35705 0.86365 0.46402 0.0
H74 H 0.34094 0.96959 0.54556 0.0
H75 H 0.27109 0.88856 0.57177 0.0
H76 H 0.87594 0.33336 0.55166 0.0
H77 H 0.83622 0.23695 0.56653 0.0
H78 H 0.68464 0.19721 0.50506 0.0
H79 H 0.72223 0.29137 0.49146 0.0
Tb80 Tb 0.56974 0.48462 0.83279 0.0
Tb81 Tb 0.63246 0.61412 0.86007 0.0
C82 C 0.59192 0.57053 0.77788 0.0
C83 C 0.54404 0.34476 0.80723 0.0
C84 C 0.58036 0.26807 0.80475 0.0
C85 C 0.54411 0.26671 0.77638 0.0
C86 C 0.52606 0.3047 0.77767 0.0
C87 C 0.5807 0.34678 0.83552 0.0
C88 C 0.59839 0.30835 0.83443 0.0
C89 C 0.52668 0.38593 0.80701 0.0
O90 O 0.65841 0.51504 0.83138 0.0
O91 O 0.69558 0.59264 0.87148 0.0
O92 O 0.60799 0.56946 0.90906 0.0
O93 O 0.59958 0.48718 0.88816 0.0
O94 O 0.69106 0.69604 0.85295 0.0
O95 O 0.63965 0.67686 0.89724 0.0
O96 O 0.54663 0.59044 0.84763 0.0
O97 O 0.50688 0.49873 0.85566 0.0
O98 O 0.5537 0.52621 0.79023 0.0
O99 O 0.63417 0.60638 0.80029 0.0
C100 C 0.69968 0.55326 0.85384 0.0
O101 O 0.51637 0.40099 0.83832 0.0
O102 O 0.55576 0.4278 0.78865 0.0
C103 C 0.60362 0.52167 0.91494 0.0
C104 C 0.64999 0.7498 0.86529 0.0
C105 C 0.58123 0.79236 0.84707 0.0
C106 C 0.61109 0.80708 0.88158 0.0
C107 C 0.64514 0.78569 0.89068 0.0
C108 C 0.62316 0.73833 0.83 0.0
C109 C 0.58934 0.75962 0.82095 0.0
C110 C 0.672 0.71521 0.87766 0.0
C111 C 0.50398 0.54409 0.85484 0.0
H112 H 0.52888 0.23557 0.75346 0.0
H113 H 0.49817 0.30294 0.75549 0.0
H114 H 0.59577 0.37813 0.85831 0.0
H115 H 0.62646 0.31037 0.85655 0.0
H116 H 0.60548 0.8322 0.90222 0.0
H117 H 0.66476 0.79422 0.91823 0.0
H118 H 0.62548 0.71008 0.81004 0.0
H119 H 0.56759 0.74847 0.79392 0.0
O120 O 0.66205 0.17094 0.28838 0.0
Cd121 Cd 0.6945 0.21624 0.22977 0.0
O122 O 0.58309 0.0974 0.26727 0.0
Cd123 Cd 0.50047 1.01834 0.25861 0.0
O124 O 0.4171 0.94398 0.2402 0.0
C125 C 0.40953 0.89517 0.23731 0.0
O126 O 0.4516 0.88854 0.24571 0.0
C127 C 0.61836 0.12658 0.29435 0.0
C128 C 0.79671 0.31458 0.2222 0.0
O129 O 0.75428 0.31676 0.23054 0.0
O130 O 0.79222 0.26682 0.21948 0.0
O131 O 0.58398 0.51753 0.61055 0.0
Cd132 Cd 0.58598 0.472 0.55036 0.0
O133 O 0.59084 0.59677 0.59736 0.0
Cd134 Cd 0.59166 0.67774 0.5973 0.0
O135 O 0.5948 0.75569 0.58021 0.0
C136 C 0.5526 0.75707 0.5671 0.0
O137 O 0.50485 0.71138 0.56408 0.0
C138 C 0.58696 0.56326 0.62093 0.0
C139 C 0.57598 0.3653 0.54422 0.0
O140 O 0.62177 0.40894 0.55479 0.0
O141 O 0.53412 0.37115 0.53795 0.0
O142 O 0.16663 0.55977 0.94989 0.0
Cd143 Cd 0.20114 0.54475 0.8907 0.0
O144 O 0.0897 0.55927 0.93299 0.0
Cd145 Cd 1.00989 0.56129 0.92804 0.0
O146 O 0.93333 0.56666 0.91318 0.0
C147 C 0.89557 0.53515 0.88808 0.0
O148 O 0.90063 0.49678 0.86988 0.0
C149 C 0.12495 0.5634 0.95848 0.0
C150 C 0.3028 0.54554 0.88514 0.0
O151 O 0.30012 0.5897 0.88446 0.0
O152 O 0.25857 0.50143 0.89037 0.0
O153 O 1.01555 0.56625 0.42287 0.0
Cd154 Cd 0.99373 0.54479 0.48579 0.0
O155 O 1.01845 0.64595 0.41809 0.0
Cd156 Cd 0.9821 0.64491 0.46867 0.0
O157 O 0.9241 0.58096 0.49919 0.0
C158 C 0.88965 0.54007 0.47761 0.0
O159 O 0.88792 0.54617 0.4425 0.0
C160 C 1.02495 0.60707 0.40477 0.0
C161 C 0.08026 0.62845 0.53074 0.0
O162 O 1.036 0.62944 0.52325 0.0
O163 O 0.08198 0.58566 0.51914 0.0
O164 O 0.39407 0.92209 0.71467 0.0
Cd165 Cd 0.3509 0.88224 0.7693 0.0
O166 O 0.46995 0.92971 0.74007 0.0
Cd167 Cd 0.55922 0.97015 0.748 0.0
O168 O 0.60552 0.05854 0.76079 0.0
C169 C 0.60065 0.07587 0.79208 0.0
O170 O 0.5765 0.03999 0.81591 0.0
C171 C 0.44468 0.9378 0.71357 0.0
C172 C 0.41815 0.84997 0.80447 0.0
O173 O 0.37732 0.81641 0.78185 0.0
O174 O 0.42571 0.89841 0.81184 0.0
O175 O 0.55168 0.38781 0.05888 0.0
Cd176 Cd 0.53529 0.35705 0.1203 0.0
O177 O 0.58317 0.4697 0.08673 0.0
Cd178 Cd 0.6136 0.55795 0.09482 0.0
O179 O 0.56433 0.58863 0.11871 0.0
C180 C 0.5401 0.5615 0.14493 0.0
O181 O 0.55201 0.52473 0.15606 0.0
C182 C 0.57227 0.43934 0.05719 0.0
C183 C 0.62808 0.4336 0.16443 0.0
O184 O 0.58681 0.4406 0.15932 0.0
O185 O 0.62389 0.38878 0.1506 0.0
C186 C 0.41227 0.52287 0.19203 0.0
C187 C 0.39409 0.55656 0.17698 0.0
H188 H 0.47295 0.49876 0.19423 0.0
C189 C 0.4273 0.59579 0.15383 0.0
H190 H 0.38756 0.49177 0.20961 0.0
C191 C 0.47624 0.59933 0.14458 0.0
C192 C 0.49301 0.56391 0.15846 0.0
H193 H 0.41505 0.62313 0.14234 0.0
H194 H 0.50002 0.62867 0.12574 0.0
C195 C 0.46125 0.5267 0.18303 0.0
C196 C 0.81257 0.38564 0.47427 0.0
C197 C 0.82456 0.37664 0.50995 0.0
H198 H 0.82219 0.44406 0.43651 0.0
C199 C 0.85569 0.42203 0.53574 0.0
H200 H 0.78921 0.35151 0.45363 0.0
C201 C 0.87488 0.47549 0.52583 0.0
C202 C 0.86328 0.48428 0.48995 0.0
H203 H 0.86489 0.41619 0.56355 0.0
H204 H 0.89982 0.50986 0.54601 0.0
C205 C 0.8314 0.43876 0.46446 0.0
C206 C 0.48692 0.76677 0.82195 0.0
C207 C 0.53843 0.807 0.83894 0.0
H208 H 0.40836 0.74866 0.79822 0.0
C209 C 0.54847 0.86064 0.84744 0.0
H210 H 0.47755 0.7247 0.81595 0.0
C211 C 0.50848 0.87433 0.83753 0.0
C212 C 0.45783 0.8345 0.81911 0.0
H213 H 0.58779 0.89234 0.86061 0.0
H214 H 0.51795 0.91646 0.84322 0.0
C215 C 0.44712 0.78038 0.81208 0.0
C216 C 0.77733 0.51136 0.19936 0.0
C217 C 0.78998 0.56611 0.19699 0.0
H218 H 0.71579 0.42624 0.19117 0.0
C219 C 0.74713 0.57696 0.18949 0.0
H220 H 0.80948 0.5016 0.20465 0.0
C221 C 0.69317 0.53359 0.18192 0.0
C222 C 0.68143 0.47873 0.18121 0.0
H223 H 0.75573 0.61879 0.18769 0.0
H224 H 0.66142 0.54303 0.17408 0.0
C225 C 0.72365 0.46809 0.19139 0.0
C226 C 0.17859 0.77913 0.55007 0.0
C227 C 0.22826 0.78035 0.54587 0.0
H228 H 0.09176 0.7289 0.54961 0.0
C229 C 0.22987 0.7313 0.54683 0.0
H230 H 0.17613 0.81632 0.54965 0.0
C231 C 0.18139 0.68101 0.54652 0.0
C232 C 0.13077 0.67929 0.54528 0.0
H233 H 0.26801 0.73139 0.54463 0.0
H234 H 0.18327 0.64349 0.54369 0.0
C235 C 0.13013 0.72887 0.54991 0.0
C236 C 0.59197 0.19593 0.83428 0.0
C237 C 0.59666 0.22556 0.80384 0.0
H238 H 0.59035 0.12527 0.85456 0.0
C239 C 0.61164 0.21057 0.77136 0.0
H240 H 0.58048 0.20666 0.85966 0.0
C241 C 0.6176 0.16421 0.76845 0.0
C242 C 0.60812 0.13166 0.7979 0.0
H243 H 0.61645 0.23337 0.74769 0.0
H244 H 0.62621 0.15205 0.7424 0.0
C245 C 0.59752 0.14927 0.8313 0.0
C246 C 0.60929 0.90568 0.54231 0.0
C247 C 0.561 0.90691 0.53209 0.0
H248 H 0.64491 0.85837 0.56163 0.0
C249 C 0.51043 0.85823 0.5332 0.0
H250 H 0.64906 0.94229 0.54215 0.0
C251 C 0.50812 0.81013 0.54431 0.0
C252 C 0.55625 0.80897 0.55504 0.0
H253 H 0.47228 0.85724 0.52573 0.0
H254 H 0.46821 0.77381 0.54482 0.0
C255 C 0.60694 0.8575 0.55374 0.0
C256 C 0.79369 0.58804 0.88738 0.0
C257 C 0.75101 0.55019 0.86132 0.0
H258 H 0.87199 0.61321 0.9164 0.0
C259 C 0.75693 0.50788 0.84407 0.0
H260 H 0.79082 0.62109 0.90151 0.0
C261 C 0.80371 0.50344 0.85268 0.0
C262 C 0.84613 0.54094 0.87899 0.0
H263 H 0.72512 0.47767 0.82409 0.0
H264 H 0.80629 0.47005 0.8388 0.0
C265 C 0.84041 0.58346 0.89611 0.0
C266 C 0.29626 0.74546 0.2161 0.0
C267 C 0.25039 0.74941 0.20361 0.0
H268 H 0.38104 0.78711 0.23609 0.0
C269 C 0.25752 0.80247 0.20146 0.0
H270 H 0.29287 0.70561 0.21809 0.0
C271 C 0.30884 0.85002 0.2123 0.0
C272 C 0.35444 0.84568 0.22518 0.0
H273 H 0.2232 0.80729 0.19219 0.0
H274 H 0.31271 0.89011 0.21071 0.0
C275 C 0.34724 0.79258 0.22651 0.0
C276 C 0.52323 0.21362 0.51329 0.0
C277 C 0.56702 0.20666 0.52634 0.0
H278 H 0.49111 0.26848 0.50917 0.0
C279 C 0.61336 0.25234 0.54543 0.0
H280 H 0.48682 0.17947 0.49864 0.0
C281 C 0.61608 0.30336 0.55114 0.0
C282 C 0.57217 0.31032 0.53851 0.0
H283 H 0.648 0.24888 0.55596 0.0
H284 H 0.65268 0.33739 0.56572 0.0
C285 C 0.5256 0.26466 0.51954 0.0
C286 C 0.44954 0.59266 0.86249 0.0
C287 C 0.4521 0.54384 0.86247 0.0
H288 H 0.40152 0.63167 0.86976 0.0
C289 C 0.40513 0.49568 0.87072 0.0
H290 H 0.48467 0.63078 0.85646 0.0
C291 C 0.35713 0.49631 0.87851 0.0
C292 C 0.35462 0.54513 0.87842 0.0
H293 H 0.40535 0.45733 0.87116 0.0
H294 H 0.32181 0.45831 0.88445 0.0
C295 C 0.40167 0.59329 0.87033 0.0
C296 C 0.90079 0.46443 0.20837 0.0
C297 C 0.94552 0.46058 0.19659 0.0
H298 H 0.81953 0.42219 0.22587 0.0
C299 C 0.94076 0.40817 0.19378 0.0
H300 H 0.90279 0.5039 0.2112 0.0
C301 C 0.89305 0.3613 0.20249 0.0
C302 C 0.84837 0.36512 0.21428 0.0
H303 H 0.97415 0.40322 0.18507 0.0
H304 H 0.89118 0.32188 0.1998 0.0
C305 C 0.85298 0.41746 0.21702 0.0
C306 C 0.07371 0.58823 0.04791 0.0
C307 C 0.11168 0.58788 0.07434 0.0
H308 H 0.04768 0.58102 0.991 0.0
C309 C 0.15352 0.57967 0.06213 0.0
H310 H 1.04083 0.5944 0.0562 0.0
C311 C 0.15732 0.57191 0.02479 0.0
C312 C 0.11936 0.57196 0.99819 0.0
H313 H 0.18353 0.57902 0.08145 0.0
H314 H 0.19028 0.56562 0.01683 0.0
C315 C 0.07749 0.58035 1.01034 0.0
C316 C 0.5547 0.0512 0.3779 0.0
C317 C 0.59438 0.08491 0.40671 0.0
H318 H 0.5306 0.03726 0.32054 0.0
C319 C 0.64227 0.1315 0.39803 0.0
H320 H 0.5172 1.01494 0.38337 0.0
C321 C 0.64989 0.14434 0.3617 0.0
C322 C 0.60991 0.11105 0.33283 0.0
H323 H 0.67376 0.15858 0.41934 0.0
H324 H 0.68723 0.18088 0.35635 0.0
C325 C 0.56236 0.06407 0.34156 0.0
C326 C 0.54239 0.53423 0.7154 0.0
C327 C 0.58788 0.57591 0.73776 0.0
H328 H 0.50658 0.49838 0.66117 0.0
C329 C 0.62986 0.61879 0.72079 0.0
H330 H 0.50888 0.50066 0.72714 0.0
C331 C 0.62767 0.61788 0.68234 0.0
C332 C 0.5837 0.57392 0.66034 0.0
H333 H 0.66541 0.65159 0.73707 0.0
H334 H 0.66194 0.64946 0.66986 0.0
C335 C 0.54067 0.533 0.67739 0.0
C336 C 0.47922 1.02337 0.63309 0.0
C337 C 0.52357 1.01955 0.62086 0.0
H338 H 0.41998 1.00087 0.67207 0.0
C339 C 0.5441 0.99127 0.64067 0.0
H340 H 0.46241 0.04485 0.61839 0.0
C341 C 0.51916 0.96537 0.67128 0.0
C342 C 0.4739 0.96808 0.68291 0.0
H343 H 0.57747 0.98667 0.63144 0.0
H344 H 0.53369 0.94106 0.68467 0.0
C345 C 0.45468 0.99793 0.66374 0.0
C346 C 0.60323 0.45686 0.95889 0.0
C347 C 0.59965 0.50385 0.95227 0.0
H348 H 0.59747 0.40002 0.99722 0.0
C349 C 0.58835 0.53056 0.98086 0.0
H350 H 0.61193 0.43523 0.9375 0.0
C351 C 0.57962 0.50991 0.01513 0.0
C352 C 0.58272 0.46264 0.02153 0.0
H353 H 0.58442 0.56627 0.97645 0.0
H354 H 0.5683 0.52975 0.03601 0.0
C355 C 0.59474 0.43647 0.99308 0.0
C356 C 0.0659 0.56709 0.31712 0.0
C357 C 0.07297 0.60968 0.29571 0.0
H358 H 0.04524 0.53282 0.36828 0.0
C359 C 0.06585 0.65234 0.3109 0.0
H360 H 0.07099 0.53357 0.30626 0.0
C361 C 0.05104 0.65191 0.34645 0.0
C362 C 1.04288 0.60876 0.36763 0.0
H363 H 0.07091 0.6858 0.29517 0.0
H364 H 0.04526 0.68508 0.3571 0.0
C365 C 0.051 0.56662 0.35268 0.0
loop_
_geom_bond_atom_site_label_1
_geom_bond_atom_site_label_2
_geom_bond_distance
_geom_bond_site_symmetry_2
_ccdc_geom_bond_type
Tb0 C9 2.764 . S
Tb0 O10 2.325 . S
Tb0 O13 2.303 1_655 S
Tb0 O17 2.322 1_655 S
Tb0 O18 2.349 1_655 S
Tb0 O21 2.415 . S
Tb0 O22 2.399 . S
Tb1 O11 2.322 1_455 S
Tb1 O12 2.349 . S
Tb1 O14 2.415 . S
Tb1 O15 2.399 . S
Tb1 O16 2.325 . S
Tb1 O19 2.303 . S
Tb1 C30 2.764 . S
C2 O18 1.261 . S
C2 O19 1.257 . S
C3 C6 1.358 . S
C3 C7 1.332 . S
C3 C9 1.504 . S
C4 C5 1.373 . S
C4 C8 1.308 . S
C5 C4 1.373 . S
C5 C6 1.429 . S
C5 H32 0.932 . S
C6 C3 1.358 . S
C6 C5 1.429 . S
C6 H33 0.930 . S
C7 C3 1.332 . S
C7 C8 1.394 . S
C7 H34 0.932 . S
C8 C4 1.308 . S
C8 C7 1.394 . S
C8 H35 0.929 . S
C9 Tb0 2.764 . S
C9 C3 1.504 . S
C9 O21 1.239 . S
C9 O22 1.263 . S
O10 Tb0 2.325 . S
O10 C20 1.236 . S
O11 Tb1 2.322 1_655 S
O11 C20 1.257 . S
O12 Tb1 2.349 . S
O12 C23 1.261 . S
O13 Tb0 2.303 1_455 S
O13 C23 1.257 . S
O14 Tb1 2.415 . S
O14 C30 1.239 . S
O15 Tb1 2.399 . S
O15 C30 1.263 . S
O16 Tb1 2.325 . S
O16 C31 1.236 . S
O17 Tb0 2.322 1_455 S
O17 C31 1.257 . S
O18 Tb0 2.349 1_455 S
O18 C2 1.261 . S
O19 Tb1 2.303 . S
O19 C2 1.257 . S
C20 O10 1.236 . S
C20 O11 1.257 . S
O21 Tb0 2.415 . S
O21 C9 1.239 . S
O22 Tb0 2.399 . S
O22 C9 1.263 . S
C23 O12 1.261 . S
C23 O13 1.257 . S
C24 C27 1.358 . S
C24 C28 1.332 . S
C24 C30 1.504 . S
C25 C26 1.373 . S
C25 C29 1.308 . S
C26 C25 1.373 . S
C26 C27 1.429 . S
C26 H36 0.932 . S
C27 C24 1.358 . S
C27 C26 1.429 . S
C27 H37 0.930 . S
C28 C24 1.332 . S
C28 C29 1.394 . S
C28 H38 0.932 . S
C29 C25 1.308 . S
C29 C28 1.394 . S
C29 H39 0.929 . S
C30 Tb1 2.764 . S
C30 O14 1.239 . S
C30 O15 1.263 . S
C30 C24 1.504 . S
C31 O16 1.236 . S
C31 O17 1.257 . S
H32 C5 0.932 . S
H33 C6 0.930 . S
H34 C7 0.932 . S
H35 C8 0.929 . S
H36 C26 0.932 . S
H37 C27 0.930 . S
H38 C28 0.932 . S
H39 C29 0.929 . S
Tb40 C49 2.764 . S
Tb40 O50 2.325 . S
Tb40 O53 2.303 1_565 S
Tb40 O57 2.322 1_565 S
Tb40 O58 2.349 1_565 S
Tb40 O61 2.415 . S
Tb40 O62 2.399 . S
Tb41 O51 2.322 1_545 S
Tb41 O52 2.349 . S
Tb41 O54 2.415 . S
Tb41 O55 2.399 . S
Tb41 O56 2.325 . S
Tb41 O59 2.303 . S
Tb41 C70 2.764 . S
C42 O58 1.261 . S
C42 O59 1.257 . S
C43 C46 1.358 . S
C43 C47 1.332 . S
C43 C49 1.504 . S
C44 C45 1.373 . S
C44 C48 1.308 . S
C45 C44 1.373 . S
C45 C46 1.429 . S
C45 H72 0.932 . S
C46 C43 1.358 . S
C46 C45 1.429 . S
C46 H73 0.930 . S
C47 C43 1.332 . S
C47 C48 1.394 . S
C47 H74 0.932 . S
C48 C44 1.308 . S
C48 C47 1.394 . S
C48 H75 0.929 . S
C49 Tb40 2.764 . S
C49 C43 1.504 . S
C49 O61 1.239 . S
C49 O62 1.263 . S
O50 Tb40 2.325 . S
O50 C60 1.236 . S
O51 Tb41 2.322 1_565 S
O51 C60 1.257 . S
O52 Tb41 2.349 . S
O52 C63 1.261 . S
O53 Tb40 2.303 1_545 S
O53 C63 1.257 . S
O54 Tb41 2.415 . S
O54 C70 1.239 . S
O55 Tb41 2.399 . S
O55 C70 1.263 . S
O56 Tb41 2.325 . S
O56 C71 1.236 . S
O57 Tb40 2.322 1_545 S
O57 C71 1.257 . S
O58 Tb40 2.349 1_545 S
O58 C42 1.261 . S
O59 Tb41 2.303 . S
O59 C42 1.257 . S
C60 O50 1.236 . S
C60 O51 1.257 . S
O61 Tb40 2.415 . S
O61 C49 1.239 . S
O62 Tb40 2.399 . S
O62 C49 1.263 . S
C63 O52 1.261 . S
C63 O53 1.257 . S
C64 C67 1.358 . S
C64 C68 1.332 . S
C64 C70 1.504 . S
C65 C66 1.373 . S
C65 C69 1.308 . S
C66 C65 1.373 . S
C66 C67 1.429 . S
C66 H76 0.932 . S
C67 C64 1.358 . S
C67 C66 1.429 . S
C67 H77 0.930 . S
C68 C64 1.332 . S
C68 C69 1.394 . S
C68 H78 0.932 . S
C69 C65 1.308 . S
C69 C68 1.394 . S
C69 H79 0.929 . S
C70 Tb41 2.764 . S
C70 O54 1.239 . S
C70 O55 1.263 . S
C70 C64 1.504 . S
C71 O56 1.236 . S
C71 O57 1.257 . S
H72 C45 0.932 . S
H73 C46 0.930 . S
H74 C47 0.932 . S
H75 C48 0.929 . S
H76 C66 0.932 . S
H77 C67 0.930 . S
H78 C68 0.932 . S
H79 C69 0.929 . S
Tb80 C89 2.764 . S
Tb80 O90 2.325 . S
Tb80 O93 2.303 . S
Tb80 O97 2.322 . S
Tb80 O98 2.349 . S
Tb80 O101 2.415 . S
Tb80 O102 2.399 . S
Tb81 O91 2.322 . S
Tb81 O92 2.349 . S
Tb81 O94 2.415 . S
Tb81 O95 2.399 . S
Tb81 O96 2.325 . S
Tb81 O99 2.303 . S
Tb81 C110 2.764 . S
C82 O98 1.261 . S
C82 O99 1.257 . S
C83 C86 1.358 . S
C83 C87 1.332 . S
C83 C89 1.504 . S
C84 C85 1.373 . S
C84 C88 1.308 . S
C85 C84 1.373 . S
C85 C86 1.429 . S
C85 H112 0.932 . S
C86 C83 1.358 . S
C86 C85 1.429 . S
C86 H113 0.930 . S
C87 C83 1.332 . S
C87 C88 1.394 . S
C87 H114 0.932 . S
C88 C84 1.308 . S
C88 C87 1.394 . S
C88 H115 0.929 . S
C89 Tb80 2.764 . S
C89 C83 1.504 . S
C89 O101 1.239 . S
C89 O102 1.263 . S
O90 Tb80 2.325 . S
O90 C100 1.236 . S
O91 Tb81 2.322 . S
O91 C100 1.257 . S
O92 Tb81 2.349 . S
O92 C103 1.261 . S
O93 Tb80 2.303 . S
O93 C103 1.257 . S
O94 Tb81 2.415 . S
O94 C110 1.239 . S
O95 Tb81 2.399 . S
O95 C110 1.263 . S
O96 Tb81 2.325 . S
O96 C111 1.236 . S
O97 Tb80 2.322 . S
O97 C111 1.257 . S
O98 Tb80 2.349 . S
O98 C82 1.261 . S
O99 Tb81 2.303 . S
O99 C82 1.257 . S
C100 O90 1.236 . S
C100 O91 1.257 . S
O101 Tb80 2.415 . S
O101 C89 1.239 . S
O102 Tb80 2.399 . S
O102 C89 1.263 . S
C103 O92 1.261 . S
C103 O93 1.257 . S
C104 C107 1.358 . S
C104 C108 1.332 . S
C104 C110 1.504 . S
C105 C106 1.373 . S
C105 C109 1.308 . S
C106 C105 1.373 . S
C106 C107 1.429 . S
C106 H116 0.932 . S
C107 C104 1.358 . S
C107 C106 1.429 . S
C107 H117 0.930 . S
C108 C104 1.332 . S
C108 C109 1.394 . S
C108 H118 0.932 . S
C109 C105 1.308 . S
C109 C108 1.394 . S
C109 H119 0.929 . S
C110 Tb81 2.764 . S
C110 O94 1.239 . S
C110 O95 1.263 . S
C110 C104 1.504 . S
C111 O96 1.236 . S
C111 O97 1.257 . S
H112 C85 0.932 . S
H113 C86 0.930 . S
H114 C87 0.932 . S
H115 C88 0.929 . S
H116 C106 0.932 . S
H117 C107 0.930 . S
H118 C108 0.932 . S
H119 C109 0.929 . S
O120 Cd121 2.300 . S
O120 C127 1.275 . S
Cd121 O120 2.300 . S
Cd121 O129 2.381 . S
Cd121 O130 2.378 . S
O122 Cd123 2.385 . S
O122 C127 1.255 1_565 S
Cd123 O122 2.385 . S
Cd123 O124 2.317 . S
O124 Cd123 2.317 . S
O124 C125 1.232 . S
C125 O124 1.232 . S
C125 O126 1.218 . S
O126 C125 1.218 . S
C127 O120 1.275 . S
C127 O122 1.255 1_545 S
C128 O129 1.258 . S
C128 O130 1.256 . S
O129 Cd121 2.381 . S
O129 C128 1.258 . S
O130 Cd121 2.378 . S
O130 C128 1.256 . S
O131 Cd132 2.300 . S
O131 C138 1.275 . S
Cd132 O131 2.300 . S
Cd132 O140 2.381 . S
Cd132 O141 2.378 . S
O133 Cd134 2.385 . S
O133 C138 1.255 . S
Cd134 O133 2.385 . S
Cd134 O135 2.317 . S
O135 Cd134 2.317 . S
O135 C136 1.232 . S
C136 O135 1.232 . S
C136 O137 1.218 . S
O137 C136 1.218 . S
C138 O131 1.275 . S
C138 O133 1.255 . S
C139 O140 1.258 . S
C139 O141 1.256 . S
O140 Cd132 2.381 . S
O140 C139 1.258 . S
O141 Cd132 2.378 . S
O141 C139 1.256 . S
O142 Cd143 2.300 . S
O142 C149 1.275 . S
Cd143 O142 2.300 . S
Cd143 O151 2.381 . S
Cd143 O152 2.378 . S
O144 Cd145 2.385 1_455 S
O144 C149 1.255 . S
Cd145 O144 2.385 1_655 S
Cd145 O146 2.317 . S
O146 Cd145 2.317 . S
O146 C147 1.232 . S
C147 O146 1.232 . S
C147 O148 1.218 . S
O148 C147 1.218 . S
C149 O142 1.275 . S
C149 O144 1.255 . S
C150 O151 1.258 . S
C150 O152 1.256 . S
O151 Cd143 2.381 . S
O151 C150 1.258 . S
O152 Cd143 2.378 . S
O152 C150 1.256 . S
O153 Cd154 2.300 . S
O153 C160 1.275 1_455 S
Cd154 O153 2.300 . S
Cd154 O162 2.381 . S
Cd154 O163 2.378 . S
O155 Cd156 2.385 . S
O155 C160 1.255 . S
Cd156 O155 2.385 . S
Cd156 O157 2.317 . S
O157 Cd156 2.317 . S
O157 C158 1.232 . S
C158 O157 1.232 . S
C158 O159 1.218 . S
O159 C158 1.218 . S
C160 O153 1.275 1_655 S
C160 O155 1.255 . S
C161 O162 1.258 . S
C161 O163 1.256 . S
O162 Cd154 2.381 . S
O162 C161 1.258 . S
O163 Cd154 2.378 . S
O163 C161 1.256 . S
O164 Cd165 2.300 . S
O164 C171 1.275 1_565 S
Cd165 O164 2.300 . S
Cd165 O173 2.381 . S
Cd165 O174 2.378 . S
O166 Cd167 2.385 . S
O166 C171 1.255 . S
Cd167 O166 2.385 . S
Cd167 O168 2.317 . S
O168 Cd167 2.317 . S
O168 C169 1.232 . S
C169 O168 1.232 . S
C169 O170 1.218 . S
O170 C169 1.218 . S
C171 O164 1.275 1_545 S
C171 O166 1.255 . S
C172 O173 1.258 . S
C172 O174 1.256 . S
O173 Cd165 2.381 . S
O173 C172 1.258 . S
O174 Cd165 2.378 . S
O174 C172 1.256 . S
O175 Cd176 2.300 . S
O175 C182 1.275 . S
Cd176 O175 2.300 . S
Cd176 O184 2.381 . S
Cd176 O185 2.378 . S
O177 Cd178 2.385 . S
O177 C182 1.255 . S
Cd178 O177 2.385 . S
Cd178 O179 2.317 . S
O179 Cd178 2.317 . S
O179 C180 1.232 . S
C180 O179 1.232 . S
C180 O181 1.218 . S
O181 C180 1.218 . S
C182 O175 1.275 . S
C182 O177 1.255 . S
C183 O184 1.258 . S
C183 O185 1.256 . S
O184 Cd176 2.381 . S
O184 C183 1.258 . S
O185 Cd176 2.378 . S
O185 C183 1.256 . S
C186 C187 1.387 . S
C186 H190 0.950 . S
C186 C195 1.390 . S
C187 C186 1.387 . S
C187 C189 1.387 . S
H188 C195 0.950 . S
C189 C187 1.387 . S
C189 C191 1.390 . S
C189 H193 0.950 . S
H190 C186 0.950 . S
C191 C189 1.390 . S
C191 C192 1.387 . S
C191 H194 0.950 . S
C192 C191 1.387 . S
C192 C195 1.387 . S
H193 C189 0.950 . S
H194 C191 0.950 . S
C195 C186 1.390 . S
C195 H188 0.950 . S
C195 C192 1.387 . S
C196 C197 1.387 . S
C196 H200 0.950 . S
C196 C205 1.390 . S
C197 C196 1.387 . S
C197 C199 1.387 . S
H198 C205 0.950 . S
C199 C197 1.387 . S
C199 C201 1.390 . S
C199 H203 0.950 . S
H200 C196 0.950 . S
C201 C199 1.390 . S
C201 C202 1.387 . S
C201 H204 0.950 . S
C202 C201 1.387 . S
C202 C205 1.387 . S
H203 C199 0.950 . S
H204 C201 0.950 . S
C205 C196 1.390 . S
C205 H198 0.950 . S
C205 C202 1.387 . S
C206 C207 1.387 . S
C206 H210 0.950 . S
C206 C215 1.390 . S
C207 C206 1.387 . S
C207 C209 1.387 . S
H208 C215 0.950 . S
C209 C207 1.387 . S
C209 C211 1.390 . S
C209 H213 0.950 . S
H210 C206 0.950 . S
C211 C209 1.390 . S
C211 C212 1.387 . S
C211 H214 0.950 . S
C212 C211 1.387 . S
C212 C215 1.387 . S
H213 C209 0.950 . S
H214 C211 0.950 . S
C215 C206 1.390 . S
C215 H208 0.950 . S
C215 C212 1.387 . S
C216 C217 1.387 . S
C216 H220 0.950 . S
C216 C225 1.390 . S
C217 C216 1.387 . S
C217 C219 1.387 . S
H218 C225 0.950 . S
C219 C217 1.387 . S
C219 C221 1.390 . S
C219 H223 0.950 . S
H220 C216 0.950 . S
C221 C219 1.390 . S
C221 C222 1.387 . S
C221 H224 0.950 . S
C222 C221 1.387 . S
C222 C225 1.387 . S
H223 C219 0.950 . S
H224 C221 0.950 . S
C225 C216 1.390 . S
C225 H218 0.950 . S
C225 C222 1.387 . S
C226 C227 1.387 . S
C226 H230 0.950 . S
C226 C235 1.390 . S
C227 C226 1.387 . S
C227 C229 1.387 . S
H228 C235 0.950 . S
C229 C227 1.387 . S
C229 C231 1.390 . S
C229 H233 0.950 . S
H230 C226 0.950 . S
C231 C229 1.390 . S
C231 C232 1.387 . S
C231 H234 0.950 . S
C232 C231 1.387 . S
C232 C235 1.387 . S
H233 C229 0.950 . S
H234 C231 0.950 . S
C235 C226 1.390 . S
C235 H228 0.950 . S
C235 C232 1.387 . S
C236 C237 1.387 . S
C236 H240 0.950 . S
C236 C245 1.390 . S
C237 C236 1.387 . S
C237 C239 1.387 . S
H238 C245 0.950 . S
C239 C237 1.387 . S
C239 C241 1.390 . S
C239 H243 0.950 . S
H240 C236 0.950 . S
C241 C239 1.390 . S
C241 C242 1.387 . S
C241 H244 0.950 . S
C242 C241 1.387 . S
C242 C245 1.387 . S
H243 C239 0.950 . S
H244 C241 0.950 . S
C245 C236 1.390 . S
C245 H238 0.950 . S
C245 C242 1.387 . S
C246 C247 1.387 . S
C246 H250 0.950 . S
C246 C255 1.390 . S
C247 C246 1.387 . S
C247 C249 1.387 . S
H248 C255 0.950 . S
C249 C247 1.387 . S
C249 C251 1.390 . S
C249 H253 0.950 . S
H250 C246 0.950 . S
C251 C249 1.390 . S
C251 C252 1.387 . S
C251 H254 0.950 . S
C252 C251 1.387 . S
C252 C255 1.387 . S
H253 C249 0.950 . S
H254 C251 0.950 . S
C255 C246 1.390 . S
C255 H248 0.950 . S
C255 C252 1.387 . S
C256 C257 1.387 . S
C256 H260 0.950 . S
C256 C265 1.390 . S
C257 C256 1.387 . S
C257 C259 1.387 . S
H258 C265 0.950 . S
C259 C257 1.387 . S
C259 C261 1.390 . S
C259 H263 0.950 . S
H260 C256 0.950 . S
C261 C259 1.390 . S
C261 C262 1.387 . S
C261 H264 0.950 . S
C262 C261 1.387 . S
C262 C265 1.387 . S
H263 C259 0.950 . S
H264 C261 0.950 . S
C265 C256 1.390 . S
C265 H258 0.950 . S
C265 C262 1.387 . S
C266 C267 1.387 . S
C266 H270 0.950 . S
C266 C275 1.390 . S
C267 C266 1.387 . S
C267 C269 1.387 . S
H268 C275 0.950 . S
C269 C267 1.387 . S
C269 C271 1.390 . S
C269 H273 0.950 . S
H270 C266 0.950 . S
C271 C269 1.390 . S
C271 C272 1.387 . S
C271 H274 0.950 . S
C272 C271 1.387 . S
C272 C275 1.387 . S
H273 C269 0.950 . S
H274 C271 0.950 . S
C275 C266 1.390 . S
C275 H268 0.950 . S
C275 C272 1.387 . S
C276 C277 1.387 . S
C276 H280 0.950 . S
C276 C285 1.390 . S
C277 C276 1.387 . S
C277 C279 1.387 . S
H278 C285 0.950 . S
C279 C277 1.387 . S
C279 C281 1.390 . S
C279 H283 0.950 . S
H280 C276 0.950 . S
C281 C279 1.390 . S
C281 C282 1.387 . S
C281 H284 0.950 . S
C282 C281 1.387 . S
C282 C285 1.387 . S
H283 C279 0.950 . S
H284 C281 0.950 . S
C285 C276 1.390 . S
C285 H278 0.950 . S
C285 C282 1.387 . S
C286 C287 1.387 . S
C286 H290 0.950 . S
C286 C295 1.390 . S
C287 C286 1.387 . S
C287 C289 1.387 . S
H288 C295 0.950 . S
C289 C287 1.387 . S
C289 C291 1.390 . S
C289 H293 0.950 . S
H290 C286 0.950 . S
C291 C289 1.390 . S
C291 C292 1.387 . S
C291 H294 0.950 . S
C292 C291 1.387 . S
C292 C295 1.387 . S
H293 C289 0.950 . S
H294 C291 0.950 . S
C295 C286 1.390 . S
C295 H288 0.950 . S
C295 C292 1.387 . S
C296 C297 1.387 . S
C296 H300 0.950 . S
C296 C305 1.390 . S
C297 C296 1.387 . S
C297 C299 1.387 . S
H298 C305 0.950 . S
C299 C297 1.387 . S
C299 C301 1.390 . S
C299 H303 0.950 . S
H300 C296 0.950 . S
C301 C299 1.390 . S
C301 C302 1.387 . S
C301 H304 0.950 . S
C302 C301 1.387 . S
C302 C305 1.387 . S
H303 C299 0.950 . S
H304 C301 0.950 . S
C305 C296 1.390 . S
C305 H298 0.950 . S
C305 C302 1.387 . S
C306 C307 1.387 . S
C306 H310 0.950 1_455 S
C306 C315 1.390 . S
C307 C306 1.387 . S
C307 C309 1.387 . S
H308 C315 0.950 1_656 S
C309 C307 1.387 . S
C309 C311 1.390 . S
C309 H313 0.950 . S
H310 C306 0.950 1_655 S
C311 C309 1.390 . S
C311 C312 1.387 1_554 S
C311 H314 0.950 . S
C312 C311 1.387 1_556 S
C312 C315 1.387 1_556 S
H313 C309 0.950 . S
H314 C311 0.950 . S
C315 C306 1.390 . S
C315 H308 0.950 1_454 S
C315 C312 1.387 1_554 S
C316 C317 1.387 . S
C316 H320 0.950 . S
C316 C325 1.390 . S
C317 C316 1.387 . S
C317 C319 1.387 . S
H318 C325 0.950 . S
C319 C317 1.387 . S
C319 C321 1.391 . S
C319 H323 0.950 1_545 S
H320 C316 0.950 . S
C321 C319 1.391 . S
C321 C322 1.407 . S
C321 H324 0.930 1_545 S
C322 C321 1.407 . S
C322 C325 1.387 . S
H323 C319 0.950 1_565 S
H324 C321 0.930 1_565 S
C325 C316 1.390 . S
C325 H318 0.950 . S
C325 C322 1.387 . S
C326 C327 1.387 . S
C326 H330 0.950 . S
C326 C335 1.390 . S
C327 C326 1.387 . S
C327 C329 1.387 . S
H328 C335 0.950 . S
C329 C327 1.387 . S
C329 C331 1.390 . S
C329 H333 0.950 . S
H330 C326 0.950 . S
C331 C329 1.390 . S
C331 C332 1.387 . S
C331 H334 0.950 . S
C332 C331 1.387 . S
C332 C335 1.387 . S
H333 C329 0.950 . S
H334 C331 0.950 . S
C335 C326 1.390 . S
C335 H328 0.950 . S
C335 C332 1.387 . S
C336 C337 1.387 1_565 S
C336 H340 0.950 . S
C336 C345 1.390 . S
C337 C336 1.387 1_545 S
C337 C339 1.387 . S
H338 C345 0.950 . S
C339 C337 1.387 . S
C339 C341 1.390 . S
C339 H343 0.950 . S
H340 C336 0.950 . S
C341 C339 1.390 . S
C341 C342 1.387 . S
C341 H344 0.950 . S
C342 C341 1.387 . S
C342 C345 1.387 1_545 S
H343 C339 0.950 . S
H344 C341 0.950 . S
C345 C336 1.390 . S
C345 H338 0.950 . S
C345 C342 1.387 1_565 S
C346 C347 1.387 . S
C346 H350 0.950 . S
C346 C355 1.390 . S
C347 C346 1.387 . S
C347 C349 1.387 . S
H348 C355 0.950 . S
C349 C347 1.387 . S
C349 C351 1.373 1_556 S
C349 H353 0.950 . S
H350 C346 0.950 . S
C351 C349 1.373 1_554 S
C351 C352 1.394 . S
C351 H354 0.961 . S
C352 C351 1.394 . S
C352 C355 1.387 1_554 S
H353 C349 0.950 . S
H354 C351 0.961 . S
C355 C346 1.390 . S
C355 H348 0.950 . S
C355 C352 1.387 1_556 S
C356 C357 1.387 1_655 S
C356 H360 0.950 . S
C356 C365 1.390 . S
C357 C356 1.387 1_455 S
C357 C359 1.387 . S
H358 C365 0.950 . S
C359 C357 1.387 . S
C359 C361 1.390 . S
C359 H363 0.950 . S
H360 C356 0.950 . S
C361 C359 1.390 . S
C361 C362 1.387 1_455 S
C361 H364 0.950 . S
C362 C361 1.387 1_655 S
C362 C365 1.387 . S
H363 C359 0.950 . S
H364 C361 0.950 . S
C365 C356 1.390 . S
C365 H358 0.950 . S
C365 C362 1.387 . S
C187 C25 0.685 . S
C192 C180 0.744 . S
C197 C65 0.685 . S
C202 C158 0.641 . S
C207 C105 0.667 . S
C212 C172 0.620 . S
C217 C4 0.667 . S
C222 C183 0.627 . S
C232 C161 0.390 . S
C227 C44 0.536 . S
C242 C169 0.735 . S
C237 C84 0.707 . S
C247 C60 3.166 . S
C252 C136 2.831 . S
C257 C100 3.258 . S
C262 C147 2.890 . S
C267 C31 3.250 . S
C272 C125 2.879 . S
C282 C139 2.955 . S
C277 C71 3.052 . S
C292 C150 2.857 . S
C287 C111 2.937 . S
C297 C20 2.937 . S
C302 C128 2.857 . S
C312 C149 1.715 . S
C307 C2 1.724 . S
C317 C42 1.717 . S
C322 C127 1.708 . S
C327 C82 1.787 . S
C332 C138 1.718 . S
C342 C171 1.038 . S
C337 C63 1.090 . S
C352 C182 1.072 . S
C347 C103 1.161 . S
C357 C23 1.143 . S
C362 C160 1.093 . S
