# Generated by pormake.
# Topology csq, (4,8)-cn, num edge types: 1
# Building blocks:
#     Node 0, Type 0, BuildingBlock: KOZSID_clean_sbu_0, # of connection points: 4
#     Node 1, Type 0, BuildingBlock: KOZSID_clean_sbu_0, # of connection points: 4
#     Node 2, Type 0, BuildingBlock: KOZSID_clean_sbu_0, # of connection points: 4
#     Node 3, Type 0, BuildingBlock: KOZSID_clean_sbu_0, # of connection points: 4
#     Node 4, Type 0, BuildingBlock: KOZSID_clean_sbu_0, # of connection points: 4
#     Node 5, Type 0, BuildingBlock: KOZSID_clean_sbu_0, # of connection points: 4
#     Node 6, Type 1, BuildingBlock: TAGTUT_clean_sbu_1, # of connection points: 8
#     Node 7, Type 1, BuildingBlock: TAGTUT_clean_sbu_1, # of connection points: 8
#     Node 8, Type 1, BuildingBlock: TAGTUT_clean_sbu_1, # of connection points: 8
#     Edge 9, Type (0, 1), BuildingBlock: ZUJKAS_clean_linker_0, # of connection points: 2
#     Edge 10, Type (0, 1), BuildingBlock: ZUJKAS_clean_linker_0, # of connection points: 2
#     Edge 11, Type (0, 1), BuildingBlock: ZUJKAS_clean_linker_0, # of connection points: 2
#     Edge 12, Type (0, 1), BuildingBlock: ZUJKAS_clean_linker_0, # of connection points: 2
#     Edge 13, Type (0, 1), BuildingBlock: ZUJKAS_clean_linker_0, # of connection points: 2
#     Edge 14, Type (0, 1), BuildingBlock: ZUJKAS_clean_linker_0, # of connection points: 2
#     Edge 15, Type (0, 1), BuildingBlock: ZUJKAS_clean_linker_0, # of connection points: 2
#     Edge 16, Type (0, 1), BuildingBlock: ZUJKAS_clean_linker_0, # of connection points: 2
#     Edge 17, Type (0, 1), BuildingBlock: ZUJKAS_clean_linker_0, # of connection points: 2
#     Edge 18, Type (0, 1), BuildingBlock: ZUJKAS_clean_linker_0, # of connection points: 2
#     Edge 19, Type (0, 1), BuildingBlock: ZUJKAS_clean_linker_0, # of connection points: 2
#     Edge 20, Type (0, 1), BuildingBlock: ZUJKAS_clean_linker_0, # of connection points: 2
#     Edge 21, Type (0, 1), BuildingBlock: ZUJKAS_clean_linker_0, # of connection points: 2
#     Edge 22, Type (0, 1), BuildingBlock: ZUJKAS_clean_linker_0, # of connection points: 2
#     Edge 23, Type (0, 1), BuildingBlock: ZUJKAS_clean_linker_0, # of connection points: 2
#     Edge 24, Type (0, 1), BuildingBlock: ZUJKAS_clean_linker_0, # of connection points: 2
#     Edge 25, Type (0, 1), BuildingBlock: ZUJKAS_clean_linker_0, # of connection points: 2
#     Edge 26, Type (0, 1), BuildingBlock: ZUJKAS_clean_linker_0, # of connection points: 2
#     Edge 27, Type (0, 1), BuildingBlock: ZUJKAS_clean_linker_0, # of connection points: 2
#     Edge 28, Type (0, 1), BuildingBlock: ZUJKAS_clean_linker_0, # of connection points: 2
#     Edge 29, Type (0, 1), BuildingBlock: ZUJKAS_clean_linker_0, # of connection points: 2
#     Edge 30, Type (0, 1), BuildingBlock: ZUJKAS_clean_linker_0, # of connection points: 2
#     Edge 31, Type (0, 1), BuildingBlock: ZUJKAS_clean_linker_0, # of connection points: 2
#     Edge 32, Type (0, 1), BuildingBlock: ZUJKAS_clean_linker_0, # of connection points: 2
# Relax obj value: 0.034
# Max RMSD: 0.133
# Mean RMSD: 0.042
data_MOF--net-csq--node1-KOZSID_clean_sbu_0--node2-TAGTUT_clean_sbu_1--edge1-ZUJKAS_clean_linker_0
_symmetry_space_group_name_H-M    P1
_symmetry_Int_Tables_number       1
_symmetry_cell_setting            triclinic
loop_
_symmetry_equiv_pos_as_xyz
'x, y, z'
_cell_length_a     71.066686
_cell_length_b     70.181005
_cell_length_c     25.995698
_cell_angle_alpha  88.613905
_cell_angle_beta   95.740026
_cell_angle_gamma 119.88774
loop_
_atom_site_label
_atom_site_type_symbol
_atom_site_fract_x
_atom_site_fract_y
_atom_site_fract_z
_atom_type_partial_charge
C0 C 0.29148 0.51852 0.26893 0.0
C1 C 0.30813 0.53842 0.29079 0.0
C2 C 0.30766 0.55455 0.26139 0.0
C3 C 0.29093 0.54365 0.22328 0.0
N4 N 0.2807 0.52149 0.2263 0.0
Co5 Co 0.25557 0.49935 0.17853 0.0
N6 N 0.25434 0.52318 0.13671 0.0
C7 C 0.26711 0.54514 0.14517 0.0
C8 C 0.2626 0.5574 0.10957 0.0
C9 C 0.24599 0.54239 0.07613 0.0
C10 C 0.24133 0.52177 0.09345 0.0
N11 N 0.2306 0.4772 0.13047 0.0
C12 C 0.22007 0.48018 0.0874 0.0
C13 C 0.20386 0.46029 0.06451 0.0
C14 C 0.20429 0.44414 0.0939 0.0
C15 C 0.22063 0.45503 0.13286 0.0
N16 N 0.25666 0.47552 0.22067 0.0
C17 C 0.24352 0.45356 0.21294 0.0
C18 C 0.24764 0.44129 0.24927 0.0
C19 C 0.26436 0.45628 0.28248 0.0
C20 C 0.26955 0.47692 0.2642 0.0
N21 N 0.23464 0.49962 0.22443 0.0
C22 C 0.20558 0.49998 0.29166 0.0
C23 C 0.20199 0.48035 0.26927 0.0
C24 C 0.21658 0.48052 0.23635 0.0
C25 C 0.22396 0.51944 0.2793 0.0
C26 C 0.23802 0.5189 0.2458 0.0
N27 N 0.27647 0.4991 0.13247 0.0
C28 C 0.28753 0.47924 0.07884 0.0
C29 C 0.30463 0.49882 0.06217 0.0
C30 C 0.30751 0.51853 0.08245 0.0
C31 C 0.29345 0.5183 0.11705 0.0
C32 C 0.27388 0.47974 0.11368 0.0
H33 H 0.2966 0.53392 0.13059 0.0
H34 H 0.26118 0.46422 0.12445 0.0
H35 H 0.21295 0.46495 0.22124 0.0
H36 H 0.25155 0.53436 0.23781 0.0
C37 C 0.2839 0.55377 0.18538 0.0
C38 C 0.2866 0.4973 0.29009 0.0
C39 C 0.22479 0.5014 0.06672 0.0
C40 C 0.22717 0.44493 0.17179 0.0
H41 H 0.3194 0.54105 0.32469 0.0
H42 H 0.31812 0.57213 0.26741 0.0
H43 H 0.27069 0.57514 0.10761 0.0
H44 H 0.23837 0.54619 0.04237 0.0
H45 H 0.19292 0.45772 0.02999 0.0
H46 H 0.19403 0.42656 0.08743 0.0
H47 H 0.2393 0.42356 0.25168 0.0
H48 H 0.27174 0.45245 0.31663 0.0
H49 H 0.18814 0.46476 0.27779 0.0
H50 H 0.22739 0.53516 0.29481 0.0
H51 H 0.2843 0.46344 0.06436 0.0
H52 H 0.32072 0.53422 0.07209 0.0
C53 C 0.81757 0.2654 0.07156 0.0
C54 C 0.83465 0.26147 0.06703 0.0
C55 C 0.83008 0.24283 0.09329 0.0
C56 C 0.81063 0.23651 0.1126 0.0
N57 N 0.80227 0.24978 0.09958 0.0
Co58 Co 0.77526 0.24769 0.1233 0.0
N59 N 0.77036 0.22228 0.16844 0.0
C60 C 0.78233 0.21209 0.17299 0.0
C61 C 0.77504 0.19512 0.20661 0.0
C62 C 0.75738 0.19441 0.22485 0.0
C63 C 0.75494 0.21114 0.20134 0.0
N64 N 0.74845 0.24584 0.1476 0.0
C65 C 0.73515 0.23256 0.18268 0.0
C66 C 0.71864 0.23715 0.18908 0.0
C67 C 0.72151 0.25382 0.15685 0.0
C68 C 0.73959 0.25854 0.13281 0.0
N69 N 0.7802 0.27312 0.07823 0.0
C70 C 0.76722 0.28213 0.07008 0.0
C71 C 0.77519 0.29981 0.0385 0.0
C72 C 0.79461 0.30253 0.02645 0.0
C73 C 0.79744 0.28635 0.05172 0.0
N74 N 0.75721 0.22687 0.06458 0.0
C75 C 0.7335 0.19929 0.97733 0.0
C76 C 0.73007 0.21632 0.99085 0.0
C77 C 0.74181 0.22963 0.03449 0.0
C78 C 0.74859 0.19589 0.00868 0.0
C79 C 0.76025 0.20983 0.05164 0.0
N80 N 0.79347 0.26861 0.18077 0.0
C81 C 0.80873 0.30502 0.21829 0.0
C82 C 0.82602 0.30335 0.24356 0.0
C83 C 0.82582 0.28345 0.24117 0.0
C84 C 0.80937 0.26628 0.20967 0.0
C85 C 0.79239 0.28729 0.1881 0.0
H86 H 0.81041 0.25169 0.20726 0.0
H87 H 0.77962 0.28945 0.16903 0.0
H88 H 0.73807 0.24199 0.04284 0.0
H89 H 0.77167 0.20649 0.07345 0.0
C90 C 0.80082 0.21938 0.14663 0.0
C91 C 0.81713 0.28476 0.05097 0.0
C92 C 0.73762 0.21562 0.21133 0.0
C93 C 0.7488 0.27498 0.09675 0.0
H94 H 0.84925 0.27136 0.04807 0.0
H95 H 0.84018 0.23529 0.09936 0.0
H96 H 0.78189 0.18463 0.217 0.0
H97 H 0.74744 0.18289 0.25243 0.0
H98 H 0.7059 0.22935 0.21469 0.0
H99 H 0.71169 0.26169 0.15185 0.0
H100 H 0.76812 0.31003 0.0272 0.0
H101 H 0.80573 0.31534 0.00283 0.0
H102 H 0.71807 0.21917 0.96831 0.0
H103 H 0.75163 0.18272 0.9997 0.0
H104 H 0.80823 0.32016 0.22047 0.0
H105 H 0.83892 0.2816 0.26115 0.0
C106 C 0.55876 0.76486 0.14528 0.0
C107 C 0.57901 0.76931 0.16879 0.0
C108 C 0.59429 0.7862 0.1429 0.0
C109 C 0.58259 0.79102 0.10497 0.0
N110 N 0.56072 0.77866 0.10598 0.0
Co111 Co 0.53766 0.77811 0.05356 0.0
N112 N 0.56011 0.80083 0.01116 0.0
C113 C 0.58205 0.81072 0.02129 0.0
C114 C 0.59319 0.82721 0.98821 0.0
C115 C 0.57744 0.8284 0.956 0.0
C116 C 0.55754 0.81247 0.97133 0.0
N117 N 0.51461 0.77712 1.00055 0.0
C118 C 0.51649 0.79076 0.9611 0.0
C119 C 0.49635 0.7853 0.93519 0.0
C120 C 0.4811 0.76797 0.9602 0.0
C121 C 0.49277 0.76383 0.99971 0.0
N122 N 0.51519 0.75589 0.09653 0.0
C123 C 0.49328 0.74682 0.08759 0.0
C124 C 0.48207 0.73131 0.12262 0.0
C125 C 0.49771 0.73001 0.15504 0.0
C126 C 0.51762 0.74476 0.13763 0.0
N127 N 0.53758 0.80222 0.09116 0.0
C128 C 0.53846 0.84042 0.12414 0.0
C129 C 0.51869 0.82154 0.10896 0.0
C130 C 0.5186 0.80263 0.09339 0.0
C131 C 0.55761 0.83938 0.12631 0.0
C132 C 0.55678 0.82018 0.11011 0.0
N133 N 0.53782 0.75402 0.01597 0.0
C134 C 0.51936 0.71559 0.99053 0.0
C135 C 0.53925 0.71683 0.98472 0.0
C136 C 0.5582 0.73734 0.99059 0.0
C137 C 0.55708 0.75563 0.00567 0.0
C138 C 0.519 0.73433 0.00544 0.0
H139 H 0.57213 0.77068 0.0106 0.0
H140 H 0.50339 0.73231 0.0099 0.0
H141 H 0.50306 0.78881 0.08174 0.0
H142 H 0.57197 0.82057 0.11148 0.0
C143 C 0.59159 0.80558 0.06511 0.0
C144 C 0.53818 0.74627 0.15854 0.0
C145 C 0.53673 0.81022 0.95001 0.0
C146 C 0.48374 0.75057 0.04159 0.0
H147 H 0.58247 0.76068 0.19998 0.0
H148 H 0.61182 0.79333 0.14927 0.0
H149 H 0.61067 0.83786 0.98913 0.0
H150 H 0.58025 0.84026 0.92609 0.0
H151 H 0.49302 0.79372 0.90323 0.0
H152 H 0.46355 0.76035 0.95273 0.0
H153 H 0.46456 0.72117 0.12262 0.0
H154 H 0.49478 0.71874 0.1864 0.0
H155 H 0.50336 0.82141 0.10852 0.0
H156 H 0.57331 0.85356 0.13855 0.0
H157 H 0.50415 0.70016 0.98432 0.0
H158 H 0.57396 0.73916 0.98565 0.0
C159 C 0.80761 0.55226 0.17844 0.0
C160 C 0.82426 0.57262 0.19794 0.0
C161 C 0.82258 0.58805 0.1681 0.0
C162 C 0.80507 0.57631 0.1323 0.0
N163 N 0.79541 0.55427 0.13738 0.0
Co164 Co 0.76946 0.53115 0.09325 0.0
N165 N 0.76643 0.55397 0.05088 0.0
C166 C 0.77898 0.57606 0.05719 0.0
C167 C 0.77297 0.58755 0.02254 0.0
C168 C 0.75545 0.5719 0.99229 0.0
C169 C 0.75174 0.55166 0.01044 0.0
N170 N 0.7438 0.50802 0.0484 0.0
C171 C 0.7315 0.51004 0.00754 0.0
C172 C 0.71524 0.48965 0.98716 0.0
C173 C 0.71742 0.47422 0.01583 0.0
C174 C 0.73476 0.48596 0.05202 0.0
N175 N 0.77217 0.50834 0.13643 0.0
C176 C 0.75932 0.48625 0.13088 0.0
C177 C 0.76484 0.47479 0.16678 0.0
C178 C 0.7822 0.49046 0.1974 0.0
C179 C 0.78626 0.51067 0.17833 0.0
N180 N 0.74953 0.53158 0.14151 0.0
C181 C 0.72148 0.53204 0.21116 0.0
C182 C 0.71791 0.51232 0.18942 0.0
C183 C 0.73198 0.51246 0.15518 0.0
C184 C 0.73937 0.55155 0.19703 0.0
C185 C 0.753 0.55096 0.16244 0.0
N186 N 0.78938 0.53068 0.0449 0.0
C187 C 0.80119 0.51044 0.99527 0.0
C188 C 0.81714 0.52978 0.97499 0.0
C189 C 0.81896 0.54962 0.9907 0.0
C190 C 0.8051 0.54969 0.02534 0.0
C191 C 0.78765 0.51125 0.02969 0.0
H192 H 0.80739 0.56536 0.03557 0.0
H193 H 0.77594 0.49589 0.04352 0.0
H194 H 0.72827 0.49686 0.14022 0.0
H195 H 0.76629 0.5664 0.15336 0.0
C196 C 0.79672 0.58552 0.09502 0.0
C197 C 0.80384 0.53156 0.20104 0.0
C198 C 0.73424 0.53078 0.98744 0.0
C199 C 0.74239 0.47676 0.09105 0.0
H200 H 0.83624 0.57599 0.23072 0.0
H201 H 0.8327 0.60573 0.17247 0.0
H202 H 0.78055 0.60521 0.01936 0.0
H203 H 0.7465 0.57503 0.96025 0.0
H204 H 0.70293 0.48626 0.95516 0.0
H205 H 0.7074 0.45653 0.01123 0.0
H206 H 0.75718 0.45713 0.1702 0.0
H207 H 0.79092 0.48736 0.23002 0.0
H208 H 0.70411 0.49673 0.19812 0.0
H209 H 0.74311 0.56729 0.21306 0.0
H210 H 0.79929 0.49463 0.98534 0.0
H211 H 0.83087 0.56509 0.97592 0.0
C212 C 0.27454 0.81755 0.16592 0.0
C213 C 0.27212 0.83566 0.17414 0.0
C214 C 0.25491 0.83317 0.1408 0.0
C215 C 0.24775 0.81374 0.11434 0.0
N216 N 0.25933 0.8036 0.12876 0.0
Co217 Co 0.25419 0.7748 0.10064 0.0
N218 N 0.22758 0.77015 0.05519 0.0
C219 C 0.21929 0.78384 0.05052 0.0
C220 C 0.19996 0.77546 0.01955 0.0
C221 C 0.19538 0.755 0.00426 0.0
C222 C 0.21233 0.75213 0.02665 0.0
N223 N 0.2493 0.74623 0.0719 0.0
C224 C 0.23231 0.73081 0.04063 0.0
C225 C 0.23518 0.71316 0.03018 0.0
C226 C 0.25442 0.71733 0.05695 0.0
C227 C 0.26222 0.73724 0.08182 0.0
N228 N 0.28034 0.77904 0.14726 0.0
C229 C 0.2889 0.76555 0.1508 0.0
C230 C 0.30671 0.77257 0.18658 0.0
C231 C 0.30967 0.79161 0.20751 0.0
C232 C 0.29336 0.7951 0.18329 0.0
N233 N 0.23527 0.75887 0.15565 0.0
C234 C 0.20303 0.73157 0.21957 0.0
C235 C 0.2192 0.7269 0.20837 0.0
C236 C 0.23523 0.74086 0.17717 0.0
C237 C 0.20437 0.75107 0.20134 0.0
C238 C 0.22045 0.76434 0.16964 0.0
N239 N 0.27296 0.79062 0.0445 0.0
C240 C 0.30174 0.79685 0.99206 0.0
C241 C 0.29792 0.81141 0.96124 0.0
C242 C 0.28167 0.81568 0.97355 0.0
C243 C 0.26953 0.80522 0.01478 0.0
C244 C 0.2893 0.78686 0.03323 0.0
H245 H 0.25747 0.80928 0.02163 0.0
H246 H 0.2932 0.77609 0.05505 0.0
H247 H 0.24698 0.73634 0.16937 0.0
H248 H 0.22015 0.77858 0.15563 0.0
C249 C 0.22926 0.8038 0.07853 0.0
C250 C 0.29123 0.81414 0.19518 0.0
C251 C 0.2127 0.73163 0.02217 0.0
C252 C 0.28008 0.74659 0.11938 0.0
H253 H 0.28158 0.84914 0.20192 0.0
H254 H 0.2481 0.84398 0.13716 0.0
H255 H 0.18998 0.783 0.01071 0.0
H256 H 0.18087 0.74331 0.98055 0.0
H257 H 0.22416 0.69849 0.00689 0.0
H258 H 0.26141 0.70667 0.05976 0.0
H259 H 0.31645 0.76481 0.19616 0.0
H260 H 0.3225 0.80183 0.23707 0.0
H261 H 0.21905 0.7121 0.22171 0.0
H262 H 0.19278 0.75591 0.2105 0.0
H263 H 0.31409 0.79287 0.98417 0.0
H264 H 0.2784 0.82726 0.95185 0.0
C265 C 0.51014 0.23638 0.24335 0.0
C266 C 0.53104 0.24244 0.26514 0.0
C267 C 0.54503 0.2592 0.23652 0.0
C268 C 0.53188 0.26235 0.19912 0.0
N269 N 0.51032 0.24902 0.20306 0.0
Co270 Co 0.48531 0.24642 0.15467 0.0
N271 N 0.5057 0.26824 0.10737 0.0
C272 C 0.52775 0.27837 0.11236 0.0
C273 C 0.53717 0.29341 0.07501 0.0
C274 C 0.52015 0.2933 0.04527 0.0
C275 C 0.50132 0.27819 0.06646 0.0
N276 N 0.46029 0.24386 0.10624 0.0
C277 C 0.46043 0.2564 0.06568 0.0
C278 C 0.43945 0.25041 0.04447 0.0
C279 C 0.42553 0.23375 0.07337 0.0
C280 C 0.43874 0.2306 0.11052 0.0
N281 N 0.46493 0.22455 0.20204 0.0
C282 C 0.44288 0.21435 0.19695 0.0
C283 C 0.43345 0.19904 0.23376 0.0
C284 C 0.45046 0.19903 0.26325 0.0
C285 C 0.46931 0.21442 0.2426 0.0
N286 N 0.4857 0.27089 0.19272 0.0
C287 C 0.48589 0.30688 0.23948 0.0
C288 C 0.46644 0.28712 0.22783 0.0
C289 C 0.46673 0.26949 0.20483 0.0
C290 C 0.50529 0.30815 0.22821 0.0
C291 C 0.50483 0.29013 0.20515 0.0
N292 N 0.48493 0.22194 0.11671 0.0
C293 C 0.4654 0.18455 0.08206 0.0
C294 C 0.48487 0.18564 0.07211 0.0
C295 C 0.5043 0.20543 0.08356 0.0
C296 C 0.50395 0.22322 0.10544 0.0
C297 C 0.4658 0.20275 0.10402 0.0
H298 H 0.51933 0.23772 0.11354 0.0
H299 H 0.45044 0.20073 0.11123 0.0
H300 H 0.45135 0.25499 0.19677 0.0
H301 H 0.52014 0.29229 0.19706 0.0
C302 C 0.53915 0.2754 0.15598 0.0
C303 C 0.49074 0.2172 0.25884 0.0
C304 C 0.47994 0.27548 0.0498 0.0
C305 C 0.43152 0.21747 0.15353 0.0
H306 H 0.53562 0.2348 0.29685 0.0
H307 H 0.56266 0.26719 0.24056 0.0
H308 H 0.55439 0.30407 0.07157 0.0
H309 H 0.52144 0.30387 0.01318 0.0
H310 H 0.43462 0.25791 0.01296 0.0
H311 H 0.40791 0.2258 0.06963 0.0
H312 H 0.41623 0.18825 0.2369 0.0
H313 H 0.44909 0.18818 0.29474 0.0
H314 H 0.45101 0.28514 0.23675 0.0
H315 H 0.52079 0.32314 0.2362 0.0
H316 H 0.4499 0.16957 0.07406 0.0
H317 H 0.51978 0.20729 0.07551 0.0
C318 C 0.99221 0.45372 0.79143 0.0
C319 C 0.05644 0.49275 0.73044 0.0
C320 C 0.03827 0.55799 0.71912 0.0
Mg321 Mg 0.0091 0.46598 0.68254 0.0
O322 O 0.00469 0.48958 0.69605 0.0
Mg323 Mg 0.0203 0.50783 0.76079 0.0
Mg324 Mg 0.01267 0.5134 0.64537 0.0
O325 O 0.02027 0.53711 0.5943 0.0
Mg326 Mg 0.01474 0.56001 0.60791 0.0
Mg327 Mg 0.00421 0.5183 0.53023 0.0
C328 C 0.988 0.46952 0.57085 0.0
C329 C 0.04476 0.50999 0.5663 0.0
O330 O 1.00182 0.47437 0.80402 0.0
O331 O 0.9928 0.4469 0.74657 0.0
O332 O 0.05005 0.5034 0.75613 0.0
O333 O 0.04355 0.4779 0.69671 0.0
O334 O 0.99405 0.45875 0.60249 0.0
O335 O 0.99039 0.48829 0.58265 0.0
C336 C 0.98026 0.51648 0.72317 0.0
O337 O 0.98455 0.51726 0.6759 0.0
O338 O 0.99137 0.51294 0.76008 0.0
O339 O 0.02159 0.55102 0.48653 0.0
O340 O 0.02997 0.57884 0.54245 0.0
O341 O 0.97437 0.52265 0.53382 0.0
C342 C 0.03044 0.57166 0.49792 0.0
O343 O 0.97999 0.54791 0.59282 0.0
O344 O 0.03165 0.56817 0.6868 0.0
C345 C 0.96755 0.53326 0.55813 0.0
O346 O 0.03492 0.53861 0.70886 0.0
O347 O 0.04095 0.50954 0.61398 0.0
O348 O 0.03327 0.51327 0.52989 0.0
C349 C 0.4857 0.02499 0.75572 0.0
C350 C 0.45449 0.96492 0.66158 0.0
C351 C 0.53456 0.98126 0.636 0.0
Mg352 Mg 0.47425 0.01366 0.63735 0.0
O353 O 0.50244 0.01742 0.64655 0.0
Mg354 Mg 0.50833 0.99917 0.69916 0.0
Mg355 Mg 0.51379 0.01129 0.58611 0.0
O356 O 0.52555 0.00564 0.52562 0.0
Mg357 Mg 0.55382 0.00945 0.53514 0.0
Mg358 Mg 0.52036 0.0251 0.47499 0.0
C359 C 0.49314 0.04123 0.53701 0.0
C360 C 0.47336 0.98325 0.49811 0.0
O361 O 0.4976 0.0158 0.75874 0.0
O362 O 0.4756 0.02605 0.71299 0.0
O363 O 0.47299 0.97028 0.68646 0.0
O364 O 0.45141 0.97881 0.63484 0.0
O365 O 0.47845 0.03387 0.56889 0.0
O366 O 0.50861 0.03665 0.54083 0.0
C367 C 0.55487 0.03976 0.67147 0.0
O368 O 0.54747 0.03702 0.62359 0.0
O369 O 0.5432 0.02778 0.70651 0.0
O370 O 0.53184 0.01044 0.41474 0.0
O371 O 0.55279 0.9983 0.45792 0.0
O372 O 0.55587 0.05399 0.48859 0.0
C373 C 0.54347 0.00106 0.41578 0.0
O374 O 0.57738 0.04439 0.53699 0.0
O375 O 0.5491 0.9886 0.60357 0.0
C376 C 0.57455 0.05873 0.51147 0.0
O377 O 0.51925 0.98614 0.63297 0.0
O378 O 0.47986 0.98531 0.54671 0.0
O379 O 0.48571 0.99615 0.46516 0.0
C380 C 0.53612 0.5741 0.47847 0.0
C381 C 0.56576 0.53393 0.52366 0.0
C382 C 0.48272 0.46962 0.5476 0.0
Mg383 Mg 0.55074 0.56073 0.58402 0.0
O384 O 0.52194 0.5374 0.5739 0.0
Mg385 Mg 0.51213 0.51974 0.50738 0.0
Mg386 Mg 0.50973 0.51321 0.62408 0.0
O387 O 0.49673 0.48894 0.67382 0.0
Mg388 Mg 0.46693 0.46772 0.66142 0.0
Mg389 Mg 0.50611 0.50666 0.74005 0.0
C390 C 0.5368 0.55664 0.70032 0.0
C391 C 0.54932 0.51121 0.69447 0.0
O392 O 0.52387 0.55353 0.46568 0.0
O393 O 0.54727 0.58056 0.52286 0.0
O394 O 0.54607 0.52302 0.50271 0.0
O395 O 0.57132 0.5487 0.55893 0.0
O396 O 0.55016 0.56736 0.66645 0.0
O397 O 0.51963 0.53784 0.68967 0.0
C398 C 0.46893 0.51341 0.55577 0.0
O399 O 0.47702 0.51203 0.60112 0.0
O400 O 0.4792 0.5164 0.51589 0.0
O401 O 0.49248 0.47292 0.78073 0.0
O402 O 0.46809 0.44695 0.72251 0.0
O403 O 0.47284 0.50506 0.74454 0.0
C404 C 0.47909 0.45267 0.76715 0.0
O405 O 0.44707 0.48094 0.68666 0.0
O406 O 0.46846 0.45993 0.58029 0.0
C407 C 0.45313 0.49521 0.72352 0.0
O408 O 0.49996 0.48844 0.55803 0.0
O409 O 0.54269 0.51422 0.64873 0.0
O410 O 0.53821 0.50797 0.73288 0.0
H411 H 0.21564 0.5246 0.3816 0.0
H412 H 0.19063 0.52491 0.43946 0.0
H413 H 0.13585 0.47668 0.33993 0.0
H414 H 0.16074 0.47603 0.28251 0.0
H415 H 0.16018 0.53619 0.42593 0.0
H416 H 0.11944 0.44856 0.47569 0.0
H417 H 0.14376 0.46114 0.44245 0.0
H418 H 0.11735 0.45164 0.40707 0.0
C419 C 0.19826 0.51402 0.37199 0.0
C420 C 0.1903 0.50017 0.32735 0.0
C421 C 0.18393 0.51416 0.40533 0.0
C422 C 0.16123 0.50046 0.39503 0.0
C423 C 0.15324 0.48688 0.35003 0.0
H424 H 0.04534 0.49285 0.47472 0.0
H425 H 0.075 0.49036 0.44206 0.0
C426 C 0.16755 0.48659 0.31694 0.0
C427 C 0.14589 0.50104 0.42994 0.0
H428 H 0.10084 0.4682 0.49291 0.0
C429 C 0.14749 0.52134 0.44132 0.0
C430 C 0.1293 0.48174 0.45073 0.0
C431 C 0.12749 0.45959 0.44383 0.0
C432 C 0.13242 0.52269 0.47032 0.0
C433 C 0.11523 0.50329 0.48866 0.0
C434 C 0.11403 0.4831 0.47894 0.0
C435 C 0.09691 0.5034 0.512 0.0
C436 C 0.13427 0.54474 0.47922 0.0
C437 C 0.09907 0.51106 0.56309 0.0
C438 C 0.08184 0.51234 0.58243 0.0
C439 C 0.06237 0.5063 0.55058 0.0
C440 C 0.06017 0.49794 0.50022 0.0
C441 C 0.07712 0.49643 0.48137 0.0
H442 H 0.14818 0.55826 0.46118 0.0
H443 H 0.11897 0.5443 0.46314 0.0
H444 H 0.13646 0.54841 0.5214 0.0
H445 H 0.11418 0.51641 0.58759 0.0
H446 H 0.08407 0.51881 0.62134 0.0
H447 H 0.69541 0.1832 0.18964 0.0
H448 H 0.66971 0.15971 0.25087 0.0
H449 H 0.71891 0.19364 0.37812 0.0
H450 H 0.74454 0.21724 0.31672 0.0
H451 H 0.67502 0.13156 0.3216 0.0
H452 H 0.66524 0.19454 0.42243 0.0
H453 H 0.67658 0.19926 0.36114 0.0
H454 H 0.69291 0.20076 0.41992 0.0
C455 C 0.70057 0.18572 0.23075 0.0
C456 C 0.7218 0.20204 0.24872 0.0
C457 C 0.68596 0.17231 0.26566 0.0
C458 C 0.69227 0.17507 0.31919 0.0
C459 C 0.71352 0.19146 0.33714 0.0
H460 H 0.61807 0.07182 0.53318 0.0
H461 H 0.64856 0.10196 0.49363 0.0
C462 C 0.72816 0.20485 0.30217 0.0
C463 C 0.67684 0.16012 0.35575 0.0
H464 H 0.64796 0.15859 0.45503 0.0
C465 C 0.66919 0.13749 0.35095 0.0
C466 C 0.66913 0.16785 0.39382 0.0
C467 C 0.6762 0.1919 0.3996 0.0
C468 C 0.65396 0.12236 0.38281 0.0
C469 C 0.64634 0.13007 0.42119 0.0
C470 C 0.65403 0.15273 0.42615 0.0
C471 C 0.62908 0.11456 0.45334 0.0
C472 C 0.64558 0.09815 0.37393 0.0
C473 C 0.60832 0.11251 0.44663 0.0
C474 C 0.59087 0.09539 0.46941 0.0
C475 C 0.59383 0.07993 0.49949 0.0
C476 C 0.61511 0.08326 0.50999 0.0
C477 C 0.63256 0.1004 0.48705 0.0
H478 H 0.64975 0.09469 0.33649 0.0
H479 H 0.65299 0.09226 0.40537 0.0
H480 H 0.62759 0.08856 0.37447 0.0
H481 H 0.60528 0.12336 0.42119 0.0
H482 H 0.5748 0.09352 0.46078 0.0
H483 H 0.52411 0.70428 0.12622 0.0
H484 H 0.52268 0.67389 0.17799 0.0
H485 H 0.55063 0.71727 0.31297 0.0
H486 H 0.55135 0.74738 0.2615 0.0
H487 H 0.55456 0.66891 0.23122 0.0
H488 H 0.49834 0.66636 0.36756 0.0
H489 H 0.50306 0.68185 0.3092 0.0
H490 H 0.5221 0.69303 0.36625 0.0
C491 C 0.52983 0.70719 0.16704 0.0
C492 C 0.5379 0.72809 0.19003 0.0
C493 C 0.52906 0.68988 0.19655 0.0
C494 C 0.53622 0.69313 0.24968 0.0
C495 C 0.54453 0.71416 0.27242 0.0
H496 H 0.55613 0.6186 0.49633 0.0
H497 H 0.55584 0.64637 0.43846 0.0
C498 C 0.54516 0.73141 0.24298 0.0
C499 C 0.53534 0.67467 0.28109 0.0
H500 H 0.5167 0.64622 0.3907 0.0
C501 C 0.54611 0.66382 0.26582 0.0
C502 C 0.5242 0.66787 0.32616 0.0
C503 C 0.51108 0.67772 0.343 0.0
C504 C 0.54662 0.64693 0.29519 0.0
C505 C 0.53599 0.6406 0.34091 0.0
C506 C 0.52496 0.65118 0.35579 0.0
C507 C 0.53664 0.6235 0.3748 0.0
C508 C 0.55904 0.63637 0.27801 0.0
C509 C 0.5259 0.60131 0.35829 0.0
C510 C 0.52592 0.58524 0.3915 0.0
C511 C 0.53675 0.59107 0.44188 0.0
C512 C 0.54768 0.6134 0.45787 0.0
C513 C 0.54751 0.62937 0.42485 0.0
H514 H 0.56945 0.64564 0.247 0.0
H515 H 0.5695 0.63518 0.31119 0.0
H516 H 0.5473 0.61943 0.26292 0.0
H517 H 0.51718 0.59636 0.32002 0.0
H518 H 0.51728 0.56825 0.37783 0.0
H519 H 0.79531 0.52471 0.30183 0.0
H520 H 0.81986 0.52553 0.37673 0.0
H521 H 0.86946 0.53914 0.27563 0.0
H522 H 0.84506 0.53866 0.20123 0.0
H523 H 0.83888 0.50013 0.39723 0.0
H524 H 0.90267 0.58728 0.3866 0.0
H525 H 0.87597 0.57612 0.35133 0.0
H526 H 0.89679 0.57257 0.32628 0.0
C527 C 0.81152 0.52796 0.296 0.0
C528 C 0.8185 0.53177 0.24626 0.0
C529 C 0.82549 0.52842 0.33858 0.0
C530 C 0.84666 0.53282 0.33195 0.0
C531 C 0.85343 0.53627 0.28191 0.0
H532 H 0.93589 0.50124 0.49209 0.0
H533 H 0.90394 0.50073 0.4474 0.0
C534 C 0.8395 0.53585 0.23945 0.0
C535 C 0.86154 0.53318 0.37686 0.0
H536 H 0.91328 0.56407 0.43569 0.0
C537 C 0.85504 0.51423 0.40617 0.0
C538 C 0.88242 0.55174 0.38946 0.0
C539 C 0.8898 0.57315 0.36212 0.0
C540 C 0.86936 0.51287 0.44558 0.0
C541 C 0.89087 0.5308 0.45526 0.0
C542 C 0.89687 0.55022 0.42807 0.0
C543 C 0.90809 0.5291 0.48917 0.0
C544 C 0.86135 0.49213 0.47596 0.0
C545 C 0.92108 0.54509 0.52822 0.0
C546 C 0.93965 0.54557 0.55379 0.0
C547 C 0.94568 0.5302 0.54023 0.0
C548 C 0.93184 0.51341 0.50343 0.0
C549 C 0.91337 0.51297 0.478 0.0
H550 H 0.84346 0.48399 0.47798 0.0
H551 H 0.86469 0.48043 0.45626 0.0
H552 H 0.86964 0.49552 0.51592 0.0
H553 H 0.91736 0.55775 0.5374 0.0
H554 H 0.94992 0.5587 0.58193 0.0
H555 H 0.29489 0.80982 0.29979 0.0
H556 H 0.32185 0.83724 0.36483 0.0
H557 H 0.35014 0.88309 0.24389 0.0
H558 H 0.32333 0.85571 0.17913 0.0
H559 H 0.36832 0.85809 0.36861 0.0
H560 H 0.33988 0.91869 0.35111 0.0
H561 H 0.32303 0.89048 0.32803 0.0
H562 H 0.34357 0.91024 0.29003 0.0
C563 C 0.30683 0.82584 0.28745 0.0
C564 C 0.30707 0.83085 0.2348 0.0
C565 C 0.32216 0.84143 0.32443 0.0
C566 C 0.33776 0.86231 0.30925 0.0
C567 C 0.33797 0.86725 0.25655 0.0
H568 H 0.4532 0.97813 0.40071 0.0
H569 H 0.41853 0.94781 0.36456 0.0
C570 C 0.32276 0.85164 0.21962 0.0
C571 C 0.35451 0.87873 0.34784 0.0
H572 H 0.37628 0.93183 0.39104 0.0
C573 C 0.36989 0.87409 0.37441 0.0
C574 C 0.35637 0.8995 0.35552 0.0
C575 C 0.33971 0.905 0.33007 0.0
C576 C 0.38796 0.89022 0.40568 0.0
C577 C 0.39045 0.9114 0.41113 0.0
C578 C 0.37438 0.9156 0.3868 0.0
C579 C 0.41089 0.93018 0.43581 0.0
C580 C 0.40493 0.88491 0.43 0.0
C581 C 0.41805 0.9306 0.48843 0.0
C582 C 0.43815 0.94805 0.50947 0.0
C583 C 0.45133 0.96534 0.47819 0.0
C584 C 0.44366 0.96507 0.426 0.0
C585 C 0.42372 0.94774 0.40518 0.0
H586 H 0.40224 0.86889 0.41546 0.0
H587 H 0.42153 0.89798 0.42228 0.0
H588 H 0.40432 0.88408 0.47252 0.0
H589 H 0.40822 0.91738 0.51303 0.0
H590 H 0.44355 0.94775 0.54976 0.0
H591 H 0.45691 0.32169 0.21718 0.0
H592 H 0.45612 0.35194 0.25995 0.0
H593 H 0.51433 0.36567 0.35817 0.0
H594 H 0.51487 0.33506 0.31678 0.0
H595 H 0.4812 0.36206 0.41189 0.0
H596 H 0.49477 0.41871 0.24911 0.0
H597 H 0.47289 0.39105 0.23537 0.0
H598 H 0.50044 0.39634 0.24771 0.0
C599 C 0.46954 0.33113 0.24793 0.0
C600 C 0.48593 0.32591 0.26364 0.0
C601 C 0.46923 0.34861 0.27184 0.0
C602 C 0.48535 0.36126 0.3117 0.0
C603 C 0.50184 0.35623 0.32714 0.0
H604 H 0.51391 0.4786 0.48201 0.0
H605 H 0.51339 0.4531 0.41864 0.0
C606 C 0.50218 0.33879 0.30328 0.0
C607 C 0.48422 0.37871 0.33997 0.0
H608 H 0.48479 0.42757 0.32605 0.0
C609 C 0.48202 0.37639 0.39311 0.0
C610 C 0.48546 0.39748 0.31543 0.0
C611 C 0.48872 0.40123 0.25885 0.0
C612 C 0.48083 0.3922 0.42237 0.0
C613 C 0.48148 0.41068 0.39766 0.0
C614 C 0.48398 0.41322 0.34464 0.0
C615 C 0.48025 0.42771 0.42733 0.0
C616 C 0.47922 0.38916 0.47979 0.0
C617 C 0.4614 0.42233 0.45102 0.0
C618 C 0.46163 0.43681 0.48732 0.0
C619 C 0.48073 0.45701 0.50044 0.0
C620 C 0.49895 0.46318 0.47301 0.0
C621 C 0.49871 0.44861 0.43679 0.0
H622 H 0.48367 0.37678 0.49449 0.0
H623 H 0.49001 0.40494 0.5016 0.0
H624 H 0.46219 0.38342 0.48784 0.0
H625 H 0.44687 0.40639 0.44355 0.0
H626 H 0.44722 0.43162 0.50719 0.0
H627 H 0.54103 0.81851 0.84755 0.0
H628 H 0.54011 0.84874 0.79958 0.0
H629 H 0.52962 0.87264 0.93916 0.0
H630 H 0.5307 0.84247 0.98704 0.0
H631 H 0.50644 0.85933 0.78616 0.0
H632 H 0.58229 0.92732 0.8873 0.0
H633 H 0.57553 0.89891 0.891 0.0
H634 H 0.56237 0.90908 0.92866 0.0
C635 C 0.5386 0.83031 0.86775 0.0
C636 C 0.53608 0.8284 0.92078 0.0
C637 C 0.53803 0.84751 0.84047 0.0
C638 C 0.53508 0.86315 0.86586 0.0
C639 C 0.5323 0.86103 0.9189 0.0
H640 H 0.50349 0.95645 0.70156 0.0
H641 H 0.50307 0.92856 0.7607 0.0
C642 C 0.53281 0.84379 0.94614 0.0
C643 C 0.5347 0.88149 0.83656 0.0
H644 H 0.56195 0.93742 0.82663 0.0
C645 C 0.51851 0.87641 0.79513 0.0
C646 C 0.55057 0.90378 0.84803 0.0
C647 C 0.56881 0.9102 0.89087 0.0
C648 C 0.51779 0.89297 0.76481 0.0
C649 C 0.53356 0.91527 0.77651 0.0
C650 C 0.54974 0.92036 0.81801 0.0
C651 C 0.53437 0.9334 0.744 0.0
C652 C 0.50054 0.88639 0.7195 0.0
C653 C 0.55244 0.94601 0.71639 0.0
C654 C 0.55279 0.96203 0.68275 0.0
C655 C 0.5351 0.96596 0.67614 0.0
C656 C 0.51739 0.95392 0.70555 0.0
C657 C 0.51704 0.93781 0.73913 0.0
H658 H 0.49261 0.86859 0.70925 0.0
H659 H 0.48774 0.88993 0.72949 0.0
H660 H 0.50765 0.89595 0.68499 0.0
H661 H 0.56606 0.94301 0.7197 0.0
H662 H 0.56676 0.97101 0.66105 0.0
H663 H 0.73077 0.52017 0.88529 0.0
H664 H 0.70393 0.51898 0.81585 0.0
H665 H 0.67543 0.53946 0.92597 0.0
H666 H 0.70233 0.54083 0.99491 0.0
H667 H 0.65962 0.49332 0.80906 0.0
H668 H 0.68189 0.58078 0.80832 0.0
H669 H 0.69971 0.57157 0.83945 0.0
H670 H 0.6779 0.57016 0.87219 0.0
C671 C 0.71884 0.52458 0.89421 0.0
C672 C 0.7185 0.53064 0.94504 0.0
C673 C 0.70359 0.52394 0.85472 0.0
C674 C 0.68793 0.52954 0.86548 0.0
C675 C 0.6877 0.53564 0.91642 0.0
H676 H 0.55938 0.48923 0.76864 0.0
H677 H 0.59493 0.49339 0.79659 0.0
C678 C 0.7029 0.53626 0.95583 0.0
C679 C 0.67078 0.52753 0.82467 0.0
H680 H 0.64488 0.55471 0.77382 0.0
C681 C 0.65668 0.50687 0.8005 0.0
C682 C 0.66717 0.54529 0.81246 0.0
C683 C 0.68263 0.56825 0.83406 0.0
C684 C 0.6381 0.50309 0.76784 0.0
C685 C 0.63336 0.52033 0.75971 0.0
C686 C 0.64839 0.54142 0.78043 0.0
C687 C 0.61153 0.51605 0.7372 0.0
C688 C 0.62327 0.48044 0.74385 0.0
C689 C 0.60894 0.52741 0.69421 0.0
C690 C 0.58839 0.52499 0.67785 0.0
C691 C 0.57035 0.51158 0.70508 0.0
C692 C 0.57297 0.49977 0.74695 0.0
C693 C 0.59328 0.50198 0.76277 0.0
H694 H 0.63248 0.47182 0.73821 0.0
H695 H 0.61065 0.47053 0.77012 0.0
H696 H 0.61494 0.48117 0.70598 0.0
H697 H 0.62288 0.53853 0.67423 0.0
H698 H 0.58686 0.5344 0.64571 0.0
H699 H 0.18599 0.69474 0.07153 0.0
H700 H 0.155 0.66043 0.03278 0.0
H701 H 0.16498 0.68917 0.88228 0.0
H702 H 0.19619 0.72321 0.92094 0.0
H703 H 0.11656 0.65244 0.9776 0.0
H704 H 0.16429 0.63181 0.8574 0.0
H705 H 0.17696 0.65252 0.90884 0.0
H706 H 0.16868 0.65899 0.84621 0.0
C707 C 0.18142 0.69361 0.03021 0.0
C708 C 0.19323 0.71146 0.99901 0.0
C709 C 0.16381 0.67409 0.00815 0.0
C710 C 0.15792 0.67211 0.95454 0.0
C711 C 0.16954 0.69015 0.92356 0.0
H712 H 0.04264 0.59538 0.76086 0.0
H713 H 0.07031 0.61964 0.82767 0.0
C714 C 0.18717 0.70963 0.94559 0.0
C715 C 0.13941 0.65136 0.93081 0.0
H716 H 0.12558 0.61335 0.83393 0.0
C717 C 0.11856 0.64369 0.94667 0.0
C718 C 0.14208 0.63961 0.89142 0.0
C719 C 0.16426 0.64601 0.87534 0.0
C720 C 0.10013 0.62538 0.92194 0.0
C721 C 0.10259 0.61474 0.87967 0.0
C722 C 0.12361 0.6216 0.86601 0.0
C723 C 0.08361 0.59814 0.84556 0.0
C724 C 0.07818 0.61783 0.94093 0.0
C725 C 0.08168 0.57779 0.8334 0.0
C726 C 0.06585 0.56383 0.7946 0.0
C727 C 0.0519 0.57016 0.76692 0.0
C728 C 0.05315 0.58999 0.78125 0.0
C729 C 0.06888 0.60385 0.81991 0.0
H730 H 0.07989 0.62179 0.98285 0.0
H731 H 0.07045 0.62654 0.91995 0.0
H732 H 0.06718 0.59985 0.93426 0.0
H733 H 0.09296 0.5731 0.8525 0.0
H734 H 0.06541 0.54873 0.78438 0.0
H735 H 0.45616 0.15662 0.99567 0.0
H736 H 0.45683 0.12551 0.95761 0.0
H737 H 0.5145 0.13996 0.05894 0.0
H738 H 0.51383 0.17104 0.09777 0.0
H739 H 0.51811 0.13421 0.95571 0.0
H740 H 0.44141 0.06541 0.01633 0.0
H741 H 0.43769 0.08664 0.98554 0.0
H742 H 0.4545 0.0926 0.04611 0.0
C743 C 0.46878 0.15298 0.01055 0.0
C744 C 0.48494 0.16634 0.04981 0.0
C745 C 0.46911 0.13515 0.9888 0.0
C746 C 0.48551 0.1302 0.00604 0.0
C747 C 0.50163 0.14343 0.04529 0.0
H748 H 0.51259 0.03756 0.84718 0.0
H749 H 0.51336 0.06094 0.91712 0.0
C750 C 0.50131 0.16127 0.06714 0.0
C751 C 0.48653 0.11211 0.9805 0.0
H752 H 0.45606 0.05765 0.94534 0.0
C753 C 0.50476 0.11737 0.9542 0.0
C754 C 0.46912 0.09015 0.97886 0.0
C755 C 0.44967 0.08328 0.00866 0.0
C756 C 0.50542 0.10155 0.92354 0.0
C757 C 0.48752 0.07981 0.91989 0.0
C758 C 0.46976 0.07432 0.94821 0.0
C759 C 0.48575 0.06339 0.88199 0.0
C760 C 0.52467 0.10855 0.89286 0.0
C761 C 0.46939 0.05623 0.84045 0.0
C762 C 0.46884 0.04288 0.80083 0.0
C763 C 0.48461 0.03629 0.80188 0.0
C764 C 0.50025 0.0424 0.8451 0.0
C765 C 0.50082 0.05588 0.88488 0.0
H766 H 0.53538 0.1267 0.89346 0.0
H767 H 0.53457 0.10126 0.90952 0.0
H768 H 0.51907 0.10257 0.852 0.0
H769 H 0.45754 0.06173 0.83758 0.0
H770 H 0.4564 0.0383 0.76847 0.0
H771 H 0.31911 0.46925 0.05199 0.0
H772 H 0.34271 0.46918 0.98997 0.0
H773 H 0.34783 0.52841 0.92466 0.0
H774 H 0.32336 0.52805 0.98489 0.0
H775 H 0.34274 0.49996 0.84907 0.0
H776 H 0.4079 0.50778 0.99763 0.0
H777 H 0.38191 0.48415 0.00585 0.0
H778 H 0.38562 0.5113 0.01303 0.0
C779 C 0.32501 0.48218 0.02419 0.0
C780 C 0.31927 0.49874 0.02413 0.0
C781 C 0.33883 0.48228 0.98901 0.0
C782 C 0.34754 0.49904 0.95303 0.0
C783 C 0.34155 0.51536 0.95217 0.0
H784 H 0.46068 0.52734 0.79381 0.0
H785 H 0.43458 0.52912 0.84493 0.0
C786 C 0.32767 0.51525 0.9872 0.0
C787 C 0.36283 0.49958 0.91635 0.0
H788 H 0.41103 0.50007 0.91147 0.0
C789 C 0.3577 0.50005 0.86278 0.0
C790 C 0.38261 0.50006 0.93388 0.0
C791 C 0.38999 0.50102 0.99073 0.0
C792 C 0.37152 0.50063 0.82654 0.0
C793 C 0.39092 0.50032 0.84405 0.0
C794 C 0.39615 0.50014 0.89766 0.0
C795 C 0.40627 0.5005 0.80803 0.0
C796 C 0.3654 0.50209 0.76992 0.0
C797 C 0.3992 0.48415 0.76889 0.0
C798 C 0.41417 0.48324 0.73889 0.0
C799 C 0.43666 0.49846 0.74783 0.0
C800 C 0.44355 0.51528 0.78569 0.0
C801 C 0.42859 0.51627 0.81528 0.0
H802 H 0.35415 0.50883 0.76424 0.0
H803 H 0.38007 0.51259 0.74964 0.0
H804 H 0.35691 0.48537 0.75165 0.0
H805 H 0.38221 0.47148 0.7629 0.0
H806 H 0.40824 0.46992 0.71055 0.0
H807 H 0.84418 0.32644 0.08984 0.0
H808 H 0.87534 0.3565 0.05112 0.0
H809 H 0.86474 0.3131 0.92311 0.0
H810 H 0.83329 0.28335 0.96114 0.0
H811 H 0.91375 0.3605 0.02565 0.0
H812 H 0.86555 0.36483 0.84934 0.0
H813 H 0.85297 0.3496 0.90484 0.0
H814 H 0.86182 0.3378 0.85864 0.0
C815 C 0.84858 0.32346 0.05339 0.0
C816 C 0.83647 0.30269 0.02833 0.0
C817 C 0.86636 0.34055 0.03137 0.0
C818 C 0.87221 0.3372 0.98375 0.0
C819 C 0.86028 0.31627 0.95926 0.0
H820 H 0.97057 0.40894 0.77887 0.0
H821 H 0.94291 0.38179 0.8301 0.0
C822 C 0.84246 0.29923 0.98112 0.0
C823 C 0.89075 0.35549 0.95957 0.0
H824 H 0.90421 0.38399 0.84808 0.0
C825 C 0.91164 0.36578 0.98701 0.0
C826 C 0.888 0.36255 0.90929 0.0
C827 C 0.86584 0.35329 0.87901 0.0
C828 C 0.92992 0.38233 0.96474 0.0
C829 C 0.92721 0.3888 0.91389 0.0
C830 C 0.90628 0.37886 0.88694 0.0
C831 C 0.94586 0.40535 0.88689 0.0
C832 C 0.9521 0.39232 0.995 0.0
C833 C 0.95706 0.42768 0.90233 0.0
C834 C 0.97298 0.44342 0.87291 0.0
C835 C 0.97793 0.43708 0.82739 0.0
C836 C 0.96724 0.41454 0.81349 0.0
C837 C 0.95135 0.39892 0.84272 0.0
H838 H 0.95202 0.38311 0.03042 0.0
H839 H 0.96429 0.39278 0.97064 0.0
H840 H 0.95741 0.40951 0.00675 0.0
H841 H 0.95291 0.43305 0.936 0.0
H842 H 0.98076 0.46059 0.88471 0.0
H843 H 0.80707 0.49926 0.89731 0.0
H844 H 0.83179 0.49705 0.84175 0.0
H845 H 0.88524 0.55684 0.91322 0.0
H846 H 0.86078 0.55901 0.9697 0.0
H847 H 0.88323 0.55333 0.79983 0.0
H848 H 0.87827 0.48052 0.90173 0.0
H849 H 0.85275 0.47857 0.87754 0.0
H850 H 0.8697 0.49807 0.92878 0.0
C851 C 0.8241 0.51192 0.9015 0.0
C852 C 0.8319 0.5292 0.93859 0.0
C853 C 0.83818 0.51069 0.8694 0.0
C854 C 0.8604 0.52668 0.87358 0.0
C855 C 0.86813 0.54435 0.90919 0.0
H856 H 0.9747 0.52613 0.8188 0.0
H857 H 0.94439 0.52856 0.84657 0.0
C858 C 0.85408 0.54558 0.94142 0.0
C859 C 0.87587 0.52434 0.84327 0.0
H860 H 0.90058 0.49365 0.83385 0.0
C861 C 0.88689 0.54016 0.80678 0.0
C862 C 0.88067 0.5072 0.85257 0.0
C863 C 0.8699 0.49016 0.89249 0.0
C864 C 0.90292 0.53952 0.78017 0.0
C865 C 0.908 0.52261 0.79033 0.0
C866 C 0.89654 0.5065 0.82578 0.0
C867 C 0.92699 0.52277 0.77033 0.0
C868 C 0.91501 0.5574 0.74311 0.0
C869 C 0.9276 0.5191 0.71764 0.0
C870 C 0.94518 0.51769 0.70124 0.0
C871 C 0.96227 0.51976 0.73745 0.0
C872 C 0.96175 0.52411 0.78974 0.0
C873 C 0.94439 0.52556 0.80586 0.0
H874 H 0.91084 0.57068 0.74382 0.0
H875 H 0.93289 0.56469 0.75262 0.0
H876 H 0.91083 0.55023 0.70322 0.0
H877 H 0.91424 0.51672 0.68953 0.0
H878 H 0.94505 0.5143 0.66075 0.0
H879 H 0.28397 0.82087 0.86678 0.0
H880 H 0.30607 0.84118 0.79716 0.0
H881 H 0.36329 0.84672 0.88566 0.0
H882 H 0.34157 0.82706 0.95608 0.0
H883 H 0.34296 0.88483 0.81153 0.0
H884 H 0.36531 0.82594 0.73845 0.0
H885 H 0.34219 0.81754 0.77498 0.0
H886 H 0.3693 0.8297 0.80763 0.0
C887 C 0.30127 0.82642 0.87155 0.0
C888 C 0.31099 0.82238 0.91728 0.0
C889 C 0.3138 0.83783 0.83147 0.0
C890 C 0.33621 0.84513 0.83598 0.0
C891 C 0.3459 0.84076 0.88096 0.0
H892 H 0.45442 0.93304 0.72392 0.0
H893 H 0.42282 0.90137 0.75438 0.0
C894 C 0.33344 0.82951 0.92121 0.0
C895 C 0.34996 0.85915 0.79615 0.0
H896 H 0.38707 0.86357 0.71601 0.0
C897 C 0.35232 0.88009 0.78976 0.0
C898 C 0.36207 0.85283 0.76802 0.0
C899 C 0.3595 0.8302 0.77214 0.0
C900 C 0.3676 0.8955 0.75859 0.0
C901 C 0.38041 0.88951 0.73188 0.0
C902 C 0.3772 0.86812 0.73628 0.0
C903 C 0.3991 0.90607 0.70524 0.0
C904 C 0.37089 0.91849 0.75749 0.0
C905 C 0.39633 0.91855 0.66525 0.0
C906 C 0.41447 0.93699 0.64807 0.0
C907 C 0.43566 0.94302 0.67025 0.0
C908 C 0.43836 0.92912 0.70647 0.0
C909 C 0.42026 0.9109 0.7239 0.0
H910 H 0.36278 0.9215 0.78819 0.0
H911 H 0.38852 0.93095 0.76251 0.0
H912 H 0.36385 0.92095 0.71958 0.0
H913 H 0.38013 0.9147 0.64917 0.0
H914 H 0.41183 0.9471 0.61943 0.0
H915 H 0.49293 0.31546 0.09264 0.0
H916 H 0.49159 0.34666 0.051 0.0
H917 H 0.46271 0.30808 0.90895 0.0
H918 H 0.46435 0.27699 0.95037 0.0
H919 H 0.51142 0.36674 0.95371 0.0
H920 H 0.42178 0.33319 0.94235 0.0
H921 H 0.43596 0.32363 0.98791 0.0
H922 H 0.4306 0.31496 0.9211 0.0
C923 C 0.48624 0.31373 0.05257 0.0
C924 C 0.4785 0.29392 0.0246 0.0
C925 C 0.48547 0.33145 0.02896 0.0
C926 C 0.47679 0.32949 0.97723 0.0
C927 C 0.46913 0.30972 0.94918 0.0
H928 H 0.4567 0.40831 0.74732 0.0
H929 H 0.45626 0.37961 0.80258 0.0
C930 C 0.47007 0.29205 0.97269 0.0
C931 C 0.47645 0.3484 0.95185 0.0
H932 H 0.44215 0.36573 0.89702 0.0
C933 C 0.49633 0.36669 0.94166 0.0
C934 C 0.45671 0.34812 0.93629 0.0
C935 C 0.435 0.32902 0.94769 0.0
C936 C 0.49696 0.38448 0.91442 0.0
C937 C 0.47715 0.38413 0.89825 0.0
C938 C 0.4573 0.36599 0.90955 0.0
C939 C 0.47658 0.40174 0.86664 0.0
C940 C 0.51873 0.40298 0.90128 0.0
C941 C 0.48773 0.42372 0.88479 0.0
C942 C 0.48819 0.4403 0.85302 0.0
C943 C 0.47726 0.43513 0.80277 0.0
C944 C 0.46536 0.41296 0.78569 0.0
C945 C 0.46506 0.39647 0.81727 0.0
H946 H 0.53151 0.39817 0.90532 0.0
H947 H 0.51753 0.40833 0.86113 0.0
H948 H 0.52408 0.41724 0.92804 0.0
H949 H 0.49629 0.42808 0.92329 0.0
H950 H 0.49735 0.45717 0.86761 0.0
H951 H 0.22905 0.49615 0.96593 0.0
H952 H 0.2051 0.49527 0.88937 0.0
H953 H 0.16643 0.50699 0.98832 0.0
H954 H 0.19031 0.50789 0.06447 0.0
H955 H 0.14441 0.46745 0.91102 0.0
H956 H 0.19695 0.5495 0.82997 0.0
H957 H 0.20842 0.53253 0.85227 0.0
H958 H 0.19998 0.54468 0.8981 0.0
C959 C 0.21554 0.49876 0.97083 0.0
C960 C 0.21135 0.50216 0.02041 0.0
C961 C 0.20197 0.49829 0.92743 0.0
C962 C 0.18417 0.50118 0.9335 0.0
C963 C 0.18019 0.50482 0.9831 0.0
H964 H 0.08887 0.52471 0.7952 0.0
H965 H 0.12268 0.52648 0.83118 0.0
C966 C 0.19375 0.50536 0.02634 0.0
C967 C 0.1688 0.49935 0.88886 0.0
H968 H 0.16042 0.52933 0.79348 0.0
C969 C 0.14795 0.48071 0.88444 0.0
C970 C 0.17368 0.51677 0.85468 0.0
C971 C 0.19594 0.5371 0.85863 0.0
C972 C 0.13135 0.47953 0.84843 0.0
C973 C 0.1359 0.49741 0.81566 0.0
C974 C 0.15711 0.51559 0.81833 0.0
C975 C 0.11804 0.49893 0.7851 0.0
C976 C 0.1087 0.45985 0.84832 0.0
C977 C 0.10477 0.4835 0.7454 0.0
C978 C 0.08524 0.4823 0.72488 0.0
C979 C 0.07878 0.49654 0.7439 0.0
C980 C 0.09314 0.51322 0.78033 0.0
C981 C 0.11258 0.51438 0.80073 0.0
H982 H 0.10738 0.44892 0.88106 0.0
H983 H 0.09651 0.46523 0.85055 0.0
H984 H 0.10444 0.45011 0.81175 0.0
H985 H 0.10895 0.47166 0.73231 0.0
H986 H 0.07469 0.46947 0.6963 0.0
H987 H 0.72662 0.21132 0.8798 0.0
H988 H 0.70234 0.18718 0.80709 0.0
H989 H 0.68682 0.13053 0.90052 0.0
H990 H 0.7115 0.15454 0.97267 0.0
H991 H 0.69087 0.12325 0.79985 0.0
H992 H 0.63705 0.15954 0.80789 0.0
H993 H 0.66467 0.17845 0.79572 0.0
H994 H 0.65914 0.16543 0.85709 0.0
C995 C 0.71815 0.19369 0.88449 0.0
C996 C 0.72069 0.18474 0.93188 0.0
C997 C 0.70428 0.17996 0.84307 0.0
C998 C 0.69244 0.15713 0.84883 0.0
C999 C 0.69579 0.14813 0.89533 0.0
H1000 H 0.5801 0.04172 0.759 0.0
H1001 H 0.61649 0.07139 0.78895 0.0
C1002 C 0.70987 0.16182 0.93649 0.0
C1003 C 0.67537 0.14254 0.80829 0.0
H1004 H 0.62481 0.12937 0.75129 0.0
C1005 C 0.67658 0.12478 0.78854 0.0
C1006 C 0.65677 0.14464 0.79346 0.0
C1007 C 0.65414 0.16291 0.81483 0.0
C1008 C 0.65918 0.10845 0.75645 0.0
C1009 C 0.64019 0.10997 0.74406 0.0
C1010 C 0.63954 0.12843 0.76083 0.0
C1011 C 0.61961 0.09107 0.72157 0.0
C1012 C 0.66082 0.08921 0.73775 0.0
C1013 C 0.60936 0.09241 0.67372 0.0
C1014 C 0.58848 0.07538 0.65635 0.0
C1015 C 0.57749 0.05708 0.68722 0.0
C1016 C 0.58807 0.05568 0.73457 0.0
C1017 C 0.60895 0.0725 0.75149 0.0
H1018 H 0.67809 0.09334 0.73788 0.0
H1019 H 0.65276 0.07528 0.76385 0.0
H1020 H 0.65247 0.08371 0.69806 0.0
H1021 H 0.61729 0.1068 0.65049 0.0
H1022 H 0.58065 0.07692 0.61981 0.0
H1023 H 0.56341 0.71201 0.91629 0.0
H1024 H 0.56412 0.6786 0.89561 0.0
H1025 H 0.51819 0.64316 0.00652 0.0
H1026 H 0.51756 0.67665 0.02802 0.0
H1027 H 0.57272 0.64815 0.96367 0.0
H1028 H 0.48858 0.61144 0.86221 0.0
H1029 H 0.50485 0.64051 0.8776 0.0
H1030 H 0.49322 0.62145 0.92796 0.0
C1031 C 0.55371 0.6972 0.93683 0.0
C1032 C 0.54024 0.69684 0.97329 0.0
C1033 C 0.55416 0.67818 0.92508 0.0
C1034 C 0.54116 0.65852 0.9495 0.0
C1035 C 0.52821 0.65821 0.98712 0.0
H1036 H 0.51172 0.54043 0.78147 0.0
H1037 H 0.5143 0.56058 0.85916 0.0
C1038 C 0.52773 0.67725 0.99893 0.0
C1039 C 0.53988 0.63812 0.93167 0.0
H1040 H 0.50856 0.59422 0.84929 0.0
C1041 C 0.55856 0.63602 0.93955 0.0
C1042 C 0.52125 0.62226 0.90094 0.0
C1043 C 0.5008 0.62391 0.89128 0.0
C1044 C 0.55956 0.61909 0.91464 0.0
C1045 C 0.54163 0.6044 0.88012 0.0
C1046 C 0.52234 0.60551 0.87569 0.0
C1047 C 0.54346 0.59031 0.84183 0.0
C1048 C 0.58006 0.61759 0.92425 0.0
C1049 C 0.55945 0.60003 0.80719 0.0
C1050 C 0.55815 0.58846 0.76292 0.0
C1051 C 0.5406 0.56707 0.75194 0.0
C1052 C 0.52545 0.55684 0.78851 0.0
C1053 C 0.5269 0.56835 0.83312 0.0
H1054 H 0.58756 0.62287 0.96465 0.0
H1055 H 0.5768 0.60063 0.91708 0.0
H1056 H 0.59211 0.62885 0.89822 0.0
H1057 H 0.57205 0.61713 0.81222 0.0
H1058 H 0.57016 0.59685 0.73576 0.0
H1059 H 0.48879 0.20603 0.35992 0.0
H1060 H 0.4911 0.17484 0.39846 0.0
H1061 H 0.49918 0.15606 0.24891 0.0
H1062 H 0.49662 0.18715 0.21041 0.0
H1063 H 0.46809 0.121 0.30153 0.0
H1064 H 0.54565 0.16864 0.42673 0.0
H1065 H 0.52584 0.17674 0.43547 0.0
H1066 H 0.53694 0.18076 0.37433 0.0
C1067 C 0.49116 0.19523 0.33563 0.0
C1068 C 0.49257 0.19877 0.28256 0.0
C1069 C 0.4926 0.17757 0.35752 0.0
C1070 C 0.49563 0.16335 0.32661 0.0
C1071 C 0.49698 0.16692 0.27341 0.0
H1072 H 0.52466 0.06608 0.47316 0.0
H1073 H 0.52546 0.09409 0.41414 0.0
C1074 C 0.49556 0.1846 0.25155 0.0
C1075 C 0.49662 0.14434 0.34967 0.0
H1076 H 0.52395 0.13056 0.44493 0.0
C1077 C 0.48044 0.12306 0.3325 0.0
C1078 C 0.51296 0.14708 0.38938 0.0
C1079 C 0.53147 0.16954 0.40726 0.0
C1080 C 0.47959 0.10441 0.35571 0.0
C1081 C 0.49516 0.1072 0.39756 0.0
C1082 C 0.51192 0.12846 0.41309 0.0
C1083 C 0.4936 0.08846 0.42811 0.0
C1084 C 0.46196 0.08192 0.33547 0.0
C1085 C 0.47533 0.07586 0.45506 0.0
C1086 C 0.47479 0.05984 0.48872 0.0
C1087 C 0.49261 0.05618 0.49638 0.0
C1088 C 0.51061 0.06834 0.46798 0.0
C1089 C 0.51114 0.08442 0.43434 0.0
H1090 H 0.45594 0.08239 0.29459 0.0
H1091 H 0.46789 0.06995 0.33814 0.0
H1092 H 0.44795 0.07596 0.35891 0.0
H1093 H 0.4618 0.079 0.45164 0.0
H1094 H 0.46067 0.05081 0.50996 0.0
H1095 H 0.28741 0.50774 0.39105 0.0
H1096 H 0.31236 0.50823 0.46476 0.0
H1097 H 0.34204 0.48568 0.3628 0.0
H1098 H 0.31716 0.48512 0.28967 0.0
H1099 H 0.33265 0.46397 0.46161 0.0
H1100 H 0.37854 0.55564 0.47941 0.0
H1101 H 0.3494 0.5412 0.48115 0.0
H1102 H 0.36061 0.54146 0.42216 0.0
C1103 C 0.29921 0.50275 0.38491 0.0
C1104 C 0.3006 0.49645 0.3352 0.0
C1105 C 0.31339 0.50306 0.42673 0.0
C1106 C 0.32906 0.49709 0.41901 0.0
C1107 C 0.32998 0.49025 0.36948 0.0
H1108 H 0.44322 0.50412 0.46519 0.0
H1109 H 0.40671 0.49907 0.4503 0.0
C1110 C 0.31589 0.48998 0.32784 0.0
C1111 C 0.34553 0.49899 0.46111 0.0
H1112 H 0.39536 0.5369 0.51926 0.0
C1113 C 0.34603 0.47987 0.47576 0.0
C1114 C 0.36287 0.51977 0.47966 0.0
C1115 C 0.36304 0.54078 0.46489 0.0
C1116 C 0.36439 0.48112 0.50454 0.0
C1117 C 0.38259 0.50196 0.51851 0.0
C1118 C 0.38123 0.52097 0.50851 0.0
C1119 C 0.40442 0.50445 0.53041 0.0
C1120 C 0.36506 0.46029 0.51589 0.0
C1121 C 0.4152 0.50931 0.5806 0.0
C1122 C 0.43626 0.51218 0.58945 0.0
C1123 C 0.44676 0.5105 0.548 0.0
C1124 C 0.43574 0.5057 0.49794 0.0
C1125 C 0.41481 0.50267 0.48934 0.0
H1126 H 0.3484 0.44574 0.51444 0.0
H1127 H 0.37393 0.45766 0.48651 0.0
H1128 H 0.3739 0.46158 0.55454 0.0
H1129 H 0.40736 0.51087 0.61264 0.0
H1130 H 0.44441 0.51599 0.62836 0.0
H1131 H 0.85623 0.3381 0.19579 0.0
H1132 H 0.88939 0.36997 0.23618 0.0
H1133 H 0.87097 0.34435 0.38702 0.0
H1134 H 0.83845 0.31198 0.34633 0.0
H1135 H 0.8961 0.40176 0.29835 0.0
H1136 H 0.93186 0.35537 0.39854 0.0
H1137 H 0.90863 0.34258 0.35057 0.0
H1138 H 0.90501 0.34563 0.41701 0.0
C1139 C 0.85945 0.33939 0.23758 0.0
C1140 C 0.84513 0.32281 0.26834 0.0
C1141 C 0.87829 0.3575 0.26054 0.0
C1142 C 0.8829 0.35927 0.31453 0.0
C1143 C 0.86811 0.34294 0.34523 0.0
H1144 H 0.95159 0.46722 0.52144 0.0
H1145 H 0.92943 0.4434 0.44704 0.0
C1146 C 0.84949 0.32463 0.32221 0.0
C1147 C 0.90289 0.37837 0.3391 0.0
H1148 H 0.94426 0.39169 0.43424 0.0
C1149 C 0.90691 0.39964 0.32743 0.0
C1150 C 0.91749 0.37569 0.37551 0.0
C1151 C 0.91566 0.35357 0.38559 0.0
C1152 C 0.92426 0.4182 0.35402 0.0
C1153 C 0.9373 0.41526 0.39468 0.0
C1154 C 0.93415 0.39409 0.40366 0.0
C1155 C 0.95266 0.43318 0.43208 0.0
C1156 C 0.92822 0.44064 0.33835 0.0
C1157 C 0.97318 0.43555 0.44865 0.0
C1158 C 0.98536 0.44839 0.49265 0.0
C1159 C 0.97748 0.45954 0.51974 0.0
C1160 C 0.95797 0.45882 0.50072 0.0
C1161 C 0.94543 0.44538 0.45777 0.0
H1162 H 0.92418 0.44086 0.29601 0.0
H1163 H 0.91737 0.44462 0.35792 0.0
H1164 H 0.94542 0.45361 0.3487 0.0
H1165 H 0.97916 0.4264 0.42941 0.0
H1166 H 1.00052 0.44895 0.50664 0.0
H1167 H 0.56208 0.86873 0.20556 0.0
H1168 H 0.56285 0.90273 0.22785 0.0
H1169 H 0.51743 0.89308 0.09438 0.0
H1170 H 0.51663 0.85893 0.07156 0.0
H1171 H 0.57308 0.94163 0.16686 0.0
H1172 H 0.4876 0.89687 0.22052 0.0
H1173 H 0.50264 0.88281 0.21304 0.0
H1174 H 0.49268 0.89189 0.15715 0.0
C1175 C 0.55243 0.87395 0.18067 0.0
C1176 C 0.53915 0.86114 0.13715 0.0
C1177 C 0.55291 0.89336 0.19336 0.0
C1178 C 0.54013 0.90026 0.16282 0.0
C1179 C 0.52722 0.88783 0.11862 0.0
H1180 H 0.52008 0.99594 0.32165 0.0
H1181 H 0.52017 0.97678 0.24433 0.0
C1182 C 0.52669 0.86833 0.1059 0.0
C1183 C 0.53955 0.91979 0.18 0.0
H1184 H 0.50922 0.9337 0.24727 0.0
C1185 C 0.55897 0.94011 0.18332 0.0
C1186 C 0.521 0.91774 0.20068 0.0
C1187 C 0.49976 0.89619 0.19803 0.0
C1188 C 0.56085 0.95804 0.21061 0.0
C1189 C 0.54297 0.95531 0.23574 0.0
C1190 C 0.52293 0.93566 0.22809 0.0
C1191 C 0.54569 0.97058 0.27757 0.0
C1192 C 0.58228 0.97936 0.21454 0.0
C1193 C 0.56016 0.97359 0.3215 0.0
C1194 C 0.56005 0.98432 0.3657 0.0
C1195 C 0.54535 0.99215 0.36692 0.0
C1196 C 0.53158 0.99007 0.32197 0.0
C1197 C 0.53165 0.97921 0.27771 0.0
H1198 H 0.59072 0.98175 0.1792 0.0
H1199 H 0.57996 0.99365 0.22033 0.0
H1200 H 0.59306 0.97887 0.24788 0.0
H1201 H 0.57074 0.96656 0.3227 0.0
H1202 H 0.57096 0.98576 0.39951 0.0
H1203 H 0.70778 0.56213 0.2197 0.0
H1204 H 0.68326 0.56218 0.27912 0.0
H1205 H 0.6758 0.50185 0.34328 0.0
H1206 H 0.70113 0.50222 0.2858 0.0
H1207 H 0.64125 0.533 0.28616 0.0
H1208 H 0.6883 0.53798 0.47348 0.0
H1209 H 0.69998 0.54286 0.41269 0.0
H1210 H 0.68308 0.51521 0.43287 0.0
C1211 C 0.7013 0.54907 0.2471 0.0
C1212 C 0.70661 0.53222 0.24786 0.0
C1213 C 0.68711 0.54904 0.28086 0.0
C1214 C 0.67788 0.5322 0.31638 0.0
C1215 C 0.68304 0.5153 0.31715 0.0
H1216 H 0.55986 0.50131 0.45701 0.0
H1217 H 0.58727 0.49996 0.40997 0.0
C1218 C 0.69732 0.51537 0.28356 0.0
C1219 C 0.66208 0.53184 0.35074 0.0
H1220 H 0.65156 0.52963 0.47706 0.0
C1221 C 0.64357 0.53233 0.32791 0.0
C1222 C 0.66518 0.53126 0.40535 0.0
C1223 C 0.68532 0.53202 0.43264 0.0
C1224 C 0.628 0.53198 0.35788 0.0
C1225 C 0.63064 0.53053 0.41234 0.0
C1226 C 0.64933 0.5304 0.43533 0.0
C1227 C 0.61443 0.52976 0.44587 0.0
C1228 C 0.60911 0.5337 0.33082 0.0
C1229 C 0.62071 0.54616 0.48427 0.0
C1230 C 0.60507 0.54681 0.51195 0.0
C1231 C 0.5828 0.53108 0.50167 0.0
C1232 C 0.57679 0.51389 0.46552 0.0
C1233 C 0.59245 0.51317 0.43822 0.0
H1234 H 0.61266 0.54079 0.29194 0.0
H1235 H 0.59455 0.51702 0.32558 0.0
H1236 H 0.60505 0.54403 0.35387 0.0
H1237 H 0.6376 0.55902 0.49132 0.0
H1238 H 0.61033 0.56025 0.53959 0.0
H1239 H 0.20307 0.70527 0.29975 0.0
H1240 H 0.17178 0.67776 0.34162 0.0
H1241 H 0.12963 0.69549 0.24754 0.0
H1242 H 0.16043 0.72186 0.20298 0.0
H1243 H 0.14503 0.68171 0.39839 0.0
H1244 H 0.09689 0.63019 0.22406 0.0
H1245 H 0.12494 0.65167 0.22391 0.0
H1246 H 0.10337 0.65825 0.21757 0.0
C1247 C 0.18711 0.7031 0.28733 0.0
C1248 C 0.18434 0.71576 0.24768 0.0
C1249 C 0.16925 0.68748 0.31162 0.0
C1250 C 0.14828 0.68425 0.29699 0.0
C1251 C 0.14554 0.69727 0.25855 0.0
H1252 H 0.04305 0.61534 0.4943 0.0
H1253 H 0.07005 0.64299 0.44198 0.0
C1254 C 0.16331 0.71267 0.23375 0.0
C1255 C 0.12939 0.66759 0.32283 0.0
H1256 H 0.07857 0.62257 0.30023 0.0
C1257 C 0.13053 0.66873 0.37694 0.0
C1258 C 0.11058 0.65049 0.29482 0.0
C1259 C 0.10892 0.6474 0.23695 0.0
C1260 C 0.11339 0.65332 0.40389 0.0
C1261 C 0.09422 0.63674 0.37576 0.0
C1262 C 0.09311 0.63551 0.32165 0.0
C1263 C 0.07566 0.61983 0.4021 0.0
C1264 C 0.11635 0.65457 0.46228 0.0
C1265 C 0.06874 0.59747 0.39437 0.0
C1266 C 0.05293 0.58158 0.42328 0.0
C1267 C 0.04392 0.58782 0.46079 0.0
C1268 C 0.04991 0.61007 0.46619 0.0
C1269 C 0.06547 0.62591 0.43665 0.0
H1270 H 0.13385 0.66405 0.4774 0.0
H1271 H 0.1081 0.66304 0.47637 0.0
H1272 H 0.10914 0.63792 0.47864 0.0
H1273 H 0.07626 0.59239 0.36757 0.0
H1274 H 0.0487 0.56458 0.41823 0.0
loop_
_geom_bond_atom_site_label_1
_geom_bond_atom_site_label_2
_geom_bond_distance
_geom_bond_site_symmetry_2
_ccdc_geom_bond_type
C0 C1 1.443 . S
C0 N4 1.376 . S
C0 C38 1.389 . S
C1 C0 1.443 . S
C1 C2 1.340 . S
C1 H41 0.951 . S
C2 C1 1.340 . S
C2 C3 1.439 . S
C2 H42 0.950 . S
C3 C2 1.439 . S
C3 N4 1.374 . S
C3 C37 1.395 . S
N4 C0 1.376 . S
N4 C3 1.374 . S
N4 Co5 2.008 . S
Co5 N4 2.008 . S
Co5 N6 1.995 . S
Co5 N11 2.008 . S
Co5 N16 1.995 . S
Co5 N21 2.282 . S
Co5 N27 2.282 . S
N6 Co5 1.995 . S
N6 C7 1.376 . S
N6 C10 1.383 . S
C7 N6 1.376 . S
C7 C8 1.446 . S
C7 C37 1.391 . S
C8 C7 1.446 . S
C8 C9 1.339 . S
C8 H43 0.949 . S
C9 C8 1.339 . S
C9 C10 1.439 . S
C9 H44 0.950 . S
C10 N6 1.383 . S
C10 C9 1.439 . S
C10 C39 1.392 . S
N11 Co5 2.008 . S
N11 C12 1.376 . S
N11 C15 1.374 . S
C12 N11 1.376 . S
C12 C13 1.443 . S
C12 C39 1.389 . S
C13 C12 1.443 . S
C13 C14 1.340 . S
C13 H45 0.951 . S
C14 C13 1.340 . S
C14 C15 1.439 . S
C14 H46 0.950 . S
C15 N11 1.374 . S
C15 C14 1.439 . S
C15 C40 1.395 . S
N16 Co5 1.995 . S
N16 C17 1.376 . S
N16 C20 1.383 . S
C17 N16 1.376 . S
C17 C18 1.446 . S
C17 C40 1.391 . S
C18 C17 1.446 . S
C18 C19 1.339 . S
C18 H47 0.949 . S
C19 C18 1.339 . S
C19 C20 1.439 . S
C19 H48 0.950 . S
C20 N16 1.383 . S
C20 C19 1.439 . S
C20 C38 1.392 . S
N21 Co5 2.282 . S
N21 C24 1.332 . S
N21 C26 1.332 . S
C22 C23 1.386 . S
C22 C25 1.388 . S
C23 C22 1.386 . S
C23 C24 1.382 . S
C23 H49 0.950 . S
C24 N21 1.332 . S
C24 C23 1.382 . S
C24 H35 0.952 . S
C25 C22 1.388 . S
C25 C26 1.382 . S
C25 H50 0.950 . S
C26 N21 1.332 . S
C26 C25 1.382 . S
C26 H36 0.948 . S
N27 Co5 2.282 . S
N27 C31 1.332 . S
N27 C32 1.332 . S
C28 C29 1.388 . S
C28 C32 1.382 . S
C28 H51 0.950 . S
C29 C28 1.388 . S
C29 C30 1.386 . S
C30 C29 1.386 . S
C30 C31 1.382 . S
C30 H52 0.950 . S
C31 N27 1.332 . S
C31 C30 1.382 . S
C31 H33 0.952 . S
C32 N27 1.332 . S
C32 C28 1.382 . S
C32 H34 0.948 . S
H33 C31 0.952 . S
H34 C32 0.948 . S
H35 C24 0.952 . S
H36 C26 0.948 . S
C37 C3 1.395 . S
C37 C7 1.391 . S
C38 C0 1.389 . S
C38 C20 1.392 . S
C39 C10 1.392 . S
C39 C12 1.389 . S
C40 C15 1.395 . S
C40 C17 1.391 . S
H41 C1 0.951 . S
H42 C2 0.950 . S
H43 C8 0.949 . S
H44 C9 0.950 . S
H45 C13 0.951 . S
H46 C14 0.950 . S
H47 C18 0.949 . S
H48 C19 0.950 . S
H49 C23 0.950 . S
H50 C25 0.950 . S
H51 C28 0.950 . S
H52 C30 0.950 . S
C53 C54 1.443 . S
C53 N57 1.376 . S
C53 C91 1.389 . S
C54 C53 1.443 . S
C54 C55 1.340 . S
C54 H94 0.951 . S
C55 C54 1.340 . S
C55 C56 1.439 . S
C55 H95 0.950 . S
C56 C55 1.439 . S
C56 N57 1.374 . S
C56 C90 1.395 . S
N57 C53 1.376 . S
N57 C56 1.374 . S
N57 Co58 2.008 . S
Co58 N57 2.008 . S
Co58 N59 1.995 . S
Co58 N64 2.008 . S
Co58 N69 1.995 . S
Co58 N74 2.282 . S
Co58 N80 2.282 . S
N59 Co58 1.995 . S
N59 C60 1.376 . S
N59 C63 1.383 . S
C60 N59 1.376 . S
C60 C61 1.446 . S
C60 C90 1.391 . S
C61 C60 1.446 . S
C61 C62 1.339 . S
C61 H96 0.949 . S
C62 C61 1.339 . S
C62 C63 1.439 . S
C62 H97 0.950 . S
C63 N59 1.383 . S
C63 C62 1.439 . S
C63 C92 1.392 . S
N64 Co58 2.008 . S
N64 C65 1.376 . S
N64 C68 1.374 . S
C65 N64 1.376 . S
C65 C66 1.443 . S
C65 C92 1.389 . S
C66 C65 1.443 . S
C66 C67 1.340 . S
C66 H98 0.951 . S
C67 C66 1.340 . S
C67 C68 1.439 . S
C67 H99 0.950 . S
C68 N64 1.374 . S
C68 C67 1.439 . S
C68 C93 1.395 . S
N69 Co58 1.995 . S
N69 C70 1.376 . S
N69 C73 1.383 . S
C70 N69 1.376 . S
C70 C71 1.446 . S
C70 C93 1.391 . S
C71 C70 1.446 . S
C71 C72 1.339 . S
C71 H100 0.949 . S
C72 C71 1.339 . S
C72 C73 1.439 . S
C72 H101 0.950 . S
C73 N69 1.383 . S
C73 C72 1.439 . S
C73 C91 1.392 . S
N74 Co58 2.282 . S
N74 C77 1.332 . S
N74 C79 1.332 . S
C75 C76 1.386 . S
C75 C78 1.388 . S
C76 C75 1.386 . S
C76 C77 1.382 . S
C76 H102 0.950 . S
C77 N74 1.332 . S
C77 C76 1.382 . S
C77 H88 0.952 . S
C78 C75 1.388 . S
C78 C79 1.382 . S
C78 H103 0.950 . S
C79 N74 1.332 . S
C79 C78 1.382 . S
C79 H89 0.948 . S
N80 Co58 2.282 . S
N80 C84 1.332 . S
N80 C85 1.332 . S
C81 C82 1.388 . S
C81 C85 1.382 . S
C81 H104 0.950 . S
C82 C81 1.388 . S
C82 C83 1.386 . S
C83 C82 1.386 . S
C83 C84 1.382 . S
C83 H105 0.950 . S
C84 N80 1.332 . S
C84 C83 1.382 . S
C84 H86 0.952 . S
C85 N80 1.332 . S
C85 C81 1.382 . S
C85 H87 0.948 . S
H86 C84 0.952 . S
H87 C85 0.948 . S
H88 C77 0.952 . S
H89 C79 0.948 . S
C90 C56 1.395 . S
C90 C60 1.391 . S
C91 C53 1.389 . S
C91 C73 1.392 . S
C92 C63 1.392 . S
C92 C65 1.389 . S
C93 C68 1.395 . S
C93 C70 1.391 . S
H94 C54 0.951 . S
H95 C55 0.950 . S
H96 C61 0.949 . S
H97 C62 0.950 . S
H98 C66 0.951 . S
H99 C67 0.950 . S
H100 C71 0.949 . S
H101 C72 0.950 . S
H102 C76 0.950 . S
H103 C78 0.950 . S
H104 C81 0.950 . S
H105 C83 0.950 . S
C106 C107 1.443 . S
C106 N110 1.376 . S
C106 C144 1.389 . S
C107 C106 1.443 . S
C107 C108 1.340 . S
C107 H147 0.951 . S
C108 C107 1.340 . S
C108 C109 1.439 . S
C108 H148 0.950 . S
C109 C108 1.439 . S
C109 N110 1.374 . S
C109 C143 1.395 . S
N110 C106 1.376 . S
N110 C109 1.374 . S
N110 Co111 2.008 . S
Co111 N110 2.008 . S
Co111 N112 1.995 1_554 S
Co111 N117 2.008 1_554 S
Co111 N122 1.995 . S
Co111 N127 2.282 . S
Co111 N133 2.282 1_554 S
N112 Co111 1.995 1_556 S
N112 C113 1.376 . S
N112 C116 1.383 . S
C113 N112 1.376 . S
C113 C114 1.446 . S
C113 C143 1.391 1_556 S
C114 C113 1.446 . S
C114 C115 1.339 . S
C114 H149 0.949 . S
C115 C114 1.339 . S
C115 C116 1.439 . S
C115 H150 0.950 . S
C116 N112 1.383 . S
C116 C115 1.439 . S
C116 C145 1.392 . S
N117 Co111 2.008 1_556 S
N117 C118 1.376 . S
N117 C121 1.374 . S
C118 N117 1.376 . S
C118 C119 1.443 . S
C118 C145 1.389 . S
C119 C118 1.443 . S
C119 C120 1.340 . S
C119 H151 0.951 . S
C120 C119 1.340 . S
C120 C121 1.439 . S
C120 H152 0.950 . S
C121 N117 1.374 . S
C121 C120 1.439 . S
C121 C146 1.395 1_556 S
N122 Co111 1.995 . S
N122 C123 1.376 . S
N122 C126 1.383 . S
C123 N122 1.376 . S
C123 C124 1.446 . S
C123 C146 1.391 . S
C124 C123 1.446 . S
C124 C125 1.339 . S
C124 H153 0.949 . S
C125 C124 1.339 . S
C125 C126 1.439 . S
C125 H154 0.950 . S
C126 N122 1.383 . S
C126 C125 1.439 . S
C126 C144 1.392 . S
N127 Co111 2.282 . S
N127 C130 1.332 . S
N127 C132 1.332 . S
C128 C129 1.386 . S
C128 C131 1.388 . S
C129 C128 1.386 . S
C129 C130 1.382 . S
C129 H155 0.950 . S
C130 N127 1.332 . S
C130 C129 1.382 . S
C130 H141 0.952 . S
C131 C128 1.388 . S
C131 C132 1.382 . S
C131 H156 0.950 . S
C132 N127 1.332 . S
C132 C131 1.382 . S
C132 H142 0.948 . S
N133 Co111 2.282 1_556 S
N133 C137 1.332 . S
N133 C138 1.332 . S
C134 C135 1.388 . S
C134 C138 1.382 . S
C134 H157 0.950 . S
C135 C134 1.388 . S
C135 C136 1.386 . S
C136 C135 1.386 . S
C136 C137 1.382 . S
C136 H158 0.950 . S
C137 N133 1.332 . S
C137 C136 1.382 . S
C137 H139 0.952 . S
C138 N133 1.332 . S
C138 C134 1.382 . S
C138 H140 0.948 . S
H139 C137 0.952 . S
H140 C138 0.948 . S
H141 C130 0.952 . S
H142 C132 0.948 . S
C143 C109 1.395 . S
C143 C113 1.391 1_554 S
C144 C106 1.389 . S
C144 C126 1.392 . S
C145 C116 1.392 . S
C145 C118 1.389 . S
C146 C121 1.395 1_554 S
C146 C123 1.391 . S
H147 C107 0.951 . S
H148 C108 0.950 . S
H149 C114 0.949 . S
H150 C115 0.950 . S
H151 C119 0.951 . S
H152 C120 0.950 . S
H153 C124 0.949 . S
H154 C125 0.950 . S
H155 C129 0.950 . S
H156 C131 0.950 . S
H157 C134 0.950 . S
H158 C136 0.950 . S
C159 C160 1.443 . S
C159 N163 1.376 . S
C159 C197 1.389 . S
C160 C159 1.443 . S
C160 C161 1.340 . S
C160 H200 0.951 . S
C161 C160 1.340 . S
C161 C162 1.439 . S
C161 H201 0.950 . S
C162 C161 1.439 . S
C162 N163 1.374 . S
C162 C196 1.395 . S
N163 C159 1.376 . S
N163 C162 1.374 . S
N163 Co164 2.008 . S
Co164 N163 2.008 . S
Co164 N165 1.995 . S
Co164 N170 2.008 . S
Co164 N175 1.995 . S
Co164 N180 2.282 . S
Co164 N186 2.282 . S
N165 Co164 1.995 . S
N165 C166 1.376 . S
N165 C169 1.383 . S
C166 N165 1.376 . S
C166 C167 1.446 . S
C166 C196 1.391 . S
C167 C166 1.446 . S
C167 C168 1.339 1_554 S
C167 H202 0.949 . S
C168 C167 1.339 1_556 S
C168 C169 1.439 1_556 S
C168 H203 0.950 . S
C169 N165 1.383 . S
C169 C168 1.439 1_554 S
C169 C198 1.392 1_554 S
N170 Co164 2.008 . S
N170 C171 1.376 . S
N170 C174 1.374 . S
C171 N170 1.376 . S
C171 C172 1.443 1_554 S
C171 C198 1.389 1_554 S
C172 C171 1.443 1_556 S
C172 C173 1.340 1_556 S
C172 H204 0.951 . S
C173 C172 1.340 1_554 S
C173 C174 1.439 . S
C173 H205 0.950 . S
C174 N170 1.374 . S
C174 C173 1.439 . S
C174 C199 1.395 . S
N175 Co164 1.995 . S
N175 C176 1.376 . S
N175 C179 1.383 . S
C176 N175 1.376 . S
C176 C177 1.446 . S
C176 C199 1.391 . S
C177 C176 1.446 . S
C177 C178 1.339 . S
C177 H206 0.949 . S
C178 C177 1.339 . S
C178 C179 1.439 . S
C178 H207 0.950 . S
C179 N175 1.383 . S
C179 C178 1.439 . S
C179 C197 1.392 . S
N180 Co164 2.282 . S
N180 C183 1.332 . S
N180 C185 1.332 . S
C181 C182 1.386 . S
C181 C184 1.388 . S
C182 C181 1.386 . S
C182 C183 1.382 . S
C182 H208 0.950 . S
C183 N180 1.332 . S
C183 C182 1.382 . S
C183 H194 0.952 . S
C184 C181 1.388 . S
C184 C185 1.382 . S
C184 H209 0.950 . S
C185 N180 1.332 . S
C185 C184 1.382 . S
C185 H195 0.948 . S
N186 Co164 2.282 . S
N186 C190 1.332 1_554 S
N186 C191 1.332 . S
C187 C188 1.388 . S
C187 C191 1.382 1_556 S
C187 H210 0.950 . S
C188 C187 1.388 . S
C188 C189 1.386 . S
C189 C188 1.386 . S
C189 C190 1.382 . S
C189 H211 0.950 . S
C190 N186 1.332 1_556 S
C190 C189 1.382 . S
C190 H192 0.952 1_556 S
C191 N186 1.332 . S
C191 C187 1.382 1_554 S
C191 H193 0.948 . S
H192 C190 0.952 1_554 S
H193 C191 0.948 . S
H194 C183 0.952 . S
H195 C185 0.948 . S
C196 C162 1.395 . S
C196 C166 1.391 . S
C197 C159 1.389 . S
C197 C179 1.392 . S
C198 C169 1.392 1_556 S
C198 C171 1.389 1_556 S
C199 C174 1.395 . S
C199 C176 1.391 . S
H200 C160 0.951 . S
H201 C161 0.950 . S
H202 C167 0.949 . S
H203 C168 0.950 . S
H204 C172 0.951 . S
H205 C173 0.950 . S
H206 C177 0.949 . S
H207 C178 0.950 . S
H208 C182 0.950 . S
H209 C184 0.950 . S
H210 C187 0.950 . S
H211 C189 0.950 . S
C212 C213 1.443 . S
C212 N216 1.376 . S
C212 C250 1.389 . S
C213 C212 1.443 . S
C213 C214 1.340 . S
C213 H253 0.951 . S
C214 C213 1.340 . S
C214 C215 1.439 . S
C214 H254 0.950 . S
C215 C214 1.439 . S
C215 N216 1.374 . S
C215 C249 1.395 . S
N216 C212 1.376 . S
N216 C215 1.374 . S
N216 Co217 2.008 . S
Co217 N216 2.008 . S
Co217 N218 1.995 . S
Co217 N223 2.008 . S
Co217 N228 1.995 . S
Co217 N233 2.282 . S
Co217 N239 2.282 . S
N218 Co217 1.995 . S
N218 C219 1.376 . S
N218 C222 1.383 . S
C219 N218 1.376 . S
C219 C220 1.446 . S
C219 C249 1.391 . S
C220 C219 1.446 . S
C220 C221 1.339 1_554 S
C220 H255 0.949 1_554 S
C221 C220 1.339 1_556 S
C221 C222 1.439 1_556 S
C221 H256 0.950 . S
C222 N218 1.383 . S
C222 C221 1.439 1_554 S
C222 C251 1.392 . S
N223 Co217 2.008 . S
N223 C224 1.376 . S
N223 C227 1.374 . S
C224 N223 1.376 . S
C224 C225 1.443 . S
C224 C251 1.389 . S
C225 C224 1.443 . S
C225 C226 1.340 . S
C225 H257 0.943 1_554 S
C226 C225 1.340 . S
C226 C227 1.439 . S
C226 H258 0.950 . S
C227 N223 1.374 . S
C227 C226 1.439 . S
C227 C252 1.395 . S
N228 Co217 1.995 . S
N228 C229 1.376 . S
N228 C232 1.383 . S
C229 N228 1.376 . S
C229 C230 1.446 . S
C229 C252 1.391 . S
C230 C229 1.446 . S
C230 C231 1.339 . S
C230 H259 0.949 . S
C231 C230 1.339 . S
C231 C232 1.439 . S
C231 H260 0.950 . S
C232 N228 1.383 . S
C232 C231 1.439 . S
C232 C250 1.392 . S
N233 Co217 2.282 . S
N233 C236 1.332 . S
N233 C238 1.332 . S
C234 C235 1.386 . S
C234 C237 1.388 . S
C235 C234 1.386 . S
C235 C236 1.382 . S
C235 H261 0.950 . S
C236 N233 1.332 . S
C236 C235 1.382 . S
C236 H247 0.952 . S
C237 C234 1.388 . S
C237 C238 1.382 . S
C237 H262 0.950 . S
C238 N233 1.332 . S
C238 C237 1.382 . S
C238 H248 0.948 . S
N239 Co217 2.282 . S
N239 C243 1.332 1_554 S
N239 C244 1.332 . S
C240 C241 1.388 . S
C240 C244 1.382 1_556 S
C240 H263 0.950 . S
C241 C240 1.388 . S
C241 C242 1.386 . S
C242 C241 1.386 . S
C242 C243 1.382 . S
C242 H264 0.950 . S
C243 N239 1.332 1_556 S
C243 C242 1.382 . S
C243 H245 0.952 . S
C244 N239 1.332 . S
C244 C240 1.382 1_554 S
C244 H246 0.948 . S
H245 C243 0.952 . S
H246 C244 0.948 . S
H247 C236 0.952 . S
H248 C238 0.948 . S
C249 C215 1.395 . S
C249 C219 1.391 . S
C250 C212 1.389 . S
C250 C232 1.392 . S
C251 C222 1.392 . S
C251 C224 1.389 . S
C252 C227 1.395 . S
C252 C229 1.391 . S
H253 C213 0.951 . S
H254 C214 0.950 . S
H255 C220 0.949 1_556 S
H256 C221 0.950 . S
H257 C225 0.943 1_556 S
H258 C226 0.950 . S
H259 C230 0.949 . S
H260 C231 0.950 . S
H261 C235 0.950 . S
H262 C237 0.950 . S
H263 C240 0.950 . S
H264 C242 0.950 . S
C265 C266 1.443 . S
C265 N269 1.376 . S
C265 C303 1.389 . S
C266 C265 1.443 . S
C266 C267 1.340 . S
C266 H306 0.951 . S
C267 C266 1.340 . S
C267 C268 1.439 . S
C267 H307 0.950 . S
C268 C267 1.439 . S
C268 N269 1.374 . S
C268 C302 1.395 . S
N269 C265 1.376 . S
N269 C268 1.374 . S
N269 Co270 2.008 . S
Co270 N269 2.008 . S
Co270 N271 1.995 . S
Co270 N276 2.008 . S
Co270 N281 1.995 . S
Co270 N286 2.282 . S
Co270 N292 2.282 . S
N271 Co270 1.995 . S
N271 C272 1.376 . S
N271 C275 1.383 . S
C272 N271 1.376 . S
C272 C273 1.446 . S
C272 C302 1.391 . S
C273 C272 1.446 . S
C273 C274 1.339 . S
C273 H308 0.949 . S
C274 C273 1.339 . S
C274 C275 1.439 . S
C274 H309 0.950 . S
C275 N271 1.383 . S
C275 C274 1.439 . S
C275 C304 1.392 . S
N276 Co270 2.008 . S
N276 C277 1.376 . S
N276 C280 1.374 . S
C277 N276 1.376 . S
C277 C278 1.443 . S
C277 C304 1.389 . S
C278 C277 1.443 . S
C278 C279 1.340 . S
C278 H310 0.951 . S
C279 C278 1.340 . S
C279 C280 1.439 . S
C279 H311 0.950 . S
C280 N276 1.374 . S
C280 C279 1.439 . S
C280 C305 1.395 . S
N281 Co270 1.995 . S
N281 C282 1.376 . S
N281 C285 1.383 . S
C282 N281 1.376 . S
C282 C283 1.446 . S
C282 C305 1.391 . S
C283 C282 1.446 . S
C283 C284 1.339 . S
C283 H312 0.949 . S
C284 C283 1.339 . S
C284 C285 1.439 . S
C284 H313 0.950 . S
C285 N281 1.383 . S
C285 C284 1.439 . S
C285 C303 1.392 . S
N286 Co270 2.282 . S
N286 C289 1.332 . S
N286 C291 1.332 . S
C287 C288 1.386 . S
C287 C290 1.388 . S
C288 C287 1.386 . S
C288 C289 1.382 . S
C288 H314 0.950 . S
C289 N286 1.332 . S
C289 C288 1.382 . S
C289 H300 0.952 . S
C290 C287 1.388 . S
C290 C291 1.382 . S
C290 H315 0.950 . S
C291 N286 1.332 . S
C291 C290 1.382 . S
C291 H301 0.948 . S
N292 Co270 2.282 . S
N292 C296 1.332 . S
N292 C297 1.332 . S
C293 C294 1.388 . S
C293 C297 1.382 . S
C293 H316 0.950 . S
C294 C293 1.388 . S
C294 C295 1.386 . S
C295 C294 1.386 . S
C295 C296 1.382 . S
C295 H317 0.950 . S
C296 N292 1.332 . S
C296 C295 1.382 . S
C296 H298 0.952 . S
C297 N292 1.332 . S
C297 C293 1.382 . S
C297 H299 0.948 . S
H298 C296 0.952 . S
H299 C297 0.948 . S
H300 C289 0.952 . S
H301 C291 0.948 . S
C302 C268 1.395 . S
C302 C272 1.391 . S
C303 C265 1.389 . S
C303 C285 1.392 . S
C304 C275 1.392 . S
C304 C277 1.389 . S
C305 C280 1.395 . S
C305 C282 1.391 . S
H306 C266 0.951 . S
H307 C267 0.950 . S
H308 C273 0.949 . S
H309 C274 0.950 . S
H310 C278 0.951 . S
H311 C279 0.950 . S
H312 C283 0.949 . S
H313 C284 0.950 . S
H314 C288 0.950 . S
H315 C290 0.950 . S
H316 C293 0.950 . S
H317 C295 0.950 . S
C318 O330 1.241 . S
C318 O331 1.280 . S
C319 O332 1.277 . S
C319 O333 1.245 . S
C320 O344 1.247 . S
C320 O346 1.289 . S
Mg321 O322 1.926 . S
Mg321 O331 1.984 1_455 S
Mg321 O333 1.988 . S
Mg321 O334 2.061 1_455 S
O322 Mg321 1.926 . S
O322 Mg323 1.986 . S
O322 Mg324 1.917 . S
Mg323 O322 1.986 . S
Mg323 O330 2.042 1_455 S
Mg323 O332 2.041 . S
Mg323 O338 2.038 1_455 S
Mg323 O346 2.238 . S
Mg324 O322 1.917 . S
Mg324 O325 1.917 . S
Mg324 O335 2.106 1_455 S
Mg324 O337 2.079 1_455 S
Mg324 O346 2.106 . S
Mg324 O347 2.079 . S
O325 Mg324 1.917 . S
O325 Mg326 1.926 . S
O325 Mg327 1.986 . S
Mg326 O325 1.926 . S
Mg326 O340 1.984 . S
Mg326 O343 1.988 1_455 S
Mg326 O344 2.061 . S
Mg327 O325 1.986 . S
Mg327 O335 2.238 1_455 S
Mg327 O339 2.042 . S
Mg327 O341 2.041 1_455 S
Mg327 O348 2.038 . S
C328 O334 1.247 . S
C328 O335 1.289 . S
C329 O347 1.245 . S
C329 O348 1.274 . S
O330 C318 1.241 . S
O330 Mg323 2.042 1_655 S
O331 C318 1.280 . S
O331 Mg321 1.984 1_655 S
O332 C319 1.277 . S
O332 Mg323 2.041 . S
O333 C319 1.245 . S
O333 Mg321 1.988 . S
O334 Mg321 2.061 1_655 S
O334 C328 1.247 . S
O335 Mg324 2.106 1_655 S
O335 Mg327 2.238 1_655 S
O335 C328 1.289 . S
C336 O337 1.245 . S
C336 O338 1.274 . S
O337 Mg324 2.079 1_655 S
O337 C336 1.245 . S
O338 Mg323 2.038 1_655 S
O338 C336 1.274 . S
O339 Mg327 2.042 . S
O339 C342 1.241 . S
O340 Mg326 1.984 . S
O340 C342 1.280 . S
O341 Mg327 2.041 1_655 S
O341 C345 1.277 . S
C342 O339 1.241 . S
C342 O340 1.280 . S
O343 Mg326 1.988 1_655 S
O343 C345 1.245 . S
O344 C320 1.247 . S
O344 Mg326 2.061 . S
C345 O341 1.277 . S
C345 O343 1.245 . S
O346 C320 1.289 . S
O346 Mg323 2.238 . S
O346 Mg324 2.106 . S
O347 Mg324 2.079 . S
O347 C329 1.245 . S
O348 Mg327 2.038 . S
O348 C329 1.274 . S
C349 O361 1.241 . S
C349 O362 1.280 . S
C350 O363 1.277 . S
C350 O364 1.245 . S
C351 O375 1.247 . S
C351 O377 1.289 . S
Mg352 O353 1.926 . S
Mg352 O362 1.984 . S
Mg352 O364 1.988 1_545 S
Mg352 O365 2.061 . S
O353 Mg352 1.926 . S
O353 Mg354 1.986 . S
O353 Mg355 1.917 . S
Mg354 O353 1.986 . S
Mg354 O361 2.042 . S
Mg354 O363 2.041 1_545 S
Mg354 O369 2.038 . S
Mg354 O377 2.238 1_545 S
Mg355 O353 1.917 . S
Mg355 O356 1.917 . S
Mg355 O366 2.106 . S
Mg355 O368 2.079 . S
Mg355 O377 2.106 1_545 S
Mg355 O378 2.079 1_545 S
O356 Mg355 1.917 . S
O356 Mg357 1.926 . S
O356 Mg358 1.986 . S
Mg357 O356 1.926 . S
Mg357 O371 1.984 1_545 S
Mg357 O374 1.988 . S
Mg357 O375 2.061 1_545 S
Mg358 O356 1.986 . S
Mg358 O366 2.238 . S
Mg358 O370 2.042 1_545 S
Mg358 O372 2.041 . S
Mg358 O379 2.038 1_545 S
C359 O365 1.247 . S
C359 O366 1.289 . S
C360 O378 1.245 . S
C360 O379 1.274 . S
O361 C349 1.241 . S
O361 Mg354 2.042 . S
O362 C349 1.280 . S
O362 Mg352 1.984 . S
O363 C350 1.277 . S
O363 Mg354 2.041 1_565 S
O364 C350 1.245 . S
O364 Mg352 1.988 1_565 S
O365 Mg352 2.061 . S
O365 C359 1.247 . S
O366 Mg355 2.106 . S
O366 Mg358 2.238 . S
O366 C359 1.289 . S
C367 O368 1.245 . S
C367 O369 1.274 . S
O368 Mg355 2.079 . S
O368 C367 1.245 . S
O369 Mg354 2.038 . S
O369 C367 1.274 . S
O370 Mg358 2.042 1_565 S
O370 C373 1.241 . S
O371 Mg357 1.984 1_565 S
O371 C373 1.280 . S
O372 Mg358 2.041 . S
O372 C376 1.277 . S
C373 O370 1.241 . S
C373 O371 1.280 . S
O374 Mg357 1.988 . S
O374 C376 1.245 . S
O375 C351 1.247 . S
O375 Mg357 2.061 1_565 S
C376 O372 1.277 . S
C376 O374 1.245 . S
O377 C351 1.289 . S
O377 Mg354 2.238 1_565 S
O377 Mg355 2.106 1_565 S
O378 Mg355 2.079 1_565 S
O378 C360 1.245 . S
O379 Mg358 2.038 1_565 S
O379 C360 1.274 . S
C380 O392 1.241 . S
C380 O393 1.280 . S
C381 O394 1.277 . S
C381 O395 1.245 . S
C382 O406 1.247 . S
C382 O408 1.289 . S
Mg383 O384 1.926 . S
Mg383 O393 1.984 . S
Mg383 O395 1.988 . S
Mg383 O396 2.061 . S
O384 Mg383 1.926 . S
O384 Mg385 1.986 . S
O384 Mg386 1.917 . S
Mg385 O384 1.986 . S
Mg385 O392 2.042 . S
Mg385 O394 2.041 . S
Mg385 O400 2.038 . S
Mg385 O408 2.238 . S
Mg386 O384 1.917 . S
Mg386 O387 1.917 . S
Mg386 O397 2.106 . S
Mg386 O399 2.079 . S
Mg386 O408 2.106 . S
Mg386 O409 2.079 . S
O387 Mg386 1.917 . S
O387 Mg388 1.926 . S
O387 Mg389 1.986 . S
Mg388 O387 1.926 . S
Mg388 O402 1.984 . S
Mg388 O405 1.988 . S
Mg388 O406 2.061 . S
Mg389 O387 1.986 . S
Mg389 O397 2.238 . S
Mg389 O401 2.042 . S
Mg389 O403 2.041 . S
Mg389 O410 2.038 . S
C390 O396 1.247 . S
C390 O397 1.289 . S
C391 O409 1.245 . S
C391 O410 1.274 . S
O392 C380 1.241 . S
O392 Mg385 2.042 . S
O393 C380 1.280 . S
O393 Mg383 1.984 . S
O394 C381 1.277 . S
O394 Mg385 2.041 . S
O395 C381 1.245 . S
O395 Mg383 1.988 . S
O396 Mg383 2.061 . S
O396 C390 1.247 . S
O397 Mg386 2.106 . S
O397 Mg389 2.238 . S
O397 C390 1.289 . S
C398 O399 1.245 . S
C398 O400 1.274 . S
O399 Mg386 2.079 . S
O399 C398 1.245 . S
O400 Mg385 2.038 . S
O400 C398 1.274 . S
O401 Mg389 2.042 . S
O401 C404 1.241 . S
O402 Mg388 1.984 . S
O402 C404 1.280 . S
O403 Mg389 2.041 . S
O403 C407 1.277 . S
C404 O401 1.241 . S
C404 O402 1.280 . S
O405 Mg388 1.988 . S
O405 C407 1.245 . S
O406 C382 1.247 . S
O406 Mg388 2.061 . S
C407 O403 1.277 . S
C407 O405 1.245 . S
O408 C382 1.289 . S
O408 Mg385 2.238 . S
O408 Mg386 2.106 . S
O409 Mg386 2.079 . S
O409 C391 1.245 . S
O410 Mg389 2.038 . S
O410 C391 1.274 . S
H411 C419 0.929 . S
H412 C421 0.930 . S
H413 C423 0.930 . S
H414 C426 0.929 . S
H415 C429 0.930 . S
H416 C431 0.960 . S
H417 C431 0.960 . S
H418 C431 0.960 . S
C419 H411 0.929 . S
C419 C420 1.377 . S
C419 C421 1.384 . S
C420 C419 1.377 . S
C420 C426 1.390 . S
C421 H412 0.930 . S
C421 C419 1.384 . S
C421 C422 1.372 . S
C422 C421 1.372 . S
C422 C423 1.400 . S
C422 C427 1.490 . S
C423 H413 0.930 . S
C423 C422 1.400 . S
C423 C426 1.386 . S
H424 C440 0.930 . S
H425 C441 0.931 . S
C426 H414 0.929 . S
C426 C420 1.390 . S
C426 C423 1.386 . S
C427 C422 1.490 . S
C427 C429 1.395 . S
C427 C430 1.403 . S
H428 C434 0.930 . S
C429 H415 0.930 . S
C429 C427 1.395 . S
C429 C432 1.403 . S
C430 C427 1.403 . S
C430 C431 1.524 . S
C430 C434 1.400 . S
C431 H416 0.960 . S
C431 H417 0.960 . S
C431 H418 0.960 . S
C431 C430 1.524 . S
C432 C429 1.403 . S
C432 C433 1.392 . S
C432 C436 1.495 . S
C433 C432 1.392 . S
C433 C434 1.385 . S
C433 C435 1.478 . S
C434 H428 0.930 . S
C434 C430 1.400 . S
C434 C433 1.385 . S
C435 C433 1.478 . S
C435 C437 1.381 . S
C435 C441 1.383 . S
C436 C432 1.495 . S
C436 H442 0.959 . S
C436 H443 0.961 . S
C436 H444 0.960 . S
C437 C435 1.381 . S
C437 C438 1.394 . S
C437 H445 0.930 . S
C438 C437 1.394 . S
C438 C439 1.383 . S
C438 H446 0.929 . S
C439 C438 1.383 . S
C439 C440 1.377 . S
C440 H424 0.930 . S
C440 C439 1.377 . S
C440 C441 1.379 . S
C441 H425 0.931 . S
C441 C435 1.383 . S
C441 C440 1.379 . S
H442 C436 0.959 . S
H443 C436 0.961 . S
H444 C436 0.960 . S
H445 C437 0.930 . S
H446 C438 0.929 . S
H447 C455 0.929 . S
H448 C457 0.930 . S
H449 C459 0.930 . S
H450 C462 0.929 . S
H451 C465 0.930 . S
H452 C467 0.960 . S
H453 C467 0.960 . S
H454 C467 0.960 . S
C455 H447 0.929 . S
C455 C456 1.377 . S
C455 C457 1.384 . S
C456 C455 1.377 . S
C456 C462 1.390 . S
C457 H448 0.930 . S
C457 C455 1.384 . S
C457 C458 1.372 . S
C458 C457 1.372 . S
C458 C459 1.400 . S
C458 C463 1.490 . S
C459 H449 0.930 . S
C459 C458 1.400 . S
C459 C462 1.386 . S
H460 C476 0.930 . S
H461 C477 0.931 . S
C462 H450 0.929 . S
C462 C456 1.390 . S
C462 C459 1.386 . S
C463 C458 1.490 . S
C463 C465 1.395 . S
C463 C466 1.403 . S
H464 C470 0.930 . S
C465 H451 0.930 . S
C465 C463 1.395 . S
C465 C468 1.403 . S
C466 C463 1.403 . S
C466 C467 1.524 . S
C466 C470 1.400 . S
C467 H452 0.960 . S
C467 H453 0.960 . S
C467 H454 0.960 . S
C467 C466 1.524 . S
C468 C465 1.403 . S
C468 C469 1.392 . S
C468 C472 1.495 . S
C469 C468 1.392 . S
C469 C470 1.385 . S
C469 C471 1.478 . S
C470 H464 0.930 . S
C470 C466 1.400 . S
C470 C469 1.385 . S
C471 C469 1.478 . S
C471 C473 1.381 . S
C471 C477 1.383 . S
C472 C468 1.495 . S
C472 H478 0.959 . S
C472 H479 0.961 . S
C472 H480 0.960 . S
C473 C471 1.381 . S
C473 C474 1.394 . S
C473 H481 0.930 . S
C474 C473 1.394 . S
C474 C475 1.383 . S
C474 H482 0.929 . S
C475 C474 1.383 . S
C475 C476 1.377 . S
C476 H460 0.930 . S
C476 C475 1.377 . S
C476 C477 1.379 . S
C477 H461 0.931 . S
C477 C471 1.383 . S
C477 C476 1.379 . S
H478 C472 0.959 . S
H479 C472 0.961 . S
H480 C472 0.960 . S
H481 C473 0.930 . S
H482 C474 0.929 . S
H483 C491 0.929 . S
H484 C493 0.930 . S
H485 C495 0.930 . S
H486 C498 0.929 . S
H487 C501 0.930 . S
H488 C503 0.960 . S
H489 C503 0.960 . S
H490 C503 0.960 . S
C491 H483 0.929 . S
C491 C492 1.377 . S
C491 C493 1.384 . S
C492 C491 1.377 . S
C492 C498 1.390 . S
C493 H484 0.930 . S
C493 C491 1.384 . S
C493 C494 1.372 . S
C494 C493 1.372 . S
C494 C495 1.400 . S
C494 C499 1.490 . S
C495 H485 0.930 . S
C495 C494 1.400 . S
C495 C498 1.386 . S
H496 C512 0.930 . S
H497 C513 0.931 . S
C498 H486 0.929 . S
C498 C492 1.390 . S
C498 C495 1.386 . S
C499 C494 1.490 . S
C499 C501 1.395 . S
C499 C502 1.403 . S
H500 C506 0.930 . S
C501 H487 0.930 . S
C501 C499 1.395 . S
C501 C504 1.403 . S
C502 C499 1.403 . S
C502 C503 1.524 . S
C502 C506 1.400 . S
C503 H488 0.960 . S
C503 H489 0.960 . S
C503 H490 0.960 . S
C503 C502 1.524 . S
C504 C501 1.403 . S
C504 C505 1.392 . S
C504 C508 1.495 . S
C505 C504 1.392 . S
C505 C506 1.385 . S
C505 C507 1.478 . S
C506 H500 0.930 . S
C506 C502 1.400 . S
C506 C505 1.385 . S
C507 C505 1.478 . S
C507 C509 1.381 . S
C507 C513 1.383 . S
C508 C504 1.495 . S
C508 H514 0.959 . S
C508 H515 0.961 . S
C508 H516 0.960 . S
C509 C507 1.381 . S
C509 C510 1.394 . S
C509 H517 0.930 . S
C510 C509 1.394 . S
C510 C511 1.383 . S
C510 H518 0.929 . S
C511 C510 1.383 . S
C511 C512 1.377 . S
C512 H496 0.930 . S
C512 C511 1.377 . S
C512 C513 1.379 . S
C513 H497 0.931 . S
C513 C507 1.383 . S
C513 C512 1.379 . S
H514 C508 0.959 . S
H515 C508 0.961 . S
H516 C508 0.960 . S
H517 C509 0.930 . S
H518 C510 0.929 . S
H519 C527 0.929 . S
H520 C529 0.930 . S
H521 C531 0.930 . S
H522 C534 0.929 . S
H523 C537 0.930 . S
H524 C539 0.960 . S
H525 C539 0.960 . S
H526 C539 0.960 . S
C527 H519 0.929 . S
C527 C528 1.377 . S
C527 C529 1.384 . S
C528 C527 1.377 . S
C528 C534 1.390 . S
C529 H520 0.930 . S
C529 C527 1.384 . S
C529 C530 1.372 . S
C530 C529 1.372 . S
C530 C531 1.400 . S
C530 C535 1.490 . S
C531 H521 0.930 . S
C531 C530 1.400 . S
C531 C534 1.386 . S
H532 C548 0.930 . S
H533 C549 0.931 . S
C534 H522 0.929 . S
C534 C528 1.390 . S
C534 C531 1.386 . S
C535 C530 1.490 . S
C535 C537 1.395 . S
C535 C538 1.403 . S
H536 C542 0.930 . S
C537 H523 0.930 . S
C537 C535 1.395 . S
C537 C540 1.403 . S
C538 C535 1.403 . S
C538 C539 1.524 . S
C538 C542 1.400 . S
C539 H524 0.960 . S
C539 H525 0.960 . S
C539 H526 0.960 . S
C539 C538 1.524 . S
C540 C537 1.403 . S
C540 C541 1.392 . S
C540 C544 1.495 . S
C541 C540 1.392 . S
C541 C542 1.385 . S
C541 C543 1.478 . S
C542 H536 0.930 . S
C542 C538 1.400 . S
C542 C541 1.385 . S
C543 C541 1.478 . S
C543 C545 1.381 . S
C543 C549 1.383 . S
C544 C540 1.495 . S
C544 H550 0.959 . S
C544 H551 0.961 . S
C544 H552 0.960 . S
C545 C543 1.381 . S
C545 C546 1.394 . S
C545 H553 0.930 . S
C546 C545 1.394 . S
C546 C547 1.383 . S
C546 H554 0.929 . S
C547 C546 1.383 . S
C547 C548 1.377 . S
C548 H532 0.930 . S
C548 C547 1.377 . S
C548 C549 1.379 . S
C549 H533 0.931 . S
C549 C543 1.383 . S
C549 C548 1.379 . S
H550 C544 0.959 . S
H551 C544 0.961 . S
H552 C544 0.960 . S
H553 C545 0.930 . S
H554 C546 0.929 . S
H555 C563 0.929 . S
H556 C565 0.930 . S
H557 C567 0.930 . S
H558 C570 0.929 . S
H559 C573 0.930 . S
H560 C575 0.960 . S
H561 C575 0.960 . S
H562 C575 0.960 . S
C563 H555 0.929 . S
C563 C564 1.377 . S
C563 C565 1.384 . S
C564 C563 1.377 . S
C564 C570 1.390 . S
C565 H556 0.930 . S
C565 C563 1.384 . S
C565 C566 1.372 . S
C566 C565 1.372 . S
C566 C567 1.400 . S
C566 C571 1.490 . S
C567 H557 0.930 . S
C567 C566 1.400 . S
C567 C570 1.386 . S
H568 C584 0.930 . S
H569 C585 0.931 . S
C570 H558 0.929 . S
C570 C564 1.390 . S
C570 C567 1.386 . S
C571 C566 1.490 . S
C571 C573 1.395 . S
C571 C574 1.403 . S
H572 C578 0.930 . S
C573 H559 0.930 . S
C573 C571 1.395 . S
C573 C576 1.403 . S
C574 C571 1.403 . S
C574 C575 1.524 . S
C574 C578 1.400 . S
C575 H560 0.960 . S
C575 H561 0.960 . S
C575 H562 0.960 . S
C575 C574 1.524 . S
C576 C573 1.403 . S
C576 C577 1.392 . S
C576 C580 1.495 . S
C577 C576 1.392 . S
C577 C578 1.385 . S
C577 C579 1.478 . S
C578 H572 0.930 . S
C578 C574 1.400 . S
C578 C577 1.385 . S
C579 C577 1.478 . S
C579 C581 1.381 . S
C579 C585 1.383 . S
C580 C576 1.495 . S
C580 H586 0.959 . S
C580 H587 0.961 . S
C580 H588 0.960 . S
C581 C579 1.381 . S
C581 C582 1.394 . S
C581 H589 0.930 . S
C582 C581 1.394 . S
C582 C583 1.383 . S
C582 H590 0.929 . S
C583 C582 1.383 . S
C583 C584 1.377 . S
C584 H568 0.930 . S
C584 C583 1.377 . S
C584 C585 1.379 . S
C585 H569 0.931 . S
C585 C579 1.383 . S
C585 C584 1.379 . S
H586 C580 0.959 . S
H587 C580 0.961 . S
H588 C580 0.960 . S
H589 C581 0.930 . S
H590 C582 0.929 . S
H591 C599 0.929 . S
H592 C601 0.930 . S
H593 C603 0.930 . S
H594 C606 0.929 . S
H595 C609 0.930 . S
H596 C611 0.960 . S
H597 C611 0.960 . S
H598 C611 0.960 . S
C599 H591 0.929 . S
C599 C600 1.377 . S
C599 C601 1.384 . S
C600 C599 1.377 . S
C600 C606 1.390 . S
C601 H592 0.930 . S
C601 C599 1.384 . S
C601 C602 1.372 . S
C602 C601 1.372 . S
C602 C603 1.400 . S
C602 C607 1.490 . S
C603 H593 0.930 . S
C603 C602 1.400 . S
C603 C606 1.386 . S
H604 C620 0.930 . S
H605 C621 0.931 . S
C606 H594 0.929 . S
C606 C600 1.390 . S
C606 C603 1.386 . S
C607 C602 1.490 . S
C607 C609 1.395 . S
C607 C610 1.403 . S
H608 C614 0.930 . S
C609 H595 0.930 . S
C609 C607 1.395 . S
C609 C612 1.403 . S
C610 C607 1.403 . S
C610 C611 1.524 . S
C610 C614 1.400 . S
C611 H596 0.960 . S
C611 H597 0.960 . S
C611 H598 0.960 . S
C611 C610 1.524 . S
C612 C609 1.403 . S
C612 C613 1.392 . S
C612 C616 1.495 . S
C613 C612 1.392 . S
C613 C614 1.385 . S
C613 C615 1.478 . S
C614 H608 0.930 . S
C614 C610 1.400 . S
C614 C613 1.385 . S
C615 C613 1.478 . S
C615 C617 1.381 . S
C615 C621 1.383 . S
C616 C612 1.495 . S
C616 H622 0.959 . S
C616 H623 0.961 . S
C616 H624 0.960 . S
C617 C615 1.381 . S
C617 C618 1.394 . S
C617 H625 0.930 . S
C618 C617 1.394 . S
C618 C619 1.383 . S
C618 H626 0.929 . S
C619 C618 1.383 . S
C619 C620 1.377 . S
C620 H604 0.930 . S
C620 C619 1.377 . S
C620 C621 1.379 . S
C621 H605 0.931 . S
C621 C615 1.383 . S
C621 C620 1.379 . S
H622 C616 0.959 . S
H623 C616 0.961 . S
H624 C616 0.960 . S
H625 C617 0.930 . S
H626 C618 0.929 . S
H627 C635 0.929 . S
H628 C637 0.930 . S
H629 C639 0.930 . S
H630 C642 0.929 . S
H631 C645 0.930 . S
H632 C647 0.960 . S
H633 C647 0.960 . S
H634 C647 0.960 . S
C635 H627 0.929 . S
C635 C636 1.377 . S
C635 C637 1.384 . S
C636 C635 1.377 . S
C636 C642 1.390 . S
C637 H628 0.930 . S
C637 C635 1.384 . S
C637 C638 1.372 . S
C638 C637 1.372 . S
C638 C639 1.400 . S
C638 C643 1.490 . S
C639 H629 0.930 . S
C639 C638 1.400 . S
C639 C642 1.386 . S
H640 C656 0.930 . S
H641 C657 0.931 . S
C642 H630 0.929 . S
C642 C636 1.390 . S
C642 C639 1.386 . S
C643 C638 1.490 . S
C643 C645 1.395 . S
C643 C646 1.403 . S
H644 C650 0.930 . S
C645 H631 0.930 . S
C645 C643 1.395 . S
C645 C648 1.403 . S
C646 C643 1.403 . S
C646 C647 1.524 . S
C646 C650 1.400 . S
C647 H632 0.960 . S
C647 H633 0.960 . S
C647 H634 0.960 . S
C647 C646 1.524 . S
C648 C645 1.403 . S
C648 C649 1.392 . S
C648 C652 1.495 . S
C649 C648 1.392 . S
C649 C650 1.385 . S
C649 C651 1.478 . S
C650 H644 0.930 . S
C650 C646 1.400 . S
C650 C649 1.385 . S
C651 C649 1.478 . S
C651 C653 1.381 . S
C651 C657 1.383 . S
C652 C648 1.495 . S
C652 H658 0.959 . S
C652 H659 0.961 . S
C652 H660 0.960 . S
C653 C651 1.381 . S
C653 C654 1.394 . S
C653 H661 0.930 . S
C654 C653 1.394 . S
C654 C655 1.383 . S
C654 H662 0.929 . S
C655 C654 1.383 . S
C655 C656 1.377 . S
C656 H640 0.930 . S
C656 C655 1.377 . S
C656 C657 1.379 . S
C657 H641 0.931 . S
C657 C651 1.383 . S
C657 C656 1.379 . S
H658 C652 0.959 . S
H659 C652 0.961 . S
H660 C652 0.960 . S
H661 C653 0.930 . S
H662 C654 0.929 . S
H663 C671 0.929 . S
H664 C673 0.930 . S
H665 C675 0.930 . S
H666 C678 0.929 . S
H667 C681 0.930 . S
H668 C683 0.960 . S
H669 C683 0.960 . S
H670 C683 0.960 . S
C671 H663 0.929 . S
C671 C672 1.377 . S
C671 C673 1.384 . S
C672 C671 1.377 . S
C672 C678 1.390 . S
C673 H664 0.930 . S
C673 C671 1.384 . S
C673 C674 1.372 . S
C674 C673 1.372 . S
C674 C675 1.400 . S
C674 C679 1.490 . S
C675 H665 0.930 . S
C675 C674 1.400 . S
C675 C678 1.386 . S
H676 C692 0.930 . S
H677 C693 0.931 . S
C678 H666 0.929 . S
C678 C672 1.390 . S
C678 C675 1.386 . S
C679 C674 1.490 . S
C679 C681 1.395 . S
C679 C682 1.403 . S
H680 C686 0.930 . S
C681 H667 0.930 . S
C681 C679 1.395 . S
C681 C684 1.403 . S
C682 C679 1.403 . S
C682 C683 1.524 . S
C682 C686 1.400 . S
C683 H668 0.960 . S
C683 H669 0.960 . S
C683 H670 0.960 . S
C683 C682 1.524 . S
C684 C681 1.403 . S
C684 C685 1.392 . S
C684 C688 1.495 . S
C685 C684 1.392 . S
C685 C686 1.385 . S
C685 C687 1.478 . S
C686 H680 0.930 . S
C686 C682 1.400 . S
C686 C685 1.385 . S
C687 C685 1.478 . S
C687 C689 1.381 . S
C687 C693 1.383 . S
C688 C684 1.495 . S
C688 H694 0.959 . S
C688 H695 0.961 . S
C688 H696 0.960 . S
C689 C687 1.381 . S
C689 C690 1.394 . S
C689 H697 0.930 . S
C690 C689 1.394 . S
C690 C691 1.383 . S
C690 H698 0.929 . S
C691 C690 1.383 . S
C691 C692 1.377 . S
C692 H676 0.930 . S
C692 C691 1.377 . S
C692 C693 1.379 . S
C693 H677 0.931 . S
C693 C687 1.383 . S
C693 C692 1.379 . S
H694 C688 0.959 . S
H695 C688 0.961 . S
H696 C688 0.960 . S
H697 C689 0.930 . S
H698 C690 0.929 . S
H699 C707 0.929 1_554 S
H700 C709 0.930 . S
H701 C711 0.930 . S
H702 C714 0.929 . S
H703 C717 0.930 . S
H704 C719 0.960 . S
H705 C719 0.960 . S
H706 C719 0.960 . S
C707 H699 0.929 1_556 S
C707 C708 1.377 . S
C707 C709 1.384 . S
C708 C707 1.377 . S
C708 C714 1.390 . S
C709 H700 0.930 . S
C709 C707 1.384 . S
C709 C710 1.372 . S
C710 C709 1.372 . S
C710 C711 1.400 . S
C710 C715 1.490 . S
C711 H701 0.930 . S
C711 C710 1.400 . S
C711 C714 1.386 . S
H712 C728 0.930 . S
H713 C729 0.931 . S
C714 H702 0.929 . S
C714 C708 1.390 . S
C714 C711 1.386 . S
C715 C710 1.490 . S
C715 C717 1.395 . S
C715 C718 1.403 . S
H716 C722 0.930 . S
C717 H703 0.930 . S
C717 C715 1.395 . S
C717 C720 1.403 . S
C718 C715 1.403 . S
C718 C719 1.524 . S
C718 C722 1.400 . S
C719 H704 0.960 . S
C719 H705 0.960 . S
C719 H706 0.960 . S
C719 C718 1.524 . S
C720 C717 1.403 . S
C720 C721 1.392 . S
C720 C724 1.495 . S
C721 C720 1.392 . S
C721 C722 1.385 . S
C721 C723 1.478 . S
C722 H716 0.930 . S
C722 C718 1.400 . S
C722 C721 1.385 . S
C723 C721 1.478 . S
C723 C725 1.381 . S
C723 C729 1.383 . S
C724 C720 1.495 . S
C724 H730 0.959 . S
C724 H731 0.961 . S
C724 H732 0.960 . S
C725 C723 1.381 . S
C725 C726 1.394 . S
C725 H733 0.930 . S
C726 C725 1.394 . S
C726 C727 1.383 . S
C726 H734 0.929 . S
C727 C726 1.383 . S
C727 C728 1.377 . S
C728 H712 0.930 . S
C728 C727 1.377 . S
C728 C729 1.379 . S
C729 H713 0.931 . S
C729 C723 1.383 . S
C729 C728 1.379 . S
H730 C724 0.959 . S
H731 C724 0.961 . S
H732 C724 0.960 . S
H733 C725 0.930 . S
H734 C726 0.929 . S
H735 C743 0.929 . S
H736 C745 0.930 . S
H737 C747 0.930 . S
H738 C750 0.929 . S
H739 C753 0.930 . S
H740 C755 0.960 . S
H741 C755 0.960 . S
H742 C755 0.960 . S
C743 H735 0.929 . S
C743 C744 1.377 1_556 S
C743 C745 1.384 . S
C744 C743 1.377 1_554 S
C744 C750 1.390 . S
C745 H736 0.930 . S
C745 C743 1.384 . S
C745 C746 1.372 . S
C746 C745 1.372 . S
C746 C747 1.400 1_556 S
C746 C751 1.490 . S
C747 H737 0.930 . S
C747 C746 1.400 1_554 S
C747 C750 1.386 . S
H748 C764 0.930 . S
H749 C765 0.931 . S
C750 H738 0.929 . S
C750 C744 1.390 . S
C750 C747 1.386 . S
C751 C746 1.490 . S
C751 C753 1.395 . S
C751 C754 1.403 . S
H752 C758 0.930 . S
C753 H739 0.930 . S
C753 C751 1.395 . S
C753 C756 1.403 . S
C754 C751 1.403 . S
C754 C755 1.524 . S
C754 C758 1.400 . S
C755 H740 0.960 . S
C755 H741 0.960 . S
C755 H742 0.960 . S
C755 C754 1.524 . S
C756 C753 1.403 . S
C756 C757 1.392 . S
C756 C760 1.495 . S
C757 C756 1.392 . S
C757 C758 1.385 . S
C757 C759 1.478 . S
C758 H752 0.930 . S
C758 C754 1.400 . S
C758 C757 1.385 . S
C759 C757 1.478 . S
C759 C761 1.381 . S
C759 C765 1.383 . S
C760 C756 1.495 . S
C760 H766 0.959 . S
C760 H767 0.961 . S
C760 H768 0.960 . S
C761 C759 1.381 . S
C761 C762 1.394 . S
C761 H769 0.930 . S
C762 C761 1.394 . S
C762 C763 1.383 . S
C762 H770 0.929 . S
C763 C762 1.383 . S
C763 C764 1.377 . S
C764 H748 0.930 . S
C764 C763 1.377 . S
C764 C765 1.379 . S
C765 H749 0.931 . S
C765 C759 1.383 . S
C765 C764 1.379 . S
H766 C760 0.959 . S
H767 C760 0.961 . S
H768 C760 0.960 . S
H769 C761 0.930 . S
H770 C762 0.929 . S
H771 C779 0.929 . S
H772 C781 0.930 . S
H773 C783 0.930 . S
H774 C786 0.935 . S
H775 C789 0.930 . S
H776 C791 0.960 . S
H777 C791 0.960 1_554 S
H778 C791 0.960 . S
C779 H771 0.929 . S
C779 C780 1.377 . S
C779 C781 1.384 1_554 S
C780 C779 1.377 . S
C780 C786 1.400 . S
C781 H772 0.930 . S
C781 C779 1.384 1_556 S
C781 C782 1.372 . S
C782 C781 1.372 . S
C782 C783 1.400 . S
C782 C787 1.490 . S
C783 H773 0.930 . S
C783 C782 1.400 . S
C783 C786 1.370 1_556 S
H784 C800 0.930 . S
H785 C801 0.931 . S
C786 H774 0.935 . S
C786 C780 1.400 . S
C786 C783 1.370 1_554 S
C787 C782 1.490 . S
C787 C789 1.395 . S
C787 C790 1.403 . S
H788 C794 0.930 . S
C789 H775 0.930 . S
C789 C787 1.395 . S
C789 C792 1.403 . S
C790 C787 1.403 . S
C790 C791 1.524 . S
C790 C794 1.400 . S
C791 H776 0.960 . S
C791 H777 0.960 1_556 S
C791 H778 0.960 . S
C791 C790 1.524 . S
C792 C789 1.403 . S
C792 C793 1.392 . S
C792 C796 1.495 . S
C793 C792 1.392 . S
C793 C794 1.385 . S
C793 C795 1.478 . S
C794 H788 0.930 . S
C794 C790 1.400 . S
C794 C793 1.385 . S
C795 C793 1.478 . S
C795 C797 1.381 . S
C795 C801 1.383 . S
C796 C792 1.495 . S
C796 H802 0.959 . S
C796 H803 0.961 . S
C796 H804 0.960 . S
C797 C795 1.381 . S
C797 C798 1.394 . S
C797 H805 0.930 . S
C798 C797 1.394 . S
C798 C799 1.383 . S
C798 H806 0.929 . S
C799 C798 1.383 . S
C799 C800 1.377 . S
C800 H784 0.930 . S
C800 C799 1.377 . S
C800 C801 1.379 . S
C801 H785 0.931 . S
C801 C795 1.383 . S
C801 C800 1.379 . S
H802 C796 0.959 . S
H803 C796 0.961 . S
H804 C796 0.960 . S
H805 C797 0.930 . S
H806 C798 0.929 . S
H807 C815 0.929 . S
H808 C817 0.932 . S
H809 C819 0.930 . S
H810 C822 0.929 . S
H811 C825 0.930 1_554 S
H812 C827 0.960 . S
H813 C827 0.960 . S
H814 C827 0.960 . S
C815 H807 0.929 . S
C815 C816 1.377 . S
C815 C817 1.376 1_554 S
C816 C815 1.377 . S
C816 C822 1.390 . S
C817 H808 0.932 . S
C817 C815 1.376 1_556 S
C817 C818 1.378 . S
C818 C817 1.378 . S
C818 C819 1.400 . S
C818 C823 1.490 . S
C819 H809 0.930 . S
C819 C818 1.400 . S
C819 C822 1.386 1_556 S
H820 C836 0.930 . S
H821 C837 0.931 . S
C822 H810 0.929 . S
C822 C816 1.390 . S
C822 C819 1.386 1_554 S
C823 C818 1.490 . S
C823 C825 1.395 . S
C823 C826 1.403 . S
H824 C830 0.930 . S
C825 H811 0.930 1_556 S
C825 C823 1.395 . S
C825 C828 1.403 . S
C826 C823 1.403 . S
C826 C827 1.524 . S
C826 C830 1.400 . S
C827 H812 0.960 . S
C827 H813 0.960 . S
C827 H814 0.960 . S
C827 C826 1.524 . S
C828 C825 1.403 . S
C828 C829 1.392 . S
C828 C832 1.495 . S
C829 C828 1.392 . S
C829 C830 1.385 . S
C829 C831 1.478 . S
C830 H824 0.930 . S
C830 C826 1.400 . S
C830 C829 1.385 . S
C831 C829 1.478 . S
C831 C833 1.381 . S
C831 C837 1.383 . S
C832 C828 1.495 . S
C832 H838 0.959 1_556 S
C832 H839 0.961 . S
C832 H840 0.960 . S
C833 C831 1.381 . S
C833 C834 1.394 . S
C833 H841 0.930 . S
C834 C833 1.394 . S
C834 C835 1.383 . S
C834 H842 0.929 . S
C835 C834 1.383 . S
C835 C836 1.377 . S
C836 H820 0.930 . S
C836 C835 1.377 . S
C836 C837 1.379 . S
C837 H821 0.931 . S
C837 C831 1.383 . S
C837 C836 1.379 . S
H838 C832 0.959 1_554 S
H839 C832 0.961 . S
H840 C832 0.960 . S
H841 C833 0.930 . S
H842 C834 0.929 . S
H843 C851 0.929 . S
H844 C853 0.930 . S
H845 C855 0.930 . S
H846 C858 0.929 . S
H847 C861 0.930 . S
H848 C863 0.960 . S
H849 C863 0.960 . S
H850 C863 0.960 . S
C851 H843 0.929 . S
C851 C852 1.377 . S
C851 C853 1.384 . S
C852 C851 1.377 . S
C852 C858 1.390 . S
C853 H844 0.930 . S
C853 C851 1.384 . S
C853 C854 1.372 . S
C854 C853 1.372 . S
C854 C855 1.400 . S
C854 C859 1.490 . S
C855 H845 0.930 . S
C855 C854 1.400 . S
C855 C858 1.386 . S
H856 C872 0.930 . S
H857 C873 0.931 . S
C858 H846 0.929 . S
C858 C852 1.390 . S
C858 C855 1.386 . S
C859 C854 1.490 . S
C859 C861 1.395 . S
C859 C862 1.403 . S
H860 C866 0.930 . S
C861 H847 0.930 . S
C861 C859 1.395 . S
C861 C864 1.403 . S
C862 C859 1.403 . S
C862 C863 1.524 . S
C862 C866 1.400 . S
C863 H848 0.960 . S
C863 H849 0.960 . S
C863 H850 0.960 . S
C863 C862 1.524 . S
C864 C861 1.403 . S
C864 C865 1.392 . S
C864 C868 1.495 . S
C865 C864 1.392 . S
C865 C866 1.385 . S
C865 C867 1.478 . S
C866 H860 0.930 . S
C866 C862 1.400 . S
C866 C865 1.385 . S
C867 C865 1.478 . S
C867 C869 1.381 . S
C867 C873 1.383 . S
C868 C864 1.495 . S
C868 H874 0.959 . S
C868 H875 0.961 . S
C868 H876 0.960 . S
C869 C867 1.381 . S
C869 C870 1.394 . S
C869 H877 0.930 . S
C870 C869 1.394 . S
C870 C871 1.383 . S
C870 H878 0.929 . S
C871 C870 1.383 . S
C871 C872 1.377 . S
C872 H856 0.930 . S
C872 C871 1.377 . S
C872 C873 1.379 . S
C873 H857 0.931 . S
C873 C867 1.383 . S
C873 C872 1.379 . S
H874 C868 0.959 . S
H875 C868 0.961 . S
H876 C868 0.960 . S
H877 C869 0.930 . S
H878 C870 0.929 . S
H879 C887 0.929 . S
H880 C889 0.930 . S
H881 C891 0.930 . S
H882 C894 0.929 . S
H883 C897 0.930 . S
H884 C899 0.960 . S
H885 C899 0.960 . S
H886 C899 0.960 . S
C887 H879 0.929 . S
C887 C888 1.377 . S
C887 C889 1.384 . S
C888 C887 1.377 . S
C888 C894 1.390 . S
C889 H880 0.930 . S
C889 C887 1.384 . S
C889 C890 1.372 . S
C890 C889 1.372 . S
C890 C891 1.400 . S
C890 C895 1.490 . S
C891 H881 0.930 . S
C891 C890 1.400 . S
C891 C894 1.386 . S
H892 C908 0.930 . S
H893 C909 0.931 . S
C894 H882 0.929 . S
C894 C888 1.390 . S
C894 C891 1.386 . S
C895 C890 1.490 . S
C895 C897 1.395 . S
C895 C898 1.403 . S
H896 C902 0.930 . S
C897 H883 0.930 . S
C897 C895 1.395 . S
C897 C900 1.403 . S
C898 C895 1.403 . S
C898 C899 1.524 . S
C898 C902 1.400 . S
C899 H884 0.960 . S
C899 H885 0.960 . S
C899 H886 0.960 . S
C899 C898 1.524 . S
C900 C897 1.403 . S
C900 C901 1.392 . S
C900 C904 1.495 . S
C901 C900 1.392 . S
C901 C902 1.385 . S
C901 C903 1.478 . S
C902 H896 0.930 . S
C902 C898 1.400 . S
C902 C901 1.385 . S
C903 C901 1.478 . S
C903 C905 1.381 . S
C903 C909 1.383 . S
C904 C900 1.495 . S
C904 H910 0.959 . S
C904 H911 0.961 . S
C904 H912 0.960 . S
C905 C903 1.381 . S
C905 C906 1.394 . S
C905 H913 0.930 . S
C906 C905 1.394 . S
C906 C907 1.383 . S
C906 H914 0.929 . S
C907 C906 1.383 . S
C907 C908 1.377 . S
C908 H892 0.930 . S
C908 C907 1.377 . S
C908 C909 1.379 . S
C909 H893 0.931 . S
C909 C903 1.383 . S
C909 C908 1.379 . S
H910 C904 0.959 . S
H911 C904 0.961 . S
H912 C904 0.960 . S
H913 C905 0.930 . S
H914 C906 0.929 . S
H915 C923 0.929 . S
H916 C925 0.930 . S
H917 C927 0.930 . S
H918 C930 0.929 . S
H919 C933 0.930 . S
H920 C935 0.960 . S
H921 C935 0.960 . S
H922 C935 0.960 . S
C923 H915 0.929 . S
C923 C924 1.377 . S
C923 C925 1.384 . S
C924 C923 1.377 . S
C924 C930 1.390 . S
C925 H916 0.930 . S
C925 C923 1.384 . S
C925 C926 1.372 . S
C926 C925 1.372 . S
C926 C927 1.400 1_554 S
C926 C931 1.490 1_554 S
C927 H917 0.930 . S
C927 C926 1.400 1_556 S
C927 C930 1.386 1_556 S
H928 C944 0.930 . S
H929 C945 0.931 . S
C930 H918 0.929 . S
C930 C924 1.390 . S
C930 C927 1.386 1_554 S
C931 C926 1.490 1_556 S
C931 C933 1.395 . S
C931 C934 1.403 . S
H932 C938 0.930 . S
C933 H919 0.930 . S
C933 C931 1.395 . S
C933 C936 1.403 . S
C934 C931 1.403 . S
C934 C935 1.524 . S
C934 C938 1.400 . S
C935 H920 0.960 . S
C935 H921 0.960 . S
C935 H922 0.960 . S
C935 C934 1.524 . S
C936 C933 1.403 . S
C936 C937 1.392 . S
C936 C940 1.495 . S
C937 C936 1.392 . S
C937 C938 1.385 . S
C937 C939 1.478 . S
C938 H932 0.930 . S
C938 C934 1.400 . S
C938 C937 1.385 . S
C939 C937 1.478 . S
C939 C941 1.381 . S
C939 C945 1.383 . S
C940 C936 1.495 . S
C940 H946 0.959 . S
C940 H947 0.961 . S
C940 H948 0.960 . S
C941 C939 1.381 . S
C941 C942 1.394 . S
C941 H949 0.930 . S
C942 C941 1.394 . S
C942 C943 1.383 . S
C942 H950 0.929 . S
C943 C942 1.383 . S
C943 C944 1.377 . S
C944 H928 0.930 . S
C944 C943 1.377 . S
C944 C945 1.379 . S
C945 H929 0.931 . S
C945 C939 1.383 . S
C945 C944 1.379 . S
H946 C940 0.959 . S
H947 C940 0.961 . S
H948 C940 0.960 . S
H949 C941 0.930 . S
H950 C942 0.929 . S
H951 C959 0.929 . S
H952 C961 0.930 1_556 S
H953 C963 0.930 . S
H954 C966 0.929 . S
H955 C969 0.934 . S
H956 C971 0.960 . S
H957 C971 0.960 . S
H958 C971 0.960 . S
C959 H951 0.929 . S
C959 C960 1.377 . S
C959 C961 1.384 . S
C960 C959 1.377 . S
C960 C966 1.390 . S
C961 H952 0.930 1_554 S
C961 C959 1.384 . S
C961 C962 1.372 1_554 S
C962 C961 1.372 1_556 S
C962 C963 1.400 1_556 S
C962 C967 1.490 . S
C963 H953 0.930 . S
C963 C962 1.400 1_554 S
C963 C966 1.386 . S
H964 C980 0.930 . S
H965 C981 0.931 . S
C966 H954 0.929 . S
C966 C960 1.390 . S
C966 C963 1.386 . S
C967 C962 1.490 . S
C967 C969 1.395 . S
C967 C970 1.403 . S
H968 C974 0.930 . S
C969 H955 0.934 . S
C969 C967 1.395 . S
C969 C972 1.403 . S
C970 C967 1.403 . S
C970 C971 1.524 . S
C970 C974 1.400 . S
C971 H956 0.960 . S
C971 H957 0.960 . S
C971 H958 0.960 . S
C971 C970 1.524 . S
C972 C969 1.403 . S
C972 C973 1.392 . S
C972 C976 1.495 . S
C973 C972 1.392 . S
C973 C974 1.385 . S
C973 C975 1.478 . S
C974 H968 0.930 . S
C974 C970 1.400 . S
C974 C973 1.385 . S
C975 C973 1.478 . S
C975 C977 1.381 . S
C975 C981 1.383 . S
C976 C972 1.495 . S
C976 H982 0.959 . S
C976 H983 0.961 . S
C976 H984 0.960 . S
C977 C975 1.381 . S
C977 C978 1.394 . S
C977 H985 0.930 . S
C978 C977 1.394 . S
C978 C979 1.383 . S
C978 H986 0.929 . S
C979 C978 1.383 . S
C979 C980 1.377 . S
C980 H964 0.930 . S
C980 C979 1.377 . S
C980 C981 1.379 . S
C981 H965 0.931 . S
C981 C975 1.383 . S
C981 C980 1.379 . S
H982 C976 0.959 . S
H983 C976 0.961 . S
H984 C976 0.960 . S
H985 C977 0.930 . S
H986 C978 0.929 . S
H987 C995 0.929 . S
H988 C997 0.930 . S
H989 C999 0.930 . S
H990 C1002 0.929 1_554 S
H991 C1005 0.930 . S
H992 C1007 0.960 . S
H993 C1007 0.960 . S
H994 C1007 0.960 . S
C995 H987 0.929 . S
C995 C996 1.377 . S
C995 C997 1.384 . S
C996 C995 1.377 . S
C996 C1002 1.390 . S
C997 H988 0.930 . S
C997 C995 1.384 . S
C997 C998 1.372 . S
C998 C997 1.372 . S
C998 C999 1.400 . S
C998 C1003 1.490 . S
C999 H989 0.930 . S
C999 C998 1.400 . S
C999 C1002 1.386 . S
H1000 C1016 0.930 . S
H1001 C1017 0.931 . S
C1002 H990 0.929 1_556 S
C1002 C996 1.390 . S
C1002 C999 1.386 . S
C1003 C998 1.490 . S
C1003 C1005 1.395 . S
C1003 C1006 1.403 . S
H1004 C1010 0.930 . S
C1005 H991 0.930 . S
C1005 C1003 1.395 . S
C1005 C1008 1.403 . S
C1006 C1003 1.403 . S
C1006 C1007 1.524 . S
C1006 C1010 1.400 . S
C1007 H992 0.960 . S
C1007 H993 0.960 . S
C1007 H994 0.960 . S
C1007 C1006 1.524 . S
C1008 C1005 1.403 . S
C1008 C1009 1.392 . S
C1008 C1012 1.495 . S
C1009 C1008 1.392 . S
C1009 C1010 1.385 . S
C1009 C1011 1.478 . S
C1010 H1004 0.930 . S
C1010 C1006 1.400 . S
C1010 C1009 1.385 . S
C1011 C1009 1.478 . S
C1011 C1013 1.381 . S
C1011 C1017 1.383 . S
C1012 C1008 1.495 . S
C1012 H1018 0.959 . S
C1012 H1019 0.961 . S
C1012 H1020 0.960 . S
C1013 C1011 1.381 . S
C1013 C1014 1.394 . S
C1013 H1021 0.930 . S
C1014 C1013 1.394 . S
C1014 C1015 1.383 . S
C1014 H1022 0.929 . S
C1015 C1014 1.383 . S
C1015 C1016 1.377 . S
C1016 H1000 0.930 . S
C1016 C1015 1.377 . S
C1016 C1017 1.379 . S
C1017 H1001 0.931 . S
C1017 C1011 1.383 . S
C1017 C1016 1.379 . S
H1018 C1012 0.959 . S
H1019 C1012 0.961 . S
H1020 C1012 0.960 . S
H1021 C1013 0.930 . S
H1022 C1014 0.929 . S
H1023 C1031 0.929 . S
H1024 C1033 0.930 . S
H1025 C1035 0.930 . S
H1026 C1038 0.929 . S
H1027 C1041 0.930 . S
H1028 C1043 0.960 . S
H1029 C1043 0.960 . S
H1030 C1043 0.960 . S
C1031 H1023 0.929 . S
C1031 C1032 1.377 . S
C1031 C1033 1.384 . S
C1032 C1031 1.377 . S
C1032 C1038 1.390 . S
C1033 H1024 0.930 . S
C1033 C1031 1.384 . S
C1033 C1034 1.372 . S
C1034 C1033 1.372 . S
C1034 C1035 1.400 . S
C1034 C1039 1.490 . S
C1035 H1025 0.930 . S
C1035 C1034 1.400 . S
C1035 C1038 1.386 . S
H1036 C1052 0.930 . S
H1037 C1053 0.931 . S
C1038 H1026 0.929 . S
C1038 C1032 1.390 . S
C1038 C1035 1.386 . S
C1039 C1034 1.490 . S
C1039 C1041 1.395 . S
C1039 C1042 1.403 . S
H1040 C1046 0.930 . S
C1041 H1027 0.930 . S
C1041 C1039 1.395 . S
C1041 C1044 1.403 . S
C1042 C1039 1.403 . S
C1042 C1043 1.524 . S
C1042 C1046 1.400 . S
C1043 H1028 0.960 . S
C1043 H1029 0.960 . S
C1043 H1030 0.960 . S
C1043 C1042 1.524 . S
C1044 C1041 1.403 . S
C1044 C1045 1.392 . S
C1044 C1048 1.495 . S
C1045 C1044 1.392 . S
C1045 C1046 1.385 . S
C1045 C1047 1.478 . S
C1046 H1040 0.930 . S
C1046 C1042 1.400 . S
C1046 C1045 1.385 . S
C1047 C1045 1.478 . S
C1047 C1049 1.381 . S
C1047 C1053 1.383 . S
C1048 C1044 1.495 . S
C1048 H1054 0.959 . S
C1048 H1055 0.961 . S
C1048 H1056 0.960 . S
C1049 C1047 1.381 . S
C1049 C1050 1.394 . S
C1049 H1057 0.930 . S
C1050 C1049 1.394 . S
C1050 C1051 1.383 . S
C1050 H1058 0.929 . S
C1051 C1050 1.383 . S
C1051 C1052 1.377 . S
C1052 H1036 0.930 . S
C1052 C1051 1.377 . S
C1052 C1053 1.379 . S
C1053 H1037 0.931 . S
C1053 C1047 1.383 . S
C1053 C1052 1.379 . S
H1054 C1048 0.959 . S
H1055 C1048 0.961 . S
H1056 C1048 0.960 . S
H1057 C1049 0.930 . S
H1058 C1050 0.929 . S
H1059 C1067 0.929 . S
H1060 C1069 0.930 . S
H1061 C1071 0.930 . S
H1062 C1074 0.929 . S
H1063 C1077 0.930 . S
H1064 C1079 0.960 . S
H1065 C1079 0.960 . S
H1066 C1079 0.960 . S
C1067 H1059 0.929 . S
C1067 C1068 1.377 . S
C1067 C1069 1.384 . S
C1068 C1067 1.377 . S
C1068 C1074 1.390 . S
C1069 H1060 0.930 . S
C1069 C1067 1.384 . S
C1069 C1070 1.372 . S
C1070 C1069 1.372 . S
C1070 C1071 1.400 . S
C1070 C1075 1.490 . S
C1071 H1061 0.930 . S
C1071 C1070 1.400 . S
C1071 C1074 1.386 . S
H1072 C1088 0.930 . S
H1073 C1089 0.931 . S
C1074 H1062 0.929 . S
C1074 C1068 1.390 . S
C1074 C1071 1.386 . S
C1075 C1070 1.490 . S
C1075 C1077 1.395 . S
C1075 C1078 1.403 . S
H1076 C1082 0.930 . S
C1077 H1063 0.930 . S
C1077 C1075 1.395 . S
C1077 C1080 1.403 . S
C1078 C1075 1.403 . S
C1078 C1079 1.524 . S
C1078 C1082 1.400 . S
C1079 H1064 0.960 . S
C1079 H1065 0.960 . S
C1079 H1066 0.960 . S
C1079 C1078 1.524 . S
C1080 C1077 1.403 . S
C1080 C1081 1.392 . S
C1080 C1084 1.495 . S
C1081 C1080 1.392 . S
C1081 C1082 1.385 . S
C1081 C1083 1.478 . S
C1082 H1076 0.930 . S
C1082 C1078 1.400 . S
C1082 C1081 1.385 . S
C1083 C1081 1.478 . S
C1083 C1085 1.381 . S
C1083 C1089 1.383 . S
C1084 C1080 1.495 . S
C1084 H1090 0.959 . S
C1084 H1091 0.961 . S
C1084 H1092 0.960 . S
C1085 C1083 1.381 . S
C1085 C1086 1.394 . S
C1085 H1093 0.930 . S
C1086 C1085 1.394 . S
C1086 C1087 1.383 . S
C1086 H1094 0.929 . S
C1087 C1086 1.383 . S
C1087 C1088 1.377 . S
C1088 H1072 0.930 . S
C1088 C1087 1.377 . S
C1088 C1089 1.379 . S
C1089 H1073 0.931 . S
C1089 C1083 1.383 . S
C1089 C1088 1.379 . S
H1090 C1084 0.959 . S
H1091 C1084 0.961 . S
H1092 C1084 0.960 . S
H1093 C1085 0.930 . S
H1094 C1086 0.929 . S
H1095 C1103 0.929 . S
H1096 C1105 0.930 . S
H1097 C1107 0.930 . S
H1098 C1110 0.929 . S
H1099 C1113 0.930 . S
H1100 C1115 0.960 . S
H1101 C1115 0.960 . S
H1102 C1115 0.960 . S
C1103 H1095 0.929 . S
C1103 C1104 1.377 . S
C1103 C1105 1.384 . S
C1104 C1103 1.377 . S
C1104 C1110 1.390 . S
C1105 H1096 0.930 . S
C1105 C1103 1.384 . S
C1105 C1106 1.372 . S
C1106 C1105 1.372 . S
C1106 C1107 1.400 . S
C1106 C1111 1.490 . S
C1107 H1097 0.930 . S
C1107 C1106 1.400 . S
C1107 C1110 1.386 . S
H1108 C1124 0.930 . S
H1109 C1125 0.931 . S
C1110 H1098 0.929 . S
C1110 C1104 1.390 . S
C1110 C1107 1.386 . S
C1111 C1106 1.490 . S
C1111 C1113 1.395 . S
C1111 C1114 1.403 . S
H1112 C1118 0.930 . S
C1113 H1099 0.930 . S
C1113 C1111 1.395 . S
C1113 C1116 1.403 . S
C1114 C1111 1.403 . S
C1114 C1115 1.524 . S
C1114 C1118 1.400 . S
C1115 H1100 0.960 . S
C1115 H1101 0.960 . S
C1115 H1102 0.960 . S
C1115 C1114 1.524 . S
C1116 C1113 1.403 . S
C1116 C1117 1.392 . S
C1116 C1120 1.495 . S
C1117 C1116 1.392 . S
C1117 C1118 1.385 . S
C1117 C1119 1.478 . S
C1118 H1112 0.930 . S
C1118 C1114 1.400 . S
C1118 C1117 1.385 . S
C1119 C1117 1.478 . S
C1119 C1121 1.381 . S
C1119 C1125 1.383 . S
C1120 C1116 1.495 . S
C1120 H1126 0.959 . S
C1120 H1127 0.961 . S
C1120 H1128 0.960 . S
C1121 C1119 1.381 . S
C1121 C1122 1.394 . S
C1121 H1129 0.930 . S
C1122 C1121 1.394 . S
C1122 C1123 1.383 . S
C1122 H1130 0.929 . S
C1123 C1122 1.383 . S
C1123 C1124 1.377 . S
C1124 H1108 0.930 . S
C1124 C1123 1.377 . S
C1124 C1125 1.379 . S
C1125 H1109 0.931 . S
C1125 C1119 1.383 . S
C1125 C1124 1.379 . S
H1126 C1120 0.959 . S
H1127 C1120 0.961 . S
H1128 C1120 0.960 . S
H1129 C1121 0.930 . S
H1130 C1122 0.929 . S
H1131 C1139 0.929 . S
H1132 C1141 0.930 . S
H1133 C1143 0.930 . S
H1134 C1146 0.929 . S
H1135 C1149 0.930 . S
H1136 C1151 0.960 . S
H1137 C1151 0.960 . S
H1138 C1151 0.960 . S
C1139 H1131 0.929 . S
C1139 C1140 1.377 . S
C1139 C1141 1.384 . S
C1140 C1139 1.377 . S
C1140 C1146 1.390 . S
C1141 H1132 0.930 . S
C1141 C1139 1.384 . S
C1141 C1142 1.372 . S
C1142 C1141 1.372 . S
C1142 C1143 1.400 . S
C1142 C1147 1.490 . S
C1143 H1133 0.930 . S
C1143 C1142 1.400 . S
C1143 C1146 1.386 . S
H1144 C1160 0.930 . S
H1145 C1161 0.931 . S
C1146 H1134 0.929 . S
C1146 C1140 1.390 . S
C1146 C1143 1.386 . S
C1147 C1142 1.490 . S
C1147 C1149 1.395 . S
C1147 C1150 1.403 . S
H1148 C1154 0.930 . S
C1149 H1135 0.930 . S
C1149 C1147 1.395 . S
C1149 C1152 1.403 . S
C1150 C1147 1.403 . S
C1150 C1151 1.524 . S
C1150 C1154 1.400 . S
C1151 H1136 0.960 . S
C1151 H1137 0.960 . S
C1151 H1138 0.960 . S
C1151 C1150 1.524 . S
C1152 C1149 1.403 . S
C1152 C1153 1.392 . S
C1152 C1156 1.495 . S
C1153 C1152 1.392 . S
C1153 C1154 1.385 . S
C1153 C1155 1.478 . S
C1154 H1148 0.930 . S
C1154 C1150 1.400 . S
C1154 C1153 1.385 . S
C1155 C1153 1.478 . S
C1155 C1157 1.381 . S
C1155 C1161 1.383 . S
C1156 C1152 1.495 . S
C1156 H1162 0.959 . S
C1156 H1163 0.961 . S
C1156 H1164 0.960 . S
C1157 C1155 1.381 . S
C1157 C1158 1.394 . S
C1157 H1165 0.930 . S
C1158 C1157 1.394 . S
C1158 C1159 1.383 . S
C1158 H1166 0.929 . S
C1159 C1158 1.383 . S
C1159 C1160 1.377 . S
C1160 H1144 0.930 . S
C1160 C1159 1.377 . S
C1160 C1161 1.379 . S
C1161 H1145 0.931 . S
C1161 C1155 1.383 . S
C1161 C1160 1.379 . S
H1162 C1156 0.959 . S
H1163 C1156 0.961 . S
H1164 C1156 0.960 . S
H1165 C1157 0.930 . S
H1166 C1158 0.929 . S
H1167 C1175 0.929 . S
H1168 C1177 0.930 . S
H1169 C1179 0.930 . S
H1170 C1182 0.929 . S
H1171 C1185 0.930 . S
H1172 C1187 0.960 . S
H1173 C1187 0.960 . S
H1174 C1187 0.960 . S
C1175 H1167 0.929 . S
C1175 C1176 1.377 . S
C1175 C1177 1.384 . S
C1176 C1175 1.377 . S
C1176 C1182 1.390 . S
C1177 H1168 0.930 . S
C1177 C1175 1.384 . S
C1177 C1178 1.372 . S
C1178 C1177 1.372 . S
C1178 C1179 1.400 . S
C1178 C1183 1.490 . S
C1179 H1169 0.930 . S
C1179 C1178 1.400 . S
C1179 C1182 1.386 . S
H1180 C1196 0.930 . S
H1181 C1197 0.931 . S
C1182 H1170 0.929 . S
C1182 C1176 1.390 . S
C1182 C1179 1.386 . S
C1183 C1178 1.490 . S
C1183 C1185 1.395 . S
C1183 C1186 1.403 . S
H1184 C1190 0.930 . S
C1185 H1171 0.930 . S
C1185 C1183 1.395 . S
C1185 C1188 1.403 . S
C1186 C1183 1.403 . S
C1186 C1187 1.524 . S
C1186 C1190 1.400 . S
C1187 H1172 0.960 . S
C1187 H1173 0.960 . S
C1187 H1174 0.960 . S
C1187 C1186 1.524 . S
C1188 C1185 1.403 . S
C1188 C1189 1.392 . S
C1188 C1192 1.495 . S
C1189 C1188 1.392 . S
C1189 C1190 1.385 . S
C1189 C1191 1.478 . S
C1190 H1184 0.930 . S
C1190 C1186 1.400 . S
C1190 C1189 1.385 . S
C1191 C1189 1.478 . S
C1191 C1193 1.381 . S
C1191 C1197 1.383 . S
C1192 C1188 1.495 . S
C1192 H1198 0.959 . S
C1192 H1199 0.961 . S
C1192 H1200 0.960 . S
C1193 C1191 1.381 . S
C1193 C1194 1.394 . S
C1193 H1201 0.930 . S
C1194 C1193 1.394 . S
C1194 C1195 1.383 . S
C1194 H1202 0.929 . S
C1195 C1194 1.383 . S
C1195 C1196 1.377 . S
C1196 H1180 0.930 . S
C1196 C1195 1.377 . S
C1196 C1197 1.379 . S
C1197 H1181 0.931 . S
C1197 C1191 1.383 . S
C1197 C1196 1.379 . S
H1198 C1192 0.959 . S
H1199 C1192 0.961 . S
H1200 C1192 0.960 . S
H1201 C1193 0.930 . S
H1202 C1194 0.929 . S
H1203 C1211 0.929 . S
H1204 C1213 0.930 . S
H1205 C1215 0.930 . S
H1206 C1218 0.929 . S
H1207 C1221 0.930 . S
H1208 C1223 0.960 . S
H1209 C1223 0.960 . S
H1210 C1223 0.960 . S
C1211 H1203 0.929 . S
C1211 C1212 1.377 . S
C1211 C1213 1.384 . S
C1212 C1211 1.377 . S
C1212 C1218 1.390 . S
C1213 H1204 0.930 . S
C1213 C1211 1.384 . S
C1213 C1214 1.372 . S
C1214 C1213 1.372 . S
C1214 C1215 1.400 . S
C1214 C1219 1.490 . S
C1215 H1205 0.930 . S
C1215 C1214 1.400 . S
C1215 C1218 1.386 . S
H1216 C1232 0.930 . S
H1217 C1233 0.931 . S
C1218 H1206 0.929 . S
C1218 C1212 1.390 . S
C1218 C1215 1.386 . S
C1219 C1214 1.490 . S
C1219 C1221 1.395 . S
C1219 C1222 1.403 . S
H1220 C1226 0.930 . S
C1221 H1207 0.930 . S
C1221 C1219 1.395 . S
C1221 C1224 1.403 . S
C1222 C1219 1.403 . S
C1222 C1223 1.524 . S
C1222 C1226 1.400 . S
C1223 H1208 0.960 . S
C1223 H1209 0.960 . S
C1223 H1210 0.960 . S
C1223 C1222 1.524 . S
C1224 C1221 1.403 . S
C1224 C1225 1.392 . S
C1224 C1228 1.495 . S
C1225 C1224 1.392 . S
C1225 C1226 1.385 . S
C1225 C1227 1.478 . S
C1226 H1220 0.930 . S
C1226 C1222 1.400 . S
C1226 C1225 1.385 . S
C1227 C1225 1.478 . S
C1227 C1229 1.381 . S
C1227 C1233 1.383 . S
C1228 C1224 1.495 . S
C1228 H1234 0.959 . S
C1228 H1235 0.961 . S
C1228 H1236 0.960 . S
C1229 C1227 1.381 . S
C1229 C1230 1.394 . S
C1229 H1237 0.930 . S
C1230 C1229 1.394 . S
C1230 C1231 1.383 . S
C1230 H1238 0.929 . S
C1231 C1230 1.383 . S
C1231 C1232 1.377 . S
C1232 H1216 0.930 . S
C1232 C1231 1.377 . S
C1232 C1233 1.379 . S
C1233 H1217 0.931 . S
C1233 C1227 1.383 . S
C1233 C1232 1.379 . S
H1234 C1228 0.959 . S
H1235 C1228 0.961 . S
H1236 C1228 0.960 . S
H1237 C1229 0.930 . S
H1238 C1230 0.929 . S
H1239 C1247 0.929 . S
H1240 C1249 0.930 . S
H1241 C1251 0.930 . S
H1242 C1254 0.929 . S
H1243 C1257 0.930 . S
H1244 C1259 0.960 . S
H1245 C1259 0.960 . S
H1246 C1259 0.960 . S
C1247 H1239 0.929 . S
C1247 C1248 1.377 . S
C1247 C1249 1.384 . S
C1248 C1247 1.377 . S
C1248 C1254 1.390 . S
C1249 H1240 0.930 . S
C1249 C1247 1.384 . S
C1249 C1250 1.372 . S
C1250 C1249 1.372 . S
C1250 C1251 1.400 . S
C1250 C1255 1.490 . S
C1251 H1241 0.930 . S
C1251 C1250 1.400 . S
C1251 C1254 1.386 . S
H1252 C1268 0.930 . S
H1253 C1269 0.931 . S
C1254 H1242 0.929 . S
C1254 C1248 1.390 . S
C1254 C1251 1.386 . S
C1255 C1250 1.490 . S
C1255 C1257 1.395 . S
C1255 C1258 1.403 . S
H1256 C1262 0.930 . S
C1257 H1243 0.930 . S
C1257 C1255 1.395 . S
C1257 C1260 1.403 . S
C1258 C1255 1.403 . S
C1258 C1259 1.524 . S
C1258 C1262 1.400 . S
C1259 H1244 0.960 . S
C1259 H1245 0.960 . S
C1259 H1246 0.960 . S
C1259 C1258 1.524 . S
C1260 C1257 1.403 . S
C1260 C1261 1.392 . S
C1260 C1264 1.495 . S
C1261 C1260 1.392 . S
C1261 C1262 1.385 . S
C1261 C1263 1.478 . S
C1262 H1256 0.930 . S
C1262 C1258 1.400 . S
C1262 C1261 1.385 . S
C1263 C1261 1.478 . S
C1263 C1265 1.381 . S
C1263 C1269 1.383 . S
C1264 C1260 1.495 . S
C1264 H1270 0.959 . S
C1264 H1271 0.961 . S
C1264 H1272 0.960 . S
C1265 C1263 1.381 . S
C1265 C1266 1.394 . S
C1265 H1273 0.930 . S
C1266 C1265 1.394 . S
C1266 C1267 1.383 . S
C1266 H1274 0.929 . S
C1267 C1266 1.383 . S
C1267 C1268 1.377 . S
C1268 H1252 0.930 . S
C1268 C1267 1.377 . S
C1268 C1269 1.379 . S
C1269 H1253 0.931 . S
C1269 C1263 1.383 . S
C1269 C1268 1.379 . S
H1270 C1264 0.959 . S
H1271 C1264 0.961 . S
H1272 C1264 0.960 . S
H1273 C1265 0.930 . S
H1274 C1266 0.929 . S
C420 C22 1.871 . S
C439 C329 1.778 . S
C456 C92 1.884 . S
C475 C376 1.831 . S
C511 C380 2.001 . S
C492 C144 2.082 . S
C547 C345 1.716 . S
C528 C197 1.742 . S
C564 C250 1.994 . S
C583 C360 1.930 . S
C619 C382 0.935 . S
C600 C287 0.983 . S
C655 C351 1.509 . S
C636 C145 1.540 . S
C672 C198 1.512 . S
C691 C391 1.485 . S
C727 C320 1.431 . S
C708 C251 1.489 1_556 S
C744 C294 1.515 . S
C763 C349 1.492 . S
C780 C29 2.024 . S
C799 C407 1.973 . S
C835 C318 1.777 . S
C816 C91 1.817 . S
C871 C336 1.649 . S
C852 C188 1.686 . S
C907 C350 1.363 . S
C888 C241 1.424 . S
C943 C404 1.869 . S
C924 C304 1.914 . S
C979 C319 1.506 . S
C960 C39 1.561 . S
C1015 C367 1.490 . S
C996 C75 1.542 1_556 S
C1032 C135 0.789 . S
C1051 C390 0.751 . S
C1087 C359 1.258 . S
C1068 C303 1.339 . S
C1123 C398 1.248 . S
C1104 C38 1.321 . S
C1159 C328 1.078 . S
C1140 C82 1.077 . S
C1195 C373 1.284 . S
C1176 C128 1.343 . S
C1212 C181 1.848 . S
C1231 C381 1.788 . S
C1248 C234 1.366 . S
C1267 C342 1.330 . S
