# Generated by pormake.
# Topology gar, (4,6)-cn, num edge types: 1
# Building blocks:
#     Node 0, Type 0, BuildingBlock: QUQFOY_clean_sbu_1, # of connection points: 4
#     Node 1, Type 0, BuildingBlock: QUQFOY_clean_sbu_1, # of connection points: 4
#     Node 2, Type 0, BuildingBlock: QUQFOY_clean_sbu_1, # of connection points: 4
#     Node 3, Type 0, BuildingBlock: QUQFOY_clean_sbu_1, # of connection points: 4
#     Node 4, Type 0, BuildingBlock: QUQFOY_clean_sbu_1, # of connection points: 4
#     Node 5, Type 0, BuildingBlock: QUQFOY_clean_sbu_1, # of connection points: 4
#     Node 6, Type 0, BuildingBlock: QUQFOY_clean_sbu_1, # of connection points: 4
#     Node 7, Type 0, BuildingBlock: QUQFOY_clean_sbu_1, # of connection points: 4
#     Node 8, Type 0, BuildingBlock: QUQFOY_clean_sbu_1, # of connection points: 4
#     Node 9, Type 0, BuildingBlock: QUQFOY_clean_sbu_1, # of connection points: 4
#     Node 10, Type 0, BuildingBlock: QUQFOY_clean_sbu_1, # of connection points: 4
#     Node 11, Type 0, BuildingBlock: QUQFOY_clean_sbu_1, # of connection points: 4
#     Node 12, Type 0, BuildingBlock: QUQFOY_clean_sbu_1, # of connection points: 4
#     Node 13, Type 0, BuildingBlock: QUQFOY_clean_sbu_1, # of connection points: 4
#     Node 14, Type 0, BuildingBlock: QUQFOY_clean_sbu_1, # of connection points: 4
#     Node 15, Type 0, BuildingBlock: QUQFOY_clean_sbu_1, # of connection points: 4
#     Node 16, Type 0, BuildingBlock: QUQFOY_clean_sbu_1, # of connection points: 4
#     Node 17, Type 0, BuildingBlock: QUQFOY_clean_sbu_1, # of connection points: 4
#     Node 18, Type 0, BuildingBlock: QUQFOY_clean_sbu_1, # of connection points: 4
#     Node 19, Type 0, BuildingBlock: QUQFOY_clean_sbu_1, # of connection points: 4
#     Node 20, Type 0, BuildingBlock: QUQFOY_clean_sbu_1, # of connection points: 4
#     Node 21, Type 0, BuildingBlock: QUQFOY_clean_sbu_1, # of connection points: 4
#     Node 22, Type 0, BuildingBlock: QUQFOY_clean_sbu_1, # of connection points: 4
#     Node 23, Type 0, BuildingBlock: QUQFOY_clean_sbu_1, # of connection points: 4
#     Node 24, Type 1, BuildingBlock: KUMBOL_clean_sbu_0, # of connection points: 6
#     Node 25, Type 1, BuildingBlock: KUMBOL_clean_sbu_0, # of connection points: 6
#     Node 26, Type 1, BuildingBlock: KUMBOL_clean_sbu_0, # of connection points: 6
#     Node 27, Type 1, BuildingBlock: KUMBOL_clean_sbu_0, # of connection points: 6
#     Node 28, Type 1, BuildingBlock: KUMBOL_clean_sbu_0, # of connection points: 6
#     Node 29, Type 1, BuildingBlock: KUMBOL_clean_sbu_0, # of connection points: 6
#     Node 30, Type 1, BuildingBlock: KUMBOL_clean_sbu_0, # of connection points: 6
#     Node 31, Type 1, BuildingBlock: KUMBOL_clean_sbu_0, # of connection points: 6
#     Node 32, Type 1, BuildingBlock: KUMBOL_clean_sbu_0, # of connection points: 6
#     Node 33, Type 1, BuildingBlock: KUMBOL_clean_sbu_0, # of connection points: 6
#     Node 34, Type 1, BuildingBlock: KUMBOL_clean_sbu_0, # of connection points: 6
#     Node 35, Type 1, BuildingBlock: KUMBOL_clean_sbu_0, # of connection points: 6
#     Node 36, Type 1, BuildingBlock: KUMBOL_clean_sbu_0, # of connection points: 6
#     Node 37, Type 1, BuildingBlock: KUMBOL_clean_sbu_0, # of connection points: 6
#     Node 38, Type 1, BuildingBlock: KUMBOL_clean_sbu_0, # of connection points: 6
#     Node 39, Type 1, BuildingBlock: KUMBOL_clean_sbu_0, # of connection points: 6
#     Edge 40, Type (0, 1), BuildingBlock: UVAHIK_clean_linker_0, # of connection points: 2
#     Edge 41, Type (0, 1), BuildingBlock: UVAHIK_clean_linker_0, # of connection points: 2
#     Edge 42, Type (0, 1), BuildingBlock: UVAHIK_clean_linker_0, # of connection points: 2
#     Edge 43, Type (0, 1), BuildingBlock: UVAHIK_clean_linker_0, # of connection points: 2
#     Edge 44, Type (0, 1), BuildingBlock: UVAHIK_clean_linker_0, # of connection points: 2
#     Edge 45, Type (0, 1), BuildingBlock: UVAHIK_clean_linker_0, # of connection points: 2
#     Edge 46, Type (0, 1), BuildingBlock: UVAHIK_clean_linker_0, # of connection points: 2
#     Edge 47, Type (0, 1), BuildingBlock: UVAHIK_clean_linker_0, # of connection points: 2
#     Edge 48, Type (0, 1), BuildingBlock: UVAHIK_clean_linker_0, # of connection points: 2
#     Edge 49, Type (0, 1), BuildingBlock: UVAHIK_clean_linker_0, # of connection points: 2
#     Edge 50, Type (0, 1), BuildingBlock: UVAHIK_clean_linker_0, # of connection points: 2
#     Edge 51, Type (0, 1), BuildingBlock: UVAHIK_clean_linker_0, # of connection points: 2
#     Edge 52, Type (0, 1), BuildingBlock: UVAHIK_clean_linker_0, # of connection points: 2
#     Edge 53, Type (0, 1), BuildingBlock: UVAHIK_clean_linker_0, # of connection points: 2
#     Edge 54, Type (0, 1), BuildingBlock: UVAHIK_clean_linker_0, # of connection points: 2
#     Edge 55, Type (0, 1), BuildingBlock: UVAHIK_clean_linker_0, # of connection points: 2
#     Edge 56, Type (0, 1), BuildingBlock: UVAHIK_clean_linker_0, # of connection points: 2
#     Edge 57, Type (0, 1), BuildingBlock: UVAHIK_clean_linker_0, # of connection points: 2
#     Edge 58, Type (0, 1), BuildingBlock: UVAHIK_clean_linker_0, # of connection points: 2
#     Edge 59, Type (0, 1), BuildingBlock: UVAHIK_clean_linker_0, # of connection points: 2
#     Edge 60, Type (0, 1), BuildingBlock: UVAHIK_clean_linker_0, # of connection points: 2
#     Edge 61, Type (0, 1), BuildingBlock: UVAHIK_clean_linker_0, # of connection points: 2
#     Edge 62, Type (0, 1), BuildingBlock: UVAHIK_clean_linker_0, # of connection points: 2
#     Edge 63, Type (0, 1), BuildingBlock: UVAHIK_clean_linker_0, # of connection points: 2
#     Edge 64, Type (0, 1), BuildingBlock: UVAHIK_clean_linker_0, # of connection points: 2
#     Edge 65, Type (0, 1), BuildingBlock: UVAHIK_clean_linker_0, # of connection points: 2
#     Edge 66, Type (0, 1), BuildingBlock: UVAHIK_clean_linker_0, # of connection points: 2
#     Edge 67, Type (0, 1), BuildingBlock: UVAHIK_clean_linker_0, # of connection points: 2
#     Edge 68, Type (0, 1), BuildingBlock: UVAHIK_clean_linker_0, # of connection points: 2
#     Edge 69, Type (0, 1), BuildingBlock: UVAHIK_clean_linker_0, # of connection points: 2
#     Edge 70, Type (0, 1), BuildingBlock: UVAHIK_clean_linker_0, # of connection points: 2
#     Edge 71, Type (0, 1), BuildingBlock: UVAHIK_clean_linker_0, # of connection points: 2
#     Edge 72, Type (0, 1), BuildingBlock: UVAHIK_clean_linker_0, # of connection points: 2
#     Edge 73, Type (0, 1), BuildingBlock: UVAHIK_clean_linker_0, # of connection points: 2
#     Edge 74, Type (0, 1), BuildingBlock: UVAHIK_clean_linker_0, # of connection points: 2
#     Edge 75, Type (0, 1), BuildingBlock: UVAHIK_clean_linker_0, # of connection points: 2
#     Edge 76, Type (0, 1), BuildingBlock: UVAHIK_clean_linker_0, # of connection points: 2
#     Edge 77, Type (0, 1), BuildingBlock: UVAHIK_clean_linker_0, # of connection points: 2
#     Edge 78, Type (0, 1), BuildingBlock: UVAHIK_clean_linker_0, # of connection points: 2
#     Edge 79, Type (0, 1), BuildingBlock: UVAHIK_clean_linker_0, # of connection points: 2
#     Edge 80, Type (0, 1), BuildingBlock: UVAHIK_clean_linker_0, # of connection points: 2
#     Edge 81, Type (0, 1), BuildingBlock: UVAHIK_clean_linker_0, # of connection points: 2
#     Edge 82, Type (0, 1), BuildingBlock: UVAHIK_clean_linker_0, # of connection points: 2
#     Edge 83, Type (0, 1), BuildingBlock: UVAHIK_clean_linker_0, # of connection points: 2
#     Edge 84, Type (0, 1), BuildingBlock: UVAHIK_clean_linker_0, # of connection points: 2
#     Edge 85, Type (0, 1), BuildingBlock: UVAHIK_clean_linker_0, # of connection points: 2
#     Edge 86, Type (0, 1), BuildingBlock: UVAHIK_clean_linker_0, # of connection points: 2
#     Edge 87, Type (0, 1), BuildingBlock: UVAHIK_clean_linker_0, # of connection points: 2
#     Edge 88, Type (0, 1), BuildingBlock: UVAHIK_clean_linker_0, # of connection points: 2
#     Edge 89, Type (0, 1), BuildingBlock: UVAHIK_clean_linker_0, # of connection points: 2
#     Edge 90, Type (0, 1), BuildingBlock: UVAHIK_clean_linker_0, # of connection points: 2
#     Edge 91, Type (0, 1), BuildingBlock: UVAHIK_clean_linker_0, # of connection points: 2
#     Edge 92, Type (0, 1), BuildingBlock: UVAHIK_clean_linker_0, # of connection points: 2
#     Edge 93, Type (0, 1), BuildingBlock: UVAHIK_clean_linker_0, # of connection points: 2
#     Edge 94, Type (0, 1), BuildingBlock: UVAHIK_clean_linker_0, # of connection points: 2
#     Edge 95, Type (0, 1), BuildingBlock: UVAHIK_clean_linker_0, # of connection points: 2
#     Edge 96, Type (0, 1), BuildingBlock: UVAHIK_clean_linker_0, # of connection points: 2
#     Edge 97, Type (0, 1), BuildingBlock: UVAHIK_clean_linker_0, # of connection points: 2
#     Edge 98, Type (0, 1), BuildingBlock: UVAHIK_clean_linker_0, # of connection points: 2
#     Edge 99, Type (0, 1), BuildingBlock: UVAHIK_clean_linker_0, # of connection points: 2
#     Edge 100, Type (0, 1), BuildingBlock: UVAHIK_clean_linker_0, # of connection points: 2
#     Edge 101, Type (0, 1), BuildingBlock: UVAHIK_clean_linker_0, # of connection points: 2
#     Edge 102, Type (0, 1), BuildingBlock: UVAHIK_clean_linker_0, # of connection points: 2
#     Edge 103, Type (0, 1), BuildingBlock: UVAHIK_clean_linker_0, # of connection points: 2
#     Edge 104, Type (0, 1), BuildingBlock: UVAHIK_clean_linker_0, # of connection points: 2
#     Edge 105, Type (0, 1), BuildingBlock: UVAHIK_clean_linker_0, # of connection points: 2
#     Edge 106, Type (0, 1), BuildingBlock: UVAHIK_clean_linker_0, # of connection points: 2
#     Edge 107, Type (0, 1), BuildingBlock: UVAHIK_clean_linker_0, # of connection points: 2
#     Edge 108, Type (0, 1), BuildingBlock: UVAHIK_clean_linker_0, # of connection points: 2
#     Edge 109, Type (0, 1), BuildingBlock: UVAHIK_clean_linker_0, # of connection points: 2
#     Edge 110, Type (0, 1), BuildingBlock: UVAHIK_clean_linker_0, # of connection points: 2
#     Edge 111, Type (0, 1), BuildingBlock: UVAHIK_clean_linker_0, # of connection points: 2
#     Edge 112, Type (0, 1), BuildingBlock: UVAHIK_clean_linker_0, # of connection points: 2
#     Edge 113, Type (0, 1), BuildingBlock: UVAHIK_clean_linker_0, # of connection points: 2
#     Edge 114, Type (0, 1), BuildingBlock: UVAHIK_clean_linker_0, # of connection points: 2
#     Edge 115, Type (0, 1), BuildingBlock: UVAHIK_clean_linker_0, # of connection points: 2
#     Edge 116, Type (0, 1), BuildingBlock: UVAHIK_clean_linker_0, # of connection points: 2
#     Edge 117, Type (0, 1), BuildingBlock: UVAHIK_clean_linker_0, # of connection points: 2
#     Edge 118, Type (0, 1), BuildingBlock: UVAHIK_clean_linker_0, # of connection points: 2
#     Edge 119, Type (0, 1), BuildingBlock: UVAHIK_clean_linker_0, # of connection points: 2
#     Edge 120, Type (0, 1), BuildingBlock: UVAHIK_clean_linker_0, # of connection points: 2
#     Edge 121, Type (0, 1), BuildingBlock: UVAHIK_clean_linker_0, # of connection points: 2
#     Edge 122, Type (0, 1), BuildingBlock: UVAHIK_clean_linker_0, # of connection points: 2
#     Edge 123, Type (0, 1), BuildingBlock: UVAHIK_clean_linker_0, # of connection points: 2
#     Edge 124, Type (0, 1), BuildingBlock: UVAHIK_clean_linker_0, # of connection points: 2
#     Edge 125, Type (0, 1), BuildingBlock: UVAHIK_clean_linker_0, # of connection points: 2
#     Edge 126, Type (0, 1), BuildingBlock: UVAHIK_clean_linker_0, # of connection points: 2
#     Edge 127, Type (0, 1), BuildingBlock: UVAHIK_clean_linker_0, # of connection points: 2
#     Edge 128, Type (0, 1), BuildingBlock: UVAHIK_clean_linker_0, # of connection points: 2
#     Edge 129, Type (0, 1), BuildingBlock: UVAHIK_clean_linker_0, # of connection points: 2
#     Edge 130, Type (0, 1), BuildingBlock: UVAHIK_clean_linker_0, # of connection points: 2
#     Edge 131, Type (0, 1), BuildingBlock: UVAHIK_clean_linker_0, # of connection points: 2
#     Edge 132, Type (0, 1), BuildingBlock: UVAHIK_clean_linker_0, # of connection points: 2
#     Edge 133, Type (0, 1), BuildingBlock: UVAHIK_clean_linker_0, # of connection points: 2
#     Edge 134, Type (0, 1), BuildingBlock: UVAHIK_clean_linker_0, # of connection points: 2
#     Edge 135, Type (0, 1), BuildingBlock: UVAHIK_clean_linker_0, # of connection points: 2
# Relax obj value: 0.126
# Max RMSD: 0.318
# Mean RMSD: 0.177
data_MOF--net-gar--node1-QUQFOY_clean_sbu_1--node2-KUMBOL_clean_sbu_0--edge1-UVAHIK_clean_linker_0
_symmetry_space_group_name_H-M    P1
_symmetry_Int_Tables_number       1
_symmetry_cell_setting            triclinic
loop_
_symmetry_equiv_pos_as_xyz
'x, y, z'
_cell_length_a     78.235253
_cell_length_b     72.825036
_cell_length_c     72.942212
_cell_angle_alpha  100.10898
_cell_angle_beta   93.380492
_cell_angle_gamma 104.32723
loop_
_atom_site_label
_atom_site_type_symbol
_atom_site_fract_x
_atom_site_fract_y
_atom_site_fract_z
_atom_type_partial_charge
O0 O 0.10504 0.29973 0.39515 0.0
Cd1 Cd 0.10752 0.32101 0.37976 0.0
Cd2 Cd 0.10107 0.34033 0.40928 0.0
O3 O 0.10518 0.31902 0.422 0.0
O4 O 0.12065 0.31212 0.35951 0.0
O5 O 0.13138 0.33955 0.38028 0.0
C6 C 0.13353 0.32716 0.36622 0.0
C7 C 0.11435 0.37205 0.42203 0.0
C8 C 0.10514 0.3026 0.41277 0.0
C9 C 0.07297 0.32982 0.378 0.0
O10 O 0.07644 0.33537 0.39557 0.0
O11 O 0.08442 0.32487 0.36799 0.0
O12 O 0.10258 0.36166 0.43024 0.0
O13 O 0.11915 0.36424 0.4066 0.0
O14 O 0.99527 0.73646 0.66216 0.0
Cd15 Cd 0.00353 0.7643 0.67595 0.0
Cd16 Cd 0.00655 0.76989 0.64374 0.0
O17 O 0.98611 0.74527 0.63701 0.0
O18 O 0.99088 0.76522 0.69819 0.0
O19 O 0.98617 0.77939 0.67421 0.0
C20 C 0.98162 0.7743 0.6897 0.0
C21 C 0.00615 0.79661 0.63166 0.0
C22 C 0.9862 0.73214 0.64632 0.0
C23 C 0.03914 0.77303 0.66762 0.0
O24 O 0.03159 0.76753 0.65097 0.0
O25 O 0.03005 0.77616 0.68111 0.0
O26 O 0.00805 0.78124 0.62113 0.0
O27 O 0.00384 0.79663 0.64902 0.0
O28 O 0.63249 0.82452 0.89116 0.0
Cd29 Cd 0.61246 0.82204 0.90761 0.0
Cd30 Cd 0.5969 0.82874 0.87984 0.0
O31 O 0.61471 0.81853 0.86513 0.0
O32 O 0.61744 0.80746 0.92629 0.0
O33 O 0.59422 0.79713 0.90425 0.0
C34 C 0.60337 0.7944 0.9184 0.0
C35 C 0.56854 0.82481 0.86632 0.0
C36 C 0.63007 0.82134 0.87345 0.0
C37 C 0.61037 0.86034 0.91276 0.0
O38 O 0.607 0.85593 0.89513 0.0
O39 O 0.61014 0.84728 0.92215 0.0
O40 O 0.58221 0.83486 0.86032 0.0
O41 O 0.57098 0.8156 0.87942 0.0
O42 O 0.49808 0.22701 0.15876 0.0
Cd43 Cd 0.5041 0.25263 0.17706 0.0
Cd44 Cd 0.50905 0.26507 0.14768 0.0
O45 O 0.49008 0.24046 0.13622 0.0
O46 O 0.48847 0.24978 0.19666 0.0
O47 O 0.48658 0.26711 0.17445 0.0
C48 C 0.47997 0.25951 0.18808 0.0
C49 C 0.5108 0.29186 0.13505 0.0
C50 C 0.49014 0.22544 0.14267 0.0
C51 C 0.54015 0.26576 0.17345 0.0
O52 O 0.53383 0.26302 0.1565 0.0
O53 O 0.52988 0.26559 0.18624 0.0
O54 O 0.51513 0.27709 0.12619 0.0
O55 O 0.50445 0.29115 0.15091 0.0
O56 O 0.0748 0.78876 0.10993 0.0
Cd57 Cd 0.07837 0.81508 0.12744 0.0
Cd58 Cd 0.09644 0.82604 0.09817 0.0
O59 O 0.08658 0.79681 0.08481 0.0
O60 O 0.06287 0.80711 0.14717 0.0
O61 O 0.05728 0.82702 0.12963 0.0
C62 C 0.05255 0.81713 0.14239 0.0
C63 C 0.08953 0.85266 0.08748 0.0
C64 C 0.07872 0.78387 0.09344 0.0
C65 C 0.11842 0.82973 0.13497 0.0
O66 O 0.11853 0.83068 0.11767 0.0
O67 O 0.10371 0.82554 0.14198 0.0
O68 O 0.10081 0.84426 0.07982 0.0
O69 O 0.08184 0.8457 0.10093 0.0
O70 O 0.55458 0.7754 0.42207 0.0
Cd71 Cd 0.53681 0.77314 0.44209 0.0
Cd72 Cd 0.51624 0.78311 0.40776 0.0
O73 O 0.53895 0.77709 0.39615 0.0
O74 O 0.54758 0.76163 0.46183 0.0
O75 O 0.52281 0.74597 0.4438 0.0
C76 C 0.53491 0.74606 0.45667 0.0
C77 C 0.48909 0.7805 0.38877 0.0
C78 C 0.55336 0.77599 0.40468 0.0
C79 C 0.52726 0.81128 0.44729 0.0
O80 O 0.5213 0.80658 0.42999 0.0
O81 O 0.5329 0.79946 0.45548 0.0
O82 O 0.5035 0.79357 0.38846 0.0
O83 O 0.49012 0.76794 0.39898 0.0
O84 O 0.58525 0.28629 0.61202 0.0
Cd85 Cd 0.5878 0.31209 0.63018 0.0
Cd86 Cd 0.60614 0.324 0.60163 0.0
O87 O 0.59674 0.29531 0.5871 0.0
O88 O 0.5711 0.30328 0.64866 0.0
O89 O 0.56657 0.32387 0.63142 0.0
C90 C 0.56105 0.31345 0.64356 0.0
C91 C 0.59961 0.35068 0.59084 0.0
C92 C 0.58922 0.28197 0.59545 0.0
C93 C 0.62745 0.32673 0.63897 0.0
O94 O 0.6277 0.32793 0.62174 0.0
O95 O 0.61267 0.32256 0.64584 0.0
O96 O 0.61214 0.3434 0.58467 0.0
O97 O 0.59058 0.34267 0.60298 0.0
O98 O 0.02602 0.24242 0.9246 0.0
Cd99 Cd 0.02722 0.26226 0.90712 0.0
Cd100 Cd 0.01503 0.28244 0.94104 0.0
O101 O 0.0211 0.25888 0.95137 0.0
O102 O 0.04142 0.25333 0.88662 0.0
O103 O 0.05173 0.28045 0.90727 0.0
C104 C 0.05444 0.26824 0.89332 0.0
C105 C 0.02461 0.31494 0.95767 0.0
C106 C 0.0245 0.24382 0.94205 0.0
C107 C 0.99128 0.27231 0.90314 0.0
O108 O 0.99326 0.27816 0.9209 0.0
O109 O 0.00334 0.26606 0.89494 0.0
O110 O 0.01215 0.30243 0.96304 0.0
O111 O 0.03238 0.30884 0.94358 0.0
O112 O 0.41962 0.05116 0.27638 0.0
Cd113 Cd 0.41211 0.05673 0.30298 0.0
Cd114 Cd 0.44166 0.05589 0.30928 0.0
O115 O 0.44652 0.06851 0.28715 0.0
O116 O 0.41685 0.08428 0.31466 0.0
O117 O 0.39051 0.06517 0.30133 0.0
C118 C 0.40024 0.08199 0.30957 0.0
C119 C 0.4539 0.06602 0.33868 0.0
C120 C 0.43498 0.06017 0.27339 0.0
C121 C 0.41506 0.02233 0.31193 0.0
O122 O 0.42907 0.02694 0.30404 0.0
O123 O 0.40743 0.03529 0.31776 0.0
O124 O 0.46266 0.05913 0.32589 0.0
O125 O 0.43903 0.06963 0.33415 0.0
O126 O 0.31375 0.19874 0.53449 0.0
Cd127 Cd 0.31174 0.18035 0.50907 0.0
Cd128 Cd 0.30073 0.20963 0.49863 0.0
O129 O 0.31017 0.22502 0.52565 0.0
O130 O 0.32421 0.16209 0.51762 0.0
O131 O 0.33422 0.17924 0.49653 0.0
C132 C 0.33646 0.16747 0.50721 0.0
C133 C 0.30895 0.22004 0.47112 0.0
C134 C 0.3134 0.21631 0.53859 0.0
C135 C 0.27318 0.17172 0.49618 0.0
O136 O 0.2763 0.18979 0.49648 0.0
O137 O 0.28596 0.16417 0.49886 0.0
O138 O 0.29908 0.2281 0.48163 0.0
O139 O 0.31487 0.20661 0.47662 0.0
O140 O 0.1652 1.00601 0.72997 0.0
Cd141 Cd 0.18635 1.00579 0.75066 0.0
Cd142 Cd 0.15673 0.02531 0.77399 0.0
O143 O 0.14432 0.01656 0.74538 0.0
O144 O 0.20368 0.98991 0.73869 0.0
O145 O 0.18964 0.98177 0.76203 0.0
C146 C 0.20075 0.97824 0.75031 0.0
C147 C 0.14161 0.02469 0.80325 0.0
C148 C 0.15037 0.01088 0.72986 0.0
C149 C 0.19544 0.05013 0.76946 0.0
O150 O 0.17977 0.04804 0.77459 0.0
O151 O 0.20076 0.03547 0.76175 0.0
O152 O 0.14005 0.03624 0.79207 0.0
O153 O 0.15109 0.01294 0.79776 0.0
O154 O 0.31505 0.93843 0.03647 0.0
Cd155 Cd 0.31238 0.94853 0.01233 0.0
Cd156 Cd 0.31422 0.91654 1.0017 0.0
O157 O 0.30016 0.90932 0.02264 0.0
O158 O 0.30474 0.97167 0.02046 0.0
O159 O 0.28846 0.94573 1.00006 0.0
C160 C 0.29006 0.96262 0.01021 0.0
C161 C 0.3077 0.90323 0.97144 0.0
C162 C 0.30709 0.92131 0.03751 0.0
C163 C 0.34581 0.94694 0.00403 0.0
O164 O 0.3404 0.93069 0.0087 0.0
O165 O 0.3347 0.956 1.0 0.0
O166 O 0.31337 0.89392 0.98297 0.0
O167 O 0.30425 0.91956 0.97751 0.0
O168 O 0.30609 0.39497 0.06341 0.0
Cd169 Cd 0.30894 0.41257 0.04385 0.0
Cd170 Cd 0.31926 0.38136 0.02488 0.0
O171 O 0.30876 0.36803 0.04604 0.0
O172 O 0.29658 0.43221 0.05493 0.0
O173 O 0.28671 0.4122 0.02784 0.0
C174 C 0.28444 0.42553 0.04096 0.0
C175 C 0.31197 0.36676 0.99312 0.0
C176 C 0.30542 0.37711 0.06138 0.0
C177 C 0.3472 0.4192 0.03611 0.0
O178 O 0.34398 0.4009 0.03154 0.0
O179 O 0.33468 0.4272 0.03973 0.0
O180 O 0.32174 0.36051 0.00412 0.0
O181 O 0.30566 0.3809 1.00031 0.0
O182 O 0.78933 0.1497 0.05183 0.0
Cd183 Cd 0.78893 0.1373 0.02436 0.0
Cd184 Cd 0.79149 0.17058 0.02325 0.0
O185 O 0.80793 0.17568 0.047 0.0
O186 O 0.79883 0.11502 0.0223 0.0
O187 O 0.81222 0.14317 0.01484 0.0
C188 C 0.8126 0.12607 0.01712 0.0
C189 C 0.7962 0.18273 0.9974 0.0
C190 C 0.79986 0.16619 0.05832 0.0
C191 C 0.75685 0.14444 0.01538 0.0
O192 O 0.76527 0.16051 0.02546 0.0
O193 O 0.76539 0.13272 0.00833 0.0
O194 O 0.7938 0.19353 0.01258 0.0
O195 O 0.79776 0.16553 0.99771 0.0
O196 O 0.19744 0.55135 0.2266 0.0
Cd197 Cd 0.20893 0.55216 0.25253 0.0
Cd198 Cd 0.17867 0.55124 0.25852 0.0
O199 O 0.17338 0.53235 0.23355 0.0
O200 O 0.22913 0.54132 0.24931 0.0
O201 O 0.20386 0.52755 0.26033 0.0
C202 C 0.21916 0.52688 0.25502 0.0
C203 C 0.16969 0.54644 0.28632 0.0
C204 C 0.18276 0.53885 0.22135 0.0
C205 C 0.20445 0.58732 0.26804 0.0
O206 O 0.18951 0.57983 0.25847 0.0
O207 O 0.21374 0.57637 0.27212 0.0
O208 O 0.15905 0.54996 0.27394 0.0
O209 O 0.18483 0.54388 0.28215 0.0
O210 O 0.80908 0.89743 0.56834 0.0
Cd211 Cd 0.81155 0.91381 0.54811 0.0
Cd212 Cd 0.8204 0.88245 0.52872 0.0
O213 O 0.81066 0.8701 0.55085 0.0
O214 O 0.79831 0.93325 0.55693 0.0
O215 O 0.78937 0.91078 0.53117 0.0
C216 C 0.78643 0.92483 0.54297 0.0
C217 C 0.81077 0.86702 0.49759 0.0
C218 C 0.80793 0.8795 0.56632 0.0
C219 C 0.84899 0.92018 0.53857 0.0
O220 O 0.8454 0.90193 0.5331 0.0
O221 O 0.83699 0.92831 0.54391 0.0
O222 O 0.82106 0.86073 0.50796 0.0
O223 O 0.80532 0.88169 0.50509 0.0
O224 O 0.94238 0.07541 0.23757 0.0
Cd225 Cd 0.92118 0.07537 0.25563 0.0
Cd226 Cd 0.95444 0.06028 0.27769 0.0
O227 O 0.96519 0.06861 0.25268 0.0
O228 O 0.90284 0.08831 0.24409 0.0
O229 O 0.91789 0.10155 0.27118 0.0
C230 C 0.90634 0.10259 0.25823 0.0
C231 C 0.97192 0.06298 0.30794 0.0
C232 C 0.95818 0.07293 0.23807 0.0
C233 C 0.91466 0.03343 0.26631 0.0
O234 O 0.93115 0.03704 0.27215 0.0
O235 O 0.90826 0.04657 0.2608 0.0
O236 O 0.97207 0.05021 0.29329 0.0
O237 O 0.96272 0.07501 0.30545 0.0
O238 O 0.28857 0.64716 0.54494 0.0
Cd239 Cd 0.28841 0.6315 0.5187 0.0
Cd240 Cd 0.29197 0.66401 0.51214 0.0
O241 O 0.30578 0.67304 0.53776 0.0
O242 O 0.29991 0.6108 0.52025 0.0
O243 O 0.31118 0.63682 0.50818 0.0
C244 C 0.31294 0.62124 0.5134 0.0
C245 C 0.29771 0.67823 0.48727 0.0
C246 C 0.29823 0.66434 0.5499 0.0
C247 C 0.25662 0.63678 0.50629 0.0
O248 O 0.26547 0.65398 0.51282 0.0
O249 O 0.26466 0.62369 0.50255 0.0
O250 O 0.29228 0.68698 0.50179 0.0
O251 O 0.30156 0.66204 0.48758 0.0
O252 O 0.44346 0.57887 0.7424 0.0
Cd253 Cd 0.42137 0.57926 0.7592 0.0
Cd254 Cd 0.45526 0.56277 0.78288 0.0
O255 O 0.46596 0.57165 0.75786 0.0
O256 O 0.40336 0.59176 0.74591 0.0
O257 O 0.41711 0.60587 0.77331 0.0
C258 C 0.40615 0.60646 0.75957 0.0
C259 C 0.47245 0.56367 0.81319 0.0
C260 C 0.45917 0.57611 0.74316 0.0
C261 C 0.41499 0.53685 0.76993 0.0
O262 O 0.43137 0.54033 0.77626 0.0
O263 O 0.40873 0.55011 0.76433 0.0
O264 O 0.47315 0.55205 0.79787 0.0
O265 O 0.46285 0.57551 0.81142 0.0
O266 O 0.69741 0.05093 0.72151 0.0
Cd267 Cd 0.71077 0.05246 0.74673 0.0
Cd268 Cd 0.68082 0.05241 0.75559 0.0
O269 O 0.67532 0.03219 0.73186 0.0
O270 O 0.72971 0.03938 0.74456 0.0
O271 O 0.70353 0.02854 0.75517 0.0
C272 C 0.71858 0.02602 0.75062 0.0
C273 C 0.67098 0.04777 0.78302 0.0
C274 C 0.68267 0.03819 0.71826 0.0
C275 C 0.70656 0.08748 0.76345 0.0
O276 O 0.69141 0.08065 0.75425 0.0
O277 O 0.71531 0.07592 0.76714 0.0
O278 O 0.66081 0.0515 0.77033 0.0
O279 O 0.68639 0.04552 0.77959 0.0
O280 O 0.81273 0.70583 0.04142 0.0
Cd281 Cd 0.81092 0.68677 0.01629 0.0
Cd282 Cd 0.7981 0.71441 0.00511 0.0
O283 O 0.80638 0.7306 0.03182 0.0
O284 O 0.82322 0.669 0.0258 0.0
O285 O 0.83352 0.68523 0.00416 0.0
C286 C 0.83554 0.67382 0.01531 0.0
C287 C 0.8071 0.72499 0.97813 0.0
C288 C 0.81097 0.72293 0.04502 0.0
C289 C 0.77232 0.67563 1.00232 0.0
O290 O 0.77433 0.69352 1.00237 0.0
O291 O 0.7857 0.66929 0.00577 0.0
O292 O 0.79606 0.73213 0.98764 0.0
O293 O 0.81357 0.71223 0.98425 0.0
O294 O 0.91745 0.55138 0.78467 0.0
Cd295 Cd 0.90742 0.55629 0.81008 0.0
Cd296 Cd 0.93709 0.5585 0.819 0.0
O297 O 0.94305 0.5711 0.79691 0.0
O298 O 0.88725 0.56626 0.80549 0.0
O299 O 0.9129 0.58361 0.82225 0.0
C300 C 0.89744 0.58266 0.81425 0.0
C301 C 0.95038 0.56644 0.84797 0.0
C302 C 0.9326 0.56168 0.78256 0.0
C303 C 0.91045 0.52283 0.81853 0.0
O304 O 0.92525 0.52953 0.81275 0.0
O305 O 0.90112 0.53422 0.82393 0.0
O306 O 0.95838 0.56 0.83423 0.0
O307 O 0.93578 0.5712 0.84477 0.0
O308 O 0.81896 0.44097 0.54337 0.0
Cd309 Cd 0.81593 0.44887 0.51808 0.0
Cd310 Cd 0.8185 0.41693 0.50979 0.0
O311 O 0.80356 0.41172 0.53063 0.0
O312 O 0.80721 0.47165 0.52275 0.0
O313 O 0.79155 0.4431 0.50593 0.0
C314 C 0.79256 0.46086 0.51343 0.0
C315 C 0.8155 0.39931 0.48105 0.0
C316 C 0.8106 0.42421 0.54515 0.0
C317 C 0.84928 0.44708 0.5097 0.0
O318 O 0.84438 0.4322 0.51677 0.0
O319 O 0.83775 0.45507 0.50443 0.0
O320 O 0.82074 0.39299 0.49529 0.0
O321 O 0.80951 0.41452 0.4836 0.0
O322 O 0.66881 0.50443 0.23671 0.0
Cd323 Cd 0.6899 0.50455 0.25764 0.0
Cd324 Cd 0.66022 0.52375 0.28081 0.0
O325 O 0.64774 0.5147 0.25201 0.0
O326 O 0.70711 0.48805 0.24622 0.0
O327 O 0.69298 0.48078 0.26974 0.0
C328 C 0.704 0.47671 0.25812 0.0
C329 C 0.64558 0.52262 0.31045 0.0
C330 C 0.65386 0.50904 0.23651 0.0
C331 C 0.69859 0.54921 0.27608 0.0
O332 O 0.68298 0.54695 0.2814 0.0
O333 O 0.70397 0.53463 0.26822 0.0
O334 O 0.64359 0.53418 0.2994 0.0
O335 O 0.65516 0.5111 0.30459 0.0
Gd336 Gd 0.07938 0.06316 0.03387 0.0
Gd337 Gd 0.03484 0.04269 0.01526 0.0
C338 C 0.01302 0.97941 0.02061 0.0
C339 C 0.00674 0.96285 0.98816 0.0
C340 C 0.02027 0.99764 0.99601 0.0
C341 C 0.01984 0.99719 0.01491 0.0
C342 C 0.01323 0.98046 0.98246 0.0
C343 C 0.00672 0.96231 0.00718 0.0
C344 C 0.01231 0.97926 0.03965 0.0
C345 C 0.01808 0.99652 0.05256 0.0
N346 N 0.02547 0.01405 0.02769 0.0
C347 C 0.02454 0.01375 0.04637 0.0
H348 H 0.02929 0.02639 0.05702 0.0
C349 C 0.0239 0.01603 0.97222 0.0
N350 N 0.02634 0.01492 0.99078 0.0
C351 C 0.01724 0.99944 0.9584 0.0
C352 C 0.01212 0.98153 0.96351 0.0
H353 H 0.02694 0.0298 0.96785 0.0
H354 H 1.00141 0.94864 0.01136 0.0
H355 H 0.08634 0.08101 0.99338 0.0
H356 H 0.00723 0.96593 0.04452 0.0
H357 H 0.0177 0.9966 0.06739 0.0
H358 H 1.00133 0.9496 0.97794 0.0
H359 H 0.08833 0.07324 0.08095 0.0
H360 H 0.10746 0.1417 0.00828 0.0
H361 H 0.09773 0.11173 0.98434 0.0
H362 H 0.11328 0.15495 0.07501 0.0
H363 H 0.01572 1.00056 0.94383 0.0
H364 H 0.00667 0.9687 0.95278 0.0
H365 H 0.11298 0.15762 0.04194 0.0
H366 H 0.09987 0.10156 0.10629 0.0
N367 N 0.08908 0.09245 0.02286 0.0
C368 C 0.10233 0.12803 0.01253 0.0
C369 C 0.09696 0.11116 0.999 0.0
C370 C 0.10143 0.12703 0.0314 0.0
C371 C 0.09461 0.10883 0.03627 0.0
C372 C 0.09051 0.09348 0.0044 0.0
N373 N 0.0886 0.08968 0.05937 0.0
C374 C 0.09441 0.1074 0.05498 0.0
C375 C 0.09812 0.10348 0.09198 0.0
C376 C 0.10298 0.12188 0.08782 0.0
C377 C 0.09137 0.08747 0.07752 0.0
C378 C 0.10154 0.12401 0.06916 0.0
H379 H 0.10849 0.13426 0.09903 0.0
O380 O 0.09567 0.05244 0.05233 0.0
O381 O 0.0565 0.0372 0.03266 0.0
O382 O 0.03208 0.05444 0.04554 0.0
O383 O 0.06147 0.06546 0.0587 0.0
O384 O 0.07948 0.03242 0.02281 0.0
O385 O 0.1073 0.06749 0.03064 0.0
O386 O 0.01923 0.05146 0.99458 0.0
O387 O 0.05771 0.06853 0.01622 0.0
O388 O 0.08194 0.05199 1.00319 0.0
O389 O 0.05246 0.04129 0.99062 0.0
O390 O 0.03471 0.07356 0.02584 0.0
O391 O 0.00653 0.03809 0.01705 0.0
C392 C 0.06399 0.02412 0.0265 0.0
C393 C 0.10783 0.1421 0.0643 0.0
C394 C 0.10771 0.14361 0.04548 0.0
C395 C 0.10966 0.05805 0.04379 0.0
C396 C 0.12715 0.06248 0.05395 0.0
C397 C 0.13376 0.07845 0.06859 0.0
C398 C 0.13749 0.04991 0.04832 0.0
C399 C 0.15447 0.05296 0.05728 0.0
C400 C 0.1507 0.08144 0.07783 0.0
C401 C 0.16104 0.0687 0.07226 0.0
C402 C 0.04402 0.06209 0.06034 0.0
C403 C 0.05022 0.08176 0.02199 0.0
C404 C 0.00476 0.04531 1.00212 0.0
C405 C 0.98775 0.04663 0.99434 0.0
C406 C 0.98208 0.03967 0.97522 0.0
C407 C 0.97739 0.05557 0.00595 0.0
C408 C 0.96142 0.05773 0.99837 0.0
C409 C 0.96591 0.04154 0.96775 0.0
C410 C 0.95558 0.05061 0.97929 0.0
C411 C 0.06972 0.04446 0.98865 0.0
H412 H 0.12601 0.08854 0.0728 0.0
H413 H 0.13225 0.03759 0.03693 0.0
H414 H 0.15587 0.09369 0.08921 0.0
H415 H 0.17423 0.07135 0.07935 0.0
H416 H 0.99012 0.03277 0.96616 0.0
H417 H 0.98189 0.06117 0.0207 0.0
H418 H 0.96145 0.03611 0.95302 0.0
H419 H 0.94313 0.05221 0.97336 0.0
Gd420 Gd 0.29255 0.81173 0.28639 0.0
Gd421 Gd 0.30847 0.79279 0.24244 0.0
C422 C 0.28379 0.73113 0.20916 0.0
C423 C 0.30856 0.71679 0.21063 0.0
C424 C 0.31146 0.74963 0.22748 0.0
C425 C 0.2942 0.74847 0.22073 0.0
C426 C 0.31886 0.73384 0.22219 0.0
C427 C 0.29105 0.71541 0.20419 0.0
C428 C 0.26627 0.72992 0.20298 0.0
C429 C 0.25932 0.74554 0.20859 0.0
N430 N 0.28749 0.76402 0.22565 0.0
C431 C 0.27002 0.76241 0.21997 0.0
H432 H 0.26354 0.77345 0.2245 0.0
C433 C 0.33898 0.76852 0.24331 0.0
N434 N 0.32119 0.76623 0.23879 0.0
C435 C 0.34678 0.75333 0.23861 0.0
C436 C 0.33661 0.73578 0.22821 0.0
H437 H 0.3476 0.78235 0.24986 0.0
H438 H 0.28323 0.70209 0.19531 0.0
H439 H 0.33836 0.83127 0.29465 0.0
H440 H 0.25789 0.71684 0.1942 0.0
H441 H 0.24558 0.74455 0.20432 0.0
H442 H 0.31406 0.70461 0.20646 0.0
H443 H 0.25365 0.82321 0.2817 0.0
H444 H 0.34762 0.88753 0.32789 0.0
H445 H 0.35879 0.86029 0.31301 0.0
H446 H 0.29031 0.89953 0.32665 0.0
H447 H 0.36079 0.7554 0.24253 0.0
H448 H 0.34276 0.72407 0.2243 0.0
H449 H 0.322 0.90186 0.33314 0.0
H450 H 0.24111 0.85015 0.29247 0.0
N451 N 0.31489 0.84054 0.29985 0.0
C452 C 0.33836 0.87451 0.32 0.0
C453 C 0.3447 0.85914 0.31172 0.0
C454 C 0.32025 0.8732 0.31736 0.0
C455 C 0.30876 0.856 0.30674 0.0
C456 C 0.3328 0.84231 0.30158 0.0
N457 N 0.28047 0.83866 0.29151 0.0
C458 C 0.29104 0.855 0.30248 0.0
C459 C 0.25526 0.85194 0.29503 0.0
C460 C 0.26609 0.86905 0.30566 0.0
C461 C 0.26262 0.83679 0.28835 0.0
C462 C 0.28417 0.87072 0.30964 0.0
H463 H 0.26031 0.88069 0.31109 0.0
O464 O 0.26649 0.80026 0.29445 0.0
O465 O 0.28925 0.78729 0.26266 0.0
O466 O 0.28452 0.80203 0.23262 0.0
O467 O 0.27376 0.81255 0.26102 0.0
O468 O 0.28978 0.78094 0.28951 0.0
O469 O 0.28889 0.81428 0.31589 0.0
O470 O 0.33514 0.80579 0.23693 0.0
O471 O 0.3113 0.81801 0.26548 0.0
O472 O 0.31618 0.8026 0.29705 0.0
O473 O 0.32605 0.79135 0.26852 0.0
O474 O 0.3096 0.82268 0.23806 0.0
O475 O 0.31473 0.79026 0.21383 0.0
C476 C 0.28818 0.77417 0.27181 0.0
C477 C 0.2954 0.88744 0.3209 0.0
C478 C 0.31342 0.88871 0.32469 0.0
C479 C 0.27182 0.80622 0.31228 0.0
C480 C 0.26285 0.79469 0.32504 0.0
C481 C 0.24648 0.79739 0.33001 0.0
C482 C 0.2701 0.78142 0.3324 0.0
C483 C 0.26081 0.77082 0.34469 0.0
C484 C 0.23735 0.78699 0.34232 0.0
C485 C 0.24446 0.77377 0.34966 0.0
C486 C 0.27271 0.80879 0.24231 0.0
C487 C 0.31102 0.8305 0.25556 0.0
C488 C 0.33137 0.79968 0.21889 0.0
C489 C 0.34007 0.81249 0.20714 0.0
C490 C 0.35821 0.81457 0.2056 0.0
C491 C 0.33058 0.82198 0.19696 0.0
C492 C 0.33935 0.83343 0.18523 0.0
C493 C 0.36688 0.82606 0.1938 0.0
C494 C 0.35746 0.83548 0.18357 0.0
C495 C 0.32741 0.79511 0.2872 0.0
H496 H 0.2408 0.80767 0.32443 0.0
H497 H 0.28277 0.77932 0.32855 0.0
H498 H 0.2248 0.78926 0.34626 0.0
H499 H 0.23732 0.76609 0.35951 0.0
H500 H 0.3656 0.80713 0.21337 0.0
H501 H 0.31653 0.82036 0.198 0.0
H502 H 0.38084 0.82753 0.19247 0.0
H503 H 0.36421 0.84421 0.17423 0.0
Gd504 Gd 0.53726 0.04351 0.53756 0.0
Gd505 Gd 0.58221 0.04772 0.52345 0.0
C506 C 0.6186 0.10878 0.5327 0.0
C507 C 0.62426 0.1123 0.50094 0.0
C508 C 0.60524 0.08241 0.50667 0.0
C509 C 0.6077 0.08997 0.52569 0.0
C510 C 0.6138 0.09335 0.49411 0.0
C511 C 0.62664 0.12001 0.5202 0.0
C512 C 0.6213 0.11565 0.55209 0.0
C513 C 0.61334 0.10376 0.56396 0.0
N514 N 0.59974 0.07877 0.53739 0.0
C515 C 0.60253 0.08529 0.55631 0.0
H516 H 0.59588 0.07663 0.56554 0.0
C517 C 0.59418 0.05514 0.48221 0.0
N518 N 0.5951 0.06405 0.50053 0.0
C519 C 0.60228 0.06545 0.46919 0.0
C520 C 0.61196 0.08472 0.47512 0.0
H521 H 0.58681 0.04017 0.47768 0.0
H522 H 0.63496 0.13454 0.52531 0.0
H523 H 0.51343 0.01806 0.49544 0.0
H524 H 0.62957 0.13002 0.55803 0.0
H525 H 0.61529 0.10892 0.57898 0.0
H526 H 0.63083 0.12098 0.49149 0.0
H527 H 0.53155 0.04867 0.58359 0.0
H528 H 0.49033 0.96062 0.5021 0.0
H529 H 0.49665 0.98505 0.48213 0.0
H530 H 0.4973 0.96499 0.56823 0.0
H531 H 0.60115 0.05851 0.45462 0.0
H532 H 0.61832 0.09265 0.46503 0.0
H533 H 0.49103 0.95315 0.53423 0.0
H534 H 0.52005 0.02826 0.60595 0.0
N535 N 0.51851 0.01273 0.52302 0.0
C536 C 0.49813 0.97518 0.50813 0.0
C537 C 0.50165 0.98893 0.49683 0.0
C538 C 0.50374 0.9807 0.52729 0.0
C539 C 0.51392 0.99986 0.53446 0.0
C540 C 0.51158 0.00777 0.50456 0.0
N541 N 0.52624 0.02525 0.56012 0.0
C542 C 0.51781 1.00636 0.55361 0.0
C543 C 0.51958 0.02181 0.59132 0.0
C544 C 0.51258 1.00198 0.58513 0.0
C545 C 0.52611 0.03331 0.57853 0.0
C546 C 0.51115 0.99409 0.56602 0.0
H547 H 0.50749 0.99309 0.59506 0.0
O548 O 0.52742 0.06451 0.55573 0.0
O549 O 0.56479 0.0632 0.53949 0.0
O550 O 0.58134 0.04073 0.5518 0.0
O551 O 0.55562 0.04632 0.56352 0.0
O552 O 0.54359 0.0732 0.53097 0.0
O553 O 0.51154 0.04812 0.52973 0.0
O554 O 0.59384 0.02469 0.512 0.0
O555 O 0.55683 0.02718 0.52746 0.0
O556 O 0.5378 0.04292 0.50686 0.0
O557 O 0.56698 0.05715 0.50173 0.0
O558 O 0.56738 0.02165 0.50213 0.0
O559 O 0.60763 0.04615 0.53604 0.0
C560 C 0.56045 0.0776 0.53493 0.0
C561 C 0.50223 0.97468 0.55889 0.0
C562 C 0.49862 0.96796 0.53954 0.0
C563 C 0.51296 0.06165 0.54454 0.0
C564 C 0.49681 0.06399 0.55294 0.0
C565 C 0.49305 0.05882 0.57019 0.0
C566 C 0.48571 0.07314 0.54415 0.0
C567 C 0.4709 0.077 0.5525 0.0
C568 C 0.47845 0.06271 0.57858 0.0
C569 C 0.46745 0.07176 0.56986 0.0
C570 C 0.57134 0.04283 0.56543 0.0
C571 C 0.55502 0.01514 0.51212 0.0
C572 C 0.60787 0.03072 0.52408 0.0
C573 C 0.62471 0.0298 0.5167 0.0
C574 C 0.63134 0.0404 0.50317 0.0
C575 C 0.63362 0.01691 0.52239 0.0
C576 C 0.6488 0.01424 0.51422 0.0
C577 C 0.6465 0.03774 0.49505 0.0
C578 C 0.65514 0.0246 0.50044 0.0
C579 C 0.54982 0.05103 0.49675 0.0
H580 H 0.50149 0.05211 0.57739 0.0
H581 H 0.48863 0.07729 0.53087 0.0
H582 H 0.47573 0.05887 0.59199 0.0
H583 H 0.45635 0.07489 0.57681 0.0
H584 H 0.62476 0.05051 0.49875 0.0
H585 H 0.62853 0.00862 0.5328 0.0
H586 H 0.65148 0.04578 0.48447 0.0
H587 H 0.66683 0.02259 0.49396 0.0
Gd588 Gd 0.32973 0.28762 0.76569 0.0
Gd589 Gd 0.2852 0.29393 0.76493 0.0
C590 C 0.25885 0.28096 0.70437 0.0
C591 C 0.25665 0.31262 0.70025 0.0
C592 C 0.26974 0.30852 0.72994 0.0
C593 C 0.26686 0.28893 0.72293 0.0
C594 C 0.26418 0.32044 0.71878 0.0
C595 C 0.25403 0.29294 0.69305 0.0
C596 C 0.25579 0.26113 0.69766 0.0
C597 C 0.26057 0.24967 0.70933 0.0
N598 N 0.27165 0.27763 0.73421 0.0
C599 C 0.2685 0.25812 0.72751 0.0
H600 H 0.27269 0.24871 0.73542 0.0
C601 C 0.27696 0.33419 0.75618 0.0
N602 N 0.27697 0.31577 0.74794 0.0
C603 C 0.27186 0.34657 0.74565 0.0
C604 C 0.26573 0.33976 0.72676 0.0
H605 H 0.28098 0.33945 0.771 0.0
H606 H 0.24799 0.28705 0.67879 0.0
H607 H 0.34911 0.33384 0.79174 0.0
H608 H 0.24976 0.25454 0.68352 0.0
H609 H 0.25844 0.2343 0.70424 0.0
H610 H 0.25245 0.32161 0.69148 0.0
H611 H 0.33224 0.24138 0.76107 0.0
H612 H 0.36745 0.32843 0.84582 0.0
H613 H 0.36254 0.34859 0.82322 0.0
H614 H 0.36013 0.26075 0.84084 0.0
H615 H 0.27242 0.36127 0.75219 0.0
H616 H 0.26159 0.34933 0.71865 0.0
H617 H 0.3662 0.29573 0.85233 0.0
H618 H 0.34072 0.22009 0.78055 0.0
N619 N 0.34491 0.30452 0.79555 0.0
C620 C 0.36123 0.32159 0.83179 0.0
C621 C 0.35849 0.333 0.81908 0.0
C622 C 0.3565 0.30152 0.82607 0.0
C623 C 0.34834 0.29326 0.80762 0.0
C624 C 0.35052 0.32427 0.80096 0.0
N625 N 0.3372 0.26587 0.78342 0.0
C626 C 0.34441 0.27343 0.80136 0.0
C627 C 0.34159 0.23498 0.78671 0.0
C628 C 0.3474 0.24208 0.80561 0.0
C629 C 0.33675 0.24716 0.77575 0.0
C630 C 0.34925 0.26159 0.81308 0.0
H631 H 0.35111 0.2326 0.81411 0.0
O632 O 0.34067 0.27115 0.74371 0.0
O633 O 0.30388 0.2816 0.7477 0.0
O634 O 0.2807 0.26263 0.76645 0.0
O635 O 0.30909 0.25799 0.76599 0.0
O636 O 0.32647 0.29736 0.73865 0.0
O637 O 0.35779 0.29695 0.76139 0.0
O638 O 0.27205 0.30913 0.7859 0.0
O639 O 0.31126 0.30013 0.78268 0.0
O640 O 0.33342 0.31914 0.76366 0.0
O641 O 0.30538 0.32424 0.76702 0.0
O642 O 0.28884 0.28546 0.79264 0.0
O643 O 0.25761 0.28167 0.76875 0.0
C644 C 0.30992 0.28905 0.73414 0.0
C645 C 0.3566 0.26969 0.83161 0.0
C646 C 0.36012 0.2896 0.83812 0.0
C647 C 0.35654 0.28298 0.74706 0.0
C648 C 0.37199 0.27481 0.74392 0.0
C649 C 0.37216 0.25696 0.74854 0.0
C650 C 0.38626 0.28428 0.73497 0.0
C651 C 0.40054 0.27598 0.73103 0.0
C652 C 0.38613 0.24873 0.74469 0.0
C653 C 0.40015 0.25807 0.736 0.0
C654 C 0.2916 0.25144 0.76678 0.0
C655 C 0.30552 0.29318 0.79652 0.0
C656 C 0.2572 0.29552 0.78258 0.0
C657 C 0.24029 0.30104 0.78435 0.0
C658 C 0.23506 0.31246 0.77266 0.0
C659 C 0.22901 0.29446 0.7977 0.0
C660 C 0.2127 0.29938 0.79925 0.0
C661 C 0.21909 0.31757 0.77437 0.0
C662 C 0.20798 0.31108 0.78751 0.0
C663 C 0.32266 0.33072 0.76511 0.0
H664 H 0.36139 0.24902 0.75474 0.0
H665 H 0.38621 0.29796 0.73108 0.0
H666 H 0.38595 0.23487 0.74824 0.0
H667 H 0.4106 0.25102 0.73284 0.0
H668 H 0.24322 0.31731 0.76212 0.0
H669 H 0.2328 0.28541 0.80666 0.0
H670 H 0.21521 0.32649 0.76535 0.0
H671 H 0.19558 0.31512 0.78846 0.0
Gd672 Gd 0.06434 0.02588 0.51343 0.0
Gd673 Gd 0.05836 0.07148 0.5334 0.0
C674 C 0.07544 0.10048 0.59485 0.0
C675 C 0.04783 0.10571 0.60534 0.0
C676 C 0.04858 0.08976 0.57328 0.0
C677 C 0.0665 0.09141 0.57693 0.0
C678 C 0.03911 0.09721 0.58735 0.0
C679 C 0.06596 0.10731 0.60909 0.0
C680 C 0.09377 0.10302 0.59779 0.0
C681 C 0.10283 0.09716 0.58292 0.0
N682 N 0.07539 0.08518 0.56271 0.0
C683 C 0.09347 0.08853 0.56537 0.0
H684 H 0.10095 0.08427 0.55422 0.0
C685 C 0.02347 0.08199 0.55087 0.0
N686 N 0.04061 0.0819 0.55567 0.0
C687 C 0.01348 0.08897 0.56439 0.0
C688 C 0.0213 0.09648 0.58276 0.0
H689 H 0.01745 0.07638 0.53661 0.0
H690 H 0.07261 0.11429 0.62292 0.0
H691 H 0.02121 0.01367 0.49315 0.0
H692 H 0.1011 0.1099 0.61134 0.0
H693 H 0.11707 0.09936 0.58493 0.0
H694 H 0.04077 0.11147 0.61635 0.0
H695 H 0.10495 0.0209 0.50907 0.0
H696 H 0.01976 0.98659 0.43638 0.0
H697 H 0.00454 0.99822 0.46297 0.0
H698 H 0.07969 0.98422 0.43007 0.0
H699 H 0.99983 0.08869 0.5606 0.0
H700 H 0.01359 0.10209 0.59317 0.0
H701 H 0.0478 0.98146 0.42427 0.0
H702 H 0.12198 0.00815 0.48466 0.0
N703 N 0.04654 0.01184 0.48444 0.0
C704 C 0.02738 0.9936 0.44976 0.0
C705 C 0.01874 1.00008 0.46472 0.0
C706 C 0.04568 0.99586 0.45235 0.0
C707 C 0.05502 1.00516 0.47005 0.0
C708 C 0.02847 0.0089 0.48205 0.0
N709 N 0.08142 0.01519 0.49056 0.0
C710 C 0.073 1.00689 0.47322 0.0
C711 C 0.10825 0.00782 0.48121 0.0
C712 C 0.09999 0.99995 0.46306 0.0
C713 C 0.09862 0.01508 0.49495 0.0
C714 C 0.08209 0.99912 0.45894 0.0
H715 H 0.10742 0.99414 0.45247 0.0
O716 O 0.07592 0.0075 0.52748 0.0
O717 O 0.06558 0.04577 0.54107 0.0
O718 O 0.08604 0.07472 0.52426 0.0
O719 O 0.08627 0.04701 0.50311 0.0
O720 O 0.08773 0.03612 0.5359 0.0
O721 O 0.04844 0.99729 0.51521 0.0
O722 O 0.04754 0.09009 0.51882 0.0
O723 O 0.05702 0.0515 0.50579 0.0
O724 O 0.03656 0.02279 0.52236 0.0
O725 O 0.03639 0.05048 0.54365 0.0
O726 O 0.03504 0.06147 0.51108 0.0
O727 O 0.07457 0.10014 0.53236 0.0
C728 C 0.08059 0.0454 0.54867 0.0
C729 C 0.07293 0.99024 0.44121 0.0
C730 C 0.05477 0.98865 0.43792 0.0
C731 C 0.06152 0.99347 0.52436 0.0
C732 C 0.06398 0.97414 0.51977 0.0
C733 C 0.07459 0.96896 0.50594 0.0
C734 C 0.05714 0.96137 0.53125 0.0
C735 C 0.06122 0.94363 0.52937 0.0
C736 C 0.07862 0.9511 0.50402 0.0
C737 C 0.07205 0.93846 0.51584 0.0
C738 C 0.09358 0.06521 0.51138 0.0
C739 C 0.04202 0.05203 0.49827 0.0
C740 C 0.06202 0.10402 0.5224 0.0
C741 C 0.05961 0.12337 0.52656 0.0
C742 C 0.0516 0.12977 0.54226 0.0
C743 C 0.06382 0.13486 0.51322 0.0
C744 C 0.05984 0.15271 0.51525 0.0
C745 C 0.0477 0.14768 0.54443 0.0
C746 C 0.05171 0.1591 0.53095 0.0
C747 C 0.02898 0.03246 0.53505 0.0
H748 H 0.08 0.97871 0.49694 0.0
H749 H 0.04907 0.96545 0.54208 0.0
H750 H 0.08698 0.94716 0.49352 0.0
H751 H 0.0753 0.92469 0.51439 0.0
H752 H 0.04813 0.12087 0.55258 0.0
H753 H 0.06963 0.12956 0.50088 0.0
H754 H 0.04142 0.15263 0.55647 0.0
H755 H 0.0486 0.17296 0.53284 0.0
Gd756 Gd 0.28612 0.78086 0.75514 0.0
Gd757 Gd 0.32842 0.81022 0.75085 0.0
C758 C 0.32985 0.8724 0.74739 0.0
C759 C 0.34038 0.87471 0.71697 0.0
C760 C 0.33624 0.84461 0.7283 0.0
C761 C 0.33055 0.85295 0.74456 0.0
C762 C 0.34166 0.85555 0.71453 0.0
C763 C 0.33445 0.8831 0.73335 0.0
C764 C 0.32492 0.88063 0.76442 0.0
C765 C 0.32132 0.86966 0.7783 0.0
N766 N 0.32645 0.84231 0.75796 0.0
C767 C 0.32235 0.8505 0.77489 0.0
H768 H 0.31948 0.84219 0.78568 0.0
C769 C 0.34551 0.81831 0.71207 0.0
N770 N 0.33743 0.82613 0.72642 0.0
C771 C 0.35095 0.8285 0.69797 0.0
C772 C 0.34877 0.84711 0.69906 0.0
H773 H 0.34752 0.80406 0.71148 0.0
H774 H 0.33388 0.89802 0.73521 0.0
H775 H 0.29041 0.74454 0.71977 0.0
H776 H 0.32417 0.8955 0.7671 0.0
H777 H 0.31773 0.87595 0.79161 0.0
H778 H 0.34435 0.88331 0.70648 0.0
H779 H 0.26699 0.78854 0.79514 0.0
H780 H 0.2889 0.69475 0.743 0.0
H781 H 0.29211 0.71135 0.7162 0.0
H782 H 0.27278 0.71151 0.80448 0.0
H783 H 0.35696 0.82207 0.68638 0.0
H784 H 0.35313 0.85506 0.6882 0.0
H785 H 0.28194 0.69505 0.77591 0.0
H786 H 0.25845 0.77195 0.82108 0.0
N787 N 0.28739 0.74821 0.74918 0.0
C788 C 0.28839 0.70969 0.74488 0.0
C789 C 0.29014 0.71897 0.72972 0.0
C790 C 0.28513 0.71947 0.76204 0.0
C791 C 0.28465 0.73898 0.76384 0.0
C792 C 0.28924 0.73812 0.73198 0.0
N793 N 0.27811 0.76667 0.78111 0.0
C794 C 0.27979 0.74842 0.78018 0.0
C795 C 0.26466 0.76526 0.80983 0.0
C796 C 0.26769 0.74722 0.80989 0.0
C797 C 0.2696 0.77462 0.79507 0.0
C798 C 0.27489 0.73835 0.79476 0.0
H799 H 0.26369 0.7399 0.82126 0.0
O800 O 0.26092 0.78656 0.76078 0.0
O801 O 0.30094 0.81232 0.75748 0.0
O802 O 0.32713 0.8089 0.78097 0.0
O803 O 0.29723 0.79789 0.78414 0.0
O804 O 0.27745 0.80263 0.74066 0.0
O805 O 0.26219 0.76299 0.73812 0.0
O806 O 0.35427 0.8047 0.74928 0.0
O807 O 0.31516 0.78071 0.75666 0.0
O808 O 0.29182 0.77655 0.72548 0.0
O809 O 0.31325 0.80378 0.72235 0.0
O810 O 0.33167 0.78161 0.73558 0.0
O811 O 0.35096 0.82821 0.77029 0.0
C812 C 0.28988 0.81789 0.74739 0.0
C813 C 0.27633 0.71935 0.79335 0.0
C814 C 0.28151 0.70996 0.77706 0.0
C815 C 0.25225 0.77275 0.74706 0.0
C816 C 0.23432 0.76246 0.74941 0.0
C817 C 0.23044 0.75173 0.76353 0.0
C818 C 0.22062 0.7647 0.7376 0.0
C819 C 0.20302 0.7569 0.74024 0.0
C820 C 0.21276 0.74384 0.76615 0.0
C821 C 0.19904 0.7466 0.75467 0.0
C822 C 0.31389 0.80585 0.79122 0.0
C823 C 0.32288 0.77034 0.74559 0.0
C824 C 0.36185 0.81876 0.76312 0.0
C825 C 0.37993 0.82962 0.76164 0.0
C826 C 0.38521 0.83548 0.74506 0.0
C827 C 0.39259 0.83225 0.77683 0.0
C828 C 0.41059 0.84007 0.77543 0.0
C829 C 0.4031 0.84362 0.74366 0.0
C830 C 0.41579 0.84581 0.75871 0.0
C831 C 0.30015 0.78846 0.71539 0.0
H832 H 0.24093 0.7496 0.77255 0.0
H833 H 0.22363 0.7731 0.72673 0.0
H834 H 0.20969 0.73577 0.77719 0.0
H835 H 0.18538 0.74068 0.75696 0.0
H836 H 0.37568 0.83347 0.73314 0.0
H837 H 0.38844 0.8276 0.78958 0.0
H838 H 0.40719 0.84782 0.73075 0.0
H839 H 0.42967 0.85144 0.75708 0.0
Gd840 Gd 0.54737 0.05165 0.00574 0.0
Gd841 Gd 0.56178 0.04349 0.05286 0.0
C842 C 0.61665 0.07308 0.0855 0.0
C843 C 0.63156 0.0474 0.08056 0.0
C844 C 0.60082 0.04155 0.06769 0.0
C845 C 0.60118 0.06044 0.07489 0.0
C846 C 0.61569 0.03453 0.07144 0.0
C847 C 0.63207 0.06672 0.08749 0.0
C848 C 0.61583 0.09128 0.0948 0.0
C849 C 0.59953 0.0958 0.09472 0.0
N850 N 0.58579 0.06575 0.07341 0.0
C851 C 0.5845 0.08253 0.0845 0.0
H852 H 0.57189 0.08598 0.0853 0.0
C853 C 0.58271 0.00993 0.05759 0.0
N854 N 0.58515 0.02944 0.0594 0.0
C855 C 0.597 1.0022 0.06089 0.0
C856 C 0.61374 0.01459 0.06728 0.0
H857 H 0.56967 1.00017 0.05336 0.0
H858 H 0.64412 0.0763 0.09535 0.0
H859 H 0.52661 1.00178 0.99585 0.0
H860 H 0.62741 0.10142 0.10301 0.0
H861 H 0.59847 0.10938 0.10277 0.0
H862 H 0.64318 0.04232 0.08327 0.0
H863 H 0.5408 0.09599 0.00817 0.0
H864 H 0.47654 0.99347 0.96557 0.0
H865 H 0.49969 0.98039 0.97867 0.0
H866 H 0.47041 0.05719 0.9672 0.0
H867 H 0.59501 0.9867 0.05874 0.0
H868 H 0.62475 0.00859 0.07013 0.0
H869 H 0.46581 0.02201 0.9614 0.0
H870 H 0.51809 0.11069 0.99756 0.0
N871 N 0.52045 0.02815 0.99189 0.0
C872 C 0.48871 1.00328 0.97295 0.0
C873 C 0.50178 0.99587 0.98022 0.0
C874 C 0.49126 0.02325 0.97573 0.0
C875 C 0.50732 0.03551 0.98559 0.0
C876 C 0.51748 0.00844 0.98978 0.0
N877 N 0.5249 0.06687 0.99932 0.0
C878 C 0.50964 0.05535 0.98937 0.0
C879 C 0.51539 0.09511 0.9954 0.0
C880 C 0.49936 0.08347 0.98595 0.0
C881 C 0.52816 0.08659 1.00166 0.0
C882 C 0.49636 0.06338 0.98265 0.0
H883 H 0.48954 0.09013 0.98091 0.0
O884 O 0.56216 0.07741 0.99688 0.0
O885 O 0.56832 0.05727 0.0291 0.0
O886 O 0.56515 0.07491 0.05216 0.0
O887 O 0.54317 0.07424 0.02921 0.0
O888 O 0.57609 0.05173 1.00247 0.0
O889 O 0.55034 0.04983 0.97645 0.0
O890 O 0.54723 0.01848 0.06283 0.0
O891 O 0.54073 0.03679 0.02899 0.0
O892 O 0.55339 0.02344 1.00043 0.0
O893 O 0.56532 0.01948 0.02954 0.0
O894 O 0.5339 0.04571 0.0556 0.0
O895 O 0.55098 0.04773 0.07926 0.0
C896 C 0.58116 0.05592 0.02014 0.0
C897 C 0.48066 0.05123 0.97251 0.0
C898 C 0.47809 0.03123 0.96912 0.0
C899 C 0.55946 0.06801 0.97953 0.0
C900 C 0.56661 0.07672 0.96435 0.0
C901 C 0.56565 0.09539 0.96294 0.0
C902 C 0.57541 0.06667 0.95178 0.0
C903 C 0.58317 0.07522 0.93767 0.0
C904 C 0.57325 0.10384 0.94859 0.0
C905 C 0.58198 0.09376 0.93589 0.0
C906 C 0.55319 0.08239 0.0451 0.0
C907 C 0.52836 0.03981 0.03816 0.0
C908 C 0.5442 0.02921 0.078 0.0
C909 C 0.54454 0.02215 0.09537 0.0
C910 C 0.55632 0.01159 0.10006 0.0
C911 C 0.53232 0.02624 0.10753 0.0
C912 C 0.53177 0.0199 0.12444 0.0
C913 C 0.55576 1.00519 0.11706 0.0
C914 C 0.54354 0.00941 0.12933 0.0
C915 C 0.56093 0.01408 0.01105 0.0
H916 H 0.55904 0.10334 0.97288 0.0
H917 H 0.57652 0.05239 0.95317 0.0
H918 H 0.57251 0.11823 0.9474 0.0
H919 H 0.58806 0.10048 0.92492 0.0
H920 H 0.56585 0.00831 0.0907 0.0
H921 H 0.52322 0.03445 0.10387 0.0
H922 H 0.56477 0.99698 0.12074 0.0
H923 H 0.54315 1.00441 0.14247 0.0
Gd924 Gd 0.28116 0.25528 0.24619 0.0
Gd925 Gd 0.3032 0.30501 0.26794 0.0
C926 C 0.36082 0.32797 0.25576 0.0
C927 C 0.37684 0.33655 0.28685 0.0
C928 C 0.34484 0.32262 0.28254 0.0
C929 C 0.34483 0.32133 0.26351 0.0
C930 C 0.36076 0.33094 0.29453 0.0
C931 C 0.37687 0.33499 0.26746 0.0
C932 C 0.36009 0.32837 0.23665 0.0
C933 C 0.34365 0.32323 0.22603 0.0
N934 N 0.32897 0.31523 0.25278 0.0
C935 C 0.3282 0.31702 0.23442 0.0
H936 H 0.31581 0.31373 0.22601 0.0
C937 C 0.32801 0.32239 0.30826 0.0
N938 N 0.32902 0.31759 0.28945 0.0
C939 C 0.34339 0.33043 0.32076 0.0
C940 C 0.3599 0.3344 0.31388 0.0
H941 H 0.31524 0.31958 0.31368 0.0
H942 H 0.38927 0.34004 0.26174 0.0
H943 H 0.27078 0.24548 0.29052 0.0
H944 H 0.37204 0.33337 0.23017 0.0
H945 H 0.34282 0.32416 0.21136 0.0
H946 H 0.3892 0.34282 0.29583 0.0
H947 H 0.26392 0.25483 0.20211 0.0
H948 H 0.2162 0.21762 0.28562 0.0
H949 H 0.24569 0.22874 0.30369 0.0
H950 H 0.19446 0.21971 0.22404 0.0
H951 H 0.34248 0.33369 0.33567 0.0
H952 H 0.37179 0.34087 0.32356 0.0
H953 H 0.19737 0.21458 0.25623 0.0
H954 H 0.23551 0.24506 0.18345 0.0
N955 N 0.257 0.24403 0.26364 0.0
C956 C 0.22746 0.22508 0.27938 0.0
C957 C 0.24407 0.23117 0.28954 0.0
C958 C 0.22552 0.22868 0.26133 0.0
C959 C 0.24062 0.23846 0.25372 0.0
C960 C 0.25864 0.24066 0.28155 0.0
N961 N 0.25359 0.2503 0.22809 0.0
C962 C 0.23888 0.24174 0.23559 0.0
C963 C 0.23613 0.24454 0.19821 0.0
C964 C 0.2209 0.23665 0.20595 0.0
C965 C 0.25239 0.25083 0.20932 0.0
C966 C 0.22214 0.23479 0.22466 0.0
H967 H 0.20837 0.23126 0.19713 0.0
O968 O 0.28514 0.2395 0.21932 0.0
O969 O 0.30539 0.2792 0.24847 0.0
O970 O 0.28797 0.30471 0.24054 0.0
O971 O 0.28578 0.2739 0.22426 0.0
O972 O 0.3088 0.25244 0.25189 0.0
O973 O 0.2744 0.22412 0.24083 0.0
O974 O 0.29503 0.32623 0.28755 0.0
O975 O 0.27698 0.2832 0.25946 0.0
O976 O 0.29385 0.25493 0.27506 0.0
O977 O 0.31 0.28688 0.28809 0.0
O978 O 0.28292 0.2961 0.28734 0.0
O979 O 0.30114 0.33162 0.25987 0.0
C980 C 0.3167 0.27012 0.25128 0.0
C981 C 0.20727 0.22524 0.23232 0.0
C982 C 0.20895 0.22225 0.25061 0.0
C983 C 0.27897 0.22278 0.22383 0.0
C984 C 0.28751 0.20759 0.21726 0.0
C985 C 0.28239 0.19682 0.19898 0.0
C986 C 0.29926 0.20244 0.22934 0.0
C987 C 0.30535 0.18616 0.22327 0.0
C988 C 0.28867 0.18068 0.19293 0.0
C989 C 0.30001 0.17521 0.20512 0.0
C990 C 0.28477 0.29179 0.22479 0.0
C991 C 0.27047 0.2853 0.27481 0.0
C992 C 0.29623 0.33799 0.27596 0.0
C993 C 0.30212 0.35849 0.28348 0.0
C994 C 0.31609 0.36725 0.2977 0.0
C995 C 0.29192 0.36927 0.27666 0.0
C996 C 0.29477 0.38874 0.28435 0.0
C997 C 0.31955 0.3871 0.30499 0.0
C998 C 0.30885 0.39791 0.29837 0.0
C999 C 0.30415 0.26832 0.28884 0.0
H1000 H 0.27315 0.2006 0.18959 0.0
H1001 H 0.30305 0.21051 0.2436 0.0
H1002 H 0.28443 0.17217 0.17895 0.0
H1003 H 0.30443 0.16234 0.20052 0.0
H1004 H 0.3241 0.35888 0.30317 0.0
H1005 H 0.28129 0.36225 0.26546 0.0
H1006 H 0.33029 0.39403 0.31596 0.0
H1007 H 0.31132 0.41314 0.30435 0.0
Gd1008 Gd 0.56677 0.5212 0.01949 0.0
Gd1009 Gd 0.56005 0.56648 0.03578 0.0
C1010 C 0.58088 0.59212 0.09754 0.0
C1011 C 0.55368 0.59195 0.11181 0.0
C1012 C 0.55253 0.57859 0.07849 0.0
C1013 C 0.57096 0.5832 0.07996 0.0
C1014 C 0.5438 0.58337 0.09443 0.0
C1015 C 0.57215 0.59623 0.11338 0.0
C1016 C 0.59936 0.59723 0.09872 0.0
C1017 C 0.60766 0.59389 0.08264 0.0
N1018 N 0.57922 0.57981 0.06426 0.0
C1019 C 0.59745 0.58536 0.06552 0.0
H1020 H 0.60473 0.58301 0.05375 0.0
C1021 C 0.52516 0.56872 0.05936 0.0
N1022 N 0.54315 0.5707 0.06143 0.0
C1023 C 0.51606 0.57299 0.07473 0.0
C1024 C 0.52537 0.58015 0.09239 0.0
H1025 H 0.51756 0.56448 0.04578 0.0
H1026 H 0.5796 0.60315 0.12686 0.0
H1027 H 0.52473 0.51004 0.99917 0.0
H1028 H 0.60736 0.60402 0.11194 0.0
H1029 H 0.622 0.59786 0.08338 0.0
H1030 H 0.54715 0.59572 0.12409 0.0
H1031 H 0.60728 0.51478 0.01571 0.0
H1032 H 0.52443 0.48897 0.94073 0.0
H1033 H 0.50843 0.49753 0.96785 0.0
H1034 H 0.58465 0.48727 0.93469 0.0
H1035 H 0.50187 0.5712 0.07283 0.0
H1036 H 0.51829 0.5838 0.10424 0.0
H1037 H 0.55295 0.48535 0.92848 0.0
H1038 H 0.62489 0.50398 0.99087 0.0
N1039 N 0.54997 0.50963 0.99002 0.0
C1040 C 0.53171 0.49469 0.95449 0.0
C1041 C 0.52263 0.49947 0.96975 0.0
C1042 C 0.55001 0.49682 0.95726 0.0
C1043 C 0.5589 0.50442 0.97544 0.0
C1044 C 0.53197 0.50667 0.98754 0.0
N1045 N 0.58471 0.51213 0.99673 0.0
C1046 C 0.5768 0.50572 0.97889 0.0
C1047 C 0.61144 0.50457 0.98728 0.0
C1048 C 0.60386 0.49903 0.96868 0.0
C1049 C 0.6015 0.51073 1.00127 0.0
C1050 C 0.58623 0.49917 0.96433 0.0
H1051 H 0.61153 0.49407 0.95788 0.0
O1052 O 0.57646 0.50179 0.03401 0.0
O1053 O 0.56714 0.54176 0.04669 0.0
O1054 O 0.58738 0.57193 0.02649 0.0
O1055 O 0.59035 0.54232 0.01112 0.0
O1056 O 0.58995 0.53268 0.04189 0.0
O1057 O 0.5515 0.49131 0.01624 0.0
O1058 O 0.54068 0.58116 0.02779 0.0
O1059 O 0.55303 0.54233 0.01059 0.0
O1060 O 0.54156 0.51688 0.0338 0.0
O1061 O 0.53332 0.54431 0.03061 0.0
O1062 O 0.56441 0.56936 0.00586 0.0
O1063 O 0.56843 0.5975 0.03766 0.0
C1064 C 0.58232 0.54166 0.05443 0.0
C1065 C 0.5776 0.49226 0.94608 0.0
C1066 C 0.55953 0.49113 0.94254 0.0
C1067 C 0.56301 0.4872 0.0273 0.0
C1068 C 0.56692 0.46864 0.02229 0.0
C1069 C 0.57712 0.46438 0.00776 0.0
C1070 C 0.56147 0.45554 0.03384 0.0
C1071 C 0.56654 0.43833 0.03142 0.0
C1072 C 0.58234 0.44716 0.00534 0.0
C1073 C 0.57722 0.43419 0.01729 0.0
C1074 C 0.59641 0.56126 0.01677 0.0
C1075 C 0.55724 0.55178 0.99752 0.0
C1076 C 0.55251 0.59774 0.03147 0.0
C1077 C 0.54823 0.61548 0.02903 0.0
C1078 C 0.53241 0.61913 0.03474 0.0
C1079 C 0.55954 0.62838 0.02016 0.0
C1080 C 0.55508 0.64511 0.01715 0.0
C1081 C 0.52804 0.63591 0.03188 0.0
C1082 C 0.53933 0.6489 0.02315 0.0
C1083 C 0.52953 0.52669 0.03408 0.0
H1084 H 0.58119 0.47428 0.9985 0.0
H1085 H 0.55371 0.45904 0.0452 0.0
H1086 H 0.59044 0.44393 0.99432 0.0
H1087 H 0.58137 0.42091 0.01538 0.0
H1088 H 0.52351 0.60905 0.04141 0.0
H1089 H 0.57162 0.62531 0.01541 0.0
H1090 H 0.51583 0.63877 0.03629 0.0
H1091 H 0.53559 0.66171 0.02073 0.0
Gd1092 Gd 0.78633 0.27497 0.26279 0.0
Gd1093 Gd 0.82816 0.30694 0.26285 0.0
C1094 C 0.83078 0.36848 0.25634 0.0
C1095 C 0.84114 0.36889 0.22565 0.0
C1096 C 0.83645 0.33953 0.23842 0.0
C1097 C 0.83119 0.34897 0.25463 0.0
C1098 C 0.84183 0.34961 0.224 0.0
C1099 C 0.83556 0.37825 0.24171 0.0
C1100 C 0.82576 0.37777 0.2728 0.0
C1101 C 0.82157 0.36779 0.28725 0.0
N1102 N 0.82688 0.33937 0.26883 0.0
C1103 C 0.8223 0.34859 0.28511 0.0
H1104 H 0.81865 0.34133 0.29648 0.0
C1105 C 0.84411 0.31191 0.22233 0.0
N1106 N 0.83687 0.32078 0.23695 0.0
C1107 C 0.84949 0.32133 0.20774 0.0
C1108 C 0.84817 0.34019 0.20848 0.0
H1109 H 0.84522 0.29732 0.22178 0.0
H1110 H 0.83526 0.3932 0.24281 0.0
H1111 H 0.79043 0.23675 0.23073 0.0
H1112 H 0.82519 0.39268 0.27455 0.0
H1113 H 0.81767 0.37486 0.30005 0.0
H1114 H 0.84512 0.37679 0.21465 0.0
H1115 H 0.76519 0.28561 0.3008 0.0
H1116 H 0.78862 0.18958 0.25837 0.0
H1117 H 0.79185 0.20353 0.22986 0.0
H1118 H 0.77211 0.21158 0.31865 0.0
H1119 H 0.85475 0.31408 0.19601 0.0
H1120 H 0.85245 0.3475 0.19718 0.0
H1121 H 0.78172 0.19292 0.29163 0.0
H1122 H 0.75638 0.27181 0.32858 0.0
N1123 N 0.78727 0.24255 0.25995 0.0
C1124 C 0.78817 0.20443 0.25898 0.0
C1125 C 0.78994 0.2122 0.24284 0.0
C1126 C 0.78489 0.21553 0.27541 0.0
C1127 C 0.78434 0.23478 0.27547 0.0
C1128 C 0.78928 0.23129 0.24352 0.0
N1129 N 0.77711 0.26326 0.28981 0.0
C1130 C 0.77906 0.2454 0.29081 0.0
C1131 C 0.76293 0.26436 0.31818 0.0
C1132 C 0.76637 0.24689 0.32031 0.0
C1133 C 0.76787 0.27208 0.30246 0.0
C1134 C 0.774 0.23689 0.30628 0.0
H1135 H 0.76231 0.24081 0.33239 0.0
O1136 O 0.76022 0.27981 0.26356 0.0
O1137 O 0.80021 0.30731 0.26861 0.0
O1138 O 0.82309 0.31098 0.2924 0.0
O1139 O 0.79877 0.28521 0.29275 0.0
O1140 O 0.77751 0.29812 0.25051 0.0
O1141 O 0.76423 0.25534 0.24404 0.0
O1142 O 0.85258 0.29943 0.25706 0.0
O1143 O 0.81423 0.27454 0.25695 0.0
O1144 O 0.79599 0.27005 0.23494 0.0
O1145 O 0.81351 0.29996 0.23388 0.0
O1146 O 0.83555 0.28429 0.27702 0.0
O1147 O 0.85303 0.32486 0.27849 0.0
C1148 C 0.78944 0.31328 0.2586 0.0
C1149 C 0.77572 0.21824 0.30677 0.0
C1150 C 0.78118 0.2076 0.29138 0.0
C1151 C 0.75296 0.26466 0.25059 0.0
C1152 C 0.73554 0.25335 0.25348 0.0
C1153 C 0.73297 0.24274 0.26784 0.0
C1154 C 0.72097 0.25488 0.24247 0.0
C1155 C 0.70381 0.24652 0.24618 0.0
C1156 C 0.71577 0.23426 0.27152 0.0
C1157 C 0.70118 0.23633 0.26086 0.0
C1158 C 0.81215 0.29966 0.30108 0.0
C1159 C 0.82454 0.26893 0.2678 0.0
C1160 C 0.86204 0.31355 0.27008 0.0
C1161 C 0.88072 0.32142 0.26783 0.0
C1162 C 0.88635 0.32546 0.25072 0.0
C1163 C 0.89331 0.32309 0.28291 0.0
C1164 C 0.91143 0.3289 0.28099 0.0
C1165 C 0.90444 0.33119 0.24876 0.0
C1166 C 0.91696 0.33297 0.26384 0.0
C1167 C 0.80263 0.28347 0.22568 0.0
H1168 H 0.7441 0.24123 0.27634 0.0
H1169 H 0.72298 0.2633 0.23151 0.0
H1170 H 0.71375 0.22632 0.28278 0.0
H1171 H 0.6879 0.22997 0.264 0.0
H1172 H 0.8769 0.32396 0.23885 0.0
H1173 H 0.88904 0.31964 0.29608 0.0
H1174 H 0.90876 0.33409 0.23549 0.0
H1175 H 0.93096 0.33722 0.26207 0.0
Gd1176 Gd 0.04866 0.55781 0.51173 0.0
Gd1177 Gd 0.06338 0.55509 0.56099 0.0
C1178 C 0.12076 0.5808 0.58837 0.0
C1179 C 0.13145 0.55215 0.58739 0.0
C1180 C 0.10092 0.54925 0.57553 0.0
C1181 C 0.10391 0.56914 0.57992 0.0
C1182 C 0.11447 0.54054 0.58005 0.0
C1183 C 0.13462 0.57225 0.59143 0.0
C1184 C 0.12304 0.60063 0.59423 0.0
C1185 C 0.10848 0.60824 0.59281 0.0
N1186 N 0.09008 0.57696 0.5773 0.0
C1187 C 0.09198 0.59611 0.58482 0.0
H1188 H 0.08094 0.60244 0.58512 0.0
C1189 C 0.07991 0.51889 0.56844 0.0
N1190 N 0.08438 0.53833 0.56848 0.0
C1191 C 0.09284 0.50962 0.57268 0.0
C1192 C 0.11032 0.52044 0.57804 0.0
H1193 H 0.06633 0.51037 0.56452 0.0
H1194 H 0.14764 0.58102 0.59769 0.0
H1195 H 0.03223 0.51048 0.48699 0.0
H1196 H 0.13576 0.61003 0.60068 0.0
H1197 H 0.10987 0.62342 0.5982 0.0
H1198 H 0.14204 0.54569 0.59068 0.0
H1199 H 0.04488 0.60196 0.50801 0.0
H1200 H 0.97754 0.50158 0.46992 0.0
H1201 H 0.0038 0.48894 0.47313 0.0
H1202 H 0.97011 0.56539 0.47903 0.0
H1203 H 0.08927 0.49414 0.5719 0.0
H1204 H 0.12031 0.51325 0.58147 0.0
H1205 H 0.96528 0.53024 0.4717 0.0
H1206 H 0.02195 0.61762 0.49935 0.0
N1207 N 0.02233 0.53541 0.49495 0.0
C1208 C 0.98998 0.51117 0.47688 0.0
C1209 C 0.00475 0.504 0.47869 0.0
C1210 C 0.99178 0.5309 0.48285 0.0
C1211 C 0.00827 0.54281 0.49204 0.0
C1212 C 0.02096 0.51643 0.48716 0.0
N1213 N 0.02718 0.57382 0.50385 0.0
C1214 C 0.01085 0.56263 0.49643 0.0
C1215 C 0.0185 0.60218 0.49877 0.0
C1216 C 1.00121 0.59109 0.49293 0.0
C1217 C 0.03143 0.5932 0.50373 0.0
C1218 C 0.99729 0.57103 0.49115 0.0
H1219 H 0.99123 0.59803 0.48885 0.0
O1220 O 0.06521 0.58019 0.50003 0.0
O1221 O 0.06952 0.56723 0.536 0.0
O1222 O 0.06348 0.58536 0.55855 0.0
O1223 O 0.04296 0.58186 0.53295 0.0
O1224 O 0.07713 0.55669 0.51019 0.0
O1225 O 0.05526 0.55063 0.48345 0.0
O1226 O 0.04679 0.53356 0.5736 0.0
O1227 O 0.04265 0.54583 0.53673 0.0
O1228 O 0.04806 0.52752 0.51456 0.0
O1229 O 0.06896 0.53086 0.53966 0.0
O1230 O 0.03453 0.55501 0.56243 0.0
O1231 O 0.05758 0.5633 0.58947 0.0
C1232 C 0.0823 0.56439 0.52748 0.0
C1233 C 0.98066 0.55917 0.48302 0.0
C1234 C 0.97792 0.53915 0.47888 0.0
C1235 C 0.06472 0.56837 0.48418 0.0
C1236 C 0.0647 0.57615 0.46717 0.0
C1237 C 0.0575 0.59163 0.46522 0.0
C1238 C 0.07426 0.56913 0.45338 0.0
C1239 C 0.07712 0.57775 0.43784 0.0
C1240 C 0.05978 0.59984 0.44934 0.0
C1241 C 0.06963 0.59298 0.43566 0.0
C1242 C 0.05118 0.59104 0.54965 0.0
C1243 C 0.02964 0.54826 0.54495 0.0
C1244 C 0.04759 0.54589 0.58918 0.0
C1245 C 0.04734 0.53843 0.60636 0.0
C1246 C 0.05852 0.52712 0.61082 0.0
C1247 C 0.03431 0.54156 0.6178 0.0
C1248 C 0.03227 0.53336 0.63364 0.0
C1249 C 0.05645 0.51886 0.62673 0.0
C1250 C 0.04333 0.52198 0.63819 0.0
C1251 C 0.06062 0.52182 0.52296 0.0
H1252 H 0.05057 0.59772 0.476 0.0
H1253 H 0.08014 0.55743 0.45512 0.0
H1254 H 0.05437 0.61189 0.44791 0.0
H1255 H 0.07194 0.6 0.42377 0.0
H1256 H 0.06866 0.52456 0.60208 0.0
H1257 H 0.02559 0.55024 0.61428 0.0
H1258 H 0.06495 0.50999 0.63014 0.0
H1259 H 0.04177 0.51555 0.6505 0.0
Gd1260 Gd 0.82453 0.78717 0.2731 0.0
Gd1261 Gd 0.78042 0.79639 0.26791 0.0
C1262 C 0.75127 0.783 0.20872 0.0
C1263 C 0.74759 0.81444 0.20541 0.0
C1264 C 0.76245 0.81052 0.23416 0.0
C1265 C 0.76013 0.79117 0.22686 0.0
C1266 C 0.75579 0.82228 0.22373 0.0
C1267 C 0.74537 0.79483 0.1979 0.0
C1268 C 0.74807 0.7631 0.20222 0.0
C1269 C 0.7531 0.75176 0.21395 0.0
N1270 N 0.76566 0.78013 0.23787 0.0
C1271 C 0.76163 0.76047 0.23186 0.0
H1272 H 0.76554 0.75125 0.24034 0.0
C1273 C 0.77015 0.83574 0.26082 0.0
N1274 N 0.7701 0.81754 0.25198 0.0
C1275 C 0.76395 0.84806 0.25101 0.0
C1276 C 0.75695 0.84138 0.23229 0.0
H1277 H 0.77532 0.8408 0.2754 0.0
H1278 H 0.73863 0.78884 0.18393 0.0
H1279 H 0.84306 0.833 0.29786 0.0
H1280 H 0.74136 0.7563 0.18837 0.0
H1281 H 0.75045 0.73629 0.2092 0.0
H1282 H 0.74249 0.82328 0.19714 0.0
H1283 H 0.82731 0.74155 0.26756 0.0
H1284 H 0.86543 0.82907 0.35118 0.0
H1285 H 0.85862 0.84868 0.32872 0.0
H1286 H 0.85964 0.7614 0.34615 0.0
H1287 H 0.76446 0.86262 0.25794 0.0
H1288 H 0.75197 0.85088 0.22476 0.0
H1289 H 0.86548 0.79643 0.35766 0.0
H1290 H 0.83687 0.72006 0.28647 0.0
N1291 N 0.84029 0.80418 0.30232 0.0
C1292 C 0.85849 0.82195 0.3375 0.0
C1293 C 0.85473 0.83306 0.32485 0.0
C1294 C 0.85388 0.80182 0.33207 0.0
C1295 C 0.84481 0.79324 0.3141 0.0
C1296 C 0.84581 0.82394 0.30718 0.0
N1297 N 0.83369 0.76595 0.28997 0.0
C1298 C 0.84142 0.77352 0.30771 0.0
C1299 C 0.83809 0.73502 0.29268 0.0
C1300 C 0.84506 0.74231 0.31134 0.0
C1301 C 0.83268 0.74717 0.28204 0.0
C1302 C 0.84713 0.76185 0.31898 0.0
H1303 H 0.84933 0.73289 0.31954 0.0
O1304 O 0.83795 0.7756 0.25031 0.0
O1305 O 0.80269 0.78896 0.25292 0.0
O1306 O 0.77754 0.76487 0.27087 0.0
O1307 O 0.80505 0.7614 0.2815 0.0
O1308 O 0.81172 0.76411 0.24849 0.0
O1309 O 0.85151 0.80229 0.26872 0.0
O1310 O 0.76606 0.80701 0.29041 0.0
O1311 O 0.80256 0.79502 0.28773 0.0
O1312 O 0.82755 0.81844 0.26884 0.0
O1313 O 0.79975 0.82379 0.26216 0.0
O1314 O 0.79271 0.81919 0.29315 0.0
O1315 O 0.75437 0.77939 0.27279 0.0
C1316 C 0.80163 0.7733 0.24148 0.0
C1317 C 0.85533 0.77017 0.33722 0.0
C1318 C 0.85866 0.79012 0.34376 0.0
C1319 C 0.85251 0.78941 0.25428 0.0
C1320 C 0.86921 0.78333 0.25291 0.0
C1321 C 0.87176 0.76851 0.2618 0.0
C1322 C 0.88206 0.79115 0.2415 0.0
C1323 C 0.89723 0.78399 0.23905 0.0
C1324 C 0.8863 0.76099 0.25896 0.0
C1325 C 0.89883 0.76851 0.24762 0.0
C1326 C 0.78756 0.75448 0.27717 0.0
C1327 C 0.80373 0.81055 0.29927 0.0
C1328 C 0.75235 0.79216 0.28681 0.0
C1329 C 0.73474 0.79638 0.28753 0.0
C1330 C 0.7293 0.80681 0.2749 0.0
C1331 C 0.72352 0.79073 0.3013 0.0
C1332 C 0.70705 0.79552 0.30218 0.0
C1333 C 0.71326 0.81184 0.276 0.0
C1334 C 0.70222 0.80623 0.28947 0.0
C1335 C 0.81745 0.82975 0.26466 0.0
H1336 H 0.86236 0.76246 0.27069 0.0
H1337 H 0.88027 0.80271 0.23467 0.0
H1338 H 0.88783 0.74919 0.26554 0.0
H1339 H 0.90983 0.76208 0.2455 0.0
H1340 H 0.73748 0.81114 0.26419 0.0
H1341 H 0.72749 0.7826 0.31112 0.0
H1342 H 0.70932 0.82006 0.26628 0.0
H1343 H 0.68976 0.8102 0.28993 0.0
Gd1344 Gd 0.79942 0.31241 0.79562 0.0
Gd1345 Gd 0.81714 0.2931 0.75316 0.0
C1346 C 0.79614 0.23205 0.71806 0.0
C1347 C 0.82258 0.22026 0.71796 0.0
C1348 C 0.82338 0.25185 0.73631 0.0
C1349 C 0.80574 0.24929 0.73028 0.0
C1350 C 0.83209 0.23748 0.72997 0.0
C1351 C 0.80463 0.21754 0.71205 0.0
C1352 C 0.77834 0.22995 0.71211 0.0
C1353 C 0.77049 0.24477 0.71838 0.0
N1354 N 0.798 0.26369 0.73623 0.0
C1355 C 0.78052 0.26158 0.73045 0.0
H1356 H 0.77382 0.27239 0.73544 0.0
C1357 C 0.85026 0.2728 0.75192 0.0
N1358 N 0.83224 0.26872 0.74776 0.0
C1359 C 0.85942 0.25895 0.74622 0.0
C1360 C 0.85026 0.24111 0.73534 0.0
H1361 H 0.85766 0.28693 0.75955 0.0
H1362 H 0.79747 0.20424 0.70266 0.0
H1363 H 0.8455 0.33318 0.80662 0.0
H1364 H 0.77053 0.21693 0.70277 0.0
H1365 H 0.75665 0.2432 0.71405 0.0
H1366 H 0.82905 0.20909 0.71293 0.0
H1367 H 0.76048 0.32344 0.79094 0.0
H1368 H 0.85225 0.38668 0.8441 0.0
H1369 H 0.86468 0.36131 0.82738 0.0
H1370 H 0.79431 0.39692 0.84245 0.0
H1371 H 0.8736 0.26222 0.74989 0.0
H1372 H 0.85743 0.23049 0.73068 0.0
H1373 H 0.82601 0.39973 0.84968 0.0
H1374 H 0.74701 0.34923 0.80322 0.0
N1375 N 0.8212 0.34081 0.81213 0.0
C1376 C 0.84347 0.374 0.83511 0.0
C1377 C 0.85051 0.3597 0.82576 0.0
C1378 C 0.82531 0.37221 0.8321 0.0
C1379 C 0.81442 0.35545 0.82017 0.0
C1380 C 0.83926 0.34334 0.81415 0.0
N1381 N 0.78676 0.33862 0.80321 0.0
C1382 C 0.79669 0.35427 0.8156 0.0
C1383 C 0.76107 0.35107 0.80656 0.0
C1384 C 0.77125 0.3675 0.8188 0.0
C1385 C 0.76899 0.33665 0.79912 0.0
C1386 C 0.78924 0.36924 0.82354 0.0
H1387 H 0.76504 0.3786 0.82474 0.0
O1388 O 0.7723 0.29794 0.79864 0.0
O1389 O 0.7971 0.2879 0.77246 0.0
O1390 O 0.79336 0.30291 0.7431 0.0
O1391 O 0.78258 0.31615 0.77019 0.0
O1392 O 0.79801 0.28209 0.79958 0.0
O1393 O 0.79087 0.31321 0.82329 0.0
O1394 O 0.84012 0.30546 0.7405 0.0
O1395 O 0.8129 0.31906 0.77111 0.0
O1396 O 0.82449 0.30448 0.80581 0.0
O1397 O 0.83234 0.28721 0.77855 0.0
O1398 O 0.83868 0.31925 0.76616 0.0
O1399 O 0.81382 0.29698 0.72415 0.0
C1400 C 0.7962 0.27502 0.78191 0.0
C1401 C 0.79986 0.3854 0.83609 0.0
C1402 C 0.81787 0.38694 0.84029 0.0
C1403 C 0.77471 0.30304 0.81685 0.0
C1404 C 0.76606 0.28875 0.82724 0.0
C1405 C 0.74787 0.28602 0.82889 0.0
C1406 C 0.77569 0.27838 0.83607 0.0
C1407 C 0.76705 0.2653 0.84647 0.0
C1408 C 0.73931 0.27296 0.83941 0.0
C1409 C 0.74888 0.26258 0.84822 0.0
C1410 C 0.78169 0.31095 0.7516 0.0
C1411 C 0.82835 0.3296 0.77245 0.0
C1412 C 0.83093 0.30389 0.72468 0.0
C1413 C 0.83992 0.30906 0.70886 0.0
C1414 C 0.8563 0.30507 0.70573 0.0
C1415 C 0.8325 0.31897 0.69736 0.0
C1416 C 0.84143 0.32495 0.68269 0.0
C1417 C 0.86512 0.31092 0.69081 0.0
C1418 C 0.85768 0.32087 0.67924 0.0
C1419 C 0.83477 0.29438 0.79695 0.0
H1420 H 0.74036 0.29418 0.82223 0.0
H1421 H 0.78983 0.28065 0.83515 0.0
H1422 H 0.72533 0.27103 0.8409 0.0
H1423 H 0.74224 0.25274 0.8567 0.0
H1424 H 0.86224 0.29753 0.71481 0.0
H1425 H 0.82007 0.32248 0.70008 0.0
H1426 H 0.87777 0.30798 0.68837 0.0
H1427 H 0.86474 0.3258 0.66792 0.0
Gd1428 Gd 0.78262 0.76656 0.75631 0.0
Gd1429 Gd 0.80931 0.81598 0.77515 0.0
C1430 C 0.86527 0.83507 0.75752 0.0
C1431 C 0.88315 0.84602 0.7876 0.0
C1432 C 0.85147 0.83066 0.78586 0.0
C1433 C 0.84997 0.82898 0.7666 0.0
C1434 C 0.86808 0.83959 0.79658 0.0
C1435 C 0.88177 0.84364 0.76811 0.0
C1436 C 0.86362 0.83235 0.73802 0.0
C1437 C 0.84713 0.82346 0.72799 0.0
N1438 N 0.83368 0.82123 0.75672 0.0
C1439 C 0.83233 0.8179 0.73753 0.0
H1440 H 0.82021 0.8102 0.72909 0.0
C1441 C 0.83741 0.82879 0.81339 0.0
N1442 N 0.83664 0.82452 0.79425 0.0
C1443 C 0.8535 0.83731 0.82454 0.0
C1444 C 0.86897 0.84256 0.8161 0.0
H1445 H 0.82544 0.82673 0.82023 0.0
H1446 H 0.89355 0.84858 0.76134 0.0
H1447 H 0.76826 0.76627 0.80051 0.0
H1448 H 0.87506 0.8367 0.73057 0.0
H1449 H 0.84578 0.82067 0.71284 0.0
H1450 H 0.89592 0.853 0.79562 0.0
H1451 H 0.76997 0.75855 0.70989 0.0
H1452 H 0.71241 0.74362 0.79349 0.0
H1453 H 0.74076 0.75585 0.81376 0.0
H1454 H 0.69676 0.73304 0.72769 0.0
H1455 H 0.85382 0.84048 0.83964 0.0
H1456 H 0.88139 0.84958 0.82477 0.0
H1457 H 0.69625 0.73512 0.76156 0.0
H1458 H 0.74292 0.74628 0.68832 0.0
N1459 N 0.75655 0.76017 0.77203 0.0
C1460 C 0.72463 0.7483 0.78735 0.0
C1461 C 0.7406 0.75505 0.79879 0.0
C1462 C 0.72459 0.74763 0.76812 0.0
C1463 C 0.74088 0.75407 0.76075 0.0
C1464 C 0.75644 0.76078 0.79093 0.0
N1465 N 0.75681 0.75957 0.73479 0.0
C1466 C 0.74103 0.75364 0.74167 0.0
C1467 C 0.74209 0.74872 0.70327 0.0
C1468 C 0.72578 0.74362 0.71018 0.0
C1469 C 0.75747 0.75622 0.71573 0.0
C1470 C 0.72509 0.74573 0.72951 0.0
H1471 H 0.71388 0.73737 0.70046 0.0
O1472 O 0.78875 0.74842 0.73212 0.0
O1473 O 0.80842 0.78812 0.75716 0.0
O1474 O 0.79801 0.81839 0.74712 0.0
O1475 O 0.78269 0.78603 0.73494 0.0
O1476 O 0.80929 0.7612 0.76203 0.0
O1477 O 0.77424 0.73548 0.75356 0.0
O1478 O 0.80356 0.83387 0.79978 0.0
O1479 O 0.78373 0.79415 0.77479 0.0
O1480 O 0.79275 0.76538 0.78527 0.0
O1481 O 0.81014 0.79708 0.79715 0.0
O1482 O 0.78238 0.82091 0.76985 0.0
O1483 O 0.81829 0.84702 0.77874 0.0
C1484 C 0.81866 0.77807 0.76072 0.0
C1485 C 0.70903 0.73924 0.73685 0.0
C1486 C 0.70876 0.74033 0.75611 0.0
C1487 C 0.78007 0.73266 0.73711 0.0
C1488 C 0.78511 0.71492 0.73065 0.0
C1489 C 0.77866 0.70473 0.71241 0.0
C1490 C 0.79551 0.70768 0.74227 0.0
C1491 C 0.79921 0.68997 0.73566 0.0
C1492 C 0.78241 0.68718 0.70582 0.0
C1493 C 0.7926 0.67974 0.7174 0.0
C1494 C 0.78819 0.80449 0.73368 0.0
C1495 C 0.77327 0.80404 0.77151 0.0
C1496 C 0.81217 0.84981 0.79501 0.0
C1497 C 0.8052 0.86653 0.79966 0.0
C1498 C 0.81156 0.87938 0.81677 0.0
C1499 C 0.79296 0.87024 0.78711 0.0
C1500 C 0.78718 0.88692 0.7917 0.0
C1501 C 0.80573 0.89607 0.82128 0.0
C1502 C 0.79355 0.89989 0.80873 0.0
C1503 C 0.80313 0.77885 0.79874 0.0
H1504 H 0.77057 0.7103 0.70334 0.0
H1505 H 0.80041 0.71557 0.75641 0.0
H1506 H 0.77737 0.67931 0.69175 0.0
H1507 H 0.7955 0.66613 0.71202 0.0
H1508 H 0.82116 0.87659 0.82652 0.0
H1509 H 0.78811 0.8604 0.7738 0.0
H1510 H 0.81072 0.90607 0.83442 0.0
H1511 H 0.78914 0.91294 0.81223 0.0
Gd1512 Gd 0.58141 0.56104 0.54267 0.0
Gd1513 Gd 0.53755 0.53872 0.51965 0.0
C1514 C 0.50386 0.479 0.52547 0.0
C1515 C 0.49547 0.46277 0.49301 0.0
C1516 C 0.51499 0.4954 0.50081 0.0
C1517 C 0.51421 0.49537 0.51961 0.0
C1518 C 0.50544 0.47919 0.48725 0.0
C1519 C 0.49464 0.4627 0.51209 0.0
C1520 C 0.50302 0.47944 0.54461 0.0
C1521 C 0.51263 0.49574 0.55742 0.0
N1522 N 0.52352 0.5113 0.53219 0.0
C1523 C 0.52292 0.51146 0.55102 0.0
H1524 H 0.53095 0.52303 0.56154 0.0
C1525 C 0.5236 0.51309 0.47724 0.0
N1526 N 0.52433 0.51165 0.49572 0.0
C1527 C 0.51467 0.49733 0.46328 0.0
C1528 C 0.50569 0.4802 0.4683 0.0
H1529 H 0.52957 0.52665 0.47328 0.0
H1530 H 0.48672 0.45001 0.51635 0.0
H1531 H 0.59336 0.57716 0.50247 0.0
H1532 H 0.49521 0.46721 0.54963 0.0
H1533 H 0.51243 0.49609 0.5723 0.0
H1534 H 0.48809 0.45019 0.48281 0.0
H1535 H 0.58941 0.57173 0.58944 0.0
H1536 H 0.61569 0.63779 0.51609 0.0
H1537 H 0.60674 0.60718 0.49291 0.0
H1538 H 0.61821 0.65287 0.58269 0.0
H1539 H 0.51439 0.49856 0.4487 0.0
H1540 H 0.49851 0.46807 0.45749 0.0
H1541 H 0.61968 0.65469 0.5495 0.0
H1542 H 0.60128 0.60026 0.61475 0.0
N1543 N 0.59381 0.58978 0.53144 0.0
C1544 C 0.60964 0.62446 0.52055 0.0
C1545 C 0.6047 0.60723 0.50747 0.0
C1546 C 0.60737 0.62417 0.53935 0.0
C1547 C 0.59937 0.6064 0.54447 0.0
C1548 C 0.59706 0.58998 0.51318 0.0
N1549 N 0.59182 0.58793 0.56763 0.0
C1550 C 0.59838 0.60543 0.56313 0.0
C1551 C 0.60035 0.60198 0.60031 0.0
C1552 C 0.60614 0.62024 0.59594 0.0
C1553 C 0.59355 0.58589 0.58593 0.0
C1554 C 0.60557 0.6221 0.57718 0.0
H1555 H 0.61163 0.63267 0.6071 0.0
O1556 O 0.59961 0.55209 0.56035 0.0
O1557 O 0.56206 0.53234 0.53115 0.0
O1558 O 0.53532 0.55088 0.55057 0.0
O1559 O 0.56323 0.56819 0.56517 0.0
O1560 O 0.57238 0.5371 0.55848 0.0
O1561 O 0.60681 0.55853 0.53341 0.0
O1562 O 0.51984 0.54778 0.50138 0.0
O1563 O 0.5576 0.56705 0.52964 0.0
O1564 O 0.58375 0.54843 0.51156 0.0
O1565 O 0.55556 0.53136 0.49715 0.0
O1566 O 0.54721 0.56003 0.50163 0.0
O1567 O 0.51502 0.54789 0.53032 0.0
C1568 C 0.5632 0.52393 0.54487 0.0
C1569 C 0.61274 0.63992 0.5721 0.0
C1570 C 0.6136 0.64096 0.55321 0.0
C1571 C 0.6116 0.55342 0.54873 0.0
C1572 C 0.63004 0.56093 0.55675 0.0
C1573 C 0.63569 0.57664 0.57185 0.0
C1574 C 0.64187 0.55057 0.55003 0.0
C1575 C 0.65923 0.55523 0.55866 0.0
C1576 C 0.65312 0.58161 0.58036 0.0
C1577 C 0.66485 0.57089 0.5739 0.0
C1578 C 0.54586 0.56154 0.56568 0.0
C1579 C 0.55708 0.57342 0.51453 0.0
C1580 C 0.50945 0.55073 0.51416 0.0
C1581 C 0.49045 0.54385 0.50837 0.0
C1582 C 0.48287 0.52614 0.4961 0.0
C1583 C 0.47983 0.55593 0.51475 0.0
C1584 C 0.46166 0.55041 0.50899 0.0
C1585 C 0.4647 0.52062 0.49027 0.0
C1586 C 0.45407 0.53268 0.49672 0.0
C1587 C 0.57295 0.53793 0.49647 0.0
H1588 H 0.62668 0.58481 0.57725 0.0
H1589 H 0.63738 0.53855 0.53823 0.0
H1590 H 0.65744 0.59355 0.59218 0.0
H1591 H 0.67815 0.57459 0.58102 0.0
H1592 H 0.49091 0.51671 0.49085 0.0
H1593 H 0.48573 0.56967 0.52416 0.0
H1594 H 0.45887 0.50706 0.48066 0.0
H1595 H 0.44003 0.52837 0.49192 0.0
Gd1596 Gd 0.03344 0.54537 0.04931 0.0
Gd1597 Gd 0.07885 0.55249 0.03536 0.0
C1598 C 0.1157 0.61298 0.04076 0.0
C1599 C 0.11976 0.61464 0.00827 0.0
C1600 C 0.10153 0.58543 0.01616 0.0
C1601 C 0.10476 0.59397 0.03496 0.0
C1602 C 0.10928 0.59553 1.00263 0.0
C1603 C 0.12292 0.62336 0.02729 0.0
C1604 C 0.11932 0.62086 0.05994 0.0
C1605 C 0.11257 0.60963 0.07281 0.0
N1606 N 0.09766 0.58351 0.04763 0.0
C1607 C 0.10193 0.59081 0.0664 0.0
H1608 H 0.09696 0.58241 0.07661 0.0
C1609 C 0.08928 0.55727 0.99298 0.0
N1610 N 0.09128 0.56698 0.01115 0.0
C1611 C 0.09667 0.5667 0.97906 0.0
C1612 C 0.10655 0.58598 0.98387 0.0
H1613 H 0.0817 0.54235 0.98917 0.0
H1614 H 0.13125 0.63801 0.03147 0.0
H1615 H 0.01401 0.5189 0.00709 0.0
H1616 H 0.1276 0.63543 0.06494 0.0
H1617 H 0.11555 0.61544 0.08769 0.0
H1618 H 0.12571 0.62269 0.99806 0.0
H1619 H 0.03109 0.55262 0.09538 0.0
H1620 H 0.98261 0.46466 0.01546 0.0
H1621 H 0.9943 0.48668 0.99425 0.0
H1622 H 0.98612 0.47226 0.08228 0.0
H1623 H 0.09476 0.55908 0.96465 0.0
H1624 H 0.11229 0.59324 0.97306 0.0
H1625 H 0.97979 0.45933 0.04837 0.0
H1626 H 0.01799 0.53414 0.11889 0.0
N1627 N 0.01409 0.5152 0.03546 0.0
C1628 C 0.99135 0.47883 0.02123 0.0
C1629 C 0.99787 0.49123 0.00922 0.0
C1630 C 0.99569 0.48512 0.04059 0.0
C1631 C 0.00716 0.50368 0.04737 0.0
C1632 C 0.0091 0.50956 0.01662 0.0
N1633 N 0.02116 0.52914 0.07242 0.0
C1634 C 0.01075 0.5109 0.06644 0.0
C1635 C 0.01594 0.5274 0.1042 0.0
C1636 C 0.00589 0.50825 0.09839 0.0
C1637 C 0.02329 0.53781 0.09091 0.0
C1638 C 0.00295 0.49985 0.07928 0.0
H1639 H 1.00014 0.50023 0.1087 0.0
O1640 O 0.02153 0.56729 0.06271 0.0
O1641 O 0.05848 0.56663 0.04662 0.0
O1642 O 0.07683 0.55169 0.06591 0.0
O1643 O 0.04859 0.53283 0.06827 0.0
O1644 O 0.04707 0.57223 0.07088 0.0
O1645 O 0.00976 0.54991 0.03553 0.0
O1646 O 0.08915 0.5277 0.02629 0.0
O1647 O 0.05352 0.53108 0.03746 0.0
O1648 O 0.03495 0.54911 0.01948 0.0
O1649 O 0.06421 0.56426 0.01519 0.0
O1650 O 0.06489 0.52688 0.01276 0.0
O1651 O 0.10399 0.55059 0.04854 0.0
C1652 C 0.05966 0.57917 0.06133 0.0
C1653 C 0.99211 0.48105 0.07263 0.0
C1654 C 0.98851 0.47369 0.05332 0.0
C1655 C 0.00867 0.56351 0.04932 0.0
C1656 C 0.99113 0.56335 0.05538 0.0
C1657 C 0.98388 0.5518 0.06796 0.0
C1658 C 0.9823 0.57638 0.04982 0.0
C1659 C 0.96646 0.57821 0.05709 0.0
C1660 C 0.96806 0.55346 0.07512 0.0
C1661 C 0.95942 0.56665 0.06981 0.0
C1662 C 0.06519 0.54117 0.07487 0.0
C1663 C 0.05193 0.51976 0.02178 0.0
C1664 C 0.10363 0.53426 0.03764 0.0
C1665 C 0.11994 0.53253 0.02925 0.0
C1666 C 0.12596 0.54304 0.01545 0.0
C1667 C 0.12905 0.51944 0.03428 0.0
C1668 C 0.14416 0.51708 0.0256 0.0
C1669 C 0.14072 0.54038 0.00658 0.0
C1670 C 0.14982 0.52751 0.01165 0.0
C1671 C 0.04698 0.55888 0.01035 0.0
H1672 H 0.99056 0.54177 0.07248 0.0
H1673 H 0.98808 0.58553 0.04034 0.0
H1674 H 0.96255 0.54464 0.08493 0.0
H1675 H 0.94715 0.56768 0.07553 0.0
H1676 H 0.11928 0.55324 0.01147 0.0
H1677 H 0.12458 0.51134 0.04502 0.0
H1678 H 0.14521 0.54842 0.99584 0.0
H1679 H 0.16142 0.52583 0.00482 0.0
C1680 C 0.03155 0.21163 0.94061 0.0
C1681 C 0.02736 0.22773 0.9513 0.0
C1682 C 0.03484 0.19666 0.94885 0.0
C1683 C 0.02935 0.17502 0.99197 0.0
H1684 H 0.06365 0.14885 0.97166 0.0
C1685 C 0.04994 0.11653 0.02675 0.0
C1686 C 0.05226 0.1001 0.01493 0.0
C1687 C 0.04809 0.13272 0.01959 0.0
C1688 C 0.05389 0.15582 0.97745 0.0
H1689 H 0.02329 0.2403 0.97937 0.0
H1690 H 0.02925 0.21428 0.99386 0.0
H1691 H 0.05798 0.17552 0.95857 0.0
H1692 H 0.05385 0.08755 0.98611 0.0
H1693 H 0.05101 0.11583 0.97359 0.0
H1694 H 0.02536 0.15527 0.01092 0.0
C1695 C 0.02978 0.21314 0.97892 0.0
C1696 C 0.05057 0.17121 0.96986 0.0
C1697 C 0.02643 0.2282 0.97061 0.0
C1698 C 0.05279 0.10028 0.99572 0.0
C1699 C 0.05103 0.11652 0.98854 0.0
C1700 C 0.03274 0.15965 0.99962 0.0
C1701 C 0.03419 0.19715 0.96818 0.0
C1702 C 0.03813 0.18104 0.97687 0.0
C1703 C 0.04829 0.1329 1.00031 0.0
C1704 C 0.04501 0.14971 0.99244 0.0
H1705 H 0.03236 0.21053 0.92571 0.0
H1706 H 0.03773 0.18454 0.93988 0.0
H1707 H 0.01949 0.18186 0.99768 0.0
H1708 H 0.04901 0.11662 0.04152 0.0
H1709 H 0.04624 0.14503 0.02921 0.0
C1710 C 0.15113 0.83123 0.13819 0.0
C1711 C 0.13531 0.83109 0.14653 0.0
C1712 C 0.16636 0.82991 0.14853 0.0
C1713 C 0.18703 0.83499 0.19739 0.0
H1714 H 0.21482 0.80234 0.17324 0.0
C1715 C 0.24147 0.81284 0.23945 0.0
C1716 C 0.25722 0.81195 0.23139 0.0
C1717 C 0.22699 0.81576 0.22912 0.0
C1718 C 0.20739 0.81173 0.18019 0.0
H1719 H 0.1235 0.82997 0.1726 0.0
H1720 H 0.14993 0.82776 0.19055 0.0
H1721 H 0.18936 0.80696 0.15549 0.0
H1722 H 0.26962 0.81269 0.20562 0.0
H1723 H 0.24445 0.81766 0.18761 0.0
H1724 H 0.20501 0.8397 0.22211 0.0
C1725 C 0.15064 0.829 0.17602 0.0
C1726 C 0.19272 0.81441 0.16996 0.0
C1727 C 0.1354 0.83022 0.16567 0.0
C1728 C 0.25783 0.81349 0.21245 0.0
C1729 C 0.2433 0.81626 0.20205 0.0
C1730 C 0.2017 0.83233 0.20761 0.0
C1731 C 0.1663 0.82851 0.16756 0.0
C1732 C 0.18226 0.82605 0.1784 0.0
C1733 C 0.22767 0.81757 0.21025 0.0
C1734 C 0.21211 0.82061 0.19921 0.0
H1735 H 0.15162 0.83177 0.12348 0.0
H1736 H 0.17819 0.82989 0.14154 0.0
H1737 H 0.17953 0.84429 0.20436 0.0
H1738 H 0.24 0.8107 0.25357 0.0
H1739 H 0.21508 0.81614 0.23586 0.0
C1740 C 0.53697 0.83897 0.47555 0.0
C1741 C 0.52836 0.83139 0.45728 0.0
C1742 C 0.5387 0.85839 0.484 0.0
C1743 C 0.52005 0.90031 0.47873 0.0
H1744 H 0.56296 0.93147 0.50953 0.0
C1745 C 0.54157 0.98349 0.49103 0.0
C1746 C 0.54758 0.99394 0.50931 0.0
C1747 C 0.53771 0.96332 0.48705 0.0
C1748 C 0.55079 0.92286 0.50116 0.0
H1749 H 0.51496 0.83861 0.43369 0.0
H1750 H 0.51827 0.87192 0.44799 0.0
H1751 H 0.55963 0.89692 0.49802 0.0
H1752 H 0.55474 0.99151 0.53773 0.0
H1753 H 0.54837 0.95598 0.53066 0.0
H1754 H 0.5116 0.92639 0.48115 0.0
C1755 C 0.52333 0.86298 0.45615 0.0
C1756 C 0.54885 0.90303 0.49457 0.0
C1757 C 0.52154 0.84372 0.44782 0.0
C1758 C 0.54964 0.98376 0.52362 0.0
C1759 C 0.54621 0.96348 0.51952 0.0
C1760 C 0.52211 0.92008 0.48508 0.0
C1761 C 0.53185 0.87069 0.4744 0.0
C1762 C 0.53355 0.89149 0.48295 0.0
C1763 C 0.54035 0.95306 0.50112 0.0
C1764 C 0.53757 0.93168 0.49616 0.0
H1765 H 0.54254 0.82999 0.48324 0.0
H1766 H 0.54529 0.86371 0.4981 0.0
H1767 H 0.50784 0.89196 0.4703 0.0
H1768 H 0.54026 0.99102 0.47967 0.0
H1769 H 0.53338 0.95577 0.47272 0.0
C1770 C 0.53817 0.30018 0.66376 0.0
C1771 C 0.54345 0.31215 0.65083 0.0
C1772 C 0.52139 0.29775 0.67005 0.0
C1773 C 0.48322 0.31928 0.67528 0.0
H1774 H 0.46078 0.26868 0.68508 0.0
C1775 C 0.41345 0.29228 0.705 0.0
C1776 C 0.41588 0.28517 0.72147 0.0
C1777 C 0.42776 0.29755 0.69443 0.0
C1778 C 0.46681 0.28286 0.68229 0.0
H1779 H 0.53504 0.33112 0.63448 0.0
H1780 H 0.50551 0.32687 0.64555 0.0
H1781 H 0.48772 0.27327 0.66941 0.0
H1782 H 0.43557 0.27965 0.74046 0.0
H1783 H 0.46014 0.28834 0.72194 0.0
H1784 H 0.46203 0.32867 0.68841 0.0
C1785 C 0.51453 0.31943 0.65088 0.0
C1786 C 0.48236 0.28557 0.67344 0.0
C1787 C 0.53146 0.32186 0.64452 0.0
C1788 C 0.43311 0.28467 0.72768 0.0
C1789 C 0.44722 0.28968 0.7171 0.0
C1790 C 0.46745 0.31648 0.68401 0.0
C1791 C 0.5092 0.30714 0.6636 0.0
C1792 C 0.49119 0.30396 0.67043 0.0
C1793 C 0.44464 0.29567 0.70013 0.0
C1794 C 0.45945 0.29836 0.68812 0.0
H1795 H 0.54699 0.29247 0.66899 0.0
H1796 H 0.51803 0.28854 0.68016 0.0
H1797 H 0.4896 0.33363 0.67318 0.0
H1798 H 0.40036 0.29277 0.69977 0.0
H1799 H 0.42545 0.30215 0.68137 0.0
C1800 C 0.99768 0.81426 0.60825 0.0
C1801 C 0.00826 0.8142 0.62432 0.0
C1802 C 1.00127 0.83029 0.59979 0.0
C1803 C 0.02902 0.88097 0.60581 0.0
H1804 H 0.02382 0.86818 0.55152 0.0
C1805 C 0.06446 0.92974 0.55757 0.0
C1806 C 0.054 0.93066 0.5417 0.0
C1807 C 0.0574 0.91733 0.56934 0.0
C1808 C 0.02513 0.87197 0.56668 0.0
H1809 H 0.03076 0.83017 0.64439 0.0
H1810 H 0.03787 0.85782 0.62898 0.0
H1811 H 0.014 0.84286 0.569 0.0
H1812 H 0.02804 0.9208 0.52592 0.0
H1813 H 0.01567 0.89866 0.54634 0.0
H1814 H 0.04111 0.91006 0.60317 0.0
C1815 C 0.02626 0.84609 0.62335 0.0
C1816 C 0.0194 0.85751 0.57673 0.0
C1817 C 0.02228 0.83029 0.63213 0.0
C1818 C 0.0363 0.9198 0.53797 0.0
C1819 C 0.02928 0.90731 0.54962 0.0
C1820 C 0.03502 0.89542 0.5957 0.0
C1821 C 0.01595 0.84611 0.6069 0.0
C1822 C 0.02127 0.86183 0.5964 0.0
C1823 C 0.03988 0.90577 0.56518 0.0
C1824 C 0.03308 0.89096 0.57608 0.0
H1825 H 0.98684 0.80181 0.6021 0.0
H1826 H 0.99282 0.83004 0.58739 0.0
H1827 H 0.03047 0.8848 0.62096 0.0
H1828 H 0.07806 0.93847 0.56073 0.0
H1829 H 0.06578 0.91628 0.58128 0.0
C1830 C 0.53534 0.81247 0.86262 0.0
C1831 C 0.5508 0.82562 0.85944 0.0
C1832 C 0.51867 0.81414 0.85625 0.0
C1833 C 0.49882 0.83543 0.82117 0.0
H1834 H 0.45795 0.82899 0.8494 0.0
C1835 C 0.43891 0.8566 0.79575 0.0
C1836 C 0.42402 0.8407 0.79075 0.0
C1837 C 0.45286 0.85588 0.80809 0.0
C1838 C 0.46935 0.83086 0.84151 0.0
H1839 H 0.56103 0.85133 0.84803 0.0
H1840 H 0.5323 0.85452 0.83756 0.0
H1841 H 0.4859 0.82441 0.86272 0.0
H1842 H 0.4114 0.81215 0.79578 0.0
H1843 H 0.43595 0.81098 0.81738 0.0
H1844 H 0.4826 0.84214 0.80017 0.0
C1845 C 0.53288 0.84252 0.84428 0.0
C1846 C 0.4852 0.82809 0.84898 0.0
C1847 C 0.54937 0.84067 0.8503 0.0
C1848 C 0.42269 0.82469 0.79946 0.0
C1849 C 0.43666 0.824 0.81187 0.0
C1850 C 0.48322 0.83844 0.81392 0.0
C1851 C 0.51737 0.8291 0.84685 0.0
C1852 C 0.50012 0.83063 0.83892 0.0
C1853 C 0.45211 0.83925 0.81557 0.0
C1854 C 0.46847 0.83643 0.82409 0.0
H1855 H 0.53614 0.80084 0.8698 0.0
H1856 H 0.50687 0.80357 0.85834 0.0
H1857 H 0.50991 0.83691 0.81284 0.0
H1858 H 0.44008 0.86925 0.78952 0.0
H1859 H 0.4647 0.86784 0.81094 0.0
C1860 C 0.4835 0.18993 0.13727 0.0
C1861 C 0.4859 0.20682 0.12989 0.0
C1862 C 0.48733 0.17374 0.12706 0.0
C1863 C 0.52186 0.16867 0.10081 0.0
H1864 H 0.49909 0.11395 0.08486 0.0
C1865 C 0.54968 0.11536 0.05237 0.0
C1866 C 0.54808 0.09739 0.05726 0.0
C1867 C 0.54253 0.12876 0.06305 0.0
C1868 C 0.5056 0.12919 0.08956 0.0
H1869 H 0.49134 0.21932 0.10521 0.0
H1870 H 0.49829 0.19104 0.08756 0.0
H1871 H 0.48171 0.13579 0.09815 0.0
H1872 H 0.53844 0.07895 0.0768 0.0
H1873 H 0.52561 0.10227 0.09531 0.0
H1874 H 0.54575 0.16218 0.09236 0.0
C1875 C 0.4935 0.19038 0.10114 0.0
C1876 C 0.49567 0.14153 0.09693 0.0
C1877 C 0.48942 0.20644 0.1112 0.0
C1878 C 0.53985 0.09291 0.07302 0.0
C1879 C 0.53251 0.10614 0.08351 0.0
C1880 C 0.53179 0.15635 0.09355 0.0
C1881 C 0.49359 0.17458 0.10958 0.0
C1882 C 0.50372 0.16131 0.10214 0.0
C1883 C 0.53348 0.12392 0.07831 0.0
C1884 C 0.52362 0.13663 0.08764 0.0
H1885 H 0.48063 0.18998 0.15163 0.0
H1886 H 0.48735 0.1615 0.13364 0.0
H1887 H 0.52829 0.18396 0.10533 0.0
H1888 H 0.55599 0.11877 0.04012 0.0
H1889 H 0.54325 0.14245 0.05883 0.0
C1890 C 0.1592 0.34583 0.35245 0.0
C1891 C 0.15052 0.329 0.35848 0.0
C1892 C 0.17314 0.34544 0.34128 0.0
C1893 C 0.18329 0.30995 0.30625 0.0
H1894 H 0.23261 0.33915 0.31222 0.0
C1895 C 0.24084 0.28028 0.28627 0.0
C1896 C 0.25326 0.28973 0.27574 0.0
C1897 C 0.22667 0.28763 0.29138 0.0
C1898 C 0.2187 0.33133 0.3101 0.0
H1899 H 0.1506 0.29959 0.35994 0.0
H1900 H 0.17506 0.29904 0.34093 0.0
H1901 H 0.21238 0.34899 0.33426 0.0
H1902 H 0.26084 0.31442 0.26232 0.0
H1903 H 0.23671 0.32836 0.2728 0.0
H1904 H 0.1898 0.29136 0.28318 0.0
C1905 C 0.17088 0.31226 0.34421 0.0
C1906 C 0.20725 0.33688 0.32271 0.0
C1907 C 0.15695 0.31256 0.35503 0.0
C1908 C 0.25112 0.3066 0.27008 0.0
C1909 C 0.23744 0.31461 0.27607 0.0
C1910 C 0.19467 0.30439 0.2938 0.0
C1911 C 0.17837 0.32827 0.33637 0.0
C1912 C 0.18969 0.32563 0.32129 0.0
C1913 C 0.22533 0.30526 0.28702 0.0
C1914 C 0.21259 0.31455 0.29612 0.0
H1915 H 0.1544 0.35867 0.35516 0.0
H1916 H 0.17893 0.35798 0.33545 0.0
H1917 H 0.16969 0.30125 0.30482 0.0
H1918 H 0.24269 0.26808 0.2918 0.0
H1919 H 0.2176 0.28039 0.30012 0.0
C1920 C 0.95879 0.06638 0.20242 0.0
C1921 C 0.96804 0.07361 0.22051 0.0
C1922 C 0.96769 0.06588 0.18599 0.0
C1923 C 0.01092 0.0865 0.16632 0.0
H1924 H 0.99292 0.04246 0.12574 0.0
C1925 C 0.04721 0.07482 0.09658 0.0
C1926 C 0.03673 0.06505 0.07952 0.0
C1927 C 0.03973 0.07668 0.11402 0.0
C1928 C 0.99815 0.05514 0.13664 0.0
H1929 H 0.99446 0.08652 0.23482 0.0
H1930 H 0.00986 0.0864 0.20633 0.0
H1931 H 0.9786 0.04441 0.15441 0.0
H1932 H 0.00959 0.04979 0.06843 0.0
H1933 H 0.99696 0.0529 0.09791 0.0
H1934 H 0.03047 0.09725 0.14835 0.0
C1935 C 0.99558 0.08074 0.20481 0.0
C1936 C 0.98979 0.05625 0.1534 0.0
C1937 C 0.98668 0.08075 0.22133 0.0
C1938 C 0.01845 0.05741 0.08088 0.0
C1939 C 0.01107 0.05906 0.09817 0.0
C1940 C 0.01927 0.08546 0.14942 0.0
C1941 C 0.98633 0.07302 0.18668 0.0
C1942 C 0.99583 0.07197 0.16869 0.0
C1943 C 0.02144 0.0686 0.1153 0.0
C1944 C 0.01301 0.06978 0.13402 0.0
H1945 H 0.94451 0.0606 0.20092 0.0
H1946 H 0.95977 0.05996 0.1726 0.0
H1947 H 0.01614 0.09901 0.17743 0.0
H1948 H 0.06124 0.08109 0.09656 0.0
H1949 H 0.04847 0.08417 0.12659 0.0
C1950 C 0.31068 0.68957 0.45979 0.0
C1951 C 0.29606 0.68469 0.46977 0.0
C1952 C 0.30865 0.69637 0.44332 0.0
C1953 C 0.28109 0.69557 0.4036 0.0
H1954 H 0.29737 0.75142 0.41081 0.0
C1955 C 0.2573 0.73926 0.35442 0.0
C1956 C 0.26828 0.75732 0.35325 0.0
C1957 C 0.26289 0.72812 0.36594 0.0
C1958 C 0.29322 0.73578 0.40833 0.0
H1959 H 0.26786 0.68176 0.47051 0.0
H1960 H 0.26422 0.6932 0.44126 0.0
H1961 H 0.30281 0.73538 0.4363 0.0
H1962 H 0.29429 0.77722 0.36164 0.0
H1963 H 0.3045 0.7573 0.38119 0.0
H1964 H 0.27153 0.69576 0.37564 0.0
C1965 C 0.27717 0.69207 0.44628 0.0
C1966 C 0.29621 0.72671 0.42296 0.0
C1967 C 0.27929 0.68577 0.46293 0.0
C1968 C 0.28559 0.76331 0.36236 0.0
C1969 C 0.29131 0.75204 0.37373 0.0
C1970 C 0.2784 0.70459 0.38877 0.0
C1971 C 0.2919 0.69766 0.43663 0.0
C1972 C 0.29003 0.70665 0.42065 0.0
C1973 C 0.27971 0.73475 0.37626 0.0
C1974 C 0.28426 0.72483 0.39107 0.0
H1975 H 0.32365 0.68869 0.46501 0.0
H1976 H 0.3201 0.70089 0.43594 0.0
H1977 H 0.2761 0.68002 0.40185 0.0
H1978 H 0.24397 0.73427 0.34724 0.0
H1979 H 0.25357 0.71496 0.36763 0.0
C1980 C 0.6765 0.04704 0.68781 0.0
C1981 C 0.67162 0.03496 0.70068 0.0
C1982 C 0.66373 0.0483 0.67439 0.0
C1983 C 0.61837 0.02463 0.6523 0.0
H1984 H 0.62051 0.076 0.64312 0.0
C1985 C 0.56993 0.03952 0.5988 0.0
C1986 C 0.57983 0.04401 0.58406 0.0
C1987 C 0.57852 0.0408 0.61637 0.0
C1988 C 0.61957 0.06174 0.64612 0.0
H1989 H 0.65031 0.01329 0.70854 0.0
H1990 H 0.62806 0.01606 0.68574 0.0
H1991 H 0.64243 0.07178 0.66619 0.0
H1992 H 0.6066 0.05299 0.57598 0.0
H1993 H 0.62135 0.05581 0.60663 0.0
H1994 H 0.59575 0.01464 0.63194 0.0
C1995 C 0.64161 0.02438 0.68576 0.0
C1996 C 0.63224 0.05923 0.65886 0.0
C1997 C 0.65438 0.02282 0.69883 0.0
C1998 C 0.59845 0.04986 0.58712 0.0
C1999 C 0.60696 0.05168 0.60467 0.0
C2000 C 0.60554 0.02722 0.63989 0.0
C2001 C 0.64605 0.03758 0.67388 0.0
C2002 C 0.63205 0.04055 0.66151 0.0
C2003 C 0.59703 0.04706 0.61927 0.0
C2004 C 0.60652 0.04565 0.63631 0.0
H2005 H 0.68976 0.0565 0.68895 0.0
H2006 H 0.66752 0.05819 0.66495 0.0
H2007 H 0.61805 0.01007 0.65398 0.0
H2008 H 0.55575 0.03434 0.59668 0.0
H2009 H 0.57084 0.03652 0.62752 0.0
C2010 C 0.30725 0.37052 0.95981 0.0
C2011 C 0.3093 0.35878 0.97272 0.0
C2012 C 0.30707 0.36373 0.94056 0.0
C2013 C 0.29945 0.31951 0.90437 0.0
H2014 H 0.33151 0.35181 0.87723 0.0
C2015 C 0.31086 0.28951 0.82925 0.0
C2016 C 0.31183 0.30175 0.81631 0.0
C2017 C 0.31204 0.29692 0.84844 0.0
C2018 C 0.32232 0.34267 0.88449 0.0
H2019 H 0.31193 0.33047 0.97557 0.0
H2020 H 0.31099 0.31839 0.94196 0.0
H2021 H 0.32882 0.3638 0.91008 0.0
H2022 H 0.31469 0.33128 0.81306 0.0
H2023 H 0.31661 0.34436 0.84657 0.0
H2024 H 0.29258 0.29855 0.87884 0.0
C2025 C 0.30979 0.33292 0.9467 0.0
C2026 C 0.32079 0.34957 0.90334 0.0
C2027 C 0.31037 0.33985 0.96595 0.0
C2028 C 0.31451 0.32166 0.82286 0.0
C2029 C 0.3155 0.32909 0.84208 0.0
C2030 C 0.30082 0.3127 0.88549 0.0
C2031 C 0.30853 0.34492 0.93382 0.0
C2032 C 0.30944 0.338 0.91353 0.0
C2033 C 0.31372 0.31671 0.8551 0.0
C2034 C 0.31241 0.3241 0.8753 0.0
H2035 H 0.30653 0.38522 0.96463 0.0
H2036 H 0.30594 0.37325 0.93095 0.0
H2037 H 0.29043 0.31035 0.91178 0.0
H2038 H 0.30845 0.27405 0.82445 0.0
H2039 H 0.31104 0.28698 0.858 0.0
C2040 C 0.98348 0.07856 0.34236 0.0
C2041 C 0.98117 0.06306 0.327 0.0
C2042 C 0.99149 0.07809 0.3602 0.0
C2043 C 0.01581 0.04798 0.38591 0.0
H2044 H 0.00681 0.081 0.42983 0.0
C2045 C 0.04683 0.04861 0.46286 0.0
C2046 C 0.03665 0.05214 0.47782 0.0
C2047 C 0.04126 0.05014 0.44433 0.0
C2048 C 0.00939 0.07138 0.41786 0.0
H2049 H 0.98569 0.03474 0.31906 0.0
H2050 H 0.99868 0.03343 0.3497 0.0
H2051 H 0.99466 0.0829 0.39921 0.0
H2052 H 0.01251 0.06028 0.48431 0.0
H2053 H 0.0032 0.06313 0.45302 0.0
H2054 H 0.02998 0.03597 0.40495 0.0
C2055 C 0.99496 0.04646 0.34817 0.0
C2056 C 1.00254 0.07272 0.39987 0.0
C2057 C 0.98726 0.04711 0.3303 0.0
C2058 C 0.02086 0.05734 0.47344 0.0
C2059 C 0.01551 0.05919 0.45522 0.0
C2060 C 0.02252 0.04651 0.40397 0.0
C2061 C 0.99731 0.06191 0.36373 0.0
C2062 C 0.00536 0.06093 0.38331 0.0
C2063 C 0.02553 0.05575 0.44013 0.0
C2064 C 0.0193 0.058 0.42045 0.0
H2065 H 0.97912 0.0912 0.3406 0.0
H2066 H 0.99315 0.09067 0.37117 0.0
H2067 H 0.01897 0.0388 0.37399 0.0
H2068 H 0.05919 0.04488 0.46547 0.0
H2069 H 0.04957 0.04736 0.43339 0.0
C2070 C 0.29166 0.69361 0.56663 0.0
C2071 C 0.29539 0.67586 0.56728 0.0
C2072 C 0.28682 0.704 0.58232 0.0
C2073 C 0.29724 0.71409 0.63123 0.0
H2074 H 0.26311 0.74475 0.63041 0.0
C2075 C 0.30921 0.78252 0.68349 0.0
C2076 C 0.29569 0.78228 0.69521 0.0
C2077 C 0.30574 0.77046 0.66596 0.0
C2078 C 0.27261 0.73619 0.63076 0.0
H2079 H 0.29619 0.65439 0.5842 0.0
H2080 H 0.28877 0.67346 0.61248 0.0
H2081 H 0.26116 0.71743 0.60461 0.0
H2082 H 0.26754 0.77159 0.69721 0.0
H2083 H 0.2615 0.75032 0.66646 0.0
H2084 H 0.309 0.73297 0.65702 0.0
C2085 C 0.28935 0.67903 0.59964 0.0
C2086 C 0.27143 0.72059 0.6162 0.0
C2087 C 0.29382 0.66835 0.5837 0.0
C2088 C 0.2782 0.77183 0.68833 0.0
C2089 C 0.27472 0.75973 0.67079 0.0
C2090 C 0.29847 0.72967 0.64565 0.0
C2091 C 0.28592 0.69697 0.599 0.0
C2092 C 0.28412 0.70988 0.61611 0.0
C2093 C 0.28875 0.75806 0.66015 0.0
C2094 C 0.28657 0.74121 0.64515 0.0
H2095 H 0.29211 0.69929 0.55384 0.0
H2096 H 0.28446 0.71792 0.58159 0.0
H2097 H 0.30725 0.70613 0.63135 0.0
H2098 H 0.32276 0.79018 0.68848 0.0
H2099 H 0.31668 0.7695 0.65771 0.0
C2100 C 0.66611 0.06804 0.81135 0.0
C2101 C 0.66658 0.04976 0.80201 0.0
C2102 C 0.6621 0.07061 0.82969 0.0
C2103 C 0.65088 0.04517 0.86934 0.0
H2104 H 0.61725 0.07646 0.87359 0.0
C2105 C 0.61011 0.06433 0.93123 0.0
C2106 C 0.59303 0.06509 0.92508 0.0
C2107 C 0.62112 0.05886 0.91818 0.0
C2108 C 0.62653 0.06756 0.87251 0.0
H2109 H 0.66442 0.02002 0.80397 0.0
H2110 H 0.65548 0.02391 0.83571 0.0
H2111 H 0.63493 0.07664 0.84782 0.0
H2112 H 0.57286 0.05843 0.90159 0.0
H2113 H 0.59194 0.04838 0.87871 0.0
H2114 H 0.64117 0.03532 0.89382 0.0
C2115 C 0.65897 0.0365 0.82933 0.0
C2116 C 0.63702 0.06799 0.85797 0.0
C2117 C 0.66371 0.03412 0.81114 0.0
C2118 C 0.58616 0.05816 0.90635 0.0
C2119 C 0.597 0.05238 0.89341 0.0
C2120 C 0.64008 0.04456 0.88391 0.0
C2121 C 0.65765 0.05469 0.83857 0.0
C2122 C 0.64899 0.05644 0.85591 0.0
C2123 C 0.61488 0.05408 0.89911 0.0
C2124 C 0.62743 0.05524 0.88505 0.0
H2125 H 0.66885 0.08032 0.80444 0.0
H2126 H 0.66178 0.08493 0.83662 0.0
H2127 H 0.66027 0.03642 0.86827 0.0
H2128 H 0.61537 0.06945 0.94582 0.0
H2129 H 0.63487 0.06016 0.92277 0.0
C2130 C 0.29534 0.37643 0.0933 0.0
C2131 C 0.30138 0.3672 0.07732 0.0
C2132 C 0.29232 0.3676 0.10875 0.0
C2133 C 0.30476 0.33051 0.13129 0.0
H2134 H 0.26444 0.33398 0.15894 0.0
C2135 C 0.28768 0.28848 0.19046 0.0
C2136 C 0.28343 0.29871 0.207 0.0
C2137 C 0.28876 0.29626 0.17425 0.0
C2138 C 0.27583 0.33302 0.15145 0.0
H2139 H 0.3088 0.34132 0.06505 0.0
H2140 H 0.30341 0.32583 0.09199 0.0
H2141 H 0.2685 0.34862 0.13133 0.0
H2142 H 0.27647 0.32486 0.21934 0.0
H2143 H 0.2783 0.33842 0.191 0.0
H2144 H 0.31214 0.31501 0.15145 0.0
C2145 C 0.30116 0.34 0.0926 0.0
C2146 C 0.27818 0.34142 0.13564 0.0
C2147 C 0.30411 0.34881 0.07709 0.0
C2148 C 0.27971 0.31659 0.20679 0.0
C2149 C 0.28071 0.32434 0.19054 0.0
C2150 C 0.3024 0.32211 0.14707 0.0
C2151 C 0.29532 0.34934 0.10866 0.0
C2152 C 0.29266 0.34024 0.12536 0.0
C2153 C 0.28556 0.31441 0.17418 0.0
C2154 C 0.28789 0.32323 0.15731 0.0
H2155 H 0.29309 0.39061 0.09396 0.0
H2156 H 0.28802 0.3753 0.12096 0.0
H2157 H 0.31625 0.32968 0.12394 0.0
H2158 H 0.29085 0.27478 0.1902 0.0
H2159 H 0.29231 0.28814 0.1618 0.0
C2160 C 0.26283 0.96974 0.99722 0.0
C2161 C 0.27475 0.97027 0.0125 0.0
C2162 C 0.24822 0.97724 1.0002 0.0
C2163 C 0.23325 0.00997 0.03641 0.0
H2164 H 0.18638 0.98625 0.00979 0.0
C2165 C 0.17419 0.03221 0.06335 0.0
C2166 C 0.16528 0.03983 0.05058 0.0
C2167 C 0.18531 0.02078 0.05709 0.0
C2168 C 0.19945 0.99288 0.01727 0.0
H2169 H 0.28061 0.9775 0.0427 0.0
H2170 H 0.25478 0.98943 0.04804 0.0
H2171 H 0.21117 0.97252 1.0013 0.0
H2172 H 0.16 0.04072 0.02122 0.0
H2173 H 0.17982 0.02088 0.01031 0.0
H2174 H 0.22159 0.02989 0.05272 0.0
C2175 C 0.257 0.9844 0.03373 0.0
C2176 C 0.21359 0.98521 0.01234 0.0
C2177 C 0.27174 0.97752 0.03071 0.0
C2178 C 0.16682 0.03499 0.03132 0.0
C2179 C 0.17798 0.02357 0.02506 0.0
C2180 C 0.21917 0.01732 0.04152 0.0
C2181 C 0.24534 0.9848 0.01852 0.0
C2182 C 0.23053 0.99353 0.02217 0.0
C2183 C 0.18768 0.01695 0.03801 0.0
C2184 C 0.20217 0.00868 0.0322 0.0
H2185 H 0.26503 0.96397 0.98309 0.0
H2186 H 0.23943 0.97744 0.98824 0.0
H2187 H 0.24627 0.01711 0.0438 0.0
H2188 H 0.1728 0.03538 0.07818 0.0
H2189 H 0.19263 0.01557 0.06723 0.0
C2190 C 0.75086 0.64248 0.99466 0.0
C2191 C 0.75412 0.66265 1.00028 0.0
C2192 C 0.73379 0.63035 0.99446 0.0
C2193 C 0.69404 0.62882 0.0186 0.0
H2194 H 0.66896 0.588 0.97729 0.0
C2195 C 0.62049 0.59175 0.01881 0.0
C2196 C 0.61426 0.57161 0.01247 0.0
C2197 C 0.63755 0.60174 0.01619 0.0
C2198 C 0.67589 0.59915 0.98905 0.0
H2199 H 0.74196 0.68585 0.00978 0.0
H2200 H 0.71248 0.66475 0.00987 0.0
H2201 H 0.69886 0.6074 0.97449 0.0
H2202 H 0.62119 0.54651 0.99747 0.0
H2203 H 0.6512 0.56394 0.99307 0.0
H2204 H 0.67148 0.62064 0.03335 0.0
C2205 C 0.72303 0.65831 0.00546 0.0
C2206 C 0.69298 0.61029 0.98741 0.0
C2207 C 0.73991 0.67041 0.00528 0.0
C2208 C 0.62552 0.56189 1.0028 0.0
C2209 C 0.64273 0.57195 1.00015 0.0
C2210 C 0.67713 0.61765 0.02031 0.0
C2211 C 0.7198 0.63814 1.00031 0.0
C2212 C 0.7021 0.62546 1.00208 0.0
C2213 C 0.64907 0.59199 0.00713 0.0
C2214 C 0.66764 0.60288 0.00546 0.0
H2215 H 0.76154 0.63609 0.99067 0.0
H2216 H 0.7317 0.61485 0.99043 0.0
H2217 H 0.70088 0.64014 0.03029 0.0
H2218 H 0.61226 0.59996 0.02609 0.0
H2219 H 0.64172 0.61722 0.02132 0.0
C2220 C 0.724 0.455 0.24492 0.0
C2221 C 0.71282 0.45989 0.25849 0.0
C2222 C 0.73232 0.43967 0.24529 0.0
C2223 C 0.73443 0.39721 0.27079 0.0
H2224 H 0.77439 0.39543 0.24239 0.0
C2225 C 0.77572 0.339 0.2765 0.0
C2226 C 0.78473 0.33276 0.26132 0.0
C2227 C 0.76742 0.35445 0.27664 0.0
C2228 C 0.76314 0.39527 0.25036 0.0
H2229 H 0.70197 0.45137 0.28325 0.0
H2230 H 0.71649 0.42547 0.2843 0.0
H2231 H 0.75961 0.42079 0.24151 0.0
H2232 H 0.79096 0.33801 0.23396 0.0
H2233 H 0.77722 0.36469 0.23423 0.0
H2234 H 0.73823 0.37165 0.27972 0.0
C2235 C 0.71881 0.43319 0.27293 0.0
C2236 C 0.75439 0.41022 0.24984 0.0
C2237 C 0.71037 0.44844 0.27244 0.0
C2238 C 0.78492 0.34269 0.24631 0.0
C2239 C 0.77679 0.35818 0.24647 0.0
C2240 C 0.74327 0.38229 0.27138 0.0
C2241 C 0.73018 0.42828 0.2594 0.0
C2242 C 0.73969 0.41177 0.26001 0.0
C2243 C 0.76753 0.36444 0.26152 0.0
C2244 C 0.75793 0.38081 0.26116 0.0
H2245 H 0.72635 0.46306 0.23377 0.0
H2246 H 0.74037 0.43678 0.23415 0.0
H2247 H 0.72319 0.39698 0.27876 0.0
H2248 H 0.77446 0.33139 0.28805 0.0
H2249 H 0.76073 0.35837 0.2887 0.0
C2250 C 0.8809 0.44898 0.5182 0.0
C2251 C 0.8681 0.45631 0.50981 0.0
C2252 C 0.89866 0.45914 0.52041 0.0
C2253 C 0.93052 0.49625 0.50338 0.0
H2254 H 0.9564 0.50415 0.55242 0.0
C2255 C 0.99909 0.54991 0.53689 0.0
C2256 C 0.0115 0.53907 0.53749 0.0
C2257 C 0.98127 0.54042 0.53158 0.0
C2258 C 0.94916 0.50204 0.53874 0.0
H2259 H 0.86369 0.47934 0.49636 0.0
H2260 H 0.89478 0.49713 0.50035 0.0
H2261 H 0.92537 0.4852 0.54674 0.0
H2262 H 0.01587 0.51047 0.53339 0.0
H2263 H 0.98443 0.49377 0.52486 0.0
H2264 H 0.95442 0.51306 0.49554 0.0
C2265 C 0.89108 0.48356 0.50513 0.0
C2266 C 0.93162 0.49114 0.53544 0.0
C2267 C 0.87333 0.47342 0.50292 0.0
C2268 C 0.00629 0.51889 0.53265 0.0
C2269 C 0.9885 0.50943 0.52786 0.0
C2270 C 0.94804 0.5072 0.50675 0.0
C2271 C 0.90378 0.47666 0.5142 0.0
C2272 C 0.92226 0.48809 0.51769 0.0
C2273 C 0.97599 0.52018 0.52754 0.0
C2274 C 0.95734 0.51003 0.52437 0.0
H2275 H 0.87717 0.43575 0.52356 0.0
H2276 H 0.90835 0.45346 0.5272 0.0
H2277 H 0.92354 0.49388 0.48955 0.0
H2278 H 0.00317 0.56555 0.54065 0.0
H2279 H 0.97157 0.54874 0.53128 0.0
C2280 C 0.40285 0.11513 0.30484 0.0
C2281 C 0.39294 0.09853 0.31033 0.0
C2282 C 0.39427 0.12816 0.29926 0.0
C2283 C 0.35138 0.12456 0.27646 0.0
H2284 H 0.36595 0.1805 0.28398 0.0
C2285 C 0.30757 0.16489 0.24547 0.0
C2286 C 0.31596 0.1795 0.23641 0.0
C2287 C 0.31764 0.15726 0.25688 0.0
C2288 C 0.36185 0.16487 0.2817 0.0
H2289 H 0.36711 0.08334 0.3165 0.0
H2290 H 0.3522 0.10662 0.30756 0.0
H2291 H 0.38294 0.16366 0.30122 0.0
H2292 H 0.34091 0.1984 0.23234 0.0
H2293 H 0.35886 0.18459 0.25203 0.0
H2294 H 0.3307 0.12547 0.25664 0.0
C2295 C 0.3664 0.10929 0.30703 0.0
C2296 C 0.37148 0.15532 0.29158 0.0
C2297 C 0.37489 0.09612 0.31226 0.0
C2298 C 0.33439 0.18701 0.23929 0.0
C2299 C 0.34454 0.17924 0.25059 0.0
C2300 C 0.34187 0.13402 0.26657 0.0
C2301 C 0.37585 0.12471 0.29945 0.0
C2302 C 0.36605 0.13515 0.28925 0.0
C2303 C 0.33623 0.16401 0.25912 0.0
C2304 C 0.34682 0.15426 0.26934 0.0
H2305 H 0.41679 0.11699 0.30302 0.0
H2306 H 0.40175 0.13992 0.29333 0.0
H2307 H 0.34736 0.1089 0.27393 0.0
H2308 H 0.29327 0.15915 0.24341 0.0
H2309 H 0.31091 0.14579 0.26363 0.0
C2310 C 0.36141 0.15463 0.49433 0.0
C2311 C 0.35332 0.16208 0.50957 0.0
C2312 C 0.37639 0.14772 0.49744 0.0
C2313 C 0.39726 0.12965 0.53519 0.0
H2314 H 0.43421 0.12709 0.50242 0.0
C2315 C 0.44051 0.0793 0.54307 0.0
C2316 C 0.45892 0.08649 0.54345 0.0
C2317 C 0.42901 0.08928 0.53685 0.0
C2318 C 0.42406 0.12789 0.51177 0.0
H2319 H 0.35538 0.17003 0.53978 0.0
H2320 H 0.38189 0.15936 0.54522 0.0
H2321 H 0.41236 0.1449 0.49608 0.0
H2322 H 0.47973 0.10918 0.53647 0.0
H2323 H 0.45943 0.12694 0.52571 0.0
H2324 H 0.40899 0.11326 0.55116 0.0
C2325 C 0.37628 0.15761 0.53089 0.0
C2326 C 0.41143 0.13791 0.50805 0.0
C2327 C 0.36113 0.16388 0.5278 0.0
C2328 C 0.46557 0.10334 0.53637 0.0
C2329 C 0.45397 0.11348 0.5302 0.0
C2330 C 0.40985 0.11992 0.53897 0.0
C2331 C 0.38368 0.14862 0.51584 0.0
C2332 C 0.39778 0.1388 0.5197 0.0
C2333 C 0.43559 0.10684 0.53098 0.0
C2334 C 0.42318 0.11854 0.52715 0.0
H2335 H 0.35566 0.15327 0.48012 0.0
H2336 H 0.38172 0.14092 0.48549 0.0
H2337 H 0.38683 0.12954 0.54431 0.0
H2338 H 0.43498 0.06611 0.54802 0.0
H2339 H 0.4149 0.08345 0.5371 0.0
C2340 C 0.70289 0.58036 0.26405 0.0
C2341 C 0.70914 0.56969 0.27605 0.0
C2342 C 0.71151 0.59993 0.26439 0.0
C2343 C 0.74678 0.64357 0.29331 0.0
H2344 H 0.7402 0.66569 0.24971 0.0
C2345 C 0.78714 0.72237 0.28756 0.0
C2346 C 0.77856 0.73362 0.27828 0.0
C2347 C 0.77889 0.70272 0.28772 0.0
C2348 C 0.74214 0.65995 0.26216 0.0
H2349 H 0.7296 0.57181 0.29812 0.0
H2350 H 0.7449 0.60567 0.29864 0.0
H2351 H 0.72639 0.63179 0.2488 0.0
H2352 H 0.7538 0.7323 0.26236 0.0
H2353 H 0.73976 0.6985 0.26241 0.0
H2354 H 0.76303 0.67189 0.30637 0.0
C2355 C 0.73314 0.59908 0.28888 0.0
C2356 C 0.73403 0.64018 0.26171 0.0
C2357 C 0.72446 0.57937 0.28847 0.0
C2358 C 0.7612 0.7244 0.26947 0.0
C2359 C 0.75305 0.70473 0.26943 0.0
C2360 C 0.75512 0.66331 0.29365 0.0
C2361 C 0.72687 0.60995 0.27686 0.0
C2362 C 0.73601 0.6314 0.27731 0.0
C2363 C 0.76172 0.69336 0.27846 0.0
C2364 C 0.75293 0.672 0.27811 0.0
H2365 H 0.69106 0.57352 0.25437 0.0
H2366 H 0.70567 0.60723 0.25503 0.0
H2367 H 0.74865 0.63805 0.3059 0.0
H2368 H 0.80028 0.72876 0.29484 0.0
H2369 H 0.78621 0.69475 0.29487 0.0
C2370 C 0.88716 0.49373 0.82143 0.0
C2371 C 0.90183 0.50233 0.81286 0.0
C2372 C 0.87679 0.47528 0.81332 0.0
C2373 C 0.87896 0.43207 0.78144 0.0
H2374 H 0.82754 0.41984 0.77601 0.0
C2375 C 0.84458 0.35588 0.75782 0.0
C2376 C 0.83153 0.34926 0.76919 0.0
C2377 C 0.84867 0.37499 0.75589 0.0
C2378 C 0.84188 0.42305 0.7774 0.0
H2379 H 0.91734 0.4987 0.78937 0.0
H2380 H 0.89915 0.46686 0.77516 0.0
H2381 H 0.84481 0.45266 0.79012 0.0
H2382 H 0.80954 0.35571 0.78301 0.0
H2383 H 0.81932 0.39019 0.78387 0.0
H2384 H 0.87665 0.40283 0.77016 0.0
C2385 C 0.89585 0.47405 0.78826 0.0
C2386 C 0.85169 0.44175 0.78552 0.0
C2387 C 0.90634 0.49219 0.7965 0.0
C2388 C 0.82105 0.36123 0.77633 0.0
C2389 C 0.82614 0.38079 0.77588 0.0
C2390 C 0.86928 0.41351 0.77363 0.0
C2391 C 0.88095 0.46555 0.79651 0.0
C2392 C 0.87028 0.44622 0.78771 0.0
C2393 C 0.84091 0.38805 0.7667 0.0
C2394 C 0.85062 0.40863 0.77172 0.0
H2395 H 0.88346 0.50147 0.83401 0.0
H2396 H 0.86551 0.4687 0.82006 0.0
H2397 H 0.8933 0.43516 0.78323 0.0
H2398 H 0.85195 0.34649 0.75073 0.0
H2399 H 0.85913 0.37986 0.7474 0.0
C2400 C 0.08992 0.87409 0.06365 0.0
C2401 C 0.08582 0.86997 0.08128 0.0
C2402 C 0.08649 0.89038 0.05785 0.0
C2403 C 0.08018 0.93883 0.07553 0.0
H2404 H 0.05693 0.9332 0.02573 0.0
C2405 C 0.06151 1.00411 0.05152 0.0
C2406 C 0.06172 1.00528 0.03251 0.0
C2407 C 0.06304 0.98724 0.0576 0.0
C2408 C 0.06372 0.93529 0.03959 0.0
H2409 H 0.07525 0.88016 0.10677 0.0
H2410 H 0.06967 0.90878 0.09685 0.0
H2411 H 0.06333 0.90528 0.03581 0.0
H2412 H 0.06447 0.99004 0.00512 0.0
H2413 H 0.06766 0.961 0.0155 0.0
H2414 H 0.08131 0.96891 0.0792 0.0
C2415 C 0.07536 0.89927 0.08741 0.0
C2416 C 0.06731 0.91911 0.04541 0.0
C2417 C 0.07845 0.88277 0.09305 0.0
C2418 C 0.06364 0.98929 0.01976 0.0
C2419 C 0.06545 0.97255 0.02581 0.0
C2420 C 0.07691 0.95512 0.06961 0.0
C2421 C 0.07921 0.90324 0.06967 0.0
C2422 C 0.07554 0.92062 0.06347 0.0
C2423 C 0.06542 0.97125 0.0449 0.0
C2424 C 0.06857 0.95368 0.0515 0.0
H2425 H 0.09564 0.86461 0.05421 0.0
H2426 H 0.08977 0.89305 0.04417 0.0
H2427 H 0.08672 0.9406 0.08948 0.0
H2428 H 0.06078 0.0165 0.06181 0.0
H2429 H 0.06265 0.98697 0.07235 0.0
C2430 C 0.96786 0.26096 0.87485 0.0
C2431 C 0.97501 0.27374 0.89194 0.0
C2432 C 0.95261 0.26256 0.86453 0.0
C2433 C 0.92581 0.29782 0.85841 0.0
H2434 H 0.88943 0.25234 0.83331 0.0
C2435 C 0.85778 0.30333 0.82538 0.0
C2436 C 0.85009 0.29096 0.80822 0.0
C2437 C 0.87292 0.30101 0.83522 0.0
C2438 C 0.89952 0.26525 0.84002 0.0
H2439 H 0.97161 0.29846 0.91128 0.0
H2440 H 0.9455 0.30152 0.89328 0.0
H2441 H 0.91567 0.24872 0.85073 0.0
H2442 H 0.85223 0.26579 0.7886 0.0
H2443 H 0.87838 0.26168 0.80569 0.0
H2444 H 0.90972 0.31436 0.84772 0.0
C2445 C 0.95152 0.2901 0.8878 0.0
C2446 C 0.91467 0.26316 0.85008 0.0
C2447 C 0.9665 0.28825 0.89827 0.0
C2448 C 0.85782 0.27584 0.80155 0.0
C2449 C 0.87282 0.27336 0.81152 0.0
C2450 C 0.91068 0.29991 0.84836 0.0
C2451 C 0.94423 0.27728 0.87073 0.0
C2452 C 0.92808 0.27941 0.85956 0.0
C2453 C 0.88079 0.28602 0.82847 0.0
C2454 C 0.89717 0.28368 0.83903 0.0
H2455 H 0.97396 0.24955 0.86952 0.0
H2456 H 0.94759 0.25243 0.85146 0.0
H2457 H 0.93588 0.31075 0.86511 0.0
H2458 H 0.8523 0.3151 0.83113 0.0
H2459 H 0.87835 0.31094 0.84831 0.0
C2460 C 0.58913 0.2545 0.56848 0.0
C2461 C 0.58641 0.26109 0.58712 0.0
C2462 C 0.58731 0.23469 0.56165 0.0
C2463 C 0.56913 0.18604 0.574 0.0
H2464 H 0.59987 0.16916 0.53867 0.0
C2465 C 0.57198 0.10709 0.55957 0.0
C2466 C 0.57011 0.09814 0.54063 0.0
C2467 C 0.57609 0.12724 0.56477 0.0
C2468 C 0.59118 0.17367 0.54853 0.0
H2469 H 0.57987 0.25182 0.61318 0.0
H2470 H 0.57747 0.21818 0.60175 0.0
H2471 H 0.60179 0.20364 0.54787 0.0
H2472 H 0.57112 0.10304 0.5123 0.0
H2473 H 0.57858 0.13836 0.52133 0.0
H2474 H 0.55876 0.15621 0.57496 0.0
C2475 C 0.58032 0.22788 0.592 0.0
C2476 C 0.59217 0.19346 0.55371 0.0
C2477 C 0.58185 0.24741 0.59866 0.0
C2478 C 0.57302 0.10969 0.52703 0.0
C2479 C 0.57723 0.12988 0.53221 0.0
C2480 C 0.56834 0.16641 0.56905 0.0
C2481 C 0.58293 0.22109 0.57339 0.0
C2482 C 0.58127 0.19997 0.56671 0.0
C2483 C 0.57814 0.13886 0.5511 0.0
C2484 C 0.57944 0.15995 0.55639 0.0
H2485 H 0.59271 0.26461 0.55921 0.0
H2486 H 0.58927 0.23007 0.54717 0.0
H2487 H 0.56007 0.19023 0.58356 0.0
H2488 H 0.56926 0.09844 0.57025 0.0
H2489 H 0.57691 0.1337 0.57945 0.0
C2490 C 0.5687 0.76788 0.37581 0.0
C2491 C 0.56959 0.77652 0.39478 0.0
C2492 C 0.58431 0.76834 0.36699 0.0
C2493 C 0.63116 0.79652 0.36997 0.0
H2494 H 0.6379 0.75084 0.33828 0.0
C2495 C 0.69602 0.79962 0.33409 0.0
C2496 C 0.69417 0.78924 0.3156 0.0
C2497 C 0.68185 0.79661 0.34523 0.0
C2498 C 0.63623 0.76386 0.34687 0.0
H2499 H 0.58763 0.7926 0.41925 0.0
H2500 H 0.61462 0.79394 0.4038 0.0
H2501 H 0.61086 0.74887 0.35375 0.0
H2502 H 0.67621 0.76733 0.29449 0.0
H2503 H 0.65165 0.76201 0.31361 0.0
H2504 H 0.65614 0.81175 0.36274 0.0
C2505 C 0.60194 0.7866 0.39574 0.0
C2506 C 0.62065 0.76267 0.35579 0.0
C2507 C 0.58643 0.78574 0.40463 0.0
C2508 C 0.67813 0.77527 0.3088 0.0
C2509 C 0.66401 0.77225 0.31987 0.0
C2510 C 0.64663 0.79778 0.36087 0.0
C2511 C 0.60115 0.77788 0.3768 0.0
C2512 C 0.61784 0.77901 0.36739 0.0
C2513 C 0.6654 0.78322 0.33812 0.0
C2514 C 0.64942 0.78151 0.34901 0.0
H2515 H 0.55597 0.76054 0.36787 0.0
H2516 H 0.58319 0.7615 0.35238 0.0
H2517 H 0.62942 0.80945 0.37868 0.0
H2518 H 0.70811 0.81075 0.33959 0.0
H2519 H 0.6837 0.80517 0.35927 0.0
C2520 C 0.11183 0.27273 0.41965 0.0
C2521 C 0.10174 0.2862 0.42208 0.0
C2522 C 0.10784 0.25682 0.42838 0.0
C2523 C 0.08169 0.2396 0.46587 0.0
H2524 H 0.08855 0.18987 0.44358 0.0
C2525 C 0.0514 0.17308 0.49412 0.0
C2526 C 0.06402 0.16451 0.50088 0.0
C2527 C 0.05585 0.18567 0.48186 0.0
C2528 C 0.08657 0.20372 0.44982 0.0
H2529 H 0.07908 0.29347 0.43414 0.0
H2530 H 0.07121 0.26519 0.44813 0.0
H2531 H 0.09702 0.21712 0.42758 0.0
H2532 H 0.09072 0.16113 0.49918 0.0
H2533 H 0.09857 0.18347 0.4777 0.0
H2534 H 0.07062 0.22602 0.48765 0.0
C2535 C 0.08291 0.26727 0.44072 0.0
C2536 C 0.09155 0.21935 0.44083 0.0
C2537 C 0.08731 0.28342 0.43262 0.0
C2538 C 0.0808 0.16768 0.4942 0.0
C2539 C 0.08525 0.1803 0.48188 0.0
C2540 C 0.07634 0.22396 0.47451 0.0
C2541 C 0.09333 0.25397 0.43906 0.0
C2542 C 0.08897 0.23743 0.44871 0.0
C2543 C 0.07297 0.18981 0.47617 0.0
C2544 C 0.07861 0.20592 0.46649 0.0
H2545 H 0.12292 0.27469 0.41131 0.0
H2546 H 0.11623 0.24697 0.42693 0.0
H2547 H 0.08012 0.25342 0.47277 0.0
H2548 H 0.03823 0.17039 0.49868 0.0
H2549 H 0.04616 0.19278 0.47737 0.0
C2550 C 0.56914 0.26167 0.16358 0.0
C2551 C 0.55884 0.2665 0.17794 0.0
C2552 C 0.586 0.25949 0.16798 0.0
C2553 C 0.61034 0.24709 0.20582 0.0
H2554 H 0.65322 0.26978 0.18487 0.0
C2555 C 0.67715 0.25885 0.24462 0.0
C2556 C 0.68873 0.2495 0.23536 0.0
C2557 C 0.66244 0.26112 0.23459 0.0
C2558 C 0.64125 0.26319 0.19056 0.0
H2559 H 0.55844 0.27412 0.208 0.0
H2560 H 0.58798 0.27068 0.21565 0.0
H2561 H 0.62451 0.27349 0.17267 0.0
H2562 H 0.695 0.23626 0.20848 0.0
H2563 H 0.66864 0.23984 0.19078 0.0
H2564 H 0.62695 0.23741 0.22412 0.0
C2565 C 0.58284 0.26812 0.20104 0.0
C2566 C 0.62494 0.26528 0.18365 0.0
C2567 C 0.56601 0.27021 0.19668 0.0
C2568 C 0.68598 0.2433 0.21581 0.0
C2569 C 0.67112 0.24546 0.20574 0.0
C2570 C 0.62651 0.24512 0.21274 0.0
C2571 C 0.59271 0.26217 0.18676 0.0
C2572 C 0.60953 0.25785 0.19179 0.0
C2573 C 0.65908 0.25393 0.21522 0.0
C2574 C 0.64209 0.25373 0.20562 0.0
H2575 H 0.56389 0.25873 0.14898 0.0
H2576 H 0.59343 0.2549 0.15678 0.0
H2577 H 0.59852 0.24074 0.2119 0.0
H2578 H 0.67941 0.26419 0.25963 0.0
H2579 H 0.65337 0.26801 0.24202 0.0
C2580 C 0.61681 0.8856 0.94169 0.0
C2581 C 0.61391 0.8805 0.9221 0.0
C2582 C 0.61715 0.90418 0.95058 0.0
C2583 C 0.59173 0.93546 0.94198 0.0
H2584 H 0.61632 0.96811 0.9886 0.0
C2585 C 0.56631 0.99605 0.98091 0.0
C2586 C 0.56709 0.99833 1.00054 0.0
C2587 C 0.57458 0.98356 0.97078 0.0
C2588 C 0.60936 0.95899 0.97562 0.0
H2589 H 0.6114 0.89118 0.89629 0.0
H2590 H 0.61165 0.92357 0.91196 0.0
H2591 H 0.63009 0.94479 0.97094 0.0
H2592 H 0.57577 0.98781 0.02445 0.0
H2593 H 0.59017 0.9657 0.00669 0.0
H2594 H 0.57053 0.94849 0.94705 0.0
C2595 C 0.61362 0.91321 0.92035 0.0
C2596 C 0.61731 0.94596 0.96549 0.0
C2597 C 0.61327 0.89467 0.91146 0.0
C2598 C 0.57542 0.98694 0.00961 0.0
C2599 C 0.58369 0.97431 0.99941 0.0
C2600 C 0.58375 0.94824 0.95215 0.0
C2601 C 0.61456 0.91769 0.9399 0.0
C2602 C 0.60839 0.934 0.94877 0.0
C2603 C 0.58355 0.97284 0.97999 0.0
C2604 C 0.59241 0.9599 0.96912 0.0
H2605 H 0.61767 0.87498 0.95016 0.0
H2606 H 0.61773 0.90739 0.96572 0.0
H2607 H 0.58439 0.9259 0.92938 0.0
H2608 H 0.55994 1.00445 0.97324 0.0
H2609 H 0.57434 0.98269 0.95578 0.0
C2610 C 0.95468 0.7618 0.70424 0.0
C2611 C 0.9648 0.77632 0.69606 0.0
C2612 C 0.93783 0.76244 0.70876 0.0
C2613 C 0.91312 0.79598 0.72413 0.0
H2614 H 0.87211 0.75165 0.71104 0.0
C2615 C 0.85135 0.78487 0.76407 0.0
C2616 C 0.83523 0.77962 0.75272 0.0
C2617 C 0.86704 0.7858 0.75577 0.0
C2618 C 0.88346 0.76415 0.71463 0.0
H2619 H 0.96544 0.80255 0.68564 0.0
H2620 H 0.93602 0.80422 0.69451 0.0
H2621 H 0.89972 0.7504 0.69743 0.0
H2622 H 0.82212 0.77067 0.7244 0.0
H2623 H 0.84957 0.77188 0.70984 0.0
H2624 H 0.89699 0.80953 0.74174 0.0
C2625 C 0.94115 0.79231 0.69719 0.0
C2626 C 0.89914 0.76341 0.70692 0.0
C2627 C 0.95789 0.79144 0.69228 0.0
C2628 C 0.83464 0.77486 0.73322 0.0
C2629 C 0.85021 0.77555 0.72496 0.0
C2630 C 0.89749 0.79665 0.73199 0.0
C2631 C 0.93109 0.77781 0.70545 0.0
C2632 C 0.91407 0.77926 0.71182 0.0
C2633 C 0.86645 0.78095 0.73618 0.0
C2634 C 0.88267 0.78066 0.7274 0.0
H2635 H 0.9596 0.74969 0.70673 0.0
H2636 H 0.93022 0.75117 0.71518 0.0
H2637 H 0.92464 0.80823 0.72818 0.0
H2638 H 0.85178 0.78833 0.77918 0.0
H2639 H 0.87954 0.78983 0.76459 0.0
C2640 C 0.12179 0.03718 0.82676 0.0
C2641 C 0.13333 0.02538 0.82186 0.0
C2642 C 0.1145 0.03836 0.84419 0.0
C2643 C 0.11035 0.01582 0.88871 0.0
H2644 H 0.09202 0.05963 0.90683 0.0
C2645 C 0.09135 0.03411 0.96642 0.0
C2646 C 0.07592 0.0406 0.96919 0.0
C2647 C 0.09767 0.03129 0.94854 0.0
C2648 C 0.09691 0.04714 0.90205 0.0
H2649 H 0.14597 1.00546 0.83237 0.0
H2650 H 0.13399 0.00784 0.86255 0.0
H2651 H 0.1043 0.05707 0.87697 0.0
H2652 H 0.05535 0.04943 0.95465 0.0
H2653 H 0.06662 0.04528 0.92385 0.0
H2654 H 0.10347 1.00649 0.91448 0.0
C2655 C 0.13004 0.01605 0.85286 0.0
C2656 C 0.10402 0.04553 0.88453 0.0
C2657 C 0.13715 0.01471 0.83529 0.0
C2658 C 0.06713 0.04425 0.95327 0.0
C2659 C 0.07375 0.04198 0.93549 0.0
C2660 C 0.10354 0.01766 0.90643 0.0
C2661 C 0.11851 0.02799 0.85793 0.0
C2662 C 0.11089 0.02975 0.87719 0.0
C2663 C 0.08919 0.03543 0.93266 0.0
C2664 C 0.09656 0.03333 0.91351 0.0
H2665 H 0.11828 0.04563 0.81702 0.0
H2666 H 0.1055 0.04743 0.84664 0.0
H2667 H 0.11499 1.00315 0.88408 0.0
H2668 H 0.09859 0.0311 0.97816 0.0
H2669 H 0.10957 0.02631 0.94729 0.0
C2670 C 0.82167 0.43126 0.57887 0.0
C2671 C 0.81408 0.41775 0.56242 0.0
C2672 C 0.82757 0.42504 0.59445 0.0
C2673 C 0.84091 0.38471 0.60817 0.0
H2674 H 0.81457 0.39233 0.65113 0.0
C2675 C 0.82862 0.32961 0.65294 0.0
C2676 C 0.83453 0.33683 0.67186 0.0
C2677 C 0.82579 0.34218 0.64162 0.0
C2678 C 0.82218 0.39037 0.63934 0.0
H2679 H 0.80707 0.38732 0.54907 0.0
H2680 H 0.81715 0.37657 0.57629 0.0
H2681 H 0.81427 0.41207 0.62728 0.0
H2682 H 0.84036 0.36167 0.69468 0.0
H2683 H 0.83586 0.38404 0.67456 0.0
H2684 H 0.84815 0.36243 0.61965 0.0
C2685 C 0.81859 0.3919 0.5771 0.0
C2686 C 0.82219 0.40173 0.62592 0.0
C2687 C 0.81248 0.39802 0.5617 0.0
C2688 C 0.83593 0.35614 0.67992 0.0
C2689 C 0.83331 0.3688 0.66854 0.0
C2690 C 0.84091 0.37342 0.62153 0.0
C2691 C 0.82617 0.40537 0.59348 0.0
C2692 C 0.83084 0.39822 0.60989 0.0
C2693 C 0.82922 0.36199 0.64922 0.0
C2694 C 0.83084 0.3756 0.63666 0.0
H2695 H 0.82333 0.44659 0.57956 0.0
H2696 H 0.83331 0.4355 0.60715 0.0
H2697 H 0.84773 0.382 0.59586 0.0
H2698 H 0.82724 0.31458 0.6468 0.0
H2699 H 0.82212 0.3367 0.62673 0.0
C2700 C 0.45679 0.04451 0.35973 0.0
C2701 C 0.45766 0.06338 0.35744 0.0
C2702 C 0.46227 0.04122 0.37689 0.0
C2703 C 0.47877 0.06205 0.42567 0.0
H2704 H 0.51784 0.03973 0.41294 0.0
C2705 C 0.5382 0.0705 0.47811 0.0
C2706 C 0.54301 0.05345 0.47903 0.0
C2707 C 0.52631 0.07083 0.46341 0.0
C2708 C 0.50684 0.04569 0.41669 0.0
H2709 H 0.46279 0.09339 0.37098 0.0
H2710 H 0.47353 0.0878 0.40139 0.0
H2711 H 0.49595 0.04035 0.38831 0.0
H2712 H 0.54008 0.0236 0.46608 0.0
H2713 H 0.51943 0.02417 0.43992 0.0
H2714 H 0.49 0.0676 0.45415 0.0
C2715 C 0.46826 0.07557 0.38997 0.0
C2716 C 0.4943 0.04596 0.40269 0.0
C2717 C 0.46245 0.07883 0.3727 0.0
C2718 C 0.53678 0.03701 0.46496 0.0
C2719 C 0.5249 0.0373 0.45027 0.0
C2720 C 0.49132 0.06164 0.43977 0.0
C2721 C 0.469 0.05687 0.39176 0.0
C2722 C 0.48037 0.05437 0.40708 0.0
C2723 C 0.51922 0.05404 0.44975 0.0
C2724 C 0.50556 0.05376 0.43523 0.0
H2725 H 0.45259 0.0324 0.34799 0.0
H2726 H 0.46265 0.0267 0.37815 0.0
H2727 H 0.46807 0.0686 0.42916 0.0
H2728 H 0.5426 0.08302 0.4894 0.0
H2729 H 0.52218 0.08392 0.46306 0.0
C2730 C 0.80569 0.74886 0.07013 0.0
C2731 C 0.81267 0.7329 0.06489 0.0
C2732 C 0.80522 0.75646 0.08909 0.0
C2733 C 0.82337 0.75538 0.13743 0.0
H2734 H 0.78027 0.76844 0.152 0.0
C2735 C 0.80071 0.75314 0.21014 0.0
C2736 C 0.79932 0.77071 0.22075 0.0
C2737 C 0.80231 0.75112 0.19103 0.0
C2738 C 0.79247 0.76512 0.14808 0.0
H2739 H 0.82531 0.71296 0.07554 0.0
H2740 H 0.82436 0.72595 0.10831 0.0
H2741 H 0.78415 0.76032 0.11873 0.0
H2742 H 0.79774 0.79973 0.21933 0.0
H2743 H 0.79938 0.79568 0.18523 0.0
H2744 H 0.83117 0.7591 0.1668 0.0
C2745 C 0.81937 0.73282 0.09792 0.0
C2746 C 0.79476 0.76052 0.12904 0.0
C2747 C 0.81981 0.72525 0.07904 0.0
C2748 C 0.79851 0.78593 0.2115 0.0
C2749 C 0.79962 0.78368 0.19208 0.0
C2750 C 0.82096 0.7597 0.15638 0.0
C2751 C 0.81181 0.74833 0.10325 0.0
C2752 C 0.81011 0.75523 0.12345 0.0
C2753 C 0.80211 0.76643 0.18185 0.0
C2754 C 0.80538 0.76431 0.16187 0.0
H2755 H 0.80002 0.75506 0.05959 0.0
H2756 H 0.79951 0.76856 0.09264 0.0
H2757 H 0.83554 0.75183 0.13375 0.0
H2758 H 0.8014 0.74114 0.21682 0.0
H2759 H 0.80407 0.73764 0.18343 0.0
C2760 C 0.15125 0.0163 0.69608 0.0
C2761 C 0.14127 0.01259 0.71121 0.0
C2762 C 0.14367 0.02011 0.67945 0.0
C2763 C 0.10041 0.01559 0.65019 0.0
H2764 H 0.12966 0.05504 0.62787 0.0
C2765 C 0.07348 0.039 0.5817 0.0
C2766 C 0.08577 0.04505 0.56911 0.0
C2767 C 0.07917 0.03558 0.59948 0.0
C2768 C 0.1212 0.04369 0.63349 0.0
H2769 H 0.11484 0.00973 0.71974 0.0
H2770 H 0.1015 0.01552 0.69056 0.0
H2771 H 0.14115 0.04727 0.65636 0.0
H2772 H 0.11381 0.05235 0.56604 0.0
H2773 H 0.12359 0.04684 0.59629 0.0
H2774 H 0.08052 0.01182 0.62704 0.0
C2775 C 0.11541 0.01572 0.6917 0.0
C2776 C 0.12791 0.03922 0.65016 0.0
C2777 C 0.12313 0.01238 0.7086 0.0
C2778 C 0.10385 0.04797 0.57526 0.0
C2779 C 0.10952 0.0448 0.59292 0.0
C2780 C 0.09371 0.01993 0.6333 0.0
C2781 C 0.12559 0.02005 0.67681 0.0
C2782 C 0.1178 0.02496 0.65892 0.0
C2783 C 0.0974 0.03825 0.60551 0.0
C2784 C 0.10401 0.03401 0.62436 0.0
H2785 H 0.16525 0.01692 0.6973 0.0
H2786 H 0.15215 0.0231 0.66855 0.0
H2787 H 0.09202 1.00445 0.65616 0.0
H2788 H 0.05941 0.03615 0.57752 0.0
H2789 H 0.06916 0.03071 0.60845 0.0
C2790 C 0.83367 0.38307 0.46096 0.0
C2791 C 0.81922 0.39124 0.46251 0.0
C2792 C 0.83829 0.37637 0.44349 0.0
C2793 C 0.82835 0.37386 0.39276 0.0
H2794 H 0.83202 0.32119 0.38957 0.0
C2795 C 0.80154 0.31529 0.32869 0.0
C2796 C 0.81369 0.30574 0.32107 0.0
C2797 C 0.80585 0.32703 0.34634 0.0
C2798 C 0.83134 0.33599 0.39035 0.0
H2799 H 0.79888 0.39995 0.44741 0.0
H2800 H 0.80607 0.38682 0.41657 0.0
H2801 H 0.83466 0.34193 0.42009 0.0
H2802 H 0.8393 0.29992 0.3254 0.0
H2803 H 0.84651 0.3198 0.35706 0.0
H2804 H 0.82368 0.36714 0.36286 0.0
C2805 C 0.81418 0.38614 0.42886 0.0
C2806 C 0.83298 0.34793 0.40774 0.0
C2807 C 0.80981 0.39327 0.44642 0.0
C2808 C 0.82965 0.3069 0.3315 0.0
C2809 C 0.83385 0.31838 0.34931 0.0
C2810 C 0.82648 0.36179 0.37536 0.0
C2811 C 0.82825 0.3773 0.4273 0.0
C2812 C 0.83075 0.36668 0.40909 0.0
C2813 C 0.82225 0.32905 0.35642 0.0
C2814 C 0.82727 0.34261 0.37422 0.0
H2815 H 0.84158 0.38206 0.47327 0.0
H2816 H 0.84942 0.37 0.44264 0.0
H2817 H 0.82698 0.38841 0.39349 0.0
H2818 H 0.78945 0.31496 0.32042 0.0
H2819 H 0.7967 0.33506 0.35186 0.0
C2820 C 0.45749 0.06838 0.25173 0.0
C2821 C 0.44048 0.05809 0.25451 0.0
C2822 C 0.46394 0.06464 0.23457 0.0
C2823 C 0.4601 0.02692 0.19412 0.0
H2824 H 0.48915 0.0692 0.17479 0.0
C2825 C 0.50077 0.01483 0.13208 0.0
C2826 C 0.51877 0.02444 0.13679 0.0
C2827 C 0.48826 0.01955 0.14355 0.0
C2828 C 0.48094 0.0573 0.17995 0.0
H2829 H 0.41676 0.03591 0.24161 0.0
H2830 H 0.42808 0.02955 0.21123 0.0
H2831 H 0.47168 0.07619 0.20047 0.0
H2832 H 0.53803 0.04716 0.15601 0.0
H2833 H 0.51612 0.05551 0.17629 0.0
H2834 H 0.46991 0.00808 0.174 0.0
C2835 C 0.43632 0.0405 0.22243 0.0
C2836 C 0.471 0.06126 0.19458 0.0
C2837 C 0.42982 0.04427 0.23969 0.0
C2838 C 0.52418 0.03933 0.15255 0.0
C2839 C 0.51168 0.04423 0.16389 0.0
C2840 C 0.46997 0.02295 0.17937 0.0
C2841 C 0.45345 0.05064 0.21982 0.0
C2842 C 0.46103 0.04615 0.2022 0.0
C2843 C 0.49368 0.03418 0.1596 0.0
C2844 C 0.48091 0.03816 0.17266 0.0
H2845 H 0.46609 0.07891 0.26299 0.0
H2846 H 0.47738 0.07228 0.23304 0.0
H2847 H 0.45264 0.01506 0.19993 0.0
H2848 H 0.49645 1.0036 0.11963 0.0
H2849 H 0.47441 0.01177 0.13997 0.0
C2850 C 0.81916 0.74889 0.95838 0.0
C2851 C 0.81066 0.72992 0.95982 0.0
C2852 C 0.82048 0.75398 0.94078 0.0
C2853 C 0.79657 0.73985 0.89379 0.0
H2854 H 0.8387 0.77194 0.87876 0.0
C2855 C 0.79845 0.75411 0.81911 0.0
C2856 C 0.80634 0.77306 0.81691 0.0
C2857 C 0.80029 0.74876 0.83641 0.0
C2858 C 0.82679 0.76312 0.88285 0.0
H2859 H 0.7969 0.70137 0.94438 0.0
H2860 H 0.79885 0.71027 0.9136 0.0
H2861 H 0.83985 0.76274 0.90942 0.0
H2862 H 0.82288 0.80085 0.8315 0.0
H2863 H 0.8258 0.79176 0.86156 0.0
H2864 H 0.78335 0.74047 0.86755 0.0
C2865 C 0.80472 0.72117 0.92597 0.0
C2866 C 0.82747 0.75784 0.90036 0.0
C2867 C 0.80374 0.71602 0.94351 0.0
C2868 C 0.8165 0.7863 0.83244 0.0
C2869 C 0.81831 0.78098 0.84979 0.0
C2870 C 0.79586 0.7452 0.8764 0.0
C2871 C 0.81286 0.74027 0.92443 0.0
C2872 C 0.81238 0.74603 0.90593 0.0
C2873 C 0.81002 0.76221 0.85202 0.0
C2874 C 0.81097 0.75677 0.87065 0.0
H2875 H 0.82447 0.75983 0.97087 0.0
H2876 H 0.82675 0.76882 0.94001 0.0
H2877 H 0.78462 0.73111 0.89788 0.0
H2878 H 0.79058 0.74336 0.80753 0.0
H2879 H 0.794 0.73404 0.83755 0.0
C2880 C 0.84524 0.13374 0.01594 0.0
C2881 C 0.82902 0.12003 0.01579 0.0
C2882 C 0.86112 0.12844 0.01731 0.0
C2883 C 0.87845 0.08591 0.00927 0.0
H2884 H 0.91914 0.118 0.04323 0.0
C2885 C 0.9366 0.05679 0.01769 0.0
C2886 C 0.9508 0.06766 0.01016 0.0
C2887 C 0.92361 0.06531 0.02451 0.0
C2888 C 0.90777 0.10894 0.03385 0.0
H2889 H 0.81651 0.09008 0.01645 0.0
H2890 H 0.84417 0.08083 0.01884 0.0
H2891 H 0.8918 0.12871 0.04072 0.0
H2892 H 0.96414 0.09603 0.00563 0.0
H2893 H 0.94103 0.111 0.01723 0.0
H2894 H 0.89418 0.06622 1.00229 0.0
C2895 C 0.84466 0.09561 0.01783 0.0
C2896 C 0.89229 0.11509 0.03226 0.0
C2897 C 0.82884 0.10089 0.01648 0.0
C2898 C 0.95308 0.08755 0.01137 0.0
C2899 C 0.94002 0.09608 0.01813 0.0
C2900 C 0.89371 0.07973 0.01102 0.0
C2901 C 0.86092 0.10936 0.01843 0.0
C2902 C 0.87752 0.10352 0.01998 0.0
C2903 C 0.92469 0.08465 0.02355 0.0
C2904 C 0.90841 0.09109 0.02338 0.0
H2905 H 0.84572 0.14867 0.0156 0.0
H2906 H 0.87352 0.13921 0.01752 0.0
H2907 H 0.86741 0.07698 0.99937 0.0
H2908 H 0.93483 0.04142 0.01688 0.0
H2909 H 0.91187 0.05635 0.02878 0.0
C2910 C 0.36971 0.4483 0.0303 0.0
C2911 C 0.36577 0.43106 0.03719 0.0
C2912 C 0.3874 0.45879 0.03038 0.0
C2913 C 0.43286 0.46702 0.05347 0.0
H2914 H 0.4478 0.48592 0.00894 0.0
C2915 C 0.50698 0.50034 0.04436 0.0
C2916 C 0.51083 0.51661 0.03588 0.0
C2917 C 0.48936 0.49018 0.04517 0.0
C2918 C 0.44383 0.48098 0.0216 0.0
H2919 H 0.37718 0.41154 0.05001 0.0
H2920 H 0.40799 0.43016 0.05077 0.0
H2921 H 0.41702 0.46794 0.00922 0.0
H2922 H 0.49906 0.53489 0.02155 0.0
H2923 H 0.4684 0.5172 0.02287 0.0
H2924 H 0.45966 0.48008 0.06586 0.0
C2925 C 0.39748 0.43548 0.04507 0.0
C2926 C 0.42615 0.47064 0.02174 0.0
C2927 C 0.37984 0.42476 0.04455 0.0
C2928 C 0.49661 0.52254 0.02834 0.0
C2929 C 0.479 0.51225 0.02893 0.0
C2930 C 0.45054 0.47741 0.05334 0.0
C2931 C 0.40153 0.45253 0.03779 0.0
C2932 C 0.4204 0.46357 0.03769 0.0
C2933 C 0.4751 0.49585 0.03726 0.0
C2934 C 0.45627 0.48461 0.03742 0.0
H2935 H 0.35914 0.4534 0.02441 0.0
H2936 H 0.39001 0.4719 0.02475 0.0
H2937 H 0.42887 0.46194 0.06606 0.0
H2938 H 0.51762 0.49537 0.05032 0.0
H2939 H 0.48692 0.47758 0.0516 0.0
C2940 C 0.38681 0.62435 0.74317 0.0
C2941 C 0.39737 0.62335 0.75922 0.0
C2942 C 0.3788 0.63986 0.74252 0.0
C2943 C 0.36808 0.68425 0.77296 0.0
H2944 H 0.3556 0.69429 0.72439 0.0
C2945 C 0.3308 0.74635 0.76576 0.0
C2946 C 0.32923 0.75247 0.74849 0.0
C2947 C 0.33879 0.73094 0.76773 0.0
C2948 C 0.35892 0.69228 0.73833 0.0
H2949 H 0.40736 0.63906 0.78741 0.0
H2950 H 0.39369 0.66582 0.78635 0.0
H2951 H 0.37015 0.66933 0.72667 0.0
H2952 H 0.33533 0.74648 0.71992 0.0
H2953 H 0.34888 0.7208 0.72304 0.0
H2954 H 0.35737 0.70779 0.78465 0.0
C2955 C 0.39134 0.65442 0.77407 0.0
C2956 C 0.36728 0.6772 0.73961 0.0
C2957 C 0.39942 0.63887 0.77467 0.0
C2958 C 0.33595 0.74236 0.73347 0.0
C2959 C 0.34387 0.72715 0.73537 0.0
C2960 C 0.35977 0.69954 0.7717 0.0
C2961 C 0.38079 0.65549 0.75791 0.0
C2962 C 0.37204 0.67248 0.7569 0.0
C2963 C 0.34572 0.7208 0.75255 0.0
C2964 C 0.35481 0.7041 0.75428 0.0
H2965 H 0.38467 0.613 0.73085 0.0
H2966 H 0.37075 0.63926 0.72977 0.0
H2967 H 0.37116 0.68158 0.78674 0.0
H2968 H 0.32621 0.75375 0.77793 0.0
H2969 H 0.33952 0.72713 0.78136 0.0
C2970 C 0.22525 0.61768 0.49807 0.0
C2971 C 0.23841 0.63133 0.51059 0.0
C2972 C 0.20873 0.61046 0.50399 0.0
C2973 C 0.18197 0.61661 0.54451 0.0
H2974 H 0.15709 0.56444 0.52 0.0
C2975 C 0.10865 0.58935 0.54221 0.0
C2976 C 0.10051 0.56979 0.53553 0.0
C2977 C 0.12695 0.59557 0.54594 0.0
C2978 C 0.16404 0.57875 0.5276 0.0
H2979 H 0.24511 0.64849 0.53876 0.0
H2980 H 0.21716 0.63492 0.54951 0.0
H2981 H 0.18575 0.57875 0.51146 0.0
H2982 H 0.10408 0.54093 0.52914 0.0
H2983 H 0.13615 0.55151 0.5374 0.0
H2984 H 0.16089 0.61597 0.56176 0.0
C2985 C 0.21879 0.63036 0.53493 0.0
C2986 C 0.18033 0.58726 0.52215 0.0
C2987 C 0.23491 0.63813 0.52879 0.0
C2988 C 0.1104 0.55616 0.53419 0.0
C2989 C 0.12869 0.56228 0.53877 0.0
C2990 C 0.16607 0.60775 0.55061 0.0
C2991 C 0.20561 0.61612 0.52275 0.0
C2992 C 0.18907 0.60661 0.52986 0.0
C2993 C 0.13728 0.58217 0.54336 0.0
C2994 C 0.15638 0.58914 0.54143 0.0
H2995 H 0.22785 0.61239 0.48396 0.0
H2996 H 0.19864 0.60009 0.49397 0.0
H2997 H 0.18823 0.63154 0.55088 0.0
H2998 H 0.101 0.59996 0.54315 0.0
H2999 H 0.13286 0.611 0.54925 0.0
C3000 C 0.71 0.99374 0.75836 0.0
C3001 C 0.72211 0.00748 0.75101 0.0
C3002 C 0.7122 0.97538 0.75735 0.0
C3003 C 0.73617 0.94158 0.73524 0.0
H3004 H 0.73469 0.92593 0.7834 0.0
C3005 C 0.78111 0.90237 0.76557 0.0
C3006 C 0.77471 0.89112 0.7786 0.0
C3007 C 0.76962 0.91005 0.75591 0.0
C3008 C 0.73456 0.92965 0.76965 0.0
H3009 H 0.74593 0.01311 0.73682 0.0
H3010 H 0.75034 0.98099 0.73591 0.0
H3011 H 0.72465 0.95383 0.77936 0.0
H3012 H 0.75165 0.87719 0.7908 0.0
H3013 H 0.73133 0.89061 0.77377 0.0
H3014 H 0.74755 0.9181 0.72615 0.0
C3015 C 0.73886 0.98433 0.74189 0.0
C3016 C 0.7289 0.9457 0.76738 0.0
C3017 C 0.73655 1.00273 0.74274 0.0
C3018 C 0.75662 0.88595 0.78072 0.0
C3019 C 0.74509 0.89349 0.77097 0.0
C3020 C 0.74198 0.92549 0.73756 0.0
C3021 C 0.7267 0.97061 0.74925 0.0
C3022 C 0.73013 0.95206 0.75035 0.0
C3023 C 0.75174 0.90645 0.75936 0.0
C3024 C 0.74165 0.9198 0.75496 0.0
H3025 H 0.69869 0.99707 0.76476 0.0
H3026 H 0.70267 0.96496 0.76307 0.0
H3027 H 0.73706 0.94628 0.72196 0.0
H3028 H 0.79514 0.90637 0.76393 0.0
H3029 H 0.77509 0.92026 0.74725 0.0
C3030 C 0.76675 0.94584 0.55434 0.0
C3031 C 0.76969 0.93072 0.54109 0.0
C3032 C 0.75095 0.9514 0.55276 0.0
C3033 C 0.71511 0.95022 0.51736 0.0
H3034 H 0.69321 0.96917 0.56054 0.0
C3035 C 0.65686 0.98302 0.50756 0.0
C3036 C 0.65806 1.00051 0.51979 0.0
C3037 C 0.66749 0.97111 0.51159 0.0
C3038 C 0.6992 0.96397 0.54835 0.0
H3039 H 0.75802 0.90905 0.51622 0.0
H3040 H 0.73039 0.91869 0.5135 0.0
H3041 H 0.71775 0.95461 0.56483 0.0
H3042 H 0.67043 0.01913 0.54608 0.0
H3043 H 0.68958 0.99872 0.55295 0.0
H3044 H 0.69712 0.9601 0.50092 0.0
C3045 C 0.74045 0.92649 0.52493 0.0
C3046 C 0.71327 0.95563 0.5508 0.0
C3047 C 0.75629 0.92095 0.52649 0.0
C3048 C 0.66936 1.0056 0.53653 0.0
C3049 C 0.68019 0.99384 0.54047 0.0
C3050 C 0.70113 0.95857 0.51492 0.0
C3051 C 0.73769 0.94193 0.53792 0.0
C3052 C 0.72159 0.94898 0.53535 0.0
C3053 C 0.67974 0.97671 0.52777 0.0
C3054 C 0.69319 0.96586 0.5304 0.0
H3055 H 0.77672 0.95355 0.56588 0.0
H3056 H 0.74937 0.96349 0.56289 0.0
H3057 H 0.72136 0.94554 0.50518 0.0
H3058 H 0.64808 0.97886 0.49463 0.0
H3059 H 0.66651 0.95783 0.50172 0.0
C3060 C 0.3865 0.5111 0.77365 0.0
C3061 C 0.40375 0.51605 0.76803 0.0
C3062 C 0.37727 0.49147 0.77322 0.0
C3063 C 0.37744 0.43934 0.75263 0.0
H3064 H 0.34634 0.4261 0.79036 0.0
C3065 C 0.34782 0.35805 0.75862 0.0
C3066 C 0.331 0.3521 0.76507 0.0
C3067 C 0.3561 0.37774 0.75879 0.0
C3068 C 0.35476 0.42934 0.77947 0.0
H3069 H 0.42434 0.5035 0.75715 0.0
H3070 H 0.40844 0.46995 0.75592 0.0
H3071 H 0.36115 0.45994 0.79078 0.0
H3072 H 0.31015 0.36328 0.77718 0.0
H3073 H 0.32434 0.39734 0.77741 0.0
H3074 H 0.37109 0.40884 0.74127 0.0
C3075 C 0.40184 0.48102 0.76081 0.0
C3076 C 0.36338 0.44904 0.77972 0.0
C3077 C 0.41113 0.50053 0.7616 0.0
C3078 C 0.32291 0.36691 0.77183 0.0
C3079 C 0.33127 0.3867 0.77215 0.0
C3080 C 0.36882 0.41968 0.75236 0.0
C3081 C 0.38472 0.47589 0.76677 0.0
C3082 C 0.375 0.45459 0.76633 0.0
C3083 C 0.3481 0.39267 0.76558 0.0
C3084 C 0.35726 0.41409 0.7658 0.0
H3085 H 0.38031 0.52243 0.77892 0.0
H3086 H 0.36416 0.48854 0.77787 0.0
H3087 H 0.38589 0.44253 0.74176 0.0
H3088 H 0.35475 0.34739 0.75333 0.0
H3089 H 0.36906 0.38122 0.75384 0.0
C3090 C 0.231 0.61447 0.27721 0.0
C3091 C 0.2133 0.60764 0.26931 0.0
C3092 C 0.24148 0.63139 0.27357 0.0
C3093 C 0.24389 0.66454 0.24065 0.0
H3094 H 0.27883 0.69804 0.28014 0.0
C3095 C 0.26658 0.74491 0.25551 0.0
C3096 C 0.28384 0.75397 0.26382 0.0
C3097 C 0.2617 0.72514 0.24891 0.0
C3098 C 0.26962 0.68851 0.26871 0.0
H3099 H 0.19199 0.61401 0.2532 0.0
H3100 H 0.21018 0.64474 0.24808 0.0
H3101 H 0.2605 0.66849 0.28605 0.0
H3102 H 0.30969 0.75054 0.27203 0.0
H3103 H 0.30107 0.71546 0.26057 0.0
H3104 H 0.25205 0.68616 0.22411 0.0
C3105 C 0.21614 0.63631 0.25611 0.0
C3106 C 0.25896 0.67163 0.27216 0.0
C3107 C 0.20567 0.619 0.25938 0.0
C3108 C 0.29637 0.74349 0.26538 0.0
C3109 C 0.29156 0.7237 0.25857 0.0
C3110 C 0.25438 0.68183 0.23732 0.0
C3111 C 0.23426 0.64222 0.26265 0.0
C3112 C 0.24582 0.65967 0.25833 0.0
C3113 C 0.27398 0.71436 0.25109 0.0
C3114 C 0.26698 0.69405 0.25156 0.0
H3115 H 0.23721 0.60604 0.285 0.0
H3116 H 0.25545 0.63549 0.27865 0.0
H3117 H 0.23403 0.65531 0.22964 0.0
H3118 H 0.25677 0.75304 0.2547 0.0
H3119 H 0.24794 0.71815 0.24371 0.0
C3120 C 0.54038 0.71331 0.4522 0.0
C3121 C 0.53552 0.72831 0.46375 0.0
C3122 C 0.54291 0.69731 0.45918 0.0
C3123 C 0.53356 0.67 0.49779 0.0
H3124 H 0.5744 0.65222 0.48292 0.0
C3125 C 0.55482 0.60756 0.52652 0.0
C3126 C 0.55882 0.59375 0.51259 0.0
C3127 C 0.55274 0.62514 0.52234 0.0
C3128 C 0.56287 0.65689 0.48717 0.0
H3129 H 0.52905 0.73818 0.49155 0.0
H3130 H 0.53301 0.70993 0.50376 0.0
H3131 H 0.56815 0.67958 0.47157 0.0
H3132 H 0.5641 0.58761 0.48367 0.0
H3133 H 0.56103 0.61801 0.4766 0.0
H3134 H 0.52823 0.64697 0.51322 0.0
C3135 C 0.53497 0.71055 0.48928 0.0
C3136 C 0.55923 0.67259 0.48057 0.0
C3137 C 0.53274 0.72675 0.48234 0.0
C3138 C 0.5613 0.59812 0.49478 0.0
C3139 C 0.55952 0.6156 0.49072 0.0
C3140 C 0.53719 0.65417 0.50438 0.0
C3141 C 0.54048 0.69579 0.4779 0.0
C3142 C 0.54441 0.67927 0.48557 0.0
C3143 C 0.55489 0.62927 0.50427 0.0
C3144 C 0.5518 0.64725 0.49896 0.0
H3145 H 0.54277 0.71424 0.43786 0.0
H3146 H 0.5469 0.68616 0.44989 0.0
H3147 H 0.52196 0.67464 0.50185 0.0
H3148 H 0.55241 0.60439 0.54024 0.0
H3149 H 0.54921 0.63536 0.53314 0.0
C3150 C 0.65915 0.3244 0.64178 0.0
C3151 C 0.6443 0.32778 0.65048 0.0
C3152 C 0.67426 0.32308 0.65236 0.0
C3153 C 0.69822 0.33659 0.70021 0.0
H3154 H 0.71964 0.29487 0.6832 0.0
C3155 C 0.75365 0.32209 0.74756 0.0
C3156 C 0.76667 0.31392 0.73958 0.0
C3157 C 0.73906 0.32381 0.73651 0.0
C3158 C 0.71412 0.30685 0.68811 0.0
H3159 H 0.63405 0.33283 0.67734 0.0
H3160 H 0.66056 0.33112 0.6958 0.0
H3161 H 0.69416 0.29831 0.66451 0.0
H3162 H 0.77436 0.30146 0.7131 0.0
H3163 H 0.74951 0.3053 0.69376 0.0
H3164 H 0.7183 0.34559 0.72348 0.0
C3165 C 0.66047 0.32935 0.68074 0.0
C3166 C 0.69936 0.30876 0.67734 0.0
C3167 C 0.64523 0.33033 0.67013 0.0
C3168 C 0.76471 0.30785 0.71994 0.0
C3169 C 0.75022 0.30986 0.70878 0.0
C3170 C 0.71312 0.33488 0.71083 0.0
C3171 C 0.67512 0.32543 0.672 0.0
C3172 C 0.69111 0.32359 0.68329 0.0
C3173 C 0.73703 0.31781 0.71688 0.0
C3174 C 0.7213 0.31989 0.70509 0.0
H3175 H 0.65891 0.32213 0.62668 0.0
H3176 H 0.6853 0.32022 0.64512 0.0
H3177 H 0.69242 0.34836 0.70515 0.0
H3178 H 0.75452 0.32714 0.7624 0.0
H3179 H 0.72921 0.32964 0.74357 0.0
C3180 C 0.02803 0.34919 0.95421 0.0
C3181 C 0.02832 0.3359 0.96597 0.0
C3182 C 0.02959 0.36871 0.96173 0.0
C3183 C 0.04561 0.40734 0.00392 0.0
H3184 H 0.01264 0.43137 0.98187 0.0
C3185 C 0.04494 0.48753 0.03192 0.0
C3186 C 0.04438 0.49848 0.01792 0.0
C3187 C 0.04159 0.46727 0.02711 0.0
C3188 C 0.02204 0.42497 0.98815 0.0
H3189 H 0.03095 0.33274 0.99487 0.0
H3190 H 0.03457 0.36715 0.0081 0.0
H3191 H 0.01067 0.39731 0.97034 0.0
H3192 H 0.03941 0.49685 0.98814 0.0
H3193 H 0.03299 0.46177 0.97981 0.0
H3194 H 0.05721 0.4352 0.02148 0.0
C3195 C 0.03283 0.36238 0.99303 0.0
C3196 C 0.02092 0.4054 0.98149 0.0
C3197 C 0.03074 0.34268 0.98547 0.0
C3198 C 0.03968 0.48875 0.99923 0.0
C3199 C 0.03601 0.4686 0.99447 0.0
C3200 C 0.04678 0.42702 0.01054 0.0
C3201 C 0.03191 0.37559 0.98124 0.0
C3202 C 0.03281 0.39633 0.98909 0.0
C3203 C 0.03735 0.45755 0.00825 0.0
C3204 C 0.03514 0.43618 1.00257 0.0
H3205 H 0.02593 0.34434 0.93914 0.0
H3206 H 0.02893 0.37844 0.95222 0.0
H3207 H 0.05506 0.40089 0.01003 0.0
H3208 H 0.04891 0.49468 0.04642 0.0
H3209 H 0.04265 0.45925 0.03811 0.0
C3210 C 0.02275 0.8249 0.14413 0.0
C3211 C 0.03549 0.81624 0.15073 0.0
C3212 C 0.00624 0.82264 0.15141 0.0
C3213 C 0.97661 0.79065 0.17792 0.0
H3214 H 0.95456 0.83289 0.18962 0.0
C3215 C 0.9294 0.79372 0.234 0.0
C3216 C 0.9116 0.79207 0.22773 0.0
C3217 C 0.94287 0.79808 0.22251 0.0
C3218 C 0.96046 0.82092 0.18614 0.0
H3219 H 0.04089 0.79879 0.17047 0.0
H3220 H 0.01267 0.79525 0.18328 0.0
H3221 H 0.98154 0.83742 0.17338 0.0
H3222 H 0.89438 0.79529 0.20477 0.0
H3223 H 0.91835 0.80358 0.18473 0.0
H3224 H 0.95614 0.77453 0.19151 0.0
C3225 C 0.01508 0.8034 0.1722 0.0
C3226 C 0.97589 0.82346 0.17684 0.0
C3227 C 0.03144 0.80562 0.16495 0.0
C3228 C 0.9079 0.79642 0.21007 0.0
C3229 C 0.92157 0.80109 0.19857 0.0
C3230 C 0.96141 0.78821 0.18733 0.0
C3231 C 1.0021 0.81162 0.1654 0.0
C3232 C 0.98448 0.80851 0.17311 0.0
C3233 C 0.93908 0.80135 0.20453 0.0
C3234 C 0.95341 0.80342 0.19193 0.0
H3235 H 0.02539 0.8331 0.1331 0.0
H3236 H 0.99659 0.82914 0.14577 0.0
H3237 H 0.98246 0.77859 0.17482 0.0
H3238 H 0.93289 0.79101 0.24768 0.0
H3239 H 0.95628 0.79842 0.22753 0.0
C3240 C 0.53381 0.31766 0.12719 0.0
C3241 C 0.51581 0.30986 0.12846 0.0
C3242 C 0.53912 0.33366 0.11906 0.0
C3243 C 0.5247 0.37278 0.10236 0.0
H3244 H 0.56106 0.36846 0.06909 0.0
C3245 C 0.54276 0.41909 0.04651 0.0
C3246 C 0.56081 0.4251 0.0441 0.0
C3247 C 0.53724 0.40678 0.0588 0.0
C3248 C 0.5511 0.37001 0.07854 0.0
H3249 H 0.4891 0.31233 0.12293 0.0
H3250 H 0.49832 0.34022 0.10771 0.0
H3251 H 0.55085 0.34332 0.08666 0.0
H3252 H 0.58741 0.42433 0.05319 0.0
H3253 H 0.57778 0.40272 0.07491 0.0
H3254 H 0.52473 0.39935 0.0936 0.0
C3255 C 0.50837 0.33431 0.1135 0.0
C3256 C 0.54524 0.35563 0.0886 0.0
C3257 C 0.50308 0.31843 0.12208 0.0
C3258 C 0.57338 0.41932 0.05455 0.0
C3259 C 0.56789 0.40714 0.06697 0.0
C3260 C 0.53051 0.38717 0.09212 0.0
C3261 C 0.52643 0.34173 0.11157 0.0
C3262 C 0.53214 0.35697 0.10074 0.0
C3263 C 0.54976 0.40052 0.0689 0.0
C3264 C 0.54384 0.38589 0.08026 0.0
H3265 H 0.54375 0.31113 0.13221 0.0
H3266 H 0.55315 0.3394 0.11821 0.0
H3267 H 0.51462 0.37414 0.11168 0.0
H3268 H 0.53292 0.42365 0.03863 0.0
H3269 H 0.52318 0.40169 0.05994 0.0
C3270 C 0.04112 0.3139 0.36871 0.0
C3271 C 0.05572 0.32973 0.36939 0.0
C3272 C 0.02432 0.31445 0.36167 0.0
C3273 C 0.00297 0.34018 0.33188 0.0
H3274 H 0.96023 0.31666 0.35258 0.0
C3275 C 0.93722 0.34799 0.30358 0.0
C3276 C 0.9247 0.33034 0.29664 0.0
C3277 C 0.95154 0.34888 0.31625 0.0
C3278 C 0.9721 0.32329 0.34675 0.0
H3279 H 0.0647 0.35866 0.36408 0.0
H3280 H 0.03532 0.35994 0.35207 0.0
H3281 H 0.98928 0.31637 0.36693 0.0
H3282 H 0.91629 0.30007 0.29829 0.0
H3283 H 0.94185 0.30147 0.3202 0.0
H3284 H 0.98597 0.34712 0.31178 0.0
C3285 C 0.03672 0.34686 0.35641 0.0
C3286 C 0.98868 0.32304 0.35484 0.0
C3287 C 0.0535 0.3462 0.36326 0.0
C3288 C 0.92592 0.31382 0.30352 0.0
C3289 C 0.94042 0.31465 0.31608 0.0
C3290 C 0.98653 0.34061 0.32399 0.0
C3291 C 0.02194 0.33095 0.35545 0.0
C3292 C 0.00429 0.33145 0.34741 0.0
C3293 C 0.95371 0.33205 0.3219 0.0
C3294 C 0.97095 0.33219 0.33131 0.0
H3295 H 0.04272 0.30118 0.37369 0.0
H3296 H 0.01327 0.30188 0.36091 0.0
H3297 H 0.01464 0.34633 0.32548 0.0
H3298 H 0.93629 0.36091 0.29861 0.0
H3299 H 0.96147 0.36253 0.32085 0.0
C3300 C 0.97595 0.70715 0.61739 0.0
C3301 C 0.98028 0.7118 0.63689 0.0
C3302 C 0.97837 0.6901 0.6073 0.0
C3303 C 0.99411 0.64676 0.61074 0.0
H3304 H 0.02648 0.66727 0.57647 0.0
C3305 C 0.04449 0.60816 0.57966 0.0
C3306 C 0.04447 0.60626 0.56015 0.0
C3307 C 0.03575 0.62055 0.58948 0.0
C3308 C 0.01736 0.66131 0.58586 0.0
H3309 H 0.98657 0.70067 0.66146 0.0
H3310 H 0.99135 0.67129 0.64383 0.0
H3311 H 0.00818 0.68665 0.59139 0.0
H3312 H 0.03626 0.61657 0.53594 0.0
H3313 H 0.0203 0.63744 0.55275 0.0
H3314 H 0.00375 0.6215 0.60536 0.0
C3315 C 0.98632 0.68073 0.63626 0.0
C3316 C 0.00674 0.67226 0.59423 0.0
C3317 C 0.98367 0.69765 0.64636 0.0
C3318 C 0.03615 0.61739 0.55077 0.0
C3319 C 0.02725 0.62957 0.56049 0.0
C3320 C 0.00477 0.63574 0.60231 0.0
C3321 C 0.98518 0.67775 0.61667 0.0
C3322 C 0.99489 0.66501 0.60659 0.0
C3323 C 0.02677 0.63101 0.57985 0.0
C3324 C 0.01636 0.64294 0.58972 0.0
H3325 H 0.97285 0.7176 0.60975 0.0
H3326 H 0.97689 0.68769 0.59213 0.0
H3327 H 0.98527 0.64105 0.62047 0.0
H3328 H 0.05049 0.59943 0.58725 0.0
H3329 H 0.03569 0.62164 0.60448 0.0
C3330 C 0.64327 0.82261 0.8435 0.0
C3331 C 0.64532 0.82276 0.86278 0.0
C3332 C 0.65778 0.8235 0.83331 0.0
C3333 C 0.69531 0.80508 0.83394 0.0
H3334 H 0.71028 0.83365 0.79495 0.0
C3335 C 0.75776 0.80392 0.79933 0.0
C3336 C 0.75694 0.80252 0.77993 0.0
C3337 C 0.74309 0.80556 0.80846 0.0
C3338 C 0.7059 0.8254 0.80559 0.0
H3339 H 0.66422 0.82581 0.88692 0.0
H3340 H 0.68951 0.82691 0.86889 0.0
H3341 H 0.68795 0.84227 0.81457 0.0
H3342 H 0.74088 0.80197 0.75456 0.0
H3343 H 0.71466 0.80492 0.77078 0.0
H3344 H 0.71298 0.78809 0.82499 0.0
C3345 C 0.67668 0.82598 0.86177 0.0
C3346 C 0.69343 0.83047 0.81687 0.0
C3347 C 0.66222 0.82514 0.87197 0.0
C3348 C 0.7414 0.80269 0.76956 0.0
C3349 C 0.72662 0.80445 0.77876 0.0
C3350 C 0.70761 0.79994 0.82263 0.0
C3351 C 0.67435 0.82444 0.84233 0.0
C3352 C 0.68825 0.8204 0.83117 0.0
C3353 C 0.72757 0.80619 0.79828 0.0
C3354 C 0.71306 0.81016 0.80853 0.0
H3355 H 0.63044 0.82134 0.83621 0.0
H3356 H 0.65582 0.82226 0.81827 0.0
H3357 H 0.69107 0.79686 0.84465 0.0
H3358 H 0.76994 0.80434 0.80748 0.0
H3359 H 0.74416 0.80722 0.82357 0.0
C3360 C 0.48759 0.5836 0.72611 0.0
C3361 C 0.469 0.57623 0.72553 0.0
C3362 C 0.49634 0.58311 0.70946 0.0
C3363 C 0.49035 0.55717 0.65836 0.0
H3364 H 0.53017 0.59849 0.65209 0.0
C3365 C 0.51955 0.55599 0.58549 0.0
C3366 C 0.53758 0.56494 0.58424 0.0
C3367 C 0.51183 0.55792 0.60264 0.0
C3368 C 0.51922 0.58657 0.65346 0.0
H3369 H 0.44542 0.56218 0.70626 0.0
H3370 H 0.46042 0.56073 0.67779 0.0
H3371 H 0.5162 0.60067 0.6813 0.0
H3372 H 0.56123 0.5835 0.60118 0.0
H3373 H 0.54805 0.5868 0.63079 0.0
H3374 H 0.49343 0.5428 0.6309 0.0
C3375 C 0.46841 0.56722 0.69105 0.0
C3376 C 0.51108 0.58788 0.67048 0.0
C3377 C 0.45966 0.5682 0.70757 0.0
C3378 C 0.54741 0.57622 0.60114 0.0
C3379 C 0.53966 0.57822 0.61837 0.0
C3380 C 0.49855 0.55578 0.64148 0.0
C3381 C 0.48699 0.57466 0.69147 0.0
C3382 C 0.4963 0.57326 0.67333 0.0
C3383 C 0.52165 0.56895 0.61967 0.0
C3384 C 0.51313 0.5705 0.63838 0.0
H3385 H 0.49543 0.58995 0.73948 0.0
H3386 H 0.51058 0.58902 0.71078 0.0
H3387 H 0.47938 0.54526 0.65974 0.0
H3388 H 0.51122 0.54718 0.57311 0.0
H3389 H 0.49793 0.55075 0.60234 0.0
C3390 C 0.7921 0.17547 0.96274 0.0
C3391 C 0.79481 0.18899 0.97963 0.0
C3392 C 0.78854 0.18089 0.94589 0.0
C3393 C 0.7742 0.21856 0.92683 0.0
H3394 H 0.8034 0.20763 0.88716 0.0
C3395 C 0.78615 0.26552 0.87438 0.0
C3396 C 0.77707 0.25556 0.85699 0.0
C3397 C 0.79071 0.25518 0.88727 0.0
C3398 C 0.79517 0.2106 0.89815 0.0
H3399 H 0.79582 0.21856 0.99237 0.0
H3400 H 0.79028 0.22822 0.9629 0.0
H3401 H 0.80368 0.19211 0.91434 0.0
H3402 H 0.76743 0.22786 0.83815 0.0
H3403 H 0.77566 0.20957 0.86088 0.0
H3404 H 0.76634 0.2377 0.91107 0.0
C3405 C 0.79053 0.21337 0.9627 0.0
C3406 C 0.79515 0.20166 0.91349 0.0
C3407 C 0.79399 0.20795 0.9795 0.0
C3408 C 0.77446 0.23557 0.85162 0.0
C3409 C 0.77917 0.22521 0.86448 0.0
C3410 C 0.77441 0.22764 0.91168 0.0
C3411 C 0.78774 0.19987 0.94582 0.0
C3412 C 0.78514 0.20616 0.92819 0.0
C3413 C 0.78624 0.23494 0.88266 0.0
C3414 C 0.78536 0.22416 0.89766 0.0
H3415 H 0.79225 0.1606 0.96255 0.0
H3416 H 0.78626 0.17026 0.93298 0.0
H3417 H 0.76606 0.22183 0.93784 0.0
H3418 H 0.78813 0.281 0.8786 0.0
H3419 H 0.79621 0.26277 0.90135 0.0
C3420 C 0.17622 0.55277 0.19438 0.0
C3421 C 0.17428 0.53645 0.20257 0.0
C3422 C 0.16382 0.5528 0.18 0.0
C3423 C 0.11715 0.52874 0.16471 0.0
H3424 H 0.12505 0.55846 0.12541 0.0
C3425 C 0.07015 0.52355 0.09958 0.0
C3426 C 0.07075 0.54106 0.094 0.0
C3427 C 0.08021 0.5236 0.11595 0.0
C3428 C 0.12272 0.55037 0.13656 0.0
H3429 H 0.15979 0.50665 0.20094 0.0
H3430 H 0.13877 0.50617 0.17469 0.0
H3431 H 0.1504 0.5555 0.14446 0.0
H3432 H 0.07961 0.57229 0.10164 0.0
H3433 H 0.09727 0.5724 0.13039 0.0
H3434 H 0.08939 0.52299 0.15607 0.0
C3435 C 0.14921 0.51925 0.18003 0.0
C3436 C 0.13718 0.54858 0.14734 0.0
C3437 C 0.16131 0.51939 0.19478 0.0
C3438 C 0.07946 0.55867 0.10577 0.0
C3439 C 0.08938 0.55875 0.12213 0.0
C3440 C 0.10268 0.53026 0.15369 0.0
C3441 C 0.1497 0.53632 0.17341 0.0
C3442 C 0.13452 0.53764 0.16142 0.0
C3443 C 0.09066 0.54119 0.12661 0.0
C3444 C 0.10545 0.54108 0.1396 0.0
H3445 H 0.1861 0.56614 0.20036 0.0
H3446 H 0.16451 0.56621 0.17523 0.0
H3447 H 0.1147 0.5207 0.17587 0.0
H3448 H 0.06338 0.50991 0.09046 0.0
H3449 H 0.08119 0.50993 0.11925 0.0
C3450 C 0.80576 0.83924 0.47042 0.0
C3451 C 0.80702 0.85887 0.47729 0.0
C3452 C 0.80487 0.83219 0.45114 0.0
C3453 C 0.82102 0.84863 0.40971 0.0
H3454 H 0.78739 0.80291 0.38061 0.0
C3455 C 0.81245 0.83308 0.32969 0.0
C3456 C 0.80859 0.81401 0.31966 0.0
C3457 C 0.81373 0.83698 0.34918 0.0
C3458 C 0.7971 0.81548 0.38864 0.0
H3459 H 0.80784 0.88638 0.46944 0.0
H3460 H 0.80686 0.8742 0.43581 0.0
H3461 H 0.78501 0.8128 0.41409 0.0
H3462 H 0.80311 0.78394 0.32204 0.0
H3463 H 0.80537 0.79075 0.35649 0.0
H3464 H 0.83325 0.85137 0.38454 0.0
C3465 C 0.80631 0.86423 0.44531 0.0
C3466 C 0.79563 0.82121 0.40775 0.0
C3467 C 0.80673 0.87116 0.46451 0.0
C3468 C 0.80644 0.7988 0.32952 0.0
C3469 C 0.80753 0.80271 0.34917 0.0
C3470 C 0.82261 0.84282 0.39075 0.0
C3471 C 0.80574 0.84476 0.43846 0.0
C3472 C 0.80739 0.83806 0.41837 0.0
C3473 C 0.81089 0.82187 0.35919 0.0
C3474 C 0.81047 0.8264 0.37986 0.0
H3475 H 0.80592 0.82947 0.48 0.0
H3476 H 0.80441 0.81712 0.44624 0.0
H3477 H 0.83051 0.86144 0.41766 0.0
H3478 H 0.81392 0.84502 0.32237 0.0
H3479 H 0.81608 0.85187 0.35633 0.0
C3480 C 0.49452 0.55236 0.8333 0.0
C3481 C 0.48164 0.56281 0.8321 0.0
C3482 C 0.50257 0.55089 0.85079 0.0
C3483 C 0.50511 0.56925 0.90458 0.0
H3484 H 0.53017 0.52984 0.90635 0.0
C3485 C 0.53026 0.55276 0.97662 0.0
C3486 C 0.5469 0.54856 0.97837 0.0
C3487 C 0.52217 0.55389 0.95904 0.0
C3488 C 0.52334 0.54108 0.90629 0.0
H3489 H 0.46735 0.57989 0.84931 0.0
H3490 H 0.48047 0.57682 0.87932 0.0
H3491 H 0.51695 0.53302 0.87655 0.0
H3492 H 0.56803 0.54272 0.96243 0.0
H3493 H 0.55372 0.54368 0.93188 0.0
H3494 H 0.51125 0.5768 0.9346 0.0
C3495 C 0.48502 0.57003 0.86685 0.0
C3496 C 0.51565 0.54307 0.88884 0.0
C3497 C 0.47723 0.57178 0.84932 0.0
C3498 C 0.555 0.54534 0.96174 0.0
C3499 C 0.54674 0.54604 0.94408 0.0
C3500 C 0.51256 0.56703 0.92206 0.0
C3501 C 0.49794 0.55946 0.86821 0.0
C3502 C 0.50631 0.55728 0.88734 0.0
C3503 C 0.53027 0.55077 0.94231 0.0
C3504 C 0.52193 0.55292 0.92339 0.0
H3505 H 0.49852 0.54526 0.82058 0.0
H3506 H 0.51257 0.54298 0.85039 0.0
H3507 H 0.49858 0.58073 0.90482 0.0
H3508 H 0.52377 0.55593 0.98905 0.0
H3509 H 0.50952 0.55742 0.95864 0.0
C3510 C 0.78523 0.16736 0.08764 0.0
C3511 C 0.79707 0.17679 0.07639 0.0
C3512 C 0.7791 0.17807 0.10232 0.0
C3513 C 0.77695 0.22795 0.12137 0.0
H3514 H 0.78643 0.21456 0.16937 0.0
C3515 C 0.78571 0.27806 0.19514 0.0
C3516 C 0.80108 0.27757 0.20566 0.0
C3517 C 0.78026 0.26568 0.17781 0.0
C3518 C 0.78346 0.21831 0.15602 0.0
H3519 H 0.81224 0.20474 0.07204 0.0
H3520 H 0.80214 0.22326 0.09803 0.0
H3521 H 0.78395 0.1907 0.1409 0.0
H3522 H 0.82337 0.26503 0.20668 0.0
H3523 H 0.81425 0.2438 0.1761 0.0
H3524 H 0.77819 0.25625 0.13668 0.0
C3525 C 0.79708 0.20766 0.09511 0.0
C3526 C 0.78181 0.20461 0.13977 0.0
C3527 C 0.80324 0.19702 0.08054 0.0
C3528 C 0.81176 0.2659 0.19835 0.0
C3529 C 0.80632 0.25353 0.18116 0.0
C3530 C 0.77873 0.24173 0.13768 0.0
C3531 C 0.78477 0.19831 0.10592 0.0
C3532 C 0.77985 0.20982 0.12233 0.0
C3533 C 0.79009 0.25266 0.1713 0.0
C3534 C 0.78322 0.23728 0.15491 0.0
H3535 H 0.78013 0.15178 0.08464 0.0
H3536 H 0.7698 0.17057 0.11069 0.0
H3537 H 0.77497 0.23203 0.10797 0.0
H3538 H 0.77717 0.28671 0.20103 0.0
H3539 H 0.7678 0.26525 0.17022 0.0
C3540 C 0.1619 0.53532 0.31565 0.0
C3541 C 0.16673 0.55023 0.30577 0.0
C3542 C 0.15788 0.53958 0.33401 0.0
C3543 C 0.13968 0.5759 0.36026 0.0
H3544 H 0.13853 0.54421 0.39795 0.0
C3545 C 0.08439 0.56826 0.40559 0.0
C3546 C 0.08922 0.5719 0.42488 0.0
C3547 C 0.09663 0.56482 0.39332 0.0
C3548 C 0.13898 0.55329 0.38761 0.0
H3549 H 0.17335 0.58113 0.30706 0.0
H3550 H 0.16713 0.58879 0.33939 0.0
H3551 H 0.15869 0.54218 0.37362 0.0
H3552 H 0.10998 0.57363 0.44676 0.0
H3553 H 0.13163 0.56793 0.4251 0.0
H3554 H 0.12012 0.58702 0.37406 0.0
C3555 C 0.16564 0.5738 0.333 0.0
C3556 C 0.15039 0.55209 0.37372 0.0
C3557 C 0.16913 0.56948 0.31458 0.0
C3558 C 0.10605 0.57088 0.43183 0.0
C3559 C 0.11837 0.56758 0.41953 0.0
C3560 C 0.12852 0.57722 0.37413 0.0
C3561 C 0.15904 0.55883 0.34255 0.0
C3562 C 0.15032 0.56288 0.35954 0.0
C3563 C 0.1139 0.56527 0.40026 0.0
C3564 C 0.12751 0.56532 0.38736 0.0
H3565 H 0.16043 0.52044 0.30893 0.0
H3566 H 0.15275 0.52772 0.34098 0.0
H3567 H 0.13904 0.58426 0.34945 0.0
H3568 H 0.07133 0.56857 0.40004 0.0
H3569 H 0.09283 0.56256 0.37841 0.0
C3570 C 0.7997 0.88031 0.59895 0.0
C3571 C 0.80346 0.86981 0.58227 0.0
C3572 C 0.79581 0.87155 0.61425 0.0
C3573 C 0.80211 0.83101 0.63496 0.0
H3574 H 0.76625 0.84336 0.6659 0.0
C3575 C 0.78621 0.79673 0.69892 0.0
C3576 C 0.78523 0.80955 0.71536 0.0
C3577 C 0.78595 0.80247 0.6817 0.0
C3578 C 0.77634 0.83984 0.65743 0.0
H3579 H 0.80589 0.84177 0.56854 0.0
H3580 H 0.79893 0.82636 0.59535 0.0
H3581 H 0.77069 0.8563 0.63739 0.0
H3582 H 0.78292 0.83824 0.72681 0.0
H3583 H 0.78272 0.84848 0.69668 0.0
H3584 H 0.808 0.81486 0.65516 0.0
C3585 C 0.79918 0.84147 0.59656 0.0
C3586 C 0.7789 0.84725 0.64112 0.0
C3587 C 0.80308 0.85026 0.58119 0.0
C3588 C 0.78354 0.82806 0.71427 0.0
C3589 C 0.78333 0.83385 0.69703 0.0
C3590 C 0.79954 0.82359 0.65125 0.0
C3591 C 0.79553 0.85205 0.61325 0.0
C3592 C 0.79195 0.84309 0.62983 0.0
C3593 C 0.78491 0.82124 0.68063 0.0
C3594 C 0.78675 0.82809 0.66274 0.0
H3595 H 0.79989 0.89541 0.6003 0.0
H3596 H 0.79337 0.88019 0.62701 0.0
H3597 H 0.81246 0.82779 0.62672 0.0
H3598 H 0.78827 0.78269 0.69944 0.0
H3599 H 0.78708 0.79241 0.66928 0.0
C3600 C 0.77922 0.48833 0.51881 0.0
C3601 C 0.77697 0.46841 0.51315 0.0
C3602 C 0.76466 0.4955 0.52218 0.0
C3603 C 0.71673 0.48571 0.51451 0.0
H3604 H 0.72452 0.52345 0.56099 0.0
C3605 C 0.66479 0.52307 0.54702 0.0
C3606 C 0.67116 0.54334 0.552 0.0
C3607 C 0.67619 0.51182 0.5411 0.0
C3608 C 0.72221 0.51292 0.548 0.0
H3609 H 0.75785 0.44036 0.50547 0.0
H3610 H 0.7321 0.45309 0.51148 0.0
H3611 H 0.74733 0.50711 0.55248 0.0
H3612 H 0.69409 0.56773 0.55389 0.0
H3613 H 0.71414 0.54797 0.544 0.0
H3614 H 0.69153 0.49181 0.51012 0.0
C3615 C 0.74518 0.46304 0.51321 0.0
C3616 C 0.7352 0.50363 0.54312 0.0
C3617 C 0.75984 0.45582 0.50974 0.0
C3618 C 0.68897 0.55215 0.55056 0.0
C3619 C 0.70036 0.5409 0.54481 0.0
C3620 C 0.70361 0.49498 0.51949 0.0
C3621 C 0.74764 0.48285 0.52006 0.0
C3622 C 0.73281 0.4905 0.52605 0.0
C3623 C 0.69408 0.5207 0.54036 0.0
C3624 C 0.70661 0.50908 0.53596 0.0
H3625 H 0.7923 0.49834 0.52139 0.0
H3626 H 0.76678 0.51092 0.52703 0.0
H3627 H 0.71466 0.47551 0.50133 0.0
H3628 H 0.65112 0.51587 0.54815 0.0
H3629 H 0.6712 0.49622 0.53776 0.0
C3630 C 0.24071 0.1692 0.49729 0.0
C3631 C 0.25444 0.15996 0.49457 0.0
C3632 C 0.22327 0.15853 0.49774 0.0
C3633 C 0.19185 0.1104 0.48364 0.0
H3634 H 0.16768 0.12833 0.5253 0.0
C3635 C 0.12303 0.06569 0.49845 0.0
C3636 C 0.11139 0.07561 0.50702 0.0
C3637 C 0.14032 0.07564 0.49601 0.0
C3638 C 0.17399 0.12322 0.51334 0.0
H3639 H 0.26033 0.13205 0.48948 0.0
H3640 H 0.22965 0.11332 0.48983 0.0
H3641 H 0.19773 0.14608 0.52228 0.0
H3642 H 0.10869 0.10414 0.51877 0.0
H3643 H 0.13822 0.12144 0.51379 0.0
H3644 H 0.168 0.08779 0.47439 0.0
C3645 C 0.23253 0.12891 0.49178 0.0
C3646 C 0.19135 0.13341 0.5117 0.0
C3647 C 0.2501 0.13964 0.49162 0.0
C3648 C 0.11729 0.09587 0.51237 0.0
C3649 C 0.13441 0.10584 0.50965 0.0
C3650 C 0.17434 0.10032 0.48512 0.0
C3651 C 0.21897 0.13827 0.49521 0.0
C3652 C 0.2005 0.12716 0.49683 0.0
C3653 C 0.14638 0.09589 0.50178 0.0
C3654 C 0.1651 0.10658 0.50001 0.0
H3655 H 0.24351 0.18481 0.49966 0.0
H3656 H 0.21313 0.16618 0.5002 0.0
H3657 H 0.19849 0.10529 0.47194 0.0
H3658 H 0.11905 0.0502 0.49406 0.0
H3659 H 0.14905 0.06731 0.49005 0.0
C3660 C 0.20723 0.94949 0.76355 0.0
C3661 C 0.20994 0.96171 0.75029 0.0
C3662 C 0.21605 0.93451 0.76371 0.0
C3663 C 0.25391 0.91492 0.7423 0.0
H3664 H 0.2354 0.87215 0.76664 0.0
C3665 C 0.28575 0.84816 0.73634 0.0
C3666 C 0.28476 0.83713 0.75055 0.0
C3667 C 0.27733 0.86347 0.73685 0.0
C3668 C 0.24109 0.88401 0.7599 0.0
H3669 H 0.22436 0.96668 0.72644 0.0
H3670 H 0.23913 0.94088 0.72633 0.0
H3671 H 0.21972 0.89708 0.76618 0.0
H3672 H 0.27274 0.8335 0.77605 0.0
H3673 H 0.25839 0.86001 0.77722 0.0
H3674 H 0.27518 0.90173 0.73589 0.0
C3675 C 0.23052 0.94295 0.73713 0.0
C3676 C 0.2319 0.89865 0.75962 0.0
C3677 C 0.22178 0.95795 0.73705 0.0
C3678 C 0.27463 0.84201 0.7652 0.0
C3679 C 0.26599 0.85718 0.76563 0.0
C3680 C 0.26302 0.90025 0.74249 0.0
C3681 C 0.22808 0.93078 0.75055 0.0
C3682 C 0.238 0.91465 0.75082 0.0
C3683 C 0.26692 0.86829 0.75136 0.0
C3684 C 0.25695 0.88432 0.75131 0.0
H3685 H 0.19832 0.95158 0.77407 0.0
H3686 H 0.21352 0.92609 0.77454 0.0
H3687 H 0.25973 0.92675 0.7356 0.0
H3688 H 0.29265 0.84452 0.72434 0.0
H3689 H 0.27845 0.871 0.72527 0.0
C3690 C 0.37049 0.97401 0.99988 0.0
C3691 C 0.3647 0.95641 0.00581 0.0
C3692 C 0.38827 0.98399 1.00305 0.0
C3693 C 0.42888 0.98927 0.03259 0.0
H3694 H 0.45197 0.00863 0.9915 0.0
C3695 C 0.50352 0.01123 0.02966 0.0
C3696 C 0.50994 0.03126 0.03179 0.0
C3697 C 0.48553 1.00271 0.02524 0.0
C3698 C 0.44552 1.0034 1.00302 0.0
H3699 H 0.3727 0.93535 0.01974 0.0
H3700 H 0.40399 0.95275 0.02498 0.0
H3701 H 0.4203 0.99202 0.98677 0.0
H3702 H 0.50351 0.05842 0.03138 0.0
H3703 H 0.47154 0.04322 0.02291 0.0
H3704 H 0.45433 1.00017 0.04859 0.0
C3705 C 0.39471 0.95883 0.01804 0.0
C3706 C 0.42756 0.99402 1.0004 0.0
C3707 C 0.37691 0.94881 0.01484 0.0
C3708 C 0.49851 0.04286 0.02942 0.0
C3709 C 0.48049 0.03428 0.02461 0.0
C3710 C 0.44686 0.99851 0.03514 0.0
C3711 C 0.40045 0.97646 0.01215 0.0
C3712 C 0.4192 0.98683 0.01515 0.0
C3713 C 0.47403 0.01426 0.02292 0.0
C3714 C 0.45513 1.00547 0.02032 0.0
H3715 H 0.36127 0.98023 0.99302 0.0
H3716 H 0.39247 0.9977 0.99862 0.0
H3717 H 0.42257 0.98402 0.04419 0.0
H3718 H 0.51239 1.00229 0.0318 0.0
H3719 H 0.48053 0.98723 0.02402 0.0
C3720 C 0.89647 0.6041 0.79261 0.0
C3721 C 0.89353 0.59995 0.81034 0.0
C3722 C 0.88944 0.61784 0.7864 0.0
C3723 C 0.86692 0.65593 0.79933 0.0
H3724 H 0.839 0.63187 0.7515 0.0
C3725 C 0.82649 0.69363 0.75677 0.0
C3726 C 0.81008 0.68209 0.74763 0.0
C3727 C 0.83768 0.68544 0.76629 0.0
C3728 C 0.84663 0.63869 0.76492 0.0
H3729 H 0.88223 0.60707 0.83612 0.0
H3730 H 0.86957 0.63141 0.82517 0.0
H3731 H 0.85873 0.61554 0.76478 0.0
H3732 H 0.79173 0.65359 0.74231 0.0
H3733 H 0.81119 0.63928 0.75917 0.0
H3734 H 0.85421 0.67881 0.79964 0.0
C3735 C 0.87752 0.62426 0.81621 0.0
C3736 C 0.85812 0.62953 0.77235 0.0
C3737 C 0.88462 0.61042 0.82245 0.0
C3738 C 0.80452 0.66261 0.74899 0.0
C3739 C 0.81562 0.65447 0.75858 0.0
C3740 C 0.85533 0.66513 0.79187 0.0
C3741 C 0.87925 0.62737 0.79785 0.0
C3742 C 0.86828 0.63805 0.78963 0.0
C3743 C 0.83247 0.66569 0.76681 0.0
C3744 C 0.84497 0.65642 0.77473 0.0
H3745 H 0.90328 0.59586 0.78314 0.0
H3746 H 0.89101 0.62016 0.77225 0.0
H3747 H 0.87468 0.66265 0.81268 0.0
H3748 H 0.831 0.70872 0.75582 0.0
H3749 H 0.85068 0.69431 0.77247 0.0
C3750 C 0.86104 0.66197 1.00258 0.0
C3751 C 0.85204 0.66778 0.01775 0.0
C3752 C 0.87569 0.6545 0.00556 0.0
C3753 C 0.89341 0.63116 0.04068 0.0
H3754 H 0.93572 0.63806 0.01476 0.0
C3755 C 0.95081 0.60402 0.06536 0.0
C3756 C 0.95722 0.59219 0.05163 0.0
C3757 C 0.94022 0.61548 0.06024 0.0
C3758 C 0.92392 0.63601 0.02203 0.0
H3759 H 0.85212 0.67216 0.0479 0.0
H3760 H 0.87788 0.6602 0.05318 0.0
H3761 H 0.91274 0.65412 0.00727 0.0
H3762 H 0.95864 0.58404 0.02182 0.0
H3763 H 0.93979 0.60401 0.01279 0.0
H3764 H 0.90437 0.61325 0.05547 0.0
C3765 C 0.87328 0.66034 0.03891 0.0
C3766 C 0.91077 0.64512 0.01772 0.0
C3767 C 0.85855 0.66728 0.03591 0.0
C3768 C 0.9538 0.593 0.03268 0.0
C3769 C 0.94308 0.60445 0.02752 0.0
C3770 C 0.9065 0.62229 0.04505 0.0
C3771 C 0.88162 0.65311 0.02377 0.0
C3772 C 0.89549 0.64302 0.02726 0.0
C3773 C 0.93572 0.61529 0.04125 0.0
C3774 C 0.92199 0.6248 0.036 0.0
H3775 H 0.8563 0.66238 0.98845 0.0
H3776 H 0.88186 0.6491 0.99359 0.0
H3777 H 0.88157 0.62862 0.04785 0.0
H3778 H 0.95363 0.60403 0.08009 0.0
H3779 H 0.93505 0.62405 0.07114 0.0
C3780 C 0.22477 0.07692 0.776 0.0
C3781 C 0.20645 0.07052 0.76997 0.0
C3782 C 0.23447 0.09624 0.77623 0.0
C3783 C 0.23268 0.1396 0.75493 0.0
H3784 H 0.26966 0.16818 0.79464 0.0
C3785 C 0.26467 0.22227 0.76091 0.0
C3786 C 0.28292 0.23032 0.76713 0.0
C3787 C 0.25603 0.20293 0.76135 0.0
C3788 C 0.25955 0.16043 0.78324 0.0
H3789 H 0.18427 0.07964 0.75901 0.0
H3790 H 0.20098 0.11265 0.7589 0.0
H3791 H 0.25373 0.13484 0.79524 0.0
H3792 H 0.30561 0.22375 0.78007 0.0
H3793 H 0.29081 0.19013 0.78072 0.0
H3794 H 0.23843 0.165 0.74286 0.0
C3795 C 0.20799 0.10302 0.76373 0.0
C3796 C 0.25033 0.14113 0.7836 0.0
C3797 C 0.19829 0.08398 0.76394 0.0
C3798 C 0.29193 0.21819 0.77439 0.0
C3799 C 0.28321 0.1988 0.77507 0.0
C3800 C 0.2419 0.15881 0.75455 0.0
C3801 C 0.2263 0.10966 0.76991 0.0
C3802 C 0.23662 0.13031 0.76949 0.0
C3803 C 0.26507 0.19068 0.76838 0.0
C3804 C 0.2555 0.16974 0.76873 0.0
H3805 H 0.23157 0.06708 0.78078 0.0
H3806 H 0.24849 0.10054 0.78104 0.0
H3807 H 0.22255 0.13191 0.74354 0.0
H3808 H 0.25683 0.23095 0.75567 0.0
H3809 H 0.24203 0.19774 0.75646 0.0
C3810 C 0.38855 0.99755 0.31654 0.0
C3811 C 0.40535 1.00207 0.31009 0.0
C3812 C 0.37728 0.97914 0.31086 0.0
C3813 C 0.36968 0.93716 0.27258 0.0
H3814 H 0.33826 0.91185 0.30509 0.0
C3815 C 0.33819 0.85652 0.26227 0.0
C3816 C 0.31972 0.85074 0.2616 0.0
C3817 C 0.34697 0.87596 0.26704 0.0
C3818 C 0.34677 0.919 0.29587 0.0
H3819 H 0.42424 0.99062 0.2941 0.0
H3820 H 0.40473 0.95809 0.28481 0.0
H3821 H 0.35859 0.94347 0.31748 0.0
H3822 H 0.29554 0.85991 0.26393 0.0
H3823 H 0.31121 0.89446 0.27371 0.0
H3824 H 0.35848 0.91195 0.25136 0.0
C3825 C 0.40006 0.969 0.29366 0.0
C3826 C 0.3584 0.93699 0.3029 0.0
C3827 C 0.41131 0.9875 0.2992 0.0
C3828 C 0.3099 0.86438 0.26508 0.0
C3829 C 0.31874 0.8839 0.27041 0.0
C3830 C 0.35824 0.91902 0.26568 0.0
C3831 C 0.38275 0.9649 0.29892 0.0
C3832 C 0.37015 0.94608 0.29139 0.0
C3833 C 0.33729 0.88966 0.27126 0.0
C3834 C 0.34696 0.90983 0.27741 0.0
H3835 H 0.38364 0.00852 0.325 0.0
H3836 H 0.36397 0.9764 0.31506 0.0
H3837 H 0.37827 0.94409 0.26327 0.0
H3838 H 0.34579 0.84598 0.25913 0.0
H3839 H 0.36132 0.88029 0.26779 0.0
C3840 C 0.60883 0.38004 0.57616 0.0
C3841 C 0.59592 0.36784 0.58439 0.0
C3842 C 0.60557 0.39643 0.57047 0.0
C3843 C 0.56983 0.41692 0.55542 0.0
H3844 H 0.60433 0.46648 0.57102 0.0
C3845 C 0.55352 0.48729 0.54175 0.0
C3846 C 0.56696 0.50442 0.54312 0.0
C3847 C 0.55725 0.47028 0.54525 0.0
C3848 C 0.59462 0.45281 0.56601 0.0
H3849 H 0.56932 0.36329 0.59277 0.0
H3850 H 0.56344 0.39155 0.58231 0.0
H3851 H 0.61036 0.43795 0.57991 0.0
H3852 H 0.59551 0.51588 0.54712 0.0
H3853 H 0.60228 0.48633 0.55168 0.0
H3854 H 0.55438 0.43115 0.54076 0.0
C3855 C 0.57617 0.38851 0.58046 0.0
C3856 C 0.59809 0.43637 0.57136 0.0
C3857 C 0.57957 0.37235 0.58653 0.0
C3858 C 0.58458 0.50331 0.54633 0.0
C3859 C 0.58847 0.48617 0.5493 0.0
C3860 C 0.56654 0.43323 0.54961 0.0
C3861 C 0.58917 0.40084 0.57246 0.0
C3862 C 0.58566 0.41825 0.56632 0.0
C3863 C 0.57482 0.46945 0.54959 0.0
C3864 C 0.57877 0.45162 0.55495 0.0
H3865 H 0.62159 0.37708 0.57434 0.0
H3866 H 0.61582 0.40555 0.56427 0.0
H3867 H 0.56005 0.40313 0.55109 0.0
H3868 H 0.53996 0.48683 0.53874 0.0
H3869 H 0.54608 0.4581 0.54525 0.0
C3870 C 0.4703 0.79787 0.37288 0.0
C3871 C 0.47195 0.78086 0.37859 0.0
C3872 C 0.45434 0.79886 0.36376 0.0
C3873 C 0.40562 0.77238 0.35118 0.0
H3874 H 0.409 0.80844 0.31751 0.0
C3875 C 0.34252 0.78728 0.31545 0.0
C3876 C 0.34331 0.79223 0.29766 0.0
C3877 C 0.3577 0.7852 0.32542 0.0
C3878 C 0.40763 0.79802 0.32659 0.0
H3879 H 0.45769 0.75146 0.37916 0.0
H3880 H 0.43011 0.75274 0.36237 0.0
H3881 H 0.43566 0.80534 0.33353 0.0
H3882 H 0.3612 0.8001 0.27712 0.0
H3883 H 0.38704 0.79527 0.29355 0.0
H3884 H 0.37749 0.76437 0.34326 0.0
C3885 C 0.44104 0.76564 0.36538 0.0
C3886 C 0.42313 0.79652 0.33625 0.0
C3887 C 0.457 0.7648 0.37491 0.0
C3888 C 0.35975 0.79531 0.29028 0.0
C3889 C 0.37484 0.79307 0.3001 0.0
C3890 C 0.39006 0.77368 0.34124 0.0
C3891 C 0.43941 0.78271 0.35952 0.0
C3892 C 0.42251 0.7838 0.34889 0.0
C3893 C 0.37421 0.78812 0.31796 0.0
C3894 C 0.39077 0.78656 0.32875 0.0
H3895 H 0.48134 0.8107 0.37576 0.0
H3896 H 0.45378 0.81255 0.36027 0.0
H3897 H 0.40427 0.76252 0.36082 0.0
H3898 H 0.33013 0.78502 0.32169 0.0
H3899 H 0.3565 0.78169 0.33918 0.0
C3900 C 0.06581 0.74941 0.09554 0.0
C3901 C 0.07534 0.76276 0.08559 0.0
C3902 C 0.06437 0.72968 0.09031 0.0
C3903 C 0.08505 0.69424 0.06262 0.0
H3904 H 0.04449 0.65801 0.0757 0.0
C3905 C 0.06912 0.60869 0.04664 0.0
C3906 C 0.06553 0.60046 0.06256 0.0
C3907 C 0.07163 0.62865 0.04766 0.0
C3908 C 0.05591 0.66795 0.07197 0.0
H3909 H 0.09038 0.76543 0.06175 0.0
H3910 H 0.08724 0.73062 0.05203 0.0
H3911 H 0.04481 0.69186 0.07911 0.0
H3912 H 0.06201 0.60686 0.09201 0.0
H3913 H 0.06576 0.64142 0.0936 0.0
H3914 H 0.09572 0.6697 0.05491 0.0
C3915 C 0.08123 0.73562 0.06428 0.0
C3916 C 0.05621 0.68748 0.07405 0.0
C3917 C 0.08285 0.7556 0.06969 0.0
C3918 C 0.06489 0.61273 0.07954 0.0
C3919 C 0.06697 0.63251 0.08045 0.0
C3920 C 0.08456 0.6745 0.06014 0.0
C3921 C 0.07211 0.72236 0.07467 0.0
C3922 C 0.07101 0.70111 0.06999 0.0
C3923 C 0.07003 0.64065 0.06446 0.0
C3924 C 0.07017 0.66127 0.06528 0.0
H3925 H 0.05986 0.75423 0.10791 0.0
H3926 H 0.05762 0.72029 0.09908 0.0
H3927 H 0.09675 0.70415 0.05941 0.0
H3928 H 0.06926 0.59967 0.03324 0.0
H3929 H 0.07388 0.63454 0.0351 0.0
C3930 C 0.07445 0.25739 0.87019 0.0
C3931 C 0.07206 0.27072 0.88567 0.0
C3932 C 0.09101 0.25933 0.86316 0.0
C3933 C 0.13493 0.29541 0.8641 0.0
H3934 H 0.14809 0.25029 0.83886 0.0
C3935 C 0.20142 0.30284 0.83094 0.0
C3936 C 0.20004 0.29235 0.81256 0.0
C3937 C 0.18741 0.29884 0.84212 0.0
C3938 C 0.14463 0.26308 0.84581 0.0
H3939 H 0.0856 0.29635 0.90614 0.0
H3940 H 0.11447 0.29956 0.89422 0.0
H3941 H 0.12083 0.24625 0.85402 0.0
H3942 H 0.18319 0.26915 0.79168 0.0
H3943 H 0.15892 0.26191 0.81114 0.0
H3944 H 0.15881 0.31219 0.85592 0.0
C3945 C 0.10345 0.2878 0.88711 0.0
C3946 C 0.12885 0.26078 0.85447 0.0
C3947 C 0.08682 0.28593 0.89406 0.0
C3948 C 0.18473 0.27722 0.80591 0.0
C3949 C 0.1708 0.27312 0.8171 0.0
C3950 C 0.15078 0.29768 0.85561 0.0
C3951 C 0.10585 0.27459 0.87144 0.0
C3952 C 0.12349 0.27693 0.86345 0.0
C3953 C 0.17168 0.28424 0.83519 0.0
C3954 C 0.15573 0.28158 0.846 0.0
H3955 H 0.06346 0.24541 0.86338 0.0
H3956 H 0.092 0.24896 0.85094 0.0
H3957 H 0.13138 0.3083 0.87059 0.0
H3958 H 0.21296 0.31475 0.83632 0.0
H3959 H 0.18872 0.30757 0.85603 0.0
C3960 C 0.59467 0.7788 0.94472 0.0
C3961 C 0.59784 0.77701 0.92594 0.0
C3962 C 0.59097 0.76257 0.95278 0.0
C3963 C 0.59844 0.71526 0.95016 0.0
H3964 H 0.55987 0.70889 0.98152 0.0
C3965 C 0.56981 0.65179 0.98876 0.0
C3966 C 0.56632 0.65837 0.00709 0.0
C3967 C 0.57679 0.6651 0.97773 0.0
C3968 C 0.57072 0.71057 0.97285 0.0
H3969 H 0.60011 0.75756 0.90066 0.0
H3970 H 0.59378 0.72873 0.91498 0.0
H3971 H 0.5639 0.73391 0.96289 0.0
H3972 H 0.56926 0.68337 0.02917 0.0
H3973 H 0.58155 0.70664 0.00995 0.0
H3974 H 0.60521 0.69177 0.96045 0.0
C3975 C 0.59393 0.74264 0.92332 0.0
C3976 C 0.57297 0.72478 0.96219 0.0
C3977 C 0.59733 0.75894 0.91514 0.0
C3978 C 0.57161 0.67812 0.01494 0.0
C3979 C 0.57864 0.69134 0.00402 0.0
C3980 C 0.59611 0.70085 0.96085 0.0
C3981 C 0.59069 0.74441 0.94219 0.0
C3982 C 0.5871 0.72758 0.95118 0.0
C3983 C 0.58033 0.68494 0.98509 0.0
C3984 C 0.58253 0.69888 0.97264 0.0
H3985 H 0.59522 0.79278 0.9532 0.0
H3986 H 0.58872 0.76428 0.96743 0.0
H3987 H 0.60947 0.7173 0.94176 0.0
H3988 H 0.56585 0.63652 0.98253 0.0
H3989 H 0.57801 0.65997 0.96311 0.0
C3990 C 0.06578 0.77826 0.69006 0.0
C3991 C 0.0579 0.77362 0.6715 0.0
C3992 C 0.08278 0.77646 0.69406 0.0
C3993 C 0.12441 0.77406 0.67564 0.0
H3994 H 0.12881 0.74818 0.71721 0.0
C3995 C 0.18546 0.75195 0.70939 0.0
C3996 C 0.18888 0.76048 0.7285 0.0
C3997 C 0.171 0.75419 0.69868 0.0
C3998 C 0.12768 0.75528 0.70549 0.0
H3999 H 0.06188 0.76436 0.64245 0.0
H4000 H 0.09184 0.76122 0.64959 0.0
H4001 H 0.09965 0.74998 0.70539 0.0
H4002 H 0.18147 0.77943 0.75115 0.0
H4003 H 0.15607 0.78335 0.73242 0.0
H4004 H 0.15277 0.77959 0.67621 0.0
C4005 C 0.08475 0.76623 0.66094 0.0
C4006 C 0.11111 0.75639 0.6988 0.0
C4007 C 0.06765 0.76801 0.65691 0.0
C4008 C 0.17866 0.7724 0.73652 0.0
C4009 C 0.16437 0.77477 0.72583 0.0
C4010 C 0.14113 0.77286 0.68235 0.0
C4011 C 0.0922 0.76998 0.67958 0.0
C4012 C 0.10943 0.76643 0.68435 0.0
C4013 C 0.16011 0.76511 0.7071 0.0
C4014 C 0.14279 0.76404 0.69772 0.0
H4015 H 0.05865 0.78271 0.7016 0.0
H4016 H 0.08845 0.77977 0.70855 0.0
H4017 H 0.12331 0.78176 0.66439 0.0
H4018 H 0.19348 0.74291 0.70302 0.0
H4019 H 0.16774 0.74658 0.68425 0.0
C4020 C 0.12585 0.3994 0.44813 0.0
C4021 C 0.11991 0.39277 0.42909 0.0
C4022 C 0.12388 0.41706 0.45721 0.0
C4023 C 0.10986 0.46064 0.45427 0.0
H4024 H 0.07956 0.4438 0.49175 0.0
C4025 C 0.06787 0.50669 0.4924 0.0
C4026 C 0.06751 0.50716 0.51171 0.0
C4027 C 0.07542 0.49379 0.48156 0.0
C4028 C 0.0882 0.44881 0.48156 0.0
H4029 H 0.10903 0.39974 0.40401 0.0
H4030 H 0.10518 0.43068 0.42007 0.0
H4031 H 0.09376 0.42147 0.47395 0.0
H4032 H 0.07467 0.49461 0.53481 0.0
H4033 H 0.08849 0.47241 0.51604 0.0
H4034 H 0.10428 0.48812 0.46204 0.0
C4035 C 0.11172 0.42249 0.42785 0.0
C4036 C 0.09631 0.43607 0.4714 0.0
C4037 C 0.11398 0.40489 0.41868 0.0
C4038 C 0.07488 0.4946 0.52004 0.0
C4039 C 0.0826 0.48178 0.50922 0.0
C4040 C 0.10183 0.47355 0.46463 0.0
C4041 C 0.11556 0.42795 0.44737 0.0
C4042 C 0.10741 0.44198 0.45792 0.0
C4043 C 0.08295 0.48131 0.4899 0.0
C4044 C 0.09109 0.46774 0.47849 0.0
H4045 H 0.13028 0.39008 0.45635 0.0
H4046 H 0.12709 0.42122 0.47227 0.0
H4047 H 0.11817 0.46529 0.4437 0.0
H4048 H 0.06278 0.51666 0.4857 0.0
H4049 H 0.07536 0.49361 0.46667 0.0
C4050 C 0.45573 0.2538 0.20838 0.0
C4051 C 0.46218 0.26019 0.19246 0.0
C4052 C 0.43849 0.25354 0.21206 0.0
C4053 C 0.40566 0.27909 0.20382 0.0
H4054 H 0.37689 0.2416 0.22885 0.0
C4055 C 0.33587 0.27676 0.22676 0.0
C4056 C 0.33423 0.2747 0.24534 0.0
C4057 C 0.35173 0.27668 0.21929 0.0
C4058 C 0.38494 0.25215 0.22194 0.0
H4059 H 0.45552 0.27005 0.16718 0.0
H4060 H 0.42526 0.26958 0.17369 0.0
H4061 H 0.4027 0.23468 0.2147 0.0
H4062 H 0.34727 0.27116 0.27097 0.0
H4063 H 0.37531 0.27059 0.25768 0.0
H4064 H 0.38772 0.29647 0.21105 0.0
C4065 C 0.43368 0.2652 0.18348 0.0
C4066 C 0.39953 0.24818 0.2138 0.0
C4067 C 0.45099 0.26562 0.17988 0.0
C4068 C 0.34861 0.27312 0.25668 0.0
C4069 C 0.36444 0.27274 0.24913 0.0
C4070 C 0.39093 0.28294 0.21178 0.0
C4071 C 0.42745 0.25953 0.19979 0.0
C4072 C 0.4103 0.2619 0.2052 0.0
C4073 C 0.36578 0.27389 0.23025 0.0
C4074 C 0.38089 0.26974 0.22133 0.0
H4075 H 0.46403 0.24922 0.21811 0.0
H4076 H 0.43405 0.24933 0.22487 0.0
H4077 H 0.41388 0.28997 0.19741 0.0
H4078 H 0.32457 0.27733 0.21772 0.0
H4079 H 0.35259 0.2774 0.20465 0.0
C4080 C 0.62696 0.5356 0.33519 0.0
C4081 C 0.63766 0.52308 0.32931 0.0
C4082 C 0.62011 0.53661 0.35287 0.0
C4083 C 0.62349 0.52002 0.40041 0.0
H4084 H 0.58364 0.54192 0.40857 0.0
C4085 C 0.59863 0.53574 0.47599 0.0
C4086 C 0.58047 0.53468 0.4775 0.0
C4087 C 0.60553 0.53367 0.45829 0.0
C4088 C 0.59468 0.53554 0.40674 0.0
H4089 H 0.64915 0.50159 0.33837 0.0
H4090 H 0.6371 0.50288 0.36855 0.0
H4091 H 0.59467 0.53899 0.37815 0.0
H4092 H 0.55577 0.53108 0.46057 0.0
H4093 H 0.56743 0.52748 0.43038 0.0
H4094 H 0.62299 0.51611 0.42904 0.0
C4095 C 0.63411 0.5124 0.35973 0.0
C4096 C 0.60136 0.53409 0.38898 0.0
C4097 C 0.64102 0.51147 0.34204 0.0
C4098 C 0.56967 0.53162 0.46042 0.0
C4099 C 0.57656 0.52982 0.44281 0.0
C4100 C 0.61674 0.52143 0.4182 0.0
C4101 C 0.62346 0.52507 0.36579 0.0
C4102 C 0.61604 0.52635 0.38519 0.0
C4103 C 0.59471 0.53084 0.44117 0.0
C4104 C 0.60214 0.52925 0.4219 0.0
H4105 H 0.62395 0.54491 0.32611 0.0
H4106 H 0.61238 0.54689 0.35641 0.0
H4107 H 0.63482 0.51411 0.39884 0.0
H4108 H 0.60762 0.53822 0.48857 0.0
H4109 H 0.61957 0.53476 0.45814 0.0
C4110 C 0.30676 0.89431 0.0538 0.0
C4111 C 0.3103 0.91427 0.05453 0.0
C4112 C 0.31193 0.88742 0.06913 0.0
C4113 C 0.31704 0.89971 0.11866 0.0
H4114 H 0.33555 0.85458 0.11429 0.0
C4115 C 0.3329 0.86295 0.17858 0.0
C4116 C 0.32973 0.84287 0.17397 0.0
C4117 C 0.32896 0.87294 0.16508 0.0
C4118 C 0.33018 0.86706 0.11556 0.0
H4119 H 0.32243 0.94276 0.07155 0.0
H4120 H 0.33099 0.93049 0.09881 0.0
H4121 H 0.33612 0.8715 0.08823 0.0
H4122 H 0.31836 0.81694 0.15303 0.0
H4123 H 0.31113 0.83449 0.12924 0.0
H4124 H 0.31077 0.89502 0.14586 0.0
C4125 C 0.32428 0.92034 0.08625 0.0
C4126 C 0.33076 0.87683 0.10085 0.0
C4127 C 0.3192 0.92728 0.07081 0.0
C4128 C 0.32079 0.83252 0.15664 0.0
C4129 C 0.31686 0.8425 0.14311 0.0
C4130 C 0.31647 0.88994 0.13339 0.0
C4131 C 0.32056 0.90039 0.08545 0.0
C4132 C 0.32368 0.89282 0.10215 0.0
C4133 C 0.32195 0.86278 0.14698 0.0
C4134 C 0.32255 0.87326 0.13166 0.0
H4135 H 0.3003 0.88396 0.04127 0.0
H4136 H 0.30874 0.87193 0.06839 0.0
H4137 H 0.31137 0.91197 0.11978 0.0
H4138 H 0.33985 0.87095 0.192 0.0
H4139 H 0.33294 0.8886 0.16829 0.0
C4140 C 0.95627 0.57765 0.8825 0.0
C4141 C 0.95556 0.56372 0.86642 0.0
C4142 C 0.96274 0.57482 0.89971 0.0
C4143 C 0.99657 0.55465 0.91341 0.0
H4144 H 0.98358 0.56469 0.96394 0.0
C4145 C 0.03945 0.54889 0.97682 0.0
C4146 C 0.04031 0.56252 0.99309 0.0
C4147 C 0.02798 0.5483 0.9614 0.0
C4148 C 0.98737 0.56207 0.94986 0.0
H4149 H 0.95818 0.53495 0.85546 0.0
H4150 H 0.96936 0.53003 0.88548 0.0
H4151 H 0.96222 0.5632 0.93741 0.0
H4152 H 0.03088 0.58644 0.00668 0.0
H4153 H 0.01148 0.58632 0.97913 0.0
H4154 H 0.02186 0.55438 0.92552 0.0
C4155 C 0.96547 0.54322 0.88484 0.0
C4156 C 0.97515 0.56105 0.93484 0.0
C4157 C 0.95941 0.54619 0.86775 0.0
C4158 C 0.03055 0.57624 0.99381 0.0
C4159 C 0.01926 0.57585 0.97832 0.0
C4160 C 0.00879 0.55593 0.92832 0.0
C4161 C 0.96808 0.55794 0.90065 0.0
C4162 C 0.9798 0.5574 0.91662 0.0
C4163 C 0.01748 0.56147 0.96226 0.0
C4164 C 0.00434 0.5598 0.94662 0.0
H4165 H 0.95284 0.59101 0.88159 0.0
H4166 H 0.96479 0.58632 0.91191 0.0
H4167 H 1.00046 0.55219 0.89935 0.0
H4168 H 0.04654 0.53781 0.97655 0.0
H4169 H 0.02663 0.53691 0.94924 0.0
C4170 C 0.31787 0.21512 0.57257 0.0
C4171 C 0.31488 0.22554 0.55872 0.0
C4172 C 0.31693 0.22226 0.59144 0.0
C4173 C 0.29826 0.25716 0.6222 0.0
H4174 H 0.32743 0.24569 0.66126 0.0
C4175 C 0.30377 0.29192 0.70113 0.0
C4176 C 0.30471 0.2801 0.7142 0.0
C4177 C 0.30328 0.2847 0.68195 0.0
C4178 C 0.31902 0.2488 0.65052 0.0
H4179 H 0.30934 0.25219 0.5541 0.0
H4180 H 0.30826 0.26502 0.58721 0.0
H4181 H 0.33168 0.2357 0.6286 0.0
H4182 H 0.30617 0.25159 0.71765 0.0
H4183 H 0.3053 0.23887 0.68409 0.0
H4184 H 0.28593 0.27069 0.64434 0.0
C4185 C 0.31086 0.251 0.58336 0.0
C4186 C 0.32146 0.24308 0.63173 0.0
C4187 C 0.31168 0.24376 0.56437 0.0
C4188 C 0.30489 0.26081 0.70777 0.0
C4189 C 0.30465 0.25364 0.68861 0.0
C4190 C 0.29595 0.26306 0.64104 0.0
C4191 C 0.31314 0.24017 0.59714 0.0
C4192 C 0.31106 0.24708 0.61726 0.0
C4193 C 0.30427 0.26565 0.67551 0.0
C4194 C 0.30624 0.25887 0.65542 0.0
H4195 H 0.32037 0.20102 0.56882 0.0
H4196 H 0.31855 0.21331 0.60146 0.0
H4197 H 0.28976 0.26021 0.61152 0.0
H4198 H 0.30415 0.30699 0.70583 0.0
H4199 H 0.30317 0.29439 0.67228 0.0
C4200 C 0.65532 0.52086 0.20547 0.0
C4201 C 0.64504 0.51098 0.21779 0.0
C4202 C 0.64761 0.52425 0.18868 0.0
C4203 C 0.60576 0.509 0.15361 0.0
H4204 H 0.62777 0.55621 0.13717 0.0
C4205 C 0.57531 0.53186 0.08629 0.0
C4206 C 0.58734 0.54115 0.07494 0.0
C4207 C 0.58127 0.52823 0.10389 0.0
C4208 C 0.62141 0.54277 0.14122 0.0
H4209 H 0.618 0.49665 0.22114 0.0
H4210 H 0.60463 0.50178 0.19163 0.0
H4211 H 0.63977 0.54956 0.16607 0.0
H4212 H 0.61528 0.55355 0.07382 0.0
H4213 H 0.62541 0.54827 0.10422 0.0
H4214 H 0.58731 0.50235 0.12859 0.0
C4215 C 0.61884 0.50725 0.1951 0.0
C4216 C 0.62844 0.53887 0.15809 0.0
C4217 C 0.62656 0.50429 0.21225 0.0
C4218 C 0.60542 0.54687 0.08215 0.0
C4219 C 0.6113 0.54371 0.0998 0.0
C4220 C 0.59868 0.51294 0.13666 0.0
C4221 C 0.62914 0.5176 0.18296 0.0
C4222 C 0.62096 0.52181 0.16476 0.0
C4223 C 0.59949 0.53402 0.11111 0.0
C4224 C 0.60642 0.52989 0.1299 0.0
H4225 H 0.66951 0.52654 0.2091 0.0
H4226 H 0.65636 0.53206 0.18006 0.0
H4227 H 0.59945 0.49558 0.15774 0.0
H4228 H 0.56135 0.52659 0.08119 0.0
H4229 H 0.57151 0.52075 0.11183 0.0
C4230 C 0.32503 0.90486 0.9449 0.0
C4231 C 0.309 0.89726 0.95182 0.0
C4232 C 0.32863 0.89619 0.92757 0.0
C4233 C 0.31867 0.84899 0.89889 0.0
H4234 H 0.33239 0.87382 0.85717 0.0
C4235 C 0.30576 0.80941 0.82388 0.0
C4236 C 0.31802 0.81442 0.81124 0.0
C4237 C 0.30871 0.81937 0.84228 0.0
C4238 C 0.32904 0.86683 0.86891 0.0
H4239 H 0.28391 0.87553 0.94659 0.0
H4240 H 0.28992 0.8605 0.91568 0.0
H4241 H 0.32862 0.89337 0.8868 0.0
H4242 H 0.34363 0.83333 0.80822 0.0
H4243 H 0.34866 0.85084 0.84049 0.0
H4244 H 0.31861 0.82243 0.88102 0.0
C4245 C 0.29971 0.87301 0.92371 0.0
C4246 C 0.32675 0.87795 0.88569 0.0
C4247 C 0.29618 0.88161 0.94112 0.0
C4248 C 0.33384 0.82903 0.81761 0.0
C4249 C 0.33675 0.83915 0.83602 0.0
C4250 C 0.32108 0.83793 0.88224 0.0
C4251 C 0.3162 0.87986 0.91721 0.0
C4252 C 0.32085 0.8689 0.90043 0.0
C4253 C 0.32402 0.83458 0.84834 0.0
C4254 C 0.32557 0.84667 0.86693 0.0
H4255 H 0.33519 0.91669 0.95344 0.0
H4256 H 0.34146 0.90148 0.92278 0.0
H4257 H 0.31455 0.84191 0.9104 0.0
H4258 H 0.29369 0.7982 0.81958 0.0
H4259 H 0.29858 0.81576 0.85152 0.0
C4260 C 0.95595 0.57151 0.76203 0.0
C4261 C 0.93887 0.5607 0.764 0.0
C4262 C 0.96262 0.56933 0.7448 0.0
C4263 C 0.9591 0.53465 0.7019 0.0
H4264 H 0.98782 0.57925 0.68562 0.0
C4265 C 1.00089 0.52704 0.64029 0.0
C4266 C 0.01871 0.53717 0.6455 0.0
C4267 C 0.98798 0.53092 0.65161 0.0
C4268 C 0.9797 0.5667 0.68992 0.0
H4269 H 0.91533 0.53917 0.7496 0.0
H4270 H 0.92707 0.5355 0.71928 0.0
H4271 H 0.97052 0.584 0.71196 0.0
H4272 H 0.03724 0.55988 0.66542 0.0
H4273 H 0.01472 0.56663 0.68548 0.0
H4274 H 0.96893 0.51736 0.6804 0.0
C4275 C 0.93519 0.54564 0.73112 0.0
C4276 C 0.96987 0.56941 0.70495 0.0
C4277 C 0.92848 0.54784 0.74839 0.0
C4278 C 0.02352 0.55172 0.66155 0.0
C4279 C 0.01064 0.55572 0.67277 0.0
C4280 C 0.96892 0.53194 0.68682 0.0
C4281 C 0.95232 0.55635 0.72924 0.0
C4282 C 0.96002 0.55342 0.71144 0.0
C4283 C 0.99282 0.54515 0.66804 0.0
C4284 C 0.97978 0.54797 0.6812 0.0
H4285 H 0.96435 0.58132 0.77388 0.0
H4286 H 0.97605 0.5774 0.74378 0.0
H4287 H 0.95169 0.52211 0.70679 0.0
H4288 H 0.99706 0.51603 0.62762 0.0
H4289 H 0.97428 0.52272 0.64767 0.0
C4290 C 0.30677 0.21008 0.43646 0.0
C4291 C 0.31182 0.22478 0.4525 0.0
C4292 C 0.30744 0.21458 0.4186 0.0
C4293 C 0.32819 0.25136 0.39232 0.0
H4294 H 0.28622 0.22853 0.35679 0.0
C4295 C 0.31792 0.27612 0.32227 0.0
C4296 C 0.30858 0.26233 0.30663 0.0
C4297 C 0.31977 0.27119 0.33979 0.0
C4298 C 0.29818 0.23476 0.36639 0.0
H4299 H 0.32194 0.2556 0.46265 0.0
H4300 H 0.32391 0.26349 0.43131 0.0
H4301 H 0.28676 0.22079 0.38794 0.0
H4302 H 0.29516 0.23194 0.29706 0.0
H4303 H 0.29846 0.22327 0.32755 0.0
H4304 H 0.33968 0.26524 0.37073 0.0
C4305 C 0.3192 0.24851 0.43255 0.0
C4306 C 0.29845 0.23039 0.38428 0.0
C4307 C 0.31806 0.24403 0.45043 0.0
C4308 C 0.30212 0.24311 0.30879 0.0
C4309 C 0.30392 0.23814 0.32634 0.0
C4310 C 0.32799 0.25562 0.37434 0.0
C4311 C 0.31356 0.23385 0.41644 0.0
C4312 C 0.31344 0.23861 0.39744 0.0
C4313 C 0.31242 0.25222 0.34216 0.0
C4314 C 0.31297 0.24735 0.36114 0.0
H4315 H 0.30164 0.19516 0.43773 0.0
H4316 H 0.30308 0.20298 0.40646 0.0
H4317 H 0.33998 0.2578 0.40213 0.0
H4318 H 0.32338 0.29091 0.32127 0.0
H4319 H 0.32637 0.28246 0.3516 0.0
C4320 C 0.34472 0.629 0.50771 0.0
C4321 C 0.33016 0.6167 0.51358 0.0
C4322 C 0.3616 0.62623 0.51032 0.0
C4323 C 0.38755 0.60292 0.53808 0.0
H4324 H 0.41606 0.60262 0.49636 0.0
C4325 C 0.43535 0.55645 0.52373 0.0
C4326 C 0.45069 0.56338 0.51541 0.0
C4327 C 0.42389 0.56805 0.52803 0.0
C4328 C 0.40851 0.6032 0.50834 0.0
H4329 H 0.32166 0.59161 0.52635 0.0
H4330 H 0.35106 0.58648 0.53043 0.0
H4331 H 0.38865 0.61244 0.49388 0.0
H4332 H 0.46693 0.58802 0.50607 0.0
H4333 H 0.44654 0.60833 0.51327 0.0
H4334 H 0.40698 0.59255 0.55206 0.0
C4335 C 0.3495 0.59852 0.52422 0.0
C4336 C 0.39278 0.60873 0.50688 0.0
C4337 C 0.33264 0.60128 0.52162 0.0
C4338 C 0.45505 0.58244 0.51243 0.0
C4339 C 0.44347 0.594 0.51654 0.0
C4340 C 0.40326 0.59732 0.53951 0.0
C4341 C 0.36414 0.61112 0.51881 0.0
C4342 C 0.3819 0.608 0.52148 0.0
C4343 C 0.42757 0.58665 0.52387 0.0
C4344 C 0.41352 0.5968 0.52439 0.0
H4345 H 0.3432 0.64111 0.5016 0.0
H4346 H 0.37271 0.63614 0.50606 0.0
H4347 H 0.37951 0.60263 0.54968 0.0
H4348 H 0.43196 0.54185 0.52634 0.0
H4349 H 0.4116 0.56198 0.53348 0.0
C4350 C 0.87945 0.93577 0.55493 0.0
C4351 C 0.86734 0.93196 0.5389 0.0
C4352 C 0.897 0.94664 0.55513 0.0
C4353 C 0.93037 0.96469 0.52312 0.0
H4354 H 0.9552 0.99896 0.56883 0.0
C4355 C 0.99692 0.02114 0.52324 0.0
C4356 C 0.01043 0.02318 0.53757 0.0
C4357 C 0.97962 0.01021 0.52406 0.0
C4358 C 0.94852 0.98934 0.55598 0.0
H4359 H 0.86384 0.9364 0.51056 0.0
H4360 H 0.89428 0.95578 0.5109 0.0
H4361 H 0.92487 0.97969 0.56881 0.0
H4362 H 0.01656 0.01555 0.56405 0.0
H4363 H 0.98617 0.99645 0.56567 0.0
H4364 H 0.95394 0.97468 0.51024 0.0
C4365 C 0.89052 0.95016 0.52328 0.0
C4366 C 0.93108 0.97818 0.55595 0.0
C4367 C 0.873 0.9392 0.52308 0.0
C4368 C 0.00627 0.01443 0.55299 0.0
C4369 C 0.98889 1.00347 0.55386 0.0
C4370 C 0.94772 0.97597 0.52311 0.0
C4371 C 0.90286 0.95404 0.53931 0.0
C4372 C 0.92166 0.96574 0.53949 0.0
C4373 C 0.97538 1.00097 0.53924 0.0
C4374 C 0.95703 0.98856 0.53951 0.0
H4375 H 0.87535 0.9302 0.56726 0.0
H4376 H 0.90604 0.94895 0.56764 0.0
H4377 H 0.92387 0.955 0.51025 0.0
H4378 H 0.99982 0.02776 0.5112 0.0
H4379 H 0.96955 0.00892 0.51272 0.0
C4380 C 0.88648 0.12122 0.24407 0.0
C4381 C 0.8976 0.1195 0.25933 0.0
C4382 C 0.87851 0.13688 0.24481 0.0
C4383 C 0.87811 0.18627 0.27515 0.0
H4384 H 0.83769 0.18148 0.23966 0.0
C4385 C 0.83753 0.24535 0.28207 0.0
C4386 C 0.82985 0.24985 0.26594 0.0
C4387 C 0.8454 0.22968 0.28114 0.0
C4388 C 0.84907 0.18335 0.24966 0.0
H4389 H 0.90866 0.13385 0.28761 0.0
H4390 H 0.8946 0.16041 0.28925 0.0
H4391 H 0.85141 0.15488 0.23865 0.0
H4392 H 0.82579 0.24124 0.23576 0.0
H4393 H 0.83859 0.21339 0.23409 0.0
H4394 H 0.87537 0.2147 0.28635 0.0
C4395 C 0.89216 0.14992 0.27628 0.0
C4396 C 0.85719 0.16781 0.24907 0.0
C4397 C 0.90029 0.13432 0.27544 0.0
C4398 C 0.83064 0.23792 0.24866 0.0
C4399 C 0.83827 0.22192 0.24773 0.0
C4400 C 0.86984 0.20172 0.27586 0.0
C4401 C 0.88098 0.15174 0.26097 0.0
C4402 C 0.87204 0.16873 0.26175 0.0
C4403 C 0.84609 0.21751 0.26396 0.0
C4404 C 0.85509 0.20073 0.26311 0.0
H4405 H 0.88399 0.11043 0.23127 0.0
H4406 H 0.87055 0.13728 0.23235 0.0
H4407 H 0.88953 0.18843 0.28513 0.0
H4408 H 0.83781 0.25437 0.29564 0.0
H4409 H 0.85098 0.22715 0.29411 0.0
C4410 C 0.73401 0.13779 0.03638 0.0
C4411 C 0.73842 0.13686 0.01799 0.0
C4412 C 0.71752 0.12752 0.03984 0.0
C4413 C 0.6793 0.08719 0.0163 0.0
H4414 H 0.65877 0.10274 0.06166 0.0
C4415 C 0.60971 0.04757 0.02318 0.0
C4416 C 0.59932 0.06034 0.02821 0.0
C4417 C 0.62802 0.05379 0.02775 0.0
C4418 C 0.66429 0.09819 0.04889 0.0
H4419 H 0.72921 0.12586 0.98867 0.0
H4420 H 0.69938 0.1094 0.99448 0.0
H4421 H 0.68625 0.12294 0.05526 0.0
H4422 H 0.59895 0.08881 0.04262 0.0
H4423 H 0.63071 0.10021 0.04954 0.0
H4424 H 0.65613 0.06388 0.00871 0.0
C4425 C 0.70898 0.11698 0.00637 0.0
C4426 C 0.68026 0.10968 0.0453 0.0
C4427 C 0.72587 0.12663 1.00294 0.0
C4428 C 0.60694 0.0788 0.03879 0.0
C4429 C 0.62519 0.08521 0.0429 0.0
C4430 C 0.66292 0.0762 0.01947 0.0
C4431 C 0.70486 0.11669 0.02492 0.0
C4432 C 0.68787 0.10446 0.02882 0.0
C4433 C 0.63601 0.07311 0.03653 0.0
C4434 C 0.655 0.08187 0.03557 0.0
H4435 H 0.74375 0.14541 0.04818 0.0
H4436 H 0.71519 0.12743 0.0543 0.0
H4437 H 0.68498 0.08223 0.0038 0.0
H4438 H 0.60378 0.03316 0.01508 0.0
H4439 H 0.63596 0.04394 0.02317 0.0
C4440 C 0.22696 0.50029 0.23515 0.0
C4441 C 0.22371 0.50877 0.25286 0.0
C4442 C 0.22826 0.48139 0.2319 0.0
C4443 C 0.22332 0.43886 0.25494 0.0
H4444 H 0.26411 0.43321 0.22903 0.0
C4445 C 0.26431 0.38979 0.27455 0.0
C4446 C 0.28262 0.39878 0.27721 0.0
C4447 C 0.25283 0.39732 0.26483 0.0
C4448 C 0.2526 0.4345 0.23619 0.0
H4449 H 0.21915 0.50506 0.28108 0.0
H4450 H 0.22348 0.47274 0.27622 0.0
H4451 H 0.25072 0.45882 0.22476 0.0
H4452 H 0.30338 0.42262 0.27225 0.0
H4453 H 0.28313 0.43698 0.2567 0.0
H4454 H 0.22702 0.41651 0.26864 0.0
C4455 C 0.22395 0.47996 0.26441 0.0
C4456 C 0.24468 0.44899 0.23351 0.0
C4457 C 0.22198 0.49859 0.26743 0.0
C4458 C 0.28927 0.41572 0.2706 0.0
C4459 C 0.27772 0.42353 0.26122 0.0
C4460 C 0.23168 0.42487 0.25818 0.0
C4461 C 0.22693 0.4711 0.24654 0.0
C4462 C 0.23085 0.45219 0.24402 0.0
C4463 C 0.25942 0.41426 0.2581 0.0
C4464 C 0.2472 0.42366 0.24988 0.0
H4465 H 0.22771 0.50799 0.22366 0.0
H4466 H 0.23032 0.4749 0.21795 0.0
H4467 H 0.21211 0.44048 0.26252 0.0
H4468 H 0.25894 0.3766 0.27957 0.0
H4469 H 0.23882 0.3899 0.26263 0.0
C4470 C 0.25716 0.42989 0.024 0.0
C4471 C 0.26806 0.43234 0.0407 0.0
C4472 C 0.24183 0.43662 0.02405 0.0
C4473 C 0.22024 0.4694 0.05505 0.0
H4474 H 0.18228 0.44988 0.01448 0.0
C4475 C 0.17199 0.5138 0.04089 0.0
C4476 C 0.155 0.50487 0.03166 0.0
C4477 C 0.18378 0.50287 0.04401 0.0
C4478 C 0.19254 0.4553 0.02617 0.0
H4479 H 0.27088 0.4427 0.07073 0.0
H4480 H 0.24386 0.45312 0.07111 0.0
H4481 H 0.20599 0.43399 0.01603 0.0
H4482 H 0.13658 0.47755 0.01888 0.0
H4483 H 0.15703 0.45806 0.02486 0.0
H4484 H 0.20623 0.48982 0.06589 0.0
C4485 C 0.24742 0.44713 0.05769 0.0
C4486 C 0.20647 0.44639 0.02685 0.0
C4487 C 0.26297 0.44097 0.05753 0.0
C4488 C 0.14962 0.48467 0.02624 0.0
C4489 C 0.16145 0.4736 0.02945 0.0
C4490 C 0.20608 0.47785 0.05469 0.0
C4491 C 0.23672 0.44547 0.04091 0.0
C4492 C 0.22086 0.45365 0.04101 0.0
C4493 C 0.17886 0.48261 0.03807 0.0
C4494 C 0.19234 0.47144 0.0399 0.0
H4495 H 0.26069 0.42318 0.01081 0.0
H4496 H 0.2343 0.43522 0.01073 0.0
H4497 H 0.23095 0.47582 0.06613 0.0
H4498 H 0.17641 0.52941 0.04501 0.0
H4499 H 0.19708 0.51055 0.05028 0.0
C4500 C 0.91055 0.99703 0.25907 0.0
C4501 C 0.90336 0.01278 0.26507 0.0
C4502 C 0.90103 0.97768 0.25866 0.0
C4503 C 0.86207 0.94685 0.27789 0.0
H4504 H 0.86911 0.90567 0.24006 0.0
C4505 C 0.81887 0.86592 0.26919 0.0
C4506 C 0.82677 0.85061 0.26379 0.0
C4507 C 0.82801 0.88545 0.26952 0.0
C4508 C 0.86703 0.91682 0.25094 0.0
H4509 H 0.88006 0.01983 0.27567 0.0
H4510 H 0.86353 0.98624 0.27533 0.0
H4511 H 0.8846 0.93913 0.24012 0.0
H4512 H 0.85098 0.84459 0.25458 0.0
H4513 H 0.86658 0.8782 0.25459 0.0
H4514 H 0.84443 0.92444 0.28865 0.0
C4515 C 0.87665 0.98884 0.2707 0.0
C4516 C 0.87604 0.93631 0.251 0.0
C4517 C 0.8861 0.00828 0.27073 0.0
C4518 C 0.84422 0.85573 0.25866 0.0
C4519 C 0.85323 0.87522 0.25862 0.0
C4520 C 0.85301 0.92733 0.27781 0.0
C4521 C 0.88387 0.973 0.26461 0.0
C4522 C 0.87383 0.95189 0.26447 0.0
C4523 C 0.8454 0.89063 0.26416 0.0
C4524 C 0.85524 0.91179 0.26432 0.0
H4525 H 0.92375 0.99967 0.25459 0.0
H4526 H 0.90745 0.96637 0.25404 0.0
H4527 H 0.86004 0.958 0.28881 0.0
H4528 H 0.80569 0.86288 0.27364 0.0
H4529 H 0.82125 0.89653 0.27383 0.0
C4530 C 0.70934 0.11966 0.75514 0.0
C4531 C 0.71629 0.10745 0.76457 0.0
C4532 C 0.72048 0.13692 0.75251 0.0
C4533 C 0.76326 0.17019 0.77205 0.0
H4534 H 0.75908 0.19132 0.72727 0.0
C4535 C 0.8032 0.24377 0.77339 0.0
C4536 C 0.79092 0.25481 0.77399 0.0
C4537 C 0.79784 0.22441 0.76479 0.0
C4538 C 0.76069 0.18508 0.73949 0.0
H4539 H 0.73986 0.10389 0.7794 0.0
H4540 H 0.75919 0.13285 0.77374 0.0
H4541 H 0.74009 0.15927 0.72858 0.0
H4542 H 0.76384 0.25534 0.76677 0.0
H4543 H 0.75411 0.22108 0.75255 0.0
H4544 H 0.78335 0.19576 0.78321 0.0
C4545 C 0.74524 0.12966 0.76883 0.0
C4546 C 0.74965 0.16714 0.74044 0.0
C4547 C 0.73411 0.11302 0.77206 0.0
C4548 C 0.77336 0.24672 0.76622 0.0
C4549 C 0.76798 0.22742 0.75768 0.0
C4550 C 0.77452 0.1876 0.77088 0.0
C4551 C 0.73858 0.14178 0.7591 0.0
C4552 C 0.75063 0.15989 0.75698 0.0
C4553 C 0.7801 0.21611 0.75729 0.0
C4554 C 0.77286 0.19546 0.75494 0.0
H4555 H 0.69561 0.11553 0.74915 0.0
H4556 H 0.71502 0.14629 0.74526 0.0
H4557 H 0.76395 0.16529 0.7852 0.0
H4558 H 0.8168 0.25006 0.77951 0.0
H4559 H 0.80715 0.21561 0.765 0.0
loop_
_geom_bond_atom_site_label_1
_geom_bond_atom_site_label_2
_geom_bond_distance
_geom_bond_site_symmetry_2
_ccdc_geom_bond_type
O0 Cd1 2.223 . S
O0 C8 1.315 . S
Cd1 O0 2.223 . S
Cd1 O4 2.297 . S
Cd1 O5 2.439 . S
Cd1 O11 2.240 . S
Cd2 O3 2.240 . S
Cd2 O10 2.223 . S
Cd2 O12 2.297 . S
Cd2 O13 2.439 . S
O3 Cd2 2.240 . S
O3 C8 1.279 . S
O4 Cd1 2.297 . S
O4 C6 1.247 . S
O5 Cd1 2.439 . S
O5 C6 1.208 . S
C6 O4 1.247 . S
C6 O5 1.208 . S
C7 O12 1.247 . S
C7 O13 1.208 . S
C8 O0 1.315 . S
C8 O3 1.279 . S
C9 O10 1.315 . S
C9 O11 1.279 . S
O10 Cd2 2.223 . S
O10 C9 1.315 . S
O11 Cd1 2.240 . S
O11 C9 1.279 . S
O12 Cd2 2.297 . S
O12 C7 1.247 . S
O13 Cd2 2.439 . S
O13 C7 1.208 . S
O14 Cd15 2.241 . S
O14 C22 1.320 . S
Cd15 O14 2.241 . S
Cd15 O18 2.297 . S
Cd15 O19 2.439 . S
Cd15 O25 2.240 1_655 S
Cd16 O17 2.240 1_455 S
Cd16 O24 2.223 . S
Cd16 O26 2.297 . S
Cd16 O27 2.454 . S
O17 Cd16 2.240 1_655 S
O17 C22 1.279 . S
O18 Cd15 2.297 . S
O18 C20 1.247 . S
O19 Cd15 2.439 . S
O19 C20 1.208 . S
C20 O18 1.247 . S
C20 O19 1.208 . S
C21 O26 1.247 . S
C21 O27 1.225 . S
C22 O14 1.320 . S
C22 O17 1.279 . S
C23 O24 1.315 . S
C23 O25 1.279 . S
O24 Cd16 2.223 . S
O24 C23 1.315 . S
O25 Cd15 2.240 1_455 S
O25 C23 1.279 . S
O26 Cd16 2.297 . S
O26 C21 1.247 . S
O27 Cd16 2.454 . S
O27 C21 1.225 . S
O28 Cd29 2.223 . S
O28 C36 1.315 . S
Cd29 O28 2.223 . S
Cd29 O32 2.297 . S
Cd29 O33 2.439 . S
Cd29 O39 2.240 . S
Cd30 O31 2.240 . S
Cd30 O38 2.223 . S
Cd30 O40 2.297 . S
Cd30 O41 2.439 . S
O31 Cd30 2.240 . S
O31 C36 1.279 . S
O32 Cd29 2.297 . S
O32 C34 1.247 . S
O33 Cd29 2.439 . S
O33 C34 1.208 . S
C34 O32 1.247 . S
C34 O33 1.208 . S
C35 O40 1.247 . S
C35 O41 1.208 . S
C36 O28 1.315 . S
C36 O31 1.279 . S
C37 O38 1.315 . S
C37 O39 1.279 . S
O38 Cd30 2.223 . S
O38 C37 1.315 . S
O39 Cd29 2.240 . S
O39 C37 1.279 . S
O40 Cd30 2.297 . S
O40 C35 1.247 . S
O41 Cd30 2.439 . S
O41 C35 1.208 . S
O42 Cd43 2.223 . S
O42 C50 1.315 . S
Cd43 O42 2.223 . S
Cd43 O46 2.297 . S
Cd43 O47 2.439 . S
Cd43 O53 2.240 . S
Cd44 O45 2.240 . S
Cd44 O52 2.223 . S
Cd44 O54 2.297 . S
Cd44 O55 2.439 . S
O45 Cd44 2.240 . S
O45 C50 1.279 . S
O46 Cd43 2.297 . S
O46 C48 1.247 . S
O47 Cd43 2.439 . S
O47 C48 1.208 . S
C48 O46 1.247 . S
C48 O47 1.208 . S
C49 O54 1.247 . S
C49 O55 1.208 . S
C50 O42 1.315 . S
C50 O45 1.279 . S
C51 O52 1.315 . S
C51 O53 1.279 . S
O52 Cd44 2.223 . S
O52 C51 1.315 . S
O53 Cd43 2.240 . S
O53 C51 1.279 . S
O54 Cd44 2.297 . S
O54 C49 1.247 . S
O55 Cd44 2.439 . S
O55 C49 1.208 . S
O56 Cd57 2.223 . S
O56 C64 1.315 . S
Cd57 O56 2.223 . S
Cd57 O60 2.297 . S
Cd57 O61 2.439 . S
Cd57 O67 2.240 . S
Cd58 O59 2.240 . S
Cd58 O66 2.223 . S
Cd58 O68 2.297 . S
Cd58 O69 2.439 . S
O59 Cd58 2.240 . S
O59 C64 1.279 . S
O60 Cd57 2.297 . S
O60 C62 1.247 . S
O61 Cd57 2.439 . S
O61 C62 1.208 . S
C62 O60 1.247 . S
C62 O61 1.208 . S
C63 O68 1.247 . S
C63 O69 1.208 . S
C64 O56 1.315 . S
C64 O59 1.279 . S
C65 O66 1.315 . S
C65 O67 1.279 . S
O66 Cd58 2.223 . S
O66 C65 1.315 . S
O67 Cd57 2.240 . S
O67 C65 1.279 . S
O68 Cd58 2.297 . S
O68 C63 1.247 . S
O69 Cd58 2.439 . S
O69 C63 1.208 . S
O70 Cd71 2.223 . S
O70 C78 1.315 . S
Cd71 O70 2.223 . S
Cd71 O74 2.297 . S
Cd71 O75 2.439 . S
Cd71 O81 2.240 . S
Cd72 O73 2.240 . S
Cd72 O80 2.223 . S
Cd72 O82 2.297 . S
Cd72 O83 2.439 . S
O73 Cd72 2.240 . S
O73 C78 1.279 . S
O74 Cd71 2.297 . S
O74 C76 1.247 . S
O75 Cd71 2.439 . S
O75 C76 1.208 . S
C76 O74 1.247 . S
C76 O75 1.208 . S
C77 O82 1.247 . S
C77 O83 1.208 . S
C78 O70 1.315 . S
C78 O73 1.279 . S
C79 O80 1.315 . S
C79 O81 1.279 . S
O80 Cd72 2.223 . S
O80 C79 1.315 . S
O81 Cd71 2.240 . S
O81 C79 1.279 . S
O82 Cd72 2.297 . S
O82 C77 1.247 . S
O83 Cd72 2.439 . S
O83 C77 1.208 . S
O84 Cd85 2.223 . S
O84 C92 1.315 . S
Cd85 O84 2.223 . S
Cd85 O88 2.297 . S
Cd85 O89 2.439 . S
Cd85 O95 2.240 . S
Cd86 O87 2.240 . S
Cd86 O94 2.223 . S
Cd86 O96 2.297 . S
Cd86 O97 2.439 . S
O87 Cd86 2.240 . S
O87 C92 1.279 . S
O88 Cd85 2.297 . S
O88 C90 1.247 . S
O89 Cd85 2.439 . S
O89 C90 1.208 . S
C90 O88 1.247 . S
C90 O89 1.208 . S
C91 O96 1.247 . S
C91 O97 1.208 . S
C92 O84 1.315 . S
C92 O87 1.279 . S
C93 O94 1.315 . S
C93 O95 1.279 . S
O94 Cd86 2.223 . S
O94 C93 1.315 . S
O95 Cd85 2.240 . S
O95 C93 1.279 . S
O96 Cd86 2.297 . S
O96 C91 1.247 . S
O97 Cd86 2.439 . S
O97 C91 1.208 . S
O98 Cd99 2.223 . S
O98 C106 1.315 . S
Cd99 O98 2.223 . S
Cd99 O102 2.297 . S
Cd99 O103 2.439 . S
Cd99 O109 2.240 . S
Cd100 O101 2.240 . S
Cd100 O108 2.223 1_455 S
Cd100 O110 2.297 . S
Cd100 O111 2.439 . S
O101 Cd100 2.240 . S
O101 C106 1.279 . S
O102 Cd99 2.297 . S
O102 C104 1.247 . S
O103 Cd99 2.439 . S
O103 C104 1.208 . S
C104 O102 1.247 . S
C104 O103 1.208 . S
C105 O110 1.247 . S
C105 O111 1.208 . S
C106 O98 1.315 . S
C106 O101 1.279 . S
C107 O108 1.315 . S
C107 O109 1.279 1_655 S
O108 Cd100 2.223 1_655 S
O108 C107 1.315 . S
O109 Cd99 2.240 . S
O109 C107 1.279 1_455 S
O110 Cd100 2.297 . S
O110 C105 1.247 . S
O111 Cd100 2.439 . S
O111 C105 1.208 . S
O112 Cd113 2.223 . S
O112 C120 1.315 . S
Cd113 O112 2.223 . S
Cd113 O116 2.297 . S
Cd113 O117 2.439 . S
Cd113 O123 2.240 . S
Cd114 O115 2.240 . S
Cd114 O122 2.223 . S
Cd114 O124 2.297 . S
Cd114 O125 2.439 . S
O115 Cd114 2.240 . S
O115 C120 1.279 . S
O116 Cd113 2.297 . S
O116 C118 1.247 . S
O117 Cd113 2.439 . S
O117 C118 1.208 . S
C118 O116 1.247 . S
C118 O117 1.208 . S
C119 O124 1.247 . S
C119 O125 1.208 . S
C120 O112 1.315 . S
C120 O115 1.279 . S
C121 O122 1.315 . S
C121 O123 1.279 . S
O122 Cd114 2.223 . S
O122 C121 1.315 . S
O123 Cd113 2.240 . S
O123 C121 1.279 . S
O124 Cd114 2.297 . S
O124 C119 1.247 . S
O125 Cd114 2.439 . S
O125 C119 1.208 . S
O126 Cd127 2.223 . S
O126 C134 1.315 . S
Cd127 O126 2.223 . S
Cd127 O130 2.297 . S
Cd127 O131 2.439 . S
Cd127 O137 2.240 . S
Cd128 O129 2.240 . S
Cd128 O136 2.223 . S
Cd128 O138 2.297 . S
Cd128 O139 2.439 . S
O129 Cd128 2.240 . S
O129 C134 1.279 . S
O130 Cd127 2.297 . S
O130 C132 1.247 . S
O131 Cd127 2.439 . S
O131 C132 1.208 . S
C132 O130 1.247 . S
C132 O131 1.208 . S
C133 O138 1.247 . S
C133 O139 1.208 . S
C134 O126 1.315 . S
C134 O129 1.279 . S
C135 O136 1.315 . S
C135 O137 1.279 . S
O136 Cd128 2.223 . S
O136 C135 1.315 . S
O137 Cd127 2.240 . S
O137 C135 1.279 . S
O138 Cd128 2.297 . S
O138 C133 1.247 . S
O139 Cd128 2.439 . S
O139 C133 1.208 . S
O140 Cd141 2.223 1_545 S
O140 C148 1.315 1_545 S
Cd141 O140 2.223 1_565 S
Cd141 O144 2.297 . S
Cd141 O145 2.439 . S
Cd141 O151 2.240 1_565 S
Cd142 O143 2.240 1_545 S
Cd142 O150 2.223 . S
Cd142 O152 2.297 . S
Cd142 O153 2.439 1_545 S
O143 Cd142 2.240 1_565 S
O143 C148 1.279 . S
O144 Cd141 2.297 . S
O144 C146 1.247 . S
O145 Cd141 2.439 . S
O145 C146 1.208 . S
C146 O144 1.247 . S
C146 O145 1.208 . S
C147 O152 1.247 . S
C147 O153 1.208 1_545 S
C148 O140 1.315 1_565 S
C148 O143 1.279 . S
C149 O150 1.315 . S
C149 O151 1.279 . S
O150 Cd142 2.223 . S
O150 C149 1.315 . S
O151 Cd141 2.240 1_545 S
O151 C149 1.279 . S
O152 Cd142 2.297 . S
O152 C147 1.247 . S
O153 Cd142 2.439 1_565 S
O153 C147 1.208 1_565 S
O154 Cd155 2.223 . S
O154 C162 1.315 . S
Cd155 O154 2.223 . S
Cd155 O158 2.297 . S
Cd155 O159 2.439 . S
Cd155 O165 2.240 . S
Cd156 O157 2.240 1_556 S
Cd156 O164 2.223 1_556 S
Cd156 O166 2.297 . S
Cd156 O167 2.439 . S
O157 Cd156 2.240 1_554 S
O157 C162 1.279 . S
O158 Cd155 2.297 . S
O158 C160 1.247 . S
O159 Cd155 2.439 . S
O159 C160 1.208 . S
C160 O158 1.247 . S
C160 O159 1.208 . S
C161 O166 1.247 . S
C161 O167 1.208 . S
C162 O154 1.315 . S
C162 O157 1.279 . S
C163 O164 1.315 . S
C163 O165 1.279 . S
O164 Cd156 2.223 1_554 S
O164 C163 1.315 . S
O165 Cd155 2.240 . S
O165 C163 1.279 . S
O166 Cd156 2.297 . S
O166 C161 1.247 . S
O167 Cd156 2.439 . S
O167 C161 1.208 . S
O168 Cd169 2.223 . S
O168 C176 1.315 . S
Cd169 O168 2.223 . S
Cd169 O172 2.297 . S
Cd169 O173 2.439 . S
Cd169 O179 2.240 . S
Cd170 O171 2.240 . S
Cd170 O178 2.223 . S
Cd170 O180 2.297 1_554 S
Cd170 O181 2.439 1_554 S
O171 Cd170 2.240 . S
O171 C176 1.279 . S
O172 Cd169 2.297 . S
O172 C174 1.247 . S
O173 Cd169 2.439 . S
O173 C174 1.208 . S
C174 O172 1.247 . S
C174 O173 1.208 . S
C175 O180 1.247 . S
C175 O181 1.208 . S
C176 O168 1.315 . S
C176 O171 1.279 . S
C177 O178 1.315 . S
C177 O179 1.279 . S
O178 Cd170 2.223 . S
O178 C177 1.315 . S
O179 Cd169 2.240 . S
O179 C177 1.279 . S
O180 Cd170 2.297 1_556 S
O180 C175 1.247 . S
O181 Cd170 2.439 1_556 S
O181 C175 1.208 . S
O182 Cd183 2.223 . S
O182 C190 1.315 . S
Cd183 O182 2.223 . S
Cd183 O186 2.297 . S
Cd183 O187 2.439 . S
Cd183 O193 2.240 . S
Cd184 O185 2.240 . S
Cd184 O192 2.223 . S
Cd184 O194 2.297 1_554 S
Cd184 O195 2.439 1_554 S
O185 Cd184 2.240 . S
O185 C190 1.279 . S
O186 Cd183 2.297 . S
O186 C188 1.247 . S
O187 Cd183 2.439 . S
O187 C188 1.208 . S
C188 O186 1.247 . S
C188 O187 1.208 . S
C189 O194 1.247 . S
C189 O195 1.208 . S
C190 O182 1.315 . S
C190 O185 1.279 . S
C191 O192 1.315 . S
C191 O193 1.279 . S
O192 Cd184 2.223 . S
O192 C191 1.315 . S
O193 Cd183 2.240 . S
O193 C191 1.279 . S
O194 Cd184 2.297 1_556 S
O194 C189 1.247 . S
O195 Cd184 2.439 1_556 S
O195 C189 1.208 . S
O196 Cd197 2.223 . S
O196 C204 1.315 . S
Cd197 O196 2.223 . S
Cd197 O200 2.297 . S
Cd197 O201 2.439 . S
Cd197 O207 2.240 . S
Cd198 O199 2.240 . S
Cd198 O206 2.223 . S
Cd198 O208 2.297 . S
Cd198 O209 2.439 . S
O199 Cd198 2.240 . S
O199 C204 1.279 . S
O200 Cd197 2.297 . S
O200 C202 1.247 . S
O201 Cd197 2.439 . S
O201 C202 1.208 . S
C202 O200 1.247 . S
C202 O201 1.208 . S
C203 O208 1.247 . S
C203 O209 1.208 . S
C204 O196 1.315 . S
C204 O199 1.279 . S
C205 O206 1.315 . S
C205 O207 1.279 . S
O206 Cd198 2.223 . S
O206 C205 1.315 . S
O207 Cd197 2.240 . S
O207 C205 1.279 . S
O208 Cd198 2.297 . S
O208 C203 1.247 . S
O209 Cd198 2.439 . S
O209 C203 1.208 . S
O210 Cd211 2.223 . S
O210 C218 1.315 . S
Cd211 O210 2.223 . S
Cd211 O214 2.297 . S
Cd211 O215 2.439 . S
Cd211 O221 2.240 . S
Cd212 O213 2.240 . S
Cd212 O220 2.223 . S
Cd212 O222 2.297 . S
Cd212 O223 2.439 . S
O213 Cd212 2.240 . S
O213 C218 1.279 . S
O214 Cd211 2.297 . S
O214 C216 1.247 . S
O215 Cd211 2.439 . S
O215 C216 1.208 . S
C216 O214 1.247 . S
C216 O215 1.208 . S
C217 O222 1.247 . S
C217 O223 1.208 . S
C218 O210 1.315 . S
C218 O213 1.279 . S
C219 O220 1.315 . S
C219 O221 1.279 . S
O220 Cd212 2.223 . S
O220 C219 1.315 . S
O221 Cd211 2.240 . S
O221 C219 1.279 . S
O222 Cd212 2.297 . S
O222 C217 1.247 . S
O223 Cd212 2.439 . S
O223 C217 1.208 . S
O224 Cd225 2.223 . S
O224 C232 1.315 . S
Cd225 O224 2.223 . S
Cd225 O228 2.297 . S
Cd225 O229 2.439 . S
Cd225 O235 2.240 . S
Cd226 O227 2.240 . S
Cd226 O234 2.223 . S
Cd226 O236 2.297 . S
Cd226 O237 2.439 . S
O227 Cd226 2.240 . S
O227 C232 1.279 . S
O228 Cd225 2.297 . S
O228 C230 1.247 . S
O229 Cd225 2.439 . S
O229 C230 1.208 . S
C230 O228 1.247 . S
C230 O229 1.208 . S
C231 O236 1.247 . S
C231 O237 1.208 . S
C232 O224 1.315 . S
C232 O227 1.279 . S
C233 O234 1.315 . S
C233 O235 1.279 . S
O234 Cd226 2.223 . S
O234 C233 1.315 . S
O235 Cd225 2.240 . S
O235 C233 1.279 . S
O236 Cd226 2.297 . S
O236 C231 1.247 . S
O237 Cd226 2.439 . S
O237 C231 1.208 . S
O238 Cd239 2.223 . S
O238 C246 1.315 . S
Cd239 O238 2.223 . S
Cd239 O242 2.297 . S
Cd239 O243 2.439 . S
Cd239 O249 2.240 . S
Cd240 O241 2.240 . S
Cd240 O248 2.223 . S
Cd240 O250 2.297 . S
Cd240 O251 2.439 . S
O241 Cd240 2.240 . S
O241 C246 1.279 . S
O242 Cd239 2.297 . S
O242 C244 1.247 . S
O243 Cd239 2.439 . S
O243 C244 1.208 . S
C244 O242 1.247 . S
C244 O243 1.208 . S
C245 O250 1.247 . S
C245 O251 1.208 . S
C246 O238 1.315 . S
C246 O241 1.279 . S
C247 O248 1.315 . S
C247 O249 1.279 . S
O248 Cd240 2.223 . S
O248 C247 1.315 . S
O249 Cd239 2.240 . S
O249 C247 1.279 . S
O250 Cd240 2.297 . S
O250 C245 1.247 . S
O251 Cd240 2.439 . S
O251 C245 1.208 . S
O252 Cd253 2.223 . S
O252 C260 1.315 . S
Cd253 O252 2.223 . S
Cd253 O256 2.297 . S
Cd253 O257 2.439 . S
Cd253 O263 2.240 . S
Cd254 O255 2.240 . S
Cd254 O262 2.223 . S
Cd254 O264 2.297 . S
Cd254 O265 2.439 . S
O255 Cd254 2.240 . S
O255 C260 1.279 . S
O256 Cd253 2.297 . S
O256 C258 1.247 . S
O257 Cd253 2.439 . S
O257 C258 1.208 . S
C258 O256 1.247 . S
C258 O257 1.208 . S
C259 O264 1.247 . S
C259 O265 1.208 . S
C260 O252 1.315 . S
C260 O255 1.279 . S
C261 O262 1.315 . S
C261 O263 1.279 . S
O262 Cd254 2.223 . S
O262 C261 1.315 . S
O263 Cd253 2.240 . S
O263 C261 1.279 . S
O264 Cd254 2.297 . S
O264 C259 1.247 . S
O265 Cd254 2.439 . S
O265 C259 1.208 . S
O266 Cd267 2.223 . S
O266 C274 1.315 . S
Cd267 O266 2.223 . S
Cd267 O270 2.297 . S
Cd267 O271 2.439 . S
Cd267 O277 2.240 . S
Cd268 O269 2.240 . S
Cd268 O276 2.223 . S
Cd268 O278 2.297 . S
Cd268 O279 2.439 . S
O269 Cd268 2.240 . S
O269 C274 1.279 . S
O270 Cd267 2.297 . S
O270 C272 1.247 . S
O271 Cd267 2.439 . S
O271 C272 1.208 . S
C272 O270 1.247 . S
C272 O271 1.208 . S
C273 O278 1.247 . S
C273 O279 1.208 . S
C274 O266 1.315 . S
C274 O269 1.279 . S
C275 O276 1.315 . S
C275 O277 1.279 . S
O276 Cd268 2.223 . S
O276 C275 1.315 . S
O277 Cd267 2.240 . S
O277 C275 1.279 . S
O278 Cd268 2.297 . S
O278 C273 1.247 . S
O279 Cd268 2.439 . S
O279 C273 1.208 . S
O280 Cd281 2.223 . S
O280 C288 1.315 . S
Cd281 O280 2.223 . S
Cd281 O284 2.297 . S
Cd281 O285 2.439 1_554 S
Cd281 O291 2.240 1_554 S
Cd282 O283 2.240 1_556 S
Cd282 O290 2.223 1_556 S
Cd282 O292 2.297 . S
Cd282 O293 2.439 . S
O283 Cd282 2.240 1_554 S
O283 C288 1.279 . S
O284 Cd281 2.297 . S
O284 C286 1.247 . S
O285 Cd281 2.439 1_556 S
O285 C286 1.208 1_556 S
C286 O284 1.247 . S
C286 O285 1.208 1_554 S
C287 O292 1.247 . S
C287 O293 1.208 . S
C288 O280 1.315 . S
C288 O283 1.279 . S
C289 O290 1.315 1_556 S
C289 O291 1.301 . S
O290 Cd282 2.223 1_554 S
O290 C289 1.315 1_554 S
O291 Cd281 2.240 1_556 S
O291 C289 1.301 . S
O292 Cd282 2.297 . S
O292 C287 1.247 . S
O293 Cd282 2.439 . S
O293 C287 1.208 . S
O294 Cd295 2.223 . S
O294 C302 1.315 . S
Cd295 O294 2.223 . S
Cd295 O298 2.297 . S
Cd295 O299 2.439 . S
Cd295 O305 2.240 . S
Cd296 O297 2.240 . S
Cd296 O304 2.223 . S
Cd296 O306 2.297 . S
Cd296 O307 2.439 . S
O297 Cd296 2.240 . S
O297 C302 1.279 . S
O298 Cd295 2.297 . S
O298 C300 1.247 . S
O299 Cd295 2.439 . S
O299 C300 1.208 . S
C300 O298 1.247 . S
C300 O299 1.208 . S
C301 O306 1.247 . S
C301 O307 1.208 . S
C302 O294 1.315 . S
C302 O297 1.279 . S
C303 O304 1.315 . S
C303 O305 1.279 . S
O304 Cd296 2.223 . S
O304 C303 1.315 . S
O305 Cd295 2.240 . S
O305 C303 1.279 . S
O306 Cd296 2.297 . S
O306 C301 1.247 . S
O307 Cd296 2.439 . S
O307 C301 1.208 . S
O308 Cd309 2.223 . S
O308 C316 1.315 . S
Cd309 O308 2.223 . S
Cd309 O312 2.297 . S
Cd309 O313 2.439 . S
Cd309 O319 2.240 . S
Cd310 O311 2.240 . S
Cd310 O318 2.223 . S
Cd310 O320 2.297 . S
Cd310 O321 2.439 . S
O311 Cd310 2.240 . S
O311 C316 1.279 . S
O312 Cd309 2.297 . S
O312 C314 1.247 . S
O313 Cd309 2.439 . S
O313 C314 1.208 . S
C314 O312 1.247 . S
C314 O313 1.208 . S
C315 O320 1.247 . S
C315 O321 1.208 . S
C316 O308 1.315 . S
C316 O311 1.279 . S
C317 O318 1.315 . S
C317 O319 1.279 . S
O318 Cd310 2.223 . S
O318 C317 1.315 . S
O319 Cd309 2.240 . S
O319 C317 1.279 . S
O320 Cd310 2.297 . S
O320 C315 1.247 . S
O321 Cd310 2.439 . S
O321 C315 1.208 . S
O322 Cd323 2.223 . S
O322 C330 1.315 . S
Cd323 O322 2.223 . S
Cd323 O326 2.297 . S
Cd323 O327 2.439 . S
Cd323 O333 2.240 . S
Cd324 O325 2.240 . S
Cd324 O332 2.223 . S
Cd324 O334 2.297 . S
Cd324 O335 2.439 . S
O325 Cd324 2.240 . S
O325 C330 1.279 . S
O326 Cd323 2.297 . S
O326 C328 1.247 . S
O327 Cd323 2.439 . S
O327 C328 1.208 . S
C328 O326 1.247 . S
C328 O327 1.208 . S
C329 O334 1.247 . S
C329 O335 1.208 . S
C330 O322 1.315 . S
C330 O325 1.279 . S
C331 O332 1.315 . S
C331 O333 1.279 . S
O332 Cd324 2.223 . S
O332 C331 1.315 . S
O333 Cd323 2.240 . S
O333 C331 1.279 . S
O334 Cd324 2.297 . S
O334 C329 1.247 . S
O335 Cd324 2.439 . S
O335 C329 1.208 . S
Gd336 N367 2.661 . S
Gd336 N373 2.601 . S
Gd336 O380 2.545 . S
Gd336 O381 2.606 . S
Gd336 O383 2.429 . S
Gd336 O384 2.545 . S
Gd336 O385 2.412 . S
Gd336 O387 2.362 . S
Gd336 O388 2.324 . S
Gd336 C395 2.828 . S
Gd337 N346 2.661 . S
Gd337 N350 2.601 1_554 S
Gd337 O381 2.362 . S
Gd337 O382 2.324 . S
Gd337 O386 2.545 1_554 S
Gd337 O387 2.606 . S
Gd337 O389 2.429 1_554 S
Gd337 O390 2.545 . S
Gd337 O391 2.458 . S
Gd337 C404 2.828 1_455 S
C338 C341 1.408 1_655 S
C338 C343 1.440 . S
C338 C344 1.415 1_655 S
C339 C342 1.437 . S
C339 C343 1.317 1_556 S
C339 H358 0.929 . S
C340 C341 1.426 1_556 S
C340 C342 1.413 1_455 S
C340 N350 1.359 1_565 S
C341 C338 1.408 1_455 S
C341 C340 1.426 1_554 S
C341 N346 1.350 1_565 S
C342 C339 1.437 . S
C342 C340 1.413 1_655 S
C342 C352 1.391 . S
C343 C338 1.440 . S
C343 C339 1.317 1_554 S
C343 H354 0.930 . S
C344 C338 1.415 1_455 S
C344 C345 1.360 . S
C344 H356 0.925 1_455 S
C345 C344 1.360 . S
C345 C347 1.402 1_565 S
C345 H357 0.930 . S
N346 Gd337 2.661 . S
N346 C341 1.350 1_545 S
N346 C347 1.307 . S
C347 C345 1.402 1_545 S
C347 N346 1.307 . S
C347 H348 0.930 . S
H348 C347 0.930 . S
C349 N350 1.334 . S
C349 C351 1.394 1_545 S
C349 H353 0.930 . S
N350 Gd337 2.601 1_556 S
N350 C340 1.359 1_545 S
N350 C349 1.334 . S
C351 C349 1.394 1_565 S
C351 C352 1.359 1_455 S
C351 H363 0.930 . S
C352 C342 1.391 . S
C352 C351 1.359 1_655 S
C352 H364 0.929 . S
H353 C349 0.930 . S
H354 C343 0.930 . S
H355 C372 0.930 1_556 S
H356 C344 0.925 1_655 S
H357 C345 0.930 . S
H358 C339 0.929 . S
H359 C377 0.930 . S
H360 C368 0.951 . S
H361 C369 0.930 . S
H362 C393 0.929 . S
H363 C351 0.930 . S
H364 C352 0.929 . S
H365 C394 0.930 . S
H366 C375 0.930 . S
N367 Gd336 2.661 . S
N367 C371 1.350 . S
N367 C372 1.307 . S
C368 H360 0.951 . S
C368 C369 1.355 1_554 S
C368 C370 1.412 . S
C369 H361 0.930 . S
C369 C368 1.355 1_556 S
C369 C372 1.402 1_556 S
C370 C368 1.412 . S
C370 C371 1.417 . S
C370 C394 1.431 . S
C371 N367 1.350 . S
C371 C370 1.417 . S
C371 C374 1.426 . S
C372 H355 0.930 1_554 S
C372 N367 1.307 . S
C372 C369 1.402 1_554 S
N373 Gd336 2.601 . S
N373 C374 1.359 . S
N373 C377 1.334 . S
C374 C371 1.426 . S
C374 N373 1.359 . S
C374 C378 1.413 . S
C375 H366 0.930 . S
C375 C376 1.359 . S
C375 C377 1.394 . S
C376 C375 1.359 . S
C376 C378 1.391 . S
C376 H379 0.929 . S
C377 H359 0.930 . S
C377 N373 1.334 . S
C377 C375 1.394 . S
C378 C374 1.413 . S
C378 C376 1.391 . S
C378 C393 1.437 . S
H379 C376 0.929 . S
O380 Gd336 2.545 . S
O380 C395 1.258 . S
O381 Gd336 2.606 . S
O381 Gd337 2.362 . S
O381 C392 1.284 . S
O382 Gd337 2.324 . S
O382 C402 1.254 . S
O383 Gd336 2.429 . S
O383 C402 1.268 . S
O384 Gd336 2.545 . S
O384 C392 1.250 . S
O385 Gd336 2.412 . S
O385 C395 1.252 . S
O386 Gd337 2.545 1_556 S
O386 C404 1.258 1_456 S
O387 Gd336 2.362 . S
O387 Gd337 2.606 . S
O387 C403 1.284 . S
O388 Gd336 2.324 . S
O388 C411 1.254 1_554 S
O389 Gd337 2.429 1_556 S
O389 C411 1.268 . S
O390 Gd337 2.545 . S
O390 C403 1.250 . S
O391 Gd337 2.458 . S
O391 C404 1.240 1_455 S
C392 O381 1.284 . S
C392 O384 1.250 . S
C393 H362 0.929 . S
C393 C378 1.437 . S
C393 C394 1.317 . S
C394 H365 0.930 . S
C394 C370 1.431 . S
C394 C393 1.317 . S
C395 Gd336 2.828 . S
C395 O380 1.258 . S
C395 O385 1.252 . S
C395 C396 1.497 . S
C396 C395 1.497 . S
C396 C397 1.395 . S
C396 C398 1.380 . S
C397 C396 1.395 . S
C397 C400 1.398 . S
C397 H412 0.930 . S
C398 C396 1.380 . S
C398 C399 1.391 . S
C398 H413 0.930 . S
C399 C398 1.391 . S
C399 C401 1.387 . S
C400 C397 1.398 . S
C400 C401 1.380 . S
C400 H414 0.930 . S
C401 C399 1.387 . S
C401 C400 1.380 . S
C401 H415 0.930 . S
C402 O382 1.254 . S
C402 O383 1.268 . S
C403 O387 1.284 . S
C403 O390 1.250 . S
C404 Gd337 2.828 1_655 S
C404 O386 1.258 1_654 S
C404 O391 1.240 1_655 S
C404 C405 1.497 1_554 S
C405 C404 1.497 1_556 S
C405 C406 1.395 . S
C405 C407 1.380 1_556 S
C406 C405 1.395 . S
C406 C409 1.398 . S
C406 H416 0.930 . S
C407 C405 1.380 1_554 S
C407 C408 1.391 . S
C407 H417 0.930 . S
C408 C407 1.391 . S
C408 C410 1.387 1_554 S
C409 C406 1.398 . S
C409 C410 1.380 . S
C409 H418 0.930 . S
C410 C408 1.387 1_556 S
C410 C409 1.380 . S
C410 H419 0.930 . S
C411 O388 1.254 1_556 S
C411 O389 1.268 . S
H412 C397 0.930 . S
H413 C398 0.930 . S
H414 C400 0.930 . S
H415 C401 0.930 . S
H416 C406 0.930 . S
H417 C407 0.930 . S
H418 C409 0.930 . S
H419 C410 0.930 . S
Gd420 N451 2.661 . S
Gd420 N457 2.601 . S
Gd420 O464 2.545 . S
Gd420 O465 2.606 . S
Gd420 O467 2.429 . S
Gd420 O468 2.545 . S
Gd420 O469 2.412 . S
Gd420 O471 2.362 . S
Gd420 O472 2.324 . S
Gd420 C479 2.828 . S
Gd421 N430 2.661 . S
Gd421 N434 2.601 . S
Gd421 O465 2.362 . S
Gd421 O466 2.324 . S
Gd421 O470 2.545 . S
Gd421 O471 2.606 . S
Gd421 O473 2.429 . S
Gd421 O474 2.545 . S
Gd421 O475 2.412 . S
Gd421 C488 2.828 . S
C422 C425 1.417 . S
C422 C427 1.431 . S
C422 C428 1.412 . S
C423 C426 1.437 . S
C423 C427 1.317 . S
C423 H442 0.929 . S
C424 C425 1.426 . S
C424 C426 1.413 . S
C424 N434 1.359 . S
C425 C422 1.417 . S
C425 C424 1.426 . S
C425 N430 1.350 . S
C426 C423 1.437 . S
C426 C424 1.413 . S
C426 C436 1.391 . S
C427 C422 1.431 . S
C427 C423 1.317 . S
C427 H438 0.930 . S
C428 C422 1.412 . S
C428 C429 1.355 . S
C428 H440 0.930 . S
C429 C428 1.355 . S
C429 C431 1.402 . S
C429 H441 0.930 . S
N430 Gd421 2.661 . S
N430 C425 1.350 . S
N430 C431 1.307 . S
C431 C429 1.402 . S
C431 N430 1.307 . S
C431 H432 0.930 . S
H432 C431 0.930 . S
C433 N434 1.334 . S
C433 C435 1.394 . S
C433 H437 0.930 . S
N434 Gd421 2.601 . S
N434 C424 1.359 . S
N434 C433 1.334 . S
C435 C433 1.394 . S
C435 C436 1.359 . S
C435 H447 0.930 . S
C436 C426 1.391 . S
C436 C435 1.359 . S
C436 H448 0.929 . S
H437 C433 0.930 . S
H438 C427 0.930 . S
H439 C456 0.930 . S
H440 C428 0.930 . S
H441 C429 0.930 . S
H442 C423 0.929 . S
H443 C461 0.930 . S
H444 C452 0.930 . S
H445 C453 0.930 . S
H446 C477 0.929 . S
H447 C435 0.930 . S
H448 C436 0.929 . S
H449 C478 0.930 . S
H450 C459 0.930 . S
N451 Gd420 2.661 . S
N451 C455 1.350 . S
N451 C456 1.307 . S
C452 H444 0.930 . S
C452 C453 1.355 . S
C452 C454 1.412 . S
C453 H445 0.930 . S
C453 C452 1.355 . S
C453 C456 1.402 . S
C454 C452 1.412 . S
C454 C455 1.417 . S
C454 C478 1.431 . S
C455 N451 1.350 . S
C455 C454 1.417 . S
C455 C458 1.426 . S
C456 H439 0.930 . S
C456 N451 1.307 . S
C456 C453 1.402 . S
N457 Gd420 2.601 . S
N457 C458 1.359 . S
N457 C461 1.334 . S
C458 C455 1.426 . S
C458 N457 1.359 . S
C458 C462 1.413 . S
C459 H450 0.930 . S
C459 C460 1.359 . S
C459 C461 1.394 . S
C460 C459 1.359 . S
C460 C462 1.391 . S
C460 H463 0.929 . S
C461 H443 0.930 . S
C461 N457 1.334 . S
C461 C459 1.394 . S
C462 C458 1.413 . S
C462 C460 1.391 . S
C462 C477 1.437 . S
H463 C460 0.929 . S
O464 Gd420 2.545 . S
O464 C479 1.258 . S
O465 Gd420 2.606 . S
O465 Gd421 2.362 . S
O465 C476 1.284 . S
O466 Gd421 2.324 . S
O466 C486 1.254 . S
O467 Gd420 2.429 . S
O467 C486 1.268 . S
O468 Gd420 2.545 . S
O468 C476 1.250 . S
O469 Gd420 2.412 . S
O469 C479 1.252 . S
O470 Gd421 2.545 . S
O470 C488 1.258 . S
O471 Gd420 2.362 . S
O471 Gd421 2.606 . S
O471 C487 1.284 . S
O472 Gd420 2.324 . S
O472 C495 1.254 . S
O473 Gd421 2.429 . S
O473 C495 1.268 . S
O474 Gd421 2.545 . S
O474 C487 1.250 . S
O475 Gd421 2.412 . S
O475 C488 1.252 . S
C476 O465 1.284 . S
C476 O468 1.250 . S
C477 H446 0.929 . S
C477 C462 1.437 . S
C477 C478 1.317 . S
C478 H449 0.930 . S
C478 C454 1.431 . S
C478 C477 1.317 . S
C479 Gd420 2.828 . S
C479 O464 1.258 . S
C479 O469 1.252 . S
C479 C480 1.497 . S
C480 C479 1.497 . S
C480 C481 1.395 . S
C480 C482 1.380 . S
C481 C480 1.395 . S
C481 C484 1.398 . S
C481 H496 0.930 . S
C482 C480 1.380 . S
C482 C483 1.391 . S
C482 H497 0.930 . S
C483 C482 1.391 . S
C483 C485 1.387 . S
C484 C481 1.398 . S
C484 C485 1.380 . S
C484 H498 0.930 . S
C485 C483 1.387 . S
C485 C484 1.380 . S
C485 H499 0.930 . S
C486 O466 1.254 . S
C486 O467 1.268 . S
C487 O471 1.284 . S
C487 O474 1.250 . S
C488 Gd421 2.828 . S
C488 O470 1.258 . S
C488 O475 1.252 . S
C488 C489 1.497 . S
C489 C488 1.497 . S
C489 C490 1.395 . S
C489 C491 1.380 . S
C490 C489 1.395 . S
C490 C493 1.398 . S
C490 H500 0.930 . S
C491 C489 1.380 . S
C491 C492 1.391 . S
C491 H501 0.930 . S
C492 C491 1.391 . S
C492 C494 1.387 . S
C493 C490 1.398 . S
C493 C494 1.380 . S
C493 H502 0.930 . S
C494 C492 1.387 . S
C494 C493 1.380 . S
C494 H503 0.930 . S
C495 O472 1.254 . S
C495 O473 1.268 . S
H496 C481 0.930 . S
H497 C482 0.930 . S
H498 C484 0.930 . S
H499 C485 0.930 . S
H500 C490 0.930 . S
H501 C491 0.930 . S
H502 C493 0.930 . S
H503 C494 0.930 . S
Gd504 N535 2.661 . S
Gd504 N541 2.601 . S
Gd504 O548 2.545 . S
Gd504 O549 2.606 . S
Gd504 O551 2.429 . S
Gd504 O552 2.545 . S
Gd504 O553 2.412 . S
Gd504 O555 2.362 . S
Gd504 O556 2.324 . S
Gd504 C563 2.828 . S
Gd505 N514 2.661 . S
Gd505 N518 2.601 . S
Gd505 O549 2.362 . S
Gd505 O550 2.324 . S
Gd505 O554 2.545 . S
Gd505 O555 2.606 . S
Gd505 O557 2.429 . S
Gd505 O558 2.545 . S
Gd505 O559 2.412 . S
Gd505 C572 2.828 . S
C506 C509 1.417 . S
C506 C511 1.431 . S
C506 C512 1.412 . S
C507 C510 1.437 . S
C507 C511 1.317 . S
C507 H526 0.929 . S
C508 C509 1.426 . S
C508 C510 1.413 . S
C508 N518 1.359 . S
C509 C506 1.417 . S
C509 C508 1.426 . S
C509 N514 1.350 . S
C510 C507 1.437 . S
C510 C508 1.413 . S
C510 C520 1.391 . S
C511 C506 1.431 . S
C511 C507 1.317 . S
C511 H522 0.930 . S
C512 C506 1.412 . S
C512 C513 1.355 . S
C512 H524 0.930 . S
C513 C512 1.355 . S
C513 C515 1.402 . S
C513 H525 0.930 . S
N514 Gd505 2.661 . S
N514 C509 1.350 . S
N514 C515 1.307 . S
C515 C513 1.402 . S
C515 N514 1.307 . S
C515 H516 0.930 . S
H516 C515 0.930 . S
C517 N518 1.334 . S
C517 C519 1.394 . S
C517 H521 0.930 . S
N518 Gd505 2.601 . S
N518 C508 1.359 . S
N518 C517 1.334 . S
C519 C517 1.394 . S
C519 C520 1.359 . S
C519 H531 0.930 . S
C520 C510 1.391 . S
C520 C519 1.359 . S
C520 H532 0.929 . S
H521 C517 0.930 . S
H522 C511 0.930 . S
H523 C540 0.930 1_545 S
H524 C512 0.930 . S
H525 C513 0.930 . S
H526 C507 0.929 . S
H527 C545 0.930 . S
H528 C536 0.930 . S
H529 C537 0.930 . S
H530 C561 0.929 . S
H531 C519 0.930 . S
H532 C520 0.929 . S
H533 C562 0.930 . S
H534 C543 0.930 . S
N535 Gd504 2.661 . S
N535 C539 1.350 1_545 S
N535 C540 1.307 1_545 S
C536 H528 0.930 . S
C536 C537 1.355 . S
C536 C538 1.412 . S
C537 H529 0.930 . S
C537 C536 1.355 . S
C537 C540 1.402 . S
C538 C536 1.412 . S
C538 C539 1.417 . S
C538 C562 1.431 . S
C539 N535 1.350 1_565 S
C539 C538 1.417 . S
C539 C542 1.426 . S
C540 H523 0.930 1_565 S
C540 N535 1.307 1_565 S
C540 C537 1.402 . S
N541 Gd504 2.601 . S
N541 C542 1.359 1_545 S
N541 C545 1.334 . S
C542 C539 1.426 . S
C542 N541 1.359 1_565 S
C542 C546 1.413 . S
C543 H534 0.930 . S
C543 C544 1.359 1_545 S
C543 C545 1.394 . S
C544 C543 1.359 1_565 S
C544 C546 1.391 . S
C544 H547 0.929 . S
C545 H527 0.930 . S
C545 N541 1.334 . S
C545 C543 1.394 . S
C546 C542 1.413 . S
C546 C544 1.391 . S
C546 C561 1.437 . S
H547 C544 0.929 . S
O548 Gd504 2.545 . S
O548 C563 1.258 . S
O549 Gd504 2.606 . S
O549 Gd505 2.362 . S
O549 C560 1.284 . S
O550 Gd505 2.324 . S
O550 C570 1.254 . S
O551 Gd504 2.429 . S
O551 C570 1.268 . S
O552 Gd504 2.545 . S
O552 C560 1.250 . S
O553 Gd504 2.412 . S
O553 C563 1.252 . S
O554 Gd505 2.545 . S
O554 C572 1.258 . S
O555 Gd504 2.362 . S
O555 Gd505 2.606 . S
O555 C571 1.284 . S
O556 Gd504 2.324 . S
O556 C579 1.254 . S
O557 Gd505 2.429 . S
O557 C579 1.268 . S
O558 Gd505 2.545 . S
O558 C571 1.250 . S
O559 Gd505 2.412 . S
O559 C572 1.252 . S
C560 O549 1.284 . S
C560 O552 1.250 . S
C561 H530 0.929 . S
C561 C546 1.437 . S
C561 C562 1.317 . S
C562 H533 0.930 . S
C562 C538 1.431 . S
C562 C561 1.317 . S
C563 Gd504 2.828 . S
C563 O548 1.258 . S
C563 O553 1.252 . S
C563 C564 1.497 . S
C564 C563 1.497 . S
C564 C565 1.395 . S
C564 C566 1.380 . S
C565 C564 1.395 . S
C565 C568 1.398 . S
C565 H580 0.930 . S
C566 C564 1.380 . S
C566 C567 1.391 . S
C566 H581 0.930 . S
C567 C566 1.391 . S
C567 C569 1.387 . S
C568 C565 1.398 . S
C568 C569 1.380 . S
C568 H582 0.930 . S
C569 C567 1.387 . S
C569 C568 1.380 . S
C569 H583 0.930 . S
C570 O550 1.254 . S
C570 O551 1.268 . S
C571 O555 1.284 . S
C571 O558 1.250 . S
C572 Gd505 2.828 . S
C572 O554 1.258 . S
C572 O559 1.252 . S
C572 C573 1.497 . S
C573 C572 1.497 . S
C573 C574 1.395 . S
C573 C575 1.380 . S
C574 C573 1.395 . S
C574 C577 1.398 . S
C574 H584 0.930 . S
C575 C573 1.380 . S
C575 C576 1.430 . S
C575 H585 0.930 . S
C576 C575 1.430 . S
C576 C578 1.395 . S
C577 C574 1.398 . S
C577 C578 1.380 . S
C577 H586 0.930 . S
C578 C576 1.395 . S
C578 C577 1.380 . S
C578 H587 0.930 1_545 S
C579 O556 1.254 . S
C579 O557 1.268 . S
H580 C565 0.930 . S
H581 C566 0.930 . S
H582 C568 0.930 . S
H583 C569 0.930 . S
H584 C574 0.930 . S
H585 C575 0.930 . S
H586 C577 0.930 . S
H587 C578 0.930 1_565 S
Gd588 N619 2.661 . S
Gd588 N625 2.601 . S
Gd588 O632 2.545 . S
Gd588 O633 2.606 . S
Gd588 O635 2.429 . S
Gd588 O636 2.545 . S
Gd588 O637 2.412 . S
Gd588 O639 2.362 . S
Gd588 O640 2.324 . S
Gd588 C647 2.828 . S
Gd589 N598 2.661 . S
Gd589 N602 2.601 . S
Gd589 O633 2.362 . S
Gd589 O634 2.324 . S
Gd589 O638 2.545 . S
Gd589 O639 2.606 . S
Gd589 O641 2.429 . S
Gd589 O642 2.545 . S
Gd589 O643 2.412 . S
Gd589 C656 2.828 . S
C590 C593 1.417 . S
C590 C595 1.431 . S
C590 C596 1.412 . S
C591 C594 1.437 . S
C591 C595 1.317 . S
C591 H610 0.929 . S
C592 C593 1.426 . S
C592 C594 1.413 . S
C592 N602 1.359 . S
C593 C590 1.417 . S
C593 C592 1.426 . S
C593 N598 1.350 . S
C594 C591 1.437 . S
C594 C592 1.413 . S
C594 C604 1.391 . S
C595 C590 1.431 . S
C595 C591 1.317 . S
C595 H606 0.930 . S
C596 C590 1.412 . S
C596 C597 1.355 . S
C596 H608 0.930 . S
C597 C596 1.355 . S
C597 C599 1.402 . S
C597 H609 0.930 . S
N598 Gd589 2.661 . S
N598 C593 1.350 . S
N598 C599 1.307 . S
C599 C597 1.402 . S
C599 N598 1.307 . S
C599 H600 0.930 . S
H600 C599 0.930 . S
C601 N602 1.334 . S
C601 C603 1.394 . S
C601 H605 0.930 . S
N602 Gd589 2.601 . S
N602 C592 1.359 . S
N602 C601 1.334 . S
C603 C601 1.394 . S
C603 C604 1.359 . S
C603 H615 0.930 . S
C604 C594 1.391 . S
C604 C603 1.359 . S
C604 H616 0.929 . S
H605 C601 0.930 . S
H606 C595 0.930 . S
H607 C624 0.930 . S
H608 C596 0.930 . S
H609 C597 0.930 . S
H610 C591 0.929 . S
H611 C629 0.930 . S
H612 C620 0.930 . S
H613 C621 0.930 . S
H614 C645 0.929 . S
H615 C603 0.930 . S
H616 C604 0.929 . S
H617 C646 0.930 . S
H618 C627 0.930 . S
N619 Gd588 2.661 . S
N619 C623 1.350 . S
N619 C624 1.307 . S
C620 H612 0.930 . S
C620 C621 1.355 . S
C620 C622 1.412 . S
C621 H613 0.930 . S
C621 C620 1.355 . S
C621 C624 1.402 . S
C622 C620 1.412 . S
C622 C623 1.417 . S
C622 C646 1.431 . S
C623 N619 1.350 . S
C623 C622 1.417 . S
C623 C626 1.426 . S
C624 H607 0.930 . S
C624 N619 1.307 . S
C624 C621 1.402 . S
N625 Gd588 2.601 . S
N625 C626 1.359 . S
N625 C629 1.334 . S
C626 C623 1.426 . S
C626 N625 1.359 . S
C626 C630 1.413 . S
C627 H618 0.930 . S
C627 C628 1.359 . S
C627 C629 1.394 . S
C628 C627 1.359 . S
C628 C630 1.391 . S
C628 H631 0.929 . S
C629 H611 0.930 . S
C629 N625 1.334 . S
C629 C627 1.394 . S
C630 C626 1.413 . S
C630 C628 1.391 . S
C630 C645 1.437 . S
H631 C628 0.929 . S
O632 Gd588 2.545 . S
O632 C647 1.258 . S
O633 Gd588 2.606 . S
O633 Gd589 2.362 . S
O633 C644 1.284 . S
O634 Gd589 2.324 . S
O634 C654 1.254 . S
O635 Gd588 2.429 . S
O635 C654 1.268 . S
O636 Gd588 2.545 . S
O636 C644 1.250 . S
O637 Gd588 2.412 . S
O637 C647 1.252 . S
O638 Gd589 2.545 . S
O638 C656 1.258 . S
O639 Gd588 2.362 . S
O639 Gd589 2.606 . S
O639 C655 1.284 . S
O640 Gd588 2.324 . S
O640 C663 1.254 . S
O641 Gd589 2.429 . S
O641 C663 1.268 . S
O642 Gd589 2.545 . S
O642 C655 1.250 . S
O643 Gd589 2.412 . S
O643 C656 1.252 . S
C644 O633 1.284 . S
C644 O636 1.250 . S
C645 H614 0.929 . S
C645 C630 1.437 . S
C645 C646 1.317 . S
C646 H617 0.930 . S
C646 C622 1.431 . S
C646 C645 1.317 . S
C647 Gd588 2.828 . S
C647 O632 1.258 . S
C647 O637 1.252 . S
C647 C648 1.497 . S
C648 C647 1.497 . S
C648 C649 1.395 . S
C648 C650 1.380 . S
C649 C648 1.395 . S
C649 C652 1.398 . S
C649 H664 0.930 . S
C650 C648 1.380 . S
C650 C651 1.391 . S
C650 H665 0.930 . S
C651 C650 1.391 . S
C651 C653 1.387 . S
C652 C649 1.398 . S
C652 C653 1.380 . S
C652 H666 0.930 . S
C653 C651 1.387 . S
C653 C652 1.380 . S
C653 H667 0.930 . S
C654 O634 1.254 . S
C654 O635 1.268 . S
C655 O639 1.284 . S
C655 O642 1.250 . S
C656 Gd589 2.828 . S
C656 O638 1.258 . S
C656 O643 1.252 . S
C656 C657 1.497 . S
C657 C656 1.497 . S
C657 C658 1.395 . S
C657 C659 1.380 . S
C658 C657 1.395 . S
C658 C661 1.398 . S
C658 H668 0.930 . S
C659 C657 1.380 . S
C659 C660 1.391 . S
C659 H669 0.930 . S
C660 C659 1.391 . S
C660 C662 1.387 . S
C661 C658 1.398 . S
C661 C662 1.380 . S
C661 H670 0.930 . S
C662 C660 1.387 . S
C662 C661 1.380 . S
C662 H671 0.930 . S
C663 O640 1.254 . S
C663 O641 1.268 . S
H664 C649 0.930 . S
H665 C650 0.930 . S
H666 C652 0.930 . S
H667 C653 0.930 . S
H668 C658 0.930 . S
H669 C659 0.930 . S
H670 C661 0.930 . S
H671 C662 0.930 . S
Gd672 N703 2.661 1_545 S
Gd672 N709 2.601 . S
Gd672 O716 2.545 1_545 S
Gd672 O717 2.606 . S
Gd672 O719 2.429 . S
Gd672 O720 2.545 . S
Gd672 O721 2.412 1_545 S
Gd672 O723 2.362 . S
Gd672 O724 2.324 . S
Gd672 C731 2.828 1_545 S
Gd673 N682 2.661 . S
Gd673 N686 2.601 . S
Gd673 O717 2.362 . S
Gd673 O718 2.324 . S
Gd673 O722 2.545 . S
Gd673 O723 2.606 . S
Gd673 O725 2.429 . S
Gd673 O726 2.545 . S
Gd673 O727 2.412 . S
Gd673 C740 2.828 . S
C674 C677 1.417 . S
C674 C679 1.431 . S
C674 C680 1.412 . S
C675 C678 1.437 . S
C675 C679 1.317 . S
C675 H694 0.929 . S
C676 C677 1.426 . S
C676 C678 1.413 . S
C676 N686 1.359 . S
C677 C674 1.417 . S
C677 C676 1.426 . S
C677 N682 1.350 . S
C678 C675 1.437 . S
C678 C676 1.413 . S
C678 C688 1.391 . S
C679 C674 1.431 . S
C679 C675 1.317 . S
C679 H690 0.930 . S
C680 C674 1.412 . S
C680 C681 1.355 . S
C680 H692 0.930 . S
C681 C680 1.355 . S
C681 C683 1.402 . S
C681 H693 0.930 . S
N682 Gd673 2.661 . S
N682 C677 1.350 . S
N682 C683 1.307 . S
C683 C681 1.402 . S
C683 N682 1.307 . S
C683 H684 0.930 . S
H684 C683 0.930 . S
C685 N686 1.334 . S
C685 C687 1.394 . S
C685 H689 0.930 . S
N686 Gd673 2.601 . S
N686 C676 1.359 . S
N686 C685 1.334 . S
C687 C685 1.394 . S
C687 C688 1.359 . S
C687 H699 0.930 . S
C688 C678 1.391 . S
C688 C687 1.359 . S
C688 H700 0.929 . S
H689 C685 0.930 . S
H690 C679 0.930 . S
H691 C708 0.930 1_545 S
H692 C680 0.930 . S
H693 C681 0.930 . S
H694 C675 0.929 . S
H695 C713 0.930 . S
H696 C704 0.930 . S
H697 C705 0.930 1_655 S
H698 C729 0.929 . S
H699 C687 0.930 . S
H700 C688 0.929 . S
H701 C730 0.930 . S
H702 C711 0.930 . S
N703 Gd672 2.661 1_565 S
N703 C707 1.350 . S
N703 C708 1.307 . S
C704 H696 0.930 . S
C704 C705 1.355 . S
C704 C706 1.412 . S
C705 H697 0.930 1_455 S
C705 C704 1.355 . S
C705 C708 1.402 . S
C706 C704 1.412 . S
C706 C707 1.417 . S
C706 C730 1.431 . S
C707 N703 1.350 . S
C707 C706 1.417 . S
C707 C710 1.426 . S
C708 H691 0.930 1_565 S
C708 N703 1.307 . S
C708 C705 1.402 . S
N709 Gd672 2.601 . S
N709 C710 1.359 1_545 S
N709 C713 1.334 . S
C710 C707 1.426 . S
C710 N709 1.359 1_565 S
C710 C714 1.413 . S
C711 H702 0.930 . S
C711 C712 1.359 . S
C711 C713 1.394 1_565 S
C712 C711 1.359 . S
C712 C714 1.391 . S
C712 H715 0.929 . S
C713 H695 0.930 . S
C713 N709 1.334 . S
C713 C711 1.394 1_545 S
C714 C710 1.413 . S
C714 C712 1.391 . S
C714 C729 1.437 . S
H715 C712 0.929 . S
O716 Gd672 2.545 1_565 S
O716 C731 1.258 . S
O717 Gd672 2.606 . S
O717 Gd673 2.362 . S
O717 C728 1.284 . S
O718 Gd673 2.324 . S
O718 C738 1.254 . S
O719 Gd672 2.429 . S
O719 C738 1.268 . S
O720 Gd672 2.545 . S
O720 C728 1.250 . S
O721 Gd672 2.412 1_565 S
O721 C731 1.252 . S
O722 Gd673 2.545 . S
O722 C740 1.258 . S
O723 Gd672 2.362 . S
O723 Gd673 2.606 . S
O723 C739 1.284 . S
O724 Gd672 2.324 . S
O724 C747 1.254 . S
O725 Gd673 2.429 . S
O725 C747 1.268 . S
O726 Gd673 2.545 . S
O726 C739 1.250 . S
O727 Gd673 2.412 . S
O727 C740 1.252 . S
C728 O717 1.284 . S
C728 O720 1.250 . S
C729 H698 0.929 . S
C729 C714 1.437 . S
C729 C730 1.317 . S
C730 H701 0.930 . S
C730 C706 1.431 . S
C730 C729 1.317 . S
C731 Gd672 2.828 1_565 S
C731 O716 1.258 . S
C731 O721 1.252 . S
C731 C732 1.497 . S
C732 C731 1.497 . S
C732 C733 1.395 . S
C732 C734 1.380 . S
C733 C732 1.395 . S
C733 C736 1.398 . S
C733 H748 0.930 . S
C734 C732 1.380 . S
C734 C735 1.391 . S
C734 H749 0.930 . S
C735 C734 1.391 . S
C735 C737 1.387 . S
C736 C733 1.398 . S
C736 C737 1.380 . S
C736 H750 0.930 . S
C737 C735 1.387 . S
C737 C736 1.380 . S
C737 H751 0.930 . S
C738 O718 1.254 . S
C738 O719 1.268 . S
C739 O723 1.284 . S
C739 O726 1.250 . S
C740 Gd673 2.828 . S
C740 O722 1.258 . S
C740 O727 1.252 . S
C740 C741 1.497 . S
C741 C740 1.497 . S
C741 C742 1.395 . S
C741 C743 1.380 . S
C742 C741 1.395 . S
C742 C745 1.398 . S
C742 H752 0.930 . S
C743 C741 1.380 . S
C743 C744 1.391 . S
C743 H753 0.930 . S
C744 C743 1.391 . S
C744 C746 1.387 . S
C745 C742 1.398 . S
C745 C746 1.380 . S
C745 H754 0.930 . S
C746 C744 1.387 . S
C746 C745 1.380 . S
C746 H755 0.930 . S
C747 O724 1.254 . S
C747 O725 1.268 . S
H748 C733 0.930 . S
H749 C734 0.930 . S
H750 C736 0.930 . S
H751 C737 0.930 . S
H752 C742 0.930 . S
H753 C743 0.930 . S
H754 C745 0.930 . S
H755 C746 0.930 . S
Gd756 N787 2.661 . S
Gd756 N793 2.601 . S
Gd756 O800 2.545 . S
Gd756 O801 2.606 . S
Gd756 O803 2.429 . S
Gd756 O804 2.545 . S
Gd756 O805 2.412 . S
Gd756 O807 2.362 . S
Gd756 O808 2.324 . S
Gd756 C815 2.828 . S
Gd757 N766 2.661 . S
Gd757 N770 2.601 . S
Gd757 O801 2.362 . S
Gd757 O802 2.324 . S
Gd757 O806 2.545 . S
Gd757 O807 2.606 . S
Gd757 O809 2.429 . S
Gd757 O810 2.545 . S
Gd757 O811 2.412 . S
Gd757 C824 2.828 . S
C758 C761 1.417 . S
C758 C763 1.431 . S
C758 C764 1.412 . S
C759 C762 1.437 . S
C759 C763 1.317 . S
C759 H778 0.929 . S
C760 C761 1.426 . S
C760 C762 1.413 . S
C760 N770 1.359 . S
C761 C758 1.417 . S
C761 C760 1.426 . S
C761 N766 1.350 . S
C762 C759 1.437 . S
C762 C760 1.413 . S
C762 C772 1.391 . S
C763 C758 1.431 . S
C763 C759 1.317 . S
C763 H774 0.930 . S
C764 C758 1.412 . S
C764 C765 1.355 . S
C764 H776 0.930 . S
C765 C764 1.355 . S
C765 C767 1.402 . S
C765 H777 0.930 . S
N766 Gd757 2.661 . S
N766 C761 1.350 . S
N766 C767 1.307 . S
C767 C765 1.402 . S
C767 N766 1.307 . S
C767 H768 0.930 . S
H768 C767 0.930 . S
C769 N770 1.334 . S
C769 C771 1.394 . S
C769 H773 0.930 . S
N770 Gd757 2.601 . S
N770 C760 1.359 . S
N770 C769 1.334 . S
C771 C769 1.394 . S
C771 C772 1.359 . S
C771 H783 0.930 . S
C772 C762 1.391 . S
C772 C771 1.359 . S
C772 H784 0.929 . S
H773 C769 0.930 . S
H774 C763 0.930 . S
H775 C792 0.930 . S
H776 C764 0.930 . S
H777 C765 0.930 . S
H778 C759 0.929 . S
H779 C797 0.930 . S
H780 C788 0.930 . S
H781 C789 0.930 . S
H782 C813 0.929 . S
H783 C771 0.930 . S
H784 C772 0.929 . S
H785 C814 0.930 . S
H786 C795 0.930 . S
N787 Gd756 2.661 . S
N787 C791 1.350 . S
N787 C792 1.307 . S
C788 H780 0.930 . S
C788 C789 1.355 . S
C788 C790 1.412 . S
C789 H781 0.930 . S
C789 C788 1.355 . S
C789 C792 1.402 . S
C790 C788 1.412 . S
C790 C791 1.417 . S
C790 C814 1.431 . S
C791 N787 1.350 . S
C791 C790 1.417 . S
C791 C794 1.426 . S
C792 H775 0.930 . S
C792 N787 1.307 . S
C792 C789 1.402 . S
N793 Gd756 2.601 . S
N793 C794 1.359 . S
N793 C797 1.334 . S
C794 C791 1.426 . S
C794 N793 1.359 . S
C794 C798 1.413 . S
C795 H786 0.930 . S
C795 C796 1.359 . S
C795 C797 1.394 . S
C796 C795 1.359 . S
C796 C798 1.391 . S
C796 H799 0.929 . S
C797 H779 0.930 . S
C797 N793 1.334 . S
C797 C795 1.394 . S
C798 C794 1.413 . S
C798 C796 1.391 . S
C798 C813 1.437 . S
H799 C796 0.929 . S
O800 Gd756 2.545 . S
O800 C815 1.258 . S
O801 Gd756 2.606 . S
O801 Gd757 2.362 . S
O801 C812 1.284 . S
O802 Gd757 2.324 . S
O802 C822 1.254 . S
O803 Gd756 2.429 . S
O803 C822 1.268 . S
O804 Gd756 2.545 . S
O804 C812 1.250 . S
O805 Gd756 2.412 . S
O805 C815 1.252 . S
O806 Gd757 2.545 . S
O806 C824 1.258 . S
O807 Gd756 2.362 . S
O807 Gd757 2.606 . S
O807 C823 1.284 . S
O808 Gd756 2.324 . S
O808 C831 1.254 . S
O809 Gd757 2.429 . S
O809 C831 1.268 . S
O810 Gd757 2.545 . S
O810 C823 1.250 . S
O811 Gd757 2.412 . S
O811 C824 1.252 . S
C812 O801 1.284 . S
C812 O804 1.250 . S
C813 H782 0.929 . S
C813 C798 1.437 . S
C813 C814 1.317 . S
C814 H785 0.930 . S
C814 C790 1.431 . S
C814 C813 1.317 . S
C815 Gd756 2.828 . S
C815 O800 1.258 . S
C815 O805 1.252 . S
C815 C816 1.497 . S
C816 C815 1.497 . S
C816 C817 1.395 . S
C816 C818 1.380 . S
C817 C816 1.395 . S
C817 C820 1.398 . S
C817 H832 0.930 . S
C818 C816 1.380 . S
C818 C819 1.391 . S
C818 H833 0.930 . S
C819 C818 1.391 . S
C819 C821 1.387 . S
C820 C817 1.398 . S
C820 C821 1.380 . S
C820 H834 0.930 . S
C821 C819 1.387 . S
C821 C820 1.380 . S
C821 H835 0.930 . S
C822 O802 1.254 . S
C822 O803 1.268 . S
C823 O807 1.284 . S
C823 O810 1.250 . S
C824 Gd757 2.828 . S
C824 O806 1.258 . S
C824 O811 1.252 . S
C824 C825 1.497 . S
C825 C824 1.497 . S
C825 C826 1.395 . S
C825 C827 1.380 . S
C826 C825 1.395 . S
C826 C829 1.398 . S
C826 H836 0.930 . S
C827 C825 1.380 . S
C827 C828 1.391 . S
C827 H837 0.930 . S
C828 C827 1.391 . S
C828 C830 1.387 . S
C829 C826 1.398 . S
C829 C830 1.380 . S
C829 H838 0.930 . S
C830 C828 1.387 . S
C830 C829 1.380 . S
C830 H839 0.930 . S
C831 O808 1.254 . S
C831 O809 1.268 . S
H832 C817 0.930 . S
H833 C818 0.930 . S
H834 C820 0.930 . S
H835 C821 0.930 . S
H836 C826 0.930 . S
H837 C827 0.930 . S
H838 C829 0.930 . S
H839 C830 0.930 . S
Gd840 N871 2.661 1_554 S
Gd840 N877 2.601 1_554 S
Gd840 O884 2.545 1_554 S
Gd840 O885 2.606 . S
Gd840 O887 2.429 . S
Gd840 O888 2.545 . S
Gd840 O889 2.412 1_554 S
Gd840 O891 2.362 . S
Gd840 O892 2.325 1_554 S
Gd840 C899 2.828 1_554 S
Gd841 N850 2.661 . S
Gd841 N854 2.601 . S
Gd841 O885 2.362 . S
Gd841 O886 2.324 . S
Gd841 O890 2.545 . S
Gd841 O891 2.606 . S
Gd841 O893 2.429 . S
Gd841 O894 2.545 . S
Gd841 O895 2.412 . S
Gd841 C908 2.828 . S
C842 C845 1.417 . S
C842 C847 1.431 . S
C842 C848 1.412 . S
C843 C846 1.437 . S
C843 C847 1.317 . S
C843 H862 0.929 . S
C844 C845 1.426 . S
C844 C846 1.413 . S
C844 N854 1.359 . S
C845 C842 1.417 . S
C845 C844 1.426 . S
C845 N850 1.350 . S
C846 C843 1.437 . S
C846 C844 1.413 . S
C846 C856 1.391 . S
C847 C842 1.431 . S
C847 C843 1.317 . S
C847 H858 0.930 . S
C848 C842 1.412 . S
C848 C849 1.355 . S
C848 H860 0.930 . S
C849 C848 1.355 . S
C849 C851 1.402 . S
C849 H861 0.930 . S
N850 Gd841 2.661 . S
N850 C845 1.350 . S
N850 C851 1.307 . S
C851 C849 1.402 . S
C851 N850 1.307 . S
C851 H852 0.930 . S
H852 C851 0.930 . S
C853 N854 1.334 . S
C853 C855 1.394 1_545 S
C853 H857 0.930 1_545 S
N854 Gd841 2.601 . S
N854 C844 1.359 . S
N854 C853 1.334 . S
C855 C853 1.394 1_565 S
C855 C856 1.359 1_565 S
C855 H867 0.930 . S
C856 C846 1.391 . S
C856 C855 1.359 1_545 S
C856 H868 0.902 1_545 S
H857 C853 0.930 1_565 S
H858 C847 0.930 . S
H859 C876 0.968 . S
H860 C848 0.930 . S
H861 C849 0.930 . S
H862 C843 0.929 . S
H863 C881 0.930 1_554 S
H864 C872 0.930 . S
H865 C873 0.930 . S
H866 C897 0.929 . S
H867 C855 0.930 . S
H868 C856 0.902 1_565 S
H869 C898 0.930 . S
H870 C879 0.930 . S
N871 Gd840 2.661 1_556 S
N871 C875 1.350 . S
N871 C876 1.307 . S
C872 H864 0.930 . S
C872 C873 1.355 . S
C872 C874 1.412 1_565 S
C873 H865 0.930 . S
C873 C872 1.355 . S
C873 C876 1.402 1_565 S
C874 C872 1.412 1_545 S
C874 C875 1.417 . S
C874 C898 1.431 . S
C875 N871 1.350 . S
C875 C874 1.417 . S
C875 C878 1.426 . S
C876 H859 0.968 . S
C876 N871 1.307 . S
C876 C873 1.402 1_545 S
N877 Gd840 2.601 1_556 S
N877 C878 1.359 . S
N877 C881 1.334 . S
C878 C875 1.426 . S
C878 N877 1.359 . S
C878 C882 1.413 . S
C879 H870 0.930 . S
C879 C880 1.359 . S
C879 C881 1.394 . S
C880 C879 1.359 . S
C880 C882 1.391 . S
C880 H883 0.929 . S
C881 H863 0.930 1_556 S
C881 N877 1.334 . S
C881 C879 1.394 . S
C882 C878 1.413 . S
C882 C880 1.391 . S
C882 C897 1.437 . S
H883 C880 0.929 . S
O884 Gd840 2.545 1_556 S
O884 C899 1.258 . S
O885 Gd840 2.606 . S
O885 Gd841 2.362 . S
O885 C896 1.284 . S
O886 Gd841 2.324 . S
O886 C906 1.254 . S
O887 Gd840 2.429 . S
O887 C906 1.268 . S
O888 Gd840 2.545 . S
O888 C896 1.250 . S
O889 Gd840 2.412 1_556 S
O889 C899 1.252 . S
O890 Gd841 2.545 . S
O890 C908 1.258 . S
O891 Gd840 2.362 . S
O891 Gd841 2.606 . S
O891 C907 1.284 . S
O892 Gd840 2.325 1_556 S
O892 C915 1.248 1_556 S
O893 Gd841 2.429 . S
O893 C915 1.268 . S
O894 Gd841 2.545 . S
O894 C907 1.250 . S
O895 Gd841 2.412 . S
O895 C908 1.252 . S
C896 O885 1.284 . S
C896 O888 1.250 . S
C897 H866 0.929 . S
C897 C882 1.437 . S
C897 C898 1.317 . S
C898 H869 0.930 . S
C898 C874 1.431 . S
C898 C897 1.317 . S
C899 Gd840 2.828 1_556 S
C899 O884 1.258 . S
C899 O889 1.252 . S
C899 C900 1.497 . S
C900 C899 1.497 . S
C900 C901 1.395 . S
C900 C902 1.380 . S
C901 C900 1.395 . S
C901 C904 1.398 . S
C901 H916 0.930 . S
C902 C900 1.380 . S
C902 C903 1.391 . S
C902 H917 0.930 . S
C903 C902 1.391 . S
C903 C905 1.387 . S
C904 C901 1.398 . S
C904 C905 1.380 . S
C904 H918 0.930 . S
C905 C903 1.387 . S
C905 C904 1.380 . S
C905 H919 0.930 . S
C906 O886 1.254 . S
C906 O887 1.268 . S
C907 O891 1.284 . S
C907 O894 1.250 . S
C908 Gd841 2.828 . S
C908 O890 1.258 . S
C908 O895 1.252 . S
C908 C909 1.497 . S
C909 C908 1.497 . S
C909 C910 1.395 . S
C909 C911 1.380 . S
C910 C909 1.395 . S
C910 C913 1.400 . S
C910 H920 0.930 1_545 S
C911 C909 1.380 . S
C911 C912 1.391 . S
C911 H921 0.930 . S
C912 C911 1.391 . S
C912 C914 1.387 . S
C913 C910 1.400 . S
C913 C914 1.386 . S
C913 H922 0.923 1_545 S
C914 C912 1.387 . S
C914 C913 1.386 . S
C914 H923 0.930 . S
C915 O892 1.248 1_554 S
C915 O893 1.268 . S
H916 C901 0.930 . S
H917 C902 0.930 . S
H918 C904 0.930 . S
H919 C905 0.930 . S
H920 C910 0.930 1_565 S
H921 C911 0.930 . S
H922 C913 0.923 1_565 S
H923 C914 0.930 . S
Gd924 N955 2.661 . S
Gd924 N961 2.601 . S
Gd924 O968 2.545 . S
Gd924 O969 2.606 . S
Gd924 O971 2.429 . S
Gd924 O972 2.545 . S
Gd924 O973 2.412 . S
Gd924 O975 2.362 . S
Gd924 O976 2.324 . S
Gd924 C983 2.828 . S
Gd925 N934 2.661 . S
Gd925 N938 2.601 . S
Gd925 O969 2.362 . S
Gd925 O970 2.324 . S
Gd925 O974 2.545 . S
Gd925 O975 2.606 . S
Gd925 O977 2.429 . S
Gd925 O978 2.545 . S
Gd925 O979 2.412 . S
Gd925 C992 2.828 . S
C926 C929 1.417 . S
C926 C931 1.431 . S
C926 C932 1.412 . S
C927 C930 1.437 . S
C927 C931 1.317 . S
C927 H946 0.929 . S
C928 C929 1.426 . S
C928 C930 1.413 . S
C928 N938 1.359 . S
C929 C926 1.417 . S
C929 C928 1.426 . S
C929 N934 1.350 . S
C930 C927 1.437 . S
C930 C928 1.413 . S
C930 C940 1.391 . S
C931 C926 1.431 . S
C931 C927 1.317 . S
C931 H942 0.930 . S
C932 C926 1.412 . S
C932 C933 1.355 . S
C932 H944 0.930 . S
C933 C932 1.355 . S
C933 C935 1.402 . S
C933 H945 0.930 . S
N934 Gd925 2.661 . S
N934 C929 1.350 . S
N934 C935 1.307 . S
C935 C933 1.402 . S
C935 N934 1.307 . S
C935 H936 0.930 . S
H936 C935 0.930 . S
C937 N938 1.334 . S
C937 C939 1.394 . S
C937 H941 0.930 . S
N938 Gd925 2.601 . S
N938 C928 1.359 . S
N938 C937 1.334 . S
C939 C937 1.394 . S
C939 C940 1.359 . S
C939 H951 0.930 . S
C940 C930 1.391 . S
C940 C939 1.359 . S
C940 H952 0.929 . S
H941 C937 0.930 . S
H942 C931 0.930 . S
H943 C960 0.930 . S
H944 C932 0.930 . S
H945 C933 0.930 . S
H946 C927 0.929 . S
H947 C965 0.930 . S
H948 C956 0.930 . S
H949 C957 0.930 . S
H950 C981 0.929 . S
H951 C939 0.930 . S
H952 C940 0.929 . S
H953 C982 0.930 . S
H954 C963 0.930 . S
N955 Gd924 2.661 . S
N955 C959 1.350 . S
N955 C960 1.307 . S
C956 H948 0.930 . S
C956 C957 1.355 . S
C956 C958 1.412 . S
C957 H949 0.930 . S
C957 C956 1.355 . S
C957 C960 1.402 . S
C958 C956 1.412 . S
C958 C959 1.417 . S
C958 C982 1.431 . S
C959 N955 1.350 . S
C959 C958 1.417 . S
C959 C962 1.426 . S
C960 H943 0.930 . S
C960 N955 1.307 . S
C960 C957 1.402 . S
N961 Gd924 2.601 . S
N961 C962 1.359 . S
N961 C965 1.334 . S
C962 C959 1.426 . S
C962 N961 1.359 . S
C962 C966 1.413 . S
C963 H954 0.930 . S
C963 C964 1.359 . S
C963 C965 1.394 . S
C964 C963 1.359 . S
C964 C966 1.391 . S
C964 H967 0.929 . S
C965 H947 0.930 . S
C965 N961 1.334 . S
C965 C963 1.394 . S
C966 C962 1.413 . S
C966 C964 1.391 . S
C966 C981 1.437 . S
H967 C964 0.929 . S
O968 Gd924 2.545 . S
O968 C983 1.258 . S
O969 Gd924 2.606 . S
O969 Gd925 2.362 . S
O969 C980 1.284 . S
O970 Gd925 2.324 . S
O970 C990 1.254 . S
O971 Gd924 2.429 . S
O971 C990 1.268 . S
O972 Gd924 2.545 . S
O972 C980 1.250 . S
O973 Gd924 2.412 . S
O973 C983 1.252 . S
O974 Gd925 2.545 . S
O974 C992 1.258 . S
O975 Gd924 2.362 . S
O975 Gd925 2.606 . S
O975 C991 1.284 . S
O976 Gd924 2.324 . S
O976 C999 1.254 . S
O977 Gd925 2.429 . S
O977 C999 1.268 . S
O978 Gd925 2.545 . S
O978 C991 1.250 . S
O979 Gd925 2.412 . S
O979 C992 1.252 . S
C980 O969 1.284 . S
C980 O972 1.250 . S
C981 H950 0.929 . S
C981 C966 1.437 . S
C981 C982 1.317 . S
C982 H953 0.930 . S
C982 C958 1.431 . S
C982 C981 1.317 . S
C983 Gd924 2.828 . S
C983 O968 1.258 . S
C983 O973 1.252 . S
C983 C984 1.497 . S
C984 C983 1.497 . S
C984 C985 1.395 . S
C984 C986 1.380 . S
C985 C984 1.395 . S
C985 C988 1.398 . S
C985 H1000 0.930 . S
C986 C984 1.380 . S
C986 C987 1.391 . S
C986 H1001 0.930 . S
C987 C986 1.391 . S
C987 C989 1.387 . S
C988 C985 1.398 . S
C988 C989 1.380 . S
C988 H1002 0.930 . S
C989 C987 1.387 . S
C989 C988 1.380 . S
C989 H1003 0.930 . S
C990 O970 1.254 . S
C990 O971 1.268 . S
C991 O975 1.284 . S
C991 O978 1.250 . S
C992 Gd925 2.828 . S
C992 O974 1.258 . S
C992 O979 1.252 . S
C992 C993 1.497 . S
C993 C992 1.497 . S
C993 C994 1.395 . S
C993 C995 1.380 . S
C994 C993 1.395 . S
C994 C997 1.398 . S
C994 H1004 0.930 . S
C995 C993 1.380 . S
C995 C996 1.391 . S
C995 H1005 0.930 . S
C996 C995 1.391 . S
C996 C998 1.387 . S
C997 C994 1.398 . S
C997 C998 1.380 . S
C997 H1006 0.930 . S
C998 C996 1.387 . S
C998 C997 1.380 . S
C998 H1007 0.930 . S
C999 O976 1.254 . S
C999 O977 1.268 . S
H1000 C985 0.930 . S
H1001 C986 0.930 . S
H1002 C988 0.930 . S
H1003 C989 0.930 . S
H1004 C994 0.930 . S
H1005 C995 0.930 . S
H1006 C997 0.930 . S
H1007 C998 0.930 . S
Gd1008 N1039 2.661 1_554 S
Gd1008 N1045 2.601 1_554 S
Gd1008 O1052 2.545 . S
Gd1008 O1053 2.606 . S
Gd1008 O1055 2.429 . S
Gd1008 O1056 2.545 . S
Gd1008 O1057 2.412 . S
Gd1008 O1059 2.362 . S
Gd1008 O1060 2.324 . S
Gd1008 C1067 2.828 . S
Gd1009 N1018 2.661 . S
Gd1009 N1022 2.601 . S
Gd1009 O1053 2.362 . S
Gd1009 O1054 2.324 . S
Gd1009 O1058 2.545 . S
Gd1009 O1059 2.606 . S
Gd1009 O1061 2.429 . S
Gd1009 O1062 2.545 1_554 S
Gd1009 O1063 2.412 . S
Gd1009 C1076 2.828 . S
C1010 C1013 1.417 . S
C1010 C1015 1.431 . S
C1010 C1016 1.412 . S
C1011 C1014 1.437 . S
C1011 C1015 1.317 . S
C1011 H1030 0.929 . S
C1012 C1013 1.426 . S
C1012 C1014 1.413 . S
C1012 N1022 1.359 . S
C1013 C1010 1.417 . S
C1013 C1012 1.426 . S
C1013 N1018 1.350 . S
C1014 C1011 1.437 . S
C1014 C1012 1.413 . S
C1014 C1024 1.391 . S
C1015 C1010 1.431 . S
C1015 C1011 1.317 . S
C1015 H1026 0.930 . S
C1016 C1010 1.412 . S
C1016 C1017 1.355 . S
C1016 H1028 0.930 . S
C1017 C1016 1.355 . S
C1017 C1019 1.402 . S
C1017 H1029 0.930 . S
N1018 Gd1009 2.661 . S
N1018 C1013 1.350 . S
N1018 C1019 1.307 . S
C1019 C1017 1.402 . S
C1019 N1018 1.307 . S
C1019 H1020 0.930 . S
H1020 C1019 0.930 . S
C1021 N1022 1.334 . S
C1021 C1023 1.394 . S
C1021 H1025 0.930 . S
N1022 Gd1009 2.601 . S
N1022 C1012 1.359 . S
N1022 C1021 1.334 . S
C1023 C1021 1.394 . S
C1023 C1024 1.359 . S
C1023 H1035 0.930 . S
C1024 C1014 1.391 . S
C1024 C1023 1.359 . S
C1024 H1036 0.929 . S
H1025 C1021 0.930 . S
H1026 C1015 0.930 . S
H1027 C1044 0.930 . S
H1028 C1016 0.930 . S
H1029 C1017 0.930 . S
H1030 C1011 0.929 . S
H1031 C1049 0.930 . S
H1032 C1040 0.930 . S
H1033 C1041 0.930 . S
H1034 C1065 0.929 . S
H1035 C1023 0.930 . S
H1036 C1024 0.929 . S
H1037 C1066 0.930 . S
H1038 C1047 0.930 . S
N1039 Gd1008 2.661 1_556 S
N1039 C1043 1.350 . S
N1039 C1044 1.307 . S
C1040 H1032 0.930 . S
C1040 C1041 1.355 . S
C1040 C1042 1.412 . S
C1041 H1033 0.930 . S
C1041 C1040 1.355 . S
C1041 C1044 1.402 . S
C1042 C1040 1.412 . S
C1042 C1043 1.417 . S
C1042 C1066 1.431 . S
C1043 N1039 1.350 . S
C1043 C1042 1.417 . S
C1043 C1046 1.426 . S
C1044 H1027 0.930 . S
C1044 N1039 1.307 . S
C1044 C1041 1.402 . S
N1045 Gd1008 2.601 1_556 S
N1045 C1046 1.359 . S
N1045 C1049 1.334 . S
C1046 C1043 1.426 . S
C1046 N1045 1.359 . S
C1046 C1050 1.413 . S
C1047 H1038 0.930 . S
C1047 C1048 1.359 . S
C1047 C1049 1.394 . S
C1048 C1047 1.359 . S
C1048 C1050 1.391 . S
C1048 H1051 0.929 . S
C1049 H1031 0.930 . S
C1049 N1045 1.334 . S
C1049 C1047 1.394 . S
C1050 C1046 1.413 . S
C1050 C1048 1.391 . S
C1050 C1065 1.437 . S
H1051 C1048 0.929 . S
O1052 Gd1008 2.545 . S
O1052 C1067 1.258 . S
O1053 Gd1008 2.606 . S
O1053 Gd1009 2.362 . S
O1053 C1064 1.284 . S
O1054 Gd1009 2.324 . S
O1054 C1074 1.254 . S
O1055 Gd1008 2.429 . S
O1055 C1074 1.268 . S
O1056 Gd1008 2.545 . S
O1056 C1064 1.250 . S
O1057 Gd1008 2.412 . S
O1057 C1067 1.252 . S
O1058 Gd1009 2.545 . S
O1058 C1076 1.258 . S
O1059 Gd1008 2.362 . S
O1059 Gd1009 2.606 . S
O1059 C1075 1.284 1_554 S
O1060 Gd1008 2.324 . S
O1060 C1083 1.254 . S
O1061 Gd1009 2.429 . S
O1061 C1083 1.268 . S
O1062 Gd1009 2.545 1_556 S
O1062 C1075 1.250 . S
O1063 Gd1009 2.412 . S
O1063 C1076 1.252 . S
C1064 O1053 1.284 . S
C1064 O1056 1.250 . S
C1065 H1034 0.929 . S
C1065 C1050 1.437 . S
C1065 C1066 1.317 . S
C1066 H1037 0.930 . S
C1066 C1042 1.431 . S
C1066 C1065 1.317 . S
C1067 Gd1008 2.828 . S
C1067 O1052 1.258 . S
C1067 O1057 1.252 . S
C1067 C1068 1.497 . S
C1068 C1067 1.497 . S
C1068 C1069 1.395 . S
C1068 C1070 1.380 . S
C1069 C1068 1.395 . S
C1069 C1072 1.398 . S
C1069 H1084 0.930 . S
C1070 C1068 1.380 . S
C1070 C1071 1.391 . S
C1070 H1085 0.930 . S
C1071 C1070 1.391 . S
C1071 C1073 1.387 . S
C1072 C1069 1.398 . S
C1072 C1073 1.380 . S
C1072 H1086 0.930 . S
C1073 C1071 1.387 . S
C1073 C1072 1.380 . S
C1073 H1087 0.930 . S
C1074 O1054 1.254 . S
C1074 O1055 1.268 . S
C1075 O1059 1.284 1_556 S
C1075 O1062 1.250 . S
C1076 Gd1009 2.828 . S
C1076 O1058 1.258 . S
C1076 O1063 1.252 . S
C1076 C1077 1.497 . S
C1077 C1076 1.497 . S
C1077 C1078 1.395 . S
C1077 C1079 1.380 . S
C1078 C1077 1.395 . S
C1078 C1081 1.398 . S
C1078 H1088 0.930 . S
C1079 C1077 1.380 . S
C1079 C1080 1.391 . S
C1079 H1089 0.930 . S
C1080 C1079 1.391 . S
C1080 C1082 1.387 . S
C1081 C1078 1.398 . S
C1081 C1082 1.380 . S
C1081 H1090 0.930 . S
C1082 C1080 1.387 . S
C1082 C1081 1.380 . S
C1082 H1091 0.930 . S
C1083 O1060 1.254 . S
C1083 O1061 1.268 . S
H1084 C1069 0.930 . S
H1085 C1070 0.930 . S
H1086 C1072 0.930 . S
H1087 C1073 0.930 . S
H1088 C1078 0.930 . S
H1089 C1079 0.930 . S
H1090 C1081 0.930 . S
H1091 C1082 0.930 . S
Gd1092 N1123 2.661 . S
Gd1092 N1129 2.601 . S
Gd1092 O1136 2.545 . S
Gd1092 O1137 2.606 . S
Gd1092 O1139 2.429 . S
Gd1092 O1140 2.545 . S
Gd1092 O1141 2.412 . S
Gd1092 O1143 2.362 . S
Gd1092 O1144 2.324 . S
Gd1092 C1151 2.828 . S
Gd1093 N1102 2.661 . S
Gd1093 N1106 2.601 . S
Gd1093 O1137 2.362 . S
Gd1093 O1138 2.324 . S
Gd1093 O1142 2.545 . S
Gd1093 O1143 2.606 . S
Gd1093 O1145 2.429 . S
Gd1093 O1146 2.545 . S
Gd1093 O1147 2.412 . S
Gd1093 C1160 2.828 . S
C1094 C1097 1.417 . S
C1094 C1099 1.431 . S
C1094 C1100 1.412 . S
C1095 C1098 1.437 . S
C1095 C1099 1.317 . S
C1095 H1114 0.929 . S
C1096 C1097 1.426 . S
C1096 C1098 1.413 . S
C1096 N1106 1.359 . S
C1097 C1094 1.417 . S
C1097 C1096 1.426 . S
C1097 N1102 1.350 . S
C1098 C1095 1.437 . S
C1098 C1096 1.413 . S
C1098 C1108 1.391 . S
C1099 C1094 1.431 . S
C1099 C1095 1.317 . S
C1099 H1110 0.930 . S
C1100 C1094 1.412 . S
C1100 C1101 1.355 . S
C1100 H1112 0.930 . S
C1101 C1100 1.355 . S
C1101 C1103 1.402 . S
C1101 H1113 0.930 . S
N1102 Gd1093 2.661 . S
N1102 C1097 1.350 . S
N1102 C1103 1.307 . S
C1103 C1101 1.402 . S
C1103 N1102 1.307 . S
C1103 H1104 0.930 . S
H1104 C1103 0.930 . S
C1105 N1106 1.334 . S
C1105 C1107 1.394 . S
C1105 H1109 0.930 . S
N1106 Gd1093 2.601 . S
N1106 C1096 1.359 . S
N1106 C1105 1.334 . S
C1107 C1105 1.394 . S
C1107 C1108 1.359 . S
C1107 H1119 0.930 . S
C1108 C1098 1.391 . S
C1108 C1107 1.359 . S
C1108 H1120 0.929 . S
H1109 C1105 0.930 . S
H1110 C1099 0.930 . S
H1111 C1128 0.930 . S
H1112 C1100 0.930 . S
H1113 C1101 0.930 . S
H1114 C1095 0.929 . S
H1115 C1133 0.930 . S
H1116 C1124 0.930 . S
H1117 C1125 0.930 . S
H1118 C1149 0.929 . S
H1119 C1107 0.930 . S
H1120 C1108 0.929 . S
H1121 C1150 0.930 . S
H1122 C1131 0.930 . S
N1123 Gd1092 2.661 . S
N1123 C1127 1.350 . S
N1123 C1128 1.307 . S
C1124 H1116 0.930 . S
C1124 C1125 1.355 . S
C1124 C1126 1.412 . S
C1125 H1117 0.930 . S
C1125 C1124 1.355 . S
C1125 C1128 1.402 . S
C1126 C1124 1.412 . S
C1126 C1127 1.417 . S
C1126 C1150 1.431 . S
C1127 N1123 1.350 . S
C1127 C1126 1.417 . S
C1127 C1130 1.426 . S
C1128 H1111 0.930 . S
C1128 N1123 1.307 . S
C1128 C1125 1.402 . S
N1129 Gd1092 2.601 . S
N1129 C1130 1.359 . S
N1129 C1133 1.334 . S
C1130 C1127 1.426 . S
C1130 N1129 1.359 . S
C1130 C1134 1.413 . S
C1131 H1122 0.930 . S
C1131 C1132 1.359 . S
C1131 C1133 1.394 . S
C1132 C1131 1.359 . S
C1132 C1134 1.391 . S
C1132 H1135 0.929 . S
C1133 H1115 0.930 . S
C1133 N1129 1.334 . S
C1133 C1131 1.394 . S
C1134 C1130 1.413 . S
C1134 C1132 1.391 . S
C1134 C1149 1.437 . S
H1135 C1132 0.929 . S
O1136 Gd1092 2.545 . S
O1136 C1151 1.258 . S
O1137 Gd1092 2.606 . S
O1137 Gd1093 2.362 . S
O1137 C1148 1.284 . S
O1138 Gd1093 2.324 . S
O1138 C1158 1.254 . S
O1139 Gd1092 2.429 . S
O1139 C1158 1.268 . S
O1140 Gd1092 2.545 . S
O1140 C1148 1.250 . S
O1141 Gd1092 2.412 . S
O1141 C1151 1.252 . S
O1142 Gd1093 2.545 . S
O1142 C1160 1.258 . S
O1143 Gd1092 2.362 . S
O1143 Gd1093 2.606 . S
O1143 C1159 1.284 . S
O1144 Gd1092 2.324 . S
O1144 C1167 1.254 . S
O1145 Gd1093 2.429 . S
O1145 C1167 1.268 . S
O1146 Gd1093 2.545 . S
O1146 C1159 1.250 . S
O1147 Gd1093 2.412 . S
O1147 C1160 1.252 . S
C1148 O1137 1.284 . S
C1148 O1140 1.250 . S
C1149 H1118 0.929 . S
C1149 C1134 1.437 . S
C1149 C1150 1.317 . S
C1150 H1121 0.930 . S
C1150 C1126 1.431 . S
C1150 C1149 1.317 . S
C1151 Gd1092 2.828 . S
C1151 O1136 1.258 . S
C1151 O1141 1.252 . S
C1151 C1152 1.497 . S
C1152 C1151 1.497 . S
C1152 C1153 1.395 . S
C1152 C1154 1.380 . S
C1153 C1152 1.395 . S
C1153 C1156 1.398 . S
C1153 H1168 0.930 . S
C1154 C1152 1.380 . S
C1154 C1155 1.391 . S
C1154 H1169 0.930 . S
C1155 C1154 1.391 . S
C1155 C1157 1.387 . S
C1156 C1153 1.398 . S
C1156 C1157 1.380 . S
C1156 H1170 0.930 . S
C1157 C1155 1.387 . S
C1157 C1156 1.380 . S
C1157 H1171 0.930 . S
C1158 O1138 1.254 . S
C1158 O1139 1.268 . S
C1159 O1143 1.284 . S
C1159 O1146 1.250 . S
C1160 Gd1093 2.828 . S
C1160 O1142 1.258 . S
C1160 O1147 1.252 . S
C1160 C1161 1.497 . S
C1161 C1160 1.497 . S
C1161 C1162 1.395 . S
C1161 C1163 1.380 . S
C1162 C1161 1.395 . S
C1162 C1165 1.398 . S
C1162 H1172 0.930 . S
C1163 C1161 1.380 . S
C1163 C1164 1.391 . S
C1163 H1173 0.930 . S
C1164 C1163 1.391 . S
C1164 C1166 1.387 . S
C1165 C1162 1.398 . S
C1165 C1166 1.380 . S
C1165 H1174 0.930 . S
C1166 C1164 1.387 . S
C1166 C1165 1.380 . S
C1166 H1175 0.930 . S
C1167 O1144 1.254 . S
C1167 O1145 1.268 . S
H1168 C1153 0.930 . S
H1169 C1154 0.930 . S
H1170 C1156 0.930 . S
H1171 C1157 0.930 . S
H1172 C1162 0.930 . S
H1173 C1163 0.930 . S
H1174 C1165 0.930 . S
H1175 C1166 0.930 . S
Gd1176 N1207 2.661 . S
Gd1176 N1213 2.601 . S
Gd1176 O1220 2.545 . S
Gd1176 O1221 2.606 . S
Gd1176 O1223 2.429 . S
Gd1176 O1224 2.545 . S
Gd1176 O1225 2.412 . S
Gd1176 O1227 2.362 . S
Gd1176 O1228 2.324 . S
Gd1176 C1235 2.828 . S
Gd1177 N1186 2.661 . S
Gd1177 N1190 2.601 . S
Gd1177 O1221 2.362 . S
Gd1177 O1222 2.324 . S
Gd1177 O1226 2.545 . S
Gd1177 O1227 2.606 . S
Gd1177 O1229 2.429 . S
Gd1177 O1230 2.545 . S
Gd1177 O1231 2.412 . S
Gd1177 C1244 2.828 . S
C1178 C1181 1.417 . S
C1178 C1183 1.431 . S
C1178 C1184 1.412 . S
C1179 C1182 1.437 . S
C1179 C1183 1.317 . S
C1179 H1198 0.929 . S
C1180 C1181 1.426 . S
C1180 C1182 1.413 . S
C1180 N1190 1.359 . S
C1181 C1178 1.417 . S
C1181 C1180 1.426 . S
C1181 N1186 1.350 . S
C1182 C1179 1.437 . S
C1182 C1180 1.413 . S
C1182 C1192 1.391 . S
C1183 C1178 1.431 . S
C1183 C1179 1.317 . S
C1183 H1194 0.930 . S
C1184 C1178 1.412 . S
C1184 C1185 1.355 . S
C1184 H1196 0.930 . S
C1185 C1184 1.355 . S
C1185 C1187 1.402 . S
C1185 H1197 0.930 . S
N1186 Gd1177 2.661 . S
N1186 C1181 1.350 . S
N1186 C1187 1.307 . S
C1187 C1185 1.402 . S
C1187 N1186 1.307 . S
C1187 H1188 0.930 . S
H1188 C1187 0.930 . S
C1189 N1190 1.334 . S
C1189 C1191 1.394 . S
C1189 H1193 0.930 . S
N1190 Gd1177 2.601 . S
N1190 C1180 1.359 . S
N1190 C1189 1.334 . S
C1191 C1189 1.394 . S
C1191 C1192 1.359 . S
C1191 H1203 0.930 . S
C1192 C1182 1.391 . S
C1192 C1191 1.359 . S
C1192 H1204 0.929 . S
H1193 C1189 0.930 . S
H1194 C1183 0.930 . S
H1195 C1212 0.930 . S
H1196 C1184 0.930 . S
H1197 C1185 0.930 . S
H1198 C1179 0.929 . S
H1199 C1217 0.930 . S
H1200 C1208 0.930 . S
H1201 C1209 0.930 . S
H1202 C1233 0.929 . S
H1203 C1191 0.930 . S
H1204 C1192 0.929 . S
H1205 C1234 0.930 . S
H1206 C1215 0.930 . S
N1207 Gd1176 2.661 . S
N1207 C1211 1.350 . S
N1207 C1212 1.307 . S
C1208 H1200 0.930 . S
C1208 C1209 1.355 1_655 S
C1208 C1210 1.412 . S
C1209 H1201 0.930 . S
C1209 C1208 1.355 1_455 S
C1209 C1212 1.402 . S
C1210 C1208 1.412 . S
C1210 C1211 1.417 1_655 S
C1210 C1234 1.431 . S
C1211 N1207 1.350 . S
C1211 C1210 1.417 1_455 S
C1211 C1214 1.426 . S
C1212 H1195 0.930 . S
C1212 N1207 1.307 . S
C1212 C1209 1.402 . S
N1213 Gd1176 2.601 . S
N1213 C1214 1.359 . S
N1213 C1217 1.334 . S
C1214 C1211 1.426 . S
C1214 N1213 1.359 . S
C1214 C1218 1.413 1_455 S
C1215 H1206 0.930 . S
C1215 C1216 1.320 1_455 S
C1215 C1217 1.394 . S
C1216 C1215 1.320 1_655 S
C1216 C1218 1.386 . S
C1216 H1219 0.976 . S
C1217 H1199 0.930 . S
C1217 N1213 1.334 . S
C1217 C1215 1.394 . S
C1218 C1214 1.413 1_655 S
C1218 C1216 1.386 . S
C1218 C1233 1.437 . S
H1219 C1216 0.976 . S
O1220 Gd1176 2.545 . S
O1220 C1235 1.258 . S
O1221 Gd1176 2.606 . S
O1221 Gd1177 2.362 . S
O1221 C1232 1.284 . S
O1222 Gd1177 2.324 . S
O1222 C1242 1.254 . S
O1223 Gd1176 2.429 . S
O1223 C1242 1.268 . S
O1224 Gd1176 2.545 . S
O1224 C1232 1.250 . S
O1225 Gd1176 2.412 . S
O1225 C1235 1.252 . S
O1226 Gd1177 2.545 . S
O1226 C1244 1.258 . S
O1227 Gd1176 2.362 . S
O1227 Gd1177 2.606 . S
O1227 C1243 1.284 . S
O1228 Gd1176 2.324 . S
O1228 C1251 1.254 . S
O1229 Gd1177 2.429 . S
O1229 C1251 1.268 . S
O1230 Gd1177 2.545 . S
O1230 C1243 1.250 . S
O1231 Gd1177 2.412 . S
O1231 C1244 1.252 . S
C1232 O1221 1.284 . S
C1232 O1224 1.250 . S
C1233 H1202 0.929 . S
C1233 C1218 1.437 . S
C1233 C1234 1.317 . S
C1234 H1205 0.930 . S
C1234 C1210 1.431 . S
C1234 C1233 1.317 . S
C1235 Gd1176 2.828 . S
C1235 O1220 1.258 . S
C1235 O1225 1.252 . S
C1235 C1236 1.497 . S
C1236 C1235 1.497 . S
C1236 C1237 1.395 . S
C1236 C1238 1.380 . S
C1237 C1236 1.395 . S
C1237 C1240 1.398 . S
C1237 H1252 0.930 . S
C1238 C1236 1.380 . S
C1238 C1239 1.391 . S
C1238 H1253 0.930 . S
C1239 C1238 1.391 . S
C1239 C1241 1.387 . S
C1240 C1237 1.398 . S
C1240 C1241 1.380 . S
C1240 H1254 0.930 . S
C1241 C1239 1.387 . S
C1241 C1240 1.380 . S
C1241 H1255 0.930 . S
C1242 O1222 1.254 . S
C1242 O1223 1.268 . S
C1243 O1227 1.284 . S
C1243 O1230 1.250 . S
C1244 Gd1177 2.828 . S
C1244 O1226 1.258 . S
C1244 O1231 1.252 . S
C1244 C1245 1.497 . S
C1245 C1244 1.497 . S
C1245 C1246 1.395 . S
C1245 C1247 1.380 . S
C1246 C1245 1.395 . S
C1246 C1249 1.398 . S
C1246 H1256 0.930 . S
C1247 C1245 1.380 . S
C1247 C1248 1.391 . S
C1247 H1257 0.930 . S
C1248 C1247 1.391 . S
C1248 C1250 1.387 . S
C1249 C1246 1.398 . S
C1249 C1250 1.380 . S
C1249 H1258 0.930 . S
C1250 C1248 1.387 . S
C1250 C1249 1.380 . S
C1250 H1259 0.930 . S
C1251 O1228 1.254 . S
C1251 O1229 1.268 . S
H1252 C1237 0.930 . S
H1253 C1238 0.930 . S
H1254 C1240 0.930 . S
H1255 C1241 0.930 . S
H1256 C1246 0.930 . S
H1257 C1247 0.930 . S
H1258 C1249 0.930 . S
H1259 C1250 0.930 . S
Gd1260 N1291 2.661 . S
Gd1260 N1297 2.601 . S
Gd1260 O1304 2.545 . S
Gd1260 O1305 2.606 . S
Gd1260 O1307 2.429 . S
Gd1260 O1308 2.545 . S
Gd1260 O1309 2.412 . S
Gd1260 O1311 2.362 . S
Gd1260 O1312 2.324 . S
Gd1260 C1319 2.828 . S
Gd1261 N1270 2.661 . S
Gd1261 N1274 2.601 . S
Gd1261 O1305 2.362 . S
Gd1261 O1306 2.324 . S
Gd1261 O1310 2.545 . S
Gd1261 O1311 2.606 . S
Gd1261 O1313 2.429 . S
Gd1261 O1314 2.545 . S
Gd1261 O1315 2.412 . S
Gd1261 C1328 2.828 . S
C1262 C1265 1.417 . S
C1262 C1267 1.431 . S
C1262 C1268 1.412 . S
C1263 C1266 1.437 . S
C1263 C1267 1.317 . S
C1263 H1282 0.929 . S
C1264 C1265 1.426 . S
C1264 C1266 1.413 . S
C1264 N1274 1.359 . S
C1265 C1262 1.417 . S
C1265 C1264 1.426 . S
C1265 N1270 1.350 . S
C1266 C1263 1.437 . S
C1266 C1264 1.413 . S
C1266 C1276 1.391 . S
C1267 C1262 1.431 . S
C1267 C1263 1.317 . S
C1267 H1278 0.930 . S
C1268 C1262 1.412 . S
C1268 C1269 1.355 . S
C1268 H1280 0.930 . S
C1269 C1268 1.355 . S
C1269 C1271 1.402 . S
C1269 H1281 0.930 . S
N1270 Gd1261 2.661 . S
N1270 C1265 1.350 . S
N1270 C1271 1.307 . S
C1271 C1269 1.402 . S
C1271 N1270 1.307 . S
C1271 H1272 0.930 . S
H1272 C1271 0.930 . S
C1273 N1274 1.334 . S
C1273 C1275 1.394 . S
C1273 H1277 0.930 . S
N1274 Gd1261 2.601 . S
N1274 C1264 1.359 . S
N1274 C1273 1.334 . S
C1275 C1273 1.394 . S
C1275 C1276 1.359 . S
C1275 H1287 0.930 . S
C1276 C1266 1.391 . S
C1276 C1275 1.359 . S
C1276 H1288 0.929 . S
H1277 C1273 0.930 . S
H1278 C1267 0.930 . S
H1279 C1296 0.930 . S
H1280 C1268 0.930 . S
H1281 C1269 0.930 . S
H1282 C1263 0.929 . S
H1283 C1301 0.930 . S
H1284 C1292 0.930 . S
H1285 C1293 0.930 . S
H1286 C1317 0.929 . S
H1287 C1275 0.930 . S
H1288 C1276 0.929 . S
H1289 C1318 0.930 . S
H1290 C1299 0.930 . S
N1291 Gd1260 2.661 . S
N1291 C1295 1.350 . S
N1291 C1296 1.307 . S
C1292 H1284 0.930 . S
C1292 C1293 1.355 . S
C1292 C1294 1.412 . S
C1293 H1285 0.930 . S
C1293 C1292 1.355 . S
C1293 C1296 1.402 . S
C1294 C1292 1.412 . S
C1294 C1295 1.417 . S
C1294 C1318 1.431 . S
C1295 N1291 1.350 . S
C1295 C1294 1.417 . S
C1295 C1298 1.426 . S
C1296 H1279 0.930 . S
C1296 N1291 1.307 . S
C1296 C1293 1.402 . S
N1297 Gd1260 2.601 . S
N1297 C1298 1.359 . S
N1297 C1301 1.334 . S
C1298 C1295 1.426 . S
C1298 N1297 1.359 . S
C1298 C1302 1.413 . S
C1299 H1290 0.930 . S
C1299 C1300 1.359 . S
C1299 C1301 1.394 . S
C1300 C1299 1.359 . S
C1300 C1302 1.391 . S
C1300 H1303 0.929 . S
C1301 H1283 0.930 . S
C1301 N1297 1.334 . S
C1301 C1299 1.394 . S
C1302 C1298 1.413 . S
C1302 C1300 1.391 . S
C1302 C1317 1.437 . S
H1303 C1300 0.929 . S
O1304 Gd1260 2.545 . S
O1304 C1319 1.258 . S
O1305 Gd1260 2.606 . S
O1305 Gd1261 2.362 . S
O1305 C1316 1.284 . S
O1306 Gd1261 2.324 . S
O1306 C1326 1.254 . S
O1307 Gd1260 2.429 . S
O1307 C1326 1.268 . S
O1308 Gd1260 2.545 . S
O1308 C1316 1.250 . S
O1309 Gd1260 2.412 . S
O1309 C1319 1.252 . S
O1310 Gd1261 2.545 . S
O1310 C1328 1.258 . S
O1311 Gd1260 2.362 . S
O1311 Gd1261 2.606 . S
O1311 C1327 1.284 . S
O1312 Gd1260 2.324 . S
O1312 C1335 1.254 . S
O1313 Gd1261 2.429 . S
O1313 C1335 1.268 . S
O1314 Gd1261 2.545 . S
O1314 C1327 1.250 . S
O1315 Gd1261 2.412 . S
O1315 C1328 1.252 . S
C1316 O1305 1.284 . S
C1316 O1308 1.250 . S
C1317 H1286 0.929 . S
C1317 C1302 1.437 . S
C1317 C1318 1.317 . S
C1318 H1289 0.930 . S
C1318 C1294 1.431 . S
C1318 C1317 1.317 . S
C1319 Gd1260 2.828 . S
C1319 O1304 1.258 . S
C1319 O1309 1.252 . S
C1319 C1320 1.497 . S
C1320 C1319 1.497 . S
C1320 C1321 1.395 . S
C1320 C1322 1.380 . S
C1321 C1320 1.395 . S
C1321 C1324 1.398 . S
C1321 H1336 0.930 . S
C1322 C1320 1.380 . S
C1322 C1323 1.391 . S
C1322 H1337 0.930 . S
C1323 C1322 1.391 . S
C1323 C1325 1.387 . S
C1324 C1321 1.398 . S
C1324 C1325 1.380 . S
C1324 H1338 0.930 . S
C1325 C1323 1.387 . S
C1325 C1324 1.380 . S
C1325 H1339 0.930 . S
C1326 O1306 1.254 . S
C1326 O1307 1.268 . S
C1327 O1311 1.284 . S
C1327 O1314 1.250 . S
C1328 Gd1261 2.828 . S
C1328 O1310 1.258 . S
C1328 O1315 1.252 . S
C1328 C1329 1.497 . S
C1329 C1328 1.497 . S
C1329 C1330 1.395 . S
C1329 C1331 1.380 . S
C1330 C1329 1.395 . S
C1330 C1333 1.398 . S
C1330 H1340 0.930 . S
C1331 C1329 1.380 . S
C1331 C1332 1.391 . S
C1331 H1341 0.930 . S
C1332 C1331 1.391 . S
C1332 C1334 1.387 . S
C1333 C1330 1.398 . S
C1333 C1334 1.380 . S
C1333 H1342 0.930 . S
C1334 C1332 1.387 . S
C1334 C1333 1.380 . S
C1334 H1343 0.930 . S
C1335 O1312 1.254 . S
C1335 O1313 1.268 . S
H1336 C1321 0.930 . S
H1337 C1322 0.930 . S
H1338 C1324 0.930 . S
H1339 C1325 0.930 . S
H1340 C1330 0.930 . S
H1341 C1331 0.930 . S
H1342 C1333 0.930 . S
H1343 C1334 0.930 . S
Gd1344 N1375 2.661 . S
Gd1344 N1381 2.601 . S
Gd1344 O1388 2.545 . S
Gd1344 O1389 2.606 . S
Gd1344 O1391 2.429 . S
Gd1344 O1392 2.545 . S
Gd1344 O1393 2.412 . S
Gd1344 O1395 2.362 . S
Gd1344 O1396 2.324 . S
Gd1344 C1403 2.828 . S
Gd1345 N1354 2.661 . S
Gd1345 N1358 2.601 . S
Gd1345 O1389 2.362 . S
Gd1345 O1390 2.324 . S
Gd1345 O1394 2.545 . S
Gd1345 O1395 2.606 . S
Gd1345 O1397 2.429 . S
Gd1345 O1398 2.545 . S
Gd1345 O1399 2.412 . S
Gd1345 C1412 2.828 . S
C1346 C1349 1.417 . S
C1346 C1351 1.431 . S
C1346 C1352 1.412 . S
C1347 C1350 1.437 . S
C1347 C1351 1.317 . S
C1347 H1366 0.929 . S
C1348 C1349 1.426 . S
C1348 C1350 1.413 . S
C1348 N1358 1.359 . S
C1349 C1346 1.417 . S
C1349 C1348 1.426 . S
C1349 N1354 1.350 . S
C1350 C1347 1.437 . S
C1350 C1348 1.413 . S
C1350 C1360 1.391 . S
C1351 C1346 1.431 . S
C1351 C1347 1.317 . S
C1351 H1362 0.930 . S
C1352 C1346 1.412 . S
C1352 C1353 1.355 . S
C1352 H1364 0.930 . S
C1353 C1352 1.355 . S
C1353 C1355 1.402 . S
C1353 H1365 0.930 . S
N1354 Gd1345 2.661 . S
N1354 C1349 1.350 . S
N1354 C1355 1.307 . S
C1355 C1353 1.402 . S
C1355 N1354 1.307 . S
C1355 H1356 0.930 . S
H1356 C1355 0.930 . S
C1357 N1358 1.334 . S
C1357 C1359 1.394 . S
C1357 H1361 0.930 . S
N1358 Gd1345 2.601 . S
N1358 C1348 1.359 . S
N1358 C1357 1.334 . S
C1359 C1357 1.394 . S
C1359 C1360 1.359 . S
C1359 H1371 0.930 . S
C1360 C1350 1.391 . S
C1360 C1359 1.359 . S
C1360 H1372 0.929 . S
H1361 C1357 0.930 . S
H1362 C1351 0.930 . S
H1363 C1380 0.930 . S
H1364 C1352 0.930 . S
H1365 C1353 0.930 . S
H1366 C1347 0.929 . S
H1367 C1385 0.930 . S
H1368 C1376 0.930 . S
H1369 C1377 0.930 . S
H1370 C1401 0.929 . S
H1371 C1359 0.930 . S
H1372 C1360 0.929 . S
H1373 C1402 0.930 . S
H1374 C1383 0.930 . S
N1375 Gd1344 2.661 . S
N1375 C1379 1.350 . S
N1375 C1380 1.307 . S
C1376 H1368 0.930 . S
C1376 C1377 1.355 . S
C1376 C1378 1.412 . S
C1377 H1369 0.930 . S
C1377 C1376 1.355 . S
C1377 C1380 1.402 . S
C1378 C1376 1.412 . S
C1378 C1379 1.417 . S
C1378 C1402 1.431 . S
C1379 N1375 1.350 . S
C1379 C1378 1.417 . S
C1379 C1382 1.426 . S
C1380 H1363 0.930 . S
C1380 N1375 1.307 . S
C1380 C1377 1.402 . S
N1381 Gd1344 2.601 . S
N1381 C1382 1.359 . S
N1381 C1385 1.334 . S
C1382 C1379 1.426 . S
C1382 N1381 1.359 . S
C1382 C1386 1.413 . S
C1383 H1374 0.930 . S
C1383 C1384 1.359 . S
C1383 C1385 1.394 . S
C1384 C1383 1.359 . S
C1384 C1386 1.391 . S
C1384 H1387 0.929 . S
C1385 H1367 0.930 . S
C1385 N1381 1.334 . S
C1385 C1383 1.394 . S
C1386 C1382 1.413 . S
C1386 C1384 1.391 . S
C1386 C1401 1.437 . S
H1387 C1384 0.929 . S
O1388 Gd1344 2.545 . S
O1388 C1403 1.258 . S
O1389 Gd1344 2.606 . S
O1389 Gd1345 2.362 . S
O1389 C1400 1.284 . S
O1390 Gd1345 2.324 . S
O1390 C1410 1.254 . S
O1391 Gd1344 2.429 . S
O1391 C1410 1.268 . S
O1392 Gd1344 2.545 . S
O1392 C1400 1.250 . S
O1393 Gd1344 2.412 . S
O1393 C1403 1.252 . S
O1394 Gd1345 2.545 . S
O1394 C1412 1.258 . S
O1395 Gd1344 2.362 . S
O1395 Gd1345 2.606 . S
O1395 C1411 1.284 . S
O1396 Gd1344 2.324 . S
O1396 C1419 1.254 . S
O1397 Gd1345 2.429 . S
O1397 C1419 1.268 . S
O1398 Gd1345 2.545 . S
O1398 C1411 1.250 . S
O1399 Gd1345 2.412 . S
O1399 C1412 1.252 . S
C1400 O1389 1.284 . S
C1400 O1392 1.250 . S
C1401 H1370 0.929 . S
C1401 C1386 1.437 . S
C1401 C1402 1.317 . S
C1402 H1373 0.930 . S
C1402 C1378 1.431 . S
C1402 C1401 1.317 . S
C1403 Gd1344 2.828 . S
C1403 O1388 1.258 . S
C1403 O1393 1.252 . S
C1403 C1404 1.497 . S
C1404 C1403 1.497 . S
C1404 C1405 1.395 . S
C1404 C1406 1.380 . S
C1405 C1404 1.395 . S
C1405 C1408 1.398 . S
C1405 H1420 0.930 . S
C1406 C1404 1.380 . S
C1406 C1407 1.391 . S
C1406 H1421 0.930 . S
C1407 C1406 1.391 . S
C1407 C1409 1.387 . S
C1408 C1405 1.398 . S
C1408 C1409 1.380 . S
C1408 H1422 0.930 . S
C1409 C1407 1.387 . S
C1409 C1408 1.380 . S
C1409 H1423 0.930 . S
C1410 O1390 1.254 . S
C1410 O1391 1.268 . S
C1411 O1395 1.284 . S
C1411 O1398 1.250 . S
C1412 Gd1345 2.828 . S
C1412 O1394 1.258 . S
C1412 O1399 1.252 . S
C1412 C1413 1.497 . S
C1413 C1412 1.497 . S
C1413 C1414 1.395 . S
C1413 C1415 1.380 . S
C1414 C1413 1.395 . S
C1414 C1417 1.398 . S
C1414 H1424 0.930 . S
C1415 C1413 1.380 . S
C1415 C1416 1.391 . S
C1415 H1425 0.930 . S
C1416 C1415 1.391 . S
C1416 C1418 1.387 . S
C1417 C1414 1.398 . S
C1417 C1418 1.380 . S
C1417 H1426 0.930 . S
C1418 C1416 1.387 . S
C1418 C1417 1.380 . S
C1418 H1427 0.930 . S
C1419 O1396 1.254 . S
C1419 O1397 1.268 . S
H1420 C1405 0.930 . S
H1421 C1406 0.930 . S
H1422 C1408 0.930 . S
H1423 C1409 0.930 . S
H1424 C1414 0.930 . S
H1425 C1415 0.930 . S
H1426 C1417 0.930 . S
H1427 C1418 0.930 . S
Gd1428 N1459 2.661 . S
Gd1428 N1465 2.601 . S
Gd1428 O1472 2.545 . S
Gd1428 O1473 2.606 . S
Gd1428 O1475 2.429 . S
Gd1428 O1476 2.545 . S
Gd1428 O1477 2.412 . S
Gd1428 O1479 2.362 . S
Gd1428 O1480 2.324 . S
Gd1428 C1487 2.828 . S
Gd1429 N1438 2.661 . S
Gd1429 N1442 2.601 . S
Gd1429 O1473 2.362 . S
Gd1429 O1474 2.324 . S
Gd1429 O1478 2.545 . S
Gd1429 O1479 2.606 . S
Gd1429 O1481 2.429 . S
Gd1429 O1482 2.545 . S
Gd1429 O1483 2.412 . S
Gd1429 C1496 2.828 . S
C1430 C1433 1.417 . S
C1430 C1435 1.431 . S
C1430 C1436 1.412 . S
C1431 C1434 1.437 . S
C1431 C1435 1.317 . S
C1431 H1450 0.929 . S
C1432 C1433 1.426 . S
C1432 C1434 1.413 . S
C1432 N1442 1.359 . S
C1433 C1430 1.417 . S
C1433 C1432 1.426 . S
C1433 N1438 1.350 . S
C1434 C1431 1.437 . S
C1434 C1432 1.413 . S
C1434 C1444 1.391 . S
C1435 C1430 1.431 . S
C1435 C1431 1.317 . S
C1435 H1446 0.930 . S
C1436 C1430 1.412 . S
C1436 C1437 1.355 . S
C1436 H1448 0.930 . S
C1437 C1436 1.355 . S
C1437 C1439 1.402 . S
C1437 H1449 0.930 . S
N1438 Gd1429 2.661 . S
N1438 C1433 1.350 . S
N1438 C1439 1.307 . S
C1439 C1437 1.402 . S
C1439 N1438 1.307 . S
C1439 H1440 0.930 . S
H1440 C1439 0.930 . S
C1441 N1442 1.334 . S
C1441 C1443 1.394 . S
C1441 H1445 0.930 . S
N1442 Gd1429 2.601 . S
N1442 C1432 1.359 . S
N1442 C1441 1.334 . S
C1443 C1441 1.394 . S
C1443 C1444 1.359 . S
C1443 H1455 0.930 . S
C1444 C1434 1.391 . S
C1444 C1443 1.359 . S
C1444 H1456 0.929 . S
H1445 C1441 0.930 . S
H1446 C1435 0.930 . S
H1447 C1464 0.930 . S
H1448 C1436 0.930 . S
H1449 C1437 0.930 . S
H1450 C1431 0.929 . S
H1451 C1469 0.930 . S
H1452 C1460 0.930 . S
H1453 C1461 0.930 . S
H1454 C1485 0.929 . S
H1455 C1443 0.930 . S
H1456 C1444 0.929 . S
H1457 C1486 0.930 . S
H1458 C1467 0.930 . S
N1459 Gd1428 2.661 . S
N1459 C1463 1.350 . S
N1459 C1464 1.307 . S
C1460 H1452 0.930 . S
C1460 C1461 1.355 . S
C1460 C1462 1.412 . S
C1461 H1453 0.930 . S
C1461 C1460 1.355 . S
C1461 C1464 1.402 . S
C1462 C1460 1.412 . S
C1462 C1463 1.417 . S
C1462 C1486 1.431 . S
C1463 N1459 1.350 . S
C1463 C1462 1.417 . S
C1463 C1466 1.426 . S
C1464 H1447 0.930 . S
C1464 N1459 1.307 . S
C1464 C1461 1.402 . S
N1465 Gd1428 2.601 . S
N1465 C1466 1.359 . S
N1465 C1469 1.334 . S
C1466 C1463 1.426 . S
C1466 N1465 1.359 . S
C1466 C1470 1.413 . S
C1467 H1458 0.930 . S
C1467 C1468 1.359 . S
C1467 C1469 1.394 . S
C1468 C1467 1.359 . S
C1468 C1470 1.391 . S
C1468 H1471 0.929 . S
C1469 H1451 0.930 . S
C1469 N1465 1.334 . S
C1469 C1467 1.394 . S
C1470 C1466 1.413 . S
C1470 C1468 1.391 . S
C1470 C1485 1.437 . S
H1471 C1468 0.929 . S
O1472 Gd1428 2.545 . S
O1472 C1487 1.258 . S
O1473 Gd1428 2.606 . S
O1473 Gd1429 2.362 . S
O1473 C1484 1.284 . S
O1474 Gd1429 2.324 . S
O1474 C1494 1.254 . S
O1475 Gd1428 2.429 . S
O1475 C1494 1.268 . S
O1476 Gd1428 2.545 . S
O1476 C1484 1.250 . S
O1477 Gd1428 2.412 . S
O1477 C1487 1.252 . S
O1478 Gd1429 2.545 . S
O1478 C1496 1.258 . S
O1479 Gd1428 2.362 . S
O1479 Gd1429 2.606 . S
O1479 C1495 1.284 . S
O1480 Gd1428 2.324 . S
O1480 C1503 1.254 . S
O1481 Gd1429 2.429 . S
O1481 C1503 1.268 . S
O1482 Gd1429 2.545 . S
O1482 C1495 1.250 . S
O1483 Gd1429 2.412 . S
O1483 C1496 1.252 . S
C1484 O1473 1.284 . S
C1484 O1476 1.250 . S
C1485 H1454 0.929 . S
C1485 C1470 1.437 . S
C1485 C1486 1.317 . S
C1486 H1457 0.930 . S
C1486 C1462 1.431 . S
C1486 C1485 1.317 . S
C1487 Gd1428 2.828 . S
C1487 O1472 1.258 . S
C1487 O1477 1.252 . S
C1487 C1488 1.497 . S
C1488 C1487 1.497 . S
C1488 C1489 1.395 . S
C1488 C1490 1.380 . S
C1489 C1488 1.395 . S
C1489 C1492 1.398 . S
C1489 H1504 0.930 . S
C1490 C1488 1.380 . S
C1490 C1491 1.391 . S
C1490 H1505 0.930 . S
C1491 C1490 1.391 . S
C1491 C1493 1.387 . S
C1492 C1489 1.398 . S
C1492 C1493 1.380 . S
C1492 H1506 0.930 . S
C1493 C1491 1.387 . S
C1493 C1492 1.380 . S
C1493 H1507 0.930 . S
C1494 O1474 1.254 . S
C1494 O1475 1.268 . S
C1495 O1479 1.284 . S
C1495 O1482 1.250 . S
C1496 Gd1429 2.828 . S
C1496 O1478 1.258 . S
C1496 O1483 1.252 . S
C1496 C1497 1.497 . S
C1497 C1496 1.497 . S
C1497 C1498 1.395 . S
C1497 C1499 1.380 . S
C1498 C1497 1.395 . S
C1498 C1501 1.398 . S
C1498 H1508 0.930 . S
C1499 C1497 1.380 . S
C1499 C1500 1.391 . S
C1499 H1509 0.930 . S
C1500 C1499 1.391 . S
C1500 C1502 1.387 . S
C1501 C1498 1.398 . S
C1501 C1502 1.380 . S
C1501 H1510 0.930 . S
C1502 C1500 1.387 . S
C1502 C1501 1.380 . S
C1502 H1511 0.930 . S
C1503 O1480 1.254 . S
C1503 O1481 1.268 . S
H1504 C1489 0.930 . S
H1505 C1490 0.930 . S
H1506 C1492 0.930 . S
H1507 C1493 0.930 . S
H1508 C1498 0.930 . S
H1509 C1499 0.930 . S
H1510 C1501 0.930 . S
H1511 C1502 0.930 . S
Gd1512 N1543 2.661 . S
Gd1512 N1549 2.601 . S
Gd1512 O1556 2.545 . S
Gd1512 O1557 2.606 . S
Gd1512 O1559 2.429 . S
Gd1512 O1560 2.545 . S
Gd1512 O1561 2.412 . S
Gd1512 O1563 2.362 . S
Gd1512 O1564 2.324 . S
Gd1512 C1571 2.828 . S
Gd1513 N1522 2.661 . S
Gd1513 N1526 2.601 . S
Gd1513 O1557 2.362 . S
Gd1513 O1558 2.324 . S
Gd1513 O1562 2.545 . S
Gd1513 O1563 2.606 . S
Gd1513 O1565 2.429 . S
Gd1513 O1566 2.545 . S
Gd1513 O1567 2.412 . S
Gd1513 C1580 2.828 . S
C1514 C1517 1.417 . S
C1514 C1519 1.431 . S
C1514 C1520 1.412 . S
C1515 C1518 1.437 . S
C1515 C1519 1.317 . S
C1515 H1534 0.929 . S
C1516 C1517 1.426 . S
C1516 C1518 1.413 . S
C1516 N1526 1.359 . S
C1517 C1514 1.417 . S
C1517 C1516 1.426 . S
C1517 N1522 1.350 . S
C1518 C1515 1.437 . S
C1518 C1516 1.413 . S
C1518 C1528 1.391 . S
C1519 C1514 1.431 . S
C1519 C1515 1.317 . S
C1519 H1530 0.930 . S
C1520 C1514 1.412 . S
C1520 C1521 1.355 . S
C1520 H1532 0.930 . S
C1521 C1520 1.355 . S
C1521 C1523 1.402 . S
C1521 H1533 0.930 . S
N1522 Gd1513 2.661 . S
N1522 C1517 1.350 . S
N1522 C1523 1.307 . S
C1523 C1521 1.402 . S
C1523 N1522 1.307 . S
C1523 H1524 0.930 . S
H1524 C1523 0.930 . S
C1525 N1526 1.334 . S
C1525 C1527 1.394 . S
C1525 H1529 0.930 . S
N1526 Gd1513 2.601 . S
N1526 C1516 1.359 . S
N1526 C1525 1.334 . S
C1527 C1525 1.394 . S
C1527 C1528 1.359 . S
C1527 H1539 0.930 . S
C1528 C1518 1.391 . S
C1528 C1527 1.359 . S
C1528 H1540 0.929 . S
H1529 C1525 0.930 . S
H1530 C1519 0.930 . S
H1531 C1548 0.930 . S
H1532 C1520 0.930 . S
H1533 C1521 0.930 . S
H1534 C1515 0.929 . S
H1535 C1553 0.930 . S
H1536 C1544 0.930 . S
H1537 C1545 0.930 . S
H1538 C1569 0.929 . S
H1539 C1527 0.930 . S
H1540 C1528 0.929 . S
H1541 C1570 0.930 . S
H1542 C1551 0.930 . S
N1543 Gd1512 2.661 . S
N1543 C1547 1.350 . S
N1543 C1548 1.307 . S
C1544 H1536 0.930 . S
C1544 C1545 1.355 . S
C1544 C1546 1.412 . S
C1545 H1537 0.930 . S
C1545 C1544 1.355 . S
C1545 C1548 1.402 . S
C1546 C1544 1.412 . S
C1546 C1547 1.417 . S
C1546 C1570 1.431 . S
C1547 N1543 1.350 . S
C1547 C1546 1.417 . S
C1547 C1550 1.426 . S
C1548 H1531 0.930 . S
C1548 N1543 1.307 . S
C1548 C1545 1.402 . S
N1549 Gd1512 2.601 . S
N1549 C1550 1.359 . S
N1549 C1553 1.334 . S
C1550 C1547 1.426 . S
C1550 N1549 1.359 . S
C1550 C1554 1.413 . S
C1551 H1542 0.930 . S
C1551 C1552 1.359 . S
C1551 C1553 1.394 . S
C1552 C1551 1.359 . S
C1552 C1554 1.391 . S
C1552 H1555 0.929 . S
C1553 H1535 0.930 . S
C1553 N1549 1.334 . S
C1553 C1551 1.394 . S
C1554 C1550 1.413 . S
C1554 C1552 1.391 . S
C1554 C1569 1.437 . S
H1555 C1552 0.929 . S
O1556 Gd1512 2.545 . S
O1556 C1571 1.258 . S
O1557 Gd1512 2.606 . S
O1557 Gd1513 2.362 . S
O1557 C1568 1.284 . S
O1558 Gd1513 2.324 . S
O1558 C1578 1.254 . S
O1559 Gd1512 2.429 . S
O1559 C1578 1.268 . S
O1560 Gd1512 2.545 . S
O1560 C1568 1.250 . S
O1561 Gd1512 2.412 . S
O1561 C1571 1.252 . S
O1562 Gd1513 2.545 . S
O1562 C1580 1.258 . S
O1563 Gd1512 2.362 . S
O1563 Gd1513 2.606 . S
O1563 C1579 1.284 . S
O1564 Gd1512 2.324 . S
O1564 C1587 1.254 . S
O1565 Gd1513 2.429 . S
O1565 C1587 1.268 . S
O1566 Gd1513 2.545 . S
O1566 C1579 1.250 . S
O1567 Gd1513 2.412 . S
O1567 C1580 1.252 . S
C1568 O1557 1.284 . S
C1568 O1560 1.250 . S
C1569 H1538 0.929 . S
C1569 C1554 1.437 . S
C1569 C1570 1.317 . S
C1570 H1541 0.930 . S
C1570 C1546 1.431 . S
C1570 C1569 1.317 . S
C1571 Gd1512 2.828 . S
C1571 O1556 1.258 . S
C1571 O1561 1.252 . S
C1571 C1572 1.497 . S
C1572 C1571 1.497 . S
C1572 C1573 1.395 . S
C1572 C1574 1.380 . S
C1573 C1572 1.395 . S
C1573 C1576 1.398 . S
C1573 H1588 0.930 . S
C1574 C1572 1.380 . S
C1574 C1575 1.391 . S
C1574 H1589 0.930 . S
C1575 C1574 1.391 . S
C1575 C1577 1.387 . S
C1576 C1573 1.398 . S
C1576 C1577 1.380 . S
C1576 H1590 0.930 . S
C1577 C1575 1.387 . S
C1577 C1576 1.380 . S
C1577 H1591 0.930 . S
C1578 O1558 1.254 . S
C1578 O1559 1.268 . S
C1579 O1563 1.284 . S
C1579 O1566 1.250 . S
C1580 Gd1513 2.828 . S
C1580 O1562 1.258 . S
C1580 O1567 1.252 . S
C1580 C1581 1.497 . S
C1581 C1580 1.497 . S
C1581 C1582 1.395 . S
C1581 C1583 1.380 . S
C1582 C1581 1.395 . S
C1582 C1585 1.398 . S
C1582 H1592 0.930 . S
C1583 C1581 1.380 . S
C1583 C1584 1.391 . S
C1583 H1593 0.930 . S
C1584 C1583 1.391 . S
C1584 C1586 1.387 . S
C1585 C1582 1.398 . S
C1585 C1586 1.380 . S
C1585 H1594 0.930 . S
C1586 C1584 1.387 . S
C1586 C1585 1.380 . S
C1586 H1595 0.930 . S
C1587 O1564 1.254 . S
C1587 O1565 1.268 . S
H1588 C1573 0.930 . S
H1589 C1574 0.930 . S
H1590 C1576 0.930 . S
H1591 C1577 0.930 . S
H1592 C1582 0.930 . S
H1593 C1583 0.930 . S
H1594 C1585 0.930 . S
H1595 C1586 0.930 . S
Gd1596 N1627 2.661 . S
Gd1596 N1633 2.601 . S
Gd1596 O1640 2.545 . S
Gd1596 O1641 2.606 . S
Gd1596 O1643 2.429 . S
Gd1596 O1644 2.545 . S
Gd1596 O1645 2.467 . S
Gd1596 O1647 2.362 . S
Gd1596 O1648 2.324 . S
Gd1596 C1655 2.828 1_455 S
Gd1597 N1606 2.661 . S
Gd1597 N1610 2.601 . S
Gd1597 O1641 2.362 . S
Gd1597 O1642 2.324 . S
Gd1597 O1646 2.545 . S
Gd1597 O1647 2.606 . S
Gd1597 O1649 2.429 . S
Gd1597 O1650 2.545 . S
Gd1597 O1651 2.412 . S
Gd1597 C1664 2.828 . S
C1598 C1601 1.417 . S
C1598 C1603 1.431 . S
C1598 C1604 1.412 . S
C1599 C1602 1.437 . S
C1599 C1603 1.317 . S
C1599 H1618 0.929 . S
C1600 C1601 1.426 . S
C1600 C1602 1.413 . S
C1600 N1610 1.359 . S
C1601 C1598 1.417 . S
C1601 C1600 1.426 . S
C1601 N1606 1.350 . S
C1602 C1599 1.437 . S
C1602 C1600 1.413 . S
C1602 C1612 1.391 1_554 S
C1603 C1598 1.431 . S
C1603 C1599 1.317 . S
C1603 H1614 0.930 . S
C1604 C1598 1.412 . S
C1604 C1605 1.355 . S
C1604 H1616 0.930 . S
C1605 C1604 1.355 . S
C1605 C1607 1.402 . S
C1605 H1617 0.930 . S
N1606 Gd1597 2.661 . S
N1606 C1601 1.350 . S
N1606 C1607 1.307 . S
C1607 C1605 1.402 . S
C1607 N1606 1.307 . S
C1607 H1608 0.930 . S
H1608 C1607 0.930 . S
C1609 N1610 1.334 1_556 S
C1609 C1611 1.394 . S
C1609 H1613 0.930 . S
N1610 Gd1597 2.601 . S
N1610 C1600 1.359 . S
N1610 C1609 1.334 1_554 S
C1611 C1609 1.394 . S
C1611 C1612 1.359 . S
C1611 H1623 0.930 . S
C1612 C1602 1.391 1_556 S
C1612 C1611 1.359 . S
C1612 H1624 0.929 . S
H1613 C1609 0.930 . S
H1614 C1603 0.930 . S
H1615 C1632 0.930 . S
H1616 C1604 0.930 . S
H1617 C1605 0.930 . S
H1618 C1599 0.929 . S
H1619 C1637 0.930 . S
H1620 C1628 0.930 . S
H1621 C1629 0.930 1_556 S
H1622 C1653 0.929 . S
H1623 C1611 0.930 . S
H1624 C1612 0.929 . S
H1625 C1654 0.930 . S
H1626 C1635 0.930 . S
N1627 Gd1596 2.661 . S
N1627 C1631 1.350 1_455 S
N1627 C1632 1.307 . S
C1628 H1620 0.930 . S
C1628 C1629 1.355 . S
C1628 C1630 1.412 . S
C1629 H1621 0.930 1_554 S
C1629 C1628 1.355 . S
C1629 C1632 1.402 1_655 S
C1630 C1628 1.412 . S
C1630 C1631 1.417 . S
C1630 C1654 1.431 . S
C1631 N1627 1.350 1_655 S
C1631 C1630 1.417 . S
C1631 C1634 1.426 1_655 S
C1632 H1615 0.930 . S
C1632 N1627 1.307 . S
C1632 C1629 1.402 1_455 S
N1633 Gd1596 2.601 . S
N1633 C1634 1.359 . S
N1633 C1637 1.334 . S
C1634 C1631 1.426 1_455 S
C1634 N1633 1.359 . S
C1634 C1638 1.413 1_455 S
C1635 H1626 0.930 . S
C1635 C1636 1.359 1_455 S
C1635 C1637 1.394 . S
C1636 C1635 1.359 1_655 S
C1636 C1638 1.391 . S
C1636 H1639 0.929 . S
C1637 H1619 0.930 . S
C1637 N1633 1.334 . S
C1637 C1635 1.394 . S
C1638 C1634 1.413 1_655 S
C1638 C1636 1.391 . S
C1638 C1653 1.437 . S
H1639 C1636 0.929 . S
O1640 Gd1596 2.545 . S
O1640 C1655 1.258 1_455 S
O1641 Gd1596 2.606 . S
O1641 Gd1597 2.362 . S
O1641 C1652 1.284 . S
O1642 Gd1597 2.324 . S
O1642 C1662 1.254 . S
O1643 Gd1596 2.429 . S
O1643 C1662 1.268 . S
O1644 Gd1596 2.545 . S
O1644 C1652 1.250 . S
O1645 Gd1596 2.467 . S
O1645 C1655 1.237 1_455 S
O1646 Gd1597 2.545 . S
O1646 C1664 1.258 . S
O1647 Gd1596 2.362 . S
O1647 Gd1597 2.606 . S
O1647 C1663 1.284 . S
O1648 Gd1596 2.324 . S
O1648 C1671 1.254 . S
O1649 Gd1597 2.429 . S
O1649 C1671 1.268 . S
O1650 Gd1597 2.545 . S
O1650 C1663 1.250 . S
O1651 Gd1597 2.412 . S
O1651 C1664 1.252 . S
C1652 O1641 1.284 . S
C1652 O1644 1.250 . S
C1653 H1622 0.929 . S
C1653 C1638 1.437 . S
C1653 C1654 1.317 . S
C1654 H1625 0.930 . S
C1654 C1630 1.431 . S
C1654 C1653 1.317 . S
C1655 Gd1596 2.828 1_655 S
C1655 O1640 1.258 1_655 S
C1655 O1645 1.237 1_655 S
C1655 C1656 1.497 . S
C1656 C1655 1.497 . S
C1656 C1657 1.395 . S
C1656 C1658 1.380 . S
C1657 C1656 1.395 . S
C1657 C1660 1.398 . S
C1657 H1672 0.930 . S
C1658 C1656 1.380 . S
C1658 C1659 1.391 . S
C1658 H1673 0.930 . S
C1659 C1658 1.391 . S
C1659 C1661 1.387 . S
C1660 C1657 1.398 . S
C1660 C1661 1.380 . S
C1660 H1674 0.930 . S
C1661 C1659 1.387 . S
C1661 C1660 1.380 . S
C1661 H1675 0.930 . S
C1662 O1642 1.254 . S
C1662 O1643 1.268 . S
C1663 O1647 1.284 . S
C1663 O1650 1.250 . S
C1664 Gd1597 2.828 . S
C1664 O1646 1.258 . S
C1664 O1651 1.252 . S
C1664 C1665 1.497 . S
C1665 C1664 1.497 . S
C1665 C1666 1.395 1_554 S
C1665 C1667 1.380 . S
C1666 C1665 1.395 1_556 S
C1666 C1669 1.398 . S
C1666 H1676 0.930 . S
C1667 C1665 1.380 . S
C1667 C1668 1.391 . S
C1667 H1677 0.930 . S
C1668 C1667 1.391 . S
C1668 C1670 1.387 . S
C1669 C1666 1.398 . S
C1669 C1670 1.380 1_556 S
C1669 H1678 0.930 . S
C1670 C1668 1.387 . S
C1670 C1669 1.380 1_554 S
C1670 H1679 0.930 . S
C1671 O1648 1.254 . S
C1671 O1649 1.268 . S
H1672 C1657 0.930 . S
H1673 C1658 0.930 . S
H1674 C1660 0.930 . S
H1675 C1661 0.930 . S
H1676 C1666 0.930 . S
H1677 C1667 0.930 . S
H1678 C1669 0.930 . S
H1679 C1670 0.930 . S
C1680 C1681 1.349 . S
C1680 C1682 1.327 . S
C1680 H1705 0.950 . S
C1681 C1680 1.349 . S
C1681 C1697 1.349 . S
C1682 C1680 1.327 . S
C1682 C1701 1.429 . S
C1682 H1706 0.950 . S
C1683 C1700 1.574 . S
C1683 C1702 1.368 . S
C1683 H1707 0.949 . S
H1684 C1688 0.949 . S
C1685 C1686 1.349 . S
C1685 C1687 1.327 . S
C1685 H1708 0.950 . S
C1686 C1685 1.349 . S
C1686 C1698 1.349 1_554 S
C1687 C1685 1.327 . S
C1687 C1703 1.429 1_554 S
C1687 H1709 0.950 . S
C1688 H1684 0.949 . S
C1688 C1696 1.574 . S
C1688 C1704 1.368 . S
H1689 C1697 0.950 . S
H1690 C1695 0.950 . S
H1691 C1696 0.949 . S
H1692 C1698 0.950 . S
H1693 C1699 0.950 . S
H1694 C1700 0.949 1_554 S
C1695 H1690 0.950 . S
C1695 C1697 1.327 . S
C1695 C1701 1.429 . S
C1696 C1688 1.574 . S
C1696 H1691 0.949 . S
C1696 C1702 1.368 . S
C1697 C1681 1.349 . S
C1697 H1689 0.950 . S
C1697 C1695 1.327 . S
C1698 C1686 1.349 1_556 S
C1698 H1692 0.950 . S
C1698 C1699 1.327 . S
C1699 H1693 0.950 . S
C1699 C1698 1.327 . S
C1699 C1703 1.429 . S
C1700 C1683 1.574 . S
C1700 H1694 0.949 1_556 S
C1700 C1704 1.368 . S
C1701 C1682 1.429 . S
C1701 C1695 1.429 . S
C1701 C1702 1.523 . S
C1702 C1683 1.368 . S
C1702 C1696 1.368 . S
C1702 C1701 1.523 . S
C1703 C1687 1.429 1_556 S
C1703 C1699 1.429 . S
C1703 C1704 1.523 . S
C1704 C1688 1.368 . S
C1704 C1700 1.368 . S
C1704 C1703 1.523 . S
H1705 C1680 0.950 . S
H1706 C1682 0.950 . S
H1707 C1683 0.949 . S
H1708 C1685 0.950 . S
H1709 C1687 0.950 . S
C1710 C1711 1.349 . S
C1710 C1712 1.327 . S
C1710 H1735 0.950 . S
C1711 C1710 1.349 . S
C1711 C1727 1.349 . S
C1712 C1710 1.327 . S
C1712 C1731 1.429 . S
C1712 H1736 0.950 . S
C1713 C1730 1.574 . S
C1713 C1732 1.368 . S
C1713 H1737 0.949 . S
H1714 C1718 0.949 . S
C1715 C1716 1.349 . S
C1715 C1717 1.327 . S
C1715 H1738 0.950 . S
C1716 C1715 1.349 . S
C1716 C1728 1.349 . S
C1717 C1715 1.327 . S
C1717 C1733 1.429 . S
C1717 H1739 0.950 . S
C1718 H1714 0.949 . S
C1718 C1726 1.574 . S
C1718 C1734 1.368 . S
H1719 C1727 0.950 . S
H1720 C1725 0.950 . S
H1721 C1726 0.949 . S
H1722 C1728 0.950 . S
H1723 C1729 0.950 . S
H1724 C1730 0.949 . S
C1725 H1720 0.950 . S
C1725 C1727 1.327 . S
C1725 C1731 1.429 . S
C1726 C1718 1.574 . S
C1726 H1721 0.949 . S
C1726 C1732 1.368 . S
C1727 C1711 1.349 . S
C1727 H1719 0.950 . S
C1727 C1725 1.327 . S
C1728 C1716 1.349 . S
C1728 H1722 0.950 . S
C1728 C1729 1.327 . S
C1729 H1723 0.950 . S
C1729 C1728 1.327 . S
C1729 C1733 1.429 . S
C1730 C1713 1.574 . S
C1730 H1724 0.949 . S
C1730 C1734 1.368 . S
C1731 C1712 1.429 . S
C1731 C1725 1.429 . S
C1731 C1732 1.523 . S
C1732 C1713 1.368 . S
C1732 C1726 1.368 . S
C1732 C1731 1.523 . S
C1733 C1717 1.429 . S
C1733 C1729 1.429 . S
C1733 C1734 1.523 . S
C1734 C1718 1.368 . S
C1734 C1730 1.368 . S
C1734 C1733 1.523 . S
H1735 C1710 0.950 . S
H1736 C1712 0.950 . S
H1737 C1713 0.949 . S
H1738 C1715 0.950 . S
H1739 C1717 0.950 . S
C1740 C1741 1.349 . S
C1740 C1742 1.327 . S
C1740 H1765 0.950 . S
C1741 C1740 1.349 . S
C1741 C1757 1.349 . S
C1742 C1740 1.327 . S
C1742 C1761 1.429 . S
C1742 H1766 0.950 . S
C1743 C1760 1.574 . S
C1743 C1762 1.368 . S
C1743 H1767 0.949 . S
H1744 C1748 0.949 . S
C1745 C1746 1.349 . S
C1745 C1747 1.327 . S
C1745 H1768 0.950 . S
C1746 C1745 1.349 . S
C1746 C1758 1.349 . S
C1747 C1745 1.327 . S
C1747 C1763 1.429 . S
C1747 H1769 0.950 . S
C1748 H1744 0.949 . S
C1748 C1756 1.574 . S
C1748 C1764 1.368 . S
H1749 C1757 0.950 . S
H1750 C1755 0.950 . S
H1751 C1756 0.949 . S
H1752 C1758 0.950 . S
H1753 C1759 0.950 . S
H1754 C1760 0.949 . S
C1755 H1750 0.950 . S
C1755 C1757 1.327 . S
C1755 C1761 1.429 . S
C1756 C1748 1.574 . S
C1756 H1751 0.949 . S
C1756 C1762 1.368 . S
C1757 C1741 1.349 . S
C1757 H1749 0.950 . S
C1757 C1755 1.327 . S
C1758 C1746 1.349 . S
C1758 H1752 0.950 . S
C1758 C1759 1.327 . S
C1759 H1753 0.950 . S
C1759 C1758 1.327 . S
C1759 C1763 1.429 . S
C1760 C1743 1.574 . S
C1760 H1754 0.949 . S
C1760 C1764 1.368 . S
C1761 C1742 1.429 . S
C1761 C1755 1.429 . S
C1761 C1762 1.523 . S
C1762 C1743 1.368 . S
C1762 C1756 1.368 . S
C1762 C1761 1.523 . S
C1763 C1747 1.429 . S
C1763 C1759 1.429 . S
C1763 C1764 1.523 . S
C1764 C1748 1.368 . S
C1764 C1760 1.368 . S
C1764 C1763 1.523 . S
H1765 C1740 0.950 . S
H1766 C1742 0.950 . S
H1767 C1743 0.949 . S
H1768 C1745 0.950 . S
H1769 C1747 0.950 . S
C1770 C1771 1.349 . S
C1770 C1772 1.327 . S
C1770 H1795 0.950 . S
C1771 C1770 1.349 . S
C1771 C1787 1.349 . S
C1772 C1770 1.327 . S
C1772 C1791 1.429 . S
C1772 H1796 0.950 . S
C1773 C1790 1.574 . S
C1773 C1792 1.368 . S
C1773 H1797 0.949 . S
H1774 C1778 0.949 . S
C1775 C1776 1.349 . S
C1775 C1777 1.327 . S
C1775 H1798 0.950 . S
C1776 C1775 1.349 . S
C1776 C1788 1.349 . S
C1777 C1775 1.327 . S
C1777 C1793 1.429 . S
C1777 H1799 0.950 . S
C1778 H1774 0.949 . S
C1778 C1786 1.574 . S
C1778 C1794 1.368 . S
H1779 C1787 0.950 . S
H1780 C1785 0.950 . S
H1781 C1786 0.949 . S
H1782 C1788 0.950 . S
H1783 C1789 0.950 . S
H1784 C1790 0.949 . S
C1785 H1780 0.950 . S
C1785 C1787 1.327 . S
C1785 C1791 1.429 . S
C1786 C1778 1.574 . S
C1786 H1781 0.949 . S
C1786 C1792 1.368 . S
C1787 C1771 1.349 . S
C1787 H1779 0.950 . S
C1787 C1785 1.327 . S
C1788 C1776 1.349 . S
C1788 H1782 0.950 . S
C1788 C1789 1.327 . S
C1789 H1783 0.950 . S
C1789 C1788 1.327 . S
C1789 C1793 1.429 . S
C1790 C1773 1.574 . S
C1790 H1784 0.949 . S
C1790 C1794 1.368 . S
C1791 C1772 1.429 . S
C1791 C1785 1.429 . S
C1791 C1792 1.523 . S
C1792 C1773 1.368 . S
C1792 C1786 1.368 . S
C1792 C1791 1.523 . S
C1793 C1777 1.429 . S
C1793 C1789 1.429 . S
C1793 C1794 1.523 . S
C1794 C1778 1.368 . S
C1794 C1790 1.368 . S
C1794 C1793 1.523 . S
H1795 C1770 0.950 . S
H1796 C1772 0.950 . S
H1797 C1773 0.949 . S
H1798 C1775 0.950 . S
H1799 C1777 0.950 . S
C1800 C1801 1.349 . S
C1800 C1802 1.327 . S
C1800 H1825 0.950 1_455 S
C1801 C1800 1.349 . S
C1801 C1817 1.349 . S
C1802 C1800 1.327 . S
C1802 C1821 1.429 . S
C1802 H1826 0.945 1_455 S
C1803 C1820 1.574 . S
C1803 C1822 1.368 . S
C1803 H1827 0.949 . S
H1804 C1808 0.949 . S
C1805 C1806 1.349 . S
C1805 C1807 1.327 . S
C1805 H1828 0.950 . S
C1806 C1805 1.349 . S
C1806 C1818 1.349 . S
C1807 C1805 1.327 . S
C1807 C1823 1.429 . S
C1807 H1829 0.950 . S
C1808 H1804 0.949 . S
C1808 C1816 1.574 . S
C1808 C1824 1.368 . S
H1809 C1817 0.950 . S
H1810 C1815 0.950 . S
H1811 C1816 0.949 . S
H1812 C1818 0.950 . S
H1813 C1819 0.950 . S
H1814 C1820 0.949 . S
C1815 H1810 0.950 . S
C1815 C1817 1.327 . S
C1815 C1821 1.429 . S
C1816 C1808 1.574 . S
C1816 H1811 0.949 . S
C1816 C1822 1.368 . S
C1817 C1801 1.349 . S
C1817 H1809 0.950 . S
C1817 C1815 1.327 . S
C1818 C1806 1.349 . S
C1818 H1812 0.950 . S
C1818 C1819 1.327 . S
C1819 H1813 0.950 . S
C1819 C1818 1.327 . S
C1819 C1823 1.429 . S
C1820 C1803 1.574 . S
C1820 H1814 0.949 . S
C1820 C1824 1.368 . S
C1821 C1802 1.429 . S
C1821 C1815 1.429 . S
C1821 C1822 1.523 . S
C1822 C1803 1.368 . S
C1822 C1816 1.368 . S
C1822 C1821 1.523 . S
C1823 C1807 1.429 . S
C1823 C1819 1.429 . S
C1823 C1824 1.523 . S
C1824 C1808 1.368 . S
C1824 C1820 1.368 . S
C1824 C1823 1.523 . S
H1825 C1800 0.950 1_655 S
H1826 C1802 0.945 1_655 S
H1827 C1803 0.949 . S
H1828 C1805 0.950 . S
H1829 C1807 0.950 . S
C1830 C1831 1.349 . S
C1830 C1832 1.327 . S
C1830 H1855 0.950 . S
C1831 C1830 1.349 . S
C1831 C1847 1.349 . S
C1832 C1830 1.327 . S
C1832 C1851 1.429 . S
C1832 H1856 0.950 . S
C1833 C1850 1.574 . S
C1833 C1852 1.368 . S
C1833 H1857 0.949 . S
H1834 C1838 0.949 . S
C1835 C1836 1.349 . S
C1835 C1837 1.327 . S
C1835 H1858 0.950 . S
C1836 C1835 1.349 . S
C1836 C1848 1.349 . S
C1837 C1835 1.327 . S
C1837 C1853 1.429 . S
C1837 H1859 0.950 . S
C1838 H1834 0.949 . S
C1838 C1846 1.574 . S
C1838 C1854 1.368 . S
H1839 C1847 0.950 . S
H1840 C1845 0.950 . S
H1841 C1846 0.949 . S
H1842 C1848 0.950 . S
H1843 C1849 0.950 . S
H1844 C1850 0.949 . S
C1845 H1840 0.950 . S
C1845 C1847 1.327 . S
C1845 C1851 1.429 . S
C1846 C1838 1.574 . S
C1846 H1841 0.949 . S
C1846 C1852 1.368 . S
C1847 C1831 1.349 . S
C1847 H1839 0.950 . S
C1847 C1845 1.327 . S
C1848 C1836 1.349 . S
C1848 H1842 0.950 . S
C1848 C1849 1.327 . S
C1849 H1843 0.950 . S
C1849 C1848 1.327 . S
C1849 C1853 1.429 . S
C1850 C1833 1.574 . S
C1850 H1844 0.949 . S
C1850 C1854 1.368 . S
C1851 C1832 1.429 . S
C1851 C1845 1.429 . S
C1851 C1852 1.523 . S
C1852 C1833 1.368 . S
C1852 C1846 1.368 . S
C1852 C1851 1.523 . S
C1853 C1837 1.429 . S
C1853 C1849 1.429 . S
C1853 C1854 1.523 . S
C1854 C1838 1.368 . S
C1854 C1850 1.368 . S
C1854 C1853 1.523 . S
H1855 C1830 0.950 . S
H1856 C1832 0.950 . S
H1857 C1833 0.949 . S
H1858 C1835 0.950 . S
H1859 C1837 0.950 . S
C1860 C1861 1.349 . S
C1860 C1862 1.327 . S
C1860 H1885 0.950 . S
C1861 C1860 1.349 . S
C1861 C1877 1.349 . S
C1862 C1860 1.327 . S
C1862 C1881 1.429 . S
C1862 H1886 0.950 . S
C1863 C1880 1.574 . S
C1863 C1882 1.368 . S
C1863 H1887 0.949 . S
H1864 C1868 0.949 . S
C1865 C1866 1.349 . S
C1865 C1867 1.327 . S
C1865 H1888 0.950 . S
C1866 C1865 1.349 . S
C1866 C1878 1.349 . S
C1867 C1865 1.327 . S
C1867 C1883 1.429 . S
C1867 H1889 0.950 . S
C1868 H1864 0.949 . S
C1868 C1876 1.574 . S
C1868 C1884 1.368 . S
H1869 C1877 0.950 . S
H1870 C1875 0.950 . S
H1871 C1876 0.949 . S
H1872 C1878 0.950 . S
H1873 C1879 0.950 . S
H1874 C1880 0.949 . S
C1875 H1870 0.950 . S
C1875 C1877 1.327 . S
C1875 C1881 1.429 . S
C1876 C1868 1.574 . S
C1876 H1871 0.949 . S
C1876 C1882 1.368 . S
C1877 C1861 1.349 . S
C1877 H1869 0.950 . S
C1877 C1875 1.327 . S
C1878 C1866 1.349 . S
C1878 H1872 0.950 . S
C1878 C1879 1.327 . S
C1879 H1873 0.950 . S
C1879 C1878 1.327 . S
C1879 C1883 1.429 . S
C1880 C1863 1.574 . S
C1880 H1874 0.949 . S
C1880 C1884 1.368 . S
C1881 C1862 1.429 . S
C1881 C1875 1.429 . S
C1881 C1882 1.523 . S
C1882 C1863 1.368 . S
C1882 C1876 1.368 . S
C1882 C1881 1.523 . S
C1883 C1867 1.429 . S
C1883 C1879 1.429 . S
C1883 C1884 1.523 . S
C1884 C1868 1.368 . S
C1884 C1880 1.368 . S
C1884 C1883 1.523 . S
H1885 C1860 0.950 . S
H1886 C1862 0.950 . S
H1887 C1863 0.949 . S
H1888 C1865 0.950 . S
H1889 C1867 0.950 . S
C1890 C1891 1.349 . S
C1890 C1892 1.327 . S
C1890 H1915 0.950 . S
C1891 C1890 1.349 . S
C1891 C1907 1.349 . S
C1892 C1890 1.327 . S
C1892 C1911 1.429 . S
C1892 H1916 0.950 . S
C1893 C1910 1.574 . S
C1893 C1912 1.368 . S
C1893 H1917 0.949 . S
H1894 C1898 0.949 . S
C1895 C1896 1.349 . S
C1895 C1897 1.327 . S
C1895 H1918 0.950 . S
C1896 C1895 1.349 . S
C1896 C1908 1.349 . S
C1897 C1895 1.327 . S
C1897 C1913 1.429 . S
C1897 H1919 0.950 . S
C1898 H1894 0.949 . S
C1898 C1906 1.574 . S
C1898 C1914 1.368 . S
H1899 C1907 0.950 . S
H1900 C1905 0.950 . S
H1901 C1906 0.949 . S
H1902 C1908 0.950 . S
H1903 C1909 0.950 . S
H1904 C1910 0.949 . S
C1905 H1900 0.950 . S
C1905 C1907 1.327 . S
C1905 C1911 1.429 . S
C1906 C1898 1.574 . S
C1906 H1901 0.949 . S
C1906 C1912 1.368 . S
C1907 C1891 1.349 . S
C1907 H1899 0.950 . S
C1907 C1905 1.327 . S
C1908 C1896 1.349 . S
C1908 H1902 0.950 . S
C1908 C1909 1.327 . S
C1909 H1903 0.950 . S
C1909 C1908 1.327 . S
C1909 C1913 1.429 . S
C1910 C1893 1.574 . S
C1910 H1904 0.949 . S
C1910 C1914 1.368 . S
C1911 C1892 1.429 . S
C1911 C1905 1.429 . S
C1911 C1912 1.523 . S
C1912 C1893 1.368 . S
C1912 C1906 1.368 . S
C1912 C1911 1.523 . S
C1913 C1897 1.429 . S
C1913 C1909 1.429 . S
C1913 C1914 1.523 . S
C1914 C1898 1.368 . S
C1914 C1910 1.368 . S
C1914 C1913 1.523 . S
H1915 C1890 0.950 . S
H1916 C1892 0.950 . S
H1917 C1893 0.949 . S
H1918 C1895 0.950 . S
H1919 C1897 0.950 . S
C1920 C1921 1.349 . S
C1920 C1922 1.327 . S
C1920 H1945 0.950 . S
C1921 C1920 1.349 . S
C1921 C1937 1.349 . S
C1922 C1920 1.327 . S
C1922 C1941 1.429 . S
C1922 H1946 0.950 . S
C1923 C1940 1.574 . S
C1923 C1942 1.368 1_455 S
C1923 H1947 0.949 . S
H1924 C1928 0.949 . S
C1925 C1926 1.349 . S
C1925 C1927 1.327 . S
C1925 H1948 0.950 . S
C1926 C1925 1.349 . S
C1926 C1938 1.349 . S
C1927 C1925 1.327 . S
C1927 C1943 1.429 . S
C1927 H1949 0.950 . S
C1928 H1924 0.949 . S
C1928 C1936 1.574 . S
C1928 C1944 1.368 1_655 S
H1929 C1937 0.950 . S
H1930 C1935 0.950 . S
H1931 C1936 0.949 . S
H1932 C1938 0.950 . S
H1933 C1939 0.956 . S
H1934 C1940 0.949 . S
C1935 H1930 0.950 . S
C1935 C1937 1.327 . S
C1935 C1941 1.429 . S
C1936 C1928 1.574 . S
C1936 H1931 0.949 . S
C1936 C1942 1.368 . S
C1937 C1921 1.349 . S
C1937 H1929 0.950 . S
C1937 C1935 1.327 . S
C1938 C1926 1.349 . S
C1938 H1932 0.950 . S
C1938 C1939 1.327 . S
C1939 H1933 0.956 . S
C1939 C1938 1.327 . S
C1939 C1943 1.429 . S
C1940 C1923 1.574 . S
C1940 H1934 0.949 . S
C1940 C1944 1.368 . S
C1941 C1922 1.429 . S
C1941 C1935 1.429 . S
C1941 C1942 1.523 . S
C1942 C1923 1.368 1_655 S
C1942 C1936 1.368 . S
C1942 C1941 1.523 . S
C1943 C1927 1.429 . S
C1943 C1939 1.429 . S
C1943 C1944 1.523 . S
C1944 C1928 1.368 1_455 S
C1944 C1940 1.368 . S
C1944 C1943 1.523 . S
H1945 C1920 0.950 . S
H1946 C1922 0.950 . S
H1947 C1923 0.949 . S
H1948 C1925 0.950 . S
H1949 C1927 0.950 . S
C1950 C1951 1.349 . S
C1950 C1952 1.327 . S
C1950 H1975 0.950 . S
C1951 C1950 1.349 . S
C1951 C1967 1.349 . S
C1952 C1950 1.327 . S
C1952 C1971 1.429 . S
C1952 H1976 0.950 . S
C1953 C1970 1.574 . S
C1953 C1972 1.368 . S
C1953 H1977 0.949 . S
H1954 C1958 0.949 . S
C1955 C1956 1.349 . S
C1955 C1957 1.327 . S
C1955 H1978 0.950 . S
C1956 C1955 1.349 . S
C1956 C1968 1.349 . S
C1957 C1955 1.327 . S
C1957 C1973 1.429 . S
C1957 H1979 0.950 . S
C1958 H1954 0.949 . S
C1958 C1966 1.574 . S
C1958 C1974 1.368 . S
H1959 C1967 0.950 . S
H1960 C1965 0.950 . S
H1961 C1966 0.949 . S
H1962 C1968 0.950 . S
H1963 C1969 0.950 . S
H1964 C1970 0.949 . S
C1965 H1960 0.950 . S
C1965 C1967 1.327 . S
C1965 C1971 1.429 . S
C1966 C1958 1.574 . S
C1966 H1961 0.949 . S
C1966 C1972 1.368 . S
C1967 C1951 1.349 . S
C1967 H1959 0.950 . S
C1967 C1965 1.327 . S
C1968 C1956 1.349 . S
C1968 H1962 0.950 . S
C1968 C1969 1.327 . S
C1969 H1963 0.950 . S
C1969 C1968 1.327 . S
C1969 C1973 1.429 . S
C1970 C1953 1.574 . S
C1970 H1964 0.949 . S
C1970 C1974 1.368 . S
C1971 C1952 1.429 . S
C1971 C1965 1.429 . S
C1971 C1972 1.523 . S
C1972 C1953 1.368 . S
C1972 C1966 1.368 . S
C1972 C1971 1.523 . S
C1973 C1957 1.429 . S
C1973 C1969 1.429 . S
C1973 C1974 1.523 . S
C1974 C1958 1.368 . S
C1974 C1970 1.368 . S
C1974 C1973 1.523 . S
H1975 C1950 0.950 . S
H1976 C1952 0.950 . S
H1977 C1953 0.949 . S
H1978 C1955 0.950 . S
H1979 C1957 0.950 . S
C1980 C1981 1.349 . S
C1980 C1982 1.327 . S
C1980 H2005 0.950 . S
C1981 C1980 1.349 . S
C1981 C1997 1.349 . S
C1982 C1980 1.327 . S
C1982 C2001 1.429 . S
C1982 H2006 0.950 . S
C1983 C2000 1.574 . S
C1983 C2002 1.368 . S
C1983 H2007 0.949 . S
H1984 C1988 0.949 . S
C1985 C1986 1.349 . S
C1985 C1987 1.327 . S
C1985 H2008 0.950 . S
C1986 C1985 1.349 . S
C1986 C1998 1.349 . S
C1987 C1985 1.327 . S
C1987 C2003 1.429 . S
C1987 H2009 0.950 . S
C1988 H1984 0.949 . S
C1988 C1996 1.574 . S
C1988 C2004 1.368 . S
H1989 C1997 0.950 . S
H1990 C1995 0.950 . S
H1991 C1996 0.949 . S
H1992 C1998 0.950 . S
H1993 C1999 0.950 . S
H1994 C2000 0.949 . S
C1995 H1990 0.950 . S
C1995 C1997 1.327 . S
C1995 C2001 1.429 . S
C1996 C1988 1.574 . S
C1996 H1991 0.949 . S
C1996 C2002 1.368 . S
C1997 C1981 1.349 . S
C1997 H1989 0.950 . S
C1997 C1995 1.327 . S
C1998 C1986 1.349 . S
C1998 H1992 0.950 . S
C1998 C1999 1.327 . S
C1999 H1993 0.950 . S
C1999 C1998 1.327 . S
C1999 C2003 1.429 . S
C2000 C1983 1.574 . S
C2000 H1994 0.949 . S
C2000 C2004 1.368 . S
C2001 C1982 1.429 . S
C2001 C1995 1.429 . S
C2001 C2002 1.523 . S
C2002 C1983 1.368 . S
C2002 C1996 1.368 . S
C2002 C2001 1.523 . S
C2003 C1987 1.429 . S
C2003 C1999 1.429 . S
C2003 C2004 1.523 . S
C2004 C1988 1.368 . S
C2004 C2000 1.368 . S
C2004 C2003 1.523 . S
H2005 C1980 0.950 . S
H2006 C1982 0.950 . S
H2007 C1983 0.949 . S
H2008 C1985 0.950 . S
H2009 C1987 0.950 . S
C2010 C2011 1.349 . S
C2010 C2012 1.327 . S
C2010 H2035 0.950 . S
C2011 C2010 1.349 . S
C2011 C2027 1.349 . S
C2012 C2010 1.327 . S
C2012 C2031 1.429 . S
C2012 H2036 0.950 . S
C2013 C2030 1.574 . S
C2013 C2032 1.368 . S
C2013 H2037 0.949 . S
H2014 C2018 0.949 . S
C2015 C2016 1.349 . S
C2015 C2017 1.327 . S
C2015 H2038 0.950 . S
C2016 C2015 1.349 . S
C2016 C2028 1.349 . S
C2017 C2015 1.327 . S
C2017 C2033 1.429 . S
C2017 H2039 0.950 . S
C2018 H2014 0.949 . S
C2018 C2026 1.574 . S
C2018 C2034 1.368 . S
H2019 C2027 0.950 . S
H2020 C2025 0.950 . S
H2021 C2026 0.949 . S
H2022 C2028 0.950 . S
H2023 C2029 0.950 . S
H2024 C2030 0.949 . S
C2025 H2020 0.950 . S
C2025 C2027 1.327 . S
C2025 C2031 1.429 . S
C2026 C2018 1.574 . S
C2026 H2021 0.949 . S
C2026 C2032 1.368 . S
C2027 C2011 1.349 . S
C2027 H2019 0.950 . S
C2027 C2025 1.327 . S
C2028 C2016 1.349 . S
C2028 H2022 0.950 . S
C2028 C2029 1.327 . S
C2029 H2023 0.950 . S
C2029 C2028 1.327 . S
C2029 C2033 1.429 . S
C2030 C2013 1.574 . S
C2030 H2024 0.949 . S
C2030 C2034 1.368 . S
C2031 C2012 1.429 . S
C2031 C2025 1.429 . S
C2031 C2032 1.523 . S
C2032 C2013 1.368 . S
C2032 C2026 1.368 . S
C2032 C2031 1.523 . S
C2033 C2017 1.429 . S
C2033 C2029 1.429 . S
C2033 C2034 1.523 . S
C2034 C2018 1.368 . S
C2034 C2030 1.368 . S
C2034 C2033 1.523 . S
H2035 C2010 0.950 . S
H2036 C2012 0.950 . S
H2037 C2013 0.949 . S
H2038 C2015 0.950 . S
H2039 C2017 0.950 . S
C2040 C2041 1.349 . S
C2040 C2042 1.327 . S
C2040 H2065 0.950 . S
C2041 C2040 1.349 . S
C2041 C2057 1.349 . S
C2042 C2040 1.327 . S
C2042 C2061 1.429 . S
C2042 H2066 0.950 . S
C2043 C2060 1.574 . S
C2043 C2062 1.365 . S
C2043 H2067 0.949 . S
H2044 C2048 0.949 . S
C2045 C2046 1.349 . S
C2045 C2047 1.327 . S
C2045 H2068 0.950 . S
C2046 C2045 1.349 . S
C2046 C2058 1.349 . S
C2047 C2045 1.327 . S
C2047 C2063 1.429 . S
C2047 H2069 0.950 . S
C2048 H2044 0.949 . S
C2048 C2056 1.574 . S
C2048 C2064 1.368 . S
H2049 C2057 0.950 . S
H2050 C2055 0.950 . S
H2051 C2056 0.949 1_655 S
H2052 C2058 0.950 . S
H2053 C2059 0.950 . S
H2054 C2060 0.949 . S
C2055 H2050 0.950 . S
C2055 C2057 1.327 . S
C2055 C2061 1.429 . S
C2056 C2048 1.574 . S
C2056 H2051 0.949 1_455 S
C2056 C2062 1.369 . S
C2057 C2041 1.349 . S
C2057 H2049 0.950 . S
C2057 C2055 1.327 . S
C2058 C2046 1.349 . S
C2058 H2052 0.950 . S
C2058 C2059 1.327 . S
C2059 H2053 0.950 . S
C2059 C2058 1.327 . S
C2059 C2063 1.429 . S
C2060 C2043 1.574 . S
C2060 H2054 0.949 . S
C2060 C2064 1.368 . S
C2061 C2042 1.429 . S
C2061 C2055 1.429 . S
C2061 C2062 1.526 1_655 S
C2062 C2043 1.365 . S
C2062 C2056 1.369 . S
C2062 C2061 1.526 1_455 S
C2063 C2047 1.429 . S
C2063 C2059 1.429 . S
C2063 C2064 1.523 . S
C2064 C2048 1.368 . S
C2064 C2060 1.368 . S
C2064 C2063 1.523 . S
H2065 C2040 0.950 . S
H2066 C2042 0.950 . S
H2067 C2043 0.949 . S
H2068 C2045 0.950 . S
H2069 C2047 0.950 . S
C2070 C2071 1.349 . S
C2070 C2072 1.327 . S
C2070 H2095 0.950 . S
C2071 C2070 1.349 . S
C2071 C2087 1.349 . S
C2072 C2070 1.327 . S
C2072 C2091 1.429 . S
C2072 H2096 0.950 . S
C2073 C2090 1.574 . S
C2073 C2092 1.368 . S
C2073 H2097 0.949 . S
H2074 C2078 0.949 . S
C2075 C2076 1.349 . S
C2075 C2077 1.327 . S
C2075 H2098 0.950 . S
C2076 C2075 1.349 . S
C2076 C2088 1.349 . S
C2077 C2075 1.327 . S
C2077 C2093 1.429 . S
C2077 H2099 0.950 . S
C2078 H2074 0.949 . S
C2078 C2086 1.574 . S
C2078 C2094 1.368 . S
H2079 C2087 0.950 . S
H2080 C2085 0.950 . S
H2081 C2086 0.949 . S
H2082 C2088 0.950 . S
H2083 C2089 0.950 . S
H2084 C2090 0.949 . S
C2085 H2080 0.950 . S
C2085 C2087 1.327 . S
C2085 C2091 1.429 . S
C2086 C2078 1.574 . S
C2086 H2081 0.949 . S
C2086 C2092 1.368 . S
C2087 C2071 1.349 . S
C2087 H2079 0.950 . S
C2087 C2085 1.327 . S
C2088 C2076 1.349 . S
C2088 H2082 0.950 . S
C2088 C2089 1.327 . S
C2089 H2083 0.950 . S
C2089 C2088 1.327 . S
C2089 C2093 1.429 . S
C2090 C2073 1.574 . S
C2090 H2084 0.949 . S
C2090 C2094 1.368 . S
C2091 C2072 1.429 . S
C2091 C2085 1.429 . S
C2091 C2092 1.523 . S
C2092 C2073 1.368 . S
C2092 C2086 1.368 . S
C2092 C2091 1.523 . S
C2093 C2077 1.429 . S
C2093 C2089 1.429 . S
C2093 C2094 1.523 . S
C2094 C2078 1.368 . S
C2094 C2090 1.368 . S
C2094 C2093 1.523 . S
H2095 C2070 0.950 . S
H2096 C2072 0.950 . S
H2097 C2073 0.949 . S
H2098 C2075 0.950 . S
H2099 C2077 0.950 . S
C2100 C2101 1.349 . S
C2100 C2102 1.327 . S
C2100 H2125 0.950 . S
C2101 C2100 1.349 . S
C2101 C2117 1.349 . S
C2102 C2100 1.327 . S
C2102 C2121 1.429 . S
C2102 H2126 0.950 . S
C2103 C2120 1.574 . S
C2103 C2122 1.368 . S
C2103 H2127 0.949 . S
H2104 C2108 0.949 . S
C2105 C2106 1.349 . S
C2105 C2107 1.327 . S
C2105 H2128 0.950 . S
C2106 C2105 1.349 . S
C2106 C2118 1.349 . S
C2107 C2105 1.327 . S
C2107 C2123 1.429 . S
C2107 H2129 0.950 . S
C2108 H2104 0.949 . S
C2108 C2116 1.574 . S
C2108 C2124 1.368 . S
H2109 C2117 0.950 . S
H2110 C2115 0.950 . S
H2111 C2116 0.949 . S
H2112 C2118 0.950 . S
H2113 C2119 0.950 . S
H2114 C2120 0.949 . S
C2115 H2110 0.950 . S
C2115 C2117 1.327 . S
C2115 C2121 1.429 . S
C2116 C2108 1.574 . S
C2116 H2111 0.949 . S
C2116 C2122 1.368 . S
C2117 C2101 1.349 . S
C2117 H2109 0.950 . S
C2117 C2115 1.327 . S
C2118 C2106 1.349 . S
C2118 H2112 0.950 . S
C2118 C2119 1.327 . S
C2119 H2113 0.950 . S
C2119 C2118 1.327 . S
C2119 C2123 1.429 . S
C2120 C2103 1.574 . S
C2120 H2114 0.949 . S
C2120 C2124 1.368 . S
C2121 C2102 1.429 . S
C2121 C2115 1.429 . S
C2121 C2122 1.523 . S
C2122 C2103 1.368 . S
C2122 C2116 1.368 . S
C2122 C2121 1.523 . S
C2123 C2107 1.429 . S
C2123 C2119 1.429 . S
C2123 C2124 1.523 . S
C2124 C2108 1.368 . S
C2124 C2120 1.368 . S
C2124 C2123 1.523 . S
H2125 C2100 0.950 . S
H2126 C2102 0.950 . S
H2127 C2103 0.949 . S
H2128 C2105 0.950 . S
H2129 C2107 0.950 . S
C2130 C2131 1.349 . S
C2130 C2132 1.327 . S
C2130 H2155 0.950 . S
C2131 C2130 1.349 . S
C2131 C2147 1.349 . S
C2132 C2130 1.327 . S
C2132 C2151 1.429 . S
C2132 H2156 0.950 . S
C2133 C2150 1.574 . S
C2133 C2152 1.368 . S
C2133 H2157 0.949 . S
H2134 C2138 0.949 . S
C2135 C2136 1.349 . S
C2135 C2137 1.327 . S
C2135 H2158 0.950 . S
C2136 C2135 1.349 . S
C2136 C2148 1.349 . S
C2137 C2135 1.327 . S
C2137 C2153 1.429 . S
C2137 H2159 0.950 . S
C2138 H2134 0.949 . S
C2138 C2146 1.574 . S
C2138 C2154 1.368 . S
H2139 C2147 0.950 . S
H2140 C2145 0.950 . S
H2141 C2146 0.949 . S
H2142 C2148 0.950 . S
H2143 C2149 0.950 . S
H2144 C2150 0.949 . S
C2145 H2140 0.950 . S
C2145 C2147 1.327 . S
C2145 C2151 1.429 . S
C2146 C2138 1.574 . S
C2146 H2141 0.949 . S
C2146 C2152 1.368 . S
C2147 C2131 1.349 . S
C2147 H2139 0.950 . S
C2147 C2145 1.327 . S
C2148 C2136 1.349 . S
C2148 H2142 0.950 . S
C2148 C2149 1.327 . S
C2149 H2143 0.950 . S
C2149 C2148 1.327 . S
C2149 C2153 1.429 . S
C2150 C2133 1.574 . S
C2150 H2144 0.949 . S
C2150 C2154 1.368 . S
C2151 C2132 1.429 . S
C2151 C2145 1.429 . S
C2151 C2152 1.523 . S
C2152 C2133 1.368 . S
C2152 C2146 1.368 . S
C2152 C2151 1.523 . S
C2153 C2137 1.429 . S
C2153 C2149 1.429 . S
C2153 C2154 1.523 . S
C2154 C2138 1.368 . S
C2154 C2150 1.368 . S
C2154 C2153 1.523 . S
H2155 C2130 0.950 . S
H2156 C2132 0.950 . S
H2157 C2133 0.949 . S
H2158 C2135 0.950 . S
H2159 C2137 0.950 . S
C2160 C2161 1.319 1_556 S
C2160 C2162 1.326 1_556 S
C2160 H2185 0.983 . S
C2161 C2160 1.319 1_554 S
C2161 C2177 1.349 . S
C2162 C2160 1.326 1_554 S
C2162 C2181 1.479 . S
C2162 H2186 0.903 1_554 S
C2163 C2180 1.574 . S
C2163 C2182 1.368 . S
C2163 H2187 0.949 . S
H2164 C2168 0.949 1_556 S
C2165 C2166 1.349 . S
C2165 C2167 1.327 . S
C2165 H2188 0.950 . S
C2166 C2165 1.349 . S
C2166 C2178 1.349 . S
C2167 C2165 1.327 . S
C2167 C2183 1.429 . S
C2167 H2189 0.950 . S
C2168 H2164 0.949 1_554 S
C2168 C2176 1.574 . S
C2168 C2184 1.368 . S
H2169 C2177 0.950 . S
H2170 C2175 0.950 . S
H2171 C2176 0.949 1_556 S
H2172 C2178 0.950 . S
H2173 C2179 0.943 1_566 S
H2174 C2180 0.949 1_545 S
C2175 H2170 0.950 . S
C2175 C2177 1.327 . S
C2175 C2181 1.429 . S
C2176 C2168 1.574 . S
C2176 H2171 0.949 1_554 S
C2176 C2182 1.368 . S
C2177 C2161 1.349 . S
C2177 H2169 0.950 . S
C2177 C2175 1.327 . S
C2178 C2166 1.349 . S
C2178 H2172 0.950 . S
C2178 C2179 1.327 . S
C2179 H2173 0.943 1_544 S
C2179 C2178 1.327 . S
C2179 C2183 1.429 . S
C2180 C2163 1.574 . S
C2180 H2174 0.949 1_565 S
C2180 C2184 1.368 . S
C2181 C2162 1.479 . S
C2181 C2175 1.429 . S
C2181 C2182 1.523 . S
C2182 C2163 1.368 . S
C2182 C2176 1.368 . S
C2182 C2181 1.523 . S
C2183 C2167 1.429 . S
C2183 C2179 1.429 . S
C2183 C2184 1.523 1_545 S
C2184 C2168 1.368 . S
C2184 C2180 1.368 . S
C2184 C2183 1.523 1_565 S
H2185 C2160 0.983 . S
H2186 C2162 0.903 1_556 S
H2187 C2163 0.949 . S
H2188 C2165 0.950 . S
H2189 C2167 0.950 . S
C2190 C2191 1.328 1_556 S
C2190 C2192 1.327 . S
C2190 H2215 0.950 . S
C2191 C2190 1.328 1_554 S
C2191 C2207 1.380 . S
C2192 C2190 1.327 . S
C2192 C2211 1.429 1_556 S
C2192 H2216 0.950 . S
C2193 C2210 1.574 . S
C2193 C2212 1.368 . S
C2193 H2217 0.949 . S
H2194 C2198 0.949 . S
C2195 C2196 1.349 . S
C2195 C2197 1.327 . S
C2195 H2218 0.950 . S
C2196 C2195 1.349 . S
C2196 C2208 1.349 1_554 S
C2197 C2195 1.327 . S
C2197 C2213 1.429 . S
C2197 H2219 0.950 . S
C2198 H2194 0.949 . S
C2198 C2206 1.574 . S
C2198 C2214 1.368 1_556 S
H2199 C2207 0.950 . S
H2200 C2205 0.950 . S
H2201 C2206 0.949 . S
H2202 C2208 0.950 . S
H2203 C2209 0.950 . S
H2204 C2210 0.949 . S
C2205 H2200 0.950 . S
C2205 C2207 1.327 . S
C2205 C2211 1.429 . S
C2206 C2198 1.574 . S
C2206 H2201 0.949 . S
C2206 C2212 1.368 1_556 S
C2207 C2191 1.380 . S
C2207 H2199 0.950 . S
C2207 C2205 1.327 . S
C2208 C2196 1.349 1_556 S
C2208 H2202 0.950 . S
C2208 C2209 1.327 . S
C2209 H2203 0.950 . S
C2209 C2208 1.327 . S
C2209 C2213 1.429 1_556 S
C2210 C2193 1.574 . S
C2210 H2204 0.949 . S
C2210 C2214 1.368 . S
C2211 C2192 1.429 1_554 S
C2211 C2205 1.429 . S
C2211 C2212 1.523 . S
C2212 C2193 1.368 . S
C2212 C2206 1.368 1_554 S
C2212 C2211 1.523 . S
C2213 C2197 1.429 . S
C2213 C2209 1.429 1_554 S
C2213 C2214 1.523 . S
C2214 C2198 1.368 1_554 S
C2214 C2210 1.368 . S
C2214 C2213 1.523 . S
H2215 C2190 0.950 . S
H2216 C2192 0.950 . S
H2217 C2193 0.949 . S
H2218 C2195 0.950 . S
H2219 C2197 0.950 . S
C2220 C2221 1.349 . S
C2220 C2222 1.327 . S
C2220 H2245 0.950 . S
C2221 C2220 1.349 . S
C2221 C2237 1.349 . S
C2222 C2220 1.327 . S
C2222 C2241 1.429 . S
C2222 H2246 0.950 . S
C2223 C2240 1.574 . S
C2223 C2242 1.368 . S
C2223 H2247 0.949 . S
H2224 C2228 0.949 . S
C2225 C2226 1.349 . S
C2225 C2227 1.327 . S
C2225 H2248 0.950 . S
C2226 C2225 1.349 . S
C2226 C2238 1.349 . S
C2227 C2225 1.327 . S
C2227 C2243 1.429 . S
C2227 H2249 0.950 . S
C2228 H2224 0.949 . S
C2228 C2236 1.574 . S
C2228 C2244 1.368 . S
H2229 C2237 0.950 . S
H2230 C2235 0.950 . S
H2231 C2236 0.949 . S
H2232 C2238 0.950 . S
H2233 C2239 0.950 . S
H2234 C2240 0.949 . S
C2235 H2230 0.950 . S
C2235 C2237 1.327 . S
C2235 C2241 1.429 . S
C2236 C2228 1.574 . S
C2236 H2231 0.949 . S
C2236 C2242 1.368 . S
C2237 C2221 1.349 . S
C2237 H2229 0.950 . S
C2237 C2235 1.327 . S
C2238 C2226 1.349 . S
C2238 H2232 0.950 . S
C2238 C2239 1.327 . S
C2239 H2233 0.950 . S
C2239 C2238 1.327 . S
C2239 C2243 1.429 . S
C2240 C2223 1.574 . S
C2240 H2234 0.949 . S
C2240 C2244 1.368 . S
C2241 C2222 1.429 . S
C2241 C2235 1.429 . S
C2241 C2242 1.523 . S
C2242 C2223 1.368 . S
C2242 C2236 1.368 . S
C2242 C2241 1.523 . S
C2243 C2227 1.429 . S
C2243 C2239 1.429 . S
C2243 C2244 1.523 . S
C2244 C2228 1.368 . S
C2244 C2240 1.368 . S
C2244 C2243 1.523 . S
H2245 C2220 0.950 . S
H2246 C2222 0.950 . S
H2247 C2223 0.949 . S
H2248 C2225 0.950 . S
H2249 C2227 0.950 . S
C2250 C2251 1.349 . S
C2250 C2252 1.327 . S
C2250 H2275 0.950 . S
C2251 C2250 1.349 . S
C2251 C2267 1.349 . S
C2252 C2250 1.327 . S
C2252 C2271 1.429 . S
C2252 H2276 0.950 . S
C2253 C2270 1.574 . S
C2253 C2272 1.368 . S
C2253 H2277 0.949 . S
H2254 C2258 0.949 . S
C2255 C2256 1.382 . S
C2255 C2257 1.288 1_455 S
C2255 H2278 0.959 . S
C2256 C2255 1.382 . S
C2256 C2268 1.349 . S
C2257 C2255 1.288 1_655 S
C2257 C2273 1.429 . S
C2257 H2279 0.950 . S
C2258 H2254 0.949 . S
C2258 C2266 1.574 . S
C2258 C2274 1.368 . S
H2259 C2267 0.950 . S
H2260 C2265 0.950 . S
H2261 C2266 0.949 . S
H2262 C2268 0.950 . S
H2263 C2269 0.950 . S
H2264 C2270 0.949 . S
C2265 H2260 0.950 . S
C2265 C2267 1.327 . S
C2265 C2271 1.429 . S
C2266 C2258 1.574 . S
C2266 H2261 0.949 . S
C2266 C2272 1.368 . S
C2267 C2251 1.349 . S
C2267 H2259 0.950 . S
C2267 C2265 1.327 . S
C2268 C2256 1.349 . S
C2268 H2262 0.950 . S
C2268 C2269 1.327 1_455 S
C2269 H2263 0.950 . S
C2269 C2268 1.327 1_655 S
C2269 C2273 1.429 . S
C2270 C2253 1.574 . S
C2270 H2264 0.949 . S
C2270 C2274 1.368 . S
C2271 C2252 1.429 . S
C2271 C2265 1.429 . S
C2271 C2272 1.523 . S
C2272 C2253 1.368 . S
C2272 C2266 1.368 . S
C2272 C2271 1.523 . S
C2273 C2257 1.429 . S
C2273 C2269 1.429 . S
C2273 C2274 1.523 . S
C2274 C2258 1.368 . S
C2274 C2270 1.368 . S
C2274 C2273 1.523 . S
H2275 C2250 0.950 . S
H2276 C2252 0.950 . S
H2277 C2253 0.949 . S
H2278 C2255 0.959 . S
H2279 C2257 0.950 . S
C2280 C2281 1.349 . S
C2280 C2282 1.327 . S
C2280 H2305 0.950 . S
C2281 C2280 1.349 . S
C2281 C2297 1.349 . S
C2282 C2280 1.327 . S
C2282 C2301 1.429 . S
C2282 H2306 0.950 . S
C2283 C2300 1.574 . S
C2283 C2302 1.368 . S
C2283 H2307 0.949 . S
H2284 C2288 0.949 . S
C2285 C2286 1.349 . S
C2285 C2287 1.327 . S
C2285 H2308 0.950 . S
C2286 C2285 1.349 . S
C2286 C2298 1.349 . S
C2287 C2285 1.327 . S
C2287 C2303 1.429 . S
C2287 H2309 0.950 . S
C2288 H2284 0.949 . S
C2288 C2296 1.574 . S
C2288 C2304 1.368 . S
H2289 C2297 0.950 . S
H2290 C2295 0.950 . S
H2291 C2296 0.949 . S
H2292 C2298 0.950 . S
H2293 C2299 0.950 . S
H2294 C2300 0.949 . S
C2295 H2290 0.950 . S
C2295 C2297 1.327 . S
C2295 C2301 1.429 . S
C2296 C2288 1.574 . S
C2296 H2291 0.949 . S
C2296 C2302 1.368 . S
C2297 C2281 1.349 . S
C2297 H2289 0.950 . S
C2297 C2295 1.327 . S
C2298 C2286 1.349 . S
C2298 H2292 0.950 . S
C2298 C2299 1.327 . S
C2299 H2293 0.950 . S
C2299 C2298 1.327 . S
C2299 C2303 1.429 . S
C2300 C2283 1.574 . S
C2300 H2294 0.949 . S
C2300 C2304 1.368 . S
C2301 C2282 1.429 . S
C2301 C2295 1.429 . S
C2301 C2302 1.523 . S
C2302 C2283 1.368 . S
C2302 C2296 1.368 . S
C2302 C2301 1.523 . S
C2303 C2287 1.429 . S
C2303 C2299 1.429 . S
C2303 C2304 1.523 . S
C2304 C2288 1.368 . S
C2304 C2300 1.368 . S
C2304 C2303 1.523 . S
H2305 C2280 0.950 . S
H2306 C2282 0.950 . S
H2307 C2283 0.949 . S
H2308 C2285 0.950 . S
H2309 C2287 0.950 . S
C2310 C2311 1.349 . S
C2310 C2312 1.327 . S
C2310 H2335 0.950 . S
C2311 C2310 1.349 . S
C2311 C2327 1.349 . S
C2312 C2310 1.327 . S
C2312 C2331 1.429 . S
C2312 H2336 0.950 . S
C2313 C2330 1.574 . S
C2313 C2332 1.368 . S
C2313 H2337 0.949 . S
H2314 C2318 0.949 . S
C2315 C2316 1.349 . S
C2315 C2317 1.327 . S
C2315 H2338 0.950 . S
C2316 C2315 1.349 . S
C2316 C2328 1.349 . S
C2317 C2315 1.327 . S
C2317 C2333 1.429 . S
C2317 H2339 0.950 . S
C2318 H2314 0.949 . S
C2318 C2326 1.574 . S
C2318 C2334 1.368 . S
H2319 C2327 0.950 . S
H2320 C2325 0.950 . S
H2321 C2326 0.949 . S
H2322 C2328 0.950 . S
H2323 C2329 0.950 . S
H2324 C2330 0.949 . S
C2325 H2320 0.950 . S
C2325 C2327 1.327 . S
C2325 C2331 1.429 . S
C2326 C2318 1.574 . S
C2326 H2321 0.949 . S
C2326 C2332 1.368 . S
C2327 C2311 1.349 . S
C2327 H2319 0.950 . S
C2327 C2325 1.327 . S
C2328 C2316 1.349 . S
C2328 H2322 0.950 . S
C2328 C2329 1.327 . S
C2329 H2323 0.950 . S
C2329 C2328 1.327 . S
C2329 C2333 1.429 . S
C2330 C2313 1.574 . S
C2330 H2324 0.949 . S
C2330 C2334 1.368 . S
C2331 C2312 1.429 . S
C2331 C2325 1.429 . S
C2331 C2332 1.523 . S
C2332 C2313 1.368 . S
C2332 C2326 1.368 . S
C2332 C2331 1.523 . S
C2333 C2317 1.429 . S
C2333 C2329 1.429 . S
C2333 C2334 1.523 . S
C2334 C2318 1.368 . S
C2334 C2330 1.368 . S
C2334 C2333 1.523 . S
H2335 C2310 0.950 . S
H2336 C2312 0.950 . S
H2337 C2313 0.949 . S
H2338 C2315 0.950 . S
H2339 C2317 0.950 . S
C2340 C2341 1.349 . S
C2340 C2342 1.327 . S
C2340 H2365 0.950 . S
C2341 C2340 1.349 . S
C2341 C2357 1.349 . S
C2342 C2340 1.327 . S
C2342 C2361 1.429 . S
C2342 H2366 0.950 . S
C2343 C2360 1.574 . S
C2343 C2362 1.368 . S
C2343 H2367 0.949 . S
H2344 C2348 0.949 . S
C2345 C2346 1.349 . S
C2345 C2347 1.327 . S
C2345 H2368 0.950 . S
C2346 C2345 1.349 . S
C2346 C2358 1.349 . S
C2347 C2345 1.327 . S
C2347 C2363 1.429 . S
C2347 H2369 0.950 . S
C2348 H2344 0.949 . S
C2348 C2356 1.574 . S
C2348 C2364 1.368 . S
H2349 C2357 0.950 . S
H2350 C2355 0.950 . S
H2351 C2356 0.949 . S
H2352 C2358 0.950 . S
H2353 C2359 0.950 . S
H2354 C2360 0.949 . S
C2355 H2350 0.950 . S
C2355 C2357 1.327 . S
C2355 C2361 1.429 . S
C2356 C2348 1.574 . S
C2356 H2351 0.949 . S
C2356 C2362 1.368 . S
C2357 C2341 1.349 . S
C2357 H2349 0.950 . S
C2357 C2355 1.327 . S
C2358 C2346 1.349 . S
C2358 H2352 0.950 . S
C2358 C2359 1.327 . S
C2359 H2353 0.950 . S
C2359 C2358 1.327 . S
C2359 C2363 1.429 . S
C2360 C2343 1.574 . S
C2360 H2354 0.949 . S
C2360 C2364 1.368 . S
C2361 C2342 1.429 . S
C2361 C2355 1.429 . S
C2361 C2362 1.523 . S
C2362 C2343 1.368 . S
C2362 C2356 1.368 . S
C2362 C2361 1.523 . S
C2363 C2347 1.429 . S
C2363 C2359 1.429 . S
C2363 C2364 1.523 . S
C2364 C2348 1.368 . S
C2364 C2360 1.368 . S
C2364 C2363 1.523 . S
H2365 C2340 0.950 . S
H2366 C2342 0.950 . S
H2367 C2343 0.949 . S
H2368 C2345 0.950 . S
H2369 C2347 0.950 . S
C2370 C2371 1.349 . S
C2370 C2372 1.327 . S
C2370 H2395 0.950 . S
C2371 C2370 1.349 . S
C2371 C2387 1.349 . S
C2372 C2370 1.327 . S
C2372 C2391 1.429 . S
C2372 H2396 0.950 . S
C2373 C2390 1.574 . S
C2373 C2392 1.368 . S
C2373 H2397 0.949 . S
H2374 C2378 0.949 . S
C2375 C2376 1.349 . S
C2375 C2377 1.327 . S
C2375 H2398 0.950 . S
C2376 C2375 1.349 . S
C2376 C2388 1.349 . S
C2377 C2375 1.327 . S
C2377 C2393 1.429 . S
C2377 H2399 0.950 . S
C2378 H2374 0.949 . S
C2378 C2386 1.574 . S
C2378 C2394 1.368 . S
H2379 C2387 0.950 . S
H2380 C2385 0.950 . S
H2381 C2386 0.949 . S
H2382 C2388 0.950 . S
H2383 C2389 0.950 . S
H2384 C2390 0.949 . S
C2385 H2380 0.950 . S
C2385 C2387 1.327 . S
C2385 C2391 1.429 . S
C2386 C2378 1.574 . S
C2386 H2381 0.949 . S
C2386 C2392 1.368 . S
C2387 C2371 1.349 . S
C2387 H2379 0.950 . S
C2387 C2385 1.327 . S
C2388 C2376 1.349 . S
C2388 H2382 0.950 . S
C2388 C2389 1.327 . S
C2389 H2383 0.950 . S
C2389 C2388 1.327 . S
C2389 C2393 1.429 . S
C2390 C2373 1.574 . S
C2390 H2384 0.949 . S
C2390 C2394 1.368 . S
C2391 C2372 1.429 . S
C2391 C2385 1.429 . S
C2391 C2392 1.523 . S
C2392 C2373 1.368 . S
C2392 C2386 1.368 . S
C2392 C2391 1.523 . S
C2393 C2377 1.429 . S
C2393 C2389 1.429 . S
C2393 C2394 1.523 . S
C2394 C2378 1.368 . S
C2394 C2390 1.368 . S
C2394 C2393 1.523 . S
H2395 C2370 0.950 . S
H2396 C2372 0.950 . S
H2397 C2373 0.949 . S
H2398 C2375 0.950 . S
H2399 C2377 0.950 . S
C2400 C2401 1.349 . S
C2400 C2402 1.327 . S
C2400 H2425 0.950 . S
C2401 C2400 1.349 . S
C2401 C2417 1.349 . S
C2402 C2400 1.327 . S
C2402 C2421 1.429 . S
C2402 H2426 0.950 . S
C2403 C2420 1.574 . S
C2403 C2422 1.368 . S
C2403 H2427 0.949 . S
H2404 C2408 0.949 . S
C2405 C2406 1.349 . S
C2405 C2407 1.327 . S
C2405 H2428 0.950 1_565 S
C2406 C2405 1.349 . S
C2406 C2418 1.349 . S
C2407 C2405 1.327 . S
C2407 C2423 1.429 . S
C2407 H2429 0.950 . S
C2408 H2404 0.949 . S
C2408 C2416 1.574 . S
C2408 C2424 1.368 . S
H2409 C2417 0.950 . S
H2410 C2415 0.950 . S
H2411 C2416 0.949 . S
H2412 C2418 0.950 . S
H2413 C2419 0.950 . S
H2414 C2420 0.949 . S
C2415 H2410 0.950 . S
C2415 C2417 1.327 . S
C2415 C2421 1.429 . S
C2416 C2408 1.574 . S
C2416 H2411 0.949 . S
C2416 C2422 1.368 . S
C2417 C2401 1.349 . S
C2417 H2409 0.950 . S
C2417 C2415 1.327 . S
C2418 C2406 1.349 . S
C2418 H2412 0.950 . S
C2418 C2419 1.327 . S
C2419 H2413 0.950 . S
C2419 C2418 1.327 . S
C2419 C2423 1.429 . S
C2420 C2403 1.574 . S
C2420 H2414 0.949 . S
C2420 C2424 1.368 . S
C2421 C2402 1.429 . S
C2421 C2415 1.429 . S
C2421 C2422 1.523 . S
C2422 C2403 1.368 . S
C2422 C2416 1.368 . S
C2422 C2421 1.523 . S
C2423 C2407 1.429 . S
C2423 C2419 1.429 . S
C2423 C2424 1.523 . S
C2424 C2408 1.368 . S
C2424 C2420 1.368 . S
C2424 C2423 1.523 . S
H2425 C2400 0.950 . S
H2426 C2402 0.950 . S
H2427 C2403 0.949 . S
H2428 C2405 0.950 1_545 S
H2429 C2407 0.950 . S
C2430 C2431 1.349 . S
C2430 C2432 1.327 . S
C2430 H2455 0.950 . S
C2431 C2430 1.349 . S
C2431 C2447 1.349 . S
C2432 C2430 1.327 . S
C2432 C2451 1.429 . S
C2432 H2456 0.950 . S
C2433 C2450 1.574 . S
C2433 C2452 1.368 . S
C2433 H2457 0.949 . S
H2434 C2438 0.949 . S
C2435 C2436 1.349 . S
C2435 C2437 1.327 . S
C2435 H2458 0.950 . S
C2436 C2435 1.349 . S
C2436 C2448 1.349 . S
C2437 C2435 1.327 . S
C2437 C2453 1.429 . S
C2437 H2459 0.950 . S
C2438 H2434 0.949 . S
C2438 C2446 1.574 . S
C2438 C2454 1.368 . S
H2439 C2447 0.950 . S
H2440 C2445 0.950 . S
H2441 C2446 0.949 . S
H2442 C2448 0.950 . S
H2443 C2449 0.950 . S
H2444 C2450 0.949 . S
C2445 H2440 0.950 . S
C2445 C2447 1.327 . S
C2445 C2451 1.429 . S
C2446 C2438 1.574 . S
C2446 H2441 0.949 . S
C2446 C2452 1.368 . S
C2447 C2431 1.349 . S
C2447 H2439 0.950 . S
C2447 C2445 1.327 . S
C2448 C2436 1.349 . S
C2448 H2442 0.950 . S
C2448 C2449 1.327 . S
C2449 H2443 0.950 . S
C2449 C2448 1.327 . S
C2449 C2453 1.429 . S
C2450 C2433 1.574 . S
C2450 H2444 0.949 . S
C2450 C2454 1.368 . S
C2451 C2432 1.429 . S
C2451 C2445 1.429 . S
C2451 C2452 1.523 . S
C2452 C2433 1.368 . S
C2452 C2446 1.368 . S
C2452 C2451 1.523 . S
C2453 C2437 1.429 . S
C2453 C2449 1.429 . S
C2453 C2454 1.523 . S
C2454 C2438 1.368 . S
C2454 C2450 1.368 . S
C2454 C2453 1.523 . S
H2455 C2430 0.950 . S
H2456 C2432 0.950 . S
H2457 C2433 0.949 . S
H2458 C2435 0.950 . S
H2459 C2437 0.950 . S
C2460 C2461 1.349 . S
C2460 C2462 1.327 . S
C2460 H2485 0.950 . S
C2461 C2460 1.349 . S
C2461 C2477 1.349 . S
C2462 C2460 1.327 . S
C2462 C2481 1.429 . S
C2462 H2486 0.950 . S
C2463 C2480 1.574 . S
C2463 C2482 1.368 . S
C2463 H2487 0.949 . S
H2464 C2468 0.949 . S
C2465 C2466 1.349 . S
C2465 C2467 1.327 . S
C2465 H2488 0.950 . S
C2466 C2465 1.349 . S
C2466 C2478 1.349 . S
C2467 C2465 1.327 . S
C2467 C2483 1.429 . S
C2467 H2489 0.950 . S
C2468 H2464 0.949 . S
C2468 C2476 1.574 . S
C2468 C2484 1.368 . S
H2469 C2477 0.950 . S
H2470 C2475 0.950 . S
H2471 C2476 0.949 . S
H2472 C2478 0.950 . S
H2473 C2479 0.950 . S
H2474 C2480 0.949 . S
C2475 H2470 0.950 . S
C2475 C2477 1.327 . S
C2475 C2481 1.429 . S
C2476 C2468 1.574 . S
C2476 H2471 0.949 . S
C2476 C2482 1.368 . S
C2477 C2461 1.349 . S
C2477 H2469 0.950 . S
C2477 C2475 1.327 . S
C2478 C2466 1.349 . S
C2478 H2472 0.950 . S
C2478 C2479 1.327 . S
C2479 H2473 0.950 . S
C2479 C2478 1.327 . S
C2479 C2483 1.429 . S
C2480 C2463 1.574 . S
C2480 H2474 0.949 . S
C2480 C2484 1.368 . S
C2481 C2462 1.429 . S
C2481 C2475 1.429 . S
C2481 C2482 1.523 . S
C2482 C2463 1.368 . S
C2482 C2476 1.368 . S
C2482 C2481 1.523 . S
C2483 C2467 1.429 . S
C2483 C2479 1.429 . S
C2483 C2484 1.523 . S
C2484 C2468 1.368 . S
C2484 C2480 1.368 . S
C2484 C2483 1.523 . S
H2485 C2460 0.950 . S
H2486 C2462 0.950 . S
H2487 C2463 0.949 . S
H2488 C2465 0.950 . S
H2489 C2467 0.950 . S
C2490 C2491 1.349 . S
C2490 C2492 1.327 . S
C2490 H2515 0.950 . S
C2491 C2490 1.349 . S
C2491 C2507 1.349 . S
C2492 C2490 1.327 . S
C2492 C2511 1.429 . S
C2492 H2516 0.950 . S
C2493 C2510 1.574 . S
C2493 C2512 1.368 . S
C2493 H2517 0.949 . S
H2494 C2498 0.949 . S
C2495 C2496 1.349 . S
C2495 C2497 1.327 . S
C2495 H2518 0.950 . S
C2496 C2495 1.349 . S
C2496 C2508 1.349 . S
C2497 C2495 1.327 . S
C2497 C2513 1.429 . S
C2497 H2519 0.950 . S
C2498 H2494 0.949 . S
C2498 C2506 1.574 . S
C2498 C2514 1.368 . S
H2499 C2507 0.950 . S
H2500 C2505 0.950 . S
H2501 C2506 0.949 . S
H2502 C2508 0.950 . S
H2503 C2509 0.950 . S
H2504 C2510 0.949 . S
C2505 H2500 0.950 . S
C2505 C2507 1.327 . S
C2505 C2511 1.429 . S
C2506 C2498 1.574 . S
C2506 H2501 0.949 . S
C2506 C2512 1.368 . S
C2507 C2491 1.349 . S
C2507 H2499 0.950 . S
C2507 C2505 1.327 . S
C2508 C2496 1.349 . S
C2508 H2502 0.950 . S
C2508 C2509 1.327 . S
C2509 H2503 0.950 . S
C2509 C2508 1.327 . S
C2509 C2513 1.429 . S
C2510 C2493 1.574 . S
C2510 H2504 0.949 . S
C2510 C2514 1.368 . S
C2511 C2492 1.429 . S
C2511 C2505 1.429 . S
C2511 C2512 1.523 . S
C2512 C2493 1.368 . S
C2512 C2506 1.368 . S
C2512 C2511 1.523 . S
C2513 C2497 1.429 . S
C2513 C2509 1.429 . S
C2513 C2514 1.523 . S
C2514 C2498 1.368 . S
C2514 C2510 1.368 . S
C2514 C2513 1.523 . S
H2515 C2490 0.950 . S
H2516 C2492 0.950 . S
H2517 C2493 0.949 . S
H2518 C2495 0.950 . S
H2519 C2497 0.950 . S
C2520 C2521 1.349 . S
C2520 C2522 1.327 . S
C2520 H2545 0.950 . S
C2521 C2520 1.349 . S
C2521 C2537 1.349 . S
C2522 C2520 1.327 . S
C2522 C2541 1.429 . S
C2522 H2546 0.950 . S
C2523 C2540 1.574 . S
C2523 C2542 1.368 . S
C2523 H2547 0.949 . S
H2524 C2528 0.949 . S
C2525 C2526 1.349 . S
C2525 C2527 1.327 . S
C2525 H2548 0.950 . S
C2526 C2525 1.349 . S
C2526 C2538 1.349 . S
C2527 C2525 1.327 . S
C2527 C2543 1.429 . S
C2527 H2549 0.950 . S
C2528 H2524 0.949 . S
C2528 C2536 1.574 . S
C2528 C2544 1.368 . S
H2529 C2537 0.950 . S
H2530 C2535 0.950 . S
H2531 C2536 0.949 . S
H2532 C2538 0.950 . S
H2533 C2539 0.950 . S
H2534 C2540 0.949 . S
C2535 H2530 0.950 . S
C2535 C2537 1.327 . S
C2535 C2541 1.429 . S
C2536 C2528 1.574 . S
C2536 H2531 0.949 . S
C2536 C2542 1.368 . S
C2537 C2521 1.349 . S
C2537 H2529 0.950 . S
C2537 C2535 1.327 . S
C2538 C2526 1.349 . S
C2538 H2532 0.950 . S
C2538 C2539 1.327 . S
C2539 H2533 0.950 . S
C2539 C2538 1.327 . S
C2539 C2543 1.429 . S
C2540 C2523 1.574 . S
C2540 H2534 0.949 . S
C2540 C2544 1.368 . S
C2541 C2522 1.429 . S
C2541 C2535 1.429 . S
C2541 C2542 1.523 . S
C2542 C2523 1.368 . S
C2542 C2536 1.368 . S
C2542 C2541 1.523 . S
C2543 C2527 1.429 . S
C2543 C2539 1.429 . S
C2543 C2544 1.523 . S
C2544 C2528 1.368 . S
C2544 C2540 1.368 . S
C2544 C2543 1.523 . S
H2545 C2520 0.950 . S
H2546 C2522 0.950 . S
H2547 C2523 0.949 . S
H2548 C2525 0.950 . S
H2549 C2527 0.950 . S
C2550 C2551 1.349 . S
C2550 C2552 1.327 . S
C2550 H2575 0.950 . S
C2551 C2550 1.349 . S
C2551 C2567 1.349 . S
C2552 C2550 1.327 . S
C2552 C2571 1.429 . S
C2552 H2576 0.950 . S
C2553 C2570 1.574 . S
C2553 C2572 1.368 . S
C2553 H2577 0.949 . S
H2554 C2558 0.949 . S
C2555 C2556 1.349 . S
C2555 C2557 1.327 . S
C2555 H2578 0.950 . S
C2556 C2555 1.349 . S
C2556 C2568 1.349 . S
C2557 C2555 1.327 . S
C2557 C2573 1.429 . S
C2557 H2579 0.950 . S
C2558 H2554 0.949 . S
C2558 C2566 1.574 . S
C2558 C2574 1.368 . S
H2559 C2567 0.950 . S
H2560 C2565 0.950 . S
H2561 C2566 0.949 . S
H2562 C2568 0.950 . S
H2563 C2569 0.950 . S
H2564 C2570 0.949 . S
C2565 H2560 0.950 . S
C2565 C2567 1.327 . S
C2565 C2571 1.429 . S
C2566 C2558 1.574 . S
C2566 H2561 0.949 . S
C2566 C2572 1.368 . S
C2567 C2551 1.349 . S
C2567 H2559 0.950 . S
C2567 C2565 1.327 . S
C2568 C2556 1.349 . S
C2568 H2562 0.950 . S
C2568 C2569 1.327 . S
C2569 H2563 0.950 . S
C2569 C2568 1.327 . S
C2569 C2573 1.429 . S
C2570 C2553 1.574 . S
C2570 H2564 0.949 . S
C2570 C2574 1.368 . S
C2571 C2552 1.429 . S
C2571 C2565 1.429 . S
C2571 C2572 1.523 . S
C2572 C2553 1.368 . S
C2572 C2566 1.368 . S
C2572 C2571 1.523 . S
C2573 C2557 1.429 . S
C2573 C2569 1.429 . S
C2573 C2574 1.523 . S
C2574 C2558 1.368 . S
C2574 C2570 1.368 . S
C2574 C2573 1.523 . S
H2575 C2550 0.950 . S
H2576 C2552 0.950 . S
H2577 C2553 0.949 . S
H2578 C2555 0.950 . S
H2579 C2557 0.950 . S
C2580 C2581 1.349 . S
C2580 C2582 1.327 . S
C2580 H2605 0.950 . S
C2581 C2580 1.349 . S
C2581 C2597 1.349 . S
C2582 C2580 1.327 . S
C2582 C2601 1.429 . S
C2582 H2606 0.950 . S
C2583 C2600 1.574 . S
C2583 C2602 1.368 . S
C2583 H2607 0.949 . S
H2584 C2588 0.949 . S
C2585 C2586 1.349 1_556 S
C2585 C2587 1.327 . S
C2585 H2608 0.950 1_565 S
C2586 C2585 1.349 1_554 S
C2586 C2598 1.389 . S
C2587 C2585 1.327 . S
C2587 C2603 1.429 . S
C2587 H2609 0.950 . S
C2588 H2584 0.949 . S
C2588 C2596 1.574 . S
C2588 C2604 1.368 . S
H2589 C2597 0.950 . S
H2590 C2595 0.950 . S
H2591 C2596 0.949 . S
H2592 C2598 0.950 . S
H2593 C2599 0.950 1_554 S
H2594 C2600 0.949 . S
C2595 H2590 0.950 . S
C2595 C2597 1.327 . S
C2595 C2601 1.429 . S
C2596 C2588 1.574 . S
C2596 H2591 0.949 . S
C2596 C2602 1.368 . S
C2597 C2581 1.349 . S
C2597 H2589 0.950 . S
C2597 C2595 1.327 . S
C2598 C2586 1.389 . S
C2598 H2592 0.950 . S
C2598 C2599 1.327 1_554 S
C2599 H2593 0.950 1_556 S
C2599 C2598 1.327 1_556 S
C2599 C2603 1.429 . S
C2600 C2583 1.574 . S
C2600 H2594 0.949 . S
C2600 C2604 1.368 . S
C2601 C2582 1.429 . S
C2601 C2595 1.429 . S
C2601 C2602 1.523 . S
C2602 C2583 1.368 . S
C2602 C2596 1.368 . S
C2602 C2601 1.523 . S
C2603 C2587 1.429 . S
C2603 C2599 1.429 . S
C2603 C2604 1.523 . S
C2604 C2588 1.368 . S
C2604 C2600 1.368 . S
C2604 C2603 1.523 . S
H2605 C2580 0.950 . S
H2606 C2582 0.950 . S
H2607 C2583 0.949 . S
H2608 C2585 0.950 1_545 S
H2609 C2587 0.950 . S
C2610 C2611 1.349 . S
C2610 C2612 1.327 . S
C2610 H2635 0.950 . S
C2611 C2610 1.349 . S
C2611 C2627 1.349 . S
C2612 C2610 1.327 . S
C2612 C2631 1.429 . S
C2612 H2636 0.950 . S
C2613 C2630 1.574 . S
C2613 C2632 1.368 . S
C2613 H2637 0.949 . S
H2614 C2618 0.949 . S
C2615 C2616 1.349 . S
C2615 C2617 1.327 . S
C2615 H2638 0.950 . S
C2616 C2615 1.349 . S
C2616 C2628 1.349 . S
C2617 C2615 1.327 . S
C2617 C2633 1.429 . S
C2617 H2639 0.950 . S
C2618 H2614 0.949 . S
C2618 C2626 1.574 . S
C2618 C2634 1.368 . S
H2619 C2627 0.950 . S
H2620 C2625 0.950 . S
H2621 C2626 0.949 . S
H2622 C2628 0.950 . S
H2623 C2629 0.950 . S
H2624 C2630 0.949 . S
C2625 H2620 0.950 . S
C2625 C2627 1.327 . S
C2625 C2631 1.429 . S
C2626 C2618 1.574 . S
C2626 H2621 0.949 . S
C2626 C2632 1.368 . S
C2627 C2611 1.349 . S
C2627 H2619 0.950 . S
C2627 C2625 1.327 . S
C2628 C2616 1.349 . S
C2628 H2622 0.950 . S
C2628 C2629 1.327 . S
C2629 H2623 0.950 . S
C2629 C2628 1.327 . S
C2629 C2633 1.429 . S
C2630 C2613 1.574 . S
C2630 H2624 0.949 . S
C2630 C2634 1.368 . S
C2631 C2612 1.429 . S
C2631 C2625 1.429 . S
C2631 C2632 1.523 . S
C2632 C2613 1.368 . S
C2632 C2626 1.368 . S
C2632 C2631 1.523 . S
C2633 C2617 1.429 . S
C2633 C2629 1.429 . S
C2633 C2634 1.523 . S
C2634 C2618 1.368 . S
C2634 C2630 1.368 . S
C2634 C2633 1.523 . S
H2635 C2610 0.950 . S
H2636 C2612 0.950 . S
H2637 C2613 0.949 . S
H2638 C2615 0.950 . S
H2639 C2617 0.950 . S
C2640 C2641 1.349 . S
C2640 C2642 1.327 . S
C2640 H2665 0.950 . S
C2641 C2640 1.349 . S
C2641 C2657 1.349 1_545 S
C2642 C2640 1.327 . S
C2642 C2661 1.429 . S
C2642 H2666 0.950 . S
C2643 C2660 1.574 . S
C2643 C2662 1.368 . S
C2643 H2667 0.949 1_545 S
H2644 C2648 0.949 . S
C2645 C2646 1.349 . S
C2645 C2647 1.327 . S
C2645 H2668 0.950 . S
C2646 C2645 1.349 . S
C2646 C2658 1.349 . S
C2647 C2645 1.327 . S
C2647 C2663 1.429 . S
C2647 H2669 0.984 . S
C2648 H2644 0.949 . S
C2648 C2656 1.574 . S
C2648 C2664 1.368 . S
H2649 C2657 0.950 . S
H2650 C2655 0.951 1_565 S
H2651 C2656 0.949 . S
H2652 C2658 0.950 . S
H2653 C2659 0.950 . S
H2654 C2660 0.949 1_565 S
C2655 H2650 0.951 1_545 S
C2655 C2657 1.327 1_545 S
C2655 C2661 1.427 . S
C2656 C2648 1.574 . S
C2656 H2651 0.949 . S
C2656 C2662 1.368 . S
C2657 C2641 1.349 1_565 S
C2657 H2649 0.950 . S
C2657 C2655 1.327 1_565 S
C2658 C2646 1.349 . S
C2658 H2652 0.950 . S
C2658 C2659 1.327 . S
C2659 H2653 0.950 . S
C2659 C2658 1.327 . S
C2659 C2663 1.429 . S
C2660 C2643 1.574 . S
C2660 H2654 0.949 1_545 S
C2660 C2664 1.368 . S
C2661 C2642 1.429 . S
C2661 C2655 1.427 . S
C2661 C2662 1.523 . S
C2662 C2643 1.368 . S
C2662 C2656 1.368 . S
C2662 C2661 1.523 . S
C2663 C2647 1.429 . S
C2663 C2659 1.429 . S
C2663 C2664 1.523 . S
C2664 C2648 1.368 . S
C2664 C2660 1.368 . S
C2664 C2663 1.523 . S
H2665 C2640 0.950 . S
H2666 C2642 0.950 . S
H2667 C2643 0.949 1_565 S
H2668 C2645 0.950 . S
H2669 C2647 0.984 . S
C2670 C2671 1.349 . S
C2670 C2672 1.327 . S
C2670 H2695 0.950 . S
C2671 C2670 1.349 . S
C2671 C2687 1.349 . S
C2672 C2670 1.327 . S
C2672 C2691 1.429 . S
C2672 H2696 0.950 . S
C2673 C2690 1.574 . S
C2673 C2692 1.368 . S
C2673 H2697 0.949 . S
H2674 C2678 0.949 . S
C2675 C2676 1.349 . S
C2675 C2677 1.327 . S
C2675 H2698 0.950 . S
C2676 C2675 1.349 . S
C2676 C2688 1.349 . S
C2677 C2675 1.327 . S
C2677 C2693 1.429 . S
C2677 H2699 0.950 . S
C2678 H2674 0.949 . S
C2678 C2686 1.574 . S
C2678 C2694 1.368 . S
H2679 C2687 0.950 . S
H2680 C2685 0.950 . S
H2681 C2686 0.949 . S
H2682 C2688 0.950 . S
H2683 C2689 0.950 . S
H2684 C2690 0.949 . S
C2685 H2680 0.950 . S
C2685 C2687 1.327 . S
C2685 C2691 1.429 . S
C2686 C2678 1.574 . S
C2686 H2681 0.949 . S
C2686 C2692 1.368 . S
C2687 C2671 1.349 . S
C2687 H2679 0.950 . S
C2687 C2685 1.327 . S
C2688 C2676 1.349 . S
C2688 H2682 0.950 . S
C2688 C2689 1.327 . S
C2689 H2683 0.950 . S
C2689 C2688 1.327 . S
C2689 C2693 1.429 . S
C2690 C2673 1.574 . S
C2690 H2684 0.949 . S
C2690 C2694 1.368 . S
C2691 C2672 1.429 . S
C2691 C2685 1.429 . S
C2691 C2692 1.523 . S
C2692 C2673 1.368 . S
C2692 C2686 1.368 . S
C2692 C2691 1.523 . S
C2693 C2677 1.429 . S
C2693 C2689 1.429 . S
C2693 C2694 1.523 . S
C2694 C2678 1.368 . S
C2694 C2690 1.368 . S
C2694 C2693 1.523 . S
H2695 C2670 0.950 . S
H2696 C2672 0.950 . S
H2697 C2673 0.949 . S
H2698 C2675 0.950 . S
H2699 C2677 0.950 . S
C2700 C2701 1.349 . S
C2700 C2702 1.327 . S
C2700 H2725 0.950 . S
C2701 C2700 1.349 . S
C2701 C2717 1.349 . S
C2702 C2700 1.327 . S
C2702 C2721 1.429 . S
C2702 H2726 0.950 . S
C2703 C2720 1.574 . S
C2703 C2722 1.368 . S
C2703 H2727 0.949 . S
H2704 C2708 0.949 . S
C2705 C2706 1.349 . S
C2705 C2707 1.327 . S
C2705 H2728 0.950 . S
C2706 C2705 1.349 . S
C2706 C2718 1.349 . S
C2707 C2705 1.327 . S
C2707 C2723 1.429 . S
C2707 H2729 0.950 . S
C2708 H2704 0.949 . S
C2708 C2716 1.574 . S
C2708 C2724 1.368 . S
H2709 C2717 0.950 . S
H2710 C2715 0.950 . S
H2711 C2716 0.949 . S
H2712 C2718 0.950 . S
H2713 C2719 0.950 . S
H2714 C2720 0.949 . S
C2715 H2710 0.950 . S
C2715 C2717 1.327 . S
C2715 C2721 1.429 . S
C2716 C2708 1.574 . S
C2716 H2711 0.949 . S
C2716 C2722 1.368 . S
C2717 C2701 1.349 . S
C2717 H2709 0.950 . S
C2717 C2715 1.327 . S
C2718 C2706 1.349 . S
C2718 H2712 0.950 . S
C2718 C2719 1.327 . S
C2719 H2713 0.950 . S
C2719 C2718 1.327 . S
C2719 C2723 1.429 . S
C2720 C2703 1.574 . S
C2720 H2714 0.949 . S
C2720 C2724 1.368 . S
C2721 C2702 1.429 . S
C2721 C2715 1.429 . S
C2721 C2722 1.523 . S
C2722 C2703 1.368 . S
C2722 C2716 1.368 . S
C2722 C2721 1.523 . S
C2723 C2707 1.429 . S
C2723 C2719 1.429 . S
C2723 C2724 1.523 . S
C2724 C2708 1.368 . S
C2724 C2720 1.368 . S
C2724 C2723 1.523 . S
H2725 C2700 0.950 . S
H2726 C2702 0.950 . S
H2727 C2703 0.949 . S
H2728 C2705 0.950 . S
H2729 C2707 0.950 . S
C2730 C2731 1.349 . S
C2730 C2732 1.327 . S
C2730 H2755 0.950 . S
C2731 C2730 1.349 . S
C2731 C2747 1.349 . S
C2732 C2730 1.327 . S
C2732 C2751 1.429 . S
C2732 H2756 0.950 . S
C2733 C2750 1.574 . S
C2733 C2752 1.368 . S
C2733 H2757 0.949 . S
H2734 C2738 0.949 . S
C2735 C2736 1.349 . S
C2735 C2737 1.327 . S
C2735 H2758 0.950 . S
C2736 C2735 1.349 . S
C2736 C2748 1.349 . S
C2737 C2735 1.327 . S
C2737 C2753 1.429 . S
C2737 H2759 0.950 . S
C2738 H2734 0.949 . S
C2738 C2746 1.574 . S
C2738 C2754 1.368 . S
H2739 C2747 0.950 . S
H2740 C2745 0.950 . S
H2741 C2746 0.949 . S
H2742 C2748 0.950 . S
H2743 C2749 0.950 . S
H2744 C2750 0.949 . S
C2745 H2740 0.950 . S
C2745 C2747 1.327 . S
C2745 C2751 1.429 . S
C2746 C2738 1.574 . S
C2746 H2741 0.949 . S
C2746 C2752 1.368 . S
C2747 C2731 1.349 . S
C2747 H2739 0.950 . S
C2747 C2745 1.327 . S
C2748 C2736 1.349 . S
C2748 H2742 0.950 . S
C2748 C2749 1.327 . S
C2749 H2743 0.950 . S
C2749 C2748 1.327 . S
C2749 C2753 1.429 . S
C2750 C2733 1.574 . S
C2750 H2744 0.949 . S
C2750 C2754 1.368 . S
C2751 C2732 1.429 . S
C2751 C2745 1.429 . S
C2751 C2752 1.523 . S
C2752 C2733 1.368 . S
C2752 C2746 1.368 . S
C2752 C2751 1.523 . S
C2753 C2737 1.429 . S
C2753 C2749 1.429 . S
C2753 C2754 1.523 . S
C2754 C2738 1.368 . S
C2754 C2750 1.368 . S
C2754 C2753 1.523 . S
H2755 C2730 0.950 . S
H2756 C2732 0.950 . S
H2757 C2733 0.949 . S
H2758 C2735 0.950 . S
H2759 C2737 0.950 . S
C2760 C2761 1.349 . S
C2760 C2762 1.327 . S
C2760 H2785 0.950 . S
C2761 C2760 1.349 . S
C2761 C2777 1.349 1_545 S
C2762 C2760 1.327 . S
C2762 C2781 1.429 . S
C2762 H2786 0.950 . S
C2763 C2780 1.574 . S
C2763 C2782 1.368 . S
C2763 H2787 0.949 1_545 S
H2764 C2768 0.949 . S
C2765 C2766 1.349 . S
C2765 C2767 1.327 . S
C2765 H2788 0.950 . S
C2766 C2765 1.349 . S
C2766 C2778 1.349 . S
C2767 C2765 1.327 . S
C2767 C2783 1.429 . S
C2767 H2789 0.950 . S
C2768 H2764 0.949 . S
C2768 C2776 1.574 . S
C2768 C2784 1.368 . S
H2769 C2777 0.950 . S
H2770 C2775 0.950 . S
H2771 C2776 0.949 . S
H2772 C2778 0.950 . S
H2773 C2779 0.950 . S
H2774 C2780 0.949 . S
C2775 H2770 0.950 . S
C2775 C2777 1.327 . S
C2775 C2781 1.429 1_565 S
C2776 C2768 1.574 . S
C2776 H2771 0.949 . S
C2776 C2782 1.368 . S
C2777 C2761 1.349 1_565 S
C2777 H2769 0.950 . S
C2777 C2775 1.327 . S
C2778 C2766 1.349 . S
C2778 H2772 0.950 . S
C2778 C2779 1.327 . S
C2779 H2773 0.950 . S
C2779 C2778 1.327 . S
C2779 C2783 1.429 . S
C2780 C2763 1.574 . S
C2780 H2774 0.949 . S
C2780 C2784 1.368 . S
C2781 C2762 1.429 . S
C2781 C2775 1.429 1_545 S
C2781 C2782 1.523 . S
C2782 C2763 1.368 . S
C2782 C2776 1.368 . S
C2782 C2781 1.523 . S
C2783 C2767 1.429 . S
C2783 C2779 1.429 . S
C2783 C2784 1.523 . S
C2784 C2768 1.368 . S
C2784 C2780 1.368 . S
C2784 C2783 1.523 . S
H2785 C2760 0.950 . S
H2786 C2762 0.950 . S
H2787 C2763 0.949 1_565 S
H2788 C2765 0.950 . S
H2789 C2767 0.950 . S
C2790 C2791 1.349 . S
C2790 C2792 1.327 . S
C2790 H2815 0.950 . S
C2791 C2790 1.349 . S
C2791 C2807 1.349 . S
C2792 C2790 1.327 . S
C2792 C2811 1.429 . S
C2792 H2816 0.950 . S
C2793 C2810 1.574 . S
C2793 C2812 1.368 . S
C2793 H2817 0.949 . S
H2794 C2798 0.949 . S
C2795 C2796 1.349 . S
C2795 C2797 1.327 . S
C2795 H2818 0.950 . S
C2796 C2795 1.349 . S
C2796 C2808 1.349 . S
C2797 C2795 1.327 . S
C2797 C2813 1.429 . S
C2797 H2819 0.950 . S
C2798 H2794 0.949 . S
C2798 C2806 1.574 . S
C2798 C2814 1.368 . S
H2799 C2807 0.950 . S
H2800 C2805 0.950 . S
H2801 C2806 0.949 . S
H2802 C2808 0.950 . S
H2803 C2809 0.950 . S
H2804 C2810 0.949 . S
C2805 H2800 0.950 . S
C2805 C2807 1.327 . S
C2805 C2811 1.429 . S
C2806 C2798 1.574 . S
C2806 H2801 0.949 . S
C2806 C2812 1.368 . S
C2807 C2791 1.349 . S
C2807 H2799 0.950 . S
C2807 C2805 1.327 . S
C2808 C2796 1.349 . S
C2808 H2802 0.950 . S
C2808 C2809 1.327 . S
C2809 H2803 0.950 . S
C2809 C2808 1.327 . S
C2809 C2813 1.429 . S
C2810 C2793 1.574 . S
C2810 H2804 0.949 . S
C2810 C2814 1.368 . S
C2811 C2792 1.429 . S
C2811 C2805 1.429 . S
C2811 C2812 1.523 . S
C2812 C2793 1.368 . S
C2812 C2806 1.368 . S
C2812 C2811 1.523 . S
C2813 C2797 1.429 . S
C2813 C2809 1.429 . S
C2813 C2814 1.523 . S
C2814 C2798 1.368 . S
C2814 C2810 1.368 . S
C2814 C2813 1.523 . S
H2815 C2790 0.950 . S
H2816 C2792 0.950 . S
H2817 C2793 0.949 . S
H2818 C2795 0.950 . S
H2819 C2797 0.950 . S
C2820 C2821 1.349 . S
C2820 C2822 1.327 . S
C2820 H2845 0.950 . S
C2821 C2820 1.349 . S
C2821 C2837 1.349 . S
C2822 C2820 1.327 . S
C2822 C2841 1.429 . S
C2822 H2846 0.950 . S
C2823 C2840 1.574 . S
C2823 C2842 1.368 . S
C2823 H2847 0.949 . S
H2824 C2828 0.949 . S
C2825 C2826 1.349 . S
C2825 C2827 1.327 . S
C2825 H2848 0.950 . S
C2826 C2825 1.349 . S
C2826 C2838 1.349 . S
C2827 C2825 1.327 . S
C2827 C2843 1.429 . S
C2827 H2849 0.950 . S
C2828 H2824 0.949 . S
C2828 C2836 1.574 . S
C2828 C2844 1.368 . S
H2829 C2837 0.950 . S
H2830 C2835 0.950 . S
H2831 C2836 0.949 . S
H2832 C2838 0.950 . S
H2833 C2839 0.950 . S
H2834 C2840 0.949 . S
C2835 H2830 0.950 . S
C2835 C2837 1.327 . S
C2835 C2841 1.429 . S
C2836 C2828 1.574 . S
C2836 H2831 0.949 . S
C2836 C2842 1.368 . S
C2837 C2821 1.349 . S
C2837 H2829 0.950 . S
C2837 C2835 1.327 . S
C2838 C2826 1.349 . S
C2838 H2832 0.950 . S
C2838 C2839 1.327 . S
C2839 H2833 0.950 . S
C2839 C2838 1.327 . S
C2839 C2843 1.429 . S
C2840 C2823 1.574 . S
C2840 H2834 0.949 . S
C2840 C2844 1.368 . S
C2841 C2822 1.429 . S
C2841 C2835 1.429 . S
C2841 C2842 1.523 . S
C2842 C2823 1.368 . S
C2842 C2836 1.368 . S
C2842 C2841 1.523 . S
C2843 C2827 1.429 . S
C2843 C2839 1.429 . S
C2843 C2844 1.523 . S
C2844 C2828 1.368 . S
C2844 C2840 1.368 . S
C2844 C2843 1.523 . S
H2845 C2820 0.950 . S
H2846 C2822 0.950 . S
H2847 C2823 0.949 . S
H2848 C2825 0.950 . S
H2849 C2827 0.950 . S
C2850 C2851 1.349 . S
C2850 C2852 1.327 . S
C2850 H2875 0.950 . S
C2851 C2850 1.349 . S
C2851 C2867 1.349 . S
C2852 C2850 1.327 . S
C2852 C2871 1.429 . S
C2852 H2876 0.950 . S
C2853 C2870 1.574 . S
C2853 C2872 1.368 . S
C2853 H2877 0.949 . S
H2854 C2858 0.949 . S
C2855 C2856 1.349 . S
C2855 C2857 1.327 . S
C2855 H2878 0.950 . S
C2856 C2855 1.349 . S
C2856 C2868 1.349 . S
C2857 C2855 1.327 . S
C2857 C2873 1.429 . S
C2857 H2879 0.950 . S
C2858 H2854 0.949 . S
C2858 C2866 1.574 . S
C2858 C2874 1.368 . S
H2859 C2867 0.950 . S
H2860 C2865 0.950 . S
H2861 C2866 0.949 . S
H2862 C2868 0.950 . S
H2863 C2869 0.950 . S
H2864 C2870 0.949 . S
C2865 H2860 0.950 . S
C2865 C2867 1.327 . S
C2865 C2871 1.429 . S
C2866 C2858 1.574 . S
C2866 H2861 0.949 . S
C2866 C2872 1.368 . S
C2867 C2851 1.349 . S
C2867 H2859 0.950 . S
C2867 C2865 1.327 . S
C2868 C2856 1.349 . S
C2868 H2862 0.950 . S
C2868 C2869 1.327 . S
C2869 H2863 0.950 . S
C2869 C2868 1.327 . S
C2869 C2873 1.429 . S
C2870 C2853 1.574 . S
C2870 H2864 0.949 . S
C2870 C2874 1.368 . S
C2871 C2852 1.429 . S
C2871 C2865 1.429 . S
C2871 C2872 1.523 . S
C2872 C2853 1.368 . S
C2872 C2866 1.368 . S
C2872 C2871 1.523 . S
C2873 C2857 1.429 . S
C2873 C2869 1.429 . S
C2873 C2874 1.523 . S
C2874 C2858 1.368 . S
C2874 C2870 1.368 . S
C2874 C2873 1.523 . S
H2875 C2850 0.950 . S
H2876 C2852 0.950 . S
H2877 C2853 0.949 . S
H2878 C2855 0.950 . S
H2879 C2857 0.950 . S
C2880 C2881 1.349 . S
C2880 C2882 1.327 . S
C2880 H2905 0.950 . S
C2881 C2880 1.349 . S
C2881 C2897 1.349 . S
C2882 C2880 1.327 . S
C2882 C2901 1.429 . S
C2882 H2906 0.950 . S
C2883 C2900 1.574 . S
C2883 C2902 1.368 . S
C2883 H2907 0.949 . S
H2884 C2888 0.949 . S
C2885 C2886 1.349 . S
C2885 C2887 1.327 . S
C2885 H2908 0.950 . S
C2886 C2885 1.349 . S
C2886 C2898 1.349 . S
C2887 C2885 1.327 . S
C2887 C2903 1.429 . S
C2887 H2909 0.950 . S
C2888 H2884 0.949 . S
C2888 C2896 1.574 . S
C2888 C2904 1.368 . S
H2889 C2897 0.950 . S
H2890 C2895 0.950 . S
H2891 C2896 0.949 . S
H2892 C2898 0.950 . S
H2893 C2899 0.950 . S
H2894 C2900 0.949 . S
C2895 H2890 0.950 . S
C2895 C2897 1.327 . S
C2895 C2901 1.429 . S
C2896 C2888 1.574 . S
C2896 H2891 0.949 . S
C2896 C2902 1.368 . S
C2897 C2881 1.349 . S
C2897 H2889 0.950 . S
C2897 C2895 1.327 . S
C2898 C2886 1.349 . S
C2898 H2892 0.950 . S
C2898 C2899 1.327 . S
C2899 H2893 0.950 . S
C2899 C2898 1.327 . S
C2899 C2903 1.429 . S
C2900 C2883 1.574 . S
C2900 H2894 0.949 . S
C2900 C2904 1.368 . S
C2901 C2882 1.429 . S
C2901 C2895 1.429 . S
C2901 C2902 1.523 . S
C2902 C2883 1.368 . S
C2902 C2896 1.368 . S
C2902 C2901 1.523 . S
C2903 C2887 1.429 . S
C2903 C2899 1.429 . S
C2903 C2904 1.523 . S
C2904 C2888 1.368 . S
C2904 C2900 1.368 . S
C2904 C2903 1.523 . S
H2905 C2880 0.950 . S
H2906 C2882 0.950 . S
H2907 C2883 0.949 . S
H2908 C2885 0.950 . S
H2909 C2887 0.950 . S
C2910 C2911 1.349 . S
C2910 C2912 1.327 . S
C2910 H2935 0.950 . S
C2911 C2910 1.349 . S
C2911 C2927 1.349 . S
C2912 C2910 1.327 . S
C2912 C2931 1.429 . S
C2912 H2936 0.950 . S
C2913 C2930 1.574 . S
C2913 C2932 1.368 . S
C2913 H2937 0.949 . S
H2914 C2918 0.949 . S
C2915 C2916 1.349 . S
C2915 C2917 1.327 . S
C2915 H2938 0.950 . S
C2916 C2915 1.349 . S
C2916 C2928 1.349 . S
C2917 C2915 1.327 . S
C2917 C2933 1.429 . S
C2917 H2939 0.950 . S
C2918 H2914 0.949 . S
C2918 C2926 1.574 . S
C2918 C2934 1.368 . S
H2919 C2927 0.950 . S
H2920 C2925 0.950 . S
H2921 C2926 0.949 . S
H2922 C2928 0.950 . S
H2923 C2929 0.950 . S
H2924 C2930 0.949 . S
C2925 H2920 0.950 . S
C2925 C2927 1.327 . S
C2925 C2931 1.429 . S
C2926 C2918 1.574 . S
C2926 H2921 0.949 . S
C2926 C2932 1.368 . S
C2927 C2911 1.349 . S
C2927 H2919 0.950 . S
C2927 C2925 1.327 . S
C2928 C2916 1.349 . S
C2928 H2922 0.950 . S
C2928 C2929 1.327 . S
C2929 H2923 0.950 . S
C2929 C2928 1.327 . S
C2929 C2933 1.429 . S
C2930 C2913 1.574 . S
C2930 H2924 0.949 . S
C2930 C2934 1.368 . S
C2931 C2912 1.429 . S
C2931 C2925 1.429 . S
C2931 C2932 1.523 . S
C2932 C2913 1.368 . S
C2932 C2926 1.368 . S
C2932 C2931 1.523 . S
C2933 C2917 1.429 . S
C2933 C2929 1.429 . S
C2933 C2934 1.523 . S
C2934 C2918 1.368 . S
C2934 C2930 1.368 . S
C2934 C2933 1.523 . S
H2935 C2910 0.950 . S
H2936 C2912 0.950 . S
H2937 C2913 0.949 . S
H2938 C2915 0.950 . S
H2939 C2917 0.950 . S
C2940 C2941 1.349 . S
C2940 C2942 1.327 . S
C2940 H2965 0.950 . S
C2941 C2940 1.349 . S
C2941 C2957 1.349 . S
C2942 C2940 1.327 . S
C2942 C2961 1.429 . S
C2942 H2966 0.950 . S
C2943 C2960 1.574 . S
C2943 C2962 1.368 . S
C2943 H2967 0.949 . S
H2944 C2948 0.949 . S
C2945 C2946 1.349 . S
C2945 C2947 1.327 . S
C2945 H2968 0.950 . S
C2946 C2945 1.349 . S
C2946 C2958 1.349 . S
C2947 C2945 1.327 . S
C2947 C2963 1.429 . S
C2947 H2969 0.950 . S
C2948 H2944 0.949 . S
C2948 C2956 1.574 . S
C2948 C2964 1.368 . S
H2949 C2957 0.950 . S
H2950 C2955 0.950 . S
H2951 C2956 0.949 . S
H2952 C2958 0.950 . S
H2953 C2959 0.950 . S
H2954 C2960 0.949 . S
C2955 H2950 0.950 . S
C2955 C2957 1.327 . S
C2955 C2961 1.429 . S
C2956 C2948 1.574 . S
C2956 H2951 0.949 . S
C2956 C2962 1.368 . S
C2957 C2941 1.349 . S
C2957 H2949 0.950 . S
C2957 C2955 1.327 . S
C2958 C2946 1.349 . S
C2958 H2952 0.950 . S
C2958 C2959 1.327 . S
C2959 H2953 0.950 . S
C2959 C2958 1.327 . S
C2959 C2963 1.429 . S
C2960 C2943 1.574 . S
C2960 H2954 0.949 . S
C2960 C2964 1.368 . S
C2961 C2942 1.429 . S
C2961 C2955 1.429 . S
C2961 C2962 1.523 . S
C2962 C2943 1.368 . S
C2962 C2956 1.368 . S
C2962 C2961 1.523 . S
C2963 C2947 1.429 . S
C2963 C2959 1.429 . S
C2963 C2964 1.523 . S
C2964 C2948 1.368 . S
C2964 C2960 1.368 . S
C2964 C2963 1.523 . S
H2965 C2940 0.950 . S
H2966 C2942 0.950 . S
H2967 C2943 0.949 . S
H2968 C2945 0.950 . S
H2969 C2947 0.950 . S
C2970 C2971 1.349 . S
C2970 C2972 1.327 . S
C2970 H2995 0.950 . S
C2971 C2970 1.349 . S
C2971 C2987 1.349 . S
C2972 C2970 1.327 . S
C2972 C2991 1.429 . S
C2972 H2996 0.950 . S
C2973 C2990 1.574 . S
C2973 C2992 1.368 . S
C2973 H2997 0.949 . S
H2974 C2978 0.949 . S
C2975 C2976 1.349 . S
C2975 C2977 1.327 . S
C2975 H2998 0.950 . S
C2976 C2975 1.349 . S
C2976 C2988 1.349 . S
C2977 C2975 1.327 . S
C2977 C2993 1.429 . S
C2977 H2999 0.950 . S
C2978 H2974 0.949 . S
C2978 C2986 1.574 . S
C2978 C2994 1.368 . S
H2979 C2987 0.950 . S
H2980 C2985 0.950 . S
H2981 C2986 0.949 . S
H2982 C2988 0.950 . S
H2983 C2989 0.950 . S
H2984 C2990 0.949 . S
C2985 H2980 0.950 . S
C2985 C2987 1.327 . S
C2985 C2991 1.429 . S
C2986 C2978 1.574 . S
C2986 H2981 0.949 . S
C2986 C2992 1.368 . S
C2987 C2971 1.349 . S
C2987 H2979 0.950 . S
C2987 C2985 1.327 . S
C2988 C2976 1.349 . S
C2988 H2982 0.950 . S
C2988 C2989 1.327 . S
C2989 H2983 0.950 . S
C2989 C2988 1.327 . S
C2989 C2993 1.429 . S
C2990 C2973 1.574 . S
C2990 H2984 0.949 . S
C2990 C2994 1.368 . S
C2991 C2972 1.429 . S
C2991 C2985 1.429 . S
C2991 C2992 1.523 . S
C2992 C2973 1.368 . S
C2992 C2986 1.368 . S
C2992 C2991 1.523 . S
C2993 C2977 1.429 . S
C2993 C2989 1.429 . S
C2993 C2994 1.523 . S
C2994 C2978 1.368 . S
C2994 C2990 1.368 . S
C2994 C2993 1.523 . S
H2995 C2970 0.950 . S
H2996 C2972 0.950 . S
H2997 C2973 0.949 . S
H2998 C2975 0.950 . S
H2999 C2977 0.950 . S
C3000 C3001 1.346 1_565 S
C3000 C3002 1.327 . S
C3000 H3025 0.950 . S
C3001 C3000 1.346 1_545 S
C3001 C3017 1.347 1_545 S
C3002 C3000 1.327 . S
C3002 C3021 1.429 . S
C3002 H3026 0.950 . S
C3003 C3020 1.574 . S
C3003 C3022 1.368 . S
C3003 H3027 0.949 . S
H3004 C3008 0.949 . S
C3005 C3006 1.349 . S
C3005 C3007 1.327 . S
C3005 H3028 0.950 . S
C3006 C3005 1.349 . S
C3006 C3018 1.349 . S
C3007 C3005 1.327 . S
C3007 C3023 1.429 . S
C3007 H3029 0.950 . S
C3008 H3004 0.949 . S
C3008 C3016 1.574 . S
C3008 C3024 1.368 . S
H3009 C3017 0.968 . S
H3010 C3015 0.950 . S
H3011 C3016 0.949 . S
H3012 C3018 0.950 . S
H3013 C3019 0.950 . S
H3014 C3020 0.949 . S
C3015 H3010 0.950 . S
C3015 C3017 1.327 . S
C3015 C3021 1.429 . S
C3016 C3008 1.574 . S
C3016 H3011 0.949 . S
C3016 C3022 1.368 . S
C3017 C3001 1.347 1_565 S
C3017 H3009 0.968 . S
C3017 C3015 1.327 . S
C3018 C3006 1.349 . S
C3018 H3012 0.950 . S
C3018 C3019 1.327 . S
C3019 H3013 0.950 . S
C3019 C3018 1.327 . S
C3019 C3023 1.429 . S
C3020 C3003 1.574 . S
C3020 H3014 0.949 . S
C3020 C3024 1.368 . S
C3021 C3002 1.429 . S
C3021 C3015 1.429 . S
C3021 C3022 1.523 . S
C3022 C3003 1.368 . S
C3022 C3016 1.368 . S
C3022 C3021 1.523 . S
C3023 C3007 1.429 . S
C3023 C3019 1.429 . S
C3023 C3024 1.523 . S
C3024 C3008 1.368 . S
C3024 C3020 1.368 . S
C3024 C3023 1.523 . S
H3025 C3000 0.950 . S
H3026 C3002 0.950 . S
H3027 C3003 0.949 . S
H3028 C3005 0.950 . S
H3029 C3007 0.950 . S
C3030 C3031 1.349 . S
C3030 C3032 1.327 . S
C3030 H3055 0.950 . S
C3031 C3030 1.349 . S
C3031 C3047 1.349 . S
C3032 C3030 1.327 . S
C3032 C3051 1.429 . S
C3032 H3056 0.950 . S
C3033 C3050 1.574 . S
C3033 C3052 1.368 . S
C3033 H3057 0.949 . S
H3034 C3038 0.949 . S
C3035 C3036 1.349 . S
C3035 C3037 1.327 . S
C3035 H3058 0.950 . S
C3036 C3035 1.349 . S
C3036 C3048 1.349 . S
C3037 C3035 1.327 . S
C3037 C3053 1.429 . S
C3037 H3059 0.950 . S
C3038 H3034 0.949 . S
C3038 C3046 1.574 . S
C3038 C3054 1.368 . S
H3039 C3047 0.950 . S
H3040 C3045 0.950 . S
H3041 C3046 0.949 . S
H3042 C3048 0.950 1_545 S
H3043 C3049 0.950 . S
H3044 C3050 0.949 . S
C3045 H3040 0.950 . S
C3045 C3047 1.327 . S
C3045 C3051 1.429 . S
C3046 C3038 1.574 . S
C3046 H3041 0.949 . S
C3046 C3052 1.368 . S
C3047 C3031 1.349 . S
C3047 H3039 0.950 . S
C3047 C3045 1.327 . S
C3048 C3036 1.349 . S
C3048 H3042 0.950 1_565 S
C3048 C3049 1.327 . S
C3049 H3043 0.950 . S
C3049 C3048 1.327 . S
C3049 C3053 1.429 . S
C3050 C3033 1.574 . S
C3050 H3044 0.949 . S
C3050 C3054 1.368 . S
C3051 C3032 1.429 . S
C3051 C3045 1.429 . S
C3051 C3052 1.523 . S
C3052 C3033 1.368 . S
C3052 C3046 1.368 . S
C3052 C3051 1.523 . S
C3053 C3037 1.429 . S
C3053 C3049 1.429 . S
C3053 C3054 1.523 . S
C3054 C3038 1.368 . S
C3054 C3050 1.368 . S
C3054 C3053 1.523 . S
H3055 C3030 0.950 . S
H3056 C3032 0.950 . S
H3057 C3033 0.949 . S
H3058 C3035 0.950 . S
H3059 C3037 0.950 . S
C3060 C3061 1.349 . S
C3060 C3062 1.327 . S
C3060 H3085 0.950 . S
C3061 C3060 1.349 . S
C3061 C3077 1.349 . S
C3062 C3060 1.327 . S
C3062 C3081 1.429 . S
C3062 H3086 0.950 . S
C3063 C3080 1.574 . S
C3063 C3082 1.368 . S
C3063 H3087 0.949 . S
H3064 C3068 0.949 . S
C3065 C3066 1.349 . S
C3065 C3067 1.327 . S
C3065 H3088 0.950 . S
C3066 C3065 1.349 . S
C3066 C3078 1.349 . S
C3067 C3065 1.327 . S
C3067 C3083 1.429 . S
C3067 H3089 0.950 . S
C3068 H3064 0.949 . S
C3068 C3076 1.574 . S
C3068 C3084 1.368 . S
H3069 C3077 0.950 . S
H3070 C3075 0.950 . S
H3071 C3076 0.949 . S
H3072 C3078 0.950 . S
H3073 C3079 0.950 . S
H3074 C3080 0.949 . S
C3075 H3070 0.950 . S
C3075 C3077 1.327 . S
C3075 C3081 1.429 . S
C3076 C3068 1.574 . S
C3076 H3071 0.949 . S
C3076 C3082 1.368 . S
C3077 C3061 1.349 . S
C3077 H3069 0.950 . S
C3077 C3075 1.327 . S
C3078 C3066 1.349 . S
C3078 H3072 0.950 . S
C3078 C3079 1.327 . S
C3079 H3073 0.950 . S
C3079 C3078 1.327 . S
C3079 C3083 1.429 . S
C3080 C3063 1.574 . S
C3080 H3074 0.949 . S
C3080 C3084 1.368 . S
C3081 C3062 1.429 . S
C3081 C3075 1.429 . S
C3081 C3082 1.523 . S
C3082 C3063 1.368 . S
C3082 C3076 1.368 . S
C3082 C3081 1.523 . S
C3083 C3067 1.429 . S
C3083 C3079 1.429 . S
C3083 C3084 1.523 . S
C3084 C3068 1.368 . S
C3084 C3080 1.368 . S
C3084 C3083 1.523 . S
H3085 C3060 0.950 . S
H3086 C3062 0.950 . S
H3087 C3063 0.949 . S
H3088 C3065 0.950 . S
H3089 C3067 0.950 . S
C3090 C3091 1.349 . S
C3090 C3092 1.327 . S
C3090 H3115 0.950 . S
C3091 C3090 1.349 . S
C3091 C3107 1.349 . S
C3092 C3090 1.327 . S
C3092 C3111 1.429 . S
C3092 H3116 0.950 . S
C3093 C3110 1.574 . S
C3093 C3112 1.368 . S
C3093 H3117 0.949 . S
H3094 C3098 0.949 . S
C3095 C3096 1.349 . S
C3095 C3097 1.327 . S
C3095 H3118 0.950 . S
C3096 C3095 1.349 . S
C3096 C3108 1.349 . S
C3097 C3095 1.327 . S
C3097 C3113 1.429 . S
C3097 H3119 0.950 . S
C3098 H3094 0.949 . S
C3098 C3106 1.574 . S
C3098 C3114 1.368 . S
H3099 C3107 0.950 . S
H3100 C3105 0.950 . S
H3101 C3106 0.949 . S
H3102 C3108 0.950 . S
H3103 C3109 0.950 . S
H3104 C3110 0.949 . S
C3105 H3100 0.950 . S
C3105 C3107 1.327 . S
C3105 C3111 1.429 . S
C3106 C3098 1.574 . S
C3106 H3101 0.949 . S
C3106 C3112 1.368 . S
C3107 C3091 1.349 . S
C3107 H3099 0.950 . S
C3107 C3105 1.327 . S
C3108 C3096 1.349 . S
C3108 H3102 0.950 . S
C3108 C3109 1.327 . S
C3109 H3103 0.950 . S
C3109 C3108 1.327 . S
C3109 C3113 1.429 . S
C3110 C3093 1.574 . S
C3110 H3104 0.949 . S
C3110 C3114 1.368 . S
C3111 C3092 1.429 . S
C3111 C3105 1.429 . S
C3111 C3112 1.523 . S
C3112 C3093 1.368 . S
C3112 C3106 1.368 . S
C3112 C3111 1.523 . S
C3113 C3097 1.429 . S
C3113 C3109 1.429 . S
C3113 C3114 1.523 . S
C3114 C3098 1.368 . S
C3114 C3110 1.368 . S
C3114 C3113 1.523 . S
H3115 C3090 0.950 . S
H3116 C3092 0.950 . S
H3117 C3093 0.949 . S
H3118 C3095 0.950 . S
H3119 C3097 0.950 . S
C3120 C3121 1.349 . S
C3120 C3122 1.327 . S
C3120 H3145 0.950 . S
C3121 C3120 1.349 . S
C3121 C3137 1.349 . S
C3122 C3120 1.327 . S
C3122 C3141 1.429 . S
C3122 H3146 0.950 . S
C3123 C3140 1.574 . S
C3123 C3142 1.368 . S
C3123 H3147 0.949 . S
H3124 C3128 0.949 . S
C3125 C3126 1.349 . S
C3125 C3127 1.327 . S
C3125 H3148 0.950 . S
C3126 C3125 1.349 . S
C3126 C3138 1.349 . S
C3127 C3125 1.327 . S
C3127 C3143 1.429 . S
C3127 H3149 0.950 . S
C3128 H3124 0.949 . S
C3128 C3136 1.574 . S
C3128 C3144 1.368 . S
H3129 C3137 0.950 . S
H3130 C3135 0.950 . S
H3131 C3136 0.949 . S
H3132 C3138 0.950 . S
H3133 C3139 0.950 . S
H3134 C3140 0.949 . S
C3135 H3130 0.950 . S
C3135 C3137 1.327 . S
C3135 C3141 1.429 . S
C3136 C3128 1.574 . S
C3136 H3131 0.949 . S
C3136 C3142 1.368 . S
C3137 C3121 1.349 . S
C3137 H3129 0.950 . S
C3137 C3135 1.327 . S
C3138 C3126 1.349 . S
C3138 H3132 0.950 . S
C3138 C3139 1.327 . S
C3139 H3133 0.950 . S
C3139 C3138 1.327 . S
C3139 C3143 1.429 . S
C3140 C3123 1.574 . S
C3140 H3134 0.949 . S
C3140 C3144 1.368 . S
C3141 C3122 1.429 . S
C3141 C3135 1.429 . S
C3141 C3142 1.523 . S
C3142 C3123 1.368 . S
C3142 C3136 1.368 . S
C3142 C3141 1.523 . S
C3143 C3127 1.429 . S
C3143 C3139 1.429 . S
C3143 C3144 1.523 . S
C3144 C3128 1.368 . S
C3144 C3140 1.368 . S
C3144 C3143 1.523 . S
H3145 C3120 0.950 . S
H3146 C3122 0.950 . S
H3147 C3123 0.949 . S
H3148 C3125 0.950 . S
H3149 C3127 0.950 . S
C3150 C3151 1.349 . S
C3150 C3152 1.327 . S
C3150 H3175 0.950 . S
C3151 C3150 1.349 . S
C3151 C3167 1.349 . S
C3152 C3150 1.327 . S
C3152 C3171 1.429 . S
C3152 H3176 0.950 . S
C3153 C3170 1.574 . S
C3153 C3172 1.368 . S
C3153 H3177 0.949 . S
H3154 C3158 0.949 . S
C3155 C3156 1.349 . S
C3155 C3157 1.327 . S
C3155 H3178 0.950 . S
C3156 C3155 1.349 . S
C3156 C3168 1.349 . S
C3157 C3155 1.327 . S
C3157 C3173 1.429 . S
C3157 H3179 0.950 . S
C3158 H3154 0.949 . S
C3158 C3166 1.574 . S
C3158 C3174 1.368 . S
H3159 C3167 0.950 . S
H3160 C3165 0.950 . S
H3161 C3166 0.949 . S
H3162 C3168 0.950 . S
H3163 C3169 0.950 . S
H3164 C3170 0.949 . S
C3165 H3160 0.950 . S
C3165 C3167 1.327 . S
C3165 C3171 1.429 . S
C3166 C3158 1.574 . S
C3166 H3161 0.949 . S
C3166 C3172 1.368 . S
C3167 C3151 1.349 . S
C3167 H3159 0.950 . S
C3167 C3165 1.327 . S
C3168 C3156 1.349 . S
C3168 H3162 0.950 . S
C3168 C3169 1.327 . S
C3169 H3163 0.950 . S
C3169 C3168 1.327 . S
C3169 C3173 1.429 . S
C3170 C3153 1.574 . S
C3170 H3164 0.949 . S
C3170 C3174 1.368 . S
C3171 C3152 1.429 . S
C3171 C3165 1.429 . S
C3171 C3172 1.523 . S
C3172 C3153 1.368 . S
C3172 C3166 1.368 . S
C3172 C3171 1.523 . S
C3173 C3157 1.429 . S
C3173 C3169 1.429 . S
C3173 C3174 1.523 . S
C3174 C3158 1.368 . S
C3174 C3170 1.368 . S
C3174 C3173 1.523 . S
H3175 C3150 0.950 . S
H3176 C3152 0.950 . S
H3177 C3153 0.949 . S
H3178 C3155 0.950 . S
H3179 C3157 0.950 . S
C3180 C3181 1.349 . S
C3180 C3182 1.327 . S
C3180 H3205 0.950 . S
C3181 C3180 1.349 . S
C3181 C3197 1.349 . S
C3182 C3180 1.327 . S
C3182 C3201 1.429 . S
C3182 H3206 0.950 . S
C3183 C3200 1.574 . S
C3183 C3202 1.368 1_554 S
C3183 H3207 0.949 . S
H3184 C3188 0.949 . S
C3185 C3186 1.349 . S
C3185 C3187 1.327 . S
C3185 H3208 0.950 . S
C3186 C3185 1.349 . S
C3186 C3198 1.349 . S
C3187 C3185 1.327 . S
C3187 C3203 1.429 . S
C3187 H3209 0.950 . S
C3188 H3184 0.949 . S
C3188 C3196 1.574 . S
C3188 C3204 1.368 1_556 S
H3189 C3197 0.950 . S
H3190 C3195 0.950 . S
H3191 C3196 0.949 . S
H3192 C3198 0.950 . S
H3193 C3199 0.950 1_556 S
H3194 C3200 0.949 . S
C3195 H3190 0.950 . S
C3195 C3197 1.327 . S
C3195 C3201 1.429 . S
C3196 C3188 1.574 . S
C3196 H3191 0.949 . S
C3196 C3202 1.368 . S
C3197 C3181 1.349 . S
C3197 H3189 0.950 . S
C3197 C3195 1.327 . S
C3198 C3186 1.349 . S
C3198 H3192 0.950 . S
C3198 C3199 1.327 . S
C3199 H3193 0.950 1_554 S
C3199 C3198 1.327 . S
C3199 C3203 1.429 . S
C3200 C3183 1.574 . S
C3200 H3194 0.949 . S
C3200 C3204 1.368 . S
C3201 C3182 1.429 . S
C3201 C3195 1.429 . S
C3201 C3202 1.523 . S
C3202 C3183 1.368 1_556 S
C3202 C3196 1.368 . S
C3202 C3201 1.523 . S
C3203 C3187 1.429 . S
C3203 C3199 1.429 . S
C3203 C3204 1.523 . S
C3204 C3188 1.368 1_554 S
C3204 C3200 1.368 . S
C3204 C3203 1.523 . S
H3205 C3180 0.950 . S
H3206 C3182 0.950 . S
H3207 C3183 0.949 . S
H3208 C3185 0.950 . S
H3209 C3187 0.950 . S
C3210 C3211 1.349 . S
C3210 C3212 1.303 1_455 S
C3210 H3235 0.950 . S
C3211 C3210 1.349 . S
C3211 C3227 1.349 . S
C3212 C3210 1.303 1_655 S
C3212 C3231 1.431 . S
C3212 H3236 0.972 . S
C3213 C3230 1.574 . S
C3213 C3232 1.368 . S
C3213 H3237 0.949 . S
H3214 C3218 0.949 . S
C3215 C3216 1.349 . S
C3215 C3217 1.327 . S
C3215 H3238 0.950 . S
C3216 C3215 1.349 . S
C3216 C3228 1.349 . S
C3217 C3215 1.327 . S
C3217 C3233 1.429 . S
C3217 H3239 0.950 . S
C3218 H3214 0.949 . S
C3218 C3226 1.574 . S
C3218 C3234 1.368 . S
H3219 C3227 0.950 . S
H3220 C3225 0.950 . S
H3221 C3226 0.949 . S
H3222 C3228 0.950 . S
H3223 C3229 0.950 . S
H3224 C3230 0.949 . S
C3225 H3220 0.950 . S
C3225 C3227 1.327 . S
C3225 C3231 1.429 1_455 S
C3226 C3218 1.574 . S
C3226 H3221 0.949 . S
C3226 C3232 1.368 . S
C3227 C3211 1.349 . S
C3227 H3219 0.950 . S
C3227 C3225 1.327 . S
C3228 C3216 1.349 . S
C3228 H3222 0.950 . S
C3228 C3229 1.327 . S
C3229 H3223 0.950 . S
C3229 C3228 1.327 . S
C3229 C3233 1.429 . S
C3230 C3213 1.574 . S
C3230 H3224 0.949 . S
C3230 C3234 1.368 . S
C3231 C3212 1.431 . S
C3231 C3225 1.429 1_655 S
C3231 C3232 1.523 . S
C3232 C3213 1.368 . S
C3232 C3226 1.368 . S
C3232 C3231 1.523 . S
C3233 C3217 1.429 . S
C3233 C3229 1.429 . S
C3233 C3234 1.523 . S
C3234 C3218 1.368 . S
C3234 C3230 1.368 . S
C3234 C3233 1.523 . S
H3235 C3210 0.950 . S
H3236 C3212 0.972 . S
H3237 C3213 0.949 . S
H3238 C3215 0.950 . S
H3239 C3217 0.950 . S
C3240 C3241 1.349 . S
C3240 C3242 1.327 . S
C3240 H3265 0.950 . S
C3241 C3240 1.349 . S
C3241 C3257 1.349 . S
C3242 C3240 1.327 . S
C3242 C3261 1.429 . S
C3242 H3266 0.950 . S
C3243 C3260 1.574 . S
C3243 C3262 1.368 . S
C3243 H3267 0.949 . S
H3244 C3248 0.949 . S
C3245 C3246 1.349 . S
C3245 C3247 1.327 . S
C3245 H3268 0.950 . S
C3246 C3245 1.349 . S
C3246 C3258 1.349 . S
C3247 C3245 1.327 . S
C3247 C3263 1.429 . S
C3247 H3269 0.950 . S
C3248 H3244 0.949 . S
C3248 C3256 1.574 . S
C3248 C3264 1.368 . S
H3249 C3257 0.950 . S
H3250 C3255 0.950 . S
H3251 C3256 0.949 . S
H3252 C3258 0.950 . S
H3253 C3259 0.950 . S
H3254 C3260 0.949 . S
C3255 H3250 0.950 . S
C3255 C3257 1.327 . S
C3255 C3261 1.429 . S
C3256 C3248 1.574 . S
C3256 H3251 0.949 . S
C3256 C3262 1.368 . S
C3257 C3241 1.349 . S
C3257 H3249 0.950 . S
C3257 C3255 1.327 . S
C3258 C3246 1.349 . S
C3258 H3252 0.950 . S
C3258 C3259 1.327 . S
C3259 H3253 0.950 . S
C3259 C3258 1.327 . S
C3259 C3263 1.429 . S
C3260 C3243 1.574 . S
C3260 H3254 0.949 . S
C3260 C3264 1.368 . S
C3261 C3242 1.429 . S
C3261 C3255 1.429 . S
C3261 C3262 1.523 . S
C3262 C3243 1.368 . S
C3262 C3256 1.368 . S
C3262 C3261 1.523 . S
C3263 C3247 1.429 . S
C3263 C3259 1.429 . S
C3263 C3264 1.523 . S
C3264 C3248 1.368 . S
C3264 C3260 1.368 . S
C3264 C3263 1.523 . S
H3265 C3240 0.950 . S
H3266 C3242 0.950 . S
H3267 C3243 0.949 . S
H3268 C3245 0.950 . S
H3269 C3247 0.950 . S
C3270 C3271 1.349 . S
C3270 C3272 1.327 . S
C3270 H3295 0.950 . S
C3271 C3270 1.349 . S
C3271 C3287 1.349 . S
C3272 C3270 1.327 . S
C3272 C3291 1.429 . S
C3272 H3296 0.950 . S
C3273 C3290 1.574 1_455 S
C3273 C3292 1.368 . S
C3273 H3297 0.949 . S
H3274 C3278 0.949 . S
C3275 C3276 1.349 . S
C3275 C3277 1.327 . S
C3275 H3298 0.950 . S
C3276 C3275 1.349 . S
C3276 C3288 1.349 . S
C3277 C3275 1.327 . S
C3277 C3293 1.429 . S
C3277 H3299 0.950 . S
C3278 H3274 0.949 . S
C3278 C3286 1.574 . S
C3278 C3294 1.368 . S
H3279 C3287 0.950 . S
H3280 C3285 0.950 . S
H3281 C3286 0.949 . S
H3282 C3288 0.950 . S
H3283 C3289 0.950 . S
H3284 C3290 0.949 . S
C3285 H3280 0.950 . S
C3285 C3287 1.327 . S
C3285 C3291 1.429 . S
C3286 C3278 1.574 . S
C3286 H3281 0.949 . S
C3286 C3292 1.368 1_655 S
C3287 C3271 1.349 . S
C3287 H3279 0.950 . S
C3287 C3285 1.327 . S
C3288 C3276 1.349 . S
C3288 H3282 0.950 . S
C3288 C3289 1.327 . S
C3289 H3283 0.950 . S
C3289 C3288 1.327 . S
C3289 C3293 1.429 . S
C3290 C3273 1.574 1_655 S
C3290 H3284 0.949 . S
C3290 C3294 1.368 . S
C3291 C3272 1.429 . S
C3291 C3285 1.429 . S
C3291 C3292 1.523 . S
C3292 C3273 1.368 . S
C3292 C3286 1.368 1_455 S
C3292 C3291 1.523 . S
C3293 C3277 1.429 . S
C3293 C3289 1.429 . S
C3293 C3294 1.523 . S
C3294 C3278 1.368 . S
C3294 C3290 1.368 . S
C3294 C3293 1.523 . S
H3295 C3270 0.950 . S
H3296 C3272 0.950 . S
H3297 C3273 0.949 . S
H3298 C3275 0.950 . S
H3299 C3277 0.950 . S
C3300 C3301 1.349 . S
C3300 C3302 1.327 1_655 S
C3300 H3325 0.950 . S
C3301 C3300 1.349 . S
C3301 C3317 1.349 1_655 S
C3302 C3300 1.327 1_455 S
C3302 C3321 1.429 . S
C3302 H3326 0.948 . S
C3303 C3320 1.574 . S
C3303 C3322 1.368 . S
C3303 H3327 0.949 . S
H3304 C3308 0.949 . S
C3305 C3306 1.349 . S
C3305 C3307 1.327 . S
C3305 H3328 0.950 . S
C3306 C3305 1.349 . S
C3306 C3318 1.349 . S
C3307 C3305 1.327 . S
C3307 C3323 1.429 . S
C3307 H3329 0.950 . S
C3308 H3304 0.949 . S
C3308 C3316 1.574 . S
C3308 C3324 1.368 . S
H3309 C3317 0.950 . S
H3310 C3315 0.950 . S
H3311 C3316 0.949 . S
H3312 C3318 0.950 . S
H3313 C3319 0.950 . S
H3314 C3320 0.949 . S
C3315 H3310 0.950 . S
C3315 C3317 1.327 . S
C3315 C3321 1.429 . S
C3316 C3308 1.574 . S
C3316 H3311 0.949 . S
C3316 C3322 1.368 . S
C3317 C3301 1.349 1_455 S
C3317 H3309 0.950 . S
C3317 C3315 1.327 . S
C3318 C3306 1.349 . S
C3318 H3312 0.950 . S
C3318 C3319 1.327 . S
C3319 H3313 0.950 . S
C3319 C3318 1.327 . S
C3319 C3323 1.429 . S
C3320 C3303 1.574 . S
C3320 H3314 0.949 . S
C3320 C3324 1.368 . S
C3321 C3302 1.429 . S
C3321 C3315 1.429 . S
C3321 C3322 1.523 . S
C3322 C3303 1.368 . S
C3322 C3316 1.368 . S
C3322 C3321 1.523 . S
C3323 C3307 1.429 . S
C3323 C3319 1.429 . S
C3323 C3324 1.523 . S
C3324 C3308 1.368 . S
C3324 C3320 1.368 . S
C3324 C3323 1.523 . S
H3325 C3300 0.950 . S
H3326 C3302 0.948 . S
H3327 C3303 0.949 . S
H3328 C3305 0.950 . S
H3329 C3307 0.950 . S
C3330 C3331 1.349 . S
C3330 C3332 1.327 . S
C3330 H3355 0.950 . S
C3331 C3330 1.349 . S
C3331 C3347 1.349 . S
C3332 C3330 1.327 . S
C3332 C3351 1.429 . S
C3332 H3356 0.950 . S
C3333 C3350 1.574 . S
C3333 C3352 1.368 . S
C3333 H3357 0.949 . S
H3334 C3338 0.949 . S
C3335 C3336 1.349 . S
C3335 C3337 1.327 . S
C3335 H3358 0.950 . S
C3336 C3335 1.349 . S
C3336 C3348 1.349 . S
C3337 C3335 1.327 . S
C3337 C3353 1.429 . S
C3337 H3359 0.950 . S
C3338 H3334 0.949 . S
C3338 C3346 1.574 . S
C3338 C3354 1.368 . S
H3339 C3347 0.950 . S
H3340 C3345 0.950 . S
H3341 C3346 0.949 . S
H3342 C3348 0.950 . S
H3343 C3349 0.950 . S
H3344 C3350 0.949 . S
C3345 H3340 0.950 . S
C3345 C3347 1.327 . S
C3345 C3351 1.429 . S
C3346 C3338 1.574 . S
C3346 H3341 0.949 . S
C3346 C3352 1.368 . S
C3347 C3331 1.349 . S
C3347 H3339 0.950 . S
C3347 C3345 1.327 . S
C3348 C3336 1.349 . S
C3348 H3342 0.950 . S
C3348 C3349 1.327 . S
C3349 H3343 0.950 . S
C3349 C3348 1.327 . S
C3349 C3353 1.429 . S
C3350 C3333 1.574 . S
C3350 H3344 0.949 . S
C3350 C3354 1.368 . S
C3351 C3332 1.429 . S
C3351 C3345 1.429 . S
C3351 C3352 1.523 . S
C3352 C3333 1.368 . S
C3352 C3346 1.368 . S
C3352 C3351 1.523 . S
C3353 C3337 1.429 . S
C3353 C3349 1.429 . S
C3353 C3354 1.523 . S
C3354 C3338 1.368 . S
C3354 C3350 1.368 . S
C3354 C3353 1.523 . S
H3355 C3330 0.950 . S
H3356 C3332 0.950 . S
H3357 C3333 0.949 . S
H3358 C3335 0.950 . S
H3359 C3337 0.950 . S
C3360 C3361 1.349 . S
C3360 C3362 1.327 . S
C3360 H3385 0.950 . S
C3361 C3360 1.349 . S
C3361 C3377 1.349 . S
C3362 C3360 1.327 . S
C3362 C3381 1.429 . S
C3362 H3386 0.950 . S
C3363 C3380 1.574 . S
C3363 C3382 1.368 . S
C3363 H3387 0.949 . S
H3364 C3368 0.949 . S
C3365 C3366 1.349 . S
C3365 C3367 1.327 . S
C3365 H3388 0.950 . S
C3366 C3365 1.349 . S
C3366 C3378 1.349 . S
C3367 C3365 1.327 . S
C3367 C3383 1.429 . S
C3367 H3389 0.950 . S
C3368 H3364 0.949 . S
C3368 C3376 1.574 . S
C3368 C3384 1.368 . S
H3369 C3377 0.950 . S
H3370 C3375 0.950 . S
H3371 C3376 0.949 . S
H3372 C3378 0.950 . S
H3373 C3379 0.950 . S
H3374 C3380 0.949 . S
C3375 H3370 0.950 . S
C3375 C3377 1.327 . S
C3375 C3381 1.429 . S
C3376 C3368 1.574 . S
C3376 H3371 0.949 . S
C3376 C3382 1.368 . S
C3377 C3361 1.349 . S
C3377 H3369 0.950 . S
C3377 C3375 1.327 . S
C3378 C3366 1.349 . S
C3378 H3372 0.950 . S
C3378 C3379 1.327 . S
C3379 H3373 0.950 . S
C3379 C3378 1.327 . S
C3379 C3383 1.429 . S
C3380 C3363 1.574 . S
C3380 H3374 0.949 . S
C3380 C3384 1.368 . S
C3381 C3362 1.429 . S
C3381 C3375 1.429 . S
C3381 C3382 1.523 . S
C3382 C3363 1.368 . S
C3382 C3376 1.368 . S
C3382 C3381 1.523 . S
C3383 C3367 1.429 . S
C3383 C3379 1.429 . S
C3383 C3384 1.523 . S
C3384 C3368 1.368 . S
C3384 C3380 1.368 . S
C3384 C3383 1.523 . S
H3385 C3360 0.950 . S
H3386 C3362 0.950 . S
H3387 C3363 0.949 . S
H3388 C3365 0.950 . S
H3389 C3367 0.950 . S
C3390 C3391 1.349 . S
C3390 C3392 1.327 . S
C3390 H3415 0.950 . S
C3391 C3390 1.349 . S
C3391 C3407 1.349 . S
C3392 C3390 1.327 . S
C3392 C3411 1.429 . S
C3392 H3416 0.950 . S
C3393 C3410 1.574 . S
C3393 C3412 1.368 . S
C3393 H3417 0.949 . S
H3394 C3398 0.949 . S
C3395 C3396 1.349 . S
C3395 C3397 1.327 . S
C3395 H3418 0.950 . S
C3396 C3395 1.349 . S
C3396 C3408 1.349 . S
C3397 C3395 1.327 . S
C3397 C3413 1.429 . S
C3397 H3419 0.950 . S
C3398 H3394 0.949 . S
C3398 C3406 1.574 . S
C3398 C3414 1.368 . S
H3399 C3407 0.950 . S
H3400 C3405 0.950 . S
H3401 C3406 0.949 . S
H3402 C3408 0.950 . S
H3403 C3409 0.950 . S
H3404 C3410 0.949 . S
C3405 H3400 0.950 . S
C3405 C3407 1.327 . S
C3405 C3411 1.429 . S
C3406 C3398 1.574 . S
C3406 H3401 0.949 . S
C3406 C3412 1.368 . S
C3407 C3391 1.349 . S
C3407 H3399 0.950 . S
C3407 C3405 1.327 . S
C3408 C3396 1.349 . S
C3408 H3402 0.950 . S
C3408 C3409 1.327 . S
C3409 H3403 0.950 . S
C3409 C3408 1.327 . S
C3409 C3413 1.429 . S
C3410 C3393 1.574 . S
C3410 H3404 0.949 . S
C3410 C3414 1.368 . S
C3411 C3392 1.429 . S
C3411 C3405 1.429 . S
C3411 C3412 1.523 . S
C3412 C3393 1.368 . S
C3412 C3406 1.368 . S
C3412 C3411 1.523 . S
C3413 C3397 1.429 . S
C3413 C3409 1.429 . S
C3413 C3414 1.523 . S
C3414 C3398 1.368 . S
C3414 C3410 1.368 . S
C3414 C3413 1.523 . S
H3415 C3390 0.950 . S
H3416 C3392 0.950 . S
H3417 C3393 0.949 . S
H3418 C3395 0.950 . S
H3419 C3397 0.950 . S
C3420 C3421 1.349 . S
C3420 C3422 1.327 . S
C3420 H3445 0.950 . S
C3421 C3420 1.349 . S
C3421 C3437 1.349 . S
C3422 C3420 1.327 . S
C3422 C3441 1.429 . S
C3422 H3446 0.950 . S
C3423 C3440 1.574 . S
C3423 C3442 1.368 . S
C3423 H3447 0.949 . S
H3424 C3428 0.949 . S
C3425 C3426 1.349 . S
C3425 C3427 1.327 . S
C3425 H3448 0.950 . S
C3426 C3425 1.349 . S
C3426 C3438 1.349 . S
C3427 C3425 1.327 . S
C3427 C3443 1.429 . S
C3427 H3449 0.950 . S
C3428 H3424 0.949 . S
C3428 C3436 1.574 . S
C3428 C3444 1.368 . S
H3429 C3437 0.950 . S
H3430 C3435 0.950 . S
H3431 C3436 0.949 . S
H3432 C3438 0.950 . S
H3433 C3439 0.950 . S
H3434 C3440 0.949 . S
C3435 H3430 0.950 . S
C3435 C3437 1.327 . S
C3435 C3441 1.429 . S
C3436 C3428 1.574 . S
C3436 H3431 0.949 . S
C3436 C3442 1.368 . S
C3437 C3421 1.349 . S
C3437 H3429 0.950 . S
C3437 C3435 1.327 . S
C3438 C3426 1.349 . S
C3438 H3432 0.950 . S
C3438 C3439 1.327 . S
C3439 H3433 0.950 . S
C3439 C3438 1.327 . S
C3439 C3443 1.429 . S
C3440 C3423 1.574 . S
C3440 H3434 0.949 . S
C3440 C3444 1.368 . S
C3441 C3422 1.429 . S
C3441 C3435 1.429 . S
C3441 C3442 1.523 . S
C3442 C3423 1.368 . S
C3442 C3436 1.368 . S
C3442 C3441 1.523 . S
C3443 C3427 1.429 . S
C3443 C3439 1.429 . S
C3443 C3444 1.523 . S
C3444 C3428 1.368 . S
C3444 C3440 1.368 . S
C3444 C3443 1.523 . S
H3445 C3420 0.950 . S
H3446 C3422 0.950 . S
H3447 C3423 0.949 . S
H3448 C3425 0.950 . S
H3449 C3427 0.950 . S
C3450 C3451 1.349 . S
C3450 C3452 1.327 . S
C3450 H3475 0.950 . S
C3451 C3450 1.349 . S
C3451 C3467 1.349 . S
C3452 C3450 1.327 . S
C3452 C3471 1.429 . S
C3452 H3476 0.950 . S
C3453 C3470 1.574 . S
C3453 C3472 1.368 . S
C3453 H3477 0.949 . S
H3454 C3458 0.949 . S
C3455 C3456 1.349 . S
C3455 C3457 1.327 . S
C3455 H3478 0.950 . S
C3456 C3455 1.349 . S
C3456 C3468 1.349 . S
C3457 C3455 1.327 . S
C3457 C3473 1.429 . S
C3457 H3479 0.950 . S
C3458 H3454 0.949 . S
C3458 C3466 1.574 . S
C3458 C3474 1.368 . S
H3459 C3467 0.950 . S
H3460 C3465 0.950 . S
H3461 C3466 0.949 . S
H3462 C3468 0.950 . S
H3463 C3469 0.950 . S
H3464 C3470 0.949 . S
C3465 H3460 0.950 . S
C3465 C3467 1.327 . S
C3465 C3471 1.429 . S
C3466 C3458 1.574 . S
C3466 H3461 0.949 . S
C3466 C3472 1.368 . S
C3467 C3451 1.349 . S
C3467 H3459 0.950 . S
C3467 C3465 1.327 . S
C3468 C3456 1.349 . S
C3468 H3462 0.950 . S
C3468 C3469 1.327 . S
C3469 H3463 0.950 . S
C3469 C3468 1.327 . S
C3469 C3473 1.429 . S
C3470 C3453 1.574 . S
C3470 H3464 0.949 . S
C3470 C3474 1.368 . S
C3471 C3452 1.429 . S
C3471 C3465 1.429 . S
C3471 C3472 1.523 . S
C3472 C3453 1.368 . S
C3472 C3466 1.368 . S
C3472 C3471 1.523 . S
C3473 C3457 1.429 . S
C3473 C3469 1.429 . S
C3473 C3474 1.523 . S
C3474 C3458 1.368 . S
C3474 C3470 1.368 . S
C3474 C3473 1.523 . S
H3475 C3450 0.950 . S
H3476 C3452 0.950 . S
H3477 C3453 0.949 . S
H3478 C3455 0.950 . S
H3479 C3457 0.950 . S
C3480 C3481 1.349 . S
C3480 C3482 1.327 . S
C3480 H3505 0.950 . S
C3481 C3480 1.349 . S
C3481 C3497 1.349 . S
C3482 C3480 1.327 . S
C3482 C3501 1.429 . S
C3482 H3506 0.950 . S
C3483 C3500 1.574 . S
C3483 C3502 1.368 . S
C3483 H3507 0.949 . S
H3484 C3488 0.949 . S
C3485 C3486 1.349 . S
C3485 C3487 1.327 . S
C3485 H3508 0.950 . S
C3486 C3485 1.349 . S
C3486 C3498 1.349 . S
C3487 C3485 1.327 . S
C3487 C3503 1.429 . S
C3487 H3509 0.950 . S
C3488 H3484 0.949 . S
C3488 C3496 1.574 . S
C3488 C3504 1.368 . S
H3489 C3497 0.950 . S
H3490 C3495 0.950 . S
H3491 C3496 0.949 . S
H3492 C3498 0.950 . S
H3493 C3499 0.950 . S
H3494 C3500 0.949 . S
C3495 H3490 0.950 . S
C3495 C3497 1.327 . S
C3495 C3501 1.429 . S
C3496 C3488 1.574 . S
C3496 H3491 0.949 . S
C3496 C3502 1.368 . S
C3497 C3481 1.349 . S
C3497 H3489 0.950 . S
C3497 C3495 1.327 . S
C3498 C3486 1.349 . S
C3498 H3492 0.950 . S
C3498 C3499 1.327 . S
C3499 H3493 0.950 . S
C3499 C3498 1.327 . S
C3499 C3503 1.429 . S
C3500 C3483 1.574 . S
C3500 H3494 0.949 . S
C3500 C3504 1.368 . S
C3501 C3482 1.429 . S
C3501 C3495 1.429 . S
C3501 C3502 1.523 . S
C3502 C3483 1.368 . S
C3502 C3496 1.368 . S
C3502 C3501 1.523 . S
C3503 C3487 1.429 . S
C3503 C3499 1.429 . S
C3503 C3504 1.523 . S
C3504 C3488 1.368 . S
C3504 C3500 1.368 . S
C3504 C3503 1.523 . S
H3505 C3480 0.950 . S
H3506 C3482 0.950 . S
H3507 C3483 0.949 . S
H3508 C3485 0.950 . S
H3509 C3487 0.950 . S
C3510 C3511 1.349 . S
C3510 C3512 1.327 . S
C3510 H3535 0.950 . S
C3511 C3510 1.349 . S
C3511 C3527 1.349 . S
C3512 C3510 1.327 . S
C3512 C3531 1.429 . S
C3512 H3536 0.950 . S
C3513 C3530 1.574 . S
C3513 C3532 1.368 . S
C3513 H3537 0.949 . S
H3514 C3518 0.949 . S
C3515 C3516 1.349 . S
C3515 C3517 1.327 . S
C3515 H3538 0.950 . S
C3516 C3515 1.349 . S
C3516 C3528 1.349 . S
C3517 C3515 1.327 . S
C3517 C3533 1.429 . S
C3517 H3539 0.950 . S
C3518 H3514 0.949 . S
C3518 C3526 1.574 . S
C3518 C3534 1.368 . S
H3519 C3527 0.950 . S
H3520 C3525 0.950 . S
H3521 C3526 0.949 . S
H3522 C3528 0.950 . S
H3523 C3529 0.950 . S
H3524 C3530 0.949 . S
C3525 H3520 0.950 . S
C3525 C3527 1.327 . S
C3525 C3531 1.429 . S
C3526 C3518 1.574 . S
C3526 H3521 0.949 . S
C3526 C3532 1.368 . S
C3527 C3511 1.349 . S
C3527 H3519 0.950 . S
C3527 C3525 1.327 . S
C3528 C3516 1.349 . S
C3528 H3522 0.950 . S
C3528 C3529 1.327 . S
C3529 H3523 0.950 . S
C3529 C3528 1.327 . S
C3529 C3533 1.429 . S
C3530 C3513 1.574 . S
C3530 H3524 0.949 . S
C3530 C3534 1.368 . S
C3531 C3512 1.429 . S
C3531 C3525 1.429 . S
C3531 C3532 1.523 . S
C3532 C3513 1.368 . S
C3532 C3526 1.368 . S
C3532 C3531 1.523 . S
C3533 C3517 1.429 . S
C3533 C3529 1.429 . S
C3533 C3534 1.523 . S
C3534 C3518 1.368 . S
C3534 C3530 1.368 . S
C3534 C3533 1.523 . S
H3535 C3510 0.950 . S
H3536 C3512 0.950 . S
H3537 C3513 0.949 . S
H3538 C3515 0.950 . S
H3539 C3517 0.950 . S
C3540 C3541 1.349 . S
C3540 C3542 1.327 . S
C3540 H3565 0.950 . S
C3541 C3540 1.349 . S
C3541 C3557 1.349 . S
C3542 C3540 1.327 . S
C3542 C3561 1.429 . S
C3542 H3566 0.950 . S
C3543 C3560 1.574 . S
C3543 C3562 1.368 . S
C3543 H3567 0.949 . S
H3544 C3548 0.949 . S
C3545 C3546 1.349 . S
C3545 C3547 1.327 . S
C3545 H3568 0.950 . S
C3546 C3545 1.349 . S
C3546 C3558 1.349 . S
C3547 C3545 1.327 . S
C3547 C3563 1.429 . S
C3547 H3569 0.950 . S
C3548 H3544 0.949 . S
C3548 C3556 1.574 . S
C3548 C3564 1.368 . S
H3549 C3557 0.950 . S
H3550 C3555 0.950 . S
H3551 C3556 0.949 . S
H3552 C3558 0.950 . S
H3553 C3559 0.950 . S
H3554 C3560 0.949 . S
C3555 H3550 0.950 . S
C3555 C3557 1.327 . S
C3555 C3561 1.429 . S
C3556 C3548 1.574 . S
C3556 H3551 0.949 . S
C3556 C3562 1.368 . S
C3557 C3541 1.349 . S
C3557 H3549 0.950 . S
C3557 C3555 1.327 . S
C3558 C3546 1.349 . S
C3558 H3552 0.950 . S
C3558 C3559 1.327 . S
C3559 H3553 0.950 . S
C3559 C3558 1.327 . S
C3559 C3563 1.429 . S
C3560 C3543 1.574 . S
C3560 H3554 0.949 . S
C3560 C3564 1.368 . S
C3561 C3542 1.429 . S
C3561 C3555 1.429 . S
C3561 C3562 1.523 . S
C3562 C3543 1.368 . S
C3562 C3556 1.368 . S
C3562 C3561 1.523 . S
C3563 C3547 1.429 . S
C3563 C3559 1.429 . S
C3563 C3564 1.523 . S
C3564 C3548 1.368 . S
C3564 C3560 1.368 . S
C3564 C3563 1.523 . S
H3565 C3540 0.950 . S
H3566 C3542 0.950 . S
H3567 C3543 0.949 . S
H3568 C3545 0.950 . S
H3569 C3547 0.950 . S
C3570 C3571 1.349 . S
C3570 C3572 1.327 . S
C3570 H3595 0.950 . S
C3571 C3570 1.349 . S
C3571 C3587 1.349 . S
C3572 C3570 1.327 . S
C3572 C3591 1.429 . S
C3572 H3596 0.950 . S
C3573 C3590 1.574 . S
C3573 C3592 1.368 . S
C3573 H3597 0.949 . S
H3574 C3578 0.949 . S
C3575 C3576 1.349 . S
C3575 C3577 1.327 . S
C3575 H3598 0.950 . S
C3576 C3575 1.349 . S
C3576 C3588 1.349 . S
C3577 C3575 1.327 . S
C3577 C3593 1.429 . S
C3577 H3599 0.950 . S
C3578 H3574 0.949 . S
C3578 C3586 1.574 . S
C3578 C3594 1.368 . S
H3579 C3587 0.950 . S
H3580 C3585 0.950 . S
H3581 C3586 0.949 . S
H3582 C3588 0.950 . S
H3583 C3589 0.950 . S
H3584 C3590 0.949 . S
C3585 H3580 0.950 . S
C3585 C3587 1.327 . S
C3585 C3591 1.429 . S
C3586 C3578 1.574 . S
C3586 H3581 0.949 . S
C3586 C3592 1.368 . S
C3587 C3571 1.349 . S
C3587 H3579 0.950 . S
C3587 C3585 1.327 . S
C3588 C3576 1.349 . S
C3588 H3582 0.950 . S
C3588 C3589 1.327 . S
C3589 H3583 0.950 . S
C3589 C3588 1.327 . S
C3589 C3593 1.429 . S
C3590 C3573 1.574 . S
C3590 H3584 0.949 . S
C3590 C3594 1.368 . S
C3591 C3572 1.429 . S
C3591 C3585 1.429 . S
C3591 C3592 1.523 . S
C3592 C3573 1.368 . S
C3592 C3586 1.368 . S
C3592 C3591 1.523 . S
C3593 C3577 1.429 . S
C3593 C3589 1.429 . S
C3593 C3594 1.523 . S
C3594 C3578 1.368 . S
C3594 C3590 1.368 . S
C3594 C3593 1.523 . S
H3595 C3570 0.950 . S
H3596 C3572 0.950 . S
H3597 C3573 0.949 . S
H3598 C3575 0.950 . S
H3599 C3577 0.950 . S
C3600 C3601 1.349 . S
C3600 C3602 1.327 . S
C3600 H3625 0.950 . S
C3601 C3600 1.349 . S
C3601 C3617 1.349 . S
C3602 C3600 1.327 . S
C3602 C3621 1.429 . S
C3602 H3626 0.950 . S
C3603 C3620 1.574 . S
C3603 C3622 1.368 . S
C3603 H3627 0.949 . S
H3604 C3608 0.949 . S
C3605 C3606 1.349 . S
C3605 C3607 1.327 . S
C3605 H3628 0.950 . S
C3606 C3605 1.349 . S
C3606 C3618 1.349 . S
C3607 C3605 1.327 . S
C3607 C3623 1.429 . S
C3607 H3629 0.950 . S
C3608 H3604 0.949 . S
C3608 C3616 1.574 . S
C3608 C3624 1.368 . S
H3609 C3617 0.950 . S
H3610 C3615 0.950 . S
H3611 C3616 0.949 . S
H3612 C3618 0.950 . S
H3613 C3619 0.950 . S
H3614 C3620 0.949 . S
C3615 H3610 0.950 . S
C3615 C3617 1.327 . S
C3615 C3621 1.429 . S
C3616 C3608 1.574 . S
C3616 H3611 0.949 . S
C3616 C3622 1.368 . S
C3617 C3601 1.349 . S
C3617 H3609 0.950 . S
C3617 C3615 1.327 . S
C3618 C3606 1.349 . S
C3618 H3612 0.950 . S
C3618 C3619 1.327 . S
C3619 H3613 0.950 . S
C3619 C3618 1.327 . S
C3619 C3623 1.429 . S
C3620 C3603 1.574 . S
C3620 H3614 0.949 . S
C3620 C3624 1.368 . S
C3621 C3602 1.429 . S
C3621 C3615 1.429 . S
C3621 C3622 1.523 . S
C3622 C3603 1.368 . S
C3622 C3616 1.368 . S
C3622 C3621 1.523 . S
C3623 C3607 1.429 . S
C3623 C3619 1.429 . S
C3623 C3624 1.523 . S
C3624 C3608 1.368 . S
C3624 C3620 1.368 . S
C3624 C3623 1.523 . S
H3625 C3600 0.950 . S
H3626 C3602 0.950 . S
H3627 C3603 0.949 . S
H3628 C3605 0.950 . S
H3629 C3607 0.950 . S
C3630 C3631 1.349 . S
C3630 C3632 1.327 . S
C3630 H3655 0.950 . S
C3631 C3630 1.349 . S
C3631 C3647 1.349 . S
C3632 C3630 1.327 . S
C3632 C3651 1.429 . S
C3632 H3656 0.950 . S
C3633 C3650 1.574 . S
C3633 C3652 1.368 . S
C3633 H3657 0.949 . S
H3634 C3638 0.949 . S
C3635 C3636 1.349 . S
C3635 C3637 1.327 . S
C3635 H3658 0.950 . S
C3636 C3635 1.349 . S
C3636 C3648 1.349 . S
C3637 C3635 1.327 . S
C3637 C3653 1.429 . S
C3637 H3659 0.950 . S
C3638 H3634 0.949 . S
C3638 C3646 1.574 . S
C3638 C3654 1.368 . S
H3639 C3647 0.950 . S
H3640 C3645 0.950 . S
H3641 C3646 0.949 . S
H3642 C3648 0.950 . S
H3643 C3649 0.950 . S
H3644 C3650 0.949 . S
C3645 H3640 0.950 . S
C3645 C3647 1.327 . S
C3645 C3651 1.429 . S
C3646 C3638 1.574 . S
C3646 H3641 0.949 . S
C3646 C3652 1.368 . S
C3647 C3631 1.349 . S
C3647 H3639 0.950 . S
C3647 C3645 1.327 . S
C3648 C3636 1.349 . S
C3648 H3642 0.950 . S
C3648 C3649 1.327 . S
C3649 H3643 0.950 . S
C3649 C3648 1.327 . S
C3649 C3653 1.429 . S
C3650 C3633 1.574 . S
C3650 H3644 0.949 . S
C3650 C3654 1.368 . S
C3651 C3632 1.429 . S
C3651 C3645 1.429 . S
C3651 C3652 1.523 . S
C3652 C3633 1.368 . S
C3652 C3646 1.368 . S
C3652 C3651 1.523 . S
C3653 C3637 1.429 . S
C3653 C3649 1.429 . S
C3653 C3654 1.523 . S
C3654 C3638 1.368 . S
C3654 C3650 1.368 . S
C3654 C3653 1.523 . S
H3655 C3630 0.950 . S
H3656 C3632 0.950 . S
H3657 C3633 0.949 . S
H3658 C3635 0.950 . S
H3659 C3637 0.950 . S
C3660 C3661 1.349 . S
C3660 C3662 1.327 . S
C3660 H3685 0.950 . S
C3661 C3660 1.349 . S
C3661 C3677 1.349 . S
C3662 C3660 1.327 . S
C3662 C3681 1.429 . S
C3662 H3686 0.950 . S
C3663 C3680 1.574 . S
C3663 C3682 1.368 . S
C3663 H3687 0.949 . S
H3664 C3668 0.949 . S
C3665 C3666 1.349 . S
C3665 C3667 1.327 . S
C3665 H3688 0.950 . S
C3666 C3665 1.349 . S
C3666 C3678 1.349 . S
C3667 C3665 1.327 . S
C3667 C3683 1.429 . S
C3667 H3689 0.950 . S
C3668 H3664 0.949 . S
C3668 C3676 1.574 . S
C3668 C3684 1.368 . S
H3669 C3677 0.950 . S
H3670 C3675 0.950 . S
H3671 C3676 0.949 . S
H3672 C3678 0.950 . S
H3673 C3679 0.950 . S
H3674 C3680 0.949 . S
C3675 H3670 0.950 . S
C3675 C3677 1.327 . S
C3675 C3681 1.429 . S
C3676 C3668 1.574 . S
C3676 H3671 0.949 . S
C3676 C3682 1.368 . S
C3677 C3661 1.349 . S
C3677 H3669 0.950 . S
C3677 C3675 1.327 . S
C3678 C3666 1.349 . S
C3678 H3672 0.950 . S
C3678 C3679 1.327 . S
C3679 H3673 0.950 . S
C3679 C3678 1.327 . S
C3679 C3683 1.429 . S
C3680 C3663 1.574 . S
C3680 H3674 0.949 . S
C3680 C3684 1.368 . S
C3681 C3662 1.429 . S
C3681 C3675 1.429 . S
C3681 C3682 1.523 . S
C3682 C3663 1.368 . S
C3682 C3676 1.368 . S
C3682 C3681 1.523 . S
C3683 C3667 1.429 . S
C3683 C3679 1.429 . S
C3683 C3684 1.523 . S
C3684 C3668 1.368 . S
C3684 C3680 1.368 . S
C3684 C3683 1.523 . S
H3685 C3660 0.950 . S
H3686 C3662 0.950 . S
H3687 C3663 0.949 . S
H3688 C3665 0.950 . S
H3689 C3667 0.950 . S
C3690 C3691 1.384 . S
C3690 C3692 1.324 . S
C3690 H3715 0.919 1_554 S
C3691 C3690 1.384 . S
C3691 C3707 1.349 . S
C3692 C3690 1.324 . S
C3692 C3711 1.429 . S
C3692 H3716 0.950 1_554 S
C3693 C3710 1.574 . S
C3693 C3712 1.368 . S
C3693 H3717 0.949 . S
H3694 C3698 0.916 1_546 S
C3695 C3696 1.349 . S
C3695 C3697 1.327 . S
C3695 H3718 0.950 . S
C3696 C3695 1.349 . S
C3696 C3708 1.349 . S
C3697 C3695 1.327 . S
C3697 C3713 1.429 . S
C3697 H3719 0.950 1_545 S
C3698 H3694 0.916 1_564 S
C3698 C3706 1.588 . S
C3698 C3714 1.393 . S
H3699 C3707 0.950 . S
H3700 C3705 0.950 . S
H3701 C3706 0.949 1_556 S
H3702 C3708 0.950 . S
H3703 C3709 0.950 . S
H3704 C3710 0.949 . S
C3705 H3700 0.950 . S
C3705 C3707 1.327 . S
C3705 C3711 1.429 . S
C3706 C3698 1.588 . S
C3706 H3701 0.949 1_554 S
C3706 C3712 1.368 . S
C3707 C3691 1.349 . S
C3707 H3699 0.950 . S
C3707 C3705 1.327 . S
C3708 C3696 1.349 . S
C3708 H3702 0.950 . S
C3708 C3709 1.327 . S
C3709 H3703 0.950 . S
C3709 C3708 1.327 . S
C3709 C3713 1.429 . S
C3710 C3693 1.574 . S
C3710 H3704 0.949 . S
C3710 C3714 1.368 . S
C3711 C3692 1.429 . S
C3711 C3705 1.429 . S
C3711 C3712 1.523 . S
C3712 C3693 1.368 . S
C3712 C3706 1.368 . S
C3712 C3711 1.523 . S
C3713 C3697 1.429 . S
C3713 C3709 1.429 . S
C3713 C3714 1.523 1_545 S
C3714 C3698 1.393 . S
C3714 C3710 1.368 . S
C3714 C3713 1.523 1_565 S
H3715 C3690 0.919 1_556 S
H3716 C3692 0.950 1_556 S
H3717 C3693 0.949 . S
H3718 C3695 0.950 . S
H3719 C3697 0.950 1_565 S
C3720 C3721 1.349 . S
C3720 C3722 1.327 . S
C3720 H3745 0.950 . S
C3721 C3720 1.349 . S
C3721 C3737 1.349 . S
C3722 C3720 1.327 . S
C3722 C3741 1.429 . S
C3722 H3746 0.950 . S
C3723 C3740 1.574 . S
C3723 C3742 1.368 . S
C3723 H3747 0.949 . S
H3724 C3728 0.949 . S
C3725 C3726 1.349 . S
C3725 C3727 1.327 . S
C3725 H3748 0.950 . S
C3726 C3725 1.349 . S
C3726 C3738 1.349 . S
C3727 C3725 1.327 . S
C3727 C3743 1.429 . S
C3727 H3749 0.950 . S
C3728 H3724 0.949 . S
C3728 C3736 1.574 . S
C3728 C3744 1.368 . S
H3729 C3737 0.950 . S
H3730 C3735 0.950 . S
H3731 C3736 0.949 . S
H3732 C3738 0.950 . S
H3733 C3739 0.950 . S
H3734 C3740 0.949 . S
C3735 H3730 0.950 . S
C3735 C3737 1.327 . S
C3735 C3741 1.429 . S
C3736 C3728 1.574 . S
C3736 H3731 0.949 . S
C3736 C3742 1.368 . S
C3737 C3721 1.349 . S
C3737 H3729 0.950 . S
C3737 C3735 1.327 . S
C3738 C3726 1.349 . S
C3738 H3732 0.950 . S
C3738 C3739 1.327 . S
C3739 H3733 0.950 . S
C3739 C3738 1.327 . S
C3739 C3743 1.429 . S
C3740 C3723 1.574 . S
C3740 H3734 0.949 . S
C3740 C3744 1.368 . S
C3741 C3722 1.429 . S
C3741 C3735 1.429 . S
C3741 C3742 1.523 . S
C3742 C3723 1.368 . S
C3742 C3736 1.368 . S
C3742 C3741 1.523 . S
C3743 C3727 1.429 . S
C3743 C3739 1.429 . S
C3743 C3744 1.523 . S
C3744 C3728 1.368 . S
C3744 C3740 1.368 . S
C3744 C3743 1.523 . S
H3745 C3720 0.950 . S
H3746 C3722 0.950 . S
H3747 C3723 0.949 . S
H3748 C3725 0.950 . S
H3749 C3727 0.950 . S
C3750 C3751 1.349 1_556 S
C3750 C3752 1.327 1_556 S
C3750 H3775 0.950 . S
C3751 C3750 1.349 1_554 S
C3751 C3767 1.349 . S
C3752 C3750 1.327 1_554 S
C3752 C3771 1.429 . S
C3752 H3776 0.950 1_554 S
C3753 C3770 1.574 . S
C3753 C3772 1.368 . S
C3753 H3777 0.949 . S
H3754 C3758 0.949 . S
C3755 C3756 1.349 . S
C3755 C3757 1.327 . S
C3755 H3778 0.950 . S
C3756 C3755 1.349 . S
C3756 C3768 1.349 . S
C3757 C3755 1.327 . S
C3757 C3773 1.429 . S
C3757 H3779 0.950 . S
C3758 H3754 0.949 . S
C3758 C3766 1.574 . S
C3758 C3774 1.368 . S
H3759 C3767 0.950 . S
H3760 C3765 0.950 . S
H3761 C3766 0.949 1_556 S
H3762 C3768 0.950 . S
H3763 C3769 0.950 . S
H3764 C3770 0.949 . S
C3765 H3760 0.950 . S
C3765 C3767 1.327 . S
C3765 C3771 1.429 . S
C3766 C3758 1.574 . S
C3766 H3761 0.949 1_554 S
C3766 C3772 1.368 . S
C3767 C3751 1.349 . S
C3767 H3759 0.950 . S
C3767 C3765 1.327 . S
C3768 C3756 1.349 . S
C3768 H3762 0.950 . S
C3768 C3769 1.327 . S
C3769 H3763 0.950 . S
C3769 C3768 1.327 . S
C3769 C3773 1.429 . S
C3770 C3753 1.574 . S
C3770 H3764 0.949 . S
C3770 C3774 1.368 . S
C3771 C3752 1.429 . S
C3771 C3765 1.429 . S
C3771 C3772 1.523 . S
C3772 C3753 1.368 . S
C3772 C3766 1.368 . S
C3772 C3771 1.523 . S
C3773 C3757 1.429 . S
C3773 C3769 1.429 . S
C3773 C3774 1.523 . S
C3774 C3758 1.368 . S
C3774 C3770 1.368 . S
C3774 C3773 1.523 . S
H3775 C3750 0.950 . S
H3776 C3752 0.950 1_556 S
H3777 C3753 0.949 . S
H3778 C3755 0.950 . S
H3779 C3757 0.950 . S
C3780 C3781 1.349 . S
C3780 C3782 1.327 . S
C3780 H3805 0.950 . S
C3781 C3780 1.349 . S
C3781 C3797 1.349 . S
C3782 C3780 1.327 . S
C3782 C3801 1.429 . S
C3782 H3806 0.950 . S
C3783 C3800 1.574 . S
C3783 C3802 1.368 . S
C3783 H3807 0.949 . S
H3784 C3788 0.949 . S
C3785 C3786 1.349 . S
C3785 C3787 1.327 . S
C3785 H3808 0.950 . S
C3786 C3785 1.349 . S
C3786 C3798 1.349 . S
C3787 C3785 1.327 . S
C3787 C3803 1.429 . S
C3787 H3809 0.950 . S
C3788 H3784 0.949 . S
C3788 C3796 1.574 . S
C3788 C3804 1.368 . S
H3789 C3797 0.950 . S
H3790 C3795 0.950 . S
H3791 C3796 0.949 . S
H3792 C3798 0.950 . S
H3793 C3799 0.950 . S
H3794 C3800 0.949 . S
C3795 H3790 0.950 . S
C3795 C3797 1.327 . S
C3795 C3801 1.429 . S
C3796 C3788 1.574 . S
C3796 H3791 0.949 . S
C3796 C3802 1.368 . S
C3797 C3781 1.349 . S
C3797 H3789 0.950 . S
C3797 C3795 1.327 . S
C3798 C3786 1.349 . S
C3798 H3792 0.950 . S
C3798 C3799 1.327 . S
C3799 H3793 0.950 . S
C3799 C3798 1.327 . S
C3799 C3803 1.429 . S
C3800 C3783 1.574 . S
C3800 H3794 0.949 . S
C3800 C3804 1.368 . S
C3801 C3782 1.429 . S
C3801 C3795 1.429 . S
C3801 C3802 1.523 . S
C3802 C3783 1.368 . S
C3802 C3796 1.368 . S
C3802 C3801 1.523 . S
C3803 C3787 1.429 . S
C3803 C3799 1.429 . S
C3803 C3804 1.523 . S
C3804 C3788 1.368 . S
C3804 C3800 1.368 . S
C3804 C3803 1.523 . S
H3805 C3780 0.950 . S
H3806 C3782 0.950 . S
H3807 C3783 0.949 . S
H3808 C3785 0.950 . S
H3809 C3787 0.950 . S
C3810 C3811 1.349 . S
C3810 C3812 1.327 . S
C3810 H3835 0.950 . S
C3811 C3810 1.349 . S
C3811 C3827 1.349 . S
C3812 C3810 1.327 . S
C3812 C3831 1.429 . S
C3812 H3836 0.950 . S
C3813 C3830 1.574 . S
C3813 C3832 1.368 . S
C3813 H3837 0.949 . S
H3814 C3818 0.949 . S
C3815 C3816 1.349 . S
C3815 C3817 1.327 . S
C3815 H3838 0.950 . S
C3816 C3815 1.349 . S
C3816 C3828 1.349 . S
C3817 C3815 1.327 . S
C3817 C3833 1.429 . S
C3817 H3839 0.950 . S
C3818 H3814 0.949 . S
C3818 C3826 1.574 . S
C3818 C3834 1.368 . S
H3819 C3827 0.950 . S
H3820 C3825 0.950 . S
H3821 C3826 0.949 . S
H3822 C3828 0.950 . S
H3823 C3829 0.950 . S
H3824 C3830 0.949 . S
C3825 H3820 0.950 . S
C3825 C3827 1.327 . S
C3825 C3831 1.429 . S
C3826 C3818 1.574 . S
C3826 H3821 0.949 . S
C3826 C3832 1.368 . S
C3827 C3811 1.349 . S
C3827 H3819 0.950 . S
C3827 C3825 1.327 . S
C3828 C3816 1.349 . S
C3828 H3822 0.950 . S
C3828 C3829 1.327 . S
C3829 H3823 0.950 . S
C3829 C3828 1.327 . S
C3829 C3833 1.429 . S
C3830 C3813 1.574 . S
C3830 H3824 0.949 . S
C3830 C3834 1.368 . S
C3831 C3812 1.429 . S
C3831 C3825 1.429 . S
C3831 C3832 1.523 . S
C3832 C3813 1.368 . S
C3832 C3826 1.368 . S
C3832 C3831 1.523 . S
C3833 C3817 1.429 . S
C3833 C3829 1.429 . S
C3833 C3834 1.523 . S
C3834 C3818 1.368 . S
C3834 C3830 1.368 . S
C3834 C3833 1.523 . S
H3835 C3810 0.950 . S
H3836 C3812 0.950 . S
H3837 C3813 0.949 . S
H3838 C3815 0.950 . S
H3839 C3817 0.950 . S
C3840 C3841 1.349 . S
C3840 C3842 1.327 . S
C3840 H3865 0.950 . S
C3841 C3840 1.349 . S
C3841 C3857 1.349 . S
C3842 C3840 1.327 . S
C3842 C3861 1.429 . S
C3842 H3866 0.950 . S
C3843 C3860 1.574 . S
C3843 C3862 1.368 . S
C3843 H3867 0.949 . S
H3844 C3848 0.949 . S
C3845 C3846 1.349 . S
C3845 C3847 1.327 . S
C3845 H3868 0.950 . S
C3846 C3845 1.349 . S
C3846 C3858 1.349 . S
C3847 C3845 1.327 . S
C3847 C3863 1.429 . S
C3847 H3869 0.950 . S
C3848 H3844 0.949 . S
C3848 C3856 1.574 . S
C3848 C3864 1.368 . S
H3849 C3857 0.950 . S
H3850 C3855 0.950 . S
H3851 C3856 0.949 . S
H3852 C3858 0.950 . S
H3853 C3859 0.950 . S
H3854 C3860 0.949 . S
C3855 H3850 0.950 . S
C3855 C3857 1.327 . S
C3855 C3861 1.429 . S
C3856 C3848 1.574 . S
C3856 H3851 0.949 . S
C3856 C3862 1.368 . S
C3857 C3841 1.349 . S
C3857 H3849 0.950 . S
C3857 C3855 1.327 . S
C3858 C3846 1.349 . S
C3858 H3852 0.950 . S
C3858 C3859 1.327 . S
C3859 H3853 0.950 . S
C3859 C3858 1.327 . S
C3859 C3863 1.429 . S
C3860 C3843 1.574 . S
C3860 H3854 0.949 . S
C3860 C3864 1.368 . S
C3861 C3842 1.429 . S
C3861 C3855 1.429 . S
C3861 C3862 1.523 . S
C3862 C3843 1.368 . S
C3862 C3856 1.368 . S
C3862 C3861 1.523 . S
C3863 C3847 1.429 . S
C3863 C3859 1.429 . S
C3863 C3864 1.523 . S
C3864 C3848 1.368 . S
C3864 C3860 1.368 . S
C3864 C3863 1.523 . S
H3865 C3840 0.950 . S
H3866 C3842 0.950 . S
H3867 C3843 0.949 . S
H3868 C3845 0.950 . S
H3869 C3847 0.950 . S
C3870 C3871 1.349 . S
C3870 C3872 1.327 . S
C3870 H3895 0.950 . S
C3871 C3870 1.349 . S
C3871 C3887 1.349 . S
C3872 C3870 1.327 . S
C3872 C3891 1.429 . S
C3872 H3896 0.950 . S
C3873 C3890 1.574 . S
C3873 C3892 1.368 . S
C3873 H3897 0.949 . S
H3874 C3878 0.949 . S
C3875 C3876 1.349 . S
C3875 C3877 1.327 . S
C3875 H3898 0.950 . S
C3876 C3875 1.349 . S
C3876 C3888 1.349 . S
C3877 C3875 1.327 . S
C3877 C3893 1.429 . S
C3877 H3899 0.950 . S
C3878 H3874 0.949 . S
C3878 C3886 1.574 . S
C3878 C3894 1.368 . S
H3879 C3887 0.950 . S
H3880 C3885 0.950 . S
H3881 C3886 0.949 . S
H3882 C3888 0.950 . S
H3883 C3889 0.950 . S
H3884 C3890 0.949 . S
C3885 H3880 0.950 . S
C3885 C3887 1.327 . S
C3885 C3891 1.429 . S
C3886 C3878 1.574 . S
C3886 H3881 0.949 . S
C3886 C3892 1.368 . S
C3887 C3871 1.349 . S
C3887 H3879 0.950 . S
C3887 C3885 1.327 . S
C3888 C3876 1.349 . S
C3888 H3882 0.950 . S
C3888 C3889 1.327 . S
C3889 H3883 0.950 . S
C3889 C3888 1.327 . S
C3889 C3893 1.429 . S
C3890 C3873 1.574 . S
C3890 H3884 0.949 . S
C3890 C3894 1.368 . S
C3891 C3872 1.429 . S
C3891 C3885 1.429 . S
C3891 C3892 1.523 . S
C3892 C3873 1.368 . S
C3892 C3886 1.368 . S
C3892 C3891 1.523 . S
C3893 C3877 1.429 . S
C3893 C3889 1.429 . S
C3893 C3894 1.523 . S
C3894 C3878 1.368 . S
C3894 C3890 1.368 . S
C3894 C3893 1.523 . S
H3895 C3870 0.950 . S
H3896 C3872 0.950 . S
H3897 C3873 0.949 . S
H3898 C3875 0.950 . S
H3899 C3877 0.950 . S
C3900 C3901 1.349 . S
C3900 C3902 1.327 . S
C3900 H3925 0.950 . S
C3901 C3900 1.349 . S
C3901 C3917 1.349 . S
C3902 C3900 1.327 . S
C3902 C3921 1.429 . S
C3902 H3926 0.950 . S
C3903 C3920 1.574 . S
C3903 C3922 1.368 . S
C3903 H3927 0.949 . S
H3904 C3908 0.949 . S
C3905 C3906 1.349 . S
C3905 C3907 1.327 . S
C3905 H3928 0.950 . S
C3906 C3905 1.349 . S
C3906 C3918 1.349 . S
C3907 C3905 1.327 . S
C3907 C3923 1.429 . S
C3907 H3929 0.950 . S
C3908 H3904 0.949 . S
C3908 C3916 1.574 . S
C3908 C3924 1.368 . S
H3909 C3917 0.950 . S
H3910 C3915 0.950 . S
H3911 C3916 0.949 . S
H3912 C3918 0.950 . S
H3913 C3919 0.950 . S
H3914 C3920 0.949 . S
C3915 H3910 0.950 . S
C3915 C3917 1.327 . S
C3915 C3921 1.429 . S
C3916 C3908 1.574 . S
C3916 H3911 0.949 . S
C3916 C3922 1.368 . S
C3917 C3901 1.349 . S
C3917 H3909 0.950 . S
C3917 C3915 1.327 . S
C3918 C3906 1.349 . S
C3918 H3912 0.950 . S
C3918 C3919 1.327 . S
C3919 H3913 0.950 . S
C3919 C3918 1.327 . S
C3919 C3923 1.429 . S
C3920 C3903 1.574 . S
C3920 H3914 0.949 . S
C3920 C3924 1.368 . S
C3921 C3902 1.429 . S
C3921 C3915 1.429 . S
C3921 C3922 1.523 . S
C3922 C3903 1.368 . S
C3922 C3916 1.368 . S
C3922 C3921 1.523 . S
C3923 C3907 1.429 . S
C3923 C3919 1.429 . S
C3923 C3924 1.523 . S
C3924 C3908 1.368 . S
C3924 C3920 1.368 . S
C3924 C3923 1.523 . S
H3925 C3900 0.950 . S
H3926 C3902 0.950 . S
H3927 C3903 0.949 . S
H3928 C3905 0.950 . S
H3929 C3907 0.950 . S
C3930 C3931 1.349 . S
C3930 C3932 1.327 . S
C3930 H3955 0.950 . S
C3931 C3930 1.349 . S
C3931 C3947 1.349 . S
C3932 C3930 1.327 . S
C3932 C3951 1.429 . S
C3932 H3956 0.950 . S
C3933 C3950 1.574 . S
C3933 C3952 1.368 . S
C3933 H3957 0.949 . S
H3934 C3938 0.949 . S
C3935 C3936 1.349 . S
C3935 C3937 1.327 . S
C3935 H3958 0.950 . S
C3936 C3935 1.349 . S
C3936 C3948 1.349 . S
C3937 C3935 1.327 . S
C3937 C3953 1.429 . S
C3937 H3959 0.950 . S
C3938 H3934 0.949 . S
C3938 C3946 1.574 . S
C3938 C3954 1.368 . S
H3939 C3947 0.950 . S
H3940 C3945 0.950 . S
H3941 C3946 0.949 . S
H3942 C3948 0.950 . S
H3943 C3949 0.950 . S
H3944 C3950 0.949 . S
C3945 H3940 0.950 . S
C3945 C3947 1.327 . S
C3945 C3951 1.429 . S
C3946 C3938 1.574 . S
C3946 H3941 0.949 . S
C3946 C3952 1.368 . S
C3947 C3931 1.349 . S
C3947 H3939 0.950 . S
C3947 C3945 1.327 . S
C3948 C3936 1.349 . S
C3948 H3942 0.950 . S
C3948 C3949 1.327 . S
C3949 H3943 0.950 . S
C3949 C3948 1.327 . S
C3949 C3953 1.429 . S
C3950 C3933 1.574 . S
C3950 H3944 0.949 . S
C3950 C3954 1.368 . S
C3951 C3932 1.429 . S
C3951 C3945 1.429 . S
C3951 C3952 1.523 . S
C3952 C3933 1.368 . S
C3952 C3946 1.368 . S
C3952 C3951 1.523 . S
C3953 C3937 1.429 . S
C3953 C3949 1.429 . S
C3953 C3954 1.523 . S
C3954 C3938 1.368 . S
C3954 C3950 1.368 . S
C3954 C3953 1.523 . S
H3955 C3930 0.950 . S
H3956 C3932 0.950 . S
H3957 C3933 0.949 . S
H3958 C3935 0.950 . S
H3959 C3937 0.950 . S
C3960 C3961 1.349 . S
C3960 C3962 1.327 . S
C3960 H3985 0.950 . S
C3961 C3960 1.349 . S
C3961 C3977 1.349 . S
C3962 C3960 1.327 . S
C3962 C3981 1.429 . S
C3962 H3986 0.950 . S
C3963 C3980 1.574 . S
C3963 C3982 1.368 . S
C3963 H3987 0.949 . S
H3964 C3968 0.949 . S
C3965 C3966 1.349 . S
C3965 C3967 1.327 . S
C3965 H3988 0.950 . S
C3966 C3965 1.349 . S
C3966 C3978 1.349 . S
C3967 C3965 1.327 . S
C3967 C3983 1.429 . S
C3967 H3989 0.950 . S
C3968 H3964 0.949 . S
C3968 C3976 1.574 . S
C3968 C3984 1.368 . S
H3969 C3977 0.950 . S
H3970 C3975 0.950 . S
H3971 C3976 0.949 . S
H3972 C3978 0.950 1_554 S
H3973 C3979 0.950 . S
H3974 C3980 0.949 . S
C3975 H3970 0.950 . S
C3975 C3977 1.327 . S
C3975 C3981 1.429 . S
C3976 C3968 1.574 . S
C3976 H3971 0.949 . S
C3976 C3982 1.368 . S
C3977 C3961 1.349 . S
C3977 H3969 0.950 . S
C3977 C3975 1.327 . S
C3978 C3966 1.349 . S
C3978 H3972 0.950 1_556 S
C3978 C3979 1.327 . S
C3979 H3973 0.950 . S
C3979 C3978 1.327 . S
C3979 C3983 1.429 . S
C3980 C3963 1.574 . S
C3980 H3974 0.949 . S
C3980 C3984 1.368 . S
C3981 C3962 1.429 . S
C3981 C3975 1.429 . S
C3981 C3982 1.523 . S
C3982 C3963 1.368 . S
C3982 C3976 1.368 . S
C3982 C3981 1.523 . S
C3983 C3967 1.429 . S
C3983 C3979 1.429 . S
C3983 C3984 1.523 . S
C3984 C3968 1.368 . S
C3984 C3980 1.368 . S
C3984 C3983 1.523 . S
H3985 C3960 0.950 . S
H3986 C3962 0.950 . S
H3987 C3963 0.949 . S
H3988 C3965 0.950 . S
H3989 C3967 0.950 . S
C3990 C3991 1.349 . S
C3990 C3992 1.327 . S
C3990 H4015 0.950 . S
C3991 C3990 1.349 . S
C3991 C4007 1.349 . S
C3992 C3990 1.327 . S
C3992 C4011 1.429 . S
C3992 H4016 0.950 . S
C3993 C4010 1.574 . S
C3993 C4012 1.368 . S
C3993 H4017 0.949 . S
H3994 C3998 0.949 . S
C3995 C3996 1.349 . S
C3995 C3997 1.327 . S
C3995 H4018 0.950 . S
C3996 C3995 1.349 . S
C3996 C4008 1.349 . S
C3997 C3995 1.327 . S
C3997 C4013 1.429 . S
C3997 H4019 0.950 . S
C3998 H3994 0.949 . S
C3998 C4006 1.574 . S
C3998 C4014 1.368 . S
H3999 C4007 0.950 . S
H4000 C4005 0.950 . S
H4001 C4006 0.949 . S
H4002 C4008 0.950 . S
H4003 C4009 0.950 . S
H4004 C4010 0.949 . S
C4005 H4000 0.950 . S
C4005 C4007 1.327 . S
C4005 C4011 1.429 . S
C4006 C3998 1.574 . S
C4006 H4001 0.949 . S
C4006 C4012 1.368 . S
C4007 C3991 1.349 . S
C4007 H3999 0.950 . S
C4007 C4005 1.327 . S
C4008 C3996 1.349 . S
C4008 H4002 0.950 . S
C4008 C4009 1.327 . S
C4009 H4003 0.950 . S
C4009 C4008 1.327 . S
C4009 C4013 1.429 . S
C4010 C3993 1.574 . S
C4010 H4004 0.949 . S
C4010 C4014 1.368 . S
C4011 C3992 1.429 . S
C4011 C4005 1.429 . S
C4011 C4012 1.523 . S
C4012 C3993 1.368 . S
C4012 C4006 1.368 . S
C4012 C4011 1.523 . S
C4013 C3997 1.429 . S
C4013 C4009 1.429 . S
C4013 C4014 1.523 . S
C4014 C3998 1.368 . S
C4014 C4010 1.368 . S
C4014 C4013 1.523 . S
H4015 C3990 0.950 . S
H4016 C3992 0.950 . S
H4017 C3993 0.949 . S
H4018 C3995 0.950 . S
H4019 C3997 0.950 . S
C4020 C4021 1.349 . S
C4020 C4022 1.327 . S
C4020 H4045 0.950 . S
C4021 C4020 1.349 . S
C4021 C4037 1.349 . S
C4022 C4020 1.327 . S
C4022 C4041 1.429 . S
C4022 H4046 0.950 . S
C4023 C4040 1.574 . S
C4023 C4042 1.368 . S
C4023 H4047 0.949 . S
H4024 C4028 0.949 . S
C4025 C4026 1.349 . S
C4025 C4027 1.327 . S
C4025 H4048 0.950 . S
C4026 C4025 1.349 . S
C4026 C4038 1.349 . S
C4027 C4025 1.327 . S
C4027 C4043 1.429 . S
C4027 H4049 0.950 . S
C4028 H4024 0.949 . S
C4028 C4036 1.574 . S
C4028 C4044 1.368 . S
H4029 C4037 0.950 . S
H4030 C4035 0.950 . S
H4031 C4036 0.949 . S
H4032 C4038 0.950 . S
H4033 C4039 0.950 . S
H4034 C4040 0.949 . S
C4035 H4030 0.950 . S
C4035 C4037 1.327 . S
C4035 C4041 1.429 . S
C4036 C4028 1.574 . S
C4036 H4031 0.949 . S
C4036 C4042 1.368 . S
C4037 C4021 1.349 . S
C4037 H4029 0.950 . S
C4037 C4035 1.327 . S
C4038 C4026 1.349 . S
C4038 H4032 0.950 . S
C4038 C4039 1.327 . S
C4039 H4033 0.950 . S
C4039 C4038 1.327 . S
C4039 C4043 1.429 . S
C4040 C4023 1.574 . S
C4040 H4034 0.949 . S
C4040 C4044 1.368 . S
C4041 C4022 1.429 . S
C4041 C4035 1.429 . S
C4041 C4042 1.523 . S
C4042 C4023 1.368 . S
C4042 C4036 1.368 . S
C4042 C4041 1.523 . S
C4043 C4027 1.429 . S
C4043 C4039 1.429 . S
C4043 C4044 1.523 . S
C4044 C4028 1.368 . S
C4044 C4040 1.368 . S
C4044 C4043 1.523 . S
H4045 C4020 0.950 . S
H4046 C4022 0.950 . S
H4047 C4023 0.949 . S
H4048 C4025 0.950 . S
H4049 C4027 0.950 . S
C4050 C4051 1.349 . S
C4050 C4052 1.327 . S
C4050 H4075 0.950 . S
C4051 C4050 1.349 . S
C4051 C4067 1.349 . S
C4052 C4050 1.327 . S
C4052 C4071 1.429 . S
C4052 H4076 0.950 . S
C4053 C4070 1.574 . S
C4053 C4072 1.368 . S
C4053 H4077 0.949 . S
H4054 C4058 0.949 . S
C4055 C4056 1.349 . S
C4055 C4057 1.327 . S
C4055 H4078 0.950 . S
C4056 C4055 1.349 . S
C4056 C4068 1.349 . S
C4057 C4055 1.327 . S
C4057 C4073 1.429 . S
C4057 H4079 0.950 . S
C4058 H4054 0.949 . S
C4058 C4066 1.574 . S
C4058 C4074 1.368 . S
H4059 C4067 0.950 . S
H4060 C4065 0.950 . S
H4061 C4066 0.949 . S
H4062 C4068 0.950 . S
H4063 C4069 0.950 . S
H4064 C4070 0.949 . S
C4065 H4060 0.950 . S
C4065 C4067 1.327 . S
C4065 C4071 1.429 . S
C4066 C4058 1.574 . S
C4066 H4061 0.949 . S
C4066 C4072 1.368 . S
C4067 C4051 1.349 . S
C4067 H4059 0.950 . S
C4067 C4065 1.327 . S
C4068 C4056 1.349 . S
C4068 H4062 0.950 . S
C4068 C4069 1.327 . S
C4069 H4063 0.950 . S
C4069 C4068 1.327 . S
C4069 C4073 1.429 . S
C4070 C4053 1.574 . S
C4070 H4064 0.949 . S
C4070 C4074 1.368 . S
C4071 C4052 1.429 . S
C4071 C4065 1.429 . S
C4071 C4072 1.523 . S
C4072 C4053 1.368 . S
C4072 C4066 1.368 . S
C4072 C4071 1.523 . S
C4073 C4057 1.429 . S
C4073 C4069 1.429 . S
C4073 C4074 1.523 . S
C4074 C4058 1.368 . S
C4074 C4070 1.368 . S
C4074 C4073 1.523 . S
H4075 C4050 0.950 . S
H4076 C4052 0.950 . S
H4077 C4053 0.949 . S
H4078 C4055 0.950 . S
H4079 C4057 0.950 . S
C4080 C4081 1.349 . S
C4080 C4082 1.327 . S
C4080 H4105 0.950 . S
C4081 C4080 1.349 . S
C4081 C4097 1.349 . S
C4082 C4080 1.327 . S
C4082 C4101 1.429 . S
C4082 H4106 0.950 . S
C4083 C4100 1.574 . S
C4083 C4102 1.368 . S
C4083 H4107 0.949 . S
H4084 C4088 0.949 . S
C4085 C4086 1.349 . S
C4085 C4087 1.327 . S
C4085 H4108 0.950 . S
C4086 C4085 1.349 . S
C4086 C4098 1.349 . S
C4087 C4085 1.327 . S
C4087 C4103 1.429 . S
C4087 H4109 0.950 . S
C4088 H4084 0.949 . S
C4088 C4096 1.574 . S
C4088 C4104 1.368 . S
H4089 C4097 0.950 . S
H4090 C4095 0.950 . S
H4091 C4096 0.949 . S
H4092 C4098 0.950 . S
H4093 C4099 0.950 . S
H4094 C4100 0.949 . S
C4095 H4090 0.950 . S
C4095 C4097 1.327 . S
C4095 C4101 1.429 . S
C4096 C4088 1.574 . S
C4096 H4091 0.949 . S
C4096 C4102 1.368 . S
C4097 C4081 1.349 . S
C4097 H4089 0.950 . S
C4097 C4095 1.327 . S
C4098 C4086 1.349 . S
C4098 H4092 0.950 . S
C4098 C4099 1.327 . S
C4099 H4093 0.950 . S
C4099 C4098 1.327 . S
C4099 C4103 1.429 . S
C4100 C4083 1.574 . S
C4100 H4094 0.949 . S
C4100 C4104 1.368 . S
C4101 C4082 1.429 . S
C4101 C4095 1.429 . S
C4101 C4102 1.523 . S
C4102 C4083 1.368 . S
C4102 C4096 1.368 . S
C4102 C4101 1.523 . S
C4103 C4087 1.429 . S
C4103 C4099 1.429 . S
C4103 C4104 1.523 . S
C4104 C4088 1.368 . S
C4104 C4100 1.368 . S
C4104 C4103 1.523 . S
H4105 C4080 0.950 . S
H4106 C4082 0.950 . S
H4107 C4083 0.949 . S
H4108 C4085 0.950 . S
H4109 C4087 0.950 . S
C4110 C4111 1.349 . S
C4110 C4112 1.327 . S
C4110 H4135 0.950 . S
C4111 C4110 1.349 . S
C4111 C4127 1.349 . S
C4112 C4110 1.327 . S
C4112 C4131 1.429 . S
C4112 H4136 0.950 . S
C4113 C4130 1.574 . S
C4113 C4132 1.368 . S
C4113 H4137 0.949 . S
H4114 C4118 0.949 . S
C4115 C4116 1.349 . S
C4115 C4117 1.327 . S
C4115 H4138 0.950 . S
C4116 C4115 1.349 . S
C4116 C4128 1.349 . S
C4117 C4115 1.327 . S
C4117 C4133 1.429 . S
C4117 H4139 0.950 . S
C4118 H4114 0.949 . S
C4118 C4126 1.574 . S
C4118 C4134 1.368 . S
H4119 C4127 0.950 . S
H4120 C4125 0.950 . S
H4121 C4126 0.949 . S
H4122 C4128 0.950 . S
H4123 C4129 0.950 . S
H4124 C4130 0.949 . S
C4125 H4120 0.950 . S
C4125 C4127 1.327 . S
C4125 C4131 1.429 . S
C4126 C4118 1.574 . S
C4126 H4121 0.949 . S
C4126 C4132 1.368 . S
C4127 C4111 1.349 . S
C4127 H4119 0.950 . S
C4127 C4125 1.327 . S
C4128 C4116 1.349 . S
C4128 H4122 0.950 . S
C4128 C4129 1.327 . S
C4129 H4123 0.950 . S
C4129 C4128 1.327 . S
C4129 C4133 1.429 . S
C4130 C4113 1.574 . S
C4130 H4124 0.949 . S
C4130 C4134 1.368 . S
C4131 C4112 1.429 . S
C4131 C4125 1.429 . S
C4131 C4132 1.523 . S
C4132 C4113 1.368 . S
C4132 C4126 1.368 . S
C4132 C4131 1.523 . S
C4133 C4117 1.429 . S
C4133 C4129 1.429 . S
C4133 C4134 1.523 . S
C4134 C4118 1.368 . S
C4134 C4130 1.368 . S
C4134 C4133 1.523 . S
H4135 C4110 0.950 . S
H4136 C4112 0.950 . S
H4137 C4113 0.949 . S
H4138 C4115 0.950 . S
H4139 C4117 0.950 . S
C4140 C4141 1.349 . S
C4140 C4142 1.327 . S
C4140 H4165 0.950 . S
C4141 C4140 1.349 . S
C4141 C4157 1.349 . S
C4142 C4140 1.327 . S
C4142 C4161 1.429 . S
C4142 H4166 0.950 . S
C4143 C4160 1.554 1_655 S
C4143 C4162 1.368 . S
C4143 H4167 0.949 . S
H4144 C4148 0.949 . S
C4145 C4146 1.349 . S
C4145 C4147 1.327 . S
C4145 H4168 0.950 . S
C4146 C4145 1.349 . S
C4146 C4158 1.349 . S
C4147 C4145 1.327 . S
C4147 C4163 1.429 . S
C4147 H4169 0.950 . S
C4148 H4144 0.949 . S
C4148 C4156 1.574 . S
C4148 C4164 1.368 . S
H4149 C4157 0.950 . S
H4150 C4155 0.950 . S
H4151 C4156 0.949 . S
H4152 C4158 0.950 1_554 S
H4153 C4159 0.964 . S
H4154 C4160 0.981 . S
C4155 H4150 0.950 . S
C4155 C4157 1.327 . S
C4155 C4161 1.429 . S
C4156 C4148 1.574 . S
C4156 H4151 0.949 . S
C4156 C4162 1.368 . S
C4157 C4141 1.349 . S
C4157 H4149 0.950 . S
C4157 C4155 1.327 . S
C4158 C4146 1.349 . S
C4158 H4152 0.950 1_556 S
C4158 C4159 1.327 . S
C4159 H4153 0.964 . S
C4159 C4158 1.327 . S
C4159 C4163 1.429 . S
C4160 C4143 1.554 1_455 S
C4160 H4154 0.981 . S
C4160 C4164 1.354 1_455 S
C4161 C4142 1.429 . S
C4161 C4155 1.429 . S
C4161 C4162 1.523 . S
C4162 C4143 1.368 . S
C4162 C4156 1.368 . S
C4162 C4161 1.523 . S
C4163 C4147 1.429 . S
C4163 C4159 1.429 . S
C4163 C4164 1.523 1_455 S
C4164 C4148 1.368 . S
C4164 C4160 1.354 1_655 S
C4164 C4163 1.523 1_655 S
H4165 C4140 0.950 . S
H4166 C4142 0.950 . S
H4167 C4143 0.949 . S
H4168 C4145 0.950 . S
H4169 C4147 0.950 . S
C4170 C4171 1.349 . S
C4170 C4172 1.327 . S
C4170 H4195 0.950 . S
C4171 C4170 1.349 . S
C4171 C4187 1.349 . S
C4172 C4170 1.327 . S
C4172 C4191 1.429 . S
C4172 H4196 0.950 . S
C4173 C4190 1.574 . S
C4173 C4192 1.368 . S
C4173 H4197 0.949 . S
H4174 C4178 0.949 . S
C4175 C4176 1.349 . S
C4175 C4177 1.327 . S
C4175 H4198 0.950 . S
C4176 C4175 1.349 . S
C4176 C4188 1.349 . S
C4177 C4175 1.327 . S
C4177 C4193 1.429 . S
C4177 H4199 0.950 . S
C4178 H4174 0.949 . S
C4178 C4186 1.574 . S
C4178 C4194 1.368 . S
H4179 C4187 0.950 . S
H4180 C4185 0.950 . S
H4181 C4186 0.949 . S
H4182 C4188 0.950 . S
H4183 C4189 0.950 . S
H4184 C4190 0.949 . S
C4185 H4180 0.950 . S
C4185 C4187 1.327 . S
C4185 C4191 1.429 . S
C4186 C4178 1.574 . S
C4186 H4181 0.949 . S
C4186 C4192 1.368 . S
C4187 C4171 1.349 . S
C4187 H4179 0.950 . S
C4187 C4185 1.327 . S
C4188 C4176 1.349 . S
C4188 H4182 0.950 . S
C4188 C4189 1.327 . S
C4189 H4183 0.950 . S
C4189 C4188 1.327 . S
C4189 C4193 1.429 . S
C4190 C4173 1.574 . S
C4190 H4184 0.949 . S
C4190 C4194 1.368 . S
C4191 C4172 1.429 . S
C4191 C4185 1.429 . S
C4191 C4192 1.523 . S
C4192 C4173 1.368 . S
C4192 C4186 1.368 . S
C4192 C4191 1.523 . S
C4193 C4177 1.429 . S
C4193 C4189 1.429 . S
C4193 C4194 1.523 . S
C4194 C4178 1.368 . S
C4194 C4190 1.368 . S
C4194 C4193 1.523 . S
H4195 C4170 0.950 . S
H4196 C4172 0.950 . S
H4197 C4173 0.949 . S
H4198 C4175 0.950 . S
H4199 C4177 0.950 . S
C4200 C4201 1.349 . S
C4200 C4202 1.327 . S
C4200 H4225 0.950 . S
C4201 C4200 1.349 . S
C4201 C4217 1.349 . S
C4202 C4200 1.327 . S
C4202 C4221 1.429 . S
C4202 H4226 0.950 . S
C4203 C4220 1.574 . S
C4203 C4222 1.368 . S
C4203 H4227 0.949 . S
H4204 C4208 0.949 . S
C4205 C4206 1.349 . S
C4205 C4207 1.327 . S
C4205 H4228 0.950 . S
C4206 C4205 1.349 . S
C4206 C4218 1.349 . S
C4207 C4205 1.327 . S
C4207 C4223 1.429 . S
C4207 H4229 0.950 . S
C4208 H4204 0.949 . S
C4208 C4216 1.574 . S
C4208 C4224 1.368 . S
H4209 C4217 0.950 . S
H4210 C4215 0.950 . S
H4211 C4216 0.949 . S
H4212 C4218 0.950 . S
H4213 C4219 0.950 . S
H4214 C4220 0.949 . S
C4215 H4210 0.950 . S
C4215 C4217 1.327 . S
C4215 C4221 1.429 . S
C4216 C4208 1.574 . S
C4216 H4211 0.949 . S
C4216 C4222 1.368 . S
C4217 C4201 1.349 . S
C4217 H4209 0.950 . S
C4217 C4215 1.327 . S
C4218 C4206 1.349 . S
C4218 H4212 0.950 . S
C4218 C4219 1.327 . S
C4219 H4213 0.950 . S
C4219 C4218 1.327 . S
C4219 C4223 1.429 . S
C4220 C4203 1.574 . S
C4220 H4214 0.949 . S
C4220 C4224 1.368 . S
C4221 C4202 1.429 . S
C4221 C4215 1.429 . S
C4221 C4222 1.523 . S
C4222 C4203 1.368 . S
C4222 C4216 1.368 . S
C4222 C4221 1.523 . S
C4223 C4207 1.429 . S
C4223 C4219 1.429 . S
C4223 C4224 1.523 . S
C4224 C4208 1.368 . S
C4224 C4220 1.368 . S
C4224 C4223 1.523 . S
H4225 C4200 0.950 . S
H4226 C4202 0.950 . S
H4227 C4203 0.949 . S
H4228 C4205 0.950 . S
H4229 C4207 0.950 . S
C4230 C4231 1.349 . S
C4230 C4232 1.327 . S
C4230 H4255 0.950 . S
C4231 C4230 1.349 . S
C4231 C4247 1.349 . S
C4232 C4230 1.327 . S
C4232 C4251 1.429 . S
C4232 H4256 0.950 . S
C4233 C4250 1.574 . S
C4233 C4252 1.368 . S
C4233 H4257 0.949 . S
H4234 C4238 0.949 . S
C4235 C4236 1.349 . S
C4235 C4237 1.327 . S
C4235 H4258 0.950 . S
C4236 C4235 1.349 . S
C4236 C4248 1.349 . S
C4237 C4235 1.327 . S
C4237 C4253 1.429 . S
C4237 H4259 0.950 . S
C4238 H4234 0.949 . S
C4238 C4246 1.574 . S
C4238 C4254 1.368 . S
H4239 C4247 0.950 . S
H4240 C4245 0.950 . S
H4241 C4246 0.949 . S
H4242 C4248 0.950 . S
H4243 C4249 0.950 . S
H4244 C4250 0.949 . S
C4245 H4240 0.950 . S
C4245 C4247 1.327 . S
C4245 C4251 1.429 . S
C4246 C4238 1.574 . S
C4246 H4241 0.949 . S
C4246 C4252 1.368 . S
C4247 C4231 1.349 . S
C4247 H4239 0.950 . S
C4247 C4245 1.327 . S
C4248 C4236 1.349 . S
C4248 H4242 0.950 . S
C4248 C4249 1.327 . S
C4249 H4243 0.950 . S
C4249 C4248 1.327 . S
C4249 C4253 1.429 . S
C4250 C4233 1.574 . S
C4250 H4244 0.949 . S
C4250 C4254 1.368 . S
C4251 C4232 1.429 . S
C4251 C4245 1.429 . S
C4251 C4252 1.523 . S
C4252 C4233 1.368 . S
C4252 C4246 1.368 . S
C4252 C4251 1.523 . S
C4253 C4237 1.429 . S
C4253 C4249 1.429 . S
C4253 C4254 1.523 . S
C4254 C4238 1.368 . S
C4254 C4250 1.368 . S
C4254 C4253 1.523 . S
H4255 C4230 0.950 . S
H4256 C4232 0.950 . S
H4257 C4233 0.949 . S
H4258 C4235 0.950 . S
H4259 C4237 0.950 . S
C4260 C4261 1.349 . S
C4260 C4262 1.327 . S
C4260 H4285 0.950 . S
C4261 C4260 1.349 . S
C4261 C4277 1.349 . S
C4262 C4260 1.327 . S
C4262 C4281 1.429 . S
C4262 H4286 0.950 . S
C4263 C4280 1.574 . S
C4263 C4282 1.368 . S
C4263 H4287 0.949 . S
H4264 C4268 0.949 . S
C4265 C4266 1.349 1_655 S
C4265 C4267 1.327 . S
C4265 H4288 0.950 . S
C4266 C4265 1.349 1_455 S
C4266 C4278 1.349 . S
C4267 C4265 1.327 . S
C4267 C4283 1.429 . S
C4267 H4289 0.950 . S
C4268 H4264 0.949 . S
C4268 C4276 1.574 . S
C4268 C4284 1.368 . S
H4269 C4277 0.950 . S
H4270 C4275 0.950 . S
H4271 C4276 0.949 . S
H4272 C4278 0.950 . S
H4273 C4279 0.950 . S
H4274 C4280 0.949 . S
C4275 H4270 0.950 . S
C4275 C4277 1.327 . S
C4275 C4281 1.429 . S
C4276 C4268 1.574 . S
C4276 H4271 0.949 . S
C4276 C4282 1.368 . S
C4277 C4261 1.349 . S
C4277 H4269 0.950 . S
C4277 C4275 1.327 . S
C4278 C4266 1.349 . S
C4278 H4272 0.950 . S
C4278 C4279 1.327 . S
C4279 H4273 0.950 . S
C4279 C4278 1.327 . S
C4279 C4283 1.429 1_455 S
C4280 C4263 1.574 . S
C4280 H4274 0.949 . S
C4280 C4284 1.368 . S
C4281 C4262 1.429 . S
C4281 C4275 1.429 . S
C4281 C4282 1.523 . S
C4282 C4263 1.368 . S
C4282 C4276 1.368 . S
C4282 C4281 1.523 . S
C4283 C4267 1.429 . S
C4283 C4279 1.429 1_655 S
C4283 C4284 1.523 . S
C4284 C4268 1.368 . S
C4284 C4280 1.368 . S
C4284 C4283 1.523 . S
H4285 C4260 0.950 . S
H4286 C4262 0.950 . S
H4287 C4263 0.949 . S
H4288 C4265 0.950 . S
H4289 C4267 0.950 . S
C4290 C4291 1.349 . S
C4290 C4292 1.327 . S
C4290 H4315 0.950 . S
C4291 C4290 1.349 . S
C4291 C4307 1.349 . S
C4292 C4290 1.327 . S
C4292 C4311 1.429 . S
C4292 H4316 0.950 . S
C4293 C4310 1.574 . S
C4293 C4312 1.368 . S
C4293 H4317 0.949 . S
H4294 C4298 0.949 . S
C4295 C4296 1.349 . S
C4295 C4297 1.327 . S
C4295 H4318 0.950 . S
C4296 C4295 1.349 . S
C4296 C4308 1.349 . S
C4297 C4295 1.327 . S
C4297 C4313 1.429 . S
C4297 H4319 0.950 . S
C4298 H4294 0.949 . S
C4298 C4306 1.574 . S
C4298 C4314 1.368 . S
H4299 C4307 0.950 . S
H4300 C4305 0.950 . S
H4301 C4306 0.949 . S
H4302 C4308 0.950 . S
H4303 C4309 0.950 . S
H4304 C4310 0.949 . S
C4305 H4300 0.950 . S
C4305 C4307 1.327 . S
C4305 C4311 1.429 . S
C4306 C4298 1.574 . S
C4306 H4301 0.949 . S
C4306 C4312 1.368 . S
C4307 C4291 1.349 . S
C4307 H4299 0.950 . S
C4307 C4305 1.327 . S
C4308 C4296 1.349 . S
C4308 H4302 0.950 . S
C4308 C4309 1.327 . S
C4309 H4303 0.950 . S
C4309 C4308 1.327 . S
C4309 C4313 1.429 . S
C4310 C4293 1.574 . S
C4310 H4304 0.949 . S
C4310 C4314 1.368 . S
C4311 C4292 1.429 . S
C4311 C4305 1.429 . S
C4311 C4312 1.523 . S
C4312 C4293 1.368 . S
C4312 C4306 1.368 . S
C4312 C4311 1.523 . S
C4313 C4297 1.429 . S
C4313 C4309 1.429 . S
C4313 C4314 1.523 . S
C4314 C4298 1.368 . S
C4314 C4310 1.368 . S
C4314 C4313 1.523 . S
H4315 C4290 0.950 . S
H4316 C4292 0.950 . S
H4317 C4293 0.949 . S
H4318 C4295 0.950 . S
H4319 C4297 0.950 . S
C4320 C4321 1.349 . S
C4320 C4322 1.327 . S
C4320 H4345 0.950 . S
C4321 C4320 1.349 . S
C4321 C4337 1.349 . S
C4322 C4320 1.327 . S
C4322 C4341 1.429 . S
C4322 H4346 0.950 . S
C4323 C4340 1.574 . S
C4323 C4342 1.368 . S
C4323 H4347 0.949 . S
H4324 C4328 0.949 . S
C4325 C4326 1.349 . S
C4325 C4327 1.327 . S
C4325 H4348 0.950 . S
C4326 C4325 1.349 . S
C4326 C4338 1.349 . S
C4327 C4325 1.327 . S
C4327 C4343 1.429 . S
C4327 H4349 0.950 . S
C4328 H4324 0.949 . S
C4328 C4336 1.574 . S
C4328 C4344 1.368 . S
H4329 C4337 0.950 . S
H4330 C4335 0.950 . S
H4331 C4336 0.949 . S
H4332 C4338 0.950 . S
H4333 C4339 0.950 . S
H4334 C4340 0.949 . S
C4335 H4330 0.950 . S
C4335 C4337 1.327 . S
C4335 C4341 1.429 . S
C4336 C4328 1.574 . S
C4336 H4331 0.949 . S
C4336 C4342 1.368 . S
C4337 C4321 1.349 . S
C4337 H4329 0.950 . S
C4337 C4335 1.327 . S
C4338 C4326 1.349 . S
C4338 H4332 0.950 . S
C4338 C4339 1.327 . S
C4339 H4333 0.950 . S
C4339 C4338 1.327 . S
C4339 C4343 1.429 . S
C4340 C4323 1.574 . S
C4340 H4334 0.949 . S
C4340 C4344 1.368 . S
C4341 C4322 1.429 . S
C4341 C4335 1.429 . S
C4341 C4342 1.523 . S
C4342 C4323 1.368 . S
C4342 C4336 1.368 . S
C4342 C4341 1.523 . S
C4343 C4327 1.429 . S
C4343 C4339 1.429 . S
C4343 C4344 1.523 . S
C4344 C4328 1.368 . S
C4344 C4340 1.368 . S
C4344 C4343 1.523 . S
H4345 C4320 0.950 . S
H4346 C4322 0.950 . S
H4347 C4323 0.949 . S
H4348 C4325 0.950 . S
H4349 C4327 0.950 . S
C4350 C4351 1.349 . S
C4350 C4352 1.327 . S
C4350 H4375 0.950 . S
C4351 C4350 1.349 . S
C4351 C4367 1.349 . S
C4352 C4350 1.327 . S
C4352 C4371 1.429 . S
C4352 H4376 0.950 . S
C4353 C4370 1.574 . S
C4353 C4372 1.368 . S
C4353 H4377 0.949 . S
H4354 C4358 0.949 . S
C4355 C4356 1.351 . S
C4355 C4357 1.315 1_545 S
C4355 H4378 0.962 . S
C4356 C4355 1.351 . S
C4356 C4368 1.349 . S
C4357 C4355 1.315 1_565 S
C4357 C4373 1.429 . S
C4357 H4379 0.950 . S
C4358 H4354 0.949 . S
C4358 C4366 1.574 . S
C4358 C4374 1.368 . S
H4359 C4367 0.950 . S
H4360 C4365 0.950 . S
H4361 C4366 0.949 . S
H4362 C4368 0.950 1_455 S
H4363 C4369 0.950 . S
H4364 C4370 0.949 . S
C4365 H4360 0.950 . S
C4365 C4367 1.327 . S
C4365 C4371 1.429 . S
C4366 C4358 1.574 . S
C4366 H4361 0.949 . S
C4366 C4372 1.368 . S
C4367 C4351 1.349 . S
C4367 H4359 0.950 . S
C4367 C4365 1.327 . S
C4368 C4356 1.349 . S
C4368 H4362 0.950 1_655 S
C4368 C4369 1.327 1_545 S
C4369 H4363 0.950 . S
C4369 C4368 1.327 1_565 S
C4369 C4373 1.429 . S
C4370 C4353 1.574 . S
C4370 H4364 0.949 . S
C4370 C4374 1.368 . S
C4371 C4352 1.429 . S
C4371 C4365 1.429 . S
C4371 C4372 1.523 . S
C4372 C4353 1.368 . S
C4372 C4366 1.368 . S
C4372 C4371 1.523 . S
C4373 C4357 1.429 . S
C4373 C4369 1.429 . S
C4373 C4374 1.523 . S
C4374 C4358 1.368 . S
C4374 C4370 1.368 . S
C4374 C4373 1.523 . S
H4375 C4350 0.950 . S
H4376 C4352 0.950 . S
H4377 C4353 0.949 . S
H4378 C4355 0.962 . S
H4379 C4357 0.950 . S
C4380 C4381 1.349 . S
C4380 C4382 1.327 . S
C4380 H4405 0.950 . S
C4381 C4380 1.349 . S
C4381 C4397 1.349 . S
C4382 C4380 1.327 . S
C4382 C4401 1.429 . S
C4382 H4406 0.950 . S
C4383 C4400 1.574 . S
C4383 C4402 1.368 . S
C4383 H4407 0.949 . S
H4384 C4388 0.949 . S
C4385 C4386 1.349 . S
C4385 C4387 1.327 . S
C4385 H4408 0.950 . S
C4386 C4385 1.349 . S
C4386 C4398 1.349 . S
C4387 C4385 1.327 . S
C4387 C4403 1.429 . S
C4387 H4409 0.950 . S
C4388 H4384 0.949 . S
C4388 C4396 1.574 . S
C4388 C4404 1.368 . S
H4389 C4397 0.950 . S
H4390 C4395 0.950 . S
H4391 C4396 0.949 . S
H4392 C4398 0.950 . S
H4393 C4399 0.950 . S
H4394 C4400 0.949 . S
C4395 H4390 0.950 . S
C4395 C4397 1.327 . S
C4395 C4401 1.429 . S
C4396 C4388 1.574 . S
C4396 H4391 0.949 . S
C4396 C4402 1.368 . S
C4397 C4381 1.349 . S
C4397 H4389 0.950 . S
C4397 C4395 1.327 . S
C4398 C4386 1.349 . S
C4398 H4392 0.950 . S
C4398 C4399 1.327 . S
C4399 H4393 0.950 . S
C4399 C4398 1.327 . S
C4399 C4403 1.429 . S
C4400 C4383 1.574 . S
C4400 H4394 0.949 . S
C4400 C4404 1.368 . S
C4401 C4382 1.429 . S
C4401 C4395 1.429 . S
C4401 C4402 1.523 . S
C4402 C4383 1.368 . S
C4402 C4396 1.368 . S
C4402 C4401 1.523 . S
C4403 C4387 1.429 . S
C4403 C4399 1.429 . S
C4403 C4404 1.523 . S
C4404 C4388 1.368 . S
C4404 C4400 1.368 . S
C4404 C4403 1.523 . S
H4405 C4380 0.950 . S
H4406 C4382 0.950 . S
H4407 C4383 0.949 . S
H4408 C4385 0.950 . S
H4409 C4387 0.950 . S
C4410 C4411 1.349 . S
C4410 C4412 1.327 . S
C4410 H4435 0.950 . S
C4411 C4410 1.349 . S
C4411 C4427 1.349 . S
C4412 C4410 1.327 . S
C4412 C4431 1.429 . S
C4412 H4436 0.950 . S
C4413 C4430 1.574 . S
C4413 C4432 1.368 . S
C4413 H4437 0.949 1_554 S
H4414 C4418 0.949 . S
C4415 C4416 1.349 . S
C4415 C4417 1.327 . S
C4415 H4438 0.976 . S
C4416 C4415 1.349 . S
C4416 C4428 1.349 . S
C4417 C4415 1.327 . S
C4417 C4433 1.429 . S
C4417 H4439 0.950 1_554 S
C4418 H4414 0.949 . S
C4418 C4426 1.574 . S
C4418 C4434 1.368 . S
H4419 C4427 0.950 1_556 S
H4420 C4425 0.950 1_556 S
H4421 C4426 0.949 . S
H4422 C4428 0.950 . S
H4423 C4429 0.950 . S
H4424 C4430 0.949 1_556 S
C4425 H4420 0.950 1_554 S
C4425 C4427 1.327 . S
C4425 C4431 1.429 . S
C4426 C4418 1.574 . S
C4426 H4421 0.949 . S
C4426 C4432 1.368 . S
C4427 C4411 1.349 . S
C4427 H4419 0.950 1_554 S
C4427 C4425 1.327 . S
C4428 C4416 1.349 . S
C4428 H4422 0.950 . S
C4428 C4429 1.327 . S
C4429 H4423 0.950 . S
C4429 C4428 1.327 . S
C4429 C4433 1.429 . S
C4430 C4413 1.574 . S
C4430 H4424 0.949 1_554 S
C4430 C4434 1.368 . S
C4431 C4412 1.429 . S
C4431 C4425 1.429 . S
C4431 C4432 1.523 . S
C4432 C4413 1.368 . S
C4432 C4426 1.368 . S
C4432 C4431 1.523 . S
C4433 C4417 1.429 . S
C4433 C4429 1.429 . S
C4433 C4434 1.523 . S
C4434 C4418 1.368 . S
C4434 C4430 1.368 . S
C4434 C4433 1.523 . S
H4435 C4410 0.950 . S
H4436 C4412 0.950 . S
H4437 C4413 0.949 1_556 S
H4438 C4415 0.976 . S
H4439 C4417 0.950 1_556 S
C4440 C4441 1.349 . S
C4440 C4442 1.327 . S
C4440 H4465 0.950 . S
C4441 C4440 1.349 . S
C4441 C4457 1.349 . S
C4442 C4440 1.327 . S
C4442 C4461 1.429 . S
C4442 H4466 0.950 . S
C4443 C4460 1.574 . S
C4443 C4462 1.368 . S
C4443 H4467 0.949 . S
H4444 C4448 0.949 . S
C4445 C4446 1.349 . S
C4445 C4447 1.327 . S
C4445 H4468 0.950 . S
C4446 C4445 1.349 . S
C4446 C4458 1.349 . S
C4447 C4445 1.327 . S
C4447 C4463 1.429 . S
C4447 H4469 0.950 . S
C4448 H4444 0.949 . S
C4448 C4456 1.574 . S
C4448 C4464 1.368 . S
H4449 C4457 0.950 . S
H4450 C4455 0.950 . S
H4451 C4456 0.949 . S
H4452 C4458 0.950 . S
H4453 C4459 0.950 . S
H4454 C4460 0.949 . S
C4455 H4450 0.950 . S
C4455 C4457 1.327 . S
C4455 C4461 1.429 . S
C4456 C4448 1.574 . S
C4456 H4451 0.949 . S
C4456 C4462 1.368 . S
C4457 C4441 1.349 . S
C4457 H4449 0.950 . S
C4457 C4455 1.327 . S
C4458 C4446 1.349 . S
C4458 H4452 0.950 . S
C4458 C4459 1.327 . S
C4459 H4453 0.950 . S
C4459 C4458 1.327 . S
C4459 C4463 1.429 . S
C4460 C4443 1.574 . S
C4460 H4454 0.949 . S
C4460 C4464 1.368 . S
C4461 C4442 1.429 . S
C4461 C4455 1.429 . S
C4461 C4462 1.523 . S
C4462 C4443 1.368 . S
C4462 C4456 1.368 . S
C4462 C4461 1.523 . S
C4463 C4447 1.429 . S
C4463 C4459 1.429 . S
C4463 C4464 1.523 . S
C4464 C4448 1.368 . S
C4464 C4460 1.368 . S
C4464 C4463 1.523 . S
H4465 C4440 0.950 . S
H4466 C4442 0.950 . S
H4467 C4443 0.949 . S
H4468 C4445 0.950 . S
H4469 C4447 0.950 . S
C4470 C4471 1.349 . S
C4470 C4472 1.327 . S
C4470 H4495 0.950 . S
C4471 C4470 1.349 . S
C4471 C4487 1.349 . S
C4472 C4470 1.327 . S
C4472 C4491 1.429 . S
C4472 H4496 0.950 . S
C4473 C4490 1.574 . S
C4473 C4492 1.368 . S
C4473 H4497 0.949 . S
H4474 C4478 0.949 . S
C4475 C4476 1.349 . S
C4475 C4477 1.327 . S
C4475 H4498 0.950 . S
C4476 C4475 1.349 . S
C4476 C4488 1.349 . S
C4477 C4475 1.327 . S
C4477 C4493 1.429 . S
C4477 H4499 0.950 . S
C4478 H4474 0.949 . S
C4478 C4486 1.574 . S
C4478 C4494 1.368 . S
H4479 C4487 0.950 . S
H4480 C4485 0.950 . S
H4481 C4486 0.949 . S
H4482 C4488 0.950 . S
H4483 C4489 0.950 . S
H4484 C4490 0.949 . S
C4485 H4480 0.950 . S
C4485 C4487 1.327 . S
C4485 C4491 1.429 . S
C4486 C4478 1.574 . S
C4486 H4481 0.949 . S
C4486 C4492 1.368 . S
C4487 C4471 1.349 . S
C4487 H4479 0.950 . S
C4487 C4485 1.327 . S
C4488 C4476 1.349 . S
C4488 H4482 0.950 . S
C4488 C4489 1.327 . S
C4489 H4483 0.950 . S
C4489 C4488 1.327 . S
C4489 C4493 1.429 . S
C4490 C4473 1.574 . S
C4490 H4484 0.949 . S
C4490 C4494 1.368 . S
C4491 C4472 1.429 . S
C4491 C4485 1.429 . S
C4491 C4492 1.523 . S
C4492 C4473 1.368 . S
C4492 C4486 1.368 . S
C4492 C4491 1.523 . S
C4493 C4477 1.429 . S
C4493 C4489 1.429 . S
C4493 C4494 1.523 . S
C4494 C4478 1.368 . S
C4494 C4490 1.368 . S
C4494 C4493 1.523 . S
H4495 C4470 0.950 . S
H4496 C4472 0.950 . S
H4497 C4473 0.949 . S
H4498 C4475 0.950 . S
H4499 C4477 0.950 . S
C4500 C4501 1.349 1_565 S
C4500 C4502 1.327 . S
C4500 H4525 0.950 . S
C4501 C4500 1.349 1_545 S
C4501 C4517 1.349 1_545 S
C4502 C4500 1.327 . S
C4502 C4521 1.429 . S
C4502 H4526 0.950 . S
C4503 C4520 1.574 . S
C4503 C4522 1.368 . S
C4503 H4527 0.949 . S
H4504 C4508 0.949 . S
C4505 C4506 1.349 . S
C4505 C4507 1.327 . S
C4505 H4528 0.950 . S
C4506 C4505 1.349 . S
C4506 C4518 1.349 . S
C4507 C4505 1.327 . S
C4507 C4523 1.429 . S
C4507 H4529 0.950 . S
C4508 H4504 0.949 . S
C4508 C4516 1.574 . S
C4508 C4524 1.368 . S
H4509 C4517 0.950 1_545 S
H4510 C4515 0.950 . S
H4511 C4516 0.949 . S
H4512 C4518 0.950 . S
H4513 C4519 0.950 . S
H4514 C4520 0.949 . S
C4515 H4510 0.950 . S
C4515 C4517 1.327 . S
C4515 C4521 1.429 . S
C4516 C4508 1.574 . S
C4516 H4511 0.949 . S
C4516 C4522 1.368 . S
C4517 C4501 1.349 1_565 S
C4517 H4509 0.950 1_565 S
C4517 C4515 1.327 . S
C4518 C4506 1.349 . S
C4518 H4512 0.950 . S
C4518 C4519 1.327 . S
C4519 H4513 0.950 . S
C4519 C4518 1.327 . S
C4519 C4523 1.429 . S
C4520 C4503 1.574 . S
C4520 H4514 0.949 . S
C4520 C4524 1.368 . S
C4521 C4502 1.429 . S
C4521 C4515 1.429 . S
C4521 C4522 1.523 . S
C4522 C4503 1.368 . S
C4522 C4516 1.368 . S
C4522 C4521 1.523 . S
C4523 C4507 1.429 . S
C4523 C4519 1.429 . S
C4523 C4524 1.523 . S
C4524 C4508 1.368 . S
C4524 C4520 1.368 . S
C4524 C4523 1.523 . S
H4525 C4500 0.950 . S
H4526 C4502 0.950 . S
H4527 C4503 0.949 . S
H4528 C4505 0.950 . S
H4529 C4507 0.950 . S
C4530 C4531 1.349 . S
C4530 C4532 1.327 . S
C4530 H4555 0.950 . S
C4531 C4530 1.349 . S
C4531 C4547 1.349 . S
C4532 C4530 1.327 . S
C4532 C4551 1.429 . S
C4532 H4556 0.950 . S
C4533 C4550 1.574 . S
C4533 C4552 1.368 . S
C4533 H4557 0.949 . S
H4534 C4538 0.949 . S
C4535 C4536 1.349 . S
C4535 C4537 1.327 . S
C4535 H4558 0.950 . S
C4536 C4535 1.349 . S
C4536 C4548 1.349 . S
C4537 C4535 1.327 . S
C4537 C4553 1.429 . S
C4537 H4559 0.950 . S
C4538 H4534 0.949 . S
C4538 C4546 1.574 . S
C4538 C4554 1.368 . S
H4539 C4547 0.950 . S
H4540 C4545 0.950 . S
H4541 C4546 0.949 . S
H4542 C4548 0.950 . S
H4543 C4549 0.950 . S
H4544 C4550 0.949 . S
C4545 H4540 0.950 . S
C4545 C4547 1.327 . S
C4545 C4551 1.429 . S
C4546 C4538 1.574 . S
C4546 H4541 0.949 . S
C4546 C4552 1.368 . S
C4547 C4531 1.349 . S
C4547 H4539 0.950 . S
C4547 C4545 1.327 . S
C4548 C4536 1.349 . S
C4548 H4542 0.950 . S
C4548 C4549 1.327 . S
C4549 H4543 0.950 . S
C4549 C4548 1.327 . S
C4549 C4553 1.429 . S
C4550 C4533 1.574 . S
C4550 H4544 0.949 . S
C4550 C4554 1.368 . S
C4551 C4532 1.429 . S
C4551 C4545 1.429 . S
C4551 C4552 1.523 . S
C4552 C4533 1.368 . S
C4552 C4546 1.368 . S
C4552 C4551 1.523 . S
C4553 C4537 1.429 . S
C4553 C4549 1.429 . S
C4553 C4554 1.523 . S
C4554 C4538 1.368 . S
C4554 C4550 1.368 . S
C4554 C4553 1.523 . S
H4555 C4530 0.950 . S
H4556 C4532 0.950 . S
H4557 C4533 0.949 . S
H4558 C4535 0.950 . S
H4559 C4537 0.950 . S
C1681 C106 1.935 . S
C1686 C403 1.807 . S
C1711 C65 2.196 . S
C1716 C486 2.118 . S
C1741 C79 1.775 . S
C1746 C571 1.665 1_565 S
C1776 C651 1.337 . S
C1771 C90 1.419 . S
C1801 C21 1.324 . S
C1806 C735 1.302 . S
C1836 C828 0.874 . S
C1831 C35 0.895 . S
C1866 C906 0.646 . S
C1861 C50 0.638 . S
C1891 C6 1.341 . S
C1896 C991 1.237 . S
C1926 C402 2.132 . S
C1921 C232 2.241 . S
C1951 C245 0.619 . S
C1956 C483 0.634 . S
C1986 C570 1.219 . S
C1981 C274 1.275 . S
C2016 C655 1.464 . S
C2011 C175 1.554 . S
C2041 C231 1.755 . S
C2046 C739 1.668 . S
C2076 C831 0.989 . S
C2071 C246 1.063 . S
C2106 C903 0.662 . S
C2101 C273 0.629 . S
C2136 C990 1.449 . S
C2131 C176 1.560 . S
C2166 C399 1.469 . S
C2161 C160 1.524 . S
C2191 C289 1.979 1_554 S
C2196 C1074 1.924 . S
C2226 C1148 2.193 . S
C2221 C328 2.307 . S
C2256 C1243 0.597 . S
C2251 C317 0.536 . S
C2281 C118 0.811 . S
C2286 C987 0.830 . S
C2311 C132 1.408 . S
C2316 C567 1.417 . S
C2341 C331 2.411 . S
C2346 C1326 2.331 . S
C2376 C1411 0.947 . S
C2371 C303 0.993 . S
C2406 C392 1.424 1_565 S
C2401 C63 1.537 . S
C2436 C1419 2.567 . S
C2431 C107 2.572 . S
C2461 C92 1.590 . S
C2466 C560 1.536 . S
C2491 C78 2.082 . S
C2496 C1332 1.902 . S
C2526 C744 1.809 . S
C2521 C8 1.922 . S
C2551 C51 1.210 . S
C2556 C1155 1.115 . S
C2586 C915 1.093 1_565 S
C2581 C37 1.101 . S
C2616 C1484 1.151 . S
C2611 C20 1.247 . S
C2646 C411 2.002 . S
C2641 C147 2.059 . S
C2676 C1416 0.762 . S
C2671 C316 0.766 . S
C2701 C119 1.141 . S
C2706 C579 1.153 . S
C2731 C288 1.743 . S
C2736 C1316 1.652 . S
C2761 C148 2.264 1_545 S
C2766 C728 2.085 . S
C2796 C1158 1.065 . S
C2791 C315 1.110 . S
C2821 C120 0.939 . S
C2826 C912 0.895 . S
C2851 C287 1.462 . S
C2856 C1503 1.389 . S
C2881 C188 1.391 . S
C2886 C408 1.308 . S
C2911 C177 2.349 . S
C2916 C1083 2.290 . S
C2941 C258 2.455 . S
C2946 C823 2.356 . S
C2971 C247 0.538 . S
C2976 C1232 0.605 . S
C3006 C1500 0.590 . S
C3001 C272 0.582 . S
C3031 C216 1.287 . S
C3036 C576 1.215 1_565 S
C3066 C663 2.578 . S
C3061 C261 2.650 . S
C3096 C476 0.881 . S
C3091 C205 0.917 . S
C3121 C76 1.528 . S
C3126 C1579 1.430 . S
C3156 C1410 2.201 . S
C3151 C93 2.281 . S
C3181 C105 1.375 . S
C3186 C1663 1.278 . S
C3211 C62 1.460 . S
C3216 C1323 1.377 . S
C3241 C49 1.297 . S
C3246 C1071 1.278 . S
C3276 C1164 1.219 . S
C3271 C9 1.294 . S
C3306 C1242 0.581 . S
C3301 C22 0.569 . S
C3336 C1495 1.579 . S
C3331 C36 1.753 . S
C3366 C1578 2.040 . S
C3361 C260 2.142 . S
C3391 C189 0.528 . S
C3396 C1407 0.579 . S
C3426 C1662 1.131 . S
C3421 C204 1.179 . S
C3456 C1327 1.303 . S
C3451 C217 1.379 . S
C3486 C1075 1.936 . S
C3481 C259 2.033 . S
C3511 C190 1.160 . S
C3516 C1167 1.085 . S
C3546 C1239 0.742 . S
C3541 C203 0.740 . S
C3571 C218 1.666 . S
C3576 C1494 1.548 . S
C3606 C1575 1.428 . S
C3601 C314 1.471 . S
C3631 C135 2.104 . S
C3636 C738 2.023 . S
C3666 C812 2.068 . S
C3661 C146 2.197 . S
C3696 C907 0.609 . S
C3691 C163 0.566 . S
C3726 C1491 0.827 . S
C3721 C300 0.812 . S
C3751 C286 1.361 . S
C3756 C1659 1.393 . S
C3786 C654 2.233 . S
C3781 C149 2.307 . S
C3816 C487 0.886 . S
C3811 C121 0.925 1_565 S
C3841 C91 1.512 . S
C3846 C1568 1.407 . S
C3876 C495 2.152 . S
C3871 C77 2.098 . S
C3901 C64 1.558 . S
C3906 C1652 1.520 . S
C3931 C104 1.677 . S
C3936 C660 1.584 . S
C3961 C34 1.492 . S
C3966 C1080 1.453 1_556 S
C3996 C819 1.089 . S
C3991 C23 1.198 . S
C4021 C7 0.789 . S
C4026 C1251 0.798 . S
C4051 C48 1.213 . S
C4056 C980 1.129 . S
C4086 C1587 1.979 . S
C4081 C329 2.039 . S
C4111 C162 0.796 . S
C4116 C492 0.784 . S
C4146 C1671 1.154 1_556 S
C4141 C301 1.144 . S
C4171 C134 1.769 . S
C4176 C644 1.682 . S
C4201 C330 2.235 . S
C4206 C1064 2.066 . S
C4236 C822 1.073 . S
C4231 C161 1.114 . S
C4261 C302 0.973 . S
C4266 C1248 0.921 . S
C4296 C999 1.386 . S
C4291 C133 1.459 . S
C4326 C1584 1.512 . S
C4321 C244 1.613 . S
C4356 C747 2.230 1_655 S
C4351 C219 2.277 . S
C4381 C230 2.098 . S
C4386 C1159 1.993 . S
C4416 C896 0.598 . S
C4411 C191 0.521 . S
C4441 C202 0.761 . S
C4446 C996 0.760 . S
C4471 C174 1.525 . S
C4476 C1668 1.478 . S
C4506 C1335 2.543 . S
C4501 C233 2.605 . S
C4536 C1400 0.870 . S
C4531 C275 0.907 . S
