# Generated by pormake.
# Topology anh, (6,3)-cn, num edge types: 1
# Building blocks:
#     Node 0, Type 0, BuildingBlock: PAMTOO_clean_sbu_0, # of connection points: 6
#     Node 1, Type 0, BuildingBlock: PAMTOO_clean_sbu_0, # of connection points: 6
#     Node 2, Type 0, BuildingBlock: PAMTOO_clean_sbu_0, # of connection points: 6
#     Node 3, Type 1, BuildingBlock: WUSLED_clean_sbu_0, # of connection points: 3
#     Node 4, Type 1, BuildingBlock: WUSLED_clean_sbu_0, # of connection points: 3
#     Node 5, Type 1, BuildingBlock: WUSLED_clean_sbu_0, # of connection points: 3
#     Node 6, Type 1, BuildingBlock: WUSLED_clean_sbu_0, # of connection points: 3
#     Node 7, Type 1, BuildingBlock: WUSLED_clean_sbu_0, # of connection points: 3
#     Node 8, Type 1, BuildingBlock: WUSLED_clean_sbu_0, # of connection points: 3
#     Edge 9, Type (0, 1), None
#     Edge 10, Type (0, 1), None
#     Edge 11, Type (0, 1), None
#     Edge 12, Type (0, 1), None
#     Edge 13, Type (0, 1), None
#     Edge 14, Type (0, 1), None
#     Edge 15, Type (0, 1), None
#     Edge 16, Type (0, 1), None
#     Edge 17, Type (0, 1), None
#     Edge 18, Type (0, 1), None
#     Edge 19, Type (0, 1), None
#     Edge 20, Type (0, 1), None
#     Edge 21, Type (0, 1), None
#     Edge 22, Type (0, 1), None
#     Edge 23, Type (0, 1), None
#     Edge 24, Type (0, 1), None
#     Edge 25, Type (0, 1), None
#     Edge 26, Type (0, 1), None
# Relax obj value: 0.252
# Max RMSD: 0.223
# Mean RMSD: 0.170
data_MOF--net-anh--node1-PAMTOO_clean_sbu_0--node2-WUSLED_clean_sbu_0--edge1-none
_symmetry_space_group_name_H-M    P1
_symmetry_Int_Tables_number       1
_symmetry_cell_setting            triclinic
loop_
_symmetry_equiv_pos_as_xyz
'x, y, z'
_cell_length_a     21.996277
_cell_length_b     21.548754
_cell_length_c     40.586197
_cell_angle_alpha  89.429551
_cell_angle_beta   95.774682
_cell_angle_gamma 97.771998
loop_
_atom_site_label
_atom_site_type_symbol
_atom_site_fract_x
_atom_site_fract_y
_atom_site_fract_z
_atom_type_partial_charge
Dy0 Dy 1.11085 0.60782 0.15453 0.0
Dy1 Dy 1.08058 0.45401 0.14731 0.0
C2 C 1.08966 0.54161 0.08384 0.0
O3 O 1.00623 0.58787 0.15372 0.0
O4 O 0.98856 0.48653 0.13388 0.0
O5 O 0.1496 0.69828 0.13713 0.0
O6 O 1.10944 0.69093 0.18377 0.0
O7 O 1.0605 0.48382 0.19703 0.0
O8 O 0.13743 0.56473 0.20324 0.0
O9 O 0.18547 0.47217 0.15152 0.0
O10 O 0.20098 0.57881 0.14303 0.0
O11 O 1.08915 0.36426 0.17027 0.0
O12 O 1.03544 0.369 0.1228 0.0
C13 C 0.96808 0.53869 0.14151 0.0
O14 O 1.07848 0.58894 0.10138 0.0
O15 O 1.10269 0.48881 0.09753 0.0
C16 C 0.19815 0.76502 0.18027 0.0
C17 C 0.30574 0.83826 0.2102 0.0
C18 C 0.2581 0.86678 0.19291 0.0
C19 C 0.20489 0.83048 0.17809 0.0
C20 C 0.24561 0.73617 0.19719 0.0
C21 C 0.29883 0.77239 0.21203 0.0
C22 C 0.14236 0.72702 0.16428 0.0
C23 C 1.09989 0.52136 0.21633 0.0
C24 C 0.22204 0.52435 0.14571 0.0
C25 C 0.99667 0.29454 0.16093 0.0
C26 C 0.89344 0.2202 0.18406 0.0
C27 C 0.9068 0.28437 0.19203 0.0
C28 C 0.95775 0.32115 0.18051 0.0
C29 C 0.98395 0.23062 0.15306 0.0
C30 C 0.93281 0.19377 0.16448 0.0
C31 C 1.04932 0.33386 0.14807 0.0
H32 H 0.2621 0.91724 0.1906 0.0
H33 H 0.16901 0.85356 0.16486 0.0
H34 H 0.24137 0.68559 0.19902 0.0
H35 H 0.33402 0.74875 0.22547 0.0
H36 H 0.87711 0.30655 0.20661 0.0
H37 H 0.96647 0.37059 0.18664 0.0
H38 H 1.01338 0.20925 0.13794 0.0
H39 H 0.92434 0.14445 0.15814 0.0
Dy40 Dy 0.59355 0.06003 0.54121 0.0
Dy41 Dy 0.74574 0.09325 0.54887 0.0
C42 C 0.67111 0.06631 0.61192 0.0
O43 O 0.61143 0.1647 0.5386 0.0
O44 O 0.71196 0.18167 0.56212 0.0
O45 O 0.50897 1.01506 0.55872 0.0
O46 O 0.50631 0.06547 0.51236 0.0
O47 O 0.7084 0.12209 0.49879 0.0
O48 O 0.62836 0.04363 0.49245 0.0
O49 O 0.72755 0.99011 0.53805 0.0
O50 O 0.62782 0.96873 0.55168 0.0
O51 O 0.8315 0.08969 0.52781 0.0
O52 O 0.83162 0.13632 0.57481 0.0
C53 C 0.65973 0.20212 0.55192 0.0
O54 O 0.62237 0.08372 0.59464 0.0
O55 O 0.7194 0.05468 0.59751 0.0
C56 C 0.43674 0.97291 0.51535 0.0
C57 C 0.36253 0.869 0.48358 0.0
C58 C 0.33558 0.91532 0.49897 0.0
C59 C 0.37241 0.96677 0.51473 0.0
C60 C 0.46396 0.92677 0.50026 0.0
C61 C 0.42724 0.87531 0.48454 0.0
C62 C 0.47538 1.02723 0.53172 0.0
C63 C 0.66891 0.0844 0.47948 0.0
C64 C 0.67965 0.95032 0.5449 0.0
C65 C 0.90196 0.18138 0.53837 0.0
C66 C 0.97545 0.28767 0.51539 0.0
C67 C 0.91226 0.27504 0.50433 0.0
C68 C 0.87585 0.22253 0.5158 0.0
C69 C 0.96482 0.19362 0.54947 0.0
C70 C 1.00127 0.24632 0.53814 0.0
C71 C 0.86368 0.12616 0.55054 0.0
H72 H 0.286 0.91159 0.49903 0.0
H73 H 0.35065 1.00181 0.5264 0.0
H74 H 0.51365 0.9308 0.50048 0.0
H75 H 0.44954 0.8411 0.47257 0.0
H76 H 0.8907 0.30631 0.4872 0.0
H77 H 0.82721 0.21411 0.50712 0.0
H78 H 0.98574 0.16238 0.56691 0.0
H79 H 1.04984 0.25431 0.5469 0.0
Dy80 Dy 0.71749 0.50792 0.84692 0.0
Dy81 Dy 0.57344 0.50852 0.82529 0.0
C82 C 0.66337 0.50718 0.77018 0.0
O83 O 0.69838 0.60517 0.85833 0.0
O84 O 0.62349 0.60337 0.81584 0.0
O85 O 0.80981 0.55661 0.85274 0.0
O86 O 0.79304 0.45791 0.86489 0.0
O87 O 0.59122 0.53756 0.87884 0.0
O88 O 0.67358 0.4865 0.89397 0.0
O89 O 0.58064 0.40618 0.8336 0.0
O90 O 0.68288 0.41292 0.82552 0.0
O91 O 0.47875 0.49709 0.83702 0.0
O92 O 0.50239 0.53849 0.79047 0.0
C93 C 0.6632 0.63521 0.83757 0.0
O94 O 0.70804 0.53013 0.79258 0.0
O95 O 0.60976 0.48177 0.77893 0.0
C96 C 0.88471 0.49358 0.84012 0.0
C97 C 0.99603 0.48059 0.81372 0.0
C98 C 0.96712 0.53456 0.80726 0.0
C99 C 0.91229 0.54102 0.82039 0.0
C100 C 0.9092 0.43666 0.84323 0.0
C101 C 0.96396 0.42987 0.82971 0.0
C102 C 0.83417 0.50547 0.85953 0.0
C103 C 0.62706 0.51338 0.90195 0.0
C104 C 0.62914 0.37931 0.82816 0.0
C105 C 0.44335 0.59205 0.82199 0.0
C106 C 0.40917 0.70245 0.84707 0.0
C107 C 0.47097 0.69184 0.85083 0.0
C108 C 0.4875 0.63683 0.83892 0.0
C109 C 0.38257 0.60441 0.81566 0.0
C110 C 0.36557 0.6593 0.82808 0.0
C111 C 0.46252 0.53267 0.81233 0.0
H112 H 0.98968 0.575 0.79514 0.0
H113 H 0.89405 0.58513 0.81692 0.0
H114 H 0.88812 0.39874 0.85777 0.0
H115 H 0.9839 0.38696 0.83437 0.0
H116 H 0.50607 0.7242 0.86469 0.0
H117 H 0.53454 0.62804 0.84433 0.0
H118 H 0.34792 0.57068 0.80242 0.0
H119 H 0.31744 0.66562 0.82458 0.0
C120 C 0.73072 0.11064 0.21648 0.0
C121 C 0.76797 0.15383 0.23808 0.0
C122 C 0.83799 0.18148 0.19556 0.0
C123 C 0.82098 0.18902 0.2277 0.0
C124 C 0.80083 0.13741 0.17424 0.0
C125 C 0.74774 0.10247 0.1846 0.0
U126 U 0.62627 0.04853 0.28289 0.0
O127 O 0.52543 0.04209 0.28308 0.0
O128 O 0.57013 0.95687 0.28772 0.0
C129 C 0.51777 0.98057 0.28448 0.0
C130 C 0.67368 0.07452 0.22659 0.0
C131 C 0.46588 0.94713 0.26244 0.0
C132 C 0.35585 0.93213 0.24411 0.0
C133 C 0.40731 0.96657 0.26163 0.0
C134 C 0.42046 0.8582 0.22732 0.0
C135 C 0.3615 0.87697 0.22708 0.0
C136 C 0.47204 0.8928 0.24481 0.0
C137 C 0.68117 0.09046 0.37411 0.0
C138 C 0.63047 0.04701 0.42146 0.0
C139 C 0.71745 0.12913 0.42961 0.0
C140 C 0.72199 0.13074 0.39551 0.0
C141 C 0.67188 0.08702 0.44308 0.0
C142 C 0.63505 0.04877 0.38722 0.0
C143 C 0.68847 0.09233 0.33842 0.0
O144 O 0.68076 1.02325 0.24354 0.0
O145 O 0.63494 0.10758 0.23864 0.0
O146 O 0.65085 0.12399 0.32002 0.0
O147 O 0.6958 0.03903 0.32488 0.0
H148 H 0.75584 0.16058 0.2629 0.0
H149 H 0.84888 0.22188 0.24492 0.0
H150 H 0.81201 0.13084 0.14923 0.0
H151 H 0.71957 0.06942 0.16756 0.0
H152 H 0.31121 0.94766 0.24492 0.0
H153 H 0.40093 1.00766 0.27537 0.0
H154 H 0.42674 0.81645 0.21414 0.0
H155 H 0.5164 0.87621 0.24502 0.0
H156 H 0.59481 1.01407 0.43098 0.0
H157 H 0.75014 0.16062 0.44543 0.0
H158 H 0.75785 0.16326 0.38583 0.0
H159 H 0.60299 1.01736 0.37102 0.0
C160 C 0.68209 0.75107 0.54046 0.0
C161 C 0.63746 0.77588 0.55687 0.0
C162 C 0.68275 0.88205 0.54457 0.0
C163 C 0.63765 0.84055 0.55876 0.0
C164 C 0.72867 0.85732 0.52915 0.0
C165 C 0.72807 0.79237 0.52695 0.0
U166 U 0.67412 0.58122 0.57194 0.0
O167 O 0.61536 0.49764 0.55025 0.0
O168 O 0.71635 0.50414 0.55271 0.0
C169 C 0.66291 0.46957 0.5448 0.0
C170 C 0.67906 0.68278 0.53542 0.0
C171 C 0.65856 0.40175 0.55187 0.0
C172 C 0.60629 0.2966 0.53875 0.0
C173 C 0.60723 0.36162 0.53756 0.0
C174 C 0.70719 0.31059 0.56973 0.0
C175 C 0.65702 0.27037 0.55405 0.0
C176 C 0.70799 0.37557 0.56864 0.0
C177 C 0.67824 0.55934 0.66841 0.0
C178 C 0.62044 0.50341 0.71029 0.0
C179 C 0.72597 0.5503 0.72476 0.0
C180 C 0.72959 0.57071 0.69212 0.0
C181 C 0.67065 0.51835 0.73453 0.0
C182 C 0.62411 0.52385 0.67759 0.0
C183 C 0.67933 0.59347 0.63656 0.0
O184 O 0.72832 0.65748 0.54641 0.0
O185 O 0.62727 0.64832 0.54128 0.0
O186 O 0.62767 0.58967 0.61684 0.0
O187 O 0.72858 0.59383 0.62064 0.0
H188 H 0.60154 0.74541 0.56772 0.0
H189 H 0.60187 0.85794 0.5711 0.0
H190 H 0.76398 0.88799 0.51794 0.0
H191 H 0.76286 0.77434 0.51408 0.0
H192 H 0.56686 0.26713 0.52651 0.0
H193 H 0.5688 0.38065 0.52419 0.0
H194 H 0.74691 0.29207 0.58199 0.0
H195 H 0.74835 0.40517 0.57984 0.0
H196 H 0.57717 0.47866 0.71688 0.0
H197 H 0.76568 0.56239 0.74266 0.0
H198 H 0.77171 0.59842 0.68585 0.0
H199 H 0.58356 0.51444 0.65999 0.0
C200 C 0.17829 0.55376 0.83375 0.0
C201 C 0.15625 0.50058 0.85146 0.0
C202 C 1.06406 0.48582 0.81283 0.0
C203 C 1.09942 0.46644 0.84095 0.0
C204 C 1.09364 0.5286 0.79112 0.0
C205 C 0.15034 0.56346 0.80188 0.0
U206 U 0.19955 0.64239 0.91266 0.0
O207 O 0.28032 0.68754 0.9439 0.0
O208 O 0.20948 0.7437 0.92354 0.0
C209 C 0.26741 0.74391 0.93562 0.0
C210 C 0.21229 0.60771 0.8524 0.0
C211 C 0.31417 0.7792 0.91637 0.0
C212 C 0.33329 0.77448 0.85871 0.0
C213 C 0.2967 0.79021 0.88269 0.0
C214 C 0.4124 0.75552 0.90193 0.0
C215 C 0.38789 0.74925 0.86846 0.0
C216 C 0.37596 0.77207 0.92581 0.0
C217 C 1.10698 0.5632 0.9802 0.0
C218 C 1.10006 0.60926 0.03372 0.0
C219 C 1.08776 0.4963 0.02742 0.0
C220 C 1.09534 0.50334 0.99385 0.0
C221 C 1.09119 0.54918 0.0478 0.0
C222 C 1.10847 0.61626 1.00015 0.0
C223 C 1.1239 0.5684 0.94622 0.0
O224 O 0.17689 0.64961 0.85895 0.0
O225 O 0.24946 0.59465 0.8782 0.0
O226 O 0.18093 0.55921 0.94335 0.0
O227 O 1.1066 0.61552 0.92837 0.0
H228 H 0.17769 0.49115 0.87588 0.0
H229 H 1.07962 0.43237 0.85799 0.0
H230 H 1.06893 0.5422 0.76833 0.0
H231 H 0.16741 0.60352 0.78748 0.0
H232 H 0.31482 0.77396 0.83293 0.0
H233 H 0.25042 0.79956 0.87448 0.0
H234 H 0.4553 0.73858 0.91058 0.0
H235 H 0.39158 0.76594 0.95168 0.0
H236 H 1.10318 0.65086 0.04889 0.0
H237 H 1.08055 0.44947 0.03752 0.0
H238 H 1.09438 0.46194 0.97875 0.0
H239 H 1.11814 0.66289 0.99007 0.0
C240 C 1.08583 0.4521 0.48112 0.0
C241 C 1.04316 0.41525 0.45885 0.0
C242 C 1.01405 0.34402 0.50345 0.0
C243 C 1.00746 0.36181 0.46993 0.0
C244 C 1.05743 0.38086 0.52554 0.0
C245 C 1.09288 0.43444 0.51446 0.0
U246 U 0.1472 0.55615 0.41201 0.0
O247 O 0.15681 0.6587 0.40632 0.0
O248 O 0.23848 0.60997 0.40794 0.0
C249 C 0.21728 0.66425 0.40761 0.0
C250 C 1.12283 0.50913 0.46995 0.0
C251 C 0.25217 0.7145 0.42939 0.0
C252 C 0.26939 0.82444 0.44583 0.0
C253 C 0.23439 0.77475 0.42774 0.0
C254 C 0.3407 0.75462 0.46791 0.0
C255 C 0.32342 0.81521 0.46585 0.0
C256 C 0.30552 0.70483 0.4499 0.0
C257 C 1.10077 0.50206 0.32206 0.0
C258 C 0.13983 0.55721 0.27432 0.0
C259 C 1.06172 0.46643 0.26643 0.0
C260 C 1.06184 0.46005 0.30072 0.0
C261 C 1.1007 0.51505 0.25279 0.0
C262 C 0.13979 0.5508 0.30873 0.0
C263 C 1.09983 0.49396 0.35803 0.0
O264 O 0.17214 0.50015 0.4558 0.0
O265 O 1.09126 0.5499 0.45417 0.0
O266 O 1.07078 0.53336 0.37287 0.0
O267 O 0.15236 0.48461 0.37449 0.0
H268 H 1.03735 0.42795 0.43294 0.0
H269 H 0.9751 0.33408 0.45218 0.0
H270 H 1.06321 0.36893 0.55155 0.0
H271 H 1.12557 0.46234 0.532 0.0
H272 H 0.25511 0.87056 0.44329 0.0
H273 H 0.19399 0.7838 0.41182 0.0
H274 H 0.38164 0.74568 0.48339 0.0
H275 H 0.32078 0.65908 0.45168 0.0
H276 H 0.17032 0.59521 0.26462 0.0
H277 H 1.03104 0.43307 0.25064 0.0
H278 H 1.03143 0.42217 0.31061 0.0
H279 H 0.17013 0.58376 0.32491 0.0
C280 C 0.65587 0.83433 0.84425 0.0
C281 C 0.6264 0.79939 0.81675 0.0
C282 C 0.66424 0.70444 0.83926 0.0
C283 C 0.63036 0.73531 0.81436 0.0
C284 C 0.6952 0.73985 0.86632 0.0
C285 C 0.69087 0.80409 0.86881 0.0
U286 U 0.64533 1.00146 0.81078 0.0
O287 O 0.68254 0.09105 0.83525 0.0
O288 O 0.58267 0.06868 0.82245 0.0
C289 C 0.62826 0.11044 0.8348 0.0
C290 C 0.64853 0.90125 0.84841 0.0
C291 C 0.62462 0.1777 0.82728 0.0
C292 C 0.57334 0.26989 0.8346 0.0
C293 C 0.57336 0.20469 0.83563 0.0
C294 C 0.67504 0.28235 0.81567 0.0
C295 C 0.62494 0.30974 0.82547 0.0
C296 C 0.6749 0.21728 0.81655 0.0
C297 C 0.6655 1.0206 0.71537 0.0
C298 C 0.61615 0.0574 0.6637 0.0
C299 C 0.72273 0.03907 0.66707 0.0
C300 C 0.7203 1.02176 0.70024 0.0
C301 C 0.67024 0.05547 0.64811 0.0
C302 C 0.61369 0.03987 0.69697 0.0
C303 C 0.66128 0.98946 0.74794 0.0
O304 O 0.6973 0.94232 0.84491 0.0
O305 O 0.59725 0.91913 0.83436 0.0
O306 O 0.607 0.97924 0.75944 0.0
O307 O 0.70708 1.00436 0.7711 0.0
H308 H 0.59934 0.82132 0.79733 0.0
H309 H 0.60589 0.70973 0.79311 0.0
H310 H 0.72139 0.71766 0.886 0.0
H311 H 0.71401 0.83 0.89028 0.0
H312 H 0.53398 0.28914 0.84228 0.0
H313 H 0.53422 0.17545 0.84436 0.0
H314 H 0.71548 0.31132 0.8082 0.0
H315 H 0.71529 0.19833 0.81005 0.0
H316 H 0.57487 0.06997 0.64988 0.0
H317 H 0.7653 0.03741 0.65603 0.0
H318 H 0.76069 1.00637 0.71364 0.0
H319 H 0.57053 0.03898 0.70777 0.0
C320 C 0.76758 0.53988 0.12911 0.0
C321 C 0.79415 0.48727 0.12027 0.0
C322 C 0.89923 0.54054 0.13632 0.0
C323 C 0.85865 0.48769 0.1237 0.0
C324 C 0.87271 0.5937 0.1444 0.0
C325 C 0.80807 0.59326 0.14094 0.0
U326 U 0.58475 0.52843 0.10208 0.0
O327 O 0.51111 0.47482 0.12867 0.0
O328 O 0.52126 0.57696 0.12827 0.0
C329 C 0.48833 0.52508 0.13712 0.0
C330 C 0.69919 0.5366 0.13149 0.0
C331 C 0.41902 0.52316 0.13527 0.0
C332 C 0.31696 0.46735 0.14514 0.0
C333 C 0.38055 0.46755 0.14215 0.0
C334 C 0.32804 0.5783 0.13434 0.0
C335 C 0.2896 0.52294 0.14168 0.0
C336 C 0.39135 0.57845 0.1313 0.0
C337 C 0.58693 0.52641 1.00392 0.0
C338 C 0.57302 0.55789 0.94605 0.0
C339 C 0.64503 0.48526 0.96274 0.0
C340 C 0.6306 0.48857 0.99568 0.0
C341 C 0.61547 0.51904 0.93738 0.0
C342 C 0.55915 0.56155 0.97881 0.0
C343 C 0.56318 0.52527 0.03696 0.0
O344 O 0.6716 0.58563 0.12287 0.0
O345 O 0.6634 0.48334 0.1246 0.0
O346 O 0.572 0.5775 0.05429 0.0
O347 O 0.56583 0.47487 0.05532 0.0
H348 H 0.76507 0.44482 0.11161 0.0
H349 H 0.87659 0.44562 0.11708 0.0
H350 H 0.90181 0.63536 0.15414 0.0
H351 H 0.78958 0.63427 0.14868 0.0
H352 H 0.2895 0.42368 0.15075 0.0
H353 H 0.39998 0.42419 0.14611 0.0
H354 H 0.30945 0.62229 0.1314 0.0
H355 H 0.41895 0.62259 0.12664 0.0
H356 H 0.54961 0.585 0.92739 0.0
H357 H 0.67804 0.45496 0.95701 0.0
H358 H 0.65243 0.46051 0.01446 0.0
H359 H 0.52489 0.5906 0.98436 0.0
loop_
_geom_bond_atom_site_label_1
_geom_bond_atom_site_label_2
_geom_bond_distance
_geom_bond_site_symmetry_2
_ccdc_geom_bond_type
Dy0 O3 2.307 1_455 S
Dy0 O5 2.395 . S
Dy0 O6 2.379 . S
Dy0 O8 2.339 . S
Dy0 O10 2.298 . S
Dy0 O14 2.275 . S
Dy0 C22 2.738 . S
Dy1 O4 2.298 . S
Dy1 O7 2.275 1_655 S
Dy1 O9 2.307 1_655 S
Dy1 O11 2.395 . S
Dy1 O12 2.379 . S
Dy1 O15 2.339 . S
Dy1 C31 2.738 . S
C2 O14 1.254 . S
C2 O15 1.257 1_455 S
O3 Dy0 2.307 1_655 S
O3 C13 1.266 . S
O4 Dy1 2.298 . S
O4 C13 1.236 . S
O5 Dy0 2.395 . S
O5 C22 1.255 . S
O6 Dy0 2.379 . S
O6 C22 1.249 . S
O7 Dy1 2.275 1_455 S
O7 C23 1.254 . S
O8 Dy0 2.339 . S
O8 C23 1.257 . S
O9 Dy1 2.307 1_455 S
O9 C24 1.266 . S
O10 Dy0 2.298 . S
O10 C24 1.236 . S
O11 Dy1 2.395 . S
O11 C31 1.255 . S
O12 Dy1 2.379 . S
O12 C31 1.249 . S
C13 O3 1.266 . S
C13 O4 1.236 . S
O14 Dy0 2.275 . S
O14 C2 1.254 . S
O15 Dy1 2.339 . S
O15 C2 1.257 1_655 S
C16 C19 1.344 . S
C16 C20 1.328 . S
C16 C22 1.516 . S
C17 C18 1.304 . S
C17 C21 1.323 . S
C18 C17 1.304 . S
C18 C19 1.371 . S
C18 H32 0.930 . S
C19 C16 1.344 . S
C19 C18 1.371 . S
C19 H33 0.931 . S
C20 C16 1.328 . S
C20 C21 1.433 . S
C20 H34 0.931 . S
C21 C17 1.323 . S
C21 C20 1.433 . S
C21 H35 0.933 . S
C22 Dy0 2.738 . S
C22 O5 1.255 . S
C22 O6 1.249 . S
C22 C16 1.516 . S
C23 O7 1.254 . S
C23 O8 1.257 . S
C24 O9 1.266 . S
C24 O10 1.236 . S
C25 C28 1.344 . S
C25 C29 1.328 . S
C25 C31 1.516 . S
C26 C27 1.304 . S
C26 C30 1.323 . S
C27 C26 1.304 . S
C27 C28 1.371 . S
C27 H36 0.930 . S
C28 C25 1.344 . S
C28 C27 1.371 . S
C28 H37 0.931 . S
C29 C25 1.328 . S
C29 C30 1.433 . S
C29 H38 0.931 . S
C30 C26 1.323 . S
C30 C29 1.433 . S
C30 H39 0.933 . S
C31 Dy1 2.738 . S
C31 O11 1.255 . S
C31 O12 1.249 . S
C31 C25 1.516 . S
H32 C18 0.930 . S
H33 C19 0.931 . S
H34 C20 0.931 . S
H35 C21 0.933 . S
H36 C27 0.930 . S
H37 C28 0.931 . S
H38 C29 0.931 . S
H39 C30 0.933 . S
Dy40 O43 2.307 1_565 S
Dy40 O45 2.395 . S
Dy40 O46 2.379 . S
Dy40 O48 2.339 . S
Dy40 O50 2.298 . S
Dy40 O54 2.275 1_565 S
Dy40 C62 2.738 . S
Dy41 O44 2.298 . S
Dy41 O47 2.275 . S
Dy41 O49 2.307 1_545 S
Dy41 O51 2.395 . S
Dy41 O52 2.379 . S
Dy41 O55 2.339 . S
Dy41 C71 2.738 . S
C42 O54 1.254 . S
C42 O55 1.257 . S
O43 Dy40 2.307 1_545 S
O43 C53 1.266 . S
O44 Dy41 2.298 . S
O44 C53 1.236 . S
O45 Dy40 2.395 . S
O45 C62 1.255 . S
O46 Dy40 2.379 . S
O46 C62 1.249 . S
O47 Dy41 2.275 . S
O47 C63 1.254 . S
O48 Dy40 2.339 . S
O48 C63 1.257 1_565 S
O49 Dy41 2.307 1_565 S
O49 C64 1.266 . S
O50 Dy40 2.298 . S
O50 C64 1.236 . S
O51 Dy41 2.395 . S
O51 C71 1.255 . S
O52 Dy41 2.379 . S
O52 C71 1.249 . S
C53 O43 1.266 . S
C53 O44 1.236 . S
O54 Dy40 2.275 1_545 S
O54 C42 1.254 . S
O55 Dy41 2.339 . S
O55 C42 1.257 . S
C56 C59 1.344 . S
C56 C60 1.328 . S
C56 C62 1.516 . S
C57 C58 1.304 . S
C57 C61 1.323 . S
C58 C57 1.304 . S
C58 C59 1.371 . S
C58 H72 0.930 . S
C59 C56 1.344 . S
C59 C58 1.371 . S
C59 H73 0.931 . S
C60 C56 1.328 . S
C60 C61 1.433 . S
C60 H74 0.931 . S
C61 C57 1.323 . S
C61 C60 1.433 . S
C61 H75 0.933 . S
C62 Dy40 2.738 . S
C62 O45 1.255 . S
C62 O46 1.249 . S
C62 C56 1.516 . S
C63 O47 1.254 . S
C63 O48 1.257 1_545 S
C64 O49 1.266 . S
C64 O50 1.236 . S
C65 C68 1.344 . S
C65 C69 1.328 . S
C65 C71 1.516 . S
C66 C67 1.304 . S
C66 C70 1.323 . S
C67 C66 1.304 . S
C67 C68 1.371 . S
C67 H76 0.930 . S
C68 C65 1.344 . S
C68 C67 1.371 . S
C68 H77 0.931 . S
C69 C65 1.328 . S
C69 C70 1.433 . S
C69 H78 0.931 . S
C70 C66 1.323 . S
C70 C69 1.433 . S
C70 H79 0.933 . S
C71 Dy41 2.738 . S
C71 O51 1.255 . S
C71 O52 1.249 . S
C71 C65 1.516 . S
H72 C58 0.930 . S
H73 C59 0.931 . S
H74 C60 0.931 . S
H75 C61 0.933 . S
H76 C67 0.930 . S
H77 C68 0.931 . S
H78 C69 0.931 . S
H79 C70 0.933 . S
Dy80 O83 2.307 . S
Dy80 O85 2.395 . S
Dy80 O86 2.379 . S
Dy80 O88 2.339 . S
Dy80 O90 2.298 . S
Dy80 O94 2.275 . S
Dy80 C102 2.738 . S
Dy81 O84 2.298 . S
Dy81 O87 2.275 . S
Dy81 O89 2.307 . S
Dy81 O91 2.395 . S
Dy81 O92 2.379 . S
Dy81 O95 2.339 . S
Dy81 C111 2.738 . S
C82 O94 1.254 . S
C82 O95 1.257 . S
O83 Dy80 2.307 . S
O83 C93 1.266 . S
O84 Dy81 2.298 . S
O84 C93 1.236 . S
O85 Dy80 2.395 . S
O85 C102 1.255 . S
O86 Dy80 2.379 . S
O86 C102 1.249 . S
O87 Dy81 2.275 . S
O87 C103 1.254 . S
O88 Dy80 2.339 . S
O88 C103 1.257 . S
O89 Dy81 2.307 . S
O89 C104 1.266 . S
O90 Dy80 2.298 . S
O90 C104 1.236 . S
O91 Dy81 2.395 . S
O91 C111 1.255 . S
O92 Dy81 2.379 . S
O92 C111 1.249 . S
C93 O83 1.266 . S
C93 O84 1.236 . S
O94 Dy80 2.275 . S
O94 C82 1.254 . S
O95 Dy81 2.339 . S
O95 C82 1.257 . S
C96 C99 1.344 . S
C96 C100 1.328 . S
C96 C102 1.516 . S
C97 C98 1.304 . S
C97 C101 1.323 . S
C98 C97 1.304 . S
C98 C99 1.371 . S
C98 H112 0.930 . S
C99 C96 1.344 . S
C99 C98 1.371 . S
C99 H113 0.931 . S
C100 C96 1.328 . S
C100 C101 1.433 . S
C100 H114 0.931 . S
C101 C97 1.323 . S
C101 C100 1.433 . S
C101 H115 0.933 . S
C102 Dy80 2.738 . S
C102 O85 1.255 . S
C102 O86 1.249 . S
C102 C96 1.516 . S
C103 O87 1.254 . S
C103 O88 1.257 . S
C104 O89 1.266 . S
C104 O90 1.236 . S
C105 C108 1.344 . S
C105 C109 1.328 . S
C105 C111 1.516 . S
C106 C107 1.304 . S
C106 C110 1.323 . S
C107 C106 1.304 . S
C107 C108 1.371 . S
C107 H116 0.930 . S
C108 C105 1.344 . S
C108 C107 1.371 . S
C108 H117 0.931 . S
C109 C105 1.328 . S
C109 C110 1.433 . S
C109 H118 0.931 . S
C110 C106 1.323 . S
C110 C109 1.433 . S
C110 H119 0.933 . S
C111 Dy81 2.738 . S
C111 O91 1.255 . S
C111 O92 1.249 . S
C111 C105 1.516 . S
H112 C98 0.930 . S
H113 C99 0.931 . S
H114 C100 0.931 . S
H115 C101 0.933 . S
H116 C107 0.930 . S
H117 C108 0.931 . S
H118 C109 0.931 . S
H119 C110 0.933 . S
C120 C121 1.264 . S
C120 C125 1.479 . S
C120 C130 1.465 . S
C121 C120 1.264 . S
C121 C123 1.339 . S
C121 H148 0.931 . S
C122 C123 1.395 . S
C122 C124 1.320 . S
C123 C121 1.339 . S
C123 C122 1.395 . S
C123 H149 0.929 . S
C124 C122 1.320 . S
C124 C125 1.405 . S
C124 H150 0.930 . S
C125 C120 1.479 . S
C125 C124 1.405 . S
C125 H151 0.931 . S
U126 O127 2.454 . S
U126 O128 2.458 1_545 S
U126 C129 2.984 1_545 S
U126 C130 2.847 . S
U126 C143 2.882 . S
U126 O144 2.441 . S
U126 O145 2.420 . S
U126 O146 2.455 . S
U126 O147 2.449 . S
O127 U126 2.454 . S
O127 C129 1.353 1_545 S
O128 U126 2.458 1_565 S
O128 C129 1.286 . S
C129 U126 2.984 1_565 S
C129 O127 1.353 1_565 S
C129 O128 1.286 . S
C129 C131 1.363 . S
C130 C120 1.465 . S
C130 U126 2.847 . S
C130 O144 1.249 . S
C130 O145 1.202 . S
C131 C129 1.363 . S
C131 C133 1.408 . S
C131 C136 1.342 . S
C132 C133 1.310 . S
C132 C135 1.461 . S
C132 H152 0.932 . S
C133 C131 1.408 . S
C133 C132 1.310 . S
C133 H153 0.930 . S
C134 C135 1.474 . S
C134 C136 1.285 . S
C134 H154 0.929 . S
C135 C132 1.461 . S
C135 C134 1.474 . S
C136 C131 1.342 . S
C136 C134 1.285 . S
C136 H155 0.930 . S
C137 C140 1.424 . S
C137 C142 1.245 . S
C137 C143 1.428 . S
C138 C141 1.260 . S
C138 C142 1.477 . S
C138 H156 0.932 . S
C139 C140 1.384 . S
C139 C141 1.479 . S
C139 H157 0.929 . S
C140 C137 1.424 . S
C140 C139 1.384 . S
C140 H158 0.928 . S
C141 C138 1.260 . S
C141 C139 1.479 . S
C142 C137 1.245 . S
C142 C138 1.477 . S
C142 H159 0.932 1_545 S
C143 U126 2.882 . S
C143 C137 1.428 . S
C143 O146 1.301 . S
C143 O147 1.282 . S
O144 U126 2.441 . S
O144 C130 1.249 . S
O145 U126 2.420 . S
O145 C130 1.202 . S
O146 U126 2.455 . S
O146 C143 1.301 . S
O147 U126 2.449 . S
O147 C143 1.282 . S
H148 C121 0.931 . S
H149 C123 0.929 . S
H150 C124 0.930 . S
H151 C125 0.931 . S
H152 C132 0.932 . S
H153 C133 0.930 . S
H154 C134 0.929 . S
H155 C136 0.930 . S
H156 C138 0.932 . S
H157 C139 0.929 . S
H158 C140 0.928 . S
H159 C142 0.932 1_565 S
C160 C161 1.264 . S
C160 C165 1.479 . S
C160 C170 1.465 . S
C161 C160 1.264 . S
C161 C163 1.339 . S
C161 H188 0.931 . S
C162 C163 1.395 . S
C162 C164 1.320 . S
C163 C161 1.339 . S
C163 C162 1.395 . S
C163 H189 0.929 . S
C164 C162 1.320 . S
C164 C165 1.405 . S
C164 H190 0.930 . S
C165 C160 1.479 . S
C165 C164 1.405 . S
C165 H191 0.931 . S
U166 O167 2.454 . S
U166 O168 2.458 . S
U166 C169 2.984 . S
U166 C170 2.847 . S
U166 C183 2.882 . S
U166 O184 2.441 . S
U166 O185 2.420 . S
U166 O186 2.455 . S
U166 O187 2.449 . S
O167 U166 2.454 . S
O167 C169 1.353 . S
O168 U166 2.458 . S
O168 C169 1.286 . S
C169 U166 2.984 . S
C169 O167 1.353 . S
C169 O168 1.286 . S
C169 C171 1.363 . S
C170 C160 1.465 . S
C170 U166 2.847 . S
C170 O184 1.249 . S
C170 O185 1.202 . S
C171 C169 1.363 . S
C171 C173 1.408 . S
C171 C176 1.342 . S
C172 C173 1.310 . S
C172 C175 1.461 . S
C172 H192 0.932 . S
C173 C171 1.408 . S
C173 C172 1.310 . S
C173 H193 0.930 . S
C174 C175 1.474 . S
C174 C176 1.285 . S
C174 H194 0.929 . S
C175 C172 1.461 . S
C175 C174 1.474 . S
C176 C171 1.342 . S
C176 C174 1.285 . S
C176 H195 0.930 . S
C177 C180 1.424 . S
C177 C182 1.245 . S
C177 C183 1.428 . S
C178 C181 1.260 . S
C178 C182 1.477 . S
C178 H196 0.932 . S
C179 C180 1.384 . S
C179 C181 1.479 . S
C179 H197 0.929 . S
C180 C177 1.424 . S
C180 C179 1.384 . S
C180 H198 0.928 . S
C181 C178 1.260 . S
C181 C179 1.479 . S
C182 C177 1.245 . S
C182 C178 1.477 . S
C182 H199 0.932 . S
C183 U166 2.882 . S
C183 C177 1.428 . S
C183 O186 1.301 . S
C183 O187 1.282 . S
O184 U166 2.441 . S
O184 C170 1.249 . S
O185 U166 2.420 . S
O185 C170 1.202 . S
O186 U166 2.455 . S
O186 C183 1.301 . S
O187 U166 2.449 . S
O187 C183 1.282 . S
H188 C161 0.931 . S
H189 C163 0.929 . S
H190 C164 0.930 . S
H191 C165 0.931 . S
H192 C172 0.932 . S
H193 C173 0.930 . S
H194 C174 0.929 . S
H195 C176 0.930 . S
H196 C178 0.932 . S
H197 C179 0.929 . S
H198 C180 0.928 . S
H199 C182 0.932 . S
C200 C201 1.264 . S
C200 C205 1.479 . S
C200 C210 1.465 . S
C201 C200 1.264 . S
C201 C203 1.339 . S
C201 H228 0.931 . S
C202 C203 1.395 . S
C202 C204 1.320 . S
C203 C201 1.339 . S
C203 C202 1.395 . S
C203 H229 0.929 . S
C204 C202 1.320 . S
C204 C205 1.405 . S
C204 H230 0.930 . S
C205 C200 1.479 . S
C205 C204 1.405 . S
C205 H231 0.931 . S
U206 O207 2.454 . S
U206 O208 2.458 . S
U206 C209 2.984 . S
U206 C210 2.847 1_455 S
U206 C223 2.882 . S
U206 O224 2.441 1_455 S
U206 O225 2.420 1_455 S
U206 O226 2.455 . S
U206 O227 2.449 1_455 S
O207 U206 2.454 . S
O207 C209 1.353 . S
O208 U206 2.458 . S
O208 C209 1.286 . S
C209 U206 2.984 . S
C209 O207 1.353 . S
C209 O208 1.286 . S
C209 C211 1.363 . S
C210 C200 1.465 . S
C210 U206 2.847 1_655 S
C210 O224 1.249 . S
C210 O225 1.202 . S
C211 C209 1.363 . S
C211 C213 1.408 . S
C211 C216 1.342 . S
C212 C213 1.310 . S
C212 C215 1.461 . S
C212 H232 0.932 . S
C213 C211 1.408 . S
C213 C212 1.310 . S
C213 H233 0.930 . S
C214 C215 1.474 . S
C214 C216 1.285 . S
C214 H234 0.929 . S
C215 C212 1.461 . S
C215 C214 1.474 . S
C216 C211 1.342 . S
C216 C214 1.285 . S
C216 H235 0.930 . S
C217 C220 1.424 1_455 S
C217 C222 1.245 . S
C217 C223 1.428 1_554 S
C218 C221 1.260 . S
C218 C222 1.477 . S
C218 H236 0.932 . S
C219 C220 1.384 . S
C219 C221 1.479 1_655 S
C219 H237 0.929 . S
C220 C217 1.424 1_655 S
C220 C219 1.384 . S
C220 H238 0.928 . S
C221 C218 1.260 . S
C221 C219 1.479 1_455 S
C222 C217 1.245 . S
C222 C218 1.477 . S
C222 H239 0.932 . S
C223 U206 2.882 . S
C223 C217 1.428 1_556 S
C223 O226 1.301 . S
C223 O227 1.282 1_455 S
O224 U206 2.441 1_655 S
O224 C210 1.249 . S
O225 U206 2.420 1_655 S
O225 C210 1.202 . S
O226 U206 2.455 . S
O226 C223 1.301 . S
O227 U206 2.449 1_655 S
O227 C223 1.282 1_655 S
H228 C201 0.931 . S
H229 C203 0.929 . S
H230 C204 0.930 . S
H231 C205 0.931 . S
H232 C212 0.932 . S
H233 C213 0.930 . S
H234 C214 0.929 . S
H235 C216 0.930 . S
H236 C218 0.932 . S
H237 C219 0.929 . S
H238 C220 0.928 . S
H239 C222 0.932 . S
C240 C241 1.264 . S
C240 C245 1.479 . S
C240 C250 1.465 . S
C241 C240 1.264 . S
C241 C243 1.339 . S
C241 H268 0.931 . S
C242 C243 1.395 . S
C242 C244 1.320 . S
C243 C241 1.339 . S
C243 C242 1.395 . S
C243 H269 0.929 . S
C244 C242 1.320 . S
C244 C245 1.405 . S
C244 H270 0.930 . S
C245 C240 1.479 . S
C245 C244 1.405 . S
C245 H271 0.931 . S
U246 O247 2.452 1_655 S
U246 O248 2.456 1_655 S
U246 C249 2.982 1_655 S
U246 C250 2.849 . S
U246 C263 2.882 . S
U246 O264 2.442 . S
U246 O265 2.422 . S
U246 O266 2.454 1_655 S
U246 O267 2.450 . S
O247 U246 2.452 1_455 S
O247 C249 1.353 . S
O248 U246 2.456 1_455 S
O248 C249 1.286 . S
C249 U246 2.982 1_455 S
C249 O247 1.353 . S
C249 O248 1.286 . S
C249 C251 1.363 . S
C250 C240 1.465 . S
C250 U246 2.849 . S
C250 O264 1.249 . S
C250 O265 1.202 . S
C251 C249 1.363 . S
C251 C253 1.408 . S
C251 C256 1.342 . S
C252 C253 1.310 . S
C252 C255 1.461 . S
C252 H272 0.932 . S
C253 C251 1.408 . S
C253 C252 1.310 . S
C253 H273 0.930 . S
C254 C255 1.474 . S
C254 C256 1.285 . S
C254 H274 0.929 . S
C255 C252 1.461 . S
C255 C254 1.474 . S
C256 C251 1.342 . S
C256 C254 1.285 . S
C256 H275 0.930 . S
C257 C260 1.424 . S
C257 C262 1.245 1_655 S
C257 C263 1.428 . S
C258 C261 1.260 1_455 S
C258 C262 1.477 . S
C258 H276 0.932 . S
C259 C260 1.384 . S
C259 C261 1.479 . S
C259 H277 0.929 . S
C260 C257 1.424 . S
C260 C259 1.384 . S
C260 H278 0.928 . S
C261 C258 1.260 1_655 S
C261 C259 1.479 . S
C262 C257 1.245 1_455 S
C262 C258 1.477 . S
C262 H279 0.932 . S
C263 U246 2.882 . S
C263 C257 1.428 . S
C263 O266 1.301 1_655 S
C263 O267 1.282 . S
O264 U246 2.442 . S
O264 C250 1.249 . S
O265 U246 2.422 . S
O265 C250 1.202 . S
O266 U246 2.454 1_455 S
O266 C263 1.301 1_455 S
O267 U246 2.450 . S
O267 C263 1.282 . S
H268 C241 0.931 . S
H269 C243 0.929 . S
H270 C244 0.930 . S
H271 C245 0.931 . S
H272 C252 0.932 . S
H273 C253 0.930 . S
H274 C254 0.929 . S
H275 C256 0.930 . S
H276 C258 0.932 . S
H277 C259 0.929 . S
H278 C260 0.928 . S
H279 C262 0.932 . S
C280 C281 1.264 . S
C280 C285 1.479 . S
C280 C290 1.465 . S
C281 C280 1.264 . S
C281 C283 1.339 . S
C281 H308 0.931 . S
C282 C283 1.395 . S
C282 C284 1.320 . S
C283 C281 1.339 . S
C283 C282 1.395 . S
C283 H309 0.929 . S
C284 C282 1.320 . S
C284 C285 1.405 . S
C284 H310 0.930 . S
C285 C280 1.479 . S
C285 C284 1.405 . S
C285 H311 0.931 . S
U286 O287 2.454 1_565 S
U286 O288 2.458 1_565 S
U286 C289 2.984 1_565 S
U286 C290 2.847 . S
U286 C303 2.882 . S
U286 O304 2.441 . S
U286 O305 2.420 . S
U286 O306 2.455 1_565 S
U286 O307 2.449 . S
O287 U286 2.454 1_545 S
O287 C289 1.353 . S
O288 U286 2.458 1_545 S
O288 C289 1.286 . S
C289 U286 2.984 1_545 S
C289 O287 1.353 . S
C289 O288 1.286 . S
C289 C291 1.363 . S
C290 C280 1.465 . S
C290 U286 2.847 . S
C290 O304 1.249 . S
C290 O305 1.202 . S
C291 C289 1.363 . S
C291 C293 1.408 . S
C291 C296 1.342 . S
C292 C293 1.310 . S
C292 C295 1.461 . S
C292 H312 0.932 . S
C293 C291 1.408 . S
C293 C292 1.310 . S
C293 H313 0.930 . S
C294 C295 1.474 . S
C294 C296 1.285 . S
C294 H314 0.929 . S
C295 C292 1.461 . S
C295 C294 1.474 . S
C296 C291 1.342 . S
C296 C294 1.285 . S
C296 H315 0.930 . S
C297 C300 1.412 1_545 S
C297 C302 1.257 . S
C297 C303 1.428 1_545 S
C298 C301 1.260 . S
C298 C302 1.477 . S
C298 H316 0.932 . S
C299 C300 1.384 . S
C299 C301 1.479 1_565 S
C299 H317 0.929 . S
C300 C297 1.412 1_565 S
C300 C299 1.384 . S
C300 H318 0.928 . S
C301 C298 1.260 . S
C301 C299 1.479 1_545 S
C302 C297 1.257 . S
C302 C298 1.477 . S
C302 H319 0.932 . S
C303 U286 2.882 . S
C303 C297 1.428 1_565 S
C303 O306 1.301 1_565 S
C303 O307 1.282 . S
O304 U286 2.441 . S
O304 C290 1.249 . S
O305 U286 2.420 . S
O305 C290 1.202 . S
O306 U286 2.455 1_545 S
O306 C303 1.301 1_545 S
O307 U286 2.449 . S
O307 C303 1.282 . S
H308 C281 0.931 . S
H309 C283 0.929 . S
H310 C284 0.930 . S
H311 C285 0.931 . S
H312 C292 0.932 . S
H313 C293 0.930 . S
H314 C294 0.929 . S
H315 C296 0.930 . S
H316 C298 0.932 . S
H317 C299 0.929 . S
H318 C300 0.928 . S
H319 C302 0.932 . S
C320 C321 1.264 . S
C320 C325 1.479 . S
C320 C330 1.465 . S
C321 C320 1.264 . S
C321 C323 1.339 . S
C321 H348 0.931 . S
C322 C323 1.395 . S
C322 C324 1.320 . S
C323 C321 1.339 . S
C323 C322 1.395 . S
C323 H349 0.929 . S
C324 C322 1.320 . S
C324 C325 1.405 . S
C324 H350 0.930 . S
C325 C320 1.479 . S
C325 C324 1.405 . S
C325 H351 0.931 . S
U326 O327 2.454 . S
U326 O328 2.458 . S
U326 C329 2.984 . S
U326 C330 2.847 . S
U326 C343 2.882 . S
U326 O344 2.441 . S
U326 O345 2.420 . S
U326 O346 2.455 . S
U326 O347 2.449 . S
O327 U326 2.454 . S
O327 C329 1.353 . S
O328 U326 2.458 . S
O328 C329 1.286 . S
C329 U326 2.984 . S
C329 O327 1.353 . S
C329 O328 1.286 . S
C329 C331 1.363 . S
C330 C320 1.465 . S
C330 U326 2.847 . S
C330 O344 1.249 . S
C330 O345 1.202 . S
C331 C329 1.363 . S
C331 C333 1.408 . S
C331 C336 1.342 . S
C332 C333 1.310 . S
C332 C335 1.461 . S
C332 H352 0.932 . S
C333 C331 1.408 . S
C333 C332 1.310 . S
C333 H353 0.930 . S
C334 C335 1.474 . S
C334 C336 1.285 . S
C334 H354 0.929 . S
C335 C332 1.461 . S
C335 C334 1.474 . S
C336 C331 1.342 . S
C336 C334 1.285 . S
C336 H355 0.930 . S
C337 C340 1.424 . S
C337 C342 1.245 . S
C337 C343 1.428 1_556 S
C338 C341 1.260 . S
C338 C342 1.477 . S
C338 H356 0.932 . S
C339 C340 1.384 . S
C339 C341 1.479 . S
C339 H357 0.929 . S
C340 C337 1.424 . S
C340 C339 1.384 . S
C340 H358 0.928 . S
C341 C338 1.260 . S
C341 C339 1.479 . S
C342 C337 1.245 . S
C342 C338 1.477 . S
C342 H359 0.932 . S
C343 U326 2.882 . S
C343 C337 1.428 1_554 S
C343 O346 1.301 . S
C343 O347 1.282 . S
O344 U326 2.441 . S
O344 C330 1.249 . S
O345 U326 2.420 . S
O345 C330 1.202 . S
O346 U326 2.455 . S
O346 C343 1.301 . S
O347 U326 2.449 . S
O347 C343 1.282 . S
H348 C321 0.931 . S
H349 C323 0.929 . S
H350 C324 0.930 . S
H351 C325 0.931 . S
H352 C332 0.932 . S
H353 C333 0.930 . S
H354 C334 0.929 . S
H355 C336 0.930 . S
H356 C338 0.932 . S
H357 C339 0.929 . S
H358 C340 0.928 . S
H359 C342 0.932 . S
C24 C335 4.958 . S
C66 C242 1.614 . S
C93 C282 3.197 . S
C13 C322 5.325 . S
C255 C57 1.440 . S
C295 C104 3.444 . S
C64 C162 3.302 . S
C97 C202 2.369 . S
C17 C135 1.814 . S
C175 C53 3.206 . S
C215 C106 1.478 . S
C26 C122 1.889 . S
C221 C2 1.191 . S
C63 C141 1.527 . S
C82 C181 1.231 . S
C301 C42 1.487 . S
C341 C103 2.084 . S
C23 C261 1.633 1_455 S
