# Generated by pormake.
# Topology ocu, (6,8)-cn, num edge types: 1
# Building blocks:
#     Node 0, Type 0, BuildingBlock: MIFKUJ_clean_sbu_0, # of connection points: 6
#     Node 1, Type 0, BuildingBlock: MIFKUJ_clean_sbu_0, # of connection points: 6
#     Node 2, Type 0, BuildingBlock: MIFKUJ_clean_sbu_0, # of connection points: 6
#     Node 3, Type 0, BuildingBlock: MIFKUJ_clean_sbu_0, # of connection points: 6
#     Node 4, Type 0, BuildingBlock: MIFKUJ_clean_sbu_0, # of connection points: 6
#     Node 5, Type 0, BuildingBlock: MIFKUJ_clean_sbu_0, # of connection points: 6
#     Node 6, Type 0, BuildingBlock: MIFKUJ_clean_sbu_0, # of connection points: 6
#     Node 7, Type 0, BuildingBlock: MIFKUJ_clean_sbu_0, # of connection points: 6
#     Node 8, Type 1, BuildingBlock: AJUNOK_clean_sbu_0, # of connection points: 8
#     Node 9, Type 1, BuildingBlock: AJUNOK_clean_sbu_0, # of connection points: 8
#     Node 10, Type 1, BuildingBlock: AJUNOK_clean_sbu_0, # of connection points: 8
#     Node 11, Type 1, BuildingBlock: AJUNOK_clean_sbu_0, # of connection points: 8
#     Node 12, Type 1, BuildingBlock: AJUNOK_clean_sbu_0, # of connection points: 8
#     Node 13, Type 1, BuildingBlock: AJUNOK_clean_sbu_0, # of connection points: 8
#     Edge 14, Type (0, 1), BuildingBlock: MIFKUJ_clean_linker_0, # of connection points: 2
#     Edge 15, Type (0, 1), BuildingBlock: MIFKUJ_clean_linker_0, # of connection points: 2
#     Edge 16, Type (0, 1), BuildingBlock: MIFKUJ_clean_linker_0, # of connection points: 2
#     Edge 17, Type (0, 1), BuildingBlock: MIFKUJ_clean_linker_0, # of connection points: 2
#     Edge 18, Type (0, 1), BuildingBlock: MIFKUJ_clean_linker_0, # of connection points: 2
#     Edge 19, Type (0, 1), BuildingBlock: MIFKUJ_clean_linker_0, # of connection points: 2
#     Edge 20, Type (0, 1), BuildingBlock: MIFKUJ_clean_linker_0, # of connection points: 2
#     Edge 21, Type (0, 1), BuildingBlock: MIFKUJ_clean_linker_0, # of connection points: 2
#     Edge 22, Type (0, 1), BuildingBlock: MIFKUJ_clean_linker_0, # of connection points: 2
#     Edge 23, Type (0, 1), BuildingBlock: MIFKUJ_clean_linker_0, # of connection points: 2
#     Edge 24, Type (0, 1), BuildingBlock: MIFKUJ_clean_linker_0, # of connection points: 2
#     Edge 25, Type (0, 1), BuildingBlock: MIFKUJ_clean_linker_0, # of connection points: 2
#     Edge 26, Type (0, 1), BuildingBlock: MIFKUJ_clean_linker_0, # of connection points: 2
#     Edge 27, Type (0, 1), BuildingBlock: MIFKUJ_clean_linker_0, # of connection points: 2
#     Edge 28, Type (0, 1), BuildingBlock: MIFKUJ_clean_linker_0, # of connection points: 2
#     Edge 29, Type (0, 1), BuildingBlock: MIFKUJ_clean_linker_0, # of connection points: 2
#     Edge 30, Type (0, 1), BuildingBlock: MIFKUJ_clean_linker_0, # of connection points: 2
#     Edge 31, Type (0, 1), BuildingBlock: MIFKUJ_clean_linker_0, # of connection points: 2
#     Edge 32, Type (0, 1), BuildingBlock: MIFKUJ_clean_linker_0, # of connection points: 2
#     Edge 33, Type (0, 1), BuildingBlock: MIFKUJ_clean_linker_0, # of connection points: 2
#     Edge 34, Type (0, 1), BuildingBlock: MIFKUJ_clean_linker_0, # of connection points: 2
#     Edge 35, Type (0, 1), BuildingBlock: MIFKUJ_clean_linker_0, # of connection points: 2
#     Edge 36, Type (0, 1), BuildingBlock: MIFKUJ_clean_linker_0, # of connection points: 2
#     Edge 37, Type (0, 1), BuildingBlock: MIFKUJ_clean_linker_0, # of connection points: 2
#     Edge 38, Type (0, 1), BuildingBlock: MIFKUJ_clean_linker_0, # of connection points: 2
#     Edge 39, Type (0, 1), BuildingBlock: MIFKUJ_clean_linker_0, # of connection points: 2
#     Edge 40, Type (0, 1), BuildingBlock: MIFKUJ_clean_linker_0, # of connection points: 2
#     Edge 41, Type (0, 1), BuildingBlock: MIFKUJ_clean_linker_0, # of connection points: 2
#     Edge 42, Type (0, 1), BuildingBlock: MIFKUJ_clean_linker_0, # of connection points: 2
#     Edge 43, Type (0, 1), BuildingBlock: MIFKUJ_clean_linker_0, # of connection points: 2
#     Edge 44, Type (0, 1), BuildingBlock: MIFKUJ_clean_linker_0, # of connection points: 2
#     Edge 45, Type (0, 1), BuildingBlock: MIFKUJ_clean_linker_0, # of connection points: 2
#     Edge 46, Type (0, 1), BuildingBlock: MIFKUJ_clean_linker_0, # of connection points: 2
#     Edge 47, Type (0, 1), BuildingBlock: MIFKUJ_clean_linker_0, # of connection points: 2
#     Edge 48, Type (0, 1), BuildingBlock: MIFKUJ_clean_linker_0, # of connection points: 2
#     Edge 49, Type (0, 1), BuildingBlock: MIFKUJ_clean_linker_0, # of connection points: 2
#     Edge 50, Type (0, 1), BuildingBlock: MIFKUJ_clean_linker_0, # of connection points: 2
#     Edge 51, Type (0, 1), BuildingBlock: MIFKUJ_clean_linker_0, # of connection points: 2
#     Edge 52, Type (0, 1), BuildingBlock: MIFKUJ_clean_linker_0, # of connection points: 2
#     Edge 53, Type (0, 1), BuildingBlock: MIFKUJ_clean_linker_0, # of connection points: 2
#     Edge 54, Type (0, 1), BuildingBlock: MIFKUJ_clean_linker_0, # of connection points: 2
#     Edge 55, Type (0, 1), BuildingBlock: MIFKUJ_clean_linker_0, # of connection points: 2
#     Edge 56, Type (0, 1), BuildingBlock: MIFKUJ_clean_linker_0, # of connection points: 2
#     Edge 57, Type (0, 1), BuildingBlock: MIFKUJ_clean_linker_0, # of connection points: 2
#     Edge 58, Type (0, 1), BuildingBlock: MIFKUJ_clean_linker_0, # of connection points: 2
#     Edge 59, Type (0, 1), BuildingBlock: MIFKUJ_clean_linker_0, # of connection points: 2
#     Edge 60, Type (0, 1), BuildingBlock: MIFKUJ_clean_linker_0, # of connection points: 2
#     Edge 61, Type (0, 1), BuildingBlock: MIFKUJ_clean_linker_0, # of connection points: 2
# Relax obj value: 0.105
# Max RMSD: 0.219
# Mean RMSD: 0.172
data_MOF--net-ocu--node1-MIFKUJ_clean_sbu_0--node2-AJUNOK_clean_sbu_0--edge1-MIFKUJ_clean_linker_0
_symmetry_space_group_name_H-M    P1
_symmetry_Int_Tables_number       1
_symmetry_cell_setting            triclinic
loop_
_symmetry_equiv_pos_as_xyz
'x, y, z'
_cell_length_a     52.991806
_cell_length_b     54.913971
_cell_length_c     44.061567
_cell_angle_alpha  98.234463
_cell_angle_beta   99.548601
_cell_angle_gamma 105.91835
loop_
_atom_site_label
_atom_site_type_symbol
_atom_site_fract_x
_atom_site_fract_y
_atom_site_fract_z
_atom_type_partial_charge
Zn0 Zn 0.22384 0.27045 0.24892 0.0
Zn1 Zn 0.27007 0.21965 0.24099 0.0
C2 C 0.19614 0.29511 0.28546 0.0
O3 O 0.17641 0.27774 0.26467 0.0
C4 C 0.29744 0.19839 0.20136 0.0
O5 O 0.31619 0.21785 0.22062 0.0
O6 O 0.19786 0.27407 0.21149 0.0
O7 O 0.26032 0.2842 0.23909 0.0
O8 O 0.28303 0.25597 0.23201 0.0
C9 C 0.202 0.29747 0.20843 0.0
O10 O 0.22254 0.31532 0.22752 0.0
O11 O 0.22021 0.29551 0.28518 0.0
C12 C 0.29502 0.21422 0.30434 0.0
O13 O 0.27427 0.21896 0.31375 0.0
O14 O 0.29739 0.2152 0.27623 0.0
O15 O 0.23416 0.20646 0.25322 0.0
O16 O 0.21141 0.23474 0.25904 0.0
O17 O 0.27311 0.19484 0.20373 0.0
C18 C 0.28054 0.27841 0.23212 0.0
C19 C 0.21406 0.21253 0.26037 0.0
Zn20 Zn 0.7404 0.27396 0.22727 0.0
Zn21 Zn 0.75187 0.20995 0.26059 0.0
C22 C 0.70025 0.28363 0.18343 0.0
O23 O 0.7101 0.27075 0.16346 0.0
C24 C 0.78831 0.19753 0.30604 0.0
O25 O 0.77855 0.21181 0.32443 0.0
O26 O 0.77337 0.3038 0.23796 0.0
O27 O 0.73283 0.25232 0.25953 0.0
O28 O 0.74987 0.23587 0.29643 0.0
C29 C 0.79528 0.299 0.23709 0.0
O30 O 0.79797 0.27726 0.24399 0.0
O31 O 0.70968 0.28706 0.21269 0.0
C32 C 0.7128 0.17064 0.26852 0.0
O33 O 0.7319 0.16012 0.2756 0.0
O34 O 0.71524 0.18584 0.24954 0.0
O35 O 0.7616 0.2309 0.22791 0.0
O36 O 0.74493 0.24878 0.19193 0.0
O37 O 0.78011 0.19359 0.2764 0.0
C38 C 0.74626 0.25562 0.28714 0.0
C39 C 0.74678 0.22837 0.20121 0.0
Zn40 Zn 0.77964 0.72843 0.24698 0.0
Zn41 Zn 0.72594 0.77415 0.25781 0.0
C42 C 0.81539 0.71287 0.28915 0.0
O43 O 0.83243 0.7277 0.2759 0.0
C44 C 0.69574 0.79432 0.21571 0.0
O45 O 0.67707 0.78226 0.22926 0.0
O46 O 0.78819 0.71101 0.20794 0.0
O47 O 0.73976 0.7248 0.24285 0.0
O48 O 0.70347 0.73709 0.24346 0.0
C49 C 0.78399 0.68669 0.20311 0.0
O50 O 0.77187 0.67338 0.2219 0.0
O51 O 0.79064 0.71086 0.28152 0.0
C52 C 0.7156 0.81244 0.30412 0.0
O53 O 0.726 0.82884 0.28722 0.0
O54 O 0.71499 0.78891 0.29722 0.0
O55 O 0.76189 0.77004 0.25897 0.0
O56 O 0.80129 0.7669 0.25705 0.0
O57 O 0.71961 0.79397 0.22419 0.0
C58 C 0.71441 0.71924 0.23882 0.0
C59 C 0.78631 0.78111 0.26068 0.0
Zn60 Zn 0.22688 0.76697 0.26506 0.0
Zn61 Zn 0.26425 0.72543 0.22632 0.0
C62 C 0.19376 0.73408 0.292 0.0
O63 O 0.17751 0.74422 0.27591 0.0
C64 C 0.29469 0.75538 0.19292 0.0
O65 O 0.31122 0.74351 0.20481 0.0
O66 O 0.21719 0.7986 0.28322 0.0
O67 O 0.26365 0.76879 0.25714 0.0
O68 O 0.28866 0.74406 0.26748 0.0
C69 C 0.21752 0.8025 0.31255 0.0
O70 O 0.22672 0.78802 0.32997 0.0
O71 O 0.21861 0.74176 0.29231 0.0
C72 C 0.27122 0.68827 0.17949 0.0
O73 O 0.26035 0.70152 0.16164 0.0
O74 O 0.27301 0.69338 0.20901 0.0
O75 O 0.22776 0.7233 0.23473 0.0
O76 O 0.20365 0.74861 0.22312 0.0
O77 O 0.27122 0.75015 0.19807 0.0
C78 C 0.28045 0.76296 0.27659 0.0
C79 C 0.21144 0.72921 0.21479 0.0
Zn80 Zn 0.23169 0.77048 0.71237 0.0
Zn81 Zn 0.27173 0.7365 0.77687 0.0
C82 C 0.18607 0.78742 0.70762 0.0
O83 O 0.17458 0.76286 0.6948 0.0
C84 C 0.30599 0.7164 0.8105 0.0
O85 O 0.30431 0.736 0.83013 0.0
O86 O 0.24672 0.77818 0.67606 0.0
O87 O 0.26228 0.77187 0.74399 0.0
O88 O 0.29365 0.77392 0.78278 0.0
C89 C 0.25873 0.80215 0.68133 0.0
O90 O 0.25638 0.81701 0.70618 0.0
O91 O 0.21054 0.79474 0.72186 0.0
C92 C 0.23918 0.70991 0.80837 0.0
O93 O 0.24139 0.69285 0.78566 0.0
O94 O 0.25216 0.73357 0.81161 0.0
O95 O 0.23875 0.72524 0.7411 0.0
O96 O 0.21107 0.73432 0.70404 0.0
O97 O 0.29408 0.71225 0.78185 0.0
C98 C 0.28172 0.78558 0.76535 0.0
C99 C 0.21815 0.71815 0.71878 0.0
Zn100 Zn 0.27356 0.22612 0.73148 0.0
Zn101 Zn 0.21489 0.2621 0.74875 0.0
C102 C 0.28959 0.21172 0.79273 0.0
O103 O 0.29708 0.23658 0.80463 0.0
C104 C 0.18428 0.28086 0.70614 0.0
O105 O 0.16651 0.26494 0.71743 0.0
O106 O 0.29042 0.2137 0.6963 0.0
O107 O 0.23431 0.22476 0.71485 0.0
O108 O 0.19742 0.22384 0.7321 0.0
C109 C 0.28916 0.1899 0.6919 0.0
O110 O 0.27742 0.17521 0.70971 0.0
O111 O 0.27779 0.20363 0.76395 0.0
C112 C 0.20706 0.30034 0.79388 0.0
O113 O 0.22263 0.31498 0.77898 0.0
O114 O 0.2014 0.2759 0.7862 0.0
O115 O 0.25196 0.26013 0.75755 0.0
O116 O 0.29262 0.26445 0.75233 0.0
O117 O 0.20894 0.2829 0.71523 0.0
C118 C 0.21336 0.21203 0.72278 0.0
C119 C 0.2753 0.2747 0.76041 0.0
Zn120 Zn 0.73217 0.26959 0.77329 0.0
Zn121 Zn 0.76444 0.22523 0.724 0.0
C122 C 0.70856 0.23859 0.80849 0.0
O123 O 0.68964 0.24683 0.7942 0.0
C124 C 0.78669 0.25212 0.68494 0.0
O125 O 0.80477 0.24226 0.69785 0.0
O126 O 0.7198 0.30077 0.78683 0.0
O127 O 0.76449 0.27141 0.7538 0.0
O128 O 0.79366 0.25005 0.75833 0.0
C129 C 0.71921 0.30596 0.81574 0.0
O130 O 0.73096 0.29473 0.83565 0.0
O131 O 0.73262 0.24831 0.80625 0.0
C132 C 0.77098 0.18312 0.68236 0.0
O133 O 0.75545 0.19058 0.66164 0.0
O134 O 0.77567 0.19352 0.71127 0.0
O135 O 0.73242 0.22376 0.74354 0.0
O136 O 0.7039 0.24586 0.73822 0.0
O137 O 0.76303 0.24452 0.68935 0.0
C138 C 0.78564 0.26863 0.76918 0.0
C139 C 0.71159 0.22692 0.72793 0.0
Zn140 Zn 0.72434 0.77389 0.75294 0.0
Zn141 Zn 0.77175 0.72273 0.74852 0.0
C142 C 0.69775 0.79309 0.79538 0.0
O143 O 0.67959 0.77204 0.77834 0.0
C144 C 0.79806 0.70248 0.70655 0.0
O145 O 0.81645 0.72376 0.72266 0.0
O146 O 0.6977 0.77933 0.71777 0.0
O147 O 0.76128 0.78635 0.74244 0.0
O148 O 0.7843 0.75809 0.73884 0.0
C149 C 0.70315 0.78576 0.69242 0.0
O150 O 0.72671 0.78648 0.6862 0.0
O151 O 0.72139 0.79869 0.79016 0.0
C152 C 0.79202 0.69724 0.79239 0.0
O153 O 0.76929 0.67985 0.77738 0.0
O154 O 0.79836 0.71923 0.78473 0.0
O155 O 0.73557 0.71163 0.75942 0.0
O156 O 0.71001 0.73762 0.76179 0.0
O157 O 0.77464 0.69716 0.71238 0.0
C158 C 0.78181 0.7802 0.73688 0.0
C159 C 0.71409 0.71609 0.76413 0.0
Cd160 Cd 0.9775 0.97812 0.5396 0.0
Cd161 Cd 0.02571 0.01902 0.47016 0.0
C162 C 0.03595 0.97016 0.55826 0.0
N163 N 0.01164 0.95903 0.53828 0.0
C164 C 0.02422 0.92159 0.52122 0.0
C165 C 0.04901 0.93215 0.5428 0.0
C166 C 0.05506 0.95709 0.56076 0.0
C167 C 0.00569 0.93547 0.51935 0.0
H168 H 0.04017 0.98864 0.57344 0.0
H169 H 0.98615 0.92708 0.50369 0.0
C170 C 0.97087 0.97589 0.45625 0.0
C171 C 0.98777 0.04423 0.43495 0.0
C172 C 0.96877 0.05662 0.4273 0.0
C173 C 0.95766 0.06691 0.45093 0.0
C174 C 0.96676 0.06534 0.48213 0.0
C175 C 0.98577 0.05246 0.48872 0.0
N176 N 0.9955 0.042 0.46506 0.0
H177 H -0.00382 0.03597 0.4168 0.0
H178 H 0.99235 0.05058 0.51252 0.0
C179 C 0.0295 0.96059 0.46038 0.0
N180 N 0.04489 0.98554 0.47198 0.0
C181 C 0.08489 0.9731 0.47476 0.0
C182 C 0.06935 0.94765 0.46036 0.0
C183 C 0.04134 0.94128 0.45459 0.0
C184 C 0.0721 0.99193 0.48031 0.0
H185 H 0.00807 0.95549 0.4538 0.0
H186 H 0.0839 0.01193 0.48925 0.0
C187 C 0.02261 0.02823 0.54988 0.0
C188 C 0.94463 0.94338 0.56974 0.0
N189 N 0.9528 0.00702 0.5395 0.0
C190 C 0.9563 0.02186 0.56823 0.0
C191 C 0.94353 0.04067 0.57196 0.0
C192 C 0.92624 0.0437 0.54608 0.0
C193 C 0.92221 0.02767 0.51675 0.0
C194 C 0.93613 0.00946 0.51385 0.0
C195 C 0.0616 0.05005 0.43892 0.0
O196 O 0.97911 0.98289 0.48562 0.0
O197 O 0.98476 0.98759 0.43875 0.0
O198 O 0.01885 0.01511 0.5227 0.0
O199 O 0.01116 0.01755 0.56977 0.0
O200 O 0.94171 0.93835 0.53999 0.0
O201 O 0.96274 0.96393 0.58472 0.0
O202 O 0.06157 0.05811 0.46755 0.0
O203 O 0.04606 0.02758 0.42593 0.0
H204 H 0.969 0.01899 0.58841 0.0
H205 H 0.93356 -0.00264 0.49127 0.0
H206 H 0.01886 0.90246 0.50679 0.0
H207 H 0.07365 0.96577 0.57817 0.0
H208 H 0.96279 0.0581 0.40307 0.0
H209 H 0.95879 0.07334 0.50095 0.0
H210 H 0.10663 0.97881 0.47941 0.0
H211 H 0.02866 0.92177 0.444 0.0
H212 H 0.94648 0.0522 0.59512 0.0
H213 H 0.90872 0.0294 0.49639 0.0
Cd214 Cd 0.48067 0.97809 0.03103 0.0
Cd215 Cd 0.50997 0.01399 0.95356 0.0
C216 C 0.53784 0.97209 0.06125 0.0
N217 N 0.51642 0.96087 0.03687 0.0
C218 C 0.53208 0.92435 0.02544 0.0
C219 C 0.55376 0.93504 0.05147 0.0
C220 C 0.55717 0.95986 0.06836 0.0
C221 C 0.51359 0.93778 0.01844 0.0
H222 H 0.5394 0.9899 0.07643 0.0
H223 H 0.49609 0.92908 -0.00051 0.0
C224 C 0.46653 0.96459 0.94768 0.0
C225 C 0.45179 0.02348 0.93307 0.0
C226 C 0.43367 0.03734 0.92706 0.0
C227 C 0.4417 0.06412 0.93847 0.0
C228 C 0.46748 0.07606 0.95755 0.0
C229 C 0.48507 0.06141 0.96296 0.0
N230 N 0.4772 0.03573 0.9501 0.0
H231 H 0.44574 0.00314 0.92298 0.0
H232 H 0.50542 0.07075 0.97624 0.0
C233 C 0.52995 0.96763 0.92474 0.0
N234 N 0.53373 0.98366 0.95272 0.0
C235 C 0.56891 0.9678 0.97534 0.0
C236 C 0.56535 0.95109 0.9466 0.0
C237 C 0.54533 0.95093 0.92128 0.0
C238 C 0.55265 0.98397 0.97793 0.0
H239 H 0.51555 0.9684 0.9047 0.0
H240 H 0.55565 -0.00271 -0.00028 0.0
C241 C 0.52324 0.02782 0.03644 0.0
C242 C 0.44955 0.94417 0.06146 0.0
N243 N 0.45341 0.00472 0.03177 0.0
C244 C 0.45592 0.0176 0.06129 0.0
C245 C 0.43977 0.03296 0.06722 0.0
C246 C 0.4209 0.03554 0.04246 0.0
C247 C 0.41863 0.02206 0.01196 0.0
C248 C 0.43526 0.00656 0.00709 0.0
C249 C 0.54801 0.04761 0.92986 0.0
O250 O 0.47801 0.9763 0.97539 0.0
O251 O 0.47479 0.9745 0.92549 0.0
O252 O 0.51104 0.01708 0.00867 0.0
O253 O 0.51482 0.01787 0.05842 0.0
O254 O 0.44964 0.93707 0.03276 0.0
O255 O 0.46463 0.96639 0.0758 0.0
O256 O 0.55127 0.04782 0.95915 0.0
O257 O 0.52649 0.03227 0.91199 0.0
H258 H 0.47025 0.01555 0.08051 0.0
H259 H 0.43345 -0.00414 0.98384 0.0
H260 H 0.52845 0.90521 0.01181 0.0
H261 H 0.57391 0.96928 0.08806 0.0
H262 H 0.41382 0.02735 0.9126 0.0
H263 H 0.47448 0.09671 0.96665 0.0
H264 H 0.58422 0.96853 0.99538 0.0
H265 H 0.54233 0.93877 0.89853 0.0
H266 H 0.44179 0.04238 0.09122 0.0
H267 H 0.40435 0.02356 0.99221 0.0
Cd268 Cd 0.98161 0.48258 0.03452 0.0
Cd269 Cd 0.01135 0.50957 0.95622 0.0
C270 C 0.03762 0.4678 0.04517 0.0
N271 N 0.01128 0.45743 0.03053 0.0
C272 C 0.01658 0.41512 0.02202 0.0
C273 C 0.04336 0.42525 0.03905 0.0
C274 C 0.05413 0.45217 0.04901 0.0
C275 C 0.00084 0.43169 0.01794 0.0
H276 H 0.04579 0.48797 0.05562 0.0
H277 H 0.9798 0.42371 0.00661 0.0
C278 C 0.96449 0.46627 0.95269 0.0
C279 C 0.95686 0.52761 0.95286 0.0
C280 C 0.94224 0.54516 0.95072 0.0
C281 C 0.95587 0.57181 0.95755 0.0
C282 C 0.98384 0.58011 0.96886 0.0
C283 C -0.00236 0.56191 0.97044 0.0
N284 N 0.98414 0.53625 0.96177 0.0
H285 H 0.94643 0.50721 0.94555 0.0
H286 H 0.01934 0.56826 0.97686 0.0
C287 C 0.02379 0.45648 0.93227 0.0
N288 N 0.0328 0.47748 0.95616 0.0
C289 C 0.07114 0.46465 0.97552 0.0
C290 C 0.06255 0.44314 0.95062 0.0
C291 C 0.03823 0.43886 0.92928 0.0
C292 C 0.05581 0.48166 0.97788 0.0
H293 H 0.00607 0.45393 0.91455 0.0
H294 H 0.06279 0.49876 0.99634 0.0
C295 C 0.02903 0.52656 0.04059 0.0
C296 C 0.95414 0.45194 0.06996 0.0
N297 N 0.95437 0.51005 0.02917 0.0
C298 C 0.96574 0.53616 0.03666 0.0
C299 C 0.94983 0.5525 0.03963 0.0
C300 C 0.92181 0.54198 0.0349 0.0
C301 C 0.91049 0.51501 0.02491 0.0
C302 C 0.92723 0.49935 0.02267 0.0
C303 C 0.04623 0.54206 0.9279 0.0
O304 O 0.97764 0.47958 0.97908 0.0
O305 O 0.97155 0.47344 0.9285 0.0
O306 O 0.01697 0.515 0.01293 0.0
O307 O 0.01969 0.51841 0.06311 0.0
O308 O 0.94956 0.44448 0.04034 0.0
O309 O 0.97025 0.47424 0.08235 0.0
O310 O 0.05285 0.54085 0.95656 0.0
O311 O 0.02331 0.52767 0.91229 0.0
H312 H 0.98724 0.54445 0.04223 0.0
H313 H 0.9186 0.47856 0.0174 0.0
H314 H 0.00728 0.3945 0.0139 0.0
H315 H 0.07484 0.46106 0.06141 0.0
H316 H 0.92073 0.53785 0.94159 0.0
H317 H 0.99512 0.60046 0.9748 0.0
H318 H 0.08982 0.46861 0.99243 0.0
H319 H 0.03122 0.42287 0.90932 0.0
H320 H 0.95971 0.57303 0.04773 0.0
H321 H 0.88899 0.50593 0.02034 0.0
Cd322 Cd 0.4775 0.47952 0.03635 0.0
Cd323 Cd 0.5211 0.51832 0.9628 0.0
C324 C 0.53189 0.46399 0.03392 0.0
N325 N 0.50507 0.45309 0.03113 0.0
C326 C 0.51139 0.41202 0.03433 0.0
C327 C 0.53931 0.42359 0.04039 0.0
C328 C 0.54949 0.44957 0.03873 0.0
C329 C 0.49447 0.42734 0.02989 0.0
H330 H 0.54002 0.48414 0.03425 0.0
H331 H 0.47308 0.41903 0.02753 0.0
C332 C 0.46816 0.47373 0.95149 0.0
C333 C 0.47629 0.53785 0.93071 0.0
C334 C 0.4562 0.54932 0.92504 0.0
C335 C 0.45008 0.56362 0.95024 0.0
C336 C 0.46477 0.5664 0.98081 0.0
C337 C 0.48478 0.55434 0.98545 0.0
N338 N 0.48983 0.54025 0.96047 0.0
H339 H 0.4812 0.52698 0.91129 0.0
H340 H 0.49629 0.55632 0.00879 0.0
C341 C 0.52912 0.46096 0.95303 0.0
N342 N 0.54221 0.48642 0.96515 0.0
C343 C 0.58431 0.4779 0.97474 0.0
C344 C 0.57154 0.45191 0.96009 0.0
C345 C 0.54347 0.44326 0.95038 0.0
C346 C 0.56917 0.49497 0.97678 0.0
H347 H 0.50779 0.45433 0.94371 0.0
H348 H 0.57908 0.51531 0.98615 0.0
C349 C 0.52695 0.52593 0.04302 0.0
C350 C 0.44279 0.44865 0.06935 0.0
N351 N 0.45495 0.51038 0.03435 0.0
C352 C 0.46711 0.53411 0.05304 0.0
C353 C 0.45299 0.55166 0.05719 0.0
C354 C 0.42557 0.54441 0.04341 0.0
C355 C 0.41366 0.52038 0.02273 0.0
C356 C 0.42893 0.5035 0.01846 0.0
C357 C 0.5561 0.55184 0.93384 0.0
O358 O 0.47737 0.48072 0.98077 0.0
O359 O 0.48152 0.48474 0.93311 0.0
O360 O 0.5155 0.51572 0.01507 0.0
O361 O 0.51809 0.51529 0.06453 0.0
O362 O 0.43784 0.44428 0.03945 0.0
O363 O 0.46363 0.46718 0.08351 0.0
O364 O 0.56108 0.55471 0.96369 0.0
O365 O 0.53573 0.5334 0.9184 0.0
H366 H 0.48736 0.53929 0.06632 0.0
H367 H 0.41961 0.48435 0.00411 0.0
H368 H 0.50291 0.39195 0.03554 0.0
H369 H 0.57095 0.459 0.04296 0.0
H370 H 0.44595 0.54746 0.90101 0.0
H371 H 0.4608 0.57765 0.00071 0.0
H372 H 0.60593 0.48526 0.98285 0.0
H373 H 0.53287 0.42346 0.93863 0.0
H374 H 0.4631 0.57022 0.07274 0.0
H375 H 0.39247 0.51403 0.01174 0.0
Cd376 Cd 0.97737 0.47855 0.53493 0.0
Cd377 Cd 0.01254 0.50831 0.45722 0.0
C378 C 0.03411 0.46955 0.56228 0.0
N379 N 0.01179 0.45901 0.53874 0.0
C380 C 0.02636 0.42227 0.52417 0.0
C381 C 0.04915 0.43253 0.54881 0.0
C382 C 0.05333 0.45677 0.56739 0.0
C383 C 0.00789 0.43606 0.51935 0.0
H384 H 0.03656 0.48729 0.5782 0.0
H385 H 0.98985 0.42796 0.50103 0.0
C386 C 0.96004 0.46639 0.44899 0.0
C387 C 0.96437 0.5276 0.4258 0.0
C388 C 0.94561 0.54102 0.4217 0.0
C389 C 0.94449 0.55916 0.44685 0.0
C390 C 0.96195 0.56304 0.47595 0.0
C391 C 0.98005 0.54869 0.47923 0.0
N392 N 0.98104 0.53147 0.45424 0.0
H393 H 0.96592 0.51435 0.40606 0.0
H394 H 0.9936 0.55167 0.50152 0.0
C395 C 0.0213 0.45094 0.44348 0.0
N396 N 0.03404 0.47612 0.45741 0.0
C397 C 0.07654 0.46796 0.4656 0.0
C398 C 0.06417 0.44237 0.44934 0.0
C399 C 0.03606 0.43366 0.43922 0.0
C400 C 0.06103 0.48462 0.46918 0.0
H401 H -0.0001 0.44439 0.43419 0.0
H402 H 0.07078 0.50476 0.47977 0.0
C403 C 0.02243 0.52367 0.53675 0.0
C404 C 0.94223 0.44665 0.56397 0.0
N405 N 0.95517 0.5097 0.53816 0.0
C406 C 0.96189 0.52756 0.56529 0.0
C407 C 0.94693 0.54443 0.57003 0.0
C408 C 0.92424 0.54228 0.54718 0.0
C409 C 0.91765 0.5238 0.51928 0.0
C410 C 0.93369 0.50767 0.51512 0.0
C411 C 0.05088 0.54338 0.43523 0.0
O412 O 0.97178 0.47375 0.47764 0.0
O413 O 0.97235 0.47508 0.42853 0.0
O414 O 0.0103 0.50982 0.51043 0.0
O415 O 0.01403 0.5175 0.56062 0.0
O416 O 0.93732 0.44474 0.53433 0.0
O417 O 0.96422 0.46268 0.5798 0.0
O418 O 0.05328 0.54384 0.46451 0.0
O419 O 0.03062 0.52673 0.41662 0.0
H420 H 0.97813 0.52799 0.58397 0.0
H421 H 0.92837 0.49282 0.49415 0.0
H422 H 0.02248 0.40346 0.50953 0.0
H423 H 0.07043 0.46498 0.58698 0.0
H424 H 0.93278 0.53799 0.39875 0.0
H425 H 0.96174 0.57713 0.49574 0.0
H426 H 0.09818 0.47556 0.47346 0.0
H427 H 0.02573 0.41399 0.42679 0.0
H428 H 0.95214 0.55807 0.59213 0.0
H429 H 0.90005 0.52153 0.50134 0.0
Cd430 Cd 0.48648 0.98351 0.53486 0.0
Cd431 Cd 0.5075 0.01095 0.45216 0.0
C432 C 0.53386 0.96537 0.56497 0.0
N433 N 0.51782 0.96149 0.53621 0.0
C434 C 0.53151 0.92511 0.51768 0.0
C435 C 0.54714 0.92789 0.54777 0.0
C436 C 0.54898 0.94891 0.57119 0.0
C437 C 0.51668 0.94219 0.51244 0.0
H438 H 0.53363 0.98032 0.58368 0.0
H439 H 0.50331 0.93928 0.48997 0.0
C440 C 0.46193 0.96599 0.45154 0.0
C441 C 0.45258 0.02667 0.44379 0.0
C442 C 0.43685 0.04308 0.44043 0.0
C443 C 0.44837 0.06967 0.45219 0.0
C444 C 0.47509 0.079 0.46906 0.0
C445 C 0.49024 0.06185 0.47158 0.0
N446 N 0.47893 0.03628 0.45856 0.0
H447 H 0.44411 0.00665 0.43255 0.0
H448 H 0.51153 0.06923 0.48161 0.0
C449 C 0.52332 0.96144 0.42328 0.0
N450 N 0.53036 0.98012 0.44962 0.0
C451 C 0.56544 0.96392 0.47147 0.0
C452 C 0.55863 0.94437 0.44449 0.0
C453 C 0.53719 0.94331 0.42022 0.0
C454 C 0.55104 0.98175 0.47347 0.0
H455 H 0.50724 0.96094 0.40432 0.0
H456 H 0.55649 -0.00304 0.49401 0.0
C457 C 0.53147 0.02724 0.53395 0.0
C458 C 0.45963 0.95404 0.57212 0.0
N459 N 0.46269 0.01337 0.53221 0.0
C460 C 0.47261 0.03576 0.55391 0.0
C461 C 0.45817 0.05339 0.55591 0.0
C462 C 0.43299 0.04779 0.53572 0.0
C463 C 0.42347 0.02481 0.51292 0.0
C464 C 0.43876 0.00772 0.5116 0.0
C465 C 0.53757 0.04409 0.42085 0.0
O466 O 0.47701 0.97713 0.47801 0.0
O467 O 0.4683 0.97424 0.42758 0.0
O468 O 0.51664 0.01446 0.50804 0.0
O469 O 0.52653 0.01951 0.55861 0.0
O470 O 0.45661 0.94514 0.54303 0.0
O471 O 0.47372 0.97732 0.58318 0.0
O472 O 0.54635 0.04386 0.44941 0.0
O473 O 0.51495 0.02817 0.40666 0.0
H474 H 0.49123 0.03953 0.57067 0.0
H475 H 0.43113 0.98959 0.49486 0.0
H476 H 0.52954 0.90911 0.49902 0.0
H477 H 0.56109 0.95195 0.59457 0.0
H478 H 0.41634 0.03532 0.42698 0.0
H479 H 0.48474 0.09951 0.47782 0.0
H480 H 0.58168 0.96545 0.49085 0.0
H481 H 0.53167 0.92913 0.39857 0.0
H482 H 0.46599 0.07052 0.57436 0.0
H483 H 0.40414 0.0198 0.4969 0.0
H484 H 0.17851 0.22328 0.29485 0.0
H485 H 0.15121 0.19485 0.32302 0.0
H486 H 0.17886 0.13226 0.286 0.0
H487 H 0.20672 0.16071 0.25812 0.0
H488 H 0.12135 0.11836 0.28546 0.0
H489 H 0.20772 0.16153 0.35543 0.0
H490 H 0.2459 0.19888 0.38501 0.0
H491 H 0.19295 0.22848 0.43281 0.0
H492 H 0.15436 0.19148 0.40318 0.0
H493 H 0.08094 0.03415 0.3886 0.0
H494 H 0.10475 0.06069 0.35601 0.0
H495 H 0.09958 0.1292 0.41316 0.0
H496 H 0.07727 0.1027 0.44695 0.0
H497 H 0.14531 0.14021 0.40184 0.0
H498 H 0.05859 0.09781 0.33328 0.0
H499 H 0.01946 0.06165 0.30299 0.0
H500 H 0.07044 0.0318 0.252 0.0
H501 H 0.10994 0.06763 0.28215 0.0
C502 C 0.17856 0.20338 0.29229 0.0
C503 C 0.19494 0.19435 0.27423 0.0
C504 C 0.16299 0.18718 0.30855 0.0
C505 C 0.16313 0.16148 0.3068 0.0
C506 C 0.17846 0.15203 0.2877 0.0
C507 C 0.19441 0.16834 0.27181 0.0
C508 C 0.14827 0.14492 0.32605 0.0
C509 C 0.12665 0.1229 0.31092 0.0
C510 C 0.15486 0.1513 0.35926 0.0
C511 C 0.17805 0.17383 0.37677 0.0
C512 C 0.20414 0.17614 0.37197 0.0
C513 C 0.22588 0.19722 0.38883 0.0
C514 C 0.22184 0.21608 0.41072 0.0
C515 C 0.19604 0.21388 0.41581 0.0
C516 C 0.17423 0.19284 0.399 0.0
C517 C 0.08512 0.05492 0.39433 0.0
C518 C 0.07746 0.06639 0.42047 0.0
C519 C 0.09842 0.0701 0.37538 0.0
C520 C 0.10357 0.09707 0.38148 0.0
C521 C 0.09596 0.1085 0.40779 0.0
C522 C 0.08328 0.09337 0.42723 0.0
C523 C 0.11788 0.11349 0.36143 0.0
C524 C 0.13961 0.13557 0.3764 0.0
C525 C 0.1111 0.10727 0.32804 0.0
C526 C 0.08734 0.08536 0.31024 0.0
C527 C 0.06153 0.08343 0.31581 0.0
C528 C 0.03925 0.06301 0.2986 0.0
C529 C 0.04247 0.04442 0.27564 0.0
C530 C 0.06798 0.04621 0.26981 0.0
C531 C 0.09031 0.0666 0.28693 0.0
H532 H 0.02521 0.02866 0.26231 0.0
H533 H 0.2387 0.23234 0.4238 0.0
H534 H 0.79764 0.15308 0.28076 0.0
H535 H 0.8254 0.13017 0.30793 0.0
H536 H 0.84791 0.19041 0.39077 0.0
H537 H 0.82043 0.21323 0.36399 0.0
H538 H 0.89081 0.17558 0.37525 0.0
H539 H 0.79877 0.13532 0.38519 0.0
H540 H 0.75081 0.11114 0.36533 0.0
H541 H 0.77162 0.04791 0.31779 0.0
H542 H 0.81976 0.0719 0.33701 0.0
H543 H 0.9535 0.11295 0.47956 0.0
H544 H 0.92239 0.13553 0.45903 0.0
H545 H 0.88443 0.07072 0.3816 0.0
H546 H 0.91425 0.0478 0.40284 0.0
H547 H 0.84868 0.08896 0.39629 0.0
H548 H 0.93683 0.12546 0.37811 0.0
H549 H 0.98576 0.14697 0.39124 0.0
H550 H 0.97442 0.21351 0.44446 0.0
H551 H 0.92539 0.19222 0.43206 0.0
C552 C 0.80884 0.16153 0.3046 0.0
C553 C 0.8069 0.18483 0.32039 0.0
C554 C 0.82444 0.14837 0.32012 0.0
C555 C 0.83833 0.15854 0.35141 0.0
C556 C 0.83719 0.18226 0.36668 0.0
C557 C 0.82147 0.19522 0.35137 0.0
C558 C 0.854 0.14458 0.36874 0.0
C559 C 0.88164 0.15673 0.38018 0.0
C560 C 0.84195 0.11973 0.37423 0.0
C561 C 0.81291 0.10558 0.36226 0.0
C562 C 0.79314 0.1164 0.3702 0.0
C563 C 0.76589 0.10266 0.3591 0.0
C564 C 0.75816 0.078 0.3402 0.0
C565 C 0.77764 0.06703 0.33237 0.0
C566 C 0.8049 0.08069 0.34337 0.0
C567 C 0.93801 0.10336 0.45864 0.0
C568 C 0.93658 0.07896 0.44228 0.0
C569 C 0.92047 0.11633 0.44677 0.0
C570 C 0.90163 0.10509 0.4183 0.0
C571 C 0.89897 0.07991 0.40342 0.0
C572 C 0.91617 0.06691 0.4154 0.0
C573 C 0.8857 0.11975 0.40257 0.0
C574 C 0.85795 0.10784 0.39151 0.0
C575 C 0.89785 0.14441 0.3964 0.0
C576 C 0.92742 0.15707 0.40452 0.0
C577 C 0.94477 0.14455 0.39291 0.0
C578 C 0.97253 0.15673 0.40017 0.0
C579 C 0.9832 0.18155 0.41877 0.0
C580 C 0.96612 0.19425 0.43014 0.0
C581 C 0.93834 0.18213 0.42302 0.0
H582 H 0.00468 0.19097 0.42428 0.0
H583 H 0.73712 0.06726 0.33166 0.0
H584 H 0.76532 0.81091 0.29487 0.0
H585 H 0.79035 0.85089 0.32998 0.0
H586 H 0.85697 0.85514 0.28405 0.0
H587 H 0.83163 0.81367 0.24924 0.0
H588 H 0.86427 0.83825 0.33677 0.0
H589 H 0.8321 0.90959 0.3089 0.0
H590 H 0.79562 0.92827 0.29376 0.0
H591 H 0.76764 0.91461 0.37769 0.0
H592 H 0.8039 0.89578 0.39327 0.0
H593 H 0.96213 0.94619 0.39919 0.0
H594 H 0.92474 0.90792 0.3753 0.0
H595 H 0.89294 0.91332 0.45934 0.0
H596 H 0.9312 0.95194 0.48396 0.0
H597 H 0.85942 0.91649 0.40403 0.0
H598 H 0.90171 0.85713 0.43676 0.0
H599 H 0.93921 0.8396 0.45104 0.0
H600 H 0.95 0.83199 0.3561 0.0
H601 H 0.91292 0.84978 0.34127 0.0
C602 C 0.78446 0.82123 0.2907 0.0
C603 C 0.79695 0.80905 0.27036 0.0
C604 C 0.79891 0.84438 0.31087 0.0
C605 C 0.82592 0.85536 0.31044 0.0
C606 C 0.83625 0.84631 0.28514 0.0
C607 C 0.82198 0.82258 0.26553 0.0
C608 C 0.84457 0.8679 0.34065 0.0
C609 C 0.86366 0.85581 0.35107 0.0
C610 C 0.84164 0.88883 0.3609 0.0
C611 C 0.8206 0.90115 0.35213 0.0
C612 C 0.81814 0.91055 0.32409 0.0
C613 C 0.79752 0.92118 0.31545 0.0
C614 C 0.7793 0.92259 0.33473 0.0
C615 C 0.78179 0.91355 0.36281 0.0
C616 C 0.80243 0.90299 0.37161 0.0
C617 C 0.94738 0.93912 0.41276 0.0
C618 C 0.94893 0.95225 0.44296 0.0
C619 C 0.92635 0.91696 0.39938 0.0
C620 C 0.90642 0.90778 0.41586 0.0
C621 C 0.90846 0.92012 0.44663 0.0
C622 C 0.92997 0.94221 0.46036 0.0
C623 C 0.88141 0.88907 0.39762 0.0
C624 C 0.85995 0.89891 0.38967 0.0
C625 C 0.88234 0.86623 0.37934 0.0
C626 C 0.90431 0.85473 0.38788 0.0
C627 C 0.91207 0.85175 0.41891 0.0
C628 C 0.9333 0.84177 0.42711 0.0
C629 C 0.94695 0.83465 0.40449 0.0
C630 C 0.93934 0.83741 0.37358 0.0
C631 C 0.91814 0.84737 0.36524 0.0
H632 H 0.96344 0.82704 0.41092 0.0
H633 H 0.76327 0.93069 0.32791 0.0
H634 H 0.22761 0.82642 0.37346 0.0
H635 H 0.20016 0.84885 0.3984 0.0
H636 H 0.14754 0.83793 0.30823 0.0
H637 H 0.17558 0.81626 0.28304 0.0
H638 H 0.15503 0.88332 0.33901 0.0
H639 H 0.1311 0.79969 0.36402 0.0
H640 H 0.13625 0.76131 0.38423 0.0
H641 H 0.16964 0.8076 0.47693 0.0
H642 H 0.16509 0.84633 0.45722 0.0
H643 H 0.05307 0.91682 0.40235 0.0
H644 H 0.0762 0.8896 0.37741 0.0
H645 H 0.13783 0.90974 0.46213 0.0
H646 H 0.11425 0.93669 0.48776 0.0
H647 H 0.12287 0.85769 0.43275 0.0
H648 H 0.14743 0.94199 0.40355 0.0
H649 H 0.13784 0.97806 0.38127 0.0
H650 H 0.09783 0.92638 0.29314 0.0
H651 H 0.1069 0.88996 0.31502 0.0
C652 C 0.21039 0.82917 0.35894 0.0
C653 C 0.20366 0.81965 0.32637 0.0
C654 C 0.19454 0.84167 0.37324 0.0
C655 C 0.17135 0.84439 0.35532 0.0
C656 C 0.16524 0.83585 0.32256 0.0
C657 C 0.18136 0.82368 0.30815 0.0
C658 C 0.1539 0.85673 0.37068 0.0
C659 C 0.14769 0.8774 0.35921 0.0
C660 C 0.14449 0.84918 0.39728 0.0
C661 C 0.14808 0.82602 0.40901 0.0
C662 C 0.13988 0.80177 0.38863 0.0
C663 C 0.14261 0.77992 0.40003 0.0
C664 C 0.15335 0.78203 0.43182 0.0
C665 C 0.16138 0.806 0.45229 0.0
C666 C 0.15874 0.8279 0.44101 0.0
C667 C 0.07119 0.91499 0.41601 0.0
C668 C 0.08196 0.92894 0.44701 0.0
C669 C 0.0845 0.89963 0.40158 0.0
C670 C 0.10893 0.89813 0.41776 0.0
C671 C 0.11907 0.91091 0.44923 0.0
C672 C 0.10573 0.92636 0.46375 0.0
C673 C 0.12454 0.88432 0.40127 0.0
C674 C 0.13027 0.86341 0.41249 0.0
C675 C 0.13309 0.89127 0.37409 0.0
C676 C 0.12763 0.91322 0.36102 0.0
C677 C 0.13641 0.93829 0.3795 0.0
C678 C 0.1311 0.9588 0.36692 0.0
C679 C 0.11718 0.9545 0.33583 0.0
C680 C 0.10858 0.92969 0.31723 0.0
C681 C 0.11382 0.90911 0.32969 0.0
H682 H 0.11311 0.97041 0.32614 0.0
H683 H 0.15538 0.76509 0.44061 0.0
H684 H 0.21188 0.83663 0.70256 0.0
H685 H 0.19304 0.86351 0.67177 0.0
H686 H 0.11412 0.80836 0.6562 0.0
H687 H 0.1331 0.78083 0.68584 0.0
H688 H 0.1253 0.81841 0.60267 0.0
H689 H 0.13575 0.87077 0.70573 0.0
H690 H 0.16169 0.89687 0.75746 0.0
H691 H 0.21183 0.94933 0.71264 0.0
H692 H 0.18647 0.92331 0.66062 0.0
H693 H 0.03406 0.88211 0.54975 0.0
H694 H 0.06273 0.85902 0.57333 0.0
H695 H 0.13291 0.92305 0.5777 0.0
H696 H 0.10408 0.94645 0.55402 0.0
H697 H 0.13342 0.91115 0.63297 0.0
H698 H 0.12194 0.86293 0.53093 0.0
H699 H 0.09866 0.8372 0.47815 0.0
H700 H 0.05349 0.77786 0.51907 0.0
H701 H 0.07626 0.80333 0.57213 0.0
C702 C 0.19039 0.83056 0.69333 0.0
C703 C 0.17391 0.80656 0.69651 0.0
C704 C 0.17965 0.84596 0.67565 0.0
C705 C 0.15216 0.83793 0.66158 0.0
C706 C 0.13544 0.81482 0.66661 0.0
C707 C 0.14623 0.79921 0.68377 0.0
C708 C 0.14095 0.85233 0.63964 0.0
C709 C 0.12677 0.83863 0.60941 0.0
C710 C 0.1443 0.87909 0.64785 0.0
C711 C 0.15937 0.89488 0.67923 0.0
C712 C 0.15243 0.88774 0.70688 0.0
C713 C 0.16703 0.90255 0.73627 0.0
C714 C 0.18845 0.92469 0.73834 0.0
C715 C 0.19527 0.93213 0.71101 0.0
C716 C 0.18078 0.91737 0.68156 0.0
C717 C 0.05564 0.89095 0.55464 0.0
C718 C 0.0668 0.91618 0.55019 0.0
C719 C 0.07207 0.87771 0.56822 0.0
C720 C 0.10002 0.88927 0.57729 0.0
C721 C 0.11138 0.91381 0.57102 0.0
C722 C 0.09492 0.92713 0.5575 0.0
C723 C 0.11667 0.8769 0.59646 0.0
C724 C 0.13211 0.891 0.62607 0.0
C725 C 0.11477 0.85056 0.58758 0.0
C726 C 0.10074 0.83519 0.55561 0.0
C727 C 0.10689 0.8445 0.52872 0.0
C728 C 0.09381 0.82992 0.49873 0.0
C729 C 0.07457 0.80594 0.49526 0.0
C730 C 0.0684 0.79645 0.52179 0.0
C731 C 0.08143 0.81094 0.55184 0.0
H732 H 0.06448 0.79468 0.47203 0.0
H733 H 0.19971 0.93612 0.76111 0.0
H734 H 0.23375 0.18077 0.68756 0.0
H735 H 0.20909 0.13673 0.66148 0.0
H736 H 0.14967 0.13724 0.71743 0.0
H737 H 0.17622 0.17986 0.74648 0.0
H738 H 0.13465 0.09395 0.68148 0.0
H739 H 0.16182 0.18619 0.65614 0.0
H740 H 0.19649 0.22305 0.64656 0.0
H741 H 0.22218 0.17085 0.58553 0.0
H742 H 0.1876 0.13376 0.59477 0.0
H743 H 0.01642 0.06743 0.59018 0.0
H744 H 0.05318 0.10618 0.61737 0.0
H745 H 0.10246 0.08711 0.55464 0.0
H746 H 0.06563 0.04924 0.52675 0.0
H747 H 0.12454 0.13618 0.58959 0.0
H748 H 0.08836 0.04415 0.61405 0.0
H749 H 0.05052 0.01177 0.62607 0.0
H750 H 0.03856 0.07063 0.69233 0.0
H751 H 0.07671 0.10315 0.68136 0.0
C752 C 0.21698 0.1706 0.69652 0.0
C753 C 0.20619 0.18393 0.71801 0.0
C754 C 0.20253 0.14544 0.68116 0.0
C755 C 0.17638 0.13519 0.68535 0.0
C756 C 0.16922 0.14561 0.71248 0.0
C757 C 0.18418 0.17028 0.72881 0.0
C758 C 0.15427 0.12295 0.65772 0.0
C759 C 0.13265 0.10294 0.66119 0.0
C760 C 0.1513 0.13512 0.63142 0.0
C761 C 0.17244 0.15729 0.62644 0.0
C762 C 0.17492 0.18265 0.64073 0.0
C763 C 0.19452 0.20355 0.63536 0.0
C764 C 0.21158 0.19928 0.61552 0.0
C765 C 0.20902 0.17412 0.60097 0.0
C766 C 0.18943 0.15317 0.60625 0.0
C767 C 0.03474 0.07233 0.58142 0.0
C768 C 0.03928 0.05497 0.55792 0.0
C769 C 0.0555 0.09453 0.59661 0.0
C770 C 0.08081 0.09809 0.58919 0.0
C771 C 0.08319 0.08398 0.56127 0.0
C772 C 0.06227 0.06219 0.54556 0.0
C773 C 0.10498 0.10811 0.61432 0.0
C774 C 0.12681 0.12716 0.60983 0.0
C775 C 0.1079 0.09573 0.64022 0.0
C776 C 0.08527 0.07599 0.64689 0.0
C777 C 0.07771 0.0501 0.63127 0.0
C778 C 0.05622 0.03175 0.63787 0.0
C779 C 0.04206 0.03917 0.65975 0.0
C780 C 0.04951 0.0649 0.67536 0.0
C781 C 0.07116 0.08325 0.66914 0.0
H782 H 0.02537 0.02495 0.66468 0.0
H783 H 0.22671 0.21547 0.61136 0.0
H784 H 0.75575 0.14021 0.6363 0.0
H785 H 0.78537 0.11953 0.6125 0.0
H786 H 0.85455 0.17422 0.67698 0.0
H787 H 0.82492 0.19422 0.7018 0.0
H788 H 0.85157 0.16428 0.60269 0.0
H789 H 0.85222 0.12797 0.69515 0.0
H790 H 0.83252 0.10724 0.73542 0.0
H791 H 0.78469 0.04099 0.66473 0.0
H792 H 0.80379 0.06157 0.62391 0.0
H793 H 0.94621 0.0947 0.57332 0.0
H794 H 0.92073 0.1221 0.59349 0.0
H795 H 0.84671 0.06114 0.55175 0.0
H796 H 0.87214 0.03372 0.53151 0.0
H797 H 0.85554 0.07732 0.6172 0.0
H798 H 0.85807 0.11486 0.52467 0.0
H799 H 0.88108 0.1359 0.48671 0.0
H800 H 0.92729 0.20069 0.56023 0.0
H801 H 0.9047 0.17989 0.59875 0.0
C802 C 0.77722 0.14739 0.64577 0.0
C803 C 0.7881 0.16841 0.67114 0.0
C804 C 0.79408 0.13579 0.63206 0.0
C805 C 0.82204 0.14558 0.64291 0.0
C806 C 0.83299 0.16652 0.66833 0.0
C807 C 0.81607 0.17764 0.68268 0.0
C808 C 0.83956 0.13347 0.62765 0.0
C809 C 0.85284 0.14544 0.6061 0.0
C810 C 0.84092 0.1089 0.6321 0.0
C811 C 0.8291 0.0965 0.65641 0.0
C812 C 0.8372 0.10915 0.68812 0.0
C813 C 0.82623 0.09739 0.71106 0.0
C814 C 0.80727 0.07286 0.70262 0.0
C815 C 0.79931 0.06003 0.67121 0.0
C816 C 0.81021 0.07173 0.64816 0.0
C817 C 0.92445 0.08753 0.5677 0.0
C818 C 0.91102 0.06216 0.55106 0.0
C819 C 0.90996 0.10315 0.57916 0.0
C820 C 0.88191 0.09351 0.57422 0.0
C821 C 0.86838 0.06883 0.55576 0.0
C822 C 0.88285 0.05329 0.54403 0.0
C823 C 0.86704 0.10772 0.59152 0.0
C824 C 0.85434 0.09617 0.61368 0.0
C825 C 0.86668 0.1328 0.5879 0.0
C826 C 0.87982 0.1457 0.56467 0.0
C827 C 0.87324 0.13353 0.5328 0.0
C828 C 0.88619 0.14542 0.51117 0.0
C829 C 0.90571 0.16958 0.52107 0.0
C830 C 0.91218 0.18196 0.5526 0.0
C831 C 0.89926 0.17015 0.57434 0.0
H832 H 0.91577 0.17871 0.50429 0.0
H833 H 0.79882 0.06377 0.72043 0.0
H834 H 0.79408 0.83292 0.74448 0.0
H835 H 0.82466 0.8615 0.71946 0.0
H836 H 0.84447 0.79628 0.67425 0.0
H837 H 0.81501 0.76791 0.70027 0.0
H838 H 0.88793 0.83725 0.69011 0.0
H839 H 0.79748 0.81982 0.62852 0.0
H840 H 0.74953 0.81494 0.6265 0.0
H841 H 0.77019 0.89327 0.6765 0.0
H842 H 0.81816 0.89879 0.67778 0.0
H843 H 0.92179 0.89075 0.5546 0.0
H844 H 0.89578 0.86329 0.58533 0.0
H845 H 0.9026 0.93101 0.65301 0.0
H846 H 0.92935 0.95833 0.62323 0.0
H847 H 0.84633 0.88897 0.62563 0.0
H848 H 0.93958 0.90548 0.67855 0.0
H849 H 0.98639 0.90567 0.68039 0.0
H850 H 0.95938 0.82371 0.6453 0.0
H851 H 0.91232 0.82312 0.6427 0.0
C852 C 0.80522 0.82475 0.72952 0.0
C853 C 0.80201 0.79813 0.72427 0.0
C854 C 0.82259 0.84107 0.71507 0.0
C855 C 0.83643 0.83097 0.69432 0.0
C856 C 0.83405 0.80457 0.69009 0.0
C857 C 0.81714 0.78835 0.705 0.0
C858 C 0.85197 0.84751 0.67553 0.0
C859 C 0.87877 0.84841 0.67587 0.0
C860 C 0.84012 0.86202 0.65677 0.0
C861 C 0.81127 0.85972 0.65319 0.0
C862 C 0.79168 0.83609 0.63864 0.0
C863 C 0.76451 0.83321 0.63762 0.0
C864 C 0.75674 0.85375 0.65136 0.0
C865 C 0.77613 0.8774 0.66561 0.0
C866 C 0.8033 0.88052 0.66621 0.0
C867 C 0.91761 0.8997 0.57596 0.0
C868 C 0.92762 0.9266 0.58666 0.0
C869 C 0.90285 0.88405 0.59348 0.0
C870 C 0.89738 0.89519 0.62142 0.0
C871 C 0.90667 0.92209 0.63154 0.0
C872 C 0.92199 0.93762 0.61457 0.0
C873 C 0.88231 0.87885 0.64047 0.0
C874 C 0.85552 0.87789 0.63997 0.0
C875 C 0.8941 0.86392 0.65857 0.0
C876 C 0.92239 0.86432 0.66001 0.0
C877 C 0.94358 0.88755 0.67082 0.0
C878 C 0.97017 0.88772 0.6721 0.0
C879 C 0.97585 0.86473 0.66286 0.0
C880 C 0.95495 0.84151 0.65238 0.0
C881 C 0.92831 0.84126 0.651 0.0
H882 H -0.00355 0.86489 0.66392 0.0
H883 H 0.73572 0.85128 0.65103 0.0
H884 H 0.34734 0.19402 0.20342 0.0
H885 H 0.36155 0.16474 0.16832 0.0
H886 H 0.28034 0.13235 0.11373 0.0
H887 H 0.26558 0.16133 0.15 0.0
H888 H 0.30371 0.09479 0.12103 0.0
H889 H 0.33171 0.17551 0.0811 0.0
H890 H 0.35474 0.2215 0.08309 0.0
H891 H 0.42792 0.21438 0.1342 0.0
H892 H 0.40544 0.16818 0.13179 0.0
H893 H 0.36683 0.02671 0.01898 0.0
H894 H 0.33882 0.05275 0.03611 0.0
H895 H 0.40886 0.10666 0.1005 0.0
H896 H 0.43678 0.08227 0.08178 0.0
H897 H 0.38211 0.13206 0.07615 0.0
H898 H 0.35783 0.05424 0.12019 0.0
H899 H 0.33952 0.00715 0.11598 0.0
H900 H 0.26408 0.00759 0.06282 0.0
H901 H 0.28205 0.05468 0.06644 0.0
C902 C 0.33241 0.18083 0.18388 0.0
C903 C 0.30536 0.18029 0.17927 0.0
C904 C 0.34064 0.16413 0.16365 0.0
C905 C 0.32221 0.14684 0.13774 0.0
C906 C 0.29499 0.14575 0.13335 0.0
C907 C 0.2866 0.16233 0.15401 0.0
C908 C 0.3318 0.12994 0.11586 0.0
C909 C 0.32058 0.1029 0.11075 0.0
C910 C 0.35403 0.14036 0.10272 0.0
C911 C 0.36687 0.16851 0.10634 0.0
C912 C 0.35262 0.18385 0.09301 0.0
C913 C 0.36565 0.20991 0.09405 0.0
C914 C 0.39282 0.22085 0.10874 0.0
C915 C 0.40694 0.20585 0.12271 0.0
C916 C 0.39411 0.17972 0.12135 0.0
C917 C 0.37622 0.04446 0.03624 0.0
C918 C 0.40396 0.05222 0.04941 0.0
C919 C 0.36014 0.0591 0.04639 0.0
C920 C 0.37156 0.08141 0.07016 0.0
C921 C 0.39941 0.0895 0.08227 0.0
C922 C 0.4154 0.07535 0.07173 0.0
C923 C 0.35531 0.09692 0.083 0.0
C924 C 0.36502 0.12379 0.08605 0.0
C925 C 0.33236 0.08619 0.09497 0.0
C926 C 0.32139 0.05796 0.09329 0.0
C927 C 0.33738 0.04428 0.10748 0.0
C928 C 0.32706 0.01759 0.10521 0.0
C929 C 0.30068 0.00438 0.08905 0.0
C930 C 0.28453 0.01785 0.07527 0.0
C931 C 0.29476 0.04455 0.07745 0.0
H932 H 0.29275 0.98371 0.08727 0.0
H933 H 0.40305 0.24091 0.1092 0.0
H934 H 0.79913 0.34625 0.22322 0.0
H935 H 0.82349 0.36615 0.1864 0.0
H936 H 0.84891 0.29856 0.16449 0.0
H937 H 0.82541 0.27901 0.20227 0.0
H938 H 0.88965 0.33666 0.17959 0.0
H939 H 0.81124 0.32164 0.0986 0.0
H940 H 0.76822 0.32096 0.06613 0.0
H941 H 0.78281 0.40086 0.1061 0.0
H942 H 0.82587 0.40204 0.13869 0.0
H943 H 0.94896 0.40125 0.06435 0.0
H944 H 0.92618 0.37192 0.09524 0.0
H945 H 0.91023 0.43559 0.14993 0.0
H946 H 0.93391 0.46516 0.11989 0.0
H947 H 0.86483 0.39414 0.11096 0.0
H948 H 0.94635 0.40751 0.18881 0.0
H949 H 0.99364 0.40872 0.20465 0.0
H950 H 0.97319 0.32895 0.16013 0.0
H951 H 0.92579 0.32733 0.14387 0.0
C952 C 0.80991 0.33567 0.21048 0.0
C953 C 0.81116 0.31152 0.21629 0.0
C954 C 0.82327 0.34675 0.18884 0.0
C955 C 0.83778 0.33371 0.17237 0.0
C956 C 0.83791 0.309 0.17705 0.0
C957 C 0.82489 0.29807 0.19903 0.0
C958 C 0.85686 0.34796 0.15553 0.0
C959 C 0.88397 0.34881 0.16408 0.0
C960 C 0.84976 0.36402 0.13545 0.0
C961 C 0.82165 0.36184 0.12128 0.0
C962 C 0.80491 0.33885 0.1011 0.0
C963 C 0.78068 0.33847 0.08237 0.0
C964 C 0.773 0.36095 0.08381 0.0
C965 C 0.78891 0.38354 0.10484 0.0
C966 C 0.81318 0.38406 0.12345 0.0
C967 C 0.94086 0.40889 0.08331 0.0
C968 C 0.94224 0.43501 0.0895 0.0
C969 C 0.92834 0.39234 0.10111 0.0
C970 C 0.91657 0.40178 0.12449 0.0
C971 C 0.91938 0.4282 0.1319 0.0
C972 C 0.93254 0.44488 0.11466 0.0
C973 C 0.89703 0.38357 0.13657 0.0
C974 C 0.87008 0.38187 0.12663 0.0
C975 C 0.9042 0.3665 0.15476 0.0
C976 C 0.93258 0.36734 0.16497 0.0
C977 C 0.95198 0.39027 0.18227 0.0
C978 C 0.97879 0.39101 0.19137 0.0
C979 C 0.98643 0.36893 0.18335 0.0
C980 C 0.96725 0.34603 0.16634 0.0
C981 C 0.94039 0.34517 0.15725 0.0
H982 H 0.0072 0.36956 0.19036 0.0
H983 H 0.75476 0.36094 0.06857 0.0
H984 H 0.68909 0.78551 0.1521 0.0
H985 H 0.67011 0.80998 0.11669 0.0
H986 H 0.67003 0.86502 0.19711 0.0
H987 H 0.68832 0.84035 0.2322 0.0
H988 H 0.61972 0.83838 0.1595 0.0
H989 H 0.70945 0.8827 0.14671 0.0
H990 H 0.75241 0.88604 0.13042 0.0
H991 H 0.7099 0.85028 0.03576 0.0
H992 H 0.66669 0.84636 0.05156 0.0
H993 H 0.57412 0.93536 0.11266 0.0
H994 H 0.6014 0.91024 0.13322 0.0
H995 H 0.59737 0.87197 0.03917 0.0
H996 H 0.57163 0.89898 0.01783 0.0
H997 H 0.64759 0.88406 0.07568 0.0
H998 H 0.55881 0.84021 0.08512 0.0
H999 H 0.51465 0.835 0.09896 0.0
H1000 H 0.55325 0.86563 0.19597 0.0
H1001 H 0.59763 0.87127 0.1827 0.0
C1002 C 0.68561 0.80323 0.16194 0.0
C1003 C 0.68967 0.81111 0.19457 0.0
C1004 C 0.67498 0.81722 0.14182 0.0
C1005 C 0.66861 0.8392 0.15436 0.0
C1006 C 0.67479 0.84807 0.18704 0.0
C1007 C 0.6851 0.83401 0.20702 0.0
C1008 C 0.6512 0.85029 0.13452 0.0
C1009 C 0.62588 0.84851 0.14124 0.0
C1010 C 0.65871 0.86214 0.10957 0.0
C1011 C 0.68478 0.86386 0.10046 0.0
C1012 C 0.70923 0.87518 0.12254 0.0
C1013 C 0.73365 0.87728 0.11335 0.0
C1014 C 0.73389 0.86827 0.08211 0.0
C1015 C 0.70971 0.85716 0.05998 0.0
C1016 C 0.68525 0.85499 0.06905 0.0
C1017 C 0.57954 0.92221 0.09606 0.0
C1018 C 0.57088 0.91957 0.06344 0.0
C1019 C 0.59479 0.90744 0.10799 0.0
C1020 C 0.60108 0.88895 0.08777 0.0
C1021 C 0.59273 0.88619 0.05517 0.0
C1022 C 0.57778 0.90143 0.04305 0.0
C1023 C 0.61647 0.87283 0.10131 0.0
C1024 C 0.64121 0.87345 0.09339 0.0
C1025 C 0.60829 0.85935 0.12482 0.0
C1026 C 0.58158 0.8563 0.13284 0.0
C1027 C 0.5579 0.84603 0.10936 0.0
C1028 C 0.53282 0.84294 0.11713 0.0
C1029 C 0.53115 0.85001 0.14831 0.0
C1030 C 0.55456 0.86016 0.17182 0.0
C1031 C 0.57968 0.86325 0.16419 0.0
H1032 H 0.51172 0.8476 0.15427 0.0
H1033 H 0.75281 0.86997 0.07504 0.0
H1034 H 0.21685 0.68288 0.19417 0.0
H1035 H 0.19791 0.65575 0.1427 0.0
H1036 H 0.16946 0.71611 0.11076 0.0
H1037 H 0.19013 0.74438 0.16236 0.0
H1038 H 0.13318 0.67417 0.13072 0.0
H1039 H 0.19497 0.68396 0.05935 0.0
H1040 H 0.23806 0.686 0.04383 0.0
H1041 H 0.23339 0.6115 0.06603 0.0
H1042 H 0.19043 0.60904 0.08183 0.0
H1043 H 0.02863 0.57411 0.03376 0.0
H1044 H 0.06692 0.61354 0.04918 0.0
H1045 H 0.11896 0.56905 0.07858 0.0
H1046 H 0.08055 0.52946 0.0625 0.0
H1047 H 0.14353 0.60708 0.04983 0.0
H1048 H 0.09916 0.59643 0.13149 0.0
H1049 H 0.06323 0.58812 0.16116 0.0
H1050 H 0.04523 0.65682 0.14248 0.0
H1051 H 0.08076 0.6653 0.11205 0.0
C1052 C 0.2078 0.69095 0.17578 0.0
C1053 C 0.20449 0.71549 0.18221 0.0
C1054 C 0.19739 0.67554 0.14612 0.0
C1055 C 0.18221 0.68394 0.12311 0.0
C1056 C 0.18143 0.70953 0.1283 0.0
C1057 C 0.19258 0.72534 0.15791 0.0
C1058 C 0.15946 0.66385 0.1021 0.0
C1059 C 0.135 0.66006 0.11191 0.0
C1060 C 0.16302 0.64439 0.0801 0.0
C1061 C 0.18934 0.64627 0.07154 0.0
C1062 C 0.20319 0.66808 0.06106 0.0
C1063 C 0.22756 0.66925 0.0521 0.0
C1064 C 0.2383 0.64877 0.05363 0.0
C1065 C 0.22489 0.6272 0.06449 0.0
C1066 C 0.20051 0.6259 0.07339 0.0
C1067 C 0.04843 0.57279 0.04254 0.0
C1068 C 0.05216 0.54917 0.04658 0.0
C1069 C 0.07013 0.59518 0.05153 0.0
C1070 C 0.09556 0.59397 0.06487 0.0
C1071 C 0.09943 0.57013 0.06796 0.0
C1072 C 0.07764 0.54772 0.05901 0.0
C1073 C 0.11743 0.61793 0.07816 0.0
C1074 C 0.14142 0.62192 0.06745 0.0
C1075 C 0.11453 0.63669 0.10163 0.0
C1076 C 0.09224 0.63118 0.11874 0.0
C1077 C 0.0872 0.60951 0.13311 0.0
C1078 C 0.06699 0.60483 0.15023 0.0
C1079 C 0.05183 0.62184 0.15352 0.0
C1080 C 0.05689 0.64358 0.13973 0.0
C1081 C 0.07704 0.64831 0.12249 0.0
H1082 H 0.03626 0.61825 0.16689 0.0
H1083 H 0.25714 0.64972 0.04666 0.0
H1084 H 0.31772 0.82911 0.75717 0.0
H1085 H 0.3388 0.86486 0.80225 0.0
H1086 H 0.27512 0.83451 0.84886 0.0
H1087 H 0.25219 0.80125 0.80223 0.0
H1088 H 0.31032 0.88844 0.87571 0.0
H1089 H 0.33201 0.79482 0.8583 0.0
H1090 H 0.34755 0.76505 0.82328 0.0
H1091 H 0.39491 0.82897 0.79154 0.0
H1092 H 0.38132 0.85916 0.82761 0.0
H1093 H 0.43142 0.95044 0.985 0.0
H1094 H 0.39057 0.91332 0.97214 0.0
H1095 H 0.40858 0.89146 0.88182 0.0
H1096 H 0.44992 0.927 0.89575 0.0
H1097 H 0.38402 0.85017 0.90085 0.0
H1098 H 0.374 0.93991 0.89999 0.0
H1099 H 0.37517 0.98193 0.93006 0.0
H1100 H 0.32242 0.94287 0.98401 0.0
H1101 H 0.32136 0.90058 0.95453 0.0
C1102 C 0.30717 0.83151 0.77591 0.0
C1103 C 0.28411 0.81223 0.77733 0.0
C1104 C 0.3194 0.85152 0.80187 0.0
C1105 C 0.30942 0.85066 0.82942 0.0
C1106 C 0.28346 0.83486 0.82801 0.0
C1107 C 0.27036 0.81594 0.80131 0.0
C1108 C 0.32829 0.85956 0.85996 0.0
C1109 C 0.3264 0.88005 0.88136 0.0
C1110 C 0.34859 0.84782 0.86778 0.0
C1111 C 0.3548 0.82913 0.84467 0.0
C1112 C 0.34541 0.80244 0.84351 0.0
C1113 C 0.35403 0.78552 0.82371 0.0
C1114 C 0.37154 0.79502 0.80471 0.0
C1115 C 0.38104 0.82155 0.80592 0.0
C1116 C 0.3731 0.83856 0.82619 0.0
C1117 C 0.42719 0.93677 0.96321 0.0
C1118 C 0.44374 0.94119 0.94147 0.0
C1119 C 0.40379 0.91581 0.95577 0.0
C1120 C 0.39647 0.89967 0.92607 0.0
C1121 C 0.41392 0.90343 0.90512 0.0
C1122 C 0.43737 0.92398 0.91279 0.0
C1123 C 0.36909 0.88197 0.91343 0.0
C1124 C 0.36734 0.85796 0.89604 0.0
C1125 C 0.34725 0.89207 0.90768 0.0
C1126 C 0.34777 0.91725 0.92534 0.0
C1127 C 0.36271 0.94036 0.91833 0.0
C1128 C 0.36341 0.96417 0.93529 0.0
C1129 C 0.3489 0.96505 0.95897 0.0
C1130 C 0.33371 0.94211 0.96576 0.0
C1131 C 0.33312 0.91823 0.94901 0.0
H1132 H 0.3494 0.9835 0.97201 0.0
H1133 H 0.37803 0.78184 0.78939 0.0
H1134 H 0.2247 0.34991 0.82665 0.0
H1135 H 0.20156 0.3716 0.8599 0.0
H1136 H 0.13729 0.30029 0.84575 0.0
H1137 H 0.16052 0.27835 0.81243 0.0
H1138 H 0.11867 0.34059 0.83448 0.0
H1139 H 0.17758 0.32402 0.91725 0.0
H1140 H 0.22051 0.32274 0.94763 0.0
H1141 H 0.25168 0.40541 0.96298 0.0
H1142 H 0.20896 0.40718 0.9324 0.0
H1143 H 0.04806 0.39043 0.93548 0.0
H1144 H 0.07455 0.36423 0.91525 0.0
H1145 H 0.14242 0.43277 0.9302 0.0
H1146 H 0.11613 0.45897 0.9509 0.0
H1147 H 0.15927 0.39325 0.94172 0.0
H1148 H 0.10004 0.40892 0.85847 0.0
H1149 H 0.05669 0.41013 0.82911 0.0
H1150 H 0.02524 0.32757 0.81553 0.0
H1151 H 0.06832 0.3259 0.84528 0.0
C1152 C 0.20582 0.33873 0.83096 0.0
C1153 C 0.19443 0.31242 0.81694 0.0
C1154 C 0.19266 0.35114 0.8501 0.0
C1155 C 0.16774 0.33756 0.85548 0.0
C1156 C 0.15655 0.31112 0.84201 0.0
C1157 C 0.1699 0.29858 0.82314 0.0
C1158 C 0.15272 0.35149 0.87339 0.0
C1159 C 0.12722 0.3515 0.85828 0.0
C1160 C 0.16431 0.36654 0.90399 0.0
C1161 C 0.19018 0.36569 0.92216 0.0
C1162 C 0.19368 0.34191 0.92682 0.0
C1163 C 0.21795 0.34111 0.94416 0.0
C1164 C 0.23885 0.36398 0.95712 0.0
C1165 C 0.23548 0.38771 0.95287 0.0
C1166 C 0.21122 0.38863 0.93557 0.0
C1167 C 0.06878 0.39981 0.93492 0.0
C1168 C 0.07994 0.42676 0.94439 0.0
C1169 C 0.08386 0.38486 0.92326 0.0
C1170 C 0.11023 0.39663 0.92035 0.0
C1171 C 0.12205 0.42328 0.93196 0.0
C1172 C 0.10704 0.43823 0.94391 0.0
C1173 C 0.12477 0.38146 0.90337 0.0
C1174 C 0.15043 0.38176 0.91826 0.0
C1175 C 0.11321 0.36647 0.87269 0.0
C1176 C 0.08734 0.36731 0.85442 0.0
C1177 C 0.08383 0.39103 0.84943 0.0
C1178 C 0.05931 0.3918 0.8327 0.0
C1179 C 0.0382 0.36895 0.82055 0.0
C1180 C 0.04161 0.34526 0.82501 0.0
C1181 C 0.06608 0.34439 0.8418 0.0
H1182 H 0.01923 0.36959 0.80761 0.0
H1183 H 0.25764 0.36331 0.97052 0.0
H1184 H 0.66815 0.19632 0.77982 0.0
H1185 H 0.64952 0.15881 0.8018 0.0
H1186 H 0.71246 0.18982 0.88551 0.0
H1187 H 0.73174 0.22758 0.86298 0.0
H1188 H 0.68658 0.12733 0.85714 0.0
H1189 H 0.66861 0.2078 0.89765 0.0
H1190 H 0.65741 0.24748 0.88958 0.0
H1191 H 0.58416 0.20202 0.82466 0.0
H1192 H 0.59525 0.16211 0.83181 0.0
H1193 H 0.60059 0.07124 0.95792 0.0
H1194 H 0.63475 0.09938 0.93633 0.0
H1195 H 0.57583 0.08911 0.85154 0.0
H1196 H 0.54175 0.06064 0.87255 0.0
H1197 H 0.60392 0.14174 0.88475 0.0
H1198 H 0.61844 0.06318 0.84187 0.0
H1199 H 0.62732 0.02149 0.8427 0.0
H1200 H 0.70367 0.06026 0.90551 0.0
H1201 H 0.69506 0.10221 0.90542 0.0
C1202 C 0.67832 0.19484 0.80264 0.0
C1203 C 0.70076 0.21486 0.82031 0.0
C1204 C 0.66793 0.17333 0.81491 0.0
C1205 C 0.67958 0.17187 0.84524 0.0
C1206 C 0.70344 0.19075 0.86194 0.0
C1207 C 0.71419 0.21228 0.84932 0.0
C1208 C 0.66337 0.1538 0.86111 0.0
C1209 C 0.66889 0.13062 0.86406 0.0
C1210 C 0.63984 0.15799 0.8688 0.0
C1211 C 0.63286 0.18199 0.86512 0.0
C1212 C 0.65023 0.20628 0.88147 0.0
C1213 C 0.64389 0.22881 0.87707 0.0
C1214 C 0.62011 0.22727 0.85659 0.0
C1215 C 0.60259 0.20319 0.84051 0.0
C1216 C 0.60888 0.18061 0.84474 0.0
C1217 C 0.59504 0.07493 0.93462 0.0
C1218 C 0.56859 0.06409 0.91695 0.0
C1219 C 0.61453 0.09071 0.92231 0.0
C1220 C 0.60764 0.09605 0.89247 0.0
C1221 C 0.58137 0.08498 0.87461 0.0
C1222 C 0.562 0.06886 0.88665 0.0
C1223 C 0.62713 0.11521 0.88114 0.0
C1224 C 0.622 0.1386 0.87876 0.0
C1225 C 0.65072 0.11098 0.87371 0.0
C1226 C 0.65593 0.08581 0.87401 0.0
C1227 C 0.63698 0.0628 0.85618 0.0
C1228 C 0.642 0.03912 0.85642 0.0
C1229 C 0.666 0.03821 0.87424 0.0
C1230 C 0.68506 0.06099 0.89178 0.0
C1231 C 0.68013 0.08473 0.89162 0.0
H1232 H 0.66986 0.01987 0.87439 0.0
H1233 H 0.61523 0.24473 0.85323 0.0
H1234 H 0.84689 0.71441 0.80574 0.0
H1235 H 0.87736 0.69761 0.8391 0.0
H1236 H 0.8095 0.64723 0.86448 0.0
H1237 H 0.77898 0.66337 0.83059 0.0
H1238 H 0.85595 0.6735 0.91597 0.0
H1239 H 0.83042 0.62162 0.81148 0.0
H1240 H 0.82498 0.61371 0.75393 0.0
H1241 H 0.91018 0.646 0.76419 0.0
H1242 H 0.91606 0.65461 0.82188 0.0
H1243 H 0.90539 0.57284 0.96408 0.0
H1244 H 0.87994 0.59938 0.94119 0.0
H1245 H 0.94869 0.63907 0.90743 0.0
H1246 H 0.97386 0.61227 0.92923 0.0
H1247 H 0.9038 0.62097 0.86123 0.0
H1248 H 0.92936 0.66919 0.96697 0.0
H1249 H 0.93366 0.67559 0.02436 0.0
H1250 H 0.84771 0.64903 0.01146 0.0
H1251 H 0.84296 0.64195 0.95422 0.0
C1252 C 0.83857 0.70009 0.8189 0.0
C1253 C 0.81065 0.69009 0.81561 0.0
C1254 C 0.85594 0.69047 0.83779 0.0
C1255 C 0.84558 0.67114 0.85406 0.0
C1256 C 0.81781 0.66217 0.8521 0.0
C1257 C 0.80044 0.67133 0.8327 0.0
C1258 C 0.86342 0.65894 0.87143 0.0
C1259 C 0.86635 0.6619 0.90409 0.0
C1260 C 0.87716 0.64413 0.85576 0.0
C1261 C 0.87364 0.63916 0.82104 0.0
C1262 C 0.84796 0.62738 0.80149 0.0
C1263 C 0.8448 0.62269 0.76883 0.0
C1264 C 0.86721 0.62945 0.7554 0.0
C1265 C 0.89282 0.64086 0.77463 0.0
C1266 C 0.89608 0.64566 0.80731 0.0
C1267 C 0.91514 0.5874 0.95204 0.0
C1268 C 0.94164 0.59038 0.94847 0.0
C1269 C 0.90065 0.60265 0.93915 0.0
C1270 C 0.91246 0.62118 0.92259 0.0
C1271 C 0.9392 0.62486 0.92007 0.0
C1272 C 0.95366 0.60969 0.93291 0.0
C1273 C 0.89646 0.6355 0.90598 0.0
C1274 C 0.89374 0.63284 0.87331 0.0
C1275 C 0.88287 0.65048 0.92165 0.0
C1276 C 0.8858 0.65481 0.95624 0.0
C1277 C 0.91139 0.66448 0.9764 0.0
C1278 C 0.91393 0.66827 0.00896 0.0
C1279 C 0.89101 0.6627 0.02164 0.0
C1280 C 0.86552 0.65336 0.00178 0.0
C1281 C 0.86288 0.64943 0.96925 0.0
H1282 H 0.89305 0.66561 0.04684 0.0
H1283 H 0.86472 0.62575 0.73011 0.0
H1284 H 0.19741 0.34559 0.21012 0.0
H1285 H 0.16563 0.35926 0.17528 0.0
H1286 H 0.13146 0.28141 0.12161 0.0
H1287 H 0.16328 0.26726 0.15704 0.0
H1288 H 0.14451 0.32476 0.08588 0.0
H1289 H 0.09428 0.29686 0.16263 0.0
H1290 H 0.08897 0.29407 0.21671 0.0
H1291 H 0.10678 0.37648 0.24026 0.0
H1292 H 0.11254 0.3798 0.18642 0.0
H1293 H 0.04467 0.37788 0.0085 0.0
H1294 H 0.06749 0.34891 0.0306 0.0
H1295 H 0.1003 0.40557 0.11693 0.0
H1296 H 0.07663 0.43342 0.09616 0.0
H1297 H 0.08001 0.36183 0.13043 0.0
H1298 H 0.13728 0.39163 0.05897 0.0
H1299 H 0.151 0.39679 0.00878 0.0
H1300 H 0.1255 0.3144 0.97776 0.0
H1301 H 0.11122 0.30874 0.02746 0.0
C1302 C 0.18328 0.33129 0.19086 0.0
C1303 C 0.1829 0.30531 0.1863 0.0
C1304 C 0.16505 0.33916 0.17103 0.0
C1305 C 0.14617 0.32133 0.14601 0.0
C1306 C 0.14592 0.29542 0.14087 0.0
C1307 C 0.16401 0.28738 0.16113 0.0
C1308 C 0.12678 0.3303 0.12577 0.0
C1309 C 0.12985 0.33234 0.09516 0.0
C1310 C 0.10815 0.34054 0.13832 0.0
C1311 C 0.10394 0.33857 0.17049 0.0
C1312 C 0.09717 0.3144 0.17937 0.0
C1313 C 0.09407 0.31272 0.20998 0.0
C1314 C 0.09759 0.33509 0.23192 0.0
C1315 C 0.10407 0.35917 0.22324 0.0
C1316 C 0.10718 0.36095 0.19265 0.0
C1317 C 0.05674 0.38408 0.03219 0.0
C1318 C 0.05887 0.40815 0.05038 0.0
C1319 C 0.06999 0.36761 0.0447 0.0
C1320 C 0.08568 0.37502 0.0755 0.0
C1321 C 0.08827 0.39927 0.09318 0.0
C1322 C 0.07494 0.41545 0.08097 0.0
C1323 C 0.0985 0.35755 0.09067 0.0
C1324 C 0.09409 0.35377 0.12052 0.0
C1325 C 0.11622 0.34614 0.07752 0.0
C1326 C 0.1228 0.34977 0.04675 0.0
C1327 C 0.13412 0.37463 0.04121 0.0
C1328 C 0.14212 0.37764 0.01291 0.0
C1329 C 0.13908 0.35591 0.99016 0.0
C1330 C 0.12776 0.33118 0.99541 0.0
C1331 C 0.11968 0.32807 0.02358 0.0
H1332 H 0.14569 0.3581 0.96857 0.0
H1333 H 0.09527 0.33377 0.25564 0.0
H1334 H 0.24577 0.69079 0.86099 0.0
H1335 H 0.20933 0.66479 0.8815 0.0
H1336 H 0.15092 0.68109 0.81327 0.0
H1337 H 0.18747 0.70816 0.7938 0.0
H1338 H 0.13999 0.67948 0.87736 0.0
H1339 H 0.13459 0.60132 0.78697 0.0
H1340 H 0.15899 0.58387 0.75056 0.0
H1341 H 0.22859 0.60337 0.82527 0.0
H1342 H 0.20451 0.62115 0.86204 0.0
H1343 H 0.03246 0.56313 0.87791 0.0
H1344 H 0.06284 0.5948 0.85582 0.0
H1345 H 0.13048 0.59242 0.92364 0.0
H1346 H 0.10033 0.56137 0.9463 0.0
H1347 H 0.13194 0.58613 0.85296 0.0
H1348 H 0.11417 0.63976 0.9427 0.0
H1349 H 0.08151 0.6532 0.96972 0.0
H1350 H 0.04889 0.67694 0.88711 0.0
H1351 H 0.0812 0.66334 0.85951 0.0
C1352 C 0.22517 0.68961 0.85141 0.0
C1353 C 0.21906 0.70147 0.82633 0.0
C1354 C 0.20446 0.67443 0.86257 0.0
C1355 C 0.17763 0.67035 0.84793 0.0
C1356 C 0.17158 0.68382 0.82444 0.0
C1357 C 0.19233 0.69938 0.81361 0.0
C1358 C 0.15609 0.65089 0.85602 0.0
C1359 C 0.13818 0.65908 0.87202 0.0
C1360 C 0.15325 0.62425 0.84807 0.0
C1361 C 0.16832 0.61399 0.82665 0.0
C1362 C 0.15539 0.60265 0.7953 0.0
C1363 C 0.16903 0.59242 0.77476 0.0
C1364 C 0.19549 0.59288 0.78556 0.0
C1365 C 0.20823 0.60336 0.81698 0.0
C1366 C 0.19464 0.61369 0.83761 0.0
C1367 C 0.05384 0.56931 0.8879 0.0
C1368 C 0.06423 0.55995 0.91368 0.0
C1369 C 0.07102 0.58734 0.87539 0.0
C1370 C 0.09865 0.59571 0.8883 0.0
C1371 C 0.1091 0.586 0.91356 0.0
C1372 C 0.09193 0.56841 0.92645 0.0
C1373 C 0.11702 0.61489 0.87588 0.0
C1374 C 0.13393 0.60657 0.85851 0.0
C1375 C 0.11851 0.64123 0.88203 0.0
C1376 C 0.09994 0.6504 0.89903 0.0
C1377 C 0.09997 0.64778 0.9303 0.0
C1378 C 0.08153 0.65542 0.94571 0.0
C1379 C 0.0631 0.66587 0.93012 0.0
C1380 C 0.06317 0.66884 0.89915 0.0
C1381 C 0.08157 0.66121 0.88364 0.0
H1382 H 0.04878 0.67169 0.94205 0.0
H1383 H 0.20603 0.58485 0.76969 0.0
H1384 H 0.29681 0.16568 0.77004 0.0
H1385 H 0.31879 0.13996 0.79917 0.0
H1386 H 0.32536 0.19131 0.88602 0.0
H1387 H 0.30483 0.21807 0.85654 0.0
H1388 H 0.36966 0.1839 0.8882 0.0
H1389 H 0.28067 0.12335 0.86023 0.0
H1390 H 0.23772 0.09505 0.82637 0.0
H1391 H 0.28007 0.05344 0.77487 0.0
H1392 H 0.32328 0.08162 0.80814 0.0
H1393 H 0.4274 0.10198 0.97345 0.0
H1394 H 0.39811 0.12681 0.95405 0.0
H1395 H 0.3888 0.0866 0.85926 0.0
H1396 H 0.41707 0.06146 0.87859 0.0
H1397 H 0.34262 0.08827 0.86777 0.0
H1398 H 0.43175 0.15201 0.89319 0.0
H1399 H 0.47437 0.17966 0.92833 0.0
H1400 H 0.43077 0.21456 0.9859 0.0
H1401 H 0.38787 0.18693 0.9513 0.0
C1402 C 0.30249 0.17127 0.79539 0.0
C1403 C 0.29903 0.19396 0.81097 0.0
C1404 C 0.31496 0.15637 0.81216 0.0
C1405 C 0.32352 0.16329 0.84506 0.0
C1406 C 0.31907 0.18544 0.86071 0.0
C1407 C 0.30718 0.20071 0.84386 0.0
C1408 C 0.33907 0.14881 0.86274 0.0
C1409 C 0.36337 0.16296 0.88411 0.0
C1410 C 0.33134 0.12141 0.8572 0.0
C1411 C 0.3053 0.10481 0.8366 0.0
C1412 C 0.28086 0.10834 0.8415 0.0
C1413 C 0.25645 0.09226 0.82244 0.0
C1414 C 0.25618 0.07251 0.79845 0.0
C1415 C 0.28031 0.06877 0.79345 0.0
C1416 C 0.30476 0.08477 0.81243 0.0
C1417 C 0.41904 0.09855 0.9485 0.0
C1418 C 0.42428 0.07961 0.92755 0.0
C1419 C 0.40242 0.11281 0.9374 0.0
C1420 C 0.3913 0.10876 0.90507 0.0
C1421 C 0.39687 0.09002 0.88429 0.0
C1422 C 0.41303 0.07559 0.89537 0.0
C1423 C 0.37338 0.12336 0.89234 0.0
C1424 C 0.34863 0.10921 0.87201 0.0
C1425 C 0.38065 0.15069 0.89889 0.0
C1426 C 0.40654 0.16713 0.91983 0.0
C1427 C 0.43123 0.16541 0.91349 0.0
C1428 C 0.45545 0.18113 0.93328 0.0
C1429 C 0.45527 0.19879 0.95939 0.0
C1430 C 0.43088 0.20083 0.96572 0.0
C1431 C 0.40661 0.18515 0.94601 0.0
H1432 H 0.47404 0.21094 0.97466 0.0
H1433 H 0.23726 0.06007 0.78377 0.0
H1434 H 0.76862 0.30486 0.79999 0.0
H1435 H 0.78655 0.32945 0.85278 0.0
H1436 H 0.8488 0.29253 0.86265 0.0
H1437 H 0.82744 0.26403 0.81143 0.0
H1438 H 0.845 0.31389 0.91927 0.0
H1439 H 0.85529 0.33999 0.82274 0.0
H1440 H 0.84022 0.34527 0.76871 0.0
H1441 H 0.79724 0.39561 0.80246 0.0
H1442 H 0.8117 0.39023 0.85671 0.0
H1443 H 0.96385 0.4168 0.9388 0.0
H1444 H 0.92478 0.37843 0.93055 0.0
H1445 H 0.87628 0.427 0.95411 0.0
H1446 H 0.9154 0.46539 0.9618 0.0
H1447 H 0.86528 0.40063 0.89139 0.0
H1448 H 0.87037 0.37525 0.99475 0.0
H1449 H 0.89567 0.36772 0.04269 0.0
H1450 H 0.92675 0.31675 0.98707 0.0
H1451 H 0.90053 0.32316 0.93869 0.0
C1452 C 0.78463 0.30034 0.81423 0.0
C1453 C 0.79615 0.28214 0.80183 0.0
C1454 C 0.79514 0.31467 0.84437 0.0
C1455 C 0.81936 0.31327 0.86105 0.0
C1456 C 0.83005 0.29387 0.84994 0.0
C1457 C 0.81822 0.27806 0.82045 0.0
C1458 C 0.83673 0.33601 0.8843 0.0
C1459 C 0.84926 0.33294 0.91345 0.0
C1460 C 0.84272 0.36071 0.87618 0.0
C1461 C 0.8343 0.36447 0.84371 0.0
C1462 C 0.84251 0.35208 0.81861 0.0
C1463 C 0.83408 0.35507 0.78795 0.0
C1464 C 0.81773 0.37071 0.78215 0.0
C1465 C 0.80985 0.38345 0.807 0.0
C1466 C 0.81815 0.38043 0.83771 0.0
C1467 C 0.94491 0.41904 0.94284 0.0
C1468 C 0.94206 0.44358 0.95054 0.0
C1469 C 0.92287 0.39724 0.93892 0.0
C1470 C 0.89787 0.39998 0.94237 0.0
C1471 C 0.8956 0.4246 0.95212 0.0
C1472 C 0.9177 0.44638 0.95614 0.0
C1473 C 0.8737 0.37869 0.92652 0.0
C1474 C 0.85999 0.38191 0.89812 0.0
C1475 C 0.86834 0.35404 0.93439 0.0
C1476 C 0.8836 0.34973 0.96327 0.0
C1477 C 0.88259 0.36243 0.99281 0.0
C1478 C 0.89709 0.35833 0.02006 0.0
C1479 C 0.91316 0.34203 0.01804 0.0
C1480 C 0.91434 0.3294 0.98866 0.0
C1481 C 0.89943 0.33303 0.96133 0.0
H1482 H 0.92459 0.33911 0.03921 0.0
H1483 H 0.81123 0.37302 0.7584 0.0
H1484 H 0.64896 0.78489 0.81078 0.0
H1485 H 0.63308 0.81506 0.84261 0.0
H1486 H 0.71131 0.87177 0.86255 0.0
H1487 H 0.72761 0.84142 0.83029 0.0
H1488 H 0.6848 0.8677 0.916 0.0
H1489 H 0.66816 0.88072 0.81038 0.0
H1490 H 0.65279 0.86737 0.75285 0.0
H1491 H 0.57241 0.83256 0.7632 0.0
H1492 H 0.58737 0.84534 0.82083 0.0
H1493 H 0.62044 0.96572 0.96145 0.0
H1494 H 0.64924 0.94106 0.94314 0.0
H1495 H 0.57906 0.87563 0.90173 0.0
H1496 H 0.55041 0.90011 0.91982 0.0
H1497 H 0.60822 0.89051 0.85926 0.0
H1498 H 0.62466 0.87333 0.96356 0.0
H1499 H 0.63941 0.88305 0.02105 0.0
H1500 H 0.71909 0.92404 0.01393 0.0
H1501 H 0.70471 0.91475 0.95613 0.0
C1502 C 0.663 0.80365 0.82209 0.0
C1503 C 0.68954 0.8108 0.8177 0.0
C1504 C 0.65383 0.8209 0.84031 0.0
C1505 C 0.67091 0.84574 0.85461 0.0
C1506 C 0.69781 0.85267 0.85163 0.0
C1507 C 0.70706 0.83534 0.83317 0.0
C1508 C 0.65973 0.86455 0.87096 0.0
C1509 C 0.66845 0.87323 0.90361 0.0
C1510 C 0.63814 0.87137 0.85473 0.0
C1511 C 0.62896 0.86384 0.82 0.0
C1512 C 0.64724 0.87005 0.80042 0.0
C1513 C 0.6386 0.86261 0.76777 0.0
C1514 C 0.61165 0.84908 0.75438 0.0
C1515 C 0.59328 0.84303 0.77361 0.0
C1516 C 0.60183 0.8504 0.80627 0.0
C1517 C 0.61131 0.94582 0.94923 0.0
C1518 C 0.58318 0.93489 0.94171 0.0
C1519 C 0.62776 0.93177 0.93873 0.0
C1520 C 0.61628 0.90658 0.92077 0.0
C1521 C 0.58835 0.89513 0.91525 0.0
C1522 C 0.57199 0.90911 0.92561 0.0
C1523 C 0.63254 0.89298 0.90462 0.0
C1524 C 0.62485 0.88541 0.87177 0.0
C1525 C 0.65496 0.88723 0.92076 0.0
C1526 C 0.66348 0.89369 0.95551 0.0
C1527 C 0.64523 0.88475 0.97422 0.0
C1528 C 0.65357 0.8901 0.00691 0.0
C1529 C 0.68015 0.90429 0.02123 0.0
C1530 C 0.69848 0.91313 0.00283 0.0
C1531 C 0.69024 0.90782 0.97008 0.0
H1532 H 0.68656 0.90832 0.04656 0.0
H1533 H 0.605 0.84333 0.72911 0.0
H1534 H 0.81856 0.70944 0.16806 0.0
H1535 H 0.8428 0.68861 0.13531 0.0
H1536 H 0.80096 0.61453 0.15304 0.0
H1537 H 0.77722 0.63522 0.18632 0.0
H1538 H 0.85427 0.62278 0.16421 0.0
H1539 H 0.78677 0.62785 0.07238 0.0
H1540 H 0.76322 0.65363 0.04379 0.0
H1541 H 0.83896 0.70885 0.04568 0.0
H1542 H 0.86282 0.68346 0.0745 0.0
H1543 H 0.87855 0.52886 0.06238 0.0
H1544 H 0.85578 0.55703 0.08563 0.0
H1545 H 0.90544 0.62152 0.05569 0.0
H1546 H 0.92758 0.59298 0.03049 0.0
H1547 H 0.85428 0.62423 0.05193 0.0
H1548 H 0.92186 0.61373 0.1296 0.0
H1549 H 0.94778 0.59078 0.15987 0.0
H1550 H 0.87739 0.55191 0.1906 0.0
H1551 H 0.85092 0.57431 0.1601 0.0
C1552 C 0.81424 0.68866 0.1646 0.0
C1553 C 0.79606 0.67401 0.17996 0.0
C1554 C 0.82803 0.67675 0.14572 0.0
C1555 C 0.82363 0.64996 0.14157 0.0
C1556 C 0.80479 0.63525 0.15602 0.0
C1557 C 0.79119 0.64712 0.17501 0.0
C1558 C 0.83975 0.6372 0.12406 0.0
C1559 C 0.8541 0.62294 0.13958 0.0
C1560 C 0.84079 0.63855 0.09248 0.0
C1561 C 0.82651 0.6537 0.0752 0.0
C1562 C 0.79833 0.64547 0.0666 0.0
C1563 C 0.78494 0.66001 0.05041 0.0
C1564 C 0.79959 0.68282 0.04283 0.0
C1565 C 0.82764 0.69115 0.05147 0.0
C1566 C 0.8411 0.67667 0.06765 0.0
C1567 C 0.88422 0.5488 0.05969 0.0
C1568 C 0.90523 0.55855 0.04467 0.0
C1569 C 0.87136 0.56503 0.07351 0.0
C1570 C 0.87939 0.59154 0.07319 0.0
C1571 C 0.89912 0.60117 0.05656 0.0
C1572 C 0.91192 0.58483 0.0424 0.0
C1573 C 0.86799 0.60904 0.09175 0.0
C1574 C 0.85475 0.62433 0.07661 0.0
C1575 C 0.86853 0.60919 0.12404 0.0
C1576 C 0.88434 0.59553 0.1423 0.0
C1577 C 0.91184 0.60011 0.14257 0.0
C1578 C 0.92664 0.58723 0.15982 0.0
C1579 C 0.91422 0.56985 0.17709 0.0
C1580 C 0.88698 0.56535 0.17719 0.0
C1581 C 0.87207 0.57815 0.15993 0.0
H1582 H 0.92572 0.55991 0.19044 0.0
H1583 H 0.78919 0.69406 0.03032 0.0
H1584 H 0.33195 0.75923 0.15752 0.0
H1585 H 0.35301 0.79703 0.13711 0.0
H1586 H 0.30085 0.83678 0.17269 0.0
H1587 H 0.27887 0.79842 0.19217 0.0
H1588 H 0.31213 0.84518 0.11145 0.0
H1589 H 0.36793 0.86474 0.22116 0.0
H1590 H 0.39034 0.85116 0.26669 0.0
H1591 H 0.42696 0.8097 0.2063 0.0
H1592 H 0.40569 0.82399 0.16073 0.0
H1593 H 0.42019 0.95983 0.10007 0.0
H1594 H 0.38863 0.93257 0.12561 0.0
H1595 H 0.40798 0.86567 0.08439 0.0
H1596 H 0.43866 0.89264 0.05773 0.0
H1597 H 0.41016 0.87989 0.15753 0.0
H1598 H 0.35784 0.86423 0.04927 0.0
H1599 H 0.33814 0.88002 0.00424 0.0
H1600 H 0.29354 0.91388 0.06144 0.0
H1601 H 0.3135 0.89875 0.10705 0.0
C1602 C 0.32474 0.77589 0.16052 0.0
C1603 C 0.30425 0.7763 0.17672 0.0
C1604 C 0.33676 0.7974 0.14903 0.0
C1605 C 0.32892 0.81976 0.1544 0.0
C1606 C 0.30723 0.81967 0.16872 0.0
C1607 C 0.29476 0.79785 0.17971 0.0
C1608 C 0.34486 0.84343 0.14657 0.0
C1609 C 0.33341 0.8533 0.122 0.0
C1610 C 0.3725 0.85395 0.1605 0.0
C1611 C 0.38511 0.8452 0.18767 0.0
C1612 C 0.38073 0.85268 0.21768 0.0
C1613 C 0.3933 0.84496 0.24347 0.0
C1614 C 0.4098 0.82934 0.23934 0.0
C1615 C 0.41413 0.82174 0.20947 0.0
C1616 C 0.40206 0.82985 0.18373 0.0
C1617 C 0.41761 0.93928 0.0966 0.0
C1618 C 0.43156 0.92804 0.07717 0.0
C1619 C 0.39966 0.92388 0.11101 0.0
C1620 C 0.39617 0.89735 0.10656 0.0
C1621 C 0.41056 0.88621 0.08773 0.0
C1622 C 0.42789 0.90146 0.07259 0.0
C1623 C 0.37767 0.88088 0.12166 0.0
C1624 C 0.38869 0.8725 0.14772 0.0
C1625 C 0.34972 0.87195 0.10913 0.0
C1626 C 0.33745 0.8807 0.08165 0.0
C1627 C 0.34409 0.87532 0.05235 0.0
C1628 C 0.33284 0.88409 0.0267 0.0
C1629 C 0.31465 0.898 0.03 0.0
C1630 C 0.30768 0.90315 0.05895 0.0
C1631 C 0.31896 0.89449 0.0847 0.0
H1632 H 0.30584 0.90466 0.0101 0.0
H1633 H 0.41933 0.82323 0.2593 0.0
H1634 H 0.69481 0.22663 0.18403 0.0
H1635 H 0.65639 0.18875 0.1626 0.0
H1636 H 0.70719 0.13988 0.17632 0.0
H1637 H 0.74646 0.17845 0.19564 0.0
H1638 H 0.68529 0.13054 0.12008 0.0
H1639 H 0.63752 0.12591 0.20769 0.0
H1640 H 0.61577 0.13966 0.24981 0.0
H1641 H 0.57935 0.1821 0.19135 0.0
H1642 H 0.59929 0.16735 0.14816 0.0
H1643 H 0.57129 0.02159 0.05467 0.0
H1644 H 0.61243 0.05566 0.08102 0.0
H1645 H 0.57374 0.1131 0.06104 0.0
H1646 H 0.53207 0.07852 0.03473 0.0
H1647 H 0.58925 0.11438 0.12348 0.0
H1648 H 0.6319 0.11323 0.03465 0.0
H1649 H 0.64723 0.09318 0.99036 0.0
H1650 H 0.69266 0.05973 0.05283 0.0
H1651 H 0.67781 0.07978 0.09759 0.0
C1652 C 0.6978 0.20781 0.18227 0.0
C1653 C 0.72357 0.20528 0.19023 0.0
C1654 C 0.6756 0.18605 0.17109 0.0
C1655 C 0.67872 0.16134 0.16813 0.0
C1656 C 0.70432 0.15879 0.17835 0.0
C1657 C 0.72673 0.18069 0.18886 0.0
C1658 C 0.65728 0.13953 0.14709 0.0
C1659 C 0.66435 0.12655 0.12149 0.0
C1660 C 0.62982 0.13486 0.14798 0.0
C1661 C 0.62044 0.14606 0.17499 0.0
C1662 C 0.62524 0.13853 0.20401 0.0
C1663 C 0.61302 0.14624 0.22793 0.0
C1664 C 0.59677 0.16217 0.22354 0.0
C1665 C 0.59219 0.17001 0.1949 0.0
C1666 C 0.60367 0.16175 0.17057 0.0
C1667 C 0.57196 0.04149 0.05489 0.0
C1668 C 0.54887 0.04779 0.04321 0.0
C1669 C 0.59548 0.06092 0.0697 0.0
C1670 C 0.59598 0.0868 0.073 0.0
C1671 C 0.57357 0.09313 0.05859 0.0
C1672 C 0.54994 0.07355 0.0436 0.0
C1673 C 0.61752 0.10625 0.09667 0.0
C1674 C 0.61032 0.11841 0.1226 0.0
C1675 C 0.64482 0.11003 0.09626 0.0
C1676 C 0.65355 0.09779 0.06937 0.0
C1677 C 0.645 0.10144 0.03889 0.0
C1678 C 0.65366 0.09014 0.01372 0.0
C1679 C 0.67074 0.07505 0.01871 0.0
C1680 C 0.67938 0.07139 0.04897 0.0
C1681 C 0.67096 0.0828 0.07427 0.0
H1682 H 0.67735 0.06627 -0.00085 0.0
H1683 H 0.58751 0.16819 0.24221 0.0
H1684 H 0.72488 0.67902 0.79429 0.0
H1685 H 0.69593 0.6501 0.81966 0.0
H1686 H 0.63106 0.68017 0.78858 0.0
H1687 H 0.66066 0.71017 0.76377 0.0
H1688 H 0.63355 0.67752 0.84681 0.0
H1689 H 0.63115 0.61668 0.75737 0.0
H1690 H 0.64865 0.59363 0.7176 0.0
H1691 H 0.69249 0.56659 0.78948 0.0
H1692 H 0.67552 0.58973 0.82975 0.0
H1693 H 0.5374 0.57018 0.88409 0.0
H1694 H 0.56336 0.59788 0.85401 0.0
H1695 H 0.637 0.60003 0.91471 0.0
H1696 H 0.6109 0.57296 0.94584 0.0
H1697 H 0.62707 0.58488 0.83927 0.0
H1698 H 0.62987 0.65006 0.92862 0.0
H1699 H 0.60818 0.67093 0.96549 0.0
H1700 H 0.55834 0.68696 0.88842 0.0
H1701 H 0.57954 0.66587 0.85105 0.0
C1702 C 0.70433 0.67921 0.79217 0.0
C1703 C 0.69508 0.69681 0.77667 0.0
C1704 C 0.68767 0.66251 0.80673 0.0
C1705 C 0.66106 0.66249 0.80566 0.0
C1706 C 0.6515 0.67973 0.7897 0.0
C1707 C 0.66839 0.69682 0.77545 0.0
C1708 C 0.64412 0.64573 0.82314 0.0
C1709 C 0.63187 0.65718 0.84469 0.0
C1710 C 0.64199 0.61915 0.82081 0.0
C1711 C 0.65225 0.60517 0.79664 0.0
C1712 C 0.64469 0.60599 0.76474 0.0
C1713 C 0.65448 0.59287 0.74209 0.0
C1714 C 0.67173 0.57872 0.75102 0.0
C1715 C 0.67915 0.57758 0.7826 0.0
C1716 C 0.66942 0.59066 0.80535 0.0
C1717 C 0.55914 0.57672 0.89114 0.0
C1718 C 0.57223 0.56954 0.91722 0.0
C1719 C 0.57388 0.59249 0.87396 0.0
C1720 C 0.60201 0.60087 0.88213 0.0
C1721 C 0.61525 0.5937 0.90814 0.0
C1722 C 0.60041 0.57843 0.92594 0.0
C1723 C 0.61734 0.61696 0.86309 0.0
C1724 C 0.62896 0.60525 0.84116 0.0
C1725 C 0.61849 0.6431 0.86461 0.0
C1726 C 0.60607 0.65616 0.88705 0.0
C1727 C 0.61413 0.65784 0.91953 0.0
C1728 C 0.60197 0.66976 0.94052 0.0
C1729 C 0.58184 0.6802 0.9293 0.0
C1730 C 0.57391 0.67884 0.89707 0.0
C1731 C 0.58602 0.66695 0.87598 0.0
H1732 H 0.57242 0.68939 0.94558 0.0
H1733 H 0.67931 0.56859 0.73345 0.0
H1734 H 0.29489 0.66432 0.78851 0.0
H1735 H 0.31451 0.63454 0.81395 0.0
H1736 H 0.36535 0.69864 0.88665 0.0
H1737 H 0.34598 0.72811 0.86172 0.0
H1738 H 0.39276 0.66883 0.86028 0.0
H1739 H 0.31245 0.6588 0.90118 0.0
H1740 H 0.26501 0.64626 0.90546 0.0
H1741 H 0.25528 0.56752 0.86484 0.0
H1742 H 0.30249 0.57964 0.85959 0.0
H1743 H 0.45392 0.61378 0.97271 0.0
H1744 H 0.42494 0.63781 0.95105 0.0
H1745 H 0.37233 0.56745 0.88948 0.0
H1746 H 0.40047 0.54327 0.91206 0.0
H1747 H 0.34446 0.59762 0.90675 0.0
H1748 H 0.4258 0.60821 0.86738 0.0
H1749 H 0.4748 0.62026 0.87137 0.0
H1750 H 0.48289 0.69846 0.91264 0.0
H1751 H 0.43399 0.68681 0.90942 0.0
C1752 C 0.31049 0.67196 0.80971 0.0
C1753 C 0.31916 0.6985 0.82307 0.0
C1754 C 0.32135 0.65495 0.8244 0.0
C1755 C 0.34114 0.66444 0.85231 0.0
C1756 C 0.34999 0.69096 0.86523 0.0
C1757 C 0.33901 0.70777 0.85088 0.0
C1758 C 0.35428 0.64749 0.86748 0.0
C1759 C 0.38219 0.65332 0.87057 0.0
C1760 C 0.34027 0.62686 0.88018 0.0
C1761 C 0.31102 0.62026 0.87953 0.0
C1762 C 0.30007 0.63894 0.89237 0.0
C1763 C 0.27325 0.63185 0.89525 0.0
C1764 C 0.25724 0.60609 0.88567 0.0
C1765 C 0.26776 0.58745 0.87241 0.0
C1766 C 0.29451 0.59445 0.86934 0.0
C1767 C 0.43565 0.60336 0.95538 0.0
C1768 C 0.42965 0.57683 0.9435 0.0
C1769 C 0.41932 0.61711 0.94275 0.0
C1770 C 0.3971 0.6045 0.91788 0.0
C1771 C 0.38965 0.5776 0.90829 0.0
C1772 C 0.40576 0.56384 0.9211 0.0
C1773 C 0.38287 0.61938 0.90004 0.0
C1774 C 0.35487 0.61298 0.89614 0.0
C1775 C 0.39673 0.63954 0.88658 0.0
C1776 C 0.42621 0.64655 0.88845 0.0
C1777 C 0.43803 0.62793 0.87754 0.0
C1778 C 0.46581 0.6347 0.87964 0.0
C1779 C 0.48196 0.66009 0.89233 0.0
C1780 C 0.47036 0.67879 0.90288 0.0
C1781 C 0.44262 0.67211 0.90092 0.0
H1782 H 0.50345 0.66529 0.89392 0.0
H1783 H 0.23664 0.60055 0.88844 0.0
H1784 H 0.30582 0.31866 0.74603 0.0
H1785 H 0.32904 0.35873 0.78481 0.0
H1786 H 0.28516 0.3278 0.85216 0.0
H1787 H 0.26048 0.28934 0.81296 0.0
H1788 H 0.30758 0.37525 0.87444 0.0
H1789 H 0.33915 0.3045 0.83119 0.0
H1790 H 0.34902 0.27675 0.78833 0.0
H1791 H 0.40166 0.34359 0.76662 0.0
H1792 H 0.392 0.37169 0.80922 0.0
H1793 H 0.44445 0.43608 0.9808 0.0
H1794 H 0.40397 0.39909 0.95749 0.0
H1795 H 0.39692 0.42771 0.87116 0.0
H1796 H 0.43673 0.46435 0.89404 0.0
H1797 H 0.39998 0.37184 0.87235 0.0
H1798 H 0.35828 0.44116 0.91184 0.0
H1799 H 0.35272 0.46698 0.95957 0.0
H1800 H 0.32319 0.39773 0.99432 0.0
H1801 H 0.32894 0.3716 0.94693 0.0
C1802 C 0.30029 0.32125 0.76859 0.0
C1803 C 0.28243 0.301 0.77737 0.0
C1804 C 0.31335 0.344 0.79063 0.0
C1805 C 0.31 0.34515 0.82178 0.0
C1806 C 0.2886 0.3269 0.82852 0.0
C1807 C 0.27472 0.30479 0.80617 0.0
C1808 C 0.33254 0.35975 0.84791 0.0
C1809 C 0.32773 0.37443 0.87393 0.0
C1810 C 0.35856 0.35722 0.84841 0.0
C1811 C 0.36478 0.34016 0.82329 0.0
C1812 C 0.35287 0.31323 0.8173 0.0
C1813 C 0.35839 0.29746 0.79302 0.0
C1814 C 0.37592 0.3084 0.77474 0.0
C1815 C 0.38808 0.33513 0.78078 0.0
C1816 C 0.38263 0.35097 0.80501 0.0
C1817 C 0.43387 0.4345 0.95704 0.0
C1818 C 0.44346 0.45273 0.93897 0.0
C1819 C 0.41107 0.41348 0.94387 0.0
C1820 C 0.39804 0.41097 0.9128 0.0
C1821 C 0.40718 0.42956 0.8952 0.0
C1822 C 0.4298 0.45033 0.90819 0.0
C1823 C 0.37521 0.38883 0.89692 0.0
C1824 C 0.37963 0.37201 0.87297 0.0
C1825 C 0.34903 0.38894 0.8987 0.0
C1826 C 0.34393 0.4045 0.92593 0.0
C1827 C 0.35049 0.43149 0.92962 0.0
C1828 C 0.34739 0.44616 0.95663 0.0
C1829 C 0.33758 0.434 0.97994 0.0
C1830 C 0.33074 0.40712 0.97623 0.0
C1831 C 0.33389 0.39238 0.9493 0.0
H1832 H 0.33529 0.4454 0.00088 0.0
H1833 H 0.38012 0.29618 0.75592 0.0
H1834 H 0.71226 0.35184 0.80482 0.0
H1835 H 0.68284 0.37377 0.82747 0.0
H1836 H 0.65267 0.30881 0.87016 0.0
H1837 H 0.68238 0.28734 0.84851 0.0
H1838 H 0.61254 0.33355 0.84414 0.0
H1839 H 0.69916 0.35081 0.91454 0.0
H1840 H 0.7487 0.36391 0.92678 0.0
H1841 H 0.75168 0.43799 0.90412 0.0
H1842 H 0.70209 0.42514 0.89124 0.0
H1843 H 0.56313 0.40035 0.9613 0.0
H1844 H 0.58577 0.37201 0.93647 0.0
H1845 H 0.63717 0.43746 0.90967 0.0
H1846 H 0.61511 0.46557 0.93447 0.0
H1847 H 0.66525 0.40911 0.9286 0.0
H1848 H 0.57888 0.39317 0.85903 0.0
H1849 H 0.52938 0.38009 0.84446 0.0
H1850 H 0.52506 0.30462 0.86316 0.0
H1851 H 0.57456 0.31735 0.87827 0.0
C1852 C 0.69903 0.34223 0.81867 0.0
C1853 C 0.69984 0.31831 0.8256 0.0
C1854 C 0.68222 0.35461 0.8314 0.0
C1855 C 0.66576 0.34283 0.85052 0.0
C1856 C 0.66519 0.31811 0.85544 0.0
C1857 C 0.68236 0.30606 0.84338 0.0
C1858 C 0.65208 0.35758 0.86896 0.0
C1859 C 0.62391 0.35001 0.86275 0.0
C1860 C 0.66712 0.3789 0.89316 0.0
C1861 C 0.69693 0.3869 0.90156 0.0
C1862 C 0.71038 0.36982 0.91192 0.0
C1863 C 0.73846 0.3772 0.91901 0.0
C1864 C 0.75333 0.40174 0.91611 0.0
C1865 C 0.74013 0.41898 0.90628 0.0
C1866 C 0.71204 0.41166 0.8991 0.0
C1867 C 0.57952 0.40863 0.95043 0.0
C1868 C 0.58743 0.43518 0.94991 0.0
C1869 C 0.59229 0.39244 0.93611 0.0
C1870 C 0.61284 0.40257 0.92073 0.0
C1871 C 0.62139 0.4292 0.92139 0.0
C1872 C 0.60887 0.44533 0.93584 0.0
C1873 C 0.62546 0.3858 0.90331 0.0
C1874 C 0.65364 0.39275 0.90997 0.0
C1875 C 0.61029 0.36408 0.87938 0.0
C1876 C 0.58047 0.35635 0.8702 0.0
C1877 C 0.56739 0.37386 0.8603 0.0
C1878 C 0.53932 0.36649 0.8519 0.0
C1879 C 0.52408 0.34158 0.853 0.0
C1880 C 0.53689 0.32394 0.8624 0.0
C1881 C 0.56496 0.33122 0.87088 0.0
H1882 H 0.50237 0.33592 0.84649 0.0
H1883 H 0.77507 0.40741 0.92157 0.0
H1884 H 0.66523 0.26922 0.12701 0.0
H1885 H 0.63641 0.29293 0.10459 0.0
H1886 H 0.66288 0.35073 0.19015 0.0
H1887 H 0.69104 0.32648 0.2132 0.0
H1888 H 0.61017 0.3418 0.16488 0.0
H1889 H 0.69248 0.35878 0.12963 0.0
H1890 H 0.72685 0.34408 0.10809 0.0
H1891 H 0.67046 0.30904 0.02037 0.0
H1892 H 0.63519 0.32233 0.0421 0.0
H1893 H 0.57627 0.44029 0.09498 0.0
H1894 H 0.60371 0.41656 0.12031 0.0
H1895 H 0.57083 0.3526 0.04131 0.0
H1896 H 0.54298 0.37634 0.01586 0.0
H1897 H 0.62813 0.36668 0.06466 0.0
H1898 H 0.5454 0.34716 0.10172 0.0
H1899 H 0.50986 0.35775 0.12565 0.0
H1900 H 0.56819 0.3987 0.21014 0.0
H1901 H 0.60415 0.38864 0.18651 0.0
C1902 C 0.66457 0.28676 0.14119 0.0
C1903 C 0.68051 0.2962 0.17165 0.0
C1904 C 0.64816 0.30029 0.12838 0.0
C1905 C 0.64804 0.32386 0.14548 0.0
C1906 C 0.66282 0.33262 0.17656 0.0
C1907 C 0.67889 0.3188 0.18964 0.0
C1908 C 0.63404 0.34014 0.13002 0.0
C1909 C 0.61433 0.34754 0.14321 0.0
C1910 C 0.63943 0.34746 0.10162 0.0
C1911 C 0.66111 0.34131 0.08762 0.0
C1912 C 0.68736 0.34788 0.10577 0.0
C1913 C 0.707 0.33971 0.09354 0.0
C1914 C 0.70089 0.32566 0.06279 0.0
C1915 C 0.67514 0.31988 0.04419 0.0
C1916 C 0.65527 0.32762 0.05652 0.0
C1917 C 0.57524 0.42133 0.0828 0.0
C1918 C 0.55764 0.41003 0.05351 0.0
C1919 C 0.59075 0.40779 0.09736 0.0
C1920 C 0.58899 0.38282 0.08275 0.0
C1921 C 0.57227 0.37186 0.0529 0.0
C1922 C 0.55641 0.38531 0.03847 0.0
C1923 C 0.60394 0.36785 0.09923 0.0
C1924 C 0.62405 0.36097 0.08637 0.0
C1925 C 0.59905 0.3612 0.12804 0.0
C1926 C 0.5775 0.3674 0.14222 0.0
C1927 C 0.55069 0.35865 0.12528 0.0
C1928 C 0.53046 0.3645 0.13882 0.0
C1929 C 0.53678 0.37896 0.16936 0.0
C1930 C 0.56333 0.38755 0.18646 0.0
C1931 C 0.58364 0.38176 0.17302 0.0
H1932 H 0.52108 0.38345 0.17981 0.0
H1933 H 0.71607 0.3192 0.05337 0.0
H1934 H 0.72852 0.67529 0.23932 0.0
H1935 H 0.70547 0.63374 0.2027 0.0
H1936 H 0.64073 0.66349 0.16961 0.0
H1937 H 0.66366 0.70461 0.20499 0.0
H1938 H 0.62701 0.6116 0.18389 0.0
H1939 H 0.68789 0.67275 0.13079 0.0
H1940 H 0.73255 0.69448 0.1215 0.0
H1941 H 0.75003 0.62228 0.11009 0.0
H1942 H 0.70563 0.60023 0.1198 0.0
H1943 H 0.5332 0.57701 0.05663 0.0
H1944 H 0.57601 0.61068 0.08001 0.0
H1945 H 0.61824 0.55435 0.06668 0.0
H1946 H 0.57587 0.52113 0.04267 0.0
H1947 H 0.65227 0.60668 0.08006 0.0
H1948 H 0.57958 0.54817 0.12476 0.0
H1949 H 0.53236 0.53453 0.1305 0.0
H1950 H 0.5359 0.61388 0.15759 0.0
H1951 H 0.58305 0.6279 0.15217 0.0
C1952 C 0.70925 0.67262 0.22427 0.0
C1953 C 0.69804 0.69305 0.22409 0.0
C1954 C 0.69625 0.64909 0.20365 0.0
C1955 C 0.67189 0.6461 0.18347 0.0
C1956 C 0.65972 0.66579 0.18521 0.0
C1957 C 0.67266 0.68914 0.20554 0.0
C1958 C 0.65854 0.62331 0.15904 0.0
C1959 C 0.6327 0.60976 0.16128 0.0
C1960 C 0.6663 0.62132 0.12986 0.0
C1961 C 0.69366 0.63494 0.12644 0.0
C1962 C 0.70145 0.66161 0.1268 0.0
C1963 C 0.72666 0.67395 0.12134 0.0
C1964 C 0.74412 0.65977 0.11525 0.0
C1965 C 0.73651 0.63325 0.11488 0.0
C1966 C 0.71138 0.62084 0.12047 0.0
C1967 C 0.55183 0.57227 0.05757 0.0
C1968 C 0.55176 0.54668 0.04959 0.0
C1969 C 0.57617 0.59145 0.07028 0.0
C1970 C 0.59978 0.58438 0.07624 0.0
C1971 C 0.59998 0.55982 0.06282 0.0
C1972 C 0.57579 0.54078 0.04974 0.0
C1973 C 0.62005 0.59758 0.10473 0.0
C1974 C 0.64687 0.60783 0.10281 0.0
C1975 C 0.61295 0.59787 0.13436 0.0
C1976 C 0.58474 0.58903 0.13802 0.0
C1977 C 0.57026 0.56264 0.13201 0.0
C1978 C 0.54351 0.55487 0.13517 0.0
C1979 C 0.53112 0.57332 0.1443 0.0
C1980 C 0.54548 0.59959 0.1505 0.0
C1981 C 0.57221 0.60745 0.14749 0.0
H1982 H 0.51042 0.56726 0.14663 0.0
H1983 H 0.76352 0.66931 0.1108 0.0
H1984 H 0.26318 0.66632 0.11845 0.0
H1985 H 0.29058 0.64339 0.09406 0.0
H1986 H 0.34068 0.65157 0.18495 0.0
H1987 H 0.31301 0.6743 0.20964 0.0
H1988 H 0.36913 0.66477 0.13431 0.0
H1989 H 0.30307 0.59698 0.15971 0.0
H1990 H 0.25722 0.57304 0.16301 0.0
H1991 H 0.23292 0.55612 0.06243 0.0
H1992 H 0.27861 0.58037 0.05854 0.0
H1993 H 0.4298 0.56772 0.1033 0.0
H1994 H 0.40403 0.59449 0.12263 0.0
H1995 H 0.35742 0.58311 0.02883 0.0
H1996 H 0.3841 0.55663 0.0087 0.0
H1997 H 0.3277 0.57338 0.0786 0.0
H1998 H 0.39881 0.63929 0.05575 0.0
H1999 H 0.44616 0.66187 0.0567 0.0
H2000 H 0.46315 0.68059 0.15743 0.0
H2001 H 0.41595 0.65784 0.15715 0.0
C2002 C 0.27978 0.66288 0.13323 0.0
C2003 C 0.28577 0.67173 0.16586 0.0
C2004 C 0.2955 0.65002 0.11931 0.0
C2005 C 0.31761 0.64599 0.13776 0.0
C2006 C 0.32371 0.65469 0.17041 0.0
C2007 C 0.3077 0.66729 0.18446 0.0
C2008 C 0.33354 0.63173 0.12267 0.0
C2009 C 0.36026 0.64474 0.12235 0.0
C2010 C 0.32162 0.60577 0.10679 0.0
C2011 C 0.2942 0.59073 0.10884 0.0
C2012 C 0.2879 0.58834 0.13829 0.0
C2013 C 0.26195 0.57469 0.14027 0.0
C2014 C 0.24214 0.56313 0.11294 0.0
C2015 C 0.2483 0.5651 0.08357 0.0
C2016 C 0.27423 0.57879 0.08146 0.0
C2017 C 0.41452 0.57133 0.08651 0.0
C2018 C 0.40933 0.5605 0.05432 0.0
C2019 C 0.39974 0.58654 0.09769 0.0
C2020 C 0.37925 0.59105 0.07705 0.0
C2021 C 0.37344 0.57993 0.04496 0.0
C2022 C 0.38853 0.56478 0.03358 0.0
C2023 C 0.36326 0.6064 0.08993 0.0
C2024 C 0.3365 0.59354 0.09009 0.0
C2025 C 0.3754 0.63233 0.10613 0.0
C2026 C 0.40377 0.64667 0.10641 0.0
C2027 C 0.41264 0.64809 0.07813 0.0
C2028 C 0.43947 0.66095 0.07855 0.0
C2029 C 0.45766 0.67261 0.10711 0.0
C2030 C 0.44903 0.67155 0.13532 0.0
C2031 C 0.42221 0.65871 0.13503 0.0
H2032 H 0.47843 0.68251 0.10738 0.0
H2033 H 0.22205 0.5526 0.11452 0.0
H2034 H 0.29402 0.26957 0.17608 0.0
H2035 H 0.3205 0.30075 0.15043 0.0
H2036 H 0.33642 0.36061 0.23244 0.0
H2037 H 0.30751 0.32958 0.25698 0.0
H2038 H 0.33036 0.38132 0.18415 0.0
H2039 H 0.38647 0.32904 0.21326 0.0
H2040 H 0.39375 0.28692 0.21698 0.0
H2041 H 0.37198 0.26413 0.11642 0.0
H2042 H 0.36504 0.30593 0.11219 0.0
H2043 H 0.44261 0.45952 0.13177 0.0
H2044 H 0.41529 0.43279 0.16161 0.0
H2045 H 0.37692 0.37495 0.07734 0.0
H2046 H 0.40391 0.4018 0.04717 0.0
H2047 H 0.3974 0.35583 0.13091 0.0
H2048 H 0.3423 0.41027 0.10386 0.0
H2049 H 0.33493 0.45251 0.10204 0.0
H2050 H 0.35704 0.47331 0.20269 0.0
H2051 H 0.36487 0.43127 0.20509 0.0
C2052 C 0.30345 0.28932 0.18876 0.0
C2053 C 0.29926 0.29706 0.21876 0.0
C2054 C 0.31873 0.3072 0.17415 0.0
C2055 C 0.33143 0.33305 0.18977 0.0
C2056 C 0.32713 0.34084 0.21986 0.0
C2057 C 0.31086 0.32307 0.23403 0.0
C2058 C 0.3491 0.35162 0.1745 0.0
C2059 C 0.34531 0.37586 0.17301 0.0
C2060 C 0.36877 0.34484 0.15981 0.0
C2061 C 0.37528 0.32057 0.1624 0.0
C2062 C 0.38356 0.31506 0.19197 0.0
C2063 C 0.38763 0.29121 0.19417 0.0
C2064 C 0.38348 0.27278 0.16696 0.0
C2065 C 0.37553 0.27832 0.13753 0.0
C2066 C 0.37168 0.30217 0.13518 0.0
C2067 C 0.42826 0.44117 0.11952 0.0
C2068 C 0.42548 0.43277 0.08708 0.0
C2069 C 0.4126 0.42595 0.13662 0.0
C2070 C 0.39403 0.40188 0.12173 0.0
C2071 C 0.39114 0.39346 0.08932 0.0
C2072 C 0.40652 0.40885 0.07209 0.0
C2073 C 0.37822 0.38511 0.14008 0.0
C2074 C 0.3826 0.36133 0.14234 0.0
C2075 C 0.35965 0.39267 0.15604 0.0
C2076 C 0.35437 0.4177 0.15464 0.0
C2077 C 0.34574 0.4239 0.1256 0.0
C2078 C 0.34145 0.4478 0.12446 0.0
C2079 C 0.34556 0.46561 0.15223 0.0
C2080 C 0.35387 0.4595 0.1812 0.0
C2081 C 0.3582 0.43563 0.18247 0.0
H2082 H 0.34227 0.48411 0.1513 0.0
H2083 H 0.38633 0.2542 0.16868 0.0
H2084 H 0.84182 0.71321 0.68054 0.0
H2085 H 0.85695 0.68324 0.64717 0.0
H2086 H 0.78715 0.62088 0.64863 0.0
H2087 H 0.77174 0.651 0.68229 0.0
H2088 H 0.83421 0.60824 0.66149 0.0
H2089 H 0.79094 0.6421 0.58217 0.0
H2090 H 0.77863 0.67468 0.55485 0.0
H2091 H 0.86068 0.70685 0.5485 0.0
H2092 H 0.87359 0.6747 0.57623 0.0
H2093 H 0.87183 0.52434 0.5504 0.0
H2094 H 0.84496 0.54943 0.57261 0.0
H2095 H 0.91014 0.61962 0.58376 0.0
H2096 H 0.93709 0.59454 0.56196 0.0
H2097 H 0.86093 0.62513 0.56206 0.0
H2098 H 0.90358 0.59313 0.64443 0.0
H2099 H 0.91614 0.56043 0.6713 0.0
H2100 H 0.83315 0.52323 0.66956 0.0
H2101 H 0.82003 0.55554 0.64218 0.0
C2102 C 0.82948 0.69318 0.67353 0.0
C2103 C 0.80555 0.68448 0.684 0.0
C2104 C 0.83812 0.67608 0.65433 0.0
C2105 C 0.82307 0.64987 0.64519 0.0
C2106 C 0.79899 0.64107 0.65532 0.0
C2107 C 0.79015 0.6583 0.67437 0.0
C2108 C 0.83347 0.63174 0.62635 0.0
C2109 C 0.83921 0.61138 0.63917 0.0
C2110 C 0.84074 0.63635 0.59772 0.0
C2111 C 0.83328 0.65615 0.58165 0.0
C2112 C 0.80643 0.65632 0.5753 0.0
C2113 C 0.79933 0.67466 0.55965 0.0
C2114 C 0.81888 0.69288 0.55004 0.0
C2115 C 0.84557 0.69276 0.55602 0.0
C2116 C 0.85279 0.67447 0.5717 0.0
C2117 C 0.88007 0.54519 0.55693 0.0
C2118 C 0.90639 0.55764 0.5545 0.0
C2119 C 0.86489 0.55943 0.56988 0.0
C2120 C 0.87578 0.58629 0.58027 0.0
C2121 C 0.90147 0.59888 0.57606 0.0
C2122 C 0.91678 0.58463 0.56356 0.0
C2123 C 0.86088 0.60131 0.59653 0.0
C2124 C 0.8548 0.62136 0.58358 0.0
C2125 C 0.85304 0.5962 0.62473 0.0
C2126 C 0.86078 0.57655 0.64086 0.0
C2127 C 0.88796 0.57781 0.64942 0.0
C2128 C 0.8952 0.55938 0.66482 0.0
C2129 C 0.87545 0.53973 0.67205 0.0
C2130 C 0.84842 0.53845 0.66388 0.0
C2131 C 0.84107 0.55681 0.64842 0.0
H2132 H 0.88111 0.52557 0.68413 0.0
H2133 H 0.81333 0.70705 0.53788 0.0
H2134 H 0.28253 0.85218 0.68207 0.0
H2135 H 0.32309 0.87011 0.66379 0.0
H2136 H 0.32402 0.79338 0.62626 0.0
H2137 H 0.2831 0.77494 0.64517 0.0
H2138 H 0.37733 0.8355 0.66858 0.0
H2139 H 0.31401 0.81639 0.57259 0.0
H2140 H 0.2695 0.80999 0.5394 0.0
H2141 H 0.27754 0.89026 0.56857 0.0
H2142 H 0.32195 0.8971 0.60227 0.0
H2143 H 0.46028 0.9054 0.5735 0.0
H2144 H 0.43415 0.87547 0.60115 0.0
H2145 H 0.40573 0.93614 0.64264 0.0
H2146 H 0.43297 0.9665 0.61619 0.0
H2147 H 0.36777 0.89432 0.5949 0.0
H2148 H 0.43107 0.90969 0.69185 0.0
H2149 H 0.47597 0.91533 0.72358 0.0
H2150 H 0.47048 0.83742 0.68408 0.0
H2151 H 0.42554 0.83136 0.65191 0.0
C2152 C 0.29115 0.83908 0.66969 0.0
C2153 C 0.27986 0.81229 0.66503 0.0
C2154 C 0.31438 0.84929 0.65955 0.0
C2155 C 0.32648 0.83291 0.64426 0.0
C2156 C 0.31494 0.8061 0.63851 0.0
C2157 C 0.29147 0.79574 0.64878 0.0
C2158 C 0.35035 0.84506 0.63314 0.0
C2159 C 0.37569 0.84747 0.65123 0.0
C2160 C 0.34772 0.86089 0.61112 0.0
C2161 C 0.32137 0.85726 0.59 0.0
C2162 C 0.30628 0.83268 0.57199 0.0
C2163 C 0.28105 0.82897 0.55308 0.0
C2164 C 0.2707 0.8497 0.55188 0.0
C2165 C 0.28562 0.87422 0.56947 0.0
C2166 C 0.31087 0.87805 0.58841 0.0
C2167 C 0.44909 0.91242 0.58936 0.0
C2168 C 0.44772 0.93773 0.59232 0.0
C2169 C 0.43466 0.89555 0.60551 0.0
C2170 C 0.41801 0.90374 0.62354 0.0
C2171 C 0.41862 0.92971 0.62878 0.0
C2172 C 0.43381 0.94683 0.61347 0.0
C2173 C 0.39523 0.88422 0.62916 0.0
C2174 C 0.36998 0.88114 0.61056 0.0
C2175 C 0.39848 0.86694 0.64916 0.0
C2176 C 0.425 0.87011 0.66933 0.0
C2177 C 0.43946 0.89377 0.68986 0.0
C2178 C 0.4649 0.89704 0.70795 0.0
C2179 C 0.47609 0.87676 0.70581 0.0
C2180 C 0.46176 0.8531 0.68573 0.0
C2181 C 0.43626 0.84971 0.66763 0.0
H2182 H 0.49583 0.87936 0.71974 0.0
H2183 H 0.25112 0.84678 0.53731 0.0
H2184 H 0.21514 0.32196 0.68546 0.0
H2185 H 0.1988 0.34964 0.65283 0.0
H2186 H 0.11706 0.30434 0.64797 0.0
H2187 H 0.13304 0.2767 0.67953 0.0
H2188 H 0.12181 0.31302 0.59305 0.0
H2189 H 0.14986 0.36416 0.69862 0.0
H2190 H 0.18099 0.38888 0.7483 0.0
H2191 H 0.22733 0.43919 0.69795 0.0
H2192 H 0.19669 0.41451 0.64784 0.0
H2193 H 0.034 0.38665 0.56668 0.0
H2194 H 0.06285 0.36284 0.5888 0.0
H2195 H 0.13246 0.41921 0.57455 0.0
H2196 H 0.10348 0.44393 0.55395 0.0
H2197 H 0.14233 0.40722 0.63072 0.0
H2198 H 0.09875 0.35917 0.52669 0.0
H2199 H 0.05868 0.33668 0.48479 0.0
H2200 H 0.03433 0.27797 0.53783 0.0
H2201 H 0.07283 0.30124 0.58139 0.0
C2202 C 0.19371 0.31782 0.6771 0.0
C2203 C 0.17537 0.29709 0.68508 0.0
C2204 C 0.1844 0.33375 0.65865 0.0
C2205 C 0.15665 0.32918 0.64801 0.0
C2206 C 0.13854 0.30825 0.65568 0.0
C2207 C 0.14775 0.29245 0.67391 0.0
C2208 C 0.14572 0.34585 0.62905 0.0
C2209 C 0.12619 0.33362 0.60131 0.0
C2210 C 0.15213 0.37292 0.63934 0.0
C2211 C 0.17126 0.38711 0.66935 0.0
C2212 C 0.16693 0.38022 0.69805 0.0
C2213 C 0.18443 0.3943 0.72632 0.0
C2214 C 0.20621 0.4155 0.72627 0.0
C2215 C 0.21053 0.42268 0.69794 0.0
C2216 C 0.19312 0.40862 0.66959 0.0
C2217 C 0.05541 0.3937 0.56784 0.0
C2218 C 0.06655 0.41679 0.55817 0.0
C2219 C 0.07191 0.38015 0.58054 0.0
C2220 C 0.09982 0.3889 0.58274 0.0
C2221 C 0.11099 0.41198 0.57288 0.0
C2222 C 0.09448 0.42594 0.5609 0.0
C2223 C 0.11716 0.37405 0.59588 0.0
C2224 C 0.1382 0.3867 0.6221 0.0
C2225 C 0.11134 0.3471 0.58489 0.0
C2226 C 0.08885 0.33224 0.55768 0.0
C2227 C 0.08472 0.34169 0.52977 0.0
C2228 C 0.06211 0.32885 0.50574 0.0
C2229 C 0.04408 0.30582 0.50853 0.0
C2230 C 0.04837 0.29579 0.53563 0.0
C2231 C 0.07047 0.30897 0.56018 0.0
H2232 H 0.02678 0.29577 0.48972 0.0
H2233 H 0.21966 0.42644 0.74819 0.0
H2234 H 0.67754 0.23817 0.68257 0.0
H2235 H 0.65307 0.20971 0.63239 0.0
H2236 H 0.69661 0.15572 0.65084 0.0
H2237 H 0.71987 0.1831 0.70185 0.0
H2238 H 0.6749 0.16334 0.57898 0.0
H2239 H 0.65543 0.13398 0.67485 0.0
H2240 H 0.65073 0.142 0.72987 0.0
H2241 H 0.59012 0.17794 0.7038 0.0
H2242 H 0.59505 0.17071 0.64868 0.0
H2243 H 0.58425 0.03417 0.53639 0.0
H2244 H 0.61976 0.07579 0.55176 0.0
H2245 H 0.55966 0.11532 0.55207 0.0
H2246 H 0.52434 0.0737 0.53787 0.0
H2247 H 0.59086 0.1187 0.60989 0.0
H2248 H 0.60612 0.1316 0.5065 0.0
H2249 H 0.61432 0.11708 0.45483 0.0
H2250 H 0.68609 0.10267 0.49831 0.0
H2251 H 0.67836 0.11737 0.55062 0.0
C2252 C 0.68232 0.22052 0.67558 0.0
C2253 C 0.70034 0.21256 0.69596 0.0
C2254 C 0.66877 0.20464 0.64678 0.0
C2255 C 0.67342 0.18097 0.63829 0.0
C2256 C 0.69331 0.17424 0.65712 0.0
C2257 C 0.70634 0.18976 0.68625 0.0
C2258 C 0.65262 0.16059 0.61564 0.0
C2259 C 0.65639 0.15355 0.58539 0.0
C2260 C 0.62905 0.14777 0.6248 0.0
C2261 C 0.62599 0.1523 0.65784 0.0
C2262 C 0.64139 0.14393 0.68095 0.0
C2263 C 0.63866 0.14828 0.71213 0.0
C2264 C 0.62023 0.16059 0.72036 0.0
C2265 C 0.60449 0.16854 0.69741 0.0
C2266 C 0.6073 0.16439 0.66621 0.0
C2267 C 0.57881 0.05187 0.53853 0.0
C2268 C 0.55198 0.05125 0.53581 0.0
C2269 C 0.59896 0.07554 0.54692 0.0
C2270 C 0.59216 0.09848 0.55269 0.0
C2271 C 0.56512 0.09775 0.54723 0.0
C2272 C 0.54508 0.07413 0.53924 0.0
C2273 C 0.61239 0.1216 0.5723 0.0
C2274 C 0.60882 0.12894 0.60271 0.0
C2275 C 0.63653 0.13367 0.5636 0.0
C2276 C 0.6416 0.12547 0.53236 0.0
C2277 C 0.62362 0.12528 0.50504 0.0
C2278 C 0.62822 0.11703 0.47561 0.0
C2279 C 0.65066 0.10881 0.47312 0.0
C2280 C 0.66871 0.10905 0.50021 0.0
C2281 C 0.66431 0.11747 0.52978 0.0
H2282 H 0.65411 0.10233 0.45024 0.0
H2283 H 0.61807 0.16387 0.74448 0.0
H2284 H 0.74079 0.3035 0.28755 0.0
H2285 H 0.7756 0.34507 0.31105 0.0
H2286 H 0.83078 0.30448 0.34293 0.0
H2287 H 0.79696 0.26342 0.3189 0.0
H2288 H 0.80547 0.3435 0.38592 0.0
H2289 H 0.86038 0.32662 0.31322 0.0
H2290 H 0.87804 0.32066 0.26539 0.0
H2291 H 0.8669 0.39164 0.24524 0.0
H2292 H 0.84819 0.39757 0.29249 0.0
H2293 H 0.93772 0.42144 0.46639 0.0
H2294 H 0.89385 0.39023 0.44082 0.0
H2295 H 0.87612 0.4452 0.38621 0.0
H2296 H 0.92038 0.4758 0.41071 0.0
H2297 H 0.87908 0.40237 0.35103 0.0
H2298 H 0.83572 0.42043 0.43726 0.0
H2299 H 0.83001 0.4247 0.49204 0.0
H2300 H 0.8314 0.34689 0.49205 0.0
H2301 H 0.83741 0.34223 0.43745 0.0
C2302 C 0.76052 0.30365 0.29923 0.0
C2303 C 0.76626 0.28048 0.30163 0.0
C2304 C 0.78039 0.32721 0.31205 0.0
C2305 C 0.80592 0.32757 0.32739 0.0
C2306 C 0.81153 0.30443 0.32989 0.0
C2307 C 0.79193 0.28104 0.31692 0.0
C2308 C 0.82441 0.35141 0.34727 0.0
C2309 C 0.82151 0.3566 0.37834 0.0
C2310 C 0.84535 0.36794 0.33708 0.0
C2311 C 0.85194 0.36207 0.30594 0.0
C2312 C 0.86057 0.34041 0.29799 0.0
C2313 C 0.8712 0.33724 0.2712 0.0
C2314 C 0.8737 0.35582 0.2524 0.0
C2315 C 0.86499 0.3773 0.25989 0.0
C2316 C 0.85413 0.38043 0.2865 0.0
C2317 C 0.924 0.42695 0.44959 0.0
C2318 C 0.93223 0.45037 0.4396 0.0
C2319 C 0.89893 0.40934 0.43527 0.0
C2320 C 0.88191 0.41549 0.41157 0.0
C2321 C 0.88912 0.44016 0.40434 0.0
C2322 C 0.91435 0.45745 0.41807 0.0
C2323 C 0.86006 0.39477 0.38979 0.0
C2324 C 0.86242 0.38992 0.35837 0.0
C2325 C 0.83954 0.37777 0.40006 0.0
C2326 C 0.83693 0.38099 0.43325 0.0
C2327 C 0.83505 0.40432 0.44904 0.0
C2328 C 0.83171 0.40678 0.48003 0.0
C2329 C 0.83013 0.38601 0.49536 0.0
C2330 C 0.83243 0.36289 0.48004 0.0
C2331 C 0.83576 0.36032 0.44907 0.0
H2332 H 0.82678 0.38772 0.51898 0.0
H2333 H 0.88238 0.35358 0.23204 0.0
H2334 H 0.73184 0.85678 0.34838 0.0
H2335 H 0.7045 0.87324 0.38117 0.0
H2336 H 0.63798 0.80404 0.34238 0.0
H2337 H 0.66565 0.78697 0.31067 0.0
H2338 H 0.63399 0.86016 0.33661 0.0
H2339 H 0.65053 0.80385 0.40559 0.0
H2340 H 0.67754 0.78403 0.43945 0.0
H2341 H 0.71855 0.85816 0.49946 0.0
H2342 H 0.69211 0.87852 0.46553 0.0
H2343 H 0.54039 0.89298 0.41676 0.0
H2344 H 0.56728 0.86564 0.40105 0.0
H2345 H 0.63986 0.92641 0.44818 0.0
H2346 H 0.61325 0.95439 0.46294 0.0
H2347 H 0.63909 0.87127 0.45155 0.0
H2348 H 0.62562 0.92778 0.37961 0.0
H2349 H 0.59762 0.94762 0.34702 0.0
H2350 H 0.5504 0.87261 0.29312 0.0
H2351 H 0.5779 0.85229 0.32582 0.0
C2352 C 0.71165 0.84481 0.3476 0.0
C2353 C 0.70088 0.82054 0.32732 0.0
C2354 C 0.69609 0.85418 0.36629 0.0
C2355 C 0.66933 0.83974 0.36431 0.0
C2356 C 0.65872 0.81527 0.34453 0.0
C2357 C 0.67454 0.80554 0.32656 0.0
C2358 C 0.65171 0.85164 0.3799 0.0
C2359 C 0.63478 0.86218 0.36164 0.0
C2360 C 0.65322 0.85475 0.41265 0.0
C2361 C 0.66967 0.84278 0.43268 0.0
C2362 C 0.66563 0.81601 0.42568 0.0
C2363 C 0.68075 0.80465 0.44497 0.0
C2364 C 0.69986 0.81985 0.4715 0.0
C2365 C 0.70383 0.84643 0.47882 0.0
C2366 C 0.68878 0.85789 0.45955 0.0
C2367 C 0.56206 0.90053 0.42402 0.0
C2368 C 0.57464 0.92615 0.44046 0.0
C2369 C 0.57736 0.88475 0.41532 0.0
C2370 C 0.6055 0.89414 0.42324 0.0
C2371 C 0.61813 0.91883 0.44197 0.0
C2372 C 0.60284 0.93479 0.45038 0.0
C2373 C 0.6215 0.87971 0.4082 0.0
C2374 C 0.63819 0.86896 0.42649 0.0
C2375 C 0.61987 0.87638 0.37543 0.0
C2376 C 0.60361 0.88851 0.35535 0.0
C2377 C 0.60913 0.91551 0.36097 0.0
C2378 C 0.59337 0.92684 0.34247 0.0
C2379 C 0.57219 0.91138 0.31807 0.0
C2380 C 0.56679 0.88456 0.31206 0.0
C2381 C 0.58246 0.87312 0.33057 0.0
H2382 H 0.56001 0.92019 0.30376 0.0
H2383 H 0.7115 0.81101 0.48645 0.0
H2384 H 0.22076 0.70492 0.3207 0.0
H2385 H 0.20242 0.67043 0.34796 0.0
H2386 H 0.12487 0.68279 0.32758 0.0
H2387 H 0.14291 0.71717 0.30057 0.0
H2388 H 0.14107 0.68185 0.38873 0.0
H2389 H 0.1349 0.63362 0.28708 0.0
H2390 H 0.15067 0.61767 0.24084 0.0
H2391 H 0.20064 0.5845 0.29806 0.0
H2392 H 0.18559 0.60075 0.34485 0.0
H2393 H 0.04046 0.5643 0.38467 0.0
H2394 H 0.07241 0.59588 0.3646 0.0
H2395 H 0.13706 0.59486 0.43764 0.0
H2396 H 0.10486 0.56372 0.45868 0.0
H2397 H 0.13512 0.58971 0.35649 0.0
H2398 H 0.13924 0.64479 0.45988 0.0
H2399 H 0.11551 0.658 0.50015 0.0
H2400 H 0.06105 0.67604 0.42955 0.0
H2401 H 0.0841 0.66222 0.38901 0.0
C2402 C 0.19981 0.70025 0.32211 0.0
C2403 C 0.18319 0.71367 0.30866 0.0
C2404 C 0.1894 0.68052 0.33746 0.0
C2405 C 0.16238 0.67418 0.33955 0.0
C2406 C 0.14583 0.68756 0.32614 0.0
C2407 C 0.15613 0.70713 0.31073 0.0
C2408 C 0.15118 0.65428 0.35673 0.0
C2409 C 0.14007 0.66176 0.38184 0.0
C2410 C 0.14994 0.62814 0.34762 0.0
C2411 C 0.15951 0.61886 0.31964 0.0
C2412 C 0.1496 0.62331 0.28995 0.0
C2413 C 0.15832 0.61413 0.26359 0.0
C2414 C 0.17676 0.6002 0.26654 0.0
C2415 C 0.18646 0.5954 0.29584 0.0
C2416 C 0.17786 0.60462 0.3223 0.0
C2417 C 0.0615 0.57071 0.39632 0.0
C2418 C 0.07035 0.56179 0.42314 0.0
C2419 C 0.07965 0.58861 0.38485 0.0
C2420 C 0.10688 0.59739 0.3997 0.0
C2421 C 0.116 0.58813 0.42608 0.0
C2422 C 0.09769 0.57058 0.43805 0.0
C2423 C 0.12516 0.61746 0.38825 0.0
C2424 C 0.13726 0.61 0.36403 0.0
C2425 C 0.12672 0.64357 0.39738 0.0
C2426 C 0.113 0.65203 0.42159 0.0
C2427 C 0.12191 0.65116 0.45308 0.0
C2428 C 0.10867 0.65884 0.47589 0.0
C2429 C 0.08669 0.66773 0.46739 0.0
C2430 C 0.07799 0.66904 0.43609 0.0
C2431 C 0.09111 0.66125 0.41322 0.0
H2432 H 0.07648 0.67371 0.48506 0.0
H2433 H 0.18343 0.59304 0.2461 0.0
H2434 H 0.33081 0.19054 0.2867 0.0
H2435 H 0.35697 0.16901 0.31805 0.0
H2436 H 0.32711 0.19287 0.39887 0.0
H2437 H 0.30023 0.21416 0.36742 0.0
H2438 H 0.38697 0.19781 0.40838 0.0
H2439 H 0.2979 0.13712 0.36715 0.0
H2440 H 0.25781 0.11217 0.32608 0.0
H2441 H 0.30627 0.07737 0.27624 0.0
H2442 H 0.34674 0.1024 0.31676 0.0
H2443 H 0.43387 0.10661 0.48824 0.0
H2444 H 0.40816 0.13463 0.46909 0.0
H2445 H 0.40662 0.10145 0.37354 0.0
H2446 H 0.43113 0.0731 0.39256 0.0
H2447 H 0.35918 0.10225 0.37769 0.0
H2448 H 0.44796 0.16377 0.41259 0.0
H2449 H 0.49002 0.18846 0.4508 0.0
H2450 H 0.44546 0.22149 0.50887 0.0
H2451 H 0.40308 0.19678 0.47113 0.0
C2452 C 0.33002 0.19157 0.31125 0.0
C2453 C 0.31332 0.20401 0.32452 0.0
C2454 C 0.34496 0.17919 0.32909 0.0
C2455 C 0.34381 0.17926 0.36066 0.0
C2456 C 0.32822 0.19265 0.37451 0.0
C2457 C 0.31286 0.20474 0.3565 0.0
C2458 C 0.35775 0.16397 0.37833 0.0
C2459 C 0.38072 0.17688 0.40215 0.0
C2460 C 0.34979 0.13673 0.36958 0.0
C2461 C 0.32545 0.12191 0.34488 0.0
C2462 C 0.30009 0.1244 0.34725 0.0
C2463 C 0.27727 0.11017 0.32411 0.0
C2464 C 0.27951 0.09325 0.29852 0.0
C2465 C 0.30457 0.09051 0.29604 0.0
C2466 C 0.32745 0.10471 0.31911 0.0
C2467 C 0.42796 0.10548 0.46322 0.0
C2468 C 0.43404 0.08757 0.44179 0.0
C2469 C 0.41346 0.12152 0.45229 0.0
C2470 C 0.40544 0.12018 0.41982 0.0
C2471 C 0.41228 0.10269 0.39864 0.0
C2472 C 0.42627 0.0865 0.40949 0.0
C2473 C 0.38904 0.136 0.40723 0.0
C2474 C 0.36542 0.12316 0.38432 0.0
C2475 C 0.39678 0.16327 0.41642 0.0
C2476 C 0.42228 0.17817 0.43918 0.0
C2477 C 0.44709 0.17613 0.43362 0.0
C2478 C 0.47101 0.19017 0.45517 0.0
C2479 C 0.4704 0.20647 0.4823 0.0
C2480 C 0.44589 0.20882 0.48787 0.0
C2481 C 0.42191 0.19482 0.46639 0.0
H2482 H 0.48893 0.21732 0.49895 0.0
H2483 H 0.26182 0.08223 0.28066 0.0
H2484 H 0.70411 0.79427 0.63287 0.0
H2485 H 0.67568 0.81399 0.60152 0.0
H2486 H 0.6323 0.82014 0.67554 0.0
H2487 H 0.66033 0.80009 0.70666 0.0
H2488 H 0.59822 0.80498 0.62293 0.0
H2489 H 0.67909 0.8783 0.66131 0.0
H2490 H 0.72623 0.90573 0.67085 0.0
H2491 H 0.72576 0.8866 0.57274 0.0
H2492 H 0.67838 0.85956 0.56255 0.0
H2493 H 0.54689 0.90722 0.60015 0.0
H2494 H 0.57004 0.8771 0.6162 0.0
H2495 H 0.59778 0.87216 0.52945 0.0
H2496 H 0.57535 0.90345 0.51367 0.0
H2497 H 0.63779 0.88168 0.57955 0.0
H2498 H 0.54968 0.81976 0.54475 0.0
H2499 H 0.50079 0.80438 0.54148 0.0
H2500 H 0.51451 0.80896 0.64122 0.0
H2501 H 0.56347 0.82454 0.64517 0.0
C2502 C 0.68849 0.7998 0.64241 0.0
C2503 C 0.68457 0.7957 0.67229 0.0
C2504 C 0.67234 0.81123 0.62454 0.0
C2505 C 0.65207 0.81896 0.63631 0.0
C2506 C 0.64777 0.81435 0.66588 0.0
C2507 C 0.66379 0.8028 0.68365 0.0
C2508 C 0.63502 0.83148 0.61777 0.0
C2509 C 0.60691 0.82181 0.61355 0.0
C2510 C 0.64617 0.8531 0.60481 0.0
C2511 C 0.67541 0.86659 0.61128 0.0
C2512 C 0.6892 0.87963 0.64188 0.0
C2513 C 0.71583 0.89537 0.64732 0.0
C2514 C 0.72897 0.89792 0.6224 0.0
C2515 C 0.71556 0.88462 0.59201 0.0
C2516 C 0.68879 0.86918 0.58637 0.0
C2517 C 0.55796 0.89979 0.58445 0.0
C2518 C 0.55968 0.908 0.55587 0.0
C2519 C 0.57079 0.88219 0.59343 0.0
C2520 C 0.58524 0.87199 0.5738 0.0
C2521 C 0.58649 0.87962 0.54481 0.0
C2522 C 0.57366 0.89742 0.5358 0.0
C2523 C 0.60119 0.85554 0.58531 0.0
C2524 C 0.62908 0.86441 0.58817 0.0
C2525 C 0.58982 0.83368 0.59774 0.0
C2526 C 0.56032 0.82336 0.59524 0.0
C2527 C 0.5423 0.81751 0.566 0.0
C2528 C 0.51456 0.80876 0.56403 0.0
C2529 C 0.50456 0.80571 0.59113 0.0
C2530 C 0.52229 0.81127 0.62024 0.0
C2531 C 0.55004 0.81998 0.62234 0.0
H2532 H 0.48309 0.79903 0.58957 0.0
H2533 H 0.74957 0.91017 0.62665 0.0
H2534 H 0.72448 0.17025 0.33091 0.0
H2535 H 0.69285 0.16653 0.36552 0.0
H2536 H 0.63399 0.17796 0.29346 0.0
H2537 H 0.666 0.18256 0.25876 0.0
H2538 H 0.62271 0.1817 0.35976 0.0
H2539 H 0.64451 0.122 0.27539 0.0
H2540 H 0.67711 0.10425 0.25346 0.0
H2541 H 0.70365 0.08583 0.34244 0.0
H2542 H 0.67217 0.10457 0.36498 0.0
H2543 H 0.51832 0.06938 0.37836 0.0
H2544 H 0.54513 0.1018 0.35363 0.0
H2545 H 0.61763 0.09107 0.40273 0.0
H2546 H 0.59121 0.05962 0.42808 0.0
H2547 H 0.61557 0.08839 0.34198 0.0
H2548 H 0.60361 0.14825 0.42961 0.0
H2549 H 0.57215 0.1613 0.45916 0.0
H2550 H 0.52943 0.17555 0.37518 0.0
H2551 H 0.56047 0.16206 0.34516 0.0
C2552 C 0.70503 0.17262 0.3227 0.0
C2553 C 0.69652 0.17441 0.29142 0.0
C2554 C 0.6873 0.17129 0.34282 0.0
C2555 C 0.66074 0.17042 0.33106 0.0
C2556 C 0.65419 0.17759 0.30225 0.0
C2557 C 0.67217 0.17956 0.28227 0.0
C2558 C 0.63931 0.15244 0.34122 0.0
C2559 C 0.621 0.16131 0.35583 0.0
C2560 C 0.637 0.12578 0.33576 0.0
C2561 C 0.65628 0.11505 0.32192 0.0
C2562 C 0.65758 0.11453 0.29029 0.0
C2563 C 0.67597 0.10433 0.27777 0.0
C2564 C 0.69275 0.09413 0.29659 0.0
C2565 C 0.69109 0.09408 0.3279 0.0
C2566 C 0.67305 0.10458 0.34059 0.0
C2567 C 0.54003 0.07415 0.38375 0.0
C2568 C 0.55298 0.06238 0.40501 0.0
C2569 C 0.55519 0.09269 0.36995 0.0
C2570 C 0.58325 0.09907 0.37705 0.0
C2571 C 0.59596 0.0866 0.39751 0.0
C2572 C 0.58096 0.06868 0.41186 0.0
C2573 C 0.59998 0.11765 0.36221 0.0
C2574 C 0.61704 0.10877 0.34577 0.0
C2575 C 0.60153 0.14407 0.36703 0.0
C2576 C 0.58415 0.154 0.38524 0.0
C2577 C 0.58744 0.1541 0.41755 0.0
C2578 C 0.5697 0.16155 0.43433 0.0
C2579 C 0.54874 0.1692 0.41903 0.0
C2580 C 0.54566 0.16961 0.38698 0.0
C2581 C 0.56335 0.1621 0.37009 0.0
H2582 H 0.53492 0.17484 0.432 0.0
H2583 H 0.70688 0.08612 0.28687 0.0
H2584 H 0.86695 0.71682 0.31513 0.0
H2585 H 0.88264 0.68807 0.34554 0.0
H2586 H 0.80067 0.64329 0.34024 0.0
H2587 H 0.78468 0.67234 0.30995 0.0
H2588 H 0.832 0.6494 0.39828 0.0
H2589 H 0.83339 0.61771 0.29448 0.0
H2590 H 0.84084 0.61938 0.24094 0.0
H2591 H 0.92589 0.65123 0.27763 0.0
H2592 H 0.91893 0.64999 0.33149 0.0
H2593 H 0.88972 0.5442 0.43182 0.0
H2594 H 0.86146 0.56954 0.41116 0.0
H2595 H 0.93195 0.6355 0.42607 0.0
H2596 H 0.96005 0.61047 0.4474 0.0
H2597 H 0.89897 0.6121 0.36001 0.0
H2598 H 0.89056 0.6445 0.46754 0.0
H2599 H 0.87588 0.64175 0.51756 0.0
H2600 H 0.79524 0.60021 0.46717 0.0
H2601 H 0.80947 0.60281 0.41689 0.0
C2602 C 0.85222 0.70099 0.32058 0.0
C2603 C 0.8246 0.69677 0.30997 0.0
C2604 C 0.86121 0.68451 0.33788 0.0
C2605 C 0.84282 0.66329 0.34464 0.0
C2606 C 0.81518 0.65951 0.33515 0.0
C2607 C 0.80611 0.67612 0.31788 0.0
C2608 C 0.85293 0.64494 0.36095 0.0
C2609 C 0.84631 0.64085 0.3897 0.0
C2610 C 0.87111 0.63337 0.34939 0.0
C2611 C 0.87563 0.63387 0.31706 0.0
C2612 C 0.85369 0.62518 0.29116 0.0
C2613 C 0.85781 0.62602 0.26075 0.0
C2614 C 0.88382 0.63542 0.25589 0.0
C2615 C 0.90575 0.64393 0.28144 0.0
C2616 C 0.90174 0.6431 0.31192 0.0
C2617 C 0.89893 0.56438 0.43163 0.0
C2618 C 0.92693 0.57553 0.4412 0.0
C2619 C 0.88283 0.5788 0.41991 0.0
C2620 C 0.89466 0.60435 0.41715 0.0
C2621 C 0.92246 0.61587 0.4283 0.0
C2622 C 0.93846 0.60163 0.44052 0.0
C2623 C 0.87913 0.61768 0.39819 0.0
C2624 C 0.88452 0.62048 0.36851 0.0
C2625 C 0.85897 0.62704 0.40835 0.0
C2626 C 0.85115 0.62357 0.43852 0.0
C2627 C 0.86982 0.6344 0.46717 0.0
C2628 C 0.86152 0.63301 0.49557 0.0
C2629 C 0.83462 0.62075 0.49553 0.0
C2630 C 0.81605 0.60967 0.46715 0.0
C2631 C 0.82421 0.61113 0.43873 0.0
H2632 H 0.82799 0.61994 0.51737 0.0
H2633 H 0.88697 0.63606 0.23232 0.0
H2634 H 0.26741 0.8045 0.29981 0.0
H2635 H 0.28536 0.83216 0.35077 0.0
H2636 H 0.33322 0.78325 0.37642 0.0
H2637 H 0.31148 0.75262 0.32658 0.0
H2638 H 0.32661 0.82406 0.42964 0.0
H2639 H 0.35712 0.81316 0.33043 0.0
H2640 H 0.34754 0.8037 0.27247 0.0
H2641 H 0.31803 0.869 0.27065 0.0
H2642 H 0.32661 0.87832 0.32859 0.0
H2643 H 0.45526 0.92233 0.47489 0.0
H2644 H 0.41504 0.88475 0.46073 0.0
H2645 H 0.37181 0.9281 0.41025 0.0
H2646 H 0.41264 0.9648 0.42222 0.0
H2647 H 0.37487 0.88793 0.37328 0.0
H2648 H 0.35377 0.90216 0.47693 0.0
H2649 H 0.37108 0.9116 0.53433 0.0
H2650 H 0.38985 0.84005 0.52773 0.0
H2651 H 0.37304 0.8303 0.47036 0.0
C2652 C 0.27977 0.79823 0.31719 0.0
C2653 C 0.2878 0.77633 0.30935 0.0
C2654 C 0.29009 0.81415 0.34645 0.0
C2655 C 0.31104 0.80999 0.36669 0.0
C2656 C 0.31701 0.78664 0.36082 0.0
C2657 C 0.30512 0.76957 0.33208 0.0
C2658 C 0.33213 0.83308 0.38478 0.0
C2659 C 0.3373 0.83811 0.41757 0.0
C2660 C 0.34609 0.85107 0.36863 0.0
C2661 C 0.34213 0.84619 0.33381 0.0
C2662 C 0.34838 0.82536 0.31765 0.0
C2663 C 0.34304 0.81997 0.28482 0.0
C2664 C 0.33198 0.83561 0.2679 0.0
C2665 C 0.32643 0.85679 0.28379 0.0
C2666 C 0.33147 0.8621 0.31661 0.0
C2667 C 0.43695 0.92384 0.46134 0.0
C2668 C 0.43689 0.94586 0.44883 0.0
C2669 C 0.41391 0.90257 0.45365 0.0
C2670 C 0.39049 0.9037 0.43442 0.0
C2671 C 0.38979 0.92688 0.42496 0.0
C2672 C 0.41306 0.94771 0.43159 0.0
C2673 C 0.3691 0.87975 0.41857 0.0
C2674 C 0.364 0.87431 0.38573 0.0
C2675 C 0.35593 0.86138 0.4348 0.0
C2676 C 0.36237 0.86562 0.46942 0.0
C2677 C 0.36135 0.88834 0.48779 0.0
C2678 C 0.37116 0.89378 0.52023 0.0
C2679 C 0.38174 0.87649 0.53436 0.0
C2680 C 0.38172 0.85338 0.51652 0.0
C2681 C 0.37199 0.84786 0.48411 0.0
H2682 H 0.39029 0.88105 0.55904 0.0
H2683 H 0.32792 0.83145 0.2425 0.0
H2684 H 0.15357 0.31316 0.27429 0.0
H2685 H 0.14174 0.3448 0.30928 0.0
H2686 H 0.21274 0.35391 0.37935 0.0
H2687 H 0.22512 0.32235 0.34383 0.0
H2688 H 0.16287 0.34173 0.39989 0.0
H2689 H 0.21253 0.40496 0.35156 0.0
H2690 H 0.22807 0.42307 0.30745 0.0
H2691 H 0.14762 0.42072 0.26748 0.0
H2692 H 0.13152 0.40234 0.31119 0.0
H2693 H 0.10862 0.43446 0.4837 0.0
H2694 H 0.13903 0.41265 0.46335 0.0
H2695 H 0.08774 0.39317 0.37093 0.0
H2696 H 0.05762 0.41476 0.39087 0.0
H2697 H 0.14048 0.41859 0.37137 0.0
H2698 H 0.09049 0.34163 0.40475 0.0
H2699 H 0.07278 0.31144 0.4381 0.0
H2700 H 0.15035 0.33482 0.50044 0.0
H2701 H 0.16862 0.36473 0.46699 0.0
C2702 C 0.16681 0.32201 0.29705 0.0
C2703 C 0.19012 0.31515 0.30653 0.0
C2704 C 0.16017 0.34029 0.31688 0.0
C2705 C 0.17653 0.35185 0.34674 0.0
C2706 C 0.20004 0.34533 0.35624 0.0
C2707 C 0.20703 0.32732 0.33604 0.0
C2708 C 0.16709 0.36859 0.36867 0.0
C2709 C 0.15881 0.35913 0.39443 0.0
C2710 C 0.16125 0.39081 0.36087 0.0
C2711 C 0.17082 0.40223 0.33469 0.0
C2712 C 0.19812 0.4082 0.33331 0.0
C2713 C 0.20704 0.41854 0.30838 0.0
C2714 C 0.18884 0.42303 0.28468 0.0
C2715 C 0.1617 0.41727 0.2859 0.0
C2716 C 0.15268 0.40696 0.3108 0.0
C2717 C 0.10372 0.42516 0.45915 0.0
C2718 C 0.08071 0.42627 0.43888 0.0
C2719 C 0.121 0.41265 0.44762 0.0
C2720 C 0.11567 0.40141 0.4156 0.0
C2721 C 0.09225 0.40176 0.39569 0.0
C2722 C 0.07491 0.41393 0.4072 0.0
C2723 C 0.13521 0.39102 0.40187 0.0
C2724 C 0.14546 0.40183 0.37769 0.0
C2725 C 0.14257 0.36979 0.41082 0.0
C2726 C 0.13076 0.35568 0.43374 0.0
C2727 C 0.10358 0.34074 0.42596 0.0
C2728 C 0.09356 0.32342 0.44461 0.0
C2729 C 0.1105 0.32111 0.47124 0.0
C2730 C 0.13731 0.33655 0.47972 0.0
C2731 C 0.14752 0.35365 0.46091 0.0
H2732 H 0.10285 0.30733 0.48533 0.0
H2733 H 0.19577 0.43099 0.26537 0.0
H2734 H 0.33393 0.21317 0.67089 0.0
H2735 H 0.35763 0.19146 0.63796 0.0
H2736 H 0.29511 0.11918 0.62646 0.0
H2737 H 0.27209 0.14052 0.66006 0.0
H2738 H 0.34188 0.11325 0.64488 0.0
H2739 H 0.30509 0.15455 0.56596 0.0
H2740 H 0.29755 0.19173 0.54464 0.0
H2741 H 0.38258 0.22507 0.55452 0.0
H2742 H 0.39065 0.18827 0.57635 0.0
H2743 H 0.37963 0.03242 0.53657 0.0
H2744 H 0.35374 0.05923 0.55653 0.0
H2745 H 0.42176 0.12732 0.56959 0.0
H2746 H 0.4476 0.10065 0.54882 0.0
H2747 H 0.37468 0.13733 0.55092 0.0
H2748 H 0.41232 0.09797 0.62929 0.0
H2749 H 0.4221 0.06274 0.65321 0.0
H2750 H 0.33792 0.02782 0.64746 0.0
H2751 H 0.32757 0.06262 0.62295 0.0
C2752 C 0.32507 0.19277 0.66075 0.0
C2753 C 0.30134 0.17844 0.66812 0.0
C2754 C 0.33857 0.18038 0.64193 0.0
C2755 C 0.32814 0.15365 0.62971 0.0
C2756 C 0.30367 0.13974 0.6358 0.0
C2757 C 0.2905 0.15197 0.65494 0.0
C2758 C 0.34347 0.13949 0.61274 0.0
C2759 C 0.34861 0.11827 0.62399 0.0
C2760 C 0.35335 0.14674 0.58634 0.0
C2761 C 0.34848 0.16879 0.57309 0.0
C2762 C 0.32219 0.16991 0.56382 0.0
C2763 C 0.31782 0.1909 0.55161 0.0
C2764 C 0.33958 0.21079 0.54832 0.0
C2765 C 0.36575 0.20968 0.55714 0.0
C2766 C 0.37023 0.18876 0.56941 0.0
C2767 C 0.38882 0.05317 0.54272 0.0
C2768 C 0.41576 0.06441 0.54145 0.0
C2769 C 0.37409 0.06844 0.55444 0.0
C2770 C 0.38607 0.09516 0.56521 0.0
C2771 C 0.41223 0.1067 0.56167 0.0
C2772 C 0.427 0.09144 0.54996 0.0
C2773 C 0.37212 0.11064 0.58247 0.0
C2774 C 0.36764 0.13222 0.5716 0.0
C2775 C 0.36302 0.10394 0.60948 0.0
C2776 C 0.36914 0.08276 0.62388 0.0
C2777 C 0.39586 0.08263 0.63278 0.0
C2778 C 0.40151 0.06276 0.64651 0.0
C2779 C 0.38063 0.04301 0.65176 0.0
C2780 C 0.35406 0.0431 0.64331 0.0
C2781 C 0.34829 0.0629 0.62948 0.0
H2782 H 0.38506 0.02767 0.66245 0.0
H2783 H 0.33615 0.22702 0.53886 0.0
H2784 H 0.76334 0.26831 0.6347 0.0
H2785 H 0.78256 0.3087 0.61707 0.0
H2786 H 0.84882 0.33152 0.69757 0.0
H2787 H 0.82997 0.29155 0.71478 0.0
H2788 H 0.83691 0.37316 0.6825 0.0
H2789 H 0.85366 0.29756 0.6342 0.0
H2790 H 0.84303 0.25302 0.60485 0.0
H2791 H 0.80313 0.27302 0.52343 0.0
H2792 H 0.81294 0.31762 0.55261 0.0
H2793 H 0.95171 0.435 0.62207 0.0
H2794 H 0.91893 0.40827 0.64661 0.0
H2795 H 0.85614 0.39932 0.56625 0.0
H2796 H 0.88872 0.42514 0.54097 0.0
H2797 H 0.86204 0.35325 0.58032 0.0
H2798 H 0.85723 0.43493 0.63417 0.0
H2799 H 0.87724 0.47834 0.66766 0.0
H2800 H 0.9062 0.44544 0.74382 0.0
H2801 H 0.88672 0.40181 0.71062 0.0
C2802 C 0.78179 0.28224 0.64862 0.0
C2803 C 0.79586 0.27674 0.67528 0.0
C2804 C 0.79259 0.30525 0.63881 0.0
C2805 C 0.81725 0.32283 0.65591 0.0
C2806 C 0.82985 0.31819 0.68405 0.0
C2807 C 0.81934 0.29518 0.69351 0.0
C2808 C 0.83245 0.34361 0.64229 0.0
C2809 C 0.84227 0.36897 0.66004 0.0
C2810 C 0.8399 0.33778 0.61339 0.0
C2811 C 0.83355 0.31084 0.59582 0.0
C2812 C 0.84225 0.29239 0.61019 0.0
C2813 C 0.83643 0.26714 0.59357 0.0
C2814 C 0.82229 0.26016 0.56234 0.0
C2815 C 0.81396 0.27843 0.54768 0.0
C2816 C 0.81958 0.30369 0.56429 0.0
C2817 C 0.93085 0.4274 0.60974 0.0
C2818 C 0.92272 0.43161 0.57944 0.0
C2819 C 0.91219 0.41241 0.62387 0.0
C2820 C 0.88521 0.40195 0.608 0.0
C2821 C 0.87696 0.40714 0.57843 0.0
C2822 C 0.89557 0.42171 0.56408 0.0
C2823 C 0.86612 0.38294 0.62014 0.0
C2824 C 0.85595 0.35773 0.60227 0.0
C2825 C 0.85944 0.38878 0.6495 0.0
C2826 C 0.87061 0.41504 0.66976 0.0
C2827 C 0.86798 0.43693 0.65799 0.0
C2828 C 0.87922 0.4616 0.67695 0.0
C2829 C 0.89301 0.46467 0.70785 0.0
C2830 C 0.89551 0.44304 0.71988 0.0
C2831 C 0.88432 0.41832 0.701 0.0
H2832 H 0.90172 0.48379 0.72246 0.0
H2833 H 0.8179 0.24062 0.54946 0.0
H2834 H 0.1648 0.70517 0.7052 0.0
H2835 H 0.13546 0.66442 0.67476 0.0
H2836 H 0.20035 0.63075 0.68814 0.0
H2837 H 0.23093 0.67317 0.71693 0.0
H2838 H 0.1801 0.62901 0.62717 0.0
H2839 H 0.14175 0.61352 0.71714 0.0
H2840 H 0.12552 0.63196 0.76168 0.0
H2841 H 0.05776 0.63783 0.69849 0.0
H2842 H 0.07476 0.62232 0.65345 0.0
H2843 H 0.07066 0.5185 0.53462 0.0
H2844 H 0.113 0.55145 0.56064 0.0
H2845 H 0.07072 0.60787 0.57283 0.0
H2846 H 0.02826 0.57467 0.54776 0.0
H2847 H 0.08426 0.58677 0.6253 0.0
H2848 H 0.12266 0.62142 0.54445 0.0
H2849 H 0.13738 0.61695 0.4946 0.0
H2850 H 0.19982 0.58824 0.53567 0.0
H2851 H 0.18449 0.5911 0.5856 0.0
C2852 C 0.17263 0.68888 0.7025 0.0
C2853 C 0.20002 0.69211 0.71216 0.0
C2854 C 0.15575 0.66544 0.68546 0.0
C2855 C 0.16573 0.64453 0.67941 0.0
C2856 C 0.19245 0.64681 0.69274 0.0
C2857 C 0.20973 0.67079 0.70926 0.0
C2858 C 0.14936 0.62265 0.65447 0.0
C2859 C 0.15927 0.61917 0.62692 0.0
C2860 C 0.12197 0.61079 0.65421 0.0
C2861 C 0.10965 0.61646 0.68159 0.0
C2862 C 0.12329 0.61854 0.7126 0.0
C2863 C 0.11405 0.6287 0.73802 0.0
C2864 C 0.09041 0.6355 0.73296 0.0
C2865 C 0.07599 0.63237 0.70242 0.0
C2866 C 0.08558 0.62311 0.67687 0.0
C2867 C 0.07081 0.53833 0.54118 0.0
C2868 C 0.04675 0.5444 0.53994 0.0
C2869 C 0.09492 0.5571 0.55583 0.0
C2870 C 0.09453 0.58162 0.56925 0.0
C2871 C 0.07103 0.58877 0.56274 0.0
C2872 C 0.04687 0.5699 0.54866 0.0
C2873 C 0.11446 0.59553 0.59784 0.0
C2874 C 0.10522 0.5964 0.62589 0.0
C2875 C 0.14181 0.60643 0.59814 0.0
C2876 C 0.15206 0.60598 0.5687 0.0
C2877 C 0.13933 0.61383 0.54286 0.0
C2878 C 0.14782 0.61163 0.51453 0.0
C2879 C 0.16956 0.60237 0.51188 0.0
C2880 C 0.18292 0.59534 0.5377 0.0
C2881 C 0.17425 0.59713 0.56602 0.0
H2882 H 0.17606 0.60066 0.48986 0.0
H2883 H 0.08341 0.64343 0.75271 0.0
loop_
_geom_bond_atom_site_label_1
_geom_bond_atom_site_label_2
_geom_bond_distance
_geom_bond_site_symmetry_2
_ccdc_geom_bond_type
Zn0 O6 1.969 . S
Zn0 O7 1.965 . S
Zn0 O11 2.024 . S
Zn0 O16 1.969 . S
Zn1 O8 1.969 . S
Zn1 O14 1.969 . S
Zn1 O15 1.965 . S
Zn1 O17 2.024 . S
C2 O3 1.229 . S
C2 O11 1.058 . S
O3 C2 1.229 . S
C4 O5 1.229 . S
C4 O17 1.058 . S
O5 C4 1.229 . S
O6 Zn0 1.969 . S
O6 C9 1.267 . S
O7 Zn0 1.965 . S
O7 C18 1.260 . S
O8 Zn1 1.969 . S
O8 C18 1.258 . S
C9 O6 1.267 . S
C9 O10 1.228 . S
O10 C9 1.228 . S
O11 Zn0 2.024 . S
O11 C2 1.058 . S
C12 O13 1.228 . S
C12 O14 1.267 . S
O13 C12 1.228 . S
O14 Zn1 1.969 . S
O14 C12 1.267 . S
O15 Zn1 1.965 . S
O15 C19 1.260 . S
O16 Zn0 1.969 . S
O16 C19 1.258 . S
O17 Zn1 2.024 . S
O17 C4 1.058 . S
C18 O7 1.260 . S
C18 O8 1.258 . S
C19 O15 1.260 . S
C19 O16 1.258 . S
Zn20 O26 1.969 . S
Zn20 O27 1.965 . S
Zn20 O31 2.024 . S
Zn20 O36 1.969 . S
Zn21 O28 1.969 . S
Zn21 O34 1.969 . S
Zn21 O35 1.965 . S
Zn21 O37 2.024 . S
C22 O23 1.229 . S
C22 O31 1.058 . S
O23 C22 1.229 . S
C24 O25 1.229 . S
C24 O37 1.058 . S
O25 C24 1.229 . S
O26 Zn20 1.969 . S
O26 C29 1.267 . S
O27 Zn20 1.965 . S
O27 C38 1.260 . S
O28 Zn21 1.969 . S
O28 C38 1.258 . S
C29 O26 1.267 . S
C29 O30 1.228 . S
O30 C29 1.228 . S
O31 Zn20 2.024 . S
O31 C22 1.058 . S
C32 O33 1.228 . S
C32 O34 1.267 . S
O33 C32 1.228 . S
O34 Zn21 1.969 . S
O34 C32 1.267 . S
O35 Zn21 1.965 . S
O35 C39 1.260 . S
O36 Zn20 1.969 . S
O36 C39 1.258 . S
O37 Zn21 2.024 . S
O37 C24 1.058 . S
C38 O27 1.260 . S
C38 O28 1.258 . S
C39 O35 1.260 . S
C39 O36 1.258 . S
Zn40 O46 1.969 . S
Zn40 O47 1.965 . S
Zn40 O51 2.024 . S
Zn40 O56 1.969 . S
Zn41 O48 1.969 . S
Zn41 O54 1.969 . S
Zn41 O55 1.965 . S
Zn41 O57 2.024 . S
C42 O43 1.229 . S
C42 O51 1.058 . S
O43 C42 1.229 . S
C44 O45 1.229 . S
C44 O57 1.058 . S
O45 C44 1.229 . S
O46 Zn40 1.969 . S
O46 C49 1.267 . S
O47 Zn40 1.965 . S
O47 C58 1.260 . S
O48 Zn41 1.969 . S
O48 C58 1.258 . S
C49 O46 1.267 . S
C49 O50 1.228 . S
O50 C49 1.228 . S
O51 Zn40 2.024 . S
O51 C42 1.058 . S
C52 O53 1.228 . S
C52 O54 1.267 . S
O53 C52 1.228 . S
O54 Zn41 1.969 . S
O54 C52 1.267 . S
O55 Zn41 1.965 . S
O55 C59 1.260 . S
O56 Zn40 1.969 . S
O56 C59 1.258 . S
O57 Zn41 2.024 . S
O57 C44 1.058 . S
C58 O47 1.260 . S
C58 O48 1.258 . S
C59 O55 1.260 . S
C59 O56 1.258 . S
Zn60 O66 1.969 . S
Zn60 O67 1.965 . S
Zn60 O71 2.024 . S
Zn60 O76 1.969 . S
Zn61 O68 1.969 . S
Zn61 O74 1.969 . S
Zn61 O75 1.965 . S
Zn61 O77 2.024 . S
C62 O63 1.229 . S
C62 O71 1.058 . S
O63 C62 1.229 . S
C64 O65 1.229 . S
C64 O77 1.058 . S
O65 C64 1.229 . S
O66 Zn60 1.969 . S
O66 C69 1.267 . S
O67 Zn60 1.965 . S
O67 C78 1.260 . S
O68 Zn61 1.969 . S
O68 C78 1.258 . S
C69 O66 1.267 . S
C69 O70 1.228 . S
O70 C69 1.228 . S
O71 Zn60 2.024 . S
O71 C62 1.058 . S
C72 O73 1.228 . S
C72 O74 1.267 . S
O73 C72 1.228 . S
O74 Zn61 1.969 . S
O74 C72 1.267 . S
O75 Zn61 1.965 . S
O75 C79 1.260 . S
O76 Zn60 1.969 . S
O76 C79 1.258 . S
O77 Zn61 2.024 . S
O77 C64 1.058 . S
C78 O67 1.260 . S
C78 O68 1.258 . S
C79 O75 1.260 . S
C79 O76 1.258 . S
Zn80 O86 1.969 . S
Zn80 O87 1.965 . S
Zn80 O91 2.024 . S
Zn80 O96 1.969 . S
Zn81 O88 1.969 . S
Zn81 O94 1.969 . S
Zn81 O95 1.965 . S
Zn81 O97 2.024 . S
C82 O83 1.229 . S
C82 O91 1.058 . S
O83 C82 1.229 . S
C84 O85 1.229 . S
C84 O97 1.058 . S
O85 C84 1.229 . S
O86 Zn80 1.969 . S
O86 C89 1.267 . S
O87 Zn80 1.965 . S
O87 C98 1.260 . S
O88 Zn81 1.969 . S
O88 C98 1.258 . S
C89 O86 1.267 . S
C89 O90 1.228 . S
O90 C89 1.228 . S
O91 Zn80 2.024 . S
O91 C82 1.058 . S
C92 O93 1.228 . S
C92 O94 1.267 . S
O93 C92 1.228 . S
O94 Zn81 1.969 . S
O94 C92 1.267 . S
O95 Zn81 1.965 . S
O95 C99 1.260 . S
O96 Zn80 1.969 . S
O96 C99 1.258 . S
O97 Zn81 2.024 . S
O97 C84 1.058 . S
C98 O87 1.260 . S
C98 O88 1.258 . S
C99 O95 1.260 . S
C99 O96 1.258 . S
Zn100 O106 1.969 . S
Zn100 O107 1.965 . S
Zn100 O111 2.024 . S
Zn100 O116 1.969 . S
Zn101 O108 1.969 . S
Zn101 O114 1.969 . S
Zn101 O115 1.965 . S
Zn101 O117 2.024 . S
C102 O103 1.229 . S
C102 O111 1.058 . S
O103 C102 1.229 . S
C104 O105 1.229 . S
C104 O117 1.058 . S
O105 C104 1.229 . S
O106 Zn100 1.969 . S
O106 C109 1.267 . S
O107 Zn100 1.965 . S
O107 C118 1.260 . S
O108 Zn101 1.969 . S
O108 C118 1.258 . S
C109 O106 1.267 . S
C109 O110 1.228 . S
O110 C109 1.228 . S
O111 Zn100 2.024 . S
O111 C102 1.058 . S
C112 O113 1.228 . S
C112 O114 1.267 . S
O113 C112 1.228 . S
O114 Zn101 1.969 . S
O114 C112 1.267 . S
O115 Zn101 1.965 . S
O115 C119 1.260 . S
O116 Zn100 1.969 . S
O116 C119 1.258 . S
O117 Zn101 2.024 . S
O117 C104 1.058 . S
C118 O107 1.260 . S
C118 O108 1.258 . S
C119 O115 1.260 . S
C119 O116 1.258 . S
Zn120 O126 1.969 . S
Zn120 O127 1.965 . S
Zn120 O131 2.024 . S
Zn120 O136 1.969 . S
Zn121 O128 1.969 . S
Zn121 O134 1.969 . S
Zn121 O135 1.965 . S
Zn121 O137 2.024 . S
C122 O123 1.229 . S
C122 O131 1.058 . S
O123 C122 1.229 . S
C124 O125 1.229 . S
C124 O137 1.058 . S
O125 C124 1.229 . S
O126 Zn120 1.969 . S
O126 C129 1.267 . S
O127 Zn120 1.965 . S
O127 C138 1.260 . S
O128 Zn121 1.969 . S
O128 C138 1.258 . S
C129 O126 1.267 . S
C129 O130 1.228 . S
O130 C129 1.228 . S
O131 Zn120 2.024 . S
O131 C122 1.058 . S
C132 O133 1.228 . S
C132 O134 1.267 . S
O133 C132 1.228 . S
O134 Zn121 1.969 . S
O134 C132 1.267 . S
O135 Zn121 1.965 . S
O135 C139 1.260 . S
O136 Zn120 1.969 . S
O136 C139 1.258 . S
O137 Zn121 2.024 . S
O137 C124 1.058 . S
C138 O127 1.260 . S
C138 O128 1.258 . S
C139 O135 1.260 . S
C139 O136 1.258 . S
Zn140 O146 1.969 . S
Zn140 O147 1.965 . S
Zn140 O151 2.024 . S
Zn140 O156 1.969 . S
Zn141 O148 1.969 . S
Zn141 O154 1.969 . S
Zn141 O155 1.965 . S
Zn141 O157 2.024 . S
C142 O143 1.229 . S
C142 O151 1.058 . S
O143 C142 1.229 . S
C144 O145 1.229 . S
C144 O157 1.058 . S
O145 C144 1.229 . S
O146 Zn140 1.969 . S
O146 C149 1.267 . S
O147 Zn140 1.965 . S
O147 C158 1.260 . S
O148 Zn141 1.969 . S
O148 C158 1.258 . S
C149 O146 1.267 . S
C149 O150 1.228 . S
O150 C149 1.228 . S
O151 Zn140 2.024 . S
O151 C142 1.058 . S
C152 O153 1.228 . S
C152 O154 1.267 . S
O153 C152 1.228 . S
O154 Zn141 1.969 . S
O154 C152 1.267 . S
O155 Zn141 1.965 . S
O155 C159 1.260 . S
O156 Zn140 1.969 . S
O156 C159 1.258 . S
O157 Zn141 2.024 . S
O157 C144 1.058 . S
C158 O147 1.260 . S
C158 O148 1.258 . S
C159 O155 1.260 . S
C159 O156 1.258 . S
Cd160 N163 2.334 1_655 S
Cd160 N189 2.304 1_565 S
Cd160 O196 2.268 . S
Cd160 O199 2.273 1_665 S
Cd160 O200 2.417 . S
Cd160 O201 2.330 . S
Cd161 N176 2.304 1_455 S
Cd161 N180 2.334 1_545 S
Cd161 O197 2.273 1_445 S
Cd161 O198 2.268 . S
Cd161 O202 2.417 . S
Cd161 O203 2.330 . S
C162 N163 1.332 . S
C162 C166 1.381 . S
C162 H168 0.931 . S
N163 Cd160 2.334 1_455 S
N163 C162 1.332 . S
N163 C167 1.328 . S
C164 C165 1.396 . S
C164 C167 1.378 . S
C164 H206 0.931 . S
C165 C164 1.396 . S
C165 C166 1.382 . S
C166 C162 1.381 . S
C166 C165 1.382 . S
C166 H207 0.930 . S
C167 N163 1.328 . S
C167 C164 1.378 . S
C167 H169 0.930 1_455 S
H168 C162 0.931 . S
H169 C167 0.930 1_655 S
C170 O196 1.238 . S
C170 O197 1.253 . S
C171 C172 1.379 . S
C171 N176 1.337 . S
C171 H177 0.929 . S
C172 C171 1.379 . S
C172 C173 1.380 . S
C172 H208 0.929 . S
C173 C172 1.380 . S
C173 C174 1.399 . S
C174 C173 1.399 . S
C174 C175 1.376 . S
C174 H209 0.931 . S
C175 C174 1.376 . S
C175 N176 1.338 . S
C175 H178 0.930 1_655 S
N176 Cd161 2.304 1_655 S
N176 C171 1.337 . S
N176 C175 1.338 . S
H177 C171 0.929 . S
H178 C175 0.930 1_455 S
C179 N180 1.332 . S
C179 C183 1.381 . S
C179 H185 0.931 . S
N180 Cd161 2.334 1_565 S
N180 C179 1.332 . S
N180 C184 1.328 . S
C181 C182 1.396 . S
C181 C184 1.378 . S
C181 H210 0.931 . S
C182 C181 1.396 . S
C182 C183 1.382 . S
C183 C179 1.381 . S
C183 C182 1.382 . S
C183 H211 0.930 . S
C184 N180 1.328 . S
C184 C181 1.378 . S
C184 H186 0.930 1_565 S
H185 C179 0.931 . S
H186 C184 0.930 1_545 S
C187 O198 1.238 . S
C187 O199 1.253 . S
C188 O200 1.239 . S
C188 O201 1.230 . S
N189 Cd160 2.304 1_545 S
N189 C190 1.337 . S
N189 C194 1.338 . S
C190 N189 1.337 . S
C190 C191 1.379 . S
C190 H204 0.929 . S
C191 C190 1.379 . S
C191 C192 1.380 . S
C191 H212 0.929 . S
C192 C191 1.380 . S
C192 C193 1.399 . S
C193 C192 1.399 . S
C193 C194 1.376 . S
C193 H213 0.931 . S
C194 N189 1.338 . S
C194 C193 1.376 . S
C194 H205 0.930 1_545 S
C195 O202 1.239 . S
C195 O203 1.230 . S
O196 Cd160 2.268 . S
O196 C170 1.238 . S
O197 Cd161 2.273 1_665 S
O197 C170 1.253 . S
O198 Cd161 2.268 . S
O198 C187 1.238 . S
O199 Cd160 2.273 1_445 S
O199 C187 1.253 . S
O200 Cd160 2.417 . S
O200 C188 1.239 . S
O201 Cd160 2.330 . S
O201 C188 1.230 . S
O202 Cd161 2.417 . S
O202 C195 1.239 . S
O203 Cd161 2.330 . S
O203 C195 1.230 . S
H204 C190 0.929 . S
H205 C194 0.930 1_565 S
H206 C164 0.931 . S
H207 C166 0.930 . S
H208 C172 0.929 . S
H209 C174 0.931 . S
H210 C181 0.931 . S
H211 C183 0.930 . S
H212 C191 0.929 . S
H213 C193 0.931 . S
Cd214 N217 2.334 . S
Cd214 N243 2.304 1_565 S
Cd214 O250 2.268 1_554 S
Cd214 O253 2.273 1_565 S
Cd214 O254 2.417 . S
Cd214 O255 2.330 . S
Cd215 N230 2.304 . S
Cd215 N234 2.334 1_545 S
Cd215 O251 2.273 1_545 S
Cd215 O252 2.268 1_556 S
Cd215 O256 2.417 . S
Cd215 O257 2.330 . S
C216 N217 1.332 . S
C216 C220 1.381 . S
C216 H222 0.931 . S
N217 Cd214 2.334 . S
N217 C216 1.332 . S
N217 C221 1.328 . S
C218 C219 1.396 . S
C218 C221 1.378 . S
C218 H260 0.931 1_554 S
C219 C218 1.396 . S
C219 C220 1.382 . S
C220 C216 1.381 . S
C220 C219 1.382 . S
C220 H261 0.930 . S
C221 N217 1.328 . S
C221 C218 1.378 . S
C221 H223 0.930 1_554 S
H222 C216 0.931 . S
H223 C221 0.930 1_556 S
C224 O250 1.238 . S
C224 O251 1.253 . S
C225 C226 1.379 . S
C225 N230 1.337 . S
C225 H231 0.929 . S
C226 C225 1.379 . S
C226 C227 1.380 . S
C226 H262 0.929 . S
C227 C226 1.380 . S
C227 C228 1.399 . S
C228 C227 1.399 . S
C228 C229 1.376 . S
C228 H263 0.931 1_556 S
C229 C228 1.376 . S
C229 N230 1.338 . S
C229 H232 0.930 1_556 S
N230 Cd215 2.304 . S
N230 C225 1.337 . S
N230 C229 1.338 . S
H231 C225 0.929 . S
H232 C229 0.930 1_554 S
C233 N234 1.332 . S
C233 C237 1.381 . S
C233 H239 0.931 . S
N234 Cd215 2.334 1_565 S
N234 C233 1.332 . S
N234 C238 1.328 . S
C235 C236 1.396 . S
C235 C238 1.378 . S
C235 H264 0.931 1_556 S
C236 C235 1.396 . S
C236 C237 1.382 . S
C237 C233 1.381 . S
C237 C236 1.382 . S
C237 H265 0.930 . S
C238 N234 1.328 . S
C238 C235 1.378 . S
C238 H240 0.930 1_566 S
H239 C233 0.931 . S
H240 C238 0.930 1_544 S
C241 O252 1.238 . S
C241 O253 1.253 . S
C242 O254 1.239 . S
C242 O255 1.230 . S
N243 Cd214 2.304 1_545 S
N243 C244 1.337 . S
N243 C248 1.338 . S
C244 N243 1.337 . S
C244 C245 1.379 . S
C244 H258 0.929 . S
C245 C244 1.379 . S
C245 C246 1.380 . S
C245 H266 0.929 . S
C246 C245 1.380 . S
C246 C247 1.399 . S
C247 C246 1.399 . S
C247 C248 1.376 . S
C247 H267 0.931 1_554 S
C248 N243 1.338 . S
C248 C247 1.376 . S
C248 H259 0.930 1_544 S
C249 O256 1.239 . S
C249 O257 1.230 . S
O250 Cd214 2.268 1_556 S
O250 C224 1.238 . S
O251 Cd215 2.273 1_565 S
O251 C224 1.253 . S
O252 Cd215 2.268 1_554 S
O252 C241 1.238 . S
O253 Cd214 2.273 1_545 S
O253 C241 1.253 . S
O254 Cd214 2.417 . S
O254 C242 1.239 . S
O255 Cd214 2.330 . S
O255 C242 1.230 . S
O256 Cd215 2.417 . S
O256 C249 1.239 . S
O257 Cd215 2.330 . S
O257 C249 1.230 . S
H258 C244 0.929 . S
H259 C248 0.930 1_566 S
H260 C218 0.931 1_556 S
H261 C220 0.930 . S
H262 C226 0.929 . S
H263 C228 0.931 1_554 S
H264 C235 0.931 1_554 S
H265 C237 0.930 . S
H266 C245 0.929 . S
H267 C247 0.931 1_556 S
Cd268 N271 2.334 1_655 S
Cd268 N297 2.304 . S
Cd268 O304 2.268 1_554 S
Cd268 O307 2.273 1_655 S
Cd268 O308 2.417 . S
Cd268 O309 2.330 . S
Cd269 N284 2.304 1_455 S
Cd269 N288 2.334 . S
Cd269 O305 2.273 1_455 S
Cd269 O306 2.268 1_556 S
Cd269 O310 2.417 . S
Cd269 O311 2.330 . S
C270 N271 1.332 . S
C270 C274 1.381 . S
C270 H276 0.931 . S
N271 Cd268 2.334 1_455 S
N271 C270 1.332 . S
N271 C275 1.328 . S
C272 C273 1.396 . S
C272 C275 1.378 . S
C272 H314 0.931 1_554 S
C273 C272 1.396 . S
C273 C274 1.382 . S
C274 C270 1.381 . S
C274 C273 1.382 . S
C274 H315 0.930 . S
C275 N271 1.328 . S
C275 C272 1.378 . S
C275 H277 0.930 1_454 S
H276 C270 0.931 . S
H277 C275 0.930 1_656 S
C278 O304 1.238 . S
C278 O305 1.253 . S
C279 C280 1.379 . S
C279 N284 1.337 . S
C279 H285 0.929 . S
C280 C279 1.379 . S
C280 C281 1.380 . S
C280 H316 0.929 . S
C281 C280 1.380 . S
C281 C282 1.399 . S
C282 C281 1.399 . S
C282 C283 1.376 . S
C282 H317 0.931 1_556 S
C283 C282 1.376 . S
C283 N284 1.338 . S
C283 H286 0.930 1_656 S
N284 Cd269 2.304 1_655 S
N284 C279 1.337 . S
N284 C283 1.338 . S
H285 C279 0.929 . S
H286 C283 0.930 1_454 S
C287 N288 1.332 . S
C287 C291 1.381 . S
C287 H293 0.931 . S
N288 Cd269 2.334 . S
N288 C287 1.332 . S
N288 C292 1.328 . S
C289 C290 1.396 . S
C289 C292 1.378 . S
C289 H318 0.931 1_556 S
C290 C289 1.396 . S
C290 C291 1.382 . S
C291 C287 1.381 . S
C291 C290 1.382 . S
C291 H319 0.930 . S
C292 N288 1.328 . S
C292 C289 1.378 . S
C292 H294 0.930 1_556 S
H293 C287 0.931 . S
H294 C292 0.930 1_554 S
C295 O306 1.238 . S
C295 O307 1.253 . S
C296 O308 1.239 . S
C296 O309 1.230 . S
N297 Cd268 2.304 . S
N297 C298 1.337 . S
N297 C302 1.338 . S
C298 N297 1.337 . S
C298 C299 1.379 . S
C298 H312 0.929 . S
C299 C298 1.379 . S
C299 C300 1.380 . S
C299 H320 0.929 . S
C300 C299 1.380 . S
C300 C301 1.399 . S
C301 C300 1.399 . S
C301 C302 1.376 . S
C301 H321 0.931 1_554 S
C302 N297 1.338 . S
C302 C301 1.376 . S
C302 H313 0.930 1_554 S
C303 O310 1.239 . S
C303 O311 1.230 . S
O304 Cd268 2.268 1_556 S
O304 C278 1.238 . S
O305 Cd269 2.273 1_655 S
O305 C278 1.253 . S
O306 Cd269 2.268 1_554 S
O306 C295 1.238 . S
O307 Cd268 2.273 1_455 S
O307 C295 1.253 . S
O308 Cd268 2.417 . S
O308 C296 1.239 . S
O309 Cd268 2.330 . S
O309 C296 1.230 . S
O310 Cd269 2.417 . S
O310 C303 1.239 . S
O311 Cd269 2.330 . S
O311 C303 1.230 . S
H312 C298 0.929 . S
H313 C302 0.930 1_556 S
H314 C272 0.931 1_556 S
H315 C274 0.930 . S
H316 C280 0.929 . S
H317 C282 0.931 1_554 S
H318 C289 0.931 1_554 S
H319 C291 0.930 . S
H320 C299 0.929 . S
H321 C301 0.931 1_556 S
Cd322 N325 2.334 . S
Cd322 N351 2.304 . S
Cd322 O358 2.268 1_554 S
Cd322 O361 2.273 . S
Cd322 O362 2.417 . S
Cd322 O363 2.330 . S
Cd323 N338 2.304 . S
Cd323 N342 2.334 . S
Cd323 O359 2.273 . S
Cd323 O360 2.268 1_556 S
Cd323 O364 2.417 . S
Cd323 O365 2.330 . S
C324 N325 1.332 . S
C324 C328 1.381 . S
C324 H330 0.931 . S
N325 Cd322 2.334 . S
N325 C324 1.332 . S
N325 C329 1.328 . S
C326 C327 1.396 . S
C326 C329 1.378 . S
C326 H368 0.931 1_554 S
C327 C326 1.396 . S
C327 C328 1.382 . S
C328 C324 1.381 . S
C328 C327 1.382 . S
C328 H369 0.930 . S
C329 N325 1.328 . S
C329 C326 1.378 . S
C329 H331 0.930 1_554 S
H330 C324 0.931 . S
H331 C329 0.930 1_556 S
C332 O358 1.238 . S
C332 O359 1.253 . S
C333 C334 1.379 . S
C333 N338 1.337 . S
C333 H339 0.929 . S
C334 C333 1.379 . S
C334 C335 1.380 . S
C334 H370 0.929 . S
C335 C334 1.380 . S
C335 C336 1.399 . S
C336 C335 1.399 . S
C336 C337 1.376 . S
C336 H371 0.931 1_556 S
C337 C336 1.376 . S
C337 N338 1.338 . S
C337 H340 0.930 1_556 S
N338 Cd323 2.304 . S
N338 C333 1.337 . S
N338 C337 1.338 . S
H339 C333 0.929 . S
H340 C337 0.930 1_554 S
C341 N342 1.332 . S
C341 C345 1.381 . S
C341 H347 0.931 . S
N342 Cd323 2.334 . S
N342 C341 1.332 . S
N342 C346 1.328 . S
C343 C344 1.396 . S
C343 C346 1.378 . S
C343 H372 0.931 1_556 S
C344 C343 1.396 . S
C344 C345 1.382 . S
C345 C341 1.381 . S
C345 C344 1.382 . S
C345 H373 0.930 . S
C346 N342 1.328 . S
C346 C343 1.378 . S
C346 H348 0.930 1_556 S
H347 C341 0.931 . S
H348 C346 0.930 1_554 S
C349 O360 1.238 . S
C349 O361 1.253 . S
C350 O362 1.239 . S
C350 O363 1.230 . S
N351 Cd322 2.304 . S
N351 C352 1.337 . S
N351 C356 1.338 . S
C352 N351 1.337 . S
C352 C353 1.379 . S
C352 H366 0.929 . S
C353 C352 1.379 . S
C353 C354 1.380 . S
C353 H374 0.929 . S
C354 C353 1.380 . S
C354 C355 1.399 . S
C355 C354 1.399 . S
C355 C356 1.376 . S
C355 H375 0.931 1_554 S
C356 N351 1.338 . S
C356 C355 1.376 . S
C356 H367 0.930 1_554 S
C357 O364 1.239 . S
C357 O365 1.230 . S
O358 Cd322 2.268 1_556 S
O358 C332 1.238 . S
O359 Cd323 2.273 . S
O359 C332 1.253 . S
O360 Cd323 2.268 1_554 S
O360 C349 1.238 . S
O361 Cd322 2.273 . S
O361 C349 1.253 . S
O362 Cd322 2.417 . S
O362 C350 1.239 . S
O363 Cd322 2.330 . S
O363 C350 1.230 . S
O364 Cd323 2.417 . S
O364 C357 1.239 . S
O365 Cd323 2.330 . S
O365 C357 1.230 . S
H366 C352 0.929 . S
H367 C356 0.930 1_556 S
H368 C326 0.931 1_556 S
H369 C328 0.930 . S
H370 C334 0.929 . S
H371 C336 0.931 1_554 S
H372 C343 0.931 1_554 S
H373 C345 0.930 . S
H374 C353 0.929 . S
H375 C355 0.931 1_556 S
Cd376 N379 2.334 1_655 S
Cd376 N405 2.304 . S
Cd376 O412 2.268 . S
Cd376 O415 2.273 1_655 S
Cd376 O416 2.417 . S
Cd376 O417 2.330 . S
Cd377 N392 2.304 1_455 S
Cd377 N396 2.334 . S
Cd377 O413 2.273 1_455 S
Cd377 O414 2.268 . S
Cd377 O418 2.417 . S
Cd377 O419 2.330 . S
C378 N379 1.332 . S
C378 C382 1.381 . S
C378 H384 0.931 . S
N379 Cd376 2.334 1_455 S
N379 C378 1.332 . S
N379 C383 1.328 . S
C380 C381 1.396 . S
C380 C383 1.378 . S
C380 H422 0.931 . S
C381 C380 1.396 . S
C381 C382 1.382 . S
C382 C378 1.381 . S
C382 C381 1.382 . S
C382 H423 0.930 . S
C383 N379 1.328 . S
C383 C380 1.378 . S
C383 H385 0.930 1_455 S
H384 C378 0.931 . S
H385 C383 0.930 1_655 S
C386 O412 1.238 . S
C386 O413 1.253 . S
C387 C388 1.379 . S
C387 N392 1.337 . S
C387 H393 0.929 . S
C388 C387 1.379 . S
C388 C389 1.380 . S
C388 H424 0.929 . S
C389 C388 1.380 . S
C389 C390 1.399 . S
C390 C389 1.399 . S
C390 C391 1.376 . S
C390 H425 0.931 . S
C391 C390 1.376 . S
C391 N392 1.338 . S
C391 H394 0.930 1_655 S
N392 Cd377 2.304 1_655 S
N392 C387 1.337 . S
N392 C391 1.338 . S
H393 C387 0.929 . S
H394 C391 0.930 1_455 S
C395 N396 1.332 . S
C395 C399 1.381 . S
C395 H401 0.931 . S
N396 Cd377 2.334 . S
N396 C395 1.332 . S
N396 C400 1.328 . S
C397 C398 1.396 . S
C397 C400 1.378 . S
C397 H426 0.931 . S
C398 C397 1.396 . S
C398 C399 1.382 . S
C399 C395 1.381 . S
C399 C398 1.382 . S
C399 H427 0.930 . S
C400 N396 1.328 . S
C400 C397 1.378 . S
C400 H402 0.930 . S
H401 C395 0.931 . S
H402 C400 0.930 . S
C403 O414 1.238 . S
C403 O415 1.253 . S
C404 O416 1.239 . S
C404 O417 1.230 . S
N405 Cd376 2.304 . S
N405 C406 1.337 . S
N405 C410 1.338 . S
C406 N405 1.337 . S
C406 C407 1.379 . S
C406 H420 0.929 . S
C407 C406 1.379 . S
C407 C408 1.380 . S
C407 H428 0.929 . S
C408 C407 1.380 . S
C408 C409 1.399 . S
C409 C408 1.399 . S
C409 C410 1.376 . S
C409 H429 0.931 . S
C410 N405 1.338 . S
C410 C409 1.376 . S
C410 H421 0.930 . S
C411 O418 1.239 . S
C411 O419 1.230 . S
O412 Cd376 2.268 . S
O412 C386 1.238 . S
O413 Cd377 2.273 1_655 S
O413 C386 1.253 . S
O414 Cd377 2.268 . S
O414 C403 1.238 . S
O415 Cd376 2.273 1_455 S
O415 C403 1.253 . S
O416 Cd376 2.417 . S
O416 C404 1.239 . S
O417 Cd376 2.330 . S
O417 C404 1.230 . S
O418 Cd377 2.417 . S
O418 C411 1.239 . S
O419 Cd377 2.330 . S
O419 C411 1.230 . S
H420 C406 0.929 . S
H421 C410 0.930 . S
H422 C380 0.931 . S
H423 C382 0.930 . S
H424 C388 0.929 . S
H425 C390 0.931 . S
H426 C397 0.931 . S
H427 C399 0.930 . S
H428 C407 0.929 . S
H429 C409 0.931 . S
Cd430 N433 2.334 . S
Cd430 N459 2.304 1_565 S
Cd430 O466 2.268 . S
Cd430 O469 2.273 1_565 S
Cd430 O470 2.417 . S
Cd430 O471 2.330 . S
Cd431 N446 2.304 . S
Cd431 N450 2.334 1_545 S
Cd431 O467 2.273 1_545 S
Cd431 O468 2.268 . S
Cd431 O472 2.417 . S
Cd431 O473 2.330 . S
C432 N433 1.332 . S
C432 C436 1.381 . S
C432 H438 0.931 . S
N433 Cd430 2.334 . S
N433 C432 1.332 . S
N433 C437 1.328 . S
C434 C435 1.396 . S
C434 C437 1.378 . S
C434 H476 0.931 . S
C435 C434 1.396 . S
C435 C436 1.382 . S
C436 C432 1.381 . S
C436 C435 1.382 . S
C436 H477 0.930 . S
C437 N433 1.328 . S
C437 C434 1.378 . S
C437 H439 0.930 . S
H438 C432 0.931 . S
H439 C437 0.930 . S
C440 O466 1.238 . S
C440 O467 1.253 . S
C441 C442 1.379 . S
C441 N446 1.337 . S
C441 H447 0.929 . S
C442 C441 1.379 . S
C442 C443 1.380 . S
C442 H478 0.929 . S
C443 C442 1.380 . S
C443 C444 1.399 . S
C444 C443 1.399 . S
C444 C445 1.376 . S
C444 H479 0.931 . S
C445 C444 1.376 . S
C445 N446 1.338 . S
C445 H448 0.930 . S
N446 Cd431 2.304 . S
N446 C441 1.337 . S
N446 C445 1.338 . S
H447 C441 0.929 . S
H448 C445 0.930 . S
C449 N450 1.332 . S
C449 C453 1.381 . S
C449 H455 0.931 . S
N450 Cd431 2.334 1_565 S
N450 C449 1.332 . S
N450 C454 1.328 . S
C451 C452 1.396 . S
C451 C454 1.378 . S
C451 H480 0.931 . S
C452 C451 1.396 . S
C452 C453 1.382 . S
C453 C449 1.381 . S
C453 C452 1.382 . S
C453 H481 0.930 . S
C454 N450 1.328 . S
C454 C451 1.378 . S
C454 H456 0.930 1_565 S
H455 C449 0.931 . S
H456 C454 0.930 1_545 S
C457 O468 1.238 . S
C457 O469 1.253 . S
C458 O470 1.239 . S
C458 O471 1.230 . S
N459 Cd430 2.304 1_545 S
N459 C460 1.337 . S
N459 C464 1.338 . S
C460 N459 1.337 . S
C460 C461 1.379 . S
C460 H474 0.929 . S
C461 C460 1.379 . S
C461 C462 1.380 . S
C461 H482 0.929 . S
C462 C461 1.380 . S
C462 C463 1.399 . S
C463 C462 1.399 . S
C463 C464 1.376 . S
C463 H483 0.931 . S
C464 N459 1.338 . S
C464 C463 1.376 . S
C464 H475 0.930 1_545 S
C465 O472 1.239 . S
C465 O473 1.230 . S
O466 Cd430 2.268 . S
O466 C440 1.238 . S
O467 Cd431 2.273 1_565 S
O467 C440 1.253 . S
O468 Cd431 2.268 . S
O468 C457 1.238 . S
O469 Cd430 2.273 1_545 S
O469 C457 1.253 . S
O470 Cd430 2.417 . S
O470 C458 1.239 . S
O471 Cd430 2.330 . S
O471 C458 1.230 . S
O472 Cd431 2.417 . S
O472 C465 1.239 . S
O473 Cd431 2.330 . S
O473 C465 1.230 . S
H474 C460 0.929 . S
H475 C464 0.930 1_565 S
H476 C434 0.931 . S
H477 C436 0.930 . S
H478 C442 0.929 . S
H479 C444 0.931 . S
H480 C451 0.931 . S
H481 C453 0.930 . S
H482 C461 0.929 . S
H483 C463 0.931 . S
H484 C502 0.951 . S
H485 C504 0.951 . S
H486 C506 0.950 . S
H487 C507 0.950 . S
H488 C509 0.950 . S
H489 C512 0.950 . S
H490 C513 0.950 . S
H491 C515 0.950 . S
H492 C516 0.950 . S
H493 C517 0.951 . S
H494 C519 0.951 . S
H495 C521 0.950 . S
H496 C522 0.950 . S
H497 C524 0.950 . S
H498 C527 0.950 . S
H499 C528 0.950 . S
H500 C530 0.950 . S
H501 C531 0.950 . S
C502 H484 0.951 . S
C502 C503 1.366 . S
C502 C504 1.388 . S
C503 C502 1.366 . S
C503 C507 1.385 . S
C504 H485 0.951 . S
C504 C502 1.388 . S
C504 C505 1.366 . S
C505 C504 1.366 . S
C505 C506 1.414 . S
C505 C508 1.499 . S
C506 H486 0.950 . S
C506 C505 1.414 . S
C506 C507 1.374 . S
C507 H487 0.950 . S
C507 C503 1.385 . S
C507 C506 1.374 . S
C508 C505 1.499 . S
C508 C509 1.373 . S
C508 C510 1.389 . S
C509 H488 0.950 . S
C509 C508 1.373 . S
C509 C525 1.377 . S
C510 C508 1.389 . S
C510 C511 1.524 . S
C510 C524 1.377 . S
C511 C510 1.524 . S
C511 C512 1.397 . S
C511 C516 1.363 . S
C512 H489 0.950 . S
C512 C511 1.397 . S
C512 C513 1.334 . S
C513 H490 0.950 . S
C513 C512 1.334 . S
C513 C514 1.287 . S
C514 C513 1.287 . S
C514 C515 1.524 . S
C514 H533 0.913 . S
C515 H491 0.950 . S
C515 C514 1.524 . S
C515 C516 1.415 . S
C516 H492 0.950 . S
C516 C511 1.363 . S
C516 C515 1.415 . S
C517 H493 0.951 . S
C517 C518 1.366 . S
C517 C519 1.388 . S
C518 C517 1.366 . S
C518 C522 1.385 . S
C519 H494 0.951 . S
C519 C517 1.388 . S
C519 C520 1.366 . S
C520 C519 1.366 . S
C520 C521 1.414 . S
C520 C523 1.499 . S
C521 H495 0.950 . S
C521 C520 1.414 . S
C521 C522 1.374 . S
C522 H496 0.950 . S
C522 C518 1.385 . S
C522 C521 1.374 . S
C523 C520 1.499 . S
C523 C524 1.373 . S
C523 C525 1.389 . S
C524 H497 0.950 . S
C524 C510 1.377 . S
C524 C523 1.373 . S
C525 C509 1.377 . S
C525 C523 1.389 . S
C525 C526 1.524 . S
C526 C525 1.524 . S
C526 C527 1.397 . S
C526 C531 1.363 . S
C527 H498 0.950 . S
C527 C526 1.397 . S
C527 C528 1.334 . S
C528 H499 0.950 . S
C528 C527 1.334 . S
C528 C529 1.287 . S
C529 C528 1.287 . S
C529 C530 1.524 . S
C529 H532 0.999 . S
C530 H500 0.950 . S
C530 C529 1.524 . S
C530 C531 1.415 . S
C531 H501 0.950 . S
C531 C526 1.363 . S
C531 C530 1.415 . S
H532 C529 0.999 . S
H533 C514 0.913 . S
H534 C552 0.951 . S
H535 C554 0.951 . S
H536 C556 0.950 . S
H537 C557 0.950 . S
H538 C559 0.950 . S
H539 C562 0.950 . S
H540 C563 0.950 . S
H541 C565 0.950 . S
H542 C566 0.950 . S
H543 C567 0.951 . S
H544 C569 0.951 . S
H545 C571 0.950 . S
H546 C572 0.950 . S
H547 C574 0.950 . S
H548 C577 0.950 . S
H549 C578 0.950 . S
H550 C580 0.950 . S
H551 C581 0.950 . S
C552 H534 0.951 . S
C552 C553 1.366 . S
C552 C554 1.388 . S
C553 C552 1.366 . S
C553 C557 1.385 . S
C554 H535 0.951 . S
C554 C552 1.388 . S
C554 C555 1.366 . S
C555 C554 1.366 . S
C555 C556 1.414 . S
C555 C558 1.499 . S
C556 H536 0.950 . S
C556 C555 1.414 . S
C556 C557 1.374 . S
C557 H537 0.950 . S
C557 C553 1.385 . S
C557 C556 1.374 . S
C558 C555 1.499 . S
C558 C559 1.373 . S
C558 C560 1.389 . S
C559 H538 0.950 . S
C559 C558 1.373 . S
C559 C575 1.377 . S
C560 C558 1.389 . S
C560 C561 1.524 . S
C560 C574 1.377 . S
C561 C560 1.524 . S
C561 C562 1.397 . S
C561 C566 1.363 . S
C562 H539 0.950 . S
C562 C561 1.397 . S
C562 C563 1.334 . S
C563 H540 0.950 . S
C563 C562 1.334 . S
C563 C564 1.287 . S
C564 C563 1.287 . S
C564 C565 1.524 . S
C564 H583 0.913 . S
C565 H541 0.950 . S
C565 C564 1.524 . S
C565 C566 1.415 . S
C566 H542 0.950 . S
C566 C561 1.363 . S
C566 C565 1.415 . S
C567 H543 0.951 . S
C567 C568 1.366 . S
C567 C569 1.388 . S
C568 C567 1.366 . S
C568 C572 1.385 . S
C569 H544 0.951 . S
C569 C567 1.388 . S
C569 C570 1.366 . S
C570 C569 1.366 . S
C570 C571 1.414 . S
C570 C573 1.499 . S
C571 H545 0.950 . S
C571 C570 1.414 . S
C571 C572 1.374 . S
C572 H546 0.950 . S
C572 C568 1.385 . S
C572 C571 1.374 . S
C573 C570 1.499 . S
C573 C574 1.373 . S
C573 C575 1.389 . S
C574 H547 0.950 . S
C574 C560 1.377 . S
C574 C573 1.373 . S
C575 C559 1.377 . S
C575 C573 1.389 . S
C575 C576 1.524 . S
C576 C575 1.524 . S
C576 C577 1.397 . S
C576 C581 1.363 . S
C577 H548 0.950 . S
C577 C576 1.397 . S
C577 C578 1.334 . S
C578 H549 0.950 . S
C578 C577 1.334 . S
C578 C579 1.287 . S
C579 C578 1.287 . S
C579 C580 1.524 . S
C579 H582 0.999 . S
C580 H550 0.950 . S
C580 C579 1.524 . S
C580 C581 1.415 . S
C581 H551 0.950 . S
C581 C576 1.363 . S
C581 C580 1.415 . S
H582 C579 0.999 . S
H583 C564 0.913 . S
H584 C602 0.951 . S
H585 C604 0.951 . S
H586 C606 0.950 . S
H587 C607 0.950 . S
H588 C609 0.950 . S
H589 C612 0.950 . S
H590 C613 0.950 . S
H591 C615 0.950 . S
H592 C616 0.950 . S
H593 C617 0.951 . S
H594 C619 0.951 . S
H595 C621 0.950 . S
H596 C622 0.950 . S
H597 C624 0.950 . S
H598 C627 0.950 . S
H599 C628 0.950 . S
H600 C630 0.950 . S
H601 C631 0.950 . S
C602 H584 0.951 . S
C602 C603 1.366 . S
C602 C604 1.388 . S
C603 C602 1.366 . S
C603 C607 1.385 . S
C604 H585 0.951 . S
C604 C602 1.388 . S
C604 C605 1.366 . S
C605 C604 1.366 . S
C605 C606 1.414 . S
C605 C608 1.499 . S
C606 H586 0.950 . S
C606 C605 1.414 . S
C606 C607 1.374 . S
C607 H587 0.950 . S
C607 C603 1.385 . S
C607 C606 1.374 . S
C608 C605 1.499 . S
C608 C609 1.373 . S
C608 C610 1.389 . S
C609 H588 0.950 . S
C609 C608 1.373 . S
C609 C625 1.377 . S
C610 C608 1.389 . S
C610 C611 1.524 . S
C610 C624 1.377 . S
C611 C610 1.524 . S
C611 C612 1.397 . S
C611 C616 1.363 . S
C612 H589 0.950 . S
C612 C611 1.397 . S
C612 C613 1.334 . S
C613 H590 0.950 . S
C613 C612 1.334 . S
C613 C614 1.287 . S
C614 C613 1.287 . S
C614 C615 1.524 . S
C614 H633 0.913 . S
C615 H591 0.950 . S
C615 C614 1.524 . S
C615 C616 1.415 . S
C616 H592 0.950 . S
C616 C611 1.363 . S
C616 C615 1.415 . S
C617 H593 0.951 . S
C617 C618 1.366 . S
C617 C619 1.388 . S
C618 C617 1.366 . S
C618 C622 1.385 . S
C619 H594 0.951 . S
C619 C617 1.388 . S
C619 C620 1.366 . S
C620 C619 1.366 . S
C620 C621 1.414 . S
C620 C623 1.499 . S
C621 H595 0.950 . S
C621 C620 1.414 . S
C621 C622 1.374 . S
C622 H596 0.950 . S
C622 C618 1.385 . S
C622 C621 1.374 . S
C623 C620 1.499 . S
C623 C624 1.373 . S
C623 C625 1.389 . S
C624 H597 0.950 . S
C624 C610 1.377 . S
C624 C623 1.373 . S
C625 C609 1.377 . S
C625 C623 1.389 . S
C625 C626 1.524 . S
C626 C625 1.524 . S
C626 C627 1.397 . S
C626 C631 1.363 . S
C627 H598 0.950 . S
C627 C626 1.397 . S
C627 C628 1.334 . S
C628 H599 0.950 . S
C628 C627 1.334 . S
C628 C629 1.287 . S
C629 C628 1.287 . S
C629 C630 1.524 . S
C629 H632 0.999 . S
C630 H600 0.950 . S
C630 C629 1.524 . S
C630 C631 1.415 . S
C631 H601 0.950 . S
C631 C626 1.363 . S
C631 C630 1.415 . S
H632 C629 0.999 . S
H633 C614 0.913 . S
H634 C652 0.951 . S
H635 C654 0.951 . S
H636 C656 0.950 . S
H637 C657 0.950 . S
H638 C659 0.950 . S
H639 C662 0.950 . S
H640 C663 0.950 . S
H641 C665 0.950 . S
H642 C666 0.950 . S
H643 C667 0.951 . S
H644 C669 0.951 . S
H645 C671 0.950 . S
H646 C672 0.950 . S
H647 C674 0.950 . S
H648 C677 0.950 . S
H649 C678 0.950 . S
H650 C680 0.950 . S
H651 C681 0.950 . S
C652 H634 0.951 . S
C652 C653 1.366 . S
C652 C654 1.388 . S
C653 C652 1.366 . S
C653 C657 1.385 . S
C654 H635 0.951 . S
C654 C652 1.388 . S
C654 C655 1.366 . S
C655 C654 1.366 . S
C655 C656 1.414 . S
C655 C658 1.499 . S
C656 H636 0.950 . S
C656 C655 1.414 . S
C656 C657 1.374 . S
C657 H637 0.950 . S
C657 C653 1.385 . S
C657 C656 1.374 . S
C658 C655 1.499 . S
C658 C659 1.373 . S
C658 C660 1.389 . S
C659 H638 0.950 . S
C659 C658 1.373 . S
C659 C675 1.377 . S
C660 C658 1.389 . S
C660 C661 1.524 . S
C660 C674 1.377 . S
C661 C660 1.524 . S
C661 C662 1.397 . S
C661 C666 1.363 . S
C662 H639 0.950 . S
C662 C661 1.397 . S
C662 C663 1.334 . S
C663 H640 0.950 . S
C663 C662 1.334 . S
C663 C664 1.287 . S
C664 C663 1.287 . S
C664 C665 1.524 . S
C664 H683 0.913 . S
C665 H641 0.950 . S
C665 C664 1.524 . S
C665 C666 1.415 . S
C666 H642 0.950 . S
C666 C661 1.363 . S
C666 C665 1.415 . S
C667 H643 0.951 . S
C667 C668 1.366 . S
C667 C669 1.388 . S
C668 C667 1.366 . S
C668 C672 1.385 . S
C669 H644 0.951 . S
C669 C667 1.388 . S
C669 C670 1.366 . S
C670 C669 1.366 . S
C670 C671 1.414 . S
C670 C673 1.499 . S
C671 H645 0.950 . S
C671 C670 1.414 . S
C671 C672 1.374 . S
C672 H646 0.950 . S
C672 C668 1.385 . S
C672 C671 1.374 . S
C673 C670 1.499 . S
C673 C674 1.373 . S
C673 C675 1.389 . S
C674 H647 0.950 . S
C674 C660 1.377 . S
C674 C673 1.373 . S
C675 C659 1.377 . S
C675 C673 1.389 . S
C675 C676 1.524 . S
C676 C675 1.524 . S
C676 C677 1.397 . S
C676 C681 1.363 . S
C677 H648 0.950 . S
C677 C676 1.397 . S
C677 C678 1.334 . S
C678 H649 0.950 . S
C678 C677 1.334 . S
C678 C679 1.287 . S
C679 C678 1.287 . S
C679 C680 1.524 . S
C679 H682 0.999 . S
C680 H650 0.950 . S
C680 C679 1.524 . S
C680 C681 1.415 . S
C681 H651 0.950 . S
C681 C676 1.363 . S
C681 C680 1.415 . S
H682 C679 0.999 . S
H683 C664 0.913 . S
H684 C702 0.951 . S
H685 C704 0.951 . S
H686 C706 0.950 . S
H687 C707 0.950 . S
H688 C709 0.950 . S
H689 C712 0.950 . S
H690 C713 0.950 . S
H691 C715 0.950 . S
H692 C716 0.950 . S
H693 C717 0.951 . S
H694 C719 0.951 . S
H695 C721 0.950 . S
H696 C722 0.950 . S
H697 C724 0.950 . S
H698 C727 0.950 . S
H699 C728 0.950 . S
H700 C730 0.950 . S
H701 C731 0.950 . S
C702 H684 0.951 . S
C702 C703 1.366 . S
C702 C704 1.388 . S
C703 C702 1.366 . S
C703 C707 1.385 . S
C704 H685 0.951 . S
C704 C702 1.388 . S
C704 C705 1.366 . S
C705 C704 1.366 . S
C705 C706 1.414 . S
C705 C708 1.499 . S
C706 H686 0.950 . S
C706 C705 1.414 . S
C706 C707 1.374 . S
C707 H687 0.950 . S
C707 C703 1.385 . S
C707 C706 1.374 . S
C708 C705 1.499 . S
C708 C709 1.373 . S
C708 C710 1.389 . S
C709 H688 0.950 . S
C709 C708 1.373 . S
C709 C725 1.377 . S
C710 C708 1.389 . S
C710 C711 1.524 . S
C710 C724 1.377 . S
C711 C710 1.524 . S
C711 C712 1.397 . S
C711 C716 1.363 . S
C712 H689 0.950 . S
C712 C711 1.397 . S
C712 C713 1.334 . S
C713 H690 0.950 . S
C713 C712 1.334 . S
C713 C714 1.287 . S
C714 C713 1.287 . S
C714 C715 1.524 . S
C714 H733 0.913 . S
C715 H691 0.950 . S
C715 C714 1.524 . S
C715 C716 1.415 . S
C716 H692 0.950 . S
C716 C711 1.363 . S
C716 C715 1.415 . S
C717 H693 0.951 . S
C717 C718 1.366 . S
C717 C719 1.388 . S
C718 C717 1.366 . S
C718 C722 1.385 . S
C719 H694 0.951 . S
C719 C717 1.388 . S
C719 C720 1.366 . S
C720 C719 1.366 . S
C720 C721 1.414 . S
C720 C723 1.499 . S
C721 H695 0.950 . S
C721 C720 1.414 . S
C721 C722 1.374 . S
C722 H696 0.950 . S
C722 C718 1.385 . S
C722 C721 1.374 . S
C723 C720 1.499 . S
C723 C724 1.373 . S
C723 C725 1.389 . S
C724 H697 0.950 . S
C724 C710 1.377 . S
C724 C723 1.373 . S
C725 C709 1.377 . S
C725 C723 1.389 . S
C725 C726 1.524 . S
C726 C725 1.524 . S
C726 C727 1.397 . S
C726 C731 1.363 . S
C727 H698 0.950 . S
C727 C726 1.397 . S
C727 C728 1.334 . S
C728 H699 0.950 . S
C728 C727 1.334 . S
C728 C729 1.287 . S
C729 C728 1.287 . S
C729 C730 1.524 . S
C729 H732 0.999 . S
C730 H700 0.950 . S
C730 C729 1.524 . S
C730 C731 1.415 . S
C731 H701 0.950 . S
C731 C726 1.363 . S
C731 C730 1.415 . S
H732 C729 0.999 . S
H733 C714 0.913 . S
H734 C752 0.951 . S
H735 C754 0.951 . S
H736 C756 0.950 . S
H737 C757 0.950 . S
H738 C759 0.950 . S
H739 C762 0.950 . S
H740 C763 0.950 . S
H741 C765 0.950 . S
H742 C766 0.950 . S
H743 C767 0.951 . S
H744 C769 0.951 . S
H745 C771 0.950 . S
H746 C772 0.950 . S
H747 C774 0.950 . S
H748 C777 0.950 . S
H749 C778 0.950 . S
H750 C780 0.950 . S
H751 C781 0.950 . S
C752 H734 0.951 . S
C752 C753 1.366 . S
C752 C754 1.388 . S
C753 C752 1.366 . S
C753 C757 1.385 . S
C754 H735 0.951 . S
C754 C752 1.388 . S
C754 C755 1.366 . S
C755 C754 1.366 . S
C755 C756 1.414 . S
C755 C758 1.499 . S
C756 H736 0.950 . S
C756 C755 1.414 . S
C756 C757 1.374 . S
C757 H737 0.950 . S
C757 C753 1.385 . S
C757 C756 1.374 . S
C758 C755 1.499 . S
C758 C759 1.373 . S
C758 C760 1.389 . S
C759 H738 0.950 . S
C759 C758 1.373 . S
C759 C775 1.377 . S
C760 C758 1.389 . S
C760 C761 1.524 . S
C760 C774 1.377 . S
C761 C760 1.524 . S
C761 C762 1.397 . S
C761 C766 1.363 . S
C762 H739 0.950 . S
C762 C761 1.397 . S
C762 C763 1.334 . S
C763 H740 0.950 . S
C763 C762 1.334 . S
C763 C764 1.287 . S
C764 C763 1.287 . S
C764 C765 1.524 . S
C764 H783 0.913 . S
C765 H741 0.950 . S
C765 C764 1.524 . S
C765 C766 1.415 . S
C766 H742 0.950 . S
C766 C761 1.363 . S
C766 C765 1.415 . S
C767 H743 0.951 . S
C767 C768 1.366 . S
C767 C769 1.388 . S
C768 C767 1.366 . S
C768 C772 1.385 . S
C769 H744 0.951 . S
C769 C767 1.388 . S
C769 C770 1.366 . S
C770 C769 1.366 . S
C770 C771 1.414 . S
C770 C773 1.499 . S
C771 H745 0.950 . S
C771 C770 1.414 . S
C771 C772 1.374 . S
C772 H746 0.950 . S
C772 C768 1.385 . S
C772 C771 1.374 . S
C773 C770 1.499 . S
C773 C774 1.373 . S
C773 C775 1.389 . S
C774 H747 0.950 . S
C774 C760 1.377 . S
C774 C773 1.373 . S
C775 C759 1.377 . S
C775 C773 1.389 . S
C775 C776 1.524 . S
C776 C775 1.524 . S
C776 C777 1.397 . S
C776 C781 1.363 . S
C777 H748 0.950 . S
C777 C776 1.397 . S
C777 C778 1.334 . S
C778 H749 0.950 . S
C778 C777 1.334 . S
C778 C779 1.287 . S
C779 C778 1.287 . S
C779 C780 1.524 . S
C779 H782 0.999 . S
C780 H750 0.950 . S
C780 C779 1.524 . S
C780 C781 1.415 . S
C781 H751 0.950 . S
C781 C776 1.363 . S
C781 C780 1.415 . S
H782 C779 0.999 . S
H783 C764 0.913 . S
H784 C802 0.951 . S
H785 C804 0.951 . S
H786 C806 0.950 . S
H787 C807 0.950 . S
H788 C809 0.950 . S
H789 C812 0.950 . S
H790 C813 0.950 . S
H791 C815 0.950 . S
H792 C816 0.950 . S
H793 C817 0.951 . S
H794 C819 0.951 . S
H795 C821 0.950 . S
H796 C822 0.950 . S
H797 C824 0.950 . S
H798 C827 0.950 . S
H799 C828 0.950 . S
H800 C830 0.950 . S
H801 C831 0.950 . S
C802 H784 0.951 . S
C802 C803 1.366 . S
C802 C804 1.388 . S
C803 C802 1.366 . S
C803 C807 1.385 . S
C804 H785 0.951 . S
C804 C802 1.388 . S
C804 C805 1.366 . S
C805 C804 1.366 . S
C805 C806 1.414 . S
C805 C808 1.499 . S
C806 H786 0.950 . S
C806 C805 1.414 . S
C806 C807 1.374 . S
C807 H787 0.950 . S
C807 C803 1.385 . S
C807 C806 1.374 . S
C808 C805 1.499 . S
C808 C809 1.373 . S
C808 C810 1.389 . S
C809 H788 0.950 . S
C809 C808 1.373 . S
C809 C825 1.377 . S
C810 C808 1.389 . S
C810 C811 1.524 . S
C810 C824 1.377 . S
C811 C810 1.524 . S
C811 C812 1.397 . S
C811 C816 1.363 . S
C812 H789 0.950 . S
C812 C811 1.397 . S
C812 C813 1.334 . S
C813 H790 0.950 . S
C813 C812 1.334 . S
C813 C814 1.287 . S
C814 C813 1.287 . S
C814 C815 1.524 . S
C814 H833 0.913 . S
C815 H791 0.950 . S
C815 C814 1.524 . S
C815 C816 1.415 . S
C816 H792 0.950 . S
C816 C811 1.363 . S
C816 C815 1.415 . S
C817 H793 0.951 . S
C817 C818 1.366 . S
C817 C819 1.388 . S
C818 C817 1.366 . S
C818 C822 1.385 . S
C819 H794 0.951 . S
C819 C817 1.388 . S
C819 C820 1.366 . S
C820 C819 1.366 . S
C820 C821 1.414 . S
C820 C823 1.499 . S
C821 H795 0.950 . S
C821 C820 1.414 . S
C821 C822 1.374 . S
C822 H796 0.950 . S
C822 C818 1.385 . S
C822 C821 1.374 . S
C823 C820 1.499 . S
C823 C824 1.373 . S
C823 C825 1.389 . S
C824 H797 0.950 . S
C824 C810 1.377 . S
C824 C823 1.373 . S
C825 C809 1.377 . S
C825 C823 1.389 . S
C825 C826 1.524 . S
C826 C825 1.524 . S
C826 C827 1.397 . S
C826 C831 1.363 . S
C827 H798 0.950 . S
C827 C826 1.397 . S
C827 C828 1.334 . S
C828 H799 0.950 . S
C828 C827 1.334 . S
C828 C829 1.287 . S
C829 C828 1.287 . S
C829 C830 1.524 . S
C829 H832 0.999 . S
C830 H800 0.950 . S
C830 C829 1.524 . S
C830 C831 1.415 . S
C831 H801 0.950 . S
C831 C826 1.363 . S
C831 C830 1.415 . S
H832 C829 0.999 . S
H833 C814 0.913 . S
H834 C852 0.951 . S
H835 C854 0.951 . S
H836 C856 0.950 . S
H837 C857 0.950 . S
H838 C859 0.950 . S
H839 C862 0.950 . S
H840 C863 0.950 . S
H841 C865 0.950 . S
H842 C866 0.950 . S
H843 C867 0.951 . S
H844 C869 0.951 . S
H845 C871 0.950 . S
H846 C872 0.950 . S
H847 C874 0.950 . S
H848 C877 0.950 . S
H849 C878 0.950 . S
H850 C880 0.950 . S
H851 C881 0.950 . S
C852 H834 0.951 . S
C852 C853 1.366 . S
C852 C854 1.388 . S
C853 C852 1.366 . S
C853 C857 1.385 . S
C854 H835 0.951 . S
C854 C852 1.388 . S
C854 C855 1.366 . S
C855 C854 1.366 . S
C855 C856 1.414 . S
C855 C858 1.499 . S
C856 H836 0.950 . S
C856 C855 1.414 . S
C856 C857 1.374 . S
C857 H837 0.950 . S
C857 C853 1.385 . S
C857 C856 1.374 . S
C858 C855 1.499 . S
C858 C859 1.373 . S
C858 C860 1.389 . S
C859 H838 0.950 . S
C859 C858 1.373 . S
C859 C875 1.377 . S
C860 C858 1.389 . S
C860 C861 1.524 . S
C860 C874 1.377 . S
C861 C860 1.524 . S
C861 C862 1.397 . S
C861 C866 1.363 . S
C862 H839 0.950 . S
C862 C861 1.397 . S
C862 C863 1.334 . S
C863 H840 0.950 . S
C863 C862 1.334 . S
C863 C864 1.287 . S
C864 C863 1.287 . S
C864 C865 1.524 . S
C864 H883 0.913 . S
C865 H841 0.950 . S
C865 C864 1.524 . S
C865 C866 1.415 . S
C866 H842 0.950 . S
C866 C861 1.363 . S
C866 C865 1.415 . S
C867 H843 0.951 . S
C867 C868 1.366 . S
C867 C869 1.388 . S
C868 C867 1.366 . S
C868 C872 1.385 . S
C869 H844 0.951 . S
C869 C867 1.388 . S
C869 C870 1.366 . S
C870 C869 1.366 . S
C870 C871 1.414 . S
C870 C873 1.499 . S
C871 H845 0.950 . S
C871 C870 1.414 . S
C871 C872 1.374 . S
C872 H846 0.950 . S
C872 C868 1.385 . S
C872 C871 1.374 . S
C873 C870 1.499 . S
C873 C874 1.373 . S
C873 C875 1.389 . S
C874 H847 0.950 . S
C874 C860 1.377 . S
C874 C873 1.373 . S
C875 C859 1.377 . S
C875 C873 1.389 . S
C875 C876 1.524 . S
C876 C875 1.524 . S
C876 C877 1.397 . S
C876 C881 1.363 . S
C877 H848 0.950 . S
C877 C876 1.397 . S
C877 C878 1.334 . S
C878 H849 0.950 . S
C878 C877 1.334 . S
C878 C879 1.287 . S
C879 C878 1.287 . S
C879 C880 1.524 . S
C879 H882 0.999 . S
C880 H850 0.950 . S
C880 C879 1.524 . S
C880 C881 1.415 . S
C881 H851 0.950 . S
C881 C876 1.363 . S
C881 C880 1.415 . S
H882 C879 0.999 . S
H883 C864 0.913 . S
H884 C902 0.951 . S
H885 C904 0.951 . S
H886 C906 0.950 . S
H887 C907 0.950 . S
H888 C909 0.950 . S
H889 C912 0.950 . S
H890 C913 0.950 . S
H891 C915 0.950 . S
H892 C916 0.950 . S
H893 C917 0.951 . S
H894 C919 0.951 . S
H895 C921 0.950 . S
H896 C922 0.950 . S
H897 C924 0.950 . S
H898 C927 0.950 . S
H899 C928 0.950 . S
H900 C930 0.950 . S
H901 C931 0.950 . S
C902 H884 0.951 . S
C902 C903 1.366 . S
C902 C904 1.388 . S
C903 C902 1.366 . S
C903 C907 1.385 . S
C904 H885 0.951 . S
C904 C902 1.388 . S
C904 C905 1.366 . S
C905 C904 1.366 . S
C905 C906 1.414 . S
C905 C908 1.499 . S
C906 H886 0.950 . S
C906 C905 1.414 . S
C906 C907 1.374 . S
C907 H887 0.950 . S
C907 C903 1.385 . S
C907 C906 1.374 . S
C908 C905 1.499 . S
C908 C909 1.373 . S
C908 C910 1.389 . S
C909 H888 0.950 . S
C909 C908 1.373 . S
C909 C925 1.377 . S
C910 C908 1.389 . S
C910 C911 1.524 . S
C910 C924 1.377 . S
C911 C910 1.524 . S
C911 C912 1.397 . S
C911 C916 1.363 . S
C912 H889 0.950 . S
C912 C911 1.397 . S
C912 C913 1.334 . S
C913 H890 0.950 . S
C913 C912 1.334 . S
C913 C914 1.287 . S
C914 C913 1.287 . S
C914 C915 1.524 . S
C914 H933 0.913 . S
C915 H891 0.950 . S
C915 C914 1.524 . S
C915 C916 1.415 . S
C916 H892 0.950 . S
C916 C911 1.363 . S
C916 C915 1.415 . S
C917 H893 0.951 . S
C917 C918 1.366 . S
C917 C919 1.388 . S
C918 C917 1.366 . S
C918 C922 1.385 . S
C919 H894 0.951 . S
C919 C917 1.388 . S
C919 C920 1.366 . S
C920 C919 1.366 . S
C920 C921 1.414 . S
C920 C923 1.499 . S
C921 H895 0.950 . S
C921 C920 1.414 . S
C921 C922 1.374 . S
C922 H896 0.950 . S
C922 C918 1.385 . S
C922 C921 1.374 . S
C923 C920 1.499 . S
C923 C924 1.373 . S
C923 C925 1.389 . S
C924 H897 0.950 . S
C924 C910 1.377 . S
C924 C923 1.373 . S
C925 C909 1.377 . S
C925 C923 1.389 . S
C925 C926 1.524 . S
C926 C925 1.524 . S
C926 C927 1.397 . S
C926 C931 1.363 . S
C927 H898 0.950 . S
C927 C926 1.397 . S
C927 C928 1.334 . S
C928 H899 0.950 . S
C928 C927 1.334 . S
C928 C929 1.287 . S
C929 C928 1.287 . S
C929 C930 1.524 . S
C929 H932 0.999 1_545 S
C930 H900 0.950 . S
C930 C929 1.524 . S
C930 C931 1.415 . S
C931 H901 0.950 . S
C931 C926 1.363 . S
C931 C930 1.415 . S
H932 C929 0.999 1_565 S
H933 C914 0.913 . S
H934 C952 0.951 . S
H935 C954 0.951 . S
H936 C956 0.950 . S
H937 C957 0.950 . S
H938 C959 0.950 . S
H939 C962 0.950 . S
H940 C963 0.950 . S
H941 C965 0.950 . S
H942 C966 0.950 . S
H943 C967 0.951 . S
H944 C969 0.951 . S
H945 C971 0.950 . S
H946 C972 0.950 . S
H947 C974 0.950 . S
H948 C977 0.950 . S
H949 C978 0.950 . S
H950 C980 0.950 . S
H951 C981 0.950 . S
C952 H934 0.951 . S
C952 C953 1.366 . S
C952 C954 1.388 . S
C953 C952 1.366 . S
C953 C957 1.385 . S
C954 H935 0.951 . S
C954 C952 1.388 . S
C954 C955 1.366 . S
C955 C954 1.366 . S
C955 C956 1.414 . S
C955 C958 1.499 . S
C956 H936 0.950 . S
C956 C955 1.414 . S
C956 C957 1.374 . S
C957 H937 0.950 . S
C957 C953 1.385 . S
C957 C956 1.374 . S
C958 C955 1.499 . S
C958 C959 1.373 . S
C958 C960 1.389 . S
C959 H938 0.950 . S
C959 C958 1.373 . S
C959 C975 1.377 . S
C960 C958 1.389 . S
C960 C961 1.524 . S
C960 C974 1.377 . S
C961 C960 1.524 . S
C961 C962 1.397 . S
C961 C966 1.363 . S
C962 H939 0.950 . S
C962 C961 1.397 . S
C962 C963 1.334 . S
C963 H940 0.950 . S
C963 C962 1.334 . S
C963 C964 1.287 . S
C964 C963 1.287 . S
C964 C965 1.524 . S
C964 H983 0.913 . S
C965 H941 0.950 . S
C965 C964 1.524 . S
C965 C966 1.415 . S
C966 H942 0.950 . S
C966 C961 1.363 . S
C966 C965 1.415 . S
C967 H943 0.951 . S
C967 C968 1.366 . S
C967 C969 1.388 . S
C968 C967 1.366 . S
C968 C972 1.385 . S
C969 H944 0.951 . S
C969 C967 1.388 . S
C969 C970 1.366 . S
C970 C969 1.366 . S
C970 C971 1.414 . S
C970 C973 1.499 . S
C971 H945 0.950 . S
C971 C970 1.414 . S
C971 C972 1.374 . S
C972 H946 0.950 . S
C972 C968 1.385 . S
C972 C971 1.374 . S
C973 C970 1.499 . S
C973 C974 1.373 . S
C973 C975 1.389 . S
C974 H947 0.950 . S
C974 C960 1.377 . S
C974 C973 1.373 . S
C975 C959 1.377 . S
C975 C973 1.389 . S
C975 C976 1.524 . S
C976 C975 1.524 . S
C976 C977 1.397 . S
C976 C981 1.363 . S
C977 H948 0.950 . S
C977 C976 1.397 . S
C977 C978 1.334 . S
C978 H949 0.950 . S
C978 C977 1.334 . S
C978 C979 1.287 . S
C979 C978 1.287 . S
C979 C980 1.524 . S
C979 H982 0.999 1_655 S
C980 H950 0.950 . S
C980 C979 1.524 . S
C980 C981 1.415 . S
C981 H951 0.950 . S
C981 C976 1.363 . S
C981 C980 1.415 . S
H982 C979 0.999 1_455 S
H983 C964 0.913 . S
H984 C1002 0.951 . S
H985 C1004 0.951 . S
H986 C1006 0.950 . S
H987 C1007 0.950 . S
H988 C1009 0.950 . S
H989 C1012 0.950 . S
H990 C1013 0.950 . S
H991 C1015 0.950 . S
H992 C1016 0.950 . S
H993 C1017 0.951 . S
H994 C1019 0.951 . S
H995 C1021 0.950 . S
H996 C1022 0.950 . S
H997 C1024 0.950 . S
H998 C1027 0.950 . S
H999 C1028 0.950 . S
H1000 C1030 0.950 . S
H1001 C1031 0.950 . S
C1002 H984 0.951 . S
C1002 C1003 1.366 . S
C1002 C1004 1.388 . S
C1003 C1002 1.366 . S
C1003 C1007 1.385 . S
C1004 H985 0.951 . S
C1004 C1002 1.388 . S
C1004 C1005 1.366 . S
C1005 C1004 1.366 . S
C1005 C1006 1.414 . S
C1005 C1008 1.499 . S
C1006 H986 0.950 . S
C1006 C1005 1.414 . S
C1006 C1007 1.374 . S
C1007 H987 0.950 . S
C1007 C1003 1.385 . S
C1007 C1006 1.374 . S
C1008 C1005 1.499 . S
C1008 C1009 1.373 . S
C1008 C1010 1.389 . S
C1009 H988 0.950 . S
C1009 C1008 1.373 . S
C1009 C1025 1.377 . S
C1010 C1008 1.389 . S
C1010 C1011 1.524 . S
C1010 C1024 1.377 . S
C1011 C1010 1.524 . S
C1011 C1012 1.397 . S
C1011 C1016 1.363 . S
C1012 H989 0.950 . S
C1012 C1011 1.397 . S
C1012 C1013 1.334 . S
C1013 H990 0.950 . S
C1013 C1012 1.334 . S
C1013 C1014 1.287 . S
C1014 C1013 1.287 . S
C1014 C1015 1.524 . S
C1014 H1033 0.913 . S
C1015 H991 0.950 . S
C1015 C1014 1.524 . S
C1015 C1016 1.415 . S
C1016 H992 0.950 . S
C1016 C1011 1.363 . S
C1016 C1015 1.415 . S
C1017 H993 0.951 . S
C1017 C1018 1.366 . S
C1017 C1019 1.388 . S
C1018 C1017 1.366 . S
C1018 C1022 1.385 . S
C1019 H994 0.951 . S
C1019 C1017 1.388 . S
C1019 C1020 1.366 . S
C1020 C1019 1.366 . S
C1020 C1021 1.414 . S
C1020 C1023 1.499 . S
C1021 H995 0.950 . S
C1021 C1020 1.414 . S
C1021 C1022 1.374 . S
C1022 H996 0.950 . S
C1022 C1018 1.385 . S
C1022 C1021 1.374 . S
C1023 C1020 1.499 . S
C1023 C1024 1.373 . S
C1023 C1025 1.389 . S
C1024 H997 0.950 . S
C1024 C1010 1.377 . S
C1024 C1023 1.373 . S
C1025 C1009 1.377 . S
C1025 C1023 1.389 . S
C1025 C1026 1.524 . S
C1026 C1025 1.524 . S
C1026 C1027 1.397 . S
C1026 C1031 1.363 . S
C1027 H998 0.950 . S
C1027 C1026 1.397 . S
C1027 C1028 1.334 . S
C1028 H999 0.950 . S
C1028 C1027 1.334 . S
C1028 C1029 1.287 . S
C1029 C1028 1.287 . S
C1029 C1030 1.524 . S
C1029 H1032 0.999 . S
C1030 H1000 0.950 . S
C1030 C1029 1.524 . S
C1030 C1031 1.415 . S
C1031 H1001 0.950 . S
C1031 C1026 1.363 . S
C1031 C1030 1.415 . S
H1032 C1029 0.999 . S
H1033 C1014 0.913 . S
H1034 C1052 0.951 . S
H1035 C1054 0.951 . S
H1036 C1056 0.950 . S
H1037 C1057 0.950 . S
H1038 C1059 0.950 . S
H1039 C1062 0.950 . S
H1040 C1063 0.950 . S
H1041 C1065 0.950 . S
H1042 C1066 0.950 . S
H1043 C1067 0.951 . S
H1044 C1069 0.951 . S
H1045 C1071 0.950 . S
H1046 C1072 0.950 . S
H1047 C1074 0.950 . S
H1048 C1077 0.950 . S
H1049 C1078 0.950 . S
H1050 C1080 0.950 . S
H1051 C1081 0.950 . S
C1052 H1034 0.951 . S
C1052 C1053 1.366 . S
C1052 C1054 1.388 . S
C1053 C1052 1.366 . S
C1053 C1057 1.385 . S
C1054 H1035 0.951 . S
C1054 C1052 1.388 . S
C1054 C1055 1.366 . S
C1055 C1054 1.366 . S
C1055 C1056 1.414 . S
C1055 C1058 1.499 . S
C1056 H1036 0.950 . S
C1056 C1055 1.414 . S
C1056 C1057 1.374 . S
C1057 H1037 0.950 . S
C1057 C1053 1.385 . S
C1057 C1056 1.374 . S
C1058 C1055 1.499 . S
C1058 C1059 1.373 . S
C1058 C1060 1.389 . S
C1059 H1038 0.950 . S
C1059 C1058 1.373 . S
C1059 C1075 1.377 . S
C1060 C1058 1.389 . S
C1060 C1061 1.524 . S
C1060 C1074 1.377 . S
C1061 C1060 1.524 . S
C1061 C1062 1.397 . S
C1061 C1066 1.363 . S
C1062 H1039 0.950 . S
C1062 C1061 1.397 . S
C1062 C1063 1.334 . S
C1063 H1040 0.950 . S
C1063 C1062 1.334 . S
C1063 C1064 1.287 . S
C1064 C1063 1.287 . S
C1064 C1065 1.524 . S
C1064 H1083 0.913 . S
C1065 H1041 0.950 . S
C1065 C1064 1.524 . S
C1065 C1066 1.415 . S
C1066 H1042 0.950 . S
C1066 C1061 1.363 . S
C1066 C1065 1.415 . S
C1067 H1043 0.951 . S
C1067 C1068 1.366 . S
C1067 C1069 1.388 . S
C1068 C1067 1.366 . S
C1068 C1072 1.385 . S
C1069 H1044 0.951 . S
C1069 C1067 1.388 . S
C1069 C1070 1.366 . S
C1070 C1069 1.366 . S
C1070 C1071 1.414 . S
C1070 C1073 1.499 . S
C1071 H1045 0.950 . S
C1071 C1070 1.414 . S
C1071 C1072 1.374 . S
C1072 H1046 0.950 . S
C1072 C1068 1.385 . S
C1072 C1071 1.374 . S
C1073 C1070 1.499 . S
C1073 C1074 1.373 . S
C1073 C1075 1.389 . S
C1074 H1047 0.950 . S
C1074 C1060 1.377 . S
C1074 C1073 1.373 . S
C1075 C1059 1.377 . S
C1075 C1073 1.389 . S
C1075 C1076 1.524 . S
C1076 C1075 1.524 . S
C1076 C1077 1.397 . S
C1076 C1081 1.363 . S
C1077 H1048 0.950 . S
C1077 C1076 1.397 . S
C1077 C1078 1.334 . S
C1078 H1049 0.950 . S
C1078 C1077 1.334 . S
C1078 C1079 1.287 . S
C1079 C1078 1.287 . S
C1079 C1080 1.524 . S
C1079 H1082 0.999 . S
C1080 H1050 0.950 . S
C1080 C1079 1.524 . S
C1080 C1081 1.415 . S
C1081 H1051 0.950 . S
C1081 C1076 1.363 . S
C1081 C1080 1.415 . S
H1082 C1079 0.999 . S
H1083 C1064 0.913 . S
H1084 C1102 0.951 . S
H1085 C1104 0.951 . S
H1086 C1106 0.950 . S
H1087 C1107 0.950 . S
H1088 C1109 0.950 . S
H1089 C1112 0.950 . S
H1090 C1113 0.950 . S
H1091 C1115 0.950 . S
H1092 C1116 0.950 . S
H1093 C1117 0.951 . S
H1094 C1119 0.951 . S
H1095 C1121 0.950 . S
H1096 C1122 0.950 . S
H1097 C1124 0.950 . S
H1098 C1127 0.950 . S
H1099 C1128 0.950 . S
H1100 C1130 0.950 . S
H1101 C1131 0.950 . S
C1102 H1084 0.951 . S
C1102 C1103 1.366 . S
C1102 C1104 1.388 . S
C1103 C1102 1.366 . S
C1103 C1107 1.385 . S
C1104 H1085 0.951 . S
C1104 C1102 1.388 . S
C1104 C1105 1.366 . S
C1105 C1104 1.366 . S
C1105 C1106 1.414 . S
C1105 C1108 1.499 . S
C1106 H1086 0.950 . S
C1106 C1105 1.414 . S
C1106 C1107 1.374 . S
C1107 H1087 0.950 . S
C1107 C1103 1.385 . S
C1107 C1106 1.374 . S
C1108 C1105 1.499 . S
C1108 C1109 1.373 . S
C1108 C1110 1.389 . S
C1109 H1088 0.950 . S
C1109 C1108 1.373 . S
C1109 C1125 1.377 . S
C1110 C1108 1.389 . S
C1110 C1111 1.524 . S
C1110 C1124 1.377 . S
C1111 C1110 1.524 . S
C1111 C1112 1.397 . S
C1111 C1116 1.363 . S
C1112 H1089 0.950 . S
C1112 C1111 1.397 . S
C1112 C1113 1.334 . S
C1113 H1090 0.950 . S
C1113 C1112 1.334 . S
C1113 C1114 1.287 . S
C1114 C1113 1.287 . S
C1114 C1115 1.524 . S
C1114 H1133 0.913 . S
C1115 H1091 0.950 . S
C1115 C1114 1.524 . S
C1115 C1116 1.415 . S
C1116 H1092 0.950 . S
C1116 C1111 1.363 . S
C1116 C1115 1.415 . S
C1117 H1093 0.951 . S
C1117 C1118 1.366 . S
C1117 C1119 1.388 . S
C1118 C1117 1.366 . S
C1118 C1122 1.385 . S
C1119 H1094 0.951 . S
C1119 C1117 1.388 . S
C1119 C1120 1.366 . S
C1120 C1119 1.366 . S
C1120 C1121 1.414 . S
C1120 C1123 1.499 . S
C1121 H1095 0.950 . S
C1121 C1120 1.414 . S
C1121 C1122 1.374 . S
C1122 H1096 0.950 . S
C1122 C1118 1.385 . S
C1122 C1121 1.374 . S
C1123 C1120 1.499 . S
C1123 C1124 1.373 . S
C1123 C1125 1.389 . S
C1124 H1097 0.950 . S
C1124 C1110 1.377 . S
C1124 C1123 1.373 . S
C1125 C1109 1.377 . S
C1125 C1123 1.389 . S
C1125 C1126 1.524 . S
C1126 C1125 1.524 . S
C1126 C1127 1.397 . S
C1126 C1131 1.363 . S
C1127 H1098 0.950 . S
C1127 C1126 1.397 . S
C1127 C1128 1.334 . S
C1128 H1099 0.950 . S
C1128 C1127 1.334 . S
C1128 C1129 1.287 . S
C1129 C1128 1.287 . S
C1129 C1130 1.524 . S
C1129 H1132 0.999 . S
C1130 H1100 0.950 . S
C1130 C1129 1.524 . S
C1130 C1131 1.415 . S
C1131 H1101 0.950 . S
C1131 C1126 1.363 . S
C1131 C1130 1.415 . S
H1132 C1129 0.999 . S
H1133 C1114 0.913 . S
H1134 C1152 0.951 . S
H1135 C1154 0.951 . S
H1136 C1156 0.950 . S
H1137 C1157 0.950 . S
H1138 C1159 0.950 . S
H1139 C1162 0.950 . S
H1140 C1163 0.950 . S
H1141 C1165 0.950 . S
H1142 C1166 0.950 . S
H1143 C1167 0.951 . S
H1144 C1169 0.951 . S
H1145 C1171 0.950 . S
H1146 C1172 0.950 . S
H1147 C1174 0.950 . S
H1148 C1177 0.950 . S
H1149 C1178 0.950 . S
H1150 C1180 0.950 . S
H1151 C1181 0.950 . S
C1152 H1134 0.951 . S
C1152 C1153 1.366 . S
C1152 C1154 1.388 . S
C1153 C1152 1.366 . S
C1153 C1157 1.385 . S
C1154 H1135 0.951 . S
C1154 C1152 1.388 . S
C1154 C1155 1.366 . S
C1155 C1154 1.366 . S
C1155 C1156 1.414 . S
C1155 C1158 1.499 . S
C1156 H1136 0.950 . S
C1156 C1155 1.414 . S
C1156 C1157 1.374 . S
C1157 H1137 0.950 . S
C1157 C1153 1.385 . S
C1157 C1156 1.374 . S
C1158 C1155 1.499 . S
C1158 C1159 1.373 . S
C1158 C1160 1.389 . S
C1159 H1138 0.950 . S
C1159 C1158 1.373 . S
C1159 C1175 1.377 . S
C1160 C1158 1.389 . S
C1160 C1161 1.524 . S
C1160 C1174 1.377 . S
C1161 C1160 1.524 . S
C1161 C1162 1.397 . S
C1161 C1166 1.363 . S
C1162 H1139 0.950 . S
C1162 C1161 1.397 . S
C1162 C1163 1.334 . S
C1163 H1140 0.950 . S
C1163 C1162 1.334 . S
C1163 C1164 1.287 . S
C1164 C1163 1.287 . S
C1164 C1165 1.524 . S
C1164 H1183 0.913 . S
C1165 H1141 0.950 . S
C1165 C1164 1.524 . S
C1165 C1166 1.415 . S
C1166 H1142 0.950 . S
C1166 C1161 1.363 . S
C1166 C1165 1.415 . S
C1167 H1143 0.951 . S
C1167 C1168 1.366 . S
C1167 C1169 1.388 . S
C1168 C1167 1.366 . S
C1168 C1172 1.385 . S
C1169 H1144 0.951 . S
C1169 C1167 1.388 . S
C1169 C1170 1.366 . S
C1170 C1169 1.366 . S
C1170 C1171 1.414 . S
C1170 C1173 1.499 . S
C1171 H1145 0.950 . S
C1171 C1170 1.414 . S
C1171 C1172 1.374 . S
C1172 H1146 0.950 . S
C1172 C1168 1.385 . S
C1172 C1171 1.374 . S
C1173 C1170 1.499 . S
C1173 C1174 1.373 . S
C1173 C1175 1.389 . S
C1174 H1147 0.950 . S
C1174 C1160 1.377 . S
C1174 C1173 1.373 . S
C1175 C1159 1.377 . S
C1175 C1173 1.389 . S
C1175 C1176 1.524 . S
C1176 C1175 1.524 . S
C1176 C1177 1.397 . S
C1176 C1181 1.363 . S
C1177 H1148 0.950 . S
C1177 C1176 1.397 . S
C1177 C1178 1.334 . S
C1178 H1149 0.950 . S
C1178 C1177 1.334 . S
C1178 C1179 1.287 . S
C1179 C1178 1.287 . S
C1179 C1180 1.524 . S
C1179 H1182 0.999 . S
C1180 H1150 0.950 . S
C1180 C1179 1.524 . S
C1180 C1181 1.415 . S
C1181 H1151 0.950 . S
C1181 C1176 1.363 . S
C1181 C1180 1.415 . S
H1182 C1179 0.999 . S
H1183 C1164 0.913 . S
H1184 C1202 0.951 . S
H1185 C1204 0.951 . S
H1186 C1206 0.950 . S
H1187 C1207 0.950 . S
H1188 C1209 0.950 . S
H1189 C1212 0.950 . S
H1190 C1213 0.950 . S
H1191 C1215 0.950 . S
H1192 C1216 0.950 . S
H1193 C1217 0.951 . S
H1194 C1219 0.951 . S
H1195 C1221 0.950 . S
H1196 C1222 0.950 . S
H1197 C1224 0.950 . S
H1198 C1227 0.950 . S
H1199 C1228 0.950 . S
H1200 C1230 0.950 . S
H1201 C1231 0.950 . S
C1202 H1184 0.951 . S
C1202 C1203 1.366 . S
C1202 C1204 1.388 . S
C1203 C1202 1.366 . S
C1203 C1207 1.385 . S
C1204 H1185 0.951 . S
C1204 C1202 1.388 . S
C1204 C1205 1.366 . S
C1205 C1204 1.366 . S
C1205 C1206 1.414 . S
C1205 C1208 1.499 . S
C1206 H1186 0.950 . S
C1206 C1205 1.414 . S
C1206 C1207 1.374 . S
C1207 H1187 0.950 . S
C1207 C1203 1.385 . S
C1207 C1206 1.374 . S
C1208 C1205 1.499 . S
C1208 C1209 1.373 . S
C1208 C1210 1.389 . S
C1209 H1188 0.950 . S
C1209 C1208 1.373 . S
C1209 C1225 1.377 . S
C1210 C1208 1.389 . S
C1210 C1211 1.524 . S
C1210 C1224 1.377 . S
C1211 C1210 1.524 . S
C1211 C1212 1.397 . S
C1211 C1216 1.363 . S
C1212 H1189 0.950 . S
C1212 C1211 1.397 . S
C1212 C1213 1.334 . S
C1213 H1190 0.950 . S
C1213 C1212 1.334 . S
C1213 C1214 1.287 . S
C1214 C1213 1.287 . S
C1214 C1215 1.524 . S
C1214 H1233 0.913 . S
C1215 H1191 0.950 . S
C1215 C1214 1.524 . S
C1215 C1216 1.415 . S
C1216 H1192 0.950 . S
C1216 C1211 1.363 . S
C1216 C1215 1.415 . S
C1217 H1193 0.951 . S
C1217 C1218 1.366 . S
C1217 C1219 1.388 . S
C1218 C1217 1.366 . S
C1218 C1222 1.385 . S
C1219 H1194 0.951 . S
C1219 C1217 1.388 . S
C1219 C1220 1.366 . S
C1220 C1219 1.366 . S
C1220 C1221 1.414 . S
C1220 C1223 1.499 . S
C1221 H1195 0.950 . S
C1221 C1220 1.414 . S
C1221 C1222 1.374 . S
C1222 H1196 0.950 . S
C1222 C1218 1.385 . S
C1222 C1221 1.374 . S
C1223 C1220 1.499 . S
C1223 C1224 1.373 . S
C1223 C1225 1.389 . S
C1224 H1197 0.950 . S
C1224 C1210 1.377 . S
C1224 C1223 1.373 . S
C1225 C1209 1.377 . S
C1225 C1223 1.389 . S
C1225 C1226 1.524 . S
C1226 C1225 1.524 . S
C1226 C1227 1.397 . S
C1226 C1231 1.363 . S
C1227 H1198 0.950 . S
C1227 C1226 1.397 . S
C1227 C1228 1.334 . S
C1228 H1199 0.950 . S
C1228 C1227 1.334 . S
C1228 C1229 1.287 . S
C1229 C1228 1.287 . S
C1229 C1230 1.524 . S
C1229 H1232 0.999 . S
C1230 H1200 0.950 . S
C1230 C1229 1.524 . S
C1230 C1231 1.415 . S
C1231 H1201 0.950 . S
C1231 C1226 1.363 . S
C1231 C1230 1.415 . S
H1232 C1229 0.999 . S
H1233 C1214 0.913 . S
H1234 C1252 0.951 . S
H1235 C1254 0.951 . S
H1236 C1256 0.950 . S
H1237 C1257 0.950 . S
H1238 C1259 0.950 . S
H1239 C1262 0.950 . S
H1240 C1263 0.950 . S
H1241 C1265 0.950 . S
H1242 C1266 0.950 . S
H1243 C1267 0.951 . S
H1244 C1269 0.951 . S
H1245 C1271 0.950 . S
H1246 C1272 0.950 . S
H1247 C1274 0.950 . S
H1248 C1277 0.950 . S
H1249 C1278 0.950 . S
H1250 C1280 0.950 . S
H1251 C1281 0.950 . S
C1252 H1234 0.951 . S
C1252 C1253 1.366 . S
C1252 C1254 1.388 . S
C1253 C1252 1.366 . S
C1253 C1257 1.385 . S
C1254 H1235 0.951 . S
C1254 C1252 1.388 . S
C1254 C1255 1.366 . S
C1255 C1254 1.366 . S
C1255 C1256 1.414 . S
C1255 C1258 1.499 . S
C1256 H1236 0.950 . S
C1256 C1255 1.414 . S
C1256 C1257 1.374 . S
C1257 H1237 0.950 . S
C1257 C1253 1.385 . S
C1257 C1256 1.374 . S
C1258 C1255 1.499 . S
C1258 C1259 1.373 . S
C1258 C1260 1.389 . S
C1259 H1238 0.950 . S
C1259 C1258 1.373 . S
C1259 C1275 1.377 . S
C1260 C1258 1.389 . S
C1260 C1261 1.524 . S
C1260 C1274 1.377 . S
C1261 C1260 1.524 . S
C1261 C1262 1.397 . S
C1261 C1266 1.363 . S
C1262 H1239 0.950 . S
C1262 C1261 1.397 . S
C1262 C1263 1.334 . S
C1263 H1240 0.950 . S
C1263 C1262 1.334 . S
C1263 C1264 1.287 . S
C1264 C1263 1.287 . S
C1264 C1265 1.524 . S
C1264 H1283 0.913 . S
C1265 H1241 0.950 . S
C1265 C1264 1.524 . S
C1265 C1266 1.415 . S
C1266 H1242 0.950 . S
C1266 C1261 1.363 . S
C1266 C1265 1.415 . S
C1267 H1243 0.951 . S
C1267 C1268 1.366 . S
C1267 C1269 1.388 . S
C1268 C1267 1.366 . S
C1268 C1272 1.385 . S
C1269 H1244 0.951 . S
C1269 C1267 1.388 . S
C1269 C1270 1.366 . S
C1270 C1269 1.366 . S
C1270 C1271 1.414 . S
C1270 C1273 1.499 . S
C1271 H1245 0.950 . S
C1271 C1270 1.414 . S
C1271 C1272 1.374 . S
C1272 H1246 0.950 . S
C1272 C1268 1.385 . S
C1272 C1271 1.374 . S
C1273 C1270 1.499 . S
C1273 C1274 1.373 . S
C1273 C1275 1.389 . S
C1274 H1247 0.950 . S
C1274 C1260 1.377 . S
C1274 C1273 1.373 . S
C1275 C1259 1.377 . S
C1275 C1273 1.389 . S
C1275 C1276 1.524 . S
C1276 C1275 1.524 . S
C1276 C1277 1.397 . S
C1276 C1281 1.363 . S
C1277 H1248 0.950 . S
C1277 C1276 1.397 . S
C1277 C1278 1.334 1_556 S
C1278 H1249 0.950 . S
C1278 C1277 1.334 1_554 S
C1278 C1279 1.287 . S
C1279 C1278 1.287 . S
C1279 C1280 1.524 . S
C1279 H1282 0.999 . S
C1280 H1250 0.950 . S
C1280 C1279 1.524 . S
C1280 C1281 1.415 1_554 S
C1281 H1251 0.950 . S
C1281 C1276 1.363 . S
C1281 C1280 1.415 1_556 S
H1282 C1279 0.999 . S
H1283 C1264 0.913 . S
H1284 C1302 0.951 . S
H1285 C1304 0.951 . S
H1286 C1306 0.950 . S
H1287 C1307 0.950 . S
H1288 C1309 0.950 . S
H1289 C1312 0.950 . S
H1290 C1313 0.950 . S
H1291 C1315 0.950 . S
H1292 C1316 0.950 . S
H1293 C1317 0.951 . S
H1294 C1319 0.951 . S
H1295 C1321 0.950 . S
H1296 C1322 0.950 . S
H1297 C1324 0.950 . S
H1298 C1327 0.950 . S
H1299 C1328 0.950 . S
H1300 C1330 0.950 . S
H1301 C1331 0.950 . S
C1302 H1284 0.951 . S
C1302 C1303 1.366 . S
C1302 C1304 1.388 . S
C1303 C1302 1.366 . S
C1303 C1307 1.385 . S
C1304 H1285 0.951 . S
C1304 C1302 1.388 . S
C1304 C1305 1.366 . S
C1305 C1304 1.366 . S
C1305 C1306 1.414 . S
C1305 C1308 1.499 . S
C1306 H1286 0.950 . S
C1306 C1305 1.414 . S
C1306 C1307 1.374 . S
C1307 H1287 0.950 . S
C1307 C1303 1.385 . S
C1307 C1306 1.374 . S
C1308 C1305 1.499 . S
C1308 C1309 1.373 . S
C1308 C1310 1.389 . S
C1309 H1288 0.950 . S
C1309 C1308 1.373 . S
C1309 C1325 1.377 . S
C1310 C1308 1.389 . S
C1310 C1311 1.524 . S
C1310 C1324 1.377 . S
C1311 C1310 1.524 . S
C1311 C1312 1.397 . S
C1311 C1316 1.363 . S
C1312 H1289 0.950 . S
C1312 C1311 1.397 . S
C1312 C1313 1.334 . S
C1313 H1290 0.950 . S
C1313 C1312 1.334 . S
C1313 C1314 1.287 . S
C1314 C1313 1.287 . S
C1314 C1315 1.524 . S
C1314 H1333 0.913 . S
C1315 H1291 0.950 . S
C1315 C1314 1.524 . S
C1315 C1316 1.415 . S
C1316 H1292 0.950 . S
C1316 C1311 1.363 . S
C1316 C1315 1.415 . S
C1317 H1293 0.951 . S
C1317 C1318 1.366 . S
C1317 C1319 1.388 . S
C1318 C1317 1.366 . S
C1318 C1322 1.385 . S
C1319 H1294 0.951 . S
C1319 C1317 1.388 . S
C1319 C1320 1.366 . S
C1320 C1319 1.366 . S
C1320 C1321 1.414 . S
C1320 C1323 1.499 . S
C1321 H1295 0.950 . S
C1321 C1320 1.414 . S
C1321 C1322 1.374 . S
C1322 H1296 0.950 . S
C1322 C1318 1.385 . S
C1322 C1321 1.374 . S
C1323 C1320 1.499 . S
C1323 C1324 1.373 . S
C1323 C1325 1.389 . S
C1324 H1297 0.950 . S
C1324 C1310 1.377 . S
C1324 C1323 1.373 . S
C1325 C1309 1.377 . S
C1325 C1323 1.389 . S
C1325 C1326 1.524 . S
C1326 C1325 1.524 . S
C1326 C1327 1.397 . S
C1326 C1331 1.363 . S
C1327 H1298 0.950 . S
C1327 C1326 1.397 . S
C1327 C1328 1.334 . S
C1328 H1299 0.950 . S
C1328 C1327 1.334 . S
C1328 C1329 1.287 1_554 S
C1329 C1328 1.287 1_556 S
C1329 C1330 1.524 . S
C1329 H1332 0.999 . S
C1330 H1300 0.950 . S
C1330 C1329 1.524 . S
C1330 C1331 1.415 1_556 S
C1331 H1301 0.950 . S
C1331 C1326 1.363 . S
C1331 C1330 1.415 1_554 S
H1332 C1329 0.999 . S
H1333 C1314 0.913 . S
H1334 C1352 0.951 . S
H1335 C1354 0.951 . S
H1336 C1356 0.950 . S
H1337 C1357 0.950 . S
H1338 C1359 0.950 . S
H1339 C1362 0.950 . S
H1340 C1363 0.950 . S
H1341 C1365 0.950 . S
H1342 C1366 0.950 . S
H1343 C1367 0.951 . S
H1344 C1369 0.951 . S
H1345 C1371 0.950 . S
H1346 C1372 0.950 . S
H1347 C1374 0.950 . S
H1348 C1377 0.950 . S
H1349 C1378 0.950 . S
H1350 C1380 0.950 . S
H1351 C1381 0.950 . S
C1352 H1334 0.951 . S
C1352 C1353 1.366 . S
C1352 C1354 1.388 . S
C1353 C1352 1.366 . S
C1353 C1357 1.385 . S
C1354 H1335 0.951 . S
C1354 C1352 1.388 . S
C1354 C1355 1.366 . S
C1355 C1354 1.366 . S
C1355 C1356 1.414 . S
C1355 C1358 1.499 . S
C1356 H1336 0.950 . S
C1356 C1355 1.414 . S
C1356 C1357 1.374 . S
C1357 H1337 0.950 . S
C1357 C1353 1.385 . S
C1357 C1356 1.374 . S
C1358 C1355 1.499 . S
C1358 C1359 1.373 . S
C1358 C1360 1.389 . S
C1359 H1338 0.950 . S
C1359 C1358 1.373 . S
C1359 C1375 1.377 . S
C1360 C1358 1.389 . S
C1360 C1361 1.524 . S
C1360 C1374 1.377 . S
C1361 C1360 1.524 . S
C1361 C1362 1.397 . S
C1361 C1366 1.363 . S
C1362 H1339 0.950 . S
C1362 C1361 1.397 . S
C1362 C1363 1.334 . S
C1363 H1340 0.950 . S
C1363 C1362 1.334 . S
C1363 C1364 1.287 . S
C1364 C1363 1.287 . S
C1364 C1365 1.524 . S
C1364 H1383 0.913 . S
C1365 H1341 0.950 . S
C1365 C1364 1.524 . S
C1365 C1366 1.415 . S
C1366 H1342 0.950 . S
C1366 C1361 1.363 . S
C1366 C1365 1.415 . S
C1367 H1343 0.951 . S
C1367 C1368 1.366 . S
C1367 C1369 1.388 . S
C1368 C1367 1.366 . S
C1368 C1372 1.385 . S
C1369 H1344 0.951 . S
C1369 C1367 1.388 . S
C1369 C1370 1.366 . S
C1370 C1369 1.366 . S
C1370 C1371 1.414 . S
C1370 C1373 1.499 . S
C1371 H1345 0.950 . S
C1371 C1370 1.414 . S
C1371 C1372 1.374 . S
C1372 H1346 0.950 . S
C1372 C1368 1.385 . S
C1372 C1371 1.374 . S
C1373 C1370 1.499 . S
C1373 C1374 1.373 . S
C1373 C1375 1.389 . S
C1374 H1347 0.950 . S
C1374 C1360 1.377 . S
C1374 C1373 1.373 . S
C1375 C1359 1.377 . S
C1375 C1373 1.389 . S
C1375 C1376 1.524 . S
C1376 C1375 1.524 . S
C1376 C1377 1.397 . S
C1376 C1381 1.363 . S
C1377 H1348 0.950 . S
C1377 C1376 1.397 . S
C1377 C1378 1.334 . S
C1378 H1349 0.950 . S
C1378 C1377 1.334 . S
C1378 C1379 1.287 . S
C1379 C1378 1.287 . S
C1379 C1380 1.524 . S
C1379 H1382 0.999 . S
C1380 H1350 0.950 . S
C1380 C1379 1.524 . S
C1380 C1381 1.415 . S
C1381 H1351 0.950 . S
C1381 C1376 1.363 . S
C1381 C1380 1.415 . S
H1382 C1379 0.999 . S
H1383 C1364 0.913 . S
H1384 C1402 0.951 . S
H1385 C1404 0.951 . S
H1386 C1406 0.950 . S
H1387 C1407 0.950 . S
H1388 C1409 0.950 . S
H1389 C1412 0.950 . S
H1390 C1413 0.950 . S
H1391 C1415 0.950 . S
H1392 C1416 0.950 . S
H1393 C1417 0.951 . S
H1394 C1419 0.951 . S
H1395 C1421 0.950 . S
H1396 C1422 0.950 . S
H1397 C1424 0.950 . S
H1398 C1427 0.950 . S
H1399 C1428 0.950 . S
H1400 C1430 0.950 . S
H1401 C1431 0.950 . S
C1402 H1384 0.951 . S
C1402 C1403 1.366 . S
C1402 C1404 1.388 . S
C1403 C1402 1.366 . S
C1403 C1407 1.385 . S
C1404 H1385 0.951 . S
C1404 C1402 1.388 . S
C1404 C1405 1.366 . S
C1405 C1404 1.366 . S
C1405 C1406 1.414 . S
C1405 C1408 1.499 . S
C1406 H1386 0.950 . S
C1406 C1405 1.414 . S
C1406 C1407 1.374 . S
C1407 H1387 0.950 . S
C1407 C1403 1.385 . S
C1407 C1406 1.374 . S
C1408 C1405 1.499 . S
C1408 C1409 1.373 . S
C1408 C1410 1.389 . S
C1409 H1388 0.950 . S
C1409 C1408 1.373 . S
C1409 C1425 1.377 . S
C1410 C1408 1.389 . S
C1410 C1411 1.524 . S
C1410 C1424 1.377 . S
C1411 C1410 1.524 . S
C1411 C1412 1.397 . S
C1411 C1416 1.363 . S
C1412 H1389 0.950 . S
C1412 C1411 1.397 . S
C1412 C1413 1.334 . S
C1413 H1390 0.950 . S
C1413 C1412 1.334 . S
C1413 C1414 1.287 . S
C1414 C1413 1.287 . S
C1414 C1415 1.524 . S
C1414 H1433 0.913 . S
C1415 H1391 0.950 . S
C1415 C1414 1.524 . S
C1415 C1416 1.415 . S
C1416 H1392 0.950 . S
C1416 C1411 1.363 . S
C1416 C1415 1.415 . S
C1417 H1393 0.951 . S
C1417 C1418 1.366 . S
C1417 C1419 1.388 . S
C1418 C1417 1.366 . S
C1418 C1422 1.385 . S
C1419 H1394 0.951 . S
C1419 C1417 1.388 . S
C1419 C1420 1.366 . S
C1420 C1419 1.366 . S
C1420 C1421 1.414 . S
C1420 C1423 1.499 . S
C1421 H1395 0.950 . S
C1421 C1420 1.414 . S
C1421 C1422 1.374 . S
C1422 H1396 0.950 . S
C1422 C1418 1.385 . S
C1422 C1421 1.374 . S
C1423 C1420 1.499 . S
C1423 C1424 1.373 . S
C1423 C1425 1.389 . S
C1424 H1397 0.950 . S
C1424 C1410 1.377 . S
C1424 C1423 1.373 . S
C1425 C1409 1.377 . S
C1425 C1423 1.389 . S
C1425 C1426 1.524 . S
C1426 C1425 1.524 . S
C1426 C1427 1.397 . S
C1426 C1431 1.363 . S
C1427 H1398 0.950 . S
C1427 C1426 1.397 . S
C1427 C1428 1.334 . S
C1428 H1399 0.950 . S
C1428 C1427 1.334 . S
C1428 C1429 1.287 . S
C1429 C1428 1.287 . S
C1429 C1430 1.524 . S
C1429 H1432 0.999 . S
C1430 H1400 0.950 . S
C1430 C1429 1.524 . S
C1430 C1431 1.415 . S
C1431 H1401 0.950 . S
C1431 C1426 1.363 . S
C1431 C1430 1.415 . S
H1432 C1429 0.999 . S
H1433 C1414 0.913 . S
H1434 C1452 0.951 . S
H1435 C1454 0.951 . S
H1436 C1456 0.950 . S
H1437 C1457 0.950 . S
H1438 C1459 0.950 . S
H1439 C1462 0.950 . S
H1440 C1463 0.950 . S
H1441 C1465 0.950 . S
H1442 C1466 0.950 . S
H1443 C1467 0.951 . S
H1444 C1469 0.951 . S
H1445 C1471 0.950 . S
H1446 C1472 0.950 . S
H1447 C1474 0.950 . S
H1448 C1477 0.950 . S
H1449 C1478 0.950 1_554 S
H1450 C1480 0.950 . S
H1451 C1481 0.950 . S
C1452 H1434 0.951 . S
C1452 C1453 1.366 . S
C1452 C1454 1.388 . S
C1453 C1452 1.366 . S
C1453 C1457 1.385 . S
C1454 H1435 0.951 . S
C1454 C1452 1.388 . S
C1454 C1455 1.366 . S
C1455 C1454 1.366 . S
C1455 C1456 1.414 . S
C1455 C1458 1.499 . S
C1456 H1436 0.950 . S
C1456 C1455 1.414 . S
C1456 C1457 1.374 . S
C1457 H1437 0.950 . S
C1457 C1453 1.385 . S
C1457 C1456 1.374 . S
C1458 C1455 1.499 . S
C1458 C1459 1.373 . S
C1458 C1460 1.389 . S
C1459 H1438 0.950 . S
C1459 C1458 1.373 . S
C1459 C1475 1.377 . S
C1460 C1458 1.389 . S
C1460 C1461 1.524 . S
C1460 C1474 1.377 . S
C1461 C1460 1.524 . S
C1461 C1462 1.397 . S
C1461 C1466 1.363 . S
C1462 H1439 0.950 . S
C1462 C1461 1.397 . S
C1462 C1463 1.334 . S
C1463 H1440 0.950 . S
C1463 C1462 1.334 . S
C1463 C1464 1.287 . S
C1464 C1463 1.287 . S
C1464 C1465 1.524 . S
C1464 H1483 0.913 . S
C1465 H1441 0.950 . S
C1465 C1464 1.524 . S
C1465 C1466 1.415 . S
C1466 H1442 0.950 . S
C1466 C1461 1.363 . S
C1466 C1465 1.415 . S
C1467 H1443 0.951 . S
C1467 C1468 1.366 . S
C1467 C1469 1.388 . S
C1468 C1467 1.366 . S
C1468 C1472 1.385 . S
C1469 H1444 0.951 . S
C1469 C1467 1.388 . S
C1469 C1470 1.366 . S
C1470 C1469 1.366 . S
C1470 C1471 1.414 . S
C1470 C1473 1.499 . S
C1471 H1445 0.950 . S
C1471 C1470 1.414 . S
C1471 C1472 1.374 . S
C1472 H1446 0.950 . S
C1472 C1468 1.385 . S
C1472 C1471 1.374 . S
C1473 C1470 1.499 . S
C1473 C1474 1.373 . S
C1473 C1475 1.389 . S
C1474 H1447 0.950 . S
C1474 C1460 1.377 . S
C1474 C1473 1.373 . S
C1475 C1459 1.377 . S
C1475 C1473 1.389 . S
C1475 C1476 1.524 . S
C1476 C1475 1.524 . S
C1476 C1477 1.397 . S
C1476 C1481 1.363 . S
C1477 H1448 0.950 . S
C1477 C1476 1.397 . S
C1477 C1478 1.334 . S
C1478 H1449 0.950 1_556 S
C1478 C1477 1.334 . S
C1478 C1479 1.287 . S
C1479 C1478 1.287 . S
C1479 C1480 1.524 . S
C1479 H1482 0.999 1_556 S
C1480 H1450 0.950 . S
C1480 C1479 1.524 . S
C1480 C1481 1.415 . S
C1481 H1451 0.950 . S
C1481 C1476 1.363 . S
C1481 C1480 1.415 . S
H1482 C1479 0.999 1_554 S
H1483 C1464 0.913 . S
H1484 C1502 0.951 . S
H1485 C1504 0.951 . S
H1486 C1506 0.950 . S
H1487 C1507 0.950 . S
H1488 C1509 0.950 . S
H1489 C1512 0.950 . S
H1490 C1513 0.950 . S
H1491 C1515 0.950 . S
H1492 C1516 0.950 . S
H1493 C1517 0.951 . S
H1494 C1519 0.951 . S
H1495 C1521 0.950 . S
H1496 C1522 0.950 . S
H1497 C1524 0.950 . S
H1498 C1527 0.950 . S
H1499 C1528 0.950 . S
H1500 C1530 0.949 . S
H1501 C1531 0.950 . S
C1502 H1484 0.951 . S
C1502 C1503 1.366 . S
C1502 C1504 1.388 . S
C1503 C1502 1.366 . S
C1503 C1507 1.385 . S
C1504 H1485 0.951 . S
C1504 C1502 1.388 . S
C1504 C1505 1.366 . S
C1505 C1504 1.366 . S
C1505 C1506 1.414 . S
C1505 C1508 1.499 . S
C1506 H1486 0.950 . S
C1506 C1505 1.414 . S
C1506 C1507 1.374 . S
C1507 H1487 0.950 . S
C1507 C1503 1.385 . S
C1507 C1506 1.374 . S
C1508 C1505 1.499 . S
C1508 C1509 1.373 . S
C1508 C1510 1.389 . S
C1509 H1488 0.950 . S
C1509 C1508 1.373 . S
C1509 C1525 1.377 . S
C1510 C1508 1.389 . S
C1510 C1511 1.524 . S
C1510 C1524 1.377 . S
C1511 C1510 1.524 . S
C1511 C1512 1.397 . S
C1511 C1516 1.363 . S
C1512 H1489 0.950 . S
C1512 C1511 1.397 . S
C1512 C1513 1.334 . S
C1513 H1490 0.950 . S
C1513 C1512 1.334 . S
C1513 C1514 1.287 . S
C1514 C1513 1.287 . S
C1514 C1515 1.524 . S
C1514 H1533 0.913 . S
C1515 H1491 0.950 . S
C1515 C1514 1.524 . S
C1515 C1516 1.415 . S
C1516 H1492 0.950 . S
C1516 C1511 1.363 . S
C1516 C1515 1.415 . S
C1517 H1493 0.951 . S
C1517 C1518 1.366 . S
C1517 C1519 1.388 . S
C1518 C1517 1.366 . S
C1518 C1522 1.385 . S
C1519 H1494 0.951 . S
C1519 C1517 1.388 . S
C1519 C1520 1.366 . S
C1520 C1519 1.366 . S
C1520 C1521 1.414 . S
C1520 C1523 1.499 . S
C1521 H1495 0.950 . S
C1521 C1520 1.414 . S
C1521 C1522 1.374 . S
C1522 H1496 0.950 . S
C1522 C1518 1.385 . S
C1522 C1521 1.374 . S
C1523 C1520 1.499 . S
C1523 C1524 1.373 . S
C1523 C1525 1.389 . S
C1524 H1497 0.950 . S
C1524 C1510 1.377 . S
C1524 C1523 1.373 . S
C1525 C1509 1.377 . S
C1525 C1523 1.389 . S
C1525 C1526 1.524 . S
C1526 C1525 1.524 . S
C1526 C1527 1.397 . S
C1526 C1531 1.363 . S
C1527 H1498 0.950 . S
C1527 C1526 1.397 . S
C1527 C1528 1.334 1_556 S
C1528 H1499 0.950 . S
C1528 C1527 1.334 1_554 S
C1528 C1529 1.287 . S
C1529 C1528 1.287 . S
C1529 C1530 1.522 . S
C1529 H1532 0.999 . S
C1530 H1500 0.949 . S
C1530 C1529 1.522 . S
C1530 C1531 1.418 1_554 S
C1531 H1501 0.950 . S
C1531 C1526 1.363 . S
C1531 C1530 1.418 1_556 S
H1532 C1529 0.999 . S
H1533 C1514 0.913 . S
H1534 C1552 0.951 . S
H1535 C1554 0.951 . S
H1536 C1556 0.950 . S
H1537 C1557 0.950 . S
H1538 C1559 0.950 . S
H1539 C1562 0.950 . S
H1540 C1563 0.950 . S
H1541 C1565 0.950 . S
H1542 C1566 0.950 . S
H1543 C1567 0.951 . S
H1544 C1569 0.951 . S
H1545 C1571 0.950 . S
H1546 C1572 0.950 . S
H1547 C1574 0.950 . S
H1548 C1577 0.950 . S
H1549 C1578 0.950 . S
H1550 C1580 0.950 . S
H1551 C1581 0.950 . S
C1552 H1534 0.951 . S
C1552 C1553 1.366 . S
C1552 C1554 1.388 . S
C1553 C1552 1.366 . S
C1553 C1557 1.385 . S
C1554 H1535 0.951 . S
C1554 C1552 1.388 . S
C1554 C1555 1.366 . S
C1555 C1554 1.366 . S
C1555 C1556 1.414 . S
C1555 C1558 1.499 . S
C1556 H1536 0.950 . S
C1556 C1555 1.414 . S
C1556 C1557 1.374 . S
C1557 H1537 0.950 . S
C1557 C1553 1.385 . S
C1557 C1556 1.374 . S
C1558 C1555 1.499 . S
C1558 C1559 1.373 . S
C1558 C1560 1.389 . S
C1559 H1538 0.950 . S
C1559 C1558 1.373 . S
C1559 C1575 1.377 . S
C1560 C1558 1.389 . S
C1560 C1561 1.524 . S
C1560 C1574 1.377 . S
C1561 C1560 1.524 . S
C1561 C1562 1.397 . S
C1561 C1566 1.363 . S
C1562 H1539 0.950 . S
C1562 C1561 1.397 . S
C1562 C1563 1.334 . S
C1563 H1540 0.950 . S
C1563 C1562 1.334 . S
C1563 C1564 1.287 . S
C1564 C1563 1.287 . S
C1564 C1565 1.524 . S
C1564 H1583 0.913 . S
C1565 H1541 0.950 . S
C1565 C1564 1.524 . S
C1565 C1566 1.415 . S
C1566 H1542 0.950 . S
C1566 C1561 1.363 . S
C1566 C1565 1.415 . S
C1567 H1543 0.951 . S
C1567 C1568 1.366 . S
C1567 C1569 1.388 . S
C1568 C1567 1.366 . S
C1568 C1572 1.385 . S
C1569 H1544 0.951 . S
C1569 C1567 1.388 . S
C1569 C1570 1.366 . S
C1570 C1569 1.366 . S
C1570 C1571 1.414 . S
C1570 C1573 1.499 . S
C1571 H1545 0.950 . S
C1571 C1570 1.414 . S
C1571 C1572 1.374 . S
C1572 H1546 0.950 . S
C1572 C1568 1.385 . S
C1572 C1571 1.374 . S
C1573 C1570 1.499 . S
C1573 C1574 1.373 . S
C1573 C1575 1.389 . S
C1574 H1547 0.950 . S
C1574 C1560 1.377 . S
C1574 C1573 1.373 . S
C1575 C1559 1.377 . S
C1575 C1573 1.389 . S
C1575 C1576 1.524 . S
C1576 C1575 1.524 . S
C1576 C1577 1.397 . S
C1576 C1581 1.363 . S
C1577 H1548 0.950 . S
C1577 C1576 1.397 . S
C1577 C1578 1.334 . S
C1578 H1549 0.950 . S
C1578 C1577 1.334 . S
C1578 C1579 1.287 . S
C1579 C1578 1.287 . S
C1579 C1580 1.524 . S
C1579 H1582 0.999 . S
C1580 H1550 0.950 . S
C1580 C1579 1.524 . S
C1580 C1581 1.415 . S
C1581 H1551 0.950 . S
C1581 C1576 1.363 . S
C1581 C1580 1.415 . S
H1582 C1579 0.999 . S
H1583 C1564 0.913 . S
H1584 C1602 0.951 . S
H1585 C1604 0.951 . S
H1586 C1606 0.950 . S
H1587 C1607 0.950 . S
H1588 C1609 0.950 . S
H1589 C1612 0.950 . S
H1590 C1613 0.950 . S
H1591 C1615 0.950 . S
H1592 C1616 0.950 . S
H1593 C1617 0.951 . S
H1594 C1619 0.951 . S
H1595 C1621 0.950 . S
H1596 C1622 0.950 . S
H1597 C1624 0.950 . S
H1598 C1627 0.950 . S
H1599 C1628 0.950 . S
H1600 C1630 0.950 . S
H1601 C1631 0.950 . S
C1602 H1584 0.951 . S
C1602 C1603 1.366 . S
C1602 C1604 1.388 . S
C1603 C1602 1.366 . S
C1603 C1607 1.385 . S
C1604 H1585 0.951 . S
C1604 C1602 1.388 . S
C1604 C1605 1.366 . S
C1605 C1604 1.366 . S
C1605 C1606 1.414 . S
C1605 C1608 1.499 . S
C1606 H1586 0.950 . S
C1606 C1605 1.414 . S
C1606 C1607 1.374 . S
C1607 H1587 0.950 . S
C1607 C1603 1.385 . S
C1607 C1606 1.374 . S
C1608 C1605 1.499 . S
C1608 C1609 1.373 . S
C1608 C1610 1.389 . S
C1609 H1588 0.950 . S
C1609 C1608 1.373 . S
C1609 C1625 1.377 . S
C1610 C1608 1.389 . S
C1610 C1611 1.524 . S
C1610 C1624 1.377 . S
C1611 C1610 1.524 . S
C1611 C1612 1.397 . S
C1611 C1616 1.363 . S
C1612 H1589 0.950 . S
C1612 C1611 1.397 . S
C1612 C1613 1.334 . S
C1613 H1590 0.950 . S
C1613 C1612 1.334 . S
C1613 C1614 1.287 . S
C1614 C1613 1.287 . S
C1614 C1615 1.524 . S
C1614 H1633 0.913 . S
C1615 H1591 0.950 . S
C1615 C1614 1.524 . S
C1615 C1616 1.415 . S
C1616 H1592 0.950 . S
C1616 C1611 1.363 . S
C1616 C1615 1.415 . S
C1617 H1593 0.951 . S
C1617 C1618 1.366 . S
C1617 C1619 1.388 . S
C1618 C1617 1.366 . S
C1618 C1622 1.385 . S
C1619 H1594 0.951 . S
C1619 C1617 1.388 . S
C1619 C1620 1.366 . S
C1620 C1619 1.366 . S
C1620 C1621 1.414 . S
C1620 C1623 1.499 . S
C1621 H1595 0.950 . S
C1621 C1620 1.414 . S
C1621 C1622 1.374 . S
C1622 H1596 0.950 . S
C1622 C1618 1.385 . S
C1622 C1621 1.374 . S
C1623 C1620 1.499 . S
C1623 C1624 1.373 . S
C1623 C1625 1.389 . S
C1624 H1597 0.950 . S
C1624 C1610 1.377 . S
C1624 C1623 1.373 . S
C1625 C1609 1.377 . S
C1625 C1623 1.389 . S
C1625 C1626 1.524 . S
C1626 C1625 1.524 . S
C1626 C1627 1.397 . S
C1626 C1631 1.363 . S
C1627 H1598 0.950 . S
C1627 C1626 1.397 . S
C1627 C1628 1.334 . S
C1628 H1599 0.950 . S
C1628 C1627 1.334 . S
C1628 C1629 1.287 . S
C1629 C1628 1.287 . S
C1629 C1630 1.524 . S
C1629 H1632 0.999 . S
C1630 H1600 0.950 . S
C1630 C1629 1.524 . S
C1630 C1631 1.415 . S
C1631 H1601 0.950 . S
C1631 C1626 1.363 . S
C1631 C1630 1.415 . S
H1632 C1629 0.999 . S
H1633 C1614 0.913 . S
H1634 C1652 0.951 . S
H1635 C1654 0.951 . S
H1636 C1656 0.950 . S
H1637 C1657 0.950 . S
H1638 C1659 0.950 . S
H1639 C1662 0.950 . S
H1640 C1663 0.950 . S
H1641 C1665 0.950 . S
H1642 C1666 0.950 . S
H1643 C1667 0.951 . S
H1644 C1669 0.951 . S
H1645 C1671 0.950 . S
H1646 C1672 0.950 . S
H1647 C1674 0.950 . S
H1648 C1677 0.950 . S
H1649 C1678 0.950 . S
H1650 C1680 0.950 . S
H1651 C1681 0.950 . S
C1652 H1634 0.951 . S
C1652 C1653 1.366 . S
C1652 C1654 1.388 . S
C1653 C1652 1.366 . S
C1653 C1657 1.385 . S
C1654 H1635 0.951 . S
C1654 C1652 1.388 . S
C1654 C1655 1.366 . S
C1655 C1654 1.366 . S
C1655 C1656 1.414 . S
C1655 C1658 1.499 . S
C1656 H1636 0.950 . S
C1656 C1655 1.414 . S
C1656 C1657 1.374 . S
C1657 H1637 0.950 . S
C1657 C1653 1.385 . S
C1657 C1656 1.374 . S
C1658 C1655 1.499 . S
C1658 C1659 1.373 . S
C1658 C1660 1.389 . S
C1659 H1638 0.950 . S
C1659 C1658 1.373 . S
C1659 C1675 1.377 . S
C1660 C1658 1.389 . S
C1660 C1661 1.524 . S
C1660 C1674 1.377 . S
C1661 C1660 1.524 . S
C1661 C1662 1.397 . S
C1661 C1666 1.363 . S
C1662 H1639 0.950 . S
C1662 C1661 1.397 . S
C1662 C1663 1.334 . S
C1663 H1640 0.950 . S
C1663 C1662 1.334 . S
C1663 C1664 1.287 . S
C1664 C1663 1.287 . S
C1664 C1665 1.524 . S
C1664 H1683 0.913 . S
C1665 H1641 0.950 . S
C1665 C1664 1.524 . S
C1665 C1666 1.415 . S
C1666 H1642 0.950 . S
C1666 C1661 1.363 . S
C1666 C1665 1.415 . S
C1667 H1643 0.951 . S
C1667 C1668 1.366 . S
C1667 C1669 1.388 . S
C1668 C1667 1.366 . S
C1668 C1672 1.385 . S
C1669 H1644 0.951 . S
C1669 C1667 1.388 . S
C1669 C1670 1.366 . S
C1670 C1669 1.366 . S
C1670 C1671 1.414 . S
C1670 C1673 1.499 . S
C1671 H1645 0.950 . S
C1671 C1670 1.414 . S
C1671 C1672 1.374 . S
C1672 H1646 0.950 . S
C1672 C1668 1.385 . S
C1672 C1671 1.374 . S
C1673 C1670 1.499 . S
C1673 C1674 1.373 . S
C1673 C1675 1.389 . S
C1674 H1647 0.950 . S
C1674 C1660 1.377 . S
C1674 C1673 1.373 . S
C1675 C1659 1.377 . S
C1675 C1673 1.389 . S
C1675 C1676 1.524 . S
C1676 C1675 1.524 . S
C1676 C1677 1.397 . S
C1676 C1681 1.363 . S
C1677 H1648 0.950 . S
C1677 C1676 1.397 . S
C1677 C1678 1.334 . S
C1678 H1649 0.950 . S
C1678 C1677 1.334 . S
C1678 C1679 1.287 . S
C1679 C1678 1.287 . S
C1679 C1680 1.524 . S
C1679 H1682 0.999 . S
C1680 H1650 0.950 . S
C1680 C1679 1.524 . S
C1680 C1681 1.415 . S
C1681 H1651 0.950 . S
C1681 C1676 1.363 . S
C1681 C1680 1.415 . S
H1682 C1679 0.999 . S
H1683 C1664 0.913 . S
H1684 C1702 0.951 . S
H1685 C1704 0.951 . S
H1686 C1706 0.950 . S
H1687 C1707 0.950 . S
H1688 C1709 0.950 . S
H1689 C1712 0.950 . S
H1690 C1713 0.950 . S
H1691 C1715 0.950 . S
H1692 C1716 0.950 . S
H1693 C1717 0.951 . S
H1694 C1719 0.951 . S
H1695 C1721 0.950 . S
H1696 C1722 0.950 . S
H1697 C1724 0.950 . S
H1698 C1727 0.950 . S
H1699 C1728 0.950 . S
H1700 C1730 0.950 . S
H1701 C1731 0.950 . S
C1702 H1684 0.951 . S
C1702 C1703 1.366 . S
C1702 C1704 1.388 . S
C1703 C1702 1.366 . S
C1703 C1707 1.385 . S
C1704 H1685 0.951 . S
C1704 C1702 1.388 . S
C1704 C1705 1.366 . S
C1705 C1704 1.366 . S
C1705 C1706 1.414 . S
C1705 C1708 1.499 . S
C1706 H1686 0.950 . S
C1706 C1705 1.414 . S
C1706 C1707 1.374 . S
C1707 H1687 0.950 . S
C1707 C1703 1.385 . S
C1707 C1706 1.374 . S
C1708 C1705 1.499 . S
C1708 C1709 1.373 . S
C1708 C1710 1.389 . S
C1709 H1688 0.950 . S
C1709 C1708 1.373 . S
C1709 C1725 1.377 . S
C1710 C1708 1.389 . S
C1710 C1711 1.524 . S
C1710 C1724 1.377 . S
C1711 C1710 1.524 . S
C1711 C1712 1.397 . S
C1711 C1716 1.363 . S
C1712 H1689 0.950 . S
C1712 C1711 1.397 . S
C1712 C1713 1.334 . S
C1713 H1690 0.950 . S
C1713 C1712 1.334 . S
C1713 C1714 1.287 . S
C1714 C1713 1.287 . S
C1714 C1715 1.524 . S
C1714 H1733 0.913 . S
C1715 H1691 0.950 . S
C1715 C1714 1.524 . S
C1715 C1716 1.415 . S
C1716 H1692 0.950 . S
C1716 C1711 1.363 . S
C1716 C1715 1.415 . S
C1717 H1693 0.951 . S
C1717 C1718 1.366 . S
C1717 C1719 1.388 . S
C1718 C1717 1.366 . S
C1718 C1722 1.385 . S
C1719 H1694 0.951 . S
C1719 C1717 1.388 . S
C1719 C1720 1.366 . S
C1720 C1719 1.366 . S
C1720 C1721 1.414 . S
C1720 C1723 1.499 . S
C1721 H1695 0.950 . S
C1721 C1720 1.414 . S
C1721 C1722 1.374 . S
C1722 H1696 0.950 . S
C1722 C1718 1.385 . S
C1722 C1721 1.374 . S
C1723 C1720 1.499 . S
C1723 C1724 1.373 . S
C1723 C1725 1.389 . S
C1724 H1697 0.950 . S
C1724 C1710 1.377 . S
C1724 C1723 1.373 . S
C1725 C1709 1.377 . S
C1725 C1723 1.389 . S
C1725 C1726 1.524 . S
C1726 C1725 1.524 . S
C1726 C1727 1.397 . S
C1726 C1731 1.363 . S
C1727 H1698 0.950 . S
C1727 C1726 1.397 . S
C1727 C1728 1.334 . S
C1728 H1699 0.950 . S
C1728 C1727 1.334 . S
C1728 C1729 1.287 . S
C1729 C1728 1.287 . S
C1729 C1730 1.524 . S
C1729 H1732 0.999 . S
C1730 H1700 0.950 . S
C1730 C1729 1.524 . S
C1730 C1731 1.415 . S
C1731 H1701 0.950 . S
C1731 C1726 1.363 . S
C1731 C1730 1.415 . S
H1732 C1729 0.999 . S
H1733 C1714 0.913 . S
H1734 C1752 0.951 . S
H1735 C1754 0.951 . S
H1736 C1756 0.950 . S
H1737 C1757 0.950 . S
H1738 C1759 0.950 . S
H1739 C1762 0.950 . S
H1740 C1763 0.950 . S
H1741 C1765 0.950 . S
H1742 C1766 0.950 . S
H1743 C1767 0.951 . S
H1744 C1769 0.951 . S
H1745 C1771 0.950 . S
H1746 C1772 0.950 . S
H1747 C1774 0.950 . S
H1748 C1777 0.950 . S
H1749 C1778 0.950 . S
H1750 C1780 0.950 . S
H1751 C1781 0.950 . S
C1752 H1734 0.951 . S
C1752 C1753 1.366 . S
C1752 C1754 1.388 . S
C1753 C1752 1.366 . S
C1753 C1757 1.385 . S
C1754 H1735 0.951 . S
C1754 C1752 1.388 . S
C1754 C1755 1.366 . S
C1755 C1754 1.366 . S
C1755 C1756 1.414 . S
C1755 C1758 1.499 . S
C1756 H1736 0.950 . S
C1756 C1755 1.414 . S
C1756 C1757 1.374 . S
C1757 H1737 0.950 . S
C1757 C1753 1.385 . S
C1757 C1756 1.374 . S
C1758 C1755 1.499 . S
C1758 C1759 1.373 . S
C1758 C1760 1.389 . S
C1759 H1738 0.950 . S
C1759 C1758 1.373 . S
C1759 C1775 1.377 . S
C1760 C1758 1.389 . S
C1760 C1761 1.524 . S
C1760 C1774 1.377 . S
C1761 C1760 1.524 . S
C1761 C1762 1.397 . S
C1761 C1766 1.363 . S
C1762 H1739 0.950 . S
C1762 C1761 1.397 . S
C1762 C1763 1.334 . S
C1763 H1740 0.950 . S
C1763 C1762 1.334 . S
C1763 C1764 1.287 . S
C1764 C1763 1.287 . S
C1764 C1765 1.524 . S
C1764 H1783 0.913 . S
C1765 H1741 0.950 . S
C1765 C1764 1.524 . S
C1765 C1766 1.415 . S
C1766 H1742 0.950 . S
C1766 C1761 1.363 . S
C1766 C1765 1.415 . S
C1767 H1743 0.951 . S
C1767 C1768 1.366 . S
C1767 C1769 1.388 . S
C1768 C1767 1.366 . S
C1768 C1772 1.385 . S
C1769 H1744 0.951 . S
C1769 C1767 1.388 . S
C1769 C1770 1.366 . S
C1770 C1769 1.366 . S
C1770 C1771 1.414 . S
C1770 C1773 1.499 . S
C1771 H1745 0.950 . S
C1771 C1770 1.414 . S
C1771 C1772 1.374 . S
C1772 H1746 0.950 . S
C1772 C1768 1.385 . S
C1772 C1771 1.374 . S
C1773 C1770 1.499 . S
C1773 C1774 1.373 . S
C1773 C1775 1.389 . S
C1774 H1747 0.950 . S
C1774 C1760 1.377 . S
C1774 C1773 1.373 . S
C1775 C1759 1.377 . S
C1775 C1773 1.389 . S
C1775 C1776 1.524 . S
C1776 C1775 1.524 . S
C1776 C1777 1.397 . S
C1776 C1781 1.363 . S
C1777 H1748 0.950 . S
C1777 C1776 1.397 . S
C1777 C1778 1.334 . S
C1778 H1749 0.950 . S
C1778 C1777 1.334 . S
C1778 C1779 1.287 . S
C1779 C1778 1.287 . S
C1779 C1780 1.524 . S
C1779 H1782 0.999 . S
C1780 H1750 0.950 . S
C1780 C1779 1.524 . S
C1780 C1781 1.415 . S
C1781 H1751 0.950 . S
C1781 C1776 1.363 . S
C1781 C1780 1.415 . S
H1782 C1779 0.999 . S
H1783 C1764 0.913 . S
H1784 C1802 0.951 . S
H1785 C1804 0.951 . S
H1786 C1806 0.950 . S
H1787 C1807 0.950 . S
H1788 C1809 0.950 . S
H1789 C1812 0.950 . S
H1790 C1813 0.950 . S
H1791 C1815 0.950 . S
H1792 C1816 0.950 . S
H1793 C1817 0.951 . S
H1794 C1819 0.951 . S
H1795 C1821 0.950 . S
H1796 C1822 0.950 . S
H1797 C1824 0.950 . S
H1798 C1827 0.950 . S
H1799 C1828 0.950 . S
H1800 C1830 0.950 . S
H1801 C1831 0.950 . S
C1802 H1784 0.951 . S
C1802 C1803 1.366 . S
C1802 C1804 1.388 . S
C1803 C1802 1.366 . S
C1803 C1807 1.385 . S
C1804 H1785 0.951 . S
C1804 C1802 1.388 . S
C1804 C1805 1.366 . S
C1805 C1804 1.366 . S
C1805 C1806 1.414 . S
C1805 C1808 1.499 . S
C1806 H1786 0.950 . S
C1806 C1805 1.414 . S
C1806 C1807 1.374 . S
C1807 H1787 0.950 . S
C1807 C1803 1.385 . S
C1807 C1806 1.374 . S
C1808 C1805 1.499 . S
C1808 C1809 1.373 . S
C1808 C1810 1.389 . S
C1809 H1788 0.950 . S
C1809 C1808 1.373 . S
C1809 C1825 1.377 . S
C1810 C1808 1.389 . S
C1810 C1811 1.524 . S
C1810 C1824 1.377 . S
C1811 C1810 1.524 . S
C1811 C1812 1.397 . S
C1811 C1816 1.363 . S
C1812 H1789 0.950 . S
C1812 C1811 1.397 . S
C1812 C1813 1.334 . S
C1813 H1790 0.950 . S
C1813 C1812 1.334 . S
C1813 C1814 1.287 . S
C1814 C1813 1.287 . S
C1814 C1815 1.524 . S
C1814 H1833 0.913 . S
C1815 H1791 0.950 . S
C1815 C1814 1.524 . S
C1815 C1816 1.415 . S
C1816 H1792 0.950 . S
C1816 C1811 1.363 . S
C1816 C1815 1.415 . S
C1817 H1793 0.951 . S
C1817 C1818 1.366 . S
C1817 C1819 1.388 . S
C1818 C1817 1.366 . S
C1818 C1822 1.385 . S
C1819 H1794 0.951 . S
C1819 C1817 1.388 . S
C1819 C1820 1.366 . S
C1820 C1819 1.366 . S
C1820 C1821 1.414 . S
C1820 C1823 1.499 . S
C1821 H1795 0.950 . S
C1821 C1820 1.414 . S
C1821 C1822 1.374 . S
C1822 H1796 0.950 . S
C1822 C1818 1.385 . S
C1822 C1821 1.374 . S
C1823 C1820 1.499 . S
C1823 C1824 1.373 . S
C1823 C1825 1.389 . S
C1824 H1797 0.950 . S
C1824 C1810 1.377 . S
C1824 C1823 1.373 . S
C1825 C1809 1.377 . S
C1825 C1823 1.389 . S
C1825 C1826 1.524 . S
C1826 C1825 1.524 . S
C1826 C1827 1.397 . S
C1826 C1831 1.363 . S
C1827 H1798 0.950 . S
C1827 C1826 1.397 . S
C1827 C1828 1.334 . S
C1828 H1799 0.950 . S
C1828 C1827 1.334 . S
C1828 C1829 1.287 . S
C1829 C1828 1.287 . S
C1829 C1830 1.524 . S
C1829 H1832 0.999 . S
C1830 H1800 0.950 . S
C1830 C1829 1.524 . S
C1830 C1831 1.415 . S
C1831 H1801 0.950 . S
C1831 C1826 1.363 . S
C1831 C1830 1.415 . S
H1832 C1829 0.999 . S
H1833 C1814 0.913 . S
H1834 C1852 0.951 . S
H1835 C1854 0.951 . S
H1836 C1856 0.950 . S
H1837 C1857 0.950 . S
H1838 C1859 0.950 . S
H1839 C1862 0.950 . S
H1840 C1863 0.950 . S
H1841 C1865 0.950 . S
H1842 C1866 0.950 . S
H1843 C1867 0.951 . S
H1844 C1869 0.951 . S
H1845 C1871 0.950 . S
H1846 C1872 0.950 . S
H1847 C1874 0.950 . S
H1848 C1877 0.950 . S
H1849 C1878 0.950 . S
H1850 C1880 0.950 . S
H1851 C1881 0.950 . S
C1852 H1834 0.951 . S
C1852 C1853 1.366 . S
C1852 C1854 1.388 . S
C1853 C1852 1.366 . S
C1853 C1857 1.385 . S
C1854 H1835 0.951 . S
C1854 C1852 1.388 . S
C1854 C1855 1.366 . S
C1855 C1854 1.366 . S
C1855 C1856 1.414 . S
C1855 C1858 1.499 . S
C1856 H1836 0.950 . S
C1856 C1855 1.414 . S
C1856 C1857 1.374 . S
C1857 H1837 0.950 . S
C1857 C1853 1.385 . S
C1857 C1856 1.374 . S
C1858 C1855 1.499 . S
C1858 C1859 1.373 . S
C1858 C1860 1.389 . S
C1859 H1838 0.950 . S
C1859 C1858 1.373 . S
C1859 C1875 1.377 . S
C1860 C1858 1.389 . S
C1860 C1861 1.524 . S
C1860 C1874 1.377 . S
C1861 C1860 1.524 . S
C1861 C1862 1.397 . S
C1861 C1866 1.363 . S
C1862 H1839 0.950 . S
C1862 C1861 1.397 . S
C1862 C1863 1.334 . S
C1863 H1840 0.950 . S
C1863 C1862 1.334 . S
C1863 C1864 1.287 . S
C1864 C1863 1.287 . S
C1864 C1865 1.524 . S
C1864 H1883 0.913 . S
C1865 H1841 0.950 . S
C1865 C1864 1.524 . S
C1865 C1866 1.415 . S
C1866 H1842 0.950 . S
C1866 C1861 1.363 . S
C1866 C1865 1.415 . S
C1867 H1843 0.951 . S
C1867 C1868 1.366 . S
C1867 C1869 1.388 . S
C1868 C1867 1.366 . S
C1868 C1872 1.385 . S
C1869 H1844 0.951 . S
C1869 C1867 1.388 . S
C1869 C1870 1.366 . S
C1870 C1869 1.366 . S
C1870 C1871 1.414 . S
C1870 C1873 1.499 . S
C1871 H1845 0.950 . S
C1871 C1870 1.414 . S
C1871 C1872 1.374 . S
C1872 H1846 0.950 . S
C1872 C1868 1.385 . S
C1872 C1871 1.374 . S
C1873 C1870 1.499 . S
C1873 C1874 1.373 . S
C1873 C1875 1.389 . S
C1874 H1847 0.950 . S
C1874 C1860 1.377 . S
C1874 C1873 1.373 . S
C1875 C1859 1.377 . S
C1875 C1873 1.389 . S
C1875 C1876 1.524 . S
C1876 C1875 1.524 . S
C1876 C1877 1.397 . S
C1876 C1881 1.363 . S
C1877 H1848 0.950 . S
C1877 C1876 1.397 . S
C1877 C1878 1.334 . S
C1878 H1849 0.950 . S
C1878 C1877 1.334 . S
C1878 C1879 1.287 . S
C1879 C1878 1.287 . S
C1879 C1880 1.524 . S
C1879 H1882 0.999 . S
C1880 H1850 0.950 . S
C1880 C1879 1.524 . S
C1880 C1881 1.415 . S
C1881 H1851 0.950 . S
C1881 C1876 1.363 . S
C1881 C1880 1.415 . S
H1882 C1879 0.999 . S
H1883 C1864 0.913 . S
H1884 C1902 0.951 . S
H1885 C1904 0.951 . S
H1886 C1906 0.950 . S
H1887 C1907 0.950 . S
H1888 C1909 0.950 . S
H1889 C1912 0.950 . S
H1890 C1913 0.950 . S
H1891 C1915 0.950 . S
H1892 C1916 0.950 . S
H1893 C1917 0.951 . S
H1894 C1919 0.951 . S
H1895 C1921 0.950 . S
H1896 C1922 0.950 . S
H1897 C1924 0.950 . S
H1898 C1927 0.950 . S
H1899 C1928 0.950 . S
H1900 C1930 0.950 . S
H1901 C1931 0.950 . S
C1902 H1884 0.951 . S
C1902 C1903 1.366 . S
C1902 C1904 1.388 . S
C1903 C1902 1.366 . S
C1903 C1907 1.385 . S
C1904 H1885 0.951 . S
C1904 C1902 1.388 . S
C1904 C1905 1.366 . S
C1905 C1904 1.366 . S
C1905 C1906 1.414 . S
C1905 C1908 1.499 . S
C1906 H1886 0.950 . S
C1906 C1905 1.414 . S
C1906 C1907 1.374 . S
C1907 H1887 0.950 . S
C1907 C1903 1.385 . S
C1907 C1906 1.374 . S
C1908 C1905 1.499 . S
C1908 C1909 1.373 . S
C1908 C1910 1.389 . S
C1909 H1888 0.950 . S
C1909 C1908 1.373 . S
C1909 C1925 1.377 . S
C1910 C1908 1.389 . S
C1910 C1911 1.524 . S
C1910 C1924 1.377 . S
C1911 C1910 1.524 . S
C1911 C1912 1.397 . S
C1911 C1916 1.363 . S
C1912 H1889 0.950 . S
C1912 C1911 1.397 . S
C1912 C1913 1.334 . S
C1913 H1890 0.950 . S
C1913 C1912 1.334 . S
C1913 C1914 1.287 . S
C1914 C1913 1.287 . S
C1914 C1915 1.524 . S
C1914 H1933 0.913 . S
C1915 H1891 0.950 . S
C1915 C1914 1.524 . S
C1915 C1916 1.415 . S
C1916 H1892 0.950 . S
C1916 C1911 1.363 . S
C1916 C1915 1.415 . S
C1917 H1893 0.951 . S
C1917 C1918 1.366 . S
C1917 C1919 1.388 . S
C1918 C1917 1.366 . S
C1918 C1922 1.385 . S
C1919 H1894 0.951 . S
C1919 C1917 1.388 . S
C1919 C1920 1.366 . S
C1920 C1919 1.366 . S
C1920 C1921 1.414 . S
C1920 C1923 1.499 . S
C1921 H1895 0.950 . S
C1921 C1920 1.414 . S
C1921 C1922 1.374 . S
C1922 H1896 0.950 . S
C1922 C1918 1.385 . S
C1922 C1921 1.374 . S
C1923 C1920 1.499 . S
C1923 C1924 1.373 . S
C1923 C1925 1.389 . S
C1924 H1897 0.950 . S
C1924 C1910 1.377 . S
C1924 C1923 1.373 . S
C1925 C1909 1.377 . S
C1925 C1923 1.389 . S
C1925 C1926 1.524 . S
C1926 C1925 1.524 . S
C1926 C1927 1.397 . S
C1926 C1931 1.363 . S
C1927 H1898 0.950 . S
C1927 C1926 1.397 . S
C1927 C1928 1.334 . S
C1928 H1899 0.950 . S
C1928 C1927 1.334 . S
C1928 C1929 1.287 . S
C1929 C1928 1.287 . S
C1929 C1930 1.524 . S
C1929 H1932 0.999 . S
C1930 H1900 0.950 . S
C1930 C1929 1.524 . S
C1930 C1931 1.415 . S
C1931 H1901 0.950 . S
C1931 C1926 1.363 . S
C1931 C1930 1.415 . S
H1932 C1929 0.999 . S
H1933 C1914 0.913 . S
H1934 C1952 0.951 . S
H1935 C1954 0.951 . S
H1936 C1956 0.950 . S
H1937 C1957 0.950 . S
H1938 C1959 0.950 . S
H1939 C1962 0.950 . S
H1940 C1963 0.950 . S
H1941 C1965 0.950 . S
H1942 C1966 0.950 . S
H1943 C1967 0.951 . S
H1944 C1969 0.951 . S
H1945 C1971 0.950 . S
H1946 C1972 0.950 . S
H1947 C1974 0.950 . S
H1948 C1977 0.950 . S
H1949 C1978 0.950 . S
H1950 C1980 0.950 . S
H1951 C1981 0.950 . S
C1952 H1934 0.951 . S
C1952 C1953 1.366 . S
C1952 C1954 1.388 . S
C1953 C1952 1.366 . S
C1953 C1957 1.385 . S
C1954 H1935 0.951 . S
C1954 C1952 1.388 . S
C1954 C1955 1.366 . S
C1955 C1954 1.366 . S
C1955 C1956 1.414 . S
C1955 C1958 1.499 . S
C1956 H1936 0.950 . S
C1956 C1955 1.414 . S
C1956 C1957 1.374 . S
C1957 H1937 0.950 . S
C1957 C1953 1.385 . S
C1957 C1956 1.374 . S
C1958 C1955 1.499 . S
C1958 C1959 1.373 . S
C1958 C1960 1.389 . S
C1959 H1938 0.950 . S
C1959 C1958 1.373 . S
C1959 C1975 1.377 . S
C1960 C1958 1.389 . S
C1960 C1961 1.524 . S
C1960 C1974 1.377 . S
C1961 C1960 1.524 . S
C1961 C1962 1.397 . S
C1961 C1966 1.363 . S
C1962 H1939 0.950 . S
C1962 C1961 1.397 . S
C1962 C1963 1.334 . S
C1963 H1940 0.950 . S
C1963 C1962 1.334 . S
C1963 C1964 1.287 . S
C1964 C1963 1.287 . S
C1964 C1965 1.524 . S
C1964 H1983 0.913 . S
C1965 H1941 0.950 . S
C1965 C1964 1.524 . S
C1965 C1966 1.415 . S
C1966 H1942 0.950 . S
C1966 C1961 1.363 . S
C1966 C1965 1.415 . S
C1967 H1943 0.951 . S
C1967 C1968 1.366 . S
C1967 C1969 1.388 . S
C1968 C1967 1.366 . S
C1968 C1972 1.385 . S
C1969 H1944 0.951 . S
C1969 C1967 1.388 . S
C1969 C1970 1.366 . S
C1970 C1969 1.366 . S
C1970 C1971 1.414 . S
C1970 C1973 1.499 . S
C1971 H1945 0.950 . S
C1971 C1970 1.414 . S
C1971 C1972 1.374 . S
C1972 H1946 0.950 . S
C1972 C1968 1.385 . S
C1972 C1971 1.374 . S
C1973 C1970 1.499 . S
C1973 C1974 1.373 . S
C1973 C1975 1.389 . S
C1974 H1947 0.950 . S
C1974 C1960 1.377 . S
C1974 C1973 1.373 . S
C1975 C1959 1.377 . S
C1975 C1973 1.389 . S
C1975 C1976 1.524 . S
C1976 C1975 1.524 . S
C1976 C1977 1.397 . S
C1976 C1981 1.363 . S
C1977 H1948 0.950 . S
C1977 C1976 1.397 . S
C1977 C1978 1.334 . S
C1978 H1949 0.950 . S
C1978 C1977 1.334 . S
C1978 C1979 1.287 . S
C1979 C1978 1.287 . S
C1979 C1980 1.524 . S
C1979 H1982 0.999 . S
C1980 H1950 0.950 . S
C1980 C1979 1.524 . S
C1980 C1981 1.415 . S
C1981 H1951 0.950 . S
C1981 C1976 1.363 . S
C1981 C1980 1.415 . S
H1982 C1979 0.999 . S
H1983 C1964 0.913 . S
H1984 C2002 0.951 . S
H1985 C2004 0.951 . S
H1986 C2006 0.950 . S
H1987 C2007 0.950 . S
H1988 C2009 0.950 . S
H1989 C2012 0.950 . S
H1990 C2013 0.950 . S
H1991 C2015 0.950 . S
H1992 C2016 0.950 . S
H1993 C2017 0.951 . S
H1994 C2019 0.951 . S
H1995 C2021 0.950 . S
H1996 C2022 0.950 . S
H1997 C2024 0.950 . S
H1998 C2027 0.950 . S
H1999 C2028 0.950 . S
H2000 C2030 0.950 . S
H2001 C2031 0.950 . S
C2002 H1984 0.951 . S
C2002 C2003 1.366 . S
C2002 C2004 1.388 . S
C2003 C2002 1.366 . S
C2003 C2007 1.385 . S
C2004 H1985 0.951 . S
C2004 C2002 1.388 . S
C2004 C2005 1.366 . S
C2005 C2004 1.366 . S
C2005 C2006 1.414 . S
C2005 C2008 1.499 . S
C2006 H1986 0.950 . S
C2006 C2005 1.414 . S
C2006 C2007 1.374 . S
C2007 H1987 0.950 . S
C2007 C2003 1.385 . S
C2007 C2006 1.374 . S
C2008 C2005 1.499 . S
C2008 C2009 1.373 . S
C2008 C2010 1.389 . S
C2009 H1988 0.950 . S
C2009 C2008 1.373 . S
C2009 C2025 1.377 . S
C2010 C2008 1.389 . S
C2010 C2011 1.524 . S
C2010 C2024 1.377 . S
C2011 C2010 1.524 . S
C2011 C2012 1.397 . S
C2011 C2016 1.363 . S
C2012 H1989 0.950 . S
C2012 C2011 1.397 . S
C2012 C2013 1.334 . S
C2013 H1990 0.950 . S
C2013 C2012 1.334 . S
C2013 C2014 1.287 . S
C2014 C2013 1.287 . S
C2014 C2015 1.524 . S
C2014 H2033 0.913 . S
C2015 H1991 0.950 . S
C2015 C2014 1.524 . S
C2015 C2016 1.415 . S
C2016 H1992 0.950 . S
C2016 C2011 1.363 . S
C2016 C2015 1.415 . S
C2017 H1993 0.951 . S
C2017 C2018 1.366 . S
C2017 C2019 1.388 . S
C2018 C2017 1.366 . S
C2018 C2022 1.385 . S
C2019 H1994 0.951 . S
C2019 C2017 1.388 . S
C2019 C2020 1.366 . S
C2020 C2019 1.366 . S
C2020 C2021 1.414 . S
C2020 C2023 1.499 . S
C2021 H1995 0.950 . S
C2021 C2020 1.414 . S
C2021 C2022 1.374 . S
C2022 H1996 0.950 . S
C2022 C2018 1.385 . S
C2022 C2021 1.374 . S
C2023 C2020 1.499 . S
C2023 C2024 1.373 . S
C2023 C2025 1.389 . S
C2024 H1997 0.950 . S
C2024 C2010 1.377 . S
C2024 C2023 1.373 . S
C2025 C2009 1.377 . S
C2025 C2023 1.389 . S
C2025 C2026 1.524 . S
C2026 C2025 1.524 . S
C2026 C2027 1.397 . S
C2026 C2031 1.363 . S
C2027 H1998 0.950 . S
C2027 C2026 1.397 . S
C2027 C2028 1.334 . S
C2028 H1999 0.950 . S
C2028 C2027 1.334 . S
C2028 C2029 1.287 . S
C2029 C2028 1.287 . S
C2029 C2030 1.524 . S
C2029 H2032 0.999 . S
C2030 H2000 0.950 . S
C2030 C2029 1.524 . S
C2030 C2031 1.415 . S
C2031 H2001 0.950 . S
C2031 C2026 1.363 . S
C2031 C2030 1.415 . S
H2032 C2029 0.999 . S
H2033 C2014 0.913 . S
H2034 C2052 0.951 . S
H2035 C2054 0.951 . S
H2036 C2056 0.950 . S
H2037 C2057 0.950 . S
H2038 C2059 0.950 . S
H2039 C2062 0.950 . S
H2040 C2063 0.950 . S
H2041 C2065 0.950 . S
H2042 C2066 0.950 . S
H2043 C2067 0.951 . S
H2044 C2069 0.951 . S
H2045 C2071 0.950 . S
H2046 C2072 0.950 . S
H2047 C2074 0.950 . S
H2048 C2077 0.950 . S
H2049 C2078 0.950 . S
H2050 C2080 0.950 . S
H2051 C2081 0.950 . S
C2052 H2034 0.951 . S
C2052 C2053 1.366 . S
C2052 C2054 1.388 . S
C2053 C2052 1.366 . S
C2053 C2057 1.385 . S
C2054 H2035 0.951 . S
C2054 C2052 1.388 . S
C2054 C2055 1.366 . S
C2055 C2054 1.366 . S
C2055 C2056 1.414 . S
C2055 C2058 1.499 . S
C2056 H2036 0.950 . S
C2056 C2055 1.414 . S
C2056 C2057 1.374 . S
C2057 H2037 0.950 . S
C2057 C2053 1.385 . S
C2057 C2056 1.374 . S
C2058 C2055 1.499 . S
C2058 C2059 1.373 . S
C2058 C2060 1.389 . S
C2059 H2038 0.950 . S
C2059 C2058 1.373 . S
C2059 C2075 1.377 . S
C2060 C2058 1.389 . S
C2060 C2061 1.524 . S
C2060 C2074 1.377 . S
C2061 C2060 1.524 . S
C2061 C2062 1.397 . S
C2061 C2066 1.363 . S
C2062 H2039 0.950 . S
C2062 C2061 1.397 . S
C2062 C2063 1.334 . S
C2063 H2040 0.950 . S
C2063 C2062 1.334 . S
C2063 C2064 1.287 . S
C2064 C2063 1.287 . S
C2064 C2065 1.524 . S
C2064 H2083 0.913 . S
C2065 H2041 0.950 . S
C2065 C2064 1.524 . S
C2065 C2066 1.415 . S
C2066 H2042 0.950 . S
C2066 C2061 1.363 . S
C2066 C2065 1.415 . S
C2067 H2043 0.951 . S
C2067 C2068 1.366 . S
C2067 C2069 1.388 . S
C2068 C2067 1.366 . S
C2068 C2072 1.385 . S
C2069 H2044 0.951 . S
C2069 C2067 1.388 . S
C2069 C2070 1.366 . S
C2070 C2069 1.366 . S
C2070 C2071 1.414 . S
C2070 C2073 1.499 . S
C2071 H2045 0.950 . S
C2071 C2070 1.414 . S
C2071 C2072 1.374 . S
C2072 H2046 0.950 . S
C2072 C2068 1.385 . S
C2072 C2071 1.374 . S
C2073 C2070 1.499 . S
C2073 C2074 1.373 . S
C2073 C2075 1.389 . S
C2074 H2047 0.950 . S
C2074 C2060 1.377 . S
C2074 C2073 1.373 . S
C2075 C2059 1.377 . S
C2075 C2073 1.389 . S
C2075 C2076 1.524 . S
C2076 C2075 1.524 . S
C2076 C2077 1.397 . S
C2076 C2081 1.363 . S
C2077 H2048 0.950 . S
C2077 C2076 1.397 . S
C2077 C2078 1.334 . S
C2078 H2049 0.950 . S
C2078 C2077 1.334 . S
C2078 C2079 1.287 . S
C2079 C2078 1.287 . S
C2079 C2080 1.524 . S
C2079 H2082 0.999 . S
C2080 H2050 0.950 . S
C2080 C2079 1.524 . S
C2080 C2081 1.415 . S
C2081 H2051 0.950 . S
C2081 C2076 1.363 . S
C2081 C2080 1.415 . S
H2082 C2079 0.999 . S
H2083 C2064 0.913 . S
H2084 C2102 0.951 . S
H2085 C2104 0.951 . S
H2086 C2106 0.950 . S
H2087 C2107 0.950 . S
H2088 C2109 0.950 . S
H2089 C2112 0.950 . S
H2090 C2113 0.950 . S
H2091 C2115 0.950 . S
H2092 C2116 0.950 . S
H2093 C2117 0.951 . S
H2094 C2119 0.951 . S
H2095 C2121 0.950 . S
H2096 C2122 0.950 . S
H2097 C2124 0.950 . S
H2098 C2127 0.950 . S
H2099 C2128 0.950 . S
H2100 C2130 0.950 . S
H2101 C2131 0.950 . S
C2102 H2084 0.951 . S
C2102 C2103 1.366 . S
C2102 C2104 1.388 . S
C2103 C2102 1.366 . S
C2103 C2107 1.385 . S
C2104 H2085 0.951 . S
C2104 C2102 1.388 . S
C2104 C2105 1.366 . S
C2105 C2104 1.366 . S
C2105 C2106 1.414 . S
C2105 C2108 1.499 . S
C2106 H2086 0.950 . S
C2106 C2105 1.414 . S
C2106 C2107 1.374 . S
C2107 H2087 0.950 . S
C2107 C2103 1.385 . S
C2107 C2106 1.374 . S
C2108 C2105 1.499 . S
C2108 C2109 1.373 . S
C2108 C2110 1.389 . S
C2109 H2088 0.950 . S
C2109 C2108 1.373 . S
C2109 C2125 1.377 . S
C2110 C2108 1.389 . S
C2110 C2111 1.524 . S
C2110 C2124 1.377 . S
C2111 C2110 1.524 . S
C2111 C2112 1.397 . S
C2111 C2116 1.363 . S
C2112 H2089 0.950 . S
C2112 C2111 1.397 . S
C2112 C2113 1.334 . S
C2113 H2090 0.950 . S
C2113 C2112 1.334 . S
C2113 C2114 1.287 . S
C2114 C2113 1.287 . S
C2114 C2115 1.524 . S
C2114 H2133 0.913 . S
C2115 H2091 0.950 . S
C2115 C2114 1.524 . S
C2115 C2116 1.415 . S
C2116 H2092 0.950 . S
C2116 C2111 1.363 . S
C2116 C2115 1.415 . S
C2117 H2093 0.951 . S
C2117 C2118 1.366 . S
C2117 C2119 1.388 . S
C2118 C2117 1.366 . S
C2118 C2122 1.385 . S
C2119 H2094 0.951 . S
C2119 C2117 1.388 . S
C2119 C2120 1.366 . S
C2120 C2119 1.366 . S
C2120 C2121 1.414 . S
C2120 C2123 1.499 . S
C2121 H2095 0.950 . S
C2121 C2120 1.414 . S
C2121 C2122 1.374 . S
C2122 H2096 0.950 . S
C2122 C2118 1.385 . S
C2122 C2121 1.374 . S
C2123 C2120 1.499 . S
C2123 C2124 1.373 . S
C2123 C2125 1.389 . S
C2124 H2097 0.950 . S
C2124 C2110 1.377 . S
C2124 C2123 1.373 . S
C2125 C2109 1.377 . S
C2125 C2123 1.389 . S
C2125 C2126 1.524 . S
C2126 C2125 1.524 . S
C2126 C2127 1.397 . S
C2126 C2131 1.363 . S
C2127 H2098 0.950 . S
C2127 C2126 1.397 . S
C2127 C2128 1.334 . S
C2128 H2099 0.950 . S
C2128 C2127 1.334 . S
C2128 C2129 1.287 . S
C2129 C2128 1.287 . S
C2129 C2130 1.524 . S
C2129 H2132 0.999 . S
C2130 H2100 0.950 . S
C2130 C2129 1.524 . S
C2130 C2131 1.415 . S
C2131 H2101 0.950 . S
C2131 C2126 1.363 . S
C2131 C2130 1.415 . S
H2132 C2129 0.999 . S
H2133 C2114 0.913 . S
H2134 C2152 0.951 . S
H2135 C2154 0.951 . S
H2136 C2156 0.950 . S
H2137 C2157 0.950 . S
H2138 C2159 0.950 . S
H2139 C2162 0.950 . S
H2140 C2163 0.950 . S
H2141 C2165 0.950 . S
H2142 C2166 0.950 . S
H2143 C2167 0.951 . S
H2144 C2169 0.951 . S
H2145 C2171 0.950 . S
H2146 C2172 0.950 . S
H2147 C2174 0.950 . S
H2148 C2177 0.950 . S
H2149 C2178 0.950 . S
H2150 C2180 0.950 . S
H2151 C2181 0.950 . S
C2152 H2134 0.951 . S
C2152 C2153 1.366 . S
C2152 C2154 1.388 . S
C2153 C2152 1.366 . S
C2153 C2157 1.385 . S
C2154 H2135 0.951 . S
C2154 C2152 1.388 . S
C2154 C2155 1.366 . S
C2155 C2154 1.366 . S
C2155 C2156 1.414 . S
C2155 C2158 1.499 . S
C2156 H2136 0.950 . S
C2156 C2155 1.414 . S
C2156 C2157 1.374 . S
C2157 H2137 0.950 . S
C2157 C2153 1.385 . S
C2157 C2156 1.374 . S
C2158 C2155 1.499 . S
C2158 C2159 1.373 . S
C2158 C2160 1.389 . S
C2159 H2138 0.950 . S
C2159 C2158 1.373 . S
C2159 C2175 1.377 . S
C2160 C2158 1.389 . S
C2160 C2161 1.524 . S
C2160 C2174 1.377 . S
C2161 C2160 1.524 . S
C2161 C2162 1.397 . S
C2161 C2166 1.363 . S
C2162 H2139 0.950 . S
C2162 C2161 1.397 . S
C2162 C2163 1.334 . S
C2163 H2140 0.950 . S
C2163 C2162 1.334 . S
C2163 C2164 1.287 . S
C2164 C2163 1.287 . S
C2164 C2165 1.524 . S
C2164 H2183 0.913 . S
C2165 H2141 0.950 . S
C2165 C2164 1.524 . S
C2165 C2166 1.415 . S
C2166 H2142 0.950 . S
C2166 C2161 1.363 . S
C2166 C2165 1.415 . S
C2167 H2143 0.951 . S
C2167 C2168 1.366 . S
C2167 C2169 1.388 . S
C2168 C2167 1.366 . S
C2168 C2172 1.385 . S
C2169 H2144 0.951 . S
C2169 C2167 1.388 . S
C2169 C2170 1.366 . S
C2170 C2169 1.366 . S
C2170 C2171 1.414 . S
C2170 C2173 1.499 . S
C2171 H2145 0.950 . S
C2171 C2170 1.414 . S
C2171 C2172 1.374 . S
C2172 H2146 0.950 . S
C2172 C2168 1.385 . S
C2172 C2171 1.374 . S
C2173 C2170 1.499 . S
C2173 C2174 1.373 . S
C2173 C2175 1.389 . S
C2174 H2147 0.950 . S
C2174 C2160 1.377 . S
C2174 C2173 1.373 . S
C2175 C2159 1.377 . S
C2175 C2173 1.389 . S
C2175 C2176 1.524 . S
C2176 C2175 1.524 . S
C2176 C2177 1.397 . S
C2176 C2181 1.363 . S
C2177 H2148 0.950 . S
C2177 C2176 1.397 . S
C2177 C2178 1.334 . S
C2178 H2149 0.950 . S
C2178 C2177 1.334 . S
C2178 C2179 1.287 . S
C2179 C2178 1.287 . S
C2179 C2180 1.524 . S
C2179 H2182 0.999 . S
C2180 H2150 0.950 . S
C2180 C2179 1.524 . S
C2180 C2181 1.415 . S
C2181 H2151 0.950 . S
C2181 C2176 1.363 . S
C2181 C2180 1.415 . S
H2182 C2179 0.999 . S
H2183 C2164 0.913 . S
H2184 C2202 0.951 . S
H2185 C2204 0.951 . S
H2186 C2206 0.950 . S
H2187 C2207 0.950 . S
H2188 C2209 0.950 . S
H2189 C2212 0.950 . S
H2190 C2213 0.950 . S
H2191 C2215 0.950 . S
H2192 C2216 0.950 . S
H2193 C2217 0.951 . S
H2194 C2219 0.951 . S
H2195 C2221 0.950 . S
H2196 C2222 0.950 . S
H2197 C2224 0.950 . S
H2198 C2227 0.950 . S
H2199 C2228 0.950 . S
H2200 C2230 0.950 . S
H2201 C2231 0.950 . S
C2202 H2184 0.951 . S
C2202 C2203 1.366 . S
C2202 C2204 1.388 . S
C2203 C2202 1.366 . S
C2203 C2207 1.385 . S
C2204 H2185 0.951 . S
C2204 C2202 1.388 . S
C2204 C2205 1.366 . S
C2205 C2204 1.366 . S
C2205 C2206 1.414 . S
C2205 C2208 1.499 . S
C2206 H2186 0.950 . S
C2206 C2205 1.414 . S
C2206 C2207 1.374 . S
C2207 H2187 0.950 . S
C2207 C2203 1.385 . S
C2207 C2206 1.374 . S
C2208 C2205 1.499 . S
C2208 C2209 1.373 . S
C2208 C2210 1.389 . S
C2209 H2188 0.950 . S
C2209 C2208 1.373 . S
C2209 C2225 1.377 . S
C2210 C2208 1.389 . S
C2210 C2211 1.524 . S
C2210 C2224 1.377 . S
C2211 C2210 1.524 . S
C2211 C2212 1.397 . S
C2211 C2216 1.363 . S
C2212 H2189 0.950 . S
C2212 C2211 1.397 . S
C2212 C2213 1.334 . S
C2213 H2190 0.950 . S
C2213 C2212 1.334 . S
C2213 C2214 1.287 . S
C2214 C2213 1.287 . S
C2214 C2215 1.524 . S
C2214 H2233 0.913 . S
C2215 H2191 0.950 . S
C2215 C2214 1.524 . S
C2215 C2216 1.415 . S
C2216 H2192 0.950 . S
C2216 C2211 1.363 . S
C2216 C2215 1.415 . S
C2217 H2193 0.951 . S
C2217 C2218 1.366 . S
C2217 C2219 1.388 . S
C2218 C2217 1.366 . S
C2218 C2222 1.385 . S
C2219 H2194 0.951 . S
C2219 C2217 1.388 . S
C2219 C2220 1.366 . S
C2220 C2219 1.366 . S
C2220 C2221 1.414 . S
C2220 C2223 1.499 . S
C2221 H2195 0.950 . S
C2221 C2220 1.414 . S
C2221 C2222 1.374 . S
C2222 H2196 0.950 . S
C2222 C2218 1.385 . S
C2222 C2221 1.374 . S
C2223 C2220 1.499 . S
C2223 C2224 1.373 . S
C2223 C2225 1.389 . S
C2224 H2197 0.950 . S
C2224 C2210 1.377 . S
C2224 C2223 1.373 . S
C2225 C2209 1.377 . S
C2225 C2223 1.389 . S
C2225 C2226 1.524 . S
C2226 C2225 1.524 . S
C2226 C2227 1.397 . S
C2226 C2231 1.363 . S
C2227 H2198 0.950 . S
C2227 C2226 1.397 . S
C2227 C2228 1.334 . S
C2228 H2199 0.950 . S
C2228 C2227 1.334 . S
C2228 C2229 1.287 . S
C2229 C2228 1.287 . S
C2229 C2230 1.524 . S
C2229 H2232 0.999 . S
C2230 H2200 0.950 . S
C2230 C2229 1.524 . S
C2230 C2231 1.415 . S
C2231 H2201 0.950 . S
C2231 C2226 1.363 . S
C2231 C2230 1.415 . S
H2232 C2229 0.999 . S
H2233 C2214 0.913 . S
H2234 C2252 0.951 . S
H2235 C2254 0.951 . S
H2236 C2256 0.950 . S
H2237 C2257 0.950 . S
H2238 C2259 0.950 . S
H2239 C2262 0.950 . S
H2240 C2263 0.950 . S
H2241 C2265 0.950 . S
H2242 C2266 0.950 . S
H2243 C2267 0.951 . S
H2244 C2269 0.951 . S
H2245 C2271 0.950 . S
H2246 C2272 0.950 . S
H2247 C2274 0.950 . S
H2248 C2277 0.950 . S
H2249 C2278 0.950 . S
H2250 C2280 0.950 . S
H2251 C2281 0.950 . S
C2252 H2234 0.951 . S
C2252 C2253 1.366 . S
C2252 C2254 1.388 . S
C2253 C2252 1.366 . S
C2253 C2257 1.385 . S
C2254 H2235 0.951 . S
C2254 C2252 1.388 . S
C2254 C2255 1.366 . S
C2255 C2254 1.366 . S
C2255 C2256 1.414 . S
C2255 C2258 1.499 . S
C2256 H2236 0.950 . S
C2256 C2255 1.414 . S
C2256 C2257 1.374 . S
C2257 H2237 0.950 . S
C2257 C2253 1.385 . S
C2257 C2256 1.374 . S
C2258 C2255 1.499 . S
C2258 C2259 1.373 . S
C2258 C2260 1.389 . S
C2259 H2238 0.950 . S
C2259 C2258 1.373 . S
C2259 C2275 1.377 . S
C2260 C2258 1.389 . S
C2260 C2261 1.524 . S
C2260 C2274 1.377 . S
C2261 C2260 1.524 . S
C2261 C2262 1.397 . S
C2261 C2266 1.363 . S
C2262 H2239 0.950 . S
C2262 C2261 1.397 . S
C2262 C2263 1.334 . S
C2263 H2240 0.950 . S
C2263 C2262 1.334 . S
C2263 C2264 1.287 . S
C2264 C2263 1.287 . S
C2264 C2265 1.524 . S
C2264 H2283 0.913 . S
C2265 H2241 0.950 . S
C2265 C2264 1.524 . S
C2265 C2266 1.415 . S
C2266 H2242 0.950 . S
C2266 C2261 1.363 . S
C2266 C2265 1.415 . S
C2267 H2243 0.951 . S
C2267 C2268 1.366 . S
C2267 C2269 1.388 . S
C2268 C2267 1.366 . S
C2268 C2272 1.385 . S
C2269 H2244 0.951 . S
C2269 C2267 1.388 . S
C2269 C2270 1.366 . S
C2270 C2269 1.366 . S
C2270 C2271 1.414 . S
C2270 C2273 1.499 . S
C2271 H2245 0.950 . S
C2271 C2270 1.414 . S
C2271 C2272 1.374 . S
C2272 H2246 0.950 . S
C2272 C2268 1.385 . S
C2272 C2271 1.374 . S
C2273 C2270 1.499 . S
C2273 C2274 1.373 . S
C2273 C2275 1.389 . S
C2274 H2247 0.950 . S
C2274 C2260 1.377 . S
C2274 C2273 1.373 . S
C2275 C2259 1.377 . S
C2275 C2273 1.389 . S
C2275 C2276 1.524 . S
C2276 C2275 1.524 . S
C2276 C2277 1.397 . S
C2276 C2281 1.363 . S
C2277 H2248 0.950 . S
C2277 C2276 1.397 . S
C2277 C2278 1.334 . S
C2278 H2249 0.950 . S
C2278 C2277 1.334 . S
C2278 C2279 1.287 . S
C2279 C2278 1.287 . S
C2279 C2280 1.524 . S
C2279 H2282 0.999 . S
C2280 H2250 0.950 . S
C2280 C2279 1.524 . S
C2280 C2281 1.415 . S
C2281 H2251 0.950 . S
C2281 C2276 1.363 . S
C2281 C2280 1.415 . S
H2282 C2279 0.999 . S
H2283 C2264 0.913 . S
H2284 C2302 0.951 . S
H2285 C2304 0.951 . S
H2286 C2306 0.950 . S
H2287 C2307 0.950 . S
H2288 C2309 0.950 . S
H2289 C2312 0.950 . S
H2290 C2313 0.950 . S
H2291 C2315 0.950 . S
H2292 C2316 0.950 . S
H2293 C2317 0.951 . S
H2294 C2319 0.951 . S
H2295 C2321 0.950 . S
H2296 C2322 0.950 . S
H2297 C2324 0.950 . S
H2298 C2327 0.950 . S
H2299 C2328 0.950 . S
H2300 C2330 0.950 . S
H2301 C2331 0.950 . S
C2302 H2284 0.951 . S
C2302 C2303 1.366 . S
C2302 C2304 1.388 . S
C2303 C2302 1.366 . S
C2303 C2307 1.385 . S
C2304 H2285 0.951 . S
C2304 C2302 1.388 . S
C2304 C2305 1.366 . S
C2305 C2304 1.366 . S
C2305 C2306 1.414 . S
C2305 C2308 1.499 . S
C2306 H2286 0.950 . S
C2306 C2305 1.414 . S
C2306 C2307 1.374 . S
C2307 H2287 0.950 . S
C2307 C2303 1.385 . S
C2307 C2306 1.374 . S
C2308 C2305 1.499 . S
C2308 C2309 1.373 . S
C2308 C2310 1.389 . S
C2309 H2288 0.950 . S
C2309 C2308 1.373 . S
C2309 C2325 1.377 . S
C2310 C2308 1.389 . S
C2310 C2311 1.524 . S
C2310 C2324 1.377 . S
C2311 C2310 1.524 . S
C2311 C2312 1.397 . S
C2311 C2316 1.363 . S
C2312 H2289 0.950 . S
C2312 C2311 1.397 . S
C2312 C2313 1.334 . S
C2313 H2290 0.950 . S
C2313 C2312 1.334 . S
C2313 C2314 1.287 . S
C2314 C2313 1.287 . S
C2314 C2315 1.524 . S
C2314 H2333 0.913 . S
C2315 H2291 0.950 . S
C2315 C2314 1.524 . S
C2315 C2316 1.415 . S
C2316 H2292 0.950 . S
C2316 C2311 1.363 . S
C2316 C2315 1.415 . S
C2317 H2293 0.951 . S
C2317 C2318 1.366 . S
C2317 C2319 1.388 . S
C2318 C2317 1.366 . S
C2318 C2322 1.385 . S
C2319 H2294 0.951 . S
C2319 C2317 1.388 . S
C2319 C2320 1.366 . S
C2320 C2319 1.366 . S
C2320 C2321 1.414 . S
C2320 C2323 1.499 . S
C2321 H2295 0.950 . S
C2321 C2320 1.414 . S
C2321 C2322 1.374 . S
C2322 H2296 0.950 . S
C2322 C2318 1.385 . S
C2322 C2321 1.374 . S
C2323 C2320 1.499 . S
C2323 C2324 1.373 . S
C2323 C2325 1.389 . S
C2324 H2297 0.950 . S
C2324 C2310 1.377 . S
C2324 C2323 1.373 . S
C2325 C2309 1.377 . S
C2325 C2323 1.389 . S
C2325 C2326 1.524 . S
C2326 C2325 1.524 . S
C2326 C2327 1.397 . S
C2326 C2331 1.363 . S
C2327 H2298 0.950 . S
C2327 C2326 1.397 . S
C2327 C2328 1.334 . S
C2328 H2299 0.950 . S
C2328 C2327 1.334 . S
C2328 C2329 1.287 . S
C2329 C2328 1.287 . S
C2329 C2330 1.524 . S
C2329 H2332 0.999 . S
C2330 H2300 0.950 . S
C2330 C2329 1.524 . S
C2330 C2331 1.415 . S
C2331 H2301 0.950 . S
C2331 C2326 1.363 . S
C2331 C2330 1.415 . S
H2332 C2329 0.999 . S
H2333 C2314 0.913 . S
H2334 C2352 0.951 . S
H2335 C2354 0.951 . S
H2336 C2356 0.950 . S
H2337 C2357 0.950 . S
H2338 C2359 0.950 . S
H2339 C2362 0.950 . S
H2340 C2363 0.950 . S
H2341 C2365 0.950 . S
H2342 C2366 0.950 . S
H2343 C2367 0.951 . S
H2344 C2369 0.951 . S
H2345 C2371 0.950 . S
H2346 C2372 0.950 . S
H2347 C2374 0.950 . S
H2348 C2377 0.950 . S
H2349 C2378 0.950 . S
H2350 C2380 0.950 . S
H2351 C2381 0.950 . S
C2352 H2334 0.951 . S
C2352 C2353 1.366 . S
C2352 C2354 1.388 . S
C2353 C2352 1.366 . S
C2353 C2357 1.385 . S
C2354 H2335 0.951 . S
C2354 C2352 1.388 . S
C2354 C2355 1.366 . S
C2355 C2354 1.366 . S
C2355 C2356 1.414 . S
C2355 C2358 1.499 . S
C2356 H2336 0.950 . S
C2356 C2355 1.414 . S
C2356 C2357 1.374 . S
C2357 H2337 0.950 . S
C2357 C2353 1.385 . S
C2357 C2356 1.374 . S
C2358 C2355 1.499 . S
C2358 C2359 1.373 . S
C2358 C2360 1.389 . S
C2359 H2338 0.950 . S
C2359 C2358 1.373 . S
C2359 C2375 1.377 . S
C2360 C2358 1.389 . S
C2360 C2361 1.524 . S
C2360 C2374 1.377 . S
C2361 C2360 1.524 . S
C2361 C2362 1.397 . S
C2361 C2366 1.363 . S
C2362 H2339 0.950 . S
C2362 C2361 1.397 . S
C2362 C2363 1.334 . S
C2363 H2340 0.950 . S
C2363 C2362 1.334 . S
C2363 C2364 1.287 . S
C2364 C2363 1.287 . S
C2364 C2365 1.524 . S
C2364 H2383 0.913 . S
C2365 H2341 0.950 . S
C2365 C2364 1.524 . S
C2365 C2366 1.415 . S
C2366 H2342 0.950 . S
C2366 C2361 1.363 . S
C2366 C2365 1.415 . S
C2367 H2343 0.951 . S
C2367 C2368 1.366 . S
C2367 C2369 1.388 . S
C2368 C2367 1.366 . S
C2368 C2372 1.385 . S
C2369 H2344 0.951 . S
C2369 C2367 1.388 . S
C2369 C2370 1.366 . S
C2370 C2369 1.366 . S
C2370 C2371 1.414 . S
C2370 C2373 1.499 . S
C2371 H2345 0.950 . S
C2371 C2370 1.414 . S
C2371 C2372 1.374 . S
C2372 H2346 0.950 . S
C2372 C2368 1.385 . S
C2372 C2371 1.374 . S
C2373 C2370 1.499 . S
C2373 C2374 1.373 . S
C2373 C2375 1.389 . S
C2374 H2347 0.950 . S
C2374 C2360 1.377 . S
C2374 C2373 1.373 . S
C2375 C2359 1.377 . S
C2375 C2373 1.389 . S
C2375 C2376 1.524 . S
C2376 C2375 1.524 . S
C2376 C2377 1.397 . S
C2376 C2381 1.363 . S
C2377 H2348 0.950 . S
C2377 C2376 1.397 . S
C2377 C2378 1.334 . S
C2378 H2349 0.950 . S
C2378 C2377 1.334 . S
C2378 C2379 1.287 . S
C2379 C2378 1.287 . S
C2379 C2380 1.524 . S
C2379 H2382 0.999 . S
C2380 H2350 0.950 . S
C2380 C2379 1.524 . S
C2380 C2381 1.415 . S
C2381 H2351 0.950 . S
C2381 C2376 1.363 . S
C2381 C2380 1.415 . S
H2382 C2379 0.999 . S
H2383 C2364 0.913 . S
H2384 C2402 0.951 . S
H2385 C2404 0.951 . S
H2386 C2406 0.950 . S
H2387 C2407 0.950 . S
H2388 C2409 0.950 . S
H2389 C2412 0.950 . S
H2390 C2413 0.950 . S
H2391 C2415 0.950 . S
H2392 C2416 0.950 . S
H2393 C2417 0.951 . S
H2394 C2419 0.951 . S
H2395 C2421 0.950 . S
H2396 C2422 0.950 . S
H2397 C2424 0.950 . S
H2398 C2427 0.950 . S
H2399 C2428 0.950 . S
H2400 C2430 0.950 . S
H2401 C2431 0.950 . S
C2402 H2384 0.951 . S
C2402 C2403 1.366 . S
C2402 C2404 1.388 . S
C2403 C2402 1.366 . S
C2403 C2407 1.385 . S
C2404 H2385 0.951 . S
C2404 C2402 1.388 . S
C2404 C2405 1.366 . S
C2405 C2404 1.366 . S
C2405 C2406 1.414 . S
C2405 C2408 1.499 . S
C2406 H2386 0.950 . S
C2406 C2405 1.414 . S
C2406 C2407 1.374 . S
C2407 H2387 0.950 . S
C2407 C2403 1.385 . S
C2407 C2406 1.374 . S
C2408 C2405 1.499 . S
C2408 C2409 1.373 . S
C2408 C2410 1.389 . S
C2409 H2388 0.950 . S
C2409 C2408 1.373 . S
C2409 C2425 1.377 . S
C2410 C2408 1.389 . S
C2410 C2411 1.524 . S
C2410 C2424 1.377 . S
C2411 C2410 1.524 . S
C2411 C2412 1.397 . S
C2411 C2416 1.363 . S
C2412 H2389 0.950 . S
C2412 C2411 1.397 . S
C2412 C2413 1.334 . S
C2413 H2390 0.950 . S
C2413 C2412 1.334 . S
C2413 C2414 1.287 . S
C2414 C2413 1.287 . S
C2414 C2415 1.524 . S
C2414 H2433 0.913 . S
C2415 H2391 0.950 . S
C2415 C2414 1.524 . S
C2415 C2416 1.415 . S
C2416 H2392 0.950 . S
C2416 C2411 1.363 . S
C2416 C2415 1.415 . S
C2417 H2393 0.951 . S
C2417 C2418 1.366 . S
C2417 C2419 1.388 . S
C2418 C2417 1.366 . S
C2418 C2422 1.385 . S
C2419 H2394 0.951 . S
C2419 C2417 1.388 . S
C2419 C2420 1.366 . S
C2420 C2419 1.366 . S
C2420 C2421 1.414 . S
C2420 C2423 1.499 . S
C2421 H2395 0.950 . S
C2421 C2420 1.414 . S
C2421 C2422 1.374 . S
C2422 H2396 0.950 . S
C2422 C2418 1.385 . S
C2422 C2421 1.374 . S
C2423 C2420 1.499 . S
C2423 C2424 1.373 . S
C2423 C2425 1.389 . S
C2424 H2397 0.950 . S
C2424 C2410 1.377 . S
C2424 C2423 1.373 . S
C2425 C2409 1.377 . S
C2425 C2423 1.389 . S
C2425 C2426 1.524 . S
C2426 C2425 1.524 . S
C2426 C2427 1.397 . S
C2426 C2431 1.363 . S
C2427 H2398 0.950 . S
C2427 C2426 1.397 . S
C2427 C2428 1.334 . S
C2428 H2399 0.950 . S
C2428 C2427 1.334 . S
C2428 C2429 1.287 . S
C2429 C2428 1.287 . S
C2429 C2430 1.524 . S
C2429 H2432 0.999 . S
C2430 H2400 0.950 . S
C2430 C2429 1.524 . S
C2430 C2431 1.415 . S
C2431 H2401 0.950 . S
C2431 C2426 1.363 . S
C2431 C2430 1.415 . S
H2432 C2429 0.999 . S
H2433 C2414 0.913 . S
H2434 C2452 0.951 . S
H2435 C2454 0.951 . S
H2436 C2456 0.950 . S
H2437 C2457 0.950 . S
H2438 C2459 0.950 . S
H2439 C2462 0.950 . S
H2440 C2463 0.950 . S
H2441 C2465 0.950 . S
H2442 C2466 0.950 . S
H2443 C2467 0.951 . S
H2444 C2469 0.951 . S
H2445 C2471 0.950 . S
H2446 C2472 0.950 . S
H2447 C2474 0.950 . S
H2448 C2477 0.950 . S
H2449 C2478 0.950 . S
H2450 C2480 0.950 . S
H2451 C2481 0.950 . S
C2452 H2434 0.951 . S
C2452 C2453 1.366 . S
C2452 C2454 1.388 . S
C2453 C2452 1.366 . S
C2453 C2457 1.385 . S
C2454 H2435 0.951 . S
C2454 C2452 1.388 . S
C2454 C2455 1.366 . S
C2455 C2454 1.366 . S
C2455 C2456 1.414 . S
C2455 C2458 1.499 . S
C2456 H2436 0.950 . S
C2456 C2455 1.414 . S
C2456 C2457 1.374 . S
C2457 H2437 0.950 . S
C2457 C2453 1.385 . S
C2457 C2456 1.374 . S
C2458 C2455 1.499 . S
C2458 C2459 1.373 . S
C2458 C2460 1.389 . S
C2459 H2438 0.950 . S
C2459 C2458 1.373 . S
C2459 C2475 1.377 . S
C2460 C2458 1.389 . S
C2460 C2461 1.524 . S
C2460 C2474 1.377 . S
C2461 C2460 1.524 . S
C2461 C2462 1.397 . S
C2461 C2466 1.363 . S
C2462 H2439 0.950 . S
C2462 C2461 1.397 . S
C2462 C2463 1.334 . S
C2463 H2440 0.950 . S
C2463 C2462 1.334 . S
C2463 C2464 1.287 . S
C2464 C2463 1.287 . S
C2464 C2465 1.524 . S
C2464 H2483 0.913 . S
C2465 H2441 0.950 . S
C2465 C2464 1.524 . S
C2465 C2466 1.415 . S
C2466 H2442 0.950 . S
C2466 C2461 1.363 . S
C2466 C2465 1.415 . S
C2467 H2443 0.951 . S
C2467 C2468 1.366 . S
C2467 C2469 1.388 . S
C2468 C2467 1.366 . S
C2468 C2472 1.385 . S
C2469 H2444 0.951 . S
C2469 C2467 1.388 . S
C2469 C2470 1.366 . S
C2470 C2469 1.366 . S
C2470 C2471 1.414 . S
C2470 C2473 1.499 . S
C2471 H2445 0.950 . S
C2471 C2470 1.414 . S
C2471 C2472 1.374 . S
C2472 H2446 0.950 . S
C2472 C2468 1.385 . S
C2472 C2471 1.374 . S
C2473 C2470 1.499 . S
C2473 C2474 1.373 . S
C2473 C2475 1.389 . S
C2474 H2447 0.950 . S
C2474 C2460 1.377 . S
C2474 C2473 1.373 . S
C2475 C2459 1.377 . S
C2475 C2473 1.389 . S
C2475 C2476 1.524 . S
C2476 C2475 1.524 . S
C2476 C2477 1.397 . S
C2476 C2481 1.363 . S
C2477 H2448 0.950 . S
C2477 C2476 1.397 . S
C2477 C2478 1.334 . S
C2478 H2449 0.950 . S
C2478 C2477 1.334 . S
C2478 C2479 1.287 . S
C2479 C2478 1.287 . S
C2479 C2480 1.524 . S
C2479 H2482 0.999 . S
C2480 H2450 0.950 . S
C2480 C2479 1.524 . S
C2480 C2481 1.415 . S
C2481 H2451 0.950 . S
C2481 C2476 1.363 . S
C2481 C2480 1.415 . S
H2482 C2479 0.999 . S
H2483 C2464 0.913 . S
H2484 C2502 0.951 . S
H2485 C2504 0.951 . S
H2486 C2506 0.950 . S
H2487 C2507 0.950 . S
H2488 C2509 0.950 . S
H2489 C2512 0.950 . S
H2490 C2513 0.950 . S
H2491 C2515 0.950 . S
H2492 C2516 0.950 . S
H2493 C2517 0.951 . S
H2494 C2519 0.951 . S
H2495 C2521 0.950 . S
H2496 C2522 0.950 . S
H2497 C2524 0.950 . S
H2498 C2527 0.950 . S
H2499 C2528 0.950 . S
H2500 C2530 0.950 . S
H2501 C2531 0.950 . S
C2502 H2484 0.951 . S
C2502 C2503 1.366 . S
C2502 C2504 1.388 . S
C2503 C2502 1.366 . S
C2503 C2507 1.385 . S
C2504 H2485 0.951 . S
C2504 C2502 1.388 . S
C2504 C2505 1.366 . S
C2505 C2504 1.366 . S
C2505 C2506 1.414 . S
C2505 C2508 1.499 . S
C2506 H2486 0.950 . S
C2506 C2505 1.414 . S
C2506 C2507 1.374 . S
C2507 H2487 0.950 . S
C2507 C2503 1.385 . S
C2507 C2506 1.374 . S
C2508 C2505 1.499 . S
C2508 C2509 1.373 . S
C2508 C2510 1.389 . S
C2509 H2488 0.950 . S
C2509 C2508 1.373 . S
C2509 C2525 1.377 . S
C2510 C2508 1.389 . S
C2510 C2511 1.524 . S
C2510 C2524 1.377 . S
C2511 C2510 1.524 . S
C2511 C2512 1.397 . S
C2511 C2516 1.363 . S
C2512 H2489 0.950 . S
C2512 C2511 1.397 . S
C2512 C2513 1.334 . S
C2513 H2490 0.950 . S
C2513 C2512 1.334 . S
C2513 C2514 1.287 . S
C2514 C2513 1.287 . S
C2514 C2515 1.524 . S
C2514 H2533 0.913 . S
C2515 H2491 0.950 . S
C2515 C2514 1.524 . S
C2515 C2516 1.415 . S
C2516 H2492 0.950 . S
C2516 C2511 1.363 . S
C2516 C2515 1.415 . S
C2517 H2493 0.951 . S
C2517 C2518 1.366 . S
C2517 C2519 1.388 . S
C2518 C2517 1.366 . S
C2518 C2522 1.385 . S
C2519 H2494 0.951 . S
C2519 C2517 1.388 . S
C2519 C2520 1.366 . S
C2520 C2519 1.366 . S
C2520 C2521 1.414 . S
C2520 C2523 1.499 . S
C2521 H2495 0.950 . S
C2521 C2520 1.414 . S
C2521 C2522 1.374 . S
C2522 H2496 0.950 . S
C2522 C2518 1.385 . S
C2522 C2521 1.374 . S
C2523 C2520 1.499 . S
C2523 C2524 1.373 . S
C2523 C2525 1.389 . S
C2524 H2497 0.950 . S
C2524 C2510 1.377 . S
C2524 C2523 1.373 . S
C2525 C2509 1.377 . S
C2525 C2523 1.389 . S
C2525 C2526 1.524 . S
C2526 C2525 1.524 . S
C2526 C2527 1.397 . S
C2526 C2531 1.363 . S
C2527 H2498 0.950 . S
C2527 C2526 1.397 . S
C2527 C2528 1.334 . S
C2528 H2499 0.950 . S
C2528 C2527 1.334 . S
C2528 C2529 1.287 . S
C2529 C2528 1.287 . S
C2529 C2530 1.524 . S
C2529 H2532 0.999 . S
C2530 H2500 0.950 . S
C2530 C2529 1.524 . S
C2530 C2531 1.415 . S
C2531 H2501 0.950 . S
C2531 C2526 1.363 . S
C2531 C2530 1.415 . S
H2532 C2529 0.999 . S
H2533 C2514 0.913 . S
H2534 C2552 0.951 . S
H2535 C2554 0.951 . S
H2536 C2556 0.950 . S
H2537 C2557 0.950 . S
H2538 C2559 0.950 . S
H2539 C2562 0.950 . S
H2540 C2563 0.950 . S
H2541 C2565 0.950 . S
H2542 C2566 0.950 . S
H2543 C2567 0.951 . S
H2544 C2569 0.951 . S
H2545 C2571 0.950 . S
H2546 C2572 0.950 . S
H2547 C2574 0.950 . S
H2548 C2577 0.950 . S
H2549 C2578 0.950 . S
H2550 C2580 0.950 . S
H2551 C2581 0.950 . S
C2552 H2534 0.951 . S
C2552 C2553 1.366 . S
C2552 C2554 1.388 . S
C2553 C2552 1.366 . S
C2553 C2557 1.385 . S
C2554 H2535 0.951 . S
C2554 C2552 1.388 . S
C2554 C2555 1.366 . S
C2555 C2554 1.366 . S
C2555 C2556 1.414 . S
C2555 C2558 1.499 . S
C2556 H2536 0.950 . S
C2556 C2555 1.414 . S
C2556 C2557 1.374 . S
C2557 H2537 0.950 . S
C2557 C2553 1.385 . S
C2557 C2556 1.374 . S
C2558 C2555 1.499 . S
C2558 C2559 1.373 . S
C2558 C2560 1.389 . S
C2559 H2538 0.950 . S
C2559 C2558 1.373 . S
C2559 C2575 1.377 . S
C2560 C2558 1.389 . S
C2560 C2561 1.524 . S
C2560 C2574 1.377 . S
C2561 C2560 1.524 . S
C2561 C2562 1.397 . S
C2561 C2566 1.363 . S
C2562 H2539 0.950 . S
C2562 C2561 1.397 . S
C2562 C2563 1.334 . S
C2563 H2540 0.950 . S
C2563 C2562 1.334 . S
C2563 C2564 1.287 . S
C2564 C2563 1.287 . S
C2564 C2565 1.524 . S
C2564 H2583 0.913 . S
C2565 H2541 0.950 . S
C2565 C2564 1.524 . S
C2565 C2566 1.415 . S
C2566 H2542 0.950 . S
C2566 C2561 1.363 . S
C2566 C2565 1.415 . S
C2567 H2543 0.951 . S
C2567 C2568 1.366 . S
C2567 C2569 1.388 . S
C2568 C2567 1.366 . S
C2568 C2572 1.385 . S
C2569 H2544 0.951 . S
C2569 C2567 1.388 . S
C2569 C2570 1.366 . S
C2570 C2569 1.366 . S
C2570 C2571 1.414 . S
C2570 C2573 1.499 . S
C2571 H2545 0.950 . S
C2571 C2570 1.414 . S
C2571 C2572 1.374 . S
C2572 H2546 0.950 . S
C2572 C2568 1.385 . S
C2572 C2571 1.374 . S
C2573 C2570 1.499 . S
C2573 C2574 1.373 . S
C2573 C2575 1.389 . S
C2574 H2547 0.950 . S
C2574 C2560 1.377 . S
C2574 C2573 1.373 . S
C2575 C2559 1.377 . S
C2575 C2573 1.389 . S
C2575 C2576 1.524 . S
C2576 C2575 1.524 . S
C2576 C2577 1.397 . S
C2576 C2581 1.363 . S
C2577 H2548 0.950 . S
C2577 C2576 1.397 . S
C2577 C2578 1.334 . S
C2578 H2549 0.950 . S
C2578 C2577 1.334 . S
C2578 C2579 1.287 . S
C2579 C2578 1.287 . S
C2579 C2580 1.524 . S
C2579 H2582 0.999 . S
C2580 H2550 0.950 . S
C2580 C2579 1.524 . S
C2580 C2581 1.415 . S
C2581 H2551 0.950 . S
C2581 C2576 1.363 . S
C2581 C2580 1.415 . S
H2582 C2579 0.999 . S
H2583 C2564 0.913 . S
H2584 C2602 0.951 . S
H2585 C2604 0.951 . S
H2586 C2606 0.950 . S
H2587 C2607 0.950 . S
H2588 C2609 0.950 . S
H2589 C2612 0.950 . S
H2590 C2613 0.950 . S
H2591 C2615 0.950 . S
H2592 C2616 0.950 . S
H2593 C2617 0.951 . S
H2594 C2619 0.951 . S
H2595 C2621 0.950 . S
H2596 C2622 0.950 . S
H2597 C2624 0.950 . S
H2598 C2627 0.950 . S
H2599 C2628 0.950 . S
H2600 C2630 0.950 . S
H2601 C2631 0.950 . S
C2602 H2584 0.951 . S
C2602 C2603 1.366 . S
C2602 C2604 1.388 . S
C2603 C2602 1.366 . S
C2603 C2607 1.385 . S
C2604 H2585 0.951 . S
C2604 C2602 1.388 . S
C2604 C2605 1.366 . S
C2605 C2604 1.366 . S
C2605 C2606 1.414 . S
C2605 C2608 1.499 . S
C2606 H2586 0.950 . S
C2606 C2605 1.414 . S
C2606 C2607 1.374 . S
C2607 H2587 0.950 . S
C2607 C2603 1.385 . S
C2607 C2606 1.374 . S
C2608 C2605 1.499 . S
C2608 C2609 1.373 . S
C2608 C2610 1.389 . S
C2609 H2588 0.950 . S
C2609 C2608 1.373 . S
C2609 C2625 1.377 . S
C2610 C2608 1.389 . S
C2610 C2611 1.524 . S
C2610 C2624 1.377 . S
C2611 C2610 1.524 . S
C2611 C2612 1.397 . S
C2611 C2616 1.363 . S
C2612 H2589 0.950 . S
C2612 C2611 1.397 . S
C2612 C2613 1.334 . S
C2613 H2590 0.950 . S
C2613 C2612 1.334 . S
C2613 C2614 1.287 . S
C2614 C2613 1.287 . S
C2614 C2615 1.524 . S
C2614 H2633 0.913 . S
C2615 H2591 0.950 . S
C2615 C2614 1.524 . S
C2615 C2616 1.415 . S
C2616 H2592 0.950 . S
C2616 C2611 1.363 . S
C2616 C2615 1.415 . S
C2617 H2593 0.951 . S
C2617 C2618 1.366 . S
C2617 C2619 1.388 . S
C2618 C2617 1.366 . S
C2618 C2622 1.385 . S
C2619 H2594 0.951 . S
C2619 C2617 1.388 . S
C2619 C2620 1.366 . S
C2620 C2619 1.366 . S
C2620 C2621 1.414 . S
C2620 C2623 1.499 . S
C2621 H2595 0.950 . S
C2621 C2620 1.414 . S
C2621 C2622 1.374 . S
C2622 H2596 0.950 . S
C2622 C2618 1.385 . S
C2622 C2621 1.374 . S
C2623 C2620 1.499 . S
C2623 C2624 1.373 . S
C2623 C2625 1.389 . S
C2624 H2597 0.950 . S
C2624 C2610 1.377 . S
C2624 C2623 1.373 . S
C2625 C2609 1.377 . S
C2625 C2623 1.389 . S
C2625 C2626 1.524 . S
C2626 C2625 1.524 . S
C2626 C2627 1.397 . S
C2626 C2631 1.363 . S
C2627 H2598 0.950 . S
C2627 C2626 1.397 . S
C2627 C2628 1.334 . S
C2628 H2599 0.950 . S
C2628 C2627 1.334 . S
C2628 C2629 1.287 . S
C2629 C2628 1.287 . S
C2629 C2630 1.524 . S
C2629 H2632 0.999 . S
C2630 H2600 0.950 . S
C2630 C2629 1.524 . S
C2630 C2631 1.415 . S
C2631 H2601 0.950 . S
C2631 C2626 1.363 . S
C2631 C2630 1.415 . S
H2632 C2629 0.999 . S
H2633 C2614 0.913 . S
H2634 C2652 0.951 . S
H2635 C2654 0.951 . S
H2636 C2656 0.950 . S
H2637 C2657 0.950 . S
H2638 C2659 0.950 . S
H2639 C2662 0.950 . S
H2640 C2663 0.950 . S
H2641 C2665 0.950 . S
H2642 C2666 0.950 . S
H2643 C2667 0.951 . S
H2644 C2669 0.951 . S
H2645 C2671 0.950 . S
H2646 C2672 0.950 . S
H2647 C2674 0.950 . S
H2648 C2677 0.950 . S
H2649 C2678 0.950 . S
H2650 C2680 0.950 . S
H2651 C2681 0.950 . S
C2652 H2634 0.951 . S
C2652 C2653 1.366 . S
C2652 C2654 1.388 . S
C2653 C2652 1.366 . S
C2653 C2657 1.385 . S
C2654 H2635 0.951 . S
C2654 C2652 1.388 . S
C2654 C2655 1.366 . S
C2655 C2654 1.366 . S
C2655 C2656 1.414 . S
C2655 C2658 1.499 . S
C2656 H2636 0.950 . S
C2656 C2655 1.414 . S
C2656 C2657 1.374 . S
C2657 H2637 0.950 . S
C2657 C2653 1.385 . S
C2657 C2656 1.374 . S
C2658 C2655 1.499 . S
C2658 C2659 1.373 . S
C2658 C2660 1.389 . S
C2659 H2638 0.950 . S
C2659 C2658 1.373 . S
C2659 C2675 1.377 . S
C2660 C2658 1.389 . S
C2660 C2661 1.524 . S
C2660 C2674 1.377 . S
C2661 C2660 1.524 . S
C2661 C2662 1.397 . S
C2661 C2666 1.363 . S
C2662 H2639 0.950 . S
C2662 C2661 1.397 . S
C2662 C2663 1.334 . S
C2663 H2640 0.950 . S
C2663 C2662 1.334 . S
C2663 C2664 1.287 . S
C2664 C2663 1.287 . S
C2664 C2665 1.524 . S
C2664 H2683 0.913 . S
C2665 H2641 0.950 . S
C2665 C2664 1.524 . S
C2665 C2666 1.415 . S
C2666 H2642 0.950 . S
C2666 C2661 1.363 . S
C2666 C2665 1.415 . S
C2667 H2643 0.951 . S
C2667 C2668 1.366 . S
C2667 C2669 1.388 . S
C2668 C2667 1.366 . S
C2668 C2672 1.385 . S
C2669 H2644 0.951 . S
C2669 C2667 1.388 . S
C2669 C2670 1.366 . S
C2670 C2669 1.366 . S
C2670 C2671 1.414 . S
C2670 C2673 1.499 . S
C2671 H2645 0.950 . S
C2671 C2670 1.414 . S
C2671 C2672 1.374 . S
C2672 H2646 0.950 . S
C2672 C2668 1.385 . S
C2672 C2671 1.374 . S
C2673 C2670 1.499 . S
C2673 C2674 1.373 . S
C2673 C2675 1.389 . S
C2674 H2647 0.950 . S
C2674 C2660 1.377 . S
C2674 C2673 1.373 . S
C2675 C2659 1.377 . S
C2675 C2673 1.389 . S
C2675 C2676 1.524 . S
C2676 C2675 1.524 . S
C2676 C2677 1.397 . S
C2676 C2681 1.363 . S
C2677 H2648 0.950 . S
C2677 C2676 1.397 . S
C2677 C2678 1.334 . S
C2678 H2649 0.950 . S
C2678 C2677 1.334 . S
C2678 C2679 1.287 . S
C2679 C2678 1.287 . S
C2679 C2680 1.524 . S
C2679 H2682 0.999 . S
C2680 H2650 0.950 . S
C2680 C2679 1.524 . S
C2680 C2681 1.415 . S
C2681 H2651 0.950 . S
C2681 C2676 1.363 . S
C2681 C2680 1.415 . S
H2682 C2679 0.999 . S
H2683 C2664 0.913 . S
H2684 C2702 0.951 . S
H2685 C2704 0.951 . S
H2686 C2706 0.950 . S
H2687 C2707 0.950 . S
H2688 C2709 0.950 . S
H2689 C2712 0.950 . S
H2690 C2713 0.950 . S
H2691 C2715 0.950 . S
H2692 C2716 0.950 . S
H2693 C2717 0.951 . S
H2694 C2719 0.951 . S
H2695 C2721 0.950 . S
H2696 C2722 0.950 . S
H2697 C2724 0.950 . S
H2698 C2727 0.950 . S
H2699 C2728 0.950 . S
H2700 C2730 0.950 . S
H2701 C2731 0.950 . S
C2702 H2684 0.951 . S
C2702 C2703 1.366 . S
C2702 C2704 1.388 . S
C2703 C2702 1.366 . S
C2703 C2707 1.385 . S
C2704 H2685 0.951 . S
C2704 C2702 1.388 . S
C2704 C2705 1.366 . S
C2705 C2704 1.366 . S
C2705 C2706 1.414 . S
C2705 C2708 1.499 . S
C2706 H2686 0.950 . S
C2706 C2705 1.414 . S
C2706 C2707 1.374 . S
C2707 H2687 0.950 . S
C2707 C2703 1.385 . S
C2707 C2706 1.374 . S
C2708 C2705 1.499 . S
C2708 C2709 1.373 . S
C2708 C2710 1.389 . S
C2709 H2688 0.950 . S
C2709 C2708 1.373 . S
C2709 C2725 1.377 . S
C2710 C2708 1.389 . S
C2710 C2711 1.524 . S
C2710 C2724 1.377 . S
C2711 C2710 1.524 . S
C2711 C2712 1.397 . S
C2711 C2716 1.363 . S
C2712 H2689 0.950 . S
C2712 C2711 1.397 . S
C2712 C2713 1.334 . S
C2713 H2690 0.950 . S
C2713 C2712 1.334 . S
C2713 C2714 1.287 . S
C2714 C2713 1.287 . S
C2714 C2715 1.524 . S
C2714 H2733 0.913 . S
C2715 H2691 0.950 . S
C2715 C2714 1.524 . S
C2715 C2716 1.415 . S
C2716 H2692 0.950 . S
C2716 C2711 1.363 . S
C2716 C2715 1.415 . S
C2717 H2693 0.951 . S
C2717 C2718 1.366 . S
C2717 C2719 1.388 . S
C2718 C2717 1.366 . S
C2718 C2722 1.385 . S
C2719 H2694 0.951 . S
C2719 C2717 1.388 . S
C2719 C2720 1.366 . S
C2720 C2719 1.366 . S
C2720 C2721 1.414 . S
C2720 C2723 1.499 . S
C2721 H2695 0.950 . S
C2721 C2720 1.414 . S
C2721 C2722 1.374 . S
C2722 H2696 0.950 . S
C2722 C2718 1.385 . S
C2722 C2721 1.374 . S
C2723 C2720 1.499 . S
C2723 C2724 1.373 . S
C2723 C2725 1.389 . S
C2724 H2697 0.950 . S
C2724 C2710 1.377 . S
C2724 C2723 1.373 . S
C2725 C2709 1.377 . S
C2725 C2723 1.389 . S
C2725 C2726 1.524 . S
C2726 C2725 1.524 . S
C2726 C2727 1.397 . S
C2726 C2731 1.363 . S
C2727 H2698 0.950 . S
C2727 C2726 1.397 . S
C2727 C2728 1.334 . S
C2728 H2699 0.950 . S
C2728 C2727 1.334 . S
C2728 C2729 1.287 . S
C2729 C2728 1.287 . S
C2729 C2730 1.524 . S
C2729 H2732 0.999 . S
C2730 H2700 0.950 . S
C2730 C2729 1.524 . S
C2730 C2731 1.415 . S
C2731 H2701 0.950 . S
C2731 C2726 1.363 . S
C2731 C2730 1.415 . S
H2732 C2729 0.999 . S
H2733 C2714 0.913 . S
H2734 C2752 0.951 . S
H2735 C2754 0.951 . S
H2736 C2756 0.950 . S
H2737 C2757 0.950 . S
H2738 C2759 0.950 . S
H2739 C2762 0.950 . S
H2740 C2763 0.950 . S
H2741 C2765 0.950 . S
H2742 C2766 0.950 . S
H2743 C2767 0.951 . S
H2744 C2769 0.951 . S
H2745 C2771 0.950 . S
H2746 C2772 0.950 . S
H2747 C2774 0.950 . S
H2748 C2777 0.950 . S
H2749 C2778 0.950 . S
H2750 C2780 0.950 . S
H2751 C2781 0.950 . S
C2752 H2734 0.951 . S
C2752 C2753 1.366 . S
C2752 C2754 1.388 . S
C2753 C2752 1.366 . S
C2753 C2757 1.385 . S
C2754 H2735 0.951 . S
C2754 C2752 1.388 . S
C2754 C2755 1.366 . S
C2755 C2754 1.366 . S
C2755 C2756 1.414 . S
C2755 C2758 1.499 . S
C2756 H2736 0.950 . S
C2756 C2755 1.414 . S
C2756 C2757 1.374 . S
C2757 H2737 0.950 . S
C2757 C2753 1.385 . S
C2757 C2756 1.374 . S
C2758 C2755 1.499 . S
C2758 C2759 1.373 . S
C2758 C2760 1.389 . S
C2759 H2738 0.950 . S
C2759 C2758 1.373 . S
C2759 C2775 1.377 . S
C2760 C2758 1.389 . S
C2760 C2761 1.524 . S
C2760 C2774 1.377 . S
C2761 C2760 1.524 . S
C2761 C2762 1.397 . S
C2761 C2766 1.363 . S
C2762 H2739 0.950 . S
C2762 C2761 1.397 . S
C2762 C2763 1.334 . S
C2763 H2740 0.950 . S
C2763 C2762 1.334 . S
C2763 C2764 1.287 . S
C2764 C2763 1.287 . S
C2764 C2765 1.524 . S
C2764 H2783 0.913 . S
C2765 H2741 0.950 . S
C2765 C2764 1.524 . S
C2765 C2766 1.415 . S
C2766 H2742 0.950 . S
C2766 C2761 1.363 . S
C2766 C2765 1.415 . S
C2767 H2743 0.951 . S
C2767 C2768 1.366 . S
C2767 C2769 1.388 . S
C2768 C2767 1.366 . S
C2768 C2772 1.385 . S
C2769 H2744 0.951 . S
C2769 C2767 1.388 . S
C2769 C2770 1.366 . S
C2770 C2769 1.366 . S
C2770 C2771 1.414 . S
C2770 C2773 1.499 . S
C2771 H2745 0.950 . S
C2771 C2770 1.414 . S
C2771 C2772 1.374 . S
C2772 H2746 0.950 . S
C2772 C2768 1.385 . S
C2772 C2771 1.374 . S
C2773 C2770 1.499 . S
C2773 C2774 1.373 . S
C2773 C2775 1.389 . S
C2774 H2747 0.950 . S
C2774 C2760 1.377 . S
C2774 C2773 1.373 . S
C2775 C2759 1.377 . S
C2775 C2773 1.389 . S
C2775 C2776 1.524 . S
C2776 C2775 1.524 . S
C2776 C2777 1.397 . S
C2776 C2781 1.363 . S
C2777 H2748 0.950 . S
C2777 C2776 1.397 . S
C2777 C2778 1.334 . S
C2778 H2749 0.950 . S
C2778 C2777 1.334 . S
C2778 C2779 1.287 . S
C2779 C2778 1.287 . S
C2779 C2780 1.524 . S
C2779 H2782 0.999 . S
C2780 H2750 0.950 . S
C2780 C2779 1.524 . S
C2780 C2781 1.415 . S
C2781 H2751 0.950 . S
C2781 C2776 1.363 . S
C2781 C2780 1.415 . S
H2782 C2779 0.999 . S
H2783 C2764 0.913 . S
H2784 C2802 0.951 . S
H2785 C2804 0.951 . S
H2786 C2806 0.950 . S
H2787 C2807 0.950 . S
H2788 C2809 0.950 . S
H2789 C2812 0.950 . S
H2790 C2813 0.950 . S
H2791 C2815 0.950 . S
H2792 C2816 0.950 . S
H2793 C2817 0.951 . S
H2794 C2819 0.951 . S
H2795 C2821 0.950 . S
H2796 C2822 0.950 . S
H2797 C2824 0.950 . S
H2798 C2827 0.950 . S
H2799 C2828 0.950 . S
H2800 C2830 0.950 . S
H2801 C2831 0.950 . S
C2802 H2784 0.951 . S
C2802 C2803 1.366 . S
C2802 C2804 1.388 . S
C2803 C2802 1.366 . S
C2803 C2807 1.385 . S
C2804 H2785 0.951 . S
C2804 C2802 1.388 . S
C2804 C2805 1.366 . S
C2805 C2804 1.366 . S
C2805 C2806 1.414 . S
C2805 C2808 1.499 . S
C2806 H2786 0.950 . S
C2806 C2805 1.414 . S
C2806 C2807 1.374 . S
C2807 H2787 0.950 . S
C2807 C2803 1.385 . S
C2807 C2806 1.374 . S
C2808 C2805 1.499 . S
C2808 C2809 1.373 . S
C2808 C2810 1.389 . S
C2809 H2788 0.950 . S
C2809 C2808 1.373 . S
C2809 C2825 1.377 . S
C2810 C2808 1.389 . S
C2810 C2811 1.524 . S
C2810 C2824 1.377 . S
C2811 C2810 1.524 . S
C2811 C2812 1.397 . S
C2811 C2816 1.363 . S
C2812 H2789 0.950 . S
C2812 C2811 1.397 . S
C2812 C2813 1.334 . S
C2813 H2790 0.950 . S
C2813 C2812 1.334 . S
C2813 C2814 1.287 . S
C2814 C2813 1.287 . S
C2814 C2815 1.524 . S
C2814 H2833 0.913 . S
C2815 H2791 0.950 . S
C2815 C2814 1.524 . S
C2815 C2816 1.415 . S
C2816 H2792 0.950 . S
C2816 C2811 1.363 . S
C2816 C2815 1.415 . S
C2817 H2793 0.951 . S
C2817 C2818 1.366 . S
C2817 C2819 1.388 . S
C2818 C2817 1.366 . S
C2818 C2822 1.385 . S
C2819 H2794 0.951 . S
C2819 C2817 1.388 . S
C2819 C2820 1.366 . S
C2820 C2819 1.366 . S
C2820 C2821 1.414 . S
C2820 C2823 1.499 . S
C2821 H2795 0.950 . S
C2821 C2820 1.414 . S
C2821 C2822 1.374 . S
C2822 H2796 0.950 . S
C2822 C2818 1.385 . S
C2822 C2821 1.374 . S
C2823 C2820 1.499 . S
C2823 C2824 1.373 . S
C2823 C2825 1.389 . S
C2824 H2797 0.950 . S
C2824 C2810 1.377 . S
C2824 C2823 1.373 . S
C2825 C2809 1.377 . S
C2825 C2823 1.389 . S
C2825 C2826 1.524 . S
C2826 C2825 1.524 . S
C2826 C2827 1.397 . S
C2826 C2831 1.363 . S
C2827 H2798 0.950 . S
C2827 C2826 1.397 . S
C2827 C2828 1.334 . S
C2828 H2799 0.950 . S
C2828 C2827 1.334 . S
C2828 C2829 1.287 . S
C2829 C2828 1.287 . S
C2829 C2830 1.524 . S
C2829 H2832 0.999 . S
C2830 H2800 0.950 . S
C2830 C2829 1.524 . S
C2830 C2831 1.415 . S
C2831 H2801 0.950 . S
C2831 C2826 1.363 . S
C2831 C2830 1.415 . S
H2832 C2829 0.999 . S
H2833 C2814 0.913 . S
H2834 C2852 0.951 . S
H2835 C2854 0.951 . S
H2836 C2856 0.950 . S
H2837 C2857 0.950 . S
H2838 C2859 0.950 . S
H2839 C2862 0.950 . S
H2840 C2863 0.950 . S
H2841 C2865 0.950 . S
H2842 C2866 0.950 . S
H2843 C2867 0.951 . S
H2844 C2869 0.951 . S
H2845 C2871 0.950 . S
H2846 C2872 0.950 . S
H2847 C2874 0.950 . S
H2848 C2877 0.950 . S
H2849 C2878 0.950 . S
H2850 C2880 0.950 . S
H2851 C2881 0.950 . S
C2852 H2834 0.951 . S
C2852 C2853 1.366 . S
C2852 C2854 1.388 . S
C2853 C2852 1.366 . S
C2853 C2857 1.385 . S
C2854 H2835 0.951 . S
C2854 C2852 1.388 . S
C2854 C2855 1.366 . S
C2855 C2854 1.366 . S
C2855 C2856 1.414 . S
C2855 C2858 1.499 . S
C2856 H2836 0.950 . S
C2856 C2855 1.414 . S
C2856 C2857 1.374 . S
C2857 H2837 0.950 . S
C2857 C2853 1.385 . S
C2857 C2856 1.374 . S
C2858 C2855 1.499 . S
C2858 C2859 1.373 . S
C2858 C2860 1.389 . S
C2859 H2838 0.950 . S
C2859 C2858 1.373 . S
C2859 C2875 1.377 . S
C2860 C2858 1.389 . S
C2860 C2861 1.524 . S
C2860 C2874 1.377 . S
C2861 C2860 1.524 . S
C2861 C2862 1.397 . S
C2861 C2866 1.363 . S
C2862 H2839 0.950 . S
C2862 C2861 1.397 . S
C2862 C2863 1.334 . S
C2863 H2840 0.950 . S
C2863 C2862 1.334 . S
C2863 C2864 1.287 . S
C2864 C2863 1.287 . S
C2864 C2865 1.524 . S
C2864 H2883 0.913 . S
C2865 H2841 0.950 . S
C2865 C2864 1.524 . S
C2865 C2866 1.415 . S
C2866 H2842 0.950 . S
C2866 C2861 1.363 . S
C2866 C2865 1.415 . S
C2867 H2843 0.951 . S
C2867 C2868 1.366 . S
C2867 C2869 1.388 . S
C2868 C2867 1.366 . S
C2868 C2872 1.385 . S
C2869 H2844 0.951 . S
C2869 C2867 1.388 . S
C2869 C2870 1.366 . S
C2870 C2869 1.366 . S
C2870 C2871 1.414 . S
C2870 C2873 1.499 . S
C2871 H2845 0.950 . S
C2871 C2870 1.414 . S
C2871 C2872 1.374 . S
C2872 H2846 0.950 . S
C2872 C2868 1.385 . S
C2872 C2871 1.374 . S
C2873 C2870 1.499 . S
C2873 C2874 1.373 . S
C2873 C2875 1.389 . S
C2874 H2847 0.950 . S
C2874 C2860 1.377 . S
C2874 C2873 1.373 . S
C2875 C2859 1.377 . S
C2875 C2873 1.389 . S
C2875 C2876 1.524 . S
C2876 C2875 1.524 . S
C2876 C2877 1.397 . S
C2876 C2881 1.363 . S
C2877 H2848 0.950 . S
C2877 C2876 1.397 . S
C2877 C2878 1.334 . S
C2878 H2849 0.950 . S
C2878 C2877 1.334 . S
C2878 C2879 1.287 . S
C2879 C2878 1.287 . S
C2879 C2880 1.524 . S
C2879 H2882 0.999 . S
C2880 H2850 0.950 . S
C2880 C2879 1.524 . S
C2880 C2881 1.415 . S
C2881 H2851 0.950 . S
C2881 C2876 1.363 . S
C2881 C2880 1.415 . S
H2882 C2879 0.999 . S
H2883 C2864 0.913 . S
C518 C195 1.867 . S
C503 C19 1.826 . S
C568 C173 1.832 . S
C553 C24 1.778 . S
C618 C170 0.494 . S
C603 C59 0.517 . S
C653 C69 1.688 . S
C668 C182 1.683 . S
C703 C82 1.776 . S
C718 C165 1.828 . S
C768 C187 0.495 . S
C753 C118 0.519 . S
C803 C132 1.689 . S
C818 C192 1.687 . S
C853 C158 1.825 . S
C868 C188 1.866 . S
C918 C246 1.975 . S
C903 C4 1.885 . S
C953 C29 0.741 . S
C968 C296 0.739 . S
C1018 C219 1.823 . S
C1003 C44 1.748 . S
C1068 C295 0.515 . S
C1053 C79 0.564 . S
C1103 C98 0.523 . S
C1118 C224 0.496 . S
C1168 C290 1.681 . S
C1153 C112 1.663 . S
C1203 C122 0.998 . S
C1218 C249 1.045 . S
C1253 C152 1.554 . S
C1268 C281 1.583 . S
C1303 C9 1.559 . S
C1318 C273 1.588 . S
C1353 C92 0.750 . S
C1368 C303 0.749 . S
C1418 C227 1.838 . S
C1403 C102 1.760 . S
C1468 C278 0.528 . S
C1453 C138 0.577 . S
C1503 C142 1.888 . S
C1518 C236 1.977 . S
C1553 C49 1.675 . S
C1568 C300 1.696 . S
C1618 C242 1.053 . S
C1603 C64 1.005 . S
C1653 C39 0.533 . S
C1668 C241 0.507 . S
C1703 C159 1.825 . S
C1718 C357 1.867 . S
C1753 C84 1.778 . S
C1768 C335 1.832 . S
C1818 C332 0.494 . S
C1803 C119 0.519 . S
C1868 C344 1.683 . S
C1853 C129 1.688 . S
C1903 C22 1.777 . S
C1918 C327 1.828 . S
C1968 C349 0.495 . S
C1953 C58 0.518 . S
C2003 C72 1.689 . S
C2018 C354 1.688 . S
C2053 C18 1.825 . S
C2068 C350 1.866 . S
C2103 C144 1.884 . S
C2118 C408 1.975 . S
C2168 C458 0.739 . S
C2153 C89 0.741 . S
C2203 C104 1.749 . S
C2218 C381 1.823 . S
C2253 C139 0.567 . S
C2268 C457 0.514 . S
C2318 C386 0.495 . S
C2303 C38 0.522 . S
C2353 C52 1.663 . S
C2368 C452 1.681 . S
C2418 C411 1.045 . S
C2403 C62 0.997 . S
C2468 C443 1.584 . S
C2453 C12 1.554 . S
C2518 C435 1.589 . S
C2503 C149 1.559 . S
C2553 C32 0.750 . S
C2568 C465 0.749 . S
C2603 C42 1.761 . S
C2618 C389 1.837 . S
C2668 C440 0.527 . S
C2653 C78 0.576 . S
C2703 C2 1.888 . S
C2718 C398 1.977 . S
C2753 C109 1.675 . S
C2768 C462 1.696 . S
C2818 C404 1.052 . S
C2803 C124 1.004 . S
C2868 C403 0.507 . S
C2853 C99 0.532 . S
