# Generated by pormake.
# Topology ocu, (6,8)-cn, num edge types: 1
# Building blocks:
#     Node 0, Type 0, BuildingBlock: KUMBOL_clean_sbu_1, # of connection points: 6
#     Node 1, Type 0, BuildingBlock: KUMBOL_clean_sbu_1, # of connection points: 6
#     Node 2, Type 0, BuildingBlock: KUMBOL_clean_sbu_1, # of connection points: 6
#     Node 3, Type 0, BuildingBlock: KUMBOL_clean_sbu_1, # of connection points: 6
#     Node 4, Type 0, BuildingBlock: KUMBOL_clean_sbu_1, # of connection points: 6
#     Node 5, Type 0, BuildingBlock: KUMBOL_clean_sbu_1, # of connection points: 6
#     Node 6, Type 0, BuildingBlock: KUMBOL_clean_sbu_1, # of connection points: 6
#     Node 7, Type 0, BuildingBlock: KUMBOL_clean_sbu_1, # of connection points: 6
#     Node 8, Type 1, BuildingBlock: AJUNOK_clean_sbu_0, # of connection points: 8
#     Node 9, Type 1, BuildingBlock: AJUNOK_clean_sbu_0, # of connection points: 8
#     Node 10, Type 1, BuildingBlock: AJUNOK_clean_sbu_0, # of connection points: 8
#     Node 11, Type 1, BuildingBlock: AJUNOK_clean_sbu_0, # of connection points: 8
#     Node 12, Type 1, BuildingBlock: AJUNOK_clean_sbu_0, # of connection points: 8
#     Node 13, Type 1, BuildingBlock: AJUNOK_clean_sbu_0, # of connection points: 8
#     Edge 14, Type (0, 1), BuildingBlock: MIFKUJ_clean_linker_0, # of connection points: 2
#     Edge 15, Type (0, 1), BuildingBlock: MIFKUJ_clean_linker_0, # of connection points: 2
#     Edge 16, Type (0, 1), BuildingBlock: MIFKUJ_clean_linker_0, # of connection points: 2
#     Edge 17, Type (0, 1), BuildingBlock: MIFKUJ_clean_linker_0, # of connection points: 2
#     Edge 18, Type (0, 1), BuildingBlock: MIFKUJ_clean_linker_0, # of connection points: 2
#     Edge 19, Type (0, 1), BuildingBlock: MIFKUJ_clean_linker_0, # of connection points: 2
#     Edge 20, Type (0, 1), BuildingBlock: MIFKUJ_clean_linker_0, # of connection points: 2
#     Edge 21, Type (0, 1), BuildingBlock: MIFKUJ_clean_linker_0, # of connection points: 2
#     Edge 22, Type (0, 1), BuildingBlock: MIFKUJ_clean_linker_0, # of connection points: 2
#     Edge 23, Type (0, 1), BuildingBlock: MIFKUJ_clean_linker_0, # of connection points: 2
#     Edge 24, Type (0, 1), BuildingBlock: MIFKUJ_clean_linker_0, # of connection points: 2
#     Edge 25, Type (0, 1), BuildingBlock: MIFKUJ_clean_linker_0, # of connection points: 2
#     Edge 26, Type (0, 1), BuildingBlock: MIFKUJ_clean_linker_0, # of connection points: 2
#     Edge 27, Type (0, 1), BuildingBlock: MIFKUJ_clean_linker_0, # of connection points: 2
#     Edge 28, Type (0, 1), BuildingBlock: MIFKUJ_clean_linker_0, # of connection points: 2
#     Edge 29, Type (0, 1), BuildingBlock: MIFKUJ_clean_linker_0, # of connection points: 2
#     Edge 30, Type (0, 1), BuildingBlock: MIFKUJ_clean_linker_0, # of connection points: 2
#     Edge 31, Type (0, 1), BuildingBlock: MIFKUJ_clean_linker_0, # of connection points: 2
#     Edge 32, Type (0, 1), BuildingBlock: MIFKUJ_clean_linker_0, # of connection points: 2
#     Edge 33, Type (0, 1), BuildingBlock: MIFKUJ_clean_linker_0, # of connection points: 2
#     Edge 34, Type (0, 1), BuildingBlock: MIFKUJ_clean_linker_0, # of connection points: 2
#     Edge 35, Type (0, 1), BuildingBlock: MIFKUJ_clean_linker_0, # of connection points: 2
#     Edge 36, Type (0, 1), BuildingBlock: MIFKUJ_clean_linker_0, # of connection points: 2
#     Edge 37, Type (0, 1), BuildingBlock: MIFKUJ_clean_linker_0, # of connection points: 2
#     Edge 38, Type (0, 1), BuildingBlock: MIFKUJ_clean_linker_0, # of connection points: 2
#     Edge 39, Type (0, 1), BuildingBlock: MIFKUJ_clean_linker_0, # of connection points: 2
#     Edge 40, Type (0, 1), BuildingBlock: MIFKUJ_clean_linker_0, # of connection points: 2
#     Edge 41, Type (0, 1), BuildingBlock: MIFKUJ_clean_linker_0, # of connection points: 2
#     Edge 42, Type (0, 1), BuildingBlock: MIFKUJ_clean_linker_0, # of connection points: 2
#     Edge 43, Type (0, 1), BuildingBlock: MIFKUJ_clean_linker_0, # of connection points: 2
#     Edge 44, Type (0, 1), BuildingBlock: MIFKUJ_clean_linker_0, # of connection points: 2
#     Edge 45, Type (0, 1), BuildingBlock: MIFKUJ_clean_linker_0, # of connection points: 2
#     Edge 46, Type (0, 1), BuildingBlock: MIFKUJ_clean_linker_0, # of connection points: 2
#     Edge 47, Type (0, 1), BuildingBlock: MIFKUJ_clean_linker_0, # of connection points: 2
#     Edge 48, Type (0, 1), BuildingBlock: MIFKUJ_clean_linker_0, # of connection points: 2
#     Edge 49, Type (0, 1), BuildingBlock: MIFKUJ_clean_linker_0, # of connection points: 2
#     Edge 50, Type (0, 1), BuildingBlock: MIFKUJ_clean_linker_0, # of connection points: 2
#     Edge 51, Type (0, 1), BuildingBlock: MIFKUJ_clean_linker_0, # of connection points: 2
#     Edge 52, Type (0, 1), BuildingBlock: MIFKUJ_clean_linker_0, # of connection points: 2
#     Edge 53, Type (0, 1), BuildingBlock: MIFKUJ_clean_linker_0, # of connection points: 2
#     Edge 54, Type (0, 1), BuildingBlock: MIFKUJ_clean_linker_0, # of connection points: 2
#     Edge 55, Type (0, 1), BuildingBlock: MIFKUJ_clean_linker_0, # of connection points: 2
#     Edge 56, Type (0, 1), BuildingBlock: MIFKUJ_clean_linker_0, # of connection points: 2
#     Edge 57, Type (0, 1), BuildingBlock: MIFKUJ_clean_linker_0, # of connection points: 2
#     Edge 58, Type (0, 1), BuildingBlock: MIFKUJ_clean_linker_0, # of connection points: 2
#     Edge 59, Type (0, 1), BuildingBlock: MIFKUJ_clean_linker_0, # of connection points: 2
#     Edge 60, Type (0, 1), BuildingBlock: MIFKUJ_clean_linker_0, # of connection points: 2
#     Edge 61, Type (0, 1), BuildingBlock: MIFKUJ_clean_linker_0, # of connection points: 2
# Relax obj value: 0.122
# Max RMSD: 0.192
# Mean RMSD: 0.162
data_MOF--net-ocu--node1-KUMBOL_clean_sbu_1--node2-AJUNOK_clean_sbu_0--edge1-MIFKUJ_clean_linker_0
_symmetry_space_group_name_H-M    P1
_symmetry_Int_Tables_number       1
_symmetry_cell_setting            triclinic
loop_
_symmetry_equiv_pos_as_xyz
'x, y, z'
_cell_length_a     54.594383
_cell_length_b     55.251149
_cell_length_c     48.370488
_cell_angle_alpha  102.7215
_cell_angle_beta   88.87387
_cell_angle_gamma 110.81132
loop_
_atom_site_label
_atom_site_type_symbol
_atom_site_fract_x
_atom_site_fract_y
_atom_site_fract_z
_atom_type_partial_charge
C0 C 0.28126 0.27681 0.33379 0.0
C1 C 0.25208 0.24979 0.36274 0.0
C2 C 0.26421 0.25224 0.33696 0.0
C3 C 0.25638 0.27257 0.38463 0.0
C4 C 0.28618 0.29964 0.35594 0.0
C5 C 0.27335 0.29745 0.38121 0.0
N6 N 0.29334 0.27828 0.30904 0.0
C7 C 0.31193 0.30158 0.30582 0.0
C8 C 0.30424 0.32389 0.3522 0.0
C9 C 0.31736 0.32479 0.32714 0.0
Gd10 Gd 0.2418 0.23998 0.20679 0.0
Gd11 Gd 0.28346 0.23818 0.2747 0.0
N12 N 0.26069 0.23054 0.3155 0.0
C13 C 0.23689 0.22437 0.36618 0.0
C14 C 0.24726 0.20567 0.31946 0.0
C15 C 0.235 0.20218 0.34467 0.0
H16 H 0.24712 0.1885 0.30375 0.0
H17 H 0.22435 0.18235 0.34761 0.0
H18 H 0.28945 0.27339 0.17056 0.0
H19 H 0.32261 0.3023 0.28685 0.0
H20 H 0.31026 0.26474 0.12525 0.0
H21 H 0.22737 0.22161 0.38571 0.0
H22 H 0.24719 0.27107 0.40455 0.0
H23 H 0.18418 0.18774 0.20135 0.0
H24 H 0.30855 0.34188 0.36873 0.0
H25 H 0.3318 0.34332 0.32433 0.0
H26 H 0.25929 0.17377 0.08144 0.0
H27 H 0.27688 0.31478 0.39846 0.0
H28 H 0.18441 0.12863 0.12784 0.0
H29 H 0.16334 0.14303 0.17085 0.0
N30 N 0.21863 0.19751 0.17822 0.0
C31 C 0.22966 0.19068 0.15367 0.0
C32 C 0.19447 0.18124 0.18372 0.0
C33 C 0.19415 0.14802 0.14174 0.0
C34 C 0.18223 0.15604 0.16603 0.0
C35 C 0.21776 0.16567 0.13485 0.0
H36 H 0.22025 0.14038 0.09454 0.0
N37 N 0.26242 0.23373 0.16433 0.0
C38 C 0.25194 0.20945 0.14628 0.0
C39 C 0.28442 0.22372 0.11282 0.0
C40 C 0.26286 0.2037 0.12012 0.0
C41 C 0.28237 0.25382 0.15664 0.0
C42 C 0.29403 0.24897 0.13103 0.0
O43 O 0.26229 0.26816 0.27951 0.0
O44 O 0.22511 0.24593 0.24988 0.0
O45 O 0.2385 0.2775 0.20346 0.0
O46 O 0.21101 0.24055 0.17949 0.0
O47 O 0.24858 0.20058 0.25654 0.0
O48 O 0.21915 0.21421 0.23603 0.0
O49 O 0.27779 0.22774 0.19944 0.0
O50 O 0.27494 0.20549 0.23451 0.0
O51 O 0.29869 0.21589 0.29688 0.0
O52 O 0.32558 0.24639 0.27847 0.0
O53 O 0.27569 0.27653 0.22833 0.0
O54 O 0.30631 0.262 0.2443 0.0
C55 C 0.23753 0.26373 0.27276 0.0
C56 C 0.22451 0.19747 0.24837 0.0
C57 C 0.19438 0.27414 0.19822 0.0
C58 C 0.16715 0.30124 0.19869 0.0
C59 C 0.15743 0.26881 0.22809 0.0
C60 C 0.17839 0.26149 0.21775 0.0
C61 C 0.15186 0.28854 0.21876 0.0
C62 C 0.18863 0.29394 0.18855 0.0
C63 C 0.21657 0.26603 0.1878 0.0
C64 C 0.25148 0.17852 0.1018 0.0
C65 C 0.22912 0.1595 0.10922 0.0
H66 H 0.29333 0.22011 0.09287 0.0
C67 C 0.28262 0.20954 0.20953 0.0
C68 C 0.3001 0.27858 0.23263 0.0
C69 C 0.34104 0.23688 0.31908 0.0
C70 C 0.36804 0.22509 0.34973 0.0
C71 C 0.3604 0.26675 0.36428 0.0
C72 C 0.34503 0.26069 0.33919 0.0
C73 C 0.3717 0.24903 0.36966 0.0
C74 C 0.3528 0.21925 0.32431 0.0
C75 C 0.32311 0.22898 0.29366 0.0
H76 H 0.14522 0.25889 0.24313 0.0
H77 H 0.18199 0.24571 0.22479 0.0
H78 H 0.135 0.29325 0.22666 0.0
H79 H 0.20078 0.30354 0.17323 0.0
H80 H 0.36335 0.28513 0.37976 0.0
H81 H 0.33603 0.27441 0.33571 0.0
H82 H 0.38343 0.25409 0.38933 0.0
H83 H 0.34937 0.20061 0.30901 0.0
C84 C 0.79799 0.17532 0.21146 0.0
C85 C 0.82388 0.17828 0.17001 0.0
C86 C 0.81291 0.19024 0.19326 0.0
C87 C 0.81944 0.15101 0.1651 0.0
C88 C 0.79369 0.14795 0.20667 0.0
C89 C 0.80435 0.13588 0.18335 0.0
N90 N 0.78797 0.1876 0.23394 0.0
C91 C 0.77475 0.1738 0.25324 0.0
C92 C 0.77898 0.13352 0.22558 0.0
C93 C 0.7696 0.14654 0.24901 0.0
Gd94 Gd 0.73074 0.2623 0.23548 0.0
Gd95 Gd 0.79764 0.2334 0.23781 0.0
N96 N 0.81651 0.21646 0.19816 0.0
C97 C 0.83907 0.19415 0.15244 0.0
C98 C 0.8318 0.23221 0.18166 0.0
C99 C 0.84318 0.22128 0.15842 0.0
H100 H 0.83553 0.25328 0.18667 0.0
H101 H 0.85523 0.23378 0.14523 0.0
H102 H 0.67843 0.20507 0.22799 0.0
H103 H 0.7684 0.18352 0.27229 0.0
H104 H 0.63961 0.18681 0.25455 0.0
H105 H 0.84789 0.18572 0.13441 0.0
H106 H 0.82765 0.14144 0.14731 0.0
H107 H 0.75294 0.32875 0.26014 0.0
H108 H 0.77513 0.11244 0.22255 0.0
H109 H 0.75858 0.13558 0.26398 0.0
H110 H 0.64234 0.26044 0.33018 0.0
H111 H 0.80119 0.11488 0.17935 0.0
H112 H 0.70739 0.34567 0.32984 0.0
H113 H 0.74302 0.36131 0.29835 0.0
N114 N 0.72327 0.2953 0.27024 0.0
C115 C 0.70263 0.28634 0.28622 0.0
C116 C 0.73703 0.32192 0.2735 0.0
C117 C 0.71152 0.33136 0.31302 0.0
C118 C 0.73163 0.3403 0.29524 0.0
C119 C 0.69645 0.30417 0.30835 0.0
H120 H 0.67017 0.30785 0.34185 0.0
N121 N 0.69214 0.24292 0.2569 0.0
C122 C 0.68681 0.25942 0.27953 0.0
C123 C 0.64789 0.2233 0.28626 0.0
C124 C 0.66458 0.24994 0.29497 0.0
C125 C 0.67493 0.21752 0.24706 0.0
C126 C 0.65285 0.20717 0.26193 0.0
O127 O 0.79984 0.26596 0.21399 0.0
O128 O 0.77159 0.29034 0.22899 0.0
O129 O 0.69672 0.26299 0.21294 0.0
O130 O 0.73367 0.27133 0.19376 0.0
O131 O 0.77729 0.26002 0.25818 0.0
O132 O 0.75502 0.28397 0.27744 0.0
O133 O 0.72656 0.22095 0.24129 0.0
O134 O 0.76345 0.22242 0.26654 0.0
O135 O 0.8377 0.26131 0.2471 0.0
O136 O 0.82127 0.23304 0.27325 0.0
O137 O 0.75091 0.23491 0.21558 0.0
O138 O 0.77328 0.21111 0.19616 0.0
C139 C 0.79042 0.28525 0.21348 0.0
C140 C 0.77508 0.27706 0.28037 0.0
C141 C 0.70911 0.2976 0.18849 0.0
C142 C 0.68557 0.32242 0.17175 0.0
C143 C 0.72808 0.34583 0.1978 0.0
C144 C 0.7296 0.3217 0.2 0.0
C145 C 0.70612 0.34626 0.18406 0.0
C146 C 0.6872 0.29799 0.17398 0.0
C147 C 0.71036 0.27245 0.1929 0.0
C148 C 0.65919 0.26745 0.31793 0.0
C149 C 0.67504 0.29448 0.32457 0.0
H150 H 0.63066 0.21526 0.29762 0.0
C151 C 0.73764 0.21618 0.26268 0.0
C152 C 0.75292 0.21762 0.19346 0.0
C153 C 0.866 0.24262 0.26377 0.0
C154 C 0.89334 0.22127 0.28053 0.0
C155 C 0.90416 0.2396 0.2386 0.0
C156 C 0.88257 0.24765 0.24142 0.0
C157 C 0.90951 0.22644 0.2579 0.0
C158 C 0.87166 0.22961 0.28337 0.0
C159 C 0.84253 0.25028 0.26651 0.0
H160 H 0.74398 0.36426 0.20679 0.0
H161 H 0.74677 0.32191 0.2109 0.0
H162 H 0.70553 0.36528 0.1824 0.0
H163 H 0.67131 0.27948 0.16504 0.0
H164 H 0.91668 0.24337 0.22121 0.0
H165 H 0.87882 0.25763 0.22597 0.0
H166 H 0.92608 0.21992 0.25482 0.0
H167 H 0.85918 0.22604 0.30086 0.0
C168 C 0.82575 0.8039 0.19123 0.0
C169 C 0.82158 0.77165 0.14661 0.0
C170 C 0.81229 0.77911 0.1734 0.0
C171 C 0.84532 0.78848 0.13876 0.0
C172 C 0.8489 0.82139 0.18258 0.0
C173 C 0.85898 0.81323 0.15672 0.0
N174 N 0.8152 0.81176 0.21578 0.0
C175 C 0.82532 0.83755 0.23099 0.0
C176 C 0.86061 0.84709 0.19951 0.0
C177 C 0.8485 0.85534 0.22354 0.0
Gd178 Gd 0.76748 0.72885 0.28919 0.0
Gd179 Gd 0.77631 0.77972 0.22549 0.0
N180 N 0.78921 0.76312 0.18128 0.0
C181 C 0.80627 0.74784 0.12806 0.0
C182 C 0.77368 0.74048 0.16284 0.0
C183 C 0.78207 0.7324 0.1361 0.0
H184 H 0.75492 0.72865 0.16887 0.0
H185 H 0.76985 0.71433 0.12172 0.0
H186 H 0.76765 0.76627 0.35396 0.0
H187 H 0.81557 0.84441 0.24907 0.0
H188 H 0.73657 0.76866 0.39156 0.0
H189 H 0.81268 0.74151 0.10728 0.0
H190 H 0.8529 0.78288 0.11843 0.0
H191 H 0.7472 0.66441 0.2545 0.0
H192 H 0.87838 0.86106 0.19357 0.0
H193 H 0.85681 0.87552 0.2361 0.0
H194 H 0.66072 0.68969 0.35921 0.0
H195 H 0.87685 0.82633 0.14993 0.0
H196 H 0.67036 0.62497 0.28014 0.0
H197 H 0.70739 0.62388 0.25017 0.0
N198 N 0.73193 0.68841 0.2852 0.0
C199 C 0.71266 0.68892 0.3032 0.0
C200 C 0.73093 0.66504 0.26744 0.0
C201 C 0.6876 0.64284 0.28186 0.0
C202 C 0.7085 0.64211 0.26497 0.0
C203 C 0.68982 0.6662 0.30187 0.0
H204 H 0.65279 0.64997 0.32051 0.0
N205 N 0.74038 0.73176 0.3271 0.0
C206 C 0.71705 0.71133 0.32491 0.0
C207 C 0.70563 0.73297 0.36967 0.0
C208 C 0.69882 0.71154 0.34596 0.0
C209 C 0.7482 0.75125 0.35149 0.0
C210 C 0.73069 0.75259 0.37277 0.0
O211 O 0.79503 0.74692 0.21669 0.0
O212 O 0.79002 0.72018 0.25051 0.0
O213 O 0.80147 0.74554 0.31943 0.0
O214 O 0.78385 0.70313 0.30429 0.0
O215 O 0.74469 0.74652 0.23969 0.0
O216 O 0.74571 0.70808 0.24644 0.0
O217 O 0.74977 0.76187 0.30011 0.0
O218 O 0.75432 0.78766 0.26543 0.0
O219 O 0.74507 0.77374 0.19485 0.0
O220 O 0.76582 0.8131 0.22037 0.0
O221 O 0.78716 0.76319 0.27125 0.0
O222 O 0.80608 0.80184 0.26254 0.0
C223 C 0.79909 0.72775 0.22678 0.0
C224 C 0.73953 0.72114 0.22986 0.0
C225 C 0.82971 0.72097 0.31192 0.0
C226 C 0.86321 0.70184 0.31677 0.0
C227 C 0.86848 0.73177 0.28496 0.0
C228 C 0.8446 0.73433 0.29222 0.0
C229 C 0.87769 0.71567 0.29703 0.0
C230 C 0.83902 0.70468 0.32412 0.0
C231 C 0.80379 0.72272 0.31833 0.0
C232 C 0.67514 0.68973 0.34348 0.0
C233 C 0.67063 0.6671 0.32145 0.0
H234 H 0.69218 0.73389 0.3863 0.0
C235 C 0.7459 0.78086 0.28972 0.0
C236 C 0.80504 0.78666 0.27967 0.0
C237 C 0.74652 0.81003 0.17572 0.0
C238 C 0.7247 0.83024 0.14893 0.0
C239 C 0.76209 0.8191 0.13043 0.0
C240 C 0.7641 0.80945 0.15429 0.0
C241 C 0.74246 0.82927 0.12763 0.0
C242 C 0.72701 0.82077 0.17317 0.0
C243 C 0.74765 0.7987 0.20031 0.0
H244 H 0.87972 0.74203 0.2696 0.0
H245 H 0.83751 0.74635 0.28199 0.0
H246 H 0.89601 0.7137 0.29048 0.0
H247 H 0.82748 0.69444 0.33937 0.0
H248 H 0.7757 0.81853 0.11394 0.0
H249 H 0.7792 0.80135 0.15587 0.0
H250 H 0.74126 0.83658 0.10887 0.0
H251 H 0.71328 0.82112 0.18961 0.0
C252 C 0.29125 0.74426 0.33945 0.0
C253 C 0.26253 0.6985 0.33644 0.0
C254 C 0.27373 0.72023 0.32362 0.0
C255 C 0.269 0.70127 0.36522 0.0
C256 C 0.29777 0.74707 0.36835 0.0
C257 C 0.28652 0.72548 0.38113 0.0
N258 N 0.3015 0.76503 0.32674 0.0
C259 C 0.31926 0.78866 0.34121 0.0
C260 C 0.31536 0.77158 0.3836 0.0
C261 C 0.32627 0.79241 0.3699 0.0
Gd262 Gd 0.23152 0.78361 0.25913 0.0
Gd263 Gd 0.28785 0.75707 0.27893 0.0
N264 N 0.2671 0.71838 0.29599 0.0
C265 C 0.24494 0.67467 0.32003 0.0
C266 C 0.25099 0.69476 0.27957 0.0
C267 C 0.23938 0.67273 0.29142 0.0
H268 H 0.24721 0.69246 0.25726 0.0
H269 H 0.22627 0.65419 0.27839 0.0
H270 H 0.26881 0.84776 0.29147 0.0
H271 H 0.32843 0.80444 0.3304 0.0
H272 H 0.2956 0.88858 0.2773 0.0
H273 H 0.2358 0.65759 0.32915 0.0
H274 H 0.26051 0.6848 0.37541 0.0
H275 H 0.19708 0.7424 0.20067 0.0
H276 H 0.32082 0.77454 0.40585 0.0
H277 H 0.3402 0.81127 0.38137 0.0
H278 H 0.27737 0.86854 0.17662 0.0
H279 H 0.29124 0.72729 0.40332 0.0
H280 H 0.21569 0.78244 0.1323 0.0
H281 H 0.19123 0.7423 0.15004 0.0
N282 N 0.22419 0.78213 0.21124 0.0
C283 C 0.23731 0.80466 0.20219 0.0
C284 C 0.20772 0.75997 0.19303 0.0
C285 C 0.2181 0.78266 0.15455 0.0
C286 C 0.20434 0.75991 0.16444 0.0
C287 C 0.23487 0.8054 0.17345 0.0
H288 H 0.24812 0.82941 0.14236 0.0
N289 N 0.25631 0.82514 0.24914 0.0
C290 C 0.2541 0.82663 0.22158 0.0
C291 C 0.28422 0.87226 0.2328 0.0
C292 C 0.26844 0.85007 0.21259 0.0
C293 C 0.26984 0.84749 0.26921 0.0
C294 C 0.28449 0.87111 0.2613 0.0
O295 O 0.25628 0.75811 0.30989 0.0
O296 O 0.21917 0.75056 0.28248 0.0
O297 O 0.21189 0.80844 0.28338 0.0
O298 O 0.1901 0.77505 0.24977 0.0
O299 O 0.26104 0.73294 0.23944 0.0
O300 O 0.22124 0.73926 0.24646 0.0
O301 O 0.26046 0.77735 0.22681 0.0
O302 O 0.29848 0.78915 0.25409 0.0
O303 O 0.30566 0.73233 0.25088 0.0
O304 O 0.32853 0.76241 0.28685 0.0
O305 O 0.25552 0.80329 0.30088 0.0
O306 O 0.29581 0.80101 0.28934 0.0
C307 C 0.23072 0.74829 0.3048 0.0
C308 C 0.23564 0.72604 0.2333 0.0
C309 C 0.16753 0.78481 0.29083 0.0
C310 C 0.14875 0.79327 0.33687 0.0
C311 C 0.12488 0.75458 0.29963 0.0
C312 C 0.14512 0.76186 0.28156 0.0
C313 C 0.12652 0.77021 0.32696 0.0
C314 C 0.16926 0.80023 0.3186 0.0
C315 C 0.18876 0.79311 0.27148 0.0
C316 C 0.26629 0.85079 0.18391 0.0
C317 C 0.24954 0.82854 0.1644 0.0
H318 H 0.29552 0.89063 0.22676 0.0
C319 C 0.28614 0.78716 0.2302 0.0
C320 C 0.28102 0.81123 0.30609 0.0
C321 C 0.35201 0.75079 0.24731 0.0
C322 C 0.37604 0.73561 0.20811 0.0
C323 C 0.39766 0.77698 0.24301 0.0
C324 C 0.37461 0.77337 0.25724 0.0
C325 C 0.39857 0.75804 0.21898 0.0
C326 C 0.35275 0.73234 0.22244 0.0
C327 C 0.32873 0.74458 0.26436 0.0
H328 H 0.10762 0.73695 0.29224 0.0
H329 H 0.14311 0.74961 0.2603 0.0
H330 H 0.11003 0.76452 0.34001 0.0
H331 H 0.18664 0.81775 0.32596 0.0
H332 H 0.41512 0.79418 0.25107 0.0
H333 H 0.37476 0.7879 0.27642 0.0
H334 H 0.41711 0.7608 0.2093 0.0
H335 H 0.33517 0.71517 0.21459 0.0
C336 C 0.31365 0.72276 0.6914 0.0
C337 C 0.35091 0.75918 0.68156 0.0
C338 C 0.32963 0.74946 0.69818 0.0
C339 C 0.35474 0.74218 0.65706 0.0
C340 C 0.31844 0.7053 0.66767 0.0
C341 C 0.33846 0.71533 0.65005 0.0
N342 N 0.29497 0.71344 0.70931 0.0
C343 C 0.28213 0.68659 0.70612 0.0
C344 C 0.3038 0.67807 0.66309 0.0
C345 C 0.28585 0.66864 0.68265 0.0
Gd346 Gd 0.22133 0.76957 0.73808 0.0
Gd347 Gd 0.28867 0.74602 0.74651 0.0
N348 N 0.32601 0.76526 0.72249 0.0
C349 C 0.3685 0.78534 0.69083 0.0
C350 C 0.34472 0.78976 0.73309 0.0
C351 C 0.36572 0.80049 0.71704 0.0
H352 H 0.34303 0.80141 0.75362 0.0
H353 H 0.37985 0.82035 0.725 0.0
H354 H 0.20472 0.75303 0.66893 0.0
H355 H 0.26786 0.67908 0.72084 0.0
H356 H 0.16838 0.71993 0.63532 0.0
H357 H 0.38497 0.79358 0.67857 0.0
H358 H 0.37078 0.7494 0.64388 0.0
H359 H 0.19815 0.77322 0.80303 0.0
H360 H 0.30691 0.66407 0.64512 0.0
H361 H 0.27487 0.64754 0.67966 0.0
H362 H 0.10464 0.67712 0.69597 0.0
H363 H 0.3422 0.70227 0.63157 0.0
H364 H 0.12179 0.71255 0.79653 0.0
H365 H 0.15868 0.74934 0.82581 0.0
N366 N 0.18395 0.74958 0.76154 0.0
C367 C 0.1634 0.7304 0.74499 0.0
C368 C 0.18208 0.75724 0.79012 0.0
C369 C 0.13904 0.72294 0.78646 0.0
C370 C 0.15981 0.74373 0.80306 0.0
C371 C 0.14045 0.71635 0.75697 0.0
H372 H 0.10187 0.68539 0.7479 0.0
N373 N 0.18674 0.74087 0.70528 0.0
C374 C 0.16496 0.72573 0.71588 0.0
C375 C 0.14524 0.70433 0.66836 0.0
C376 C 0.14363 0.70688 0.69774 0.0
C377 C 0.18781 0.73972 0.67688 0.0
C378 C 0.16725 0.72119 0.65792 0.0
O379 O 0.29516 0.78725 0.73837 0.0
O380 O 0.25717 0.77828 0.71143 0.0
O381 O 0.19865 0.78909 0.72102 0.0
O382 O 0.23089 0.81203 0.75242 0.0
O383 O 0.26585 0.7707 0.76216 0.0
O384 O 0.24203 0.79198 0.78147 0.0
O385 O 0.2186 0.73871 0.7642 0.0
O386 O 0.24912 0.71665 0.75312 0.0
O387 O 0.32143 0.74136 0.76707 0.0
O388 O 0.28886 0.74383 0.79096 0.0
O389 O 0.2403 0.74891 0.7027 0.0
O390 O 0.25559 0.71848 0.71457 0.0
C391 C 0.28166 0.79361 0.72041 0.0
C392 C 0.26312 0.78713 0.78457 0.0
C393 C 0.22364 0.83309 0.71714 0.0
C394 C 0.21461 0.85851 0.68575 0.0
C395 C 0.25947 0.86794 0.70236 0.0
C396 C 0.25058 0.84824 0.7178 0.0
C397 C 0.24162 0.8732 0.68657 0.0
C398 C 0.20573 0.83821 0.70082 0.0
C399 C 0.21397 0.81277 0.73425 0.0
C400 C 0.12115 0.69189 0.70953 0.0
C401 C 0.11956 0.69663 0.7391 0.0
H402 H 0.12932 0.69004 0.65366 0.0
C403 C 0.228 0.71969 0.76515 0.0
C404 C 0.23982 0.72437 0.69918 0.0
C405 C 0.3072 0.71321 0.79856 0.0
C406 C 0.32104 0.68781 0.82639 0.0
C407 C 0.28468 0.66549 0.79063 0.0
C408 C 0.28752 0.68964 0.78435 0.0
C409 C 0.30122 0.66449 0.81152 0.0
C410 C 0.32417 0.7123 0.81957 0.0
C411 C 0.30996 0.73817 0.79037 0.0
H412 H 0.28025 0.8794 0.70292 0.0
H413 H 0.26484 0.84507 0.7304 0.0
H414 H 0.24888 0.88886 0.67508 0.0
H415 H 0.18488 0.82703 0.70059 0.0
H416 H 0.26973 0.64751 0.77898 0.0
H417 H 0.27423 0.68992 0.76836 0.0
H418 H 0.29884 0.64532 0.81566 0.0
H419 H 0.33951 0.73043 0.83057 0.0
C420 C 0.3188 0.27996 0.67751 0.0
C421 C 0.30568 0.24301 0.63581 0.0
C422 C 0.3 0.25636 0.66208 0.0
C423 C 0.33049 0.25329 0.62532 0.0
C424 C 0.3434 0.29069 0.66634 0.0
C425 C 0.34926 0.27704 0.6405 0.0
N426 N 0.3128 0.29285 0.70271 0.0
C427 C 0.32947 0.31768 0.71602 0.0
C428 C 0.36126 0.31518 0.68111 0.0
C429 C 0.35408 0.32892 0.70575 0.0
Gd430 Gd 0.27054 0.22855 0.78722 0.0
Gd431 Gd 0.27091 0.27045 0.71693 0.0
N432 N 0.27625 0.24625 0.67289 0.0
C433 C 0.28618 0.21969 0.6208 0.0
C434 C 0.25669 0.22444 0.65772 0.0
C435 C 0.26151 0.21051 0.63169 0.0
H436 H 0.23754 0.21774 0.6659 0.0
H437 H 0.24623 0.19275 0.62004 0.0
H438 H 0.25883 0.26564 0.84768 0.0
H439 H 0.32393 0.32938 0.73424 0.0
H440 H 0.2258 0.26068 0.88367 0.0
H441 H 0.28985 0.20884 0.60059 0.0
H442 H 0.33527 0.24319 0.60528 0.0
H443 H 0.26517 0.16712 0.75387 0.0
H444 H 0.38031 0.32407 0.67318 0.0
H445 H 0.36737 0.34837 0.71666 0.0
H446 H 0.17231 0.16798 0.85909 0.0
H447 H 0.36815 0.28494 0.63181 0.0
H448 H 0.19929 0.11196 0.78418 0.0
H449 H 0.23594 0.12078 0.75235 0.0
N450 N 0.24448 0.18407 0.78508 0.0
C451 C 0.22523 0.17967 0.80362 0.0
C452 C 0.24903 0.16335 0.76748 0.0
C453 C 0.21191 0.13227 0.7847 0.0
C454 C 0.23259 0.13716 0.7667 0.0
C455 C 0.20827 0.15362 0.80378 0.0
H456 H 0.1754 0.12981 0.82374 0.0
N457 N 0.24104 0.22591 0.82358 0.0
C458 C 0.22333 0.20126 0.8233 0.0
C459 C 0.20501 0.2191 0.86534 0.0
C460 C 0.20464 0.19723 0.84401 0.0
C461 C 0.24291 0.24678 0.84578 0.0
C462 C 0.22457 0.24389 0.86653 0.0
O463 O 0.28669 0.23609 0.70857 0.0
O464 O 0.28753 0.21434 0.74576 0.0
O465 O 0.29546 0.24571 0.82646 0.0
O466 O 0.29982 0.21261 0.79647 0.0
O467 O 0.25212 0.23909 0.73973 0.0
O468 O 0.23496 0.2042 0.7566 0.0
O469 O 0.2537 0.26239 0.79618 0.0
O470 O 0.24766 0.27834 0.75586 0.0
O471 O 0.23374 0.26516 0.69589 0.0
O472 O 0.26738 0.30138 0.6985 0.0
O473 O 0.29526 0.26002 0.76524 0.0
O474 O 0.29551 0.29763 0.75598 0.0
C475 C 0.29211 0.21834 0.71965 0.0
C476 C 0.23332 0.21628 0.73698 0.0
C477 C 0.30599 0.21374 0.84477 0.0
C478 C 0.32458 0.18819 0.86781 0.0
C479 C 0.28495 0.19584 0.88432 0.0
C480 C 0.28588 0.21018 0.86372 0.0
C481 C 0.30405 0.18487 0.88635 0.0
C482 C 0.32533 0.20266 0.84688 0.0
C483 C 0.30619 0.22768 0.82188 0.0
C484 C 0.18695 0.17142 0.84351 0.0
C485 C 0.18875 0.14966 0.82342 0.0
H486 H 0.19102 0.21682 0.88166 0.0
C487 C 0.24398 0.27604 0.78271 0.0
C488 C 0.30211 0.28581 0.7736 0.0
C489 C 0.22641 0.30584 0.70243 0.0
C490 C 0.19382 0.32511 0.69464 0.0
C491 C 0.21655 0.33657 0.74105 0.0
C492 C 0.23095 0.32063 0.73061 0.0
C493 C 0.19811 0.33885 0.72334 0.0
C494 C 0.208 0.30835 0.68429 0.0
C495 C 0.24225 0.28935 0.69196 0.0
H496 H 0.26926 0.19311 0.89871 0.0
H497 H 0.27078 0.21836 0.86266 0.0
H498 H 0.30247 0.17342 0.90226 0.0
H499 H 0.34089 0.20538 0.8323 0.0
H500 H 0.21995 0.34735 0.76296 0.0
H501 H 0.24579 0.32002 0.74464 0.0
H502 H 0.18782 0.3521 0.73193 0.0
H503 H 0.20497 0.2976 0.66227 0.0
C504 C 0.79449 0.22648 0.80888 0.0
C505 C 0.77034 0.17922 0.80264 0.0
C506 C 0.7781 0.20264 0.79236 0.0
C507 C 0.77818 0.18058 0.8306 0.0
C508 C 0.80364 0.22772 0.83641 0.0
C509 C 0.79476 0.20482 0.8475 0.0
N510 N 0.80292 0.24801 0.79726 0.0
C511 C 0.8228 0.27056 0.81081 0.0
C512 C 0.82215 0.25168 0.8515 0.0
C513 C 0.83217 0.27303 0.8384 0.0
Gd514 Gd 0.72316 0.27126 0.76031 0.0
Gd515 Gd 0.78343 0.24313 0.75223 0.0
N516 N 0.77046 0.2022 0.76572 0.0
C517 C 0.75536 0.15514 0.78431 0.0
C518 C 0.75712 0.17863 0.74719 0.0
C519 C 0.74908 0.15479 0.7563 0.0
H520 H 0.75197 0.17849 0.72565 0.0
H521 H 0.73789 0.13623 0.74182 0.0
H522 H 0.7329 0.31272 0.82536 0.0
H523 H 0.83139 0.28681 0.80044 0.0
H524 H 0.74954 0.36108 0.84565 0.0
H525 H 0.74896 0.1367 0.7914 0.0
H526 H 0.77203 0.16291 0.83911 0.0
H527 H 0.69944 0.26255 0.69449 0.0
H528 H 0.82961 0.25353 0.87276 0.0
H529 H 0.84727 0.29131 0.8494 0.0
H530 H 0.75663 0.39929 0.76442 0.0
H531 H 0.80127 0.20546 0.86875 0.0
H532 H 0.72048 0.33921 0.67492 0.0
H533 H 0.69937 0.29018 0.66037 0.0
N534 N 0.72085 0.29575 0.72725 0.0
C535 C 0.73079 0.3226 0.73633 0.0
C536 C 0.70843 0.28398 0.70086 0.0
C537 C 0.72047 0.32721 0.68987 0.0
C538 C 0.70845 0.29953 0.6816 0.0
C539 C 0.73132 0.33912 0.71773 0.0
H540 H 0.74255 0.37993 0.71381 0.0
N541 N 0.73544 0.31668 0.78249 0.0
C542 C 0.73863 0.33342 0.76482 0.0
C543 C 0.75225 0.37123 0.80485 0.0
C544 C 0.74734 0.36119 0.77548 0.0
C545 C 0.73783 0.32622 0.81126 0.0
C546 C 0.74693 0.35362 0.82285 0.0
O547 O 0.74213 0.22121 0.76298 0.0
O548 O 0.73025 0.25175 0.79394 0.0
O549 O 0.68886 0.28108 0.77227 0.0
O550 O 0.68456 0.24 0.75622 0.0
O551 O 0.75787 0.2329 0.71236 0.0
O552 O 0.71694 0.23385 0.72607 0.0
O553 O 0.75047 0.2797 0.72475 0.0
O554 O 0.79059 0.28322 0.74284 0.0
O555 O 0.79359 0.22111 0.714 0.0
O556 O 0.82435 0.2478 0.74539 0.0
O557 O 0.75208 0.28207 0.79794 0.0
O558 O 0.79121 0.28524 0.77747 0.0
C559 C 0.73299 0.22863 0.78729 0.0
C560 C 0.73251 0.22667 0.70747 0.0
C561 C 0.65566 0.24882 0.79085 0.0
C562 C 0.63875 0.26101 0.83696 0.0
C563 C 0.61824 0.21667 0.80684 0.0
C564 C 0.63616 0.22338 0.78628 0.0
C565 C 0.61925 0.23541 0.83187 0.0
C566 C 0.65723 0.26728 0.81652 0.0
C567 C 0.67319 0.25639 0.76809 0.0
C568 C 0.74964 0.37789 0.75668 0.0
C569 C 0.74161 0.36686 0.72786 0.0
H570 H 0.75896 0.39244 0.81387 0.0
C571 C 0.77623 0.28842 0.72513 0.0
C572 C 0.77777 0.2928 0.79832 0.0
C573 C 0.8343 0.24093 0.6965 0.0
C574 C 0.84721 0.22819 0.6483 0.0
C575 C 0.86572 0.27415 0.67541 0.0
C576 C 0.85098 0.26733 0.69835 0.0
C577 C 0.86412 0.25475 0.65067 0.0
C578 C 0.83208 0.22177 0.67134 0.0
C579 C 0.81868 0.23229 0.72008 0.0
H580 H 0.60313 0.19706 0.80307 0.0
H581 H 0.63455 0.20882 0.76663 0.0
H582 H 0.60446 0.23 0.84691 0.0
H583 H 0.67265 0.28673 0.82045 0.0
H584 H 0.87867 0.29451 0.6769 0.0
H585 H 0.85267 0.28258 0.71739 0.0
H586 H 0.8764 0.26057 0.63367 0.0
H587 H 0.81832 0.20171 0.66986 0.0
C588 C 0.81787 0.79268 0.82084 0.0
C589 C 0.79099 0.79999 0.86029 0.0
C590 C 0.7942 0.78462 0.83398 0.0
C591 C 0.81096 0.82429 0.87227 0.0
C592 C 0.83859 0.81622 0.83401 0.0
C593 C 0.83467 0.83238 0.85917 0.0
N594 N 0.82154 0.77643 0.79681 0.0
C595 C 0.84615 0.78078 0.78719 0.0
C596 C 0.86313 0.82217 0.82234 0.0
C597 C 0.86707 0.80407 0.79923 0.0
Gd598 Gd 0.74119 0.73662 0.70258 0.0
Gd599 Gd 0.78419 0.73883 0.77834 0.0
N600 N 0.77517 0.76081 0.8223 0.0
C601 C 0.76817 0.79004 0.87437 0.0
C602 C 0.75388 0.75006 0.83701 0.0
C603 C 0.74974 0.76481 0.86288 0.0
H604 H 0.7397 0.73049 0.82818 0.0
H605 H 0.73241 0.7567 0.87401 0.0
H606 H 0.78582 0.77968 0.67224 0.0
H607 H 0.84949 0.7665 0.76974 0.0
H608 H 0.80873 0.77902 0.62743 0.0
H609 H 0.765 0.80132 0.89456 0.0
H610 H 0.80865 0.83652 0.89225 0.0
H611 H 0.70538 0.67001 0.70252 0.0
H612 H 0.87949 0.84005 0.83186 0.0
H613 H 0.88628 0.80791 0.79088 0.0
H614 H 0.77298 0.68789 0.57655 0.0
H615 H 0.85027 0.85069 0.8693 0.0
H616 H 0.71378 0.62444 0.6224 0.0
H617 H 0.69526 0.62735 0.6694 0.0
N618 N 0.73095 0.69261 0.67562 0.0
C619 C 0.74169 0.69129 0.64978 0.0
C620 C 0.71444 0.66987 0.68264 0.0
C621 C 0.71877 0.64363 0.63711 0.0
C622 C 0.70834 0.6452 0.66364 0.0
C623 C 0.73563 0.66676 0.62987 0.0
H624 H 0.74117 0.64738 0.58753 0.0
N625 N 0.76541 0.73799 0.66262 0.0
C626 C 0.7592 0.7145 0.6431 0.0
C627 C 0.7892 0.73688 0.61143 0.0
C628 C 0.77103 0.7134 0.61688 0.0
C629 C 0.78238 0.76106 0.65713 0.0
C630 C 0.79492 0.76079 0.63166 0.0
O631 O 0.75459 0.76055 0.78632 0.0
O632 O 0.73175 0.75935 0.74455 0.0
O633 O 0.73623 0.76879 0.68666 0.0
O634 O 0.70704 0.72924 0.67548 0.0
O635 O 0.75077 0.71891 0.74699 0.0
O636 O 0.71264 0.71218 0.72923 0.0
O637 O 0.77821 0.72497 0.69825 0.0
O638 O 0.77896 0.70723 0.73716 0.0
O639 O 0.77416 0.70911 0.80383 0.0
O640 O 0.81183 0.72036 0.78531 0.0
O641 O 0.77298 0.77132 0.73122 0.0
O642 O 0.80719 0.76249 0.748 0.0
C643 C 0.73744 0.76666 0.77253 0.0
C644 C 0.72564 0.70835 0.7489 0.0
C645 C 0.69185 0.76476 0.68106 0.0
C646 C 0.66613 0.7904 0.67062 0.0
C647 C 0.6539 0.76564 0.70772 0.0
C648 C 0.67473 0.75669 0.70205 0.0
C649 C 0.64947 0.78218 0.692 0.0
C650 C 0.68772 0.78197 0.66555 0.0
C651 C 0.71306 0.75405 0.67455 0.0
C652 C 0.7644 0.68906 0.59697 0.0
C653 C 0.74651 0.66593 0.60332 0.0
H654 H 0.79878 0.73678 0.59159 0.0
C655 C 0.78678 0.71074 0.71177 0.0
C656 C 0.79802 0.77466 0.73267 0.0
C657 C 0.81073 0.70869 0.8292 0.0
C658 C 0.83455 0.69123 0.85705 0.0
C659 C 0.82879 0.73312 0.87694 0.0
C660 C 0.815 0.73077 0.85192 0.0
C661 C 0.83843 0.71343 0.87959 0.0
C662 C 0.82082 0.68903 0.83172 0.0
C663 C 0.79717 0.70684 0.80233 0.0
H664 H 0.64091 0.75941 0.72406 0.0
H665 H 0.67725 0.74305 0.71375 0.0
H666 H 0.63297 0.78863 0.69662 0.0
H667 H 0.70067 0.78803 0.64907 0.0
H668 H 0.83194 0.75021 0.89436 0.0
H669 H 0.80776 0.74625 0.85036 0.0
H670 H 0.84909 0.7156 0.89919 0.0
H671 H 0.81791 0.67208 0.81412 0.0
Cd672 Cd 0.97393 0.99433 0.54156 0.0
Cd673 Cd 0.03117 0.031 0.47473 0.0
C674 C 0.02246 0.99043 0.57402 0.0
N675 N 1.00598 0.97777 0.55038 0.0
C676 C 0.02283 0.94251 0.54152 0.0
C677 C 0.0398 0.95494 0.56609 0.0
C678 C 0.03974 0.97939 0.58221 0.0
C679 C 1.00591 0.95431 0.53407 0.0
H680 H 0.02165 0.00872 0.58698 0.0
H681 H 0.99218 0.94437 0.51575 0.0
C682 C 0.98923 0.97524 0.47012 0.0
C683 C 0.98143 0.03628 0.44623 0.0
C684 C 0.96621 0.04908 0.43714 0.0
C685 C 0.96965 0.07547 0.45098 0.0
C686 C 0.98773 0.08758 0.47483 0.0
C687 C 1.00283 0.07417 0.48291 0.0
N688 N 0.99966 0.04914 0.46834 0.0
H689 H 0.97985 0.01666 0.43449 0.0
H690 H 0.01786 0.08414 0.50008 0.0
C691 C 0.07544 0.00706 0.46694 0.0
N692 N 0.06177 0.01485 0.48863 0.0
C693 C 0.08131 0.9979 0.52002 0.0
C694 C 0.09504 0.98884 0.49765 0.0
C695 C 0.09223 0.99403 0.47097 0.0
C696 C 0.06461 0.01094 0.515 0.0
H697 H 0.07247 0.01006 0.4461 0.0
H698 H 0.05342 0.01721 0.53188 0.0
C699 C 0.01877 0.05084 0.54935 0.0
C700 C 0.93842 0.96144 0.57269 0.0
N701 N 0.94346 0.00613 0.52013 0.0
C702 C 0.95212 0.03089 0.51507 0.0
C703 C 0.9345 0.04115 0.50642 0.0
C704 C 0.90754 0.02591 0.50326 0.0
C705 C 0.89913 0.99996 0.50762 0.0
C706 C 0.9176 0.99037 0.5161 0.0
C707 C 0.06127 0.05837 0.43598 0.0
O708 O 0.99042 0.9899 0.49455 0.0
O709 O 1.00454 0.98532 0.45231 0.0
O710 O 0.01786 0.03863 0.52368 0.0
O711 O 1.00176 0.03959 0.56533 0.0
O712 O 0.94331 0.95218 0.54759 0.0
O713 O 0.94951 0.98631 0.58286 0.0
O714 O 0.06612 0.06858 0.46256 0.0
O715 O 0.04331 0.03561 0.4284 0.0
H716 H 0.97254 0.04327 0.51932 0.0
H717 H 0.91113 0.97088 0.52076 0.0
H718 H 0.02249 0.92377 0.52837 0.0
H719 H 0.05231 0.98942 0.60145 0.0
H720 H 0.95315 0.03878 0.41834 0.0
H721 H 0.99096 0.10755 0.4867 0.0
H722 H 0.08302 0.99441 0.54093 0.0
H723 H 0.10184 0.98689 0.45289 0.0
H724 H 0.94176 0.06157 0.50431 0.0
H725 H 0.87848 0.98769 0.50562 0.0
Cd726 Cd 0.48184 0.98429 0.03489 0.0
Cd727 Cd 0.54214 0.99518 0.94991 0.0
C728 C 0.51354 0.97075 0.08359 0.0
N729 N 0.51167 0.97 0.05538 0.0
C730 C 0.54347 0.94895 0.04642 0.0
C731 C 0.54551 0.94884 0.07534 0.0
C732 C 0.5304 0.96023 0.09407 0.0
C733 C 0.52631 0.9595 0.03689 0.0
H734 H 0.5016 0.97907 0.09791 0.0
H735 H 0.52444 0.95903 0.01455 0.0
C736 C 0.48254 0.95615 0.95925 0.0
C737 C 0.49834 0.00361 0.91036 0.0
C738 C 0.4828 0.01673 0.90239 0.0
C739 C 0.48399 0.04145 0.91929 0.0
C740 C 0.50102 0.05223 0.94396 0.0
C741 C 0.51605 0.03841 0.95116 0.0
N742 N 0.51447 0.01459 0.93447 0.0
H743 H 0.49756 0.98471 0.8973 0.0
H744 H 0.52927 0.04684 0.97003 0.0
C745 C 0.5589 0.95146 0.90418 0.0
N746 N 0.56036 0.96119 0.93278 0.0
C747 C 0.58864 0.93766 0.93933 0.0
C748 C 0.58802 0.92772 0.90975 0.0
C749 C 0.57247 0.93469 0.89226 0.0
C750 C 0.57474 0.95443 0.95039 0.0
H751 H 0.5479 0.95751 0.89044 0.0
H752 H 0.57609 0.96267 0.97302 0.0
C753 C 0.5401 0.02534 0.0246 0.0
C754 C 0.43907 0.94544 0.05275 0.0
N755 N 0.46163 0.01735 0.04782 0.0
C756 C 0.47459 0.04155 0.06536 0.0
C757 C 0.46124 0.05876 0.07667 0.0
C758 C 0.43406 0.05103 0.07037 0.0
C759 C 0.42139 0.02616 0.05167 0.0
C760 C 0.43552 0.00967 0.04066 0.0
C761 C 0.58331 0.03409 0.93049 0.0
O762 O 0.48942 0.9715 0.98379 0.0
O763 O 0.49908 0.9588 0.94011 0.0
O764 O 0.53473 0.00864 0.00079 0.0
O765 O 0.52374 0.02157 0.04379 0.0
O766 O 0.4453 0.94157 0.02707 0.0
O767 O 0.45295 0.96702 0.06963 0.0
O768 O 0.58524 0.03083 0.95553 0.0
O769 O 0.56269 0.01899 0.91499 0.0
H770 H 0.49511 0.04717 0.07163 0.0
H771 H 0.42535 0.99021 0.02719 0.0
H772 H 0.55501 0.94095 0.03118 0.0
H773 H 0.53105 0.96042 0.11647 0.0
H774 H 0.46983 0.00748 0.88335 0.0
H775 H 0.50311 0.07141 0.95739 0.0
H776 H 0.59996 0.93276 0.9539 0.0
H777 H 0.57153 0.9281 0.86938 0.0
H778 H 0.47195 0.07747 0.09122 0.0
H779 H 0.40059 0.01929 0.04582 0.0
Cd780 Cd 0.99016 0.49998 0.04546 0.0
Cd781 Cd 0.04597 0.50034 0.95711 0.0
C782 C 0.03168 0.49217 0.08868 0.0
N783 N 0.01198 0.47876 0.06803 0.0
C784 C 0.01707 0.4376 0.06903 0.0
C785 C 0.03812 0.45107 0.08953 0.0
C786 C 0.04532 0.47868 0.09941 0.0
C787 C 1.0044 0.45194 0.05832 0.0
H788 H 0.03713 0.51337 0.09658 0.0
H789 H 0.98869 0.44171 0.04191 0.0
C790 C 0.98738 0.46678 0.97167 0.0
C791 C 1.00147 0.50592 0.91657 0.0
C792 C 0.98442 0.51716 0.90802 0.0
C793 C 0.98153 0.53958 0.92607 0.0
C794 C 0.99554 0.54969 0.95271 0.0
C795 C 0.01223 0.53778 0.96043 0.0
N796 N 0.01502 0.51642 0.94237 0.0
H797 H 1.00421 0.48906 0.90247 0.0
H798 H 0.02331 0.54581 0.98076 0.0
C799 C 0.05462 0.44725 0.91951 0.0
N800 N 0.0645 0.46639 0.94371 0.0
C801 C 0.10029 0.45121 0.94723 0.0
C802 C 0.09104 0.43171 0.92175 0.0
C803 C 0.06751 0.42967 0.90823 0.0
C804 C 0.08678 0.46843 0.95777 0.0
H805 H 0.03716 0.4462 0.90836 0.0
H806 H 0.09469 0.48414 0.9766 0.0
C807 C 0.05266 0.53161 0.03367 0.0
C808 C 0.94261 0.4664 0.06135 0.0
N809 N 0.97611 0.53711 0.05887 0.0
C810 C 0.98459 0.55361 0.08495 0.0
C811 C 0.97241 0.57167 0.09684 0.0
C812 C 0.95106 0.57283 0.08197 0.0
C813 C 0.94352 0.55631 0.05451 0.0
C814 C 0.9562 0.53843 0.04344 0.0
C815 C 0.08163 0.53673 0.92944 0.0
O816 O 0.99655 0.48415 0.99466 0.0
O817 O 1.00239 0.46585 0.95131 0.0
O818 O 0.04494 0.51814 0.0085 0.0
O819 O 0.0361 0.53081 0.05267 0.0
O820 O 0.94878 0.46305 0.03567 0.0
O821 O 0.95888 0.48526 0.07953 0.0
O822 O 0.0847 0.53969 0.95619 0.0
O823 O 0.06284 0.51645 0.91612 0.0
H824 H 0.99998 0.55182 0.09719 0.0
H825 H 0.94919 0.52462 0.02314 0.0
H826 H 0.01095 0.41632 0.06076 0.0
H827 H 0.06131 0.48964 0.11534 0.0
H828 H 0.97419 0.50884 0.88721 0.0
H829 H 0.99365 0.56669 0.96746 0.0
H830 H 0.11843 0.45396 0.95835 0.0
H831 H 0.05926 0.41484 0.8888 0.0
H832 H 0.97931 0.58417 0.11784 0.0
H833 H 0.92706 0.55612 0.04224 0.0
Cd834 Cd 0.47892 0.48413 0.03442 0.0
Cd835 Cd 0.53265 0.52972 0.96896 0.0
C836 C 0.52599 0.46502 0.04206 0.0
N837 N 0.50158 0.45482 0.02886 0.0
C838 C 0.50005 0.41043 0.02562 0.0
C839 C 0.5245 0.42047 0.041 0.0
C840 C 0.53796 0.44814 0.04819 0.0
C841 C 0.48877 0.4281 0.01988 0.0
H842 H 0.53538 0.48631 0.04966 0.0
H843 H 0.469 0.42046 0.01027 0.0
C844 C 0.48732 0.47577 0.96077 0.0
C845 C 0.48251 0.54008 0.94717 0.0
C846 C 0.46656 0.55422 0.94353 0.0
C847 C 0.47088 0.57925 0.96154 0.0
C848 C 0.49041 0.58882 0.98384 0.0
C849 C 0.50575 0.57385 0.98691 0.0
N850 N 0.50185 0.5502 0.96838 0.0
H851 H 0.48013 0.52152 0.93234 0.0
H852 H 0.52154 0.58163 0.00331 0.0
C853 C 0.55456 0.48312 0.95496 0.0
N854 N 0.55596 0.50369 0.97703 0.0
C855 C 0.58134 0.49003 0.00595 0.0
C856 C 0.57897 0.46801 0.98384 0.0
C857 C 0.56577 0.4648 0.95802 0.0
C858 C 0.56945 0.50781 0.00207 0.0
H859 H 0.5443 0.48066 0.93507 0.0
H860 H 0.5706 0.52455 0.01917 0.0
C861 C 0.52656 0.54031 0.04564 0.0
C862 C 0.45144 0.45701 0.0745 0.0
N863 N 0.44639 0.49976 0.02443 0.0
C864 C 0.43189 0.50383 0.04687 0.0
C865 C 0.41484 0.51732 0.04614 0.0
C866 C 0.41276 0.52702 0.02212 0.0
C867 C 0.42699 0.52142 0.99862 0.0
C868 C 0.44383 0.50764 0.00023 0.0
C869 C 0.57036 0.56267 0.93927 0.0
O870 O 0.4931 0.48703 0.98682 0.0
O871 O 0.50064 0.48779 0.9428 0.0
O872 O 0.52392 0.53201 0.01891 0.0
O873 O 0.51081 0.52613 0.06047 0.0
O874 O 0.44384 0.44853 0.04821 0.0
O875 O 0.4711 0.47863 0.08178 0.0
O876 O 0.57073 0.56901 0.96624 0.0
O877 O 0.55284 0.54093 0.92666 0.0
H878 H 0.4347 0.49795 0.06607 0.0
H879 H 0.45565 0.50444 0.9827 0.0
H880 H 0.48897 0.38925 0.01982 0.0
H881 H 0.55707 0.45671 0.05956 0.0
H882 H 0.45188 0.54627 0.9259 0.0
H883 H 0.49424 0.60798 0.99824 0.0
H884 H 0.59151 0.49294 0.0261 0.0
H885 H 0.56388 0.44806 0.9405 0.0
H886 H 0.40488 0.52177 0.0651 0.0
H887 H 0.42595 0.52859 0.97974 0.0
Cd888 Cd 0.98391 0.48507 0.53252 0.0
Cd889 Cd 0.04307 0.49417 0.44558 0.0
C890 C 0.0211 0.47445 0.57683 0.0
N891 N 0.01228 0.46719 0.54905 0.0
C892 C 0.03473 0.43642 0.53896 0.0
C893 C 0.04364 0.443 0.56766 0.0
C894 C 0.03681 0.46248 0.58665 0.0
C895 C 0.01891 0.44874 0.5301 0.0
H896 H 0.01562 0.48927 0.59143 0.0
H897 H 0.01155 0.44329 0.50814 0.0
C898 C 0.98206 0.45858 0.45602 0.0
C899 C 0.01334 0.51096 0.39839 0.0
C900 C 0.99849 0.5237 0.38832 0.0
C901 C 0.98464 0.53642 0.40729 0.0
C902 C 0.98581 0.53565 0.43603 0.0
C903 C 1.00136 0.52323 0.4453 0.0
N904 N 0.0149 0.51137 0.42656 0.0
H905 H 0.02407 0.50127 0.3838 0.0
H906 H 1.00303 0.52347 0.46761 0.0
C907 C 0.05395 0.44398 0.40328 0.0
N908 N 0.06091 0.45964 0.43 0.0
C909 C 0.09444 0.44172 0.43499 0.0
C910 C 0.08825 0.4258 0.40711 0.0
C911 C 0.06726 0.42687 0.39149 0.0
C912 C 0.08061 0.45855 0.44597 0.0
H913 H 0.03872 0.44556 0.39059 0.0
H914 H 0.08626 0.47146 0.46694 0.0
C915 C 0.04462 0.52075 0.52223 0.0
C916 C 0.94258 0.44644 0.55279 0.0
N917 N 0.96797 0.52062 0.55041 0.0
C918 C 0.97086 0.53056 0.57903 0.0
C919 C 0.95848 0.54813 0.59196 0.0
C920 C 0.9427 0.55573 0.57548 0.0
C921 C 0.94077 0.54577 0.5458 0.0
C922 C 0.95345 0.52811 0.53371 0.0
C923 C 0.08531 0.53468 0.42925 0.0
O924 O 0.98989 0.47219 0.48114 0.0
O925 O 0.99806 0.46148 0.43639 0.0
O926 O 0.03684 0.507 0.49712 0.0
O927 O 0.02856 0.51806 0.54179 0.0
O928 O 0.94133 0.44784 0.52694 0.0
O929 O 0.96244 0.46314 0.56839 0.0
O930 O 0.08197 0.53477 0.45538 0.0
O931 O 0.06967 0.51517 0.41121 0.0
H932 H 0.98213 0.5241 0.59203 0.0
H933 H 0.95087 0.51962 0.51108 0.0
H934 H 0.03931 0.42135 0.52365 0.0
H935 H 0.04352 0.46839 0.60888 0.0
H936 H 0.99792 0.52372 0.36595 0.0
H937 H 0.97556 0.54539 0.45135 0.0
H938 H 0.11011 0.44151 0.4482 0.0
H939 H 0.0618 0.41544 0.36984 0.0
H940 H 0.96104 0.55543 0.6148 0.0
H941 H 0.9287 0.55068 0.53208 0.0
Cd942 Cd 0.49753 0.00363 0.54386 0.0
Cd943 Cd 0.54561 0.004 0.45438 0.0
C944 C 0.54005 0.9932 0.58258 0.0
N945 N 0.52539 0.98369 0.55745 0.0
C946 C 0.54067 0.94735 0.54555 0.0
C947 C 0.55583 0.95643 0.57146 0.0
C948 C 0.55561 0.97988 0.58997 0.0
C949 C 0.52557 0.96134 0.53896 0.0
H950 H 0.53944 0.01095 0.59699 0.0
H951 H 0.51369 0.95419 0.51916 0.0
C952 C 0.48776 0.97172 0.46974 0.0
C953 C 0.5079 0.01688 0.41235 0.0
C954 C 0.49352 0.03067 0.4035 0.0
C955 C 0.48901 0.05138 0.42307 0.0
C956 C 0.49881 0.05726 0.45139 0.0
C957 C 0.51319 0.04309 0.45927 0.0
N958 N 0.51762 0.02348 0.43977 0.0
H959 H 0.5118 0.00129 0.39721 0.0
H960 H 0.5214 0.04819 0.48085 0.0
C961 C 0.55055 0.94608 0.42493 0.0
N962 N 0.56313 0.9693 0.44412 0.0
C963 C 0.6015 0.95771 0.44533 0.0
C964 C 0.58942 0.93392 0.42478 0.0
C965 C 0.56329 0.92803 0.41509 0.0
C966 C 0.58802 0.97514 0.45463 0.0
H967 H 0.53096 0.942 0.41637 0.0
H968 H 0.59791 0.99398 0.46933 0.0
C969 C 0.55607 0.0378 0.52971 0.0
C970 C 0.45741 0.96926 0.56948 0.0
N971 N 0.47854 0.03727 0.55619 0.0
C972 C 0.49154 0.06265 0.57111 0.0
C973 C 0.47761 0.07944 0.58205 0.0
C974 C 0.45 0.06995 0.57795 0.0
C975 C 0.43743 0.044 0.56154 0.0
C976 C 0.45201 0.02802 0.55103 0.0
C977 C 0.5845 0.03741 0.42651 0.0
O978 O 0.49934 0.98812 0.49243 0.0
O979 O 0.50084 0.9705 0.44773 0.0
O980 O 0.54592 0.02226 0.50601 0.0
O981 O 0.54204 0.03715 0.55109 0.0
O982 O 0.45711 0.9659 0.54256 0.0
O983 O 0.47661 0.98827 0.58402 0.0
O984 O 0.58553 0.04145 0.45346 0.0
O985 O 0.56593 0.01713 0.41277 0.0
H986 H 0.51254 0.06955 0.57562 0.0
H987 H 0.44188 0.00769 0.53977 0.0
H988 H 0.54048 0.92958 0.53048 0.0
H989 H 0.56679 0.98745 0.61027 0.0
H990 H 0.48612 0.02525 0.38153 0.0
H991 H 0.49616 0.07326 0.46715 0.0
H992 H 0.62165 0.96353 0.45323 0.0
H993 H 0.55287 0.90987 0.39961 0.0
H994 H 0.48826 0.09918 0.59472 0.0
H995 H 0.41632 0.0358 0.5573 0.0
H996 H 0.17322 0.19391 0.25102 0.0
H997 H 0.13902 0.16504 0.27451 0.0
H998 H 0.19245 0.12786 0.29276 0.0
H999 H 0.22516 0.15374 0.26543 0.0
H1000 H 0.14862 0.09449 0.29015 0.0
H1001 H 0.18233 0.1892 0.3384 0.0
H1002 H 0.18982 0.23662 0.34151 0.0
H1003 H 0.10668 0.21753 0.33049 0.0
H1004 H 0.09897 0.1701 0.32701 0.0
H1005 H 0.10449 0.10437 0.44387 0.0
H1006 H 0.12808 0.12579 0.40686 0.0
H1007 H 0.0726 0.06514 0.34267 0.0
H1008 H 0.04939 0.04346 0.37915 0.0
H1009 H 0.11344 0.14653 0.36674 0.0
H1010 H 0.10496 0.04996 0.28509 0.0
H1011 H 0.10049 0.00375 0.28426 0.0
H1012 H 0.13905 0.02901 0.36772 0.0
H1013 H 0.14406 0.07537 0.36887 0.0
C1014 C 0.17737 0.17888 0.25909 0.0
C1015 C 0.20236 0.17688 0.25752 0.0
C1016 C 0.1579 0.1627 0.27302 0.0
C1017 C 0.16359 0.14535 0.28692 0.0
C1018 C 0.18763 0.14151 0.28284 0.0
C1019 C 0.20655 0.15665 0.26758 0.0
C1020 C 0.14583 0.13283 0.30756 0.0
C1021 C 0.1409 0.10594 0.30678 0.0
C1022 C 0.13561 0.14763 0.32943 0.0
C1023 C 0.14021 0.1762 0.33219 0.0
C1024 C 0.16579 0.19525 0.33664 0.0
C1025 C 0.17004 0.22206 0.33842 0.0
C1026 C 0.14872 0.23003 0.33612 0.0
C1027 C 0.12317 0.21128 0.3322 0.0
C1028 C 0.11887 0.18446 0.33033 0.0
C1029 C 0.09738 0.09567 0.42186 0.0
C1030 C 0.07535 0.0721 0.41435 0.0
C1031 C 0.11075 0.10795 0.40081 0.0
C1032 C 0.10221 0.0968 0.37208 0.0
C1033 C 0.07973 0.07377 0.36469 0.0
C1034 C 0.06653 0.06143 0.3856 0.0
C1035 C 0.1172 0.10871 0.34965 0.0
C1036 C 0.12122 0.13524 0.34998 0.0
C1037 C 0.12715 0.09384 0.32781 0.0
C1038 C 0.12461 0.06607 0.32716 0.0
C1039 C 0.11256 0.04564 0.30321 0.0
C1040 C 0.10993 0.01943 0.30269 0.0
C1041 C 0.1194 0.01343 0.32596 0.0
C1042 C 0.13163 0.03366 0.34975 0.0
C1043 C 0.13435 0.0599 0.35036 0.0
H1044 H 0.11731 0.99312 0.32553 0.0
H1045 H 0.15192 0.25071 0.33738 0.0
H1046 H 0.94112 0.22727 0.30368 0.0
H1047 H 0.95033 0.2019 0.33497 0.0
H1048 H 0.86746 0.15733 0.33468 0.0
H1049 H 0.85807 0.18236 0.30304 0.0
H1050 H 0.89134 0.17225 0.38777 0.0
H1051 H 0.90572 0.12996 0.29433 0.0
H1052 H 0.9249 0.12808 0.24768 0.0
H1053 H 1.0023 0.15735 0.28851 0.0
H1054 H 0.9836 0.15977 0.33545 0.0
H1055 H 0.92221 0.05666 0.41904 0.0
H1056 H 0.90461 0.08108 0.39382 0.0
H1057 H 0.96805 0.1538 0.43067 0.0
H1058 H 0.98693 0.12971 0.45472 0.0
H1059 H 0.95064 0.12207 0.35897 0.0
H1060 H 0.91587 0.18996 0.44322 0.0
H1061 H 0.89045 0.19125 0.48596 0.0
H1062 H 0.84879 0.10703 0.45973 0.0
H1063 H 0.87399 0.10525 0.41693 0.0
C1064 C 0.92484 0.21195 0.31011 0.0
C1065 C 0.89886 0.20675 0.30069 0.0
C1066 C 0.93014 0.19752 0.32806 0.0
C1067 C 0.9096 0.17752 0.33688 0.0
C1068 C 0.88361 0.17269 0.32813 0.0
C1069 C 0.87828 0.1871 0.31013 0.0
C1070 C 0.91529 0.16144 0.35499 0.0
C1071 C 0.90426 0.16123 0.38141 0.0
C1072 C 0.93198 0.14687 0.34662 0.0
C1073 C 0.94327 0.14527 0.31841 0.0
C1074 C 0.92684 0.13618 0.29337 0.0
C1075 C 0.93763 0.13499 0.26687 0.0
C1076 C 0.9648 0.14265 0.26513 0.0
C1077 C 0.98125 0.15145 0.28989 0.0
C1078 C 0.97057 0.15272 0.31645 0.0
C1079 C 0.9326 0.07784 0.42203 0.0
C1080 C 0.95635 0.09088 0.43904 0.0
C1081 C 0.92215 0.09183 0.40784 0.0
C1082 C 0.93487 0.11924 0.41071 0.0
C1083 C 0.95772 0.13267 0.42861 0.0
C1084 C 0.96842 0.1187 0.44253 0.0
C1085 C 0.92681 0.13309 0.39175 0.0
C1086 C 0.93769 0.13308 0.36523 0.0
C1087 C 0.90977 0.14717 0.39987 0.0
C1088 C 0.89706 0.14743 0.42714 0.0
C1089 C 0.90157 0.17167 0.44684 0.0
C1090 C 0.88713 0.17251 0.47098 0.0
C1091 C 0.86798 0.14926 0.47545 0.0
C1092 C 0.86369 0.12501 0.45624 0.0
C1093 C 0.8782 0.12403 0.43215 0.0
H1094 H 0.85628 0.15012 0.49364 0.0
H1095 H 0.97311 0.14171 0.2446 0.0
H1096 H 0.85621 0.79562 0.28965 0.0
H1097 H 0.88264 0.81796 0.33451 0.0
H1098 H 0.81383 0.8251 0.37568 0.0
H1099 H 0.78777 0.80334 0.33061 0.0
H1100 H 0.85186 0.87125 0.3842 0.0
H1101 H 0.84452 0.78697 0.39637 0.0
H1102 H 0.84472 0.74134 0.38599 0.0
H1103 H 0.92658 0.77058 0.37044 0.0
H1104 H 0.92689 0.81643 0.38041 0.0
H1105 H 0.94399 0.95363 0.49491 0.0
H1106 H 0.90831 0.91134 0.47582 0.0
H1107 H 0.95548 0.8936 0.40725 0.0
H1108 H 0.99113 0.93566 0.42646 0.0
H1109 H 0.92073 0.84749 0.42473 0.0
H1110 H 0.92108 0.92906 0.39848 0.0
H1111 H 0.92208 0.97517 0.41236 0.0
H1112 H 0.8518 0.94929 0.45645 0.0
H1113 H 0.85066 0.90306 0.44319 0.0
C1114 C 0.84671 0.80129 0.30856 0.0
C1115 C 0.81987 0.797 0.30718 0.0
C1116 C 0.86171 0.8139 0.33416 0.0
C1117 C 0.85007 0.82269 0.35862 0.0
C1118 C 0.8231 0.81807 0.35722 0.0
C1119 C 0.80816 0.80546 0.33157 0.0
C1120 C 0.86687 0.83997 0.3842 0.0
C1121 C 0.86634 0.86569 0.39366 0.0
C1122 C 0.88593 0.83286 0.3964 0.0
C1123 C 0.88572 0.80521 0.38919 0.0
C1124 C 0.86253 0.78369 0.39047 0.0
C1125 C 0.86257 0.75779 0.38475 0.0
C1126 C 0.88569 0.75313 0.37776 0.0
C1127 C 0.90873 0.77428 0.37604 0.0
C1128 C 0.90882 0.80025 0.38179 0.0
C1129 C 0.94698 0.94027 0.47638 0.0
C1130 C 0.96997 0.94801 0.46188 0.0
C1131 C 0.92668 0.91613 0.46553 0.0
C1132 C 0.92927 0.89957 0.44002 0.0
C1133 C 0.95319 0.90614 0.42702 0.0
C1134 C 0.97338 0.93029 0.43779 0.0
C1135 C 0.90599 0.87859 0.42374 0.0
C1136 C 0.90548 0.85244 0.41592 0.0
C1137 C 0.88583 0.88516 0.41307 0.0
C1138 C 0.88589 0.9127 0.42004 0.0
C1139 C 0.90587 0.93324 0.41118 0.0
C1140 C 0.90648 0.95938 0.41895 0.0
C1141 C 0.88701 0.96515 0.43528 0.0
C1142 C 0.86686 0.94477 0.4438 0.0
C1143 C 0.86622 0.91861 0.43617 0.0
H1144 H 0.88753 0.9854 0.4413 0.0
H1145 H 0.88579 0.73314 0.37385 0.0
H1146 H 0.17023 0.84775 0.35252 0.0
H1147 H 0.16912 0.87653 0.39799 0.0
H1148 H 0.12742 0.80809 0.43162 0.0
H1149 H 0.12951 0.7788 0.38639 0.0
H1150 H 0.10204 0.84437 0.43584 0.0
H1151 H 0.18517 0.84594 0.46286 0.0
H1152 H 0.23083 0.84832 0.45684 0.0
H1153 H 0.2528 0.92771 0.44447 0.0
H1154 H 0.20721 0.92578 0.45019 0.0
H1155 H 0.08126 0.94835 0.52526 0.0
H1156 H 0.09972 0.91355 0.52075 0.0
H1157 H 0.15815 0.95296 0.46796 0.0
H1158 H 0.14182 0.98941 0.47564 0.0
H1159 H 0.17573 0.92223 0.48955 0.0
H1160 H 0.09148 0.90996 0.44033 0.0
H1161 H 0.04612 0.90961 0.44275 0.0
H1162 H 0.02719 0.8514 0.49349 0.0
H1163 H 0.07252 0.85159 0.49148 0.0
C1164 C 0.1616 0.8386 0.36973 0.0
C1165 C 0.14993 0.81077 0.36553 0.0
C1166 C 0.16097 0.85519 0.39582 0.0
C1167 C 0.14845 0.84444 0.41828 0.0
C1168 C 0.13734 0.81675 0.41458 0.0
C1169 C 0.13831 0.80006 0.38855 0.0
C1170 C 0.14402 0.86245 0.44384 0.0
C1171 C 0.11812 0.8609 0.44833 0.0
C1172 C 0.16503 0.88411 0.45991 0.0
C1173 C 0.19268 0.88569 0.45698 0.0
C1174 C 0.1997 0.8639 0.4588 0.0
C1175 C 0.22559 0.86517 0.45545 0.0
C1176 C 0.24471 0.88815 0.45028 0.0
C1177 C 0.23798 0.90995 0.44856 0.0
C1178 C 0.21211 0.90881 0.45195 0.0
C1179 C 0.09912 0.95053 0.51443 0.0
C1180 C 0.10987 0.97152 0.50066 0.0
C1181 C 0.10941 0.93032 0.51133 0.0
C1182 C 0.12964 0.93001 0.49299 0.0
C1183 C 0.1423 0.95247 0.48191 0.0
C1184 C 0.13266 0.97316 0.48595 0.0
C1185 C 0.13386 0.90485 0.48022 0.0
C1186 C 0.15964 0.90504 0.47806 0.0
C1187 C 0.1128 0.88201 0.46584 0.0
C1188 C 0.08529 0.88087 0.46587 0.0
C1189 C 0.07755 0.897 0.45186 0.0
C1190 C 0.05191 0.8969 0.45324 0.0
C1191 C 0.03379 0.88052 0.46829 0.0
C1192 C 0.04125 0.86408 0.48185 0.0
C1193 C 0.06689 0.86415 0.48057 0.0
H1194 H 0.01398 0.88054 0.46943 0.0
H1195 H 0.26473 0.88906 0.4476 0.0
H1196 H 0.1768 0.82623 0.64376 0.0
H1197 H 0.14617 0.83894 0.61841 0.0
H1198 H 0.17912 0.91915 0.66892 0.0
H1199 H 0.2101 0.90681 0.69357 0.0
H1200 H 0.11846 0.88776 0.66436 0.0
H1201 H 0.19787 0.9148 0.61197 0.0
H1202 H 0.23214 0.90774 0.58083 0.0
H1203 H 0.17305 0.8553 0.51581 0.0
H1204 H 0.13839 0.8615 0.54684 0.0
H1205 H 0.09152 0.97859 0.58487 0.0
H1206 H 0.12002 0.95788 0.60048 0.0
H1207 H 0.05583 0.88237 0.58434 0.0
H1208 H 0.02725 0.9028 0.56801 0.0
H1209 H 0.12956 0.90682 0.56833 0.0
H1210 H 0.06265 0.86329 0.64947 0.0
H1211 H 0.02611 0.86961 0.67733 0.0
H1212 H 0.05874 0.95351 0.68152 0.0
H1213 H 0.09561 0.94771 0.65404 0.0
C1214 C 0.17747 0.84656 0.64929 0.0
C1215 C 0.19578 0.8656 0.67051 0.0
C1216 C 0.16012 0.85379 0.63477 0.0
C1217 C 0.16059 0.88 0.64172 0.0
C1218 C 0.17862 0.89887 0.66316 0.0
C1219 C 0.19627 0.89183 0.67718 0.0
C1220 C 0.14164 0.88785 0.62775 0.0
C1221 C 0.12079 0.89167 0.64325 0.0
C1222 C 0.14452 0.8927 0.60009 0.0
C1223 C 0.16548 0.88815 0.58205 0.0
C1224 C 0.19213 0.90128 0.59132 0.0
C1225 C 0.21166 0.89755 0.57359 0.0
C1226 C 0.20479 0.88097 0.54641 0.0
C1227 C 0.17837 0.86804 0.53691 0.0
C1228 C 0.15878 0.87161 0.55459 0.0
C1229 C 0.08347 0.95757 0.58461 0.0
C1230 C 0.05715 0.94231 0.57525 0.0
C1231 C 0.09983 0.94574 0.59324 0.0
C1232 C 0.08997 0.91866 0.59346 0.0
C1233 C 0.06376 0.9033 0.58412 0.0
C1234 C 0.04751 0.91499 0.57484 0.0
C1235 C 0.10681 0.90699 0.60513 0.0
C1236 C 0.1271 0.90241 0.58922 0.0
C1237 C 0.10328 0.9011 0.63221 0.0
C1238 C 0.0817 0.90501 0.6495 0.0
C1239 C 0.06207 0.88309 0.65648 0.0
C1240 C 0.04131 0.88658 0.6722 0.0
C1241 C 0.0401 0.91194 0.68118 0.0
C1242 C 0.05968 0.93388 0.67451 0.0
C1243 C 0.08048 0.93049 0.65883 0.0
H1244 H 0.02398 0.91459 0.69326 0.0
H1245 H 0.21993 0.87823 0.53265 0.0
H1246 H 0.22395 0.1694 0.69962 0.0
H1247 H 0.18856 0.14761 0.66178 0.0
H1248 H 0.16128 0.21317 0.68609 0.0
H1249 H 0.19701 0.23522 0.72343 0.0
H1250 H 0.13114 0.13951 0.67859 0.0
H1251 H 0.1635 0.22388 0.64003 0.0
H1252 H 0.20156 0.25767 0.6252 0.0
H1253 H 0.22126 0.19606 0.56962 0.0
H1254 H 0.18368 0.1619 0.58473 0.0
H1255 H 0.0174 0.08916 0.59467 0.0
H1256 H 0.05514 0.12563 0.62112 0.0
H1257 H 0.10607 0.10529 0.55826 0.0
H1258 H 0.06807 0.06952 0.53093 0.0
H1259 H 0.12606 0.15832 0.5835 0.0
H1260 H 0.09429 0.07559 0.61223 0.0
H1261 H 0.06096 0.03713 0.62576 0.0
H1262 H 0.04516 0.089 0.69813 0.0
H1263 H 0.07824 0.12788 0.68483 0.0
C1264 C 0.21064 0.17927 0.69635 0.0
C1265 C 0.21336 0.20417 0.71353 0.0
C1266 C 0.19065 0.16698 0.6748 0.0
C1267 C 0.17296 0.17927 0.6707 0.0
C1268 C 0.17544 0.20397 0.68826 0.0
C1269 C 0.19568 0.21645 0.70951 0.0
C1270 C 0.15007 0.1647 0.65038 0.0
C1271 C 0.12973 0.1439 0.65801 0.0
C1272 C 0.14896 0.16991 0.62325 0.0
C1273 C 0.17105 0.19041 0.61375 0.0
C1274 C 0.17613 0.21757 0.6249 0.0
C1275 C 0.19759 0.23677 0.61644 0.0
C1276 C 0.21387 0.22902 0.59657 0.0
C1277 C 0.20864 0.20204 0.58502 0.0
C1278 C 0.18733 0.18275 0.59359 0.0
C1279 C 0.03653 0.09301 0.58606 0.0
C1280 C 0.04003 0.07621 0.56123 0.0
C1281 C 0.05805 0.11385 0.60112 0.0
C1282 C 0.08344 0.11759 0.59205 0.0
C1283 C 0.08664 0.10259 0.56571 0.0
C1284 C 0.06496 0.08208 0.55022 0.0
C1285 C 0.10645 0.13367 0.61215 0.0
C1286 C 0.12706 0.15434 0.60434 0.0
C1287 C 0.10817 0.12798 0.63907 0.0
C1288 C 0.08853 0.10465 0.64738 0.0
C1289 C 0.08359 0.07881 0.63094 0.0
C1290 C 0.06475 0.05693 0.63856 0.0
C1291 C 0.05087 0.06061 0.66272 0.0
C1292 C 0.05589 0.08619 0.67939 0.0
C1293 C 0.0747 0.10815 0.67183 0.0
H1294 H 0.03628 0.04363 0.66858 0.0
H1295 H 0.2305 0.24391 0.59008 0.0
H1296 H 0.85314 0.23218 0.59222 0.0
H1297 H 0.85423 0.19746 0.55121 0.0
H1298 H 0.83742 0.14112 0.60435 0.0
H1299 H 0.83851 0.17558 0.64557 0.0
H1300 H 0.89169 0.16528 0.55939 0.0
H1301 H 0.78607 0.08549 0.55264 0.0
H1302 H 0.73977 0.08175 0.54921 0.0
H1303 H 0.76287 0.1542 0.52008 0.0
H1304 H 0.80926 0.15833 0.52322 0.0
H1305 H 0.86396 0.02376 0.53267 0.0
H1306 H 0.8433 0.05698 0.53992 0.0
H1307 H 0.88881 0.09211 0.47542 0.0
H1308 H 0.90935 0.05868 0.46804 0.0
H1309 H 0.8182 0.08343 0.51245 0.0
H1310 H 0.92039 0.15468 0.50507 0.0
H1311 H 0.96624 0.15646 0.50418 0.0
H1312 H 0.94948 0.10209 0.55929 0.0
H1313 H 0.90361 0.10015 0.5606 0.0
C1314 C 0.84979 0.21246 0.5953 0.0
C1315 C 0.84577 0.20693 0.62251 0.0
C1316 C 0.84999 0.19258 0.5717 0.0
C1317 C 0.84535 0.16671 0.57478 0.0
C1318 C 0.84041 0.16087 0.6015 0.0
C1319 C 0.84095 0.18075 0.62512 0.0
C1320 C 0.84972 0.14651 0.55175 0.0
C1321 C 0.87565 0.14776 0.54833 0.0
C1322 C 0.82874 0.12352 0.53784 0.0
C1323 C 0.80117 0.1223 0.53835 0.0
C1324 C 0.78128 0.10068 0.54563 0.0
C1325 C 0.75501 0.09843 0.54361 0.0
C1326 C 0.74837 0.11756 0.53414 0.0
C1327 C 0.76804 0.1393 0.52723 0.0
C1328 C 0.79434 0.14172 0.52936 0.0
C1329 C 0.86858 0.03767 0.51898 0.0
C1330 C 0.8887 0.03906 0.50015 0.0
C1331 C 0.85674 0.05671 0.52317 0.0
C1332 C 0.86494 0.07732 0.50864 0.0
C1333 C 0.88235 0.07651 0.48703 0.0
C1334 C 0.89416 0.05748 0.48286 0.0
C1335 C 0.86006 0.1021 0.52064 0.0
C1336 C 0.83418 0.10142 0.52258 0.0
C1337 C 0.88106 0.12579 0.5331 0.0
C1338 C 0.90867 0.12728 0.53288 0.0
C1339 C 0.92656 0.14324 0.51709 0.0
C1340 C 0.95252 0.14424 0.51648 0.0
C1341 C 0.96078 0.12949 0.53178 0.0
C1342 C 0.94307 0.11357 0.54755 0.0
C1343 C 0.91711 0.11251 0.54822 0.0
H1344 H 0.98092 0.13047 0.53153 0.0
H1345 H 0.72802 0.11569 0.5324 0.0
H1346 H 0.80187 0.82601 0.74594 0.0
H1347 H 0.82935 0.86166 0.72422 0.0
H1348 H 0.8615 0.80709 0.67255 0.0
H1349 H 0.83592 0.77228 0.69655 0.0
H1350 H 0.8969 0.85242 0.68235 0.0
H1351 H 0.80575 0.82149 0.64882 0.0
H1352 H 0.75844 0.81024 0.656 0.0
H1353 H 0.77276 0.89136 0.69846 0.0
H1354 H 0.82018 0.90296 0.69164 0.0
H1355 H 0.92212 0.90748 0.56135 0.0
H1356 H 0.8994 0.87846 0.59259 0.0
H1357 H 0.89538 0.94616 0.65433 0.0
H1358 H 0.91848 0.97553 0.62335 0.0
H1359 H 0.84708 0.89761 0.64184 0.0
H1360 H 0.94017 0.92745 0.66787 0.0
H1361 H 0.98618 0.935 0.65653 0.0
H1362 H 0.96624 0.85132 0.62228 0.0
H1363 H 0.92001 0.8433 0.63301 0.0
C1364 C 0.8153 0.82198 0.73037 0.0
C1365 C 0.81672 0.7966 0.7224 0.0
C1366 C 0.83076 0.84217 0.71777 0.0
C1367 C 0.84669 0.83678 0.69588 0.0
C1368 C 0.84922 0.81172 0.68921 0.0
C1369 C 0.83463 0.79185 0.7028 0.0
C1370 C 0.85932 0.85657 0.67875 0.0
C1371 C 0.8859 0.8621 0.67336 0.0
C1372 C 0.8451 0.8695 0.66715 0.0
C1373 C 0.81648 0.86297 0.66999 0.0
C1374 C 0.79875 0.83686 0.65969 0.0
C1375 C 0.77195 0.83044 0.66372 0.0
C1376 C 0.76263 0.85004 0.67785 0.0
C1377 C 0.78003 0.87618 0.6876 0.0
C1378 C 0.80686 0.8827 0.68359 0.0
C1379 C 0.91612 0.91618 0.58141 0.0
C1380 C 0.92216 0.94376 0.59004 0.0
C1381 C 0.90326 0.8996 0.59922 0.0
C1382 C 0.89606 0.91033 0.62574 0.0
C1383 C 0.90094 0.93766 0.63391 0.0
C1384 C 0.91413 0.95434 0.61625 0.0
C1385 C 0.88434 0.89302 0.64535 0.0
C1386 C 0.85799 0.88801 0.65111 0.0
C1387 C 0.89858 0.88009 0.65666 0.0
C1388 C 0.92656 0.88481 0.65101 0.0
C1389 C 0.94556 0.91067 0.65777 0.0
C1390 C 0.97168 0.91504 0.65146 0.0
C1391 C 0.97909 0.89367 0.63856 0.0
C1392 C 0.96045 0.86786 0.6322 0.0
C1393 C 0.93429 0.86339 0.63843 0.0
H1394 H 0.99928 0.8971 0.63351 0.0
H1395 H 0.74194 0.84499 0.68126 0.0
H1396 H 0.32527 0.22697 0.17834 0.0
H1397 H 0.35237 0.20235 0.15528 0.0
H1398 H 0.30002 0.13153 0.17883 0.0
H1399 H 0.27465 0.15704 0.20427 0.0
H1400 H 0.3427 0.12962 0.18518 0.0
H1401 H 0.30861 0.14669 0.10103 0.0
H1402 H 0.30094 0.17428 0.07079 0.0
H1403 H 0.3833 0.22067 0.07749 0.0
H1404 H 0.39164 0.19284 0.10698 0.0
H1405 H 0.38448 0.03542 0.09036 0.0
H1406 H 0.36011 0.06314 0.11314 0.0
H1407 H 0.42473 0.13349 0.10512 0.0
H1408 H 0.4491 0.10579 0.08179 0.0
H1409 H 0.37884 0.13729 0.0914 0.0
H1410 H 0.41264 0.11548 0.16934 0.0
H1411 H 0.42062 0.08596 0.1967 0.0
H1412 H 0.3376 0.04788 0.20167 0.0
H1413 H 0.32909 0.07692 0.17398 0.0
C1414 C 0.31953 0.20609 0.17842 0.0
C1415 C 0.2978 0.19398 0.19318 0.0
C1416 C 0.33491 0.19177 0.16482 0.0
C1417 C 0.32829 0.16451 0.16438 0.0
C1418 C 0.30606 0.15241 0.17869 0.0
C1419 C 0.29133 0.16699 0.19319 0.0
C1420 C 0.34483 0.14875 0.15035 0.0
C1421 C 0.35002 0.13106 0.16438 0.0
C1422 C 0.35576 0.15096 0.12366 0.0
C1423 C 0.35068 0.16792 0.10642 0.0
C1424 C 0.32504 0.16287 0.09616 0.0
C1425 C 0.32059 0.1785 0.07913 0.0
C1426 C 0.34152 0.19942 0.07256 0.0
C1427 C 0.36707 0.20454 0.08269 0.0
C1428 C 0.37171 0.18873 0.09937 0.0
C1429 C 0.39352 0.05677 0.09314 0.0
C1430 C 0.41892 0.06819 0.08406 0.0
C1431 C 0.37958 0.0727 0.10653 0.0
C1432 C 0.39055 0.10061 0.1113 0.0
C1433 C 0.41573 0.11208 0.1019 0.0
C1434 C 0.42977 0.09615 0.08867 0.0
C1435 C 0.37568 0.11771 0.12582 0.0
C1436 C 0.37113 0.13575 0.11205 0.0
C1437 C 0.36515 0.11566 0.15261 0.0
C1438 C 0.37022 0.09819 0.16929 0.0
C1439 C 0.39607 0.10065 0.17603 0.0
C1440 C 0.40069 0.08401 0.19162 0.0
C1441 C 0.37962 0.06495 0.20076 0.0
C1442 C 0.35389 0.06257 0.19446 0.0
C1443 C 0.34916 0.07914 0.17885 0.0
H1444 H 0.38324 0.05213 0.21288 0.0
H1445 H 0.33796 0.21155 0.05948 0.0
H1446 H 0.79502 0.33694 0.21812 0.0
H1447 H 0.81211 0.36417 0.18352 0.0
H1448 H 0.82746 0.29878 0.12867 0.0
H1449 H 0.81013 0.27147 0.16296 0.0
H1450 H 0.86839 0.34105 0.13367 0.0
H1451 H 0.77986 0.31843 0.11013 0.0
H1452 H 0.73263 0.31094 0.11095 0.0
H1453 H 0.75025 0.39463 0.14229 0.0
H1454 H 0.79766 0.40266 0.14237 0.0
H1455 H 0.91058 0.41807 0.03083 0.0
H1456 H 0.87479 0.38478 0.04874 0.0
H1457 H 0.88458 0.44032 0.12934 0.0
H1458 H 0.92025 0.47364 0.11179 0.0
H1459 H 0.82674 0.39778 0.10204 0.0
H1460 H 0.91937 0.41094 0.13418 0.0
H1461 H 0.96401 0.41495 0.11958 0.0
H1462 H 0.93221 0.34095 0.05779 0.0
H1463 H 0.8874 0.33673 0.07184 0.0
C1464 C 0.80192 0.32837 0.19861 0.0
C1465 C 0.80171 0.30227 0.19345 0.0
C1466 C 0.81149 0.34385 0.17877 0.0
C1467 C 0.82087 0.33342 0.15341 0.0
C1468 C 0.82041 0.30725 0.14814 0.0
C1469 C 0.81085 0.2918 0.16793 0.0
C1470 C 0.83326 0.35058 0.13364 0.0
C1471 C 0.85895 0.35303 0.12646 0.0
C1472 C 0.82092 0.36601 0.12372 0.0
C1473 C 0.79246 0.36115 0.12638 0.0
C1474 C 0.77374 0.33523 0.11773 0.0
C1475 C 0.74691 0.33089 0.11787 0.0
C1476 C 0.73848 0.35233 0.12635 0.0
C1477 C 0.75684 0.37807 0.13549 0.0
C1478 C 0.78371 0.38252 0.13551 0.0
C1479 C 0.90459 0.42338 0.05209 0.0
C1480 C 0.91841 0.44817 0.07014 0.0
C1481 C 0.88417 0.40445 0.06216 0.0
C1482 C 0.87733 0.41023 0.09025 0.0
C1483 C 0.88957 0.4357 0.1075 0.0
C1484 C 0.9101 0.45455 0.09756 0.0
C1485 C 0.86166 0.38857 0.10345 0.0
C1486 C 0.83564 0.3854 0.10928 0.0
C1487 C 0.87316 0.37169 0.11127 0.0
C1488 C 0.90014 0.37354 0.10402 0.0
C1489 C 0.92196 0.39554 0.11752 0.0
C1490 C 0.94726 0.39787 0.10932 0.0
C1491 C 0.95094 0.37821 0.08779 0.0
C1492 C 0.92934 0.35612 0.07451 0.0
C1493 C 0.90401 0.35373 0.08261 0.0
H1494 H 0.97052 0.38008 0.08139 0.0
H1495 H 0.7177 0.349 0.12582 0.0
H1496 H 0.68987 0.81517 0.10341 0.0
H1497 H 0.65795 0.8348 0.09473 0.0
H1498 H 0.68061 0.88934 0.17671 0.0
H1499 H 0.71197 0.86881 0.18595 0.0
H1500 H 0.62904 0.87468 0.16538 0.0
H1501 H 0.70523 0.91046 0.11437 0.0
H1502 H 0.74031 0.90654 0.08273 0.0
H1503 H 0.68244 0.85665 0.01548 0.0
H1504 H 0.64703 0.8607 0.04653 0.0
H1505 H 0.57597 0.96541 0.12564 0.0
H1506 H 0.60494 0.94524 0.1414 0.0
H1507 H 0.58373 0.88423 0.06391 0.0
H1508 H 0.55445 0.90385 0.04826 0.0
H1509 H 0.6362 0.90486 0.0752 0.0
H1510 H 0.55984 0.87121 0.12685 0.0
H1511 H 0.52539 0.87465 0.15955 0.0
H1512 H 0.58424 0.92065 0.2272 0.0
H1513 H 0.61908 0.91779 0.19477 0.0
C1514 C 0.6879 0.83121 0.11968 0.0
C1515 C 0.70366 0.84071 0.14518 0.0
C1516 C 0.66973 0.84254 0.11466 0.0
C1517 C 0.66736 0.86416 0.13467 0.0
C1518 C 0.68219 0.87287 0.1608 0.0
C1519 C 0.70012 0.86116 0.16607 0.0
C1520 C 0.65026 0.87819 0.12757 0.0
C1521 C 0.63088 0.88166 0.14589 0.0
C1522 C 0.65234 0.88711 0.102 0.0
C1523 C 0.67353 0.88585 0.08276 0.0
C1524 C 0.70002 0.89881 0.09275 0.0
C1525 C 0.71995 0.89663 0.0749 0.0
C1526 C 0.7136 0.88149 0.04703 0.0
C1527 C 0.68732 0.86865 0.03692 0.0
C1528 C 0.66732 0.87099 0.05458 0.0
C1529 C 0.57718 0.9475 0.11208 0.0
C1530 C 0.56287 0.93642 0.08555 0.0
C1531 C 0.59383 0.93601 0.12113 0.0
C1532 C 0.5965 0.91312 0.10391 0.0
C1533 C 0.58215 0.90195 0.07753 0.0
C1534 C 0.56548 0.91334 0.06854 0.0
C1535 C 0.6147 0.90107 0.11282 0.0
C1536 C 0.63441 0.89806 0.09481 0.0
C1537 C 0.61299 0.89283 0.13878 0.0
C1538 C 0.59207 0.89454 0.1583 0.0
C1539 C 0.56544 0.88226 0.14863 0.0
C1540 C 0.54584 0.88406 0.16713 0.0
C1541 C 0.55262 0.89793 0.19542 0.0
C1542 C 0.57902 0.90996 0.20528 0.0
C1543 C 0.5987 0.90824 0.18685 0.0
H1544 H 0.53742 0.89929 0.20971 0.0
H1545 H 0.72904 0.87964 0.0333 0.0
H1546 H 0.25827 0.69929 0.19229 0.0
H1547 H 0.23561 0.66195 0.15245 0.0
H1548 H 0.16091 0.66295 0.18241 0.0
H1549 H 0.18313 0.69936 0.22232 0.0
H1550 H 0.16008 0.61388 0.16735 0.0
H1551 H 0.19255 0.69392 0.13006 0.0
H1552 H 0.22762 0.7321 0.11789 0.0
H1553 H 0.25815 0.67893 0.06256 0.0
H1554 H 0.22357 0.64045 0.07471 0.0
H1555 H 0.07439 0.58467 0.03843 0.0
H1556 H 0.11554 0.61434 0.0656 0.0
H1557 H 0.13239 0.54622 0.07636 0.0
H1558 H 0.09124 0.5166 0.04903 0.0
H1559 H 0.16968 0.62403 0.06788 0.0
H1560 H 0.14625 0.55731 0.14803 0.0
H1561 H 0.109 0.52448 0.16529 0.0
H1562 H 0.05606 0.55757 0.13779 0.0
H1563 H 0.09297 0.59058 0.12049 0.0
C1564 C 0.237 0.69129 0.19051 0.0
C1565 C 0.22247 0.70241 0.21032 0.0
C1566 C 0.22413 0.6701 0.16767 0.0
C1567 C 0.1966 0.65987 0.16434 0.0
C1568 C 0.18218 0.67052 0.18456 0.0
C1569 C 0.19494 0.69147 0.20733 0.0
C1570 C 0.18217 0.63837 0.13978 0.0
C1571 C 0.16257 0.61587 0.14553 0.0
C1572 C 0.18533 0.64107 0.11133 0.0
C1573 C 0.20575 0.66431 0.10372 0.0
C1574 C 0.20688 0.69037 0.11551 0.0
C1575 C 0.22664 0.71207 0.10859 0.0
C1576 C 0.24515 0.70795 0.0896 0.0
C1577 C 0.24384 0.68211 0.07733 0.0
C1578 C 0.22417 0.66035 0.08422 0.0
C1579 C 0.08755 0.57617 0.04551 0.0
C1580 C 0.08009 0.54857 0.04151 0.0
C1581 C 0.11099 0.59305 0.06102 0.0
C1582 C 0.12687 0.58244 0.07314 0.0
C1583 C 0.12039 0.55476 0.06715 0.0
C1584 C 0.09704 0.5379 0.05146 0.0
C1585 C 0.14725 0.60005 0.09574 0.0
C1586 C 0.16791 0.62166 0.08959 0.0
C1587 C 0.14478 0.597 0.12405 0.0
C1588 C 0.12229 0.57612 0.13263 0.0
C1589 C 0.12662 0.55742 0.1455 0.0
C1590 C 0.1056 0.53886 0.15539 0.0
C1591 C 0.08022 0.53905 0.15277 0.0
C1592 C 0.07574 0.55749 0.13984 0.0
C1593 C 0.09667 0.57603 0.12986 0.0
H1594 H 0.064 0.52483 0.16065 0.0
H1595 H 0.26045 0.72477 0.08432 0.0
H1596 H 0.25387 0.8129 0.83603 0.0
H1597 H 0.28579 0.83871 0.87637 0.0
H1598 H 0.34597 0.81679 0.83026 0.0
H1599 H 0.31457 0.7922 0.78957 0.0
H1600 H 0.34402 0.81438 0.8915 0.0
H1601 H 0.34546 0.87105 0.82672 0.0
H1602 H 0.32542 0.89281 0.79941 0.0
H1603 H 0.30094 0.93097 0.87639 0.0
H1604 H 0.32043 0.90898 0.90411 0.0
H1605 H 0.47084 0.90779 0.92369 0.0
H1606 H 0.42733 0.8754 0.90641 0.0
H1607 H 0.39183 0.92457 0.9617 0.0
H1608 H 0.43571 0.95731 0.97907 0.0
H1609 H 0.37379 0.91254 0.90657 0.0
H1610 H 0.38204 0.86409 0.97236 0.0
H1611 H 0.40295 0.84304 0.99962 0.0
H1612 H 0.40956 0.79012 0.92269 0.0
H1613 H 0.38901 0.81105 0.89486 0.0
C1614 C 0.27384 0.81332 0.83467 0.0
C1615 C 0.28165 0.80003 0.80983 0.0
C1616 C 0.29197 0.82797 0.85772 0.0
C1617 C 0.31809 0.82937 0.85632 0.0
C1618 C 0.32575 0.81556 0.83188 0.0
C1619 C 0.30778 0.8014 0.80866 0.0
C1620 C 0.33813 0.84709 0.8791 0.0
C1621 C 0.35059 0.83585 0.89494 0.0
C1622 C 0.34593 0.87504 0.88411 0.0
C1623 C 0.33399 0.88803 0.86742 0.0
C1624 C 0.33548 0.88379 0.83778 0.0
C1625 C 0.3243 0.89622 0.82224 0.0
C1626 C 0.31182 0.91318 0.83614 0.0
C1627 C 0.31053 0.91776 0.86563 0.0
C1628 C 0.32162 0.9053 0.88127 0.0
C1629 C 0.45377 0.91138 0.93266 0.0
C1630 C 0.45653 0.9349 0.95278 0.0
C1631 C 0.42891 0.89278 0.92293 0.0
C1632 C 0.40633 0.89745 0.93296 0.0
C1633 C 0.40903 0.92051 0.9539 0.0
C1634 C 0.43402 0.93907 0.96389 0.0
C1635 C 0.38041 0.87991 0.91855 0.0
C1636 C 0.3668 0.89112 0.90402 0.0
C1637 C 0.37156 0.85195 0.91488 0.0
C1638 C 0.38404 0.83926 0.93147 0.0
C1639 C 0.38812 0.8481 0.96119 0.0
C1640 C 0.39989 0.83617 0.97677 0.0
C1641 C 0.40762 0.8153 0.96289 0.0
C1642 C 0.40355 0.80629 0.93341 0.0
C1643 C 0.39179 0.81815 0.91772 0.0
H1644 H 0.41672 0.80608 0.97499 0.0
H1645 H 0.30322 0.92285 0.82408 0.0
H1646 H 0.20216 0.28492 0.76277 0.0
H1647 H 0.17808 0.31218 0.78793 0.0
H1648 H 0.22369 0.32636 0.8654 0.0
H1649 H 0.24915 0.30078 0.83987 0.0
H1650 H 0.16313 0.3089 0.86663 0.0
H1651 H 0.24017 0.37318 0.84227 0.0
H1652 H 0.27387 0.39625 0.81287 0.0
H1653 H 0.21498 0.40789 0.76538 0.0
H1654 H 0.18073 0.38405 0.79387 0.0
H1655 H 0.11935 0.40962 0.9485 0.0
H1656 H 0.1454 0.38313 0.927 0.0
H1657 H 0.12344 0.38792 0.84382 0.0
H1658 H 0.09809 0.41503 0.86514 0.0
H1659 H 0.17406 0.3966 0.8475 0.0
H1660 H 0.09669 0.33009 0.86986 0.0
H1661 H 0.06315 0.30914 0.90079 0.0
H1662 H 0.12279 0.30348 0.95287 0.0
H1663 H 0.15675 0.32474 0.92245 0.0
C1664 C 0.20745 0.29424 0.78505 0.0
C1665 C 0.22801 0.29089 0.79905 0.0
C1666 C 0.19346 0.30965 0.79949 0.0
C1667 C 0.19919 0.32165 0.82855 0.0
C1668 C 0.21892 0.31743 0.84296 0.0
C1669 C 0.23333 0.30249 0.82834 0.0
C1670 C 0.1844 0.33835 0.84372 0.0
C1671 C 0.16578 0.32824 0.86271 0.0
C1672 C 0.18739 0.36342 0.83828 0.0
C1673 C 0.20775 0.37633 0.81994 0.0
C1674 C 0.23426 0.38008 0.82516 0.0
C1675 C 0.25352 0.39347 0.80875 0.0
C1676 C 0.24658 0.40354 0.78727 0.0
C1677 C 0.22034 0.40014 0.78207 0.0
C1678 C 0.20098 0.38657 0.79826 0.0
C1679 C 0.12009 0.40516 0.92563 0.0
C1680 C 0.10635 0.41455 0.90869 0.0
C1681 C 0.13487 0.38971 0.91328 0.0
C1682 C 0.13632 0.38311 0.88361 0.0
C1683 C 0.12269 0.39253 0.8667 0.0
C1684 C 0.1079 0.4079 0.879 0.0
C1685 C 0.15244 0.36703 0.87012 0.0
C1686 C 0.17134 0.37723 0.85139 0.0
C1687 C 0.14966 0.34206 0.87575 0.0
C1688 C 0.1293 0.32928 0.89406 0.0
C1689 C 0.10268 0.32458 0.88805 0.0
C1690 C 0.08359 0.31261 0.90546 0.0
C1691 C 0.09085 0.30505 0.92883 0.0
C1692 C 0.11721 0.30939 0.93479 0.0
C1693 C 0.13638 0.32138 0.91746 0.0
H1694 H 0.07603 0.29578 0.94228 0.0
H1695 H 0.26152 0.41395 0.77464 0.0
H1696 H 0.70229 0.17676 0.77153 0.0
H1697 H 0.6856 0.14542 0.80213 0.0
H1698 H 0.72708 0.20683 0.87501 0.0
H1699 H 0.7428 0.23862 0.84433 0.0
H1700 H 0.70671 0.12545 0.83711 0.0
H1701 H 0.68599 0.19293 0.93341 0.0
H1702 H 0.68592 0.23856 0.94866 0.0
H1703 H 0.66253 0.23588 0.86358 0.0
H1704 H 0.66072 0.18975 0.84817 0.0
H1705 H 0.63633 0.05514 0.94426 0.0
H1706 H 0.66947 0.08939 0.9244 0.0
H1707 H 0.60828 0.09503 0.87398 0.0
H1708 H 0.57547 0.06029 0.89263 0.0
H1709 H 0.64579 0.14536 0.9083 0.0
H1710 H 0.64015 0.0628 0.84105 0.0
H1711 H 0.644 0.0186 0.82851 0.0
H1712 H 0.72485 0.0532 0.86 0.0
H1713 H 0.72133 0.09757 0.87311 0.0
C1714 C 0.70774 0.18349 0.7941 0.0
C1715 C 0.72334 0.21 0.80583 0.0
C1716 C 0.69848 0.16557 0.81151 0.0
C1717 C 0.70491 0.17383 0.8409 0.0
C1718 C 0.72157 0.20014 0.85246 0.0
C1719 C 0.73032 0.21828 0.83507 0.0
C1720 C 0.69188 0.15529 0.85918 0.0
C1721 C 0.69378 0.12997 0.85311 0.0
C1722 C 0.67525 0.16125 0.88033 0.0
C1723 C 0.67373 0.18807 0.88954 0.0
C1724 C 0.6804 0.20196 0.91805 0.0
C1725 C 0.68053 0.22787 0.92675 0.0
C1726 C 0.67412 0.24012 0.90709 0.0
C1727 C 0.6671 0.22629 0.87884 0.0
C1728 C 0.66637 0.2002 0.87013 0.0
C1729 C 0.6301 0.06372 0.92889 0.0
C1730 C 0.60347 0.0551 0.91981 0.0
C1731 C 0.64895 0.08311 0.91755 0.0
C1732 C 0.64118 0.09464 0.89783 0.0
C1733 C 0.61457 0.08635 0.88923 0.0
C1734 C 0.59591 0.0665 0.89982 0.0
C1735 C 0.66044 0.11556 0.886 0.0
C1736 C 0.65948 0.14117 0.89313 0.0
C1737 C 0.67831 0.11004 0.86638 0.0
C1738 C 0.68038 0.08341 0.85842 0.0
C1739 C 0.65866 0.06093 0.84558 0.0
C1740 C 0.6608 0.03586 0.8383 0.0
C1741 C 0.68463 0.03308 0.84356 0.0
C1742 C 0.70639 0.05537 0.85601 0.0
C1743 C 0.70433 0.08048 0.86336 0.0
H1744 H 0.68625 0.01365 0.8379 0.0
H1745 H 0.67465 0.26034 0.91374 0.0
H1746 H 0.87056 0.6757 0.82541 0.0
H1747 H 0.89249 0.64634 0.83501 0.0
H1748 H 0.84411 0.63114 0.90555 0.0
H1749 H 0.82326 0.66155 0.89673 0.0
H1750 H 0.89028 0.64047 0.92238 0.0
H1751 H 0.83775 0.5836 0.83907 0.0
H1752 H 0.8198 0.57095 0.78943 0.0
H1753 H 0.89712 0.58362 0.76005 0.0
H1754 H 0.91563 0.59686 0.80954 0.0
H1755 H 0.93245 0.51631 0.89842 0.0
H1756 H 0.90438 0.53851 0.88486 0.0
H1757 H 0.96443 0.61488 0.91921 0.0
H1758 H 0.99239 0.59289 0.93291 0.0
H1759 H 0.90855 0.57092 0.85033 0.0
H1760 H 0.93727 0.65954 0.94888 0.0
H1761 H 0.9511 0.6692 0.99961 0.0
H1762 H 0.91338 0.58663 0.00023 0.0
H1763 H 0.89902 0.57652 0.94959 0.0
C1764 C 0.86442 0.66571 0.84265 0.0
C1765 C 0.84527 0.67079 0.86033 0.0
C1766 C 0.87686 0.64884 0.84811 0.0
C1767 C 0.86989 0.6362 0.87092 0.0
C1768 C 0.85003 0.64066 0.88793 0.0
C1769 C 0.83801 0.65792 0.88283 0.0
C1770 C 0.88434 0.61978 0.87829 0.0
C1771 C 0.89412 0.62521 0.90654 0.0
C1772 C 0.88918 0.5995 0.85787 0.0
C1773 C 0.8781 0.59145 0.82806 0.0
C1774 C 0.85096 0.5839 0.82204 0.0
C1775 C 0.84069 0.57662 0.79392 0.0
C1776 C 0.85733 0.57659 0.77161 0.0
C1777 C 0.88428 0.58376 0.77736 0.0
C1778 C 0.89466 0.59113 0.80544 0.0
C1779 C 0.93971 0.53783 0.90292 0.0
C1780 C 0.96456 0.55282 0.91704 0.0
C1781 C 0.92364 0.55051 0.89518 0.0
C1782 C 0.93208 0.5784 0.90138 0.0
C1783 C 0.95718 0.59336 0.91475 0.0
C1784 C 0.97316 0.58074 0.92263 0.0
C1785 C 0.91467 0.592 0.89422 0.0
C1786 C 0.90447 0.5861 0.86607 0.0
C1787 C 0.90883 0.6114 0.91485 0.0
C1788 C 0.91728 0.61726 0.94535 0.0
C1789 C 0.93185 0.64346 0.95986 0.0
C1790 C 0.93979 0.64901 0.98859 0.0
C1791 C 0.93318 0.62854 0.0031 0.0
C1792 C 0.91856 0.60246 0.98893 0.0
C1793 C 0.91055 0.5968 0.96019 0.0
H1794 H 0.93936 0.63293 0.02534 0.0
H1795 H 0.84934 0.57095 0.74985 0.0
H1796 H 0.15044 0.34018 0.22859 0.0
H1797 H 0.13109 0.36725 0.20961 0.0
H1798 H 0.14757 0.33465 0.12491 0.0
H1799 H 0.16603 0.30665 0.14365 0.0
H1800 H 0.14518 0.40479 0.18147 0.0
H1801 H 0.09783 0.32574 0.07832 0.0
H1802 H 0.08195 0.27699 0.0607 0.0
H1803 H 0.06813 0.26672 0.1458 0.0
H1804 H 0.08357 0.31536 0.16387 0.0
H1805 H 0.09128 0.4643 0.09506 0.0
H1806 H 0.11548 0.44048 0.11272 0.0
H1807 H 0.04231 0.38167 0.12685 0.0
H1808 H 0.01806 0.40497 0.10815 0.0
H1809 H 0.07292 0.35741 0.10646 0.0
H1810 H 0.08381 0.43362 0.18192 0.0
H1811 H 0.09556 0.4815 0.20308 0.0
H1812 H 0.17531 0.4959 0.1812 0.0
H1813 H 0.16393 0.44815 0.1595 0.0
C1814 C 0.15 0.33877 0.2059 0.0
C1815 C 0.15942 0.32086 0.1876 0.0
C1816 C 0.13909 0.35446 0.1951 0.0
C1817 C 0.13731 0.35265 0.16575 0.0
C1818 C 0.14822 0.33604 0.14759 0.0
C1819 C 0.15906 0.32024 0.15838 0.0
C1820 C 0.12276 0.36696 0.15417 0.0
C1821 C 0.12948 0.39444 0.16496 0.0
C1822 C 0.10177 0.35347 0.13313 0.0
C1823 C 0.09214 0.32418 0.12244 0.0
C1824 C 0.09132 0.31306 0.09324 0.0
C1825 C 0.0824 0.28545 0.08318 0.0
C1826 C 0.07413 0.26877 0.10213 0.0
C1827 C 0.07464 0.27966 0.13116 0.0
C1828 C 0.08349 0.30724 0.14132 0.0
C1829 C 0.08038 0.44632 0.10201 0.0
C1830 C 0.05277 0.43655 0.10034 0.0
C1831 C 0.09424 0.43274 0.1122 0.0
C1832 C 0.08082 0.40944 0.12166 0.0
C1833 C 0.0532 0.39955 0.11972 0.0
C1834 C 0.03932 0.41288 0.10905 0.0
C1835 C 0.09549 0.39534 0.13352 0.0
C1836 C 0.08876 0.36786 0.12281 0.0
C1837 C 0.11593 0.40872 0.15524 0.0
C1838 C 0.12296 0.43734 0.16887 0.0
C1839 C 0.10383 0.44702 0.18151 0.0
C1840 C 0.11042 0.47413 0.1936 0.0
C1841 C 0.13615 0.49173 0.19343 0.0
C1842 C 0.15538 0.48224 0.18129 0.0
C1843 C 0.14887 0.45515 0.16911 0.0
H1844 H 0.14121 0.51273 0.20274 0.0
H1845 H 0.06726 0.24741 0.0943 0.0
H1846 H 0.24767 0.7079 0.80909 0.0
H1847 H 0.22411 0.67666 0.83776 0.0
H1848 H 0.1525 0.65671 0.78695 0.0
H1849 H 0.17636 0.68806 0.7582 0.0
H1850 H 0.14262 0.66422 0.83961 0.0
H1851 H 0.18613 0.61186 0.78259 0.0
H1852 H 0.221 0.59737 0.75994 0.0
H1853 H 0.259 0.61117 0.84181 0.0
H1854 H 0.22436 0.6258 0.86496 0.0
H1855 H 0.07043 0.54259 0.87754 0.0
H1856 H 0.0967 0.57578 0.85236 0.0
H1857 H 0.15624 0.60876 0.92147 0.0
H1858 H 0.12967 0.5757 0.9473 0.0
H1859 H 0.1731 0.59599 0.86268 0.0
H1860 H 0.12314 0.64342 0.91808 0.0
H1861 H 0.08228 0.64822 0.93648 0.0
H1862 H 0.05191 0.63702 0.85152 0.0
H1863 H 0.09244 0.63172 0.83257 0.0
C1864 C 0.22704 0.69642 0.80375 0.0
C1865 C 0.21375 0.70015 0.78148 0.0
C1866 C 0.21356 0.6786 0.82014 0.0
C1867 C 0.18657 0.66405 0.81434 0.0
C1868 C 0.17331 0.66773 0.79187 0.0
C1869 C 0.18683 0.68569 0.77557 0.0
C1870 C 0.17196 0.64606 0.83261 0.0
C1871 C 0.1492 0.64913 0.84435 0.0
C1872 C 0.18075 0.62669 0.83937 0.0
C1873 C 0.20278 0.62015 0.82548 0.0
C1874 C 0.20211 0.61215 0.79574 0.0
C1875 C 0.22169 0.60367 0.78283 0.0
C1876 C 0.24205 0.60311 0.79944 0.0
C1877 C 0.2431 0.6114 0.82899 0.0
C1878 C 0.2235 0.61979 0.84201 0.0
C1879 C 0.08913 0.55685 0.88742 0.0
C1880 C 0.0981 0.55654 0.91433 0.0
C1881 C 0.104 0.57587 0.87307 0.0
C1882 C 0.1282 0.59472 0.88522 0.0
C1883 C 0.13747 0.59434 0.91192 0.0
C1884 C 0.12235 0.57553 0.92658 0.0
C1885 C 0.144 0.6142 0.86934 0.0
C1886 C 0.16689 0.61138 0.8581 0.0
C1887 C 0.13499 0.6333 0.86249 0.0
C1888 C 0.11077 0.63695 0.87389 0.0
C1889 C 0.10768 0.64177 0.9033 0.0
C1890 C 0.08458 0.64462 0.91383 0.0
C1891 C 0.06448 0.64286 0.89518 0.0
C1892 C 0.06749 0.63835 0.86595 0.0
C1893 C 0.09054 0.63546 0.8553 0.0
H1894 H 0.0466 0.64503 0.90337 0.0
H1895 H 0.25719 0.59651 0.7894 0.0
H1896 H 0.34795 0.1861 0.91633 0.0
H1897 H 0.377 0.16219 0.92077 0.0
H1898 H 0.37634 0.13898 0.82951 0.0
H1899 H 0.34639 0.16234 0.82497 0.0
H1900 H 0.36939 0.09726 0.85232 0.0
H1901 H 0.43113 0.18572 0.8688 0.0
H1902 H 0.44954 0.23387 0.89 0.0
H1903 H 0.45282 0.21824 0.97269 0.0
H1904 H 0.43408 0.16997 0.95205 0.0
H1905 H 0.47161 0.0455 0.86593 0.0
H1906 H 0.44633 0.0708 0.8535 0.0
H1907 H 0.43507 0.09648 0.94207 0.0
H1908 H 0.45969 0.07083 0.95465 0.0
H1909 H 0.45097 0.1379 0.91543 0.0
H1910 H 0.38561 0.04909 0.89821 0.0
H1911 H 0.36751 0.00107 0.8762 0.0
H1912 H 0.37234 0.01797 0.79333 0.0
H1913 H 0.39076 0.06611 0.81485 0.0
C1914 C 0.35392 0.1759 0.89714 0.0
C1915 C 0.34458 0.17593 0.87024 0.0
C1916 C 0.3708 0.16242 0.89972 0.0
C1917 C 0.3791 0.14888 0.87549 0.0
C1918 C 0.37026 0.14928 0.84855 0.0
C1919 C 0.3533 0.16281 0.84595 0.0
C1920 C 0.39616 0.13357 0.87862 0.0
C1921 C 0.38751 0.1063 0.86566 0.0
C1922 C 0.41966 0.14516 0.89634 0.0
C1923 C 0.43101 0.1742 0.90888 0.0
C1924 C 0.4356 0.19254 0.89154 0.0
C1925 C 0.44612 0.21986 0.90345 0.0
C1926 C 0.4523 0.22911 0.93268 0.0
C1927 C 0.44801 0.21105 0.95005 0.0
C1928 C 0.43747 0.1837 0.93825 0.0
C1929 C 0.46345 0.05619 0.88277 0.0
C1930 C 0.46785 0.05611 0.91135 0.0
C1931 C 0.44907 0.07076 0.8756 0.0
C1932 C 0.43876 0.08555 0.89684 0.0
C1933 C 0.44298 0.08539 0.92532 0.0
C1934 C 0.4572 0.07076 0.93248 0.0
C1935 C 0.42388 0.10156 0.88965 0.0
C1936 C 0.433 0.12898 0.90183 0.0
C1937 C 0.40095 0.09013 0.87107 0.0
C1938 C 0.38985 0.0612 0.85813 0.0
C1939 C 0.38302 0.04256 0.87528 0.0
C1940 C 0.37266 0.01532 0.8629 0.0
C1941 C 0.36885 0.00647 0.83339 0.0
C1942 C 0.37534 0.02485 0.81619 0.0
C1943 C 0.38572 0.05212 0.82847 0.0
H1944 H 0.36082 0.98537 0.82385 0.0
H1945 H 0.46045 0.25027 0.94187 0.0
H1946 H 0.76462 0.29548 0.85326 0.0
H1947 H 0.79074 0.32656 0.8958 0.0
H1948 H 0.84942 0.36515 0.84277 0.0
H1949 H 0.8235 0.33426 0.80041 0.0
H1950 H 0.84105 0.33253 0.91261 0.0
H1951 H 0.87417 0.42948 0.87015 0.0
H1952 H 0.85476 0.45133 0.84226 0.0
H1953 H 0.77812 0.41001 0.86737 0.0
H1954 H 0.79701 0.38785 0.89536 0.0
H1955 H 0.97097 0.41479 0.94526 0.0
H1956 H 0.92605 0.38534 0.92979 0.0
H1957 H 0.89761 0.44632 0.97331 0.0
H1958 H 0.94303 0.47651 0.98724 0.0
H1959 H 0.87824 0.43029 0.92289 0.0
H1960 H 0.88167 0.38351 0.99241 0.0
H1961 H 0.90096 0.36208 0.0211 0.0
H1962 H 0.90113 0.30328 0.94663 0.0
H1963 H 0.88281 0.32482 0.91734 0.0
C1964 C 0.78291 0.31091 0.85079 0.0
C1965 C 0.79218 0.31259 0.8237 0.0
C1966 C 0.79779 0.32852 0.87502 0.0
C1967 C 0.82182 0.34826 0.87236 0.0
C1968 C 0.83071 0.35029 0.84523 0.0
C1969 C 0.81602 0.33259 0.8211 0.0
C1970 C 0.83893 0.36567 0.89764 0.0
C1971 C 0.84899 0.35397 0.91533 0.0
C1972 C 0.8485 0.39361 0.90161 0.0
C1973 C 0.83703 0.40696 0.88483 0.0
C1974 C 0.85318 0.42512 0.86982 0.0
C1975 C 0.84225 0.43748 0.85389 0.0
C1976 C 0.8152 0.43196 0.85293 0.0
C1977 C 0.79903 0.4141 0.86794 0.0
C1978 C 0.80983 0.40157 0.88377 0.0
C1979 C 0.95505 0.42161 0.95216 0.0
C1980 C 0.96029 0.44763 0.96796 0.0
C1981 C 0.92931 0.40467 0.94357 0.0
C1982 C 0.90826 0.41333 0.95084 0.0
C1983 C 0.91346 0.43905 0.96771 0.0
C1984 C 0.93934 0.45618 0.97592 0.0
C1985 C 0.88175 0.3971 0.9369 0.0
C1986 C 0.86986 0.40899 0.92117 0.0
C1987 C 0.87031 0.36935 0.93507 0.0
C1988 C 0.88093 0.35593 0.95267 0.0
C1989 C 0.88603 0.36615 0.98214 0.0
C1990 C 0.89677 0.35397 0.99851 0.0
C1991 C 0.90217 0.33132 0.98572 0.0
C1992 C 0.89689 0.32081 0.95652 0.0
C1993 C 0.88634 0.33301 0.94002 0.0
H1994 H 0.91045 0.32193 0.99845 0.0
H1995 H 0.80678 0.44155 0.84061 0.0
H1996 H 0.68804 0.76473 0.76066 0.0
H1997 H 0.66477 0.79269 0.78519 0.0
H1998 H 0.7296 0.83289 0.8481 0.0
H1999 H 0.75331 0.80512 0.82279 0.0
H2000 H 0.68355 0.82468 0.87338 0.0
H2001 H 0.72068 0.86187 0.79668 0.0
H2002 H 0.73193 0.86371 0.74742 0.0
H2003 H 0.65037 0.83978 0.72179 0.0
H2004 H 0.63848 0.83696 0.77079 0.0
H2005 H 0.6372 0.93139 0.92811 0.0
H2006 H 0.6634 0.90509 0.90694 0.0
H2007 H 0.60208 0.86002 0.84105 0.0
H2008 H 0.5756 0.88605 0.86222 0.0
H2009 H 0.64921 0.87313 0.81851 0.0
H2010 H 0.61374 0.83376 0.89794 0.0
H2011 H 0.60563 0.83606 0.94866 0.0
H2012 H 0.68871 0.86994 0.97016 0.0
H2013 H 0.69724 0.86783 0.91964 0.0
C2014 C 0.69755 0.77969 0.77947 0.0
C2015 C 0.72277 0.78273 0.7894 0.0
C2016 C 0.6841 0.79567 0.79369 0.0
C2017 C 0.69543 0.8154 0.81842 0.0
C2018 C 0.72029 0.81793 0.82909 0.0
C2019 C 0.73383 0.80188 0.81467 0.0
C2020 C 0.68139 0.83348 0.83249 0.0
C2021 C 0.67637 0.8355 0.86138 0.0
C2022 C 0.67175 0.84771 0.81708 0.0
C2023 C 0.67866 0.84895 0.78742 0.0
C2024 C 0.70508 0.85665 0.7805 0.0
C2025 C 0.71158 0.85786 0.75263 0.0
C2026 C 0.69187 0.85179 0.73152 0.0
C2027 C 0.6656 0.84439 0.73819 0.0
C2028 C 0.65896 0.84292 0.76601 0.0
C2029 C 0.62899 0.91565 0.90936 0.0
C2030 C 0.604 0.911 0.89713 0.0
C2031 C 0.64415 0.90057 0.89714 0.0
C2032 C 0.6348 0.88019 0.87239 0.0
C2033 C 0.60995 0.87558 0.86006 0.0
C2034 C 0.59477 0.89064 0.87224 0.0
C2035 C 0.65085 0.86384 0.8592 0.0
C2036 C 0.65633 0.86221 0.83044 0.0
C2037 C 0.66127 0.85035 0.87483 0.0
C2038 C 0.65612 0.8508 0.90507 0.0
C2039 C 0.63025 0.84171 0.91352 0.0
C2040 C 0.62558 0.84295 0.94223 0.0
C2041 C 0.64662 0.85314 0.96265 0.0
C2042 C 0.67239 0.86196 0.95438 0.0
C2043 C 0.67717 0.86069 0.9257 0.0
H2044 H 0.64294 0.8542 0.98488 0.0
H2045 H 0.69701 0.853 0.71006 0.0
H2046 H 0.81628 0.69109 0.24248 0.0
H2047 H 0.84351 0.66793 0.21711 0.0
H2048 H 0.84644 0.70685 0.14851 0.0
H2049 H 0.82041 0.73132 0.17461 0.0
H2050 H 0.83333 0.64923 0.13108 0.0
H2051 H 0.89779 0.72678 0.18697 0.0
H2052 H 0.9226 0.76093 0.2286 0.0
H2053 H 0.93567 0.70104 0.26327 0.0
H2054 H 0.91007 0.6664 0.22235 0.0
H2055 H 0.92875 0.6015 0.05747 0.0
H2056 H 0.90389 0.62891 0.07997 0.0
H2057 H 0.91347 0.60995 0.15997 0.0
H2058 H 0.93854 0.58292 0.13771 0.0
H2059 H 0.92093 0.65979 0.16964 0.0
H2060 H 0.85356 0.58168 0.11544 0.0
H2061 H 0.83185 0.54791 0.0721 0.0
H2062 H 0.82583 0.60879 0.03368 0.0
H2063 H 0.84781 0.64297 0.07668 0.0
C2064 C 0.8227 0.69501 0.22206 0.0
C2065 C 0.81557 0.71319 0.21059 0.0
C2066 C 0.8384 0.68161 0.20753 0.0
C2067 C 0.84708 0.68546 0.18076 0.0
C2068 C 0.83993 0.70334 0.16905 0.0
C2069 C 0.82479 0.7173 0.18398 0.0
C2070 C 0.86323 0.6705 0.16499 0.0
C2071 C 0.85265 0.65181 0.13936 0.0
C2072 C 0.88827 0.67335 0.1759 0.0
C2073 C 0.90174 0.6939 0.20168 0.0
C2074 C 0.90545 0.72078 0.20373 0.0
C2075 C 0.9198 0.74028 0.22715 0.0
C2076 C 0.93079 0.73318 0.24852 0.0
C2077 C 0.92725 0.70654 0.24664 0.0
C2078 C 0.91268 0.68695 0.22344 0.0
C2079 C 0.9255 0.60307 0.07982 0.0
C2080 C 0.93594 0.58998 0.09565 0.0
C2081 C 0.91112 0.61875 0.09273 0.0
C2082 C 0.90633 0.62145 0.12179 0.0
C2083 C 0.91682 0.60844 0.1376 0.0
C2084 C 0.93135 0.59298 0.12478 0.0
C2085 C 0.89087 0.63804 0.13601 0.0
C2086 C 0.90158 0.6571 0.16138 0.0
C2087 C 0.86592 0.63542 0.12494 0.0
C2088 C 0.85258 0.6149 0.09915 0.0
C2089 C 0.84777 0.58788 0.09767 0.0
C2090 C 0.83539 0.56867 0.07318 0.0
C2091 C 0.82754 0.57621 0.05012 0.0
C2092 C 0.83197 0.60298 0.05154 0.0
C2093 C 0.84436 0.62228 0.07597 0.0
H2094 H 0.81796 0.56131 0.03118 0.0
H2095 H 0.94195 0.74831 0.26659 0.0
H2096 H 0.27098 0.77361 0.17401 0.0
H2097 H 0.293 0.79557 0.13691 0.0
H2098 H 0.35647 0.84843 0.19774 0.0
H2099 H 0.33432 0.82672 0.2351 0.0
H2100 H 0.30615 0.84805 0.1347 0.0
H2101 H 0.41391 0.86224 0.16147 0.0
H2102 H 0.43891 0.84049 0.18229 0.0
H2103 H 0.37464 0.76576 0.1586 0.0
H2104 H 0.34975 0.78677 0.1367 0.0
H2105 H 0.41148 0.9544 0.09858 0.0
H2106 H 0.37918 0.92127 0.11974 0.0
H2107 H 0.38578 0.85856 0.05245 0.0
H2108 H 0.4178 0.89183 0.03064 0.0
H2109 H 0.39702 0.85646 0.11013 0.0
H2110 H 0.33078 0.86417 0.05386 0.0
H2111 H 0.3071 0.88744 0.03358 0.0
H2112 H 0.28885 0.91979 0.1171 0.0
H2113 H 0.3128 0.89709 0.13796 0.0
C2114 C 0.28967 0.78989 0.17946 0.0
C2115 C 0.30088 0.79864 0.20745 0.0
C2116 C 0.30219 0.80239 0.15826 0.0
C2117 C 0.32634 0.82356 0.16459 0.0
C2118 C 0.33792 0.83194 0.1924 0.0
C2119 C 0.32533 0.81948 0.21367 0.0
C2120 C 0.33924 0.83725 0.14222 0.0
C2121 C 0.32597 0.84981 0.1292 0.0
C2122 C 0.36495 0.8392 0.13484 0.0
C2123 C 0.37988 0.82615 0.14762 0.0
C2124 C 0.40521 0.84111 0.1605 0.0
C2125 C 0.41941 0.8289 0.17244 0.0
C2126 C 0.40846 0.80175 0.17169 0.0
C2127 C 0.38325 0.78675 0.15907 0.0
C2128 C 0.36907 0.7988 0.14685 0.0
C2129 C 0.40569 0.93357 0.088 0.0
C2130 C 0.41728 0.92558 0.06317 0.0
C2131 C 0.38712 0.91472 0.09999 0.0
C2132 C 0.38011 0.88757 0.08758 0.0
C2133 C 0.3909 0.8795 0.06218 0.0
C2134 C 0.40913 0.89845 0.0498 0.0
C2135 C 0.36427 0.86792 0.10334 0.0
C2136 C 0.37703 0.85435 0.11529 0.0
C2137 C 0.33826 0.86536 0.10997 0.0
C2138 C 0.32381 0.87907 0.0975 0.0
C2139 C 0.32195 0.87645 0.06795 0.0
C2140 C 0.30842 0.88951 0.05633 0.0
C2141 C 0.29653 0.90513 0.07404 0.0
C2142 C 0.29809 0.9077 0.1034 0.0
C2143 C 0.31162 0.89471 0.11513 0.0
H2144 H 0.28606 0.91522 0.06501 0.0
H2145 H 0.41964 0.79243 0.1808 0.0
H2146 H 0.70411 0.21937 0.18905 0.0
H2147 H 0.66972 0.19316 0.15168 0.0
H2148 H 0.72258 0.15796 0.10725 0.0
H2149 H 0.75757 0.18557 0.1439 0.0
H2150 H 0.68966 0.16407 0.07025 0.0
H2151 H 0.6822 0.1275 0.15321 0.0
H2152 H 0.67977 0.12944 0.20459 0.0
H2153 H 0.60985 0.1481 0.20455 0.0
H2154 H 0.61198 0.14647 0.15316 0.0
H2155 H 0.59084 0.03268 0.01159 0.0
H2156 H 0.62957 0.07243 0.03117 0.0
H2157 H 0.57888 0.11316 0.07001 0.0
H2158 H 0.54046 0.07384 0.05045 0.0
H2159 H 0.61126 0.10558 0.10816 0.0
H2160 H 0.617 0.13825 0.0236 0.0
H2161 H 0.62223 0.14078 0.97344 0.0
H2162 H 0.69607 0.12986 0.9764 0.0
H2163 H 0.69113 0.12682 0.02644 0.0
C2164 C 0.70871 0.20698 0.17076 0.0
C2165 C 0.73347 0.20472 0.16922 0.0
C2166 C 0.68898 0.1917 0.14958 0.0
C2167 C 0.69351 0.17328 0.12699 0.0
C2168 C 0.7187 0.17205 0.12454 0.0
C2169 C 0.73858 0.18769 0.14555 0.0
C2170 C 0.67136 0.15338 0.10781 0.0
C2171 C 0.67259 0.15102 0.0784 0.0
C2172 C 0.64905 0.13669 0.11865 0.0
C2173 C 0.64734 0.13702 0.1494 0.0
C2174 C 0.66635 0.13208 0.16418 0.0
C2175 C 0.66502 0.13312 0.19329 0.0
C2176 C 0.64467 0.1389 0.20782 0.0
C2177 C 0.62558 0.14359 0.19325 0.0
C2178 C 0.6268 0.14256 0.16412 0.0
C2179 C 0.58809 0.05056 0.02325 0.0
C2180 C 0.56286 0.05032 0.02972 0.0
C2181 C 0.61015 0.07318 0.03447 0.0
C2182 C 0.60698 0.0956 0.05215 0.0
C2183 C 0.58168 0.09602 0.05646 0.0
C2184 C 0.5598 0.07356 0.04538 0.0
C2185 C 0.6293 0.11633 0.07039 0.0
C2186 C 0.62822 0.11863 0.09983 0.0
C2187 C 0.65174 0.13268 0.05946 0.0
C2188 C 0.65358 0.1321 0.02873 0.0
C2189 C 0.63411 0.13587 0.01343 0.0
C2190 C 0.6371 0.13756 0.98507 0.0
C2191 C 0.65955 0.13568 0.97191 0.0
C2192 C 0.67877 0.13146 0.98675 0.0
C2193 C 0.67587 0.12972 0.01508 0.0
H2194 H 0.66219 0.13765 0.95026 0.0
H2195 H 0.64369 0.13972 0.23036 0.0
H2196 H 0.68905 0.72259 0.78008 0.0
H2197 H 0.66656 0.70409 0.81908 0.0
H2198 H 0.70949 0.65065 0.80866 0.0
H2199 H 0.73314 0.67055 0.77096 0.0
H2200 H 0.63427 0.65928 0.81784 0.0
H2201 H 0.711 0.62637 0.86483 0.0
H2202 H 0.75842 0.64214 0.87799 0.0
H2203 H 0.76428 0.72282 0.88474 0.0
H2204 H 0.71679 0.7075 0.87175 0.0
H2205 H 0.5738 0.55313 0.88198 0.0
H2206 H 0.60238 0.58272 0.85449 0.0
H2207 H 0.63674 0.64139 0.93176 0.0
H2208 H 0.60827 0.61163 0.95963 0.0
H2209 H 0.67359 0.6361 0.89512 0.0
H2210 H 0.59279 0.65013 0.89196 0.0
H2211 H 0.54486 0.63738 0.88494 0.0
H2212 H 0.54752 0.60131 0.79727 0.0
H2213 H 0.59544 0.61348 0.80386 0.0
C2214 C 0.69411 0.70741 0.78676 0.0
C2215 C 0.71328 0.69844 0.77332 0.0
C2216 C 0.68119 0.69672 0.8089 0.0
C2217 C 0.68656 0.6762 0.81728 0.0
C2218 C 0.7056 0.66707 0.80346 0.0
C2219 C 0.71902 0.67831 0.78182 0.0
C2220 C 0.67048 0.66269 0.83841 0.0
C2221 C 0.64301 0.65449 0.83486 0.0
C2222 C 0.68166 0.65649 0.86087 0.0
C2223 C 0.71041 0.6658 0.86719 0.0
C2224 C 0.72242 0.64748 0.86904 0.0
C2225 C 0.74927 0.65631 0.87645 0.0
C2226 C 0.76427 0.68343 0.88225 0.0
C2227 C 0.75259 0.70179 0.88018 0.0
C2228 C 0.72573 0.69305 0.8727 0.0
C2229 C 0.58749 0.57228 0.89319 0.0
C2230 C 0.58872 0.58013 0.92297 0.0
C2231 C 0.60372 0.5892 0.87743 0.0
C2232 C 0.62133 0.61438 0.89109 0.0
C2233 C 0.62315 0.62206 0.92086 0.0
C2234 C 0.60689 0.60507 0.93671 0.0
C2235 C 0.63775 0.63255 0.87407 0.0
C2236 C 0.6651 0.64136 0.87829 0.0
C2237 C 0.62653 0.63981 0.85261 0.0
C2238 C 0.5977 0.63255 0.84847 0.0
C2239 C 0.58313 0.63931 0.87123 0.0
C2240 C 0.55597 0.63221 0.86732 0.0
C2241 C 0.54315 0.61851 0.84069 0.0
C2242 C 0.55748 0.61191 0.81789 0.0
C2243 C 0.58465 0.61893 0.82169 0.0
H2244 H 0.52211 0.61303 0.83771 0.0
H2245 H 0.78487 0.69017 0.88862 0.0
H2246 H 0.37481 0.70979 0.83302 0.0
H2247 H 0.40358 0.69923 0.863 0.0
H2248 H 0.3357 0.64947 0.89748 0.0
H2249 H 0.30703 0.66043 0.86818 0.0
H2250 H 0.37528 0.67466 0.9378 0.0
H2251 H 0.36358 0.62326 0.8412 0.0
H2252 H 0.36517 0.61685 0.78919 0.0
H2253 H 0.44847 0.65959 0.79843 0.0
H2254 H 0.44729 0.66658 0.85056 0.0
H2255 H 0.41808 0.56507 0.95 0.0
H2256 H 0.3955 0.59176 0.93493 0.0
H2257 H 0.46915 0.65735 0.94206 0.0
H2258 H 0.49173 0.63115 0.9581 0.0
H2259 H 0.43082 0.62912 0.88351 0.0
H2260 H 0.44237 0.6783 0.98069 0.0
H2261 H 0.43971 0.68596 0.0326 0.0
H2262 H 0.35602 0.64625 0.02202 0.0
H2263 H 0.35822 0.638 0.9699 0.0
C2264 C 0.36611 0.6972 0.84758 0.0
C2265 C 0.33868 0.68566 0.84799 0.0
C2266 C 0.38253 0.691 0.86452 0.0
C2267 C 0.37177 0.67312 0.88209 0.0
C2268 C 0.34447 0.66317 0.88401 0.0
C2269 C 0.3281 0.66933 0.86712 0.0
C2270 C 0.38849 0.66281 0.89649 0.0
C2271 C 0.38738 0.66466 0.9259 0.0
C2272 C 0.40454 0.65 0.88108 0.0
C2273 C 0.4053 0.64573 0.84977 0.0
C2274 C 0.3822 0.63147 0.83214 0.0
C2275 C 0.38303 0.62771 0.80265 0.0
C2276 C 0.40689 0.63788 0.79052 0.0
C2277 C 0.42999 0.65178 0.80786 0.0
C2278 C 0.42926 0.65565 0.83738 0.0
C2279 C 0.42935 0.58537 0.9489 0.0
C2280 C 0.45663 0.5961 0.95539 0.0
C2281 C 0.41645 0.60059 0.9404 0.0
C2282 C 0.43068 0.62655 0.93764 0.0
C2283 C 0.45782 0.63747 0.94445 0.0
C2284 C 0.47065 0.6225 0.95365 0.0
C2285 C 0.41756 0.64102 0.92468 0.0
C2286 C 0.41909 0.63956 0.89544 0.0
C2287 C 0.40182 0.654 0.94021 0.0
C2288 C 0.40051 0.65724 0.97138 0.0
C2289 C 0.42346 0.6707 0.98939 0.0
C2290 C 0.42202 0.67527 0.01885 0.0
C2291 C 0.39772 0.66661 0.03057 0.0
C2292 C 0.37483 0.65296 0.01287 0.0
C2293 C 0.37616 0.64833 0.98337 0.0
H2294 H 0.39662 0.67074 0.05335 0.0
H2295 H 0.4075 0.63494 0.76768 0.0
H2296 H 0.34063 0.28144 0.80382 0.0
H2297 H 0.36165 0.3094 0.84953 0.0
H2298 H 0.306 0.34952 0.85509 0.0
H2299 H 0.28711 0.32353 0.80779 0.0
H2300 H 0.34794 0.38409 0.86629 0.0
H2301 H 0.31217 0.30948 0.90468 0.0
H2302 H 0.29813 0.26303 0.90927 0.0
H2303 H 0.37852 0.26863 0.91284 0.0
H2304 H 0.3931 0.31499 0.90784 0.0
H2305 H 0.44821 0.45113 0.99265 0.0
H2306 H 0.40703 0.414 0.97485 0.0
H2307 H 0.43383 0.40804 0.89 0.0
H2308 H 0.47466 0.44493 0.90746 0.0
H2309 H 0.3935 0.35815 0.93606 0.0
H2310 H 0.38917 0.41974 0.85434 0.0
H2311 H 0.40243 0.46713 0.85342 0.0
H2312 H 0.39495 0.48709 0.94332 0.0
H2313 H 0.38129 0.43982 0.94474 0.0
C2314 C 0.33269 0.29595 0.81516 0.0
C2315 C 0.31205 0.30012 0.80274 0.0
C2316 C 0.34442 0.31169 0.84154 0.0
C2317 C 0.33511 0.33131 0.85635 0.0
C2318 C 0.31358 0.33454 0.84429 0.0
C2319 C 0.30263 0.31957 0.81736 0.0
C2320 C 0.35061 0.35112 0.88168 0.0
C2321 C 0.35719 0.3782 0.88195 0.0
C2322 C 0.36232 0.34385 0.90292 0.0
C2323 C 0.35375 0.31588 0.90599 0.0
C2324 C 0.32688 0.30082 0.90632 0.0
C2325 C 0.31882 0.27448 0.909 0.0
C2326 C 0.33744 0.26294 0.91146 0.0
C2327 C 0.36414 0.27766 0.91108 0.0
C2328 C 0.37232 0.30401 0.90841 0.0
C2329 C 0.44548 0.44154 0.97033 0.0
C2330 C 0.46438 0.45119 0.95134 0.0
C2331 C 0.42206 0.42029 0.96027 0.0
C2332 C 0.41748 0.40863 0.93116 0.0
C2333 C 0.43709 0.41703 0.91256 0.0
C2334 C 0.46032 0.43818 0.92253 0.0
C2335 C 0.39135 0.3901 0.9189 0.0
C2336 C 0.38301 0.36358 0.92108 0.0
C2337 C 0.37715 0.39782 0.90066 0.0
C2338 C 0.38425 0.42619 0.89964 0.0
C2339 C 0.3901 0.43419 0.87387 0.0
C2340 C 0.39778 0.46106 0.87328 0.0
C2341 C 0.39962 0.48013 0.89832 0.0
C2342 C 0.39364 0.47234 0.92397 0.0
C2343 C 0.38593 0.44551 0.92467 0.0
H2344 H 0.40566 0.50092 0.89784 0.0
H2345 H 0.33122 0.24263 0.91372 0.0
H2346 H 0.62722 0.25498 0.89143 0.0
H2347 H 0.62205 0.28838 0.93148 0.0
H2348 H 0.64579 0.34694 0.88075 0.0
H2349 H 0.65024 0.31397 0.84062 0.0
H2350 H 0.65662 0.34972 0.96024 0.0
H2351 H 0.59089 0.35975 0.877 0.0
H2352 H 0.56388 0.33263 0.83303 0.0
H2353 H 0.54758 0.26209 0.86471 0.0
H2354 H 0.57416 0.28887 0.90901 0.0
H2355 H 0.62963 0.47036 0.98295 0.0
H2356 H 0.64361 0.43186 0.97377 0.0
H2357 H 0.56432 0.38073 0.98193 0.0
H2358 H 0.55027 0.41886 0.98964 0.0
H2359 H 0.57839 0.36692 0.93252 0.0
H2360 H 0.61707 0.39034 0.02462 0.0
H2361 H 0.64456 0.41546 0.06852 0.0
H2362 H 0.714 0.41966 0.02361 0.0
H2363 H 0.68694 0.39464 0.9793 0.0
C2364 C 0.63174 0.27507 0.88893 0.0
C2365 C 0.63899 0.28167 0.86265 0.0
C2366 C 0.62918 0.29419 0.91199 0.0
C2367 C 0.63371 0.32004 0.90898 0.0
C2368 C 0.64256 0.32711 0.88349 0.0
C2369 C 0.64505 0.30813 0.86052 0.0
C2370 C 0.62427 0.33819 0.92958 0.0
C2371 C 0.63948 0.35363 0.95464 0.0
C2372 C 0.60148 0.3424 0.92228 0.0
C2373 C 0.58462 0.32628 0.89619 0.0
C2374 C 0.58137 0.33848 0.87464 0.0
C2375 C 0.56618 0.32317 0.84965 0.0
C2376 C 0.55407 0.29564 0.84605 0.0
C2377 C 0.55702 0.28339 0.86749 0.0
C2378 C 0.57216 0.29863 0.89253 0.0
C2379 C 0.61555 0.45101 0.98396 0.0
C2380 C 0.58899 0.44737 0.98725 0.0
C2381 C 0.62351 0.42906 0.97881 0.0
C2382 C 0.60496 0.40339 0.9772 0.0
C2383 C 0.57893 0.40035 0.98327 0.0
C2384 C 0.57094 0.42211 0.98787 0.0
C2385 C 0.61107 0.37961 0.96349 0.0
C2386 C 0.59526 0.36306 0.93916 0.0
C2387 C 0.63318 0.3745 0.97192 0.0
C2388 C 0.64977 0.39038 0.99845 0.0
C2389 C 0.63817 0.39664 0.02397 0.0
C2390 C 0.65372 0.41094 0.04899 0.0
C2391 C 0.68103 0.41923 0.04885 0.0
C2392 C 0.69283 0.41323 0.02368 0.0
C2393 C 0.67734 0.39889 0.9986 0.0
H2394 H 0.69305 0.43022 0.06827 0.0
H2395 H 0.54237 0.28382 0.82666 0.0
H2396 H 0.66247 0.29365 0.11905 0.0
H2397 H 0.62818 0.29987 0.09227 0.0
H2398 H 0.62396 0.36079 0.16334 0.0
H2399 H 0.6576 0.35429 0.19013 0.0
H2400 H 0.57609 0.33048 0.14035 0.0
H2401 H 0.66076 0.37356 0.1071 0.0
H2402 H 0.70252 0.3774 0.08481 0.0
H2403 H 0.66042 0.32746 0.00664 0.0
H2404 H 0.61835 0.32253 0.02876 0.0
H2405 H 0.54614 0.42795 0.09382 0.0
H2406 H 0.56524 0.39997 0.11121 0.0
H2407 H 0.54602 0.34429 0.02983 0.0
H2408 H 0.5263 0.37224 0.0123 0.0
H2409 H 0.59826 0.3595 0.05023 0.0
H2410 H 0.51435 0.31968 0.08298 0.0
H2411 H 0.47269 0.3172 0.10504 0.0
H2412 H 0.51516 0.36679 0.18316 0.0
H2413 H 0.55711 0.36898 0.16175 0.0
C2414 C 0.65378 0.30796 0.12907 0.0
C2415 C 0.66279 0.32361 0.15659 0.0
C2416 C 0.63438 0.31165 0.1137 0.0
C2417 C 0.6237 0.33103 0.12567 0.0
C2418 C 0.63189 0.34575 0.15361 0.0
C2419 C 0.65124 0.34214 0.16886 0.0
C2420 C 0.60494 0.33719 0.10905 0.0
C2421 C 0.58111 0.337 0.12072 0.0
C2422 C 0.61096 0.34486 0.08286 0.0
C2423 C 0.63634 0.34709 0.06986 0.0
C2424 C 0.66036 0.36288 0.08536 0.0
C2425 C 0.68412 0.36532 0.07273 0.0
C2426 C 0.68413 0.35249 0.04441 0.0
C2427 C 0.66039 0.33718 0.02866 0.0
C2428 C 0.63658 0.33447 0.04128 0.0
C2429 C 0.54594 0.40976 0.07955 0.0
C2430 C 0.53516 0.40257 0.05148 0.0
C2431 C 0.55659 0.3936 0.08965 0.0
C2432 C 0.55685 0.36991 0.07192 0.0
C2433 C 0.54585 0.36241 0.04393 0.0
C2434 C 0.53467 0.3784 0.03394 0.0
C2435 C 0.57057 0.3545 0.08248 0.0
C2436 C 0.59331 0.35277 0.06966 0.0
C2437 C 0.56387 0.34552 0.10774 0.0
C2438 C 0.53883 0.34461 0.12072 0.0
C2439 C 0.5148 0.33015 0.10483 0.0
C2440 C 0.49114 0.32871 0.11724 0.0
C2441 C 0.49127 0.34203 0.1454 0.0
C2442 C 0.51508 0.35653 0.16133 0.0
C2443 C 0.53881 0.3577 0.14914 0.0
H2444 H 0.47291 0.34103 0.1549 0.0
H2445 H 0.70254 0.35459 0.03459 0.0
H2446 H 0.72823 0.66974 0.20097 0.0
H2447 H 0.69472 0.64447 0.16243 0.0
H2448 H 0.67679 0.71476 0.16303 0.0
H2449 H 0.70675 0.73831 0.20452 0.0
H2450 H 0.63555 0.6804 0.15904 0.0
H2451 H 0.70905 0.6805 0.1024 0.0
H2452 H 0.75053 0.67424 0.08821 0.0
H2453 H 0.71741 0.59255 0.09347 0.0
H2454 H 0.67553 0.59802 0.10688 0.0
H2455 H 0.56586 0.57312 0.02048 0.0
H2456 H 0.60459 0.61059 0.04423 0.0
H2457 H 0.57608 0.59795 0.12568 0.0
H2458 H 0.53745 0.5611 0.10226 0.0
H2459 H 0.64255 0.61039 0.07871 0.0
H2460 H 0.59012 0.65384 0.17277 0.0
H2461 H 0.54813 0.66102 0.17981 0.0
H2462 H 0.54178 0.6627 0.09198 0.0
H2463 H 0.58384 0.65586 0.08446 0.0
C2464 C 0.71713 0.67973 0.19275 0.0
C2465 C 0.72088 0.70638 0.20506 0.0
C2466 C 0.69831 0.66542 0.17026 0.0
C2467 C 0.68364 0.67781 0.15892 0.0
C2468 C 0.6879 0.70464 0.17099 0.0
C2469 C 0.70565 0.71845 0.19435 0.0
C2470 C 0.66174 0.66218 0.13701 0.0
C2471 C 0.63743 0.6655 0.14123 0.0
C2472 C 0.66388 0.6429 0.11327 0.0
C2473 C 0.68923 0.63973 0.10582 0.0
C2474 C 0.71068 0.66125 0.10069 0.0
C2475 C 0.73423 0.65784 0.09274 0.0
C2476 C 0.73669 0.63315 0.09028 0.0
C2477 C 0.7155 0.61169 0.09545 0.0
C2478 C 0.6918 0.61487 0.10301 0.0
C2479 C 0.56775 0.57865 0.04342 0.0
C2480 C 0.54869 0.56423 0.05951 0.0
C2481 C 0.58987 0.59992 0.05692 0.0
C2482 C 0.59302 0.60712 0.08666 0.0
C2483 C 0.57378 0.59299 0.10269 0.0
C2484 C 0.55175 0.57185 0.08926 0.0
C2485 C 0.61687 0.62852 0.10145 0.0
C2486 C 0.64128 0.62608 0.09602 0.0
C2487 C 0.61513 0.64931 0.12337 0.0
C2488 C 0.59013 0.65422 0.12804 0.0
C2489 C 0.57988 0.65596 0.15501 0.0
C2490 C 0.55601 0.65989 0.15906 0.0
C2491 C 0.54225 0.66223 0.13634 0.0
C2492 C 0.55239 0.66078 0.10954 0.0
C2493 C 0.57623 0.65684 0.10537 0.0
H2494 H 0.52374 0.66519 0.1395 0.0
H2495 H 0.75497 0.63061 0.08422 0.0
H2496 H 0.40518 0.74337 0.16144 0.0
H2497 H 0.40658 0.7101 0.11966 0.0
H2498 H 0.35117 0.64849 0.15444 0.0
H2499 H 0.34987 0.6814 0.19659 0.0
H2500 H 0.42162 0.66706 0.11784 0.0
H2501 H 0.31198 0.60127 0.10049 0.0
H2502 H 0.26926 0.60637 0.10957 0.0
H2503 H 0.30196 0.68719 0.1009 0.0
H2504 H 0.34481 0.68247 0.09136 0.0
H2505 H 0.36602 0.52478 0.04519 0.0
H2506 H 0.35411 0.56331 0.06502 0.0
H2507 H 0.41624 0.61147 0.02218 0.0
H2508 H 0.42977 0.57361 0.00457 0.0
H2509 H 0.34264 0.60421 0.05703 0.0
H2510 H 0.45296 0.6659 0.06952 0.0
H2511 H 0.49519 0.6588 0.06513 0.0
H2512 H 0.46023 0.58416 0.0892 0.0
H2513 H 0.41795 0.59102 0.09409 0.0
C2514 C 0.39319 0.72282 0.16037 0.0
C2515 C 0.377 0.71534 0.18242 0.0
C2516 C 0.394 0.70383 0.13633 0.0
C2517 C 0.37862 0.67696 0.13376 0.0
C2518 C 0.36269 0.66926 0.15572 0.0
C2519 C 0.36191 0.68821 0.1798 0.0
C2520 C 0.38021 0.65669 0.10883 0.0
C2521 C 0.40449 0.65371 0.10411 0.0
C2522 C 0.35769 0.63894 0.09142 0.0
C2523 C 0.33165 0.64155 0.09543 0.0
C2524 C 0.30999 0.62004 0.10024 0.0
C2525 C 0.28578 0.62289 0.10554 0.0
C2526 C 0.28296 0.64712 0.10597 0.0
C2527 C 0.30423 0.66847 0.10069 0.0
C2528 C 0.32848 0.66572 0.09535 0.0
C2529 C 0.37672 0.54342 0.03939 0.0
C2530 C 0.39935 0.54638 0.02407 0.0
C2531 C 0.3697 0.56539 0.05049 0.0
C2532 C 0.38496 0.59046 0.04597 0.0
C2533 C 0.40465 0.59239 0.02654 0.0
C2534 C 0.41217 0.57059 0.01611 0.0
C2535 C 0.38405 0.61454 0.06609 0.0
C2536 C 0.3599 0.61804 0.07022 0.0
C2537 C 0.40662 0.63259 0.08339 0.0
C2538 C 0.43225 0.62884 0.08179 0.0
C2539 C 0.45435 0.64805 0.07399 0.0
C2540 C 0.47828 0.64406 0.07141 0.0
C2541 C 0.48036 0.621 0.07677 0.0
C2542 C 0.45859 0.60199 0.08499 0.0
C2543 C 0.43465 0.60594 0.08771 0.0
H2544 H 0.49885 0.61787 0.07461 0.0
H2545 H 0.2643 0.64935 0.11047 0.0
H2546 H 0.35208 0.28506 0.22908 0.0
H2547 H 0.38612 0.31923 0.21061 0.0
H2548 H 0.32948 0.3541 0.19657 0.0
H2549 H 0.29573 0.32068 0.21549 0.0
H2550 H 0.38829 0.328 0.15888 0.0
H2551 H 0.3564 0.419 0.20491 0.0
H2552 H 0.34018 0.43752 0.24948 0.0
H2553 H 0.3747 0.39792 0.29512 0.0
H2554 H 0.39154 0.37953 0.25095 0.0
H2555 H 0.40849 0.41124 0.0659 0.0
H2556 H 0.39005 0.38416 0.10021 0.0
H2557 H 0.44812 0.44078 0.16475 0.0
H2558 H 0.46638 0.46828 0.13072 0.0
H2559 H 0.40114 0.42395 0.18591 0.0
H2560 H 0.45635 0.38538 0.13272 0.0
H2561 H 0.47493 0.36878 0.08899 0.0
H2562 H 0.40111 0.30493 0.06252 0.0
H2563 H 0.38174 0.32172 0.10558 0.0
C2564 C 0.34703 0.3003 0.2225 0.0
C2565 C 0.32122 0.30017 0.22369 0.0
C2566 C 0.36646 0.31971 0.21188 0.0
C2567 C 0.36037 0.33933 0.20254 0.0
C2568 C 0.33474 0.33946 0.20421 0.0
C2569 C 0.3154 0.3202 0.21485 0.0
C2570 C 0.38002 0.35871 0.18912 0.0
C2571 C 0.39142 0.34903 0.16498 0.0
C2572 C 0.38476 0.38626 0.19769 0.0
C2573 C 0.37516 0.39778 0.22452 0.0
C2574 C 0.36074 0.41441 0.22447 0.0
C2575 C 0.35138 0.42486 0.24968 0.0
C2576 C 0.35637 0.41887 0.27511 0.0
C2577 C 0.3708 0.4025 0.2754 0.0
C2578 C 0.38023 0.39204 0.25028 0.0
C2579 C 0.41718 0.41804 0.08745 0.0
C2580 C 0.43893 0.44176 0.09561 0.0
C2581 C 0.40674 0.40251 0.10697 0.0
C2582 C 0.4181 0.41029 0.13481 0.0
C2583 C 0.43922 0.43442 0.14331 0.0
C2584 C 0.4496 0.45005 0.12383 0.0
C2585 C 0.40792 0.3929 0.15481 0.0
C2586 C 0.39849 0.40302 0.1802 0.0
C2587 C 0.40567 0.36591 0.14782 0.0
C2588 C 0.4175 0.35497 0.12238 0.0
C2589 C 0.44398 0.36793 0.11749 0.0
C2590 C 0.45463 0.35855 0.09274 0.0
C2591 C 0.43918 0.33586 0.07295 0.0
C2592 C 0.41305 0.32252 0.07787 0.0
C2593 C 0.4022 0.332 0.10244 0.0
H2594 H 0.44751 0.32856 0.05386 0.0
H2595 H 0.34907 0.42694 0.29458 0.0
H2596 H 0.81011 0.7139 0.66066 0.0
H2597 H 0.83653 0.68881 0.63664 0.0
H2598 H 0.82688 0.64773 0.70458 0.0
H2599 H 0.80075 0.67285 0.7287 0.0
H2600 H 0.8749 0.66029 0.69243 0.0
H2601 H 0.79414 0.617 0.63379 0.0
H2602 H 0.7571 0.61069 0.60117 0.0
H2603 H 0.81106 0.64568 0.54272 0.0
H2604 H 0.84842 0.65213 0.57498 0.0
H2605 H 0.91812 0.5553 0.62584 0.0
H2606 H 0.89338 0.58268 0.64811 0.0
H2607 H 0.9077 0.62268 0.57902 0.0
H2608 H 0.93245 0.59517 0.55648 0.0
H2609 H 0.85905 0.61259 0.59114 0.0
H2610 H 0.9398 0.65192 0.64846 0.0
H2611 H 0.97614 0.65329 0.67896 0.0
H2612 H 0.92187 0.62456 0.74012 0.0
H2613 H 0.88509 0.62249 0.70973 0.0
C2614 C 0.81332 0.69932 0.67037 0.0
C2615 C 0.80291 0.69538 0.69662 0.0
C2616 C 0.82849 0.68483 0.65651 0.0
C2617 C 0.83367 0.66588 0.66842 0.0
C2618 C 0.82337 0.6621 0.69471 0.0
C2619 C 0.80827 0.67655 0.70855 0.0
C2620 C 0.85041 0.6506 0.65424 0.0
C2621 C 0.87112 0.6496 0.67034 0.0
C2622 C 0.84638 0.63714 0.62515 0.0
C2623 C 0.82404 0.63526 0.6069 0.0
C2624 C 0.79809 0.62367 0.61416 0.0
C2625 C 0.77705 0.61988 0.59563 0.0
C2626 C 0.78175 0.62767 0.56983 0.0
C2627 C 0.80747 0.63957 0.56266 0.0
C2628 C 0.82857 0.64325 0.58102 0.0
C2629 C 0.91642 0.57017 0.61547 0.0
C2630 C 0.92768 0.57299 0.58931 0.0
C2631 C 0.90215 0.58593 0.62834 0.0
C2632 C 0.89886 0.60531 0.61571 0.0
C2633 C 0.90986 0.60803 0.58945 0.0
C2634 C 0.92404 0.59215 0.57646 0.0
C2635 C 0.88331 0.62208 0.62937 0.0
C2636 C 0.8629 0.6234 0.61319 0.0
C2637 C 0.88759 0.63577 0.6584 0.0
C2638 C 0.90965 0.63681 0.67665 0.0
C2639 C 0.93557 0.64565 0.66828 0.0
C2640 C 0.95625 0.64656 0.68556 0.0
C2641 C 0.9513 0.63891 0.7114 0.0
C2642 C 0.92565 0.63037 0.72004 0.0
C2643 C 0.90488 0.62933 0.7028 0.0
H2644 H 0.96735 0.63967 0.72477 0.0
H2645 H 0.76546 0.6245 0.55536 0.0
H2646 H 0.26634 0.79987 0.66996 0.0
H2647 H 0.29083 0.83245 0.64323 0.0
H2648 H 0.35338 0.86656 0.70927 0.0
H2649 H 0.32838 0.83474 0.73682 0.0
H2650 H 0.34365 0.90445 0.68819 0.0
H2651 H 0.35407 0.8193 0.64968 0.0
H2652 H 0.33692 0.7713 0.62758 0.0
H2653 H 0.30308 0.78584 0.55652 0.0
H2654 H 0.31949 0.83391 0.57841 0.0
H2655 H 0.45784 0.96563 0.62453 0.0
H2656 H 0.42275 0.93801 0.64829 0.0
H2657 H 0.37347 0.90758 0.57043 0.0
H2658 H 0.40906 0.93466 0.54618 0.0
H2659 H 0.37021 0.86879 0.59382 0.0
H2660 H 0.36239 0.95257 0.62704 0.0
H2661 H 0.37643 0.00076 0.64747 0.0
H2662 H 0.40164 0.98992 0.72589 0.0
H2663 H 0.38819 0.9417 0.70578 0.0
C2664 C 0.28523 0.81442 0.67894 0.0
C2665 C 0.29583 0.81432 0.70517 0.0
C2666 C 0.2992 0.83297 0.66357 0.0
C2667 C 0.32414 0.85149 0.67399 0.0
C2668 C 0.33423 0.85223 0.70076 0.0
C2669 C 0.32013 0.83384 0.71629 0.0
C2670 C 0.3404 0.8692 0.65646 0.0
C2671 C 0.34967 0.89674 0.66764 0.0
C2672 C 0.34719 0.85905 0.6291 0.0
C2673 C 0.33776 0.83018 0.61584 0.0
C2674 C 0.34282 0.81226 0.62944 0.0
C2675 C 0.33325 0.78504 0.61696 0.0
C2676 C 0.31891 0.77552 0.59073 0.0
C2677 C 0.31415 0.79322 0.57686 0.0
C2678 C 0.32356 0.82046 0.5893 0.0
C2679 C 0.43952 0.9531 0.61246 0.0
C2680 C 0.43614 0.95228 0.58353 0.0
C2681 C 0.41938 0.93749 0.62613 0.0
C2682 C 0.39527 0.92115 0.61131 0.0
C2683 C 0.39187 0.92018 0.58232 0.0
C2684 C 0.41219 0.93559 0.5685 0.0
C2685 C 0.37428 0.90414 0.62593 0.0
C2686 C 0.36402 0.87669 0.61418 0.0
C2687 C 0.36624 0.91443 0.65255 0.0
C2688 C 0.37443 0.94348 0.66479 0.0
C2689 C 0.37113 0.96046 0.64856 0.0
C2690 C 0.37896 0.9878 0.6601 0.0
C2691 C 0.38996 0.9984 0.68794 0.0
C2692 C 0.39313 0.98168 0.70432 0.0
C2693 C 0.38538 0.95433 0.69286 0.0
H2694 H 0.39599 0.01957 0.69684 0.0
H2695 H 0.31154 0.75442 0.58114 0.0
H2696 H 0.20157 0.33432 0.64111 0.0
H2697 H 0.175 0.34968 0.61383 0.0
H2698 H 0.11936 0.3435 0.67891 0.0
H2699 H 0.14531 0.32737 0.7057 0.0
H2700 H 0.09425 0.32906 0.6281 0.0
H2701 H 0.16892 0.40259 0.67772 0.0
H2702 H 0.21602 0.42772 0.69079 0.0
H2703 H 0.22975 0.43156 0.60387 0.0
H2704 H 0.18274 0.40609 0.59021 0.0
H2705 H 0.03801 0.42376 0.61581 0.0
H2706 H 0.06291 0.39997 0.6322 0.0
H2707 H 0.10906 0.40623 0.55892 0.0
H2708 H 0.08441 0.43044 0.54256 0.0
H2709 H 0.13944 0.41837 0.60862 0.0
H2710 H 0.06236 0.3482 0.56074 0.0
H2711 H 0.01477 0.32441 0.54977 0.0
H2712 H 1.00504 0.31564 0.63577 0.0
H2713 H 0.05254 0.33973 0.64737 0.0
C2714 C 0.18332 0.33556 0.64921 0.0
C2715 C 0.17571 0.32993 0.67573 0.0
C2716 C 0.16828 0.34461 0.63375 0.0
C2717 C 0.14545 0.3483 0.64461 0.0
C2718 C 0.13696 0.34101 0.67016 0.0
C2719 C 0.15192 0.33194 0.68555 0.0
C2720 C 0.13127 0.36138 0.63056 0.0
C2721 C 0.10412 0.34863 0.62397 0.0
C2722 C 0.14416 0.38677 0.62472 0.0
C2723 C 0.17239 0.40217 0.63289 0.0
C2724 C 0.18202 0.40862 0.66136 0.0
C2725 C 0.20869 0.42295 0.66888 0.0
C2726 C 0.22588 0.43116 0.64816 0.0
C2727 C 0.21642 0.42513 0.61988 0.0
C2728 C 0.18977 0.41075 0.61224 0.0
C2729 C 0.0536 0.42029 0.60329 0.0
C2730 C 0.05922 0.429 0.57786 0.0
C2731 C 0.06766 0.40646 0.61255 0.0
C2732 C 0.08764 0.40103 0.59661 0.0
C2733 C 0.09362 0.41007 0.57147 0.0
C2734 C 0.07943 0.42377 0.56208 0.0
C2735 C 0.10241 0.38616 0.60647 0.0
C2736 C 0.12965 0.39862 0.61236 0.0
C2737 C 0.08955 0.36063 0.61193 0.0
C2738 C 0.06099 0.34596 0.60497 0.0
C2739 C 0.05005 0.34137 0.57737 0.0
C2740 C 0.02309 0.3278 0.57103 0.0
C2741 C 1.00689 0.31857 0.59207 0.0
C2742 C 0.01762 0.32282 0.61949 0.0
C2743 C 0.04456 0.33641 0.62595 0.0
H2744 H 0.98602 0.30807 0.58713 0.0
H2745 H 0.24653 0.44226 0.65402 0.0
H2746 H 0.68454 0.18838 0.69247 0.0
H2747 H 0.66626 0.16371 0.64442 0.0
H2748 H 0.73586 0.21039 0.60957 0.0
H2749 H 0.75496 0.23398 0.65783 0.0
H2750 H 0.66085 0.18719 0.59365 0.0
H2751 H 0.74631 0.17665 0.57857 0.0
H2752 H 0.78662 0.17371 0.59719 0.0
H2753 H 0.74036 0.10601 0.62915 0.0
H2754 H 0.69971 0.10917 0.61151 0.0
H2755 H 0.57884 0.07354 0.49738 0.0
H2756 H 0.62175 0.10996 0.50768 0.0
H2757 H 0.63527 0.08266 0.58099 0.0
H2758 H 0.59308 0.04595 0.57005 0.0
H2759 H 0.68181 0.10595 0.55772 0.0
H2760 H 0.60088 0.12466 0.58662 0.0
H2761 H 0.55803 0.12649 0.57411 0.0
H2762 H 0.59474 0.17749 0.51805 0.0
H2763 H 0.63776 0.17568 0.53006 0.0
C2764 C 0.69594 0.19322 0.67453 0.0
C2765 C 0.72123 0.21257 0.67866 0.0
C2766 C 0.68551 0.17928 0.64718 0.0
C2767 C 0.69997 0.18493 0.62357 0.0
C2768 C 0.72478 0.20518 0.62755 0.0
C2769 C 0.73558 0.21864 0.65503 0.0
C2770 C 0.68885 0.16818 0.59531 0.0
C2771 C 0.66605 0.16999 0.58464 0.0
C2772 C 0.69567 0.14577 0.58389 0.0
C2773 C 0.71998 0.14348 0.5942 0.0
C2774 C 0.74473 0.1615 0.59011 0.0
C2775 C 0.76764 0.15977 0.60043 0.0
C2776 C 0.76606 0.13979 0.61452 0.0
C2777 C 0.74155 0.12153 0.61831 0.0
C2778 C 0.71857 0.12332 0.6082 0.0
C2779 C 0.59167 0.07468 0.51479 0.0
C2780 C 0.58305 0.05698 0.53278 0.0
C2781 C 0.61602 0.09553 0.52078 0.0
C2782 C 0.63166 0.09905 0.54514 0.0
C2783 C 0.62369 0.08019 0.56193 0.0
C2784 C 0.59948 0.05943 0.55591 0.0
C2785 C 0.65325 0.12455 0.55685 0.0
C2786 C 0.67767 0.12406 0.56477 0.0
C2787 C 0.64801 0.14831 0.56574 0.0
C2788 C 0.62237 0.14987 0.55901 0.0
C2789 C 0.59974 0.13622 0.5716 0.0
C2790 C 0.57545 0.13723 0.56459 0.0
C2791 C 0.57366 0.15206 0.54525 0.0
C2792 C 0.59616 0.16598 0.53297 0.0
C2793 C 0.62049 0.16497 0.53986 0.0
H2794 H 0.55484 0.1528 0.53982 0.0
H2795 H 0.7838 0.13835 0.62235 0.0
H2796 H 0.76135 0.28405 0.3348 0.0
H2797 H 0.79091 0.30804 0.37753 0.0
H2798 H 0.85757 0.31935 0.32572 0.0
H2799 H 0.82801 0.29608 0.28331 0.0
H2800 H 0.86853 0.31134 0.37786 0.0
H2801 H 0.82918 0.36461 0.33833 0.0
H2802 H 0.79075 0.37346 0.32362 0.0
H2803 H 0.76457 0.37737 0.40825 0.0
H2804 H 0.80273 0.36819 0.42333 0.0
H2805 H 0.94953 0.45457 0.41303 0.0
H2806 H 0.90738 0.41912 0.39628 0.0
H2807 H 0.91246 0.38339 0.46583 0.0
H2808 H 0.95513 0.41902 0.48248 0.0
H2809 H 0.85915 0.39824 0.41755 0.0
H2810 H 0.8916 0.31531 0.43445 0.0
H2811 H 0.93201 0.30718 0.44368 0.0
H2812 H 0.97549 0.36528 0.39756 0.0
H2813 H 0.93527 0.37346 0.38778 0.0
C2814 C 0.78239 0.29111 0.33283 0.0
C2815 C 0.79269 0.28768 0.30605 0.0
C2816 C 0.79918 0.30466 0.35714 0.0
C2817 C 0.82641 0.31534 0.35476 0.0
C2818 C 0.83667 0.31079 0.32808 0.0
C2819 C 0.81987 0.29724 0.30387 0.0
C2820 C 0.84405 0.33464 0.37879 0.0
C2821 C 0.86619 0.33009 0.38713 0.0
C2822 C 0.84105 0.35915 0.39067 0.0
C2823 C 0.8186 0.36546 0.38186 0.0
C2824 C 0.81516 0.36728 0.35375 0.0
C2825 C 0.79343 0.37232 0.34535 0.0
C2826 C 0.77517 0.37589 0.36497 0.0
C2827 C 0.77869 0.37455 0.39307 0.0
C2828 C 0.80037 0.36943 0.40156 0.0
C2829 C 0.94132 0.43943 0.42504 0.0
C2830 C 0.95521 0.43944 0.44907 0.0
C2831 C 0.91721 0.41934 0.41563 0.0
C2832 C 0.90682 0.39867 0.42983 0.0
C2833 C 0.92014 0.39926 0.45469 0.0
C2834 C 0.94431 0.41961 0.46426 0.0
C2835 C 0.88397 0.3752 0.41608 0.0
C2836 C 0.86088 0.37899 0.40952 0.0
C2837 C 0.88635 0.3502 0.40538 0.0
C2838 C 0.91055 0.34523 0.41076 0.0
C2839 C 0.9098 0.32629 0.42627 0.0
C2840 C 0.93265 0.32167 0.43157 0.0
C2841 C 0.95633 0.33578 0.42131 0.0
C2842 C 0.95717 0.35444 0.40559 0.0
C2843 C 0.93436 0.35908 0.40018 0.0
H2844 H 0.974 0.33221 0.42548 0.0
H2845 H 0.75834 0.37975 0.35842 0.0
H2846 H 0.70753 0.79252 0.26717 0.0
H2847 H 0.68022 0.8162 0.29137 0.0
H2848 H 0.71974 0.82609 0.37173 0.0
H2849 H 0.74605 0.8009 0.34755 0.0
H2850 H 0.67181 0.81859 0.38089 0.0
H2851 H 0.73302 0.87781 0.33111 0.0
H2852 H 0.75617 0.89066 0.2893 0.0
H2853 H 0.68289 0.87769 0.24653 0.0
H2854 H 0.65925 0.86449 0.28798 0.0
H2855 H 0.62699 0.9225 0.45155 0.0
H2856 H 0.65321 0.89613 0.43053 0.0
H2857 H 0.61199 0.8782 0.34915 0.0
H2858 H 0.58656 0.90545 0.36967 0.0
H2859 H 0.66219 0.89094 0.34218 0.0
H2860 H 0.60133 0.83201 0.39319 0.0
H2861 H 0.57891 0.81898 0.43528 0.0
H2862 H 0.65291 0.83254 0.47684 0.0
H2863 H 0.67585 0.84603 0.43513 0.0
C2864 C 0.71039 0.7997 0.29003 0.0
C2865 C 0.72917 0.79492 0.30535 0.0
C2866 C 0.69484 0.81348 0.30391 0.0
C2867 C 0.69828 0.8239 0.33348 0.0
C2868 C 0.71664 0.81855 0.34894 0.0
C2869 C 0.73176 0.80408 0.33506 0.0
C2870 C 0.68291 0.84044 0.34801 0.0
C2871 C 0.67009 0.83467 0.37261 0.0
C2872 C 0.68009 0.8613 0.33721 0.0
C2873 C 0.69435 0.86998 0.31258 0.0
C2874 C 0.72184 0.87764 0.31276 0.0
C2875 C 0.73504 0.88498 0.28912 0.0
C2876 C 0.721 0.88493 0.26525 0.0
C2877 C 0.69373 0.8777 0.26504 0.0
C2878 C 0.68042 0.87034 0.28862 0.0
C2879 C 0.6235 0.91307 0.42914 0.0
C2880 C 0.60443 0.91626 0.41246 0.0
C2881 C 0.63839 0.89766 0.41716 0.0
C2882 C 0.63453 0.88476 0.38818 0.0
C2883 C 0.61542 0.88778 0.37155 0.0
C2884 C 0.6006 0.90322 0.38347 0.0
C2885 C 0.65088 0.86891 0.37485 0.0
C2886 C 0.66398 0.8749 0.3505 0.0
C2887 C 0.65412 0.84847 0.38606 0.0
C2888 C 0.64034 0.84032 0.41114 0.0
C2889 C 0.61285 0.83243 0.41139 0.0
C2890 C 0.60005 0.82492 0.43516 0.0
C2891 C 0.61449 0.82501 0.45875 0.0
C2892 C 0.64177 0.83253 0.45857 0.0
C2893 C 0.65468 0.84009 0.43486 0.0
H2894 H 0.60454 0.81921 0.47713 0.0
H2895 H 0.73125 0.89053 0.24694 0.0
H2896 H 0.18732 0.70423 0.28749 0.0
H2897 H 0.16433 0.67153 0.31461 0.0
H2898 H 0.21555 0.71945 0.38877 0.0
H2899 H 0.23932 0.75194 0.36118 0.0
H2900 H 0.21092 0.6701 0.38289 0.0
H2901 H 0.14953 0.71324 0.38415 0.0
H2902 H 0.12153 0.73283 0.36485 0.0
H2903 H 0.07776 0.65692 0.31085 0.0
H2904 H 0.10565 0.63682 0.3297 0.0
H2905 H 0.12111 0.58006 0.46232 0.0
H2906 H 0.14867 0.61992 0.44654 0.0
H2907 H 0.12001 0.58045 0.35983 0.0
H2908 H 0.0928 0.54073 0.37518 0.0
H2909 H 0.11374 0.63051 0.38016 0.0
H2910 H 0.17925 0.58932 0.37787 0.0
H2911 H 0.20746 0.57102 0.39913 0.0
H2912 H 0.24329 0.6459 0.45857 0.0
H2913 H 0.21499 0.66453 0.43791 0.0
C2914 C 0.19331 0.70807 0.30973 0.0
C2915 C 0.21494 0.7306 0.32236 0.0
C2916 C 0.18017 0.68938 0.32525 0.0
C2917 C 0.18792 0.69324 0.3539 0.0
C2918 C 0.20916 0.71613 0.36675 0.0
C2919 C 0.22261 0.73469 0.35106 0.0
C2920 C 0.17452 0.67257 0.36973 0.0
C2921 C 0.18968 0.66183 0.38284 0.0
C2922 C 0.14681 0.66166 0.36954 0.0
C2923 C 0.12979 0.67356 0.35825 0.0
C2924 C 0.13403 0.70074 0.36805 0.0
C2925 C 0.11816 0.71194 0.35719 0.0
C2926 C 0.09792 0.69618 0.33657 0.0
C2927 C 0.09345 0.66912 0.32683 0.0
C2928 C 0.10924 0.65779 0.33765 0.0
C2929 C 0.12108 0.57976 0.43985 0.0
C2930 C 0.10469 0.55735 0.41999 0.0
C2931 C 0.13679 0.6025 0.43091 0.0
C2932 C 0.13616 0.60305 0.40208 0.0
C2933 C 0.12062 0.58036 0.38219 0.0
C2934 C 0.10516 0.55767 0.39102 0.0
C2935 C 0.15012 0.62767 0.39246 0.0
C2936 C 0.13499 0.63916 0.38061 0.0
C2937 C 0.17779 0.63944 0.39421 0.0
C2938 C 0.19473 0.62819 0.40662 0.0
C2939 C 0.19293 0.60179 0.39569 0.0
C2940 C 0.20899 0.59138 0.40758 0.0
C2941 C 0.22708 0.60725 0.43027 0.0
C2942 C 0.22922 0.6336 0.44105 0.0
C2943 C 0.21318 0.6441 0.42925 0.0
H2944 H 0.23951 0.59916 0.43943 0.0
H2945 H 0.08567 0.70493 0.32819 0.0
H2946 H 0.39742 0.20103 0.3157 0.0
H2947 H 0.41768 0.17092 0.3268 0.0
H2948 H 0.38413 0.17535 0.40849 0.0
H2949 H 0.36491 0.20635 0.39787 0.0
H2950 H 0.43123 0.1783 0.41578 0.0
H2951 H 0.35999 0.11884 0.34798 0.0
H2952 H 0.334 0.10327 0.30213 0.0
H2953 H 0.40172 0.098 0.25825 0.0
H2954 H 0.42811 0.1137 0.30378 0.0
H2955 H 0.45251 0.06941 0.45128 0.0
H2956 H 0.43144 0.09768 0.43747 0.0
H2957 H 0.47275 0.0981 0.36055 0.0
H2958 H 0.49387 0.06975 0.37422 0.0
H2959 H 0.42252 0.09256 0.35007 0.0
H2960 H 0.49326 0.15094 0.41768 0.0
H2961 H 0.5194 0.16619 0.46337 0.0
H2962 H 0.45257 0.17363 0.50762 0.0
H2963 H 0.42586 0.15797 0.46219 0.0
C2964 C 0.3943 0.19542 0.33594 0.0
C2965 C 0.37959 0.20602 0.35592 0.0
C2966 C 0.40577 0.17809 0.34225 0.0
C2967 C 0.40216 0.17038 0.36836 0.0
C2968 C 0.38731 0.18092 0.38823 0.0
C2969 C 0.37629 0.19863 0.38214 0.0
C2970 C 0.41431 0.15193 0.37543 0.0
C2971 C 0.42892 0.15938 0.40153 0.0
C2972 C 0.41207 0.12748 0.35662 0.0
C2973 C 0.39607 0.11766 0.32927 0.0
C2974 C 0.36934 0.11446 0.32853 0.0
C2975 C 0.35453 0.10557 0.30259 0.0
C2976 C 0.36619 0.09967 0.27727 0.0
C2977 C 0.39267 0.10254 0.27785 0.0
C2978 C 0.40756 0.11139 0.30372 0.0
C2979 C 0.45719 0.07557 0.43145 0.0
C2980 C 0.47503 0.06741 0.41395 0.0
C2981 C 0.44509 0.09173 0.42356 0.0
C2982 C 0.45075 0.10038 0.39813 0.0
C2983 C 0.46803 0.09171 0.38025 0.0
C2984 C 0.48006 0.07543 0.38808 0.0
C2985 C 0.43904 0.11884 0.39049 0.0
C2986 C 0.42466 0.11145 0.3643 0.0
C2987 C 0.44141 0.14332 0.40922 0.0
C2988 C 0.4575 0.15304 0.43655 0.0
C2989 C 0.48408 0.15564 0.43717 0.0
C2990 C 0.499 0.16437 0.46302 0.0
C2991 C 0.48762 0.17079 0.48838 0.0
C2992 C 0.46132 0.16858 0.48795 0.0
C2993 C 0.44629 0.15979 0.46215 0.0
H2994 H 0.4992 0.17754 0.50837 0.0
H2995 H 0.35471 0.09287 0.25721 0.0
H2996 H 0.61935 0.7818 0.64405 0.0
H2997 H 0.60751 0.8122 0.62185 0.0
H2998 H 0.6871 0.86822 0.63782 0.0
H2999 H 0.69933 0.83725 0.65916 0.0
H3000 H 0.64436 0.88767 0.65992 0.0
H3001 H 0.67138 0.84532 0.57464 0.0
H3002 H 0.67406 0.80858 0.53667 0.0
H3003 H 0.5912 0.78222 0.51613 0.0
H3004 H 0.58792 0.81856 0.55428 0.0
H3005 H 0.60594 0.97529 0.59619 0.0
H3006 H 0.63053 0.9495 0.60911 0.0
H3007 H 0.56449 0.877 0.57782 0.0
H3008 H 0.54006 0.90257 0.56462 0.0
H3009 H 0.60786 0.86983 0.56131 0.0
H3010 H 0.57944 0.9074 0.65024 0.0
H3011 H 0.57558 0.94355 0.68827 0.0
H3012 H 0.65951 0.97771 0.7025 0.0
H3013 H 0.66388 0.94192 0.66427 0.0
C3014 C 0.63445 0.8004 0.64241 0.0
C3015 C 0.6602 0.80734 0.65372 0.0
C3016 C 0.62767 0.81771 0.62965 0.0
C3017 C 0.64639 0.84248 0.62829 0.0
C3018 C 0.67237 0.84917 0.63868 0.0
C3019 C 0.67933 0.83149 0.65083 0.0
C3020 C 0.63796 0.86197 0.61817 0.0
C3021 C 0.63692 0.88416 0.6382 0.0
C3022 C 0.62766 0.85693 0.59002 0.0
C3023 C 0.62937 0.83454 0.56757 0.0
C3024 C 0.65366 0.83149 0.5623 0.0
C3025 C 0.6553 0.81078 0.54066 0.0
C3026 C 0.63281 0.79303 0.52404 0.0
C3027 C 0.60861 0.79595 0.52905 0.0
C3028 C 0.60685 0.81662 0.55067 0.0
C3029 C 0.59665 0.95386 0.5922 0.0
C3030 C 0.57103 0.941 0.57936 0.0
C3031 C 0.61073 0.93912 0.59958 0.0
C3032 C 0.59933 0.91126 0.59468 0.0
C3033 C 0.57382 0.89843 0.5817 0.0
C3034 C 0.55985 0.9131 0.57412 0.0
C3035 C 0.61362 0.89526 0.60323 0.0
C3036 C 0.61566 0.87365 0.58294 0.0
C3037 C 0.6246 0.90066 0.63123 0.0
C3038 C 0.622 0.92219 0.65417 0.0
C3039 C 0.59708 0.92275 0.66132 0.0
C3040 C 0.5948 0.94315 0.68294 0.0
C3041 C 0.61729 0.96297 0.69772 0.0
C3042 C 0.64211 0.96238 0.69098 0.0
C3043 C 0.6445 0.94205 0.66935 0.0
H3044 H 0.61549 0.97874 0.71446 0.0
H3045 H 0.63414 0.77707 0.50724 0.0
H3046 H 0.74414 0.22649 0.31983 0.0
H3047 H 0.71799 0.19964 0.35153 0.0
H3048 H 0.66848 0.1442 0.27934 0.0
H3049 H 0.6941 0.1717 0.24788 0.0
H3050 H 0.63983 0.15164 0.32237 0.0
H3051 H 0.72176 0.13476 0.31091 0.0
H3052 H 0.77001 0.14771 0.31433 0.0
H3053 H 0.77198 0.17904 0.404 0.0
H3054 H 0.72383 0.16653 0.40118 0.0
H3055 H 0.58571 0.034 0.36957 0.0
H3056 H 0.61251 0.06772 0.34531 0.0
H3057 H 0.65074 0.11805 0.42561 0.0
H3058 H 0.62403 0.08422 0.45018 0.0
H3059 H 0.68529 0.11728 0.38358 0.0
H3060 H 0.6042 0.13098 0.39673 0.0
H3061 H 0.55608 0.1185 0.39502 0.0
H3062 H 0.55242 0.09467 0.30405 0.0
H3063 H 0.60047 0.10652 0.30522 0.0
C3064 C 0.72749 0.20867 0.31092 0.0
C3065 C 0.72091 0.20099 0.28161 0.0
C3066 C 0.71267 0.19331 0.32894 0.0
C3067 C 0.6916 0.16963 0.31773 0.0
C3068 C 0.68467 0.16238 0.28844 0.0
C3069 C 0.69921 0.17801 0.2705 0.0
C3070 C 0.67721 0.15189 0.33623 0.0
C3071 C 0.64975 0.14392 0.33553 0.0
C3072 C 0.69027 0.1426 0.35421 0.0
C3073 C 0.71921 0.14994 0.35579 0.0
C3074 C 0.73249 0.14455 0.33133 0.0
C3075 C 0.75981 0.1518 0.33315 0.0
C3076 C 0.77402 0.16427 0.3593 0.0
C3077 C 0.76095 0.16943 0.38374 0.0
C3078 C 0.73366 0.16224 0.38206 0.0
C3079 C 0.59999 0.05211 0.38208 0.0
C3080 C 0.60269 0.05655 0.41178 0.0
C3081 C 0.61517 0.0714 0.3682 0.0
C3082 C 0.63321 0.09551 0.38376 0.0
C3083 C 0.63677 0.0996 0.4133 0.0
C3084 C 0.62154 0.08027 0.42726 0.0
C3085 C 0.64795 0.1165 0.36901 0.0
C3086 C 0.67542 0.12514 0.37052 0.0
C3087 C 0.63493 0.12652 0.3519 0.0
C3088 C 0.60597 0.11944 0.35109 0.0
C3089 C 0.59313 0.12286 0.37637 0.0
C3090 C 0.56585 0.11593 0.3755 0.0
C3091 C 0.5512 0.10577 0.34945 0.0
C3092 C 0.5638 0.10253 0.32422 0.0
C3093 C 0.59106 0.10936 0.32497 0.0
H3094 H 0.53011 0.10049 0.3488 0.0
H3095 H 0.79515 0.16985 0.36063 0.0
H3096 H 0.91456 0.70998 0.33073 0.0
H3097 H 0.93185 0.67966 0.34598 0.0
H3098 H 0.85317 0.62455 0.34797 0.0
H3099 H 0.83547 0.65412 0.33108 0.0
H3100 H 0.89266 0.6369 0.39824 0.0
H3101 H 0.87975 0.60776 0.29577 0.0
H3102 H 0.88464 0.61465 0.24698 0.0
H3103 H 0.96855 0.64355 0.26073 0.0
H3104 H 0.96418 0.63733 0.3098 0.0
H3105 H 0.93375 0.53235 0.4158 0.0
H3106 H 0.91028 0.55811 0.40059 0.0
H3107 H 0.97987 0.60133 0.36294 0.0
H3108 H 1.00276 0.57456 0.3768 0.0
H3109 H 0.94155 0.59314 0.32989 0.0
H3110 H 0.95753 0.62644 0.43057 0.0
H3111 H 0.95636 0.62393 0.48089 0.0
H3112 H 0.87206 0.59296 0.47326 0.0
H3113 H 0.87274 0.59493 0.42276 0.0
C3114 C 0.90078 0.69129 0.33399 0.0
C3115 C 0.87351 0.68441 0.32905 0.0
C3116 C 0.91077 0.6741 0.34304 0.0
C3117 C 0.89381 0.6498 0.34789 0.0
C3118 C 0.86658 0.64327 0.34435 0.0
C3119 C 0.85651 0.6603 0.33481 0.0
C3120 C 0.9048 0.63091 0.35551 0.0
C3121 C 0.90298 0.62691 0.38323 0.0
C3122 C 0.919 0.61868 0.33615 0.0
C3123 C 0.92163 0.62228 0.30656 0.0
C3124 C 0.89925 0.61583 0.28849 0.0
C3125 C 0.90193 0.61957 0.26077 0.0
C3126 C 0.92689 0.62953 0.25077 0.0
C3127 C 0.94923 0.63583 0.2685 0.0
C3128 C 0.94666 0.63219 0.29627 0.0
C3129 C 0.94393 0.5473 0.40417 0.0
C3130 C 0.97007 0.55148 0.39748 0.0
C3131 C 0.93058 0.56218 0.39564 0.0
C3132 C 0.94336 0.58219 0.38104 0.0
C3133 C 0.96943 0.58608 0.37411 0.0
C3134 C 0.98256 0.57079 0.38206 0.0
C3135 C 0.92975 0.59908 0.37294 0.0
C3136 C 0.93111 0.60284 0.34503 0.0
C3137 C 0.91567 0.61161 0.39239 0.0
C3138 C 0.91519 0.61055 0.4228 0.0
C3139 C 0.93875 0.61892 0.43957 0.0
C3140 C 0.93817 0.61761 0.46813 0.0
C3141 C 0.91415 0.60821 0.48025 0.0
C3142 C 0.89066 0.60018 0.46384 0.0
C3143 C 0.89112 0.6014 0.43525 0.0
H3144 H 0.91375 0.6072 0.50236 0.0
H3145 H 0.92893 0.63229 0.22926 0.0
H3146 H 0.26166 0.8152 0.35843 0.0
H3147 H 0.28461 0.84559 0.40302 0.0
H3148 H 0.35036 0.88236 0.35634 0.0
H3149 H 0.32773 0.85194 0.31209 0.0
H3150 H 0.33356 0.84841 0.42439 0.0
H3151 H 0.37385 0.94702 0.38384 0.0
H3152 H 0.35669 0.97044 0.35582 0.0
H3153 H 0.27832 0.93008 0.3774 0.0
H3154 H 0.29501 0.90668 0.40589 0.0
H3155 H 0.4653 0.92039 0.44088 0.0
H3156 H 0.41839 0.8944 0.43219 0.0
H3157 H 0.40085 0.95882 0.4862 0.0
H3158 H 0.44805 0.98497 0.49459 0.0
H3159 H 0.37757 0.94572 0.43478 0.0
H3160 H 0.37794 0.89908 0.50368 0.0
H3161 H 0.39301 0.87529 0.53316 0.0
H3162 H 0.38656 0.8126 0.46002 0.0
H3163 H 0.37189 0.83613 0.42995 0.0
C3164 C 0.28079 0.8302 0.35779 0.0
C3165 C 0.29312 0.83137 0.33208 0.0
C3166 C 0.29385 0.84737 0.38316 0.0
C3167 C 0.31901 0.86628 0.38284 0.0
C3168 C 0.33077 0.86811 0.35693 0.0
C3169 C 0.31796 0.85073 0.33173 0.0
C3170 C 0.3346 0.88263 0.40941 0.0
C3171 C 0.34294 0.86977 0.42718 0.0
C3172 C 0.34574 0.91057 0.41377 0.0
C3173 C 0.33572 0.92507 0.39705 0.0
C3174 C 0.35299 0.94331 0.38286 0.0
C3175 C 0.34333 0.95653 0.3668 0.0
C3176 C 0.31644 0.95174 0.36481 0.0
C3177 C 0.29915 0.93374 0.37891 0.0
C3178 C 0.30869 0.92046 0.39499 0.0
C3179 C 0.45141 0.92864 0.45151 0.0
C3180 C 0.46008 0.95448 0.46863 0.0
C3181 C 0.42463 0.91372 0.4468 0.0
C3182 C 0.40609 0.92454 0.45886 0.0
C3183 C 0.41481 0.94997 0.47703 0.0
C3184 C 0.44169 0.96481 0.48193 0.0
C3185 C 0.37829 0.91114 0.44798 0.0
C3186 C 0.3676 0.92456 0.43306 0.0
C3187 C 0.36473 0.88379 0.44667 0.0
C3188 C 0.37379 0.86946 0.46451 0.0
C3189 C 0.37992 0.88032 0.4938 0.0
C3190 C 0.38836 0.86686 0.51064 0.0
C3191 C 0.39073 0.84247 0.49847 0.0
C3192 C 0.38467 0.83148 0.46943 0.0
C3193 C 0.37622 0.84486 0.45247 0.0
H3194 H 0.39726 0.83207 0.51155 0.0
H3195 H 0.30901 0.96198 0.35234 0.0
H3196 H 0.25796 0.31327 0.30948 0.0
H3197 H 0.2338 0.34088 0.33402 0.0
H3198 H 0.16063 0.27893 0.29868 0.0
H3199 H 0.1845 0.25094 0.2754 0.0
H3200 H 0.16263 0.32729 0.29115 0.0
H3201 H 0.17741 0.29153 0.36857 0.0
H3202 H 0.20361 0.28132 0.40213 0.0
H3203 H 0.24779 0.36465 0.43257 0.0
H3204 H 0.22187 0.37528 0.39892 0.0
H3205 H 0.07132 0.37652 0.36947 0.0
H3206 H 0.0973 0.35017 0.34766 0.0
H3207 H 0.16731 0.41041 0.39302 0.0
H3208 H 0.14152 0.43692 0.4148 0.0
H3209 H 0.16862 0.3643 0.39498 0.0
H3210 H 0.15202 0.40067 0.31989 0.0
H3211 H 0.12689 0.41107 0.28535 0.0
H3212 H 0.08811 0.32779 0.2487 0.0
H3213 H 0.11262 0.31683 0.28337 0.0
C3214 C 0.23672 0.30534 0.30735 0.0
C3215 C 0.22327 0.27999 0.28994 0.0
C3216 C 0.22287 0.32122 0.32132 0.0
C3217 C 0.19525 0.31219 0.31811 0.0
C3218 C 0.18187 0.28662 0.30132 0.0
C3219 C 0.19563 0.27065 0.2878 0.0
C3220 C 0.18017 0.32941 0.33145 0.0
C3221 C 0.16367 0.3351 0.31391 0.0
C3222 C 0.18203 0.3404 0.36104 0.0
C3223 C 0.19788 0.33414 0.38102 0.0
C3224 C 0.19288 0.30763 0.38221 0.0
C3225 C 0.20761 0.30178 0.40132 0.0
C3226 C 0.22737 0.32233 0.41948 0.0
C3227 C 0.23245 0.34876 0.4185 0.0
C3228 C 0.21771 0.3547 0.39944 0.0
C3229 C 0.09228 0.38439 0.37469 0.0
C3230 C 0.1041 0.40909 0.39407 0.0
C3231 C 0.10722 0.36919 0.3621 0.0
C3232 C 0.13455 0.37825 0.36823 0.0
C3233 C 0.14635 0.40274 0.38779 0.0
C3234 C 0.13143 0.41792 0.40043 0.0
C3235 C 0.15072 0.3621 0.35473 0.0
C3236 C 0.1675 0.35661 0.37221 0.0
C3237 C 0.14923 0.35142 0.32497 0.0
C3238 C 0.13387 0.35792 0.30459 0.0
C3239 C 0.13785 0.38455 0.30476 0.0
C3240 C 0.12376 0.39055 0.28509 0.0
C3241 C 0.10578 0.3701 0.26498 0.0
C3242 C 0.10191 0.3436 0.26443 0.0
C3243 C 0.11589 0.33749 0.28409 0.0
H3244 H 0.09498 0.37479 0.2497 0.0
H3245 H 0.23875 0.31777 0.4343 0.0
H3246 H 0.28177 0.16471 0.7093 0.0
H3247 H 0.30786 0.14005 0.68368 0.0
H3248 H 0.36176 0.21242 0.66483 0.0
H3249 H 0.3352 0.23688 0.68991 0.0
H3250 H 0.35682 0.17428 0.6211 0.0
H3251 H 0.37294 0.18279 0.72134 0.0
H3252 H 0.36053 0.17769 0.76967 0.0
H3253 H 0.3259 0.09302 0.7389 0.0
H3254 H 0.33774 0.09762 0.69037 0.0
H3255 H 0.46087 0.12398 0.58534 0.0
H3256 H 0.4344 0.14972 0.60794 0.0
H3257 H 0.37643 0.07831 0.62414 0.0
H3258 H 0.403 0.05275 0.60246 0.0
H3259 H 0.38464 0.11701 0.66942 0.0
H3260 H 0.36705 0.10753 0.57014 0.0
H3261 H 0.37791 0.11111 0.52112 0.0
H3262 H 0.41422 0.19591 0.54928 0.0
H3263 H 0.40386 0.19281 0.59858 0.0
C3264 C 0.29919 0.17534 0.69975 0.0
C3265 C 0.30652 0.2028 0.70191 0.0
C3266 C 0.31422 0.16123 0.68509 0.0
C3267 C 0.33742 0.17435 0.67286 0.0
C3268 C 0.34416 0.20168 0.67413 0.0
C3269 C 0.32887 0.21569 0.68841 0.0
C3270 C 0.35485 0.15981 0.65929 0.0
C3271 C 0.36318 0.16209 0.63193 0.0
C3272 C 0.3629 0.1433 0.67288 0.0
C3273 C 0.35604 0.14058 0.70217 0.0
C3274 C 0.36256 0.1631 0.72487 0.0
C3275 C 0.35563 0.16029 0.7523 0.0
C3276 C 0.34239 0.13504 0.75731 0.0
C3277 C 0.33612 0.11255 0.73497 0.0
C3278 C 0.34295 0.11525 0.70751 0.0
C3279 C 0.44256 0.11376 0.59384 0.0
C3280 C 0.43409 0.08613 0.59172 0.0
C3281 C 0.42726 0.1285 0.60657 0.0
C3282 C 0.40309 0.11602 0.61755 0.0
C3283 C 0.39485 0.08853 0.6158 0.0
C3284 C 0.41004 0.07383 0.60307 0.0
C3285 C 0.38648 0.1314 0.63126 0.0
C3286 C 0.37836 0.12931 0.65868 0.0
C3287 C 0.37857 0.14797 0.61768 0.0
C3288 C 0.38492 0.14991 0.5881 0.0
C3289 C 0.37755 0.12692 0.56593 0.0
C3290 C 0.38357 0.12887 0.53809 0.0
C3291 C 0.39677 0.15372 0.53211 0.0
C3292 C 0.404 0.17668 0.55396 0.0
C3293 C 0.39804 0.17484 0.58186 0.0
H3294 H 0.40132 0.15518 0.51052 0.0
H3295 H 0.33699 0.13284 0.7785 0.0
H3296 H 0.75584 0.28832 0.67397 0.0
H3297 H 0.77812 0.31396 0.63956 0.0
H3298 H 0.84944 0.34682 0.69378 0.0
H3299 H 0.82703 0.32207 0.72867 0.0
H3300 H 0.83737 0.38462 0.67345 0.0
H3301 H 0.83728 0.29479 0.63802 0.0
H3302 H 0.8139 0.24652 0.62066 0.0
H3303 H 0.77881 0.26026 0.54992 0.0
H3304 H 0.80091 0.3087 0.56753 0.0
H3305 H 0.9466 0.43326 0.60264 0.0
H3306 H 0.91247 0.40378 0.62546 0.0
H3307 H 0.85789 0.38519 0.55381 0.0
H3308 H 0.89255 0.41467 0.53024 0.0
H3309 H 0.85275 0.34065 0.57707 0.0
H3310 H 0.85305 0.4283 0.60855 0.0
H3311 H 0.87245 0.477 0.62574 0.0
H3312 H 0.90358 0.46763 0.70189 0.0
H3313 H 0.88475 0.41886 0.68495 0.0
C3314 C 0.77607 0.30149 0.67882 0.0
C3315 C 0.78955 0.30365 0.70424 0.0
C3316 C 0.78885 0.31583 0.65899 0.0
C3317 C 0.8154 0.33223 0.66416 0.0
C3318 C 0.82889 0.33433 0.6895 0.0
C3319 C 0.81611 0.3201 0.70933 0.0
C3320 C 0.82954 0.34729 0.64336 0.0
C3321 C 0.84079 0.37501 0.65241 0.0
C3322 C 0.8329 0.3347 0.61543 0.0
C3323 C 0.82053 0.30547 0.60432 0.0
C3324 C 0.82442 0.28758 0.61889 0.0
C3325 C 0.8114 0.26017 0.60902 0.0
C3326 C 0.795 0.25033 0.58419 0.0
C3327 C 0.79152 0.2679 0.56918 0.0
C3328 C 0.8042 0.29535 0.57917 0.0
C3329 C 0.92741 0.42282 0.59154 0.0
C3330 C 0.92208 0.42664 0.56487 0.0
C3331 C 0.90793 0.40593 0.60462 0.0
C3332 C 0.88255 0.39276 0.59157 0.0
C3333 C 0.87736 0.39535 0.56426 0.0
C3334 C 0.89708 0.41223 0.55092 0.0
C3335 C 0.86153 0.37783 0.60779 0.0
C3336 C 0.84891 0.35025 0.5979 0.0
C3337 C 0.85645 0.3905 0.63487 0.0
C3338 C 0.86757 0.41988 0.64539 0.0
C3339 C 0.86417 0.43661 0.62889 0.0
C3340 C 0.87506 0.46424 0.63859 0.0
C3341 C 0.88926 0.4754 0.66488 0.0
C3342 C 0.89256 0.45895 0.68154 0.0
C3343 C 0.88175 0.43131 0.67191 0.0
H3344 H 0.89768 0.4968 0.67235 0.0
H3345 H 0.78498 0.2291 0.57659 0.0
H3346 H 0.2153 0.67169 0.69449 0.0
H3347 H 0.19052 0.63849 0.6527 0.0
H3348 H 0.21014 0.69895 0.6042 0.0
H3349 H 0.23556 0.73217 0.64593 0.0
H3350 H 0.1556 0.66888 0.60342 0.0
H3351 H 0.23565 0.65436 0.58529 0.0
H3352 H 0.276 0.64807 0.59836 0.0
H3353 H 0.22988 0.57533 0.62155 0.0
H3354 H 0.18919 0.58135 0.60896 0.0
H3355 H 0.06957 0.56346 0.49951 0.0
H3356 H 0.11173 0.59928 0.51721 0.0
H3357 H 0.12006 0.55831 0.58081 0.0
H3358 H 0.07863 0.52226 0.56241 0.0
H3359 H 0.16724 0.58326 0.56281 0.0
H3360 H 0.09011 0.60406 0.59417 0.0
H3361 H 0.04872 0.61095 0.58664 0.0
H3362 H 0.08892 0.67219 0.54285 0.0
H3363 H 0.13049 0.66538 0.54984 0.0
C3364 C 0.21458 0.67775 0.67477 0.0
C3365 C 0.22664 0.70444 0.67343 0.0
C3366 C 0.20055 0.65885 0.65097 0.0
C3367 C 0.19856 0.66636 0.62545 0.0
C3368 C 0.21145 0.69287 0.62376 0.0
C3369 C 0.22573 0.71176 0.64756 0.0
C3370 C 0.18126 0.6467 0.60147 0.0
C3371 C 0.15849 0.65047 0.5938 0.0
C3372 C 0.18495 0.6226 0.58948 0.0
C3373 C 0.20934 0.61836 0.59623 0.0
C3374 C 0.23409 0.63706 0.59326 0.0
C3375 C 0.25703 0.63355 0.6006 0.0
C3376 C 0.25551 0.61134 0.61084 0.0
C3377 C 0.23103 0.59252 0.61361 0.0
C3378 C 0.208 0.59594 0.60629 0.0
C3379 C 0.08109 0.56169 0.51641 0.0
C3380 C 0.07138 0.54007 0.52932 0.0
C3381 C 0.10494 0.58222 0.52673 0.0
C3382 C 0.11894 0.58152 0.55045 0.0
C3383 C 0.10972 0.55918 0.56237 0.0
C3384 C 0.08604 0.53871 0.552 0.0
C3385 C 0.14119 0.60512 0.56537 0.0
C3386 C 0.16482 0.60206 0.5715 0.0
C3387 C 0.1382 0.62983 0.5763 0.0
C3388 C 0.11327 0.63396 0.57215 0.0
C3389 C 0.09005 0.61884 0.58275 0.0
C3390 C 0.06658 0.62275 0.57861 0.0
C3391 C 0.06617 0.64192 0.56418 0.0
C3392 C 0.08925 0.65729 0.55395 0.0
C3393 C 0.11276 0.65341 0.55798 0.0
H3394 H 0.04798 0.64493 0.561 0.0
H3395 H 0.27331 0.60871 0.61661 0.0
loop_
_geom_bond_atom_site_label_1
_geom_bond_atom_site_label_2
_geom_bond_distance
_geom_bond_site_symmetry_2
_ccdc_geom_bond_type
C0 C2 1.422 . S
C0 C4 1.415 . S
C0 N6 1.369 . S
C1 C2 1.421 . S
C1 C3 1.417 . S
C1 C13 1.422 . S
C2 C0 1.422 . S
C2 C1 1.421 . S
C2 N12 1.359 . S
C3 C1 1.417 . S
C3 C5 1.329 . S
C3 H22 0.930 . S
C4 C0 1.415 . S
C4 C5 1.437 . S
C4 C8 1.413 . S
C5 C3 1.329 . S
C5 C4 1.437 . S
C5 H27 0.929 . S
N6 C0 1.369 . S
N6 C7 1.338 . S
N6 Gd11 2.622 . S
C7 N6 1.338 . S
C7 C9 1.378 . S
C7 H19 0.929 . S
C8 C4 1.413 . S
C8 C9 1.348 . S
C8 H24 0.931 . S
C9 C7 1.378 . S
C9 C8 1.348 . S
C9 H25 0.930 . S
Gd10 N30 2.622 . S
Gd10 N37 2.570 . S
Gd10 O44 2.353 . S
Gd10 O45 2.468 . S
Gd10 O46 2.427 . S
Gd10 O48 2.388 . S
Gd10 O49 2.386 . S
Gd10 O53 2.307 . S
Gd10 C63 2.805 . S
Gd11 N6 2.622 . S
Gd11 N12 2.570 . S
Gd11 O43 2.386 . S
Gd11 O47 2.307 . S
Gd11 O50 2.353 . S
Gd11 O51 2.468 . S
Gd11 O52 2.427 . S
Gd11 O54 2.388 . S
Gd11 C75 2.805 . S
N12 C2 1.359 . S
N12 Gd11 2.570 . S
N12 C14 1.343 . S
C13 C1 1.422 . S
C13 C15 1.321 . S
C13 H21 0.931 . S
C14 N12 1.343 . S
C14 C15 1.390 . S
C14 H16 0.931 . S
C15 C13 1.321 . S
C15 C14 1.390 . S
C15 H17 0.930 . S
H16 C14 0.931 . S
H17 C15 0.930 . S
H18 C41 0.931 . S
H19 C7 0.929 . S
H20 C42 0.930 . S
H21 C13 0.931 . S
H22 C3 0.930 . S
H23 C32 0.929 . S
H24 C8 0.931 . S
H25 C9 0.930 . S
H26 C64 0.930 . S
H27 C5 0.929 . S
H28 C33 0.931 . S
H29 C34 0.930 . S
N30 Gd10 2.622 . S
N30 C31 1.369 . S
N30 C32 1.338 . S
C31 N30 1.369 . S
C31 C35 1.415 . S
C31 C38 1.422 . S
C32 H23 0.929 . S
C32 N30 1.338 . S
C32 C34 1.378 . S
C33 H28 0.931 . S
C33 C34 1.348 . S
C33 C35 1.413 . S
C34 H29 0.930 . S
C34 C32 1.378 . S
C34 C33 1.348 . S
C35 C31 1.415 . S
C35 C33 1.413 . S
C35 C65 1.437 . S
H36 C65 0.929 . S
N37 Gd10 2.570 . S
N37 C38 1.359 . S
N37 C41 1.343 . S
C38 C31 1.422 . S
C38 N37 1.359 . S
C38 C40 1.421 . S
C39 C40 1.422 . S
C39 C42 1.321 . S
C39 H66 0.931 . S
C40 C38 1.421 . S
C40 C39 1.422 . S
C40 C64 1.417 . S
C41 H18 0.931 . S
C41 N37 1.343 . S
C41 C42 1.390 . S
C42 H20 0.930 . S
C42 C39 1.321 . S
C42 C41 1.390 . S
O43 Gd11 2.386 . S
O43 C55 1.265 . S
O44 Gd10 2.353 . S
O44 C55 1.242 . S
O45 Gd10 2.468 . S
O45 C63 1.263 . S
O46 Gd10 2.427 . S
O46 C63 1.252 . S
O47 Gd11 2.307 . S
O47 C56 1.261 . S
O48 Gd10 2.388 . S
O48 C56 1.252 . S
O49 Gd10 2.386 . S
O49 C67 1.265 . S
O50 Gd11 2.353 . S
O50 C67 1.242 . S
O51 Gd11 2.468 . S
O51 C75 1.263 . S
O52 Gd11 2.427 . S
O52 C75 1.252 . S
O53 Gd10 2.307 . S
O53 C68 1.261 . S
O54 Gd11 2.388 . S
O54 C68 1.252 . S
C55 O43 1.265 . S
C55 O44 1.242 . S
C56 O47 1.261 . S
C56 O48 1.252 . S
C57 C60 1.394 . S
C57 C62 1.370 . S
C57 C63 1.500 . S
C58 C61 1.383 . S
C58 C62 1.395 . S
C59 C60 1.396 . S
C59 C61 1.365 . S
C59 H76 0.929 . S
C60 C57 1.394 . S
C60 C59 1.396 . S
C60 H77 0.930 . S
C61 C58 1.383 . S
C61 C59 1.365 . S
C61 H78 0.931 . S
C62 C57 1.370 . S
C62 C58 1.395 . S
C62 H79 0.930 . S
C63 Gd10 2.805 . S
C63 O45 1.263 . S
C63 O46 1.252 . S
C63 C57 1.500 . S
C64 H26 0.930 . S
C64 C40 1.417 . S
C64 C65 1.329 . S
C65 C35 1.437 . S
C65 H36 0.929 . S
C65 C64 1.329 . S
H66 C39 0.931 . S
C67 O49 1.265 . S
C67 O50 1.242 . S
C68 O53 1.261 . S
C68 O54 1.252 . S
C69 C72 1.394 . S
C69 C74 1.370 . S
C69 C75 1.500 . S
C70 C73 1.383 . S
C70 C74 1.395 . S
C71 C72 1.396 . S
C71 C73 1.365 . S
C71 H80 0.929 . S
C72 C69 1.394 . S
C72 C71 1.396 . S
C72 H81 0.930 . S
C73 C70 1.383 . S
C73 C71 1.365 . S
C73 H82 0.931 . S
C74 C69 1.370 . S
C74 C70 1.395 . S
C74 H83 0.930 . S
C75 Gd11 2.805 . S
C75 O51 1.263 . S
C75 O52 1.252 . S
C75 C69 1.500 . S
H76 C59 0.929 . S
H77 C60 0.930 . S
H78 C61 0.931 . S
H79 C62 0.930 . S
H80 C71 0.929 . S
H81 C72 0.930 . S
H82 C73 0.931 . S
H83 C74 0.930 . S
C84 C86 1.422 . S
C84 C88 1.415 . S
C84 N90 1.369 . S
C85 C86 1.421 . S
C85 C87 1.417 . S
C85 C97 1.422 . S
C86 C84 1.422 . S
C86 C85 1.421 . S
C86 N96 1.359 . S
C87 C85 1.417 . S
C87 C89 1.329 . S
C87 H106 0.930 . S
C88 C84 1.415 . S
C88 C89 1.437 . S
C88 C92 1.413 . S
C89 C87 1.329 . S
C89 C88 1.437 . S
C89 H111 0.929 . S
N90 C84 1.369 . S
N90 C91 1.338 . S
N90 Gd95 2.622 . S
C91 N90 1.338 . S
C91 C93 1.378 . S
C91 H103 0.929 . S
C92 C88 1.413 . S
C92 C93 1.348 . S
C92 H108 0.931 . S
C93 C91 1.378 . S
C93 C92 1.348 . S
C93 H109 0.930 . S
Gd94 N114 2.622 . S
Gd94 N121 2.570 . S
Gd94 O128 2.353 . S
Gd94 O129 2.468 . S
Gd94 O130 2.427 . S
Gd94 O132 2.388 . S
Gd94 O133 2.386 . S
Gd94 O137 2.307 . S
Gd94 C147 2.805 . S
Gd95 N90 2.622 . S
Gd95 N96 2.570 . S
Gd95 O127 2.386 . S
Gd95 O131 2.307 . S
Gd95 O134 2.353 . S
Gd95 O135 2.468 . S
Gd95 O136 2.427 . S
Gd95 O138 2.388 . S
Gd95 C159 2.805 . S
N96 C86 1.359 . S
N96 Gd95 2.570 . S
N96 C98 1.343 . S
C97 C85 1.422 . S
C97 C99 1.321 . S
C97 H105 0.931 . S
C98 N96 1.343 . S
C98 C99 1.390 . S
C98 H100 0.931 . S
C99 C97 1.321 . S
C99 C98 1.390 . S
C99 H101 0.930 . S
H100 C98 0.931 . S
H101 C99 0.930 . S
H102 C125 0.931 . S
H103 C91 0.929 . S
H104 C126 0.930 . S
H105 C97 0.931 . S
H106 C87 0.930 . S
H107 C116 0.929 . S
H108 C92 0.931 . S
H109 C93 0.930 . S
H110 C148 0.930 . S
H111 C89 0.929 . S
H112 C117 0.931 . S
H113 C118 0.930 . S
N114 Gd94 2.622 . S
N114 C115 1.369 . S
N114 C116 1.338 . S
C115 N114 1.369 . S
C115 C119 1.415 . S
C115 C122 1.422 . S
C116 H107 0.929 . S
C116 N114 1.338 . S
C116 C118 1.378 . S
C117 H112 0.931 . S
C117 C118 1.348 . S
C117 C119 1.413 . S
C118 H113 0.930 . S
C118 C116 1.378 . S
C118 C117 1.348 . S
C119 C115 1.415 . S
C119 C117 1.413 . S
C119 C149 1.437 . S
H120 C149 0.929 . S
N121 Gd94 2.570 . S
N121 C122 1.359 . S
N121 C125 1.343 . S
C122 C115 1.422 . S
C122 N121 1.359 . S
C122 C124 1.421 . S
C123 C124 1.422 . S
C123 C126 1.321 . S
C123 H150 0.931 . S
C124 C122 1.421 . S
C124 C123 1.422 . S
C124 C148 1.417 . S
C125 H102 0.931 . S
C125 N121 1.343 . S
C125 C126 1.390 . S
C126 H104 0.930 . S
C126 C123 1.321 . S
C126 C125 1.390 . S
O127 Gd95 2.386 . S
O127 C139 1.265 . S
O128 Gd94 2.353 . S
O128 C139 1.242 . S
O129 Gd94 2.468 . S
O129 C147 1.263 . S
O130 Gd94 2.427 . S
O130 C147 1.252 . S
O131 Gd95 2.307 . S
O131 C140 1.261 . S
O132 Gd94 2.388 . S
O132 C140 1.252 . S
O133 Gd94 2.386 . S
O133 C151 1.265 . S
O134 Gd95 2.353 . S
O134 C151 1.242 . S
O135 Gd95 2.468 . S
O135 C159 1.263 . S
O136 Gd95 2.427 . S
O136 C159 1.252 . S
O137 Gd94 2.307 . S
O137 C152 1.261 . S
O138 Gd95 2.388 . S
O138 C152 1.252 . S
C139 O127 1.265 . S
C139 O128 1.242 . S
C140 O131 1.261 . S
C140 O132 1.252 . S
C141 C144 1.394 . S
C141 C146 1.370 . S
C141 C147 1.500 . S
C142 C145 1.383 . S
C142 C146 1.395 . S
C143 C144 1.396 . S
C143 C145 1.365 . S
C143 H160 0.929 . S
C144 C141 1.394 . S
C144 C143 1.396 . S
C144 H161 0.930 . S
C145 C142 1.383 . S
C145 C143 1.365 . S
C145 H162 0.931 . S
C146 C141 1.370 . S
C146 C142 1.395 . S
C146 H163 0.930 . S
C147 Gd94 2.805 . S
C147 O129 1.263 . S
C147 O130 1.252 . S
C147 C141 1.500 . S
C148 H110 0.930 . S
C148 C124 1.417 . S
C148 C149 1.329 . S
C149 C119 1.437 . S
C149 H120 0.929 . S
C149 C148 1.329 . S
H150 C123 0.931 . S
C151 O133 1.265 . S
C151 O134 1.242 . S
C152 O137 1.261 . S
C152 O138 1.252 . S
C153 C156 1.394 . S
C153 C158 1.370 . S
C153 C159 1.500 . S
C154 C157 1.383 . S
C154 C158 1.395 . S
C155 C156 1.396 . S
C155 C157 1.365 . S
C155 H164 0.929 . S
C156 C153 1.394 . S
C156 C155 1.396 . S
C156 H165 0.930 . S
C157 C154 1.383 . S
C157 C155 1.365 . S
C157 H166 0.931 . S
C158 C153 1.370 . S
C158 C154 1.395 . S
C158 H167 0.930 . S
C159 Gd95 2.805 . S
C159 O135 1.263 . S
C159 O136 1.252 . S
C159 C153 1.500 . S
H160 C143 0.929 . S
H161 C144 0.930 . S
H162 C145 0.931 . S
H163 C146 0.930 . S
H164 C155 0.929 . S
H165 C156 0.930 . S
H166 C157 0.931 . S
H167 C158 0.930 . S
C168 C170 1.422 . S
C168 C172 1.415 . S
C168 N174 1.369 . S
C169 C170 1.421 . S
C169 C171 1.417 . S
C169 C181 1.422 . S
C170 C168 1.422 . S
C170 C169 1.421 . S
C170 N180 1.359 . S
C171 C169 1.417 . S
C171 C173 1.329 . S
C171 H190 0.930 . S
C172 C168 1.415 . S
C172 C173 1.437 . S
C172 C176 1.413 . S
C173 C171 1.329 . S
C173 C172 1.437 . S
C173 H195 0.929 . S
N174 C168 1.369 . S
N174 C175 1.338 . S
N174 Gd179 2.622 . S
C175 N174 1.338 . S
C175 C177 1.378 . S
C175 H187 0.929 . S
C176 C172 1.413 . S
C176 C177 1.348 . S
C176 H192 0.931 . S
C177 C175 1.378 . S
C177 C176 1.348 . S
C177 H193 0.930 . S
Gd178 N198 2.622 . S
Gd178 N205 2.570 . S
Gd178 O212 2.353 . S
Gd178 O213 2.468 . S
Gd178 O214 2.427 . S
Gd178 O216 2.388 . S
Gd178 O217 2.386 . S
Gd178 O221 2.307 . S
Gd178 C231 2.805 . S
Gd179 N174 2.622 . S
Gd179 N180 2.570 . S
Gd179 O211 2.386 . S
Gd179 O215 2.307 . S
Gd179 O218 2.353 . S
Gd179 O219 2.468 . S
Gd179 O220 2.427 . S
Gd179 O222 2.388 . S
Gd179 C243 2.805 . S
N180 C170 1.359 . S
N180 Gd179 2.570 . S
N180 C182 1.343 . S
C181 C169 1.422 . S
C181 C183 1.321 . S
C181 H189 0.931 . S
C182 N180 1.343 . S
C182 C183 1.390 . S
C182 H184 0.931 . S
C183 C181 1.321 . S
C183 C182 1.390 . S
C183 H185 0.930 . S
H184 C182 0.931 . S
H185 C183 0.930 . S
H186 C209 0.931 . S
H187 C175 0.929 . S
H188 C210 0.930 . S
H189 C181 0.931 . S
H190 C171 0.930 . S
H191 C200 0.929 . S
H192 C176 0.931 . S
H193 C177 0.930 . S
H194 C232 0.930 . S
H195 C173 0.929 . S
H196 C201 0.931 . S
H197 C202 0.930 . S
N198 Gd178 2.622 . S
N198 C199 1.369 . S
N198 C200 1.338 . S
C199 N198 1.369 . S
C199 C203 1.415 . S
C199 C206 1.422 . S
C200 H191 0.929 . S
C200 N198 1.338 . S
C200 C202 1.378 . S
C201 H196 0.931 . S
C201 C202 1.348 . S
C201 C203 1.413 . S
C202 H197 0.930 . S
C202 C200 1.378 . S
C202 C201 1.348 . S
C203 C199 1.415 . S
C203 C201 1.413 . S
C203 C233 1.437 . S
H204 C233 0.929 . S
N205 Gd178 2.570 . S
N205 C206 1.359 . S
N205 C209 1.343 . S
C206 C199 1.422 . S
C206 N205 1.359 . S
C206 C208 1.421 . S
C207 C208 1.422 . S
C207 C210 1.321 . S
C207 H234 0.931 . S
C208 C206 1.421 . S
C208 C207 1.422 . S
C208 C232 1.417 . S
C209 H186 0.931 . S
C209 N205 1.343 . S
C209 C210 1.390 . S
C210 H188 0.930 . S
C210 C207 1.321 . S
C210 C209 1.390 . S
O211 Gd179 2.386 . S
O211 C223 1.265 . S
O212 Gd178 2.353 . S
O212 C223 1.242 . S
O213 Gd178 2.468 . S
O213 C231 1.263 . S
O214 Gd178 2.427 . S
O214 C231 1.252 . S
O215 Gd179 2.307 . S
O215 C224 1.261 . S
O216 Gd178 2.388 . S
O216 C224 1.252 . S
O217 Gd178 2.386 . S
O217 C235 1.265 . S
O218 Gd179 2.353 . S
O218 C235 1.242 . S
O219 Gd179 2.468 . S
O219 C243 1.263 . S
O220 Gd179 2.427 . S
O220 C243 1.252 . S
O221 Gd178 2.307 . S
O221 C236 1.261 . S
O222 Gd179 2.388 . S
O222 C236 1.252 . S
C223 O211 1.265 . S
C223 O212 1.242 . S
C224 O215 1.261 . S
C224 O216 1.252 . S
C225 C228 1.394 . S
C225 C230 1.370 . S
C225 C231 1.500 . S
C226 C229 1.383 . S
C226 C230 1.395 . S
C227 C228 1.396 . S
C227 C229 1.365 . S
C227 H244 0.929 . S
C228 C225 1.394 . S
C228 C227 1.396 . S
C228 H245 0.930 . S
C229 C226 1.383 . S
C229 C227 1.365 . S
C229 H246 0.931 . S
C230 C225 1.370 . S
C230 C226 1.395 . S
C230 H247 0.930 . S
C231 Gd178 2.805 . S
C231 O213 1.263 . S
C231 O214 1.252 . S
C231 C225 1.500 . S
C232 H194 0.930 . S
C232 C208 1.417 . S
C232 C233 1.329 . S
C233 C203 1.437 . S
C233 H204 0.929 . S
C233 C232 1.329 . S
H234 C207 0.931 . S
C235 O217 1.265 . S
C235 O218 1.242 . S
C236 O221 1.261 . S
C236 O222 1.252 . S
C237 C240 1.394 . S
C237 C242 1.370 . S
C237 C243 1.500 . S
C238 C241 1.383 . S
C238 C242 1.395 . S
C239 C240 1.396 . S
C239 C241 1.365 . S
C239 H248 0.929 . S
C240 C237 1.394 . S
C240 C239 1.396 . S
C240 H249 0.930 . S
C241 C238 1.383 . S
C241 C239 1.365 . S
C241 H250 0.931 . S
C242 C237 1.370 . S
C242 C238 1.395 . S
C242 H251 0.930 . S
C243 Gd179 2.805 . S
C243 O219 1.263 . S
C243 O220 1.252 . S
C243 C237 1.500 . S
H244 C227 0.929 . S
H245 C228 0.930 . S
H246 C229 0.931 . S
H247 C230 0.930 . S
H248 C239 0.929 . S
H249 C240 0.930 . S
H250 C241 0.931 . S
H251 C242 0.930 . S
C252 C254 1.422 . S
C252 C256 1.415 . S
C252 N258 1.369 . S
C253 C254 1.421 . S
C253 C255 1.417 . S
C253 C265 1.422 . S
C254 C252 1.422 . S
C254 C253 1.421 . S
C254 N264 1.359 . S
C255 C253 1.417 . S
C255 C257 1.329 . S
C255 H274 0.930 . S
C256 C252 1.415 . S
C256 C257 1.437 . S
C256 C260 1.413 . S
C257 C255 1.329 . S
C257 C256 1.437 . S
C257 H279 0.929 . S
N258 C252 1.369 . S
N258 C259 1.338 . S
N258 Gd263 2.622 . S
C259 N258 1.338 . S
C259 C261 1.378 . S
C259 H271 0.929 . S
C260 C256 1.413 . S
C260 C261 1.348 . S
C260 H276 0.931 . S
C261 C259 1.378 . S
C261 C260 1.348 . S
C261 H277 0.930 . S
Gd262 N282 2.622 . S
Gd262 N289 2.570 . S
Gd262 O296 2.353 . S
Gd262 O297 2.468 . S
Gd262 O298 2.427 . S
Gd262 O300 2.388 . S
Gd262 O301 2.386 . S
Gd262 O305 2.307 . S
Gd262 C315 2.805 . S
Gd263 N258 2.622 . S
Gd263 N264 2.570 . S
Gd263 O295 2.386 . S
Gd263 O299 2.307 . S
Gd263 O302 2.353 . S
Gd263 O303 2.468 . S
Gd263 O304 2.427 . S
Gd263 O306 2.388 . S
Gd263 C327 2.805 . S
N264 C254 1.359 . S
N264 Gd263 2.570 . S
N264 C266 1.343 . S
C265 C253 1.422 . S
C265 C267 1.321 . S
C265 H273 0.931 . S
C266 N264 1.343 . S
C266 C267 1.390 . S
C266 H268 0.931 . S
C267 C265 1.321 . S
C267 C266 1.390 . S
C267 H269 0.930 . S
H268 C266 0.931 . S
H269 C267 0.930 . S
H270 C293 0.931 . S
H271 C259 0.929 . S
H272 C294 0.930 . S
H273 C265 0.931 . S
H274 C255 0.930 . S
H275 C284 0.929 . S
H276 C260 0.931 . S
H277 C261 0.930 . S
H278 C316 0.930 . S
H279 C257 0.929 . S
H280 C285 0.931 . S
H281 C286 0.930 . S
N282 Gd262 2.622 . S
N282 C283 1.369 . S
N282 C284 1.338 . S
C283 N282 1.369 . S
C283 C287 1.415 . S
C283 C290 1.422 . S
C284 H275 0.929 . S
C284 N282 1.338 . S
C284 C286 1.378 . S
C285 H280 0.931 . S
C285 C286 1.348 . S
C285 C287 1.413 . S
C286 H281 0.930 . S
C286 C284 1.378 . S
C286 C285 1.348 . S
C287 C283 1.415 . S
C287 C285 1.413 . S
C287 C317 1.437 . S
H288 C317 0.929 . S
N289 Gd262 2.570 . S
N289 C290 1.359 . S
N289 C293 1.343 . S
C290 C283 1.422 . S
C290 N289 1.359 . S
C290 C292 1.421 . S
C291 C292 1.422 . S
C291 C294 1.321 . S
C291 H318 0.931 . S
C292 C290 1.421 . S
C292 C291 1.422 . S
C292 C316 1.417 . S
C293 H270 0.931 . S
C293 N289 1.343 . S
C293 C294 1.390 . S
C294 H272 0.930 . S
C294 C291 1.321 . S
C294 C293 1.390 . S
O295 Gd263 2.386 . S
O295 C307 1.265 . S
O296 Gd262 2.353 . S
O296 C307 1.242 . S
O297 Gd262 2.468 . S
O297 C315 1.263 . S
O298 Gd262 2.427 . S
O298 C315 1.252 . S
O299 Gd263 2.307 . S
O299 C308 1.261 . S
O300 Gd262 2.388 . S
O300 C308 1.252 . S
O301 Gd262 2.386 . S
O301 C319 1.265 . S
O302 Gd263 2.353 . S
O302 C319 1.242 . S
O303 Gd263 2.468 . S
O303 C327 1.263 . S
O304 Gd263 2.427 . S
O304 C327 1.252 . S
O305 Gd262 2.307 . S
O305 C320 1.261 . S
O306 Gd263 2.388 . S
O306 C320 1.252 . S
C307 O295 1.265 . S
C307 O296 1.242 . S
C308 O299 1.261 . S
C308 O300 1.252 . S
C309 C312 1.394 . S
C309 C314 1.370 . S
C309 C315 1.500 . S
C310 C313 1.383 . S
C310 C314 1.395 . S
C311 C312 1.396 . S
C311 C313 1.365 . S
C311 H328 0.929 . S
C312 C309 1.394 . S
C312 C311 1.396 . S
C312 H329 0.930 . S
C313 C310 1.383 . S
C313 C311 1.365 . S
C313 H330 0.931 . S
C314 C309 1.370 . S
C314 C310 1.395 . S
C314 H331 0.930 . S
C315 Gd262 2.805 . S
C315 O297 1.263 . S
C315 O298 1.252 . S
C315 C309 1.500 . S
C316 H278 0.930 . S
C316 C292 1.417 . S
C316 C317 1.329 . S
C317 C287 1.437 . S
C317 H288 0.929 . S
C317 C316 1.329 . S
H318 C291 0.931 . S
C319 O301 1.265 . S
C319 O302 1.242 . S
C320 O305 1.261 . S
C320 O306 1.252 . S
C321 C324 1.394 . S
C321 C326 1.370 . S
C321 C327 1.500 . S
C322 C325 1.383 . S
C322 C326 1.395 . S
C323 C324 1.396 . S
C323 C325 1.365 . S
C323 H332 0.929 . S
C324 C321 1.394 . S
C324 C323 1.396 . S
C324 H333 0.930 . S
C325 C322 1.383 . S
C325 C323 1.365 . S
C325 H334 0.931 . S
C326 C321 1.370 . S
C326 C322 1.395 . S
C326 H335 0.930 . S
C327 Gd263 2.805 . S
C327 O303 1.263 . S
C327 O304 1.252 . S
C327 C321 1.500 . S
H328 C311 0.929 . S
H329 C312 0.930 . S
H330 C313 0.931 . S
H331 C314 0.930 . S
H332 C323 0.929 . S
H333 C324 0.930 . S
H334 C325 0.931 . S
H335 C326 0.930 . S
C336 C338 1.422 . S
C336 C340 1.415 . S
C336 N342 1.369 . S
C337 C338 1.421 . S
C337 C339 1.417 . S
C337 C349 1.422 . S
C338 C336 1.422 . S
C338 C337 1.421 . S
C338 N348 1.359 . S
C339 C337 1.417 . S
C339 C341 1.329 . S
C339 H358 0.930 . S
C340 C336 1.415 . S
C340 C341 1.437 . S
C340 C344 1.413 . S
C341 C339 1.329 . S
C341 C340 1.437 . S
C341 H363 0.929 . S
N342 C336 1.369 . S
N342 C343 1.338 . S
N342 Gd347 2.622 . S
C343 N342 1.338 . S
C343 C345 1.378 . S
C343 H355 0.929 . S
C344 C340 1.413 . S
C344 C345 1.348 . S
C344 H360 0.931 . S
C345 C343 1.378 . S
C345 C344 1.348 . S
C345 H361 0.930 . S
Gd346 N366 2.622 . S
Gd346 N373 2.570 . S
Gd346 O380 2.353 . S
Gd346 O381 2.468 . S
Gd346 O382 2.427 . S
Gd346 O384 2.388 . S
Gd346 O385 2.386 . S
Gd346 O389 2.307 . S
Gd346 C399 2.805 . S
Gd347 N342 2.622 . S
Gd347 N348 2.570 . S
Gd347 O379 2.386 . S
Gd347 O383 2.307 . S
Gd347 O386 2.353 . S
Gd347 O387 2.468 . S
Gd347 O388 2.427 . S
Gd347 O390 2.388 . S
Gd347 C411 2.805 . S
N348 C338 1.359 . S
N348 Gd347 2.570 . S
N348 C350 1.343 . S
C349 C337 1.422 . S
C349 C351 1.321 . S
C349 H357 0.931 . S
C350 N348 1.343 . S
C350 C351 1.390 . S
C350 H352 0.931 . S
C351 C349 1.321 . S
C351 C350 1.390 . S
C351 H353 0.930 . S
H352 C350 0.931 . S
H353 C351 0.930 . S
H354 C377 0.931 . S
H355 C343 0.929 . S
H356 C378 0.930 . S
H357 C349 0.931 . S
H358 C339 0.930 . S
H359 C368 0.929 . S
H360 C344 0.931 . S
H361 C345 0.930 . S
H362 C400 0.930 . S
H363 C341 0.929 . S
H364 C369 0.931 . S
H365 C370 0.930 . S
N366 Gd346 2.622 . S
N366 C367 1.369 . S
N366 C368 1.338 . S
C367 N366 1.369 . S
C367 C371 1.415 . S
C367 C374 1.422 . S
C368 H359 0.929 . S
C368 N366 1.338 . S
C368 C370 1.378 . S
C369 H364 0.931 . S
C369 C370 1.348 . S
C369 C371 1.413 . S
C370 H365 0.930 . S
C370 C368 1.378 . S
C370 C369 1.348 . S
C371 C367 1.415 . S
C371 C369 1.413 . S
C371 C401 1.437 . S
H372 C401 0.929 . S
N373 Gd346 2.570 . S
N373 C374 1.359 . S
N373 C377 1.343 . S
C374 C367 1.422 . S
C374 N373 1.359 . S
C374 C376 1.421 . S
C375 C376 1.422 . S
C375 C378 1.321 . S
C375 H402 0.931 . S
C376 C374 1.421 . S
C376 C375 1.422 . S
C376 C400 1.417 . S
C377 H354 0.931 . S
C377 N373 1.343 . S
C377 C378 1.390 . S
C378 H356 0.930 . S
C378 C375 1.321 . S
C378 C377 1.390 . S
O379 Gd347 2.386 . S
O379 C391 1.265 . S
O380 Gd346 2.353 . S
O380 C391 1.242 . S
O381 Gd346 2.468 . S
O381 C399 1.263 . S
O382 Gd346 2.427 . S
O382 C399 1.252 . S
O383 Gd347 2.307 . S
O383 C392 1.261 . S
O384 Gd346 2.388 . S
O384 C392 1.252 . S
O385 Gd346 2.386 . S
O385 C403 1.265 . S
O386 Gd347 2.353 . S
O386 C403 1.242 . S
O387 Gd347 2.468 . S
O387 C411 1.263 . S
O388 Gd347 2.427 . S
O388 C411 1.252 . S
O389 Gd346 2.307 . S
O389 C404 1.261 . S
O390 Gd347 2.388 . S
O390 C404 1.252 . S
C391 O379 1.265 . S
C391 O380 1.242 . S
C392 O383 1.261 . S
C392 O384 1.252 . S
C393 C396 1.394 . S
C393 C398 1.370 . S
C393 C399 1.500 . S
C394 C397 1.383 . S
C394 C398 1.395 . S
C395 C396 1.396 . S
C395 C397 1.365 . S
C395 H412 0.929 . S
C396 C393 1.394 . S
C396 C395 1.396 . S
C396 H413 0.930 . S
C397 C394 1.383 . S
C397 C395 1.365 . S
C397 H414 0.931 . S
C398 C393 1.370 . S
C398 C394 1.395 . S
C398 H415 0.930 . S
C399 Gd346 2.805 . S
C399 O381 1.263 . S
C399 O382 1.252 . S
C399 C393 1.500 . S
C400 H362 0.930 . S
C400 C376 1.417 . S
C400 C401 1.329 . S
C401 C371 1.437 . S
C401 H372 0.929 . S
C401 C400 1.329 . S
H402 C375 0.931 . S
C403 O385 1.265 . S
C403 O386 1.242 . S
C404 O389 1.261 . S
C404 O390 1.252 . S
C405 C408 1.394 . S
C405 C410 1.370 . S
C405 C411 1.500 . S
C406 C409 1.383 . S
C406 C410 1.395 . S
C407 C408 1.396 . S
C407 C409 1.365 . S
C407 H416 0.929 . S
C408 C405 1.394 . S
C408 C407 1.396 . S
C408 H417 0.930 . S
C409 C406 1.383 . S
C409 C407 1.365 . S
C409 H418 0.931 . S
C410 C405 1.370 . S
C410 C406 1.395 . S
C410 H419 0.930 . S
C411 Gd347 2.805 . S
C411 O387 1.263 . S
C411 O388 1.252 . S
C411 C405 1.500 . S
H412 C395 0.929 . S
H413 C396 0.930 . S
H414 C397 0.931 . S
H415 C398 0.930 . S
H416 C407 0.929 . S
H417 C408 0.930 . S
H418 C409 0.931 . S
H419 C410 0.930 . S
C420 C422 1.422 . S
C420 C424 1.415 . S
C420 N426 1.369 . S
C421 C422 1.421 . S
C421 C423 1.417 . S
C421 C433 1.422 . S
C422 C420 1.422 . S
C422 C421 1.421 . S
C422 N432 1.359 . S
C423 C421 1.417 . S
C423 C425 1.329 . S
C423 H442 0.930 . S
C424 C420 1.415 . S
C424 C425 1.437 . S
C424 C428 1.413 . S
C425 C423 1.329 . S
C425 C424 1.437 . S
C425 H447 0.929 . S
N426 C420 1.369 . S
N426 C427 1.338 . S
N426 Gd431 2.622 . S
C427 N426 1.338 . S
C427 C429 1.378 . S
C427 H439 0.929 . S
C428 C424 1.413 . S
C428 C429 1.348 . S
C428 H444 0.931 . S
C429 C427 1.378 . S
C429 C428 1.348 . S
C429 H445 0.930 . S
Gd430 N450 2.622 . S
Gd430 N457 2.570 . S
Gd430 O464 2.353 . S
Gd430 O465 2.468 . S
Gd430 O466 2.427 . S
Gd430 O468 2.388 . S
Gd430 O469 2.386 . S
Gd430 O473 2.307 . S
Gd430 C483 2.805 . S
Gd431 N426 2.622 . S
Gd431 N432 2.570 . S
Gd431 O463 2.386 . S
Gd431 O467 2.307 . S
Gd431 O470 2.353 . S
Gd431 O471 2.468 . S
Gd431 O472 2.427 . S
Gd431 O474 2.388 . S
Gd431 C495 2.805 . S
N432 C422 1.359 . S
N432 Gd431 2.570 . S
N432 C434 1.343 . S
C433 C421 1.422 . S
C433 C435 1.321 . S
C433 H441 0.931 . S
C434 N432 1.343 . S
C434 C435 1.390 . S
C434 H436 0.931 . S
C435 C433 1.321 . S
C435 C434 1.390 . S
C435 H437 0.930 . S
H436 C434 0.931 . S
H437 C435 0.930 . S
H438 C461 0.931 . S
H439 C427 0.929 . S
H440 C462 0.930 . S
H441 C433 0.931 . S
H442 C423 0.930 . S
H443 C452 0.929 . S
H444 C428 0.931 . S
H445 C429 0.930 . S
H446 C484 0.930 . S
H447 C425 0.929 . S
H448 C453 0.931 . S
H449 C454 0.930 . S
N450 Gd430 2.622 . S
N450 C451 1.369 . S
N450 C452 1.338 . S
C451 N450 1.369 . S
C451 C455 1.415 . S
C451 C458 1.422 . S
C452 H443 0.929 . S
C452 N450 1.338 . S
C452 C454 1.378 . S
C453 H448 0.931 . S
C453 C454 1.348 . S
C453 C455 1.413 . S
C454 H449 0.930 . S
C454 C452 1.378 . S
C454 C453 1.348 . S
C455 C451 1.415 . S
C455 C453 1.413 . S
C455 C485 1.437 . S
H456 C485 0.929 . S
N457 Gd430 2.570 . S
N457 C458 1.359 . S
N457 C461 1.343 . S
C458 C451 1.422 . S
C458 N457 1.359 . S
C458 C460 1.421 . S
C459 C460 1.422 . S
C459 C462 1.321 . S
C459 H486 0.931 . S
C460 C458 1.421 . S
C460 C459 1.422 . S
C460 C484 1.417 . S
C461 H438 0.931 . S
C461 N457 1.343 . S
C461 C462 1.390 . S
C462 H440 0.930 . S
C462 C459 1.321 . S
C462 C461 1.390 . S
O463 Gd431 2.386 . S
O463 C475 1.265 . S
O464 Gd430 2.353 . S
O464 C475 1.242 . S
O465 Gd430 2.468 . S
O465 C483 1.263 . S
O466 Gd430 2.427 . S
O466 C483 1.252 . S
O467 Gd431 2.307 . S
O467 C476 1.261 . S
O468 Gd430 2.388 . S
O468 C476 1.252 . S
O469 Gd430 2.386 . S
O469 C487 1.265 . S
O470 Gd431 2.353 . S
O470 C487 1.242 . S
O471 Gd431 2.468 . S
O471 C495 1.263 . S
O472 Gd431 2.427 . S
O472 C495 1.252 . S
O473 Gd430 2.307 . S
O473 C488 1.261 . S
O474 Gd431 2.388 . S
O474 C488 1.252 . S
C475 O463 1.265 . S
C475 O464 1.242 . S
C476 O467 1.261 . S
C476 O468 1.252 . S
C477 C480 1.394 . S
C477 C482 1.370 . S
C477 C483 1.500 . S
C478 C481 1.383 . S
C478 C482 1.395 . S
C479 C480 1.396 . S
C479 C481 1.365 . S
C479 H496 0.929 . S
C480 C477 1.394 . S
C480 C479 1.396 . S
C480 H497 0.930 . S
C481 C478 1.383 . S
C481 C479 1.365 . S
C481 H498 0.931 . S
C482 C477 1.370 . S
C482 C478 1.395 . S
C482 H499 0.930 . S
C483 Gd430 2.805 . S
C483 O465 1.263 . S
C483 O466 1.252 . S
C483 C477 1.500 . S
C484 H446 0.930 . S
C484 C460 1.417 . S
C484 C485 1.329 . S
C485 C455 1.437 . S
C485 H456 0.929 . S
C485 C484 1.329 . S
H486 C459 0.931 . S
C487 O469 1.265 . S
C487 O470 1.242 . S
C488 O473 1.261 . S
C488 O474 1.252 . S
C489 C492 1.394 . S
C489 C494 1.370 . S
C489 C495 1.500 . S
C490 C493 1.383 . S
C490 C494 1.395 . S
C491 C492 1.396 . S
C491 C493 1.365 . S
C491 H500 0.929 . S
C492 C489 1.394 . S
C492 C491 1.396 . S
C492 H501 0.930 . S
C493 C490 1.383 . S
C493 C491 1.365 . S
C493 H502 0.931 . S
C494 C489 1.370 . S
C494 C490 1.395 . S
C494 H503 0.930 . S
C495 Gd431 2.805 . S
C495 O471 1.263 . S
C495 O472 1.252 . S
C495 C489 1.500 . S
H496 C479 0.929 . S
H497 C480 0.930 . S
H498 C481 0.931 . S
H499 C482 0.930 . S
H500 C491 0.929 . S
H501 C492 0.930 . S
H502 C493 0.931 . S
H503 C494 0.930 . S
C504 C506 1.422 . S
C504 C508 1.415 . S
C504 N510 1.369 . S
C505 C506 1.421 . S
C505 C507 1.417 . S
C505 C517 1.422 . S
C506 C504 1.422 . S
C506 C505 1.421 . S
C506 N516 1.359 . S
C507 C505 1.417 . S
C507 C509 1.329 . S
C507 H526 0.930 . S
C508 C504 1.415 . S
C508 C509 1.437 . S
C508 C512 1.413 . S
C509 C507 1.329 . S
C509 C508 1.437 . S
C509 H531 0.929 . S
N510 C504 1.369 . S
N510 C511 1.338 . S
N510 Gd515 2.622 . S
C511 N510 1.338 . S
C511 C513 1.378 . S
C511 H523 0.929 . S
C512 C508 1.413 . S
C512 C513 1.348 . S
C512 H528 0.931 . S
C513 C511 1.378 . S
C513 C512 1.348 . S
C513 H529 0.930 . S
Gd514 N534 2.622 . S
Gd514 N541 2.570 . S
Gd514 O548 2.353 . S
Gd514 O549 2.468 . S
Gd514 O550 2.427 . S
Gd514 O552 2.388 . S
Gd514 O553 2.386 . S
Gd514 O557 2.307 . S
Gd514 C567 2.805 . S
Gd515 N510 2.622 . S
Gd515 N516 2.570 . S
Gd515 O547 2.386 . S
Gd515 O551 2.307 . S
Gd515 O554 2.353 . S
Gd515 O555 2.468 . S
Gd515 O556 2.427 . S
Gd515 O558 2.388 . S
Gd515 C579 2.805 . S
N516 C506 1.359 . S
N516 Gd515 2.570 . S
N516 C518 1.343 . S
C517 C505 1.422 . S
C517 C519 1.321 . S
C517 H525 0.931 . S
C518 N516 1.343 . S
C518 C519 1.390 . S
C518 H520 0.931 . S
C519 C517 1.321 . S
C519 C518 1.390 . S
C519 H521 0.930 . S
H520 C518 0.931 . S
H521 C519 0.930 . S
H522 C545 0.931 . S
H523 C511 0.929 . S
H524 C546 0.930 . S
H525 C517 0.931 . S
H526 C507 0.930 . S
H527 C536 0.929 . S
H528 C512 0.931 . S
H529 C513 0.930 . S
H530 C568 0.930 . S
H531 C509 0.929 . S
H532 C537 0.931 . S
H533 C538 0.930 . S
N534 Gd514 2.622 . S
N534 C535 1.369 . S
N534 C536 1.338 . S
C535 N534 1.369 . S
C535 C539 1.415 . S
C535 C542 1.422 . S
C536 H527 0.929 . S
C536 N534 1.338 . S
C536 C538 1.378 . S
C537 H532 0.931 . S
C537 C538 1.348 . S
C537 C539 1.413 . S
C538 H533 0.930 . S
C538 C536 1.378 . S
C538 C537 1.348 . S
C539 C535 1.415 . S
C539 C537 1.413 . S
C539 C569 1.437 . S
H540 C569 0.929 . S
N541 Gd514 2.570 . S
N541 C542 1.359 . S
N541 C545 1.343 . S
C542 C535 1.422 . S
C542 N541 1.359 . S
C542 C544 1.421 . S
C543 C544 1.422 . S
C543 C546 1.321 . S
C543 H570 0.931 . S
C544 C542 1.421 . S
C544 C543 1.422 . S
C544 C568 1.417 . S
C545 H522 0.931 . S
C545 N541 1.343 . S
C545 C546 1.390 . S
C546 H524 0.930 . S
C546 C543 1.321 . S
C546 C545 1.390 . S
O547 Gd515 2.386 . S
O547 C559 1.265 . S
O548 Gd514 2.353 . S
O548 C559 1.242 . S
O549 Gd514 2.468 . S
O549 C567 1.263 . S
O550 Gd514 2.427 . S
O550 C567 1.252 . S
O551 Gd515 2.307 . S
O551 C560 1.261 . S
O552 Gd514 2.388 . S
O552 C560 1.252 . S
O553 Gd514 2.386 . S
O553 C571 1.265 . S
O554 Gd515 2.353 . S
O554 C571 1.242 . S
O555 Gd515 2.468 . S
O555 C579 1.263 . S
O556 Gd515 2.427 . S
O556 C579 1.252 . S
O557 Gd514 2.307 . S
O557 C572 1.261 . S
O558 Gd515 2.388 . S
O558 C572 1.252 . S
C559 O547 1.265 . S
C559 O548 1.242 . S
C560 O551 1.261 . S
C560 O552 1.252 . S
C561 C564 1.394 . S
C561 C566 1.370 . S
C561 C567 1.500 . S
C562 C565 1.383 . S
C562 C566 1.395 . S
C563 C564 1.396 . S
C563 C565 1.365 . S
C563 H580 0.929 . S
C564 C561 1.394 . S
C564 C563 1.396 . S
C564 H581 0.930 . S
C565 C562 1.383 . S
C565 C563 1.365 . S
C565 H582 0.931 . S
C566 C561 1.370 . S
C566 C562 1.395 . S
C566 H583 0.930 . S
C567 Gd514 2.805 . S
C567 O549 1.263 . S
C567 O550 1.252 . S
C567 C561 1.500 . S
C568 H530 0.930 . S
C568 C544 1.417 . S
C568 C569 1.329 . S
C569 C539 1.437 . S
C569 H540 0.929 . S
C569 C568 1.329 . S
H570 C543 0.931 . S
C571 O553 1.265 . S
C571 O554 1.242 . S
C572 O557 1.261 . S
C572 O558 1.252 . S
C573 C576 1.394 . S
C573 C578 1.370 . S
C573 C579 1.500 . S
C574 C577 1.383 . S
C574 C578 1.395 . S
C575 C576 1.396 . S
C575 C577 1.365 . S
C575 H584 0.929 . S
C576 C573 1.394 . S
C576 C575 1.396 . S
C576 H585 0.930 . S
C577 C574 1.383 . S
C577 C575 1.365 . S
C577 H586 0.931 . S
C578 C573 1.370 . S
C578 C574 1.395 . S
C578 H587 0.930 . S
C579 Gd515 2.805 . S
C579 O555 1.263 . S
C579 O556 1.252 . S
C579 C573 1.500 . S
H580 C563 0.929 . S
H581 C564 0.930 . S
H582 C565 0.931 . S
H583 C566 0.930 . S
H584 C575 0.929 . S
H585 C576 0.930 . S
H586 C577 0.931 . S
H587 C578 0.930 . S
C588 C590 1.422 . S
C588 C592 1.415 . S
C588 N594 1.369 . S
C589 C590 1.421 . S
C589 C591 1.417 . S
C589 C601 1.422 . S
C590 C588 1.422 . S
C590 C589 1.421 . S
C590 N600 1.359 . S
C591 C589 1.417 . S
C591 C593 1.329 . S
C591 H610 0.930 . S
C592 C588 1.415 . S
C592 C593 1.437 . S
C592 C596 1.413 . S
C593 C591 1.329 . S
C593 C592 1.437 . S
C593 H615 0.929 . S
N594 C588 1.369 . S
N594 C595 1.338 . S
N594 Gd599 2.622 . S
C595 N594 1.338 . S
C595 C597 1.378 . S
C595 H607 0.929 . S
C596 C592 1.413 . S
C596 C597 1.348 . S
C596 H612 0.931 . S
C597 C595 1.378 . S
C597 C596 1.348 . S
C597 H613 0.930 . S
Gd598 N618 2.622 . S
Gd598 N625 2.570 . S
Gd598 O632 2.353 . S
Gd598 O633 2.468 . S
Gd598 O634 2.427 . S
Gd598 O636 2.388 . S
Gd598 O637 2.386 . S
Gd598 O641 2.307 . S
Gd598 C651 2.805 . S
Gd599 N594 2.622 . S
Gd599 N600 2.570 . S
Gd599 O631 2.386 . S
Gd599 O635 2.307 . S
Gd599 O638 2.353 . S
Gd599 O639 2.468 . S
Gd599 O640 2.427 . S
Gd599 O642 2.388 . S
Gd599 C663 2.805 . S
N600 C590 1.359 . S
N600 Gd599 2.570 . S
N600 C602 1.343 . S
C601 C589 1.422 . S
C601 C603 1.321 . S
C601 H609 0.931 . S
C602 N600 1.343 . S
C602 C603 1.390 . S
C602 H604 0.931 . S
C603 C601 1.321 . S
C603 C602 1.390 . S
C603 H605 0.930 . S
H604 C602 0.931 . S
H605 C603 0.930 . S
H606 C629 0.931 . S
H607 C595 0.929 . S
H608 C630 0.930 . S
H609 C601 0.931 . S
H610 C591 0.930 . S
H611 C620 0.929 . S
H612 C596 0.931 . S
H613 C597 0.930 . S
H614 C652 0.930 . S
H615 C593 0.929 . S
H616 C621 0.931 . S
H617 C622 0.930 . S
N618 Gd598 2.622 . S
N618 C619 1.369 . S
N618 C620 1.338 . S
C619 N618 1.369 . S
C619 C623 1.415 . S
C619 C626 1.422 . S
C620 H611 0.929 . S
C620 N618 1.338 . S
C620 C622 1.378 . S
C621 H616 0.931 . S
C621 C622 1.348 . S
C621 C623 1.413 . S
C622 H617 0.930 . S
C622 C620 1.378 . S
C622 C621 1.348 . S
C623 C619 1.415 . S
C623 C621 1.413 . S
C623 C653 1.437 . S
H624 C653 0.929 . S
N625 Gd598 2.570 . S
N625 C626 1.359 . S
N625 C629 1.343 . S
C626 C619 1.422 . S
C626 N625 1.359 . S
C626 C628 1.421 . S
C627 C628 1.422 . S
C627 C630 1.321 . S
C627 H654 0.931 . S
C628 C626 1.421 . S
C628 C627 1.422 . S
C628 C652 1.417 . S
C629 H606 0.931 . S
C629 N625 1.343 . S
C629 C630 1.390 . S
C630 H608 0.930 . S
C630 C627 1.321 . S
C630 C629 1.390 . S
O631 Gd599 2.386 . S
O631 C643 1.265 . S
O632 Gd598 2.353 . S
O632 C643 1.242 . S
O633 Gd598 2.468 . S
O633 C651 1.263 . S
O634 Gd598 2.427 . S
O634 C651 1.252 . S
O635 Gd599 2.307 . S
O635 C644 1.261 . S
O636 Gd598 2.388 . S
O636 C644 1.252 . S
O637 Gd598 2.386 . S
O637 C655 1.265 . S
O638 Gd599 2.353 . S
O638 C655 1.242 . S
O639 Gd599 2.468 . S
O639 C663 1.263 . S
O640 Gd599 2.427 . S
O640 C663 1.252 . S
O641 Gd598 2.307 . S
O641 C656 1.261 . S
O642 Gd599 2.388 . S
O642 C656 1.252 . S
C643 O631 1.265 . S
C643 O632 1.242 . S
C644 O635 1.261 . S
C644 O636 1.252 . S
C645 C648 1.394 . S
C645 C650 1.370 . S
C645 C651 1.500 . S
C646 C649 1.383 . S
C646 C650 1.395 . S
C647 C648 1.396 . S
C647 C649 1.365 . S
C647 H664 0.929 . S
C648 C645 1.394 . S
C648 C647 1.396 . S
C648 H665 0.930 . S
C649 C646 1.383 . S
C649 C647 1.365 . S
C649 H666 0.931 . S
C650 C645 1.370 . S
C650 C646 1.395 . S
C650 H667 0.930 . S
C651 Gd598 2.805 . S
C651 O633 1.263 . S
C651 O634 1.252 . S
C651 C645 1.500 . S
C652 H614 0.930 . S
C652 C628 1.417 . S
C652 C653 1.329 . S
C653 C623 1.437 . S
C653 H624 0.929 . S
C653 C652 1.329 . S
H654 C627 0.931 . S
C655 O637 1.265 . S
C655 O638 1.242 . S
C656 O641 1.261 . S
C656 O642 1.252 . S
C657 C660 1.394 . S
C657 C662 1.370 . S
C657 C663 1.500 . S
C658 C661 1.383 . S
C658 C662 1.395 . S
C659 C660 1.396 . S
C659 C661 1.365 . S
C659 H668 0.929 . S
C660 C657 1.394 . S
C660 C659 1.396 . S
C660 H669 0.930 . S
C661 C658 1.383 . S
C661 C659 1.365 . S
C661 H670 0.931 . S
C662 C657 1.370 . S
C662 C658 1.395 . S
C662 H671 0.930 . S
C663 Gd599 2.805 . S
C663 O639 1.263 . S
C663 O640 1.252 . S
C663 C657 1.500 . S
H664 C647 0.929 . S
H665 C648 0.930 . S
H666 C649 0.931 . S
H667 C650 0.930 . S
H668 C659 0.929 . S
H669 C660 0.930 . S
H670 C661 0.931 . S
H671 C662 0.930 . S
Cd672 N675 2.334 1_655 S
Cd672 N701 2.304 1_565 S
Cd672 O708 2.268 . S
Cd672 O711 2.273 1_665 S
Cd672 O712 2.417 . S
Cd672 O713 2.330 . S
Cd673 N688 2.304 1_455 S
Cd673 N692 2.334 1_545 S
Cd673 O709 2.273 1_445 S
Cd673 O710 2.268 . S
Cd673 O714 2.417 . S
Cd673 O715 2.330 . S
C674 N675 1.332 . S
C674 C678 1.381 . S
C674 H680 0.931 . S
N675 Cd672 2.334 1_455 S
N675 C674 1.332 . S
N675 C679 1.328 . S
C676 C677 1.396 . S
C676 C679 1.378 . S
C676 H718 0.931 . S
C677 C676 1.396 . S
C677 C678 1.382 . S
C678 C674 1.381 . S
C678 C677 1.382 . S
C678 H719 0.930 . S
C679 N675 1.328 . S
C679 C676 1.378 . S
C679 H681 0.930 1_455 S
H680 C674 0.931 . S
H681 C679 0.930 1_655 S
C682 O708 1.238 . S
C682 O709 1.253 . S
C683 C684 1.379 . S
C683 N688 1.337 . S
C683 H689 0.929 . S
C684 C683 1.379 . S
C684 C685 1.380 . S
C684 H720 0.929 . S
C685 C684 1.380 . S
C685 C686 1.399 . S
C686 C685 1.399 . S
C686 C687 1.376 . S
C686 H721 0.931 . S
C687 C686 1.376 . S
C687 N688 1.338 . S
C687 H690 0.930 1_655 S
N688 Cd673 2.304 1_655 S
N688 C683 1.337 . S
N688 C687 1.338 . S
H689 C683 0.929 . S
H690 C687 0.930 1_455 S
C691 N692 1.332 . S
C691 C695 1.381 . S
C691 H697 0.931 . S
N692 Cd673 2.334 1_565 S
N692 C691 1.332 . S
N692 C696 1.328 . S
C693 C694 1.396 . S
C693 C696 1.378 . S
C693 H722 0.931 . S
C694 C693 1.396 . S
C694 C695 1.382 . S
C695 C691 1.381 . S
C695 C694 1.382 . S
C695 H723 0.930 . S
C696 N692 1.328 . S
C696 C693 1.378 . S
C696 H698 0.930 1_565 S
H697 C691 0.931 . S
H698 C696 0.930 1_545 S
C699 O710 1.238 . S
C699 O711 1.253 . S
C700 O712 1.239 . S
C700 O713 1.230 . S
N701 Cd672 2.304 1_545 S
N701 C702 1.337 . S
N701 C706 1.338 . S
C702 N701 1.337 . S
C702 C703 1.379 . S
C702 H716 0.929 . S
C703 C702 1.379 . S
C703 C704 1.380 . S
C703 H724 0.929 . S
C704 C703 1.380 . S
C704 C705 1.399 . S
C705 C704 1.399 . S
C705 C706 1.376 . S
C705 H725 0.931 . S
C706 N701 1.338 . S
C706 C705 1.376 . S
C706 H717 0.930 1_545 S
C707 O714 1.239 . S
C707 O715 1.230 . S
O708 Cd672 2.268 . S
O708 C682 1.238 . S
O709 Cd673 2.273 1_665 S
O709 C682 1.253 . S
O710 Cd673 2.268 . S
O710 C699 1.238 . S
O711 Cd672 2.273 1_445 S
O711 C699 1.253 . S
O712 Cd672 2.417 . S
O712 C700 1.239 . S
O713 Cd672 2.330 . S
O713 C700 1.230 . S
O714 Cd673 2.417 . S
O714 C707 1.239 . S
O715 Cd673 2.330 . S
O715 C707 1.230 . S
H716 C702 0.929 . S
H717 C706 0.930 1_565 S
H718 C676 0.931 . S
H719 C678 0.930 . S
H720 C684 0.929 . S
H721 C686 0.931 . S
H722 C693 0.931 . S
H723 C695 0.930 . S
H724 C703 0.929 . S
H725 C705 0.931 . S
Cd726 N729 2.334 . S
Cd726 N755 2.304 1_565 S
Cd726 O762 2.268 1_554 S
Cd726 O765 2.273 1_565 S
Cd726 O766 2.417 . S
Cd726 O767 2.330 . S
Cd727 N742 2.304 . S
Cd727 N746 2.334 1_545 S
Cd727 O763 2.273 1_545 S
Cd727 O764 2.268 1_556 S
Cd727 O768 2.417 . S
Cd727 O769 2.330 . S
C728 N729 1.332 . S
C728 C732 1.381 . S
C728 H734 0.931 . S
N729 Cd726 2.334 . S
N729 C728 1.332 . S
N729 C733 1.328 . S
C730 C731 1.396 . S
C730 C733 1.378 . S
C730 H772 0.931 1_554 S
C731 C730 1.396 . S
C731 C732 1.382 . S
C732 C728 1.381 . S
C732 C731 1.382 . S
C732 H773 0.930 . S
C733 N729 1.328 . S
C733 C730 1.378 . S
C733 H735 0.930 1_554 S
H734 C728 0.931 . S
H735 C733 0.930 1_556 S
C736 O762 1.238 . S
C736 O763 1.253 . S
C737 C738 1.379 . S
C737 N742 1.337 . S
C737 H743 0.929 . S
C738 C737 1.379 . S
C738 C739 1.380 . S
C738 H774 0.929 . S
C739 C738 1.380 . S
C739 C740 1.399 . S
C740 C739 1.399 . S
C740 C741 1.376 . S
C740 H775 0.931 1_556 S
C741 C740 1.376 . S
C741 N742 1.338 . S
C741 H744 0.930 1_556 S
N742 Cd727 2.304 . S
N742 C737 1.337 . S
N742 C741 1.338 . S
H743 C737 0.929 . S
H744 C741 0.930 1_554 S
C745 N746 1.332 . S
C745 C749 1.381 . S
C745 H751 0.931 . S
N746 Cd727 2.334 1_565 S
N746 C745 1.332 . S
N746 C750 1.328 . S
C747 C748 1.396 . S
C747 C750 1.378 . S
C747 H776 0.959 . S
C748 C747 1.396 . S
C748 C749 1.382 . S
C749 C745 1.381 . S
C749 C748 1.382 . S
C749 H777 0.930 . S
C750 N746 1.328 . S
C750 C747 1.378 . S
C750 H752 0.930 1_566 S
H751 C745 0.931 . S
H752 C750 0.930 1_544 S
C753 O764 1.238 . S
C753 O765 1.253 . S
C754 O766 1.239 . S
C754 O767 1.230 . S
N755 Cd726 2.304 1_545 S
N755 C756 1.337 . S
N755 C760 1.338 . S
C756 N755 1.337 . S
C756 C757 1.379 . S
C756 H770 0.929 . S
C757 C756 1.379 . S
C757 C758 1.380 . S
C757 H778 0.929 . S
C758 C757 1.380 . S
C758 C759 1.399 . S
C759 C758 1.399 . S
C759 C760 1.376 . S
C759 H779 0.951 . S
C760 N755 1.338 . S
C760 C759 1.376 . S
C760 H771 0.930 1_544 S
C761 O768 1.239 . S
C761 O769 1.230 . S
O762 Cd726 2.268 1_556 S
O762 C736 1.238 . S
O763 Cd727 2.273 1_565 S
O763 C736 1.253 . S
O764 Cd727 2.268 1_554 S
O764 C753 1.238 . S
O765 Cd726 2.273 1_545 S
O765 C753 1.253 . S
O766 Cd726 2.417 . S
O766 C754 1.239 . S
O767 Cd726 2.330 . S
O767 C754 1.230 . S
O768 Cd727 2.417 . S
O768 C761 1.239 . S
O769 Cd727 2.330 . S
O769 C761 1.230 . S
H770 C756 0.929 . S
H771 C760 0.930 1_566 S
H772 C730 0.931 1_556 S
H773 C732 0.930 . S
H774 C738 0.929 . S
H775 C740 0.931 1_554 S
H776 C747 0.959 . S
H777 C749 0.930 . S
H778 C757 0.929 . S
H779 C759 0.951 . S
Cd780 N783 2.334 1_655 S
Cd780 N809 2.304 . S
Cd780 O816 2.268 1_554 S
Cd780 O819 2.273 1_655 S
Cd780 O820 2.417 . S
Cd780 O821 2.330 . S
Cd781 N796 2.304 1_455 S
Cd781 N800 2.334 . S
Cd781 O817 2.273 1_455 S
Cd781 O818 2.268 1_556 S
Cd781 O822 2.417 . S
Cd781 O823 2.330 . S
C782 N783 1.332 . S
C782 C786 1.381 . S
C782 H788 0.931 . S
N783 Cd780 2.334 1_455 S
N783 C782 1.332 . S
N783 C787 1.328 . S
C784 C785 1.396 . S
C784 C787 1.378 . S
C784 H826 0.931 1_554 S
C785 C784 1.396 . S
C785 C786 1.382 . S
C786 C782 1.381 . S
C786 C785 1.382 . S
C786 H827 0.930 . S
C787 N783 1.328 . S
C787 C784 1.378 . S
C787 H789 0.930 1_454 S
H788 C782 0.931 . S
H789 C787 0.930 1_656 S
C790 O816 1.238 . S
C790 O817 1.253 . S
C791 C792 1.379 . S
C791 N796 1.337 . S
C791 H797 0.929 . S
C792 C791 1.379 . S
C792 C793 1.380 . S
C792 H828 0.929 . S
C793 C792 1.380 . S
C793 C794 1.399 . S
C794 C793 1.399 . S
C794 C795 1.376 . S
C794 H829 0.931 1_556 S
C795 C794 1.376 . S
C795 N796 1.338 . S
C795 H798 0.930 1_656 S
N796 Cd781 2.304 1_655 S
N796 C791 1.337 . S
N796 C795 1.338 . S
H797 C791 0.929 . S
H798 C795 0.930 1_454 S
C799 N800 1.332 . S
C799 C803 1.381 . S
C799 H805 0.931 . S
N800 Cd781 2.334 . S
N800 C799 1.332 . S
N800 C804 1.328 . S
C801 C802 1.396 . S
C801 C804 1.378 . S
C801 H830 0.959 . S
C802 C801 1.396 . S
C802 C803 1.382 . S
C803 C799 1.381 . S
C803 C802 1.382 . S
C803 H831 0.930 . S
C804 N800 1.328 . S
C804 C801 1.378 . S
C804 H806 0.930 1_556 S
H805 C799 0.931 . S
H806 C804 0.930 1_554 S
C807 O818 1.238 . S
C807 O819 1.253 . S
C808 O820 1.239 . S
C808 O821 1.230 . S
N809 Cd780 2.304 . S
N809 C810 1.337 . S
N809 C814 1.338 . S
C810 N809 1.337 . S
C810 C811 1.379 . S
C810 H824 0.929 . S
C811 C810 1.379 . S
C811 C812 1.380 . S
C811 H832 0.929 . S
C812 C811 1.380 . S
C812 C813 1.399 . S
C813 C812 1.399 . S
C813 C814 1.376 . S
C813 H833 0.951 . S
C814 N809 1.338 . S
C814 C813 1.376 . S
C814 H825 0.930 1_554 S
C815 O822 1.239 . S
C815 O823 1.230 . S
O816 Cd780 2.268 1_556 S
O816 C790 1.238 . S
O817 Cd781 2.273 1_655 S
O817 C790 1.253 . S
O818 Cd781 2.268 1_554 S
O818 C807 1.238 . S
O819 Cd780 2.273 1_455 S
O819 C807 1.253 . S
O820 Cd780 2.417 . S
O820 C808 1.239 . S
O821 Cd780 2.330 . S
O821 C808 1.230 . S
O822 Cd781 2.417 . S
O822 C815 1.239 . S
O823 Cd781 2.330 . S
O823 C815 1.230 . S
H824 C810 0.929 . S
H825 C814 0.930 1_556 S
H826 C784 0.931 1_556 S
H827 C786 0.930 . S
H828 C792 0.929 . S
H829 C794 0.931 1_554 S
H830 C801 0.959 . S
H831 C803 0.930 . S
H832 C811 0.929 . S
H833 C813 0.951 . S
Cd834 N837 2.334 . S
Cd834 N863 2.304 . S
Cd834 O870 2.268 1_554 S
Cd834 O873 2.273 . S
Cd834 O874 2.417 . S
Cd834 O875 2.330 . S
Cd835 N850 2.304 . S
Cd835 N854 2.334 . S
Cd835 O871 2.273 . S
Cd835 O872 2.268 1_556 S
Cd835 O876 2.417 . S
Cd835 O877 2.330 . S
C836 N837 1.332 . S
C836 C840 1.381 . S
C836 H842 0.931 . S
N837 Cd834 2.334 . S
N837 C836 1.332 . S
N837 C841 1.328 . S
C838 C839 1.396 . S
C838 C841 1.378 . S
C838 H880 0.931 1_554 S
C839 C838 1.396 . S
C839 C840 1.382 . S
C840 C836 1.381 . S
C840 C839 1.382 . S
C840 H881 0.930 . S
C841 N837 1.328 . S
C841 C838 1.378 . S
C841 H843 0.930 1_554 S
H842 C836 0.931 . S
H843 C841 0.930 1_556 S
C844 O870 1.238 . S
C844 O871 1.253 . S
C845 C846 1.379 . S
C845 N850 1.337 . S
C845 H851 0.929 . S
C846 C845 1.379 . S
C846 C847 1.380 . S
C846 H882 0.929 . S
C847 C846 1.380 . S
C847 C848 1.399 . S
C848 C847 1.399 . S
C848 C849 1.376 . S
C848 H883 0.931 1_556 S
C849 C848 1.376 . S
C849 N850 1.338 . S
C849 H852 0.930 1_556 S
N850 Cd835 2.304 . S
N850 C845 1.337 . S
N850 C849 1.338 . S
H851 C845 0.929 . S
H852 C849 0.930 1_554 S
C853 N854 1.332 . S
C853 C857 1.381 . S
C853 H859 0.931 . S
N854 Cd835 2.334 . S
N854 C853 1.332 . S
N854 C858 1.328 . S
C855 C856 1.396 . S
C855 C858 1.378 . S
C855 H884 0.959 . S
C856 C855 1.396 . S
C856 C857 1.382 . S
C857 C853 1.381 . S
C857 C856 1.382 . S
C857 H885 0.930 . S
C858 N854 1.328 . S
C858 C855 1.378 . S
C858 H860 0.930 1_556 S
H859 C853 0.931 . S
H860 C858 0.930 1_554 S
C861 O872 1.238 . S
C861 O873 1.253 . S
C862 O874 1.239 . S
C862 O875 1.230 . S
N863 Cd834 2.304 . S
N863 C864 1.337 . S
N863 C868 1.338 . S
C864 N863 1.337 . S
C864 C865 1.379 . S
C864 H878 0.929 . S
C865 C864 1.379 . S
C865 C866 1.380 . S
C865 H886 0.929 . S
C866 C865 1.380 . S
C866 C867 1.399 . S
C867 C866 1.399 . S
C867 C868 1.376 . S
C867 H887 0.951 . S
C868 N863 1.338 . S
C868 C867 1.376 . S
C868 H879 0.930 1_554 S
C869 O876 1.239 . S
C869 O877 1.230 . S
O870 Cd834 2.268 1_556 S
O870 C844 1.238 . S
O871 Cd835 2.273 . S
O871 C844 1.253 . S
O872 Cd835 2.268 1_554 S
O872 C861 1.238 . S
O873 Cd834 2.273 . S
O873 C861 1.253 . S
O874 Cd834 2.417 . S
O874 C862 1.239 . S
O875 Cd834 2.330 . S
O875 C862 1.230 . S
O876 Cd835 2.417 . S
O876 C869 1.239 . S
O877 Cd835 2.330 . S
O877 C869 1.230 . S
H878 C864 0.929 . S
H879 C868 0.930 1_556 S
H880 C838 0.931 1_556 S
H881 C840 0.930 . S
H882 C846 0.929 . S
H883 C848 0.931 1_554 S
H884 C855 0.959 . S
H885 C857 0.930 . S
H886 C865 0.929 . S
H887 C867 0.951 . S
Cd888 N891 2.334 1_655 S
Cd888 N917 2.304 . S
Cd888 O924 2.268 . S
Cd888 O927 2.273 1_655 S
Cd888 O928 2.417 . S
Cd888 O929 2.330 . S
Cd889 N904 2.304 1_455 S
Cd889 N908 2.334 . S
Cd889 O925 2.273 1_455 S
Cd889 O926 2.268 . S
Cd889 O930 2.417 . S
Cd889 O931 2.330 . S
C890 N891 1.332 . S
C890 C894 1.381 . S
C890 H896 0.931 . S
N891 Cd888 2.334 1_455 S
N891 C890 1.332 . S
N891 C895 1.328 . S
C892 C893 1.396 . S
C892 C895 1.378 . S
C892 H934 0.931 . S
C893 C892 1.396 . S
C893 C894 1.382 . S
C894 C890 1.381 . S
C894 C893 1.382 . S
C894 H935 0.930 . S
C895 N891 1.328 . S
C895 C892 1.378 . S
C895 H897 0.930 1_455 S
H896 C890 0.931 . S
H897 C895 0.930 1_655 S
C898 O924 1.238 . S
C898 O925 1.253 . S
C899 C900 1.379 . S
C899 N904 1.337 . S
C899 H905 0.929 . S
C900 C899 1.379 . S
C900 C901 1.380 . S
C900 H936 0.929 . S
C901 C900 1.380 . S
C901 C902 1.399 . S
C902 C901 1.399 . S
C902 C903 1.376 . S
C902 H937 0.931 . S
C903 C902 1.376 . S
C903 N904 1.338 . S
C903 H906 0.930 1_655 S
N904 Cd889 2.304 1_655 S
N904 C899 1.337 . S
N904 C903 1.338 . S
H905 C899 0.929 . S
H906 C903 0.930 1_455 S
C907 N908 1.332 . S
C907 C911 1.381 . S
C907 H913 0.931 . S
N908 Cd889 2.334 . S
N908 C907 1.332 . S
N908 C912 1.328 . S
C909 C910 1.396 . S
C909 C912 1.378 . S
C909 H938 0.931 . S
C910 C909 1.396 . S
C910 C911 1.382 . S
C911 C907 1.381 . S
C911 C910 1.382 . S
C911 H939 0.930 . S
C912 N908 1.328 . S
C912 C909 1.378 . S
C912 H914 0.930 . S
H913 C907 0.931 . S
H914 C912 0.930 . S
C915 O926 1.238 . S
C915 O927 1.253 . S
C916 O928 1.239 . S
C916 O929 1.230 . S
N917 Cd888 2.304 . S
N917 C918 1.337 . S
N917 C922 1.338 . S
C918 N917 1.337 . S
C918 C919 1.379 . S
C918 H932 0.929 . S
C919 C918 1.379 . S
C919 C920 1.380 . S
C919 H940 0.929 . S
C920 C919 1.380 . S
C920 C921 1.399 . S
C921 C920 1.399 . S
C921 C922 1.376 . S
C921 H941 0.931 . S
C922 N917 1.338 . S
C922 C921 1.376 . S
C922 H933 0.930 . S
C923 O930 1.239 . S
C923 O931 1.230 . S
O924 Cd888 2.268 . S
O924 C898 1.238 . S
O925 Cd889 2.273 1_655 S
O925 C898 1.253 . S
O926 Cd889 2.268 . S
O926 C915 1.238 . S
O927 Cd888 2.273 1_455 S
O927 C915 1.253 . S
O928 Cd888 2.417 . S
O928 C916 1.239 . S
O929 Cd888 2.330 . S
O929 C916 1.230 . S
O930 Cd889 2.417 . S
O930 C923 1.239 . S
O931 Cd889 2.330 . S
O931 C923 1.230 . S
H932 C918 0.929 . S
H933 C922 0.930 . S
H934 C892 0.931 . S
H935 C894 0.930 . S
H936 C900 0.929 . S
H937 C902 0.931 . S
H938 C909 0.931 . S
H939 C911 0.930 . S
H940 C919 0.929 . S
H941 C921 0.931 . S
Cd942 N945 2.334 . S
Cd942 N971 2.304 1_565 S
Cd942 O978 2.268 . S
Cd942 O981 2.273 1_565 S
Cd942 O982 2.417 . S
Cd942 O983 2.330 . S
Cd943 N958 2.304 . S
Cd943 N962 2.334 1_545 S
Cd943 O979 2.273 1_545 S
Cd943 O980 2.268 . S
Cd943 O984 2.417 . S
Cd943 O985 2.330 . S
C944 N945 1.332 . S
C944 C948 1.381 . S
C944 H950 0.931 . S
N945 Cd942 2.334 . S
N945 C944 1.332 . S
N945 C949 1.328 . S
C946 C947 1.396 . S
C946 C949 1.378 . S
C946 H988 0.931 . S
C947 C946 1.396 . S
C947 C948 1.382 . S
C948 C944 1.381 . S
C948 C947 1.382 . S
C948 H989 0.930 . S
C949 N945 1.328 . S
C949 C946 1.378 . S
C949 H951 0.930 . S
H950 C944 0.931 . S
H951 C949 0.930 . S
C952 O978 1.238 . S
C952 O979 1.253 . S
C953 C954 1.379 . S
C953 N958 1.337 . S
C953 H959 0.929 . S
C954 C953 1.379 . S
C954 C955 1.380 . S
C954 H990 0.929 . S
C955 C954 1.380 . S
C955 C956 1.399 . S
C956 C955 1.399 . S
C956 C957 1.376 . S
C956 H991 0.931 . S
C957 C956 1.376 . S
C957 N958 1.338 . S
C957 H960 0.930 . S
N958 Cd943 2.304 . S
N958 C953 1.337 . S
N958 C957 1.338 . S
H959 C953 0.929 . S
H960 C957 0.930 . S
C961 N962 1.332 . S
C961 C965 1.381 . S
C961 H967 0.931 . S
N962 Cd943 2.334 1_565 S
N962 C961 1.332 . S
N962 C966 1.328 . S
C963 C964 1.396 . S
C963 C966 1.378 . S
C963 H992 0.931 . S
C964 C963 1.396 . S
C964 C965 1.382 . S
C965 C961 1.381 . S
C965 C964 1.382 . S
C965 H993 0.930 . S
C966 N962 1.328 . S
C966 C963 1.378 . S
C966 H968 0.930 1_565 S
H967 C961 0.931 . S
H968 C966 0.930 1_545 S
C969 O980 1.238 . S
C969 O981 1.253 . S
C970 O982 1.239 . S
C970 O983 1.230 . S
N971 Cd942 2.304 1_545 S
N971 C972 1.337 . S
N971 C976 1.338 . S
C972 N971 1.337 . S
C972 C973 1.379 . S
C972 H986 0.929 . S
C973 C972 1.379 . S
C973 C974 1.380 . S
C973 H994 0.929 . S
C974 C973 1.380 . S
C974 C975 1.399 . S
C975 C974 1.399 . S
C975 C976 1.376 . S
C975 H995 0.931 . S
C976 N971 1.338 . S
C976 C975 1.376 . S
C976 H987 0.930 1_545 S
C977 O984 1.239 . S
C977 O985 1.230 . S
O978 Cd942 2.268 . S
O978 C952 1.238 . S
O979 Cd943 2.273 1_565 S
O979 C952 1.253 . S
O980 Cd943 2.268 . S
O980 C969 1.238 . S
O981 Cd942 2.273 1_545 S
O981 C969 1.253 . S
O982 Cd942 2.417 . S
O982 C970 1.239 . S
O983 Cd942 2.330 . S
O983 C970 1.230 . S
O984 Cd943 2.417 . S
O984 C977 1.239 . S
O985 Cd943 2.330 . S
O985 C977 1.230 . S
H986 C972 0.929 . S
H987 C976 0.930 1_565 S
H988 C946 0.931 . S
H989 C948 0.930 . S
H990 C954 0.929 . S
H991 C956 0.931 . S
H992 C963 0.931 . S
H993 C965 0.930 . S
H994 C973 0.929 . S
H995 C975 0.931 . S
H996 C1014 0.951 . S
H997 C1016 0.951 . S
H998 C1018 0.950 . S
H999 C1019 0.950 . S
H1000 C1021 0.950 . S
H1001 C1024 0.950 . S
H1002 C1025 0.950 . S
H1003 C1027 0.950 . S
H1004 C1028 0.950 . S
H1005 C1029 0.951 . S
H1006 C1031 0.951 . S
H1007 C1033 0.950 . S
H1008 C1034 0.950 . S
H1009 C1036 0.950 . S
H1010 C1039 0.950 . S
H1011 C1040 0.950 . S
H1012 C1042 0.950 . S
H1013 C1043 0.950 . S
C1014 H996 0.951 . S
C1014 C1015 1.366 . S
C1014 C1016 1.388 . S
C1015 C1014 1.366 . S
C1015 C1019 1.385 . S
C1016 H997 0.951 . S
C1016 C1014 1.388 . S
C1016 C1017 1.366 . S
C1017 C1016 1.366 . S
C1017 C1018 1.414 . S
C1017 C1020 1.499 . S
C1018 H998 0.950 . S
C1018 C1017 1.414 . S
C1018 C1019 1.374 . S
C1019 H999 0.950 . S
C1019 C1015 1.385 . S
C1019 C1018 1.374 . S
C1020 C1017 1.499 . S
C1020 C1021 1.373 . S
C1020 C1022 1.389 . S
C1021 H1000 0.950 . S
C1021 C1020 1.373 . S
C1021 C1037 1.377 . S
C1022 C1020 1.389 . S
C1022 C1023 1.524 . S
C1022 C1036 1.377 . S
C1023 C1022 1.524 . S
C1023 C1024 1.397 . S
C1023 C1028 1.363 . S
C1024 H1001 0.950 . S
C1024 C1023 1.397 . S
C1024 C1025 1.334 . S
C1025 H1002 0.950 . S
C1025 C1024 1.334 . S
C1025 C1026 1.287 . S
C1026 C1025 1.287 . S
C1026 C1027 1.524 . S
C1026 H1045 0.913 . S
C1027 H1003 0.950 . S
C1027 C1026 1.524 . S
C1027 C1028 1.415 . S
C1028 H1004 0.950 . S
C1028 C1023 1.363 . S
C1028 C1027 1.415 . S
C1029 H1005 0.951 . S
C1029 C1030 1.366 . S
C1029 C1031 1.388 . S
C1030 C1029 1.366 . S
C1030 C1034 1.385 . S
C1031 H1006 0.951 . S
C1031 C1029 1.388 . S
C1031 C1032 1.366 . S
C1032 C1031 1.366 . S
C1032 C1033 1.414 . S
C1032 C1035 1.499 . S
C1033 H1007 0.950 . S
C1033 C1032 1.414 . S
C1033 C1034 1.374 . S
C1034 H1008 0.950 . S
C1034 C1030 1.385 . S
C1034 C1033 1.374 . S
C1035 C1032 1.499 . S
C1035 C1036 1.373 . S
C1035 C1037 1.389 . S
C1036 H1009 0.950 . S
C1036 C1022 1.377 . S
C1036 C1035 1.373 . S
C1037 C1021 1.377 . S
C1037 C1035 1.389 . S
C1037 C1038 1.524 . S
C1038 C1037 1.524 . S
C1038 C1039 1.397 . S
C1038 C1043 1.363 . S
C1039 H1010 0.950 . S
C1039 C1038 1.397 . S
C1039 C1040 1.334 . S
C1040 H1011 0.950 . S
C1040 C1039 1.334 . S
C1040 C1041 1.287 . S
C1041 C1040 1.287 . S
C1041 C1042 1.524 . S
C1041 H1044 0.999 . S
C1042 H1012 0.950 . S
C1042 C1041 1.524 . S
C1042 C1043 1.415 . S
C1043 H1013 0.950 . S
C1043 C1038 1.363 . S
C1043 C1042 1.415 . S
H1044 C1041 0.999 . S
H1045 C1026 0.913 . S
H1046 C1064 0.951 . S
H1047 C1066 0.951 . S
H1048 C1068 0.950 . S
H1049 C1069 0.950 . S
H1050 C1071 0.950 . S
H1051 C1074 0.950 . S
H1052 C1075 0.950 . S
H1053 C1077 0.950 . S
H1054 C1078 0.950 . S
H1055 C1079 0.951 . S
H1056 C1081 0.951 . S
H1057 C1083 0.950 . S
H1058 C1084 0.950 . S
H1059 C1086 0.950 . S
H1060 C1089 0.950 . S
H1061 C1090 0.950 . S
H1062 C1092 0.950 . S
H1063 C1093 0.950 . S
C1064 H1046 0.951 . S
C1064 C1065 1.366 . S
C1064 C1066 1.388 . S
C1065 C1064 1.366 . S
C1065 C1069 1.385 . S
C1066 H1047 0.951 . S
C1066 C1064 1.388 . S
C1066 C1067 1.366 . S
C1067 C1066 1.366 . S
C1067 C1068 1.414 . S
C1067 C1070 1.499 . S
C1068 H1048 0.950 . S
C1068 C1067 1.414 . S
C1068 C1069 1.374 . S
C1069 H1049 0.950 . S
C1069 C1065 1.385 . S
C1069 C1068 1.374 . S
C1070 C1067 1.499 . S
C1070 C1071 1.373 . S
C1070 C1072 1.389 . S
C1071 H1050 0.950 . S
C1071 C1070 1.373 . S
C1071 C1087 1.377 . S
C1072 C1070 1.389 . S
C1072 C1073 1.524 . S
C1072 C1086 1.377 . S
C1073 C1072 1.524 . S
C1073 C1074 1.397 . S
C1073 C1078 1.363 . S
C1074 H1051 0.950 . S
C1074 C1073 1.397 . S
C1074 C1075 1.334 . S
C1075 H1052 0.950 . S
C1075 C1074 1.334 . S
C1075 C1076 1.287 . S
C1076 C1075 1.287 . S
C1076 C1077 1.524 . S
C1076 H1095 0.913 . S
C1077 H1053 0.950 . S
C1077 C1076 1.524 . S
C1077 C1078 1.415 . S
C1078 H1054 0.950 . S
C1078 C1073 1.363 . S
C1078 C1077 1.415 . S
C1079 H1055 0.951 . S
C1079 C1080 1.366 . S
C1079 C1081 1.388 . S
C1080 C1079 1.366 . S
C1080 C1084 1.385 . S
C1081 H1056 0.951 . S
C1081 C1079 1.388 . S
C1081 C1082 1.366 . S
C1082 C1081 1.366 . S
C1082 C1083 1.414 . S
C1082 C1085 1.499 . S
C1083 H1057 0.950 . S
C1083 C1082 1.414 . S
C1083 C1084 1.374 . S
C1084 H1058 0.950 . S
C1084 C1080 1.385 . S
C1084 C1083 1.374 . S
C1085 C1082 1.499 . S
C1085 C1086 1.373 . S
C1085 C1087 1.389 . S
C1086 H1059 0.950 . S
C1086 C1072 1.377 . S
C1086 C1085 1.373 . S
C1087 C1071 1.377 . S
C1087 C1085 1.389 . S
C1087 C1088 1.524 . S
C1088 C1087 1.524 . S
C1088 C1089 1.397 . S
C1088 C1093 1.363 . S
C1089 H1060 0.950 . S
C1089 C1088 1.397 . S
C1089 C1090 1.334 . S
C1090 H1061 0.950 . S
C1090 C1089 1.334 . S
C1090 C1091 1.287 . S
C1091 C1090 1.287 . S
C1091 C1092 1.524 . S
C1091 H1094 0.999 . S
C1092 H1062 0.950 . S
C1092 C1091 1.524 . S
C1092 C1093 1.415 . S
C1093 H1063 0.950 . S
C1093 C1088 1.363 . S
C1093 C1092 1.415 . S
H1094 C1091 0.999 . S
H1095 C1076 0.913 . S
H1096 C1114 0.951 . S
H1097 C1116 0.951 . S
H1098 C1118 0.950 . S
H1099 C1119 0.950 . S
H1100 C1121 0.950 . S
H1101 C1124 0.950 . S
H1102 C1125 0.950 . S
H1103 C1127 0.950 . S
H1104 C1128 0.950 . S
H1105 C1129 0.951 . S
H1106 C1131 0.951 . S
H1107 C1133 0.950 . S
H1108 C1134 0.950 . S
H1109 C1136 0.950 . S
H1110 C1139 0.950 . S
H1111 C1140 0.950 . S
H1112 C1142 0.950 . S
H1113 C1143 0.950 . S
C1114 H1096 0.951 . S
C1114 C1115 1.366 . S
C1114 C1116 1.388 . S
C1115 C1114 1.366 . S
C1115 C1119 1.385 . S
C1116 H1097 0.951 . S
C1116 C1114 1.388 . S
C1116 C1117 1.366 . S
C1117 C1116 1.366 . S
C1117 C1118 1.414 . S
C1117 C1120 1.499 . S
C1118 H1098 0.950 . S
C1118 C1117 1.414 . S
C1118 C1119 1.374 . S
C1119 H1099 0.950 . S
C1119 C1115 1.385 . S
C1119 C1118 1.374 . S
C1120 C1117 1.499 . S
C1120 C1121 1.373 . S
C1120 C1122 1.389 . S
C1121 H1100 0.950 . S
C1121 C1120 1.373 . S
C1121 C1137 1.377 . S
C1122 C1120 1.389 . S
C1122 C1123 1.524 . S
C1122 C1136 1.377 . S
C1123 C1122 1.524 . S
C1123 C1124 1.397 . S
C1123 C1128 1.363 . S
C1124 H1101 0.950 . S
C1124 C1123 1.397 . S
C1124 C1125 1.334 . S
C1125 H1102 0.950 . S
C1125 C1124 1.334 . S
C1125 C1126 1.287 . S
C1126 C1125 1.287 . S
C1126 C1127 1.524 . S
C1126 H1145 0.913 . S
C1127 H1103 0.950 . S
C1127 C1126 1.524 . S
C1127 C1128 1.415 . S
C1128 H1104 0.950 . S
C1128 C1123 1.363 . S
C1128 C1127 1.415 . S
C1129 H1105 0.951 . S
C1129 C1130 1.366 . S
C1129 C1131 1.388 . S
C1130 C1129 1.366 . S
C1130 C1134 1.385 . S
C1131 H1106 0.951 . S
C1131 C1129 1.388 . S
C1131 C1132 1.366 . S
C1132 C1131 1.366 . S
C1132 C1133 1.414 . S
C1132 C1135 1.499 . S
C1133 H1107 0.950 . S
C1133 C1132 1.414 . S
C1133 C1134 1.374 . S
C1134 H1108 0.950 . S
C1134 C1130 1.385 . S
C1134 C1133 1.374 . S
C1135 C1132 1.499 . S
C1135 C1136 1.373 . S
C1135 C1137 1.389 . S
C1136 H1109 0.950 . S
C1136 C1122 1.377 . S
C1136 C1135 1.373 . S
C1137 C1121 1.377 . S
C1137 C1135 1.389 . S
C1137 C1138 1.524 . S
C1138 C1137 1.524 . S
C1138 C1139 1.397 . S
C1138 C1143 1.363 . S
C1139 H1110 0.950 . S
C1139 C1138 1.397 . S
C1139 C1140 1.334 . S
C1140 H1111 0.950 . S
C1140 C1139 1.334 . S
C1140 C1141 1.287 . S
C1141 C1140 1.287 . S
C1141 C1142 1.524 . S
C1141 H1144 0.999 . S
C1142 H1112 0.950 . S
C1142 C1141 1.524 . S
C1142 C1143 1.415 . S
C1143 H1113 0.950 . S
C1143 C1138 1.363 . S
C1143 C1142 1.415 . S
H1144 C1141 0.999 . S
H1145 C1126 0.913 . S
H1146 C1164 0.951 . S
H1147 C1166 0.951 . S
H1148 C1168 0.950 . S
H1149 C1169 0.950 . S
H1150 C1171 0.950 . S
H1151 C1174 0.950 . S
H1152 C1175 0.950 . S
H1153 C1177 0.950 . S
H1154 C1178 0.950 . S
H1155 C1179 0.951 . S
H1156 C1181 0.951 . S
H1157 C1183 0.950 . S
H1158 C1184 0.950 . S
H1159 C1186 0.950 . S
H1160 C1189 0.950 . S
H1161 C1190 0.950 . S
H1162 C1192 0.950 . S
H1163 C1193 0.950 . S
C1164 H1146 0.951 . S
C1164 C1165 1.366 . S
C1164 C1166 1.388 . S
C1165 C1164 1.366 . S
C1165 C1169 1.385 . S
C1166 H1147 0.951 . S
C1166 C1164 1.388 . S
C1166 C1167 1.366 . S
C1167 C1166 1.366 . S
C1167 C1168 1.414 . S
C1167 C1170 1.499 . S
C1168 H1148 0.950 . S
C1168 C1167 1.414 . S
C1168 C1169 1.374 . S
C1169 H1149 0.950 . S
C1169 C1165 1.385 . S
C1169 C1168 1.374 . S
C1170 C1167 1.499 . S
C1170 C1171 1.373 . S
C1170 C1172 1.389 . S
C1171 H1150 0.950 . S
C1171 C1170 1.373 . S
C1171 C1187 1.377 . S
C1172 C1170 1.389 . S
C1172 C1173 1.524 . S
C1172 C1186 1.377 . S
C1173 C1172 1.524 . S
C1173 C1174 1.397 . S
C1173 C1178 1.363 . S
C1174 H1151 0.950 . S
C1174 C1173 1.397 . S
C1174 C1175 1.334 . S
C1175 H1152 0.950 . S
C1175 C1174 1.334 . S
C1175 C1176 1.287 . S
C1176 C1175 1.287 . S
C1176 C1177 1.524 . S
C1176 H1195 0.913 . S
C1177 H1153 0.950 . S
C1177 C1176 1.524 . S
C1177 C1178 1.415 . S
C1178 H1154 0.950 . S
C1178 C1173 1.363 . S
C1178 C1177 1.415 . S
C1179 H1155 0.951 . S
C1179 C1180 1.366 . S
C1179 C1181 1.388 . S
C1180 C1179 1.366 . S
C1180 C1184 1.385 . S
C1181 H1156 0.951 . S
C1181 C1179 1.388 . S
C1181 C1182 1.366 . S
C1182 C1181 1.366 . S
C1182 C1183 1.414 . S
C1182 C1185 1.499 . S
C1183 H1157 0.950 . S
C1183 C1182 1.414 . S
C1183 C1184 1.374 . S
C1184 H1158 0.950 . S
C1184 C1180 1.385 . S
C1184 C1183 1.374 . S
C1185 C1182 1.499 . S
C1185 C1186 1.373 . S
C1185 C1187 1.389 . S
C1186 H1159 0.950 . S
C1186 C1172 1.377 . S
C1186 C1185 1.373 . S
C1187 C1171 1.377 . S
C1187 C1185 1.389 . S
C1187 C1188 1.524 . S
C1188 C1187 1.524 . S
C1188 C1189 1.397 . S
C1188 C1193 1.363 . S
C1189 H1160 0.950 . S
C1189 C1188 1.397 . S
C1189 C1190 1.334 . S
C1190 H1161 0.950 . S
C1190 C1189 1.334 . S
C1190 C1191 1.287 . S
C1191 C1190 1.287 . S
C1191 C1192 1.524 . S
C1191 H1194 0.999 . S
C1192 H1162 0.950 . S
C1192 C1191 1.524 . S
C1192 C1193 1.415 . S
C1193 H1163 0.950 . S
C1193 C1188 1.363 . S
C1193 C1192 1.415 . S
H1194 C1191 0.999 . S
H1195 C1176 0.913 . S
H1196 C1214 0.951 . S
H1197 C1216 0.951 . S
H1198 C1218 0.950 . S
H1199 C1219 0.950 . S
H1200 C1221 0.950 . S
H1201 C1224 0.950 . S
H1202 C1225 0.950 . S
H1203 C1227 0.950 . S
H1204 C1228 0.950 . S
H1205 C1229 0.951 . S
H1206 C1231 0.951 . S
H1207 C1233 0.950 . S
H1208 C1234 0.950 . S
H1209 C1236 0.950 . S
H1210 C1239 0.950 . S
H1211 C1240 0.950 . S
H1212 C1242 0.950 . S
H1213 C1243 0.950 . S
C1214 H1196 0.951 . S
C1214 C1215 1.366 . S
C1214 C1216 1.388 . S
C1215 C1214 1.366 . S
C1215 C1219 1.385 . S
C1216 H1197 0.951 . S
C1216 C1214 1.388 . S
C1216 C1217 1.366 . S
C1217 C1216 1.366 . S
C1217 C1218 1.414 . S
C1217 C1220 1.499 . S
C1218 H1198 0.950 . S
C1218 C1217 1.414 . S
C1218 C1219 1.374 . S
C1219 H1199 0.950 . S
C1219 C1215 1.385 . S
C1219 C1218 1.374 . S
C1220 C1217 1.499 . S
C1220 C1221 1.373 . S
C1220 C1222 1.389 . S
C1221 H1200 0.950 . S
C1221 C1220 1.373 . S
C1221 C1237 1.377 . S
C1222 C1220 1.389 . S
C1222 C1223 1.524 . S
C1222 C1236 1.377 . S
C1223 C1222 1.524 . S
C1223 C1224 1.397 . S
C1223 C1228 1.363 . S
C1224 H1201 0.950 . S
C1224 C1223 1.397 . S
C1224 C1225 1.334 . S
C1225 H1202 0.950 . S
C1225 C1224 1.334 . S
C1225 C1226 1.287 . S
C1226 C1225 1.287 . S
C1226 C1227 1.524 . S
C1226 H1245 0.913 . S
C1227 H1203 0.950 . S
C1227 C1226 1.524 . S
C1227 C1228 1.415 . S
C1228 H1204 0.950 . S
C1228 C1223 1.363 . S
C1228 C1227 1.415 . S
C1229 H1205 0.951 . S
C1229 C1230 1.366 . S
C1229 C1231 1.388 . S
C1230 C1229 1.366 . S
C1230 C1234 1.385 . S
C1231 H1206 0.951 . S
C1231 C1229 1.388 . S
C1231 C1232 1.366 . S
C1232 C1231 1.366 . S
C1232 C1233 1.414 . S
C1232 C1235 1.499 . S
C1233 H1207 0.950 . S
C1233 C1232 1.414 . S
C1233 C1234 1.374 . S
C1234 H1208 0.950 . S
C1234 C1230 1.385 . S
C1234 C1233 1.374 . S
C1235 C1232 1.499 . S
C1235 C1236 1.373 . S
C1235 C1237 1.389 . S
C1236 H1209 0.950 . S
C1236 C1222 1.377 . S
C1236 C1235 1.373 . S
C1237 C1221 1.377 . S
C1237 C1235 1.389 . S
C1237 C1238 1.524 . S
C1238 C1237 1.524 . S
C1238 C1239 1.397 . S
C1238 C1243 1.363 . S
C1239 H1210 0.950 . S
C1239 C1238 1.397 . S
C1239 C1240 1.334 . S
C1240 H1211 0.950 . S
C1240 C1239 1.334 . S
C1240 C1241 1.287 . S
C1241 C1240 1.287 . S
C1241 C1242 1.524 . S
C1241 H1244 0.999 . S
C1242 H1212 0.950 . S
C1242 C1241 1.524 . S
C1242 C1243 1.415 . S
C1243 H1213 0.950 . S
C1243 C1238 1.363 . S
C1243 C1242 1.415 . S
H1244 C1241 0.999 . S
H1245 C1226 0.913 . S
H1246 C1264 0.951 . S
H1247 C1266 0.951 . S
H1248 C1268 0.950 . S
H1249 C1269 0.950 . S
H1250 C1271 0.950 . S
H1251 C1274 0.950 . S
H1252 C1275 0.950 . S
H1253 C1277 0.950 . S
H1254 C1278 0.950 . S
H1255 C1279 0.951 . S
H1256 C1281 0.951 . S
H1257 C1283 0.950 . S
H1258 C1284 0.950 . S
H1259 C1286 0.950 . S
H1260 C1289 0.950 . S
H1261 C1290 0.950 . S
H1262 C1292 0.950 . S
H1263 C1293 0.950 . S
C1264 H1246 0.951 . S
C1264 C1265 1.366 . S
C1264 C1266 1.388 . S
C1265 C1264 1.366 . S
C1265 C1269 1.385 . S
C1266 H1247 0.951 . S
C1266 C1264 1.388 . S
C1266 C1267 1.366 . S
C1267 C1266 1.366 . S
C1267 C1268 1.414 . S
C1267 C1270 1.499 . S
C1268 H1248 0.950 . S
C1268 C1267 1.414 . S
C1268 C1269 1.374 . S
C1269 H1249 0.950 . S
C1269 C1265 1.385 . S
C1269 C1268 1.374 . S
C1270 C1267 1.499 . S
C1270 C1271 1.373 . S
C1270 C1272 1.389 . S
C1271 H1250 0.950 . S
C1271 C1270 1.373 . S
C1271 C1287 1.377 . S
C1272 C1270 1.389 . S
C1272 C1273 1.524 . S
C1272 C1286 1.377 . S
C1273 C1272 1.524 . S
C1273 C1274 1.397 . S
C1273 C1278 1.363 . S
C1274 H1251 0.950 . S
C1274 C1273 1.397 . S
C1274 C1275 1.334 . S
C1275 H1252 0.950 . S
C1275 C1274 1.334 . S
C1275 C1276 1.287 . S
C1276 C1275 1.287 . S
C1276 C1277 1.524 . S
C1276 H1295 0.913 . S
C1277 H1253 0.950 . S
C1277 C1276 1.524 . S
C1277 C1278 1.415 . S
C1278 H1254 0.950 . S
C1278 C1273 1.363 . S
C1278 C1277 1.415 . S
C1279 H1255 0.951 . S
C1279 C1280 1.366 . S
C1279 C1281 1.388 . S
C1280 C1279 1.366 . S
C1280 C1284 1.385 . S
C1281 H1256 0.951 . S
C1281 C1279 1.388 . S
C1281 C1282 1.366 . S
C1282 C1281 1.366 . S
C1282 C1283 1.414 . S
C1282 C1285 1.499 . S
C1283 H1257 0.950 . S
C1283 C1282 1.414 . S
C1283 C1284 1.374 . S
C1284 H1258 0.950 . S
C1284 C1280 1.385 . S
C1284 C1283 1.374 . S
C1285 C1282 1.499 . S
C1285 C1286 1.373 . S
C1285 C1287 1.389 . S
C1286 H1259 0.950 . S
C1286 C1272 1.377 . S
C1286 C1285 1.373 . S
C1287 C1271 1.377 . S
C1287 C1285 1.389 . S
C1287 C1288 1.524 . S
C1288 C1287 1.524 . S
C1288 C1289 1.397 . S
C1288 C1293 1.363 . S
C1289 H1260 0.950 . S
C1289 C1288 1.397 . S
C1289 C1290 1.334 . S
C1290 H1261 0.950 . S
C1290 C1289 1.334 . S
C1290 C1291 1.287 . S
C1291 C1290 1.287 . S
C1291 C1292 1.524 . S
C1291 H1294 0.999 . S
C1292 H1262 0.950 . S
C1292 C1291 1.524 . S
C1292 C1293 1.415 . S
C1293 H1263 0.950 . S
C1293 C1288 1.363 . S
C1293 C1292 1.415 . S
H1294 C1291 0.999 . S
H1295 C1276 0.913 . S
H1296 C1314 0.951 . S
H1297 C1316 0.951 . S
H1298 C1318 0.950 . S
H1299 C1319 0.950 . S
H1300 C1321 0.950 . S
H1301 C1324 0.950 . S
H1302 C1325 0.950 . S
H1303 C1327 0.950 . S
H1304 C1328 0.950 . S
H1305 C1329 0.951 . S
H1306 C1331 0.951 . S
H1307 C1333 0.950 . S
H1308 C1334 0.950 . S
H1309 C1336 0.950 . S
H1310 C1339 0.950 . S
H1311 C1340 0.950 . S
H1312 C1342 0.950 . S
H1313 C1343 0.950 . S
C1314 H1296 0.951 . S
C1314 C1315 1.366 . S
C1314 C1316 1.388 . S
C1315 C1314 1.366 . S
C1315 C1319 1.385 . S
C1316 H1297 0.951 . S
C1316 C1314 1.388 . S
C1316 C1317 1.366 . S
C1317 C1316 1.366 . S
C1317 C1318 1.414 . S
C1317 C1320 1.499 . S
C1318 H1298 0.950 . S
C1318 C1317 1.414 . S
C1318 C1319 1.374 . S
C1319 H1299 0.950 . S
C1319 C1315 1.385 . S
C1319 C1318 1.374 . S
C1320 C1317 1.499 . S
C1320 C1321 1.373 . S
C1320 C1322 1.389 . S
C1321 H1300 0.950 . S
C1321 C1320 1.373 . S
C1321 C1337 1.377 . S
C1322 C1320 1.389 . S
C1322 C1323 1.524 . S
C1322 C1336 1.377 . S
C1323 C1322 1.524 . S
C1323 C1324 1.397 . S
C1323 C1328 1.363 . S
C1324 H1301 0.950 . S
C1324 C1323 1.397 . S
C1324 C1325 1.334 . S
C1325 H1302 0.950 . S
C1325 C1324 1.334 . S
C1325 C1326 1.287 . S
C1326 C1325 1.287 . S
C1326 C1327 1.524 . S
C1326 H1345 0.913 . S
C1327 H1303 0.950 . S
C1327 C1326 1.524 . S
C1327 C1328 1.415 . S
C1328 H1304 0.950 . S
C1328 C1323 1.363 . S
C1328 C1327 1.415 . S
C1329 H1305 0.951 . S
C1329 C1330 1.366 . S
C1329 C1331 1.388 . S
C1330 C1329 1.366 . S
C1330 C1334 1.385 . S
C1331 H1306 0.951 . S
C1331 C1329 1.388 . S
C1331 C1332 1.366 . S
C1332 C1331 1.366 . S
C1332 C1333 1.414 . S
C1332 C1335 1.499 . S
C1333 H1307 0.950 . S
C1333 C1332 1.414 . S
C1333 C1334 1.374 . S
C1334 H1308 0.950 . S
C1334 C1330 1.385 . S
C1334 C1333 1.374 . S
C1335 C1332 1.499 . S
C1335 C1336 1.373 . S
C1335 C1337 1.389 . S
C1336 H1309 0.950 . S
C1336 C1322 1.377 . S
C1336 C1335 1.373 . S
C1337 C1321 1.377 . S
C1337 C1335 1.389 . S
C1337 C1338 1.524 . S
C1338 C1337 1.524 . S
C1338 C1339 1.397 . S
C1338 C1343 1.363 . S
C1339 H1310 0.950 . S
C1339 C1338 1.397 . S
C1339 C1340 1.334 . S
C1340 H1311 0.950 . S
C1340 C1339 1.334 . S
C1340 C1341 1.287 . S
C1341 C1340 1.287 . S
C1341 C1342 1.524 . S
C1341 H1344 0.999 . S
C1342 H1312 0.950 . S
C1342 C1341 1.524 . S
C1342 C1343 1.415 . S
C1343 H1313 0.950 . S
C1343 C1338 1.363 . S
C1343 C1342 1.415 . S
H1344 C1341 0.999 . S
H1345 C1326 0.913 . S
H1346 C1364 0.951 . S
H1347 C1366 0.951 . S
H1348 C1368 0.950 . S
H1349 C1369 0.950 . S
H1350 C1371 0.950 . S
H1351 C1374 0.950 . S
H1352 C1375 0.950 . S
H1353 C1377 0.950 . S
H1354 C1378 0.950 . S
H1355 C1379 0.951 . S
H1356 C1381 0.951 . S
H1357 C1383 0.950 . S
H1358 C1384 0.950 . S
H1359 C1386 0.950 . S
H1360 C1389 0.950 . S
H1361 C1390 0.950 . S
H1362 C1392 0.950 . S
H1363 C1393 0.950 . S
C1364 H1346 0.951 . S
C1364 C1365 1.366 . S
C1364 C1366 1.388 . S
C1365 C1364 1.366 . S
C1365 C1369 1.385 . S
C1366 H1347 0.951 . S
C1366 C1364 1.388 . S
C1366 C1367 1.366 . S
C1367 C1366 1.366 . S
C1367 C1368 1.414 . S
C1367 C1370 1.499 . S
C1368 H1348 0.950 . S
C1368 C1367 1.414 . S
C1368 C1369 1.374 . S
C1369 H1349 0.950 . S
C1369 C1365 1.385 . S
C1369 C1368 1.374 . S
C1370 C1367 1.499 . S
C1370 C1371 1.373 . S
C1370 C1372 1.389 . S
C1371 H1350 0.950 . S
C1371 C1370 1.373 . S
C1371 C1387 1.377 . S
C1372 C1370 1.389 . S
C1372 C1373 1.524 . S
C1372 C1386 1.377 . S
C1373 C1372 1.524 . S
C1373 C1374 1.397 . S
C1373 C1378 1.363 . S
C1374 H1351 0.950 . S
C1374 C1373 1.397 . S
C1374 C1375 1.334 . S
C1375 H1352 0.950 . S
C1375 C1374 1.334 . S
C1375 C1376 1.287 . S
C1376 C1375 1.287 . S
C1376 C1377 1.524 . S
C1376 H1395 0.913 . S
C1377 H1353 0.950 . S
C1377 C1376 1.524 . S
C1377 C1378 1.415 . S
C1378 H1354 0.950 . S
C1378 C1373 1.363 . S
C1378 C1377 1.415 . S
C1379 H1355 0.951 . S
C1379 C1380 1.366 . S
C1379 C1381 1.388 . S
C1380 C1379 1.366 . S
C1380 C1384 1.385 . S
C1381 H1356 0.951 . S
C1381 C1379 1.388 . S
C1381 C1382 1.366 . S
C1382 C1381 1.366 . S
C1382 C1383 1.414 . S
C1382 C1385 1.499 . S
C1383 H1357 0.950 . S
C1383 C1382 1.414 . S
C1383 C1384 1.374 . S
C1384 H1358 0.950 . S
C1384 C1380 1.385 . S
C1384 C1383 1.374 . S
C1385 C1382 1.499 . S
C1385 C1386 1.373 . S
C1385 C1387 1.389 . S
C1386 H1359 0.950 . S
C1386 C1372 1.377 . S
C1386 C1385 1.373 . S
C1387 C1371 1.377 . S
C1387 C1385 1.389 . S
C1387 C1388 1.524 . S
C1388 C1387 1.524 . S
C1388 C1389 1.397 . S
C1388 C1393 1.363 . S
C1389 H1360 0.950 . S
C1389 C1388 1.397 . S
C1389 C1390 1.334 . S
C1390 H1361 0.950 . S
C1390 C1389 1.334 . S
C1390 C1391 1.287 . S
C1391 C1390 1.287 . S
C1391 C1392 1.524 . S
C1391 H1394 0.999 . S
C1392 H1362 0.950 . S
C1392 C1391 1.524 . S
C1392 C1393 1.415 . S
C1393 H1363 0.950 . S
C1393 C1388 1.363 . S
C1393 C1392 1.415 . S
H1394 C1391 0.999 . S
H1395 C1376 0.913 . S
H1396 C1414 0.951 . S
H1397 C1416 0.951 . S
H1398 C1418 0.950 . S
H1399 C1419 0.950 . S
H1400 C1421 0.950 . S
H1401 C1424 0.950 . S
H1402 C1425 0.950 . S
H1403 C1427 0.950 . S
H1404 C1428 0.950 . S
H1405 C1429 0.951 . S
H1406 C1431 0.951 . S
H1407 C1433 0.950 . S
H1408 C1434 0.950 . S
H1409 C1436 0.950 . S
H1410 C1439 0.950 . S
H1411 C1440 0.950 . S
H1412 C1442 0.950 . S
H1413 C1443 0.950 . S
C1414 H1396 0.951 . S
C1414 C1415 1.366 . S
C1414 C1416 1.388 . S
C1415 C1414 1.366 . S
C1415 C1419 1.385 . S
C1416 H1397 0.951 . S
C1416 C1414 1.388 . S
C1416 C1417 1.366 . S
C1417 C1416 1.366 . S
C1417 C1418 1.414 . S
C1417 C1420 1.499 . S
C1418 H1398 0.950 . S
C1418 C1417 1.414 . S
C1418 C1419 1.374 . S
C1419 H1399 0.950 . S
C1419 C1415 1.385 . S
C1419 C1418 1.374 . S
C1420 C1417 1.499 . S
C1420 C1421 1.373 . S
C1420 C1422 1.389 . S
C1421 H1400 0.950 . S
C1421 C1420 1.373 . S
C1421 C1437 1.377 . S
C1422 C1420 1.389 . S
C1422 C1423 1.524 . S
C1422 C1436 1.377 . S
C1423 C1422 1.524 . S
C1423 C1424 1.397 . S
C1423 C1428 1.363 . S
C1424 H1401 0.950 . S
C1424 C1423 1.397 . S
C1424 C1425 1.334 . S
C1425 H1402 0.950 . S
C1425 C1424 1.334 . S
C1425 C1426 1.287 . S
C1426 C1425 1.287 . S
C1426 C1427 1.524 . S
C1426 H1445 0.913 . S
C1427 H1403 0.950 . S
C1427 C1426 1.524 . S
C1427 C1428 1.415 . S
C1428 H1404 0.950 . S
C1428 C1423 1.363 . S
C1428 C1427 1.415 . S
C1429 H1405 0.951 . S
C1429 C1430 1.366 . S
C1429 C1431 1.388 . S
C1430 C1429 1.366 . S
C1430 C1434 1.385 . S
C1431 H1406 0.951 . S
C1431 C1429 1.388 . S
C1431 C1432 1.366 . S
C1432 C1431 1.366 . S
C1432 C1433 1.414 . S
C1432 C1435 1.499 . S
C1433 H1407 0.950 . S
C1433 C1432 1.414 . S
C1433 C1434 1.374 . S
C1434 H1408 0.950 . S
C1434 C1430 1.385 . S
C1434 C1433 1.374 . S
C1435 C1432 1.499 . S
C1435 C1436 1.373 . S
C1435 C1437 1.389 . S
C1436 H1409 0.950 . S
C1436 C1422 1.377 . S
C1436 C1435 1.373 . S
C1437 C1421 1.377 . S
C1437 C1435 1.389 . S
C1437 C1438 1.524 . S
C1438 C1437 1.524 . S
C1438 C1439 1.397 . S
C1438 C1443 1.363 . S
C1439 H1410 0.950 . S
C1439 C1438 1.397 . S
C1439 C1440 1.334 . S
C1440 H1411 0.950 . S
C1440 C1439 1.334 . S
C1440 C1441 1.287 . S
C1441 C1440 1.287 . S
C1441 C1442 1.524 . S
C1441 H1444 0.999 . S
C1442 H1412 0.950 . S
C1442 C1441 1.524 . S
C1442 C1443 1.415 . S
C1443 H1413 0.950 . S
C1443 C1438 1.363 . S
C1443 C1442 1.415 . S
H1444 C1441 0.999 . S
H1445 C1426 0.913 . S
H1446 C1464 0.951 . S
H1447 C1466 0.951 . S
H1448 C1468 0.950 . S
H1449 C1469 0.950 . S
H1450 C1471 0.950 . S
H1451 C1474 0.950 . S
H1452 C1475 0.950 . S
H1453 C1477 0.950 . S
H1454 C1478 0.950 . S
H1455 C1479 0.951 . S
H1456 C1481 0.951 . S
H1457 C1483 0.950 . S
H1458 C1484 0.950 . S
H1459 C1486 0.950 . S
H1460 C1489 0.950 . S
H1461 C1490 0.950 . S
H1462 C1492 0.950 . S
H1463 C1493 0.950 . S
C1464 H1446 0.951 . S
C1464 C1465 1.366 . S
C1464 C1466 1.388 . S
C1465 C1464 1.366 . S
C1465 C1469 1.385 . S
C1466 H1447 0.951 . S
C1466 C1464 1.388 . S
C1466 C1467 1.366 . S
C1467 C1466 1.366 . S
C1467 C1468 1.414 . S
C1467 C1470 1.499 . S
C1468 H1448 0.950 . S
C1468 C1467 1.414 . S
C1468 C1469 1.374 . S
C1469 H1449 0.950 . S
C1469 C1465 1.385 . S
C1469 C1468 1.374 . S
C1470 C1467 1.499 . S
C1470 C1471 1.373 . S
C1470 C1472 1.389 . S
C1471 H1450 0.950 . S
C1471 C1470 1.373 . S
C1471 C1487 1.377 . S
C1472 C1470 1.389 . S
C1472 C1473 1.524 . S
C1472 C1486 1.377 . S
C1473 C1472 1.524 . S
C1473 C1474 1.397 . S
C1473 C1478 1.363 . S
C1474 H1451 0.950 . S
C1474 C1473 1.397 . S
C1474 C1475 1.334 . S
C1475 H1452 0.950 . S
C1475 C1474 1.334 . S
C1475 C1476 1.287 . S
C1476 C1475 1.287 . S
C1476 C1477 1.524 . S
C1476 H1495 0.913 . S
C1477 H1453 0.950 . S
C1477 C1476 1.524 . S
C1477 C1478 1.415 . S
C1478 H1454 0.950 . S
C1478 C1473 1.363 . S
C1478 C1477 1.415 . S
C1479 H1455 0.951 . S
C1479 C1480 1.366 . S
C1479 C1481 1.388 . S
C1480 C1479 1.366 . S
C1480 C1484 1.385 . S
C1481 H1456 0.951 . S
C1481 C1479 1.388 . S
C1481 C1482 1.366 . S
C1482 C1481 1.366 . S
C1482 C1483 1.414 . S
C1482 C1485 1.499 . S
C1483 H1457 0.950 . S
C1483 C1482 1.414 . S
C1483 C1484 1.374 . S
C1484 H1458 0.950 . S
C1484 C1480 1.385 . S
C1484 C1483 1.374 . S
C1485 C1482 1.499 . S
C1485 C1486 1.373 . S
C1485 C1487 1.389 . S
C1486 H1459 0.950 . S
C1486 C1472 1.377 . S
C1486 C1485 1.373 . S
C1487 C1471 1.377 . S
C1487 C1485 1.389 . S
C1487 C1488 1.524 . S
C1488 C1487 1.524 . S
C1488 C1489 1.397 . S
C1488 C1493 1.363 . S
C1489 H1460 0.950 . S
C1489 C1488 1.397 . S
C1489 C1490 1.334 . S
C1490 H1461 0.950 . S
C1490 C1489 1.334 . S
C1490 C1491 1.287 . S
C1491 C1490 1.287 . S
C1491 C1492 1.524 . S
C1491 H1494 0.999 . S
C1492 H1462 0.950 . S
C1492 C1491 1.524 . S
C1492 C1493 1.415 . S
C1493 H1463 0.950 . S
C1493 C1488 1.363 . S
C1493 C1492 1.415 . S
H1494 C1491 0.999 . S
H1495 C1476 0.913 . S
H1496 C1514 0.951 . S
H1497 C1516 0.951 . S
H1498 C1518 0.950 . S
H1499 C1519 0.950 . S
H1500 C1521 0.950 . S
H1501 C1524 0.950 . S
H1502 C1525 0.950 . S
H1503 C1527 0.950 1_556 S
H1504 C1528 0.950 . S
H1505 C1529 0.951 . S
H1506 C1531 0.951 . S
H1507 C1533 0.950 . S
H1508 C1534 0.950 . S
H1509 C1536 0.950 . S
H1510 C1539 0.950 . S
H1511 C1540 0.950 . S
H1512 C1542 0.950 . S
H1513 C1543 0.950 . S
C1514 H1496 0.951 . S
C1514 C1515 1.366 . S
C1514 C1516 1.388 . S
C1515 C1514 1.366 . S
C1515 C1519 1.385 . S
C1516 H1497 0.951 . S
C1516 C1514 1.388 . S
C1516 C1517 1.366 . S
C1517 C1516 1.366 . S
C1517 C1518 1.414 . S
C1517 C1520 1.499 . S
C1518 H1498 0.950 . S
C1518 C1517 1.414 . S
C1518 C1519 1.374 . S
C1519 H1499 0.950 . S
C1519 C1515 1.385 . S
C1519 C1518 1.374 . S
C1520 C1517 1.499 . S
C1520 C1521 1.373 . S
C1520 C1522 1.389 . S
C1521 H1500 0.950 . S
C1521 C1520 1.373 . S
C1521 C1537 1.377 . S
C1522 C1520 1.389 . S
C1522 C1523 1.524 . S
C1522 C1536 1.377 . S
C1523 C1522 1.524 . S
C1523 C1524 1.397 . S
C1523 C1528 1.363 . S
C1524 H1501 0.950 . S
C1524 C1523 1.397 . S
C1524 C1525 1.334 . S
C1525 H1502 0.950 . S
C1525 C1524 1.334 . S
C1525 C1526 1.287 . S
C1526 C1525 1.287 . S
C1526 C1527 1.524 . S
C1526 H1545 0.913 . S
C1527 H1503 0.950 1_554 S
C1527 C1526 1.524 . S
C1527 C1528 1.415 . S
C1528 H1504 0.950 . S
C1528 C1523 1.363 . S
C1528 C1527 1.415 . S
C1529 H1505 0.951 . S
C1529 C1530 1.366 . S
C1529 C1531 1.388 . S
C1530 C1529 1.366 . S
C1530 C1534 1.385 . S
C1531 H1506 0.951 . S
C1531 C1529 1.388 . S
C1531 C1532 1.366 . S
C1532 C1531 1.366 . S
C1532 C1533 1.414 . S
C1532 C1535 1.499 . S
C1533 H1507 0.950 . S
C1533 C1532 1.414 . S
C1533 C1534 1.374 . S
C1534 H1508 0.950 . S
C1534 C1530 1.385 . S
C1534 C1533 1.374 . S
C1535 C1532 1.499 . S
C1535 C1536 1.373 . S
C1535 C1537 1.389 . S
C1536 H1509 0.950 . S
C1536 C1522 1.377 . S
C1536 C1535 1.373 . S
C1537 C1521 1.377 . S
C1537 C1535 1.389 . S
C1537 C1538 1.524 . S
C1538 C1537 1.524 . S
C1538 C1539 1.397 . S
C1538 C1543 1.363 . S
C1539 H1510 0.950 . S
C1539 C1538 1.397 . S
C1539 C1540 1.334 . S
C1540 H1511 0.950 . S
C1540 C1539 1.334 . S
C1540 C1541 1.287 . S
C1541 C1540 1.287 . S
C1541 C1542 1.524 . S
C1541 H1544 0.999 . S
C1542 H1512 0.950 . S
C1542 C1541 1.524 . S
C1542 C1543 1.415 . S
C1543 H1513 0.950 . S
C1543 C1538 1.363 . S
C1543 C1542 1.415 . S
H1544 C1541 0.999 . S
H1545 C1526 0.913 . S
H1546 C1564 0.951 . S
H1547 C1566 0.951 . S
H1548 C1568 0.950 . S
H1549 C1569 0.950 . S
H1550 C1571 0.950 . S
H1551 C1574 0.950 . S
H1552 C1575 0.950 . S
H1553 C1577 0.950 . S
H1554 C1578 0.950 . S
H1555 C1579 0.951 . S
H1556 C1581 0.951 . S
H1557 C1583 0.950 . S
H1558 C1584 0.950 . S
H1559 C1586 0.950 . S
H1560 C1589 0.950 . S
H1561 C1590 0.950 . S
H1562 C1592 0.950 . S
H1563 C1593 0.950 . S
C1564 H1546 0.951 . S
C1564 C1565 1.366 . S
C1564 C1566 1.388 . S
C1565 C1564 1.366 . S
C1565 C1569 1.385 . S
C1566 H1547 0.951 . S
C1566 C1564 1.388 . S
C1566 C1567 1.366 . S
C1567 C1566 1.366 . S
C1567 C1568 1.414 . S
C1567 C1570 1.499 . S
C1568 H1548 0.950 . S
C1568 C1567 1.414 . S
C1568 C1569 1.374 . S
C1569 H1549 0.950 . S
C1569 C1565 1.385 . S
C1569 C1568 1.374 . S
C1570 C1567 1.499 . S
C1570 C1571 1.373 . S
C1570 C1572 1.389 . S
C1571 H1550 0.950 . S
C1571 C1570 1.373 . S
C1571 C1587 1.377 . S
C1572 C1570 1.389 . S
C1572 C1573 1.524 . S
C1572 C1586 1.377 . S
C1573 C1572 1.524 . S
C1573 C1574 1.397 . S
C1573 C1578 1.363 . S
C1574 H1551 0.950 . S
C1574 C1573 1.397 . S
C1574 C1575 1.334 . S
C1575 H1552 0.950 . S
C1575 C1574 1.334 . S
C1575 C1576 1.287 . S
C1576 C1575 1.287 . S
C1576 C1577 1.524 . S
C1576 H1595 0.913 . S
C1577 H1553 0.950 . S
C1577 C1576 1.524 . S
C1577 C1578 1.415 . S
C1578 H1554 0.950 . S
C1578 C1573 1.363 . S
C1578 C1577 1.415 . S
C1579 H1555 0.951 . S
C1579 C1580 1.366 . S
C1579 C1581 1.388 . S
C1580 C1579 1.366 . S
C1580 C1584 1.385 . S
C1581 H1556 0.951 . S
C1581 C1579 1.388 . S
C1581 C1582 1.366 . S
C1582 C1581 1.366 . S
C1582 C1583 1.414 . S
C1582 C1585 1.499 . S
C1583 H1557 0.950 . S
C1583 C1582 1.414 . S
C1583 C1584 1.374 . S
C1584 H1558 0.950 . S
C1584 C1580 1.385 . S
C1584 C1583 1.374 . S
C1585 C1582 1.499 . S
C1585 C1586 1.373 . S
C1585 C1587 1.389 . S
C1586 H1559 0.950 . S
C1586 C1572 1.377 . S
C1586 C1585 1.373 . S
C1587 C1571 1.377 . S
C1587 C1585 1.389 . S
C1587 C1588 1.524 . S
C1588 C1587 1.524 . S
C1588 C1589 1.397 . S
C1588 C1593 1.363 . S
C1589 H1560 0.950 . S
C1589 C1588 1.397 . S
C1589 C1590 1.334 . S
C1590 H1561 0.950 . S
C1590 C1589 1.334 . S
C1590 C1591 1.287 . S
C1591 C1590 1.287 . S
C1591 C1592 1.524 . S
C1591 H1594 0.999 . S
C1592 H1562 0.950 . S
C1592 C1591 1.524 . S
C1592 C1593 1.415 . S
C1593 H1563 0.950 . S
C1593 C1588 1.363 . S
C1593 C1592 1.415 . S
H1594 C1591 0.999 . S
H1595 C1576 0.913 . S
H1596 C1614 0.951 . S
H1597 C1616 0.951 . S
H1598 C1618 0.950 . S
H1599 C1619 0.950 . S
H1600 C1621 0.950 . S
H1601 C1624 0.950 . S
H1602 C1625 0.950 . S
H1603 C1627 0.950 . S
H1604 C1628 0.950 . S
H1605 C1629 0.951 . S
H1606 C1631 0.951 . S
H1607 C1633 0.950 . S
H1608 C1634 0.950 . S
H1609 C1636 0.950 . S
H1610 C1639 0.950 . S
H1611 C1640 0.950 . S
H1612 C1642 0.950 . S
H1613 C1643 0.950 . S
C1614 H1596 0.951 . S
C1614 C1615 1.366 . S
C1614 C1616 1.388 . S
C1615 C1614 1.366 . S
C1615 C1619 1.385 . S
C1616 H1597 0.951 . S
C1616 C1614 1.388 . S
C1616 C1617 1.366 . S
C1617 C1616 1.366 . S
C1617 C1618 1.414 . S
C1617 C1620 1.499 . S
C1618 H1598 0.950 . S
C1618 C1617 1.414 . S
C1618 C1619 1.374 . S
C1619 H1599 0.950 . S
C1619 C1615 1.385 . S
C1619 C1618 1.374 . S
C1620 C1617 1.499 . S
C1620 C1621 1.373 . S
C1620 C1622 1.389 . S
C1621 H1600 0.950 . S
C1621 C1620 1.373 . S
C1621 C1637 1.377 . S
C1622 C1620 1.389 . S
C1622 C1623 1.524 . S
C1622 C1636 1.377 . S
C1623 C1622 1.524 . S
C1623 C1624 1.397 . S
C1623 C1628 1.363 . S
C1624 H1601 0.950 . S
C1624 C1623 1.397 . S
C1624 C1625 1.334 . S
C1625 H1602 0.950 . S
C1625 C1624 1.334 . S
C1625 C1626 1.287 . S
C1626 C1625 1.287 . S
C1626 C1627 1.524 . S
C1626 H1645 0.913 . S
C1627 H1603 0.950 . S
C1627 C1626 1.524 . S
C1627 C1628 1.415 . S
C1628 H1604 0.950 . S
C1628 C1623 1.363 . S
C1628 C1627 1.415 . S
C1629 H1605 0.951 . S
C1629 C1630 1.366 . S
C1629 C1631 1.388 . S
C1630 C1629 1.366 . S
C1630 C1634 1.385 . S
C1631 H1606 0.951 . S
C1631 C1629 1.388 . S
C1631 C1632 1.366 . S
C1632 C1631 1.366 . S
C1632 C1633 1.414 . S
C1632 C1635 1.499 . S
C1633 H1607 0.950 . S
C1633 C1632 1.414 . S
C1633 C1634 1.374 . S
C1634 H1608 0.950 . S
C1634 C1630 1.385 . S
C1634 C1633 1.374 . S
C1635 C1632 1.499 . S
C1635 C1636 1.373 . S
C1635 C1637 1.389 . S
C1636 H1609 0.950 . S
C1636 C1622 1.377 . S
C1636 C1635 1.373 . S
C1637 C1621 1.377 . S
C1637 C1635 1.389 . S
C1637 C1638 1.524 . S
C1638 C1637 1.524 . S
C1638 C1639 1.397 . S
C1638 C1643 1.363 . S
C1639 H1610 0.950 . S
C1639 C1638 1.397 . S
C1639 C1640 1.334 . S
C1640 H1611 0.950 . S
C1640 C1639 1.334 . S
C1640 C1641 1.287 . S
C1641 C1640 1.287 . S
C1641 C1642 1.524 . S
C1641 H1644 0.999 . S
C1642 H1612 0.950 . S
C1642 C1641 1.524 . S
C1642 C1643 1.415 . S
C1643 H1613 0.950 . S
C1643 C1638 1.363 . S
C1643 C1642 1.415 . S
H1644 C1641 0.999 . S
H1645 C1626 0.913 . S
H1646 C1664 0.951 . S
H1647 C1666 0.951 . S
H1648 C1668 0.950 . S
H1649 C1669 0.950 . S
H1650 C1671 0.950 . S
H1651 C1674 0.950 . S
H1652 C1675 0.950 . S
H1653 C1677 0.950 . S
H1654 C1678 0.950 . S
H1655 C1679 0.951 . S
H1656 C1681 0.951 . S
H1657 C1683 0.950 . S
H1658 C1684 0.950 . S
H1659 C1686 0.950 . S
H1660 C1689 0.950 . S
H1661 C1690 0.950 . S
H1662 C1692 0.950 . S
H1663 C1693 0.950 . S
C1664 H1646 0.951 . S
C1664 C1665 1.366 . S
C1664 C1666 1.388 . S
C1665 C1664 1.366 . S
C1665 C1669 1.385 . S
C1666 H1647 0.951 . S
C1666 C1664 1.388 . S
C1666 C1667 1.366 . S
C1667 C1666 1.366 . S
C1667 C1668 1.414 . S
C1667 C1670 1.499 . S
C1668 H1648 0.950 . S
C1668 C1667 1.414 . S
C1668 C1669 1.374 . S
C1669 H1649 0.950 . S
C1669 C1665 1.385 . S
C1669 C1668 1.374 . S
C1670 C1667 1.499 . S
C1670 C1671 1.373 . S
C1670 C1672 1.389 . S
C1671 H1650 0.950 . S
C1671 C1670 1.373 . S
C1671 C1687 1.377 . S
C1672 C1670 1.389 . S
C1672 C1673 1.524 . S
C1672 C1686 1.377 . S
C1673 C1672 1.524 . S
C1673 C1674 1.397 . S
C1673 C1678 1.363 . S
C1674 H1651 0.950 . S
C1674 C1673 1.397 . S
C1674 C1675 1.334 . S
C1675 H1652 0.950 . S
C1675 C1674 1.334 . S
C1675 C1676 1.287 . S
C1676 C1675 1.287 . S
C1676 C1677 1.524 . S
C1676 H1695 0.913 . S
C1677 H1653 0.950 . S
C1677 C1676 1.524 . S
C1677 C1678 1.415 . S
C1678 H1654 0.950 . S
C1678 C1673 1.363 . S
C1678 C1677 1.415 . S
C1679 H1655 0.951 . S
C1679 C1680 1.366 . S
C1679 C1681 1.388 . S
C1680 C1679 1.366 . S
C1680 C1684 1.385 . S
C1681 H1656 0.951 . S
C1681 C1679 1.388 . S
C1681 C1682 1.366 . S
C1682 C1681 1.366 . S
C1682 C1683 1.414 . S
C1682 C1685 1.499 . S
C1683 H1657 0.950 . S
C1683 C1682 1.414 . S
C1683 C1684 1.374 . S
C1684 H1658 0.950 . S
C1684 C1680 1.385 . S
C1684 C1683 1.374 . S
C1685 C1682 1.499 . S
C1685 C1686 1.373 . S
C1685 C1687 1.389 . S
C1686 H1659 0.950 . S
C1686 C1672 1.377 . S
C1686 C1685 1.373 . S
C1687 C1671 1.377 . S
C1687 C1685 1.389 . S
C1687 C1688 1.524 . S
C1688 C1687 1.524 . S
C1688 C1689 1.397 . S
C1688 C1693 1.363 . S
C1689 H1660 0.950 . S
C1689 C1688 1.397 . S
C1689 C1690 1.334 . S
C1690 H1661 0.950 . S
C1690 C1689 1.334 . S
C1690 C1691 1.287 . S
C1691 C1690 1.287 . S
C1691 C1692 1.524 . S
C1691 H1694 0.999 . S
C1692 H1662 0.950 . S
C1692 C1691 1.524 . S
C1692 C1693 1.415 . S
C1693 H1663 0.950 . S
C1693 C1688 1.363 . S
C1693 C1692 1.415 . S
H1694 C1691 0.999 . S
H1695 C1676 0.913 . S
H1696 C1714 0.951 . S
H1697 C1716 0.951 . S
H1698 C1718 0.950 . S
H1699 C1719 0.950 . S
H1700 C1721 0.950 . S
H1701 C1724 0.950 . S
H1702 C1725 0.950 . S
H1703 C1727 0.950 . S
H1704 C1728 0.950 . S
H1705 C1729 0.951 . S
H1706 C1731 0.951 . S
H1707 C1733 0.950 . S
H1708 C1734 0.950 . S
H1709 C1736 0.950 . S
H1710 C1739 0.950 . S
H1711 C1740 0.950 . S
H1712 C1742 0.950 . S
H1713 C1743 0.950 . S
C1714 H1696 0.951 . S
C1714 C1715 1.366 . S
C1714 C1716 1.388 . S
C1715 C1714 1.366 . S
C1715 C1719 1.385 . S
C1716 H1697 0.951 . S
C1716 C1714 1.388 . S
C1716 C1717 1.366 . S
C1717 C1716 1.366 . S
C1717 C1718 1.414 . S
C1717 C1720 1.499 . S
C1718 H1698 0.950 . S
C1718 C1717 1.414 . S
C1718 C1719 1.374 . S
C1719 H1699 0.950 . S
C1719 C1715 1.385 . S
C1719 C1718 1.374 . S
C1720 C1717 1.499 . S
C1720 C1721 1.373 . S
C1720 C1722 1.389 . S
C1721 H1700 0.950 . S
C1721 C1720 1.373 . S
C1721 C1737 1.377 . S
C1722 C1720 1.389 . S
C1722 C1723 1.524 . S
C1722 C1736 1.377 . S
C1723 C1722 1.524 . S
C1723 C1724 1.397 . S
C1723 C1728 1.363 . S
C1724 H1701 0.950 . S
C1724 C1723 1.397 . S
C1724 C1725 1.334 . S
C1725 H1702 0.950 . S
C1725 C1724 1.334 . S
C1725 C1726 1.287 . S
C1726 C1725 1.287 . S
C1726 C1727 1.524 . S
C1726 H1745 0.913 . S
C1727 H1703 0.950 . S
C1727 C1726 1.524 . S
C1727 C1728 1.415 . S
C1728 H1704 0.950 . S
C1728 C1723 1.363 . S
C1728 C1727 1.415 . S
C1729 H1705 0.951 . S
C1729 C1730 1.366 . S
C1729 C1731 1.388 . S
C1730 C1729 1.366 . S
C1730 C1734 1.385 . S
C1731 H1706 0.951 . S
C1731 C1729 1.388 . S
C1731 C1732 1.366 . S
C1732 C1731 1.366 . S
C1732 C1733 1.414 . S
C1732 C1735 1.499 . S
C1733 H1707 0.950 . S
C1733 C1732 1.414 . S
C1733 C1734 1.374 . S
C1734 H1708 0.950 . S
C1734 C1730 1.385 . S
C1734 C1733 1.374 . S
C1735 C1732 1.499 . S
C1735 C1736 1.373 . S
C1735 C1737 1.389 . S
C1736 H1709 0.950 . S
C1736 C1722 1.377 . S
C1736 C1735 1.373 . S
C1737 C1721 1.377 . S
C1737 C1735 1.389 . S
C1737 C1738 1.524 . S
C1738 C1737 1.524 . S
C1738 C1739 1.397 . S
C1738 C1743 1.363 . S
C1739 H1710 0.950 . S
C1739 C1738 1.397 . S
C1739 C1740 1.334 . S
C1740 H1711 0.950 . S
C1740 C1739 1.334 . S
C1740 C1741 1.287 . S
C1741 C1740 1.287 . S
C1741 C1742 1.524 . S
C1741 H1744 0.999 . S
C1742 H1712 0.950 . S
C1742 C1741 1.524 . S
C1742 C1743 1.415 . S
C1743 H1713 0.950 . S
C1743 C1738 1.363 . S
C1743 C1742 1.415 . S
H1744 C1741 0.999 . S
H1745 C1726 0.913 . S
H1746 C1764 0.951 . S
H1747 C1766 0.951 . S
H1748 C1768 0.950 . S
H1749 C1769 0.950 . S
H1750 C1771 0.950 . S
H1751 C1774 0.950 . S
H1752 C1775 0.950 . S
H1753 C1777 0.950 . S
H1754 C1778 0.950 . S
H1755 C1779 0.951 . S
H1756 C1781 0.951 . S
H1757 C1783 0.950 . S
H1758 C1784 0.950 . S
H1759 C1786 0.950 . S
H1760 C1789 0.950 . S
H1761 C1790 0.950 . S
H1762 C1792 0.950 . S
H1763 C1793 0.950 . S
C1764 H1746 0.951 . S
C1764 C1765 1.366 . S
C1764 C1766 1.388 . S
C1765 C1764 1.366 . S
C1765 C1769 1.385 . S
C1766 H1747 0.951 . S
C1766 C1764 1.388 . S
C1766 C1767 1.366 . S
C1767 C1766 1.366 . S
C1767 C1768 1.414 . S
C1767 C1770 1.499 . S
C1768 H1748 0.950 . S
C1768 C1767 1.414 . S
C1768 C1769 1.374 . S
C1769 H1749 0.950 . S
C1769 C1765 1.385 . S
C1769 C1768 1.374 . S
C1770 C1767 1.499 . S
C1770 C1771 1.373 . S
C1770 C1772 1.389 . S
C1771 H1750 0.950 . S
C1771 C1770 1.373 . S
C1771 C1787 1.377 . S
C1772 C1770 1.389 . S
C1772 C1773 1.524 . S
C1772 C1786 1.377 . S
C1773 C1772 1.524 . S
C1773 C1774 1.397 . S
C1773 C1778 1.363 . S
C1774 H1751 0.950 . S
C1774 C1773 1.397 . S
C1774 C1775 1.334 . S
C1775 H1752 0.950 . S
C1775 C1774 1.334 . S
C1775 C1776 1.287 . S
C1776 C1775 1.287 . S
C1776 C1777 1.524 . S
C1776 H1795 0.913 . S
C1777 H1753 0.950 . S
C1777 C1776 1.524 . S
C1777 C1778 1.415 . S
C1778 H1754 0.950 . S
C1778 C1773 1.363 . S
C1778 C1777 1.415 . S
C1779 H1755 0.951 . S
C1779 C1780 1.366 . S
C1779 C1781 1.388 . S
C1780 C1779 1.366 . S
C1780 C1784 1.385 . S
C1781 H1756 0.951 . S
C1781 C1779 1.388 . S
C1781 C1782 1.366 . S
C1782 C1781 1.366 . S
C1782 C1783 1.414 . S
C1782 C1785 1.499 . S
C1783 H1757 0.950 . S
C1783 C1782 1.414 . S
C1783 C1784 1.374 . S
C1784 H1758 0.950 . S
C1784 C1780 1.385 . S
C1784 C1783 1.374 . S
C1785 C1782 1.499 . S
C1785 C1786 1.373 . S
C1785 C1787 1.389 . S
C1786 H1759 0.950 . S
C1786 C1772 1.377 . S
C1786 C1785 1.373 . S
C1787 C1771 1.377 . S
C1787 C1785 1.389 . S
C1787 C1788 1.524 . S
C1788 C1787 1.524 . S
C1788 C1789 1.397 . S
C1788 C1793 1.363 . S
C1789 H1760 0.950 . S
C1789 C1788 1.397 . S
C1789 C1790 1.334 1_556 S
C1790 H1761 0.950 . S
C1790 C1789 1.334 1_554 S
C1790 C1791 1.287 . S
C1791 C1790 1.287 . S
C1791 C1792 1.524 . S
C1791 H1794 0.999 . S
C1792 H1762 0.950 . S
C1792 C1791 1.524 . S
C1792 C1793 1.415 1_554 S
C1793 H1763 0.950 . S
C1793 C1788 1.363 . S
C1793 C1792 1.415 1_556 S
H1794 C1791 0.999 . S
H1795 C1776 0.913 . S
H1796 C1814 0.951 . S
H1797 C1816 0.951 . S
H1798 C1818 0.950 . S
H1799 C1819 0.950 . S
H1800 C1821 0.950 . S
H1801 C1824 0.950 . S
H1802 C1825 0.950 . S
H1803 C1827 0.950 . S
H1804 C1828 0.950 . S
H1805 C1829 0.951 . S
H1806 C1831 0.951 . S
H1807 C1833 0.950 . S
H1808 C1834 0.950 . S
H1809 C1836 0.950 . S
H1810 C1839 0.950 . S
H1811 C1840 0.950 . S
H1812 C1842 0.950 . S
H1813 C1843 0.950 . S
C1814 H1796 0.951 . S
C1814 C1815 1.366 . S
C1814 C1816 1.388 . S
C1815 C1814 1.366 . S
C1815 C1819 1.385 . S
C1816 H1797 0.951 . S
C1816 C1814 1.388 . S
C1816 C1817 1.366 . S
C1817 C1816 1.366 . S
C1817 C1818 1.414 . S
C1817 C1820 1.499 . S
C1818 H1798 0.950 . S
C1818 C1817 1.414 . S
C1818 C1819 1.374 . S
C1819 H1799 0.950 . S
C1819 C1815 1.385 . S
C1819 C1818 1.374 . S
C1820 C1817 1.499 . S
C1820 C1821 1.373 . S
C1820 C1822 1.389 . S
C1821 H1800 0.950 . S
C1821 C1820 1.373 . S
C1821 C1837 1.377 . S
C1822 C1820 1.389 . S
C1822 C1823 1.524 . S
C1822 C1836 1.377 . S
C1823 C1822 1.524 . S
C1823 C1824 1.397 . S
C1823 C1828 1.363 . S
C1824 H1801 0.950 . S
C1824 C1823 1.397 . S
C1824 C1825 1.334 . S
C1825 H1802 0.950 . S
C1825 C1824 1.334 . S
C1825 C1826 1.287 . S
C1826 C1825 1.287 . S
C1826 C1827 1.524 . S
C1826 H1845 0.913 . S
C1827 H1803 0.950 . S
C1827 C1826 1.524 . S
C1827 C1828 1.415 . S
C1828 H1804 0.950 . S
C1828 C1823 1.363 . S
C1828 C1827 1.415 . S
C1829 H1805 0.951 . S
C1829 C1830 1.366 . S
C1829 C1831 1.388 . S
C1830 C1829 1.366 . S
C1830 C1834 1.385 . S
C1831 H1806 0.951 . S
C1831 C1829 1.388 . S
C1831 C1832 1.366 . S
C1832 C1831 1.366 . S
C1832 C1833 1.414 . S
C1832 C1835 1.499 . S
C1833 H1807 0.950 . S
C1833 C1832 1.414 . S
C1833 C1834 1.374 . S
C1834 H1808 0.950 . S
C1834 C1830 1.385 . S
C1834 C1833 1.374 . S
C1835 C1832 1.499 . S
C1835 C1836 1.373 . S
C1835 C1837 1.389 . S
C1836 H1809 0.950 . S
C1836 C1822 1.377 . S
C1836 C1835 1.373 . S
C1837 C1821 1.377 . S
C1837 C1835 1.389 . S
C1837 C1838 1.524 . S
C1838 C1837 1.524 . S
C1838 C1839 1.397 . S
C1838 C1843 1.363 . S
C1839 H1810 0.950 . S
C1839 C1838 1.397 . S
C1839 C1840 1.334 . S
C1840 H1811 0.950 . S
C1840 C1839 1.334 . S
C1840 C1841 1.287 . S
C1841 C1840 1.287 . S
C1841 C1842 1.524 . S
C1841 H1844 0.999 . S
C1842 H1812 0.950 . S
C1842 C1841 1.524 . S
C1842 C1843 1.415 . S
C1843 H1813 0.950 . S
C1843 C1838 1.363 . S
C1843 C1842 1.415 . S
H1844 C1841 0.999 . S
H1845 C1826 0.913 . S
H1846 C1864 0.951 . S
H1847 C1866 0.951 . S
H1848 C1868 0.950 . S
H1849 C1869 0.950 . S
H1850 C1871 0.950 . S
H1851 C1874 0.950 . S
H1852 C1875 0.950 . S
H1853 C1877 0.950 . S
H1854 C1878 0.950 . S
H1855 C1879 0.951 . S
H1856 C1881 0.951 . S
H1857 C1883 0.950 . S
H1858 C1884 0.950 . S
H1859 C1886 0.950 . S
H1860 C1889 0.950 . S
H1861 C1890 0.950 . S
H1862 C1892 0.950 . S
H1863 C1893 0.950 . S
C1864 H1846 0.951 . S
C1864 C1865 1.366 . S
C1864 C1866 1.388 . S
C1865 C1864 1.366 . S
C1865 C1869 1.385 . S
C1866 H1847 0.951 . S
C1866 C1864 1.388 . S
C1866 C1867 1.366 . S
C1867 C1866 1.366 . S
C1867 C1868 1.414 . S
C1867 C1870 1.499 . S
C1868 H1848 0.950 . S
C1868 C1867 1.414 . S
C1868 C1869 1.374 . S
C1869 H1849 0.950 . S
C1869 C1865 1.385 . S
C1869 C1868 1.374 . S
C1870 C1867 1.499 . S
C1870 C1871 1.373 . S
C1870 C1872 1.389 . S
C1871 H1850 0.950 . S
C1871 C1870 1.373 . S
C1871 C1887 1.377 . S
C1872 C1870 1.389 . S
C1872 C1873 1.524 . S
C1872 C1886 1.377 . S
C1873 C1872 1.524 . S
C1873 C1874 1.397 . S
C1873 C1878 1.363 . S
C1874 H1851 0.950 . S
C1874 C1873 1.397 . S
C1874 C1875 1.334 . S
C1875 H1852 0.950 . S
C1875 C1874 1.334 . S
C1875 C1876 1.287 . S
C1876 C1875 1.287 . S
C1876 C1877 1.524 . S
C1876 H1895 0.913 . S
C1877 H1853 0.950 . S
C1877 C1876 1.524 . S
C1877 C1878 1.415 . S
C1878 H1854 0.950 . S
C1878 C1873 1.363 . S
C1878 C1877 1.415 . S
C1879 H1855 0.951 . S
C1879 C1880 1.366 . S
C1879 C1881 1.388 . S
C1880 C1879 1.366 . S
C1880 C1884 1.385 . S
C1881 H1856 0.951 . S
C1881 C1879 1.388 . S
C1881 C1882 1.366 . S
C1882 C1881 1.366 . S
C1882 C1883 1.414 . S
C1882 C1885 1.499 . S
C1883 H1857 0.950 . S
C1883 C1882 1.414 . S
C1883 C1884 1.374 . S
C1884 H1858 0.950 . S
C1884 C1880 1.385 . S
C1884 C1883 1.374 . S
C1885 C1882 1.499 . S
C1885 C1886 1.373 . S
C1885 C1887 1.389 . S
C1886 H1859 0.950 . S
C1886 C1872 1.377 . S
C1886 C1885 1.373 . S
C1887 C1871 1.377 . S
C1887 C1885 1.389 . S
C1887 C1888 1.524 . S
C1888 C1887 1.524 . S
C1888 C1889 1.397 . S
C1888 C1893 1.363 . S
C1889 H1860 0.950 . S
C1889 C1888 1.397 . S
C1889 C1890 1.334 . S
C1890 H1861 0.950 . S
C1890 C1889 1.334 . S
C1890 C1891 1.287 . S
C1891 C1890 1.287 . S
C1891 C1892 1.524 . S
C1891 H1894 0.999 . S
C1892 H1862 0.950 . S
C1892 C1891 1.524 . S
C1892 C1893 1.415 . S
C1893 H1863 0.950 . S
C1893 C1888 1.363 . S
C1893 C1892 1.415 . S
H1894 C1891 0.999 . S
H1895 C1876 0.913 . S
H1896 C1914 0.951 . S
H1897 C1916 0.951 . S
H1898 C1918 0.950 . S
H1899 C1919 0.950 . S
H1900 C1921 0.950 . S
H1901 C1924 0.950 . S
H1902 C1925 0.950 . S
H1903 C1927 0.950 1_554 S
H1904 C1928 0.950 . S
H1905 C1929 0.951 . S
H1906 C1931 0.951 . S
H1907 C1933 0.950 . S
H1908 C1934 0.928 1_554 S
H1909 C1936 0.950 . S
H1910 C1939 0.950 . S
H1911 C1940 0.950 . S
H1912 C1942 0.950 . S
H1913 C1943 0.950 . S
C1914 H1896 0.951 . S
C1914 C1915 1.366 . S
C1914 C1916 1.388 . S
C1915 C1914 1.366 . S
C1915 C1919 1.385 . S
C1916 H1897 0.951 . S
C1916 C1914 1.388 . S
C1916 C1917 1.366 . S
C1917 C1916 1.366 . S
C1917 C1918 1.414 . S
C1917 C1920 1.499 . S
C1918 H1898 0.950 . S
C1918 C1917 1.414 . S
C1918 C1919 1.374 . S
C1919 H1899 0.950 . S
C1919 C1915 1.385 . S
C1919 C1918 1.374 . S
C1920 C1917 1.499 . S
C1920 C1921 1.373 . S
C1920 C1922 1.389 . S
C1921 H1900 0.950 . S
C1921 C1920 1.373 . S
C1921 C1937 1.377 . S
C1922 C1920 1.389 . S
C1922 C1923 1.524 . S
C1922 C1936 1.377 . S
C1923 C1922 1.524 . S
C1923 C1924 1.397 . S
C1923 C1928 1.363 . S
C1924 H1901 0.950 . S
C1924 C1923 1.397 . S
C1924 C1925 1.334 . S
C1925 H1902 0.950 . S
C1925 C1924 1.334 . S
C1925 C1926 1.287 . S
C1926 C1925 1.287 . S
C1926 C1927 1.524 . S
C1926 H1945 0.913 . S
C1927 H1903 0.950 1_556 S
C1927 C1926 1.524 . S
C1927 C1928 1.415 . S
C1928 H1904 0.950 . S
C1928 C1923 1.363 . S
C1928 C1927 1.415 . S
C1929 H1905 0.951 . S
C1929 C1930 1.366 . S
C1929 C1931 1.388 . S
C1930 C1929 1.366 . S
C1930 C1934 1.385 . S
C1931 H1906 0.951 . S
C1931 C1929 1.388 . S
C1931 C1932 1.366 . S
C1932 C1931 1.366 . S
C1932 C1933 1.414 . S
C1932 C1935 1.499 . S
C1933 H1907 0.950 . S
C1933 C1932 1.414 . S
C1933 C1934 1.374 . S
C1934 H1908 0.928 1_556 S
C1934 C1930 1.385 . S
C1934 C1933 1.374 . S
C1935 C1932 1.499 . S
C1935 C1936 1.373 . S
C1935 C1937 1.389 . S
C1936 H1909 0.950 . S
C1936 C1922 1.377 . S
C1936 C1935 1.373 . S
C1937 C1921 1.377 . S
C1937 C1935 1.389 . S
C1937 C1938 1.524 . S
C1938 C1937 1.524 . S
C1938 C1939 1.397 . S
C1938 C1943 1.363 . S
C1939 H1910 0.950 . S
C1939 C1938 1.397 . S
C1939 C1940 1.334 . S
C1940 H1911 0.950 . S
C1940 C1939 1.334 . S
C1940 C1941 1.287 . S
C1941 C1940 1.287 . S
C1941 C1942 1.524 . S
C1941 H1944 0.999 . S
C1942 H1912 0.950 . S
C1942 C1941 1.524 . S
C1942 C1943 1.415 . S
C1943 H1913 0.950 . S
C1943 C1938 1.363 . S
C1943 C1942 1.415 . S
H1944 C1941 0.999 . S
H1945 C1926 0.913 . S
H1946 C1964 0.951 . S
H1947 C1966 0.951 . S
H1948 C1968 0.950 . S
H1949 C1969 0.950 . S
H1950 C1971 0.950 . S
H1951 C1974 0.950 . S
H1952 C1975 0.950 . S
H1953 C1977 0.950 . S
H1954 C1978 0.950 . S
H1955 C1979 0.951 . S
H1956 C1981 0.951 . S
H1957 C1983 0.950 . S
H1958 C1984 0.950 . S
H1959 C1986 0.950 . S
H1960 C1989 0.950 . S
H1961 C1990 0.950 . S
H1962 C1992 0.950 . S
H1963 C1993 0.950 . S
C1964 H1946 0.951 . S
C1964 C1965 1.366 . S
C1964 C1966 1.388 . S
C1965 C1964 1.366 . S
C1965 C1969 1.385 . S
C1966 H1947 0.951 . S
C1966 C1964 1.388 . S
C1966 C1967 1.366 . S
C1967 C1966 1.366 . S
C1967 C1968 1.414 . S
C1967 C1970 1.499 . S
C1968 H1948 0.950 . S
C1968 C1967 1.414 . S
C1968 C1969 1.374 . S
C1969 H1949 0.950 . S
C1969 C1965 1.385 . S
C1969 C1968 1.374 . S
C1970 C1967 1.499 . S
C1970 C1971 1.373 . S
C1970 C1972 1.389 . S
C1971 H1950 0.950 . S
C1971 C1970 1.373 . S
C1971 C1987 1.377 . S
C1972 C1970 1.389 . S
C1972 C1973 1.524 . S
C1972 C1986 1.377 . S
C1973 C1972 1.524 . S
C1973 C1974 1.397 . S
C1973 C1978 1.363 . S
C1974 H1951 0.950 . S
C1974 C1973 1.397 . S
C1974 C1975 1.334 . S
C1975 H1952 0.950 . S
C1975 C1974 1.334 . S
C1975 C1976 1.287 . S
C1976 C1975 1.287 . S
C1976 C1977 1.524 . S
C1976 H1995 0.913 . S
C1977 H1953 0.950 . S
C1977 C1976 1.524 . S
C1977 C1978 1.415 . S
C1978 H1954 0.950 . S
C1978 C1973 1.363 . S
C1978 C1977 1.415 . S
C1979 H1955 0.951 . S
C1979 C1980 1.366 . S
C1979 C1981 1.388 . S
C1980 C1979 1.366 . S
C1980 C1984 1.385 . S
C1981 H1956 0.951 . S
C1981 C1979 1.388 . S
C1981 C1982 1.366 . S
C1982 C1981 1.366 . S
C1982 C1983 1.414 . S
C1982 C1985 1.499 . S
C1983 H1957 0.950 . S
C1983 C1982 1.414 . S
C1983 C1984 1.374 . S
C1984 H1958 0.950 . S
C1984 C1980 1.385 . S
C1984 C1983 1.374 . S
C1985 C1982 1.499 . S
C1985 C1986 1.373 . S
C1985 C1987 1.389 . S
C1986 H1959 0.950 . S
C1986 C1972 1.377 . S
C1986 C1985 1.373 . S
C1987 C1971 1.377 . S
C1987 C1985 1.389 . S
C1987 C1988 1.524 . S
C1988 C1987 1.524 . S
C1988 C1989 1.397 . S
C1988 C1993 1.363 . S
C1989 H1960 0.950 . S
C1989 C1988 1.397 . S
C1989 C1990 1.334 . S
C1990 H1961 0.950 . S
C1990 C1989 1.334 . S
C1990 C1991 1.287 . S
C1991 C1990 1.287 . S
C1991 C1992 1.524 . S
C1991 H1994 0.999 . S
C1992 H1962 0.950 . S
C1992 C1991 1.524 . S
C1992 C1993 1.415 . S
C1993 H1963 0.950 . S
C1993 C1988 1.363 . S
C1993 C1992 1.415 . S
H1994 C1991 0.999 . S
H1995 C1976 0.913 . S
H1996 C2014 0.951 . S
H1997 C2016 0.951 . S
H1998 C2018 0.950 . S
H1999 C2019 0.950 . S
H2000 C2021 0.950 . S
H2001 C2024 0.950 . S
H2002 C2025 0.950 . S
H2003 C2027 0.950 . S
H2004 C2028 0.950 . S
H2005 C2029 0.951 . S
H2006 C2031 0.951 . S
H2007 C2033 0.950 . S
H2008 C2034 0.950 . S
H2009 C2036 0.950 . S
H2010 C2039 0.950 . S
H2011 C2040 0.950 . S
H2012 C2042 0.950 . S
H2013 C2043 0.950 . S
C2014 H1996 0.951 . S
C2014 C2015 1.366 . S
C2014 C2016 1.388 . S
C2015 C2014 1.366 . S
C2015 C2019 1.385 . S
C2016 H1997 0.951 . S
C2016 C2014 1.388 . S
C2016 C2017 1.366 . S
C2017 C2016 1.366 . S
C2017 C2018 1.414 . S
C2017 C2020 1.499 . S
C2018 H1998 0.950 . S
C2018 C2017 1.414 . S
C2018 C2019 1.374 . S
C2019 H1999 0.950 . S
C2019 C2015 1.385 . S
C2019 C2018 1.374 . S
C2020 C2017 1.499 . S
C2020 C2021 1.373 . S
C2020 C2022 1.389 . S
C2021 H2000 0.950 . S
C2021 C2020 1.373 . S
C2021 C2037 1.377 . S
C2022 C2020 1.389 . S
C2022 C2023 1.524 . S
C2022 C2036 1.377 . S
C2023 C2022 1.524 . S
C2023 C2024 1.397 . S
C2023 C2028 1.363 . S
C2024 H2001 0.950 . S
C2024 C2023 1.397 . S
C2024 C2025 1.334 . S
C2025 H2002 0.950 . S
C2025 C2024 1.334 . S
C2025 C2026 1.287 . S
C2026 C2025 1.287 . S
C2026 C2027 1.524 . S
C2026 H2045 0.913 . S
C2027 H2003 0.950 . S
C2027 C2026 1.524 . S
C2027 C2028 1.415 . S
C2028 H2004 0.950 . S
C2028 C2023 1.363 . S
C2028 C2027 1.415 . S
C2029 H2005 0.951 . S
C2029 C2030 1.366 . S
C2029 C2031 1.388 . S
C2030 C2029 1.366 . S
C2030 C2034 1.385 . S
C2031 H2006 0.951 . S
C2031 C2029 1.388 . S
C2031 C2032 1.366 . S
C2032 C2031 1.366 . S
C2032 C2033 1.414 . S
C2032 C2035 1.499 . S
C2033 H2007 0.950 . S
C2033 C2032 1.414 . S
C2033 C2034 1.374 . S
C2034 H2008 0.950 . S
C2034 C2030 1.385 . S
C2034 C2033 1.374 . S
C2035 C2032 1.499 . S
C2035 C2036 1.373 . S
C2035 C2037 1.389 . S
C2036 H2009 0.950 . S
C2036 C2022 1.377 . S
C2036 C2035 1.373 . S
C2037 C2021 1.377 . S
C2037 C2035 1.389 . S
C2037 C2038 1.524 . S
C2038 C2037 1.524 . S
C2038 C2039 1.397 . S
C2038 C2043 1.363 . S
C2039 H2010 0.950 . S
C2039 C2038 1.397 . S
C2039 C2040 1.334 . S
C2040 H2011 0.950 . S
C2040 C2039 1.334 . S
C2040 C2041 1.287 . S
C2041 C2040 1.287 . S
C2041 C2042 1.524 . S
C2041 H2044 0.999 1_556 S
C2042 H2012 0.950 . S
C2042 C2041 1.524 . S
C2042 C2043 1.415 . S
C2043 H2013 0.950 . S
C2043 C2038 1.363 . S
C2043 C2042 1.415 . S
H2044 C2041 0.999 1_554 S
H2045 C2026 0.913 . S
H2046 C2064 0.951 . S
H2047 C2066 0.951 . S
H2048 C2068 0.950 . S
H2049 C2069 0.950 . S
H2050 C2071 0.950 . S
H2051 C2074 0.950 . S
H2052 C2075 0.950 . S
H2053 C2077 0.950 . S
H2054 C2078 0.950 . S
H2055 C2079 0.951 . S
H2056 C2081 0.951 . S
H2057 C2083 0.950 . S
H2058 C2084 0.950 . S
H2059 C2086 0.950 . S
H2060 C2089 0.950 . S
H2061 C2090 0.950 . S
H2062 C2092 0.950 . S
H2063 C2093 0.950 . S
C2064 H2046 0.951 . S
C2064 C2065 1.366 . S
C2064 C2066 1.388 . S
C2065 C2064 1.366 . S
C2065 C2069 1.385 . S
C2066 H2047 0.951 . S
C2066 C2064 1.388 . S
C2066 C2067 1.366 . S
C2067 C2066 1.366 . S
C2067 C2068 1.414 . S
C2067 C2070 1.499 . S
C2068 H2048 0.950 . S
C2068 C2067 1.414 . S
C2068 C2069 1.374 . S
C2069 H2049 0.950 . S
C2069 C2065 1.385 . S
C2069 C2068 1.374 . S
C2070 C2067 1.499 . S
C2070 C2071 1.373 . S
C2070 C2072 1.389 . S
C2071 H2050 0.950 . S
C2071 C2070 1.373 . S
C2071 C2087 1.377 . S
C2072 C2070 1.389 . S
C2072 C2073 1.524 . S
C2072 C2086 1.377 . S
C2073 C2072 1.524 . S
C2073 C2074 1.397 . S
C2073 C2078 1.363 . S
C2074 H2051 0.950 . S
C2074 C2073 1.397 . S
C2074 C2075 1.334 . S
C2075 H2052 0.950 . S
C2075 C2074 1.334 . S
C2075 C2076 1.287 . S
C2076 C2075 1.287 . S
C2076 C2077 1.524 . S
C2076 H2095 0.913 . S
C2077 H2053 0.950 . S
C2077 C2076 1.524 . S
C2077 C2078 1.415 . S
C2078 H2054 0.950 . S
C2078 C2073 1.363 . S
C2078 C2077 1.415 . S
C2079 H2055 0.951 . S
C2079 C2080 1.366 . S
C2079 C2081 1.388 . S
C2080 C2079 1.366 . S
C2080 C2084 1.385 . S
C2081 H2056 0.951 . S
C2081 C2079 1.388 . S
C2081 C2082 1.366 . S
C2082 C2081 1.366 . S
C2082 C2083 1.414 . S
C2082 C2085 1.499 . S
C2083 H2057 0.950 . S
C2083 C2082 1.414 . S
C2083 C2084 1.374 . S
C2084 H2058 0.950 . S
C2084 C2080 1.385 . S
C2084 C2083 1.374 . S
C2085 C2082 1.499 . S
C2085 C2086 1.373 . S
C2085 C2087 1.389 . S
C2086 H2059 0.950 . S
C2086 C2072 1.377 . S
C2086 C2085 1.373 . S
C2087 C2071 1.377 . S
C2087 C2085 1.389 . S
C2087 C2088 1.524 . S
C2088 C2087 1.524 . S
C2088 C2089 1.397 . S
C2088 C2093 1.363 . S
C2089 H2060 0.950 . S
C2089 C2088 1.397 . S
C2089 C2090 1.334 . S
C2090 H2061 0.950 . S
C2090 C2089 1.334 . S
C2090 C2091 1.287 . S
C2091 C2090 1.287 . S
C2091 C2092 1.524 . S
C2091 H2094 0.999 1_554 S
C2092 H2062 0.950 . S
C2092 C2091 1.524 . S
C2092 C2093 1.415 . S
C2093 H2063 0.950 . S
C2093 C2088 1.363 . S
C2093 C2092 1.415 . S
H2094 C2091 0.999 1_556 S
H2095 C2076 0.913 . S
H2096 C2114 0.951 . S
H2097 C2116 0.951 . S
H2098 C2118 0.950 . S
H2099 C2119 0.950 . S
H2100 C2121 0.950 . S
H2101 C2124 0.950 . S
H2102 C2125 0.950 . S
H2103 C2127 0.950 . S
H2104 C2128 0.950 . S
H2105 C2129 0.951 . S
H2106 C2131 0.951 . S
H2107 C2133 0.950 . S
H2108 C2134 0.950 . S
H2109 C2136 0.950 . S
H2110 C2139 0.950 . S
H2111 C2140 0.950 . S
H2112 C2142 0.950 . S
H2113 C2143 0.950 . S
C2114 H2096 0.951 . S
C2114 C2115 1.366 . S
C2114 C2116 1.388 . S
C2115 C2114 1.366 . S
C2115 C2119 1.385 . S
C2116 H2097 0.951 . S
C2116 C2114 1.388 . S
C2116 C2117 1.366 . S
C2117 C2116 1.366 . S
C2117 C2118 1.414 . S
C2117 C2120 1.499 . S
C2118 H2098 0.950 . S
C2118 C2117 1.414 . S
C2118 C2119 1.374 . S
C2119 H2099 0.950 . S
C2119 C2115 1.385 . S
C2119 C2118 1.374 . S
C2120 C2117 1.499 . S
C2120 C2121 1.373 . S
C2120 C2122 1.389 . S
C2121 H2100 0.950 . S
C2121 C2120 1.373 . S
C2121 C2137 1.377 . S
C2122 C2120 1.389 . S
C2122 C2123 1.524 . S
C2122 C2136 1.377 . S
C2123 C2122 1.524 . S
C2123 C2124 1.397 . S
C2123 C2128 1.363 . S
C2124 H2101 0.950 . S
C2124 C2123 1.397 . S
C2124 C2125 1.334 . S
C2125 H2102 0.950 . S
C2125 C2124 1.334 . S
C2125 C2126 1.287 . S
C2126 C2125 1.287 . S
C2126 C2127 1.524 . S
C2126 H2145 0.913 . S
C2127 H2103 0.950 . S
C2127 C2126 1.524 . S
C2127 C2128 1.415 . S
C2128 H2104 0.950 . S
C2128 C2123 1.363 . S
C2128 C2127 1.415 . S
C2129 H2105 0.951 . S
C2129 C2130 1.366 . S
C2129 C2131 1.388 . S
C2130 C2129 1.366 . S
C2130 C2134 1.385 . S
C2131 H2106 0.951 . S
C2131 C2129 1.388 . S
C2131 C2132 1.366 . S
C2132 C2131 1.366 . S
C2132 C2133 1.414 . S
C2132 C2135 1.499 . S
C2133 H2107 0.950 . S
C2133 C2132 1.414 . S
C2133 C2134 1.374 . S
C2134 H2108 0.950 . S
C2134 C2130 1.385 . S
C2134 C2133 1.374 . S
C2135 C2132 1.499 . S
C2135 C2136 1.373 . S
C2135 C2137 1.389 . S
C2136 H2109 0.950 . S
C2136 C2122 1.377 . S
C2136 C2135 1.373 . S
C2137 C2121 1.377 . S
C2137 C2135 1.389 . S
C2137 C2138 1.524 . S
C2138 C2137 1.524 . S
C2138 C2139 1.397 . S
C2138 C2143 1.363 . S
C2139 H2110 0.950 . S
C2139 C2138 1.397 . S
C2139 C2140 1.334 . S
C2140 H2111 0.950 . S
C2140 C2139 1.334 . S
C2140 C2141 1.287 . S
C2141 C2140 1.287 . S
C2141 C2142 1.524 . S
C2141 H2144 0.999 . S
C2142 H2112 0.950 . S
C2142 C2141 1.524 . S
C2142 C2143 1.415 . S
C2143 H2113 0.950 . S
C2143 C2138 1.363 . S
C2143 C2142 1.415 . S
H2144 C2141 0.999 . S
H2145 C2126 0.913 . S
H2146 C2164 0.951 . S
H2147 C2166 0.951 . S
H2148 C2168 0.950 . S
H2149 C2169 0.950 . S
H2150 C2171 0.950 . S
H2151 C2174 0.950 . S
H2152 C2175 0.950 . S
H2153 C2177 0.950 . S
H2154 C2178 0.950 . S
H2155 C2179 0.951 . S
H2156 C2181 0.951 . S
H2157 C2183 0.950 . S
H2158 C2184 0.950 . S
H2159 C2186 0.950 . S
H2160 C2189 0.950 . S
H2161 C2190 0.950 . S
H2162 C2192 0.950 . S
H2163 C2193 0.950 . S
C2164 H2146 0.951 . S
C2164 C2165 1.366 . S
C2164 C2166 1.388 . S
C2165 C2164 1.366 . S
C2165 C2169 1.385 . S
C2166 H2147 0.951 . S
C2166 C2164 1.388 . S
C2166 C2167 1.366 . S
C2167 C2166 1.366 . S
C2167 C2168 1.414 . S
C2167 C2170 1.499 . S
C2168 H2148 0.950 . S
C2168 C2167 1.414 . S
C2168 C2169 1.374 . S
C2169 H2149 0.950 . S
C2169 C2165 1.385 . S
C2169 C2168 1.374 . S
C2170 C2167 1.499 . S
C2170 C2171 1.373 . S
C2170 C2172 1.389 . S
C2171 H2150 0.950 . S
C2171 C2170 1.373 . S
C2171 C2187 1.377 . S
C2172 C2170 1.389 . S
C2172 C2173 1.524 . S
C2172 C2186 1.377 . S
C2173 C2172 1.524 . S
C2173 C2174 1.397 . S
C2173 C2178 1.363 . S
C2174 H2151 0.950 . S
C2174 C2173 1.397 . S
C2174 C2175 1.334 . S
C2175 H2152 0.950 . S
C2175 C2174 1.334 . S
C2175 C2176 1.287 . S
C2176 C2175 1.287 . S
C2176 C2177 1.524 . S
C2176 H2195 0.913 . S
C2177 H2153 0.950 . S
C2177 C2176 1.524 . S
C2177 C2178 1.415 . S
C2178 H2154 0.950 . S
C2178 C2173 1.363 . S
C2178 C2177 1.415 . S
C2179 H2155 0.951 . S
C2179 C2180 1.366 . S
C2179 C2181 1.388 . S
C2180 C2179 1.366 . S
C2180 C2184 1.385 . S
C2181 H2156 0.951 . S
C2181 C2179 1.388 . S
C2181 C2182 1.366 . S
C2182 C2181 1.366 . S
C2182 C2183 1.414 . S
C2182 C2185 1.499 . S
C2183 H2157 0.950 . S
C2183 C2182 1.414 . S
C2183 C2184 1.374 . S
C2184 H2158 0.950 . S
C2184 C2180 1.385 . S
C2184 C2183 1.374 . S
C2185 C2182 1.499 . S
C2185 C2186 1.373 . S
C2185 C2187 1.389 . S
C2186 H2159 0.950 . S
C2186 C2172 1.377 . S
C2186 C2185 1.373 . S
C2187 C2171 1.377 . S
C2187 C2185 1.389 . S
C2187 C2188 1.524 . S
C2188 C2187 1.524 . S
C2188 C2189 1.397 . S
C2188 C2193 1.363 . S
C2189 H2160 0.950 . S
C2189 C2188 1.397 . S
C2189 C2190 1.334 . S
C2190 H2161 0.950 . S
C2190 C2189 1.334 . S
C2190 C2191 1.287 . S
C2191 C2190 1.287 . S
C2191 C2192 1.524 . S
C2191 H2194 0.999 1_554 S
C2192 H2162 0.950 . S
C2192 C2191 1.524 . S
C2192 C2193 1.415 . S
C2193 H2163 0.950 . S
C2193 C2188 1.363 . S
C2193 C2192 1.415 . S
H2194 C2191 0.999 1_556 S
H2195 C2176 0.913 . S
H2196 C2214 0.951 . S
H2197 C2216 0.951 . S
H2198 C2218 0.950 . S
H2199 C2219 0.950 . S
H2200 C2221 0.950 . S
H2201 C2224 0.950 . S
H2202 C2225 0.950 . S
H2203 C2227 0.950 . S
H2204 C2228 0.950 . S
H2205 C2229 0.951 . S
H2206 C2231 0.951 . S
H2207 C2233 0.950 . S
H2208 C2234 0.950 . S
H2209 C2236 0.950 . S
H2210 C2239 0.950 . S
H2211 C2240 0.950 . S
H2212 C2242 0.950 . S
H2213 C2243 0.950 . S
C2214 H2196 0.951 . S
C2214 C2215 1.366 . S
C2214 C2216 1.388 . S
C2215 C2214 1.366 . S
C2215 C2219 1.385 . S
C2216 H2197 0.951 . S
C2216 C2214 1.388 . S
C2216 C2217 1.366 . S
C2217 C2216 1.366 . S
C2217 C2218 1.414 . S
C2217 C2220 1.499 . S
C2218 H2198 0.950 . S
C2218 C2217 1.414 . S
C2218 C2219 1.374 . S
C2219 H2199 0.950 . S
C2219 C2215 1.385 . S
C2219 C2218 1.374 . S
C2220 C2217 1.499 . S
C2220 C2221 1.373 . S
C2220 C2222 1.389 . S
C2221 H2200 0.950 . S
C2221 C2220 1.373 . S
C2221 C2237 1.377 . S
C2222 C2220 1.389 . S
C2222 C2223 1.524 . S
C2222 C2236 1.377 . S
C2223 C2222 1.524 . S
C2223 C2224 1.397 . S
C2223 C2228 1.363 . S
C2224 H2201 0.950 . S
C2224 C2223 1.397 . S
C2224 C2225 1.334 . S
C2225 H2202 0.950 . S
C2225 C2224 1.334 . S
C2225 C2226 1.287 . S
C2226 C2225 1.287 . S
C2226 C2227 1.524 . S
C2226 H2245 0.913 . S
C2227 H2203 0.950 . S
C2227 C2226 1.524 . S
C2227 C2228 1.415 . S
C2228 H2204 0.950 . S
C2228 C2223 1.363 . S
C2228 C2227 1.415 . S
C2229 H2205 0.951 . S
C2229 C2230 1.366 . S
C2229 C2231 1.388 . S
C2230 C2229 1.366 . S
C2230 C2234 1.385 . S
C2231 H2206 0.951 . S
C2231 C2229 1.388 . S
C2231 C2232 1.366 . S
C2232 C2231 1.366 . S
C2232 C2233 1.414 . S
C2232 C2235 1.499 . S
C2233 H2207 0.950 . S
C2233 C2232 1.414 . S
C2233 C2234 1.374 . S
C2234 H2208 0.950 . S
C2234 C2230 1.385 . S
C2234 C2233 1.374 . S
C2235 C2232 1.499 . S
C2235 C2236 1.373 . S
C2235 C2237 1.389 . S
C2236 H2209 0.950 . S
C2236 C2222 1.377 . S
C2236 C2235 1.373 . S
C2237 C2221 1.377 . S
C2237 C2235 1.389 . S
C2237 C2238 1.524 . S
C2238 C2237 1.524 . S
C2238 C2239 1.397 . S
C2238 C2243 1.363 . S
C2239 H2210 0.950 . S
C2239 C2238 1.397 . S
C2239 C2240 1.334 . S
C2240 H2211 0.950 . S
C2240 C2239 1.334 . S
C2240 C2241 1.287 . S
C2241 C2240 1.287 . S
C2241 C2242 1.524 . S
C2241 H2244 0.999 . S
C2242 H2212 0.950 . S
C2242 C2241 1.524 . S
C2242 C2243 1.415 . S
C2243 H2213 0.950 . S
C2243 C2238 1.363 . S
C2243 C2242 1.415 . S
H2244 C2241 0.999 . S
H2245 C2226 0.913 . S
H2246 C2264 0.951 . S
H2247 C2266 0.951 . S
H2248 C2268 0.950 . S
H2249 C2269 0.950 . S
H2250 C2271 0.950 . S
H2251 C2274 0.950 . S
H2252 C2275 0.950 . S
H2253 C2277 0.950 . S
H2254 C2278 0.950 . S
H2255 C2279 0.951 . S
H2256 C2281 0.951 . S
H2257 C2283 0.950 . S
H2258 C2284 0.950 . S
H2259 C2286 0.950 . S
H2260 C2289 0.950 . S
H2261 C2290 0.950 . S
H2262 C2292 0.950 . S
H2263 C2293 0.950 . S
C2264 H2246 0.951 . S
C2264 C2265 1.366 . S
C2264 C2266 1.388 . S
C2265 C2264 1.366 . S
C2265 C2269 1.385 . S
C2266 H2247 0.951 . S
C2266 C2264 1.388 . S
C2266 C2267 1.366 . S
C2267 C2266 1.366 . S
C2267 C2268 1.414 . S
C2267 C2270 1.499 . S
C2268 H2248 0.950 . S
C2268 C2267 1.414 . S
C2268 C2269 1.374 . S
C2269 H2249 0.950 . S
C2269 C2265 1.385 . S
C2269 C2268 1.374 . S
C2270 C2267 1.499 . S
C2270 C2271 1.373 . S
C2270 C2272 1.389 . S
C2271 H2250 0.950 . S
C2271 C2270 1.373 . S
C2271 C2287 1.377 . S
C2272 C2270 1.389 . S
C2272 C2273 1.524 . S
C2272 C2286 1.377 . S
C2273 C2272 1.524 . S
C2273 C2274 1.397 . S
C2273 C2278 1.363 . S
C2274 H2251 0.950 . S
C2274 C2273 1.397 . S
C2274 C2275 1.334 . S
C2275 H2252 0.950 . S
C2275 C2274 1.334 . S
C2275 C2276 1.287 . S
C2276 C2275 1.287 . S
C2276 C2277 1.524 . S
C2276 H2295 0.913 . S
C2277 H2253 0.950 . S
C2277 C2276 1.524 . S
C2277 C2278 1.415 . S
C2278 H2254 0.950 . S
C2278 C2273 1.363 . S
C2278 C2277 1.415 . S
C2279 H2255 0.951 . S
C2279 C2280 1.366 . S
C2279 C2281 1.388 . S
C2280 C2279 1.366 . S
C2280 C2284 1.385 . S
C2281 H2256 0.951 . S
C2281 C2279 1.388 . S
C2281 C2282 1.366 . S
C2282 C2281 1.366 . S
C2282 C2283 1.414 . S
C2282 C2285 1.499 . S
C2283 H2257 0.950 . S
C2283 C2282 1.414 . S
C2283 C2284 1.374 . S
C2284 H2258 0.950 . S
C2284 C2280 1.385 . S
C2284 C2283 1.374 . S
C2285 C2282 1.499 . S
C2285 C2286 1.373 . S
C2285 C2287 1.389 . S
C2286 H2259 0.950 . S
C2286 C2272 1.377 . S
C2286 C2285 1.373 . S
C2287 C2271 1.377 . S
C2287 C2285 1.389 . S
C2287 C2288 1.524 . S
C2288 C2287 1.524 . S
C2288 C2289 1.397 . S
C2288 C2293 1.363 . S
C2289 H2260 0.950 . S
C2289 C2288 1.397 . S
C2289 C2290 1.334 1_556 S
C2290 H2261 0.950 . S
C2290 C2289 1.334 1_554 S
C2290 C2291 1.287 . S
C2291 C2290 1.287 . S
C2291 C2292 1.524 . S
C2291 H2294 0.999 . S
C2292 H2262 0.950 . S
C2292 C2291 1.524 . S
C2292 C2293 1.415 1_554 S
C2293 H2263 0.950 . S
C2293 C2288 1.363 . S
C2293 C2292 1.415 1_556 S
H2294 C2291 0.999 . S
H2295 C2276 0.913 . S
H2296 C2314 0.951 . S
H2297 C2316 0.951 . S
H2298 C2318 0.950 . S
H2299 C2319 0.950 . S
H2300 C2321 0.950 . S
H2301 C2324 0.950 . S
H2302 C2325 0.950 . S
H2303 C2327 0.950 . S
H2304 C2328 0.950 . S
H2305 C2329 0.951 . S
H2306 C2331 0.951 . S
H2307 C2333 0.950 . S
H2308 C2334 0.950 . S
H2309 C2336 0.950 . S
H2310 C2339 0.950 . S
H2311 C2340 0.950 . S
H2312 C2342 0.950 . S
H2313 C2343 0.950 . S
C2314 H2296 0.951 . S
C2314 C2315 1.366 . S
C2314 C2316 1.388 . S
C2315 C2314 1.366 . S
C2315 C2319 1.385 . S
C2316 H2297 0.951 . S
C2316 C2314 1.388 . S
C2316 C2317 1.366 . S
C2317 C2316 1.366 . S
C2317 C2318 1.414 . S
C2317 C2320 1.499 . S
C2318 H2298 0.950 . S
C2318 C2317 1.414 . S
C2318 C2319 1.374 . S
C2319 H2299 0.950 . S
C2319 C2315 1.385 . S
C2319 C2318 1.374 . S
C2320 C2317 1.499 . S
C2320 C2321 1.373 . S
C2320 C2322 1.389 . S
C2321 H2300 0.950 . S
C2321 C2320 1.373 . S
C2321 C2337 1.377 . S
C2322 C2320 1.389 . S
C2322 C2323 1.524 . S
C2322 C2336 1.377 . S
C2323 C2322 1.524 . S
C2323 C2324 1.397 . S
C2323 C2328 1.363 . S
C2324 H2301 0.950 . S
C2324 C2323 1.397 . S
C2324 C2325 1.334 . S
C2325 H2302 0.950 . S
C2325 C2324 1.334 . S
C2325 C2326 1.287 . S
C2326 C2325 1.287 . S
C2326 C2327 1.524 . S
C2326 H2345 0.913 . S
C2327 H2303 0.950 . S
C2327 C2326 1.524 . S
C2327 C2328 1.415 . S
C2328 H2304 0.950 . S
C2328 C2323 1.363 . S
C2328 C2327 1.415 . S
C2329 H2305 0.951 . S
C2329 C2330 1.366 . S
C2329 C2331 1.388 . S
C2330 C2329 1.366 . S
C2330 C2334 1.385 . S
C2331 H2306 0.951 . S
C2331 C2329 1.388 . S
C2331 C2332 1.366 . S
C2332 C2331 1.366 . S
C2332 C2333 1.414 . S
C2332 C2335 1.499 . S
C2333 H2307 0.950 . S
C2333 C2332 1.414 . S
C2333 C2334 1.374 . S
C2334 H2308 0.950 . S
C2334 C2330 1.385 . S
C2334 C2333 1.374 . S
C2335 C2332 1.499 . S
C2335 C2336 1.373 . S
C2335 C2337 1.389 . S
C2336 H2309 0.950 . S
C2336 C2322 1.377 . S
C2336 C2335 1.373 . S
C2337 C2321 1.377 . S
C2337 C2335 1.389 . S
C2337 C2338 1.524 . S
C2338 C2337 1.524 . S
C2338 C2339 1.397 . S
C2338 C2343 1.363 . S
C2339 H2310 0.950 . S
C2339 C2338 1.397 . S
C2339 C2340 1.334 . S
C2340 H2311 0.950 . S
C2340 C2339 1.334 . S
C2340 C2341 1.287 . S
C2341 C2340 1.287 . S
C2341 C2342 1.524 . S
C2341 H2344 0.999 . S
C2342 H2312 0.950 . S
C2342 C2341 1.524 . S
C2342 C2343 1.415 . S
C2343 H2313 0.950 . S
C2343 C2338 1.363 . S
C2343 C2342 1.415 . S
H2344 C2341 0.999 . S
H2345 C2326 0.913 . S
H2346 C2364 0.951 . S
H2347 C2366 0.951 . S
H2348 C2368 0.950 . S
H2349 C2369 0.950 . S
H2350 C2371 0.950 . S
H2351 C2374 0.950 . S
H2352 C2375 0.950 . S
H2353 C2377 0.950 . S
H2354 C2378 0.950 . S
H2355 C2379 0.951 . S
H2356 C2381 0.951 . S
H2357 C2383 0.950 . S
H2358 C2384 0.950 . S
H2359 C2386 0.950 . S
H2360 C2389 0.950 . S
H2361 C2390 0.950 . S
H2362 C2392 0.950 . S
H2363 C2393 0.950 . S
C2364 H2346 0.951 . S
C2364 C2365 1.366 . S
C2364 C2366 1.388 . S
C2365 C2364 1.366 . S
C2365 C2369 1.385 . S
C2366 H2347 0.951 . S
C2366 C2364 1.388 . S
C2366 C2367 1.366 . S
C2367 C2366 1.366 . S
C2367 C2368 1.414 . S
C2367 C2370 1.499 . S
C2368 H2348 0.950 . S
C2368 C2367 1.414 . S
C2368 C2369 1.374 . S
C2369 H2349 0.950 . S
C2369 C2365 1.385 . S
C2369 C2368 1.374 . S
C2370 C2367 1.499 . S
C2370 C2371 1.373 . S
C2370 C2372 1.389 . S
C2371 H2350 0.950 . S
C2371 C2370 1.373 . S
C2371 C2387 1.377 . S
C2372 C2370 1.389 . S
C2372 C2373 1.524 . S
C2372 C2386 1.377 . S
C2373 C2372 1.524 . S
C2373 C2374 1.397 . S
C2373 C2378 1.363 . S
C2374 H2351 0.950 . S
C2374 C2373 1.397 . S
C2374 C2375 1.334 . S
C2375 H2352 0.950 . S
C2375 C2374 1.334 . S
C2375 C2376 1.287 . S
C2376 C2375 1.287 . S
C2376 C2377 1.524 . S
C2376 H2395 0.913 . S
C2377 H2353 0.950 . S
C2377 C2376 1.524 . S
C2377 C2378 1.415 . S
C2378 H2354 0.950 . S
C2378 C2373 1.363 . S
C2378 C2377 1.415 . S
C2379 H2355 0.951 . S
C2379 C2380 1.366 . S
C2379 C2381 1.388 . S
C2380 C2379 1.366 . S
C2380 C2384 1.385 . S
C2381 H2356 0.951 . S
C2381 C2379 1.388 . S
C2381 C2382 1.366 . S
C2382 C2381 1.366 . S
C2382 C2383 1.414 . S
C2382 C2385 1.499 . S
C2383 H2357 0.950 . S
C2383 C2382 1.414 . S
C2383 C2384 1.374 . S
C2384 H2358 0.950 . S
C2384 C2380 1.385 . S
C2384 C2383 1.374 . S
C2385 C2382 1.499 . S
C2385 C2386 1.373 . S
C2385 C2387 1.389 . S
C2386 H2359 0.950 . S
C2386 C2372 1.377 . S
C2386 C2385 1.373 . S
C2387 C2371 1.377 . S
C2387 C2385 1.389 . S
C2387 C2388 1.524 . S
C2388 C2387 1.524 . S
C2388 C2389 1.397 . S
C2388 C2393 1.363 . S
C2389 H2360 0.950 . S
C2389 C2388 1.397 . S
C2389 C2390 1.334 1_556 S
C2390 H2361 0.950 . S
C2390 C2389 1.334 1_554 S
C2390 C2391 1.287 . S
C2391 C2390 1.287 . S
C2391 C2392 1.524 . S
C2391 H2394 0.999 . S
C2392 H2362 0.950 . S
C2392 C2391 1.524 . S
C2392 C2393 1.415 1_554 S
C2393 H2363 0.950 . S
C2393 C2388 1.363 . S
C2393 C2392 1.415 1_556 S
H2394 C2391 0.999 . S
H2395 C2376 0.913 . S
H2396 C2414 0.951 . S
H2397 C2416 0.951 . S
H2398 C2418 0.950 . S
H2399 C2419 0.950 . S
H2400 C2421 0.950 . S
H2401 C2424 0.950 . S
H2402 C2425 0.950 . S
H2403 C2427 0.950 . S
H2404 C2428 0.950 . S
H2405 C2429 0.951 . S
H2406 C2431 0.951 . S
H2407 C2433 0.950 . S
H2408 C2434 0.950 . S
H2409 C2436 0.950 . S
H2410 C2439 0.950 . S
H2411 C2440 0.950 . S
H2412 C2442 0.950 . S
H2413 C2443 0.950 . S
C2414 H2396 0.951 . S
C2414 C2415 1.366 . S
C2414 C2416 1.388 . S
C2415 C2414 1.366 . S
C2415 C2419 1.385 . S
C2416 H2397 0.951 . S
C2416 C2414 1.388 . S
C2416 C2417 1.366 . S
C2417 C2416 1.366 . S
C2417 C2418 1.414 . S
C2417 C2420 1.499 . S
C2418 H2398 0.950 . S
C2418 C2417 1.414 . S
C2418 C2419 1.374 . S
C2419 H2399 0.950 . S
C2419 C2415 1.385 . S
C2419 C2418 1.374 . S
C2420 C2417 1.499 . S
C2420 C2421 1.373 . S
C2420 C2422 1.389 . S
C2421 H2400 0.950 . S
C2421 C2420 1.373 . S
C2421 C2437 1.377 . S
C2422 C2420 1.389 . S
C2422 C2423 1.524 . S
C2422 C2436 1.377 . S
C2423 C2422 1.524 . S
C2423 C2424 1.397 . S
C2423 C2428 1.363 . S
C2424 H2401 0.950 . S
C2424 C2423 1.397 . S
C2424 C2425 1.334 . S
C2425 H2402 0.950 . S
C2425 C2424 1.334 . S
C2425 C2426 1.287 . S
C2426 C2425 1.287 . S
C2426 C2427 1.524 . S
C2426 H2445 0.913 . S
C2427 H2403 0.950 . S
C2427 C2426 1.524 . S
C2427 C2428 1.415 . S
C2428 H2404 0.950 . S
C2428 C2423 1.363 . S
C2428 C2427 1.415 . S
C2429 H2405 0.951 . S
C2429 C2430 1.366 . S
C2429 C2431 1.388 . S
C2430 C2429 1.366 . S
C2430 C2434 1.385 . S
C2431 H2406 0.951 . S
C2431 C2429 1.388 . S
C2431 C2432 1.366 . S
C2432 C2431 1.366 . S
C2432 C2433 1.414 . S
C2432 C2435 1.499 . S
C2433 H2407 0.950 . S
C2433 C2432 1.414 . S
C2433 C2434 1.374 . S
C2434 H2408 0.950 . S
C2434 C2430 1.385 . S
C2434 C2433 1.374 . S
C2435 C2432 1.499 . S
C2435 C2436 1.373 . S
C2435 C2437 1.389 . S
C2436 H2409 0.950 . S
C2436 C2422 1.377 . S
C2436 C2435 1.373 . S
C2437 C2421 1.377 . S
C2437 C2435 1.389 . S
C2437 C2438 1.524 . S
C2438 C2437 1.524 . S
C2438 C2439 1.397 . S
C2438 C2443 1.363 . S
C2439 H2410 0.950 . S
C2439 C2438 1.397 . S
C2439 C2440 1.334 . S
C2440 H2411 0.950 . S
C2440 C2439 1.334 . S
C2440 C2441 1.287 . S
C2441 C2440 1.287 . S
C2441 C2442 1.524 . S
C2441 H2444 0.999 . S
C2442 H2412 0.950 . S
C2442 C2441 1.524 . S
C2442 C2443 1.415 . S
C2443 H2413 0.950 . S
C2443 C2438 1.363 . S
C2443 C2442 1.415 . S
H2444 C2441 0.999 . S
H2445 C2426 0.913 . S
H2446 C2464 0.951 . S
H2447 C2466 0.951 . S
H2448 C2468 0.950 . S
H2449 C2469 0.950 . S
H2450 C2471 0.950 . S
H2451 C2474 0.950 . S
H2452 C2475 0.950 . S
H2453 C2477 0.950 . S
H2454 C2478 0.950 . S
H2455 C2479 0.951 . S
H2456 C2481 0.951 . S
H2457 C2483 0.950 . S
H2458 C2484 0.950 . S
H2459 C2486 0.950 . S
H2460 C2489 0.950 . S
H2461 C2490 0.950 . S
H2462 C2492 0.950 . S
H2463 C2493 0.950 . S
C2464 H2446 0.951 . S
C2464 C2465 1.366 . S
C2464 C2466 1.388 . S
C2465 C2464 1.366 . S
C2465 C2469 1.385 . S
C2466 H2447 0.951 . S
C2466 C2464 1.388 . S
C2466 C2467 1.366 . S
C2467 C2466 1.366 . S
C2467 C2468 1.414 . S
C2467 C2470 1.499 . S
C2468 H2448 0.950 . S
C2468 C2467 1.414 . S
C2468 C2469 1.374 . S
C2469 H2449 0.950 . S
C2469 C2465 1.385 . S
C2469 C2468 1.374 . S
C2470 C2467 1.499 . S
C2470 C2471 1.373 . S
C2470 C2472 1.389 . S
C2471 H2450 0.950 . S
C2471 C2470 1.373 . S
C2471 C2487 1.377 . S
C2472 C2470 1.389 . S
C2472 C2473 1.524 . S
C2472 C2486 1.377 . S
C2473 C2472 1.524 . S
C2473 C2474 1.397 . S
C2473 C2478 1.363 . S
C2474 H2451 0.950 . S
C2474 C2473 1.397 . S
C2474 C2475 1.334 . S
C2475 H2452 0.950 . S
C2475 C2474 1.334 . S
C2475 C2476 1.287 . S
C2476 C2475 1.287 . S
C2476 C2477 1.524 . S
C2476 H2495 0.913 . S
C2477 H2453 0.950 . S
C2477 C2476 1.524 . S
C2477 C2478 1.415 . S
C2478 H2454 0.950 . S
C2478 C2473 1.363 . S
C2478 C2477 1.415 . S
C2479 H2455 0.951 . S
C2479 C2480 1.366 . S
C2479 C2481 1.388 . S
C2480 C2479 1.366 . S
C2480 C2484 1.385 . S
C2481 H2456 0.951 . S
C2481 C2479 1.388 . S
C2481 C2482 1.366 . S
C2482 C2481 1.366 . S
C2482 C2483 1.414 . S
C2482 C2485 1.499 . S
C2483 H2457 0.950 . S
C2483 C2482 1.414 . S
C2483 C2484 1.374 . S
C2484 H2458 0.950 . S
C2484 C2480 1.385 . S
C2484 C2483 1.374 . S
C2485 C2482 1.499 . S
C2485 C2486 1.373 . S
C2485 C2487 1.389 . S
C2486 H2459 0.950 . S
C2486 C2472 1.377 . S
C2486 C2485 1.373 . S
C2487 C2471 1.377 . S
C2487 C2485 1.389 . S
C2487 C2488 1.524 . S
C2488 C2487 1.524 . S
C2488 C2489 1.397 . S
C2488 C2493 1.363 . S
C2489 H2460 0.950 . S
C2489 C2488 1.397 . S
C2489 C2490 1.334 . S
C2490 H2461 0.950 . S
C2490 C2489 1.334 . S
C2490 C2491 1.287 . S
C2491 C2490 1.287 . S
C2491 C2492 1.524 . S
C2491 H2494 0.999 . S
C2492 H2462 0.950 . S
C2492 C2491 1.524 . S
C2492 C2493 1.415 . S
C2493 H2463 0.950 . S
C2493 C2488 1.363 . S
C2493 C2492 1.415 . S
H2494 C2491 0.999 . S
H2495 C2476 0.913 . S
H2496 C2514 0.951 . S
H2497 C2516 0.951 . S
H2498 C2518 0.950 . S
H2499 C2519 0.950 . S
H2500 C2521 0.950 . S
H2501 C2524 0.950 . S
H2502 C2525 0.950 . S
H2503 C2527 0.950 . S
H2504 C2528 0.950 . S
H2505 C2529 0.951 . S
H2506 C2531 0.951 . S
H2507 C2533 0.950 . S
H2508 C2534 0.950 . S
H2509 C2536 0.950 . S
H2510 C2539 0.950 . S
H2511 C2540 0.950 . S
H2512 C2542 0.950 . S
H2513 C2543 0.950 . S
C2514 H2496 0.951 . S
C2514 C2515 1.366 . S
C2514 C2516 1.388 . S
C2515 C2514 1.366 . S
C2515 C2519 1.385 . S
C2516 H2497 0.951 . S
C2516 C2514 1.388 . S
C2516 C2517 1.366 . S
C2517 C2516 1.366 . S
C2517 C2518 1.414 . S
C2517 C2520 1.499 . S
C2518 H2498 0.950 . S
C2518 C2517 1.414 . S
C2518 C2519 1.374 . S
C2519 H2499 0.950 . S
C2519 C2515 1.385 . S
C2519 C2518 1.374 . S
C2520 C2517 1.499 . S
C2520 C2521 1.373 . S
C2520 C2522 1.389 . S
C2521 H2500 0.950 . S
C2521 C2520 1.373 . S
C2521 C2537 1.377 . S
C2522 C2520 1.389 . S
C2522 C2523 1.524 . S
C2522 C2536 1.377 . S
C2523 C2522 1.524 . S
C2523 C2524 1.397 . S
C2523 C2528 1.363 . S
C2524 H2501 0.950 . S
C2524 C2523 1.397 . S
C2524 C2525 1.334 . S
C2525 H2502 0.950 . S
C2525 C2524 1.334 . S
C2525 C2526 1.287 . S
C2526 C2525 1.287 . S
C2526 C2527 1.524 . S
C2526 H2545 0.913 . S
C2527 H2503 0.950 . S
C2527 C2526 1.524 . S
C2527 C2528 1.415 . S
C2528 H2504 0.950 . S
C2528 C2523 1.363 . S
C2528 C2527 1.415 . S
C2529 H2505 0.951 . S
C2529 C2530 1.366 . S
C2529 C2531 1.388 . S
C2530 C2529 1.366 . S
C2530 C2534 1.385 . S
C2531 H2506 0.951 . S
C2531 C2529 1.388 . S
C2531 C2532 1.366 . S
C2532 C2531 1.366 . S
C2532 C2533 1.414 . S
C2532 C2535 1.499 . S
C2533 H2507 0.950 . S
C2533 C2532 1.414 . S
C2533 C2534 1.374 . S
C2534 H2508 0.950 . S
C2534 C2530 1.385 . S
C2534 C2533 1.374 . S
C2535 C2532 1.499 . S
C2535 C2536 1.373 . S
C2535 C2537 1.389 . S
C2536 H2509 0.950 . S
C2536 C2522 1.377 . S
C2536 C2535 1.373 . S
C2537 C2521 1.377 . S
C2537 C2535 1.389 . S
C2537 C2538 1.524 . S
C2538 C2537 1.524 . S
C2538 C2539 1.397 . S
C2538 C2543 1.363 . S
C2539 H2510 0.950 . S
C2539 C2538 1.397 . S
C2539 C2540 1.334 . S
C2540 H2511 0.950 . S
C2540 C2539 1.334 . S
C2540 C2541 1.287 . S
C2541 C2540 1.287 . S
C2541 C2542 1.524 . S
C2541 H2544 0.999 . S
C2542 H2512 0.950 . S
C2542 C2541 1.524 . S
C2542 C2543 1.415 . S
C2543 H2513 0.950 . S
C2543 C2538 1.363 . S
C2543 C2542 1.415 . S
H2544 C2541 0.999 . S
H2545 C2526 0.913 . S
H2546 C2564 0.951 . S
H2547 C2566 0.951 . S
H2548 C2568 0.950 . S
H2549 C2569 0.950 . S
H2550 C2571 0.950 . S
H2551 C2574 0.950 . S
H2552 C2575 0.950 . S
H2553 C2577 0.950 . S
H2554 C2578 0.950 . S
H2555 C2579 0.951 . S
H2556 C2581 0.951 . S
H2557 C2583 0.950 . S
H2558 C2584 0.950 . S
H2559 C2586 0.950 . S
H2560 C2589 0.950 . S
H2561 C2590 0.950 . S
H2562 C2592 0.950 . S
H2563 C2593 0.950 . S
C2564 H2546 0.951 . S
C2564 C2565 1.366 . S
C2564 C2566 1.388 . S
C2565 C2564 1.366 . S
C2565 C2569 1.385 . S
C2566 H2547 0.951 . S
C2566 C2564 1.388 . S
C2566 C2567 1.366 . S
C2567 C2566 1.366 . S
C2567 C2568 1.414 . S
C2567 C2570 1.499 . S
C2568 H2548 0.950 . S
C2568 C2567 1.414 . S
C2568 C2569 1.374 . S
C2569 H2549 0.950 . S
C2569 C2565 1.385 . S
C2569 C2568 1.374 . S
C2570 C2567 1.499 . S
C2570 C2571 1.373 . S
C2570 C2572 1.389 . S
C2571 H2550 0.950 . S
C2571 C2570 1.373 . S
C2571 C2587 1.377 . S
C2572 C2570 1.389 . S
C2572 C2573 1.524 . S
C2572 C2586 1.377 . S
C2573 C2572 1.524 . S
C2573 C2574 1.397 . S
C2573 C2578 1.363 . S
C2574 H2551 0.950 . S
C2574 C2573 1.397 . S
C2574 C2575 1.334 . S
C2575 H2552 0.950 . S
C2575 C2574 1.334 . S
C2575 C2576 1.287 . S
C2576 C2575 1.287 . S
C2576 C2577 1.524 . S
C2576 H2595 0.913 . S
C2577 H2553 0.950 . S
C2577 C2576 1.524 . S
C2577 C2578 1.415 . S
C2578 H2554 0.950 . S
C2578 C2573 1.363 . S
C2578 C2577 1.415 . S
C2579 H2555 0.951 . S
C2579 C2580 1.366 . S
C2579 C2581 1.388 . S
C2580 C2579 1.366 . S
C2580 C2584 1.385 . S
C2581 H2556 0.951 . S
C2581 C2579 1.388 . S
C2581 C2582 1.366 . S
C2582 C2581 1.366 . S
C2582 C2583 1.414 . S
C2582 C2585 1.499 . S
C2583 H2557 0.950 . S
C2583 C2582 1.414 . S
C2583 C2584 1.374 . S
C2584 H2558 0.950 . S
C2584 C2580 1.385 . S
C2584 C2583 1.374 . S
C2585 C2582 1.499 . S
C2585 C2586 1.373 . S
C2585 C2587 1.389 . S
C2586 H2559 0.950 . S
C2586 C2572 1.377 . S
C2586 C2585 1.373 . S
C2587 C2571 1.377 . S
C2587 C2585 1.389 . S
C2587 C2588 1.524 . S
C2588 C2587 1.524 . S
C2588 C2589 1.397 . S
C2588 C2593 1.363 . S
C2589 H2560 0.950 . S
C2589 C2588 1.397 . S
C2589 C2590 1.334 . S
C2590 H2561 0.950 . S
C2590 C2589 1.334 . S
C2590 C2591 1.287 . S
C2591 C2590 1.287 . S
C2591 C2592 1.524 . S
C2591 H2594 0.999 . S
C2592 H2562 0.950 . S
C2592 C2591 1.524 . S
C2592 C2593 1.415 . S
C2593 H2563 0.950 . S
C2593 C2588 1.363 . S
C2593 C2592 1.415 . S
H2594 C2591 0.999 . S
H2595 C2576 0.913 . S
H2596 C2614 0.951 . S
H2597 C2616 0.951 . S
H2598 C2618 0.950 . S
H2599 C2619 0.950 . S
H2600 C2621 0.950 . S
H2601 C2624 0.950 . S
H2602 C2625 0.950 . S
H2603 C2627 0.950 . S
H2604 C2628 0.950 . S
H2605 C2629 0.951 . S
H2606 C2631 0.951 . S
H2607 C2633 0.950 . S
H2608 C2634 0.950 . S
H2609 C2636 0.950 . S
H2610 C2639 0.950 . S
H2611 C2640 0.950 . S
H2612 C2642 0.950 . S
H2613 C2643 0.950 . S
C2614 H2596 0.951 . S
C2614 C2615 1.366 . S
C2614 C2616 1.388 . S
C2615 C2614 1.366 . S
C2615 C2619 1.385 . S
C2616 H2597 0.951 . S
C2616 C2614 1.388 . S
C2616 C2617 1.366 . S
C2617 C2616 1.366 . S
C2617 C2618 1.414 . S
C2617 C2620 1.499 . S
C2618 H2598 0.950 . S
C2618 C2617 1.414 . S
C2618 C2619 1.374 . S
C2619 H2599 0.950 . S
C2619 C2615 1.385 . S
C2619 C2618 1.374 . S
C2620 C2617 1.499 . S
C2620 C2621 1.373 . S
C2620 C2622 1.389 . S
C2621 H2600 0.950 . S
C2621 C2620 1.373 . S
C2621 C2637 1.377 . S
C2622 C2620 1.389 . S
C2622 C2623 1.524 . S
C2622 C2636 1.377 . S
C2623 C2622 1.524 . S
C2623 C2624 1.397 . S
C2623 C2628 1.363 . S
C2624 H2601 0.950 . S
C2624 C2623 1.397 . S
C2624 C2625 1.334 . S
C2625 H2602 0.950 . S
C2625 C2624 1.334 . S
C2625 C2626 1.287 . S
C2626 C2625 1.287 . S
C2626 C2627 1.524 . S
C2626 H2645 0.913 . S
C2627 H2603 0.950 . S
C2627 C2626 1.524 . S
C2627 C2628 1.415 . S
C2628 H2604 0.950 . S
C2628 C2623 1.363 . S
C2628 C2627 1.415 . S
C2629 H2605 0.951 . S
C2629 C2630 1.366 . S
C2629 C2631 1.388 . S
C2630 C2629 1.366 . S
C2630 C2634 1.385 . S
C2631 H2606 0.951 . S
C2631 C2629 1.388 . S
C2631 C2632 1.366 . S
C2632 C2631 1.366 . S
C2632 C2633 1.414 . S
C2632 C2635 1.499 . S
C2633 H2607 0.950 . S
C2633 C2632 1.414 . S
C2633 C2634 1.374 . S
C2634 H2608 0.950 . S
C2634 C2630 1.385 . S
C2634 C2633 1.374 . S
C2635 C2632 1.499 . S
C2635 C2636 1.373 . S
C2635 C2637 1.389 . S
C2636 H2609 0.950 . S
C2636 C2622 1.377 . S
C2636 C2635 1.373 . S
C2637 C2621 1.377 . S
C2637 C2635 1.389 . S
C2637 C2638 1.524 . S
C2638 C2637 1.524 . S
C2638 C2639 1.397 . S
C2638 C2643 1.363 . S
C2639 H2610 0.950 . S
C2639 C2638 1.397 . S
C2639 C2640 1.334 . S
C2640 H2611 0.950 . S
C2640 C2639 1.334 . S
C2640 C2641 1.287 . S
C2641 C2640 1.287 . S
C2641 C2642 1.524 . S
C2641 H2644 0.999 . S
C2642 H2612 0.950 . S
C2642 C2641 1.524 . S
C2642 C2643 1.415 . S
C2643 H2613 0.950 . S
C2643 C2638 1.363 . S
C2643 C2642 1.415 . S
H2644 C2641 0.999 . S
H2645 C2626 0.913 . S
H2646 C2664 0.951 . S
H2647 C2666 0.951 . S
H2648 C2668 0.950 . S
H2649 C2669 0.950 . S
H2650 C2671 0.950 . S
H2651 C2674 0.950 . S
H2652 C2675 0.950 . S
H2653 C2677 0.950 . S
H2654 C2678 0.950 . S
H2655 C2679 0.951 . S
H2656 C2681 0.951 . S
H2657 C2683 0.950 . S
H2658 C2684 0.950 . S
H2659 C2686 0.950 . S
H2660 C2689 0.950 . S
H2661 C2690 0.950 . S
H2662 C2692 0.950 . S
H2663 C2693 0.950 . S
C2664 H2646 0.951 . S
C2664 C2665 1.366 . S
C2664 C2666 1.388 . S
C2665 C2664 1.366 . S
C2665 C2669 1.385 . S
C2666 H2647 0.951 . S
C2666 C2664 1.388 . S
C2666 C2667 1.366 . S
C2667 C2666 1.366 . S
C2667 C2668 1.414 . S
C2667 C2670 1.499 . S
C2668 H2648 0.950 . S
C2668 C2667 1.414 . S
C2668 C2669 1.374 . S
C2669 H2649 0.950 . S
C2669 C2665 1.385 . S
C2669 C2668 1.374 . S
C2670 C2667 1.499 . S
C2670 C2671 1.373 . S
C2670 C2672 1.389 . S
C2671 H2650 0.950 . S
C2671 C2670 1.373 . S
C2671 C2687 1.377 . S
C2672 C2670 1.389 . S
C2672 C2673 1.524 . S
C2672 C2686 1.377 . S
C2673 C2672 1.524 . S
C2673 C2674 1.397 . S
C2673 C2678 1.363 . S
C2674 H2651 0.950 . S
C2674 C2673 1.397 . S
C2674 C2675 1.334 . S
C2675 H2652 0.950 . S
C2675 C2674 1.334 . S
C2675 C2676 1.287 . S
C2676 C2675 1.287 . S
C2676 C2677 1.524 . S
C2676 H2695 0.913 . S
C2677 H2653 0.950 . S
C2677 C2676 1.524 . S
C2677 C2678 1.415 . S
C2678 H2654 0.950 . S
C2678 C2673 1.363 . S
C2678 C2677 1.415 . S
C2679 H2655 0.951 . S
C2679 C2680 1.366 . S
C2679 C2681 1.388 . S
C2680 C2679 1.366 . S
C2680 C2684 1.385 . S
C2681 H2656 0.951 . S
C2681 C2679 1.388 . S
C2681 C2682 1.366 . S
C2682 C2681 1.366 . S
C2682 C2683 1.414 . S
C2682 C2685 1.499 . S
C2683 H2657 0.950 . S
C2683 C2682 1.414 . S
C2683 C2684 1.374 . S
C2684 H2658 0.950 . S
C2684 C2680 1.385 . S
C2684 C2683 1.374 . S
C2685 C2682 1.499 . S
C2685 C2686 1.373 . S
C2685 C2687 1.389 . S
C2686 H2659 0.950 . S
C2686 C2672 1.377 . S
C2686 C2685 1.373 . S
C2687 C2671 1.377 . S
C2687 C2685 1.389 . S
C2687 C2688 1.524 . S
C2688 C2687 1.524 . S
C2688 C2689 1.397 . S
C2688 C2693 1.363 . S
C2689 H2660 0.950 . S
C2689 C2688 1.397 . S
C2689 C2690 1.334 . S
C2690 H2661 0.950 . S
C2690 C2689 1.334 . S
C2690 C2691 1.287 . S
C2691 C2690 1.287 . S
C2691 C2692 1.524 . S
C2691 H2694 0.999 . S
C2692 H2662 0.950 . S
C2692 C2691 1.524 . S
C2692 C2693 1.415 . S
C2693 H2663 0.950 . S
C2693 C2688 1.363 . S
C2693 C2692 1.415 . S
H2694 C2691 0.999 . S
H2695 C2676 0.913 . S
H2696 C2714 0.951 . S
H2697 C2716 0.951 . S
H2698 C2718 0.950 . S
H2699 C2719 0.950 . S
H2700 C2721 0.950 . S
H2701 C2724 0.950 . S
H2702 C2725 0.950 . S
H2703 C2727 0.950 . S
H2704 C2728 0.950 . S
H2705 C2729 0.951 . S
H2706 C2731 0.951 . S
H2707 C2733 0.950 . S
H2708 C2734 0.950 . S
H2709 C2736 0.950 . S
H2710 C2739 0.950 . S
H2711 C2740 0.950 . S
H2712 C2742 0.950 . S
H2713 C2743 0.950 . S
C2714 H2696 0.951 . S
C2714 C2715 1.366 . S
C2714 C2716 1.388 . S
C2715 C2714 1.366 . S
C2715 C2719 1.385 . S
C2716 H2697 0.951 . S
C2716 C2714 1.388 . S
C2716 C2717 1.366 . S
C2717 C2716 1.366 . S
C2717 C2718 1.414 . S
C2717 C2720 1.499 . S
C2718 H2698 0.950 . S
C2718 C2717 1.414 . S
C2718 C2719 1.374 . S
C2719 H2699 0.950 . S
C2719 C2715 1.385 . S
C2719 C2718 1.374 . S
C2720 C2717 1.499 . S
C2720 C2721 1.373 . S
C2720 C2722 1.389 . S
C2721 H2700 0.950 . S
C2721 C2720 1.373 . S
C2721 C2737 1.377 . S
C2722 C2720 1.389 . S
C2722 C2723 1.524 . S
C2722 C2736 1.377 . S
C2723 C2722 1.524 . S
C2723 C2724 1.397 . S
C2723 C2728 1.363 . S
C2724 H2701 0.950 . S
C2724 C2723 1.397 . S
C2724 C2725 1.334 . S
C2725 H2702 0.950 . S
C2725 C2724 1.334 . S
C2725 C2726 1.287 . S
C2726 C2725 1.287 . S
C2726 C2727 1.524 . S
C2726 H2745 0.913 . S
C2727 H2703 0.950 . S
C2727 C2726 1.524 . S
C2727 C2728 1.415 . S
C2728 H2704 0.950 . S
C2728 C2723 1.363 . S
C2728 C2727 1.415 . S
C2729 H2705 0.951 . S
C2729 C2730 1.366 . S
C2729 C2731 1.388 . S
C2730 C2729 1.366 . S
C2730 C2734 1.385 . S
C2731 H2706 0.951 . S
C2731 C2729 1.388 . S
C2731 C2732 1.366 . S
C2732 C2731 1.366 . S
C2732 C2733 1.414 . S
C2732 C2735 1.499 . S
C2733 H2707 0.950 . S
C2733 C2732 1.414 . S
C2733 C2734 1.374 . S
C2734 H2708 0.950 . S
C2734 C2730 1.385 . S
C2734 C2733 1.374 . S
C2735 C2732 1.499 . S
C2735 C2736 1.373 . S
C2735 C2737 1.389 . S
C2736 H2709 0.950 . S
C2736 C2722 1.377 . S
C2736 C2735 1.373 . S
C2737 C2721 1.377 . S
C2737 C2735 1.389 . S
C2737 C2738 1.524 . S
C2738 C2737 1.524 . S
C2738 C2739 1.397 . S
C2738 C2743 1.363 . S
C2739 H2710 0.950 . S
C2739 C2738 1.397 . S
C2739 C2740 1.334 . S
C2740 H2711 0.950 . S
C2740 C2739 1.334 . S
C2740 C2741 1.287 . S
C2741 C2740 1.287 . S
C2741 C2742 1.524 . S
C2741 H2744 0.999 1_455 S
C2742 H2712 0.950 . S
C2742 C2741 1.524 . S
C2742 C2743 1.415 . S
C2743 H2713 0.950 . S
C2743 C2738 1.363 . S
C2743 C2742 1.415 . S
H2744 C2741 0.999 1_655 S
H2745 C2726 0.913 . S
H2746 C2764 0.951 . S
H2747 C2766 0.951 . S
H2748 C2768 0.950 . S
H2749 C2769 0.950 . S
H2750 C2771 0.950 . S
H2751 C2774 0.950 . S
H2752 C2775 0.950 . S
H2753 C2777 0.950 . S
H2754 C2778 0.950 . S
H2755 C2779 0.951 . S
H2756 C2781 0.951 . S
H2757 C2783 0.950 . S
H2758 C2784 0.950 . S
H2759 C2786 0.950 . S
H2760 C2789 0.950 . S
H2761 C2790 0.950 . S
H2762 C2792 0.950 . S
H2763 C2793 0.950 . S
C2764 H2746 0.951 . S
C2764 C2765 1.366 . S
C2764 C2766 1.388 . S
C2765 C2764 1.366 . S
C2765 C2769 1.385 . S
C2766 H2747 0.951 . S
C2766 C2764 1.388 . S
C2766 C2767 1.366 . S
C2767 C2766 1.366 . S
C2767 C2768 1.414 . S
C2767 C2770 1.499 . S
C2768 H2748 0.950 . S
C2768 C2767 1.414 . S
C2768 C2769 1.374 . S
C2769 H2749 0.950 . S
C2769 C2765 1.385 . S
C2769 C2768 1.374 . S
C2770 C2767 1.499 . S
C2770 C2771 1.373 . S
C2770 C2772 1.389 . S
C2771 H2750 0.950 . S
C2771 C2770 1.373 . S
C2771 C2787 1.377 . S
C2772 C2770 1.389 . S
C2772 C2773 1.524 . S
C2772 C2786 1.377 . S
C2773 C2772 1.524 . S
C2773 C2774 1.397 . S
C2773 C2778 1.363 . S
C2774 H2751 0.950 . S
C2774 C2773 1.397 . S
C2774 C2775 1.334 . S
C2775 H2752 0.950 . S
C2775 C2774 1.334 . S
C2775 C2776 1.287 . S
C2776 C2775 1.287 . S
C2776 C2777 1.524 . S
C2776 H2795 0.913 . S
C2777 H2753 0.950 . S
C2777 C2776 1.524 . S
C2777 C2778 1.415 . S
C2778 H2754 0.950 . S
C2778 C2773 1.363 . S
C2778 C2777 1.415 . S
C2779 H2755 0.951 . S
C2779 C2780 1.366 . S
C2779 C2781 1.388 . S
C2780 C2779 1.366 . S
C2780 C2784 1.385 . S
C2781 H2756 0.951 . S
C2781 C2779 1.388 . S
C2781 C2782 1.366 . S
C2782 C2781 1.366 . S
C2782 C2783 1.414 . S
C2782 C2785 1.499 . S
C2783 H2757 0.950 . S
C2783 C2782 1.414 . S
C2783 C2784 1.374 . S
C2784 H2758 0.950 . S
C2784 C2780 1.385 . S
C2784 C2783 1.374 . S
C2785 C2782 1.499 . S
C2785 C2786 1.373 . S
C2785 C2787 1.389 . S
C2786 H2759 0.950 . S
C2786 C2772 1.377 . S
C2786 C2785 1.373 . S
C2787 C2771 1.377 . S
C2787 C2785 1.389 . S
C2787 C2788 1.524 . S
C2788 C2787 1.524 . S
C2788 C2789 1.397 . S
C2788 C2793 1.363 . S
C2789 H2760 0.950 . S
C2789 C2788 1.397 . S
C2789 C2790 1.334 . S
C2790 H2761 0.950 . S
C2790 C2789 1.334 . S
C2790 C2791 1.287 . S
C2791 C2790 1.287 . S
C2791 C2792 1.524 . S
C2791 H2794 0.999 . S
C2792 H2762 0.950 . S
C2792 C2791 1.524 . S
C2792 C2793 1.415 . S
C2793 H2763 0.950 . S
C2793 C2788 1.363 . S
C2793 C2792 1.415 . S
H2794 C2791 0.999 . S
H2795 C2776 0.913 . S
H2796 C2814 0.951 . S
H2797 C2816 0.951 . S
H2798 C2818 0.950 . S
H2799 C2819 0.950 . S
H2800 C2821 0.950 . S
H2801 C2824 0.950 . S
H2802 C2825 0.950 . S
H2803 C2827 0.950 . S
H2804 C2828 0.950 . S
H2805 C2829 0.951 . S
H2806 C2831 0.951 . S
H2807 C2833 0.950 . S
H2808 C2834 0.950 . S
H2809 C2836 0.950 . S
H2810 C2839 0.950 . S
H2811 C2840 0.950 . S
H2812 C2842 0.950 . S
H2813 C2843 0.950 . S
C2814 H2796 0.951 . S
C2814 C2815 1.366 . S
C2814 C2816 1.388 . S
C2815 C2814 1.366 . S
C2815 C2819 1.385 . S
C2816 H2797 0.951 . S
C2816 C2814 1.388 . S
C2816 C2817 1.366 . S
C2817 C2816 1.366 . S
C2817 C2818 1.414 . S
C2817 C2820 1.499 . S
C2818 H2798 0.950 . S
C2818 C2817 1.414 . S
C2818 C2819 1.374 . S
C2819 H2799 0.950 . S
C2819 C2815 1.385 . S
C2819 C2818 1.374 . S
C2820 C2817 1.499 . S
C2820 C2821 1.373 . S
C2820 C2822 1.389 . S
C2821 H2800 0.950 . S
C2821 C2820 1.373 . S
C2821 C2837 1.377 . S
C2822 C2820 1.389 . S
C2822 C2823 1.524 . S
C2822 C2836 1.377 . S
C2823 C2822 1.524 . S
C2823 C2824 1.397 . S
C2823 C2828 1.363 . S
C2824 H2801 0.950 . S
C2824 C2823 1.397 . S
C2824 C2825 1.334 . S
C2825 H2802 0.950 . S
C2825 C2824 1.334 . S
C2825 C2826 1.287 . S
C2826 C2825 1.287 . S
C2826 C2827 1.524 . S
C2826 H2845 0.913 . S
C2827 H2803 0.950 . S
C2827 C2826 1.524 . S
C2827 C2828 1.415 . S
C2828 H2804 0.950 . S
C2828 C2823 1.363 . S
C2828 C2827 1.415 . S
C2829 H2805 0.951 . S
C2829 C2830 1.366 . S
C2829 C2831 1.388 . S
C2830 C2829 1.366 . S
C2830 C2834 1.385 . S
C2831 H2806 0.951 . S
C2831 C2829 1.388 . S
C2831 C2832 1.366 . S
C2832 C2831 1.366 . S
C2832 C2833 1.414 . S
C2832 C2835 1.499 . S
C2833 H2807 0.950 . S
C2833 C2832 1.414 . S
C2833 C2834 1.374 . S
C2834 H2808 0.950 . S
C2834 C2830 1.385 . S
C2834 C2833 1.374 . S
C2835 C2832 1.499 . S
C2835 C2836 1.373 . S
C2835 C2837 1.389 . S
C2836 H2809 0.950 . S
C2836 C2822 1.377 . S
C2836 C2835 1.373 . S
C2837 C2821 1.377 . S
C2837 C2835 1.389 . S
C2837 C2838 1.524 . S
C2838 C2837 1.524 . S
C2838 C2839 1.397 . S
C2838 C2843 1.363 . S
C2839 H2810 0.950 . S
C2839 C2838 1.397 . S
C2839 C2840 1.334 . S
C2840 H2811 0.950 . S
C2840 C2839 1.334 . S
C2840 C2841 1.287 . S
C2841 C2840 1.287 . S
C2841 C2842 1.524 . S
C2841 H2844 0.999 . S
C2842 H2812 0.950 . S
C2842 C2841 1.524 . S
C2842 C2843 1.415 . S
C2843 H2813 0.950 . S
C2843 C2838 1.363 . S
C2843 C2842 1.415 . S
H2844 C2841 0.999 . S
H2845 C2826 0.913 . S
H2846 C2864 0.951 . S
H2847 C2866 0.951 . S
H2848 C2868 0.950 . S
H2849 C2869 0.950 . S
H2850 C2871 0.950 . S
H2851 C2874 0.950 . S
H2852 C2875 0.950 . S
H2853 C2877 0.950 . S
H2854 C2878 0.950 . S
H2855 C2879 0.951 . S
H2856 C2881 0.951 . S
H2857 C2883 0.950 . S
H2858 C2884 0.950 . S
H2859 C2886 0.950 . S
H2860 C2889 0.950 . S
H2861 C2890 0.950 . S
H2862 C2892 0.950 . S
H2863 C2893 0.950 . S
C2864 H2846 0.951 . S
C2864 C2865 1.366 . S
C2864 C2866 1.388 . S
C2865 C2864 1.366 . S
C2865 C2869 1.385 . S
C2866 H2847 0.951 . S
C2866 C2864 1.388 . S
C2866 C2867 1.366 . S
C2867 C2866 1.366 . S
C2867 C2868 1.414 . S
C2867 C2870 1.499 . S
C2868 H2848 0.950 . S
C2868 C2867 1.414 . S
C2868 C2869 1.374 . S
C2869 H2849 0.950 . S
C2869 C2865 1.385 . S
C2869 C2868 1.374 . S
C2870 C2867 1.499 . S
C2870 C2871 1.373 . S
C2870 C2872 1.389 . S
C2871 H2850 0.950 . S
C2871 C2870 1.373 . S
C2871 C2887 1.377 . S
C2872 C2870 1.389 . S
C2872 C2873 1.524 . S
C2872 C2886 1.377 . S
C2873 C2872 1.524 . S
C2873 C2874 1.397 . S
C2873 C2878 1.363 . S
C2874 H2851 0.950 . S
C2874 C2873 1.397 . S
C2874 C2875 1.334 . S
C2875 H2852 0.950 . S
C2875 C2874 1.334 . S
C2875 C2876 1.287 . S
C2876 C2875 1.287 . S
C2876 C2877 1.524 . S
C2876 H2895 0.913 . S
C2877 H2853 0.950 . S
C2877 C2876 1.524 . S
C2877 C2878 1.415 . S
C2878 H2854 0.950 . S
C2878 C2873 1.363 . S
C2878 C2877 1.415 . S
C2879 H2855 0.951 . S
C2879 C2880 1.366 . S
C2879 C2881 1.388 . S
C2880 C2879 1.366 . S
C2880 C2884 1.385 . S
C2881 H2856 0.951 . S
C2881 C2879 1.388 . S
C2881 C2882 1.366 . S
C2882 C2881 1.366 . S
C2882 C2883 1.414 . S
C2882 C2885 1.499 . S
C2883 H2857 0.950 . S
C2883 C2882 1.414 . S
C2883 C2884 1.374 . S
C2884 H2858 0.950 . S
C2884 C2880 1.385 . S
C2884 C2883 1.374 . S
C2885 C2882 1.499 . S
C2885 C2886 1.373 . S
C2885 C2887 1.389 . S
C2886 H2859 0.950 . S
C2886 C2872 1.377 . S
C2886 C2885 1.373 . S
C2887 C2871 1.377 . S
C2887 C2885 1.389 . S
C2887 C2888 1.524 . S
C2888 C2887 1.524 . S
C2888 C2889 1.397 . S
C2888 C2893 1.363 . S
C2889 H2860 0.950 . S
C2889 C2888 1.397 . S
C2889 C2890 1.334 . S
C2890 H2861 0.950 . S
C2890 C2889 1.334 . S
C2890 C2891 1.287 . S
C2891 C2890 1.287 . S
C2891 C2892 1.524 . S
C2891 H2894 0.999 . S
C2892 H2862 0.950 . S
C2892 C2891 1.524 . S
C2892 C2893 1.415 . S
C2893 H2863 0.950 . S
C2893 C2888 1.363 . S
C2893 C2892 1.415 . S
H2894 C2891 0.999 . S
H2895 C2876 0.913 . S
H2896 C2914 0.951 . S
H2897 C2916 0.951 . S
H2898 C2918 0.950 . S
H2899 C2919 0.950 . S
H2900 C2921 0.950 . S
H2901 C2924 0.950 . S
H2902 C2925 0.950 . S
H2903 C2927 0.950 . S
H2904 C2928 0.950 . S
H2905 C2929 0.951 . S
H2906 C2931 0.951 . S
H2907 C2933 0.950 . S
H2908 C2934 0.950 . S
H2909 C2936 0.950 . S
H2910 C2939 0.950 . S
H2911 C2940 0.950 . S
H2912 C2942 0.950 . S
H2913 C2943 0.950 . S
C2914 H2896 0.951 . S
C2914 C2915 1.366 . S
C2914 C2916 1.388 . S
C2915 C2914 1.366 . S
C2915 C2919 1.385 . S
C2916 H2897 0.951 . S
C2916 C2914 1.388 . S
C2916 C2917 1.366 . S
C2917 C2916 1.366 . S
C2917 C2918 1.414 . S
C2917 C2920 1.499 . S
C2918 H2898 0.950 . S
C2918 C2917 1.414 . S
C2918 C2919 1.374 . S
C2919 H2899 0.950 . S
C2919 C2915 1.385 . S
C2919 C2918 1.374 . S
C2920 C2917 1.499 . S
C2920 C2921 1.373 . S
C2920 C2922 1.389 . S
C2921 H2900 0.950 . S
C2921 C2920 1.373 . S
C2921 C2937 1.377 . S
C2922 C2920 1.389 . S
C2922 C2923 1.524 . S
C2922 C2936 1.377 . S
C2923 C2922 1.524 . S
C2923 C2924 1.397 . S
C2923 C2928 1.363 . S
C2924 H2901 0.950 . S
C2924 C2923 1.397 . S
C2924 C2925 1.334 . S
C2925 H2902 0.950 . S
C2925 C2924 1.334 . S
C2925 C2926 1.287 . S
C2926 C2925 1.287 . S
C2926 C2927 1.524 . S
C2926 H2945 0.913 . S
C2927 H2903 0.950 . S
C2927 C2926 1.524 . S
C2927 C2928 1.415 . S
C2928 H2904 0.950 . S
C2928 C2923 1.363 . S
C2928 C2927 1.415 . S
C2929 H2905 0.951 . S
C2929 C2930 1.366 . S
C2929 C2931 1.388 . S
C2930 C2929 1.366 . S
C2930 C2934 1.385 . S
C2931 H2906 0.951 . S
C2931 C2929 1.388 . S
C2931 C2932 1.366 . S
C2932 C2931 1.366 . S
C2932 C2933 1.414 . S
C2932 C2935 1.499 . S
C2933 H2907 0.950 . S
C2933 C2932 1.414 . S
C2933 C2934 1.374 . S
C2934 H2908 0.950 . S
C2934 C2930 1.385 . S
C2934 C2933 1.374 . S
C2935 C2932 1.499 . S
C2935 C2936 1.373 . S
C2935 C2937 1.389 . S
C2936 H2909 0.950 . S
C2936 C2922 1.377 . S
C2936 C2935 1.373 . S
C2937 C2921 1.377 . S
C2937 C2935 1.389 . S
C2937 C2938 1.524 . S
C2938 C2937 1.524 . S
C2938 C2939 1.397 . S
C2938 C2943 1.363 . S
C2939 H2910 0.950 . S
C2939 C2938 1.397 . S
C2939 C2940 1.334 . S
C2940 H2911 0.950 . S
C2940 C2939 1.334 . S
C2940 C2941 1.287 . S
C2941 C2940 1.287 . S
C2941 C2942 1.524 . S
C2941 H2944 0.999 . S
C2942 H2912 0.950 . S
C2942 C2941 1.524 . S
C2942 C2943 1.415 . S
C2943 H2913 0.950 . S
C2943 C2938 1.363 . S
C2943 C2942 1.415 . S
H2944 C2941 0.999 . S
H2945 C2926 0.913 . S
H2946 C2964 0.951 . S
H2947 C2966 0.951 . S
H2948 C2968 0.950 . S
H2949 C2969 0.950 . S
H2950 C2971 0.950 . S
H2951 C2974 0.950 . S
H2952 C2975 0.950 . S
H2953 C2977 0.950 . S
H2954 C2978 0.950 . S
H2955 C2979 0.951 . S
H2956 C2981 0.951 . S
H2957 C2983 0.950 . S
H2958 C2984 0.950 . S
H2959 C2986 0.950 . S
H2960 C2989 0.950 . S
H2961 C2990 0.950 . S
H2962 C2992 0.950 . S
H2963 C2993 0.950 . S
C2964 H2946 0.951 . S
C2964 C2965 1.366 . S
C2964 C2966 1.388 . S
C2965 C2964 1.366 . S
C2965 C2969 1.385 . S
C2966 H2947 0.951 . S
C2966 C2964 1.388 . S
C2966 C2967 1.366 . S
C2967 C2966 1.366 . S
C2967 C2968 1.414 . S
C2967 C2970 1.499 . S
C2968 H2948 0.950 . S
C2968 C2967 1.414 . S
C2968 C2969 1.374 . S
C2969 H2949 0.950 . S
C2969 C2965 1.385 . S
C2969 C2968 1.374 . S
C2970 C2967 1.499 . S
C2970 C2971 1.373 . S
C2970 C2972 1.389 . S
C2971 H2950 0.950 . S
C2971 C2970 1.373 . S
C2971 C2987 1.377 . S
C2972 C2970 1.389 . S
C2972 C2973 1.524 . S
C2972 C2986 1.377 . S
C2973 C2972 1.524 . S
C2973 C2974 1.397 . S
C2973 C2978 1.363 . S
C2974 H2951 0.950 . S
C2974 C2973 1.397 . S
C2974 C2975 1.334 . S
C2975 H2952 0.950 . S
C2975 C2974 1.334 . S
C2975 C2976 1.287 . S
C2976 C2975 1.287 . S
C2976 C2977 1.524 . S
C2976 H2995 0.913 . S
C2977 H2953 0.950 . S
C2977 C2976 1.524 . S
C2977 C2978 1.415 . S
C2978 H2954 0.950 . S
C2978 C2973 1.363 . S
C2978 C2977 1.415 . S
C2979 H2955 0.951 . S
C2979 C2980 1.366 . S
C2979 C2981 1.388 . S
C2980 C2979 1.366 . S
C2980 C2984 1.385 . S
C2981 H2956 0.951 . S
C2981 C2979 1.388 . S
C2981 C2982 1.366 . S
C2982 C2981 1.366 . S
C2982 C2983 1.414 . S
C2982 C2985 1.499 . S
C2983 H2957 0.950 . S
C2983 C2982 1.414 . S
C2983 C2984 1.374 . S
C2984 H2958 0.950 . S
C2984 C2980 1.385 . S
C2984 C2983 1.374 . S
C2985 C2982 1.499 . S
C2985 C2986 1.373 . S
C2985 C2987 1.389 . S
C2986 H2959 0.950 . S
C2986 C2972 1.377 . S
C2986 C2985 1.373 . S
C2987 C2971 1.377 . S
C2987 C2985 1.389 . S
C2987 C2988 1.524 . S
C2988 C2987 1.524 . S
C2988 C2989 1.397 . S
C2988 C2993 1.363 . S
C2989 H2960 0.950 . S
C2989 C2988 1.397 . S
C2989 C2990 1.334 . S
C2990 H2961 0.950 . S
C2990 C2989 1.334 . S
C2990 C2991 1.287 . S
C2991 C2990 1.287 . S
C2991 C2992 1.524 . S
C2991 H2994 0.999 . S
C2992 H2962 0.950 . S
C2992 C2991 1.524 . S
C2992 C2993 1.415 . S
C2993 H2963 0.950 . S
C2993 C2988 1.363 . S
C2993 C2992 1.415 . S
H2994 C2991 0.999 . S
H2995 C2976 0.913 . S
H2996 C3014 0.951 . S
H2997 C3016 0.951 . S
H2998 C3018 0.950 . S
H2999 C3019 0.950 . S
H3000 C3021 0.950 . S
H3001 C3024 0.950 . S
H3002 C3025 0.950 . S
H3003 C3027 0.950 . S
H3004 C3028 0.950 . S
H3005 C3029 0.951 . S
H3006 C3031 0.951 . S
H3007 C3033 0.950 . S
H3008 C3034 0.950 . S
H3009 C3036 0.950 . S
H3010 C3039 0.950 . S
H3011 C3040 0.950 . S
H3012 C3042 0.950 . S
H3013 C3043 0.950 . S
C3014 H2996 0.951 . S
C3014 C3015 1.366 . S
C3014 C3016 1.388 . S
C3015 C3014 1.366 . S
C3015 C3019 1.385 . S
C3016 H2997 0.951 . S
C3016 C3014 1.388 . S
C3016 C3017 1.366 . S
C3017 C3016 1.366 . S
C3017 C3018 1.414 . S
C3017 C3020 1.499 . S
C3018 H2998 0.950 . S
C3018 C3017 1.414 . S
C3018 C3019 1.374 . S
C3019 H2999 0.950 . S
C3019 C3015 1.385 . S
C3019 C3018 1.374 . S
C3020 C3017 1.499 . S
C3020 C3021 1.373 . S
C3020 C3022 1.389 . S
C3021 H3000 0.950 . S
C3021 C3020 1.373 . S
C3021 C3037 1.377 . S
C3022 C3020 1.389 . S
C3022 C3023 1.524 . S
C3022 C3036 1.377 . S
C3023 C3022 1.524 . S
C3023 C3024 1.397 . S
C3023 C3028 1.363 . S
C3024 H3001 0.950 . S
C3024 C3023 1.397 . S
C3024 C3025 1.334 . S
C3025 H3002 0.950 . S
C3025 C3024 1.334 . S
C3025 C3026 1.287 . S
C3026 C3025 1.287 . S
C3026 C3027 1.524 . S
C3026 H3045 0.913 . S
C3027 H3003 0.950 . S
C3027 C3026 1.524 . S
C3027 C3028 1.415 . S
C3028 H3004 0.950 . S
C3028 C3023 1.363 . S
C3028 C3027 1.415 . S
C3029 H3005 0.951 . S
C3029 C3030 1.366 . S
C3029 C3031 1.388 . S
C3030 C3029 1.366 . S
C3030 C3034 1.385 . S
C3031 H3006 0.951 . S
C3031 C3029 1.388 . S
C3031 C3032 1.366 . S
C3032 C3031 1.366 . S
C3032 C3033 1.414 . S
C3032 C3035 1.499 . S
C3033 H3007 0.950 . S
C3033 C3032 1.414 . S
C3033 C3034 1.374 . S
C3034 H3008 0.950 . S
C3034 C3030 1.385 . S
C3034 C3033 1.374 . S
C3035 C3032 1.499 . S
C3035 C3036 1.373 . S
C3035 C3037 1.389 . S
C3036 H3009 0.950 . S
C3036 C3022 1.377 . S
C3036 C3035 1.373 . S
C3037 C3021 1.377 . S
C3037 C3035 1.389 . S
C3037 C3038 1.524 . S
C3038 C3037 1.524 . S
C3038 C3039 1.397 . S
C3038 C3043 1.363 . S
C3039 H3010 0.950 . S
C3039 C3038 1.397 . S
C3039 C3040 1.334 . S
C3040 H3011 0.950 . S
C3040 C3039 1.334 . S
C3040 C3041 1.287 . S
C3041 C3040 1.287 . S
C3041 C3042 1.524 . S
C3041 H3044 0.999 . S
C3042 H3012 0.950 . S
C3042 C3041 1.524 . S
C3042 C3043 1.415 . S
C3043 H3013 0.950 . S
C3043 C3038 1.363 . S
C3043 C3042 1.415 . S
H3044 C3041 0.999 . S
H3045 C3026 0.913 . S
H3046 C3064 0.951 . S
H3047 C3066 0.951 . S
H3048 C3068 0.950 . S
H3049 C3069 0.950 . S
H3050 C3071 0.950 . S
H3051 C3074 0.950 . S
H3052 C3075 0.950 . S
H3053 C3077 0.950 . S
H3054 C3078 0.950 . S
H3055 C3079 0.951 . S
H3056 C3081 0.951 . S
H3057 C3083 0.950 . S
H3058 C3084 0.950 . S
H3059 C3086 0.950 . S
H3060 C3089 0.950 . S
H3061 C3090 0.950 . S
H3062 C3092 0.950 . S
H3063 C3093 0.950 . S
C3064 H3046 0.951 . S
C3064 C3065 1.366 . S
C3064 C3066 1.388 . S
C3065 C3064 1.366 . S
C3065 C3069 1.385 . S
C3066 H3047 0.951 . S
C3066 C3064 1.388 . S
C3066 C3067 1.366 . S
C3067 C3066 1.366 . S
C3067 C3068 1.414 . S
C3067 C3070 1.499 . S
C3068 H3048 0.950 . S
C3068 C3067 1.414 . S
C3068 C3069 1.374 . S
C3069 H3049 0.950 . S
C3069 C3065 1.385 . S
C3069 C3068 1.374 . S
C3070 C3067 1.499 . S
C3070 C3071 1.373 . S
C3070 C3072 1.389 . S
C3071 H3050 0.950 . S
C3071 C3070 1.373 . S
C3071 C3087 1.377 . S
C3072 C3070 1.389 . S
C3072 C3073 1.524 . S
C3072 C3086 1.377 . S
C3073 C3072 1.524 . S
C3073 C3074 1.397 . S
C3073 C3078 1.363 . S
C3074 H3051 0.950 . S
C3074 C3073 1.397 . S
C3074 C3075 1.334 . S
C3075 H3052 0.950 . S
C3075 C3074 1.334 . S
C3075 C3076 1.287 . S
C3076 C3075 1.287 . S
C3076 C3077 1.524 . S
C3076 H3095 0.913 . S
C3077 H3053 0.950 . S
C3077 C3076 1.524 . S
C3077 C3078 1.415 . S
C3078 H3054 0.950 . S
C3078 C3073 1.363 . S
C3078 C3077 1.415 . S
C3079 H3055 0.951 . S
C3079 C3080 1.366 . S
C3079 C3081 1.388 . S
C3080 C3079 1.366 . S
C3080 C3084 1.385 . S
C3081 H3056 0.951 . S
C3081 C3079 1.388 . S
C3081 C3082 1.366 . S
C3082 C3081 1.366 . S
C3082 C3083 1.414 . S
C3082 C3085 1.499 . S
C3083 H3057 0.950 . S
C3083 C3082 1.414 . S
C3083 C3084 1.374 . S
C3084 H3058 0.950 . S
C3084 C3080 1.385 . S
C3084 C3083 1.374 . S
C3085 C3082 1.499 . S
C3085 C3086 1.373 . S
C3085 C3087 1.389 . S
C3086 H3059 0.950 . S
C3086 C3072 1.377 . S
C3086 C3085 1.373 . S
C3087 C3071 1.377 . S
C3087 C3085 1.389 . S
C3087 C3088 1.524 . S
C3088 C3087 1.524 . S
C3088 C3089 1.397 . S
C3088 C3093 1.363 . S
C3089 H3060 0.950 . S
C3089 C3088 1.397 . S
C3089 C3090 1.334 . S
C3090 H3061 0.950 . S
C3090 C3089 1.334 . S
C3090 C3091 1.287 . S
C3091 C3090 1.287 . S
C3091 C3092 1.524 . S
C3091 H3094 0.999 . S
C3092 H3062 0.950 . S
C3092 C3091 1.524 . S
C3092 C3093 1.415 . S
C3093 H3063 0.950 . S
C3093 C3088 1.363 . S
C3093 C3092 1.415 . S
H3094 C3091 0.999 . S
H3095 C3076 0.913 . S
H3096 C3114 0.951 . S
H3097 C3116 0.951 . S
H3098 C3118 0.950 . S
H3099 C3119 0.950 . S
H3100 C3121 0.950 . S
H3101 C3124 0.950 . S
H3102 C3125 0.950 . S
H3103 C3127 0.950 . S
H3104 C3128 0.950 . S
H3105 C3129 0.951 . S
H3106 C3131 0.951 . S
H3107 C3133 0.950 . S
H3108 C3134 0.950 . S
H3109 C3136 0.950 . S
H3110 C3139 0.950 . S
H3111 C3140 0.950 . S
H3112 C3142 0.950 . S
H3113 C3143 0.950 . S
C3114 H3096 0.951 . S
C3114 C3115 1.366 . S
C3114 C3116 1.388 . S
C3115 C3114 1.366 . S
C3115 C3119 1.385 . S
C3116 H3097 0.951 . S
C3116 C3114 1.388 . S
C3116 C3117 1.366 . S
C3117 C3116 1.366 . S
C3117 C3118 1.414 . S
C3117 C3120 1.499 . S
C3118 H3098 0.950 . S
C3118 C3117 1.414 . S
C3118 C3119 1.374 . S
C3119 H3099 0.950 . S
C3119 C3115 1.385 . S
C3119 C3118 1.374 . S
C3120 C3117 1.499 . S
C3120 C3121 1.373 . S
C3120 C3122 1.389 . S
C3121 H3100 0.950 . S
C3121 C3120 1.373 . S
C3121 C3137 1.377 . S
C3122 C3120 1.389 . S
C3122 C3123 1.524 . S
C3122 C3136 1.377 . S
C3123 C3122 1.524 . S
C3123 C3124 1.397 . S
C3123 C3128 1.363 . S
C3124 H3101 0.950 . S
C3124 C3123 1.397 . S
C3124 C3125 1.334 . S
C3125 H3102 0.950 . S
C3125 C3124 1.334 . S
C3125 C3126 1.287 . S
C3126 C3125 1.287 . S
C3126 C3127 1.524 . S
C3126 H3145 0.913 . S
C3127 H3103 0.950 . S
C3127 C3126 1.524 . S
C3127 C3128 1.415 . S
C3128 H3104 0.950 . S
C3128 C3123 1.363 . S
C3128 C3127 1.415 . S
C3129 H3105 0.951 . S
C3129 C3130 1.366 . S
C3129 C3131 1.388 . S
C3130 C3129 1.366 . S
C3130 C3134 1.385 . S
C3131 H3106 0.951 . S
C3131 C3129 1.388 . S
C3131 C3132 1.366 . S
C3132 C3131 1.366 . S
C3132 C3133 1.414 . S
C3132 C3135 1.499 . S
C3133 H3107 0.950 . S
C3133 C3132 1.414 . S
C3133 C3134 1.374 . S
C3134 H3108 0.950 . S
C3134 C3130 1.385 . S
C3134 C3133 1.374 . S
C3135 C3132 1.499 . S
C3135 C3136 1.373 . S
C3135 C3137 1.389 . S
C3136 H3109 0.950 . S
C3136 C3122 1.377 . S
C3136 C3135 1.373 . S
C3137 C3121 1.377 . S
C3137 C3135 1.389 . S
C3137 C3138 1.524 . S
C3138 C3137 1.524 . S
C3138 C3139 1.397 . S
C3138 C3143 1.363 . S
C3139 H3110 0.950 . S
C3139 C3138 1.397 . S
C3139 C3140 1.334 . S
C3140 H3111 0.950 . S
C3140 C3139 1.334 . S
C3140 C3141 1.287 . S
C3141 C3140 1.287 . S
C3141 C3142 1.524 . S
C3141 H3144 0.999 . S
C3142 H3112 0.950 . S
C3142 C3141 1.524 . S
C3142 C3143 1.415 . S
C3143 H3113 0.950 . S
C3143 C3138 1.363 . S
C3143 C3142 1.415 . S
H3144 C3141 0.999 . S
H3145 C3126 0.913 . S
H3146 C3164 0.951 . S
H3147 C3166 0.951 . S
H3148 C3168 0.950 . S
H3149 C3169 0.950 . S
H3150 C3171 0.950 . S
H3151 C3174 0.950 . S
H3152 C3175 0.950 . S
H3153 C3177 0.950 . S
H3154 C3178 0.950 . S
H3155 C3179 0.951 . S
H3156 C3181 0.951 . S
H3157 C3183 0.950 . S
H3158 C3184 0.950 . S
H3159 C3186 0.950 . S
H3160 C3189 0.950 . S
H3161 C3190 0.950 . S
H3162 C3192 0.950 . S
H3163 C3193 0.950 . S
C3164 H3146 0.951 . S
C3164 C3165 1.366 . S
C3164 C3166 1.388 . S
C3165 C3164 1.366 . S
C3165 C3169 1.385 . S
C3166 H3147 0.951 . S
C3166 C3164 1.388 . S
C3166 C3167 1.366 . S
C3167 C3166 1.366 . S
C3167 C3168 1.414 . S
C3167 C3170 1.499 . S
C3168 H3148 0.950 . S
C3168 C3167 1.414 . S
C3168 C3169 1.374 . S
C3169 H3149 0.950 . S
C3169 C3165 1.385 . S
C3169 C3168 1.374 . S
C3170 C3167 1.499 . S
C3170 C3171 1.373 . S
C3170 C3172 1.389 . S
C3171 H3150 0.950 . S
C3171 C3170 1.373 . S
C3171 C3187 1.377 . S
C3172 C3170 1.389 . S
C3172 C3173 1.524 . S
C3172 C3186 1.377 . S
C3173 C3172 1.524 . S
C3173 C3174 1.397 . S
C3173 C3178 1.363 . S
C3174 H3151 0.950 . S
C3174 C3173 1.397 . S
C3174 C3175 1.334 . S
C3175 H3152 0.950 . S
C3175 C3174 1.334 . S
C3175 C3176 1.287 . S
C3176 C3175 1.287 . S
C3176 C3177 1.524 . S
C3176 H3195 0.913 . S
C3177 H3153 0.950 . S
C3177 C3176 1.524 . S
C3177 C3178 1.415 . S
C3178 H3154 0.950 . S
C3178 C3173 1.363 . S
C3178 C3177 1.415 . S
C3179 H3155 0.951 . S
C3179 C3180 1.366 . S
C3179 C3181 1.388 . S
C3180 C3179 1.366 . S
C3180 C3184 1.385 . S
C3181 H3156 0.951 . S
C3181 C3179 1.388 . S
C3181 C3182 1.366 . S
C3182 C3181 1.366 . S
C3182 C3183 1.414 . S
C3182 C3185 1.499 . S
C3183 H3157 0.950 . S
C3183 C3182 1.414 . S
C3183 C3184 1.374 . S
C3184 H3158 0.950 . S
C3184 C3180 1.385 . S
C3184 C3183 1.374 . S
C3185 C3182 1.499 . S
C3185 C3186 1.373 . S
C3185 C3187 1.389 . S
C3186 H3159 0.950 . S
C3186 C3172 1.377 . S
C3186 C3185 1.373 . S
C3187 C3171 1.377 . S
C3187 C3185 1.389 . S
C3187 C3188 1.524 . S
C3188 C3187 1.524 . S
C3188 C3189 1.397 . S
C3188 C3193 1.363 . S
C3189 H3160 0.950 . S
C3189 C3188 1.397 . S
C3189 C3190 1.334 . S
C3190 H3161 0.950 . S
C3190 C3189 1.334 . S
C3190 C3191 1.287 . S
C3191 C3190 1.287 . S
C3191 C3192 1.524 . S
C3191 H3194 0.999 . S
C3192 H3162 0.950 . S
C3192 C3191 1.524 . S
C3192 C3193 1.415 . S
C3193 H3163 0.950 . S
C3193 C3188 1.363 . S
C3193 C3192 1.415 . S
H3194 C3191 0.999 . S
H3195 C3176 0.913 . S
H3196 C3214 0.951 . S
H3197 C3216 0.951 . S
H3198 C3218 0.950 . S
H3199 C3219 0.950 . S
H3200 C3221 0.950 . S
H3201 C3224 0.950 . S
H3202 C3225 0.950 . S
H3203 C3227 0.950 . S
H3204 C3228 0.950 . S
H3205 C3229 0.951 . S
H3206 C3231 0.951 . S
H3207 C3233 0.950 . S
H3208 C3234 0.950 . S
H3209 C3236 0.950 . S
H3210 C3239 0.950 . S
H3211 C3240 0.950 . S
H3212 C3242 0.950 . S
H3213 C3243 0.950 . S
C3214 H3196 0.951 . S
C3214 C3215 1.366 . S
C3214 C3216 1.388 . S
C3215 C3214 1.366 . S
C3215 C3219 1.385 . S
C3216 H3197 0.951 . S
C3216 C3214 1.388 . S
C3216 C3217 1.366 . S
C3217 C3216 1.366 . S
C3217 C3218 1.414 . S
C3217 C3220 1.499 . S
C3218 H3198 0.950 . S
C3218 C3217 1.414 . S
C3218 C3219 1.374 . S
C3219 H3199 0.950 . S
C3219 C3215 1.385 . S
C3219 C3218 1.374 . S
C3220 C3217 1.499 . S
C3220 C3221 1.373 . S
C3220 C3222 1.389 . S
C3221 H3200 0.950 . S
C3221 C3220 1.373 . S
C3221 C3237 1.377 . S
C3222 C3220 1.389 . S
C3222 C3223 1.524 . S
C3222 C3236 1.377 . S
C3223 C3222 1.524 . S
C3223 C3224 1.397 . S
C3223 C3228 1.363 . S
C3224 H3201 0.950 . S
C3224 C3223 1.397 . S
C3224 C3225 1.334 . S
C3225 H3202 0.950 . S
C3225 C3224 1.334 . S
C3225 C3226 1.287 . S
C3226 C3225 1.287 . S
C3226 C3227 1.524 . S
C3226 H3245 0.913 . S
C3227 H3203 0.950 . S
C3227 C3226 1.524 . S
C3227 C3228 1.415 . S
C3228 H3204 0.950 . S
C3228 C3223 1.363 . S
C3228 C3227 1.415 . S
C3229 H3205 0.951 . S
C3229 C3230 1.366 . S
C3229 C3231 1.388 . S
C3230 C3229 1.366 . S
C3230 C3234 1.385 . S
C3231 H3206 0.951 . S
C3231 C3229 1.388 . S
C3231 C3232 1.366 . S
C3232 C3231 1.366 . S
C3232 C3233 1.414 . S
C3232 C3235 1.499 . S
C3233 H3207 0.950 . S
C3233 C3232 1.414 . S
C3233 C3234 1.374 . S
C3234 H3208 0.950 . S
C3234 C3230 1.385 . S
C3234 C3233 1.374 . S
C3235 C3232 1.499 . S
C3235 C3236 1.373 . S
C3235 C3237 1.389 . S
C3236 H3209 0.950 . S
C3236 C3222 1.377 . S
C3236 C3235 1.373 . S
C3237 C3221 1.377 . S
C3237 C3235 1.389 . S
C3237 C3238 1.524 . S
C3238 C3237 1.524 . S
C3238 C3239 1.397 . S
C3238 C3243 1.363 . S
C3239 H3210 0.950 . S
C3239 C3238 1.397 . S
C3239 C3240 1.334 . S
C3240 H3211 0.950 . S
C3240 C3239 1.334 . S
C3240 C3241 1.287 . S
C3241 C3240 1.287 . S
C3241 C3242 1.524 . S
C3241 H3244 0.999 . S
C3242 H3212 0.950 . S
C3242 C3241 1.524 . S
C3242 C3243 1.415 . S
C3243 H3213 0.950 . S
C3243 C3238 1.363 . S
C3243 C3242 1.415 . S
H3244 C3241 0.999 . S
H3245 C3226 0.913 . S
H3246 C3264 0.951 . S
H3247 C3266 0.951 . S
H3248 C3268 0.950 . S
H3249 C3269 0.950 . S
H3250 C3271 0.950 . S
H3251 C3274 0.950 . S
H3252 C3275 0.950 . S
H3253 C3277 0.950 . S
H3254 C3278 0.950 . S
H3255 C3279 0.951 . S
H3256 C3281 0.951 . S
H3257 C3283 0.950 . S
H3258 C3284 0.950 . S
H3259 C3286 0.950 . S
H3260 C3289 0.950 . S
H3261 C3290 0.950 . S
H3262 C3292 0.950 . S
H3263 C3293 0.950 . S
C3264 H3246 0.951 . S
C3264 C3265 1.366 . S
C3264 C3266 1.388 . S
C3265 C3264 1.366 . S
C3265 C3269 1.385 . S
C3266 H3247 0.951 . S
C3266 C3264 1.388 . S
C3266 C3267 1.366 . S
C3267 C3266 1.366 . S
C3267 C3268 1.414 . S
C3267 C3270 1.499 . S
C3268 H3248 0.950 . S
C3268 C3267 1.414 . S
C3268 C3269 1.374 . S
C3269 H3249 0.950 . S
C3269 C3265 1.385 . S
C3269 C3268 1.374 . S
C3270 C3267 1.499 . S
C3270 C3271 1.373 . S
C3270 C3272 1.389 . S
C3271 H3250 0.950 . S
C3271 C3270 1.373 . S
C3271 C3287 1.377 . S
C3272 C3270 1.389 . S
C3272 C3273 1.524 . S
C3272 C3286 1.377 . S
C3273 C3272 1.524 . S
C3273 C3274 1.397 . S
C3273 C3278 1.363 . S
C3274 H3251 0.950 . S
C3274 C3273 1.397 . S
C3274 C3275 1.334 . S
C3275 H3252 0.950 . S
C3275 C3274 1.334 . S
C3275 C3276 1.287 . S
C3276 C3275 1.287 . S
C3276 C3277 1.524 . S
C3276 H3295 0.913 . S
C3277 H3253 0.950 . S
C3277 C3276 1.524 . S
C3277 C3278 1.415 . S
C3278 H3254 0.950 . S
C3278 C3273 1.363 . S
C3278 C3277 1.415 . S
C3279 H3255 0.951 . S
C3279 C3280 1.366 . S
C3279 C3281 1.388 . S
C3280 C3279 1.366 . S
C3280 C3284 1.385 . S
C3281 H3256 0.951 . S
C3281 C3279 1.388 . S
C3281 C3282 1.366 . S
C3282 C3281 1.366 . S
C3282 C3283 1.414 . S
C3282 C3285 1.499 . S
C3283 H3257 0.950 . S
C3283 C3282 1.414 . S
C3283 C3284 1.374 . S
C3284 H3258 0.950 . S
C3284 C3280 1.385 . S
C3284 C3283 1.374 . S
C3285 C3282 1.499 . S
C3285 C3286 1.373 . S
C3285 C3287 1.389 . S
C3286 H3259 0.950 . S
C3286 C3272 1.377 . S
C3286 C3285 1.373 . S
C3287 C3271 1.377 . S
C3287 C3285 1.389 . S
C3287 C3288 1.524 . S
C3288 C3287 1.524 . S
C3288 C3289 1.397 . S
C3288 C3293 1.363 . S
C3289 H3260 0.950 . S
C3289 C3288 1.397 . S
C3289 C3290 1.334 . S
C3290 H3261 0.950 . S
C3290 C3289 1.334 . S
C3290 C3291 1.287 . S
C3291 C3290 1.287 . S
C3291 C3292 1.524 . S
C3291 H3294 0.999 . S
C3292 H3262 0.950 . S
C3292 C3291 1.524 . S
C3292 C3293 1.415 . S
C3293 H3263 0.950 . S
C3293 C3288 1.363 . S
C3293 C3292 1.415 . S
H3294 C3291 0.999 . S
H3295 C3276 0.913 . S
H3296 C3314 0.951 . S
H3297 C3316 0.951 . S
H3298 C3318 0.950 . S
H3299 C3319 0.950 . S
H3300 C3321 0.950 . S
H3301 C3324 0.950 . S
H3302 C3325 0.950 . S
H3303 C3327 0.950 . S
H3304 C3328 0.950 . S
H3305 C3329 0.951 . S
H3306 C3331 0.951 . S
H3307 C3333 0.950 . S
H3308 C3334 0.950 . S
H3309 C3336 0.950 . S
H3310 C3339 0.950 . S
H3311 C3340 0.950 . S
H3312 C3342 0.950 . S
H3313 C3343 0.950 . S
C3314 H3296 0.951 . S
C3314 C3315 1.366 . S
C3314 C3316 1.388 . S
C3315 C3314 1.366 . S
C3315 C3319 1.385 . S
C3316 H3297 0.951 . S
C3316 C3314 1.388 . S
C3316 C3317 1.366 . S
C3317 C3316 1.366 . S
C3317 C3318 1.414 . S
C3317 C3320 1.499 . S
C3318 H3298 0.950 . S
C3318 C3317 1.414 . S
C3318 C3319 1.374 . S
C3319 H3299 0.950 . S
C3319 C3315 1.385 . S
C3319 C3318 1.374 . S
C3320 C3317 1.499 . S
C3320 C3321 1.373 . S
C3320 C3322 1.389 . S
C3321 H3300 0.950 . S
C3321 C3320 1.373 . S
C3321 C3337 1.377 . S
C3322 C3320 1.389 . S
C3322 C3323 1.524 . S
C3322 C3336 1.377 . S
C3323 C3322 1.524 . S
C3323 C3324 1.397 . S
C3323 C3328 1.363 . S
C3324 H3301 0.950 . S
C3324 C3323 1.397 . S
C3324 C3325 1.334 . S
C3325 H3302 0.950 . S
C3325 C3324 1.334 . S
C3325 C3326 1.287 . S
C3326 C3325 1.287 . S
C3326 C3327 1.524 . S
C3326 H3345 0.913 . S
C3327 H3303 0.950 . S
C3327 C3326 1.524 . S
C3327 C3328 1.415 . S
C3328 H3304 0.950 . S
C3328 C3323 1.363 . S
C3328 C3327 1.415 . S
C3329 H3305 0.951 . S
C3329 C3330 1.366 . S
C3329 C3331 1.388 . S
C3330 C3329 1.366 . S
C3330 C3334 1.385 . S
C3331 H3306 0.951 . S
C3331 C3329 1.388 . S
C3331 C3332 1.366 . S
C3332 C3331 1.366 . S
C3332 C3333 1.414 . S
C3332 C3335 1.499 . S
C3333 H3307 0.950 . S
C3333 C3332 1.414 . S
C3333 C3334 1.374 . S
C3334 H3308 0.950 . S
C3334 C3330 1.385 . S
C3334 C3333 1.374 . S
C3335 C3332 1.499 . S
C3335 C3336 1.373 . S
C3335 C3337 1.389 . S
C3336 H3309 0.950 . S
C3336 C3322 1.377 . S
C3336 C3335 1.373 . S
C3337 C3321 1.377 . S
C3337 C3335 1.389 . S
C3337 C3338 1.524 . S
C3338 C3337 1.524 . S
C3338 C3339 1.397 . S
C3338 C3343 1.363 . S
C3339 H3310 0.950 . S
C3339 C3338 1.397 . S
C3339 C3340 1.334 . S
C3340 H3311 0.950 . S
C3340 C3339 1.334 . S
C3340 C3341 1.287 . S
C3341 C3340 1.287 . S
C3341 C3342 1.524 . S
C3341 H3344 0.999 . S
C3342 H3312 0.950 . S
C3342 C3341 1.524 . S
C3342 C3343 1.415 . S
C3343 H3313 0.950 . S
C3343 C3338 1.363 . S
C3343 C3342 1.415 . S
H3344 C3341 0.999 . S
H3345 C3326 0.913 . S
H3346 C3364 0.951 . S
H3347 C3366 0.951 . S
H3348 C3368 0.950 . S
H3349 C3369 0.950 . S
H3350 C3371 0.950 . S
H3351 C3374 0.950 . S
H3352 C3375 0.950 . S
H3353 C3377 0.950 . S
H3354 C3378 0.950 . S
H3355 C3379 0.951 . S
H3356 C3381 0.951 . S
H3357 C3383 0.950 . S
H3358 C3384 0.950 . S
H3359 C3386 0.950 . S
H3360 C3389 0.950 . S
H3361 C3390 0.950 . S
H3362 C3392 0.950 . S
H3363 C3393 0.950 . S
C3364 H3346 0.951 . S
C3364 C3365 1.366 . S
C3364 C3366 1.388 . S
C3365 C3364 1.366 . S
C3365 C3369 1.385 . S
C3366 H3347 0.951 . S
C3366 C3364 1.388 . S
C3366 C3367 1.366 . S
C3367 C3366 1.366 . S
C3367 C3368 1.414 . S
C3367 C3370 1.499 . S
C3368 H3348 0.950 . S
C3368 C3367 1.414 . S
C3368 C3369 1.374 . S
C3369 H3349 0.950 . S
C3369 C3365 1.385 . S
C3369 C3368 1.374 . S
C3370 C3367 1.499 . S
C3370 C3371 1.373 . S
C3370 C3372 1.389 . S
C3371 H3350 0.950 . S
C3371 C3370 1.373 . S
C3371 C3387 1.377 . S
C3372 C3370 1.389 . S
C3372 C3373 1.524 . S
C3372 C3386 1.377 . S
C3373 C3372 1.524 . S
C3373 C3374 1.397 . S
C3373 C3378 1.363 . S
C3374 H3351 0.950 . S
C3374 C3373 1.397 . S
C3374 C3375 1.334 . S
C3375 H3352 0.950 . S
C3375 C3374 1.334 . S
C3375 C3376 1.287 . S
C3376 C3375 1.287 . S
C3376 C3377 1.524 . S
C3376 H3395 0.913 . S
C3377 H3353 0.950 . S
C3377 C3376 1.524 . S
C3377 C3378 1.415 . S
C3378 H3354 0.950 . S
C3378 C3373 1.363 . S
C3378 C3377 1.415 . S
C3379 H3355 0.951 . S
C3379 C3380 1.366 . S
C3379 C3381 1.388 . S
C3380 C3379 1.366 . S
C3380 C3384 1.385 . S
C3381 H3356 0.951 . S
C3381 C3379 1.388 . S
C3381 C3382 1.366 . S
C3382 C3381 1.366 . S
C3382 C3383 1.414 . S
C3382 C3385 1.499 . S
C3383 H3357 0.950 . S
C3383 C3382 1.414 . S
C3383 C3384 1.374 . S
C3384 H3358 0.950 . S
C3384 C3380 1.385 . S
C3384 C3383 1.374 . S
C3385 C3382 1.499 . S
C3385 C3386 1.373 . S
C3385 C3387 1.389 . S
C3386 H3359 0.950 . S
C3386 C3372 1.377 . S
C3386 C3385 1.373 . S
C3387 C3371 1.377 . S
C3387 C3385 1.389 . S
C3387 C3388 1.524 . S
C3388 C3387 1.524 . S
C3388 C3389 1.397 . S
C3388 C3393 1.363 . S
C3389 H3360 0.950 . S
C3389 C3388 1.397 . S
C3389 C3390 1.334 . S
C3390 H3361 0.950 . S
C3390 C3389 1.334 . S
C3390 C3391 1.287 . S
C3391 C3390 1.287 . S
C3391 C3392 1.524 . S
C3391 H3394 0.999 . S
C3392 H3362 0.950 . S
C3392 C3391 1.524 . S
C3392 C3393 1.415 . S
C3393 H3363 0.950 . S
C3393 C3388 1.363 . S
C3393 C3392 1.415 . S
H3394 C3391 0.999 . S
H3395 C3376 0.913 . S
C1030 C707 1.316 . S
C1015 C56 1.287 . S
C1080 C685 1.667 . S
C1065 C154 1.600 . S
C1130 C682 0.691 . S
C1115 C236 0.694 . S
C1165 C310 0.619 . S
C1180 C694 0.377 . S
C1215 C394 1.596 . S
C1230 C677 1.662 . S
C1280 C699 0.693 . S
C1265 C476 0.696 . S
C1315 C574 0.618 . S
C1330 C704 0.372 . S
C1365 C656 1.284 . S
C1380 C700 1.314 . S
C1430 C758 2.782 . S
C1415 C67 2.849 . S
C1465 C139 1.279 . S
C1480 C808 1.273 . S
C1530 C731 1.677 . S
C1515 C238 1.592 . S
C1580 C807 0.707 . S
C1565 C308 0.711 . S
C1615 C392 0.697 . S
C1630 C736 0.690 . S
C1680 C802 2.778 . S
C1665 C487 2.847 . S
C1715 C559 1.292 . S
C1730 C761 1.288 . S
C1765 C658 1.599 . S
C1780 C793 1.686 . S
C1815 C58 1.604 . S
C1830 C785 1.689 . S
C1865 C403 1.291 . S
C1880 C815 1.285 . S
C1930 C739 1.693 . S
C1915 C478 1.605 . S
C1980 C790 0.718 . S
C1965 C572 0.723 . S
C2015 C643 2.853 . S
C2030 C748 2.783 . S
C2065 C223 2.861 . S
C2080 C812 2.796 . S
C2130 C754 1.295 . S
C2115 C319 1.299 . S
C2165 C152 0.711 . S
C2180 C753 0.705 . S
C2215 C644 1.286 . S
C2230 C869 1.316 . S
C2265 C406 1.600 . S
C2280 C847 1.667 . S
C2330 C844 0.692 . S
C2315 C488 0.694 . S
C2380 C856 0.373 . S
C2365 C562 0.623 . S
C2415 C142 1.597 . S
C2430 C839 1.662 . S
C2480 C861 0.693 . S
C2465 C224 0.697 . S
C2515 C322 0.618 . S
C2530 C866 0.372 . S
C2565 C68 1.284 . S
C2580 C862 1.314 . S
C2615 C655 2.849 . S
C2630 C920 2.782 . S
C2680 C970 1.273 . S
C2665 C391 1.279 . S
C2715 C490 1.593 . S
C2730 C893 1.676 . S
C2765 C560 0.711 . S
C2780 C969 0.706 . S
C2830 C898 0.690 . S
C2815 C140 0.697 . S
C2865 C235 2.847 . S
C2880 C964 2.778 . S
C2930 C923 1.288 . S
C2915 C307 1.292 . S
C2980 C955 1.686 . S
C2965 C70 1.599 . S
C3030 C947 1.689 . S
C3015 C646 1.604 . S
C3065 C151 1.291 . S
C3080 C977 1.285 . S
C3115 C226 1.606 . S
C3130 C901 1.692 . S
C3180 C952 0.718 . S
C3165 C320 0.724 . S
C3215 C55 2.853 . S
C3230 C910 2.783 . S
C3265 C475 2.861 . S
C3280 C974 2.796 . S
C3330 C916 1.294 . S
C3315 C571 1.299 . S
C3380 C915 0.706 . S
C3365 C404 0.710 . S
