# Generated by pormake.
# Topology gar, (4,6)-cn, num edge types: 1
# Building blocks:
#     Node 0, Type 0, BuildingBlock: GALJAG_clean_sbu_0, # of connection points: 4
#     Node 1, Type 0, BuildingBlock: GALJAG_clean_sbu_0, # of connection points: 4
#     Node 2, Type 0, BuildingBlock: GALJAG_clean_sbu_0, # of connection points: 4
#     Node 3, Type 0, BuildingBlock: GALJAG_clean_sbu_0, # of connection points: 4
#     Node 4, Type 0, BuildingBlock: GALJAG_clean_sbu_0, # of connection points: 4
#     Node 5, Type 0, BuildingBlock: GALJAG_clean_sbu_0, # of connection points: 4
#     Node 6, Type 0, BuildingBlock: GALJAG_clean_sbu_0, # of connection points: 4
#     Node 7, Type 0, BuildingBlock: GALJAG_clean_sbu_0, # of connection points: 4
#     Node 8, Type 0, BuildingBlock: GALJAG_clean_sbu_0, # of connection points: 4
#     Node 9, Type 0, BuildingBlock: GALJAG_clean_sbu_0, # of connection points: 4
#     Node 10, Type 0, BuildingBlock: GALJAG_clean_sbu_0, # of connection points: 4
#     Node 11, Type 0, BuildingBlock: GALJAG_clean_sbu_0, # of connection points: 4
#     Node 12, Type 0, BuildingBlock: GALJAG_clean_sbu_0, # of connection points: 4
#     Node 13, Type 0, BuildingBlock: GALJAG_clean_sbu_0, # of connection points: 4
#     Node 14, Type 0, BuildingBlock: GALJAG_clean_sbu_0, # of connection points: 4
#     Node 15, Type 0, BuildingBlock: GALJAG_clean_sbu_0, # of connection points: 4
#     Node 16, Type 0, BuildingBlock: GALJAG_clean_sbu_0, # of connection points: 4
#     Node 17, Type 0, BuildingBlock: GALJAG_clean_sbu_0, # of connection points: 4
#     Node 18, Type 0, BuildingBlock: GALJAG_clean_sbu_0, # of connection points: 4
#     Node 19, Type 0, BuildingBlock: GALJAG_clean_sbu_0, # of connection points: 4
#     Node 20, Type 0, BuildingBlock: GALJAG_clean_sbu_0, # of connection points: 4
#     Node 21, Type 0, BuildingBlock: GALJAG_clean_sbu_0, # of connection points: 4
#     Node 22, Type 0, BuildingBlock: GALJAG_clean_sbu_0, # of connection points: 4
#     Node 23, Type 0, BuildingBlock: GALJAG_clean_sbu_0, # of connection points: 4
#     Node 24, Type 1, BuildingBlock: HISSIN_clean_sbu_0, # of connection points: 6
#     Node 25, Type 1, BuildingBlock: HISSIN_clean_sbu_0, # of connection points: 6
#     Node 26, Type 1, BuildingBlock: HISSIN_clean_sbu_0, # of connection points: 6
#     Node 27, Type 1, BuildingBlock: HISSIN_clean_sbu_0, # of connection points: 6
#     Node 28, Type 1, BuildingBlock: HISSIN_clean_sbu_0, # of connection points: 6
#     Node 29, Type 1, BuildingBlock: HISSIN_clean_sbu_0, # of connection points: 6
#     Node 30, Type 1, BuildingBlock: HISSIN_clean_sbu_0, # of connection points: 6
#     Node 31, Type 1, BuildingBlock: HISSIN_clean_sbu_0, # of connection points: 6
#     Node 32, Type 1, BuildingBlock: HISSIN_clean_sbu_0, # of connection points: 6
#     Node 33, Type 1, BuildingBlock: HISSIN_clean_sbu_0, # of connection points: 6
#     Node 34, Type 1, BuildingBlock: HISSIN_clean_sbu_0, # of connection points: 6
#     Node 35, Type 1, BuildingBlock: HISSIN_clean_sbu_0, # of connection points: 6
#     Node 36, Type 1, BuildingBlock: HISSIN_clean_sbu_0, # of connection points: 6
#     Node 37, Type 1, BuildingBlock: HISSIN_clean_sbu_0, # of connection points: 6
#     Node 38, Type 1, BuildingBlock: HISSIN_clean_sbu_0, # of connection points: 6
#     Node 39, Type 1, BuildingBlock: HISSIN_clean_sbu_0, # of connection points: 6
#     Edge 40, Type (0, 1), BuildingBlock: OJICUG_clean_linker_0, # of connection points: 2
#     Edge 41, Type (0, 1), BuildingBlock: OJICUG_clean_linker_0, # of connection points: 2
#     Edge 42, Type (0, 1), BuildingBlock: OJICUG_clean_linker_0, # of connection points: 2
#     Edge 43, Type (0, 1), BuildingBlock: OJICUG_clean_linker_0, # of connection points: 2
#     Edge 44, Type (0, 1), BuildingBlock: OJICUG_clean_linker_0, # of connection points: 2
#     Edge 45, Type (0, 1), BuildingBlock: OJICUG_clean_linker_0, # of connection points: 2
#     Edge 46, Type (0, 1), BuildingBlock: OJICUG_clean_linker_0, # of connection points: 2
#     Edge 47, Type (0, 1), BuildingBlock: OJICUG_clean_linker_0, # of connection points: 2
#     Edge 48, Type (0, 1), BuildingBlock: OJICUG_clean_linker_0, # of connection points: 2
#     Edge 49, Type (0, 1), BuildingBlock: OJICUG_clean_linker_0, # of connection points: 2
#     Edge 50, Type (0, 1), BuildingBlock: OJICUG_clean_linker_0, # of connection points: 2
#     Edge 51, Type (0, 1), BuildingBlock: OJICUG_clean_linker_0, # of connection points: 2
#     Edge 52, Type (0, 1), BuildingBlock: OJICUG_clean_linker_0, # of connection points: 2
#     Edge 53, Type (0, 1), BuildingBlock: OJICUG_clean_linker_0, # of connection points: 2
#     Edge 54, Type (0, 1), BuildingBlock: OJICUG_clean_linker_0, # of connection points: 2
#     Edge 55, Type (0, 1), BuildingBlock: OJICUG_clean_linker_0, # of connection points: 2
#     Edge 56, Type (0, 1), BuildingBlock: OJICUG_clean_linker_0, # of connection points: 2
#     Edge 57, Type (0, 1), BuildingBlock: OJICUG_clean_linker_0, # of connection points: 2
#     Edge 58, Type (0, 1), BuildingBlock: OJICUG_clean_linker_0, # of connection points: 2
#     Edge 59, Type (0, 1), BuildingBlock: OJICUG_clean_linker_0, # of connection points: 2
#     Edge 60, Type (0, 1), BuildingBlock: OJICUG_clean_linker_0, # of connection points: 2
#     Edge 61, Type (0, 1), BuildingBlock: OJICUG_clean_linker_0, # of connection points: 2
#     Edge 62, Type (0, 1), BuildingBlock: OJICUG_clean_linker_0, # of connection points: 2
#     Edge 63, Type (0, 1), BuildingBlock: OJICUG_clean_linker_0, # of connection points: 2
#     Edge 64, Type (0, 1), BuildingBlock: OJICUG_clean_linker_0, # of connection points: 2
#     Edge 65, Type (0, 1), BuildingBlock: OJICUG_clean_linker_0, # of connection points: 2
#     Edge 66, Type (0, 1), BuildingBlock: OJICUG_clean_linker_0, # of connection points: 2
#     Edge 67, Type (0, 1), BuildingBlock: OJICUG_clean_linker_0, # of connection points: 2
#     Edge 68, Type (0, 1), BuildingBlock: OJICUG_clean_linker_0, # of connection points: 2
#     Edge 69, Type (0, 1), BuildingBlock: OJICUG_clean_linker_0, # of connection points: 2
#     Edge 70, Type (0, 1), BuildingBlock: OJICUG_clean_linker_0, # of connection points: 2
#     Edge 71, Type (0, 1), BuildingBlock: OJICUG_clean_linker_0, # of connection points: 2
#     Edge 72, Type (0, 1), BuildingBlock: OJICUG_clean_linker_0, # of connection points: 2
#     Edge 73, Type (0, 1), BuildingBlock: OJICUG_clean_linker_0, # of connection points: 2
#     Edge 74, Type (0, 1), BuildingBlock: OJICUG_clean_linker_0, # of connection points: 2
#     Edge 75, Type (0, 1), BuildingBlock: OJICUG_clean_linker_0, # of connection points: 2
#     Edge 76, Type (0, 1), BuildingBlock: OJICUG_clean_linker_0, # of connection points: 2
#     Edge 77, Type (0, 1), BuildingBlock: OJICUG_clean_linker_0, # of connection points: 2
#     Edge 78, Type (0, 1), BuildingBlock: OJICUG_clean_linker_0, # of connection points: 2
#     Edge 79, Type (0, 1), BuildingBlock: OJICUG_clean_linker_0, # of connection points: 2
#     Edge 80, Type (0, 1), BuildingBlock: OJICUG_clean_linker_0, # of connection points: 2
#     Edge 81, Type (0, 1), BuildingBlock: OJICUG_clean_linker_0, # of connection points: 2
#     Edge 82, Type (0, 1), BuildingBlock: OJICUG_clean_linker_0, # of connection points: 2
#     Edge 83, Type (0, 1), BuildingBlock: OJICUG_clean_linker_0, # of connection points: 2
#     Edge 84, Type (0, 1), BuildingBlock: OJICUG_clean_linker_0, # of connection points: 2
#     Edge 85, Type (0, 1), BuildingBlock: OJICUG_clean_linker_0, # of connection points: 2
#     Edge 86, Type (0, 1), BuildingBlock: OJICUG_clean_linker_0, # of connection points: 2
#     Edge 87, Type (0, 1), BuildingBlock: OJICUG_clean_linker_0, # of connection points: 2
#     Edge 88, Type (0, 1), BuildingBlock: OJICUG_clean_linker_0, # of connection points: 2
#     Edge 89, Type (0, 1), BuildingBlock: OJICUG_clean_linker_0, # of connection points: 2
#     Edge 90, Type (0, 1), BuildingBlock: OJICUG_clean_linker_0, # of connection points: 2
#     Edge 91, Type (0, 1), BuildingBlock: OJICUG_clean_linker_0, # of connection points: 2
#     Edge 92, Type (0, 1), BuildingBlock: OJICUG_clean_linker_0, # of connection points: 2
#     Edge 93, Type (0, 1), BuildingBlock: OJICUG_clean_linker_0, # of connection points: 2
#     Edge 94, Type (0, 1), BuildingBlock: OJICUG_clean_linker_0, # of connection points: 2
#     Edge 95, Type (0, 1), BuildingBlock: OJICUG_clean_linker_0, # of connection points: 2
#     Edge 96, Type (0, 1), BuildingBlock: OJICUG_clean_linker_0, # of connection points: 2
#     Edge 97, Type (0, 1), BuildingBlock: OJICUG_clean_linker_0, # of connection points: 2
#     Edge 98, Type (0, 1), BuildingBlock: OJICUG_clean_linker_0, # of connection points: 2
#     Edge 99, Type (0, 1), BuildingBlock: OJICUG_clean_linker_0, # of connection points: 2
#     Edge 100, Type (0, 1), BuildingBlock: OJICUG_clean_linker_0, # of connection points: 2
#     Edge 101, Type (0, 1), BuildingBlock: OJICUG_clean_linker_0, # of connection points: 2
#     Edge 102, Type (0, 1), BuildingBlock: OJICUG_clean_linker_0, # of connection points: 2
#     Edge 103, Type (0, 1), BuildingBlock: OJICUG_clean_linker_0, # of connection points: 2
#     Edge 104, Type (0, 1), BuildingBlock: OJICUG_clean_linker_0, # of connection points: 2
#     Edge 105, Type (0, 1), BuildingBlock: OJICUG_clean_linker_0, # of connection points: 2
#     Edge 106, Type (0, 1), BuildingBlock: OJICUG_clean_linker_0, # of connection points: 2
#     Edge 107, Type (0, 1), BuildingBlock: OJICUG_clean_linker_0, # of connection points: 2
#     Edge 108, Type (0, 1), BuildingBlock: OJICUG_clean_linker_0, # of connection points: 2
#     Edge 109, Type (0, 1), BuildingBlock: OJICUG_clean_linker_0, # of connection points: 2
#     Edge 110, Type (0, 1), BuildingBlock: OJICUG_clean_linker_0, # of connection points: 2
#     Edge 111, Type (0, 1), BuildingBlock: OJICUG_clean_linker_0, # of connection points: 2
#     Edge 112, Type (0, 1), BuildingBlock: OJICUG_clean_linker_0, # of connection points: 2
#     Edge 113, Type (0, 1), BuildingBlock: OJICUG_clean_linker_0, # of connection points: 2
#     Edge 114, Type (0, 1), BuildingBlock: OJICUG_clean_linker_0, # of connection points: 2
#     Edge 115, Type (0, 1), BuildingBlock: OJICUG_clean_linker_0, # of connection points: 2
#     Edge 116, Type (0, 1), BuildingBlock: OJICUG_clean_linker_0, # of connection points: 2
#     Edge 117, Type (0, 1), BuildingBlock: OJICUG_clean_linker_0, # of connection points: 2
#     Edge 118, Type (0, 1), BuildingBlock: OJICUG_clean_linker_0, # of connection points: 2
#     Edge 119, Type (0, 1), BuildingBlock: OJICUG_clean_linker_0, # of connection points: 2
#     Edge 120, Type (0, 1), BuildingBlock: OJICUG_clean_linker_0, # of connection points: 2
#     Edge 121, Type (0, 1), BuildingBlock: OJICUG_clean_linker_0, # of connection points: 2
#     Edge 122, Type (0, 1), BuildingBlock: OJICUG_clean_linker_0, # of connection points: 2
#     Edge 123, Type (0, 1), BuildingBlock: OJICUG_clean_linker_0, # of connection points: 2
#     Edge 124, Type (0, 1), BuildingBlock: OJICUG_clean_linker_0, # of connection points: 2
#     Edge 125, Type (0, 1), BuildingBlock: OJICUG_clean_linker_0, # of connection points: 2
#     Edge 126, Type (0, 1), BuildingBlock: OJICUG_clean_linker_0, # of connection points: 2
#     Edge 127, Type (0, 1), BuildingBlock: OJICUG_clean_linker_0, # of connection points: 2
#     Edge 128, Type (0, 1), BuildingBlock: OJICUG_clean_linker_0, # of connection points: 2
#     Edge 129, Type (0, 1), BuildingBlock: OJICUG_clean_linker_0, # of connection points: 2
#     Edge 130, Type (0, 1), BuildingBlock: OJICUG_clean_linker_0, # of connection points: 2
#     Edge 131, Type (0, 1), BuildingBlock: OJICUG_clean_linker_0, # of connection points: 2
#     Edge 132, Type (0, 1), BuildingBlock: OJICUG_clean_linker_0, # of connection points: 2
#     Edge 133, Type (0, 1), BuildingBlock: OJICUG_clean_linker_0, # of connection points: 2
#     Edge 134, Type (0, 1), BuildingBlock: OJICUG_clean_linker_0, # of connection points: 2
#     Edge 135, Type (0, 1), BuildingBlock: OJICUG_clean_linker_0, # of connection points: 2
# Relax obj value: 0.250
# Max RMSD: 0.327
# Mean RMSD: 0.172
data_MOF--net-gar--node1-GALJAG_clean_sbu_0--node2-HISSIN_clean_sbu_0--edge1-OJICUG_clean_linker_0
_symmetry_space_group_name_H-M    P1
_symmetry_Int_Tables_number       1
_symmetry_cell_setting            triclinic
loop_
_symmetry_equiv_pos_as_xyz
'x, y, z'
_cell_length_a     44.484922
_cell_length_b     44.2853
_cell_length_c     42.129328
_cell_angle_alpha  101.66023
_cell_angle_beta   92.886521
_cell_angle_gamma 100.51022
loop_
_atom_site_label
_atom_site_type_symbol
_atom_site_fract_x
_atom_site_fract_y
_atom_site_fract_z
_atom_type_partial_charge
In0 In 0.13757 0.35989 0.42201 0.0
O1 O 0.16791 0.33095 0.39381 0.0
O2 O 0.18683 0.37931 0.41382 0.0
C3 C 0.10617 0.35441 0.36434 0.0
C4 C 0.12461 0.3229 0.46493 0.0
C5 C 0.12924 0.41394 0.45835 0.0
O6 O 0.11992 0.38035 0.3816 0.0
O7 O 0.10717 0.33088 0.3767 0.0
O8 O 0.10752 0.39067 0.44851 0.0
O9 O 0.15537 0.40986 0.45012 0.0
C10 C 0.19021 0.3537 0.39621 0.0
O11 O 0.15143 0.33766 0.46344 0.0
O12 O 0.10465 0.32602 0.44413 0.0
In13 In 0.07628 0.82208 0.70899 0.0
O14 O 0.06612 0.85362 0.67508 0.0
O15 O 0.11214 0.84744 0.68184 0.0
C16 C 0.08347 0.76599 0.67482 0.0
C17 C 0.10655 0.8382 0.76851 0.0
C18 C 1.01975 0.82108 0.72772 0.0
O19 O 0.06401 0.78073 0.66599 0.0
O20 O 0.09944 0.77946 0.70118 0.0
O21 O 1.02729 0.79756 0.71009 0.0
O22 O 0.04029 0.84575 0.7344 0.0
C23 C 0.09333 0.85942 0.66746 0.0
O24 O 0.08616 0.81368 0.75924 0.0
O25 O 0.11242 0.85443 0.74732 0.0
In26 In 0.64044 0.85873 0.91884 0.0
O27 O 0.69086 0.87628 0.91316 0.0
O28 O 0.66969 0.82951 0.88925 0.0
C29 C 0.60756 0.85418 0.8622 0.0
C30 C 0.62773 0.82144 0.96145 0.0
C31 C 0.63242 0.91276 0.95567 0.0
O32 O 0.62138 0.87994 0.87972 0.0
O33 O 0.60919 0.83038 0.87384 0.0
O34 O 0.61286 0.88755 0.95194 0.0
O35 O 0.65627 0.91079 0.94099 0.0
C36 C 0.69318 0.8512 0.89382 0.0
O37 O 0.65428 0.83738 0.96094 0.0
O38 O 0.60801 0.82358 0.93982 0.0
In39 In 0.57121 0.31693 0.20834 0.0
O40 O 0.60008 0.28568 0.17936 0.0
O41 O 0.55427 0.26518 0.18584 0.0
C42 C 0.58765 0.3553 0.16744 0.0
C43 C 0.51578 0.32246 0.22706 0.0
C44 C 0.59901 0.32014 0.26728 0.0
O45 O 0.56051 0.34062 0.16721 0.0
O46 O 0.60632 0.35166 0.18924 0.0
O47 O 0.59987 0.34433 0.25551 0.0
O48 O 0.58521 0.29482 0.24889 0.0
C49 C 0.57913 0.26138 0.17399 0.0
O50 O 0.51967 0.30176 0.20308 0.0
O51 O 0.53975 0.34178 0.24021 0.0
In52 In 0.15889 0.83087 0.12807 0.0
O53 O 0.14413 0.78718 0.08872 0.0
O54 O 0.17981 0.78725 0.12465 0.0
C55 C 0.17073 0.86427 0.08184 0.0
C56 C 0.10139 0.82987 0.14658 0.0
C57 C 0.19672 0.84688 0.18311 0.0
O58 O 0.17174 0.8356 0.07765 0.0
O59 O 0.16489 0.87666 0.10998 0.0
O60 O 0.16959 0.83183 0.181 0.0
O61 O 0.20539 0.854 0.15699 0.0
C62 C 0.16276 0.77242 0.09932 0.0
O63 O 0.11095 0.8056 0.13381 0.0
O64 O 0.12035 0.85525 0.14852 0.0
In65 In 0.52969 0.82041 0.47095 0.0
O66 O 0.5698 0.79838 0.45084 0.0
O67 O 0.55415 0.83203 0.42802 0.0
C68 C 0.47368 0.80289 0.4385 0.0
C69 C 0.53129 0.79359 0.52266 0.0
C70 C 0.5452 0.88259 0.49314 0.0
O71 O 0.49729 0.79572 0.42609 0.0
O72 O 0.47812 0.81749 0.46781 0.0
O73 O 0.51812 0.86921 0.48196 0.0
O74 O 0.56403 0.86453 0.49336 0.0
C75 C 0.57318 0.8143 0.42902 0.0
O76 O 0.53623 0.82284 0.52498 0.0
O77 O 0.52539 0.77742 0.49391 0.0
In78 In 0.65951 0.33197 0.62761 0.0
O79 O 0.64382 0.28847 0.58809 0.0
O80 O 0.67806 0.28705 0.62488 0.0
C81 C 0.67229 0.36528 0.58151 0.0
C82 C 0.60228 0.33253 0.64644 0.0
C83 C 0.69812 0.34701 0.68202 0.0
O84 O 0.67427 0.33688 0.57781 0.0
O85 O 0.66505 0.37743 0.60912 0.0
O86 O 0.67085 0.33242 0.68033 0.0
O87 O 0.70648 0.35417 0.65582 0.0
C88 C 0.66116 0.27277 0.59927 0.0
O89 O 0.61052 0.30821 0.6316 0.0
O90 O 0.62246 0.35732 0.65038 0.0
In91 In 1.03126 0.32013 0.97121 0.0
O92 O 0.0373 0.32394 1.0256 0.0
O93 O 1.02505 0.27808 0.99557 0.0
C94 C 0.04855 0.38273 0.98943 0.0
C95 C 0.07406 0.30959 0.92942 0.0
C96 C 0.97499 0.30276 0.93953 0.0
O97 O 1.02103 0.36957 0.98015 0.0
O98 O 0.067 0.36432 0.98964 0.0
O99 O 0.99799 0.29339 0.92773 0.0
O100 O 0.98015 0.31961 0.96793 0.0
C101 C 1.03128 0.2948 1.02404 0.0
O102 O 0.05274 0.3237 0.92422 0.0
O103 O 0.07329 0.29949 0.95544 0.0
In104 In 0.40427 0.06075 0.36492 0.0
O105 O 0.42881 0.08261 0.32652 0.0
O106 O 0.42013 1.03275 0.31972 0.0
C107 C 0.45605 0.07305 0.40464 0.0
C108 C 0.36077 0.09414 0.35839 0.0
C109 C 0.36824 1.01374 0.38373 0.0
O110 O 0.448 0.04843 0.38265 0.0
O111 O 0.43732 0.09166 0.4075 0.0
O112 O 0.38439 0.03637 0.40425 0.0
O113 O 0.37128 1.01445 0.35429 0.0
C114 C 0.43196 0.05666 0.3094 0.0
O115 O 0.35951 0.06655 0.34261 0.0
O116 O 0.38476 0.10573 0.37765 0.0
In117 In 0.31992 0.23541 0.53147 0.0
O118 O 0.30052 0.2612 0.57685 0.0
O119 O 0.3487 0.26773 0.5767 0.0
C120 C 0.32678 0.25789 0.47551 0.0
C121 C 0.36458 0.20401 0.54297 0.0
C122 C 0.26356 0.19807 0.5251 0.0
O123 O 0.3257 0.27545 0.50288 0.0
O124 O 0.32362 0.22925 0.47626 0.0
O125 O 0.28742 0.18739 0.51803 0.0
O126 O 0.268 0.22764 0.53435 0.0
C127 C 0.32627 0.27311 0.59252 0.0
O128 O 0.33657 0.1931 0.54457 0.0
O129 O 0.36986 0.23022 0.5348 0.0
In130 In 0.22637 0.05956 0.80679 0.0
O131 O 0.18137 0.06106 0.77162 0.0
O132 O 0.21888 0.05156 0.74731 0.0
C133 C 0.19424 0.06457 0.86735 0.0
C134 C 0.25557 1.00156 0.80492 0.0
C135 C 0.2599 0.12456 0.80958 0.0
O136 O 0.18301 0.04826 0.83949 0.0
O137 O 0.22168 0.07789 0.86523 0.0
O138 O 0.27262 0.10074 0.80753 0.0
O139 O 0.23146 0.11594 0.81148 0.0
C140 C 0.19188 0.0567 0.744 0.0
O141 O 0.26982 1.03001 0.8085 0.0
O142 O 0.22701 1.00203 0.80201 0.0
In143 In 0.33754 1.00537 0.03872 0.0
O144 O 0.33388 0.96674 0.06748 0.0
O145 O 0.3418 1.01412 0.09423 0.0
C146 C 0.33914 0.96219 0.98243 0.0
C147 C 0.28093 1.02572 0.04159 0.0
C148 C 0.39969 0.03361 0.04536 0.0
O149 O 0.33192 0.95488 1.00886 0.0
O150 O 0.34392 0.9915 0.9836 0.0
O151 O 0.37976 0.04372 1.02981 0.0
O152 O 0.388 1.01112 0.05773 0.0
C153 C 0.33869 0.98534 0.09504 0.0
O154 O 0.30668 0.04446 0.04908 0.0
O155 O 0.28392 0.99781 0.03087 0.0
In156 In 0.37616 0.41894 0.06894 0.0
O157 O 0.36436 0.37834 0.09639 0.0
O158 O 0.37077 0.42494 0.1237 0.0
C159 C 0.36913 0.37827 1.00999 0.0
C160 C 0.33689 0.45408 0.05181 0.0
C161 C 0.43294 0.45619 0.08033 0.0
O162 O 0.39509 0.39014 1.02532 0.0
O163 O 0.34686 0.38497 1.02546 0.0
O164 O 0.40853 0.46663 0.08436 0.0
O165 O 0.42892 0.42657 0.07175 0.0
C166 C 0.36433 0.39609 0.12389 0.0
O167 O 0.36378 0.45611 0.04327 0.0
O168 O 0.32988 0.43488 0.06995 0.0
In169 In 0.86141 0.14882 0.08267 0.0
O170 O 0.89315 0.1102 0.07399 0.0
O171 O 0.91512 0.15746 0.08363 0.0
C172 C 0.80074 0.11675 0.07831 0.0
C173 C 0.85912 0.19255 0.13795 0.0
C174 C 0.852 0.17567 0.03216 0.0
O175 O 0.81819 0.12389 0.10452 0.0
O176 O 0.81481 0.12216 0.05419 0.0
O177 O 0.86017 0.19135 0.06076 0.0
O178 O 0.85027 0.14638 1.02863 0.0
C179 C 0.91851 0.12938 0.07648 0.0
O180 O 0.86455 0.19933 0.11084 0.0
O181 O 0.85671 0.16357 0.13797 0.0
In182 In 0.27329 0.61003 0.2428 0.0
O183 O 0.30266 0.57275 0.23162 0.0
O184 O 0.31232 0.60564 0.277 0.0
C185 C 0.29627 0.66692 0.23135 0.0
C186 C 0.23484 0.57913 0.19028 0.0
C187 C 0.24181 0.6155 0.29598 0.0
O188 O 0.31306 0.64884 0.23862 0.0
O189 O 0.26787 0.65591 0.22911 0.0
O190 O 0.24664 0.58945 0.28075 0.0
O191 O 0.25286 0.63884 0.28436 0.0
C192 C 0.31908 0.58227 0.25839 0.0
O193 O 0.2268 0.58258 0.21881 0.0
O194 O 0.26277 0.59008 0.18831 0.0
In195 In 0.87418 0.91872 0.56868 0.0
O196 O 0.86183 0.87754 0.59531 0.0
O197 O 0.87175 0.92376 0.62384 0.0
C198 C 0.86572 0.87864 0.5093 0.0
C199 C 0.83477 0.95487 0.55401 0.0
C200 C 0.93156 0.95481 0.57811 0.0
O201 O 0.89178 0.88867 0.52497 0.0
O202 O 0.84389 0.88691 0.52457 0.0
O203 O 0.90781 0.96571 0.58495 0.0
O204 O 0.92659 0.92535 0.56759 0.0
C205 C 0.86405 0.89487 0.6234 0.0
O206 O 0.8614 0.95691 0.5447 0.0
O207 O 0.82818 0.9352 0.57175 0.0
In208 In 0.96861 0.09403 0.30258 0.0
O209 O 1.0121 0.10621 0.27032 0.0
O210 O 0.97397 0.07596 0.24423 0.0
C211 C 1.00337 0.09629 0.36491 0.0
C212 C 0.93947 0.15231 0.30623 0.0
C213 C 0.93461 1.02892 0.29857 0.0
O214 O 0.97693 0.10293 0.36209 0.0
O215 O 1.01316 0.09062 0.33703 0.0
O216 O 0.92186 0.05249 0.29857 0.0
O217 O 0.96336 0.0379 0.29962 0.0
C218 C 1.00133 0.08968 0.24242 0.0
O219 O 0.96802 0.15163 0.30775 0.0
O220 O 0.92519 0.12391 0.30302 0.0
In221 In 0.36231 0.64967 0.58123 0.0
O222 O 0.39304 0.61033 0.57008 0.0
O223 O 0.41602 0.65708 0.58603 0.0
C224 C 0.30062 0.61982 0.57499 0.0
C225 C 0.35934 0.69287 0.6368 0.0
C226 C 0.3573 0.67651 0.52994 0.0
O227 O 0.3189 0.61975 0.59909 0.0
O228 O 0.31411 0.63146 0.55344 0.0
O229 O 0.36419 0.69225 0.55875 0.0
O230 O 0.35465 0.64712 0.52679 0.0
C231 C 0.41885 0.62909 0.57586 0.0
O232 O 0.36624 0.70006 0.61024 0.0
O233 O 0.35576 0.6637 0.6362 0.0
In234 In 0.46914 0.59436 0.80365 0.0
O235 O 0.42497 0.62337 0.8023 0.0
O236 O 0.46729 0.65196 0.81142 0.0
C237 C 0.4357 0.52907 0.79815 0.0
C238 C 0.50246 0.58863 0.74366 0.0
C239 C 0.50254 0.59548 0.86671 0.0
O240 O 0.42327 0.55322 0.80311 0.0
O241 O 0.46391 0.53755 0.79451 0.0
O242 O 0.5132 0.61052 0.84574 0.0
O243 O 0.47528 0.58153 0.85693 0.0
C244 C 0.43877 0.6521 0.80763 0.0
O245 O 0.51416 0.60231 0.77223 0.0
O246 O 0.4741 0.57804 0.74484 0.0
In247 In 0.76935 0.10407 0.74315 0.0
O248 O 0.79862 0.06669 0.7317 0.0
O249 O 0.80842 0.09954 0.77712 0.0
C250 C 0.79243 0.16087 0.73171 0.0
C251 C 0.73006 0.07421 0.69102 0.0
C252 C 0.73823 0.10953 0.79647 0.0
O253 O 0.80915 0.14231 0.73788 0.0
O254 O 0.764 0.15039 0.73056 0.0
O255 O 0.742 0.08333 0.78049 0.0
O256 O 0.75031 0.13303 0.78562 0.0
C257 C 0.8152 0.07627 0.75838 0.0
O258 O 0.72249 0.07733 0.71972 0.0
O259 O 0.758 0.08476 0.68867 0.0
In260 In 0.82265 0.73173 0.03038 0.0
O261 O 0.83963 0.68937 0.04292 0.0
O262 O 0.87254 0.72641 0.03234 0.0
C263 C 0.76631 0.69441 1.02545 0.0
C264 C 0.82944 0.76956 0.09145 0.0
C265 C 0.82932 0.75475 0.97467 0.0
O266 O 0.78966 0.68373 1.01636 0.0
O267 O 0.77124 0.72384 0.03596 0.0
O268 O 0.83007 0.77229 1.00243 0.0
O269 O 0.82434 0.72593 0.97492 0.0
C270 C 0.86753 0.7002 0.04056 0.0
O271 O 0.80398 0.76077 0.07446 0.0
O272 O 0.85152 0.76093 0.07701 0.0
In273 In 0.90771 0.56117 0.86615 0.0
O274 O 0.86249 0.56585 0.844 0.0
O275 O 0.88707 0.60542 0.87906 0.0
C276 C 0.87303 0.51377 0.88559 0.0
C277 C 0.93482 0.55792 0.81032 0.0
C278 C 0.96012 0.57381 0.90476 0.0
O279 O 0.88896 0.5367 0.90595 0.0
O280 O 0.87566 0.51441 0.85608 0.0
O281 O 0.9518 0.54909 0.88296 0.0
O282 O 0.94131 0.59234 0.90809 0.0
C283 C 0.86318 0.59333 0.85979 0.0
O284 O 0.93187 0.58371 0.82797 0.0
O285 O 0.92306 0.53377 0.82027 0.0
In286 In 0.8392 0.50739 0.53755 0.0
O287 O 0.83893 0.46544 0.56141 0.0
O288 O 0.84517 0.51086 0.59234 0.0
C289 C 0.84291 0.46365 0.48236 0.0
C290 C 0.78185 0.52671 0.54086 0.0
C291 C 0.89972 0.54097 0.54408 0.0
O292 O 0.83782 0.45684 0.50955 0.0
O293 O 0.84482 0.49256 0.4824 0.0
O294 O 0.88208 0.53631 0.51827 0.0
O295 O 0.88612 0.53154 0.5668 0.0
C296 C 0.84365 0.48174 0.59012 0.0
O297 O 0.80739 0.54583 0.54713 0.0
O298 O 0.78529 0.49885 0.53122 0.0
In299 In 0.7266 0.55958 0.30725 0.0
O300 O 0.77029 0.53034 0.3087 0.0
O301 O 0.72761 0.50213 0.30245 0.0
C302 C 0.75995 0.62451 0.30991 0.0
C303 C 0.692 0.55688 0.24458 0.0
C304 C 0.69458 0.56448 0.36791 0.0
O305 O 0.77276 0.60077 0.30801 0.0
O306 O 0.73151 0.61586 0.31176 0.0
O307 O 0.68337 0.54807 0.34007 0.0
O308 O 0.72196 0.57795 0.36571 0.0
C309 C 0.75622 0.50184 0.30519 0.0
O310 O 0.6815 0.56111 0.27221 0.0
O311 O 0.719 0.55171 0.24781 0.0
Eu312 Eu 0.11633 0.11241 0.0696 0.0
Eu313 Eu 0.08224 0.04212 0.04193 0.0
C314 C 0.12629 0.07698 0.9923 0.0
C315 C 0.12496 0.19644 0.10848 0.0
C316 C 0.09552 0.18828 0.11861 0.0
C317 C 0.11613 0.24855 0.10809 0.0
C318 C 0.07563 0.20941 0.12086 0.0
C319 C 0.13596 0.22732 0.10564 0.0
C320 C 0.08504 0.23871 0.11279 0.0
C321 C 0.13982 0.17146 0.09228 0.0
O322 O 0.1331 0.03815 0.04945 0.0
O323 O 0.15663 0.08816 0.07455 0.0
C324 C 0.15834 0.059 0.06162 0.0
O325 O 0.09316 0.10132 0.11566 0.0
O326 O 0.05525 1.00538 1.00324 0.0
O327 O 0.07089 0.99403 0.04836 0.0
O328 O 0.06402 0.05275 0.09405 0.0
C329 C 0.07126 0.07764 0.11888 0.0
O330 O 0.0657 0.11694 0.06124 0.0
O331 O 0.04138 0.06608 0.04045 0.0
O332 O 0.10322 0.0543 0.9952 0.0
O333 O 0.1428 0.1496 0.10823 0.0
O334 O 0.12906 0.15992 0.06192 0.0
O335 O 0.13502 0.10101 1.01778 0.0
C336 C 0.07549 0.95955 1.00043 0.0
C337 C 0.10426 0.96975 0.9897 0.0
C338 C 0.088 0.90856 0.99921 0.0
C339 C 0.12576 0.95028 0.9866 0.0
C340 C 0.0666 0.92817 1.0027 0.0
C341 C 0.11852 0.92058 0.99421 0.0
C342 C 0.05971 0.98311 1.01804 0.0
C343 C 0.04013 0.09571 0.05162 0.0
H344 H 0.08667 0.16444 0.12098 0.0
H345 H 0.12408 0.271 0.10175 0.0
H346 H 0.05188 0.20143 0.12485 0.0
H347 H 0.15859 0.23393 0.09778 0.0
H348 H 0.11152 0.99396 0.98775 0.0
H349 H 0.08188 0.8857 1.00525 0.0
H350 H 0.1491 0.95991 0.98257 0.0
H351 H 0.04453 0.91998 1.011 0.0
Eu352 Eu 0.35076 0.86387 0.31787 0.0
Eu353 Eu 0.29792 0.8206 0.35074 0.0
C354 C 0.27892 0.85441 0.29443 0.0
C355 C 0.38398 0.91994 0.26689 0.0
C356 C 0.36446 0.94183 0.26857 0.0
C357 C 0.39055 0.92319 0.21064 0.0
C358 C 0.35763 0.95377 0.24139 0.0
C359 C 0.39753 0.91137 0.23788 0.0
C360 C 0.37005 0.94403 0.21192 0.0
C361 C 0.38834 0.90416 0.29413 0.0
O362 O 0.31933 0.78859 0.31429 0.0
O363 O 0.33217 0.82093 0.27879 0.0
C364 C 0.3257 0.79291 0.28528 0.0
O365 O 0.37658 0.83234 0.339 0.0
O366 O 0.26195 0.77931 0.34867 0.0
O367 O 0.27486 0.81403 0.39393 0.0
O368 O 0.34333 0.82058 0.37697 0.0
C369 C 0.37009 0.82104 0.36496 0.0
O370 O 0.34913 0.88149 0.37149 0.0
O371 O 0.29792 0.87181 0.36914 0.0
O372 O 0.27218 0.83017 0.3081 0.0
O373 O 0.37363 0.9121 0.31962 0.0
O374 O 0.38709 0.87381 0.2862 0.0
O375 O 0.30566 0.87378 0.30041 0.0
C376 C 0.26829 0.76139 0.3973 0.0
C377 C 0.28802 0.74148 0.38436 0.0
C378 C 0.27462 0.74633 0.44904 0.0
C379 C 0.30161 0.72482 0.40394 0.0
C380 C 0.26079 0.76274 0.42938 0.0
C381 C 0.29601 0.72821 0.43681 0.0
C382 C 0.26102 0.78538 0.38025 0.0
C383 C 0.32407 0.89009 0.38136 0.0
H384 H 0.35364 0.94907 0.29056 0.0
H385 H 0.40093 0.91573 0.18841 0.0
H386 H 0.3417 0.96972 0.2431 0.0
H387 H 0.41284 0.89478 0.23598 0.0
H388 H 0.29457 0.74034 0.35979 0.0
H389 H 0.2696 0.74888 0.47424 0.0
H390 H 0.31804 0.71102 0.39399 0.0
H391 H 0.24587 0.77815 0.43988 0.0
Eu392 Eu 0.63093 0.07396 0.51055 0.0
Eu393 Eu 0.57931 0.0848 0.5631 0.0
C394 C 0.64199 0.06691 0.58541 0.0
C395 C 0.69939 0.04575 0.47983 0.0
C396 C 0.7302 0.06143 0.48565 0.0
C397 C 0.71431 1.00004 0.49511 0.0
C398 C 0.75275 0.04687 0.49689 0.0
C399 C 0.69178 1.01465 0.48409 0.0
C400 C 0.74494 1.01622 0.50243 0.0
C401 C 0.67509 0.06342 0.47442 0.0
O402 O 0.61897 0.1258 0.57465 0.0
O403 O 0.63009 0.12549 0.52243 0.0
C404 C 0.63089 0.14033 0.55275 0.0
O405 O 0.58617 0.0699 0.48098 0.0
O406 O 0.56331 0.11419 0.60433 0.0
O407 O 0.53375 0.07091 0.57891 0.0
O408 O 0.56615 0.10291 0.51933 0.0
C409 C 0.56573 0.08735 0.48932 0.0
O410 O 0.61382 1.02764 0.5232 0.0
O411 O 0.5656 0.0353 0.53364 0.0
O412 O 0.6125 0.06355 0.58937 0.0
O413 O 0.64701 0.04725 0.46752 0.0
O414 O 0.67651 0.08956 0.49585 0.0
O415 O 0.6536 0.07644 0.5602 0.0
C416 C 0.51105 0.11474 0.59396 0.0
C417 C 0.51399 0.13384 0.57105 0.0
C418 C 0.46006 0.12546 0.60221 0.0
C419 C 0.49011 0.14836 0.56348 0.0
C420 C 0.48401 0.11066 0.60959 0.0
C421 C 0.4628 0.14436 0.5789 0.0
C422 C 0.53546 0.09756 0.59947 0.0
C423 C 0.58493 1.01656 0.52582 0.0
H424 H 0.73661 0.08553 0.48295 0.0
H425 H 0.70759 0.97618 0.49839 0.0
H426 H 0.77605 0.06013 0.5025 0.0
H427 H 0.66822 1.0019 0.48008 0.0
H428 H 0.53464 0.13718 0.55861 0.0
H429 H 0.43949 0.12216 0.61481 0.0
H430 H 0.49287 0.16221 0.545 0.0
H431 H 0.4813 0.09584 0.62721 0.0
Eu432 Eu 0.31375 0.33505 0.8031 0.0
Eu433 Eu 0.38092 0.31747 0.79976 0.0
C434 C 0.31928 0.2606 0.80513 0.0
C435 C 0.23239 0.34146 0.82411 0.0
C436 C 0.22805 0.31433 0.83708 0.0
C437 C 0.18417 0.35251 0.84298 0.0
C438 C 0.20174 0.30624 0.85282 0.0
C439 C 0.21038 0.3605 0.82722 0.0
C440 C 0.17943 0.32521 0.85585 0.0
C441 C 0.25979 0.35034 0.80747 0.0
O442 O 0.36764 0.31876 0.74783 0.0
O443 O 0.31636 0.31897 0.74911 0.0
C444 C 0.34048 0.31635 0.73292 0.0
O445 O 0.3454 0.38349 0.80092 0.0
O446 O 0.40869 0.28416 0.77836 0.0
O447 O 0.42991 0.32554 0.81473 0.0
O448 O 0.39302 0.37081 0.79826 0.0
C449 C 0.37554 0.39232 0.79925 0.0
O450 O 0.32713 0.33369 0.85509 0.0
O451 O 0.37828 0.3321 0.85379 0.0
O452 O 0.34935 0.26936 0.80304 0.0
O453 O 0.28426 0.3659 0.8261 0.0
O454 O 0.26594 0.32861 0.78432 0.0
O455 O 0.30171 0.28202 0.80583 0.0
C456 C 0.45839 0.30854 0.7712 0.0
C457 C 0.46038 0.33467 0.75671 0.0
C458 C 0.4999 0.29261 0.74104 0.0
C459 C 0.48215 0.33982 0.73457 0.0
C460 C 0.4783 0.28763 0.76332 0.0
C461 C 0.50194 0.31865 0.7263 0.0
C462 C 0.43437 0.30177 0.79282 0.0
C463 C 0.35417 0.33513 0.86992 0.0
H464 H 0.24496 0.29942 0.83497 0.0
H465 H 0.16783 0.36803 0.8455 0.0
H466 H 0.19872 0.28501 0.86229 0.0
H467 H 0.21353 0.38165 0.81756 0.0
H468 H 0.44484 0.35085 0.76218 0.0
H469 H 0.51515 0.27616 0.73549 0.0
H470 H 0.4831 0.35995 0.72345 0.0
H471 H 0.47692 0.26724 0.77412 0.0
Eu472 Eu 0.08692 0.10659 0.57357 0.0
Eu473 Eu 0.11125 0.0473 0.53443 0.0
C474 C 0.15027 0.11557 0.53851 0.0
C475 C 0.07987 0.18799 0.58209 0.0
C476 C 0.09902 0.186 0.55661 0.0
C477 C 0.07513 0.24028 0.57576 0.0
C478 C 0.10682 0.21099 0.54139 0.0
C479 C 0.06782 0.21523 0.59165 0.0
C480 C 0.09495 0.23831 0.55071 0.0
C481 C 0.07233 0.16055 0.5969 0.0
O482 O 0.13405 0.05518 0.5879 0.0
O483 O 0.10649 0.08826 0.617 0.0
C484 C 0.12713 0.06991 0.61665 0.0
O485 O 0.04965 0.06776 0.58093 0.0
O486 O 0.14966 1.02373 0.52337 0.0
O487 O 0.10362 1.00018 0.50362 0.0
O488 O 0.06688 1.02546 0.55196 0.0
C489 C 0.04654 0.03743 0.56946 0.0
O490 O 0.06809 0.10274 0.51943 0.0
O491 O 0.08457 0.05983 0.49131 0.0
O492 O 0.14152 0.08763 0.51976 0.0
O493 O 0.05297 0.1369 0.57891 0.0
O494 O 0.09607 0.15158 0.60865 0.0
O495 O 0.13564 0.12458 0.5638 0.0
C496 C 0.13417 0.97033 0.52604 0.0
C497 C 0.15428 0.97496 0.55425 0.0
C498 C 0.10835 0.92082 0.53718 0.0
C499 C 0.15046 0.95348 0.57449 0.0
C500 C 0.11228 0.94222 0.51681 0.0
C501 C 0.12648 0.92704 0.56693 0.0
C502 C 0.13163 0.99685 0.51037 0.0
C503 C 0.06922 0.08294 0.49135 0.0
H504 H 0.10769 0.16484 0.54808 0.0
H505 H 0.0655 0.26113 0.58304 0.0
H506 H 0.12154 0.20861 0.52167 0.0
H507 H 0.05266 0.21698 0.61098 0.0
H508 H 0.17153 0.99627 0.56207 0.0
H509 H 0.09007 0.90025 0.53052 0.0
H510 H 0.16477 0.95886 0.59727 0.0
H511 H 0.09665 0.93793 0.4951 0.0
Eu512 Eu 0.37614 0.84561 0.79667 0.0
Eu513 Eu 0.31815 0.80876 0.82022 0.0
C514 C 0.35691 0.86803 0.86961 0.0
C515 C 0.45382 0.86171 0.76495 0.0
C516 C 0.45886 0.8324 0.76907 0.0
C517 C 0.50692 0.87616 0.75476 0.0
C518 C 0.48849 0.8264 0.76953 0.0
C519 C 0.47733 0.88257 0.75533 0.0
C520 C 0.51336 0.84964 0.76549 0.0
C521 C 0.42668 0.87272 0.7771 0.0
O522 O 0.30108 0.85527 0.8105 0.0
O523 O 0.34452 0.88303 0.79573 0.0
C524 C 0.31547 0.88206 0.80282 0.0
O525 O 0.35078 0.81591 0.74993 0.0
O526 O 0.29438 0.78948 0.85789 0.0
O527 O 0.27021 0.78557 0.81061 0.0
O528 O 0.32459 0.77778 0.77217 0.0
C529 C 0.33716 0.78663 0.74726 0.0
O530 O 0.39315 0.79911 0.80645 0.0
O531 O 0.34926 0.77058 0.81933 0.0
O532 O 0.34334 0.83874 0.867 0.0
O533 O 0.40113 0.86253 0.75828 0.0
O534 O 0.42306 0.87141 0.80744 0.0
O535 O 0.36928 0.87681 0.84455 0.0
C536 C 0.24309 0.79587 0.85589 0.0
C537 C 0.24733 0.82847 0.86784 0.0
C538 C 0.18823 0.79184 0.85434 0.0
C539 C 0.22194 0.84293 0.87089 0.0
C540 C 0.21358 0.77744 0.85148 0.0
C541 C 0.19223 0.82493 0.86125 0.0
C542 C 0.26786 0.78251 0.84067 0.0
C543 C 0.3785 0.77184 0.81287 0.0
H544 H 0.44065 0.81564 0.77565 0.0
H545 H 0.52525 0.89378 0.74966 0.0
H546 H 0.49196 0.80533 0.77724 0.0
H547 H 0.47352 0.905 0.7512 0.0
H548 H 0.27014 0.84305 0.87156 0.0
H549 H 0.16579 0.77703 0.84684 0.0
H550 H 0.22576 0.86838 0.87706 0.0
H551 H 0.21003 0.75224 0.84234 0.0
Eu552 Eu 0.59918 0.07071 0.09837 0.0
Eu553 Eu 0.60121 0.10014 0.03313 0.0
C554 C 0.59497 0.14143 0.10153 0.0
C555 C 0.56885 0.05157 0.17411 0.0
C556 C 0.54595 0.06873 0.16972 0.0
C557 C 0.54287 0.03364 0.21806 0.0
C558 C 0.52182 0.06863 0.18961 0.0
C559 C 0.56715 0.0339 0.19823 0.0
C560 C 0.52006 0.05114 0.21403 0.0
C561 C 0.59364 0.05127 0.15251 0.0
O562 O 0.65029 0.09354 0.04255 0.0
O563 O 0.65028 0.0906 0.09637 0.0
C564 C 0.66525 0.09382 0.07052 0.0
O565 O 0.61202 1.0326 0.06137 0.0
O566 O 0.61851 0.13928 1.01061 0.0
O567 O 0.58548 0.09939 0.98303 0.0
O568 O 0.60241 0.04933 1.01404 0.0
C569 C 0.60927 1.02829 1.02959 0.0
O570 O 0.55032 0.05567 0.07438 0.0
O571 O 0.55016 0.09196 0.04262 0.0
O572 O 0.6113 0.14024 0.07662 0.0
O573 O 0.58609 1.03277 0.12385 0.0
O574 O 0.60922 0.07886 0.15094 0.0
O575 O 0.58124 0.11555 0.10914 0.0
C576 C 0.62449 0.12309 0.95537 0.0
C577 C 0.64531 0.10265 0.95302 0.0
C578 C 0.64272 0.14033 0.90748 0.0
C579 C 0.66466 0.10094 0.92794 0.0
C580 C 0.62332 0.14198 0.9326 0.0
C581 C 0.66353 0.11971 0.90485 0.0
C582 C 0.60463 0.12521 0.98207 0.0
C583 C 0.53518 0.07039 0.05673 0.0
H584 H 0.5467 0.08214 0.15082 0.0
H585 H 0.54223 1.02022 0.23693 0.0
H586 H 0.50441 0.08205 0.18573 0.0
H587 H 0.58454 1.02035 0.2017 0.0
H588 H 0.64664 0.08809 0.97066 0.0
H589 H 0.6411 0.15482 0.88984 0.0
H590 H 0.68071 0.08514 0.9268 0.0
H591 H 0.6074 0.15795 0.93422 0.0
Eu592 Eu 0.36366 0.36274 0.32098 0.0
Eu593 Eu 0.32861 0.29276 0.27875 0.0
C594 C 0.34275 0.35114 0.24289 0.0
C595 C 0.38761 0.44728 0.33548 0.0
C596 C 0.36434 0.44321 0.31045 0.0
C597 C 0.40338 0.50176 0.33185 0.0
C598 C 0.36064 0.46794 0.2961 0.0
C599 C 0.40733 0.47657 0.34611 0.0
C600 C 0.38005 0.49746 0.30655 0.0
C601 C 0.39141 0.4197 0.34811 0.0
O602 O 0.37579 0.30307 0.26303 0.0
O603 O 0.39832 0.3317 0.31215 0.0
C604 C 0.4004 0.31578 0.28284 0.0
O605 O 0.35277 0.33532 0.35973 0.0
O606 O 0.33025 0.24463 0.25576 0.0
O607 O 0.28691 0.26062 0.25451 0.0
O608 O 0.34395 0.28491 0.32849 0.0
C609 C 0.34763 0.30471 0.35711 0.0
O610 O 0.31327 0.36405 0.31642 0.0
O611 O 0.29628 0.31149 0.31233 0.0
O612 O 0.32455 0.32417 0.24311 0.0
O613 O 0.36671 0.40543 0.35846 0.0
O614 O 0.40445 0.40007 0.32883 0.0
O615 O 0.36093 0.36739 0.26856 0.0
C616 C 0.28757 0.21099 0.26627 0.0
C617 C 0.28214 0.21845 0.29925 0.0
C618 C 0.28901 0.15774 0.2708 0.0
C619 C 0.2822 0.19619 0.31837 0.0
C620 C 0.28902 0.18005 0.25169 0.0
C621 C 0.28784 0.16635 0.30472 0.0
C622 C 0.30039 0.23641 0.25055 0.0
C623 C 0.29213 0.3404 0.31992 0.0
H624 H 0.34885 0.42076 0.30197 0.0
H625 H 0.41843 0.52445 0.34048 0.0
H626 H 0.34191 0.46409 0.27736 0.0
H627 H 0.42558 0.4799 0.36524 0.0
H628 H 0.28117 0.24235 0.31101 0.0
H629 H 0.29352 0.13496 0.25956 0.0
H630 H 0.28088 0.20327 0.34435 0.0
H631 H 0.2935 0.17403 0.22638 0.0
Eu632 Eu 0.58854 0.60733 0.07309 0.0
Eu633 Eu 0.61019 0.54656 0.03605 0.0
C634 C 0.65223 0.61348 0.04029 0.0
C635 C 0.58329 0.68978 0.08271 0.0
C636 C 0.60747 0.69063 0.0626 0.0
C637 C 0.57407 0.73877 0.07037 0.0
C638 C 0.61527 0.71532 0.04694 0.0
C639 C 0.56661 0.71406 0.08667 0.0
C640 C 0.59849 0.73947 0.05031 0.0
C641 C 0.57422 0.66156 0.09603 0.0
O642 O 0.63487 0.55581 0.08867 0.0
O643 O 0.60644 0.58828 0.11707 0.0
C644 C 0.62749 0.57036 0.11722 0.0
O645 O 0.54765 0.56912 0.07367 0.0
O646 O 0.64727 0.52178 1.02216 0.0
O647 O 0.6001 0.49851 1.00706 0.0
O648 O 0.57155 0.52716 0.06342 0.0
C649 C 0.54762 0.53922 0.07194 0.0
O650 O 0.57821 0.6073 1.01779 0.0
O651 O 0.57642 0.55555 0.99608 0.0
O652 O 0.64154 0.58622 1.02069 0.0
O653 O 0.55547 0.63859 0.0764 0.0
O654 O 0.5968 0.65175 0.10907 0.0
O655 O 0.63834 0.62265 0.06606 0.0
C656 C 0.63177 0.4697 1.02907 0.0
C657 C 0.64773 0.47725 0.06022 0.0
C658 C 0.61001 0.41808 0.03821 0.0
C659 C 0.64384 0.45594 0.08062 0.0
C660 C 0.61392 0.43945 1.01774 0.0
C661 C 0.62391 0.42664 0.07033 0.0
C662 C 0.62832 0.49489 1.01182 0.0
C663 C 0.57001 0.58296 0.99269 0.0
H664 H 0.61971 0.67152 0.05803 0.0
H665 H 0.56064 0.75708 0.0731 0.0
H666 H 0.63363 0.71475 0.031 0.0
H667 H 0.54744 0.71348 0.10155 0.0
H668 H 0.66152 0.50044 0.06986 0.0
H669 H 0.59495 0.39541 1.02942 0.0
H670 H 0.65473 0.46339 0.10525 0.0
H671 H 0.6013 0.43315 0.99391 0.0
Eu672 Eu 0.87739 0.34622 0.29589 0.0
Eu673 Eu 0.82012 0.31013 0.32152 0.0
C674 C 0.86021 0.36944 0.36939 0.0
C675 C 0.95456 0.36118 0.26288 0.0
C676 C 0.95926 0.33184 0.26726 0.0
C677 C 1.008 0.37533 0.25377 0.0
C678 C 0.98883 0.32573 0.26851 0.0
C679 C 0.97845 0.38189 0.25362 0.0
C680 C 1.014 0.34887 0.26496 0.0
C681 C 0.92752 0.37255 0.27488 0.0
O682 O 0.8028 0.35621 0.31094 0.0
O683 O 0.84585 0.38377 0.29527 0.0
C684 C 0.81694 0.38286 0.30282 0.0
O685 O 0.8506 0.31624 0.25007 0.0
O686 O 0.79739 0.29345 0.36127 0.0
O687 O 0.77249 0.28589 0.31373 0.0
O688 O 0.82561 0.27841 0.27353 0.0
C689 C 0.83737 0.28693 0.24806 0.0
O690 O 0.89447 0.29974 0.30565 0.0
O691 O 0.85102 0.27172 0.32004 0.0
O692 O 0.84719 0.34008 0.36733 0.0
O693 O 0.90177 0.36184 0.25648 0.0
O694 O 0.9243 0.37221 0.30549 0.0
O695 O 0.87138 0.37805 0.34372 0.0
C696 C 0.74555 0.29786 0.35904 0.0
C697 C 0.7432 0.3286 0.35743 0.0
C698 C 0.69301 0.28794 0.3725 0.0
C699 C 0.71492 0.33769 0.35959 0.0
C700 C 0.72115 0.2784 0.3691 0.0
C701 C 0.68868 0.31611 0.36376 0.0
C702 C 0.77071 0.28471 0.34437 0.0
C703 C 0.88 0.27268 0.3127 0.0
H704 H 0.94076 0.31519 0.27353 0.0
H705 H 1.02657 0.39284 0.24892 0.0
H706 H 0.99194 0.30467 0.27646 0.0
H707 H 0.97495 0.40435 0.2493 0.0
H708 H 0.76229 0.34436 0.35085 0.0
H709 H 0.67387 0.27155 0.3781 0.0
H710 H 0.71335 0.36002 0.35365 0.0
H711 H 0.72298 0.2549 0.37153 0.0
Eu712 Eu 0.09906 0.57423 0.59608 0.0
Eu713 Eu 0.10063 0.60233 0.53027 0.0
C714 C 0.09617 0.64594 0.59898 0.0
C715 C 0.06853 0.55261 0.67122 0.0
C716 C 0.04731 0.57223 0.66955 0.0
C717 C 0.04228 0.53315 0.71426 0.0
C718 C 1.02375 0.5724 0.69018 0.0
C719 C 0.06588 0.533 0.69356 0.0
C720 C 1.021 0.5529 0.7128 0.0
C721 C 0.09235 0.55159 0.64847 0.0
O722 O 0.15089 0.61233 0.55129 0.0
O723 O 0.1495 0.57829 0.5861 0.0
C724 C 0.16515 0.59737 0.56971 0.0
O725 O 0.09212 0.5331 0.55353 0.0
O726 O 0.11441 0.64163 0.50677 0.0
O727 O 0.08822 0.59727 0.47854 0.0
O728 O 0.11808 0.55758 0.51754 0.0
C729 C 0.10718 0.53209 0.5276 0.0
O730 O 0.05008 0.58049 0.58499 0.0
O731 O 0.05056 0.57779 0.53025 0.0
O732 O 0.08514 0.63788 0.56843 0.0
O733 O 0.08295 0.5352 0.61925 0.0
O734 O 0.10986 0.57851 0.64811 0.0
O735 O 0.10904 0.62686 0.6126 0.0
C736 C 0.12598 0.62547 0.45302 0.0
C737 C 0.14988 0.60877 0.45343 0.0
C738 C 0.14343 0.64203 0.4045 0.0
C739 C 0.17022 0.60836 0.42924 0.0
C740 C 0.12299 0.6423 0.42865 0.0
C741 C 0.16704 0.62477 0.40435 0.0
C742 C 0.10402 0.62499 0.47776 0.0
C743 C 0.03517 0.57609 0.55605 0.0
H744 H 0.04887 0.58729 0.65214 0.0
H745 H 0.04097 0.51816 0.73173 0.0
H746 H 1.00753 0.58759 0.68823 0.0
H747 H 0.08199 0.51758 0.69495 0.0
H748 H 0.15261 0.59583 0.4723 0.0
H749 H 0.14025 0.65463 0.38546 0.0
H750 H 0.18841 0.59518 0.42997 0.0
H751 H 0.10466 0.65533 0.42809 0.0
Eu752 Eu 0.81259 0.8343 0.30082 0.0
Eu753 Eu 0.88029 0.81733 0.29993 0.0
C754 C 0.81894 0.7603 0.3047 0.0
C755 C 0.73059 0.83962 0.3202 0.0
C756 C 0.73337 0.83401 0.35176 0.0
C757 C 0.6752 0.83004 0.32095 0.0
C758 C 0.7072 0.82705 0.36806 0.0
C759 C 0.70136 0.8372 0.3048 0.0
C760 C 0.67779 0.82536 0.35298 0.0
C761 C 0.75778 0.84776 0.30289 0.0
O762 O 0.86796 0.81702 0.24735 0.0
O763 O 0.81681 0.81848 0.24708 0.0
C764 C 0.84124 0.815 0.23167 0.0
O765 O 0.84381 0.8827 0.29802 0.0
O766 O 0.90894 0.78416 0.28054 0.0
O767 O 0.92928 0.82693 0.31543 0.0
O768 O 0.89189 0.871 0.29957 0.0
C769 C 0.87415 0.89203 0.29855 0.0
O770 O 0.82565 0.83652 0.35382 0.0
O771 O 0.87562 0.82975 0.3537 0.0
O772 O 0.84897 0.76904 0.3026 0.0
O773 O 0.78208 0.86539 0.32039 0.0
O774 O 0.76451 0.82489 0.28151 0.0
O775 O 0.80131 0.78164 0.30518 0.0
C776 C 0.95829 0.80888 0.27285 0.0
C777 C 0.95873 0.83303 0.25568 0.0
C778 C 1.0012 0.79351 0.24491 0.0
C779 C 0.9804 0.83746 0.23329 0.0
C780 C 0.97969 0.78926 0.26743 0.0
C781 C 1.00165 0.81752 0.22745 0.0
C782 C 0.93432 0.80264 0.29465 0.0
C783 C 0.85174 0.83548 0.36919 0.0
H784 H 0.75577 0.83544 0.36397 0.0
H785 H 0.65292 0.82834 0.30837 0.0
H786 H 0.71008 0.82389 0.39277 0.0
H787 H 0.69877 0.84105 0.2803 0.0
H788 H 0.94203 0.84815 0.25927 0.0
H789 H 1.0176 0.77808 0.24125 0.0
H790 H 0.98011 0.85599 0.22004 0.0
H791 H 0.97951 0.77039 0.28032 0.0
Eu792 Eu 0.85364 0.35841 0.81286 0.0
Eu793 Eu 0.80015 0.31958 0.84896 0.0
C794 C 0.78177 0.35235 0.79154 0.0
C795 C 0.88743 0.40498 0.7547 0.0
C796 C 0.86257 0.38935 0.7319 0.0
C797 C 0.89883 0.44505 0.72297 0.0
C798 C 0.85579 0.4015 0.70491 0.0
C799 C 0.90561 0.43282 0.75004 0.0
C800 C 0.87367 0.42962 0.70024 0.0
C801 C 0.89221 0.39377 0.78472 0.0
O802 O 0.82007 0.28513 0.81364 0.0
O803 O 0.83191 0.31499 0.77584 0.0
C804 C 0.82526 0.28769 0.78385 0.0
O805 O 0.87822 0.32735 0.83631 0.0
O806 O 0.76273 0.28003 0.84861 0.0
O807 O 0.77747 0.31555 0.89298 0.0
O808 O 0.84522 0.31934 0.87555 0.0
C809 C 0.87172 0.31814 0.86339 0.0
O810 O 0.85441 0.38019 0.86595 0.0
O811 O 0.80303 0.37146 0.86616 0.0
O812 O 0.77431 0.32898 0.80628 0.0
O813 O 0.87684 0.40498 0.80842 0.0
O814 O 0.89068 0.36349 0.78114 0.0
O815 O 0.80925 0.37031 0.79612 0.0
C816 C 0.76807 0.26328 0.898 0.0
C817 C 0.78741 0.24257 0.88606 0.0
C818 C 0.77139 0.24801 0.94994 0.0
C819 C 0.79927 0.22533 0.90623 0.0
C820 C 0.7593 0.26504 0.92968 0.0
C821 C 0.79234 0.22891 0.93872 0.0
C822 C 0.7622 0.28722 0.8802 0.0
C823 C 0.82985 0.38911 0.87711 0.0
H824 H 0.84792 0.3681 0.7354 0.0
H825 H 0.91321 0.46659 0.71985 0.0
H826 H 0.83598 0.38932 0.6882 0.0
H827 H 0.92467 0.44535 0.76762 0.0
H828 H 0.79493 0.24113 0.86183 0.0
H829 H 0.76538 0.25078 0.97483 0.0
H830 H 0.81545 0.21087 0.89705 0.0
H831 H 0.74466 0.28108 0.9394 0.0
Eu832 Eu 0.86728 0.85959 0.82013 0.0
Eu833 Eu 0.83243 0.78963 0.77774 0.0
C834 C 0.84651 0.84805 0.74206 0.0
C835 C 0.88982 0.94399 0.8342 0.0
C836 C 0.8663 0.93917 0.80928 0.0
C837 C 0.9038 0.99859 0.83038 0.0
C838 C 0.86155 0.96357 0.79491 0.0
C839 C 0.90881 0.97372 0.84467 0.0
C840 C 0.88015 0.99355 0.80524 0.0
C841 C 0.89452 0.91675 0.84698 0.0
O842 O 0.88014 0.7995 0.76306 0.0
O843 O 0.90194 0.82855 0.81237 0.0
C844 C 0.90443 0.81226 0.78335 0.0
O845 O 0.8564 0.83232 0.85902 0.0
O846 O 0.83405 0.74141 0.75499 0.0
O847 O 0.79088 0.75763 0.7529 0.0
O848 O 0.84674 0.78183 0.82781 0.0
C849 C 0.85076 0.8017 0.85641 0.0
O850 O 0.8169 0.86074 0.8152 0.0
O851 O 0.79992 0.80821 0.81125 0.0
O852 O 0.82813 0.82121 0.74234 0.0
O853 O 0.87023 0.90216 0.85775 0.0
O854 O 0.90769 0.89735 0.82757 0.0
O855 O 0.86503 0.86397 0.7676 0.0
C856 C 0.79088 0.70798 0.76491 0.0
C857 C 0.78448 0.71558 0.79758 0.0
C858 C 0.79217 0.6549 0.7702 0.0
C859 C 0.78397 0.69349 0.81698 0.0
C860 C 0.79273 0.67704 0.75081 0.0
C861 C 0.79005 0.66369 0.80394 0.0
C862 C 0.80421 0.73332 0.74931 0.0
C863 C 0.79577 0.83713 0.81876 0.0
H864 H 0.85136 0.91637 0.80094 0.0
H865 H 0.91825 1.02163 0.83892 0.0
H866 H 0.84259 0.95911 0.77631 0.0
H867 H 0.92725 0.97765 0.86372 0.0
H868 H 0.78318 0.73948 0.809 0.0
H869 H 0.79704 0.63214 0.75944 0.0
H870 H 0.78193 0.70071 0.84281 0.0
H871 H 0.79794 0.6709 0.72575 0.0
Eu872 Eu 0.61681 0.61183 0.57045 0.0
Eu873 Eu 0.58265 0.54174 0.54239 0.0
C874 C 0.6267 0.57666 0.49294 0.0
C875 C 0.62537 0.69589 0.60914 0.0
C876 C 0.59582 0.6877 0.61897 0.0
C877 C 0.61639 0.74776 0.60789 0.0
C878 C 0.57578 0.70865 0.62053 0.0
C879 C 0.63635 0.72671 0.60609 0.0
C880 C 0.58523 0.73778 0.61213 0.0
C881 C 0.64029 0.67089 0.59312 0.0
O882 O 0.63368 0.53794 0.54927 0.0
O883 O 0.65709 0.58767 0.57535 0.0
C884 C 0.6589 0.55871 0.56179 0.0
O885 O 0.59411 0.6004 0.61666 0.0
O886 O 0.55557 0.50491 0.50386 0.0
O887 O 0.5716 0.49364 0.54889 0.0
O888 O 0.56425 0.55236 0.59449 0.0
C889 C 0.57188 0.57692 0.61964 0.0
O890 O 0.56613 0.61634 0.56243 0.0
O891 O 0.54189 0.56577 0.54014 0.0
O892 O 0.60356 0.554 0.4957 0.0
O893 O 0.64315 0.64906 0.60914 0.0
O894 O 0.62963 0.65931 0.56274 0.0
O895 O 0.63549 0.60055 0.51856 0.0
C896 C 0.57607 0.45921 0.50082 0.0
C897 C 0.60459 0.46954 0.48964 0.0
C898 C 0.58903 0.40836 0.49936 0.0
C899 C 0.62621 0.45022 0.48616 0.0
C900 C 0.56751 0.42783 0.50322 0.0
C901 C 0.61937 0.42052 0.49387 0.0
C902 C 0.56027 0.48268 0.51861 0.0
C903 C 0.54059 0.59529 0.55195 0.0
H904 H 0.58699 0.66391 0.6215 0.0
H905 H 0.62432 0.77012 0.60133 0.0
H906 H 0.55196 0.70062 0.62419 0.0
H907 H 0.65908 0.73332 0.59846 0.0
H908 H 0.6116 0.49374 0.48757 0.0
H909 H 0.58321 0.38551 0.50549 0.0
H910 H 0.6494 0.45996 0.48177 0.0
H911 H 0.54563 0.41954 0.51187 0.0
Eu912 Eu 0.13632 0.57442 1.00766 0.0
Eu913 Eu 0.08481 0.58453 0.06036 0.0
C914 C 0.14758 0.56665 0.0824 0.0
C915 C 0.20418 0.54625 0.97535 0.0
C916 C 0.23498 0.56182 0.9822 0.0
C917 C 0.21847 0.49956 0.98886 0.0
C918 C 0.25716 0.54673 0.99323 0.0
C919 C 0.19629 0.51468 0.97804 0.0
C920 C 0.24898 0.51567 0.99749 0.0
C921 C 0.18008 0.56437 0.9708 0.0
O922 O 0.12464 0.62536 0.07266 0.0
O923 O 0.13562 0.62595 1.02057 0.0
C924 C 0.13653 0.64033 0.05106 0.0
O925 O 0.0915 0.57084 0.97842 0.0
O926 O 0.06837 0.61382 0.10133 0.0
O927 O 0.03958 0.56983 0.07656 0.0
O928 O 0.07185 0.60364 1.01724 0.0
C929 C 0.07124 0.58839 0.98709 0.0
O930 O 0.11911 0.52772 1.01945 0.0
O931 O 0.07093 0.53551 1.02975 0.0
O932 O 0.11807 0.56318 0.08631 0.0
O933 O 0.1519 0.54848 0.96386 0.0
O934 O 0.18182 0.59013 0.99288 0.0
O935 O 0.15916 0.57601 0.05707 0.0
C936 C 1.01584 0.61303 0.09096 0.0
C937 C 1.0184 0.63212 0.06804 0.0
C938 C 0.9644 0.62256 0.09887 0.0
C939 C 0.99413 0.64602 0.06027 0.0
C940 C 0.98874 0.60834 0.10641 0.0
C941 C 0.96679 0.64148 0.07557 0.0
C942 C 0.04079 0.5966 0.09675 0.0
C943 C 0.09012 0.51667 1.02161 0.0
H944 H 0.24161 0.58623 0.98064 0.0
H945 H 0.21153 0.4754 0.99115 0.0
H946 H 0.28041 0.5599 0.99982 0.0
H947 H 0.17275 0.50195 0.97313 0.0
H948 H 0.03911 0.63599 0.05579 0.0
H949 H 0.94381 0.61886 0.11139 0.0
H950 H 0.99666 0.65989 0.04179 0.0
H951 H 0.98631 0.59352 0.12404 0.0
C952 C 1.02821 0.24899 0.05024 0.0
C953 C 0.03639 0.28147 0.05262 0.0
H954 H 0.03669 0.20983 0.06886 0.0
C955 C 0.05398 0.30047 0.08063 0.0
H956 H 1.01424 0.23393 1.02915 0.0
C957 C 0.06699 0.28667 0.1035 0.0
C958 C 0.06218 0.25381 0.09873 0.0
H959 H 0.06023 0.32572 0.08328 0.0
H960 H 0.08318 0.30145 0.12302 0.0
C961 C 0.04082 0.23525 0.07331 0.0
C962 C 0.24738 0.86964 0.21566 0.0
C963 C 0.21698 0.85317 0.21337 0.0
H964 H 0.29098 0.88359 0.24386 0.0
C965 C 0.20626 0.84072 0.23977 0.0
H966 H 0.25612 0.87964 0.19572 0.0
C967 C 0.22609 0.84278 0.26706 0.0
C968 C 0.25693 0.85765 0.26867 0.0
H969 H 0.18282 0.82816 0.23883 0.0
H970 H 0.21751 0.83169 0.28639 0.0
C971 C 0.26722 0.87205 0.24328 0.0
C972 C 0.53314 0.93638 0.50518 0.0
C973 C 0.55477 0.91681 0.50359 0.0
H974 H 0.52578 0.9837 0.51381 0.0
C975 C 0.58608 0.9302 0.5108 0.0
H976 H 0.50884 0.92653 0.49978 0.0
C977 C 0.59575 0.96268 0.51849 0.0
C978 C 0.57425 0.98236 0.51942 0.0
H979 H 0.60324 0.91562 0.50981 0.0
H980 H 0.62012 0.97233 0.52344 0.0
C981 C 0.54281 0.969 0.51324 0.0
C982 C 0.55342 0.30159 0.65894 0.0
C983 C 0.5735 0.33075 0.66259 0.0
H984 H 0.51489 0.27504 0.67608 0.0
C985 C 0.56787 0.35681 0.68498 0.0
H986 H 0.55706 0.2811 0.64175 0.0
C987 C 0.5437 0.35326 0.7048 0.0
C988 C 0.52491 0.32358 0.7026 0.0
H989 H 0.58303 0.37954 0.68836 0.0
H990 H 0.54073 0.37336 0.72297 0.0
C991 C 0.52942 0.29804 0.67877 0.0
C992 C 0.07942 0.88606 0.62367 0.0
C993 C 0.10204 0.877 0.64207 0.0
H994 H 0.06952 0.90882 0.58533 0.0
C995 C 0.13278 0.88365 0.63502 0.0
H996 H 0.05553 0.88113 0.62849 0.0
C997 C 0.14078 0.89935 0.61013 0.0
C998 C 0.11813 0.90838 0.5917 0.0
H999 H 0.15066 0.87674 0.64873 0.0
H1000 H 0.16465 0.90439 0.60525 0.0
C1001 C 0.08738 0.90153 0.59869 0.0
C1002 C 0.58349 0.88059 0.82412 0.0
C1003 C 0.5891 0.85269 0.83181 0.0
H1004 H 0.55542 0.90173 0.79687 0.0
C1005 C 0.5751 0.82376 0.81164 0.0
H1006 H 0.59453 0.9033 0.83885 0.0
C1007 C 0.55313 0.82274 0.78632 0.0
C1008 C 0.5442 0.85057 0.78159 0.0
H1009 H 0.57985 0.80191 0.81648 0.0
H1010 H 0.54148 0.8 0.77224 0.0
C1011 C 0.5612 0.8796 0.79941 0.0
C1012 C 0.60795 0.2288 0.13621 0.0
C1013 C 0.58339 0.23075 0.15566 0.0
H1014 H 0.63069 0.19884 0.10346 0.0
C1015 C 0.56288 0.20317 0.15752 0.0
H1016 H 0.62405 0.24978 0.13438 0.0
C1017 C 0.56693 0.17402 0.14028 0.0
C1018 C 0.59124 0.17208 0.12044 0.0
H1019 H 0.54382 0.20407 0.17248 0.0
H1020 H 0.55076 0.1531 0.14213 0.0
C1021 C 0.61169 0.1997 0.1185 0.0
C1022 C 0.24011 0.37724 0.37768 0.0
C1023 C 0.21654 0.35109 0.37685 0.0
H1024 H 0.28268 0.39463 0.3596 0.0
C1025 C 0.21703 0.32254 0.35548 0.0
H1026 H 0.23998 0.39966 0.39369 0.0
C1027 C 0.24089 0.31986 0.33577 0.0
C1028 C 0.26496 0.34562 0.33708 0.0
H1029 H 0.19894 0.30213 0.35392 0.0
H1030 H 0.24074 0.29726 0.31992 0.0
C1031 C 0.26423 0.37452 0.35787 0.0
C1032 C 0.04779 0.10635 0.20861 0.0
C1033 C 1.0193 0.08637 0.21073 0.0
H1034 H 0.08541 0.12001 0.1802 0.0
C1035 C 1.00867 0.06299 0.18179 0.0
H1036 H 0.05757 0.12481 0.22947 0.0
C1037 C 1.02532 0.05974 0.15308 0.0
C1038 C 0.0537 0.07991 0.15088 0.0
H1039 H 0.98719 0.04674 0.18124 0.0
H1040 H 1.01547 0.04136 0.13217 0.0
C1041 C 0.06415 0.10346 0.17974 0.0
C1042 C 0.34442 0.72249 0.51067 0.0
C1043 C 0.3464 0.69058 0.50379 0.0
H1044 H 0.32669 0.75922 0.49479 0.0
C1045 C 0.33368 0.67153 0.47351 0.0
H1046 H 0.35403 0.73776 0.53376 0.0
C1047 C 0.31787 0.68385 0.45121 0.0
C1048 C 0.31433 0.71528 0.45905 0.0
H1049 H 0.33477 0.64681 0.46763 0.0
H1050 H 0.30738 0.66854 0.42845 0.0
C1051 C 0.32844 0.73467 0.48856 0.0
C1052 C 0.71627 0.06509 0.63143 0.0
C1053 C 0.70703 0.06488 0.66272 0.0
H1054 H 0.70277 0.06549 0.58225 0.0
C1055 C 0.67558 0.0606 0.66735 0.0
H1056 H 0.74033 0.06807 0.62712 0.0
C1057 C 0.65397 0.05942 0.64168 0.0
C1058 C 0.66354 0.06245 0.61104 0.0
H1059 H 0.66782 0.06019 0.69125 0.0
H1060 H 0.63009 0.05791 0.64637 0.0
C1061 C 0.69471 0.06383 0.6058 0.0
C1062 C 0.33574 0.35405 0.95807 0.0
C1063 C 0.36513 0.3624 0.97499 0.0
H1064 H 0.30918 0.33889 0.91189 0.0
C1065 C 0.39072 0.35895 0.95731 0.0
H1066 H 0.31552 0.35646 0.9709 0.0
C1067 C 0.3871 0.34886 0.92331 0.0
C1068 C 0.35781 0.34212 0.90619 0.0
H1069 H 0.41368 0.36526 0.96958 0.0
H1070 H 0.40742 0.34751 0.9104 0.0
C1071 C 0.33212 0.3441 0.92412 0.0
C1072 C 0.04485 0.07663 0.39788 0.0
C1073 C 1.02066 0.09366 0.39746 0.0
H1074 H 0.07794 0.05935 0.42563 0.0
C1075 C 1.01303 0.10722 0.42886 0.0
H1076 H 0.05193 0.06542 0.37495 0.0
C1077 C 1.02872 0.10429 0.45852 0.0
C1078 C 0.0526 0.08682 0.45892 0.0
H1079 H 0.99479 0.12051 0.43066 0.0
H1080 H 1.02164 0.11551 0.48143 0.0
C1081 C 0.05999 0.073 0.4275 0.0
C1082 C 0.35949 0.74888 0.66449 0.0
C1083 C 0.35362 0.71669 0.66521 0.0
H1084 H 0.35865 0.79601 0.68931 0.0
C1085 C 0.34079 0.70762 0.69249 0.0
H1086 H 0.36917 0.75674 0.64378 0.0
C1087 C 0.33425 0.73018 0.71846 0.0
C1088 C 0.34053 0.76246 0.71794 0.0
H1089 H 0.33571 0.68305 0.69377 0.0
H1090 H 0.32493 0.72232 0.73933 0.0
C1091 C 0.3532 0.77144 0.69053 0.0
C1092 C 0.70585 0.08527 0.8349 0.0
C1093 C 0.7202 0.11234 0.82496 0.0
H1094 H 0.67639 0.06639 0.86768 0.0
C1095 C 0.7165 0.14198 0.84196 0.0
H1096 H 0.70827 0.06211 0.82222 0.0
C1097 C 0.69833 0.14445 0.86811 0.0
C1098 C 0.68357 0.11732 0.87776 0.0
H1099 H 0.72745 0.16327 0.83492 0.0
H1100 H 0.69592 0.16759 0.88084 0.0
C1101 C 0.68772 0.08773 0.86103 0.0
C1102 C 0.36314 0.40537 0.18455 0.0
C1103 C 0.3573 0.38444 0.15402 0.0
H1104 H 0.36303 0.41136 0.23627 0.0
C1105 C 0.34471 0.35262 0.15279 0.0
H1106 H 0.37269 0.43005 0.18643 0.0
C1107 C 0.33856 0.34195 0.1815 0.0
C1108 C 0.34533 0.36277 0.21211 0.0
H1109 H 0.33976 0.33593 0.12965 0.0
H1110 H 0.3295 0.3172 0.17978 0.0
C1111 C 0.35749 0.39465 0.21318 0.0
C1112 C 0.22216 1.01232 0.03622 0.0
C1113 C 0.24969 0.03469 0.04664 0.0
H1114 H 0.17269 1.00217 0.03239 0.0
C1115 C 0.24668 0.06499 0.06301 0.0
H1116 H 0.22308 0.98868 1.02362 0.0
C1117 C 0.21743 0.07256 0.06862 0.0
C1118 C 0.18986 0.05018 0.05806 0.0
H1119 H 0.26703 0.08297 0.07168 0.0
H1120 H 0.21648 0.09625 0.08101 0.0
C1121 C 0.19298 1.01996 0.04161 0.0
C1122 C 0.72916 0.64241 1.00966 0.0
C1123 C 0.73627 0.67395 1.02681 0.0
H1124 H 0.69666 0.59855 0.99987 0.0
C1125 C 0.71509 0.68553 0.04718 0.0
H1126 H 0.74514 0.63283 0.99382 0.0
C1127 C 0.68791 0.66586 0.05125 0.0
C1128 C 0.6807 0.63423 0.03438 0.0
H1129 H 0.71997 0.70962 0.06094 0.0
H1130 H 0.67276 0.6755 0.06808 0.0
C1131 C 0.70143 0.62281 1.01311 0.0
C1132 C 0.80359 0.4711 0.30184 0.0
C1133 C 0.77159 0.47112 0.30442 0.0
H1134 H 0.84187 0.44632 0.29883 0.0
C1135 C 0.75488 0.44062 0.30633 0.0
H1136 H 0.81849 0.49289 0.30027 0.0
C1137 C 0.76881 0.41307 0.30598 0.0
C1138 C 0.80081 0.41302 0.30301 0.0
H1139 H 0.73043 0.43787 0.30846 0.0
H1140 H 0.754 0.39135 0.30793 0.0
C1141 C 0.81741 0.44347 0.30092 0.0
C1142 C 0.95151 0.55751 0.57719 0.0
C1143 C 0.93412 0.55282 0.54703 0.0
H1144 H 0.99601 0.56838 0.60373 0.0
C1145 C 0.95042 0.55688 0.51982 0.0
H1146 H 0.94009 0.55447 0.59877 0.0
C1147 C 0.98294 0.56472 0.52263 0.0
C1148 C 1.00032 0.56886 0.55278 0.0
H1149 H 0.93807 0.55323 0.49611 0.0
H1150 H 0.99448 0.56714 0.50099 0.0
C1151 C 0.98386 0.56544 0.58003 0.0
C1152 C 0.31136 0.09696 0.33 0.0
C1153 C 0.33737 0.11207 0.35157 0.0
H1154 H 0.27426 0.10254 0.29871 0.0
C1155 C 0.34252 0.14471 0.36295 0.0
H1156 H 0.3065 0.07166 0.32131 0.0
C1157 C 0.32395 0.1623 0.35006 0.0
C1158 C 0.29999 0.14748 0.32568 0.0
H1159 H 0.36223 0.15687 0.3798 0.0
H1160 H 0.33028 0.18764 0.35695 0.0
C1161 C 0.2928 0.11455 0.31713 0.0
C1162 C 0.42015 0.20418 0.55459 0.0
C1163 C 0.38945 0.1884 0.55177 0.0
H1164 H 0.46717 0.20318 0.56633 0.0
C1165 C 0.38283 0.15818 0.55843 0.0
H1166 H 0.42595 0.22766 0.54998 0.0
C1167 C 0.40655 0.14391 0.56749 0.0
C1168 C 0.43735 0.15969 0.57026 0.0
H1169 H 0.35933 0.14549 0.5565 0.0
H1170 H 0.40077 0.12034 0.5718 0.0
C1171 C 0.4438 0.19008 0.56388 0.0
C1172 C 0.75876 0.68371 0.31046 0.0
C1173 C 0.77583 0.65928 0.30914 0.0
H1174 H 0.75761 0.73244 0.31024 0.0
C1175 C 0.80776 0.6691 0.30648 0.0
H1176 H 0.73428 0.67828 0.31241 0.0
C1177 C 0.8215 0.70098 0.30521 0.0
C1178 C 0.80431 0.72539 0.30645 0.0
H1179 H 0.82242 0.65197 0.30524 0.0
H1180 H 0.84594 0.70645 0.30311 0.0
C1181 C 0.77243 0.71546 0.30916 0.0
C1182 C 0.86994 0.47021 0.91435 0.0
C1183 C 0.85541 0.48614 0.89458 0.0
H1184 H 0.87241 0.42516 0.92431 0.0
C1185 C 0.82719 0.47151 0.8769 0.0
H1186 H 0.89184 0.48123 0.928 0.0
C1187 C 0.8156 0.43984 0.87557 0.0
C1188 C 0.83282 0.42257 0.89107 0.0
H1189 H 0.81573 0.48368 0.86157 0.0
H1190 H 0.7956 0.42811 0.85892 0.0
C1191 C 0.85883 0.43826 0.91227 0.0
C1192 C 0.17258 0.91239 0.05999 0.0
C1193 C 0.16861 0.87963 0.05429 0.0
H1194 H 0.16032 0.95137 0.04385 0.0
C1195 C 0.15575 0.86139 1.02367 0.0
H1196 H 0.18262 0.92688 0.08333 0.0
C1197 C 0.14251 0.87538 1.0011 0.0
C1198 C 0.14287 0.90775 1.00871 0.0
H1199 H 0.15256 0.83598 1.01869 0.0
H1200 H 0.12926 0.86058 0.97942 0.0
C1201 C 0.16008 0.92642 0.03713 0.0
C1202 C 0.92009 0.30713 0.93454 0.0
C1203 C 0.94611 0.29976 0.91965 0.0
H1204 H 0.87574 0.3183 0.92815 0.0
C1205 C 0.94585 0.29451 0.88563 0.0
H1206 H 0.91976 0.3112 0.96074 0.0
C1207 C 0.921 0.29926 0.86704 0.0
C1208 C 0.89584 0.30873 0.88216 0.0
H1209 H 0.96569 0.28885 0.87357 0.0
H1210 H 0.92198 0.29664 0.841 0.0
C1211 C 0.89498 0.31128 0.91588 0.0
C1212 C 0.66543 0.21921 0.60553 0.0
C1213 C 0.65888 0.23926 0.58544 0.0
H1214 H 0.66117 0.17158 0.6107 0.0
C1215 C 0.64657 0.22656 0.55313 0.0
H1216 H 0.67487 0.22854 0.63055 0.0
C1217 C 0.63932 0.19406 0.54159 0.0
C1218 C 0.64361 0.17404 0.56254 0.0
H1219 H 0.64147 0.24172 0.53721 0.0
H1220 H 0.62862 0.18464 0.51703 0.0
C1221 C 0.65746 0.18675 0.59427 0.0
C1222 C 0.60155 0.83472 0.38589 0.0
C1223 C 0.59873 0.81464 0.40792 0.0
H1224 H 0.62874 0.85428 0.35197 0.0
C1225 C 0.62146 0.79689 0.41087 0.0
H1226 H 0.58451 0.84888 0.38317 0.0
C1227 C 0.64691 0.79979 0.3926 0.0
C1228 C 0.65006 0.82051 0.3711 0.0
H1229 H 0.61989 0.78125 0.42769 0.0
H1230 H 0.66417 0.78593 0.39543 0.0
C1231 C 0.62689 0.83769 0.3678 0.0
C1232 C 0.08627 0.29272 0.49411 0.0
C1233 C 0.11705 0.30352 0.48914 0.0
H1234 H 0.05515 0.26404 0.51843 0.0
C1235 C 0.14049 0.29524 0.50714 0.0
H1236 H 0.06775 0.29902 0.48075 0.0
C1237 C 0.13324 0.27523 0.52852 0.0
C1238 C 0.10246 0.26358 0.53264 0.0
H1239 H 0.16439 0.30337 0.50393 0.0
H1240 H 0.15166 0.26809 0.54117 0.0
C1241 C 0.07903 0.27306 0.51589 0.0
C1242 C 0.61704 0.2918 0.30715 0.0
C1243 C 0.61524 0.32044 0.29866 0.0
H1244 H 0.64116 0.2677 0.33488 0.0
C1245 C 0.63146 0.34851 0.31869 0.0
H1246 H 0.60402 0.26978 0.29272 0.0
C1247 C 0.65234 0.34754 0.34424 0.0
C1248 C 0.65813 0.31845 0.34913 0.0
H1249 H 0.62954 0.37105 0.31336 0.0
H1250 H 0.66586 0.36953 0.35807 0.0
C1251 C 0.63828 0.29074 0.33202 0.0
C1252 C 0.63856 0.97089 0.96601 0.0
C1253 C 0.62715 0.94241 0.97493 0.0
H1254 H 0.64091 1.02074 0.97615 0.0
C1255 C 0.60981 0.94227 1.0018 0.0
H1256 H 0.65183 0.97137 0.94518 0.0
C1257 C 0.60425 0.97041 1.01987 0.0
C1258 C 0.6151 0.99881 1.01058 0.0
H1259 H 0.60085 0.92047 1.00901 0.0
H1260 H 0.59106 0.96993 0.04076 0.0
C1261 C 0.63214 0.99893 0.98346 0.0
C1262 C 0.96623 0.79327 0.7294 0.0
C1263 C 0.99027 0.81887 0.74197 0.0
H1264 H 0.92005 0.77097 0.73305 0.0
C1265 C 0.98657 0.84125 0.7695 0.0
H1266 H 0.96868 0.77556 0.70834 0.0
C1267 C 0.95907 0.83821 0.78412 0.0
C1268 C 0.93474 0.81303 0.77104 0.0
H1269 H 1.00499 0.86097 0.7799 0.0
H1270 H 0.95655 0.85612 0.80496 0.0
C1271 C 0.93857 0.79052 0.74366 0.0
C1272 C 0.18825 0.09076 0.92854 0.0
C1273 C 0.17674 0.06801 0.89938 0.0
H1274 H 0.18263 0.11195 0.97865 0.0
C1275 C 0.14788 0.04872 0.90166 0.0
H1276 H 0.21006 0.10646 0.92899 0.0
C1277 C 0.13199 0.05169 0.93086 0.0
C1278 C 0.14334 0.07461 0.95996 0.0
H1279 H 0.13744 1.03074 0.88066 0.0
H1280 H 0.11038 0.03568 0.93048 0.0
C1281 C 0.1721 0.09408 0.9576 0.0
C1282 C 0.85863 0.48793 0.64947 0.0
C1283 C 0.84981 0.46826 0.61855 0.0
H1284 H 0.87303 0.49116 0.69952 0.0
C1285 C 0.84868 0.43582 0.6147 0.0
H1286 H 0.85981 0.51306 0.65316 0.0
C1287 C 0.85645 0.42331 0.64118 0.0
C1288 C 0.86561 0.44299 0.67207 0.0
H1289 H 0.84217 0.42011 0.59111 0.0
H1290 H 0.85579 0.39825 0.63732 0.0
C1291 C 0.8665 0.47544 0.67595 0.0
C1292 C 0.50696 0.06003 0.41656 0.0
C1293 C 0.48527 0.079 0.42514 0.0
H1294 H 0.54966 0.0482 0.42974 0.0
C1295 C 0.49155 0.10273 0.45357 0.0
H1296 H 0.50289 0.04174 0.39457 0.0
C1297 C 0.51846 0.10642 0.47384 0.0
C1298 C 0.53963 0.0866 0.46584 0.0
H1299 H 0.47529 0.11779 0.46065 0.0
H1300 H 0.52226 0.12428 0.49614 0.0
C1301 C 0.53391 0.06388 0.4366 0.0
C1302 C 0.86161 0.79224 0.1445 0.0
C1303 C 0.83273 0.7851 0.1266 0.0
H1304 H 0.88702 0.80736 0.19131 0.0
C1305 C 0.80688 0.79019 0.14328 0.0
H1306 H 0.88202 0.78859 0.13247 0.0
C1307 C 0.80971 0.80095 0.17723 0.0
C1308 C 0.83846 0.80682 0.19533 0.0
H1309 H 0.78428 0.78485 0.13025 0.0
H1310 H 0.78918 0.80371 0.18936 0.0
C1311 C 0.86445 0.80295 0.17836 0.0
C1312 C 0.18511 0.04903 0.6801 0.0
C1313 C 0.17478 0.05915 0.7112 0.0
H1314 H 0.17909 0.04356 0.62761 0.0
C1315 C 0.14815 0.07267 0.71023 0.0
H1316 H 0.20529 0.03854 0.67868 0.0
C1317 C 0.13318 0.07621 0.68044 0.0
C1318 C 0.1434 0.06596 0.6493 0.0
H1319 H 0.13889 0.08113 0.73288 0.0
H1320 H 0.11322 0.08705 0.68195 0.0
C1321 C 0.16979 0.052 0.65024 0.0
C1322 C 0.84266 0.40755 0.45438 0.0
C1323 C 0.84774 0.4397 0.45349 0.0
H1324 H 0.84274 0.36036 0.42901 0.0
C1325 C 0.85841 0.44861 0.4252 0.0
H1326 H 0.83458 0.39978 0.47578 0.0
C1327 C 0.86361 0.42598 0.39849 0.0
C1328 C 0.85807 0.39373 0.39918 0.0
H1329 H 0.86278 0.47313 0.42369 0.0
H1330 H 0.87129 0.43375 0.37695 0.0
C1331 C 0.84755 0.3849 0.42758 0.0
C1332 C 0.45799 1.02564 0.26684 0.0
C1333 C 0.45129 0.05467 0.28194 0.0
H1334 H 0.48506 1.00176 0.23335 0.0
C1335 C 0.46563 0.08216 0.27275 0.0
H1336 H 0.44718 1.00403 0.27336 0.0
C1337 C 0.48729 0.08083 0.24992 0.0
C1338 C 0.49511 0.05202 0.23596 0.0
H1339 H 0.46093 0.10486 0.28401 0.0
H1340 H 0.49882 0.10256 0.24418 0.0
C1341 C 0.47981 1.02434 0.24414 0.0
C1342 C 0.84314 0.79917 0.94569 0.0
C1343 C 0.83498 0.76675 0.94446 0.0
H1344 H 0.8549 0.83555 0.9193 0.0
C1345 C 0.83299 0.7458 0.91409 0.0
H1346 H 0.84504 0.81596 0.96864 0.0
C1347 C 0.83874 0.75703 0.88565 0.0
C1348 C 0.84676 0.78946 0.88681 0.0
H1349 H 0.82681 0.72065 0.91225 0.0
H1350 H 0.83658 0.74034 0.86266 0.0
C1351 C 0.84898 0.81037 0.9173 0.0
C1352 C 0.95247 0.08923 0.05743 0.0
C1353 C 0.94956 0.12048 0.07006 0.0
H1354 H 0.9823 0.05707 0.04129 0.0
C1355 C 0.97686 0.14367 0.07545 0.0
H1356 H 0.93228 0.07059 0.05268 0.0
C1357 C 1.00582 0.13591 0.06889 0.0
C1358 C 1.00879 0.10466 0.05623 0.0
H1359 H 0.97595 0.16807 0.08501 0.0
H1360 H 1.02602 0.1545 0.0741 0.0
C1361 C 0.98141 0.0815 0.0506 0.0
C1362 C 0.48969 0.46521 0.07451 0.0
C1363 C 0.46327 0.47737 0.08215 0.0
H1364 H 0.53709 0.4751 0.06553 0.0
C1365 C 0.46551 0.51018 0.08898 0.0
H1366 H 0.48873 0.44006 0.06913 0.0
C1367 C 0.49316 0.5303 0.08681 0.0
C1368 C 0.51931 0.51813 0.07782 0.0
H1369 H 0.4456 0.52034 0.095 0.0
H1370 H 0.49373 0.55536 0.09131 0.0
C1371 C 0.51742 0.48536 0.07242 0.0
C1372 C 0.44041 0.71389 0.80935 0.0
C1373 C 0.4234 0.68294 0.80914 0.0
H1374 H 0.44171 0.76369 0.81007 0.0
C1375 C 0.3912 0.68271 0.81032 0.0
H1376 H 0.46502 0.71688 0.80841 0.0
C1377 C 0.3775 0.71051 0.8119 0.0
C1378 C 0.39443 0.74142 0.81193 0.0
H1379 H 0.37605 0.66058 0.81024 0.0
H1380 H 0.35288 0.70744 0.81278 0.0
C1381 C 0.42662 0.74163 0.81036 0.0
C1382 C 0.24818 0.61902 0.54824 0.0
C1383 C 0.2659 0.61149 0.57322 0.0
H1384 H 0.20359 0.62099 0.52775 0.0
C1385 C 0.24993 0.59853 0.59698 0.0
H1386 H 0.25932 0.62923 0.52952 0.0
C1387 C 0.21741 0.59346 0.59575 0.0
C1388 C 0.19984 0.60178 0.5711 0.0
H1389 H 0.26255 0.59261 0.61674 0.0
H1390 H 0.20606 0.58358 0.61453 0.0
C1391 C 0.21594 0.61449 0.54733 0.0
C1392 C 0.85083 0.06686 0.80117 0.0
C1393 C 0.83842 0.0596 0.76856 0.0
H1394 H 0.87435 0.05134 0.83852 0.0
C1395 C 0.84582 0.03416 0.74684 0.0
H1396 H 0.84578 0.08664 0.81835 0.0
C1397 C 0.86272 1.01437 0.75828 0.0
C1398 C 0.87202 1.0195 0.79166 0.0
H1399 H 0.83702 1.02845 0.72145 0.0
H1400 H 0.86649 0.99369 0.74147 0.0
C1401 C 0.86748 0.04686 0.81269 0.0
C1402 C 0.78256 0.96852 0.55259 0.0
C1403 C 0.8124 0.97215 0.5426 0.0
H1404 H 0.73807 0.97996 0.54819 0.0
C1405 C 0.82022 0.99107 0.52003 0.0
H1406 H 0.77589 0.95414 0.56999 0.0
C1407 C 0.79845 1.00551 0.50715 0.0
C1408 C 0.76838 1.00144 0.51662 0.0
H1409 H 0.84301 0.99421 0.51175 0.0
H1410 H 0.80503 1.01927 0.48919 0.0
C1411 C 0.76082 0.98307 0.53981 0.0
C1412 C 0.38783 0.48451 0.80157 0.0
C1413 C 0.4196 0.49404 0.79783 0.0
H1414 H 0.34949 0.44724 0.80482 0.0
C1415 C 0.43617 0.46908 0.79442 0.0
H1416 H 0.37351 0.50202 0.80442 0.0
C1417 C 0.42221 0.43714 0.79482 0.0
C1418 C 0.39047 0.42749 0.79855 0.0
H1419 H 0.4605 0.47424 0.79155 0.0
H1420 H 0.43669 0.41977 0.79217 0.0
C1421 C 0.37378 0.45243 0.80182 0.0
C1422 C 0.33801 0.71391 0.24814 0.0
C1423 C 0.30828 0.70047 0.23332 0.0
H1424 H 0.36713 0.75541 0.27671 0.0
C1425 C 0.28808 0.72016 0.22763 0.0
H1426 H 0.35411 0.69927 0.25262 0.0
C1427 C 0.29587 0.75237 0.2409 0.0
C1428 C 0.32381 0.76488 0.25984 0.0
H1429 H 0.26513 0.71035 0.21598 0.0
H1430 H 0.27871 0.7667 0.2396 0.0
C1431 C 0.34559 0.74601 0.26177 0.0
C1432 C 0.5296 0.74722 0.54784 0.0
C1433 C 0.53685 0.77984 0.55082 0.0
H1434 H 0.53869 0.70817 0.56637 0.0
C1435 C 0.55361 0.79889 0.5793 0.0
H1436 H 0.51632 0.7321 0.52635 0.0
C1437 C 0.56658 0.78521 0.60228 0.0
C1438 C 0.56249 0.75238 0.59722 0.0
H1439 H 0.55916 0.82423 0.58238 0.0
H1440 H 0.5821 0.80014 0.6223 0.0
C1441 C 0.54213 0.73358 0.57106 0.0
C1442 C 0.74942 0.36855 0.71356 0.0
C1443 C 0.71884 0.35273 0.71186 0.0
H1444 H 0.79343 0.38155 0.74085 0.0
C1445 C 0.70837 0.34039 0.7384 0.0
H1446 H 0.75798 0.37849 0.69351 0.0
C1447 C 0.72857 0.34189 0.76524 0.0
C1448 C 0.75956 0.35609 0.76623 0.0
H1449 H 0.6848 0.32833 0.73791 0.0
H1450 H 0.72011 0.33091 0.78467 0.0
C1451 C 0.76963 0.37041 0.74071 0.0
C1452 C 0.09027 0.42996 1.00417 0.0
C1453 C 0.05877 0.41697 0.99863 0.0
H1454 H 0.12485 0.47172 1.01571 0.0
C1455 C 0.03744 0.43691 1.00141 0.0
H1456 H 0.10719 0.41507 1.00217 0.0
C1457 C 0.04756 0.46948 1.00942 0.0
C1458 C 0.07912 0.48245 1.0144 0.0
H1459 H 1.01301 0.42738 0.9973 0.0
H1460 H 1.0307 0.48444 1.01119 0.0
C1461 C 0.10036 0.4624 1.01184 0.0
C1462 C 0.0656 0.85458 0.18291 0.0
C1463 C 0.07266 0.82786 0.1628 0.0
H1464 H 0.03752 0.87223 0.21942 0.0
C1465 C 0.05416 0.79828 0.16166 0.0
H1466 H 0.07953 0.87767 0.18433 0.0
C1467 C 1.03035 0.79516 0.18178 0.0
C1468 C 1.02443 0.82157 0.20338 0.0
H1469 H 0.05893 0.77725 0.14627 0.0
H1470 H 1.01706 0.77191 0.18106 0.0
C1471 C 0.0416 0.85146 0.20301 0.0
C1472 C 0.57525 0.37666 0.119 0.0
C1473 C 0.59709 0.37359 0.14276 0.0
H1474 H 0.56661 0.39586 0.0776 0.0
C1475 C 0.62809 0.38706 0.1419 0.0
H1476 H 0.55119 0.36646 0.11902 0.0
C1477 C 0.63704 0.40354 0.11783 0.0
C1478 C 0.61513 0.40686 0.09418 0.0
H1479 H 0.64547 0.3848 0.15975 0.0
H1480 H 0.66109 0.41372 0.11775 0.0
C1481 C 0.58416 0.39315 0.095 0.0
C1482 C 0.07445 0.3234 0.31349 0.0
C1483 C 0.08836 0.3525 0.33341 0.0
H1484 H 0.04146 0.29926 0.27366 0.0
C1485 C 0.08322 0.38023 0.32491 0.0
H1486 H 0.07885 0.30166 0.31897 0.0
C1487 C 0.06145 0.37897 0.29959 0.0
C1488 C 0.04449 0.34985 0.28194 0.0
H1489 H 0.0942 0.40305 0.33942 0.0
H1490 H 0.056 0.40106 0.29641 0.0
C1491 C 0.05302 0.3221 0.28756 0.0
C1492 C 0.07161 0.72389 0.62442 0.0
C1493 C 0.08711 0.73541 0.65559 0.0
H1494 H 0.06248 0.68672 0.58204 0.0
C1495 C 0.10585 0.71745 0.66807 0.0
H1496 H 0.05705 0.73729 0.61417 0.0
C1497 C 0.10881 0.68828 0.64972 0.0
C1498 C 0.09333 0.67679 0.61847 0.0
H1499 H 0.11802 0.72581 0.69208 0.0
H1500 H 0.12331 0.67483 0.65997 0.0
C1501 C 0.0748 0.69495 0.60598 0.0
C1502 C 0.74387 0.87413 0.87651 0.0
C1503 C 0.71981 0.84828 0.875 0.0
H1504 H 0.7869 0.89117 0.85912 0.0
C1505 C 0.72007 0.81981 0.85334 0.0
H1506 H 0.74393 0.89649 0.89275 0.0
C1507 C 0.74415 0.81696 0.83396 0.0
C1508 C 0.76858 0.84247 0.83581 0.0
H1509 H 0.70164 0.79962 0.85132 0.0
H1510 H 0.74384 0.79444 0.81787 0.0
C1511 C 0.76814 0.87126 0.85695 0.0
C1512 C 0.54995 0.60357 0.71047 0.0
C1513 C 0.52036 0.58525 0.71189 0.0
H1514 H 0.5883 0.61615 0.6825 0.0
C1515 C 0.50847 0.56363 0.68208 0.0
H1516 H 0.56072 0.62067 0.732 0.0
C1517 C 0.52498 0.56041 0.65326 0.0
C1518 C 0.55444 0.57901 0.65174 0.0
H1519 H 0.48609 0.54873 0.68094 0.0
H1520 H 0.51414 0.54342 0.63169 0.0
C1521 C 0.56614 0.60086 0.68146 0.0
C1522 C 0.82775 0.17108 0.97605 0.0
C1523 C 0.84017 0.18983 1.00656 0.0
H1524 H 0.80248 0.16876 0.93057 0.0
C1525 C 0.8379 0.22165 1.01388 0.0
H1526 H 0.82904 0.14642 0.96985 0.0
C1527 C 0.82242 0.2342 0.99171 0.0
C1528 C 0.80907 0.21526 0.96168 0.0
H1529 H 0.84722 0.23667 0.0372 0.0
H1530 H 0.82079 0.25876 0.99813 0.0
C1531 C 0.81244 0.18377 0.95368 0.0
C1532 C 0.18073 0.56305 0.16548 0.0
C1533 C 0.21231 0.56855 0.16155 0.0
H1534 H 0.13523 0.55802 0.14335 0.0
C1535 C 0.22197 0.56848 0.13036 0.0
H1536 H 0.17263 0.56278 0.18927 0.0
C1537 C 0.20058 0.56578 0.1041 0.0
C1538 C 0.16916 0.56319 0.10859 0.0
H1539 H 0.24616 0.57237 0.12658 0.0
H1540 H 0.20891 0.56735 0.08064 0.0
C1541 C 0.15929 0.5604 0.13919 0.0
C1542 C 0.88683 0.85702 0.45708 0.0
C1543 C 0.86149 0.86294 0.47425 0.0
H1544 H 0.9037 0.84356 0.41061 0.0
C1545 C 0.83248 0.85713 0.45682 0.0
H1546 H 0.90951 0.86134 0.46976 0.0
C1547 C 0.82914 0.84719 0.42287 0.0
C1548 C 0.85472 0.84266 0.40546 0.0
H1549 H 0.81247 0.8615 0.46926 0.0
H1550 H 0.80659 0.84393 0.41023 0.0
C1551 C 0.88348 0.84691 0.4231 0.0
C1552 C 0.54318 0.61734 0.91806 0.0
C1553 C 0.52029 0.59276 0.899 0.0
H1554 H 0.57534 0.63448 0.9614 0.0
C1555 C 0.51447 0.56496 0.91161 0.0
H1556 H 0.5489 0.63932 0.91016 0.0
C1557 C 0.53071 0.5617 0.94076 0.0
C1558 C 0.55312 0.58644 0.96022 0.0
H1559 H 0.49741 0.54512 0.89848 0.0
H1560 H 0.52511 0.5396 0.94844 0.0
C1561 C 0.55858 0.61451 0.94799 0.0
C1562 C 0.84193 0.20773 0.19426 0.0
C1563 C 0.85354 0.21652 0.16631 0.0
H1564 H 0.8271 0.22279 0.24154 0.0
C1565 C 0.85825 0.24852 0.16487 0.0
H1566 H 0.83777 0.1833 0.1961 0.0
C1567 C 0.85202 0.27119 0.19084 0.0
C1568 C 0.84055 0.2625 0.21891 0.0
H1569 H 0.86695 0.25615 0.14364 0.0
H1570 H 0.85656 0.29563 0.18905 0.0
C1571 C 0.83543 0.2304 0.22016 0.0
C1572 C 0.21214 0.59146 0.33645 0.0
C1573 C 0.22393 0.61827 0.32462 0.0
H1574 H 0.18478 0.57252 0.3708 0.0
C1575 C 0.21787 0.64753 0.33993 0.0
H1576 H 0.21645 0.56861 0.32515 0.0
C1577 C 0.19974 0.64978 0.36614 0.0
C1578 C 0.1875 0.62285 0.37761 0.0
H1579 H 0.22683 0.66863 0.33144 0.0
H1580 H 0.1953 0.67259 0.37743 0.0
C1581 C 0.19415 0.59374 0.3627 0.0
C1582 C 0.86604 0.90304 0.68423 0.0
C1583 C 0.85821 0.88273 0.65349 0.0
H1584 H 0.86845 0.90814 0.73596 0.0
C1585 C 0.84482 0.85106 0.65205 0.0
H1586 H 0.87626 0.92759 0.6863 0.0
C1587 C 0.8398 0.83994 0.68073 0.0
C1588 C 0.84849 0.86013 0.71148 0.0
H1589 H 0.83836 0.83484 0.62876 0.0
H1590 H 0.82998 0.81532 0.67879 0.0
C1591 C 0.86148 0.89187 0.71278 0.0
C1592 C 0.74727 0.56548 0.56259 0.0
C1593 C 0.75049 0.53531 0.54608 0.0
H1594 H 0.71685 0.59631 0.58101 0.0
C1595 C 0.72308 0.51274 0.53568 0.0
H1596 H 0.76751 0.58359 0.57125 0.0
C1597 C 0.69381 0.52009 0.54121 0.0
C1598 C 0.6905 0.55015 0.55792 0.0
H1599 H 0.72419 0.4892 0.52293 0.0
H1600 H 0.6736 0.50222 0.53192 0.0
C1601 C 0.71795 0.57271 0.56846 0.0
C1602 C 0.22817 0.1452 0.51095 0.0
C1603 C 0.23344 0.17741 0.52559 0.0
H1604 H 0.19752 0.10041 0.50306 0.0
C1605 C 0.2104 0.18934 0.5428 0.0
H1606 H 0.24552 0.13534 0.49753 0.0
C1607 C 0.18323 0.1693 0.54647 0.0
C1608 C 0.17818 0.13695 0.53249 0.0
H1609 H 0.21379 0.21402 0.55444 0.0
H1610 H 0.16635 0.17916 0.5607 0.0
C1611 C 0.20067 0.12522 0.51409 0.0
C1612 C 0.30274 0.97055 0.80209 0.0
C1613 C 0.2707 0.97069 0.80424 0.0
H1614 H 0.34086 0.94558 0.79952 0.0
C1615 C 0.25374 0.94018 0.80578 0.0
H1616 H 0.31781 0.99233 0.80082 0.0
C1617 C 0.26748 0.9125 0.80549 0.0
C1618 C 0.29952 0.91234 0.80298 0.0
H1619 H 0.22925 0.93749 0.80755 0.0
H1620 H 0.25249 0.89078 0.80709 0.0
C1621 C 0.31636 0.94281 0.80126 0.0
C1622 C 0.45285 1.03247 0.06832 0.0
C1623 C 0.43417 0.04515 0.04852 0.0
H1624 H 0.49801 1.03017 0.0864 0.0
C1625 C 0.44919 0.06706 0.0315 0.0
H1626 H 0.44253 1.0156 0.08195 0.0
C1627 C 0.48178 0.07555 0.03404 0.0
C1628 C 0.50033 0.06235 0.05362 0.0
H1629 H 0.43582 0.07732 1.0159 0.0
H1630 H 0.49242 0.09226 1.02042 0.0
C1631 C 0.48505 0.04085 0.07083 0.0
C1632 C 0.84405 0.64334 0.86377 0.0
C1633 C 0.83938 0.6107 0.85268 0.0
H1634 H 0.83151 0.68584 0.85688 0.0
C1635 C 0.81368 0.59513 0.83085 0.0
H1636 H 0.86353 0.65586 0.88079 0.0
C1637 C 0.79507 0.6123 0.81736 0.0
C1638 C 0.8019 0.64524 0.82557 0.0
H1639 H 0.8092 0.56981 0.82237 0.0
H1640 H 0.77687 0.59996 0.79868 0.0
C1641 C 0.82543 0.66049 0.85026 0.0
C1642 C 0.88637 0.65447 0.05556 0.0
C1643 C 0.89263 0.6847 0.04889 0.0
H1644 H 0.90485 0.61684 0.06875 0.0
C1645 C 0.92324 0.7007 0.05143 0.0
H1646 H 0.86296 0.64162 0.05384 0.0
C1647 C 0.94713 0.68684 0.06052 0.0
C1648 C 0.94105 0.65645 0.06696 0.0
H1649 H 0.92877 0.72419 0.04682 0.0
H1650 H 0.9704 0.70016 0.06285 0.0
C1651 C 0.91035 0.64042 0.0644 0.0
C1652 C 0.30781 0.16916 0.80623 0.0
C1653 C 0.27588 0.15939 0.80898 0.0
H1654 H 0.34608 0.20649 0.80296 0.0
C1655 C 0.25892 0.18394 0.81057 0.0
H1656 H 0.32241 0.15195 0.80478 0.0
C1657 C 0.27268 0.21573 0.80945 0.0
C1658 C 0.30456 0.22561 0.80665 0.0
H1659 H 0.23445 0.17857 0.8126 0.0
H1660 H 0.25792 0.23279 0.81075 0.0
C1661 C 0.32164 0.20108 0.80514 0.0
C1662 C 0.36224 0.97228 0.41563 0.0
C1663 C 0.34979 0.98644 0.3926 0.0
H1664 H 0.3629 0.92885 0.4303 0.0
C1665 C 0.32283 0.97069 0.37305 0.0
H1666 H 0.38309 0.98418 0.43085 0.0
C1667 C 0.31067 0.93954 0.37354 0.0
C1668 C 0.32611 0.9238 0.39282 0.0
H1669 H 0.31288 0.98149 0.35526 0.0
H1670 H 0.29191 0.92677 0.35569 0.0
C1671 C 0.35062 0.94079 0.41544 0.0
C1672 C 0.65738 0.36184 0.52326 0.0
C1673 C 0.67038 0.38032 0.55372 0.0
H1674 H 0.63044 0.3606 0.47916 0.0
C1675 C 0.67427 0.41306 0.55915 0.0
H1676 H 0.65421 0.33644 0.51853 0.0
C1677 C 0.66148 0.42683 0.53625 0.0
C1678 C 0.64407 0.40793 0.50807 0.0
H1679 H 0.68437 0.4277 0.5824 0.0
H1680 H 0.6616 0.45175 0.54286 0.0
C1681 C 0.64386 0.37558 0.50064 0.0
C1682 C 0.41838 0.80588 0.4339 0.0
C1683 C 0.44484 0.80043 0.41875 0.0
H1684 H 0.37358 0.81629 0.42848 0.0
C1685 C 0.44498 0.79779 0.38498 0.0
H1686 H 0.41773 0.8079 0.45991 0.0
C1687 C 0.42005 0.80329 0.36712 0.0
C1688 C 0.39443 0.81091 0.38269 0.0
H1689 H 0.46514 0.79362 0.37272 0.0
H1690 H 0.42132 0.80268 0.34139 0.0
C1691 C 0.3932 0.81078 0.41592 0.0
C1692 C 0.16918 0.71922 0.10483 0.0
C1693 C 0.16187 0.73925 0.08506 0.0
H1694 H 0.16636 0.67153 0.10931 0.0
C1695 C 0.14996 0.72668 0.05261 0.0
H1696 H 0.17832 0.72847 0.12995 0.0
C1697 C 0.14373 0.69424 0.04062 0.0
C1698 C 0.14863 0.67412 0.06126 0.0
H1699 H 0.1443 0.74185 0.03694 0.0
H1700 H 0.13322 0.68489 1.01598 0.0
C1701 C 0.1622 0.68677 0.09311 0.0
C1702 C 0.09755 0.31811 0.87874 0.0
C1703 C 0.0997 0.30872 0.90853 0.0
H1704 H 0.12075 0.3299 0.8384 0.0
C1705 C 0.12754 0.30192 0.91951 0.0
H1706 H 0.07631 0.32329 0.86952 0.0
C1707 C 0.15326 0.30618 0.90185 0.0
C1708 C 0.15151 0.31718 0.87285 0.0
H1709 H 0.12987 0.29477 0.94248 0.0
H1710 H 0.17481 0.30225 0.91171 0.0
C1711 C 0.12311 0.32217 0.86104 0.0
C1712 C 0.64326 0.79736 1.00691 0.0
C1713 C 0.62004 0.80226 0.98584 0.0
H1714 H 0.65448 0.77389 0.04434 0.0
C1715 C 0.58934 0.78864 0.98824 0.0
H1716 H 0.66708 0.80777 1.00579 0.0
C1717 C 0.5821 0.76961 1.01059 0.0
C1718 C 0.60546 0.76364 0.03069 0.0
H1719 H 0.57093 0.79228 0.97249 0.0
H1720 H 0.55839 0.75845 1.01113 0.0
C1721 C 0.63605 0.7781 1.02902 0.0
C1722 C 0.15441 0.86337 0.8042 0.0
C1723 C 0.12502 0.84441 0.79987 0.0
H1724 H 0.19928 0.87263 0.82829 0.0
C1725 C 0.11559 0.82716 0.82338 0.0
H1726 H 0.16201 0.87742 0.78676 0.0
C1727 C 0.13681 0.82497 0.84792 0.0
C1728 C 0.16781 0.83929 0.84855 0.0
H1729 H 0.09263 0.81311 0.8211 0.0
H1730 H 0.12976 0.80912 0.86386 0.0
C1731 C 0.17574 0.86082 0.82841 0.0
C1732 C 0.14464 0.47198 0.47648 0.0
C1733 C 0.1241 0.44401 0.47685 0.0
H1734 H 0.15493 0.52211 0.49191 0.0
C1735 C 0.098 0.44509 0.49408 0.0
H1736 H 0.16484 0.47166 0.46316 0.0
C1737 C 0.09259 0.4738 0.51092 0.0
C1738 C 0.11282 0.50184 0.51004 0.0
H1739 H 0.08186 0.42373 0.49468 0.0
H1740 H 0.07236 0.47411 0.52418 0.0
C1741 C 0.13886 0.50076 0.49266 0.0
C1742 C 0.48411 0.34079 0.27142 0.0
C1743 C 0.48617 0.32164 0.24099 0.0
H1744 H 0.45531 0.35345 0.30907 0.0
C1745 C 0.46027 0.29975 0.22519 0.0
H1746 H 0.50391 0.3576 0.28428 0.0
C1747 C 0.43265 0.29718 0.23944 0.0
C1748 C 0.43045 0.31637 0.26982 0.0
H1749 H 0.46135 0.28448 0.20185 0.0
H1750 H 0.41294 0.28029 0.22648 0.0
C1751 C 0.45645 0.3381 0.28581 0.0
C1752 C 0.68863 0.5906 0.42915 0.0
C1753 C 0.67711 0.56787 0.39997 0.0
H1754 H 0.68305 0.6117 0.4793 0.0
C1755 C 0.64827 0.54856 0.40225 0.0
H1756 H 0.71044 0.6063 0.42961 0.0
C1757 C 0.6324 0.55149 0.43146 0.0
C1758 C 0.64376 0.57437 0.46059 0.0
H1759 H 0.63781 0.53061 0.38123 0.0
H1760 H 0.61079 0.53547 0.43107 0.0
C1761 C 0.67251 0.59386 0.45823 0.0
C1762 C 0.35088 0.99611 0.15548 0.0
C1763 C 0.34417 0.97453 0.12541 0.0
H1764 H 0.36464 1.00345 0.20641 0.0
C1765 C 0.34515 0.94279 0.1242 0.0
H1766 H 0.35046 1.02075 0.15712 0.0
C1767 C 0.35344 0.93296 0.1523 0.0
C1768 C 0.36079 0.95461 0.18228 0.0
H1769 H 0.34015 0.92561 0.10138 0.0
H1770 H 0.35407 0.90835 0.15057 0.0
C1771 C 0.35901 0.98622 0.18367 0.0
C1772 C 1.01125 0.56083 0.91555 0.0
C1773 C 0.98976 0.57994 0.92455 0.0
H1774 H 0.05412 0.54893 0.92788 0.0
C1775 C 0.99665 0.60397 0.95269 0.0
H1776 H 1.00671 0.54232 0.89373 0.0
C1777 C 1.02396 0.60778 0.97234 0.0
C1778 C 0.04488 0.58774 0.96402 0.0
H1779 H 0.98058 0.61917 0.96005 0.0
H1780 H 1.02828 0.62588 0.99446 0.0
C1781 C 0.03857 0.56477 0.93499 0.0
C1782 C 0.35926 0.29716 0.64483 0.0
C1783 C 0.32994 0.28823 0.62777 0.0
H1784 H 0.38563 0.31307 0.69108 0.0
C1785 C 0.30417 0.29098 0.64537 0.0
H1786 H 0.37961 0.2953 0.63207 0.0
C1787 C 0.30759 0.30121 0.67937 0.0
C1788 C 0.33687 0.30879 0.69661 0.0
H1789 H 0.28124 0.28422 0.63299 0.0
H1790 H 0.28717 0.30214 0.69219 0.0
C1791 C 0.36269 0.30726 0.67877 0.0
C1792 C 0.6482 0.5729 0.21087 0.0
C1793 C 0.67491 0.55947 0.21183 0.0
H1794 H 0.61324 0.58727 0.18256 0.0
C1795 C 0.68537 0.5496 0.18077 0.0
H1796 H 0.63885 0.58119 0.23351 0.0
C1797 C 0.67013 0.5527 0.15094 0.0
C1798 C 0.64366 0.56653 0.14998 0.0
H1799 H 0.70561 0.5392 0.17935 0.0
H1800 H 0.67955 0.54442 0.12834 0.0
C1801 C 0.63328 0.57655 0.18109 0.0
C1802 C 0.33629 0.90593 0.95334 0.0
C1803 C 0.34365 0.93825 0.95339 0.0
H1804 H 0.33485 0.85862 0.92739 0.0
C1805 C 0.35663 0.94727 0.92614 0.0
H1806 H 0.3264 0.89805 0.97395 0.0
C1807 C 0.36195 0.92459 0.89954 0.0
C1808 C 0.3543 0.8922 0.89934 0.0
H1809 H 0.36279 0.97192 0.92538 0.0
H1810 H 0.37153 0.93248 0.87881 0.0
C1811 C 0.34138 0.88325 0.92668 0.0
C1812 C 0.9689 0.58405 0.7744 0.0
C1813 C 0.95379 0.55632 0.78255 0.0
H1814 H 1.00229 0.60471 0.74624 0.0
C1815 C 0.95928 0.52725 0.76599 0.0
H1816 H 0.96517 0.6068 0.78685 0.0
C1817 C 0.98051 0.52603 0.74268 0.0
C1818 C 0.99662 0.55386 0.73549 0.0
H1819 H 0.9479 0.50549 0.77176 0.0
H1820 H 0.98465 0.50332 0.73063 0.0
C1821 C 0.99011 0.58284 0.75109 0.0
C1822 C 0.33883 0.3022 0.44616 0.0
C1823 C 0.33235 0.26977 0.44522 0.0
H1824 H 0.34912 0.33857 0.41955 0.0
C1825 C 0.33188 0.24879 0.41513 0.0
H1826 H 0.33951 0.31901 0.46889 0.0
C1827 C 0.33745 0.26001 0.38664 0.0
C1828 C 0.34379 0.29247 0.38752 0.0
H1829 H 0.32704 0.22363 0.41353 0.0
H1830 H 0.33651 0.24327 0.36384 0.0
C1831 C 0.34453 0.31339 0.41776 0.0
C1832 C 0.45264 0.58915 0.5552 0.0
C1833 C 0.44988 0.62007 0.56963 0.0
H1834 H 0.48243 0.55725 0.53797 0.0
C1835 C 0.47741 0.64294 0.57703 0.0
H1836 H 0.43229 0.57077 0.54885 0.0
C1837 C 0.50639 0.63521 0.57064 0.0
C1838 C 0.50924 0.60429 0.55629 0.0
H1839 H 0.47664 0.66709 0.58798 0.0
H1840 H 0.52671 0.65356 0.57733 0.0
C1841 C 0.48166 0.58144 0.54868 0.0
C1842 C 0.98697 0.96308 0.56646 0.0
C1843 C 0.96212 0.9754 0.57935 0.0
H1844 H 1.03308 0.97284 0.5533 0.0
C1845 C 0.96607 1.00805 0.59118 0.0
H1846 H 0.98468 0.93804 0.55714 0.0
C1847 C 0.99382 1.02805 0.58906 0.0
C1848 C 1.01829 1.01593 0.57488 0.0
H1849 H 0.94739 1.0183 0.60131 0.0
H1850 H 0.99569 0.05314 0.59764 0.0
C1851 C 1.01471 0.9831 0.56418 0.0
C1852 C 0.89249 0.18366 0.31108 0.0
C1853 C 0.9244 0.18337 0.30801 0.0
H1854 H 0.85457 0.20892 0.31526 0.0
C1855 C 0.94132 0.21395 0.30668 0.0
H1856 H 0.87744 0.16185 0.31228 0.0
C1857 C 0.9277 0.24183 0.30803 0.0
C1858 C 0.89581 0.24214 0.31145 0.0
H1859 H 0.96572 0.21653 0.30427 0.0
H1860 H 0.94268 0.26359 0.30649 0.0
C1861 C 0.87898 0.21159 0.31292 0.0
C1862 C 0.75013 0.10601 0.10425 0.0
C1863 C 0.76608 0.10769 0.07634 0.0
H1864 H 0.70644 0.10039 0.12458 0.0
C1865 C 0.74834 0.10378 0.04655 0.0
H1866 H 0.76278 0.10922 0.12772 0.0
C1867 C 0.71601 0.09903 0.04476 0.0
C1868 C 0.69996 0.09793 0.07269 0.0
H1869 H 0.75951 0.10514 1.02448 0.0
H1870 H 0.70359 0.09658 1.0213 0.0
C1871 C 0.71765 0.10111 0.10244 0.0
C1872 C 0.35361 0.57212 0.30173 0.0
C1873 C 0.34173 0.56514 0.26896 0.0
H1874 H 0.37561 0.55582 0.33952 0.0
C1875 C 0.34873 0.53932 0.24747 0.0
H1876 H 0.34883 0.59216 0.31874 0.0
C1877 C 0.36457 0.5189 0.25928 0.0
C1878 C 0.37321 0.52381 0.29278 0.0
H1879 H 0.34032 0.53378 0.22197 0.0
H1880 H 0.36794 0.49794 0.24263 0.0
C1881 C 0.36921 0.55151 0.31361 0.0
C1882 C 0.32353 0.49026 1.01725 0.0
C1883 C 0.31485 0.47112 0.03941 0.0
H1884 H 0.3095 0.51885 0.98619 0.0
C1885 C 0.2846 0.4672 0.04819 0.0
H1886 H 0.34668 0.49362 1.00991 0.0
C1887 C 0.26332 0.48179 0.03471 0.0
C1888 C 0.2718 0.50051 1.01206 0.0
H1889 H 0.27727 0.45262 0.06524 0.0
H1890 H 0.24022 0.47852 0.0422 0.0
C1891 C 0.30224 0.50478 1.00371 0.0
C1892 C 0.93538 0.96968 0.29844 0.0
C1893 C 0.91832 0.99392 0.29807 0.0
H1894 H 0.93624 0.92093 0.29882 0.0
C1895 C 0.88599 0.9836 0.29768 0.0
H1896 H 0.96013 0.97545 0.2988 0.0
C1897 C 0.87191 0.95147 0.29771 0.0
C1898 C 0.88909 0.92727 0.29816 0.0
H1899 H 0.87128 1.00053 0.29745 0.0
H1900 H 0.84718 0.94564 0.29749 0.0
C1901 C 0.92136 0.9377 0.29847 0.0
C1902 C 0.83488 0.20724 0.74778 0.0
C1903 C 0.80483 0.1943 0.73362 0.0
H1904 H 0.86513 0.24849 0.77535 0.0
C1905 C 0.7849 0.2144 0.7284 0.0
H1906 H 0.85075 0.19226 0.75192 0.0
C1907 C 0.79346 0.24663 0.74127 0.0
C1908 C 0.82187 0.25874 0.7594 0.0
H1909 H 0.7617 0.20496 0.71729 0.0
H1910 H 0.77667 0.2614 0.74018 0.0
C1911 C 0.84321 0.23936 0.76107 0.0
loop_
_geom_bond_atom_site_label_1
_geom_bond_atom_site_label_2
_geom_bond_distance
_geom_bond_site_symmetry_2
_ccdc_geom_bond_type
In0 O1 2.294 . S
In0 O2 2.326 . S
In0 O6 2.266 . S
In0 O7 2.326 . S
In0 O8 2.266 . S
In0 O9 2.326 . S
In0 O11 2.294 . S
In0 O12 2.326 . S
O1 In0 2.294 . S
O1 C10 1.240 . S
O2 In0 2.326 . S
O2 C10 1.252 . S
C3 O6 1.252 . S
C3 O7 1.260 . S
C4 O11 1.240 . S
C4 O12 1.252 . S
C5 O8 1.252 . S
C5 O9 1.260 . S
O6 In0 2.266 . S
O6 C3 1.252 . S
O7 In0 2.326 . S
O7 C3 1.260 . S
O8 In0 2.266 . S
O8 C5 1.252 . S
O9 In0 2.326 . S
O9 C5 1.260 . S
C10 O1 1.240 . S
C10 O2 1.252 . S
O11 In0 2.294 . S
O11 C4 1.240 . S
O12 In0 2.326 . S
O12 C4 1.252 . S
In13 O14 2.294 . S
In13 O15 2.326 . S
In13 O19 2.266 1_455 S
In13 O20 2.326 1_455 S
In13 O21 2.264 1_455 S
In13 O22 2.322 1_455 S
In13 O24 2.296 . S
In13 O25 2.330 . S
O14 In13 2.294 . S
O14 C23 1.240 . S
O15 In13 2.326 . S
O15 C23 1.252 . S
C16 O19 1.252 . S
C16 O20 1.260 . S
C17 O24 1.240 . S
C17 O25 1.252 . S
C18 O21 1.252 . S
C18 O22 1.260 . S
O19 In13 2.266 1_655 S
O19 C16 1.252 . S
O20 In13 2.326 1_655 S
O20 C16 1.260 . S
O21 In13 2.264 1_655 S
O21 C18 1.252 . S
O22 In13 2.322 1_655 S
O22 C18 1.260 . S
C23 O14 1.240 . S
C23 O15 1.252 . S
O24 In13 2.296 . S
O24 C17 1.240 . S
O25 In13 2.330 . S
O25 C17 1.252 . S
In26 O27 2.294 . S
In26 O28 2.326 . S
In26 O32 2.266 . S
In26 O33 2.326 . S
In26 O34 2.266 . S
In26 O35 2.326 . S
In26 O37 2.294 . S
In26 O38 2.326 . S
O27 In26 2.294 . S
O27 C36 1.240 . S
O28 In26 2.326 . S
O28 C36 1.252 . S
C29 O32 1.252 . S
C29 O33 1.260 . S
C30 O37 1.240 . S
C30 O38 1.252 . S
C31 O34 1.252 . S
C31 O35 1.260 . S
O32 In26 2.266 . S
O32 C29 1.252 . S
O33 In26 2.326 . S
O33 C29 1.260 . S
O34 In26 2.266 . S
O34 C31 1.252 . S
O35 In26 2.326 . S
O35 C31 1.260 . S
C36 O27 1.240 . S
C36 O28 1.252 . S
O37 In26 2.294 . S
O37 C30 1.240 . S
O38 In26 2.326 . S
O38 C30 1.252 . S
In39 O40 2.294 . S
In39 O41 2.326 . S
In39 O45 2.266 . S
In39 O46 2.326 . S
In39 O47 2.266 . S
In39 O48 2.326 . S
In39 O50 2.294 . S
In39 O51 2.326 . S
O40 In39 2.294 . S
O40 C49 1.240 . S
O41 In39 2.326 . S
O41 C49 1.252 . S
C42 O45 1.252 . S
C42 O46 1.260 . S
C43 O50 1.240 . S
C43 O51 1.252 . S
C44 O47 1.252 . S
C44 O48 1.260 . S
O45 In39 2.266 . S
O45 C42 1.252 . S
O46 In39 2.326 . S
O46 C42 1.260 . S
O47 In39 2.266 . S
O47 C44 1.252 . S
O48 In39 2.326 . S
O48 C44 1.260 . S
C49 O40 1.240 . S
C49 O41 1.252 . S
O50 In39 2.294 . S
O50 C43 1.240 . S
O51 In39 2.326 . S
O51 C43 1.252 . S
In52 O53 2.294 . S
In52 O54 2.326 . S
In52 O58 2.266 . S
In52 O59 2.326 . S
In52 O60 2.266 . S
In52 O61 2.326 . S
In52 O63 2.294 . S
In52 O64 2.326 . S
O53 In52 2.294 . S
O53 C62 1.240 . S
O54 In52 2.326 . S
O54 C62 1.252 . S
C55 O58 1.252 . S
C55 O59 1.260 . S
C56 O63 1.240 . S
C56 O64 1.252 . S
C57 O60 1.252 . S
C57 O61 1.260 . S
O58 In52 2.266 . S
O58 C55 1.252 . S
O59 In52 2.326 . S
O59 C55 1.260 . S
O60 In52 2.266 . S
O60 C57 1.252 . S
O61 In52 2.326 . S
O61 C57 1.260 . S
C62 O53 1.240 . S
C62 O54 1.252 . S
O63 In52 2.294 . S
O63 C56 1.240 . S
O64 In52 2.326 . S
O64 C56 1.252 . S
In65 O66 2.294 . S
In65 O67 2.326 . S
In65 O71 2.266 . S
In65 O72 2.326 . S
In65 O73 2.266 . S
In65 O74 2.326 . S
In65 O76 2.294 . S
In65 O77 2.326 . S
O66 In65 2.294 . S
O66 C75 1.240 . S
O67 In65 2.326 . S
O67 C75 1.252 . S
C68 O71 1.252 . S
C68 O72 1.260 . S
C69 O76 1.240 . S
C69 O77 1.252 . S
C70 O73 1.252 . S
C70 O74 1.260 . S
O71 In65 2.266 . S
O71 C68 1.252 . S
O72 In65 2.326 . S
O72 C68 1.260 . S
O73 In65 2.266 . S
O73 C70 1.252 . S
O74 In65 2.326 . S
O74 C70 1.260 . S
C75 O66 1.240 . S
C75 O67 1.252 . S
O76 In65 2.294 . S
O76 C69 1.240 . S
O77 In65 2.326 . S
O77 C69 1.252 . S
In78 O79 2.294 . S
In78 O80 2.326 . S
In78 O84 2.266 . S
In78 O85 2.326 . S
In78 O86 2.266 . S
In78 O87 2.326 . S
In78 O89 2.294 . S
In78 O90 2.326 . S
O79 In78 2.294 . S
O79 C88 1.240 . S
O80 In78 2.326 . S
O80 C88 1.252 . S
C81 O84 1.252 . S
C81 O85 1.260 . S
C82 O89 1.240 . S
C82 O90 1.252 . S
C83 O86 1.252 . S
C83 O87 1.260 . S
O84 In78 2.266 . S
O84 C81 1.252 . S
O85 In78 2.326 . S
O85 C81 1.260 . S
O86 In78 2.266 . S
O86 C83 1.252 . S
O87 In78 2.326 . S
O87 C83 1.260 . S
C88 O79 1.240 . S
C88 O80 1.252 . S
O89 In78 2.294 . S
O89 C82 1.240 . S
O90 In78 2.326 . S
O90 C82 1.252 . S
In91 O92 2.294 . S
In91 O93 2.326 . S
In91 O97 2.266 . S
In91 O98 2.326 . S
In91 O99 2.266 1_455 S
In91 O100 2.326 1_455 S
In91 O102 2.294 . S
In91 O103 2.326 . S
O92 In91 2.294 . S
O92 C101 1.240 . S
O93 In91 2.326 . S
O93 C101 1.252 . S
C94 O97 1.252 . S
C94 O98 1.260 . S
C95 O102 1.240 . S
C95 O103 1.252 . S
C96 O99 1.252 . S
C96 O100 1.260 . S
O97 In91 2.266 . S
O97 C94 1.252 . S
O98 In91 2.326 . S
O98 C94 1.260 . S
O99 In91 2.266 1_655 S
O99 C96 1.252 . S
O100 In91 2.326 1_655 S
O100 C96 1.260 . S
C101 O92 1.240 . S
C101 O93 1.252 . S
O102 In91 2.294 . S
O102 C95 1.240 . S
O103 In91 2.326 . S
O103 C95 1.252 . S
In104 O105 2.295 . S
In104 O106 2.328 1_545 S
In104 O110 2.264 . S
In104 O111 2.324 . S
In104 O112 2.261 1_545 S
In104 O113 2.317 1_545 S
In104 O115 2.300 . S
In104 O116 2.335 . S
O105 In104 2.295 . S
O105 C114 1.240 . S
O106 In104 2.328 1_565 S
O106 C114 1.252 1_565 S
C107 O110 1.252 . S
C107 O111 1.260 . S
C108 O115 1.240 . S
C108 O116 1.252 . S
C109 O112 1.252 . S
C109 O113 1.260 . S
O110 In104 2.264 . S
O110 C107 1.252 . S
O111 In104 2.324 . S
O111 C107 1.260 . S
O112 In104 2.261 1_565 S
O112 C109 1.252 . S
O113 In104 2.317 1_565 S
O113 C109 1.260 . S
C114 O105 1.240 . S
C114 O106 1.252 1_545 S
O115 In104 2.300 . S
O115 C108 1.240 . S
O116 In104 2.335 . S
O116 C108 1.252 . S
In117 O118 2.294 . S
In117 O119 2.326 . S
In117 O123 2.266 . S
In117 O124 2.326 . S
In117 O125 2.266 . S
In117 O126 2.326 . S
In117 O128 2.294 . S
In117 O129 2.326 . S
O118 In117 2.294 . S
O118 C127 1.240 . S
O119 In117 2.326 . S
O119 C127 1.252 . S
C120 O123 1.252 . S
C120 O124 1.260 . S
C121 O128 1.240 . S
C121 O129 1.252 . S
C122 O125 1.252 . S
C122 O126 1.260 . S
O123 In117 2.266 . S
O123 C120 1.252 . S
O124 In117 2.326 . S
O124 C120 1.260 . S
O125 In117 2.266 . S
O125 C122 1.252 . S
O126 In117 2.326 . S
O126 C122 1.260 . S
C127 O118 1.240 . S
C127 O119 1.252 . S
O128 In117 2.294 . S
O128 C121 1.240 . S
O129 In117 2.326 . S
O129 C121 1.252 . S
In130 O131 2.294 . S
In130 O132 2.326 . S
In130 O136 2.266 . S
In130 O137 2.326 . S
In130 O138 2.266 . S
In130 O139 2.326 . S
In130 O141 2.294 1_545 S
In130 O142 2.326 1_545 S
O131 In130 2.294 . S
O131 C140 1.240 . S
O132 In130 2.326 . S
O132 C140 1.252 . S
C133 O136 1.252 . S
C133 O137 1.260 . S
C134 O141 1.240 . S
C134 O142 1.252 . S
C135 O138 1.252 . S
C135 O139 1.260 . S
O136 In130 2.266 . S
O136 C133 1.252 . S
O137 In130 2.326 . S
O137 C133 1.260 . S
O138 In130 2.266 . S
O138 C135 1.252 . S
O139 In130 2.326 . S
O139 C135 1.260 . S
C140 O131 1.240 . S
C140 O132 1.252 . S
O141 In130 2.294 1_565 S
O141 C134 1.240 . S
O142 In130 2.326 1_565 S
O142 C134 1.252 . S
In143 O144 2.294 . S
In143 O145 2.326 . S
In143 O149 2.266 1_554 S
In143 O150 2.326 1_554 S
In143 O151 2.266 1_565 S
In143 O152 2.326 . S
In143 O154 2.292 . S
In143 O155 2.326 . S
O144 In143 2.294 . S
O144 C153 1.240 . S
O145 In143 2.326 . S
O145 C153 1.252 . S
C146 O149 1.252 . S
C146 O150 1.260 . S
C147 O154 1.239 . S
C147 O155 1.252 . S
C148 O151 1.252 1_565 S
C148 O152 1.260 . S
O149 In143 2.266 1_556 S
O149 C146 1.252 . S
O150 In143 2.326 1_556 S
O150 C146 1.260 . S
O151 In143 2.266 1_545 S
O151 C148 1.252 1_545 S
O152 In143 2.326 . S
O152 C148 1.260 . S
C153 O144 1.240 . S
C153 O145 1.252 . S
O154 In143 2.292 . S
O154 C147 1.239 . S
O155 In143 2.326 . S
O155 C147 1.252 . S
In156 O157 2.294 . S
In156 O158 2.326 . S
In156 O162 2.266 1_554 S
In156 O163 2.326 1_554 S
In156 O164 2.266 . S
In156 O165 2.326 . S
In156 O167 2.294 . S
In156 O168 2.326 . S
O157 In156 2.294 . S
O157 C166 1.240 . S
O158 In156 2.326 . S
O158 C166 1.252 . S
C159 O162 1.252 . S
C159 O163 1.260 . S
C160 O167 1.240 . S
C160 O168 1.252 . S
C161 O164 1.252 . S
C161 O165 1.260 . S
O162 In156 2.266 1_556 S
O162 C159 1.252 . S
O163 In156 2.326 1_556 S
O163 C159 1.260 . S
O164 In156 2.266 . S
O164 C161 1.252 . S
O165 In156 2.326 . S
O165 C161 1.260 . S
C166 O157 1.240 . S
C166 O158 1.252 . S
O167 In156 2.294 . S
O167 C160 1.240 . S
O168 In156 2.326 . S
O168 C160 1.252 . S
In169 O170 2.294 . S
In169 O171 2.326 . S
In169 O175 2.266 . S
In169 O176 2.326 . S
In169 O177 2.266 . S
In169 O178 2.326 1_554 S
In169 O180 2.294 . S
In169 O181 2.326 . S
O170 In169 2.294 . S
O170 C179 1.240 . S
O171 In169 2.326 . S
O171 C179 1.252 . S
C172 O175 1.252 . S
C172 O176 1.260 . S
C173 O180 1.240 . S
C173 O181 1.252 . S
C174 O177 1.252 1_556 S
C174 O178 1.260 . S
O175 In169 2.266 . S
O175 C172 1.252 . S
O176 In169 2.326 . S
O176 C172 1.260 . S
O177 In169 2.266 . S
O177 C174 1.252 1_554 S
O178 In169 2.326 1_556 S
O178 C174 1.260 . S
C179 O170 1.240 . S
C179 O171 1.252 . S
O180 In169 2.294 . S
O180 C173 1.240 . S
O181 In169 2.326 . S
O181 C173 1.252 . S
In182 O183 2.294 . S
In182 O184 2.326 . S
In182 O188 2.266 . S
In182 O189 2.326 . S
In182 O190 2.266 . S
In182 O191 2.326 . S
In182 O193 2.294 . S
In182 O194 2.326 . S
O183 In182 2.294 . S
O183 C192 1.240 . S
O184 In182 2.326 . S
O184 C192 1.252 . S
C185 O188 1.252 . S
C185 O189 1.260 . S
C186 O193 1.240 . S
C186 O194 1.252 . S
C187 O190 1.252 . S
C187 O191 1.260 . S
O188 In182 2.266 . S
O188 C185 1.252 . S
O189 In182 2.326 . S
O189 C185 1.260 . S
O190 In182 2.266 . S
O190 C187 1.252 . S
O191 In182 2.326 . S
O191 C187 1.260 . S
C192 O183 1.240 . S
C192 O184 1.252 . S
O193 In182 2.294 . S
O193 C186 1.240 . S
O194 In182 2.326 . S
O194 C186 1.252 . S
In195 O196 2.294 . S
In195 O197 2.326 . S
In195 O201 2.266 . S
In195 O202 2.326 . S
In195 O203 2.266 . S
In195 O204 2.326 . S
In195 O206 2.294 . S
In195 O207 2.326 . S
O196 In195 2.294 . S
O196 C205 1.240 . S
O197 In195 2.326 . S
O197 C205 1.252 . S
C198 O201 1.252 . S
C198 O202 1.260 . S
C199 O206 1.240 . S
C199 O207 1.252 . S
C200 O203 1.252 . S
C200 O204 1.260 . S
O201 In195 2.266 . S
O201 C198 1.252 . S
O202 In195 2.326 . S
O202 C198 1.260 . S
O203 In195 2.266 . S
O203 C200 1.252 . S
O204 In195 2.326 . S
O204 C200 1.260 . S
C205 O196 1.240 . S
C205 O197 1.252 . S
O206 In195 2.294 . S
O206 C199 1.240 . S
O207 In195 2.326 . S
O207 C199 1.252 . S
In208 O209 2.294 . S
In208 O210 2.326 . S
In208 O214 2.266 . S
In208 O215 2.326 . S
In208 O216 2.266 . S
In208 O217 2.326 . S
In208 O219 2.294 . S
In208 O220 2.326 . S
O209 In208 2.294 . S
O209 C218 1.240 . S
O210 In208 2.326 . S
O210 C218 1.252 . S
C211 O214 1.252 . S
C211 O215 1.260 . S
C212 O219 1.240 . S
C212 O220 1.252 . S
C213 O216 1.252 . S
C213 O217 1.260 . S
O214 In208 2.266 . S
O214 C211 1.252 . S
O215 In208 2.326 . S
O215 C211 1.260 . S
O216 In208 2.266 . S
O216 C213 1.252 . S
O217 In208 2.326 . S
O217 C213 1.260 . S
C218 O209 1.240 . S
C218 O210 1.252 . S
O219 In208 2.294 . S
O219 C212 1.240 . S
O220 In208 2.326 . S
O220 C212 1.252 . S
In221 O222 2.294 . S
In221 O223 2.326 . S
In221 O227 2.266 . S
In221 O228 2.326 . S
In221 O229 2.266 . S
In221 O230 2.326 . S
In221 O232 2.294 . S
In221 O233 2.326 . S
O222 In221 2.294 . S
O222 C231 1.240 . S
O223 In221 2.326 . S
O223 C231 1.252 . S
C224 O227 1.252 . S
C224 O228 1.260 . S
C225 O232 1.240 . S
C225 O233 1.252 . S
C226 O229 1.252 . S
C226 O230 1.260 . S
O227 In221 2.266 . S
O227 C224 1.252 . S
O228 In221 2.326 . S
O228 C224 1.260 . S
O229 In221 2.266 . S
O229 C226 1.252 . S
O230 In221 2.326 . S
O230 C226 1.260 . S
C231 O222 1.240 . S
C231 O223 1.252 . S
O232 In221 2.294 . S
O232 C225 1.240 . S
O233 In221 2.326 . S
O233 C225 1.252 . S
In234 O235 2.294 . S
In234 O236 2.326 . S
In234 O240 2.266 . S
In234 O241 2.326 . S
In234 O242 2.266 . S
In234 O243 2.326 . S
In234 O245 2.294 . S
In234 O246 2.326 . S
O235 In234 2.294 . S
O235 C244 1.240 . S
O236 In234 2.326 . S
O236 C244 1.252 . S
C237 O240 1.252 . S
C237 O241 1.260 . S
C238 O245 1.240 . S
C238 O246 1.252 . S
C239 O242 1.252 . S
C239 O243 1.260 . S
O240 In234 2.266 . S
O240 C237 1.252 . S
O241 In234 2.326 . S
O241 C237 1.260 . S
O242 In234 2.266 . S
O242 C239 1.252 . S
O243 In234 2.326 . S
O243 C239 1.260 . S
C244 O235 1.240 . S
C244 O236 1.252 . S
O245 In234 2.294 . S
O245 C238 1.240 . S
O246 In234 2.326 . S
O246 C238 1.252 . S
In247 O248 2.294 . S
In247 O249 2.326 . S
In247 O253 2.266 . S
In247 O254 2.326 . S
In247 O255 2.266 . S
In247 O256 2.326 . S
In247 O258 2.294 . S
In247 O259 2.326 . S
O248 In247 2.294 . S
O248 C257 1.240 . S
O249 In247 2.326 . S
O249 C257 1.252 . S
C250 O253 1.252 . S
C250 O254 1.260 . S
C251 O258 1.240 . S
C251 O259 1.252 . S
C252 O255 1.252 . S
C252 O256 1.260 . S
O253 In247 2.266 . S
O253 C250 1.252 . S
O254 In247 2.326 . S
O254 C250 1.260 . S
O255 In247 2.266 . S
O255 C252 1.252 . S
O256 In247 2.326 . S
O256 C252 1.260 . S
C257 O248 1.240 . S
C257 O249 1.252 . S
O258 In247 2.294 . S
O258 C251 1.240 . S
O259 In247 2.326 . S
O259 C251 1.252 . S
In260 O261 2.294 . S
In260 O262 2.326 . S
In260 O266 2.266 . S
In260 O267 2.326 . S
In260 O268 2.266 1_554 S
In260 O269 2.326 1_554 S
In260 O271 2.294 . S
In260 O272 2.326 . S
O261 In260 2.294 . S
O261 C270 1.240 . S
O262 In260 2.326 . S
O262 C270 1.252 . S
C263 O266 1.252 . S
C263 O267 1.260 . S
C264 O271 1.240 . S
C264 O272 1.252 . S
C265 O268 1.252 . S
C265 O269 1.260 . S
O266 In260 2.266 . S
O266 C263 1.252 . S
O267 In260 2.326 . S
O267 C263 1.260 . S
O268 In260 2.266 1_556 S
O268 C265 1.252 . S
O269 In260 2.326 1_556 S
O269 C265 1.260 . S
C270 O261 1.240 . S
C270 O262 1.252 . S
O271 In260 2.294 . S
O271 C264 1.240 . S
O272 In260 2.326 . S
O272 C264 1.252 . S
In273 O274 2.294 . S
In273 O275 2.326 . S
In273 O279 2.266 . S
In273 O280 2.326 . S
In273 O281 2.266 . S
In273 O282 2.326 . S
In273 O284 2.294 . S
In273 O285 2.326 . S
O274 In273 2.294 . S
O274 C283 1.240 . S
O275 In273 2.326 . S
O275 C283 1.252 . S
C276 O279 1.252 . S
C276 O280 1.260 . S
C277 O284 1.240 . S
C277 O285 1.252 . S
C278 O281 1.252 . S
C278 O282 1.260 . S
O279 In273 2.266 . S
O279 C276 1.252 . S
O280 In273 2.326 . S
O280 C276 1.260 . S
O281 In273 2.266 . S
O281 C278 1.252 . S
O282 In273 2.326 . S
O282 C278 1.260 . S
C283 O274 1.240 . S
C283 O275 1.252 . S
O284 In273 2.294 . S
O284 C277 1.240 . S
O285 In273 2.326 . S
O285 C277 1.252 . S
In286 O287 2.294 . S
In286 O288 2.326 . S
In286 O292 2.266 . S
In286 O293 2.326 . S
In286 O294 2.266 . S
In286 O295 2.326 . S
In286 O297 2.294 . S
In286 O298 2.326 . S
O287 In286 2.294 . S
O287 C296 1.240 . S
O288 In286 2.326 . S
O288 C296 1.252 . S
C289 O292 1.252 . S
C289 O293 1.260 . S
C290 O297 1.240 . S
C290 O298 1.252 . S
C291 O294 1.252 . S
C291 O295 1.260 . S
O292 In286 2.266 . S
O292 C289 1.252 . S
O293 In286 2.326 . S
O293 C289 1.260 . S
O294 In286 2.266 . S
O294 C291 1.252 . S
O295 In286 2.326 . S
O295 C291 1.260 . S
C296 O287 1.240 . S
C296 O288 1.252 . S
O297 In286 2.294 . S
O297 C290 1.240 . S
O298 In286 2.326 . S
O298 C290 1.252 . S
In299 O300 2.294 . S
In299 O301 2.326 . S
In299 O305 2.266 . S
In299 O306 2.326 . S
In299 O307 2.266 . S
In299 O308 2.326 . S
In299 O310 2.294 . S
In299 O311 2.326 . S
O300 In299 2.294 . S
O300 C309 1.240 . S
O301 In299 2.326 . S
O301 C309 1.252 . S
C302 O305 1.252 . S
C302 O306 1.260 . S
C303 O310 1.240 . S
C303 O311 1.252 . S
C304 O307 1.252 . S
C304 O308 1.260 . S
O305 In299 2.266 . S
O305 C302 1.252 . S
O306 In299 2.326 . S
O306 C302 1.260 . S
O307 In299 2.266 . S
O307 C304 1.252 . S
O308 In299 2.326 . S
O308 C304 1.260 . S
C309 O300 1.240 . S
C309 O301 1.252 . S
O310 In299 2.294 . S
O310 C303 1.240 . S
O311 In299 2.326 . S
O311 C303 1.252 . S
Eu312 C321 2.828 . S
Eu312 O323 2.392 . S
Eu312 O325 2.418 . S
Eu312 O330 2.373 . S
Eu312 O333 2.488 . S
Eu312 O334 2.471 . S
Eu312 O335 2.349 1_554 S
Eu313 O322 2.373 . S
Eu313 O326 2.488 1_545 S
Eu313 O327 2.471 1_545 S
Eu313 O328 2.349 . S
Eu313 O331 2.392 . S
Eu313 O332 2.418 1_554 S
Eu313 C342 2.828 1_545 S
C314 O332 1.244 . S
C314 O335 1.265 . S
C315 C316 1.379 1_554 S
C315 C319 1.373 . S
C315 C321 1.505 . S
C316 C315 1.379 1_556 S
C316 C318 1.369 . S
C316 H344 0.930 . S
C317 C319 1.383 . S
C317 C320 1.382 . S
C317 H345 0.930 . S
C318 C316 1.369 . S
C318 C320 1.392 1_556 S
C318 H346 0.930 . S
C319 C315 1.373 . S
C319 C317 1.383 . S
C319 H347 0.931 . S
C320 C317 1.382 . S
C320 C318 1.392 1_554 S
C321 Eu312 2.828 . S
C321 C315 1.505 . S
C321 O333 1.249 . S
C321 O334 1.244 . S
O322 Eu313 2.373 . S
O322 C324 1.258 . S
O323 Eu312 2.392 . S
O323 C324 1.242 . S
C324 O322 1.258 . S
C324 O323 1.242 . S
O325 Eu312 2.418 . S
O325 C329 1.244 . S
O326 Eu313 2.488 1_565 S
O326 C342 1.249 . S
O327 Eu313 2.471 1_565 S
O327 C342 1.244 . S
O328 Eu313 2.349 . S
O328 C329 1.265 . S
C329 O325 1.244 . S
C329 O328 1.265 . S
O330 Eu312 2.373 . S
O330 C343 1.258 . S
O331 Eu313 2.392 . S
O331 C343 1.242 . S
O332 Eu313 2.418 1_556 S
O332 C314 1.244 . S
O333 Eu312 2.488 . S
O333 C321 1.249 . S
O334 Eu312 2.471 . S
O334 C321 1.244 . S
O335 Eu312 2.349 1_556 S
O335 C314 1.265 . S
C336 C337 1.379 . S
C336 C340 1.373 . S
C336 C342 1.505 . S
C337 C336 1.379 . S
C337 C339 1.369 . S
C337 H348 0.930 . S
C338 C340 1.383 . S
C338 C341 1.382 . S
C338 H349 0.930 . S
C339 C337 1.369 . S
C339 C341 1.392 . S
C339 H350 0.930 . S
C340 C336 1.373 . S
C340 C338 1.383 . S
C340 H351 0.950 . S
C341 C338 1.382 . S
C341 C339 1.392 . S
C342 Eu313 2.828 1_565 S
C342 O326 1.249 . S
C342 O327 1.244 . S
C342 C336 1.505 . S
C343 O330 1.258 . S
C343 O331 1.242 . S
H344 C316 0.930 . S
H345 C317 0.930 . S
H346 C318 0.930 . S
H347 C319 0.931 . S
H348 C337 0.930 . S
H349 C338 0.930 . S
H350 C339 0.930 . S
H351 C340 0.950 . S
Eu352 C361 2.828 . S
Eu352 O363 2.392 . S
Eu352 O365 2.418 . S
Eu352 O370 2.373 . S
Eu352 O373 2.488 . S
Eu352 O374 2.471 . S
Eu352 O375 2.349 . S
Eu353 O362 2.373 . S
Eu353 O366 2.488 . S
Eu353 O367 2.471 . S
Eu353 O368 2.349 . S
Eu353 O371 2.392 . S
Eu353 O372 2.418 . S
Eu353 C382 2.828 . S
C354 O372 1.244 . S
C354 O375 1.265 . S
C355 C356 1.379 . S
C355 C359 1.373 . S
C355 C361 1.505 . S
C356 C355 1.379 . S
C356 C358 1.369 . S
C356 H384 0.930 . S
C357 C359 1.383 . S
C357 C360 1.382 . S
C357 H385 0.930 . S
C358 C356 1.369 . S
C358 C360 1.392 . S
C358 H386 0.930 . S
C359 C355 1.373 . S
C359 C357 1.383 . S
C359 H387 0.931 . S
C360 C357 1.382 . S
C360 C358 1.392 . S
C361 Eu352 2.828 . S
C361 C355 1.505 . S
C361 O373 1.249 . S
C361 O374 1.244 . S
O362 Eu353 2.373 . S
O362 C364 1.258 . S
O363 Eu352 2.392 . S
O363 C364 1.242 . S
C364 O362 1.258 . S
C364 O363 1.242 . S
O365 Eu352 2.418 . S
O365 C369 1.244 . S
O366 Eu353 2.488 . S
O366 C382 1.249 . S
O367 Eu353 2.471 . S
O367 C382 1.244 . S
O368 Eu353 2.349 . S
O368 C369 1.265 . S
C369 O365 1.244 . S
C369 O368 1.265 . S
O370 Eu352 2.373 . S
O370 C383 1.258 . S
O371 Eu353 2.392 . S
O371 C383 1.242 . S
O372 Eu353 2.418 . S
O372 C354 1.244 . S
O373 Eu352 2.488 . S
O373 C361 1.249 . S
O374 Eu352 2.471 . S
O374 C361 1.244 . S
O375 Eu352 2.349 . S
O375 C354 1.265 . S
C376 C377 1.379 . S
C376 C380 1.373 . S
C376 C382 1.505 . S
C377 C376 1.379 . S
C377 C379 1.369 . S
C377 H388 0.930 . S
C378 C380 1.383 . S
C378 C381 1.382 . S
C378 H389 0.930 . S
C379 C377 1.369 . S
C379 C381 1.392 . S
C379 H390 0.930 . S
C380 C376 1.373 . S
C380 C378 1.383 . S
C380 H391 0.931 . S
C381 C378 1.382 . S
C381 C379 1.392 . S
C382 Eu353 2.828 . S
C382 O366 1.249 . S
C382 O367 1.244 . S
C382 C376 1.505 . S
C383 O370 1.258 . S
C383 O371 1.242 . S
H384 C356 0.930 . S
H385 C357 0.930 . S
H386 C358 0.930 . S
H387 C359 0.931 . S
H388 C377 0.930 . S
H389 C378 0.930 . S
H390 C379 0.930 . S
H391 C380 0.931 . S
Eu392 C401 2.828 . S
Eu392 O403 2.392 . S
Eu392 O405 2.418 . S
Eu392 O410 2.373 1_545 S
Eu392 O413 2.488 . S
Eu392 O414 2.471 . S
Eu392 O415 2.349 . S
Eu393 O402 2.373 . S
Eu393 O406 2.488 . S
Eu393 O407 2.471 . S
Eu393 O408 2.349 . S
Eu393 O411 2.392 1_545 S
Eu393 O412 2.418 . S
Eu393 C422 2.828 . S
C394 O412 1.244 . S
C394 O415 1.265 . S
C395 C396 1.379 . S
C395 C399 1.373 . S
C395 C401 1.505 1_565 S
C396 C395 1.379 . S
C396 C398 1.369 . S
C396 H424 0.930 . S
C397 C399 1.383 . S
C397 C400 1.382 . S
C397 H425 0.930 . S
C398 C396 1.369 . S
C398 C400 1.392 . S
C398 H426 0.930 . S
C399 C395 1.373 . S
C399 C397 1.383 . S
C399 H427 0.931 . S
C400 C397 1.382 . S
C400 C398 1.392 . S
C401 Eu392 2.828 . S
C401 C395 1.505 1_545 S
C401 O413 1.249 . S
C401 O414 1.244 . S
O402 Eu393 2.373 . S
O402 C404 1.258 . S
O403 Eu392 2.392 . S
O403 C404 1.242 . S
C404 O402 1.258 . S
C404 O403 1.242 . S
O405 Eu392 2.418 . S
O405 C409 1.244 . S
O406 Eu393 2.488 . S
O406 C422 1.249 . S
O407 Eu393 2.471 . S
O407 C422 1.244 . S
O408 Eu393 2.349 . S
O408 C409 1.265 . S
C409 O405 1.244 . S
C409 O408 1.265 . S
O410 Eu392 2.373 1_565 S
O410 C423 1.258 . S
O411 Eu393 2.392 1_565 S
O411 C423 1.242 . S
O412 Eu393 2.418 . S
O412 C394 1.244 . S
O413 Eu392 2.488 . S
O413 C401 1.249 . S
O414 Eu392 2.471 . S
O414 C401 1.244 . S
O415 Eu392 2.349 . S
O415 C394 1.265 . S
C416 C417 1.379 . S
C416 C420 1.373 . S
C416 C422 1.505 . S
C417 C416 1.379 . S
C417 C419 1.369 . S
C417 H428 0.930 . S
C418 C420 1.383 . S
C418 C421 1.382 . S
C418 H429 0.930 . S
C419 C417 1.369 . S
C419 C421 1.392 . S
C419 H430 0.930 . S
C420 C416 1.373 . S
C420 C418 1.383 . S
C420 H431 0.931 . S
C421 C418 1.382 . S
C421 C419 1.392 . S
C422 Eu393 2.828 . S
C422 O406 1.249 . S
C422 O407 1.244 . S
C422 C416 1.505 . S
C423 O410 1.258 . S
C423 O411 1.242 . S
H424 C396 0.930 . S
H425 C397 0.930 . S
H426 C398 0.930 . S
H427 C399 0.931 . S
H428 C417 0.930 . S
H429 C418 0.930 . S
H430 C419 0.930 . S
H431 C420 0.931 . S
Eu432 C441 2.828 . S
Eu432 O443 2.392 . S
Eu432 O445 2.418 . S
Eu432 O450 2.373 . S
Eu432 O453 2.488 . S
Eu432 O454 2.471 . S
Eu432 O455 2.349 . S
Eu433 O442 2.373 . S
Eu433 O446 2.488 . S
Eu433 O447 2.471 . S
Eu433 O448 2.349 . S
Eu433 O451 2.392 . S
Eu433 O452 2.418 . S
Eu433 C462 2.828 . S
C434 O452 1.244 . S
C434 O455 1.265 . S
C435 C436 1.379 . S
C435 C439 1.373 . S
C435 C441 1.505 . S
C436 C435 1.379 . S
C436 C438 1.369 . S
C436 H464 0.930 . S
C437 C439 1.383 . S
C437 C440 1.382 . S
C437 H465 0.930 . S
C438 C436 1.369 . S
C438 C440 1.392 . S
C438 H466 0.930 . S
C439 C435 1.373 . S
C439 C437 1.383 . S
C439 H467 0.931 . S
C440 C437 1.382 . S
C440 C438 1.392 . S
C441 Eu432 2.828 . S
C441 C435 1.505 . S
C441 O453 1.249 . S
C441 O454 1.244 . S
O442 Eu433 2.373 . S
O442 C444 1.258 . S
O443 Eu432 2.392 . S
O443 C444 1.242 . S
C444 O442 1.258 . S
C444 O443 1.242 . S
O445 Eu432 2.418 . S
O445 C449 1.244 . S
O446 Eu433 2.488 . S
O446 C462 1.249 . S
O447 Eu433 2.471 . S
O447 C462 1.244 . S
O448 Eu433 2.349 . S
O448 C449 1.265 . S
C449 O445 1.244 . S
C449 O448 1.265 . S
O450 Eu432 2.373 . S
O450 C463 1.258 . S
O451 Eu433 2.392 . S
O451 C463 1.242 . S
O452 Eu433 2.418 . S
O452 C434 1.244 . S
O453 Eu432 2.488 . S
O453 C441 1.249 . S
O454 Eu432 2.471 . S
O454 C441 1.244 . S
O455 Eu432 2.349 . S
O455 C434 1.265 . S
C456 C457 1.379 . S
C456 C460 1.373 . S
C456 C462 1.505 . S
C457 C456 1.379 . S
C457 C459 1.369 . S
C457 H468 0.930 . S
C458 C460 1.383 . S
C458 C461 1.382 . S
C458 H469 0.930 . S
C459 C457 1.369 . S
C459 C461 1.392 . S
C459 H470 0.930 . S
C460 C456 1.373 . S
C460 C458 1.383 . S
C460 H471 0.931 . S
C461 C458 1.382 . S
C461 C459 1.392 . S
C462 Eu433 2.828 . S
C462 O446 1.249 . S
C462 O447 1.244 . S
C462 C456 1.505 . S
C463 O450 1.258 . S
C463 O451 1.242 . S
H464 C436 0.930 . S
H465 C437 0.930 . S
H466 C438 0.930 . S
H467 C439 0.931 . S
H468 C457 0.930 . S
H469 C458 0.930 . S
H470 C459 0.930 . S
H471 C460 0.931 . S
Eu472 C481 2.828 . S
Eu472 O483 2.392 . S
Eu472 O485 2.418 . S
Eu472 O490 2.373 . S
Eu472 O493 2.488 . S
Eu472 O494 2.471 . S
Eu472 O495 2.349 . S
Eu473 O482 2.373 1_565 S
Eu473 O486 2.488 . S
Eu473 O487 2.471 . S
Eu473 O488 2.349 1_565 S
Eu473 O491 2.392 1_565 S
Eu473 O492 2.418 1_565 S
Eu473 C502 2.828 . S
C474 O492 1.244 . S
C474 O495 1.265 . S
C475 C476 1.379 . S
C475 C479 1.373 . S
C475 C481 1.505 . S
C476 C475 1.379 . S
C476 C478 1.369 . S
C476 H504 0.930 . S
C477 C479 1.383 . S
C477 C480 1.382 . S
C477 H505 0.930 . S
C478 C476 1.369 . S
C478 C480 1.392 . S
C478 H506 0.930 . S
C479 C475 1.373 . S
C479 C477 1.383 . S
C479 H507 0.931 . S
C480 C477 1.382 . S
C480 C478 1.392 . S
C481 Eu472 2.828 . S
C481 C475 1.505 . S
C481 O493 1.249 . S
C481 O494 1.244 . S
O482 Eu473 2.373 1_545 S
O482 C484 1.258 . S
O483 Eu472 2.392 . S
O483 C484 1.242 . S
C484 O482 1.258 . S
C484 O483 1.242 . S
O485 Eu472 2.418 . S
O485 C489 1.244 . S
O486 Eu473 2.488 . S
O486 C502 1.249 . S
O487 Eu473 2.471 . S
O487 C502 1.244 . S
O488 Eu473 2.349 1_545 S
O488 C489 1.265 . S
C489 O485 1.244 . S
C489 O488 1.265 . S
O490 Eu472 2.373 . S
O490 C503 1.258 . S
O491 Eu473 2.392 1_545 S
O491 C503 1.242 . S
O492 Eu473 2.418 1_545 S
O492 C474 1.244 . S
O493 Eu472 2.488 . S
O493 C481 1.249 . S
O494 Eu472 2.471 . S
O494 C481 1.244 . S
O495 Eu472 2.349 . S
O495 C474 1.265 . S
C496 C497 1.379 . S
C496 C500 1.373 . S
C496 C502 1.505 . S
C497 C496 1.379 . S
C497 C499 1.369 . S
C497 H508 0.930 . S
C498 C500 1.383 . S
C498 C501 1.382 . S
C498 H509 0.930 . S
C499 C497 1.369 . S
C499 C501 1.392 . S
C499 H510 0.930 . S
C500 C496 1.373 . S
C500 C498 1.383 . S
C500 H511 0.931 . S
C501 C498 1.382 . S
C501 C499 1.392 . S
C502 Eu473 2.828 . S
C502 O486 1.249 . S
C502 O487 1.244 . S
C502 C496 1.505 . S
C503 O490 1.258 . S
C503 O491 1.242 . S
H504 C476 0.930 . S
H505 C477 0.930 . S
H506 C478 0.930 . S
H507 C479 0.931 . S
H508 C497 0.930 . S
H509 C498 0.930 . S
H510 C499 0.930 . S
H511 C500 0.931 . S
Eu512 C521 2.828 . S
Eu512 O523 2.392 . S
Eu512 O525 2.418 . S
Eu512 O530 2.373 . S
Eu512 O533 2.488 . S
Eu512 O534 2.471 . S
Eu512 O535 2.349 . S
Eu513 O522 2.373 . S
Eu513 O526 2.488 . S
Eu513 O527 2.471 . S
Eu513 O528 2.349 . S
Eu513 O531 2.392 . S
Eu513 O532 2.418 . S
Eu513 C542 2.828 . S
C514 O532 1.244 . S
C514 O535 1.265 . S
C515 C516 1.379 . S
C515 C519 1.373 . S
C515 C521 1.505 . S
C516 C515 1.379 . S
C516 C518 1.369 . S
C516 H544 0.930 . S
C517 C519 1.383 . S
C517 C520 1.382 . S
C517 H545 0.930 . S
C518 C516 1.369 . S
C518 C520 1.392 . S
C518 H546 0.930 . S
C519 C515 1.373 . S
C519 C517 1.383 . S
C519 H547 0.931 . S
C520 C517 1.382 . S
C520 C518 1.392 . S
C521 Eu512 2.828 . S
C521 C515 1.505 . S
C521 O533 1.249 . S
C521 O534 1.244 . S
O522 Eu513 2.373 . S
O522 C524 1.258 . S
O523 Eu512 2.392 . S
O523 C524 1.242 . S
C524 O522 1.258 . S
C524 O523 1.242 . S
O525 Eu512 2.418 . S
O525 C529 1.244 . S
O526 Eu513 2.488 . S
O526 C542 1.249 . S
O527 Eu513 2.471 . S
O527 C542 1.244 . S
O528 Eu513 2.349 . S
O528 C529 1.265 . S
C529 O525 1.244 . S
C529 O528 1.265 . S
O530 Eu512 2.373 . S
O530 C543 1.258 . S
O531 Eu513 2.392 . S
O531 C543 1.242 . S
O532 Eu513 2.418 . S
O532 C514 1.244 . S
O533 Eu512 2.488 . S
O533 C521 1.249 . S
O534 Eu512 2.471 . S
O534 C521 1.244 . S
O535 Eu512 2.349 . S
O535 C514 1.265 . S
C536 C537 1.379 . S
C536 C540 1.373 . S
C536 C542 1.505 . S
C537 C536 1.379 . S
C537 C539 1.369 . S
C537 H548 0.930 . S
C538 C540 1.383 . S
C538 C541 1.382 . S
C538 H549 0.930 . S
C539 C537 1.369 . S
C539 C541 1.392 . S
C539 H550 0.930 . S
C540 C536 1.373 . S
C540 C538 1.383 . S
C540 H551 0.931 . S
C541 C538 1.382 . S
C541 C539 1.392 . S
C542 Eu513 2.828 . S
C542 O526 1.249 . S
C542 O527 1.244 . S
C542 C536 1.505 . S
C543 O530 1.258 . S
C543 O531 1.242 . S
H544 C516 0.930 . S
H545 C517 0.930 . S
H546 C518 0.930 . S
H547 C519 0.931 . S
H548 C537 0.930 . S
H549 C538 0.930 . S
H550 C539 0.930 . S
H551 C540 0.931 . S
Eu552 C561 2.828 . S
Eu552 O563 2.392 . S
Eu552 O565 2.418 1_545 S
Eu552 O570 2.373 . S
Eu552 O573 2.488 . S
Eu552 O574 2.471 . S
Eu552 O575 2.349 . S
Eu553 O562 2.373 1_556 S
Eu553 O566 2.488 . S
Eu553 O567 2.471 . S
Eu553 O568 2.349 . S
Eu553 O571 2.392 . S
Eu553 O572 2.418 1_556 S
Eu553 C582 2.828 . S
C554 O572 1.244 . S
C554 O575 1.265 . S
C555 C556 1.379 . S
C555 C559 1.353 1_545 S
C555 C561 1.505 . S
C556 C555 1.379 . S
C556 C558 1.369 . S
C556 H584 0.930 . S
C557 C559 1.389 . S
C557 C560 1.382 1_565 S
C557 H585 0.930 . S
C558 C556 1.369 . S
C558 C560 1.392 . S
C558 H586 0.930 . S
C559 C555 1.353 1_565 S
C559 C557 1.389 . S
C559 H587 0.945 . S
C560 C557 1.382 1_545 S
C560 C558 1.392 . S
C561 Eu552 2.828 . S
C561 C555 1.505 . S
C561 O573 1.249 . S
C561 O574 1.244 . S
O562 Eu553 2.373 1_554 S
O562 C564 1.258 . S
O563 Eu552 2.392 . S
O563 C564 1.242 . S
C564 O562 1.258 . S
C564 O563 1.242 . S
O565 Eu552 2.418 1_565 S
O565 C569 1.244 1_565 S
O566 Eu553 2.488 . S
O566 C582 1.249 . S
O567 Eu553 2.471 . S
O567 C582 1.244 . S
O568 Eu553 2.349 . S
O568 C569 1.265 1_556 S
C569 O565 1.244 1_545 S
C569 O568 1.265 1_554 S
O570 Eu552 2.373 . S
O570 C583 1.258 . S
O571 Eu553 2.392 . S
O571 C583 1.242 1_556 S
O572 Eu553 2.418 1_554 S
O572 C554 1.244 . S
O573 Eu552 2.488 . S
O573 C561 1.249 . S
O574 Eu552 2.471 . S
O574 C561 1.244 . S
O575 Eu552 2.349 . S
O575 C554 1.265 . S
C576 C577 1.379 . S
C576 C580 1.373 . S
C576 C582 1.505 . S
C577 C576 1.379 . S
C577 C579 1.369 . S
C577 H588 0.930 . S
C578 C580 1.383 . S
C578 C581 1.382 . S
C578 H589 0.930 . S
C579 C577 1.369 . S
C579 C581 1.392 . S
C579 H590 0.930 . S
C580 C576 1.373 . S
C580 C578 1.383 . S
C580 H591 0.931 . S
C581 C578 1.382 . S
C581 C579 1.392 . S
C582 Eu553 2.828 . S
C582 O566 1.249 . S
C582 O567 1.244 . S
C582 C576 1.505 . S
C583 O570 1.258 . S
C583 O571 1.242 1_554 S
H584 C556 0.930 . S
H585 C557 0.930 . S
H586 C558 0.930 . S
H587 C559 0.945 . S
H588 C577 0.930 . S
H589 C578 0.930 . S
H590 C579 0.930 . S
H591 C580 0.931 . S
Eu592 C601 2.828 . S
Eu592 O603 2.392 . S
Eu592 O605 2.418 . S
Eu592 O610 2.373 . S
Eu592 O613 2.488 . S
Eu592 O614 2.471 . S
Eu592 O615 2.349 . S
Eu593 O602 2.373 . S
Eu593 O606 2.488 . S
Eu593 O607 2.471 . S
Eu593 O608 2.349 . S
Eu593 O611 2.392 . S
Eu593 O612 2.418 . S
Eu593 C622 2.828 . S
C594 O612 1.244 . S
C594 O615 1.265 . S
C595 C596 1.379 . S
C595 C599 1.373 . S
C595 C601 1.505 . S
C596 C595 1.379 . S
C596 C598 1.369 . S
C596 H624 0.930 . S
C597 C599 1.383 . S
C597 C600 1.382 . S
C597 H625 0.930 . S
C598 C596 1.369 . S
C598 C600 1.392 . S
C598 H626 0.930 . S
C599 C595 1.373 . S
C599 C597 1.383 . S
C599 H627 0.931 . S
C600 C597 1.382 . S
C600 C598 1.392 . S
C601 Eu592 2.828 . S
C601 C595 1.505 . S
C601 O613 1.249 . S
C601 O614 1.244 . S
O602 Eu593 2.373 . S
O602 C604 1.258 . S
O603 Eu592 2.392 . S
O603 C604 1.242 . S
C604 O602 1.258 . S
C604 O603 1.242 . S
O605 Eu592 2.418 . S
O605 C609 1.244 . S
O606 Eu593 2.488 . S
O606 C622 1.249 . S
O607 Eu593 2.471 . S
O607 C622 1.244 . S
O608 Eu593 2.349 . S
O608 C609 1.265 . S
C609 O605 1.244 . S
C609 O608 1.265 . S
O610 Eu592 2.373 . S
O610 C623 1.258 . S
O611 Eu593 2.392 . S
O611 C623 1.242 . S
O612 Eu593 2.418 . S
O612 C594 1.244 . S
O613 Eu592 2.488 . S
O613 C601 1.249 . S
O614 Eu592 2.471 . S
O614 C601 1.244 . S
O615 Eu592 2.349 . S
O615 C594 1.265 . S
C616 C617 1.379 . S
C616 C620 1.373 . S
C616 C622 1.505 . S
C617 C616 1.379 . S
C617 C619 1.369 . S
C617 H628 0.930 . S
C618 C620 1.383 . S
C618 C621 1.382 . S
C618 H629 0.930 . S
C619 C617 1.369 . S
C619 C621 1.392 . S
C619 H630 0.930 . S
C620 C616 1.373 . S
C620 C618 1.383 . S
C620 H631 0.931 . S
C621 C618 1.382 . S
C621 C619 1.392 . S
C622 Eu593 2.828 . S
C622 O606 1.249 . S
C622 O607 1.244 . S
C622 C616 1.505 . S
C623 O610 1.258 . S
C623 O611 1.242 . S
H624 C596 0.930 . S
H625 C597 0.930 . S
H626 C598 0.930 . S
H627 C599 0.931 . S
H628 C617 0.930 . S
H629 C618 0.930 . S
H630 C619 0.930 . S
H631 C620 0.931 . S
Eu632 C641 2.828 . S
Eu632 O643 2.392 . S
Eu632 O645 2.418 . S
Eu632 O650 2.373 1_554 S
Eu632 O653 2.488 . S
Eu632 O654 2.471 . S
Eu632 O655 2.349 . S
Eu633 O642 2.373 1_556 S
Eu633 O646 2.488 1_556 S
Eu633 O647 2.471 1_556 S
Eu633 O648 2.349 1_556 S
Eu633 O651 2.392 . S
Eu633 O652 2.418 . S
Eu633 C662 2.828 1_556 S
C634 O652 1.243 1_554 S
C634 O655 1.265 . S
C635 C636 1.379 . S
C635 C639 1.372 1_556 S
C635 C641 1.505 1_556 S
C636 C635 1.379 . S
C636 C638 1.369 . S
C636 H664 0.930 . S
C637 C639 1.378 1_556 S
C637 C640 1.382 . S
C637 H665 0.930 . S
C638 C636 1.369 . S
C638 C640 1.392 . S
C638 H666 0.930 . S
C639 C635 1.372 1_554 S
C639 C637 1.378 1_554 S
C639 H667 0.937 . S
C640 C637 1.382 . S
C640 C638 1.392 . S
C641 Eu632 2.828 . S
C641 C635 1.505 1_554 S
C641 O653 1.249 . S
C641 O654 1.244 . S
O642 Eu633 2.373 1_554 S
O642 C644 1.258 . S
O643 Eu632 2.392 . S
O643 C644 1.242 . S
C644 O642 1.258 . S
C644 O643 1.242 . S
O645 Eu632 2.418 . S
O645 C649 1.244 . S
O646 Eu633 2.488 1_554 S
O646 C662 1.249 . S
O647 Eu633 2.471 1_554 S
O647 C662 1.244 . S
O648 Eu633 2.349 1_554 S
O648 C649 1.265 . S
C649 O645 1.244 . S
C649 O648 1.265 . S
O650 Eu632 2.373 1_556 S
O650 C663 1.258 . S
O651 Eu633 2.392 . S
O651 C663 1.242 . S
O652 Eu633 2.418 . S
O652 C634 1.243 1_556 S
O653 Eu632 2.488 . S
O653 C641 1.249 . S
O654 Eu632 2.471 . S
O654 C641 1.244 . S
O655 Eu632 2.349 . S
O655 C634 1.265 . S
C656 C657 1.379 . S
C656 C660 1.373 . S
C656 C662 1.505 . S
C657 C656 1.379 . S
C657 C659 1.369 . S
C657 H668 0.930 . S
C658 C660 1.383 . S
C658 C661 1.382 . S
C658 H669 0.930 . S
C659 C657 1.369 . S
C659 C661 1.392 . S
C659 H670 0.930 . S
C660 C656 1.373 . S
C660 C658 1.383 . S
C660 H671 0.931 . S
C661 C658 1.382 . S
C661 C659 1.392 . S
C662 Eu633 2.828 1_554 S
C662 O646 1.249 . S
C662 O647 1.244 . S
C662 C656 1.505 . S
C663 O650 1.258 . S
C663 O651 1.242 . S
H664 C636 0.930 . S
H665 C637 0.930 . S
H666 C638 0.930 . S
H667 C639 0.937 . S
H668 C657 0.930 . S
H669 C658 0.930 . S
H670 C659 0.930 . S
H671 C660 0.931 . S
Eu672 C681 2.828 . S
Eu672 O683 2.392 . S
Eu672 O685 2.418 . S
Eu672 O690 2.373 . S
Eu672 O693 2.488 . S
Eu672 O694 2.471 . S
Eu672 O695 2.349 . S
Eu673 O682 2.373 . S
Eu673 O686 2.488 . S
Eu673 O687 2.471 . S
Eu673 O688 2.349 . S
Eu673 O691 2.392 . S
Eu673 O692 2.418 . S
Eu673 C702 2.828 . S
C674 O692 1.244 . S
C674 O695 1.265 . S
C675 C676 1.379 . S
C675 C679 1.373 . S
C675 C681 1.505 . S
C676 C675 1.379 . S
C676 C678 1.369 . S
C676 H704 0.930 . S
C677 C679 1.383 1_455 S
C677 C680 1.382 . S
C677 H705 0.930 . S
C678 C676 1.369 . S
C678 C680 1.392 1_655 S
C678 H706 0.930 . S
C679 C675 1.373 . S
C679 C677 1.383 1_655 S
C679 H707 0.931 . S
C680 C677 1.382 . S
C680 C678 1.392 1_455 S
C681 Eu672 2.828 . S
C681 C675 1.505 . S
C681 O693 1.249 . S
C681 O694 1.244 . S
O682 Eu673 2.373 . S
O682 C684 1.258 . S
O683 Eu672 2.392 . S
O683 C684 1.242 . S
C684 O682 1.258 . S
C684 O683 1.242 . S
O685 Eu672 2.418 . S
O685 C689 1.244 . S
O686 Eu673 2.488 . S
O686 C702 1.249 . S
O687 Eu673 2.471 . S
O687 C702 1.244 . S
O688 Eu673 2.349 . S
O688 C689 1.265 . S
C689 O685 1.244 . S
C689 O688 1.265 . S
O690 Eu672 2.373 . S
O690 C703 1.258 . S
O691 Eu673 2.392 . S
O691 C703 1.242 . S
O692 Eu673 2.418 . S
O692 C674 1.244 . S
O693 Eu672 2.488 . S
O693 C681 1.249 . S
O694 Eu672 2.471 . S
O694 C681 1.244 . S
O695 Eu672 2.349 . S
O695 C674 1.265 . S
C696 C697 1.379 . S
C696 C700 1.373 . S
C696 C702 1.505 . S
C697 C696 1.379 . S
C697 C699 1.369 . S
C697 H708 0.930 . S
C698 C700 1.383 . S
C698 C701 1.382 . S
C698 H709 0.930 . S
C699 C697 1.369 . S
C699 C701 1.392 . S
C699 H710 0.930 . S
C700 C696 1.373 . S
C700 C698 1.383 . S
C700 H711 0.931 . S
C701 C698 1.382 . S
C701 C699 1.392 . S
C702 Eu673 2.828 . S
C702 O686 1.249 . S
C702 O687 1.244 . S
C702 C696 1.505 . S
C703 O690 1.258 . S
C703 O691 1.242 . S
H704 C676 0.930 . S
H705 C677 0.930 . S
H706 C678 0.930 . S
H707 C679 0.931 . S
H708 C697 0.930 . S
H709 C698 0.930 . S
H710 C699 0.930 . S
H711 C700 0.931 . S
Eu712 C721 2.828 . S
Eu712 O723 2.392 . S
Eu712 O725 2.418 . S
Eu712 O730 2.373 . S
Eu712 O733 2.488 . S
Eu712 O734 2.471 . S
Eu712 O735 2.349 . S
Eu713 O722 2.373 . S
Eu713 O726 2.488 . S
Eu713 O727 2.471 . S
Eu713 O728 2.349 . S
Eu713 O731 2.392 . S
Eu713 O732 2.418 . S
Eu713 C742 2.828 . S
C714 O732 1.244 . S
C714 O735 1.265 . S
C715 C716 1.379 1_455 S
C715 C719 1.373 . S
C715 C721 1.505 . S
C716 C715 1.379 1_655 S
C716 C718 1.369 . S
C716 H744 0.930 . S
C717 C719 1.383 1_655 S
C717 C720 1.382 . S
C717 H745 0.930 . S
C718 C716 1.369 . S
C718 C720 1.392 . S
C718 H746 0.930 . S
C719 C715 1.373 . S
C719 C717 1.383 1_455 S
C719 H747 0.931 . S
C720 C717 1.382 . S
C720 C718 1.392 . S
C721 Eu712 2.828 . S
C721 C715 1.505 . S
C721 O733 1.249 . S
C721 O734 1.244 . S
O722 Eu713 2.373 . S
O722 C724 1.258 . S
O723 Eu712 2.392 . S
O723 C724 1.242 . S
C724 O722 1.258 . S
C724 O723 1.242 . S
O725 Eu712 2.418 . S
O725 C729 1.244 . S
O726 Eu713 2.488 . S
O726 C742 1.249 . S
O727 Eu713 2.471 . S
O727 C742 1.244 . S
O728 Eu713 2.349 . S
O728 C729 1.265 . S
C729 O725 1.244 . S
C729 O728 1.265 . S
O730 Eu712 2.373 . S
O730 C743 1.258 1_455 S
O731 Eu713 2.392 . S
O731 C743 1.242 1_455 S
O732 Eu713 2.418 . S
O732 C714 1.244 . S
O733 Eu712 2.488 . S
O733 C721 1.249 . S
O734 Eu712 2.471 . S
O734 C721 1.244 . S
O735 Eu712 2.349 . S
O735 C714 1.265 . S
C736 C737 1.379 . S
C736 C740 1.373 . S
C736 C742 1.505 . S
C737 C736 1.379 . S
C737 C739 1.369 . S
C737 H748 0.930 . S
C738 C740 1.383 . S
C738 C741 1.382 . S
C738 H749 0.930 . S
C739 C737 1.369 . S
C739 C741 1.392 . S
C739 H750 0.930 . S
C740 C736 1.373 . S
C740 C738 1.383 . S
C740 H751 0.931 . S
C741 C738 1.382 . S
C741 C739 1.392 . S
C742 Eu713 2.828 . S
C742 O726 1.249 . S
C742 O727 1.244 . S
C742 C736 1.505 . S
C743 O730 1.258 1_655 S
C743 O731 1.242 1_655 S
H744 C716 0.930 . S
H745 C717 0.930 . S
H746 C718 0.930 . S
H747 C719 0.931 . S
H748 C737 0.930 . S
H749 C738 0.930 . S
H750 C739 0.930 . S
H751 C740 0.931 . S
Eu752 C761 2.828 . S
Eu752 O763 2.392 . S
Eu752 O765 2.418 . S
Eu752 O770 2.373 . S
Eu752 O773 2.488 . S
Eu752 O774 2.471 . S
Eu752 O775 2.349 . S
Eu753 O762 2.373 . S
Eu753 O766 2.488 . S
Eu753 O767 2.471 . S
Eu753 O768 2.349 . S
Eu753 O771 2.392 . S
Eu753 O772 2.418 . S
Eu753 C782 2.828 . S
C754 O772 1.244 . S
C754 O775 1.265 . S
C755 C756 1.379 . S
C755 C759 1.373 . S
C755 C761 1.505 . S
C756 C755 1.379 . S
C756 C758 1.369 . S
C756 H784 0.930 . S
C757 C759 1.383 . S
C757 C760 1.382 . S
C757 H785 0.930 . S
C758 C756 1.369 . S
C758 C760 1.392 . S
C758 H786 0.930 . S
C759 C755 1.373 . S
C759 C757 1.383 . S
C759 H787 0.931 . S
C760 C757 1.382 . S
C760 C758 1.392 . S
C761 Eu752 2.828 . S
C761 C755 1.505 . S
C761 O773 1.249 . S
C761 O774 1.244 . S
O762 Eu753 2.373 . S
O762 C764 1.258 . S
O763 Eu752 2.392 . S
O763 C764 1.242 . S
C764 O762 1.258 . S
C764 O763 1.242 . S
O765 Eu752 2.418 . S
O765 C769 1.244 . S
O766 Eu753 2.488 . S
O766 C782 1.249 . S
O767 Eu753 2.471 . S
O767 C782 1.244 . S
O768 Eu753 2.349 . S
O768 C769 1.265 . S
C769 O765 1.244 . S
C769 O768 1.265 . S
O770 Eu752 2.373 . S
O770 C783 1.258 . S
O771 Eu753 2.392 . S
O771 C783 1.242 . S
O772 Eu753 2.418 . S
O772 C754 1.244 . S
O773 Eu752 2.488 . S
O773 C761 1.249 . S
O774 Eu752 2.471 . S
O774 C761 1.244 . S
O775 Eu752 2.349 . S
O775 C754 1.265 . S
C776 C777 1.379 . S
C776 C780 1.373 . S
C776 C782 1.505 . S
C777 C776 1.379 . S
C777 C779 1.369 . S
C777 H788 0.930 . S
C778 C780 1.383 . S
C778 C781 1.382 . S
C778 H789 0.930 . S
C779 C777 1.369 . S
C779 C781 1.392 . S
C779 H790 0.930 . S
C780 C776 1.373 . S
C780 C778 1.383 . S
C780 H791 0.931 . S
C781 C778 1.382 . S
C781 C779 1.392 . S
C782 Eu753 2.828 . S
C782 O766 1.249 . S
C782 O767 1.244 . S
C782 C776 1.505 . S
C783 O770 1.258 . S
C783 O771 1.242 . S
H784 C756 0.930 . S
H785 C757 0.930 . S
H786 C758 0.930 . S
H787 C759 0.931 . S
H788 C777 0.930 . S
H789 C778 0.930 . S
H790 C779 0.930 . S
H791 C780 0.931 . S
Eu792 C801 2.828 . S
Eu792 O803 2.392 . S
Eu792 O805 2.418 . S
Eu792 O810 2.373 . S
Eu792 O813 2.488 . S
Eu792 O814 2.471 . S
Eu792 O815 2.349 . S
Eu793 O802 2.373 . S
Eu793 O806 2.488 . S
Eu793 O807 2.471 . S
Eu793 O808 2.349 . S
Eu793 O811 2.392 . S
Eu793 O812 2.418 . S
Eu793 C822 2.828 . S
C794 O812 1.244 . S
C794 O815 1.265 . S
C795 C796 1.379 . S
C795 C799 1.373 . S
C795 C801 1.505 . S
C796 C795 1.379 . S
C796 C798 1.369 . S
C796 H824 0.930 . S
C797 C799 1.383 . S
C797 C800 1.382 . S
C797 H825 0.930 . S
C798 C796 1.369 . S
C798 C800 1.392 . S
C798 H826 0.930 . S
C799 C795 1.373 . S
C799 C797 1.383 . S
C799 H827 0.931 . S
C800 C797 1.382 . S
C800 C798 1.392 . S
C801 Eu792 2.828 . S
C801 C795 1.505 . S
C801 O813 1.249 . S
C801 O814 1.244 . S
O802 Eu793 2.373 . S
O802 C804 1.258 . S
O803 Eu792 2.392 . S
O803 C804 1.242 . S
C804 O802 1.258 . S
C804 O803 1.242 . S
O805 Eu792 2.418 . S
O805 C809 1.244 . S
O806 Eu793 2.488 . S
O806 C822 1.249 . S
O807 Eu793 2.471 . S
O807 C822 1.244 . S
O808 Eu793 2.349 . S
O808 C809 1.265 . S
C809 O805 1.244 . S
C809 O808 1.265 . S
O810 Eu792 2.373 . S
O810 C823 1.258 . S
O811 Eu793 2.392 . S
O811 C823 1.242 . S
O812 Eu793 2.418 . S
O812 C794 1.244 . S
O813 Eu792 2.488 . S
O813 C801 1.249 . S
O814 Eu792 2.471 . S
O814 C801 1.244 . S
O815 Eu792 2.349 . S
O815 C794 1.265 . S
C816 C817 1.379 . S
C816 C820 1.373 . S
C816 C822 1.505 . S
C817 C816 1.379 . S
C817 C819 1.369 . S
C817 H828 0.930 . S
C818 C820 1.383 . S
C818 C821 1.382 . S
C818 H829 0.930 . S
C819 C817 1.369 . S
C819 C821 1.392 . S
C819 H830 0.930 . S
C820 C816 1.373 . S
C820 C818 1.383 . S
C820 H831 0.931 . S
C821 C818 1.382 . S
C821 C819 1.392 . S
C822 Eu793 2.828 . S
C822 O806 1.249 . S
C822 O807 1.244 . S
C822 C816 1.505 . S
C823 O810 1.258 . S
C823 O811 1.242 . S
H824 C796 0.930 . S
H825 C797 0.930 . S
H826 C798 0.930 . S
H827 C799 0.931 . S
H828 C817 0.930 . S
H829 C818 0.930 . S
H830 C819 0.930 . S
H831 C820 0.931 . S
Eu832 C841 2.828 . S
Eu832 O843 2.392 . S
Eu832 O845 2.418 . S
Eu832 O850 2.373 . S
Eu832 O853 2.488 . S
Eu832 O854 2.471 . S
Eu832 O855 2.349 . S
Eu833 O842 2.373 . S
Eu833 O846 2.488 . S
Eu833 O847 2.471 . S
Eu833 O848 2.349 . S
Eu833 O851 2.392 . S
Eu833 O852 2.418 . S
Eu833 C862 2.828 . S
C834 O852 1.244 . S
C834 O855 1.265 . S
C835 C836 1.379 . S
C835 C839 1.373 . S
C835 C841 1.505 . S
C836 C835 1.379 . S
C836 C838 1.369 . S
C836 H864 0.930 . S
C837 C839 1.383 . S
C837 C840 1.382 . S
C837 H865 0.930 . S
C838 C836 1.369 . S
C838 C840 1.392 . S
C838 H866 0.930 . S
C839 C835 1.373 . S
C839 C837 1.383 . S
C839 H867 0.931 . S
C840 C837 1.382 . S
C840 C838 1.392 . S
C841 Eu832 2.828 . S
C841 C835 1.505 . S
C841 O853 1.249 . S
C841 O854 1.244 . S
O842 Eu833 2.373 . S
O842 C844 1.258 . S
O843 Eu832 2.392 . S
O843 C844 1.242 . S
C844 O842 1.258 . S
C844 O843 1.242 . S
O845 Eu832 2.418 . S
O845 C849 1.244 . S
O846 Eu833 2.488 . S
O846 C862 1.249 . S
O847 Eu833 2.471 . S
O847 C862 1.244 . S
O848 Eu833 2.349 . S
O848 C849 1.265 . S
C849 O845 1.244 . S
C849 O848 1.265 . S
O850 Eu832 2.373 . S
O850 C863 1.258 . S
O851 Eu833 2.392 . S
O851 C863 1.242 . S
O852 Eu833 2.418 . S
O852 C834 1.244 . S
O853 Eu832 2.488 . S
O853 C841 1.249 . S
O854 Eu832 2.471 . S
O854 C841 1.244 . S
O855 Eu832 2.349 . S
O855 C834 1.265 . S
C856 C857 1.379 . S
C856 C860 1.373 . S
C856 C862 1.505 . S
C857 C856 1.379 . S
C857 C859 1.369 . S
C857 H868 0.930 . S
C858 C860 1.383 . S
C858 C861 1.382 . S
C858 H869 0.930 . S
C859 C857 1.369 . S
C859 C861 1.392 . S
C859 H870 0.930 . S
C860 C856 1.373 . S
C860 C858 1.383 . S
C860 H871 0.931 . S
C861 C858 1.382 . S
C861 C859 1.392 . S
C862 Eu833 2.828 . S
C862 O846 1.249 . S
C862 O847 1.244 . S
C862 C856 1.505 . S
C863 O850 1.258 . S
C863 O851 1.242 . S
H864 C836 0.930 . S
H865 C837 0.930 . S
H866 C838 0.930 . S
H867 C839 0.931 . S
H868 C857 0.930 . S
H869 C858 0.930 . S
H870 C859 0.930 . S
H871 C860 0.931 . S
Eu872 C881 2.828 . S
Eu872 O883 2.392 . S
Eu872 O885 2.418 . S
Eu872 O890 2.373 . S
Eu872 O893 2.488 . S
Eu872 O894 2.471 . S
Eu872 O895 2.349 . S
Eu873 O882 2.373 . S
Eu873 O886 2.488 . S
Eu873 O887 2.471 . S
Eu873 O888 2.349 . S
Eu873 O891 2.392 . S
Eu873 O892 2.418 . S
Eu873 C902 2.828 . S
C874 O892 1.244 . S
C874 O895 1.265 . S
C875 C876 1.379 . S
C875 C879 1.373 . S
C875 C881 1.505 . S
C876 C875 1.379 . S
C876 C878 1.369 . S
C876 H904 0.930 . S
C877 C879 1.383 . S
C877 C880 1.382 . S
C877 H905 0.930 . S
C878 C876 1.369 . S
C878 C880 1.392 . S
C878 H906 0.930 . S
C879 C875 1.373 . S
C879 C877 1.383 . S
C879 H907 0.931 . S
C880 C877 1.382 . S
C880 C878 1.392 . S
C881 Eu872 2.828 . S
C881 C875 1.505 . S
C881 O893 1.249 . S
C881 O894 1.244 . S
O882 Eu873 2.373 . S
O882 C884 1.258 . S
O883 Eu872 2.392 . S
O883 C884 1.242 . S
C884 O882 1.258 . S
C884 O883 1.242 . S
O885 Eu872 2.418 . S
O885 C889 1.244 . S
O886 Eu873 2.488 . S
O886 C902 1.249 . S
O887 Eu873 2.471 . S
O887 C902 1.244 . S
O888 Eu873 2.349 . S
O888 C889 1.265 . S
C889 O885 1.244 . S
C889 O888 1.265 . S
O890 Eu872 2.373 . S
O890 C903 1.258 . S
O891 Eu873 2.392 . S
O891 C903 1.242 . S
O892 Eu873 2.418 . S
O892 C874 1.244 . S
O893 Eu872 2.488 . S
O893 C881 1.249 . S
O894 Eu872 2.471 . S
O894 C881 1.244 . S
O895 Eu872 2.349 . S
O895 C874 1.265 . S
C896 C897 1.379 . S
C896 C900 1.373 . S
C896 C902 1.505 . S
C897 C896 1.379 . S
C897 C899 1.369 . S
C897 H908 0.930 . S
C898 C900 1.383 . S
C898 C901 1.382 . S
C898 H909 0.930 . S
C899 C897 1.369 . S
C899 C901 1.392 . S
C899 H910 0.930 . S
C900 C896 1.373 . S
C900 C898 1.383 . S
C900 H911 0.931 . S
C901 C898 1.382 . S
C901 C899 1.392 . S
C902 Eu873 2.828 . S
C902 O886 1.249 . S
C902 O887 1.244 . S
C902 C896 1.505 . S
C903 O890 1.258 . S
C903 O891 1.242 . S
H904 C876 0.930 . S
H905 C877 0.930 . S
H906 C878 0.930 . S
H907 C879 0.931 . S
H908 C897 0.930 . S
H909 C898 0.930 . S
H910 C899 0.930 . S
H911 C900 0.931 . S
Eu912 C921 2.828 . S
Eu912 O923 2.392 . S
Eu912 O925 2.418 1_554 S
Eu912 O930 2.373 . S
Eu912 O933 2.488 1_554 S
Eu912 O934 2.471 . S
Eu912 O935 2.349 . S
Eu913 O922 2.373 . S
Eu913 O926 2.488 1_455 S
Eu913 O927 2.471 1_455 S
Eu913 O928 2.349 . S
Eu913 O931 2.392 . S
Eu913 O932 2.418 . S
Eu913 C942 2.828 1_455 S
C914 O932 1.244 . S
C914 O935 1.265 . S
C915 C916 1.379 . S
C915 C919 1.373 1_554 S
C915 C921 1.505 . S
C916 C915 1.379 . S
C916 C918 1.369 . S
C916 H944 0.930 . S
C917 C919 1.383 . S
C917 C920 1.382 . S
C917 H945 0.930 . S
C918 C916 1.369 . S
C918 C920 1.392 1_554 S
C918 H946 0.930 . S
C919 C915 1.373 1_556 S
C919 C917 1.383 . S
C919 H947 0.931 . S
C920 C917 1.382 . S
C920 C918 1.392 1_556 S
C921 Eu912 2.828 . S
C921 C915 1.505 . S
C921 O933 1.249 1_554 S
C921 O934 1.244 . S
O922 Eu913 2.373 . S
O922 C924 1.258 . S
O923 Eu912 2.392 . S
O923 C924 1.242 . S
C924 O922 1.258 . S
C924 O923 1.242 . S
O925 Eu912 2.418 1_556 S
O925 C929 1.244 . S
O926 Eu913 2.488 1_655 S
O926 C942 1.249 . S
O927 Eu913 2.471 1_655 S
O927 C942 1.244 . S
O928 Eu913 2.349 . S
O928 C929 1.265 1_554 S
C929 O925 1.244 . S
C929 O928 1.265 1_556 S
O930 Eu912 2.373 . S
O930 C943 1.258 . S
O931 Eu913 2.392 . S
O931 C943 1.242 . S
O932 Eu913 2.418 . S
O932 C914 1.244 . S
O933 Eu912 2.488 1_556 S
O933 C921 1.249 1_556 S
O934 Eu912 2.471 . S
O934 C921 1.244 . S
O935 Eu912 2.349 . S
O935 C914 1.265 . S
C936 C937 1.379 . S
C936 C940 1.373 . S
C936 C942 1.505 . S
C937 C936 1.379 . S
C937 C939 1.369 . S
C937 H948 0.930 . S
C938 C940 1.383 . S
C938 C941 1.382 . S
C938 H949 0.930 . S
C939 C937 1.369 . S
C939 C941 1.392 . S
C939 H950 0.930 . S
C940 C936 1.373 . S
C940 C938 1.383 . S
C940 H951 0.931 . S
C941 C938 1.382 . S
C941 C939 1.392 . S
C942 Eu913 2.828 1_655 S
C942 O926 1.249 . S
C942 O927 1.244 . S
C942 C936 1.505 . S
C943 O930 1.258 . S
C943 O931 1.242 . S
H944 C916 0.930 . S
H945 C917 0.930 . S
H946 C918 0.930 . S
H947 C919 0.931 . S
H948 C937 0.930 . S
H949 C938 0.930 . S
H950 C939 0.930 . S
H951 C940 0.931 . S
C952 C953 1.387 . S
C952 H956 0.950 . S
C952 C961 1.390 . S
C953 C952 1.387 . S
C953 C955 1.387 . S
H954 C961 0.950 . S
C955 C953 1.387 . S
C955 C957 1.390 1_556 S
C955 H959 0.950 . S
H956 C952 0.950 . S
C957 C955 1.390 1_554 S
C957 C958 1.387 1_554 S
C957 H960 0.950 . S
C958 C957 1.387 1_556 S
C958 C961 1.387 . S
H959 C955 0.950 . S
H960 C957 0.950 . S
C961 C952 1.390 . S
C961 H954 0.950 . S
C961 C958 1.387 . S
C962 C963 1.387 . S
C962 H966 0.950 . S
C962 C971 1.390 . S
C963 C962 1.387 . S
C963 C965 1.387 . S
H964 C971 0.950 . S
C965 C963 1.387 . S
C965 C967 1.390 . S
C965 H969 0.950 . S
H966 C962 0.950 . S
C967 C965 1.390 . S
C967 C968 1.387 . S
C967 H970 0.950 . S
C968 C967 1.387 . S
C968 C971 1.387 . S
H969 C965 0.950 . S
H970 C967 0.950 . S
C971 C962 1.390 . S
C971 H964 0.950 . S
C971 C968 1.387 . S
C972 C973 1.387 . S
C972 H976 0.950 . S
C972 C981 1.390 . S
C973 C972 1.387 . S
C973 C975 1.387 . S
H974 C981 0.950 . S
C975 C973 1.387 . S
C975 C977 1.390 . S
C975 H979 0.950 . S
H976 C972 0.950 . S
C977 C975 1.390 . S
C977 C978 1.387 . S
C977 H980 0.950 . S
C978 C977 1.387 . S
C978 C981 1.387 . S
H979 C975 0.950 . S
H980 C977 0.950 . S
C981 C972 1.390 . S
C981 H974 0.950 . S
C981 C978 1.387 . S
C982 C983 1.387 . S
C982 H986 0.950 . S
C982 C991 1.390 . S
C983 C982 1.387 . S
C983 C985 1.387 . S
H984 C991 0.950 . S
C985 C983 1.387 . S
C985 C987 1.390 . S
C985 H989 0.950 . S
H986 C982 0.950 . S
C987 C985 1.390 . S
C987 C988 1.387 . S
C987 H990 0.950 . S
C988 C987 1.387 . S
C988 C991 1.387 . S
H989 C985 0.950 . S
H990 C987 0.950 . S
C991 C982 1.390 . S
C991 H984 0.950 . S
C991 C988 1.387 . S
C992 C993 1.387 . S
C992 H996 0.950 . S
C992 C1001 1.390 . S
C993 C992 1.387 . S
C993 C995 1.387 . S
H994 C1001 0.950 . S
C995 C993 1.387 . S
C995 C997 1.390 . S
C995 H999 0.950 . S
H996 C992 0.950 . S
C997 C995 1.390 . S
C997 C998 1.387 . S
C997 H1000 0.950 . S
C998 C997 1.387 . S
C998 C1001 1.387 . S
H999 C995 0.950 . S
H1000 C997 0.950 . S
C1001 C992 1.390 . S
C1001 H994 0.950 . S
C1001 C998 1.387 . S
C1002 C1003 1.387 . S
C1002 H1006 0.950 . S
C1002 C1011 1.390 . S
C1003 C1002 1.387 . S
C1003 C1005 1.387 . S
H1004 C1011 0.950 . S
C1005 C1003 1.387 . S
C1005 C1007 1.390 . S
C1005 H1009 0.950 . S
H1006 C1002 0.950 . S
C1007 C1005 1.390 . S
C1007 C1008 1.387 . S
C1007 H1010 0.950 . S
C1008 C1007 1.387 . S
C1008 C1011 1.387 . S
H1009 C1005 0.950 . S
H1010 C1007 0.950 . S
C1011 C1002 1.390 . S
C1011 H1004 0.950 . S
C1011 C1008 1.387 . S
C1012 C1013 1.387 . S
C1012 H1016 0.950 . S
C1012 C1021 1.390 . S
C1013 C1012 1.387 . S
C1013 C1015 1.387 . S
H1014 C1021 0.950 . S
C1015 C1013 1.387 . S
C1015 C1017 1.390 . S
C1015 H1019 0.950 . S
H1016 C1012 0.950 . S
C1017 C1015 1.390 . S
C1017 C1018 1.387 . S
C1017 H1020 0.950 . S
C1018 C1017 1.387 . S
C1018 C1021 1.387 . S
H1019 C1015 0.950 . S
H1020 C1017 0.950 . S
C1021 C1012 1.390 . S
C1021 H1014 0.950 . S
C1021 C1018 1.387 . S
C1022 C1023 1.387 . S
C1022 H1026 0.950 . S
C1022 C1031 1.390 . S
C1023 C1022 1.387 . S
C1023 C1025 1.387 . S
H1024 C1031 0.950 . S
C1025 C1023 1.387 . S
C1025 C1027 1.390 . S
C1025 H1029 0.950 . S
H1026 C1022 0.950 . S
C1027 C1025 1.390 . S
C1027 C1028 1.387 . S
C1027 H1030 0.950 . S
C1028 C1027 1.387 . S
C1028 C1031 1.387 . S
H1029 C1025 0.950 . S
H1030 C1027 0.950 . S
C1031 C1022 1.390 . S
C1031 H1024 0.950 . S
C1031 C1028 1.387 . S
C1032 C1033 1.387 . S
C1032 H1036 0.950 . S
C1032 C1041 1.390 . S
C1033 C1032 1.387 . S
C1033 C1035 1.387 . S
H1034 C1041 0.950 . S
C1035 C1033 1.387 . S
C1035 C1037 1.390 . S
C1035 H1039 0.950 1_455 S
H1036 C1032 0.950 . S
C1037 C1035 1.390 . S
C1037 C1038 1.387 . S
C1037 H1040 0.950 . S
C1038 C1037 1.387 . S
C1038 C1041 1.387 . S
H1039 C1035 0.950 1_655 S
H1040 C1037 0.950 . S
C1041 C1032 1.390 . S
C1041 H1034 0.950 . S
C1041 C1038 1.387 . S
C1042 C1043 1.387 . S
C1042 H1046 0.950 . S
C1042 C1051 1.390 . S
C1043 C1042 1.387 . S
C1043 C1045 1.387 . S
H1044 C1051 0.950 . S
C1045 C1043 1.387 . S
C1045 C1047 1.390 . S
C1045 H1049 0.950 . S
H1046 C1042 0.950 . S
C1047 C1045 1.390 . S
C1047 C1048 1.387 . S
C1047 H1050 0.950 . S
C1048 C1047 1.387 . S
C1048 C1051 1.387 . S
H1049 C1045 0.950 . S
H1050 C1047 0.950 . S
C1051 C1042 1.390 . S
C1051 H1044 0.950 . S
C1051 C1048 1.387 . S
C1052 C1053 1.387 . S
C1052 H1056 0.950 . S
C1052 C1061 1.390 . S
C1053 C1052 1.387 . S
C1053 C1055 1.387 . S
H1054 C1061 0.950 . S
C1055 C1053 1.387 . S
C1055 C1057 1.390 . S
C1055 H1059 0.950 . S
H1056 C1052 0.950 . S
C1057 C1055 1.390 . S
C1057 C1058 1.387 . S
C1057 H1060 0.950 . S
C1058 C1057 1.387 . S
C1058 C1061 1.387 . S
H1059 C1055 0.950 . S
H1060 C1057 0.950 . S
C1061 C1052 1.390 . S
C1061 H1054 0.950 . S
C1061 C1058 1.387 . S
C1062 C1063 1.387 . S
C1062 H1066 0.950 . S
C1062 C1071 1.390 . S
C1063 C1062 1.387 . S
C1063 C1065 1.387 . S
H1064 C1071 0.950 . S
C1065 C1063 1.387 . S
C1065 C1067 1.390 . S
C1065 H1069 0.950 . S
H1066 C1062 0.950 . S
C1067 C1065 1.390 . S
C1067 C1068 1.387 . S
C1067 H1070 0.950 . S
C1068 C1067 1.387 . S
C1068 C1071 1.387 . S
H1069 C1065 0.950 . S
H1070 C1067 0.950 . S
C1071 C1062 1.390 . S
C1071 H1064 0.950 . S
C1071 C1068 1.387 . S
C1072 C1073 1.387 . S
C1072 H1076 0.950 . S
C1072 C1081 1.390 1_655 S
C1073 C1072 1.387 . S
C1073 C1075 1.386 1_655 S
H1074 C1081 0.950 . S
C1075 C1073 1.386 1_455 S
C1075 C1077 1.390 . S
C1075 H1079 0.950 . S
H1076 C1072 0.950 . S
C1077 C1075 1.390 . S
C1077 C1078 1.387 . S
C1077 H1080 0.950 . S
C1078 C1077 1.387 . S
C1078 C1081 1.387 . S
H1079 C1075 0.950 . S
H1080 C1077 0.950 . S
C1081 C1072 1.390 1_455 S
C1081 H1074 0.950 . S
C1081 C1078 1.387 . S
C1082 C1083 1.387 . S
C1082 H1086 0.950 . S
C1082 C1091 1.390 . S
C1083 C1082 1.387 . S
C1083 C1085 1.387 . S
H1084 C1091 0.950 . S
C1085 C1083 1.387 . S
C1085 C1087 1.390 . S
C1085 H1089 0.950 . S
H1086 C1082 0.950 . S
C1087 C1085 1.390 . S
C1087 C1088 1.387 . S
C1087 H1090 0.950 . S
C1088 C1087 1.387 . S
C1088 C1091 1.387 . S
H1089 C1085 0.950 . S
H1090 C1087 0.950 . S
C1091 C1082 1.390 . S
C1091 H1084 0.950 . S
C1091 C1088 1.387 . S
C1092 C1093 1.387 . S
C1092 H1096 0.950 . S
C1092 C1101 1.390 . S
C1093 C1092 1.387 . S
C1093 C1095 1.387 . S
H1094 C1101 0.950 . S
C1095 C1093 1.387 . S
C1095 C1097 1.390 . S
C1095 H1099 0.950 . S
H1096 C1092 0.950 . S
C1097 C1095 1.390 . S
C1097 C1098 1.387 . S
C1097 H1100 0.950 . S
C1098 C1097 1.387 . S
C1098 C1101 1.387 . S
H1099 C1095 0.950 . S
H1100 C1097 0.950 . S
C1101 C1092 1.390 . S
C1101 H1094 0.950 . S
C1101 C1098 1.387 . S
C1102 C1103 1.387 . S
C1102 H1106 0.950 . S
C1102 C1111 1.390 . S
C1103 C1102 1.387 . S
C1103 C1105 1.387 . S
H1104 C1111 0.950 . S
C1105 C1103 1.387 . S
C1105 C1107 1.390 . S
C1105 H1109 0.950 . S
H1106 C1102 0.950 . S
C1107 C1105 1.390 . S
C1107 C1108 1.387 . S
C1107 H1110 0.950 . S
C1108 C1107 1.387 . S
C1108 C1111 1.387 . S
H1109 C1105 0.950 . S
H1110 C1107 0.950 . S
C1111 C1102 1.390 . S
C1111 H1104 0.950 . S
C1111 C1108 1.387 . S
C1112 C1113 1.387 1_565 S
C1112 H1116 0.950 . S
C1112 C1121 1.390 1_565 S
C1113 C1112 1.387 1_545 S
C1113 C1115 1.387 . S
H1114 C1121 0.950 . S
C1115 C1113 1.387 . S
C1115 C1117 1.390 . S
C1115 H1119 0.950 1_554 S
H1116 C1112 0.950 . S
C1117 C1115 1.390 . S
C1117 C1118 1.387 . S
C1117 H1120 0.963 . S
C1118 C1117 1.387 . S
C1118 C1121 1.387 . S
H1119 C1115 0.950 1_556 S
H1120 C1117 0.963 . S
C1121 C1112 1.390 1_545 S
C1121 H1114 0.950 . S
C1121 C1118 1.387 . S
C1122 C1123 1.374 1_556 S
C1122 H1126 0.950 . S
C1122 C1131 1.390 . S
C1123 C1122 1.374 1_554 S
C1123 C1125 1.407 . S
H1124 C1131 0.950 . S
C1125 C1123 1.407 . S
C1125 C1127 1.390 . S
C1125 H1129 0.950 . S
H1126 C1122 0.950 . S
C1127 C1125 1.390 . S
C1127 C1128 1.387 . S
C1127 H1130 0.950 . S
C1128 C1127 1.387 . S
C1128 C1131 1.387 1_554 S
H1129 C1125 0.950 . S
H1130 C1127 0.950 . S
C1131 C1122 1.390 . S
C1131 H1124 0.950 . S
C1131 C1128 1.387 1_556 S
C1132 C1133 1.387 . S
C1132 H1136 0.950 . S
C1132 C1141 1.390 . S
C1133 C1132 1.387 . S
C1133 C1135 1.387 . S
H1134 C1141 0.950 . S
C1135 C1133 1.387 . S
C1135 C1137 1.390 . S
C1135 H1139 0.950 . S
H1136 C1132 0.950 . S
C1137 C1135 1.390 . S
C1137 C1138 1.387 . S
C1137 H1140 0.950 . S
C1138 C1137 1.387 . S
C1138 C1141 1.387 . S
H1139 C1135 0.950 . S
H1140 C1137 0.950 . S
C1141 C1132 1.390 . S
C1141 H1134 0.950 . S
C1141 C1138 1.387 . S
C1142 C1143 1.387 . S
C1142 H1146 0.950 . S
C1142 C1151 1.390 . S
C1143 C1142 1.387 . S
C1143 C1145 1.387 . S
H1144 C1151 0.950 . S
C1145 C1143 1.387 . S
C1145 C1147 1.390 . S
C1145 H1149 0.950 . S
H1146 C1142 0.950 . S
C1147 C1145 1.390 . S
C1147 C1148 1.387 . S
C1147 H1150 0.950 . S
C1148 C1147 1.387 . S
C1148 C1151 1.387 . S
H1149 C1145 0.950 . S
H1150 C1147 0.950 . S
C1151 C1142 1.390 . S
C1151 H1144 0.950 . S
C1151 C1148 1.387 . S
C1152 C1153 1.387 . S
C1152 H1156 0.950 . S
C1152 C1161 1.390 . S
C1153 C1152 1.387 . S
C1153 C1155 1.387 . S
H1154 C1161 0.950 . S
C1155 C1153 1.387 . S
C1155 C1157 1.390 . S
C1155 H1159 0.950 . S
H1156 C1152 0.950 . S
C1157 C1155 1.390 . S
C1157 C1158 1.387 . S
C1157 H1160 0.950 . S
C1158 C1157 1.387 . S
C1158 C1161 1.387 . S
H1159 C1155 0.950 . S
H1160 C1157 0.950 . S
C1161 C1152 1.390 . S
C1161 H1154 0.950 . S
C1161 C1158 1.387 . S
C1162 C1163 1.387 . S
C1162 H1166 0.950 . S
C1162 C1171 1.390 . S
C1163 C1162 1.387 . S
C1163 C1165 1.387 . S
H1164 C1171 0.950 . S
C1165 C1163 1.387 . S
C1165 C1167 1.390 . S
C1165 H1169 0.950 . S
H1166 C1162 0.950 . S
C1167 C1165 1.390 . S
C1167 C1168 1.387 . S
C1167 H1170 0.950 . S
C1168 C1167 1.387 . S
C1168 C1171 1.387 . S
H1169 C1165 0.950 . S
H1170 C1167 0.950 . S
C1171 C1162 1.390 . S
C1171 H1164 0.950 . S
C1171 C1168 1.387 . S
C1172 C1173 1.387 . S
C1172 H1176 0.950 . S
C1172 C1181 1.390 . S
C1173 C1172 1.387 . S
C1173 C1175 1.387 . S
H1174 C1181 0.950 . S
C1175 C1173 1.387 . S
C1175 C1177 1.390 . S
C1175 H1179 0.950 . S
H1176 C1172 0.950 . S
C1177 C1175 1.390 . S
C1177 C1178 1.387 . S
C1177 H1180 0.950 . S
C1178 C1177 1.387 . S
C1178 C1181 1.387 . S
H1179 C1175 0.950 . S
H1180 C1177 0.950 . S
C1181 C1172 1.390 . S
C1181 H1174 0.950 . S
C1181 C1178 1.387 . S
C1182 C1183 1.387 . S
C1182 H1186 0.950 . S
C1182 C1191 1.390 . S
C1183 C1182 1.387 . S
C1183 C1185 1.387 . S
H1184 C1191 0.950 . S
C1185 C1183 1.387 . S
C1185 C1187 1.390 . S
C1185 H1189 0.950 . S
H1186 C1182 0.950 . S
C1187 C1185 1.390 . S
C1187 C1188 1.387 . S
C1187 H1190 0.950 . S
C1188 C1187 1.387 . S
C1188 C1191 1.387 . S
H1189 C1185 0.950 . S
H1190 C1187 0.950 . S
C1191 C1182 1.390 . S
C1191 H1184 0.950 . S
C1191 C1188 1.387 . S
C1192 C1193 1.387 . S
C1192 H1196 0.950 . S
C1192 C1201 1.390 . S
C1193 C1192 1.387 . S
C1193 C1195 1.387 . S
H1194 C1201 0.950 . S
C1195 C1193 1.387 . S
C1195 C1197 1.390 . S
C1195 H1199 0.950 . S
H1196 C1192 0.950 . S
C1197 C1195 1.390 . S
C1197 C1198 1.387 . S
C1197 H1200 0.950 . S
C1198 C1197 1.387 . S
C1198 C1201 1.387 . S
H1199 C1195 0.950 . S
H1200 C1197 0.950 . S
C1201 C1192 1.390 . S
C1201 H1194 0.950 . S
C1201 C1198 1.387 . S
C1202 C1203 1.387 . S
C1202 H1206 0.950 . S
C1202 C1211 1.390 . S
C1203 C1202 1.387 . S
C1203 C1205 1.387 . S
H1204 C1211 0.950 . S
C1205 C1203 1.387 . S
C1205 C1207 1.390 . S
C1205 H1209 0.950 . S
H1206 C1202 0.950 . S
C1207 C1205 1.390 . S
C1207 C1208 1.387 . S
C1207 H1210 0.950 . S
C1208 C1207 1.387 . S
C1208 C1211 1.387 . S
H1209 C1205 0.950 . S
H1210 C1207 0.950 . S
C1211 C1202 1.390 . S
C1211 H1204 0.950 . S
C1211 C1208 1.387 . S
C1212 C1213 1.387 . S
C1212 H1216 0.950 . S
C1212 C1221 1.390 . S
C1213 C1212 1.387 . S
C1213 C1215 1.387 . S
H1214 C1221 0.950 . S
C1215 C1213 1.387 . S
C1215 C1217 1.390 . S
C1215 H1219 0.950 . S
H1216 C1212 0.950 . S
C1217 C1215 1.390 . S
C1217 C1218 1.387 . S
C1217 H1220 0.950 . S
C1218 C1217 1.387 . S
C1218 C1221 1.387 . S
H1219 C1215 0.950 . S
H1220 C1217 0.950 . S
C1221 C1212 1.390 . S
C1221 H1214 0.950 . S
C1221 C1218 1.387 . S
C1222 C1223 1.387 . S
C1222 H1226 0.950 . S
C1222 C1231 1.390 . S
C1223 C1222 1.387 . S
C1223 C1225 1.387 . S
H1224 C1231 0.950 . S
C1225 C1223 1.387 . S
C1225 C1227 1.390 . S
C1225 H1229 0.950 . S
H1226 C1222 0.950 . S
C1227 C1225 1.390 . S
C1227 C1228 1.387 . S
C1227 H1230 0.950 . S
C1228 C1227 1.387 . S
C1228 C1231 1.387 . S
H1229 C1225 0.950 . S
H1230 C1227 0.950 . S
C1231 C1222 1.390 . S
C1231 H1224 0.950 . S
C1231 C1228 1.387 . S
C1232 C1233 1.387 . S
C1232 H1236 0.950 . S
C1232 C1241 1.390 . S
C1233 C1232 1.387 . S
C1233 C1235 1.387 . S
H1234 C1241 0.950 . S
C1235 C1233 1.387 . S
C1235 C1237 1.390 . S
C1235 H1239 0.950 . S
H1236 C1232 0.950 . S
C1237 C1235 1.390 . S
C1237 C1238 1.387 . S
C1237 H1240 0.950 . S
C1238 C1237 1.387 . S
C1238 C1241 1.387 . S
H1239 C1235 0.950 . S
H1240 C1237 0.950 . S
C1241 C1232 1.390 . S
C1241 H1234 0.950 . S
C1241 C1238 1.387 . S
C1242 C1243 1.387 . S
C1242 H1246 0.950 . S
C1242 C1251 1.390 . S
C1243 C1242 1.387 . S
C1243 C1245 1.387 . S
H1244 C1251 0.950 . S
C1245 C1243 1.387 . S
C1245 C1247 1.390 . S
C1245 H1249 0.950 . S
H1246 C1242 0.950 . S
C1247 C1245 1.390 . S
C1247 C1248 1.387 . S
C1247 H1250 0.950 . S
C1248 C1247 1.387 . S
C1248 C1251 1.387 . S
H1249 C1245 0.950 . S
H1250 C1247 0.950 . S
C1251 C1242 1.390 . S
C1251 H1244 0.950 . S
C1251 C1248 1.387 . S
C1252 C1253 1.387 . S
C1252 H1256 0.950 . S
C1252 C1261 1.390 . S
C1253 C1252 1.387 . S
C1253 C1255 1.387 . S
H1254 C1261 0.950 . S
C1255 C1253 1.387 . S
C1255 C1257 1.390 . S
C1255 H1259 0.950 . S
H1256 C1252 0.950 . S
C1257 C1255 1.390 . S
C1257 C1258 1.387 . S
C1257 H1260 0.950 1_556 S
C1258 C1257 1.387 . S
C1258 C1261 1.387 . S
H1259 C1255 0.950 . S
H1260 C1257 0.950 1_554 S
C1261 C1252 1.390 . S
C1261 H1254 0.950 . S
C1261 C1258 1.387 . S
C1262 C1263 1.387 . S
C1262 H1266 0.950 . S
C1262 C1271 1.390 . S
C1263 C1262 1.387 . S
C1263 C1265 1.387 . S
H1264 C1271 0.950 . S
C1265 C1263 1.387 . S
C1265 C1267 1.390 . S
C1265 H1269 0.950 . S
H1266 C1262 0.950 . S
C1267 C1265 1.390 . S
C1267 C1268 1.387 . S
C1267 H1270 0.950 . S
C1268 C1267 1.387 . S
C1268 C1271 1.387 . S
H1269 C1265 0.950 . S
H1270 C1267 0.950 . S
C1271 C1262 1.390 . S
C1271 H1264 0.950 . S
C1271 C1268 1.387 . S
C1272 C1273 1.387 . S
C1272 H1276 0.950 . S
C1272 C1281 1.390 . S
C1273 C1272 1.387 . S
C1273 C1275 1.387 . S
H1274 C1281 0.950 . S
C1275 C1273 1.387 . S
C1275 C1277 1.390 . S
C1275 H1279 0.950 1_545 S
H1276 C1272 0.950 . S
C1277 C1275 1.390 . S
C1277 C1278 1.387 . S
C1277 H1280 0.950 1_545 S
C1278 C1277 1.387 . S
C1278 C1281 1.387 . S
H1279 C1275 0.950 1_565 S
H1280 C1277 0.950 1_565 S
C1281 C1272 1.390 . S
C1281 H1274 0.950 . S
C1281 C1278 1.387 . S
C1282 C1283 1.387 . S
C1282 H1286 0.950 . S
C1282 C1291 1.390 . S
C1283 C1282 1.387 . S
C1283 C1285 1.387 . S
H1284 C1291 0.950 . S
C1285 C1283 1.387 . S
C1285 C1287 1.390 . S
C1285 H1289 0.950 . S
H1286 C1282 0.950 . S
C1287 C1285 1.390 . S
C1287 C1288 1.387 . S
C1287 H1290 0.950 . S
C1288 C1287 1.387 . S
C1288 C1291 1.387 . S
H1289 C1285 0.950 . S
H1290 C1287 0.950 . S
C1291 C1282 1.390 . S
C1291 H1284 0.950 . S
C1291 C1288 1.387 . S
C1292 C1293 1.387 1_565 S
C1292 H1296 0.950 . S
C1292 C1301 1.390 . S
C1293 C1292 1.387 1_545 S
C1293 C1295 1.387 . S
H1294 C1301 0.950 . S
C1295 C1293 1.387 . S
C1295 C1297 1.390 . S
C1295 H1299 0.950 . S
H1296 C1292 0.950 . S
C1297 C1295 1.390 . S
C1297 C1298 1.387 . S
C1297 H1300 0.950 . S
C1298 C1297 1.387 . S
C1298 C1301 1.387 1_545 S
H1299 C1295 0.950 . S
H1300 C1297 0.950 . S
C1301 C1292 1.390 . S
C1301 H1294 0.950 . S
C1301 C1298 1.387 1_565 S
C1302 C1303 1.387 . S
C1302 H1306 0.950 . S
C1302 C1311 1.390 . S
C1303 C1302 1.387 . S
C1303 C1305 1.387 . S
H1304 C1311 0.950 . S
C1305 C1303 1.387 . S
C1305 C1307 1.390 . S
C1305 H1309 0.950 . S
H1306 C1302 0.950 . S
C1307 C1305 1.390 . S
C1307 C1308 1.387 . S
C1307 H1310 0.950 . S
C1308 C1307 1.387 . S
C1308 C1311 1.387 . S
H1309 C1305 0.950 . S
H1310 C1307 0.950 . S
C1311 C1302 1.390 . S
C1311 H1304 0.950 . S
C1311 C1308 1.387 . S
C1312 C1313 1.387 1_565 S
C1312 H1316 0.950 . S
C1312 C1321 1.400 . S
C1313 C1312 1.387 1_545 S
C1313 C1315 1.387 . S
H1314 C1321 0.958 . S
C1315 C1313 1.387 . S
C1315 C1317 1.390 . S
C1315 H1319 0.950 . S
H1316 C1312 0.950 . S
C1317 C1315 1.390 . S
C1317 C1318 1.387 . S
C1317 H1320 0.950 . S
C1318 C1317 1.387 . S
C1318 C1321 1.370 1_545 S
H1319 C1315 0.950 . S
H1320 C1317 0.950 . S
C1321 C1312 1.400 . S
C1321 H1314 0.958 . S
C1321 C1318 1.370 1_565 S
C1322 C1323 1.387 . S
C1322 H1326 0.950 . S
C1322 C1331 1.390 . S
C1323 C1322 1.387 . S
C1323 C1325 1.387 . S
H1324 C1331 0.950 . S
C1325 C1323 1.387 . S
C1325 C1327 1.390 . S
C1325 H1329 0.950 . S
H1326 C1322 0.950 . S
C1327 C1325 1.390 . S
C1327 C1328 1.387 . S
C1327 H1330 0.950 . S
C1328 C1327 1.387 . S
C1328 C1331 1.387 . S
H1329 C1325 0.950 . S
H1330 C1327 0.950 . S
C1331 C1322 1.390 . S
C1331 H1324 0.950 . S
C1331 C1328 1.387 . S
C1332 C1333 1.387 1_565 S
C1332 H1336 0.950 . S
C1332 C1341 1.390 . S
C1333 C1332 1.387 1_545 S
C1333 C1335 1.387 . S
H1334 C1341 0.950 . S
C1335 C1333 1.387 . S
C1335 C1337 1.390 . S
C1335 H1339 0.950 . S
H1336 C1332 0.950 . S
C1337 C1335 1.390 . S
C1337 C1338 1.387 . S
C1337 H1340 0.950 . S
C1338 C1337 1.387 . S
C1338 C1341 1.387 1_545 S
H1339 C1335 0.950 . S
H1340 C1337 0.950 . S
C1341 C1332 1.390 . S
C1341 H1334 0.950 . S
C1341 C1338 1.387 1_565 S
C1342 C1343 1.387 . S
C1342 H1346 0.950 . S
C1342 C1351 1.390 . S
C1343 C1342 1.387 . S
C1343 C1345 1.387 . S
H1344 C1351 0.950 . S
C1345 C1343 1.387 . S
C1345 C1347 1.390 . S
C1345 H1349 0.950 . S
H1346 C1342 0.950 . S
C1347 C1345 1.390 . S
C1347 C1348 1.387 . S
C1347 H1350 0.950 . S
C1348 C1347 1.387 . S
C1348 C1351 1.387 . S
H1349 C1345 0.950 . S
H1350 C1347 0.950 . S
C1351 C1342 1.390 . S
C1351 H1344 0.950 . S
C1351 C1348 1.387 . S
C1352 C1353 1.387 . S
C1352 H1356 0.950 . S
C1352 C1361 1.390 . S
C1353 C1352 1.387 . S
C1353 C1355 1.387 . S
H1354 C1361 0.950 . S
C1355 C1353 1.387 . S
C1355 C1357 1.390 . S
C1355 H1359 0.967 . S
H1356 C1352 0.950 . S
C1357 C1355 1.390 . S
C1357 C1358 1.387 . S
C1357 H1360 0.950 1_554 S
C1358 C1357 1.387 . S
C1358 C1361 1.387 . S
H1359 C1355 0.967 . S
H1360 C1357 0.950 1_556 S
C1361 C1352 1.390 . S
C1361 H1354 0.950 . S
C1361 C1358 1.387 . S
C1362 C1363 1.389 1_556 S
C1362 H1366 0.949 . S
C1362 C1371 1.390 . S
C1363 C1362 1.389 1_554 S
C1363 C1365 1.387 . S
H1364 C1371 0.950 . S
C1365 C1363 1.387 . S
C1365 C1367 1.390 . S
C1365 H1369 0.950 . S
H1366 C1362 0.949 . S
C1367 C1365 1.390 . S
C1367 C1368 1.387 . S
C1367 H1370 0.950 . S
C1368 C1367 1.387 . S
C1368 C1371 1.387 1_554 S
H1369 C1365 0.950 . S
H1370 C1367 0.950 . S
C1371 C1362 1.390 . S
C1371 H1364 0.950 . S
C1371 C1368 1.387 1_556 S
C1372 C1373 1.387 . S
C1372 H1376 0.950 . S
C1372 C1381 1.390 . S
C1373 C1372 1.387 . S
C1373 C1375 1.387 . S
H1374 C1381 0.950 . S
C1375 C1373 1.387 . S
C1375 C1377 1.390 . S
C1375 H1379 0.950 . S
H1376 C1372 0.950 . S
C1377 C1375 1.390 . S
C1377 C1378 1.387 . S
C1377 H1380 0.950 . S
C1378 C1377 1.387 . S
C1378 C1381 1.387 . S
H1379 C1375 0.950 . S
H1380 C1377 0.950 . S
C1381 C1372 1.390 . S
C1381 H1374 0.950 . S
C1381 C1378 1.387 . S
C1382 C1383 1.387 . S
C1382 H1386 0.950 . S
C1382 C1391 1.390 . S
C1383 C1382 1.387 . S
C1383 C1385 1.387 . S
H1384 C1391 0.950 . S
C1385 C1383 1.387 . S
C1385 C1387 1.390 . S
C1385 H1389 0.950 . S
H1386 C1382 0.950 . S
C1387 C1385 1.390 . S
C1387 C1388 1.387 . S
C1387 H1390 0.950 . S
C1388 C1387 1.387 . S
C1388 C1391 1.387 . S
H1389 C1385 0.950 . S
H1390 C1387 0.950 . S
C1391 C1382 1.390 . S
C1391 H1384 0.950 . S
C1391 C1388 1.387 . S
C1392 C1393 1.387 . S
C1392 H1396 0.950 . S
C1392 C1401 1.390 . S
C1393 C1392 1.387 . S
C1393 C1395 1.387 1_545 S
H1394 C1401 0.950 . S
C1395 C1393 1.387 1_565 S
C1395 C1397 1.390 . S
C1395 H1399 0.950 . S
H1396 C1392 0.950 . S
C1397 C1395 1.390 . S
C1397 C1398 1.387 . S
C1397 H1400 0.950 . S
C1398 C1397 1.387 . S
C1398 C1401 1.387 1_565 S
H1399 C1395 0.950 . S
H1400 C1397 0.950 . S
C1401 C1392 1.390 . S
C1401 H1394 0.950 . S
C1401 C1398 1.387 1_545 S
C1402 C1403 1.387 . S
C1402 H1406 0.950 . S
C1402 C1411 1.390 . S
C1403 C1402 1.387 . S
C1403 C1405 1.387 . S
H1404 C1411 0.950 . S
C1405 C1403 1.387 . S
C1405 C1407 1.390 . S
C1405 H1409 0.950 . S
H1406 C1402 0.950 . S
C1407 C1405 1.390 . S
C1407 C1408 1.387 . S
C1407 H1410 0.950 . S
C1408 C1407 1.387 . S
C1408 C1411 1.387 . S
H1409 C1405 0.950 . S
H1410 C1407 0.950 . S
C1411 C1402 1.390 . S
C1411 H1404 0.950 . S
C1411 C1408 1.387 . S
C1412 C1413 1.387 . S
C1412 H1416 0.950 . S
C1412 C1421 1.390 . S
C1413 C1412 1.387 . S
C1413 C1415 1.387 . S
H1414 C1421 0.950 . S
C1415 C1413 1.387 . S
C1415 C1417 1.390 . S
C1415 H1419 0.950 . S
H1416 C1412 0.950 . S
C1417 C1415 1.390 . S
C1417 C1418 1.387 . S
C1417 H1420 0.950 . S
C1418 C1417 1.387 . S
C1418 C1421 1.387 . S
H1419 C1415 0.950 . S
H1420 C1417 0.950 . S
C1421 C1412 1.390 . S
C1421 H1414 0.950 . S
C1421 C1418 1.387 . S
C1422 C1423 1.387 . S
C1422 H1426 0.950 . S
C1422 C1431 1.390 . S
C1423 C1422 1.387 . S
C1423 C1425 1.387 . S
H1424 C1431 0.950 . S
C1425 C1423 1.387 . S
C1425 C1427 1.390 . S
C1425 H1429 0.950 . S
H1426 C1422 0.950 . S
C1427 C1425 1.390 . S
C1427 C1428 1.387 . S
C1427 H1430 0.950 . S
C1428 C1427 1.387 . S
C1428 C1431 1.387 . S
H1429 C1425 0.950 . S
H1430 C1427 0.950 . S
C1431 C1422 1.390 . S
C1431 H1424 0.950 . S
C1431 C1428 1.387 . S
C1432 C1433 1.387 . S
C1432 H1436 0.950 . S
C1432 C1441 1.390 . S
C1433 C1432 1.387 . S
C1433 C1435 1.387 . S
H1434 C1441 0.950 . S
C1435 C1433 1.387 . S
C1435 C1437 1.390 . S
C1435 H1439 0.950 . S
H1436 C1432 0.950 . S
C1437 C1435 1.390 . S
C1437 C1438 1.387 . S
C1437 H1440 0.950 . S
C1438 C1437 1.387 . S
C1438 C1441 1.387 . S
H1439 C1435 0.950 . S
H1440 C1437 0.950 . S
C1441 C1432 1.390 . S
C1441 H1434 0.950 . S
C1441 C1438 1.387 . S
C1442 C1443 1.387 . S
C1442 H1446 0.950 . S
C1442 C1451 1.390 . S
C1443 C1442 1.387 . S
C1443 C1445 1.387 . S
H1444 C1451 0.950 . S
C1445 C1443 1.387 . S
C1445 C1447 1.390 . S
C1445 H1449 0.950 . S
H1446 C1442 0.950 . S
C1447 C1445 1.390 . S
C1447 C1448 1.387 . S
C1447 H1450 0.950 . S
C1448 C1447 1.387 . S
C1448 C1451 1.387 . S
H1449 C1445 0.950 . S
H1450 C1447 0.950 . S
C1451 C1442 1.390 . S
C1451 H1444 0.950 . S
C1451 C1448 1.387 . S
C1452 C1453 1.387 . S
C1452 H1456 0.950 . S
C1452 C1461 1.390 1_556 S
C1453 C1452 1.387 . S
C1453 C1455 1.387 . S
H1454 C1461 0.950 . S
C1455 C1453 1.387 . S
C1455 C1457 1.390 . S
C1455 H1459 0.950 . S
H1456 C1452 0.950 . S
C1457 C1455 1.390 . S
C1457 C1458 1.387 1_556 S
C1457 H1460 0.950 1_556 S
C1458 C1457 1.387 1_554 S
C1458 C1461 1.387 . S
H1459 C1455 0.950 . S
H1460 C1457 0.950 1_554 S
C1461 C1452 1.390 1_554 S
C1461 H1454 0.950 . S
C1461 C1458 1.387 . S
C1462 C1463 1.387 . S
C1462 H1466 0.950 . S
C1462 C1471 1.390 1_455 S
C1463 C1462 1.387 . S
C1463 C1465 1.387 . S
H1464 C1471 0.950 . S
C1465 C1463 1.387 . S
C1465 C1467 1.390 1_455 S
C1465 H1469 0.950 . S
H1466 C1462 0.950 . S
C1467 C1465 1.390 1_655 S
C1467 C1468 1.387 . S
C1467 H1470 0.950 . S
C1468 C1467 1.387 . S
C1468 C1471 1.387 . S
H1469 C1465 0.950 . S
H1470 C1467 0.950 . S
C1471 C1462 1.390 1_655 S
C1471 H1464 0.950 . S
C1471 C1468 1.387 . S
C1472 C1473 1.387 . S
C1472 H1476 0.950 . S
C1472 C1481 1.390 . S
C1473 C1472 1.387 . S
C1473 C1475 1.387 . S
H1474 C1481 0.950 . S
C1475 C1473 1.387 . S
C1475 C1477 1.390 . S
C1475 H1479 0.950 . S
H1476 C1472 0.950 . S
C1477 C1475 1.390 . S
C1477 C1478 1.387 . S
C1477 H1480 0.950 . S
C1478 C1477 1.387 . S
C1478 C1481 1.387 . S
H1479 C1475 0.950 . S
H1480 C1477 0.950 . S
C1481 C1472 1.390 . S
C1481 H1474 0.950 . S
C1481 C1478 1.387 . S
C1482 C1483 1.387 . S
C1482 H1486 0.950 . S
C1482 C1491 1.390 . S
C1483 C1482 1.387 . S
C1483 C1485 1.387 . S
H1484 C1491 0.950 . S
C1485 C1483 1.387 . S
C1485 C1487 1.390 . S
C1485 H1489 0.950 . S
H1486 C1482 0.950 . S
C1487 C1485 1.390 . S
C1487 C1488 1.387 . S
C1487 H1490 0.950 . S
C1488 C1487 1.387 . S
C1488 C1491 1.387 . S
H1489 C1485 0.950 . S
H1490 C1487 0.950 . S
C1491 C1482 1.390 . S
C1491 H1484 0.950 . S
C1491 C1488 1.387 . S
C1492 C1493 1.387 . S
C1492 H1496 0.950 . S
C1492 C1501 1.390 1_655 S
C1493 C1492 1.387 . S
C1493 C1495 1.387 1_655 S
H1494 C1501 0.950 1_655 S
C1495 C1493 1.387 1_455 S
C1495 C1497 1.390 . S
C1495 H1499 0.950 . S
H1496 C1492 0.950 . S
C1497 C1495 1.390 . S
C1497 C1498 1.387 . S
C1497 H1500 0.950 . S
C1498 C1497 1.387 . S
C1498 C1501 1.387 . S
H1499 C1495 0.950 . S
H1500 C1497 0.950 . S
C1501 C1492 1.390 1_455 S
C1501 H1494 0.950 1_455 S
C1501 C1498 1.387 . S
C1502 C1503 1.387 . S
C1502 H1506 0.950 . S
C1502 C1511 1.390 . S
C1503 C1502 1.387 . S
C1503 C1505 1.387 . S
H1504 C1511 0.950 . S
C1505 C1503 1.387 . S
C1505 C1507 1.390 . S
C1505 H1509 0.950 . S
H1506 C1502 0.950 . S
C1507 C1505 1.390 . S
C1507 C1508 1.387 . S
C1507 H1510 0.950 . S
C1508 C1507 1.387 . S
C1508 C1511 1.387 . S
H1509 C1505 0.950 . S
H1510 C1507 0.950 . S
C1511 C1502 1.390 . S
C1511 H1504 0.950 . S
C1511 C1508 1.387 . S
C1512 C1513 1.387 . S
C1512 H1516 0.950 . S
C1512 C1521 1.390 . S
C1513 C1512 1.387 . S
C1513 C1515 1.387 . S
H1514 C1521 0.950 . S
C1515 C1513 1.387 . S
C1515 C1517 1.390 . S
C1515 H1519 0.950 . S
H1516 C1512 0.950 . S
C1517 C1515 1.390 . S
C1517 C1518 1.387 . S
C1517 H1520 0.950 . S
C1518 C1517 1.387 . S
C1518 C1521 1.387 . S
H1519 C1515 0.950 . S
H1520 C1517 0.950 . S
C1521 C1512 1.390 . S
C1521 H1514 0.950 . S
C1521 C1518 1.387 . S
C1522 C1523 1.387 . S
C1522 H1526 0.950 . S
C1522 C1531 1.390 . S
C1523 C1522 1.387 . S
C1523 C1525 1.387 . S
H1524 C1531 0.950 . S
C1525 C1523 1.387 . S
C1525 C1527 1.390 . S
C1525 H1529 0.950 1_556 S
H1526 C1522 0.950 . S
C1527 C1525 1.390 . S
C1527 C1528 1.387 . S
C1527 H1530 0.937 1_556 S
C1528 C1527 1.387 . S
C1528 C1531 1.387 . S
H1529 C1525 0.950 1_554 S
H1530 C1527 0.937 1_554 S
C1531 C1522 1.390 . S
C1531 H1524 0.950 . S
C1531 C1528 1.387 . S
C1532 C1533 1.387 . S
C1532 H1536 0.950 . S
C1532 C1541 1.390 . S
C1533 C1532 1.387 . S
C1533 C1535 1.387 . S
H1534 C1541 0.950 . S
C1535 C1533 1.387 . S
C1535 C1537 1.390 . S
C1535 H1539 0.950 . S
H1536 C1532 0.950 . S
C1537 C1535 1.390 . S
C1537 C1538 1.387 . S
C1537 H1540 0.950 . S
C1538 C1537 1.387 . S
C1538 C1541 1.387 . S
H1539 C1535 0.950 . S
H1540 C1537 0.950 . S
C1541 C1532 1.390 . S
C1541 H1534 0.950 . S
C1541 C1538 1.387 . S
C1542 C1543 1.387 . S
C1542 H1546 0.950 . S
C1542 C1551 1.390 . S
C1543 C1542 1.387 . S
C1543 C1545 1.387 . S
H1544 C1551 0.950 . S
C1545 C1543 1.387 . S
C1545 C1547 1.390 . S
C1545 H1549 0.950 . S
H1546 C1542 0.950 . S
C1547 C1545 1.390 . S
C1547 C1548 1.387 . S
C1547 H1550 0.950 . S
C1548 C1547 1.387 . S
C1548 C1551 1.387 . S
H1549 C1545 0.950 . S
H1550 C1547 0.950 . S
C1551 C1542 1.390 . S
C1551 H1544 0.950 . S
C1551 C1548 1.387 . S
C1552 C1553 1.387 . S
C1552 H1556 0.950 . S
C1552 C1561 1.390 . S
C1553 C1552 1.387 . S
C1553 C1555 1.387 . S
H1554 C1561 0.950 . S
C1555 C1553 1.387 . S
C1555 C1557 1.390 . S
C1555 H1559 0.950 . S
H1556 C1552 0.950 . S
C1557 C1555 1.390 . S
C1557 C1558 1.387 . S
C1557 H1560 0.950 . S
C1558 C1557 1.387 . S
C1558 C1561 1.387 . S
H1559 C1555 0.950 . S
H1560 C1557 0.950 . S
C1561 C1552 1.390 . S
C1561 H1554 0.950 . S
C1561 C1558 1.387 . S
C1562 C1563 1.387 . S
C1562 H1566 0.950 . S
C1562 C1571 1.390 . S
C1563 C1562 1.387 . S
C1563 C1565 1.387 . S
H1564 C1571 0.950 . S
C1565 C1563 1.387 . S
C1565 C1567 1.390 . S
C1565 H1569 0.950 . S
H1566 C1562 0.950 . S
C1567 C1565 1.390 . S
C1567 C1568 1.387 . S
C1567 H1570 0.950 . S
C1568 C1567 1.387 . S
C1568 C1571 1.387 . S
H1569 C1565 0.950 . S
H1570 C1567 0.950 . S
C1571 C1562 1.390 . S
C1571 H1564 0.950 . S
C1571 C1568 1.387 . S
C1572 C1573 1.387 . S
C1572 H1576 0.950 . S
C1572 C1581 1.390 . S
C1573 C1572 1.387 . S
C1573 C1575 1.387 . S
H1574 C1581 0.950 . S
C1575 C1573 1.387 . S
C1575 C1577 1.390 . S
C1575 H1579 0.950 . S
H1576 C1572 0.950 . S
C1577 C1575 1.390 . S
C1577 C1578 1.387 . S
C1577 H1580 0.950 . S
C1578 C1577 1.387 . S
C1578 C1581 1.387 . S
H1579 C1575 0.950 . S
H1580 C1577 0.950 . S
C1581 C1572 1.390 . S
C1581 H1574 0.950 . S
C1581 C1578 1.387 . S
C1582 C1583 1.387 . S
C1582 H1586 0.950 . S
C1582 C1591 1.390 . S
C1583 C1582 1.387 . S
C1583 C1585 1.387 . S
H1584 C1591 0.950 . S
C1585 C1583 1.387 . S
C1585 C1587 1.390 . S
C1585 H1589 0.950 . S
H1586 C1582 0.950 . S
C1587 C1585 1.390 . S
C1587 C1588 1.387 . S
C1587 H1590 0.950 . S
C1588 C1587 1.387 . S
C1588 C1591 1.387 . S
H1589 C1585 0.950 . S
H1590 C1587 0.950 . S
C1591 C1582 1.390 . S
C1591 H1584 0.950 . S
C1591 C1588 1.387 . S
C1592 C1593 1.387 . S
C1592 H1596 0.950 . S
C1592 C1601 1.390 . S
C1593 C1592 1.387 . S
C1593 C1595 1.387 . S
H1594 C1601 0.950 . S
C1595 C1593 1.387 . S
C1595 C1597 1.390 . S
C1595 H1599 0.950 . S
H1596 C1592 0.950 . S
C1597 C1595 1.390 . S
C1597 C1598 1.387 . S
C1597 H1600 0.950 . S
C1598 C1597 1.387 . S
C1598 C1601 1.387 . S
H1599 C1595 0.950 . S
H1600 C1597 0.950 . S
C1601 C1592 1.390 . S
C1601 H1594 0.950 . S
C1601 C1598 1.387 . S
C1602 C1603 1.387 . S
C1602 H1606 0.950 . S
C1602 C1611 1.390 . S
C1603 C1602 1.387 . S
C1603 C1605 1.387 . S
H1604 C1611 0.950 . S
C1605 C1603 1.387 . S
C1605 C1607 1.390 . S
C1605 H1609 0.950 . S
H1606 C1602 0.950 . S
C1607 C1605 1.390 . S
C1607 C1608 1.387 . S
C1607 H1610 0.950 . S
C1608 C1607 1.387 . S
C1608 C1611 1.387 . S
H1609 C1605 0.950 . S
H1610 C1607 0.950 . S
C1611 C1602 1.390 . S
C1611 H1604 0.950 . S
C1611 C1608 1.387 . S
C1612 C1613 1.387 . S
C1612 H1616 0.950 . S
C1612 C1621 1.390 . S
C1613 C1612 1.387 . S
C1613 C1615 1.387 . S
H1614 C1621 0.950 . S
C1615 C1613 1.387 . S
C1615 C1617 1.390 . S
C1615 H1619 0.950 . S
H1616 C1612 0.950 . S
C1617 C1615 1.390 . S
C1617 C1618 1.387 . S
C1617 H1620 0.950 . S
C1618 C1617 1.387 . S
C1618 C1621 1.387 . S
H1619 C1615 0.950 . S
H1620 C1617 0.950 . S
C1621 C1612 1.390 . S
C1621 H1614 0.950 . S
C1621 C1618 1.387 . S
C1622 C1623 1.387 . S
C1622 H1626 0.950 . S
C1622 C1631 1.390 . S
C1623 C1622 1.387 . S
C1623 C1625 1.386 1_554 S
H1624 C1631 0.950 . S
C1625 C1623 1.386 1_556 S
C1625 C1627 1.392 . S
C1625 H1629 0.951 1_545 S
H1626 C1622 0.950 . S
C1627 C1625 1.392 . S
C1627 C1628 1.387 1_556 S
C1627 H1630 0.950 . S
C1628 C1627 1.387 1_554 S
C1628 C1631 1.387 . S
H1629 C1625 0.951 1_565 S
H1630 C1627 0.950 . S
C1631 C1622 1.390 . S
C1631 H1624 0.950 . S
C1631 C1628 1.387 . S
C1632 C1633 1.387 . S
C1632 H1636 0.950 . S
C1632 C1641 1.390 . S
C1633 C1632 1.387 . S
C1633 C1635 1.387 . S
H1634 C1641 0.950 . S
C1635 C1633 1.387 . S
C1635 C1637 1.390 . S
C1635 H1639 0.950 . S
H1636 C1632 0.950 . S
C1637 C1635 1.390 . S
C1637 C1638 1.387 . S
C1637 H1640 0.950 . S
C1638 C1637 1.387 . S
C1638 C1641 1.387 . S
H1639 C1635 0.950 . S
H1640 C1637 0.950 . S
C1641 C1632 1.390 . S
C1641 H1634 0.950 . S
C1641 C1638 1.387 . S
C1642 C1643 1.387 . S
C1642 H1646 0.950 . S
C1642 C1651 1.390 . S
C1643 C1642 1.387 . S
C1643 C1645 1.387 . S
H1644 C1651 0.950 . S
C1645 C1643 1.387 . S
C1645 C1647 1.390 . S
C1645 H1649 0.950 . S
H1646 C1642 0.950 . S
C1647 C1645 1.390 . S
C1647 C1648 1.387 . S
C1647 H1650 0.950 . S
C1648 C1647 1.387 . S
C1648 C1651 1.387 . S
H1649 C1645 0.950 . S
H1650 C1647 0.950 . S
C1651 C1642 1.390 . S
C1651 H1644 0.950 . S
C1651 C1648 1.387 . S
C1652 C1653 1.387 . S
C1652 H1656 0.950 . S
C1652 C1661 1.390 . S
C1653 C1652 1.387 . S
C1653 C1655 1.387 . S
H1654 C1661 0.950 . S
C1655 C1653 1.387 . S
C1655 C1657 1.390 . S
C1655 H1659 0.950 . S
H1656 C1652 0.950 . S
C1657 C1655 1.390 . S
C1657 C1658 1.387 . S
C1657 H1660 0.950 . S
C1658 C1657 1.387 . S
C1658 C1661 1.387 . S
H1659 C1655 0.950 . S
H1660 C1657 0.950 . S
C1661 C1652 1.390 . S
C1661 H1654 0.950 . S
C1661 C1658 1.387 . S
C1662 C1663 1.387 . S
C1662 H1666 0.950 . S
C1662 C1671 1.390 . S
C1663 C1662 1.387 . S
C1663 C1665 1.387 . S
H1664 C1671 0.950 . S
C1665 C1663 1.387 . S
C1665 C1667 1.390 . S
C1665 H1669 0.950 . S
H1666 C1662 0.950 . S
C1667 C1665 1.390 . S
C1667 C1668 1.387 . S
C1667 H1670 0.950 . S
C1668 C1667 1.387 . S
C1668 C1671 1.387 . S
H1669 C1665 0.950 . S
H1670 C1667 0.950 . S
C1671 C1662 1.390 . S
C1671 H1664 0.950 . S
C1671 C1668 1.387 . S
C1672 C1673 1.387 . S
C1672 H1676 0.950 . S
C1672 C1681 1.390 . S
C1673 C1672 1.387 . S
C1673 C1675 1.387 . S
H1674 C1681 0.950 . S
C1675 C1673 1.387 . S
C1675 C1677 1.390 . S
C1675 H1679 0.950 . S
H1676 C1672 0.950 . S
C1677 C1675 1.390 . S
C1677 C1678 1.387 . S
C1677 H1680 0.950 . S
C1678 C1677 1.387 . S
C1678 C1681 1.387 . S
H1679 C1675 0.950 . S
H1680 C1677 0.950 . S
C1681 C1672 1.390 . S
C1681 H1674 0.950 . S
C1681 C1678 1.387 . S
C1682 C1683 1.387 . S
C1682 H1686 0.950 . S
C1682 C1691 1.390 . S
C1683 C1682 1.387 . S
C1683 C1685 1.387 . S
H1684 C1691 0.950 . S
C1685 C1683 1.387 . S
C1685 C1687 1.390 . S
C1685 H1689 0.950 . S
H1686 C1682 0.950 . S
C1687 C1685 1.390 . S
C1687 C1688 1.387 . S
C1687 H1690 0.950 . S
C1688 C1687 1.387 . S
C1688 C1691 1.387 . S
H1689 C1685 0.950 . S
H1690 C1687 0.950 . S
C1691 C1682 1.390 . S
C1691 H1684 0.950 . S
C1691 C1688 1.387 . S
C1692 C1693 1.387 . S
C1692 H1696 0.950 . S
C1692 C1701 1.390 . S
C1693 C1692 1.387 . S
C1693 C1695 1.387 . S
H1694 C1701 0.950 . S
C1695 C1693 1.387 . S
C1695 C1697 1.390 . S
C1695 H1699 0.950 . S
H1696 C1692 0.950 . S
C1697 C1695 1.390 . S
C1697 C1698 1.387 . S
C1697 H1700 0.950 . S
C1698 C1697 1.387 . S
C1698 C1701 1.387 . S
H1699 C1695 0.950 . S
H1700 C1697 0.950 . S
C1701 C1692 1.390 . S
C1701 H1694 0.950 . S
C1701 C1698 1.387 . S
C1702 C1703 1.387 . S
C1702 H1706 0.950 . S
C1702 C1711 1.390 . S
C1703 C1702 1.387 . S
C1703 C1705 1.387 . S
H1704 C1711 0.950 . S
C1705 C1703 1.387 . S
C1705 C1707 1.390 . S
C1705 H1709 0.950 . S
H1706 C1702 0.950 . S
C1707 C1705 1.390 . S
C1707 C1708 1.387 . S
C1707 H1710 0.950 . S
C1708 C1707 1.387 . S
C1708 C1711 1.387 . S
H1709 C1705 0.950 . S
H1710 C1707 0.950 . S
C1711 C1702 1.390 . S
C1711 H1704 0.950 . S
C1711 C1708 1.387 . S
C1712 C1713 1.387 . S
C1712 H1716 0.950 . S
C1712 C1721 1.390 . S
C1713 C1712 1.387 . S
C1713 C1715 1.387 . S
H1714 C1721 0.945 1_554 S
C1715 C1713 1.387 . S
C1715 C1717 1.390 . S
C1715 H1719 0.950 . S
H1716 C1712 0.950 . S
C1717 C1715 1.390 . S
C1717 C1718 1.387 . S
C1717 H1720 0.950 . S
C1718 C1717 1.387 . S
C1718 C1721 1.387 . S
H1719 C1715 0.950 . S
H1720 C1717 0.950 . S
C1721 C1712 1.390 . S
C1721 H1714 0.945 1_556 S
C1721 C1718 1.387 . S
C1722 C1723 1.387 . S
C1722 H1726 0.950 . S
C1722 C1731 1.390 . S
C1723 C1722 1.387 . S
C1723 C1725 1.387 . S
H1724 C1731 0.950 . S
C1725 C1723 1.387 . S
C1725 C1727 1.390 . S
C1725 H1729 0.950 . S
H1726 C1722 0.950 . S
C1727 C1725 1.390 . S
C1727 C1728 1.387 . S
C1727 H1730 0.950 . S
C1728 C1727 1.387 . S
C1728 C1731 1.387 . S
H1729 C1725 0.950 . S
H1730 C1727 0.950 . S
C1731 C1722 1.390 . S
C1731 H1724 0.950 . S
C1731 C1728 1.387 . S
C1732 C1733 1.387 . S
C1732 H1736 0.950 . S
C1732 C1741 1.390 . S
C1733 C1732 1.387 . S
C1733 C1735 1.387 . S
H1734 C1741 0.950 . S
C1735 C1733 1.387 . S
C1735 C1737 1.390 . S
C1735 H1739 0.950 . S
H1736 C1732 0.950 . S
C1737 C1735 1.390 . S
C1737 C1738 1.387 . S
C1737 H1740 0.950 . S
C1738 C1737 1.387 . S
C1738 C1741 1.387 . S
H1739 C1735 0.950 . S
H1740 C1737 0.950 . S
C1741 C1732 1.390 . S
C1741 H1734 0.950 . S
C1741 C1738 1.387 . S
C1742 C1743 1.387 . S
C1742 H1746 0.950 . S
C1742 C1751 1.390 . S
C1743 C1742 1.387 . S
C1743 C1745 1.387 . S
H1744 C1751 0.950 . S
C1745 C1743 1.387 . S
C1745 C1747 1.390 . S
C1745 H1749 0.950 . S
H1746 C1742 0.950 . S
C1747 C1745 1.390 . S
C1747 C1748 1.387 . S
C1747 H1750 0.950 . S
C1748 C1747 1.387 . S
C1748 C1751 1.387 . S
H1749 C1745 0.950 . S
H1750 C1747 0.950 . S
C1751 C1742 1.390 . S
C1751 H1744 0.950 . S
C1751 C1748 1.387 . S
C1752 C1753 1.387 . S
C1752 H1756 0.950 . S
C1752 C1761 1.390 . S
C1753 C1752 1.387 . S
C1753 C1755 1.387 . S
H1754 C1761 0.950 . S
C1755 C1753 1.387 . S
C1755 C1757 1.390 . S
C1755 H1759 0.950 . S
H1756 C1752 0.950 . S
C1757 C1755 1.390 . S
C1757 C1758 1.387 . S
C1757 H1760 0.950 . S
C1758 C1757 1.387 . S
C1758 C1761 1.387 . S
H1759 C1755 0.950 . S
H1760 C1757 0.950 . S
C1761 C1752 1.390 . S
C1761 H1754 0.950 . S
C1761 C1758 1.387 . S
C1762 C1763 1.387 . S
C1762 H1766 0.950 . S
C1762 C1771 1.390 . S
C1763 C1762 1.387 . S
C1763 C1765 1.387 . S
H1764 C1771 0.950 . S
C1765 C1763 1.387 . S
C1765 C1767 1.390 . S
C1765 H1769 0.950 . S
H1766 C1762 0.950 . S
C1767 C1765 1.390 . S
C1767 C1768 1.387 . S
C1767 H1770 0.950 . S
C1768 C1767 1.387 . S
C1768 C1771 1.387 . S
H1769 C1765 0.950 . S
H1770 C1767 0.950 . S
C1771 C1762 1.390 . S
C1771 H1764 0.950 . S
C1771 C1768 1.387 . S
C1772 C1773 1.387 . S
C1772 H1776 0.950 . S
C1772 C1781 1.390 1_655 S
C1773 C1772 1.387 . S
C1773 C1775 1.387 . S
H1774 C1781 0.950 . S
C1775 C1773 1.387 . S
C1775 C1777 1.390 1_655 S
C1775 H1779 0.950 . S
H1776 C1772 0.950 . S
C1777 C1775 1.390 1_455 S
C1777 C1778 1.387 . S
C1777 H1780 0.950 . S
C1778 C1777 1.387 . S
C1778 C1781 1.387 . S
H1779 C1775 0.950 . S
H1780 C1777 0.950 . S
C1781 C1772 1.390 1_455 S
C1781 H1774 0.950 . S
C1781 C1778 1.387 . S
C1782 C1783 1.387 . S
C1782 H1786 0.950 . S
C1782 C1791 1.390 . S
C1783 C1782 1.387 . S
C1783 C1785 1.387 . S
H1784 C1791 0.950 . S
C1785 C1783 1.387 . S
C1785 C1787 1.390 . S
C1785 H1789 0.950 . S
H1786 C1782 0.950 . S
C1787 C1785 1.390 . S
C1787 C1788 1.387 . S
C1787 H1790 0.950 . S
C1788 C1787 1.387 . S
C1788 C1791 1.387 . S
H1789 C1785 0.950 . S
H1790 C1787 0.950 . S
C1791 C1782 1.390 . S
C1791 H1784 0.950 . S
C1791 C1788 1.387 . S
C1792 C1793 1.387 . S
C1792 H1796 0.950 . S
C1792 C1801 1.390 . S
C1793 C1792 1.387 . S
C1793 C1795 1.387 . S
H1794 C1801 0.950 . S
C1795 C1793 1.387 . S
C1795 C1797 1.390 . S
C1795 H1799 0.950 . S
H1796 C1792 0.950 . S
C1797 C1795 1.390 . S
C1797 C1798 1.387 . S
C1797 H1800 0.950 . S
C1798 C1797 1.387 . S
C1798 C1801 1.387 . S
H1799 C1795 0.950 . S
H1800 C1797 0.950 . S
C1801 C1792 1.390 . S
C1801 H1794 0.950 . S
C1801 C1798 1.387 . S
C1802 C1803 1.387 . S
C1802 H1806 0.950 . S
C1802 C1811 1.390 . S
C1803 C1802 1.387 . S
C1803 C1805 1.387 . S
H1804 C1811 0.950 . S
C1805 C1803 1.387 . S
C1805 C1807 1.390 . S
C1805 H1809 0.950 . S
H1806 C1802 0.950 . S
C1807 C1805 1.390 . S
C1807 C1808 1.387 . S
C1807 H1810 0.950 . S
C1808 C1807 1.387 . S
C1808 C1811 1.387 . S
H1809 C1805 0.950 . S
H1810 C1807 0.950 . S
C1811 C1802 1.390 . S
C1811 H1804 0.950 . S
C1811 C1808 1.387 . S
C1812 C1813 1.387 . S
C1812 H1816 0.950 . S
C1812 C1821 1.390 . S
C1813 C1812 1.387 . S
C1813 C1815 1.387 . S
H1814 C1821 0.950 . S
C1815 C1813 1.387 . S
C1815 C1817 1.390 . S
C1815 H1819 0.950 . S
H1816 C1812 0.950 . S
C1817 C1815 1.390 . S
C1817 C1818 1.387 . S
C1817 H1820 0.950 . S
C1818 C1817 1.387 . S
C1818 C1821 1.387 . S
H1819 C1815 0.950 . S
H1820 C1817 0.950 . S
C1821 C1812 1.390 . S
C1821 H1814 0.950 . S
C1821 C1818 1.387 . S
C1822 C1823 1.387 . S
C1822 H1826 0.950 . S
C1822 C1831 1.390 . S
C1823 C1822 1.387 . S
C1823 C1825 1.387 . S
H1824 C1831 0.950 . S
C1825 C1823 1.387 . S
C1825 C1827 1.390 . S
C1825 H1829 0.950 . S
H1826 C1822 0.950 . S
C1827 C1825 1.390 . S
C1827 C1828 1.387 . S
C1827 H1830 0.950 . S
C1828 C1827 1.387 . S
C1828 C1831 1.387 . S
H1829 C1825 0.950 . S
H1830 C1827 0.950 . S
C1831 C1822 1.390 . S
C1831 H1824 0.950 . S
C1831 C1828 1.387 . S
C1832 C1833 1.387 . S
C1832 H1836 0.950 . S
C1832 C1841 1.390 . S
C1833 C1832 1.387 . S
C1833 C1835 1.387 . S
H1834 C1841 0.950 . S
C1835 C1833 1.387 . S
C1835 C1837 1.390 . S
C1835 H1839 0.950 . S
H1836 C1832 0.950 . S
C1837 C1835 1.390 . S
C1837 C1838 1.387 . S
C1837 H1840 0.950 . S
C1838 C1837 1.387 . S
C1838 C1841 1.387 . S
H1839 C1835 0.950 . S
H1840 C1837 0.950 . S
C1841 C1832 1.390 . S
C1841 H1834 0.950 . S
C1841 C1838 1.387 . S
C1842 C1843 1.387 . S
C1842 H1846 0.950 . S
C1842 C1851 1.390 . S
C1843 C1842 1.387 . S
C1843 C1845 1.387 . S
H1844 C1851 0.950 . S
C1845 C1843 1.387 . S
C1845 C1847 1.390 . S
C1845 H1849 0.950 . S
H1846 C1842 0.950 . S
C1847 C1845 1.390 . S
C1847 C1848 1.387 . S
C1847 H1850 0.950 . S
C1848 C1847 1.387 . S
C1848 C1851 1.387 . S
H1849 C1845 0.950 . S
H1850 C1847 0.950 . S
C1851 C1842 1.390 . S
C1851 H1844 0.950 . S
C1851 C1848 1.387 . S
C1852 C1853 1.387 . S
C1852 H1856 0.950 . S
C1852 C1861 1.390 . S
C1853 C1852 1.387 . S
C1853 C1855 1.387 . S
H1854 C1861 0.950 . S
C1855 C1853 1.387 . S
C1855 C1857 1.390 . S
C1855 H1859 0.950 . S
H1856 C1852 0.950 . S
C1857 C1855 1.390 . S
C1857 C1858 1.387 . S
C1857 H1860 0.950 . S
C1858 C1857 1.387 . S
C1858 C1861 1.387 . S
H1859 C1855 0.950 . S
H1860 C1857 0.950 . S
C1861 C1852 1.390 . S
C1861 H1854 0.950 . S
C1861 C1858 1.387 . S
C1862 C1863 1.387 . S
C1862 H1866 0.950 . S
C1862 C1871 1.390 . S
C1863 C1862 1.387 . S
C1863 C1865 1.387 . S
H1864 C1871 0.950 . S
C1865 C1863 1.387 . S
C1865 C1867 1.390 . S
C1865 H1869 0.950 . S
H1866 C1862 0.950 . S
C1867 C1865 1.390 . S
C1867 C1868 1.387 . S
C1867 H1870 0.950 . S
C1868 C1867 1.387 . S
C1868 C1871 1.387 . S
H1869 C1865 0.950 . S
H1870 C1867 0.950 . S
C1871 C1862 1.390 . S
C1871 H1864 0.950 . S
C1871 C1868 1.387 . S
C1872 C1873 1.387 . S
C1872 H1876 0.950 . S
C1872 C1881 1.390 . S
C1873 C1872 1.387 . S
C1873 C1875 1.387 . S
H1874 C1881 0.950 . S
C1875 C1873 1.387 . S
C1875 C1877 1.390 . S
C1875 H1879 0.950 . S
H1876 C1872 0.950 . S
C1877 C1875 1.390 . S
C1877 C1878 1.387 . S
C1877 H1880 0.950 . S
C1878 C1877 1.387 . S
C1878 C1881 1.387 . S
H1879 C1875 0.950 . S
H1880 C1877 0.950 . S
C1881 C1872 1.390 . S
C1881 H1874 0.950 . S
C1881 C1878 1.387 . S
C1882 C1883 1.387 . S
C1882 H1886 0.950 . S
C1882 C1891 1.390 . S
C1883 C1882 1.387 . S
C1883 C1885 1.370 1_554 S
H1884 C1891 0.950 . S
C1885 C1883 1.370 1_556 S
C1885 C1887 1.399 . S
C1885 H1889 0.959 . S
H1886 C1882 0.950 . S
C1887 C1885 1.399 . S
C1887 C1888 1.387 1_556 S
C1887 H1890 0.950 . S
C1888 C1887 1.387 1_554 S
C1888 C1891 1.387 . S
H1889 C1885 0.959 . S
H1890 C1887 0.950 . S
C1891 C1882 1.390 . S
C1891 H1884 0.950 . S
C1891 C1888 1.387 . S
C1892 C1893 1.387 . S
C1892 H1896 0.950 . S
C1892 C1901 1.390 . S
C1893 C1892 1.387 . S
C1893 C1895 1.387 . S
H1894 C1901 0.950 . S
C1895 C1893 1.387 . S
C1895 C1897 1.390 . S
C1895 H1899 0.950 . S
H1896 C1892 0.950 . S
C1897 C1895 1.390 . S
C1897 C1898 1.387 . S
C1897 H1900 0.950 . S
C1898 C1897 1.387 . S
C1898 C1901 1.387 . S
H1899 C1895 0.950 . S
H1900 C1897 0.950 . S
C1901 C1892 1.390 . S
C1901 H1894 0.950 . S
C1901 C1898 1.387 . S
C1902 C1903 1.387 . S
C1902 H1906 0.950 . S
C1902 C1911 1.390 . S
C1903 C1902 1.387 . S
C1903 C1905 1.387 . S
H1904 C1911 0.950 . S
C1905 C1903 1.387 . S
C1905 C1907 1.390 . S
C1905 H1909 0.950 . S
H1906 C1902 0.950 . S
C1907 C1905 1.390 . S
C1907 C1908 1.387 . S
C1907 H1910 0.950 . S
C1908 C1907 1.387 . S
C1908 C1911 1.387 . S
H1909 C1905 0.950 . S
H1910 C1907 0.950 . S
C1911 C1902 1.390 . S
C1911 H1904 0.950 . S
C1911 C1908 1.387 . S
C953 C101 1.220 . S
C958 C320 1.236 1_556 S
C963 C57 1.639 . S
C968 C354 1.691 . S
C973 C70 0.867 . S
C978 C423 0.844 . S
C988 C461 0.887 . S
C983 C82 0.893 . S
C993 C23 1.882 . S
C998 C501 1.810 . S
C1008 C520 0.653 . S
C1003 C29 0.648 . S
C1018 C554 1.464 . S
C1013 C49 1.353 . S
C1023 C10 1.992 . S
C1028 C623 1.962 . S
C1038 C329 2.513 . S
C1033 C218 2.554 1_455 S
C1043 C226 1.603 . S
C1048 C381 1.566 . S
C1058 C394 1.503 . S
C1053 C251 1.453 . S
C1068 C463 1.474 . S
C1063 C159 1.475 . S
C1073 C211 2.085 . S
C1078 C503 2.086 . S
C1088 C529 1.970 . S
C1083 C225 1.952 . S
C1098 C581 0.485 . S
C1093 C252 0.434 . S
C1108 C594 2.344 . S
C1103 C166 2.349 . S
C1118 C324 2.388 . S
C1113 C147 2.435 1_545 S
C1123 C263 1.983 . S
C1128 C634 2.087 . S
C1138 C684 2.685 . S
C1133 C309 2.704 . S
C1148 C743 1.567 . S
C1143 C291 1.564 . S
C1153 C108 1.968 . S
C1158 C621 1.929 . S
C1163 C121 1.704 . S
C1168 C421 1.685 . S
C1173 C302 2.373 . S
C1178 C754 2.371 . S
C1188 C823 1.078 . S
C1183 C276 1.134 . S
C1198 C341 1.239 . S
C1193 C55 1.220 . S
C1208 C809 1.656 . S
C1203 C96 1.651 . S
C1213 C88 0.961 . S
C1218 C404 0.952 . S
C1223 C75 1.140 . S
C1228 C760 1.120 . S
C1238 C480 1.750 . S
C1233 C4 1.800 . S
C1243 C44 0.670 . S
C1248 C701 0.673 . S
C1258 C569 1.742 1_566 S
C1253 C31 1.706 . S
C1268 C844 1.892 . S
C1263 C18 1.895 . S
C1278 C314 2.538 . S
C1273 C133 2.583 . S
C1288 C800 1.314 . S
C1283 C296 1.329 . S
C1293 C107 1.575 . S
C1298 C409 1.574 . S
C1303 C264 1.709 . S
C1308 C764 1.717 . S
C1313 C140 2.198 . S
C1318 C484 2.237 . S
C1328 C674 1.969 . S
C1323 C289 2.003 . S
C1333 C114 0.673 . S
C1338 C560 0.684 . S
C1343 C265 2.462 . S
C1348 C849 2.454 . S
C1353 C179 2.674 . S
C1358 C343 2.631 1_655 S
C1363 C161 2.152 . S
C1368 C649 2.190 . S
C1373 C244 2.945 . S
C1378 C543 2.918 . S
C1383 C224 1.958 . S
C1388 C724 1.966 . S
C1398 C840 1.789 . S
C1393 C257 1.803 . S
C1403 C199 1.619 . S
C1408 C400 1.590 . S
C1418 C449 2.641 . S
C1413 C237 2.679 . S
C1428 C364 1.138 . S
C1423 C185 1.157 . S
C1433 C69 1.221 . S
C1438 C880 1.237 . S
C1448 C794 1.690 . S
C1443 C83 1.638 . S
C1453 C94 0.865 . S
C1458 C943 0.841 . S
C1463 C56 0.893 . S
C1468 C781 0.890 . S
C1473 C42 1.906 . S
C1478 C661 1.817 . S
C1488 C680 0.648 . S
C1483 C3 0.644 . S
C1498 C714 1.470 . S
C1493 C16 1.345 . S
C1508 C863 1.962 . S
C1503 C36 1.992 . S
C1518 C889 2.513 . S
C1513 C238 2.554 . S
C1523 C174 1.604 . S
C1528 C821 1.568 . S
C1538 C914 1.502 . S
C1533 C186 1.455 . S
C1548 C783 1.474 . S
C1543 C198 1.476 . S
C1558 C663 2.087 . S
C1553 C239 2.084 . S
C1563 C173 1.953 . S
C1568 C689 1.970 . S
C1578 C741 0.488 . S
C1573 C187 0.436 . S
C1583 C205 2.349 . S
C1588 C834 2.345 . S
C1598 C884 2.385 . S
C1593 C290 2.433 . S
C1603 C122 1.988 . S
C1608 C474 2.087 . S
C1618 C524 2.690 . S
C1613 C134 2.709 . S
C1628 C583 1.567 . S
C1623 C148 1.564 1_545 S
C1638 C861 1.931 . S
C1633 C283 1.969 . S
C1643 C270 1.701 . S
C1648 C941 1.681 . S
C1658 C434 2.370 . S
C1653 C135 2.373 . S
C1668 C383 1.078 . S
C1663 C109 1.134 . S
C1673 C81 1.223 . S
C1678 C901 1.241 . S
C1688 C369 1.655 . S
C1683 C68 1.649 . S
C1693 C62 0.962 . S
C1698 C924 0.953 . S
C1703 C95 1.140 . S
C1708 C440 1.120 . S
C1713 C30 1.801 . S
C1718 C640 1.751 . S
C1728 C541 0.666 . S
C1723 C17 0.658 . S
C1733 C5 1.706 . S
C1738 C729 1.742 . S
C1743 C43 1.884 . S
C1748 C604 1.882 . S
C1758 C874 2.537 . S
C1753 C304 2.583 . S
C1763 C153 1.327 . S
C1768 C360 1.311 . S
C1778 C929 1.576 . S
C1773 C278 1.577 . S
C1783 C127 1.710 . S
C1788 C444 1.717 . S
C1793 C303 2.192 . S
C1798 C644 2.230 . S
C1808 C514 1.968 . S
C1803 C146 2.001 . S
C1813 C277 0.669 . S
C1818 C720 0.678 . S
C1828 C609 2.452 . S
C1823 C120 2.460 . S
C1838 C903 2.631 . S
C1833 C231 2.674 . S
C1848 C489 2.190 1_665 S
C1843 C200 2.151 . S
C1853 C212 2.948 . S
C1858 C703 2.921 . S
C1868 C564 1.965 . S
C1863 C172 1.957 . S
C1873 C192 1.804 . S
C1878 C600 1.790 . S
C1883 C160 1.621 . S
C1888 C920 1.592 1_554 S
C1898 C769 2.643 . S
C1893 C213 2.680 1_565 S
C1908 C804 1.139 . S
C1903 C250 1.158 . S
