# Generated by pormake.
# Topology pyr, (3,6)-cn, num edge types: 1
# Building blocks:
#     Node 0, Type 0, BuildingBlock: WUSLED_clean_sbu_0, # of connection points: 3
#     Node 1, Type 0, BuildingBlock: WUSLED_clean_sbu_0, # of connection points: 3
#     Node 2, Type 0, BuildingBlock: WUSLED_clean_sbu_0, # of connection points: 3
#     Node 3, Type 0, BuildingBlock: WUSLED_clean_sbu_0, # of connection points: 3
#     Node 4, Type 0, BuildingBlock: WUSLED_clean_sbu_0, # of connection points: 3
#     Node 5, Type 0, BuildingBlock: WUSLED_clean_sbu_0, # of connection points: 3
#     Node 6, Type 0, BuildingBlock: WUSLED_clean_sbu_0, # of connection points: 3
#     Node 7, Type 0, BuildingBlock: WUSLED_clean_sbu_0, # of connection points: 3
#     Node 8, Type 1, BuildingBlock: MIFKUJ_clean_sbu_0, # of connection points: 6
#     Node 9, Type 1, BuildingBlock: MIFKUJ_clean_sbu_0, # of connection points: 6
#     Node 10, Type 1, BuildingBlock: MIFKUJ_clean_sbu_0, # of connection points: 6
#     Node 11, Type 1, BuildingBlock: MIFKUJ_clean_sbu_0, # of connection points: 6
#     Edge 12, Type (0, 1), BuildingBlock: KIFKEQ_clean_linker_1, # of connection points: 2
#     Edge 13, Type (0, 1), BuildingBlock: KIFKEQ_clean_linker_1, # of connection points: 2
#     Edge 14, Type (0, 1), BuildingBlock: KIFKEQ_clean_linker_1, # of connection points: 2
#     Edge 15, Type (0, 1), BuildingBlock: KIFKEQ_clean_linker_1, # of connection points: 2
#     Edge 16, Type (0, 1), BuildingBlock: KIFKEQ_clean_linker_1, # of connection points: 2
#     Edge 17, Type (0, 1), BuildingBlock: KIFKEQ_clean_linker_1, # of connection points: 2
#     Edge 18, Type (0, 1), BuildingBlock: KIFKEQ_clean_linker_1, # of connection points: 2
#     Edge 19, Type (0, 1), BuildingBlock: KIFKEQ_clean_linker_1, # of connection points: 2
#     Edge 20, Type (0, 1), BuildingBlock: KIFKEQ_clean_linker_1, # of connection points: 2
#     Edge 21, Type (0, 1), BuildingBlock: KIFKEQ_clean_linker_1, # of connection points: 2
#     Edge 22, Type (0, 1), BuildingBlock: KIFKEQ_clean_linker_1, # of connection points: 2
#     Edge 23, Type (0, 1), BuildingBlock: KIFKEQ_clean_linker_1, # of connection points: 2
#     Edge 24, Type (0, 1), BuildingBlock: KIFKEQ_clean_linker_1, # of connection points: 2
#     Edge 25, Type (0, 1), BuildingBlock: KIFKEQ_clean_linker_1, # of connection points: 2
#     Edge 26, Type (0, 1), BuildingBlock: KIFKEQ_clean_linker_1, # of connection points: 2
#     Edge 27, Type (0, 1), BuildingBlock: KIFKEQ_clean_linker_1, # of connection points: 2
#     Edge 28, Type (0, 1), BuildingBlock: KIFKEQ_clean_linker_1, # of connection points: 2
#     Edge 29, Type (0, 1), BuildingBlock: KIFKEQ_clean_linker_1, # of connection points: 2
#     Edge 30, Type (0, 1), BuildingBlock: KIFKEQ_clean_linker_1, # of connection points: 2
#     Edge 31, Type (0, 1), BuildingBlock: KIFKEQ_clean_linker_1, # of connection points: 2
#     Edge 32, Type (0, 1), BuildingBlock: KIFKEQ_clean_linker_1, # of connection points: 2
#     Edge 33, Type (0, 1), BuildingBlock: KIFKEQ_clean_linker_1, # of connection points: 2
#     Edge 34, Type (0, 1), BuildingBlock: KIFKEQ_clean_linker_1, # of connection points: 2
#     Edge 35, Type (0, 1), BuildingBlock: KIFKEQ_clean_linker_1, # of connection points: 2
# Relax obj value: 0.025
# Max RMSD: 0.081
# Mean RMSD: 0.045
data_MOF--net-pyr--node1-WUSLED_clean_sbu_0--node2-MIFKUJ_clean_sbu_0--edge1-KIFKEQ_clean_linker_1
_symmetry_space_group_name_H-M    P1
_symmetry_Int_Tables_number       1
_symmetry_cell_setting            triclinic
loop_
_symmetry_equiv_pos_as_xyz
'x, y, z'
_cell_length_a     51.327382
_cell_length_b     46.488871
_cell_length_c     50.077138
_cell_angle_alpha  85.769663
_cell_angle_beta   88.977741
_cell_angle_gamma 95.83326
loop_
_atom_site_label
_atom_site_type_symbol
_atom_site_fract_x
_atom_site_fract_y
_atom_site_fract_z
_atom_type_partial_charge
C0 C 0.18534 0.22898 0.14558 0.0
C1 C 0.17727 0.24956 0.16232 0.0
C2 C 0.15728 0.2745 0.12461 0.0
C3 C 0.16348 0.27215 0.15191 0.0
C4 C 0.16485 0.25336 0.10813 0.0
C5 C 0.17882 0.23095 0.1185 0.0
U6 U 0.1984 0.16923 0.19866 0.0
O7 O 0.21022 0.12562 0.19424 0.0
O8 O 0.23546 0.15704 0.21531 0.0
C9 C 0.23291 0.1315 0.20547 0.0
C10 C 0.20068 0.20551 0.15582 0.0
C11 C 0.25603 0.12396 0.19077 0.0
C12 C 0.28397 0.12726 0.15067 0.0
C13 C 0.26168 0.13462 0.16411 0.0
C14 C 0.29515 0.0987 0.19047 0.0
C15 C 0.30104 0.10929 0.16375 0.0
C16 C 0.27288 0.10598 0.20381 0.0
C17 C 0.15213 0.15611 0.26069 0.0
C18 C 0.14575 0.11257 0.29109 0.0
C19 C 0.12901 0.1568 0.30335 0.0
C20 C 0.13891 0.171 0.27916 0.0
C21 C 0.13208 0.12734 0.30951 0.0
C22 C 0.15578 0.12686 0.26692 0.0
C23 C 0.16108 0.17132 0.23481 0.0
O24 O 0.2144 0.21037 0.17726 0.0
O25 O 0.18853 0.17916 0.15655 0.0
O26 O 0.15817 0.15616 0.21372 0.0
O27 O 0.18367 0.18741 0.23475 0.0
H28 H 0.18187 0.24843 0.18337 0.0
H29 H 0.15827 0.28815 0.16516 0.0
H30 H 0.16 0.25409 0.08716 0.0
H31 H 0.18465 0.21517 0.1053 0.0
H32 H 0.28805 0.13598 0.1302 0.0
H33 H 0.24891 0.14869 0.15378 0.0
H34 H 0.30761 0.08446 0.20102 0.0
H35 H 0.26881 0.09753 0.22437 0.0
H36 H 0.14871 0.08997 0.29539 0.0
H37 H 0.11834 0.16873 0.31691 0.0
H38 H 0.13587 0.19356 0.27468 0.0
H39 H 0.16609 0.11501 0.25298 0.0
C40 C 0.2805 0.85218 0.63717 0.0
C41 C 0.27775 0.87994 0.6454 0.0
C42 C 0.23576 0.88015 0.62341 0.0
C43 C 0.25564 0.89385 0.63849 0.0
C44 C 0.2386 0.85219 0.61543 0.0
C45 C 0.26079 0.83838 0.62223 0.0
U46 U 0.3385 0.84182 0.68185 0.0
O47 O 0.35411 0.80195 0.69801 0.0
O48 O 0.37889 0.83387 0.67177 0.0
C49 C 0.3765 0.80803 0.68465 0.0
C50 C 0.3036 0.83725 0.64435 0.0
C51 C 0.38505 0.78463 0.66956 0.0
C52 C 0.37909 0.75195 0.63399 0.0
C53 C 0.37058 0.77427 0.64813 0.0
C54 C 0.41662 0.75029 0.66255 0.0
C55 C 0.40221 0.73965 0.64108 0.0
C56 C 0.40809 0.77257 0.67664 0.0
C57 C 0.35176 0.88789 0.7403 0.0
C58 C 0.38372 0.87587 0.77339 0.0
C59 C 0.36581 0.92217 0.77278 0.0
C60 C 0.35051 0.91473 0.75099 0.0
C61 C 0.3826 0.9028 0.78427 0.0
C62 C 0.36853 0.86855 0.75155 0.0
C63 C 0.33584 0.88033 0.71725 0.0
O64 O 0.32633 0.85303 0.64086 0.0
O65 O 0.30146 0.82127 0.66721 0.0
O66 O 0.32255 0.85452 0.71973 0.0
O67 O 0.3477 0.88631 0.69373 0.0
H68 H 0.29274 0.8909 0.65708 0.0
H69 H 0.2543 0.91549 0.64469 0.0
H70 H 0.22352 0.84078 0.6042 0.0
H71 H 0.26251 0.81685 0.61591 0.0
H72 H 0.36737 0.74404 0.61778 0.0
H73 H 0.3527 0.78339 0.64243 0.0
H74 H 0.43469 0.74163 0.66829 0.0
H75 H 0.41954 0.78045 0.69307 0.0
H76 H 0.39612 0.86025 0.78193 0.0
H77 H 0.36474 0.94324 0.78037 0.0
H78 H 0.33778 0.93 0.74241 0.0
H79 H 0.36982 0.84773 0.74347 0.0
C80 C 0.62642 0.37208 0.76822 0.0
C81 C 0.64326 0.37804 0.74557 0.0
C82 C 0.61024 0.40355 0.72191 0.0
C83 C 0.63521 0.39353 0.72264 0.0
C84 C 0.59366 0.39801 0.74477 0.0
C85 C 0.60164 0.38236 0.7676 0.0
U86 U 0.67124 0.35495 0.82707 0.0
O87 O 0.66092 0.33825 0.86853 0.0
O88 O 0.68348 0.31305 0.84281 0.0
C89 C 0.67145 0.31393 0.86608 0.0
C90 C 0.63365 0.35413 0.79212 0.0
C91 C 0.65544 0.28723 0.87629 0.0
C92 C 0.61549 0.25416 0.87718 0.0
C93 C 0.63058 0.27927 0.86629 0.0
C94 C 0.65017 0.24468 0.9078 0.0
C95 C 0.62504 0.23672 0.89827 0.0
C96 C 0.66518 0.26968 0.89692 0.0
C97 C 0.733 0.40496 0.83896 0.0
C98 C 0.76661 0.39179 0.86991 0.0
C99 C 0.76762 0.44119 0.85048 0.0
C100 C 0.74493 0.43352 0.8365 0.0
C101 C 0.77894 0.42038 0.86717 0.0
C102 C 0.74382 0.38417 0.85596 0.0
C103 C 0.70939 0.39731 0.82365 0.0
O104 O 0.65452 0.34017 0.78973 0.0
O105 O 0.63197 0.36563 0.81523 0.0
O106 O 0.68697 0.39888 0.83625 0.0
O107 O 0.7096 0.37396 0.81037 0.0
H108 H 0.66254 0.37051 0.74539 0.0
H109 H 0.64856 0.39771 0.70548 0.0
H110 H 0.57421 0.4051 0.74478 0.0
H111 H 0.58822 0.37789 0.7847 0.0
H112 H 0.59616 0.24875 0.8695 0.0
H113 H 0.62277 0.29263 0.85033 0.0
H114 H 0.65834 0.23151 0.92365 0.0
H115 H 0.68439 0.27543 0.90478 0.0
H116 H 0.77486 0.37515 0.88237 0.0
H117 H 0.77624 0.46351 0.84827 0.0
H118 H 0.73672 0.44992 0.82366 0.0
H119 H 0.73478 0.362 0.85823 0.0
C120 C 0.79695 0.61098 0.32044 0.0
C121 C 0.78631 0.63133 0.33564 0.0
C122 C 0.75019 0.59547 0.35088 0.0
C123 C 0.7631 0.62368 0.35065 0.0
C124 C 0.76121 0.57506 0.33585 0.0
C125 C 0.78438 0.5828 0.32074 0.0
U126 U 0.85706 0.66346 0.30426 0.0
O127 O 0.89787 0.6564 0.29502 0.0
O128 O 0.87564 0.68074 0.26568 0.0
C129 C 0.8972 0.66841 0.27046 0.0
C130 C 0.82121 0.61907 0.30446 0.0
C131 C 0.9057 0.65094 0.24926 0.0
C132 C 0.90026 0.60766 0.22465 0.0
C133 C 0.89203 0.62403 0.24499 0.0
C134 C 0.9358 0.64504 0.21261 0.0
C135 C 0.9223 0.61795 0.20824 0.0
C136 C 0.92756 0.66136 0.23295 0.0
C137 C 0.86429 0.73 0.34672 0.0
C138 C 0.90341 0.76171 0.35534 0.0
C139 C 0.86053 0.77533 0.36688 0.0
C140 C 0.84887 0.74987 0.35719 0.0
C141 C 0.88795 0.78147 0.36632 0.0
C142 C 0.89166 0.73618 0.34554 0.0
C143 C 0.8512 0.70254 0.33853 0.0
O144 O 0.82109 0.64245 0.28802 0.0
O145 O 0.84292 0.61838 0.3179 0.0
O146 O 0.8631 0.67918 0.3442 0.0
O147 O 0.84094 0.70346 0.31466 0.0
H148 H 0.79586 0.65321 0.33572 0.0
H149 H 0.75504 0.64004 0.36169 0.0
H150 H 0.75205 0.55302 0.33591 0.0
H151 H 0.79247 0.56677 0.30929 0.0
H152 H 0.88959 0.58679 0.22203 0.0
H153 H 0.87505 0.61569 0.25743 0.0
H154 H 0.95257 0.65385 0.20009 0.0
H155 H 0.93822 0.68218 0.23588 0.0
H156 H 0.92456 0.76595 0.3544 0.0
H157 H 0.84803 0.78978 0.37557 0.0
H158 H 0.82772 0.74539 0.35838 0.0
H159 H 0.90392 0.72112 0.33742 0.0
C160 C 0.84131 0.78378 0.88248 0.0
C161 C 0.86325 0.77669 0.8682 0.0
C162 C 0.87049 0.73934 0.9033 0.0
C163 C 0.87771 0.75461 0.87851 0.0
C164 C 0.84832 0.7465 0.91735 0.0
C165 C 0.83391 0.76853 0.90703 0.0
U166 U 0.82985 0.84378 0.82944 0.0
O167 O 0.79339 0.85756 0.81274 0.0
O168 O 0.81945 0.88801 0.83407 0.0
C169 C 0.7965 0.88281 0.82317 0.0
C170 C 0.82629 0.80734 0.87226 0.0
C171 C 0.7738 0.89137 0.83823 0.0
C172 C 0.73061 0.88034 0.85971 0.0
C173 C 0.75235 0.87128 0.84663 0.0
C174 C 0.75169 0.9295 0.85689 0.0
C175 C 0.72988 0.90964 0.8648 0.0
C176 C 0.7733 0.92048 0.84366 0.0
C177 C 0.87725 0.85566 0.76813 0.0
C178 C 0.88136 0.89765 0.73581 0.0
C179 C 0.90519 0.85642 0.72841 0.0
C180 C 0.89438 0.84221 0.75221 0.0
C181 C 0.8991 0.88447 0.72006 0.0
C182 C 0.87053 0.88335 0.75968 0.0
C183 C 0.86739 0.84067 0.79376 0.0
O184 O 0.83885 0.83347 0.8716 0.0
O185 O 0.81318 0.80257 0.85044 0.0
O186 O 0.84437 0.82552 0.79333 0.0
O187 O 0.87042 0.85573 0.8149 0.0
H188 H 0.86928 0.78836 0.84921 0.0
H189 H 0.89478 0.74982 0.86729 0.0
H190 H 0.84193 0.73487 0.93625 0.0
H191 H 0.81697 0.7737 0.91826 0.0
H192 H 0.71411 0.86447 0.86522 0.0
H193 H 0.75216 0.84864 0.84279 0.0
H194 H 0.75209 0.95212 0.86089 0.0
H195 H 0.78963 0.93636 0.83748 0.0
H196 H 0.8764 0.91929 0.73006 0.0
H197 H 0.91837 0.84542 0.71655 0.0
H198 H 0.89966 0.82077 0.75836 0.0
H199 H 0.85726 0.89404 0.77174 0.0
C200 C 0.63863 0.16068 0.2915 0.0
C201 C 0.65652 0.15042 0.27386 0.0
C202 C 0.62075 0.13364 0.24569 0.0
C203 C 0.64765 0.13714 0.25106 0.0
C204 C 0.60292 0.14345 0.26373 0.0
C205 C 0.61181 0.1569 0.28638 0.0
U206 U 0.68505 0.17294 0.3496 0.0
O207 O 0.70227 0.21349 0.36491 0.0
O208 O 0.67579 0.18294 0.39085 0.0
C209 C 0.68851 0.20901 0.38752 0.0
C210 C 0.64742 0.17581 0.31505 0.0
C211 C 0.67375 0.23298 0.39501 0.0
C212 C 0.65412 0.27759 0.38347 0.0
C213 C 0.66737 0.25458 0.37579 0.0
C214 C 0.65255 0.25726 0.4295 0.0
C215 C 0.64672 0.27927 0.41043 0.0
C216 C 0.66605 0.2344 0.42185 0.0
C217 C 0.74183 0.12649 0.36077 0.0
C218 C 0.78124 0.13953 0.38527 0.0
C219 C 0.76955 0.08952 0.37593 0.0
C220 C 0.74726 0.09749 0.36283 0.0
C221 C 0.78691 0.11048 0.3871 0.0
C222 C 0.75881 0.14745 0.37234 0.0
C223 C 0.71866 0.13441 0.34612 0.0
O224 O 0.64447 0.16035 0.33815 0.0
O225 O 0.66998 0.19202 0.31228 0.0
O226 O 0.72126 0.15982 0.3324 0.0
O227 O 0.69613 0.12888 0.35933 0.0
H228 H 0.67733 0.15289 0.27758 0.0
H229 H 0.66181 0.12954 0.23765 0.0
H230 H 0.58212 0.14138 0.25999 0.0
H231 H 0.59773 0.16468 0.29977 0.0
H232 H 0.64965 0.2941 0.36832 0.0
H233 H 0.67277 0.25386 0.35486 0.0
H234 H 0.64731 0.25814 0.45045 0.0
H235 H 0.67072 0.21795 0.43698 0.0
H236 H 0.7941 0.1561 0.39394 0.0
H237 H 0.77352 0.06703 0.37675 0.0
H238 H 0.73439 0.08102 0.35403 0.0
H239 H 0.75485 0.16996 0.3712 0.0
C240 C 0.29495 0.61444 0.18507 0.0
C241 C 0.28209 0.63681 0.17244 0.0
C242 C 0.24975 0.6013 0.15505 0.0
C243 C 0.25961 0.63029 0.15769 0.0
C244 C 0.26298 0.579 0.16738 0.0
C245 C 0.28531 0.58554 0.18229 0.0
U246 U 0.3573 0.66217 0.19943 0.0
O247 O 0.37343 0.67578 0.2374 0.0
O248 O 0.39601 0.65026 0.21198 0.0
C249 C 0.39408 0.66143 0.23523 0.0
C250 C 0.31836 0.62079 0.20114 0.0
C251 C 0.40074 0.64309 0.25914 0.0
C252 C 0.39229 0.6236 0.30538 0.0
C253 C 0.38449 0.63906 0.28233 0.0
C254 C 0.43237 0.61525 0.28236 0.0
C255 C 0.41644 0.61173 0.30576 0.0
C256 C 0.42465 0.63085 0.25939 0.0
C257 C 0.37508 0.73112 0.15205 0.0
C258 C 0.41748 0.75951 0.14506 0.0
C259 C 0.37828 0.77909 0.1287 0.0
C260 C 0.36321 0.7538 0.13885 0.0
C261 C 0.40563 0.78222 0.13151 0.0
C262 C 0.40232 0.7342 0.15533 0.0
C263 C 0.35861 0.7043 0.16131 0.0
O264 O 0.34093 0.61887 0.18896 0.0
O265 O 0.31848 0.64362 0.21519 0.0
O266 O 0.34593 0.70471 0.18428 0.0
O267 O 0.36874 0.6798 0.15849 0.0
H268 H 0.28935 0.6593 0.17407 0.0
H269 H 0.25004 0.64794 0.1482 0.0
H270 H 0.25574 0.55647 0.16598 0.0
H271 H 0.29499 0.56798 0.19183 0.0
H272 H 0.37943 0.62102 0.32297 0.0
H273 H 0.36591 0.64818 0.28287 0.0
H274 H 0.45123 0.60671 0.28205 0.0
H275 H 0.43767 0.63385 0.24191 0.0
H276 H 0.43845 0.76137 0.14781 0.0
H277 H 0.36854 0.79592 0.11807 0.0
H278 H 0.34224 0.75179 0.13604 0.0
H279 H 0.41187 0.71697 0.16559 0.0
C280 C 0.1162 0.28883 0.70586 0.0
C281 C 0.12428 0.2901 0.67882 0.0
C282 C 0.10526 0.24036 0.67549 0.0
C283 C 0.1187 0.26623 0.66377 0.0
C284 C 0.09702 0.23925 0.70257 0.0
C285 C 0.10244 0.26331 0.7176 0.0
U286 U 0.16474 0.35169 0.71931 0.0
O287 O 0.16017 0.39665 0.72798 0.0
O288 O 0.17996 0.36854 0.75648 0.0
C289 C 0.17067 0.3937 0.75164 0.0
C290 C 0.12346 0.31345 0.7221 0.0
C291 C 0.15598 0.40398 0.77389 0.0
C292 C 0.12145 0.39685 0.8083 0.0
C293 C 0.13482 0.38668 0.78685 0.0
C294 C 0.15008 0.4418 0.8037 0.0
C295 C 0.12903 0.42451 0.81707 0.0
C296 C 0.16342 0.4316 0.78235 0.0
C297 C 0.22635 0.362 0.67334 0.0
C298 C 0.25581 0.40603 0.66376 0.0
C299 C 0.26954 0.35962 0.65356 0.0
C300 C 0.24546 0.34585 0.66339 0.0
C301 C 0.27494 0.38993 0.65337 0.0
C302 C 0.23175 0.39218 0.67374 0.0
C303 C 0.20088 0.34688 0.68263 0.0
O304 O 0.14398 0.31072 0.73707 0.0
O305 O 0.1238 0.33929 0.7094 0.0
O306 O 0.18027 0.36098 0.67807 0.0
O307 O 0.20039 0.33322 0.70658 0.0
H308 H 0.13516 0.30948 0.66936 0.0
H309 H 0.12496 0.26811 0.6429 0.0
H310 H 0.08695 0.21959 0.71237 0.0
H311 H 0.0963 0.26181 0.73851 0.0
H312 H 0.1055 0.38286 0.81829 0.0
H313 H 0.12879 0.36527 0.78051 0.0
H314 H 0.15616 0.46337 0.80959 0.0
H315 H 0.17962 0.4453 0.77244 0.0
H316 H 0.2592 0.42941 0.6637 0.0
H317 H 0.28396 0.34647 0.64622 0.0
H318 H 0.24169 0.32251 0.66308 0.0
H319 H 0.21728 0.40506 0.68145 0.0
Zn320 Zn 0.04629 0.01979 0.53978 0.0
Zn321 Zn 0.98186 0.99878 0.49076 0.0
C322 C 0.075 0.06614 0.56571 0.0
O323 O 0.09515 0.05351 0.55752 0.0
C324 C 0.9505 0.95218 0.46977 0.0
O325 O 0.93258 0.96365 0.48338 0.0
O326 O 0.07532 0.99491 0.54933 0.0
O327 O 0.01234 0.99787 0.55382 0.0
O328 O 0.97738 0.98572 0.53006 0.0
C329 C 0.07783 0.98449 0.57323 0.0
O330 O 0.06079 0.98949 0.59178 0.0
O331 O 0.05202 0.05582 0.5601 0.0
C332 C 0.95129 0.03433 0.45733 0.0
O333 O 0.96892 0.02921 0.43942 0.0
O334 O 0.95322 0.02425 0.48143 0.0
O335 O 0.01615 0.01973 0.47618 0.0
O336 O 0.05083 0.03194 0.50037 0.0
O337 O 0.97417 0.96328 0.47014 0.0
C338 C 0.98908 0.98594 0.55222 0.0
C339 C 0.03951 0.03135 0.47802 0.0
Zn340 Zn 0.52335 0.98605 0.97862 0.0
Zn341 Zn 0.50379 0.03118 0.04534 0.0
C342 C 0.4948 0.95181 0.94182 0.0
O343 O 0.50786 0.93185 0.95375 0.0
C344 C 0.53673 0.06639 0.07817 0.0
O345 O 0.53042 0.08669 0.06052 0.0
O346 O 0.55747 0.97128 0.96731 0.0
O347 O 0.53023 0.02969 0.97835 0.0
O348 O 0.51947 0.05459 0.01238 0.0
C349 C 0.56551 0.97799 0.94325 0.0
O350 O 0.55174 0.99426 0.92759 0.0
O351 O 0.49789 0.97745 0.94933 0.0
C352 C 0.46055 0.03772 0.0793 0.0
O353 O 0.4735 0.02001 0.09438 0.0
O354 O 0.46944 0.04588 0.05578 0.0
O355 O 0.49781 0.9877 0.0454 0.0
O356 O 0.50835 0.9621 0.01181 0.0
O357 O 0.52803 0.04018 0.07556 0.0
C358 C 0.52909 0.0536 0.98893 0.0
C359 C 0.49899 0.96355 0.03531 0.0
Zn360 Zn 0.54622 0.4996 0.49088 0.0
Zn361 Zn 0.48283 0.52068 0.53741 0.0
C362 C 0.57982 0.53037 0.45139 0.0
O363 O 0.56081 0.51913 0.43695 0.0
C364 C 0.44613 0.49184 0.57594 0.0
O365 O 0.46312 0.50439 0.59186 0.0
O366 O 0.55242 0.46102 0.47705 0.0
O367 O 0.54768 0.49367 0.53122 0.0
O368 O 0.5137 0.50436 0.5553 0.0
C369 C 0.57529 0.45364 0.48121 0.0
O370 O 0.59162 0.47044 0.4946 0.0
O371 O 0.57787 0.52619 0.47676 0.0
C372 C 0.45798 0.57119 0.54543 0.0
O373 O 0.44169 0.55855 0.52889 0.0
O374 O 0.47846 0.5593 0.55186 0.0
O375 O 0.48121 0.52613 0.49713 0.0
O376 O 0.51469 0.51455 0.47285 0.0
O377 O 0.45058 0.49501 0.55078 0.0
C378 C 0.53612 0.49512 0.55368 0.0
C379 C 0.49231 0.52387 0.47458 0.0
Zn380 Zn 0.98121 0.51759 0.99088 0.0
Zn381 Zn 0.04667 0.4977 0.0378 0.0
C382 C 0.94757 0.4879 0.9556 0.0
O383 O 0.96686 0.49919 0.93928 0.0
C384 C 0.08031 0.53032 0.07164 0.0
O385 O 0.06173 0.51936 0.08893 0.0
O386 O 0.97444 0.55719 0.97453 0.0
O387 O 0.98097 0.52057 0.03112 0.0
O388 O 0.01474 0.5101 0.05598 0.0
C389 C 0.95333 0.566 0.98294 0.0
O390 O 0.93901 0.54963 1.00133 0.0
O391 O 0.94931 0.49164 0.98045 0.0
C392 C 0.07791 0.45264 0.04842 0.0
O393 O 0.09293 0.47116 0.0323 0.0
O394 O 0.05493 0.45864 0.05426 0.0
O395 O 0.04635 0.49448 0.99795 0.0
O396 O 0.01296 0.50453 0.97241 0.0
O397 O 0.07789 0.52528 0.04712 0.0
C398 C 0.99188 0.51816 0.0537 0.0
C399 C 0.03576 0.49641 0.97521 0.0
H400 H 0.1054 0.07314 0.31621 0.0
H401 H 0.13195 0.14699 0.35974 0.0
H402 H 0.08425 0.04898 0.35705 0.0
H403 H 0.11013 0.12323 0.40037 0.0
H404 H 0.08878 0.06054 0.47396 0.0
H405 H 0.11233 0.0824 0.43359 0.0
H406 H 0.04648 0.05442 0.38598 0.0
H407 H 0.02308 0.03208 0.4262 0.0
C408 C 0.10691 0.08412 0.33454 0.0
C409 C 0.12033 0.11202 0.3347 0.0
C410 C 0.09453 0.07042 0.35788 0.0
C411 C 0.09536 0.08423 0.38196 0.0
C412 C 0.10926 0.11188 0.38223 0.0
C413 C 0.12155 0.12562 0.35888 0.0
C414 C 0.0793 0.05897 0.45489 0.0
C415 C 0.05395 0.04458 0.45341 0.0
C416 C 0.09279 0.07165 0.43175 0.0
C417 C 0.0813 0.07019 0.40654 0.0
C418 C 0.05604 0.05563 0.40503 0.0
C419 C 0.04253 0.04301 0.42816 0.0
H420 H 0.43322 0.89174 0.79353 0.0
H421 H 0.36908 0.93162 0.82754 0.0
H422 H 0.45968 0.90353 0.83188 0.0
H423 H 0.39581 0.94382 0.86572 0.0
H424 H 0.46309 0.98699 0.91433 0.0
H425 H 0.43581 0.97549 0.87629 0.0
H426 H 0.46026 0.88911 0.88043 0.0
H427 H 0.48765 0.90059 0.91824 0.0
C428 C 0.42467 0.90283 0.80926 0.0
C429 C 0.39894 0.91061 0.80745 0.0
C430 C 0.43987 0.90963 0.83122 0.0
C431 C 0.4298 0.92453 0.85187 0.0
C432 C 0.40421 0.93261 0.84998 0.0
C433 C 0.38893 0.92566 0.82806 0.0
C434 C 0.46259 0.96552 0.90716 0.0
C435 C 0.47759 0.94473 0.91929 0.0
C436 C 0.44687 0.95891 0.88546 0.0
C437 C 0.44596 0.93143 0.87531 0.0
C438 C 0.46082 0.9106 0.88757 0.0
C439 C 0.47639 0.91714 0.90935 0.0
H440 H 0.61616 0.39 0.67002 0.0
H441 H 0.58361 0.45183 0.71783 0.0
H442 H 0.59944 0.41361 0.62974 0.0
H443 H 0.56723 0.47584 0.6775 0.0
H444 H 0.51533 0.48904 0.60485 0.0
H445 H 0.53426 0.46827 0.6451 0.0
H446 H 0.60409 0.45615 0.59958 0.0
H447 H 0.58482 0.47616 0.55908 0.0
C448 C 0.60577 0.40893 0.67188 0.0
C449 C 0.60117 0.41896 0.69718 0.0
C450 C 0.5962 0.42254 0.64875 0.0
C451 C 0.58189 0.44667 0.65027 0.0
C452 C 0.57773 0.45702 0.67556 0.0
C453 C 0.58717 0.44329 0.69871 0.0
C454 C 0.53479 0.48212 0.60339 0.0
C455 C 0.54847 0.48423 0.5786 0.0
C456 C 0.54574 0.47032 0.62658 0.0
C457 C 0.57074 0.46041 0.6257 0.0
C458 C 0.58464 0.46308 0.601 0.0
C459 C 0.57363 0.47477 0.57776 0.0
H460 H 0.8923 0.58654 0.17351 0.0
H461 H 0.97265 0.60997 0.1941 0.0
H462 H 0.90726 0.5588 0.1377 0.0
H463 H 0.98759 0.58334 0.15772 0.0
H464 H 1.00747 0.51367 0.10574 0.0
H465 H 0.98931 0.53498 0.14398 0.0
H466 H 0.92924 0.56736 0.09417 0.0
H467 H 0.94704 0.54554 0.05601 0.0
C468 C 0.91314 0.58567 0.1705 0.0
C469 C 0.93127 0.60057 0.18667 0.0
C470 C 0.92172 0.57 0.14979 0.0
C471 C 0.94864 0.56881 0.14479 0.0
C472 C 0.96671 0.58344 0.16118 0.0
C473 C 0.95815 0.59908 0.18184 0.0
C474 C 0.99022 0.52506 0.10295 0.0
C475 C 0.97891 0.52809 0.07764 0.0
C476 C 0.9799 0.53744 0.12488 0.0
C477 C 0.95801 0.55323 0.12211 0.0
C478 C 0.946 0.55519 0.0971 0.0
C479 C 0.95629 0.54274 0.07515 0.0
H480 H 0.30617 0.0941 0.11204 0.0
H481 H 0.34998 0.10669 0.18383 0.0
H482 H 0.34468 0.07797 0.09046 0.0
H483 H 0.38829 0.09058 0.16236 0.0
H484 H 0.43889 0.02593 0.12945 0.0
H485 H 0.40074 0.04464 0.14844 0.0
H486 H 0.39003 0.09364 0.07347 0.0
H487 H 0.42832 0.07453 0.05417 0.0
C488 C 0.32409 0.09379 0.1231 0.0
C489 C 0.32488 0.10136 0.14979 0.0
C490 C 0.34616 0.08454 0.11073 0.0
C491 C 0.36948 0.08264 0.12479 0.0
C492 C 0.37047 0.09114 0.15116 0.0
C493 C 0.34849 0.10038 0.16348 0.0
C494 C 0.42844 0.04065 0.11691 0.0
C495 C 0.43675 0.04877 0.09027 0.0
C496 C 0.40662 0.05155 0.1279 0.0
C497 C 0.39244 0.07086 0.11257 0.0
C498 C 0.40045 0.07869 0.08577 0.0
C499 C 0.42244 0.06782 0.07475 0.0
H500 H 0.20833 0.91392 0.65402 0.0
H501 H 0.20974 0.87992 0.57604 0.0
H502 H 0.17039 0.93891 0.6416 0.0
H503 H 0.17095 0.90362 0.56416 0.0
H504 H 0.11969 0.97607 0.5412 0.0
H505 H 0.15758 0.95083 0.55338 0.0
H506 H 0.12458 0.93007 0.63331 0.0
H507 H 0.08704 0.95605 0.62134 0.0
C508 C 0.20057 0.91176 0.63422 0.0
C509 C 0.2122 0.89493 0.61603 0.0
C510 C 0.17855 0.92578 0.62722 0.0
C511 C 0.16752 0.92325 0.60188 0.0
C512 C 0.17907 0.90633 0.58373 0.0
C513 C 0.20115 0.8924 0.59069 0.0
C514 C 0.12047 0.96604 0.56136 0.0
C515 C 0.10035 0.96812 0.58031 0.0
C516 C 0.14216 0.95143 0.56831 0.0
C517 C 0.1442 0.9384 0.59436 0.0
C518 C 0.12389 0.94023 0.61321 0.0
C519 C 0.10226 0.95497 0.60629 0.0
H520 H 0.82159 0.45633 0.84765 0.0
H521 H 0.79275 0.40266 0.91822 0.0
H522 H 0.86182 0.47046 0.87022 0.0
H523 H 0.83378 0.41579 0.94048 0.0
H524 H 0.89916 0.47425 0.98031 0.0
H525 H 0.85842 0.45631 0.95969 0.0
H526 H 0.90083 0.45128 0.88514 0.0
H527 H 0.94115 0.46987 0.90545 0.0
C528 C 0.82379 0.44754 0.86802 0.0
C529 C 0.80379 0.42844 0.8811 0.0
C530 C 0.84711 0.45532 0.88087 0.0
C531 C 0.85122 0.44411 0.90715 0.0
C532 C 0.83124 0.42499 0.92031 0.0
C533 C 0.80782 0.41722 0.90742 0.0
C534 C 0.89978 0.46899 0.95961 0.0
C535 C 0.92336 0.47376 0.94446 0.0
C536 C 0.87644 0.45863 0.94779 0.0
C537 C 0.87623 0.45272 0.9206 0.0
C538 C 0.90009 0.45628 0.90591 0.0
C539 C 0.92329 0.46677 0.91763 0.0
H540 H 0.73658 0.61138 0.40061 0.0
H541 H 0.7069 0.5616 0.3361 0.0
H542 H 0.69504 0.59911 0.42525 0.0
H543 H 0.66605 0.54812 0.36126 0.0
H544 H 0.58679 0.5503 0.39906 0.0
H545 H 0.62767 0.56827 0.3754 0.0
H546 H 0.66929 0.55882 0.44929 0.0
H547 H 0.62808 0.54163 0.47316 0.0
C548 C 0.72121 0.59784 0.39166 0.0
C549 C 0.72512 0.58751 0.36632 0.0
C550 C 0.69749 0.59054 0.40594 0.0
C551 C 0.67712 0.57271 0.39523 0.0
C552 C 0.68111 0.56229 0.36996 0.0
C553 C 0.70474 0.56966 0.35567 0.0
C554 C 0.60462 0.55236 0.41033 0.0
C555 C 0.60424 0.54437 0.43794 0.0
C556 C 0.62811 0.56246 0.39672 0.0
C557 C 0.65187 0.56456 0.41033 0.0
C558 C 0.65134 0.55766 0.43819 0.0
C559 C 0.62774 0.54775 0.45188 0.0
H560 H 0.16629 0.3045 0.07564 0.0
H561 H 0.11791 0.30125 0.14755 0.0
H562 H 0.14538 0.34575 0.0571 0.0
H563 H 0.09803 0.34383 0.12955 0.0
H564 H 0.05145 0.40607 0.07796 0.0
H565 H 0.06926 0.36197 0.09605 0.0
H566 H 0.14583 0.39569 0.06366 0.0
H567 H 0.128 0.4389 0.04503 0.0
C568 C 0.15108 0.31244 0.08749 0.0
C569 C 0.14385 0.29943 0.11315 0.0
C570 C 0.13933 0.33645 0.07698 0.0
C571 C 0.12018 0.3484 0.09191 0.0
C572 C 0.11258 0.33513 0.1174 0.0
C573 C 0.12425 0.31092 0.12788 0.0
C574 C 0.07205 0.40394 0.07468 0.0
C575 C 0.08824 0.4259 0.05988 0.0
C576 C 0.0823 0.37875 0.08516 0.0
C577 C 0.10897 0.37511 0.08114 0.0
C578 C 0.1251 0.39735 0.06664 0.0
C579 C 0.11487 0.4223 0.05607 0.0
H580 H 0.59428 0.19531 0.87339 0.0
H581 H 0.61919 0.21896 0.95146 0.0
H582 H 0.56881 0.15181 0.89419 0.0
H583 H 0.59464 0.17521 0.97205 0.0
H584 H 0.52934 0.10897 1.0043 0.0
H585 H 0.55032 0.15356 0.98146 0.0
H586 H 0.57613 0.10518 0.9173 0.0
H587 H 0.55473 0.0605 0.9399 0.0
C588 C 0.59423 0.19131 0.89497 0.0
C589 C 0.60888 0.21057 0.91073 0.0
C590 C 0.57985 0.16624 0.90687 0.0
C591 C 0.57968 0.15998 0.9348 0.0
C592 C 0.59405 0.17948 0.95053 0.0
C593 C 0.60843 0.20442 0.93867 0.0
C594 C 0.53933 0.10777 0.98524 0.0
C595 C 0.54045 0.08101 0.97408 0.0
C596 C 0.55149 0.13338 0.97219 0.0
C597 C 0.56512 0.13296 0.94764 0.0
C598 C 0.56562 0.10635 0.93606 0.0
C599 C 0.55344 0.08068 0.94913 0.0
H600 H 0.8722 0.83605 0.36188 0.0
H601 H 0.93102 0.78654 0.39793 0.0
H602 H 0.8888 0.8778 0.38556 0.0
H603 H 0.94779 0.82851 0.42147 0.0
H604 H 0.98257 0.91988 0.44256 0.0
H605 H 0.9694 0.87952 0.4153 0.0
H606 H 0.88811 0.88832 0.43324 0.0
H607 H 0.90112 0.92852 0.4602 0.0
C608 C 0.88873 0.8341 0.3748 0.0
C609 C 0.90008 0.80783 0.37825 0.0
C610 C 0.89824 0.85802 0.38836 0.0
C611 C 0.91939 0.85633 0.40563 0.0
C612 C 0.93156 0.83053 0.40817 0.0
C613 C 0.92197 0.80651 0.39464 0.0
C614 C 0.9619 0.91318 0.44066 0.0
C615 C 0.9429 0.92743 0.45355 0.0
C616 C 0.95438 0.89002 0.42513 0.0
C617 C 0.92772 0.88088 0.42198 0.0
C618 C 0.90879 0.89514 0.43492 0.0
C619 C 0.91628 0.91806 0.45056 0.0
H620 H 0.40197 0.73409 0.58696 0.0
H621 H 0.42286 0.691 0.66176 0.0
H622 H 0.4167 0.6947 0.56285 0.0
H623 H 0.43766 0.65176 0.63768 0.0
H624 H 0.48463 0.5999 0.5841 0.0
H625 H 0.47216 0.64162 0.60634 0.0
H626 H 0.40371 0.64341 0.55752 0.0
H627 H 0.41635 0.60207 0.53502 0.0
C628 C 0.40954 0.71613 0.59828 0.0
C629 C 0.41123 0.71572 0.6263 0.0
C630 C 0.41803 0.69359 0.58446 0.0
C631 C 0.42843 0.67013 0.59833 0.0
C632 C 0.43019 0.66976 0.62633 0.0
C633 C 0.42167 0.69226 0.64014 0.0
C634 C 0.46704 0.60934 0.57796 0.0
C635 C 0.45145 0.59759 0.55783 0.0
C636 C 0.4598 0.63313 0.59083 0.0
C637 C 0.43687 0.64576 0.58379 0.0
C638 C 0.42163 0.63439 0.56324 0.0
C639 C 0.42882 0.61058 0.55044 0.0
H640 H 0.95023 0.88619 0.70335 0.0
H641 H 0.87688 0.91811 0.68106 0.0
H642 H 0.97119 0.91073 0.66278 0.0
H643 H 0.89818 0.9436 0.64075 0.0
H644 H 0.93957 0.95718 0.55716 0.0
H645 H 0.91749 0.93333 0.59764 0.0
H646 H 0.985 0.95954 0.6437 0.0
H647 H 1.0072 0.98302 0.60335 0.0
C648 C 0.93854 0.8984 0.68975 0.0
C649 C 0.91182 0.90004 0.69542 0.0
C650 C 0.95066 0.91278 0.66662 0.0
C651 C 0.9364 0.92922 0.64852 0.0
C652 C 0.90967 0.93092 0.65416 0.0
C653 C 0.89753 0.91656 0.67739 0.0
C654 C 0.94972 0.9579 0.57592 0.0
C655 C 0.97529 0.9719 0.57689 0.0
C656 C 0.93697 0.94435 0.59916 0.0
C657 C 0.9495 0.94442 0.6239 0.0
C658 C 0.97493 0.95868 0.62491 0.0
C659 C 0.98764 0.97226 0.60173 0.0
H660 H 0.64122 0.14482 0.19478 0.0
H661 H 0.57864 0.09358 0.24069 0.0
H662 H 0.62362 0.12638 0.15361 0.0
H663 H 0.56074 0.07563 0.19952 0.0
H664 H 0.54696 0.03125 0.12226 0.0
H665 H 0.56986 0.04531 0.16239 0.0
H666 H 0.58393 0.13345 0.12757 0.0
H667 H 0.56131 0.11944 0.08743 0.0
C668 C 0.6239 0.12935 0.1961 0.0
C669 C 0.61123 0.12075 0.22095 0.0
C670 C 0.61369 0.119 0.17252 0.0
C671 C 0.59073 0.09967 0.17331 0.0
C672 C 0.57857 0.09033 0.19826 0.0
C673 C 0.58867 0.10082 0.22181 0.0
C674 C 0.55517 0.05356 0.12306 0.0
C675 C 0.5522 0.07426 0.1017 0.0
C676 C 0.56816 0.06163 0.1461 0.0
C677 C 0.57863 0.0905 0.14817 0.0
C678 C 0.57633 0.11098 0.12648 0.0
C679 C 0.5632 0.10297 0.10354 0.0
H680 H 0.44041 0.56158 0.31094 0.0
H681 H 0.41319 0.62804 0.35702 0.0
H682 H 0.45701 0.53829 0.35152 0.0
H683 H 0.43009 0.60511 0.39751 0.0
H684 H 0.44441 0.54496 0.46984 0.0
H685 H 0.42449 0.56392 0.42933 0.0
H686 H 0.49151 0.54567 0.38242 0.0
H687 H 0.51101 0.52589 0.42272 0.0
C688 C 0.43805 0.57127 0.32973 0.0
C689 C 0.42549 0.5967 0.3307 0.0
C690 C 0.44762 0.55796 0.35302 0.0
C691 C 0.44501 0.56982 0.37788 0.0
C692 C 0.4321 0.59504 0.37886 0.0
C693 C 0.42241 0.60825 0.3556 0.0
C694 C 0.45484 0.54476 0.45087 0.0
C695 C 0.47945 0.53397 0.44968 0.0
C696 C 0.44347 0.55585 0.42761 0.0
C697 C 0.45641 0.55654 0.40252 0.0
C698 C 0.48077 0.5452 0.40128 0.0
C699 C 0.49208 0.53401 0.42451 0.0
H700 H 0.07628 0.41849 0.8292 0.0
H701 H 0.15066 0.45494 0.85739 0.0
H702 H 0.05399 0.4361 0.86725 0.0
H703 H 0.12831 0.47359 0.89469 0.0
H704 H 0.08303 0.47396 0.974 0.0
H705 H 0.10512 0.45656 0.93595 0.0
H706 H 0.04287 0.48079 0.88469 0.0
H707 H 0.02039 0.49769 0.92292 0.0
C708 C 0.08789 0.43022 0.84351 0.0
C709 C 0.11528 0.43529 0.8402 0.0
C710 C 0.07507 0.44065 0.86515 0.0
C711 C 0.08933 0.45634 0.88402 0.0
C712 C 0.11671 0.46135 0.88071 0.0
C713 C 0.12952 0.45094 0.85911 0.0
C714 C 0.07405 0.47574 0.95462 0.0
C715 C 0.04986 0.48725 0.95161 0.0
C716 C 0.08681 0.46584 0.93273 0.0
C717 C 0.07579 0.46724 0.90722 0.0
C718 C 0.05174 0.479 0.90412 0.0
C719 C 0.03893 0.48889 0.92604 0.0
H720 H 0.70805 0.96026 0.85283 0.0
H721 H 0.69783 0.88178 0.90547 0.0
H722 H 0.66943 0.97674 0.87301 0.0
H723 H 0.65816 0.89762 0.92468 0.0
H724 H 0.60179 0.94855 0.97069 0.0
H725 H 0.64188 0.93218 0.95268 0.0
H726 H 0.62322 0.96638 0.87351 0.0
H727 H 0.58386 0.98341 0.89157 0.0
C728 C 0.69765 0.94652 0.8688 0.0
C729 C 0.70621 0.91967 0.8775 0.0
C730 C 0.6752 0.95581 0.88014 0.0
C731 C 0.66046 0.93844 0.90038 0.0
C732 C 0.6691 0.91169 0.9093 0.0
C733 C 0.6917 0.90243 0.89802 0.0
C734 C 0.60632 0.95259 0.94946 0.0
C735 C 0.58969 0.96746 0.93262 0.0
C736 C 0.62923 0.94306 0.93909 0.0
C737 C 0.63595 0.94809 0.91163 0.0
C738 C 0.61905 0.96264 0.89483 0.0
C739 C 0.59632 0.97228 0.90519 0.0
H740 H 0.83646 0.13825 0.38085 0.0
H741 H 0.79222 0.06358 0.42212 0.0
H742 H 0.87679 0.12282 0.39981 0.0
H743 H 0.83256 0.04786 0.44064 0.0
H744 H 0.90722 0.04045 0.48716 0.0
H745 H 0.8678 0.06144 0.47207 0.0
H746 H 0.90362 0.08231 0.39342 0.0
H747 H 0.94306 0.06159 0.40848 0.0
C748 C 0.83532 0.11872 0.3942 0.0
C749 C 0.81118 0.10207 0.39992 0.0
C750 C 0.85844 0.10976 0.40486 0.0
C751 C 0.85787 0.08408 0.42165 0.0
C752 C 0.83363 0.06787 0.42796 0.0
C753 C 0.81056 0.07672 0.41714 0.0
C754 C 0.9068 0.04981 0.46674 0.0
C755 C 0.92825 0.04923 0.44899 0.0
C756 C 0.88415 0.06167 0.45806 0.0
C757 C 0.88255 0.07342 0.43153 0.0
C758 C 0.90432 0.07368 0.41405 0.0
C759 C 0.92688 0.06164 0.42266 0.0
H760 H 0.24045 0.5599 0.11923 0.0
H761 H 0.20397 0.62662 0.15713 0.0
H762 H 0.19955 0.54614 0.09704 0.0
H763 H 0.16321 0.6132 0.13455 0.0
H764 H 0.08859 0.55078 0.12072 0.0
H765 H 0.12978 0.5707 0.13868 0.0
H766 H 0.16894 0.56359 0.06276 0.0
H767 H 0.12758 0.54342 0.04473 0.0
C768 C 0.22374 0.57173 0.1227 0.0
C769 C 0.22542 0.59424 0.14007 0.0
C770 C 0.20039 0.56405 0.10976 0.0
C771 C 0.17811 0.57854 0.11406 0.0
C772 C 0.17996 0.60146 0.13098 0.0
C773 C 0.20338 0.6093 0.14375 0.0
C774 C 0.1059 0.55376 0.10772 0.0
C775 C 0.1048 0.5454 0.08132 0.0
C776 C 0.1295 0.56534 0.11799 0.0
C777 C 0.15267 0.56864 0.10219 0.0
C778 C 0.15147 0.56104 0.07552 0.0
C779 C 0.12775 0.54969 0.06514 0.0
H780 H 0.30199 0.37738 0.60877 0.0
H781 H 0.30527 0.43579 0.67216 0.0
H782 H 0.34377 0.40071 0.59056 0.0
H783 H 0.3464 0.46015 0.6531 0.0
H784 H 0.43264 0.47785 0.62862 0.0
H785 H 0.39169 0.45272 0.64729 0.0
H786 H 0.36265 0.44508 0.56737 0.0
H787 H 0.40393 0.46951 0.54867 0.0
C788 C 0.31163 0.39517 0.61887 0.0
C789 C 0.30027 0.4046 0.64203 0.0
C790 C 0.33545 0.40882 0.6082 0.0
C791 C 0.34848 0.43235 0.62032 0.0
C792 C 0.33709 0.44186 0.64343 0.0
C793 C 0.3133 0.42813 0.65417 0.0
C794 C 0.41757 0.47069 0.61501 0.0
C795 C 0.42156 0.47568 0.58715 0.0
C796 C 0.39399 0.45646 0.62574 0.0
C797 C 0.37379 0.44697 0.60886 0.0
C798 C 0.3779 0.45174 0.58096 0.0
C799 C 0.40154 0.46587 0.57023 0.0
H800 H 0.89172 0.69725 0.87679 0.0
H801 H 0.88415 0.72864 0.95535 0.0
H802 H 0.91444 0.6572 0.89603 0.0
H803 H 0.90667 0.68861 0.97452 0.0
H804 H 0.91288 0.59301 1.00155 0.0
H805 H 0.89539 0.63618 0.98202 0.0
H806 H 0.95488 0.64444 0.91905 0.0
H807 H 0.9724 0.60071 0.93858 0.0
C808 C 0.89522 0.69586 0.89809 0.0
C809 C 0.88583 0.71598 0.91457 0.0
C810 C 0.90826 0.67292 0.9091 0.0
C811 C 0.91216 0.66959 0.93684 0.0
C812 C 0.90354 0.69026 0.95315 0.0
C813 C 0.89057 0.71316 0.94216 0.0
C814 C 0.92239 0.60406 0.98362 0.0
C815 C 0.94403 0.59337 0.97161 0.0
C816 C 0.91243 0.62896 0.97251 0.0
C817 C 0.92377 0.64381 0.94901 0.0
C818 C 0.94561 0.63334 0.93707 0.0
C819 C 0.95573 0.60843 0.94834 0.0
H820 H 0.39452 0.83851 0.13213 0.0
H821 H 0.45271 0.78619 0.104 0.0
H822 H 0.41871 0.88171 0.10991 0.0
H823 H 0.47748 0.82966 0.08252 0.0
H824 H 0.49414 0.90797 0.01956 0.0
H825 H 0.47339 0.86425 0.0443 0.0
H826 H 0.45854 0.91394 0.11152 0.0
H827 H 0.47879 0.95773 0.08667 0.0
C828 C 0.41257 0.83625 0.12132 0.0
C829 C 0.42157 0.80884 0.11972 0.0
C830 C 0.42662 0.86109 0.10881 0.0
C831 C 0.45005 0.8592 0.09436 0.0
C832 C 0.45936 0.83187 0.09322 0.0
C833 C 0.44532 0.80698 0.1058 0.0
C834 C 0.48663 0.90957 0.03969 0.0
C835 C 0.48804 0.93649 0.05101 0.0
C836 C 0.47484 0.88443 0.05395 0.0
C837 C 0.46416 0.88557 0.07988 0.0
C838 C 0.46617 0.91234 0.09144 0.0
C839 C 0.47793 0.93746 0.0772 0.0
H840 H 0.1381 0.22146 0.63836 0.0
H841 H 0.0617 0.20057 0.67664 0.0
H842 H 0.13015 0.18024 0.6115 0.0
H843 H 0.05439 0.15812 0.65088 0.0
H844 H 0.03887 0.10198 0.58029 0.0
H845 H 0.04593 0.14401 0.60668 0.0
H846 H 0.12725 0.12902 0.6149 0.0
H847 H 0.12039 0.08776 0.58779 0.0
C848 C 0.11956 0.20811 0.64105 0.0
C849 C 0.10048 0.21454 0.65961 0.0
C850 C 0.11515 0.18414 0.62589 0.0
C851 C 0.09165 0.1657 0.62903 0.0
C852 C 0.0726 0.17201 0.64768 0.0
C853 C 0.07694 0.19616 0.66274 0.0
C854 C 0.05826 0.10772 0.5877 0.0
C855 C 0.07909 0.0916 0.58183 0.0
C856 C 0.06228 0.13172 0.603 0.0
C857 C 0.08719 0.14001 0.61294 0.0
C858 C 0.10793 0.12366 0.60719 0.0
C859 C 0.10396 0.09986 0.59173 0.0
H860 H 0.66116 0.33641 0.39613 0.0
H861 H 0.60388 0.27921 0.44387 0.0
H862 H 0.64223 0.37835 0.41199 0.0
H863 H 0.58496 0.32135 0.45986 0.0
H864 H 0.54558 0.4083 0.46056 0.0
H865 H 0.56132 0.3656 0.442 0.0
H866 H 0.64088 0.39794 0.4581 0.0
H867 H 0.62536 0.44016 0.4767 0.0
C868 C 0.64431 0.33282 0.40975 0.0
C869 C 0.63404 0.30456 0.41884 0.0
C870 C 0.63361 0.3568 0.41897 0.0
C871 C 0.61222 0.35306 0.43724 0.0
C872 C 0.60137 0.32482 0.44568 0.0
C873 C 0.61231 0.30077 0.43671 0.0
C874 C 0.56641 0.40621 0.46013 0.0
C875 C 0.58422 0.42757 0.47012 0.0
C876 C 0.57538 0.38179 0.44961 0.0
C877 C 0.60232 0.3786 0.44849 0.0
C878 C 0.62004 0.4 0.45842 0.0
C879 C 0.6111 0.4241 0.46924 0.0
loop_
_geom_bond_atom_site_label_1
_geom_bond_atom_site_label_2
_geom_bond_distance
_geom_bond_site_symmetry_2
_ccdc_geom_bond_type
C0 C1 1.264 . S
C0 C5 1.479 . S
C0 C10 1.465 . S
C1 C0 1.264 . S
C1 C3 1.339 . S
C1 H28 0.931 . S
C2 C3 1.395 . S
C2 C4 1.320 . S
C3 C1 1.339 . S
C3 C2 1.395 . S
C3 H29 0.929 . S
C4 C2 1.320 . S
C4 C5 1.405 . S
C4 H30 0.930 . S
C5 C0 1.479 . S
C5 C4 1.405 . S
C5 H31 0.931 . S
U6 O7 2.454 . S
U6 O8 2.458 . S
U6 C9 2.984 . S
U6 C10 2.847 . S
U6 C23 2.882 . S
U6 O24 2.441 . S
U6 O25 2.420 . S
U6 O26 2.455 . S
U6 O27 2.449 . S
O7 U6 2.454 . S
O7 C9 1.353 . S
O8 U6 2.458 . S
O8 C9 1.286 . S
C9 U6 2.984 . S
C9 O7 1.353 . S
C9 O8 1.286 . S
C9 C11 1.363 . S
C10 C0 1.465 . S
C10 U6 2.847 . S
C10 O24 1.249 . S
C10 O25 1.202 . S
C11 C9 1.363 . S
C11 C13 1.408 . S
C11 C16 1.342 . S
C12 C13 1.310 . S
C12 C15 1.461 . S
C12 H32 0.932 . S
C13 C11 1.408 . S
C13 C12 1.310 . S
C13 H33 0.930 . S
C14 C15 1.474 . S
C14 C16 1.285 . S
C14 H34 0.929 . S
C15 C12 1.461 . S
C15 C14 1.474 . S
C16 C11 1.342 . S
C16 C14 1.285 . S
C16 H35 0.930 . S
C17 C20 1.424 . S
C17 C22 1.245 . S
C17 C23 1.428 . S
C18 C21 1.260 . S
C18 C22 1.477 . S
C18 H36 0.932 . S
C19 C20 1.384 . S
C19 C21 1.479 . S
C19 H37 0.929 . S
C20 C17 1.424 . S
C20 C19 1.384 . S
C20 H38 0.928 . S
C21 C18 1.260 . S
C21 C19 1.479 . S
C22 C17 1.245 . S
C22 C18 1.477 . S
C22 H39 0.932 . S
C23 U6 2.882 . S
C23 C17 1.428 . S
C23 O26 1.301 . S
C23 O27 1.282 . S
O24 U6 2.441 . S
O24 C10 1.249 . S
O25 U6 2.420 . S
O25 C10 1.202 . S
O26 U6 2.455 . S
O26 C23 1.301 . S
O27 U6 2.449 . S
O27 C23 1.282 . S
H28 C1 0.931 . S
H29 C3 0.929 . S
H30 C4 0.930 . S
H31 C5 0.931 . S
H32 C12 0.932 . S
H33 C13 0.930 . S
H34 C14 0.929 . S
H35 C16 0.930 . S
H36 C18 0.932 . S
H37 C19 0.929 . S
H38 C20 0.928 . S
H39 C22 0.932 . S
C40 C41 1.264 . S
C40 C45 1.479 . S
C40 C50 1.465 . S
C41 C40 1.264 . S
C41 C43 1.339 . S
C41 H68 0.931 . S
C42 C43 1.395 . S
C42 C44 1.320 . S
C43 C41 1.339 . S
C43 C42 1.395 . S
C43 H69 0.929 . S
C44 C42 1.320 . S
C44 C45 1.405 . S
C44 H70 0.930 . S
C45 C40 1.479 . S
C45 C44 1.405 . S
C45 H71 0.931 . S
U46 O47 2.454 . S
U46 O48 2.458 . S
U46 C49 2.984 . S
U46 C50 2.847 . S
U46 C63 2.882 . S
U46 O64 2.441 . S
U46 O65 2.420 . S
U46 O66 2.455 . S
U46 O67 2.449 . S
O47 U46 2.454 . S
O47 C49 1.353 . S
O48 U46 2.458 . S
O48 C49 1.286 . S
C49 U46 2.984 . S
C49 O47 1.353 . S
C49 O48 1.286 . S
C49 C51 1.363 . S
C50 C40 1.465 . S
C50 U46 2.847 . S
C50 O64 1.249 . S
C50 O65 1.202 . S
C51 C49 1.363 . S
C51 C53 1.408 . S
C51 C56 1.342 . S
C52 C53 1.310 . S
C52 C55 1.461 . S
C52 H72 0.932 . S
C53 C51 1.408 . S
C53 C52 1.310 . S
C53 H73 0.930 . S
C54 C55 1.474 . S
C54 C56 1.285 . S
C54 H74 0.929 . S
C55 C52 1.461 . S
C55 C54 1.474 . S
C56 C51 1.342 . S
C56 C54 1.285 . S
C56 H75 0.930 . S
C57 C60 1.424 . S
C57 C62 1.245 . S
C57 C63 1.428 . S
C58 C61 1.260 . S
C58 C62 1.477 . S
C58 H76 0.932 . S
C59 C60 1.384 . S
C59 C61 1.479 . S
C59 H77 0.929 . S
C60 C57 1.424 . S
C60 C59 1.384 . S
C60 H78 0.928 . S
C61 C58 1.260 . S
C61 C59 1.479 . S
C62 C57 1.245 . S
C62 C58 1.477 . S
C62 H79 0.932 . S
C63 U46 2.882 . S
C63 C57 1.428 . S
C63 O66 1.301 . S
C63 O67 1.282 . S
O64 U46 2.441 . S
O64 C50 1.249 . S
O65 U46 2.420 . S
O65 C50 1.202 . S
O66 U46 2.455 . S
O66 C63 1.301 . S
O67 U46 2.449 . S
O67 C63 1.282 . S
H68 C41 0.931 . S
H69 C43 0.929 . S
H70 C44 0.930 . S
H71 C45 0.931 . S
H72 C52 0.932 . S
H73 C53 0.930 . S
H74 C54 0.929 . S
H75 C56 0.930 . S
H76 C58 0.932 . S
H77 C59 0.929 . S
H78 C60 0.928 . S
H79 C62 0.932 . S
C80 C81 1.264 . S
C80 C85 1.479 . S
C80 C90 1.465 . S
C81 C80 1.264 . S
C81 C83 1.339 . S
C81 H108 0.931 . S
C82 C83 1.395 . S
C82 C84 1.320 . S
C83 C81 1.339 . S
C83 C82 1.395 . S
C83 H109 0.929 . S
C84 C82 1.320 . S
C84 C85 1.405 . S
C84 H110 0.930 . S
C85 C80 1.479 . S
C85 C84 1.405 . S
C85 H111 0.931 . S
U86 O87 2.454 . S
U86 O88 2.458 . S
U86 C89 2.984 . S
U86 C90 2.847 . S
U86 C103 2.882 . S
U86 O104 2.441 . S
U86 O105 2.420 . S
U86 O106 2.455 . S
U86 O107 2.449 . S
O87 U86 2.454 . S
O87 C89 1.353 . S
O88 U86 2.458 . S
O88 C89 1.286 . S
C89 U86 2.984 . S
C89 O87 1.353 . S
C89 O88 1.286 . S
C89 C91 1.363 . S
C90 C80 1.465 . S
C90 U86 2.847 . S
C90 O104 1.249 . S
C90 O105 1.202 . S
C91 C89 1.363 . S
C91 C93 1.408 . S
C91 C96 1.342 . S
C92 C93 1.310 . S
C92 C95 1.461 . S
C92 H112 0.932 . S
C93 C91 1.408 . S
C93 C92 1.310 . S
C93 H113 0.930 . S
C94 C95 1.474 . S
C94 C96 1.285 . S
C94 H114 0.929 . S
C95 C92 1.461 . S
C95 C94 1.474 . S
C96 C91 1.342 . S
C96 C94 1.285 . S
C96 H115 0.930 . S
C97 C100 1.424 . S
C97 C102 1.245 . S
C97 C103 1.428 . S
C98 C101 1.260 . S
C98 C102 1.477 . S
C98 H116 0.932 . S
C99 C100 1.384 . S
C99 C101 1.479 . S
C99 H117 0.929 . S
C100 C97 1.424 . S
C100 C99 1.384 . S
C100 H118 0.928 . S
C101 C98 1.260 . S
C101 C99 1.479 . S
C102 C97 1.245 . S
C102 C98 1.477 . S
C102 H119 0.932 . S
C103 U86 2.882 . S
C103 C97 1.428 . S
C103 O106 1.301 . S
C103 O107 1.282 . S
O104 U86 2.441 . S
O104 C90 1.249 . S
O105 U86 2.420 . S
O105 C90 1.202 . S
O106 U86 2.455 . S
O106 C103 1.301 . S
O107 U86 2.449 . S
O107 C103 1.282 . S
H108 C81 0.931 . S
H109 C83 0.929 . S
H110 C84 0.930 . S
H111 C85 0.931 . S
H112 C92 0.932 . S
H113 C93 0.930 . S
H114 C94 0.929 . S
H115 C96 0.930 . S
H116 C98 0.932 . S
H117 C99 0.929 . S
H118 C100 0.928 . S
H119 C102 0.932 . S
C120 C121 1.264 . S
C120 C125 1.479 . S
C120 C130 1.465 . S
C121 C120 1.264 . S
C121 C123 1.339 . S
C121 H148 0.931 . S
C122 C123 1.395 . S
C122 C124 1.320 . S
C123 C121 1.339 . S
C123 C122 1.395 . S
C123 H149 0.929 . S
C124 C122 1.320 . S
C124 C125 1.405 . S
C124 H150 0.930 . S
C125 C120 1.479 . S
C125 C124 1.405 . S
C125 H151 0.931 . S
U126 O127 2.454 . S
U126 O128 2.458 . S
U126 C129 2.984 . S
U126 C130 2.847 . S
U126 C143 2.882 . S
U126 O144 2.441 . S
U126 O145 2.420 . S
U126 O146 2.455 . S
U126 O147 2.449 . S
O127 U126 2.454 . S
O127 C129 1.353 . S
O128 U126 2.458 . S
O128 C129 1.286 . S
C129 U126 2.984 . S
C129 O127 1.353 . S
C129 O128 1.286 . S
C129 C131 1.363 . S
C130 C120 1.465 . S
C130 U126 2.847 . S
C130 O144 1.249 . S
C130 O145 1.202 . S
C131 C129 1.363 . S
C131 C133 1.408 . S
C131 C136 1.342 . S
C132 C133 1.310 . S
C132 C135 1.461 . S
C132 H152 0.932 . S
C133 C131 1.408 . S
C133 C132 1.310 . S
C133 H153 0.930 . S
C134 C135 1.474 . S
C134 C136 1.285 . S
C134 H154 0.929 . S
C135 C132 1.461 . S
C135 C134 1.474 . S
C136 C131 1.342 . S
C136 C134 1.285 . S
C136 H155 0.930 . S
C137 C140 1.424 . S
C137 C142 1.245 . S
C137 C143 1.428 . S
C138 C141 1.260 . S
C138 C142 1.477 . S
C138 H156 0.932 . S
C139 C140 1.384 . S
C139 C141 1.479 . S
C139 H157 0.929 . S
C140 C137 1.424 . S
C140 C139 1.384 . S
C140 H158 0.928 . S
C141 C138 1.260 . S
C141 C139 1.479 . S
C142 C137 1.245 . S
C142 C138 1.477 . S
C142 H159 0.932 . S
C143 U126 2.882 . S
C143 C137 1.428 . S
C143 O146 1.301 . S
C143 O147 1.282 . S
O144 U126 2.441 . S
O144 C130 1.249 . S
O145 U126 2.420 . S
O145 C130 1.202 . S
O146 U126 2.455 . S
O146 C143 1.301 . S
O147 U126 2.449 . S
O147 C143 1.282 . S
H148 C121 0.931 . S
H149 C123 0.929 . S
H150 C124 0.930 . S
H151 C125 0.931 . S
H152 C132 0.932 . S
H153 C133 0.930 . S
H154 C134 0.929 . S
H155 C136 0.930 . S
H156 C138 0.932 . S
H157 C139 0.929 . S
H158 C140 0.928 . S
H159 C142 0.932 . S
C160 C161 1.264 . S
C160 C165 1.479 . S
C160 C170 1.465 . S
C161 C160 1.264 . S
C161 C163 1.339 . S
C161 H188 0.931 . S
C162 C163 1.395 . S
C162 C164 1.320 . S
C163 C161 1.339 . S
C163 C162 1.395 . S
C163 H189 0.929 . S
C164 C162 1.320 . S
C164 C165 1.405 . S
C164 H190 0.930 . S
C165 C160 1.479 . S
C165 C164 1.405 . S
C165 H191 0.931 . S
U166 O167 2.454 . S
U166 O168 2.458 . S
U166 C169 2.984 . S
U166 C170 2.847 . S
U166 C183 2.882 . S
U166 O184 2.441 . S
U166 O185 2.420 . S
U166 O186 2.455 . S
U166 O187 2.449 . S
O167 U166 2.454 . S
O167 C169 1.353 . S
O168 U166 2.458 . S
O168 C169 1.286 . S
C169 U166 2.984 . S
C169 O167 1.353 . S
C169 O168 1.286 . S
C169 C171 1.363 . S
C170 C160 1.465 . S
C170 U166 2.847 . S
C170 O184 1.249 . S
C170 O185 1.202 . S
C171 C169 1.363 . S
C171 C173 1.408 . S
C171 C176 1.342 . S
C172 C173 1.310 . S
C172 C175 1.461 . S
C172 H192 0.932 . S
C173 C171 1.408 . S
C173 C172 1.310 . S
C173 H193 0.930 . S
C174 C175 1.474 . S
C174 C176 1.285 . S
C174 H194 0.929 . S
C175 C172 1.461 . S
C175 C174 1.474 . S
C176 C171 1.342 . S
C176 C174 1.285 . S
C176 H195 0.930 . S
C177 C180 1.424 . S
C177 C182 1.245 . S
C177 C183 1.428 . S
C178 C181 1.260 . S
C178 C182 1.477 . S
C178 H196 0.932 . S
C179 C180 1.384 . S
C179 C181 1.479 . S
C179 H197 0.929 . S
C180 C177 1.424 . S
C180 C179 1.384 . S
C180 H198 0.928 . S
C181 C178 1.260 . S
C181 C179 1.479 . S
C182 C177 1.245 . S
C182 C178 1.477 . S
C182 H199 0.932 . S
C183 U166 2.882 . S
C183 C177 1.428 . S
C183 O186 1.301 . S
C183 O187 1.282 . S
O184 U166 2.441 . S
O184 C170 1.249 . S
O185 U166 2.420 . S
O185 C170 1.202 . S
O186 U166 2.455 . S
O186 C183 1.301 . S
O187 U166 2.449 . S
O187 C183 1.282 . S
H188 C161 0.931 . S
H189 C163 0.929 . S
H190 C164 0.930 . S
H191 C165 0.931 . S
H192 C172 0.932 . S
H193 C173 0.930 . S
H194 C174 0.929 . S
H195 C176 0.930 . S
H196 C178 0.932 . S
H197 C179 0.929 . S
H198 C180 0.928 . S
H199 C182 0.932 . S
C200 C201 1.264 . S
C200 C205 1.479 . S
C200 C210 1.465 . S
C201 C200 1.264 . S
C201 C203 1.339 . S
C201 H228 0.931 . S
C202 C203 1.395 . S
C202 C204 1.320 . S
C203 C201 1.339 . S
C203 C202 1.395 . S
C203 H229 0.929 . S
C204 C202 1.320 . S
C204 C205 1.405 . S
C204 H230 0.930 . S
C205 C200 1.479 . S
C205 C204 1.405 . S
C205 H231 0.931 . S
U206 O207 2.454 . S
U206 O208 2.458 . S
U206 C209 2.984 . S
U206 C210 2.847 . S
U206 C223 2.882 . S
U206 O224 2.441 . S
U206 O225 2.420 . S
U206 O226 2.455 . S
U206 O227 2.449 . S
O207 U206 2.454 . S
O207 C209 1.353 . S
O208 U206 2.458 . S
O208 C209 1.286 . S
C209 U206 2.984 . S
C209 O207 1.353 . S
C209 O208 1.286 . S
C209 C211 1.363 . S
C210 C200 1.465 . S
C210 U206 2.847 . S
C210 O224 1.249 . S
C210 O225 1.202 . S
C211 C209 1.363 . S
C211 C213 1.408 . S
C211 C216 1.342 . S
C212 C213 1.310 . S
C212 C215 1.461 . S
C212 H232 0.932 . S
C213 C211 1.408 . S
C213 C212 1.310 . S
C213 H233 0.930 . S
C214 C215 1.474 . S
C214 C216 1.285 . S
C214 H234 0.929 . S
C215 C212 1.461 . S
C215 C214 1.474 . S
C216 C211 1.342 . S
C216 C214 1.285 . S
C216 H235 0.930 . S
C217 C220 1.424 . S
C217 C222 1.245 . S
C217 C223 1.428 . S
C218 C221 1.260 . S
C218 C222 1.477 . S
C218 H236 0.932 . S
C219 C220 1.384 . S
C219 C221 1.479 . S
C219 H237 0.929 . S
C220 C217 1.424 . S
C220 C219 1.384 . S
C220 H238 0.928 . S
C221 C218 1.260 . S
C221 C219 1.479 . S
C222 C217 1.245 . S
C222 C218 1.477 . S
C222 H239 0.932 . S
C223 U206 2.882 . S
C223 C217 1.428 . S
C223 O226 1.301 . S
C223 O227 1.282 . S
O224 U206 2.441 . S
O224 C210 1.249 . S
O225 U206 2.420 . S
O225 C210 1.202 . S
O226 U206 2.455 . S
O226 C223 1.301 . S
O227 U206 2.449 . S
O227 C223 1.282 . S
H228 C201 0.931 . S
H229 C203 0.929 . S
H230 C204 0.930 . S
H231 C205 0.931 . S
H232 C212 0.932 . S
H233 C213 0.930 . S
H234 C214 0.929 . S
H235 C216 0.930 . S
H236 C218 0.932 . S
H237 C219 0.929 . S
H238 C220 0.928 . S
H239 C222 0.932 . S
C240 C241 1.264 . S
C240 C245 1.479 . S
C240 C250 1.465 . S
C241 C240 1.264 . S
C241 C243 1.339 . S
C241 H268 0.931 . S
C242 C243 1.395 . S
C242 C244 1.320 . S
C243 C241 1.339 . S
C243 C242 1.395 . S
C243 H269 0.929 . S
C244 C242 1.320 . S
C244 C245 1.405 . S
C244 H270 0.930 . S
C245 C240 1.479 . S
C245 C244 1.405 . S
C245 H271 0.931 . S
U246 O247 2.454 . S
U246 O248 2.458 . S
U246 C249 2.984 . S
U246 C250 2.847 . S
U246 C263 2.882 . S
U246 O264 2.441 . S
U246 O265 2.420 . S
U246 O266 2.455 . S
U246 O267 2.449 . S
O247 U246 2.454 . S
O247 C249 1.353 . S
O248 U246 2.458 . S
O248 C249 1.286 . S
C249 U246 2.984 . S
C249 O247 1.353 . S
C249 O248 1.286 . S
C249 C251 1.363 . S
C250 C240 1.465 . S
C250 U246 2.847 . S
C250 O264 1.249 . S
C250 O265 1.202 . S
C251 C249 1.363 . S
C251 C253 1.408 . S
C251 C256 1.342 . S
C252 C253 1.310 . S
C252 C255 1.461 . S
C252 H272 0.932 . S
C253 C251 1.408 . S
C253 C252 1.310 . S
C253 H273 0.930 . S
C254 C255 1.474 . S
C254 C256 1.285 . S
C254 H274 0.929 . S
C255 C252 1.461 . S
C255 C254 1.474 . S
C256 C251 1.342 . S
C256 C254 1.285 . S
C256 H275 0.930 . S
C257 C260 1.424 . S
C257 C262 1.245 . S
C257 C263 1.428 . S
C258 C261 1.260 . S
C258 C262 1.477 . S
C258 H276 0.932 . S
C259 C260 1.384 . S
C259 C261 1.479 . S
C259 H277 0.929 . S
C260 C257 1.424 . S
C260 C259 1.384 . S
C260 H278 0.928 . S
C261 C258 1.260 . S
C261 C259 1.479 . S
C262 C257 1.245 . S
C262 C258 1.477 . S
C262 H279 0.932 . S
C263 U246 2.882 . S
C263 C257 1.428 . S
C263 O266 1.301 . S
C263 O267 1.282 . S
O264 U246 2.441 . S
O264 C250 1.249 . S
O265 U246 2.420 . S
O265 C250 1.202 . S
O266 U246 2.455 . S
O266 C263 1.301 . S
O267 U246 2.449 . S
O267 C263 1.282 . S
H268 C241 0.931 . S
H269 C243 0.929 . S
H270 C244 0.930 . S
H271 C245 0.931 . S
H272 C252 0.932 . S
H273 C253 0.930 . S
H274 C254 0.929 . S
H275 C256 0.930 . S
H276 C258 0.932 . S
H277 C259 0.929 . S
H278 C260 0.928 . S
H279 C262 0.932 . S
C280 C281 1.264 . S
C280 C285 1.479 . S
C280 C290 1.465 . S
C281 C280 1.264 . S
C281 C283 1.339 . S
C281 H308 0.931 . S
C282 C283 1.395 . S
C282 C284 1.320 . S
C283 C281 1.339 . S
C283 C282 1.395 . S
C283 H309 0.929 . S
C284 C282 1.320 . S
C284 C285 1.405 . S
C284 H310 0.930 . S
C285 C280 1.479 . S
C285 C284 1.405 . S
C285 H311 0.931 . S
U286 O287 2.454 . S
U286 O288 2.458 . S
U286 C289 2.984 . S
U286 C290 2.847 . S
U286 C303 2.882 . S
U286 O304 2.441 . S
U286 O305 2.420 . S
U286 O306 2.455 . S
U286 O307 2.449 . S
O287 U286 2.454 . S
O287 C289 1.353 . S
O288 U286 2.458 . S
O288 C289 1.286 . S
C289 U286 2.984 . S
C289 O287 1.353 . S
C289 O288 1.286 . S
C289 C291 1.363 . S
C290 C280 1.465 . S
C290 U286 2.847 . S
C290 O304 1.249 . S
C290 O305 1.202 . S
C291 C289 1.363 . S
C291 C293 1.408 . S
C291 C296 1.342 . S
C292 C293 1.310 . S
C292 C295 1.461 . S
C292 H312 0.932 . S
C293 C291 1.408 . S
C293 C292 1.310 . S
C293 H313 0.930 . S
C294 C295 1.474 . S
C294 C296 1.285 . S
C294 H314 0.929 . S
C295 C292 1.461 . S
C295 C294 1.474 . S
C296 C291 1.342 . S
C296 C294 1.285 . S
C296 H315 0.930 . S
C297 C300 1.424 . S
C297 C302 1.245 . S
C297 C303 1.428 . S
C298 C301 1.260 . S
C298 C302 1.477 . S
C298 H316 0.932 . S
C299 C300 1.384 . S
C299 C301 1.479 . S
C299 H317 0.929 . S
C300 C297 1.424 . S
C300 C299 1.384 . S
C300 H318 0.928 . S
C301 C298 1.260 . S
C301 C299 1.479 . S
C302 C297 1.245 . S
C302 C298 1.477 . S
C302 H319 0.932 . S
C303 U286 2.882 . S
C303 C297 1.428 . S
C303 O306 1.301 . S
C303 O307 1.282 . S
O304 U286 2.441 . S
O304 C290 1.249 . S
O305 U286 2.420 . S
O305 C290 1.202 . S
O306 U286 2.455 . S
O306 C303 1.301 . S
O307 U286 2.449 . S
O307 C303 1.282 . S
H308 C281 0.931 . S
H309 C283 0.929 . S
H310 C284 0.930 . S
H311 C285 0.931 . S
H312 C292 0.932 . S
H313 C293 0.930 . S
H314 C294 0.929 . S
H315 C296 0.930 . S
H316 C298 0.932 . S
H317 C299 0.929 . S
H318 C300 0.928 . S
H319 C302 0.932 . S
Zn320 O326 1.969 1_545 S
Zn320 O327 1.965 1_545 S
Zn320 O331 2.024 . S
Zn320 O336 1.969 . S
Zn321 O328 1.969 . S
Zn321 O334 1.969 1_565 S
Zn321 O335 1.965 1_665 S
Zn321 O337 2.024 . S
C322 O323 1.229 . S
C322 O331 1.058 . S
O323 C322 1.229 . S
C324 O325 1.229 . S
C324 O337 1.058 . S
O325 C324 1.229 . S
O326 Zn320 1.969 1_565 S
O326 C329 1.267 . S
O327 Zn320 1.965 1_565 S
O327 C338 1.260 1_455 S
O328 Zn321 1.969 . S
O328 C338 1.258 . S
C329 O326 1.267 . S
C329 O330 1.228 . S
O330 C329 1.228 . S
O331 Zn320 2.024 . S
O331 C322 1.058 . S
C332 O333 1.228 . S
C332 O334 1.267 . S
O333 C332 1.228 . S
O334 Zn321 1.969 1_545 S
O334 C332 1.267 . S
O335 Zn321 1.965 1_445 S
O335 C339 1.260 . S
O336 Zn320 1.969 . S
O336 C339 1.258 . S
O337 Zn321 2.024 . S
O337 C324 1.058 . S
C338 O327 1.260 1_655 S
C338 O328 1.258 . S
C339 O335 1.260 . S
C339 O336 1.258 . S
Zn340 O346 1.969 . S
Zn340 O347 1.965 1_565 S
Zn340 O351 2.024 . S
Zn340 O356 1.969 1_556 S
Zn341 O348 1.969 . S
Zn341 O354 1.969 . S
Zn341 O355 1.965 1_545 S
Zn341 O357 2.024 . S
C342 O343 1.229 . S
C342 O351 1.058 . S
O343 C342 1.229 . S
C344 O345 1.229 . S
C344 O357 1.058 . S
O345 C344 1.229 . S
O346 Zn340 1.969 . S
O346 C349 1.267 . S
O347 Zn340 1.965 1_545 S
O347 C358 1.260 . S
O348 Zn341 1.969 . S
O348 C358 1.258 1_554 S
C349 O346 1.267 . S
C349 O350 1.228 . S
O350 C349 1.228 . S
O351 Zn340 2.024 . S
O351 C342 1.058 . S
C352 O353 1.228 . S
C352 O354 1.267 . S
O353 C352 1.228 . S
O354 Zn341 1.969 . S
O354 C352 1.267 . S
O355 Zn341 1.965 1_565 S
O355 C359 1.260 . S
O356 Zn340 1.969 1_554 S
O356 C359 1.258 . S
O357 Zn341 2.024 . S
O357 C344 1.058 . S
C358 O347 1.260 . S
C358 O348 1.258 1_556 S
C359 O355 1.260 . S
C359 O356 1.258 . S
Zn360 O366 1.969 . S
Zn360 O367 1.965 . S
Zn360 O371 2.024 . S
Zn360 O376 1.969 . S
Zn361 O368 1.969 . S
Zn361 O374 1.969 . S
Zn361 O375 1.965 . S
Zn361 O377 2.024 . S
C362 O363 1.229 . S
C362 O371 1.058 . S
O363 C362 1.229 . S
C364 O365 1.229 . S
C364 O377 1.058 . S
O365 C364 1.229 . S
O366 Zn360 1.969 . S
O366 C369 1.267 . S
O367 Zn360 1.965 . S
O367 C378 1.260 . S
O368 Zn361 1.969 . S
O368 C378 1.258 . S
C369 O366 1.267 . S
C369 O370 1.228 . S
O370 C369 1.228 . S
O371 Zn360 2.024 . S
O371 C362 1.058 . S
C372 O373 1.228 . S
C372 O374 1.267 . S
O373 C372 1.228 . S
O374 Zn361 1.969 . S
O374 C372 1.267 . S
O375 Zn361 1.965 . S
O375 C379 1.260 . S
O376 Zn360 1.969 . S
O376 C379 1.258 . S
O377 Zn361 2.024 . S
O377 C364 1.058 . S
C378 O367 1.260 . S
C378 O368 1.258 . S
C379 O375 1.260 . S
C379 O376 1.258 . S
Zn380 O386 1.969 . S
Zn380 O387 1.965 1_556 S
Zn380 O391 2.024 . S
Zn380 O396 1.969 1_655 S
Zn381 O388 1.969 . S
Zn381 O394 1.969 . S
Zn381 O395 1.965 1_554 S
Zn381 O397 2.024 . S
C382 O383 1.229 . S
C382 O391 1.058 . S
O383 C382 1.229 . S
C384 O385 1.229 . S
C384 O397 1.058 . S
O385 C384 1.229 . S
O386 Zn380 1.969 . S
O386 C389 1.267 . S
O387 Zn380 1.965 1_554 S
O387 C398 1.260 . S
O388 Zn381 1.969 . S
O388 C398 1.258 1_455 S
C389 O386 1.267 . S
C389 O390 1.228 . S
O390 C389 1.228 . S
O391 Zn380 2.024 . S
O391 C382 1.058 . S
C392 O393 1.228 . S
C392 O394 1.267 . S
O393 C392 1.228 . S
O394 Zn381 1.969 . S
O394 C392 1.267 . S
O395 Zn381 1.965 1_556 S
O395 C399 1.260 . S
O396 Zn380 1.969 1_455 S
O396 C399 1.258 . S
O397 Zn381 2.024 . S
O397 C384 1.058 . S
C398 O387 1.260 . S
C398 O388 1.258 1_655 S
C399 O395 1.260 . S
C399 O396 1.258 . S
H400 C408 0.950 . S
H401 C413 0.950 . S
H402 C410 0.950 . S
H403 C412 0.950 . S
H404 C414 0.950 . S
H405 C416 0.950 . S
H406 C418 0.950 . S
H407 C419 0.950 . S
C408 H400 0.950 . S
C408 C409 1.386 . S
C408 C410 1.391 . S
C409 C408 1.386 . S
C409 C413 1.393 . S
C410 H402 0.950 . S
C410 C408 1.391 . S
C410 C411 1.400 . S
C411 C410 1.400 . S
C411 C412 1.398 . S
C411 C417 1.491 . S
C412 H403 0.950 . S
C412 C411 1.398 . S
C412 C413 1.391 . S
C413 H401 0.950 . S
C413 C409 1.393 . S
C413 C412 1.391 . S
C414 H404 0.950 . S
C414 C415 1.386 . S
C414 C416 1.391 . S
C415 C414 1.386 . S
C415 C419 1.393 . S
C416 H405 0.950 . S
C416 C414 1.391 . S
C416 C417 1.400 . S
C417 C411 1.491 . S
C417 C416 1.400 . S
C417 C418 1.398 . S
C418 H406 0.950 . S
C418 C417 1.398 . S
C418 C419 1.391 . S
C419 H407 0.950 . S
C419 C415 1.393 . S
C419 C418 1.391 . S
H420 C428 0.950 . S
H421 C433 0.950 . S
H422 C430 0.950 . S
H423 C432 0.950 . S
H424 C434 0.950 . S
H425 C436 0.950 . S
H426 C438 0.950 . S
H427 C439 0.950 . S
C428 H420 0.950 . S
C428 C429 1.386 . S
C428 C430 1.391 . S
C429 C428 1.386 . S
C429 C433 1.393 . S
C430 H422 0.950 . S
C430 C428 1.391 . S
C430 C431 1.400 . S
C431 C430 1.400 . S
C431 C432 1.398 . S
C431 C437 1.491 . S
C432 H423 0.950 . S
C432 C431 1.398 . S
C432 C433 1.391 . S
C433 H421 0.950 . S
C433 C429 1.393 . S
C433 C432 1.391 . S
C434 H424 0.950 . S
C434 C435 1.386 . S
C434 C436 1.391 . S
C435 C434 1.386 . S
C435 C439 1.393 . S
C436 H425 0.950 . S
C436 C434 1.391 . S
C436 C437 1.400 . S
C437 C431 1.491 . S
C437 C436 1.400 . S
C437 C438 1.398 . S
C438 H426 0.950 . S
C438 C437 1.398 . S
C438 C439 1.391 . S
C439 H427 0.950 . S
C439 C435 1.393 . S
C439 C438 1.391 . S
H440 C448 0.950 . S
H441 C453 0.950 . S
H442 C450 0.950 . S
H443 C452 0.950 . S
H444 C454 0.950 . S
H445 C456 0.950 . S
H446 C458 0.950 . S
H447 C459 0.950 . S
C448 H440 0.950 . S
C448 C449 1.386 . S
C448 C450 1.391 . S
C449 C448 1.386 . S
C449 C453 1.393 . S
C450 H442 0.950 . S
C450 C448 1.391 . S
C450 C451 1.400 . S
C451 C450 1.400 . S
C451 C452 1.398 . S
C451 C457 1.491 . S
C452 H443 0.950 . S
C452 C451 1.398 . S
C452 C453 1.391 . S
C453 H441 0.950 . S
C453 C449 1.393 . S
C453 C452 1.391 . S
C454 H444 0.950 . S
C454 C455 1.386 . S
C454 C456 1.391 . S
C455 C454 1.386 . S
C455 C459 1.393 . S
C456 H445 0.950 . S
C456 C454 1.391 . S
C456 C457 1.400 . S
C457 C451 1.491 . S
C457 C456 1.400 . S
C457 C458 1.398 . S
C458 H446 0.950 . S
C458 C457 1.398 . S
C458 C459 1.391 . S
C459 H447 0.950 . S
C459 C455 1.393 . S
C459 C458 1.391 . S
H460 C468 0.950 . S
H461 C473 0.950 . S
H462 C470 0.950 . S
H463 C472 0.950 . S
H464 C474 0.950 . S
H465 C476 0.950 . S
H466 C478 0.950 . S
H467 C479 0.950 . S
C468 H460 0.950 . S
C468 C469 1.386 . S
C468 C470 1.391 . S
C469 C468 1.386 . S
C469 C473 1.393 . S
C470 H462 0.950 . S
C470 C468 1.391 . S
C470 C471 1.400 . S
C471 C470 1.400 . S
C471 C472 1.398 . S
C471 C477 1.491 . S
C472 H463 0.950 . S
C472 C471 1.398 . S
C472 C473 1.391 . S
C473 H461 0.950 . S
C473 C469 1.393 . S
C473 C472 1.391 . S
C474 H464 0.950 . S
C474 C475 1.386 . S
C474 C476 1.391 . S
C475 C474 1.386 . S
C475 C479 1.393 . S
C476 H465 0.950 . S
C476 C474 1.391 . S
C476 C477 1.400 . S
C477 C471 1.491 . S
C477 C476 1.400 . S
C477 C478 1.398 . S
C478 H466 0.950 . S
C478 C477 1.398 . S
C478 C479 1.391 . S
C479 H467 0.950 . S
C479 C475 1.393 . S
C479 C478 1.391 . S
H480 C488 0.950 . S
H481 C493 0.950 . S
H482 C490 0.950 . S
H483 C492 0.950 . S
H484 C494 0.950 . S
H485 C496 0.950 . S
H486 C498 0.950 . S
H487 C499 0.950 . S
C488 H480 0.950 . S
C488 C489 1.386 . S
C488 C490 1.391 . S
C489 C488 1.386 . S
C489 C493 1.393 . S
C490 H482 0.950 . S
C490 C488 1.391 . S
C490 C491 1.400 . S
C491 C490 1.400 . S
C491 C492 1.398 . S
C491 C497 1.491 . S
C492 H483 0.950 . S
C492 C491 1.398 . S
C492 C493 1.391 . S
C493 H481 0.950 . S
C493 C489 1.393 . S
C493 C492 1.391 . S
C494 H484 0.950 . S
C494 C495 1.386 . S
C494 C496 1.391 . S
C495 C494 1.386 . S
C495 C499 1.393 . S
C496 H485 0.950 . S
C496 C494 1.391 . S
C496 C497 1.400 . S
C497 C491 1.491 . S
C497 C496 1.400 . S
C497 C498 1.398 . S
C498 H486 0.950 . S
C498 C497 1.398 . S
C498 C499 1.391 . S
C499 H487 0.950 . S
C499 C495 1.393 . S
C499 C498 1.391 . S
H500 C508 0.950 . S
H501 C513 0.950 . S
H502 C510 0.950 . S
H503 C512 0.950 . S
H504 C514 0.950 . S
H505 C516 0.950 . S
H506 C518 0.950 . S
H507 C519 0.950 . S
C508 H500 0.950 . S
C508 C509 1.386 . S
C508 C510 1.391 . S
C509 C508 1.386 . S
C509 C513 1.393 . S
C510 H502 0.950 . S
C510 C508 1.391 . S
C510 C511 1.400 . S
C511 C510 1.400 . S
C511 C512 1.398 . S
C511 C517 1.491 . S
C512 H503 0.950 . S
C512 C511 1.398 . S
C512 C513 1.391 . S
C513 H501 0.950 . S
C513 C509 1.393 . S
C513 C512 1.391 . S
C514 H504 0.950 . S
C514 C515 1.386 . S
C514 C516 1.391 . S
C515 C514 1.386 . S
C515 C519 1.393 . S
C516 H505 0.950 . S
C516 C514 1.391 . S
C516 C517 1.400 . S
C517 C511 1.491 . S
C517 C516 1.400 . S
C517 C518 1.398 . S
C518 H506 0.950 . S
C518 C517 1.398 . S
C518 C519 1.391 . S
C519 H507 0.950 . S
C519 C515 1.393 . S
C519 C518 1.391 . S
H520 C528 0.950 . S
H521 C533 0.950 . S
H522 C530 0.950 . S
H523 C532 0.950 . S
H524 C534 0.950 . S
H525 C536 0.950 . S
H526 C538 0.950 . S
H527 C539 0.950 . S
C528 H520 0.950 . S
C528 C529 1.386 . S
C528 C530 1.391 . S
C529 C528 1.386 . S
C529 C533 1.393 . S
C530 H522 0.950 . S
C530 C528 1.391 . S
C530 C531 1.400 . S
C531 C530 1.400 . S
C531 C532 1.398 . S
C531 C537 1.491 . S
C532 H523 0.950 . S
C532 C531 1.398 . S
C532 C533 1.391 . S
C533 H521 0.950 . S
C533 C529 1.393 . S
C533 C532 1.391 . S
C534 H524 0.950 . S
C534 C535 1.386 . S
C534 C536 1.391 . S
C535 C534 1.386 . S
C535 C539 1.393 . S
C536 H525 0.950 . S
C536 C534 1.391 . S
C536 C537 1.400 . S
C537 C531 1.491 . S
C537 C536 1.400 . S
C537 C538 1.398 . S
C538 H526 0.950 . S
C538 C537 1.398 . S
C538 C539 1.391 . S
C539 H527 0.950 . S
C539 C535 1.393 . S
C539 C538 1.391 . S
H540 C548 0.950 . S
H541 C553 0.950 . S
H542 C550 0.950 . S
H543 C552 0.950 . S
H544 C554 0.950 . S
H545 C556 0.950 . S
H546 C558 0.950 . S
H547 C559 0.950 . S
C548 H540 0.950 . S
C548 C549 1.386 . S
C548 C550 1.391 . S
C549 C548 1.386 . S
C549 C553 1.393 . S
C550 H542 0.950 . S
C550 C548 1.391 . S
C550 C551 1.400 . S
C551 C550 1.400 . S
C551 C552 1.398 . S
C551 C557 1.491 . S
C552 H543 0.950 . S
C552 C551 1.398 . S
C552 C553 1.391 . S
C553 H541 0.950 . S
C553 C549 1.393 . S
C553 C552 1.391 . S
C554 H544 0.950 . S
C554 C555 1.386 . S
C554 C556 1.391 . S
C555 C554 1.386 . S
C555 C559 1.393 . S
C556 H545 0.950 . S
C556 C554 1.391 . S
C556 C557 1.400 . S
C557 C551 1.491 . S
C557 C556 1.400 . S
C557 C558 1.398 . S
C558 H546 0.950 . S
C558 C557 1.398 . S
C558 C559 1.391 . S
C559 H547 0.950 . S
C559 C555 1.393 . S
C559 C558 1.391 . S
H560 C568 0.950 . S
H561 C573 0.950 . S
H562 C570 0.950 . S
H563 C572 0.950 . S
H564 C574 0.950 . S
H565 C576 0.950 . S
H566 C578 0.950 . S
H567 C579 0.950 . S
C568 H560 0.950 . S
C568 C569 1.386 . S
C568 C570 1.391 . S
C569 C568 1.386 . S
C569 C573 1.393 . S
C570 H562 0.950 . S
C570 C568 1.391 . S
C570 C571 1.400 . S
C571 C570 1.400 . S
C571 C572 1.398 . S
C571 C577 1.491 . S
C572 H563 0.950 . S
C572 C571 1.398 . S
C572 C573 1.391 . S
C573 H561 0.950 . S
C573 C569 1.393 . S
C573 C572 1.391 . S
C574 H564 0.950 . S
C574 C575 1.386 . S
C574 C576 1.391 . S
C575 C574 1.386 . S
C575 C579 1.393 . S
C576 H565 0.950 . S
C576 C574 1.391 . S
C576 C577 1.400 . S
C577 C571 1.491 . S
C577 C576 1.400 . S
C577 C578 1.398 . S
C578 H566 0.950 . S
C578 C577 1.398 . S
C578 C579 1.391 . S
C579 H567 0.950 . S
C579 C575 1.393 . S
C579 C578 1.391 . S
H580 C588 0.950 . S
H581 C593 0.950 . S
H582 C590 0.950 . S
H583 C592 0.950 . S
H584 C594 0.950 . S
H585 C596 0.950 . S
H586 C598 0.950 . S
H587 C599 0.950 . S
C588 H580 0.950 . S
C588 C589 1.386 . S
C588 C590 1.391 . S
C589 C588 1.386 . S
C589 C593 1.393 . S
C590 H582 0.950 . S
C590 C588 1.391 . S
C590 C591 1.400 . S
C591 C590 1.400 . S
C591 C592 1.398 . S
C591 C597 1.491 . S
C592 H583 0.950 . S
C592 C591 1.398 . S
C592 C593 1.391 . S
C593 H581 0.950 . S
C593 C589 1.393 . S
C593 C592 1.391 . S
C594 H584 0.950 . S
C594 C595 1.386 . S
C594 C596 1.391 . S
C595 C594 1.386 . S
C595 C599 1.393 . S
C596 H585 0.950 . S
C596 C594 1.391 . S
C596 C597 1.400 . S
C597 C591 1.491 . S
C597 C596 1.400 . S
C597 C598 1.398 . S
C598 H586 0.950 . S
C598 C597 1.398 . S
C598 C599 1.391 . S
C599 H587 0.950 . S
C599 C595 1.393 . S
C599 C598 1.391 . S
H600 C608 0.950 . S
H601 C613 0.950 . S
H602 C610 0.950 . S
H603 C612 0.950 . S
H604 C614 0.950 . S
H605 C616 0.950 . S
H606 C618 0.950 . S
H607 C619 0.950 . S
C608 H600 0.950 . S
C608 C609 1.386 . S
C608 C610 1.391 . S
C609 C608 1.386 . S
C609 C613 1.393 . S
C610 H602 0.950 . S
C610 C608 1.391 . S
C610 C611 1.400 . S
C611 C610 1.400 . S
C611 C612 1.398 . S
C611 C617 1.491 . S
C612 H603 0.950 . S
C612 C611 1.398 . S
C612 C613 1.391 . S
C613 H601 0.950 . S
C613 C609 1.393 . S
C613 C612 1.391 . S
C614 H604 0.950 . S
C614 C615 1.386 . S
C614 C616 1.391 . S
C615 C614 1.386 . S
C615 C619 1.393 . S
C616 H605 0.950 . S
C616 C614 1.391 . S
C616 C617 1.400 . S
C617 C611 1.491 . S
C617 C616 1.400 . S
C617 C618 1.398 . S
C618 H606 0.950 . S
C618 C617 1.398 . S
C618 C619 1.391 . S
C619 H607 0.950 . S
C619 C615 1.393 . S
C619 C618 1.391 . S
H620 C628 0.950 . S
H621 C633 0.950 . S
H622 C630 0.950 . S
H623 C632 0.950 . S
H624 C634 0.950 . S
H625 C636 0.950 . S
H626 C638 0.950 . S
H627 C639 0.950 . S
C628 H620 0.950 . S
C628 C629 1.386 . S
C628 C630 1.391 . S
C629 C628 1.386 . S
C629 C633 1.393 . S
C630 H622 0.950 . S
C630 C628 1.391 . S
C630 C631 1.400 . S
C631 C630 1.400 . S
C631 C632 1.398 . S
C631 C637 1.491 . S
C632 H623 0.950 . S
C632 C631 1.398 . S
C632 C633 1.391 . S
C633 H621 0.950 . S
C633 C629 1.393 . S
C633 C632 1.391 . S
C634 H624 0.950 . S
C634 C635 1.386 . S
C634 C636 1.391 . S
C635 C634 1.386 . S
C635 C639 1.393 . S
C636 H625 0.950 . S
C636 C634 1.391 . S
C636 C637 1.400 . S
C637 C631 1.491 . S
C637 C636 1.400 . S
C637 C638 1.398 . S
C638 H626 0.950 . S
C638 C637 1.398 . S
C638 C639 1.391 . S
C639 H627 0.950 . S
C639 C635 1.393 . S
C639 C638 1.391 . S
H640 C648 0.950 . S
H641 C653 0.950 . S
H642 C650 0.950 . S
H643 C652 0.950 . S
H644 C654 0.950 . S
H645 C656 0.950 . S
H646 C658 0.950 . S
H647 C659 0.950 . S
C648 H640 0.950 . S
C648 C649 1.386 . S
C648 C650 1.391 . S
C649 C648 1.386 . S
C649 C653 1.393 . S
C650 H642 0.950 . S
C650 C648 1.391 . S
C650 C651 1.400 . S
C651 C650 1.400 . S
C651 C652 1.398 . S
C651 C657 1.491 . S
C652 H643 0.950 . S
C652 C651 1.398 . S
C652 C653 1.391 . S
C653 H641 0.950 . S
C653 C649 1.393 . S
C653 C652 1.391 . S
C654 H644 0.950 . S
C654 C655 1.386 . S
C654 C656 1.391 . S
C655 C654 1.386 . S
C655 C659 1.393 . S
C656 H645 0.950 . S
C656 C654 1.391 . S
C656 C657 1.400 . S
C657 C651 1.491 . S
C657 C656 1.400 . S
C657 C658 1.398 . S
C658 H646 0.950 . S
C658 C657 1.398 . S
C658 C659 1.391 . S
C659 H647 0.950 . S
C659 C655 1.393 . S
C659 C658 1.391 . S
H660 C668 0.950 . S
H661 C673 0.950 . S
H662 C670 0.950 . S
H663 C672 0.950 . S
H664 C674 0.950 . S
H665 C676 0.950 . S
H666 C678 0.950 . S
H667 C679 0.950 . S
C668 H660 0.950 . S
C668 C669 1.386 . S
C668 C670 1.391 . S
C669 C668 1.386 . S
C669 C673 1.393 . S
C670 H662 0.950 . S
C670 C668 1.391 . S
C670 C671 1.400 . S
C671 C670 1.400 . S
C671 C672 1.398 . S
C671 C677 1.491 . S
C672 H663 0.950 . S
C672 C671 1.398 . S
C672 C673 1.391 . S
C673 H661 0.950 . S
C673 C669 1.393 . S
C673 C672 1.391 . S
C674 H664 0.950 . S
C674 C675 1.386 . S
C674 C676 1.391 . S
C675 C674 1.386 . S
C675 C679 1.393 . S
C676 H665 0.950 . S
C676 C674 1.391 . S
C676 C677 1.400 . S
C677 C671 1.491 . S
C677 C676 1.400 . S
C677 C678 1.398 . S
C678 H666 0.950 . S
C678 C677 1.398 . S
C678 C679 1.391 . S
C679 H667 0.950 . S
C679 C675 1.393 . S
C679 C678 1.391 . S
H680 C688 0.950 . S
H681 C693 0.950 . S
H682 C690 0.950 . S
H683 C692 0.950 . S
H684 C694 0.950 . S
H685 C696 0.950 . S
H686 C698 0.950 . S
H687 C699 0.950 . S
C688 H680 0.950 . S
C688 C689 1.386 . S
C688 C690 1.391 . S
C689 C688 1.386 . S
C689 C693 1.393 . S
C690 H682 0.950 . S
C690 C688 1.391 . S
C690 C691 1.400 . S
C691 C690 1.400 . S
C691 C692 1.398 . S
C691 C697 1.491 . S
C692 H683 0.950 . S
C692 C691 1.398 . S
C692 C693 1.391 . S
C693 H681 0.950 . S
C693 C689 1.393 . S
C693 C692 1.391 . S
C694 H684 0.950 . S
C694 C695 1.386 . S
C694 C696 1.391 . S
C695 C694 1.386 . S
C695 C699 1.393 . S
C696 H685 0.950 . S
C696 C694 1.391 . S
C696 C697 1.400 . S
C697 C691 1.491 . S
C697 C696 1.400 . S
C697 C698 1.398 . S
C698 H686 0.950 . S
C698 C697 1.398 . S
C698 C699 1.391 . S
C699 H687 0.950 . S
C699 C695 1.393 . S
C699 C698 1.391 . S
H700 C708 0.950 . S
H701 C713 0.950 . S
H702 C710 0.950 . S
H703 C712 0.950 . S
H704 C714 0.950 . S
H705 C716 0.950 . S
H706 C718 0.950 . S
H707 C719 0.950 . S
C708 H700 0.950 . S
C708 C709 1.386 . S
C708 C710 1.391 . S
C709 C708 1.386 . S
C709 C713 1.393 . S
C710 H702 0.950 . S
C710 C708 1.391 . S
C710 C711 1.400 . S
C711 C710 1.400 . S
C711 C712 1.398 . S
C711 C717 1.491 . S
C712 H703 0.950 . S
C712 C711 1.398 . S
C712 C713 1.391 . S
C713 H701 0.950 . S
C713 C709 1.393 . S
C713 C712 1.391 . S
C714 H704 0.950 . S
C714 C715 1.386 . S
C714 C716 1.391 . S
C715 C714 1.386 . S
C715 C719 1.393 . S
C716 H705 0.950 . S
C716 C714 1.391 . S
C716 C717 1.400 . S
C717 C711 1.491 . S
C717 C716 1.400 . S
C717 C718 1.398 . S
C718 H706 0.950 . S
C718 C717 1.398 . S
C718 C719 1.391 . S
C719 H707 0.950 . S
C719 C715 1.393 . S
C719 C718 1.391 . S
H720 C728 0.950 . S
H721 C733 0.950 . S
H722 C730 0.950 . S
H723 C732 0.950 . S
H724 C734 0.950 . S
H725 C736 0.950 . S
H726 C738 0.950 . S
H727 C739 0.950 . S
C728 H720 0.950 . S
C728 C729 1.386 . S
C728 C730 1.391 . S
C729 C728 1.386 . S
C729 C733 1.393 . S
C730 H722 0.950 . S
C730 C728 1.391 . S
C730 C731 1.400 . S
C731 C730 1.400 . S
C731 C732 1.398 . S
C731 C737 1.491 . S
C732 H723 0.950 . S
C732 C731 1.398 . S
C732 C733 1.391 . S
C733 H721 0.950 . S
C733 C729 1.393 . S
C733 C732 1.391 . S
C734 H724 0.950 . S
C734 C735 1.386 . S
C734 C736 1.391 . S
C735 C734 1.386 . S
C735 C739 1.393 . S
C736 H725 0.950 . S
C736 C734 1.391 . S
C736 C737 1.400 . S
C737 C731 1.491 . S
C737 C736 1.400 . S
C737 C738 1.398 . S
C738 H726 0.950 . S
C738 C737 1.398 . S
C738 C739 1.391 . S
C739 H727 0.950 . S
C739 C735 1.393 . S
C739 C738 1.391 . S
H740 C748 0.950 . S
H741 C753 0.950 . S
H742 C750 0.950 . S
H743 C752 0.950 . S
H744 C754 0.950 . S
H745 C756 0.950 . S
H746 C758 0.950 . S
H747 C759 0.950 . S
C748 H740 0.950 . S
C748 C749 1.386 . S
C748 C750 1.391 . S
C749 C748 1.386 . S
C749 C753 1.393 . S
C750 H742 0.950 . S
C750 C748 1.391 . S
C750 C751 1.400 . S
C751 C750 1.400 . S
C751 C752 1.398 . S
C751 C757 1.491 . S
C752 H743 0.950 . S
C752 C751 1.398 . S
C752 C753 1.391 . S
C753 H741 0.950 . S
C753 C749 1.393 . S
C753 C752 1.391 . S
C754 H744 0.950 . S
C754 C755 1.386 . S
C754 C756 1.391 . S
C755 C754 1.386 . S
C755 C759 1.393 . S
C756 H745 0.950 . S
C756 C754 1.391 . S
C756 C757 1.400 . S
C757 C751 1.491 . S
C757 C756 1.400 . S
C757 C758 1.398 . S
C758 H746 0.950 . S
C758 C757 1.398 . S
C758 C759 1.391 . S
C759 H747 0.950 . S
C759 C755 1.393 . S
C759 C758 1.391 . S
H760 C768 0.950 . S
H761 C773 0.950 . S
H762 C770 0.950 . S
H763 C772 0.950 . S
H764 C774 0.950 . S
H765 C776 0.950 . S
H766 C778 0.950 . S
H767 C779 0.950 . S
C768 H760 0.950 . S
C768 C769 1.386 . S
C768 C770 1.391 . S
C769 C768 1.386 . S
C769 C773 1.393 . S
C770 H762 0.950 . S
C770 C768 1.391 . S
C770 C771 1.400 . S
C771 C770 1.400 . S
C771 C772 1.398 . S
C771 C777 1.491 . S
C772 H763 0.950 . S
C772 C771 1.398 . S
C772 C773 1.391 . S
C773 H761 0.950 . S
C773 C769 1.393 . S
C773 C772 1.391 . S
C774 H764 0.950 . S
C774 C775 1.386 . S
C774 C776 1.391 . S
C775 C774 1.386 . S
C775 C779 1.393 . S
C776 H765 0.950 . S
C776 C774 1.391 . S
C776 C777 1.400 . S
C777 C771 1.491 . S
C777 C776 1.400 . S
C777 C778 1.398 . S
C778 H766 0.950 . S
C778 C777 1.398 . S
C778 C779 1.391 . S
C779 H767 0.950 . S
C779 C775 1.393 . S
C779 C778 1.391 . S
H780 C788 0.950 . S
H781 C793 0.950 . S
H782 C790 0.950 . S
H783 C792 0.950 . S
H784 C794 0.950 . S
H785 C796 0.950 . S
H786 C798 0.950 . S
H787 C799 0.950 . S
C788 H780 0.950 . S
C788 C789 1.386 . S
C788 C790 1.391 . S
C789 C788 1.386 . S
C789 C793 1.393 . S
C790 H782 0.950 . S
C790 C788 1.391 . S
C790 C791 1.400 . S
C791 C790 1.400 . S
C791 C792 1.398 . S
C791 C797 1.491 . S
C792 H783 0.950 . S
C792 C791 1.398 . S
C792 C793 1.391 . S
C793 H781 0.950 . S
C793 C789 1.393 . S
C793 C792 1.391 . S
C794 H784 0.950 . S
C794 C795 1.386 . S
C794 C796 1.391 . S
C795 C794 1.386 . S
C795 C799 1.393 . S
C796 H785 0.950 . S
C796 C794 1.391 . S
C796 C797 1.400 . S
C797 C791 1.491 . S
C797 C796 1.400 . S
C797 C798 1.398 . S
C798 H786 0.950 . S
C798 C797 1.398 . S
C798 C799 1.391 . S
C799 H787 0.950 . S
C799 C795 1.393 . S
C799 C798 1.391 . S
H800 C808 0.950 . S
H801 C813 0.950 . S
H802 C810 0.950 . S
H803 C812 0.950 . S
H804 C814 0.950 . S
H805 C816 0.950 . S
H806 C818 0.950 . S
H807 C819 0.950 . S
C808 H800 0.950 . S
C808 C809 1.386 . S
C808 C810 1.391 . S
C809 C808 1.386 . S
C809 C813 1.393 . S
C810 H802 0.950 . S
C810 C808 1.391 . S
C810 C811 1.400 . S
C811 C810 1.400 . S
C811 C812 1.398 . S
C811 C817 1.491 . S
C812 H803 0.950 . S
C812 C811 1.398 . S
C812 C813 1.391 . S
C813 H801 0.950 . S
C813 C809 1.393 . S
C813 C812 1.391 . S
C814 H804 0.950 . S
C814 C815 1.386 . S
C814 C816 1.391 . S
C815 C814 1.386 . S
C815 C819 1.393 . S
C816 H805 0.950 . S
C816 C814 1.391 . S
C816 C817 1.400 . S
C817 C811 1.491 . S
C817 C816 1.400 . S
C817 C818 1.398 . S
C818 H806 0.950 . S
C818 C817 1.398 . S
C818 C819 1.391 . S
C819 H807 0.950 . S
C819 C815 1.393 . S
C819 C818 1.391 . S
H820 C828 0.950 . S
H821 C833 0.950 . S
H822 C830 0.950 . S
H823 C832 0.950 . S
H824 C834 0.950 . S
H825 C836 0.950 . S
H826 C838 0.950 . S
H827 C839 0.950 . S
C828 H820 0.950 . S
C828 C829 1.386 . S
C828 C830 1.391 . S
C829 C828 1.386 . S
C829 C833 1.393 . S
C830 H822 0.950 . S
C830 C828 1.391 . S
C830 C831 1.400 . S
C831 C830 1.400 . S
C831 C832 1.398 . S
C831 C837 1.491 . S
C832 H823 0.950 . S
C832 C831 1.398 . S
C832 C833 1.391 . S
C833 H821 0.950 . S
C833 C829 1.393 . S
C833 C832 1.391 . S
C834 H824 0.950 . S
C834 C835 1.386 . S
C834 C836 1.391 . S
C835 C834 1.386 . S
C835 C839 1.393 . S
C836 H825 0.950 . S
C836 C834 1.391 . S
C836 C837 1.400 . S
C837 C831 1.491 . S
C837 C836 1.400 . S
C837 C838 1.398 . S
C838 H826 0.950 . S
C838 C837 1.398 . S
C838 C839 1.391 . S
C839 H827 0.950 . S
C839 C835 1.393 . S
C839 C838 1.391 . S
H840 C848 0.950 . S
H841 C853 0.950 . S
H842 C850 0.950 . S
H843 C852 0.950 . S
H844 C854 0.950 . S
H845 C856 0.950 . S
H846 C858 0.950 . S
H847 C859 0.950 . S
C848 H840 0.950 . S
C848 C849 1.386 . S
C848 C850 1.391 . S
C849 C848 1.386 . S
C849 C853 1.393 . S
C850 H842 0.950 . S
C850 C848 1.391 . S
C850 C851 1.400 . S
C851 C850 1.400 . S
C851 C852 1.398 . S
C851 C857 1.491 . S
C852 H843 0.950 . S
C852 C851 1.398 . S
C852 C853 1.391 . S
C853 H841 0.950 . S
C853 C849 1.393 . S
C853 C852 1.391 . S
C854 H844 0.950 . S
C854 C855 1.386 . S
C854 C856 1.391 . S
C855 C854 1.386 . S
C855 C859 1.393 . S
C856 H845 0.950 . S
C856 C854 1.391 . S
C856 C857 1.400 . S
C857 C851 1.491 . S
C857 C856 1.400 . S
C857 C858 1.398 . S
C858 H846 0.950 . S
C858 C857 1.398 . S
C858 C859 1.391 . S
C859 H847 0.950 . S
C859 C855 1.393 . S
C859 C858 1.391 . S
H860 C868 0.950 . S
H861 C873 0.950 . S
H862 C870 0.950 . S
H863 C872 0.950 . S
H864 C874 0.950 . S
H865 C876 0.950 . S
H866 C878 0.950 . S
H867 C879 0.950 . S
C868 H860 0.950 . S
C868 C869 1.386 . S
C868 C870 1.391 . S
C869 C868 1.386 . S
C869 C873 1.393 . S
C870 H862 0.950 . S
C870 C868 1.391 . S
C870 C871 1.400 . S
C871 C870 1.400 . S
C871 C872 1.398 . S
C871 C877 1.491 . S
C872 H863 0.950 . S
C872 C871 1.398 . S
C872 C873 1.391 . S
C873 H861 0.950 . S
C873 C869 1.393 . S
C873 C872 1.391 . S
C874 H864 0.950 . S
C874 C875 1.386 . S
C874 C876 1.391 . S
C875 C874 1.386 . S
C875 C879 1.393 . S
C876 H865 0.950 . S
C876 C874 1.391 . S
C876 C877 1.400 . S
C877 C871 1.491 . S
C877 C876 1.400 . S
C877 C878 1.398 . S
C878 H866 0.950 . S
C878 C877 1.398 . S
C878 C879 1.391 . S
C879 H867 0.950 . S
C879 C875 1.393 . S
C879 C878 1.391 . S
C409 C21 1.527 . S
C415 C339 1.533 . S
C429 C61 1.335 . S
C435 C342 1.288 . S
C455 C378 1.693 . S
C449 C82 1.688 . S
C469 C135 1.677 . S
C475 C398 1.659 . S
C495 C352 1.719 . S
C489 C15 1.757 . S
C515 C329 1.561 . S
C509 C42 1.579 . S
C535 C382 1.561 . S
C529 C101 1.651 . S
C555 C362 1.363 . S
C549 C122 1.444 . S
C569 C2 1.362 . S
C575 C392 1.352 . S
C595 C358 1.548 . S
C589 C95 1.564 . S
C609 C141 1.653 . S
C615 C324 1.623 . S
C629 C55 1.338 . S
C635 C372 1.295 . S
C655 C338 1.560 . S
C649 C181 1.601 . S
C669 C202 1.312 . S
C675 C344 1.257 . S
C689 C255 1.725 . S
C695 C379 1.698 . S
C709 C295 1.655 . S
C715 C399 1.645 . S
C729 C175 1.753 . S
C735 C349 1.708 . S
C755 C332 1.563 . S
C749 C221 1.589 . S
C775 C384 1.510 . S
C769 C242 1.625 . S
C795 C364 1.439 . S
C789 C301 1.474 . S
C809 C162 1.383 . S
C815 C389 1.300 . S
C835 C359 1.583 . S
C829 C261 1.600 . S
C855 C322 1.592 . S
C849 C282 1.647 . S
C869 C215 1.369 . S
C875 C369 1.328 . S
