# Generated by pormake.
# Topology tph, (6,8)-cn, num edge types: 1
# Building blocks:
#     Node 0, Type 0, BuildingBlock: OJICUG_clean_sbu_0, # of connection points: 6
#     Node 1, Type 0, BuildingBlock: OJICUG_clean_sbu_0, # of connection points: 6
#     Node 2, Type 0, BuildingBlock: OJICUG_clean_sbu_0, # of connection points: 6
#     Node 3, Type 0, BuildingBlock: OJICUG_clean_sbu_0, # of connection points: 6
#     Node 4, Type 0, BuildingBlock: OJICUG_clean_sbu_0, # of connection points: 6
#     Node 5, Type 0, BuildingBlock: OJICUG_clean_sbu_0, # of connection points: 6
#     Node 6, Type 0, BuildingBlock: OJICUG_clean_sbu_0, # of connection points: 6
#     Node 7, Type 0, BuildingBlock: OJICUG_clean_sbu_0, # of connection points: 6
#     Node 8, Type 0, BuildingBlock: OJICUG_clean_sbu_0, # of connection points: 6
#     Node 9, Type 0, BuildingBlock: OJICUG_clean_sbu_0, # of connection points: 6
#     Node 10, Type 0, BuildingBlock: OJICUG_clean_sbu_0, # of connection points: 6
#     Node 11, Type 0, BuildingBlock: OJICUG_clean_sbu_0, # of connection points: 6
#     Node 12, Type 0, BuildingBlock: OJICUG_clean_sbu_0, # of connection points: 6
#     Node 13, Type 0, BuildingBlock: OJICUG_clean_sbu_0, # of connection points: 6
#     Node 14, Type 0, BuildingBlock: OJICUG_clean_sbu_0, # of connection points: 6
#     Node 15, Type 0, BuildingBlock: OJICUG_clean_sbu_0, # of connection points: 6
#     Node 16, Type 1, BuildingBlock: TAGTUT_clean_sbu_1, # of connection points: 8
#     Node 17, Type 1, BuildingBlock: TAGTUT_clean_sbu_1, # of connection points: 8
#     Node 18, Type 1, BuildingBlock: TAGTUT_clean_sbu_1, # of connection points: 8
#     Node 19, Type 1, BuildingBlock: TAGTUT_clean_sbu_1, # of connection points: 8
#     Node 20, Type 1, BuildingBlock: TAGTUT_clean_sbu_1, # of connection points: 8
#     Node 21, Type 1, BuildingBlock: TAGTUT_clean_sbu_1, # of connection points: 8
#     Node 22, Type 1, BuildingBlock: TAGTUT_clean_sbu_1, # of connection points: 8
#     Node 23, Type 1, BuildingBlock: TAGTUT_clean_sbu_1, # of connection points: 8
#     Node 24, Type 1, BuildingBlock: TAGTUT_clean_sbu_1, # of connection points: 8
#     Node 25, Type 1, BuildingBlock: TAGTUT_clean_sbu_1, # of connection points: 8
#     Node 26, Type 1, BuildingBlock: TAGTUT_clean_sbu_1, # of connection points: 8
#     Node 27, Type 1, BuildingBlock: TAGTUT_clean_sbu_1, # of connection points: 8
#     Edge 28, Type (0, 1), BuildingBlock: XIVTED_clean_linker_0, # of connection points: 2
#     Edge 29, Type (0, 1), BuildingBlock: XIVTED_clean_linker_0, # of connection points: 2
#     Edge 30, Type (0, 1), BuildingBlock: XIVTED_clean_linker_0, # of connection points: 2
#     Edge 31, Type (0, 1), BuildingBlock: XIVTED_clean_linker_0, # of connection points: 2
#     Edge 32, Type (0, 1), BuildingBlock: XIVTED_clean_linker_0, # of connection points: 2
#     Edge 33, Type (0, 1), BuildingBlock: XIVTED_clean_linker_0, # of connection points: 2
#     Edge 34, Type (0, 1), BuildingBlock: XIVTED_clean_linker_0, # of connection points: 2
#     Edge 35, Type (0, 1), BuildingBlock: XIVTED_clean_linker_0, # of connection points: 2
#     Edge 36, Type (0, 1), BuildingBlock: XIVTED_clean_linker_0, # of connection points: 2
#     Edge 37, Type (0, 1), BuildingBlock: XIVTED_clean_linker_0, # of connection points: 2
#     Edge 38, Type (0, 1), BuildingBlock: XIVTED_clean_linker_0, # of connection points: 2
#     Edge 39, Type (0, 1), BuildingBlock: XIVTED_clean_linker_0, # of connection points: 2
#     Edge 40, Type (0, 1), BuildingBlock: XIVTED_clean_linker_0, # of connection points: 2
#     Edge 41, Type (0, 1), BuildingBlock: XIVTED_clean_linker_0, # of connection points: 2
#     Edge 42, Type (0, 1), BuildingBlock: XIVTED_clean_linker_0, # of connection points: 2
#     Edge 43, Type (0, 1), BuildingBlock: XIVTED_clean_linker_0, # of connection points: 2
#     Edge 44, Type (0, 1), BuildingBlock: XIVTED_clean_linker_0, # of connection points: 2
#     Edge 45, Type (0, 1), BuildingBlock: XIVTED_clean_linker_0, # of connection points: 2
#     Edge 46, Type (0, 1), BuildingBlock: XIVTED_clean_linker_0, # of connection points: 2
#     Edge 47, Type (0, 1), BuildingBlock: XIVTED_clean_linker_0, # of connection points: 2
#     Edge 48, Type (0, 1), BuildingBlock: XIVTED_clean_linker_0, # of connection points: 2
#     Edge 49, Type (0, 1), BuildingBlock: XIVTED_clean_linker_0, # of connection points: 2
#     Edge 50, Type (0, 1), BuildingBlock: XIVTED_clean_linker_0, # of connection points: 2
#     Edge 51, Type (0, 1), BuildingBlock: XIVTED_clean_linker_0, # of connection points: 2
#     Edge 52, Type (0, 1), BuildingBlock: XIVTED_clean_linker_0, # of connection points: 2
#     Edge 53, Type (0, 1), BuildingBlock: XIVTED_clean_linker_0, # of connection points: 2
#     Edge 54, Type (0, 1), BuildingBlock: XIVTED_clean_linker_0, # of connection points: 2
#     Edge 55, Type (0, 1), BuildingBlock: XIVTED_clean_linker_0, # of connection points: 2
#     Edge 56, Type (0, 1), BuildingBlock: XIVTED_clean_linker_0, # of connection points: 2
#     Edge 57, Type (0, 1), BuildingBlock: XIVTED_clean_linker_0, # of connection points: 2
#     Edge 58, Type (0, 1), BuildingBlock: XIVTED_clean_linker_0, # of connection points: 2
#     Edge 59, Type (0, 1), BuildingBlock: XIVTED_clean_linker_0, # of connection points: 2
#     Edge 60, Type (0, 1), BuildingBlock: XIVTED_clean_linker_0, # of connection points: 2
#     Edge 61, Type (0, 1), BuildingBlock: XIVTED_clean_linker_0, # of connection points: 2
#     Edge 62, Type (0, 1), BuildingBlock: XIVTED_clean_linker_0, # of connection points: 2
#     Edge 63, Type (0, 1), BuildingBlock: XIVTED_clean_linker_0, # of connection points: 2
#     Edge 64, Type (0, 1), BuildingBlock: XIVTED_clean_linker_0, # of connection points: 2
#     Edge 65, Type (0, 1), BuildingBlock: XIVTED_clean_linker_0, # of connection points: 2
#     Edge 66, Type (0, 1), BuildingBlock: XIVTED_clean_linker_0, # of connection points: 2
#     Edge 67, Type (0, 1), BuildingBlock: XIVTED_clean_linker_0, # of connection points: 2
#     Edge 68, Type (0, 1), BuildingBlock: XIVTED_clean_linker_0, # of connection points: 2
#     Edge 69, Type (0, 1), BuildingBlock: XIVTED_clean_linker_0, # of connection points: 2
#     Edge 70, Type (0, 1), BuildingBlock: XIVTED_clean_linker_0, # of connection points: 2
#     Edge 71, Type (0, 1), BuildingBlock: XIVTED_clean_linker_0, # of connection points: 2
#     Edge 72, Type (0, 1), BuildingBlock: XIVTED_clean_linker_0, # of connection points: 2
#     Edge 73, Type (0, 1), BuildingBlock: XIVTED_clean_linker_0, # of connection points: 2
#     Edge 74, Type (0, 1), BuildingBlock: XIVTED_clean_linker_0, # of connection points: 2
#     Edge 75, Type (0, 1), BuildingBlock: XIVTED_clean_linker_0, # of connection points: 2
#     Edge 76, Type (0, 1), BuildingBlock: XIVTED_clean_linker_0, # of connection points: 2
#     Edge 77, Type (0, 1), BuildingBlock: XIVTED_clean_linker_0, # of connection points: 2
#     Edge 78, Type (0, 1), BuildingBlock: XIVTED_clean_linker_0, # of connection points: 2
#     Edge 79, Type (0, 1), BuildingBlock: XIVTED_clean_linker_0, # of connection points: 2
#     Edge 80, Type (0, 1), BuildingBlock: XIVTED_clean_linker_0, # of connection points: 2
#     Edge 81, Type (0, 1), BuildingBlock: XIVTED_clean_linker_0, # of connection points: 2
#     Edge 82, Type (0, 1), BuildingBlock: XIVTED_clean_linker_0, # of connection points: 2
#     Edge 83, Type (0, 1), BuildingBlock: XIVTED_clean_linker_0, # of connection points: 2
#     Edge 84, Type (0, 1), BuildingBlock: XIVTED_clean_linker_0, # of connection points: 2
#     Edge 85, Type (0, 1), BuildingBlock: XIVTED_clean_linker_0, # of connection points: 2
#     Edge 86, Type (0, 1), BuildingBlock: XIVTED_clean_linker_0, # of connection points: 2
#     Edge 87, Type (0, 1), BuildingBlock: XIVTED_clean_linker_0, # of connection points: 2
#     Edge 88, Type (0, 1), BuildingBlock: XIVTED_clean_linker_0, # of connection points: 2
#     Edge 89, Type (0, 1), BuildingBlock: XIVTED_clean_linker_0, # of connection points: 2
#     Edge 90, Type (0, 1), BuildingBlock: XIVTED_clean_linker_0, # of connection points: 2
#     Edge 91, Type (0, 1), BuildingBlock: XIVTED_clean_linker_0, # of connection points: 2
#     Edge 92, Type (0, 1), BuildingBlock: XIVTED_clean_linker_0, # of connection points: 2
#     Edge 93, Type (0, 1), BuildingBlock: XIVTED_clean_linker_0, # of connection points: 2
#     Edge 94, Type (0, 1), BuildingBlock: XIVTED_clean_linker_0, # of connection points: 2
#     Edge 95, Type (0, 1), BuildingBlock: XIVTED_clean_linker_0, # of connection points: 2
#     Edge 96, Type (0, 1), BuildingBlock: XIVTED_clean_linker_0, # of connection points: 2
#     Edge 97, Type (0, 1), BuildingBlock: XIVTED_clean_linker_0, # of connection points: 2
#     Edge 98, Type (0, 1), BuildingBlock: XIVTED_clean_linker_0, # of connection points: 2
#     Edge 99, Type (0, 1), BuildingBlock: XIVTED_clean_linker_0, # of connection points: 2
#     Edge 100, Type (0, 1), BuildingBlock: XIVTED_clean_linker_0, # of connection points: 2
#     Edge 101, Type (0, 1), BuildingBlock: XIVTED_clean_linker_0, # of connection points: 2
#     Edge 102, Type (0, 1), BuildingBlock: XIVTED_clean_linker_0, # of connection points: 2
#     Edge 103, Type (0, 1), BuildingBlock: XIVTED_clean_linker_0, # of connection points: 2
#     Edge 104, Type (0, 1), BuildingBlock: XIVTED_clean_linker_0, # of connection points: 2
#     Edge 105, Type (0, 1), BuildingBlock: XIVTED_clean_linker_0, # of connection points: 2
#     Edge 106, Type (0, 1), BuildingBlock: XIVTED_clean_linker_0, # of connection points: 2
#     Edge 107, Type (0, 1), BuildingBlock: XIVTED_clean_linker_0, # of connection points: 2
#     Edge 108, Type (0, 1), BuildingBlock: XIVTED_clean_linker_0, # of connection points: 2
#     Edge 109, Type (0, 1), BuildingBlock: XIVTED_clean_linker_0, # of connection points: 2
#     Edge 110, Type (0, 1), BuildingBlock: XIVTED_clean_linker_0, # of connection points: 2
#     Edge 111, Type (0, 1), BuildingBlock: XIVTED_clean_linker_0, # of connection points: 2
#     Edge 112, Type (0, 1), BuildingBlock: XIVTED_clean_linker_0, # of connection points: 2
#     Edge 113, Type (0, 1), BuildingBlock: XIVTED_clean_linker_0, # of connection points: 2
#     Edge 114, Type (0, 1), BuildingBlock: XIVTED_clean_linker_0, # of connection points: 2
#     Edge 115, Type (0, 1), BuildingBlock: XIVTED_clean_linker_0, # of connection points: 2
#     Edge 116, Type (0, 1), BuildingBlock: XIVTED_clean_linker_0, # of connection points: 2
#     Edge 117, Type (0, 1), BuildingBlock: XIVTED_clean_linker_0, # of connection points: 2
#     Edge 118, Type (0, 1), BuildingBlock: XIVTED_clean_linker_0, # of connection points: 2
#     Edge 119, Type (0, 1), BuildingBlock: XIVTED_clean_linker_0, # of connection points: 2
#     Edge 120, Type (0, 1), BuildingBlock: XIVTED_clean_linker_0, # of connection points: 2
#     Edge 121, Type (0, 1), BuildingBlock: XIVTED_clean_linker_0, # of connection points: 2
#     Edge 122, Type (0, 1), BuildingBlock: XIVTED_clean_linker_0, # of connection points: 2
#     Edge 123, Type (0, 1), BuildingBlock: XIVTED_clean_linker_0, # of connection points: 2
# Relax obj value: 0.206
# Max RMSD: 0.314
# Mean RMSD: 0.271
data_MOF--net-tph--node1-OJICUG_clean_sbu_0--node2-TAGTUT_clean_sbu_1--edge1-XIVTED_clean_linker_0
_symmetry_space_group_name_H-M    P1
_symmetry_Int_Tables_number       1
_symmetry_cell_setting            triclinic
loop_
_symmetry_equiv_pos_as_xyz
'x, y, z'
_cell_length_a     48.187814
_cell_length_b     47.702811
_cell_length_c     47.261352
_cell_angle_alpha  90.162166
_cell_angle_beta   92.259809
_cell_angle_gamma 90.236617
loop_
_atom_site_label
_atom_site_type_symbol
_atom_site_fract_x
_atom_site_fract_y
_atom_site_fract_z
_atom_type_partial_charge
Sc0 Sc 0.15589 0.18504 0.17399 0.0
Sc1 Sc 0.20953 0.13816 0.18063 0.0
Sc2 Sc 0.2115 0.19124 0.13091 0.0
O3 O 0.19265 0.17159 0.16177 0.0
C4 C 0.15225 0.19911 0.10778 0.0
C5 C 0.14489 0.12269 0.17316 0.0
C6 C 0.21982 0.12573 0.11755 0.0
C7 C 0.18453 0.16256 0.23203 0.0
C8 C 0.18647 0.24065 0.16977 0.0
C9 C 0.26277 0.17649 0.17 0.0
O10 O 0.1434 0.20299 0.13257 0.0
O11 O 0.16872 0.11861 0.18531 0.0
O12 O 0.22409 0.15148 0.11134 0.0
O13 O 0.1627 0.1694 0.21748 0.0
O14 O 0.19834 0.23253 0.14728 0.0
O15 O 0.252 0.15341 0.17766 0.0
O16 O 0.1743 0.2238 0.18601 0.0
O17 O 0.20735 0.15813 0.22049 0.0
O18 O 0.24922 0.19493 0.15601 0.0
O19 O 0.13823 0.14582 0.16159 0.0
O20 O 0.17559 0.18815 0.10387 0.0
O21 O 0.21197 0.11762 0.14144 0.0
Sc22 Sc 0.42734 0.62791 0.05635 0.0
Sc23 Sc 0.39445 0.56436 0.06473 0.0
Sc24 Sc 0.4439 0.58696 0.11541 0.0
O25 O 0.4229 0.59266 0.07853 0.0
C26 C 0.48949 0.61468 0.07469 0.0
C27 C 0.42045 0.57797 0.00936 0.0
C28 C 0.4396 0.52478 0.0973 0.0
C29 C 0.36603 0.62091 0.04291 0.0
C30 C 0.42842 0.65118 0.11917 0.0
C31 C 0.38025 0.57315 0.1279 0.0
O32 O 0.4714 0.62303 0.05629 0.0
O33 O 0.41679 0.55839 0.02716 0.0
O34 O 0.45563 0.54495 0.10461 0.0
O35 O 0.3839 0.63532 0.05676 0.0
O36 O 0.43246 0.62726 0.12999 0.0
O37 O 0.37207 0.57226 0.10194 0.0
O38 O 0.43006 0.65588 0.09282 0.0
O39 O 0.36852 0.59447 0.04056 0.0
O40 O 0.40601 0.57277 0.1359 0.0
O41 O 0.4227 0.6038 0.01678 0.0
O42 O 0.48293 0.60254 0.09776 0.0
O43 O 0.41568 0.52892 0.08551 0.0
Sc44 Sc 0.85689 0.28593 0.20793 0.0
Sc45 Sc 0.82629 0.30513 0.14378 0.0
Sc46 Sc 0.82394 0.35078 0.20043 0.0
O47 O 0.83565 0.31408 0.18444 0.0
C48 C 0.81354 0.30978 0.25137 0.0
C49 C 0.82322 0.24452 0.17106 0.0
C50 C 0.77047 0.32699 0.16354 0.0
C51 C 0.88774 0.28955 0.14932 0.0
C52 C 0.88598 0.34263 0.22712 0.0
C53 C 0.83219 0.37165 0.14022 0.0
O54 O 0.83264 0.29262 0.24528 0.0
O55 O 0.82644 0.25984 0.14948 0.0
O56 O 0.78263 0.34597 0.179 0.0
O57 O 0.88396 0.27675 0.17266 0.0
O58 O 0.86435 0.35775 0.22262 0.0
O59 O 0.82396 0.34827 0.13008 0.0
O60 O 0.88651 0.3166 0.22165 0.0
O61 O 0.86932 0.30451 0.13683 0.0
O62 O 0.83958 0.37448 0.16605 0.0
O63 O 0.82806 0.25355 0.19596 0.0
O64 O 0.8072 0.33085 0.2362 0.0
O65 O 0.78346 0.30704 0.15201 0.0
Sc66 Sc 0.6121 0.95381 0.08111 0.0
Sc67 Sc 0.57126 0.89763 0.05289 0.0
Sc68 Sc 0.55245 0.93142 0.11551 0.0
O69 O 0.57834 0.92796 0.08291 0.0
C70 C 0.60996 0.94497 0.14796 0.0
C71 C 0.637 0.894 0.06626 0.0
C72 C 0.55948 0.86531 0.10985 0.0
C73 C 0.59414 0.9471 0.01513 0.0
C74 C 0.56396 0.99584 0.09923 0.0
C75 C 0.50904 0.91414 0.06482 0.0
O76 O 0.62221 0.95251 0.12595 0.0
O77 O 0.61395 0.88492 0.05584 0.0
O78 O 0.55535 0.88733 0.12426 0.0
O79 O 0.60752 0.95876 0.03575 0.0
O80 O 0.54922 0.97653 0.10999 0.0
O81 O 0.52716 0.90522 0.04815 0.0
O82 O 0.58669 0.99085 0.08707 0.0
O83 O 0.57861 0.92578 0.01824 0.0
O84 O 0.51547 0.92476 0.08896 0.0
O85 O 0.64022 0.91861 0.07647 0.0
O86 O 0.58507 0.93641 0.14739 0.0
O87 O 0.56401 0.86549 0.0836 0.0
Sc88 Sc 0.18565 0.85349 0.30513 0.0
Sc89 Sc 0.14511 0.79462 0.31428 0.0
Sc90 Sc 0.20279 0.80748 0.35831 0.0
O91 O 0.17754 0.81849 0.32597 0.0
C92 C 0.24618 0.82831 0.3187 0.0
C93 C 0.17089 0.81397 0.25567 0.0
C94 C 0.18721 0.74826 0.32969 0.0
C95 C 0.11868 0.85203 0.30279 0.0
C96 C 0.19944 0.87462 0.36405 0.0
C97 C 0.14631 0.79394 0.38286 0.0
O98 O 0.23098 0.84949 0.31248 0.0
O99 O 0.15108 0.80245 0.26882 0.0
O100 O 0.19702 0.76223 0.35091 0.0
O101 O 0.1417 0.86186 0.29454 0.0
O102 O 0.21182 0.85155 0.37003 0.0
O103 O 0.1366 0.78458 0.35893 0.0
O104 O 0.18251 0.87684 0.34299 0.0
O105 O 0.11727 0.82921 0.31641 0.0
O106 O 0.16891 0.80765 0.38542 0.0
O107 O 0.18873 0.83023 0.26745 0.0
O108 O 0.23685 0.80693 0.33109 0.0
O109 O 0.17122 0.75899 0.31081 0.0
Sc110 Sc 0.06181 0.61309 0.95365 0.0
Sc111 Sc 0.05506 0.58547 0.88493 0.0
Sc112 Sc 0.1053 0.55884 0.93284 0.0
O113 O 0.07391 0.58564 0.92397 0.0
C114 C 0.12609 0.61403 0.96654 0.0
C115 C 0.0615 0.65007 0.89747 0.0
C116 C 0.11908 0.57672 0.87083 0.0
C117 C 0.00372 0.59757 0.92548 0.0
C118 C 0.07657 0.55814 0.99058 0.0
C119 C 0.06161 0.52083 0.89624 0.0
O120 O 0.10335 0.62718 0.96289 0.0
O121 O 0.06345 0.62931 0.88077 0.0
O122 O 0.12683 0.57209 0.89636 0.0
O123 O 0.01894 0.60105 0.9478 0.0
O124 O 0.08682 0.54432 0.97053 0.0
O125 O 0.04658 0.54107 0.88717 0.0
O126 O 0.06737 0.58301 0.98754 0.0
O127 O 0.01382 0.59401 0.90113 0.0
O128 O 0.0845 0.5246 0.91023 0.0
O129 O 0.0569 0.64751 0.9237 0.0
O130 O 0.12961 0.58908 0.9578 0.0
O131 O 0.09353 0.57826 0.86286 0.0
Sc132 Sc 0.85892 0.69101 0.29843 0.0
Sc133 Sc 0.79872 0.6522 0.28919 0.0
Sc134 Sc 0.80822 0.69624 0.34761 0.0
O135 O 0.8216 0.68004 0.31169 0.0
C136 C 0.86994 0.68958 0.36481 0.0
C137 C 0.86002 0.62749 0.28831 0.0
C138 C 0.78911 0.63177 0.35036 0.0
C139 C 0.82315 0.68578 0.24076 0.0
C140 C 0.83854 0.74824 0.3176 0.0
C141 C 0.7525 0.69391 0.31334 0.0
O142 O 0.87715 0.697 0.3404 0.0
O143 O 0.8352 0.62766 0.2777 0.0
O144 O 0.78996 0.65663 0.36049 0.0
O145 O 0.84652 0.68692 0.25416 0.0
O146 O 0.82632 0.73744 0.33858 0.0
O147 O 0.75978 0.67217 0.29968 0.0
O148 O 0.84709 0.73365 0.29721 0.0
O149 O 0.80109 0.67777 0.25223 0.0
O150 O 0.7698 0.70899 0.32759 0.0
O151 O 0.87121 0.64859 0.30051 0.0
O152 O 0.8451 0.68357 0.37015 0.0
O153 O 0.7952 0.62595 0.32512 0.0
Sc154 Sc 0.94378 0.93008 0.88616 0.0
Sc155 Sc 0.88731 0.94786 0.92577 0.0
Sc156 Sc 0.92342 0.88631 0.94076 0.0
O157 O 0.91896 0.92191 0.91843 0.0
C158 C 0.93063 0.86587 0.87769 0.0
C159 C 0.88492 0.9434 0.85986 0.0
C160 C 0.85827 0.88892 0.93394 0.0
C161 C 0.93608 0.99033 0.90706 0.0
C162 C 0.98582 0.9021 0.9326 0.0
C163 C 0.90685 0.93293 0.98725 0.0
O164 O 0.9333 0.89039 0.86784 0.0
O165 O 0.87246 0.94139 0.88295 0.0
O166 O 0.88063 0.87516 0.93223 0.0
O167 O 0.95364 0.97128 0.90199 0.0
O168 O 0.96726 0.89429 0.94943 0.0
O169 O 0.90078 0.95244 0.96963 0.0
O170 O 0.97999 0.9132 0.90861 0.0
O171 O 0.91128 0.98465 0.91385 0.0
O172 O 0.91341 0.90814 0.97962 0.0
O173 O 0.91096 0.94708 0.85896 0.0
O174 O 0.93194 0.86053 0.90409 0.0
O175 O 0.85805 0.91537 0.93715 0.0
Sc176 Sc 0.38744 0.45183 0.41834 0.0
Sc177 Sc 0.41901 0.3908 0.4439 0.0
Sc178 Sc 0.44926 0.42829 0.39047 0.0
O179 O 0.41879 0.42433 0.41811 0.0
C180 C 0.39652 0.44206 0.35225 0.0
C181 C 0.35387 0.39693 0.43058 0.0
C182 C 0.43347 0.36496 0.38618 0.0
C183 C 0.40234 0.43899 0.4847 0.0
C184 C 0.43621 0.49278 0.40437 0.0
C185 C 0.48431 0.40617 0.44095 0.0
O186 O 0.38394 0.45357 0.37247 0.0
O187 O 0.37427 0.38639 0.44462 0.0
O188 O 0.45227 0.38358 0.38454 0.0
O189 O 0.38883 0.45164 0.46463 0.0
O190 O 0.44966 0.47358 0.39223 0.0
O191 O 0.46441 0.3898 0.44721 0.0
O192 O 0.41496 0.48765 0.41874 0.0
O193 O 0.41792 0.41785 0.4805 0.0
O194 O 0.48074 0.42658 0.42394 0.0
O195 O 0.35606 0.41924 0.41627 0.0
O196 O 0.41948 0.42927 0.35554 0.0
O197 O 0.41756 0.3639 0.40696 0.0
Sc198 Sc 0.35724 0.78505 0.70742 0.0
Sc199 Sc 0.32847 0.80832 0.64374 0.0
Sc200 Sc 0.3227 0.84915 0.70386 0.0
O201 O 0.33603 0.81434 0.6853 0.0
C202 C 0.31281 0.80495 0.75165 0.0
C203 C 0.3238 0.74616 0.66766 0.0
C204 C 0.27108 0.82779 0.66294 0.0
C205 C 0.38944 0.79155 0.64993 0.0
C206 C 0.38489 0.84079 0.73062 0.0
C207 C 0.33407 0.87512 0.64589 0.0
O208 O 0.33311 0.78944 0.74527 0.0
O209 O 0.32776 0.76258 0.64699 0.0
O210 O 0.28209 0.84518 0.68097 0.0
O211 O 0.38467 0.77727 0.6721 0.0
O212 O 0.36262 0.85528 0.7275 0.0
O213 O 0.32769 0.85248 0.63295 0.0
O214 O 0.38641 0.81536 0.72286 0.0
O215 O 0.37178 0.808 0.63841 0.0
O216 O 0.33845 0.87607 0.67242 0.0
O217 O 0.32842 0.75364 0.69313 0.0
O218 O 0.3053 0.82603 0.73713 0.0
O219 O 0.28512 0.8098 0.6497 0.0
Sc220 Sc 0.11488 0.44759 0.58059 0.0
Sc221 Sc 0.0698 0.3951 0.55373 0.0
Sc222 Sc 0.0539 0.43217 0.61512 0.0
O223 O 0.07917 0.42543 0.58261 0.0
C224 C 0.11315 0.43832 0.64632 0.0
C225 C 0.13485 0.38632 0.56418 0.0
C226 C 0.05679 0.36622 0.61224 0.0
C227 C 0.09541 0.44417 0.51588 0.0
C228 C 0.07008 0.4938 0.6001 0.0
C229 C 0.00955 0.41457 0.56479 0.0
O230 O 0.12636 0.43778 0.62366 0.0
O231 O 0.11041 0.37717 0.55902 0.0
O232 O 0.05759 0.38878 0.62674 0.0
O233 O 0.10691 0.45763 0.53656 0.0
O234 O 0.05066 0.47645 0.60527 0.0
O235 O 0.02752 0.40857 0.54677 0.0
O236 O 0.09419 0.48601 0.59295 0.0
O237 O 0.08222 0.42122 0.51898 0.0
O238 O 0.01635 0.42254 0.58989 0.0
O239 O 0.14012 0.41197 0.56951 0.0
O240 O 0.08695 0.44096 0.6465 0.0
O241 O 0.05716 0.36565 0.58536 0.0
Sc242 Sc 0.93194 0.12515 0.55691 0.0
Sc243 Sc 0.89809 0.06213 0.5648 0.0
Sc244 Sc 0.9481 0.08332 0.61558 0.0
O245 O 0.92704 0.08977 0.57881 0.0
C246 C 0.99407 0.11068 0.57486 0.0
C247 C 0.92424 0.07563 0.5096 0.0
C248 C 0.9423 0.02134 0.59735 0.0
C249 C 0.87037 0.11927 0.54361 0.0
C250 C 0.93316 0.14766 0.61996 0.0
C251 C 0.88399 0.07076 0.628 0.0
O252 O 0.97595 0.1197 0.55684 0.0
O253 O 0.92048 0.05606 0.52736 0.0
O254 O 0.9589 0.04103 0.60472 0.0
O255 O 0.88869 0.13329 0.55726 0.0
O256 O 0.93747 0.12365 0.63045 0.0
O257 O 0.8759 0.07012 0.60201 0.0
O258 O 0.93467 0.15275 0.59368 0.0
O259 O 0.87241 0.09281 0.54098 0.0
O260 O 0.90975 0.06993 0.63611 0.0
O261 O 0.92691 0.10141 0.5171 0.0
O262 O 0.9875 0.09822 0.59778 0.0
O263 O 0.91863 0.02622 0.58535 0.0
Sc264 Sc 0.71382 0.69194 0.63406 0.0
Sc265 Sc 0.65719 0.68475 0.67588 0.0
Sc266 Sc 0.71048 0.63731 0.68177 0.0
O267 O 0.6941 0.67149 0.66388 0.0
C268 C 0.72164 0.62682 0.61876 0.0
C269 C 0.65462 0.69923 0.60964 0.0
C270 C 0.64574 0.62232 0.67406 0.0
C271 C 0.68752 0.74074 0.67278 0.0
C272 C 0.76431 0.67564 0.67311 0.0
C273 C 0.68566 0.66113 0.73375 0.0
O274 O 0.72705 0.65265 0.6139 0.0
O275 O 0.64506 0.70261 0.63424 0.0
O276 O 0.66955 0.61781 0.68604 0.0
O277 O 0.70013 0.73292 0.65065 0.0
O278 O 0.75325 0.6522 0.67926 0.0
O279 O 0.66399 0.66878 0.71934 0.0
O280 O 0.7509 0.69499 0.66034 0.0
O281 O 0.67516 0.72361 0.68854 0.0
O282 O 0.70837 0.65612 0.72216 0.0
O283 O 0.67858 0.68951 0.60609 0.0
O284 O 0.71262 0.61801 0.64191 0.0
O285 O 0.63934 0.64573 0.66296 0.0
Sc286 Sc 0.68343 0.3557 0.80503 0.0
Sc287 Sc 0.64281 0.29664 0.81302 0.0
Sc288 Sc 0.69981 0.30917 0.85795 0.0
O289 O 0.67502 0.3205 0.82538 0.0
C290 C 0.74372 0.32996 0.81891 0.0
C291 C 0.66923 0.31667 0.75499 0.0
C292 C 0.68452 0.25014 0.82862 0.0
C293 C 0.61637 0.35416 0.80191 0.0
C294 C 0.69675 0.37631 0.86426 0.0
C295 C 0.64323 0.29524 0.8816 0.0
O296 O 0.72874 0.35135 0.81275 0.0
O297 O 0.64928 0.30495 0.76774 0.0
O298 O 0.69388 0.26394 0.85019 0.0
O299 O 0.6395 0.3642 0.79412 0.0
O300 O 0.70898 0.35314 0.87016 0.0
O301 O 0.63393 0.28596 0.85748 0.0
O302 O 0.67999 0.37872 0.84307 0.0
O303 O 0.61485 0.33115 0.8152 0.0
O304 O 0.66554 0.30938 0.88452 0.0
O305 O 0.68686 0.33288 0.76716 0.0
O306 O 0.73413 0.30862 0.83115 0.0
O307 O 0.66911 0.26116 0.80944 0.0
Sc308 Sc 0.56598 0.11395 0.45071 0.0
Sc309 Sc 0.55895 0.08529 0.38273 0.0
Sc310 Sc 0.61132 0.06179 0.42923 0.0
O311 O 0.57857 0.0869 0.42114 0.0
C312 C 0.62998 0.11724 0.4636 0.0
C313 C 0.56414 0.15004 0.39393 0.0
C314 C 0.62282 0.07901 0.36725 0.0
C315 C 0.50802 0.09728 0.42358 0.0
C316 C 0.58303 0.05912 0.48697 0.0
C317 C 0.56868 0.02181 0.39393 0.0
O318 O 0.60705 0.12986 0.45921 0.0
O319 O 0.56681 0.12915 0.37747 0.0
O320 O 0.63159 0.0773 0.39287 0.0
O321 O 0.52343 0.10035 0.44581 0.0
O322 O 0.59338 0.0457 0.46664 0.0
O323 O 0.55122 0.0409 0.38724 0.0
O324 O 0.57329 0.08385 0.48434 0.0
O325 O 0.51796 0.09412 0.39913 0.0
O326 O 0.59256 0.02717 0.4053 0.0
O327 O 0.55939 0.14766 0.42018 0.0
O328 O 0.63417 0.09233 0.45513 0.0
O329 O 0.59704 0.07742 0.36008 0.0
Sc330 Sc 0.3569 0.19229 0.79708 0.0
Sc331 Sc 0.29689 0.15284 0.7898 0.0
Sc332 Sc 0.3077 0.19736 0.84777 0.0
O333 O 0.32007 0.18105 0.81147 0.0
C334 C 0.36988 0.19207 0.86308 0.0
C335 C 0.35842 0.12859 0.78845 0.0
C336 C 0.28873 0.13288 0.85164 0.0
C337 C 0.32053 0.1848 0.73995 0.0
C338 C 0.33613 0.24943 0.81578 0.0
C339 C 0.25111 0.19476 0.81446 0.0
O340 O 0.3761 0.19966 0.83842 0.0
O341 O 0.33337 0.12825 0.77846 0.0
O342 O 0.2903 0.15769 0.86185 0.0
O343 O 0.34393 0.18683 0.75316 0.0
O344 O 0.32496 0.23871 0.83746 0.0
O345 O 0.25814 0.17314 0.80043 0.0
O346 O 0.34421 0.23469 0.79527 0.0
O347 O 0.29862 0.1774 0.75204 0.0
O348 O 0.26854 0.20947 0.82896 0.0
O349 O 0.36975 0.15006 0.79983 0.0
O350 O 0.34543 0.18532 0.86919 0.0
O351 O 0.29379 0.1271 0.82613 0.0
C352 C 0.97846 0.26561 0.97198 0.0
C353 C 0.0551 0.26465 0.9352 0.0
C354 C 0.00944 0.32177 0.84908 0.0
Mg355 Mg 0.00387 0.22967 0.92479 0.0
O356 O 0.98632 0.25649 0.90227 0.0
Mg357 Mg 0.99598 0.29678 0.91128 0.0
Mg358 Mg 0.99634 0.25504 0.86187 0.0
O359 O 0.00572 0.25368 0.82164 0.0
Mg360 Mg 0.99158 0.28152 0.79771 0.0
Mg361 Mg 0.99577 0.21354 0.81257 0.0
C362 C 0.98357 0.18889 0.87534 0.0
C363 C 0.05125 0.21657 0.85367 0.0
O364 O 0.97953 0.28757 0.95618 0.0
O365 O 0.9862 0.24136 0.96376 0.0
O366 O 0.03962 0.28625 0.93183 0.0
O367 O 0.04656 0.24025 0.92815 0.0
O368 O 0.99233 0.19239 0.90108 0.0
O369 O 0.97984 0.20955 0.85809 0.0
C370 C 0.94131 0.29372 0.8676 0.0
O371 O 0.95363 0.27447 0.85388 0.0
O372 O 0.95258 0.30521 0.88992 0.0
O373 O 0.01463 0.22144 0.76845 0.0
O374 O 0.01425 0.26846 0.76232 0.0
O375 O 0.95314 0.2256 0.79203 0.0
C376 C 0.02022 0.2436 0.75431 0.0
O377 O 0.94922 0.27195 0.78671 0.0
O378 O 0.00203 0.31876 0.82282 0.0
C379 C 0.93945 0.2472 0.7836 0.0
O380 O 0.01205 0.3006 0.86581 0.0
O381 O 0.04038 0.23596 0.86859 0.0
O382 O 0.03797 0.20489 0.83278 0.0
C383 C 0.47766 0.76679 0.47063 0.0
C384 C 0.55548 0.76347 0.43651 0.0
C385 C 0.51824 0.82256 0.3494 0.0
Mg386 Mg 0.50325 0.73038 0.42388 0.0
O387 O 0.48771 0.75807 0.40102 0.0
Mg388 Mg 0.49827 0.79794 0.41096 0.0
Mg389 Mg 0.49913 0.75672 0.36098 0.0
O390 O 0.51012 0.75546 0.32118 0.0
Mg391 Mg 0.50008 0.78442 0.29668 0.0
Mg392 Mg 0.49884 0.716 0.31109 0.0
C393 C 0.48324 0.69109 0.37308 0.0
C394 C 0.55314 0.71665 0.35389 0.0
O395 O 0.48016 0.78887 0.45524 0.0
O396 O 0.4846 0.74232 0.46227 0.0
O397 O 0.54099 0.78572 0.43268 0.0
O398 O 0.54618 0.73942 0.42914 0.0
O399 O 0.49093 0.69391 0.39922 0.0
O400 O 0.48133 0.71203 0.35596 0.0
C401 C 0.44483 0.79661 0.36553 0.0
O402 O 0.4573 0.77742 0.35187 0.0
O403 O 0.45561 0.80757 0.38836 0.0
O404 O 0.51933 0.72309 0.26752 0.0
O405 O 0.52369 0.76998 0.26255 0.0
O406 O 0.45754 0.73091 0.28974 0.0
C407 C 0.52765 0.74482 0.25418 0.0
O408 O 0.45756 0.77743 0.2835 0.0
O409 O 0.51355 0.82035 0.32255 0.0
C410 C 0.44585 0.75346 0.2807 0.0
O411 O 0.51591 0.80154 0.36614 0.0
O412 O 0.54235 0.73614 0.36878 0.0
O413 O 0.54008 0.70552 0.33252 0.0
C414 C 0.97707 0.73974 0.54038 0.0
C415 C 0.06046 0.7524 0.56488 0.0
C416 C 0.03811 0.69351 0.65781 0.0
Mg417 Mg 0.00756 0.78248 0.58002 0.0
O418 O 0.99986 0.75528 0.60656 0.0
Mg419 Mg 0.01079 0.71546 0.59825 0.0
Mg420 Mg 0.01569 0.75895 0.64586 0.0
O421 O 0.03106 0.76162 0.6851 0.0
Mg422 Mg 0.02336 0.73206 0.70956 0.0
Mg423 Mg 0.0177 0.80027 0.69446 0.0
C424 C 0.99396 0.8231 0.6312 0.0
C425 C 0.06765 0.80282 0.6503 0.0
O426 O 0.98546 0.71998 0.55688 0.0
O427 O 0.98246 0.76568 0.5453 0.0
O428 O 0.0493 0.72938 0.57279 0.0
O429 O 0.04958 0.77616 0.56971 0.0
O430 O 0.99701 0.81925 0.6046 0.0
O431 O 0.99659 0.80298 0.64938 0.0
C432 C 0.96284 0.71614 0.64541 0.0
O433 O 0.97558 0.7368 0.6576 0.0
O434 O 0.97207 0.70439 0.62322 0.0
O435 O 0.0406 0.7942 0.73918 0.0
O436 O 0.04786 0.74769 0.74444 0.0
O437 O 0.97835 0.7831 0.71445 0.0
C438 C 0.0506 0.77306 0.75304 0.0
O439 O 0.98112 0.73684 0.72179 0.0
O440 O 0.03567 0.6956 0.68469 0.0
C441 C 0.96808 0.76002 0.72317 0.0
O442 O 0.0343 0.71468 0.64134 0.0
O443 O 0.05629 0.78254 0.63582 0.0
O444 O 0.05679 0.81281 0.67256 0.0
C445 C 0.96906 0.034 0.22839 0.0
C446 C 0.94473 0.95225 0.24941 0.0
C447 C 0.85171 0.97278 0.18541 0.0
Mg448 Mg 0.93064 0.0096 0.27311 0.0
O449 O 0.90359 0.01492 0.24468 0.0
Mg450 Mg 0.91114 0.99949 0.2063 0.0
Mg451 Mg 0.86573 0.99871 0.24923 0.0
O452 O 0.82793 0.98329 0.25338 0.0
Mg453 Mg 0.80077 0.98689 0.22449 0.0
Mg454 Mg 0.81989 0.99704 0.29232 0.0
C455 C 0.88073 0.02658 0.3116 0.0
C456 C 0.86739 0.94912 0.29625 0.0
O457 O 0.95234 0.02413 0.20899 0.0
O458 O 0.96446 0.03182 0.25482 0.0
O459 O 0.93654 0.96105 0.22481 0.0
O460 O 0.94099 0.96643 0.27182 0.0
O461 O 0.90691 0.02411 0.30819 0.0
O462 O 0.86233 0.02086 0.29192 0.0
C463 C 0.86277 0.04766 0.20198 0.0
O464 O 0.85157 0.03642 0.2234 0.0
O465 O 0.8852 0.03799 0.19183 0.0
O466 O 0.77789 0.97131 0.28765 0.0
O467 O 0.77274 0.95782 0.24192 0.0
O468 O 0.79425 0.03424 0.2759 0.0
C469 C 0.76494 0.95769 0.26751 0.0
O470 O 0.77998 0.02684 0.23084 0.0
O471 O 0.82531 0.97551 0.18764 0.0
C472 C 0.77972 0.04116 0.2538 0.0
O473 O 0.8689 0.97679 0.20656 0.0
O474 O 0.87945 0.95993 0.27506 0.0
O475 O 0.84534 0.95966 0.30611 0.0
C476 C 0.25209 0.96191 0.96605 0.0
C477 C 0.21254 0.9378 0.03834 0.0
C478 C 0.18162 0.84515 0.98256 0.0
Mg479 Mg 0.26736 0.92182 0.01631 0.0
O480 O 0.252 0.89598 0.99101 0.0
Mg481 Mg 0.21355 0.90408 0.97497 0.0
Mg482 Mg 0.24663 0.85706 0.00504 0.0
O483 O 0.24111 0.81809 0.01727 0.0
Mg484 Mg 0.22317 0.79408 0.99113 0.0
Mg485 Mg 0.28006 0.8092 0.03073 0.0
C486 C 0.31018 0.87202 0.02754 0.0
C487 C 0.25001 0.85214 0.07339 0.0
O488 O 0.23216 0.94534 0.95796 0.0
O489 O 0.26817 0.95688 0.9877 0.0
O490 O 0.20183 0.93109 0.014 0.0
O491 O 0.23673 0.92961 0.04623 0.0
O492 O 0.30374 0.89803 0.02951 0.0
O493 O 0.29351 0.85371 0.0159 0.0
C494 C 0.24234 0.85578 0.93659 0.0
O495 O 0.25217 0.84477 0.95945 0.0
O496 O 0.22708 0.87777 0.93678 0.0
O497 O 0.26234 0.76537 0.04425 0.0
O498 O 0.22119 0.76023 0.02001 0.0
O499 O 0.29066 0.78693 0.98933 0.0
C500 C 0.23972 0.75177 0.03818 0.0
O501 O 0.25272 0.7793 0.96156 0.0
O502 O 0.18626 0.81889 0.97883 0.0
C503 C 0.27871 0.77625 0.96709 0.0
O504 O 0.20009 0.86158 0.99389 0.0
O505 O 0.24042 0.86681 0.0524 0.0
O506 O 0.26591 0.831 0.06998 0.0
C507 C 0.03349 0.52339 0.26552 0.0
C508 C 0.06295 0.44163 0.26535 0.0
C509 C 0.1545 0.48104 0.31903 0.0
Mg510 Mg 0.07457 0.49118 0.22833 0.0
O511 O 0.10007 0.507 0.25418 0.0
Mg512 Mg 0.0936 0.49943 0.29525 0.0
Mg513 Mg 0.13918 0.49373 0.25193 0.0
O514 O 0.17805 0.4812 0.25001 0.0
Mg515 Mg 0.20454 0.49213 0.27775 0.0
Mg516 Mg 0.18495 0.48973 0.20933 0.0
C517 C 0.12243 0.50539 0.18609 0.0
C518 C 0.14208 0.43758 0.21247 0.0
O519 O 0.05039 0.52049 0.28713 0.0
O520 O 0.03902 0.51445 0.24076 0.0
O521 O 0.07001 0.45735 0.28644 0.0
O522 O 0.06753 0.44881 0.24004 0.0
O523 O 0.0971 0.49881 0.19047 0.0
O524 O 0.14078 0.50922 0.20628 0.0
C525 C 0.13903 0.55049 0.29059 0.0
O526 O 0.15061 0.53667 0.27096 0.0
O527 O 0.11738 0.54115 0.3026 0.0
O528 O 0.22792 0.46753 0.21692 0.0
O529 O 0.23497 0.46321 0.26428 0.0
O530 O 0.20779 0.53097 0.21997 0.0
C531 C 0.24178 0.45833 0.23879 0.0
O532 O 0.22134 0.53237 0.26576 0.0
O533 O 0.1805 0.48609 0.31606 0.0
C534 C 0.22103 0.54273 0.24083 0.0
O535 O 0.13727 0.47903 0.29768 0.0
O536 O 0.12911 0.44944 0.23259 0.0
O537 O 0.16273 0.4492 0.20097 0.0
C538 C 0.77045 0.54545 0.04017 0.0
C539 C 0.74618 0.55868 0.95407 0.0
C540 C 0.80836 0.65344 0.96386 0.0
Mg541 Mg 0.72407 0.58045 0.00971 0.0
O542 O 0.75127 0.60787 0.00988 0.0
Mg543 Mg 0.78923 0.59784 0.99717 0.0
Mg544 Mg 0.74573 0.64437 0.98994 0.0
O545 O 0.74164 0.68134 0.97153 0.0
Mg546 Mg 0.77113 0.70669 0.9769 0.0
Mg547 Mg 0.7041 0.69251 0.98461 0.0
C548 C 0.68578 0.63362 0.02116 0.0
C549 C 0.69888 0.64151 0.93865 0.0
O550 O 0.78859 0.5602 0.02769 0.0
O551 O 0.7443 0.55001 0.0371 0.0
O552 O 0.77042 0.56789 0.96183 0.0
O553 O 0.7246 0.56412 0.96787 0.0
O554 O 0.69016 0.60708 0.02248 0.0
O555 O 0.70373 0.65083 0.01114 0.0
C556 C 0.79293 0.65143 0.04006 0.0
O557 O 0.77119 0.66132 0.02729 0.0
O558 O 0.80393 0.6282 0.03259 0.0
O559 O 0.70961 0.73363 0.95657 0.0
O560 O 0.75523 0.73605 0.94736 0.0
O561 O 0.72161 0.71924 0.02153 0.0
C562 C 0.73034 0.7451 0.94439 0.0
O563 O 0.76675 0.72857 0.01694 0.0
O564 O 0.8065 0.68027 0.96576 0.0
C565 C 0.74411 0.73152 0.0299 0.0
O566 O 0.7877 0.63728 0.96907 0.0
O567 O 0.71943 0.62871 0.95109 0.0
O568 O 0.68981 0.66504 0.94766 0.0
C569 C 0.27772 0.04526 0.53803 0.0
C570 C 0.25019 0.05684 0.45243 0.0
C571 C 0.3119 0.15282 0.45961 0.0
Mg572 Mg 0.22965 0.07869 0.50944 0.0
O573 O 0.25593 0.10661 0.50641 0.0
Mg574 Mg 0.29378 0.09708 0.49323 0.0
Mg575 Mg 0.24959 0.14301 0.48659 0.0
O576 O 0.24496 0.17986 0.4681 0.0
Mg577 Mg 0.27414 0.20579 0.47156 0.0
Mg578 Mg 0.20768 0.19074 0.48175 0.0
C579 C 0.19041 0.13159 0.51969 0.0
C580 C 0.20231 0.1399 0.43573 0.0
O581 O 0.29447 0.0592 0.52304 0.0
O582 O 0.25163 0.05036 0.538 0.0
O583 O 0.27438 0.06733 0.45819 0.0
O584 O 0.22957 0.06076 0.46814 0.0
O585 O 0.19564 0.10528 0.52208 0.0
O586 O 0.2075 0.14879 0.50816 0.0
C587 C 0.29681 0.15011 0.53696 0.0
O588 O 0.27513 0.15993 0.52397 0.0
O589 O 0.30821 0.12715 0.52923 0.0
O590 O 0.21292 0.23255 0.45437 0.0
O591 O 0.25753 0.23455 0.44164 0.0
O592 O 0.22575 0.21695 0.51845 0.0
C593 C 0.2328 0.24418 0.44093 0.0
O594 O 0.27017 0.22803 0.51143 0.0
O595 O 0.30973 0.17965 0.46068 0.0
C596 C 0.24818 0.22999 0.52563 0.0
O597 O 0.29148 0.13661 0.46546 0.0
O598 O 0.22307 0.1272 0.44795 0.0
O599 O 0.19319 0.16339 0.44481 0.0
C600 C 0.46788 0.53378 0.72357 0.0
C601 C 0.44221 0.45309 0.74646 0.0
C602 C 0.34777 0.47945 0.68356 0.0
Mg603 Mg 0.42973 0.51108 0.76957 0.0
O604 O 0.40229 0.51643 0.74156 0.0
Mg605 Mg 0.40859 0.50035 0.70311 0.0
Mg606 Mg 0.36419 0.50137 0.74727 0.0
O607 O 0.32592 0.48747 0.75253 0.0
Mg608 Mg 0.29848 0.49487 0.72468 0.0
Mg609 Mg 0.31947 0.50001 0.79233 0.0
C610 C 0.38126 0.52938 0.80941 0.0
C611 C 0.36604 0.45101 0.79359 0.0
O612 O 0.45063 0.52406 0.70453 0.0
O613 O 0.4636 0.53211 0.75011 0.0
O614 O 0.43365 0.46161 0.72185 0.0
O615 O 0.43913 0.46769 0.76872 0.0
O616 O 0.40728 0.52668 0.80519 0.0
O617 O 0.36227 0.52344 0.79039 0.0
C618 C 0.3616 0.54981 0.69923 0.0
O619 O 0.35077 0.53955 0.72139 0.0
O620 O 0.38326 0.53903 0.68846 0.0
O621 O 0.2774 0.47403 0.78819 0.0
O622 O 0.26996 0.46595 0.74128 0.0
O623 O 0.29348 0.53811 0.7788 0.0
C624 C 0.26369 0.46257 0.76714 0.0
O625 O 0.27902 0.53488 0.73344 0.0
O626 O 0.322 0.48536 0.68674 0.0
C627 C 0.27899 0.54716 0.75754 0.0
O628 O 0.36553 0.47912 0.70461 0.0
O629 O 0.37767 0.46194 0.77224 0.0
O630 O 0.34465 0.46193 0.80434 0.0
C631 C 0.75233 0.46053 0.46364 0.0
C632 C 0.71558 0.43921 0.53838 0.0
C633 C 0.68043 0.34498 0.48705 0.0
Mg634 Mg 0.76911 0.42164 0.51426 0.0
O635 O 0.75215 0.39533 0.49052 0.0
Mg636 Mg 0.71337 0.40375 0.47574 0.0
Mg637 Mg 0.74673 0.35694 0.50582 0.0
O638 O 0.74133 0.3185 0.51964 0.0
Mg639 Mg 0.72166 0.29347 0.49619 0.0
Mg640 Mg 0.78038 0.30939 0.53239 0.0
C641 C 0.81131 0.37158 0.52592 0.0
C642 C 0.75173 0.35404 0.57431 0.0
O643 O 0.7318 0.44417 0.45697 0.0
O644 O 0.76931 0.45577 0.48464 0.0
O645 O 0.70362 0.43195 0.51476 0.0
O646 O 0.74005 0.43108 0.54524 0.0
O647 O 0.80557 0.3978 0.52696 0.0
O648 O 0.79386 0.35321 0.51566 0.0
C649 C 0.74029 0.35424 0.43743 0.0
O650 O 0.75074 0.34337 0.46014 0.0
O651 O 0.72536 0.37646 0.43786 0.0
O652 O 0.76282 0.26613 0.54795 0.0
O653 O 0.72008 0.26145 0.52704 0.0
O654 O 0.78926 0.28565 0.49132 0.0
C655 C 0.73958 0.25297 0.54405 0.0
O656 O 0.74985 0.27635 0.46631 0.0
O657 O 0.68462 0.31844 0.48519 0.0
C658 C 0.77611 0.27374 0.47042 0.0
O659 O 0.69984 0.36181 0.49587 0.0
O660 O 0.7419 0.36813 0.55301 0.0
O661 O 0.76744 0.33268 0.57131 0.0
C662 C 0.53195 0.02579 0.76221 0.0
C663 C 0.56032 0.9437 0.76422 0.0
C664 C 0.65215 0.98255 0.81722 0.0
Mg665 Mg 0.57278 0.99219 0.72595 0.0
O666 O 0.59826 0.0084 0.75161 0.0
Mg667 Mg 0.59161 0.00181 0.7928 0.0
Mg668 Mg 0.63724 0.99472 0.74979 0.0
O669 O 0.67592 0.98176 0.74816 0.0
Mg670 Mg 0.7025 0.99243 0.77587 0.0
Mg671 Mg 0.68303 0.98906 0.70724 0.0
C672 C 0.62105 0.00509 0.68366 0.0
C673 C 0.63942 0.93763 0.71153 0.0
O674 O 0.5487 0.02317 0.78399 0.0
O675 O 0.53752 0.01625 0.73769 0.0
O676 O 0.56762 0.95984 0.7849 0.0
O677 O 0.56488 0.95021 0.73871 0.0
O678 O 0.59567 0.99865 0.68801 0.0
O679 O 0.63926 0.00937 0.70387 0.0
C680 C 0.6376 0.05229 0.7873 0.0
O681 O 0.6491 0.03796 0.76799 0.0
O682 O 0.61581 0.04342 0.79938 0.0
O683 O 0.72507 0.96552 0.71501 0.0
O684 O 0.73177 0.9623 0.76253 0.0
O685 O 0.70727 0.02985 0.71715 0.0
C686 C 0.73836 0.95634 0.73719 0.0
O687 O 0.72068 0.03176 0.763 0.0
O688 O 0.67827 0.98713 0.81435 0.0
C689 C 0.72092 0.04152 0.73783 0.0
O690 O 0.63501 0.9809 0.79577 0.0
O691 O 0.6267 0.95002 0.73149 0.0
O692 O 0.66001 0.94888 0.6996 0.0
C693 C 0.48001 0.24172 0.03693 0.0
C694 C 0.56227 0.25328 0.06513 0.0
C695 C 0.53065 0.19572 0.15739 0.0
Mg696 Mg 0.50939 0.28452 0.07748 0.0
O697 O 0.49971 0.25773 0.10377 0.0
Mg698 Mg 0.51052 0.21761 0.09666 0.0
Mg699 Mg 0.51355 0.26169 0.14367 0.0
O700 O 0.52646 0.26461 0.18369 0.0
Mg701 Mg 0.51407 0.23618 0.20752 0.0
Mg702 Mg 0.51454 0.30414 0.19162 0.0
C703 C 0.49415 0.32627 0.12727 0.0
C704 C 0.56647 0.30404 0.14968 0.0
O705 O 0.48719 0.22207 0.05412 0.0
O706 O 0.48567 0.26764 0.04173 0.0
O707 O 0.55025 0.23061 0.0727 0.0
O708 O 0.55183 0.27733 0.06952 0.0
O709 O 0.49869 0.322 0.101 0.0
O710 O 0.49508 0.3063 0.1457 0.0
C711 C 0.46052 0.21944 0.1414 0.0
O712 O 0.47274 0.24037 0.1536 0.0
O713 O 0.47067 0.20712 0.11997 0.0
O714 O 0.53571 0.29754 0.23705 0.0
O715 O 0.53787 0.25057 0.24344 0.0
O716 O 0.47349 0.29028 0.21065 0.0
C717 C 0.54293 0.27577 0.25162 0.0
O718 O 0.47172 0.24409 0.21788 0.0
O719 O 0.52426 0.19847 0.18341 0.0
C720 C 0.46083 0.26838 0.21909 0.0
O721 O 0.53191 0.21703 0.14085 0.0
O722 O 0.55499 0.284 0.13505 0.0
O723 O 0.55509 0.31464 0.17133 0.0
H724 H 0.03001 0.31741 0.59691 0.0
H725 H 0.07456 0.25091 0.74519 0.0
H726 H 0.08482 0.35401 0.66139 0.0
H727 H 0.99539 0.23497 0.70267 0.0
H728 H 0.09093 0.27247 0.70203 0.0
H729 H 0.02863 0.27393 0.62481 0.0
C730 C 0.042 0.31611 0.61673 0.0
C731 C 0.05692 0.3394 0.6274 0.0
C732 C 0.07038 0.26314 0.70173 0.0
C733 C 0.05633 0.2899 0.65847 0.0
C734 C 0.06121 0.25051 0.72619 0.0
C735 C 0.03363 0.24149 0.72728 0.0
C736 C 0.05156 0.2671 0.67867 0.0
C737 C 0.01685 0.2418 0.70242 0.0
C738 C 0.04137 0.29135 0.63244 0.0
C739 C 0.07244 0.33671 0.6529 0.0
N740 N 0.02581 0.25527 0.67918 0.0
N741 N 0.07161 0.31245 0.66766 0.0
H742 H 0.65915 0.67976 0.5562 0.0
H743 H 0.56169 0.79612 0.4838 0.0
H744 H 0.61711 0.74267 0.60416 0.0
H745 H 0.60043 0.72904 0.43867 0.0
H746 H 0.58763 0.78219 0.527 0.0
H747 H 0.6412 0.70088 0.5126 0.0
C748 C 0.6458 0.6979 0.55755 0.0
C749 C 0.6395 0.7094 0.5839 0.0
C750 C 0.59097 0.77096 0.50749 0.0
C751 C 0.61914 0.73414 0.53371 0.0
C752 C 0.57659 0.77925 0.48265 0.0
C753 C 0.57876 0.7635 0.45768 0.0
C754 C 0.60765 0.7469 0.50716 0.0
C755 C 0.59804 0.7416 0.45755 0.0
C756 C 0.63573 0.71012 0.53257 0.0
C757 C 0.62214 0.73293 0.58431 0.0
N758 N 0.61137 0.73365 0.48203 0.0
N759 N 0.61259 0.74462 0.55951 0.0
H760 H 0.89411 0.13811 0.65774 0.0
H761 H 0.92745 0.28019 0.73776 0.0
H762 H 0.94476 0.20449 0.62522 0.0
H763 H 0.90369 0.20264 0.77699 0.0
H764 H 0.9138 0.26059 0.69158 0.0
H765 H 0.87915 0.16936 0.6949 0.0
C766 C 0.90191 0.15947 0.65833 0.0
C767 C 0.92146 0.16856 0.63907 0.0
C768 C 0.91053 0.2483 0.7104 0.0
C769 C 0.90433 0.2044 0.6816 0.0
C770 C 0.91794 0.25957 0.73693 0.0
C771 C 0.91775 0.24251 0.76117 0.0
C772 C 0.9023 0.22014 0.70843 0.0
C773 C 0.90491 0.21618 0.75872 0.0
C774 C 0.89316 0.17732 0.67941 0.0
C775 C 0.93012 0.1966 0.64009 0.0
N776 N 0.8984 0.20545 0.73266 0.0
N777 N 0.92198 0.21346 0.66157 0.0
H778 H 0.4239 0.83023 0.62895 0.0
H779 H 0.46595 0.72471 0.50756 0.0
H780 H 0.40871 0.74123 0.63181 0.0
H781 H 0.46984 0.81497 0.50116 0.0
H782 H 0.45359 0.72933 0.55682 0.0
H783 H 0.4518 0.82347 0.58752 0.0
C784 C 0.42742 0.80911 0.6214 0.0
C785 C 0.41401 0.78624 0.63352 0.0
C786 C 0.45726 0.74811 0.54468 0.0
C787 C 0.4447 0.77845 0.58556 0.0
C788 C 0.46413 0.74555 0.51645 0.0
C789 C 0.46861 0.76955 0.50001 0.0
C790 C 0.45485 0.77485 0.55666 0.0
C791 C 0.4662 0.79591 0.51285 0.0
C792 C 0.44299 0.80528 0.59756 0.0
C793 C 0.4189 0.75932 0.62303 0.0
N794 N 0.45938 0.79785 0.54039 0.0
N795 N 0.43341 0.7562 0.59914 0.0
H796 H 0.03211 0.69859 0.90579 0.0
H797 H 0.10306 0.7632 0.77299 0.0
H798 H 0.10182 0.66513 0.86252 0.0
H799 H 0.02174 0.78655 0.79905 0.0
H800 H 0.11263 0.74228 0.81938 0.0
H801 H 0.03685 0.74268 0.87925 0.0
C802 C 0.04875 0.70081 0.89119 0.0
C803 C 0.06618 0.67815 0.88568 0.0
C804 C 0.09304 0.75292 0.81544 0.0
C805 C 0.07209 0.72822 0.85598 0.0
C806 C 0.08781 0.76532 0.78911 0.0
C807 C 0.06152 0.77626 0.78223 0.0
C808 C 0.07148 0.75082 0.83452 0.0
C809 C 0.04229 0.77819 0.80366 0.0
C810 C 0.05149 0.7259 0.87615 0.0
C811 C 0.08754 0.68197 0.8668 0.0
N812 N 0.04723 0.76461 0.82862 0.0
N813 N 0.08973 0.70638 0.85246 0.0
H814 H 0.86909 0.66191 0.415 0.0
H815 H 0.97115 0.77015 0.49166 0.0
H816 H 0.91576 0.72315 0.36914 0.0
H817 H 0.94962 0.69083 0.52906 0.0
H818 H 0.94861 0.75472 0.447 0.0
H819 H 0.8975 0.67256 0.45757 0.0
C820 C 0.88563 0.67728 0.41384 0.0
C821 C 0.89 0.69191 0.38874 0.0
C822 C 0.94898 0.7407 0.465 0.0
C823 C 0.92201 0.70451 0.43719 0.0
C824 C 0.96149 0.74961 0.49051 0.0
C825 C 0.96207 0.73176 0.51401 0.0
C826 C 0.93671 0.71399 0.46327 0.0
C827 C 0.94962 0.70521 0.51138 0.0
C828 C 0.90179 0.68335 0.43808 0.0
C829 C 0.91176 0.71146 0.38817 0.0
N830 N 0.93727 0.69717 0.48645 0.0
N831 N 0.92674 0.71758 0.41228 0.0
H832 H 0.89958 0.87022 0.82907 0.0
H833 H 0.95986 0.72989 0.77102 0.0
H834 H 0.94568 0.81017 0.88001 0.0
H835 H 0.92455 0.79647 0.71988 0.0
H836 H 0.938 0.7495 0.81231 0.0
H837 H 0.89311 0.83518 0.79186 0.0
C838 C 0.90828 0.84951 0.83243 0.0
C839 C 0.92408 0.84329 0.85715 0.0
C840 C 0.93415 0.75923 0.79186 0.0
C841 C 0.91684 0.80308 0.81453 0.0
C842 C 0.94632 0.74782 0.76813 0.0
C843 C 0.94478 0.76226 0.74226 0.0
C844 C 0.92034 0.78501 0.78939 0.0
C845 C 0.92686 0.78521 0.7397 0.0
C846 C 0.90434 0.82943 0.81128 0.0
C847 C 0.93392 0.81591 0.86093 0.0
N848 N 0.91594 0.79639 0.76319 0.0
N849 N 0.93073 0.79692 0.83946 0.0
H850 H 0.14962 0.8238 0.43168 0.0
H851 H 0.06672 0.71326 0.52327 0.0
H852 H 0.11363 0.74814 0.39558 0.0
H853 H 0.10012 0.7917 0.55522 0.0
H854 H 0.0888 0.72184 0.47825 0.0
H855 H 0.1344 0.80989 0.47788 0.0
C856 C 0.13821 0.8043 0.43343 0.0
C857 C 0.13285 0.78714 0.40964 0.0
C858 C 0.09178 0.73686 0.49532 0.0
C859 C 0.11554 0.77076 0.46304 0.0
C860 C 0.07962 0.73174 0.52124 0.0
C861 C 0.08148 0.75191 0.54298 0.0
C862 C 0.10596 0.76224 0.49129 0.0
C863 C 0.09804 0.77569 0.53897 0.0
C864 C 0.12966 0.79626 0.45996 0.0
C865 C 0.11792 0.76215 0.41329 0.0
N866 N 0.10929 0.78036 0.51353 0.0
N867 N 0.10984 0.75463 0.43958 0.0
H868 H 0.67459 0.1018 0.37358 0.0
H869 H 0.72681 0.03806 0.2308 0.0
H870 H 0.61904 0.0634 0.31087 0.0
H871 H 0.77839 0.08572 0.29017 0.0
H872 H 0.68566 0.05469 0.2543 0.0
H873 H 0.71099 0.10262 0.33933 0.0
C874 C 0.66998 0.09367 0.35248 0.0
C875 C 0.64381 0.0821 0.34526 0.0
C876 C 0.70591 0.06226 0.26164 0.0
C877 C 0.68575 0.08277 0.3057 0.0
C878 C 0.72948 0.05312 0.2479 0.0
C879 C 0.75619 0.06025 0.25874 0.0
C880 C 0.70913 0.07864 0.28634 0.0
C881 C 0.75825 0.07947 0.28127 0.0
C882 C 0.6908 0.09428 0.33282 0.0
C883 C 0.63897 0.07234 0.31741 0.0
N884 N 0.73512 0.08748 0.29468 0.0
N885 N 0.65989 0.07243 0.29878 0.0
H886 H 0.26335 0.08458 0.83451 0.0
H887 H 0.28333 0.00766 0.98254 0.0
H888 H 0.29519 0.1276 0.90951 0.0
H889 H 0.23003 0.97624 0.91386 0.0
H890 H 0.28989 0.05095 0.95603 0.0
H891 H 0.25267 0.04402 0.8632 0.0
C892 C 0.26801 0.08551 0.85711 0.0
C893 C 0.28037 0.1094 0.86966 0.0
C894 C 0.27667 0.03462 0.94688 0.0
C895 C 0.2683 0.06285 0.90265 0.0
C896 C 0.27305 0.00981 0.96187 0.0
C897 C 0.25626 0.98818 0.95029 0.0
C898 C 0.26367 0.03765 0.92 0.0
C899 C 0.24322 0.99229 0.92359 0.0
C900 C 0.26179 0.06236 0.87349 0.0
C901 C 0.28565 0.10957 0.89906 0.0
N902 N 0.24736 0.01647 0.90927 0.0
N903 N 0.27986 0.08643 0.91459 0.0
H904 H 0.37616 0.48694 0.32321 0.0
H905 H 0.26063 0.40749 0.25626 0.0
H906 H 0.38513 0.39727 0.31801 0.0
H907 H 0.28594 0.48452 0.2174 0.0
H908 H 0.30864 0.3995 0.27269 0.0
H909 H 0.34617 0.48571 0.28022 0.0
C910 C 0.37223 0.46709 0.31255 0.0
C911 C 0.38276 0.44216 0.32404 0.0
C912 C 0.30401 0.41749 0.25941 0.0
C913 C 0.3482 0.44041 0.27551 0.0
C914 C 0.27665 0.4219 0.24988 0.0
C915 C 0.26953 0.44673 0.23571 0.0
C916 C 0.32382 0.4387 0.25571 0.0
C917 C 0.29079 0.46509 0.2283 0.0
C918 C 0.35539 0.46637 0.28793 0.0
C919 C 0.37729 0.4169 0.3096 0.0
N920 N 0.31693 0.4613 0.23939 0.0
N921 N 0.35963 0.41652 0.28646 0.0
H922 H 0.74569 0.38866 0.894 0.0
H923 H 0.70218 0.54858 0.91768 0.0
H924 H 0.66686 0.42428 0.86698 0.0
H925 H 0.78261 0.51645 0.94395 0.0
H926 H 0.69114 0.50387 0.89473 0.0
H927 H 0.76084 0.43517 0.91119 0.0
C928 C 0.73143 0.4061 0.89215 0.0
C929 C 0.70495 0.40257 0.87912 0.0
C930 C 0.71142 0.50663 0.90508 0.0
C931 C 0.72233 0.45577 0.89794 0.0
C932 C 0.71783 0.53231 0.91787 0.0
C933 C 0.74328 0.53615 0.93276 0.0
C934 C 0.73044 0.48442 0.90756 0.0
C935 C 0.7628 0.51437 0.93249 0.0
C936 C 0.74021 0.4327 0.90157 0.0
C937 C 0.68748 0.42601 0.87682 0.0
N938 N 0.75578 0.48919 0.92055 0.0
N939 N 0.6965 0.45151 0.88603 0.0
H940 H 0.61638 0.90208 0.18555 0.0
H941 H 0.72287 0.99022 0.28353 0.0
H942 H 0.63931 0.98828 0.1719 0.0
H943 H 0.7414 0.90685 0.25477 0.0
H944 H 0.67611 0.9857 0.26191 0.0
H945 H 0.6476 0.90133 0.22817 0.0
C946 C 0.62751 0.92099 0.19196 0.0
C947 C 0.62572 0.9452 0.17523 0.0
C948 C 0.68997 0.96788 0.26163 0.0
C949 C 0.66019 0.94475 0.224 0.0
C950 C 0.71649 0.97022 0.2744 0.0
C951 C 0.73601 0.94893 0.27064 0.0
C952 C 0.68294 0.94383 0.24573 0.0
C953 C 0.72688 0.92372 0.258 0.0
C954 C 0.64512 0.92054 0.21618 0.0
C955 C 0.64049 0.96916 0.18418 0.0
N956 N 0.70109 0.92205 0.24536 0.0
N957 N 0.65719 0.96833 0.20799 0.0
H958 H 0.18674 0.11469 0.07073 0.0
H959 H 0.22295 0.95393 0.09309 0.0
H960 H 0.25679 0.0839 0.12062 0.0
H961 H 0.18175 0.98085 0.01515 0.0
H962 H 0.22542 0.00261 0.10885 0.0
H963 H 0.17877 0.06703 0.05173 0.0
C964 C 0.20125 0.09819 0.07653 0.0
C965 C 0.22275 0.10316 0.09685 0.0
C966 C 0.21543 0.9978 0.08847 0.0
C967 C 0.21264 0.0488 0.077 0.0
C968 C 0.21351 0.96996 0.07971 0.0
C969 C 0.20267 0.96333 0.05253 0.0
C970 C 0.20622 0.01916 0.07006 0.0
C971 C 0.19051 0.98501 0.0362 0.0
C972 C 0.1963 0.07096 0.06625 0.0
C973 C 0.2403 0.08093 0.10463 0.0
N974 N 0.1931 0.01215 0.04498 0.0
N975 N 0.23455 0.05463 0.09513 0.0
H976 H 0.38384 0.56317 0.18573 0.0
H977 H 0.22034 0.5809 0.19783 0.0
H978 H 0.32697 0.59035 0.11854 0.0
H979 H 0.27318 0.54743 0.26519 0.0
H980 H 0.26151 0.59619 0.17363 0.0
H981 H 0.34589 0.5664 0.21896 0.0
C982 C 0.36351 0.56993 0.17799 0.0
C983 C 0.35848 0.57582 0.14914 0.0
C984 C 0.26419 0.58611 0.19405 0.0
C985 C 0.31524 0.58013 0.18703 0.0
C986 C 0.2406 0.57777 0.20808 0.0
C987 C 0.24329 0.5625 0.23334 0.0
C988 C 0.29068 0.57872 0.20512 0.0
C989 C 0.27011 0.55904 0.24567 0.0
C990 C 0.3419 0.57191 0.19697 0.0
C991 C 0.33177 0.58488 0.1404 0.0
N992 N 0.29282 0.56632 0.23105 0.0
N993 N 0.31126 0.58656 0.15915 0.0
H994 H 0.85538 0.42389 0.14866 0.0
H995 H 0.74136 0.49778 0.05082 0.0
H996 H 0.79842 0.37762 0.09308 0.0
H997 H 0.82156 0.53686 0.06606 0.0
H998 H 0.75904 0.45519 0.07366 0.0
H999 H 0.84141 0.46727 0.12422 0.0
C1000 C 0.84029 0.42279 0.13108 0.0
C1001 C 0.828 0.39712 0.12293 0.0
C1002 C 0.77271 0.47315 0.07204 0.0
C1003 C 0.81149 0.44647 0.09569 0.0
C1004 C 0.76257 0.49753 0.05931 0.0
C1005 C 0.78005 0.52084 0.05655 0.0
C1006 C 0.80033 0.47226 0.08254 0.0
C1007 C 0.80747 0.51926 0.06769 0.0
C1008 C 0.83232 0.4475 0.11725 0.0
C1009 C 0.80852 0.39689 0.10004 0.0
N1010 N 0.81678 0.49536 0.08038 0.0
N1011 N 0.80054 0.42125 0.08752 0.0
H1012 H 0.34825 0.60938 0.98794 0.0
H1013 H 0.33442 0.76716 0.96304 0.0
H1014 H 0.34097 0.66964 0.05547 0.0
H1015 H 0.25464 0.72763 0.94722 0.0
H1016 H 0.35432 0.7212 0.9737 0.0
H1017 H 0.32729 0.64388 0.9545 0.0
C1018 C 0.34132 0.62938 0.9959 0.0
C1019 C 0.34625 0.63674 0.02452 0.0
C1020 C 0.33275 0.72253 0.96647 0.0
C1021 C 0.32364 0.67598 0.98662 0.0
C1022 C 0.32141 0.74872 0.96009 0.0
C1023 C 0.29261 0.75141 0.95537 0.0
C1024 C 0.31521 0.69907 0.96771 0.0
C1025 C 0.27685 0.72664 0.95152 0.0
C1026 C 0.32982 0.64906 0.97678 0.0
C1027 C 0.33758 0.66317 0.03362 0.0
N1028 N 0.28807 0.70149 0.95913 0.0
N1029 N 0.32712 0.68196 0.01466 0.0
H1030 H 0.32945 0.37285 0.47543 0.0
H1031 H 0.24493 0.26589 0.38955 0.0
H1032 H 0.31744 0.38649 0.38568 0.0
H1033 H 0.22068 0.28895 0.47314 0.0
H1034 H 0.26739 0.31168 0.38498 0.0
H1035 H 0.28785 0.3432 0.47443 0.0
C1036 C 0.31779 0.36985 0.45557 0.0
C1037 C 0.32691 0.38196 0.43058 0.0
C1038 C 0.25612 0.30724 0.40384 0.0
C1039 C 0.27958 0.34764 0.42913 0.0
C1040 C 0.24288 0.28125 0.40626 0.0
C1041 C 0.2309 0.27361 0.43175 0.0
C1042 C 0.25805 0.32524 0.42741 0.0
C1043 C 0.22948 0.29407 0.45304 0.0
C1044 C 0.29393 0.35312 0.45503 0.0
C1045 C 0.31101 0.37752 0.4054 0.0
N1046 N 0.24387 0.31853 0.45087 0.0
N1047 N 0.28847 0.36012 0.40516 0.0
H1048 H 0.60703 0.392 0.7588 0.0
H1049 H 0.44809 0.41578 0.78983 0.0
H1050 H 0.56502 0.34668 0.82357 0.0
H1051 H 0.48335 0.43948 0.71092 0.0
H1052 H 0.49008 0.38915 0.80206 0.0
H1053 H 0.56215 0.41064 0.74157 0.0
C1054 C 0.58845 0.38621 0.7696 0.0
C1055 C 0.58988 0.36788 0.79281 0.0
C1056 C 0.48843 0.39962 0.78177 0.0
C1057 C 0.53839 0.38883 0.77293 0.0
C1058 C 0.4643 0.41453 0.77463 0.0
C1059 C 0.46216 0.42972 0.74925 0.0
C1060 C 0.5109 0.40045 0.76372 0.0
C1061 C 0.484 0.42779 0.73054 0.0
C1062 C 0.56279 0.39657 0.75952 0.0
C1063 C 0.56499 0.36078 0.80566 0.0
N1064 N 0.50772 0.41395 0.73841 0.0
N1065 N 0.54037 0.37137 0.79566 0.0
H1066 H 0.68685 0.1099 0.46614 0.0
H1067 H 0.70194 0.23198 0.57958 0.0
H1068 H 0.62075 0.15439 0.50556 0.0
H1069 H 0.76815 0.20815 0.52608 0.0
H1070 H 0.67775 0.18841 0.56725 0.0
H1071 H 0.72057 0.13348 0.49888 0.0
C1072 C 0.67946 0.12451 0.4817 0.0
C1073 C 0.65108 0.13088 0.4826 0.0
C1074 C 0.69808 0.19213 0.55898 0.0
C1075 C 0.68912 0.15677 0.52064 0.0
C1076 C 0.71219 0.21673 0.5666 0.0
C1077 C 0.73661 0.22388 0.5532 0.0
C1078 C 0.70841 0.17504 0.53754 0.0
C1079 C 0.74904 0.20346 0.53648 0.0
C1080 C 0.69862 0.1377 0.50049 0.0
C1081 C 0.6425 0.14951 0.50349 0.0
N1082 N 0.73421 0.18039 0.52803 0.0
N1083 N 0.66141 0.16182 0.52153 0.0
H1084 H 0.87156 0.5987 0.23996 0.0
H1085 H 0.01041 0.53915 0.3152 0.0
H1086 H 0.89073 0.60269 0.32972 0.0
H1087 H 0.99294 0.53485 0.22491 0.0
H1088 H 0.96389 0.55747 0.32127 0.0
H1089 H 0.91227 0.56854 0.23443 0.0
C1090 C 0.88378 0.59234 0.25856 0.0
C1091 C 0.87805 0.60309 0.28528 0.0
C1092 C 0.97019 0.55244 0.30012 0.0
C1093 C 0.92472 0.56965 0.27919 0.0
C1094 C 0.99688 0.54218 0.29662 0.0
C1095 C 0.00578 0.53571 0.26949 0.0
C1096 C 0.95223 0.55644 0.27631 0.0
C1097 C 0.9871 0.53974 0.24624 0.0
C1098 C 0.90717 0.5755 0.25541 0.0
C1099 C 0.89467 0.5948 0.30874 0.0
N1100 N 0.96127 0.54998 0.25017 0.0
N1101 N 0.91746 0.57887 0.30512 0.0
H1102 H 0.19029 0.39373 0.55328 0.0
H1103 H 0.21865 0.23029 0.57356 0.0
H1104 H 0.13129 0.3319 0.58004 0.0
H1105 H 0.26886 0.28307 0.52202 0.0
H1106 H 0.19594 0.27198 0.59157 0.0
H1107 H 0.22654 0.35738 0.55456 0.0
C1108 C 0.18505 0.37263 0.55965 0.0
C1109 C 0.15764 0.36563 0.56593 0.0
C1110 C 0.21251 0.27455 0.57696 0.0
C1111 C 0.19892 0.32445 0.56829 0.0
C1112 C 0.22577 0.25076 0.56701 0.0
C1113 C 0.24526 0.25323 0.54591 0.0
C1114 C 0.21861 0.30089 0.56545 0.0
C1115 C 0.25379 0.28026 0.53819 0.0
C1116 C 0.20571 0.35199 0.56049 0.0
C1117 C 0.15199 0.33808 0.57435 0.0
N1118 N 0.2398 0.30309 0.5473 0.0
N1119 N 0.17237 0.31856 0.57518 0.0
H1120 H 0.6396 0.58467 0.71691 0.0
H1121 H 0.48195 0.54947 0.67027 0.0
H1122 H 0.59952 0.61516 0.63979 0.0
H1123 H 0.51513 0.54311 0.75626 0.0
H1124 H 0.52738 0.56564 0.65559 0.0
H1125 H 0.59677 0.55973 0.7277 0.0
C1126 C 0.62204 0.5855 0.7019 0.0
C1127 C 0.62292 0.60218 0.67757 0.0
C1128 C 0.52466 0.56068 0.67765 0.0
C1129 C 0.574 0.57419 0.68994 0.0
C1130 C 0.49874 0.55155 0.68608 0.0
C1131 C 0.49466 0.54519 0.71459 0.0
C1132 C 0.54671 0.56314 0.69782 0.0
C1133 C 0.51722 0.54812 0.73412 0.0
C1134 C 0.59754 0.57156 0.70822 0.0
C1135 C 0.59953 0.60275 0.65894 0.0
N1136 N 0.54231 0.55684 0.72535 0.0
N1137 N 0.57591 0.58915 0.66562 0.0
H1138 H 0.39307 0.89247 0.75682 0.0
H1139 H 0.55345 0.89402 0.73591 0.0
H1140 H 0.43689 0.81865 0.73026 0.0
H1141 H 0.51794 0.94522 0.80043 0.0
H1142 H 0.51067 0.86612 0.73301 0.0
H1143 H 0.43798 0.91359 0.77195 0.0
C1144 C 0.41196 0.88063 0.75438 0.0
C1145 C 0.41108 0.85381 0.74207 0.0
C1146 C 0.51249 0.88305 0.74831 0.0
C1147 C 0.46226 0.87782 0.75904 0.0
C1148 C 0.53698 0.89877 0.75011 0.0
C1149 C 0.53927 0.92178 0.76854 0.0
C1150 C 0.48986 0.89098 0.76439 0.0
C1151 C 0.51712 0.9274 0.78618 0.0
C1152 C 0.43752 0.8926 0.76315 0.0
C1153 C 0.43633 0.8394 0.73953 0.0
N1154 N 0.49303 0.91254 0.78319 0.0
N1155 N 0.46079 0.85171 0.74755 0.0
H1156 H 0.59169 0.85465 0.15629 0.0
H1157 H 0.50205 0.73356 0.20344 0.0
H1158 H 0.53289 0.81564 0.0973 0.0
H1159 H 0.58162 0.75302 0.24342 0.0
H1160 H 0.51734 0.75461 0.15956 0.0
H1161 H 0.59289 0.81191 0.18433 0.0
C1162 C 0.57913 0.83686 0.14926 0.0
C1163 C 0.56167 0.83864 0.12502 0.0
C1164 C 0.53199 0.75311 0.17746 0.0
C1165 C 0.56257 0.78975 0.15703 0.0
C1166 C 0.52336 0.74074 0.2024 0.0
C1167 C 0.5406 0.74198 0.22693 0.0
C1168 C 0.5577 0.76714 0.17765 0.0
C1169 C 0.56776 0.75193 0.22484 0.0
C1170 C 0.58003 0.81233 0.16503 0.0
C1171 C 0.54627 0.81498 0.11624 0.0
N1172 N 0.57526 0.76492 0.20083 0.0
N1173 N 0.54648 0.79162 0.13271 0.0
H1174 H 0.11499 0.24286 0.10425 0.0
H1175 H 0.10222 0.23337 0.93548 0.0
H1176 H 0.15718 0.18239 0.05335 0.0
H1177 H 0.05973 0.29584 0.98345 0.0
H1178 H 0.12851 0.21986 0.97839 0.0
H1179 H 0.09723 0.26555 0.06055 0.0
C1180 C 0.12013 0.23411 0.08395 0.0
C1181 C 0.13746 0.21062 0.08244 0.0
C1182 C 0.1139 0.23698 0.97951 0.0
C1183 C 0.11804 0.23685 0.0326 0.0
C1184 C 0.09927 0.24501 0.95486 0.0
C1185 C 0.07864 0.26554 0.95599 0.0
C1186 C 0.10751 0.24928 0.00553 0.0
C1187 C 0.0755 0.27989 0.98167 0.0
C1188 C 0.11038 0.2473 0.05905 0.0
C1189 C 0.14391 0.20046 0.05557 0.0
N1190 N 0.08924 0.27098 0.00565 0.0
N1191 N 0.13425 0.21362 0.03183 0.0
H1192 H 0.39125 0.6442 0.15954 0.0
H1193 H 0.43644 0.78581 0.23387 0.0
H1194 H 0.44178 0.70765 0.12174 0.0
H1195 H 0.40606 0.71239 0.27598 0.0
H1196 H 0.41973 0.76631 0.18858 0.0
H1197 H 0.37932 0.67727 0.19639 0.0
C1198 C 0.39965 0.6653 0.15892 0.0
C1199 C 0.41828 0.67304 0.1382 0.0
C1200 C 0.41575 0.75497 0.20783 0.0
C1201 C 0.40478 0.71095 0.18046 0.0
C1202 C 0.42493 0.76625 0.23385 0.0
C1203 C 0.42359 0.7501 0.25862 0.0
C1204 C 0.4048 0.72769 0.20688 0.0
C1205 C 0.40821 0.72512 0.25726 0.0
C1206 C 0.39265 0.6842 0.17983 0.0
C1207 C 0.4278 0.7008 0.13773 0.0
N1208 N 0.4001 0.71426 0.23167 0.0
N1209 N 0.42147 0.71866 0.15907 0.0
H1210 H 0.92136 0.32901 0.12861 0.0
H1211 H 0.96933 0.22358 0.0098 0.0
H1212 H 0.90887 0.23964 0.13235 0.0
H1213 H 0.96887 0.3138 0.00183 0.0
H1214 H 0.95666 0.22835 0.05898 0.0
H1215 H 0.95057 0.32265 0.08809 0.0
C1216 C 0.92574 0.30793 0.12146 0.0
C1217 C 0.91275 0.28479 0.13352 0.0
C1218 C 0.95949 0.24709 0.0465 0.0
C1219 C 0.94492 0.27741 0.0866 0.0
C1220 C 0.96654 0.24443 0.01834 0.0
C1221 C 0.96979 0.26836 0.00148 0.0
C1222 C 0.95568 0.27385 0.05797 0.0
C1223 C 0.96618 0.29477 0.01386 0.0
C1224 C 0.94207 0.30432 0.09815 0.0
C1225 C 0.91873 0.25793 0.12357 0.0
N1226 N 0.95919 0.29679 0.04133 0.0
N1227 N 0.93396 0.25497 0.10015 0.0
H1228 H 0.60445 0.16638 0.35949 0.0
H1229 H 0.51567 0.28807 0.29894 0.0
H1230 H 0.53272 0.19731 0.4012 0.0
H1231 H 0.596 0.2659 0.26934 0.0
H1232 H 0.52747 0.26555 0.34419 0.0
H1233 H 0.60763 0.21048 0.33405 0.0
C1234 C 0.58949 0.18271 0.36342 0.0
C1235 C 0.56792 0.17812 0.38186 0.0
C1236 C 0.54307 0.26667 0.32835 0.0
C1237 C 0.57097 0.22858 0.35239 0.0
C1238 C 0.53648 0.27998 0.30266 0.0
C1239 C 0.55485 0.2785 0.28044 0.0
C1240 C 0.56799 0.25155 0.33136 0.0
C1241 C 0.58128 0.26732 0.28602 0.0
C1242 C 0.5914 0.20801 0.34907 0.0
C1243 C 0.54943 0.20005 0.38679 0.0
N1244 N 0.5868 0.25353 0.31066 0.0
N1245 N 0.55092 0.22416 0.37152 0.0
H1246 H 0.37203 0.16324 0.91259 0.0
H1247 H 0.47362 0.27259 0.98837 0.0
H1248 H 0.41436 0.22753 0.86651 0.0
H1249 H 0.45428 0.19209 0.02461 0.0
H1250 H 0.45077 0.25746 0.94373 0.0
H1251 H 0.40189 0.17361 0.95418 0.0
C1252 C 0.38791 0.17927 0.91118 0.0
C1253 C 0.39067 0.19476 0.88633 0.0
C1254 C 0.45175 0.24311 0.96146 0.0
C1255 C 0.42438 0.20706 0.9337 0.0
C1256 C 0.46447 0.25182 0.98696 0.0
C1257 C 0.46562 0.23363 0.01021 0.0
C1258 C 0.43986 0.21623 0.95948 0.0
C1259 C 0.4538 0.20681 0.0072 0.0
C1260 C 0.40493 0.18517 0.93484 0.0
C1261 C 0.41164 0.21515 0.88537 0.0
N1262 N 0.44123 0.19899 0.98232 0.0
N1263 N 0.42748 0.22109 0.90899 0.0
H1264 H 0.43751 0.38082 0.33203 0.0
H1265 H 0.44756 0.23781 0.26554 0.0
H1266 H 0.41545 0.30964 0.38269 0.0
H1267 H 0.42264 0.31053 0.21706 0.0
H1268 H 0.42902 0.25936 0.3077 0.0
H1269 H 0.4283 0.35348 0.28955 0.0
C1270 C 0.43075 0.35928 0.3342 0.0
C1271 C 0.42768 0.34732 0.36094 0.0
C1272 C 0.42646 0.27006 0.28759 0.0
C1273 C 0.41723 0.31552 0.31197 0.0
C1274 C 0.43684 0.25765 0.26335 0.0
C1275 C 0.43766 0.273 0.23804 0.0
C1276 C 0.41705 0.29782 0.28618 0.0
C1277 C 0.42325 0.29843 0.23643 0.0
C1278 C 0.42507 0.34374 0.30984 0.0
C1279 C 0.41835 0.31946 0.3624 0.0
N1280 N 0.41437 0.31052 0.26043 0.0
N1281 N 0.41412 0.30414 0.33814 0.0
H1282 H 0.61157 0.24841 0.8932 0.0
H1283 H 0.60429 0.2904 0.057 0.0
H1284 H 0.64612 0.32385 0.93121 0.0
H1285 H 0.56625 0.21519 0.02233 0.0
H1286 H 0.62564 0.29871 0.01187 0.0
H1287 H 0.59728 0.23337 0.94031 0.0
C1288 C 0.61571 0.26199 0.91129 0.0
C1289 C 0.62999 0.28744 0.90824 0.0
C1290 C 0.61306 0.28006 0.01419 0.0
C1291 C 0.61457 0.27009 0.96206 0.0
C1292 C 0.60126 0.27509 0.04016 0.0
C1293 C 0.58339 0.25217 0.04338 0.0
C1294 C 0.60662 0.26222 0.99108 0.0
C1295 C 0.58002 0.23307 0.02078 0.0
C1296 C 0.60795 0.25323 0.93821 0.0
C1297 C 0.63525 0.304 0.93251 0.0
N1298 N 0.591 0.23884 0.99532 0.0
N1299 N 0.62765 0.29502 0.95825 0.0
H1300 H 0.17192 0.5953 0.88135 0.0
H1301 H 0.22641 0.54767 0.73325 0.0
H1302 H 0.11655 0.56745 0.81291 0.0
H1303 H 0.2775 0.58706 0.79906 0.0
H1304 H 0.18498 0.56212 0.75769 0.0
H1305 H 0.20943 0.59842 0.84857 0.0
C1306 C 0.16761 0.58989 0.85932 0.0
C1307 C 0.14109 0.58065 0.85 0.0
C1308 C 0.20522 0.56837 0.76635 0.0
C1309 C 0.18436 0.58406 0.81203 0.0
C1310 C 0.22897 0.5605 0.75213 0.0
C1311 C 0.25558 0.56583 0.76431 0.0
C1312 C 0.20816 0.58164 0.7929 0.0
C1313 C 0.25745 0.58222 0.78904 0.0
C1314 C 0.18908 0.59186 0.8405 0.0
C1315 C 0.13671 0.57448 0.82106 0.0
N1316 N 0.23414 0.58897 0.8028 0.0
N1317 N 0.15825 0.57583 0.80318 0.0
H1318 H 0.79284 0.62817 0.40834 0.0
H1319 H 0.72988 0.47305 0.41114 0.0
H1320 H 0.76639 0.58205 0.33321 0.0
H1321 H 0.78272 0.50704 0.4789 0.0
H1322 H 0.7361 0.5163 0.38449 0.0
H1323 H 0.78185 0.58704 0.43701 0.0
C1324 C 0.78448 0.60953 0.39795 0.0
C1325 C 0.78074 0.60835 0.3684 0.0
C1326 C 0.74631 0.51423 0.40521 0.0
C1327 C 0.76812 0.56163 0.40083 0.0
C1328 C 0.74276 0.4896 0.42042 0.0
C1329 C 0.75601 0.48635 0.44714 0.0
C1330 C 0.76294 0.53587 0.41697 0.0
C1331 C 0.7724 0.50853 0.4582 0.0
C1332 C 0.77838 0.58609 0.41424 0.0
C1333 C 0.76991 0.5837 0.35592 0.0
N1334 N 0.77537 0.53241 0.44306 0.0
N1335 N 0.76399 0.56131 0.37221 0.0
H1336 H 0.84504 0.90427 0.85109 0.0
H1337 H 0.78592 0.97797 0.71794 0.0
H1338 H 0.89017 0.96856 0.80814 0.0
H1339 H 0.75088 0.90342 0.75344 0.0
H1340 H 0.83102 0.96596 0.73986 0.0
H1341 H 0.81718 0.8956 0.80796 0.0
C1342 C 0.8489 0.91669 0.83247 0.0
C1343 C 0.86905 0.93791 0.83331 0.0
C1344 C 0.81384 0.95148 0.74183 0.0
C1345 C 0.83721 0.92825 0.78376 0.0
C1346 C 0.78818 0.95814 0.72891 0.0
C1347 C 0.76477 0.94192 0.73461 0.0
C1348 C 0.81555 0.92874 0.76067 0.0
C1349 C 0.76853 0.91663 0.74907 0.0
C1350 C 0.8333 0.91147 0.80768 0.0
C1351 C 0.87419 0.95255 0.80839 0.0
N1352 N 0.79332 0.91119 0.7624 0.0
N1353 N 0.85781 0.94797 0.78472 0.0
H1354 H 0.24894 0.88742 0.39239 0.0
H1355 H 0.20479 0.04666 0.41804 0.0
H1356 H 0.16926 0.92235 0.36726 0.0
H1357 H 0.28675 0.01561 0.43979 0.0
H1358 H 0.19332 0.002 0.39514 0.0
H1359 H 0.26422 0.93413 0.40882 0.0
C1360 C 0.23453 0.90476 0.39081 0.0
C1361 C 0.20776 0.90099 0.37855 0.0
C1362 C 0.21401 0.00501 0.40445 0.0
C1363 C 0.22526 0.95439 0.39648 0.0
C1364 C 0.22064 0.03066 0.41719 0.0
C1365 C 0.24669 0.03472 0.43082 0.0
C1366 C 0.23343 0.98309 0.40578 0.0
C1367 C 0.26648 0.01332 0.42929 0.0
C1368 C 0.24337 0.93147 0.39978 0.0
C1369 C 0.1901 0.92428 0.37654 0.0
N1370 N 0.25927 0.98814 0.41749 0.0
N1371 N 0.19917 0.9499 0.38532 0.0
H1372 H 0.15473 0.40159 0.65694 0.0
H1373 H 0.21631 0.48721 0.7831 0.0
H1374 H 0.10759 0.4662 0.69682 0.0
H1375 H 0.24973 0.40854 0.75587 0.0
H1376 H 0.17133 0.47428 0.76104 0.0
H1377 H 0.18484 0.39844 0.69936 0.0
C1378 C 0.15067 0.41501 0.67484 0.0
C1379 C 0.12911 0.43459 0.67327 0.0
C1380 C 0.18808 0.45922 0.76097 0.0
C1381 C 0.16378 0.43149 0.72195 0.0
C1382 C 0.21368 0.4664 0.77407 0.0
C1383 C 0.23675 0.44901 0.77091 0.0
C1384 C 0.18594 0.43464 0.74452 0.0
C1385 C 0.23241 0.42257 0.75855 0.0
C1386 C 0.1677 0.41306 0.69921 0.0
C1387 C 0.12428 0.45106 0.6972 0.0
N1388 N 0.20774 0.41653 0.74501 0.0
N1389 N 0.14196 0.44966 0.72038 0.0
H1390 H 0.68828 0.61568 0.57229 0.0
H1391 H 0.72836 0.45574 0.59254 0.0
H1392 H 0.76022 0.58643 0.62024 0.0
H1393 H 0.68412 0.48224 0.51612 0.0
H1394 H 0.7311 0.50446 0.60815 0.0
H1395 H 0.68131 0.56811 0.5528 0.0
C1396 C 0.70342 0.59958 0.57751 0.0
C1397 C 0.72516 0.60495 0.59744 0.0
C1398 C 0.72042 0.49956 0.58814 0.0
C1399 C 0.71622 0.55058 0.57706 0.0
C1400 C 0.71834 0.47169 0.57949 0.0
C1401 C 0.70642 0.46491 0.55278 0.0
C1402 C 0.71026 0.52083 0.57011 0.0
C1403 C 0.69362 0.4865 0.53683 0.0
C1404 C 0.69906 0.57237 0.56696 0.0
C1405 C 0.74353 0.58318 0.60451 0.0
N1406 N 0.6963 0.51367 0.54552 0.0
N1407 N 0.73834 0.55684 0.59479 0.0
H1408 H 0.88589 0.05823 0.68547 0.0
H1409 H 0.72224 0.07847 0.69379 0.0
H1410 H 0.8318 0.09068 0.61845 0.0
H1411 H 0.77298 0.04493 0.76274 0.0
H1412 H 0.76424 0.09298 0.67058 0.0
H1413 H 0.84702 0.06091 0.71774 0.0
C1414 C 0.866 0.06608 0.67759 0.0
C1415 C 0.86198 0.07356 0.64901 0.0
C1416 C 0.76629 0.08303 0.69112 0.0
C1417 C 0.81767 0.07714 0.68577 0.0
C1418 C 0.74221 0.07511 0.70456 0.0
C1419 C 0.74403 0.06022 0.7301 0.0
C1420 C 0.79246 0.07554 0.70299 0.0
C1421 C 0.77055 0.05635 0.74304 0.0
C1422 C 0.84385 0.0677 0.69601 0.0
C1423 C 0.83581 0.08394 0.64007 0.0
N1424 N 0.79376 0.06324 0.72899 0.0
N1425 N 0.81477 0.08521 0.65824 0.0
H1426 H 0.32478 0.92677 0.66815 0.0
H1427 H 0.32004 0.01101 0.52428 0.0
H1428 H 0.33723 0.88445 0.58874 0.0
H1429 H 0.26081 0.02547 0.58886 0.0
H1430 H 0.33769 0.97031 0.55088 0.0
H1431 H 0.31332 0.96961 0.6422 0.0
C1432 C 0.3257 0.9266 0.64529 0.0
C1433 C 0.33184 0.90193 0.63052 0.0
C1434 C 0.32095 0.98256 0.5592 0.0
C1435 C 0.31883 0.95088 0.60097 0.0
C1436 C 0.31097 0.00576 0.54421 0.0
C1437 C 0.28895 0.0215 0.55449 0.0
C1438 C 0.3093 0.97561 0.58493 0.0
C1439 C 0.27772 0.01374 0.58022 0.0
C1440 C 0.3189 0.95099 0.63057 0.0
C1441 C 0.33246 0.90297 0.60089 0.0
N1442 N 0.2882 0.99138 0.59475 0.0
N1443 N 0.326 0.92714 0.58699 0.0
H1444 H 0.84639 0.10673 0.49089 0.0
H1445 H 0.83143 0.26526 0.46306 0.0
H1446 H 0.84944 0.16995 0.55649 0.0
H1447 H 0.75178 0.22387 0.45455 0.0
H1448 H 0.85297 0.22001 0.47352 0.0
H1449 H 0.8229 0.14084 0.45867 0.0
C1450 C 0.84139 0.12738 0.49876 0.0
C1451 C 0.8499 0.1356 0.5264 0.0
C1452 C 0.83095 0.22073 0.46794 0.0
C1453 C 0.8245 0.17436 0.48969 0.0
C1454 C 0.81866 0.24651 0.46168 0.0
C1455 C 0.78964 0.24855 0.45896 0.0
C1456 C 0.81413 0.19698 0.47109 0.0
C1457 C 0.77419 0.2234 0.45716 0.0
C1458 C 0.82842 0.1468 0.48029 0.0
C1459 C 0.84343 0.16277 0.53535 0.0
N1460 N 0.78646 0.19867 0.46455 0.0
N1461 N 0.83155 0.18126 0.51694 0.0
H1462 H 0.80856 0.89961 0.95878 0.0
H1463 H 0.74244 0.76033 0.89109 0.0
H1464 H 0.84722 0.8437 0.90041 0.0
H1465 H 0.71785 0.79353 0.97103 0.0
H1466 H 0.76823 0.80348 0.88278 0.0
H1467 H 0.76556 0.87147 0.95376 0.0
C1468 C 0.80788 0.88163 0.94472 0.0
C1469 C 0.83161 0.87355 0.93046 0.0
C1470 C 0.7563 0.80183 0.90167 0.0
C1471 C 0.78253 0.84212 0.92388 0.0
C1472 C 0.74102 0.77745 0.90609 0.0
C1473 C 0.72835 0.77323 0.93195 0.0
C1474 C 0.75893 0.822 0.92333 0.0
C1475 C 0.72744 0.79597 0.95083 0.0
C1476 C 0.78338 0.86573 0.94178 0.0
C1477 C 0.82961 0.85027 0.9123 0.0
N1478 N 0.74345 0.81908 0.94667 0.0
N1479 N 0.80559 0.83539 0.9096 0.0
H1480 H 0.10908 0.88964 0.25958 0.0
H1481 H 0.95109 0.91524 0.29302 0.0
H1482 H 0.06759 0.84493 0.32513 0.0
H1483 H 0.9854 0.93826 0.21342 0.0
H1484 H 0.99291 0.88815 0.30465 0.0
H1485 H 0.06418 0.90862 0.24292 0.0
C1486 C 0.09061 0.88404 0.27066 0.0
C1487 C 0.09218 0.8658 0.29393 0.0
C1488 C 0.99108 0.89859 0.28435 0.0
C1489 C 0.04069 0.88714 0.27472 0.0
C1490 C 0.96706 0.9138 0.27757 0.0
C1491 C 0.96473 0.92893 0.25217 0.0
C1492 C 0.01324 0.89907 0.26592 0.0
C1493 C 0.98622 0.92667 0.2331 0.0
C1494 C 0.06494 0.89459 0.2609 0.0
C1495 C 0.06744 0.85895 0.30716 0.0
N1496 N 0.00986 0.91254 0.24062 0.0
N1497 N 0.0428 0.86973 0.29748 0.0
H1498 H 0.18294 0.6071 0.96593 0.0
H1499 H 0.20263 0.73224 0.07495 0.0
H1500 H 0.11871 0.65017 0.00973 0.0
H1501 H 0.26635 0.70611 0.01943 0.0
H1502 H 0.17815 0.68813 0.06572 0.0
H1503 H 0.21807 0.63144 0.99646 0.0
C1504 C 0.17628 0.6215 0.98205 0.0
C1505 C 0.14798 0.62737 0.98475 0.0
C1506 C 0.19803 0.69149 0.05631 0.0
C1507 C 0.18766 0.65424 0.02018 0.0
C1508 C 0.21228 0.71644 0.06212 0.0
C1509 C 0.23618 0.72286 0.04753 0.0
C1510 C 0.2075 0.67342 0.03524 0.0
C1511 C 0.24776 0.70187 0.03088 0.0
C1512 C 0.19624 0.63515 -0.00043 0.0
C1513 C 0.14034 0.64573 0.00628 0.0
N1514 N 0.23273 0.67842 0.0242 0.0
N1515 N 0.16003 0.65859 0.02298 0.0
H1516 H 0.38851 0.10345 0.83009 0.0
H1517 H 0.49133 0.03586 0.72129 0.0
H1518 H 0.37096 0.10066 0.74003 0.0
H1519 H 0.50896 0.04336 0.81135 0.0
H1520 H 0.4448 0.05403 0.72796 0.0
H1521 H 0.42901 0.07389 0.82406 0.0
C1522 C 0.39281 0.09577 0.8091 0.0
C1523 C 0.37654 0.1043 0.7855 0.0
C1524 C 0.45883 0.05161 0.74625 0.0
C1525 C 0.42342 0.07157 0.77821 0.0
C1526 C 0.48551 0.04141 0.74248 0.0
C1527 C 0.50427 0.03829 0.76579 0.0
C1528 C 0.45079 0.05874 0.77353 0.0
C1529 C 0.49538 0.04564 0.79271 0.0
C1530 C 0.41607 0.07919 0.80561 0.0
C1531 C 0.38296 0.0942 0.75872 0.0
N1532 N 0.46932 0.05557 0.79581 0.0
N1533 N 0.4063 0.07869 0.7557 0.0
H1534 H 0.69266 0.89884 0.05411 0.0
H1535 H 0.712 0.73407 0.076 0.0
H1536 H 0.6322 0.8417 0.08657 0.0
H1537 H 0.76678 0.78387 0.0264 0.0
H1538 H 0.69138 0.777 0.0937 0.0
H1539 H 0.72705 0.86049 0.05536 0.0
C1540 C 0.68683 0.87841 0.06193 0.0
C1541 C 0.65951 0.87317 0.06973 0.0
C1542 C 0.70843 0.77865 0.07953 0.0
C1543 C 0.69849 0.8297 0.07175 0.0
C1544 C 0.72048 0.7541 0.06976 0.0
C1545 C 0.74092 0.75538 0.0495 0.0
C1546 C 0.7165 0.8047 0.06856 0.0
C1547 C 0.75105 0.78193 0.04204 0.0
C1548 C 0.70637 0.85659 0.06265 0.0
C1549 C 0.65292 0.84643 0.07982 0.0
N1550 N 0.7382 0.80559 0.05093 0.0
N1551 N 0.67215 0.82576 0.08038 0.0
H1552 H 0.09955 0.11308 0.13842 0.0
H1553 H 0.0155 0.04511 0.26186 0.0
H1554 H 0.13825 0.08798 0.21821 0.0
H1555 H 0.98357 0.04932 0.17526 0.0
H1556 H 0.06053 0.06147 0.24643 0.0
H1557 H 0.05719 0.08863 0.15091 0.0
C1558 C 0.09927 0.10186 0.15832 0.0
C1559 C 0.12226 0.10263 0.17742 0.0
C1560 C 0.04367 0.05871 0.23083 0.0
C1561 C 0.07378 0.07536 0.19217 0.0
C1562 C 0.01787 0.04969 0.23965 0.0
C1563 C 0.99568 0.04601 0.21984 0.0
C1564 C 0.0472 0.06434 0.20206 0.0
C1565 C 1.00007 0.05193 0.19128 0.0
C1566 C 0.07508 0.08803 0.16549 0.0
C1567 C 0.12095 0.08777 0.20288 0.0
N1568 N 0.0253 0.06093 0.18327 0.0
N1569 N 0.09685 0.07512 0.20978 0.0
H1570 H 0.89506 0.39347 0.25458 0.0
H1571 H 0.05616 0.39273 0.2357 0.0
H1572 H 0.93768 0.32054 0.22405 0.0
H1573 H 0.02019 0.44244 0.3011 0.0
H1574 H 0.01288 0.36581 0.23082 0.0
H1575 H 0.9403 0.41328 0.27059 0.0
C1576 C 0.91379 0.38161 0.25135 0.0
C1577 C 0.91249 0.35535 0.2379 0.0
C1578 C 0.01469 0.38216 0.24674 0.0
C1579 C 0.96403 0.3778 0.25595 0.0
C1580 C 0.03947 0.3973 0.2497 0.0
C1581 C 0.04178 0.41968 0.26891 0.0
C1582 C 0.99183 0.39007 0.26249 0.0
C1583 C 0.01936 0.4251 0.28625 0.0
C1584 C 0.93953 0.39278 0.26067 0.0
C1585 C 0.93751 0.34083 0.23437 0.0
N1586 N 0.99502 0.41086 0.28215 0.0
N1587 N 0.96216 0.35236 0.24303 0.0
H1588 H 0.22748 0.23998 0.8402 0.0
H1589 H 0.0772 0.16839 0.83954 0.0
H1590 H 0.20664 0.16115 0.79932 0.0
H1591 H 0.09353 0.25146 0.87261 0.0
H1592 H 0.12627 0.16342 0.83023 0.0
H1593 H 0.17959 0.24387 0.85484 0.0
C1594 C 0.21278 0.22368 0.8339 0.0
C1595 C 0.22123 0.20015 0.81846 0.0
C1596 C 0.11928 0.18263 0.83984 0.0
C1597 C 0.16646 0.20425 0.83581 0.0
C1598 C 0.09129 0.18536 0.84548 0.0
C1599 C 0.08124 0.21051 0.85656 0.0
C1600 C 0.13743 0.20527 0.84518 0.0
C1601 C 0.10042 0.23173 0.86402 0.0
C1602 C 0.18548 0.22582 0.84252 0.0
C1603 C 0.20117 0.17972 0.81104 0.0
N1604 N 0.12761 0.22881 0.85778 0.0
N1605 N 0.17483 0.18216 0.81995 0.0
H1606 H 0.40485 0.53981 0.41224 0.0
H1607 H 0.51791 0.64825 0.36207 0.0
H1608 H 0.48388 0.51324 0.38179 0.0
H1609 H 0.43154 0.66904 0.36833 0.0
H1610 H 0.50617 0.5985 0.36713 0.0
H1611 H 0.41499 0.58753 0.39706 0.0
C1612 C 0.4245 0.54403 0.40271 0.0
C1613 C 0.4436 0.5224 0.39849 0.0
C1614 C 0.48964 0.61382 0.36655 0.0
C1615 C 0.45515 0.5771 0.38058 0.0
C1616 C 0.49629 0.64213 0.36318 0.0
C1617 C 0.47554 0.66255 0.36416 0.0
C1618 C 0.46213 0.60609 0.37176 0.0
C1619 C 0.44799 0.65378 0.3668 0.0
C1620 C 0.43011 0.57125 0.39367 0.0
C1621 C 0.46856 0.5292 0.38559 0.0
N1622 N 0.44212 0.62622 0.37103 0.0
N1623 N 0.47365 0.55594 0.37722 0.0
H1624 H 0.77555 0.29065 0.79508 0.0
H1625 H 0.91168 0.34056 0.88238 0.0
H1626 H 0.78039 0.36971 0.83929 0.0
H1627 H 0.90701 0.26722 0.8287 0.0
H1628 H 0.86512 0.354 0.86444 0.0
H1629 H 0.82552 0.28489 0.80294 0.0
C1630 C 0.78741 0.30721 0.80572 0.0
C1631 C 0.77402 0.33076 0.81635 0.0
C1632 C 0.87448 0.33514 0.85639 0.0
C1633 C 0.83106 0.3238 0.82671 0.0
C1634 C 0.90097 0.32734 0.86678 0.0
C1635 C 0.91334 0.30269 0.85706 0.0
C1636 C 0.86023 0.31804 0.83632 0.0
C1637 C 0.89853 0.28651 0.83666 0.0
C1638 C 0.8159 0.30383 0.81048 0.0
C1639 C 0.79014 0.35145 0.83041 0.0
N1640 N 0.8728 0.29437 0.82715 0.0
N1641 N 0.81782 0.34725 0.83568 0.0
H1642 H 0.60382 0.97916 0.38215 0.0
H1643 H 0.49361 0.85493 0.3895 0.0
H1644 H 0.51721 0.99661 0.39372 0.0
H1645 H 0.56168 0.85339 0.33307 0.0
H1646 H 0.50562 0.90401 0.40184 0.0
H1647 H 0.59213 0.92973 0.37425 0.0
C1648 C 0.58233 0.97257 0.38308 0.0
C1649 C 0.56141 0.99205 0.38839 0.0
C1650 C 0.51801 0.89271 0.38699 0.0
C1651 C 0.54805 0.93541 0.38 0.0
C1652 C 0.51137 0.86477 0.38022 0.0
C1653 C 0.52685 0.85027 0.36042 0.0
C1654 C 0.54061 0.90572 0.37432 0.0
C1655 C 0.54936 0.86395 0.34851 0.0
C1656 C 0.57571 0.9444 0.37856 0.0
C1657 C 0.5339 0.98231 0.38936 0.0
N1658 N 0.55568 0.89084 0.35575 0.0
N1659 N 0.528 0.95457 0.3854 0.0
H1660 H 0.24177 0.79655 0.6234 0.0
H1661 H 0.09423 0.84965 0.67093 0.0
H1662 H 0.23101 0.86014 0.6873 0.0
H1663 H 0.10553 0.7786 0.61579 0.0
H1664 H 0.14371 0.85989 0.66967 0.0
H1665 H 0.19188 0.79543 0.61411 0.0
C1666 C 0.22897 0.8104 0.6355 0.0
C1667 C 0.24073 0.82824 0.65652 0.0
C1668 C 0.13533 0.84229 0.65755 0.0
C1669 C 0.18322 0.82703 0.6457 0.0
C1670 C 0.10703 0.83644 0.65814 0.0
C1671 C 0.09579 0.81282 0.64394 0.0
C1672 C 0.1526 0.82438 0.64268 0.0
C1673 C 0.11332 0.79682 0.62732 0.0
C1674 C 0.2004 0.80976 0.63004 0.0
C1675 C 0.22292 0.84588 0.67111 0.0
N1676 N 0.14098 0.80265 0.62752 0.0
N1677 N 0.19501 0.84466 0.66557 0.0
H1678 H 0.10915 0.5332 0.61502 0.0
H1679 H 0.01047 0.66611 0.61364 0.0
H1680 H 0.02105 0.52377 0.59743 0.0
H1681 H 0.07762 0.65638 0.67573 0.0
H1682 H 0.01801 0.61783 0.59744 0.0
H1683 H 0.10184 0.58244 0.62708 0.0
C1684 C 0.08829 0.54155 0.61329 0.0
C1685 C 0.06566 0.52423 0.60518 0.0
C1686 C 0.03119 0.62643 0.61444 0.0
C1687 C 0.0573 0.58082 0.61874 0.0
C1688 C 0.02711 0.65406 0.6235 0.0
C1689 C 0.04363 0.66537 0.6459 0.0
C1690 C 0.0524 0.6103 0.62741 0.0
C1691 C 0.06449 0.64847 0.65835 0.0
C1692 C 0.08416 0.56962 0.62037 0.0
C1693 C 0.03906 0.5363 0.60366 0.0
N1694 N 0.06845 0.6219 0.64879 0.0
N1695 N 0.03561 0.56392 0.61022 0.0
H1696 H 0.79198 0.7247 0.68375 0.0
H1697 H 0.93558 0.66611 0.63613 0.0
H1698 H 0.80541 0.63616 0.67199 0.0
H1699 H 0.92787 0.74603 0.67804 0.0
H1700 H 0.8884 0.65405 0.64959 0.0
H1701 H 0.84205 0.73259 0.68293 0.0
C1702 C 0.80556 0.70686 0.68147 0.0
C1703 C 0.79456 0.67976 0.67782 0.0
C1704 C 0.89725 0.67402 0.65624 0.0
C1705 C 0.85186 0.68869 0.67616 0.0
C1706 C 0.92411 0.68097 0.64845 0.0
C1707 C 0.93568 0.70714 0.65592 0.0
C1708 C 0.88168 0.69361 0.67112 0.0
C1709 C 0.91992 0.72554 0.67201 0.0
C1710 C 0.83414 0.71136 0.681 0.0
C1711 C 0.81307 0.65737 0.67498 0.0
N1712 N 0.89362 0.71859 0.67872 0.0
N1713 N 0.84083 0.66239 0.67367 0.0
H1714 H 0.90904 0.97434 0.59512 0.0
H1715 H 0.02892 0.86712 0.64153 0.0
H1716 H 0.99259 0.00115 0.61815 0.0
H1717 H 0.94236 0.84457 0.63494 0.0
H1718 H 0.01617 0.91667 0.63626 0.0
H1719 H 0.92098 0.92691 0.61056 0.0
C1720 C 0.92997 0.97028 0.60324 0.0
C1721 C 0.94985 0.99193 0.6051 0.0
C1722 C 0.99987 0.90101 0.63678 0.0
C1723 C 0.96365 0.93735 0.62319 0.0
C1724 C 0.00715 0.87278 0.64029 0.0
C1725 C 0.9866 0.85186 0.63946 0.0
C1726 C 0.97185 0.90827 0.63165 0.0
C1727 C 0.95875 0.86016 0.63648 0.0
C1728 C 0.93671 0.94316 0.61232 0.0
C1729 C 0.97655 0.98523 0.61616 0.0
N1730 N 0.95221 0.88762 0.63229 0.0
N1731 N 0.98269 0.95859 0.62461 0.0
H1732 H 0.7948 0.20981 0.20511 0.0
H1733 H 0.88003 0.07911 0.15719 0.0
H1734 H 0.84269 0.2103 0.12992 0.0
H1735 H 0.8169 0.07526 0.21946 0.0
H1736 H 0.86256 0.1251 0.1425 0.0
H1737 H 0.79749 0.1588 0.20614 0.0
C1738 C 0.80534 0.19903 0.18843 0.0
C1739 C 0.81879 0.21416 0.16759 0.0
C1740 C 0.85224 0.11394 0.15904 0.0
C1741 C 0.82276 0.1559 0.16907 0.0
C1742 C 0.86228 0.08772 0.16752 0.0
C1743 C 0.85029 0.07352 0.19001 0.0
C1744 C 0.83025 0.12609 0.17334 0.0
C1745 C 0.82711 0.08555 0.20234 0.0
C1746 C 0.80694 0.16992 0.18902 0.0
C1747 C 0.83206 0.19931 0.14637 0.0
N1748 N 0.81814 0.11129 0.19414 0.0
N1749 N 0.8343 0.17095 0.14802 0.0
H1750 H 0.4642 0.92725 0.09613 0.0
H1751 H 0.35078 0.85009 0.99543 0.0
H1752 H 0.4857 0.88523 0.01899 0.0
H1753 H 0.33531 0.88233 0.07849 0.0
H1754 H 0.40071 0.85886 0.00431 0.0
H1755 H 0.41685 0.91008 0.08938 0.0
C1756 C 0.45896 0.91472 0.07752 0.0
C1757 C 0.4792 0.90779 0.05811 0.0
C1758 C 0.38647 0.86329 0.02089 0.0
C1759 C 0.42459 0.88746 0.05046 0.0
C1760 C 0.35806 0.85773 0.01603 0.0
C1761 C 0.33902 0.86529 0.03639 0.0
C1762 C 0.39565 0.87668 0.04617 0.0
C1763 C 0.3494 0.876 0.06237 0.0
C1764 C 0.43186 0.90461 0.07384 0.0
C1765 C 0.47088 0.89128 0.03448 0.0
N1766 N 0.37688 0.88178 0.06634 0.0
N1767 N 0.44425 0.88166 0.03134 0.0
H1768 H 0.18453 0.28433 0.13191 0.0
H1769 H 0.13137 0.39339 0.24719 0.0
H1770 H 0.17632 0.26507 0.22037 0.0
H1771 H 0.14391 0.41481 0.16006 0.0
H1772 H 0.14151 0.34434 0.2361 0.0
H1773 H 0.16704 0.33162 0.14086 0.0
C1774 C 0.17967 0.29024 0.15329 0.0
C1775 C 0.18198 0.27076 0.17542 0.0
C1776 C 0.14151 0.35968 0.21927 0.0
C1777 C 0.16109 0.32437 0.18566 0.0
C1778 C 0.13517 0.38756 0.22552 0.0
C1779 C 0.13705 0.40809 0.20455 0.0
C1780 C 0.14975 0.35251 0.19191 0.0
C1781 C 0.14247 0.39953 0.17686 0.0
C1782 C 0.16924 0.31706 0.15833 0.0
C1783 C 0.17482 0.2794 0.20265 0.0
N1784 N 0.1491 0.37248 0.17142 0.0
N1785 N 0.1646 0.30545 0.20695 0.0
H1786 H 0.53673 0.60572 0.10889 0.0
H1787 H 0.64162 0.6571 0.99141 0.0
H1788 H 0.51027 0.63783 0.02689 0.0
H1789 H 0.66807 0.62746 0.07406 0.0
H1790 H 0.5932 0.65579 0.00608 0.0
H1791 H 0.58488 0.61717 0.09811 0.0
C1792 C 0.54095 0.61508 0.08865 0.0
C1793 C 0.51921 0.62059 0.0688 0.0
C1794 C 0.60965 0.65023 0.02127 0.0
C1795 C 0.57442 0.63407 0.05635 0.0
C1796 C 0.63731 0.65148 0.013 0.0
C1797 C 0.65883 0.64281 0.03171 0.0
C1798 C 0.60357 0.63992 0.0483 0.0
C1799 C 0.65203 0.63469 0.05915 0.0
C1800 C 0.56847 0.6218 0.08254 0.0
C1801 C 0.52615 0.63302 0.04295 0.0
N1802 N 0.62508 0.63312 0.0665 0.0
N1803 N 0.55299 0.6392 0.0375 0.0
H1804 H 0.82978 0.78777 0.35897 0.0
H1805 H 0.89801 0.9096 0.26941 0.0
H1806 H 0.86581 0.77702 0.27734 0.0
H1807 H 0.85394 0.92427 0.34581 0.0
H1808 H 0.89659 0.85939 0.27883 0.0
H1809 H 0.84582 0.8366 0.35953 0.0
C1810 C 0.84089 0.79564 0.34115 0.0
C1811 C 0.84611 0.7783 0.31794 0.0
C1812 C 0.88766 0.87363 0.29383 0.0
C1813 C 0.86507 0.83377 0.31877 0.0
C1814 C 0.8888 0.90235 0.28862 0.0
C1815 C 0.87535 0.92101 0.30641 0.0
C1816 C 0.87283 0.86368 0.31683 0.0
C1817 C 0.8639 0.91045 0.33113 0.0
C1818 C 0.85029 0.82341 0.34161 0.0
C1819 C 0.86101 0.78956 0.29561 0.0
N1820 N 0.86232 0.88239 0.33529 0.0
N1821 N 0.86985 0.81653 0.29658 0.0
H1822 H 0.02637 0.88978 0.89619 0.0
H1823 H 0.15341 0.88761 0.00755 0.0
H1824 H 0.01261 0.90037 0.98524 0.0
H1825 H 0.14676 0.82804 0.93875 0.0
H1826 H 0.10569 0.90306 0.99579 0.0
H1827 H 0.07477 0.87758 0.90779 0.0
C1828 C 0.03361 0.88985 0.91819 0.0
C1829 C 0.01542 0.89609 0.93982 0.0
C1830 C 0.11484 0.88673 0.98325 0.0
C1831 C 0.07088 0.88256 0.95306 0.0
C1832 C 0.14205 0.87807 0.98975 0.0
C1833 C 0.15399 0.85648 0.9741 0.0
C1834 C 0.09984 0.87427 0.96046 0.0
C1835 C 0.13828 0.84465 0.95141 0.0
C1836 C 0.06116 0.88275 0.92473 0.0
C1837 C 0.02592 0.89558 0.96796 0.0
N1838 N 0.11208 0.85385 0.94513 0.0
N1839 N 0.05308 0.88913 0.9738 0.0
H1840 H 0.20217 0.71803 0.28422 0.0
H1841 H 0.12826 0.58142 0.33803 0.0
H1842 H 0.17798 0.70929 0.37055 0.0
H1843 H 0.17735 0.58223 0.26356 0.0
H1844 H 0.14705 0.62765 0.35108 0.0
H1845 H 0.19548 0.66764 0.27716 0.0
C1846 C 0.19625 0.70525 0.30194 0.0
C1847 C 0.19082 0.71766 0.32805 0.0
C1848 C 0.15392 0.61755 0.33206 0.0
C1849 C 0.1819 0.66023 0.31984 0.0
C1850 C 0.14304 0.59124 0.32446 0.0
C1851 C 0.15099 0.57799 0.29948 0.0
C1852 C 0.1726 0.6309 0.31436 0.0
C1853 C 0.17049 0.59163 0.28293 0.0
C1854 C 0.19224 0.67653 0.29788 0.0
C1855 C 0.18274 0.70036 0.35023 0.0
N1856 N 0.18035 0.61744 0.29048 0.0
N1857 N 0.17796 0.67254 0.34546 0.0
H1858 H 0.96535 0.6177 0.88612 0.0
H1859 H 0.83605 0.60785 0.98707 0.0
H1860 H 0.97261 0.58508 0.9711 0.0
H1861 H 0.84308 0.67213 0.92384 0.0
H1862 H 0.88212 0.59065 0.97555 0.0
H1863 H 0.91642 0.6288 0.89368 0.0
C1864 C 0.95654 0.61234 0.90614 0.0
C1865 C 0.97317 0.60049 0.92803 0.0
C1866 C 0.87342 0.60834 0.96402 0.0
C1867 C 0.9172 0.61307 0.93675 0.0
C1868 C 0.84696 0.61802 0.97041 0.0
C1869 C 0.83551 0.64137 0.95627 0.0
C1870 C 0.88838 0.62175 0.94297 0.0
C1871 C 0.85114 0.65411 0.93532 0.0
C1872 C 0.92869 0.61891 0.91051 0.0
C1873 C 0.96063 0.59433 0.95368 0.0
N1874 N 0.87666 0.64409 0.9292 0.0
N1875 N 0.93346 0.60064 0.95732 0.0
H1876 H 0.14018 0.84037 0.21445 0.0
H1877 H 0.27507 0.83987 0.12411 0.0
H1878 H 0.20952 0.7849 0.22878 0.0
H1879 H 0.19712 0.86763 0.08613 0.0
H1880 H 0.25127 0.8269 0.16665 0.0
H1881 H 0.15884 0.8537 0.16864 0.0
C1882 C 0.15851 0.82988 0.2072 0.0
C1883 C 0.17317 0.81117 0.22504 0.0
C1884 C 0.23935 0.83611 0.14915 0.0
C1885 C 0.19543 0.82758 0.17406 0.0
C1886 C 0.25303 0.84402 0.12508 0.0
C1887 C 0.23801 0.85463 0.1015 0.0
C1888 C 0.21041 0.83891 0.14981 0.0
C1889 C 0.20947 0.85961 0.10392 0.0
C1890 C 0.16945 0.83795 0.18143 0.0
C1891 C 0.19741 0.79901 0.21535 0.0
N1892 N 0.19643 0.85135 0.1276 0.0
N1893 N 0.20807 0.80783 0.19077 0.0
H1894 H 0.14103 0.17038 0.26755 0.0
H1895 H 0.22699 0.10423 0.3988 0.0
H1896 H 0.22383 0.13623 0.26512 0.0
H1897 H 0.15415 0.15543 0.40774 0.0
H1898 H 0.21785 0.10355 0.34763 0.0
H1899 H 0.13912 0.15542 0.31716 0.0
C1900 C 0.15876 0.15984 0.27738 0.0
C1901 C 0.18279 0.15504 0.26226 0.0
C1902 C 0.20355 0.11448 0.36087 0.0
C1903 C 0.18043 0.13721 0.31844 0.0
C1904 C 0.2086 0.1146 0.39013 0.0
C1905 C 0.19185 0.13072 0.40742 0.0
C1906 C 0.18167 0.13058 0.349 0.0
C1907 C 0.16808 0.14342 0.39502 0.0
C1908 C 0.15757 0.1511 0.30556 0.0
C1909 C 0.20501 0.14088 0.27596 0.0
N1910 N 0.16403 0.14365 0.36645 0.0
N1911 N 0.20329 0.13256 0.3032 0.0
H1912 H 0.41673 0.61448 0.9646 0.0
H1913 H 0.36842 0.49578 0.85308 0.0
H1914 H 0.41088 0.52642 0.98485 0.0
H1915 H 0.38266 0.58187 0.83055 0.0
H1916 H 0.37649 0.50815 0.90311 0.0
H1917 H 0.39995 0.60394 0.91637 0.0
C1918 C 0.4124 0.59286 0.95885 0.0
C1919 C 0.41539 0.57131 0.97893 0.0
C1920 C 0.37714 0.52452 0.88732 0.0
C1921 C 0.39542 0.55922 0.92377 0.0
C1922 C 0.37195 0.51754 0.85888 0.0
C1923 C 0.37438 0.538 0.83796 0.0
C1924 C 0.38514 0.55207 0.89464 0.0
C1925 C 0.38008 0.56569 0.84627 0.0
C1926 C 0.40247 0.58691 0.93134 0.0
C1927 C 0.40904 0.54375 0.97017 0.0
N1928 N 0.38562 0.5719 0.87398 0.0
N1929 N 0.39927 0.53854 0.94331 0.0
H1930 H 0.83193 0.28544 0.30142 0.0
H1931 H 0.71459 0.3632 0.38559 0.0
H1932 H 0.76177 0.32811 0.26199 0.0
H1933 H 0.78113 0.31639 0.42673 0.0
H1934 H 0.72844 0.34501 0.34002 0.0
H1935 H 0.81032 0.29018 0.34736 0.0
C1936 C 0.81174 0.29522 0.30235 0.0
C1937 C 0.79887 0.3069 0.27803 0.0
C1938 C 0.73986 0.33843 0.35903 0.0
C1939 C 0.77427 0.31268 0.33024 0.0
C1940 C 0.73198 0.34892 0.38506 0.0
C1941 C 0.74686 0.34151 0.40998 0.0
C1942 C 0.76301 0.32068 0.35783 0.0
C1943 C 0.76905 0.32266 0.40805 0.0
C1944 C 0.79948 0.29808 0.32855 0.0
C1945 C 0.77271 0.31935 0.28035 0.0
N1946 N 0.77669 0.31316 0.38238 0.0
N1947 N 0.76147 0.32222 0.30601 0.0
H1948 H 0.06898 0.42674 0.46634 0.0
H1949 H 0.17994 0.49841 0.36894 0.0
H1950 H 0.1326 0.48371 0.49862 0.0
H1951 H 0.10503 0.45876 0.33515 0.0
H1952 H 0.16289 0.49313 0.41664 0.0
H1953 H 0.08128 0.43859 0.41814 0.0
C1954 C 0.08531 0.44198 0.46334 0.0
C1955 C 0.09989 0.45407 0.48667 0.0
C1956 C 0.15008 0.48578 0.39877 0.0
C1957 C 0.11433 0.46744 0.43144 0.0
C1958 C 0.15987 0.48865 0.37152 0.0
C1959 C 0.14394 0.47891 0.34797 0.0
C1960 C 0.12431 0.47274 0.40261 0.0
C1961 C 0.11798 0.46665 0.35264 0.0
C1962 C 0.09233 0.44873 0.43578 0.0
C1963 C 0.12079 0.4738 0.48137 0.0
N1964 N 0.10908 0.46369 0.37943 0.0
N1965 N 0.12759 0.47959 0.45435 0.0
H1966 H 0.2753 0.19637 0.70548 0.0
H1967 H 0.27461 0.19599 0.56169 0.0
H1968 H 0.36327 0.17979 0.70406 0.0
H1969 H 0.33975 0.13493 0.57401 0.0
H1970 H 0.28352 0.21292 0.60953 0.0
H1971 H 0.27294 0.19546 0.6539 0.0
C1972 C 0.2942 0.19307 0.69426 0.0
C1973 C 0.31946 0.18807 0.70899 0.0
C1974 C 0.29598 0.19592 0.60174 0.0
C1975 C 0.31706 0.18725 0.65004 0.0
C1976 C 0.29122 0.18651 0.57417 0.0
C1977 C 0.30617 0.16375 0.56377 0.0
C1978 C 0.31555 0.18215 0.61932 0.0
C1979 C 0.32741 0.15225 0.58124 0.0
C1980 C 0.29294 0.19286 0.66481 0.0
C1981 C 0.34337 0.18385 0.69346 0.0
N1982 N 0.33122 0.16134 0.60842 0.0
N1983 N 0.34149 0.18297 0.66473 0.0
H1984 H 0.42925 0.42093 0.53388 0.0
H1985 H 0.32102 0.49403 0.63371 0.0
H1986 H 0.36468 0.47705 0.50344 0.0
H1987 H 0.39659 0.45588 0.66677 0.0
H1988 H 0.33644 0.48661 0.5858 0.0
H1989 H 0.41781 0.43253 0.58257 0.0
C1990 C 0.41285 0.43587 0.53736 0.0
C1991 C 0.39783 0.44789 0.51437 0.0
C1992 C 0.34975 0.47996 0.60349 0.0
C1993 C 0.38445 0.46098 0.57015 0.0
C1994 C 0.34088 0.48406 0.63093 0.0
C1995 C 0.35746 0.47545 0.65439 0.0
C1996 C 0.37529 0.46682 0.59927 0.0
C1997 C 0.38313 0.46288 0.64934 0.0
C1998 C 0.40635 0.44247 0.5652 0.0
C1999 C 0.37685 0.46717 0.52033 0.0
N2000 N 0.39117 0.45874 0.62233 0.0
N2001 N 0.37065 0.47287 0.54755 0.0
H2002 H 0.59326 0.00477 0.50328 0.0
H2003 H 0.64224 0.05171 0.65975 0.0
H2004 H 0.58692 0.08905 0.53603 0.0
H2005 H 0.61282 0.96807 0.64076 0.0
H2006 H 0.63559 0.06376 0.60949 0.0
H2007 H 0.61069 0.98933 0.55018 0.0
C2008 C 0.59512 0.0199 0.52039 0.0
C2009 C 0.58829 0.04817 0.51582 0.0
C2010 C 0.6313 0.04255 0.61626 0.0
C2011 C 0.60931 0.03093 0.5688 0.0
C2012 C 0.63558 0.03559 0.64475 0.0
C2013 C 0.62794 0.00898 0.6541 0.0
C2014 C 0.61955 0.02262 0.59732 0.0
C2015 C 0.61886 0.98885 0.63409 0.0
C2016 C 0.60533 0.01115 0.54696 0.0
C2017 C 0.59145 0.06698 0.53865 0.0
N2018 N 0.61454 0.99618 0.60657 0.0
N2019 N 0.60196 0.05806 0.56407 0.0
H2020 H 0.70834 0.66094 0.29572 0.0
H2021 H 0.59518 0.75015 0.37605 0.0
H2022 H 0.72832 0.73735 0.34155 0.0
H2023 H 0.57933 0.66935 0.33727 0.0
H2024 H 0.64455 0.74506 0.36646 0.0
H2025 H 0.66066 0.6645 0.31059 0.0
C2026 C 0.70266 0.67874 0.3085 0.0
C2027 C 0.72253 0.69882 0.3174 0.0
C2028 C 0.6303 0.72826 0.36047 0.0
C2029 C 0.66787 0.70268 0.33512 0.0
C2030 C 0.60219 0.73098 0.36633 0.0
C2031 C 0.58307 0.71031 0.35708 0.0
C2032 C 0.63918 0.70476 0.34527 0.0
C2033 C 0.5933 0.68598 0.34441 0.0
C2034 C 0.67544 0.68057 0.31732 0.0
C2035 C 0.71379 0.72131 0.33417 0.0
N2036 N 0.62053 0.68408 0.3385 0.0
N2037 N 0.68716 0.72257 0.34258 0.0
H2038 H 0.9016 0.03596 0.9048 0.0
H2039 H 0.01989 0.14625 0.87114 0.0
H2040 H 0.98695 0.01225 0.89401 0.0
H2041 H 0.93271 0.16559 0.8646 0.0
H2042 H 0.00835 0.09653 0.87611 0.0
H2043 H 0.91271 0.08335 0.88948 0.0
C2044 C 0.92278 0.04073 0.89952 0.0
C2045 C 0.9434 0.01996 0.90093 0.0
C2046 C 0.99169 0.11147 0.87282 0.0
C2047 C 0.95616 0.07437 0.88285 0.0
C2048 C 0.9983 0.13977 0.86954 0.0
C2049 C 0.97719 0.15984 0.86697 0.0
C2050 C 0.96374 0.10332 0.87429 0.0
C2051 C 0.94954 0.15062 0.86593 0.0
C2052 C 0.92901 0.06778 0.89043 0.0
C2053 C 0.97037 0.0275 0.89344 0.0
N2054 N 0.94357 0.12305 0.87011 0.0
N2055 N 0.97596 0.05407 0.88483 0.0
H2056 H 0.27866 0.78896 0.29575 0.0
H2057 H 0.41397 0.84231 0.38139 0.0
H2058 H 0.28219 0.8692 0.33782 0.0
H2059 H 0.41182 0.77093 0.32499 0.0
H2060 H 0.36696 0.85469 0.36385 0.0
H2061 H 0.32887 0.78468 0.30283 0.0
C2062 C 0.29026 0.80605 0.30578 0.0
C2063 C 0.27647 0.82953 0.31603 0.0
C2064 C 0.377 0.83655 0.35509 0.0
C2065 C 0.3338 0.82433 0.32544 0.0
C2066 C 0.40376 0.82936 0.36522 0.0
C2067 C 0.41693 0.8055 0.3547 0.0
C2068 C 0.36329 0.81958 0.33451 0.0
C2069 C 0.40271 0.78962 0.33362 0.0
C2070 C 0.3189 0.80355 0.31006 0.0
C2071 C 0.29226 0.85095 0.32928 0.0
N2072 N 0.3767 0.79681 0.32444 0.0
N2073 N 0.32011 0.84761 0.33412 0.0
H2074 H 0.01836 0.5025 0.86118 0.0
H2075 H 0.04006 0.33933 0.89649 0.0
H2076 H 0.0829 0.47221 0.91913 0.0
H2077 H 0.99011 0.37029 0.82558 0.0
H2078 H 0.05136 0.38803 0.90995 0.0
H2079 H 0.00343 0.45414 0.8524 0.0
C2080 C 0.02939 0.48574 0.8721 0.0
C2081 C 0.05209 0.49155 0.89076 0.0
C2082 C 0.0378 0.38407 0.89154 0.0
C2083 C 0.03492 0.43596 0.88093 0.0
C2084 C 0.03123 0.35632 0.88397 0.0
C2085 C 0.01435 0.35071 0.85972 0.0
C2086 C 0.02713 0.40628 0.87492 0.0
C2087 C 0.0035 0.37356 0.84424 0.0
C2088 C 0.02085 0.45808 0.86707 0.0
C2089 C 0.06547 0.46881 0.90436 0.0
N2090 N 0.01011 0.40023 0.85205 0.0
N2091 N 0.0567 0.44207 0.89918 0.0
H2092 H 0.73218 0.36247 0.18647 0.0
H2093 H 0.60328 0.28021 0.1138 0.0
H2094 H 0.73935 0.29419 0.12695 0.0
H2095 H 0.5951 0.34843 0.17315 0.0
H2096 H 0.65301 0.29006 0.11272 0.0
H2097 H 0.68178 0.36188 0.17734 0.0
C2098 C 0.72324 0.34747 0.17143 0.0
C2099 C 0.74006 0.32811 0.15782 0.0
C2100 C 0.64026 0.3031 0.12572 0.0
C2101 C 0.68253 0.3274 0.14713 0.0
C2102 C 0.61181 0.29758 0.12618 0.0
C2103 C 0.59508 0.31313 0.14402 0.0
C2104 C 0.65202 0.3242 0.14333 0.0
C2105 C 0.60729 0.33551 0.1595 0.0
C2106 C 0.69449 0.34719 0.16615 0.0
C2107 C 0.72729 0.30929 0.13833 0.0
N2108 N 0.63507 0.3401 0.15913 0.0
N2109 N 0.69935 0.3093 0.13374 0.0
H2110 H 0.52247 0.01599 0.1318 0.0
H2111 H 0.55571 0.17906 0.10853 0.0
H2112 H 0.58682 0.04405 0.07735 0.0
H2113 H 0.51312 0.14632 0.18003 0.0
H2114 H 0.56185 0.13079 0.09139 0.0
H2115 H 0.51285 0.0647 0.1436 0.0
C2116 C 0.53439 0.03234 0.12199 0.0
C2117 C 0.55567 0.02566 0.10362 0.0
C2118 C 0.55111 0.13427 0.11079 0.0
C2119 C 0.54469 0.08191 0.11731 0.0
C2120 C 0.54754 0.16181 0.12055 0.0
C2121 C 0.53405 0.16685 0.14591 0.0
C2122 C 0.54072 0.11163 0.12623 0.0
C2123 C 0.5239 0.14358 0.16055 0.0
C2124 C 0.52896 0.06024 0.12892 0.0
C2125 C 0.57033 0.04805 0.09171 0.0
N2126 N 0.52738 0.11714 0.1505 0.0
N2127 N 0.56464 0.07511 0.09881 0.0
H2128 H 0.28944 0.22624 0.17914 0.0
H2129 H 0.43391 0.16895 0.13267 0.0
H2130 H 0.30443 0.13765 0.17003 0.0
H2131 H 0.42469 0.24974 0.17247 0.0
H2132 H 0.38689 0.15645 0.14636 0.0
H2133 H 0.33933 0.23497 0.17778 0.0
C2134 C 0.30335 0.20859 0.17734 0.0
C2135 C 0.29287 0.18122 0.17459 0.0
C2136 C 0.39539 0.17673 0.15246 0.0
C2137 C 0.34989 0.19107 0.17228 0.0
C2138 C 0.42212 0.18393 0.14451 0.0
C2139 C 0.4332 0.21045 0.15139 0.0
C2140 C 0.37952 0.19639 0.16692 0.0
C2141 C 0.41709 0.229 0.16691 0.0
C2142 C 0.33181 0.21356 0.17656 0.0
C2143 C 0.31174 0.15906 0.17234 0.0
N2144 N 0.39096 0.22175 0.17383 0.0
N2145 N 0.33937 0.16451 0.17069 0.0
H2146 H 0.49179 0.50604 0.11314 0.0
H2147 H 0.44351 0.34723 0.13939 0.0
H2148 H 0.4074 0.47702 0.09907 0.0
H2149 H 0.52859 0.37134 0.12853 0.0
H2150 H 0.42982 0.39668 0.13492 0.0
H2151 H 0.50539 0.45856 0.12724 0.0
C2152 C 0.47609 0.48971 0.11294 0.0
C2153 C 0.4484 0.49563 0.10461 0.0
C2154 C 0.45158 0.39125 0.13421 0.0
C2155 C 0.46386 0.44112 0.12134 0.0
C2156 C 0.45943 0.36312 0.13731 0.0
C2157 C 0.48728 0.35536 0.13493 0.0
C2158 C 0.47176 0.41171 0.12868 0.0
C2159 C 0.50699 0.3766 0.13107 0.0
C2160 C 0.48389 0.46259 0.12109 0.0
C2161 C 0.42903 0.47349 0.10498 0.0
N2162 N 0.49886 0.40375 0.1279 0.0
N2163 N 0.43711 0.4473 0.11325 0.0
H2164 H 0.29119 0.71137 0.69727 0.0
H2165 H 0.37954 0.58039 0.65412 0.0
H2166 H 0.34642 0.71265 0.62773 0.0
H2167 H 0.31579 0.5782 0.71582 0.0
H2168 H 0.36247 0.62618 0.63832 0.0
H2169 H 0.29351 0.66034 0.69788 0.0
C2170 C 0.30322 0.70075 0.68161 0.0
C2171 C 0.31883 0.71609 0.66261 0.0
C2172 C 0.35195 0.61544 0.655 0.0
C2173 C 0.32251 0.6578 0.6638 0.0
C2174 C 0.36175 0.58932 0.66411 0.0
C2175 C 0.34947 0.57565 0.68677 0.0
C2176 C 0.32985 0.62801 0.66876 0.0
C2177 C 0.32625 0.5881 0.69862 0.0
C2178 C 0.30468 0.67162 0.68202 0.0
C2179 C 0.33407 0.70147 0.6427 0.0
N2180 N 0.31748 0.6137 0.68974 0.0
N2181 N 0.33608 0.67307 0.64425 0.0
H2182 H 0.9862 0.39252 0.51532 0.0
H2183 H 0.8351 0.37707 0.57828 0.0
H2184 H 0.96515 0.41919 0.59917 0.0
H2185 H 0.85283 0.35405 0.49277 0.0
H2186 H 0.88454 0.38571 0.58822 0.0
H2187 H 0.93883 0.37462 0.50751 0.0
C2188 C 0.9716 0.39499 0.53198 0.0
C2189 C 0.97985 0.40761 0.55794 0.0
C2190 C 0.87784 0.37809 0.56745 0.0
C2191 C 0.92559 0.38641 0.54929 0.0
C2192 C 0.84966 0.37259 0.56197 0.0
C2193 C 0.83999 0.36438 0.53483 0.0
C2194 C 0.8965 0.37588 0.54544 0.0
C2195 C 0.85957 0.35977 0.51415 0.0
C2196 C 0.94459 0.38446 0.52758 0.0
C2197 C 0.9599 0.40984 0.57875 0.0
N2198 N 0.88688 0.36605 0.51971 0.0
N2199 N 0.93385 0.3993 0.574 0.0
H2200 H 0.68665 0.78454 0.63506 0.0
H2201 H 0.63009 0.89427 0.74775 0.0
H2202 H 0.67475 0.76495 0.72287 0.0
H2203 H 0.64041 0.91343 0.65971 0.0
H2204 H 0.64128 0.84518 0.73793 0.0
H2205 H 0.66825 0.83157 0.64324 0.0
C2206 C 0.68078 0.79032 0.65618 0.0
C2207 C 0.68235 0.7708 0.67831 0.0
C2208 C 0.64052 0.86001 0.72062 0.0
C2209 C 0.66044 0.82421 0.68766 0.0
C2210 C 0.63356 0.8879 0.72615 0.0
C2211 C 0.6345 0.90787 0.70453 0.0
C2212 C 0.64849 0.85225 0.69333 0.0
C2213 C 0.63963 0.89862 0.67699 0.0
C2214 C 0.66982 0.81701 0.66076 0.0
C2215 C 0.67388 0.77931 0.70515 0.0
N2216 N 0.64691 0.8716 0.67226 0.0
N2217 N 0.66322 0.80527 0.70903 0.0
H2218 H 0.0418 0.10167 0.60858 0.0
H2219 H 0.14549 0.154 0.49002 0.0
H2220 H 0.01452 0.13326 0.52663 0.0
H2221 H 0.17291 0.12524 0.5727 0.0
H2222 H 0.09716 0.15165 0.50492 0.0
H2223 H 0.08985 0.11321 0.59724 0.0
C2224 C 0.0458 0.11091 0.58823 0.0
C2225 C 0.02383 0.1163 0.5686 0.0
C2226 C 0.11378 0.14649 0.52006 0.0
C2227 C 0.07895 0.12991 0.55549 0.0
C2228 C 0.1414 0.14836 0.51166 0.0
C2229 C 0.16323 0.14026 0.5303 0.0
C2230 C 0.10802 0.13615 0.54718 0.0
C2231 C 0.15666 0.13205 0.55781 0.0
C2232 C 0.07327 0.11768 0.5818 0.0
C2233 C 0.03055 0.12857 0.54258 0.0
N2234 N 0.12976 0.12989 0.5653 0.0
N2235 N 0.05731 0.13483 0.53683 0.0
H2236 H 0.32972 0.28905 0.85762 0.0
H2237 H 0.39406 0.41094 0.76464 0.0
H2238 H 0.35984 0.27849 0.77332 0.0
H2239 H 0.3539 0.42576 0.84333 0.0
H2240 H 0.39165 0.36062 0.77344 0.0
H2241 H 0.34552 0.33795 0.85706 0.0
C2242 C 0.33944 0.29699 0.83897 0.0
C2243 C 0.34319 0.27963 0.81541 0.0
C2244 C 0.38379 0.37491 0.78904 0.0
C2245 C 0.36188 0.3352 0.81491 0.0
C2246 C 0.38551 0.40368 0.78419 0.0
C2247 C 0.37349 0.42248 0.80291 0.0
C2248 C 0.36987 0.36505 0.81268 0.0
C2249 C 0.36281 0.41188 0.82799 0.0
C2250 C 0.34871 0.32479 0.83878 0.0
C2251 C 0.3563 0.291 0.79196 0.0
N2252 N 0.3607 0.3838 0.83188 0.0
N2253 N 0.3651 0.318 0.79232 0.0
H2254 H 0.50236 0.35762 0.46619 0.0
H2255 H 0.66265 0.40003 0.48229 0.0
H2256 H 0.53208 0.43804 0.4382 0.0
H2257 H 0.63306 0.31458 0.47602 0.0
H2258 H 0.615 0.41635 0.47261 0.0
H2259 H 0.55014 0.34388 0.47774 0.0
C2260 C 0.51886 0.37258 0.46277 0.0
C2261 C 0.51306 0.39904 0.45104 0.0
C2262 C 0.61909 0.39405 0.47325 0.0
C2263 C 0.56809 0.38323 0.46422 0.0
C2264 C 0.64631 0.38468 0.4787 0.0
C2265 C 0.65211 0.35582 0.47978 0.0
C2266 C 0.59742 0.37445 0.46944 0.0
C2267 C 0.62982 0.33701 0.47524 0.0
C2268 C 0.54621 0.36459 0.4692 0.0
C2269 C 0.53552 0.41739 0.44706 0.0
N2270 N 0.60356 0.34663 0.47048 0.0
N2271 N 0.56205 0.40914 0.45363 0.0
H2272 H 0.67691 0.21122 0.87004 0.0
H2273 H 0.67629 0.08321 0.75982 0.0
H2274 H 0.69758 0.21962 0.78257 0.0
H2275 H 0.62717 0.08406 0.83427 0.0
H2276 H 0.69474 0.12945 0.77303 0.0
H2277 H 0.66998 0.16056 0.86243 0.0
C2278 C 0.68096 0.20221 0.84955 0.0
C2279 C 0.68789 0.21947 0.82689 0.0
C2280 C 0.68006 0.11941 0.78656 0.0
C2281 C 0.67965 0.16199 0.81795 0.0
C2282 C 0.66949 0.093 0.77905 0.0
C2283 C 0.64982 0.07983 0.79575 0.0
C2284 C 0.67119 0.1327 0.81115 0.0
C2285 C 0.64197 0.09356 0.82053 0.0
C2286 C 0.67664 0.17345 0.84511 0.0
C2287 C 0.69227 0.20694 0.80056 0.0
N2288 N 0.65261 0.11928 0.82744 0.0
N2289 N 0.68793 0.17901 0.79676 0.0
H2290 H 0.46945 0.11595 0.38369 0.0
H2291 H 0.34049 0.10906 0.48522 0.0
H2292 H 0.47707 0.08654 0.46987 0.0
H2293 H 0.34619 0.16996 0.41851 0.0
H2294 H 0.38682 0.09203 0.47457 0.0
H2295 H 0.42048 0.12699 0.39085 0.0
C2296 C 0.46073 0.11131 0.40394 0.0
C2297 C 0.47748 0.10035 0.42623 0.0
C2298 C 0.37777 0.10893 0.46208 0.0
C2299 C 0.42141 0.11289 0.4345 0.0
C2300 C 0.35115 0.11848 0.46796 0.0
C2301 C 0.33923 0.14081 0.45256 0.0
C2302 C 0.39247 0.12146 0.44032 0.0
C2303 C 0.3546 0.15271 0.43093 0.0
C2304 C 0.43285 0.11784 0.40806 0.0
C2305 C 0.46502 0.09509 0.45212 0.0
N2306 N 0.38032 0.14283 0.42536 0.0
N2307 N 0.43779 0.10136 0.45553 0.0
H2308 H 0.63962 0.34365 0.71336 0.0
H2309 H 0.77621 0.3417 0.62539 0.0
H2310 H 0.70813 0.28736 0.72877 0.0
H2311 H 0.69918 0.37095 0.58657 0.0
H2312 H 0.75167 0.32915 0.66761 0.0
H2313 H 0.65944 0.35715 0.66815 0.0
C2314 C 0.65801 0.33303 0.70645 0.0
C2315 C 0.67209 0.31401 0.72442 0.0
C2316 C 0.74013 0.33862 0.65 0.0
C2317 C 0.69567 0.33063 0.67417 0.0
C2318 C 0.75424 0.3463 0.62611 0.0
C2319 C 0.73967 0.35712 0.60234 0.0
C2320 C 0.71122 0.34189 0.65028 0.0
C2321 C 0.7112 0.36269 0.60447 0.0
C2322 C 0.66963 0.34121 0.68104 0.0
C2323 C 0.69644 0.3017 0.7152 0.0
N2324 N 0.69773 0.35463 0.62795 0.0
N2325 N 0.70776 0.31061 0.69098 0.0
H2326 H 0.72369 0.63221 0.76603 0.0
H2327 H 0.65093 0.65701 0.91019 0.0
H2328 H 0.64346 0.67179 0.77026 0.0
H2329 H 0.72426 0.60648 0.90167 0.0
H2330 H 0.64329 0.65618 0.85889 0.0
H2331 H 0.72095 0.61827 0.81499 0.0
C2332 C 0.70547 0.63818 0.77729 0.0
C2333 C 0.68394 0.65371 0.76402 0.0
C2334 C 0.66068 0.64473 0.86825 0.0
C2335 C 0.68064 0.63738 0.82059 0.0
C2336 C 0.665 0.64504 0.89758 0.0
C2337 C 0.68878 0.63251 0.91015 0.0
C2338 C 0.6804 0.632 0.85144 0.0
C2339 C 0.70595 0.61687 0.89287 0.0
C2340 C 0.70381 0.62986 0.8053 0.0
C2341 C 0.66069 0.66019 0.77973 0.0
N2342 N 0.7018 0.61765 0.8643 0.0
N2343 N 0.6598 0.65228 0.80735 0.0
H2344 H 0.91705 0.11238 0.46535 0.0
H2345 H 0.87002 0.99222 0.35518 0.0
H2346 H 0.91625 0.02398 0.48498 0.0
H2347 H 0.87837 0.07909 0.33249 0.0
H2348 H 0.87894 0.0048 0.40497 0.0
H2349 H 0.89839 0.10151 0.41781 0.0
C2350 C 0.91347 0.09064 0.45957 0.0
C2351 C 0.91838 0.06907 0.47929 0.0
C2352 C 0.87805 0.02127 0.38924 0.0
C2353 C 0.89622 0.05658 0.42504 0.0
C2354 C 0.87234 0.01414 0.36094 0.0
C2355 C 0.87302 0.03477 0.33999 0.0
C2356 C 0.88486 0.04917 0.39638 0.0
C2357 C 0.87718 0.06273 0.34825 0.0
C2358 C 0.90243 0.0845 0.4325 0.0
C2359 C 0.91289 0.04134 0.47056 0.0
N2360 N 0.88339 0.06911 0.37581 0.0
N2361 N 0.90202 0.03593 0.44416 0.0
H2362 H 0.3345 0.78488 0.80225 0.0
H2363 H 0.21559 0.86147 0.8847 0.0
H2364 H 0.25935 0.81728 0.76216 0.0
H2365 H 0.28546 0.82062 0.92674 0.0
H2366 H 0.22903 0.84087 0.83989 0.0
H2367 H 0.3141 0.79146 0.84854 0.0
C2368 C 0.31343 0.79256 0.80317 0.0
C2369 C 0.29875 0.80103 0.77849 0.0
C2370 C 0.24126 0.83613 0.85898 0.0
C2371 C 0.27562 0.80922 0.83105 0.0
C2372 C 0.23368 0.84807 0.88451 0.0
C2373 C 0.24946 0.84283 0.90943 0.0
C2374 C 0.26503 0.81913 0.85832 0.0
C2375 C 0.27257 0.82506 0.90804 0.0
C2376 C 0.30187 0.79658 0.82956 0.0
C2377 C 0.27156 0.81099 0.78079 0.0
N2378 N 0.27982 0.81408 0.88287 0.0
N2379 N 0.26106 0.81525 0.80661 0.0
H2380 H 0.63237 0.98593 -0.00145 0.0
H2381 H 0.602 0.9613 0.83259 0.0
H2382 H 0.56795 0.93055 0.96495 0.0
H2383 H 0.67768 0.99827 0.86779 0.0
H2384 H 0.58522 0.9561 0.88045 0.0
H2385 H 0.6447 0.99722 0.95031 0.0
C2386 C 0.62052 0.97639 0.98108 0.0
C2387 C 0.59918 0.95702 0.98597 0.0
C2388 C 0.60544 0.96546 0.87768 0.0
C2389 C 0.61342 0.96986 0.93049 0.0
C2390 C 0.61501 0.96856 0.85033 0.0
C2391 C 0.64135 0.9802 0.8461 0.0
C2392 C 0.62221 0.97426 0.90103 0.0
C2393 C 0.65734 0.989 0.87 0.0
C2394 C 0.62773 0.98275 0.9535 0.0
C2395 C 0.58466 0.94542 0.96231 0.0
N2396 N 0.64752 0.98585 0.8964 0.0
N2397 N 0.59214 0.95191 0.93563 0.0
H2398 H 0.77866 0.70176 0.20727 0.0
H2399 H 0.84147 0.64179 0.07085 0.0
H2400 H 0.86555 0.68064 0.20453 0.0
H2401 H 0.76774 0.69304 0.06897 0.0
H2402 H 0.85315 0.65932 0.11855 0.0
H2403 H 0.77587 0.7025 0.15564 0.0
C2404 C 0.79723 0.69766 0.19575 0.0
C2405 C 0.82222 0.69067 0.21006 0.0
C2406 C 0.83478 0.66723 0.10735 0.0
C2407 C 0.81917 0.69106 0.15116 0.0
C2408 C 0.82806 0.65715 0.0802 0.0
C2409 C 0.80337 0.66562 0.0661 0.0
C2410 C 0.8164 0.68545 0.12051 0.0
C2411 C 0.78691 0.6858 0.07905 0.0
C2412 C 0.7957 0.69823 0.16631 0.0
C2413 C 0.8458 0.68591 0.19423 0.0
N2414 N 0.79344 0.69461 0.10575 0.0
N2415 N 0.84356 0.68558 0.16552 0.0
H2416 H 0.89259 0.89474 0.02696 0.0
H2417 H 0.89475 0.99798 0.15837 0.0
H2418 H 0.91067 0.98275 0.01678 0.0
H2419 H 0.83246 0.93332 0.14771 0.0
H2420 H 0.91042 0.98798 0.11086 0.0
H2421 H 0.88049 0.90388 0.07593 0.0
C2422 C 0.8945 0.91592 0.03515 0.0
C2423 C 0.9027 0.93805 0.01774 0.0
C2424 C 0.89344 0.97591 0.11906 0.0
C2425 C 0.889 0.94847 0.07378 0.0
C2426 C 0.88462 0.98141 0.14632 0.0
C2427 C 0.86236 0.96633 0.15718 0.0
C2428 C 0.88037 0.95468 0.10283 0.0
C2429 C 0.84967 0.94544 0.14012 0.0
C2430 C 0.88734 0.9211 0.06299 0.0
C2431 C 0.90441 0.96512 0.02945 0.0
N2432 N 0.85902 0.94003 0.11386 0.0
N2433 N 0.89774 0.96957 0.05685 0.0
H2434 H 0.08795 0.50422 0.00738 0.0
H2435 H 0.1388 0.55404 0.16244 0.0
H2436 H 0.0794 0.58847 0.03956 0.0
H2437 H 0.11742 0.46814 0.1431 0.0
H2438 H 0.12911 0.56619 0.11265 0.0
H2439 H 0.10717 0.48983 0.05386 0.0
C2440 C 0.08961 0.51955 0.02433 0.0
C2441 C 0.08185 0.54755 0.0196 0.0
C2442 C 0.12726 0.54454 0.11918 0.0
C2443 C 0.10485 0.5315 0.0722 0.0
C2444 C 0.13337 0.53755 0.14738 0.0
C2445 C 0.12891 0.51013 0.15657 0.0
C2446 C 0.11678 0.52385 0.10034 0.0
C2447 C 0.12117 0.48953 0.13654 0.0
C2448 C 0.10088 0.5114 0.05067 0.0
C2449 C 0.08475 0.5666 0.04226 0.0
N2450 N 0.11494 0.49686 0.10932 0.0
N2451 N 0.09628 0.55827 0.06748 0.0
loop_
_geom_bond_atom_site_label_1
_geom_bond_atom_site_label_2
_geom_bond_distance
_geom_bond_site_symmetry_2
_ccdc_geom_bond_type
Sc0 O3 2.025 . S
Sc0 O10 2.105 . S
Sc0 O13 2.105 . S
Sc0 O16 2.105 . S
Sc0 O19 2.105 . S
Sc1 O3 2.025 . S
Sc1 O11 2.105 . S
Sc1 O15 2.105 . S
Sc1 O17 2.105 . S
Sc1 O21 2.105 . S
Sc2 O3 2.025 . S
Sc2 O12 2.105 . S
Sc2 O14 2.105 . S
Sc2 O18 2.105 . S
Sc2 O20 2.105 . S
O3 Sc0 2.025 . S
O3 Sc1 2.025 . S
O3 Sc2 2.025 . S
C4 O10 1.268 . S
C4 O20 1.268 . S
C5 O11 1.268 . S
C5 O19 1.268 . S
C6 O12 1.268 . S
C6 O21 1.268 . S
C7 O13 1.268 . S
C7 O17 1.268 . S
C8 O14 1.268 . S
C8 O16 1.268 . S
C9 O15 1.268 . S
C9 O18 1.268 . S
O10 Sc0 2.105 . S
O10 C4 1.268 . S
O11 Sc1 2.105 . S
O11 C5 1.268 . S
O12 Sc2 2.105 . S
O12 C6 1.268 . S
O13 Sc0 2.105 . S
O13 C7 1.268 . S
O14 Sc2 2.105 . S
O14 C8 1.268 . S
O15 Sc1 2.105 . S
O15 C9 1.268 . S
O16 Sc0 2.105 . S
O16 C8 1.268 . S
O17 Sc1 2.105 . S
O17 C7 1.268 . S
O18 Sc2 2.105 . S
O18 C9 1.268 . S
O19 Sc0 2.105 . S
O19 C5 1.268 . S
O20 Sc2 2.105 . S
O20 C4 1.268 . S
O21 Sc1 2.105 . S
O21 C6 1.268 . S
Sc22 O25 2.025 . S
Sc22 O32 2.105 . S
Sc22 O35 2.105 . S
Sc22 O38 2.105 . S
Sc22 O41 2.105 . S
Sc23 O25 2.025 . S
Sc23 O33 2.105 . S
Sc23 O37 2.105 . S
Sc23 O39 2.105 . S
Sc23 O43 2.105 . S
Sc24 O25 2.025 . S
Sc24 O34 2.105 . S
Sc24 O36 2.105 . S
Sc24 O40 2.105 . S
Sc24 O42 2.105 . S
O25 Sc22 2.025 . S
O25 Sc23 2.025 . S
O25 Sc24 2.025 . S
C26 O32 1.268 . S
C26 O42 1.268 . S
C27 O33 1.268 . S
C27 O41 1.268 . S
C28 O34 1.268 . S
C28 O43 1.268 . S
C29 O35 1.268 . S
C29 O39 1.268 . S
C30 O36 1.268 . S
C30 O38 1.268 . S
C31 O37 1.268 . S
C31 O40 1.268 . S
O32 Sc22 2.105 . S
O32 C26 1.268 . S
O33 Sc23 2.105 . S
O33 C27 1.268 . S
O34 Sc24 2.105 . S
O34 C28 1.268 . S
O35 Sc22 2.105 . S
O35 C29 1.268 . S
O36 Sc24 2.105 . S
O36 C30 1.268 . S
O37 Sc23 2.105 . S
O37 C31 1.268 . S
O38 Sc22 2.105 . S
O38 C30 1.268 . S
O39 Sc23 2.105 . S
O39 C29 1.268 . S
O40 Sc24 2.105 . S
O40 C31 1.268 . S
O41 Sc22 2.105 . S
O41 C27 1.268 . S
O42 Sc24 2.105 . S
O42 C26 1.268 . S
O43 Sc23 2.105 . S
O43 C28 1.268 . S
Sc44 O47 2.025 . S
Sc44 O54 2.105 . S
Sc44 O57 2.105 . S
Sc44 O60 2.105 . S
Sc44 O63 2.105 . S
Sc45 O47 2.025 . S
Sc45 O55 2.105 . S
Sc45 O59 2.105 . S
Sc45 O61 2.105 . S
Sc45 O65 2.105 . S
Sc46 O47 2.025 . S
Sc46 O56 2.105 . S
Sc46 O58 2.105 . S
Sc46 O62 2.105 . S
Sc46 O64 2.105 . S
O47 Sc44 2.025 . S
O47 Sc45 2.025 . S
O47 Sc46 2.025 . S
C48 O54 1.268 . S
C48 O64 1.268 . S
C49 O55 1.268 . S
C49 O63 1.268 . S
C50 O56 1.268 . S
C50 O65 1.268 . S
C51 O57 1.268 . S
C51 O61 1.268 . S
C52 O58 1.268 . S
C52 O60 1.268 . S
C53 O59 1.268 . S
C53 O62 1.268 . S
O54 Sc44 2.105 . S
O54 C48 1.268 . S
O55 Sc45 2.105 . S
O55 C49 1.268 . S
O56 Sc46 2.105 . S
O56 C50 1.268 . S
O57 Sc44 2.105 . S
O57 C51 1.268 . S
O58 Sc46 2.105 . S
O58 C52 1.268 . S
O59 Sc45 2.105 . S
O59 C53 1.268 . S
O60 Sc44 2.105 . S
O60 C52 1.268 . S
O61 Sc45 2.105 . S
O61 C51 1.268 . S
O62 Sc46 2.105 . S
O62 C53 1.268 . S
O63 Sc44 2.105 . S
O63 C49 1.268 . S
O64 Sc46 2.105 . S
O64 C48 1.268 . S
O65 Sc45 2.105 . S
O65 C50 1.268 . S
Sc66 O69 2.025 . S
Sc66 O76 2.105 . S
Sc66 O79 2.105 . S
Sc66 O82 2.105 . S
Sc66 O85 2.105 . S
Sc67 O69 2.025 . S
Sc67 O77 2.105 . S
Sc67 O81 2.105 . S
Sc67 O83 2.105 . S
Sc67 O87 2.105 . S
Sc68 O69 2.025 . S
Sc68 O78 2.105 . S
Sc68 O80 2.105 . S
Sc68 O84 2.105 . S
Sc68 O86 2.105 . S
O69 Sc66 2.025 . S
O69 Sc67 2.025 . S
O69 Sc68 2.025 . S
C70 O76 1.268 . S
C70 O86 1.268 . S
C71 O77 1.268 . S
C71 O85 1.268 . S
C72 O78 1.268 . S
C72 O87 1.268 . S
C73 O79 1.268 . S
C73 O83 1.268 . S
C74 O80 1.268 . S
C74 O82 1.268 . S
C75 O81 1.268 . S
C75 O84 1.268 . S
O76 Sc66 2.105 . S
O76 C70 1.268 . S
O77 Sc67 2.105 . S
O77 C71 1.268 . S
O78 Sc68 2.105 . S
O78 C72 1.268 . S
O79 Sc66 2.105 . S
O79 C73 1.268 . S
O80 Sc68 2.105 . S
O80 C74 1.268 . S
O81 Sc67 2.105 . S
O81 C75 1.268 . S
O82 Sc66 2.105 . S
O82 C74 1.268 . S
O83 Sc67 2.105 . S
O83 C73 1.268 . S
O84 Sc68 2.105 . S
O84 C75 1.268 . S
O85 Sc66 2.105 . S
O85 C71 1.268 . S
O86 Sc68 2.105 . S
O86 C70 1.268 . S
O87 Sc67 2.105 . S
O87 C72 1.268 . S
Sc88 O91 2.025 . S
Sc88 O98 2.105 . S
Sc88 O101 2.105 . S
Sc88 O104 2.105 . S
Sc88 O107 2.105 . S
Sc89 O91 2.025 . S
Sc89 O99 2.105 . S
Sc89 O103 2.105 . S
Sc89 O105 2.105 . S
Sc89 O109 2.105 . S
Sc90 O91 2.025 . S
Sc90 O100 2.105 . S
Sc90 O102 2.105 . S
Sc90 O106 2.105 . S
Sc90 O108 2.105 . S
O91 Sc88 2.025 . S
O91 Sc89 2.025 . S
O91 Sc90 2.025 . S
C92 O98 1.268 . S
C92 O108 1.268 . S
C93 O99 1.268 . S
C93 O107 1.268 . S
C94 O100 1.268 . S
C94 O109 1.268 . S
C95 O101 1.268 . S
C95 O105 1.268 . S
C96 O102 1.268 . S
C96 O104 1.268 . S
C97 O103 1.268 . S
C97 O106 1.268 . S
O98 Sc88 2.105 . S
O98 C92 1.268 . S
O99 Sc89 2.105 . S
O99 C93 1.268 . S
O100 Sc90 2.105 . S
O100 C94 1.268 . S
O101 Sc88 2.105 . S
O101 C95 1.268 . S
O102 Sc90 2.105 . S
O102 C96 1.268 . S
O103 Sc89 2.105 . S
O103 C97 1.268 . S
O104 Sc88 2.105 . S
O104 C96 1.268 . S
O105 Sc89 2.105 . S
O105 C95 1.268 . S
O106 Sc90 2.105 . S
O106 C97 1.268 . S
O107 Sc88 2.105 . S
O107 C93 1.268 . S
O108 Sc90 2.105 . S
O108 C92 1.268 . S
O109 Sc89 2.105 . S
O109 C94 1.268 . S
Sc110 O113 2.025 . S
Sc110 O120 2.105 . S
Sc110 O123 2.105 . S
Sc110 O126 2.105 . S
Sc110 O129 2.105 . S
Sc111 O113 2.025 . S
Sc111 O121 2.105 . S
Sc111 O125 2.105 . S
Sc111 O127 2.105 . S
Sc111 O131 2.105 . S
Sc112 O113 2.025 . S
Sc112 O122 2.105 . S
Sc112 O124 2.105 . S
Sc112 O128 2.105 . S
Sc112 O130 2.105 . S
O113 Sc110 2.025 . S
O113 Sc111 2.025 . S
O113 Sc112 2.025 . S
C114 O120 1.268 . S
C114 O130 1.268 . S
C115 O121 1.268 . S
C115 O129 1.268 . S
C116 O122 1.268 . S
C116 O131 1.268 . S
C117 O123 1.268 . S
C117 O127 1.268 . S
C118 O124 1.268 1_554 S
C118 O126 1.268 1_554 S
C119 O125 1.268 . S
C119 O128 1.268 . S
O120 Sc110 2.105 . S
O120 C114 1.268 . S
O121 Sc111 2.105 . S
O121 C115 1.268 . S
O122 Sc112 2.105 . S
O122 C116 1.268 . S
O123 Sc110 2.105 . S
O123 C117 1.268 . S
O124 Sc112 2.105 . S
O124 C118 1.268 1_556 S
O125 Sc111 2.105 . S
O125 C119 1.268 . S
O126 Sc110 2.105 . S
O126 C118 1.268 1_556 S
O127 Sc111 2.105 . S
O127 C117 1.268 . S
O128 Sc112 2.105 . S
O128 C119 1.268 . S
O129 Sc110 2.105 . S
O129 C115 1.268 . S
O130 Sc112 2.105 . S
O130 C114 1.268 . S
O131 Sc111 2.105 . S
O131 C116 1.268 . S
Sc132 O135 2.025 . S
Sc132 O142 2.105 . S
Sc132 O145 2.105 . S
Sc132 O148 2.105 . S
Sc132 O151 2.105 . S
Sc133 O135 2.025 . S
Sc133 O143 2.105 . S
Sc133 O147 2.105 . S
Sc133 O149 2.105 . S
Sc133 O153 2.105 . S
Sc134 O135 2.025 . S
Sc134 O144 2.105 . S
Sc134 O146 2.105 . S
Sc134 O150 2.105 . S
Sc134 O152 2.105 . S
O135 Sc132 2.025 . S
O135 Sc133 2.025 . S
O135 Sc134 2.025 . S
C136 O142 1.268 . S
C136 O152 1.268 . S
C137 O143 1.268 . S
C137 O151 1.268 . S
C138 O144 1.268 . S
C138 O153 1.268 . S
C139 O145 1.268 . S
C139 O149 1.268 . S
C140 O146 1.268 . S
C140 O148 1.268 . S
C141 O147 1.268 . S
C141 O150 1.268 . S
O142 Sc132 2.105 . S
O142 C136 1.268 . S
O143 Sc133 2.105 . S
O143 C137 1.268 . S
O144 Sc134 2.105 . S
O144 C138 1.268 . S
O145 Sc132 2.105 . S
O145 C139 1.268 . S
O146 Sc134 2.105 . S
O146 C140 1.268 . S
O147 Sc133 2.105 . S
O147 C141 1.268 . S
O148 Sc132 2.105 . S
O148 C140 1.268 . S
O149 Sc133 2.105 . S
O149 C139 1.268 . S
O150 Sc134 2.105 . S
O150 C141 1.268 . S
O151 Sc132 2.105 . S
O151 C137 1.268 . S
O152 Sc134 2.105 . S
O152 C136 1.268 . S
O153 Sc133 2.105 . S
O153 C138 1.268 . S
Sc154 O157 2.025 . S
Sc154 O164 2.105 . S
Sc154 O167 2.105 . S
Sc154 O170 2.105 . S
Sc154 O173 2.105 . S
Sc155 O157 2.025 . S
Sc155 O165 2.105 . S
Sc155 O169 2.105 . S
Sc155 O171 2.105 . S
Sc155 O175 2.105 . S
Sc156 O157 2.025 . S
Sc156 O166 2.105 . S
Sc156 O168 2.105 . S
Sc156 O172 2.105 . S
Sc156 O174 2.105 . S
O157 Sc154 2.025 . S
O157 Sc155 2.025 . S
O157 Sc156 2.025 . S
C158 O164 1.268 . S
C158 O174 1.268 . S
C159 O165 1.268 . S
C159 O173 1.268 . S
C160 O166 1.268 . S
C160 O175 1.268 . S
C161 O167 1.268 . S
C161 O171 1.268 . S
C162 O168 1.268 . S
C162 O170 1.268 . S
C163 O169 1.268 . S
C163 O172 1.268 . S
O164 Sc154 2.105 . S
O164 C158 1.268 . S
O165 Sc155 2.105 . S
O165 C159 1.268 . S
O166 Sc156 2.105 . S
O166 C160 1.268 . S
O167 Sc154 2.105 . S
O167 C161 1.268 . S
O168 Sc156 2.105 . S
O168 C162 1.268 . S
O169 Sc155 2.105 . S
O169 C163 1.268 . S
O170 Sc154 2.105 . S
O170 C162 1.268 . S
O171 Sc155 2.105 . S
O171 C161 1.268 . S
O172 Sc156 2.105 . S
O172 C163 1.268 . S
O173 Sc154 2.105 . S
O173 C159 1.268 . S
O174 Sc156 2.105 . S
O174 C158 1.268 . S
O175 Sc155 2.105 . S
O175 C160 1.268 . S
Sc176 O179 2.025 . S
Sc176 O186 2.105 . S
Sc176 O189 2.105 . S
Sc176 O192 2.105 . S
Sc176 O195 2.105 . S
Sc177 O179 2.025 . S
Sc177 O187 2.105 . S
Sc177 O191 2.105 . S
Sc177 O193 2.105 . S
Sc177 O197 2.105 . S
Sc178 O179 2.025 . S
Sc178 O188 2.105 . S
Sc178 O190 2.105 . S
Sc178 O194 2.105 . S
Sc178 O196 2.105 . S
O179 Sc176 2.025 . S
O179 Sc177 2.025 . S
O179 Sc178 2.025 . S
C180 O186 1.268 . S
C180 O196 1.268 . S
C181 O187 1.268 . S
C181 O195 1.268 . S
C182 O188 1.268 . S
C182 O197 1.268 . S
C183 O189 1.268 . S
C183 O193 1.268 . S
C184 O190 1.268 . S
C184 O192 1.268 . S
C185 O191 1.268 . S
C185 O194 1.268 . S
O186 Sc176 2.105 . S
O186 C180 1.268 . S
O187 Sc177 2.105 . S
O187 C181 1.268 . S
O188 Sc178 2.105 . S
O188 C182 1.268 . S
O189 Sc176 2.105 . S
O189 C183 1.268 . S
O190 Sc178 2.105 . S
O190 C184 1.268 . S
O191 Sc177 2.105 . S
O191 C185 1.268 . S
O192 Sc176 2.105 . S
O192 C184 1.268 . S
O193 Sc177 2.105 . S
O193 C183 1.268 . S
O194 Sc178 2.105 . S
O194 C185 1.268 . S
O195 Sc176 2.105 . S
O195 C181 1.268 . S
O196 Sc178 2.105 . S
O196 C180 1.268 . S
O197 Sc177 2.105 . S
O197 C182 1.268 . S
Sc198 O201 2.025 . S
Sc198 O208 2.105 . S
Sc198 O211 2.105 . S
Sc198 O214 2.105 . S
Sc198 O217 2.105 . S
Sc199 O201 2.025 . S
Sc199 O209 2.105 . S
Sc199 O213 2.105 . S
Sc199 O215 2.105 . S
Sc199 O219 2.105 . S
Sc200 O201 2.025 . S
Sc200 O210 2.105 . S
Sc200 O212 2.105 . S
Sc200 O216 2.105 . S
Sc200 O218 2.105 . S
O201 Sc198 2.025 . S
O201 Sc199 2.025 . S
O201 Sc200 2.025 . S
C202 O208 1.268 . S
C202 O218 1.268 . S
C203 O209 1.268 . S
C203 O217 1.268 . S
C204 O210 1.268 . S
C204 O219 1.268 . S
C205 O211 1.268 . S
C205 O215 1.268 . S
C206 O212 1.268 . S
C206 O214 1.268 . S
C207 O213 1.268 . S
C207 O216 1.268 . S
O208 Sc198 2.105 . S
O208 C202 1.268 . S
O209 Sc199 2.105 . S
O209 C203 1.268 . S
O210 Sc200 2.105 . S
O210 C204 1.268 . S
O211 Sc198 2.105 . S
O211 C205 1.268 . S
O212 Sc200 2.105 . S
O212 C206 1.268 . S
O213 Sc199 2.105 . S
O213 C207 1.268 . S
O214 Sc198 2.105 . S
O214 C206 1.268 . S
O215 Sc199 2.105 . S
O215 C205 1.268 . S
O216 Sc200 2.105 . S
O216 C207 1.268 . S
O217 Sc198 2.105 . S
O217 C203 1.268 . S
O218 Sc200 2.105 . S
O218 C202 1.268 . S
O219 Sc199 2.105 . S
O219 C204 1.268 . S
Sc220 O223 2.025 . S
Sc220 O230 2.105 . S
Sc220 O233 2.105 . S
Sc220 O236 2.105 . S
Sc220 O239 2.105 . S
Sc221 O223 2.025 . S
Sc221 O231 2.105 . S
Sc221 O235 2.105 . S
Sc221 O237 2.105 . S
Sc221 O241 2.105 . S
Sc222 O223 2.025 . S
Sc222 O232 2.105 . S
Sc222 O234 2.105 . S
Sc222 O238 2.105 . S
Sc222 O240 2.105 . S
O223 Sc220 2.025 . S
O223 Sc221 2.025 . S
O223 Sc222 2.025 . S
C224 O230 1.268 . S
C224 O240 1.268 . S
C225 O231 1.268 . S
C225 O239 1.268 . S
C226 O232 1.268 . S
C226 O241 1.268 . S
C227 O233 1.268 . S
C227 O237 1.268 . S
C228 O234 1.268 . S
C228 O236 1.268 . S
C229 O235 1.268 . S
C229 O238 1.268 . S
O230 Sc220 2.105 . S
O230 C224 1.268 . S
O231 Sc221 2.105 . S
O231 C225 1.268 . S
O232 Sc222 2.105 . S
O232 C226 1.268 . S
O233 Sc220 2.105 . S
O233 C227 1.268 . S
O234 Sc222 2.105 . S
O234 C228 1.268 . S
O235 Sc221 2.105 . S
O235 C229 1.268 . S
O236 Sc220 2.105 . S
O236 C228 1.268 . S
O237 Sc221 2.105 . S
O237 C227 1.268 . S
O238 Sc222 2.105 . S
O238 C229 1.268 . S
O239 Sc220 2.105 . S
O239 C225 1.268 . S
O240 Sc222 2.105 . S
O240 C224 1.268 . S
O241 Sc221 2.105 . S
O241 C226 1.268 . S
Sc242 O245 2.025 . S
Sc242 O252 2.105 . S
Sc242 O255 2.105 . S
Sc242 O258 2.105 . S
Sc242 O261 2.105 . S
Sc243 O245 2.025 . S
Sc243 O253 2.105 . S
Sc243 O257 2.105 . S
Sc243 O259 2.105 . S
Sc243 O263 2.105 . S
Sc244 O245 2.025 . S
Sc244 O254 2.105 . S
Sc244 O256 2.105 . S
Sc244 O260 2.105 . S
Sc244 O262 2.105 . S
O245 Sc242 2.025 . S
O245 Sc243 2.025 . S
O245 Sc244 2.025 . S
C246 O252 1.268 . S
C246 O262 1.268 . S
C247 O253 1.268 . S
C247 O261 1.268 . S
C248 O254 1.268 . S
C248 O263 1.268 . S
C249 O255 1.268 . S
C249 O259 1.268 . S
C250 O256 1.268 . S
C250 O258 1.268 . S
C251 O257 1.268 . S
C251 O260 1.268 . S
O252 Sc242 2.105 . S
O252 C246 1.268 . S
O253 Sc243 2.105 . S
O253 C247 1.268 . S
O254 Sc244 2.105 . S
O254 C248 1.268 . S
O255 Sc242 2.105 . S
O255 C249 1.268 . S
O256 Sc244 2.105 . S
O256 C250 1.268 . S
O257 Sc243 2.105 . S
O257 C251 1.268 . S
O258 Sc242 2.105 . S
O258 C250 1.268 . S
O259 Sc243 2.105 . S
O259 C249 1.268 . S
O260 Sc244 2.105 . S
O260 C251 1.268 . S
O261 Sc242 2.105 . S
O261 C247 1.268 . S
O262 Sc244 2.105 . S
O262 C246 1.268 . S
O263 Sc243 2.105 . S
O263 C248 1.268 . S
Sc264 O267 2.025 . S
Sc264 O274 2.105 . S
Sc264 O277 2.105 . S
Sc264 O280 2.105 . S
Sc264 O283 2.105 . S
Sc265 O267 2.025 . S
Sc265 O275 2.105 . S
Sc265 O279 2.105 . S
Sc265 O281 2.105 . S
Sc265 O285 2.105 . S
Sc266 O267 2.025 . S
Sc266 O276 2.105 . S
Sc266 O278 2.105 . S
Sc266 O282 2.105 . S
Sc266 O284 2.105 . S
O267 Sc264 2.025 . S
O267 Sc265 2.025 . S
O267 Sc266 2.025 . S
C268 O274 1.268 . S
C268 O284 1.268 . S
C269 O275 1.268 . S
C269 O283 1.268 . S
C270 O276 1.268 . S
C270 O285 1.268 . S
C271 O277 1.268 . S
C271 O281 1.268 . S
C272 O278 1.268 . S
C272 O280 1.268 . S
C273 O279 1.268 . S
C273 O282 1.268 . S
O274 Sc264 2.105 . S
O274 C268 1.268 . S
O275 Sc265 2.105 . S
O275 C269 1.268 . S
O276 Sc266 2.105 . S
O276 C270 1.268 . S
O277 Sc264 2.105 . S
O277 C271 1.268 . S
O278 Sc266 2.105 . S
O278 C272 1.268 . S
O279 Sc265 2.105 . S
O279 C273 1.268 . S
O280 Sc264 2.105 . S
O280 C272 1.268 . S
O281 Sc265 2.105 . S
O281 C271 1.268 . S
O282 Sc266 2.105 . S
O282 C273 1.268 . S
O283 Sc264 2.105 . S
O283 C269 1.268 . S
O284 Sc266 2.105 . S
O284 C268 1.268 . S
O285 Sc265 2.105 . S
O285 C270 1.268 . S
Sc286 O289 2.025 . S
Sc286 O296 2.105 . S
Sc286 O299 2.105 . S
Sc286 O302 2.105 . S
Sc286 O305 2.105 . S
Sc287 O289 2.025 . S
Sc287 O297 2.105 . S
Sc287 O301 2.105 . S
Sc287 O303 2.105 . S
Sc287 O307 2.105 . S
Sc288 O289 2.025 . S
Sc288 O298 2.105 . S
Sc288 O300 2.105 . S
Sc288 O304 2.105 . S
Sc288 O306 2.105 . S
O289 Sc286 2.025 . S
O289 Sc287 2.025 . S
O289 Sc288 2.025 . S
C290 O296 1.268 . S
C290 O306 1.268 . S
C291 O297 1.268 . S
C291 O305 1.268 . S
C292 O298 1.268 . S
C292 O307 1.268 . S
C293 O299 1.268 . S
C293 O303 1.268 . S
C294 O300 1.268 . S
C294 O302 1.268 . S
C295 O301 1.268 . S
C295 O304 1.268 . S
O296 Sc286 2.105 . S
O296 C290 1.268 . S
O297 Sc287 2.105 . S
O297 C291 1.268 . S
O298 Sc288 2.105 . S
O298 C292 1.268 . S
O299 Sc286 2.105 . S
O299 C293 1.268 . S
O300 Sc288 2.105 . S
O300 C294 1.268 . S
O301 Sc287 2.105 . S
O301 C295 1.268 . S
O302 Sc286 2.105 . S
O302 C294 1.268 . S
O303 Sc287 2.105 . S
O303 C293 1.268 . S
O304 Sc288 2.105 . S
O304 C295 1.268 . S
O305 Sc286 2.105 . S
O305 C291 1.268 . S
O306 Sc288 2.105 . S
O306 C290 1.268 . S
O307 Sc287 2.105 . S
O307 C292 1.268 . S
Sc308 O311 2.025 . S
Sc308 O318 2.105 . S
Sc308 O321 2.105 . S
Sc308 O324 2.105 . S
Sc308 O327 2.105 . S
Sc309 O311 2.025 . S
Sc309 O319 2.105 . S
Sc309 O323 2.105 . S
Sc309 O325 2.105 . S
Sc309 O329 2.105 . S
Sc310 O311 2.025 . S
Sc310 O320 2.105 . S
Sc310 O322 2.105 . S
Sc310 O326 2.105 . S
Sc310 O328 2.105 . S
O311 Sc308 2.025 . S
O311 Sc309 2.025 . S
O311 Sc310 2.025 . S
C312 O318 1.268 . S
C312 O328 1.268 . S
C313 O319 1.268 . S
C313 O327 1.268 . S
C314 O320 1.268 . S
C314 O329 1.268 . S
C315 O321 1.268 . S
C315 O325 1.268 . S
C316 O322 1.268 . S
C316 O324 1.268 . S
C317 O323 1.268 . S
C317 O326 1.268 . S
O318 Sc308 2.105 . S
O318 C312 1.268 . S
O319 Sc309 2.105 . S
O319 C313 1.268 . S
O320 Sc310 2.105 . S
O320 C314 1.268 . S
O321 Sc308 2.105 . S
O321 C315 1.268 . S
O322 Sc310 2.105 . S
O322 C316 1.268 . S
O323 Sc309 2.105 . S
O323 C317 1.268 . S
O324 Sc308 2.105 . S
O324 C316 1.268 . S
O325 Sc309 2.105 . S
O325 C315 1.268 . S
O326 Sc310 2.105 . S
O326 C317 1.268 . S
O327 Sc308 2.105 . S
O327 C313 1.268 . S
O328 Sc310 2.105 . S
O328 C312 1.268 . S
O329 Sc309 2.105 . S
O329 C314 1.268 . S
Sc330 O333 2.025 . S
Sc330 O340 2.105 . S
Sc330 O343 2.105 . S
Sc330 O346 2.105 . S
Sc330 O349 2.105 . S
Sc331 O333 2.025 . S
Sc331 O341 2.105 . S
Sc331 O345 2.105 . S
Sc331 O347 2.105 . S
Sc331 O351 2.105 . S
Sc332 O333 2.025 . S
Sc332 O342 2.105 . S
Sc332 O344 2.105 . S
Sc332 O348 2.105 . S
Sc332 O350 2.105 . S
O333 Sc330 2.025 . S
O333 Sc331 2.025 . S
O333 Sc332 2.025 . S
C334 O340 1.268 . S
C334 O350 1.268 . S
C335 O341 1.268 . S
C335 O349 1.268 . S
C336 O342 1.268 . S
C336 O351 1.268 . S
C337 O343 1.268 . S
C337 O347 1.268 . S
C338 O344 1.268 . S
C338 O346 1.268 . S
C339 O345 1.268 . S
C339 O348 1.268 . S
O340 Sc330 2.105 . S
O340 C334 1.268 . S
O341 Sc331 2.105 . S
O341 C335 1.268 . S
O342 Sc332 2.105 . S
O342 C336 1.268 . S
O343 Sc330 2.105 . S
O343 C337 1.268 . S
O344 Sc332 2.105 . S
O344 C338 1.268 . S
O345 Sc331 2.105 . S
O345 C339 1.268 . S
O346 Sc330 2.105 . S
O346 C338 1.268 . S
O347 Sc331 2.105 . S
O347 C337 1.268 . S
O348 Sc332 2.105 . S
O348 C339 1.268 . S
O349 Sc330 2.105 . S
O349 C335 1.268 . S
O350 Sc332 2.105 . S
O350 C334 1.268 . S
O351 Sc331 2.105 . S
O351 C336 1.268 . S
C352 O364 1.241 . S
C352 O365 1.280 . S
C353 O366 1.277 . S
C353 O367 1.245 . S
C354 O378 1.247 . S
C354 O380 1.289 . S
Mg355 O356 1.926 1_455 S
Mg355 O365 1.984 1_455 S
Mg355 O367 1.988 . S
Mg355 O368 2.061 1_455 S
O356 Mg355 1.926 1_655 S
O356 Mg357 1.986 . S
O356 Mg358 1.917 1_655 S
Mg357 O356 1.986 . S
Mg357 O364 2.042 . S
Mg357 O366 2.041 1_655 S
Mg357 O372 2.038 . S
Mg357 O380 2.238 1_655 S
Mg358 O356 1.917 1_455 S
Mg358 O359 1.917 . S
Mg358 O369 2.106 1_455 S
Mg358 O371 2.079 1_455 S
Mg358 O380 2.106 . S
Mg358 O381 2.079 . S
O359 Mg358 1.917 . S
O359 Mg360 1.926 1_455 S
O359 Mg361 1.986 . S
Mg360 O359 1.926 1_655 S
Mg360 O374 1.984 1_655 S
Mg360 O377 1.988 . S
Mg360 O378 2.061 1_655 S
Mg361 O359 1.986 . S
Mg361 O369 2.238 1_455 S
Mg361 O373 2.042 . S
Mg361 O375 2.041 1_455 S
Mg361 O382 2.038 . S
C362 O368 1.247 . S
C362 O369 1.289 . S
C363 O381 1.245 . S
C363 O382 1.274 . S
O364 C352 1.241 . S
O364 Mg357 2.042 . S
O365 C352 1.280 . S
O365 Mg355 1.984 1_655 S
O366 C353 1.277 . S
O366 Mg357 2.041 1_455 S
O367 C353 1.245 . S
O367 Mg355 1.988 . S
O368 Mg355 2.061 1_655 S
O368 C362 1.247 . S
O369 Mg358 2.106 1_655 S
O369 Mg361 2.238 1_655 S
O369 C362 1.289 . S
C370 O371 1.245 . S
C370 O372 1.274 . S
O371 Mg358 2.079 1_655 S
O371 C370 1.245 . S
O372 Mg357 2.038 . S
O372 C370 1.274 . S
O373 Mg361 2.042 . S
O373 C376 1.241 . S
O374 Mg360 1.984 1_455 S
O374 C376 1.280 . S
O375 Mg361 2.041 1_655 S
O375 C379 1.277 . S
C376 O373 1.241 . S
C376 O374 1.280 . S
O377 Mg360 1.988 . S
O377 C379 1.245 . S
O378 C354 1.247 . S
O378 Mg360 2.061 1_455 S
C379 O375 1.277 . S
C379 O377 1.245 . S
O380 C354 1.289 . S
O380 Mg357 2.238 1_455 S
O380 Mg358 2.106 . S
O381 Mg358 2.079 . S
O381 C363 1.245 . S
O382 Mg361 2.038 . S
O382 C363 1.274 . S
C383 O395 1.241 . S
C383 O396 1.280 . S
C384 O397 1.277 . S
C384 O398 1.245 . S
C385 O409 1.247 . S
C385 O411 1.289 . S
Mg386 O387 1.926 . S
Mg386 O396 1.984 . S
Mg386 O398 1.988 . S
Mg386 O399 2.061 . S
O387 Mg386 1.926 . S
O387 Mg388 1.986 . S
O387 Mg389 1.917 . S
Mg388 O387 1.986 . S
Mg388 O395 2.042 . S
Mg388 O397 2.041 . S
Mg388 O403 2.038 . S
Mg388 O411 2.238 . S
Mg389 O387 1.917 . S
Mg389 O390 1.917 . S
Mg389 O400 2.106 . S
Mg389 O402 2.079 . S
Mg389 O411 2.106 . S
Mg389 O412 2.079 . S
O390 Mg389 1.917 . S
O390 Mg391 1.926 . S
O390 Mg392 1.986 . S
Mg391 O390 1.926 . S
Mg391 O405 1.984 . S
Mg391 O408 1.988 . S
Mg391 O409 2.061 . S
Mg392 O390 1.986 . S
Mg392 O400 2.238 . S
Mg392 O404 2.042 . S
Mg392 O406 2.041 . S
Mg392 O413 2.038 . S
C393 O399 1.247 . S
C393 O400 1.289 . S
C394 O412 1.245 . S
C394 O413 1.274 . S
O395 C383 1.241 . S
O395 Mg388 2.042 . S
O396 C383 1.280 . S
O396 Mg386 1.984 . S
O397 C384 1.277 . S
O397 Mg388 2.041 . S
O398 C384 1.245 . S
O398 Mg386 1.988 . S
O399 Mg386 2.061 . S
O399 C393 1.247 . S
O400 Mg389 2.106 . S
O400 Mg392 2.238 . S
O400 C393 1.289 . S
C401 O402 1.245 . S
C401 O403 1.274 . S
O402 Mg389 2.079 . S
O402 C401 1.245 . S
O403 Mg388 2.038 . S
O403 C401 1.274 . S
O404 Mg392 2.042 . S
O404 C407 1.241 . S
O405 Mg391 1.984 . S
O405 C407 1.280 . S
O406 Mg392 2.041 . S
O406 C410 1.277 . S
C407 O404 1.241 . S
C407 O405 1.280 . S
O408 Mg391 1.988 . S
O408 C410 1.245 . S
O409 C385 1.247 . S
O409 Mg391 2.061 . S
C410 O406 1.277 . S
C410 O408 1.245 . S
O411 C385 1.289 . S
O411 Mg388 2.238 . S
O411 Mg389 2.106 . S
O412 Mg389 2.079 . S
O412 C394 1.245 . S
O413 Mg392 2.038 . S
O413 C394 1.274 . S
C414 O426 1.241 . S
C414 O427 1.280 . S
C415 O428 1.277 . S
C415 O429 1.245 . S
C416 O440 1.247 . S
C416 O442 1.289 . S
Mg417 O418 1.926 1_455 S
Mg417 O427 1.984 1_455 S
Mg417 O429 1.988 . S
Mg417 O430 2.061 . S
O418 Mg417 1.926 1_655 S
O418 Mg419 1.986 . S
O418 Mg420 1.917 1_655 S
Mg419 O418 1.986 . S
Mg419 O426 2.042 . S
Mg419 O428 2.041 1_655 S
Mg419 O434 2.038 . S
Mg419 O442 2.238 1_655 S
Mg420 O418 1.917 1_455 S
Mg420 O421 1.917 . S
Mg420 O431 2.105 1_455 S
Mg420 O433 2.079 1_455 S
Mg420 O442 2.106 . S
Mg420 O443 2.079 . S
O421 Mg420 1.917 . S
O421 Mg422 1.926 1_455 S
O421 Mg423 1.986 . S
Mg422 O421 1.926 1_655 S
Mg422 O436 1.984 1_655 S
Mg422 O439 1.988 . S
Mg422 O440 2.061 1_655 S
Mg423 O421 1.986 . S
Mg423 O431 2.229 1_455 S
Mg423 O435 2.042 . S
Mg423 O437 2.041 1_455 S
Mg423 O444 2.038 . S
C424 O430 1.247 1_655 S
C424 O431 1.292 . S
C425 O443 1.245 . S
C425 O444 1.274 . S
O426 C414 1.241 . S
O426 Mg419 2.042 . S
O427 C414 1.280 . S
O427 Mg417 1.984 1_655 S
O428 C415 1.277 . S
O428 Mg419 2.041 1_455 S
O429 C415 1.245 . S
O429 Mg417 1.988 . S
O430 Mg417 2.061 . S
O430 C424 1.247 1_455 S
O431 Mg420 2.105 1_655 S
O431 Mg423 2.229 1_655 S
O431 C424 1.292 . S
C432 O433 1.245 . S
C432 O434 1.274 . S
O433 Mg420 2.079 1_655 S
O433 C432 1.245 . S
O434 Mg419 2.038 . S
O434 C432 1.274 . S
O435 Mg423 2.042 . S
O435 C438 1.241 . S
O436 Mg422 1.984 1_455 S
O436 C438 1.280 . S
O437 Mg423 2.041 1_655 S
O437 C441 1.277 . S
C438 O435 1.241 . S
C438 O436 1.280 . S
O439 Mg422 1.988 . S
O439 C441 1.245 . S
O440 C416 1.247 . S
O440 Mg422 2.061 1_455 S
C441 O437 1.277 . S
C441 O439 1.245 . S
O442 C416 1.289 . S
O442 Mg419 2.238 1_455 S
O442 Mg420 2.106 . S
O443 Mg420 2.079 . S
O443 C425 1.245 . S
O444 Mg423 2.038 . S
O444 C425 1.274 . S
C445 O457 1.241 . S
C445 O458 1.280 . S
C446 O459 1.277 . S
C446 O460 1.245 . S
C447 O471 1.247 . S
C447 O473 1.289 . S
Mg448 O449 1.926 1_565 S
Mg448 O458 1.984 1_565 S
Mg448 O460 1.988 . S
Mg448 O461 2.061 1_565 S
O449 Mg448 1.926 1_545 S
O449 Mg450 1.986 . S
O449 Mg451 1.920 . S
Mg450 O449 1.986 . S
Mg450 O457 2.042 . S
Mg450 O459 2.041 1_545 S
Mg450 O465 2.038 . S
Mg450 O473 2.238 1_545 S
Mg451 O449 1.920 . S
Mg451 O452 1.914 1_545 S
Mg451 O462 2.108 . S
Mg451 O464 2.094 . S
Mg451 O473 2.105 1_545 S
Mg451 O474 2.064 1_545 S
O452 Mg451 1.914 1_565 S
O452 Mg453 1.926 1_565 S
O452 Mg454 1.986 . S
Mg453 O452 1.926 1_545 S
Mg453 O467 1.984 1_545 S
Mg453 O470 1.988 . S
Mg453 O471 2.061 1_545 S
Mg454 O452 1.986 . S
Mg454 O462 2.238 1_565 S
Mg454 O466 2.042 . S
Mg454 O468 2.041 1_565 S
Mg454 O475 2.038 . S
C455 O461 1.247 . S
C455 O462 1.289 . S
C456 O474 1.245 . S
C456 O475 1.274 . S
O457 C445 1.241 . S
O457 Mg450 2.042 . S
O458 C445 1.280 . S
O458 Mg448 1.984 1_545 S
O459 C446 1.277 . S
O459 Mg450 2.041 1_565 S
O460 C446 1.245 . S
O460 Mg448 1.988 . S
O461 Mg448 2.061 1_545 S
O461 C455 1.247 . S
O462 Mg451 2.108 . S
O462 Mg454 2.238 1_545 S
O462 C455 1.289 . S
C463 O464 1.245 . S
C463 O465 1.274 . S
O464 Mg451 2.094 . S
O464 C463 1.245 . S
O465 Mg450 2.038 . S
O465 C463 1.274 . S
O466 Mg454 2.042 . S
O466 C469 1.241 . S
O467 Mg453 1.984 1_565 S
O467 C469 1.280 . S
O468 Mg454 2.041 1_545 S
O468 C472 1.277 . S
C469 O466 1.241 . S
C469 O467 1.280 . S
O470 Mg453 1.988 . S
O470 C472 1.245 . S
O471 C447 1.247 . S
O471 Mg453 2.061 1_565 S
C472 O468 1.277 . S
C472 O470 1.245 . S
O473 C447 1.289 . S
O473 Mg450 2.238 1_565 S
O473 Mg451 2.105 1_565 S
O474 Mg451 2.064 1_565 S
O474 C456 1.245 . S
O475 Mg454 2.038 . S
O475 C456 1.274 . S
C476 O488 1.241 . S
C476 O489 1.280 . S
C477 O490 1.277 . S
C477 O491 1.245 . S
C478 O502 1.247 . S
C478 O504 1.289 . S
Mg479 O480 1.926 1_554 S
Mg479 O489 1.984 1_554 S
Mg479 O491 1.988 . S
Mg479 O492 2.061 . S
O480 Mg479 1.926 1_556 S
O480 Mg481 1.987 . S
O480 Mg482 1.917 1_556 S
Mg481 O480 1.987 . S
Mg481 O488 2.042 . S
Mg481 O490 2.041 1_556 S
Mg481 O496 2.038 . S
Mg481 O504 2.238 . S
Mg482 O480 1.917 1_554 S
Mg482 O483 1.917 . S
Mg482 O493 2.106 . S
Mg482 O495 2.079 1_554 S
Mg482 O504 2.106 1_554 S
Mg482 O505 2.079 . S
O483 Mg482 1.917 . S
O483 Mg484 1.926 1_554 S
O483 Mg485 1.986 . S
Mg484 O483 1.926 1_556 S
Mg484 O498 1.984 1_556 S
Mg484 O501 1.988 . S
Mg484 O502 2.061 . S
Mg485 O483 1.986 . S
Mg485 O493 2.238 . S
Mg485 O497 2.042 . S
Mg485 O499 2.041 . S
Mg485 O506 2.038 . S
C486 O492 1.247 . S
C486 O493 1.289 . S
C487 O505 1.245 . S
C487 O506 1.274 . S
O488 C476 1.241 . S
O488 Mg481 2.042 . S
O489 C476 1.280 . S
O489 Mg479 1.984 1_556 S
O490 C477 1.277 . S
O490 Mg481 2.041 1_554 S
O491 C477 1.245 . S
O491 Mg479 1.988 . S
O492 Mg479 2.061 . S
O492 C486 1.247 . S
O493 Mg482 2.106 . S
O493 Mg485 2.238 . S
O493 C486 1.289 . S
C494 O495 1.245 . S
C494 O496 1.274 . S
O495 Mg482 2.079 1_556 S
O495 C494 1.245 . S
O496 Mg481 2.038 . S
O496 C494 1.274 . S
O497 Mg485 2.042 . S
O497 C500 1.241 . S
O498 Mg484 1.984 1_554 S
O498 C500 1.280 . S
O499 Mg485 2.041 . S
O499 C503 1.277 1_554 S
C500 O497 1.241 . S
C500 O498 1.280 . S
O501 Mg484 1.988 . S
O501 C503 1.245 . S
O502 C478 1.247 . S
O502 Mg484 2.061 . S
C503 O499 1.277 1_556 S
C503 O501 1.245 . S
O504 C478 1.289 . S
O504 Mg481 2.238 . S
O504 Mg482 2.106 1_556 S
O505 Mg482 2.079 . S
O505 C487 1.245 . S
O506 Mg485 2.038 . S
O506 C487 1.274 . S
C507 O519 1.241 . S
C507 O520 1.280 . S
C508 O521 1.277 . S
C508 O522 1.245 . S
C509 O533 1.247 . S
C509 O535 1.289 . S
Mg510 O511 1.926 . S
Mg510 O520 1.984 . S
Mg510 O522 1.988 . S
Mg510 O523 2.061 . S
O511 Mg510 1.926 . S
O511 Mg512 1.986 . S
O511 Mg513 1.917 . S
Mg512 O511 1.986 . S
Mg512 O519 2.042 . S
Mg512 O521 2.041 . S
Mg512 O527 2.038 . S
Mg512 O535 2.238 . S
Mg513 O511 1.917 . S
Mg513 O514 1.917 . S
Mg513 O524 2.106 . S
Mg513 O526 2.079 . S
Mg513 O535 2.106 . S
Mg513 O536 2.079 . S
O514 Mg513 1.917 . S
O514 Mg515 1.926 . S
O514 Mg516 1.986 . S
Mg515 O514 1.926 . S
Mg515 O529 1.984 . S
Mg515 O532 1.988 . S
Mg515 O533 2.061 . S
Mg516 O514 1.986 . S
Mg516 O524 2.238 . S
Mg516 O528 2.042 . S
Mg516 O530 2.041 . S
Mg516 O537 2.038 . S
C517 O523 1.247 . S
C517 O524 1.289 . S
C518 O536 1.245 . S
C518 O537 1.274 . S
O519 C507 1.241 . S
O519 Mg512 2.042 . S
O520 C507 1.280 . S
O520 Mg510 1.984 . S
O521 C508 1.277 . S
O521 Mg512 2.041 . S
O522 C508 1.245 . S
O522 Mg510 1.988 . S
O523 Mg510 2.061 . S
O523 C517 1.247 . S
O524 Mg513 2.106 . S
O524 Mg516 2.238 . S
O524 C517 1.289 . S
C525 O526 1.245 . S
C525 O527 1.274 . S
O526 Mg513 2.079 . S
O526 C525 1.245 . S
O527 Mg512 2.038 . S
O527 C525 1.274 . S
O528 Mg516 2.042 . S
O528 C531 1.241 . S
O529 Mg515 1.984 . S
O529 C531 1.280 . S
O530 Mg516 2.041 . S
O530 C534 1.277 . S
C531 O528 1.241 . S
C531 O529 1.280 . S
O532 Mg515 1.988 . S
O532 C534 1.245 . S
O533 C509 1.247 . S
O533 Mg515 2.061 . S
C534 O530 1.277 . S
C534 O532 1.245 . S
O535 C509 1.289 . S
O535 Mg512 2.238 . S
O535 Mg513 2.106 . S
O536 Mg513 2.079 . S
O536 C518 1.245 . S
O537 Mg516 2.038 . S
O537 C518 1.274 . S
C538 O550 1.241 . S
C538 O551 1.280 . S
C539 O552 1.277 . S
C539 O553 1.245 . S
C540 O564 1.247 1_556 S
C540 O566 1.289 . S
Mg541 O542 1.926 1_556 S
Mg541 O551 1.984 1_556 S
Mg541 O553 1.988 . S
Mg541 O554 2.062 1_556 S
O542 Mg541 1.926 1_554 S
O542 Mg543 1.986 . S
O542 Mg544 1.917 . S
Mg543 O542 1.986 . S
Mg543 O550 2.042 . S
Mg543 O552 2.041 1_554 S
Mg543 O558 2.038 . S
Mg543 O566 2.238 1_554 S
Mg544 O542 1.917 . S
Mg544 O545 1.917 1_554 S
Mg544 O555 2.106 . S
Mg544 O557 2.079 . S
Mg544 O566 2.106 1_554 S
Mg544 O567 2.079 1_554 S
O545 Mg544 1.917 1_556 S
O545 Mg546 1.926 1_556 S
O545 Mg547 1.986 . S
Mg546 O545 1.926 1_554 S
Mg546 O560 1.984 1_554 S
Mg546 O563 1.988 . S
Mg546 O564 2.062 . S
Mg547 O545 1.986 . S
Mg547 O555 2.238 1_556 S
Mg547 O559 2.042 . S
Mg547 O561 2.041 1_556 S
Mg547 O568 2.038 . S
C548 O554 1.247 . S
C548 O555 1.289 . S
C549 O567 1.245 . S
C549 O568 1.274 . S
O550 C538 1.241 . S
O550 Mg543 2.042 . S
O551 C538 1.280 . S
O551 Mg541 1.984 1_554 S
O552 C539 1.277 . S
O552 Mg543 2.041 1_556 S
O553 C539 1.245 . S
O553 Mg541 1.988 . S
O554 Mg541 2.062 1_554 S
O554 C548 1.247 . S
O555 Mg544 2.106 . S
O555 Mg547 2.238 1_554 S
O555 C548 1.289 . S
C556 O557 1.245 . S
C556 O558 1.274 . S
O557 Mg544 2.079 . S
O557 C556 1.245 . S
O558 Mg543 2.038 . S
O558 C556 1.274 . S
O559 Mg547 2.042 . S
O559 C562 1.241 . S
O560 Mg546 1.984 1_556 S
O560 C562 1.280 . S
O561 Mg547 2.041 1_554 S
O561 C565 1.277 . S
C562 O559 1.241 . S
C562 O560 1.280 . S
O563 Mg546 1.988 . S
O563 C565 1.245 . S
O564 C540 1.247 1_554 S
O564 Mg546 2.062 . S
C565 O561 1.277 . S
C565 O563 1.245 . S
O566 C540 1.289 . S
O566 Mg543 2.238 1_556 S
O566 Mg544 2.106 1_556 S
O567 Mg544 2.079 1_556 S
O567 C549 1.245 . S
O568 Mg547 2.038 . S
O568 C549 1.274 . S
C569 O581 1.241 . S
C569 O582 1.280 . S
C570 O583 1.277 . S
C570 O584 1.245 . S
C571 O595 1.247 . S
C571 O597 1.289 . S
Mg572 O573 1.926 . S
Mg572 O582 1.984 . S
Mg572 O584 1.988 . S
Mg572 O585 2.061 . S
O573 Mg572 1.926 . S
O573 Mg574 1.986 . S
O573 Mg575 1.917 . S
Mg574 O573 1.986 . S
Mg574 O581 2.042 . S
Mg574 O583 2.041 . S
Mg574 O589 2.038 . S
Mg574 O597 2.238 . S
Mg575 O573 1.917 . S
Mg575 O576 1.917 . S
Mg575 O586 2.106 . S
Mg575 O588 2.079 . S
Mg575 O597 2.106 . S
Mg575 O598 2.079 . S
O576 Mg575 1.917 . S
O576 Mg577 1.926 . S
O576 Mg578 1.986 . S
Mg577 O576 1.926 . S
Mg577 O591 1.984 . S
Mg577 O594 1.988 . S
Mg577 O595 2.061 . S
Mg578 O576 1.986 . S
Mg578 O586 2.238 . S
Mg578 O590 2.042 . S
Mg578 O592 2.041 . S
Mg578 O599 2.038 . S
C579 O585 1.247 . S
C579 O586 1.289 . S
C580 O598 1.245 . S
C580 O599 1.274 . S
O581 C569 1.241 . S
O581 Mg574 2.042 . S
O582 C569 1.280 . S
O582 Mg572 1.984 . S
O583 C570 1.277 . S
O583 Mg574 2.041 . S
O584 C570 1.245 . S
O584 Mg572 1.988 . S
O585 Mg572 2.061 . S
O585 C579 1.247 . S
O586 Mg575 2.106 . S
O586 Mg578 2.238 . S
O586 C579 1.289 . S
C587 O588 1.245 . S
C587 O589 1.274 . S
O588 Mg575 2.079 . S
O588 C587 1.245 . S
O589 Mg574 2.038 . S
O589 C587 1.274 . S
O590 Mg578 2.042 . S
O590 C593 1.241 . S
O591 Mg577 1.984 . S
O591 C593 1.280 . S
O592 Mg578 2.041 . S
O592 C596 1.277 . S
C593 O590 1.241 . S
C593 O591 1.280 . S
O594 Mg577 1.988 . S
O594 C596 1.245 . S
O595 C571 1.247 . S
O595 Mg577 2.061 . S
C596 O592 1.277 . S
C596 O594 1.245 . S
O597 C571 1.289 . S
O597 Mg574 2.238 . S
O597 Mg575 2.106 . S
O598 Mg575 2.079 . S
O598 C580 1.245 . S
O599 Mg578 2.038 . S
O599 C580 1.274 . S
C600 O612 1.241 . S
C600 O613 1.280 . S
C601 O614 1.277 . S
C601 O615 1.245 . S
C602 O626 1.247 . S
C602 O628 1.289 . S
Mg603 O604 1.926 . S
Mg603 O613 1.984 . S
Mg603 O615 1.988 . S
Mg603 O616 2.061 . S
O604 Mg603 1.926 . S
O604 Mg605 1.986 . S
O604 Mg606 1.917 . S
Mg605 O604 1.986 . S
Mg605 O612 2.042 . S
Mg605 O614 2.041 . S
Mg605 O620 2.038 . S
Mg605 O628 2.238 . S
Mg606 O604 1.917 . S
Mg606 O607 1.917 . S
Mg606 O617 2.106 . S
Mg606 O619 2.079 . S
Mg606 O628 2.106 . S
Mg606 O629 2.079 . S
O607 Mg606 1.917 . S
O607 Mg608 1.926 . S
O607 Mg609 1.986 . S
Mg608 O607 1.926 . S
Mg608 O622 1.984 . S
Mg608 O625 1.988 . S
Mg608 O626 2.061 . S
Mg609 O607 1.986 . S
Mg609 O617 2.238 . S
Mg609 O621 2.042 . S
Mg609 O623 2.041 . S
Mg609 O630 2.038 . S
C610 O616 1.247 . S
C610 O617 1.289 . S
C611 O629 1.245 . S
C611 O630 1.274 . S
O612 C600 1.241 . S
O612 Mg605 2.042 . S
O613 C600 1.280 . S
O613 Mg603 1.984 . S
O614 C601 1.277 . S
O614 Mg605 2.041 . S
O615 C601 1.245 . S
O615 Mg603 1.988 . S
O616 Mg603 2.061 . S
O616 C610 1.247 . S
O617 Mg606 2.106 . S
O617 Mg609 2.238 . S
O617 C610 1.289 . S
C618 O619 1.245 . S
C618 O620 1.274 . S
O619 Mg606 2.079 . S
O619 C618 1.245 . S
O620 Mg605 2.038 . S
O620 C618 1.274 . S
O621 Mg609 2.042 . S
O621 C624 1.241 . S
O622 Mg608 1.984 . S
O622 C624 1.280 . S
O623 Mg609 2.041 . S
O623 C627 1.277 . S
C624 O621 1.241 . S
C624 O622 1.280 . S
O625 Mg608 1.988 . S
O625 C627 1.245 . S
O626 C602 1.247 . S
O626 Mg608 2.061 . S
C627 O623 1.277 . S
C627 O625 1.245 . S
O628 C602 1.289 . S
O628 Mg605 2.238 . S
O628 Mg606 2.106 . S
O629 Mg606 2.079 . S
O629 C611 1.245 . S
O630 Mg609 2.038 . S
O630 C611 1.274 . S
C631 O643 1.241 . S
C631 O644 1.280 . S
C632 O645 1.277 . S
C632 O646 1.245 . S
C633 O657 1.247 . S
C633 O659 1.289 . S
Mg634 O635 1.926 . S
Mg634 O644 1.984 . S
Mg634 O646 1.988 . S
Mg634 O647 2.061 . S
O635 Mg634 1.926 . S
O635 Mg636 1.986 . S
O635 Mg637 1.917 . S
Mg636 O635 1.986 . S
Mg636 O643 2.042 . S
Mg636 O645 2.041 . S
Mg636 O651 2.038 . S
Mg636 O659 2.238 . S
Mg637 O635 1.917 . S
Mg637 O638 1.917 . S
Mg637 O648 2.106 . S
Mg637 O650 2.079 . S
Mg637 O659 2.106 . S
Mg637 O660 2.079 . S
O638 Mg637 1.917 . S
O638 Mg639 1.926 . S
O638 Mg640 1.986 . S
Mg639 O638 1.926 . S
Mg639 O653 1.984 . S
Mg639 O656 1.988 . S
Mg639 O657 2.061 . S
Mg640 O638 1.986 . S
Mg640 O648 2.238 . S
Mg640 O652 2.042 . S
Mg640 O654 2.041 . S
Mg640 O661 2.038 . S
C641 O647 1.247 . S
C641 O648 1.289 . S
C642 O660 1.245 . S
C642 O661 1.274 . S
O643 C631 1.241 . S
O643 Mg636 2.042 . S
O644 C631 1.280 . S
O644 Mg634 1.984 . S
O645 C632 1.277 . S
O645 Mg636 2.041 . S
O646 C632 1.245 . S
O646 Mg634 1.988 . S
O647 Mg634 2.061 . S
O647 C641 1.247 . S
O648 Mg637 2.106 . S
O648 Mg640 2.238 . S
O648 C641 1.289 . S
C649 O650 1.245 . S
C649 O651 1.274 . S
O650 Mg637 2.079 . S
O650 C649 1.245 . S
O651 Mg636 2.038 . S
O651 C649 1.274 . S
O652 Mg640 2.042 . S
O652 C655 1.241 . S
O653 Mg639 1.984 . S
O653 C655 1.280 . S
O654 Mg640 2.041 . S
O654 C658 1.277 . S
C655 O652 1.241 . S
C655 O653 1.280 . S
O656 Mg639 1.988 . S
O656 C658 1.245 . S
O657 C633 1.247 . S
O657 Mg639 2.061 . S
C658 O654 1.277 . S
C658 O656 1.245 . S
O659 C633 1.289 . S
O659 Mg636 2.238 . S
O659 Mg637 2.106 . S
O660 Mg637 2.079 . S
O660 C642 1.245 . S
O661 Mg640 2.038 . S
O661 C642 1.274 . S
C662 O674 1.241 . S
C662 O675 1.280 . S
C663 O676 1.277 . S
C663 O677 1.245 . S
C664 O688 1.247 . S
C664 O690 1.289 . S
Mg665 O666 1.926 1_565 S
Mg665 O675 1.984 1_565 S
Mg665 O677 1.988 . S
Mg665 O678 2.061 1_565 S
O666 Mg665 1.926 1_545 S
O666 Mg667 1.986 . S
O666 Mg668 1.922 . S
Mg667 O666 1.986 . S
Mg667 O674 2.042 . S
Mg667 O676 2.041 1_545 S
Mg667 O682 2.038 . S
Mg667 O690 2.238 1_545 S
Mg668 O666 1.922 . S
Mg668 O669 1.912 1_545 S
Mg668 O679 2.109 . S
Mg668 O681 2.100 . S
Mg668 O690 2.104 1_545 S
Mg668 O691 2.057 1_545 S
O669 Mg668 1.912 1_565 S
O669 Mg670 1.926 1_565 S
O669 Mg671 1.986 . S
Mg670 O669 1.926 1_545 S
Mg670 O684 1.984 1_545 S
Mg670 O687 1.988 . S
Mg670 O688 2.061 1_545 S
Mg671 O669 1.986 . S
Mg671 O679 2.238 1_565 S
Mg671 O683 2.042 . S
Mg671 O685 2.041 1_565 S
Mg671 O692 2.038 . S
C672 O678 1.247 . S
C672 O679 1.289 . S
C673 O691 1.245 . S
C673 O692 1.274 . S
O674 C662 1.241 . S
O674 Mg667 2.042 . S
O675 C662 1.280 . S
O675 Mg665 1.984 1_545 S
O676 C663 1.277 . S
O676 Mg667 2.041 1_565 S
O677 C663 1.245 . S
O677 Mg665 1.988 . S
O678 Mg665 2.061 1_545 S
O678 C672 1.247 . S
O679 Mg668 2.109 . S
O679 Mg671 2.238 1_545 S
O679 C672 1.289 . S
C680 O681 1.245 . S
C680 O682 1.274 . S
O681 Mg668 2.100 . S
O681 C680 1.245 . S
O682 Mg667 2.038 . S
O682 C680 1.274 . S
O683 Mg671 2.042 . S
O683 C686 1.241 . S
O684 Mg670 1.984 1_565 S
O684 C686 1.280 . S
O685 Mg671 2.041 1_545 S
O685 C689 1.277 . S
C686 O683 1.241 . S
C686 O684 1.280 . S
O687 Mg670 1.988 . S
O687 C689 1.245 . S
O688 C664 1.247 . S
O688 Mg670 2.061 1_565 S
C689 O685 1.277 . S
C689 O687 1.245 . S
O690 C664 1.289 . S
O690 Mg667 2.238 1_565 S
O690 Mg668 2.104 1_565 S
O691 Mg668 2.057 1_565 S
O691 C673 1.245 . S
O692 Mg671 2.038 . S
O692 C673 1.274 . S
C693 O705 1.241 . S
C693 O706 1.280 . S
C694 O707 1.277 . S
C694 O708 1.245 . S
C695 O719 1.247 . S
C695 O721 1.289 . S
Mg696 O697 1.926 . S
Mg696 O706 1.984 . S
Mg696 O708 1.988 . S
Mg696 O709 2.061 . S
O697 Mg696 1.926 . S
O697 Mg698 1.986 . S
O697 Mg699 1.917 . S
Mg698 O697 1.986 . S
Mg698 O705 2.042 . S
Mg698 O707 2.041 . S
Mg698 O713 2.038 . S
Mg698 O721 2.238 . S
Mg699 O697 1.917 . S
Mg699 O700 1.917 . S
Mg699 O710 2.106 . S
Mg699 O712 2.079 . S
Mg699 O721 2.106 . S
Mg699 O722 2.079 . S
O700 Mg699 1.917 . S
O700 Mg701 1.926 . S
O700 Mg702 1.986 . S
Mg701 O700 1.926 . S
Mg701 O715 1.984 . S
Mg701 O718 1.988 . S
Mg701 O719 2.061 . S
Mg702 O700 1.986 . S
Mg702 O710 2.238 . S
Mg702 O714 2.042 . S
Mg702 O716 2.041 . S
Mg702 O723 2.038 . S
C703 O709 1.247 . S
C703 O710 1.289 . S
C704 O722 1.245 . S
C704 O723 1.274 . S
O705 C693 1.241 . S
O705 Mg698 2.042 . S
O706 C693 1.280 . S
O706 Mg696 1.984 . S
O707 C694 1.277 . S
O707 Mg698 2.041 . S
O708 C694 1.245 . S
O708 Mg696 1.988 . S
O709 Mg696 2.061 . S
O709 C703 1.247 . S
O710 Mg699 2.106 . S
O710 Mg702 2.238 . S
O710 C703 1.289 . S
C711 O712 1.245 . S
C711 O713 1.274 . S
O712 Mg699 2.079 . S
O712 C711 1.245 . S
O713 Mg698 2.038 . S
O713 C711 1.274 . S
O714 Mg702 2.042 . S
O714 C717 1.241 . S
O715 Mg701 1.984 . S
O715 C717 1.280 . S
O716 Mg702 2.041 . S
O716 C720 1.277 . S
C717 O714 1.241 . S
C717 O715 1.280 . S
O718 Mg701 1.988 . S
O718 C720 1.245 . S
O719 C695 1.247 . S
O719 Mg701 2.061 . S
C720 O716 1.277 . S
C720 O718 1.245 . S
O721 C695 1.289 . S
O721 Mg698 2.238 . S
O721 Mg699 2.106 . S
O722 Mg699 2.079 . S
O722 C704 1.245 . S
O723 Mg702 2.038 . S
O723 C704 1.274 . S
H724 C730 0.930 . S
H725 C734 0.930 . S
H726 C739 0.929 . S
H727 C737 0.929 . S
H728 C732 0.929 . S
H729 C738 0.929 . S
C730 H724 0.930 . S
C730 C731 1.367 . S
C730 C738 1.378 . S
C731 C730 1.367 . S
C731 C739 1.433 . S
C732 H728 0.929 . S
C732 C734 1.378 . S
C732 C736 1.350 . S
C733 C736 1.463 . S
C733 C738 1.350 . S
C733 N741 1.427 . S
C734 H725 0.930 . S
C734 C732 1.378 . S
C734 C735 1.367 . S
C735 C734 1.367 . S
C735 C737 1.433 . S
C736 C732 1.350 . S
C736 C733 1.463 . S
C736 N740 1.427 . S
C737 H727 0.929 . S
C737 C735 1.433 . S
C737 N740 1.384 . S
C738 H729 0.929 . S
C738 C730 1.378 . S
C738 C733 1.350 . S
C739 H726 0.929 . S
C739 C731 1.433 . S
C739 N741 1.384 . S
N740 C736 1.427 . S
N740 C737 1.384 . S
N741 C733 1.427 . S
N741 C739 1.384 . S
H742 C748 0.930 . S
H743 C752 0.930 . S
H744 C757 0.929 . S
H745 C755 0.929 . S
H746 C750 0.929 . S
H747 C756 0.929 . S
C748 H742 0.930 . S
C748 C749 1.367 . S
C748 C756 1.378 . S
C749 C748 1.367 . S
C749 C757 1.433 . S
C750 H746 0.929 . S
C750 C752 1.378 . S
C750 C754 1.350 . S
C751 C754 1.463 . S
C751 C756 1.350 . S
C751 N759 1.427 . S
C752 H743 0.930 . S
C752 C750 1.378 . S
C752 C753 1.367 . S
C753 C752 1.367 . S
C753 C755 1.433 . S
C754 C750 1.350 . S
C754 C751 1.463 . S
C754 N758 1.427 . S
C755 H745 0.929 . S
C755 C753 1.433 . S
C755 N758 1.384 . S
C756 H747 0.929 . S
C756 C748 1.378 . S
C756 C751 1.350 . S
C757 H744 0.929 . S
C757 C749 1.433 . S
C757 N759 1.384 . S
N758 C754 1.427 . S
N758 C755 1.384 . S
N759 C751 1.427 . S
N759 C757 1.384 . S
H760 C766 0.930 . S
H761 C770 0.930 . S
H762 C775 0.929 . S
H763 C773 0.929 . S
H764 C768 0.929 . S
H765 C774 0.929 . S
C766 H760 0.930 . S
C766 C767 1.367 . S
C766 C774 1.378 . S
C767 C766 1.367 . S
C767 C775 1.433 . S
C768 H764 0.929 . S
C768 C770 1.378 . S
C768 C772 1.350 . S
C769 C772 1.463 . S
C769 C774 1.350 . S
C769 N777 1.427 . S
C770 H761 0.930 . S
C770 C768 1.378 . S
C770 C771 1.367 . S
C771 C770 1.367 . S
C771 C773 1.433 . S
C772 C768 1.350 . S
C772 C769 1.463 . S
C772 N776 1.427 . S
C773 H763 0.929 . S
C773 C771 1.433 . S
C773 N776 1.384 . S
C774 H765 0.929 . S
C774 C766 1.378 . S
C774 C769 1.350 . S
C775 H762 0.929 . S
C775 C767 1.433 . S
C775 N777 1.384 . S
N776 C772 1.427 . S
N776 C773 1.384 . S
N777 C769 1.427 . S
N777 C775 1.384 . S
H778 C784 0.930 . S
H779 C788 0.930 . S
H780 C793 0.929 . S
H781 C791 0.929 . S
H782 C786 0.929 . S
H783 C792 0.929 . S
C784 H778 0.930 . S
C784 C785 1.367 . S
C784 C792 1.378 . S
C785 C784 1.367 . S
C785 C793 1.433 . S
C786 H782 0.929 . S
C786 C788 1.378 . S
C786 C790 1.350 . S
C787 C790 1.463 . S
C787 C792 1.350 . S
C787 N795 1.427 . S
C788 H779 0.930 . S
C788 C786 1.378 . S
C788 C789 1.367 . S
C789 C788 1.367 . S
C789 C791 1.433 . S
C790 C786 1.350 . S
C790 C787 1.463 . S
C790 N794 1.427 . S
C791 H781 0.929 . S
C791 C789 1.433 . S
C791 N794 1.384 . S
C792 H783 0.929 . S
C792 C784 1.378 . S
C792 C787 1.350 . S
C793 H780 0.929 . S
C793 C785 1.433 . S
C793 N795 1.384 . S
N794 C790 1.427 . S
N794 C791 1.384 . S
N795 C787 1.427 . S
N795 C793 1.384 . S
H796 C802 0.930 . S
H797 C806 0.930 . S
H798 C811 0.929 . S
H799 C809 0.929 . S
H800 C804 0.929 . S
H801 C810 0.929 . S
C802 H796 0.930 . S
C802 C803 1.367 . S
C802 C810 1.378 . S
C803 C802 1.367 . S
C803 C811 1.433 . S
C804 H800 0.929 . S
C804 C806 1.378 . S
C804 C808 1.350 . S
C805 C808 1.463 . S
C805 C810 1.350 . S
C805 N813 1.427 . S
C806 H797 0.930 . S
C806 C804 1.378 . S
C806 C807 1.367 . S
C807 C806 1.367 . S
C807 C809 1.433 . S
C808 C804 1.350 . S
C808 C805 1.463 . S
C808 N812 1.427 . S
C809 H799 0.929 . S
C809 C807 1.433 . S
C809 N812 1.384 . S
C810 H801 0.929 . S
C810 C802 1.378 . S
C810 C805 1.350 . S
C811 H798 0.929 . S
C811 C803 1.433 . S
C811 N813 1.384 . S
N812 C808 1.427 . S
N812 C809 1.384 . S
N813 C805 1.427 . S
N813 C811 1.384 . S
H814 C820 0.930 . S
H815 C824 0.930 . S
H816 C829 0.929 . S
H817 C827 0.929 . S
H818 C822 0.929 . S
H819 C828 0.929 . S
C820 H814 0.930 . S
C820 C821 1.367 . S
C820 C828 1.378 . S
C821 C820 1.367 . S
C821 C829 1.433 . S
C822 H818 0.929 . S
C822 C824 1.378 . S
C822 C826 1.350 . S
C823 C826 1.463 . S
C823 C828 1.350 . S
C823 N831 1.427 . S
C824 H815 0.930 . S
C824 C822 1.378 . S
C824 C825 1.367 . S
C825 C824 1.367 . S
C825 C827 1.433 . S
C826 C822 1.350 . S
C826 C823 1.463 . S
C826 N830 1.427 . S
C827 H817 0.929 . S
C827 C825 1.433 . S
C827 N830 1.384 . S
C828 H819 0.929 . S
C828 C820 1.378 . S
C828 C823 1.350 . S
C829 H816 0.929 . S
C829 C821 1.433 . S
C829 N831 1.384 . S
N830 C826 1.427 . S
N830 C827 1.384 . S
N831 C823 1.427 . S
N831 C829 1.384 . S
H832 C838 0.930 . S
H833 C842 0.930 . S
H834 C847 0.929 . S
H835 C845 0.929 . S
H836 C840 0.929 . S
H837 C846 0.929 . S
C838 H832 0.930 . S
C838 C839 1.367 . S
C838 C846 1.378 . S
C839 C838 1.367 . S
C839 C847 1.433 . S
C840 H836 0.929 . S
C840 C842 1.378 . S
C840 C844 1.350 . S
C841 C844 1.463 . S
C841 C846 1.350 . S
C841 N849 1.427 . S
C842 H833 0.930 . S
C842 C840 1.378 . S
C842 C843 1.367 . S
C843 C842 1.367 . S
C843 C845 1.433 . S
C844 C840 1.350 . S
C844 C841 1.463 . S
C844 N848 1.427 . S
C845 H835 0.929 . S
C845 C843 1.433 . S
C845 N848 1.384 . S
C846 H837 0.929 . S
C846 C838 1.378 . S
C846 C841 1.350 . S
C847 H834 0.929 . S
C847 C839 1.433 . S
C847 N849 1.384 . S
N848 C844 1.427 . S
N848 C845 1.384 . S
N849 C841 1.427 . S
N849 C847 1.384 . S
H850 C856 0.930 . S
H851 C860 0.930 . S
H852 C865 0.929 . S
H853 C863 0.929 . S
H854 C858 0.929 . S
H855 C864 0.929 . S
C856 H850 0.930 . S
C856 C857 1.367 . S
C856 C864 1.378 . S
C857 C856 1.367 . S
C857 C865 1.433 . S
C858 H854 0.929 . S
C858 C860 1.378 . S
C858 C862 1.350 . S
C859 C862 1.463 . S
C859 C864 1.350 . S
C859 N867 1.427 . S
C860 H851 0.930 . S
C860 C858 1.378 . S
C860 C861 1.367 . S
C861 C860 1.367 . S
C861 C863 1.433 . S
C862 C858 1.350 . S
C862 C859 1.463 . S
C862 N866 1.427 . S
C863 H853 0.929 . S
C863 C861 1.433 . S
C863 N866 1.384 . S
C864 H855 0.929 . S
C864 C856 1.378 . S
C864 C859 1.350 . S
C865 H852 0.929 . S
C865 C857 1.433 . S
C865 N867 1.384 . S
N866 C862 1.427 . S
N866 C863 1.384 . S
N867 C859 1.427 . S
N867 C865 1.384 . S
H868 C874 0.930 . S
H869 C878 0.930 . S
H870 C883 0.929 . S
H871 C881 0.929 . S
H872 C876 0.929 . S
H873 C882 0.929 . S
C874 H868 0.930 . S
C874 C875 1.367 . S
C874 C882 1.378 . S
C875 C874 1.367 . S
C875 C883 1.433 . S
C876 H872 0.929 . S
C876 C878 1.378 . S
C876 C880 1.350 . S
C877 C880 1.463 . S
C877 C882 1.350 . S
C877 N885 1.427 . S
C878 H869 0.930 . S
C878 C876 1.378 . S
C878 C879 1.367 . S
C879 C878 1.367 . S
C879 C881 1.433 . S
C880 C876 1.350 . S
C880 C877 1.463 . S
C880 N884 1.427 . S
C881 H871 0.929 . S
C881 C879 1.433 . S
C881 N884 1.384 . S
C882 H873 0.929 . S
C882 C874 1.378 . S
C882 C877 1.350 . S
C883 H870 0.929 . S
C883 C875 1.433 . S
C883 N885 1.384 . S
N884 C880 1.427 . S
N884 C881 1.384 . S
N885 C877 1.427 . S
N885 C883 1.384 . S
H886 C892 0.930 . S
H887 C896 0.930 . S
H888 C901 0.929 . S
H889 C899 0.929 . S
H890 C894 0.929 . S
H891 C900 0.929 . S
C892 H886 0.930 . S
C892 C893 1.367 . S
C892 C900 1.378 . S
C893 C892 1.367 . S
C893 C901 1.433 . S
C894 H890 0.929 . S
C894 C896 1.378 . S
C894 C898 1.350 . S
C895 C898 1.463 . S
C895 C900 1.350 . S
C895 N903 1.427 . S
C896 H887 0.930 . S
C896 C894 1.378 . S
C896 C897 1.367 1_545 S
C897 C896 1.367 1_565 S
C897 C899 1.433 . S
C898 C894 1.350 . S
C898 C895 1.463 . S
C898 N902 1.427 . S
C899 H889 0.929 . S
C899 C897 1.433 . S
C899 N902 1.384 1_565 S
C900 H891 0.929 . S
C900 C892 1.378 . S
C900 C895 1.350 . S
C901 H888 0.929 . S
C901 C893 1.433 . S
C901 N903 1.384 . S
N902 C898 1.427 . S
N902 C899 1.384 1_545 S
N903 C895 1.427 . S
N903 C901 1.384 . S
H904 C910 0.930 . S
H905 C914 0.930 . S
H906 C919 0.929 . S
H907 C917 0.929 . S
H908 C912 0.929 . S
H909 C918 0.929 . S
C910 H904 0.930 . S
C910 C911 1.367 . S
C910 C918 1.378 . S
C911 C910 1.367 . S
C911 C919 1.433 . S
C912 H908 0.929 . S
C912 C914 1.378 . S
C912 C916 1.350 . S
C913 C916 1.463 . S
C913 C918 1.350 . S
C913 N921 1.427 . S
C914 H905 0.930 . S
C914 C912 1.378 . S
C914 C915 1.367 . S
C915 C914 1.367 . S
C915 C917 1.433 . S
C916 C912 1.350 . S
C916 C913 1.463 . S
C916 N920 1.427 . S
C917 H907 0.929 . S
C917 C915 1.433 . S
C917 N920 1.384 . S
C918 H909 0.929 . S
C918 C910 1.378 . S
C918 C913 1.350 . S
C919 H906 0.929 . S
C919 C911 1.433 . S
C919 N921 1.384 . S
N920 C916 1.427 . S
N920 C917 1.384 . S
N921 C913 1.427 . S
N921 C919 1.384 . S
H922 C928 0.930 . S
H923 C932 0.930 . S
H924 C937 0.929 . S
H925 C935 0.929 . S
H926 C930 0.929 . S
H927 C936 0.929 . S
C928 H922 0.930 . S
C928 C929 1.367 . S
C928 C936 1.378 . S
C929 C928 1.367 . S
C929 C937 1.433 . S
C930 H926 0.929 . S
C930 C932 1.378 . S
C930 C934 1.350 . S
C931 C934 1.463 . S
C931 C936 1.350 . S
C931 N939 1.427 . S
C932 H923 0.930 . S
C932 C930 1.378 . S
C932 C933 1.367 . S
C933 C932 1.367 . S
C933 C935 1.433 . S
C934 C930 1.350 . S
C934 C931 1.463 . S
C934 N938 1.427 . S
C935 H925 0.929 . S
C935 C933 1.433 . S
C935 N938 1.384 . S
C936 H927 0.929 . S
C936 C928 1.378 . S
C936 C931 1.350 . S
C937 H924 0.929 . S
C937 C929 1.433 . S
C937 N939 1.384 . S
N938 C934 1.427 . S
N938 C935 1.384 . S
N939 C931 1.427 . S
N939 C937 1.384 . S
H940 C946 0.930 . S
H941 C950 0.930 . S
H942 C955 0.929 . S
H943 C953 0.929 . S
H944 C948 0.929 . S
H945 C954 0.929 . S
C946 H940 0.930 . S
C946 C947 1.367 . S
C946 C954 1.378 . S
C947 C946 1.367 . S
C947 C955 1.433 . S
C948 H944 0.929 . S
C948 C950 1.378 . S
C948 C952 1.350 . S
C949 C952 1.463 . S
C949 C954 1.350 . S
C949 N957 1.427 . S
C950 H941 0.930 . S
C950 C948 1.378 . S
C950 C951 1.367 . S
C951 C950 1.367 . S
C951 C953 1.433 . S
C952 C948 1.350 . S
C952 C949 1.463 . S
C952 N956 1.427 . S
C953 H943 0.929 . S
C953 C951 1.433 . S
C953 N956 1.384 . S
C954 H945 0.929 . S
C954 C946 1.378 . S
C954 C949 1.350 . S
C955 H942 0.929 . S
C955 C947 1.433 . S
C955 N957 1.384 . S
N956 C952 1.427 . S
N956 C953 1.384 . S
N957 C949 1.427 . S
N957 C955 1.384 . S
H958 C964 0.930 . S
H959 C968 0.930 . S
H960 C973 0.929 . S
H961 C971 0.929 . S
H962 C966 0.929 . S
H963 C972 0.929 . S
C964 H958 0.930 . S
C964 C965 1.367 . S
C964 C972 1.378 . S
C965 C964 1.367 . S
C965 C973 1.433 . S
C966 H962 0.929 . S
C966 C968 1.378 1_545 S
C966 C970 1.350 . S
C967 C970 1.463 . S
C967 C972 1.350 . S
C967 N975 1.427 . S
C968 H959 0.930 . S
C968 C966 1.378 1_565 S
C968 C969 1.367 . S
C969 C968 1.367 . S
C969 C971 1.433 1_565 S
C970 C966 1.350 . S
C970 C967 1.463 . S
C970 N974 1.427 . S
C971 H961 0.929 . S
C971 C969 1.433 1_545 S
C971 N974 1.384 . S
C972 H963 0.929 . S
C972 C964 1.378 . S
C972 C967 1.350 . S
C973 H960 0.929 . S
C973 C965 1.433 . S
C973 N975 1.384 . S
N974 C970 1.427 . S
N974 C971 1.384 . S
N975 C967 1.427 . S
N975 C973 1.384 . S
H976 C982 0.930 . S
H977 C986 0.930 . S
H978 C991 0.929 . S
H979 C989 0.929 . S
H980 C984 0.929 . S
H981 C990 0.929 . S
C982 H976 0.930 . S
C982 C983 1.367 . S
C982 C990 1.378 . S
C983 C982 1.367 . S
C983 C991 1.433 . S
C984 H980 0.929 . S
C984 C986 1.378 . S
C984 C988 1.350 . S
C985 C988 1.463 . S
C985 C990 1.350 . S
C985 N993 1.427 . S
C986 H977 0.930 . S
C986 C984 1.378 . S
C986 C987 1.367 . S
C987 C986 1.367 . S
C987 C989 1.433 . S
C988 C984 1.350 . S
C988 C985 1.463 . S
C988 N992 1.427 . S
C989 H979 0.929 . S
C989 C987 1.433 . S
C989 N992 1.384 . S
C990 H981 0.929 . S
C990 C982 1.378 . S
C990 C985 1.350 . S
C991 H978 0.929 . S
C991 C983 1.433 . S
C991 N993 1.384 . S
N992 C988 1.427 . S
N992 C989 1.384 . S
N993 C985 1.427 . S
N993 C991 1.384 . S
H994 C1000 0.930 . S
H995 C1004 0.930 . S
H996 C1009 0.929 . S
H997 C1007 0.929 . S
H998 C1002 0.929 . S
H999 C1008 0.929 . S
C1000 H994 0.930 . S
C1000 C1001 1.367 . S
C1000 C1008 1.378 . S
C1001 C1000 1.367 . S
C1001 C1009 1.433 . S
C1002 H998 0.929 . S
C1002 C1004 1.378 . S
C1002 C1006 1.350 . S
C1003 C1006 1.463 . S
C1003 C1008 1.350 . S
C1003 N1011 1.427 . S
C1004 H995 0.930 . S
C1004 C1002 1.378 . S
C1004 C1005 1.367 . S
C1005 C1004 1.367 . S
C1005 C1007 1.433 . S
C1006 C1002 1.350 . S
C1006 C1003 1.463 . S
C1006 N1010 1.427 . S
C1007 H997 0.929 . S
C1007 C1005 1.433 . S
C1007 N1010 1.384 . S
C1008 H999 0.929 . S
C1008 C1000 1.378 . S
C1008 C1003 1.350 . S
C1009 H996 0.929 . S
C1009 C1001 1.433 . S
C1009 N1011 1.384 . S
N1010 C1006 1.427 . S
N1010 C1007 1.384 . S
N1011 C1003 1.427 . S
N1011 C1009 1.384 . S
H1012 C1018 0.930 . S
H1013 C1022 0.930 . S
H1014 C1027 0.929 . S
H1015 C1025 0.929 . S
H1016 C1020 0.929 . S
H1017 C1026 0.929 1_556 S
C1018 H1012 0.930 . S
C1018 C1019 1.367 . S
C1018 C1026 1.378 . S
C1019 C1018 1.367 . S
C1019 C1027 1.433 . S
C1020 H1016 0.929 . S
C1020 C1022 1.378 . S
C1020 C1024 1.350 . S
C1021 C1024 1.463 . S
C1021 C1026 1.350 . S
C1021 N1029 1.427 . S
C1022 H1013 0.930 . S
C1022 C1020 1.378 . S
C1022 C1023 1.367 1_554 S
C1023 C1022 1.367 1_556 S
C1023 C1025 1.433 . S
C1024 C1020 1.350 . S
C1024 C1021 1.463 . S
C1024 N1028 1.427 1_554 S
C1025 H1015 0.929 . S
C1025 C1023 1.433 . S
C1025 N1028 1.384 . S
C1026 H1017 0.929 1_554 S
C1026 C1018 1.378 . S
C1026 C1021 1.350 . S
C1027 H1014 0.929 . S
C1027 C1019 1.433 . S
C1027 N1029 1.384 . S
N1028 C1024 1.427 1_556 S
N1028 C1025 1.384 . S
N1029 C1021 1.427 . S
N1029 C1027 1.384 . S
H1030 C1036 0.930 . S
H1031 C1040 0.930 . S
H1032 C1045 0.929 . S
H1033 C1043 0.929 . S
H1034 C1038 0.929 . S
H1035 C1044 0.929 . S
C1036 H1030 0.930 . S
C1036 C1037 1.367 . S
C1036 C1044 1.378 . S
C1037 C1036 1.367 . S
C1037 C1045 1.433 . S
C1038 H1034 0.929 . S
C1038 C1040 1.378 . S
C1038 C1042 1.350 . S
C1039 C1042 1.463 . S
C1039 C1044 1.350 . S
C1039 N1047 1.427 . S
C1040 H1031 0.930 . S
C1040 C1038 1.378 . S
C1040 C1041 1.367 . S
C1041 C1040 1.367 . S
C1041 C1043 1.433 . S
C1042 C1038 1.350 . S
C1042 C1039 1.463 . S
C1042 N1046 1.427 . S
C1043 H1033 0.929 . S
C1043 C1041 1.433 . S
C1043 N1046 1.384 . S
C1044 H1035 0.929 . S
C1044 C1036 1.378 . S
C1044 C1039 1.350 . S
C1045 H1032 0.929 . S
C1045 C1037 1.433 . S
C1045 N1047 1.384 . S
N1046 C1042 1.427 . S
N1046 C1043 1.384 . S
N1047 C1039 1.427 . S
N1047 C1045 1.384 . S
H1048 C1054 0.930 . S
H1049 C1058 0.930 . S
H1050 C1063 0.929 . S
H1051 C1061 0.929 . S
H1052 C1056 0.929 . S
H1053 C1062 0.929 . S
C1054 H1048 0.930 . S
C1054 C1055 1.367 . S
C1054 C1062 1.378 . S
C1055 C1054 1.367 . S
C1055 C1063 1.433 . S
C1056 H1052 0.929 . S
C1056 C1058 1.378 . S
C1056 C1060 1.350 . S
C1057 C1060 1.463 . S
C1057 C1062 1.350 . S
C1057 N1065 1.427 . S
C1058 H1049 0.930 . S
C1058 C1056 1.378 . S
C1058 C1059 1.367 . S
C1059 C1058 1.367 . S
C1059 C1061 1.433 . S
C1060 C1056 1.350 . S
C1060 C1057 1.463 . S
C1060 N1064 1.427 . S
C1061 H1051 0.929 . S
C1061 C1059 1.433 . S
C1061 N1064 1.384 . S
C1062 H1053 0.929 . S
C1062 C1054 1.378 . S
C1062 C1057 1.350 . S
C1063 H1050 0.929 . S
C1063 C1055 1.433 . S
C1063 N1065 1.384 . S
N1064 C1060 1.427 . S
N1064 C1061 1.384 . S
N1065 C1057 1.427 . S
N1065 C1063 1.384 . S
H1066 C1072 0.930 . S
H1067 C1076 0.930 . S
H1068 C1081 0.929 . S
H1069 C1079 0.929 . S
H1070 C1074 0.929 . S
H1071 C1080 0.929 . S
C1072 H1066 0.930 . S
C1072 C1073 1.367 . S
C1072 C1080 1.378 . S
C1073 C1072 1.367 . S
C1073 C1081 1.433 . S
C1074 H1070 0.929 . S
C1074 C1076 1.378 . S
C1074 C1078 1.350 . S
C1075 C1078 1.463 . S
C1075 C1080 1.350 . S
C1075 N1083 1.427 . S
C1076 H1067 0.930 . S
C1076 C1074 1.378 . S
C1076 C1077 1.367 . S
C1077 C1076 1.367 . S
C1077 C1079 1.433 . S
C1078 C1074 1.350 . S
C1078 C1075 1.463 . S
C1078 N1082 1.427 . S
C1079 H1069 0.929 . S
C1079 C1077 1.433 . S
C1079 N1082 1.384 . S
C1080 H1071 0.929 . S
C1080 C1072 1.378 . S
C1080 C1075 1.350 . S
C1081 H1068 0.929 . S
C1081 C1073 1.433 . S
C1081 N1083 1.384 . S
N1082 C1078 1.427 . S
N1082 C1079 1.384 . S
N1083 C1075 1.427 . S
N1083 C1081 1.384 . S
H1084 C1090 0.930 . S
H1085 C1094 0.930 . S
H1086 C1099 0.929 . S
H1087 C1097 0.929 . S
H1088 C1092 0.929 . S
H1089 C1098 0.929 . S
C1090 H1084 0.930 . S
C1090 C1091 1.367 . S
C1090 C1098 1.378 . S
C1091 C1090 1.367 . S
C1091 C1099 1.433 . S
C1092 H1088 0.929 . S
C1092 C1094 1.378 1_655 S
C1092 C1096 1.350 . S
C1093 C1096 1.463 . S
C1093 C1098 1.350 . S
C1093 N1101 1.427 . S
C1094 H1085 0.930 . S
C1094 C1092 1.378 1_455 S
C1094 C1095 1.367 . S
C1095 C1094 1.367 . S
C1095 C1097 1.433 1_455 S
C1096 C1092 1.350 . S
C1096 C1093 1.463 . S
C1096 N1100 1.427 . S
C1097 H1087 0.929 . S
C1097 C1095 1.433 1_655 S
C1097 N1100 1.384 . S
C1098 H1089 0.929 . S
C1098 C1090 1.378 . S
C1098 C1093 1.350 . S
C1099 H1086 0.929 . S
C1099 C1091 1.433 . S
C1099 N1101 1.384 . S
N1100 C1096 1.427 . S
N1100 C1097 1.384 . S
N1101 C1093 1.427 . S
N1101 C1099 1.384 . S
H1102 C1108 0.930 . S
H1103 C1112 0.930 . S
H1104 C1117 0.929 . S
H1105 C1115 0.929 . S
H1106 C1110 0.929 . S
H1107 C1116 0.929 . S
C1108 H1102 0.930 . S
C1108 C1109 1.367 . S
C1108 C1116 1.378 . S
C1109 C1108 1.367 . S
C1109 C1117 1.433 . S
C1110 H1106 0.929 . S
C1110 C1112 1.378 . S
C1110 C1114 1.350 . S
C1111 C1114 1.463 . S
C1111 C1116 1.350 . S
C1111 N1119 1.427 . S
C1112 H1103 0.930 . S
C1112 C1110 1.378 . S
C1112 C1113 1.367 . S
C1113 C1112 1.367 . S
C1113 C1115 1.433 . S
C1114 C1110 1.350 . S
C1114 C1111 1.463 . S
C1114 N1118 1.427 . S
C1115 H1105 0.929 . S
C1115 C1113 1.433 . S
C1115 N1118 1.384 . S
C1116 H1107 0.929 . S
C1116 C1108 1.378 . S
C1116 C1111 1.350 . S
C1117 H1104 0.929 . S
C1117 C1109 1.433 . S
C1117 N1119 1.384 . S
N1118 C1114 1.427 . S
N1118 C1115 1.384 . S
N1119 C1111 1.427 . S
N1119 C1117 1.384 . S
H1120 C1126 0.930 . S
H1121 C1130 0.930 . S
H1122 C1135 0.929 . S
H1123 C1133 0.929 . S
H1124 C1128 0.929 . S
H1125 C1134 0.929 . S
C1126 H1120 0.930 . S
C1126 C1127 1.367 . S
C1126 C1134 1.378 . S
C1127 C1126 1.367 . S
C1127 C1135 1.433 . S
C1128 H1124 0.929 . S
C1128 C1130 1.378 . S
C1128 C1132 1.350 . S
C1129 C1132 1.463 . S
C1129 C1134 1.350 . S
C1129 N1137 1.427 . S
C1130 H1121 0.930 . S
C1130 C1128 1.378 . S
C1130 C1131 1.367 . S
C1131 C1130 1.367 . S
C1131 C1133 1.433 . S
C1132 C1128 1.350 . S
C1132 C1129 1.463 . S
C1132 N1136 1.427 . S
C1133 H1123 0.929 . S
C1133 C1131 1.433 . S
C1133 N1136 1.384 . S
C1134 H1125 0.929 . S
C1134 C1126 1.378 . S
C1134 C1129 1.350 . S
C1135 H1122 0.929 . S
C1135 C1127 1.433 . S
C1135 N1137 1.384 . S
N1136 C1132 1.427 . S
N1136 C1133 1.384 . S
N1137 C1129 1.427 . S
N1137 C1135 1.384 . S
H1138 C1144 0.930 . S
H1139 C1148 0.930 . S
H1140 C1153 0.929 . S
H1141 C1151 0.929 . S
H1142 C1146 0.929 . S
H1143 C1152 0.929 . S
C1144 H1138 0.930 . S
C1144 C1145 1.367 . S
C1144 C1152 1.378 . S
C1145 C1144 1.367 . S
C1145 C1153 1.433 . S
C1146 H1142 0.929 . S
C1146 C1148 1.378 . S
C1146 C1150 1.350 . S
C1147 C1150 1.463 . S
C1147 C1152 1.350 . S
C1147 N1155 1.427 . S
C1148 H1139 0.930 . S
C1148 C1146 1.378 . S
C1148 C1149 1.367 . S
C1149 C1148 1.367 . S
C1149 C1151 1.433 . S
C1150 C1146 1.350 . S
C1150 C1147 1.463 . S
C1150 N1154 1.427 . S
C1151 H1141 0.929 . S
C1151 C1149 1.433 . S
C1151 N1154 1.384 . S
C1152 H1143 0.929 . S
C1152 C1144 1.378 . S
C1152 C1147 1.350 . S
C1153 H1140 0.929 . S
C1153 C1145 1.433 . S
C1153 N1155 1.384 . S
N1154 C1150 1.427 . S
N1154 C1151 1.384 . S
N1155 C1147 1.427 . S
N1155 C1153 1.384 . S
H1156 C1162 0.930 . S
H1157 C1166 0.930 . S
H1158 C1171 0.929 . S
H1159 C1169 0.929 . S
H1160 C1164 0.929 . S
H1161 C1170 0.929 . S
C1162 H1156 0.930 . S
C1162 C1163 1.367 . S
C1162 C1170 1.378 . S
C1163 C1162 1.367 . S
C1163 C1171 1.433 . S
C1164 H1160 0.929 . S
C1164 C1166 1.378 . S
C1164 C1168 1.350 . S
C1165 C1168 1.463 . S
C1165 C1170 1.350 . S
C1165 N1173 1.427 . S
C1166 H1157 0.930 . S
C1166 C1164 1.378 . S
C1166 C1167 1.367 . S
C1167 C1166 1.367 . S
C1167 C1169 1.433 . S
C1168 C1164 1.350 . S
C1168 C1165 1.463 . S
C1168 N1172 1.427 . S
C1169 H1159 0.929 . S
C1169 C1167 1.433 . S
C1169 N1172 1.384 . S
C1170 H1161 0.929 . S
C1170 C1162 1.378 . S
C1170 C1165 1.350 . S
C1171 H1158 0.929 . S
C1171 C1163 1.433 . S
C1171 N1173 1.384 . S
N1172 C1168 1.427 . S
N1172 C1169 1.384 . S
N1173 C1165 1.427 . S
N1173 C1171 1.384 . S
H1174 C1180 0.930 . S
H1175 C1184 0.930 . S
H1176 C1189 0.929 . S
H1177 C1187 0.929 . S
H1178 C1182 0.929 . S
H1179 C1188 0.929 . S
C1180 H1174 0.930 . S
C1180 C1181 1.367 . S
C1180 C1188 1.378 . S
C1181 C1180 1.367 . S
C1181 C1189 1.433 . S
C1182 H1178 0.929 . S
C1182 C1184 1.378 1_554 S
C1182 C1186 1.350 . S
C1183 C1186 1.463 . S
C1183 C1188 1.350 . S
C1183 N1191 1.427 . S
C1184 H1175 0.930 . S
C1184 C1182 1.378 1_556 S
C1184 C1185 1.367 . S
C1185 C1184 1.367 . S
C1185 C1187 1.433 . S
C1186 C1182 1.350 . S
C1186 C1183 1.463 . S
C1186 N1190 1.427 . S
C1187 H1177 0.929 . S
C1187 C1185 1.433 . S
C1187 N1190 1.384 1_556 S
C1188 H1179 0.929 . S
C1188 C1180 1.378 . S
C1188 C1183 1.350 . S
C1189 H1176 0.929 . S
C1189 C1181 1.433 . S
C1189 N1191 1.384 . S
N1190 C1186 1.427 . S
N1190 C1187 1.384 1_554 S
N1191 C1183 1.427 . S
N1191 C1189 1.384 . S
H1192 C1198 0.930 . S
H1193 C1202 0.930 . S
H1194 C1207 0.929 . S
H1195 C1205 0.929 . S
H1196 C1200 0.929 . S
H1197 C1206 0.929 . S
C1198 H1192 0.930 . S
C1198 C1199 1.367 . S
C1198 C1206 1.378 . S
C1199 C1198 1.367 . S
C1199 C1207 1.433 . S
C1200 H1196 0.929 . S
C1200 C1202 1.378 . S
C1200 C1204 1.350 . S
C1201 C1204 1.463 . S
C1201 C1206 1.350 . S
C1201 N1209 1.427 . S
C1202 H1193 0.930 . S
C1202 C1200 1.378 . S
C1202 C1203 1.367 . S
C1203 C1202 1.367 . S
C1203 C1205 1.433 . S
C1204 C1200 1.350 . S
C1204 C1201 1.463 . S
C1204 N1208 1.427 . S
C1205 H1195 0.929 . S
C1205 C1203 1.433 . S
C1205 N1208 1.384 . S
C1206 H1197 0.929 . S
C1206 C1198 1.378 . S
C1206 C1201 1.350 . S
C1207 H1194 0.929 . S
C1207 C1199 1.433 . S
C1207 N1209 1.384 . S
N1208 C1204 1.427 . S
N1208 C1205 1.384 . S
N1209 C1201 1.427 . S
N1209 C1207 1.384 . S
H1210 C1216 0.930 . S
H1211 C1220 0.930 1_556 S
H1212 C1225 0.929 . S
H1213 C1223 0.929 . S
H1214 C1218 0.929 . S
H1215 C1224 0.929 . S
C1216 H1210 0.930 . S
C1216 C1217 1.367 . S
C1216 C1224 1.378 . S
C1217 C1216 1.367 . S
C1217 C1225 1.433 . S
C1218 H1214 0.929 . S
C1218 C1220 1.378 . S
C1218 C1222 1.350 . S
C1219 C1222 1.463 . S
C1219 C1224 1.350 . S
C1219 N1227 1.427 . S
C1220 H1211 0.930 1_554 S
C1220 C1218 1.378 . S
C1220 C1221 1.367 1_554 S
C1221 C1220 1.367 1_556 S
C1221 C1223 1.433 1_556 S
C1222 C1218 1.350 . S
C1222 C1219 1.463 . S
C1222 N1226 1.427 . S
C1223 H1213 0.929 . S
C1223 C1221 1.433 1_554 S
C1223 N1226 1.384 . S
C1224 H1215 0.929 . S
C1224 C1216 1.378 . S
C1224 C1219 1.350 . S
C1225 H1212 0.929 . S
C1225 C1217 1.433 . S
C1225 N1227 1.384 . S
N1226 C1222 1.427 . S
N1226 C1223 1.384 . S
N1227 C1219 1.427 . S
N1227 C1225 1.384 . S
H1228 C1234 0.930 . S
H1229 C1238 0.930 . S
H1230 C1243 0.929 . S
H1231 C1241 0.929 . S
H1232 C1236 0.929 . S
H1233 C1242 0.929 . S
C1234 H1228 0.930 . S
C1234 C1235 1.367 . S
C1234 C1242 1.378 . S
C1235 C1234 1.367 . S
C1235 C1243 1.433 . S
C1236 H1232 0.929 . S
C1236 C1238 1.378 . S
C1236 C1240 1.350 . S
C1237 C1240 1.463 . S
C1237 C1242 1.350 . S
C1237 N1245 1.427 . S
C1238 H1229 0.930 . S
C1238 C1236 1.378 . S
C1238 C1239 1.367 . S
C1239 C1238 1.367 . S
C1239 C1241 1.433 . S
C1240 C1236 1.350 . S
C1240 C1237 1.463 . S
C1240 N1244 1.427 . S
C1241 H1231 0.929 . S
C1241 C1239 1.433 . S
C1241 N1244 1.384 . S
C1242 H1233 0.929 . S
C1242 C1234 1.378 . S
C1242 C1237 1.350 . S
C1243 H1230 0.929 . S
C1243 C1235 1.433 . S
C1243 N1245 1.384 . S
N1244 C1240 1.427 . S
N1244 C1241 1.384 . S
N1245 C1237 1.427 . S
N1245 C1243 1.384 . S
H1246 C1252 0.930 . S
H1247 C1256 0.932 1_554 S
H1248 C1261 0.929 . S
H1249 C1259 0.925 1_554 S
H1250 C1254 0.929 . S
H1251 C1260 0.929 . S
C1252 H1246 0.930 . S
C1252 C1253 1.367 . S
C1252 C1260 1.378 . S
C1253 C1252 1.367 . S
C1253 C1261 1.433 . S
C1254 H1250 0.929 . S
C1254 C1256 1.374 . S
C1254 C1258 1.350 . S
C1255 C1258 1.463 . S
C1255 C1260 1.350 . S
C1255 N1263 1.427 . S
C1256 H1247 0.932 1_556 S
C1256 C1254 1.374 . S
C1256 C1257 1.368 1_556 S
C1257 C1256 1.368 1_554 S
C1257 C1259 1.429 1_554 S
C1258 C1254 1.350 . S
C1258 C1255 1.463 . S
C1258 N1262 1.427 . S
C1259 H1249 0.925 1_556 S
C1259 C1257 1.429 1_556 S
C1259 N1262 1.392 . S
C1260 H1251 0.929 . S
C1260 C1252 1.378 . S
C1260 C1255 1.350 . S
C1261 H1248 0.929 . S
C1261 C1253 1.433 . S
C1261 N1263 1.384 . S
N1262 C1258 1.427 . S
N1262 C1259 1.392 . S
N1263 C1255 1.427 . S
N1263 C1261 1.384 . S
H1264 C1270 0.930 . S
H1265 C1274 0.930 . S
H1266 C1279 0.929 . S
H1267 C1277 0.929 . S
H1268 C1272 0.929 . S
H1269 C1278 0.929 . S
C1270 H1264 0.930 . S
C1270 C1271 1.367 . S
C1270 C1278 1.378 . S
C1271 C1270 1.367 . S
C1271 C1279 1.433 . S
C1272 H1268 0.929 . S
C1272 C1274 1.378 . S
C1272 C1276 1.350 . S
C1273 C1276 1.463 . S
C1273 C1278 1.350 . S
C1273 N1281 1.427 . S
C1274 H1265 0.930 . S
C1274 C1272 1.378 . S
C1274 C1275 1.367 . S
C1275 C1274 1.367 . S
C1275 C1277 1.433 . S
C1276 C1272 1.350 . S
C1276 C1273 1.463 . S
C1276 N1280 1.427 . S
C1277 H1267 0.929 . S
C1277 C1275 1.433 . S
C1277 N1280 1.384 . S
C1278 H1269 0.929 . S
C1278 C1270 1.378 . S
C1278 C1273 1.350 . S
C1279 H1266 0.929 . S
C1279 C1271 1.433 . S
C1279 N1281 1.384 . S
N1280 C1276 1.427 . S
N1280 C1277 1.384 . S
N1281 C1273 1.427 . S
N1281 C1279 1.384 . S
H1282 C1288 0.930 . S
H1283 C1292 0.930 . S
H1284 C1297 0.929 . S
H1285 C1295 0.933 . S
H1286 C1290 0.929 . S
H1287 C1296 0.929 . S
C1288 H1282 0.930 . S
C1288 C1289 1.367 . S
C1288 C1296 1.378 . S
C1289 C1288 1.367 . S
C1289 C1297 1.433 . S
C1290 H1286 0.929 . S
C1290 C1292 1.378 1_556 S
C1290 C1294 1.350 . S
C1291 C1294 1.463 . S
C1291 C1296 1.350 . S
C1291 N1299 1.427 . S
C1292 H1283 0.930 . S
C1292 C1290 1.378 1_554 S
C1292 C1293 1.367 . S
C1293 C1292 1.367 . S
C1293 C1295 1.441 . S
C1294 C1290 1.350 . S
C1294 C1291 1.463 . S
C1294 N1298 1.427 . S
C1295 H1285 0.933 . S
C1295 C1293 1.441 . S
C1295 N1298 1.371 1_554 S
C1296 H1287 0.929 . S
C1296 C1288 1.378 . S
C1296 C1291 1.350 . S
C1297 H1284 0.929 . S
C1297 C1289 1.433 . S
C1297 N1299 1.384 . S
N1298 C1294 1.427 . S
N1298 C1295 1.371 1_556 S
N1299 C1291 1.427 . S
N1299 C1297 1.384 . S
H1300 C1306 0.930 . S
H1301 C1310 0.930 . S
H1302 C1315 0.929 . S
H1303 C1313 0.929 . S
H1304 C1308 0.929 . S
H1305 C1314 0.929 . S
C1306 H1300 0.930 . S
C1306 C1307 1.367 . S
C1306 C1314 1.378 . S
C1307 C1306 1.367 . S
C1307 C1315 1.433 . S
C1308 H1304 0.929 . S
C1308 C1310 1.378 . S
C1308 C1312 1.350 . S
C1309 C1312 1.463 . S
C1309 C1314 1.350 . S
C1309 N1317 1.427 . S
C1310 H1301 0.930 . S
C1310 C1308 1.378 . S
C1310 C1311 1.367 . S
C1311 C1310 1.367 . S
C1311 C1313 1.433 . S
C1312 C1308 1.350 . S
C1312 C1309 1.463 . S
C1312 N1316 1.427 . S
C1313 H1303 0.929 . S
C1313 C1311 1.433 . S
C1313 N1316 1.384 . S
C1314 H1305 0.929 . S
C1314 C1306 1.378 . S
C1314 C1309 1.350 . S
C1315 H1302 0.929 . S
C1315 C1307 1.433 . S
C1315 N1317 1.384 . S
N1316 C1312 1.427 . S
N1316 C1313 1.384 . S
N1317 C1309 1.427 . S
N1317 C1315 1.384 . S
H1318 C1324 0.930 . S
H1319 C1328 0.930 . S
H1320 C1333 0.929 . S
H1321 C1331 0.929 . S
H1322 C1326 0.929 . S
H1323 C1332 0.929 . S
C1324 H1318 0.930 . S
C1324 C1325 1.367 . S
C1324 C1332 1.378 . S
C1325 C1324 1.367 . S
C1325 C1333 1.433 . S
C1326 H1322 0.929 . S
C1326 C1328 1.378 . S
C1326 C1330 1.350 . S
C1327 C1330 1.463 . S
C1327 C1332 1.350 . S
C1327 N1335 1.427 . S
C1328 H1319 0.930 . S
C1328 C1326 1.378 . S
C1328 C1329 1.367 . S
C1329 C1328 1.367 . S
C1329 C1331 1.433 . S
C1330 C1326 1.350 . S
C1330 C1327 1.463 . S
C1330 N1334 1.427 . S
C1331 H1321 0.929 . S
C1331 C1329 1.433 . S
C1331 N1334 1.384 . S
C1332 H1323 0.929 . S
C1332 C1324 1.378 . S
C1332 C1327 1.350 . S
C1333 H1320 0.929 . S
C1333 C1325 1.433 . S
C1333 N1335 1.384 . S
N1334 C1330 1.427 . S
N1334 C1331 1.384 . S
N1335 C1327 1.427 . S
N1335 C1333 1.384 . S
H1336 C1342 0.930 . S
H1337 C1346 0.930 . S
H1338 C1351 0.929 . S
H1339 C1349 0.929 . S
H1340 C1344 0.929 . S
H1341 C1350 0.929 . S
C1342 H1336 0.930 . S
C1342 C1343 1.367 . S
C1342 C1350 1.378 . S
C1343 C1342 1.367 . S
C1343 C1351 1.433 . S
C1344 H1340 0.929 . S
C1344 C1346 1.378 . S
C1344 C1348 1.350 . S
C1345 C1348 1.463 . S
C1345 C1350 1.350 . S
C1345 N1353 1.427 . S
C1346 H1337 0.930 . S
C1346 C1344 1.378 . S
C1346 C1347 1.367 . S
C1347 C1346 1.367 . S
C1347 C1349 1.433 . S
C1348 C1344 1.350 . S
C1348 C1345 1.463 . S
C1348 N1352 1.427 . S
C1349 H1339 0.929 . S
C1349 C1347 1.433 . S
C1349 N1352 1.384 . S
C1350 H1341 0.929 . S
C1350 C1342 1.378 . S
C1350 C1345 1.350 . S
C1351 H1338 0.929 . S
C1351 C1343 1.433 . S
C1351 N1353 1.384 . S
N1352 C1348 1.427 . S
N1352 C1349 1.384 . S
N1353 C1345 1.427 . S
N1353 C1351 1.384 . S
H1354 C1360 0.930 . S
H1355 C1364 0.930 . S
H1356 C1369 0.929 . S
H1357 C1367 0.929 . S
H1358 C1362 0.929 . S
H1359 C1368 0.929 . S
C1360 H1354 0.930 . S
C1360 C1361 1.367 . S
C1360 C1368 1.378 . S
C1361 C1360 1.367 . S
C1361 C1369 1.433 . S
C1362 H1358 0.929 . S
C1362 C1364 1.378 1_565 S
C1362 C1366 1.350 . S
C1363 C1366 1.463 . S
C1363 C1368 1.350 . S
C1363 N1371 1.427 . S
C1364 H1355 0.930 . S
C1364 C1362 1.378 1_545 S
C1364 C1365 1.367 . S
C1365 C1364 1.367 . S
C1365 C1367 1.433 1_545 S
C1366 C1362 1.350 . S
C1366 C1363 1.463 . S
C1366 N1370 1.427 . S
C1367 H1357 0.929 . S
C1367 C1365 1.433 1_565 S
C1367 N1370 1.384 . S
C1368 H1359 0.929 . S
C1368 C1360 1.378 . S
C1368 C1363 1.350 . S
C1369 H1356 0.929 . S
C1369 C1361 1.433 . S
C1369 N1371 1.384 . S
N1370 C1366 1.427 . S
N1370 C1367 1.384 . S
N1371 C1363 1.427 . S
N1371 C1369 1.384 . S
H1372 C1378 0.930 . S
H1373 C1382 0.930 . S
H1374 C1387 0.929 . S
H1375 C1385 0.929 . S
H1376 C1380 0.929 . S
H1377 C1386 0.929 . S
C1378 H1372 0.930 . S
C1378 C1379 1.367 . S
C1378 C1386 1.378 . S
C1379 C1378 1.367 . S
C1379 C1387 1.433 . S
C1380 H1376 0.929 . S
C1380 C1382 1.378 . S
C1380 C1384 1.350 . S
C1381 C1384 1.463 . S
C1381 C1386 1.350 . S
C1381 N1389 1.427 . S
C1382 H1373 0.930 . S
C1382 C1380 1.378 . S
C1382 C1383 1.367 . S
C1383 C1382 1.367 . S
C1383 C1385 1.433 . S
C1384 C1380 1.350 . S
C1384 C1381 1.463 . S
C1384 N1388 1.427 . S
C1385 H1375 0.929 . S
C1385 C1383 1.433 . S
C1385 N1388 1.384 . S
C1386 H1377 0.929 . S
C1386 C1378 1.378 . S
C1386 C1381 1.350 . S
C1387 H1374 0.929 . S
C1387 C1379 1.433 . S
C1387 N1389 1.384 . S
N1388 C1384 1.427 . S
N1388 C1385 1.384 . S
N1389 C1381 1.427 . S
N1389 C1387 1.384 . S
H1390 C1396 0.930 . S
H1391 C1400 0.930 . S
H1392 C1405 0.929 . S
H1393 C1403 0.929 . S
H1394 C1398 0.929 . S
H1395 C1404 0.929 . S
C1396 H1390 0.930 . S
C1396 C1397 1.367 . S
C1396 C1404 1.378 . S
C1397 C1396 1.367 . S
C1397 C1405 1.433 . S
C1398 H1394 0.929 . S
C1398 C1400 1.378 . S
C1398 C1402 1.350 . S
C1399 C1402 1.463 . S
C1399 C1404 1.350 . S
C1399 N1407 1.427 . S
C1400 H1391 0.930 . S
C1400 C1398 1.378 . S
C1400 C1401 1.367 . S
C1401 C1400 1.367 . S
C1401 C1403 1.433 . S
C1402 C1398 1.350 . S
C1402 C1399 1.463 . S
C1402 N1406 1.427 . S
C1403 H1393 0.929 . S
C1403 C1401 1.433 . S
C1403 N1406 1.384 . S
C1404 H1395 0.929 . S
C1404 C1396 1.378 . S
C1404 C1399 1.350 . S
C1405 H1392 0.929 . S
C1405 C1397 1.433 . S
C1405 N1407 1.384 . S
N1406 C1402 1.427 . S
N1406 C1403 1.384 . S
N1407 C1399 1.427 . S
N1407 C1405 1.384 . S
H1408 C1414 0.930 . S
H1409 C1418 0.930 . S
H1410 C1423 0.929 . S
H1411 C1421 0.929 . S
H1412 C1416 0.929 . S
H1413 C1422 0.929 . S
C1414 H1408 0.930 . S
C1414 C1415 1.367 . S
C1414 C1422 1.378 . S
C1415 C1414 1.367 . S
C1415 C1423 1.433 . S
C1416 H1412 0.929 . S
C1416 C1418 1.378 . S
C1416 C1420 1.350 . S
C1417 C1420 1.463 . S
C1417 C1422 1.350 . S
C1417 N1425 1.427 . S
C1418 H1409 0.930 . S
C1418 C1416 1.378 . S
C1418 C1419 1.367 . S
C1419 C1418 1.367 . S
C1419 C1421 1.433 . S
C1420 C1416 1.350 . S
C1420 C1417 1.463 . S
C1420 N1424 1.427 . S
C1421 H1411 0.929 . S
C1421 C1419 1.433 . S
C1421 N1424 1.384 . S
C1422 H1413 0.929 . S
C1422 C1414 1.378 . S
C1422 C1417 1.350 . S
C1423 H1410 0.929 . S
C1423 C1415 1.433 . S
C1423 N1425 1.384 . S
N1424 C1420 1.427 . S
N1424 C1421 1.384 . S
N1425 C1417 1.427 . S
N1425 C1423 1.384 . S
H1426 C1432 0.930 . S
H1427 C1436 0.930 . S
H1428 C1441 0.929 . S
H1429 C1439 0.929 . S
H1430 C1434 0.929 . S
H1431 C1440 0.929 . S
C1432 H1426 0.930 . S
C1432 C1433 1.367 . S
C1432 C1440 1.378 . S
C1433 C1432 1.367 . S
C1433 C1441 1.433 . S
C1434 H1430 0.929 . S
C1434 C1436 1.378 . S
C1434 C1438 1.350 . S
C1435 C1438 1.463 . S
C1435 C1440 1.350 . S
C1435 N1443 1.427 . S
C1436 H1427 0.930 . S
C1436 C1434 1.378 . S
C1436 C1437 1.367 1_565 S
C1437 C1436 1.367 1_545 S
C1437 C1439 1.433 . S
C1438 C1434 1.350 . S
C1438 C1435 1.463 . S
C1438 N1442 1.427 . S
C1439 H1429 0.929 . S
C1439 C1437 1.433 . S
C1439 N1442 1.384 1_545 S
C1440 H1431 0.929 . S
C1440 C1432 1.378 . S
C1440 C1435 1.350 . S
C1441 H1428 0.929 . S
C1441 C1433 1.433 . S
C1441 N1443 1.384 . S
N1442 C1438 1.427 . S
N1442 C1439 1.384 1_565 S
N1443 C1435 1.427 . S
N1443 C1441 1.384 . S
H1444 C1450 0.930 . S
H1445 C1454 0.930 . S
H1446 C1459 0.929 . S
H1447 C1457 0.929 . S
H1448 C1452 0.929 . S
H1449 C1458 0.929 . S
C1450 H1444 0.930 . S
C1450 C1451 1.367 . S
C1450 C1458 1.378 . S
C1451 C1450 1.367 . S
C1451 C1459 1.433 . S
C1452 H1448 0.929 . S
C1452 C1454 1.378 . S
C1452 C1456 1.350 . S
C1453 C1456 1.463 . S
C1453 C1458 1.350 . S
C1453 N1461 1.427 . S
C1454 H1445 0.930 . S
C1454 C1452 1.378 . S
C1454 C1455 1.367 . S
C1455 C1454 1.367 . S
C1455 C1457 1.433 . S
C1456 C1452 1.350 . S
C1456 C1453 1.463 . S
C1456 N1460 1.427 . S
C1457 H1447 0.929 . S
C1457 C1455 1.433 . S
C1457 N1460 1.384 . S
C1458 H1449 0.929 . S
C1458 C1450 1.378 . S
C1458 C1453 1.350 . S
C1459 H1446 0.929 . S
C1459 C1451 1.433 . S
C1459 N1461 1.384 . S
N1460 C1456 1.427 . S
N1460 C1457 1.384 . S
N1461 C1453 1.427 . S
N1461 C1459 1.384 . S
H1462 C1468 0.930 . S
H1463 C1472 0.930 . S
H1464 C1477 0.929 . S
H1465 C1475 0.929 . S
H1466 C1470 0.929 . S
H1467 C1476 0.929 . S
C1468 H1462 0.930 . S
C1468 C1469 1.367 . S
C1468 C1476 1.378 . S
C1469 C1468 1.367 . S
C1469 C1477 1.433 . S
C1470 H1466 0.929 . S
C1470 C1472 1.378 . S
C1470 C1474 1.350 . S
C1471 C1474 1.463 . S
C1471 C1476 1.350 . S
C1471 N1479 1.427 . S
C1472 H1463 0.930 . S
C1472 C1470 1.378 . S
C1472 C1473 1.367 . S
C1473 C1472 1.367 . S
C1473 C1475 1.433 . S
C1474 C1470 1.350 . S
C1474 C1471 1.463 . S
C1474 N1478 1.427 . S
C1475 H1465 0.929 . S
C1475 C1473 1.433 . S
C1475 N1478 1.384 . S
C1476 H1467 0.929 . S
C1476 C1468 1.378 . S
C1476 C1471 1.350 . S
C1477 H1464 0.929 . S
C1477 C1469 1.433 . S
C1477 N1479 1.384 . S
N1478 C1474 1.427 . S
N1478 C1475 1.384 . S
N1479 C1471 1.427 . S
N1479 C1477 1.384 . S
H1480 C1486 0.930 . S
H1481 C1490 0.930 . S
H1482 C1495 0.929 . S
H1483 C1493 0.929 . S
H1484 C1488 0.929 . S
H1485 C1494 0.929 . S
C1486 H1480 0.930 . S
C1486 C1487 1.367 . S
C1486 C1494 1.378 . S
C1487 C1486 1.367 . S
C1487 C1495 1.433 . S
C1488 H1484 0.929 . S
C1488 C1490 1.378 1_455 S
C1488 C1492 1.350 . S
C1489 C1492 1.463 . S
C1489 C1494 1.350 . S
C1489 N1497 1.427 . S
C1490 H1481 0.930 . S
C1490 C1488 1.378 1_655 S
C1490 C1491 1.367 . S
C1491 C1490 1.367 . S
C1491 C1493 1.433 1_655 S
C1492 C1488 1.350 . S
C1492 C1489 1.463 . S
C1492 N1496 1.427 . S
C1493 H1483 0.929 . S
C1493 C1491 1.433 1_455 S
C1493 N1496 1.384 . S
C1494 H1485 0.929 . S
C1494 C1486 1.378 . S
C1494 C1489 1.350 . S
C1495 H1482 0.929 . S
C1495 C1487 1.433 . S
C1495 N1497 1.384 . S
N1496 C1492 1.427 . S
N1496 C1493 1.384 . S
N1497 C1489 1.427 . S
N1497 C1495 1.384 . S
H1498 C1504 0.930 . S
H1499 C1508 0.930 . S
H1500 C1513 0.929 1_554 S
H1501 C1511 0.929 . S
H1502 C1506 0.929 . S
H1503 C1512 0.929 . S
C1504 H1498 0.930 . S
C1504 C1505 1.367 . S
C1504 C1512 1.378 . S
C1505 C1504 1.367 . S
C1505 C1513 1.433 . S
C1506 H1502 0.929 . S
C1506 C1508 1.378 . S
C1506 C1510 1.350 . S
C1507 C1510 1.463 1_556 S
C1507 C1512 1.350 . S
C1507 N1515 1.427 1_556 S
C1508 H1499 0.930 . S
C1508 C1506 1.378 . S
C1508 C1509 1.367 . S
C1509 C1508 1.367 . S
C1509 C1511 1.433 . S
C1510 C1506 1.350 . S
C1510 C1507 1.463 1_554 S
C1510 N1514 1.427 1_554 S
C1511 H1501 0.929 . S
C1511 C1509 1.433 . S
C1511 N1514 1.384 1_554 S
C1512 H1503 0.929 . S
C1512 C1504 1.378 . S
C1512 C1507 1.350 . S
C1513 H1500 0.929 1_556 S
C1513 C1505 1.433 . S
C1513 N1515 1.384 1_556 S
N1514 C1510 1.427 1_556 S
N1514 C1511 1.384 1_556 S
N1515 C1507 1.427 1_554 S
N1515 C1513 1.384 1_554 S
H1516 C1522 0.930 . S
H1517 C1526 0.930 . S
H1518 C1531 0.929 . S
H1519 C1529 0.929 . S
H1520 C1524 0.929 . S
H1521 C1530 0.929 . S
C1522 H1516 0.930 . S
C1522 C1523 1.367 . S
C1522 C1530 1.378 . S
C1523 C1522 1.367 . S
C1523 C1531 1.433 . S
C1524 H1520 0.929 . S
C1524 C1526 1.378 . S
C1524 C1528 1.350 . S
C1525 C1528 1.463 . S
C1525 C1530 1.350 . S
C1525 N1533 1.427 . S
C1526 H1517 0.930 . S
C1526 C1524 1.378 . S
C1526 C1527 1.367 . S
C1527 C1526 1.367 . S
C1527 C1529 1.433 . S
C1528 C1524 1.350 . S
C1528 C1525 1.463 . S
C1528 N1532 1.427 . S
C1529 H1519 0.929 . S
C1529 C1527 1.433 . S
C1529 N1532 1.384 . S
C1530 H1521 0.929 . S
C1530 C1522 1.378 . S
C1530 C1525 1.350 . S
C1531 H1518 0.929 . S
C1531 C1523 1.433 . S
C1531 N1533 1.384 . S
N1532 C1528 1.427 . S
N1532 C1529 1.384 . S
N1533 C1525 1.427 . S
N1533 C1531 1.384 . S
H1534 C1540 0.930 . S
H1535 C1544 0.930 . S
H1536 C1549 0.929 . S
H1537 C1547 0.929 . S
H1538 C1542 0.929 . S
H1539 C1548 0.929 . S
C1540 H1534 0.930 . S
C1540 C1541 1.367 . S
C1540 C1548 1.378 . S
C1541 C1540 1.367 . S
C1541 C1549 1.433 . S
C1542 H1538 0.929 . S
C1542 C1544 1.378 . S
C1542 C1546 1.350 . S
C1543 C1546 1.463 . S
C1543 C1548 1.350 . S
C1543 N1551 1.427 . S
C1544 H1535 0.930 . S
C1544 C1542 1.378 . S
C1544 C1545 1.367 . S
C1545 C1544 1.367 . S
C1545 C1547 1.433 . S
C1546 C1542 1.350 . S
C1546 C1543 1.463 . S
C1546 N1550 1.427 . S
C1547 H1537 0.929 . S
C1547 C1545 1.433 . S
C1547 N1550 1.384 . S
C1548 H1539 0.929 . S
C1548 C1540 1.378 . S
C1548 C1543 1.350 . S
C1549 H1536 0.929 . S
C1549 C1541 1.433 . S
C1549 N1551 1.384 . S
N1550 C1546 1.427 . S
N1550 C1547 1.384 . S
N1551 C1543 1.427 . S
N1551 C1549 1.384 . S
H1552 C1558 0.930 . S
H1553 C1562 0.930 . S
H1554 C1567 0.929 . S
H1555 C1565 0.929 . S
H1556 C1560 0.929 . S
H1557 C1566 0.929 . S
C1558 H1552 0.930 . S
C1558 C1559 1.367 . S
C1558 C1566 1.378 . S
C1559 C1558 1.367 . S
C1559 C1567 1.433 . S
C1560 H1556 0.929 . S
C1560 C1562 1.378 . S
C1560 C1564 1.350 . S
C1561 C1564 1.463 . S
C1561 C1566 1.350 . S
C1561 N1569 1.427 . S
C1562 H1553 0.930 . S
C1562 C1560 1.378 . S
C1562 C1563 1.367 1_455 S
C1563 C1562 1.367 1_655 S
C1563 C1565 1.433 . S
C1564 C1560 1.350 . S
C1564 C1561 1.463 . S
C1564 N1568 1.427 . S
C1565 H1555 0.929 . S
C1565 C1563 1.433 . S
C1565 N1568 1.384 1_655 S
C1566 H1557 0.929 . S
C1566 C1558 1.378 . S
C1566 C1561 1.350 . S
C1567 H1554 0.929 . S
C1567 C1559 1.433 . S
C1567 N1569 1.384 . S
N1568 C1564 1.427 . S
N1568 C1565 1.384 1_455 S
N1569 C1561 1.427 . S
N1569 C1567 1.384 . S
H1570 C1576 0.930 . S
H1571 C1580 0.930 . S
H1572 C1585 0.929 . S
H1573 C1583 0.929 1_455 S
H1574 C1578 0.929 . S
H1575 C1584 0.929 . S
C1576 H1570 0.930 . S
C1576 C1577 1.367 . S
C1576 C1584 1.378 . S
C1577 C1576 1.367 . S
C1577 C1585 1.433 . S
C1578 H1574 0.929 . S
C1578 C1580 1.378 1_655 S
C1578 C1582 1.350 . S
C1579 C1582 1.463 . S
C1579 C1584 1.350 . S
C1579 N1587 1.427 . S
C1580 H1571 0.930 . S
C1580 C1578 1.378 1_455 S
C1580 C1581 1.367 . S
C1581 C1580 1.367 . S
C1581 C1583 1.433 1_455 S
C1582 C1578 1.350 . S
C1582 C1579 1.463 . S
C1582 N1586 1.427 . S
C1583 H1573 0.929 1_655 S
C1583 C1581 1.433 1_655 S
C1583 N1586 1.384 . S
C1584 H1575 0.929 . S
C1584 C1576 1.378 . S
C1584 C1579 1.350 . S
C1585 H1572 0.929 . S
C1585 C1577 1.433 . S
C1585 N1587 1.384 . S
N1586 C1582 1.427 . S
N1586 C1583 1.384 . S
N1587 C1579 1.427 . S
N1587 C1585 1.384 . S
H1588 C1594 0.930 . S
H1589 C1598 0.930 . S
H1590 C1603 0.929 . S
H1591 C1601 0.929 . S
H1592 C1596 0.929 . S
H1593 C1602 0.929 . S
C1594 H1588 0.930 . S
C1594 C1595 1.367 . S
C1594 C1602 1.378 . S
C1595 C1594 1.367 . S
C1595 C1603 1.433 . S
C1596 H1592 0.929 . S
C1596 C1598 1.378 . S
C1596 C1600 1.350 . S
C1597 C1600 1.463 . S
C1597 C1602 1.350 . S
C1597 N1605 1.427 . S
C1598 H1589 0.930 . S
C1598 C1596 1.378 . S
C1598 C1599 1.367 . S
C1599 C1598 1.367 . S
C1599 C1601 1.433 . S
C1600 C1596 1.350 . S
C1600 C1597 1.463 . S
C1600 N1604 1.427 . S
C1601 H1591 0.929 . S
C1601 C1599 1.433 . S
C1601 N1604 1.384 . S
C1602 H1593 0.929 . S
C1602 C1594 1.378 . S
C1602 C1597 1.350 . S
C1603 H1590 0.929 . S
C1603 C1595 1.433 . S
C1603 N1605 1.384 . S
N1604 C1600 1.427 . S
N1604 C1601 1.384 . S
N1605 C1597 1.427 . S
N1605 C1603 1.384 . S
H1606 C1612 0.930 . S
H1607 C1616 0.930 . S
H1608 C1621 0.929 . S
H1609 C1619 0.929 . S
H1610 C1614 0.929 . S
H1611 C1620 0.929 . S
C1612 H1606 0.930 . S
C1612 C1613 1.367 . S
C1612 C1620 1.378 . S
C1613 C1612 1.367 . S
C1613 C1621 1.433 . S
C1614 H1610 0.929 . S
C1614 C1616 1.378 . S
C1614 C1618 1.350 . S
C1615 C1618 1.463 . S
C1615 C1620 1.350 . S
C1615 N1623 1.427 . S
C1616 H1607 0.930 . S
C1616 C1614 1.378 . S
C1616 C1617 1.367 . S
C1617 C1616 1.367 . S
C1617 C1619 1.433 . S
C1618 C1614 1.350 . S
C1618 C1615 1.463 . S
C1618 N1622 1.427 . S
C1619 H1609 0.929 . S
C1619 C1617 1.433 . S
C1619 N1622 1.384 . S
C1620 H1611 0.929 . S
C1620 C1612 1.378 . S
C1620 C1615 1.350 . S
C1621 H1608 0.929 . S
C1621 C1613 1.433 . S
C1621 N1623 1.384 . S
N1622 C1618 1.427 . S
N1622 C1619 1.384 . S
N1623 C1615 1.427 . S
N1623 C1621 1.384 . S
H1624 C1630 0.930 . S
H1625 C1634 0.930 . S
H1626 C1639 0.929 . S
H1627 C1637 0.929 . S
H1628 C1632 0.929 . S
H1629 C1638 0.929 . S
C1630 H1624 0.930 . S
C1630 C1631 1.367 . S
C1630 C1638 1.378 . S
C1631 C1630 1.367 . S
C1631 C1639 1.433 . S
C1632 H1628 0.929 . S
C1632 C1634 1.378 . S
C1632 C1636 1.350 . S
C1633 C1636 1.463 . S
C1633 C1638 1.350 . S
C1633 N1641 1.427 . S
C1634 H1625 0.930 . S
C1634 C1632 1.378 . S
C1634 C1635 1.367 . S
C1635 C1634 1.367 . S
C1635 C1637 1.433 . S
C1636 C1632 1.350 . S
C1636 C1633 1.463 . S
C1636 N1640 1.427 . S
C1637 H1627 0.929 . S
C1637 C1635 1.433 . S
C1637 N1640 1.384 . S
C1638 H1629 0.929 . S
C1638 C1630 1.378 . S
C1638 C1633 1.350 . S
C1639 H1626 0.929 . S
C1639 C1631 1.433 . S
C1639 N1641 1.384 . S
N1640 C1636 1.427 . S
N1640 C1637 1.384 . S
N1641 C1633 1.427 . S
N1641 C1639 1.384 . S
H1642 C1648 0.930 . S
H1643 C1652 0.930 . S
H1644 C1657 0.929 . S
H1645 C1655 0.929 . S
H1646 C1650 0.929 . S
H1647 C1656 0.929 . S
C1648 H1642 0.930 . S
C1648 C1649 1.367 . S
C1648 C1656 1.378 . S
C1649 C1648 1.367 . S
C1649 C1657 1.433 . S
C1650 H1646 0.929 . S
C1650 C1652 1.378 . S
C1650 C1654 1.350 . S
C1651 C1654 1.463 . S
C1651 C1656 1.350 . S
C1651 N1659 1.427 . S
C1652 H1643 0.930 . S
C1652 C1650 1.378 . S
C1652 C1653 1.367 . S
C1653 C1652 1.367 . S
C1653 C1655 1.433 . S
C1654 C1650 1.350 . S
C1654 C1651 1.463 . S
C1654 N1658 1.427 . S
C1655 H1645 0.929 . S
C1655 C1653 1.433 . S
C1655 N1658 1.384 . S
C1656 H1647 0.929 . S
C1656 C1648 1.378 . S
C1656 C1651 1.350 . S
C1657 H1644 0.929 . S
C1657 C1649 1.433 . S
C1657 N1659 1.384 . S
N1658 C1654 1.427 . S
N1658 C1655 1.384 . S
N1659 C1651 1.427 . S
N1659 C1657 1.384 . S
H1660 C1666 0.930 . S
H1661 C1670 0.930 . S
H1662 C1675 0.929 . S
H1663 C1673 0.929 . S
H1664 C1668 0.929 . S
H1665 C1674 0.929 . S
C1666 H1660 0.930 . S
C1666 C1667 1.367 . S
C1666 C1674 1.378 . S
C1667 C1666 1.367 . S
C1667 C1675 1.433 . S
C1668 H1664 0.929 . S
C1668 C1670 1.378 . S
C1668 C1672 1.350 . S
C1669 C1672 1.463 . S
C1669 C1674 1.350 . S
C1669 N1677 1.427 . S
C1670 H1661 0.930 . S
C1670 C1668 1.378 . S
C1670 C1671 1.367 . S
C1671 C1670 1.367 . S
C1671 C1673 1.433 . S
C1672 C1668 1.350 . S
C1672 C1669 1.463 . S
C1672 N1676 1.427 . S
C1673 H1663 0.929 . S
C1673 C1671 1.433 . S
C1673 N1676 1.384 . S
C1674 H1665 0.929 . S
C1674 C1666 1.378 . S
C1674 C1669 1.350 . S
C1675 H1662 0.929 . S
C1675 C1667 1.433 . S
C1675 N1677 1.384 . S
N1676 C1672 1.427 . S
N1676 C1673 1.384 . S
N1677 C1669 1.427 . S
N1677 C1675 1.384 . S
H1678 C1684 0.930 . S
H1679 C1688 0.901 1_655 S
H1680 C1693 0.929 . S
H1681 C1691 0.929 . S
H1682 C1686 0.929 . S
H1683 C1692 0.929 . S
C1684 H1678 0.930 . S
C1684 C1685 1.367 . S
C1684 C1692 1.378 . S
C1685 C1684 1.367 . S
C1685 C1693 1.433 . S
C1686 H1682 0.929 . S
C1686 C1688 1.378 . S
C1686 C1690 1.350 . S
C1687 C1690 1.463 . S
C1687 C1692 1.350 . S
C1687 N1695 1.427 . S
C1688 H1679 0.901 1_455 S
C1688 C1686 1.378 . S
C1688 C1689 1.367 . S
C1689 C1688 1.367 . S
C1689 C1691 1.433 . S
C1690 C1686 1.350 . S
C1690 C1687 1.463 . S
C1690 N1694 1.427 . S
C1691 H1681 0.929 . S
C1691 C1689 1.433 . S
C1691 N1694 1.384 . S
C1692 H1683 0.929 . S
C1692 C1684 1.378 . S
C1692 C1687 1.350 . S
C1693 H1680 0.929 . S
C1693 C1685 1.433 . S
C1693 N1695 1.384 . S
N1694 C1690 1.427 . S
N1694 C1691 1.384 . S
N1695 C1687 1.427 . S
N1695 C1693 1.384 . S
H1696 C1702 0.930 . S
H1697 C1706 0.930 . S
H1698 C1711 0.929 . S
H1699 C1709 0.929 . S
H1700 C1704 0.929 . S
H1701 C1710 0.929 . S
C1702 H1696 0.930 . S
C1702 C1703 1.367 . S
C1702 C1710 1.378 . S
C1703 C1702 1.367 . S
C1703 C1711 1.433 . S
C1704 H1700 0.929 . S
C1704 C1706 1.378 . S
C1704 C1708 1.350 . S
C1705 C1708 1.463 . S
C1705 C1710 1.350 . S
C1705 N1713 1.427 . S
C1706 H1697 0.930 . S
C1706 C1704 1.378 . S
C1706 C1707 1.367 . S
C1707 C1706 1.367 . S
C1707 C1709 1.433 . S
C1708 C1704 1.350 . S
C1708 C1705 1.463 . S
C1708 N1712 1.427 . S
C1709 H1699 0.929 . S
C1709 C1707 1.433 . S
C1709 N1712 1.384 . S
C1710 H1701 0.929 . S
C1710 C1702 1.378 . S
C1710 C1705 1.350 . S
C1711 H1698 0.929 . S
C1711 C1703 1.433 . S
C1711 N1713 1.384 . S
N1712 C1708 1.427 . S
N1712 C1709 1.384 . S
N1713 C1705 1.427 . S
N1713 C1711 1.384 . S
H1714 C1720 0.930 . S
H1715 C1724 0.930 1_455 S
H1716 C1729 0.929 . S
H1717 C1727 0.929 . S
H1718 C1722 0.933 . S
H1719 C1728 0.929 . S
C1720 H1714 0.930 . S
C1720 C1721 1.367 . S
C1720 C1728 1.378 . S
C1721 C1720 1.367 . S
C1721 C1729 1.433 . S
C1722 H1718 0.933 . S
C1722 C1724 1.378 . S
C1722 C1726 1.350 . S
C1723 C1726 1.463 . S
C1723 C1728 1.350 . S
C1723 N1731 1.427 . S
C1724 H1715 0.930 1_655 S
C1724 C1722 1.378 . S
C1724 C1725 1.367 . S
C1725 C1724 1.367 . S
C1725 C1727 1.433 . S
C1726 C1722 1.350 . S
C1726 C1723 1.463 . S
C1726 N1730 1.427 . S
C1727 H1717 0.929 . S
C1727 C1725 1.433 . S
C1727 N1730 1.384 . S
C1728 H1719 0.929 . S
C1728 C1720 1.378 . S
C1728 C1723 1.350 . S
C1729 H1716 0.929 . S
C1729 C1721 1.433 . S
C1729 N1731 1.384 . S
N1730 C1726 1.427 . S
N1730 C1727 1.384 . S
N1731 C1723 1.427 . S
N1731 C1729 1.384 . S
H1732 C1738 0.930 . S
H1733 C1742 0.930 . S
H1734 C1747 0.929 . S
H1735 C1745 0.929 . S
H1736 C1740 0.929 . S
H1737 C1746 0.929 . S
C1738 H1732 0.930 . S
C1738 C1739 1.367 . S
C1738 C1746 1.378 . S
C1739 C1738 1.367 . S
C1739 C1747 1.433 . S
C1740 H1736 0.929 . S
C1740 C1742 1.378 . S
C1740 C1744 1.350 . S
C1741 C1744 1.463 . S
C1741 C1746 1.350 . S
C1741 N1749 1.427 . S
C1742 H1733 0.930 . S
C1742 C1740 1.378 . S
C1742 C1743 1.367 . S
C1743 C1742 1.367 . S
C1743 C1745 1.433 . S
C1744 C1740 1.350 . S
C1744 C1741 1.463 . S
C1744 N1748 1.427 . S
C1745 H1735 0.929 . S
C1745 C1743 1.433 . S
C1745 N1748 1.384 . S
C1746 H1737 0.929 . S
C1746 C1738 1.378 . S
C1746 C1741 1.350 . S
C1747 H1734 0.929 . S
C1747 C1739 1.433 . S
C1747 N1749 1.384 . S
N1748 C1744 1.427 . S
N1748 C1745 1.384 . S
N1749 C1741 1.427 . S
N1749 C1747 1.384 . S
H1750 C1756 0.930 . S
H1751 C1760 0.930 . S
H1752 C1765 0.929 . S
H1753 C1763 0.929 . S
H1754 C1758 0.929 . S
H1755 C1764 0.929 . S
C1756 H1750 0.930 . S
C1756 C1757 1.367 . S
C1756 C1764 1.378 . S
C1757 C1756 1.367 . S
C1757 C1765 1.433 . S
C1758 H1754 0.929 . S
C1758 C1760 1.378 . S
C1758 C1762 1.350 . S
C1759 C1762 1.463 . S
C1759 C1764 1.350 . S
C1759 N1767 1.427 . S
C1760 H1751 0.930 . S
C1760 C1758 1.378 . S
C1760 C1761 1.367 . S
C1761 C1760 1.367 . S
C1761 C1763 1.433 . S
C1762 C1758 1.350 . S
C1762 C1759 1.463 . S
C1762 N1766 1.427 . S
C1763 H1753 0.929 . S
C1763 C1761 1.433 . S
C1763 N1766 1.384 . S
C1764 H1755 0.929 . S
C1764 C1756 1.378 . S
C1764 C1759 1.350 . S
C1765 H1752 0.929 . S
C1765 C1757 1.433 . S
C1765 N1767 1.384 . S
N1766 C1762 1.427 . S
N1766 C1763 1.384 . S
N1767 C1759 1.427 . S
N1767 C1765 1.384 . S
H1768 C1774 0.930 . S
H1769 C1778 0.930 . S
H1770 C1783 0.929 . S
H1771 C1781 0.929 . S
H1772 C1776 0.929 . S
H1773 C1782 0.929 . S
C1774 H1768 0.930 . S
C1774 C1775 1.367 . S
C1774 C1782 1.378 . S
C1775 C1774 1.367 . S
C1775 C1783 1.433 . S
C1776 H1772 0.929 . S
C1776 C1778 1.378 . S
C1776 C1780 1.350 . S
C1777 C1780 1.463 . S
C1777 C1782 1.350 . S
C1777 N1785 1.427 . S
C1778 H1769 0.930 . S
C1778 C1776 1.378 . S
C1778 C1779 1.367 . S
C1779 C1778 1.367 . S
C1779 C1781 1.433 . S
C1780 C1776 1.350 . S
C1780 C1777 1.463 . S
C1780 N1784 1.427 . S
C1781 H1771 0.929 . S
C1781 C1779 1.433 . S
C1781 N1784 1.384 . S
C1782 H1773 0.929 . S
C1782 C1774 1.378 . S
C1782 C1777 1.350 . S
C1783 H1770 0.929 . S
C1783 C1775 1.433 . S
C1783 N1785 1.384 . S
N1784 C1780 1.427 . S
N1784 C1781 1.384 . S
N1785 C1777 1.427 . S
N1785 C1783 1.384 . S
H1786 C1792 0.930 . S
H1787 C1796 0.930 1_556 S
H1788 C1801 0.929 . S
H1789 C1799 0.929 . S
H1790 C1794 0.929 . S
H1791 C1800 0.929 . S
C1792 H1786 0.930 . S
C1792 C1793 1.367 . S
C1792 C1800 1.378 . S
C1793 C1792 1.367 . S
C1793 C1801 1.433 . S
C1794 H1790 0.929 . S
C1794 C1796 1.378 . S
C1794 C1798 1.350 . S
C1795 C1798 1.463 . S
C1795 C1800 1.350 . S
C1795 N1803 1.427 . S
C1796 H1787 0.930 1_554 S
C1796 C1794 1.378 . S
C1796 C1797 1.367 . S
C1797 C1796 1.367 . S
C1797 C1799 1.433 . S
C1798 C1794 1.350 . S
C1798 C1795 1.463 . S
C1798 N1802 1.427 . S
C1799 H1789 0.929 . S
C1799 C1797 1.433 . S
C1799 N1802 1.384 . S
C1800 H1791 0.929 . S
C1800 C1792 1.378 . S
C1800 C1795 1.350 . S
C1801 H1788 0.929 . S
C1801 C1793 1.433 . S
C1801 N1803 1.384 . S
N1802 C1798 1.427 . S
N1802 C1799 1.384 . S
N1803 C1795 1.427 . S
N1803 C1801 1.384 . S
H1804 C1810 0.930 . S
H1805 C1814 0.930 . S
H1806 C1819 0.929 . S
H1807 C1817 0.929 . S
H1808 C1812 0.929 . S
H1809 C1818 0.929 . S
C1810 H1804 0.930 . S
C1810 C1811 1.367 . S
C1810 C1818 1.378 . S
C1811 C1810 1.367 . S
C1811 C1819 1.433 . S
C1812 H1808 0.929 . S
C1812 C1814 1.378 . S
C1812 C1816 1.350 . S
C1813 C1816 1.463 . S
C1813 C1818 1.350 . S
C1813 N1821 1.427 . S
C1814 H1805 0.930 . S
C1814 C1812 1.378 . S
C1814 C1815 1.367 . S
C1815 C1814 1.367 . S
C1815 C1817 1.433 . S
C1816 C1812 1.350 . S
C1816 C1813 1.463 . S
C1816 N1820 1.427 . S
C1817 H1807 0.929 . S
C1817 C1815 1.433 . S
C1817 N1820 1.384 . S
C1818 H1809 0.929 . S
C1818 C1810 1.378 . S
C1818 C1813 1.350 . S
C1819 H1806 0.929 . S
C1819 C1811 1.433 . S
C1819 N1821 1.384 . S
N1820 C1816 1.427 . S
N1820 C1817 1.384 . S
N1821 C1813 1.427 . S
N1821 C1819 1.384 . S
H1822 C1828 0.930 . S
H1823 C1832 0.930 1_554 S
H1824 C1837 0.929 . S
H1825 C1835 0.929 . S
H1826 C1830 0.929 . S
H1827 C1836 0.929 . S
C1828 H1822 0.930 . S
C1828 C1829 1.367 . S
C1828 C1836 1.378 . S
C1829 C1828 1.367 . S
C1829 C1837 1.433 . S
C1830 H1826 0.929 . S
C1830 C1832 1.378 . S
C1830 C1834 1.350 . S
C1831 C1834 1.463 . S
C1831 C1836 1.350 . S
C1831 N1839 1.427 . S
C1832 H1823 0.930 1_556 S
C1832 C1830 1.378 . S
C1832 C1833 1.367 . S
C1833 C1832 1.367 . S
C1833 C1835 1.433 . S
C1834 C1830 1.350 . S
C1834 C1831 1.463 . S
C1834 N1838 1.427 . S
C1835 H1825 0.929 . S
C1835 C1833 1.433 . S
C1835 N1838 1.384 . S
C1836 H1827 0.929 . S
C1836 C1828 1.378 . S
C1836 C1831 1.350 . S
C1837 H1824 0.929 . S
C1837 C1829 1.433 . S
C1837 N1839 1.384 . S
N1838 C1834 1.427 . S
N1838 C1835 1.384 . S
N1839 C1831 1.427 . S
N1839 C1837 1.384 . S
H1840 C1846 0.930 . S
H1841 C1850 0.930 . S
H1842 C1855 0.929 . S
H1843 C1853 0.929 . S
H1844 C1848 0.929 . S
H1845 C1854 0.929 . S
C1846 H1840 0.930 . S
C1846 C1847 1.367 . S
C1846 C1854 1.378 . S
C1847 C1846 1.367 . S
C1847 C1855 1.433 . S
C1848 H1844 0.929 . S
C1848 C1850 1.378 . S
C1848 C1852 1.350 . S
C1849 C1852 1.463 . S
C1849 C1854 1.350 . S
C1849 N1857 1.427 . S
C1850 H1841 0.930 . S
C1850 C1848 1.378 . S
C1850 C1851 1.367 . S
C1851 C1850 1.367 . S
C1851 C1853 1.433 . S
C1852 C1848 1.350 . S
C1852 C1849 1.463 . S
C1852 N1856 1.427 . S
C1853 H1843 0.929 . S
C1853 C1851 1.433 . S
C1853 N1856 1.384 . S
C1854 H1845 0.929 . S
C1854 C1846 1.378 . S
C1854 C1849 1.350 . S
C1855 H1842 0.929 . S
C1855 C1847 1.433 . S
C1855 N1857 1.384 . S
N1856 C1852 1.427 . S
N1856 C1853 1.384 . S
N1857 C1849 1.427 . S
N1857 C1855 1.384 . S
H1858 C1864 0.930 . S
H1859 C1868 0.926 1_554 S
H1860 C1873 0.929 . S
H1861 C1871 0.929 . S
H1862 C1866 0.929 . S
H1863 C1872 0.929 . S
C1864 H1858 0.930 . S
C1864 C1865 1.367 . S
C1864 C1872 1.378 . S
C1865 C1864 1.367 . S
C1865 C1873 1.433 . S
C1866 H1862 0.929 . S
C1866 C1868 1.378 . S
C1866 C1870 1.350 . S
C1867 C1870 1.463 . S
C1867 C1872 1.350 . S
C1867 N1875 1.427 . S
C1868 H1859 0.926 1_556 S
C1868 C1866 1.378 . S
C1868 C1869 1.367 . S
C1869 C1868 1.367 . S
C1869 C1871 1.433 . S
C1870 C1866 1.350 . S
C1870 C1867 1.463 . S
C1870 N1874 1.427 . S
C1871 H1861 0.929 . S
C1871 C1869 1.433 . S
C1871 N1874 1.384 . S
C1872 H1863 0.929 . S
C1872 C1864 1.378 . S
C1872 C1867 1.350 . S
C1873 H1860 0.929 . S
C1873 C1865 1.433 . S
C1873 N1875 1.384 . S
N1874 C1870 1.427 . S
N1874 C1871 1.384 . S
N1875 C1867 1.427 . S
N1875 C1873 1.384 . S
H1876 C1882 0.930 . S
H1877 C1886 0.930 . S
H1878 C1891 0.929 . S
H1879 C1889 0.929 . S
H1880 C1884 0.929 . S
H1881 C1890 0.929 . S
C1882 H1876 0.930 . S
C1882 C1883 1.367 . S
C1882 C1890 1.378 . S
C1883 C1882 1.367 . S
C1883 C1891 1.433 . S
C1884 H1880 0.929 . S
C1884 C1886 1.378 . S
C1884 C1888 1.350 . S
C1885 C1888 1.463 . S
C1885 C1890 1.350 . S
C1885 N1893 1.427 . S
C1886 H1877 0.930 . S
C1886 C1884 1.378 . S
C1886 C1887 1.367 . S
C1887 C1886 1.367 . S
C1887 C1889 1.433 . S
C1888 C1884 1.350 . S
C1888 C1885 1.463 . S
C1888 N1892 1.427 . S
C1889 H1879 0.929 . S
C1889 C1887 1.433 . S
C1889 N1892 1.384 . S
C1890 H1881 0.929 . S
C1890 C1882 1.378 . S
C1890 C1885 1.350 . S
C1891 H1878 0.929 . S
C1891 C1883 1.433 . S
C1891 N1893 1.384 . S
N1892 C1888 1.427 . S
N1892 C1889 1.384 . S
N1893 C1885 1.427 . S
N1893 C1891 1.384 . S
H1894 C1900 0.930 . S
H1895 C1904 0.930 . S
H1896 C1909 0.929 . S
H1897 C1907 0.929 . S
H1898 C1902 0.929 . S
H1899 C1908 0.929 . S
C1900 H1894 0.930 . S
C1900 C1901 1.367 . S
C1900 C1908 1.378 . S
C1901 C1900 1.367 . S
C1901 C1909 1.433 . S
C1902 H1898 0.929 . S
C1902 C1904 1.378 . S
C1902 C1906 1.350 . S
C1903 C1906 1.463 . S
C1903 C1908 1.350 . S
C1903 N1911 1.427 . S
C1904 H1895 0.930 . S
C1904 C1902 1.378 . S
C1904 C1905 1.367 . S
C1905 C1904 1.367 . S
C1905 C1907 1.433 . S
C1906 C1902 1.350 . S
C1906 C1903 1.463 . S
C1906 N1910 1.427 . S
C1907 H1897 0.929 . S
C1907 C1905 1.433 . S
C1907 N1910 1.384 . S
C1908 H1899 0.929 . S
C1908 C1900 1.378 . S
C1908 C1903 1.350 . S
C1909 H1896 0.929 . S
C1909 C1901 1.433 . S
C1909 N1911 1.384 . S
N1910 C1906 1.427 . S
N1910 C1907 1.384 . S
N1911 C1903 1.427 . S
N1911 C1909 1.384 . S
H1912 C1918 0.930 . S
H1913 C1922 0.930 . S
H1914 C1927 0.929 . S
H1915 C1925 0.929 . S
H1916 C1920 0.929 . S
H1917 C1926 0.929 . S
C1918 H1912 0.930 . S
C1918 C1919 1.367 . S
C1918 C1926 1.378 . S
C1919 C1918 1.367 . S
C1919 C1927 1.433 . S
C1920 H1916 0.929 . S
C1920 C1922 1.378 . S
C1920 C1924 1.350 . S
C1921 C1924 1.463 . S
C1921 C1926 1.350 . S
C1921 N1929 1.427 . S
C1922 H1913 0.930 . S
C1922 C1920 1.378 . S
C1922 C1923 1.367 . S
C1923 C1922 1.367 . S
C1923 C1925 1.433 . S
C1924 C1920 1.350 . S
C1924 C1921 1.463 . S
C1924 N1928 1.427 . S
C1925 H1915 0.929 . S
C1925 C1923 1.433 . S
C1925 N1928 1.384 . S
C1926 H1917 0.929 . S
C1926 C1918 1.378 . S
C1926 C1921 1.350 . S
C1927 H1914 0.929 . S
C1927 C1919 1.433 . S
C1927 N1929 1.384 . S
N1928 C1924 1.427 . S
N1928 C1925 1.384 . S
N1929 C1921 1.427 . S
N1929 C1927 1.384 . S
H1930 C1936 0.930 . S
H1931 C1940 0.930 . S
H1932 C1945 0.929 . S
H1933 C1943 0.929 . S
H1934 C1938 0.929 . S
H1935 C1944 0.929 . S
C1936 H1930 0.930 . S
C1936 C1937 1.367 . S
C1936 C1944 1.378 . S
C1937 C1936 1.367 . S
C1937 C1945 1.433 . S
C1938 H1934 0.929 . S
C1938 C1940 1.378 . S
C1938 C1942 1.350 . S
C1939 C1942 1.463 . S
C1939 C1944 1.350 . S
C1939 N1947 1.427 . S
C1940 H1931 0.930 . S
C1940 C1938 1.378 . S
C1940 C1941 1.367 . S
C1941 C1940 1.367 . S
C1941 C1943 1.433 . S
C1942 C1938 1.350 . S
C1942 C1939 1.463 . S
C1942 N1946 1.427 . S
C1943 H1933 0.929 . S
C1943 C1941 1.433 . S
C1943 N1946 1.384 . S
C1944 H1935 0.929 . S
C1944 C1936 1.378 . S
C1944 C1939 1.350 . S
C1945 H1932 0.929 . S
C1945 C1937 1.433 . S
C1945 N1947 1.384 . S
N1946 C1942 1.427 . S
N1946 C1943 1.384 . S
N1947 C1939 1.427 . S
N1947 C1945 1.384 . S
H1948 C1954 0.930 . S
H1949 C1958 0.930 . S
H1950 C1963 0.929 . S
H1951 C1961 0.929 . S
H1952 C1956 0.929 . S
H1953 C1962 0.929 . S
C1954 H1948 0.930 . S
C1954 C1955 1.367 . S
C1954 C1962 1.378 . S
C1955 C1954 1.367 . S
C1955 C1963 1.433 . S
C1956 H1952 0.929 . S
C1956 C1958 1.378 . S
C1956 C1960 1.350 . S
C1957 C1960 1.463 . S
C1957 C1962 1.350 . S
C1957 N1965 1.427 . S
C1958 H1949 0.930 . S
C1958 C1956 1.378 . S
C1958 C1959 1.367 . S
C1959 C1958 1.367 . S
C1959 C1961 1.433 . S
C1960 C1956 1.350 . S
C1960 C1957 1.463 . S
C1960 N1964 1.427 . S
C1961 H1951 0.929 . S
C1961 C1959 1.433 . S
C1961 N1964 1.384 . S
C1962 H1953 0.929 . S
C1962 C1954 1.378 . S
C1962 C1957 1.350 . S
C1963 H1950 0.929 . S
C1963 C1955 1.433 . S
C1963 N1965 1.384 . S
N1964 C1960 1.427 . S
N1964 C1961 1.384 . S
N1965 C1957 1.427 . S
N1965 C1963 1.384 . S
H1966 C1972 0.930 . S
H1967 C1976 0.930 . S
H1968 C1981 0.929 . S
H1969 C1979 0.929 . S
H1970 C1974 0.929 . S
H1971 C1980 0.929 . S
C1972 H1966 0.930 . S
C1972 C1973 1.367 . S
C1972 C1980 1.378 . S
C1973 C1972 1.367 . S
C1973 C1981 1.433 . S
C1974 H1970 0.929 . S
C1974 C1976 1.378 . S
C1974 C1978 1.350 . S
C1975 C1978 1.463 . S
C1975 C1980 1.350 . S
C1975 N1983 1.427 . S
C1976 H1967 0.930 . S
C1976 C1974 1.378 . S
C1976 C1977 1.367 . S
C1977 C1976 1.367 . S
C1977 C1979 1.433 . S
C1978 C1974 1.350 . S
C1978 C1975 1.463 . S
C1978 N1982 1.427 . S
C1979 H1969 0.929 . S
C1979 C1977 1.433 . S
C1979 N1982 1.384 . S
C1980 H1971 0.929 . S
C1980 C1972 1.378 . S
C1980 C1975 1.350 . S
C1981 H1968 0.929 . S
C1981 C1973 1.433 . S
C1981 N1983 1.384 . S
N1982 C1978 1.427 . S
N1982 C1979 1.384 . S
N1983 C1975 1.427 . S
N1983 C1981 1.384 . S
H1984 C1990 0.930 . S
H1985 C1994 0.930 . S
H1986 C1999 0.929 . S
H1987 C1997 0.929 . S
H1988 C1992 0.929 . S
H1989 C1998 0.929 . S
C1990 H1984 0.930 . S
C1990 C1991 1.367 . S
C1990 C1998 1.378 . S
C1991 C1990 1.367 . S
C1991 C1999 1.433 . S
C1992 H1988 0.929 . S
C1992 C1994 1.378 . S
C1992 C1996 1.350 . S
C1993 C1996 1.463 . S
C1993 C1998 1.350 . S
C1993 N2001 1.427 . S
C1994 H1985 0.930 . S
C1994 C1992 1.378 . S
C1994 C1995 1.367 . S
C1995 C1994 1.367 . S
C1995 C1997 1.433 . S
C1996 C1992 1.350 . S
C1996 C1993 1.463 . S
C1996 N2000 1.427 . S
C1997 H1987 0.929 . S
C1997 C1995 1.433 . S
C1997 N2000 1.384 . S
C1998 H1989 0.929 . S
C1998 C1990 1.378 . S
C1998 C1993 1.350 . S
C1999 H1986 0.929 . S
C1999 C1991 1.433 . S
C1999 N2001 1.384 . S
N2000 C1996 1.427 . S
N2000 C1997 1.384 . S
N2001 C1993 1.427 . S
N2001 C1999 1.384 . S
H2002 C2008 0.930 . S
H2003 C2012 0.930 . S
H2004 C2017 0.929 . S
H2005 C2015 0.929 1_565 S
H2006 C2010 0.929 . S
H2007 C2016 0.929 . S
C2008 H2002 0.930 . S
C2008 C2009 1.367 . S
C2008 C2016 1.378 . S
C2009 C2008 1.367 . S
C2009 C2017 1.433 . S
C2010 H2006 0.929 . S
C2010 C2012 1.378 . S
C2010 C2014 1.350 . S
C2011 C2014 1.463 . S
C2011 C2016 1.350 . S
C2011 N2019 1.427 . S
C2012 H2003 0.930 . S
C2012 C2010 1.378 . S
C2012 C2013 1.367 . S
C2013 C2012 1.367 . S
C2013 C2015 1.433 . S
C2014 C2010 1.350 . S
C2014 C2011 1.463 . S
C2014 N2018 1.427 . S
C2015 H2005 0.929 1_545 S
C2015 C2013 1.433 . S
C2015 N2018 1.384 . S
C2016 H2007 0.929 . S
C2016 C2008 1.378 . S
C2016 C2011 1.350 . S
C2017 H2004 0.929 . S
C2017 C2009 1.433 . S
C2017 N2019 1.384 . S
N2018 C2014 1.427 . S
N2018 C2015 1.384 . S
N2019 C2011 1.427 . S
N2019 C2017 1.384 . S
H2020 C2026 0.930 . S
H2021 C2030 0.930 . S
H2022 C2035 0.929 . S
H2023 C2033 0.929 . S
H2024 C2028 0.929 . S
H2025 C2034 0.929 . S
C2026 H2020 0.930 . S
C2026 C2027 1.367 . S
C2026 C2034 1.378 . S
C2027 C2026 1.367 . S
C2027 C2035 1.433 . S
C2028 H2024 0.929 . S
C2028 C2030 1.378 . S
C2028 C2032 1.350 . S
C2029 C2032 1.463 . S
C2029 C2034 1.350 . S
C2029 N2037 1.427 . S
C2030 H2021 0.930 . S
C2030 C2028 1.378 . S
C2030 C2031 1.367 . S
C2031 C2030 1.367 . S
C2031 C2033 1.433 . S
C2032 C2028 1.350 . S
C2032 C2029 1.463 . S
C2032 N2036 1.427 . S
C2033 H2023 0.929 . S
C2033 C2031 1.433 . S
C2033 N2036 1.384 . S
C2034 H2025 0.929 . S
C2034 C2026 1.378 . S
C2034 C2029 1.350 . S
C2035 H2022 0.929 . S
C2035 C2027 1.433 . S
C2035 N2037 1.384 . S
N2036 C2032 1.427 . S
N2036 C2033 1.384 . S
N2037 C2029 1.427 . S
N2037 C2035 1.384 . S
H2038 C2044 0.930 . S
H2039 C2048 0.930 1_455 S
H2040 C2053 0.929 . S
H2041 C2051 0.929 . S
H2042 C2046 0.929 . S
H2043 C2052 0.929 . S
C2044 H2038 0.930 . S
C2044 C2045 1.367 . S
C2044 C2052 1.378 . S
C2045 C2044 1.367 . S
C2045 C2053 1.433 . S
C2046 H2042 0.929 . S
C2046 C2048 1.378 . S
C2046 C2050 1.350 . S
C2047 C2050 1.463 . S
C2047 C2052 1.350 . S
C2047 N2055 1.427 . S
C2048 H2039 0.930 1_655 S
C2048 C2046 1.378 . S
C2048 C2049 1.367 . S
C2049 C2048 1.367 . S
C2049 C2051 1.433 . S
C2050 C2046 1.350 . S
C2050 C2047 1.463 . S
C2050 N2054 1.427 . S
C2051 H2041 0.929 . S
C2051 C2049 1.433 . S
C2051 N2054 1.384 . S
C2052 H2043 0.929 . S
C2052 C2044 1.378 . S
C2052 C2047 1.350 . S
C2053 H2040 0.929 . S
C2053 C2045 1.433 . S
C2053 N2055 1.384 . S
N2054 C2050 1.427 . S
N2054 C2051 1.384 . S
N2055 C2047 1.427 . S
N2055 C2053 1.384 . S
H2056 C2062 0.930 . S
H2057 C2066 0.930 . S
H2058 C2071 0.929 . S
H2059 C2069 0.929 . S
H2060 C2064 0.929 . S
H2061 C2070 0.929 . S
C2062 H2056 0.930 . S
C2062 C2063 1.367 . S
C2062 C2070 1.378 . S
C2063 C2062 1.367 . S
C2063 C2071 1.433 . S
C2064 H2060 0.929 . S
C2064 C2066 1.378 . S
C2064 C2068 1.350 . S
C2065 C2068 1.463 . S
C2065 C2070 1.350 . S
C2065 N2073 1.427 . S
C2066 H2057 0.930 . S
C2066 C2064 1.378 . S
C2066 C2067 1.367 . S
C2067 C2066 1.367 . S
C2067 C2069 1.433 . S
C2068 C2064 1.350 . S
C2068 C2065 1.463 . S
C2068 N2072 1.427 . S
C2069 H2059 0.929 . S
C2069 C2067 1.433 . S
C2069 N2072 1.384 . S
C2070 H2061 0.929 . S
C2070 C2062 1.378 . S
C2070 C2065 1.350 . S
C2071 H2058 0.929 . S
C2071 C2063 1.433 . S
C2071 N2073 1.384 . S
N2072 C2068 1.427 . S
N2072 C2069 1.384 . S
N2073 C2065 1.427 . S
N2073 C2071 1.384 . S
H2074 C2080 0.930 . S
H2075 C2084 0.930 . S
H2076 C2089 0.929 . S
H2077 C2087 0.929 1_655 S
H2078 C2082 0.929 . S
H2079 C2088 0.929 . S
C2080 H2074 0.930 . S
C2080 C2081 1.367 . S
C2080 C2088 1.378 . S
C2081 C2080 1.367 . S
C2081 C2089 1.433 . S
C2082 H2078 0.929 . S
C2082 C2084 1.378 . S
C2082 C2086 1.350 . S
C2083 C2086 1.463 . S
C2083 C2088 1.350 . S
C2083 N2091 1.427 . S
C2084 H2075 0.930 . S
C2084 C2082 1.378 . S
C2084 C2085 1.367 . S
C2085 C2084 1.367 . S
C2085 C2087 1.433 . S
C2086 C2082 1.350 . S
C2086 C2083 1.463 . S
C2086 N2090 1.427 . S
C2087 H2077 0.929 1_455 S
C2087 C2085 1.433 . S
C2087 N2090 1.384 . S
C2088 H2079 0.929 . S
C2088 C2080 1.378 . S
C2088 C2083 1.350 . S
C2089 H2076 0.929 . S
C2089 C2081 1.433 . S
C2089 N2091 1.384 . S
N2090 C2086 1.427 . S
N2090 C2087 1.384 . S
N2091 C2083 1.427 . S
N2091 C2089 1.384 . S
H2092 C2098 0.930 . S
H2093 C2102 0.930 . S
H2094 C2107 0.929 . S
H2095 C2105 0.929 . S
H2096 C2100 0.929 . S
H2097 C2106 0.929 . S
C2098 H2092 0.930 . S
C2098 C2099 1.367 . S
C2098 C2106 1.378 . S
C2099 C2098 1.367 . S
C2099 C2107 1.433 . S
C2100 H2096 0.929 . S
C2100 C2102 1.378 . S
C2100 C2104 1.350 . S
C2101 C2104 1.463 . S
C2101 C2106 1.350 . S
C2101 N2109 1.427 . S
C2102 H2093 0.930 . S
C2102 C2100 1.378 . S
C2102 C2103 1.367 . S
C2103 C2102 1.367 . S
C2103 C2105 1.433 . S
C2104 C2100 1.350 . S
C2104 C2101 1.463 . S
C2104 N2108 1.427 . S
C2105 H2095 0.929 . S
C2105 C2103 1.433 . S
C2105 N2108 1.384 . S
C2106 H2097 0.929 . S
C2106 C2098 1.378 . S
C2106 C2101 1.350 . S
C2107 H2094 0.929 . S
C2107 C2099 1.433 . S
C2107 N2109 1.384 . S
N2108 C2104 1.427 . S
N2108 C2105 1.384 . S
N2109 C2101 1.427 . S
N2109 C2107 1.384 . S
H2110 C2116 0.930 . S
H2111 C2120 0.930 . S
H2112 C2125 0.929 . S
H2113 C2123 0.929 . S
H2114 C2118 0.929 . S
H2115 C2124 0.929 . S
C2116 H2110 0.930 . S
C2116 C2117 1.367 . S
C2116 C2124 1.378 . S
C2117 C2116 1.367 . S
C2117 C2125 1.433 . S
C2118 H2114 0.929 . S
C2118 C2120 1.378 . S
C2118 C2122 1.350 . S
C2119 C2122 1.463 . S
C2119 C2124 1.350 . S
C2119 N2127 1.427 . S
C2120 H2111 0.930 . S
C2120 C2118 1.378 . S
C2120 C2121 1.367 . S
C2121 C2120 1.367 . S
C2121 C2123 1.433 . S
C2122 C2118 1.350 . S
C2122 C2119 1.463 . S
C2122 N2126 1.427 . S
C2123 H2113 0.929 . S
C2123 C2121 1.433 . S
C2123 N2126 1.384 . S
C2124 H2115 0.929 . S
C2124 C2116 1.378 . S
C2124 C2119 1.350 . S
C2125 H2112 0.929 . S
C2125 C2117 1.433 . S
C2125 N2127 1.384 . S
N2126 C2122 1.427 . S
N2126 C2123 1.384 . S
N2127 C2119 1.427 . S
N2127 C2125 1.384 . S
H2128 C2134 0.930 . S
H2129 C2138 0.930 . S
H2130 C2143 0.929 . S
H2131 C2141 0.929 . S
H2132 C2136 0.929 . S
H2133 C2142 0.929 . S
C2134 H2128 0.930 . S
C2134 C2135 1.367 . S
C2134 C2142 1.378 . S
C2135 C2134 1.367 . S
C2135 C2143 1.433 . S
C2136 H2132 0.929 . S
C2136 C2138 1.378 . S
C2136 C2140 1.350 . S
C2137 C2140 1.463 . S
C2137 C2142 1.350 . S
C2137 N2145 1.427 . S
C2138 H2129 0.930 . S
C2138 C2136 1.378 . S
C2138 C2139 1.367 . S
C2139 C2138 1.367 . S
C2139 C2141 1.433 . S
C2140 C2136 1.350 . S
C2140 C2137 1.463 . S
C2140 N2144 1.427 . S
C2141 H2131 0.929 . S
C2141 C2139 1.433 . S
C2141 N2144 1.384 . S
C2142 H2133 0.929 . S
C2142 C2134 1.378 . S
C2142 C2137 1.350 . S
C2143 H2130 0.929 . S
C2143 C2135 1.433 . S
C2143 N2145 1.384 . S
N2144 C2140 1.427 . S
N2144 C2141 1.384 . S
N2145 C2137 1.427 . S
N2145 C2143 1.384 . S
H2146 C2152 0.930 . S
H2147 C2156 0.930 . S
H2148 C2161 0.929 . S
H2149 C2159 0.929 . S
H2150 C2154 0.929 . S
H2151 C2160 0.929 . S
C2152 H2146 0.930 . S
C2152 C2153 1.367 . S
C2152 C2160 1.378 . S
C2153 C2152 1.367 . S
C2153 C2161 1.433 . S
C2154 H2150 0.929 . S
C2154 C2156 1.378 . S
C2154 C2158 1.350 . S
C2155 C2158 1.463 . S
C2155 C2160 1.350 . S
C2155 N2163 1.427 . S
C2156 H2147 0.930 . S
C2156 C2154 1.378 . S
C2156 C2157 1.367 . S
C2157 C2156 1.367 . S
C2157 C2159 1.433 . S
C2158 C2154 1.350 . S
C2158 C2155 1.463 . S
C2158 N2162 1.427 . S
C2159 H2149 0.929 . S
C2159 C2157 1.433 . S
C2159 N2162 1.384 . S
C2160 H2151 0.929 . S
C2160 C2152 1.378 . S
C2160 C2155 1.350 . S
C2161 H2148 0.929 . S
C2161 C2153 1.433 . S
C2161 N2163 1.384 . S
N2162 C2158 1.427 . S
N2162 C2159 1.384 . S
N2163 C2155 1.427 . S
N2163 C2161 1.384 . S
H2164 C2170 0.930 . S
H2165 C2174 0.930 . S
H2166 C2179 0.929 . S
H2167 C2177 0.929 . S
H2168 C2172 0.929 . S
H2169 C2178 0.929 . S
C2170 H2164 0.930 . S
C2170 C2171 1.367 . S
C2170 C2178 1.378 . S
C2171 C2170 1.367 . S
C2171 C2179 1.433 . S
C2172 H2168 0.929 . S
C2172 C2174 1.378 . S
C2172 C2176 1.350 . S
C2173 C2176 1.463 . S
C2173 C2178 1.350 . S
C2173 N2181 1.427 . S
C2174 H2165 0.930 . S
C2174 C2172 1.378 . S
C2174 C2175 1.367 . S
C2175 C2174 1.367 . S
C2175 C2177 1.433 . S
C2176 C2172 1.350 . S
C2176 C2173 1.463 . S
C2176 N2180 1.427 . S
C2177 H2167 0.929 . S
C2177 C2175 1.433 . S
C2177 N2180 1.384 . S
C2178 H2169 0.929 . S
C2178 C2170 1.378 . S
C2178 C2173 1.350 . S
C2179 H2166 0.929 . S
C2179 C2171 1.433 . S
C2179 N2181 1.384 . S
N2180 C2176 1.427 . S
N2180 C2177 1.384 . S
N2181 C2173 1.427 . S
N2181 C2179 1.384 . S
H2182 C2188 0.930 . S
H2183 C2192 0.930 . S
H2184 C2197 0.929 . S
H2185 C2195 0.929 . S
H2186 C2190 0.929 . S
H2187 C2196 0.929 . S
C2188 H2182 0.930 . S
C2188 C2189 1.367 . S
C2188 C2196 1.378 . S
C2189 C2188 1.367 . S
C2189 C2197 1.433 . S
C2190 H2186 0.929 . S
C2190 C2192 1.378 . S
C2190 C2194 1.350 . S
C2191 C2194 1.463 . S
C2191 C2196 1.350 . S
C2191 N2199 1.427 . S
C2192 H2183 0.930 . S
C2192 C2190 1.378 . S
C2192 C2193 1.367 . S
C2193 C2192 1.367 . S
C2193 C2195 1.433 . S
C2194 C2190 1.350 . S
C2194 C2191 1.463 . S
C2194 N2198 1.427 . S
C2195 H2185 0.929 . S
C2195 C2193 1.433 . S
C2195 N2198 1.384 . S
C2196 H2187 0.929 . S
C2196 C2188 1.378 . S
C2196 C2191 1.350 . S
C2197 H2184 0.929 . S
C2197 C2189 1.433 . S
C2197 N2199 1.384 . S
N2198 C2194 1.427 . S
N2198 C2195 1.384 . S
N2199 C2191 1.427 . S
N2199 C2197 1.384 . S
H2200 C2206 0.930 . S
H2201 C2210 0.930 . S
H2202 C2215 0.929 . S
H2203 C2213 0.929 . S
H2204 C2208 0.929 . S
H2205 C2214 0.929 . S
C2206 H2200 0.930 . S
C2206 C2207 1.367 . S
C2206 C2214 1.378 . S
C2207 C2206 1.367 . S
C2207 C2215 1.433 . S
C2208 H2204 0.929 . S
C2208 C2210 1.378 . S
C2208 C2212 1.350 . S
C2209 C2212 1.463 . S
C2209 C2214 1.350 . S
C2209 N2217 1.427 . S
C2210 H2201 0.930 . S
C2210 C2208 1.378 . S
C2210 C2211 1.367 . S
C2211 C2210 1.367 . S
C2211 C2213 1.433 . S
C2212 C2208 1.350 . S
C2212 C2209 1.463 . S
C2212 N2216 1.427 . S
C2213 H2203 0.929 . S
C2213 C2211 1.433 . S
C2213 N2216 1.384 . S
C2214 H2205 0.929 . S
C2214 C2206 1.378 . S
C2214 C2209 1.350 . S
C2215 H2202 0.929 . S
C2215 C2207 1.433 . S
C2215 N2217 1.384 . S
N2216 C2212 1.427 . S
N2216 C2213 1.384 . S
N2217 C2209 1.427 . S
N2217 C2215 1.384 . S
H2218 C2224 0.930 . S
H2219 C2228 0.930 . S
H2220 C2233 0.929 . S
H2221 C2231 0.929 . S
H2222 C2226 0.929 . S
H2223 C2232 0.929 . S
C2224 H2218 0.930 . S
C2224 C2225 1.367 . S
C2224 C2232 1.378 . S
C2225 C2224 1.367 . S
C2225 C2233 1.433 . S
C2226 H2222 0.929 . S
C2226 C2228 1.378 . S
C2226 C2230 1.350 . S
C2227 C2230 1.463 . S
C2227 C2232 1.350 . S
C2227 N2235 1.427 . S
C2228 H2219 0.930 . S
C2228 C2226 1.378 . S
C2228 C2229 1.367 . S
C2229 C2228 1.367 . S
C2229 C2231 1.433 . S
C2230 C2226 1.350 . S
C2230 C2227 1.463 . S
C2230 N2234 1.427 . S
C2231 H2221 0.929 . S
C2231 C2229 1.433 . S
C2231 N2234 1.384 . S
C2232 H2223 0.929 . S
C2232 C2224 1.378 . S
C2232 C2227 1.350 . S
C2233 H2220 0.929 . S
C2233 C2225 1.433 . S
C2233 N2235 1.384 . S
N2234 C2230 1.427 . S
N2234 C2231 1.384 . S
N2235 C2227 1.427 . S
N2235 C2233 1.384 . S
H2236 C2242 0.930 . S
H2237 C2246 0.930 . S
H2238 C2251 0.929 . S
H2239 C2249 0.929 . S
H2240 C2244 0.929 . S
H2241 C2250 0.929 . S
C2242 H2236 0.930 . S
C2242 C2243 1.367 . S
C2242 C2250 1.378 . S
C2243 C2242 1.367 . S
C2243 C2251 1.433 . S
C2244 H2240 0.929 . S
C2244 C2246 1.378 . S
C2244 C2248 1.350 . S
C2245 C2248 1.463 . S
C2245 C2250 1.350 . S
C2245 N2253 1.427 . S
C2246 H2237 0.930 . S
C2246 C2244 1.378 . S
C2246 C2247 1.367 . S
C2247 C2246 1.367 . S
C2247 C2249 1.433 . S
C2248 C2244 1.350 . S
C2248 C2245 1.463 . S
C2248 N2252 1.427 . S
C2249 H2239 0.929 . S
C2249 C2247 1.433 . S
C2249 N2252 1.384 . S
C2250 H2241 0.929 . S
C2250 C2242 1.378 . S
C2250 C2245 1.350 . S
C2251 H2238 0.929 . S
C2251 C2243 1.433 . S
C2251 N2253 1.384 . S
N2252 C2248 1.427 . S
N2252 C2249 1.384 . S
N2253 C2245 1.427 . S
N2253 C2251 1.384 . S
H2254 C2260 0.930 . S
H2255 C2264 0.930 . S
H2256 C2269 0.929 . S
H2257 C2267 0.929 . S
H2258 C2262 0.929 . S
H2259 C2268 0.929 . S
C2260 H2254 0.930 . S
C2260 C2261 1.367 . S
C2260 C2268 1.378 . S
C2261 C2260 1.367 . S
C2261 C2269 1.433 . S
C2262 H2258 0.929 . S
C2262 C2264 1.378 . S
C2262 C2266 1.350 . S
C2263 C2266 1.463 . S
C2263 C2268 1.350 . S
C2263 N2271 1.427 . S
C2264 H2255 0.930 . S
C2264 C2262 1.378 . S
C2264 C2265 1.367 . S
C2265 C2264 1.367 . S
C2265 C2267 1.433 . S
C2266 C2262 1.350 . S
C2266 C2263 1.463 . S
C2266 N2270 1.427 . S
C2267 H2257 0.929 . S
C2267 C2265 1.433 . S
C2267 N2270 1.384 . S
C2268 H2259 0.929 . S
C2268 C2260 1.378 . S
C2268 C2263 1.350 . S
C2269 H2256 0.929 . S
C2269 C2261 1.433 . S
C2269 N2271 1.384 . S
N2270 C2266 1.427 . S
N2270 C2267 1.384 . S
N2271 C2263 1.427 . S
N2271 C2269 1.384 . S
H2272 C2278 0.930 . S
H2273 C2282 0.930 . S
H2274 C2287 0.929 . S
H2275 C2285 0.929 . S
H2276 C2280 0.929 . S
H2277 C2286 0.929 . S
C2278 H2272 0.930 . S
C2278 C2279 1.367 . S
C2278 C2286 1.378 . S
C2279 C2278 1.367 . S
C2279 C2287 1.433 . S
C2280 H2276 0.929 . S
C2280 C2282 1.378 . S
C2280 C2284 1.350 . S
C2281 C2284 1.463 . S
C2281 C2286 1.350 . S
C2281 N2289 1.427 . S
C2282 H2273 0.930 . S
C2282 C2280 1.378 . S
C2282 C2283 1.367 . S
C2283 C2282 1.367 . S
C2283 C2285 1.433 . S
C2284 C2280 1.350 . S
C2284 C2281 1.463 . S
C2284 N2288 1.427 . S
C2285 H2275 0.929 . S
C2285 C2283 1.433 . S
C2285 N2288 1.384 . S
C2286 H2277 0.929 . S
C2286 C2278 1.378 . S
C2286 C2281 1.350 . S
C2287 H2274 0.929 . S
C2287 C2279 1.433 . S
C2287 N2289 1.384 . S
N2288 C2284 1.427 . S
N2288 C2285 1.384 . S
N2289 C2281 1.427 . S
N2289 C2287 1.384 . S
H2290 C2296 0.930 . S
H2291 C2300 0.930 . S
H2292 C2305 0.929 . S
H2293 C2303 0.929 . S
H2294 C2298 0.929 . S
H2295 C2304 0.929 . S
C2296 H2290 0.930 . S
C2296 C2297 1.367 . S
C2296 C2304 1.378 . S
C2297 C2296 1.367 . S
C2297 C2305 1.433 . S
C2298 H2294 0.929 . S
C2298 C2300 1.378 . S
C2298 C2302 1.350 . S
C2299 C2302 1.463 . S
C2299 C2304 1.350 . S
C2299 N2307 1.427 . S
C2300 H2291 0.930 . S
C2300 C2298 1.378 . S
C2300 C2301 1.367 . S
C2301 C2300 1.367 . S
C2301 C2303 1.433 . S
C2302 C2298 1.350 . S
C2302 C2299 1.463 . S
C2302 N2306 1.427 . S
C2303 H2293 0.929 . S
C2303 C2301 1.433 . S
C2303 N2306 1.384 . S
C2304 H2295 0.929 . S
C2304 C2296 1.378 . S
C2304 C2299 1.350 . S
C2305 H2292 0.929 . S
C2305 C2297 1.433 . S
C2305 N2307 1.384 . S
N2306 C2302 1.427 . S
N2306 C2303 1.384 . S
N2307 C2299 1.427 . S
N2307 C2305 1.384 . S
H2308 C2314 0.930 . S
H2309 C2318 0.930 . S
H2310 C2323 0.929 . S
H2311 C2321 0.929 . S
H2312 C2316 0.929 . S
H2313 C2322 0.929 . S
C2314 H2308 0.930 . S
C2314 C2315 1.367 . S
C2314 C2322 1.378 . S
C2315 C2314 1.367 . S
C2315 C2323 1.433 . S
C2316 H2312 0.929 . S
C2316 C2318 1.378 . S
C2316 C2320 1.350 . S
C2317 C2320 1.463 . S
C2317 C2322 1.350 . S
C2317 N2325 1.427 . S
C2318 H2309 0.930 . S
C2318 C2316 1.378 . S
C2318 C2319 1.367 . S
C2319 C2318 1.367 . S
C2319 C2321 1.433 . S
C2320 C2316 1.350 . S
C2320 C2317 1.463 . S
C2320 N2324 1.427 . S
C2321 H2311 0.929 . S
C2321 C2319 1.433 . S
C2321 N2324 1.384 . S
C2322 H2313 0.929 . S
C2322 C2314 1.378 . S
C2322 C2317 1.350 . S
C2323 H2310 0.929 . S
C2323 C2315 1.433 . S
C2323 N2325 1.384 . S
N2324 C2320 1.427 . S
N2324 C2321 1.384 . S
N2325 C2317 1.427 . S
N2325 C2323 1.384 . S
H2326 C2332 0.930 . S
H2327 C2336 0.930 . S
H2328 C2341 0.929 . S
H2329 C2339 0.929 . S
H2330 C2334 0.929 . S
H2331 C2340 0.929 . S
C2332 H2326 0.930 . S
C2332 C2333 1.367 . S
C2332 C2340 1.378 . S
C2333 C2332 1.367 . S
C2333 C2341 1.433 . S
C2334 H2330 0.929 . S
C2334 C2336 1.378 . S
C2334 C2338 1.350 . S
C2335 C2338 1.463 . S
C2335 C2340 1.350 . S
C2335 N2343 1.427 . S
C2336 H2327 0.930 . S
C2336 C2334 1.378 . S
C2336 C2337 1.367 . S
C2337 C2336 1.367 . S
C2337 C2339 1.433 . S
C2338 C2334 1.350 . S
C2338 C2335 1.463 . S
C2338 N2342 1.427 . S
C2339 H2329 0.929 . S
C2339 C2337 1.433 . S
C2339 N2342 1.384 . S
C2340 H2331 0.929 . S
C2340 C2332 1.378 . S
C2340 C2335 1.350 . S
C2341 H2328 0.929 . S
C2341 C2333 1.433 . S
C2341 N2343 1.384 . S
N2342 C2338 1.427 . S
N2342 C2339 1.384 . S
N2343 C2335 1.427 . S
N2343 C2341 1.384 . S
H2344 C2350 0.930 . S
H2345 C2354 0.930 1_565 S
H2346 C2359 0.929 . S
H2347 C2357 0.929 . S
H2348 C2352 0.929 . S
H2349 C2358 0.929 . S
C2350 H2344 0.930 . S
C2350 C2351 1.367 . S
C2350 C2358 1.378 . S
C2351 C2350 1.367 . S
C2351 C2359 1.433 . S
C2352 H2348 0.929 . S
C2352 C2354 1.378 . S
C2352 C2356 1.350 . S
C2353 C2356 1.463 . S
C2353 C2358 1.350 . S
C2353 N2361 1.427 . S
C2354 H2345 0.930 1_545 S
C2354 C2352 1.378 . S
C2354 C2355 1.367 . S
C2355 C2354 1.367 . S
C2355 C2357 1.433 . S
C2356 C2352 1.350 . S
C2356 C2353 1.463 . S
C2356 N2360 1.427 . S
C2357 H2347 0.929 . S
C2357 C2355 1.433 . S
C2357 N2360 1.384 . S
C2358 H2349 0.929 . S
C2358 C2350 1.378 . S
C2358 C2353 1.350 . S
C2359 H2346 0.929 . S
C2359 C2351 1.433 . S
C2359 N2361 1.384 . S
N2360 C2356 1.427 . S
N2360 C2357 1.384 . S
N2361 C2353 1.427 . S
N2361 C2359 1.384 . S
H2362 C2368 0.930 . S
H2363 C2372 0.930 . S
H2364 C2377 0.929 . S
H2365 C2375 0.929 . S
H2366 C2370 0.929 . S
H2367 C2376 0.929 . S
C2368 H2362 0.930 . S
C2368 C2369 1.367 . S
C2368 C2376 1.378 . S
C2369 C2368 1.367 . S
C2369 C2377 1.433 . S
C2370 H2366 0.929 . S
C2370 C2372 1.378 . S
C2370 C2374 1.350 . S
C2371 C2374 1.463 . S
C2371 C2376 1.350 . S
C2371 N2379 1.427 . S
C2372 H2363 0.930 . S
C2372 C2370 1.378 . S
C2372 C2373 1.367 . S
C2373 C2372 1.367 . S
C2373 C2375 1.433 . S
C2374 C2370 1.350 . S
C2374 C2371 1.463 . S
C2374 N2378 1.427 . S
C2375 H2365 0.929 . S
C2375 C2373 1.433 . S
C2375 N2378 1.384 . S
C2376 H2367 0.929 . S
C2376 C2368 1.378 . S
C2376 C2371 1.350 . S
C2377 H2364 0.929 . S
C2377 C2369 1.433 . S
C2377 N2379 1.384 . S
N2378 C2374 1.427 . S
N2378 C2375 1.384 . S
N2379 C2371 1.427 . S
N2379 C2377 1.384 . S
H2380 C2386 0.930 . S
H2381 C2390 0.930 . S
H2382 C2395 0.929 . S
H2383 C2393 0.929 1_545 S
H2384 C2388 0.929 . S
H2385 C2394 0.929 . S
C2386 H2380 0.930 . S
C2386 C2387 1.367 . S
C2386 C2394 1.378 . S
C2387 C2386 1.367 . S
C2387 C2395 1.433 . S
C2388 H2384 0.929 . S
C2388 C2390 1.378 . S
C2388 C2392 1.350 . S
C2389 C2392 1.463 . S
C2389 C2394 1.350 . S
C2389 N2397 1.427 . S
C2390 H2381 0.930 . S
C2390 C2388 1.378 . S
C2390 C2391 1.367 . S
C2391 C2390 1.367 . S
C2391 C2393 1.433 . S
C2392 C2388 1.350 . S
C2392 C2389 1.463 . S
C2392 N2396 1.427 . S
C2393 H2383 0.929 1_565 S
C2393 C2391 1.433 . S
C2393 N2396 1.384 . S
C2394 H2385 0.929 . S
C2394 C2386 1.378 . S
C2394 C2389 1.350 . S
C2395 H2382 0.929 . S
C2395 C2387 1.433 . S
C2395 N2397 1.384 . S
N2396 C2392 1.427 . S
N2396 C2393 1.384 . S
N2397 C2389 1.427 . S
N2397 C2395 1.384 . S
H2398 C2404 0.930 . S
H2399 C2408 0.930 . S
H2400 C2413 0.929 . S
H2401 C2411 0.929 . S
H2402 C2406 0.929 . S
H2403 C2412 0.929 . S
C2404 H2398 0.930 . S
C2404 C2405 1.367 . S
C2404 C2412 1.378 . S
C2405 C2404 1.367 . S
C2405 C2413 1.433 . S
C2406 H2402 0.929 . S
C2406 C2408 1.378 . S
C2406 C2410 1.350 . S
C2407 C2410 1.463 . S
C2407 C2412 1.350 . S
C2407 N2415 1.427 . S
C2408 H2399 0.930 . S
C2408 C2406 1.378 . S
C2408 C2409 1.367 . S
C2409 C2408 1.367 . S
C2409 C2411 1.433 . S
C2410 C2406 1.350 . S
C2410 C2407 1.463 . S
C2410 N2414 1.427 . S
C2411 H2401 0.929 . S
C2411 C2409 1.433 . S
C2411 N2414 1.384 . S
C2412 H2403 0.929 . S
C2412 C2404 1.378 . S
C2412 C2407 1.350 . S
C2413 H2400 0.929 . S
C2413 C2405 1.433 . S
C2413 N2415 1.384 . S
N2414 C2410 1.427 . S
N2414 C2411 1.384 . S
N2415 C2407 1.427 . S
N2415 C2413 1.384 . S
H2416 C2422 0.930 . S
H2417 C2426 0.930 . S
H2418 C2431 0.929 . S
H2419 C2429 0.929 . S
H2420 C2424 0.929 . S
H2421 C2430 0.929 . S
C2422 H2416 0.930 . S
C2422 C2423 1.367 . S
C2422 C2430 1.378 . S
C2423 C2422 1.367 . S
C2423 C2431 1.433 . S
C2424 H2420 0.929 . S
C2424 C2426 1.378 . S
C2424 C2428 1.350 . S
C2425 C2428 1.463 . S
C2425 C2430 1.350 . S
C2425 N2433 1.427 . S
C2426 H2417 0.930 . S
C2426 C2424 1.378 . S
C2426 C2427 1.367 . S
C2427 C2426 1.367 . S
C2427 C2429 1.433 . S
C2428 C2424 1.350 . S
C2428 C2425 1.463 . S
C2428 N2432 1.427 . S
C2429 H2419 0.929 . S
C2429 C2427 1.433 . S
C2429 N2432 1.384 . S
C2430 H2421 0.929 . S
C2430 C2422 1.378 . S
C2430 C2425 1.350 . S
C2431 H2418 0.929 . S
C2431 C2423 1.433 . S
C2431 N2433 1.384 . S
N2432 C2428 1.427 . S
N2432 C2429 1.384 . S
N2433 C2425 1.427 . S
N2433 C2431 1.384 . S
H2434 C2440 0.930 . S
H2435 C2444 0.930 . S
H2436 C2449 0.929 . S
H2437 C2447 0.929 . S
H2438 C2442 0.929 . S
H2439 C2448 0.929 . S
C2440 H2434 0.930 . S
C2440 C2441 1.367 . S
C2440 C2448 1.378 . S
C2441 C2440 1.367 . S
C2441 C2449 1.433 . S
C2442 H2438 0.929 . S
C2442 C2444 1.378 . S
C2442 C2446 1.350 . S
C2443 C2446 1.463 . S
C2443 C2448 1.350 . S
C2443 N2451 1.427 . S
C2444 H2435 0.930 . S
C2444 C2442 1.378 . S
C2444 C2445 1.367 . S
C2445 C2444 1.367 . S
C2445 C2447 1.433 . S
C2446 C2442 1.350 . S
C2446 C2443 1.463 . S
C2446 N2450 1.427 . S
C2447 H2437 0.929 . S
C2447 C2445 1.433 . S
C2447 N2450 1.384 . S
C2448 H2439 0.929 . S
C2448 C2440 1.378 . S
C2448 C2443 1.350 . S
C2449 H2436 0.929 . S
C2449 C2441 1.433 . S
C2449 N2451 1.384 . S
N2450 C2446 1.427 . S
N2450 C2447 1.384 . S
N2451 C2443 1.427 . S
N2451 C2449 1.384 . S
C735 C376 1.083 . S
C731 C226 1.190 . S
C753 C384 1.185 . S
C749 C269 1.264 . S
C771 C379 1.279 . S
C767 C250 1.373 . S
C785 C205 1.676 . S
C789 C383 1.578 . S
C807 C438 1.334 . S
C803 C115 1.484 . S
C821 C136 1.240 . S
C825 C414 1.175 . S
C843 C441 1.149 . S
C839 C158 1.208 . S
C857 C97 1.727 . S
C861 C415 1.601 . S
C875 C314 1.764 . S
C879 C472 1.640 . S
C893 C336 1.461 . S
C897 C476 1.386 . S
C915 C531 0.983 . S
C911 C180 1.053 . S
C933 C539 1.647 . S
C929 C294 1.768 . S
C951 C469 1.013 . S
C947 C70 1.134 . S
C969 C477 1.572 . S
C965 C6 1.653 . S
C983 C31 1.720 . S
C987 C534 1.612 . S
C1001 C53 1.599 . S
C1005 C538 1.503 . S
C1019 C29 1.416 . S
C1023 C503 1.267 . S
C1041 C593 1.135 . S
C1037 C181 1.245 . S
C1055 C293 1.638 . S
C1059 C601 1.535 . S
C1077 C655 1.142 . S
C1073 C312 1.347 . S
C1091 C137 1.485 . S
C1095 C507 1.407 . S
C1113 C596 1.154 . S
C1109 C225 1.223 . S
C1131 C600 1.453 . S
C1127 C270 1.541 . S
C1149 C663 1.408 . S
C1145 C206 1.497 . S
C1163 C72 1.180 . S
C1167 C407 1.094 . S
C1181 C4 1.246 . S
C1185 C353 1.154 . S
C1203 C410 1.276 . S
C1199 C30 1.373 . S
C1217 C51 1.676 . S
C1221 C352 1.582 . S
C1235 C313 1.483 . S
C1239 C717 1.326 . S
C1253 C334 1.241 . S
C1257 C693 1.177 . S
C1275 C720 1.149 . S
C1271 C182 1.208 . S
C1289 C295 1.726 . S
C1293 C694 1.600 . S
C1307 C116 1.767 . S
C1311 C627 1.631 . S
C1329 C631 1.397 . S
C1325 C138 1.468 . S
C1347 C686 0.955 . S
C1343 C159 1.057 . S
C1365 C570 1.631 . S
C1361 C96 1.755 . S
C1383 C624 1.015 . S
C1379 C224 1.131 . S
C1397 C268 1.651 . S
C1401 C632 1.574 . S
C1415 C251 1.719 . S
C1419 C689 1.613 . S
C1437 C569 1.499 . S
C1433 C207 1.593 . S
C1451 C249 1.415 . S
C1455 C658 1.265 . S
C1473 C562 1.123 . S
C1469 C160 1.249 . S
C1487 C95 1.628 . S
C1491 C446 1.519 . S
C1505 C114 1.363 . S
C1509 C500 1.173 . S
C1523 C335 1.483 . S
C1527 C662 1.400 . S
C1541 C71 1.224 . S
C1545 C565 1.150 . S
C1559 C5 1.543 . S
C1563 C445 1.452 . S
C1581 C508 1.397 . S
C1577 C52 1.491 . S
C1599 C363 1.684 . S
C1595 C339 1.706 . S
C1617 C393 1.852 . S
C1613 C184 1.885 . S
C1635 C370 1.689 . S
C1631 C290 1.633 . S
C1653 C385 2.013 . S
C1649 C317 1.939 1_565 S
C1671 C425 1.604 . S
C1667 C204 1.624 . S
C1685 C228 2.062 . S
C1689 C416 2.118 . S
C1703 C272 1.756 . S
C1707 C432 1.829 . S
C1721 C248 2.032 1_565 S
C1725 C424 2.000 . S
C1743 C463 1.395 . S
C1739 C49 1.338 . S
C1761 C486 1.773 . S
C1757 C75 1.804 . S
C1775 C8 1.249 . S
C1779 C518 1.230 . S
C1797 C548 1.821 . S
C1793 C26 1.856 . S
C1811 C140 1.282 . S
C1815 C456 1.267 . S
C1833 C478 1.909 . S
C1829 C162 1.880 1_455 S
C1851 C525 1.325 . S
C1847 C94 1.280 . S
C1865 C117 1.891 1_655 S
C1869 C540 1.928 . S
C1887 C487 1.411 . S
C1883 C93 1.425 . S
C1901 C7 1.500 . S
C1905 C580 1.474 . S
C1919 C27 1.438 1_556 S
C1923 C610 1.419 . S
C1937 C48 1.304 . S
C1941 C649 1.370 . S
C1959 C509 1.799 . S
C1955 C227 1.747 . S
C1977 C587 1.398 . S
C1973 C337 1.326 . S
C1991 C183 1.858 . S
C1995 C602 1.907 . S
C2013 C672 1.229 . S
C2009 C316 1.240 . S
C2031 C394 1.687 . S
C2027 C141 1.705 . S
C2045 C161 1.877 1_545 S
C2049 C362 1.842 . S
C2063 C92 1.631 . S
C2067 C401 1.691 . S
C2081 C119 1.946 . S
C2085 C354 2.013 . S
C2103 C704 1.592 . S
C2099 C50 1.608 . S
C2121 C695 2.120 . S
C2117 C74 2.060 1_545 S
C2135 C9 1.754 . S
C2139 C711 1.827 . S
C2153 C28 2.028 . S
C2157 C703 1.999 . S
C2171 C203 1.342 . S
C2175 C618 1.397 . S
C2193 C641 1.762 . S
C2189 C229 1.795 1_655 S
C2211 C673 1.233 . S
C2207 C271 1.251 . S
C2225 C246 1.857 1_455 S
C2229 C579 1.821 . S
C2247 C611 1.273 . S
C2243 C338 1.287 . S
C2261 C185 1.874 . S
C2265 C633 1.909 . S
C2283 C680 1.332 . S
C2279 C292 1.266 . S
C2297 C315 1.893 . S
C2301 C571 1.924 . S
C2315 C291 1.438 . S
C2319 C642 1.419 . S
C2333 C273 1.490 . S
C2337 C549 1.460 . S
C2355 C455 1.409 . S
C2351 C247 1.429 . S
C2369 C202 1.304 . S
C2373 C494 1.370 . S
C2387 C73 1.740 1_556 S
C2391 C664 1.805 . S
C2405 C139 1.341 . S
C2409 C556 1.395 . S
C2427 C447 1.910 . S
C2423 C163 1.849 1_554 S
C2441 C118 1.233 . S
C2445 C517 1.222 . S
