# Generated by pormake.
# Topology pto, (3,4)-cn, num edge types: 1
# Building blocks:
#     Node 0, Type 0, BuildingBlock: OLANEW_clean_sbu_2, # of connection points: 3
#     Node 1, Type 0, BuildingBlock: OLANEW_clean_sbu_2, # of connection points: 3
#     Node 2, Type 0, BuildingBlock: OLANEW_clean_sbu_2, # of connection points: 3
#     Node 3, Type 0, BuildingBlock: OLANEW_clean_sbu_2, # of connection points: 3
#     Node 4, Type 0, BuildingBlock: OLANEW_clean_sbu_2, # of connection points: 3
#     Node 5, Type 0, BuildingBlock: OLANEW_clean_sbu_2, # of connection points: 3
#     Node 6, Type 0, BuildingBlock: OLANEW_clean_sbu_2, # of connection points: 3
#     Node 7, Type 0, BuildingBlock: OLANEW_clean_sbu_2, # of connection points: 3
#     Node 8, Type 1, BuildingBlock: NAWXER_clean_sbu_0, # of connection points: 4
#     Node 9, Type 1, BuildingBlock: NAWXER_clean_sbu_0, # of connection points: 4
#     Node 10, Type 1, BuildingBlock: NAWXER_clean_sbu_0, # of connection points: 4
#     Node 11, Type 1, BuildingBlock: NAWXER_clean_sbu_0, # of connection points: 4
#     Node 12, Type 1, BuildingBlock: NAWXER_clean_sbu_0, # of connection points: 4
#     Node 13, Type 1, BuildingBlock: NAWXER_clean_sbu_0, # of connection points: 4
#     Edge 14, Type (0, 1), BuildingBlock: XIVTED_clean_linker_0, # of connection points: 2
#     Edge 15, Type (0, 1), BuildingBlock: XIVTED_clean_linker_0, # of connection points: 2
#     Edge 16, Type (0, 1), BuildingBlock: XIVTED_clean_linker_0, # of connection points: 2
#     Edge 17, Type (0, 1), BuildingBlock: XIVTED_clean_linker_0, # of connection points: 2
#     Edge 18, Type (0, 1), BuildingBlock: XIVTED_clean_linker_0, # of connection points: 2
#     Edge 19, Type (0, 1), BuildingBlock: XIVTED_clean_linker_0, # of connection points: 2
#     Edge 20, Type (0, 1), BuildingBlock: XIVTED_clean_linker_0, # of connection points: 2
#     Edge 21, Type (0, 1), BuildingBlock: XIVTED_clean_linker_0, # of connection points: 2
#     Edge 22, Type (0, 1), BuildingBlock: XIVTED_clean_linker_0, # of connection points: 2
#     Edge 23, Type (0, 1), BuildingBlock: XIVTED_clean_linker_0, # of connection points: 2
#     Edge 24, Type (0, 1), BuildingBlock: XIVTED_clean_linker_0, # of connection points: 2
#     Edge 25, Type (0, 1), BuildingBlock: XIVTED_clean_linker_0, # of connection points: 2
#     Edge 26, Type (0, 1), BuildingBlock: XIVTED_clean_linker_0, # of connection points: 2
#     Edge 27, Type (0, 1), BuildingBlock: XIVTED_clean_linker_0, # of connection points: 2
#     Edge 28, Type (0, 1), BuildingBlock: XIVTED_clean_linker_0, # of connection points: 2
#     Edge 29, Type (0, 1), BuildingBlock: XIVTED_clean_linker_0, # of connection points: 2
#     Edge 30, Type (0, 1), BuildingBlock: XIVTED_clean_linker_0, # of connection points: 2
#     Edge 31, Type (0, 1), BuildingBlock: XIVTED_clean_linker_0, # of connection points: 2
#     Edge 32, Type (0, 1), BuildingBlock: XIVTED_clean_linker_0, # of connection points: 2
#     Edge 33, Type (0, 1), BuildingBlock: XIVTED_clean_linker_0, # of connection points: 2
#     Edge 34, Type (0, 1), BuildingBlock: XIVTED_clean_linker_0, # of connection points: 2
#     Edge 35, Type (0, 1), BuildingBlock: XIVTED_clean_linker_0, # of connection points: 2
#     Edge 36, Type (0, 1), BuildingBlock: XIVTED_clean_linker_0, # of connection points: 2
#     Edge 37, Type (0, 1), BuildingBlock: XIVTED_clean_linker_0, # of connection points: 2
# Relax obj value: 0.012
# Max RMSD: 0.129
# Mean RMSD: 0.056
data_MOF--net-pto--node1-OLANEW_clean_sbu_2--node2-NAWXER_clean_sbu_0--edge1-XIVTED_clean_linker_0
_symmetry_space_group_name_H-M    P1
_symmetry_Int_Tables_number       1
_symmetry_cell_setting            triclinic
loop_
_symmetry_equiv_pos_as_xyz
'x, y, z'
_cell_length_a     45.714283
_cell_length_b     44.658531
_cell_length_c     41.489355
_cell_angle_alpha  92.997475
_cell_angle_beta   90.090329
_cell_angle_gamma 103.01249
loop_
_atom_site_label
_atom_site_type_symbol
_atom_site_fract_x
_atom_site_fract_y
_atom_site_fract_z
_atom_type_partial_charge
O0 O 0.24563 0.30655 0.20738 0.0
Cd1 Cd 0.20794 0.3043 0.24935 0.0
O2 O 0.27096 0.35225 0.22559 0.0
Cd3 Cd 0.23784 0.35994 0.2614 0.0
O4 O 0.20528 0.3816 0.28678 0.0
C5 C 0.17741 0.36918 0.28468 0.0
O6 O 0.16875 0.34251 0.26856 0.0
C7 C 0.26827 0.32896 0.20584 0.0
C8 C 0.21659 0.26389 0.29552 0.0
O9 O 0.1978 0.25477 0.27215 0.0
O10 O 0.23088 0.29214 0.29725 0.0
O11 O 0.32546 0.91166 0.82644 0.0
Cd12 Cd 0.27655 0.91968 0.80926 0.0
O13 O 0.31127 0.86124 0.81963 0.0
Cd14 Cd 0.2651 0.85802 0.8036 0.0
O15 O 0.22024 0.82918 0.79403 0.0
C16 C 0.20603 0.81601 0.81763 0.0
O17 O 0.21796 0.82204 0.84674 0.0
C18 C 0.33128 0.88521 0.82775 0.0
C19 C 0.27788 0.94988 0.75177 0.0
O20 O 0.28558 0.96491 0.77876 0.0
O21 O 0.26982 0.92047 0.7518 0.0
O22 O 0.83702 0.834 0.29035 0.0
Cd23 Cd 0.82245 0.78673 0.2561 0.0
O24 O 0.823 0.86329 0.25489 0.0
Cd25 Cd 0.80483 0.82908 0.2163 0.0
O26 O 0.77287 0.82266 0.17585 0.0
C27 C 0.76866 0.84741 0.16476 0.0
O28 O 0.78426 0.87385 0.17726 0.0
C29 C 0.83419 0.8603 0.2823 0.0
C30 C 0.8578 0.74481 0.2679 0.0
O31 O 0.86452 0.76415 0.24581 0.0
O32 O 0.83436 0.74532 0.28462 0.0
O33 O 0.79495 0.32385 0.76449 0.0
Cd34 Cd 0.75101 0.2814 0.75652 0.0
O35 O 0.78139 0.34308 0.81056 0.0
Cd36 Cd 0.73785 0.31048 0.81295 0.0
O37 O 0.6907 0.29639 0.82686 0.0
C38 C 0.67312 0.31266 0.8175 0.0
O39 O 0.68376 0.33535 0.79879 0.0
C40 C 0.80025 0.34387 0.78794 0.0
C41 C 0.76526 0.23558 0.71515 0.0
O42 O 0.75885 0.25964 0.70416 0.0
O43 O 0.76459 0.23285 0.74575 0.0
O44 O 0.75059 0.76685 0.63038 0.0
Cd45 Cd 0.74263 0.71812 0.65743 0.0
O46 O 0.76897 0.79526 0.67382 0.0
Cd47 Cd 0.75311 0.75829 0.70625 0.0
O48 O 0.71917 0.74824 0.74355 0.0
C49 C 0.69942 0.76405 0.74143 0.0
O50 O 0.70098 0.7824 0.71743 0.0
C51 C 0.76258 0.793 0.64384 0.0
C52 C 0.79487 0.69669 0.66722 0.0
O53 O 0.77974 0.69001 0.64076 0.0
O54 O 0.78558 0.71383 0.68878 0.0
O55 O 0.77129 0.30704 0.25808 0.0
Cd56 Cd 0.72622 0.26513 0.25669 0.0
O57 O 0.76721 0.31601 0.20678 0.0
Cd58 Cd 0.72136 0.2893 0.19982 0.0
O59 O 0.67891 0.29336 0.17842 0.0
C60 C 0.67706 0.32078 0.17367 0.0
O61 O 0.69965 0.34352 0.18276 0.0
C62 C 0.78183 0.32119 0.23332 0.0
C63 C 0.73128 0.22119 0.30076 0.0
O64 O 0.74271 0.22069 0.27261 0.0
O65 O 0.71721 0.24234 0.30812 0.0
O66 O 0.29659 0.41707 0.76898 0.0
Cd67 Cd 0.2653 0.40699 0.71979 0.0
O68 O 0.33965 0.4211 0.74395 0.0
Cd69 Cd 0.31901 0.40202 0.69767 0.0
O70 O 0.31258 0.36272 0.66256 0.0
C71 C 0.33537 0.35153 0.65663 0.0
O72 O 0.36123 0.365 0.67039 0.0
C73 C 0.32515 0.4227 0.76988 0.0
C74 C 0.21901 0.4388 0.72114 0.0
O75 O 0.21605 0.41304 0.73441 0.0
O76 O 0.2439 0.44969 0.70729 0.0
O77 O 0.36807 0.82948 0.22623 0.0
Cd78 Cd 0.33186 0.82754 0.27008 0.0
O79 O 0.34489 0.78327 0.20711 0.0
Cd80 Cd 0.30582 0.77597 0.2381 0.0
O81 O 0.26062 0.74892 0.24594 0.0
C82 C 0.24715 0.7342 0.22111 0.0
O83 O 0.26071 0.73707 0.19316 0.0
C84 C 0.36654 0.80671 0.20603 0.0
C85 C 0.33474 0.88275 0.30639 0.0
O86 O 0.35197 0.86484 0.31304 0.0
O87 O 0.31671 0.87495 0.28215 0.0
C88 C 0.96292 0.49662 0.24769 0.0
C89 C 0.05414 0.57803 0.24596 0.0
O90 O 0.97141 0.50875 0.27585 0.0
Zn91 Zn 0.00648 0.54473 0.29715 0.0
O92 O 0.97753 0.50696 0.22304 0.0
Zn93 Zn 0.00817 0.5376 0.24576 0.0
O94 O 0.03003 0.50962 0.27307 0.0
O95 O 0.02729 0.52217 0.32508 0.0
O96 O 0.04084 0.5616 0.22201 0.0
O97 O 0.04347 0.57378 0.27434 0.0
O98 O 0.98443 0.57421 0.31526 0.0
O99 O 0.98448 0.57137 0.26202 0.0
C100 C 0.03591 0.50583 0.30257 0.0
C101 C 0.97693 0.58334 0.28857 0.0
C102 C 0.96891 0.52948 0.77134 0.0
C103 C 0.04136 0.6281 0.77541 0.0
O104 O 0.97859 0.54718 0.79587 0.0
Zn105 Zn 0.00522 0.57867 0.77337 0.0
O106 O 0.9785 0.53723 0.74321 0.0
Zn107 Zn 0.00914 0.57545 0.72272 0.0
O108 O 0.03906 0.55639 0.7028 0.0
O109 O 0.03923 0.55551 0.75591 0.0
O110 O 0.03623 0.61651 0.74644 0.0
O111 O 0.02807 0.61352 0.79866 0.0
O112 O 0.97435 0.59857 0.74685 0.0
O113 O 0.98297 0.59156 0.69503 0.0
C114 C 0.04987 0.54876 0.72856 0.0
C115 C 0.96817 0.60185 0.71723 0.0
C116 C 0.27695 0.06089 0.54782 0.0
C117 C 0.26493 0.12095 0.45576 0.0
O118 O 0.25278 0.06231 0.53347 0.0
Zn119 Zn 0.27052 0.08938 0.5003 0.0
O120 O 0.3022 0.07511 0.53687 0.0
Zn121 Zn 0.31787 0.10344 0.49747 0.0
O122 O 0.33995 0.14064 0.51986 0.0
O123 O 0.29093 0.13199 0.52692 0.0
O124 O 0.29255 0.12254 0.4631 0.0
O125 O 0.24431 0.10354 0.47104 0.0
O126 O 0.29069 0.06069 0.46858 0.0
O127 O 0.33964 0.07903 0.47079 0.0
C128 C 0.31735 0.14898 0.5321 0.0
C129 C 0.31712 0.05914 0.45948 0.0
C130 C 0.59788 0.84249 0.01074 0.0
C131 C 0.51363 0.85283 0.94268 0.0
O132 O 0.5799 0.81664 0.00305 0.0
Zn133 Zn 0.53942 0.79987 0.97537 0.0
O134 O 0.59253 0.8671 0.00055 0.0
Zn135 Zn 0.55588 0.8484 0.97675 0.0
O136 O 0.52523 0.83186 0.01442 0.0
O137 O 0.51151 0.78132 0.00734 0.0
O138 O 0.53464 0.87433 0.95446 0.0
O139 O 0.5132 0.82483 0.94867 0.0
O140 O 0.55211 0.77356 0.94237 0.0
O141 O 0.57155 0.82306 0.93746 0.0
C142 C 0.50994 0.80596 0.02333 0.0
C143 C 0.56862 0.79491 0.92721 0.0
C144 C 0.76994 0.98725 0.53015 0.0
C145 C 0.76421 0.0709 0.46096 0.0
O146 O 0.74688 0.99245 0.51638 0.0
Zn147 Zn 0.7664 0.03003 0.49707 0.0
O148 O 0.79543 0.00607 0.52746 0.0
Zn149 Zn 0.81334 0.04743 0.50295 0.0
O150 O 0.82846 0.0781 0.53713 0.0
O151 O 0.77912 0.06232 0.53744 0.0
O152 O 0.79106 0.07204 0.4709 0.0
O153 O 0.74261 0.05042 0.47092 0.0
O154 O 0.79414 0.01351 0.46161 0.0
O155 O 0.84176 0.03352 0.4746 0.0
C156 C 0.80341 0.0792 0.54975 0.0
C157 C 0.82217 0.01632 0.45595 0.0
C158 C 0.51043 0.35819 0.03529 0.0
C159 C 0.44169 0.38565 0.95786 0.0
O160 O 0.49169 0.33479 0.02255 0.0
Zn161 Zn 0.45563 0.32513 -0.01214 0.0
O162 O 0.5096 0.38503 0.02708 0.0
Zn163 Zn 0.4764 0.37268 -0.00342 0.0
O164 O 0.43931 0.35505 0.02724 0.0
O165 O 0.42197 0.3058 0.01347 0.0
O166 O 0.46289 0.40379 0.97369 0.0
O167 O 0.43692 0.35654 0.96115 0.0
O168 O 0.47128 0.30075 0.95465 0.0
O169 O 0.49565 0.34947 0.95866 0.0
C170 C 0.42062 0.32946 0.03136 0.0
C171 C 0.49202 0.32239 0.94516 0.0
H172 H 0.18699 0.42515 0.31873 0.0
H173 H 0.02624 0.44848 0.27488 0.0
H174 H 0.11642 0.35233 0.27709 0.0
H175 H 0.08374 0.50979 0.34412 0.0
H176 H 0.05846 0.41201 0.27795 0.0
H177 H 0.14973 0.45575 0.33101 0.0
C178 C 0.16363 0.41541 0.31255 0.0
C179 C 0.1549 0.38628 0.29639 0.0
C180 C 0.06388 0.43315 0.29296 0.0
C181 C 0.11229 0.42125 0.31019 0.0
C182 C 0.04549 0.45396 0.29118 0.0
C183 C 0.05248 0.48208 0.30924 0.0
C184 C 0.09001 0.44085 0.31228 0.0
C185 C 0.0776 0.48819 0.32998 0.0
C186 C 0.14238 0.43287 0.31966 0.0
C187 C 0.12429 0.37477 0.28922 0.0
N188 N 0.09589 0.46794 0.33049 0.0
N189 N 0.10421 0.39245 0.29574 0.0
H190 H 0.17071 0.78298 0.86265 0.0
H191 H 0.07136 0.66632 0.7309 0.0
H192 H 0.17851 0.79302 0.75989 0.0
H193 H 0.06086 0.65802 0.83368 0.0
H194 H 0.10863 0.71439 0.7412 0.0
H195 H 0.12827 0.73919 0.8527 0.0
C196 C 0.16335 0.77617 0.83799 0.0
C197 C 0.17838 0.79159 0.81205 0.0
C198 C 0.09809 0.70216 0.76152 0.0
C199 C 0.12987 0.74124 0.80048 0.0
C200 C 0.0768 0.67464 0.75567 0.0
C201 C 0.06306 0.65796 0.78148 0.0
C202 C 0.10587 0.71312 0.79344 0.0
C203 C 0.07095 0.67002 0.81304 0.0
C204 C 0.13911 0.7511 0.83233 0.0
C205 C 0.16771 0.78176 0.78063 0.0
N206 N 0.09195 0.69677 0.81812 0.0
N207 N 0.14428 0.75709 0.77573 0.0
H208 H 0.85402 0.7052 0.31708 0.0
H209 H 0.97119 0.6169 0.2372 0.0
H210 H 0.9036 0.73272 0.23099 0.0
H211 H 0.94482 0.60633 0.33657 0.0
H212 H 0.94326 0.65692 0.2337 0.0
H213 H 0.884 0.66671 0.32404 0.0
C214 C 0.87124 0.70322 0.2997 0.0
C215 C 0.87625 0.72215 0.27333 0.0
C216 C 0.94361 0.646 0.25636 0.0
C217 C 0.91036 0.67813 0.28108 0.0
C218 C 0.95947 0.62298 0.25836 0.0
C219 C 0.9603 0.60813 0.28724 0.0
C220 C 0.92802 0.65418 0.28328 0.0
C221 C 0.94481 0.61723 0.31387 0.0
C222 C 0.88837 0.68133 0.30377 0.0
C223 C 0.89891 0.71865 0.25165 0.0
N224 N 0.92908 0.63958 0.3112 0.0
N225 N 0.91494 0.69696 0.2559 0.0
H226 H 0.82054 0.38925 0.8352 0.0
H227 H 0.94865 0.48341 0.72521 0.0
H228 H 0.842 0.35653 0.74033 0.0
H229 H 0.9374 0.50933 0.82535 0.0
H230 H 0.90972 0.43667 0.73059 0.0
H231 H 0.86343 0.43306 0.83253 0.0
C232 C 0.83436 0.39113 0.8139 0.0
C233 C 0.82751 0.36921 0.78787 0.0
C234 C 0.91585 0.45248 0.75146 0.0
C235 C 0.87654 0.41948 0.78459 0.0
C236 C 0.93806 0.47925 0.74839 0.0
C237 C 0.94624 0.50043 0.77484 0.0
C238 C 0.90145 0.44687 0.78114 0.0
C239 C 0.9318 0.49367 0.80431 0.0
C240 C 0.85887 0.41617 0.81241 0.0
C241 C 0.84632 0.37285 0.76095 0.0
N242 N 0.90997 0.46758 0.8066 0.0
N243 N 0.8698 0.3976 0.75993 0.0
H244 H 0.18338 0.206 0.30606 0.0
H245 H 0.30269 0.1694 0.4295 0.0
H246 H 0.26299 0.27254 0.33902 0.0
H247 H 0.21047 0.1182 0.42586 0.0
H248 H 0.29031 0.20383 0.39061 0.0
H249 H 0.1945 0.17025 0.3448 0.0
C250 C 0.20315 0.2131 0.32145 0.0
C251 C 0.2223 0.2423 0.31934 0.0
C252 C 0.27277 0.18506 0.39829 0.0
C253 C 0.23525 0.20147 0.36325 0.0
C254 C 0.27984 0.16524 0.42036 0.0
C255 C 0.25756 0.14085 0.431 0.0
C256 C 0.24327 0.18034 0.38636 0.0
C257 C 0.22831 0.13676 0.41838 0.0
C258 C 0.20942 0.19273 0.34356 0.0
C259 C 0.24756 0.25032 0.33989 0.0
N260 N 0.22201 0.15628 0.39659 0.0
N261 N 0.25341 0.22995 0.36081 0.0
H262 H 0.35205 0.83258 0.82899 0.0
H263 H 0.50161 0.90915 0.93093 0.0
H264 H 0.37739 0.92979 0.85566 0.0
H265 H 0.46989 0.81165 0.90877 0.0
H266 H 0.45915 0.91848 0.89971 0.0
H267 H 0.39815 0.82591 0.85391 0.0
C268 C 0.3674 0.85262 0.83994 0.0
C269 C 0.36064 0.88177 0.84042 0.0
C270 C 0.46164 0.89509 0.90161 0.0
C271 C 0.41372 0.8742 0.86937 0.0
C272 C 0.48587 0.88974 0.91937 0.0
C273 C 0.48923 0.85955 0.92267 0.0
C274 C 0.44076 0.87005 0.88697 0.0
C275 C 0.46816 0.8353 0.90715 0.0
C276 C 0.39379 0.84877 0.85424 0.0
C277 C 0.38161 0.90687 0.85481 0.0
N278 N 0.44488 0.84109 0.89012 0.0
N279 N 0.40714 0.90248 0.86893 0.0
H280 H 0.85918 0.86429 0.34335 0.0
H281 H 0.79587 0.00759 0.39687 0.0
H282 H 0.82425 0.91757 0.27497 0.0
H283 H 0.86745 0.98514 0.45173 0.0
H284 H 0.8055 0.97344 0.35226 0.0
H285 H 0.86279 0.90694 0.38404 0.0
C286 C 0.8527 0.88506 0.33672 0.0
C287 C 0.84097 0.88714 0.30581 0.0
C288 C 0.81946 0.97629 0.37382 0.0
C289 C 0.84475 0.93562 0.35221 0.0
C290 C 0.8139 -0.00432 0.39927 0.0
C291 C 0.8309 -0.00096 0.42785 0.0
C292 C 0.84162 0.95941 0.37732 0.0
C293 C 0.85401 0.98318 0.42988 0.0
C294 C 0.85486 0.90938 0.35992 0.0
C295 C 0.83311 0.9147 0.29854 0.0
N296 N 0.85837 0.96349 0.40509 0.0
N297 N 0.83467 0.9376 0.3217 0.0
H298 H 0.64342 0.2687 0.85742 0.0
H299 H 0.52089 0.36303 0.90305 0.0
H300 H 0.6328 0.34811 0.80753 0.0
H301 H 0.51212 0.2697 0.93072 0.0
H302 H 0.56134 0.35691 0.8669 0.0
H303 H 0.59504 0.26715 0.88352 0.0
C304 C 0.63079 0.28557 0.85165 0.0
C305 C 0.6424 0.30881 0.83053 0.0
C306 C 0.55037 0.33756 0.88048 0.0
C307 C 0.58724 0.30729 0.86048 0.0
C308 C 0.52729 0.34107 0.90117 0.0
C309 C 0.51327 0.31687 0.91997 0.0
C310 C 0.56007 0.30985 0.87902 0.0
C311 C 0.52234 0.28888 0.91652 0.0
C312 C 0.60316 0.28463 0.86651 0.0
C313 C 0.62495 0.32995 0.82384 0.0
N314 N 0.54557 0.28627 0.89682 0.0
N315 N 0.5985 0.32891 0.83906 0.0
H316 H 0.30836 0.00814 0.73982 0.0
H317 H 0.23209 0.01435 0.5687 0.0
H318 H 0.24746 0.92869 0.69516 0.0
H319 H 0.32039 0.06862 0.59453 0.0
H320 H 0.23217 0.98661 0.61832 0.0
H321 H 0.30791 0.0349 0.68986 0.0
C322 C 0.29487 -0.00365 0.71952 0.0
C323 C 0.278 0.96612 0.72158 0.0
C324 C 0.2515 0.00456 0.61298 0.0
C325 C 0.27707 -0.00326 0.66461 0.0
C326 C 0.25143 0.02045 0.58481 0.0
C327 C 0.27631 0.04374 0.57746 0.0
C328 C 0.27633 0.01253 0.6342 0.0
C329 C 0.30082 0.05069 0.59914 0.0
C330 C 0.2947 0.01159 0.69102 0.0
C331 C 0.26093 0.95192 0.6945 0.0
N332 N 0.30012 0.03533 0.62664 0.0
N333 N 0.2607 0.96745 0.66717 0.0
H334 H 0.75452 0.89643 0.13657 0.0
H335 H 0.6158 0.79353 0.03457 0.0
H336 H 0.72955 0.79724 0.13604 0.0
H337 H 0.6403 0.89273 0.03466 0.0
H338 H 0.65851 0.79452 0.07008 0.0
H339 H 0.71424 0.89551 0.09759 0.0
C340 C 0.74066 0.87441 0.12815 0.0
C341 C 0.74538 0.84685 0.13973 0.0
C342 C 0.65464 0.81609 0.0623 0.0
C343 C 0.69906 0.84568 0.09508 0.0
C344 C 0.63019 0.81557 0.042 0.0
C345 C 0.62433 0.84313 0.03166 0.0
C346 C 0.67348 0.84437 0.07251 0.0
C347 C 0.6439 0.87093 0.04206 0.0
C348 C 0.71762 0.87393 0.10589 0.0
C349 C 0.72673 0.81905 0.12785 0.0
N350 N 0.66755 0.87084 0.06199 0.0
N351 N 0.70433 0.81919 0.10629 0.0
H352 H 0.75771 0.17407 0.72412 0.0
H353 H 0.8404 0.13561 0.56391 0.0
H354 H 0.79118 0.24312 0.6561 0.0
H355 H 0.76204 0.07251 0.59762 0.0
H356 H 0.83336 0.17377 0.60636 0.0
H357 H 0.76971 0.13475 0.68588 0.0
C358 C 0.76779 0.18095 0.70128 0.0
C359 C 0.77327 0.21178 0.69307 0.0
C360 C 0.81796 0.15141 0.60456 0.0
C361 C 0.78759 0.1673 0.6499 0.0
C362 C 0.82205 0.12963 0.58058 0.0
C363 C 0.80166 0.101 0.57726 0.0
C364 C 0.79381 0.14413 0.62576 0.0
C365 C 0.77811 0.09444 0.5993 0.0
C366 C 0.77453 0.15857 0.67954 0.0
C367 C 0.78634 0.21953 0.66317 0.0
N368 N 0.77486 0.11583 0.62274 0.0
N369 N 0.79324 0.19744 0.64269 0.0
H370 H 0.31799 0.37395 0.19422 0.0
H371 H 0.37478 0.28057 0.04585 0.0
H372 H 0.27108 0.28269 0.16029 0.0
H373 H 0.41486 0.37502 0.07566 0.0
H374 H 0.3378 0.27954 0.0888 0.0
H375 H 0.35505 0.3733 0.15225 0.0
C376 C 0.31548 0.35371 0.17799 0.0
C377 C 0.29128 0.32836 0.1808 0.0
C378 C 0.35471 0.30045 0.08588 0.0
C379 C 0.33382 0.32748 0.13244 0.0
C380 C 0.37584 0.30106 0.06139 0.0
C381 C 0.39795 0.32794 0.05707 0.0
C382 C 0.35583 0.32687 0.10624 0.0
C383 C 0.39823 0.35379 0.07795 0.0
C384 C 0.33668 0.35338 0.15393 0.0
C385 C 0.28931 0.30278 0.159 0.0
N386 N 0.37755 0.35258 0.10156 0.0
N387 N 0.3103 0.303 0.13572 0.0
H388 H 0.82267 0.66283 0.62518 0.0
H389 H 0.93736 0.63249 0.75886 0.0
H390 H 0.82822 0.70206 0.72292 0.0
H391 H 0.94317 0.60641 0.65781 0.0
H392 H 0.89638 0.6568 0.74609 0.0
H393 H 0.86586 0.64087 0.63651 0.0
C394 C 0.83302 0.66693 0.64898 0.0
C395 C 0.82174 0.68428 0.67316 0.0
C396 C 0.90665 0.64587 0.72665 0.0
C397 C 0.87107 0.65905 0.68633 0.0
C398 C 0.93005 0.63189 0.73393 0.0
C399 C 0.94374 0.6173 0.70937 0.0
C400 C 0.89657 0.64513 0.69457 0.0
C401 C 0.93331 0.6174 0.67752 0.0
C402 C 0.8577 0.65441 0.65541 0.0
C403 C 0.8361 0.68885 0.70353 0.0
N404 N 0.91025 0.63096 0.67105 0.0
N405 N 0.85988 0.6762 0.70927 0.0
H406 H 0.81622 0.34386 0.28723 0.0
H407 H 0.93558 0.46672 0.1922 0.0
H408 H 0.81224 0.35278 0.18426 0.0
H409 H 0.93101 0.46581 0.29611 0.0
H410 H 0.89278 0.42237 0.18828 0.0
H411 H 0.86122 0.38563 0.29039 0.0
C412 C 0.8249 0.35443 0.26526 0.0
C413 C 0.81031 0.34489 0.23547 0.0
C414 C 0.90118 0.43192 0.21192 0.0
C415 C 0.86175 0.39282 0.23892 0.0
C416 C 0.92559 0.45724 0.21417 0.0
C417 C 0.93683 0.47011 0.24451 0.0
C418 C 0.88805 0.41929 0.24022 0.0
C419 C 0.92303 0.45679 0.27218 0.0
C420 C 0.85054 0.37837 0.26709 0.0
C421 C 0.82263 0.35947 0.20779 0.0
N422 N 0.89942 0.43214 0.26936 0.0
N423 N 0.84757 0.38274 0.2102 0.0
H424 H 0.21217 0.48576 0.68387 0.0
H425 H 0.06777 0.51608 0.77574 0.0
H426 H 0.16965 0.42958 0.75972 0.0
H427 H 0.08834 0.5439 0.67875 0.0
H428 H 0.10893 0.4893 0.77376 0.0
H429 H 0.17077 0.51246 0.68511 0.0
C430 C 0.19418 0.4791 0.70084 0.0
C431 C 0.19434 0.45538 0.72171 0.0
C432 C 0.10438 0.50121 0.75289 0.0
C433 C 0.14715 0.48598 0.7234 0.0
C434 C 0.08097 0.5166 0.75402 0.0
C435 C 0.07457 0.53223 0.72733 0.0
C436 C 0.1219 0.50184 0.72508 0.0
C437 C 0.09239 0.53202 0.69981 0.0
C438 C 0.17053 0.49425 0.70141 0.0
C439 C 0.17039 0.44764 0.74312 0.0
N440 N 0.11539 0.51723 0.69947 0.0
N441 N 0.14788 0.46302 0.74355 0.0
H442 H 0.2133 0.69849 0.17283 0.0
H443 H 0.08617 0.61752 0.2924 0.0
H444 H 0.21347 0.72104 0.27532 0.0
H445 H 0.08513 0.59356 0.19013 0.0
H446 H 0.13194 0.65669 0.28591 0.0
H447 H 0.16553 0.66141 0.17804 0.0
C448 C 0.20325 0.69576 0.19643 0.0
C449 C 0.2175 0.71284 0.22373 0.0
C450 C 0.12174 0.64294 0.26484 0.0
C451 C 0.16282 0.67032 0.22982 0.0
C452 C 0.09555 0.62048 0.26851 0.0
C453 C 0.08178 0.60208 0.24176 0.0
C454 C 0.13445 0.64715 0.23418 0.0
C455 C 0.095 0.60715 0.21143 0.0
C456 C 0.17597 0.67454 0.19936 0.0
C457 C 0.20336 0.70835 0.25363 0.0
N458 N 0.12066 0.62918 0.20847 0.0
N459 N 0.17687 0.68746 0.25588 0.0
H460 H 0.79777 0.85006 0.65981 0.0
H461 H 0.7255 0.93441 0.52644 0.0
H462 H 0.73535 0.80044 0.58689 0.0
H463 H 0.81054 0.97526 0.57329 0.0
H464 H 0.72491 0.88654 0.55302 0.0
H465 H 0.79968 0.89758 0.63223 0.0
C466 C 0.78466 0.84911 0.63785 0.0
C467 C 0.76641 0.82122 0.6256 0.0
C468 C 0.74366 0.90602 0.55746 0.0
C469 C 0.76804 0.8756 0.59435 0.0
C470 C 0.7439 0.93341 0.54252 0.0
C471 C 0.76811 0.95887 0.54766 0.0
C472 C 0.76756 0.90425 0.57806 0.0
C473 C 0.79147 0.95618 0.56857 0.0
C474 C 0.78575 0.87623 0.62216 0.0
C475 C 0.74987 0.82137 0.59708 0.0
N476 N 0.79055 0.92941 0.5831 0.0
N477 N 0.75083 0.8482 0.58259 0.0
H478 H 0.66758 0.37669 0.15821 0.0
H479 H 0.51582 0.3039 0.05919 0.0
H480 H 0.62709 0.2794 0.14961 0.0
H481 H 0.55708 0.40107 0.06443 0.0
H482 H 0.55474 0.29519 0.09523 0.0
H483 H 0.62577 0.38661 0.12698 0.0
C484 C 0.64982 0.35739 0.14991 0.0
C485 C 0.65093 0.32712 0.15642 0.0
C486 C 0.55528 0.31845 0.08864 0.0
C487 C 0.603 0.33838 0.12055 0.0
C488 C 0.53302 0.32349 0.06801 0.0
C489 C 0.53324 0.35329 0.05858 0.0
C490 C 0.5781 0.34335 0.09999 0.0
C491 C 0.55606 0.37771 0.07099 0.0
C492 C 0.62595 0.36311 0.13204 0.0
C493 C 0.62723 0.30309 0.1451 0.0
N494 N 0.57768 0.37218 0.09095 0.0
N495 N 0.60432 0.30924 0.12762 0.0
H496 H 0.28425 0.31369 0.63031 0.0
H497 H 0.3696 0.1904 0.55059 0.0
H498 H 0.38017 0.32321 0.63742 0.0
H499 H 0.27314 0.17569 0.5561 0.0
H500 H 0.37431 0.24035 0.57987 0.0
H501 H 0.28011 0.26453 0.59986 0.0
C502 C 0.30447 0.30555 0.62532 0.0
C503 C 0.33259 0.32259 0.63653 0.0
C504 C 0.35212 0.22613 0.57472 0.0
C505 C 0.32801 0.26621 0.60176 0.0
C506 C 0.34942 0.19759 0.55803 0.0
C507 C 0.32094 0.17875 0.5509 0.0
C508 C 0.32615 0.23599 0.58417 0.0
C509 C 0.29558 0.18934 0.56111 0.0
C510 C 0.30208 0.2774 0.60803 0.0
C511 C 0.35801 0.31083 0.62935 0.0
N512 N 0.29879 0.21723 0.57711 0.0
N513 N 0.35511 0.28338 0.61246 0.0
H514 H 0.41306 0.85451 0.1906 0.0
H515 H 0.47059 0.75626 0.04665 0.0
H516 H 0.37235 0.75947 0.16389 0.0
H517 H 0.50441 0.85408 0.06471 0.0
H518 H 0.43711 0.75626 0.09251 0.0
H519 H 0.44947 0.85411 0.14736 0.0
C520 C 0.41183 0.83356 0.17577 0.0
C521 C 0.38951 0.80704 0.18082 0.0
C522 C 0.45191 0.77772 0.08647 0.0
C523 C 0.43106 0.8064 0.13141 0.0
C524 C 0.47107 0.77771 0.06031 0.0
C525 C 0.49025 0.80522 0.0517 0.0
C526 C 0.45196 0.80541 0.10426 0.0
C527 C 0.4899 0.83233 0.07035 0.0
C528 C 0.43258 0.83335 0.15106 0.0
C529 C 0.38902 0.78053 0.16084 0.0
N530 N 0.47104 0.83175 0.0957 0.0
N531 N 0.40942 0.78091 0.13706 0.0
H532 H 0.69847 0.20556 0.3551 0.0
H533 H 0.8047 0.10315 0.42022 0.0
H534 H 0.77214 0.18498 0.29993 0.0
H535 H 0.71176 0.08851 0.44775 0.0
H536 H 0.79594 0.13912 0.38083 0.0
H537 H 0.70557 0.16822 0.3941 0.0
C538 C 0.71612 0.19321 0.3512 0.0
C539 C 0.73475 0.19836 0.32424 0.0
C540 C 0.77747 0.128 0.39546 0.0
C541 C 0.74318 0.15609 0.36886 0.0
C542 C 0.78246 0.1076 0.41807 0.0
C543 C 0.7589 0.09283 0.4373 0.0
C544 C 0.74886 0.13417 0.39243 0.0
C545 C 0.7305 0.09934 0.43331 0.0
C546 C 0.72005 0.17185 0.37336 0.0
C547 C 0.7572 0.18165 0.3203 0.0
N548 N 0.7263 0.11975 0.41147 0.0
N549 N 0.76096 0.16147 0.34252 0.0
H550 H 0.38519 0.44609 0.78182 0.0
H551 H 0.38321 0.36138 0.94193 0.0
H552 H 0.30227 0.4077 0.82926 0.0
H553 H 0.4574 0.43625 0.92149 0.0
H554 H 0.35342 0.37753 0.89997 0.0
H555 H 0.41271 0.44332 0.83189 0.0
C556 C 0.37272 0.4376 0.80292 0.0
C557 C 0.3414 0.42681 0.80126 0.0
C558 C 0.37606 0.39072 0.90495 0.0
C559 C 0.37278 0.42303 0.85825 0.0
C560 C 0.39311 0.38142 0.92875 0.0
C561 C 0.42282 0.39743 0.93498 0.0
C562 C 0.38906 0.41573 0.88664 0.0
C563 C 0.43453 0.42334 0.91738 0.0
C564 C 0.38844 0.43609 0.83147 0.0
C565 C 0.3264 0.41617 0.82938 0.0
N566 N 0.41779 0.43139 0.89351 0.0
N567 N 0.34228 0.41397 0.85653 0.0
H568 H 0.3753 0.91056 0.35377 0.0
H569 H 0.27424 0.02339 0.41965 0.0
H570 H 0.29357 0.91869 0.30632 0.0
H571 H 0.36828 0.03865 0.44484 0.0
H572 H 0.27992 0.98219 0.38087 0.0
H573 H 0.37246 0.95504 0.3899 0.0
C574 C 0.35686 0.92178 0.35082 0.0
C575 C 0.33459 0.91083 0.32702 0.0
C576 C 0.29937 -0.00539 0.39476 0.0
C577 C 0.33105 0.9614 0.3685 0.0
C578 C 0.29612 0.01806 0.41705 0.0
C579 C 0.32082 0.03447 0.4356 0.0
C580 C 0.32743 0.98708 0.39122 0.0
C581 C 0.34866 0.02663 0.431 0.0
C582 C 0.35531 0.94719 0.37141 0.0
C583 C 0.31125 0.92632 0.32428 0.0
N584 N 0.35117 0.0033 0.40943 0.0
N585 N 0.30995 0.95061 0.34494 0.0
H586 H 0.68724 0.72755 0.79352 0.0
H587 H 0.5891 0.8331 0.87931 0.0
H588 H 0.66029 0.80176 0.74748 0.0
H589 H 0.58507 0.74101 0.90874 0.0
H590 H 0.61811 0.82284 0.83247 0.0
H591 H 0.65237 0.73238 0.8375 0.0
C592 C 0.67386 0.74466 0.79252 0.0
C593 C 0.67686 0.76444 0.7669 0.0
C594 C 0.61073 0.80475 0.84901 0.0
C595 C 0.63737 0.77024 0.81708 0.0
C596 C 0.59427 0.81065 0.87585 0.0
C597 C 0.58476 0.78789 0.89798 0.0
C598 C 0.61826 0.77606 0.84445 0.0
C599 C 0.59194 0.75914 0.89216 0.0
C600 C 0.65396 0.74734 0.81755 0.0
C601 C 0.65889 0.78611 0.76677 0.0
N602 N 0.60861 0.75411 0.86608 0.0
N603 N 0.6402 0.78863 0.79161 0.0
loop_
_geom_bond_atom_site_label_1
_geom_bond_atom_site_label_2
_geom_bond_distance
_geom_bond_site_symmetry_2
_ccdc_geom_bond_type
O0 Cd1 2.300 . S
O0 C7 1.275 . S
Cd1 O0 2.300 . S
Cd1 O9 2.381 . S
Cd1 O10 2.378 . S
O2 Cd3 2.385 . S
O2 C7 1.255 . S
Cd3 O2 2.385 . S
Cd3 O4 2.317 . S
O4 Cd3 2.317 . S
O4 C5 1.232 . S
C5 O4 1.232 . S
C5 O6 1.218 . S
O6 C5 1.218 . S
C7 O0 1.275 . S
C7 O2 1.255 . S
C8 O9 1.258 . S
C8 O10 1.256 . S
O9 Cd1 2.381 . S
O9 C8 1.258 . S
O10 Cd1 2.378 . S
O10 C8 1.256 . S
O11 Cd12 2.300 . S
O11 C18 1.275 . S
Cd12 O11 2.300 . S
Cd12 O20 2.381 . S
Cd12 O21 2.378 . S
O13 Cd14 2.385 . S
O13 C18 1.255 . S
Cd14 O13 2.385 . S
Cd14 O15 2.317 . S
O15 Cd14 2.317 . S
O15 C16 1.232 . S
C16 O15 1.232 . S
C16 O17 1.218 . S
O17 C16 1.218 . S
C18 O11 1.275 . S
C18 O13 1.255 . S
C19 O20 1.258 . S
C19 O21 1.256 . S
O20 Cd12 2.381 . S
O20 C19 1.258 . S
O21 Cd12 2.378 . S
O21 C19 1.256 . S
O22 Cd23 2.300 . S
O22 C29 1.275 . S
Cd23 O22 2.300 . S
Cd23 O31 2.381 . S
Cd23 O32 2.378 . S
O24 Cd25 2.385 . S
O24 C29 1.255 . S
Cd25 O24 2.385 . S
Cd25 O26 2.317 . S
O26 Cd25 2.317 . S
O26 C27 1.232 . S
C27 O26 1.232 . S
C27 O28 1.218 . S
O28 C27 1.218 . S
C29 O22 1.275 . S
C29 O24 1.255 . S
C30 O31 1.258 . S
C30 O32 1.256 . S
O31 Cd23 2.381 . S
O31 C30 1.258 . S
O32 Cd23 2.378 . S
O32 C30 1.256 . S
O33 Cd34 2.300 . S
O33 C40 1.275 . S
Cd34 O33 2.300 . S
Cd34 O42 2.381 . S
Cd34 O43 2.378 . S
O35 Cd36 2.385 . S
O35 C40 1.255 . S
Cd36 O35 2.385 . S
Cd36 O37 2.317 . S
O37 Cd36 2.317 . S
O37 C38 1.232 . S
C38 O37 1.232 . S
C38 O39 1.218 . S
O39 C38 1.218 . S
C40 O33 1.275 . S
C40 O35 1.255 . S
C41 O42 1.258 . S
C41 O43 1.256 . S
O42 Cd34 2.381 . S
O42 C41 1.258 . S
O43 Cd34 2.378 . S
O43 C41 1.256 . S
O44 Cd45 2.300 . S
O44 C51 1.275 . S
Cd45 O44 2.300 . S
Cd45 O53 2.381 . S
Cd45 O54 2.378 . S
O46 Cd47 2.385 . S
O46 C51 1.255 . S
Cd47 O46 2.385 . S
Cd47 O48 2.317 . S
O48 Cd47 2.317 . S
O48 C49 1.232 . S
C49 O48 1.232 . S
C49 O50 1.218 . S
O50 C49 1.218 . S
C51 O44 1.275 . S
C51 O46 1.255 . S
C52 O53 1.258 . S
C52 O54 1.256 . S
O53 Cd45 2.381 . S
O53 C52 1.258 . S
O54 Cd45 2.378 . S
O54 C52 1.256 . S
O55 Cd56 2.300 . S
O55 C62 1.275 . S
Cd56 O55 2.300 . S
Cd56 O64 2.381 . S
Cd56 O65 2.378 . S
O57 Cd58 2.385 . S
O57 C62 1.255 . S
Cd58 O57 2.385 . S
Cd58 O59 2.317 . S
O59 Cd58 2.317 . S
O59 C60 1.232 . S
C60 O59 1.232 . S
C60 O61 1.218 . S
O61 C60 1.218 . S
C62 O55 1.275 . S
C62 O57 1.255 . S
C63 O64 1.258 . S
C63 O65 1.256 . S
O64 Cd56 2.381 . S
O64 C63 1.258 . S
O65 Cd56 2.378 . S
O65 C63 1.256 . S
O66 Cd67 2.300 . S
O66 C73 1.275 . S
Cd67 O66 2.300 . S
Cd67 O75 2.381 . S
Cd67 O76 2.378 . S
O68 Cd69 2.385 . S
O68 C73 1.255 . S
Cd69 O68 2.385 . S
Cd69 O70 2.317 . S
O70 Cd69 2.317 . S
O70 C71 1.232 . S
C71 O70 1.232 . S
C71 O72 1.218 . S
O72 C71 1.218 . S
C73 O66 1.275 . S
C73 O68 1.255 . S
C74 O75 1.258 . S
C74 O76 1.256 . S
O75 Cd67 2.381 . S
O75 C74 1.258 . S
O76 Cd67 2.378 . S
O76 C74 1.256 . S
O77 Cd78 2.300 . S
O77 C84 1.275 . S
Cd78 O77 2.300 . S
Cd78 O86 2.381 . S
Cd78 O87 2.378 . S
O79 Cd80 2.385 . S
O79 C84 1.255 . S
Cd80 O79 2.385 . S
Cd80 O81 2.317 . S
O81 Cd80 2.317 . S
O81 C82 1.232 . S
C82 O81 1.232 . S
C82 O83 1.218 . S
O83 C82 1.218 . S
C84 O77 1.275 . S
C84 O79 1.255 . S
C85 O86 1.258 . S
C85 O87 1.256 . S
O86 Cd78 2.381 . S
O86 C85 1.258 . S
O87 Cd78 2.378 . S
O87 C85 1.256 . S
C88 O90 1.243 1_655 S
C88 O92 1.258 1_655 S
C89 O96 1.247 . S
C89 O97 1.258 . S
O90 C88 1.243 1_455 S
O90 Zn91 2.037 . S
Zn91 O90 2.037 . S
Zn91 O95 2.035 . S
Zn91 O97 2.035 . S
Zn91 O98 2.028 . S
O92 C88 1.258 1_455 S
O92 Zn93 2.035 . S
Zn93 O92 2.035 . S
Zn93 O94 2.028 . S
Zn93 O96 2.028 . S
Zn93 O99 2.035 . S
O94 Zn93 2.028 . S
O94 C100 1.247 . S
O95 Zn91 2.035 . S
O95 C100 1.258 . S
O96 C89 1.247 . S
O96 Zn93 2.028 . S
O97 C89 1.258 . S
O97 Zn91 2.035 . S
O98 Zn91 2.028 . S
O98 C101 1.247 1_455 S
O99 Zn93 2.035 . S
O99 C101 1.258 1_455 S
C100 O94 1.247 . S
C100 O95 1.258 . S
C101 O98 1.247 1_655 S
C101 O99 1.258 1_655 S
C102 O104 1.247 . S
C102 O106 1.258 . S
C103 O110 1.247 . S
C103 O111 1.258 . S
O104 C102 1.247 . S
O104 Zn105 2.028 1_655 S
Zn105 O104 2.028 1_455 S
Zn105 O109 2.035 . S
Zn105 O111 2.035 . S
Zn105 O112 2.028 1_455 S
O106 C102 1.258 . S
O106 Zn107 2.035 1_655 S
Zn107 O106 2.035 1_455 S
Zn107 O108 2.028 . S
Zn107 O110 2.028 . S
Zn107 O113 2.035 1_455 S
O108 Zn107 2.028 . S
O108 C114 1.247 . S
O109 Zn105 2.035 . S
O109 C114 1.258 . S
O110 C103 1.247 . S
O110 Zn107 2.028 . S
O111 C103 1.258 . S
O111 Zn105 2.035 . S
O112 Zn105 2.028 1_655 S
O112 C115 1.247 . S
O113 Zn107 2.035 1_655 S
O113 C115 1.258 . S
C114 O108 1.247 . S
C114 O109 1.258 . S
C115 O112 1.247 . S
C115 O113 1.258 . S
C116 O118 1.247 . S
C116 O120 1.258 . S
C117 O124 1.247 . S
C117 O125 1.258 . S
O118 C116 1.247 . S
O118 Zn119 2.028 . S
Zn119 O118 2.028 . S
Zn119 O123 2.035 . S
Zn119 O125 2.035 . S
Zn119 O126 2.028 . S
O120 C116 1.258 . S
O120 Zn121 2.035 . S
Zn121 O120 2.035 . S
Zn121 O122 2.028 . S
Zn121 O124 2.028 . S
Zn121 O127 2.035 . S
O122 Zn121 2.028 . S
O122 C128 1.247 . S
O123 Zn119 2.035 . S
O123 C128 1.258 . S
O124 C117 1.247 . S
O124 Zn121 2.028 . S
O125 C117 1.258 . S
O125 Zn119 2.035 . S
O126 Zn119 2.028 . S
O126 C129 1.247 . S
O127 Zn121 2.035 . S
O127 C129 1.258 . S
C128 O122 1.247 . S
C128 O123 1.258 . S
C129 O126 1.247 . S
C129 O127 1.258 . S
C130 O132 1.247 . S
C130 O134 1.258 . S
C131 O138 1.247 . S
C131 O139 1.258 . S
O132 C130 1.247 . S
O132 Zn133 2.028 . S
Zn133 O132 2.028 . S
Zn133 O137 2.035 . S
Zn133 O139 2.035 1_554 S
Zn133 O140 2.028 1_554 S
O134 C130 1.258 . S
O134 Zn135 2.035 . S
Zn135 O134 2.035 . S
Zn135 O136 2.028 . S
Zn135 O138 2.028 1_554 S
Zn135 O141 2.035 1_554 S
O136 Zn135 2.028 . S
O136 C142 1.247 . S
O137 Zn133 2.035 . S
O137 C142 1.258 . S
O138 C131 1.247 . S
O138 Zn135 2.028 1_556 S
O139 C131 1.258 . S
O139 Zn133 2.035 1_556 S
O140 Zn133 2.028 1_556 S
O140 C143 1.247 . S
O141 Zn135 2.035 1_556 S
O141 C143 1.258 . S
C142 O136 1.247 . S
C142 O137 1.258 . S
C143 O140 1.247 . S
C143 O141 1.258 . S
C144 O146 1.247 . S
C144 O148 1.258 . S
C145 O152 1.247 . S
C145 O153 1.258 . S
O146 C144 1.247 . S
O146 Zn147 2.028 . S
Zn147 O146 2.028 . S
Zn147 O151 2.035 1_565 S
Zn147 O153 2.035 1_565 S
Zn147 O154 2.028 . S
O148 C144 1.258 . S
O148 Zn149 2.035 1_565 S
Zn149 O148 2.035 1_545 S
Zn149 O150 2.028 . S
Zn149 O152 2.028 . S
Zn149 O155 2.035 1_545 S
O150 Zn149 2.028 . S
O150 C156 1.247 . S
O151 Zn147 2.035 1_545 S
O151 C156 1.258 . S
O152 C145 1.247 . S
O152 Zn149 2.028 . S
O153 C145 1.258 . S
O153 Zn147 2.035 1_545 S
O154 Zn147 2.028 . S
O154 C157 1.247 . S
O155 Zn149 2.035 1_565 S
O155 C157 1.258 . S
C156 O150 1.247 . S
C156 O151 1.258 . S
C157 O154 1.247 . S
C157 O155 1.258 . S
C158 O160 1.247 . S
C158 O162 1.258 . S
C159 O166 1.247 . S
C159 O167 1.258 . S
O160 C158 1.247 . S
O160 Zn161 2.028 . S
Zn161 O160 2.028 . S
Zn161 O165 2.035 . S
Zn161 O167 2.035 1_554 S
Zn161 O168 2.028 1_554 S
O162 C158 1.258 . S
O162 Zn163 2.035 . S
Zn163 O162 2.035 . S
Zn163 O164 2.028 . S
Zn163 O166 2.028 1_554 S
Zn163 O169 2.035 1_554 S
O164 Zn163 2.028 . S
O164 C170 1.247 . S
O165 Zn161 2.035 . S
O165 C170 1.258 . S
O166 C159 1.247 . S
O166 Zn163 2.028 1_556 S
O167 C159 1.258 . S
O167 Zn161 2.035 1_556 S
O168 Zn161 2.028 1_556 S
O168 C171 1.247 . S
O169 Zn163 2.035 1_556 S
O169 C171 1.258 . S
C170 O164 1.247 . S
C170 O165 1.258 . S
C171 O168 1.247 . S
C171 O169 1.258 . S
H172 C178 0.930 . S
H173 C182 0.930 . S
H174 C187 0.929 . S
H175 C185 0.929 . S
H176 C180 0.929 . S
H177 C186 0.929 . S
C178 H172 0.930 . S
C178 C179 1.367 . S
C178 C186 1.378 . S
C179 C178 1.367 . S
C179 C187 1.433 . S
C180 H176 0.929 . S
C180 C182 1.378 . S
C180 C184 1.350 . S
C181 C184 1.463 . S
C181 C186 1.350 . S
C181 N189 1.427 . S
C182 H173 0.930 . S
C182 C180 1.378 . S
C182 C183 1.367 . S
C183 C182 1.367 . S
C183 C185 1.433 . S
C184 C180 1.350 . S
C184 C181 1.463 . S
C184 N188 1.427 . S
C185 H175 0.929 . S
C185 C183 1.433 . S
C185 N188 1.384 . S
C186 H177 0.929 . S
C186 C178 1.378 . S
C186 C181 1.350 . S
C187 H174 0.929 . S
C187 C179 1.433 . S
C187 N189 1.384 . S
N188 C184 1.427 . S
N188 C185 1.384 . S
N189 C181 1.427 . S
N189 C187 1.384 . S
H190 C196 0.930 . S
H191 C200 0.930 . S
H192 C205 0.929 . S
H193 C203 0.929 . S
H194 C198 0.929 . S
H195 C204 0.929 . S
C196 H190 0.930 . S
C196 C197 1.367 . S
C196 C204 1.378 . S
C197 C196 1.367 . S
C197 C205 1.433 . S
C198 H194 0.929 . S
C198 C200 1.378 . S
C198 C202 1.350 . S
C199 C202 1.463 . S
C199 C204 1.350 . S
C199 N207 1.427 . S
C200 H191 0.930 . S
C200 C198 1.378 . S
C200 C201 1.367 . S
C201 C200 1.367 . S
C201 C203 1.433 . S
C202 C198 1.350 . S
C202 C199 1.463 . S
C202 N206 1.427 . S
C203 H193 0.929 . S
C203 C201 1.433 . S
C203 N206 1.384 . S
C204 H195 0.929 . S
C204 C196 1.378 . S
C204 C199 1.350 . S
C205 H192 0.929 . S
C205 C197 1.433 . S
C205 N207 1.384 . S
N206 C202 1.427 . S
N206 C203 1.384 . S
N207 C199 1.427 . S
N207 C205 1.384 . S
H208 C214 0.930 . S
H209 C218 0.930 . S
H210 C223 0.929 . S
H211 C221 0.929 . S
H212 C216 0.929 . S
H213 C222 0.929 . S
C214 H208 0.930 . S
C214 C215 1.367 . S
C214 C222 1.378 . S
C215 C214 1.367 . S
C215 C223 1.433 . S
C216 H212 0.929 . S
C216 C218 1.378 . S
C216 C220 1.350 . S
C217 C220 1.463 . S
C217 C222 1.350 . S
C217 N225 1.427 . S
C218 H209 0.930 . S
C218 C216 1.378 . S
C218 C219 1.367 . S
C219 C218 1.367 . S
C219 C221 1.433 . S
C220 C216 1.350 . S
C220 C217 1.463 . S
C220 N224 1.427 . S
C221 H211 0.929 . S
C221 C219 1.433 . S
C221 N224 1.384 . S
C222 H213 0.929 . S
C222 C214 1.378 . S
C222 C217 1.350 . S
C223 H210 0.929 . S
C223 C215 1.433 . S
C223 N225 1.384 . S
N224 C220 1.427 . S
N224 C221 1.384 . S
N225 C217 1.427 . S
N225 C223 1.384 . S
H226 C232 0.930 . S
H227 C236 0.930 . S
H228 C241 0.929 . S
H229 C239 0.929 . S
H230 C234 0.929 . S
H231 C240 0.929 . S
C232 H226 0.930 . S
C232 C233 1.367 . S
C232 C240 1.378 . S
C233 C232 1.367 . S
C233 C241 1.433 . S
C234 H230 0.929 . S
C234 C236 1.378 . S
C234 C238 1.350 . S
C235 C238 1.463 . S
C235 C240 1.350 . S
C235 N243 1.427 . S
C236 H227 0.930 . S
C236 C234 1.378 . S
C236 C237 1.367 . S
C237 C236 1.367 . S
C237 C239 1.433 . S
C238 C234 1.350 . S
C238 C235 1.463 . S
C238 N242 1.427 . S
C239 H229 0.929 . S
C239 C237 1.433 . S
C239 N242 1.384 . S
C240 H231 0.929 . S
C240 C232 1.378 . S
C240 C235 1.350 . S
C241 H228 0.929 . S
C241 C233 1.433 . S
C241 N243 1.384 . S
N242 C238 1.427 . S
N242 C239 1.384 . S
N243 C235 1.427 . S
N243 C241 1.384 . S
H244 C250 0.930 . S
H245 C254 0.930 . S
H246 C259 0.929 . S
H247 C257 0.929 . S
H248 C252 0.929 . S
H249 C258 0.929 . S
C250 H244 0.930 . S
C250 C251 1.367 . S
C250 C258 1.378 . S
C251 C250 1.367 . S
C251 C259 1.433 . S
C252 H248 0.929 . S
C252 C254 1.378 . S
C252 C256 1.350 . S
C253 C256 1.463 . S
C253 C258 1.350 . S
C253 N261 1.427 . S
C254 H245 0.930 . S
C254 C252 1.378 . S
C254 C255 1.367 . S
C255 C254 1.367 . S
C255 C257 1.433 . S
C256 C252 1.350 . S
C256 C253 1.463 . S
C256 N260 1.427 . S
C257 H247 0.929 . S
C257 C255 1.433 . S
C257 N260 1.384 . S
C258 H249 0.929 . S
C258 C250 1.378 . S
C258 C253 1.350 . S
C259 H246 0.929 . S
C259 C251 1.433 . S
C259 N261 1.384 . S
N260 C256 1.427 . S
N260 C257 1.384 . S
N261 C253 1.427 . S
N261 C259 1.384 . S
H262 C268 0.930 . S
H263 C272 0.930 . S
H264 C277 0.929 . S
H265 C275 0.929 . S
H266 C270 0.929 . S
H267 C276 0.929 . S
C268 H262 0.930 . S
C268 C269 1.367 . S
C268 C276 1.378 . S
C269 C268 1.367 . S
C269 C277 1.433 . S
C270 H266 0.929 . S
C270 C272 1.378 . S
C270 C274 1.350 . S
C271 C274 1.463 . S
C271 C276 1.350 . S
C271 N279 1.427 . S
C272 H263 0.930 . S
C272 C270 1.378 . S
C272 C273 1.367 . S
C273 C272 1.367 . S
C273 C275 1.433 . S
C274 C270 1.350 . S
C274 C271 1.463 . S
C274 N278 1.427 . S
C275 H265 0.929 . S
C275 C273 1.433 . S
C275 N278 1.384 . S
C276 H267 0.929 . S
C276 C268 1.378 . S
C276 C271 1.350 . S
C277 H264 0.929 . S
C277 C269 1.433 . S
C277 N279 1.384 . S
N278 C274 1.427 . S
N278 C275 1.384 . S
N279 C271 1.427 . S
N279 C277 1.384 . S
H280 C286 0.930 . S
H281 C290 0.930 . S
H282 C295 0.929 . S
H283 C293 0.929 . S
H284 C288 0.929 . S
H285 C294 0.929 . S
C286 H280 0.930 . S
C286 C287 1.367 . S
C286 C294 1.378 . S
C287 C286 1.367 . S
C287 C295 1.433 . S
C288 H284 0.929 . S
C288 C290 1.378 . S
C288 C292 1.350 . S
C289 C292 1.463 . S
C289 C294 1.350 . S
C289 N297 1.427 . S
C290 H281 0.930 . S
C290 C288 1.378 . S
C290 C291 1.367 . S
C291 C290 1.367 . S
C291 C293 1.433 . S
C292 C288 1.350 . S
C292 C289 1.463 . S
C292 N296 1.427 . S
C293 H283 0.929 . S
C293 C291 1.433 . S
C293 N296 1.384 . S
C294 H285 0.929 . S
C294 C286 1.378 . S
C294 C289 1.350 . S
C295 H282 0.929 . S
C295 C287 1.433 . S
C295 N297 1.384 . S
N296 C292 1.427 . S
N296 C293 1.384 . S
N297 C289 1.427 . S
N297 C295 1.384 . S
H298 C304 0.930 . S
H299 C308 0.930 . S
H300 C313 0.929 . S
H301 C311 0.929 . S
H302 C306 0.929 . S
H303 C312 0.929 . S
C304 H298 0.930 . S
C304 C305 1.367 . S
C304 C312 1.378 . S
C305 C304 1.367 . S
C305 C313 1.433 . S
C306 H302 0.929 . S
C306 C308 1.378 . S
C306 C310 1.350 . S
C307 C310 1.463 . S
C307 C312 1.350 . S
C307 N315 1.427 . S
C308 H299 0.930 . S
C308 C306 1.378 . S
C308 C309 1.367 . S
C309 C308 1.367 . S
C309 C311 1.433 . S
C310 C306 1.350 . S
C310 C307 1.463 . S
C310 N314 1.427 . S
C311 H301 0.929 . S
C311 C309 1.433 . S
C311 N314 1.384 . S
C312 H303 0.929 . S
C312 C304 1.378 . S
C312 C307 1.350 . S
C313 H300 0.929 . S
C313 C305 1.433 . S
C313 N315 1.384 . S
N314 C310 1.427 . S
N314 C311 1.384 . S
N315 C307 1.427 . S
N315 C313 1.384 . S
H316 C322 0.939 . S
H317 C326 0.930 . S
H318 C331 0.929 . S
H319 C329 0.929 . S
H320 C324 0.929 . S
H321 C330 0.929 . S
C322 H316 0.939 . S
C322 C323 1.367 . S
C322 C330 1.378 1_565 S
C323 C322 1.367 . S
C323 C331 1.433 . S
C324 H320 0.929 . S
C324 C326 1.378 . S
C324 C328 1.350 . S
C325 C328 1.463 . S
C325 C330 1.350 . S
C325 N333 1.427 1_545 S
C326 H317 0.930 . S
C326 C324 1.378 . S
C326 C327 1.367 . S
C327 C326 1.367 . S
C327 C329 1.433 . S
C328 C324 1.350 . S
C328 C325 1.463 . S
C328 N332 1.427 . S
C329 H319 0.929 . S
C329 C327 1.433 . S
C329 N332 1.384 . S
C330 H321 0.929 . S
C330 C322 1.378 1_545 S
C330 C325 1.350 . S
C331 H318 0.929 . S
C331 C323 1.433 . S
C331 N333 1.384 . S
N332 C328 1.427 . S
N332 C329 1.384 . S
N333 C325 1.427 1_565 S
N333 C331 1.384 . S
H334 C340 0.930 . S
H335 C344 0.930 . S
H336 C349 0.929 . S
H337 C347 0.929 . S
H338 C342 0.929 . S
H339 C348 0.929 . S
C340 H334 0.930 . S
C340 C341 1.367 . S
C340 C348 1.378 . S
C341 C340 1.367 . S
C341 C349 1.433 . S
C342 H338 0.929 . S
C342 C344 1.378 . S
C342 C346 1.350 . S
C343 C346 1.463 . S
C343 C348 1.350 . S
C343 N351 1.427 . S
C344 H335 0.930 . S
C344 C342 1.378 . S
C344 C345 1.367 . S
C345 C344 1.367 . S
C345 C347 1.433 . S
C346 C342 1.350 . S
C346 C343 1.463 . S
C346 N350 1.427 . S
C347 H337 0.929 . S
C347 C345 1.433 . S
C347 N350 1.384 . S
C348 H339 0.929 . S
C348 C340 1.378 . S
C348 C343 1.350 . S
C349 H336 0.929 . S
C349 C341 1.433 . S
C349 N351 1.384 . S
N350 C346 1.427 . S
N350 C347 1.384 . S
N351 C343 1.427 . S
N351 C349 1.384 . S
H352 C358 0.930 . S
H353 C362 0.930 . S
H354 C367 0.929 . S
H355 C365 0.929 . S
H356 C360 0.929 . S
H357 C366 0.929 . S
C358 H352 0.930 . S
C358 C359 1.367 . S
C358 C366 1.378 . S
C359 C358 1.367 . S
C359 C367 1.433 . S
C360 H356 0.929 . S
C360 C362 1.378 . S
C360 C364 1.350 . S
C361 C364 1.463 . S
C361 C366 1.350 . S
C361 N369 1.427 . S
C362 H353 0.930 . S
C362 C360 1.378 . S
C362 C363 1.367 . S
C363 C362 1.367 . S
C363 C365 1.433 . S
C364 C360 1.350 . S
C364 C361 1.463 . S
C364 N368 1.427 . S
C365 H355 0.929 . S
C365 C363 1.433 . S
C365 N368 1.384 . S
C366 H357 0.929 . S
C366 C358 1.378 . S
C366 C361 1.350 . S
C367 H354 0.929 . S
C367 C359 1.433 . S
C367 N369 1.384 . S
N368 C364 1.427 . S
N368 C365 1.384 . S
N369 C361 1.427 . S
N369 C367 1.384 . S
H370 C376 0.930 . S
H371 C380 0.930 . S
H372 C385 0.929 . S
H373 C383 0.929 . S
H374 C378 0.929 . S
H375 C384 0.929 . S
C376 H370 0.930 . S
C376 C377 1.367 . S
C376 C384 1.378 . S
C377 C376 1.367 . S
C377 C385 1.433 . S
C378 H374 0.929 . S
C378 C380 1.378 . S
C378 C382 1.350 . S
C379 C382 1.463 . S
C379 C384 1.350 . S
C379 N387 1.427 . S
C380 H371 0.930 . S
C380 C378 1.378 . S
C380 C381 1.367 . S
C381 C380 1.367 . S
C381 C383 1.433 . S
C382 C378 1.350 . S
C382 C379 1.463 . S
C382 N386 1.427 . S
C383 H373 0.929 . S
C383 C381 1.433 . S
C383 N386 1.384 . S
C384 H375 0.929 . S
C384 C376 1.378 . S
C384 C379 1.350 . S
C385 H372 0.929 . S
C385 C377 1.433 . S
C385 N387 1.384 . S
N386 C382 1.427 . S
N386 C383 1.384 . S
N387 C379 1.427 . S
N387 C385 1.384 . S
H388 C394 0.930 . S
H389 C398 0.930 . S
H390 C403 0.929 . S
H391 C401 0.929 . S
H392 C396 0.929 . S
H393 C402 0.929 . S
C394 H388 0.930 . S
C394 C395 1.367 . S
C394 C402 1.378 . S
C395 C394 1.367 . S
C395 C403 1.433 . S
C396 H392 0.929 . S
C396 C398 1.378 . S
C396 C400 1.350 . S
C397 C400 1.463 . S
C397 C402 1.350 . S
C397 N405 1.427 . S
C398 H389 0.930 . S
C398 C396 1.378 . S
C398 C399 1.367 . S
C399 C398 1.367 . S
C399 C401 1.433 . S
C400 C396 1.350 . S
C400 C397 1.463 . S
C400 N404 1.427 . S
C401 H391 0.929 . S
C401 C399 1.433 . S
C401 N404 1.384 . S
C402 H393 0.929 . S
C402 C394 1.378 . S
C402 C397 1.350 . S
C403 H390 0.929 . S
C403 C395 1.433 . S
C403 N405 1.384 . S
N404 C400 1.427 . S
N404 C401 1.384 . S
N405 C397 1.427 . S
N405 C403 1.384 . S
H406 C412 0.930 . S
H407 C416 0.930 . S
H408 C421 0.929 . S
H409 C419 0.929 . S
H410 C414 0.929 . S
H411 C420 0.929 . S
C412 H406 0.930 . S
C412 C413 1.367 . S
C412 C420 1.378 . S
C413 C412 1.367 . S
C413 C421 1.433 . S
C414 H410 0.929 . S
C414 C416 1.378 . S
C414 C418 1.350 . S
C415 C418 1.463 . S
C415 C420 1.350 . S
C415 N423 1.427 . S
C416 H407 0.930 . S
C416 C414 1.378 . S
C416 C417 1.367 . S
C417 C416 1.367 . S
C417 C419 1.433 . S
C418 C414 1.350 . S
C418 C415 1.463 . S
C418 N422 1.427 . S
C419 H409 0.929 . S
C419 C417 1.433 . S
C419 N422 1.384 . S
C420 H411 0.929 . S
C420 C412 1.378 . S
C420 C415 1.350 . S
C421 H408 0.929 . S
C421 C413 1.433 . S
C421 N423 1.384 . S
N422 C418 1.427 . S
N422 C419 1.384 . S
N423 C415 1.427 . S
N423 C421 1.384 . S
H424 C430 0.930 . S
H425 C434 0.930 . S
H426 C439 0.929 . S
H427 C437 0.929 . S
H428 C432 0.929 . S
H429 C438 0.929 . S
C430 H424 0.930 . S
C430 C431 1.367 . S
C430 C438 1.378 . S
C431 C430 1.367 . S
C431 C439 1.433 . S
C432 H428 0.929 . S
C432 C434 1.378 . S
C432 C436 1.350 . S
C433 C436 1.463 . S
C433 C438 1.350 . S
C433 N441 1.427 . S
C434 H425 0.930 . S
C434 C432 1.378 . S
C434 C435 1.367 . S
C435 C434 1.367 . S
C435 C437 1.433 . S
C436 C432 1.350 . S
C436 C433 1.463 . S
C436 N440 1.427 . S
C437 H427 0.929 . S
C437 C435 1.433 . S
C437 N440 1.384 . S
C438 H429 0.929 . S
C438 C430 1.378 . S
C438 C433 1.350 . S
C439 H426 0.929 . S
C439 C431 1.433 . S
C439 N441 1.384 . S
N440 C436 1.427 . S
N440 C437 1.384 . S
N441 C433 1.427 . S
N441 C439 1.384 . S
H442 C448 0.930 . S
H443 C452 0.930 . S
H444 C457 0.929 . S
H445 C455 0.929 . S
H446 C450 0.929 . S
H447 C456 0.929 . S
C448 H442 0.930 . S
C448 C449 1.367 . S
C448 C456 1.378 . S
C449 C448 1.367 . S
C449 C457 1.433 . S
C450 H446 0.929 . S
C450 C452 1.378 . S
C450 C454 1.350 . S
C451 C454 1.463 . S
C451 C456 1.350 . S
C451 N459 1.427 . S
C452 H443 0.930 . S
C452 C450 1.378 . S
C452 C453 1.367 . S
C453 C452 1.367 . S
C453 C455 1.433 . S
C454 C450 1.350 . S
C454 C451 1.463 . S
C454 N458 1.427 . S
C455 H445 0.929 . S
C455 C453 1.433 . S
C455 N458 1.384 . S
C456 H447 0.929 . S
C456 C448 1.378 . S
C456 C451 1.350 . S
C457 H444 0.929 . S
C457 C449 1.433 . S
C457 N459 1.384 . S
N458 C454 1.427 . S
N458 C455 1.384 . S
N459 C451 1.427 . S
N459 C457 1.384 . S
H460 C466 0.930 . S
H461 C470 0.930 . S
H462 C475 0.929 . S
H463 C473 0.929 . S
H464 C468 0.929 . S
H465 C474 0.929 . S
C466 H460 0.930 . S
C466 C467 1.367 . S
C466 C474 1.378 . S
C467 C466 1.367 . S
C467 C475 1.433 . S
C468 H464 0.929 . S
C468 C470 1.378 . S
C468 C472 1.350 . S
C469 C472 1.463 . S
C469 C474 1.350 . S
C469 N477 1.427 . S
C470 H461 0.930 . S
C470 C468 1.378 . S
C470 C471 1.367 . S
C471 C470 1.367 . S
C471 C473 1.433 . S
C472 C468 1.350 . S
C472 C469 1.463 . S
C472 N476 1.427 . S
C473 H463 0.929 . S
C473 C471 1.433 . S
C473 N476 1.384 . S
C474 H465 0.929 . S
C474 C466 1.378 . S
C474 C469 1.350 . S
C475 H462 0.929 . S
C475 C467 1.433 . S
C475 N477 1.384 . S
N476 C472 1.427 . S
N476 C473 1.384 . S
N477 C469 1.427 . S
N477 C475 1.384 . S
H478 C484 0.930 . S
H479 C488 0.930 . S
H480 C493 0.929 . S
H481 C491 0.929 . S
H482 C486 0.929 . S
H483 C492 0.929 . S
C484 H478 0.930 . S
C484 C485 1.367 . S
C484 C492 1.378 . S
C485 C484 1.367 . S
C485 C493 1.433 . S
C486 H482 0.929 . S
C486 C488 1.378 . S
C486 C490 1.350 . S
C487 C490 1.463 . S
C487 C492 1.350 . S
C487 N495 1.427 . S
C488 H479 0.930 . S
C488 C486 1.378 . S
C488 C489 1.367 . S
C489 C488 1.367 . S
C489 C491 1.433 . S
C490 C486 1.350 . S
C490 C487 1.463 . S
C490 N494 1.427 . S
C491 H481 0.929 . S
C491 C489 1.433 . S
C491 N494 1.384 . S
C492 H483 0.929 . S
C492 C484 1.378 . S
C492 C487 1.350 . S
C493 H480 0.929 . S
C493 C485 1.433 . S
C493 N495 1.384 . S
N494 C490 1.427 . S
N494 C491 1.384 . S
N495 C487 1.427 . S
N495 C493 1.384 . S
H496 C502 0.930 . S
H497 C506 0.930 . S
H498 C511 0.929 . S
H499 C509 0.929 . S
H500 C504 0.929 . S
H501 C510 0.929 . S
C502 H496 0.930 . S
C502 C503 1.367 . S
C502 C510 1.378 . S
C503 C502 1.367 . S
C503 C511 1.433 . S
C504 H500 0.929 . S
C504 C506 1.378 . S
C504 C508 1.350 . S
C505 C508 1.463 . S
C505 C510 1.350 . S
C505 N513 1.427 . S
C506 H497 0.930 . S
C506 C504 1.378 . S
C506 C507 1.367 . S
C507 C506 1.367 . S
C507 C509 1.433 . S
C508 C504 1.350 . S
C508 C505 1.463 . S
C508 N512 1.427 . S
C509 H499 0.929 . S
C509 C507 1.433 . S
C509 N512 1.384 . S
C510 H501 0.929 . S
C510 C502 1.378 . S
C510 C505 1.350 . S
C511 H498 0.929 . S
C511 C503 1.433 . S
C511 N513 1.384 . S
N512 C508 1.427 . S
N512 C509 1.384 . S
N513 C505 1.427 . S
N513 C511 1.384 . S
H514 C520 0.930 . S
H515 C524 0.930 . S
H516 C529 0.929 . S
H517 C527 0.929 . S
H518 C522 0.929 . S
H519 C528 0.929 . S
C520 H514 0.930 . S
C520 C521 1.367 . S
C520 C528 1.378 . S
C521 C520 1.367 . S
C521 C529 1.433 . S
C522 H518 0.929 . S
C522 C524 1.378 . S
C522 C526 1.350 . S
C523 C526 1.463 . S
C523 C528 1.350 . S
C523 N531 1.427 . S
C524 H515 0.930 . S
C524 C522 1.378 . S
C524 C525 1.367 . S
C525 C524 1.367 . S
C525 C527 1.433 . S
C526 C522 1.350 . S
C526 C523 1.463 . S
C526 N530 1.427 . S
C527 H517 0.929 . S
C527 C525 1.433 . S
C527 N530 1.384 . S
C528 H519 0.929 . S
C528 C520 1.378 . S
C528 C523 1.350 . S
C529 H516 0.929 . S
C529 C521 1.433 . S
C529 N531 1.384 . S
N530 C526 1.427 . S
N530 C527 1.384 . S
N531 C523 1.427 . S
N531 C529 1.384 . S
H532 C538 0.930 . S
H533 C542 0.930 . S
H534 C547 0.929 . S
H535 C545 0.929 . S
H536 C540 0.929 . S
H537 C546 0.929 . S
C538 H532 0.930 . S
C538 C539 1.367 . S
C538 C546 1.378 . S
C539 C538 1.367 . S
C539 C547 1.433 . S
C540 H536 0.929 . S
C540 C542 1.378 . S
C540 C544 1.350 . S
C541 C544 1.463 . S
C541 C546 1.350 . S
C541 N549 1.427 . S
C542 H533 0.930 . S
C542 C540 1.378 . S
C542 C543 1.367 . S
C543 C542 1.367 . S
C543 C545 1.433 . S
C544 C540 1.350 . S
C544 C541 1.463 . S
C544 N548 1.427 . S
C545 H535 0.929 . S
C545 C543 1.433 . S
C545 N548 1.384 . S
C546 H537 0.929 . S
C546 C538 1.378 . S
C546 C541 1.350 . S
C547 H534 0.929 . S
C547 C539 1.433 . S
C547 N549 1.384 . S
N548 C544 1.427 . S
N548 C545 1.384 . S
N549 C541 1.427 . S
N549 C547 1.384 . S
H550 C556 0.930 . S
H551 C560 0.930 . S
H552 C565 0.929 . S
H553 C563 0.929 . S
H554 C558 0.929 . S
H555 C564 0.929 . S
C556 H550 0.930 . S
C556 C557 1.367 . S
C556 C564 1.378 . S
C557 C556 1.367 . S
C557 C565 1.433 . S
C558 H554 0.929 . S
C558 C560 1.378 . S
C558 C562 1.350 . S
C559 C562 1.463 . S
C559 C564 1.350 . S
C559 N567 1.427 . S
C560 H551 0.930 . S
C560 C558 1.378 . S
C560 C561 1.367 . S
C561 C560 1.367 . S
C561 C563 1.433 . S
C562 C558 1.350 . S
C562 C559 1.463 . S
C562 N566 1.427 . S
C563 H553 0.929 . S
C563 C561 1.433 . S
C563 N566 1.384 . S
C564 H555 0.929 . S
C564 C556 1.378 . S
C564 C559 1.350 . S
C565 H552 0.929 . S
C565 C557 1.433 . S
C565 N567 1.384 . S
N566 C562 1.427 . S
N566 C563 1.384 . S
N567 C559 1.427 . S
N567 C565 1.384 . S
H568 C574 0.930 . S
H569 C578 0.930 . S
H570 C583 0.929 . S
H571 C581 0.929 . S
H572 C576 0.929 . S
H573 C582 0.929 . S
C574 H568 0.930 . S
C574 C575 1.367 . S
C574 C582 1.378 . S
C575 C574 1.367 . S
C575 C583 1.433 . S
C576 H572 0.929 . S
C576 C578 1.378 . S
C576 C580 1.350 . S
C577 C580 1.463 1_565 S
C577 C582 1.350 . S
C577 N585 1.427 . S
C578 H569 0.930 . S
C578 C576 1.378 . S
C578 C579 1.367 . S
C579 C578 1.367 . S
C579 C581 1.433 . S
C580 C576 1.350 . S
C580 C577 1.463 1_545 S
C580 N584 1.427 . S
C581 H571 0.929 . S
C581 C579 1.433 . S
C581 N584 1.384 . S
C582 H573 0.929 . S
C582 C574 1.378 . S
C582 C577 1.350 . S
C583 H570 0.929 . S
C583 C575 1.433 . S
C583 N585 1.384 . S
N584 C580 1.427 . S
N584 C581 1.384 . S
N585 C577 1.427 . S
N585 C583 1.384 . S
H586 C592 0.930 . S
H587 C596 0.930 . S
H588 C601 0.929 . S
H589 C599 0.929 . S
H590 C594 0.929 . S
H591 C600 0.929 . S
C592 H586 0.930 . S
C592 C593 1.367 . S
C592 C600 1.378 . S
C593 C592 1.367 . S
C593 C601 1.433 . S
C594 H590 0.929 . S
C594 C596 1.378 . S
C594 C598 1.350 . S
C595 C598 1.463 . S
C595 C600 1.350 . S
C595 N603 1.427 . S
C596 H587 0.930 . S
C596 C594 1.378 . S
C596 C597 1.367 . S
C597 C596 1.367 . S
C597 C599 1.433 . S
C598 C594 1.350 . S
C598 C595 1.463 . S
C598 N602 1.427 . S
C599 H589 0.929 . S
C599 C597 1.433 . S
C599 N602 1.384 . S
C600 H591 0.929 . S
C600 C592 1.378 . S
C600 C595 1.350 . S
C601 H588 0.929 . S
C601 C593 1.433 . S
C601 N603 1.384 . S
N602 C598 1.427 . S
N602 C599 1.384 . S
N603 C595 1.427 . S
N603 C601 1.384 . S
C183 C100 1.667 . S
C179 C5 1.518 . S
C201 C103 1.454 . S
C197 C16 1.251 . S
C219 C101 1.733 . S
C215 C30 1.751 . S
C237 C102 1.579 . S
C233 C40 1.547 . S
C255 C117 1.438 . S
C251 C8 1.438 . S
C273 C131 1.373 . S
C269 C18 1.323 . S
C287 C29 1.700 . S
C291 C157 1.726 . S
C309 C171 1.568 . S
C305 C38 1.356 . S
C327 C116 1.412 . S
C323 C19 1.406 . S
C341 C27 1.444 . S
C345 C130 1.584 . S
C363 C156 1.541 . S
C359 C41 1.528 . S
C381 C170 1.630 . S
C377 C7 1.574 . S
C395 C52 1.571 . S
C399 C115 1.596 . S
C417 C88 1.711 . S
C413 C62 1.681 . S
C431 C74 1.400 . S
C435 C114 1.401 . S
C449 C82 1.285 . S
C453 C89 1.487 . S
C471 C144 1.803 . S
C467 C51 1.702 . S
C489 C158 1.684 . S
C485 C60 1.429 . S
C507 C128 1.447 . S
C503 C71 1.260 . S
C521 C84 1.386 . S
C525 C142 1.438 . S
C543 C145 1.668 . S
C539 C63 1.652 . S
C561 C159 1.499 . S
C557 C73 1.478 . S
C579 C129 1.494 . S
C575 C85 1.502 . S
C593 C49 1.319 . S
C597 C143 1.592 . S
