# Generated by pormake.
# Topology zzz, (3,6)-cn, num edge types: 1
# Building blocks:
#     Node 0, Type 0, BuildingBlock: WUSLED_clean_sbu_0, # of connection points: 3
#     Node 1, Type 0, BuildingBlock: WUSLED_clean_sbu_0, # of connection points: 3
#     Node 2, Type 0, BuildingBlock: WUSLED_clean_sbu_0, # of connection points: 3
#     Node 3, Type 0, BuildingBlock: WUSLED_clean_sbu_0, # of connection points: 3
#     Node 4, Type 0, BuildingBlock: WUSLED_clean_sbu_0, # of connection points: 3
#     Node 5, Type 0, BuildingBlock: WUSLED_clean_sbu_0, # of connection points: 3
#     Node 6, Type 0, BuildingBlock: WUSLED_clean_sbu_0, # of connection points: 3
#     Node 7, Type 0, BuildingBlock: WUSLED_clean_sbu_0, # of connection points: 3
#     Node 8, Type 1, BuildingBlock: BETGAK_clean_sbu_0, # of connection points: 6
#     Node 9, Type 1, BuildingBlock: BETGAK_clean_sbu_0, # of connection points: 6
#     Node 10, Type 1, BuildingBlock: BETGAK_clean_sbu_0, # of connection points: 6
#     Node 11, Type 1, BuildingBlock: BETGAK_clean_sbu_0, # of connection points: 6
#     Edge 12, Type (0, 1), BuildingBlock: MIFKUJ_clean_linker_0, # of connection points: 2
#     Edge 13, Type (0, 1), BuildingBlock: MIFKUJ_clean_linker_0, # of connection points: 2
#     Edge 14, Type (0, 1), BuildingBlock: MIFKUJ_clean_linker_0, # of connection points: 2
#     Edge 15, Type (0, 1), BuildingBlock: MIFKUJ_clean_linker_0, # of connection points: 2
#     Edge 16, Type (0, 1), BuildingBlock: MIFKUJ_clean_linker_0, # of connection points: 2
#     Edge 17, Type (0, 1), BuildingBlock: MIFKUJ_clean_linker_0, # of connection points: 2
#     Edge 18, Type (0, 1), BuildingBlock: MIFKUJ_clean_linker_0, # of connection points: 2
#     Edge 19, Type (0, 1), BuildingBlock: MIFKUJ_clean_linker_0, # of connection points: 2
#     Edge 20, Type (0, 1), BuildingBlock: MIFKUJ_clean_linker_0, # of connection points: 2
#     Edge 21, Type (0, 1), BuildingBlock: MIFKUJ_clean_linker_0, # of connection points: 2
#     Edge 22, Type (0, 1), BuildingBlock: MIFKUJ_clean_linker_0, # of connection points: 2
#     Edge 23, Type (0, 1), BuildingBlock: MIFKUJ_clean_linker_0, # of connection points: 2
#     Edge 24, Type (0, 1), BuildingBlock: MIFKUJ_clean_linker_0, # of connection points: 2
#     Edge 25, Type (0, 1), BuildingBlock: MIFKUJ_clean_linker_0, # of connection points: 2
#     Edge 26, Type (0, 1), BuildingBlock: MIFKUJ_clean_linker_0, # of connection points: 2
#     Edge 27, Type (0, 1), BuildingBlock: MIFKUJ_clean_linker_0, # of connection points: 2
#     Edge 28, Type (0, 1), BuildingBlock: MIFKUJ_clean_linker_0, # of connection points: 2
#     Edge 29, Type (0, 1), BuildingBlock: MIFKUJ_clean_linker_0, # of connection points: 2
#     Edge 30, Type (0, 1), BuildingBlock: MIFKUJ_clean_linker_0, # of connection points: 2
#     Edge 31, Type (0, 1), BuildingBlock: MIFKUJ_clean_linker_0, # of connection points: 2
#     Edge 32, Type (0, 1), BuildingBlock: MIFKUJ_clean_linker_0, # of connection points: 2
#     Edge 33, Type (0, 1), BuildingBlock: MIFKUJ_clean_linker_0, # of connection points: 2
#     Edge 34, Type (0, 1), BuildingBlock: MIFKUJ_clean_linker_0, # of connection points: 2
#     Edge 35, Type (0, 1), BuildingBlock: MIFKUJ_clean_linker_0, # of connection points: 2
# Relax obj value: 0.394
# Max RMSD: 0.265
# Mean RMSD: 0.245
data_MOF--net-zzz--node1-WUSLED_clean_sbu_0--node2-BETGAK_clean_sbu_0--edge1-MIFKUJ_clean_linker_0
_symmetry_space_group_name_H-M    P1
_symmetry_Int_Tables_number       1
_symmetry_cell_setting            triclinic
loop_
_symmetry_equiv_pos_as_xyz
'x, y, z'
_cell_length_a     78.929411
_cell_length_b     78.910058
_cell_length_c     24.061375
_cell_angle_alpha  89.806936
_cell_angle_beta   89.985084
_cell_angle_gamma 90.084998
loop_
_atom_site_label
_atom_site_type_symbol
_atom_site_fract_x
_atom_site_fract_y
_atom_site_fract_z
_atom_type_partial_charge
C0 C 0.76544 0.5195 0.43251 0.0
C1 C 0.77875 0.51024 0.40855 0.0
C2 C 0.79872 0.51982 0.48086 0.0
C3 C 0.79508 0.51034 0.43242 0.0
C4 C 0.7852 0.52891 0.50496 0.0
C5 C 0.76888 0.5287 0.48125 0.0
U6 U 0.73015 0.51892 0.31574 0.0
O7 O 0.70575 0.50514 0.31413 0.0
O8 O 0.70585 0.53281 0.31459 0.0
C9 C 0.6967 0.51901 0.30852 0.0
C10 C 0.74774 0.5192 0.40975 0.0
C11 C 0.68387 0.51923 0.2626 0.0
C12 C 0.65421 0.52153 0.23343 0.0
C13 C 0.66664 0.52137 0.27541 0.0
C14 C 0.67594 0.51737 0.16421 0.0
C15 C 0.65858 0.51946 0.17703 0.0
C16 C 0.68841 0.51732 0.20635 0.0
C17 C 0.75998 0.51958 0.18293 0.0
C18 C 0.7702 0.52188 0.0885 0.0
C19 C 0.79012 0.51853 0.1646 0.0
C20 C 0.77664 0.51815 0.20249 0.0
C21 C 0.78694 0.5203 0.1072 0.0
C22 C 0.75687 0.52148 0.12606 0.0
C23 C 0.74521 0.51919 0.21917 0.0
O24 O 0.74228 0.53299 0.38472 0.0
O25 O 0.74256 0.50526 0.38501 0.0
O26 O 0.74182 0.50511 0.24632 0.0
O27 O 0.74135 0.53311 0.24614 0.0
H28 H 0.77655 0.50282 0.37146 0.0
H29 H 0.8048 0.50276 0.4129 0.0
H30 H 0.78721 0.53651 0.54174 0.0
H31 H 0.75885 0.53581 0.5012 0.0
H32 H 0.64107 0.52297 0.24541 0.0
H33 H 0.66273 0.52284 0.31827 0.0
H34 H 0.67994 0.51594 0.12142 0.0
H35 H 0.7016 0.51577 0.19498 0.0
H36 H 0.76739 0.52346 0.04472 0.0
H37 H 0.80294 0.51708 0.17993 0.0
H38 H 0.77917 0.51664 0.24648 0.0
H39 H 0.74403 0.52263 0.11057 0.0
C40 C 0.0131 0.76781 0.43799 0.0
C41 C 0.02095 0.78171 0.4119 0.0
C42 C 0.01146 0.801 0.486 0.0
C43 C 0.02019 0.79801 0.43558 0.0
C44 C 1.00395 0.7869 0.51256 0.0
C45 C 1.00477 0.7706 0.48891 0.0
U46 U 0.01376 0.73377 0.31842 0.0
O47 O 1.00069 0.70904 0.31438 0.0
O48 O 0.02836 0.70989 0.31369 0.0
C49 C 0.01478 0.70046 0.30702 0.0
C50 C 0.01378 0.75026 0.41437 0.0
C51 C 0.01507 0.6881 0.25979 0.0
C52 C 0.02094 0.65941 0.22634 0.0
C53 C 0.02096 0.67155 0.26907 0.0
C54 C 1.00924 0.68011 0.16315 0.0
C55 C 0.01492 0.66331 0.17253 0.0
C56 C 1.00935 0.69231 0.20604 0.0
C57 C 0.01262 0.764 0.18468 0.0
C58 C 0.01818 0.77332 0.09056 0.0
C59 C 1.00707 0.79312 0.15844 0.0
C60 C 1.007 0.78028 0.19881 0.0
C61 C 0.01282 0.78963 0.10437 0.0
C62 C 0.01802 0.76058 0.13046 0.0
C63 C 0.01294 0.74987 0.22379 0.0
O64 O 0.99996 0.74457 0.39022 0.0
O65 O 0.02763 0.74578 0.38777 0.0
O66 O 0.0272 0.74623 0.24933 0.0
O67 O 0.99913 0.74597 0.25162 0.0
H68 H 0.02769 0.78001 0.3731 0.0
H69 H 0.02657 0.80828 0.4142 0.0
H70 H 0.99706 0.78847 0.55109 0.0
H71 H 0.99876 0.76012 0.51044 0.0
H72 H 0.02585 0.64693 0.23577 0.0
H73 H 0.02556 0.66793 0.30982 0.0
H74 H 1.00434 0.68382 0.12293 0.0
H75 H 1.00479 0.70498 0.19733 0.0
H76 H 0.02274 0.77052 0.04911 0.0
H77 H 1.00313 0.8058 0.16965 0.0
H78 H 1.00279 0.78305 0.24066 0.0
H79 H 0.02228 0.74801 0.11904 0.0
C80 C 0.75845 1.01086 0.44411 0.0
C81 C 0.74422 0.01487 0.41143 0.0
C82 C 0.72493 1.00914 0.48979 0.0
C83 C 0.72774 0.01405 0.43393 0.0
C84 C 0.73928 1.00532 0.52242 0.0
C85 C 0.75575 1.00615 0.49986 0.0
U86 U 0.79084 1.01022 0.32237 0.0
O87 O 0.81451 0.02465 0.3086 0.0
O88 O 0.81542 0.997 0.31408 0.0
C89 C 0.82394 1.011 0.3039 0.0
C90 C 0.7761 1.01142 0.42122 0.0
C91 C 0.83651 1.01059 0.25723 0.0
C92 C 0.8661 1.00799 0.22774 0.0
C93 C 0.85371 1.00818 0.26975 0.0
C94 C 0.8444 0.0127 0.1588 0.0
C95 C 0.8618 1.01037 0.17127 0.0
C96 C 0.83195 0.01277 0.20111 0.0
C97 C 0.75979 1.00694 0.18914 0.0
C98 C 0.75354 0.0143 0.09369 0.0
C99 C 0.73234 1.00019 0.15057 0.0
C100 C 0.74364 0.99982 0.19504 0.0
C101 C 0.73715 1.00767 0.09993 0.0
C102 C 0.76482 0.01396 0.13822 0.0
C103 C 0.77095 1.00812 0.23707 0.0
O104 O 0.78173 0.99737 0.39862 0.0
O105 O 0.7804 0.02496 0.39243 0.0
O106 O 0.77623 0.0228 0.25609 0.0
O107 O 0.77635 0.99455 0.26344 0.0
H108 H 0.74584 0.01861 0.3684 0.0
H109 H 0.71718 0.01741 0.40744 0.0
H110 H 0.73782 1.00134 0.56525 0.0
H111 H 0.76644 1.00298 0.52611 0.0
H112 H 0.87909 1.00573 0.24 0.0
H113 H 0.85763 1.00641 0.31252 0.0
H114 H 0.84033 0.01478 0.1164 0.0
H115 H 0.81879 0.01468 0.18999 0.0
H116 H 0.75743 0.02013 0.05489 0.0
H117 H 0.7196 0.99535 0.15648 0.0
H118 H 0.73957 0.99459 0.23456 0.0
H119 H 0.77732 0.01947 0.13334 0.0
C120 C 0.50839 0.76134 0.4308 0.0
C121 C 0.50605 0.74695 0.39744 0.0
C122 C 0.50902 0.72797 0.47863 0.0
C123 C 0.50639 0.73054 0.42095 0.0
C124 C 0.51128 0.74255 0.51169 0.0
C125 C 0.51099 0.7589 0.48811 0.0
U126 U 0.50817 0.79709 0.31463 0.0
O127 O 0.49448 0.82148 0.31525 0.0
O128 O 0.52215 0.82137 0.31505 0.0
C129 C 0.50837 0.83055 0.30967 0.0
C130 C 0.50819 0.779 0.40785 0.0
C131 C 0.50846 0.84343 0.2639 0.0
C132 C 0.51153 0.87299 0.23422 0.0
C133 C 0.51116 0.86061 0.27644 0.0
C134 C 0.50612 0.85137 0.1656 0.0
C135 C 0.50898 0.86859 0.17821 0.0
C136 C 0.506 0.83892 0.20787 0.0
C137 C 0.50733 0.76721 0.18386 0.0
C138 C 0.50059 0.75475 0.09486 0.0
C139 C 0.51297 0.73748 0.16795 0.0
C140 C 0.51338 0.75157 0.20309 0.0
C141 C 0.5066 0.73904 0.11349 0.0
C142 C 0.50094 0.7687 0.12984 0.0
C143 C 0.50788 0.78259 0.21713 0.0
O144 O 0.52203 0.78442 0.38302 0.0
O145 O 0.49432 0.78414 0.38263 0.0
O146 O 0.49399 0.78667 0.244 0.0
O147 O 0.52193 0.78595 0.24432 0.0
H148 H 0.50404 0.74839 0.35315 0.0
H149 H 0.50487 0.71983 0.39342 0.0
H150 H 0.51306 0.74142 0.55614 0.0
H151 H 0.51277 0.76975 0.515 0.0
H152 H 0.5136 0.88611 0.24548 0.0
H153 H 0.51302 0.86448 0.31916 0.0
H154 H 0.50421 0.84751 0.1229 0.0
H155 H 0.50399 0.82577 0.19681 0.0
H156 H 0.49536 0.7562 0.05349 0.0
H157 H 0.51773 0.72545 0.18304 0.0
H158 H 0.51843 0.75029 0.24476 0.0
H159 H 0.49624 0.78075 0.11456 0.0
C160 C 0.25833 0.5025 0.88768 0.0
C161 C 0.24389 0.50016 0.92096 0.0
C162 C 0.22507 0.50381 0.84008 0.0
C163 C 0.22753 0.5008 0.89753 0.0
C164 C 0.23964 0.50571 0.80672 0.0
C165 C 0.25599 0.50512 0.83025 0.0
U166 U 0.29319 0.50111 1.00585 0.0
O167 O 0.31861 0.48924 1.00506 0.0
O168 O 0.31631 0.51677 0.01092 0.0
C169 C 0.32648 0.50364 0.01469 0.0
C170 C 0.27588 0.5027 0.91131 0.0
C171 C 0.339 0.50382 0.06161 0.0
C172 C 0.36808 0.49959 0.09449 0.0
C173 C 0.35585 0.4989 0.05194 0.0
C174 C 0.34695 0.51017 0.158 0.0
C175 C 0.36392 0.50537 0.14818 0.0
C176 C 0.33464 0.50932 0.11545 0.0
C177 C 0.26309 0.49648 0.13671 0.0
C178 C 0.25202 0.49784 0.23028 0.0
C179 C 0.23279 0.49762 0.15152 0.0
C180 C 0.2466 0.49663 0.11514 0.0
C181 C 0.23555 0.49871 0.20915 0.0
C182 C 0.26569 0.49664 0.19422 0.0
C183 C 0.27811 0.49775 0.10187 0.0
O184 O 0.28024 0.51605 0.9406 0.0
O185 O 0.28174 0.4885 0.93275 0.0
O186 O 0.28233 0.4847 0.07107 0.0
O187 O 0.2812 0.51255 0.07877 0.0
H188 H 0.24525 0.49798 0.96518 0.0
H189 H 0.21674 0.4989 0.92465 0.0
H190 H 0.23843 0.50813 0.76257 0.0
H191 H 0.26687 0.50695 0.80345 0.0
H192 H 0.38096 0.49591 0.08489 0.0
H193 H 0.35964 0.49467 0.01101 0.0
H194 H 0.34313 0.51447 0.19882 0.0
H195 H 0.32175 0.51309 0.12453 0.0
H196 H 0.25433 0.49867 0.27459 0.0
H197 H 0.22009 0.49844 0.13469 0.0
H198 H 0.24446 0.4966 0.0707 0.0
H199 H 0.27841 0.49656 0.21125 0.0
C200 C 0.01587 0.2616 0.88651 0.0
C201 C 0.02083 0.24727 0.91709 0.0
C202 C 0.01504 0.22861 0.8374 0.0
C203 C 0.02044 0.23103 0.89288 0.0
C204 C 1.01043 0.24312 0.80662 0.0
C205 C 1.01082 0.25934 0.83089 0.0
U206 U 0.01708 0.29552 0.00686 0.0
O207 O 0.02947 0.32068 0.00832 0.0
O208 O 1.00187 0.31891 0.01224 0.0
C209 C 0.01517 0.32885 0.0164 0.0
C210 C 0.01582 0.279 0.91101 0.0
C211 C 0.01486 0.34156 0.06245 0.0
C212 C 0.01354 0.37127 0.09129 0.0
C213 C 0.01423 0.35892 0.04931 0.0
C214 C 0.01432 0.34924 0.16117 0.0
C215 C 0.01358 0.36663 0.14772 0.0
C216 C 0.01487 0.33682 0.119 0.0
C217 C 0.02001 0.26495 0.13853 0.0
C218 C 0.01792 0.25464 0.2332 0.0
C219 C 0.01832 0.2348 0.15632 0.0
C220 C 0.01985 0.24828 0.11864 0.0
C221 C 0.01703 0.23803 0.21359 0.0
C222 C 0.01936 0.26802 0.19579 0.0
C223 C 0.01931 0.27973 0.1021 0.0
O224 O 1.00233 0.28338 0.93961 0.0
O225 O 0.02996 0.28444 0.93382 0.0
O226 O 0.03272 0.28381 0.07251 0.0
O227 O 1.00478 0.28315 0.07797 0.0
H228 H 0.02494 0.2486 0.95979 0.0
H229 H 0.02448 0.22034 0.91783 0.0
H230 H 1.00612 0.24194 0.76408 0.0
H231 H 1.00699 0.27018 0.80615 0.0
H232 H 0.01308 0.38453 0.07961 0.0
H233 H 0.01422 0.36297 1.00625 0.0
H234 H 0.01438 0.34526 0.20431 0.0
H235 H 0.01528 0.32354 0.13052 0.0
H236 H 0.01676 0.2573 0.2772 0.0
H237 H 0.01765 0.22193 0.14089 0.0
H238 H 0.02033 0.24576 0.07444 0.0
H239 H 0.01935 0.28088 0.21154 0.0
C240 C 0.26534 0.02647 0.89236 0.0
C241 C 0.27871 0.03552 0.91696 0.0
C242 C 0.29847 0.02657 0.84323 0.0
C243 C 0.29499 0.03562 0.89269 0.0
C244 C 0.28488 0.01771 0.81859 0.0
C245 C 0.26863 0.01771 0.84271 0.0
U246 U 0.22987 0.0272 0.00896 0.0
O247 O 0.2047 0.03942 1.00657 0.0
O248 O 0.20648 0.01183 0.01137 0.0
C249 C 0.19648 0.0251 0.01428 0.0
C250 C 0.24773 0.02632 0.91561 0.0
C251 C 0.18356 0.02484 0.05971 0.0
C252 C 0.15398 0.02165 0.08852 0.0
C253 C 0.16642 0.02218 0.04666 0.0
C254 C 0.17553 0.0266 0.15789 0.0
C255 C 0.15828 0.02387 0.1449 0.0
C256 C 0.18801 0.02701 0.1159 0.0
C257 C 0.26042 0.03104 0.13753 0.0
C258 C 0.27308 0.03572 0.22778 0.0
C259 C 0.29016 0.02496 0.15187 0.0
C260 C 0.27607 0.02561 0.11665 0.0
C261 C 0.28864 0.02962 0.20814 0.0
C262 C 0.25911 0.03641 0.19272 0.0
C263 C 0.24475 0.02977 0.10569 0.0
O264 O 0.24298 0.01269 0.94315 0.0
O265 O 0.24192 0.04037 0.93788 0.0
O266 O 0.24016 0.04303 0.0762 0.0
O267 O 0.24156 0.01517 0.08167 0.0
H268 H 0.27659 0.04258 0.95486 0.0
H269 H 0.30482 0.04297 0.91271 0.0
H270 H 0.28679 1.01043 0.7811 0.0
H271 H 0.25856 1.01075 0.8224 0.0
H272 H 0.1409 0.01973 0.07652 0.0
H273 H 0.16261 0.02049 1.00378 0.0
H274 H 0.17944 0.02816 0.20071 0.0
H275 H 0.20114 0.02898 0.12733 0.0
H276 H 0.27162 0.03962 0.27065 0.0
H277 H 0.30201 0.0201 0.13578 0.0
H278 H 0.27723 0.02138 0.07403 0.0
H279 H 0.24706 0.04059 0.20933 0.0
C280 C 0.50761 0.26773 0.88385 0.0
C281 C 0.50258 0.28172 0.91572 0.0
C282 C 0.50778 0.30114 0.83722 0.0
C283 C 0.50263 0.29816 0.89272 0.0
C284 C 0.51253 0.28697 0.80523 0.0
C285 C 0.51245 0.27054 0.82828 0.0
U286 U 0.50742 0.23367 1.00329 0.0
O287 O 0.49483 0.20861 1.00662 0.0
O288 O 0.52248 0.21019 0.00893 0.0
C289 C 0.50911 0.20038 0.01455 0.0
C290 C 0.50789 0.25016 0.90709 0.0
C291 C 0.50948 0.18783 0.06134 0.0
C292 C 0.50681 0.15839 0.09241 0.0
C293 C 0.50616 0.17071 0.05012 0.0
C294 C 0.51415 0.18002 0.15898 0.0
C295 C 0.51083 0.16275 0.14767 0.0
C296 C 0.51344 0.1924 0.11642 0.0
C297 C 0.5055 0.2636 0.13689 0.0
C298 C 0.50867 0.27215 0.23278 0.0
C299 C 0.50503 0.29336 0.16039 0.0
C300 C 0.50405 0.28057 0.12032 0.0
C301 C 0.50764 0.28912 0.21655 0.0
C302 C 0.5075 0.25947 0.19314 0.0
C303 C 0.50601 0.24959 0.09778 0.0
O304 O 0.52162 0.24563 0.93422 0.0
O305 O 0.49395 0.24463 0.93111 0.0
O306 O 0.49233 0.24556 0.06961 0.0
O307 O 0.52038 0.24627 0.0725 0.0
H308 H 0.49865 0.27995 0.95848 0.0
H309 H 0.49849 0.30856 0.9186 0.0
H310 H 0.51669 0.28858 0.76266 0.0
H311 H 0.51633 0.25998 0.8026 0.0
H312 H 0.50442 0.14532 0.08137 0.0
H313 H 0.50316 0.16678 0.00816 0.0
H314 H 0.51711 0.18402 0.20088 0.0
H315 H 0.51602 0.20552 0.12653 0.0
H316 H 0.51073 0.26876 0.27593 0.0
H317 H 0.50435 0.30652 0.14752 0.0
H318 H 0.50257 0.28389 0.07687 0.0
H319 H 0.50864 0.24636 0.20626 0.0
La320 La 0.02325 0.01182 0.70446 0.0
La321 La 0.99982 0.01761 0.61697 0.0
C322 C 0.03779 0.99911 0.7871 0.0
C323 C 0.03687 0.98143 0.8067 0.0
C324 C 0.05124 0.97107 0.8033 0.0
C325 C 0.05005 0.95378 0.81481 0.0
C326 C 0.03447 0.94656 0.8307 0.0
C327 C 0.02012 0.957 0.83463 0.0
C328 C 0.02127 0.97422 0.82243 0.0
C329 C 0.03834 0.01878 0.60822 0.0
C330 C 1.00751 0.97986 0.63913 0.0
C331 C 0.9857 0.03007 0.53301 0.0
C332 C 0.98629 0.0477 0.51289 0.0
C333 C 0.97156 0.05763 0.51408 0.0
C334 C 0.97234 0.07489 0.50147 0.0
C335 C 0.98785 0.08248 0.4872 0.0
C336 C 1.00255 0.07249 0.48538 0.0
C337 C 1.0018 0.0553 0.49825 0.0
C338 C 0.98452 1.01049 0.71291 0.0
C339 C 0.0154 0.04959 0.6831 0.0
O340 O 0.04525 1.00123 0.73913 0.0
O341 O 0.02383 1.00794 0.7907 0.0
O342 O 0.04316 0.02452 0.65609 0.0
O343 O 0.02555 1.00935 0.61562 0.0
O344 O 0.01385 0.9858 0.68625 0.0
O345 O 1.00233 0.99053 0.60038 0.0
O346 O 0.97792 0.02784 0.5804 0.0
O347 O 0.99991 0.02161 0.53077 0.0
O348 O 0.97964 1.00518 0.66453 0.0
O349 O 0.9974 0.01988 0.70609 0.0
O350 O 1.0089 0.04372 0.63608 0.0
O351 O 0.02077 0.03887 0.72143 0.0
H352 H 0.06332 0.97628 0.79024 0.0
H353 H 0.06129 0.94604 0.81054 0.0
H354 H 1.00799 0.95194 0.84762 0.0
H355 H 1.00985 0.98178 0.82452 0.0
H356 H 0.95952 0.05212 0.52611 0.0
H357 H 0.96085 0.08234 0.50374 0.0
H358 H 0.01465 0.07793 0.47367 0.0
H359 H 0.01346 0.04807 0.4976 0.0
La360 La 0.51517 0.02739 0.71134 0.0
La361 La 0.50702 1.00231 0.60955 0.0
C362 C 0.52674 0.03637 0.80295 0.0
C363 C 0.54473 0.03607 0.82005 0.0
C364 C 0.55534 0.05003 0.80911 0.0
C365 C 0.57279 0.04886 0.81767 0.0
C366 C 0.57998 0.03377 0.83779 0.0
C367 C 0.56932 0.01994 0.84973 0.0
C368 C 0.55192 0.02108 0.84105 0.0
C369 C 0.51273 0.04392 0.61383 0.0
C370 C 0.54557 1.01057 0.63802 0.0
C371 C 0.49511 0.99242 0.51934 0.0
C372 C 0.47713 0.99276 0.50209 0.0
C373 C 0.46696 0.97814 0.50676 0.0
C374 C 0.44958 0.97893 0.49568 0.0
C375 C 0.44222 0.99433 0.47954 0.0
C376 C 0.45225 1.00891 0.47544 0.0
C377 C 0.46953 1.00812 0.48621 0.0
C378 C 0.50973 0.98607 0.70761 0.0
C379 C 0.47663 0.01926 0.68242 0.0
O380 O 0.5229 0.04719 0.76346 0.0
O381 O 0.51962 0.02153 0.79508 0.0
O382 O 0.51639 0.05098 0.66099 0.0
O383 O 0.51041 0.02843 0.62509 0.0
O384 O 0.54046 0.01874 0.68358 0.0
O385 O 0.53477 1.0039 0.60127 0.0
O386 O 0.49868 0.98205 0.56031 0.0
O387 O 0.50261 1.00718 0.52509 0.0
O388 O 0.50611 0.97878 0.66087 0.0
O389 O 0.51177 1.00147 0.69546 0.0
O390 O 0.48177 1.01107 0.637 0.0
O391 O 0.48741 0.02597 0.7191 0.0
H392 H 0.55024 0.06173 0.79249 0.0
H393 H 0.58067 0.0597 0.80769 0.0
H394 H 0.57439 1.00824 0.86644 0.0
H395 H 0.54415 1.01008 0.84989 0.0
H396 H 0.47243 0.96614 0.51927 0.0
H397 H 0.44199 0.9675 0.49834 0.0
H398 H 0.44673 0.02091 0.46297 0.0
H399 H 0.47686 0.0196 0.482 0.0
La400 La 0.499 0.51873 0.70944 0.0
La401 La 0.52436 0.51072 0.60927 0.0
C402 C 0.48792 0.53027 0.79861 0.0
C403 C 0.48794 0.54828 0.81458 0.0
C404 C 0.47293 0.55601 0.83248 0.0
C405 C 0.47246 0.57348 0.84189 0.0
C406 C 0.48702 0.58345 0.83342 0.0
C407 C 0.50192 0.57576 0.81442 0.0
C408 C 0.50234 0.55839 0.80479 0.0
C409 C 0.48352 0.51473 0.61077 0.0
C410 C 0.51479 0.54904 0.63404 0.0
C411 C 0.53558 0.4997 0.51895 0.0
C412 C 0.53458 0.48233 0.49771 0.0
C413 C 0.54822 0.47518 0.4689 0.0
C414 C 0.54792 0.45801 0.45447 0.0
C415 C 0.53407 0.44768 0.4697 0.0
C416 C 0.52068 0.45496 0.49975 0.0
C417 C 0.52085 0.47208 0.51295 0.0
C418 C 0.54079 0.51548 0.70655 0.0
C419 C 0.50833 0.48032 0.68545 0.0
O420 O 0.47807 0.5267 0.75647 0.0
O421 O 0.50279 0.52292 0.79468 0.0
O422 O 0.4763 0.52039 0.65536 0.0
O423 O 0.49796 0.50954 0.62638 0.0
O424 O 0.50725 0.54408 0.68081 0.0
O425 O 0.52131 0.53821 0.59753 0.0
O426 O 0.54488 0.50119 0.56363 0.0
O427 O 0.52116 0.50791 0.52314 0.0
O428 O 0.54792 0.51143 0.65991 0.0
O429 O 0.5253 0.51728 0.69437 0.0
O430 O 0.51623 0.48533 0.639 0.0
O431 O 0.50154 0.4912 0.72149 0.0
H432 H 0.46151 0.54859 0.83834 0.0
H433 H 0.46074 0.57919 0.8558 0.0
H434 H 0.51337 0.58309 0.80797 0.0
H435 H 0.5139 0.55298 0.78878 0.0
H436 H 0.55916 0.48282 0.45805 0.0
H437 H 0.55842 0.45298 0.43085 0.0
H438 H 0.51003 0.44746 0.51391 0.0
H439 H 0.51039 0.47719 0.53645 0.0
La440 La 1.00753 0.50234 0.70346 0.0
La441 La 0.01547 0.52602 0.61858 0.0
C442 C 0.99349 0.48691 0.78233 0.0
C443 C 0.97613 0.48883 0.80304 0.0
C444 C 0.96604 0.47447 0.81253 0.0
C445 C 0.9491 0.4763 0.82825 0.0
C446 C 0.94215 0.49253 0.8348 0.0
C447 C 0.95216 0.50687 0.82403 0.0
C448 C 0.96899 0.50505 0.80822 0.0
C449 C 0.01459 0.48778 0.60635 0.0
C450 C 0.97717 0.52049 0.63747 0.0
C451 C 0.02976 0.54001 0.53708 0.0
C452 C 0.04744 0.53846 0.51854 0.0
C453 C 0.05642 0.5528 0.50064 0.0
C454 C 0.07345 0.55142 0.4851 0.0
C455 C 0.08175 0.53566 0.48774 0.0
C456 C 0.07282 0.52147 0.50761 0.0
C457 C 0.05582 0.52281 0.52231 0.0
C458 C 1.00829 0.54127 0.71429 0.0
C459 C 0.04566 0.50849 0.68862 0.0
O460 O 0.99464 0.48071 0.73231 0.0
O461 O 1.0035 0.49995 0.78928 0.0
O462 O 0.01996 0.48245 0.65417 0.0
O463 O 1.00568 0.50083 0.61426 0.0
O464 O 0.98248 0.51393 0.68513 0.0
O465 O 0.98836 0.52494 0.59924 0.0
O466 O 0.0277 0.54743 0.58496 0.0
O467 O 0.02051 0.52631 0.53296 0.0
O468 O 1.00388 0.54667 0.66543 0.0
O469 O 0.01688 0.52783 0.70817 0.0
O470 O 0.04068 0.51525 0.64087 0.0
O471 O 0.03427 0.50365 0.72543 0.0
H472 H 0.97125 0.46187 0.80744 0.0
H473 H 0.94156 0.46508 0.83635 0.0
H474 H 0.94694 0.51951 0.82777 0.0
H475 H 0.97634 0.51637 0.79957 0.0
H476 H 0.05025 0.56504 0.49837 0.0
H477 H 0.07994 0.56257 0.46961 0.0
H478 H 0.07892 0.50923 0.51139 0.0
H479 H 0.04927 0.51155 0.53666 0.0
H480 H 0.15494 0.04444 0.23665 0.0
H481 H 0.13334 0.04349 0.30941 0.0
H482 H 0.1094 1.0011 0.22847 0.0
H483 H 0.13077 1.00232 0.15456 0.0
H484 H 0.08533 0.02093 0.27116 0.0
H485 H 0.1358 0.99562 0.34583 0.0
H486 H 0.16665 0.99557 0.36215 0.0
H487 H 0.16225 0.04096 0.45904 0.0
H488 H 0.13137 0.04135 0.44282 0.0
H489 H 0.03604 0.99916 0.51347 0.0
H490 H 0.05534 0.9988 0.43343 0.0
H491 H 0.08477 0.03891 0.50752 0.0
H492 H 0.06597 0.03872 0.58827 0.0
H493 H 0.10578 0.01833 0.46591 0.0
H494 H 0.05476 0.04342 0.39106 0.0
H495 H 0.02415 0.04387 0.37042 0.0
H496 H 0.02939 0.99896 0.27158 0.0
H497 H 0.05999 0.99809 0.29245 0.0
C498 C 0.14515 0.03485 0.23428 0.0
C499 C 0.14484 0.02335 0.18962 0.0
C500 C 0.1327 0.03431 0.27614 0.0
C501 C 0.11975 0.02197 0.27571 0.0
C502 C 0.11916 1.01075 0.23039 0.0
C503 C 0.13148 1.01144 0.188 0.0
C504 C 0.10742 0.02038 0.32364 0.0
C505 C 0.08983 0.02016 0.31368 0.0
C506 C 0.11303 0.01946 0.37958 0.0
C507 C 0.13131 0.01853 0.39307 0.0
C508 C 0.14141 1.00553 0.37088 0.0
C509 C 0.1589 1.00548 0.37995 0.0
C510 C 0.16641 0.01827 0.41157 0.0
C511 C 0.15641 0.03105 0.43463 0.0
C512 C 0.13891 0.03117 0.42566 0.0
C513 C 0.04658 1.00796 0.5125 0.0
C514 C 0.04936 0.01904 0.5574 0.0
C515 C 0.05764 1.00782 0.46638 0.0
C516 C 0.07158 0.01904 0.46317 0.0
C517 C 0.07425 0.03009 0.5082 0.0
C518 C 0.06337 0.03005 0.55451 0.0
C519 C 0.08356 0.01928 0.41388 0.0
C520 C 0.10117 0.0191 0.42353 0.0
C521 C 0.0779 0.01979 0.35773 0.0
C522 C 0.05963 0.02061 0.3437 0.0
C523 C 0.04937 0.03362 0.36506 0.0
C524 C 0.03202 0.03394 0.35337 0.0
C525 C 0.02483 0.02143 0.31978 0.0
C526 C 0.03498 1.00863 0.29763 0.0
C527 C 0.05233 1.00822 0.30936 0.0
H528 H 1.01139 0.02168 0.31085 0.0
H529 H 0.17997 0.01827 0.41823 0.0
H530 H 0.53304 0.15964 0.2366 0.0
H531 H 0.53387 0.13751 0.30838 0.0
H532 H 0.49101 0.11286 0.23257 0.0
H533 H 0.4899 0.13502 0.16156 0.0
H534 H 0.48633 0.11373 0.34033 0.0
H535 H 0.5315 0.09462 0.22582 0.0
H536 H 0.55816 0.09549 0.17237 0.0
H537 H 0.58551 0.10935 0.31967 0.0
H538 H 0.55898 0.10862 0.37396 0.0
H539 H 0.49185 0.04056 0.52184 0.0
H540 H 0.49136 0.0585 0.43747 0.0
H541 H 0.53355 0.08722 0.50129 0.0
H542 H 0.53405 0.06925 0.5842 0.0
H543 H 0.53819 0.08228 0.39332 0.0
H544 H 0.49164 0.1024 0.50587 0.0
H545 H 0.46439 0.1016 0.55606 0.0
H546 H 0.43911 0.08514 0.40766 0.0
H547 H 0.46625 0.08574 0.35673 0.0
C548 C 0.52372 0.14957 0.2352 0.0
C549 C 0.51141 0.14928 0.19263 0.0
C550 C 0.52434 0.13673 0.27613 0.0
C551 C 0.51262 0.12321 0.2761 0.0
C552 C 0.50028 0.12298 0.23391 0.0
C553 C 0.49973 0.13571 0.19284 0.0
C554 C 0.51266 0.10983 0.32128 0.0
C555 C 0.49765 0.10666 0.35111 0.0
C556 C 0.52737 0.1006 0.33657 0.0
C557 C 0.54323 0.10176 0.30378 0.0
C558 C 0.54317 0.09805 0.24666 0.0
C559 C 0.55827 0.09844 0.21627 0.0
C560 C 0.57351 0.10252 0.24257 0.0
C561 C 0.57369 0.10621 0.29933 0.0
C562 C 0.55863 0.10578 0.32995 0.0
C563 C 0.5013 0.05033 0.51672 0.0
C564 C 0.51324 0.05311 0.5591 0.0
C565 C 0.50085 0.06086 0.46898 0.0
C566 C 0.51238 0.07446 0.46247 0.0
C567 C 0.52452 0.07691 0.5045 0.0
C568 C 0.52481 0.06655 0.55212 0.0
C569 C 0.5119 0.08635 0.41295 0.0
C570 C 0.52685 0.08925 0.38225 0.0
C571 C 0.49708 0.09523 0.39648 0.0
C572 C 0.481 0.09386 0.42781 0.0
C573 C 0.48031 0.09836 0.48421 0.0
C574 C 0.46487 0.09803 0.5127 0.0
C575 C 0.45004 0.09326 0.48513 0.0
C576 C 0.45062 0.08878 0.42902 0.0
C577 C 0.46602 0.08912 0.40034 0.0
H578 H 0.43809 0.09309 0.50719 0.0
H579 H 0.58519 0.10278 0.21901 0.0
H580 H 0.38865 0.48207 0.17484 0.0
H581 H 0.4104 0.48371 0.24731 0.0
H582 H 0.39161 0.53266 0.29631 0.0
H583 H 0.36973 0.53105 0.22384 0.0
H584 H 0.42746 0.53165 0.29423 0.0
H585 H 0.38191 0.4992 0.37193 0.0
H586 H 0.3608 0.47616 0.36986 0.0
H587 H 0.40071 0.43927 0.36508 0.0
H588 H 0.42208 0.46214 0.36599 0.0
H589 H 0.46231 0.53804 0.56742 0.0
H590 H 0.44407 0.53616 0.48554 0.0
H591 H 0.46463 0.48693 0.44863 0.0
H592 H 0.48316 0.48893 0.53112 0.0
H593 H 0.42904 0.48733 0.44094 0.0
H594 H 0.47474 0.51979 0.36851 0.0
H595 H 0.49583 0.54283 0.36648 0.0
H596 H 0.45594 0.57969 0.35847 0.0
H597 H 0.43456 0.55686 0.36167 0.0
C598 C 0.38915 0.49325 0.20077 0.0
C599 C 0.37726 0.50639 0.19323 0.0
C600 C 0.40164 0.49416 0.24253 0.0
C601 C 0.40278 0.50829 0.27797 0.0
C602 C 0.39114 0.52159 0.26985 0.0
C603 C 0.37847 0.52058 0.22856 0.0
C604 C 0.41565 0.50886 0.32461 0.0
C605 C 0.42765 0.52206 0.32661 0.0
C606 C 0.41636 0.49617 0.36655 0.0
C607 C 0.40359 0.48238 0.36859 0.0
C608 C 0.38619 0.48617 0.37024 0.0
C609 C 0.37417 0.47315 0.3692 0.0
C610 C 0.37941 0.45626 0.36721 0.0
C611 C 0.39668 0.45237 0.36656 0.0
C612 C 0.40875 0.46535 0.36736 0.0
C613 C 0.4633 0.52696 0.54117 0.0
C614 C 0.47469 0.51389 0.55529 0.0
C615 C 0.45274 0.52585 0.49423 0.0
C616 C 0.45287 0.51144 0.45996 0.0
C617 C 0.46424 0.49827 0.47381 0.0
C618 C 0.47511 0.49953 0.5206 0.0
C619 C 0.44086 0.5102 0.41088 0.0
C620 C 0.42895 0.4969 0.40849 0.0
C621 C 0.44025 0.52281 0.36852 0.0
C622 C 0.45304 0.5366 0.36599 0.0
C623 C 0.47045 0.53281 0.36685 0.0
C624 C 0.48246 0.54583 0.36544 0.0
C625 C 0.47723 0.56272 0.36253 0.0
C626 C 0.45997 0.5666 0.36085 0.0
C627 C 0.44789 0.55362 0.36247 0.0
H628 H 0.48655 0.57279 0.36144 0.0
H629 H 0.37009 0.44619 0.36627 0.0
H630 H 0.03992 0.37863 0.21008 0.0
H631 H 0.03951 0.40084 0.28121 0.0
H632 H 0.98575 0.40708 0.25699 0.0
H633 H 0.98637 0.38526 0.18397 0.0
H634 H 1.0003 0.43785 0.27613 0.0
H635 H 1.0018 0.3835 0.3683 0.0
H636 H 0.01384 0.35487 0.37964 0.0
H637 H 0.06208 0.37648 0.42221 0.0
H638 H 0.05035 0.40525 0.41042 0.0
H639 H 0.98872 0.48399 0.53053 0.0
H640 H 0.98716 0.46423 0.45237 0.0
H641 H 0.03821 0.44772 0.48714 0.0
H642 H 0.03905 0.46638 0.56816 0.0
H643 H 0.02349 0.42196 0.46057 0.0
H644 H 0.02242 0.47663 0.36896 0.0
H645 H 1.01112 0.5053 0.35161 0.0
H646 H 0.9632 0.48401 0.30399 0.0
H647 H 0.97413 0.45522 0.32186 0.0
C648 C 0.02803 0.38474 0.21999 0.0
C649 C 0.01315 0.37999 0.19199 0.0
C650 C 0.02776 0.39749 0.26078 0.0
C651 C 0.01252 0.40561 0.27587 0.0
C652 C 0.99769 0.40112 0.24673 0.0
C653 C 0.99802 0.38852 0.20525 0.0
C654 C 0.01199 0.41796 0.32391 0.0
C655 C 1.00524 0.43433 0.31661 0.0
C656 C 0.01855 0.41368 0.37697 0.0
C657 C 0.02522 0.39649 0.38845 0.0
C658 C 0.01495 0.38212 0.38039 0.0
C659 C 0.02173 0.36588 0.38668 0.0
C660 C 0.03872 0.36385 0.40161 0.0
C661 C 0.04892 0.37807 0.41073 0.0
C662 C 0.04221 0.39435 0.40439 0.0
C663 C 0.99964 0.4762 0.52118 0.0
C664 C 0.01407 0.47687 0.55549 0.0
C665 C 0.99883 0.46492 0.47586 0.0
C666 C 0.01272 0.45448 0.46182 0.0
C667 C 0.02721 0.45542 0.49613 0.0
C668 C 0.02777 0.46624 0.54252 0.0
C669 C 0.0122 0.44226 0.41304 0.0
C670 C 0.01863 0.42573 0.42024 0.0
C671 C 1.00544 0.44653 0.35984 0.0
C672 C 0.99906 0.46378 0.3472 0.0
C673 C 1.00947 0.47807 0.35488 0.0
C674 C 1.00312 0.49434 0.34503 0.0
C675 C 0.98644 0.49648 0.32684 0.0
C676 C 0.97611 0.48234 0.31816 0.0
C677 C 0.98238 0.46604 0.3281 0.0
H678 H 0.98154 0.50908 0.31938 0.0
H679 H 0.04398 0.35127 0.40612 0.0
H680 H 0.89573 0.0199 0.17882 0.0
H681 H 0.91768 0.01888 0.10816 0.0
H682 H 0.88112 1.00131 0.98838 0.0
H683 H 0.85935 1.00079 0.06022 0.0
H684 H 0.90803 0.98536 0.96938 0.0
H685 H 0.89935 0.04553 1.00468 0.0
H686 H 0.89897 0.0711 0.06339 0.0
H687 H 0.9515 0.06382 0.1031 0.0
H688 H 0.95212 0.03805 0.04542 0.0
H689 H 0.9513 1.00098 0.71848 0.0
H690 H 0.9322 1.0013 0.79796 0.0
H691 H 0.97274 0.0195 0.90219 0.0
H692 H 0.99173 0.02019 0.82104 0.0
H693 H 0.94617 0.03424 0.93527 0.0
H694 H 0.95625 0.97586 0.89967 0.0
H695 H 0.95797 0.94962 0.84459 0.0
H696 H 0.90462 0.95232 0.81086 0.0
H697 H 0.90263 0.97875 0.86481 0.0
C698 C 0.89223 0.01552 0.13785 0.0
C699 C 0.8754 1.01042 0.12631 0.0
C700 C 0.90493 0.01527 0.09665 0.0
C701 C 0.90126 1.01044 0.04162 0.0
C702 C 0.88452 1.00526 0.02998 0.0
C703 C 0.87188 1.00519 0.07142 0.0
C704 C 0.91469 1.01046 0.99635 0.0
C705 C 0.91614 0.99621 0.96161 0.0
C706 C 0.92611 0.02417 0.98699 0.0
C707 C 0.92573 0.03977 0.02117 0.0
C708 C 0.91079 0.04933 0.02619 0.0
C709 C 0.91053 0.06386 0.05931 0.0
C710 C 0.92519 0.06906 0.08707 0.0
C711 C 0.94015 0.05976 0.08167 0.0
C712 C 0.94046 0.04519 0.0488 0.0
C713 C 0.95624 1.00502 0.7583 0.0
C714 C 0.97319 1.0104 0.76314 0.0
C715 C 0.94525 1.00507 0.80426 0.0
C716 C 0.95091 1.00993 0.85743 0.0
C717 C 0.96787 0.01552 0.86223 0.0
C718 C 0.97882 0.01583 0.81571 0.0
C719 C 0.93906 1.00936 0.90715 0.0
C720 C 0.93802 0.02341 0.94295 0.0
C721 C 0.92817 0.99536 0.91809 0.0
C722 C 0.92932 0.97937 0.88597 0.0
C723 C 0.94491 0.97092 0.88022 0.0
C724 C 0.94593 0.95601 0.84918 0.0
C725 C 0.93142 0.94932 0.82417 0.0
C726 C 0.91585 0.95752 0.83021 0.0
C727 C 0.91477 0.97246 0.86102 0.0
H728 H 0.93224 0.93778 0.80018 0.0
H729 H 0.92496 0.08031 0.11266 0.0
H730 H 0.5341 0.89161 0.15378 0.0
H731 H 0.5348 0.91289 0.07934 0.0
H732 H 0.48447 0.89787 0.02927 0.0
H733 H 0.48436 0.87588 0.10128 0.0
H734 H 0.50029 0.90177 0.94297 0.0
H735 H 0.49814 0.93889 0.10293 0.0
H736 H 0.50763 0.95163 0.19115 0.0
H737 H 0.55533 0.9648 0.11666 0.0
H738 H 0.54619 0.952 0.02821 0.0
H739 H 0.48443 0.96635 0.74757 0.0
H740 H 0.48421 0.94842 0.83036 0.0
H741 H 0.5343 0.9662 0.8726 0.0
H742 H 0.53389 0.98515 0.79104 0.0
H743 H 0.52005 0.96102 0.96319 0.0
H744 H 0.52285 0.92333 0.80548 0.0
H745 H 0.5144 0.9093 0.71821 0.0
H746 H 0.46621 0.89632 0.78966 0.0
H747 H 0.47434 0.91036 0.87713 0.0
C748 C 0.52319 0.8929 0.12684 0.0
C749 C 0.50921 0.88195 0.13343 0.0
C750 C 0.52349 0.90528 0.08442 0.0
C751 C 0.50957 0.90749 0.04831 0.0
C752 C 0.49549 0.89662 0.05576 0.0
C753 C 0.49539 0.88397 0.09716 0.0
C754 C 0.50989 0.92017 1.0007 0.0
C755 C 0.50431 0.91482 0.9481 0.0
C756 C 0.51586 0.93714 1.00544 0.0
C757 C 0.52153 0.94433 0.05915 0.0
C758 C 0.51071 0.94435 0.10556 0.0
C759 C 0.51602 0.95162 0.15555 0.0
C760 C 0.53209 0.95898 0.15955 0.0
C761 C 0.5429 0.95907 0.11356 0.0
C762 C 0.53766 0.95182 0.0635 0.0
C763 C 0.49527 0.9667 0.77517 0.0
C764 C 0.50907 0.97738 0.76298 0.0
C765 C 0.4953 0.95611 0.82227 0.0
C766 C 0.50951 0.95519 0.85766 0.0
C767 C 0.52315 0.96636 0.84642 0.0
C768 C 0.5229 0.97736 0.79984 0.0
C769 C 0.51005 0.94267 0.90583 0.0
C770 C 0.5159 0.948 0.9583 0.0
C771 C 0.50437 0.9256 0.90115 0.0
C772 C 0.49914 0.91806 0.84753 0.0
C773 C 0.51038 0.91767 0.80227 0.0
C774 C 0.50567 0.90966 0.75288 0.0
C775 C 0.48976 0.90197 0.74834 0.0
C776 C 0.47851 0.90231 0.79315 0.0
C777 C 0.48317 0.91028 0.84262 0.0
H778 H 0.48617 0.8957 0.71016 0.0
H779 H 0.53615 0.96465 0.19823 0.0
H780 H 0.63002 0.53963 0.16699 0.0
H781 H 0.60842 0.53945 0.09401 0.0
H782 H 0.63437 0.49825 0.01326 0.0
H783 H 0.65623 0.49881 0.08503 0.0
H784 H 0.62634 0.51838 0.93889 0.0
H785 H 0.59271 0.49694 0.09272 0.0
H786 H 0.57844 0.49724 0.18397 0.0
H787 H 0.55191 0.54266 0.13826 0.0
H788 H 0.56619 0.54277 0.04709 0.0
H789 H 0.56721 0.49548 0.73503 0.0
H790 H 0.5851 0.49637 0.81733 0.0
H791 H 0.55443 0.53664 0.88412 0.0
H792 H 0.53584 0.53498 0.80212 0.0
H793 H 0.56419 0.5196 0.9669 0.0
H794 H 0.59751 0.54179 0.81635 0.0
H795 H 0.61232 0.54313 0.72608 0.0
H796 H 0.63994 0.49794 0.76708 0.0
H797 H 0.62518 0.49624 0.85727 0.0
C798 C 0.63109 0.53042 0.13391 0.0
C799 C 0.64507 0.51926 0.1323 0.0
C800 C 0.61855 0.53024 0.09205 0.0
C801 C 0.61934 0.51866 0.04759 0.0
C802 C 0.63324 0.50742 0.04644 0.0
C803 C 0.64588 0.50777 0.08772 0.0
C804 C 0.60657 0.5188 1.00029 0.0
C805 C 0.61275 0.5183 0.94551 0.0
C806 C 0.58867 0.51966 0.00753 0.0
C807 C 0.58069 0.51997 0.06331 0.0
C808 C 0.584 0.50711 0.1024 0.0
C809 C 0.57587 0.50718 0.15406 0.0
C810 C 0.56431 0.51999 0.16696 0.0
C811 C 0.56089 0.53277 0.12829 0.0
C812 C 0.56901 0.53278 0.07665 0.0
C813 C 0.56408 0.50441 0.76752 0.0
C814 C 0.54992 0.51514 0.76156 0.0
C815 C 0.57458 0.50511 0.81463 0.0
C816 C 0.57178 0.51704 0.85707 0.0
C817 C 0.55721 0.52738 0.85231 0.0
C818 C 0.54641 0.52639 0.80532 0.0
C819 C 0.58404 0.51855 0.90567 0.0
C820 C 0.57779 0.51955 0.96047 0.0
C821 C 0.60195 0.51829 0.89871 0.0
C822 C 0.6101 0.5188 0.84324 0.0
C823 C 0.60658 0.53202 0.80577 0.0
C824 C 0.61501 0.53288 0.75472 0.0
C825 C 0.62703 0.52061 0.7408 0.0
C826 C 0.63061 0.50742 0.77783 0.0
C827 C 0.62222 0.50651 0.8289 0.0
H828 H 0.6336 0.52134 0.70138 0.0
H829 H 0.55798 0.51997 0.20686 0.0
H830 H 1.01044 0.62845 0.18249 0.0
H831 H 1.01007 0.60695 0.10982 0.0
H832 H 0.01727 0.6457 0.9856 0.0
H833 H 0.01828 0.6673 0.05801 0.0
H834 H 0.99219 0.62402 0.95603 0.0
H835 H 0.04904 0.6179 0.02863 0.0
H836 H 0.07079 0.61192 0.09954 0.0
H837 H 0.04993 0.56223 0.12522 0.0
H838 H 0.02783 0.56803 0.05534 0.0
H839 H 1.00644 0.57579 0.71562 0.0
H840 H 1.00819 0.59498 0.79434 0.0
H841 H 0.0129 0.55226 0.90568 0.0
H842 H 0.01248 0.53299 0.82549 0.0
H843 H 0.03074 0.57458 0.94755 0.0
H844 H 0.97412 0.57894 0.88234 0.0
H845 H 0.95057 0.5834 0.81661 0.0
H846 H 0.96782 0.63417 0.78525 0.0
H847 H 0.99167 0.62992 0.84996 0.0
C848 C 0.01229 0.63254 0.13995 0.0
C849 C 0.0145 0.64992 0.12713 0.0
C850 C 0.012 0.62008 0.09807 0.0
C851 C 0.01381 0.6245 0.04167 0.0
C852 C 0.01584 0.6418 0.02856 0.0
C853 C 0.01629 0.65426 0.07041 0.0
C854 C 0.01293 0.61135 0.99612 0.0
C855 C 1.0008 0.61334 0.95387 0.0
C856 C 0.02353 0.5968 0.99423 0.0
C857 C 0.03662 0.5935 0.03719 0.0
C858 C 0.04894 0.60578 0.04991 0.0
C859 C 0.06136 0.60241 0.08985 0.0
C860 C 0.06171 0.58673 0.117 0.0
C861 C 0.04962 0.57439 0.10429 0.0
C862 C 0.03713 0.57772 0.06456 0.0
C863 C 1.00782 0.57041 0.75684 0.0
C864 C 1.00911 0.55274 0.76397 0.0
C865 C 1.00865 0.58149 0.80239 0.0
C866 C 1.01008 0.57533 0.85727 0.0
C867 C 0.01164 0.5576 0.86438 0.0
C868 C 1.01131 0.54649 0.81837 0.0
C869 C 1.01015 0.58741 0.90642 0.0
C870 C 0.02206 0.5852 0.94955 0.0
C871 C 0.99901 0.60154 0.91015 0.0
C872 C 0.98478 0.60405 0.87066 0.0
C873 C 0.97298 0.591 0.86107 0.0
C874 C 0.95957 0.5935 0.82401 0.0
C875 C 0.95772 0.60904 0.79669 0.0
C876 C 0.96928 0.62212 0.80636 0.0
C877 C 0.98275 0.61968 0.84321 0.0
H878 H 0.94731 0.61096 0.7681 0.0
H879 H 0.07137 0.58412 0.14776 0.0
H880 H 0.03775 0.22433 0.29185 0.0
H881 H 0.0311 0.20056 0.35454 0.0
H882 H 0.98053 0.19808 0.28648 0.0
H883 H 0.98721 0.2218 0.22416 0.0
H884 H 0.98026 0.19101 0.39595 0.0
H885 H 1.01002 0.17453 0.23383 0.0
H886 H 0.03297 0.17537 0.16447 0.0
H887 H 0.06879 0.15993 0.28894 0.0
H888 H 0.0461 0.15946 0.35954 0.0
H889 H 0.96569 0.10048 0.4231 0.0
H890 H 0.96886 0.12968 0.39025 0.0
H891 H 0.01531 0.13446 0.48331 0.0
H892 H 0.01209 0.10541 0.51733 0.0
H893 H 0.01743 0.14121 0.36659 0.0
H894 H 0.98044 0.15125 0.52198 0.0
H895 H 0.95445 0.15017 0.57779 0.0
H896 H 0.92697 0.17497 0.44696 0.0
H897 H 0.95274 0.1759 0.38951 0.0
C898 C 0.02523 0.21869 0.29085 0.0
C899 C 0.01308 0.22433 0.25263 0.0
C900 C 0.0214 0.20529 0.32669 0.0
C901 C 1.00539 0.19749 0.32444 0.0
C902 C 0.99294 0.20392 0.28862 0.0
C903 C 0.99681 0.21722 0.25264 0.0
C904 C 1.00229 0.1814 0.35399 0.0
C905 C 0.98826 0.18003 0.38956 0.0
C906 C 0.01273 0.16716 0.34467 0.0
C907 C 0.0264 0.16722 0.30222 0.0
C908 C 0.02282 0.17149 0.2466 0.0
C909 C 0.03578 0.1719 0.20704 0.0
C910 C 0.05234 0.16777 0.22234 0.0
C911 C 0.05596 0.16319 0.27722 0.0
C912 C 0.04306 0.16288 0.31706 0.0
C913 C 0.97636 0.10788 0.43765 0.0
C914 C 0.98873 0.10064 0.47235 0.0
C915 C 0.97816 0.1245 0.41872 0.0
C916 C 0.99231 0.13407 0.43443 0.0
C917 C 1.00434 0.12714 0.47073 0.0
C918 C 1.00252 0.11057 0.48985 0.0
C919 C 0.99544 0.15076 0.40925 0.0
C920 C 1.00947 0.15219 0.3738 0.0
C921 C 0.9844 0.1647 0.41662 0.0
C922 C 0.96871 0.16364 0.45106 0.0
C923 C 0.96888 0.15629 0.50447 0.0
C924 C 0.95413 0.15572 0.5366 0.0
C925 C 0.93906 0.1625 0.51597 0.0
C926 C 0.93867 0.16976 0.463 0.0
C927 C 0.95338 0.17032 0.43064 0.0
H928 H 0.92767 0.16212 0.54104 0.0
H929 H 0.06236 0.16807 0.19163 0.0
H930 H 0.28719 0.016 0.31236 0.0
H931 H 0.31093 1.00956 0.37426 0.0
H932 H 0.34571 0.03039 0.25379 0.0
H933 H 0.32203 0.03726 0.19206 0.0
H934 H 0.34974 0.9947 0.28763 0.0
H935 H 0.34179 0.05121 0.36101 0.0
H936 H 0.32593 0.07412 0.4069 0.0
H937 H 0.31945 0.04295 0.552 0.0
H938 H 0.33502 0.01971 0.50653 0.0
H939 H 0.43154 1.00328 0.37806 0.0
H940 H 0.4025 1.00669 0.34611 0.0
H941 H 0.38396 0.99072 0.50689 0.0
H942 H 0.41351 0.98762 0.53947 0.0
H943 H 0.36783 0.01926 0.46768 0.0
H944 H 0.3792 0.96403 0.39757 0.0
H945 H 0.39519 0.94137 0.35069 0.0
H946 H 0.39516 0.97016 0.19894 0.0
H947 H 0.37935 0.99307 0.24501 0.0
C948 C 0.29986 0.01963 0.29969 0.0
C949 C 0.30282 0.02708 0.24729 0.0
C950 C 0.31335 0.01595 0.33511 0.0
C951 C 0.32992 0.01961 0.31843 0.0
C952 C 0.3329 0.02756 0.26711 0.0
C953 C 0.31943 0.03133 0.23181 0.0
C954 C 0.34435 0.01318 0.35062 0.0
C955 C 0.35377 1.00007 0.32694 0.0
C956 C 0.34894 0.01974 0.40306 0.0
C957 C 0.33932 0.0336 0.42995 0.0
C958 C 0.33676 0.04913 0.40234 0.0
C959 C 0.32788 0.06221 0.42838 0.0
C960 C 0.32161 0.05996 0.48223 0.0
C961 C 0.32425 0.04465 0.51021 0.0
C962 C 0.3331 0.03152 0.48431 0.0
C963 C 0.42125 1.00038 0.40638 0.0
C964 C 0.42455 0.99509 0.46088 0.0
C965 C 0.4047 1.00221 0.3881 0.0
C966 C 0.39112 0.99862 0.42382 0.0
C967 C 0.39433 0.99333 0.47862 0.0
C968 C 0.41106 0.99146 0.49701 0.0
C969 C 0.37373 1.00128 0.40324 0.0
C970 C 0.36361 0.01357 0.4291 0.0
C971 C 0.3684 0.99397 0.35259 0.0
C972 C 0.3781 0.98028 0.32485 0.0
C973 C 0.3827 0.96558 0.35431 0.0
C974 C 0.39171 0.95268 0.32784 0.0
C975 C 0.39619 0.95432 0.27188 0.0
C976 C 0.39167 0.96888 0.24226 0.0
C977 C 0.38265 0.98181 0.2685 0.0
H978 H 0.40315 0.94431 0.25146 0.0
H979 H 0.31477 0.07012 0.50235 0.0
H980 H 0.5375 0.29691 0.26433 0.0
H981 H 0.54364 0.32143 0.32329 0.0
H982 H 0.49059 0.33482 0.32151 0.0
H983 H 0.48464 0.31068 0.26057 0.0
H984 H 0.50988 0.35928 0.28183 0.0
H985 H 0.51153 0.3229 0.4438 0.0
H986 H 0.52122 0.29817 0.49806 0.0
H987 H 0.57255 0.31603 0.48808 0.0
H988 H 0.56318 0.3408 0.43335 0.0
H989 H 0.50554 0.42924 0.44576 0.0
H990 H 0.50359 0.40006 0.41742 0.0
H991 H 0.55804 0.39583 0.4192 0.0
H992 H 0.56024 0.42485 0.4541 0.0
H993 H 0.54143 0.36645 0.45859 0.0
H994 H 0.53948 0.40309 0.29886 0.0
H995 H 0.52973 0.42761 0.24369 0.0
H996 H 0.4788 0.40842 0.24765 0.0
H997 H 0.48821 0.38391 0.30346 0.0
C998 C 0.52719 0.30501 0.27753 0.0
C999 C 0.5107 0.30235 0.25765 0.0
C1000 C 0.53064 0.31882 0.31159 0.0
C1001 C 0.51755 0.32987 0.32672 0.0
C1002 C 0.50084 0.32641 0.31003 0.0
C1003 C 0.49745 0.31278 0.27517 0.0
C1004 C 0.52157 0.34647 0.35115 0.0
C1005 C 0.51652 0.3608 0.32101 0.0
C1006 C 0.53105 0.34839 0.40063 0.0
C1007 C 0.53667 0.33362 0.43407 0.0
C1008 C 0.5249 0.32149 0.45288 0.0
C1009 C 0.53033 0.30749 0.48381 0.0
C1010 C 0.5475 0.30551 0.49638 0.0
C1011 C 0.55926 0.31757 0.47828 0.0
C1012 C 0.55389 0.33162 0.44742 0.0
C1013 C 0.5172 0.42213 0.44239 0.0
C1014 C 0.53309 0.4296 0.45271 0.0
C1015 C 0.51601 0.40542 0.42524 0.0
C1016 C 0.53067 0.39596 0.41547 0.0
C1017 C 0.5466 0.40307 0.42624 0.0
C1018 C 0.5478 0.41974 0.44534 0.0
C1019 C 0.52904 0.37909 0.39026 0.0
C1020 C 0.53476 0.3648 0.41956 0.0
C1021 C 0.52019 0.37707 0.33969 0.0
C1022 C 0.51455 0.39172 0.30558 0.0
C1023 C 0.52619 0.40416 0.28822 0.0
C1024 C 0.52073 0.41804 0.2568 0.0
C1025 C 0.50366 0.41958 0.24224 0.0
C1026 C 0.49202 0.40721 0.25895 0.0
C1027 C 0.49742 0.39331 0.29039 0.0
H1028 H 0.49945 0.43035 0.21794 0.0
H1029 H 0.55168 0.29464 0.52024 0.0
H1030 H 0.23298 0.52627 0.27438 0.0
H1031 H 0.20862 0.53489 0.33011 0.0
H1032 H 0.18269 0.48864 0.28577 0.0
H1033 H 0.20686 0.48037 0.22765 0.0
H1034 H 0.16433 0.51631 0.26381 0.0
H1035 H 0.19166 0.49469 0.43875 0.0
H1036 H 0.21702 0.49216 0.49838 0.0
H1037 H 0.22405 0.54611 0.49178 0.0
H1038 H 0.19858 0.54891 0.43266 0.0
H1039 H 0.09403 0.50932 0.42739 0.0
H1040 H 0.12203 0.50615 0.38762 0.0
H1041 H 0.13694 0.55454 0.45489 0.0
H1042 H 0.10892 0.55741 0.49828 0.0
H1043 H 0.1623 0.53218 0.46297 0.0
H1044 H 0.12716 0.55147 0.3158 0.0
H1045 H 0.10247 0.55308 0.2532 0.0
H1046 H 0.1113 0.50194 0.2002 0.0
H1047 H 0.13593 0.49996 0.26285 0.0
C1048 C 0.22215 0.51786 0.27742 0.0
C1049 C 0.22157 0.50275 0.24685 0.0
C1050 C 0.20836 0.52269 0.30965 0.0
C1051 C 0.19399 0.51228 0.31261 0.0
C1052 C 0.19373 0.4968 0.28392 0.0
C1053 C 0.20741 0.49212 0.25077 0.0
C1054 C 0.17849 0.5184 0.33985 0.0
C1055 C 0.16379 0.51947 0.30765 0.0
C1056 C 0.17814 0.5235 0.39596 0.0
C1057 C 0.19328 0.522 0.4317 0.0
C1058 C 0.19864 0.50598 0.45016 0.0
C1059 C 0.21298 0.50451 0.48391 0.0
C1060 C 0.22213 0.51897 0.4989 0.0
C1061 C 0.21694 0.53493 0.48018 0.0
C1062 C 0.20251 0.53648 0.44679 0.0
C1063 C 0.1033 0.51918 0.4349 0.0
C1064 C 0.09919 0.53365 0.46593 0.0
C1065 C 0.11925 0.51746 0.41132 0.0
C1066 C 0.13136 0.53035 0.41692 0.0
C1067 C 0.12763 0.54459 0.44942 0.0
C1068 C 0.11161 0.54625 0.47375 0.0
C1069 C 0.14778 0.52863 0.38808 0.0
C1070 C 0.16278 0.52883 0.41941 0.0
C1071 C 0.14843 0.52456 0.33089 0.0
C1072 C 0.13334 0.52556 0.29424 0.0
C1073 C 0.12374 0.54052 0.29117 0.0
C1074 C 0.10978 0.54151 0.25556 0.0
C1075 C 0.10531 0.52762 0.22279 0.0
C1076 C 0.11478 0.51269 0.22558 0.0
C1077 C 0.12875 0.51164 0.26105 0.0
H1078 H 0.09452 0.52842 0.19517 0.0
H1079 H 0.23324 0.5178 0.52497 0.0
H1080 H 0.98815 0.80698 0.04917 0.0
H1081 H 0.99235 0.83091 0.98443 0.0
H1082 H 0.04649 0.82639 1.00455 0.0
H1083 H 0.04233 0.80241 0.06802 0.0
H1084 H 0.02991 0.8581 0.03757 0.0
H1085 H 0.03367 0.81786 0.88802 0.0
H1086 H 0.02365 0.79474 0.82773 0.0
H1087 H 0.98122 0.82501 0.77675 0.0
H1088 H 0.99081 0.84823 0.83755 0.0
H1089 H 0.05793 0.92743 0.88588 0.0
H1090 H 0.05498 0.89836 0.9181 0.0
H1091 H 1.00494 0.89583 0.84613 0.0
H1092 H 1.00839 0.92448 0.8094 0.0
H1093 H 0.01885 0.86675 0.83656 0.0
H1094 H 0.01263 0.90581 0.98732 0.0
H1095 H 0.02003 0.92873 0.05243 0.0
H1096 H 0.0637 0.90081 0.10658 0.0
H1097 H 0.05673 0.87786 0.04111 0.0
C1098 C 1.00088 0.81106 0.03892 0.0
C1099 C 0.01495 0.80325 0.06358 0.0
C1100 C 1.00328 0.82448 1.00173 0.0
C1101 C 0.01972 0.83018 0.98975 0.0
C1102 C 0.03374 0.82195 0.01303 0.0
C1103 C 0.03137 0.80844 0.04941 0.0
C1104 C 0.02229 0.84638 0.96099 0.0
C1105 C 0.02776 0.86 0.99341 0.0
C1106 C 0.01874 0.84876 0.90404 0.0
C1107 C 0.01283 0.8347 0.86807 0.0
C1108 C 0.02207 0.81951 0.86463 0.0
C1109 C 0.0165 0.80641 0.83016 0.0
C1110 C 1.00178 0.80839 0.79858 0.0
C1111 C 0.99261 0.82349 0.80132 0.0
C1112 C 0.9981 0.83662 0.83579 0.0
C1113 C 0.04648 0.92057 0.87544 0.0
C1114 C 0.03329 0.92839 0.84573 0.0
C1115 C 0.04471 0.90402 0.89466 0.0
C1116 C 0.02952 0.89516 0.8861 0.0
C1117 C 0.01668 0.90254 0.85387 0.0
C1118 C 0.01859 0.91899 0.83351 0.0
C1119 C 0.02673 0.87856 0.91309 0.0
C1120 C 0.02109 0.8649 0.88065 0.0
C1121 C 0.02977 0.87614 0.97059 0.0
C1122 C 0.03427 0.89021 0.00874 0.0
C1123 C 0.02392 0.90465 0.0126 0.0
C1124 C 0.02802 0.91763 0.04969 0.0
C1125 C 0.04235 0.91625 0.08349 0.0
C1126 C 0.05263 0.90189 0.08026 0.0
C1127 C 0.04862 0.8889 0.04314 0.0
H1128 H 0.04546 0.92629 0.1123 0.0
H1129 H 0.9975 0.79824 0.77186 0.0
H1130 H 0.717 0.98388 0.05142 0.0
H1131 H 0.6928 0.98926 0.98958 0.0
H1132 H 0.70409 0.04275 0.99178 0.0
H1133 H 0.72838 0.03744 0.05254 0.0
H1134 H 0.67054 0.03075 0.03312 0.0
H1135 H 0.7096 0.02611 0.87927 0.0
H1136 H 0.73119 1.01151 0.82312 0.0
H1137 H 0.69633 0.97085 0.79148 0.0
H1138 H 0.67461 0.98505 0.84839 0.0
H1139 H 0.6007 0.05821 0.8811 0.0
H1140 H 0.63006 0.05507 0.91037 0.0
H1141 H 0.6298 1.00321 0.85421 0.0
H1142 H 0.60096 1.00671 0.81987 0.0
H1143 H 0.65902 0.01481 0.83749 0.0
H1144 H 0.62119 0.01582 0.99271 0.0
H1145 H 0.59948 0.02657 0.05726 0.0
H1146 H 0.63106 0.06927 0.09596 0.0
H1147 H 0.65282 0.05897 0.03078 0.0
C1148 C 0.7145 0.9967 0.03739 0.0
C1149 C 0.72443 1.01027 0.05627 0.0
C1150 C 0.70081 0.99973 1.00213 0.0
C1151 C 0.69686 0.01637 0.98627 0.0
C1152 C 0.70716 0.02984 1.00338 0.0
C1153 C 0.72098 0.02679 0.03779 0.0
C1154 C 0.68076 0.01999 0.95835 0.0
C1155 C 0.66803 0.0276 0.99001 0.0
C1156 C 0.67751 0.01506 0.90313 0.0
C1157 C 0.69054 1.00657 0.86865 0.0
C1158 C 0.70659 0.01397 0.86088 0.0
C1159 C 0.71884 1.00577 0.8288 0.0
C1160 C 0.71515 0.99023 0.80388 0.0
C1161 C 0.69918 0.98287 0.81089 0.0
C1162 C 0.68689 0.99099 0.84304 0.0
C1163 C 0.60703 0.04629 0.87334 0.0
C1164 C 0.59837 0.03259 0.84919 0.0
C1165 C 0.62375 0.04443 0.89088 0.0
C1166 C 0.63191 0.02872 0.88607 0.0
C1167 C 0.62367 0.01538 0.85879 0.0
C1168 C 0.6071 0.01733 0.83996 0.0
C1169 C 0.64863 0.02585 0.91206 0.0
C1170 C 0.66148 0.01821 0.88039 0.0
C1171 C 0.65186 0.03028 0.96813 0.0
C1172 C 0.63853 0.03675 1.00614 0.0
C1173 C 0.62341 0.02762 0.0144 0.0
C1174 C 0.61111 0.03362 0.05122 0.0
C1175 C 0.61385 0.04863 0.08052 0.0
C1176 C 0.62891 0.05768 0.07307 0.0
C1177 C 0.64122 0.05178 0.03613 0.0
H1178 H 0.60434 0.05322 0.10915 0.0
H1179 H 0.72465 0.98392 0.77902 0.0
H1180 H 0.51584 0.73723 1.00429 0.0
H1181 H 0.51263 0.7129 0.94194 0.0
H1182 H 0.49132 0.68364 0.07686 0.0
H1183 H 0.49449 0.70781 0.13909 0.0
H1184 H 0.51689 0.66758 0.02375 0.0
H1185 H 0.46695 0.69995 0.97664 0.0
H1186 H 0.45107 0.72465 0.94167 0.0
H1187 H 0.47561 0.72013 0.78314 0.0
H1188 H 0.49191 0.69559 0.81754 0.0
H1189 H 0.47415 0.59744 0.92703 0.0
H1190 H 0.47822 0.62633 0.96008 0.0
H1191 H 0.50487 0.63913 0.80912 0.0
H1192 H 0.50091 0.61004 0.77561 0.0
H1193 H 0.4807 0.66509 0.85534 0.0
H1194 H 0.52854 0.6303 0.90408 0.0
H1195 H 0.54346 0.60546 0.9425 0.0
H1196 H 0.52129 0.61459 0.10259 0.0
H1197 H 0.50593 0.63924 0.06485 0.0
C1198 C 0.51043 0.72558 0.0204 0.0
C1199 C 0.5055 0.72427 0.07647 0.0
C1200 C 0.50854 0.7118 0.98479 0.0
C1201 C 0.50164 0.69661 1.00492 0.0
C1202 C 0.49671 0.69531 0.0608 0.0
C1203 C 0.49865 0.70902 0.09635 0.0
C1204 C 0.50038 0.68158 0.96929 0.0
C1205 C 0.50892 0.66702 0.98704 0.0
C1206 C 0.49047 0.68116 0.9203 0.0
C1207 C 0.48089 0.69611 0.90002 0.0
C1208 C 0.46916 0.70437 0.9346 0.0
C1209 C 0.46004 0.71832 0.91481 0.0
C1210 C 0.46239 0.72401 0.86031 0.0
C1211 C 0.47385 0.71576 0.82543 0.0
C1212 C 0.48305 0.70184 0.84508 0.0
C1213 C 0.48045 0.6065 0.90014 0.0
C1214 C 0.4872 0.60153 0.84878 0.0
C1215 C 0.48285 0.62294 0.91919 0.0
C1216 C 0.49197 0.63465 0.8871 0.0
C1217 C 0.49782 0.63014 0.83426 0.0
C1218 C 0.49558 0.61359 0.81535 0.0
C1219 C 0.49658 0.65102 0.91165 0.0
C1220 C 0.48886 0.66579 0.89155 0.0
C1221 C 0.50708 0.65169 0.95911 0.0
C1222 C 0.51594 0.63653 0.98141 0.0
C1223 C 0.52665 0.62687 0.94725 0.0
C1224 C 0.53522 0.61284 0.96897 0.0
C1225 C 0.5333 0.60842 0.02491 0.0
C1226 C 0.52275 0.618 0.05924 0.0
C1227 C 0.5141 0.63199 0.03769 0.0
H1228 H 0.54 0.59761 0.0417 0.0
H1229 H 0.45528 0.73478 0.84503 0.0
H1230 H 0.81755 0.53643 0.11274 0.0
H1231 H 0.8413 0.53364 0.04813 0.0
H1232 H 0.81113 0.50095 0.94398 0.0
H1233 H 0.78763 0.50315 0.00931 0.0
H1234 H 0.8398 0.48644 0.97448 0.0
H1235 H 0.82493 0.54022 0.893 0.0
H1236 H 0.81745 0.57057 0.89258 0.0
H1237 H 0.86408 0.58246 0.97577 0.0
H1238 H 0.87181 0.55219 0.97687 0.0
H1239 H 0.91318 0.47713 0.79781 0.0
H1240 H 0.88418 0.4821 0.83129 0.0
H1241 H 0.90342 0.51765 0.95189 0.0
H1242 H 0.93215 0.51283 0.91864 0.0
H1243 H 0.87749 0.53066 0.89546 0.0
H1244 H 0.89128 0.47854 0.98886 0.0
H1245 H 0.89877 0.44846 1.0016 0.0
H1246 H 0.85462 0.43355 0.90959 0.0
H1247 H 0.84704 0.46357 0.89536 0.0
C1248 C 0.81599 0.52874 0.0759 0.0
C1249 C 0.80086 0.51987 0.06629 0.0
C1250 C 0.82943 0.5274 0.03855 0.0
C1251 C 0.82784 0.51724 0.99104 0.0
C1252 C 0.8125 0.50896 0.9802 0.0
C1253 C 0.79911 0.51024 0.01755 0.0
C1254 C 0.84295 0.51311 0.9579 0.0
C1255 C 0.84784 0.49605 0.95569 0.0
C1256 C 0.8536 0.52575 0.9353 0.0
C1257 C 0.84889 0.54393 0.93524 0.0
C1258 C 0.83353 0.5493 0.91153 0.0
C1259 C 0.82927 0.56649 0.91103 0.0
C1260 C 0.84027 0.57843 0.9342 0.0
C1261 C 0.85558 0.57321 0.9578 0.0
C1262 C 0.85992 0.55604 0.95821 0.0
C1263 C 0.91113 0.48588 0.83175 0.0
C1264 C 0.92476 0.49473 0.85551 0.0
C1265 C 0.89465 0.4887 0.85073 0.0
C1266 C 0.89175 0.50027 0.89383 0.0
C1267 C 0.90542 0.50881 0.91816 0.0
C1268 C 0.92179 0.50607 0.89914 0.0
C1269 C 0.8745 0.50403 0.91329 0.0
C1270 C 0.86922 0.521 0.91282 0.0
C1271 C 0.86363 0.49133 0.93452 0.0
C1272 C 0.86879 0.47333 0.94001 0.0
C1273 C 0.88336 0.46887 0.97035 0.0
C1274 C 0.88757 0.45182 0.9781 0.0
C1275 C 0.87723 0.4391 0.95616 0.0
C1276 C 0.86267 0.44341 0.9263 0.0
C1277 C 0.85843 0.46044 0.91828 0.0
H1278 H 0.88046 0.42591 0.96253 0.0
H1279 H 0.83695 0.59173 0.9338 0.0
H1280 H 0.02199 0.21787 0.72942 0.0
H1281 H 0.02148 0.18885 0.69292 0.0
H1282 H 1.00465 0.17041 0.85245 0.0
H1283 H 1.00509 0.19914 0.88892 0.0
H1284 H 0.03175 0.15345 0.8168 0.0
H1285 H 0.97617 0.16799 0.72673 0.0
H1286 H 0.96077 0.18818 0.6665 0.0
H1287 H 0.99851 0.18228 0.53945 0.0
H1288 H 0.01381 0.16167 0.59832 0.0
H1289 H 0.01726 0.06627 0.78301 0.0
H1290 H 0.0168 0.0966 0.80079 0.0
H1291 H 0.01587 0.10643 0.6242 0.0
H1292 H 0.01477 0.0759 0.60682 0.0
H1293 H 1.00009 0.12968 0.65735 0.0
H1294 H 0.05389 0.11385 0.73027 0.0
H1295 H 0.07732 0.10164 0.7852 0.0
H1296 H 0.05215 0.11565 0.93645 0.0
H1297 H 0.02852 0.12773 0.8825 0.0
C1298 C 0.01793 0.20769 0.75662 0.0
C1299 C 0.01386 0.21102 0.81278 0.0
C1300 C 0.01757 0.191 0.73543 0.0
C1301 C 0.01295 0.17721 0.76966 0.0
C1302 C 1.00835 0.18067 0.82495 0.0
C1303 C 1.00876 0.19721 0.84606 0.0
C1304 C 0.0144 0.15902 0.75101 0.0
C1305 C 0.02457 0.14813 0.78257 0.0
C1306 C 1.00607 0.15224 0.70393 0.0
C1307 C 0.99607 0.16333 0.66679 0.0
C1308 C 0.98104 0.17088 0.68568 0.0
C1309 C 0.97235 0.18239 0.65183 0.0
C1310 C 0.97871 0.18658 0.59932 0.0
C1311 C 0.99365 0.17909 0.58026 0.0
C1312 C 1.0022 0.16732 0.61351 0.0
C1313 C 0.01705 0.07487 0.74783 0.0
C1314 C 0.01619 0.06844 0.69338 0.0
C1315 C 0.01703 0.09245 0.75802 0.0
C1316 C 0.01688 0.10441 0.71411 0.0
C1317 C 0.01603 0.0979 0.65949 0.0
C1318 C 0.01552 0.08027 0.64936 0.0
C1319 C 0.01703 0.12345 0.72539 0.0
C1320 C 1.00725 0.13465 0.69211 0.0
C1321 C 0.02636 0.13079 0.77001 0.0
C1322 C 0.03933 0.12145 0.80231 0.0
C1323 C 0.05318 0.11396 0.77523 0.0
C1324 C 0.06655 0.10718 0.80622 0.0
C1325 C 0.0662 0.10782 0.86427 0.0
C1326 C 0.05239 0.11508 0.89151 0.0
C1327 C 0.03899 0.12186 0.86077 0.0
H1328 H 0.07666 0.10275 0.88813 0.0
H1329 H 0.972 0.19554 0.57325 0.0
H1330 H 0.32931 0.02794 0.89753 0.0
H1331 H 0.35778 0.0272 0.85859 0.0
H1332 H 0.33714 0.0222 0.69392 0.0
H1333 H 0.30836 0.02371 0.73211 0.0
H1334 H 0.36637 0.99877 0.7232 0.0
H1335 H 0.35524 0.05769 0.69874 0.0
H1336 H 0.34039 0.08335 0.73086 0.0
H1337 H 0.36859 0.08204 0.88346 0.0
H1338 H 0.38366 0.05636 0.85192 0.0
H1339 H 0.45045 1.00966 0.61315 0.0
H1340 H 0.41998 1.01146 0.62885 0.0
H1341 H 0.42899 0.03341 0.79008 0.0
H1342 H 0.45958 0.03222 0.77362 0.0
H1343 H 0.40346 0.04898 0.74869 0.0
H1344 H 0.41622 0.98794 0.75718 0.0
H1345 H 0.42526 0.96009 0.72145 0.0
H1346 H 0.3897 0.96432 0.58709 0.0
H1347 H 0.38067 0.99229 0.62147 0.0
C1348 C 0.33061 0.02697 0.8529 0.0
C1349 C 0.31617 0.02602 0.81849 0.0
C1350 C 0.34705 0.02635 0.83065 0.0
C1351 C 0.34975 0.02456 0.77324 0.0
C1352 C 0.33549 0.0234 0.73842 0.0
C1353 C 0.31895 0.02423 0.76063 0.0
C1354 C 0.36754 0.02458 0.7506 0.0
C1355 C 0.37446 1.00979 0.72786 0.0
C1356 C 0.37812 0.03892 0.75601 0.0
C1357 C 0.37067 0.05529 0.77283 0.0
C1358 C 0.35843 0.06305 0.73882 0.0
C1359 C 0.34993 0.07753 0.75698 0.0
C1360 C 0.35358 0.08434 0.80914 0.0
C1361 C 0.36587 0.07679 0.84294 0.0
C1362 C 0.37447 0.06234 0.82481 0.0
C1363 C 0.44604 0.01492 0.65208 0.0
C1364 C 0.45776 0.02071 0.69217 0.0
C1365 C 0.42842 0.0158 0.66129 0.0
C1366 C 0.4218 0.02222 0.71143 0.0
C1367 C 0.43349 0.0283 0.75107 0.0
C1368 C 0.45113 0.02757 0.74164 0.0
C1369 C 0.40287 0.02276 0.7228 0.0
C1370 C 0.39557 0.03783 0.74342 0.0
C1371 C 0.39184 1.00869 0.71358 0.0
C1372 C 0.39793 0.99228 0.69156 0.0
C1373 C 0.4105 0.98302 0.71963 0.0
C1374 C 0.41558 0.9672 0.69968 0.0
C1375 C 0.40809 0.96046 0.65195 0.0
C1376 C 0.3955 0.96954 0.62403 0.0
C1377 C 0.39043 0.98539 0.64364 0.0
H1378 H 0.41201 0.94819 0.6367 0.0
H1379 H 0.34685 0.09545 0.82343 0.0
H1380 H 0.51682 0.33056 0.8906 0.0
H1381 H 0.51671 0.35952 0.85518 0.0
H1382 H 0.50103 0.34166 0.6943 0.0
H1383 H 0.50076 0.31241 0.72977 0.0
H1384 H 0.5275 0.36944 0.69493 0.0
H1385 H 0.46983 0.36018 0.75169 0.0
H1386 H 0.45148 0.34441 0.81685 0.0
H1387 H 0.47395 0.37076 0.95433 0.0
H1388 H 0.49244 0.38668 0.88969 0.0
H1389 H 0.50808 0.45439 0.61005 0.0
H1390 H 0.50713 0.42387 0.62634 0.0
H1391 H 0.50497 0.43276 0.803 0.0
H1392 H 0.50517 0.46344 0.78598 0.0
H1393 H 0.48603 0.40761 0.7857 0.0
H1394 H 0.54252 0.41997 0.7131 0.0
H1395 H 0.56494 0.42787 0.64635 0.0
H1396 H 0.54678 0.39027 0.53234 0.0
H1397 H 0.52369 0.38294 0.59643 0.0
C1398 C 0.51319 0.33265 0.84776 0.0
C1399 C 0.5085 0.31892 0.81369 0.0
C1400 C 0.51331 0.34932 0.82732 0.0
C1401 C 0.50878 0.35292 0.77207 0.0
C1402 C 0.50467 0.33928 0.73702 0.0
C1403 C 0.5045 0.3225 0.75755 0.0
C1404 C 0.50712 0.37107 0.75335 0.0
C1405 C 0.51828 0.37781 0.71383 0.0
C1406 C 0.49515 0.38198 0.77802 0.0
C1407 C 0.48226 0.3748 0.81597 0.0
C1408 C 0.47055 0.36287 0.79576 0.0
C1409 C 0.46024 0.35381 0.83256 0.0
C1410 C 0.4615 0.35663 0.8897 0.0
C1411 C 0.4729 0.3687 0.91002 0.0
C1412 C 0.48322 0.37783 0.8733 0.0
C1413 C 0.50751 0.44987 0.65232 0.0
C1414 C 0.507 0.46153 0.69647 0.0
C1415 C 0.50704 0.43225 0.66184 0.0
C1416 C 0.5065 0.42558 0.71624 0.0
C1417 C 0.50551 0.43727 0.76049 0.0
C1418 C 0.50565 0.45494 0.75076 0.0
C1419 C 0.50686 0.4066 0.72726 0.0
C1420 C 0.49529 0.39951 0.76577 0.0
C1421 C 0.51833 0.3953 0.70021 0.0
C1422 C 0.53121 0.40107 0.65941 0.0
C1423 C 0.54303 0.41373 0.67313 0.0
C1424 C 0.55585 0.41813 0.6356 0.0
C1425 C 0.55718 0.40974 0.58474 0.0
C1426 C 0.54557 0.39705 0.57105 0.0
C1427 C 0.53255 0.39284 0.60782 0.0
H1428 H 0.56729 0.41296 0.55618 0.0
H1429 H 0.45369 0.34942 0.91824 0.0
H1430 H 0.2125 0.49241 0.73842 0.0
H1431 H 0.18318 0.49371 0.70404 0.0
H1432 H 0.16843 0.52064 0.85183 0.0
H1433 H 0.19739 0.51933 0.88618 0.0
H1434 H 0.14843 0.49514 0.83793 0.0
H1435 H 0.16718 0.54033 0.71248 0.0
H1436 H 0.18463 0.55271 0.6374 0.0
H1437 H 0.17116 0.5114 0.53018 0.0
H1438 H 0.15335 0.49909 0.60399 0.0
H1439 H 0.06169 0.51318 0.78838 0.0
H1440 H 0.09195 0.51283 0.80831 0.0
H1441 H 0.10209 0.49846 0.63841 0.0
H1442 H 0.07182 0.5006 0.61764 0.0
H1443 H 0.12565 0.51556 0.65829 0.0
H1444 H 0.10625 0.4704 0.78214 0.0
H1445 H 0.09243 0.45525 0.85993 0.0
H1446 H 0.10975 0.49332 0.97379 0.0
H1447 H 0.12352 0.50871 0.89677 0.0
C1448 C 0.20305 0.4988 0.76334 0.0
C1449 C 0.20743 0.50544 0.81598 0.0
C1450 C 0.18622 0.49962 0.74336 0.0
C1451 C 0.17332 0.50724 0.7752 0.0
C1452 C 0.17792 0.5145 0.82639 0.0
C1453 C 0.19459 0.51362 0.84638 0.0
C1454 C 0.1548 0.50629 0.75939 0.0
C1455 C 0.14342 0.49985 0.79884 0.0
C1456 C 0.14812 0.51158 0.70753 0.0
C1457 C 0.1591 0.51875 0.66373 0.0
C1458 C 0.16803 0.53389 0.67289 0.0
C1459 C 0.17788 0.54096 0.63047 0.0
C1460 C 0.17894 0.53291 0.57899 0.0
C1461 C 0.17023 0.51774 0.56981 0.0
C1462 C 0.16019 0.51076 0.61181 0.0
C1463 C 0.07039 0.50985 0.75536 0.0
C1464 C 0.06423 0.50687 0.7014 0.0
C1465 C 0.08788 0.50937 0.76699 0.0
C1466 C 0.09987 0.50505 0.72572 0.0
C1467 C 0.09354 0.50187 0.67172 0.0
C1468 C 0.07608 0.50301 0.65965 0.0
C1469 C 0.11885 0.50465 0.73783 0.0
C1470 C 0.13042 0.51075 0.69752 0.0
C1471 C 0.12582 0.49886 0.78913 0.0
C1472 C 0.11566 0.4908 0.83361 0.0
C1473 C 0.10678 0.4757 0.82358 0.0
C1474 C 0.09906 0.46702 0.86761 0.0
C1475 C 0.10016 0.47334 0.92172 0.0
C1476 C 0.10883 0.48846 0.93189 0.0
C1477 C 0.11656 0.49717 0.88809 0.0
H1478 H 0.09435 0.46649 0.95581 0.0
H1479 H 0.18645 0.53853 0.54633 0.0
H1480 H 1.01039 0.81167 0.59668 0.0
H1481 H 1.00827 0.84073 0.6323 0.0
H1482 H 1.00663 0.85978 0.46437 0.0
H1483 H 1.00842 0.83107 0.4287 0.0
H1484 H 0.02955 0.87636 0.52327 0.0
H1485 H 0.97188 0.85752 0.55734 0.0
H1486 H 0.95014 0.83957 0.60176 0.0
H1487 H 0.96612 0.8566 0.76272 0.0
H1488 H 0.9883 0.87429 0.71944 0.0
H1489 H 1.00689 0.96294 0.53935 0.0
H1490 H 1.00734 0.93232 0.52273 0.0
H1491 H 1.007 0.9231 0.69935 0.0
H1492 H 1.00685 0.95381 0.71617 0.0
H1493 H 0.98636 0.90052 0.64952 0.0
H1494 H 0.04301 0.91739 0.6258 0.0
H1495 H 0.06941 0.93093 0.59358 0.0
H1496 H 0.05907 0.91496 0.42655 0.0
H1497 H 0.03243 0.90162 0.45753 0.0
C1498 C 1.00937 0.822 0.56717 0.0
C1499 C 1.00982 0.81876 0.50934 0.0
C1500 C 1.00813 0.83871 0.5878 0.0
C1501 C 1.00723 0.85268 0.55124 0.0
C1502 C 1.00739 0.84939 0.49381 0.0
C1503 C 1.00859 0.83282 0.47329 0.0
C1504 C 1.00728 0.87083 0.57113 0.0
C1505 C 0.01986 0.88167 0.55001 0.0
C1506 C 0.99534 0.87771 0.60915 0.0
C1507 C 0.98194 0.86707 0.63506 0.0
C1508 C 0.97092 0.85729 0.60223 0.0
C1509 C 0.95849 0.84717 0.62724 0.0
C1510 C 0.9568 0.84689 0.68504 0.0
C1511 C 0.96749 0.85678 0.71796 0.0
C1512 C 0.98001 0.86683 0.6932 0.0
C1513 C 1.00682 0.95443 0.57478 0.0
C1514 C 1.00686 0.96101 0.62918 0.0
C1515 C 1.00719 0.93682 0.5652 0.0
C1516 C 1.00737 0.92513 0.60965 0.0
C1517 C 1.00692 0.93166 0.66409 0.0
C1518 C 1.00689 0.94931 0.67371 0.0
C1519 C 1.00816 0.90624 0.59887 0.0
C1520 C 0.99591 0.89526 0.6222 0.0
C1521 C 0.02065 0.89901 0.56379 0.0
C1522 C 0.03556 0.90874 0.5439 0.0
C1523 C 0.04614 0.91712 0.58198 0.0
C1524 C 0.06122 0.92467 0.56398 0.0
C1525 C 0.06589 0.92386 0.50803 0.0
C1526 C 0.05541 0.91565 0.46983 0.0
C1527 C 0.0403 0.90814 0.48757 0.0
H1528 H 0.07767 0.92954 0.49431 0.0
H1529 H 0.94716 0.83906 0.7043 0.0
H1530 H 0.69594 0.99807 0.43743 0.0
H1531 H 0.667 0.9971 0.47278 0.0
H1532 H 0.68404 0.01559 0.6314 0.0
H1533 H 0.71326 0.01673 0.59613 0.0
H1534 H 0.65708 0.98966 0.63912 0.0
H1535 H 0.66471 0.04496 0.56208 0.0
H1536 H 0.6794 0.06229 0.49146 0.0
H1537 H 0.65295 0.03593 0.36184 0.0
H1538 H 0.6381 0.01841 0.43197 0.0
H1539 H 0.57167 0.01522 0.71284 0.0
H1540 H 0.60226 0.01407 0.69652 0.0
H1541 H 0.59331 1.00184 0.5246 0.0
H1542 H 0.56263 1.00283 0.54078 0.0
H1543 H 0.61749 0.02619 0.53237 0.0
H1544 H 0.60785 0.97189 0.62238 0.0
H1545 H 0.59965 0.95172 0.69617 0.0
H1546 H 0.63365 0.97611 0.80988 0.0
H1547 H 0.64172 0.99677 0.73728 0.0
C1548 C 0.69367 1.00204 0.4798 0.0
C1549 C 0.70715 1.00777 0.51325 0.0
C1550 C 0.67701 1.00131 0.50025 0.0
C1551 C 0.67312 1.00639 0.5548 0.0
C1552 C 0.68658 1.01151 0.58928 0.0
C1553 C 0.70336 0.0122 0.56882 0.0
C1554 C 0.65485 1.0078 0.57281 0.0
C1555 C 0.64844 0.99784 0.61651 0.0
C1556 C 0.64348 0.01848 0.54381 0.0
C1557 C 0.65016 0.03057 0.5021 0.0
C1558 C 0.66179 0.04311 0.5185 0.0
C1559 C 0.67023 0.05287 0.47862 0.0
C1560 C 0.66708 0.05024 0.42218 0.0
C1561 C 0.65529 0.03802 0.4056 0.0
C1562 C 0.64676 0.02824 0.4454 0.0
C1563 C 0.57613 0.01218 0.67149 0.0
C1564 C 0.56444 1.00911 0.62819 0.0
C1565 C 0.59377 1.01145 0.66224 0.0
C1566 C 0.60039 1.00777 0.60923 0.0
C1567 C 0.58873 1.0047 0.56596 0.0
C1568 C 0.57108 1.0052 0.57535 0.0
C1569 C 0.61931 1.00761 0.59825 0.0
C1570 C 0.62596 0.01803 0.55569 0.0
C1571 C 0.63092 0.99763 0.62973 0.0
C1572 C 0.6252 0.98602 0.67453 0.0
C1573 C 0.61333 0.97317 0.66342 0.0
C1574 C 0.60873 0.96164 0.70503 0.0
C1575 C 0.61602 0.96274 0.75782 0.0
C1576 C 0.62789 0.97541 0.76916 0.0
C1577 C 0.63246 0.98705 0.72782 0.0
H1578 H 0.61255 0.95371 0.78983 0.0
H1579 H 0.67381 0.05764 0.39129 0.0
H1580 H 0.5273 0.71602 0.56994 0.0
H1581 H 0.52825 0.68734 0.60826 0.0
H1582 H 0.49341 0.67055 0.48192 0.0
H1583 H 0.49135 0.69934 0.44625 0.0
H1584 H 0.48576 0.65511 0.57129 0.0
H1585 H 0.54121 0.66629 0.48499 0.0
H1586 H 0.56757 0.68308 0.47992 0.0
H1587 H 0.57907 0.67008 0.64918 0.0
H1588 H 0.5526 0.65351 0.6556 0.0
H1589 H 0.50001 0.56648 0.54835 0.0
H1590 H 0.49916 0.59729 0.53304 0.0
H1591 H 0.53033 0.60479 0.67798 0.0
H1592 H 0.53068 0.57395 0.69428 0.0
H1593 H 0.54082 0.62585 0.59483 0.0
H1594 H 0.48965 0.61352 0.68359 0.0
H1595 H 0.46183 0.60141 0.70785 0.0
H1596 H 0.44138 0.61926 0.55301 0.0
H1597 H 0.4692 0.63114 0.52732 0.0
C1598 C 0.51961 0.70635 0.55053 0.0
C1599 C 0.50946 0.71028 0.50378 0.0
C1600 C 0.52038 0.68972 0.57223 0.0
C1601 C 0.51136 0.67632 0.54719 0.0
C1602 C 0.50078 0.68037 0.50193 0.0
C1603 C 0.49979 0.69699 0.48084 0.0
C1604 C 0.51278 0.65808 0.56686 0.0
C1605 C 0.49783 0.64867 0.57518 0.0
C1606 C 0.52849 0.64969 0.57604 0.0
C1607 C 0.54487 0.65876 0.57087 0.0
C1608 C 0.54938 0.667 0.52108 0.0
C1609 C 0.5643 0.67652 0.51804 0.0
C1610 C 0.57497 0.67768 0.56423 0.0
C1611 C 0.57079 0.6692 0.61346 0.0
C1612 C 0.55582 0.65974 0.61682 0.0
C1613 C 0.50681 0.5747 0.57664 0.0
C1614 C 0.51553 0.56771 0.62224 0.0
C1615 C 0.50623 0.59238 0.56813 0.0
C1616 C 0.51463 0.60364 0.60436 0.0
C1617 C 0.52373 0.59658 0.64921 0.0
C1618 C 0.52393 0.5789 0.65854 0.0
C1619 C 0.51371 0.62263 0.59539 0.0
C1620 C 0.52873 0.6322 0.58995 0.0
C1621 C 0.49805 0.63132 0.59003 0.0
C1622 C 0.48163 0.62301 0.6032 0.0
C1623 C 0.47933 0.61457 0.65423 0.0
C1624 C 0.46352 0.60781 0.66836 0.0
C1625 C 0.44985 0.60952 0.6319 0.0
C1626 C 0.45199 0.61789 0.58112 0.0
C1627 C 0.4678 0.6246 0.56673 0.0
H1628 H 0.43758 0.6044 0.64308 0.0
H1629 H 0.58648 0.68511 0.56186 0.0
H1630 H 0.82941 0.51752 0.42588 0.0
H1631 H 0.85797 0.51805 0.46377 0.0
H1632 H 0.83798 0.52525 0.62839 0.0
H1633 H 0.80904 0.52394 0.59131 0.0
H1634 H 0.86773 0.5472 0.59923 0.0
H1635 H 0.85507 0.48921 0.6242 0.0
H1636 H 0.83969 0.46348 0.59526 0.0
H1637 H 0.86796 0.4625 0.44276 0.0
H1638 H 0.88354 0.48827 0.47107 0.0
H1639 H 0.95154 0.52697 0.71221 0.0
H1640 H 0.92082 0.52788 0.69533 0.0
H1641 H 0.92942 0.51759 0.52188 0.0
H1642 H 0.96014 0.51717 0.53835 0.0
H1643 H 0.90372 0.49646 0.57015 0.0
H1644 H 0.91655 0.55769 0.56007 0.0
H1645 H 0.92611 0.58548 0.59511 0.0
H1646 H 0.89373 0.58005 0.73754 0.0
H1647 H 0.88398 0.55225 0.70325 0.0
C1648 C 0.83084 0.51893 0.47032 0.0
C1649 C 0.81651 0.5205 0.50503 0.0
C1650 C 0.84736 0.51943 0.49196 0.0
C1651 C 0.8503 0.52173 0.54905 0.0
C1652 C 0.83616 0.52362 0.58411 0.0
C1653 C 0.81952 0.5229 0.56253 0.0
C1654 C 0.86819 0.5214 0.57106 0.0
C1655 C 0.87554 0.53603 0.59377 0.0
C1656 C 0.87844 0.50685 0.56502 0.0
C1657 C 0.87053 0.49052 0.54983 0.0
C1658 C 0.85813 0.48337 0.58476 0.0
C1659 C 0.84934 0.46883 0.56844 0.0
C1660 C 0.85287 0.46134 0.51721 0.0
C1661 C 0.86532 0.46828 0.48254 0.0
C1662 C 0.87421 0.48279 0.49883 0.0
C1663 C 0.94691 0.52505 0.67034 0.0
C1664 C 0.95844 0.52209 0.62664 0.0
C1665 C 0.92927 0.52562 0.66066 0.0
C1666 C 0.92257 0.52284 0.60715 0.0
C1667 C 0.93409 0.51983 0.56353 0.0
C1668 C 0.95174 0.51969 0.57295 0.0
C1669 C 0.90366 0.52258 0.59662 0.0
C1670 C 0.89602 0.50767 0.57616 0.0
C1671 C 0.89301 0.53674 0.60713 0.0
C1672 C 0.89973 0.55284 0.62948 0.0
C1673 C 0.91167 0.56233 0.59923 0.0
C1674 C 0.91704 0.57812 0.6188 0.0
C1675 C 0.91058 0.5845 0.66861 0.0
C1676 C 0.89875 0.57509 0.69904 0.0
C1677 C 0.89329 0.55934 0.67953 0.0
H1678 H 0.91469 0.59676 0.68354 0.0
H1679 H 0.84593 0.45018 0.50435 0.0
loop_
_geom_bond_atom_site_label_1
_geom_bond_atom_site_label_2
_geom_bond_distance
_geom_bond_site_symmetry_2
_ccdc_geom_bond_type
C0 C1 1.264 . S
C0 C5 1.479 . S
C0 C10 1.465 . S
C1 C0 1.264 . S
C1 C3 1.339 . S
C1 H28 0.931 . S
C2 C3 1.395 . S
C2 C4 1.320 . S
C3 C1 1.339 . S
C3 C2 1.395 . S
C3 H29 0.929 . S
C4 C2 1.320 . S
C4 C5 1.405 . S
C4 H30 0.930 . S
C5 C0 1.479 . S
C5 C4 1.405 . S
C5 H31 0.931 . S
U6 O7 2.454 . S
U6 O8 2.458 . S
U6 C9 2.984 . S
U6 C10 2.847 . S
U6 C23 2.882 . S
U6 O24 2.441 . S
U6 O25 2.420 . S
U6 O26 2.455 . S
U6 O27 2.449 . S
O7 U6 2.454 . S
O7 C9 1.353 . S
O8 U6 2.458 . S
O8 C9 1.286 . S
C9 U6 2.984 . S
C9 O7 1.353 . S
C9 O8 1.286 . S
C9 C11 1.363 . S
C10 C0 1.465 . S
C10 U6 2.847 . S
C10 O24 1.249 . S
C10 O25 1.202 . S
C11 C9 1.363 . S
C11 C13 1.408 . S
C11 C16 1.342 . S
C12 C13 1.310 . S
C12 C15 1.461 . S
C12 H32 0.932 . S
C13 C11 1.408 . S
C13 C12 1.310 . S
C13 H33 0.930 . S
C14 C15 1.474 . S
C14 C16 1.285 . S
C14 H34 0.929 . S
C15 C12 1.461 . S
C15 C14 1.474 . S
C16 C11 1.342 . S
C16 C14 1.285 . S
C16 H35 0.930 . S
C17 C20 1.424 . S
C17 C22 1.245 . S
C17 C23 1.428 . S
C18 C21 1.260 . S
C18 C22 1.477 . S
C18 H36 0.932 . S
C19 C20 1.384 . S
C19 C21 1.479 . S
C19 H37 0.929 . S
C20 C17 1.424 . S
C20 C19 1.384 . S
C20 H38 0.928 . S
C21 C18 1.260 . S
C21 C19 1.479 . S
C22 C17 1.245 . S
C22 C18 1.477 . S
C22 H39 0.932 . S
C23 U6 2.882 . S
C23 C17 1.428 . S
C23 O26 1.301 . S
C23 O27 1.282 . S
O24 U6 2.441 . S
O24 C10 1.249 . S
O25 U6 2.420 . S
O25 C10 1.202 . S
O26 U6 2.455 . S
O26 C23 1.301 . S
O27 U6 2.449 . S
O27 C23 1.282 . S
H28 C1 0.931 . S
H29 C3 0.929 . S
H30 C4 0.930 . S
H31 C5 0.931 . S
H32 C12 0.932 . S
H33 C13 0.930 . S
H34 C14 0.929 . S
H35 C16 0.930 . S
H36 C18 0.932 . S
H37 C19 0.929 . S
H38 C20 0.928 . S
H39 C22 0.932 . S
C40 C41 1.264 . S
C40 C45 1.479 . S
C40 C50 1.465 . S
C41 C40 1.264 . S
C41 C43 1.339 . S
C41 H68 0.931 . S
C42 C43 1.395 . S
C42 C44 1.320 . S
C43 C41 1.339 . S
C43 C42 1.395 . S
C43 H69 0.929 . S
C44 C42 1.320 . S
C44 C45 1.405 . S
C44 H70 0.921 1_455 S
C45 C40 1.479 . S
C45 C44 1.405 . S
C45 H71 0.931 . S
U46 O47 2.454 . S
U46 O48 2.458 . S
U46 C49 2.984 . S
U46 C50 2.847 . S
U46 C63 2.882 . S
U46 O64 2.441 . S
U46 O65 2.420 . S
U46 O66 2.455 . S
U46 O67 2.449 . S
O47 U46 2.454 . S
O47 C49 1.353 . S
O48 U46 2.458 . S
O48 C49 1.286 . S
C49 U46 2.984 . S
C49 O47 1.353 . S
C49 O48 1.286 . S
C49 C51 1.363 . S
C50 C40 1.465 . S
C50 U46 2.847 . S
C50 O64 1.249 . S
C50 O65 1.202 . S
C51 C49 1.363 . S
C51 C53 1.408 . S
C51 C56 1.353 . S
C52 C53 1.310 . S
C52 C55 1.461 . S
C52 H72 0.936 . S
C53 C51 1.408 . S
C53 C52 1.310 . S
C53 H73 0.930 . S
C54 C55 1.474 1_655 S
C54 C56 1.282 1_655 S
C54 H74 0.930 . S
C55 C52 1.461 . S
C55 C54 1.474 1_455 S
C56 C51 1.353 . S
C56 C54 1.282 1_455 S
C56 H75 0.929 . S
C57 C60 1.424 . S
C57 C62 1.245 . S
C57 C63 1.428 . S
C58 C61 1.260 . S
C58 C62 1.477 . S
C58 H76 0.932 . S
C59 C60 1.384 . S
C59 C61 1.479 . S
C59 H77 0.929 . S
C60 C57 1.424 . S
C60 C59 1.384 . S
C60 H78 0.928 . S
C61 C58 1.260 . S
C61 C59 1.479 . S
C62 C57 1.245 . S
C62 C58 1.477 . S
C62 H79 0.932 . S
C63 U46 2.882 . S
C63 C57 1.428 . S
C63 O66 1.301 . S
C63 O67 1.282 . S
O64 U46 2.441 . S
O64 C50 1.249 . S
O65 U46 2.420 . S
O65 C50 1.202 . S
O66 U46 2.455 . S
O66 C63 1.301 . S
O67 U46 2.449 . S
O67 C63 1.282 . S
H68 C41 0.931 . S
H69 C43 0.929 . S
H70 C44 0.921 1_655 S
H71 C45 0.931 . S
H72 C52 0.936 . S
H73 C53 0.930 . S
H74 C54 0.930 . S
H75 C56 0.929 . S
H76 C58 0.932 . S
H77 C59 0.929 . S
H78 C60 0.928 . S
H79 C62 0.932 . S
C80 C81 1.264 . S
C80 C85 1.480 . S
C80 C90 1.465 . S
C81 C80 1.264 . S
C81 C83 1.344 . S
C81 H108 0.931 . S
C82 C83 1.388 1_565 S
C82 C84 1.320 . S
C83 C81 1.344 . S
C83 C82 1.388 1_545 S
C83 H109 0.932 . S
C84 C82 1.320 . S
C84 C85 1.402 1_565 S
C84 H110 0.930 . S
C85 C80 1.480 . S
C85 C84 1.402 1_545 S
C85 H111 0.932 . S
U86 O87 2.449 1_545 S
U86 O88 2.457 . S
U86 C89 2.980 1_545 S
U86 C90 2.847 . S
U86 C103 2.882 . S
U86 O104 2.441 . S
U86 O105 2.420 . S
U86 O106 2.455 . S
U86 O107 2.449 . S
O87 U86 2.449 1_565 S
O87 C89 1.353 . S
O88 U86 2.457 . S
O88 C89 1.285 1_545 S
C89 U86 2.980 1_565 S
C89 O87 1.353 . S
C89 O88 1.285 1_565 S
C89 C91 1.367 . S
C90 C80 1.465 . S
C90 U86 2.847 . S
C90 O104 1.249 . S
C90 O105 1.202 . S
C91 C89 1.367 . S
C91 C93 1.408 . S
C91 C96 1.342 . S
C92 C93 1.310 . S
C92 C95 1.461 . S
C92 H112 0.932 . S
C93 C91 1.408 . S
C93 C92 1.310 . S
C93 H113 0.930 . S
C94 C95 1.474 . S
C94 C96 1.285 . S
C94 H114 0.929 . S
C95 C92 1.461 . S
C95 C94 1.474 . S
C96 C91 1.342 . S
C96 C94 1.285 . S
C96 H115 0.930 . S
C97 C100 1.431 . S
C97 C102 1.245 . S
C97 C103 1.428 . S
C98 C101 1.261 . S
C98 C102 1.476 1_565 S
C98 H116 0.928 1_565 S
C99 C100 1.380 1_565 S
C99 C101 1.487 . S
C99 H117 0.928 . S
C100 C97 1.431 . S
C100 C99 1.380 1_545 S
C100 H118 0.924 1_545 S
C101 C98 1.261 . S
C101 C99 1.487 . S
C102 C97 1.245 . S
C102 C98 1.476 1_545 S
C102 H119 0.932 . S
C103 U86 2.882 . S
C103 C97 1.428 . S
C103 O106 1.301 . S
C103 O107 1.282 . S
O104 U86 2.441 . S
O104 C90 1.249 . S
O105 U86 2.420 . S
O105 C90 1.202 . S
O106 U86 2.455 . S
O106 C103 1.301 . S
O107 U86 2.449 . S
O107 C103 1.282 . S
H108 C81 0.931 . S
H109 C83 0.932 . S
H110 C84 0.930 . S
H111 C85 0.932 . S
H112 C92 0.932 . S
H113 C93 0.930 . S
H114 C94 0.929 . S
H115 C96 0.930 . S
H116 C98 0.928 1_545 S
H117 C99 0.928 . S
H118 C100 0.924 1_565 S
H119 C102 0.932 . S
C120 C121 1.264 . S
C120 C125 1.479 . S
C120 C130 1.465 . S
C121 C120 1.264 . S
C121 C123 1.339 . S
C121 H148 0.931 . S
C122 C123 1.395 . S
C122 C124 1.320 . S
C123 C121 1.339 . S
C123 C122 1.395 . S
C123 H149 0.929 . S
C124 C122 1.320 . S
C124 C125 1.405 . S
C124 H150 0.930 . S
C125 C120 1.479 . S
C125 C124 1.405 . S
C125 H151 0.931 . S
U126 O127 2.454 . S
U126 O128 2.458 . S
U126 C129 2.984 . S
U126 C130 2.847 . S
U126 C143 2.882 . S
U126 O144 2.441 . S
U126 O145 2.420 . S
U126 O146 2.455 . S
U126 O147 2.449 . S
O127 U126 2.454 . S
O127 C129 1.353 . S
O128 U126 2.458 . S
O128 C129 1.286 . S
C129 U126 2.984 . S
C129 O127 1.353 . S
C129 O128 1.286 . S
C129 C131 1.363 . S
C130 C120 1.465 . S
C130 U126 2.847 . S
C130 O144 1.249 . S
C130 O145 1.202 . S
C131 C129 1.363 . S
C131 C133 1.408 . S
C131 C136 1.342 . S
C132 C133 1.310 . S
C132 C135 1.461 . S
C132 H152 0.932 . S
C133 C131 1.408 . S
C133 C132 1.310 . S
C133 H153 0.930 . S
C134 C135 1.474 . S
C134 C136 1.285 . S
C134 H154 0.929 . S
C135 C132 1.461 . S
C135 C134 1.474 . S
C136 C131 1.342 . S
C136 C134 1.285 . S
C136 H155 0.930 . S
C137 C140 1.424 . S
C137 C142 1.245 . S
C137 C143 1.428 . S
C138 C141 1.260 . S
C138 C142 1.477 . S
C138 H156 0.932 . S
C139 C140 1.384 . S
C139 C141 1.479 . S
C139 H157 0.929 . S
C140 C137 1.424 . S
C140 C139 1.384 . S
C140 H158 0.928 . S
C141 C138 1.260 . S
C141 C139 1.479 . S
C142 C137 1.245 . S
C142 C138 1.477 . S
C142 H159 0.932 . S
C143 U126 2.882 . S
C143 C137 1.428 . S
C143 O146 1.301 . S
C143 O147 1.282 . S
O144 U126 2.441 . S
O144 C130 1.249 . S
O145 U126 2.420 . S
O145 C130 1.202 . S
O146 U126 2.455 . S
O146 C143 1.301 . S
O147 U126 2.449 . S
O147 C143 1.282 . S
H148 C121 0.931 . S
H149 C123 0.929 . S
H150 C124 0.930 . S
H151 C125 0.931 . S
H152 C132 0.932 . S
H153 C133 0.930 . S
H154 C134 0.929 . S
H155 C136 0.930 . S
H156 C138 0.932 . S
H157 C139 0.929 . S
H158 C140 0.928 . S
H159 C142 0.932 . S
C160 C161 1.264 . S
C160 C165 1.479 . S
C160 C170 1.465 . S
C161 C160 1.264 . S
C161 C163 1.339 . S
C161 H188 0.931 . S
C162 C163 1.395 . S
C162 C164 1.320 . S
C163 C161 1.339 . S
C163 C162 1.395 . S
C163 H189 0.929 . S
C164 C162 1.320 . S
C164 C165 1.405 . S
C164 H190 0.930 . S
C165 C160 1.479 . S
C165 C164 1.405 . S
C165 H191 0.931 . S
U166 O167 2.454 . S
U166 O168 2.458 . S
U166 C169 2.984 . S
U166 C170 2.847 1_554 S
U166 C183 2.882 . S
U166 O184 2.441 1_554 S
U166 O185 2.420 1_554 S
U166 O186 2.455 . S
U166 O187 2.449 . S
O167 U166 2.454 . S
O167 C169 1.353 . S
O168 U166 2.458 . S
O168 C169 1.286 . S
C169 U166 2.984 . S
C169 O167 1.353 . S
C169 O168 1.286 . S
C169 C171 1.363 . S
C170 C160 1.465 . S
C170 U166 2.847 1_556 S
C170 O184 1.249 . S
C170 O185 1.202 . S
C171 C169 1.363 . S
C171 C173 1.408 . S
C171 C176 1.342 . S
C172 C173 1.310 . S
C172 C175 1.461 . S
C172 H192 0.932 . S
C173 C171 1.408 . S
C173 C172 1.310 . S
C173 H193 0.930 1_554 S
C174 C175 1.474 . S
C174 C176 1.285 . S
C174 H194 0.929 . S
C175 C172 1.461 . S
C175 C174 1.474 . S
C176 C171 1.342 . S
C176 C174 1.285 . S
C176 H195 0.930 . S
C177 C180 1.424 . S
C177 C182 1.245 . S
C177 C183 1.428 . S
C178 C181 1.260 . S
C178 C182 1.477 . S
C178 H196 0.932 . S
C179 C180 1.384 . S
C179 C181 1.479 . S
C179 H197 0.929 . S
C180 C177 1.424 . S
C180 C179 1.384 . S
C180 H198 0.928 . S
C181 C178 1.260 . S
C181 C179 1.479 . S
C182 C177 1.245 . S
C182 C178 1.477 . S
C182 H199 0.932 . S
C183 U166 2.882 . S
C183 C177 1.428 . S
C183 O186 1.301 . S
C183 O187 1.282 . S
O184 U166 2.441 1_556 S
O184 C170 1.249 . S
O185 U166 2.420 1_556 S
O185 C170 1.202 . S
O186 U166 2.455 . S
O186 C183 1.301 . S
O187 U166 2.449 . S
O187 C183 1.282 . S
H188 C161 0.931 . S
H189 C163 0.929 . S
H190 C164 0.930 . S
H191 C165 0.931 . S
H192 C172 0.932 . S
H193 C173 0.930 1_556 S
H194 C174 0.929 . S
H195 C176 0.930 . S
H196 C178 0.932 . S
H197 C179 0.929 . S
H198 C180 0.928 . S
H199 C182 0.932 . S
C200 C201 1.264 . S
C200 C205 1.479 . S
C200 C210 1.465 . S
C201 C200 1.264 . S
C201 C203 1.339 . S
C201 H228 0.931 . S
C202 C203 1.395 . S
C202 C204 1.320 . S
C203 C201 1.339 . S
C203 C202 1.395 . S
C203 H229 0.929 . S
C204 C202 1.320 . S
C204 C205 1.405 . S
C204 H230 0.924 1_455 S
C205 C200 1.479 . S
C205 C204 1.405 . S
C205 H231 0.931 . S
U206 O207 2.454 . S
U206 O208 2.458 . S
U206 C209 2.984 . S
U206 C210 2.847 1_554 S
U206 C223 2.882 . S
U206 O224 2.441 1_554 S
U206 O225 2.420 1_554 S
U206 O226 2.455 . S
U206 O227 2.449 . S
O207 U206 2.454 . S
O207 C209 1.353 . S
O208 U206 2.458 . S
O208 C209 1.286 . S
C209 U206 2.984 . S
C209 O207 1.353 . S
C209 O208 1.286 . S
C209 C211 1.363 . S
C210 C200 1.465 . S
C210 U206 2.847 1_556 S
C210 O224 1.249 . S
C210 O225 1.202 . S
C211 C209 1.363 . S
C211 C213 1.408 . S
C211 C216 1.342 . S
C212 C213 1.310 . S
C212 C215 1.462 . S
C212 H232 0.932 . S
C213 C211 1.408 . S
C213 C212 1.310 . S
C213 H233 0.930 1_554 S
C214 C215 1.474 1_655 S
C214 C216 1.286 1_655 S
C214 H234 0.929 . S
C215 C212 1.462 . S
C215 C214 1.474 1_455 S
C216 C211 1.342 . S
C216 C214 1.286 1_455 S
C216 H235 0.933 . S
C217 C220 1.424 . S
C217 C222 1.245 . S
C217 C223 1.428 . S
C218 C221 1.260 . S
C218 C222 1.477 . S
C218 H236 0.932 . S
C219 C220 1.384 . S
C219 C221 1.479 . S
C219 H237 0.929 . S
C220 C217 1.424 . S
C220 C219 1.384 . S
C220 H238 0.928 . S
C221 C218 1.260 . S
C221 C219 1.479 . S
C222 C217 1.245 . S
C222 C218 1.477 . S
C222 H239 0.932 . S
C223 U206 2.882 . S
C223 C217 1.428 . S
C223 O226 1.301 . S
C223 O227 1.282 . S
O224 U206 2.441 1_556 S
O224 C210 1.249 . S
O225 U206 2.420 1_556 S
O225 C210 1.202 . S
O226 U206 2.455 . S
O226 C223 1.301 . S
O227 U206 2.449 . S
O227 C223 1.282 . S
H228 C201 0.931 . S
H229 C203 0.929 . S
H230 C204 0.924 1_655 S
H231 C205 0.931 . S
H232 C212 0.932 . S
H233 C213 0.930 1_556 S
H234 C214 0.929 . S
H235 C216 0.933 . S
H236 C218 0.932 . S
H237 C219 0.929 . S
H238 C220 0.928 . S
H239 C222 0.932 . S
C240 C241 1.264 . S
C240 C245 1.479 . S
C240 C250 1.465 . S
C241 C240 1.264 . S
C241 C243 1.339 . S
C241 H268 0.931 . S
C242 C243 1.395 . S
C242 C244 1.320 . S
C243 C241 1.339 . S
C243 C242 1.395 . S
C243 H269 0.929 . S
C244 C242 1.320 . S
C244 C245 1.405 . S
C244 H270 0.930 . S
C245 C240 1.479 . S
C245 C244 1.405 . S
C245 H271 0.931 . S
U246 O247 2.454 . S
U246 O248 2.458 . S
U246 C249 2.984 . S
U246 C250 2.847 1_554 S
U246 C263 2.882 . S
U246 O264 2.441 1_554 S
U246 O265 2.420 1_554 S
U246 O266 2.455 . S
U246 O267 2.449 . S
O247 U246 2.454 . S
O247 C249 1.353 . S
O248 U246 2.458 . S
O248 C249 1.286 . S
C249 U246 2.984 . S
C249 O247 1.353 . S
C249 O248 1.286 . S
C249 C251 1.363 . S
C250 C240 1.465 . S
C250 U246 2.847 1_556 S
C250 O264 1.249 . S
C250 O265 1.202 . S
C251 C249 1.363 . S
C251 C253 1.408 . S
C251 C256 1.342 . S
C252 C253 1.310 . S
C252 C255 1.461 . S
C252 H272 0.932 . S
C253 C251 1.408 . S
C253 C252 1.310 . S
C253 H273 0.930 1_554 S
C254 C255 1.474 . S
C254 C256 1.285 . S
C254 H274 0.929 . S
C255 C252 1.461 . S
C255 C254 1.474 . S
C256 C251 1.342 . S
C256 C254 1.285 . S
C256 H275 0.930 . S
C257 C260 1.424 . S
C257 C262 1.245 . S
C257 C263 1.428 . S
C258 C261 1.260 . S
C258 C262 1.477 . S
C258 H276 0.932 . S
C259 C260 1.384 . S
C259 C261 1.479 . S
C259 H277 0.929 . S
C260 C257 1.424 . S
C260 C259 1.384 . S
C260 H278 0.928 . S
C261 C258 1.260 . S
C261 C259 1.479 . S
C262 C257 1.245 . S
C262 C258 1.477 . S
C262 H279 0.932 . S
C263 U246 2.882 . S
C263 C257 1.428 . S
C263 O266 1.301 . S
C263 O267 1.282 . S
O264 U246 2.441 1_556 S
O264 C250 1.249 . S
O265 U246 2.420 1_556 S
O265 C250 1.202 . S
O266 U246 2.455 . S
O266 C263 1.301 . S
O267 U246 2.449 . S
O267 C263 1.282 . S
H268 C241 0.931 . S
H269 C243 0.929 . S
H270 C244 0.930 . S
H271 C245 0.931 . S
H272 C252 0.932 . S
H273 C253 0.930 1_556 S
H274 C254 0.929 . S
H275 C256 0.930 . S
H276 C258 0.932 . S
H277 C259 0.929 . S
H278 C260 0.928 . S
H279 C262 0.932 . S
C280 C281 1.264 . S
C280 C285 1.479 . S
C280 C290 1.465 . S
C281 C280 1.264 . S
C281 C283 1.339 . S
C281 H308 0.931 . S
C282 C283 1.395 . S
C282 C284 1.320 . S
C283 C281 1.339 . S
C283 C282 1.395 . S
C283 H309 0.929 . S
C284 C282 1.320 . S
C284 C285 1.405 . S
C284 H310 0.930 . S
C285 C280 1.479 . S
C285 C284 1.405 . S
C285 H311 0.931 . S
U286 O287 2.454 . S
U286 O288 2.458 . S
U286 C289 2.984 . S
U286 C290 2.847 1_554 S
U286 C303 2.882 . S
U286 O304 2.441 1_554 S
U286 O305 2.420 1_554 S
U286 O306 2.455 . S
U286 O307 2.449 . S
O287 U286 2.454 . S
O287 C289 1.353 . S
O288 U286 2.458 . S
O288 C289 1.286 . S
C289 U286 2.984 . S
C289 O287 1.353 . S
C289 O288 1.286 . S
C289 C291 1.363 . S
C290 C280 1.465 . S
C290 U286 2.847 1_556 S
C290 O304 1.249 . S
C290 O305 1.202 . S
C291 C289 1.363 . S
C291 C293 1.408 . S
C291 C296 1.342 . S
C292 C293 1.310 . S
C292 C295 1.461 . S
C292 H312 0.932 . S
C293 C291 1.408 . S
C293 C292 1.310 . S
C293 H313 0.930 1_554 S
C294 C295 1.474 . S
C294 C296 1.285 . S
C294 H314 0.929 . S
C295 C292 1.461 . S
C295 C294 1.474 . S
C296 C291 1.342 . S
C296 C294 1.285 . S
C296 H315 0.930 . S
C297 C300 1.424 . S
C297 C302 1.245 . S
C297 C303 1.428 . S
C298 C301 1.260 . S
C298 C302 1.477 . S
C298 H316 0.932 . S
C299 C300 1.384 . S
C299 C301 1.479 . S
C299 H317 0.929 . S
C300 C297 1.424 . S
C300 C299 1.384 . S
C300 H318 0.928 . S
C301 C298 1.260 . S
C301 C299 1.479 . S
C302 C297 1.245 . S
C302 C298 1.477 . S
C302 H319 0.932 . S
C303 U286 2.882 . S
C303 C297 1.428 . S
C303 O306 1.301 . S
C303 O307 1.282 . S
O304 U286 2.441 1_556 S
O304 C290 1.249 . S
O305 U286 2.420 1_556 S
O305 C290 1.202 . S
O306 U286 2.455 . S
O306 C303 1.301 . S
O307 U286 2.449 . S
O307 C303 1.282 . S
H308 C281 0.931 . S
H309 C283 0.929 . S
H310 C284 0.930 . S
H311 C285 0.931 . S
H312 C292 0.932 . S
H313 C293 0.930 1_556 S
H314 C294 0.929 . S
H315 C296 0.930 . S
H316 C298 0.932 . S
H317 C299 0.929 . S
H318 C300 0.928 . S
H319 C302 0.932 . S
La320 C322 2.928 . S
La320 O340 2.521 . S
La320 O341 2.628 . S
La320 O342 2.554 . S
La320 O343 2.757 1_565 S
La320 O344 2.470 . S
La320 O349 2.482 1_455 S
La320 O351 2.503 1_565 S
La321 C331 2.928 . S
La321 O343 2.482 1_655 S
La321 O345 2.503 1_545 S
La321 O346 2.521 . S
La321 O347 2.653 . S
La321 O348 2.554 . S
La321 O349 2.757 1_545 S
La321 O350 2.470 . S
C322 La320 2.928 . S
C322 C323 1.503 . S
C322 O340 1.261 . S
C322 O341 1.243 . S
C323 C322 1.503 . S
C323 C324 1.394 . S
C323 C328 1.373 . S
C324 C323 1.394 . S
C324 C325 1.380 . S
C324 H352 0.930 . S
C325 C324 1.380 . S
C325 C326 1.376 . S
C325 H353 0.930 . S
C326 C325 1.376 . S
C326 C327 1.370 . S
C327 C326 1.370 . S
C327 C328 1.396 . S
C327 H354 0.929 1_455 S
C328 C323 1.373 . S
C328 C327 1.396 . S
C328 H355 0.929 1_455 S
C329 O342 1.240 1_545 S
C329 O343 1.289 . S
C330 O344 1.258 1_655 S
C330 O345 1.256 . S
C331 La321 2.928 . S
C331 C332 1.503 . S
C331 O346 1.261 . S
C331 O347 1.305 . S
C332 C331 1.503 . S
C332 C333 1.394 . S
C332 C337 1.373 . S
C333 C332 1.394 . S
C333 C334 1.380 . S
C333 H356 0.930 . S
C334 C333 1.380 . S
C334 C335 1.376 . S
C334 H357 0.930 . S
C335 C334 1.376 . S
C335 C336 1.370 . S
C336 C335 1.370 . S
C336 C337 1.396 . S
C336 H358 0.929 1_655 S
C337 C332 1.373 . S
C337 C336 1.396 . S
C337 H359 0.929 1_655 S
C338 O348 1.240 . S
C338 O349 1.289 1_545 S
C339 O350 1.258 1_455 S
C339 O351 1.256 . S
O340 La320 2.521 . S
O340 C322 1.261 . S
O341 La320 2.628 . S
O341 C322 1.243 . S
O342 La320 2.554 . S
O342 C329 1.240 1_565 S
O343 La320 2.757 1_545 S
O343 La321 2.482 1_455 S
O343 C329 1.289 . S
O344 La320 2.470 . S
O344 C330 1.258 1_455 S
O345 La321 2.503 1_565 S
O345 C330 1.256 . S
O346 La321 2.521 . S
O346 C331 1.261 . S
O347 La321 2.653 . S
O347 C331 1.305 . S
O348 La321 2.554 . S
O348 C338 1.240 . S
O349 La320 2.482 1_655 S
O349 La321 2.757 1_565 S
O349 C338 1.289 1_565 S
O350 La321 2.470 . S
O350 C339 1.258 1_655 S
O351 La320 2.503 1_545 S
O351 C339 1.256 . S
H352 C324 0.930 . S
H353 C325 0.930 . S
H354 C327 0.929 1_655 S
H355 C328 0.929 1_655 S
H356 C333 0.930 . S
H357 C334 0.930 . S
H358 C336 0.929 1_455 S
H359 C337 0.929 1_455 S
La360 C362 2.928 . S
La360 O380 2.521 . S
La360 O381 2.628 . S
La360 O382 2.554 . S
La360 O383 2.757 . S
La360 O384 2.470 . S
La360 O389 2.482 1_545 S
La360 O391 2.503 . S
La361 C371 2.928 . S
La361 O383 2.482 1_565 S
La361 O385 2.503 . S
La361 O386 2.521 . S
La361 O387 2.628 1_565 S
La361 O388 2.554 . S
La361 O389 2.757 . S
La361 O390 2.470 . S
C362 La360 2.928 . S
C362 C363 1.503 . S
C362 O380 1.261 . S
C362 O381 1.243 . S
C363 C362 1.503 . S
C363 C364 1.394 . S
C363 C368 1.373 . S
C364 C363 1.394 . S
C364 C365 1.380 . S
C364 H392 0.930 . S
C365 C364 1.380 . S
C365 C366 1.376 . S
C365 H393 0.930 . S
C366 C365 1.376 . S
C366 C367 1.370 . S
C367 C366 1.370 . S
C367 C368 1.396 . S
C367 H394 0.929 1_545 S
C368 C363 1.373 . S
C368 C367 1.396 . S
C368 H395 0.929 1_545 S
C369 O382 1.240 . S
C369 O383 1.289 . S
C370 O384 1.258 1_565 S
C370 O385 1.256 . S
C371 La361 2.928 . S
C371 C372 1.503 . S
C371 O386 1.261 . S
C371 O387 1.243 1_565 S
C372 C371 1.503 . S
C372 C373 1.394 . S
C372 C377 1.330 1_565 S
C373 C372 1.394 . S
C373 C374 1.380 . S
C373 H396 0.930 . S
C374 C373 1.380 . S
C374 C375 1.376 . S
C374 H397 0.930 . S
C375 C374 1.376 . S
C375 C376 1.431 . S
C376 C375 1.431 . S
C376 C377 1.389 1_565 S
C376 H398 0.876 1_565 S
C377 C372 1.330 1_545 S
C377 C376 1.389 1_545 S
C377 H399 0.980 . S
C378 O388 1.240 . S
C378 O389 1.289 . S
C379 O390 1.258 1_545 S
C379 O391 1.256 . S
O380 La360 2.521 . S
O380 C362 1.261 . S
O381 La360 2.628 . S
O381 C362 1.243 . S
O382 La360 2.554 . S
O382 C369 1.240 . S
O383 La360 2.757 . S
O383 La361 2.482 1_545 S
O383 C369 1.289 . S
O384 La360 2.470 . S
O384 C370 1.258 1_545 S
O385 La361 2.503 . S
O385 C370 1.256 . S
O386 La361 2.521 . S
O386 C371 1.261 . S
O387 La361 2.628 1_545 S
O387 C371 1.243 1_545 S
O388 La361 2.554 . S
O388 C378 1.240 . S
O389 La360 2.482 1_565 S
O389 La361 2.757 . S
O389 C378 1.289 . S
O390 La361 2.470 . S
O390 C379 1.258 1_565 S
O391 La360 2.503 . S
O391 C379 1.256 . S
H392 C364 0.930 . S
H393 C365 0.930 . S
H394 C367 0.929 1_565 S
H395 C368 0.929 1_565 S
H396 C373 0.930 . S
H397 C374 0.930 . S
H398 C376 0.876 1_545 S
H399 C377 0.980 . S
La400 C402 2.928 . S
La400 O420 2.521 . S
La400 O421 2.628 . S
La400 O422 2.554 . S
La400 O423 2.757 . S
La400 O424 2.470 . S
La400 O429 2.482 . S
La400 O431 2.503 . S
La401 C411 2.928 . S
La401 O423 2.482 . S
La401 O425 2.503 . S
La401 O426 2.521 . S
La401 O427 2.628 . S
La401 O428 2.554 . S
La401 O429 2.757 . S
La401 O430 2.470 . S
C402 La400 2.928 . S
C402 C403 1.503 . S
C402 O420 1.261 . S
C402 O421 1.243 . S
C403 C402 1.503 . S
C403 C404 1.394 . S
C403 C408 1.373 . S
C404 C403 1.394 . S
C404 C405 1.380 . S
C404 H432 0.930 . S
C405 C404 1.380 . S
C405 C406 1.376 . S
C405 H433 0.930 . S
C406 C405 1.376 . S
C406 C407 1.370 . S
C407 C406 1.370 . S
C407 C408 1.396 . S
C407 H434 0.929 . S
C408 C403 1.373 . S
C408 C407 1.396 . S
C408 H435 0.929 . S
C409 O422 1.240 . S
C409 O423 1.289 . S
C410 O424 1.258 . S
C410 O425 1.256 . S
C411 La401 2.928 . S
C411 C412 1.503 . S
C411 O426 1.261 . S
C411 O427 1.243 . S
C412 C411 1.503 . S
C412 C413 1.394 . S
C412 C417 1.373 . S
C413 C412 1.394 . S
C413 C414 1.380 . S
C413 H436 0.930 . S
C414 C413 1.380 . S
C414 C415 1.376 . S
C414 H437 0.930 . S
C415 C414 1.376 . S
C415 C416 1.370 . S
C416 C415 1.370 . S
C416 C417 1.396 . S
C416 H438 0.929 . S
C417 C412 1.373 . S
C417 C416 1.396 . S
C417 H439 0.929 . S
C418 O428 1.240 . S
C418 O429 1.289 . S
C419 O430 1.258 . S
C419 O431 1.256 . S
O420 La400 2.521 . S
O420 C402 1.261 . S
O421 La400 2.628 . S
O421 C402 1.243 . S
O422 La400 2.554 . S
O422 C409 1.240 . S
O423 La400 2.757 . S
O423 La401 2.482 . S
O423 C409 1.289 . S
O424 La400 2.470 . S
O424 C410 1.258 . S
O425 La401 2.503 . S
O425 C410 1.256 . S
O426 La401 2.521 . S
O426 C411 1.261 . S
O427 La401 2.628 . S
O427 C411 1.243 . S
O428 La401 2.554 . S
O428 C418 1.240 . S
O429 La400 2.482 . S
O429 La401 2.757 . S
O429 C418 1.289 . S
O430 La401 2.470 . S
O430 C419 1.258 . S
O431 La400 2.503 . S
O431 C419 1.256 . S
H432 C404 0.930 . S
H433 C405 0.930 . S
H434 C407 0.929 . S
H435 C408 0.929 . S
H436 C413 0.930 . S
H437 C414 0.930 . S
H438 C416 0.929 . S
H439 C417 0.929 . S
La440 C442 2.928 . S
La440 O460 2.521 . S
La440 O461 2.628 . S
La440 O462 2.554 . S
La440 O463 2.757 1_655 S
La440 O464 2.470 . S
La440 O469 2.482 . S
La440 O471 2.503 1_655 S
La441 C451 2.928 . S
La441 O463 2.482 . S
La441 O465 2.503 1_455 S
La441 O466 2.521 . S
La441 O467 2.628 . S
La441 O468 2.554 . S
La441 O469 2.757 1_455 S
La441 O470 2.470 . S
C442 La440 2.928 . S
C442 C443 1.503 . S
C442 O460 1.261 . S
C442 O461 1.243 . S
C443 C442 1.503 . S
C443 C444 1.394 . S
C443 C448 1.373 . S
C444 C443 1.394 . S
C444 C445 1.380 . S
C444 H472 0.930 . S
C445 C444 1.380 . S
C445 C446 1.376 . S
C445 H473 0.930 . S
C446 C445 1.376 . S
C446 C447 1.370 . S
C447 C446 1.370 . S
C447 C448 1.396 . S
C447 H474 0.929 . S
C448 C443 1.373 . S
C448 C447 1.396 . S
C448 H475 0.929 . S
C449 O462 1.240 . S
C449 O463 1.289 1_655 S
C450 O464 1.258 . S
C450 O465 1.256 . S
C451 La441 2.928 . S
C451 C452 1.503 . S
C451 O466 1.261 . S
C451 O467 1.243 . S
C452 C451 1.503 . S
C452 C453 1.394 . S
C452 C457 1.373 . S
C453 C452 1.394 . S
C453 C454 1.380 . S
C453 H476 0.930 . S
C454 C453 1.380 . S
C454 C455 1.376 . S
C454 H477 0.930 . S
C455 C454 1.376 . S
C455 C456 1.370 . S
C456 C455 1.370 . S
C456 C457 1.396 . S
C456 H478 0.929 . S
C457 C452 1.373 . S
C457 C456 1.396 . S
C457 H479 0.929 . S
C458 O468 1.240 . S
C458 O469 1.289 1_455 S
C459 O470 1.258 . S
C459 O471 1.256 . S
O460 La440 2.521 . S
O460 C442 1.261 . S
O461 La440 2.628 . S
O461 C442 1.243 . S
O462 La440 2.554 . S
O462 C449 1.240 . S
O463 La440 2.757 1_455 S
O463 La441 2.482 . S
O463 C449 1.289 1_455 S
O464 La440 2.470 . S
O464 C450 1.258 . S
O465 La441 2.503 1_655 S
O465 C450 1.256 . S
O466 La441 2.521 . S
O466 C451 1.261 . S
O467 La441 2.628 . S
O467 C451 1.243 . S
O468 La441 2.554 . S
O468 C458 1.240 . S
O469 La440 2.482 . S
O469 La441 2.757 1_655 S
O469 C458 1.289 1_655 S
O470 La441 2.470 . S
O470 C459 1.258 . S
O471 La440 2.503 1_455 S
O471 C459 1.256 . S
H472 C444 0.930 . S
H473 C445 0.930 . S
H474 C447 0.929 . S
H475 C448 0.929 . S
H476 C453 0.930 . S
H477 C454 0.930 . S
H478 C456 0.929 . S
H479 C457 0.929 . S
H480 C498 0.951 . S
H481 C500 0.951 . S
H482 C502 0.950 . S
H483 C503 0.950 . S
H484 C505 0.950 . S
H485 C508 0.950 . S
H486 C509 0.950 . S
H487 C511 0.950 . S
H488 C512 0.950 . S
H489 C513 0.951 . S
H490 C515 0.951 . S
H491 C517 0.950 . S
H492 C518 0.950 . S
H493 C520 0.950 . S
H494 C523 0.950 . S
H495 C524 0.950 . S
H496 C526 0.950 . S
H497 C527 0.950 . S
C498 H480 0.951 . S
C498 C499 1.366 . S
C498 C500 1.388 . S
C499 C498 1.366 . S
C499 C503 1.385 1_545 S
C500 H481 0.951 . S
C500 C498 1.388 . S
C500 C501 1.366 . S
C501 C500 1.366 . S
C501 C502 1.414 1_545 S
C501 C504 1.499 . S
C502 H482 0.950 . S
C502 C501 1.414 1_565 S
C502 C503 1.374 . S
C503 H483 0.950 . S
C503 C499 1.385 1_565 S
C503 C502 1.374 . S
C504 C501 1.499 . S
C504 C505 1.373 . S
C504 C506 1.389 . S
C505 H484 0.950 . S
C505 C504 1.373 . S
C505 C521 1.377 . S
C506 C504 1.389 . S
C506 C507 1.524 . S
C506 C520 1.377 . S
C507 C506 1.524 . S
C507 C508 1.397 1_545 S
C507 C512 1.363 . S
C508 H485 0.950 . S
C508 C507 1.397 1_565 S
C508 C509 1.334 . S
C509 H486 0.950 . S
C509 C508 1.334 . S
C509 C510 1.287 1_565 S
C510 C509 1.287 1_545 S
C510 C511 1.524 . S
C510 H529 0.913 . S
C511 H487 0.950 . S
C511 C510 1.524 . S
C511 C512 1.415 . S
C512 H488 0.950 . S
C512 C507 1.363 . S
C512 C511 1.415 . S
C513 H489 0.951 . S
C513 C514 1.366 1_565 S
C513 C515 1.388 . S
C514 C513 1.366 1_545 S
C514 C518 1.385 . S
C515 H490 0.951 . S
C515 C513 1.388 . S
C515 C516 1.366 1_565 S
C516 C515 1.366 1_545 S
C516 C517 1.414 . S
C516 C519 1.499 . S
C517 H491 0.950 . S
C517 C516 1.414 . S
C517 C518 1.374 . S
C518 H492 0.950 . S
C518 C514 1.385 . S
C518 C517 1.374 . S
C519 C516 1.499 . S
C519 C520 1.373 . S
C519 C521 1.389 . S
C520 H493 0.950 . S
C520 C506 1.377 . S
C520 C519 1.373 . S
C521 C505 1.377 . S
C521 C519 1.389 . S
C521 C522 1.524 . S
C522 C521 1.524 . S
C522 C523 1.397 . S
C522 C527 1.363 1_545 S
C523 H494 0.950 . S
C523 C522 1.397 . S
C523 C524 1.334 . S
C524 H495 0.950 . S
C524 C523 1.334 . S
C524 C525 1.287 . S
C525 C524 1.287 . S
C525 C526 1.524 1_545 S
C525 H528 0.999 . S
C526 H496 0.950 . S
C526 C525 1.524 1_565 S
C526 C527 1.415 . S
C527 H497 0.950 . S
C527 C522 1.363 1_565 S
C527 C526 1.415 . S
H528 C525 0.999 . S
H529 C510 0.913 . S
H530 C548 0.951 . S
H531 C550 0.951 . S
H532 C552 0.950 . S
H533 C553 0.950 . S
H534 C555 0.950 . S
H535 C558 0.950 . S
H536 C559 0.950 . S
H537 C561 0.950 . S
H538 C562 0.950 . S
H539 C563 0.951 . S
H540 C565 0.951 . S
H541 C567 0.950 . S
H542 C568 0.950 . S
H543 C570 0.950 . S
H544 C573 0.950 . S
H545 C574 0.950 . S
H546 C576 0.950 . S
H547 C577 0.950 . S
C548 H530 0.951 . S
C548 C549 1.366 . S
C548 C550 1.388 . S
C549 C548 1.366 . S
C549 C553 1.385 . S
C550 H531 0.951 . S
C550 C548 1.388 . S
C550 C551 1.366 . S
C551 C550 1.366 . S
C551 C552 1.414 . S
C551 C554 1.499 . S
C552 H532 0.950 . S
C552 C551 1.414 . S
C552 C553 1.374 . S
C553 H533 0.950 . S
C553 C549 1.385 . S
C553 C552 1.374 . S
C554 C551 1.499 . S
C554 C555 1.373 . S
C554 C556 1.389 . S
C555 H534 0.950 . S
C555 C554 1.373 . S
C555 C571 1.377 . S
C556 C554 1.389 . S
C556 C557 1.524 . S
C556 C570 1.377 . S
C557 C556 1.524 . S
C557 C558 1.397 . S
C557 C562 1.363 . S
C558 H535 0.950 . S
C558 C557 1.397 . S
C558 C559 1.334 . S
C559 H536 0.950 . S
C559 C558 1.334 . S
C559 C560 1.287 . S
C560 C559 1.287 . S
C560 C561 1.524 . S
C560 H579 0.913 . S
C561 H537 0.950 . S
C561 C560 1.524 . S
C561 C562 1.415 . S
C562 H538 0.950 . S
C562 C557 1.363 . S
C562 C561 1.415 . S
C563 H539 0.951 . S
C563 C564 1.366 . S
C563 C565 1.388 . S
C564 C563 1.366 . S
C564 C568 1.385 . S
C565 H540 0.951 . S
C565 C563 1.388 . S
C565 C566 1.366 . S
C566 C565 1.366 . S
C566 C567 1.414 . S
C566 C569 1.499 . S
C567 H541 0.950 . S
C567 C566 1.414 . S
C567 C568 1.374 . S
C568 H542 0.950 . S
C568 C564 1.385 . S
C568 C567 1.374 . S
C569 C566 1.499 . S
C569 C570 1.373 . S
C569 C571 1.389 . S
C570 H543 0.950 . S
C570 C556 1.377 . S
C570 C569 1.373 . S
C571 C555 1.377 . S
C571 C569 1.389 . S
C571 C572 1.524 . S
C572 C571 1.524 . S
C572 C573 1.397 . S
C572 C577 1.363 . S
C573 H544 0.950 . S
C573 C572 1.397 . S
C573 C574 1.334 . S
C574 H545 0.950 . S
C574 C573 1.334 . S
C574 C575 1.287 . S
C575 C574 1.287 . S
C575 C576 1.524 . S
C575 H578 0.999 . S
C576 H546 0.950 . S
C576 C575 1.524 . S
C576 C577 1.415 . S
C577 H547 0.950 . S
C577 C572 1.363 . S
C577 C576 1.415 . S
H578 C575 0.999 . S
H579 C560 0.913 . S
H580 C598 0.951 . S
H581 C600 0.951 . S
H582 C602 0.950 . S
H583 C603 0.950 . S
H584 C605 0.950 . S
H585 C608 0.950 . S
H586 C609 0.950 . S
H587 C611 0.950 . S
H588 C612 0.950 . S
H589 C613 0.951 . S
H590 C615 0.951 . S
H591 C617 0.950 . S
H592 C618 0.950 . S
H593 C620 0.950 . S
H594 C623 0.950 . S
H595 C624 0.950 . S
H596 C626 0.950 . S
H597 C627 0.950 . S
C598 H580 0.951 . S
C598 C599 1.366 . S
C598 C600 1.388 . S
C599 C598 1.366 . S
C599 C603 1.385 . S
C600 H581 0.951 . S
C600 C598 1.388 . S
C600 C601 1.366 . S
C601 C600 1.366 . S
C601 C602 1.414 . S
C601 C604 1.499 . S
C602 H582 0.950 . S
C602 C601 1.414 . S
C602 C603 1.374 . S
C603 H583 0.950 . S
C603 C599 1.385 . S
C603 C602 1.374 . S
C604 C601 1.499 . S
C604 C605 1.373 . S
C604 C606 1.389 . S
C605 H584 0.950 . S
C605 C604 1.373 . S
C605 C621 1.377 . S
C606 C604 1.389 . S
C606 C607 1.524 . S
C606 C620 1.377 . S
C607 C606 1.524 . S
C607 C608 1.397 . S
C607 C612 1.363 . S
C608 H585 0.950 . S
C608 C607 1.397 . S
C608 C609 1.334 . S
C609 H586 0.950 . S
C609 C608 1.334 . S
C609 C610 1.287 . S
C610 C609 1.287 . S
C610 C611 1.524 . S
C610 H629 0.913 . S
C611 H587 0.950 . S
C611 C610 1.524 . S
C611 C612 1.415 . S
C612 H588 0.950 . S
C612 C607 1.363 . S
C612 C611 1.415 . S
C613 H589 0.951 . S
C613 C614 1.366 . S
C613 C615 1.388 . S
C614 C613 1.366 . S
C614 C618 1.385 . S
C615 H590 0.951 . S
C615 C613 1.388 . S
C615 C616 1.366 . S
C616 C615 1.366 . S
C616 C617 1.414 . S
C616 C619 1.499 . S
C617 H591 0.950 . S
C617 C616 1.414 . S
C617 C618 1.374 . S
C618 H592 0.950 . S
C618 C614 1.385 . S
C618 C617 1.374 . S
C619 C616 1.499 . S
C619 C620 1.373 . S
C619 C621 1.389 . S
C620 H593 0.950 . S
C620 C606 1.377 . S
C620 C619 1.373 . S
C621 C605 1.377 . S
C621 C619 1.389 . S
C621 C622 1.524 . S
C622 C621 1.524 . S
C622 C623 1.397 . S
C622 C627 1.363 . S
C623 H594 0.950 . S
C623 C622 1.397 . S
C623 C624 1.334 . S
C624 H595 0.950 . S
C624 C623 1.334 . S
C624 C625 1.287 . S
C625 C624 1.287 . S
C625 C626 1.524 . S
C625 H628 0.999 . S
C626 H596 0.950 . S
C626 C625 1.524 . S
C626 C627 1.415 . S
C627 H597 0.950 . S
C627 C622 1.363 . S
C627 C626 1.415 . S
H628 C625 0.999 . S
H629 C610 0.913 . S
H630 C648 0.951 . S
H631 C650 0.951 . S
H632 C652 0.950 . S
H633 C653 0.950 . S
H634 C655 0.950 . S
H635 C658 0.950 1_655 S
H636 C659 0.950 . S
H637 C661 0.950 . S
H638 C662 0.950 . S
H639 C663 0.951 . S
H640 C665 0.951 . S
H641 C667 0.950 . S
H642 C668 0.950 . S
H643 C670 0.950 . S
H644 C673 0.950 1_455 S
H645 C674 0.950 . S
H646 C676 0.950 . S
H647 C677 0.950 . S
C648 H630 0.951 . S
C648 C649 1.370 . S
C648 C650 1.388 . S
C649 C648 1.370 . S
C649 C653 1.381 1_455 S
C650 H631 0.951 . S
C650 C648 1.388 . S
C650 C651 1.364 . S
C651 C650 1.364 . S
C651 C652 1.415 1_455 S
C651 C654 1.498 1_455 S
C652 H632 0.950 . S
C652 C651 1.415 1_655 S
C652 C653 1.374 . S
C653 H633 0.950 . S
C653 C649 1.381 1_655 S
C653 C652 1.374 . S
C654 C651 1.498 1_655 S
C654 C655 1.383 . S
C654 C656 1.380 1_655 S
C655 H634 0.950 . S
C655 C654 1.383 . S
C655 C671 1.377 . S
C656 C654 1.380 1_455 S
C656 C657 1.524 . S
C656 C670 1.377 . S
C657 C656 1.524 . S
C657 C658 1.397 . S
C657 C662 1.363 . S
C658 H635 0.950 1_455 S
C658 C657 1.397 . S
C658 C659 1.334 . S
C659 H636 0.950 . S
C659 C658 1.334 . S
C659 C660 1.287 . S
C660 C659 1.287 . S
C660 C661 1.524 . S
C660 H679 0.913 . S
C661 H637 0.950 . S
C661 C660 1.524 . S
C661 C662 1.415 . S
C662 H638 0.950 . S
C662 C657 1.363 . S
C662 C661 1.415 . S
C663 H639 0.951 . S
C663 C664 1.328 1_655 S
C663 C665 1.388 . S
C664 C663 1.328 1_455 S
C664 C668 1.423 . S
C665 H640 0.951 . S
C665 C663 1.388 . S
C665 C666 1.323 1_655 S
C666 C665 1.323 1_455 S
C666 C667 1.456 . S
C666 C669 1.501 . S
C667 H641 0.950 . S
C667 C666 1.456 . S
C667 C668 1.374 . S
C668 H642 0.950 . S
C668 C664 1.423 . S
C668 C667 1.374 . S
C669 C666 1.501 . S
C669 C670 1.373 . S
C669 C671 1.389 1_455 S
C670 H643 0.950 . S
C670 C656 1.377 . S
C670 C669 1.373 . S
C671 C655 1.377 . S
C671 C669 1.389 1_655 S
C671 C672 1.524 . S
C672 C671 1.524 . S
C672 C673 1.397 . S
C672 C677 1.363 . S
C673 H644 0.950 1_655 S
C673 C672 1.397 . S
C673 C674 1.334 . S
C674 H645 0.950 . S
C674 C673 1.334 . S
C674 C675 1.287 . S
C675 C674 1.287 . S
C675 C676 1.524 . S
C675 H678 0.999 . S
C676 H646 0.950 . S
C676 C675 1.524 . S
C676 C677 1.415 . S
C677 H647 0.950 . S
C677 C672 1.363 . S
C677 C676 1.415 . S
H678 C675 0.999 . S
H679 C660 0.913 . S
H680 C698 0.943 1_545 S
H681 C700 0.954 . S
H682 C702 0.950 . S
H683 C703 0.950 . S
H684 C705 0.950 . S
H685 C708 0.950 . S
H686 C709 0.950 . S
H687 C711 0.950 . S
H688 C712 0.950 . S
H689 C713 0.951 . S
H690 C715 0.951 . S
H691 C717 0.950 . S
H692 C718 0.950 . S
H693 C720 0.950 . S
H694 C723 0.950 . S
H695 C724 0.950 . S
H696 C726 0.950 . S
H697 C727 0.950 . S
C698 H680 0.943 1_565 S
C698 C699 1.378 . S
C698 C700 1.386 1_565 S
C699 C698 1.378 . S
C699 C703 1.385 . S
C700 H681 0.954 . S
C700 C698 1.386 1_545 S
C700 C701 1.363 1_545 S
C701 C700 1.363 1_565 S
C701 C702 1.414 . S
C701 C704 1.499 . S
C702 H682 0.950 . S
C702 C701 1.414 . S
C702 C703 1.374 . S
C703 H683 0.950 . S
C703 C699 1.385 . S
C703 C702 1.374 . S
C704 C701 1.499 . S
C704 C705 1.373 1_554 S
C704 C706 1.389 1_564 S
C705 H684 0.950 . S
C705 C704 1.373 1_556 S
C705 C721 1.377 . S
C706 C704 1.389 1_546 S
C706 C707 1.524 1_556 S
C706 C720 1.377 . S
C707 C706 1.524 1_554 S
C707 C708 1.397 . S
C707 C712 1.363 . S
C708 H685 0.950 . S
C708 C707 1.397 . S
C708 C709 1.334 . S
C709 H686 0.950 . S
C709 C708 1.334 . S
C709 C710 1.287 . S
C710 C709 1.287 . S
C710 C711 1.524 . S
C710 H729 0.913 . S
C711 H687 0.950 . S
C711 C710 1.524 . S
C711 C712 1.415 . S
C712 H688 0.950 . S
C712 C707 1.363 . S
C712 C711 1.415 . S
C713 H689 0.951 . S
C713 C714 1.359 1_565 S
C713 C715 1.388 . S
C714 C713 1.359 1_545 S
C714 C718 1.390 . S
C715 H690 0.951 . S
C715 C713 1.388 . S
C715 C716 1.366 . S
C716 C715 1.366 . S
C716 C717 1.414 1_565 S
C716 C719 1.499 . S
C717 H691 0.950 . S
C717 C716 1.414 1_545 S
C717 C718 1.374 . S
C718 H692 0.950 . S
C718 C714 1.390 . S
C718 C717 1.374 . S
C719 C716 1.499 . S
C719 C720 1.373 1_565 S
C719 C721 1.389 . S
C720 H693 0.950 . S
C720 C706 1.377 . S
C720 C719 1.373 1_545 S
C721 C705 1.377 . S
C721 C719 1.389 . S
C721 C722 1.524 . S
C722 C721 1.524 . S
C722 C723 1.397 . S
C722 C727 1.363 . S
C723 H694 0.950 . S
C723 C722 1.397 . S
C723 C724 1.334 . S
C724 H695 0.950 . S
C724 C723 1.334 . S
C724 C725 1.287 . S
C725 C724 1.287 . S
C725 C726 1.524 . S
C725 H728 0.999 . S
C726 H696 0.950 . S
C726 C725 1.524 . S
C726 C727 1.415 . S
C727 H697 0.950 . S
C727 C722 1.363 . S
C727 C726 1.415 . S
H728 C725 0.999 . S
H729 C710 0.913 . S
H730 C748 0.951 . S
H731 C750 0.951 . S
H732 C752 0.950 . S
H733 C753 0.950 . S
H734 C755 0.950 . S
H735 C758 0.950 . S
H736 C759 0.950 . S
H737 C761 0.950 . S
H738 C762 0.950 . S
H739 C763 0.951 . S
H740 C765 0.951 . S
H741 C767 0.950 . S
H742 C768 0.950 . S
H743 C770 0.950 . S
H744 C773 0.950 . S
H745 C774 0.950 . S
H746 C776 0.950 . S
H747 C777 0.950 . S
C748 H730 0.951 . S
C748 C749 1.366 . S
C748 C750 1.388 . S
C749 C748 1.366 . S
C749 C753 1.385 . S
C750 H731 0.951 . S
C750 C748 1.388 . S
C750 C751 1.366 . S
C751 C750 1.366 . S
C751 C752 1.414 . S
C751 C754 1.499 . S
C752 H732 0.950 . S
C752 C751 1.414 . S
C752 C753 1.374 . S
C753 H733 0.950 . S
C753 C749 1.385 . S
C753 C752 1.374 . S
C754 C751 1.499 . S
C754 C755 1.373 1_554 S
C754 C756 1.389 . S
C755 H734 0.950 . S
C755 C754 1.373 1_556 S
C755 C771 1.377 . S
C756 C754 1.389 . S
C756 C757 1.524 . S
C756 C770 1.377 1_554 S
C757 C756 1.524 . S
C757 C758 1.397 . S
C757 C762 1.363 . S
C758 H735 0.950 . S
C758 C757 1.397 . S
C758 C759 1.334 . S
C759 H736 0.950 . S
C759 C758 1.334 . S
C759 C760 1.287 . S
C760 C759 1.287 . S
C760 C761 1.524 . S
C760 H779 0.913 . S
C761 H737 0.950 . S
C761 C760 1.524 . S
C761 C762 1.415 . S
C762 H738 0.950 . S
C762 C757 1.363 . S
C762 C761 1.415 . S
C763 H739 0.951 . S
C763 C764 1.366 . S
C763 C765 1.388 . S
C764 C763 1.366 . S
C764 C768 1.385 . S
C765 H740 0.951 . S
C765 C763 1.388 . S
C765 C766 1.366 . S
C766 C765 1.366 . S
C766 C767 1.414 . S
C766 C769 1.499 . S
C767 H741 0.950 . S
C767 C766 1.414 . S
C767 C768 1.374 . S
C768 H742 0.950 . S
C768 C764 1.385 . S
C768 C767 1.374 . S
C769 C766 1.499 . S
C769 C770 1.373 . S
C769 C771 1.389 . S
C770 H743 0.950 . S
C770 C756 1.377 1_556 S
C770 C769 1.373 . S
C771 C755 1.377 . S
C771 C769 1.389 . S
C771 C772 1.524 . S
C772 C771 1.524 . S
C772 C773 1.397 . S
C772 C777 1.363 . S
C773 H744 0.950 . S
C773 C772 1.397 . S
C773 C774 1.334 . S
C774 H745 0.950 . S
C774 C773 1.334 . S
C774 C775 1.287 . S
C775 C774 1.287 . S
C775 C776 1.524 . S
C775 H778 0.999 . S
C776 H746 0.950 . S
C776 C775 1.524 . S
C776 C777 1.415 . S
C777 H747 0.950 . S
C777 C772 1.363 . S
C777 C776 1.415 . S
H778 C775 0.999 . S
H779 C760 0.913 . S
H780 C798 0.951 . S
H781 C800 0.951 . S
H782 C802 0.950 . S
H783 C803 0.950 . S
H784 C805 0.950 . S
H785 C808 0.950 . S
H786 C809 0.950 . S
H787 C811 0.950 . S
H788 C812 0.950 . S
H789 C813 0.951 . S
H790 C815 0.951 . S
H791 C817 0.950 . S
H792 C818 0.950 . S
H793 C820 0.950 . S
H794 C823 0.950 . S
H795 C824 0.950 . S
H796 C826 0.950 . S
H797 C827 0.950 . S
C798 H780 0.951 . S
C798 C799 1.366 . S
C798 C800 1.388 . S
C799 C798 1.366 . S
C799 C803 1.385 . S
C800 H781 0.951 . S
C800 C798 1.388 . S
C800 C801 1.366 . S
C801 C800 1.366 . S
C801 C802 1.414 . S
C801 C804 1.499 . S
C802 H782 0.950 . S
C802 C801 1.414 . S
C802 C803 1.374 . S
C803 H783 0.950 . S
C803 C799 1.385 . S
C803 C802 1.374 . S
C804 C801 1.499 . S
C804 C805 1.373 1_554 S
C804 C806 1.389 . S
C805 H784 0.950 . S
C805 C804 1.373 1_556 S
C805 C821 1.377 . S
C806 C804 1.389 . S
C806 C807 1.524 . S
C806 C820 1.377 1_554 S
C807 C806 1.524 . S
C807 C808 1.397 . S
C807 C812 1.363 . S
C808 H785 0.950 . S
C808 C807 1.397 . S
C808 C809 1.334 . S
C809 H786 0.950 . S
C809 C808 1.334 . S
C809 C810 1.287 . S
C810 C809 1.287 . S
C810 C811 1.524 . S
C810 H829 0.913 . S
C811 H787 0.950 . S
C811 C810 1.524 . S
C811 C812 1.415 . S
C812 H788 0.950 . S
C812 C807 1.363 . S
C812 C811 1.415 . S
C813 H789 0.951 . S
C813 C814 1.366 . S
C813 C815 1.388 . S
C814 C813 1.366 . S
C814 C818 1.385 . S
C815 H790 0.951 . S
C815 C813 1.388 . S
C815 C816 1.366 . S
C816 C815 1.366 . S
C816 C817 1.414 . S
C816 C819 1.499 . S
C817 H791 0.950 . S
C817 C816 1.414 . S
C817 C818 1.374 . S
C818 H792 0.950 . S
C818 C814 1.385 . S
C818 C817 1.374 . S
C819 C816 1.499 . S
C819 C820 1.373 . S
C819 C821 1.389 . S
C820 H793 0.950 . S
C820 C806 1.377 1_556 S
C820 C819 1.373 . S
C821 C805 1.377 . S
C821 C819 1.389 . S
C821 C822 1.524 . S
C822 C821 1.524 . S
C822 C823 1.397 . S
C822 C827 1.363 . S
C823 H794 0.950 . S
C823 C822 1.397 . S
C823 C824 1.334 . S
C824 H795 0.950 . S
C824 C823 1.334 . S
C824 C825 1.287 . S
C825 C824 1.287 . S
C825 C826 1.524 . S
C825 H828 0.999 . S
C826 H796 0.950 . S
C826 C825 1.524 . S
C826 C827 1.415 . S
C827 H797 0.950 . S
C827 C822 1.363 . S
C827 C826 1.415 . S
H828 C825 0.999 . S
H829 C810 0.913 . S
H830 C848 0.954 . S
H831 C850 0.950 . S
H832 C852 0.953 . S
H833 C853 0.950 . S
H834 C855 0.950 . S
H835 C858 0.950 . S
H836 C859 0.950 . S
H837 C861 0.950 . S
H838 C862 0.950 . S
H839 C863 0.950 1_455 S
H840 C865 0.950 . S
H841 C867 0.950 . S
H842 C868 0.950 . S
H843 C870 0.950 . S
H844 C873 0.950 . S
H845 C874 0.950 . S
H846 C876 0.950 . S
H847 C877 0.950 . S
C848 H830 0.954 . S
C848 C849 1.365 . S
C848 C850 1.387 . S
C849 C848 1.365 . S
C849 C853 1.383 1_655 S
C850 H831 0.950 . S
C850 C848 1.387 . S
C850 C851 1.364 1_655 S
C851 C850 1.364 1_455 S
C851 C852 1.414 . S
C851 C854 1.499 . S
C852 H832 0.953 . S
C852 C851 1.414 . S
C852 C853 1.374 . S
C853 H833 0.950 . S
C853 C849 1.383 1_455 S
C853 C852 1.374 . S
C854 C851 1.499 . S
C854 C855 1.345 1_454 S
C854 C856 1.416 1_554 S
C855 H834 0.950 . S
C855 C854 1.345 1_656 S
C855 C871 1.377 . S
C856 C854 1.416 1_556 S
C856 C857 1.524 1_556 S
C856 C870 1.377 . S
C857 C856 1.524 1_554 S
C857 C858 1.397 . S
C857 C862 1.363 . S
C858 H835 0.950 . S
C858 C857 1.397 . S
C858 C859 1.334 . S
C859 H836 0.950 . S
C859 C858 1.334 . S
C859 C860 1.287 . S
C860 C859 1.287 . S
C860 C861 1.524 . S
C860 H879 0.913 . S
C861 H837 0.950 . S
C861 C860 1.524 . S
C861 C862 1.415 . S
C862 H838 0.950 . S
C862 C857 1.363 . S
C862 C861 1.415 . S
C863 H839 0.950 1_655 S
C863 C864 1.365 . S
C863 C865 1.387 . S
C864 C863 1.365 . S
C864 C868 1.387 . S
C865 H840 0.950 . S
C865 C863 1.387 . S
C865 C866 1.368 . S
C866 C865 1.368 . S
C866 C867 1.414 . S
C866 C869 1.499 . S
C867 H841 0.950 . S
C867 C866 1.414 . S
C867 C868 1.374 . S
C868 H842 0.950 . S
C868 C864 1.387 . S
C868 C867 1.374 . S
C869 C866 1.499 . S
C869 C870 1.373 1_655 S
C869 C871 1.389 . S
C870 H843 0.950 . S
C870 C856 1.377 . S
C870 C869 1.373 1_455 S
C871 C855 1.377 . S
C871 C869 1.389 . S
C871 C872 1.524 . S
C872 C871 1.524 . S
C872 C873 1.397 . S
C872 C877 1.363 . S
C873 H844 0.950 . S
C873 C872 1.397 . S
C873 C874 1.334 . S
C874 H845 0.950 . S
C874 C873 1.334 . S
C874 C875 1.287 . S
C875 C874 1.287 . S
C875 C876 1.524 . S
C875 H878 0.999 . S
C876 H846 0.950 . S
C876 C875 1.524 . S
C876 C877 1.415 . S
C877 H847 0.950 . S
C877 C872 1.363 . S
C877 C876 1.415 . S
H878 C875 0.999 . S
H879 C860 0.913 . S
H880 C898 0.951 . S
H881 C900 0.951 . S
H882 C902 0.950 . S
H883 C903 0.950 . S
H884 C905 0.950 . S
H885 C908 0.950 . S
H886 C909 0.950 . S
H887 C911 0.950 . S
H888 C912 0.950 . S
H889 C913 0.951 . S
H890 C915 0.951 . S
H891 C917 0.950 1_455 S
H892 C918 0.950 . S
H893 C920 0.950 1_455 S
H894 C923 0.950 . S
H895 C924 0.950 . S
H896 C926 0.950 . S
H897 C927 0.950 . S
C898 H880 0.951 . S
C898 C899 1.366 . S
C898 C900 1.388 . S
C899 C898 1.366 . S
C899 C903 1.385 1_455 S
C900 H881 0.951 . S
C900 C898 1.388 . S
C900 C901 1.366 1_455 S
C901 C900 1.366 1_655 S
C901 C902 1.414 . S
C901 C904 1.499 . S
C902 H882 0.950 . S
C902 C901 1.414 . S
C902 C903 1.374 . S
C903 H883 0.950 . S
C903 C899 1.385 1_655 S
C903 C902 1.374 . S
C904 C901 1.499 . S
C904 C905 1.373 . S
C904 C906 1.389 1_655 S
C905 H884 0.950 . S
C905 C904 1.373 . S
C905 C921 1.377 . S
C906 C904 1.389 1_455 S
C906 C907 1.524 . S
C906 C920 1.377 1_455 S
C907 C906 1.524 . S
C907 C908 1.397 . S
C907 C912 1.363 . S
C908 H885 0.950 . S
C908 C907 1.397 . S
C908 C909 1.334 . S
C909 H886 0.950 . S
C909 C908 1.334 . S
C909 C910 1.287 . S
C910 C909 1.287 . S
C910 C911 1.524 . S
C910 H929 0.913 . S
C911 H887 0.950 . S
C911 C910 1.524 . S
C911 C912 1.415 . S
C912 H888 0.950 . S
C912 C907 1.363 . S
C912 C911 1.415 . S
C913 H889 0.951 . S
C913 C914 1.366 . S
C913 C915 1.388 . S
C914 C913 1.366 . S
C914 C918 1.385 . S
C915 H890 0.951 . S
C915 C913 1.388 . S
C915 C916 1.366 . S
C916 C915 1.366 . S
C916 C917 1.414 . S
C916 C919 1.499 . S
C917 H891 0.950 1_655 S
C917 C916 1.414 . S
C917 C918 1.374 . S
C918 H892 0.950 . S
C918 C914 1.385 . S
C918 C917 1.374 . S
C919 C916 1.499 . S
C919 C920 1.373 . S
C919 C921 1.389 . S
C920 H893 0.950 1_655 S
C920 C906 1.377 1_655 S
C920 C919 1.373 . S
C921 C905 1.377 . S
C921 C919 1.389 . S
C921 C922 1.524 . S
C922 C921 1.524 . S
C922 C923 1.397 . S
C922 C927 1.363 . S
C923 H894 0.950 . S
C923 C922 1.397 . S
C923 C924 1.334 . S
C924 H895 0.950 . S
C924 C923 1.334 . S
C924 C925 1.287 . S
C925 C924 1.287 . S
C925 C926 1.524 . S
C925 H928 0.999 . S
C926 H896 0.950 . S
C926 C925 1.524 . S
C926 C927 1.415 . S
C927 H897 0.950 . S
C927 C922 1.363 . S
C927 C926 1.415 . S
H928 C925 0.999 . S
H929 C910 0.913 . S
H930 C948 0.951 . S
H931 C950 0.951 . S
H932 C952 0.950 . S
H933 C953 0.950 . S
H934 C955 0.950 . S
H935 C958 0.950 . S
H936 C959 0.950 . S
H937 C961 0.950 . S
H938 C962 0.950 . S
H939 C963 0.951 . S
H940 C965 0.951 . S
H941 C967 0.950 . S
H942 C968 0.950 . S
H943 C970 0.950 . S
H944 C973 0.950 . S
H945 C974 0.950 . S
H946 C976 0.950 . S
H947 C977 0.950 . S
C948 H930 0.951 . S
C948 C949 1.366 . S
C948 C950 1.388 . S
C949 C948 1.366 . S
C949 C953 1.385 . S
C950 H931 0.951 . S
C950 C948 1.388 . S
C950 C951 1.366 . S
C951 C950 1.366 . S
C951 C952 1.414 . S
C951 C954 1.499 . S
C952 H932 0.950 . S
C952 C951 1.414 . S
C952 C953 1.374 . S
C953 H933 0.950 . S
C953 C949 1.385 . S
C953 C952 1.374 . S
C954 C951 1.499 . S
C954 C955 1.373 1_545 S
C954 C956 1.389 . S
C955 H934 0.950 . S
C955 C954 1.373 1_565 S
C955 C971 1.377 . S
C956 C954 1.389 . S
C956 C957 1.524 . S
C956 C970 1.377 . S
C957 C956 1.524 . S
C957 C958 1.397 . S
C957 C962 1.363 . S
C958 H935 0.950 . S
C958 C957 1.397 . S
C958 C959 1.334 . S
C959 H936 0.950 . S
C959 C958 1.334 . S
C959 C960 1.287 . S
C960 C959 1.287 . S
C960 C961 1.524 . S
C960 H979 0.913 . S
C961 H937 0.950 . S
C961 C960 1.524 . S
C961 C962 1.415 . S
C962 H938 0.950 . S
C962 C957 1.363 . S
C962 C961 1.415 . S
C963 H939 0.951 . S
C963 C964 1.366 . S
C963 C965 1.388 . S
C964 C963 1.366 . S
C964 C968 1.385 . S
C965 H940 0.951 . S
C965 C963 1.388 . S
C965 C966 1.366 . S
C966 C965 1.366 . S
C966 C967 1.414 . S
C966 C969 1.499 . S
C967 H941 0.950 . S
C967 C966 1.414 . S
C967 C968 1.374 . S
C968 H942 0.950 . S
C968 C964 1.385 . S
C968 C967 1.374 . S
C969 C966 1.499 . S
C969 C970 1.373 1_565 S
C969 C971 1.389 . S
C970 H943 0.950 . S
C970 C956 1.377 . S
C970 C969 1.373 1_545 S
C971 C955 1.377 . S
C971 C969 1.389 . S
C971 C972 1.524 . S
C972 C971 1.524 . S
C972 C973 1.397 . S
C972 C977 1.363 . S
C973 H944 0.950 . S
C973 C972 1.397 . S
C973 C974 1.334 . S
C974 H945 0.950 . S
C974 C973 1.334 . S
C974 C975 1.287 . S
C975 C974 1.287 . S
C975 C976 1.524 . S
C975 H978 0.999 . S
C976 H946 0.950 . S
C976 C975 1.524 . S
C976 C977 1.415 . S
C977 H947 0.950 . S
C977 C972 1.363 . S
C977 C976 1.415 . S
H978 C975 0.999 . S
H979 C960 0.913 . S
H980 C998 0.951 . S
H981 C1000 0.951 . S
H982 C1002 0.950 . S
H983 C1003 0.950 . S
H984 C1005 0.950 . S
H985 C1008 0.950 . S
H986 C1009 0.950 . S
H987 C1011 0.950 . S
H988 C1012 0.950 . S
H989 C1013 0.951 . S
H990 C1015 0.951 . S
H991 C1017 0.950 . S
H992 C1018 0.950 . S
H993 C1020 0.950 . S
H994 C1023 0.950 . S
H995 C1024 0.950 . S
H996 C1026 0.950 . S
H997 C1027 0.950 . S
C998 H980 0.951 . S
C998 C999 1.366 . S
C998 C1000 1.388 . S
C999 C998 1.366 . S
C999 C1003 1.385 . S
C1000 H981 0.951 . S
C1000 C998 1.388 . S
C1000 C1001 1.366 . S
C1001 C1000 1.366 . S
C1001 C1002 1.414 . S
C1001 C1004 1.499 . S
C1002 H982 0.950 . S
C1002 C1001 1.414 . S
C1002 C1003 1.374 . S
C1003 H983 0.950 . S
C1003 C999 1.385 . S
C1003 C1002 1.374 . S
C1004 C1001 1.499 . S
C1004 C1005 1.373 . S
C1004 C1006 1.389 . S
C1005 H984 0.950 . S
C1005 C1004 1.373 . S
C1005 C1021 1.377 . S
C1006 C1004 1.389 . S
C1006 C1007 1.524 . S
C1006 C1020 1.377 . S
C1007 C1006 1.524 . S
C1007 C1008 1.397 . S
C1007 C1012 1.363 . S
C1008 H985 0.950 . S
C1008 C1007 1.397 . S
C1008 C1009 1.334 . S
C1009 H986 0.950 . S
C1009 C1008 1.334 . S
C1009 C1010 1.287 . S
C1010 C1009 1.287 . S
C1010 C1011 1.524 . S
C1010 H1029 0.913 . S
C1011 H987 0.950 . S
C1011 C1010 1.524 . S
C1011 C1012 1.415 . S
C1012 H988 0.950 . S
C1012 C1007 1.363 . S
C1012 C1011 1.415 . S
C1013 H989 0.951 . S
C1013 C1014 1.366 . S
C1013 C1015 1.388 . S
C1014 C1013 1.366 . S
C1014 C1018 1.385 . S
C1015 H990 0.951 . S
C1015 C1013 1.388 . S
C1015 C1016 1.366 . S
C1016 C1015 1.366 . S
C1016 C1017 1.414 . S
C1016 C1019 1.499 . S
C1017 H991 0.950 . S
C1017 C1016 1.414 . S
C1017 C1018 1.374 . S
C1018 H992 0.950 . S
C1018 C1014 1.385 . S
C1018 C1017 1.374 . S
C1019 C1016 1.499 . S
C1019 C1020 1.373 . S
C1019 C1021 1.389 . S
C1020 H993 0.950 . S
C1020 C1006 1.377 . S
C1020 C1019 1.373 . S
C1021 C1005 1.377 . S
C1021 C1019 1.389 . S
C1021 C1022 1.524 . S
C1022 C1021 1.524 . S
C1022 C1023 1.397 . S
C1022 C1027 1.363 . S
C1023 H994 0.950 . S
C1023 C1022 1.397 . S
C1023 C1024 1.334 . S
C1024 H995 0.950 . S
C1024 C1023 1.334 . S
C1024 C1025 1.287 . S
C1025 C1024 1.287 . S
C1025 C1026 1.524 . S
C1025 H1028 0.999 . S
C1026 H996 0.950 . S
C1026 C1025 1.524 . S
C1026 C1027 1.415 . S
C1027 H997 0.950 . S
C1027 C1022 1.363 . S
C1027 C1026 1.415 . S
H1028 C1025 0.999 . S
H1029 C1010 0.913 . S
H1030 C1048 0.951 . S
H1031 C1050 0.951 . S
H1032 C1052 0.950 . S
H1033 C1053 0.950 . S
H1034 C1055 0.950 . S
H1035 C1058 0.950 . S
H1036 C1059 0.950 . S
H1037 C1061 0.950 . S
H1038 C1062 0.950 . S
H1039 C1063 0.951 . S
H1040 C1065 0.951 . S
H1041 C1067 0.950 . S
H1042 C1068 0.950 . S
H1043 C1070 0.950 . S
H1044 C1073 0.950 . S
H1045 C1074 0.950 . S
H1046 C1076 0.950 . S
H1047 C1077 0.950 . S
C1048 H1030 0.951 . S
C1048 C1049 1.366 . S
C1048 C1050 1.388 . S
C1049 C1048 1.366 . S
C1049 C1053 1.385 . S
C1050 H1031 0.951 . S
C1050 C1048 1.388 . S
C1050 C1051 1.366 . S
C1051 C1050 1.366 . S
C1051 C1052 1.414 . S
C1051 C1054 1.499 . S
C1052 H1032 0.950 . S
C1052 C1051 1.414 . S
C1052 C1053 1.374 . S
C1053 H1033 0.950 . S
C1053 C1049 1.385 . S
C1053 C1052 1.374 . S
C1054 C1051 1.499 . S
C1054 C1055 1.373 . S
C1054 C1056 1.389 . S
C1055 H1034 0.950 . S
C1055 C1054 1.373 . S
C1055 C1071 1.377 . S
C1056 C1054 1.389 . S
C1056 C1057 1.524 . S
C1056 C1070 1.377 . S
C1057 C1056 1.524 . S
C1057 C1058 1.397 . S
C1057 C1062 1.363 . S
C1058 H1035 0.950 . S
C1058 C1057 1.397 . S
C1058 C1059 1.334 . S
C1059 H1036 0.950 . S
C1059 C1058 1.334 . S
C1059 C1060 1.287 . S
C1060 C1059 1.287 . S
C1060 C1061 1.524 . S
C1060 H1079 0.913 . S
C1061 H1037 0.950 . S
C1061 C1060 1.524 . S
C1061 C1062 1.415 . S
C1062 H1038 0.950 . S
C1062 C1057 1.363 . S
C1062 C1061 1.415 . S
C1063 H1039 0.951 . S
C1063 C1064 1.366 . S
C1063 C1065 1.388 . S
C1064 C1063 1.366 . S
C1064 C1068 1.385 . S
C1065 H1040 0.951 . S
C1065 C1063 1.388 . S
C1065 C1066 1.366 . S
C1066 C1065 1.366 . S
C1066 C1067 1.414 . S
C1066 C1069 1.499 . S
C1067 H1041 0.950 . S
C1067 C1066 1.414 . S
C1067 C1068 1.374 . S
C1068 H1042 0.950 . S
C1068 C1064 1.385 . S
C1068 C1067 1.374 . S
C1069 C1066 1.499 . S
C1069 C1070 1.373 . S
C1069 C1071 1.389 . S
C1070 H1043 0.950 . S
C1070 C1056 1.377 . S
C1070 C1069 1.373 . S
C1071 C1055 1.377 . S
C1071 C1069 1.389 . S
C1071 C1072 1.524 . S
C1072 C1071 1.524 . S
C1072 C1073 1.397 . S
C1072 C1077 1.363 . S
C1073 H1044 0.950 . S
C1073 C1072 1.397 . S
C1073 C1074 1.334 . S
C1074 H1045 0.950 . S
C1074 C1073 1.334 . S
C1074 C1075 1.287 . S
C1075 C1074 1.287 . S
C1075 C1076 1.524 . S
C1075 H1078 0.999 . S
C1076 H1046 0.950 . S
C1076 C1075 1.524 . S
C1076 C1077 1.415 . S
C1077 H1047 0.950 . S
C1077 C1072 1.363 . S
C1077 C1076 1.415 . S
H1078 C1075 0.999 . S
H1079 C1060 0.913 . S
H1080 C1098 0.951 . S
H1081 C1100 0.951 . S
H1082 C1102 0.950 . S
H1083 C1103 0.950 . S
H1084 C1105 0.950 1_554 S
H1085 C1108 0.950 . S
H1086 C1109 0.950 . S
H1087 C1111 0.950 . S
H1088 C1112 0.950 . S
H1089 C1113 0.951 . S
H1090 C1115 0.951 . S
H1091 C1117 0.950 1_655 S
H1092 C1118 0.950 . S
H1093 C1120 0.950 . S
H1094 C1123 0.950 1_556 S
H1095 C1124 0.950 . S
H1096 C1126 0.950 . S
H1097 C1127 0.950 . S
C1098 H1080 0.951 . S
C1098 C1099 1.366 . S
C1098 C1100 1.388 1_554 S
C1099 C1098 1.366 . S
C1099 C1103 1.385 1_655 S
C1100 H1081 0.951 . S
C1100 C1098 1.388 1_556 S
C1100 C1101 1.366 1_655 S
C1101 C1100 1.366 1_455 S
C1101 C1102 1.414 1_556 S
C1101 C1104 1.499 . S
C1102 H1082 0.950 . S
C1102 C1101 1.414 1_554 S
C1102 C1103 1.374 . S
C1103 H1083 0.950 . S
C1103 C1099 1.385 1_455 S
C1103 C1102 1.374 . S
C1104 C1101 1.499 . S
C1104 C1105 1.373 . S
C1104 C1106 1.389 . S
C1105 H1084 0.950 1_556 S
C1105 C1104 1.373 . S
C1105 C1121 1.377 . S
C1106 C1104 1.389 . S
C1106 C1107 1.521 1_455 S
C1106 C1120 1.377 . S
C1107 C1106 1.521 1_655 S
C1107 C1108 1.390 1_655 S
C1107 C1112 1.372 . S
C1108 H1085 0.950 . S
C1108 C1107 1.390 1_455 S
C1108 C1109 1.334 . S
C1109 H1086 0.950 . S
C1109 C1108 1.334 . S
C1109 C1110 1.287 1_455 S
C1110 C1109 1.287 1_655 S
C1110 C1111 1.524 . S
C1110 H1129 0.913 . S
C1111 H1087 0.950 . S
C1111 C1110 1.524 . S
C1111 C1112 1.415 . S
C1112 H1088 0.950 . S
C1112 C1107 1.372 . S
C1112 C1111 1.415 . S
C1113 H1089 0.951 . S
C1113 C1114 1.366 . S
C1113 C1115 1.388 . S
C1114 C1113 1.366 . S
C1114 C1118 1.385 . S
C1115 H1090 0.951 . S
C1115 C1113 1.388 . S
C1115 C1116 1.366 . S
C1116 C1115 1.366 . S
C1116 C1117 1.414 . S
C1116 C1119 1.499 . S
C1117 H1091 0.950 1_455 S
C1117 C1116 1.414 . S
C1117 C1118 1.374 . S
C1118 H1092 0.950 . S
C1118 C1114 1.385 . S
C1118 C1117 1.374 . S
C1119 C1116 1.499 . S
C1119 C1120 1.373 . S
C1119 C1121 1.389 . S
C1120 H1093 0.950 . S
C1120 C1106 1.377 . S
C1120 C1119 1.373 . S
C1121 C1105 1.377 . S
C1121 C1119 1.389 . S
C1121 C1122 1.524 1_556 S
C1122 C1121 1.524 1_554 S
C1122 C1123 1.397 . S
C1122 C1127 1.363 . S
C1123 H1094 0.950 1_554 S
C1123 C1122 1.397 . S
C1123 C1124 1.334 . S
C1124 H1095 0.950 . S
C1124 C1123 1.334 . S
C1124 C1125 1.287 . S
C1125 C1124 1.287 . S
C1125 C1126 1.524 . S
C1125 H1128 0.999 . S
C1126 H1096 0.950 . S
C1126 C1125 1.524 . S
C1126 C1127 1.415 . S
C1127 H1097 0.950 . S
C1127 C1122 1.363 . S
C1127 C1126 1.415 . S
H1128 C1125 0.999 . S
H1129 C1110 0.913 . S
H1130 C1148 0.951 . S
H1131 C1150 0.951 . S
H1132 C1152 0.950 . S
H1133 C1153 0.950 . S
H1134 C1155 0.950 1_554 S
H1135 C1158 1.008 . S
H1136 C1159 0.946 1_545 S
H1137 C1161 0.950 . S
H1138 C1162 0.950 . S
H1139 C1163 0.951 . S
H1140 C1165 0.951 . S
H1141 C1167 0.950 1_565 S
H1142 C1168 0.950 . S
H1143 C1170 0.956 . S
H1144 C1173 0.950 1_556 S
H1145 C1174 0.950 . S
H1146 C1176 0.950 . S
H1147 C1177 0.950 . S
C1148 H1130 0.951 . S
C1148 C1149 1.366 . S
C1148 C1150 1.388 1_554 S
C1149 C1148 1.366 . S
C1149 C1153 1.385 1_565 S
C1150 H1131 0.951 . S
C1150 C1148 1.388 1_556 S
C1150 C1151 1.366 1_565 S
C1151 C1150 1.366 1_545 S
C1151 C1152 1.414 1_556 S
C1151 C1154 1.499 . S
C1152 H1132 0.950 . S
C1152 C1151 1.414 1_554 S
C1152 C1153 1.374 . S
C1153 H1133 0.950 . S
C1153 C1149 1.385 1_545 S
C1153 C1152 1.374 . S
C1154 C1151 1.499 . S
C1154 C1155 1.373 . S
C1154 C1156 1.408 . S
C1155 H1134 0.950 1_556 S
C1155 C1154 1.373 . S
C1155 C1171 1.377 . S
C1156 C1154 1.408 . S
C1156 C1157 1.499 1_545 S
C1156 C1170 1.389 . S
C1157 C1156 1.499 1_565 S
C1157 C1158 1.366 1_565 S
C1157 C1162 1.363 . S
C1158 H1135 1.008 . S
C1158 C1157 1.366 1_545 S
C1158 C1159 1.311 1_545 S
C1159 H1136 0.946 1_565 S
C1159 C1158 1.311 1_565 S
C1159 C1160 1.287 . S
C1160 C1159 1.287 . S
C1160 C1161 1.524 . S
C1160 H1179 0.913 . S
C1161 H1137 0.950 . S
C1161 C1160 1.524 . S
C1161 C1162 1.415 . S
C1162 H1138 0.950 . S
C1162 C1157 1.363 . S
C1162 C1161 1.415 . S
C1163 H1139 0.951 . S
C1163 C1164 1.366 . S
C1163 C1165 1.388 . S
C1164 C1163 1.366 . S
C1164 C1168 1.385 . S
C1165 H1140 0.951 . S
C1165 C1163 1.388 . S
C1165 C1166 1.366 . S
C1166 C1165 1.366 . S
C1166 C1167 1.414 . S
C1166 C1169 1.499 . S
C1167 H1141 0.950 1_545 S
C1167 C1166 1.414 . S
C1167 C1168 1.374 . S
C1168 H1142 0.950 . S
C1168 C1164 1.385 . S
C1168 C1167 1.374 . S
C1169 C1166 1.499 . S
C1169 C1170 1.373 . S
C1169 C1171 1.389 . S
C1170 H1143 0.956 . S
C1170 C1156 1.389 . S
C1170 C1169 1.373 . S
C1171 C1155 1.377 . S
C1171 C1169 1.389 . S
C1171 C1172 1.524 1_556 S
C1172 C1171 1.524 1_554 S
C1172 C1173 1.397 . S
C1172 C1177 1.363 . S
C1173 H1144 0.950 1_554 S
C1173 C1172 1.397 . S
C1173 C1174 1.334 . S
C1174 H1145 0.950 . S
C1174 C1173 1.334 . S
C1174 C1175 1.287 . S
C1175 C1174 1.287 . S
C1175 C1176 1.524 . S
C1175 H1178 0.999 . S
C1176 H1146 0.950 . S
C1176 C1175 1.524 . S
C1176 C1177 1.415 . S
C1177 H1147 0.950 . S
C1177 C1172 1.363 . S
C1177 C1176 1.415 . S
H1178 C1175 0.999 . S
H1179 C1160 0.913 . S
H1180 C1198 0.951 . S
H1181 C1200 0.951 . S
H1182 C1202 0.950 . S
H1183 C1203 0.950 . S
H1184 C1205 0.950 1_554 S
H1185 C1208 0.950 . S
H1186 C1209 0.950 . S
H1187 C1211 0.950 . S
H1188 C1212 0.950 . S
H1189 C1213 0.951 . S
H1190 C1215 0.951 . S
H1191 C1217 0.950 . S
H1192 C1218 0.950 . S
H1193 C1220 0.950 . S
H1194 C1223 0.950 . S
H1195 C1224 0.950 . S
H1196 C1226 0.950 . S
H1197 C1227 0.950 . S
C1198 H1180 0.951 . S
C1198 C1199 1.366 1_556 S
C1198 C1200 1.388 . S
C1199 C1198 1.366 1_554 S
C1199 C1203 1.385 . S
C1200 H1181 0.951 . S
C1200 C1198 1.388 . S
C1200 C1201 1.366 . S
C1201 C1200 1.366 . S
C1201 C1202 1.414 1_556 S
C1201 C1204 1.499 . S
C1202 H1182 0.950 . S
C1202 C1201 1.414 1_554 S
C1202 C1203 1.374 . S
C1203 H1183 0.950 . S
C1203 C1199 1.385 . S
C1203 C1202 1.374 . S
C1204 C1201 1.499 . S
C1204 C1205 1.373 . S
C1204 C1206 1.389 . S
C1205 H1184 0.950 1_556 S
C1205 C1204 1.373 . S
C1205 C1221 1.377 . S
C1206 C1204 1.389 . S
C1206 C1207 1.524 . S
C1206 C1220 1.377 . S
C1207 C1206 1.524 . S
C1207 C1208 1.397 . S
C1207 C1212 1.363 . S
C1208 H1185 0.950 . S
C1208 C1207 1.397 . S
C1208 C1209 1.334 . S
C1209 H1186 0.950 . S
C1209 C1208 1.334 . S
C1209 C1210 1.287 . S
C1210 C1209 1.287 . S
C1210 C1211 1.524 . S
C1210 H1229 0.913 . S
C1211 H1187 0.950 . S
C1211 C1210 1.524 . S
C1211 C1212 1.415 . S
C1212 H1188 0.950 . S
C1212 C1207 1.363 . S
C1212 C1211 1.415 . S
C1213 H1189 0.951 . S
C1213 C1214 1.366 . S
C1213 C1215 1.388 . S
C1214 C1213 1.366 . S
C1214 C1218 1.385 . S
C1215 H1190 0.951 . S
C1215 C1213 1.388 . S
C1215 C1216 1.366 . S
C1216 C1215 1.366 . S
C1216 C1217 1.414 . S
C1216 C1219 1.499 . S
C1217 H1191 0.950 . S
C1217 C1216 1.414 . S
C1217 C1218 1.374 . S
C1218 H1192 0.950 . S
C1218 C1214 1.385 . S
C1218 C1217 1.374 . S
C1219 C1216 1.499 . S
C1219 C1220 1.373 . S
C1219 C1221 1.389 . S
C1220 H1193 0.950 . S
C1220 C1206 1.377 . S
C1220 C1219 1.373 . S
C1221 C1205 1.377 . S
C1221 C1219 1.389 . S
C1221 C1222 1.524 . S
C1222 C1221 1.524 . S
C1222 C1223 1.397 . S
C1222 C1227 1.363 1_556 S
C1223 H1194 0.950 . S
C1223 C1222 1.397 . S
C1223 C1224 1.334 . S
C1224 H1195 0.950 . S
C1224 C1223 1.334 . S
C1224 C1225 1.287 1_556 S
C1225 C1224 1.287 1_554 S
C1225 C1226 1.524 . S
C1225 H1228 0.999 . S
C1226 H1196 0.950 . S
C1226 C1225 1.524 . S
C1226 C1227 1.415 . S
C1227 H1197 0.950 . S
C1227 C1222 1.363 1_554 S
C1227 C1226 1.415 . S
H1228 C1225 0.999 . S
H1229 C1210 0.913 . S
H1230 C1248 0.951 . S
H1231 C1250 0.951 . S
H1232 C1252 0.950 . S
H1233 C1253 0.950 1_556 S
H1234 C1255 0.950 . S
H1235 C1258 0.950 . S
H1236 C1259 0.950 . S
H1237 C1261 0.950 . S
H1238 C1262 0.950 . S
H1239 C1263 0.951 . S
H1240 C1265 0.951 . S
H1241 C1267 0.950 . S
H1242 C1268 0.950 . S
H1243 C1270 0.950 . S
H1244 C1273 0.950 . S
H1245 C1274 0.950 . S
H1246 C1276 0.950 . S
H1247 C1277 0.950 . S
C1248 H1230 0.951 . S
C1248 C1249 1.366 . S
C1248 C1250 1.388 . S
C1249 C1248 1.366 . S
C1249 C1253 1.385 . S
C1250 H1231 0.951 . S
C1250 C1248 1.388 . S
C1250 C1251 1.366 1_554 S
C1251 C1250 1.366 1_556 S
C1251 C1252 1.414 . S
C1251 C1254 1.499 . S
C1252 H1232 0.950 . S
C1252 C1251 1.414 . S
C1252 C1253 1.374 1_556 S
C1253 H1233 0.950 1_554 S
C1253 C1249 1.385 . S
C1253 C1252 1.374 1_554 S
C1254 C1251 1.499 . S
C1254 C1255 1.373 . S
C1254 C1256 1.389 . S
C1255 H1234 0.950 . S
C1255 C1254 1.373 . S
C1255 C1271 1.377 . S
C1256 C1254 1.389 . S
C1256 C1257 1.524 . S
C1256 C1270 1.377 . S
C1257 C1256 1.524 . S
C1257 C1258 1.397 . S
C1257 C1262 1.363 . S
C1258 H1235 0.950 . S
C1258 C1257 1.397 . S
C1258 C1259 1.334 . S
C1259 H1236 0.950 . S
C1259 C1258 1.334 . S
C1259 C1260 1.287 . S
C1260 C1259 1.287 . S
C1260 C1261 1.524 . S
C1260 H1279 0.913 . S
C1261 H1237 0.950 . S
C1261 C1260 1.524 . S
C1261 C1262 1.415 . S
C1262 H1238 0.950 . S
C1262 C1257 1.363 . S
C1262 C1261 1.415 . S
C1263 H1239 0.951 . S
C1263 C1264 1.366 . S
C1263 C1265 1.388 . S
C1264 C1263 1.366 . S
C1264 C1268 1.385 . S
C1265 H1240 0.951 . S
C1265 C1263 1.388 . S
C1265 C1266 1.366 . S
C1266 C1265 1.366 . S
C1266 C1267 1.414 . S
C1266 C1269 1.499 . S
C1267 H1241 0.950 . S
C1267 C1266 1.414 . S
C1267 C1268 1.374 . S
C1268 H1242 0.950 . S
C1268 C1264 1.385 . S
C1268 C1267 1.374 . S
C1269 C1266 1.499 . S
C1269 C1270 1.373 . S
C1269 C1271 1.389 . S
C1270 H1243 0.950 . S
C1270 C1256 1.377 . S
C1270 C1269 1.373 . S
C1271 C1255 1.377 . S
C1271 C1269 1.389 . S
C1271 C1272 1.524 . S
C1272 C1271 1.524 . S
C1272 C1273 1.397 . S
C1272 C1277 1.363 . S
C1273 H1244 0.950 . S
C1273 C1272 1.397 . S
C1273 C1274 1.334 . S
C1274 H1245 0.950 . S
C1274 C1273 1.334 . S
C1274 C1275 1.287 . S
C1275 C1274 1.287 . S
C1275 C1276 1.524 . S
C1275 H1278 0.999 . S
C1276 H1246 0.950 . S
C1276 C1275 1.524 . S
C1276 C1277 1.415 . S
C1277 H1247 0.950 . S
C1277 C1272 1.363 . S
C1277 C1276 1.415 . S
H1278 C1275 0.999 . S
H1279 C1260 0.913 . S
H1280 C1298 0.951 . S
H1281 C1300 0.951 . S
H1282 C1302 0.959 . S
H1283 C1303 0.950 . S
H1284 C1305 0.950 . S
H1285 C1308 0.950 . S
H1286 C1309 0.950 . S
H1287 C1311 0.950 . S
H1288 C1312 0.950 . S
H1289 C1313 0.951 . S
H1290 C1315 0.951 . S
H1291 C1317 0.950 . S
H1292 C1318 0.950 . S
H1293 C1320 0.950 . S
H1294 C1323 0.950 . S
H1295 C1324 0.950 . S
H1296 C1326 0.950 . S
H1297 C1327 0.950 . S
C1298 H1280 0.951 . S
C1298 C1299 1.366 . S
C1298 C1300 1.388 . S
C1299 C1298 1.366 . S
C1299 C1303 1.385 1_455 S
C1300 H1281 0.951 . S
C1300 C1298 1.388 . S
C1300 C1301 1.366 . S
C1301 C1300 1.366 . S
C1301 C1302 1.406 1_455 S
C1301 C1304 1.499 . S
C1302 H1282 0.959 . S
C1302 C1301 1.406 1_655 S
C1302 C1303 1.376 . S
C1303 H1283 0.950 . S
C1303 C1299 1.385 1_655 S
C1303 C1302 1.376 . S
C1304 C1301 1.499 . S
C1304 C1305 1.373 . S
C1304 C1306 1.389 1_455 S
C1305 H1284 0.950 . S
C1305 C1304 1.373 . S
C1305 C1321 1.377 . S
C1306 C1304 1.389 1_655 S
C1306 C1307 1.524 . S
C1306 C1320 1.377 . S
C1307 C1306 1.524 . S
C1307 C1308 1.397 . S
C1307 C1312 1.363 . S
C1308 H1285 0.950 . S
C1308 C1307 1.397 . S
C1308 C1309 1.334 . S
C1309 H1286 0.950 . S
C1309 C1308 1.334 . S
C1309 C1310 1.287 . S
C1310 C1309 1.287 . S
C1310 C1311 1.524 . S
C1310 H1329 0.913 . S
C1311 H1287 0.950 . S
C1311 C1310 1.524 . S
C1311 C1312 1.415 . S
C1312 H1288 0.950 . S
C1312 C1307 1.363 . S
C1312 C1311 1.415 . S
C1313 H1289 0.951 . S
C1313 C1314 1.366 . S
C1313 C1315 1.388 . S
C1314 C1313 1.366 . S
C1314 C1318 1.385 . S
C1315 H1290 0.951 . S
C1315 C1313 1.388 . S
C1315 C1316 1.366 . S
C1316 C1315 1.366 . S
C1316 C1317 1.414 . S
C1316 C1319 1.499 . S
C1317 H1291 0.950 . S
C1317 C1316 1.414 . S
C1317 C1318 1.374 . S
C1318 H1292 0.950 . S
C1318 C1314 1.385 . S
C1318 C1317 1.374 . S
C1319 C1316 1.499 . S
C1319 C1320 1.373 1_455 S
C1319 C1321 1.389 . S
C1320 H1293 0.950 . S
C1320 C1306 1.377 . S
C1320 C1319 1.373 1_655 S
C1321 C1305 1.377 . S
C1321 C1319 1.389 . S
C1321 C1322 1.524 . S
C1322 C1321 1.524 . S
C1322 C1323 1.397 . S
C1322 C1327 1.363 . S
C1323 H1294 0.950 . S
C1323 C1322 1.397 . S
C1323 C1324 1.334 . S
C1324 H1295 0.950 . S
C1324 C1323 1.334 . S
C1324 C1325 1.287 . S
C1325 C1324 1.287 . S
C1325 C1326 1.524 . S
C1325 H1328 0.999 . S
C1326 H1296 0.950 . S
C1326 C1325 1.524 . S
C1326 C1327 1.415 . S
C1327 H1297 0.950 . S
C1327 C1322 1.363 . S
C1327 C1326 1.415 . S
H1328 C1325 0.999 . S
H1329 C1310 0.913 . S
H1330 C1348 0.951 . S
H1331 C1350 0.951 . S
H1332 C1352 0.950 . S
H1333 C1353 0.950 . S
H1334 C1355 0.981 . S
H1335 C1358 0.950 . S
H1336 C1359 0.950 . S
H1337 C1361 0.950 . S
H1338 C1362 0.950 . S
H1339 C1363 0.951 . S
H1340 C1365 0.951 . S
H1341 C1367 0.950 . S
H1342 C1368 0.950 . S
H1343 C1370 0.950 . S
H1344 C1373 0.950 . S
H1345 C1374 0.950 . S
H1346 C1376 0.950 . S
H1347 C1377 0.950 . S
C1348 H1330 0.951 . S
C1348 C1349 1.366 . S
C1348 C1350 1.388 . S
C1349 C1348 1.366 . S
C1349 C1353 1.385 . S
C1350 H1331 0.951 . S
C1350 C1348 1.388 . S
C1350 C1351 1.366 . S
C1351 C1350 1.366 . S
C1351 C1352 1.414 . S
C1351 C1354 1.499 . S
C1352 H1332 0.950 . S
C1352 C1351 1.414 . S
C1352 C1353 1.374 . S
C1353 H1333 0.950 . S
C1353 C1349 1.385 . S
C1353 C1352 1.374 . S
C1354 C1351 1.499 . S
C1354 C1355 1.341 1_545 S
C1354 C1356 1.389 . S
C1355 H1334 0.981 . S
C1355 C1354 1.341 1_565 S
C1355 C1371 1.379 . S
C1356 C1354 1.389 . S
C1356 C1357 1.524 . S
C1356 C1370 1.377 . S
C1357 C1356 1.524 . S
C1357 C1358 1.397 . S
C1357 C1362 1.363 . S
C1358 H1335 0.950 . S
C1358 C1357 1.397 . S
C1358 C1359 1.334 . S
C1359 H1336 0.950 . S
C1359 C1358 1.334 . S
C1359 C1360 1.287 . S
C1360 C1359 1.287 . S
C1360 C1361 1.524 . S
C1360 H1379 0.913 . S
C1361 H1337 0.950 . S
C1361 C1360 1.524 . S
C1361 C1362 1.415 . S
C1362 H1338 0.950 . S
C1362 C1357 1.363 . S
C1362 C1361 1.415 . S
C1363 H1339 0.951 . S
C1363 C1364 1.366 . S
C1363 C1365 1.388 . S
C1364 C1363 1.366 . S
C1364 C1368 1.385 . S
C1365 H1340 0.951 . S
C1365 C1363 1.388 . S
C1365 C1366 1.366 . S
C1366 C1365 1.366 . S
C1366 C1367 1.414 . S
C1366 C1369 1.499 . S
C1367 H1341 0.950 . S
C1367 C1366 1.414 . S
C1367 C1368 1.374 . S
C1368 H1342 0.950 . S
C1368 C1364 1.385 . S
C1368 C1367 1.374 . S
C1369 C1366 1.499 . S
C1369 C1370 1.373 . S
C1369 C1371 1.389 1_545 S
C1370 H1343 0.950 . S
C1370 C1356 1.377 . S
C1370 C1369 1.373 . S
C1371 C1355 1.379 . S
C1371 C1369 1.389 1_565 S
C1371 C1372 1.524 . S
C1372 C1371 1.524 . S
C1372 C1373 1.397 . S
C1372 C1377 1.363 . S
C1373 H1344 0.950 . S
C1373 C1372 1.397 . S
C1373 C1374 1.334 . S
C1374 H1345 0.950 . S
C1374 C1373 1.334 . S
C1374 C1375 1.287 . S
C1375 C1374 1.287 . S
C1375 C1376 1.524 . S
C1375 H1378 0.999 . S
C1376 H1346 0.950 . S
C1376 C1375 1.524 . S
C1376 C1377 1.415 . S
C1377 H1347 0.950 . S
C1377 C1372 1.363 . S
C1377 C1376 1.415 . S
H1378 C1375 0.999 . S
H1379 C1360 0.913 . S
H1380 C1398 0.951 . S
H1381 C1400 0.951 . S
H1382 C1402 0.950 . S
H1383 C1403 0.950 . S
H1384 C1405 0.950 . S
H1385 C1408 0.950 . S
H1386 C1409 0.950 . S
H1387 C1411 0.950 . S
H1388 C1412 0.950 . S
H1389 C1413 0.951 . S
H1390 C1415 0.951 . S
H1391 C1417 0.950 . S
H1392 C1418 0.950 . S
H1393 C1420 0.950 . S
H1394 C1423 0.950 . S
H1395 C1424 0.950 . S
H1396 C1426 0.950 . S
H1397 C1427 0.950 . S
C1398 H1380 0.951 . S
C1398 C1399 1.366 . S
C1398 C1400 1.388 . S
C1399 C1398 1.366 . S
C1399 C1403 1.385 . S
C1400 H1381 0.951 . S
C1400 C1398 1.388 . S
C1400 C1401 1.366 . S
C1401 C1400 1.366 . S
C1401 C1402 1.414 . S
C1401 C1404 1.499 . S
C1402 H1382 0.950 . S
C1402 C1401 1.414 . S
C1402 C1403 1.374 . S
C1403 H1383 0.950 . S
C1403 C1399 1.385 . S
C1403 C1402 1.374 . S
C1404 C1401 1.499 . S
C1404 C1405 1.373 . S
C1404 C1406 1.389 . S
C1405 H1384 0.950 . S
C1405 C1404 1.373 . S
C1405 C1421 1.377 . S
C1406 C1404 1.389 . S
C1406 C1407 1.524 . S
C1406 C1420 1.377 . S
C1407 C1406 1.524 . S
C1407 C1408 1.397 . S
C1407 C1412 1.363 . S
C1408 H1385 0.950 . S
C1408 C1407 1.397 . S
C1408 C1409 1.334 . S
C1409 H1386 0.950 . S
C1409 C1408 1.334 . S
C1409 C1410 1.287 . S
C1410 C1409 1.287 . S
C1410 C1411 1.524 . S
C1410 H1429 0.913 . S
C1411 H1387 0.950 . S
C1411 C1410 1.524 . S
C1411 C1412 1.415 . S
C1412 H1388 0.950 . S
C1412 C1407 1.363 . S
C1412 C1411 1.415 . S
C1413 H1389 0.951 . S
C1413 C1414 1.366 . S
C1413 C1415 1.388 . S
C1414 C1413 1.366 . S
C1414 C1418 1.385 . S
C1415 H1390 0.951 . S
C1415 C1413 1.388 . S
C1415 C1416 1.366 . S
C1416 C1415 1.366 . S
C1416 C1417 1.414 . S
C1416 C1419 1.499 . S
C1417 H1391 0.950 . S
C1417 C1416 1.414 . S
C1417 C1418 1.374 . S
C1418 H1392 0.950 . S
C1418 C1414 1.385 . S
C1418 C1417 1.374 . S
C1419 C1416 1.499 . S
C1419 C1420 1.373 . S
C1419 C1421 1.389 . S
C1420 H1393 0.950 . S
C1420 C1406 1.377 . S
C1420 C1419 1.373 . S
C1421 C1405 1.377 . S
C1421 C1419 1.389 . S
C1421 C1422 1.524 . S
C1422 C1421 1.524 . S
C1422 C1423 1.397 . S
C1422 C1427 1.363 . S
C1423 H1394 0.950 . S
C1423 C1422 1.397 . S
C1423 C1424 1.334 . S
C1424 H1395 0.950 . S
C1424 C1423 1.334 . S
C1424 C1425 1.287 . S
C1425 C1424 1.287 . S
C1425 C1426 1.524 . S
C1425 H1428 0.999 . S
C1426 H1396 0.950 . S
C1426 C1425 1.524 . S
C1426 C1427 1.415 . S
C1427 H1397 0.950 . S
C1427 C1422 1.363 . S
C1427 C1426 1.415 . S
H1428 C1425 0.999 . S
H1429 C1410 0.913 . S
H1430 C1448 0.951 . S
H1431 C1450 0.951 . S
H1432 C1452 0.950 . S
H1433 C1453 0.950 . S
H1434 C1455 0.950 . S
H1435 C1458 0.950 . S
H1436 C1459 0.950 . S
H1437 C1461 0.950 . S
H1438 C1462 0.950 . S
H1439 C1463 0.951 . S
H1440 C1465 0.951 . S
H1441 C1467 0.950 . S
H1442 C1468 0.950 . S
H1443 C1470 0.950 . S
H1444 C1473 0.950 . S
H1445 C1474 0.950 . S
H1446 C1476 0.950 . S
H1447 C1477 0.950 . S
C1448 H1430 0.951 . S
C1448 C1449 1.366 . S
C1448 C1450 1.388 . S
C1449 C1448 1.366 . S
C1449 C1453 1.385 . S
C1450 H1431 0.951 . S
C1450 C1448 1.388 . S
C1450 C1451 1.366 . S
C1451 C1450 1.366 . S
C1451 C1452 1.414 . S
C1451 C1454 1.499 . S
C1452 H1432 0.950 . S
C1452 C1451 1.414 . S
C1452 C1453 1.374 . S
C1453 H1433 0.950 . S
C1453 C1449 1.385 . S
C1453 C1452 1.374 . S
C1454 C1451 1.499 . S
C1454 C1455 1.373 . S
C1454 C1456 1.389 . S
C1455 H1434 0.950 . S
C1455 C1454 1.373 . S
C1455 C1471 1.377 . S
C1456 C1454 1.389 . S
C1456 C1457 1.524 . S
C1456 C1470 1.377 . S
C1457 C1456 1.524 . S
C1457 C1458 1.397 . S
C1457 C1462 1.363 . S
C1458 H1435 0.950 . S
C1458 C1457 1.397 . S
C1458 C1459 1.334 . S
C1459 H1436 0.950 . S
C1459 C1458 1.334 . S
C1459 C1460 1.287 . S
C1460 C1459 1.287 . S
C1460 C1461 1.524 . S
C1460 H1479 0.913 . S
C1461 H1437 0.950 . S
C1461 C1460 1.524 . S
C1461 C1462 1.415 . S
C1462 H1438 0.950 . S
C1462 C1457 1.363 . S
C1462 C1461 1.415 . S
C1463 H1439 0.951 . S
C1463 C1464 1.366 . S
C1463 C1465 1.388 . S
C1464 C1463 1.366 . S
C1464 C1468 1.385 . S
C1465 H1440 0.951 . S
C1465 C1463 1.388 . S
C1465 C1466 1.366 . S
C1466 C1465 1.366 . S
C1466 C1467 1.414 . S
C1466 C1469 1.499 . S
C1467 H1441 0.950 . S
C1467 C1466 1.414 . S
C1467 C1468 1.374 . S
C1468 H1442 0.950 . S
C1468 C1464 1.385 . S
C1468 C1467 1.374 . S
C1469 C1466 1.499 . S
C1469 C1470 1.373 . S
C1469 C1471 1.389 . S
C1470 H1443 0.950 . S
C1470 C1456 1.377 . S
C1470 C1469 1.373 . S
C1471 C1455 1.377 . S
C1471 C1469 1.389 . S
C1471 C1472 1.524 . S
C1472 C1471 1.524 . S
C1472 C1473 1.397 . S
C1472 C1477 1.363 . S
C1473 H1444 0.950 . S
C1473 C1472 1.397 . S
C1473 C1474 1.334 . S
C1474 H1445 0.950 . S
C1474 C1473 1.334 . S
C1474 C1475 1.287 . S
C1475 C1474 1.287 . S
C1475 C1476 1.524 . S
C1475 H1478 0.999 . S
C1476 H1446 0.950 . S
C1476 C1475 1.524 . S
C1476 C1477 1.415 . S
C1477 H1447 0.950 . S
C1477 C1472 1.363 . S
C1477 C1476 1.415 . S
H1478 C1475 0.999 . S
H1479 C1460 0.913 . S
H1480 C1498 0.951 . S
H1481 C1500 0.951 . S
H1482 C1502 0.950 1_455 S
H1483 C1503 0.950 1_455 S
H1484 C1505 0.950 . S
H1485 C1508 0.950 . S
H1486 C1509 0.950 . S
H1487 C1511 0.950 . S
H1488 C1512 0.950 . S
H1489 C1513 0.951 . S
H1490 C1515 0.951 . S
H1491 C1517 0.950 . S
H1492 C1518 0.950 . S
H1493 C1520 0.950 . S
H1494 C1523 0.950 . S
H1495 C1524 0.950 . S
H1496 C1526 0.950 . S
H1497 C1527 0.950 . S
C1498 H1480 0.951 . S
C1498 C1499 1.366 . S
C1498 C1500 1.388 . S
C1499 C1498 1.366 . S
C1499 C1503 1.384 . S
C1500 H1481 0.951 . S
C1500 C1498 1.388 . S
C1500 C1501 1.366 . S
C1501 C1500 1.366 . S
C1501 C1502 1.414 . S
C1501 C1504 1.499 . S
C1502 H1482 0.950 1_655 S
C1502 C1501 1.414 . S
C1502 C1503 1.374 . S
C1503 H1483 0.950 1_655 S
C1503 C1499 1.384 . S
C1503 C1502 1.374 . S
C1504 C1501 1.499 . S
C1504 C1505 1.373 1_655 S
C1504 C1506 1.389 . S
C1505 H1484 0.950 . S
C1505 C1504 1.373 1_455 S
C1505 C1521 1.377 . S
C1506 C1504 1.389 . S
C1506 C1507 1.524 . S
C1506 C1520 1.377 . S
C1507 C1506 1.524 . S
C1507 C1508 1.397 . S
C1507 C1512 1.363 . S
C1508 H1485 0.950 . S
C1508 C1507 1.397 . S
C1508 C1509 1.334 . S
C1509 H1486 0.950 . S
C1509 C1508 1.334 . S
C1509 C1510 1.287 . S
C1510 C1509 1.287 . S
C1510 C1511 1.524 . S
C1510 H1529 0.913 . S
C1511 H1487 0.950 . S
C1511 C1510 1.524 . S
C1511 C1512 1.415 . S
C1512 H1488 0.950 . S
C1512 C1507 1.363 . S
C1512 C1511 1.415 . S
C1513 H1489 0.951 . S
C1513 C1514 1.366 . S
C1513 C1515 1.388 . S
C1514 C1513 1.366 . S
C1514 C1518 1.385 . S
C1515 H1490 0.951 . S
C1515 C1513 1.388 . S
C1515 C1516 1.366 . S
C1516 C1515 1.366 . S
C1516 C1517 1.414 . S
C1516 C1519 1.499 . S
C1517 H1491 0.950 . S
C1517 C1516 1.414 . S
C1517 C1518 1.374 . S
C1518 H1492 0.950 . S
C1518 C1514 1.385 . S
C1518 C1517 1.374 . S
C1519 C1516 1.499 . S
C1519 C1520 1.373 . S
C1519 C1521 1.389 1_655 S
C1520 H1493 0.950 . S
C1520 C1506 1.377 . S
C1520 C1519 1.373 . S
C1521 C1505 1.377 . S
C1521 C1519 1.389 1_455 S
C1521 C1522 1.524 . S
C1522 C1521 1.524 . S
C1522 C1523 1.397 . S
C1522 C1527 1.363 . S
C1523 H1494 0.950 . S
C1523 C1522 1.397 . S
C1523 C1524 1.334 . S
C1524 H1495 0.950 . S
C1524 C1523 1.334 . S
C1524 C1525 1.287 . S
C1525 C1524 1.287 . S
C1525 C1526 1.524 . S
C1525 H1528 0.999 . S
C1526 H1496 0.950 . S
C1526 C1525 1.524 . S
C1526 C1527 1.415 . S
C1527 H1497 0.950 . S
C1527 C1522 1.363 . S
C1527 C1526 1.415 . S
H1528 C1525 0.999 . S
H1529 C1510 0.913 . S
H1530 C1548 0.951 . S
H1531 C1550 0.951 . S
H1532 C1552 0.945 1_545 S
H1533 C1553 0.943 1_545 S
H1534 C1555 0.950 . S
H1535 C1558 0.950 . S
H1536 C1559 0.950 . S
H1537 C1561 0.950 . S
H1538 C1562 0.950 . S
H1539 C1563 0.962 . S
H1540 C1565 0.951 . S
H1541 C1567 0.950 . S
H1542 C1568 0.950 . S
H1543 C1570 0.950 . S
H1544 C1573 0.950 . S
H1545 C1574 0.950 . S
H1546 C1576 0.950 . S
H1547 C1577 0.950 . S
C1548 H1530 0.951 . S
C1548 C1549 1.366 . S
C1548 C1550 1.388 . S
C1549 C1548 1.366 . S
C1549 C1553 1.385 . S
C1550 H1531 0.951 . S
C1550 C1548 1.388 . S
C1550 C1551 1.366 . S
C1551 C1550 1.366 . S
C1551 C1552 1.414 . S
C1551 C1554 1.499 . S
C1552 H1532 0.945 1_565 S
C1552 C1551 1.414 . S
C1552 C1553 1.374 . S
C1553 H1533 0.943 1_565 S
C1553 C1549 1.385 . S
C1553 C1552 1.374 . S
C1554 C1551 1.499 . S
C1554 C1555 1.373 . S
C1554 C1556 1.389 1_565 S
C1555 H1534 0.950 . S
C1555 C1554 1.373 . S
C1555 C1571 1.377 . S
C1556 C1554 1.389 1_545 S
C1556 C1557 1.524 . S
C1556 C1570 1.377 . S
C1557 C1556 1.524 . S
C1557 C1558 1.397 . S
C1557 C1562 1.363 . S
C1558 H1535 0.950 . S
C1558 C1557 1.397 . S
C1558 C1559 1.334 . S
C1559 H1536 0.950 . S
C1559 C1558 1.334 . S
C1559 C1560 1.287 . S
C1560 C1559 1.287 . S
C1560 C1561 1.524 . S
C1560 H1579 0.913 . S
C1561 H1537 0.950 . S
C1561 C1560 1.524 . S
C1561 C1562 1.415 . S
C1562 H1538 0.950 . S
C1562 C1557 1.363 . S
C1562 C1561 1.415 . S
C1563 H1539 0.962 . S
C1563 C1564 1.366 . S
C1563 C1565 1.388 . S
C1564 C1563 1.366 . S
C1564 C1568 1.385 . S
C1565 H1540 0.951 . S
C1565 C1563 1.388 . S
C1565 C1566 1.366 . S
C1566 C1565 1.366 . S
C1566 C1567 1.414 . S
C1566 C1569 1.499 . S
C1567 H1541 0.950 . S
C1567 C1566 1.414 . S
C1567 C1568 1.374 . S
C1568 H1542 0.950 . S
C1568 C1564 1.385 . S
C1568 C1567 1.374 . S
C1569 C1566 1.499 . S
C1569 C1570 1.373 1_565 S
C1569 C1571 1.389 . S
C1570 H1543 0.950 . S
C1570 C1556 1.377 . S
C1570 C1569 1.373 1_545 S
C1571 C1555 1.377 . S
C1571 C1569 1.389 . S
C1571 C1572 1.524 . S
C1572 C1571 1.524 . S
C1572 C1573 1.397 . S
C1572 C1577 1.363 . S
C1573 H1544 0.950 . S
C1573 C1572 1.397 . S
C1573 C1574 1.334 . S
C1574 H1545 0.950 . S
C1574 C1573 1.334 . S
C1574 C1575 1.287 . S
C1575 C1574 1.287 . S
C1575 C1576 1.524 . S
C1575 H1578 0.999 . S
C1576 H1546 0.950 . S
C1576 C1575 1.524 . S
C1576 C1577 1.415 . S
C1577 H1547 0.950 . S
C1577 C1572 1.363 . S
C1577 C1576 1.415 . S
H1578 C1575 0.999 . S
H1579 C1560 0.913 . S
H1580 C1598 0.951 . S
H1581 C1600 0.951 . S
H1582 C1602 0.950 . S
H1583 C1603 0.950 . S
H1584 C1605 0.950 . S
H1585 C1608 0.950 . S
H1586 C1609 0.950 . S
H1587 C1611 0.950 . S
H1588 C1612 0.950 . S
H1589 C1613 0.951 . S
H1590 C1615 0.951 . S
H1591 C1617 0.950 . S
H1592 C1618 0.950 . S
H1593 C1620 0.950 . S
H1594 C1623 0.950 . S
H1595 C1624 0.950 . S
H1596 C1626 0.950 . S
H1597 C1627 0.950 . S
C1598 H1580 0.951 . S
C1598 C1599 1.366 . S
C1598 C1600 1.388 . S
C1599 C1598 1.366 . S
C1599 C1603 1.385 . S
C1600 H1581 0.951 . S
C1600 C1598 1.388 . S
C1600 C1601 1.366 . S
C1601 C1600 1.366 . S
C1601 C1602 1.414 . S
C1601 C1604 1.499 . S
C1602 H1582 0.950 . S
C1602 C1601 1.414 . S
C1602 C1603 1.374 . S
C1603 H1583 0.950 . S
C1603 C1599 1.385 . S
C1603 C1602 1.374 . S
C1604 C1601 1.499 . S
C1604 C1605 1.373 . S
C1604 C1606 1.389 . S
C1605 H1584 0.950 . S
C1605 C1604 1.373 . S
C1605 C1621 1.377 . S
C1606 C1604 1.389 . S
C1606 C1607 1.524 . S
C1606 C1620 1.377 . S
C1607 C1606 1.524 . S
C1607 C1608 1.397 . S
C1607 C1612 1.363 . S
C1608 H1585 0.950 . S
C1608 C1607 1.397 . S
C1608 C1609 1.334 . S
C1609 H1586 0.950 . S
C1609 C1608 1.334 . S
C1609 C1610 1.287 . S
C1610 C1609 1.287 . S
C1610 C1611 1.524 . S
C1610 H1629 0.913 . S
C1611 H1587 0.950 . S
C1611 C1610 1.524 . S
C1611 C1612 1.415 . S
C1612 H1588 0.950 . S
C1612 C1607 1.363 . S
C1612 C1611 1.415 . S
C1613 H1589 0.951 . S
C1613 C1614 1.366 . S
C1613 C1615 1.388 . S
C1614 C1613 1.366 . S
C1614 C1618 1.385 . S
C1615 H1590 0.951 . S
C1615 C1613 1.388 . S
C1615 C1616 1.366 . S
C1616 C1615 1.366 . S
C1616 C1617 1.414 . S
C1616 C1619 1.499 . S
C1617 H1591 0.950 . S
C1617 C1616 1.414 . S
C1617 C1618 1.374 . S
C1618 H1592 0.950 . S
C1618 C1614 1.385 . S
C1618 C1617 1.374 . S
C1619 C1616 1.499 . S
C1619 C1620 1.373 . S
C1619 C1621 1.389 . S
C1620 H1593 0.950 . S
C1620 C1606 1.377 . S
C1620 C1619 1.373 . S
C1621 C1605 1.377 . S
C1621 C1619 1.389 . S
C1621 C1622 1.524 . S
C1622 C1621 1.524 . S
C1622 C1623 1.397 . S
C1622 C1627 1.363 . S
C1623 H1594 0.950 . S
C1623 C1622 1.397 . S
C1623 C1624 1.334 . S
C1624 H1595 0.950 . S
C1624 C1623 1.334 . S
C1624 C1625 1.287 . S
C1625 C1624 1.287 . S
C1625 C1626 1.524 . S
C1625 H1628 0.999 . S
C1626 H1596 0.950 . S
C1626 C1625 1.524 . S
C1626 C1627 1.415 . S
C1627 H1597 0.950 . S
C1627 C1622 1.363 . S
C1627 C1626 1.415 . S
H1628 C1625 0.999 . S
H1629 C1610 0.913 . S
H1630 C1648 0.951 . S
H1631 C1650 0.951 . S
H1632 C1652 0.950 . S
H1633 C1653 0.950 . S
H1634 C1655 0.950 . S
H1635 C1658 0.950 . S
H1636 C1659 0.950 . S
H1637 C1661 0.950 . S
H1638 C1662 0.950 . S
H1639 C1663 0.951 . S
H1640 C1665 0.951 . S
H1641 C1667 0.950 . S
H1642 C1668 0.950 . S
H1643 C1670 0.950 . S
H1644 C1673 0.950 . S
H1645 C1674 0.950 . S
H1646 C1676 0.950 . S
H1647 C1677 0.950 . S
C1648 H1630 0.951 . S
C1648 C1649 1.366 . S
C1648 C1650 1.388 . S
C1649 C1648 1.366 . S
C1649 C1653 1.385 . S
C1650 H1631 0.951 . S
C1650 C1648 1.388 . S
C1650 C1651 1.366 . S
C1651 C1650 1.366 . S
C1651 C1652 1.414 . S
C1651 C1654 1.499 . S
C1652 H1632 0.950 . S
C1652 C1651 1.414 . S
C1652 C1653 1.374 . S
C1653 H1633 0.950 . S
C1653 C1649 1.385 . S
C1653 C1652 1.374 . S
C1654 C1651 1.499 . S
C1654 C1655 1.373 . S
C1654 C1656 1.389 . S
C1655 H1634 0.950 . S
C1655 C1654 1.373 . S
C1655 C1671 1.377 . S
C1656 C1654 1.389 . S
C1656 C1657 1.524 . S
C1656 C1670 1.377 . S
C1657 C1656 1.524 . S
C1657 C1658 1.397 . S
C1657 C1662 1.363 . S
C1658 H1635 0.950 . S
C1658 C1657 1.397 . S
C1658 C1659 1.334 . S
C1659 H1636 0.950 . S
C1659 C1658 1.334 . S
C1659 C1660 1.287 . S
C1660 C1659 1.287 . S
C1660 C1661 1.524 . S
C1660 H1679 0.913 . S
C1661 H1637 0.950 . S
C1661 C1660 1.524 . S
C1661 C1662 1.415 . S
C1662 H1638 0.950 . S
C1662 C1657 1.363 . S
C1662 C1661 1.415 . S
C1663 H1639 0.951 . S
C1663 C1664 1.366 . S
C1663 C1665 1.388 . S
C1664 C1663 1.366 . S
C1664 C1668 1.385 . S
C1665 H1640 0.951 . S
C1665 C1663 1.388 . S
C1665 C1666 1.366 . S
C1666 C1665 1.366 . S
C1666 C1667 1.414 . S
C1666 C1669 1.499 . S
C1667 H1641 0.950 . S
C1667 C1666 1.414 . S
C1667 C1668 1.374 . S
C1668 H1642 0.950 . S
C1668 C1664 1.385 . S
C1668 C1667 1.374 . S
C1669 C1666 1.499 . S
C1669 C1670 1.373 . S
C1669 C1671 1.389 . S
C1670 H1643 0.950 . S
C1670 C1656 1.377 . S
C1670 C1669 1.373 . S
C1671 C1655 1.377 . S
C1671 C1669 1.389 . S
C1671 C1672 1.524 . S
C1672 C1671 1.524 . S
C1672 C1673 1.397 . S
C1672 C1677 1.363 . S
C1673 H1644 0.950 . S
C1673 C1672 1.397 . S
C1673 C1674 1.334 . S
C1674 H1645 0.950 . S
C1674 C1673 1.334 . S
C1674 C1675 1.287 . S
C1675 C1674 1.287 . S
C1675 C1676 1.524 . S
C1675 H1678 0.999 . S
C1676 H1646 0.950 . S
C1676 C1675 1.524 . S
C1676 C1677 1.415 . S
C1677 H1647 0.950 . S
C1677 C1672 1.363 . S
C1677 C1676 1.415 . S
H1678 C1675 0.999 . S
H1679 C1660 0.913 . S
C499 C255 1.972 . S
C514 C329 2.092 . S
C564 C369 2.094 . S
C549 C295 1.971 . S
C614 C409 2.097 . S
C599 C175 1.973 . S
C664 C449 2.088 1_455 S
C649 C215 1.968 . S
C714 C338 2.099 . S
C699 C95 1.976 . S
C749 C135 1.971 . S
C764 C378 2.094 . S
C799 C15 1.972 . S
C814 C418 2.098 . S
C849 C55 1.968 1_655 S
C864 C458 2.089 1_655 S
C914 C335 0.266 . S
C899 C221 0.276 . S
C964 C375 0.276 . S
C949 C261 0.270 . S
C1014 C415 0.264 . S
C999 C301 0.273 . S
C1049 C181 0.268 . S
C1064 C455 0.276 . S
C1099 C61 0.413 1_655 S
C1114 C326 0.252 . S
C1164 C366 0.278 . S
C1149 C101 0.430 . S
C1214 C406 0.265 . S
C1199 C141 0.409 . S
C1249 C21 0.431 . S
C1264 C446 0.280 . S
C1299 C202 2.806 . S
C1314 C339 3.067 . S
C1349 C242 2.805 . S
C1364 C379 3.061 . S
C1414 C419 3.062 . S
C1399 C282 2.800 . S
C1464 C459 3.070 . S
C1449 C162 2.805 . S
C1499 C42 2.818 1_655 S
C1514 C330 3.068 . S
C1564 C370 3.060 . S
C1549 C82 2.806 . S
C1614 C410 3.062 . S
C1599 C122 2.814 . S
C1649 C2 2.816 . S
C1664 C450 3.079 . S
