# Generated by pormake.
# Topology ocu, (6,8)-cn, num edge types: 1
# Building blocks:
#     Node 0, Type 0, BuildingBlock: KUMBUR_clean_sbu_1, # of connection points: 6
#     Node 1, Type 0, BuildingBlock: KUMBUR_clean_sbu_1, # of connection points: 6
#     Node 2, Type 0, BuildingBlock: KUMBUR_clean_sbu_1, # of connection points: 6
#     Node 3, Type 0, BuildingBlock: KUMBUR_clean_sbu_1, # of connection points: 6
#     Node 4, Type 0, BuildingBlock: KUMBUR_clean_sbu_1, # of connection points: 6
#     Node 5, Type 0, BuildingBlock: KUMBUR_clean_sbu_1, # of connection points: 6
#     Node 6, Type 0, BuildingBlock: KUMBUR_clean_sbu_1, # of connection points: 6
#     Node 7, Type 0, BuildingBlock: KUMBUR_clean_sbu_1, # of connection points: 6
#     Node 8, Type 1, BuildingBlock: GIZVER_clean_sbu_0, # of connection points: 8
#     Node 9, Type 1, BuildingBlock: GIZVER_clean_sbu_0, # of connection points: 8
#     Node 10, Type 1, BuildingBlock: GIZVER_clean_sbu_0, # of connection points: 8
#     Node 11, Type 1, BuildingBlock: GIZVER_clean_sbu_0, # of connection points: 8
#     Node 12, Type 1, BuildingBlock: GIZVER_clean_sbu_0, # of connection points: 8
#     Node 13, Type 1, BuildingBlock: GIZVER_clean_sbu_0, # of connection points: 8
#     Edge 14, Type (0, 1), BuildingBlock: OJICUG_clean_linker_0, # of connection points: 2
#     Edge 15, Type (0, 1), BuildingBlock: OJICUG_clean_linker_0, # of connection points: 2
#     Edge 16, Type (0, 1), BuildingBlock: OJICUG_clean_linker_0, # of connection points: 2
#     Edge 17, Type (0, 1), BuildingBlock: OJICUG_clean_linker_0, # of connection points: 2
#     Edge 18, Type (0, 1), BuildingBlock: OJICUG_clean_linker_0, # of connection points: 2
#     Edge 19, Type (0, 1), BuildingBlock: OJICUG_clean_linker_0, # of connection points: 2
#     Edge 20, Type (0, 1), BuildingBlock: OJICUG_clean_linker_0, # of connection points: 2
#     Edge 21, Type (0, 1), BuildingBlock: OJICUG_clean_linker_0, # of connection points: 2
#     Edge 22, Type (0, 1), BuildingBlock: OJICUG_clean_linker_0, # of connection points: 2
#     Edge 23, Type (0, 1), BuildingBlock: OJICUG_clean_linker_0, # of connection points: 2
#     Edge 24, Type (0, 1), BuildingBlock: OJICUG_clean_linker_0, # of connection points: 2
#     Edge 25, Type (0, 1), BuildingBlock: OJICUG_clean_linker_0, # of connection points: 2
#     Edge 26, Type (0, 1), BuildingBlock: OJICUG_clean_linker_0, # of connection points: 2
#     Edge 27, Type (0, 1), BuildingBlock: OJICUG_clean_linker_0, # of connection points: 2
#     Edge 28, Type (0, 1), BuildingBlock: OJICUG_clean_linker_0, # of connection points: 2
#     Edge 29, Type (0, 1), BuildingBlock: OJICUG_clean_linker_0, # of connection points: 2
#     Edge 30, Type (0, 1), BuildingBlock: OJICUG_clean_linker_0, # of connection points: 2
#     Edge 31, Type (0, 1), BuildingBlock: OJICUG_clean_linker_0, # of connection points: 2
#     Edge 32, Type (0, 1), BuildingBlock: OJICUG_clean_linker_0, # of connection points: 2
#     Edge 33, Type (0, 1), BuildingBlock: OJICUG_clean_linker_0, # of connection points: 2
#     Edge 34, Type (0, 1), BuildingBlock: OJICUG_clean_linker_0, # of connection points: 2
#     Edge 35, Type (0, 1), BuildingBlock: OJICUG_clean_linker_0, # of connection points: 2
#     Edge 36, Type (0, 1), BuildingBlock: OJICUG_clean_linker_0, # of connection points: 2
#     Edge 37, Type (0, 1), BuildingBlock: OJICUG_clean_linker_0, # of connection points: 2
#     Edge 38, Type (0, 1), BuildingBlock: OJICUG_clean_linker_0, # of connection points: 2
#     Edge 39, Type (0, 1), BuildingBlock: OJICUG_clean_linker_0, # of connection points: 2
#     Edge 40, Type (0, 1), BuildingBlock: OJICUG_clean_linker_0, # of connection points: 2
#     Edge 41, Type (0, 1), BuildingBlock: OJICUG_clean_linker_0, # of connection points: 2
#     Edge 42, Type (0, 1), BuildingBlock: OJICUG_clean_linker_0, # of connection points: 2
#     Edge 43, Type (0, 1), BuildingBlock: OJICUG_clean_linker_0, # of connection points: 2
#     Edge 44, Type (0, 1), BuildingBlock: OJICUG_clean_linker_0, # of connection points: 2
#     Edge 45, Type (0, 1), BuildingBlock: OJICUG_clean_linker_0, # of connection points: 2
#     Edge 46, Type (0, 1), BuildingBlock: OJICUG_clean_linker_0, # of connection points: 2
#     Edge 47, Type (0, 1), BuildingBlock: OJICUG_clean_linker_0, # of connection points: 2
#     Edge 48, Type (0, 1), BuildingBlock: OJICUG_clean_linker_0, # of connection points: 2
#     Edge 49, Type (0, 1), BuildingBlock: OJICUG_clean_linker_0, # of connection points: 2
#     Edge 50, Type (0, 1), BuildingBlock: OJICUG_clean_linker_0, # of connection points: 2
#     Edge 51, Type (0, 1), BuildingBlock: OJICUG_clean_linker_0, # of connection points: 2
#     Edge 52, Type (0, 1), BuildingBlock: OJICUG_clean_linker_0, # of connection points: 2
#     Edge 53, Type (0, 1), BuildingBlock: OJICUG_clean_linker_0, # of connection points: 2
#     Edge 54, Type (0, 1), BuildingBlock: OJICUG_clean_linker_0, # of connection points: 2
#     Edge 55, Type (0, 1), BuildingBlock: OJICUG_clean_linker_0, # of connection points: 2
#     Edge 56, Type (0, 1), BuildingBlock: OJICUG_clean_linker_0, # of connection points: 2
#     Edge 57, Type (0, 1), BuildingBlock: OJICUG_clean_linker_0, # of connection points: 2
#     Edge 58, Type (0, 1), BuildingBlock: OJICUG_clean_linker_0, # of connection points: 2
#     Edge 59, Type (0, 1), BuildingBlock: OJICUG_clean_linker_0, # of connection points: 2
#     Edge 60, Type (0, 1), BuildingBlock: OJICUG_clean_linker_0, # of connection points: 2
#     Edge 61, Type (0, 1), BuildingBlock: OJICUG_clean_linker_0, # of connection points: 2
# Relax obj value: 0.199
# Max RMSD: 0.206
# Mean RMSD: 0.174
data_MOF--net-ocu--node1-KUMBUR_clean_sbu_1--node2-GIZVER_clean_sbu_0--edge1-OJICUG_clean_linker_0
_symmetry_space_group_name_H-M    P1
_symmetry_Int_Tables_number       1
_symmetry_cell_setting            triclinic
loop_
_symmetry_equiv_pos_as_xyz
'x, y, z'
_cell_length_a     33.334869
_cell_length_b     34.756036
_cell_length_c     27.165498
_cell_angle_alpha  102.79772
_cell_angle_beta   77.440226
_cell_angle_gamma 117.50496
loop_
_atom_site_label
_atom_site_type_symbol
_atom_site_fract_x
_atom_site_fract_y
_atom_site_fract_z
_atom_type_partial_charge
Tb0 Tb 0.2578 0.26039 0.20629 0.0
C1 C 0.39859 0.40405 0.35165 0.0
N2 N 0.40126 0.37184 0.31416 0.0
C3 C 0.47745 0.42113 0.2834 0.0
C4 C 0.43491 0.44645 0.35583 0.0
C5 C 0.44081 0.37939 0.28145 0.0
C6 C 0.4743 0.45499 0.32036 0.0
C7 C 0.35776 0.42454 0.43021 0.0
C8 C 0.36057 0.39343 0.38816 0.0
C9 C 0.39288 0.46741 0.43344 0.0
C10 C 0.43135 0.47839 0.39623 0.0
Tb11 Tb 0.33741 0.30588 0.31313 0.0
N12 N 0.32738 0.35167 0.3838 0.0
C13 C 0.32041 0.41121 0.46838 0.0
C14 C 0.29207 0.33781 0.42209 0.0
C15 C 0.28775 0.36747 0.46462 0.0
H16 H 0.44406 0.3535 0.25301 0.0
H17 H 0.2593 0.35642 0.49439 0.0
H18 H 0.17012 0.16302 0.21965 0.0
H19 H 0.3687 0.32432 0.03602 0.0
H20 H 0.26692 0.30406 0.4195 0.0
H21 H 0.31718 0.43421 0.50129 0.0
H22 H 0.32821 0.32953 0.12213 0.0
H23 H 0.5082 0.42708 0.25654 0.0
H24 H 0.39114 0.49199 0.46519 0.0
H25 H 0.45872 0.51126 0.39986 0.0
H26 H 0.14159 0.08901 0.17053 0.0
H27 H 0.50293 0.48717 0.32213 0.0
H28 H 0.35186 0.25174 0.98458 0.0
N29 N 0.22617 0.19115 0.16319 0.0
C30 C 0.24668 0.18496 0.11511 0.0
C31 C 0.17148 0.11559 0.15465 0.0
C32 C 0.23106 0.14333 0.08528 0.0
C33 C 0.18811 0.1575 0.18263 0.0
C34 C 0.19337 0.10832 0.10597 0.0
N35 N 0.29498 0.26089 0.12436 0.0
C36 C 0.32376 0.29777 0.10258 0.0
C37 C 0.30277 0.21626 0.04418 0.0
C38 C 0.28232 0.22096 0.09504 0.0
C39 C 0.33561 0.25384 0.02356 0.0
C40 C 0.34543 0.29485 0.05259 0.0
H41 H 0.18026 0.07585 0.08425 0.0
H42 H 0.24141 0.1064 0.01211 0.0
H43 H 0.30398 0.1703 0.97598 0.0
O44 O 0.23494 0.28656 0.16189 0.0
O45 O 0.30573 0.22833 0.19295 0.0
O46 O 0.36382 0.27106 0.24359 0.0
O47 O 0.18696 0.24049 0.21301 0.0
O48 O 0.30786 0.33 0.21361 0.0
O49 O 0.36473 0.32286 0.2368 0.0
O50 O 0.33408 0.24958 0.33469 0.0
O51 O 0.29479 0.34169 0.31986 0.0
O52 O 0.23264 0.29199 0.2798 0.0
O53 O 0.37873 0.31446 0.36633 0.0
O54 O 0.26578 0.25921 0.33334 0.0
O55 O 0.24262 0.21437 0.25908 0.0
C56 C 0.34569 0.23796 0.20701 0.0
C57 C 0.15811 0.24983 0.14488 0.0
C58 C 0.12069 0.27345 0.09777 0.0
C59 C 0.0852 0.23074 0.0934 0.0
C60 C 0.12262 0.20733 0.14012 0.0
C61 C 0.08674 0.19774 0.11361 0.0
C62 C 0.15767 0.28194 0.12204 0.0
C63 C 0.35132 0.34488 0.21651 0.0
C64 C 0.19231 0.26473 0.17957 0.0
C65 C 0.25276 0.13819 0.03549 0.0
C66 C 0.28849 0.17458 0.01496 0.0
C67 C 0.25306 0.32928 0.30985 0.0
C68 C 0.4059 0.26172 0.3519 0.0
C69 C 0.44718 0.22782 0.37513 0.0
C70 C 0.48368 0.24684 0.33762 0.0
C71 C 0.44256 0.2804 0.31444 0.0
C72 C 0.40814 0.2351 0.38199 0.0
C73 C 0.48115 0.27281 0.30715 0.0
C74 C 0.24181 0.22051 0.3087 0.0
C75 C 0.36721 0.27289 0.36232 0.0
H76 H 0.05595 0.223 0.07531 0.0
H77 H 0.12193 0.18202 0.15788 0.0
H78 H 0.05917 0.16502 0.11031 0.0
H79 H 0.18566 0.31451 0.12533 0.0
H80 H 0.51387 0.24119 0.33161 0.0
H81 H 0.44155 0.30127 0.29128 0.0
H82 H 0.38019 0.22105 0.41148 0.0
H83 H 0.50922 0.28735 0.27812 0.0
Tb84 Tb 0.75369 0.31159 0.28373 0.0
C85 C 0.91811 0.28593 0.15931 0.0
N86 N 0.87435 0.25546 0.16919 0.0
C87 C 0.8747 0.22499 0.08086 0.0
C88 C 0.94126 0.28833 0.10925 0.0
C89 C 0.85299 0.22417 0.13115 0.0
C90 C 0.91882 0.25749 0.06975 0.0
C91 C 0.98446 0.34761 0.19115 0.0
C92 C 0.93921 0.31531 0.19972 0.0
C93 C 1.00718 0.35118 0.14116 0.0
C94 C 0.98569 0.32152 0.1003 0.0
Tb95 Tb 0.84182 0.25783 0.25233 0.0
N96 N 0.91597 0.31102 0.24756 0.0
C97 C 1.00595 0.3745 0.23318 0.0
C98 C 0.93856 0.33417 0.28864 0.0
C99 C 0.98323 0.36704 0.28221 0.0
H100 H 0.81925 0.19845 0.1393 0.0
H101 H 1.00043 0.38592 0.31507 0.0
H102 H 0.79607 0.4012 0.36977 0.0
H103 H 0.58236 0.18154 0.29595 0.0
H104 H 0.92308 0.32634 0.32639 0.0
H105 H 1.04071 0.39968 0.22826 0.0
H106 H 0.6553 0.23238 0.2521 0.0
H107 H 0.85741 0.20052 0.05068 0.0
H108 H 1.0416 0.37632 0.13386 0.0
H109 H 1.00376 0.32438 0.06199 0.0
H110 H 0.78739 0.41928 0.46328 0.0
H111 H 0.9354 0.25819 0.03073 0.0
H112 H 0.57056 0.18684 0.38994 0.0
N113 N 0.74471 0.33544 0.36977 0.0
C114 C 0.70829 0.3074 0.39789 0.0
C115 C 0.76541 0.38726 0.4455 0.0
C116 C 0.70069 0.31679 0.45135 0.0
C117 C 0.77088 0.37651 0.39246 0.0
C118 C 0.73087 0.35675 0.47525 0.0
N119 N 0.68387 0.26542 0.32079 0.0
C120 C 0.64975 0.2353 0.29319 0.0
C121 C 0.63567 0.24305 0.39906 0.0
C122 C 0.67614 0.27141 0.37239 0.0
C123 C 0.6021 0.20956 0.37101 0.0
C124 C 0.60866 0.20645 0.31788 0.0
H125 H 0.72629 0.3653 0.51626 0.0
H126 H 0.65609 0.29308 0.51993 0.0
H127 H 0.59963 0.2279 0.47408 0.0
O128 O 0.71965 0.31353 0.22865 0.0
O129 O 0.73218 0.24465 0.29955 0.0
O130 O 0.79514 0.24925 0.32438 0.0
O131 O 0.73144 0.36114 0.29547 0.0
O132 O 0.75759 0.2722 0.20908 0.0
O133 O 0.77662 0.21814 0.21768 0.0
O134 O 0.88906 0.23906 0.2681 0.0
O135 O 0.84381 0.29955 0.19941 0.0
O136 O 0.82317 0.35238 0.24812 0.0
O137 O 0.82442 0.1906 0.24696 0.0
O138 O 0.84327 0.30203 0.32559 0.0
O139 O 0.82113 0.35155 0.30972 0.0
C140 C 0.75067 0.23118 0.32586 0.0
C141 C 0.73107 0.38272 0.21919 0.0
C142 C 0.7113 0.41403 0.1617 0.0
C143 C 0.75792 0.44208 0.15042 0.0
C144 C 0.77734 0.41105 0.20793 0.0
C145 C 0.79063 0.44057 0.17354 0.0
C146 C 0.69827 0.38426 0.1961 0.0
C147 C 0.75224 0.23134 0.19844 0.0
C148 C 0.71646 0.34898 0.25171 0.0
C149 C 0.66208 0.28699 0.47873 0.0
C150 C 0.62969 0.25002 0.45258 0.0
C151 C 0.84898 0.34042 0.20977 0.0
C152 C 0.85458 0.17609 0.30953 0.0
C153 C 0.88631 0.16308 0.37478 0.0
C154 C 0.84155 0.1378 0.39631 0.0
C155 C 0.81047 0.14961 0.33147 0.0
C156 C 0.89264 0.18203 0.33094 0.0
C157 C 0.80416 0.1308 0.3745 0.0
C158 C 0.84443 0.34147 0.33402 0.0
C159 C 0.86084 0.1979 0.26511 0.0
H160 H 0.76914 0.46495 0.12345 0.0
H161 H 0.80311 0.41006 0.22523 0.0
H162 H 0.82639 0.46218 0.16458 0.0
H163 H 0.66255 0.36241 0.20527 0.0
H164 H 0.83542 0.12203 0.4292 0.0
H165 H 0.78064 0.14346 0.31553 0.0
H166 H 0.92692 0.2015 0.31381 0.0
H167 H 0.77003 0.11031 0.39087 0.0
Tb168 Tb 0.77589 0.74334 0.30635 0.0
C169 C 0.92088 0.86321 0.14519 0.0
N170 N 0.89738 0.87474 0.18856 0.0
C171 C 0.96193 0.94429 0.20234 0.0
C172 C 0.96618 0.89184 0.12874 0.0
C173 C 0.91675 0.91509 0.21658 0.0
C174 C 0.98689 0.93251 0.15839 0.0
C175 C 0.9208 0.81099 0.06936 0.0
C176 C 0.89873 0.8232 0.11611 0.0
C177 C 0.96605 0.83921 0.0531 0.0
C178 C 0.98885 0.87937 0.08277 0.0
Tb179 Tb 0.82444 0.82392 0.20789 0.0
N180 N 0.85506 0.79661 0.1334 0.0
C181 C 0.89634 0.77132 0.03991 0.0
C182 C 0.8301 0.75916 0.10362 0.0
C183 C 0.85061 0.74554 0.05688 0.0
H184 H 0.89698 0.92526 0.24915 0.0
H185 H 0.83106 0.71539 0.03381 0.0
H186 H 0.69625 0.64571 0.26376 0.0
H187 H 0.77532 0.85489 0.47973 0.0
H188 H 0.79462 0.7396 0.11623 0.0
H189 H 0.91209 0.76079 1.00363 0.0
H190 H 0.80998 0.82658 0.39914 0.0
H191 H 0.97723 0.9761 0.22483 0.0
H192 H 0.98346 0.83062 0.01732 0.0
H193 H 1.02365 0.90089 0.06931 0.0
H194 H 0.61408 0.60093 0.28681 0.0
H195 H 1.0217 0.95541 0.14709 0.0
H196 H 0.69273 0.81541 0.50843 0.0
N197 N 0.70036 0.69728 0.32488 0.0
C198 C 0.67809 0.71073 0.36813 0.0
C199 C 0.63159 0.63195 0.30977 0.0
C200 C 0.63133 0.68561 0.38348 0.0
C201 C 0.67809 0.65784 0.29635 0.0
C202 C 0.608 0.64603 0.3533 0.0
N203 N 0.74747 0.77292 0.38119 0.0
C204 C 0.77395 0.80947 0.41092 0.0
C205 C 0.68128 0.76423 0.44355 0.0
C206 C 0.7026 0.74946 0.39776 0.0
C207 C 0.70775 0.80297 0.47292 0.0
C208 C 0.75439 0.82542 0.45677 0.0
H209 H 0.57204 0.62577 0.36374 0.0
H210 H 0.57364 0.68176 0.44095 0.0
H211 H 0.61743 0.75056 0.49358 0.0
O212 O 0.81948 0.74628 0.35382 0.0
O213 O 0.74346 0.79014 0.31426 0.0
O214 O 0.79829 0.8524 0.28148 0.0
O215 O 0.7633 0.68526 0.33199 0.0
O216 O 0.84728 0.79366 0.30407 0.0
O217 O 0.85074 0.85457 0.2818 0.0
O218 O 0.77628 0.81537 0.16281 0.0
O219 O 0.85922 0.77938 0.19943 0.0
O220 O 0.80523 0.71702 0.23252 0.0
O221 O 0.8325 0.87841 0.17792 0.0
O222 O 0.75297 0.7726 0.21158 0.0
O223 O 0.75289 0.71277 0.23186 0.0
C224 C 0.75946 0.83256 0.31045 0.0
C225 C 0.83321 0.68417 0.33582 0.0
C226 C 0.89495 0.67201 0.35326 0.0
C227 C 0.89981 0.65251 0.30266 0.0
C228 C 0.837 0.66248 0.28607 0.0
C229 C 0.87068 0.6475 0.26943 0.0
C230 C 0.86237 0.68888 0.36921 0.0
C231 C 0.8632 0.83641 0.30969 0.0
C232 C 0.80089 0.70402 0.35251 0.0
C233 C 0.6096 0.70052 0.42863 0.0
C234 C 0.63453 0.73971 0.45863 0.0
C235 C 0.84432 0.73737 0.20395 0.0
C236 C 0.76123 0.87636 0.17363 0.0
C237 C 0.69602 0.88296 0.15582 0.0
C238 C 0.69536 0.90879 0.20364 0.0
C239 C 0.76014 0.90263 0.22084 0.0
C240 C 0.72899 0.86651 0.14122 0.0
C241 C 0.72718 0.91848 0.2358 0.0
C242 C 0.73798 0.72991 0.20588 0.0
C243 C 0.79391 0.85692 0.15932 0.0
H244 H 0.92408 0.63859 0.2898 0.0
H245 H 0.81386 0.65689 0.26015 0.0
H246 H 0.87332 0.63067 0.23119 0.0
H247 H 0.85891 0.70464 0.40796 0.0
H248 H 0.67088 0.9225 0.21574 0.0
H249 H 0.78459 0.91076 0.24635 0.0
H250 H 0.72911 0.84565 0.10513 0.0
H251 H 0.72649 0.93865 0.27229 0.0
Tb252 Tb 0.24508 0.81331 0.29549 0.0
C253 C 0.41541 0.75091 0.24557 0.0
N254 N 0.40599 0.78121 0.23333 0.0
C255 C 0.48589 0.83046 0.22507 0.0
C256 C 0.46032 0.75911 0.24904 0.0
C257 C 0.44073 0.8201 0.22108 0.0
C258 C 0.49573 0.8 0.23974 0.0
C259 C 0.38807 0.67571 0.25741 0.0
C260 C 0.3802 0.71039 0.24999 0.0
C261 C 0.43221 0.68386 0.2637 0.0
C262 C 0.46837 0.72565 0.2596 0.0
Tb263 Tb 0.33085 0.7643 0.23303 0.0
N264 N 0.33884 0.70412 0.24209 0.0
C265 C 0.35187 0.63371 0.25585 0.0
C266 C 0.30429 0.66266 0.23692 0.0
C267 C 0.30996 0.62704 0.24467 0.0
H268 H 0.43397 0.84322 0.20786 0.0
H269 H 0.28207 0.59449 0.24178 0.0
H270 H 0.21922 0.82758 0.19173 0.0
H271 H 0.24477 0.90191 0.48555 0.0
H272 H 0.27193 0.65701 0.22766 0.0
H273 H 0.35638 0.60607 0.26132 0.0
H274 H 0.23866 0.83742 0.4206 0.0
H275 H 0.51309 0.86176 0.2164 0.0
H276 H 0.43901 0.65782 0.26996 0.0
H277 H 0.50255 0.73128 0.26285 0.0
H278 H 0.21466 0.88651 0.1601 0.0
H279 H 0.53077 0.80778 0.24207 0.0
H280 H 0.25294 0.96923 0.45977 0.0
N281 N 0.23885 0.86544 0.26294 0.0
C282 C 0.24501 0.90337 0.29431 0.0
C283 C 0.22366 0.89187 0.19781 0.0
C284 C 0.24212 0.93779 0.27825 0.0
C285 C 0.22634 0.85853 0.21585 0.0
C286 C 0.23224 0.93195 0.22888 0.0
N287 N 0.24768 0.8699 0.35855 0.0
C288 C 0.24338 0.86723 0.40899 0.0
C289 C 0.25183 0.94266 0.37979 0.0
C290 C 0.2498 0.90576 0.34411 0.0
C291 C 0.25136 0.94156 0.43108 0.0
C292 C 0.24643 0.90342 0.44582 0.0
H293 H 0.2296 0.95754 0.21506 0.0
H294 H 0.24537 1.00294 0.30102 0.0
H295 H 0.25393 1.00723 0.39018 0.0
O296 O 0.18744 0.75154 0.29332 0.0
O297 O 0.29747 0.84698 0.23296 0.0
O298 O 0.35829 0.83614 0.24081 0.0
O299 O 0.18079 0.81072 0.32636 0.0
O300 O 0.30081 0.83653 0.34257 0.0
O301 O 0.35714 0.8136 0.3002 0.0
O302 O 0.32202 0.78352 0.16878 0.0
O303 O 0.27535 0.72579 0.28837 0.0
O304 O 0.24951 0.77266 0.34468 0.0
O305 O 0.34522 0.73376 0.16066 0.0
O306 O 0.25785 0.72412 0.2296 0.0
O307 O 0.24242 0.77758 0.21767 0.0
C308 C 0.34206 0.85983 0.22757 0.0
C309 C 0.12356 0.75723 0.27727 0.0
C310 C 0.07366 0.77839 0.24738 0.0
C311 C 1.04907 0.73481 0.22629 0.0
C312 C 0.09911 0.71374 0.25554 0.0
C313 C 0.06262 0.70284 0.22924 0.0
C314 C 0.11165 0.7893 0.27103 0.0
C315 C 0.34119 0.83639 0.33863 0.0
C316 C 0.15944 0.76932 0.30921 0.0
C317 C 0.24702 0.97591 0.31272 0.0
C318 C 0.25191 0.97836 0.36347 0.0
C319 C 0.25193 0.73472 0.33157 0.0
C320 C 0.35721 0.76467 0.0869 0.0
C321 C 0.39385 0.73651 0.01139 0.0
C322 C 0.41761 0.77853 0.99651 0.0
C323 C 0.38134 0.80695 0.07325 0.0
C324 C 0.35939 0.72934 0.05267 0.0
C325 C 0.40989 0.81344 0.02663 0.0
C326 C 0.23541 0.73636 0.20743 0.0
C327 C 0.33278 0.7548 0.1375 0.0
H328 H 1.01841 0.72527 0.20996 0.0
H329 H 0.10776 0.68822 0.25953 0.0
H330 H 1.04352 0.66918 0.21314 0.0
H331 H 0.12933 0.82263 0.28922 0.0
H332 H 0.4449 0.78499 0.96489 0.0
H333 H 0.37943 0.83461 0.09897 0.0
H334 H 0.34078 0.69692 0.06432 0.0
H335 H 0.429 0.84606 0.01611 0.0
Tb336 Tb 0.26838 0.79169 0.768 0.0
C337 C 0.4112 0.74397 0.61541 0.0
N338 N 0.37213 0.71637 0.64107 0.0
C339 C 0.35605 0.66438 0.56488 0.0
C340 C 0.42318 0.73361 0.56283 0.0
C341 C 0.34553 0.67622 0.617 0.0
C342 C 0.39472 0.69345 0.53749 0.0
C343 C 0.48005 0.81248 0.6171 0.0
C344 C 0.43943 0.78276 0.64216 0.0
C345 C 0.4911 0.8031 0.56433 0.0
C346 C 0.46301 0.76363 0.53732 0.0
Tb347 Tb 0.35777 0.74087 0.72543 0.0
N348 N 0.42579 0.79218 0.69246 0.0
C349 C 0.50769 0.85108 0.64571 0.0
C350 C 0.45351 0.82874 0.72102 0.0
C351 C 0.49464 0.85892 0.69805 0.0
H352 H 0.31697 0.65262 0.63808 0.0
H353 H 0.51615 0.88828 0.72067 0.0
H354 H 0.30643 0.89203 0.83153 0.0
H355 H 0.11622 0.64345 0.80391 0.0
H356 H 0.44397 0.83478 0.76136 0.0
H357 H 0.5392 0.87483 0.62789 0.0
H358 H 0.18564 0.69087 0.75255 0.0
H359 H 0.33455 0.63267 0.54599 0.0
H360 H 0.52089 0.82634 0.54392 0.0
H361 H 0.47236 0.75667 0.49672 0.0
H362 H 0.28751 0.92858 0.91624 0.0
H363 H 0.40276 0.68423 0.49709 0.0
H364 H 0.09389 0.67224 0.89189 0.0
N365 N 0.25199 0.82959 0.8433 0.0
C366 C 0.21517 0.80607 0.87494 0.0
C367 C 0.26693 0.89404 0.90514 0.0
C368 C 0.20293 0.82545 0.92346 0.0
C369 C 0.27767 0.87323 0.85732 0.0
C370 C 0.22954 0.87001 0.93849 0.0
N371 N 0.20286 0.74527 0.81133 0.0
C372 C 0.17607 0.70367 0.79077 0.0
C373 C 0.15023 0.73674 0.889 0.0
C374 C 0.18935 0.76246 0.85816 0.0
C375 C 0.12411 0.6932 0.86941 0.0
C376 C 0.13668 0.67681 0.81976 0.0
H377 H 0.22133 0.88619 0.97551 0.0
H378 H 0.15486 0.81389 0.99281 0.0
H379 H 0.1092 0.73599 0.96281 0.0
O380 O 0.21956 0.77429 0.71997 0.0
O381 O 0.26625 0.74877 0.81839 0.0
O382 O 0.29234 0.69964 0.76839 0.0
O383 O 0.25191 0.84066 0.7561 0.0
O384 O 0.27048 0.74824 0.69473 0.0
O385 O 0.28954 0.69634 0.70647 0.0
O386 O 0.40044 0.7425 0.77329 0.0
O387 O 0.36234 0.79098 0.68189 0.0
O388 O 0.33512 0.83707 0.73668 0.0
O389 O 0.37818 0.6901 0.71157 0.0
O390 O 0.35945 0.78149 0.80033 0.0
O391 O 0.33443 0.83324 0.79919 0.0
C392 C 0.26899 0.71118 0.80985 0.0
C393 C 0.23232 0.82847 0.67297 0.0
C394 C 0.2056 0.84958 0.61053 0.0
C395 C 0.24213 0.84733 0.57452 0.0
C396 C 0.26863 0.82696 0.63637 0.0
C397 C 0.27342 0.83632 0.58751 0.0
C398 C 0.20092 0.83988 0.65997 0.0
C399 C 0.26351 0.70704 0.6879 0.0
C400 C 0.22483 0.81416 0.72283 0.0
C401 C 0.16464 0.79977 0.95515 0.0
C402 C 0.13847 0.75544 0.938 0.0
C403 C 0.36284 0.83005 0.6974 0.0
C404 C 0.38276 0.67248 0.78829 0.0
C405 C 0.39985 0.64478 0.85199 0.0
C406 C 0.35313 0.61651 0.86178 0.0
C407 C 0.33655 0.64286 0.79724 0.0
C408 C 0.4143 0.67335 0.81572 0.0
C409 C 0.32179 0.61551 0.83435 0.0
C410 C 0.36094 0.82079 0.81533 0.0
C411 C 0.39789 0.70408 0.75251 0.0
H412 H 0.2473 0.85513 0.53656 0.0
H413 H 0.29277 0.81768 0.64523 0.0
H414 H 0.30153 0.83501 0.55952 0.0
H415 H 0.17258 0.84058 0.68805 0.0
H416 H 0.34088 0.59476 0.89026 0.0
H417 H 0.31178 0.64077 0.77568 0.0
H418 H 0.4501 0.69552 0.80792 0.0
H419 H 0.28603 0.59323 0.84159 0.0
Tb420 Tb 0.2839 0.22898 0.80799 0.0
C421 C 0.43111 0.33925 0.64711 0.0
N422 N 0.4091 0.35361 0.68993 0.0
C423 C 0.47857 0.41822 0.7046 0.0
C424 C 0.47809 0.36351 0.63187 0.0
C425 C 0.43186 0.39315 0.71799 0.0
C426 C 0.50188 0.4032 0.6616 0.0
C427 C 0.42741 0.28453 0.57282 0.0
C428 C 0.40622 0.30034 0.61791 0.0
C429 C 0.47433 0.30823 0.55784 0.0
C430 C 0.49962 0.34761 0.58732 0.0
Tb431 Tb 0.33316 0.30879 0.70819 0.0
N432 N 0.36118 0.27752 0.63449 0.0
C433 C 0.40068 0.2455 0.54409 0.0
C434 C 0.3345 0.2407 0.60526 0.0
C435 C 0.35394 0.22377 0.5601 0.0
H436 H 0.41399 0.40604 0.75013 0.0
H437 H 0.33283 0.19408 0.53756 0.0
H438 H 0.2116 0.12761 0.76633 0.0
H439 H 0.27498 0.33807 0.98084 0.0
H440 H 0.29839 0.22416 0.61682 0.0
H441 H 0.4156 0.23226 0.5092 0.0
H442 H 0.31274 0.31307 0.90002 0.0
H443 H 0.49647 0.44934 0.72719 0.0
H444 H 0.49131 0.29655 0.52341 0.0
H445 H 0.53573 0.36571 0.57511 0.0
H446 H 0.13078 0.07729 0.78899 0.0
H447 H 0.53802 0.42281 0.65122 0.0
H448 H 0.1933 0.29356 0.00891 0.0
N449 N 0.21057 0.17839 0.82626 0.0
C450 C 0.18644 0.19019 0.86884 0.0
C451 C 0.1459 0.10912 0.81151 0.0
C452 C 0.14069 0.16197 0.88422 0.0
C453 C 0.19143 0.138 0.79824 0.0
C454 C 0.12028 0.12127 0.85449 0.0
N455 N 0.2524 0.25639 0.88174 0.0
C456 C 0.277 0.29382 0.91179 0.0
C457 C 0.18543 0.24285 0.94388 0.0
C458 C 0.20831 0.23014 0.89811 0.0
C459 C 0.20959 0.28257 0.97343 0.0
C460 C 0.25574 0.30789 0.95762 0.0
H461 H 0.08515 0.09866 0.86498 0.0
H462 H 0.08201 0.15375 0.9417 0.0
H463 H 0.1214 0.22417 0.99387 0.0
O464 O 0.332 0.23728 0.8531 0.0
O465 O 0.24928 0.27362 0.81569 0.0
O466 O 0.30207 0.33557 0.78058 0.0
O467 O 0.27471 0.17485 0.83965 0.0
O468 O 0.35488 0.28125 0.80526 0.0
O469 O 0.3552 0.34052 0.78291 0.0
O470 O 0.29105 0.30564 0.65861 0.0
O471 O 0.36585 0.26245 0.70267 0.0
O472 O 0.31093 0.20013 0.7351 0.0
O473 O 0.34728 0.36648 0.68055 0.0
O474 O 0.26172 0.25895 0.71146 0.0
O475 O 0.25854 0.19821 0.73365 0.0
C476 C 0.26342 0.31529 0.81003 0.0
C477 C 0.34507 0.17528 0.8446 0.0
C478 C 0.40905 0.16697 0.86325 0.0
C479 C 0.40956 0.14109 0.81544 0.0
C480 C 0.34605 0.14891 0.79744 0.0
C481 C 0.37822 0.13209 0.78298 0.0
C482 C 0.37647 0.18399 0.87766 0.0
C483 C 0.36931 0.32388 0.81051 0.0
C484 C 0.31343 0.19595 0.858 0.0
C485 C 0.11722 0.17491 0.92917 0.0
C486 C 0.13963 0.21514 0.95896 0.0
C487 C 0.35009 0.22006 0.70662 0.0
C488 C 0.27851 0.36836 0.67367 0.0
C489 C 0.21682 0.37993 0.65465 0.0
C490 C 0.21214 0.40036 0.7049 0.0
C491 C 0.27454 0.39072 0.72298 0.0
C492 C 0.24977 0.36338 0.63941 0.0
C493 C 0.24117 0.40609 0.73858 0.0
C494 C 0.24589 0.21626 0.70586 0.0
C495 C 0.3103 0.34782 0.65889 0.0
H496 H 0.43363 0.1269 0.80353 0.0
H497 H 0.3221 0.14144 0.77158 0.0
H498 H 0.37879 0.11184 0.74654 0.0
H499 H 0.37608 0.20448 0.91399 0.0
H500 H 0.18774 0.41416 0.7173 0.0
H501 H 0.29725 0.39642 0.74949 0.0
H502 H 0.25341 0.34721 0.60082 0.0
H503 H 0.23841 0.42341 0.77653 0.0
Tb504 Tb 0.77679 0.28861 0.78554 0.0
C505 C 0.85496 0.1459 0.72971 0.0
N506 N 0.86507 0.18529 0.75909 0.0
C507 C 0.87836 0.15868 0.82543 0.0
C508 C 0.85439 0.11056 0.74761 0.0
C509 C 0.87883 0.19279 0.80559 0.0
C510 C 0.86531 0.11712 0.79666 0.0
C511 C 0.84321 0.10375 0.64613 0.0
C512 C 0.84956 0.14262 0.67997 0.0
C513 C 0.83941 0.06724 0.66441 0.0
C514 C 0.84509 0.07067 0.71515 0.0
Tb515 Tb 0.86172 0.23807 0.72475 0.0
N516 N 0.85524 0.17915 0.66366 0.0
C517 C 0.84303 0.10354 0.59462 0.0
C518 C 0.85955 0.18038 0.61282 0.0
C519 C 0.85191 0.14224 0.57779 0.0
H520 H 0.88921 0.22482 0.82788 0.0
H521 H 0.85276 0.14259 0.53793 0.0
H522 H 0.6733 0.21076 0.81208 0.0
H523 H 0.82734 0.45783 0.77156 0.0
H524 H 0.86728 0.21053 0.59959 0.0
H525 H 0.83787 0.07427 0.56732 0.0
H526 H 0.83658 0.39568 0.78858 0.0
H527 H 0.88823 0.1645 0.86278 0.0
H528 H 0.83394 0.03685 0.63918 0.0
H529 H 0.84392 0.04289 0.72831 0.0
H530 H 0.59438 0.19241 0.80271 0.0
H531 H 0.86538 0.09086 0.81188 0.0
H532 H 0.75341 0.44612 0.75072 0.0
N533 N 0.70185 0.27213 0.7849 0.0
C534 C 0.69288 0.30216 0.77125 0.0
C535 C 0.62181 0.22339 0.7934 0.0
C536 C 0.64816 0.29404 0.76709 0.0
C537 C 0.66684 0.23365 0.79792 0.0
C538 C 0.61244 0.25354 0.77729 0.0
N539 N 0.76954 0.34866 0.77455 0.0
C540 C 0.80438 0.39 0.77883 0.0
C541 C 0.72102 0.37684 0.75689 0.0
C542 C 0.72839 0.34238 0.76597 0.0
C543 C 0.75752 0.41865 0.7575 0.0
C544 C 0.79922 0.4254 0.76943 0.0
H545 H 0.57751 0.24583 0.7745 0.0
H546 H 0.60657 0.32163 0.75105 0.0
H547 H 0.67066 0.39457 0.7423 0.0
O548 O 0.78485 0.26983 0.8506 0.0
O549 O 0.8321 0.32599 0.72937 0.0
O550 O 0.85996 0.27967 0.67473 0.0
O551 O 0.76326 0.32049 0.85725 0.0
O552 O 0.84991 0.32795 0.78836 0.0
O553 O 0.86399 0.27427 0.80213 0.0
O554 O 0.92072 0.29864 0.72634 0.0
O555 O 0.80927 0.20663 0.78814 0.0
O556 O 0.74867 0.2167 0.77832 0.0
O557 O 0.92513 0.23807 0.69517 0.0
O558 O 0.80773 0.21763 0.67624 0.0
O559 O 0.7503 0.2387 0.71928 0.0
C560 C 0.85623 0.31703 0.68683 0.0
C561 C 0.74913 0.28961 0.9315 0.0
C562 C 0.71118 0.31809 1.00546 0.0
C563 C 0.68712 0.27619 0.02068 0.0
C564 C 0.72491 0.24749 0.94563 0.0
C565 C 0.69541 0.24124 0.99164 0.0
C566 C 0.74611 0.32505 0.96473 0.0
C567 C 0.87172 0.31563 0.81133 0.0
C568 C 0.77465 0.29916 0.88123 0.0
C569 C 0.6406 0.32723 0.7549 0.0
C570 C 0.67707 0.36871 0.74987 0.0
C571 C 0.76475 0.19319 0.79221 0.0
C572 C 0.98287 0.29096 0.74406 0.0
C573 C 1.03445 0.27019 0.77101 0.0
C574 C 0.05626 0.31265 0.79659 0.0
C575 C 1.00445 0.33333 0.77038 0.0
C576 C 0.99715 0.25953 0.74629 0.0
C577 C 1.04042 0.34378 0.79734 0.0
C578 C 0.7671 0.21712 0.68032 0.0
C579 C 0.94757 0.27951 0.71157 0.0
H580 H 0.65941 0.26987 0.05185 0.0
H581 H 0.72753 0.21972 0.92075 0.0
H582 H 0.67616 0.20873 1.00245 0.0
H583 H 0.76485 0.35734 0.95274 0.0
H584 H 0.08642 0.3221 0.81383 0.0
H585 H 0.99411 0.35844 0.76942 0.0
H586 H 0.98184 0.22726 0.72452 0.0
H587 H 0.0573 0.37663 0.81697 0.0
Tb588 Tb 0.7747 0.75404 0.70355 0.0
C589 C 0.8491 0.86451 0.90329 0.0
N590 N 0.86819 0.86052 0.854 0.0
C591 C 0.91092 0.93859 0.8601 0.0
C592 C 0.85942 0.906 0.93267 0.0
C593 C 0.89971 0.89669 0.83256 0.0
C594 C 0.89048 0.94331 0.91029 0.0
C595 C 0.7989 0.82936 0.97528 0.0
C596 C 0.81892 0.82668 0.92398 0.0
C597 C 0.80863 0.87065 1.0046 0.0
C598 C 0.83869 0.90887 0.98332 0.0
Tb599 Tb 0.84967 0.79085 0.81329 0.0
N600 N 0.81089 0.78734 0.89451 0.0
C601 C 0.77088 0.79052 0.99602 0.0
C602 C 0.78618 0.74955 0.9159 0.0
C603 C 0.76498 0.75046 0.96633 0.0
H604 H 0.91661 0.8934 0.79447 0.0
H605 H 0.74511 0.72029 0.98268 0.0
H606 H 0.67935 0.66706 0.74303 0.0
H607 H 0.87853 0.77196 0.52124 0.0
H608 H 0.78453 0.71875 0.89536 0.0
H609 H 0.75504 0.79116 0.03533 0.0
H610 H 0.84914 0.79769 0.60756 0.0
H611 H 0.93562 0.96719 0.84273 0.0
H612 H 0.79383 0.87345 0.04404 0.0
H613 H 0.84611 0.94044 1.00655 0.0
H614 H 0.64534 0.58731 0.71921 0.0
H615 H 0.89932 0.9758 0.93158 0.0
H616 H 0.84998 0.69265 0.49107 0.0
N617 N 0.73681 0.6791 0.68494 0.0
C618 C 0.75348 0.66159 0.64008 0.0
C619 C 0.67634 0.60771 0.69717 0.0
C620 C 0.73333 0.61613 0.62321 0.0
C621 C 0.69671 0.65311 0.71148 0.0
C622 C 0.69526 0.589 0.65337 0.0
N623 N 0.80655 0.73344 0.6259 0.0
C624 C 0.83723 0.76303 0.5946 0.0
C625 C 0.80395 0.67356 0.56005 0.0
C626 C 0.78847 0.68976 0.60883 0.0
C627 C 0.83721 0.70364 0.52869 0.0
C628 C 0.85357 0.74855 0.54576 0.0
H629 H 0.67884 0.55391 0.64182 0.0
H630 H 0.73553 0.56463 0.56236 0.0
H631 H 0.7971 0.61486 0.50704 0.0
O632 O 0.76497 0.7994 0.67281 0.0
O633 O 0.83755 0.74134 0.68567 0.0
O634 O 0.8443 0.72952 0.76203 0.0
O635 O 0.71898 0.73101 0.66356 0.0
O636 O 0.82891 0.82149 0.70774 0.0
O637 O 0.88488 0.81885 0.74192 0.0
O638 O 0.8768 0.77295 0.86237 0.0
O639 O 0.80726 0.82808 0.81779 0.0
O640 O 0.74481 0.78002 0.77717 0.0
O641 O 0.92152 0.81418 0.80552 0.0
O642 O 0.79701 0.72277 0.80572 0.0
O643 O 0.74137 0.72897 0.77645 0.0
C644 C 0.85172 0.72299 0.71181 0.0
C645 C 0.68784 0.7803 0.66826 0.0
C646 C 0.64823 0.81752 0.64838 0.0
C647 C 0.61086 0.79681 0.6841 0.0
C648 C 0.65043 0.76003 0.7044 0.0
C649 C 0.61219 0.76843 0.7123 0.0
C650 C 0.68673 0.80936 0.64073 0.0
C651 C 0.87204 0.83592 0.71293 0.0
C652 C 0.72711 0.76976 0.65652 0.0
C653 C 0.75034 0.59949 0.57574 0.0
C654 C 0.78538 0.62816 0.54411 0.0
C655 C 0.76471 0.81588 0.80935 0.0
C656 C 0.95537 0.80807 0.87218 0.0
C657 C 0.99694 0.78669 0.91655 0.0
C658 C 1.02935 0.83069 0.92375 0.0
C659 C 0.98767 0.85183 0.87999 0.0
C660 C 0.95988 0.77602 0.89113 0.0
C661 C 1.02436 0.86303 0.90609 0.0
C662 C 0.75401 0.70891 0.80134 0.0
C663 C 0.91838 0.79283 0.84111 0.0
H664 H 0.58095 0.80295 0.69043 0.0
H665 H 0.65059 0.73747 0.72614 0.0
H666 H 0.58344 0.7527 0.74009 0.0
H667 H 0.71539 0.82498 0.61264 0.0
H668 H 0.05857 0.84 0.94275 0.0
H669 H 0.98488 0.87702 0.86552 0.0
H670 H 0.93455 0.74224 0.88522 0.0
H671 H 1.04945 0.89681 0.91192 0.0
Co672 Co 0.08196 0.93965 0.46144 0.0
Co673 Co 0.09803 0.98403 0.54981 0.0
Co674 Co 1.05504 1.02649 0.50767 0.0
O675 O 0.09788 0.99955 0.48976 0.0
H676 H 0.12836 1.01917 0.47672 0.0
O677 O 1.01246 0.05353 0.52385 0.0
Co678 Co 1.02794 0.11337 0.55151 0.0
Co679 Co 1.01478 0.06931 0.46192 0.0
H680 H 0.98171 0.03378 0.53597 0.0
O681 O 0.14661 0.97971 0.56041 0.0
O682 O 0.0824 0.92525 0.52934 0.0
O683 O 0.05542 0.98851 0.60862 0.0
O684 O 1.00987 0.98207 0.55656 0.0
O685 O 0.09042 0.06731 0.56388 0.0
O686 O 1.04186 0.1673 0.5832 0.0
O687 O 1.02487 0.10687 0.61681 0.0
O688 O 0.09391 0.12734 0.54311 0.0
O689 O 0.10087 0.07122 0.46049 0.0
O690 O 0.06053 0.06746 0.40406 0.0
O691 O 1.02832 0.12775 0.4825 0.0
O692 O 0.96608 0.07213 0.44882 0.0
C693 C 0.07145 0.90403 0.3909 0.0
C694 C 1.00043 0.94406 0.4492 0.0
C695 C 1.01544 0.97426 0.59809 0.0
C696 C 0.11991 0.93832 0.54959 0.0
C697 C 1.03783 0.14899 0.6221 0.0
C698 C 0.10922 0.10906 0.56602 0.0
C699 C 0.09891 0.07992 0.41799 0.0
C700 C 0.99151 0.11373 0.46035 0.0
O701 O 0.06775 0.88582 0.42971 0.0
O702 O 0.08414 0.94612 0.39618 0.0
O703 O 1.0195 0.98582 0.4513 0.0
O704 O 1.01602 0.92571 0.47155 0.0
Co705 Co 0.59987 0.94161 0.94707 0.0
Co706 Co 0.5574 0.94353 0.0305 0.0
Co707 Co 0.55406 1.02597 0.00969 0.0
O708 O 0.59428 0.99261 0.99956 0.0
H709 H 0.62165 1.01002 0.01556 0.0
O710 O 0.51388 0.05934 0.01984 0.0
Co711 Co 0.50904 0.11093 0.07155 0.0
Co712 Co 0.55009 0.10785 0.98777 0.0
H713 H 0.48617 0.04168 1.00451 0.0
O714 O 0.58305 0.94183 0.08027 0.0
O715 O 0.57759 0.90186 1.001 0.0
O716 O 0.49263 0.92701 0.05042 0.0
O717 O 0.51102 0.99769 0.07285 0.0
O718 O 0.5974 0.07513 0.05655 0.0
O719 O 0.50047 0.15572 0.11808 0.0
O720 O 0.44782 0.10374 0.07225 0.0
O721 O 0.57124 0.1272 0.08259 0.0
O722 O 0.59703 0.0543 0.94656 0.0
O723 O 0.61477 0.12489 0.96869 0.0
O724 O 0.53022 0.14968 0.01673 0.0
O725 O 0.5239 0.10885 0.93797 0.0
C726 C 0.64994 0.91337 0.91208 0.0
C727 C 0.50727 0.93893 0.93903 0.0
C728 C 0.4831 0.95726 0.07706 0.0
C729 C 0.58935 0.91127 0.04697 0.0
C730 C 0.45944 0.1395 0.10604 0.0
C731 C 0.60158 0.11329 0.07964 0.0
C732 C 0.6246 0.09478 0.94226 0.0
C733 C 0.51762 0.13953 0.97106 0.0
O734 O 0.60902 0.89731 0.89978 0.0
O735 O 0.6611 0.9486 0.9467 0.0
O736 O 0.51073 0.97672 0.9628 0.0
O737 O 0.53816 0.92568 0.93556 0.0
Co738 Co 0.1029 0.44408 0.94608 0.0
Co739 Co 0.08831 0.4642 0.04264 0.0
Co740 Co 0.05516 0.5272 1.00557 0.0
O741 O 0.10064 0.49847 0.99319 0.0
H742 H 0.13147 0.52127 0.9939 0.0
O743 O 1.01054 0.55739 0.0172 0.0
Co744 Co 1.0026 0.60725 0.07124 0.0
Co745 Co 1.04281 0.60699 0.98646 0.0
H746 H 0.98296 0.53841 1.00207 0.0
O747 O 0.13286 0.45771 0.0631 0.0
O748 O 0.08536 0.41235 1.00519 0.0
O749 O 1.03302 0.45009 0.08718 0.0
O750 O 1.0076 0.49 0.06045 0.0
O751 O 0.09296 0.57417 0.0589 0.0
O752 O 0.99282 0.65048 0.11889 0.0
O753 O 0.94274 0.60141 0.068 0.0
O754 O 0.06179 0.62214 0.08541 0.0
O755 O 0.10143 0.56259 0.94855 0.0
O756 O 0.10701 0.62951 0.97381 0.0
O757 O 1.02806 0.65004 0.02155 0.0
O758 O 1.01493 0.61406 0.94166 0.0
C759 C 0.15125 0.41399 0.91248 0.0
C760 C 1.01176 0.44008 0.93712 0.0
C761 C 1.00231 0.46195 0.08838 0.0
C762 C 0.11292 0.41917 0.03718 0.0
C763 C 0.9535 0.63615 0.10334 0.0
C764 C 0.0937 0.61089 0.08327 0.0
C765 C 0.1242 0.60434 0.94893 0.0
C766 C 1.01611 0.64645 0.97717 0.0
O767 O 0.10893 0.39603 0.90416 0.0
O768 O 0.16495 0.45229 0.9418 0.0
O769 O 1.01768 0.48002 0.95279 0.0
O770 O 1.04069 0.42608 0.93932 0.0
Co771 Co 0.60131 0.45245 0.96836 0.0
Co772 Co 0.54781 0.45204 0.04051 0.0
Co773 Co 0.55246 0.52778 0.00938 0.0
O774 O 0.59055 0.49907 0.0103 0.0
H775 H 0.61442 0.51694 0.03146 0.0
O776 O 0.51459 0.55666 0.00851 0.0
Co777 Co 0.50384 0.60327 0.05052 0.0
Co778 Co 0.55759 0.60394 0.97893 0.0
H779 H 0.49093 0.53899 0.98704 0.0
O780 O 0.56181 0.45551 0.1015 0.0
O781 O 0.57104 0.41453 0.02533 0.0
O782 O 0.48496 0.4293 0.03239 0.0
O783 O 0.50457 0.49678 0.06895 0.0
O784 O 0.58856 0.57581 0.06212 0.0
O785 O 0.48894 0.64454 0.08635 0.0
O786 O 0.45084 0.58812 0.02904 0.0
O787 O 0.56012 0.62528 0.07942 0.0
O788 O 0.60024 0.55883 0.94985 0.0
O789 O 0.6204 0.62641 0.98659 0.0
O790 O 0.53469 0.6417 0.99405 0.0
O791 O 0.54409 0.60075 0.91792 0.0
C792 C 0.64798 0.42989 0.96174 0.0
C793 C 0.51591 0.4429 0.9339 0.0
C794 C 0.47623 0.4558 0.06732 0.0
C795 C 0.57773 0.42879 0.07333 0.0
C796 C 0.45721 0.62577 0.05664 0.0
C797 C 0.58908 0.61252 0.08506 0.0
C798 C 0.62862 0.5998 0.95138 0.0
C799 C 0.52863 0.62788 0.94587 0.0
O800 O 0.61596 0.41114 0.93244 0.0
O801 O 0.65462 0.46762 0.98935 0.0
O802 O 0.51631 0.47966 0.95654 0.0
O803 O 0.54491 0.43035 0.93988 0.0
Co804 Co 0.12689 0.48244 0.51427 0.0
Co805 Co 0.11956 0.48485 0.42658 0.0
Co806 Co 1.05277 0.52654 0.50994 0.0
O807 O 0.07733 0.48003 0.48515 0.0
H808 H 1.05251 0.4509 0.48298 0.0
O809 O 1.02796 0.57296 0.53497 0.0
Co810 Co 0.97891 0.56897 0.50348 0.0
Co811 Co 0.9827 0.56605 0.59103 0.0
H812 H 1.0524 0.60228 0.538 0.0
O813 O 0.11964 0.4344 0.38222 0.0
O814 O 0.1638 0.47201 0.44415 0.0
O815 O 0.14571 0.54301 0.40737 0.0
O816 O 0.09907 0.56968 0.45947 0.0
O817 O 1.00741 0.49408 0.4596 0.0
O818 O 0.93823 0.56844 0.47224 0.0
O819 O 1.00252 0.62649 0.49548 0.0
O820 O 0.94896 0.5069 0.50317 0.0
O821 O 1.00671 0.48336 0.5604 0.0
O822 O 0.95624 0.50721 0.60839 0.0
O823 O 0.94083 0.58141 0.57187 0.0
O824 O 0.98032 0.61379 0.6387 0.0
C825 C 0.14095 0.43954 0.53928 0.0
C826 C 0.14095 0.56911 0.55103 0.0
C827 C 0.13376 0.57404 0.42454 0.0
C828 C 0.15257 0.43999 0.4054 0.0
C829 C 0.96543 0.60986 0.4739 0.0
C830 C 0.96443 0.48291 0.47002 0.0
C831 C 0.97035 0.47753 0.5931 0.0
C832 C 0.94971 0.61063 0.61349 0.0
O833 O 0.16831 0.48103 0.54295 0.0
O834 O 0.10348 0.42429 0.51884 0.0
O835 O 0.09812 0.55893 0.56022 0.0
O836 O 0.15652 0.54507 0.51787 0.0
Co837 Co 0.62896 0.98306 0.51486 0.0
Co838 Co 0.62484 0.98547 0.42605 0.0
Co839 Co 0.55629 0.02732 0.50747 0.0
O840 O 0.58133 0.98143 0.48324 0.0
H841 H 0.5564 0.95238 0.48046 0.0
O842 O 0.53152 0.07333 0.53154 0.0
Co843 Co 0.4811 0.06986 0.50404 0.0
Co844 Co 0.49294 0.07299 0.59247 0.0
H845 H 0.55655 0.10228 0.53126 0.0
O846 O 0.62545 0.93408 0.38377 0.0
O847 O 0.66829 0.97326 0.44657 0.0
O848 O 0.65033 0.04295 0.40454 0.0
O849 O 0.60175 0.06837 0.45545 0.0
O850 O 0.51017 0.99371 0.45768 0.0
O851 O 0.43941 0.07199 0.47538 0.0
O852 O 0.50465 0.12698 0.50075 0.0
O853 O 0.4513 1.0066 0.50025 0.0
O854 O 0.51125 0.9867 0.55973 0.0
O855 O 0.4721 1.0184 0.61844 0.0
O856 O 0.44473 0.08008 0.57471 0.0
O857 O 0.49168 0.12555 0.63156 0.0
C858 C 0.63824 0.93831 0.54255 0.0
C859 C 0.64462 0.07135 0.54965 0.0
C860 C 0.63632 0.07267 0.42055 0.0
C861 C 0.65791 0.94066 0.4084 0.0
C862 C 0.46808 0.11327 0.47937 0.0
C863 C 0.46702 0.98239 0.46746 0.0
C864 C 0.48167 0.98601 0.59967 0.0
C865 C 0.45607 0.11496 0.61007 0.0
O866 O 0.66754 0.97937 0.54744 0.0
O867 O 0.60368 0.92542 0.51787 0.0
O868 O 0.6017 0.06073 0.55767 0.0
O869 O 0.66052 0.04629 0.51908 0.0
C870 C 0.19953 0.18919 0.39139 0.0
C871 C 0.20868 0.18321 0.33778 0.0
H872 H 0.15869 0.16098 0.45873 0.0
C873 C 0.18464 0.14099 0.31182 0.0
H874 H 0.21753 0.22078 0.4131 0.0
C875 C 0.14997 0.10715 0.33785 0.0
C876 C 0.13981 0.11363 0.39107 0.0
H877 H 0.19218 0.13393 0.27109 0.0
H878 H 0.13083 0.07586 0.31623 0.0
C879 C 0.16587 0.15474 0.41768 0.0
C880 C 0.95677 0.15139 0.36534 0.0
C881 C 0.92512 0.16545 0.39645 0.0
H882 H 1.00434 0.12511 0.36219 0.0
C883 C 0.92532 0.17322 0.44962 0.0
H884 H 0.95738 0.14485 0.32436 0.0
C885 C 0.95228 0.16187 0.47141 0.0
C886 C 0.98016 0.14327 0.4403 0.0
H887 H 0.90193 0.18494 0.47442 0.0
H888 H 0.94802 0.16375 0.51243 0.0
C889 C 0.98385 0.14026 0.38708 0.0
C890 C 0.91182 0.8449 0.37533 0.0
C891 C 0.89785 0.86431 0.34603 0.0
H892 H 0.95268 0.85412 0.43202 0.0
C893 C 0.91661 0.91043 0.35309 0.0
H894 H 0.89834 0.80966 0.37172 0.0
C895 C 0.94919 0.9361 0.38682 0.0
C896 C 0.96356 0.91659 0.41553 0.0
H897 H 0.90625 0.92693 0.33258 0.0
H898 H 0.9633 0.97143 0.39017 0.0
C899 C 0.9435 0.87053 0.40995 0.0
C900 C 0.08365 0.85421 0.25481 0.0
C901 C 1.05394 0.81015 0.26063 0.0
H902 H 0.11405 0.91973 0.29421 0.0
C903 C 1.01888 0.80138 0.30179 0.0
H904 H 0.11049 0.86182 0.22273 0.0
C905 C 1.02261 0.83368 0.34365 0.0
C906 C 0.05873 0.87583 0.34247 0.0
H907 H 0.99475 0.76789 0.30662 0.0
H908 H 1.00028 0.82426 0.37866 0.0
C909 C 0.08647 0.88716 0.29625 0.0
C910 C 0.16358 0.89639 0.63195 0.0
C911 C 0.17495 0.86528 0.59732 0.0
H912 H 0.13642 0.94318 0.64363 0.0
C913 C 0.16088 0.85317 0.5485 0.0
H914 H 0.17401 0.90679 0.66961 0.0
C915 C 0.139 0.87414 0.53358 0.0
C916 C 0.13101 0.90755 0.56727 0.0
H917 H 0.16864 0.82891 0.52105 0.0
H918 H 0.13132 0.86642 0.49484 0.0
C919 C 0.14211 0.91736 0.61699 0.0
C920 C 0.1967 0.20801 0.64115 0.0
C921 C 0.21127 0.18845 0.6696 0.0
H922 H 0.1554 0.19903 0.58508 0.0
C923 C 0.1932 0.1424 0.66168 0.0
H924 H 0.20962 0.24325 0.64557 0.0
C925 C 0.16078 0.11687 0.62779 0.0
C926 C 0.14588 0.1365 0.59985 0.0
H927 H 0.20404 0.12587 0.68159 0.0
H928 H 0.14724 0.08154 0.62368 0.0
C929 C 0.16513 0.18254 0.60643 0.0
C930 C 0.08996 0.25068 0.71329 0.0
C931 C 0.05614 0.24012 0.75551 0.0
H932 H 0.10699 0.23029 0.63483 0.0
C933 C 1.02797 0.19555 0.76008 0.0
H934 H 0.11301 0.28465 0.70945 0.0
C935 C 1.02482 0.16383 0.71717 0.0
C936 C 1.0507 0.17689 0.67065 0.0
H937 H 1.00218 0.18654 0.7929 0.0
H938 H 0.99833 0.13071 0.71884 0.0
C939 C 0.08576 0.21963 0.67 0.0
C940 C 0.89685 0.89039 0.65011 0.0
C941 C 0.90787 0.87252 0.68437 0.0
H942 H 0.92143 0.93595 0.5958 0.0
C943 C 0.95407 0.88979 0.69072 0.0
H944 H 0.86174 0.87811 0.64393 0.0
C945 C 0.98792 0.92355 0.6642 0.0
C946 C 0.97731 0.941 0.62921 0.0
H947 H 0.9644 0.87711 0.71623 0.0
H948 H 1.02294 0.93518 0.67035 0.0
C949 C 0.93111 0.92382 0.62254 0.0
C950 C 0.35631 0.17228 0.14501 0.0
C951 C 0.37389 0.2122 0.17878 0.0
H952 H 0.36754 0.11838 0.09615 0.0
C953 C 0.41976 0.2272 0.18633 0.0
H954 H 0.32154 0.1589 0.13709 0.0
C955 C 0.44606 0.20366 0.16322 0.0
C956 C 0.42869 0.16351 0.13019 0.0
H957 H 0.43606 0.25794 0.21011 0.0
H958 H 0.48082 0.21753 0.17139 0.0
C959 C 0.38298 0.1486 0.12133 0.0
C960 C 0.90723 0.41826 0.19728 0.0
C961 C 0.88403 0.37382 0.17689 0.0
H962 H 0.96279 0.48158 0.18536 0.0
C963 C 0.8963 0.36125 0.12514 0.0
H964 H 0.89881 0.42919 0.237 0.0
C965 C 0.93226 0.39142 0.09548 0.0
C966 C 0.95697 0.43529 0.11635 0.0
H967 H 0.87885 0.32765 0.10781 0.0
H968 H 0.94238 0.37978 0.0566 0.0
C969 C 0.94363 0.44851 0.16756 0.0
C970 C 0.6183 0.86725 0.14 0.0
C971 C 0.66393 0.87611 0.12078 0.0
H972 H 0.55791 0.87007 0.12975 0.0
C973 C 0.68016 0.88531 0.07038 0.0
H974 H 0.6045 0.85919 0.17829 0.0
C975 C 0.65306 0.89101 0.04228 0.0
C976 C 0.60947 0.88746 0.06424 0.0
H977 H 0.71516 0.8922 0.05447 0.0
H978 H 0.66811 0.90265 1.0059 0.0
C979 C 0.59143 0.87299 0.11203 0.0
C980 C 0.19377 0.65991 0.16094 0.0
C981 C 0.20122 0.70414 0.1732 0.0
H982 H 0.15458 0.59567 0.12248 0.0
C983 C 0.17493 0.71734 0.15301 0.0
H984 H 0.21361 0.64856 0.17546 0.0
C985 C 0.14109 0.68713 0.12319 0.0
C986 C 0.13262 0.64265 0.11189 0.0
H987 H 0.17959 0.75094 0.16121 0.0
H988 H 0.12108 0.69875 0.10936 0.0
C989 C 0.16005 0.62955 0.13037 0.0
C990 C 0.40526 0.89638 0.86446 0.0
C991 C 0.39456 0.85138 0.85173 0.0
H992 H 0.44858 0.95931 0.90234 0.0
C993 C 0.41914 0.83566 0.87148 0.0
H994 H 0.38741 0.90994 0.85005 0.0
C995 C 0.45449 0.86389 0.90046 0.0
C996 C 0.46638 0.90902 0.9119 0.0
H997 H 0.41202 0.80135 0.86346 0.0
H998 H 0.47305 0.85021 0.91344 0.0
C999 C 0.44049 0.92476 0.89446 0.0
C1000 C 0.18747 0.31958 0.85137 0.0
C1001 C 0.23547 0.34077 0.83918 0.0
H1002 H 0.12459 0.32485 0.88273 0.0
C1003 C 0.2559 0.38685 0.85448 0.0
H1004 H 0.16969 0.28442 0.84128 0.0
C1005 C 0.22965 0.41046 0.87943 0.0
C1006 C 0.18139 0.38939 0.88947 0.0
H1007 H 0.2926 0.40501 0.8469 0.0
H1008 H 0.24729 0.44562 0.88945 0.0
C1009 C 0.16126 0.34321 0.87523 0.0
C1010 C 0.74264 0.15147 0.86777 0.0
C1011 C 0.73127 0.15828 0.82438 0.0
H1012 H 0.71757 0.12629 0.93981 0.0
C1013 C 0.68507 0.13617 0.81628 0.0
H1014 H 0.77766 0.16804 0.87562 0.0
C1015 C 0.65085 0.11162 0.85249 0.0
C1016 C 0.66159 0.10807 0.89804 0.0
H1017 H 0.67492 0.13991 0.783 0.0
H1018 H 0.61549 0.098 0.84649 0.0
C1019 C 0.70811 0.12739 0.90463 0.0
C1020 C 0.99342 0.71153 0.90081 0.0
C1021 C 1.00201 0.75127 0.9333 0.0
H1022 H 0.9906 0.64771 0.88918 0.0
C1023 C 1.01438 0.75606 0.98146 0.0
H1024 H 0.98458 0.70687 0.86315 0.0
C1025 C 1.01739 0.72158 0.99688 0.0
C1026 C 1.00914 0.68201 0.96393 0.0
H1027 H 1.02146 0.78624 1.00742 0.0
H1028 H 1.02719 0.7263 0.03404 0.0
C1029 C 0.99694 0.67749 0.91584 0.0
C1030 C 0.13542 0.35208 0.10961 0.0
C1031 C 0.11861 0.31028 0.08063 0.0
H1032 H 0.14804 0.41885 0.11796 0.0
C1033 C 0.10052 0.3047 0.0359 0.0
H1034 H 0.14805 0.35759 0.14526 0.0
C1035 C 0.09979 0.34028 0.02051 0.0
C1036 C 0.11714 0.382 0.04957 0.0
H1037 H 0.08706 0.27305 0.01268 0.0
H1038 H 0.0852 0.33502 0.98629 0.0
C1039 C 0.13528 0.38745 0.09398 0.0
C1040 C 0.21264 0.63465 0.83043 0.0
C1041 C 0.2393 0.67945 0.8465 0.0
H1042 H 0.15474 0.5748 0.85027 0.0
C1043 C 0.23236 0.69584 0.89807 0.0
H1044 H 0.21689 0.62112 0.79076 0.0
C1045 C 0.19768 0.66948 0.93186 0.0
C1046 C 0.16809 0.62582 0.9153 0.0
H1047 H 0.25231 0.73 0.91186 0.0
H1048 H 0.19207 0.68436 0.97065 0.0
C1049 C 0.1771 0.60804 0.86454 0.0
C1050 C 0.48699 0.18276 0.87843 0.0
C1051 C 0.44136 0.17372 0.89801 0.0
H1052 H 0.54778 0.18029 0.88799 0.0
C1053 C 0.42548 0.16432 0.94836 0.0
H1054 H 0.50052 0.19092 0.84014 0.0
C1055 C 0.453 0.15877 0.97607 0.0
C1056 C 0.4967 0.16272 0.95385 0.0
H1057 H 0.3905 0.15726 0.96453 0.0
H1058 H 0.43824 0.14704 0.01242 0.0
C1059 C 0.51426 0.17716 0.90601 0.0
C1060 C 0.92668 0.3334 0.87237 0.0
C1061 C 0.90481 0.34764 0.84665 0.0
H1062 H 0.97668 0.35093 0.92105 0.0
C1063 C 0.91578 0.39269 0.8543 0.0
H1064 H 0.91898 0.29909 0.86795 0.0
C1065 C 0.94901 0.42283 0.88545 0.0
C1066 C 0.97225 0.40861 0.90936 0.0
H1067 H 0.89943 0.40485 0.83536 0.0
H1068 H 0.95763 0.45736 0.88927 0.0
C1069 C 0.95991 0.36334 0.90303 0.0
C1070 C 0.75422 0.88212 0.87079 0.0
C1071 C 0.73673 0.84204 0.83726 0.0
H1072 H 0.74253 0.93554 0.92036 0.0
C1073 C 0.69072 0.82681 0.82988 0.0
H1074 H 0.78917 0.89603 0.87802 0.0
C1075 C 0.66403 0.84988 0.85368 0.0
C1076 C 0.68112 0.88986 0.88713 0.0
H1077 H 0.67473 0.79638 0.80533 0.0
H1078 H 0.62921 0.83581 0.84569 0.0
C1079 C 0.72713 0.90527 0.89524 0.0
C1080 C 0.91986 0.7314 0.16694 0.0
C1081 C 0.87165 0.71156 0.17452 0.0
H1082 H 0.98215 0.72419 0.13988 0.0
C1083 C 0.8503 0.6663 0.15502 0.0
H1084 H 0.93825 0.76588 0.18061 0.0
C1085 C 0.8759 0.64205 0.13024 0.0
C1086 C 0.92419 0.66159 0.12501 0.0
H1087 H 0.81341 0.6493 0.15929 0.0
H1088 H 0.85766 0.60751 0.1169 0.0
C1089 C 0.94529 0.70703 0.14353 0.0
C1090 C 0.36454 0.90179 0.15193 0.0
C1091 C 0.3756 0.89496 0.19553 0.0
H1092 H 0.39004 0.92641 0.0795 0.0
C1093 C 0.42184 0.91683 0.20361 0.0
H1094 H 0.32954 0.88543 0.14403 0.0
C1095 C 0.45633 0.94083 0.16714 0.0
C1096 C 0.44589 0.94418 0.1213 0.0
H1097 H 0.4318 0.9132 0.23709 0.0
H1098 H 0.49163 0.95418 0.17323 0.0
C1099 C 0.39935 0.92537 0.11481 0.0
C1100 C 0.70388 0.15483 0.15375 0.0
C1101 C 0.71662 0.20028 0.16432 0.0
H1102 H 0.65834 0.09175 0.11834 0.0
C1103 C 0.69283 0.21639 0.14374 0.0
H1104 H 0.72117 0.14096 0.16865 0.0
C1105 C 0.65651 0.18831 0.11597 0.0
C1106 C 0.64287 0.14286 0.10637 0.0
H1107 H 0.70153 0.25101 0.14981 0.0
H1108 H 0.63881 0.20242 0.10219 0.0
C1109 C 0.66776 0.12657 0.12481 0.0
C1110 C 0.72604 0.64102 0.84368 0.0
C1111 C 0.71888 0.67507 0.83256 0.0
H1112 H 0.70214 0.58883 0.88917 0.0
C1113 C 0.67931 0.67958 0.85582 0.0
H1114 H 0.75657 0.63697 0.82625 0.0
C1115 C 0.64933 0.65311 0.89197 0.0
C1116 C 0.65655 0.6198 0.90485 0.0
H1117 H 0.67306 0.70574 0.84885 0.0
H1118 H 0.62186 0.66101 0.9123 0.0
C1119 C 0.69483 0.61327 0.87932 0.0
C1120 C 0.42842 0.60068 0.8821 0.0
C1121 C 0.43344 0.64203 0.87715 0.0
H1122 H 0.4548 0.56454 0.90828 0.0
C1123 C 0.47062 0.67981 0.89569 0.0
H1124 H 0.40087 0.57096 0.86726 0.0
C1125 C 0.50161 0.67603 0.91972 0.0
C1126 C 0.49598 0.63445 0.92448 0.0
H1127 H 0.47516 0.71214 0.89251 0.0
H1128 H 0.53002 0.70524 0.93389 0.0
C1129 C 0.45942 0.59697 0.9053 0.0
C1130 C 0.43386 0.33913 0.85822 0.0
C1131 C 0.40649 0.35405 0.84259 0.0
H1132 H 0.4897 0.35499 0.89822 0.0
C1133 C 0.41528 0.39841 0.85772 0.0
H1134 H 0.42825 0.30527 0.84749 0.0
C1135 C 0.4504 0.42699 0.88727 0.0
C1136 C 0.4783 0.41231 0.9023 0.0
H1137 H 0.3947 0.4111 0.84701 0.0
H1138 H 0.45586 0.4608 0.89806 0.0
C1139 C 0.46939 0.36784 0.88725 0.0
C1140 C 0.64858 0.33003 0.99132 0.0
C1141 C 0.68937 0.34746 0.01224 0.0
H1142 H 0.60567 0.34208 0.95556 0.0
C1143 C 0.71604 0.39316 0.01878 0.0
H1144 H 0.62788 0.29495 0.98465 0.0
C1145 C 0.70353 0.42051 1.00133 0.0
C1146 C 0.66478 0.40231 0.97629 0.0
H1147 H 0.74821 0.40717 0.03381 0.0
H1148 H 0.72458 0.45556 1.00629 0.0
C1149 C 0.63691 0.35699 0.97265 0.0
C1150 C 0.6804 0.45778 0.13422 0.0
C1151 C 0.67634 0.41666 0.13868 0.0
H1152 H 0.65204 0.49315 0.10974 0.0
C1153 C 0.63881 0.3786 0.12118 0.0
H1154 H 0.70825 0.48769 0.14819 0.0
C1155 C 0.60667 0.38181 0.09853 0.0
C1156 C 0.61136 0.42309 0.09411 0.0
H1157 H 0.63496 0.3464 0.12381 0.0
H1158 H 0.57819 0.35233 0.08498 0.0
C1159 C 0.64813 0.46092 0.11248 0.0
C1160 C 0.69098 0.65591 0.15874 0.0
C1161 C 0.70008 0.70027 0.17459 0.0
H1162 H 0.6496 0.59389 0.11856 0.0
C1163 C 0.67237 0.71561 0.16043 0.0
H1164 H 0.71183 0.64292 0.16824 0.0
C1165 C 0.63621 0.68724 0.13208 0.0
C1166 C 0.62701 0.64277 0.11632 0.0
H1167 H 0.67826 0.7495 0.17176 0.0
H1168 H 0.61567 0.70036 0.12215 0.0
C1169 C 0.65522 0.62771 0.12996 0.0
C1170 C 0.38998 0.66187 0.99735 0.0
C1171 C 0.41623 0.70761 1.00432 0.0
H1172 H 0.38151 0.59966 0.01032 0.0
C1173 C 0.45669 0.72529 0.02602 0.0
H1174 H 0.3581 0.64766 0.98167 0.0
C1175 C 0.46816 0.69854 0.04536 0.0
C1176 C 0.44052 0.65318 0.04154 0.0
H1177 H 0.47709 0.76042 0.03294 0.0
H1178 H 0.49904 0.71363 0.06315 0.0
C1179 C 0.40232 0.63474 0.0155 0.0
C1180 C 0.37809 0.41304 0.17437 0.0
C1181 C 0.38581 0.37924 0.18527 0.0
H1182 H 0.40153 0.46546 0.12922 0.0
C1183 C 0.42561 0.37525 0.16156 0.0
H1184 H 0.34728 0.41657 0.19174 0.0
C1185 C 0.45576 0.40248 0.12631 0.0
C1186 C 0.44813 0.43559 0.11373 0.0
H1187 H 0.4321 0.34889 0.16738 0.0
H1188 H 0.48367 0.39516 0.10617 0.0
C1189 C 0.40925 0.44126 0.13899 0.0
C1190 C 0.88916 0.67285 0.71383 0.0
C1191 C 0.87591 0.69349 0.68515 0.0
H1192 H 0.9218 0.63203 0.71491 0.0
C1193 C 0.8869 0.68557 0.63152 0.0
H1194 H 0.88231 0.67768 0.755 0.0
C1195 C 0.90866 0.65764 0.60795 0.0
C1196 C 0.92208 0.63737 0.63692 0.0
H1197 H 0.87973 0.70185 0.60749 0.0
H1198 H 0.91664 0.65341 0.56694 0.0
C1199 C 0.912 0.64613 0.69048 0.0
C1200 C 0.40679 0.91118 0.69878 0.0
C1201 C 0.39608 0.86891 0.67156 0.0
H1202 H 0.44206 0.98036 0.69807 0.0
C1203 C 0.41634 0.8653 0.62056 0.0
H1204 H 0.39247 0.91557 0.73827 0.0
C1205 C 0.44597 0.90314 0.59741 0.0
C1206 C 0.45526 0.94536 0.62456 0.0
H1207 H 0.40839 0.83335 0.59819 0.0
H1208 H 0.46013 0.89933 0.55778 0.0
C1209 C 0.43561 0.94861 0.67571 0.0
C1210 C 0.21874 0.4033 0.57417 0.0
C1211 C 0.19272 0.38285 0.61686 0.0
H1212 H 0.22182 0.4364 0.51496 0.0
C1213 C 0.14603 0.37327 0.62742 0.0
H1214 H 0.25492 0.41219 0.56629 0.0
C1215 C 0.12685 0.38726 0.59794 0.0
C1216 C 0.15439 0.41132 0.55816 0.0
H1217 H 0.12531 0.3577 0.66042 0.0
H1218 H 0.09193 0.38289 0.60916 0.0
C1219 C 0.19981 0.41741 0.54509 0.0
C1220 C 0.68788 0.16644 0.65698 0.0
C1221 C 0.73557 0.1843 0.6433 0.0
H1222 H 0.62214 0.11738 0.63858 0.0
C1223 C 0.75259 0.16685 0.59615 0.0
H1224 H 0.67316 0.17873 0.69282 0.0
C1225 C 0.72334 0.13076 0.56548 0.0
C1226 C 0.67586 0.11165 0.58033 0.0
H1227 H 0.78868 0.18082 0.58298 0.0
H1228 H 0.73803 0.11768 0.53019 0.0
C1229 C 0.6585 0.13087 0.62586 0.0
C1230 C 0.88907 0.42146 0.36557 0.0
C1231 C 0.87476 0.3772 0.37003 0.0
H1232 H 0.92777 0.48911 0.39404 0.0
C1233 C 0.88998 0.36811 0.40872 0.0
H1234 H 0.87863 0.42999 0.33608 0.0
C1235 C 0.91925 0.40235 0.44127 0.0
C1236 C 0.93303 0.44635 0.43661 0.0
H1237 H 0.87948 0.33455 0.41362 0.0
H1238 H 0.93088 0.39447 0.47031 0.0
C1239 C 0.9174 0.45549 0.39867 0.0
C1240 C 0.75653 0.90475 0.35824 0.0
C1241 C 0.73347 0.85947 0.33993 0.0
H1242 H 0.75218 0.96505 0.39518 0.0
C1243 C 0.6853 0.84122 0.34795 0.0
H1244 H 0.79348 0.92058 0.3532 0.0
C1245 C 0.66153 0.86728 0.37082 0.0
C1246 C 0.68448 0.91261 0.38883 0.0
H1247 H 0.66574 0.80687 0.33472 0.0
H1248 H 0.62463 0.85174 0.37409 0.0
C1249 C 0.73266 0.93051 0.38282 0.0
C1250 C 0.23674 0.66391 0.35836 0.0
C1251 C 0.22313 0.69731 0.3622 0.0
H1252 H 0.22025 0.60027 0.37376 0.0
C1253 C 0.1799 0.69106 0.38986 0.0
H1254 H 0.26999 0.66764 0.33884 0.0
C1255 C 0.15074 0.65172 0.41102 0.0
C1256 C 0.16386 0.61741 0.40463 0.0
H1257 H 0.16788 0.7158 0.39352 0.0
H1258 H 0.11752 0.64774 0.43112 0.0
C1259 C 0.20782 0.62488 0.3787 0.0
C1260 C 0.41608 0.15691 0.40829 0.0
C1261 C 0.4499 0.19999 0.40657 0.0
H1262 H 0.39545 0.09533 0.43265 0.0
C1263 C 0.48737 0.21571 0.43309 0.0
H1264 H 0.38682 0.14433 0.38815 0.0
C1265 C 0.49184 0.1881 0.45948 0.0
C1266 C 0.45974 0.14405 0.4583 0.0
H1267 H 0.51343 0.24916 0.43286 0.0
H1268 H 0.5212 0.20085 0.4793 0.0
C1269 C 0.42111 0.129 0.43369 0.0
C1270 C 0.6189 0.8324 0.58128 0.0
C1271 C 0.64734 0.84803 0.61932 0.0
H1272 H 0.59663 0.84891 0.52407 0.0
C1273 C 0.67509 0.89301 0.62962 0.0
H1274 H 0.59782 0.79762 0.57235 0.0
C1275 C 0.673 0.92234 0.60363 0.0
C1276 C 0.64358 0.90698 0.5664 0.0
H1277 H 0.69749 0.9055 0.65867 0.0
H1278 H 0.69364 0.95708 0.61359 0.0
C1279 C 0.61777 0.86166 0.55426 0.0
C1280 C 0.67983 0.15976 0.33328 0.0
C1281 C 0.72072 0.19148 0.35184 0.0
H1282 H 0.62099 0.09783 0.34057 0.0
C1283 C 0.73204 0.18462 0.3951 0.0
H1284 H 0.67025 0.16348 0.29964 0.0
C1285 C 0.70362 0.14678 0.41851 0.0
C1286 C 0.66321 0.11493 0.39933 0.0
H1287 H 0.76306 0.20829 0.41057 0.0
H1288 H 0.71375 0.14194 0.4511 0.0
C1289 C 0.65151 0.12203 0.35666 0.0
C1290 C 0.96371 0.67834 0.38521 0.0
C1291 C 0.91651 0.66601 0.39117 0.0
H1292 H 1.01724 0.67111 0.40883 0.0
C1293 C 0.8878 0.64089 0.42943 0.0
H1294 H 0.98633 0.69713 0.35518 0.0
C1295 C 0.90517 0.62645 0.45974 0.0
C1296 C 0.95171 0.63639 0.45215 0.0
H1297 H 0.85124 0.62958 0.43327 0.0
H1298 H 0.88152 0.60483 0.48689 0.0
C1299 C 0.98137 0.66385 0.41601 0.0
C1300 C 0.35723 0.88926 0.42106 0.0
C1301 C 0.37342 0.86958 0.37509 0.0
H1302 H 0.37312 0.93968 0.48566 0.0
C1303 C 0.42111 0.88539 0.36204 0.0
H1304 H 0.32112 0.87737 0.43365 0.0
C1305 C 0.45132 0.92093 0.39262 0.0
C1306 C 0.43491 0.9421 0.43714 0.0
H1307 H 0.43529 0.87145 0.32709 0.0
H1308 H 0.48766 0.93271 0.38034 0.0
C1309 C 0.38732 0.92506 0.45131 0.0
C1310 C 0.24645 0.39631 0.37061 0.0
C1311 C 0.22718 0.35733 0.33606 0.0
H1312 H 0.23938 0.45186 0.41987 0.0
C1313 C 0.18294 0.34625 0.32609 0.0
H1314 H 0.28052 0.40723 0.37917 0.0
C1315 C 0.15955 0.37262 0.34885 0.0
C1316 C 0.1786 0.41146 0.38353 0.0
H1317 H 0.16623 0.31714 0.29991 0.0
H1318 H 0.12596 0.36229 0.33893 0.0
C1319 C 0.22264 0.42241 0.39416 0.0
C1320 C 0.42515 0.21281 0.66894 0.0
C1321 C 0.37693 0.19353 0.67795 0.0
H1322 H 0.48682 0.20412 0.64228 0.0
C1323 C 0.35487 0.14783 0.6609 0.0
H1324 H 0.44409 0.24752 0.681 0.0
C1325 C 0.37969 0.12276 0.6367 0.0
C1326 C 0.42799 0.14181 0.62972 0.0
H1327 H 0.31795 0.13112 0.66656 0.0
H1328 H 0.36085 0.08794 0.62531 0.0
C1329 C 0.4499 0.18755 0.64641 0.0
C1330 C 0.92845 0.36216 0.63016 0.0
C1331 C 0.88408 0.354 0.65551 0.0
H1332 H 0.99079 0.40717 0.59072 0.0
C1333 C 0.86827 0.3854 0.65676 0.0
H1334 H 0.94212 0.339 0.62864 0.0
C1335 C 0.89617 0.4245 0.63623 0.0
C1336 C 0.94124 0.43399 0.61279 0.0
H1337 H 0.83412 0.38008 0.67458 0.0
H1338 H 0.88214 0.44762 0.63919 0.0
C1339 C 0.9566 0.40157 0.60886 0.0
C1340 C 0.20665 0.68179 0.62472 0.0
C1341 C 0.23088 0.67236 0.65321 0.0
H1342 H 0.15863 0.65638 0.5704 0.0
C1343 C 0.22393 0.6285 0.64822 0.0
H1344 H 0.21062 0.71493 0.62778 0.0
C1345 C 0.19584 0.59567 0.6141 0.0
C1346 C 0.17204 0.60507 0.58544 0.0
H1347 H 0.2403 0.61923 0.67077 0.0
H1348 H 0.19188 0.56252 0.61102 0.0
C1349 C 0.17702 0.64833 0.59171 0.0
loop_
_geom_bond_atom_site_label_1
_geom_bond_atom_site_label_2
_geom_bond_distance
_geom_bond_site_symmetry_2
_ccdc_geom_bond_type
Tb0 N29 2.617 . S
Tb0 N35 2.572 . S
Tb0 O44 2.465 . S
Tb0 O45 2.387 . S
Tb0 O47 2.428 . S
Tb0 O48 2.308 . S
Tb0 O52 2.349 . S
Tb0 O55 2.393 . S
Tb0 C64 2.802 . S
C1 N2 1.379 . S
C1 C4 1.416 . S
C1 C8 1.424 . S
N2 C1 1.379 . S
N2 C5 1.334 . S
N2 Tb11 2.617 . S
C3 C5 1.390 . S
C3 C6 1.339 . S
C3 H23 0.930 . S
C4 C1 1.416 . S
C4 C6 1.416 . S
C4 C10 1.448 . S
C5 N2 1.334 . S
C5 C3 1.390 . S
C5 H16 0.930 . S
C6 C3 1.339 . S
C6 C4 1.416 . S
C6 H27 0.930 . S
C7 C8 1.413 . S
C7 C9 1.427 . S
C7 C13 1.416 . S
C8 C1 1.424 . S
C8 C7 1.413 . S
C8 N12 1.361 . S
C9 C7 1.427 . S
C9 C10 1.328 . S
C9 H24 0.929 . S
C10 C4 1.448 . S
C10 C9 1.328 . S
C10 H25 0.930 . S
Tb11 N2 2.617 . S
Tb11 N12 2.572 . S
Tb11 O46 2.349 . S
Tb11 O49 2.393 . S
Tb11 O50 2.465 . S
Tb11 O51 2.387 . S
Tb11 O53 2.428 . S
Tb11 O54 2.308 . S
Tb11 C75 2.802 . S
N12 C8 1.361 . S
N12 Tb11 2.572 . S
N12 C14 1.340 . S
C13 C7 1.416 . S
C13 C15 1.332 . S
C13 H21 0.931 . S
C14 N12 1.340 . S
C14 C15 1.407 . S
C14 H20 0.930 . S
C15 C13 1.332 . S
C15 C14 1.407 . S
C15 H17 0.929 . S
H16 C5 0.930 . S
H17 C15 0.929 . S
H18 C33 0.930 . S
H19 C40 0.929 . S
H20 C14 0.930 . S
H21 C13 0.931 . S
H22 C36 0.930 . S
H23 C3 0.930 . S
H24 C9 0.929 . S
H25 C10 0.930 . S
H26 C31 0.930 . S
H27 C6 0.930 . S
H28 C39 0.931 1_556 S
N29 Tb0 2.617 . S
N29 C30 1.379 . S
N29 C33 1.334 . S
C30 N29 1.379 . S
C30 C32 1.416 . S
C30 C38 1.424 . S
C31 H26 0.930 . S
C31 C33 1.390 . S
C31 C34 1.339 . S
C32 C30 1.416 . S
C32 C34 1.416 . S
C32 C65 1.448 . S
C33 H18 0.930 . S
C33 N29 1.334 . S
C33 C31 1.390 . S
C34 C31 1.339 . S
C34 C32 1.416 . S
C34 H41 0.930 . S
N35 Tb0 2.572 . S
N35 C36 1.340 . S
N35 C38 1.361 . S
C36 H22 0.930 . S
C36 N35 1.340 . S
C36 C40 1.407 . S
C37 C38 1.413 . S
C37 C39 1.416 . S
C37 C66 1.427 . S
C38 C30 1.424 . S
C38 N35 1.361 . S
C38 C37 1.413 . S
C39 H28 0.931 1_554 S
C39 C37 1.416 . S
C39 C40 1.332 . S
C40 H19 0.929 . S
C40 C36 1.407 . S
C40 C39 1.332 . S
H41 C34 0.930 . S
H42 C65 0.930 . S
H43 C66 0.929 1_556 S
O44 Tb0 2.465 . S
O44 C64 1.264 . S
O45 Tb0 2.387 . S
O45 C56 1.264 . S
O46 Tb11 2.349 . S
O46 C56 1.243 . S
O47 Tb0 2.428 . S
O47 C64 1.256 . S
O48 Tb0 2.308 . S
O48 C63 1.266 . S
O49 Tb11 2.393 . S
O49 C63 1.248 . S
O50 Tb11 2.465 . S
O50 C75 1.264 . S
O51 Tb11 2.387 . S
O51 C67 1.264 . S
O52 Tb0 2.349 . S
O52 C67 1.243 . S
O53 Tb11 2.428 . S
O53 C75 1.256 . S
O54 Tb11 2.308 . S
O54 C74 1.266 . S
O55 Tb0 2.393 . S
O55 C74 1.248 . S
C56 O45 1.264 . S
C56 O46 1.243 . S
C57 C60 1.399 . S
C57 C62 1.383 . S
C57 C64 1.496 . S
C58 C59 1.399 . S
C58 C62 1.389 . S
C59 C58 1.399 . S
C59 C61 1.380 . S
C59 H76 0.929 . S
C60 C57 1.399 . S
C60 C61 1.392 . S
C60 H77 0.929 . S
C61 C59 1.380 . S
C61 C60 1.392 . S
C61 H78 0.929 . S
C62 C57 1.383 . S
C62 C58 1.389 . S
C62 H79 0.931 . S
C63 O48 1.266 . S
C63 O49 1.248 . S
C64 Tb0 2.802 . S
C64 O44 1.264 . S
C64 O47 1.256 . S
C64 C57 1.496 . S
C65 C32 1.448 . S
C65 H42 0.930 . S
C65 C66 1.328 . S
C66 C37 1.427 . S
C66 H43 0.929 1_554 S
C66 C65 1.328 . S
C67 O51 1.264 . S
C67 O52 1.243 . S
C68 C71 1.399 . S
C68 C72 1.383 . S
C68 C75 1.496 . S
C69 C70 1.399 . S
C69 C72 1.389 . S
C70 C69 1.399 . S
C70 C73 1.380 . S
C70 H80 0.929 . S
C71 C68 1.399 . S
C71 C73 1.392 . S
C71 H81 0.929 . S
C72 C68 1.383 . S
C72 C69 1.389 . S
C72 H82 0.931 . S
C73 C70 1.380 . S
C73 C71 1.392 . S
C73 H83 0.929 . S
C74 O54 1.266 . S
C74 O55 1.248 . S
C75 Tb11 2.802 . S
C75 O50 1.264 . S
C75 O53 1.256 . S
C75 C68 1.496 . S
H76 C59 0.929 . S
H77 C60 0.929 . S
H78 C61 0.929 . S
H79 C62 0.931 . S
H80 C70 0.929 . S
H81 C71 0.929 . S
H82 C72 0.931 . S
H83 C73 0.929 . S
Tb84 N113 2.617 . S
Tb84 N119 2.572 . S
Tb84 O128 2.465 . S
Tb84 O129 2.387 . S
Tb84 O131 2.428 . S
Tb84 O132 2.308 . S
Tb84 O136 2.349 . S
Tb84 O139 2.393 . S
Tb84 C148 2.802 . S
C85 N86 1.379 . S
C85 C88 1.416 . S
C85 C92 1.424 . S
N86 C85 1.379 . S
N86 C89 1.334 . S
N86 Tb95 2.617 . S
C87 C89 1.390 . S
C87 C90 1.339 . S
C87 H107 0.930 . S
C88 C85 1.416 . S
C88 C90 1.416 . S
C88 C94 1.448 . S
C89 N86 1.334 . S
C89 C87 1.390 . S
C89 H100 0.930 . S
C90 C87 1.339 . S
C90 C88 1.416 . S
C90 H111 0.930 . S
C91 C92 1.413 . S
C91 C93 1.427 . S
C91 C97 1.416 . S
C92 C85 1.424 . S
C92 C91 1.413 . S
C92 N96 1.361 . S
C93 C91 1.427 . S
C93 C94 1.328 . S
C93 H108 0.929 . S
C94 C88 1.448 . S
C94 C93 1.328 . S
C94 H109 0.930 . S
Tb95 N86 2.617 . S
Tb95 N96 2.572 . S
Tb95 O130 2.349 . S
Tb95 O133 2.393 . S
Tb95 O134 2.465 . S
Tb95 O135 2.387 . S
Tb95 O137 2.428 . S
Tb95 O138 2.308 . S
Tb95 C159 2.802 . S
N96 C92 1.361 . S
N96 Tb95 2.572 . S
N96 C98 1.340 . S
C97 C91 1.416 . S
C97 C99 1.332 . S
C97 H105 0.931 . S
C98 N96 1.340 . S
C98 C99 1.407 . S
C98 H104 0.930 . S
C99 C97 1.332 . S
C99 C98 1.407 . S
C99 H101 0.929 . S
H100 C89 0.930 . S
H101 C99 0.929 . S
H102 C117 0.930 . S
H103 C124 0.929 . S
H104 C98 0.930 . S
H105 C97 0.931 . S
H106 C120 0.930 . S
H107 C87 0.930 . S
H108 C93 0.929 . S
H109 C94 0.930 . S
H110 C115 0.930 . S
H111 C90 0.930 . S
H112 C123 0.931 . S
N113 Tb84 2.617 . S
N113 C114 1.379 . S
N113 C117 1.334 . S
C114 N113 1.379 . S
C114 C116 1.416 . S
C114 C122 1.424 . S
C115 H110 0.930 . S
C115 C117 1.390 . S
C115 C118 1.339 . S
C116 C114 1.416 . S
C116 C118 1.416 . S
C116 C149 1.448 . S
C117 H102 0.930 . S
C117 N113 1.334 . S
C117 C115 1.390 . S
C118 C115 1.339 . S
C118 C116 1.416 . S
C118 H125 0.930 . S
N119 Tb84 2.572 . S
N119 C120 1.340 . S
N119 C122 1.361 . S
C120 H106 0.930 . S
C120 N119 1.340 . S
C120 C124 1.407 . S
C121 C122 1.413 . S
C121 C123 1.416 . S
C121 C150 1.427 . S
C122 C114 1.424 . S
C122 N119 1.361 . S
C122 C121 1.413 . S
C123 H112 0.931 . S
C123 C121 1.416 . S
C123 C124 1.332 . S
C124 H103 0.929 . S
C124 C120 1.407 . S
C124 C123 1.332 . S
H125 C118 0.930 . S
H126 C149 0.930 . S
H127 C150 0.929 . S
O128 Tb84 2.465 . S
O128 C148 1.264 . S
O129 Tb84 2.387 . S
O129 C140 1.264 . S
O130 Tb95 2.349 . S
O130 C140 1.243 . S
O131 Tb84 2.428 . S
O131 C148 1.256 . S
O132 Tb84 2.308 . S
O132 C147 1.266 . S
O133 Tb95 2.393 . S
O133 C147 1.248 . S
O134 Tb95 2.465 . S
O134 C159 1.264 . S
O135 Tb95 2.387 . S
O135 C151 1.264 . S
O136 Tb84 2.349 . S
O136 C151 1.243 . S
O137 Tb95 2.428 . S
O137 C159 1.256 . S
O138 Tb95 2.308 . S
O138 C158 1.266 . S
O139 Tb84 2.393 . S
O139 C158 1.248 . S
C140 O129 1.264 . S
C140 O130 1.243 . S
C141 C144 1.399 . S
C141 C146 1.383 . S
C141 C148 1.496 . S
C142 C143 1.399 . S
C142 C146 1.389 . S
C143 C142 1.399 . S
C143 C145 1.380 . S
C143 H160 0.929 . S
C144 C141 1.399 . S
C144 C145 1.392 . S
C144 H161 0.929 . S
C145 C143 1.380 . S
C145 C144 1.392 . S
C145 H162 0.929 . S
C146 C141 1.383 . S
C146 C142 1.389 . S
C146 H163 0.931 . S
C147 O132 1.266 . S
C147 O133 1.248 . S
C148 Tb84 2.802 . S
C148 O128 1.264 . S
C148 O131 1.256 . S
C148 C141 1.496 . S
C149 C116 1.448 . S
C149 H126 0.930 . S
C149 C150 1.328 . S
C150 C121 1.427 . S
C150 H127 0.929 . S
C150 C149 1.328 . S
C151 O135 1.264 . S
C151 O136 1.243 . S
C152 C155 1.399 . S
C152 C156 1.383 . S
C152 C159 1.496 . S
C153 C154 1.399 . S
C153 C156 1.389 . S
C154 C153 1.399 . S
C154 C157 1.380 . S
C154 H164 0.929 . S
C155 C152 1.399 . S
C155 C157 1.392 . S
C155 H165 0.929 . S
C156 C152 1.383 . S
C156 C153 1.389 . S
C156 H166 0.931 . S
C157 C154 1.380 . S
C157 C155 1.392 . S
C157 H167 0.929 . S
C158 O138 1.266 . S
C158 O139 1.248 . S
C159 Tb95 2.802 . S
C159 O134 1.264 . S
C159 O137 1.256 . S
C159 C152 1.496 . S
H160 C143 0.929 . S
H161 C144 0.929 . S
H162 C145 0.929 . S
H163 C146 0.931 . S
H164 C154 0.929 . S
H165 C155 0.929 . S
H166 C156 0.931 . S
H167 C157 0.929 . S
Tb168 N197 2.617 . S
Tb168 N203 2.572 . S
Tb168 O212 2.465 . S
Tb168 O213 2.387 . S
Tb168 O215 2.428 . S
Tb168 O216 2.308 . S
Tb168 O220 2.349 . S
Tb168 O223 2.393 . S
Tb168 C232 2.802 . S
C169 N170 1.379 . S
C169 C172 1.416 . S
C169 C176 1.424 . S
N170 C169 1.379 . S
N170 C173 1.334 . S
N170 Tb179 2.617 . S
C171 C173 1.390 . S
C171 C174 1.339 . S
C171 H191 0.930 . S
C172 C169 1.416 . S
C172 C174 1.416 . S
C172 C178 1.448 . S
C173 N170 1.334 . S
C173 C171 1.390 . S
C173 H184 0.930 . S
C174 C171 1.339 . S
C174 C172 1.416 . S
C174 H195 0.930 . S
C175 C176 1.413 . S
C175 C177 1.427 . S
C175 C181 1.416 . S
C176 C169 1.424 . S
C176 C175 1.413 . S
C176 N180 1.361 . S
C177 C175 1.427 . S
C177 C178 1.328 . S
C177 H192 0.929 1_554 S
C178 C172 1.448 . S
C178 C177 1.328 . S
C178 H193 0.930 . S
Tb179 N170 2.617 . S
Tb179 N180 2.572 . S
Tb179 O214 2.349 . S
Tb179 O217 2.393 . S
Tb179 O218 2.465 . S
Tb179 O219 2.387 . S
Tb179 O221 2.428 . S
Tb179 O222 2.308 . S
Tb179 C243 2.802 . S
N180 C176 1.361 . S
N180 Tb179 2.572 . S
N180 C182 1.340 . S
C181 C175 1.416 . S
C181 C183 1.332 . S
C181 H189 0.931 1_554 S
C182 N180 1.340 . S
C182 C183 1.407 . S
C182 H188 0.930 . S
C183 C181 1.332 . S
C183 C182 1.407 . S
C183 H185 0.929 . S
H184 C173 0.930 . S
H185 C183 0.929 . S
H186 C201 0.930 . S
H187 C208 0.929 . S
H188 C182 0.930 . S
H189 C181 0.931 1_556 S
H190 C204 0.930 . S
H191 C171 0.930 . S
H192 C177 0.929 1_556 S
H193 C178 0.930 . S
H194 C199 0.930 . S
H195 C174 0.930 . S
H196 C207 0.931 . S
N197 Tb168 2.617 . S
N197 C198 1.379 . S
N197 C201 1.334 . S
C198 N197 1.379 . S
C198 C200 1.416 . S
C198 C206 1.424 . S
C199 H194 0.930 . S
C199 C201 1.390 . S
C199 C202 1.339 . S
C200 C198 1.416 . S
C200 C202 1.416 . S
C200 C233 1.448 . S
C201 H186 0.930 . S
C201 N197 1.334 . S
C201 C199 1.390 . S
C202 C199 1.339 . S
C202 C200 1.416 . S
C202 H209 0.930 . S
N203 Tb168 2.572 . S
N203 C204 1.340 . S
N203 C206 1.361 . S
C204 H190 0.930 . S
C204 N203 1.340 . S
C204 C208 1.407 . S
C205 C206 1.413 . S
C205 C207 1.416 . S
C205 C234 1.427 . S
C206 C198 1.424 . S
C206 N203 1.361 . S
C206 C205 1.413 . S
C207 H196 0.931 . S
C207 C205 1.416 . S
C207 C208 1.332 . S
C208 H187 0.929 . S
C208 C204 1.407 . S
C208 C207 1.332 . S
H209 C202 0.930 . S
H210 C233 0.930 . S
H211 C234 0.929 . S
O212 Tb168 2.465 . S
O212 C232 1.264 . S
O213 Tb168 2.387 . S
O213 C224 1.264 . S
O214 Tb179 2.349 . S
O214 C224 1.243 . S
O215 Tb168 2.428 . S
O215 C232 1.256 . S
O216 Tb168 2.308 . S
O216 C231 1.266 . S
O217 Tb179 2.393 . S
O217 C231 1.248 . S
O218 Tb179 2.465 . S
O218 C243 1.264 . S
O219 Tb179 2.387 . S
O219 C235 1.264 . S
O220 Tb168 2.349 . S
O220 C235 1.243 . S
O221 Tb179 2.428 . S
O221 C243 1.256 . S
O222 Tb179 2.308 . S
O222 C242 1.266 . S
O223 Tb168 2.393 . S
O223 C242 1.248 . S
C224 O213 1.264 . S
C224 O214 1.243 . S
C225 C228 1.399 . S
C225 C230 1.383 . S
C225 C232 1.496 . S
C226 C227 1.399 . S
C226 C230 1.389 . S
C227 C226 1.399 . S
C227 C229 1.380 . S
C227 H244 0.929 . S
C228 C225 1.399 . S
C228 C229 1.392 . S
C228 H245 0.929 . S
C229 C227 1.380 . S
C229 C228 1.392 . S
C229 H246 0.929 . S
C230 C225 1.383 . S
C230 C226 1.389 . S
C230 H247 0.931 . S
C231 O216 1.266 . S
C231 O217 1.248 . S
C232 Tb168 2.802 . S
C232 O212 1.264 . S
C232 O215 1.256 . S
C232 C225 1.496 . S
C233 C200 1.448 . S
C233 H210 0.930 . S
C233 C234 1.328 . S
C234 C205 1.427 . S
C234 H211 0.929 . S
C234 C233 1.328 . S
C235 O219 1.264 . S
C235 O220 1.243 . S
C236 C239 1.399 . S
C236 C240 1.383 . S
C236 C243 1.496 . S
C237 C238 1.399 . S
C237 C240 1.389 . S
C238 C237 1.399 . S
C238 C241 1.380 . S
C238 H248 0.929 . S
C239 C236 1.399 . S
C239 C241 1.392 . S
C239 H249 0.929 . S
C240 C236 1.383 . S
C240 C237 1.389 . S
C240 H250 0.931 . S
C241 C238 1.380 . S
C241 C239 1.392 . S
C241 H251 0.929 . S
C242 O222 1.266 . S
C242 O223 1.248 . S
C243 Tb179 2.802 . S
C243 O218 1.264 . S
C243 O221 1.256 . S
C243 C236 1.496 . S
H244 C227 0.929 . S
H245 C228 0.929 . S
H246 C229 0.929 . S
H247 C230 0.931 . S
H248 C238 0.929 . S
H249 C239 0.929 . S
H250 C240 0.931 . S
H251 C241 0.929 . S
Tb252 N281 2.617 . S
Tb252 N287 2.572 . S
Tb252 O296 2.465 . S
Tb252 O297 2.387 . S
Tb252 O299 2.428 . S
Tb252 O300 2.308 . S
Tb252 O304 2.349 . S
Tb252 O307 2.393 . S
Tb252 C316 2.802 . S
C253 N254 1.379 . S
C253 C256 1.416 . S
C253 C260 1.424 . S
N254 C253 1.379 . S
N254 C257 1.334 . S
N254 Tb263 2.617 . S
C255 C257 1.390 . S
C255 C258 1.339 . S
C255 H275 0.930 . S
C256 C253 1.416 . S
C256 C258 1.416 . S
C256 C262 1.448 . S
C257 N254 1.334 . S
C257 C255 1.390 . S
C257 H268 0.930 . S
C258 C255 1.339 . S
C258 C256 1.416 . S
C258 H279 0.930 . S
C259 C260 1.413 . S
C259 C261 1.427 . S
C259 C265 1.416 . S
C260 C253 1.424 . S
C260 C259 1.413 . S
C260 N264 1.361 . S
C261 C259 1.427 . S
C261 C262 1.328 . S
C261 H276 0.929 . S
C262 C256 1.448 . S
C262 C261 1.328 . S
C262 H277 0.930 . S
Tb263 N254 2.617 . S
Tb263 N264 2.572 . S
Tb263 O298 2.349 . S
Tb263 O301 2.393 . S
Tb263 O302 2.465 . S
Tb263 O303 2.387 . S
Tb263 O305 2.428 . S
Tb263 O306 2.308 . S
Tb263 C327 2.802 . S
N264 C260 1.361 . S
N264 Tb263 2.572 . S
N264 C266 1.340 . S
C265 C259 1.416 . S
C265 C267 1.332 . S
C265 H273 0.931 . S
C266 N264 1.340 . S
C266 C267 1.407 . S
C266 H272 0.930 . S
C267 C265 1.332 . S
C267 C266 1.407 . S
C267 H269 0.929 . S
H268 C257 0.930 . S
H269 C267 0.929 . S
H270 C285 0.930 . S
H271 C292 0.929 . S
H272 C266 0.930 . S
H273 C265 0.931 . S
H274 C288 0.930 . S
H275 C255 0.930 . S
H276 C261 0.929 . S
H277 C262 0.930 . S
H278 C283 0.930 . S
H279 C258 0.930 . S
H280 C291 0.931 . S
N281 Tb252 2.617 . S
N281 C282 1.379 . S
N281 C285 1.334 . S
C282 N281 1.379 . S
C282 C284 1.416 . S
C282 C290 1.424 . S
C283 H278 0.930 . S
C283 C285 1.390 . S
C283 C286 1.339 . S
C284 C282 1.416 . S
C284 C286 1.416 . S
C284 C317 1.448 . S
C285 H270 0.930 . S
C285 N281 1.334 . S
C285 C283 1.390 . S
C286 C283 1.339 . S
C286 C284 1.416 . S
C286 H293 0.930 . S
N287 Tb252 2.572 . S
N287 C288 1.340 . S
N287 C290 1.361 . S
C288 H274 0.930 . S
C288 N287 1.340 . S
C288 C292 1.407 . S
C289 C290 1.413 . S
C289 C291 1.416 . S
C289 C318 1.427 . S
C290 C282 1.424 . S
C290 N287 1.361 . S
C290 C289 1.413 . S
C291 H280 0.931 . S
C291 C289 1.416 . S
C291 C292 1.332 . S
C292 H271 0.929 . S
C292 C288 1.407 . S
C292 C291 1.332 . S
H293 C286 0.930 . S
H294 C317 0.930 . S
H295 C318 0.929 . S
O296 Tb252 2.465 . S
O296 C316 1.264 . S
O297 Tb252 2.387 . S
O297 C308 1.264 . S
O298 Tb263 2.349 . S
O298 C308 1.243 . S
O299 Tb252 2.428 . S
O299 C316 1.256 . S
O300 Tb252 2.308 . S
O300 C315 1.266 . S
O301 Tb263 2.393 . S
O301 C315 1.248 . S
O302 Tb263 2.465 . S
O302 C327 1.264 . S
O303 Tb263 2.387 . S
O303 C319 1.264 . S
O304 Tb252 2.349 . S
O304 C319 1.243 . S
O305 Tb263 2.428 . S
O305 C327 1.256 . S
O306 Tb263 2.308 . S
O306 C326 1.266 . S
O307 Tb252 2.393 . S
O307 C326 1.248 . S
C308 O297 1.264 . S
C308 O298 1.243 . S
C309 C312 1.399 . S
C309 C314 1.383 . S
C309 C316 1.496 . S
C310 C311 1.399 . S
C310 C314 1.389 . S
C311 C310 1.399 . S
C311 C313 1.380 . S
C311 H328 0.929 . S
C312 C309 1.399 . S
C312 C313 1.392 . S
C312 H329 0.929 . S
C313 C311 1.380 . S
C313 C312 1.392 . S
C313 H330 0.929 . S
C314 C309 1.383 . S
C314 C310 1.389 . S
C314 H331 0.931 . S
C315 O300 1.266 . S
C315 O301 1.248 . S
C316 Tb252 2.802 . S
C316 O296 1.264 . S
C316 O299 1.256 . S
C316 C309 1.496 . S
C317 C284 1.448 . S
C317 H294 0.930 . S
C317 C318 1.328 . S
C318 C289 1.427 . S
C318 H295 0.929 . S
C318 C317 1.328 . S
C319 O303 1.264 . S
C319 O304 1.243 . S
C320 C323 1.399 . S
C320 C324 1.383 . S
C320 C327 1.496 . S
C321 C322 1.399 . S
C321 C324 1.389 . S
C322 C321 1.399 . S
C322 C325 1.380 . S
C322 H332 0.929 . S
C323 C320 1.399 . S
C323 C325 1.392 . S
C323 H333 0.929 . S
C324 C320 1.383 . S
C324 C321 1.389 . S
C324 H334 0.931 . S
C325 C322 1.380 . S
C325 C323 1.392 . S
C325 H335 0.929 . S
C326 O306 1.266 . S
C326 O307 1.248 . S
C327 Tb263 2.802 . S
C327 O302 1.264 . S
C327 O305 1.256 . S
C327 C320 1.496 . S
H328 C311 0.929 . S
H329 C312 0.929 . S
H330 C313 0.929 . S
H331 C314 0.931 . S
H332 C322 0.929 . S
H333 C323 0.929 . S
H334 C324 0.931 . S
H335 C325 0.929 . S
Tb336 N365 2.617 . S
Tb336 N371 2.572 . S
Tb336 O380 2.465 . S
Tb336 O381 2.387 . S
Tb336 O383 2.428 . S
Tb336 O384 2.308 . S
Tb336 O388 2.349 . S
Tb336 O391 2.393 . S
Tb336 C400 2.802 . S
C337 N338 1.379 . S
C337 C340 1.416 . S
C337 C344 1.424 . S
N338 C337 1.379 . S
N338 C341 1.334 . S
N338 Tb347 2.617 . S
C339 C341 1.390 . S
C339 C342 1.339 . S
C339 H359 0.930 . S
C340 C337 1.416 . S
C340 C342 1.416 . S
C340 C346 1.448 . S
C341 N338 1.334 . S
C341 C339 1.390 . S
C341 H352 0.930 . S
C342 C339 1.339 . S
C342 C340 1.416 . S
C342 H363 0.930 . S
C343 C344 1.413 . S
C343 C345 1.427 . S
C343 C349 1.416 . S
C344 C337 1.424 . S
C344 C343 1.413 . S
C344 N348 1.361 . S
C345 C343 1.427 . S
C345 C346 1.328 . S
C345 H360 0.929 . S
C346 C340 1.448 . S
C346 C345 1.328 . S
C346 H361 0.930 . S
Tb347 N338 2.617 . S
Tb347 N348 2.572 . S
Tb347 O382 2.349 . S
Tb347 O385 2.393 . S
Tb347 O386 2.465 . S
Tb347 O387 2.387 . S
Tb347 O389 2.428 . S
Tb347 O390 2.308 . S
Tb347 C411 2.802 . S
N348 C344 1.361 . S
N348 Tb347 2.572 . S
N348 C350 1.340 . S
C349 C343 1.416 . S
C349 C351 1.332 . S
C349 H357 0.931 . S
C350 N348 1.340 . S
C350 C351 1.407 . S
C350 H356 0.930 . S
C351 C349 1.332 . S
C351 C350 1.407 . S
C351 H353 0.929 . S
H352 C341 0.930 . S
H353 C351 0.929 . S
H354 C369 0.930 . S
H355 C376 0.929 . S
H356 C350 0.930 . S
H357 C349 0.931 . S
H358 C372 0.930 . S
H359 C339 0.930 . S
H360 C345 0.929 . S
H361 C346 0.930 . S
H362 C367 0.930 . S
H363 C342 0.930 . S
H364 C375 0.931 . S
N365 Tb336 2.617 . S
N365 C366 1.379 . S
N365 C369 1.334 . S
C366 N365 1.379 . S
C366 C368 1.416 . S
C366 C374 1.424 . S
C367 H362 0.930 . S
C367 C369 1.390 . S
C367 C370 1.339 . S
C368 C366 1.416 . S
C368 C370 1.416 . S
C368 C401 1.448 . S
C369 H354 0.930 . S
C369 N365 1.334 . S
C369 C367 1.390 . S
C370 C367 1.339 . S
C370 C368 1.416 . S
C370 H377 0.930 . S
N371 Tb336 2.572 . S
N371 C372 1.340 . S
N371 C374 1.361 . S
C372 H358 0.930 . S
C372 N371 1.340 . S
C372 C376 1.407 . S
C373 C374 1.413 . S
C373 C375 1.416 . S
C373 C402 1.427 . S
C374 C366 1.424 . S
C374 N371 1.361 . S
C374 C373 1.413 . S
C375 H364 0.931 . S
C375 C373 1.416 . S
C375 C376 1.332 . S
C376 H355 0.929 . S
C376 C372 1.407 . S
C376 C375 1.332 . S
H377 C370 0.930 . S
H378 C401 0.930 . S
H379 C402 0.929 . S
O380 Tb336 2.465 . S
O380 C400 1.264 . S
O381 Tb336 2.387 . S
O381 C392 1.264 . S
O382 Tb347 2.349 . S
O382 C392 1.243 . S
O383 Tb336 2.428 . S
O383 C400 1.256 . S
O384 Tb336 2.308 . S
O384 C399 1.266 . S
O385 Tb347 2.393 . S
O385 C399 1.248 . S
O386 Tb347 2.465 . S
O386 C411 1.264 . S
O387 Tb347 2.387 . S
O387 C403 1.264 . S
O388 Tb336 2.349 . S
O388 C403 1.243 . S
O389 Tb347 2.428 . S
O389 C411 1.256 . S
O390 Tb347 2.308 . S
O390 C410 1.266 . S
O391 Tb336 2.393 . S
O391 C410 1.248 . S
C392 O381 1.264 . S
C392 O382 1.243 . S
C393 C396 1.399 . S
C393 C398 1.383 . S
C393 C400 1.496 . S
C394 C395 1.399 . S
C394 C398 1.389 . S
C395 C394 1.399 . S
C395 C397 1.380 . S
C395 H412 0.929 . S
C396 C393 1.399 . S
C396 C397 1.392 . S
C396 H413 0.929 . S
C397 C395 1.380 . S
C397 C396 1.392 . S
C397 H414 0.929 . S
C398 C393 1.383 . S
C398 C394 1.389 . S
C398 H415 0.931 . S
C399 O384 1.266 . S
C399 O385 1.248 . S
C400 Tb336 2.802 . S
C400 O380 1.264 . S
C400 O383 1.256 . S
C400 C393 1.496 . S
C401 C368 1.448 . S
C401 H378 0.930 . S
C401 C402 1.328 . S
C402 C373 1.427 . S
C402 H379 0.929 . S
C402 C401 1.328 . S
C403 O387 1.264 . S
C403 O388 1.243 . S
C404 C407 1.399 . S
C404 C408 1.383 . S
C404 C411 1.496 . S
C405 C406 1.399 . S
C405 C408 1.389 . S
C406 C405 1.399 . S
C406 C409 1.380 . S
C406 H416 0.929 . S
C407 C404 1.399 . S
C407 C409 1.392 . S
C407 H417 0.929 . S
C408 C404 1.383 . S
C408 C405 1.389 . S
C408 H418 0.931 . S
C409 C406 1.380 . S
C409 C407 1.392 . S
C409 H419 0.929 . S
C410 O390 1.266 . S
C410 O391 1.248 . S
C411 Tb347 2.802 . S
C411 O386 1.264 . S
C411 O389 1.256 . S
C411 C404 1.496 . S
H412 C395 0.929 . S
H413 C396 0.929 . S
H414 C397 0.929 . S
H415 C398 0.931 . S
H416 C406 0.929 . S
H417 C407 0.929 . S
H418 C408 0.931 . S
H419 C409 0.929 . S
Tb420 N449 2.617 . S
Tb420 N455 2.572 . S
Tb420 O464 2.465 . S
Tb420 O465 2.387 . S
Tb420 O467 2.428 . S
Tb420 O468 2.308 . S
Tb420 O472 2.349 . S
Tb420 O475 2.393 . S
Tb420 C484 2.802 . S
C421 N422 1.379 . S
C421 C424 1.416 . S
C421 C428 1.424 . S
N422 C421 1.379 . S
N422 C425 1.334 . S
N422 Tb431 2.617 . S
C423 C425 1.390 . S
C423 C426 1.339 . S
C423 H443 0.930 . S
C424 C421 1.416 . S
C424 C426 1.416 . S
C424 C430 1.448 . S
C425 N422 1.334 . S
C425 C423 1.390 . S
C425 H436 0.930 . S
C426 C423 1.339 . S
C426 C424 1.416 . S
C426 H447 0.930 . S
C427 C428 1.413 . S
C427 C429 1.427 . S
C427 C433 1.416 . S
C428 C421 1.424 . S
C428 C427 1.413 . S
C428 N432 1.361 . S
C429 C427 1.427 . S
C429 C430 1.328 . S
C429 H444 0.929 . S
C430 C424 1.448 . S
C430 C429 1.328 . S
C430 H445 0.930 . S
Tb431 N422 2.617 . S
Tb431 N432 2.572 . S
Tb431 O466 2.349 . S
Tb431 O469 2.393 . S
Tb431 O470 2.465 . S
Tb431 O471 2.387 . S
Tb431 O473 2.428 . S
Tb431 O474 2.308 . S
Tb431 C495 2.802 . S
N432 C428 1.361 . S
N432 Tb431 2.572 . S
N432 C434 1.340 . S
C433 C427 1.416 . S
C433 C435 1.332 . S
C433 H441 0.931 . S
C434 N432 1.340 . S
C434 C435 1.407 . S
C434 H440 0.930 . S
C435 C433 1.332 . S
C435 C434 1.407 . S
C435 H437 0.929 . S
H436 C425 0.930 . S
H437 C435 0.929 . S
H438 C453 0.930 . S
H439 C460 0.929 . S
H440 C434 0.930 . S
H441 C433 0.931 . S
H442 C456 0.930 . S
H443 C423 0.930 . S
H444 C429 0.929 . S
H445 C430 0.930 . S
H446 C451 0.930 . S
H447 C426 0.930 . S
H448 C459 0.931 1_554 S
N449 Tb420 2.617 . S
N449 C450 1.379 . S
N449 C453 1.334 . S
C450 N449 1.379 . S
C450 C452 1.416 . S
C450 C458 1.424 . S
C451 H446 0.930 . S
C451 C453 1.390 . S
C451 C454 1.339 . S
C452 C450 1.416 . S
C452 C454 1.416 . S
C452 C485 1.448 . S
C453 H438 0.930 . S
C453 N449 1.334 . S
C453 C451 1.390 . S
C454 C451 1.339 . S
C454 C452 1.416 . S
C454 H461 0.930 . S
N455 Tb420 2.572 . S
N455 C456 1.340 . S
N455 C458 1.361 . S
C456 H442 0.930 . S
C456 N455 1.340 . S
C456 C460 1.407 . S
C457 C458 1.413 . S
C457 C459 1.416 . S
C457 C486 1.427 . S
C458 C450 1.424 . S
C458 N455 1.361 . S
C458 C457 1.413 . S
C459 H448 0.931 1_556 S
C459 C457 1.416 . S
C459 C460 1.332 . S
C460 H439 0.929 . S
C460 C456 1.407 . S
C460 C459 1.332 . S
H461 C454 0.930 . S
H462 C485 0.930 . S
H463 C486 0.929 1_554 S
O464 Tb420 2.465 . S
O464 C484 1.264 . S
O465 Tb420 2.387 . S
O465 C476 1.264 . S
O466 Tb431 2.349 . S
O466 C476 1.243 . S
O467 Tb420 2.428 . S
O467 C484 1.256 . S
O468 Tb420 2.308 . S
O468 C483 1.266 . S
O469 Tb431 2.393 . S
O469 C483 1.248 . S
O470 Tb431 2.465 . S
O470 C495 1.264 . S
O471 Tb431 2.387 . S
O471 C487 1.264 . S
O472 Tb420 2.349 . S
O472 C487 1.243 . S
O473 Tb431 2.428 . S
O473 C495 1.256 . S
O474 Tb431 2.308 . S
O474 C494 1.266 . S
O475 Tb420 2.393 . S
O475 C494 1.248 . S
C476 O465 1.264 . S
C476 O466 1.243 . S
C477 C480 1.399 . S
C477 C482 1.383 . S
C477 C484 1.496 . S
C478 C479 1.399 . S
C478 C482 1.389 . S
C479 C478 1.399 . S
C479 C481 1.380 . S
C479 H496 0.929 . S
C480 C477 1.399 . S
C480 C481 1.392 . S
C480 H497 0.929 . S
C481 C479 1.380 . S
C481 C480 1.392 . S
C481 H498 0.929 . S
C482 C477 1.383 . S
C482 C478 1.389 . S
C482 H499 0.931 . S
C483 O468 1.266 . S
C483 O469 1.248 . S
C484 Tb420 2.802 . S
C484 O464 1.264 . S
C484 O467 1.256 . S
C484 C477 1.496 . S
C485 C452 1.448 . S
C485 H462 0.930 . S
C485 C486 1.328 . S
C486 C457 1.427 . S
C486 H463 0.929 1_556 S
C486 C485 1.328 . S
C487 O471 1.264 . S
C487 O472 1.243 . S
C488 C491 1.399 . S
C488 C492 1.383 . S
C488 C495 1.496 . S
C489 C490 1.399 . S
C489 C492 1.389 . S
C490 C489 1.399 . S
C490 C493 1.380 . S
C490 H500 0.929 . S
C491 C488 1.399 . S
C491 C493 1.392 . S
C491 H501 0.929 . S
C492 C488 1.383 . S
C492 C489 1.389 . S
C492 H502 0.931 . S
C493 C490 1.380 . S
C493 C491 1.392 . S
C493 H503 0.929 . S
C494 O474 1.266 . S
C494 O475 1.248 . S
C495 Tb431 2.802 . S
C495 O470 1.264 . S
C495 O473 1.256 . S
C495 C488 1.496 . S
H496 C479 0.929 . S
H497 C480 0.929 . S
H498 C481 0.929 . S
H499 C482 0.931 . S
H500 C490 0.929 . S
H501 C491 0.929 . S
H502 C492 0.931 . S
H503 C493 0.929 . S
Tb504 N533 2.617 . S
Tb504 N539 2.572 . S
Tb504 O548 2.465 . S
Tb504 O549 2.387 . S
Tb504 O551 2.428 . S
Tb504 O552 2.308 . S
Tb504 O556 2.349 . S
Tb504 O559 2.393 . S
Tb504 C568 2.802 . S
C505 N506 1.379 . S
C505 C508 1.416 . S
C505 C512 1.424 . S
N506 C505 1.379 . S
N506 C509 1.334 . S
N506 Tb515 2.617 . S
C507 C509 1.390 . S
C507 C510 1.339 . S
C507 H527 0.930 . S
C508 C505 1.416 . S
C508 C510 1.416 . S
C508 C514 1.448 . S
C509 N506 1.334 . S
C509 C507 1.390 . S
C509 H520 0.930 . S
C510 C507 1.339 . S
C510 C508 1.416 . S
C510 H531 0.930 . S
C511 C512 1.413 . S
C511 C513 1.427 . S
C511 C517 1.416 . S
C512 C505 1.424 . S
C512 C511 1.413 . S
C512 N516 1.361 . S
C513 C511 1.427 . S
C513 C514 1.328 . S
C513 H528 0.929 . S
C514 C508 1.448 . S
C514 C513 1.328 . S
C514 H529 0.930 . S
Tb515 N506 2.617 . S
Tb515 N516 2.572 . S
Tb515 O550 2.349 . S
Tb515 O553 2.393 . S
Tb515 O554 2.465 . S
Tb515 O555 2.387 . S
Tb515 O557 2.428 . S
Tb515 O558 2.308 . S
Tb515 C579 2.802 . S
N516 C512 1.361 . S
N516 Tb515 2.572 . S
N516 C518 1.340 . S
C517 C511 1.416 . S
C517 C519 1.332 . S
C517 H525 0.931 . S
C518 N516 1.340 . S
C518 C519 1.407 . S
C518 H524 0.930 . S
C519 C517 1.332 . S
C519 C518 1.407 . S
C519 H521 0.929 . S
H520 C509 0.930 . S
H521 C519 0.929 . S
H522 C537 0.930 . S
H523 C544 0.929 . S
H524 C518 0.930 . S
H525 C517 0.931 . S
H526 C540 0.930 . S
H527 C507 0.930 . S
H528 C513 0.929 . S
H529 C514 0.930 . S
H530 C535 0.930 . S
H531 C510 0.930 . S
H532 C543 0.931 . S
N533 Tb504 2.617 . S
N533 C534 1.379 . S
N533 C537 1.334 . S
C534 N533 1.379 . S
C534 C536 1.416 . S
C534 C542 1.424 . S
C535 H530 0.930 . S
C535 C537 1.390 . S
C535 C538 1.339 . S
C536 C534 1.416 . S
C536 C538 1.416 . S
C536 C569 1.448 . S
C537 H522 0.930 . S
C537 N533 1.334 . S
C537 C535 1.390 . S
C538 C535 1.339 . S
C538 C536 1.416 . S
C538 H545 0.930 . S
N539 Tb504 2.572 . S
N539 C540 1.340 . S
N539 C542 1.361 . S
C540 H526 0.930 . S
C540 N539 1.340 . S
C540 C544 1.407 . S
C541 C542 1.413 . S
C541 C543 1.416 . S
C541 C570 1.427 . S
C542 C534 1.424 . S
C542 N539 1.361 . S
C542 C541 1.413 . S
C543 H532 0.931 . S
C543 C541 1.416 . S
C543 C544 1.332 . S
C544 H523 0.929 . S
C544 C540 1.407 . S
C544 C543 1.332 . S
H545 C538 0.930 . S
H546 C569 0.930 . S
H547 C570 0.929 . S
O548 Tb504 2.465 . S
O548 C568 1.264 . S
O549 Tb504 2.387 . S
O549 C560 1.264 . S
O550 Tb515 2.349 . S
O550 C560 1.243 . S
O551 Tb504 2.428 . S
O551 C568 1.256 . S
O552 Tb504 2.308 . S
O552 C567 1.266 . S
O553 Tb515 2.393 . S
O553 C567 1.248 . S
O554 Tb515 2.465 . S
O554 C579 1.264 . S
O555 Tb515 2.387 . S
O555 C571 1.264 . S
O556 Tb504 2.349 . S
O556 C571 1.243 . S
O557 Tb515 2.428 . S
O557 C579 1.256 . S
O558 Tb515 2.308 . S
O558 C578 1.266 . S
O559 Tb504 2.393 . S
O559 C578 1.248 . S
C560 O549 1.264 . S
C560 O550 1.243 . S
C561 C564 1.399 . S
C561 C566 1.383 . S
C561 C568 1.496 . S
C562 C563 1.399 . S
C562 C566 1.389 . S
C563 C562 1.399 . S
C563 C565 1.380 . S
C563 H580 0.929 . S
C564 C561 1.399 . S
C564 C565 1.392 . S
C564 H581 0.929 . S
C565 C563 1.380 . S
C565 C564 1.392 . S
C565 H582 0.929 . S
C566 C561 1.383 . S
C566 C562 1.389 . S
C566 H583 0.931 . S
C567 O552 1.266 . S
C567 O553 1.248 . S
C568 Tb504 2.802 . S
C568 O548 1.264 . S
C568 O551 1.256 . S
C568 C561 1.496 . S
C569 C536 1.448 . S
C569 H546 0.930 . S
C569 C570 1.328 . S
C570 C541 1.427 . S
C570 H547 0.929 . S
C570 C569 1.328 . S
C571 O555 1.264 . S
C571 O556 1.243 . S
C572 C575 1.399 . S
C572 C576 1.383 . S
C572 C579 1.496 . S
C573 C574 1.399 . S
C573 C576 1.389 . S
C574 C573 1.399 . S
C574 C577 1.380 . S
C574 H584 0.929 . S
C575 C572 1.399 . S
C575 C577 1.392 . S
C575 H585 0.929 . S
C576 C572 1.383 . S
C576 C573 1.389 . S
C576 H586 0.931 . S
C577 C574 1.380 . S
C577 C575 1.392 . S
C577 H587 0.929 . S
C578 O558 1.266 . S
C578 O559 1.248 . S
C579 Tb515 2.802 . S
C579 O554 1.264 . S
C579 O557 1.256 . S
C579 C572 1.496 . S
H580 C563 0.929 . S
H581 C564 0.929 . S
H582 C565 0.929 . S
H583 C566 0.931 . S
H584 C574 0.929 . S
H585 C575 0.929 . S
H586 C576 0.931 . S
H587 C577 0.929 . S
Tb588 N617 2.617 . S
Tb588 N623 2.572 . S
Tb588 O632 2.465 . S
Tb588 O633 2.387 . S
Tb588 O635 2.428 . S
Tb588 O636 2.308 . S
Tb588 O640 2.349 . S
Tb588 O643 2.393 . S
Tb588 C652 2.802 . S
C589 N590 1.379 . S
C589 C592 1.416 . S
C589 C596 1.424 . S
N590 C589 1.379 . S
N590 C593 1.334 . S
N590 Tb599 2.617 . S
C591 C593 1.390 . S
C591 C594 1.339 . S
C591 H611 0.930 . S
C592 C589 1.416 . S
C592 C594 1.416 . S
C592 C598 1.448 . S
C593 N590 1.334 . S
C593 C591 1.390 . S
C593 H604 0.930 . S
C594 C591 1.339 . S
C594 C592 1.416 . S
C594 H615 0.930 . S
C595 C596 1.413 . S
C595 C597 1.427 . S
C595 C601 1.416 . S
C596 C589 1.424 . S
C596 C595 1.413 . S
C596 N600 1.361 . S
C597 C595 1.427 . S
C597 C598 1.328 . S
C597 H612 0.929 1_556 S
C598 C592 1.448 . S
C598 C597 1.328 . S
C598 H613 0.930 . S
Tb599 N590 2.617 . S
Tb599 N600 2.572 . S
Tb599 O634 2.349 . S
Tb599 O637 2.393 . S
Tb599 O638 2.465 . S
Tb599 O639 2.387 . S
Tb599 O641 2.428 . S
Tb599 O642 2.308 . S
Tb599 C663 2.802 . S
N600 C596 1.361 . S
N600 Tb599 2.572 . S
N600 C602 1.340 . S
C601 C595 1.416 . S
C601 C603 1.332 . S
C601 H609 0.931 1_556 S
C602 N600 1.340 . S
C602 C603 1.407 . S
C602 H608 0.930 . S
C603 C601 1.332 . S
C603 C602 1.407 . S
C603 H605 0.929 . S
H604 C593 0.930 . S
H605 C603 0.929 . S
H606 C621 0.930 . S
H607 C628 0.929 . S
H608 C602 0.930 . S
H609 C601 0.931 1_554 S
H610 C624 0.930 . S
H611 C591 0.930 . S
H612 C597 0.929 1_554 S
H613 C598 0.930 . S
H614 C619 0.930 . S
H615 C594 0.930 . S
H616 C627 0.931 . S
N617 Tb588 2.617 . S
N617 C618 1.379 . S
N617 C621 1.334 . S
C618 N617 1.379 . S
C618 C620 1.416 . S
C618 C626 1.424 . S
C619 H614 0.930 . S
C619 C621 1.390 . S
C619 C622 1.339 . S
C620 C618 1.416 . S
C620 C622 1.416 . S
C620 C653 1.448 . S
C621 H606 0.930 . S
C621 N617 1.334 . S
C621 C619 1.390 . S
C622 C619 1.339 . S
C622 C620 1.416 . S
C622 H629 0.930 . S
N623 Tb588 2.572 . S
N623 C624 1.340 . S
N623 C626 1.361 . S
C624 H610 0.930 . S
C624 N623 1.340 . S
C624 C628 1.407 . S
C625 C626 1.413 . S
C625 C627 1.416 . S
C625 C654 1.427 . S
C626 C618 1.424 . S
C626 N623 1.361 . S
C626 C625 1.413 . S
C627 H616 0.931 . S
C627 C625 1.416 . S
C627 C628 1.332 . S
C628 H607 0.929 . S
C628 C624 1.407 . S
C628 C627 1.332 . S
H629 C622 0.930 . S
H630 C653 0.930 . S
H631 C654 0.929 . S
O632 Tb588 2.465 . S
O632 C652 1.264 . S
O633 Tb588 2.387 . S
O633 C644 1.264 . S
O634 Tb599 2.349 . S
O634 C644 1.243 . S
O635 Tb588 2.428 . S
O635 C652 1.256 . S
O636 Tb588 2.308 . S
O636 C651 1.266 . S
O637 Tb599 2.393 . S
O637 C651 1.248 . S
O638 Tb599 2.465 . S
O638 C663 1.264 . S
O639 Tb599 2.387 . S
O639 C655 1.264 . S
O640 Tb588 2.349 . S
O640 C655 1.243 . S
O641 Tb599 2.428 . S
O641 C663 1.256 . S
O642 Tb599 2.308 . S
O642 C662 1.266 . S
O643 Tb588 2.393 . S
O643 C662 1.248 . S
C644 O633 1.264 . S
C644 O634 1.243 . S
C645 C648 1.399 . S
C645 C650 1.383 . S
C645 C652 1.496 . S
C646 C647 1.399 . S
C646 C650 1.389 . S
C647 C646 1.399 . S
C647 C649 1.380 . S
C647 H664 0.929 . S
C648 C645 1.399 . S
C648 C649 1.392 . S
C648 H665 0.929 . S
C649 C647 1.380 . S
C649 C648 1.392 . S
C649 H666 0.929 . S
C650 C645 1.383 . S
C650 C646 1.389 . S
C650 H667 0.931 . S
C651 O636 1.266 . S
C651 O637 1.248 . S
C652 Tb588 2.802 . S
C652 O632 1.264 . S
C652 O635 1.256 . S
C652 C645 1.496 . S
C653 C620 1.448 . S
C653 H630 0.930 . S
C653 C654 1.328 . S
C654 C625 1.427 . S
C654 H631 0.929 . S
C654 C653 1.328 . S
C655 O639 1.264 . S
C655 O640 1.243 . S
C656 C659 1.399 . S
C656 C660 1.383 . S
C656 C663 1.496 . S
C657 C658 1.399 . S
C657 C660 1.389 . S
C658 C657 1.399 . S
C658 C661 1.380 . S
C658 H668 0.929 . S
C659 C656 1.399 . S
C659 C661 1.392 . S
C659 H669 0.929 . S
C660 C656 1.383 . S
C660 C657 1.389 . S
C660 H670 0.931 . S
C661 C658 1.380 . S
C661 C659 1.392 . S
C661 H671 0.929 . S
C662 O642 1.266 . S
C662 O643 1.248 . S
C663 Tb599 2.802 . S
C663 O638 1.264 . S
C663 O641 1.256 . S
C663 C656 1.496 . S
H664 C647 0.929 . S
H665 C648 0.929 . S
H666 C649 0.929 . S
H667 C650 0.931 . S
H668 C658 0.929 . S
H669 C659 0.929 . S
H670 C660 0.931 . S
H671 C661 0.929 . S
Co672 O675 2.042 . S
Co672 O682 2.264 . S
Co672 O701 2.286 . S
Co672 O702 2.069 . S
Co672 O704 2.015 1_455 S
Co673 O675 2.122 . S
Co673 O681 2.073 . S
Co673 O682 2.327 . S
Co673 O683 1.976 1_455 S
Co674 O675 2.086 1_545 S
Co674 O677 2.088 1_455 S
Co674 O684 2.111 1_445 S
Co674 O685 2.144 . S
Co674 O689 2.112 . S
Co674 O703 2.143 1_445 S
O675 Co672 2.042 . S
O675 Co673 2.122 . S
O675 Co674 2.086 1_565 S
O675 H676 0.980 . S
H676 O675 0.980 . S
O677 Co674 2.088 1_655 S
O677 Co678 2.042 . S
O677 Co679 2.122 . S
O677 H680 0.980 . S
Co678 O677 2.042 . S
Co678 O686 2.286 . S
Co678 O687 2.069 . S
Co678 O688 2.015 1_655 S
Co678 O691 2.264 . S
Co679 O677 2.122 . S
Co679 O690 1.976 1_655 S
Co679 O691 2.327 . S
Co679 O692 2.073 . S
H680 O677 0.980 . S
O681 Co673 2.073 . S
O681 C696 1.245 . S
O682 Co672 2.264 . S
O682 Co673 2.327 . S
O682 C696 1.257 . S
O683 Co673 1.976 1_655 S
O683 C695 1.251 . S
O684 Co674 2.111 1_665 S
O684 C695 1.274 . S
O685 Co674 2.144 . S
O685 C698 1.246 . S
O686 Co678 2.286 . S
O686 C697 1.259 . S
O687 Co678 2.069 . S
O687 C697 1.289 . S
O688 Co678 2.015 1_455 S
O688 C698 1.257 . S
O689 Co674 2.112 . S
O689 C699 1.274 . S
O690 Co679 1.976 1_455 S
O690 C699 1.251 . S
O691 Co678 2.264 . S
O691 Co679 2.327 . S
O691 C700 1.257 . S
O692 Co679 2.073 . S
O692 C700 1.245 . S
C693 O701 1.259 . S
C693 O702 1.289 . S
C694 O703 1.246 . S
C694 O704 1.257 . S
C695 O683 1.251 . S
C695 O684 1.274 . S
C696 O681 1.245 . S
C696 O682 1.257 . S
C697 O686 1.259 . S
C697 O687 1.289 . S
C698 O685 1.246 . S
C698 O688 1.257 . S
C699 O689 1.274 . S
C699 O690 1.251 . S
C700 O691 1.257 . S
C700 O692 1.245 . S
O701 Co672 2.286 . S
O701 C693 1.259 . S
O702 Co672 2.069 . S
O702 C693 1.289 . S
O703 Co674 2.143 1_665 S
O703 C694 1.246 . S
O704 Co672 2.015 1_655 S
O704 C694 1.257 . S
Co705 O708 2.042 1_556 S
Co705 O715 2.264 1_556 S
Co705 O734 2.286 . S
Co705 O735 2.069 . S
Co705 O737 2.015 . S
Co706 O708 2.122 . S
Co706 O714 2.073 . S
Co706 O715 2.327 . S
Co706 O716 1.976 . S
Co707 O708 2.086 1_545 S
Co707 O710 2.088 1_554 S
Co707 O717 2.111 1_545 S
Co707 O718 2.144 . S
Co707 O722 2.111 1_554 S
Co707 O736 2.143 1_544 S
O708 Co705 2.042 1_554 S
O708 Co706 2.122 . S
O708 Co707 2.086 1_565 S
O708 H709 0.980 . S
H709 O708 0.980 . S
O710 Co707 2.088 1_556 S
O710 Co711 2.042 1_556 S
O710 Co712 2.122 . S
O710 H713 0.980 . S
Co711 O710 2.042 1_554 S
Co711 O719 2.286 . S
Co711 O720 2.069 . S
Co711 O721 2.015 . S
Co711 O724 2.264 1_554 S
Co712 O710 2.122 . S
Co712 O723 1.976 . S
Co712 O724 2.327 . S
Co712 O725 2.073 . S
H713 O710 0.980 . S
O714 Co706 2.073 . S
O714 C729 1.245 . S
O715 Co705 2.264 1_554 S
O715 Co706 2.327 . S
O715 C729 1.257 . S
O716 Co706 1.976 . S
O716 C728 1.251 . S
O717 Co707 2.111 1_565 S
O717 C728 1.274 . S
O718 Co707 2.144 . S
O718 C731 1.246 . S
O719 Co711 2.286 . S
O719 C730 1.259 . S
O720 Co711 2.069 . S
O720 C730 1.289 . S
O721 Co711 2.015 . S
O721 C731 1.257 . S
O722 Co707 2.111 1_556 S
O722 C732 1.274 . S
O723 Co712 1.976 . S
O723 C732 1.251 . S
O724 Co711 2.264 1_556 S
O724 Co712 2.327 . S
O724 C733 1.257 . S
O725 Co712 2.073 . S
O725 C733 1.245 . S
C726 O734 1.259 . S
C726 O735 1.289 . S
C727 O736 1.246 . S
C727 O737 1.257 . S
C728 O716 1.251 . S
C728 O717 1.274 . S
C729 O714 1.245 . S
C729 O715 1.257 . S
C730 O719 1.259 . S
C730 O720 1.289 . S
C731 O718 1.246 . S
C731 O721 1.257 . S
C732 O722 1.274 . S
C732 O723 1.251 . S
C733 O724 1.257 . S
C733 O725 1.245 . S
O734 Co705 2.286 . S
O734 C726 1.259 . S
O735 Co705 2.069 . S
O735 C726 1.289 . S
O736 Co707 2.143 1_566 S
O736 C727 1.246 . S
O737 Co705 2.015 . S
O737 C727 1.257 . S
Co738 O741 2.042 1_556 S
Co738 O748 2.264 1_556 S
Co738 O767 2.286 . S
Co738 O768 2.069 . S
Co738 O770 2.015 1_455 S
Co739 O741 2.122 . S
Co739 O747 2.073 . S
Co739 O748 2.327 . S
Co739 O749 1.976 1_455 S
Co740 O741 2.087 . S
Co740 O743 2.087 1_454 S
Co740 O750 2.111 1_455 S
Co740 O751 2.143 . S
Co740 O755 2.111 1_554 S
Co740 O769 2.143 1_454 S
O741 Co738 2.042 1_554 S
O741 Co739 2.122 . S
O741 Co740 2.087 . S
O741 H742 0.980 . S
H742 O741 0.980 . S
O743 Co740 2.087 1_656 S
O743 Co744 2.042 1_556 S
O743 Co745 2.122 . S
O743 H746 0.980 . S
Co744 O743 2.042 1_554 S
Co744 O752 2.286 . S
Co744 O753 2.069 . S
Co744 O754 2.015 1_655 S
Co744 O757 2.264 1_554 S
Co745 O743 2.122 . S
Co745 O756 1.976 1_655 S
Co745 O757 2.327 . S
Co745 O758 2.073 . S
H746 O743 0.980 . S
O747 Co739 2.073 . S
O747 C762 1.245 . S
O748 Co738 2.264 1_554 S
O748 Co739 2.327 . S
O748 C762 1.257 . S
O749 Co739 1.976 1_655 S
O749 C761 1.251 . S
O750 Co740 2.111 1_655 S
O750 C761 1.274 . S
O751 Co740 2.143 . S
O751 C764 1.246 . S
O752 Co744 2.286 . S
O752 C763 1.259 . S
O753 Co744 2.069 . S
O753 C763 1.289 . S
O754 Co744 2.015 1_455 S
O754 C764 1.257 . S
O755 Co740 2.111 1_556 S
O755 C765 1.274 . S
O756 Co745 1.976 1_455 S
O756 C765 1.251 . S
O757 Co744 2.264 1_556 S
O757 Co745 2.327 . S
O757 C766 1.257 . S
O758 Co745 2.073 . S
O758 C766 1.245 . S
C759 O767 1.259 . S
C759 O768 1.289 . S
C760 O769 1.246 . S
C760 O770 1.257 . S
C761 O749 1.251 . S
C761 O750 1.274 . S
C762 O747 1.245 . S
C762 O748 1.257 . S
C763 O752 1.259 . S
C763 O753 1.289 . S
C764 O751 1.246 . S
C764 O754 1.257 . S
C765 O755 1.274 . S
C765 O756 1.251 . S
C766 O757 1.257 . S
C766 O758 1.245 . S
O767 Co738 2.286 . S
O767 C759 1.259 . S
O768 Co738 2.069 . S
O768 C759 1.289 . S
O769 Co740 2.143 1_656 S
O769 C760 1.246 . S
O770 Co738 2.015 1_655 S
O770 C760 1.257 . S
Co771 O774 2.042 1_556 S
Co771 O781 2.264 1_556 S
Co771 O800 2.286 . S
Co771 O801 2.069 . S
Co771 O803 2.015 . S
Co772 O774 2.122 . S
Co772 O780 2.073 . S
Co772 O781 2.327 . S
Co772 O782 1.976 . S
Co773 O774 2.087 . S
Co773 O776 2.087 1_554 S
Co773 O783 2.111 . S
Co773 O784 2.143 . S
Co773 O788 2.111 1_554 S
Co773 O802 2.143 1_554 S
O774 Co771 2.042 1_554 S
O774 Co772 2.122 . S
O774 Co773 2.087 . S
O774 H775 0.980 . S
H775 O774 0.980 . S
O776 Co773 2.087 1_556 S
O776 Co777 2.042 1_556 S
O776 Co778 2.122 . S
O776 H779 0.980 . S
Co777 O776 2.042 1_554 S
Co777 O785 2.286 . S
Co777 O786 2.069 . S
Co777 O787 2.015 . S
Co777 O790 2.264 1_554 S
Co778 O776 2.122 . S
Co778 O789 1.976 . S
Co778 O790 2.327 . S
Co778 O791 2.073 . S
H779 O776 0.980 . S
O780 Co772 2.073 . S
O780 C795 1.245 . S
O781 Co771 2.264 1_554 S
O781 Co772 2.327 . S
O781 C795 1.257 . S
O782 Co772 1.976 . S
O782 C794 1.251 . S
O783 Co773 2.111 . S
O783 C794 1.274 . S
O784 Co773 2.143 . S
O784 C797 1.246 . S
O785 Co777 2.286 . S
O785 C796 1.259 . S
O786 Co777 2.069 . S
O786 C796 1.289 . S
O787 Co777 2.015 . S
O787 C797 1.257 . S
O788 Co773 2.111 1_556 S
O788 C798 1.274 . S
O789 Co778 1.976 . S
O789 C798 1.251 . S
O790 Co777 2.264 1_556 S
O790 Co778 2.327 . S
O790 C799 1.257 . S
O791 Co778 2.073 . S
O791 C799 1.245 . S
C792 O800 1.259 . S
C792 O801 1.289 . S
C793 O802 1.246 . S
C793 O803 1.257 . S
C794 O782 1.251 . S
C794 O783 1.274 . S
C795 O780 1.245 . S
C795 O781 1.257 . S
C796 O785 1.259 . S
C796 O786 1.289 . S
C797 O784 1.246 . S
C797 O787 1.257 . S
C798 O788 1.274 . S
C798 O789 1.251 . S
C799 O790 1.257 . S
C799 O791 1.245 . S
O800 Co771 2.286 . S
O800 C792 1.259 . S
O801 Co771 2.069 . S
O801 C792 1.289 . S
O802 Co773 2.143 1_556 S
O802 C793 1.246 . S
O803 Co771 2.015 . S
O803 C793 1.257 . S
Co804 O807 2.042 . S
Co804 O814 2.264 . S
Co804 O833 2.286 . S
Co804 O834 2.069 . S
Co804 O836 2.015 . S
Co805 O807 2.122 . S
Co805 O813 2.073 . S
Co805 O814 2.327 . S
Co805 O815 1.976 . S
Co806 O807 2.087 . S
Co806 O809 2.087 1_455 S
Co806 O816 2.111 . S
Co806 O817 2.143 1_455 S
Co806 O821 2.111 1_455 S
Co806 O835 2.143 . S
O807 Co804 2.042 . S
O807 Co805 2.122 . S
O807 Co806 2.087 . S
O807 H808 0.980 . S
H808 O807 0.980 . S
O809 Co806 2.087 1_655 S
O809 Co810 2.042 . S
O809 Co811 2.122 . S
O809 H812 0.980 . S
Co810 O809 2.042 . S
Co810 O818 2.286 . S
Co810 O819 2.069 . S
Co810 O820 2.015 . S
Co810 O823 2.264 . S
Co811 O809 2.122 . S
Co811 O822 1.976 . S
Co811 O823 2.327 . S
Co811 O824 2.073 . S
H812 O809 0.980 . S
O813 Co805 2.073 . S
O813 C828 1.245 . S
O814 Co804 2.264 . S
O814 Co805 2.327 . S
O814 C828 1.257 . S
O815 Co805 1.976 . S
O815 C827 1.251 . S
O816 Co806 2.111 . S
O816 C827 1.274 . S
O817 Co806 2.143 1_655 S
O817 C830 1.246 . S
O818 Co810 2.286 . S
O818 C829 1.259 . S
O819 Co810 2.069 . S
O819 C829 1.289 . S
O820 Co810 2.015 . S
O820 C830 1.257 . S
O821 Co806 2.111 1_655 S
O821 C831 1.274 . S
O822 Co811 1.976 . S
O822 C831 1.251 . S
O823 Co810 2.264 . S
O823 Co811 2.327 . S
O823 C832 1.257 . S
O824 Co811 2.073 . S
O824 C832 1.245 . S
C825 O833 1.259 . S
C825 O834 1.289 . S
C826 O835 1.246 . S
C826 O836 1.257 . S
C827 O815 1.251 . S
C827 O816 1.274 . S
C828 O813 1.245 . S
C828 O814 1.257 . S
C829 O818 1.259 . S
C829 O819 1.289 . S
C830 O817 1.246 . S
C830 O820 1.257 . S
C831 O821 1.274 . S
C831 O822 1.251 . S
C832 O823 1.257 . S
C832 O824 1.245 . S
O833 Co804 2.286 . S
O833 C825 1.259 . S
O834 Co804 2.069 . S
O834 C825 1.289 . S
O835 Co806 2.143 . S
O835 C826 1.246 . S
O836 Co804 2.015 . S
O836 C826 1.257 . S
Co837 O840 2.042 . S
Co837 O847 2.264 . S
Co837 O866 2.286 . S
Co837 O867 2.069 . S
Co837 O869 2.015 1_565 S
Co838 O840 2.122 . S
Co838 O846 2.073 . S
Co838 O847 2.327 . S
Co838 O848 1.976 1_565 S
Co839 O840 2.086 1_545 S
Co839 O842 2.088 . S
Co839 O849 2.112 . S
Co839 O850 2.143 1_545 S
Co839 O854 2.111 1_545 S
Co839 O868 2.144 . S
O840 Co837 2.042 . S
O840 Co838 2.122 . S
O840 Co839 2.086 1_565 S
O840 H841 0.980 . S
H841 O840 0.980 . S
O842 Co839 2.088 . S
O842 Co843 2.042 . S
O842 Co844 2.122 . S
O842 H845 0.980 . S
Co843 O842 2.042 . S
Co843 O851 2.286 . S
Co843 O852 2.069 . S
Co843 O853 2.015 1_545 S
Co843 O856 2.264 . S
Co844 O842 2.122 . S
Co844 O855 1.976 1_545 S
Co844 O856 2.327 . S
Co844 O857 2.073 . S
H845 O842 0.980 . S
O846 Co838 2.073 . S
O846 C861 1.245 . S
O847 Co837 2.264 . S
O847 Co838 2.327 . S
O847 C861 1.257 . S
O848 Co838 1.976 1_545 S
O848 C860 1.251 . S
O849 Co839 2.112 . S
O849 C860 1.274 . S
O850 Co839 2.143 1_565 S
O850 C863 1.246 . S
O851 Co843 2.286 . S
O851 C862 1.259 . S
O852 Co843 2.069 . S
O852 C862 1.289 . S
O853 Co843 2.015 1_565 S
O853 C863 1.257 . S
O854 Co839 2.111 1_565 S
O854 C864 1.274 . S
O855 Co844 1.976 1_565 S
O855 C864 1.251 . S
O856 Co843 2.264 . S
O856 Co844 2.327 . S
O856 C865 1.257 . S
O857 Co844 2.073 . S
O857 C865 1.245 . S
C858 O866 1.259 . S
C858 O867 1.289 . S
C859 O868 1.246 . S
C859 O869 1.257 . S
C860 O848 1.251 . S
C860 O849 1.274 . S
C861 O846 1.245 . S
C861 O847 1.257 . S
C862 O851 1.259 . S
C862 O852 1.289 . S
C863 O850 1.246 . S
C863 O853 1.257 . S
C864 O854 1.274 . S
C864 O855 1.251 . S
C865 O856 1.257 . S
C865 O857 1.245 . S
O866 Co837 2.286 . S
O866 C858 1.259 . S
O867 Co837 2.069 . S
O867 C858 1.289 . S
O868 Co839 2.144 . S
O868 C859 1.246 . S
O869 Co837 2.015 1_545 S
O869 C859 1.257 . S
C870 C871 1.387 . S
C870 H874 0.950 . S
C870 C879 1.390 . S
C871 C870 1.387 . S
C871 C873 1.387 . S
H872 C879 0.950 . S
C873 C871 1.387 . S
C873 C875 1.390 . S
C873 H877 0.950 . S
H874 C870 0.950 . S
C875 C873 1.390 . S
C875 C876 1.387 . S
C875 H878 0.950 . S
C876 C875 1.387 . S
C876 C879 1.387 . S
H877 C873 0.950 . S
H878 C875 0.950 . S
C879 C870 1.390 . S
C879 H872 0.950 . S
C879 C876 1.387 . S
C880 C881 1.387 . S
C880 H884 0.950 . S
C880 C889 1.390 . S
C881 C880 1.387 . S
C881 C883 1.387 . S
H882 C889 0.950 . S
C883 C881 1.387 . S
C883 C885 1.390 . S
C883 H887 0.950 . S
H884 C880 0.950 . S
C885 C883 1.390 . S
C885 C886 1.387 . S
C885 H888 0.950 . S
C886 C885 1.387 . S
C886 C889 1.387 . S
H887 C883 0.950 . S
H888 C885 0.950 . S
C889 C880 1.390 . S
C889 H882 0.950 . S
C889 C886 1.387 . S
C890 C891 1.387 . S
C890 H894 0.950 . S
C890 C899 1.390 . S
C891 C890 1.387 . S
C891 C893 1.387 . S
H892 C899 0.950 . S
C893 C891 1.387 . S
C893 C895 1.390 . S
C893 H897 0.950 . S
H894 C890 0.950 . S
C895 C893 1.390 . S
C895 C896 1.387 . S
C895 H898 0.950 . S
C896 C895 1.387 . S
C896 C899 1.387 . S
H897 C893 0.950 . S
H898 C895 0.950 . S
C899 C890 1.390 . S
C899 H892 0.950 . S
C899 C896 1.387 . S
C900 C901 1.387 . S
C900 H904 0.950 . S
C900 C909 1.390 . S
C901 C900 1.387 . S
C901 C903 1.387 . S
H902 C909 0.950 . S
C903 C901 1.387 . S
C903 C905 1.390 . S
C903 H907 0.950 . S
H904 C900 0.950 . S
C905 C903 1.390 . S
C905 C906 1.387 . S
C905 H908 0.950 . S
C906 C905 1.387 . S
C906 C909 1.387 . S
H907 C903 0.950 . S
H908 C905 0.950 . S
C909 C900 1.390 . S
C909 H902 0.950 . S
C909 C906 1.387 . S
C910 C911 1.387 . S
C910 H914 0.950 . S
C910 C919 1.390 . S
C911 C910 1.387 . S
C911 C913 1.387 . S
H912 C919 0.950 . S
C913 C911 1.387 . S
C913 C915 1.390 . S
C913 H917 0.950 . S
H914 C910 0.950 . S
C915 C913 1.390 . S
C915 C916 1.387 . S
C915 H918 0.950 . S
C916 C915 1.387 . S
C916 C919 1.387 . S
H917 C913 0.950 . S
H918 C915 0.950 . S
C919 C910 1.390 . S
C919 H912 0.950 . S
C919 C916 1.387 . S
C920 C921 1.387 . S
C920 H924 0.950 . S
C920 C929 1.390 . S
C921 C920 1.387 . S
C921 C923 1.387 . S
H922 C929 0.950 . S
C923 C921 1.387 . S
C923 C925 1.390 . S
C923 H927 0.950 . S
H924 C920 0.950 . S
C925 C923 1.390 . S
C925 C926 1.387 . S
C925 H928 0.950 . S
C926 C925 1.387 . S
C926 C929 1.387 . S
H927 C923 0.950 . S
H928 C925 0.950 . S
C929 C920 1.390 . S
C929 H922 0.950 . S
C929 C926 1.387 . S
C930 C931 1.387 . S
C930 H934 0.950 . S
C930 C939 1.390 . S
C931 C930 1.387 . S
C931 C933 1.387 . S
H932 C939 0.950 . S
C933 C931 1.387 . S
C933 C935 1.390 . S
C933 H937 0.950 . S
H934 C930 0.950 . S
C935 C933 1.390 . S
C935 C936 1.387 . S
C935 H938 0.950 . S
C936 C935 1.387 . S
C936 C939 1.387 . S
H937 C933 0.950 . S
H938 C935 0.950 . S
C939 C930 1.390 . S
C939 H932 0.950 . S
C939 C936 1.387 . S
C940 C941 1.387 . S
C940 H944 0.950 . S
C940 C949 1.390 . S
C941 C940 1.387 . S
C941 C943 1.387 . S
H942 C949 0.950 . S
C943 C941 1.387 . S
C943 C945 1.390 . S
C943 H947 0.950 . S
H944 C940 0.950 . S
C945 C943 1.390 . S
C945 C946 1.387 . S
C945 H948 0.950 . S
C946 C945 1.387 . S
C946 C949 1.387 . S
H947 C943 0.950 . S
H948 C945 0.950 . S
C949 C940 1.390 . S
C949 H942 0.950 . S
C949 C946 1.387 . S
C950 C951 1.387 . S
C950 H954 0.950 . S
C950 C959 1.390 . S
C951 C950 1.387 . S
C951 C953 1.387 . S
H952 C959 0.950 . S
C953 C951 1.387 . S
C953 C955 1.390 . S
C953 H957 0.950 . S
H954 C950 0.950 . S
C955 C953 1.390 . S
C955 C956 1.387 . S
C955 H958 0.950 . S
C956 C955 1.387 . S
C956 C959 1.387 . S
H957 C953 0.950 . S
H958 C955 0.950 . S
C959 C950 1.390 . S
C959 H952 0.950 . S
C959 C956 1.387 . S
C960 C961 1.387 . S
C960 H964 0.950 . S
C960 C969 1.390 . S
C961 C960 1.387 . S
C961 C963 1.387 . S
H962 C969 0.950 . S
C963 C961 1.387 . S
C963 C965 1.390 . S
C963 H967 0.950 . S
H964 C960 0.950 . S
C965 C963 1.390 . S
C965 C966 1.387 . S
C965 H968 0.950 . S
C966 C965 1.387 . S
C966 C969 1.387 . S
H967 C963 0.950 . S
H968 C965 0.950 . S
C969 C960 1.390 . S
C969 H962 0.950 . S
C969 C966 1.387 . S
C970 C971 1.387 . S
C970 H974 0.950 . S
C970 C979 1.390 . S
C971 C970 1.387 . S
C971 C973 1.387 . S
H972 C979 0.950 . S
C973 C971 1.387 . S
C973 C975 1.390 . S
C973 H977 0.950 1_554 S
H974 C970 0.950 . S
C975 C973 1.390 . S
C975 C976 1.387 . S
C975 H978 0.950 1_554 S
C976 C975 1.387 . S
C976 C979 1.387 . S
H977 C973 0.950 1_556 S
H978 C975 0.950 1_556 S
C979 C970 1.390 . S
C979 H972 0.950 . S
C979 C976 1.387 . S
C980 C981 1.387 . S
C980 H984 0.950 . S
C980 C989 1.390 . S
C981 C980 1.387 . S
C981 C983 1.387 . S
H982 C989 0.950 . S
C983 C981 1.387 . S
C983 C985 1.390 . S
C983 H987 0.950 . S
H984 C980 0.950 . S
C985 C983 1.390 . S
C985 C986 1.387 . S
C985 H988 0.950 . S
C986 C985 1.387 . S
C986 C989 1.387 . S
H987 C983 0.950 . S
H988 C985 0.950 . S
C989 C980 1.390 . S
C989 H982 0.950 . S
C989 C986 1.387 . S
C990 C991 1.387 . S
C990 H994 0.950 . S
C990 C999 1.390 . S
C991 C990 1.387 . S
C991 C993 1.387 . S
H992 C999 0.950 . S
C993 C991 1.387 . S
C993 C995 1.390 . S
C993 H997 0.950 . S
H994 C990 0.950 . S
C995 C993 1.390 . S
C995 C996 1.387 . S
C995 H998 0.950 . S
C996 C995 1.387 . S
C996 C999 1.387 . S
H997 C993 0.950 . S
H998 C995 0.950 . S
C999 C990 1.390 . S
C999 H992 0.950 . S
C999 C996 1.387 . S
C1000 C1001 1.387 . S
C1000 H1004 0.950 . S
C1000 C1009 1.390 . S
C1001 C1000 1.387 . S
C1001 C1003 1.387 . S
H1002 C1009 0.950 . S
C1003 C1001 1.387 . S
C1003 C1005 1.390 . S
C1003 H1007 0.950 . S
H1004 C1000 0.950 . S
C1005 C1003 1.390 . S
C1005 C1006 1.387 . S
C1005 H1008 0.950 . S
C1006 C1005 1.387 . S
C1006 C1009 1.387 . S
H1007 C1003 0.950 . S
H1008 C1005 0.950 . S
C1009 C1000 1.390 . S
C1009 H1002 0.950 . S
C1009 C1006 1.387 . S
C1010 C1011 1.387 . S
C1010 H1014 0.950 . S
C1010 C1019 1.390 . S
C1011 C1010 1.387 . S
C1011 C1013 1.387 . S
H1012 C1019 0.950 . S
C1013 C1011 1.387 . S
C1013 C1015 1.390 . S
C1013 H1017 0.950 . S
H1014 C1010 0.950 . S
C1015 C1013 1.390 . S
C1015 C1016 1.387 . S
C1015 H1018 0.950 . S
C1016 C1015 1.387 . S
C1016 C1019 1.387 . S
H1017 C1013 0.950 . S
H1018 C1015 0.950 . S
C1019 C1010 1.390 . S
C1019 H1012 0.950 . S
C1019 C1016 1.387 . S
C1020 C1021 1.387 . S
C1020 H1024 0.950 . S
C1020 C1029 1.390 . S
C1021 C1020 1.387 . S
C1021 C1023 1.387 . S
H1022 C1029 0.950 . S
C1023 C1021 1.387 . S
C1023 C1025 1.390 . S
C1023 H1027 0.950 1_556 S
H1024 C1020 0.950 . S
C1025 C1023 1.390 . S
C1025 C1026 1.387 . S
C1025 H1028 0.950 1_556 S
C1026 C1025 1.387 . S
C1026 C1029 1.387 . S
H1027 C1023 0.950 1_554 S
H1028 C1025 0.950 1_554 S
C1029 C1020 1.390 . S
C1029 H1022 0.950 . S
C1029 C1026 1.387 . S
C1030 C1031 1.387 . S
C1030 H1034 0.950 . S
C1030 C1039 1.390 . S
C1031 C1030 1.387 . S
C1031 C1033 1.387 . S
H1032 C1039 0.950 . S
C1033 C1031 1.387 . S
C1033 C1035 1.390 . S
C1033 H1037 0.950 1_554 S
H1034 C1030 0.950 . S
C1035 C1033 1.390 . S
C1035 C1036 1.387 . S
C1035 H1038 0.950 1_554 S
C1036 C1035 1.387 . S
C1036 C1039 1.387 . S
H1037 C1033 0.950 1_556 S
H1038 C1035 0.950 1_556 S
C1039 C1030 1.390 . S
C1039 H1032 0.950 . S
C1039 C1036 1.387 . S
C1040 C1041 1.387 . S
C1040 H1044 0.950 . S
C1040 C1049 1.390 . S
C1041 C1040 1.387 . S
C1041 C1043 1.387 . S
H1042 C1049 0.950 . S
C1043 C1041 1.387 . S
C1043 C1045 1.390 . S
C1043 H1047 0.950 . S
H1044 C1040 0.950 . S
C1045 C1043 1.390 . S
C1045 C1046 1.387 . S
C1045 H1048 0.950 . S
C1046 C1045 1.387 . S
C1046 C1049 1.387 . S
H1047 C1043 0.950 . S
H1048 C1045 0.950 . S
C1049 C1040 1.390 . S
C1049 H1042 0.950 . S
C1049 C1046 1.387 . S
C1050 C1051 1.387 . S
C1050 H1054 0.950 . S
C1050 C1059 1.390 . S
C1051 C1050 1.387 . S
C1051 C1053 1.387 . S
H1052 C1059 0.950 . S
C1053 C1051 1.387 . S
C1053 C1055 1.390 . S
C1053 H1057 0.950 1_556 S
H1054 C1050 0.950 . S
C1055 C1053 1.390 . S
C1055 C1056 1.387 . S
C1055 H1058 0.950 1_556 S
C1056 C1055 1.387 . S
C1056 C1059 1.387 . S
H1057 C1053 0.950 1_554 S
H1058 C1055 0.950 1_554 S
C1059 C1050 1.390 . S
C1059 H1052 0.950 . S
C1059 C1056 1.387 . S
C1060 C1061 1.387 . S
C1060 H1064 0.950 . S
C1060 C1069 1.390 . S
C1061 C1060 1.387 . S
C1061 C1063 1.387 . S
H1062 C1069 0.950 . S
C1063 C1061 1.387 . S
C1063 C1065 1.390 . S
C1063 H1067 0.950 . S
H1064 C1060 0.950 . S
C1065 C1063 1.390 . S
C1065 C1066 1.387 . S
C1065 H1068 0.950 . S
C1066 C1065 1.387 . S
C1066 C1069 1.387 . S
H1067 C1063 0.950 . S
H1068 C1065 0.950 . S
C1069 C1060 1.390 . S
C1069 H1062 0.950 . S
C1069 C1066 1.387 . S
C1070 C1071 1.387 . S
C1070 H1074 0.950 . S
C1070 C1079 1.390 . S
C1071 C1070 1.387 . S
C1071 C1073 1.387 . S
H1072 C1079 0.950 . S
C1073 C1071 1.387 . S
C1073 C1075 1.390 . S
C1073 H1077 0.950 . S
H1074 C1070 0.950 . S
C1075 C1073 1.390 . S
C1075 C1076 1.387 . S
C1075 H1078 0.950 . S
C1076 C1075 1.387 . S
C1076 C1079 1.387 . S
H1077 C1073 0.950 . S
H1078 C1075 0.950 . S
C1079 C1070 1.390 . S
C1079 H1072 0.950 . S
C1079 C1076 1.387 . S
C1080 C1081 1.387 . S
C1080 H1084 0.950 . S
C1080 C1089 1.390 . S
C1081 C1080 1.387 . S
C1081 C1083 1.387 . S
H1082 C1089 0.950 . S
C1083 C1081 1.387 . S
C1083 C1085 1.390 . S
C1083 H1087 0.950 . S
H1084 C1080 0.950 . S
C1085 C1083 1.390 . S
C1085 C1086 1.387 . S
C1085 H1088 0.950 . S
C1086 C1085 1.387 . S
C1086 C1089 1.387 . S
H1087 C1083 0.950 . S
H1088 C1085 0.950 . S
C1089 C1080 1.390 . S
C1089 H1082 0.950 . S
C1089 C1086 1.387 . S
C1090 C1091 1.387 . S
C1090 H1094 0.950 . S
C1090 C1099 1.390 . S
C1091 C1090 1.387 . S
C1091 C1093 1.387 . S
H1092 C1099 0.950 . S
C1093 C1091 1.387 . S
C1093 C1095 1.390 . S
C1093 H1097 0.950 . S
H1094 C1090 0.950 . S
C1095 C1093 1.390 . S
C1095 C1096 1.387 . S
C1095 H1098 0.950 . S
C1096 C1095 1.387 . S
C1096 C1099 1.387 . S
H1097 C1093 0.950 . S
H1098 C1095 0.950 . S
C1099 C1090 1.390 . S
C1099 H1092 0.950 . S
C1099 C1096 1.387 . S
C1100 C1101 1.387 . S
C1100 H1104 0.950 . S
C1100 C1109 1.390 . S
C1101 C1100 1.387 . S
C1101 C1103 1.387 . S
H1102 C1109 0.950 . S
C1103 C1101 1.387 . S
C1103 C1105 1.390 . S
C1103 H1107 0.950 . S
H1104 C1100 0.950 . S
C1105 C1103 1.390 . S
C1105 C1106 1.387 . S
C1105 H1108 0.950 . S
C1106 C1105 1.387 . S
C1106 C1109 1.387 . S
H1107 C1103 0.950 . S
H1108 C1105 0.950 . S
C1109 C1100 1.390 . S
C1109 H1102 0.950 . S
C1109 C1106 1.387 . S
C1110 C1111 1.387 . S
C1110 H1114 0.950 . S
C1110 C1119 1.390 . S
C1111 C1110 1.387 . S
C1111 C1113 1.387 . S
H1112 C1119 0.950 . S
C1113 C1111 1.387 . S
C1113 C1115 1.390 . S
C1113 H1117 0.950 . S
H1114 C1110 0.950 . S
C1115 C1113 1.390 . S
C1115 C1116 1.387 . S
C1115 H1118 0.950 . S
C1116 C1115 1.387 . S
C1116 C1119 1.387 . S
H1117 C1113 0.950 . S
H1118 C1115 0.950 . S
C1119 C1110 1.390 . S
C1119 H1112 0.950 . S
C1119 C1116 1.387 . S
C1120 C1121 1.387 . S
C1120 H1124 0.950 . S
C1120 C1129 1.390 . S
C1121 C1120 1.387 . S
C1121 C1123 1.387 . S
H1122 C1129 0.950 . S
C1123 C1121 1.387 . S
C1123 C1125 1.390 . S
C1123 H1127 0.950 . S
H1124 C1120 0.950 . S
C1125 C1123 1.390 . S
C1125 C1126 1.387 . S
C1125 H1128 0.950 . S
C1126 C1125 1.387 . S
C1126 C1129 1.387 . S
H1127 C1123 0.950 . S
H1128 C1125 0.950 . S
C1129 C1120 1.390 . S
C1129 H1122 0.950 . S
C1129 C1126 1.387 . S
C1130 C1131 1.387 . S
C1130 H1134 0.950 . S
C1130 C1139 1.390 . S
C1131 C1130 1.387 . S
C1131 C1133 1.387 . S
H1132 C1139 0.950 . S
C1133 C1131 1.387 . S
C1133 C1135 1.390 . S
C1133 H1137 0.950 . S
H1134 C1130 0.950 . S
C1135 C1133 1.390 . S
C1135 C1136 1.387 . S
C1135 H1138 0.950 . S
C1136 C1135 1.387 . S
C1136 C1139 1.387 . S
H1137 C1133 0.950 . S
H1138 C1135 0.950 . S
C1139 C1130 1.390 . S
C1139 H1132 0.950 . S
C1139 C1136 1.387 . S
C1140 C1141 1.387 . S
C1140 H1144 0.950 . S
C1140 C1149 1.390 . S
C1141 C1140 1.387 . S
C1141 C1143 1.387 . S
H1142 C1149 0.950 . S
C1143 C1141 1.387 . S
C1143 C1145 1.390 . S
C1143 H1147 0.950 1_556 S
H1144 C1140 0.950 . S
C1145 C1143 1.390 . S
C1145 C1146 1.387 . S
C1145 H1148 0.950 . S
C1146 C1145 1.387 . S
C1146 C1149 1.387 . S
H1147 C1143 0.950 1_554 S
H1148 C1145 0.950 . S
C1149 C1140 1.390 . S
C1149 H1142 0.950 . S
C1149 C1146 1.387 . S
C1150 C1151 1.387 . S
C1150 H1154 0.950 . S
C1150 C1159 1.390 . S
C1151 C1150 1.387 . S
C1151 C1153 1.387 . S
H1152 C1159 0.950 . S
C1153 C1151 1.387 . S
C1153 C1155 1.390 . S
C1153 H1157 0.950 . S
H1154 C1150 0.950 . S
C1155 C1153 1.390 . S
C1155 C1156 1.387 . S
C1155 H1158 0.950 . S
C1156 C1155 1.387 . S
C1156 C1159 1.387 . S
H1157 C1153 0.950 . S
H1158 C1155 0.950 . S
C1159 C1150 1.390 . S
C1159 H1152 0.950 . S
C1159 C1156 1.387 . S
C1160 C1161 1.387 . S
C1160 H1164 0.950 . S
C1160 C1169 1.390 . S
C1161 C1160 1.387 . S
C1161 C1163 1.387 . S
H1162 C1169 0.950 . S
C1163 C1161 1.387 . S
C1163 C1165 1.390 . S
C1163 H1167 0.950 . S
H1164 C1160 0.950 . S
C1165 C1163 1.390 . S
C1165 C1166 1.387 . S
C1165 H1168 0.950 . S
C1166 C1165 1.387 . S
C1166 C1169 1.387 . S
H1167 C1163 0.950 . S
H1168 C1165 0.950 . S
C1169 C1160 1.390 . S
C1169 H1162 0.950 . S
C1169 C1166 1.387 . S
C1170 C1171 1.387 . S
C1170 H1174 0.950 1_554 S
C1170 C1179 1.390 . S
C1171 C1170 1.387 . S
C1171 C1173 1.387 . S
H1172 C1179 0.950 . S
C1173 C1171 1.387 . S
C1173 C1175 1.390 . S
C1173 H1177 0.950 . S
H1174 C1170 0.950 1_556 S
C1175 C1173 1.390 . S
C1175 C1176 1.387 . S
C1175 H1178 0.950 . S
C1176 C1175 1.387 . S
C1176 C1179 1.387 . S
H1177 C1173 0.950 . S
H1178 C1175 0.950 . S
C1179 C1170 1.390 . S
C1179 H1172 0.950 . S
C1179 C1176 1.387 . S
C1180 C1181 1.387 . S
C1180 H1184 0.950 . S
C1180 C1189 1.390 . S
C1181 C1180 1.387 . S
C1181 C1183 1.387 . S
H1182 C1189 0.950 . S
C1183 C1181 1.387 . S
C1183 C1185 1.390 . S
C1183 H1187 0.950 . S
H1184 C1180 0.950 . S
C1185 C1183 1.390 . S
C1185 C1186 1.387 . S
C1185 H1188 0.950 . S
C1186 C1185 1.387 . S
C1186 C1189 1.387 . S
H1187 C1183 0.950 . S
H1188 C1185 0.950 . S
C1189 C1180 1.390 . S
C1189 H1182 0.950 . S
C1189 C1186 1.387 . S
C1190 C1191 1.387 . S
C1190 H1194 0.950 . S
C1190 C1199 1.390 . S
C1191 C1190 1.387 . S
C1191 C1193 1.387 . S
H1192 C1199 0.950 . S
C1193 C1191 1.387 . S
C1193 C1195 1.390 . S
C1193 H1197 0.950 . S
H1194 C1190 0.950 . S
C1195 C1193 1.390 . S
C1195 C1196 1.387 . S
C1195 H1198 0.950 . S
C1196 C1195 1.387 . S
C1196 C1199 1.387 . S
H1197 C1193 0.950 . S
H1198 C1195 0.950 . S
C1199 C1190 1.390 . S
C1199 H1192 0.950 . S
C1199 C1196 1.387 . S
C1200 C1201 1.387 . S
C1200 H1204 0.950 . S
C1200 C1209 1.390 . S
C1201 C1200 1.387 . S
C1201 C1203 1.387 . S
H1202 C1209 0.950 . S
C1203 C1201 1.387 . S
C1203 C1205 1.390 . S
C1203 H1207 0.950 . S
H1204 C1200 0.950 . S
C1205 C1203 1.390 . S
C1205 C1206 1.387 . S
C1205 H1208 0.950 . S
C1206 C1205 1.387 . S
C1206 C1209 1.387 . S
H1207 C1203 0.950 . S
H1208 C1205 0.950 . S
C1209 C1200 1.390 . S
C1209 H1202 0.950 . S
C1209 C1206 1.387 . S
C1210 C1211 1.387 . S
C1210 H1214 0.950 . S
C1210 C1219 1.390 . S
C1211 C1210 1.387 . S
C1211 C1213 1.387 . S
H1212 C1219 0.950 . S
C1213 C1211 1.387 . S
C1213 C1215 1.390 . S
C1213 H1217 0.950 . S
H1214 C1210 0.950 . S
C1215 C1213 1.390 . S
C1215 C1216 1.387 . S
C1215 H1218 0.950 . S
C1216 C1215 1.387 . S
C1216 C1219 1.387 . S
H1217 C1213 0.950 . S
H1218 C1215 0.950 . S
C1219 C1210 1.390 . S
C1219 H1212 0.950 . S
C1219 C1216 1.387 . S
C1220 C1221 1.387 . S
C1220 H1224 0.950 . S
C1220 C1229 1.390 . S
C1221 C1220 1.387 . S
C1221 C1223 1.387 . S
H1222 C1229 0.950 . S
C1223 C1221 1.387 . S
C1223 C1225 1.390 . S
C1223 H1227 0.950 . S
H1224 C1220 0.950 . S
C1225 C1223 1.390 . S
C1225 C1226 1.387 . S
C1225 H1228 0.950 . S
C1226 C1225 1.387 . S
C1226 C1229 1.387 . S
H1227 C1223 0.950 . S
H1228 C1225 0.950 . S
C1229 C1220 1.390 . S
C1229 H1222 0.950 . S
C1229 C1226 1.387 . S
C1230 C1231 1.387 . S
C1230 H1234 0.950 . S
C1230 C1239 1.390 . S
C1231 C1230 1.387 . S
C1231 C1233 1.387 . S
H1232 C1239 0.950 . S
C1233 C1231 1.387 . S
C1233 C1235 1.390 . S
C1233 H1237 0.950 . S
H1234 C1230 0.950 . S
C1235 C1233 1.390 . S
C1235 C1236 1.387 . S
C1235 H1238 0.950 . S
C1236 C1235 1.387 . S
C1236 C1239 1.387 . S
H1237 C1233 0.950 . S
H1238 C1235 0.950 . S
C1239 C1230 1.390 . S
C1239 H1232 0.950 . S
C1239 C1236 1.387 . S
C1240 C1241 1.387 . S
C1240 H1244 0.950 . S
C1240 C1249 1.390 . S
C1241 C1240 1.387 . S
C1241 C1243 1.387 . S
H1242 C1249 0.950 . S
C1243 C1241 1.387 . S
C1243 C1245 1.390 . S
C1243 H1247 0.950 . S
H1244 C1240 0.950 . S
C1245 C1243 1.390 . S
C1245 C1246 1.387 . S
C1245 H1248 0.950 . S
C1246 C1245 1.387 . S
C1246 C1249 1.387 . S
H1247 C1243 0.950 . S
H1248 C1245 0.950 . S
C1249 C1240 1.390 . S
C1249 H1242 0.950 . S
C1249 C1246 1.387 . S
C1250 C1251 1.387 . S
C1250 H1254 0.950 . S
C1250 C1259 1.390 . S
C1251 C1250 1.387 . S
C1251 C1253 1.387 . S
H1252 C1259 0.950 . S
C1253 C1251 1.387 . S
C1253 C1255 1.390 . S
C1253 H1257 0.950 . S
H1254 C1250 0.950 . S
C1255 C1253 1.390 . S
C1255 C1256 1.387 . S
C1255 H1258 0.950 . S
C1256 C1255 1.387 . S
C1256 C1259 1.387 . S
H1257 C1253 0.950 . S
H1258 C1255 0.950 . S
C1259 C1250 1.390 . S
C1259 H1252 0.950 . S
C1259 C1256 1.387 . S
C1260 C1261 1.387 . S
C1260 H1264 0.950 . S
C1260 C1269 1.390 . S
C1261 C1260 1.387 . S
C1261 C1263 1.387 . S
H1262 C1269 0.950 . S
C1263 C1261 1.387 . S
C1263 C1265 1.390 . S
C1263 H1267 0.950 . S
H1264 C1260 0.950 . S
C1265 C1263 1.390 . S
C1265 C1266 1.387 . S
C1265 H1268 0.950 . S
C1266 C1265 1.387 . S
C1266 C1269 1.387 . S
H1267 C1263 0.950 . S
H1268 C1265 0.950 . S
C1269 C1260 1.390 . S
C1269 H1262 0.950 . S
C1269 C1266 1.387 . S
C1270 C1271 1.387 . S
C1270 H1274 0.950 . S
C1270 C1279 1.390 . S
C1271 C1270 1.387 . S
C1271 C1273 1.387 . S
H1272 C1279 0.950 . S
C1273 C1271 1.387 . S
C1273 C1275 1.390 . S
C1273 H1277 0.950 . S
H1274 C1270 0.950 . S
C1275 C1273 1.390 . S
C1275 C1276 1.387 . S
C1275 H1278 0.950 . S
C1276 C1275 1.387 . S
C1276 C1279 1.387 . S
H1277 C1273 0.950 . S
H1278 C1275 0.950 . S
C1279 C1270 1.390 . S
C1279 H1272 0.950 . S
C1279 C1276 1.387 . S
C1280 C1281 1.387 . S
C1280 H1284 0.950 . S
C1280 C1289 1.390 . S
C1281 C1280 1.387 . S
C1281 C1283 1.387 . S
H1282 C1289 0.950 . S
C1283 C1281 1.387 . S
C1283 C1285 1.390 . S
C1283 H1287 0.950 . S
H1284 C1280 0.950 . S
C1285 C1283 1.390 . S
C1285 C1286 1.387 . S
C1285 H1288 0.950 . S
C1286 C1285 1.387 . S
C1286 C1289 1.387 . S
H1287 C1283 0.950 . S
H1288 C1285 0.950 . S
C1289 C1280 1.390 . S
C1289 H1282 0.950 . S
C1289 C1286 1.387 . S
C1290 C1291 1.387 . S
C1290 H1294 0.950 . S
C1290 C1299 1.390 . S
C1291 C1290 1.387 . S
C1291 C1293 1.387 . S
H1292 C1299 0.950 . S
C1293 C1291 1.387 . S
C1293 C1295 1.390 . S
C1293 H1297 0.950 . S
H1294 C1290 0.950 . S
C1295 C1293 1.390 . S
C1295 C1296 1.387 . S
C1295 H1298 0.950 . S
C1296 C1295 1.387 . S
C1296 C1299 1.387 . S
H1297 C1293 0.950 . S
H1298 C1295 0.950 . S
C1299 C1290 1.390 . S
C1299 H1292 0.950 . S
C1299 C1296 1.387 . S
C1300 C1301 1.387 . S
C1300 H1304 0.950 . S
C1300 C1309 1.390 . S
C1301 C1300 1.387 . S
C1301 C1303 1.387 . S
H1302 C1309 0.950 . S
C1303 C1301 1.387 . S
C1303 C1305 1.390 . S
C1303 H1307 0.950 . S
H1304 C1300 0.950 . S
C1305 C1303 1.390 . S
C1305 C1306 1.387 . S
C1305 H1308 0.950 . S
C1306 C1305 1.387 . S
C1306 C1309 1.387 . S
H1307 C1303 0.950 . S
H1308 C1305 0.950 . S
C1309 C1300 1.390 . S
C1309 H1302 0.950 . S
C1309 C1306 1.387 . S
C1310 C1311 1.387 . S
C1310 H1314 0.950 . S
C1310 C1319 1.390 . S
C1311 C1310 1.387 . S
C1311 C1313 1.387 . S
H1312 C1319 0.950 . S
C1313 C1311 1.387 . S
C1313 C1315 1.390 . S
C1313 H1317 0.950 . S
H1314 C1310 0.950 . S
C1315 C1313 1.390 . S
C1315 C1316 1.387 . S
C1315 H1318 0.950 . S
C1316 C1315 1.387 . S
C1316 C1319 1.387 . S
H1317 C1313 0.950 . S
H1318 C1315 0.950 . S
C1319 C1310 1.390 . S
C1319 H1312 0.950 . S
C1319 C1316 1.387 . S
C1320 C1321 1.387 . S
C1320 H1324 0.950 . S
C1320 C1329 1.390 . S
C1321 C1320 1.387 . S
C1321 C1323 1.387 . S
H1322 C1329 0.950 . S
C1323 C1321 1.387 . S
C1323 C1325 1.390 . S
C1323 H1327 0.950 . S
H1324 C1320 0.950 . S
C1325 C1323 1.390 . S
C1325 C1326 1.387 . S
C1325 H1328 0.950 . S
C1326 C1325 1.387 . S
C1326 C1329 1.387 . S
H1327 C1323 0.950 . S
H1328 C1325 0.950 . S
C1329 C1320 1.390 . S
C1329 H1322 0.950 . S
C1329 C1326 1.387 . S
C1330 C1331 1.387 . S
C1330 H1334 0.950 . S
C1330 C1339 1.390 . S
C1331 C1330 1.387 . S
C1331 C1333 1.387 . S
H1332 C1339 0.950 . S
C1333 C1331 1.387 . S
C1333 C1335 1.390 . S
C1333 H1337 0.950 . S
H1334 C1330 0.950 . S
C1335 C1333 1.390 . S
C1335 C1336 1.387 . S
C1335 H1338 0.950 . S
C1336 C1335 1.387 . S
C1336 C1339 1.387 . S
H1337 C1333 0.950 . S
H1338 C1335 0.950 . S
C1339 C1330 1.390 . S
C1339 H1332 0.950 . S
C1339 C1336 1.387 . S
C1340 C1341 1.387 . S
C1340 H1344 0.950 . S
C1340 C1349 1.390 . S
C1341 C1340 1.387 . S
C1341 C1343 1.387 . S
H1342 C1349 0.950 . S
C1343 C1341 1.387 . S
C1343 C1345 1.390 . S
C1343 H1347 0.950 . S
H1344 C1340 0.950 . S
C1345 C1343 1.390 . S
C1345 C1346 1.387 . S
C1345 H1348 0.950 . S
C1346 C1345 1.387 . S
C1346 C1349 1.387 . S
H1347 C1343 0.950 . S
H1348 C1345 0.950 . S
C1349 C1340 1.390 . S
C1349 H1342 0.950 . S
C1349 C1346 1.387 . S
C876 C699 1.429 . S
C871 C74 1.609 . S
C886 C700 1.482 . S
C881 C153 1.439 . S
C896 C694 1.703 . S
C891 C231 1.742 . S
C901 C310 1.131 . S
C906 C693 0.573 . S
C911 C394 1.442 . S
C916 C696 1.478 . S
C926 C698 1.703 . S
C921 C494 1.741 . S
C931 C573 1.132 . S
C936 C697 0.573 . S
C941 C651 1.607 . S
C946 C695 1.429 . S
C956 C730 2.628 . S
C951 C56 2.607 . S
C961 C151 1.696 . S
C966 C761 1.552 . S
C976 C729 1.365 . S
C971 C237 1.269 . S
C986 C764 1.519 . S
C981 C326 1.454 . S
C991 C410 1.731 . S
C996 C727 1.722 . S
C1006 C759 2.614 . S
C1001 C476 2.610 . S
C1011 C571 1.467 . S
C1016 C732 1.332 . S
C1021 C657 1.232 . S
C1026 C766 1.318 . S
C1031 C58 1.227 . S
C1036 C762 1.317 . S
C1041 C392 1.696 . S
C1046 C765 1.553 . S
C1056 C733 1.364 . S
C1051 C478 1.266 . S
C1066 C760 1.521 . S
C1061 C567 1.454 . S
C1071 C655 2.607 . S
C1076 C726 2.629 . S
C1081 C235 2.610 . S
C1086 C763 2.614 . S
C1096 C728 1.335 . S
C1091 C308 1.467 . S
C1101 C147 1.731 . S
C1106 C731 1.718 . S
C1111 C662 1.623 . S
C1116 C798 1.487 . S
C1121 C405 1.280 . S
C1126 C799 1.240 . S
C1136 C793 1.523 . S
C1131 C483 1.551 . S
C1146 C792 0.592 . S
C1141 C562 0.833 . S
C1151 C142 1.282 . S
C1156 C795 1.242 . S
C1166 C797 1.523 . S
C1161 C242 1.549 . S
C1171 C321 0.833 . S
C1176 C796 0.593 . S
C1181 C63 1.623 . S
C1186 C794 1.485 . S
C1191 C644 2.802 . S
C1196 C832 2.726 . S
C1206 C864 1.439 . S
C1201 C403 1.519 . S
C1211 C489 1.114 . S
C1216 C825 1.290 . S
C1221 C578 1.713 . S
C1226 C859 1.684 . S
C1236 C830 1.450 . S
C1231 C158 1.445 . S
C1241 C224 2.844 . S
C1246 C861 2.779 . S
C1256 C827 1.762 . S
C1251 C319 1.824 . S
C1266 C862 1.324 . S
C1261 C69 1.232 . S
C1276 C858 1.324 . S
C1271 C646 1.232 . S
C1281 C140 1.519 . S
C1286 C860 1.438 . S
C1291 C226 1.113 . S
C1296 C829 1.292 . S
C1306 C863 1.683 . S
C1301 C315 1.713 . S
C1311 C67 2.802 . S
C1316 C828 2.724 . S
C1321 C487 2.844 . S
C1326 C865 2.778 . S
C1336 C831 1.762 . S
C1331 C560 1.825 . S
C1346 C826 1.451 . S
C1341 C399 1.443 . S
