# Generated by pormake.
# Topology gar, (4,6)-cn, num edge types: 1
# Building blocks:
#     Node 0, Type 0, BuildingBlock: GALJAG_clean_sbu_0, # of connection points: 4
#     Node 1, Type 0, BuildingBlock: GALJAG_clean_sbu_0, # of connection points: 4
#     Node 2, Type 0, BuildingBlock: GALJAG_clean_sbu_0, # of connection points: 4
#     Node 3, Type 0, BuildingBlock: GALJAG_clean_sbu_0, # of connection points: 4
#     Node 4, Type 0, BuildingBlock: GALJAG_clean_sbu_0, # of connection points: 4
#     Node 5, Type 0, BuildingBlock: GALJAG_clean_sbu_0, # of connection points: 4
#     Node 6, Type 0, BuildingBlock: GALJAG_clean_sbu_0, # of connection points: 4
#     Node 7, Type 0, BuildingBlock: GALJAG_clean_sbu_0, # of connection points: 4
#     Node 8, Type 0, BuildingBlock: GALJAG_clean_sbu_0, # of connection points: 4
#     Node 9, Type 0, BuildingBlock: GALJAG_clean_sbu_0, # of connection points: 4
#     Node 10, Type 0, BuildingBlock: GALJAG_clean_sbu_0, # of connection points: 4
#     Node 11, Type 0, BuildingBlock: GALJAG_clean_sbu_0, # of connection points: 4
#     Node 12, Type 0, BuildingBlock: GALJAG_clean_sbu_0, # of connection points: 4
#     Node 13, Type 0, BuildingBlock: GALJAG_clean_sbu_0, # of connection points: 4
#     Node 14, Type 0, BuildingBlock: GALJAG_clean_sbu_0, # of connection points: 4
#     Node 15, Type 0, BuildingBlock: GALJAG_clean_sbu_0, # of connection points: 4
#     Node 16, Type 0, BuildingBlock: GALJAG_clean_sbu_0, # of connection points: 4
#     Node 17, Type 0, BuildingBlock: GALJAG_clean_sbu_0, # of connection points: 4
#     Node 18, Type 0, BuildingBlock: GALJAG_clean_sbu_0, # of connection points: 4
#     Node 19, Type 0, BuildingBlock: GALJAG_clean_sbu_0, # of connection points: 4
#     Node 20, Type 0, BuildingBlock: GALJAG_clean_sbu_0, # of connection points: 4
#     Node 21, Type 0, BuildingBlock: GALJAG_clean_sbu_0, # of connection points: 4
#     Node 22, Type 0, BuildingBlock: GALJAG_clean_sbu_0, # of connection points: 4
#     Node 23, Type 0, BuildingBlock: GALJAG_clean_sbu_0, # of connection points: 4
#     Node 24, Type 1, BuildingBlock: KUMJIN_clean_sbu_1, # of connection points: 6
#     Node 25, Type 1, BuildingBlock: KUMJIN_clean_sbu_1, # of connection points: 6
#     Node 26, Type 1, BuildingBlock: KUMJIN_clean_sbu_1, # of connection points: 6
#     Node 27, Type 1, BuildingBlock: KUMJIN_clean_sbu_1, # of connection points: 6
#     Node 28, Type 1, BuildingBlock: KUMJIN_clean_sbu_1, # of connection points: 6
#     Node 29, Type 1, BuildingBlock: KUMJIN_clean_sbu_1, # of connection points: 6
#     Node 30, Type 1, BuildingBlock: KUMJIN_clean_sbu_1, # of connection points: 6
#     Node 31, Type 1, BuildingBlock: KUMJIN_clean_sbu_1, # of connection points: 6
#     Node 32, Type 1, BuildingBlock: KUMJIN_clean_sbu_1, # of connection points: 6
#     Node 33, Type 1, BuildingBlock: KUMJIN_clean_sbu_1, # of connection points: 6
#     Node 34, Type 1, BuildingBlock: KUMJIN_clean_sbu_1, # of connection points: 6
#     Node 35, Type 1, BuildingBlock: KUMJIN_clean_sbu_1, # of connection points: 6
#     Node 36, Type 1, BuildingBlock: KUMJIN_clean_sbu_1, # of connection points: 6
#     Node 37, Type 1, BuildingBlock: KUMJIN_clean_sbu_1, # of connection points: 6
#     Node 38, Type 1, BuildingBlock: KUMJIN_clean_sbu_1, # of connection points: 6
#     Node 39, Type 1, BuildingBlock: KUMJIN_clean_sbu_1, # of connection points: 6
#     Edge 40, Type (0, 1), BuildingBlock: MIFKUJ_clean_linker_0, # of connection points: 2
#     Edge 41, Type (0, 1), BuildingBlock: MIFKUJ_clean_linker_0, # of connection points: 2
#     Edge 42, Type (0, 1), BuildingBlock: MIFKUJ_clean_linker_0, # of connection points: 2
#     Edge 43, Type (0, 1), BuildingBlock: MIFKUJ_clean_linker_0, # of connection points: 2
#     Edge 44, Type (0, 1), BuildingBlock: MIFKUJ_clean_linker_0, # of connection points: 2
#     Edge 45, Type (0, 1), BuildingBlock: MIFKUJ_clean_linker_0, # of connection points: 2
#     Edge 46, Type (0, 1), BuildingBlock: MIFKUJ_clean_linker_0, # of connection points: 2
#     Edge 47, Type (0, 1), BuildingBlock: MIFKUJ_clean_linker_0, # of connection points: 2
#     Edge 48, Type (0, 1), BuildingBlock: MIFKUJ_clean_linker_0, # of connection points: 2
#     Edge 49, Type (0, 1), BuildingBlock: MIFKUJ_clean_linker_0, # of connection points: 2
#     Edge 50, Type (0, 1), BuildingBlock: MIFKUJ_clean_linker_0, # of connection points: 2
#     Edge 51, Type (0, 1), BuildingBlock: MIFKUJ_clean_linker_0, # of connection points: 2
#     Edge 52, Type (0, 1), BuildingBlock: MIFKUJ_clean_linker_0, # of connection points: 2
#     Edge 53, Type (0, 1), BuildingBlock: MIFKUJ_clean_linker_0, # of connection points: 2
#     Edge 54, Type (0, 1), BuildingBlock: MIFKUJ_clean_linker_0, # of connection points: 2
#     Edge 55, Type (0, 1), BuildingBlock: MIFKUJ_clean_linker_0, # of connection points: 2
#     Edge 56, Type (0, 1), BuildingBlock: MIFKUJ_clean_linker_0, # of connection points: 2
#     Edge 57, Type (0, 1), BuildingBlock: MIFKUJ_clean_linker_0, # of connection points: 2
#     Edge 58, Type (0, 1), BuildingBlock: MIFKUJ_clean_linker_0, # of connection points: 2
#     Edge 59, Type (0, 1), BuildingBlock: MIFKUJ_clean_linker_0, # of connection points: 2
#     Edge 60, Type (0, 1), BuildingBlock: MIFKUJ_clean_linker_0, # of connection points: 2
#     Edge 61, Type (0, 1), BuildingBlock: MIFKUJ_clean_linker_0, # of connection points: 2
#     Edge 62, Type (0, 1), BuildingBlock: MIFKUJ_clean_linker_0, # of connection points: 2
#     Edge 63, Type (0, 1), BuildingBlock: MIFKUJ_clean_linker_0, # of connection points: 2
#     Edge 64, Type (0, 1), BuildingBlock: MIFKUJ_clean_linker_0, # of connection points: 2
#     Edge 65, Type (0, 1), BuildingBlock: MIFKUJ_clean_linker_0, # of connection points: 2
#     Edge 66, Type (0, 1), BuildingBlock: MIFKUJ_clean_linker_0, # of connection points: 2
#     Edge 67, Type (0, 1), BuildingBlock: MIFKUJ_clean_linker_0, # of connection points: 2
#     Edge 68, Type (0, 1), BuildingBlock: MIFKUJ_clean_linker_0, # of connection points: 2
#     Edge 69, Type (0, 1), BuildingBlock: MIFKUJ_clean_linker_0, # of connection points: 2
#     Edge 70, Type (0, 1), BuildingBlock: MIFKUJ_clean_linker_0, # of connection points: 2
#     Edge 71, Type (0, 1), BuildingBlock: MIFKUJ_clean_linker_0, # of connection points: 2
#     Edge 72, Type (0, 1), BuildingBlock: MIFKUJ_clean_linker_0, # of connection points: 2
#     Edge 73, Type (0, 1), BuildingBlock: MIFKUJ_clean_linker_0, # of connection points: 2
#     Edge 74, Type (0, 1), BuildingBlock: MIFKUJ_clean_linker_0, # of connection points: 2
#     Edge 75, Type (0, 1), BuildingBlock: MIFKUJ_clean_linker_0, # of connection points: 2
#     Edge 76, Type (0, 1), BuildingBlock: MIFKUJ_clean_linker_0, # of connection points: 2
#     Edge 77, Type (0, 1), BuildingBlock: MIFKUJ_clean_linker_0, # of connection points: 2
#     Edge 78, Type (0, 1), BuildingBlock: MIFKUJ_clean_linker_0, # of connection points: 2
#     Edge 79, Type (0, 1), BuildingBlock: MIFKUJ_clean_linker_0, # of connection points: 2
#     Edge 80, Type (0, 1), BuildingBlock: MIFKUJ_clean_linker_0, # of connection points: 2
#     Edge 81, Type (0, 1), BuildingBlock: MIFKUJ_clean_linker_0, # of connection points: 2
#     Edge 82, Type (0, 1), BuildingBlock: MIFKUJ_clean_linker_0, # of connection points: 2
#     Edge 83, Type (0, 1), BuildingBlock: MIFKUJ_clean_linker_0, # of connection points: 2
#     Edge 84, Type (0, 1), BuildingBlock: MIFKUJ_clean_linker_0, # of connection points: 2
#     Edge 85, Type (0, 1), BuildingBlock: MIFKUJ_clean_linker_0, # of connection points: 2
#     Edge 86, Type (0, 1), BuildingBlock: MIFKUJ_clean_linker_0, # of connection points: 2
#     Edge 87, Type (0, 1), BuildingBlock: MIFKUJ_clean_linker_0, # of connection points: 2
#     Edge 88, Type (0, 1), BuildingBlock: MIFKUJ_clean_linker_0, # of connection points: 2
#     Edge 89, Type (0, 1), BuildingBlock: MIFKUJ_clean_linker_0, # of connection points: 2
#     Edge 90, Type (0, 1), BuildingBlock: MIFKUJ_clean_linker_0, # of connection points: 2
#     Edge 91, Type (0, 1), BuildingBlock: MIFKUJ_clean_linker_0, # of connection points: 2
#     Edge 92, Type (0, 1), BuildingBlock: MIFKUJ_clean_linker_0, # of connection points: 2
#     Edge 93, Type (0, 1), BuildingBlock: MIFKUJ_clean_linker_0, # of connection points: 2
#     Edge 94, Type (0, 1), BuildingBlock: MIFKUJ_clean_linker_0, # of connection points: 2
#     Edge 95, Type (0, 1), BuildingBlock: MIFKUJ_clean_linker_0, # of connection points: 2
#     Edge 96, Type (0, 1), BuildingBlock: MIFKUJ_clean_linker_0, # of connection points: 2
#     Edge 97, Type (0, 1), BuildingBlock: MIFKUJ_clean_linker_0, # of connection points: 2
#     Edge 98, Type (0, 1), BuildingBlock: MIFKUJ_clean_linker_0, # of connection points: 2
#     Edge 99, Type (0, 1), BuildingBlock: MIFKUJ_clean_linker_0, # of connection points: 2
#     Edge 100, Type (0, 1), BuildingBlock: MIFKUJ_clean_linker_0, # of connection points: 2
#     Edge 101, Type (0, 1), BuildingBlock: MIFKUJ_clean_linker_0, # of connection points: 2
#     Edge 102, Type (0, 1), BuildingBlock: MIFKUJ_clean_linker_0, # of connection points: 2
#     Edge 103, Type (0, 1), BuildingBlock: MIFKUJ_clean_linker_0, # of connection points: 2
#     Edge 104, Type (0, 1), BuildingBlock: MIFKUJ_clean_linker_0, # of connection points: 2
#     Edge 105, Type (0, 1), BuildingBlock: MIFKUJ_clean_linker_0, # of connection points: 2
#     Edge 106, Type (0, 1), BuildingBlock: MIFKUJ_clean_linker_0, # of connection points: 2
#     Edge 107, Type (0, 1), BuildingBlock: MIFKUJ_clean_linker_0, # of connection points: 2
#     Edge 108, Type (0, 1), BuildingBlock: MIFKUJ_clean_linker_0, # of connection points: 2
#     Edge 109, Type (0, 1), BuildingBlock: MIFKUJ_clean_linker_0, # of connection points: 2
#     Edge 110, Type (0, 1), BuildingBlock: MIFKUJ_clean_linker_0, # of connection points: 2
#     Edge 111, Type (0, 1), BuildingBlock: MIFKUJ_clean_linker_0, # of connection points: 2
#     Edge 112, Type (0, 1), BuildingBlock: MIFKUJ_clean_linker_0, # of connection points: 2
#     Edge 113, Type (0, 1), BuildingBlock: MIFKUJ_clean_linker_0, # of connection points: 2
#     Edge 114, Type (0, 1), BuildingBlock: MIFKUJ_clean_linker_0, # of connection points: 2
#     Edge 115, Type (0, 1), BuildingBlock: MIFKUJ_clean_linker_0, # of connection points: 2
#     Edge 116, Type (0, 1), BuildingBlock: MIFKUJ_clean_linker_0, # of connection points: 2
#     Edge 117, Type (0, 1), BuildingBlock: MIFKUJ_clean_linker_0, # of connection points: 2
#     Edge 118, Type (0, 1), BuildingBlock: MIFKUJ_clean_linker_0, # of connection points: 2
#     Edge 119, Type (0, 1), BuildingBlock: MIFKUJ_clean_linker_0, # of connection points: 2
#     Edge 120, Type (0, 1), BuildingBlock: MIFKUJ_clean_linker_0, # of connection points: 2
#     Edge 121, Type (0, 1), BuildingBlock: MIFKUJ_clean_linker_0, # of connection points: 2
#     Edge 122, Type (0, 1), BuildingBlock: MIFKUJ_clean_linker_0, # of connection points: 2
#     Edge 123, Type (0, 1), BuildingBlock: MIFKUJ_clean_linker_0, # of connection points: 2
#     Edge 124, Type (0, 1), BuildingBlock: MIFKUJ_clean_linker_0, # of connection points: 2
#     Edge 125, Type (0, 1), BuildingBlock: MIFKUJ_clean_linker_0, # of connection points: 2
#     Edge 126, Type (0, 1), BuildingBlock: MIFKUJ_clean_linker_0, # of connection points: 2
#     Edge 127, Type (0, 1), BuildingBlock: MIFKUJ_clean_linker_0, # of connection points: 2
#     Edge 128, Type (0, 1), BuildingBlock: MIFKUJ_clean_linker_0, # of connection points: 2
#     Edge 129, Type (0, 1), BuildingBlock: MIFKUJ_clean_linker_0, # of connection points: 2
#     Edge 130, Type (0, 1), BuildingBlock: MIFKUJ_clean_linker_0, # of connection points: 2
#     Edge 131, Type (0, 1), BuildingBlock: MIFKUJ_clean_linker_0, # of connection points: 2
#     Edge 132, Type (0, 1), BuildingBlock: MIFKUJ_clean_linker_0, # of connection points: 2
#     Edge 133, Type (0, 1), BuildingBlock: MIFKUJ_clean_linker_0, # of connection points: 2
#     Edge 134, Type (0, 1), BuildingBlock: MIFKUJ_clean_linker_0, # of connection points: 2
#     Edge 135, Type (0, 1), BuildingBlock: MIFKUJ_clean_linker_0, # of connection points: 2
# Relax obj value: 0.073
# Max RMSD: 0.173
# Mean RMSD: 0.126
data_MOF--net-gar--node1-GALJAG_clean_sbu_0--node2-KUMJIN_clean_sbu_1--edge1-MIFKUJ_clean_linker_0
_symmetry_space_group_name_H-M    P1
_symmetry_Int_Tables_number       1
_symmetry_cell_setting            triclinic
loop_
_symmetry_equiv_pos_as_xyz
'x, y, z'
_cell_length_a     76.586154
_cell_length_b     76.452253
_cell_length_c     72.078833
_cell_angle_alpha  95.469544
_cell_angle_beta   95.538793
_cell_angle_gamma 99.999034
loop_
_atom_site_label
_atom_site_type_symbol
_atom_site_fract_x
_atom_site_fract_y
_atom_site_fract_z
_atom_type_partial_charge
In0 In 0.04167 0.30753 0.36464 0.0
O1 O 0.05669 0.30086 0.33837 0.0
O2 O 0.0726 0.31057 0.36394 0.0
C3 C 0.00749 0.30559 0.34632 0.0
C4 C 0.04106 0.27688 0.38243 0.0
C5 C 0.043 0.34089 0.38492 0.0
O6 O 0.02135 0.30825 0.33789 0.0
O7 O 0.01093 0.30356 0.36335 0.0
O8 O 0.03705 0.32615 0.39061 0.0
O9 O 0.04914 0.33902 0.36931 0.0
C10 C 0.07236 0.3046 0.34693 0.0
O11 O 0.04966 0.29202 0.38959 0.0
O12 O 0.03262 0.27722 0.36658 0.0
In13 In 0.01747 0.75701 0.68467 0.0
O14 O 0.01886 0.76991 0.65715 0.0
O15 O 0.02079 0.78716 0.68242 0.0
C16 C 0.01497 0.72544 0.66207 0.0
C17 C 0.05288 0.76177 0.7019 0.0
C18 C 0.98455 0.75608 0.69975 0.0
O19 O 0.01242 0.73982 0.65587 0.0
O20 O 0.01879 0.72688 0.67969 0.0
O21 O 0.99947 0.76006 0.7099 0.0
O22 O 0.98638 0.75216 0.68281 0.0
C23 C 0.02061 0.78579 0.66479 0.0
O24 O 0.04553 0.77427 0.69663 0.0
O25 O 0.04212 0.74699 0.69986 0.0
In26 In 0.54149 0.8078 0.86259 0.0
O27 O 0.55741 0.80332 0.83664 0.0
O28 O 0.57246 0.81116 0.86307 0.0
C29 C 0.50773 0.80405 0.84241 0.0
C30 C 0.54078 0.77779 0.88108 0.0
C31 C 0.54394 0.84059 0.88414 0.0
O32 O 0.52008 0.81728 0.84233 0.0
O33 O 0.51261 0.79217 0.85159 0.0
O34 O 0.54193 0.82583 0.89099 0.0
O35 O 0.54565 0.83889 0.86686 0.0
C36 C 0.5728 0.80648 0.84583 0.0
O37 O 0.535 0.79141 0.88754 0.0
O38 O 0.54678 0.77931 0.8655 0.0
In39 In 0.51814 0.25711 0.18377 0.0
O40 O 0.50876 0.23751 0.15697 0.0
O41 O 0.52192 0.22751 0.17985 0.0
C42 C 0.51947 0.28634 0.16441 0.0
C43 C 0.48579 0.25611 0.20007 0.0
C44 C 0.55414 0.26138 0.19856 0.0
O45 O 0.51675 0.27051 0.15655 0.0
O46 O 0.52124 0.28752 0.18208 0.0
O47 O 0.54147 0.25877 0.20875 0.0
O48 O 0.5486 0.26181 0.18159 0.0
C49 C 0.51462 0.22442 0.16303 0.0
O50 O 0.50042 0.26582 0.20738 0.0
O51 O 0.48777 0.24633 0.18564 0.0
In52 In 0.05339 0.79092 0.11374 0.0
O53 O 0.04913 0.7675 0.08818 0.0
O54 O 0.05359 0.76065 0.11548 0.0
C55 C 0.05472 0.82396 0.09853 0.0
C56 C 0.02377 0.78981 0.13249 0.0
C57 C 0.08535 0.79468 0.1357 0.0
O58 O 0.04592 0.80927 0.09021 0.0
O59 O 0.06341 0.82182 0.11364 0.0
O60 O 0.07048 0.79421 0.14204 0.0
O61 O 0.08437 0.79359 0.1179 0.0
C62 C 0.05048 0.75499 0.09831 0.0
O63 O 0.03951 0.79355 0.14047 0.0
O64 O 0.02276 0.78683 0.11488 0.0
In65 In 0.50399 0.7707 0.43491 0.0
O66 O 0.51876 0.76924 0.40804 0.0
O67 O 0.53449 0.77237 0.43422 0.0
C68 C 0.47052 0.76866 0.41471 0.0
C69 C 0.50618 0.73939 0.4521 0.0
C70 C 0.50716 0.80536 0.45305 0.0
O71 O 0.48509 0.7712 0.40762 0.0
O72 O 0.47258 0.7662 0.43186 0.0
O73 O 0.50283 0.79152 0.46113 0.0
O74 O 0.51022 0.80171 0.43641 0.0
C75 C 0.53424 0.77083 0.41663 0.0
O76 O 0.51329 0.75499 0.45952 0.0
O77 O 0.49717 0.73949 0.43645 0.0
In78 In 0.55415 0.29293 0.61382 0.0
O79 O 0.5462 0.26894 0.5886 0.0
O80 O 0.55705 0.2632 0.61461 0.0
C81 C 0.55387 0.32587 0.59848 0.0
C82 C 0.52464 0.28912 0.63249 0.0
C83 C 0.5858 0.29881 0.63716 0.0
O84 O 0.56364 0.31491 0.59333 0.0
O85 O 0.54423 0.32005 0.61057 0.0
O86 O 0.57075 0.29896 0.64288 0.0
O87 O 0.58516 0.29663 0.61946 0.0
C88 C 0.55068 0.25693 0.59812 0.0
O89 O 0.5404 0.29219 0.64064 0.0
O90 O 0.52361 0.28795 0.61477 0.0
In91 In 1.00399 0.26862 0.93482 0.0
O92 O 0.01263 0.25374 0.96048 0.0
O93 O 0.99807 0.23776 0.93684 0.0
C94 C 0.00655 0.30326 0.95188 0.0
C95 C 0.03441 0.26963 0.91697 0.0
C96 C 0.97075 0.26721 0.91487 0.0
O97 O 1.00031 0.28959 0.95948 0.0
O98 O 0.01185 0.29943 0.9362 0.0
O99 O 0.98472 0.26628 0.90708 0.0
O100 O 0.97336 0.26816 0.93254 0.0
C101 C 0.00624 0.23802 0.95296 0.0
O102 O 0.01904 0.26241 0.90905 0.0
O103 O 0.03438 0.27647 0.93361 0.0
In104 In 0.39568 0.02295 0.29944 0.0
O105 O 0.41768 0.02946 0.2812 0.0
O106 O 0.3917 0.01684 0.26809 0.0
C107 C 0.41406 0.02631 0.3331 0.0
C108 C 0.37991 0.05091 0.29837 0.0
C109 C 0.37753 0.99018 0.29884 0.0
O110 O 0.41994 0.02006 0.31864 0.0
O111 O 0.39959 0.03176 0.33028 0.0
O112 O 0.37037 1.00375 0.30127 0.0
O113 O 0.39379 0.99316 0.29637 0.0
C114 C 0.40768 0.02321 0.26619 0.0
O115 O 0.3719 0.03609 0.30224 0.0
O116 O 0.39592 0.05165 0.29516 0.0
In117 In 0.26788 0.17962 0.5129 0.0
O118 O 0.28303 0.19992 0.53802 0.0
O119 O 0.25718 0.18666 0.54109 0.0
C120 C 0.2699 0.19377 0.47927 0.0
C121 C 0.29475 0.16127 0.51554 0.0
C122 C 0.23618 0.15681 0.50779 0.0
O123 O 0.26211 0.20034 0.4922 0.0
O124 O 0.27687 0.1808 0.48355 0.0
O125 O 0.25078 0.15199 0.51247 0.0
O126 O 0.23755 0.17319 0.50558 0.0
C127 C 0.27099 0.19723 0.54874 0.0
O128 O 0.27859 0.15373 0.51181 0.0
O129 O 0.29737 0.17814 0.51829 0.0
In130 In 0.13368 0.04313 0.78637 0.0
O131 O 0.10941 0.03348 0.76309 0.0
O132 O 0.13328 0.04769 0.75539 0.0
C133 C 0.1197 0.04171 0.8201 0.0
C134 C 0.15052 0.01496 0.7835 0.0
C135 C 0.15477 0.07599 0.79171 0.0
O136 O 0.11184 0.04719 0.80613 0.0
O137 O 0.13412 0.03689 0.81689 0.0
O138 O 0.16075 0.06163 0.79128 0.0
O139 O 0.13792 0.07392 0.7898 0.0
C140 C 0.11761 0.03959 0.74998 0.0
O141 O 0.15857 0.03098 0.78558 0.0
O142 O 0.13372 0.01296 0.78282 0.0
In143 In 0.2885 0.9169 0.99879 0.0
O144 O 0.27888 0.89402 0.01551 0.0
O145 O 0.29663 0.91718 0.02938 0.0
C146 C 0.28642 0.9012 0.96415 0.0
C147 C 0.26154 0.93399 0.99966 0.0
C148 C 0.32088 0.93614 0.0011 0.0
O149 O 0.29367 0.89505 0.97795 0.0
O150 O 0.27925 0.9145 0.96802 0.0
O151 O 0.30761 0.94299 0.00488 0.0
O152 O 0.31776 0.9195 0.99628 0.0
C153 C 0.2874 0.90214 0.03066 0.0
O154 O 0.27703 0.94174 0.99749 0.0
O155 O 0.25964 0.91743 0.00106 0.0
In156 In 0.29493 0.39035 0.03587 0.0
O157 O 0.28729 0.36519 0.05057 0.0
O158 O 0.29759 0.38953 0.06781 0.0
C159 C 0.29271 0.37175 0.00132 0.0
C160 C 0.26601 0.4061 0.03743 0.0
C161 C 0.3278 0.41112 0.03672 0.0
O162 O 0.30361 0.36984 0.01489 0.0
O163 O 0.28277 0.38276 0.00517 0.0
O164 O 0.3136 0.41608 0.03073 0.0
O165 O 0.32535 0.39603 0.04276 0.0
C166 C 0.29125 0.37306 0.06703 0.0
O167 O 0.28175 0.41505 0.03991 0.0
O168 O 0.265 0.38944 0.03413 0.0
In169 In 0.76794 0.13013 0.04366 0.0
O170 O 0.78099 0.10586 0.0404 0.0
O171 O 0.79656 0.13114 0.05274 0.0
C172 C 0.73347 0.11671 0.03904 0.0
C173 C 0.77325 0.14573 0.07829 0.0
C174 C 0.77034 0.14645 0.01296 0.0
O175 O 0.74489 0.10664 0.03765 0.0
O176 O 0.73963 0.13314 0.04306 0.0
O177 O 0.76579 0.15358 0.02776 0.0
O178 O 0.77416 0.13114 0.01364 0.0
C179 C 0.79592 0.11478 0.0479 0.0
O180 O 0.77913 0.15339 0.06477 0.0
O181 O 0.76415 0.13014 0.07428 0.0
In182 In 0.17736 0.54338 0.25291 0.0
O183 O 0.20117 0.52943 0.25357 0.0
O184 O 0.17475 0.51432 0.24601 0.0
C185 C 0.19127 0.5775 0.25788 0.0
C186 C 0.15884 0.54282 0.21997 0.0
C187 C 0.16494 0.53844 0.28534 0.0
O188 O 0.20023 0.566 0.25229 0.0
O189 O 0.17547 0.57165 0.26085 0.0
O190 O 0.15544 0.53339 0.26982 0.0
O191 O 0.18085 0.54591 0.28452 0.0
C192 C 0.19123 0.51435 0.2487 0.0
O193 O 0.15159 0.54215 0.23495 0.0
O194 O 0.17558 0.54421 0.22173 0.0
In195 In 0.79558 0.8914 0.5357 0.0
O196 O 0.79048 0.86578 0.55007 0.0
O197 O 0.79542 0.89064 0.56733 0.0
C198 C 0.79283 0.87174 0.50177 0.0
C199 C 0.76642 0.90683 0.53731 0.0
C200 C 0.82861 0.91213 0.53691 0.0
O201 O 0.80336 0.8696 0.5156 0.0
O202 O 0.78359 0.88353 0.50513 0.0
O203 O 0.81518 0.91458 0.52661 0.0
O204 O 0.82528 0.89969 0.54708 0.0
C205 C 0.79167 0.87381 0.56643 0.0
O206 O 0.78202 0.916 0.53878 0.0
O207 O 0.76567 0.89016 0.53495 0.0
In208 In 0.92001 0.01668 0.26179 0.0
O209 O 0.94402 0.01587 0.24522 0.0
O210 O 0.91968 0.01874 0.23017 0.0
C211 C 0.93805 0.02108 0.29683 0.0
C212 C 0.90573 0.04689 0.26267 0.0
C213 C 0.9014 0.98244 0.25884 0.0
O214 O 0.94582 0.02242 0.28224 0.0
O215 O 0.92125 0.01797 0.29379 0.0
O216 O 0.89394 0.99562 0.25619 0.0
O217 O 0.91814 0.98644 0.26225 0.0
C218 C 0.93596 0.01797 0.22971 0.0
O219 O 0.89675 0.03181 0.26462 0.0
O220 O 0.92187 0.04678 0.26061 0.0
In221 In 0.26721 0.62979 0.54528 0.0
O222 O 0.28206 0.60672 0.54226 0.0
O223 O 0.29599 0.63257 0.55461 0.0
C224 C 0.23306 0.61551 0.54122 0.0
C225 C 0.26806 0.64826 0.57804 0.0
C226 C 0.27207 0.64539 0.51452 0.0
O227 O 0.24478 0.60585 0.5434 0.0
O228 O 0.23879 0.63196 0.54126 0.0
O229 O 0.27697 0.65337 0.53076 0.0
O230 O 0.26514 0.62907 0.51369 0.0
C231 C 0.2966 0.61649 0.54965 0.0
O232 O 0.26609 0.65488 0.56278 0.0
O233 O 0.26906 0.63186 0.5768 0.0
In234 In 0.42076 0.51668 0.76244 0.0
O235 O 0.4001 0.53334 0.77198 0.0
O236 O 0.41623 0.54302 0.75169 0.0
C237 C 0.40197 0.48263 0.75864 0.0
C238 C 0.43903 0.51923 0.73219 0.0
C239 C 0.43942 0.5199 0.79707 0.0
O240 O 0.39481 0.49579 0.75497 0.0
O241 O 0.41859 0.48658 0.7634 0.0
O242 O 0.44697 0.51986 0.78227 0.0
O243 O 0.42278 0.51888 0.79438 0.0
C244 C 0.40415 0.54551 0.7617 0.0
O245 O 0.44522 0.5272 0.74828 0.0
O246 O 0.4238 0.50943 0.73145 0.0
In247 In 0.68168 0.04521 0.75259 0.0
O248 O 0.70567 0.0315 0.75338 0.0
O249 O 0.67954 0.01594 0.74507 0.0
C250 C 0.69943 0.07861 0.75566 0.0
C251 C 0.66107 0.03949 0.7203 0.0
C252 C 0.66541 0.04634 0.78359 0.0
O253 O 0.70458 0.06742 0.76573 0.0
O254 O 0.68652 0.07241 0.74334 0.0
O255 O 0.6613 0.0543 0.76978 0.0
O256 O 0.67751 0.0373 0.78164 0.0
C257 C 0.69606 0.01635 0.74791 0.0
O258 O 0.65481 0.03774 0.73577 0.0
O259 O 0.67783 0.04425 0.72123 0.0
In260 In 0.76794 0.67882 0.01153 0.0
O261 O 0.77989 0.65399 0.00596 0.0
O262 O 0.79755 0.67791 0.01797 0.0
C263 C 0.73571 0.65688 0.00782 0.0
C264 C 0.77114 0.69553 0.04752 0.0
C265 C 0.76981 0.69353 0.97838 0.0
O266 O 0.74977 0.65298 0.0155 0.0
O267 O 0.73775 0.67186 0.00148 0.0
O268 O 0.76103 0.6991 0.99102 0.0
O269 O 0.77778 0.68116 0.98274 0.0
C270 C 0.79564 0.66147 0.01223 0.0
O271 O 0.77663 0.70386 0.03421 0.0
O272 O 0.76373 0.6796 0.0424 0.0
In273 In 0.89614 0.52299 0.79934 0.0
O274 O 0.87131 0.53367 0.79284 0.0
O275 O 0.89523 0.55248 0.80293 0.0
C276 C 0.87857 0.48999 0.79841 0.0
C277 C 0.90914 0.52471 0.7666 0.0
C278 C 0.91259 0.52463 0.8337 0.0
O279 O 0.87283 0.50328 0.80549 0.0
O280 O 0.89326 0.4933 0.79177 0.0
O281 O 0.92041 0.52131 0.81944 0.0
O282 O 0.89719 0.52803 0.83037 0.0
C283 C 0.87874 0.54977 0.79729 0.0
O284 O 0.91899 0.53042 0.78188 0.0
O285 O 0.89313 0.51824 0.76815 0.0
In286 In 0.78771 0.41916 0.50191 0.0
O287 O 0.78477 0.39621 0.51952 0.0
O288 O 0.79058 0.42291 0.53325 0.0
C289 C 0.78617 0.40327 0.46761 0.0
C290 C 0.7596 0.43473 0.50054 0.0
C291 C 0.82077 0.43658 0.50481 0.0
O292 O 0.78413 0.39439 0.4814 0.0
O293 O 0.78821 0.41998 0.4712 0.0
O294 O 0.80762 0.4444 0.50538 0.0
O295 O 0.81725 0.41972 0.50307 0.0
C296 C 0.78778 0.40643 0.53475 0.0
O297 O 0.77535 0.44325 0.50183 0.0
O298 O 0.75786 0.41793 0.49963 0.0
In299 In 0.63328 0.54136 0.28604 0.0
O300 O 0.65778 0.52967 0.28004 0.0
O301 O 0.63772 0.51358 0.29263 0.0
C302 C 0.65507 0.57361 0.28816 0.0
C303 C 0.61439 0.53684 0.25073 0.0
C304 C 0.61909 0.54076 0.3197 0.0
O305 O 0.66052 0.55903 0.28545 0.0
O306 O 0.63859 0.57199 0.2897 0.0
O307 O 0.61084 0.53209 0.30464 0.0
O308 O 0.63409 0.54968 0.31769 0.0
C309 C 0.65252 0.51489 0.28601 0.0
O310 O 0.6139 0.54977 0.26281 0.0
O311 O 0.62323 0.5258 0.25685 0.0
Eu312 Eu 0.0652 0.04966 0.0481 0.0
C313 C 1.00288 0.98905 0.00198 0.0
N314 N 0.01182 1.00487 0.99766 0.0
C315 C 0.01121 0.99225 0.96579 0.0
C316 C 0.99796 0.97409 0.98827 0.0
C317 C 0.01557 0.00679 0.97974 0.0
C318 C 1.00245 0.9758 0.97008 0.0
C319 C 0.98866 0.97174 0.02486 0.0
C320 C 0.99825 0.98786 0.0201 0.0
C321 C 0.9839 0.95682 0.01126 0.0
C322 C 0.98855 0.95798 0.99303 0.0
Eu323 Eu 0.01753 0.02864 0.02219 0.0
N324 N 1.00339 1.00236 0.03316 0.0
C325 C 0.98414 0.97109 0.04318 0.0
C326 C 0.99821 1.00208 0.05072 0.0
C327 C 0.98881 0.98639 0.05612 0.0
H328 H 0.02143 0.01961 0.97594 0.0
H329 H 0.98495 0.98619 0.07016 0.0
H330 H 0.05493 0.06202 0.09172 0.0
H331 H 0.09776 0.09002 0.99822 0.0
H332 H 1.00095 0.01399 0.06044 0.0
H333 H 0.97679 0.95896 0.04738 0.0
H334 H 0.08279 0.06247 0.0091 0.0
H335 H 0.01435 0.99381 0.95164 0.0
H336 H 0.97657 0.94432 0.01467 0.0
H337 H 0.98468 0.94637 0.98267 0.0
H338 H 0.05864 0.08943 0.11346 0.0
H339 H 0.99894 0.9646 0.95917 0.0
H340 H 0.10301 0.11842 0.01901 0.0
N341 N 0.06564 0.07518 0.06947 0.0
C342 C 0.07427 0.0908 0.06431 0.0
C343 C 0.06281 0.09006 0.09958 0.0
C344 C 0.07716 0.10678 0.07666 0.0
C345 C 0.06029 0.07455 0.08698 0.0
C346 C 0.07121 0.10625 0.09439 0.0
N347 N 0.07739 0.07535 0.03477 0.0
C348 C 0.08376 0.07489 0.01775 0.0
C349 C 0.08933 0.10693 0.04109 0.0
C350 C 0.0803 0.09088 0.04659 0.0
C351 C 0.09555 0.10653 0.02347 0.0
C352 C 0.09267 0.09048 0.01172 0.0
H353 H 0.07331 0.11821 0.1043 0.0
H354 H 0.08845 0.13507 0.08043 0.0
H355 H 0.09906 0.13521 0.04935 0.0
O356 O 0.09324 0.04871 0.04604 0.0
O357 O 0.04613 0.06905 0.03994 0.0
O358 O 0.02977 0.05523 0.01263 0.0
O359 O 0.08411 0.05298 0.07324 0.0
O360 O 0.0652 0.03504 0.01868 0.0
O361 O 0.03821 0.03765 0.00305 0.0
O362 O 0.9948 0.03959 0.03094 0.0
O363 O 0.03189 0.00712 0.03371 0.0
O364 O 0.05914 0.01947 0.05103 0.0
O365 O 0.9938 0.02691 0.0025 0.0
O366 O 0.02086 0.04414 0.0512 0.0
O367 O 0.04559 0.03716 0.06661 0.0
C368 C 0.03701 0.06998 0.02363 0.0
C369 C 0.10852 0.03822 0.07175 0.0
C370 C 0.13044 0.01928 0.06727 0.0
C371 C 0.13075 0.016 0.08612 0.0
C372 C 0.1091 0.0351 0.09071 0.0
C373 C 0.12012 0.02395 0.09779 0.0
C374 C 0.11932 0.03034 0.06019 0.0
C375 C 0.05485 0.03544 0.00303 0.0
C376 C 0.09743 0.05034 0.06419 0.0
C377 C 0.08608 0.12272 0.07108 0.0
C378 C 0.09213 0.12279 0.05338 0.0
C379 C 0.04654 0.00553 0.04425 0.0
C380 C 0.97857 0.05088 0.00703 0.0
C381 C 0.95688 0.07024 0.00933 0.0
C382 C 0.96242 0.07803 0.99352 0.0
C383 C 0.98419 0.05869 0.99123 0.0
C384 C 0.96511 0.05685 0.01613 0.0
C385 C 0.97621 0.07237 0.98462 0.0
C386 C 0.02926 0.04009 0.06645 0.0
C387 C 0.98606 0.03619 0.01416 0.0
H388 H 0.13945 0.00761 0.09188 0.0
H389 H 0.10113 0.04132 0.10007 0.0
H390 H 0.12056 0.02162 0.11239 0.0
H391 H 0.11912 0.0328 0.0456 0.0
H392 H 0.956 0.08833 0.98805 0.0
H393 H 0.99456 0.05414 0.98392 0.0
H394 H 0.96056 0.05059 0.02814 0.0
H395 H 0.98052 0.07837 0.97244 0.0
Eu396 Eu 0.25778 0.79032 0.3108 0.0
C397 C 0.30061 0.75946 0.24132 0.0
N398 N 0.30698 0.7726 0.2556 0.0
C399 C 0.33406 0.76115 0.26048 0.0
C400 C 0.31068 0.74631 0.23632 0.0
C401 C 0.32349 0.77373 0.26508 0.0
C402 C 0.3276 0.74732 0.24608 0.0
C403 C 0.27655 0.74503 0.21755 0.0
C404 C 0.28374 0.75889 0.23207 0.0
C405 C 0.28648 0.73184 0.21262 0.0
C406 C 0.30352 0.73251 0.22194 0.0
Eu407 Eu 0.28836 0.79305 0.26334 0.0
N408 N 0.27431 0.7717 0.23742 0.0
C409 C 0.25958 0.74479 0.20837 0.0
C410 C 0.25805 0.77186 0.22781 0.0
C411 C 0.25038 0.75838 0.21341 0.0
H412 H 0.32858 0.78445 0.27612 0.0
H413 H 0.23739 0.75856 0.20612 0.0
H414 H 0.21781 0.8006 0.29758 0.0
H415 H 0.30656 0.81915 0.37172 0.0
H416 H 0.25082 0.78234 0.23074 0.0
H417 H 0.25357 0.73436 0.19721 0.0
H418 H 0.29463 0.79861 0.34358 0.0
H419 H 0.34716 0.7621 0.26806 0.0
H420 H 0.28111 0.72109 0.20156 0.0
H421 H 0.31103 0.72224 0.21798 0.0
H422 H 0.19874 0.82149 0.30811 0.0
H423 H 0.33577 0.7375 0.24263 0.0
H424 H 0.28915 0.84113 0.38393 0.0
N425 N 0.23872 0.8101 0.31967 0.0
C426 C 0.24427 0.82126 0.3358 0.0
C427 C 0.21157 0.82167 0.31595 0.0
C428 C 0.2337 0.83338 0.34241 0.0
C429 C 0.22254 0.80999 0.30986 0.0
C430 C 0.21719 0.83346 0.33226 0.0
N431 N 0.27092 0.80931 0.33854 0.0
C432 C 0.28697 0.80835 0.34809 0.0
C433 C 0.2671 0.83274 0.36195 0.0
C434 C 0.2608 0.82088 0.3455 0.0
C435 C 0.28384 0.83221 0.37129 0.0
C436 C 0.29374 0.81989 0.36439 0.0
H437 H 0.20868 0.84253 0.33692 0.0
H438 H 0.232 0.8545 0.36408 0.0
H439 H 0.26125 0.854 0.38113 0.0
O440 O 0.25697 0.76889 0.32867 0.0
O441 O 0.26746 0.81931 0.30864 0.0
O442 O 0.27867 0.80384 0.28841 0.0
O443 O 0.23231 0.77601 0.31722 0.0
O444 O 0.28641 0.78277 0.31372 0.0
O445 O 0.30451 0.79682 0.29263 0.0
O446 O 0.2886 0.81484 0.2461 0.0
O447 O 0.28147 0.76575 0.27187 0.0
O448 O 0.25748 0.77349 0.28331 0.0
O449 O 0.31364 0.80841 0.25739 0.0
O450 O 0.26045 0.80064 0.2585 0.0
O451 O 0.24206 0.79136 0.28173 0.0
C452 C 0.2771 0.81968 0.29516 0.0
C453 C 0.23404 0.76796 0.34796 0.0
C454 C 0.23642 0.75769 0.37857 0.0
C455 C 0.22683 0.77053 0.38534 0.0
C456 C 0.2242 0.7807 0.35459 0.0
C457 C 0.22058 0.78189 0.37326 0.0
C458 C 0.23981 0.75637 0.35991 0.0
C459 C 0.30237 0.78834 0.30785 0.0
C460 C 0.2398 0.76719 0.32924 0.0
C461 C 0.23993 0.84509 0.35883 0.0
C462 C 0.25659 0.8448 0.36854 0.0
C463 C 0.26754 0.76157 0.28066 0.0
C464 C 0.31118 0.81667 0.2266 0.0
C465 C 0.30701 0.82583 0.19557 0.0
C466 C 0.31708 0.81346 0.18882 0.0
C467 C 0.32125 0.8042 0.21986 0.0
C468 C 0.30435 0.82764 0.21443 0.0
C469 C 0.3243 0.80275 0.20102 0.0
C470 C 0.24467 0.79753 0.26522 0.0
C471 C 0.30578 0.81718 0.24552 0.0
H472 H 0.22412 0.77164 0.39984 0.0
H473 H 0.21954 0.78983 0.34553 0.0
H474 H 0.2131 0.79175 0.37841 0.0
H475 H 0.24758 0.74668 0.35484 0.0
H476 H 0.31937 0.81216 0.17419 0.0
H477 H 0.32647 0.79538 0.22896 0.0
H478 H 0.29645 0.83721 0.21949 0.0
H479 H 0.33204 0.79315 0.19582 0.0
Eu480 Eu 0.49517 0.02438 0.54619 0.0
C481 C 0.56764 0.05909 0.50687 0.0
N482 N 0.55687 0.04281 0.5018 0.0
C483 C 0.55657 0.04747 0.46931 0.0
C484 C 0.57224 0.07064 0.49323 0.0
C485 C 0.55246 0.0364 0.48323 0.0
C486 C 0.56612 0.06481 0.47436 0.0
C487 C 0.58673 0.08046 0.5309 0.0
C488 C 0.57505 0.06394 0.52558 0.0
C489 C 0.59049 0.09227 0.51745 0.0
C490 C 0.58328 0.08739 0.4987 0.0
Eu491 Eu 0.54952 0.02697 0.52752 0.0
N492 N 0.57112 0.05246 0.53854 0.0
C493 C 0.59449 0.08455 0.54958 0.0
C494 C 0.57911 0.05605 0.55661 0.0
C495 C 0.59083 0.07221 0.56243 0.0
H496 H 0.54567 0.02277 0.47902 0.0
H497 H 0.59689 0.0752 0.57683 0.0
H498 H 0.49402 0.02697 0.59408 0.0
H499 H 0.44919 0.97664 0.49488 0.0
H500 H 0.57596 0.0467 0.56662 0.0
H501 H 0.60351 0.09711 0.55417 0.0
H502 H 0.46845 0.00537 0.50673 0.0
H503 H 0.55251 0.04255 0.45467 0.0
H504 H 0.59927 0.1051 0.52135 0.0
H505 H 0.58671 0.09649 0.48843 0.0
H506 H 0.48675 0.0062 0.61752 0.0
H507 H 0.56935 0.07332 0.4635 0.0
H508 H 0.44466 0.9525 0.51542 0.0
N509 N 0.48693 0.00676 0.57067 0.0
C510 C 0.47788 0.98989 0.56471 0.0
C511 C 0.48449 1.00135 0.60273 0.0
C512 C 0.47303 0.97769 0.57769 0.0
C513 C 0.48877 0.01302 0.58937 0.0
C514 C 0.47707 0.98347 0.59688 0.0
N515 N 0.47511 0.99783 0.5337 0.0
C516 C 0.4666 0.99507 0.51583 0.0
C517 C 0.46085 0.96853 0.53946 0.0
C518 C 0.47169 0.98536 0.54576 0.0
C519 C 0.45317 0.96518 0.52075 0.0
C520 C 0.45571 0.9787 0.50906 0.0
H521 H 0.47357 0.9745 0.60726 0.0
H522 H 0.45984 0.95088 0.581 0.0
H523 H 0.44924 0.94285 0.54751 0.0
O524 O 0.47123 0.03252 0.53315 0.0
O525 O 0.5018 0.99989 0.52793 0.0
O526 O 0.53208 1.00176 0.53592 0.0
O527 O 0.48192 0.04283 0.56174 0.0
O528 O 0.51078 0.03514 0.52323 0.0
O529 O 0.52757 0.0227 0.50387 0.0
O530 O 0.5749 0.01937 0.53794 0.0
O531 O 0.54408 0.05367 0.54304 0.0
O532 O 0.51364 0.05229 0.54796 0.0
O533 O 0.55738 1.00317 0.51496 0.0
O534 O 0.53065 0.02418 0.54845 0.0
O535 O 0.51527 0.02538 0.57154 0.0
C536 C 0.51655 0.99297 0.52726 0.0
C537 C 0.45129 0.04096 0.5539 0.0
C538 C 0.42362 0.05231 0.5528 0.0
C539 C 0.41777 0.0411 0.56619 0.0
C540 C 0.44541 0.02975 0.56726 0.0
C541 C 0.42869 0.0299 0.57341 0.0
C542 C 0.44042 0.05222 0.54677 0.0
C543 C 0.51214 0.02675 0.5069 0.0
C544 C 0.46921 0.04232 0.54828 0.0
C545 C 0.46339 0.96048 0.57124 0.0
C546 C 0.45731 0.95592 0.55216 0.0
C547 C 0.53029 0.06119 0.54775 0.0
C548 C 0.58777 1.00222 0.51526 0.0
C549 C 0.61441 0.98903 0.51335 0.0
C550 C 0.61457 0.99268 0.49463 0.0
C551 C 0.58829 0.00594 0.49657 0.0
C552 C 0.60083 0.99364 0.5236 0.0
C553 C 0.60155 1.00105 0.4863 0.0
C554 C 0.53076 0.02467 0.56645 0.0
C555 C 0.57264 0.00546 0.52537 0.0
H556 H 0.4049 0.0412 0.57121 0.0
H557 H 0.45381 0.02114 0.5731 0.0
H558 H 0.42423 0.02143 0.58388 0.0
H559 H 0.44506 0.06098 0.53656 0.0
H560 H 0.62475 0.98896 0.48641 0.0
H561 H 0.57821 0.01226 0.48976 0.0
H562 H 0.60042 0.99057 0.53795 0.0
H563 H 0.6017 1.00368 0.47182 0.0
Eu564 Eu 0.31117 0.26597 0.78228 0.0
C565 C 0.23985 0.29372 0.74388 0.0
N566 N 0.25071 0.30128 0.75963 0.0
C567 C 0.24857 0.33051 0.75133 0.0
C568 C 0.23356 0.30435 0.73071 0.0
C569 C 0.25427 0.31937 0.76405 0.0
C570 C 0.23846 0.32296 0.73439 0.0
C571 C 0.22158 0.26718 0.7262 0.0
C572 C 0.23395 0.27542 0.74164 0.0
C573 C 0.21606 0.27756 0.71247 0.0
C574 C 0.22206 0.29611 0.71471 0.0
Eu575 Eu 0.26106 0.28155 0.77958 0.0
N576 N 0.23963 0.26577 0.7551 0.0
C577 C 0.21486 0.24883 0.72524 0.0
C578 C 0.23228 0.24813 0.75487 0.0
C579 C 0.22004 0.23932 0.7398 0.0
H580 H 0.26164 0.32521 0.7774 0.0
H581 H 0.21461 0.22523 0.73945 0.0
H582 H 0.301 0.22221 0.78908 0.0
H583 H 0.35691 0.32104 0.82549 0.0
H584 H 0.23616 0.24083 0.76613 0.0
H585 H 0.20537 0.24199 0.71359 0.0
H586 H 0.33483 0.30713 0.79892 0.0
H587 H 0.25186 0.34489 0.75467 0.0
H588 H 0.20678 0.27144 0.70035 0.0
H589 H 0.21727 0.30403 0.7043 0.0
H590 H 0.30708 0.20299 0.81342 0.0
H591 H 0.23392 0.3316 0.72463 0.0
H592 H 0.36598 0.30293 0.8501 0.0
N593 N 0.31614 0.24602 0.80455 0.0
C594 C 0.32817 0.25301 0.81974 0.0
C595 C 0.31291 0.21708 0.8155 0.0
C596 C 0.33256 0.24227 0.83374 0.0
C597 C 0.30914 0.22816 0.80188 0.0
C598 C 0.32453 0.22419 0.83159 0.0
N599 N 0.33139 0.28124 0.80796 0.0
C600 C 0.33865 0.29898 0.80935 0.0
C601 C 0.34875 0.2785 0.83694 0.0
C602 C 0.33622 0.27098 0.82132 0.0
C603 C 0.35634 0.29666 0.83831 0.0
C604 C 0.35122 0.30695 0.82448 0.0
H605 H 0.32752 0.21553 0.84205 0.0
H606 H 0.34839 0.24173 0.8602 0.0
H607 H 0.36252 0.27342 0.86302 0.0
O608 O 0.33829 0.27174 0.77322 0.0
O609 O 0.30089 0.27427 0.81005 0.0
O610 O 0.28428 0.29481 0.80093 0.0
O611 O 0.32163 0.24513 0.76662 0.0
O612 O 0.31133 0.294 0.77432 0.0
O613 O 0.28394 0.30407 0.77441 0.0
O614 O 0.23903 0.27024 0.79528 0.0
O615 O 0.26691 0.26389 0.75402 0.0
O616 O 0.29723 0.27241 0.75514 0.0
O617 O 0.24802 0.29859 0.7975 0.0
O618 O 0.26871 0.2584 0.79382 0.0
O619 O 0.28632 0.24417 0.77629 0.0
C620 C 0.29177 0.28697 0.81413 0.0
C621 C 0.35113 0.24835 0.75623 0.0
C622 C 0.37836 0.25213 0.74047 0.0
C623 C 0.37847 0.23379 0.74076 0.0
C624 C 0.35166 0.23007 0.75615 0.0
C625 C 0.36522 0.22289 0.74848 0.0
C626 C 0.36452 0.25943 0.7482 0.0
C627 C 0.30132 0.30635 0.77239 0.0
C628 C 0.33687 0.25541 0.76543 0.0
C629 C 0.34492 0.24979 0.84932 0.0
C630 C 0.35302 0.26782 0.85089 0.0
C631 C 0.28185 0.26405 0.74621 0.0
C632 C 0.21795 0.28908 0.80307 0.0
C633 C 0.19039 0.28722 0.81846 0.0
C634 C 0.18477 0.29937 0.80682 0.0
C635 C 0.21164 0.30095 0.79146 0.0
C636 C 0.20715 0.28212 0.81663 0.0
C637 C 0.19528 0.30611 0.79344 0.0
C638 C 0.27193 0.24376 0.78497 0.0
C639 C 0.23651 0.28576 0.8024 0.0
H640 H 0.38882 0.22781 0.73481 0.0
H641 H 0.34168 0.22131 0.76231 0.0
H642 H 0.36551 0.2088 0.74859 0.0
H643 H 0.36432 0.27357 0.74818 0.0
H644 H 0.17215 0.30368 0.80812 0.0
H645 H 0.21959 0.30663 0.78111 0.0
H646 H 0.21187 0.27312 0.82586 0.0
H647 H 0.19077 0.31553 0.78465 0.0
Eu648 Eu 0.04535 1.00286 0.51645 0.0
C649 C 0.01648 0.06806 0.5577 0.0
N650 N 0.0087 0.05638 0.54255 0.0
C651 C 0.98014 0.05474 0.55393 0.0
C652 C 0.0062 0.07364 0.57157 0.0
C653 C 0.99078 0.04986 0.54034 0.0
C654 C 0.98787 0.06669 0.56961 0.0
C655 C 0.0431 0.08696 0.57469 0.0
C656 C 0.0348 0.0745 0.55935 0.0
C657 C 0.03277 0.09291 0.58821 0.0
C658 C 0.01444 0.08612 0.58679 0.0
Eu659 Eu 0.02776 0.04977 0.52018 0.0
N660 N 0.04449 0.06854 0.54601 0.0
C661 C 0.0615 0.09325 0.57583 0.0
C662 C 0.06233 0.07493 0.54684 0.0
C663 C 0.07116 0.08716 0.56188 0.0
H664 H 0.98455 0.04125 0.52788 0.0
H665 H 0.08535 0.09215 0.56252 0.0
H666 H 0.08772 0.01099 0.50619 0.0
H667 H 0.98629 0.95987 0.4769 0.0
H668 H 0.06973 0.07098 0.53579 0.0
H669 H 0.06834 0.10299 0.58727 0.0
H670 H 1.00336 0.97985 0.50375 0.0
H671 H 0.96594 0.04948 0.55216 0.0
H672 H 0.03879 0.10288 0.59977 0.0
H673 H 0.00671 0.09075 0.59744 0.0
H674 H 0.10491 1.00343 0.48032 0.0
H675 H 0.97955 0.0706 0.58001 0.0
H676 H 1.00147 0.95089 0.44974 0.0
N677 N 0.063 0.99639 0.49249 0.0
C678 C 0.0545 0.98501 0.4774 0.0
C679 C 0.09072 0.99826 0.47925 0.0
C680 C 0.0639 0.97991 0.4625 0.0
C681 C 0.08089 1.0028 0.49376 0.0
C682 C 0.08219 0.98681 0.46352 0.0
N683 N 0.02751 0.98379 0.4913 0.0
C684 C 0.00993 0.97684 0.49169 0.0
C685 C 0.0272 0.9665 0.46143 0.0
C686 C 0.0363 0.97845 0.47684 0.0
C687 C 0.00894 0.96005 0.46134 0.0
C688 C 1.0003 0.96516 0.4766 0.0
H689 H 0.08986 0.98321 0.45236 0.0
H690 H 0.06189 0.9638 0.4357 0.0
H691 H 0.02996 0.95166 0.43508 0.0
O692 O 0.03787 0.97942 0.53219 0.0
O693 O 0.03794 0.01436 0.48903 0.0
O694 O 0.01528 0.02922 0.49582 0.0
O695 O 0.06468 0.98641 0.52397 0.0
O696 O 0.01968 1.00417 0.53005 0.0
O697 O 0.00634 0.02476 0.51519 0.0
O698 O 0.03661 0.07315 0.50435 0.0
O699 O 0.03534 0.03871 0.54801 0.0
O700 O 0.05747 0.02291 0.54158 0.0
O701 O 0.00938 0.06657 0.51129 0.0
O702 O 0.05292 0.04767 0.50639 0.0
O703 O 0.06692 0.02777 0.52153 0.0
C704 C 0.02374 0.02099 0.48375 0.0
C705 C 0.05971 0.96003 0.5403 0.0
C706 C 0.05545 0.93416 0.55817 0.0
C707 C 0.07237 0.93099 0.55458 0.0
C708 C 0.07662 0.95641 0.537 0.0
C709 C 0.08284 0.94203 0.54408 0.0
C710 C 0.04903 0.94875 0.55099 0.0
C711 C 1.0054 0.01058 0.52437 0.0
C712 C 0.05375 0.97543 0.53206 0.0
C713 C 0.05486 0.96799 0.44719 0.0
C714 C 0.03662 0.96119 0.44675 0.0
C715 C 0.04875 0.03096 0.55356 0.0
C716 C 0.01513 0.09311 0.49526 0.0
C717 C 0.01842 0.11845 0.4761 0.0
C718 C 1.00185 0.12184 0.48078 0.0
C719 C 0.99863 0.09723 0.49946 0.0
C720 C 0.02526 0.10402 0.48357 0.0
C721 C 0.99212 0.11139 0.49232 0.0
C722 C 0.06745 0.042 0.51248 0.0
C723 C 0.02079 0.0774 0.50356 0.0
H724 H 0.07747 0.91986 0.55992 0.0
H725 H 0.08511 0.96465 0.52879 0.0
H726 H 0.09586 0.93941 0.54136 0.0
H727 H 0.03593 0.95122 0.55366 0.0
H728 H 0.99635 0.13277 0.47544 0.0
H729 H 0.99055 0.08946 0.50841 0.0
H730 H 0.03801 0.10118 0.48009 0.0
H731 H 0.97939 0.11426 0.49575 0.0
Eu732 Eu 0.28667 0.81271 0.75293 0.0
C733 C 0.24595 0.74526 0.79238 0.0
N734 N 0.26213 0.75616 0.79775 0.0
C735 C 0.25619 0.75769 0.82989 0.0
C736 C 0.234 0.74089 0.8057 0.0
C737 C 0.26771 0.76154 0.81635 0.0
C738 C 0.23915 0.74766 0.82452 0.0
C739 C 0.22549 0.7252 0.7683 0.0
C740 C 0.24163 0.73744 0.77373 0.0
C741 C 0.2134 0.72146 0.78145 0.0
C742 C 0.21761 0.72932 0.80005 0.0
Eu743 Eu 0.28001 0.7606 0.77306 0.0
N744 N 0.2533 0.74147 0.76097 0.0
C745 C 0.222 0.71696 0.74976 0.0
C746 C 0.25043 0.73288 0.74317 0.0
C747 C 0.23452 0.72085 0.73716 0.0
H748 H 0.28119 0.76838 0.82105 0.0
H749 H 0.23182 0.71475 0.7228 0.0
H750 H 0.29446 0.80058 0.70717 0.0
H751 H 0.32686 0.86249 0.8064 0.0
H752 H 0.26032 0.73551 0.73362 0.0
H753 H 0.2097 0.7076 0.74504 0.0
H754 H 0.30027 0.84039 0.79248 0.0
H755 H 0.26065 0.76203 0.84454 0.0
H756 H 0.20086 0.71226 0.77745 0.0
H757 H 0.20828 0.72596 0.8101 0.0
H758 H 0.31873 0.80638 0.68791 0.0
H759 H 0.23036 0.74454 0.83515 0.0
H760 H 0.35263 0.86904 0.78834 0.0
N761 N 0.30891 0.81613 0.73203 0.0
C762 C 0.32393 0.82833 0.739 0.0
C763 C 0.32048 0.81239 0.70235 0.0
C764 C 0.33802 0.83242 0.72791 0.0
C765 C 0.30678 0.8088 0.71367 0.0
C766 C 0.33623 0.82407 0.70954 0.0
N767 N 0.31149 0.83344 0.76772 0.0
C768 C 0.31174 0.8426 0.78493 0.0
C769 C 0.34045 0.85016 0.76432 0.0
C770 C 0.32516 0.83731 0.7571 0.0
C771 C 0.34111 0.85909 0.78234 0.0
C772 C 0.32664 0.85538 0.79263 0.0
H773 H 0.34672 0.82694 0.70061 0.0
H774 H 0.36422 0.84824 0.72689 0.0
H775 H 0.36637 0.86364 0.75871 0.0
O776 O 0.27631 0.83729 0.76163 0.0
O777 O 0.31226 0.805 0.76805 0.0
O778 O 0.30881 0.77637 0.77867 0.0
O779 O 0.27812 0.82863 0.732 0.0
O780 O 0.27496 0.80133 0.77762 0.0
O781 O 0.28816 0.78363 0.79547 0.0
O782 O 0.29185 0.73935 0.75918 0.0
O783 O 0.25422 0.7683 0.75825 0.0
O784 O 0.2576 0.79815 0.75135 0.0
O785 O 0.28718 0.73922 0.78825 0.0
O786 O 0.29103 0.77512 0.75038 0.0
O787 O 0.27831 0.79002 0.73012 0.0
C788 C 0.31862 0.79192 0.77596 0.0
C789 C 0.26702 0.85596 0.73769 0.0
C790 C 0.25245 0.88163 0.7427 0.0
C791 C 0.25454 0.88526 0.72422 0.0
C792 C 0.26893 0.85987 0.71922 0.0
C793 C 0.26268 0.8744 0.71256 0.0
C794 C 0.25861 0.86685 0.74944 0.0
C795 C 0.28452 0.79935 0.79298 0.0
C796 C 0.27382 0.84043 0.74414 0.0
C797 C 0.35331 0.84503 0.73524 0.0
C798 C 0.35453 0.85384 0.75336 0.0
C799 C 0.2477 0.78226 0.7525 0.0
C800 C 0.31201 0.72764 0.77972 0.0
C801 C 0.33236 0.70641 0.77968 0.0
C802 C 0.34471 0.71855 0.79245 0.0
C803 C 0.32448 0.73953 0.79269 0.0
C804 C 0.31605 0.71105 0.77314 0.0
C805 C 0.34081 0.73508 0.79882 0.0
C806 C 0.28223 0.77492 0.73413 0.0
C807 C 0.29424 0.73184 0.77451 0.0
H808 H 0.2497 0.89648 0.71875 0.0
H809 H 0.27532 0.85172 0.70986 0.0
H810 H 0.26417 0.87725 0.69832 0.0
H811 H 0.25697 0.86398 0.76367 0.0
H812 H 0.35728 0.71512 0.79766 0.0
H813 H 0.3215 0.7522 0.7983 0.0
H814 H 0.30634 0.70157 0.76352 0.0
H815 H 0.35033 0.74434 0.80879 0.0
Eu816 Eu 0.52239 0.0537 0.9879 0.0
C817 C 0.55095 0.01261 0.06239 0.0
N818 N 0.53844 0.00537 0.04784 0.0
C819 C 0.54945 0.97785 0.0467 0.0
C820 C 0.56359 1.00277 0.06944 0.0
C821 C 0.5373 0.98818 0.04018 0.0
C822 C 0.56279 0.98524 0.06129 0.0
C823 C 0.56347 0.0375 0.08593 0.0
C824 C 0.55087 0.02977 0.07044 0.0
C825 C 0.57635 0.02793 0.09273 0.0
C826 C 0.57643 0.01062 0.08448 0.0
Eu827 Eu 0.51916 0.0237 0.03627 0.0
N828 N 0.53814 0.03862 0.06357 0.0
C829 C 0.56253 0.05447 0.09441 0.0
C830 C 0.53654 0.0547 0.07269 0.0
C831 C 0.54886 0.06299 0.08791 0.0
H832 H 0.5268 0.98234 0.02926 0.0
H833 H 0.5476 0.07585 0.09481 0.0
H834 H 0.51657 0.09535 0.00171 0.0
H835 H 0.48595 0.00535 0.92986 0.0
H836 H 0.52562 0.06119 0.06889 0.0
H837 H 0.57194 0.06085 0.10632 0.0
H838 H 0.50836 0.01609 0.95687 0.0
H839 H 0.54849 0.9642 0.0405 0.0
H840 H 0.58617 0.03373 0.10453 0.0
H841 H 0.58631 1.00332 0.09001 0.0
H842 H 0.49722 0.11637 0.9924 0.0
H843 H 0.57222 0.97723 0.06633 0.0
H844 H 0.46587 0.02503 0.91841 0.0
N845 N 0.50453 0.07479 0.97995 0.0
C846 C 0.49231 0.06993 0.96452 0.0
C847 C 0.49562 0.10331 0.98451 0.0
C848 C 0.48091 0.08154 0.95877 0.0
C849 C 0.50647 0.09128 0.98984 0.0
C850 C 0.48273 0.0984 0.96897 0.0
N851 N 0.50148 0.04186 0.96114 0.0
C852 C 0.49994 0.025 0.95221 0.0
C853 C 0.47757 0.04729 0.93931 0.0
C854 C 0.49077 0.05303 0.95478 0.0
C855 C 0.47589 0.02995 0.93029 0.0
C856 C 0.48715 0.01879 0.93674 0.0
H857 H 0.47426 0.10771 0.96497 0.0
H858 H 0.45902 0.08464 0.93869 0.0
H859 H 0.45601 0.05461 0.92175 0.0
O860 O 0.54303 0.05305 0.9692 0.0
O861 O 0.49337 0.04335 0.99012 0.0
O862 O 0.50935 0.0325 0.01032 0.0
O863 O 0.53923 0.07833 0.98287 0.0
O864 O 0.52882 0.02467 0.98412 0.0
O865 O 0.51898 0.00686 0.00782 0.0
O866 O 0.49615 0.02373 0.05158 0.0
O867 O 0.5473 0.03047 0.02899 0.0
O868 O 0.53768 0.05237 0.01571 0.0
O869 O 0.50169 0.99857 0.0396 0.0
O870 O 0.51071 0.05149 0.03929 0.0
O871 O 0.52285 0.06954 0.01707 0.0
C872 C 0.49351 0.03345 0.00342 0.0
C873 C 0.54809 0.07846 0.95252 0.0
C874 C 0.55556 0.07634 0.92045 0.0
C875 C 0.5544 0.09447 0.91985 0.0
C876 C 0.547 0.09654 0.95174 0.0
C877 C 0.54986 0.10439 0.93534 0.0
C878 C 0.55167 0.06834 0.93662 0.0
C879 C 0.52504 0.00895 0.99117 0.0
C880 C 0.54707 0.07045 0.97021 0.0
C881 C 0.46793 0.07592 0.94323 0.0
C882 C 0.46624 0.05884 0.93356 0.0
C883 C 0.55026 0.04321 0.0183 0.0
C884 C 0.49107 0.99996 0.06948 0.0
C885 C 0.48246 0.00505 0.10079 0.0
C886 C 0.49191 0.99198 0.10664 0.0
C887 C 0.50038 0.98678 0.07539 0.0
C888 C 0.48176 0.00869 0.08215 0.0
C889 C 0.50065 0.98275 0.09389 0.0
C890 C 0.51491 0.06717 0.03258 0.0
C891 C 0.49255 0.00641 0.05107 0.0
H892 H 0.55771 0.10126 0.9078 0.0
H893 H 0.54429 0.10471 0.96387 0.0
H894 H 0.54922 0.11838 0.93488 0.0
H895 H 0.55215 0.05432 0.93715 0.0
H896 H 0.49239 0.98884 0.121 0.0
H897 H 0.50777 0.97991 0.06592 0.0
H898 H 0.47464 0.01897 0.07773 0.0
H899 H 0.50789 0.97266 0.09844 0.0
Eu900 Eu 0.26222 0.24634 0.25088 0.0
C901 C 0.32042 0.30889 0.29833 0.0
N902 N 0.30498 0.29896 0.30232 0.0
C903 C 0.31783 0.29889 0.33395 0.0
C904 C 0.3353 0.31401 0.3121 0.0
C905 C 0.30341 0.29412 0.31992 0.0
C906 C 0.33385 0.30881 0.33005 0.0
C907 C 0.33719 0.32435 0.27587 0.0
C908 C 0.32134 0.31408 0.28042 0.0
C909 C 0.35202 0.32939 0.28955 0.0
C910 C 0.35107 0.32426 0.30761 0.0
Eu911 Eu 0.28106 0.29319 0.27801 0.0
N912 N 0.3069 0.30873 0.26732 0.0
C913 C 0.33768 0.32922 0.25768 0.0
C914 C 0.3071 0.31408 0.24984 0.0
C915 C 0.32251 0.32415 0.24467 0.0
H916 H 0.2909 0.28712 0.32343 0.0
H917 H 0.32253 0.32825 0.23074 0.0
H918 H 0.24895 0.25482 0.20705 0.0
H919 H 0.22355 0.2122 0.30121 0.0
H920 H 0.29535 0.31104 0.23998 0.0
H921 H 0.3496 0.33708 0.25362 0.0
H922 H 0.25065 0.22677 0.28923 0.0
H923 H 0.31648 0.29514 0.34784 0.0
H924 H 0.36429 0.33729 0.28631 0.0
H925 H 0.3626 0.32832 0.31804 0.0
H926 H 0.22136 0.24981 0.18525 0.0
H927 H 0.34494 0.31255 0.34105 0.0
H928 H 0.19449 0.20739 0.28151 0.0
N929 N 0.23634 0.24367 0.22933 0.0
C930 C 0.221 0.23482 0.23475 0.0
C931 C 0.22102 0.24574 0.1992 0.0
C932 C 0.20492 0.2314 0.22255 0.0
C933 C 0.23661 0.24889 0.21175 0.0
C934 C 0.20509 0.23702 0.20464 0.0
N935 N 0.23704 0.23245 0.2641 0.0
C936 C 0.23803 0.22592 0.28104 0.0
C937 C 0.20554 0.22011 0.25856 0.0
C938 C 0.22133 0.22916 0.2526 0.0
C939 C 0.20633 0.21437 0.27643 0.0
C940 C 0.22268 0.21716 0.28764 0.0
H941 H 0.19305 0.23451 0.19483 0.0
H942 H 0.1768 0.21963 0.2193 0.0
H943 H 0.17731 0.20984 0.25081 0.0
O944 O 0.26764 0.21957 0.25375 0.0
O945 O 0.24142 0.26411 0.25839 0.0
O946 O 0.25451 0.27943 0.2863 0.0
O947 O 0.2607 0.22737 0.22584 0.0
O948 O 0.27733 0.24641 0.2802 0.0
O949 O 0.27152 0.2718 0.29595 0.0
O950 O 0.26948 0.31624 0.27131 0.0
O951 O 0.30362 0.27892 0.26882 0.0
O952 O 0.29123 0.25616 0.24533 0.0
O953 O 0.28085 0.31458 0.30018 0.0
O954 O 0.26671 0.29186 0.24845 0.0
O955 O 0.27323 0.26695 0.23262 0.0
C956 C 0.24 0.27274 0.2748 0.0
C957 C 0.2663 0.1973 0.22702 0.0
C958 C 0.27852 0.17028 0.22903 0.0
C959 C 0.27182 0.16446 0.21021 0.0
C960 C 0.25952 0.19141 0.20824 0.0
C961 C 0.26223 0.17498 0.19992 0.0
C962 C 0.27561 0.18662 0.23735 0.0
C963 C 0.27577 0.25597 0.29597 0.0
C964 C 0.26483 0.215 0.23565 0.0
C965 C 0.18924 0.2224 0.22851 0.0
C966 C 0.18953 0.21683 0.24646 0.0
C967 C 0.30528 0.26683 0.25501 0.0
C968 C 0.26813 0.34067 0.29489 0.0
C969 C 0.25613 0.36658 0.28731 0.0
C970 C 0.25897 0.37353 0.30629 0.0
C971 C 0.27089 0.34753 0.31396 0.0
C972 C 0.26058 0.35019 0.28164 0.0
C973 C 0.26627 0.36393 0.31961 0.0
C974 C 0.26963 0.28307 0.23284 0.0
C975 C 0.27277 0.32353 0.28873 0.0
H976 H 0.27398 0.15182 0.20355 0.0
H977 H 0.25231 0.19955 0.19997 0.0
H978 H 0.25707 0.17048 0.18542 0.0
H979 H 0.28125 0.19135 0.25171 0.0
H980 H 0.25545 0.38628 0.31075 0.0
H981 H 0.27656 0.34024 0.32446 0.0
H982 H 0.25832 0.34503 0.26688 0.0
H983 H 0.26836 0.3692 0.33429 0.0
Eu984 Eu 0.54409 0.50196 0.01706 0.0
C985 C 0.52026 0.57002 0.05864 0.0
N986 N 0.51186 0.55911 0.04315 0.0
C987 C 0.48353 0.55939 0.05462 0.0
C988 C 0.51053 0.57547 0.07311 0.0
C989 C 0.49367 0.55468 0.04047 0.0
C990 C 0.49203 0.56957 0.07116 0.0
C991 C 0.54726 0.58912 0.07476 0.0
C992 C 0.53848 0.57673 0.05954 0.0
C993 C 0.53771 0.594 0.08949 0.0
C994 C 0.51943 0.58713 0.08871 0.0
Eu995 Eu 0.53062 0.55161 0.02066 0.0
N996 N 0.54763 0.57127 0.04549 0.0
C997 C 0.56541 0.59617 0.07472 0.0
C998 C 0.56494 0.57904 0.04468 0.0
C999 C 0.57422 0.5913 0.05947 0.0
H1000 H 0.48688 0.54793 0.02728 0.0
H1001 H 0.58808 0.59711 0.05902 0.0
H1002 H 0.58715 0.51035 0.00834 0.0
H1003 H 0.48566 0.46074 0.97462 0.0
H1004 H 0.57154 0.57571 0.03261 0.0
H1005 H 0.57263 0.60567 0.08618 0.0
H1006 H 0.50218 0.47937 0.0027 0.0
H1007 H 0.46914 0.5555 0.05258 0.0
H1008 H 0.54429 0.60328 0.10143 0.0
H1009 H 0.51218 0.59131 0.10002 0.0
H1010 H 0.60477 0.50412 0.98253 0.0
H1011 H 0.4841 0.57343 0.08199 0.0
H1012 H 0.5014 0.4537 0.94726 0.0
N1013 N 0.56235 0.49713 0.99324 0.0
C1014 C 0.55409 0.48649 0.97753 0.0
C1015 C 0.5905 0.49927 0.98085 0.0
C1016 C 0.56377 0.48234 0.96252 0.0
C1017 C 0.58038 0.50303 0.99536 0.0
C1018 C 0.58214 0.48902 0.96429 0.0
N1019 N 0.52683 0.48362 0.99117 0.0
C1020 C 0.50912 0.47676 0.99079 0.0
C1021 C 0.52699 0.46872 0.96018 0.0
C1022 C 0.53588 0.47958 0.97644 0.0
C1023 C 0.5087 0.46206 0.95952 0.0
C1024 C 0.49976 0.46603 0.97492 0.0
H1025 H 0.59005 0.48607 0.9531 0.0
H1026 H 0.56215 0.46825 0.93468 0.0
H1027 H 0.52997 0.45647 0.93257 0.0
O1028 O 0.5383 0.47414 0.02408 0.0
O1029 O 0.53733 0.51542 0.99077 0.0
O1030 O 0.51526 0.53139 0.99712 0.0
O1031 O 0.56505 0.49044 0.03134 0.0
O1032 O 0.5175 0.503 0.02799 0.0
O1033 O 0.50667 0.52819 0.01912 0.0
O1034 O 0.53852 0.56829 0.99817 0.0
O1035 O 0.54794 0.5444 0.04581 0.0
O1036 O 0.53805 0.51429 0.045 0.0
O1037 O 0.52049 0.5761 0.01695 0.0
O1038 O 0.55472 0.54567 0.00711 0.0
O1039 O 0.56675 0.52587 0.02419 0.0
C1040 C 0.52242 0.52098 0.98564 0.0
C1041 C 0.56133 0.46007 0.03971 0.0
C1042 C 0.55755 0.43342 0.05639 0.0
C1043 C 0.57502 0.43147 0.05361 0.0
C1044 C 0.57884 0.45787 0.03737 0.0
C1045 C 0.58558 0.44363 0.0442 0.0
C1046 C 0.55062 0.44776 0.04932 0.0
C1047 C 0.50443 0.51192 0.02475 0.0
C1048 C 0.5546 0.4751 0.03174 0.0
C1049 C 0.55492 0.47154 0.94634 0.0
C1050 C 0.53659 0.4648 0.94515 0.0
C1051 C 0.54637 0.52959 0.05404 0.0
C1052 C 0.51982 0.58896 0.98834 0.0
C1053 C 0.51815 0.6146 0.97022 0.0
C1054 C 0.49985 0.60779 0.96527 0.0
C1055 C 0.5015 0.58285 0.9832 0.0
C1056 C 0.52824 0.6049 0.98167 0.0
C1057 C 0.49164 0.59227 0.97183 0.0
C1058 C 0.56851 0.54018 0.01524 0.0
C1059 C 0.52924 0.58039 0.00299 0.0
H1060 H 0.58055 0.42053 0.05887 0.0
H1061 H 0.58726 0.46707 0.02998 0.0
H1062 H 0.59905 0.442 0.04219 0.0
H1063 H 0.53711 0.44932 0.05132 0.0
H1064 H 0.4917 0.61475 0.95651 0.0
H1065 H 0.49468 0.57111 0.98862 0.0
H1066 H 0.54223 0.61017 0.98616 0.0
H1067 H 0.4774 0.58784 0.96842 0.0
Eu1068 Eu 0.78672 0.31189 0.25196 0.0
C1069 C 0.74734 0.24451 0.28925 0.0
N1070 N 0.76332 0.2553 0.29557 0.0
C1071 C 0.75674 0.25455 0.3273 0.0
C1072 C 0.7351 0.23888 0.30184 0.0
C1073 C 0.76859 0.25941 0.31429 0.0
C1074 C 0.73978 0.24453 0.32102 0.0
C1075 C 0.72832 0.22518 0.26369 0.0
C1076 C 0.74386 0.2378 0.27034 0.0
C1077 C 0.71569 0.22026 0.27602 0.0
C1078 C 0.71902 0.22717 0.29503 0.0
Eu1079 Eu 0.78184 0.26312 0.27229 0.0
N1080 N 0.75618 0.24303 0.25859 0.0
C1081 C 0.72639 0.2173 0.24505 0.0
C1082 C 0.75505 0.23446 0.24098 0.0
C1083 C 0.73993 0.22178 0.23373 0.0
H1084 H 0.78215 0.26584 0.31913 0.0
H1085 H 0.73896 0.21511 0.21963 0.0
H1086 H 0.78864 0.30177 0.20509 0.0
H1087 H 0.83688 0.35145 0.30589 0.0
H1088 H 0.76617 0.23692 0.23295 0.0
H1089 H 0.715 0.20705 0.23958 0.0
H1090 H 0.80832 0.33165 0.2937 0.0
H1091 H 0.76085 0.25813 0.34217 0.0
H1092 H 0.70354 0.21072 0.27112 0.0
H1093 H 0.70939 0.22283 0.30448 0.0
H1094 H 0.80998 0.30842 0.18234 0.0
H1095 H 0.73074 0.2405 0.33116 0.0
H1096 H 0.85904 0.36039 0.28415 0.0
N1097 N 0.80622 0.3159 0.2286 0.0
C1098 C 0.82211 0.32709 0.23444 0.0
C1099 C 0.81364 0.31357 0.19698 0.0
C1100 C 0.83453 0.33161 0.22162 0.0
C1101 C 0.80168 0.30952 0.21008 0.0
C1102 C 0.83015 0.32459 0.20277 0.0
N1103 N 0.81409 0.32948 0.2656 0.0
C1104 C 0.81774 0.33561 0.28418 0.0
C1105 C 0.84263 0.34543 0.25965 0.0
C1106 C 0.82609 0.33416 0.25332 0.0
C1107 C 0.84646 0.35175 0.27875 0.0
C1108 C 0.83399 0.34675 0.29107 0.0
H1109 H 0.83933 0.3278 0.19252 0.0
H1110 H 0.86049 0.3467 0.21822 0.0
H1111 H 0.86763 0.35864 0.25146 0.0
O1112 O 0.77908 0.33812 0.26086 0.0
O1113 O 0.81231 0.30038 0.261 0.0
O1114 O 0.80697 0.28287 0.28521 0.0
O1115 O 0.7781 0.32788 0.23127 0.0
O1116 O 0.7736 0.30634 0.27801 0.0
O1117 O 0.78705 0.2869 0.29441 0.0
O1118 O 0.80019 0.24581 0.26209 0.0
O1119 O 0.75505 0.2703 0.26052 0.0
O1120 O 0.75776 0.29671 0.24635 0.0
O1121 O 0.7857 0.23973 0.2856 0.0
O1122 O 0.79195 0.27042 0.24524 0.0
O1123 O 0.77629 0.28867 0.23062 0.0
C1124 C 0.81804 0.2931 0.27596 0.0
C1125 C 0.76919 0.35635 0.23637 0.0
C1126 C 0.75482 0.38251 0.23997 0.0
C1127 C 0.75528 0.38394 0.22067 0.0
C1128 C 0.76977 0.35851 0.21725 0.0
C1129 C 0.76279 0.37212 0.2095 0.0
C1130 C 0.7617 0.36847 0.2478 0.0
C1131 C 0.78073 0.3018 0.29363 0.0
C1132 C 0.77532 0.34057 0.24331 0.0
C1133 C 0.85086 0.34307 0.22791 0.0
C1134 C 0.85491 0.34992 0.24684 0.0
C1135 C 0.7481 0.28223 0.25147 0.0
C1136 C 0.81172 0.22758 0.28419 0.0
C1137 C 0.82829 0.20301 0.28517 0.0
C1138 C 0.83287 0.2078 0.30454 0.0
C1139 C 0.81706 0.23249 0.30346 0.0
C1140 C 0.8177 0.21298 0.27497 0.0
C1141 C 0.82729 0.22245 0.31357 0.0
C1142 C 0.78173 0.27355 0.2309 0.0
C1143 C 0.79709 0.23499 0.27482 0.0
H1144 H 0.74956 0.39412 0.21406 0.0
H1145 H 0.77538 0.34944 0.20807 0.0
H1146 H 0.76304 0.37341 0.1947 0.0
H1147 H 0.76111 0.36692 0.26253 0.0
H1148 H 0.84073 0.20011 0.3127 0.0
H1149 H 0.81249 0.24351 0.31094 0.0
H1150 H 0.81327 0.20874 0.26022 0.0
H1151 H 0.83065 0.22585 0.32855 0.0
Eu1152 Eu 0.02156 0.55361 0.48715 0.0
C1153 C 0.0529 0.51188 0.55834 0.0
N1154 N 0.04044 0.5053 0.54352 0.0
C1155 C 0.0541 0.47973 0.5379 0.0
C1156 C 0.06697 0.50287 0.56314 0.0
C1157 C 0.04063 0.48934 0.53345 0.0
C1158 C 0.06749 0.48663 0.55263 0.0
C1159 C 0.06382 0.53455 0.58465 0.0
C1160 C 0.05135 0.52754 0.56885 0.0
C1161 C 0.07831 0.52606 0.58905 0.0
C1162 C 0.07985 0.51022 0.57834 0.0
Eu1163 Eu 0.01921 0.52296 0.53557 0.0
N1164 N 0.03715 0.53536 0.5642 0.0
C1165 C 0.06102 0.54954 0.59588 0.0
C1166 C 0.03346 0.54885 0.5762 0.0
C1167 C 0.04555 0.55645 0.59188 0.0
H1168 H 0.03037 0.48398 0.522 0.0
H1169 H 0.04282 0.56752 0.60097 0.0
H1170 H 0.01216 0.59423 0.49986 0.0
H1171 H 0.99204 0.50446 0.42683 0.0
H1172 H 0.02118 0.55382 0.57394 0.0
H1173 H 0.07032 0.55539 0.60808 0.0
H1174 H 0.01317 0.51673 0.4545 0.0
H1175 H 0.0541 0.46704 0.52996 0.0
H1176 H 0.08814 0.53139 0.60098 0.0
H1177 H 0.09088 0.50361 0.58213 0.0
H1178 H 0.99092 0.61307 0.48964 0.0
H1179 H 0.07799 0.4792 0.55594 0.0
H1180 H 0.96954 0.52158 0.41515 0.0
N1181 N 1.00198 0.57285 0.47827 0.0
C1182 C 0.99036 0.56704 0.46251 0.0
C1183 C 0.99052 0.6001 0.48197 0.0
C1184 C 0.97801 0.57748 0.45615 0.0
C1185 C 1.00242 0.58925 0.48785 0.0
C1186 C 0.9782 0.59416 0.46612 0.0
N1187 N 1.00238 0.54043 0.45961 0.0
C1188 C 1.00326 0.52431 0.45013 0.0
C1189 C 0.97831 0.54387 0.43681 0.0
C1190 C 0.99056 0.55041 0.45291 0.0
C1191 C 0.97876 0.52707 0.42752 0.0
C1192 C 0.99138 0.51734 0.43413 0.0
H1193 H 0.96895 0.60258 0.46165 0.0
H1194 H 0.95617 0.57877 0.43514 0.0
H1195 H 0.95639 0.54934 0.41827 0.0
O1196 O 0.04244 0.55424 0.46858 0.0
O1197 O 0.99275 0.54304 0.48956 0.0
O1198 O 0.00873 0.53306 0.51058 0.0
O1199 O 0.0371 0.57898 0.48201 0.0
O1200 O 0.02912 0.52498 0.48435 0.0
O1201 O 0.01632 0.50691 0.50632 0.0
O1202 O 0.99554 0.52225 0.5501 0.0
O1203 O 0.04675 0.52976 0.52698 0.0
O1204 O 0.03773 0.55256 0.51453 0.0
O1205 O 1.00321 0.49747 0.54009 0.0
O1206 O 0.01548 0.55228 0.54128 0.0
O1207 O 0.01931 0.56955 0.51573 0.0
C1208 C 0.99286 0.53383 0.50345 0.0
C1209 C 0.0443 0.57864 0.45093 0.0
C1210 C 0.05413 0.5788 0.42004 0.0
C1211 C 0.04292 0.59076 0.41539 0.0
C1212 C 0.03285 0.5905 0.4462 0.0
C1213 C 0.03221 0.59652 0.42847 0.0
C1214 C 0.05483 0.57283 0.43774 0.0
C1215 C 0.02407 0.50912 0.49069 0.0
C1216 C 0.04513 0.5716 0.46914 0.0
C1217 C 0.96581 0.57097 0.44016 0.0
C1218 C 0.96594 0.55421 0.43054 0.0
C1219 C 0.04991 0.54287 0.51676 0.0
C1220 C 0.99179 0.49927 0.5695 0.0
C1221 C 0.9831 0.50474 0.60077 0.0
C1222 C 0.99189 0.4912 0.60663 0.0
C1223 C 1.00041 0.48562 0.57548 0.0
C1224 C 0.98281 0.50849 0.58215 0.0
C1225 C 1.00034 0.48158 0.59395 0.0
C1226 C 0.01615 0.56745 0.53341 0.0
C1227 C 0.99318 0.50504 0.55073 0.0
H1228 H 0.04238 0.59549 0.40169 0.0
H1229 H 0.02441 0.59511 0.45609 0.0
H1230 H 0.02341 0.60563 0.42488 0.0
H1231 H 0.06365 0.56365 0.44126 0.0
H1232 H 0.99203 0.48796 0.62094 0.0
H1233 H 0.00746 0.47828 0.56603 0.0
H1234 H 0.97611 0.51904 0.5777 0.0
H1235 H 0.00703 0.47111 0.59851 0.0
Eu1236 Eu 0.80776 0.76584 0.28208 0.0
C1237 C 0.74097 0.7918 0.23854 0.0
N1238 N 0.75096 0.80051 0.25441 0.0
C1239 C 0.74887 0.82881 0.2436 0.0
C1240 C 0.73465 0.80142 0.22438 0.0
C1241 C 0.75453 0.8187 0.25739 0.0
C1242 C 0.739 0.82013 0.22694 0.0
C1243 C 0.72529 0.76393 0.22091 0.0
C1244 C 0.73654 0.7732 0.2367 0.0
C1245 C 0.71909 0.77348 0.20673 0.0
C1246 C 0.72389 0.79215 0.20838 0.0
Eu1247 Eu 0.75997 0.78237 0.27665 0.0
N1248 N 0.74297 0.76422 0.25051 0.0
C1249 C 0.72021 0.74536 0.22009 0.0
C1250 C 0.7377 0.7462 0.24994 0.0
C1251 C 0.72646 0.73646 0.23464 0.0
H1252 H 0.76112 0.82533 0.27075 0.0
H1253 H 0.72229 0.72215 0.23429 0.0
H1254 H 0.7993 0.72216 0.28868 0.0
H1255 H 0.84725 0.82293 0.32804 0.0
H1256 H 0.74164 0.73933 0.26144 0.0
H1257 H 0.71102 0.73783 0.20861 0.0
H1258 H 0.82646 0.80784 0.30074 0.0
H1259 H 0.75181 0.84326 0.24597 0.0
H1260 H 0.71039 0.7666 0.19452 0.0
H1261 H 0.71888 0.79932 0.19737 0.0
H1262 H 0.80718 0.70284 0.3124 0.0
H1263 H 0.73442 0.82799 0.21637 0.0
H1264 H 0.85825 0.80517 0.35207 0.0
N1265 N 0.81384 0.74614 0.30425 0.0
C1266 C 0.82533 0.75353 0.31968 0.0
C1267 C 0.81224 0.71709 0.31472 0.0
C1268 C 0.83063 0.74287 0.33336 0.0
C1269 C 0.80749 0.72814 0.30146 0.0
C1270 C 0.82383 0.72448 0.33076 0.0
N1271 N 0.82583 0.78191 0.30887 0.0
C1272 C 0.83131 0.79998 0.31091 0.0
C1273 C 0.84352 0.77992 0.33788 0.0
C1274 C 0.83174 0.77186 0.3219 0.0
C1275 C 0.84922 0.79848 0.33999 0.0
C1276 C 0.84303 0.80856 0.32647 0.0
H1277 H 0.82758 0.71585 0.34095 0.0
H1278 H 0.8468 0.74284 0.35974 0.0
H1279 H 0.85806 0.77527 0.36371 0.0
O1280 O 0.83116 0.77435 0.26641 0.0
O1281 O 0.79655 0.77497 0.30909 0.0
O1282 O 0.77992 0.79611 0.30091 0.0
O1283 O 0.82498 0.74746 0.27465 0.0
O1284 O 0.80704 0.79191 0.2692 0.0
O1285 O 0.7841 0.8054 0.27976 0.0
O1286 O 0.73824 0.77163 0.29291 0.0
O1287 O 0.77205 0.77503 0.24951 0.0
O1288 O 0.78814 0.75338 0.25675 0.0
O1289 O 0.7395 0.79773 0.28384 0.0
O1290 O 0.7634 0.75816 0.29184 0.0
O1291 O 0.78297 0.74437 0.27637 0.0
C1292 C 0.78819 0.78823 0.3136 0.0
C1293 C 0.8512 0.75286 0.25851 0.0
C1294 C 0.87768 0.7575 0.24162 0.0
C1295 C 0.8806 0.74039 0.24496 0.0
C1296 C 0.85462 0.73576 0.26152 0.0
C1297 C 0.86913 0.72962 0.25477 0.0
C1298 C 0.86282 0.76378 0.24832 0.0
C1299 C 0.79978 0.80613 0.27306 0.0
C1300 C 0.83563 0.75863 0.26654 0.0
C1301 C 0.84254 0.75084 0.34914 0.0
C1302 C 0.84898 0.7693 0.35139 0.0
C1303 C 0.78043 0.762 0.24438 0.0
C1304 C 0.72334 0.79216 0.31011 0.0
C1305 C 0.6992 0.79054 0.33065 0.0
C1306 C 0.70863 0.80617 0.34143 0.0
C1307 C 0.73194 0.80813 0.32089 0.0
C1308 C 0.70672 0.7834 0.31501 0.0
C1309 C 0.72481 0.81488 0.33656 0.0
C1310 C 0.76923 0.74367 0.28602 0.0
C1311 C 0.73078 0.78572 0.29284 0.0
H1312 H 0.89184 0.73532 0.23988 0.0
H1313 H 0.8461 0.72701 0.26925 0.0
H1314 H 0.87155 0.71645 0.25724 0.0
H1315 H 0.86051 0.77699 0.24586 0.0
H1316 H 0.70319 0.81193 0.35342 0.0
H1317 H 0.74396 0.81571 0.31686 0.0
H1318 H 0.69951 0.77142 0.30646 0.0
H1319 H 0.73168 0.82719 0.34474 0.0
Eu1320 Eu 0.75797 0.28728 0.81019 0.0
C1321 C 0.804 0.26093 0.73615 0.0
N1322 N 0.80907 0.2729 0.75174 0.0
C1323 C 0.83882 0.26683 0.75308 0.0
C1324 C 0.81617 0.25105 0.72869 0.0
C1325 C 0.82632 0.27637 0.75988 0.0
C1326 C 0.83368 0.25398 0.73752 0.0
C1327 C 0.78122 0.24684 0.71081 0.0
C1328 C 0.78671 0.25884 0.72731 0.0
C1329 C 0.7932 0.23676 0.70358 0.0
C1330 C 0.81061 0.23882 0.71252 0.0
Eu1331 Eu 0.78732 0.28884 0.76192 0.0
N1332 N 0.77526 0.26851 0.73484 0.0
C1333 C 0.76388 0.24541 0.70198 0.0
C1334 C 0.75826 0.26697 0.72628 0.0
C1335 C 0.75233 0.25542 0.70984 0.0
H1336 H 0.83058 0.28685 0.77139 0.0
H1337 H 0.73887 0.25438 0.70317 0.0
H1338 H 0.71619 0.29239 0.7989 0.0
H1339 H 0.81098 0.33128 0.85889 0.0
H1340 H 0.74913 0.27458 0.73188 0.0
H1341 H 0.75929 0.23664 0.68909 0.0
H1342 H 0.79902 0.30833 0.83285 0.0
H1343 H 0.85246 0.26956 0.7597 0.0
H1344 H 0.78915 0.22738 0.69102 0.0
H1345 H 0.81975 0.23105 0.70667 0.0
H1346 H 0.6951 0.31118 0.80947 0.0
H1347 H 0.84342 0.24668 0.7322 0.0
H1348 H 0.79096 0.34882 0.87406 0.0
N1349 N 0.73755 0.30532 0.81918 0.0
C1350 C 0.74312 0.31809 0.83396 0.0
C1351 C 0.70859 0.31332 0.81645 0.0
C1352 C 0.73152 0.3291 0.84057 0.0
C1353 C 0.72061 0.30282 0.81034 0.0
C1354 C 0.71404 0.32649 0.83168 0.0
N1355 N 0.77182 0.31065 0.8342 0.0
C1356 C 0.78976 0.31474 0.83988 0.0
C1357 C 0.76727 0.33478 0.85636 0.0
C1358 C 0.76076 0.32078 0.84178 0.0
C1359 C 0.78544 0.33816 0.86295 0.0
C1360 C 0.79676 0.32825 0.85448 0.0
H1361 H 0.70472 0.33467 0.83634 0.0
H1362 H 0.72906 0.35113 0.86081 0.0
H1363 H 0.76041 0.35616 0.8746 0.0
O1364 O 0.75851 0.2685 0.83091 0.0
O1365 O 0.76253 0.31426 0.8007 0.0
O1366 O 0.78637 0.30664 0.78876 0.0
O1367 O 0.73395 0.26807 0.81309 0.0
O1368 O 0.7867 0.28104 0.81534 0.0
O1369 O 0.80369 0.28486 0.78955 0.0
O1370 O 0.7849 0.30786 0.74188 0.0
O1371 O 0.77481 0.25999 0.76287 0.0
O1372 O 0.76859 0.2762 0.78609 0.0
O1373 O 0.81078 0.30773 0.75688 0.0
O1374 O 0.7588 0.29549 0.75903 0.0
O1375 O 0.74088 0.28354 0.7814 0.0
C1376 C 0.77545 0.31801 0.79044 0.0
C1377 C 0.73214 0.26307 0.84488 0.0
C1378 C 0.73144 0.25595 0.87692 0.0
C1379 C 0.7178 0.26582 0.87918 0.0
C1380 C 0.71845 0.27291 0.84719 0.0
C1381 C 0.71135 0.27426 0.86431 0.0
C1382 C 0.73837 0.2545 0.8597 0.0
C1383 C 0.80179 0.28139 0.80719 0.0
C1384 C 0.74135 0.26261 0.82796 0.0
C1385 C 0.7378 0.34258 0.85551 0.0
C1386 C 0.75563 0.34541 0.86339 0.0
C1387 C 0.76674 0.2603 0.77762 0.0
C1388 C 0.80965 0.315 0.72564 0.0
C1389 C 0.80714 0.32409 0.69439 0.0
C1390 C 0.82204 0.31654 0.69046 0.0
C1391 C 0.82463 0.30756 0.72177 0.0
C1392 C 0.80112 0.32331 0.71198 0.0
C1393 C 0.83078 0.30837 0.70419 0.0
C1394 C 0.74304 0.29046 0.76527 0.0
C1395 C 0.80203 0.31392 0.74339 0.0
H1396 H 0.71225 0.26704 0.89241 0.0
H1397 H 0.7133 0.27961 0.83593 0.0
H1398 H 0.70088 0.28194 0.86607 0.0
H1399 H 0.74875 0.24669 0.85779 0.0
H1400 H 0.82706 0.31723 0.67696 0.0
H1401 H 0.83151 0.30108 0.73218 0.0
H1402 H 0.78948 0.32894 0.71496 0.0
H1403 H 0.84232 0.30267 0.70119 0.0
Eu1404 Eu 0.76099 0.74749 0.75035 0.0
C1405 C 0.82121 0.80639 0.79956 0.0
N1406 N 0.80473 0.79841 0.80307 0.0
C1407 C 0.81557 0.79843 0.83542 0.0
C1408 C 0.83559 0.81061 0.81397 0.0
C1409 C 0.80166 0.79466 0.82075 0.0
C1410 C 0.83262 0.80639 0.83202 0.0
C1411 C 0.84055 0.81913 0.77753 0.0
C1412 C 0.82369 0.81061 0.78152 0.0
C1413 C 0.85487 0.8233 0.79186 0.0
C1414 C 0.85241 0.81904 0.81001 0.0
Eu1415 Eu 0.78213 0.79372 0.77746 0.0
N1416 N 0.80966 0.80616 0.7678 0.0
C1417 C 0.84249 0.82325 0.75925 0.0
C1418 C 0.8113 0.81084 0.7502 0.0
C1419 C 0.82776 0.81915 0.74558 0.0
H1420 H 0.7884 0.78924 0.82377 0.0
H1421 H 0.82899 0.82255 0.73154 0.0
H1422 H 0.74935 0.75686 0.70628 0.0
H1423 H 0.71969 0.71627 0.80018 0.0
H1424 H 0.79995 0.80846 0.73978 0.0
H1425 H 0.85521 0.8298 0.75561 0.0
H1426 H 0.74744 0.73043 0.78927 0.0
H1427 H 0.81308 0.79542 0.8494 0.0
H1428 H 0.86791 0.82987 0.78905 0.0
H1429 H 0.86359 0.82242 0.82093 0.0
H1430 H 0.72236 0.75256 0.68379 0.0
H1431 H 0.84332 0.80944 0.84346 0.0
H1432 H 0.69154 0.71062 0.77899 0.0
N1433 N 0.73578 0.7464 0.72834 0.0
C1434 C 0.72004 0.738 0.73335 0.0
C1435 C 0.72147 0.74862 0.69776 0.0
C1436 C 0.70435 0.73462 0.72056 0.0
C1437 C 0.73674 0.75146 0.71074 0.0
C1438 C 0.70521 0.74018 0.70268 0.0
N1439 N 0.73495 0.73569 0.76335 0.0
C1440 C 0.73515 0.72954 0.78049 0.0
C1441 C 0.70354 0.72334 0.75651 0.0
C1442 C 0.71962 0.73247 0.75125 0.0
C1443 C 0.70357 0.71776 0.77445 0.0
C1444 C 0.71944 0.72093 0.78648 0.0
H1445 H 0.69346 0.73773 0.69246 0.0
H1446 H 0.67632 0.72244 0.71605 0.0
H1447 H 0.67583 0.71205 0.74718 0.0
O1448 O 0.76413 0.72024 0.7542 0.0
O1449 O 0.74161 0.7667 0.75782 0.0
O1450 O 0.75489 0.78193 0.78581 0.0
O1451 O 0.75691 0.7271 0.72641 0.0
O1452 O 0.77601 0.74718 0.7796 0.0
O1453 O 0.77113 0.77293 0.7955 0.0
O1454 O 0.77311 0.81748 0.76872 0.0
O1455 O 0.80324 0.77723 0.76888 0.0
O1456 O 0.79009 0.75596 0.74425 0.0
O1457 O 0.78374 0.81711 0.79767 0.0
O1458 O 0.76834 0.7925 0.74767 0.0
O1459 O 0.77347 0.76698 0.73174 0.0
C1460 C 0.74036 0.77535 0.77425 0.0
C1461 C 0.7732 0.70376 0.72859 0.0
C1462 C 0.78892 0.6792 0.73189 0.0
C1463 C 0.79395 0.6803 0.71376 0.0
C1464 C 0.77839 0.70497 0.71047 0.0
C1465 C 0.78877 0.69326 0.70315 0.0
C1466 C 0.77859 0.69089 0.73921 0.0
C1467 C 0.77474 0.7568 0.79543 0.0
C1468 C 0.76121 0.71482 0.73626 0.0
C1469 C 0.68841 0.72541 0.7258 0.0
C1470 C 0.68807 0.71964 0.74362 0.0
C1471 C 0.80445 0.76559 0.7545 0.0
C1472 C 0.76059 0.83318 0.79197 0.0
C1473 C 0.74185 0.85536 0.78894 0.0
C1474 C 0.73257 0.84909 0.80355 0.0
C1475 C 0.75107 0.82661 0.80637 0.0
C1476 C 0.75575 0.84736 0.78316 0.0
C1477 C 0.73708 0.83458 0.81211 0.0
C1478 C 0.77136 0.78363 0.73215 0.0
C1479 C 0.77559 0.82561 0.78578 0.0
H1480 H 0.80201 0.67128 0.70795 0.0
H1481 H 0.77429 0.71475 0.7019 0.0
H1482 H 0.7927 0.69415 0.68919 0.0
H1483 H 0.77443 0.68968 0.75307 0.0
H1484 H 0.72187 0.85537 0.80822 0.0
H1485 H 0.75449 0.81545 0.81322 0.0
H1486 H 0.76305 0.85244 0.77202 0.0
H1487 H 0.72983 0.82961 0.82327 0.0
Eu1488 Eu 0.56461 0.54919 0.54755 0.0
C1489 C 0.50696 0.48911 0.50238 0.0
N1490 N 0.51526 0.50526 0.49814 0.0
C1491 C 0.51776 0.49211 0.46712 0.0
C1492 C 0.50428 0.47371 0.48925 0.0
C1493 C 0.51981 0.50705 0.48045 0.0
C1494 C 0.5102 0.47531 0.47162 0.0
C1495 C 0.48984 0.47206 0.52355 0.0
C1496 C 0.49977 0.48822 0.51931 0.0
C1497 C 0.48788 0.45656 0.51087 0.0
C1498 C 0.49509 0.45738 0.49376 0.0
Eu1499 Eu 0.517 0.52967 0.52166 0.0
N1500 N 0.50167 0.50341 0.53125 0.0
C1501 C 0.48162 0.47213 0.54011 0.0
C1502 C 0.49258 0.50391 0.54657 0.0
C1503 C 0.48277 0.48821 0.55154 0.0
H1504 H 0.52446 0.52002 0.47616 0.0
H1505 H 0.47591 0.48858 0.56397 0.0
H1506 H 0.55471 0.56337 0.59018 0.0
H1507 H 0.60332 0.58591 0.49872 0.0
H1508 H 0.49276 0.51651 0.55479 0.0
H1509 H 0.47385 0.46 0.54385 0.0
H1510 H 0.58736 0.55923 0.51044 0.0
H1511 H 0.5216 0.49363 0.45321 0.0
H1512 H 0.48038 0.444 0.51391 0.0
H1513 H 0.49298 0.44542 0.48386 0.0
H1514 H 0.5589 0.5914 0.61117 0.0
H1515 H 0.50831 0.46382 0.46112 0.0
H1516 H 0.60741 0.6154 0.51752 0.0
N1517 N 0.56612 0.57558 0.56779 0.0
C1518 C 0.57591 0.59057 0.56258 0.0
C1519 C 0.56342 0.59145 0.5974 0.0
C1520 C 0.57907 0.60687 0.57442 0.0
C1521 C 0.56061 0.57563 0.58523 0.0
C1522 C 0.57252 0.60719 0.5919 0.0
N1523 N 0.58021 0.5736 0.5344 0.0
C1524 C 0.58792 0.57208 0.51818 0.0
C1525 C 0.59287 0.6051 0.53966 0.0
C1526 C 0.58294 0.5896 0.54539 0.0
C1527 C 0.59983 0.60377 0.52245 0.0
C1528 C 0.59746 0.58717 0.51175 0.0
H1529 H 0.5748 0.61942 0.60143 0.0
H1530 H 0.59145 0.63486 0.57757 0.0
H1531 H 0.60331 0.63338 0.5471 0.0
O1532 O 0.59347 0.55214 0.55234 0.0
O1533 O 0.54667 0.56993 0.53981 0.0
O1534 O 0.52924 0.55653 0.51287 0.0
O1535 O 0.57749 0.54426 0.57437 0.0
O1536 O 0.56514 0.53522 0.51817 0.0
O1537 O 0.53836 0.53914 0.50309 0.0
O1538 O 0.49376 0.54049 0.52866 0.0
O1539 O 0.52939 0.51073 0.53996 0.0
O1540 O 0.55961 0.51853 0.53924 0.0
O1541 O 0.49378 0.52681 0.50087 0.0
O1542 O 0.51922 0.54539 0.55053 0.0
O1543 O 0.54394 0.53792 0.56568 0.0
C1544 C 0.5368 0.57111 0.52395 0.0
C1545 C 0.60524 0.53503 0.57452 0.0
C1546 C 0.6282 0.51823 0.56742 0.0
C1547 C 0.63003 0.51413 0.58596 0.0
C1548 C 0.60705 0.5309 0.59311 0.0
C1549 C 0.61936 0.52041 0.59876 0.0
C1550 C 0.61578 0.52849 0.56166 0.0
C1551 C 0.55469 0.53604 0.50276 0.0
C1552 C 0.59343 0.5473 0.56919 0.0
C1553 C 0.58891 0.62224 0.56865 0.0
C1554 C 0.5957 0.62139 0.5513 0.0
C1555 C 0.54547 0.50659 0.54159 0.0
C1556 C 0.47604 0.54914 0.5041 0.0
C1557 C 0.45326 0.56709 0.50723 0.0
C1558 C 0.45586 0.57303 0.48972 0.0
C1559 C 0.4788 0.55509 0.48658 0.0
C1560 C 0.46343 0.55535 0.5144 0.0
C1561 C 0.46879 0.56717 0.47951 0.0
C1562 C 0.52794 0.54167 0.56575 0.0
C1563 C 0.48524 0.53584 0.51191 0.0
H1564 H 0.6398 0.50629 0.59052 0.0
H1565 H 0.59916 0.53604 0.60332 0.0
H1566 H 0.62083 0.51741 0.61313 0.0
H1567 H 0.61479 0.53175 0.54732 0.0
H1568 H 0.44783 0.58201 0.48397 0.0
H1569 H 0.48855 0.55041 0.47838 0.0
H1570 H 0.46105 0.55054 0.5278 0.0
H1571 H 0.47087 0.57175 0.46601 0.0
Eu1572 Eu 0.99515 0.5223 0.04538 0.0
C1573 C 0.07011 0.56103 0.00668 0.0
N1574 N 0.06062 0.5441 0.00218 0.0
C1575 C 0.06429 0.54582 0.96963 0.0
C1576 C 0.07619 0.57133 0.99254 0.0
C1577 C 0.05864 0.53606 0.98408 0.0
C1578 C 0.07277 0.56364 0.97383 0.0
C1579 C 0.08603 0.58461 0.03049 0.0
C1580 C 0.07504 0.56765 0.02553 0.0
C1581 C 0.09104 0.59529 0.01641 0.0
C1582 C 0.08614 0.58867 0.99749 0.0
Eu1583 Eu 0.05059 0.53 0.02824 0.0
N1584 N 0.07024 0.55707 0.03895 0.0
C1585 C 0.09228 0.59007 0.04944 0.0
C1586 C 0.07721 0.5618 0.05731 0.0
C1587 C 0.08817 0.57844 0.06285 0.0
H1588 H 0.05206 0.52223 0.98075 0.0
H1589 H 0.09331 0.58234 0.07745 0.0
H1590 H 0.99309 0.52544 0.09288 0.0
H1591 H 0.95566 0.47323 0.99046 0.0
H1592 H 0.07383 0.55285 0.06772 0.0
H1593 H 0.10076 0.60299 0.05377 0.0
H1594 H 0.97543 0.50175 0.00326 0.0
H1595 H 0.06213 0.53957 0.95528 0.0
H1596 H 0.09926 0.60845 0.01999 0.0
H1597 H 0.09067 0.59684 0.98679 0.0
H1598 H 0.98234 0.50546 0.11594 0.0
H1599 H 0.07723 0.57114 0.9626 0.0
H1600 H 0.94505 0.45134 0.01191 0.0
N1601 N 0.98463 0.50559 0.06937 0.0
C1602 C 0.97437 0.48931 0.063 0.0
C1603 C 0.98027 0.50066 0.10113 0.0
C1604 C 0.96763 0.47763 0.07575 0.0
C1605 C 0.98654 0.51184 0.08803 0.0
C1606 C 0.97112 0.48334 0.095 0.0
N1607 N 0.97559 0.49622 0.03152 0.0
C1608 C 0.9705 0.49248 0.01268 0.0
C1609 C 0.9585 0.46804 0.03695 0.0
C1610 C 0.96964 0.48459 0.0437 0.0
C1611 C 0.95354 0.46394 0.0176 0.0
C1612 C 0.95947 0.47627 0.00543 0.0
H1613 H 0.9662 0.47474 0.10519 0.0
H1614 H 0.95207 0.45171 0.07858 0.0
H1615 H 0.9442 0.44327 0.04468 0.0
O1616 O 0.96984 0.52819 0.03302 0.0
O1617 O 1.00475 0.49756 0.03082 0.0
O1618 O 0.03228 0.50285 0.01752 0.0
O1619 O 0.98388 0.54359 0.05876 0.0
O1620 O 0.01261 0.5296 0.0233 0.0
O1621 O 0.03164 0.53308 0.00302 0.0
O1622 O 0.07747 0.52692 0.03982 0.0
O1623 O 0.04174 0.55143 0.049 0.0
O1624 O 0.01105 0.55056 0.04247 0.0
O1625 O 0.05947 0.50433 0.0252 0.0
O1626 O 0.03118 0.52284 0.04836 0.0
O1627 O 0.01482 0.52228 0.07097 0.0
C1628 C 0.01741 0.49229 0.02114 0.0
C1629 C 0.95297 0.54221 0.05391 0.0
C1630 C 0.92651 0.55562 0.05355 0.0
C1631 C 0.92196 0.5475 0.06952 0.0
C1632 C 0.94837 0.53413 0.0699 0.0
C1633 C 0.93293 0.53685 0.0777 0.0
C1634 C 0.94206 0.55302 0.04584 0.0
C1635 C 0.01501 0.5316 0.00603 0.0
C1636 C 0.9698 0.54099 0.04639 0.0
C1637 C 0.95712 0.4609 0.06897 0.0
C1638 C 0.95258 0.45612 0.04965 0.0
C1639 C 0.02765 0.55954 0.04743 0.0
C1640 C 0.0897 0.50574 0.02159 0.0
C1641 C 0.11661 0.49323 0.01856 0.0
C1642 C 0.11568 0.4964 0.99963 0.0
C1643 C 0.08898 0.50859 0.00262 0.0
C1644 C 0.10347 0.49781 0.02953 0.0
C1645 C 0.10189 0.50398 0.99172 0.0
C1646 C 0.0305 0.52174 0.06602 0.0
C1647 C 0.07569 0.51042 0.0327 0.0
H1648 H 0.91005 0.54958 0.07574 0.0
H1649 H 0.95681 0.52599 0.07648 0.0
H1650 H 0.92951 0.53078 0.09015 0.0
H1651 H 0.9457 0.55946 0.03363 0.0
H1652 H 0.1255 0.49272 0.99087 0.0
H1653 H 0.07826 0.51413 0.99617 0.0
H1654 H 0.10401 0.49532 0.04412 0.0
H1655 H 0.10112 0.50617 0.97707 0.0
H1656 H 0.99245 0.20285 0.93947 0.0
H1657 H 0.99769 0.1756 0.95262 0.0
H1658 H 0.03157 0.20745 0.99937 0.0
H1659 H 0.02645 0.23481 0.98609 0.0
H1660 H 0.0468 0.18074 0.98955 0.0
H1661 H 0.98815 0.18342 0.00311 0.0
H1662 H 0.95639 0.18574 0.99798 0.0
H1663 H 0.94578 0.13763 0.95958 0.0
H1664 H 0.97756 0.13516 0.96426 0.0
H1665 H 0.0476 0.10431 0.04276 0.0
H1666 H 0.04354 0.133 0.03201 0.0
H1667 H 0.01575 0.10536 0.97979 0.0
H1668 H 0.02088 0.07688 0.98992 0.0
H1669 H 0.99749 0.13061 0.99448 0.0
H1670 H 0.05793 0.12982 0.98111 0.0
H1671 H 0.08991 0.12881 0.98764 0.0
H1672 H 0.09659 0.17428 0.02926 0.0
H1673 H 0.06462 0.17559 0.02291 0.0
C1674 C 1.00092 0.20413 0.95264 0.0
C1675 C 0.00887 0.22125 0.96169 0.0
C1676 C 1.00388 0.1884 0.96027 0.0
C1677 C 0.01491 0.1891 0.9773 0.0
C1678 C 0.02296 0.20622 0.9863 0.0
C1679 C 0.01993 0.22199 0.9787 0.0
C1680 C 0.01828 0.17207 0.98538 0.0
C1681 C 0.0359 0.16997 0.99087 0.0
C1682 C 1.00431 0.15759 0.98711 0.0
C1683 C 0.98529 0.15924 0.98385 0.0
C1684 C 0.97909 0.17345 0.99339 0.0
C1685 C 0.96107 0.17476 0.99061 0.0
C1686 C 0.94908 0.16187 0.97842 0.0
C1687 C 0.95509 0.14763 0.96899 0.0
C1688 C 0.97311 0.14626 0.9717 0.0
C1689 C 0.04093 0.10426 0.02885 0.0
C1690 C 0.0346 0.08793 0.01733 0.0
C1691 C 0.0385 0.12082 0.02269 0.0
C1692 C 0.02929 0.12165 0.00495 0.0
C1693 C 0.02285 0.10536 0.99353 0.0
C1694 C 0.02569 0.08891 0.99947 0.0
C1695 C 0.02597 0.13925 0.99836 0.0
C1696 C 0.00834 0.14145 0.99318 0.0
C1697 C 0.03989 0.15393 0.99725 0.0
C1698 C 0.05887 0.15268 0.00167 0.0
C1699 C 0.06618 0.13948 0.99179 0.0
C1700 C 0.08433 0.13894 0.99537 0.0
C1701 C 0.09528 0.15149 0.00885 0.0
C1702 C 0.0881 0.16459 0.01881 0.0
C1703 C 0.06998 0.16527 0.01519 0.0
H1704 H 0.10933 0.15105 0.0116 0.0
H1705 H 0.93513 0.16289 0.97632 0.0
H1706 H 0.12023 0.80026 0.12719 0.0
H1707 H 0.14761 0.80229 0.14865 0.0
H1708 H 0.11606 0.79317 0.19444 0.0
H1709 H 0.08892 0.79193 0.17329 0.0
H1710 H 0.14287 0.81639 0.20765 0.0
H1711 H 0.13731 0.76015 0.1704 0.0
H1712 H 0.1341 0.73945 0.14136 0.0
H1713 H 0.18381 0.76705 0.12686 0.0
H1714 H 0.18719 0.7881 0.1557 0.0
H1715 H 0.20907 0.78473 0.26817 0.0
H1716 H 0.18293 0.78627 0.24647 0.0
H1717 H 0.21695 0.81392 0.21023 0.0
H1718 H 0.24316 0.81352 0.23245 0.0
H1719 H 0.18997 0.78223 0.19206 0.0
H1720 H 0.19516 0.83749 0.232 0.0
H1721 H 0.19744 0.85626 0.26221 0.0
H1722 H 0.14681 0.82751 0.27306 0.0
H1723 H 0.14438 0.80831 0.24306 0.0
C1724 C 0.11916 0.79873 0.14184 0.0
C1725 C 0.1023 0.79591 0.14844 0.0
C1726 C 0.13487 0.79976 0.15416 0.0
C1727 C 0.13414 0.79762 0.17333 0.0
C1728 C 0.11724 0.79493 0.17985 0.0
C1729 C 0.10162 0.79414 0.16765 0.0
C1730 C 0.15077 0.79822 0.18668 0.0
C1731 C 0.153 0.80871 0.20421 0.0
C1732 C 0.16436 0.78847 0.18241 0.0
C1733 C 0.16241 0.77582 0.1651 0.0
C1734 C 0.1475 0.76189 0.16095 0.0
C1735 C 0.14565 0.75008 0.14453 0.0
C1736 C 0.15872 0.75197 0.13225 0.0
C1737 C 0.17368 0.76563 0.13638 0.0
C1738 C 0.17558 0.7775 0.15275 0.0
C1739 C 0.21109 0.79163 0.25591 0.0
C1740 C 0.22844 0.79918 0.25237 0.0
C1741 C 0.19604 0.79229 0.24334 0.0
C1742 C 0.19788 0.80017 0.22662 0.0
C1743 C 0.21512 0.80771 0.22297 0.0
C1744 C 0.23013 0.80748 0.23578 0.0
C1745 C 0.18187 0.80029 0.21287 0.0
C1746 C 0.17978 0.78991 0.19535 0.0
C1747 C 0.16824 0.80982 0.2173 0.0
C1748 C 0.1697 0.82131 0.23537 0.0
C1749 C 0.18461 0.83502 0.24092 0.0
C1750 C 0.18591 0.84576 0.25799 0.0
C1751 C 0.17231 0.84303 0.26958 0.0
C1752 C 0.15736 0.82957 0.2641 0.0
C1753 C 0.15601 0.81876 0.24706 0.0
H1754 H 0.17333 0.85138 0.28278 0.0
H1755 H 0.15727 0.74281 0.11955 0.0
H1756 H 0.50917 0.81857 0.49062 0.0
H1757 H 0.51128 0.84964 0.50421 0.0
H1758 H 0.50834 0.86628 0.44864 0.0
H1759 H 0.5074 0.83551 0.43525 0.0
H1760 H 0.52975 0.89065 0.46791 0.0
H1761 H 0.47165 0.86164 0.48106 0.0
H1762 H 0.45053 0.83917 0.49412 0.0
H1763 H 0.47797 0.85637 0.5494 0.0
H1764 H 0.49935 0.87881 0.53663 0.0
H1765 H 0.50045 0.9747 0.49346 0.0
H1766 H 0.49932 0.94308 0.4818 0.0
H1767 H 0.52676 0.93511 0.53447 0.0
H1768 H 0.52881 0.96691 0.54572 0.0
H1769 H 0.49352 0.90698 0.51801 0.0
H1770 H 0.55081 0.93631 0.50504 0.0
H1771 H 0.57181 0.9591 0.49233 0.0
H1772 H 0.54552 0.94129 0.43668 0.0
H1773 H 0.5241 0.91863 0.44915 0.0
C1774 C 0.50898 0.82885 0.4813 0.0
C1775 C 0.50808 0.82434 0.46176 0.0
C1776 C 0.51001 0.84677 0.4891 0.0
C1777 C 0.50959 0.86076 0.47762 0.0
C1778 C 0.50873 0.85612 0.45809 0.0
C1779 C 0.50811 0.83834 0.45035 0.0
C1780 C 0.5103 0.88013 0.48568 0.0
C1781 C 0.52154 0.89404 0.47866 0.0
C1782 C 0.50011 0.88514 0.50018 0.0
C1783 C 0.48718 0.87177 0.50787 0.0
C1784 C 0.47322 0.86056 0.49599 0.0
C1785 C 0.4612 0.84784 0.50334 0.0
C1786 C 0.46294 0.84631 0.52257 0.0
C1787 C 0.47665 0.85755 0.5345 0.0
C1788 C 0.48871 0.87028 0.52722 0.0
C1789 C 0.50625 0.96621 0.50254 0.0
C1790 C 0.51483 0.97344 0.5205 0.0
C1791 C 0.5056 0.94808 0.49586 0.0
C1792 C 0.51296 0.9365 0.50718 0.0
C1793 C 0.52099 0.94361 0.52537 0.0
C1794 C 0.5222 0.96186 0.53179 0.0
C1795 C 0.51264 0.91717 0.49994 0.0
C1796 C 0.50156 0.9034 0.50716 0.0
C1797 C 0.52291 0.91228 0.48561 0.0
C1798 C 0.53567 0.92595 0.47807 0.0
C1799 C 0.54934 0.93741 0.49013 0.0
C1800 C 0.56136 0.95028 0.48297 0.0
C1801 C 0.55995 0.95169 0.46372 0.0
C1802 C 0.54655 0.94021 0.4516 0.0
C1803 C 0.53446 0.92736 0.45871 0.0
H1804 H 0.56929 0.96163 0.45819 0.0
H1805 H 0.45363 0.83645 0.52823 0.0
H1806 H 0.49074 0.29414 0.62114 0.0
H1807 H 0.46495 0.29143 0.63929 0.0
H1808 H 0.4969 0.27638 0.68558 0.0
H1809 H 0.52276 0.27962 0.66782 0.0
H1810 H 0.46186 0.2534 0.67428 0.0
H1811 H 0.48981 0.31518 0.6908 0.0
H1812 H 0.50198 0.34558 0.68392 0.0
H1813 H 0.45065 0.35008 0.65711 0.0
H1814 H 0.43823 0.31953 0.66355 0.0
H1815 H 0.414 0.25593 0.75035 0.0
H1816 H 0.43787 0.26633 0.73162 0.0
H1817 H 0.39969 0.28219 0.69168 0.0
H1818 H 0.3756 0.27175 0.71059 0.0
H1819 H 0.43578 0.30537 0.69728 0.0
H1820 H 0.40739 0.24423 0.68131 0.0
H1821 H 0.39481 0.21412 0.6887 0.0
H1822 H 0.44645 0.2083 0.71353 0.0
H1823 H 0.45927 0.23857 0.70663 0.0
C1824 C 0.49224 0.29025 0.63519 0.0
C1825 C 0.50879 0.2871 0.64306 0.0
C1826 C 0.47752 0.28877 0.64555 0.0
C1827 C 0.47899 0.28373 0.66382 0.0
C1828 C 0.49544 0.2803 0.67154 0.0
C1829 C 0.51022 0.28219 0.66138 0.0
C1830 C 0.46344 0.28183 0.67493 0.0
C1831 C 0.45626 0.26479 0.67937 0.0
C1832 C 0.45577 0.2966 0.68121 0.0
C1833 C 0.46315 0.31498 0.67743 0.0
C1834 C 0.48116 0.32257 0.68325 0.0
C1835 C 0.4881 0.33984 0.67947 0.0
C1836 C 0.47711 0.34973 0.67002 0.0
C1837 C 0.45915 0.34238 0.66439 0.0
C1838 C 0.45215 0.32509 0.6681 0.0
C1839 C 0.41076 0.26216 0.73789 0.0
C1840 C 0.39292 0.26294 0.73188 0.0
C1841 C 0.42441 0.26807 0.72716 0.0
C1842 C 0.42056 0.2748 0.71008 0.0
C1843 C 0.40299 0.27706 0.70481 0.0
C1844 C 0.38924 0.27114 0.71564 0.0
C1845 C 0.43443 0.27697 0.69683 0.0
C1846 C 0.44127 0.29398 0.69198 0.0
C1847 C 0.44175 0.26215 0.68998 0.0
C1848 C 0.43426 0.24371 0.69359 0.0
C1849 C 0.41604 0.23657 0.68844 0.0
C1850 C 0.40886 0.21948 0.69255 0.0
C1851 C 0.41982 0.20931 0.70161 0.0
C1852 C 0.43798 0.2162 0.70652 0.0
C1853 C 0.44522 0.23332 0.70251 0.0
H1854 H 0.41423 0.19609 0.7048 0.0
H1855 H 0.4825 0.36311 0.6671 0.0
H1856 H 0.01394 0.7861 0.62687 0.0
H1857 H 0.01682 0.81198 0.60916 0.0
H1858 H 0.03506 0.84695 0.66053 0.0
H1859 H 0.03141 0.8211 0.67836 0.0
H1860 H 0.01418 0.86217 0.64023 0.0
H1861 H 0.06417 0.83515 0.62728 0.0
H1862 H 0.07981 0.81084 0.61739 0.0
H1863 H 0.05018 0.8037 0.56266 0.0
H1864 H 0.03422 0.82785 0.5723 0.0
H1865 H 0.05595 0.93677 0.5961 0.0
H1866 H 0.04681 0.91223 0.61471 0.0
H1867 H 0.02423 0.87801 0.56392 0.0
H1868 H 0.03364 0.90254 0.54538 0.0
H1869 H 0.04679 0.8627 0.58405 0.0
H1870 H 0.99768 0.89163 0.59806 0.0
H1871 H 0.98367 0.91685 0.60902 0.0
H1872 H 0.01417 0.9217 0.66307 0.0
H1873 H 0.02847 0.89661 0.65238 0.0
C1874 C 0.01856 0.79931 0.63439 0.0
C1875 C 0.0225 0.80153 0.65402 0.0
C1876 C 0.02031 0.81414 0.62423 0.0
C1877 C 0.02649 0.83154 0.63338 0.0
C1878 C 0.03028 0.83375 0.65305 0.0
C1879 C 0.02825 0.81893 0.66325 0.0
C1880 C 0.02897 0.84737 0.62249 0.0
C1881 C 0.0215 0.86233 0.62807 0.0
C1882 C 0.03829 0.84767 0.60643 0.0
C1883 C 0.04789 0.83318 0.60057 0.0
C1884 C 0.06091 0.82831 0.61318 0.0
C1885 C 0.06985 0.81458 0.60761 0.0
C1886 C 0.06596 0.8057 0.58942 0.0
C1887 C 0.05316 0.81057 0.57675 0.0
C1888 C 0.04418 0.82429 0.58225 0.0
C1889 C 0.04834 0.92423 0.58903 0.0
C1890 C 0.04511 0.92165 0.56936 0.0
C1891 C 0.0432 0.91014 0.59965 0.0
C1892 C 0.03475 0.89317 0.59078 0.0
C1893 C 0.03069 0.89092 0.57115 0.0
C1894 C 0.03585 0.905 0.56055 0.0
C1895 C 0.03184 0.87739 0.60165 0.0
C1896 C 0.03936 0.86248 0.59613 0.0
C1897 C 0.02283 0.87728 0.61792 0.0
C1898 C 0.01424 0.89235 0.62436 0.0
C1899 C 1.00148 0.89816 0.61224 0.0
C1900 C 0.99346 0.91241 0.61841 0.0
C1901 C 0.99805 0.9209 0.63672 0.0
C1902 C 0.01063 0.91512 0.6489 0.0
C1903 C 0.01867 0.90087 0.6428 0.0
H1904 H 0.99183 0.93193 0.64147 0.0
H1905 H 0.07289 0.79507 0.58514 0.0
H1906 H 0.48113 0.77445 0.83209 0.0
H1907 H 0.44984 0.77344 0.81972 0.0
H1908 H 0.45963 0.83087 0.82242 0.0
H1909 H 0.49107 0.8319 0.83411 0.0
H1910 H 0.42712 0.81501 0.83845 0.0
H1911 H 0.45512 0.81092 0.78209 0.0
H1912 H 0.47383 0.79874 0.76001 0.0
H1913 H 0.43927 0.74744 0.75453 0.0
H1914 H 0.42049 0.75925 0.77685 0.0
H1915 H 0.34278 0.82267 0.79058 0.0
H1916 H 0.37492 0.82584 0.80023 0.0
H1917 H 0.37153 0.7694 0.78452 0.0
H1918 H 0.33978 0.76661 0.77375 0.0
H1919 H 0.40143 0.78573 0.77497 0.0
H1920 H 0.37377 0.78911 0.83163 0.0
H1921 H 0.35481 0.80083 0.85375 0.0
H1922 H 0.38852 0.85259 0.8593 0.0
H1923 H 0.40752 0.84125 0.83694 0.0
C1924 C 0.47669 0.78686 0.82987 0.0
C1925 C 0.48879 0.80324 0.83398 0.0
C1926 C 0.45872 0.78628 0.82282 0.0
C1927 C 0.45217 0.80208 0.8201 0.0
C1928 C 0.4642 0.81846 0.82436 0.0
C1929 C 0.48227 0.81902 0.83094 0.0
C1930 C 0.43285 0.80148 0.81283 0.0
C1931 C 0.42159 0.80882 0.82447 0.0
C1932 C 0.4253 0.79309 0.79474 0.0
C1933 C 0.43653 0.78591 0.78132 0.0
C1934 C 0.45161 0.79699 0.77633 0.0
C1935 C 0.46221 0.79016 0.76374 0.0
C1936 C 0.45777 0.77231 0.75592 0.0
C1937 C 0.4427 0.76126 0.76063 0.0
C1938 C 0.43207 0.76801 0.77325 0.0
C1939 C 0.34891 0.81101 0.78895 0.0
C1940 C 0.33844 0.7943 0.78171 0.0
C1941 C 0.36736 0.81275 0.79472 0.0
C1942 C 0.37593 0.79779 0.79358 0.0
C1943 C 0.36552 0.78122 0.78582 0.0
C1944 C 0.34716 0.77954 0.77995 0.0
C1945 C 0.39553 0.79923 0.80061 0.0
C1946 C 0.40689 0.79198 0.78895 0.0
C1947 C 0.40313 0.8076 0.81876 0.0
C1948 C 0.39195 0.81438 0.83246 0.0
C1949 C 0.37708 0.80302 0.83748 0.0
C1950 C 0.36632 0.80959 0.85006 0.0
C1951 C 0.37043 0.82746 0.85788 0.0
C1952 C 0.38534 0.83877 0.8532 0.0
C1953 C 0.39611 0.83228 0.84057 0.0
H1954 H 0.36207 0.83253 0.8676 0.0
H1955 H 0.46599 0.76705 0.74616 0.0
H1956 H 0.5404 0.2038 0.1605 0.0
H1957 H 0.53975 0.17703 0.13832 0.0
H1958 H 0.48594 0.17923 0.11631 0.0
H1959 H 0.4869 0.20651 0.13775 0.0
H1960 H 0.49697 0.1418 0.12677 0.0
H1961 H 0.50782 0.19191 0.0899 0.0
H1962 H 0.5239 0.22122 0.08373 0.0
H1963 H 0.5728 0.20088 0.08462 0.0
H1964 H 0.55704 0.17153 0.09124 0.0
H1965 H 0.48592 0.07623 0.04791 0.0
H1966 H 0.48478 0.10296 0.06904 0.0
H1967 H 0.54135 0.12085 0.06833 0.0
H1968 H 0.54198 0.09498 0.04571 0.0
H1969 H 0.52858 0.14844 0.07019 0.0
H1970 H 0.52016 0.10014 0.11003 0.0
H1971 H 0.50548 0.07 0.11564 0.0
H1972 H 0.45427 0.08557 0.10804 0.0
H1973 H 0.46872 0.11604 0.10336 0.0
C1974 C 0.52838 0.19846 0.15105 0.0
C1975 C 0.51368 0.20724 0.15093 0.0
C1976 C 0.52803 0.18318 0.13835 0.0
C1977 C 0.51277 0.17603 0.12563 0.0
C1978 C 0.49785 0.18443 0.12598 0.0
C1979 C 0.49842 0.20004 0.13822 0.0
C1980 C 0.51268 0.16031 0.11145 0.0
C1981 C 0.50377 0.14328 0.11433 0.0
C1982 C 0.52182 0.16202 0.09537 0.0
C1983 C 0.53131 0.17963 0.09139 0.0
C1984 C 0.52205 0.19376 0.08907 0.0
C1985 C 0.53109 0.21037 0.08543 0.0
C1986 C 0.54938 0.21294 0.08387 0.0
C1987 C 0.55865 0.19889 0.0859 0.0
C1988 C 0.54967 0.18227 0.08961 0.0
C1989 C 0.49805 0.08598 0.0522 0.0
C1990 C 0.51402 0.08353 0.04517 0.0
C1991 C 0.4975 0.1012 0.06458 0.0
C1992 C 0.51312 0.1139 0.0711 0.0
C1993 C 0.52905 0.11144 0.06378 0.0
C1994 C 0.52944 0.09659 0.05083 0.0
C1995 C 0.51292 0.12967 0.0854 0.0
C1996 C 0.52184 0.1468 0.08263 0.0
C1997 C 0.50403 0.128 0.10175 0.0
C1998 C 0.4955 0.11032 0.10641 0.0
C1999 C 0.50579 0.0972 0.10992 0.0
C2000 C 0.49752 0.08009 0.11301 0.0
C2001 C 0.47896 0.07593 0.11243 0.0
C2002 C 0.46866 0.08891 0.10888 0.0
C2003 C 0.47689 0.10616 0.10624 0.0
H2004 H 0.47254 0.06263 0.11462 0.0
H2005 H 0.55636 0.2258 0.08102 0.0
H2006 H 0.07567 0.2905 0.31066 0.0
H2007 H 0.10267 0.28472 0.29719 0.0
H2008 H 0.13418 0.30521 0.35005 0.0
H2009 H 0.10731 0.31131 0.36335 0.0
H2010 H 0.15277 0.31655 0.32446 0.0
H2011 H 0.12128 0.25775 0.33124 0.0
H2012 H 0.09575 0.23257 0.32638 0.0
H2013 H 0.09725 0.22979 0.26678 0.0
H2014 H 0.12266 0.25512 0.27129 0.0
H2015 H 0.23271 0.28527 0.30973 0.0
H2016 H 0.20433 0.28942 0.32044 0.0
H2017 H 0.17729 0.26911 0.2654 0.0
H2018 H 0.20587 0.26443 0.25468 0.0
H2019 H 0.15577 0.25805 0.29 0.0
H2020 H 0.18973 0.31502 0.28389 0.0
H2021 H 0.21638 0.33878 0.28949 0.0
H2022 H 0.20987 0.34601 0.34801 0.0
H2023 H 0.18388 0.32134 0.34307 0.0
C2024 C 0.08834 0.29385 0.31944 0.0
C2025 C 0.08906 0.30145 0.33821 0.0
C2026 C 0.10392 0.29037 0.31172 0.0
C2027 C 0.12087 0.29418 0.3225 0.0
C2028 C 0.12155 0.30201 0.34118 0.0
C2029 C 0.10601 0.30551 0.34887 0.0
C2030 C 0.13783 0.29029 0.31451 0.0
C2031 C 0.15337 0.30363 0.31717 0.0
C2032 C 0.13896 0.27367 0.30433 0.0
C2033 C 0.12373 0.25845 0.30159 0.0
C2034 C 0.11608 0.25185 0.31709 0.0
C2035 C 0.10165 0.23754 0.3144 0.0
C2036 C 0.09485 0.22962 0.29628 0.0
C2037 C 0.10251 0.23596 0.28081 0.0
C2038 C 0.11693 0.25029 0.28342 0.0
C2039 C 0.2208 0.28162 0.29977 0.0
C2040 C 0.22194 0.27464 0.28115 0.0
C2041 C 0.20437 0.28411 0.30598 0.0
C2042 C 0.18829 0.28011 0.29378 0.0
C2043 C 0.18927 0.27256 0.27528 0.0
C2044 C 0.20577 0.26989 0.26907 0.0
C2045 C 0.1708 0.28421 0.3003 0.0
C2046 C 0.15517 0.27097 0.29729 0.0
C2047 C 0.16957 0.30095 0.31019 0.0
C2048 C 0.1849 0.31616 0.31312 0.0
C2049 C 0.19404 0.32155 0.298 0.0
C2050 C 0.20906 0.3352 0.30105 0.0
C2051 C 0.21472 0.34406 0.31904 0.0
C2052 C 0.20546 0.33914 0.33407 0.0
C2053 C 0.19066 0.32522 0.33118 0.0
H2054 H 0.22627 0.35471 0.32134 0.0
H2055 H 0.08367 0.21855 0.29422 0.0
H2056 H 0.92459 0.03212 0.1983 0.0
H2057 H 0.94066 0.03819 0.17122 0.0
H2058 H 0.98411 0.01539 0.19545 0.0
H2059 H 0.96843 0.01019 0.223 0.0
H2060 H 0.99748 0.04362 0.18153 0.0
H2061 H 0.95039 0.99325 0.15691 0.0
H2062 H 0.91923 0.97733 0.14932 0.0
H2063 H 0.90722 0.01864 0.11646 0.0
H2064 H 0.93825 0.0349 0.12404 0.0
H2065 H 0.03974 0.02731 0.0992 0.0
H2066 H 0.02447 0.02601 0.12746 0.0
H2067 H 0.9843 0.05226 0.10203 0.0
H2068 H 0.99936 0.0534 0.07368 0.0
H2069 H 0.96903 0.02418 0.11639 0.0
H2070 H 0.01551 0.07371 0.13871 0.0
H2071 H 0.04629 0.09064 0.14587 0.0
H2072 H 0.05922 0.05247 0.18251 0.0
H2073 H 0.02855 0.03519 0.17542 0.0
C2074 C 0.93751 0.02828 0.19777 0.0
C2075 C 0.94518 0.02052 0.21271 0.0
C2076 C 0.94669 0.03169 0.18222 0.0
C2077 C 0.96353 0.02696 0.18099 0.0
C2078 C 0.97116 0.01917 0.19595 0.0
C2079 C 0.96214 0.01609 0.21167 0.0
C2080 C 0.97337 0.0303 0.16434 0.0
C2081 C 0.9913 0.03912 0.1673 0.0
C2082 C 0.96523 0.02511 0.14565 0.0
C2083 C 0.94658 0.01536 0.1412 0.0
C2084 C 0.94106 0.99899 0.14818 0.0
C2085 C 0.92343 0.9899 0.14386 0.0
C2086 C 0.91124 0.99699 0.13246 0.0
C2087 C 0.91666 0.01317 0.12532 0.0
C2088 C 0.93427 0.02232 0.12961 0.0
C2089 C 0.02777 0.033 0.09971 0.0
C2090 C 0.02076 0.04042 0.08415 0.0
C2091 C 0.01908 0.03232 0.11593 0.0
C2092 C 1.00326 0.03915 0.11699 0.0
C2093 C 0.99645 0.04688 0.10158 0.0
C2094 C 1.0051 0.04753 0.08536 0.0
C2095 C 0.99317 0.0372 0.1336 0.0
C2096 C 0.9752 0.02869 0.13062 0.0
C2097 C 1.00124 0.04279 0.15223 0.0
C2098 C 0.01977 0.05304 0.15637 0.0
C2099 C 0.02496 0.06882 0.14815 0.0
C2100 C 0.04238 0.0785 0.15222 0.0
C2101 C 0.05472 0.07259 0.16457 0.0
C2102 C 0.04965 0.05701 0.17291 0.0
C2103 C 0.03224 0.04728 0.16889 0.0
H2104 H 0.0682 0.08011 0.16771 0.0
H2105 H 0.89761 0.98993 0.12912 0.0
H2106 H 0.28814 0.67953 0.51342 0.0
H2107 H 0.28422 0.69772 0.48793 0.0
H2108 H 0.25185 0.65199 0.45366 0.0
H2109 H 0.25572 0.63354 0.47922 0.0
H2110 H 0.27693 0.67301 0.43483 0.0
H2111 H 0.23039 0.67994 0.4734 0.0
H2112 H 0.21634 0.68632 0.50207 0.0
H2113 H 0.24837 0.73901 0.51169 0.0
H2114 H 0.26275 0.73289 0.48319 0.0
H2115 H 0.23134 0.72163 0.37268 0.0
H2116 H 0.24283 0.70159 0.39325 0.0
H2117 H 0.27 0.74721 0.43161 0.0
H2118 H 0.25805 0.76727 0.41124 0.0
H2119 H 0.24781 0.72528 0.44778 0.0
H2120 H 0.29383 0.71834 0.40799 0.0
H2121 H 0.3071 0.71156 0.37889 0.0
H2122 H 0.27521 0.65879 0.37076 0.0
H2123 H 0.26166 0.66529 0.39973 0.0
C2124 C 0.28044 0.67326 0.50034 0.0
C2125 C 0.27219 0.6552 0.49818 0.0
C2126 C 0.27814 0.68367 0.48592 0.0
C2127 C 0.26754 0.67613 0.46923 0.0
C2128 C 0.26002 0.6579 0.46659 0.0
C2129 C 0.26231 0.64743 0.48109 0.0
C2130 C 0.26406 0.68758 0.45478 0.0
C2131 C 0.27038 0.68436 0.43744 0.0
C2132 C 0.25583 0.70246 0.45864 0.0
C2133 C 0.24782 0.70586 0.47629 0.0
C2134 C 0.23463 0.69279 0.48178 0.0
C2135 C 0.22654 0.69639 0.49796 0.0
C2136 C 0.2315 0.71303 0.50873 0.0
C2137 C 0.24457 0.72611 0.50336 0.0
C2138 C 0.25268 0.72258 0.4872 0.0
C2139 C 0.23987 0.72729 0.38547 0.0
C2140 C 0.24353 0.74581 0.39081 0.0
C2141 C 0.24667 0.71591 0.39698 0.0
C2142 C 0.25737 0.723 0.41378 0.0
C2143 C 0.26177 0.74159 0.41862 0.0
C2144 C 0.25477 0.75296 0.40723 0.0
C2145 C 0.26112 0.71111 0.42781 0.0
C2146 C 0.25459 0.71411 0.4451 0.0
C2147 C 0.26906 0.69602 0.4238 0.0
C2148 C 0.2766 0.69238 0.40593 0.0
C2149 C 0.28948 0.70537 0.39987 0.0
C2150 C 0.29712 0.70155 0.38344 0.0
C2151 C 0.29197 0.68478 0.37296 0.0
C2152 C 0.27917 0.67179 0.37887 0.0
C2153 C 0.27154 0.67552 0.39531 0.0
H2154 H 0.29794 0.68183 0.36027 0.0
H2155 H 0.22518 0.71582 0.5212 0.0
H2156 H 0.67102 0.04417 0.68563 0.0
H2157 H 0.6516 0.03866 0.65586 0.0
H2158 H 0.60613 0.0217 0.68515 0.0
H2159 H 0.6254 0.02704 0.71487 0.0
H2160 H 0.60599 0.99962 0.65356 0.0
H2161 H 0.61314 0.06211 0.67346 0.0
H2162 H 0.6286 0.09314 0.68331 0.0
H2163 H 0.65112 0.09459 0.63106 0.0
H2164 H 0.63602 0.06341 0.62102 0.0
H2165 H 0.53729 0.04025 0.60205 0.0
H2166 H 0.56246 0.03855 0.62502 0.0
H2167 H 0.58365 0.00609 0.58359 0.0
H2168 H 0.55743 0.00607 0.56141 0.0
H2169 H 0.59989 0.05025 0.61667 0.0
H2170 H 0.58997 0.98239 0.60025 0.0
H2171 H 0.56905 0.9535 0.59394 0.0
H2172 H 0.54607 0.96525 0.64468 0.0
H2173 H 0.56651 0.99447 0.65093 0.0
C2174 C 0.65689 0.03919 0.68566 0.0
C2175 C 0.64962 0.03606 0.70245 0.0
C2176 C 0.64588 0.03606 0.66872 0.0
C2177 C 0.62755 0.02979 0.66846 0.0
C2178 C 0.62032 0.02642 0.68517 0.0
C2179 C 0.63129 0.02958 0.70209 0.0
C2180 C 0.61563 0.0274 0.65091 0.0
C2181 C 0.60481 0.01061 0.64533 0.0
C2182 C 0.61411 0.04183 0.64037 0.0
C2183 C 0.62377 0.06031 0.64666 0.0
C2184 C 0.62164 0.06894 0.6642 0.0
C2185 C 0.63027 0.08658 0.66979 0.0
C2186 C 0.64092 0.0958 0.65786 0.0
C2187 C 0.64295 0.0874 0.64032 0.0
C2188 C 0.63438 0.06973 0.63469 0.0
C2189 C 0.5473 0.03268 0.59795 0.0
C2190 C 0.54611 0.02408 0.57973 0.0
C2191 C 0.56155 0.03168 0.611 0.0
C2192 C 0.57472 0.02213 0.60589 0.0
C2193 C 0.57342 0.01329 0.58779 0.0
C2194 C 0.55884 0.01385 0.57492 0.0
C2195 C 0.59025 0.02256 0.61945 0.0
C2196 C 0.60169 0.03906 0.62442 0.0
C2197 C 0.59193 0.00807 0.62977 0.0
C2198 C 0.57942 0.99075 0.62578 0.0
C2199 C 0.58019 0.97896 0.60982 0.0
C2200 C 0.56848 0.96251 0.6063 0.0
C2201 C 0.55615 0.95759 0.61883 0.0
C2202 C 0.55553 0.96913 0.63491 0.0
C2203 C 0.56712 0.98565 0.6384 0.0
H2204 H 0.54716 0.94481 0.61614 0.0
H2205 H 0.64753 0.10948 0.66218 0.0
H2206 H 0.31965 0.35917 0.98548 0.0
H2207 H 0.31881 0.34462 0.95345 0.0
H2208 H 0.26329 0.3482 0.94236 0.0
H2209 H 0.26423 0.36338 0.97417 0.0
H2210 H 0.27431 0.31231 0.93204 0.0
H2211 H 0.2855 0.37432 0.92315 0.0
H2212 H 0.30076 0.40578 0.92945 0.0
H2213 H 0.34995 0.3906 0.9163 0.0
H2214 H 0.33503 0.35895 0.91025 0.0
H2215 H 0.26382 0.29679 0.83054 0.0
H2216 H 0.26355 0.30983 0.86283 0.0
H2217 H 0.31912 0.30691 0.87489 0.0
H2218 H 0.31911 0.29325 0.84276 0.0
H2219 H 0.30761 0.34253 0.88468 0.0
H2220 H 0.2961 0.28037 0.89339 0.0
H2221 H 0.28069 0.24894 0.88749 0.0
H2222 H 0.23177 0.26453 0.901 0.0
H2223 H 0.24683 0.29614 0.90662 0.0
C2224 C 0.30726 0.3568 0.97622 0.0
C2225 C 0.292 0.36235 0.98228 0.0
C2226 C 0.30682 0.34856 0.95795 0.0
C2227 C 0.291 0.34536 0.94558 0.0
C2228 C 0.27562 0.35056 0.95171 0.0
C2229 C 0.27619 0.35924 0.96983 0.0
C2230 C 0.29061 0.33661 0.92623 0.0
C2231 C 0.28138 0.31897 0.92159 0.0
C2232 C 0.30012 0.34524 0.91276 0.0
C2233 C 0.30921 0.36422 0.91654 0.0
C2234 C 0.29963 0.37764 0.92186 0.0
C2235 C 0.3082 0.39552 0.92532 0.0
C2236 C 0.32634 0.40018 0.92337 0.0
C2237 C 0.33592 0.38696 0.91788 0.0
C2238 C 0.3274 0.36905 0.91443 0.0
C2239 C 0.27593 0.29884 0.84004 0.0
C2240 C 0.29154 0.29404 0.834 0.0
C2241 C 0.27576 0.30624 0.85853 0.0
C2242 C 0.29133 0.30938 0.87123 0.0
C2243 C 0.30695 0.30459 0.86529 0.0
C2244 C 0.30694 0.29671 0.84694 0.0
C2245 C 0.2914 0.31817 0.8905 0.0
C2246 C 0.30054 0.33585 0.89512 0.0
C2247 C 0.28174 0.30959 0.90391 0.0
C2248 C 0.27253 0.29066 0.90013 0.0
C2249 C 0.28199 0.27714 0.89481 0.0
C2250 C 0.27334 0.25928 0.89159 0.0
C2251 C 0.25524 0.25474 0.89379 0.0
C2252 C 0.24577 0.26807 0.89924 0.0
C2253 C 0.25436 0.28596 0.90243 0.0
H2254 H 0.24858 0.2409 0.89135 0.0
H2255 H 0.33296 0.41403 0.92604 0.0
H2256 H 0.92389 0.0148 0.32941 0.0
H2257 H 0.93983 0.01485 0.36045 0.0
H2258 H 0.99007 0.02978 0.33846 0.0
H2259 H 0.97414 0.02926 0.30717 0.0
H2260 H 0.9921 1.00421 0.36049 0.0
H2261 H 0.97161 0.06026 0.36651 0.0
H2262 H 0.94931 0.07994 0.36461 0.0
H2263 H 0.92014 0.05118 0.40367 0.0
H2264 H 0.94214 0.03118 0.40561 0.0
H2265 H 0.04149 0.02172 0.45249 0.0
H2266 H 0.02852 0.02186 0.42004 0.0
H2267 H 0.97571 0.01343 0.43779 0.0
H2268 H 0.98874 0.01446 0.47019 0.0
H2269 H 0.97694 0.03783 0.41713 0.0
H2270 H 0.9933 0.97925 0.40751 0.0
H2271 H 0.01343 0.9574 0.40818 0.0
H2272 H 0.04898 0.98955 0.37693 0.0
H2273 H 0.02865 0.01131 0.3755 0.0
C2274 C 0.93833 0.01822 0.3312 0.0
C2275 C 0.94775 0.02211 0.31584 0.0
C2276 C 0.94745 0.01832 0.34899 0.0
C2277 C 0.96619 0.02258 0.35193 0.0
C2278 C 0.97562 0.0265 0.3366 0.0
C2279 C 0.9665 0.02627 0.31873 0.0
C2280 C 0.97589 0.0225 0.37088 0.0
C2281 C 0.98896 0.01179 0.37284 0.0
C2282 C 0.9716 0.03203 0.38713 0.0
C2283 C 0.95845 0.04415 0.38609 0.0
C2284 C 0.96038 0.05807 0.3746 0.0
C2285 C 0.9478 0.06929 0.37354 0.0
C2286 C 0.9333 0.06679 0.38399 0.0
C2287 C 0.93137 0.05309 0.39558 0.0
C2288 C 0.9439 0.04183 0.39668 0.0
C2289 C 0.02712 0.01967 0.44933 0.0
C2290 C 0.01612 0.0183 0.46383 0.0
C2291 C 0.01966 0.01964 0.43074 0.0
C2292 C 1.00103 0.01762 0.42626 0.0
C2293 C 0.9901 0.01527 0.44075 0.0
C2294 C 0.99755 0.01578 0.4593 0.0
C2295 C 0.99282 0.01909 0.4069 0.0
C2296 C 0.98012 0.03023 0.40482 0.0
C2297 C 0.99729 0.0098 0.39059 0.0
C2298 C 0.00962 0.99696 0.39161 0.0
C2299 C 1.00547 0.98169 0.40089 0.0
C2300 C 0.0169 0.96932 0.40137 0.0
C2301 C 0.03265 0.97221 0.39288 0.0
C2302 C 0.03684 0.98737 0.3836 0.0
C2303 C 0.0253 0.99965 0.38281 0.0
H2304 H 0.04153 0.96265 0.39338 0.0
H2305 H 0.92358 0.07548 0.38313 0.0
H2306 H 0.25855 0.68032 0.5847 0.0
H2307 H 0.26701 0.70124 0.61309 0.0
H2308 H 0.29391 0.66312 0.63919 0.0
H2309 H 0.28513 0.64185 0.61077 0.0
H2310 H 0.27154 0.67731 0.66078 0.0
H2311 H 0.31886 0.69949 0.62545 0.0
H2312 H 0.33149 0.70916 0.59709 0.0
H2313 H 0.30179 0.75191 0.59764 0.0
H2314 H 0.28881 0.74239 0.62586 0.0
H2315 H 0.30734 0.75426 0.73235 0.0
H2316 H 0.30913 0.73109 0.70729 0.0
H2317 H 0.26167 0.74204 0.67677 0.0
H2318 H 0.25962 0.76531 0.70208 0.0
H2319 H 0.30126 0.74033 0.66008 0.0
H2320 H 0.24281 0.69333 0.67559 0.0
H2321 H 0.22642 0.68153 0.70094 0.0
H2322 H 0.27569 0.68824 0.73705 0.0
H2323 H 0.29237 0.69966 0.7117 0.0
C2324 C 0.26616 0.67638 0.59655 0.0
C2325 C 0.2712 0.6596 0.59577 0.0
C2326 C 0.27119 0.68838 0.61257 0.0
C2327 C 0.28151 0.68379 0.62781 0.0
C2328 C 0.28617 0.66684 0.6273 0.0
C2329 C 0.28098 0.65471 0.61128 0.0
C2330 C 0.28596 0.69629 0.64485 0.0
C2331 C 0.27851 0.69096 0.66082 0.0
C2332 C 0.2947 0.71412 0.64452 0.0
C2333 C 0.30285 0.7202 0.6278 0.0
C2334 C 0.31499 0.71093 0.6195 0.0
C2335 C 0.3222 0.71638 0.60344 0.0
C2336 C 0.31744 0.73113 0.59557 0.0
C2337 C 0.30549 0.7405 0.60377 0.0
C2338 C 0.29824 0.73511 0.61984 0.0
C2339 C 0.29706 0.75146 0.7205 0.0
C2340 C 0.28301 0.76105 0.71921 0.0
C2341 C 0.29823 0.73842 0.70621 0.0
C2342 C 0.2854 0.73494 0.69059 0.0
C2343 C 0.27153 0.74466 0.68902 0.0
C2344 C 0.27037 0.75781 0.70332 0.0
C2345 C 0.28664 0.72124 0.67569 0.0
C2346 C 0.29498 0.72647 0.66016 0.0
C2347 C 0.27858 0.70335 0.67624 0.0
C2348 C 0.26876 0.69751 0.69189 0.0
C2349 C 0.25011 0.6923 0.68897 0.0
C2350 C 0.2408 0.68554 0.70326 0.0
C2351 C 0.25002 0.68409 0.72058 0.0
C2352 C 0.26857 0.68941 0.72364 0.0
C2353 C 0.27796 0.69602 0.70931 0.0
H2354 H 0.24277 0.67893 0.73166 0.0
H2355 H 0.32301 0.73531 0.58311 0.0
H2356 H 0.64577 0.07091 0.79383 0.0
H2357 H 0.62894 0.07185 0.82077 0.0
H2358 H 0.64813 0.02554 0.8385 0.0
H2359 H 0.66528 0.02459 0.81144 0.0
H2360 H 0.61049 0.02261 0.83416 0.0
H2361 H 0.66169 0.0619 0.86592 0.0
H2362 H 0.68718 0.0871 0.87126 0.0
H2363 H 0.65142 0.12416 0.86506 0.0
H2364 H 0.62572 0.0992 0.85943 0.0
H2365 H 0.57704 0.0514 0.9243 0.0
H2366 H 0.59366 0.03932 0.90092 0.0
H2367 H 0.56983 0.06792 0.85962 0.0
H2368 H 0.55169 0.07905 0.88254 0.0
H2369 H 0.61231 0.07593 0.87976 0.0
H2370 H 0.56201 0.03582 0.84241 0.0
H2371 H 0.53666 0.0105 0.83693 0.0
H2372 H 0.57133 0.97496 0.85391 0.0
H2373 H 0.59685 1.00018 0.8598 0.0
C2374 C 0.64656 0.06104 0.80358 0.0
C2375 C 0.65659 0.04756 0.80058 0.0
C2376 C 0.6371 0.0617 0.819 0.0
C2377 C 0.63749 0.04883 0.83154 0.0
C2378 C 0.64785 0.03559 0.82891 0.0
C2379 C 0.65756 0.03507 0.81354 0.0
C2380 C 0.62549 0.04842 0.84614 0.0
C2381 C 0.61107 0.03406 0.8445 0.0
C2382 C 0.62627 0.06353 0.85926 0.0
C2383 C 0.64175 0.07862 0.86218 0.0
C2384 C 0.65926 0.0754 0.8655 0.0
C2385 C 0.67375 0.08966 0.86863 0.0
C2386 C 0.67091 0.10722 0.86852 0.0
C2387 C 0.65359 0.11055 0.86518 0.0
C2388 C 0.63905 0.09635 0.86205 0.0
C2389 C 0.5744 0.05441 0.91005 0.0
C2390 C 0.56303 0.06641 0.90539 0.0
C2391 C 0.58403 0.04746 0.89671 0.0
C2392 C 0.58275 0.05265 0.87868 0.0
C2393 C 0.57066 0.0636 0.87352 0.0
C2394 C 0.5606 0.07021 0.88672 0.0
C2395 C 0.59705 0.05051 0.86717 0.0
C2396 C 0.61193 0.06437 0.86964 0.0
C2397 C 0.59667 0.03498 0.85485 0.0
C2398 C 0.58125 0.01995 0.85194 0.0
C2399 C 0.56416 0.02268 0.84534 0.0
C2400 C 0.54978 0.00833 0.84205 0.0
C2401 C 0.55236 0.99115 0.84517 0.0
C2402 C 0.56933 0.98829 0.85157 0.0
C2403 C 0.58375 1.00261 0.8549 0.0
H2404 H 0.54122 0.98004 0.84254 0.0
H2405 H 0.68212 0.11824 0.87112 0.0
H2406 H 0.27268 0.3394 0.06874 0.0
H2407 H 0.26705 0.3245 0.09679 0.0
H2408 H 0.29686 0.37109 0.13171 0.0
H2409 H 0.30243 0.38611 0.10372 0.0
H2410 H 0.30663 0.34019 0.14181 0.0
H2411 H 0.25257 0.36267 0.12995 0.0
H2412 H 0.22558 0.36747 0.11105 0.0
H2413 H 0.20586 0.31085 0.10249 0.0
H2414 H 0.23287 0.3057 0.12116 0.0
H2415 H 0.26128 0.31585 0.22688 0.0
H2416 H 0.26345 0.3309 0.19838 0.0
H2417 H 0.27874 0.28476 0.16991 0.0
H2418 H 0.27763 0.27002 0.19847 0.0
H2419 H 0.24594 0.31637 0.1574 0.0
H2420 H 0.30754 0.29664 0.16111 0.0
H2421 H 0.3348 0.29385 0.18101 0.0
H2422 H 0.33979 0.34812 0.20574 0.0
H2423 H 0.31213 0.35092 0.18648 0.0
C2424 C 0.27806 0.34646 0.0824 0.0
C2425 C 0.28809 0.36391 0.084 0.0
C2426 C 0.27472 0.33797 0.09843 0.0
C2427 C 0.28143 0.3467 0.1164 0.0
C2428 C 0.29153 0.36408 0.11801 0.0
C2429 C 0.29471 0.37265 0.102 0.0
C2430 C 0.27842 0.3375 0.13346 0.0
C2431 C 0.29333 0.33503 0.14515 0.0
C2432 C 0.2611 0.33075 0.13799 0.0
C2433 C 0.24483 0.33379 0.12679 0.0
C2434 C 0.24255 0.35123 0.12391 0.0
C2435 C 0.22724 0.35402 0.11326 0.0
C2436 C 0.21404 0.33947 0.10553 0.0
C2437 C 0.21611 0.32211 0.10847 0.0
C2438 C 0.23141 0.31925 0.1191 0.0
C2439 C 0.26509 0.30887 0.21455 0.0
C2440 C 0.26937 0.29171 0.21509 0.0
C2441 C 0.26629 0.3175 0.19826 0.0
C2442 C 0.2716 0.30909 0.18213 0.0
C2443 C 0.27506 0.29169 0.18233 0.0
C2444 C 0.27422 0.28319 0.19867 0.0
C2445 C 0.27415 0.31871 0.16531 0.0
C2446 C 0.25919 0.32141 0.15384 0.0
C2447 C 0.29138 0.32567 0.16087 0.0
C2448 C 0.30765 0.32384 0.17272 0.0
C2449 C 0.31429 0.30784 0.17106 0.0
C2450 C 0.32981 0.30627 0.18219 0.0
C2451 C 0.33897 0.32077 0.19471 0.0
C2452 C 0.33264 0.33687 0.1961 0.0
C2453 C 0.31697 0.33841 0.18521 0.0
H2454 H 0.35101 0.31955 0.20328 0.0
H2455 H 0.20219 0.34166 0.09729 0.0
H2456 H 0.26163 0.96858 0.99396 0.0
H2457 H 0.23803 0.98559 0.9995 0.0
H2458 H 0.20573 0.93866 0.01583 0.0
H2459 H 0.22903 0.9215 0.0099 0.0
H2460 H 0.18643 0.95598 0.99376 0.0
H2461 H 0.22994 0.97023 0.04864 0.0
H2462 H 0.2597 0.98108 0.0663 0.0
H2463 H 0.26115 0.03242 0.04634 0.0
H2464 H 0.23146 0.02178 0.0284 0.0
H2465 H 0.13464 0.98467 0.06222 0.0
H2466 H 0.1551 0.97231 0.0428 0.0
H2467 H 0.17242 0.02427 0.02512 0.0
H2468 H 0.15208 0.03675 0.0446 0.0
H2469 H 0.19948 0.00855 0.04224 0.0
H2470 H 0.15194 0.99349 0.99163 0.0
H2471 H 0.12168 0.98086 0.97595 0.0
H2472 H 0.12715 0.92897 0.99122 0.0
H2473 H 0.15739 0.94131 0.00706 0.0
C2474 C 0.24939 0.96188 0.99852 0.0
C2475 C 0.24703 0.9438 0.00154 0.0
C2476 C 0.23602 0.97159 0.00172 0.0
C2477 C 0.22034 0.96333 0.00818 0.0
C2478 C 0.21779 0.94516 0.01074 0.0
C2479 C 0.23107 0.93542 0.0074 0.0
C2480 C 0.20669 0.97363 0.01293 0.0
C2481 C 0.18922 0.96748 0.00436 0.0
C2482 C 0.21061 0.98882 0.02645 0.0
C2483 C 0.2286 0.99513 0.03696 0.0
C2484 C 0.23669 0.98376 0.04785 0.0
C2485 C 0.25352 0.98989 0.05795 0.0
C2486 C 0.26234 0.00741 0.05738 0.0
C2487 C 0.25433 0.01884 0.04673 0.0
C2488 C 0.2375 0.01277 0.0366 0.0
C2489 C 0.14274 0.99337 0.05407 0.0
C2490 C 0.142 0.01161 0.05495 0.0
C2491 C 0.15416 0.9863 0.04282 0.0
C2492 C 0.16497 0.99742 0.03244 0.0
C2493 C 0.16394 0.01554 0.03291 0.0
C2494 C 0.15242 0.0226 0.04404 0.0
C2495 C 0.17911 0.99059 0.02344 0.0
C2496 C 0.19674 0.99738 0.03124 0.0
C2497 C 0.17527 0.97571 0.0096 0.0
C2498 C 0.15688 0.96836 1.00061 0.0
C2499 C 0.14661 0.97942 0.9918 0.0
C2500 C 0.12949 0.9723 0.98282 0.0
C2501 C 0.12249 0.95413 0.98261 0.0
C2502 C 0.13259 0.94304 0.99138 0.0
C2503 C 0.14973 0.95008 1.00032 0.0
H2504 H 0.10925 0.94865 0.97561 0.0
H2505 H 0.27536 0.01214 0.06523 0.0
H2506 H 0.72429 0.63776 0.03532 0.0
H2507 H 0.69569 0.61794 0.03533 0.0
H2508 H 0.67953 0.62871 0.9791 0.0
H2509 H 0.70778 0.64985 0.97979 0.0
H2510 H 0.65236 0.62631 0.99662 0.0
H2511 H 0.69571 0.58807 0.99095 0.0
H2512 H 0.72358 0.57733 0.99987 0.0
H2513 H 0.7065 0.56729 0.0535 0.0
H2514 H 0.67863 0.57815 0.04498 0.0
H2515 H 0.57889 0.55443 0.98418 0.0
H2516 H 0.60753 0.57298 0.98084 0.0
H2517 H 0.62657 0.56716 0.03789 0.0
H2518 H 0.5982 0.54761 0.0408 0.0
H2519 H 0.65214 0.56632 0.01756 0.0
H2520 H 0.60847 0.60516 0.02263 0.0
H2521 H 0.5804 0.61509 0.01265 0.0
H2522 H 0.59792 0.62333 0.9588 0.0
H2523 H 0.62595 0.61313 0.96833 0.0
C2524 C 0.71458 0.63592 0.02299 0.0
C2525 C 0.71822 0.64516 0.00749 0.0
C2526 C 0.69828 0.62444 0.02291 0.0
C2527 C 0.68559 0.62124 0.00695 0.0
C2528 C 0.68911 0.63078 0.99154 0.0
C2529 C 0.70524 0.64282 0.99189 0.0
C2530 C 0.66869 0.60804 0.0065 0.0
C2531 C 0.65236 0.6131 0.00093 0.0
C2532 C 0.66852 0.59082 0.01236 0.0
C2533 C 0.68515 0.58402 0.01736 0.0
C2534 C 0.69794 0.58363 0.00466 0.0
C2535 C 0.71373 0.57752 0.00965 0.0
C2536 C 0.71683 0.57166 0.02725 0.0
C2537 C 0.7041 0.57183 0.03988 0.0
C2538 C 0.68829 0.57793 0.03497 0.0
C2539 C 0.58931 0.55696 0.99591 0.0
C2540 C 0.5864 0.54972 0.01278 0.0
C2541 C 0.6056 0.56769 0.99406 0.0
C2542 C 0.61906 0.57198 0.0093 0.0
C2543 C 0.61637 0.56417 0.02596 0.0
C2544 C 0.60021 0.55298 0.02763 0.0
C2545 C 0.63586 0.58471 0.00803 0.0
C2546 C 0.65216 0.57952 0.0132 0.0
C2547 C 0.63597 0.60173 0.00168 0.0
C2548 C 0.61926 0.60826 0.99616 0.0
C2549 C 0.60631 0.60903 0.00864 0.0
C2550 C 0.5904 0.61469 0.00306 0.0
C2551 C 0.58738 0.61983 0.9851 0.0
C2552 C 0.60027 0.61934 0.9727 0.0
C2553 C 0.61617 0.61363 0.97819 0.0
H2554 H 0.57506 0.62422 0.9808 0.0
H2555 H 0.72907 0.56697 0.03109 0.0
H2556 H 0.67893 0.51163 0.26403 0.0
H2557 H 0.69443 0.48643 0.25952 0.0
H2558 H 0.66408 0.45918 0.29904 0.0
H2559 H 0.64812 0.4843 0.30333 0.0
H2560 H 0.70345 0.46138 0.30417 0.0
H2561 H 0.65259 0.44311 0.25766 0.0
H2562 H 0.6312 0.44657 0.23102 0.0
H2563 H 0.67386 0.45577 0.19657 0.0
H2564 H 0.69555 0.45266 0.22309 0.0
H2565 H 0.73116 0.3763 0.26625 0.0
H2566 H 0.71323 0.39736 0.27915 0.0
H2567 H 0.74105 0.43885 0.25064 0.0
H2568 H 0.75948 0.41842 0.2386 0.0
H2569 H 0.69942 0.42581 0.24214 0.0
H2570 H 0.75015 0.44976 0.28748 0.0
H2571 H 0.77348 0.45062 0.31372 0.0
H2572 H 0.73332 0.43461 0.34954 0.0
H2573 H 0.70977 0.43309 0.32328 0.0
C2574 C 0.67557 0.50031 0.27181 0.0
C2575 C 0.66235 0.49993 0.28408 0.0
C2576 C 0.68436 0.48589 0.26913 0.0
C2577 C 0.68028 0.47094 0.27884 0.0
C2578 C 0.66733 0.47061 0.29138 0.0
C2579 C 0.65826 0.48493 0.29382 0.0
C2580 C 0.68997 0.45592 0.27607 0.0
C2581 C 0.70226 0.45325 0.29076 0.0
C2582 C 0.68872 0.44575 0.25839 0.0
C2583 C 0.67572 0.4478 0.24244 0.0
C2584 C 0.65744 0.44606 0.24447 0.0
C2585 C 0.64526 0.44792 0.22937 0.0
C2586 C 0.65118 0.45143 0.21213 0.0
C2587 C 0.6693 0.45307 0.20994 0.0
C2588 C 0.68154 0.45124 0.225 0.0
C2589 C 0.73387 0.39007 0.26331 0.0
C2590 C 0.74654 0.3956 0.25113 0.0
C2591 C 0.72355 0.40204 0.27058 0.0
C2592 C 0.72579 0.41958 0.26569 0.0
C2593 C 0.73913 0.42535 0.25452 0.0
C2594 C 0.74958 0.41361 0.24759 0.0
C2595 C 0.71305 0.43141 0.27019 0.0
C2596 C 0.70023 0.43355 0.25572 0.0
C2597 C 0.71408 0.44135 0.28793 0.0
C2598 C 0.72822 0.44083 0.30328 0.0
C2599 C 0.74631 0.4459 0.30078 0.0
C2600 C 0.75959 0.44662 0.3157 0.0
C2601 C 0.75493 0.44254 0.33325 0.0
C2602 C 0.73697 0.4376 0.3359 0.0
C2603 C 0.72364 0.43675 0.32098 0.0
H2604 H 0.76526 0.4434 0.34482 0.0
H2605 H 0.64172 0.45284 0.20045 0.0
H2606 H 0.85108 0.42317 0.50159 0.0
H2607 H 0.88139 0.44043 0.50337 0.0
H2608 H 0.86106 0.48949 0.51194 0.0
H2609 H 0.83084 0.47248 0.50995 0.0
H2610 H 0.88529 0.4897 0.4856 0.0
H2611 H 0.87866 0.47313 0.54868 0.0
H2612 H 0.87238 0.45139 0.57148 0.0
H2613 H 0.91493 0.42568 0.55487 0.0
H2614 H 0.92129 0.44711 0.5318 0.0
H2615 H 0.96554 0.54902 0.5131 0.0
H2616 H 0.93584 0.53295 0.51753 0.0
H2617 H 0.95465 0.48286 0.51078 0.0
H2618 H 0.98389 0.49873 0.50612 0.0
H2619 H 0.93118 0.48351 0.53695 0.0
H2620 H 0.93793 0.49719 0.47403 0.0
H2621 H 0.94523 0.51694 0.44967 0.0
H2622 H 0.90349 0.54527 0.46303 0.0
H2623 H 0.89619 0.52591 0.48777 0.0
C2624 C 0.85314 0.43763 0.50386 0.0
C2625 C 0.83882 0.44658 0.50581 0.0
C2626 C 0.87034 0.44739 0.50484 0.0
C2627 C 0.87319 0.46607 0.50794 0.0
C2628 C 0.85889 0.47502 0.50955 0.0
C2629 C 0.84175 0.46531 0.5085 0.0
C2630 C 0.89117 0.47646 0.50994 0.0
C2631 C 0.8953 0.48858 0.49694 0.0
C2632 C 0.90413 0.4744 0.52446 0.0
C2633 C 0.90034 0.46162 0.53842 0.0
C2634 C 0.88659 0.46276 0.54981 0.0
C2635 C 0.88303 0.45051 0.56279 0.0
C2636 C 0.89322 0.43714 0.56459 0.0
C2637 C 0.90703 0.43602 0.55345 0.0
C2638 C 0.91062 0.44822 0.54043 0.0
C2639 C 0.9633 0.53463 0.51319 0.0
C2640 C 0.97679 0.52497 0.50973 0.0
C2641 C 0.94654 0.52556 0.5157 0.0
C2642 C 0.94332 0.50686 0.51437 0.0
C2643 C 0.95713 0.49734 0.51204 0.0
C2644 C 0.97381 0.5064 0.50949 0.0
C2645 C 0.9252 0.49694 0.51281 0.0
C2646 C 0.92109 0.4848 0.52576 0.0
C2647 C 0.91239 0.49868 0.49796 0.0
C2648 C 0.91668 0.51026 0.48296 0.0
C2649 C 0.93043 0.50775 0.47192 0.0
C2650 C 0.93456 0.51886 0.45802 0.0
C2651 C 0.92488 0.5324 0.45485 0.0
C2652 C 0.91102 0.53482 0.46554 0.0
C2653 C 0.90689 0.52379 0.47952 0.0
H2654 H 0.92808 0.54098 0.44407 0.0
H2655 H 0.89044 0.42767 0.57465 0.0
H2656 H 0.38399 0.07372 0.27242 0.0
H2657 H 0.36703 0.09723 0.26697 0.0
H2658 H 0.33895 0.08557 0.31486 0.0
H2659 H 0.35504 0.0609 0.31936 0.0
H2660 H 0.31683 0.08921 0.28704 0.0
H2661 H 0.37229 0.12446 0.31553 0.0
H2662 H 0.40516 0.13207 0.3198 0.0
H2663 H 0.40503 0.14554 0.26331 0.0
H2664 H 0.37218 0.13776 0.25859 0.0
H2665 H 0.2749 0.16178 0.2644 0.0
H2666 H 0.29369 0.1456 0.28318 0.0
H2667 H 0.32527 0.13973 0.23728 0.0
H2668 H 0.30671 0.15615 0.21854 0.0
H2669 H 0.34567 0.14885 0.27241 0.0
H2670 H 0.29303 0.10741 0.242 0.0
H2671 H 0.26061 0.0965 0.23486 0.0
H2672 H 0.25617 0.09285 0.29336 0.0
H2673 H 0.28856 0.10408 0.30088 0.0
C2674 C 0.37436 0.07639 0.28189 0.0
C2675 C 0.37083 0.06586 0.29639 0.0
C2676 C 0.36479 0.08987 0.2789 0.0
C2677 C 0.3522 0.09353 0.29094 0.0
C2678 C 0.3488 0.08306 0.3056 0.0
C2679 C 0.35795 0.0691 0.30818 0.0
C2680 C 0.34175 0.10745 0.28715 0.0
C2681 C 0.32311 0.10247 0.28444 0.0
C2682 C 0.35004 0.1246 0.28349 0.0
C2683 C 0.36973 0.13058 0.28674 0.0
C2684 C 0.37926 0.12913 0.30404 0.0
C2685 C 0.3979 0.13341 0.30652 0.0
C2686 C 0.40718 0.1393 0.29184 0.0
C2687 C 0.39783 0.14103 0.27469 0.0
C2688 C 0.37919 0.13675 0.27213 0.0
C2689 C 0.28591 0.15707 0.25839 0.0
C2690 C 0.28929 0.1599 0.23999 0.0
C2691 C 0.29661 0.14795 0.26912 0.0
C2692 C 0.31075 0.14156 0.26151 0.0
C2693 C 0.3144 0.1447 0.24331 0.0
C2694 C 0.30367 0.15377 0.23256 0.0
C2695 C 0.32094 0.13032 0.27184 0.0
C2696 C 0.33945 0.13585 0.27578 0.0
C2697 C 0.31258 0.11363 0.27656 0.0
C2698 C 0.29314 0.10686 0.27203 0.0
C2699 C 0.2851 0.10447 0.25336 0.0
C2700 C 0.26674 0.0982 0.24924 0.0
C2701 C 0.25632 0.09406 0.26366 0.0
C2702 C 0.26425 0.09613 0.28222 0.0
C2703 C 0.2826 0.10246 0.28642 0.0
H2704 H 0.24211 0.08918 0.26044 0.0
H2705 H 0.42161 0.14251 0.29375 0.0
H2706 H 0.33048 0.17424 0.52442 0.0
H2707 H 0.3545 0.15691 0.52726 0.0
H2708 H 0.31608 0.10812 0.51116 0.0
H2709 H 0.29207 0.12527 0.50857 0.0
H2710 H 0.3368 0.10694 0.54309 0.0
H2711 H 0.34575 0.12499 0.48152 0.0
H2712 H 0.35168 0.14667 0.45862 0.0
H2713 H 0.4016 0.17039 0.49109 0.0
H2714 H 0.39585 0.14901 0.51433 0.0
H2715 H 0.38961 0.04299 0.53617 0.0
H2716 H 0.36994 0.06294 0.52557 0.0
H2717 H 0.41245 0.10842 0.54215 0.0
H2718 H 0.43237 0.08829 0.55219 0.0
H2719 H 0.39144 0.11304 0.51059 0.0
H2720 H 0.38327 0.09748 0.57223 0.0
H2721 H 0.37913 0.07639 0.59596 0.0
H2722 H 0.32921 0.04995 0.5652 0.0
H2723 H 0.33319 0.07076 0.54113 0.0
C2724 C 0.3272 0.15983 0.52137 0.0
C2725 C 0.30941 0.15107 0.51645 0.0
C2726 C 0.34094 0.14997 0.52286 0.0
C2727 C 0.33705 0.13126 0.5193 0.0
C2728 C 0.31934 0.12256 0.51395 0.0
C2729 C 0.30564 0.13237 0.51252 0.0
C2730 C 0.35109 0.12051 0.52267 0.0
C2731 C 0.34861 0.10814 0.53577 0.0
C2732 C 0.36687 0.12264 0.51373 0.0
C2733 C 0.37027 0.13552 0.49978 0.0
C2734 C 0.35791 0.13494 0.48388 0.0
C2735 C 0.36126 0.14715 0.47081 0.0
C2736 C 0.37698 0.15993 0.47343 0.0
C2737 C 0.38941 0.1605 0.4891 0.0
C2738 C 0.38612 0.14834 0.50221 0.0
C2739 C 0.39475 0.05723 0.53735 0.0
C2740 C 0.41228 0.06424 0.54525 0.0
C2741 C 0.38359 0.06858 0.53124 0.0
C2742 C 0.38966 0.08716 0.53346 0.0
C2743 C 0.40752 0.09413 0.54038 0.0
C2744 C 0.41881 0.08269 0.5462 0.0
C2745 C 0.37678 0.09921 0.53054 0.0
C2746 C 0.37957 0.1119 0.5178 0.0
C2747 C 0.36138 0.09769 0.54005 0.0
C2748 C 0.35856 0.08561 0.55485 0.0
C2749 C 0.37142 0.08715 0.57052 0.0
C2750 C 0.36911 0.07524 0.58401 0.0
C2751 C 0.35392 0.06182 0.58208 0.0
C2752 C 0.34097 0.06035 0.56668 0.0
C2753 C 0.34322 0.07222 0.55312 0.0
H2754 H 0.35218 0.05258 0.59251 0.0
H2755 H 0.37955 0.16937 0.4633 0.0
H2756 H 0.64993 0.60569 0.30459 0.0
H2757 H 0.67 0.63464 0.30714 0.0
H2758 H 0.70701 0.61018 0.27657 0.0
H2759 H 0.68744 0.58105 0.27505 0.0
H2760 H 0.72517 0.63263 0.30259 0.0
H2761 H 0.67592 0.63653 0.25667 0.0
H2762 H 0.64435 0.63544 0.24494 0.0
H2763 H 0.64074 0.6766 0.28854 0.0
H2764 H 0.67222 0.67778 0.30066 0.0
H2765 H 0.7716 0.71058 0.26924 0.0
H2766 H 0.75309 0.68188 0.27256 0.0
H2767 H 0.72419 0.70824 0.31172 0.0
H2768 H 0.7429 0.73697 0.30883 0.0
H2769 H 0.70213 0.68576 0.28348 0.0
H2770 H 0.75215 0.68353 0.3276 0.0
H2771 H 0.78407 0.68556 0.33829 0.0
H2772 H 0.78657 0.64181 0.29721 0.0
H2773 H 0.75472 0.63973 0.28601 0.0
C2774 C 0.66236 0.60653 0.29843 0.0
C2775 C 0.66708 0.59117 0.2895 0.0
C2776 C 0.6738 0.62311 0.29979 0.0
C2777 C 0.68992 0.62478 0.29168 0.0
C2778 C 0.69469 0.60934 0.28292 0.0
C2779 C 0.68345 0.59269 0.28198 0.0
C2780 C 0.7018 0.64253 0.29221 0.0
C2781 C 0.72012 0.64416 0.29818 0.0
C2782 C 0.69526 0.65783 0.28698 0.0
C2783 C 0.67635 0.65711 0.27968 0.0
C2784 C 0.66835 0.64526 0.26382 0.0
C2785 C 0.65048 0.64464 0.2571 0.0
C2786 C 0.64053 0.65591 0.26602 0.0
C2787 C 0.64844 0.66786 0.28166 0.0
C2788 C 0.66629 0.66852 0.28846 0.0
C2789 C 0.76162 0.71025 0.27892 0.0
C2790 C 0.75892 0.72607 0.28897 0.0
C2791 C 0.75098 0.69383 0.28072 0.0
C2792 C 0.73735 0.69292 0.29249 0.0
C2793 C 0.73466 0.70865 0.3026 0.0
C2794 C 0.7454 0.72505 0.30094 0.0
C2795 C 0.72538 0.67567 0.29356 0.0
C2796 C 0.7071 0.67419 0.28792 0.0
C2797 C 0.73197 0.66053 0.29898 0.0
C2798 C 0.75107 0.66157 0.30586 0.0
C2799 C 0.75953 0.67442 0.32074 0.0
C2800 C 0.77761 0.67557 0.32691 0.0
C2801 C 0.78735 0.66384 0.31841 0.0
C2802 C 0.77901 0.6509 0.30376 0.0
C2803 C 0.76094 0.64972 0.29751 0.0
H2804 H 0.80135 0.66476 0.3232 0.0
H2805 H 0.6267 0.65541 0.26079 0.0
H2806 H 0.87553 0.46367 0.76993 0.0
H2807 H 0.85627 0.43408 0.76709 0.0
H2808 H 0.84014 0.44662 0.8218 0.0
H2809 H 0.85875 0.47648 0.82438 0.0
H2810 H 0.85424 0.41038 0.80965 0.0
H2811 H 0.81137 0.44941 0.79771 0.0
H2812 H 0.79893 0.47247 0.78189 0.0
H2813 H 0.79602 0.44113 0.72859 0.0
H2814 H 0.80882 0.41804 0.74411 0.0
H2815 H 0.78436 0.34341 0.8198 0.0
H2816 H 0.80069 0.37366 0.8195 0.0
H2817 H 0.79799 0.36492 0.7591 0.0
H2818 H 0.78034 0.33501 0.75947 0.0
H2819 H 0.79466 0.39867 0.77207 0.0
H2820 H 0.83357 0.35732 0.78526 0.0
H2821 H 0.84306 0.33342 0.80222 0.0
H2822 H 0.85267 0.36851 0.85378 0.0
H2823 H 0.84279 0.3925 0.83722 0.0
C2824 C 0.86793 0.45997 0.78134 0.0
C2825 C 0.86841 0.47205 0.79734 0.0
C2826 C 0.85699 0.44326 0.77968 0.0
C2827 C 0.8469 0.43856 0.7942 0.0
C2828 C 0.84787 0.45034 0.81049 0.0
C2829 C 0.8584 0.46722 0.81193 0.0
C2830 C 0.8352 0.42126 0.79237 0.0
C2831 C 0.84117 0.40773 0.80154 0.0
C2832 C 0.81845 0.41807 0.78143 0.0
C2833 C 0.81144 0.43222 0.77202 0.0
C2834 C 0.80844 0.44762 0.78258 0.0
C2835 C 0.80122 0.46064 0.77368 0.0
C2836 C 0.79679 0.45832 0.75423 0.0
C2837 C 0.79955 0.44296 0.74364 0.0
C2838 C 0.80681 0.42992 0.75248 0.0
C2839 C 0.78706 0.34805 0.80649 0.0
C2840 C 0.78225 0.33674 0.78968 0.0
C2841 C 0.79636 0.36523 0.80633 0.0
C2842 C 0.80108 0.37102 0.78935 0.0
C2843 C 0.79481 0.36032 0.77235 0.0
C2844 C 0.78521 0.34319 0.77256 0.0
C2845 C 0.81352 0.38777 0.78959 0.0
C2846 C 0.8078 0.40118 0.78001 0.0
C2847 C 0.83052 0.39083 0.80019 0.0
C2848 C 0.8373 0.37668 0.81 0.0
C2849 C 0.83764 0.35993 0.80023 0.0
C2850 C 0.84305 0.34635 0.80978 0.0
C2851 C 0.8484 0.34943 0.82908 0.0
C2852 C 0.84848 0.36614 0.83884 0.0
C2853 C 0.84297 0.37973 0.82937 0.0
H2854 H 0.85251 0.33888 0.83647 0.0
H2855 H 0.79113 0.46839 0.74737 0.0
H2856 H 0.0319 0.8338 0.07047 0.0
H2857 H 0.03031 0.86373 0.06165 0.0
H2858 H 0.07528 0.88619 0.10271 0.0
H2859 H 0.07622 0.85641 0.11215 0.0
H2860 H 0.05596 0.90899 0.1041 0.0
H2861 H 0.07443 0.87976 0.049 0.0
H2862 H 0.07242 0.8565 0.02228 0.0
H2863 H 0.02129 0.86696 0.00124 0.0
H2864 H 0.02294 0.89016 0.02793 0.0
H2865 H 0.07134 0.99566 0.07044 0.0
H2866 H 0.07338 0.96582 0.07926 0.0
H2867 H 0.02738 0.94306 0.03965 0.0
H2868 H 0.02621 0.9725 0.02997 0.0
H2869 H 0.04731 0.92064 0.03772 0.0
H2870 H 0.02914 0.95032 0.0926 0.0
H2871 H 0.03166 0.97422 0.11879 0.0
H2872 H 0.08257 0.96334 0.13998 0.0
H2873 H 0.08044 0.93952 0.11378 0.0
C2874 C 0.04157 0.84507 0.07755 0.0
C2875 C 0.05432 0.84234 0.09198 0.0
C2876 C 0.04075 0.86241 0.07237 0.0
C2877 C 0.05292 0.8778 0.08105 0.0
C2878 C 0.06562 0.87497 0.09552 0.0
C2879 C 0.06626 0.85771 0.10089 0.0
C2880 C 0.05236 0.8967 0.07548 0.0
C2881 C 0.05432 0.9114 0.08951 0.0
C2882 C 0.04978 0.90052 0.05652 0.0
C2883 C 0.04873 0.88654 0.04055 0.0
C2884 C 0.06272 0.877 0.03873 0.0
C2885 C 0.06165 0.86385 0.02359 0.0
C2886 C 0.04671 0.86021 0.0101 0.0
C2887 C 0.03284 0.86976 0.01171 0.0
C2888 C 0.03384 0.88292 0.02683 0.0
C2889 C 0.06164 0.98434 0.06352 0.0
C2890 C 0.04829 0.98697 0.04963 0.0
C2891 C 0.06269 0.96707 0.06879 0.0
C2892 C 0.05025 0.95166 0.06064 0.0
C2893 C 0.03717 0.95432 0.04652 0.0
C2894 C 0.03631 0.97149 0.0411 0.0
C2895 C 0.05093 0.93286 0.06631 0.0
C2896 C 0.04896 0.9182 0.05231 0.0
C2897 C 0.05351 0.92911 0.08528 0.0
C2898 C 0.05469 0.94325 0.10115 0.0
C2899 C 0.0409 0.95308 0.1028 0.0
C2900 C 0.04226 0.96661 0.11765 0.0
C2901 C 0.05728 0.97032 0.13101 0.0
C2902 C 0.07095 0.96047 0.1296 0.0
C2903 C 0.06967 0.94694 0.11477 0.0
H2904 H 0.05832 0.9808 0.14248 0.0
H2905 H 0.04591 0.85003 0.99839 0.0
H2906 H 0.94104 0.27654 0.92884 0.0
H2907 H 0.91269 0.27931 0.9117 0.0
H2908 H 0.93139 0.26206 0.85968 0.0
H2909 H 0.96015 0.26021 0.87679 0.0
H2910 H 0.91454 0.28662 0.85281 0.0
H2911 H 0.89783 0.23502 0.88598 0.0
H2912 H 0.89485 0.21876 0.91382 0.0
H2913 H 0.86458 0.25616 0.93685 0.0
H2914 H 0.86757 0.27275 0.90926 0.0
H2915 H 0.8314 0.26954 0.79557 0.0
H2916 H 0.8593 0.26782 0.81379 0.0
H2917 H 0.838 0.28425 0.86448 0.0
H2918 H 0.80974 0.28544 0.84614 0.0
H2919 H 0.85614 0.26141 0.87272 0.0
H2920 H 0.87278 0.31343 0.84126 0.0
H2921 H 0.87644 0.33142 0.81472 0.0
H2922 H 0.90648 0.29499 0.78958 0.0
H2923 H 0.90317 0.27685 0.816 0.0
C2924 C 0.9391 0.27322 0.91375 0.0
C2925 C 0.95298 0.268 0.9043 0.0
C2926 C 0.9227 0.27468 0.90387 0.0
C2927 C 0.91936 0.27052 0.8842 0.0
C2928 C 0.9333 0.26534 0.87477 0.0
C2929 C 0.94983 0.26418 0.88462 0.0
C2930 C 0.9017 0.27198 0.87339 0.0
C2931 C 0.90182 0.28082 0.8571 0.0
C2932 C 0.88479 0.26515 0.87906 0.0
C2933 C 0.88308 0.25521 0.89565 0.0
C2934 C 0.89065 0.23984 0.89704 0.0
C2935 C 0.88894 0.23056 0.91277 0.0
C2936 C 0.87957 0.23645 0.92712 0.0
C2937 C 0.87186 0.25162 0.92575 0.0
C2938 C 0.87355 0.26096 0.91007 0.0
C2939 C 0.83271 0.27332 0.81048 0.0
C2940 C 0.81837 0.27866 0.81899 0.0
C2941 C 0.84885 0.27226 0.82105 0.0
C2942 C 0.85142 0.27664 0.84067 0.0
C2943 C 0.83679 0.28111 0.84939 0.0
C2944 C 0.82051 0.28193 0.83877 0.0
C2945 C 0.86899 0.27586 0.85204 0.0
C2946 C 0.86886 0.2672 0.86843 0.0
C2947 C 0.8859 0.28303 0.84659 0.0
C2948 C 0.88757 0.29369 0.8305 0.0
C2949 C 0.88004 0.30918 0.82999 0.0
C2950 C 0.88207 0.31942 0.815 0.0
C2951 C 0.89154 0.31428 0.80042 0.0
C2952 C 0.8991 0.29893 0.80085 0.0
C2953 C 0.89721 0.28871 0.81586 0.0
H2954 H 0.89308 0.32223 0.78884 0.0
H2955 H 0.87826 0.22924 0.93927 0.0
H2956 H 0.56265 0.2309 0.61679 0.0
H2957 H 0.55903 0.19883 0.60745 0.0
H2958 H 0.53 0.20481 0.55492 0.0
H2959 H 0.53355 0.23725 0.56439 0.0
H2960 H 0.51402 0.17472 0.56836 0.0
H2961 H 0.57482 0.19717 0.55881 0.0
H2962 H 0.60554 0.21376 0.56801 0.0
H2963 H 0.61209 0.18106 0.6125 0.0
H2964 H 0.58133 0.16441 0.6037 0.0
H2965 H 0.5119 0.08411 0.53077 0.0
H2966 H 0.51537 0.11653 0.53705 0.0
H2967 H 0.55704 0.11659 0.58191 0.0
H2968 H 0.55474 0.08425 0.57403 0.0
H2969 H 0.56632 0.14458 0.57134 0.0
H2970 H 0.50567 0.12283 0.58309 0.0
H2971 H 0.47433 0.10719 0.57613 0.0
H2972 H 0.46644 0.13852 0.53071 0.0
H2973 H 0.49776 0.15417 0.53724 0.0
C2974 C 0.55556 0.22555 0.60315 0.0
C2975 C 0.54857 0.23706 0.59138 0.0
C2976 C 0.55353 0.20698 0.59773 0.0
C2977 C 0.54443 0.19893 0.58023 0.0
C2978 C 0.53718 0.21035 0.56847 0.0
C2979 C 0.5393 0.22907 0.57388 0.0
C2980 C 0.54251 0.17879 0.57447 0.0
C2981 C 0.52552 0.16819 0.56881 0.0
C2982 C 0.55725 0.16972 0.57546 0.0
C2983 C 0.57575 0.17965 0.58069 0.0
C2984 C 0.58279 0.1936 0.57063 0.0
C2985 C 0.6002 0.203 0.57576 0.0
C2986 C 0.61074 0.19849 0.59085 0.0
C2987 C 0.6039 0.18454 0.60082 0.0
C2988 C 0.58649 0.17511 0.59575 0.0
C2989 C 0.5219 0.09107 0.54192 0.0
C2990 C 0.533 0.08136 0.55187 0.0
C2991 C 0.5237 0.10983 0.54584 0.0
C2992 C 0.53604 0.11972 0.56063 0.0
C2993 C 0.54728 0.10987 0.57046 0.0
C2994 C 0.54596 0.09116 0.566 0.0
C2995 C 0.53765 0.14008 0.56552 0.0
C2996 C 0.55467 0.15086 0.57097 0.0
C2997 C 0.52282 0.14923 0.56469 0.0
C2998 C 0.50411 0.13954 0.56055 0.0
C2999 C 0.49728 0.12627 0.57153 0.0
C3000 C 0.47952 0.11743 0.56767 0.0
C3001 C 0.46843 0.12185 0.55297 0.0
C3002 C 0.47506 0.1351 0.54208 0.0
C3003 C 0.49281 0.14395 0.54585 0.0
H3004 H 0.45467 0.11506 0.55004 0.0
H3005 H 0.62423 0.20579 0.59481 0.0
H3006 H 0.54084 0.78202 0.38246 0.0
H3007 H 0.56826 0.78332 0.36742 0.0
H3008 H 0.59221 0.76005 0.41349 0.0
H3009 H 0.56528 0.76025 0.42921 0.0
H3010 H 0.61684 0.78119 0.40478 0.0
H3011 H 0.57476 0.73686 0.36478 0.0
H3012 H 0.54641 0.72415 0.34508 0.0
H3013 H 0.55708 0.76442 0.30792 0.0
H3014 H 0.5854 0.77751 0.32753 0.0
H3015 H 0.69093 0.76714 0.35634 0.0
H3016 H 0.66258 0.76028 0.36977 0.0
H3017 H 0.63887 0.79187 0.3314 0.0
H3018 H 0.66709 0.79819 0.31768 0.0
H3019 H 0.61452 0.7641 0.33637 0.0
H3020 H 0.65771 0.80786 0.37916 0.0
H3021 H 0.68673 0.81729 0.39873 0.0
H3022 H 0.67414 0.7733 0.43097 0.0
H3023 H 0.64517 0.76345 0.41141 0.0
C3024 C 0.55195 0.77715 0.38935 0.0
C3025 C 0.55076 0.77094 0.40701 0.0
C3026 C 0.56769 0.7777 0.38062 0.0
C3027 C 0.5825 0.7713 0.38885 0.0
C3028 C 0.58122 0.76509 0.40658 0.0
C3029 C 0.5657 0.76511 0.4156 0.0
C3030 C 0.59933 0.77139 0.37926 0.0
C3031 C 0.61617 0.77715 0.38986 0.0
C3032 C 0.59897 0.76625 0.3597 0.0
C3033 C 0.58212 0.75824 0.34771 0.0
C3034 C 0.57102 0.74304 0.35245 0.0
C3035 C 0.55496 0.73577 0.3413 0.0
C3036 C 0.54993 0.7435 0.32528 0.0
C3037 C 0.56099 0.75846 0.32034 0.0
C3038 C 0.57705 0.7658 0.33145 0.0
C3039 C 0.67948 0.77211 0.35041 0.0
C3040 C 0.68117 0.78293 0.33572 0.0
C3041 C 0.66329 0.76843 0.35828 0.0
C3042 C 0.64847 0.77587 0.352 0.0
C3043 C 0.64995 0.78595 0.33666 0.0
C3044 C 0.66609 0.78949 0.3287 0.0
C3045 C 0.63181 0.77406 0.36186 0.0
C3046 C 0.61505 0.76801 0.35131 0.0
C3047 C 0.63226 0.77847 0.38153 0.0
C3048 C 0.64934 0.78486 0.39375 0.0
C3049 C 0.66115 0.8002 0.39042 0.0
C3050 C 0.67759 0.8056 0.40148 0.0
C3051 C 0.68228 0.79588 0.41606 0.0
C3052 C 0.6705 0.7808 0.41967 0.0
C3053 C 0.65406 0.77531 0.40861 0.0
H3054 H 0.69504 0.80005 0.42457 0.0
H3055 H 0.53748 0.73787 0.31669 0.0
H3056 H 0.01837 0.24461 0.3732 0.0
H3057 H 0.01795 0.21707 0.38812 0.0
H3058 H 0.06332 0.243 0.42712 0.0
H3059 H 0.06361 0.27078 0.41239 0.0
H3060 H 0.06611 0.20754 0.41295 0.0
H3061 H 0.02411 0.23722 0.44228 0.0
H3062 H 0.99827 0.25235 0.44373 0.0
H3063 H 0.96381 0.20554 0.41441 0.0
H3064 H 0.98952 0.19022 0.41254 0.0
H3065 H 0.04909 0.1442 0.48371 0.0
H3066 H 0.0569 0.17006 0.46611 0.0
H3067 H 0.01416 0.14703 0.42277 0.0
H3068 H 0.00669 0.12119 0.43998 0.0
H3069 H 0.01157 0.18153 0.43987 0.0
H3070 H 0.05302 0.15151 0.4108 0.0
H3071 H 0.07866 0.13626 0.4083 0.0
H3072 H 0.11401 0.18308 0.43639 0.0
H3073 H 0.08851 0.19852 0.43937 0.0
C3074 C 0.02828 0.24451 0.38496 0.0
C3075 C 0.04095 0.26004 0.39162 0.0
C3076 C 0.02802 0.22869 0.39351 0.0
C3077 C 0.04057 0.22781 0.40887 0.0
C3078 C 0.05349 0.24321 0.41532 0.0
C3079 C 0.05357 0.25915 0.40694 0.0
C3080 C 0.03973 0.21103 0.41843 0.0
C3081 C 0.05429 0.20201 0.41911 0.0
C3082 C 0.02421 0.20344 0.42616 0.0
C3083 C 0.00876 0.21266 0.42708 0.0
C3084 C 0.01105 0.23022 0.43597 0.0
C3085 C 0.99642 0.23882 0.43691 0.0
C3086 C 0.97942 0.22993 0.42912 0.0
C3087 C 0.977 0.21242 0.4204 0.0
C3088 C 0.99159 0.20377 0.41941 0.0
C3089 C 0.04198 0.14424 0.46998 0.0
C3090 C 0.02741 0.13045 0.46316 0.0
C3091 C 0.04631 0.15916 0.46 0.0
C3092 C 0.03601 0.16068 0.44312 0.0
C3093 C 0.0223 0.14631 0.43573 0.0
C3094 C 0.01816 0.13139 0.44551 0.0
C3095 C 0.03789 0.17791 0.43432 0.0
C3096 C 0.02346 0.18706 0.43382 0.0
C3097 C 0.05351 0.18551 0.42675 0.0
C3098 C 0.06879 0.17607 0.4256 0.0
C3099 C 0.06621 0.15846 0.41674 0.0
C3100 C 0.08073 0.14981 0.41516 0.0
C3101 C 0.09794 0.15867 0.42226 0.0
C3102 C 0.10066 0.17621 0.43096 0.0
C3103 C 0.08617 0.18492 0.4326 0.0
H3104 H 0.10918 0.15196 0.42096 0.0
H3105 H 0.9681 0.2366 0.42988 0.0
H3106 H 0.57211 0.26903 0.23494 0.0
H3107 H 0.60447 0.27304 0.24469 0.0
H3108 H 0.6136 0.2625 0.187 0.0
H3109 H 0.58157 0.25881 0.17728 0.0
H3110 H 0.63361 0.24489 0.20769 0.0
H3111 H 0.62434 0.30488 0.21099 0.0
H3112 H 0.61198 0.33162 0.22047 0.0
H3113 H 0.63094 0.32939 0.27808 0.0
H3114 H 0.64318 0.30244 0.26898 0.0
H3115 H 0.72903 0.28506 0.2178 0.0
H3116 H 0.69645 0.28103 0.20997 0.0
H3117 H 0.689 0.26932 0.26623 0.0
H3118 H 0.72157 0.27249 0.27383 0.0
H3119 H 0.66863 0.29852 0.24717 0.0
H3120 H 0.67289 0.23525 0.24327 0.0
H3121 H 0.68547 0.20891 0.23304 0.0
H3122 H 0.678 0.21993 0.17578 0.0
H3123 H 0.66455 0.24596 0.18568 0.0
C3124 C 0.58099 0.26756 0.22432 0.0
C3125 C 0.57395 0.26355 0.20524 0.0
C3126 C 0.59964 0.26997 0.22992 0.0
C3127 C 0.61191 0.2682 0.21667 0.0
C3128 C 0.60477 0.26398 0.19768 0.0
C3129 C 0.58627 0.26189 0.19209 0.0
C3130 C 0.63199 0.27038 0.22237 0.0
C3131 C 0.64112 0.25677 0.21621 0.0
C3132 C 0.64232 0.28567 0.2337 0.0
C3133 C 0.63441 0.30145 0.23933 0.0
C3134 C 0.62564 0.30992 0.22572 0.0
C3135 C 0.61871 0.32516 0.23102 0.0
C3136 C 0.6206 0.33215 0.24988 0.0
C3137 C 0.62943 0.32392 0.26348 0.0
C3138 C 0.63635 0.30865 0.25826 0.0
C3139 C 0.72047 0.28154 0.2285 0.0
C3140 C 0.72807 0.27914 0.24648 0.0
C3141 C 0.70175 0.27926 0.224 0.0
C3142 C 0.68999 0.27502 0.23749 0.0
C3143 C 0.69758 0.27265 0.2555 0.0
C3144 C 0.71629 0.27439 0.25982 0.0
C3145 C 0.66991 0.27297 0.23268 0.0
C3146 C 0.66092 0.28665 0.23882 0.0
C3147 C 0.65967 0.25787 0.22127 0.0
C3148 C 0.66794 0.24256 0.21521 0.0
C3149 C 0.67404 0.23209 0.22852 0.0
C3150 C 0.6813 0.21721 0.22278 0.0
C3151 C 0.68288 0.21291 0.2038 0.0
C3152 C 0.67688 0.22333 0.19048 0.0
C3153 C 0.66929 0.23806 0.19613 0.0
H3154 H 0.6886 0.20142 0.19941 0.0
H3155 H 0.61528 0.34399 0.25394 0.0
H3156 H 0.54448 0.87326 0.87094 0.0
H3157 H 0.5413 0.90163 0.88785 0.0
H3158 H 0.53831 0.87678 0.93897 0.0
H3159 H 0.54095 0.84817 0.92189 0.0
H3160 H 0.51437 0.89706 0.93708 0.0
H3161 H 0.57719 0.90824 0.92721 0.0
H3162 H 0.6022 0.91048 0.90785 0.0
H3163 H 0.58053 0.94903 0.87751 0.0
H3164 H 0.5553 0.94684 0.89653 0.0
H3165 H 0.51863 0.97414 0.99969 0.0
H3166 H 0.5238 0.94729 0.98255 0.0
H3167 H 0.53791 0.97687 0.93642 0.0
H3168 H 0.53584 1.00463 0.9553 0.0
H3169 H 0.5556 0.95412 0.93427 0.0
H3170 H 0.49322 0.944 0.94133 0.0
H3171 H 0.46656 0.94231 0.95824 0.0
H3172 H 0.48405 0.9024 0.98982 0.0
H3173 H 0.5109 0.904 0.97326 0.0
C3174 C 0.54331 0.87382 0.88583 0.0
C3175 C 0.54313 0.85828 0.89498 0.0
C3176 C 0.54157 0.89021 0.8956 0.0
C3177 C 0.53985 0.89177 0.91497 0.0
C3178 C 0.53967 0.87622 0.92411 0.0
C3179 C 0.54128 0.85978 0.91431 0.0
C3180 C 0.53772 0.90932 0.92556 0.0
C3181 C 0.52356 0.90948 0.93662 0.0
C3182 C 0.54908 0.92593 0.92452 0.0
C3183 C 0.5643 0.92725 0.91318 0.0
C3184 C 0.57771 0.9171 0.91633 0.0
C3185 C 0.59193 0.91838 0.90543 0.0
C3186 C 0.59293 0.92986 0.89144 0.0
C3187 C 0.57973 0.94012 0.88834 0.0
C3188 C 0.56549 0.93888 0.89919 0.0
C3189 C 0.52346 0.97527 0.98625 0.0
C3190 C 0.52714 0.99203 0.97939 0.0
C3191 C 0.52581 0.95947 0.97592 0.0
C3192 C 0.53058 0.95935 0.95752 0.0
C3193 C 0.53413 0.97611 0.95045 0.0
C3194 C 0.53273 0.99215 0.96128 0.0
C3195 C 0.53222 0.94198 0.94601 0.0
C3196 C 0.54628 0.9418 0.93475 0.0
C3197 C 0.52042 0.92541 0.9464 0.0
C3198 C 0.50413 0.92421 0.95614 0.0
C3199 C 0.49139 0.9349 0.95192 0.0
C3200 C 0.47626 0.93397 0.96145 0.0
C3201 C 0.47363 0.92228 0.97512 0.0
C3202 C 0.4861 0.91145 0.97924 0.0
C3203 C 0.50127 0.91234 0.96977 0.0
H3204 H 0.46192 0.9216 0.9825 0.0
H3205 H 0.60394 0.93082 0.88301 0.0
H3206 H 0.95155 0.74407 0.67983 0.0
H3207 H 0.92196 0.74514 0.68917 0.0
H3208 H 0.94575 0.77066 0.74384 0.0
H3209 H 0.97562 0.76889 0.73464 0.0
H3210 H 0.91712 0.74998 0.74928 0.0
H3211 H 0.9258 0.79296 0.70508 0.0
H3212 H 0.93258 0.80387 0.67498 0.0
H3213 H 0.88849 0.76544 0.6459 0.0
H3214 H 0.88158 0.75416 0.6758 0.0
H3215 H 0.83755 0.77873 0.77474 0.0
H3216 H 0.8673 0.77744 0.76576 0.0
H3217 H 0.84382 0.74733 0.71303 0.0
H3218 H 0.81388 0.74904 0.7218 0.0
H3219 H 0.87214 0.77071 0.70672 0.0
H3220 H 0.86335 0.72789 0.7506 0.0
H3221 H 0.85614 0.71702 0.78058 0.0
H3222 H 0.90014 0.75526 0.81011 0.0
H3223 H 0.90745 0.76655 0.78031 0.0
C3224 C 0.95061 0.74989 0.69391 0.0
C3225 C 0.96629 0.75643 0.70637 0.0
C3226 C 0.93346 0.75069 0.69925 0.0
C3227 C 0.9311 0.75847 0.71719 0.0
C3228 C 0.94678 0.76468 0.72985 0.0
C3229 C 0.96403 0.76368 0.72456 0.0
C3230 C 0.91246 0.75994 0.72265 0.0
C3231 C 0.9075 0.75482 0.74 0.0
C3232 C 0.89922 0.76578 0.71064 0.0
C3233 C 0.90328 0.77261 0.69266 0.0
C3234 C 0.91762 0.78677 0.69225 0.0
C3235 C 0.92148 0.79303 0.67523 0.0
C3236 C 0.911 0.78532 0.65853 0.0
C3237 C 0.89661 0.77138 0.65884 0.0
C3238 C 0.89271 0.76506 0.67582 0.0
C3239 C 0.83857 0.77192 0.76115 0.0
C3240 C 0.82295 0.76409 0.74907 0.0
C3241 C 0.8558 0.77102 0.75604 0.0
C3242 C 0.85825 0.76207 0.73868 0.0
C3243 C 0.84266 0.75433 0.72652 0.0
C3244 C 0.82538 0.75523 0.73164 0.0
C3245 C 0.87691 0.7608 0.73331 0.0
C3246 C 0.88183 0.76594 0.71599 0.0
C3247 C 0.8901 0.755 0.74533 0.0
C3248 C 0.88584 0.74817 0.76325 0.0
C3249 C 0.87141 0.73406 0.7635 0.0
C3250 C 0.86732 0.72782 0.78046 0.0
C3251 C 0.87765 0.73547 0.79724 0.0
C3252 C 0.89213 0.74936 0.7971 0.0
C3253 C 0.89627 0.75568 0.78018 0.0
H3254 H 0.87446 0.73061 0.81036 0.0
H3255 H 0.91402 0.79018 0.64537 0.0
H3256 H 0.09052 0.05402 0.83248 0.0
H3257 H 0.08037 0.05326 0.86376 0.0
H3258 H 0.12385 0.02742 0.88166 0.0
H3259 H 0.13391 0.02806 0.85054 0.0
H3260 H 0.09455 0.01166 0.89421 0.0
H3261 H 0.12442 0.07205 0.89557 0.0
H3262 H 0.13147 0.10208 0.88533 0.0
H3263 H 0.07801 0.10989 0.89126 0.0
H3264 H 0.07056 0.07978 0.9013 0.0
H3265 H 0.08556 0.02437 0.99292 0.0
H3266 H 0.09752 0.02567 0.96249 0.0
H3267 H 0.0535 0.04929 0.9414 0.0
H3268 H 0.04173 0.04829 0.97153 0.0
H3269 H 0.08416 0.06628 0.93112 0.0
H3270 H 0.05455 1.00482 0.92898 0.0
H3271 H 0.04886 0.97556 0.94122 0.0
H3272 H 0.10358 0.97064 0.93835 0.0
H3273 H 0.10962 0.99998 0.92624 0.0
C3274 C 0.09788 0.04815 0.84307 0.0
C3275 C 0.11304 0.04111 0.83892 0.0
C3276 C 0.09213 0.0478 0.86104 0.0
C3277 C 0.10139 0.0404 0.8753 0.0
C3278 C 0.1164 0.03319 0.87104 0.0
C3279 C 0.12218 0.03361 0.85317 0.0
C3280 C 0.09548 0.04004 0.89459 0.0
C3281 C 0.0925 0.02369 0.90231 0.0
C3282 C 0.09256 0.0556 0.90531 0.0
C3283 C 0.09687 0.07357 0.89895 0.0
C3284 C 0.11411 0.08009 0.89449 0.0
C3285 C 0.11819 0.09715 0.88877 0.0
C3286 C 0.10518 0.10787 0.88758 0.0
C3287 C 0.08806 0.10156 0.89214 0.0
C3288 C 0.08391 0.0845 0.89785 0.0
C3289 C 0.07842 0.02979 0.98177 0.0
C3290 C 0.06249 0.03592 0.98468 0.0
C3291 C 0.08525 0.0305 0.96433 0.0
C3292 C 0.07633 0.03742 0.94944 0.0
C3293 C 0.06065 0.04384 0.95252 0.0
C3294 C 0.05382 0.04308 0.96981 0.0
C3295 C 0.08309 0.03792 0.93059 0.0
C3296 C 0.08623 0.05429 0.92297 0.0
C3297 C 0.08627 0.02242 0.92002 0.0
C3298 C 0.08256 1.00462 0.92684 0.0
C3299 C 0.06538 0.99751 0.93102 0.0
C3300 C 0.06209 0.98092 0.93792 0.0
C3301 C 0.07586 0.97126 0.94058 0.0
C3302 C 0.09293 0.97814 0.93627 0.0
C3303 C 0.09629 0.99473 0.92936 0.0
H3304 H 0.0733 0.95843 0.94596 0.0
H3305 H 0.10837 0.12108 0.88319 0.0
H3306 H 0.79039 0.42601 0.56862 0.0
H3307 H 0.78852 0.41473 0.59906 0.0
H3308 H 0.78339 0.36075 0.57242 0.0
H3309 H 0.78489 0.3719 0.54186 0.0
H3310 H 0.75844 0.36387 0.59587 0.0
H3311 H 0.8222 0.38201 0.59659 0.0
H3312 H 0.85045 0.40272 0.59515 0.0
H3313 H 0.83971 0.43686 0.64187 0.0
H3314 H 0.81126 0.41645 0.64343 0.0
H3315 H 0.7963 0.31218 0.65763 0.0
H3316 H 0.784 0.32891 0.63389 0.0
H3317 H 0.78463 0.37295 0.67627 0.0
H3318 H 0.79713 0.3564 0.70003 0.0
H3319 H 0.80656 0.38051 0.64899 0.0
H3320 H 0.74543 0.35649 0.6515 0.0
H3321 H 0.71826 0.33402 0.65223 0.0
H3322 H 0.72571 0.3082 0.59876 0.0
H3323 H 0.75301 0.33039 0.59779 0.0
C3324 C 0.78892 0.41174 0.56929 0.0
C3325 C 0.78762 0.39974 0.553 0.0
C3326 C 0.7879 0.40537 0.58664 0.0
C3327 C 0.78579 0.38698 0.58782 0.0
C3328 C 0.78487 0.375 0.57162 0.0
C3329 C 0.78577 0.38135 0.55426 0.0
C3330 C 0.78416 0.38003 0.6059 0.0
C3331 C 0.76895 0.36739 0.60753 0.0
C3332 C 0.79761 0.38534 0.62118 0.0
C3333 C 0.81446 0.39787 0.61992 0.0
C3334 C 0.82574 0.39406 0.60639 0.0
C3335 C 0.84182 0.40571 0.60559 0.0
C3336 C 0.84683 0.42114 0.61835 0.0
C3337 C 0.83578 0.42494 0.63195 0.0
C3338 C 0.81968 0.41334 0.63279 0.0
C3339 C 0.79354 0.32531 0.66186 0.0
C3340 C 0.79797 0.33321 0.68046 0.0
C3341 C 0.7862 0.33468 0.64843 0.0
C3342 C 0.7833 0.35204 0.65349 0.0
C3343 C 0.78659 0.35946 0.67227 0.0
C3344 C 0.79385 0.35007 0.68572 0.0
C3345 C 0.78121 0.36361 0.6387 0.0
C3346 C 0.79573 0.37729 0.63761 0.0
C3347 C 0.76735 0.35892 0.62377 0.0
C3348 C 0.75133 0.34509 0.62463 0.0
C3349 C 0.74139 0.34591 0.64 0.0
C3350 C 0.72593 0.33325 0.64042 0.0
C3351 C 0.72027 0.31968 0.62556 0.0
C3352 C 0.7301 0.31872 0.61026 0.0
C3353 C 0.74555 0.33136 0.60975 0.0
H3354 H 0.70827 0.30993 0.6259 0.0
H3355 H 0.8593 0.43012 0.61774 0.0
H3356 H 0.4029 0.03838 0.36562 0.0
H3357 H 0.41469 0.03456 0.39733 0.0
H3358 H 0.45446 0.00752 0.37501 0.0
H3359 H 0.44259 0.01108 0.34311 0.0
H3360 H 0.43826 0.99125 0.40411 0.0
H3361 H 0.46665 0.04891 0.38985 0.0
H3362 H 0.46634 0.07835 0.37867 0.0
H3363 H 0.43631 0.09263 0.42327 0.0
H3364 H 0.43619 0.0631 0.43452 0.0
H3365 H 0.5089 1.00301 0.47602 0.0
H3366 H 0.48699 0.99946 0.44875 0.0
H3367 H 0.45975 0.03753 0.47676 0.0
H3368 H 0.48324 0.0429 0.50313 0.0
H3369 H 0.4649 0.04671 0.44595 0.0
H3370 H 0.43869 0.98678 0.46097 0.0
H3371 H 0.43903 0.95595 0.46871 0.0
H3372 H 0.46788 0.94589 0.42192 0.0
H3373 H 0.4671 0.97626 0.41343 0.0
C3374 C 0.41422 0.0317 0.36747 0.0
C3375 C 0.42207 0.02525 0.35204 0.0
C3376 C 0.42078 0.0294 0.38552 0.0
C3377 C 0.43535 0.02078 0.3883 0.0
C3378 C 0.4431 0.01411 0.37295 0.0
C3379 C 0.43651 0.01639 0.35485 0.0
C3380 C 0.44342 0.02001 0.40733 0.0
C3381 C 0.44408 1.0033 0.41342 0.0
C3382 C 0.45072 0.0358 0.41925 0.0
C3383 C 0.45125 0.05376 0.4129 0.0
C3384 C 0.4599 0.0583 0.39721 0.0
C3385 C 0.4598 0.07499 0.39086 0.0
C3386 C 0.45126 0.08734 0.40022 0.0
C3387 C 0.44288 0.08304 0.41601 0.0
C3388 C 0.4429 0.06633 0.42239 0.0
C3389 C 0.4981 0.01046 0.47643 0.0
C3390 C 0.49749 0.02298 0.49177 0.0
C3391 C 0.48529 0.00809 0.46098 0.0
C3392 C 0.47128 0.01773 0.46088 0.0
C3393 C 0.4703 0.02975 0.47661 0.0
C3394 C 0.48361 0.03274 0.49172 0.0
C3395 C 0.4598 0.01778 0.44327 0.0
C3396 C 0.45859 0.0345 0.43718 0.0
C3397 C 0.45224 1.00193 0.43129 0.0
C3398 C 0.45294 0.98381 0.43667 0.0
C3399 C 0.44517 0.978 0.45241 0.0
C3400 C 0.44539 0.96062 0.45689 0.0
C3401 C 0.45369 0.94911 0.446 0.0
C3402 C 0.46152 0.95483 0.4304 0.0
C3403 C 0.46103 0.97204 0.42563 0.0
H3404 H 0.45394 0.93572 0.44959 0.0
H3405 H 0.45117 0.10025 0.39527 0.0
H3406 H 0.78599 0.7299 0.06385 0.0
H3407 H 0.78919 0.74138 0.09733 0.0
H3408 H 0.7655 0.68917 0.11024 0.0
H3409 H 0.76192 0.67791 0.07713 0.0
H3410 H 0.75103 0.71155 0.1282 0.0
H3411 H 0.81095 0.70749 0.12176 0.0
H3412 H 0.83997 0.71195 0.10912 0.0
H3413 H 0.84631 0.76865 0.12376 0.0
H3414 H 0.81716 0.76455 0.13625 0.0
H3415 H 0.78033 0.72793 0.22865 0.0
H3416 H 0.7794 0.71712 0.19533 0.0
H3417 H 0.7776 0.77017 0.18074 0.0
H3418 H 0.77794 0.78099 0.21408 0.0
H3419 H 0.80595 0.74754 0.16447 0.0
H3420 H 0.73999 0.74768 0.16319 0.0
H3421 H 0.71052 0.73941 0.17433 0.0
H3422 H 0.71887 0.68553 0.17666 0.0
H3423 H 0.74805 0.69333 0.16466 0.0
C3424 C 0.78147 0.72092 0.07386 0.0
C3425 C 0.77353 0.70303 0.06771 0.0
C3426 C 0.78344 0.72744 0.09306 0.0
C3427 C 0.77766 0.71617 0.10653 0.0
C3428 C 0.76998 0.69826 0.10031 0.0
C3429 C 0.76794 0.69181 0.08125 0.0
C3430 C 0.77863 0.72301 0.12694 0.0
C3431 C 0.76319 0.71926 0.13602 0.0
C3432 C 0.79437 0.73312 0.13751 0.0
C3433 C 0.81174 0.73573 0.1297 0.0
C3434 C 0.81842 0.72093 0.12208 0.0
C3435 C 0.83492 0.72339 0.11499 0.0
C3436 C 0.84494 0.74058 0.11557 0.0
C3437 C 0.8385 0.75535 0.12327 0.0
C3438 C 0.82199 0.75296 0.13036 0.0
C3439 C 0.77971 0.73731 0.21836 0.0
C3440 C 0.77929 0.75537 0.22406 0.0
C3441 C 0.77917 0.7311 0.19931 0.0
C3442 C 0.77859 0.74285 0.18551 0.0
C3443 C 0.77813 0.76087 0.19113 0.0
C3444 C 0.77825 0.76702 0.21018 0.0
C3445 C 0.77833 0.73622 0.16527 0.0
C3446 C 0.7939 0.7399 0.15639 0.0
C3447 C 0.76295 0.72555 0.15493 0.0
C3448 C 0.74616 0.72112 0.1633 0.0
C3449 C 0.73555 0.73412 0.16623 0.0
C3450 C 0.71887 0.72949 0.17254 0.0
C3451 C 0.71291 0.71202 0.17642 0.0
C3452 C 0.72353 0.69907 0.17375 0.0
C3453 C 0.74007 0.70355 0.16704 0.0
H3454 H 0.70002 0.70851 0.18143 0.0
H3455 H 0.85773 0.74246 0.1101 0.0
H3456 H 0.08462 0.02119 0.7332 0.0
H3457 H 0.0728 0.0181 0.69984 0.0
H3458 H 0.12196 0.04948 0.68769 0.0
H3459 H 0.13362 0.05275 0.72076 0.0
H3460 H 0.09617 0.06115 0.67086 0.0
H3461 H 0.11011 1.00378 0.67452 0.0
H3462 H 0.11048 0.97426 0.68543 0.0
H3463 H 0.0539 0.95931 0.66989 0.0
H3464 H 0.05312 0.98891 0.65921 0.0
H3465 H 0.08324 0.03833 0.56997 0.0
H3466 H 0.09423 0.03906 0.60326 0.0
H3467 H 0.04009 0.02651 0.61642 0.0
H3468 H 0.02901 0.02649 0.58314 0.0
H3469 H 0.068 1.00435 0.6321 0.0
H3470 H 0.05605 0.06553 0.63283 0.0
H3471 H 0.05848 0.09566 0.62274 0.0
H3472 H 0.11556 0.10161 0.62787 0.0
H3473 H 0.11349 0.07169 0.6387 0.0
C3474 C 0.09288 0.02742 0.72339 0.0
C3475 C 0.11003 0.03734 0.72977 0.0
C3476 C 0.08617 0.02552 0.70425 0.0
C3477 C 0.09646 0.03348 0.69102 0.0
C3478 C 0.11364 0.04324 0.69745 0.0
C3479 C 0.12032 0.0451 0.71647 0.0
C3480 C 0.08918 0.03258 0.67071 0.0
C3481 C 0.09021 0.04861 0.66247 0.0
C3482 C 0.08122 0.01634 0.65945 0.0
C3483 C 0.08151 0.9987 0.66633 0.0
C3484 C 0.09769 0.99431 0.67368 0.0
C3485 C 0.09799 0.97753 0.67977 0.0
C3486 C 0.08221 0.96495 0.67844 0.0
C3487 C 0.0661 0.96911 0.67099 0.0
C3488 C 0.06572 0.98589 0.66492 0.0
C3489 C 0.07368 0.03585 0.57999 0.0
C3490 C 0.05525 0.0324 0.57394 0.0
C3491 C 0.07997 0.03623 0.59902 0.0
C3492 C 0.06802 0.03269 0.6124 0.0
C3493 C 0.04959 0.02921 0.60639 0.0
C3494 C 0.04326 0.02933 0.5874 0.0
C3495 C 0.07487 0.0329 0.63265 0.0
C3496 C 0.07389 0.01677 0.64072 0.0
C3497 C 0.08331 0.04893 0.64372 0.0
C3498 C 0.0846 0.06638 0.63632 0.0
C3499 C 0.0691 0.07321 0.6316 0.0
C3500 C 0.07042 0.09026 0.62583 0.0
C3501 C 0.08714 0.10047 0.6244 0.0
C3502 C 0.10261 0.09367 0.6289 0.0
C3503 C 0.10139 0.07672 0.63499 0.0
H3504 H 0.0881 0.11368 0.61992 0.0
H3505 H 0.08248 0.95195 0.68311 0.0
H3506 H 0.79474 0.4203 0.43758 0.0
H3507 H 0.79868 0.40654 0.40666 0.0
H3508 H 0.78538 0.35419 0.42494 0.0
H3509 H 0.78167 0.36782 0.45603 0.0
H3510 H 0.81503 0.3588 0.40371 0.0
H3511 H 0.75287 0.36995 0.4018 0.0
H3512 H 0.73161 0.39053 0.40569 0.0
H3513 H 0.7572 0.42348 0.36753 0.0
H3514 H 0.7784 0.40299 0.36317 0.0
H3515 H 0.78542 0.29398 0.32978 0.0
H3516 H 0.78835 0.31432 0.35803 0.0
H3517 H 0.78329 0.35768 0.3247 0.0
H3518 H 0.77688 0.33656 0.29658 0.0
H3519 H 0.76899 0.36347 0.35196 0.0
H3520 H 0.82622 0.34715 0.34714 0.0
H3521 H 0.84687 0.32604 0.34288 0.0
H3522 H 0.83345 0.30412 0.39345 0.0
H3523 H 0.81251 0.32485 0.39785 0.0
C3524 C 0.79264 0.40585 0.43498 0.0
C3525 C 0.78773 0.39501 0.44899 0.0
C3526 C 0.79504 0.3981 0.41745 0.0
C3527 C 0.79235 0.37949 0.41379 0.0
C3528 C 0.78766 0.36864 0.42778 0.0
C3529 C 0.78535 0.37638 0.44536 0.0
C3530 C 0.79286 0.37109 0.39493 0.0
C3531 C 0.80513 0.35979 0.39222 0.0
C3532 C 0.7803 0.37307 0.38006 0.0
C3533 C 0.76723 0.38505 0.38226 0.0
C3534 C 0.7539 0.38158 0.39421 0.0
C3535 C 0.74183 0.39319 0.39643 0.0
C3536 C 0.74299 0.40827 0.38676 0.0
C3537 C 0.75619 0.41173 0.37481 0.0
C3538 C 0.7682 0.40011 0.37243 0.0
C3539 C 0.7844 0.30765 0.32842 0.0
C3540 C 0.7812 0.31365 0.31089 0.0
C3541 C 0.7866 0.31945 0.34462 0.0
C3542 C 0.78713 0.33773 0.34344 0.0
C3543 C 0.78326 0.34367 0.32597 0.0
C3544 C 0.77963 0.33157 0.30989 0.0
C3545 C 0.79091 0.35046 0.36051 0.0
C3546 C 0.77946 0.36274 0.36298 0.0
C3547 C 0.80451 0.34952 0.37501 0.0
C3548 C 0.81778 0.33761 0.37283 0.0
C3549 C 0.82769 0.33786 0.35737 0.0
C3550 C 0.83942 0.32591 0.35491 0.0
C3551 C 0.84148 0.31376 0.36789 0.0
C3552 C 0.83188 0.31356 0.38342 0.0
C3553 C 0.82011 0.32544 0.38593 0.0
H3554 H 0.85051 0.30448 0.36592 0.0
H3555 H 0.73369 0.4173 0.38855 0.0
H3556 H 0.38842 0.01108 0.23237 0.0
H3557 H 0.3988 0.01252 0.20147 0.0
H3558 H 0.45149 0.0376 0.22746 0.0
H3559 H 0.44114 0.03646 0.25843 0.0
H3560 H 0.44077 0.0544 0.19852 0.0
H3561 H 0.44315 0.99448 0.21079 0.0
H3562 H 0.43215 0.96418 0.21878 0.0
H3563 H 0.39307 0.95454 0.1703 0.0
H3564 H 0.40365 0.98492 0.16218 0.0
H3565 H 0.49688 0.02414 0.13407 0.0
H3566 H 0.48057 0.03545 0.15878 0.0
H3567 H 0.43118 0.01912 0.12224 0.0
H3568 H 0.44753 0.00806 0.09735 0.0
H3569 H 0.43625 0.99981 0.15396 0.0
H3570 H 0.43381 0.06161 0.14359 0.0
H3571 H 0.44466 0.09286 0.13828 0.0
H3572 H 0.48678 0.09769 0.18334 0.0
H3573 H 0.47557 0.06676 0.18955 0.0
C3574 C 0.40222 0.01688 0.23148 0.0
C3575 C 0.41402 0.02366 0.24771 0.0
C3576 C 0.40811 0.01765 0.21387 0.0
C3577 C 0.42589 0.02508 0.2123 0.0
C3578 C 0.43769 0.03187 0.22848 0.0
C3579 C 0.4318 0.03114 0.2461 0.0
C3580 C 0.43222 0.0258 0.19376 0.0
C3581 C 0.43989 0.04246 0.18879 0.0
C3582 C 0.43063 0.01024 0.181 0.0
C3583 C 0.42401 0.99208 0.18604 0.0
C3584 C 0.43205 0.98599 0.20197 0.0
C3585 C 0.42593 0.96878 0.20649 0.0
C3586 C 0.41187 0.95747 0.1951 0.0
C3587 C 0.40392 0.96334 0.17915 0.0
C3588 C 0.40997 0.98055 0.17458 0.0
C3589 C 0.48261 0.02348 0.1312 0.0
C3590 C 0.47329 0.01487 0.11415 0.0
C3591 C 0.47337 0.0302 0.14514 0.0
C3592 C 0.45472 0.0281 0.14223 0.0
C3593 C 0.44561 0.02099 0.12459 0.0
C3594 C 0.4549 0.01453 0.11052 0.0
C3595 C 0.4449 0.02841 0.15873 0.0
C3596 C 0.43671 0.01182 0.16348 0.0
C3597 C 0.44636 0.04393 0.17142 0.0
C3598 C 0.45406 0.06185 0.1668 0.0
C3599 C 0.44552 0.06928 0.15219 0.0
C3600 C 0.45163 0.08697 0.14914 0.0
C3601 C 0.4666 0.09715 0.16023 0.0
C3602 C 0.47529 0.08975 0.17465 0.0
C3603 C 0.46896 0.07221 0.17807 0.0
H3604 H 0.47137 0.11081 0.15774 0.0
H3605 H 0.40718 0.94414 0.1986 0.0
H3606 H 0.79279 0.6879 0.95275 0.0
H3607 H 0.79343 0.6976 0.92142 0.0
H3608 H 0.7485 0.72334 0.92955 0.0
H3609 H 0.74793 0.71381 0.9612 0.0
H3610 H 0.7454 0.70294 0.89369 0.0
H3611 H 0.78777 0.7484 0.93257 0.0
H3612 H 0.81375 0.76004 0.95611 0.0
H3613 H 0.84775 0.73694 0.92069 0.0
H3614 H 0.82189 0.72488 0.89706 0.0
H3615 H 0.75421 0.76284 0.82318 0.0
H3616 H 0.75332 0.75023 0.85306 0.0
H3617 H 0.79365 0.72001 0.8388 0.0
H3618 H 0.79415 0.73223 0.80831 0.0
H3619 H 0.7994 0.74152 0.87707 0.0
H3620 H 0.75749 0.69669 0.83779 0.0
H3621 H 0.7316 0.68449 0.81433 0.0
H3622 H 0.69694 0.70598 0.85013 0.0
H3623 H 0.7227 0.71858 0.87372 0.0
C3624 C 0.78308 0.69571 0.94796 0.0
C3625 C 0.77039 0.70019 0.9596 0.0
C3626 C 0.78346 0.70125 0.92999 0.0
C3627 C 0.77106 0.71128 0.92305 0.0
C3628 C 0.75821 0.71561 0.93454 0.0
C3629 C 0.75798 0.71028 0.95269 0.0
C3630 C 0.77179 0.71739 0.90395 0.0
C3631 C 0.75712 0.71156 0.89015 0.0
C3632 C 0.78726 0.72823 0.89904 0.0
C3633 C 0.80286 0.73557 0.91314 0.0
C3634 C 0.80076 0.74566 0.92987 0.0
C3635 C 0.81546 0.75236 0.94322 0.0
C3636 C 0.83238 0.74919 0.93992 0.0
C3637 C 0.83463 0.73935 0.92324 0.0
C3638 C 0.81995 0.73259 0.90986 0.0
C3639 C 0.7629 0.75349 0.82634 0.0
C3640 C 0.77434 0.7486 0.81339 0.0
C3641 C 0.76231 0.74623 0.84343 0.0
C3642 C 0.77341 0.73418 0.84824 0.0
C3643 C 0.78496 0.7293 0.8354 0.0
C3644 C 0.78521 0.73623 0.81798 0.0
C3645 C 0.77302 0.7271 0.86685 0.0
C3646 C 0.78772 0.73282 0.88059 0.0
C3647 C 0.7576 0.71613 0.87166 0.0
C3648 C 0.74207 0.70877 0.85744 0.0
C3649 C 0.74438 0.699 0.84059 0.0
C3650 C 0.72972 0.69194 0.8273 0.0
C3651 C 0.71264 0.69446 0.83074 0.0
C3652 C 0.71019 0.70404 0.84749 0.0
C3653 C 0.72481 0.71114 0.86083 0.0
H3654 H 0.7013 0.689 0.82041 0.0
H3655 H 0.84376 0.75439 0.95027 0.0
H3656 H 0.80607 0.09125 0.02286 0.0
H3657 H 0.83536 0.08272 0.02377 0.0
H3658 H 0.85109 0.11316 0.0783 0.0
H3659 H 0.82211 0.12275 0.07672 0.0
H3660 H 0.8763 0.11952 0.05627 0.0
H3661 H 0.84179 0.06691 0.07384 0.0
H3662 H 0.81398 0.04452 0.07031 0.0
H3663 H 0.82401 0.02569 0.015 0.0
H3664 H 0.85174 0.04815 0.01807 0.0
H3665 H 0.95588 0.08263 0.04572 0.0
H3666 H 0.92932 0.08785 0.06051 0.0
H3667 H 0.89689 0.07164 0.00722 0.0
H3668 H 0.92335 0.06672 0.99243 0.0
H3669 H 0.88229 0.05658 0.03891 0.0
H3670 H 0.91044 0.11277 0.01836 0.0
H3671 H 0.93563 0.13769 0.01833 0.0
H3672 H 0.93598 0.15091 0.07764 0.0
H3673 H 0.91099 0.12578 0.07807 0.0
C3674 C 0.81568 0.09573 0.03516 0.0
C3675 C 0.81201 0.1073 0.04985 0.0
C3676 C 0.83234 0.0909 0.03572 0.0
C3677 C 0.84514 0.09694 0.05137 0.0
C3678 C 0.84128 0.10826 0.06624 0.0
C3679 C 0.8248 0.11357 0.06539 0.0
C3680 C 0.8628 0.09198 0.05156 0.0
C3681 C 0.87777 0.10572 0.05313 0.0
C3682 C 0.86452 0.07397 0.04737 0.0
C3683 C 0.84895 0.05914 0.04626 0.0
C3684 C 0.83817 0.05786 0.061 0.0
C3685 C 0.82236 0.04523 0.05904 0.0
C3686 C 0.81725 0.03366 0.04246 0.0
C3687 C 0.82803 0.0346 0.02787 0.0
C3688 C 0.84384 0.04724 0.02975 0.0
C3689 C 0.94305 0.08038 0.03725 0.0
C3690 C 0.94149 0.07471 0.01796 0.0
C3691 C 0.92799 0.08316 0.04568 0.0
C3692 C 0.91132 0.07998 0.03488 0.0
C3693 C 0.90973 0.074 0.0157 0.0
C3694 C 0.92478 0.07151 0.00724 0.0
C3695 C 0.89555 0.08418 0.04297 0.0
C3696 C 0.88097 0.07028 0.043 0.0
C3697 C 0.89416 0.10203 0.04861 0.0
C3698 C 0.90908 0.11721 0.04831 0.0
C3699 C 0.91603 0.12085 0.03144 0.0
C3700 C 0.93025 0.13503 0.03134 0.0
C3701 C 0.93746 0.14582 0.048 0.0
C3702 C 0.93043 0.14249 0.06477 0.0
C3703 C 0.91625 0.12826 0.06495 0.0
H3704 H 0.94846 0.15681 0.04789 0.0
H3705 H 0.80493 0.02399 0.0409 0.0
H3706 H 0.33666 0.44416 0.0247 0.0
H3707 H 0.36657 0.46087 0.02247 0.0
H3708 H 0.3898 0.41832 0.04408 0.0
H3709 H 0.35997 0.40177 0.04671 0.0
H3710 H 0.40817 0.44863 0.05992 0.0
H3711 H 0.38758 0.42468 0.99703 0.0
H3712 H 0.36707 0.4178 0.96768 0.0
H3713 H 0.372 0.47383 0.96221 0.0
H3714 H 0.39234 0.48107 0.9917 0.0
H3715 H 0.49542 0.48005 0.03888 0.0
H3716 H 0.46604 0.46251 0.0397 0.0
H3717 H 0.44195 0.50371 0.01628 0.0
H3718 H 0.47162 0.52062 0.01354 0.0
H3719 H 0.42417 0.4732 0.00129 0.0
H3720 H 0.44597 0.49545 0.06684 0.0
H3721 H 0.46784 0.49924 0.09507 0.0
H3722 H 0.462 0.44224 0.09391 0.0
H3723 H 0.44025 0.43813 0.06557 0.0
C3724 C 0.34815 0.4384 0.02904 0.0
C3725 C 0.34591 0.42163 0.0359 0.0
C3726 C 0.36527 0.44792 0.02763 0.0
C3727 C 0.38054 0.4408 0.03286 0.0
C3728 C 0.3783 0.42415 0.03993 0.0
C3729 C 0.3612 0.41467 0.04142 0.0
C3730 C 0.39883 0.45082 0.03124 0.0
C3731 C 0.41168 0.45386 0.04702 0.0
C3732 C 0.40355 0.4577 0.01446 0.0
C3733 C 0.39133 0.45343 0.9967 0.0
C3734 C 0.38417 0.43555 0.98966 0.0
C3735 C 0.37259 0.43158 0.97299 0.0
C3736 C 0.36819 0.44537 0.96312 0.0
C3737 C 0.37539 0.46316 0.96989 0.0
C3738 C 0.38696 0.46721 0.98658 0.0
C3739 C 0.48395 0.48555 0.03393 0.0
C3740 C 0.48609 0.50215 0.02656 0.0
C3741 C 0.46701 0.47547 0.03459 0.0
C3742 C 0.45157 0.48196 0.02872 0.0
C3743 C 0.45359 0.49845 0.02121 0.0
C3744 C 0.47063 0.50834 0.01997 0.0
C3745 C 0.4334 0.47142 0.03013 0.0
C3746 C 0.42059 0.46815 0.01424 0.0
C3747 C 0.42884 0.46395 0.04671 0.0
C3748 C 0.44155 0.4665 0.06405 0.0
C3749 C 0.44937 0.48374 0.0726 0.0
C3750 C 0.46176 0.48594 0.08861 0.0
C3751 C 0.46632 0.47099 0.09626 0.0
C3752 C 0.45845 0.45381 0.08798 0.0
C3753 C 0.44608 0.45154 0.07196 0.0
H3754 H 0.47594 0.47273 0.10863 0.0
H3755 H 0.35922 0.44227 0.95021 0.0
H3756 H 0.38296 0.55733 0.78669 0.0
H3757 H 0.37004 0.58442 0.787 0.0
H3758 H 0.39346 0.59704 0.73668 0.0
H3759 H 0.40704 0.57033 0.73679 0.0
H3760 H 0.39664 0.62636 0.75918 0.0
H3761 H 0.34792 0.57917 0.73592 0.0
H3762 H 0.3283 0.54995 0.73587 0.0
H3763 H 0.31171 0.56791 0.78852 0.0
H3764 H 0.33142 0.59718 0.78899 0.0
H3765 H 0.34444 0.69447 0.74734 0.0
H3766 H 0.35528 0.66626 0.74081 0.0
H3767 H 0.34078 0.65064 0.79406 0.0
H3768 H 0.33 0.67873 0.8005 0.0
H3769 H 0.33231 0.62264 0.76615 0.0
H3770 H 0.3832 0.66964 0.78934 0.0
H3771 H 0.40292 0.69862 0.78834 0.0
H3772 H 0.41495 0.68072 0.73353 0.0
H3773 H 0.39509 0.65171 0.7341 0.0
C3774 C 0.3853 0.56585 0.77567 0.0
C3775 C 0.39587 0.56162 0.76163 0.0
C3776 C 0.37786 0.58132 0.7758 0.0
C3777 C 0.38044 0.59265 0.76163 0.0
C3778 C 0.39119 0.58852 0.74772 0.0
C3779 C 0.39887 0.57319 0.74774 0.0
C3780 C 0.37189 0.60872 0.76138 0.0
C3781 C 0.38251 0.62547 0.76038 0.0
C3782 C 0.35346 0.60769 0.76301 0.0
C3783 C 0.34122 0.59031 0.76254 0.0
C3784 C 0.34012 0.57686 0.74751 0.0
C3785 C 0.32899 0.5603 0.74741 0.0
C3786 C 0.31879 0.55707 0.7622 0.0
C3787 C 0.31963 0.57043 0.77708 0.0
C3788 C 0.33075 0.58702 0.77725 0.0
C3789 C 0.34329 0.68478 0.7574 0.0
C3790 C 0.33636 0.68856 0.77434 0.0
C3791 C 0.34957 0.66879 0.75376 0.0
C3792 C 0.34901 0.65644 0.76706 0.0
C3793 C 0.34134 0.65996 0.78362 0.0
C3794 C 0.33518 0.67595 0.78729 0.0
C3795 C 0.35712 0.64022 0.76431 0.0
C3796 C 0.34639 0.62345 0.76473 0.0
C3797 C 0.37539 0.64124 0.7619 0.0
C3798 C 0.38752 0.65858 0.76168 0.0
C3799 C 0.38996 0.67193 0.77703 0.0
C3800 C 0.40117 0.68836 0.77655 0.0
C3801 C 0.41014 0.69153 0.76086 0.0
C3802 C 0.40797 0.67826 0.74566 0.0
C3803 C 0.39675 0.66182 0.74606 0.0
H3804 H 0.4188 0.70426 0.76051 0.0
H3805 H 0.31021 0.54422 0.76212 0.0
H3806 H 0.21652 0.58064 0.53855 0.0
H3807 H 0.18442 0.5692 0.53112 0.0
H3808 H 0.17502 0.62305 0.52862 0.0
H3809 H 0.2068 0.63458 0.53629 0.0
H3810 H 0.15226 0.60408 0.54854 0.0
H3811 H 0.17389 0.59755 0.48884 0.0
H3812 H 0.19289 0.58814 0.46547 0.0
H3813 H 0.17475 0.53313 0.47287 0.0
H3814 H 0.15582 0.54224 0.49649 0.0
H3815 H 0.06274 0.57638 0.50914 0.0
H3816 H 0.094 0.58994 0.50973 0.0
H3817 H 0.1093 0.53943 0.51896 0.0
H3818 H 0.07791 0.52558 0.51811 0.0
H3819 H 0.12854 0.55908 0.49363 0.0
H3820 H 0.10625 0.56729 0.5542 0.0
H3821 H 0.08728 0.57824 0.57675 0.0
H3822 H 0.10731 0.63234 0.56747 0.0
H3823 H 0.12563 0.6217 0.54414 0.0
C3824 C 0.20755 0.58997 0.5365 0.0
C3825 C 0.214 0.6084 0.53788 0.0
C3826 C 0.18935 0.58346 0.53217 0.0
C3827 C 0.17763 0.59536 0.5291 0.0
C3828 C 0.18402 0.61377 0.53089 0.0
C3829 C 0.20212 0.62027 0.53525 0.0
C3830 C 0.15857 0.58864 0.52432 0.0
C3831 C 0.14696 0.59445 0.53639 0.0
C3832 C 0.15198 0.57608 0.50851 0.0
C3833 C 0.16359 0.57059 0.49457 0.0
C3834 C 0.1741 0.58346 0.48563 0.0
C3835 C 0.18482 0.57818 0.47231 0.0
C3836 C 0.18506 0.56005 0.46772 0.0
C3837 C 0.17457 0.54717 0.47645 0.0
C3838 C 0.16384 0.55238 0.4898 0.0
C3839 C 0.0727 0.568 0.51065 0.0
C3840 C 0.06807 0.54996 0.5136 0.0
C3841 C 0.09048 0.57582 0.51115 0.0
C3842 C 0.10366 0.56564 0.51466 0.0
C3843 C 0.09908 0.54736 0.5163 0.0
C3844 C 0.08127 0.53952 0.51584 0.0
C3845 C 0.1223 0.57426 0.51803 0.0
C3846 C 0.13382 0.56885 0.50567 0.0
C3847 C 0.12875 0.58738 0.53348 0.0
C3848 C 0.11709 0.59364 0.54708 0.0
C3849 C 0.1063 0.58149 0.5566 0.0
C3850 C 0.09563 0.58766 0.56955 0.0
C3851 C 0.09589 0.60597 0.57338 0.0
C3852 C 0.10684 0.61815 0.56428 0.0
C3853 C 0.11732 0.61205 0.55114 0.0
H3854 H 0.08773 0.61074 0.5835 0.0
H3855 H 0.19335 0.55599 0.45737 0.0
H3856 H 0.72232 0.00778 0.77095 0.0
H3857 H 0.73079 0.97847 0.7711 0.0
H3858 H 0.69404 0.95884 0.72114 0.0
H3859 H 0.6846 0.9879 0.72188 0.0
H3860 H 0.69082 0.93583 0.74525 0.0
H3861 H 0.74035 0.96767 0.71976 0.0
H3862 H 0.76308 0.99465 0.71904 0.0
H3863 H 0.78785 0.98759 0.77316 0.0
H3864 H 0.7651 0.96074 0.77436 0.0
H3865 H 0.72663 0.85568 0.7535 0.0
H3866 H 0.72077 0.88206 0.73858 0.0
H3867 H 0.74354 0.91591 0.7896 0.0
H3868 H 0.74906 0.88959 0.80455 0.0
H3869 H 0.75427 0.92925 0.75567 0.0
H3870 H 0.70165 0.90296 0.78366 0.0
H3871 H 0.67727 0.87824 0.78713 0.0
H3872 H 0.65759 0.87616 0.72896 0.0
H3873 H 0.68214 0.90064 0.72507 0.0
C3874 C 0.71639 0.99728 0.75983 0.0
C3875 C 0.70312 0.99993 0.74624 0.0
C3876 C 0.72121 0.98059 0.75986 0.0
C3877 C 0.71338 0.96667 0.74579 0.0
C3878 C 0.70033 0.96948 0.73198 0.0
C3879 C 0.69508 0.98602 0.73233 0.0
C3880 C 0.71828 0.94894 0.74626 0.0
C3881 C 0.70467 0.93424 0.74692 0.0
C3882 C 0.73636 0.94699 0.74854 0.0
C3883 C 0.75105 0.96212 0.7471 0.0
C3884 C 0.75073 0.97179 0.73145 0.0
C3885 C 0.76357 0.98711 0.731 0.0
C3886 C 0.77691 0.99281 0.74604 0.0
C3887 C 0.77754 0.98312 0.76149 0.0
C3888 C 0.76471 0.9678 0.76204 0.0
C3889 C 0.73025 0.86881 0.76142 0.0
C3890 C 0.73784 0.87085 0.78018 0.0
C3891 C 0.7271 0.88376 0.7529 0.0
C3892 C 0.7318 0.90078 0.76306 0.0
C3893 C 0.73994 0.90281 0.7816 0.0
C3894 C 0.74284 0.88788 0.79018 0.0
C3895 C 0.72684 0.91643 0.75521 0.0
C3896 C 0.74043 0.93071 0.75315 0.0
C3897 C 0.70875 0.91799 0.75159 0.0
C3898 C 0.6939 0.90341 0.75399 0.0
C3899 C 0.69225 0.8971 0.77156 0.0
C3900 C 0.67839 0.88314 0.77361 0.0
C3901 C 0.66594 0.87557 0.75825 0.0
C3902 C 0.66729 0.88198 0.74083 0.0
C3903 C 0.68119 0.89588 0.73868 0.0
H3904 H 0.6552 0.86478 0.75987 0.0
H3905 H 0.78676 1.00476 0.74572 0.0
H3906 H 0.76322 0.94182 0.53588 0.0
H3907 H 0.73596 0.95439 0.53627 0.0
H3908 H 0.70573 0.9023 0.54161 0.0
H3909 H 0.7328 0.88958 0.54045 0.0
H3910 H 0.68768 0.91682 0.5178 0.0
H3911 H 0.71672 0.93689 0.57938 0.0
H3912 H 0.74148 0.95088 0.60355 0.0
H3913 H 0.74333 1.00109 0.58101 0.0
H3914 H 0.71874 0.98734 0.55653 0.0
H3915 H 0.61115 0.95736 0.52878 0.0
H3916 H 0.63553 0.94176 0.53843 0.0
H3917 H 0.67401 0.98627 0.52622 0.0
H3918 H 0.64983 1.00173 0.51669 0.0
H3919 H 0.68548 0.97269 0.55787 0.0
H3920 H 0.65803 0.95019 0.49404 0.0
H3921 H 0.63264 0.93555 0.47088 0.0
H3922 H 0.62705 0.88861 0.4997 0.0
H3923 H 0.65223 0.90311 0.52324 0.0
C3924 C 0.75077 0.93309 0.53721 0.0
C3925 C 0.75015 0.91474 0.53817 0.0
C3926 C 0.73519 0.94029 0.53756 0.0
C3927 C 0.71876 0.92937 0.5393 0.0
C3928 C 0.71819 0.91103 0.54029 0.0
C3929 C 0.7337 0.90379 0.53967 0.0
C3930 C 0.70212 0.93696 0.53949 0.0
C3931 C 0.68713 0.92884 0.52686 0.0
C3932 C 0.70127 0.95266 0.55125 0.0
C3933 C 0.71596 0.96104 0.56604 0.0
C3934 C 0.72248 0.95089 0.57951 0.0
C3935 C 0.73648 0.95878 0.59327 0.0
C3936 C 0.744 0.97686 0.59379 0.0
C3937 C 0.7375 0.98709 0.58058 0.0
C3938 C 0.72351 0.97926 0.56677 0.0
C3939 C 0.62486 0.96389 0.52859 0.0
C3940 C 0.62873 0.98064 0.5219 0.0
C3941 C 0.63873 0.95497 0.53398 0.0
C3942 C 0.65657 0.96279 0.53281 0.0
C3943 C 0.66037 0.97998 0.52721 0.0
C3944 C 0.64658 0.98877 0.5217 0.0
C3945 C 0.67138 0.9528 0.53589 0.0
C3946 C 0.68601 0.96047 0.54912 0.0
C3947 C 0.67181 0.93657 0.52486 0.0
C3948 C 0.65686 0.92781 0.51053 0.0
C3949 C 0.6513 0.9368 0.49552 0.0
C3950 C 0.63696 0.92852 0.48232 0.0
C3951 C 0.6282 0.91119 0.48385 0.0
C3952 C 0.63381 0.90206 0.49856 0.0
C3953 C 0.64811 0.9103 0.51184 0.0
H3954 H 0.61709 0.9048 0.47362 0.0
H3955 H 0.75484 0.98294 0.60445 0.0
H3956 H 0.41462 0.45319 0.76862 0.0
H3957 H 0.39762 0.42338 0.77055 0.0
H3958 H 0.34908 0.44059 0.75085 0.0
H3959 H 0.36602 0.47063 0.74928 0.0
H3960 H 0.34477 0.42157 0.78071 0.0
H3961 H 0.37147 0.4138 0.72183 0.0
H3962 H 0.39729 0.41517 0.70364 0.0
H3963 H 0.41977 0.38053 0.73885 0.0
H3964 H 0.39419 0.3791 0.75734 0.0
H3965 H 0.28801 0.33716 0.76645 0.0
H3966 H 0.30461 0.36651 0.76281 0.0
H3967 H 0.35377 0.34613 0.76836 0.0
H3968 H 0.3371 0.31651 0.76974 0.0
H3969 H 0.35836 0.36726 0.7461 0.0
H3970 H 0.3368 0.37397 0.80556 0.0
H3971 H 0.3148 0.37249 0.82847 0.0
H3972 H 0.28773 0.40851 0.79966 0.0
H3973 H 0.30944 0.41004 0.77644 0.0
C3974 C 0.40034 0.45061 0.76454 0.0
C3975 C 0.3917 0.46427 0.75865 0.0
C3976 C 0.39063 0.43352 0.76562 0.0
C3977 C 0.37206 0.42961 0.76061 0.0
C3978 C 0.36339 0.44324 0.75474 0.0
C3979 C 0.3731 0.46039 0.75374 0.0
C3980 C 0.36162 0.41142 0.76172 0.0
C3981 C 0.34756 0.40969 0.77295 0.0
C3982 C 0.36581 0.39578 0.75239 0.0
C3983 C 0.38097 0.39643 0.74101 0.0
C3984 C 0.38196 0.40653 0.72572 0.0
C3985 C 0.39655 0.40731 0.71536 0.0
C3986 C 0.41017 0.39796 0.72011 0.0
C3987 C 0.40922 0.38776 0.73518 0.0
C3988 C 0.39466 0.38694 0.74558 0.0
C3989 C 0.30227 0.33881 0.76677 0.0
C3990 C 0.31103 0.32431 0.76902 0.0
C3991 C 0.3119 0.3558 0.76492 0.0
C3992 C 0.33066 0.35894 0.76598 0.0
C3993 C 0.33937 0.34435 0.76765 0.0
C3994 C 0.32971 0.32729 0.76875 0.0
C3995 C 0.34128 0.37723 0.7651 0.0
C3996 C 0.35543 0.37903 0.75393 0.0
C3997 C 0.33771 0.39284 0.77522 0.0
C3998 C 0.32464 0.39197 0.78916 0.0
C3999 C 0.32608 0.38148 0.80404 0.0
C4000 C 0.31368 0.38065 0.81709 0.0
C4001 C 0.29985 0.39036 0.81549 0.0
C4002 C 0.29843 0.40097 0.80087 0.0
C4003 C 0.31079 0.40184 0.78777 0.0
H4004 H 0.29026 0.3897 0.82561 0.0
H4005 H 0.42146 0.39861 0.71209 0.0
H4006 H 0.18114 0.6019 0.28199 0.0
H4007 H 0.19358 0.6338 0.28776 0.0
H4008 H 0.22957 0.62751 0.24598 0.0
H4009 H 0.21772 0.59537 0.24084 0.0
H4010 H 0.2463 0.64631 0.27708 0.0
H4011 H 0.19088 0.64588 0.23736 0.0
H4012 H 0.1582 0.63852 0.22923 0.0
H4013 H 0.15097 0.66762 0.28103 0.0
H4014 H 0.1836 0.675 0.28953 0.0
H4015 H 0.2777 0.73344 0.2614 0.0
H4016 H 0.26323 0.7024 0.25851 0.0
H4017 H 0.22642 0.71579 0.29705 0.0
H4018 H 0.23919 0.74728 0.29755 0.0
H4019 H 0.20958 0.69337 0.27105 0.0
H4020 H 0.26517 0.69577 0.30987 0.0
H4021 H 0.29784 0.70448 0.31693 0.0
H4022 H 0.3048 0.6718 0.2673 0.0
H4023 H 0.27216 0.66315 0.25977 0.0
C4024 C 0.19169 0.6074 0.27405 0.0
C4025 C 0.19861 0.59644 0.26103 0.0
C4026 C 0.19867 0.62554 0.27726 0.0
C4027 C 0.21223 0.63288 0.26707 0.0
C4028 C 0.21906 0.62193 0.25393 0.0
C4029 C 0.21236 0.60371 0.25103 0.0
C4030 C 0.21989 0.65189 0.27061 0.0
C4031 C 0.23834 0.65665 0.27564 0.0
C4032 C 0.20926 0.66518 0.26939 0.0
C4033 C 0.18966 0.66086 0.26414 0.0
C4034 C 0.18231 0.65062 0.24705 0.0
C4035 C 0.1638 0.64646 0.24237 0.0
C4036 C 0.15251 0.65256 0.25462 0.0
C4037 C 0.15972 0.66289 0.27156 0.0
C4038 C 0.17821 0.66709 0.2763 0.0
C4039 C 0.26658 0.72981 0.26933 0.0
C4040 C 0.25992 0.74271 0.28034 0.0
C4041 C 0.25844 0.71202 0.2678 0.0
C4042 C 0.24428 0.70675 0.27821 0.0
C4043 C 0.23758 0.7196 0.28918 0.0
C4044 C 0.24511 0.73753 0.28985 0.0
C4045 C 0.23612 0.68785 0.27711 0.0
C4046 C 0.21756 0.68308 0.27272 0.0
C4047 C 0.24662 0.67451 0.27906 0.0
C4048 C 0.26623 0.67883 0.28426 0.0
C4049 C 0.27368 0.6904 0.30051 0.0
C4050 C 0.2922 0.69536 0.30456 0.0
C4051 C 0.3034 0.68868 0.29256 0.0
C4052 C 0.29611 0.67693 0.27658 0.0
C4053 C 0.27761 0.67197 0.27244 0.0
H4054 H 0.31773 0.69258 0.29559 0.0
H4055 H 0.13819 0.64932 0.25098 0.0
H4056 H 0.48618 0.70503 0.4446 0.0
H4057 H 0.49143 0.67766 0.4579 0.0
H4058 H 0.53867 0.70746 0.49148 0.0
H4059 H 0.53311 0.73494 0.47869 0.0
H4060 H 0.54489 0.67455 0.47464 0.0
H4061 H 0.50359 0.69469 0.51241 0.0
H4062 H 0.47626 0.70488 0.52075 0.0
H4063 H 0.44456 0.65513 0.49471 0.0
H4064 H 0.47171 0.64475 0.48589 0.0
H4065 H 0.55471 0.60597 0.53732 0.0
H4066 H 0.55046 0.63426 0.5257 0.0
H4067 H 0.5066 0.60599 0.48621 0.0
H4068 H 0.51172 0.57764 0.49679 0.0
H4069 H 0.49948 0.63867 0.50715 0.0
H4070 H 0.54224 0.61903 0.4695 0.0
H4071 H 0.57039 0.60886 0.46436 0.0
H4072 H 0.60027 0.65844 0.49295 0.0
H4073 H 0.57225 0.66875 0.49866 0.0
C4074 C 0.49763 0.70584 0.45491 0.0
C4075 C 0.5091 0.72246 0.46055 0.0
C4076 C 0.50066 0.69007 0.46258 0.0
C4077 C 0.51552 0.69016 0.47586 0.0
C4078 C 0.52711 0.70672 0.48131 0.0
C4079 C 0.52384 0.72257 0.474 0.0
C4080 C 0.51888 0.67313 0.48403 0.0
C4081 C 0.53497 0.6669 0.48192 0.0
C4082 C 0.5061 0.66269 0.49353 0.0
C4083 C 0.48967 0.66906 0.4982 0.0
C4084 C 0.49077 0.68603 0.50819 0.0
C4085 C 0.47532 0.69181 0.51307 0.0
C4086 C 0.45867 0.68069 0.50819 0.0
C4087 C 0.45746 0.66375 0.49842 0.0
C4088 C 0.47288 0.65792 0.49346 0.0
C4089 C 0.54437 0.6056 0.52599 0.0
C4090 C 0.53383 0.58909 0.51795 0.0
C4091 C 0.54181 0.62198 0.51937 0.0
C4092 C 0.52817 0.62257 0.50491 0.0
C4093 C 0.51726 0.60619 0.49731 0.0
C4094 C 0.52022 0.58983 0.50347 0.0
C4095 C 0.52532 0.64004 0.49753 0.0
C4096 C 0.50934 0.64634 0.49981 0.0
C4097 C 0.53827 0.6506 0.48837 0.0
C4098 C 0.55514 0.64456 0.48474 0.0
C4099 C 0.55481 0.62769 0.47488 0.0
C4100 C 0.57074 0.62191 0.47184 0.0
C4101 C 0.58711 0.63297 0.47839 0.0
C4102 C 0.58757 0.64986 0.48794 0.0
C4103 C 0.57167 0.65568 0.49109 0.0
H4104 H 0.59944 0.62847 0.47602 0.0
H4105 H 0.44673 0.68517 0.51204 0.0
H4106 H 0.58898 0.29967 0.67541 0.0
H4107 H 0.61546 0.29899 0.69689 0.0
H4108 H 0.64704 0.29919 0.65047 0.0
H4109 H 0.62029 0.29928 0.62878 0.0
H4110 H 0.65696 0.27686 0.67202 0.0
H4111 H 0.64926 0.3371 0.68453 0.0
H4112 H 0.63306 0.36159 0.692 0.0
H4113 H 0.62331 0.34245 0.74484 0.0
H4114 H 0.63925 0.31769 0.73757 0.0
H4115 H 0.74124 0.30614 0.73238 0.0
H4116 H 0.71487 0.30775 0.71104 0.0
H4117 H 0.68098 0.28111 0.74801 0.0
H4118 H 0.70732 0.27828 0.76888 0.0
H4119 H 0.67307 0.31752 0.73139 0.0
H4120 H 0.68076 0.25618 0.71676 0.0
H4121 H 0.69773 0.23264 0.70801 0.0
H4122 H 0.70905 0.25611 0.65767 0.0
H4123 H 0.69244 0.28001 0.66635 0.0
C4124 C 0.60158 0.29974 0.66974 0.0
C4125 C 0.60244 0.29968 0.65029 0.0
C4126 C 0.61684 0.29942 0.68212 0.0
C4127 C 0.63356 0.29933 0.67555 0.0
C4128 C 0.63444 0.2993 0.65609 0.0
C4129 C 0.61911 0.29946 0.64364 0.0
C4130 C 0.64991 0.29883 0.68889 0.0
C4131 C 0.66052 0.28596 0.68485 0.0
C4132 C 0.65474 0.31048 0.7059 0.0
C4133 C 0.6453 0.32544 0.71043 0.0
C4134 C 0.64356 0.33805 0.69769 0.0
C4135 C 0.63444 0.35199 0.70189 0.0
C4136 C 0.62712 0.35355 0.71886 0.0
C4137 C 0.62897 0.34121 0.73169 0.0
C4138 C 0.63806 0.32723 0.72755 0.0
C4139 C 0.72823 0.30053 0.73608 0.0
C4140 C 0.72664 0.29217 0.75266 0.0
C4141 C 0.7131 0.30153 0.72379 0.0
C4142 C 0.69587 0.29461 0.72787 0.0
C4143 C 0.69411 0.28664 0.74456 0.0
C4144 C 0.70927 0.28518 0.75662 0.0
C4145 C 0.67979 0.29546 0.71453 0.0
C4146 C 0.66938 0.30847 0.71854 0.0
C4147 C 0.67529 0.28414 0.69738 0.0
C4148 C 0.68557 0.27001 0.69234 0.0
C4149 C 0.68709 0.25647 0.70397 0.0
C4150 C 0.69657 0.24301 0.69898 0.0
C4151 C 0.70444 0.24287 0.68228 0.0
C4152 C 0.70293 0.25623 0.67059 0.0
C4153 C 0.6935 0.26974 0.67555 0.0
H4154 H 0.71176 0.23242 0.67843 0.0
H4155 H 0.62005 0.36435 0.72208 0.0
H4156 H 0.99031 0.31585 0.98188 0.0
H4157 H 0.99094 0.3471 0.99435 0.0
H4158 H 0.0249 0.3651 0.95302 0.0
H4159 H 0.02417 0.33404 0.94048 0.0
H4160 H 0.03716 0.38313 0.98746 0.0
H4161 H 0.98014 0.36799 0.94917 0.0
H4162 H 0.94997 0.3503 0.9394 0.0
H4163 H 0.9351 0.36266 0.9944 0.0
H4164 H 0.96527 0.38025 0.00457 0.0
H4165 H 0.03583 0.47599 0.99545 0.0
H4166 H 0.03346 0.44424 0.98522 0.0
H4167 H 0.99215 0.4315 0.02098 0.0
H4168 H 0.99443 0.46336 0.03116 0.0
H4169 H 0.98293 0.40985 0.99133 0.0
H4170 H 0.03784 0.42399 0.03074 0.0
H4171 H 0.06857 0.43755 0.04429 0.0
H4172 H 0.08778 0.42479 0.99155 0.0
H4173 H 0.05713 0.41135 0.9776 0.0
C4174 C 0.99794 0.32646 0.97547 0.0
C4175 C 0.00721 0.32227 0.96014 0.0
C4176 C 0.9982 0.34441 0.98255 0.0
C4177 C 0.00786 0.35873 0.97462 0.0
C4178 C 0.0173 0.3545 0.95948 0.0
C4179 C 0.01686 0.33662 0.95227 0.0
C4180 C 0.00858 0.37807 0.98216 0.0
C4181 C 0.02529 0.38903 0.988 0.0
C4182 C 0.99314 0.38579 0.98379 0.0
C4183 C 0.97501 0.37528 0.97768 0.0
C4184 C 0.97048 0.36682 0.95922 0.0
C4185 C 0.95337 0.35683 0.9536 0.0
C4186 C 0.94064 0.35532 0.96629 0.0
C4187 C 0.94498 0.36383 0.9846 0.0
C4188 C 0.96207 0.37381 0.99029 0.0
C4189 C 0.02616 0.46652 0.00116 0.0
C4190 C 0.01519 0.4726 0.01409 0.0
C4191 C 0.02491 0.44815 0.99537 0.0
C4192 C 0.01281 0.43502 0.00243 0.0
C4193 C 1.00164 0.44107 0.01514 0.0
C4194 C 1.00287 0.45948 0.02092 0.0
C4195 C 0.01168 0.41519 0.99633 0.0
C4196 C 0.99487 0.40409 0.99078 0.0
C4197 C 0.02705 0.40719 0.99532 0.0
C4198 C 0.04516 0.41682 0.00308 0.0
C4199 C 0.04856 0.42438 0.02193 0.0
C4200 C 0.06598 0.43196 0.0297 0.0
C4201 C 0.08009 0.43199 0.01878 0.0
C4202 C 0.07681 0.42475 0.99997 0.0
C4203 C 0.05943 0.41716 0.99213 0.0
H4204 H 0.09359 0.43742 0.02491 0.0
H4205 H 0.9274 0.34759 0.96191 0.0
H4206 H 0.98831 0.7848 0.11864 0.0
H4207 H 0.96243 0.78211 0.13653 0.0
H4208 H 0.99767 0.78909 0.18815 0.0
H4209 H 0.02347 0.79179 0.17042 0.0
H4210 H 0.97016 0.76133 0.1875 0.0
H4211 H 0.97744 0.82266 0.17485 0.0
H4212 H 0.9801 0.84703 0.15463 0.0
H4213 H 0.92795 0.82519 0.12596 0.0
H4214 H 0.9251 0.80052 0.14584 0.0
H4215 H 0.91199 0.77232 0.2541 0.0
H4216 H 0.93592 0.78098 0.23476 0.0
H4217 H 0.89723 0.77327 0.18572 0.0
H4218 H 0.87316 0.76479 0.20524 0.0
H4219 H 0.92537 0.801 0.18363 0.0
H4220 H 0.91763 0.7401 0.19618 0.0
H4221 H 0.91477 0.71524 0.21575 0.0
H4222 H 0.96761 0.73534 0.24352 0.0
H4223 H 0.97066 0.76055 0.22438 0.0
C4224 C 0.99052 0.78583 0.13381 0.0
C4225 C 0.00796 0.78855 0.1431 0.0
C4226 C 0.97572 0.78435 0.14403 0.0
C4227 C 0.97807 0.78551 0.16374 0.0
C4228 C 0.99548 0.78816 0.17298 0.0
C4229 C 0.01024 0.78976 0.16281 0.0
C4230 C 0.96247 0.78363 0.17482 0.0
C4231 C 0.96051 0.77017 0.18681 0.0
C4232 C 0.94951 0.79477 0.17355 0.0
C4233 C 0.95114 0.80965 0.1617 0.0
C4234 C 0.9666 0.82298 0.16413 0.0
C4235 C 0.96814 0.83685 0.15275 0.0
C4236 C 0.95422 0.83763 0.13899 0.0
C4237 C 0.93873 0.82455 0.13661 0.0
C4238 C 0.93714 0.81063 0.14794 0.0
C4239 C 0.90853 0.77321 0.23932 0.0
C4240 C 0.89072 0.76811 0.23119 0.0
C4241 C 0.92223 0.77794 0.22823 0.0
C4242 C 0.91845 0.77741 0.20869 0.0
C4243 C 0.9005 0.77373 0.20074 0.0
C4244 C 0.88673 0.76904 0.2119 0.0
C4245 C 0.93329 0.77892 0.19656 0.0
C4246 C 0.93504 0.7922 0.18431 0.0
C4247 C 0.94605 0.76752 0.19748 0.0
C4248 C 0.94429 0.75233 0.20898 0.0
C4249 C 0.92858 0.73931 0.20658 0.0
C4250 C 0.92693 0.72515 0.21758 0.0
C4251 C 0.94098 0.72373 0.2309 0.0
C4252 C 0.95673 0.73647 0.23322 0.0
C4253 C 0.95842 0.75071 0.2223 0.0
H4254 H 0.93969 0.71274 0.23939 0.0
H4255 H 0.95543 0.84838 0.13019 0.0
H4256 H 0.52661 0.32189 0.1782 0.0
H4257 H 0.53036 0.34777 0.16036 0.0
H4258 H 0.51966 0.31241 0.10861 0.0
H4259 H 0.51622 0.28656 0.12636 0.0
H4260 H 0.54772 0.33776 0.10732 0.0
H4261 H 0.48852 0.33667 0.1253 0.0
H4262 H 0.46638 0.33648 0.14799 0.0
H4263 H 0.4946 0.3872 0.17552 0.0
H4264 H 0.51707 0.38756 0.15315 0.0
H4265 H 0.54092 0.39958 0.04331 0.0
H4266 H 0.53083 0.37546 0.06207 0.0
H4267 H 0.54263 0.41294 0.11226 0.0
H4268 H 0.55227 0.43719 0.09331 0.0
H4269 H 0.51403 0.38734 0.11532 0.0
H4270 H 0.57307 0.38881 0.09859 0.0
H4271 H 0.59618 0.38953 0.07697 0.0
H4272 H 0.56964 0.33848 0.04872 0.0
H4273 H 0.54615 0.33763 0.06994 0.0
C4274 C 0.52496 0.31964 0.16301 0.0
C4275 C 0.52106 0.30214 0.15371 0.0
C4276 C 0.52704 0.33447 0.15281 0.0
C4277 C 0.52512 0.33213 0.13307 0.0
C4278 C 0.5212 0.31464 0.1238 0.0
C4279 C 0.51917 0.29984 0.13398 0.0
C4280 C 0.52765 0.34778 0.12199 0.0
C4281 C 0.54012 0.34843 0.1089 0.0
C4282 C 0.51823 0.3621 0.12442 0.0
C4283 C 0.50455 0.36207 0.13764 0.0
C4284 C 0.49006 0.34773 0.13625 0.0
C4285 C 0.47745 0.3476 0.14906 0.0
C4286 C 0.47911 0.3618 0.16321 0.0
C4287 C 0.49335 0.3762 0.16456 0.0
C4288 C 0.50601 0.37639 0.15181 0.0
C4289 C 0.54071 0.40275 0.05825 0.0
C4290 C 0.54717 0.42023 0.06687 0.0
C4291 C 0.53514 0.38894 0.06901 0.0
C4292 C 0.53633 0.39226 0.08868 0.0
C4293 C 0.54161 0.40999 0.09715 0.0
C4294 C 0.54705 0.42386 0.08633 0.0
C4295 C 0.5338 0.37706 0.10039 0.0
C4296 C 0.5215 0.37658 0.11368 0.0
C4297 C 0.5435 0.36292 0.09832 0.0
C4298 C 0.55776 0.36324 0.08573 0.0
C4299 C 0.5721 0.37779 0.08768 0.0
C4300 C 0.58526 0.37822 0.0755 0.0
C4301 C 0.58436 0.36408 0.06145 0.0
C4302 C 0.5703 0.34944 0.05959 0.0
C4303 C 0.55706 0.34898 0.07169 0.0
H4304 H 0.59457 0.36443 0.05204 0.0
H4305 H 0.46934 0.36167 0.17312 0.0
H4306 H 0.99391 0.3025 0.30859 0.0
H4307 H 0.96285 0.30124 0.29528 0.0
H4308 H 0.94747 0.3078 0.35117 0.0
H4309 H 0.97806 0.30807 0.3643 0.0
H4310 H 0.9235 0.28491 0.3331 0.0
H4311 H 0.95187 0.34215 0.31612 0.0
H4312 H 0.97416 0.36135 0.30081 0.0
H4313 H 0.95403 0.33105 0.24748 0.0
H4314 H 0.93175 0.31155 0.26251 0.0
H4315 H 0.83476 0.29652 0.31198 0.0
H4316 H 0.86658 0.30094 0.32269 0.0
H4317 H 0.87842 0.29997 0.26532 0.0
H4318 H 0.8465 0.29728 0.2548 0.0
H4319 H 0.90475 0.3195 0.28244 0.0
H4320 H 0.88102 0.26052 0.29771 0.0
H4321 H 0.86209 0.23704 0.31148 0.0
H4322 H 0.87437 0.26782 0.36571 0.0
H4323 H 0.89411 0.29122 0.35226 0.0
C4324 C 0.98389 0.30371 0.31803 0.0
C4325 C 0.98867 0.30536 0.3376 0.0
C4326 C 0.96601 0.30316 0.31038 0.0
C4327 C 0.95239 0.30472 0.32205 0.0
C4328 C 0.95735 0.30651 0.3416 0.0
C4329 C 0.97504 0.30671 0.34918 0.0
C4330 C 0.93291 0.30378 0.31437 0.0
C4331 C 0.91955 0.29282 0.32225 0.0
C4332 C 0.92722 0.3133 0.29955 0.0
C4333 C 0.94023 0.32534 0.29046 0.0
C4334 C 0.95223 0.33957 0.30114 0.0
C4335 C 0.96486 0.35049 0.29251 0.0
C4336 C 0.96553 0.3474 0.27319 0.0
C4337 C 0.95351 0.33343 0.26244 0.0
C4338 C 0.94085 0.32246 0.271 0.0
C4339 C 0.84412 0.29723 0.3016 0.0
C4340 C 0.83784 0.29618 0.28244 0.0
C4341 C 0.86253 0.29952 0.30775 0.0
C4342 C 0.87546 0.29997 0.29495 0.0
C4343 C 0.86914 0.29948 0.27576 0.0
C4344 C 0.85072 0.29783 0.26966 0.0
C4345 C 0.89529 0.30088 0.30154 0.0
C4346 C 0.90871 0.31174 0.29341 0.0
C4347 C 0.90119 0.29108 0.31599 0.0
C4348 C 0.88878 0.27762 0.32397 0.0
C4349 C 0.87953 0.26232 0.31253 0.0
C4350 C 0.86871 0.249 0.32032 0.0
C4351 C 0.86678 0.251 0.33946 0.0
C4352 C 0.87582 0.2663 0.35089 0.0
C4353 C 0.88695 0.27952 0.34323 0.0
H4354 H 0.85848 0.24062 0.34553 0.0
H4355 H 0.97535 0.35584 0.26655 0.0
H4356 H 0.99584 0.7151 0.62746 0.0
H4357 H 0.99473 0.68749 0.60652 0.0
H4358 H 0.03116 0.67 0.647 0.0
H4359 H 0.03176 0.69726 0.66833 0.0
H4360 H 0.03963 0.6707 0.60572 0.0
H4361 H 0.99584 0.64741 0.6449 0.0
H4362 H 0.96855 0.64586 0.66069 0.0
H4363 H 0.93685 0.64152 0.60739 0.0
H4364 H 0.96401 0.6433 0.59129 0.0
H4365 H 0.04024 0.58288 0.5632 0.0
H4366 H 0.03928 0.60919 0.58506 0.0
H4367 H 0.99052 0.61609 0.55372 0.0
H4368 H 0.99137 0.58941 0.53198 0.0
H4369 H 0.98773 0.6209 0.59063 0.0
H4370 H 0.03052 0.64357 0.55115 0.0
H4371 H 0.05739 0.64607 0.53458 0.0
H4372 H 0.09056 0.65281 0.58725 0.0
H4373 H 0.06387 0.64997 0.60411 0.0
C4374 C 1.0035 0.7053 0.63198 0.0
C4375 C 0.0139 0.70841 0.64959 0.0
C4376 C 1.0028 0.68949 0.62001 0.0
C4377 C 0.01282 0.67659 0.62516 0.0
C4378 C 0.02325 0.67968 0.64272 0.0
C4379 C 0.02356 0.69527 0.65492 0.0
C4380 C 0.01313 0.66041 0.61179 0.0
C4381 C 0.02839 0.65967 0.60264 0.0
C4382 C 0.99826 0.64626 0.60725 0.0
C4383 C 0.98199 0.64579 0.61692 0.0
C4384 C 0.98309 0.64643 0.63656 0.0
C4385 C 0.96763 0.64542 0.64557 0.0
C4386 C 0.95099 0.64367 0.63506 0.0
C4387 C 0.94976 0.64293 0.61552 0.0
C4388 C 0.96518 0.64393 0.60645 0.0
C4389 C 0.0292 0.58989 0.56113 0.0
C4390 C 0.0157 0.58389 0.5461 0.0
C4391 C 0.02876 0.6051 0.57351 0.0
C4392 C 0.01485 0.61483 0.57114 0.0
C4393 C 1.00138 0.60887 0.55599 0.0
C4394 C 1.00189 0.59367 0.5435 0.0
C4395 C 0.01435 0.63105 0.58455 0.0
C4396 C 0.99902 0.63187 0.59369 0.0
C4397 C 0.02914 0.64537 0.58899 0.0
C4398 C 0.04518 0.64637 0.57888 0.0
C4399 C 0.04353 0.64533 0.55919 0.0
C4400 C 0.05873 0.64686 0.54974 0.0
C4401 C 0.07566 0.64958 0.55985 0.0
C4402 C 0.07744 0.65068 0.57942 0.0
C4403 C 0.06228 0.64909 0.58894 0.0
H4404 H 0.08741 0.65092 0.55249 0.0
H4405 H 0.93903 0.64284 0.64205 0.0
H4406 H 0.60618 0.80724 0.86427 0.0
H4407 H 0.63325 0.80142 0.85142 0.0
H4408 H 0.60539 0.7937 0.79552 0.0
H4409 H 0.57797 0.7988 0.80854 0.0
H4410 H 0.62561 0.7707 0.7961 0.0
H4411 H 0.63924 0.83362 0.81626 0.0
H4412 H 0.64271 0.86102 0.83836 0.0
H4413 H 0.68094 0.84167 0.87487 0.0
H4414 H 0.67753 0.81406 0.85308 0.0
H4415 H 0.7072 0.77062 0.75293 0.0
H4416 H 0.67866 0.77546 0.76322 0.0
H4417 H 0.70378 0.78837 0.82026 0.0
H4418 H 0.7323 0.78448 0.80981 0.0
H4419 H 0.68417 0.80973 0.81736 0.0
H4420 H 0.66757 0.74509 0.79883 0.0
H4421 H 0.66164 0.71676 0.77783 0.0
H4422 H 0.62945 0.73955 0.73803 0.0
H4423 H 0.63468 0.76782 0.7591 0.0
C4424 C 0.60577 0.80445 0.84921 0.0
C4425 C 0.58972 0.80374 0.83753 0.0
C4426 C 0.62146 0.80119 0.84176 0.0
C4427 C 0.62191 0.79746 0.82225 0.0
C4428 C 0.60578 0.79661 0.81057 0.0
C4429 C 0.59 0.79965 0.81806 0.0
C4430 C 0.63896 0.7942 0.81417 0.0
C4431 C 0.63835 0.77943 0.80066 0.0
C4432 C 0.65596 0.80517 0.82003 0.0
C4433 C 0.658 0.82173 0.83314 0.0
C4434 C 0.64829 0.83517 0.82907 0.0
C4435 C 0.65026 0.85074 0.84153 0.0
C4436 C 0.662 0.85306 0.85803 0.0
C4437 C 0.67183 0.83984 0.86209 0.0
C4438 C 0.6699 0.82424 0.84969 0.0
C4439 C 0.70664 0.77443 0.76769 0.0
C4440 C 0.72233 0.77726 0.78042 0.0
C4441 C 0.69009 0.77703 0.7737 0.0
C4442 C 0.68848 0.78216 0.79278 0.0
C4443 C 0.7042 0.78461 0.80547 0.0
C4444 C 0.72072 0.78231 0.79943 0.0
C4445 C 0.67101 0.78587 0.79964 0.0
C4446 C 0.67149 0.80087 0.81285 0.0
C4447 C 0.65392 0.77511 0.79349 0.0
C4448 C 0.65168 0.75858 0.7804 0.0
C4449 C 0.65936 0.74409 0.78553 0.0
C4450 C 0.65603 0.72802 0.77368 0.0
C4451 C 0.6453 0.7264 0.75655 0.0
C4452 C 0.63779 0.74083 0.75127 0.0
C4453 C 0.64082 0.75682 0.76322 0.0
H4454 H 0.64277 0.71395 0.74738 0.0
H4455 H 0.66351 0.86513 0.86766 0.0
H4456 H 0.43141 0.50018 0.69732 0.0
H4457 H 0.44686 0.50542 0.6695 0.0
H4458 H 0.4827 0.55048 0.70098 0.0
H4459 H 0.46758 0.54514 0.72893 0.0
H4460 H 0.46679 0.55561 0.6624 0.0
H4461 H 0.49823 0.5154 0.69602 0.0
H4462 H 0.49833 0.48754 0.71067 0.0
H4463 H 0.47595 0.4566 0.65826 0.0
H4464 H 0.47545 0.48429 0.64339 0.0
H4465 H 0.52342 0.56912 0.59089 0.0
H4466 H 0.51145 0.56692 0.62087 0.0
H4467 H 0.49819 0.50937 0.60782 0.0
H4468 H 0.51437 0.5117 0.58053 0.0
H4469 H 0.50296 0.512 0.63952 0.0
H4470 H 0.46726 0.54819 0.60503 0.0
H4471 H 0.46277 0.57422 0.58853 0.0
H4472 H 0.48635 0.60969 0.63778 0.0
H4473 H 0.4911 0.5839 0.65449 0.0
C4474 C 0.44261 0.51117 0.69833 0.0
C4475 C 0.44839 0.52214 0.71536 0.0
C4476 C 0.45137 0.51419 0.68242 0.0
C4477 C 0.4659 0.52836 0.6832 0.0
C4478 C 0.47148 0.53952 0.70008 0.0
C4479 C 0.46291 0.53635 0.71606 0.0
C4480 C 0.47579 0.53105 0.66664 0.0
C4481 C 0.47475 0.54614 0.65728 0.0
C4482 C 0.48578 0.51849 0.65979 0.0
C4483 C 0.4867 0.50191 0.66864 0.0
C4484 C 0.49326 0.50266 0.68765 0.0
C4485 C 0.49338 0.4869 0.69599 0.0
C4486 C 0.48712 0.47031 0.68541 0.0
C4487 C 0.48079 0.46945 0.66644 0.0
C4488 C 0.4806 0.48517 0.65805 0.0
C4489 C 0.51816 0.55603 0.5947 0.0
C4490 C 0.51931 0.54056 0.58314 0.0
C4491 C 0.5108 0.55474 0.6117 0.0
C4492 C 0.50277 0.53801 0.61662 0.0
C4493 C 0.50405 0.52257 0.6048 0.0
C4494 C 0.51292 0.52385 0.58878 0.0
C4495 C 0.49342 0.53629 0.63403 0.0
C4496 C 0.49475 0.52146 0.64397 0.0
C4497 C 0.48297 0.54872 0.64084 0.0
C4498 C 0.47964 0.56414 0.63093 0.0
C4499 C 0.47147 0.56155 0.61231 0.0
C4500 C 0.46891 0.57626 0.60293 0.0
C4501 C 0.47431 0.59359 0.61209 0.0
C4502 C 0.48219 0.59626 0.63069 0.0
C4503 C 0.48479 0.58161 0.64014 0.0
H4504 H 0.47236 0.60496 0.60478 0.0
H4505 H 0.4872 0.45813 0.6919 0.0
H4506 H 0.74154 0.15686 0.99702 0.0
H4507 H 0.73958 0.17278 0.96927 0.0
H4508 H 0.79479 0.17102 0.96312 0.0
H4509 H 0.79656 0.15433 0.99069 0.0
H4510 H 0.78299 0.20649 0.96719 0.0
H4511 H 0.76963 0.14945 0.93109 0.0
H4512 H 0.75461 0.11806 0.92301 0.0
H4513 H 0.70398 0.13463 0.91418 0.0
H4514 H 0.71859 0.1661 0.92271 0.0
H4515 H 0.76613 0.25557 0.88907 0.0
H4516 H 0.77708 0.23538 0.90986 0.0
H4517 H 0.72296 0.21456 0.9193 0.0
H4518 H 0.71189 0.23434 0.89808 0.0
H4519 H 0.74075 0.18831 0.90918 0.0
H4520 H 0.7507 0.24204 0.95198 0.0
H4521 H 0.76279 0.27351 0.96399 0.0
H4522 H 0.8162 0.26337 0.96394 0.0
H4523 H 0.80442 0.23188 0.95152 0.0
C4524 C 0.75312 0.15964 0.9895 0.0
C4525 C 0.7692 0.15462 0.99571 0.0
C4526 C 0.75197 0.16855 0.97369 0.0
C4527 C 0.76701 0.17281 0.96423 0.0
C4528 C 0.78307 0.16755 0.97025 0.0
C4529 C 0.78407 0.15815 0.98586 0.0
C4530 C 0.76611 0.18456 0.94949 0.0
C4531 C 0.77424 0.20251 0.95415 0.0
C4532 C 0.75414 0.17918 0.93299 0.0
C4533 C 0.74526 0.16021 0.92765 0.0
C4534 C 0.75528 0.14642 0.9276 0.0
C4535 C 0.74682 0.12859 0.92293 0.0
C4536 C 0.72835 0.12435 0.91811 0.0
C4537 C 0.71829 0.13794 0.91793 0.0
C4538 C 0.72666 0.15578 0.92268 0.0
C4539 C 0.75662 0.24681 0.89579 0.0
C4540 C 0.73818 0.24636 0.89199 0.0
C4541 C 0.76288 0.23536 0.90763 0.0
C4542 C 0.75078 0.22348 0.91592 0.0
C4543 C 0.73243 0.22361 0.91284 0.0
C4544 C 0.72616 0.23502 0.90097 0.0
C4545 C 0.75707 0.21039 0.92728 0.0
C4546 C 0.74996 0.19224 0.9219 0.0
C4547 C 0.76957 0.21564 0.94344 0.0
C4548 C 0.77668 0.23468 0.95047 0.0
C4549 C 0.76503 0.24658 0.95423 0.0
C4550 C 0.77182 0.26441 0.96118 0.0
C4551 C 0.79025 0.27046 0.96463 0.0
C4552 C 0.80193 0.25868 0.96117 0.0
C4553 C 0.7952 0.24084 0.95415 0.0
H4554 H 0.79549 0.28426 0.97007 0.0
H4555 H 0.72183 0.11054 0.91448 0.0
H4556 H 0.17122 0.54494 0.18595 0.0
H4557 H 0.15333 0.53857 0.15519 0.0
H4558 H 0.10525 0.5287 0.18227 0.0
H4559 H 0.12289 0.53504 0.2129 0.0
H4560 H 0.10642 0.5025 0.15374 0.0
H4561 H 0.1151 0.56628 0.16714 0.0
H4562 H 0.13211 0.59701 0.17485 0.0
H4563 H 0.15709 0.59189 0.12426 0.0
H4564 H 0.14041 0.56096 0.11643 0.0
H4565 H 0.03777 0.5391 0.10113 0.0
H4566 H 0.06438 0.53938 0.12313 0.0
H4567 H 0.08431 0.50537 0.08204 0.0
H4568 H 0.05682 0.50369 0.06093 0.0
H4569 H 0.10271 0.54986 0.11174 0.0
H4570 H 0.08839 0.4817 0.10096 0.0
H4571 H 0.06546 0.45419 0.09698 0.0
H4572 H 0.0451 0.47179 0.1476 0.0
H4573 H 0.06766 0.4996 0.15158 0.0
C4574 C 0.15683 0.54151 0.18527 0.0
C4575 C 0.14835 0.54047 0.20166 0.0
C4576 C 0.14672 0.53782 0.16779 0.0
C4577 C 0.12813 0.53302 0.16669 0.0
C4578 C 0.11966 0.53218 0.18302 0.0
C4579 C 0.12971 0.53597 0.20044 0.0
C4580 C 0.11718 0.52937 0.14856 0.0
C4581 C 0.10586 0.51269 0.1443 0.0
C4582 C 0.11646 0.54281 0.13654 0.0
C4583 C 0.12682 0.56121 0.14141 0.0
C4584 C 0.12443 0.57161 0.15781 0.0
C4585 C 0.13395 0.58909 0.16217 0.0
C4586 C 0.14575 0.59637 0.15011 0.0
C4587 C 0.14802 0.58619 0.13364 0.0
C4588 C 0.13855 0.56869 0.12925 0.0
C4589 C 0.04784 0.53165 0.09696 0.0
C4590 C 0.04601 0.52202 0.07919 0.0
C4591 C 0.06292 0.53185 0.10937 0.0
C4592 C 0.07612 0.52245 0.10397 0.0
C4593 C 0.07417 0.51265 0.0863 0.0
C4594 C 0.05888 0.51213 0.07411 0.0
C4595 C 0.09191 0.52313 0.11711 0.0
C4596 C 0.10406 0.53931 0.12057 0.0
C4597 C 0.09296 0.5095 0.12878 0.0
C4598 C 0.07949 0.49279 0.12638 0.0
C4599 C 0.07886 0.47979 0.11108 0.0
C4600 C 0.06596 0.46414 0.10885 0.0
C4601 C 0.05378 0.46127 0.12199 0.0
C4602 C 0.05449 0.47405 0.13739 0.0
C4603 C 0.0673 0.48976 0.13962 0.0
H4604 H 0.04384 0.44913 0.12027 0.0
H4605 H 0.15308 0.60992 0.15347 0.0
H4606 H 0.81644 0.85195 0.48868 0.0
H4607 H 0.81535 0.83664 0.457 0.0
H4608 H 0.76579 0.85361 0.44078 0.0
H4609 H 0.76696 0.8692 0.47233 0.0
H4610 H 0.76494 0.81797 0.42816 0.0
H4611 H 0.79984 0.87429 0.42566 0.0
H4612 H 0.82332 0.90106 0.43409 0.0
H4613 H 0.86364 0.86909 0.42729 0.0
H4614 H 0.84034 0.842 0.41905 0.0
H4615 H 0.77167 0.81435 0.3279 0.0
H4616 H 0.77119 0.82546 0.36064 0.0
H4617 H 0.80716 0.79092 0.37768 0.0
H4618 H 0.80612 0.77829 0.34493 0.0
H4619 H 0.81454 0.83441 0.38991 0.0
H4620 H 0.77461 0.77729 0.38993 0.0
H4621 H 0.74828 0.75427 0.37765 0.0
H4622 H 0.71411 0.7927 0.38557 0.0
H4623 H 0.74032 0.81605 0.39762 0.0
C4624 C 0.80527 0.85233 0.47839 0.0
C4625 C 0.79179 0.86176 0.48296 0.0
C4626 C 0.80469 0.84364 0.46029 0.0
C4627 C 0.79051 0.84403 0.44653 0.0
C4628 C 0.77682 0.8531 0.4512 0.0
C4629 C 0.77754 0.86204 0.4692 0.0
C4630 C 0.79019 0.83523 0.42719 0.0
C4631 C 0.77576 0.8216 0.41979 0.0
C4632 C 0.80422 0.84007 0.41619 0.0
C4633 C 0.81835 0.85608 0.42201 0.0
C4634 C 0.81372 0.8729 0.42626 0.0
C4635 C 0.82698 0.88815 0.43092 0.0
C4636 C 0.84494 0.88677 0.43124 0.0
C4637 C 0.8497 0.87012 0.42705 0.0
C4638 C 0.83647 0.85481 0.42238 0.0
C4639 C 0.77906 0.8087 0.33856 0.0
C4640 C 0.78875 0.79527 0.33365 0.0
C4641 C 0.77892 0.81522 0.35729 0.0
C4642 C 0.78905 0.80894 0.37153 0.0
C4643 C 0.79913 0.79583 0.36683 0.0
C4644 C 0.79868 0.78876 0.34807 0.0
C4645 C 0.78963 0.81682 0.39119 0.0
C4646 C 0.80396 0.83052 0.39851 0.0
C4647 C 0.77523 0.81244 0.40182 0.0
C4648 C 0.75947 0.79847 0.39446 0.0
C4649 C 0.76152 0.7809 0.38882 0.0
C4650 C 0.74661 0.76777 0.38196 0.0
C4651 C 0.72954 0.77203 0.38079 0.0
C4652 C 0.72735 0.78943 0.38647 0.0
C4653 C 0.74223 0.80261 0.39332 0.0
H4654 H 0.71803 0.76181 0.37556 0.0
H4655 H 0.85514 0.89865 0.43457 0.0
H4656 H 0.47529 0.53009 0.80874 0.0
H4657 H 0.49055 0.5297 0.84019 0.0
H4658 H 0.4402 0.50811 0.85896 0.0
H4659 H 0.42493 0.50953 0.82805 0.0
H4660 H 0.45657 0.53107 0.88432 0.0
H4661 H 0.47484 0.48258 0.84818 0.0
H4662 H 0.4881 0.46901 0.82181 0.0
H4663 H 0.53817 0.50433 0.83967 0.0
H4664 H 0.52513 0.51826 0.86604 0.0
H4665 H 0.48824 0.50666 0.97139 0.0
H4666 H 0.47506 0.50354 0.9386 0.0
H4667 H 0.52623 0.5265 0.92255 0.0
H4668 H 0.53967 0.52794 0.9551 0.0
H4669 H 0.5103 0.50383 0.89548 0.0
H4670 H 0.48935 0.54877 0.93578 0.0
H4671 H 0.47363 0.5575 0.96239 0.0
H4672 H 0.42443 0.52634 0.93513 0.0
H4673 H 0.44006 0.51564 0.90924 0.0
C4674 C 0.46753 0.52535 0.81965 0.0
C4675 C 0.44892 0.5199 0.81597 0.0
C4676 C 0.47628 0.52496 0.8376 0.0
C4677 C 0.46663 0.51859 0.85204 0.0
C4678 C 0.44802 0.51314 0.84822 0.0
C4679 C 0.43927 0.51394 0.83048 0.0
C4680 C 0.47561 0.51787 0.87127 0.0
C4681 C 0.46818 0.52486 0.88674 0.0
C4682 C 0.491 0.51016 0.87455 0.0
C4683 C 0.49898 0.50155 0.85898 0.0
C4684 C 0.48866 0.48749 0.84644 0.0
C4685 C 0.49614 0.47974 0.8315 0.0
C4686 C 0.51396 0.48583 0.82904 0.0
C4687 C 0.52436 0.49964 0.84158 0.0
C4688 C 0.51695 0.50745 0.85654 0.0
C4689 C 0.49666 0.51078 0.96074 0.0
C4690 C 0.51486 0.5178 0.96571 0.0
C4691 C 0.48913 0.50912 0.94202 0.0
C4692 C 0.49942 0.5155 0.92805 0.0
C4693 C 0.51786 0.5217 0.93297 0.0
C4694 C 0.52555 0.52262 0.95159 0.0
C4695 C 0.49094 0.51661 0.90864 0.0
C4696 C 0.49862 0.50993 0.89311 0.0
C4697 C 0.47538 0.52418 0.90527 0.0
C4698 C 0.46597 0.53125 0.9206 0.0
C4699 C 0.47521 0.54364 0.93547 0.0
C4700 C 0.46632 0.54894 0.95046 0.0
C4701 C 0.44804 0.54287 0.9503 0.0
C4702 C 0.4386 0.53111 0.93525 0.0
C4703 C 0.44752 0.52519 0.92053 0.0
H4704 H 0.44124 0.54717 0.96191 0.0
H4705 H 0.51971 0.47983 0.81745 0.0
H4706 H 0.80236 0.16972 0.09294 0.0
H4707 H 0.80533 0.18975 0.12195 0.0
H4708 H 0.75433 0.16264 0.13468 0.0
H4709 H 0.75142 0.14223 0.10566 0.0
H4710 H 0.75835 0.20053 0.12789 0.0
H4711 H 0.78716 0.16117 0.16495 0.0
H4712 H 0.8099 0.14254 0.17109 0.0
H4713 H 0.85157 0.18791 0.1703 0.0
H4714 H 0.82907 0.20677 0.16408 0.0
H4715 H 0.75283 0.25654 0.2085 0.0
H4716 H 0.7525 0.23358 0.18269 0.0
H4717 H 0.81011 0.24736 0.18577 0.0
H4718 H 0.81038 0.26826 0.21374 0.0
H4719 H 0.80285 0.21512 0.1844 0.0
H4720 H 0.77785 0.25499 0.147 0.0
H4721 H 0.75749 0.27577 0.13983 0.0
H4722 H 0.71235 0.23317 0.13718 0.0
H4723 H 0.73242 0.21218 0.14452 0.0
C4724 C 0.79206 0.16773 0.10225 0.0
C4725 C 0.77656 0.15479 0.09721 0.0
C4726 C 0.79384 0.17902 0.11878 0.0
C4727 C 0.78002 0.17751 0.13019 0.0
C4728 C 0.7651 0.16374 0.1259 0.0
C4729 C 0.76346 0.1522 0.10946 0.0
C4730 C 0.77981 0.19226 0.14441 0.0
C4731 C 0.76782 0.20368 0.14048 0.0
C4732 C 0.79293 0.19663 0.15999 0.0
C4733 C 0.80643 0.18534 0.16398 0.0
C4734 C 0.80117 0.16714 0.16601 0.0
C4735 C 0.81402 0.15655 0.16953 0.0
C4736 C 0.83217 0.16403 0.17106 0.0
C4737 C 0.83751 0.18213 0.16914 0.0
C4738 C 0.82472 0.19278 0.16567 0.0
C4739 C 0.76532 0.25468 0.20339 0.0
C4740 C 0.78161 0.2634 0.21305 0.0
C4741 C 0.76516 0.2418 0.1885 0.0
C4742 C 0.78129 0.23887 0.1821 0.0
C4743 C 0.79754 0.24922 0.19066 0.0
C4744 C 0.79773 0.26115 0.20644 0.0
C4745 C 0.78132 0.22371 0.16803 0.0
C4746 C 0.79333 0.2122 0.17185 0.0
C4747 C 0.7687 0.21966 0.15186 0.0
C4748 C 0.75665 0.23202 0.14633 0.0
C4749 C 0.76358 0.25005 0.14483 0.0
C4750 C 0.75209 0.26187 0.14078 0.0
C4751 C 0.73364 0.2558 0.13805 0.0
C4752 C 0.72664 0.23785 0.13925 0.0
C4753 C 0.73808 0.22597 0.14329 0.0
H4754 H 0.72476 0.26499 0.13502 0.0
H4755 H 0.84209 0.15581 0.17374 0.0
H4756 H 0.17259 0.56356 0.31524 0.0
H4757 H 0.15492 0.56616 0.34137 0.0
H4758 H 0.12225 0.51463 0.32112 0.0
H4759 H 0.13922 0.51268 0.29415 0.0
H4760 H 0.1025 0.53799 0.32589 0.0
H4761 H 0.15209 0.52361 0.3636 0.0
H4762 H 0.18405 0.52698 0.3749 0.0
H4763 H 0.1849 0.58104 0.398 0.0
H4764 H 0.15305 0.57815 0.3865 0.0
H4765 H 0.05062 0.54544 0.40226 0.0
H4766 H 0.07123 0.53431 0.38194 0.0
H4767 H 0.10433 0.58686 0.38909 0.0
H4768 H 0.08359 0.598 0.40921 0.0
H4769 H 0.12353 0.55886 0.3929 0.0
H4770 H 0.07749 0.57562 0.35191 0.0
H4771 H 0.0466 0.57524 0.33843 0.0
H4772 H 0.04027 0.5192 0.31993 0.0
H4773 H 0.07103 0.51915 0.33374 0.0
C4774 C 0.16197 0.55258 0.31674 0.0
C4775 C 0.15715 0.53791 0.30292 0.0
C4776 C 0.15193 0.55402 0.33169 0.0
C4777 C 0.13743 0.54044 0.33333 0.0
C4778 C 0.13342 0.5252 0.3201 0.0
C4779 C 0.1431 0.52405 0.30482 0.0
C4780 C 0.1251 0.54327 0.3473 0.0
C4781 C 0.10703 0.54203 0.34066 0.0
C4782 C 0.13119 0.5492 0.36639 0.0
C4783 C 0.15015 0.55066 0.37413 0.0
C4784 C 0.15909 0.53623 0.37107 0.0
C4785 C 0.1772 0.53807 0.37748 0.0
C4786 C 0.1865 0.55422 0.38716 0.0
C4787 C 0.17768 0.56854 0.39052 0.0
C4788 C 0.15959 0.56679 0.38408 0.0
C4789 C 0.06222 0.55455 0.39923 0.0
C4790 C 0.06554 0.57256 0.40676 0.0
C4791 C 0.07397 0.54821 0.38785 0.0
C4792 C 0.08919 0.55983 0.38414 0.0
C4793 C 0.09262 0.57777 0.39192 0.0
C4794 C 0.08075 0.58415 0.4031 0.0
C4795 C 0.10114 0.55354 0.37137 0.0
C4796 C 0.11904 0.55426 0.37823 0.0
C4797 C 0.095 0.54733 0.3524 0.0
C4798 C 0.07646 0.54731 0.34417 0.0
C4799 C 0.06944 0.56316 0.34521 0.0
C4800 C 0.05196 0.56303 0.33747 0.0
C4801 C 0.04145 0.54719 0.32841 0.0
C4802 C 0.04841 0.53144 0.32703 0.0
C4803 C 0.06585 0.53148 0.33485 0.0
H4804 H 0.02793 0.54712 0.32238 0.0
H4805 H 0.20054 0.55563 0.39205 0.0
H4806 H 0.78299 0.83772 0.56796 0.0
H4807 H 0.77731 0.82221 0.59559 0.0
H4808 H 0.78636 0.87296 0.6301 0.0
H4809 H 0.79235 0.88848 0.60261 0.0
H4810 H 0.80383 0.85098 0.64628 0.0
H4811 H 0.74394 0.84706 0.61835 0.0
H4812 H 0.71882 0.84003 0.59311 0.0
H4813 H 0.7228 0.7845 0.5893 0.0
H4814 H 0.74812 0.79123 0.61437 0.0
H4815 H 0.76518 0.81718 0.7266 0.0
H4816 H 0.76734 0.832 0.698 0.0
H4817 H 0.78055 0.78493 0.66911 0.0
H4818 H 0.77911 0.77019 0.69777 0.0
H4819 H 0.7506 0.80475 0.6503 0.0
H4820 H 0.81365 0.81023 0.6737 0.0
H4821 H 0.8406 0.8181 0.69672 0.0
H4822 H 0.82984 0.87109 0.70849 0.0
H4823 H 0.80291 0.86353 0.68537 0.0
C4824 C 0.78377 0.84556 0.58144 0.0
C4825 C 0.78824 0.86433 0.58311 0.0
C4826 C 0.78035 0.83668 0.59721 0.0
C4827 C 0.7812 0.84639 0.61496 0.0
C4828 C 0.78559 0.86514 0.61659 0.0
C4829 C 0.78904 0.87401 0.60086 0.0
C4830 C 0.77852 0.83705 0.63199 0.0
C4831 C 0.79201 0.8411 0.64718 0.0
C4832 C 0.76331 0.8238 0.63315 0.0
C4833 C 0.74805 0.81968 0.61812 0.0
C4834 C 0.73956 0.83336 0.61203 0.0
C4835 C 0.72526 0.82943 0.59778 0.0
C4836 C 0.71925 0.81183 0.58958 0.0
C4837 C 0.72749 0.79813 0.59566 0.0
C4838 C 0.7418 0.80199 0.6099 0.0
C4839 C 0.7685 0.80992 0.71417 0.0
C4840 C 0.77185 0.7924 0.71453 0.0
C4841 C 0.76971 0.81842 0.69783 0.0
C4842 C 0.77402 0.80952 0.68144 0.0
C4843 C 0.77708 0.79197 0.68159 0.0
C4844 C 0.77622 0.78358 0.69801 0.0
C4845 C 0.77592 0.8188 0.66435 0.0
C4846 C 0.76229 0.81474 0.64927 0.0
C4847 C 0.79093 0.8321 0.66321 0.0
C4848 C 0.80622 0.83626 0.67806 0.0
C4849 C 0.81693 0.82348 0.68139 0.0
C4850 C 0.83229 0.82794 0.69429 0.0
C4851 C 0.83695 0.8451 0.70403 0.0
C4852 C 0.82622 0.85781 0.70092 0.0
C4853 C 0.81095 0.85347 0.68789 0.0
H4854 H 0.84883 0.84851 0.71403 0.0
H4855 H 0.70818 0.80881 0.57854 0.0
H4856 H 0.7617 0.47036 0.50726 0.0
H4857 H 0.73756 0.48603 0.51388 0.0
H4858 H 0.69992 0.43616 0.50378 0.0
H4859 H 0.7242 0.42013 0.49732 0.0
H4860 H 0.69002 0.46849 0.48735 0.0
H4861 H 0.71115 0.44735 0.54493 0.0
H4862 H 0.73375 0.44301 0.56999 0.0
H4863 H 0.75014 0.49987 0.58266 0.0
H4864 H 0.72784 0.50455 0.55744 0.0
H4865 H 0.62158 0.48898 0.54185 0.0
H4866 H 0.64311 0.47806 0.52266 0.0
H4867 H 0.68244 0.52506 0.54415 0.0
H4868 H 0.661 0.53574 0.56354 0.0
H4869 H 0.69198 0.49478 0.55332 0.0
H4870 H 0.67084 0.51668 0.49733 0.0
H4871 H 0.65037 0.52212 0.47082 0.0
H4872 H 0.63509 0.46559 0.4545 0.0
H4873 H 0.65534 0.4598 0.48101 0.0
C4874 C 0.74825 0.46273 0.50616 0.0
C4875 C 0.7447 0.44406 0.50192 0.0
C4876 C 0.73457 0.47169 0.50996 0.0
C4877 C 0.71723 0.46209 0.50942 0.0
C4878 C 0.71338 0.4436 0.50422 0.0
C4879 C 0.72716 0.43454 0.50059 0.0
C4880 C 0.70341 0.47144 0.51539 0.0
C4881 C 0.69013 0.47406 0.50179 0.0
C4882 C 0.70432 0.4791 0.53412 0.0
C4883 C 0.71797 0.47629 0.5491 0.0
C4884 C 0.71973 0.45893 0.55287 0.0
C4885 C 0.73245 0.45641 0.56716 0.0
C4886 C 0.74342 0.47115 0.57787 0.0
C4887 C 0.74167 0.48846 0.57433 0.0
C4888 C 0.72899 0.49105 0.56004 0.0
C4889 C 0.63475 0.49703 0.54207 0.0
C4890 C 0.64006 0.51283 0.55428 0.0
C4891 C 0.64687 0.49099 0.53097 0.0
C4892 C 0.66426 0.50083 0.53204 0.0
C4893 C 0.66902 0.51739 0.54316 0.0
C4894 C 0.65694 0.52335 0.55432 0.0
C4895 C 0.67833 0.49205 0.52524 0.0
C4896 C 0.69174 0.48938 0.53879 0.0
C4897 C 0.67753 0.48445 0.50647 0.0
C4898 C 0.66443 0.48781 0.49132 0.0
C4899 C 0.66288 0.5054 0.48828 0.0
C4900 C 0.65139 0.50855 0.47319 0.0
C4901 C 0.64138 0.49421 0.46103 0.0
C4902 C 0.64281 0.47669 0.46396 0.0
C4903 C 0.6543 0.47347 0.47901 0.0
H4904 H 0.63257 0.49669 0.4493 0.0
H4905 H 0.75322 0.46917 0.58895 0.0
H4906 H 0.20284 0.16469 0.50117 0.0
H4907 H 0.17414 0.14441 0.49984 0.0
H4908 H 0.20154 0.10066 0.5089 0.0
H4909 H 0.23029 0.12085 0.5101 0.0
H4910 H 0.17274 0.09022 0.48261 0.0
H4911 H 0.18521 0.12137 0.54472 0.0
H4912 H 0.19277 0.14759 0.56868 0.0
H4913 H 0.14537 0.16601 0.54842 0.0
H4914 H 0.13766 0.14003 0.52414 0.0
H4915 H 0.10111 0.0371 0.52537 0.0
H4916 H 0.12971 0.05555 0.52142 0.0
H4917 H 0.10212 0.09056 0.49122 0.0
H4918 H 0.07353 0.07169 0.49401 0.0
H4919 H 0.13067 0.10481 0.52745 0.0
H4920 H 0.11868 0.07325 0.46484 0.0
H4921 H 0.11103 0.04618 0.44203 0.0
H4922 H 0.15773 0.02781 0.46446 0.0
H4923 H 0.16544 0.05462 0.48772 0.0
C4924 C 0.20275 0.15072 0.50274 0.0
C4925 C 0.21881 0.14439 0.50587 0.0
C4926 C 0.18634 0.13916 0.50204 0.0
C4927 C 0.1857 0.12106 0.5045 0.0
C4928 C 0.20172 0.11458 0.507 0.0
C4929 C 0.21814 0.12615 0.50776 0.0
C4930 C 0.16834 0.10905 0.50514 0.0
C4931 C 0.16363 0.09335 0.49253 0.0
C4932 C 0.15633 0.11319 0.51795 0.0
C4933 C 0.16097 0.12887 0.53248 0.0
C4934 C 0.17649 0.1311 0.54526 0.0
C4935 C 0.18078 0.1459 0.55892 0.0
C4936 C 0.16959 0.15849 0.56003 0.0
C4937 C 0.15405 0.15627 0.54751 0.0
C4938 C 0.14971 0.14151 0.5338 0.0
C4939 C 0.10108 0.04838 0.51739 0.0
C4940 C 0.08496 0.05265 0.50968 0.0
C4941 C 0.11745 0.05899 0.51529 0.0
C4942 C 0.11794 0.07427 0.5059 0.0
C4943 C 0.10195 0.0787 0.49837 0.0
C4944 C 0.08563 0.06787 0.50001 0.0
C4945 C 0.1351 0.08621 0.50486 0.0
C4946 C 0.13979 0.1018 0.51749 0.0
C4947 C 0.14707 0.08192 0.49216 0.0
C4948 C 0.14247 0.06579 0.47823 0.0
C4949 C 0.12718 0.06331 0.46511 0.0
C4950 C 0.12286 0.04804 0.45205 0.0
C4951 C 0.13384 0.03524 0.45185 0.0
C4952 C 0.14919 0.03771 0.46468 0.0
C4953 C 0.15354 0.05294 0.47781 0.0
H4954 H 0.13049 0.02344 0.44171 0.0
H4955 H 0.17293 0.16993 0.57063 0.0
H4956 H 0.18585 0.0168 0.78062 0.0
H4957 H 0.20209 0.99214 0.77708 0.0
H4958 H 0.15364 0.9544 0.77924 0.0
H4959 H 0.13715 0.97917 0.78277 0.0
H4960 H 0.18415 0.94687 0.80087 0.0
H4961 H 0.16641 0.95848 0.73851 0.0
H4962 H 0.16269 0.97665 0.71242 0.0
H4963 H 0.21954 0.99323 0.7159 0.0
H4964 H 0.22359 0.97538 0.74222 0.0
H4965 H 0.22116 0.87317 0.75784 0.0
H4966 H 0.20305 0.89454 0.76952 0.0
H4967 H 0.24577 0.93822 0.76469 0.0
H4968 H 0.26363 0.91699 0.75283 0.0
H4969 H 0.21531 0.94059 0.74406 0.0
H4970 H 0.23303 0.92934 0.80707 0.0
H4971 H 0.23658 0.91087 0.83292 0.0
H4972 H 0.17981 0.89299 0.82788 0.0
H4973 H 0.17594 0.91117 0.8018 0.0
C4974 C 0.17863 1.00327 0.78041 0.0
C4975 C 0.16021 0.99989 0.78184 0.0
C4976 C 0.18793 0.9892 0.77837 0.0
C4977 C 0.17901 0.97148 0.77776 0.0
C4978 C 0.16071 0.96802 0.77968 0.0
C4979 C 0.15133 0.98214 0.78159 0.0
C4980 C 0.18889 0.95668 0.77443 0.0
C4981 C 0.19077 0.94526 0.78833 0.0
C4982 C 0.19766 0.95481 0.75818 0.0
C4983 C 0.19528 0.96572 0.74246 0.0
C4984 C 0.17811 0.96614 0.73384 0.0
C4985 C 0.17595 0.97636 0.71898 0.0
C4986 C 0.19087 0.98612 0.71253 0.0
C4987 C 0.20799 0.98568 0.72092 0.0
C4988 C 0.21023 0.97551 0.7358 0.0
C4989 C 0.22684 0.88731 0.75996 0.0
C4990 C 0.24367 0.89355 0.75442 0.0
C4991 C 0.21651 0.89949 0.76657 0.0
C4992 C 0.22304 0.91797 0.76781 0.0
C4993 C 0.24046 0.92403 0.76373 0.0
C4994 C 0.25067 0.91193 0.75705 0.0
C4995 C 0.21111 0.93105 0.77076 0.0
C4996 C 0.20871 0.94211 0.75662 0.0
C4997 C 0.20189 0.93248 0.78675 0.0
C4998 C 0.20422 0.92145 0.80233 0.0
C4999 C 0.22132 0.92132 0.81133 0.0
C5000 C 0.22338 0.91094 0.82606 0.0
C5001 C 0.20844 0.90072 0.832 0.0
C5002 C 0.19138 0.90089 0.82324 0.0
C5003 C 0.18924 0.91124 0.80849 0.0
H5004 H 0.21006 0.8927 0.84341 0.0
H5005 H 0.18917 0.994 0.70101 0.0
H5006 H 0.35033 0.92554 0.98923 0.0
H5007 H 0.38058 0.9431 0.99303 0.0
H5008 H 0.36186 0.98779 0.02065 0.0
H5009 H 0.33153 0.9705 0.01653 0.0
H5010 H 0.38402 0.99689 0.99377 0.0
H5011 H 0.38248 0.96002 0.04609 0.0
H5012 H 0.3778 0.93093 0.05882 0.0
H5013 H 0.41752 0.91389 0.02678 0.0
H5014 H 0.42228 0.94278 0.01371 0.0
H5015 H 0.46846 0.0482 0.01973 0.0
H5016 H 0.43918 0.03206 0.02544 0.0
H5017 H 0.4539 0.98214 0.00522 0.0
H5018 H 0.48321 0.99816 1.00047 0.0
H5019 H 0.43328 0.9766 0.03084 0.0
H5020 H 0.43396 0.00702 0.97574 0.0
H5021 H 0.43965 0.03296 0.95784 0.0
H5022 H 0.40272 0.05802 0.9873 0.0
H5023 H 0.39709 0.03236 0.00565 0.0
C5024 C 0.35271 0.93912 0.99607 0.0
C5025 C 0.33878 0.94672 0.00274 0.0
C5026 C 0.36991 0.94905 0.99827 0.0
C5027 C 0.37329 0.9665 0.00741 0.0
C5028 C 0.35934 0.97425 0.01368 0.0
C5029 C 0.34212 0.9644 0.01133 0.0
C5030 C 0.39141 0.97681 0.01043 0.0
C5031 C 0.39478 0.99269 0.00214 0.0
C5032 C 0.40538 0.97074 0.02071 0.0
C5033 C 0.40267 0.95352 0.02888 0.0
C5034 C 0.39016 0.95004 0.04172 0.0
C5035 C 0.3875 0.93359 0.04899 0.0
C5036 C 0.39734 0.92056 0.0436 0.0
C5037 C 0.40991 0.92398 0.03096 0.0
C5038 C 0.41261 0.94039 0.02364 0.0
C5039 C 0.46542 0.03374 0.0171 0.0
C5040 C 0.47763 0.02418 0.00973 0.0
C5041 C 0.44888 0.02459 0.02031 0.0
C5042 C 0.44442 0.00603 0.01538 0.0
C5043 C 0.45719 0.99647 0.00915 0.0
C5044 C 0.47381 0.00556 0.00637 0.0
C5045 C 0.42593 0.99676 0.01424 0.0
C5046 C 0.42248 0.98103 0.02278 0.0
C5047 C 0.41204 1.00251 0.00341 0.0
C5048 C 0.41529 0.01789 0.99226 0.0
C5049 C 0.42717 0.01813 0.97851 0.0
C5050 C 0.43038 0.03277 0.96827 0.0
C5051 C 0.4216 0.04716 0.97147 0.0
C5052 C 0.40955 0.04689 0.98488 0.0
C5053 C 0.40636 0.03231 0.99521 0.0
H5054 H 0.4241 0.05848 0.96353 0.0
H5055 H 0.39524 0.90783 0.04923 0.0
H5056 H 0.84691 0.54731 0.7768 0.0
H5057 H 0.83116 0.57163 0.77076 0.0
H5058 H 0.87229 0.60895 0.80653 0.0
H5059 H 0.88848 0.58456 0.81246 0.0
H5060 H 0.83143 0.60931 0.80938 0.0
H5061 H 0.87787 0.61292 0.76818 0.0
H5062 H 0.89589 0.60094 0.7452 0.0
H5063 H 0.84862 0.58164 0.70662 0.0
H5064 H 0.83026 0.59316 0.72954 0.0
H5065 H 0.80698 0.68526 0.76682 0.0
H5066 H 0.81949 0.66337 0.78418 0.0
H5067 H 0.79482 0.62147 0.74029 0.0
H5068 H 0.78277 0.64339 0.72271 0.0
H5069 H 0.83035 0.6261 0.74454 0.0
H5070 H 0.78345 0.62079 0.78432 0.0
H5071 H 0.76381 0.62979 0.8072 0.0
H5072 H 0.8094 0.65005 0.84779 0.0
H5073 H 0.82935 0.64143 0.82506 0.0
C5074 C 0.85252 0.56065 0.78356 0.0
C5075 C 0.8689 0.56422 0.79499 0.0
C5076 C 0.84353 0.57444 0.78011 0.0
C5077 C 0.85074 0.59186 0.7882 0.0
C5078 C 0.86669 0.59544 0.80026 0.0
C5079 C 0.87589 0.58163 0.80351 0.0
C5080 C 0.84189 0.6063 0.78286 0.0
C5081 C 0.83139 0.61342 0.79537 0.0
C5082 C 0.84166 0.61092 0.7644 0.0
C5083 C 0.85267 0.60373 0.75069 0.0
C5084 C 0.87128 0.6059 0.75491 0.0
C5085 C 0.88157 0.59924 0.74186 0.0
C5086 C 0.8734 0.59049 0.72448 0.0
C5087 C 0.85493 0.58838 0.7201 0.0
C5088 C 0.84458 0.59498 0.73312 0.0
C5089 C 0.804 0.67129 0.76114 0.0
C5090 C 0.79441 0.66587 0.74332 0.0
C5091 C 0.81093 0.65884 0.77113 0.0
C5092 C 0.80806 0.64092 0.76342 0.0
C5093 C 0.79716 0.63531 0.74636 0.0
C5094 C 0.79049 0.64777 0.73626 0.0
C5095 C 0.81925 0.6289 0.77084 0.0
C5096 C 0.8304 0.62229 0.75867 0.0
C5097 C 0.81984 0.62467 0.78953 0.0
C5098 C 0.80792 0.63073 0.80285 0.0
C5099 C 0.78932 0.62746 0.798 0.0
C5100 C 0.77812 0.63241 0.81099 0.0
C5101 C 0.78536 0.64056 0.82891 0.0
C5102 C 0.80382 0.6438 0.83388 0.0
C5103 C 0.81507 0.63889 0.82094 0.0
H5104 H 0.77666 0.6443 0.83897 0.0
H5105 H 0.88139 0.58538 0.71438 0.0
H5106 H 0.83098 0.67456 0.02378 0.0
H5107 H 0.85506 0.65736 0.02742 0.0
H5108 H 0.81774 0.60876 0.0069 0.0
H5109 H 0.79368 0.62578 0.00327 0.0
H5110 H 0.83738 0.60686 0.04046 0.0
H5111 H 0.84787 0.62635 0.97988 0.0
H5112 H 0.85387 0.64892 0.95792 0.0
H5113 H 0.90267 0.67307 0.99221 0.0
H5114 H 0.89683 0.6508 0.01454 0.0
H5115 H 0.89276 0.54493 0.03685 0.0
H5116 H 0.87237 0.56384 0.02529 0.0
H5117 H 0.91388 0.61048 0.04033 0.0
H5118 H 0.93463 0.59125 0.05075 0.0
H5119 H 0.89319 0.61475 0.00993 0.0
H5120 H 0.88353 0.59792 0.07083 0.0
H5121 H 0.87899 0.5765 0.09419 0.0
H5122 H 0.82999 0.54966 0.0619 0.0
H5123 H 0.83437 0.57079 0.03819 0.0
C5124 C 0.82798 0.66024 0.01988 0.0
C5125 C 0.81047 0.65149 0.0133 0.0
C5126 C 0.84173 0.65046 0.02188 0.0
C5127 C 0.83815 0.63183 0.01733 0.0
C5128 C 0.82075 0.62314 0.01045 0.0
C5129 C 0.80704 0.63289 0.00837 0.0
C5130 C 0.85219 0.62114 0.0209 0.0
C5131 C 0.84947 0.60842 0.03359 0.0
C5132 C 0.86825 0.62373 0.01248 0.0
C5133 C 0.87182 0.63702 0.99898 0.0
C5134 C 0.85981 0.63656 0.98282 0.0
C5135 C 0.86319 0.64929 0.97029 0.0
C5136 C 0.87862 0.66245 0.97369 0.0
C5137 C 0.89072 0.66288 0.98961 0.0
C5138 C 0.88738 0.6502 0.00219 0.0
C5139 C 0.89752 0.55918 0.03737 0.0
C5140 C 0.91498 0.56682 0.04499 0.0
C5141 C 0.88594 0.56997 0.03082 0.0
C5142 C 0.89146 0.58862 0.03251 0.0
C5143 C 0.90931 0.59614 0.03906 0.0
C5144 C 0.92107 0.58524 0.04514 0.0
C5145 C 0.87815 0.60021 0.02918 0.0
C5146 C 0.88107 0.61318 0.01674 0.0
C5147 C 0.86238 0.59817 0.03812 0.0
C5148 C 0.85932 0.58588 0.0527 0.0
C5149 C 0.8718 0.58744 0.06871 0.0
C5150 C 0.86927 0.57533 0.082 0.0
C5151 C 0.85422 0.56171 0.07952 0.0
C5152 C 0.84163 0.56022 0.0638 0.0
C5153 C 0.84412 0.57227 0.05044 0.0
H5154 H 0.85231 0.55233 0.0898 0.0
H5155 H 0.88121 0.67229 0.96398 0.0
H5156 H 0.14561 0.1092 0.79322 0.0
H5157 H 0.1656 0.1381 0.79407 0.0
H5158 H 0.21086 0.11145 0.79397 0.0
H5159 H 0.19105 0.08269 0.79362 0.0
H5160 H 0.2194 0.14107 0.81717 0.0
H5161 H 0.19157 0.12554 0.75346 0.0
H5162 H 0.16632 0.11706 0.72842 0.0
H5163 H 0.14751 0.16543 0.74448 0.0
H5164 H 0.17254 0.17408 0.76977 0.0
H5165 H 0.27369 0.21005 0.76876 0.0
H5166 H 0.2543 0.18174 0.77241 0.0
H5167 H 0.22411 0.21005 0.80831 0.0
H5168 H 0.24395 0.23812 0.80582 0.0
H5169 H 0.20841 0.18025 0.76788 0.0
H5170 H 0.23549 0.19381 0.83394 0.0
H5171 H 0.26163 0.202 0.85791 0.0
H5172 H 0.28249 0.15659 0.83611 0.0
H5173 H 0.25663 0.14842 0.81167 0.0
C5174 C 0.15984 0.10955 0.79353 0.0
C5175 C 0.16673 0.09366 0.79327 0.0
C5176 C 0.17125 0.12606 0.79391 0.0
C5177 C 0.18975 0.12697 0.79379 0.0
C5178 C 0.19667 0.11114 0.79405 0.0
C5179 C 0.1853 0.09468 0.79379 0.0
C5180 C 0.2019 0.14428 0.7929 0.0
C5181 C 0.21697 0.14955 0.80632 0.0
C5182 C 0.19882 0.15551 0.77884 0.0
C5183 C 0.18382 0.15036 0.76361 0.0
C5184 C 0.18198 0.1343 0.75173 0.0
C5185 C 0.16772 0.12948 0.73748 0.0
C5186 C 0.15529 0.14068 0.7349 0.0
C5187 C 0.15713 0.15675 0.74652 0.0
C5188 C 0.17135 0.16163 0.7608 0.0
C5189 C 0.26318 0.21022 0.77776 0.0
C5190 C 0.26054 0.2264 0.78713 0.0
C5191 C 0.25207 0.19405 0.77974 0.0
C5192 C 0.23796 0.19384 0.79083 0.0
C5193 C 0.23512 0.20993 0.79995 0.0
C5194 C 0.24646 0.22598 0.7984 0.0
C5195 C 0.22561 0.17695 0.79217 0.0
C5196 C 0.21064 0.17175 0.77876 0.0
C5197 C 0.22878 0.1658 0.80618 0.0
C5198 C 0.24435 0.17074 0.82074 0.0
C5199 C 0.24581 0.18577 0.83403 0.0
C5200 C 0.26054 0.19037 0.84776 0.0
C5201 C 0.27377 0.17989 0.84846 0.0
C5202 C 0.27228 0.16476 0.83548 0.0
C5203 C 0.25761 0.16016 0.82167 0.0
H5204 H 0.28514 0.18343 0.85913 0.0
H5205 H 0.14426 0.13692 0.72386 0.0
H5206 H 0.34699 0.98045 0.31423 0.0
H5207 H 0.32915 0.95032 0.31191 0.0
H5208 H 0.36749 0.92965 0.28001 0.0
H5209 H 0.38565 0.95968 0.28263 0.0
H5210 H 0.32936 0.92287 0.26353 0.0
H5211 H 0.36844 0.91809 0.31828 0.0
H5212 H 0.38409 0.92712 0.35017 0.0
H5213 H 0.33382 0.92342 0.37263 0.0
H5214 H 0.31785 0.91467 0.34079 0.0
H5215 H 0.3101 0.82887 0.28509 0.0
H5216 H 0.32444 0.85855 0.27942 0.0
H5217 H 0.27652 0.87853 0.28964 0.0
H5218 H 0.26142 0.84825 0.29294 0.0
H5219 H 0.31784 0.88623 0.31579 0.0
H5220 H 0.2788 0.88989 0.25981 0.0
H5221 H 0.26421 0.88046 0.22762 0.0
H5222 H 0.31539 0.8873 0.20693 0.0
H5223 H 0.33032 0.89533 0.23913 0.0
C5224 C 0.35165 0.96942 0.30689 0.0
C5225 C 0.3675 0.97219 0.29847 0.0
C5226 C 0.34156 0.95234 0.30567 0.0
C5227 C 0.34718 0.93808 0.2958 0.0
C5228 C 0.36315 0.94071 0.28768 0.0
C5229 C 0.37343 0.95773 0.2892 0.0
C5230 C 0.33566 0.92061 0.29289 0.0
C5231 C 0.3269 0.91469 0.27484 0.0
C5232 C 0.33238 0.91049 0.30794 0.0
C5233 C 0.34194 0.916 0.32709 0.0
C5234 C 0.36071 0.91945 0.32997 0.0
C5235 C 0.36964 0.92445 0.34805 0.0
C5236 C 0.35995 0.92592 0.36341 0.0
C5237 C 0.34131 0.92234 0.36071 0.0
C5238 C 0.33231 0.91736 0.34265 0.0
C5239 C 0.30219 0.83921 0.28439 0.0
C5240 C 0.28452 0.83624 0.28839 0.0
C5241 C 0.31043 0.85619 0.2815 0.0
C5242 C 0.30124 0.87041 0.28353 0.0
C5243 C 0.28345 0.86746 0.28723 0.0
C5244 C 0.27499 0.85031 0.28933 0.0
C5245 C 0.31154 0.88844 0.28638 0.0
C5246 C 0.32015 0.89447 0.30448 0.0
C5247 C 0.31472 0.89858 0.27135 0.0
C5248 C 0.30572 0.89271 0.25203 0.0
C5249 C 0.28699 0.88869 0.24852 0.0
C5250 C 0.27863 0.8836 0.23021 0.0
C5251 C 0.28886 0.88292 0.21522 0.0
C5252 C 0.30746 0.88734 0.21853 0.0
C5253 C 0.31588 0.89206 0.23684 0.0
H5254 H 0.28237 0.87918 0.20103 0.0
H5255 H 0.36689 0.92976 0.3774 0.0
H5256 H 0.52875 0.34745 0.60221 0.0
H5257 H 0.52827 0.37719 0.59234 0.0
H5258 H 0.57828 0.37669 0.5699 0.0
H5259 H 0.57862 0.34658 0.57947 0.0
H5260 H 0.57762 0.41057 0.58997 0.0
H5261 H 0.54006 0.37111 0.54043 0.0
H5262 H 0.51516 0.34688 0.52698 0.0
H5263 H 0.47785 0.37578 0.55093 0.0
H5264 H 0.50257 0.4001 0.56472 0.0
H5265 H 0.57516 0.48966 0.5428 0.0
H5266 H 0.57749 0.4598 0.55159 0.0
H5267 H 0.52262 0.45165 0.56291 0.0
H5268 H 0.52032 0.48123 0.5541 0.0
H5269 H 0.5265 0.42171 0.54801 0.0
H5270 H 0.56231 0.46038 0.59845 0.0
H5271 H 0.58627 0.48471 0.61384 0.0
H5272 H 0.6256 0.45805 0.59081 0.0
H5273 H 0.60185 0.43365 0.57508 0.0
C5274 C 0.53966 0.35352 0.59507 0.0
C5275 C 0.55366 0.3442 0.59162 0.0
C5276 C 0.53936 0.37073 0.58936 0.0
C5277 C 0.55319 0.37963 0.58017 0.0
C5278 C 0.56735 0.37046 0.57691 0.0
C5279 C 0.56749 0.35303 0.58233 0.0
C5280 C 0.55266 0.39823 0.5739 0.0
C5281 C 0.56654 0.41286 0.58054 0.0
C5282 C 0.53806 0.40188 0.56205 0.0
C5283 C 0.52318 0.38734 0.55375 0.0
C5284 C 0.52655 0.37224 0.54294 0.0
C5285 C 0.51248 0.3585 0.53524 0.0
C5286 C 0.49494 0.35977 0.53814 0.0
C5287 C 0.49145 0.37481 0.54871 0.0
C5288 C 0.50548 0.38858 0.55646 0.0
C5289 C 0.56355 0.48155 0.54715 0.0
C5290 C 0.54742 0.48816 0.54732 0.0
C5291 C 0.56492 0.4643 0.55237 0.0
C5292 C 0.55029 0.45293 0.55825 0.0
C5293 C 0.53423 0.45963 0.55842 0.0
C5294 C 0.53288 0.47679 0.55321 0.0
C5295 C 0.55148 0.43422 0.56406 0.0
C5296 C 0.53766 0.41953 0.55739 0.0
C5297 C 0.566 0.4306 0.57614 0.0
C5298 C 0.5803 0.44527 0.58546 0.0
C5299 C 0.57606 0.45977 0.59656 0.0
C5300 C 0.5896 0.47355 0.60536 0.0
C5301 C 0.60744 0.47289 0.60332 0.0
C5302 C 0.61177 0.45851 0.59239 0.0
C5303 C 0.59828 0.4447 0.58354 0.0
H5304 H 0.61792 0.48346 0.61028 0.0
H5305 H 0.48406 0.34912 0.53216 0.0
H5306 H 0.46426 0.78322 0.38177 0.0
H5307 H 0.4357 0.78625 0.36499 0.0
H5308 H 0.4076 0.75933 0.40619 0.0
H5309 H 0.43627 0.75668 0.42335 0.0
H5310 H 0.39122 0.74713 0.36948 0.0
H5311 H 0.41053 0.80293 0.40709 0.0
H5312 H 0.43089 0.83089 0.42027 0.0
H5313 H 0.43252 0.84771 0.3652 0.0
H5314 H 0.41238 0.81968 0.35163 0.0
H5315 H 0.30585 0.76769 0.33732 0.0
H5316 H 0.33315 0.76395 0.35603 0.0
H5317 H 0.36463 0.79915 0.32353 0.0
H5318 H 0.33744 0.8036 0.30551 0.0
H5319 H 0.37896 0.8068 0.35722 0.0
H5320 H 0.35974 0.74981 0.3196 0.0
H5321 H 0.33953 0.72148 0.30726 0.0
H5322 H 0.33734 0.70684 0.36317 0.0
H5323 H 0.35735 0.7352 0.37587 0.0
C5324 C 0.45203 0.77787 0.38729 0.0
C5325 C 0.45276 0.76967 0.40402 0.0
C5326 C 0.43559 0.77969 0.37766 0.0
C5327 C 0.41921 0.77313 0.3842 0.0
C5328 C 0.41988 0.76456 0.40069 0.0
C5329 C 0.43637 0.76307 0.41057 0.0
C5330 C 0.40157 0.77537 0.37393 0.0
C5331 C 0.38849 0.76022 0.36703 0.0
C5332 C 0.3978 0.79235 0.37029 0.0
C5333 C 0.41013 0.8091 0.37831 0.0
C5334 C 0.4154 0.81249 0.39775 0.0
C5335 C 0.42686 0.82838 0.4053 0.0
C5336 C 0.43305 0.84105 0.39357 0.0
C5337 C 0.42776 0.83786 0.37426 0.0
C5338 C 0.41632 0.82198 0.36663 0.0
C5339 C 0.31856 0.77469 0.33413 0.0
C5340 C 0.31916 0.78584 0.31958 0.0
C5341 C 0.33434 0.77239 0.34481 0.0
C5342 C 0.35138 0.78094 0.3412 0.0
C5343 C 0.35192 0.79223 0.32681 0.0
C5344 C 0.33618 0.79466 0.31628 0.0
C5345 C 0.36858 0.7785 0.35242 0.0
C5346 C 0.38163 0.79366 0.35957 0.0
C5347 C 0.37228 0.76151 0.35631 0.0
C5348 C 0.35993 0.74468 0.34869 0.0
C5349 C 0.35482 0.74062 0.32928 0.0
C5350 C 0.34342 0.72454 0.32222 0.0
C5351 C 0.33719 0.71236 0.33444 0.0
C5352 C 0.34221 0.71628 0.35374 0.0
C5353 C 0.35357 0.73235 0.36087 0.0
H5354 H 0.32854 0.69982 0.32902 0.0
H5355 H 0.44189 0.85336 0.39945 0.0
H5356 H 0.06387 0.72902 0.11584 0.0
H5357 H 0.05987 0.69685 0.10608 0.0
H5358 H 0.02756 0.70305 0.05573 0.0
H5359 H 0.03203 0.73559 0.06523 0.0
H5360 H 0.01262 0.67247 0.07565 0.0
H5361 H 0.06737 0.69546 0.05114 0.0
H5362 H 0.09794 0.71283 0.05324 0.0
H5363 H 0.11556 0.68157 0.09532 0.0
H5364 H 0.08503 0.66417 0.09364 0.0
H5365 H 0.00667 0.58245 0.0339 0.0
H5366 H 0.01015 0.61486 0.04099 0.0
H5367 H 0.05712 0.61525 0.07929 0.0
H5368 H 0.05377 0.58281 0.07181 0.0
H5369 H 0.0642 0.6432 0.06468 0.0
H5370 H 0.01189 0.62129 0.09198 0.0
H5371 H 0.98171 0.60467 0.09431 0.0
H5372 H 0.95964 0.63356 0.05242 0.0
H5373 H 0.98975 0.65023 0.04967 0.0
C5374 C 0.05601 0.72366 0.10258 0.0
C5375 C 0.04843 0.73522 0.09133 0.0
C5376 C 0.0537 0.70509 0.09699 0.0
C5377 C 0.04337 0.69713 0.08008 0.0
C5378 C 0.03559 0.70859 0.06884 0.0
C5379 C 0.03827 0.72733 0.07424 0.0
C5380 C 0.04092 0.67701 0.0743 0.0
C5381 C 0.02387 0.66614 0.07292 0.0
C5382 C 0.05553 0.66828 0.07143 0.0
C5383 C 0.07389 0.67864 0.07238 0.0
C5384 C 0.07774 0.69239 0.06094 0.0
C5385 C 0.09506 0.70222 0.06204 0.0
C5386 C 0.10868 0.69834 0.07444 0.0
C5387 C 0.105 0.68458 0.08574 0.0
C5388 C 0.08769 0.67472 0.0847 0.0
C5389 C 0.01778 0.58939 0.04386 0.0
C5390 C 0.03008 0.57972 0.05201 0.0
C5391 C 0.01971 0.60814 0.04809 0.0
C5392 C 0.03378 0.61808 0.06108 0.0
C5393 C 0.04612 0.60837 0.06918 0.0
C5394 C 0.04429 0.58962 0.06476 0.0
C5395 C 0.0358 0.63839 0.06599 0.0
C5396 C 0.05282 0.64938 0.06728 0.0
C5397 C 0.02118 0.64715 0.06926 0.0
C5398 C 1.0031 0.63688 0.07049 0.0
C5399 C 1.00063 0.62398 0.08313 0.0
C5400 C 0.98353 0.61458 0.08455 0.0
C5401 C 0.96878 0.61805 0.07351 0.0
C5402 C 0.97109 0.63088 0.06096 0.0
C5403 C 0.98817 0.64032 0.05947 0.0
H5404 H 0.95555 0.61087 0.07478 0.0
H5405 H 0.12208 0.70597 0.07528 0.0
H5406 H 0.06781 0.28889 0.92938 0.0
H5407 H 0.09533 0.28959 0.91452 0.0
H5408 H 0.06688 0.25166 0.8689 0.0
H5409 H 0.03919 0.25103 0.88369 0.0
H5410 H 0.10013 0.24357 0.88075 0.0
H5411 H 0.07745 0.29488 0.86252 0.0
H5412 H 0.06621 0.32312 0.86735 0.0
H5413 H 0.11516 0.34762 0.90122 0.0
H5414 H 0.12659 0.31943 0.8968 0.0
H5415 H 0.16265 0.25896 0.81291 0.0
H5416 H 0.13779 0.25338 0.8319 0.0
H5417 H 0.16486 0.29615 0.87362 0.0
H5418 H 0.18959 0.30182 0.8544 0.0
H5419 H 0.13263 0.30111 0.86481 0.0
H5420 H 0.15625 0.25073 0.88233 0.0
H5421 H 0.16778 0.22259 0.87845 0.0
H5422 H 0.1181 0.1963 0.84711 0.0
H5423 H 0.10635 0.22436 0.85059 0.0
C5424 C 0.06736 0.28069 0.91617 0.0
C5425 C 0.05118 0.26998 0.90772 0.0
C5426 C 0.08316 0.28112 0.90764 0.0
C5427 C 0.08331 0.27077 0.89045 0.0
C5428 C 0.06723 0.2598 0.88213 0.0
C5429 C 0.05134 0.25952 0.89057 0.0
C5430 C 0.10014 0.27173 0.88106 0.0
C5431 C 0.10712 0.25611 0.87704 0.0
C5432 C 0.10969 0.28812 0.87665 0.0
C5433 C 0.10278 0.305 0.87951 0.0
C5434 C 0.08574 0.30624 0.87116 0.0
C5435 C 0.07936 0.32224 0.87379 0.0
C5436 C 0.08995 0.33713 0.88463 0.0
C5437 C 0.10696 0.33606 0.89285 0.0
C5438 C 0.1134 0.32008 0.89028 0.0
C5439 C 0.16359 0.26668 0.82649 0.0
C5440 C 0.17827 0.28057 0.83233 0.0
C5441 C 0.14929 0.26354 0.83737 0.0
C5442 C 0.14926 0.27429 0.85436 0.0
C5443 C 0.1644 0.28763 0.86062 0.0
C5444 C 0.17869 0.29074 0.84974 0.0
C5445 C 0.1328 0.27294 0.86449 0.0
C5446 C 0.1258 0.28852 0.86859 0.0
C5447 C 0.12335 0.25651 0.86904 0.0
C5448 C 0.13049 0.23972 0.86654 0.0
C5449 C 0.14785 0.23901 0.87442 0.0
C5450 C 0.15441 0.22306 0.87234 0.0
C5451 C 0.1437 0.20768 0.86249 0.0
C5452 C 0.1264 0.20823 0.85471 0.0
C5453 C 0.11977 0.22415 0.85674 0.0
H5454 H 0.14879 0.19534 0.86093 0.0
H5455 H 0.08499 0.34952 0.88663 0.0
H5456 H 0.51834 0.76494 0.90615 0.0
H5457 H 0.51749 0.73748 0.92117 0.0
H5458 H 0.56251 0.72613 0.8936 0.0
H5459 H 0.56244 0.75294 0.87749 0.0
H5460 H 0.54298 0.69638 0.89445 0.0
H5461 H 0.56426 0.74431 0.94375 0.0
H5462 H 0.56339 0.77254 0.96301 0.0
H5463 H 0.51331 0.74916 0.98038 0.0
H5464 H 0.51379 0.72087 0.96105 0.0
H5465 H 0.54841 0.62466 0.95239 0.0
H5466 H 0.55676 0.65265 0.93828 0.0
H5467 H 0.5119 0.67204 0.95923 0.0
H5468 H 0.50431 0.64492 0.97395 0.0
H5469 H 0.53656 0.69831 0.96232 0.0
H5470 H 0.51466 0.65087 0.91026 0.0
H5471 H 0.51613 0.62304 0.89057 0.0
H5472 H 0.56871 0.64565 0.87882 0.0
H5473 H 0.56761 0.67353 0.89861 0.0
C5474 C 0.52808 0.75661 0.90333 0.0
C5475 C 0.54056 0.76129 0.89075 0.0
C5476 C 0.52771 0.74089 0.91207 0.0
C5477 C 0.54031 0.72973 0.90915 0.0
C5478 C 0.55266 0.73435 0.89635 0.0
C5479 C 0.55268 0.7498 0.88717 0.0
C5480 C 0.54057 0.71336 0.91937 0.0
C5481 C 0.5418 0.69693 0.90936 0.0
C5482 C 0.53908 0.7137 0.93888 0.0
C5483 C 0.53902 0.73053 0.95088 0.0
C5484 C 0.55306 0.74522 0.95165 0.0
C5485 C 0.55262 0.76123 0.96257 0.0
C5486 C 0.53829 0.76266 0.97289 0.0
C5487 C 0.5244 0.74805 0.97238 0.0
C5488 C 0.52476 0.73202 0.96148 0.0
C5489 C 0.54063 0.63512 0.9543 0.0
C5490 C 0.52555 0.63241 0.96415 0.0
C5491 C 0.54522 0.65105 0.94595 0.0
C5492 C 0.53471 0.66452 0.94712 0.0
C5493 C 0.52026 0.66204 0.95784 0.0
C5494 C 0.51585 0.64638 0.96626 0.0
C5495 C 0.53814 0.68117 0.93728 0.0
C5496 C 0.5378 0.69775 0.94742 0.0
C5497 C 0.54055 0.68094 0.91796 0.0
C5498 C 0.54113 0.66418 0.90608 0.0
C5499 C 0.52657 0.64985 0.90357 0.0
C5500 C 0.52733 0.63408 0.89238 0.0
C5501 C 0.54252 0.63256 0.8835 0.0
C5502 C 0.55697 0.64682 0.88574 0.0
C5503 C 0.55628 0.66261 0.89693 0.0
H5504 H 0.54309 0.62034 0.87484 0.0
H5505 H 0.53796 0.77508 0.9813 0.0
H5506 H 0.07339 0.73582 0.7074 0.0
H5507 H 0.10573 0.73955 0.71563 0.0
H5508 H 0.1102 0.79677 0.71912 0.0
H5509 H 0.07789 0.79301 0.71029 0.0
H5510 H 0.13738 0.7893 0.7035 0.0
H5511 H 0.11389 0.77153 0.75943 0.0
H5512 H 0.09523 0.75256 0.77853 0.0
H5513 H 0.12019 0.70827 0.7621 0.0
H5514 H 0.13885 0.72693 0.74271 0.0
H5515 H 0.22773 0.8089 0.7482 0.0
H5516 H 0.19551 0.8061 0.74035 0.0
H5517 H 0.18947 0.74873 0.73656 0.0
H5518 H 0.22161 0.7517 0.74462 0.0
H5519 H 0.16314 0.75698 0.75266 0.0
H5520 H 0.18659 0.77488 0.69647 0.0
H5521 H 0.20581 0.79424 0.67818 0.0
H5522 H 0.18142 0.83863 0.69569 0.0
H5523 H 0.16219 0.81957 0.71426 0.0
C5524 C 0.08118 0.74924 0.71011 0.0
C5525 C 0.07272 0.76408 0.70833 0.0
C5526 C 0.09986 0.7514 0.71491 0.0
C5527 C 0.11087 0.76853 0.71843 0.0
C5528 C 0.10238 0.78336 0.71659 0.0
C5529 C 0.08372 0.78119 0.71162 0.0
C5530 C 0.13104 0.77095 0.72381 0.0
C5531 C 0.14289 0.78235 0.71444 0.0
C5532 C 0.1388 0.76181 0.73785 0.0
C5533 C 0.12762 0.75057 0.74948 0.0
C5534 C 0.1153 0.75771 0.75979 0.0
C5535 C 0.10474 0.74702 0.77068 0.0
C5536 C 0.10649 0.7292 0.77149 0.0
C5537 C 0.11883 0.72206 0.76144 0.0
C5538 C 0.12941 0.73269 0.75051 0.0
C5539 C 0.21963 0.79562 0.74566 0.0
C5540 C 0.22766 0.78042 0.74728 0.0
C5541 C 0.201 0.79402 0.74101 0.0
C5542 C 0.18958 0.77714 0.73747 0.0
C5543 C 0.19759 0.762 0.73917 0.0
C5544 C 0.21619 0.76365 0.74391 0.0
C5545 C 0.16946 0.77517 0.73225 0.0
C5546 C 0.15763 0.76389 0.74168 0.0
C5547 C 0.16176 0.78444 0.71829 0.0
C5548 C 0.17305 0.79583 0.70686 0.0
C5549 C 0.18538 0.78879 0.69647 0.0
C5550 C 0.19627 0.7997 0.68606 0.0
C5551 C 0.19486 0.81766 0.68581 0.0
C5552 C 0.1825 0.82472 0.69591 0.0
C5553 C 0.17159 0.81386 0.70636 0.0
H5554 H 0.20332 0.8261 0.67776 0.0
H5555 H 0.0983 0.72095 0.77993 0.0
H5556 H 0.01836 0.34842 0.40829 0.0
H5557 H 0.01548 0.37737 0.42448 0.0
H5558 H 0.06208 0.40287 0.40177 0.0
H5559 H 0.06454 0.37398 0.38482 0.0
H5560 H 0.06137 0.41243 0.44273 0.0
H5561 H 0.0269 0.41158 0.38416 0.0
H5562 H 1.00393 0.40017 0.35739 0.0
H5563 H 0.96293 0.39897 0.39414 0.0
H5564 H 0.98571 0.41006 0.42123 0.0
H5565 H 0.05025 0.5042 0.46773 0.0
H5566 H 0.05428 0.47635 0.44985 0.0
H5567 H 0.00693 0.44804 0.46896 0.0
H5568 H 1.00319 0.4756 0.4873 0.0
H5569 H 0.00867 0.44064 0.42879 0.0
H5570 H 0.04362 0.4364 0.48746 0.0
H5571 H 0.06693 0.4458 0.51441 0.0
H5572 H 0.1065 0.45764 0.4769 0.0
H5573 H 0.08356 0.44753 0.4497 0.0
C5574 C 0.02803 0.36017 0.4067 0.0
C5575 C 0.04174 0.35872 0.39521 0.0
C5576 C 0.02632 0.37681 0.41597 0.0
C5577 C 0.03853 0.39253 0.41448 0.0
C5578 C 0.05243 0.39108 0.40325 0.0
C5579 C 0.05383 0.3745 0.3935 0.0
C5580 C 0.0368 0.4103 0.42476 0.0
C5581 C 0.04996 0.41869 0.4394 0.0
C5582 C 0.02179 0.41855 0.42091 0.0
C5583 C 0.00805 0.41138 0.40479 0.0
C5584 C 0.01301 0.40861 0.3866 0.0
C5585 C 1.00002 0.40227 0.37134 0.0
C5586 C 0.98199 0.39878 0.37407 0.0
C5587 C 0.97692 0.40163 0.39206 0.0
C5588 C 0.98987 0.40794 0.40737 0.0
C5589 C 0.04067 0.49206 0.46812 0.0
C5590 C 0.02638 0.49231 0.47905 0.0
C5591 C 0.04304 0.47605 0.45793 0.0
C5592 C 0.03095 0.45985 0.45795 0.0
C5593 C 0.0165 0.46018 0.46859 0.0
C5594 C 0.0144 0.47605 0.47915 0.0
C5595 C 0.0332 0.4427 0.44679 0.0
C5596 C 0.02011 0.43441 0.43202 0.0
C5597 C 0.04827 0.43454 0.45045 0.0
C5598 C 0.06188 0.4415 0.46661 0.0
C5599 C 0.05727 0.44121 0.48499 0.0
C5600 C 0.0704 0.44659 0.50029 0.0
C5601 C 0.0881 0.45265 0.49739 0.0
C5602 C 0.09276 0.45307 0.47914 0.0
C5603 C 0.07974 0.44738 0.46377 0.0
H5604 H 0.09823 0.45684 0.50927 0.0
H5605 H 0.97194 0.39392 0.36223 0.0
H5606 H 0.45342 0.23418 0.18745 0.0
H5607 H 0.42379 0.23562 0.19673 0.0
H5608 H 0.44633 0.28156 0.23655 0.0
H5609 H 0.47623 0.27965 0.22771 0.0
H5610 H 0.42177 0.2637 0.25212 0.0
H5611 H 0.41952 0.28132 0.18954 0.0
H5612 H 0.4219 0.27796 0.15554 0.0
H5613 H 0.38232 0.22987 0.14839 0.0
H5614 H 0.37985 0.23284 0.18238 0.0
H5615 H 0.33827 0.28697 0.27022 0.0
H5616 H 0.36774 0.28616 0.26066 0.0
H5617 H 0.34516 0.24193 0.21872 0.0
H5618 H 0.31528 0.24385 0.22724 0.0
H5619 H 0.36981 0.25907 0.20412 0.0
H5620 H 0.37207 0.24045 0.2659 0.0
H5621 H 0.36899 0.24314 0.29976 0.0
H5622 H 0.40804 0.29166 0.30838 0.0
H5623 H 0.41119 0.28937 0.27453 0.0
C5624 C 0.45218 0.24458 0.19827 0.0
C5625 C 0.46755 0.25677 0.20674 0.0
C5626 C 0.43497 0.24555 0.20349 0.0
C5627 C 0.43218 0.25902 0.21716 0.0
C5628 C 0.44763 0.27102 0.22591 0.0
C5629 C 0.46492 0.26993 0.22081 0.0
C5630 C 0.41342 0.26046 0.22243 0.0
C5631 C 0.41055 0.26293 0.24149 0.0
C5632 C 0.39816 0.25899 0.20894 0.0
C5633 C 0.39963 0.25722 0.18852 0.0
C5634 C 0.41141 0.26998 0.18073 0.0
C5635 C 0.41276 0.26814 0.16146 0.0
C5636 C 0.4023 0.25368 0.14982 0.0
C5637 C 0.39043 0.24105 0.15742 0.0
C5638 C 0.38904 0.24281 0.17668 0.0
C5639 C 0.33936 0.27724 0.25874 0.0
C5640 C 0.32391 0.26567 0.24952 0.0
C5641 C 0.35657 0.2765 0.25343 0.0
C5642 C 0.35937 0.26362 0.23912 0.0
C5643 C 0.3439 0.25205 0.22983 0.0
C5644 C 0.32659 0.25309 0.23486 0.0
C5645 C 0.37814 0.26226 0.23381 0.0
C5646 C 0.38102 0.25982 0.21475 0.0
C5647 C 0.39338 0.26359 0.24729 0.0
C5648 C 0.39176 0.26481 0.26767 0.0
C5649 C 0.37995 0.25172 0.27502 0.0
C5650 C 0.37819 0.25318 0.2942 0.0
C5651 C 0.38828 0.26759 0.3062 0.0
C5652 C 0.40022 0.28052 0.29906 0.0
C5653 C 0.40202 0.27914 0.27989 0.0
H5654 H 0.38688 0.2687 0.32105 0.0
H5655 H 0.40337 0.25229 0.13491 0.0
H5656 H 0.62736 0.56642 0.34982 0.0
H5657 H 0.61667 0.56599 0.38063 0.0
H5658 H 0.5857 0.51314 0.36338 0.0
H5659 H 0.59537 0.51426 0.332 0.0
H5660 H 0.56708 0.52807 0.38293 0.0
H5661 H 0.62952 0.52563 0.39595 0.0
H5662 H 0.66212 0.53516 0.39698 0.0
H5663 H 0.65929 0.58511 0.4282 0.0
H5664 H 0.62667 0.57596 0.42718 0.0
H5665 H 0.56452 0.50865 0.48127 0.0
H5666 H 0.57512 0.5094 0.45003 0.0
H5667 H 0.57277 0.56546 0.45229 0.0
H5668 H 0.56119 0.56447 0.48289 0.0
H5669 H 0.60816 0.5486 0.4414 0.0
H5670 H 0.54495 0.55008 0.42713 0.0
H5671 H 0.51299 0.53854 0.42813 0.0
H5672 H 0.51838 0.48796 0.40008 0.0
H5673 H 0.55053 0.49908 0.39939 0.0
C5674 C 0.6182 0.55473 0.35258 0.0
C5675 C 0.61221 0.54038 0.3384 0.0
C5676 C 0.61223 0.55437 0.3704 0.0
C5677 C 0.60066 0.53931 0.37488 0.0
C5678 C 0.59461 0.52498 0.36058 0.0
C5679 C 0.60016 0.52558 0.34255 0.0
C5680 C 0.59446 0.53866 0.39415 0.0
C5681 C 0.57627 0.53235 0.3956 0.0
C5682 C 0.60609 0.54451 0.41108 0.0
C5683 C 0.62564 0.55018 0.41129 0.0
C5684 C 0.63584 0.53871 0.40287 0.0
C5685 C 0.65432 0.54403 0.4035 0.0
C5686 C 0.66276 0.56075 0.4126 0.0
C5687 C 0.65274 0.57218 0.42112 0.0
C5688 C 0.63426 0.56693 0.42053 0.0
C5689 C 0.56639 0.52112 0.4751 0.0
C5690 C 0.5623 0.53656 0.48458 0.0
C5691 C 0.57236 0.52153 0.45725 0.0
C5692 C 0.57475 0.53749 0.44879 0.0
C5693 C 0.57101 0.553 0.45848 0.0
C5694 C 0.56446 0.55243 0.47598 0.0
C5695 C 0.58109 0.53803 0.42984 0.0
C5696 C 0.5992 0.54428 0.42855 0.0
C5697 C 0.5695 0.53198 0.41312 0.0
C5698 C 0.55021 0.5253 0.41354 0.0
C5699 C 0.5394 0.5364 0.42148 0.0
C5700 C 0.52123 0.52996 0.42192 0.0
C5701 C 0.51367 0.5125 0.41426 0.0
C5702 C 0.52427 0.50146 0.40609 0.0
C5703 C 0.54247 0.50781 0.40569 0.0
H5704 H 0.49959 0.50754 0.41458 0.0
H5705 H 0.67707 0.56483 0.4131 0.0
H5706 H 0.30771 0.91584 0.0632 0.0
H5707 H 0.30581 0.90507 0.09377 0.0
H5708 H 0.26251 0.86251 0.06994 0.0
H5709 H 0.26426 0.87332 0.03901 0.0
H5710 H 0.25865 0.88132 0.10694 0.0
H5711 H 0.29944 0.85135 0.07456 0.0
H5712 H 0.32505 0.8496 0.05665 0.0
H5713 H 0.3602 0.88258 0.10144 0.0
H5714 H 0.33473 0.88481 0.11947 0.0
H5715 H 0.27628 0.81735 0.17191 0.0
H5716 H 0.2665 0.83515 0.14756 0.0
H5717 H 0.31124 0.87757 0.16755 0.0
H5718 H 0.32119 0.85958 0.19144 0.0
H5719 H 0.31224 0.85934 0.13255 0.0
H5720 H 0.27247 0.88732 0.16651 0.0
H5721 H 0.24724 0.89048 0.18452 0.0
H5722 H 0.21041 0.86252 0.13811 0.0
H5723 H 0.23545 0.85876 0.11996 0.0
C5724 C 0.29773 0.90422 0.06444 0.0
C5725 C 0.28623 0.89525 0.04879 0.0
C5726 C 0.29661 0.89819 0.08189 0.0
C5727 C 0.28403 0.88308 0.08392 0.0
C5728 C 0.27221 0.87428 0.06848 0.0
C5729 C 0.27337 0.8803 0.05089 0.0
C5730 C 0.28449 0.87573 0.10192 0.0
C5731 C 0.27017 0.87621 0.11258 0.0
C5732 C 0.29982 0.86965 0.10917 0.0
C5733 C 0.31514 0.86841 0.09827 0.0
C5734 C 0.31259 0.8584 0.0805 0.0
C5735 C 0.32709 0.85729 0.07034 0.0
C5736 C 0.34424 0.86602 0.07788 0.0
C5737 C 0.34691 0.87586 0.0956 0.0
C5738 C 0.33245 0.87705 0.10579 0.0
C5739 C 0.28367 0.83067 0.17125 0.0
C5740 C 0.29956 0.83722 0.18305 0.0
C5741 C 0.27795 0.8409 0.15766 0.0
C5742 C 0.28816 0.85762 0.15591 0.0
C5743 C 0.30315 0.86473 0.16889 0.0
C5744 C 0.30891 0.85448 0.18232 0.0
C5745 C 0.28647 0.86506 0.13797 0.0
C5746 C 0.30062 0.86444 0.12713 0.0
C5747 C 0.27098 0.87097 0.13073 0.0
C5748 C 0.25592 0.87251 0.14195 0.0
C5749 C 0.25903 0.88153 0.16025 0.0
C5750 C 0.24474 0.8835 0.17046 0.0
C5751 C 0.22723 0.87666 0.16249 0.0
C5752 C 0.22398 0.86777 0.1443 0.0
C5753 C 0.23823 0.8657 0.13404 0.0
H5754 H 0.21619 0.87829 0.17038 0.0
H5755 H 0.35545 0.86512 0.07001 0.0
H5756 H 0.94552 0.51807 0.84542 0.0
H5757 H 0.95705 0.51481 0.87753 0.0
H5758 H 0.90733 0.52366 0.89683 0.0
H5759 H 0.89585 0.52726 0.86496 0.0
H5760 H 0.93624 0.54485 0.91696 0.0
H5761 H 0.91716 0.4823 0.89607 0.0
H5762 H 0.91479 0.45497 0.87412 0.0
H5763 H 0.97178 0.45956 0.88156 0.0
H5764 H 0.97451 0.48701 0.90339 0.0
H5765 H 0.98221 0.54072 0.00619 0.0
H5766 H 0.95794 0.53417 0.98031 0.0
H5767 H 0.9935 0.51348 0.94436 0.0
H5768 H 0.01658 0.51773 0.97076 0.0
H5769 H 0.96344 0.49403 0.936 0.0
H5770 H 0.98379 0.55902 0.94776 0.0
H5771 H 0.98877 0.58837 0.96691 0.0
H5772 H 0.93296 0.5813 0.97368 0.0
H5773 H 0.92772 0.55183 0.95472 0.0
C5774 C 0.93711 0.51933 0.85653 0.0
C5775 C 0.91994 0.52311 0.85283 0.0
C5776 C 0.94358 0.51725 0.87476 0.0
C5777 C 0.93286 0.51873 0.88935 0.0
C5778 C 0.91568 0.52237 0.88565 0.0
C5779 C 0.90924 0.52454 0.8675 0.0
C5780 C 0.94025 0.51813 0.90876 0.0
C5781 C 0.94186 0.5336 0.92134 0.0
C5782 C 0.94767 0.50349 0.91418 0.0
C5783 C 0.94602 0.48673 0.90136 0.0
C5784 C 0.92919 0.47751 0.89298 0.0
C5785 C 0.92778 0.46199 0.88057 0.0
C5786 C 0.94312 0.45553 0.87645 0.0
C5787 C 0.9599 0.46455 0.88479 0.0
C5788 C 0.96138 0.48006 0.89723 0.0
C5789 C 0.98439 0.53409 0.99295 0.0
C5790 C 1.00081 0.52905 0.99055 0.0
C5791 C 0.97075 0.53071 0.97808 0.0
C5792 C 0.97391 0.52336 0.96036 0.0
C5793 C 0.9906 0.51886 0.95795 0.0
C5794 C 1.00389 0.52154 0.97296 0.0
C5795 C 0.96049 0.52125 0.94381 0.0
C5796 C 0.95748 0.50514 0.93183 0.0
C5797 C 0.95223 0.53553 0.93866 0.0
C5798 C 0.95542 0.55318 0.95007 0.0
C5799 C 0.97262 0.56371 0.95345 0.0
C5800 C 0.97548 0.58035 0.96424 0.0
C5801 C 0.9612 0.58666 0.97156 0.0
C5802 C 0.94402 0.57637 0.96805 0.0
C5803 C 0.94109 0.55971 0.95729 0.0
H5804 H 0.96344 0.59956 0.97991 0.0
H5805 H 0.94201 0.44354 0.8668 0.0
H5806 H 0.24483 0.20033 0.57144 0.0
H5807 H 0.24818 0.21116 0.60495 0.0
H5808 H 0.3054 0.22057 0.60588 0.0
H5809 H 0.3021 0.2102 0.5721 0.0
H5810 H 0.29041 0.20194 0.63772 0.0
H5811 H 0.29079 0.25499 0.60758 0.0
H5812 H 0.27971 0.273 0.58402 0.0
H5813 H 0.22946 0.26795 0.60669 0.0
H5814 H 0.24018 0.24963 0.63023 0.0
H5815 H 0.30969 0.25655 0.72729 0.0
H5816 H 0.30885 0.24451 0.6944 0.0
H5817 H 0.25192 0.24192 0.68655 0.0
H5818 H 0.25268 0.25361 0.71945 0.0
H5819 H 0.26827 0.25717 0.65799 0.0
H5820 H 0.2686 0.20449 0.68892 0.0
H5821 H 0.27968 0.1857 0.71167 0.0
H5822 H 0.32908 0.18972 0.6874 0.0
H5823 H 0.31839 0.20879 0.66467 0.0
C5824 C 0.25814 0.20482 0.57872 0.0
C5825 C 0.27318 0.2046 0.56898 0.0
C5826 C 0.26004 0.21094 0.59794 0.0
C5827 C 0.27705 0.21664 0.60806 0.0
C5828 C 0.29214 0.21618 0.59846 0.0
C5829 C 0.29023 0.21042 0.57909 0.0
C5830 C 0.27885 0.22377 0.62844 0.0
C5831 C 0.28584 0.21417 0.64216 0.0
C5832 C 0.27262 0.23953 0.63436 0.0
C5833 C 0.26622 0.25082 0.62054 0.0
C5834 C 0.27733 0.25762 0.60746 0.0
C5835 C 0.27113 0.26789 0.59412 0.0
C5836 C 0.25387 0.27159 0.59383 0.0
C5837 C 0.24282 0.26506 0.60693 0.0
C5838 C 0.24896 0.25475 0.62028 0.0
C5839 C 0.29695 0.25341 0.71861 0.0
C5840 C 0.28122 0.25627 0.72616 0.0
C5841 C 0.29649 0.24642 0.69974 0.0
C5842 C 0.28032 0.24224 0.68781 0.0
C5843 C 0.26461 0.24505 0.69532 0.0
C5844 C 0.26504 0.25175 0.71425 0.0
C5845 C 0.27977 0.23534 0.66746 0.0
C5846 C 0.27296 0.24499 0.65366 0.0
C5847 C 0.28627 0.21966 0.66154 0.0
C5848 C 0.29278 0.20826 0.67524 0.0
C5849 C 0.2819 0.20153 0.68855 0.0
C5850 C 0.2881 0.19079 0.70142 0.0
C5851 C 0.3051 0.18657 0.70102 0.0
C5852 C 0.31592 0.19304 0.68772 0.0
C5853 C 0.3098 0.20381 0.67484 0.0
H5854 H 0.30986 0.17824 0.71098 0.0
H5855 H 0.24908 0.27953 0.58348 0.0
H5856 H 0.5974 0.56055 0.23289 0.0
H5857 H 0.58692 0.55891 0.19944 0.0
H5858 H 0.60415 0.5084 0.18937 0.0
H5859 H 0.61497 0.51019 0.2227 0.0
H5860 H 0.61244 0.52748 0.16185 0.0
H5861 H 0.55921 0.51117 0.19043 0.0
H5862 H 0.53772 0.51449 0.2133 0.0
H5863 H 0.52922 0.56376 0.19313 0.0
H5864 H 0.55085 0.56084 0.17028 0.0
H5865 H 0.56009 0.50316 0.0706 0.0
H5866 H 0.57261 0.50374 0.10343 0.0
H5867 H 0.56267 0.55721 0.11542 0.0
H5868 H 0.55029 0.55652 0.08294 0.0
H5869 H 0.55082 0.53543 0.14162 0.0
H5870 H 0.60422 0.55036 0.11193 0.0
H5871 H 0.62542 0.54571 0.08909 0.0
H5872 H 0.63297 0.49695 0.11107 0.0
H5873 H 0.61156 0.50115 0.13384 0.0
C5874 C 0.59881 0.54901 0.22359 0.0
C5875 C 0.60683 0.5354 0.2306 0.0
C5876 C 0.59281 0.54807 0.20439 0.0
C5877 C 0.59448 0.5334 0.1917 0.0
C5878 C 0.60263 0.51987 0.19871 0.0
C5879 C 0.60868 0.52084 0.21787 0.0
C5880 C 0.58757 0.53207 0.17124 0.0
C5881 C 0.59888 0.52899 0.15747 0.0
C5882 C 0.56994 0.53417 0.16527 0.0
C5883 C 0.55675 0.53587 0.17877 0.0
C5884 C 0.55283 0.52276 0.19095 0.0
C5885 C 0.54062 0.52457 0.20389 0.0
C5886 C 0.53214 0.53935 0.2047 0.0
C5887 C 0.53581 0.55233 0.1925 0.0
C5888 C 0.54803 0.5506 0.17954 0.0
C5889 C 0.56064 0.51507 0.08023 0.0
C5890 C 0.55428 0.52997 0.07394 0.0
C5891 C 0.56789 0.51542 0.09901 0.0
C5892 C 0.56873 0.53058 0.11202 0.0
C5893 C 0.5623 0.54536 0.10575 0.0
C5894 C 0.55533 0.54507 0.08699 0.0
C5895 C 0.57571 0.53101 0.13227 0.0
C5896 C 0.56437 0.53389 0.14601 0.0
C5897 C 0.59323 0.52849 0.13813 0.0
C5898 C 0.60612 0.52596 0.12445 0.0
C5899 C 0.61026 0.53855 0.11177 0.0
C5900 C 0.62234 0.53602 0.09886 0.0
C5901 C 0.6305 0.52102 0.09859 0.0
C5902 C 0.62662 0.50854 0.11127 0.0
C5903 C 0.61451 0.511 0.12419 0.0
H5904 H 0.63986 0.51908 0.08859 0.0
H5905 H 0.5227 0.54073 0.21474 0.0
H5906 H 0.31186 0.88401 0.95193 0.0
H5907 H 0.31458 0.87328 0.91944 0.0
H5908 H 0.2675 0.89354 0.90072 0.0
H5909 H 0.26494 0.90474 0.93317 0.0
H5910 H 0.26823 0.85398 0.89571 0.0
H5911 H 0.29886 0.91142 0.88419 0.0
H5912 H 0.32199 0.93871 0.88996 0.0
H5913 H 0.36276 0.90715 0.88395 0.0
H5914 H 0.33989 0.87963 0.87842 0.0
H5915 H 0.2622 0.822 0.80096 0.0
H5916 H 0.26527 0.84373 0.82874 0.0
H5917 H 0.31485 0.82857 0.84881 0.0
H5918 H 0.31177 0.80655 0.82097 0.0
H5919 H 0.31338 0.86798 0.85167 0.0
H5920 H 0.28684 0.81244 0.87209 0.0
H5921 H 0.26638 0.7836 0.87096 0.0
H5922 H 0.22132 0.80972 0.86317 0.0
H5923 H 0.24163 0.83887 0.86484 0.0
C5924 C 0.30219 0.88626 0.94084 0.0
C5925 C 0.28797 0.89476 0.94486 0.0
C5926 C 0.30397 0.88049 0.92238 0.0
C5927 C 0.29139 0.88298 0.90793 0.0
C5928 C 0.27746 0.8919 0.91184 0.0
C5929 C 0.27588 0.898 0.93027 0.0
C5930 C 0.29067 0.87292 0.88961 0.0
C5931 C 0.2778 0.85728 0.88582 0.0
C5932 C 0.30383 0.87693 0.87747 0.0
C5933 C 0.31765 0.89343 0.8811 0.0
C5934 C 0.31277 0.91027 0.88434 0.0
C5935 C 0.32584 0.92579 0.8875 0.0
C5936 C 0.34384 0.92467 0.88738 0.0
C5937 C 0.34881 0.90801 0.88407 0.0
C5938 C 0.3358 0.89244 0.8809 0.0
C5939 C 0.2738 0.82342 0.81123 0.0
C5940 C 0.28674 0.81271 0.80911 0.0
C5941 C 0.27556 0.8358 0.82695 0.0
C5942 C 0.29027 0.83758 0.84055 0.0
C5943 C 0.30349 0.82728 0.83824 0.0
C5944 C 0.30164 0.8147 0.82258 0.0
C5945 C 0.29087 0.84923 0.85787 0.0
C5946 C 0.30368 0.86496 0.86148 0.0
C5947 C 0.278 0.84516 0.87026 0.0
C5948 C 0.2657 0.82771 0.86825 0.0
C5949 C 0.27256 0.81197 0.86988 0.0
C5950 C 0.261 0.79559 0.86924 0.0
C5951 C 0.24254 0.79475 0.86668 0.0
C5952 C 0.23562 0.81036 0.86501 0.0
C5953 C 0.24714 0.82684 0.86592 0.0
H5954 H 0.23361 0.78204 0.86615 0.0
H5955 H 0.35393 0.93671 0.8898 0.0
H5956 H 0.88938 0.51448 0.73286 0.0
H5957 H 0.89942 0.51592 0.70191 0.0
H5958 H 0.95307 0.53782 0.72744 0.0
H5959 H 0.943 0.53675 0.75865 0.0
H5960 H 0.94324 0.55562 0.69884 0.0
H5961 H 0.94117 0.49424 0.70971 0.0
H5962 H 0.92801 0.46413 0.71669 0.0
H5963 H 0.88891 0.45853 0.66859 0.0
H5964 H 0.90167 0.48874 0.66149 0.0
H5965 H 0.99757 0.52301 0.63441 0.0
H5966 H 0.98141 0.53462 0.65908 0.0
H5967 H 0.93223 0.52024 0.62195 0.0
H5968 H 0.94845 0.50888 0.59709 0.0
H5969 H 0.935 0.50111 0.65341 0.0
H5970 H 0.94125 0.56121 0.64009 0.0
H5971 H 0.95529 0.5912 0.63355 0.0
H5972 H 0.98845 0.59874 0.68627 0.0
H5973 H 0.97479 0.56874 0.69305 0.0
C5974 C 0.90333 0.51962 0.73191 0.0
C5975 C 0.91548 0.52551 0.7481 0.0
C5976 C 0.90902 0.52037 0.71422 0.0
C5977 C 0.92697 0.52683 0.71247 0.0
C5978 C 0.93913 0.53282 0.7286 0.0
C5979 C 0.93342 0.53214 0.74636 0.0
C5980 C 0.93306 0.52731 0.69375 0.0
C5981 C 0.94164 0.54371 0.68891 0.0
C5982 C 0.93023 0.51183 0.68065 0.0
C5983 C 0.9222 0.49387 0.68525 0.0
C5984 C 0.92961 0.48669 0.70077 0.0
C5985 C 0.92226 0.46958 0.70471 0.0
C5986 C 0.90758 0.45945 0.69313 0.0
C5987 C 0.90023 0.46641 0.67758 0.0
C5988 C 0.90751 0.48353 0.6736 0.0
C5989 C 0.9834 0.52285 0.6314 0.0
C5990 C 0.9741 0.51477 0.61414 0.0
C5991 C 0.97425 0.5297 0.64535 0.0
C5992 C 0.95568 0.5283 0.64224 0.0
C5993 C 0.9466 0.52158 0.62446 0.0
C5994 C 0.95582 0.51499 0.61039 0.0
C5995 C 0.94569 0.52935 0.65861 0.0
C5996 C 0.93634 0.51316 0.66312 0.0
C5997 C 0.94811 0.54494 0.67146 0.0
C5998 C 0.95708 0.56261 0.66699 0.0
C5999 C 0.95172 0.56914 0.65017 0.0
C6000 C 0.95956 0.58619 0.64646 0.0
C6001 C 0.97278 0.59685 0.65946 0.0
C6002 C 0.97822 0.59047 0.67619 0.0
C6003 C 0.97042 0.57345 0.67998 0.0
H6004 H 0.97879 0.61005 0.65659 0.0
H6005 H 0.90195 0.44619 0.69617 0.0
H6006 H 0.2468 0.21184 0.46055 0.0
H6007 H 0.24725 0.22019 0.42839 0.0
H6008 H 0.29478 0.19799 0.42305 0.0
H6009 H 0.2941 0.18919 0.4548 0.0
H6010 H 0.29677 0.23331 0.41214 0.0
H6011 H 0.25926 0.17559 0.40032 0.0
H6012 H 0.23374 0.15171 0.40279 0.0
H6013 H 0.19738 0.18485 0.38372 0.0
H6014 H 0.2227 0.20905 0.38141 0.0
H6015 H 0.29732 0.23401 0.31087 0.0
H6016 H 0.29678 0.22263 0.3418 0.0
H6017 H 0.25217 0.24812 0.35225 0.0
H6018 H 0.253 0.25989 0.32193 0.0
H6019 H 0.24897 0.20979 0.35983 0.0
H6020 H 0.28488 0.26898 0.38028 0.0
H6021 H 0.30956 0.29444 0.38031 0.0
H6022 H 0.34734 0.259 0.38249 0.0
H6023 H 0.32283 0.23342 0.38319 0.0
C6024 C 0.25737 0.20883 0.45253 0.0
C6025 C 0.27048 0.19997 0.4603 0.0
C6026 C 0.25754 0.21346 0.4341 0.0
C6027 C 0.27101 0.20963 0.42321 0.0
C6028 C 0.28423 0.20104 0.4311 0.0
C6029 C 0.28384 0.19606 0.44929 0.0
C6030 C 0.2718 0.21517 0.40391 0.0
C6031 C 0.28643 0.22789 0.40066 0.0
C6032 C 0.25816 0.20849 0.38893 0.0
C6033 C 0.24288 0.19424 0.39097 0.0
C6034 C 0.24582 0.1779 0.39694 0.0
C6035 C 0.23139 0.16427 0.39823 0.0
C6036 C 0.21395 0.16679 0.39349 0.0
C6037 C 0.2109 0.18294 0.38745 0.0
C6038 C 0.22529 0.19662 0.38614 0.0
C6039 C 0.28739 0.23709 0.31977 0.0
C6040 C 0.27526 0.24788 0.31398 0.0
C6041 C 0.28712 0.23067 0.33745 0.0
C6042 C 0.27443 0.23455 0.34939 0.0
C6043 C 0.26208 0.24496 0.34336 0.0
C6044 C 0.26262 0.25171 0.32601 0.0
C6045 C 0.27393 0.22786 0.36818 0.0
C6046 C 0.25936 0.21499 0.37131 0.0
C6047 C 0.2875 0.23444 0.38314 0.0
C6048 C 0.30209 0.24935 0.38149 0.0
C6049 C 0.29845 0.26664 0.38059 0.0
C6050 C 0.3124 0.28109 0.38067 0.0
C6051 C 0.33001 0.27832 0.3812 0.0
C6052 C 0.3337 0.26111 0.38195 0.0
C6053 C 0.3198 0.24665 0.38227 0.0
H6054 H 0.34078 0.28953 0.38111 0.0
H6055 H 0.2028 0.1562 0.39444 0.0
H6056 H 0.32696 0.63337 0.57071 0.0
H6057 H 0.3562 0.62482 0.57151 0.0
H6058 H 0.33363 0.57756 0.53324 0.0
H6059 H 0.30417 0.58586 0.53271 0.0
H6060 H 0.35632 0.57054 0.56063 0.0
H6061 H 0.35504 0.61505 0.51762 0.0
H6062 H 0.35239 0.64433 0.50708 0.0
H6063 H 0.39564 0.67004 0.54844 0.0
H6064 H 0.39839 0.64091 0.55939 0.0
H6065 H 0.41819 0.55422 0.4987 0.0
H6066 H 0.39407 0.56074 0.51669 0.0
H6067 H 0.43249 0.596 0.55751 0.0
H6068 H 0.45675 0.58912 0.53963 0.0
H6069 H 0.40559 0.61133 0.5383 0.0
H6070 H 0.4095 0.563 0.57509 0.0
H6071 H 0.41087 0.53248 0.5828 0.0
H6072 H 0.36137 0.51226 0.54799 0.0
H6073 H 0.35978 0.54259 0.53996 0.0
C6074 C 0.32822 0.62104 0.56265 0.0
C6075 C 0.31347 0.61023 0.55157 0.0
C6076 C 0.34489 0.61625 0.56308 0.0
C6077 C 0.34697 0.60075 0.55226 0.0
C6078 C 0.33213 0.58959 0.5417 0.0
C6079 C 0.3154 0.59429 0.5414 0.0
C6080 C 0.3647 0.59631 0.55141 0.0
C6081 C 0.36714 0.57939 0.5557 0.0
C6082 C 0.37883 0.60825 0.54562 0.0
C6083 C 0.3767 0.62585 0.53955 0.0
C6084 C 0.3638 0.62698 0.52466 0.0
C6085 C 0.36233 0.64354 0.51855 0.0
C6086 C 0.37378 0.65905 0.52714 0.0
C6087 C 0.38673 0.65803 0.54185 0.0
C6088 C 0.38824 0.6415 0.54802 0.0
C6089 C 0.42137 0.56333 0.51153 0.0
C6090 C 0.43899 0.57169 0.51763 0.0
C6091 C 0.40775 0.56672 0.52196 0.0
C6092 C 0.41167 0.5786 0.5385 0.0
C6093 C 0.42938 0.5866 0.54489 0.0
C6094 C 0.44307 0.58295 0.53459 0.0
C6095 C 0.39696 0.58518 0.54664 0.0
C6096 C 0.39502 0.60263 0.54379 0.0
C6097 C 0.38306 0.5735 0.55309 0.0
C6098 C 0.3846 0.55507 0.55684 0.0
C6099 C 0.39905 0.55201 0.56887 0.0
C6100 C 0.39981 0.53474 0.57337 0.0
C6101 C 0.38623 0.52044 0.56587 0.0
C6102 C 0.37189 0.52334 0.55379 0.0
C6103 C 0.37104 0.54057 0.54928 0.0
H6104 H 0.38681 0.5071 0.56945 0.0
H6105 H 0.37267 0.67185 0.52235 0.0
H6106 H 0.83985 0.9358 0.51241 0.0
H6107 H 0.87031 0.95131 0.51054 0.0
H6108 H 0.88941 0.92664 0.55796 0.0
H6109 H 0.85895 0.91107 0.55987 0.0
H6110 H 0.9043 0.96125 0.56154 0.0
H6111 H 0.89731 0.91227 0.51477 0.0
H6112 H 0.88479 0.89087 0.48697 0.0
H6113 H 0.8901 0.93348 0.45202 0.0
H6114 H 0.90242 0.95524 0.47968 0.0
H6115 H 0.99677 0.98528 0.54822 0.0
H6116 H 0.96723 0.96775 0.55066 0.0
H6117 H 0.94404 0.99466 0.50728 0.0
H6118 H 0.97344 0.01216 0.50472 0.0
H6119 H 0.93209 0.9576 0.50224 0.0
H6120 H 0.93968 0.0065 0.55193 0.0
H6121 H 0.95583 0.02522 0.58022 0.0
H6122 H 0.95174 0.97923 0.61052 0.0
H6123 H 0.93585 0.96017 0.58228 0.0
C6124 C 0.85052 0.93374 0.5225 0.0
C6125 C 0.84695 0.92222 0.53632 0.0
C6126 C 0.86797 0.94252 0.52133 0.0
C6127 C 0.88225 0.94005 0.534 0.0
C6128 C 0.87866 0.92878 0.54801 0.0
C6129 C 0.86123 0.91987 0.54908 0.0
C6130 C 0.90085 0.94942 0.53276 0.0
C6131 C 0.91042 0.96026 0.54861 0.0
C6132 C 0.90893 0.94824 0.51591 0.0
C6133 C 0.90061 0.93543 0.49936 0.0
C6134 C 0.89555 0.91714 0.50121 0.0
C6135 C 0.88855 0.90494 0.48547 0.0
C6136 C 0.88667 0.91082 0.46776 0.0
C6137 C 0.89158 0.92896 0.46576 0.0
C6138 C 0.89857 0.94124 0.48147 0.0
C6139 C 0.98537 0.98753 0.53926 0.0
C6140 C 0.98746 1.00031 0.52646 0.0
C6141 C 0.96849 0.97749 0.54068 0.0
C6142 C 0.95337 0.97997 0.52924 0.0
C6143 C 0.95548 0.99254 0.51627 0.0
C6144 C 0.9723 1.00266 0.51496 0.0
C6145 C 0.9353 0.96963 0.53086 0.0
C6146 C 0.92587 0.9586 0.51511 0.0
C6147 C 0.9275 0.97036 0.54788 0.0
C6148 C 0.93671 0.98189 0.56495 0.0
C6149 C 0.94232 1.00036 0.56459 0.0
C6150 C 0.95143 0.01104 0.58062 0.0
C6151 C 0.95484 1.00342 0.59715 0.0
C6152 C 0.94911 0.98511 0.5977 0.0
C6153 C 0.94004 0.97437 0.58169 0.0
H6154 H 0.96189 0.0117 0.60954 0.0
H6155 H 0.88157 0.90128 0.45557 0.0
H6156 H 0.91919 0.07799 0.24911 0.0
H6157 H 0.90591 0.10477 0.24772 0.0
H6158 H 0.86171 0.07993 0.27484 0.0
H6159 H 0.8745 0.05278 0.27525 0.0
H6160 H 0.84925 0.09592 0.24866 0.0
H6161 H 0.8998 0.11455 0.29738 0.0
H6162 H 0.93167 0.12037 0.30993 0.0
H6163 H 0.94378 0.15589 0.26833 0.0
H6164 H 0.91202 0.15014 0.25542 0.0
H6165 H 0.81688 0.16883 0.29151 0.0
H6166 H 0.82948 0.14257 0.28184 0.0
H6167 H 0.8653 0.1745 0.25022 0.0
H6168 H 0.85256 0.20091 0.25997 0.0
H6169 H 0.88306 0.15631 0.27337 0.0
H6170 H 0.83296 0.14099 0.2271 0.0
H6171 H 0.8014 0.13575 0.21367 0.0
H6172 H 0.78866 0.09464 0.24945 0.0
H6173 H 0.82012 0.09976 0.26323 0.0
C6174 C 0.90666 0.07828 0.25481 0.0
C6175 C 0.89792 0.06331 0.26237 0.0
C6176 C 0.89911 0.09367 0.25412 0.0
C6177 C 0.88291 0.09463 0.2615 0.0
C6178 C 0.8742 0.07962 0.26905 0.0
C6179 C 0.88155 0.0641 0.26935 0.0
C6180 C 0.87476 0.11103 0.26116 0.0
C6181 C 0.85663 0.10908 0.25429 0.0
C6182 C 0.8845 0.12844 0.26761 0.0
C6183 C 0.90359 0.13176 0.27532 0.0
C6184 C 0.90929 0.1235 0.29083 0.0
C6185 C 0.92732 0.12681 0.29802 0.0
C6186 C 0.93974 0.13845 0.28989 0.0
C6187 C 0.93415 0.14685 0.27459 0.0
C6188 C 0.91614 0.14358 0.26734 0.0
C6189 C 0.82713 0.1701 0.2821 0.0
C6190 C 0.8337 0.18679 0.27637 0.0
C6191 C 0.8343 0.1551 0.27653 0.0
C6192 C 0.84829 0.15649 0.26519 0.0
C6193 C 0.85448 0.17308 0.25891 0.0
C6194 C 0.84714 0.1881 0.26435 0.0
C6195 C 0.85743 0.14101 0.26157 0.0
C6196 C 0.87573 0.14315 0.26761 0.0
C6197 C 0.84789 0.1238 0.25431 0.0
C6198 C 0.82889 0.12086 0.24629 0.0
C6199 C 0.8234 0.13095 0.23223 0.0
C6200 C 0.80553 0.12797 0.22452 0.0
C6201 C 0.79302 0.1149 0.23073 0.0
C6202 C 0.79836 0.10477 0.24465 0.0
C6203 C 0.81622 0.10768 0.2524 0.0
H6204 H 0.7792 0.11259 0.22474 0.0
H6205 H 0.95369 0.14101 0.29549 0.0
H6206 H 0.71629 0.08312 0.02514 0.0
H6207 H 0.68399 0.07301 0.01796 0.0
H6208 H 0.6754 0.12567 0.03745 0.0
H6209 H 0.70753 0.13586 0.04472 0.0
H6210 H 0.65491 0.09901 0.05243 0.0
H6211 H 0.66876 0.11412 0.99288 0.0
H6212 H 0.68459 0.11515 0.9647 0.0
H6213 H 0.66818 0.05835 0.95135 0.0
H6214 H 0.65251 0.05692 0.97965 0.0
H6215 H 0.56283 0.07808 0.01582 0.0
H6216 H 0.59396 0.09228 0.01655 0.0
H6217 H 0.60975 0.04076 0.01599 0.0
H6218 H 0.57843 0.02631 0.01574 0.0
H6219 H 0.62547 0.07021 0.9899 0.0
H6220 H 0.61669 0.05629 0.05415 0.0
H6221 H 0.60181 0.05685 0.08295 0.0
H6222 H 0.6083 0.11402 0.08646 0.0
H6223 H 0.62331 0.1138 0.05762 0.0
C6224 C 0.70748 0.09248 0.02791 0.0
C6225 C 0.71427 0.1102 0.03546 0.0
C6226 C 0.68915 0.08677 0.02366 0.0
C6227 C 0.67755 0.09875 0.02696 0.0
C6228 C 0.68429 0.11637 0.03471 0.0
C6229 C 0.70257 0.1221 0.03887 0.0
C6230 C 0.65828 0.0925 0.02336 0.0
C6231 C 0.6484 0.09299 0.03869 0.0
C6232 C 0.65 0.08467 0.00543 0.0
C6233 C 0.65961 0.08539 0.98851 0.0
C6234 C 0.6687 0.10181 0.98406 0.0
C6235 C 0.6776 0.10248 0.96804 0.0
C6236 C 0.67743 0.08682 0.95627 0.0
C6237 C 0.66833 0.07046 0.9605 0.0
C6238 C 0.65942 0.06972 0.97653 0.0
C6239 C 0.57286 0.0697 0.01541 0.0
C6240 C 0.56841 0.05112 0.01571 0.0
C6241 C 0.59056 0.07785 0.01592 0.0
C6242 C 0.60384 0.06745 0.0164 0.0
C6243 C 0.59942 0.04882 0.01562 0.0
C6244 C 0.5817 0.04065 0.01549 0.0
C6245 C 0.62246 0.07623 0.01906 0.0
C6246 C 0.63208 0.07637 0.00354 0.0
C6247 C 0.63049 0.08488 0.03675 0.0
C6248 C 0.62081 0.08499 0.05357 0.0
C6249 C 0.61468 0.06895 0.06089 0.0
C6250 C 0.60629 0.06922 0.07727 0.0
C6251 C 0.60395 0.08544 0.08645 0.0
C6252 C 0.61004 0.10146 0.07928 0.0
C6253 C 0.61852 0.10127 0.06294 0.0
H6254 H 0.59752 0.08562 0.09917 0.0
H6255 H 0.68431 0.08736 0.94385 0.0
H6256 H 0.17121 0.48132 0.24299 0.0
H6257 H 0.1816 0.45307 0.24247 0.0
H6258 H 0.23626 0.48108 0.25026 0.0
H6259 H 0.22593 0.50981 0.25096 0.0
H6260 H 0.22661 0.44921 0.22156 0.0
H6261 H 0.22297 0.46917 0.28631 0.0
H6262 H 0.20876 0.48055 0.31308 0.0
H6263 H 0.16677 0.43441 0.30283 0.0
H6264 H 0.18058 0.42289 0.27577 0.0
H6265 H 0.27371 0.39471 0.27281 0.0
H6266 H 0.26016 0.41524 0.25447 0.0
H6267 H 0.20854 0.38128 0.25244 0.0
H6268 H 0.22219 0.36061 0.27046 0.0
H6269 H 0.21342 0.41405 0.2746 0.0
H6270 H 0.21957 0.3922 0.21235 0.0
H6271 H 0.23384 0.38102 0.18553 0.0
H6272 H 0.27169 0.4303 0.19151 0.0
H6273 H 0.25779 0.4417 0.21851 0.0
C6274 C 0.18546 0.48153 0.2444 0.0
C6275 C 0.19786 0.49765 0.24711 0.0
C6276 C 0.19131 0.46541 0.24409 0.0
C6277 C 0.20957 0.46525 0.24641 0.0
C6278 C 0.22208 0.48122 0.24842 0.0
C6279 C 0.21621 0.49747 0.2489 0.0
C6280 C 0.21538 0.44828 0.24776 0.0
C6281 C 0.224 0.4415 0.2332 0.0
C6282 C 0.21116 0.43825 0.26269 0.0
C6283 C 0.20268 0.44529 0.27882 0.0
C6284 C 0.21058 0.46156 0.28959 0.0
C6285 C 0.20263 0.46801 0.30486 0.0
C6286 C 0.18684 0.45824 0.3096 0.0
C6287 C 0.17898 0.44199 0.2991 0.0
C6288 C 0.18687 0.43549 0.2838 0.0
C6289 C 0.25959 0.39143 0.26784 0.0
C6290 C 0.24875 0.37659 0.27331 0.0
C6291 C 0.25193 0.40292 0.25716 0.0
C6292 C 0.23341 0.39966 0.25221 0.0
C6293 C 0.22289 0.38382 0.25606 0.0
C6294 C 0.2306 0.37222 0.26655 0.0
C6295 C 0.22496 0.41484 0.24843 0.0
C6296 C 0.21583 0.42148 0.26269 0.0
C6297 C 0.22887 0.42474 0.23334 0.0
C6298 C 0.23771 0.41774 0.21755 0.0
C6299 C 0.23107 0.40057 0.20809 0.0
C6300 C 0.23906 0.39422 0.19281 0.0
C6301 C 0.25368 0.40493 0.18684 0.0
C6302 C 0.26037 0.42201 0.19615 0.0
C6303 C 0.25242 0.42843 0.21143 0.0
H6304 H 0.25981 0.4 0.17497 0.0
H6305 H 0.18072 0.46324 0.32145 0.0
H6306 H 0.26413 0.44169 0.04111 0.0
H6307 H 0.2373 0.45495 0.0417 0.0
H6308 H 0.20471 0.40227 0.03651 0.0
H6309 H 0.23144 0.38897 0.03535 0.0
H6310 H 0.18931 0.42101 0.01476 0.0
H6311 H 0.21247 0.43024 0.07856 0.0
H6312 H 0.2344 0.43918 0.10668 0.0
H6313 H 0.24133 0.49387 0.09513 0.0
H6314 H 0.21963 0.48523 0.06676 0.0
H6315 H 0.11397 0.46277 0.03576 0.0
H6316 H 0.13797 0.44581 0.04263 0.0
H6317 H 0.17613 0.48828 0.02617 0.0
H6318 H 0.15212 0.50467 0.01841 0.0
H6319 H 0.18582 0.47158 0.06197 0.0
H6320 H 0.16268 0.4584 0.995 0.0
H6321 H 0.13816 0.44739 0.96961 0.0
H6322 H 0.12835 0.39658 0.9912 0.0
H6323 H 0.15261 0.40744 0.01697 0.0
C6324 C 0.25125 0.43295 0.04015 0.0
C6325 C 0.24991 0.4143 0.03822 0.0
C6326 C 0.23591 0.44053 0.0406 0.0
C6327 C 0.21894 0.42963 0.03943 0.0
C6328 C 0.21761 0.41099 0.03746 0.0
C6329 C 0.23292 0.4034 0.03685 0.0
C6330 C 0.20261 0.4377 0.03973 0.0
C6331 C 0.18848 0.43185 0.02531 0.0
C6332 C 0.20129 0.45176 0.05354 0.0
C6333 C 0.21455 0.45705 0.07043 0.0
C6334 C 0.21881 0.44415 0.08191 0.0
C6335 C 0.23117 0.44917 0.09792 0.0
C6336 C 0.23929 0.46707 0.10266 0.0
C6337 C 0.23505 0.48 0.09142 0.0
C6338 C 0.22271 0.47505 0.07538 0.0
C6339 C 0.12752 0.46843 0.03379 0.0
C6340 C 0.13124 0.48478 0.02629 0.0
C6341 C 0.14117 0.45883 0.03773 0.0
C6342 C 0.15874 0.4658 0.03473 0.0
C6343 C 0.16263 0.48271 0.02851 0.0
C6344 C 0.14895 0.49203 0.0241 0.0
C6345 C 0.17303 0.45518 0.03682 0.0
C6346 C 0.1867 0.46056 0.05166 0.0
C6347 C 0.17367 0.44038 0.02373 0.0
C6348 C 0.15928 0.43382 0.00807 0.0
C6349 C 0.15517 0.44496 0.99446 0.0
C6350 C 0.14134 0.43873 0.97998 0.0
C6351 C 0.13165 0.42132 0.97884 0.0
C6352 C 0.13582 0.41008 0.99214 0.0
C6353 C 0.14961 0.41627 0.00668 0.0
H6354 H 0.12095 0.41652 0.96761 0.0
H6355 H 0.24884 0.47094 0.11508 0.0
H6356 H 0.86527 0.97023 0.25156 0.0
H6357 H 0.84884 0.94014 0.25373 0.0
H6358 H 0.89836 0.92299 0.26976 0.0
H6359 H 0.91484 0.9529 0.26717 0.0
H6360 H 0.87787 0.89793 0.2461 0.0
H6361 H 0.86932 0.93256 0.30236 0.0
H6362 H 0.86075 0.95771 0.32119 0.0
H6363 H 0.80705 0.94312 0.29396 0.0
H6364 H 0.81536 0.91802 0.27479 0.0
H6365 H 0.83597 0.81467 0.27176 0.0
H6366 H 0.85415 0.84385 0.2711 0.0
H6367 H 0.80653 0.86691 0.26556 0.0
H6368 H 0.78872 0.83829 0.26933 0.0
H6369 H 0.82789 0.88931 0.28513 0.0
H6370 H 0.83776 0.85482 0.22711 0.0
H6371 H 0.84742 0.82959 0.20944 0.0
H6372 H 0.89948 0.84381 0.24069 0.0
H6373 H 0.89007 0.869 0.25862 0.0
C6374 C 0.87266 0.96002 0.25543 0.0
C6375 C 0.89137 0.96399 0.25919 0.0
C6376 C 0.86324 0.94282 0.25681 0.0
C6377 C 0.87229 0.92926 0.26221 0.0
C6378 C 0.89102 0.93315 0.2656 0.0
C6379 C 0.90044 0.9503 0.26412 0.0
C6380 C 0.86229 0.91106 0.26434 0.0
C6381 C 0.86698 0.89602 0.25471 0.0
C6382 C 0.84802 0.90845 0.27549 0.0
C6383 C 0.84301 0.92352 0.28702 0.0
C6384 C 0.85572 0.9348 0.3003 0.0
C6385 C 0.8509 0.94903 0.31104 0.0
C6386 C 0.83338 0.95204 0.30874 0.0
C6387 C 0.82062 0.94079 0.29571 0.0
C6388 C 0.82538 0.92655 0.28492 0.0
C6389 C 0.8293 0.82596 0.27061 0.0
C6390 C 0.81066 0.82392 0.27078 0.0
C6391 C 0.8398 0.84276 0.26982 0.0
C6392 C 0.8319 0.85786 0.26761 0.0
C6393 C 0.81322 0.8557 0.26728 0.0
C6394 C 0.80285 0.83911 0.26924 0.0
C6395 C 0.84286 0.87596 0.2662 0.0
C6396 C 0.83854 0.89107 0.27621 0.0
C6397 C 0.85749 0.87861 0.25538 0.0
C6398 C 0.86317 0.86369 0.24427 0.0
C6399 C 0.85125 0.85253 0.2302 0.0
C6400 C 0.85668 0.83824 0.22016 0.0
C6401 C 0.87404 0.83507 0.22397 0.0
C6402 C 0.88603 0.84626 0.23776 0.0
C6403 C 0.88067 0.86055 0.24784 0.0
H6404 H 0.8782 0.82398 0.21622 0.0
H6405 H 0.82967 0.96307 0.31707 0.0
H6406 H 0.72735 0.09642 0.78086 0.0
H6407 H 0.73488 0.12886 0.78985 0.0
H6408 H 0.6912 0.13608 0.75049 0.0
H6409 H 0.68419 0.10415 0.74092 0.0
H6410 H 0.72052 0.15694 0.74605 0.0
H6411 H 0.68951 0.14098 0.79875 0.0
H6412 H 0.68355 0.12475 0.82615 0.0
H6413 H 0.73615 0.14756 0.85307 0.0
H6414 H 0.74251 0.16373 0.82575 0.0
H6415 H 0.73234 0.24804 0.76467 0.0
H6416 H 0.71589 0.21795 0.7667 0.0
H6417 H 0.76033 0.20734 0.8028 0.0
H6418 H 0.77654 0.23768 0.80118 0.0
H6419 H 0.72806 0.1887 0.81045 0.0
H6420 H 0.76095 0.19875 0.75681 0.0
H6421 H 0.76979 0.2107 0.72778 0.0
H6422 H 0.71538 0.19706 0.70247 0.0
H6423 H 0.70623 0.18505 0.73137 0.0
C6424 C 0.71956 0.10503 0.77403 0.0
C6425 C 0.7054 0.0979 0.76005 0.0
C6426 C 0.72364 0.12343 0.77939 0.0
C6427 C 0.71335 0.13471 0.77105 0.0
C6428 C 0.69921 0.12753 0.75714 0.0
C6429 C 0.69536 0.10931 0.75156 0.0
C6430 C 0.71828 0.1542 0.77525 0.0
C6431 C 0.72172 0.16391 0.7601 0.0
C6432 C 0.72042 0.16309 0.79366 0.0
C6433 C 0.71654 0.15344 0.81012 0.0
C6434 C 0.69985 0.14243 0.81045 0.0
C6435 C 0.69639 0.13326 0.82598 0.0
C6436 C 0.70949 0.13508 0.8413 0.0
C6437 C 0.72603 0.14614 0.84117 0.0
C6438 C 0.72956 0.15533 0.82569 0.0
C6439 C 0.73817 0.23947 0.77367 0.0
C6440 C 0.7555 0.24478 0.7828 0.0
C6441 C 0.72885 0.22238 0.77479 0.0
C6442 C 0.7371 0.21048 0.78464 0.0
C6443 C 0.75381 0.21644 0.79519 0.0
C6444 C 0.76305 0.23362 0.79421 0.0
C6445 C 0.72996 0.19127 0.78118 0.0
C6446 C 0.72633 0.18166 0.79641 0.0
C6447 C 0.72774 0.18228 0.76283 0.0
C6448 C 0.73289 0.19121 0.74628 0.0
C6449 C 0.75084 0.19861 0.74517 0.0
C6450 C 0.75591 0.20528 0.72871 0.0
C6451 C 0.74314 0.20455 0.71329 0.0
C6452 C 0.72524 0.19755 0.71442 0.0
C6453 C 0.7201 0.19082 0.73082 0.0
H6454 H 0.74712 0.2092 0.70037 0.0
H6455 H 0.70685 0.12794 0.85327 0.0
loop_
_geom_bond_atom_site_label_1
_geom_bond_atom_site_label_2
_geom_bond_distance
_geom_bond_site_symmetry_2
_ccdc_geom_bond_type
In0 O1 2.294 . S
In0 O2 2.326 . S
In0 O6 2.266 . S
In0 O7 2.326 . S
In0 O8 2.266 . S
In0 O9 2.326 . S
In0 O11 2.294 . S
In0 O12 2.326 . S
O1 In0 2.294 . S
O1 C10 1.240 . S
O2 In0 2.326 . S
O2 C10 1.252 . S
C3 O6 1.252 . S
C3 O7 1.260 . S
C4 O11 1.240 . S
C4 O12 1.252 . S
C5 O8 1.252 . S
C5 O9 1.260 . S
O6 In0 2.266 . S
O6 C3 1.252 . S
O7 In0 2.326 . S
O7 C3 1.260 . S
O8 In0 2.266 . S
O8 C5 1.252 . S
O9 In0 2.326 . S
O9 C5 1.260 . S
C10 O1 1.240 . S
C10 O2 1.252 . S
O11 In0 2.294 . S
O11 C4 1.240 . S
O12 In0 2.326 . S
O12 C4 1.252 . S
In13 O14 2.294 . S
In13 O15 2.326 . S
In13 O19 2.266 . S
In13 O20 2.326 . S
In13 O21 2.266 1_455 S
In13 O22 2.326 1_455 S
In13 O24 2.294 . S
In13 O25 2.326 . S
O14 In13 2.294 . S
O14 C23 1.240 . S
O15 In13 2.326 . S
O15 C23 1.252 . S
C16 O19 1.252 . S
C16 O20 1.260 . S
C17 O24 1.240 . S
C17 O25 1.252 . S
C18 O21 1.252 . S
C18 O22 1.260 . S
O19 In13 2.266 . S
O19 C16 1.252 . S
O20 In13 2.326 . S
O20 C16 1.260 . S
O21 In13 2.266 1_655 S
O21 C18 1.252 . S
O22 In13 2.326 1_655 S
O22 C18 1.260 . S
C23 O14 1.240 . S
C23 O15 1.252 . S
O24 In13 2.294 . S
O24 C17 1.240 . S
O25 In13 2.326 . S
O25 C17 1.252 . S
In26 O27 2.294 . S
In26 O28 2.326 . S
In26 O32 2.266 . S
In26 O33 2.326 . S
In26 O34 2.266 . S
In26 O35 2.326 . S
In26 O37 2.294 . S
In26 O38 2.326 . S
O27 In26 2.294 . S
O27 C36 1.240 . S
O28 In26 2.326 . S
O28 C36 1.252 . S
C29 O32 1.252 . S
C29 O33 1.260 . S
C30 O37 1.240 . S
C30 O38 1.252 . S
C31 O34 1.252 . S
C31 O35 1.260 . S
O32 In26 2.266 . S
O32 C29 1.252 . S
O33 In26 2.326 . S
O33 C29 1.260 . S
O34 In26 2.266 . S
O34 C31 1.252 . S
O35 In26 2.326 . S
O35 C31 1.260 . S
C36 O27 1.240 . S
C36 O28 1.252 . S
O37 In26 2.294 . S
O37 C30 1.240 . S
O38 In26 2.326 . S
O38 C30 1.252 . S
In39 O40 2.294 . S
In39 O41 2.326 . S
In39 O45 2.266 . S
In39 O46 2.326 . S
In39 O47 2.266 . S
In39 O48 2.326 . S
In39 O50 2.294 . S
In39 O51 2.326 . S
O40 In39 2.294 . S
O40 C49 1.240 . S
O41 In39 2.326 . S
O41 C49 1.252 . S
C42 O45 1.252 . S
C42 O46 1.260 . S
C43 O50 1.240 . S
C43 O51 1.252 . S
C44 O47 1.252 . S
C44 O48 1.260 . S
O45 In39 2.266 . S
O45 C42 1.252 . S
O46 In39 2.326 . S
O46 C42 1.260 . S
O47 In39 2.266 . S
O47 C44 1.252 . S
O48 In39 2.326 . S
O48 C44 1.260 . S
C49 O40 1.240 . S
C49 O41 1.252 . S
O50 In39 2.294 . S
O50 C43 1.240 . S
O51 In39 2.326 . S
O51 C43 1.252 . S
In52 O53 2.294 . S
In52 O54 2.326 . S
In52 O58 2.266 . S
In52 O59 2.326 . S
In52 O60 2.266 . S
In52 O61 2.326 . S
In52 O63 2.294 . S
In52 O64 2.326 . S
O53 In52 2.294 . S
O53 C62 1.240 . S
O54 In52 2.326 . S
O54 C62 1.252 . S
C55 O58 1.252 . S
C55 O59 1.260 . S
C56 O63 1.240 . S
C56 O64 1.252 . S
C57 O60 1.252 . S
C57 O61 1.260 . S
O58 In52 2.266 . S
O58 C55 1.252 . S
O59 In52 2.326 . S
O59 C55 1.260 . S
O60 In52 2.266 . S
O60 C57 1.252 . S
O61 In52 2.326 . S
O61 C57 1.260 . S
C62 O53 1.240 . S
C62 O54 1.252 . S
O63 In52 2.294 . S
O63 C56 1.240 . S
O64 In52 2.326 . S
O64 C56 1.252 . S
In65 O66 2.294 . S
In65 O67 2.326 . S
In65 O71 2.266 . S
In65 O72 2.326 . S
In65 O73 2.266 . S
In65 O74 2.326 . S
In65 O76 2.294 . S
In65 O77 2.326 . S
O66 In65 2.294 . S
O66 C75 1.240 . S
O67 In65 2.326 . S
O67 C75 1.252 . S
C68 O71 1.252 . S
C68 O72 1.260 . S
C69 O76 1.240 . S
C69 O77 1.252 . S
C70 O73 1.252 . S
C70 O74 1.260 . S
O71 In65 2.266 . S
O71 C68 1.252 . S
O72 In65 2.326 . S
O72 C68 1.260 . S
O73 In65 2.266 . S
O73 C70 1.252 . S
O74 In65 2.326 . S
O74 C70 1.260 . S
C75 O66 1.240 . S
C75 O67 1.252 . S
O76 In65 2.294 . S
O76 C69 1.240 . S
O77 In65 2.326 . S
O77 C69 1.252 . S
In78 O79 2.294 . S
In78 O80 2.326 . S
In78 O84 2.266 . S
In78 O85 2.326 . S
In78 O86 2.266 . S
In78 O87 2.326 . S
In78 O89 2.294 . S
In78 O90 2.326 . S
O79 In78 2.294 . S
O79 C88 1.240 . S
O80 In78 2.326 . S
O80 C88 1.252 . S
C81 O84 1.252 . S
C81 O85 1.260 . S
C82 O89 1.240 . S
C82 O90 1.252 . S
C83 O86 1.252 . S
C83 O87 1.260 . S
O84 In78 2.266 . S
O84 C81 1.252 . S
O85 In78 2.326 . S
O85 C81 1.260 . S
O86 In78 2.266 . S
O86 C83 1.252 . S
O87 In78 2.326 . S
O87 C83 1.260 . S
C88 O79 1.240 . S
C88 O80 1.252 . S
O89 In78 2.294 . S
O89 C82 1.240 . S
O90 In78 2.326 . S
O90 C82 1.252 . S
In91 O92 2.294 . S
In91 O93 2.328 1_455 S
In91 O97 2.265 1_455 S
In91 O98 2.332 . S
In91 O99 2.264 1_455 S
In91 O100 2.323 1_455 S
In91 O102 2.296 . S
In91 O103 2.329 . S
O92 In91 2.294 . S
O92 C101 1.240 . S
O93 In91 2.328 1_655 S
O93 C101 1.252 1_655 S
C94 O97 1.254 1_455 S
C94 O98 1.258 . S
C95 O102 1.240 . S
C95 O103 1.252 . S
C96 O99 1.252 . S
C96 O100 1.260 . S
O97 In91 2.265 1_655 S
O97 C94 1.254 1_655 S
O98 In91 2.332 . S
O98 C94 1.258 . S
O99 In91 2.264 1_655 S
O99 C96 1.252 . S
O100 In91 2.323 1_655 S
O100 C96 1.260 . S
C101 O92 1.240 . S
C101 O93 1.252 1_455 S
O102 In91 2.296 . S
O102 C95 1.240 . S
O103 In91 2.329 . S
O103 C95 1.252 . S
In104 O105 2.294 . S
In104 O106 2.326 . S
In104 O110 2.266 . S
In104 O111 2.326 . S
In104 O112 2.266 1_545 S
In104 O113 2.326 1_545 S
In104 O115 2.294 . S
In104 O116 2.326 . S
O105 In104 2.294 . S
O105 C114 1.240 . S
O106 In104 2.326 . S
O106 C114 1.252 . S
C107 O110 1.252 . S
C107 O111 1.260 . S
C108 O115 1.240 . S
C108 O116 1.252 . S
C109 O112 1.252 . S
C109 O113 1.260 . S
O110 In104 2.266 . S
O110 C107 1.252 . S
O111 In104 2.326 . S
O111 C107 1.260 . S
O112 In104 2.266 1_565 S
O112 C109 1.252 . S
O113 In104 2.326 1_565 S
O113 C109 1.260 . S
C114 O105 1.240 . S
C114 O106 1.252 . S
O115 In104 2.294 . S
O115 C108 1.240 . S
O116 In104 2.326 . S
O116 C108 1.252 . S
In117 O118 2.294 . S
In117 O119 2.326 . S
In117 O123 2.266 . S
In117 O124 2.326 . S
In117 O125 2.266 . S
In117 O126 2.326 . S
In117 O128 2.294 . S
In117 O129 2.326 . S
O118 In117 2.294 . S
O118 C127 1.240 . S
O119 In117 2.326 . S
O119 C127 1.252 . S
C120 O123 1.252 . S
C120 O124 1.260 . S
C121 O128 1.240 . S
C121 O129 1.252 . S
C122 O125 1.252 . S
C122 O126 1.260 . S
O123 In117 2.266 . S
O123 C120 1.252 . S
O124 In117 2.326 . S
O124 C120 1.260 . S
O125 In117 2.266 . S
O125 C122 1.252 . S
O126 In117 2.326 . S
O126 C122 1.260 . S
C127 O118 1.240 . S
C127 O119 1.252 . S
O128 In117 2.294 . S
O128 C121 1.240 . S
O129 In117 2.326 . S
O129 C121 1.252 . S
In130 O131 2.294 . S
In130 O132 2.326 . S
In130 O136 2.266 . S
In130 O137 2.326 . S
In130 O138 2.266 . S
In130 O139 2.326 . S
In130 O141 2.294 . S
In130 O142 2.326 . S
O131 In130 2.294 . S
O131 C140 1.240 . S
O132 In130 2.326 . S
O132 C140 1.252 . S
C133 O136 1.252 . S
C133 O137 1.260 . S
C134 O141 1.240 . S
C134 O142 1.252 . S
C135 O138 1.252 . S
C135 O139 1.260 . S
O136 In130 2.266 . S
O136 C133 1.252 . S
O137 In130 2.326 . S
O137 C133 1.260 . S
O138 In130 2.266 . S
O138 C135 1.252 . S
O139 In130 2.326 . S
O139 C135 1.260 . S
C140 O131 1.240 . S
C140 O132 1.252 . S
O141 In130 2.294 . S
O141 C134 1.240 . S
O142 In130 2.326 . S
O142 C134 1.252 . S
In143 O144 2.296 . S
In143 O145 2.329 . S
In143 O149 2.264 1_554 S
In143 O150 2.322 1_554 S
In143 O151 2.266 1_554 S
In143 O152 2.322 1_554 S
In143 O154 2.294 . S
In143 O155 2.327 . S
O144 In143 2.296 . S
O144 C153 1.240 . S
O145 In143 2.329 . S
O145 C153 1.252 . S
C146 O149 1.252 . S
C146 O150 1.260 . S
C147 O154 1.240 . S
C147 O155 1.252 . S
C148 O151 1.252 . S
C148 O152 1.266 . S
O149 In143 2.264 1_556 S
O149 C146 1.252 . S
O150 In143 2.322 1_556 S
O150 C146 1.260 . S
O151 In143 2.266 1_556 S
O151 C148 1.252 . S
O152 In143 2.322 1_556 S
O152 C148 1.266 . S
C153 O144 1.240 . S
C153 O145 1.252 . S
O154 In143 2.294 . S
O154 C147 1.240 . S
O155 In143 2.327 . S
O155 C147 1.252 . S
In156 O157 2.294 . S
In156 O158 2.326 . S
In156 O162 2.266 . S
In156 O163 2.326 . S
In156 O164 2.266 . S
In156 O165 2.326 . S
In156 O167 2.294 . S
In156 O168 2.326 . S
O157 In156 2.294 . S
O157 C166 1.240 . S
O158 In156 2.326 . S
O158 C166 1.252 . S
C159 O162 1.252 . S
C159 O163 1.260 . S
C160 O167 1.240 . S
C160 O168 1.252 . S
C161 O164 1.252 . S
C161 O165 1.260 . S
O162 In156 2.266 . S
O162 C159 1.252 . S
O163 In156 2.326 . S
O163 C159 1.260 . S
O164 In156 2.266 . S
O164 C161 1.252 . S
O165 In156 2.326 . S
O165 C161 1.260 . S
C166 O157 1.240 . S
C166 O158 1.252 . S
O167 In156 2.294 . S
O167 C160 1.240 . S
O168 In156 2.326 . S
O168 C160 1.252 . S
In169 O170 2.294 . S
In169 O171 2.326 . S
In169 O175 2.266 . S
In169 O176 2.326 . S
In169 O177 2.266 . S
In169 O178 2.326 . S
In169 O180 2.294 . S
In169 O181 2.326 . S
O170 In169 2.294 . S
O170 C179 1.240 . S
O171 In169 2.326 . S
O171 C179 1.252 . S
C172 O175 1.252 . S
C172 O176 1.260 . S
C173 O180 1.240 . S
C173 O181 1.252 . S
C174 O177 1.252 . S
C174 O178 1.260 . S
O175 In169 2.266 . S
O175 C172 1.252 . S
O176 In169 2.326 . S
O176 C172 1.260 . S
O177 In169 2.266 . S
O177 C174 1.252 . S
O178 In169 2.326 . S
O178 C174 1.260 . S
C179 O170 1.240 . S
C179 O171 1.252 . S
O180 In169 2.294 . S
O180 C173 1.240 . S
O181 In169 2.326 . S
O181 C173 1.252 . S
In182 O183 2.294 . S
In182 O184 2.326 . S
In182 O188 2.266 . S
In182 O189 2.326 . S
In182 O190 2.266 . S
In182 O191 2.326 . S
In182 O193 2.294 . S
In182 O194 2.326 . S
O183 In182 2.294 . S
O183 C192 1.240 . S
O184 In182 2.326 . S
O184 C192 1.252 . S
C185 O188 1.252 . S
C185 O189 1.260 . S
C186 O193 1.240 . S
C186 O194 1.252 . S
C187 O190 1.252 . S
C187 O191 1.260 . S
O188 In182 2.266 . S
O188 C185 1.252 . S
O189 In182 2.326 . S
O189 C185 1.260 . S
O190 In182 2.266 . S
O190 C187 1.252 . S
O191 In182 2.326 . S
O191 C187 1.260 . S
C192 O183 1.240 . S
C192 O184 1.252 . S
O193 In182 2.294 . S
O193 C186 1.240 . S
O194 In182 2.326 . S
O194 C186 1.252 . S
In195 O196 2.294 . S
In195 O197 2.326 . S
In195 O201 2.266 . S
In195 O202 2.326 . S
In195 O203 2.266 . S
In195 O204 2.326 . S
In195 O206 2.294 . S
In195 O207 2.326 . S
O196 In195 2.294 . S
O196 C205 1.240 . S
O197 In195 2.326 . S
O197 C205 1.252 . S
C198 O201 1.252 . S
C198 O202 1.260 . S
C199 O206 1.240 . S
C199 O207 1.252 . S
C200 O203 1.252 . S
C200 O204 1.260 . S
O201 In195 2.266 . S
O201 C198 1.252 . S
O202 In195 2.326 . S
O202 C198 1.260 . S
O203 In195 2.266 . S
O203 C200 1.252 . S
O204 In195 2.326 . S
O204 C200 1.260 . S
C205 O196 1.240 . S
C205 O197 1.252 . S
O206 In195 2.294 . S
O206 C199 1.240 . S
O207 In195 2.326 . S
O207 C199 1.252 . S
In208 O209 2.294 . S
In208 O210 2.326 . S
In208 O214 2.266 . S
In208 O215 2.326 . S
In208 O216 2.266 1_545 S
In208 O217 2.326 1_545 S
In208 O219 2.294 . S
In208 O220 2.326 . S
O209 In208 2.294 . S
O209 C218 1.240 . S
O210 In208 2.326 . S
O210 C218 1.252 . S
C211 O214 1.252 . S
C211 O215 1.260 . S
C212 O219 1.240 . S
C212 O220 1.252 . S
C213 O216 1.252 . S
C213 O217 1.260 . S
O214 In208 2.266 . S
O214 C211 1.252 . S
O215 In208 2.326 . S
O215 C211 1.260 . S
O216 In208 2.266 1_565 S
O216 C213 1.252 . S
O217 In208 2.326 1_565 S
O217 C213 1.260 . S
C218 O209 1.240 . S
C218 O210 1.252 . S
O219 In208 2.294 . S
O219 C212 1.240 . S
O220 In208 2.326 . S
O220 C212 1.252 . S
In221 O222 2.294 . S
In221 O223 2.326 . S
In221 O227 2.266 . S
In221 O228 2.326 . S
In221 O229 2.266 . S
In221 O230 2.326 . S
In221 O232 2.294 . S
In221 O233 2.326 . S
O222 In221 2.294 . S
O222 C231 1.240 . S
O223 In221 2.326 . S
O223 C231 1.252 . S
C224 O227 1.252 . S
C224 O228 1.260 . S
C225 O232 1.240 . S
C225 O233 1.252 . S
C226 O229 1.252 . S
C226 O230 1.260 . S
O227 In221 2.266 . S
O227 C224 1.252 . S
O228 In221 2.326 . S
O228 C224 1.260 . S
O229 In221 2.266 . S
O229 C226 1.252 . S
O230 In221 2.326 . S
O230 C226 1.260 . S
C231 O222 1.240 . S
C231 O223 1.252 . S
O232 In221 2.294 . S
O232 C225 1.240 . S
O233 In221 2.326 . S
O233 C225 1.252 . S
In234 O235 2.294 . S
In234 O236 2.326 . S
In234 O240 2.266 . S
In234 O241 2.326 . S
In234 O242 2.266 . S
In234 O243 2.326 . S
In234 O245 2.294 . S
In234 O246 2.326 . S
O235 In234 2.294 . S
O235 C244 1.240 . S
O236 In234 2.326 . S
O236 C244 1.252 . S
C237 O240 1.252 . S
C237 O241 1.260 . S
C238 O245 1.240 . S
C238 O246 1.252 . S
C239 O242 1.252 . S
C239 O243 1.260 . S
O240 In234 2.266 . S
O240 C237 1.252 . S
O241 In234 2.326 . S
O241 C237 1.260 . S
O242 In234 2.266 . S
O242 C239 1.252 . S
O243 In234 2.326 . S
O243 C239 1.260 . S
C244 O235 1.240 . S
C244 O236 1.252 . S
O245 In234 2.294 . S
O245 C238 1.240 . S
O246 In234 2.326 . S
O246 C238 1.252 . S
In247 O248 2.294 . S
In247 O249 2.326 . S
In247 O253 2.266 . S
In247 O254 2.326 . S
In247 O255 2.266 . S
In247 O256 2.326 . S
In247 O258 2.294 . S
In247 O259 2.326 . S
O248 In247 2.294 . S
O248 C257 1.240 . S
O249 In247 2.326 . S
O249 C257 1.252 . S
C250 O253 1.252 . S
C250 O254 1.260 . S
C251 O258 1.240 . S
C251 O259 1.252 . S
C252 O255 1.252 . S
C252 O256 1.260 . S
O253 In247 2.266 . S
O253 C250 1.252 . S
O254 In247 2.326 . S
O254 C250 1.260 . S
O255 In247 2.266 . S
O255 C252 1.252 . S
O256 In247 2.326 . S
O256 C252 1.260 . S
C257 O248 1.240 . S
C257 O249 1.252 . S
O258 In247 2.294 . S
O258 C251 1.240 . S
O259 In247 2.326 . S
O259 C251 1.252 . S
In260 O261 2.294 . S
In260 O262 2.326 . S
In260 O266 2.266 . S
In260 O267 2.326 . S
In260 O268 2.266 1_554 S
In260 O269 2.326 1_554 S
In260 O271 2.294 . S
In260 O272 2.326 . S
O261 In260 2.294 . S
O261 C270 1.240 . S
O262 In260 2.326 . S
O262 C270 1.252 . S
C263 O266 1.252 . S
C263 O267 1.260 . S
C264 O271 1.240 . S
C264 O272 1.252 . S
C265 O268 1.252 . S
C265 O269 1.260 . S
O266 In260 2.266 . S
O266 C263 1.252 . S
O267 In260 2.326 . S
O267 C263 1.260 . S
O268 In260 2.266 1_556 S
O268 C265 1.252 . S
O269 In260 2.326 1_556 S
O269 C265 1.260 . S
C270 O261 1.240 . S
C270 O262 1.252 . S
O271 In260 2.294 . S
O271 C264 1.240 . S
O272 In260 2.326 . S
O272 C264 1.252 . S
In273 O274 2.294 . S
In273 O275 2.326 . S
In273 O279 2.266 . S
In273 O280 2.326 . S
In273 O281 2.266 . S
In273 O282 2.326 . S
In273 O284 2.294 . S
In273 O285 2.326 . S
O274 In273 2.294 . S
O274 C283 1.240 . S
O275 In273 2.326 . S
O275 C283 1.252 . S
C276 O279 1.252 . S
C276 O280 1.260 . S
C277 O284 1.240 . S
C277 O285 1.252 . S
C278 O281 1.252 . S
C278 O282 1.260 . S
O279 In273 2.266 . S
O279 C276 1.252 . S
O280 In273 2.326 . S
O280 C276 1.260 . S
O281 In273 2.266 . S
O281 C278 1.252 . S
O282 In273 2.326 . S
O282 C278 1.260 . S
C283 O274 1.240 . S
C283 O275 1.252 . S
O284 In273 2.294 . S
O284 C277 1.240 . S
O285 In273 2.326 . S
O285 C277 1.252 . S
In286 O287 2.294 . S
In286 O288 2.326 . S
In286 O292 2.266 . S
In286 O293 2.326 . S
In286 O294 2.266 . S
In286 O295 2.326 . S
In286 O297 2.294 . S
In286 O298 2.326 . S
O287 In286 2.294 . S
O287 C296 1.240 . S
O288 In286 2.326 . S
O288 C296 1.252 . S
C289 O292 1.252 . S
C289 O293 1.260 . S
C290 O297 1.240 . S
C290 O298 1.252 . S
C291 O294 1.252 . S
C291 O295 1.260 . S
O292 In286 2.266 . S
O292 C289 1.252 . S
O293 In286 2.326 . S
O293 C289 1.260 . S
O294 In286 2.266 . S
O294 C291 1.252 . S
O295 In286 2.326 . S
O295 C291 1.260 . S
C296 O287 1.240 . S
C296 O288 1.252 . S
O297 In286 2.294 . S
O297 C290 1.240 . S
O298 In286 2.326 . S
O298 C290 1.252 . S
In299 O300 2.294 . S
In299 O301 2.326 . S
In299 O305 2.266 . S
In299 O306 2.326 . S
In299 O307 2.266 . S
In299 O308 2.326 . S
In299 O310 2.294 . S
In299 O311 2.326 . S
O300 In299 2.294 . S
O300 C309 1.240 . S
O301 In299 2.326 . S
O301 C309 1.252 . S
C302 O305 1.252 . S
C302 O306 1.260 . S
C303 O310 1.240 . S
C303 O311 1.252 . S
C304 O307 1.252 . S
C304 O308 1.260 . S
O305 In299 2.266 . S
O305 C302 1.252 . S
O306 In299 2.326 . S
O306 C302 1.260 . S
O307 In299 2.266 . S
O307 C304 1.252 . S
O308 In299 2.326 . S
O308 C304 1.260 . S
C309 O300 1.240 . S
C309 O301 1.252 . S
O310 In299 2.294 . S
O310 C303 1.240 . S
O311 In299 2.326 . S
O311 C303 1.252 . S
Eu312 N341 2.600 . S
Eu312 N347 2.562 . S
Eu312 O356 2.462 . S
Eu312 O357 2.373 . S
Eu312 O359 2.432 . S
Eu312 O360 2.291 . S
Eu312 O364 2.335 . S
Eu312 O367 2.372 . S
Eu312 C376 2.787 . S
C313 N314 1.365 1_564 S
C313 C316 1.405 1_554 S
C313 C320 1.448 . S
N314 C313 1.365 1_546 S
N314 C317 1.302 1_655 S
N314 Eu323 2.600 1_656 S
C315 C317 1.395 1_665 S
C315 C318 1.367 . S
C315 H335 0.951 . S
C316 C313 1.405 1_556 S
C316 C318 1.403 . S
C316 C322 1.439 . S
C317 N314 1.302 1_455 S
C317 C315 1.395 1_445 S
C317 H328 0.954 . S
C318 C315 1.367 . S
C318 C316 1.403 . S
C318 H339 0.929 . S
C319 C320 1.430 . S
C319 C321 1.387 . S
C319 C325 1.404 . S
C320 C313 1.448 . S
C320 C319 1.430 . S
C320 N324 1.351 1_565 S
C321 C319 1.387 . S
C321 C322 1.374 1_554 S
C321 H336 0.931 . S
C322 C316 1.439 . S
C322 C321 1.374 1_556 S
C322 H337 0.931 . S
Eu323 N314 2.600 1_454 S
Eu323 N324 2.562 1_455 S
Eu323 O358 2.335 . S
Eu323 O361 2.377 . S
Eu323 O362 2.462 1_455 S
Eu323 O363 2.373 . S
Eu323 O365 2.432 1_455 S
Eu323 O366 2.291 . S
Eu323 C387 2.787 1_455 S
N324 C320 1.351 1_545 S
N324 Eu323 2.562 1_655 S
N324 C326 1.325 . S
C325 C319 1.404 . S
C325 C327 1.366 . S
C325 H333 0.930 . S
C326 N324 1.325 . S
C326 C327 1.416 1_545 S
C326 H332 0.929 . S
C327 C325 1.366 . S
C327 C326 1.416 1_565 S
C327 H329 0.930 . S
H328 C317 0.954 . S
H329 C327 0.930 . S
H330 C345 0.930 . S
H331 C352 0.930 . S
H332 C326 0.929 . S
H333 C325 0.930 . S
H334 C348 0.929 . S
H335 C315 0.951 . S
H336 C321 0.931 . S
H337 C322 0.931 . S
H338 C343 0.931 . S
H339 C318 0.929 . S
H340 C351 0.930 . S
N341 Eu312 2.600 . S
N341 C342 1.365 . S
N341 C345 1.319 . S
C342 N341 1.365 . S
C342 C344 1.405 . S
C342 C350 1.448 . S
C343 H338 0.931 . S
C343 C345 1.397 . S
C343 C346 1.367 . S
C344 C342 1.405 . S
C344 C346 1.403 . S
C344 C377 1.439 . S
C345 H330 0.930 . S
C345 N341 1.319 . S
C345 C343 1.397 . S
C346 C343 1.367 . S
C346 C344 1.403 . S
C346 H353 0.929 . S
N347 Eu312 2.562 . S
N347 C348 1.325 . S
N347 C350 1.351 . S
C348 H334 0.929 . S
C348 N347 1.325 . S
C348 C352 1.416 . S
C349 C350 1.430 . S
C349 C351 1.404 . S
C349 C378 1.387 . S
C350 C342 1.448 . S
C350 N347 1.351 . S
C350 C349 1.430 . S
C351 H340 0.930 . S
C351 C349 1.404 . S
C351 C352 1.366 . S
C352 H331 0.930 . S
C352 C348 1.416 . S
C352 C351 1.366 . S
H353 C346 0.929 . S
H354 C377 0.931 . S
H355 C378 0.931 . S
O356 Eu312 2.462 . S
O356 C376 1.252 . S
O357 Eu312 2.373 . S
O357 C368 1.249 . S
O358 Eu323 2.335 . S
O358 C368 1.264 . S
O359 Eu312 2.432 . S
O359 C376 1.268 . S
O360 Eu312 2.291 . S
O360 C375 1.255 . S
O361 Eu323 2.377 . S
O361 C375 1.258 . S
O362 Eu323 2.462 1_655 S
O362 C387 1.252 . S
O363 Eu323 2.373 . S
O363 C379 1.249 . S
O364 Eu312 2.335 . S
O364 C379 1.264 . S
O365 Eu323 2.432 1_655 S
O365 C387 1.268 . S
O366 Eu323 2.291 . S
O366 C386 1.255 . S
O367 Eu312 2.372 . S
O367 C386 1.257 . S
C368 O357 1.249 . S
C368 O358 1.264 . S
C369 C372 1.382 . S
C369 C374 1.390 . S
C369 C376 1.506 . S
C370 C371 1.398 . S
C370 C374 1.392 . S
C371 C370 1.398 . S
C371 C373 1.372 . S
C371 H388 0.931 . S
C372 C369 1.382 . S
C372 C373 1.390 . S
C372 H389 0.931 . S
C373 C371 1.372 . S
C373 C372 1.390 . S
C373 H390 0.929 . S
C374 C369 1.390 . S
C374 C370 1.392 . S
C374 H391 0.930 . S
C375 O360 1.255 . S
C375 O361 1.258 . S
C376 Eu312 2.787 . S
C376 O356 1.252 . S
C376 O359 1.268 . S
C376 C369 1.506 . S
C377 C344 1.439 . S
C377 H354 0.931 . S
C377 C378 1.374 . S
C378 C349 1.387 . S
C378 H355 0.931 . S
C378 C377 1.374 . S
C379 O363 1.249 . S
C379 O364 1.264 . S
C380 C383 1.382 1_554 S
C380 C384 1.390 . S
C380 C387 1.506 . S
C381 C382 1.398 . S
C381 C384 1.392 . S
C382 C381 1.398 . S
C382 C385 1.372 1_554 S
C382 H392 0.931 . S
C383 C380 1.382 1_556 S
C383 C385 1.390 . S
C383 H393 0.931 . S
C384 C380 1.390 . S
C384 C381 1.392 . S
C384 H394 0.930 . S
C385 C382 1.372 1_556 S
C385 C383 1.390 . S
C385 H395 0.929 . S
C386 O366 1.255 . S
C386 O367 1.257 . S
C387 Eu323 2.787 1_655 S
C387 O362 1.252 . S
C387 O365 1.268 . S
C387 C380 1.506 . S
H388 C371 0.931 . S
H389 C372 0.931 . S
H390 C373 0.929 . S
H391 C374 0.930 . S
H392 C382 0.931 . S
H393 C383 0.931 . S
H394 C384 0.930 . S
H395 C385 0.929 . S
Eu396 N425 2.600 . S
Eu396 N431 2.562 . S
Eu396 O440 2.462 . S
Eu396 O441 2.373 . S
Eu396 O443 2.432 . S
Eu396 O444 2.291 . S
Eu396 O448 2.335 . S
Eu396 O451 2.372 . S
Eu396 C460 2.787 . S
C397 N398 1.365 . S
C397 C400 1.405 . S
C397 C404 1.448 . S
N398 C397 1.365 . S
N398 C401 1.319 . S
N398 Eu407 2.600 . S
C399 C401 1.397 . S
C399 C402 1.367 . S
C399 H419 0.931 . S
C400 C397 1.405 . S
C400 C402 1.403 . S
C400 C406 1.439 . S
C401 N398 1.319 . S
C401 C399 1.397 . S
C401 H412 0.930 . S
C402 C399 1.367 . S
C402 C400 1.403 . S
C402 H423 0.929 . S
C403 C404 1.430 . S
C403 C405 1.387 . S
C403 C409 1.404 . S
C404 C397 1.448 . S
C404 C403 1.430 . S
C404 N408 1.351 . S
C405 C403 1.387 . S
C405 C406 1.374 . S
C405 H420 0.931 . S
C406 C400 1.439 . S
C406 C405 1.374 . S
C406 H421 0.931 . S
Eu407 N398 2.600 . S
Eu407 N408 2.562 . S
Eu407 O442 2.335 . S
Eu407 O445 2.372 . S
Eu407 O446 2.462 . S
Eu407 O447 2.373 . S
Eu407 O449 2.432 . S
Eu407 O450 2.291 . S
Eu407 C471 2.787 . S
N408 C404 1.351 . S
N408 Eu407 2.562 . S
N408 C410 1.325 . S
C409 C403 1.404 . S
C409 C411 1.366 . S
C409 H417 0.930 . S
C410 N408 1.325 . S
C410 C411 1.416 . S
C410 H416 0.929 . S
C411 C409 1.366 . S
C411 C410 1.416 . S
C411 H413 0.930 . S
H412 C401 0.930 . S
H413 C411 0.930 . S
H414 C429 0.930 . S
H415 C436 0.930 . S
H416 C410 0.929 . S
H417 C409 0.930 . S
H418 C432 0.929 . S
H419 C399 0.931 . S
H420 C405 0.931 . S
H421 C406 0.931 . S
H422 C427 0.931 . S
H423 C402 0.929 . S
H424 C435 0.930 . S
N425 Eu396 2.600 . S
N425 C426 1.365 . S
N425 C429 1.319 . S
C426 N425 1.365 . S
C426 C428 1.405 . S
C426 C434 1.448 . S
C427 H422 0.931 . S
C427 C429 1.397 . S
C427 C430 1.367 . S
C428 C426 1.405 . S
C428 C430 1.403 . S
C428 C461 1.439 . S
C429 H414 0.930 . S
C429 N425 1.319 . S
C429 C427 1.397 . S
C430 C427 1.367 . S
C430 C428 1.403 . S
C430 H437 0.929 . S
N431 Eu396 2.562 . S
N431 C432 1.325 . S
N431 C434 1.351 . S
C432 H418 0.929 . S
C432 N431 1.325 . S
C432 C436 1.416 . S
C433 C434 1.430 . S
C433 C435 1.404 . S
C433 C462 1.387 . S
C434 C426 1.448 . S
C434 N431 1.351 . S
C434 C433 1.430 . S
C435 H424 0.930 . S
C435 C433 1.404 . S
C435 C436 1.366 . S
C436 H415 0.930 . S
C436 C432 1.416 . S
C436 C435 1.366 . S
H437 C430 0.929 . S
H438 C461 0.931 . S
H439 C462 0.931 . S
O440 Eu396 2.462 . S
O440 C460 1.252 . S
O441 Eu396 2.373 . S
O441 C452 1.249 . S
O442 Eu407 2.335 . S
O442 C452 1.264 . S
O443 Eu396 2.432 . S
O443 C460 1.268 . S
O444 Eu396 2.291 . S
O444 C459 1.255 . S
O445 Eu407 2.372 . S
O445 C459 1.257 . S
O446 Eu407 2.462 . S
O446 C471 1.252 . S
O447 Eu407 2.373 . S
O447 C463 1.249 . S
O448 Eu396 2.335 . S
O448 C463 1.264 . S
O449 Eu407 2.432 . S
O449 C471 1.268 . S
O450 Eu407 2.291 . S
O450 C470 1.255 . S
O451 Eu396 2.372 . S
O451 C470 1.257 . S
C452 O441 1.249 . S
C452 O442 1.264 . S
C453 C456 1.382 . S
C453 C458 1.390 . S
C453 C460 1.506 . S
C454 C455 1.398 . S
C454 C458 1.392 . S
C455 C454 1.398 . S
C455 C457 1.372 . S
C455 H472 0.931 . S
C456 C453 1.382 . S
C456 C457 1.390 . S
C456 H473 0.931 . S
C457 C455 1.372 . S
C457 C456 1.390 . S
C457 H474 0.929 . S
C458 C453 1.390 . S
C458 C454 1.392 . S
C458 H475 0.930 . S
C459 O444 1.255 . S
C459 O445 1.257 . S
C460 Eu396 2.787 . S
C460 O440 1.252 . S
C460 O443 1.268 . S
C460 C453 1.506 . S
C461 C428 1.439 . S
C461 H438 0.931 . S
C461 C462 1.374 . S
C462 C433 1.387 . S
C462 H439 0.931 . S
C462 C461 1.374 . S
C463 O447 1.249 . S
C463 O448 1.264 . S
C464 C467 1.382 . S
C464 C468 1.390 . S
C464 C471 1.506 . S
C465 C466 1.398 . S
C465 C468 1.392 . S
C466 C465 1.398 . S
C466 C469 1.372 . S
C466 H476 0.931 . S
C467 C464 1.382 . S
C467 C469 1.390 . S
C467 H477 0.931 . S
C468 C464 1.390 . S
C468 C465 1.392 . S
C468 H478 0.930 . S
C469 C466 1.372 . S
C469 C467 1.390 . S
C469 H479 0.929 . S
C470 O450 1.255 . S
C470 O451 1.257 . S
C471 Eu407 2.787 . S
C471 O446 1.252 . S
C471 O449 1.268 . S
C471 C464 1.506 . S
H472 C455 0.931 . S
H473 C456 0.931 . S
H474 C457 0.929 . S
H475 C458 0.930 . S
H476 C466 0.931 . S
H477 C467 0.931 . S
H478 C468 0.930 . S
H479 C469 0.929 . S
Eu480 N509 2.600 1_545 S
Eu480 N515 2.562 1_545 S
Eu480 O524 2.462 . S
Eu480 O525 2.373 1_545 S
Eu480 O527 2.432 . S
Eu480 O528 2.291 . S
Eu480 O532 2.335 . S
Eu480 O535 2.372 . S
Eu480 C544 2.787 . S
C481 N482 1.365 . S
C481 C484 1.405 . S
C481 C488 1.448 . S
N482 C481 1.365 . S
N482 C485 1.319 . S
N482 Eu491 2.600 . S
C483 C485 1.397 . S
C483 C486 1.367 . S
C483 H503 0.931 . S
C484 C481 1.405 . S
C484 C486 1.403 . S
C484 C490 1.439 . S
C485 N482 1.319 . S
C485 C483 1.397 . S
C485 H496 0.930 . S
C486 C483 1.367 . S
C486 C484 1.403 . S
C486 H507 0.929 . S
C487 C488 1.430 . S
C487 C489 1.387 . S
C487 C493 1.404 . S
C488 C481 1.448 . S
C488 C487 1.430 . S
C488 N492 1.351 . S
C489 C487 1.387 . S
C489 C490 1.374 . S
C489 H504 0.931 . S
C490 C484 1.439 . S
C490 C489 1.374 . S
C490 H505 0.931 . S
Eu491 N482 2.600 . S
Eu491 N492 2.562 . S
Eu491 O526 2.335 1_545 S
Eu491 O529 2.372 . S
Eu491 O530 2.462 . S
Eu491 O531 2.373 . S
Eu491 O533 2.432 . S
Eu491 O534 2.291 . S
Eu491 C555 2.787 . S
N492 C488 1.351 . S
N492 Eu491 2.562 . S
N492 C494 1.325 . S
C493 C487 1.404 . S
C493 C495 1.366 . S
C493 H501 0.930 . S
C494 N492 1.325 . S
C494 C495 1.416 . S
C494 H500 0.929 . S
C495 C493 1.366 . S
C495 C494 1.416 . S
C495 H497 0.930 . S
H496 C485 0.930 . S
H497 C495 0.930 . S
H498 C513 0.930 1_545 S
H499 C520 0.930 . S
H500 C494 0.929 . S
H501 C493 0.930 . S
H502 C516 0.929 . S
H503 C483 0.931 . S
H504 C489 0.931 . S
H505 C490 0.931 . S
H506 C511 0.931 . S
H507 C486 0.929 . S
H508 C519 0.930 . S
N509 Eu480 2.600 1_565 S
N509 C510 1.365 . S
N509 C513 1.319 . S
C510 N509 1.365 . S
C510 C512 1.405 . S
C510 C518 1.448 . S
C511 H506 0.931 . S
C511 C513 1.397 . S
C511 C514 1.367 . S
C512 C510 1.405 . S
C512 C514 1.403 . S
C512 C545 1.439 . S
C513 H498 0.930 1_565 S
C513 N509 1.319 . S
C513 C511 1.397 . S
C514 C511 1.367 . S
C514 C512 1.403 . S
C514 H521 0.929 . S
N515 Eu480 2.562 1_565 S
N515 C516 1.325 . S
N515 C518 1.351 . S
C516 H502 0.929 . S
C516 N515 1.325 . S
C516 C520 1.416 . S
C517 C518 1.430 . S
C517 C519 1.404 . S
C517 C546 1.387 . S
C518 C510 1.448 . S
C518 N515 1.351 . S
C518 C517 1.430 . S
C519 H508 0.930 . S
C519 C517 1.404 . S
C519 C520 1.366 . S
C520 H499 0.930 . S
C520 C516 1.416 . S
C520 C519 1.366 . S
H521 C514 0.929 . S
H522 C545 0.931 . S
H523 C546 0.931 . S
O524 Eu480 2.462 . S
O524 C544 1.252 . S
O525 Eu480 2.373 1_565 S
O525 C536 1.249 . S
O526 Eu491 2.335 1_565 S
O526 C536 1.264 . S
O527 Eu480 2.432 . S
O527 C544 1.268 . S
O528 Eu480 2.291 . S
O528 C543 1.255 . S
O529 Eu491 2.372 . S
O529 C543 1.257 . S
O530 Eu491 2.462 . S
O530 C555 1.252 . S
O531 Eu491 2.373 . S
O531 C547 1.249 . S
O532 Eu480 2.335 . S
O532 C547 1.264 . S
O533 Eu491 2.432 . S
O533 C555 1.268 . S
O534 Eu491 2.291 . S
O534 C554 1.255 . S
O535 Eu480 2.372 . S
O535 C554 1.257 . S
C536 O525 1.249 . S
C536 O526 1.264 . S
C537 C540 1.382 . S
C537 C542 1.390 . S
C537 C544 1.506 . S
C538 C539 1.398 . S
C538 C542 1.392 . S
C539 C538 1.398 . S
C539 C541 1.372 . S
C539 H556 0.931 . S
C540 C537 1.382 . S
C540 C541 1.390 . S
C540 H557 0.931 . S
C541 C539 1.372 . S
C541 C540 1.390 . S
C541 H558 0.929 . S
C542 C537 1.390 . S
C542 C538 1.392 . S
C542 H559 0.930 . S
C543 O528 1.255 . S
C543 O529 1.257 . S
C544 Eu480 2.787 . S
C544 O524 1.252 . S
C544 O527 1.268 . S
C544 C537 1.506 . S
C545 C512 1.439 . S
C545 H522 0.931 . S
C545 C546 1.374 . S
C546 C517 1.387 . S
C546 H523 0.931 . S
C546 C545 1.374 . S
C547 O531 1.249 . S
C547 O532 1.264 . S
C548 C551 1.382 . S
C548 C552 1.390 . S
C548 C555 1.506 1_565 S
C549 C550 1.398 . S
C549 C552 1.392 . S
C550 C549 1.398 . S
C550 C553 1.372 . S
C550 H560 0.931 . S
C551 C548 1.382 . S
C551 C553 1.390 . S
C551 H561 0.931 . S
C552 C548 1.390 . S
C552 C549 1.392 . S
C552 H562 0.930 . S
C553 C550 1.372 . S
C553 C551 1.390 . S
C553 H563 0.929 . S
C554 O534 1.255 . S
C554 O535 1.257 . S
C555 Eu491 2.787 . S
C555 O530 1.252 . S
C555 O533 1.268 . S
C555 C548 1.506 1_545 S
H556 C539 0.931 . S
H557 C540 0.931 . S
H558 C541 0.929 . S
H559 C542 0.930 . S
H560 C550 0.931 . S
H561 C551 0.931 . S
H562 C552 0.930 . S
H563 C553 0.929 . S
Eu564 N593 2.600 . S
Eu564 N599 2.562 . S
Eu564 O608 2.462 . S
Eu564 O609 2.373 . S
Eu564 O611 2.432 . S
Eu564 O612 2.291 . S
Eu564 O616 2.335 . S
Eu564 O619 2.372 . S
Eu564 C628 2.787 . S
C565 N566 1.365 . S
C565 C568 1.405 . S
C565 C572 1.448 . S
N566 C565 1.365 . S
N566 C569 1.319 . S
N566 Eu575 2.600 . S
C567 C569 1.397 . S
C567 C570 1.367 . S
C567 H587 0.931 . S
C568 C565 1.405 . S
C568 C570 1.403 . S
C568 C574 1.439 . S
C569 N566 1.319 . S
C569 C567 1.397 . S
C569 H580 0.930 . S
C570 C567 1.367 . S
C570 C568 1.403 . S
C570 H591 0.929 . S
C571 C572 1.430 . S
C571 C573 1.387 . S
C571 C577 1.404 . S
C572 C565 1.448 . S
C572 C571 1.430 . S
C572 N576 1.351 . S
C573 C571 1.387 . S
C573 C574 1.374 . S
C573 H588 0.931 . S
C574 C568 1.439 . S
C574 C573 1.374 . S
C574 H589 0.931 . S
Eu575 N566 2.600 . S
Eu575 N576 2.562 . S
Eu575 O610 2.335 . S
Eu575 O613 2.372 . S
Eu575 O614 2.462 . S
Eu575 O615 2.373 . S
Eu575 O617 2.432 . S
Eu575 O618 2.291 . S
Eu575 C639 2.787 . S
N576 C572 1.351 . S
N576 Eu575 2.562 . S
N576 C578 1.325 . S
C577 C571 1.404 . S
C577 C579 1.366 . S
C577 H585 0.930 . S
C578 N576 1.325 . S
C578 C579 1.416 . S
C578 H584 0.929 . S
C579 C577 1.366 . S
C579 C578 1.416 . S
C579 H581 0.930 . S
H580 C569 0.930 . S
H581 C579 0.930 . S
H582 C597 0.930 . S
H583 C604 0.930 . S
H584 C578 0.929 . S
H585 C577 0.930 . S
H586 C600 0.929 . S
H587 C567 0.931 . S
H588 C573 0.931 . S
H589 C574 0.931 . S
H590 C595 0.931 . S
H591 C570 0.929 . S
H592 C603 0.930 . S
N593 Eu564 2.600 . S
N593 C594 1.365 . S
N593 C597 1.319 . S
C594 N593 1.365 . S
C594 C596 1.405 . S
C594 C602 1.448 . S
C595 H590 0.931 . S
C595 C597 1.397 . S
C595 C598 1.367 . S
C596 C594 1.405 . S
C596 C598 1.403 . S
C596 C629 1.439 . S
C597 H582 0.930 . S
C597 N593 1.319 . S
C597 C595 1.397 . S
C598 C595 1.367 . S
C598 C596 1.403 . S
C598 H605 0.929 . S
N599 Eu564 2.562 . S
N599 C600 1.325 . S
N599 C602 1.351 . S
C600 H586 0.929 . S
C600 N599 1.325 . S
C600 C604 1.416 . S
C601 C602 1.430 . S
C601 C603 1.404 . S
C601 C630 1.387 . S
C602 C594 1.448 . S
C602 N599 1.351 . S
C602 C601 1.430 . S
C603 H592 0.930 . S
C603 C601 1.404 . S
C603 C604 1.366 . S
C604 H583 0.930 . S
C604 C600 1.416 . S
C604 C603 1.366 . S
H605 C598 0.929 . S
H606 C629 0.931 . S
H607 C630 0.931 . S
O608 Eu564 2.462 . S
O608 C628 1.252 . S
O609 Eu564 2.373 . S
O609 C620 1.249 . S
O610 Eu575 2.335 . S
O610 C620 1.264 . S
O611 Eu564 2.432 . S
O611 C628 1.268 . S
O612 Eu564 2.291 . S
O612 C627 1.255 . S
O613 Eu575 2.372 . S
O613 C627 1.257 . S
O614 Eu575 2.462 . S
O614 C639 1.252 . S
O615 Eu575 2.373 . S
O615 C631 1.249 . S
O616 Eu564 2.335 . S
O616 C631 1.264 . S
O617 Eu575 2.432 . S
O617 C639 1.268 . S
O618 Eu575 2.291 . S
O618 C638 1.255 . S
O619 Eu564 2.372 . S
O619 C638 1.257 . S
C620 O609 1.249 . S
C620 O610 1.264 . S
C621 C624 1.382 . S
C621 C626 1.390 . S
C621 C628 1.506 . S
C622 C623 1.398 . S
C622 C626 1.392 . S
C623 C622 1.398 . S
C623 C625 1.372 . S
C623 H640 0.931 . S
C624 C621 1.382 . S
C624 C625 1.390 . S
C624 H641 0.931 . S
C625 C623 1.372 . S
C625 C624 1.390 . S
C625 H642 0.929 . S
C626 C621 1.390 . S
C626 C622 1.392 . S
C626 H643 0.930 . S
C627 O612 1.255 . S
C627 O613 1.257 . S
C628 Eu564 2.787 . S
C628 O608 1.252 . S
C628 O611 1.268 . S
C628 C621 1.506 . S
C629 C596 1.439 . S
C629 H606 0.931 . S
C629 C630 1.374 . S
C630 C601 1.387 . S
C630 H607 0.931 . S
C630 C629 1.374 . S
C631 O615 1.249 . S
C631 O616 1.264 . S
C632 C635 1.382 . S
C632 C636 1.390 . S
C632 C639 1.506 . S
C633 C634 1.398 . S
C633 C636 1.392 . S
C634 C633 1.398 . S
C634 C637 1.372 . S
C634 H644 0.931 . S
C635 C632 1.382 . S
C635 C637 1.390 . S
C635 H645 0.931 . S
C636 C632 1.390 . S
C636 C633 1.392 . S
C636 H646 0.930 . S
C637 C634 1.372 . S
C637 C635 1.390 . S
C637 H647 0.929 . S
C638 O618 1.255 . S
C638 O619 1.257 . S
C639 Eu575 2.787 . S
C639 O614 1.252 . S
C639 O617 1.268 . S
C639 C632 1.506 . S
H640 C623 0.931 . S
H641 C624 0.931 . S
H642 C625 0.929 . S
H643 C626 0.930 . S
H644 C634 0.931 . S
H645 C635 0.931 . S
H646 C636 0.930 . S
H647 C637 0.929 . S
Eu648 N677 2.600 . S
Eu648 N683 2.562 . S
Eu648 O692 2.462 . S
Eu648 O693 2.373 1_565 S
Eu648 O695 2.432 . S
Eu648 O696 2.291 . S
Eu648 O700 2.335 1_565 S
Eu648 O703 2.372 1_565 S
Eu648 C712 2.787 . S
C649 N650 1.365 . S
C649 C652 1.405 . S
C649 C656 1.448 . S
N650 C649 1.365 . S
N650 C653 1.319 1_455 S
N650 Eu659 2.600 . S
C651 C653 1.397 . S
C651 C654 1.367 . S
C651 H671 0.931 . S
C652 C649 1.405 . S
C652 C654 1.403 1_455 S
C652 C658 1.439 . S
C653 N650 1.319 1_655 S
C653 C651 1.397 . S
C653 H664 0.930 . S
C654 C651 1.367 . S
C654 C652 1.403 1_655 S
C654 H675 0.929 . S
C655 C656 1.430 . S
C655 C657 1.387 . S
C655 C661 1.404 . S
C656 C649 1.448 . S
C656 C655 1.430 . S
C656 N660 1.351 . S
C657 C655 1.387 . S
C657 C658 1.374 . S
C657 H672 0.931 . S
C658 C652 1.439 . S
C658 C657 1.374 . S
C658 H673 0.931 . S
Eu659 N650 2.600 . S
Eu659 N660 2.562 . S
Eu659 O694 2.335 . S
Eu659 O697 2.372 1_455 S
Eu659 O698 2.462 . S
Eu659 O699 2.373 . S
Eu659 O701 2.432 . S
Eu659 O702 2.291 . S
Eu659 C723 2.787 . S
N660 C656 1.351 . S
N660 Eu659 2.562 . S
N660 C662 1.325 . S
C661 C655 1.404 . S
C661 C663 1.366 . S
C661 H669 0.930 . S
C662 N660 1.325 . S
C662 C663 1.416 . S
C662 H668 0.929 . S
C663 C661 1.366 . S
C663 C662 1.416 . S
C663 H665 0.930 . S
H664 C653 0.930 . S
H665 C663 0.930 . S
H666 C681 0.930 . S
H667 C688 0.980 . S
H668 C662 0.929 . S
H669 C661 0.930 . S
H670 C684 0.929 . S
H671 C651 0.931 . S
H672 C657 0.931 . S
H673 C658 0.931 . S
H674 C679 0.931 . S
H675 C654 0.929 . S
H676 C687 0.930 . S
N677 Eu648 2.600 . S
N677 C678 1.365 . S
N677 C681 1.319 . S
C678 N677 1.365 . S
C678 C680 1.405 . S
C678 C686 1.448 . S
C679 H674 0.931 . S
C679 C681 1.397 . S
C679 C682 1.367 . S
C680 C678 1.405 . S
C680 C682 1.403 . S
C680 C713 1.439 . S
C681 H666 0.930 . S
C681 N677 1.319 . S
C681 C679 1.397 . S
C682 C679 1.367 . S
C682 C680 1.403 . S
C682 H689 0.929 . S
N683 Eu648 2.562 . S
N683 C684 1.325 . S
N683 C686 1.351 . S
C684 H670 0.929 . S
C684 N683 1.325 . S
C684 C688 1.398 1_455 S
C685 C686 1.430 . S
C685 C687 1.404 . S
C685 C714 1.387 . S
C686 C678 1.448 . S
C686 N683 1.351 . S
C686 C685 1.430 . S
C687 H676 0.930 . S
C687 C685 1.404 . S
C687 C688 1.334 1_455 S
C688 H667 0.980 . S
C688 C684 1.398 1_655 S
C688 C687 1.334 1_655 S
H689 C682 0.929 . S
H690 C713 0.931 . S
H691 C714 0.931 . S
O692 Eu648 2.462 . S
O692 C712 1.252 . S
O693 Eu648 2.373 1_545 S
O693 C704 1.249 . S
O694 Eu659 2.335 . S
O694 C704 1.264 . S
O695 Eu648 2.432 . S
O695 C712 1.268 . S
O696 Eu648 2.291 . S
O696 C711 1.259 1_565 S
O697 Eu659 2.372 1_655 S
O697 C711 1.256 1_655 S
O698 Eu659 2.462 . S
O698 C723 1.252 . S
O699 Eu659 2.373 . S
O699 C715 1.249 . S
O700 Eu648 2.335 1_545 S
O700 C715 1.264 . S
O701 Eu659 2.432 . S
O701 C723 1.268 . S
O702 Eu659 2.291 . S
O702 C722 1.255 . S
O703 Eu648 2.372 1_545 S
O703 C722 1.257 . S
C704 O693 1.249 . S
C704 O694 1.264 . S
C705 C708 1.382 . S
C705 C710 1.390 . S
C705 C712 1.506 . S
C706 C707 1.398 . S
C706 C710 1.392 . S
C707 C706 1.398 . S
C707 C709 1.372 . S
C707 H724 0.931 . S
C708 C705 1.382 . S
C708 C709 1.390 . S
C708 H725 0.931 . S
C709 C707 1.372 . S
C709 C708 1.390 . S
C709 H726 0.929 . S
C710 C705 1.390 . S
C710 C706 1.392 . S
C710 H727 0.930 . S
C711 O696 1.259 1_545 S
C711 O697 1.256 1_455 S
C712 Eu648 2.787 . S
C712 O692 1.252 . S
C712 O695 1.268 . S
C712 C705 1.506 . S
C713 C680 1.439 . S
C713 H690 0.931 . S
C713 C714 1.374 . S
C714 C685 1.387 . S
C714 H691 0.931 . S
C714 C713 1.374 . S
C715 O699 1.249 . S
C715 O700 1.264 . S
C716 C719 1.382 1_455 S
C716 C720 1.390 . S
C716 C723 1.506 . S
C717 C718 1.398 . S
C717 C720 1.392 . S
C718 C717 1.398 . S
C718 C721 1.372 1_455 S
C718 H728 0.931 . S
C719 C716 1.382 1_655 S
C719 C721 1.390 . S
C719 H729 0.931 . S
C720 C716 1.390 . S
C720 C717 1.392 . S
C720 H730 0.930 . S
C721 C718 1.372 1_655 S
C721 C719 1.390 . S
C721 H731 0.929 . S
C722 O702 1.255 . S
C722 O703 1.257 . S
C723 Eu659 2.787 . S
C723 O698 1.252 . S
C723 O701 1.268 . S
C723 C716 1.506 . S
H724 C707 0.931 . S
H725 C708 0.931 . S
H726 C709 0.929 . S
H727 C710 0.930 . S
H728 C718 0.931 . S
H729 C719 0.931 . S
H730 C720 0.930 . S
H731 C721 0.929 . S
Eu732 N761 2.600 . S
Eu732 N767 2.562 . S
Eu732 O776 2.462 . S
Eu732 O777 2.373 . S
Eu732 O779 2.432 . S
Eu732 O780 2.291 . S
Eu732 O784 2.335 . S
Eu732 O787 2.372 . S
Eu732 C796 2.787 . S
C733 N734 1.365 . S
C733 C736 1.405 . S
C733 C740 1.448 . S
N734 C733 1.365 . S
N734 C737 1.319 . S
N734 Eu743 2.600 . S
C735 C737 1.397 . S
C735 C738 1.367 . S
C735 H755 0.931 . S
C736 C733 1.405 . S
C736 C738 1.403 . S
C736 C742 1.439 . S
C737 N734 1.319 . S
C737 C735 1.397 . S
C737 H748 0.930 . S
C738 C735 1.367 . S
C738 C736 1.403 . S
C738 H759 0.929 . S
C739 C740 1.430 . S
C739 C741 1.387 . S
C739 C745 1.404 . S
C740 C733 1.448 . S
C740 C739 1.430 . S
C740 N744 1.351 . S
C741 C739 1.387 . S
C741 C742 1.374 . S
C741 H756 0.931 . S
C742 C736 1.439 . S
C742 C741 1.374 . S
C742 H757 0.931 . S
Eu743 N734 2.600 . S
Eu743 N744 2.562 . S
Eu743 O778 2.335 . S
Eu743 O781 2.372 . S
Eu743 O782 2.462 . S
Eu743 O783 2.373 . S
Eu743 O785 2.432 . S
Eu743 O786 2.291 . S
Eu743 C807 2.787 . S
N744 C740 1.351 . S
N744 Eu743 2.562 . S
N744 C746 1.325 . S
C745 C739 1.404 . S
C745 C747 1.366 . S
C745 H753 0.930 . S
C746 N744 1.325 . S
C746 C747 1.416 . S
C746 H752 0.929 . S
C747 C745 1.366 . S
C747 C746 1.416 . S
C747 H749 0.930 . S
H748 C737 0.930 . S
H749 C747 0.930 . S
H750 C765 0.930 . S
H751 C772 0.930 . S
H752 C746 0.929 . S
H753 C745 0.930 . S
H754 C768 0.929 . S
H755 C735 0.931 . S
H756 C741 0.931 . S
H757 C742 0.931 . S
H758 C763 0.931 . S
H759 C738 0.929 . S
H760 C771 0.930 . S
N761 Eu732 2.600 . S
N761 C762 1.365 . S
N761 C765 1.319 . S
C762 N761 1.365 . S
C762 C764 1.405 . S
C762 C770 1.448 . S
C763 H758 0.931 . S
C763 C765 1.397 . S
C763 C766 1.367 . S
C764 C762 1.405 . S
C764 C766 1.403 . S
C764 C797 1.439 . S
C765 H750 0.930 . S
C765 N761 1.319 . S
C765 C763 1.397 . S
C766 C763 1.367 . S
C766 C764 1.403 . S
C766 H773 0.929 . S
N767 Eu732 2.562 . S
N767 C768 1.325 . S
N767 C770 1.351 . S
C768 H754 0.929 . S
C768 N767 1.325 . S
C768 C772 1.416 . S
C769 C770 1.430 . S
C769 C771 1.404 . S
C769 C798 1.387 . S
C770 C762 1.448 . S
C770 N767 1.351 . S
C770 C769 1.430 . S
C771 H760 0.930 . S
C771 C769 1.404 . S
C771 C772 1.366 . S
C772 H751 0.930 . S
C772 C768 1.416 . S
C772 C771 1.366 . S
H773 C766 0.929 . S
H774 C797 0.931 . S
H775 C798 0.931 . S
O776 Eu732 2.462 . S
O776 C796 1.252 . S
O777 Eu732 2.373 . S
O777 C788 1.249 . S
O778 Eu743 2.335 . S
O778 C788 1.264 . S
O779 Eu732 2.432 . S
O779 C796 1.268 . S
O780 Eu732 2.291 . S
O780 C795 1.255 . S
O781 Eu743 2.372 . S
O781 C795 1.257 . S
O782 Eu743 2.462 . S
O782 C807 1.252 . S
O783 Eu743 2.373 . S
O783 C799 1.249 . S
O784 Eu732 2.335 . S
O784 C799 1.264 . S
O785 Eu743 2.432 . S
O785 C807 1.268 . S
O786 Eu743 2.291 . S
O786 C806 1.255 . S
O787 Eu732 2.372 . S
O787 C806 1.257 . S
C788 O777 1.249 . S
C788 O778 1.264 . S
C789 C792 1.382 . S
C789 C794 1.390 . S
C789 C796 1.506 . S
C790 C791 1.398 . S
C790 C794 1.392 . S
C791 C790 1.398 . S
C791 C793 1.372 . S
C791 H808 0.931 . S
C792 C789 1.382 . S
C792 C793 1.390 . S
C792 H809 0.931 . S
C793 C791 1.372 . S
C793 C792 1.390 . S
C793 H810 0.929 . S
C794 C789 1.390 . S
C794 C790 1.392 . S
C794 H811 0.930 . S
C795 O780 1.255 . S
C795 O781 1.257 . S
C796 Eu732 2.787 . S
C796 O776 1.252 . S
C796 O779 1.268 . S
C796 C789 1.506 . S
C797 C764 1.439 . S
C797 H774 0.931 . S
C797 C798 1.374 . S
C798 C769 1.387 . S
C798 H775 0.931 . S
C798 C797 1.374 . S
C799 O783 1.249 . S
C799 O784 1.264 . S
C800 C803 1.382 . S
C800 C804 1.390 . S
C800 C807 1.506 . S
C801 C802 1.398 . S
C801 C804 1.392 . S
C802 C801 1.398 . S
C802 C805 1.372 . S
C802 H812 0.931 . S
C803 C800 1.382 . S
C803 C805 1.390 . S
C803 H813 0.931 . S
C804 C800 1.390 . S
C804 C801 1.392 . S
C804 H814 0.930 . S
C805 C802 1.372 . S
C805 C803 1.390 . S
C805 H815 0.929 . S
C806 O786 1.255 . S
C806 O787 1.257 . S
C807 Eu743 2.787 . S
C807 O782 1.252 . S
C807 O785 1.268 . S
C807 C800 1.506 . S
H808 C791 0.931 . S
H809 C792 0.931 . S
H810 C793 0.929 . S
H811 C794 0.930 . S
H812 C802 0.931 . S
H813 C803 0.931 . S
H814 C804 0.930 . S
H815 C805 0.929 . S
Eu816 N845 2.600 . S
Eu816 N851 2.562 . S
Eu816 O860 2.462 . S
Eu816 O861 2.373 . S
Eu816 O863 2.432 . S
Eu816 O864 2.291 . S
Eu816 O868 2.329 1_556 S
Eu816 O871 2.372 1_556 S
Eu816 C880 2.787 . S
C817 N818 1.365 . S
C817 C820 1.405 . S
C817 C824 1.448 . S
N818 C817 1.365 . S
N818 C821 1.319 1_545 S
N818 Eu827 2.600 . S
C819 C821 1.397 . S
C819 C822 1.367 . S
C819 H839 0.931 . S
C820 C817 1.405 . S
C820 C822 1.403 1_545 S
C820 C826 1.439 . S
C821 N818 1.319 1_565 S
C821 C819 1.397 . S
C821 H832 0.930 . S
C822 C819 1.367 . S
C822 C820 1.403 1_565 S
C822 H843 0.929 . S
C823 C824 1.430 . S
C823 C825 1.387 . S
C823 C829 1.404 . S
C824 C817 1.448 . S
C824 C823 1.430 . S
C824 N828 1.351 . S
C825 C823 1.387 . S
C825 C826 1.374 . S
C825 H840 0.931 . S
C826 C820 1.439 . S
C826 C825 1.374 . S
C826 H841 0.931 . S
Eu827 N818 2.600 . S
Eu827 N828 2.562 . S
Eu827 O862 2.335 . S
Eu827 O865 2.372 . S
Eu827 O866 2.462 . S
Eu827 O867 2.373 . S
Eu827 O869 2.432 . S
Eu827 O870 2.291 . S
Eu827 C891 2.787 . S
N828 C824 1.351 . S
N828 Eu827 2.562 . S
N828 C830 1.325 . S
C829 C823 1.404 . S
C829 C831 1.366 . S
C829 H837 0.930 . S
C830 N828 1.325 . S
C830 C831 1.416 . S
C830 H836 0.929 . S
C831 C829 1.366 . S
C831 C830 1.416 . S
C831 H833 0.930 . S
H832 C821 0.930 . S
H833 C831 0.930 . S
H834 C849 0.930 . S
H835 C856 0.930 1_565 S
H836 C830 0.929 . S
H837 C829 0.930 . S
H838 C852 0.929 . S
H839 C819 0.931 . S
H840 C825 0.931 . S
H841 C826 0.931 . S
H842 C847 0.931 . S
H843 C822 0.929 . S
H844 C855 0.930 . S
N845 Eu816 2.600 . S
N845 C846 1.365 . S
N845 C849 1.319 . S
C846 N845 1.365 . S
C846 C848 1.405 . S
C846 C854 1.448 . S
C847 H842 0.931 . S
C847 C849 1.397 . S
C847 C850 1.367 . S
C848 C846 1.405 . S
C848 C850 1.403 . S
C848 C881 1.439 . S
C849 H834 0.930 . S
C849 N845 1.319 . S
C849 C847 1.397 . S
C850 C847 1.367 . S
C850 C848 1.403 . S
C850 H857 0.929 . S
N851 Eu816 2.562 . S
N851 C852 1.325 . S
N851 C854 1.351 . S
C852 H838 0.929 . S
C852 N851 1.325 . S
C852 C856 1.416 . S
C853 C854 1.430 . S
C853 C855 1.404 . S
C853 C882 1.387 . S
C854 C846 1.448 . S
C854 N851 1.351 . S
C854 C853 1.430 . S
C855 H844 0.930 . S
C855 C853 1.404 . S
C855 C856 1.366 . S
C856 H835 0.930 1_545 S
C856 C852 1.416 . S
C856 C855 1.366 . S
H857 C850 0.929 . S
H858 C881 0.931 . S
H859 C882 0.931 . S
O860 Eu816 2.462 . S
O860 C880 1.252 . S
O861 Eu816 2.373 . S
O861 C872 1.249 1_556 S
O862 Eu827 2.335 . S
O862 C872 1.264 . S
O863 Eu816 2.432 . S
O863 C880 1.268 . S
O864 Eu816 2.291 . S
O864 C879 1.255 . S
O865 Eu827 2.372 . S
O865 C879 1.257 1_554 S
O866 Eu827 2.462 . S
O866 C891 1.252 . S
O867 Eu827 2.373 . S
O867 C883 1.249 . S
O868 Eu816 2.329 1_554 S
O868 C883 1.277 . S
O869 Eu827 2.432 . S
O869 C891 1.268 . S
O870 Eu827 2.291 . S
O870 C890 1.255 . S
O871 Eu816 2.372 1_554 S
O871 C890 1.257 . S
C872 O861 1.249 1_554 S
C872 O862 1.264 . S
C873 C876 1.382 . S
C873 C878 1.390 . S
C873 C880 1.506 . S
C874 C875 1.398 . S
C874 C878 1.392 . S
C875 C874 1.398 . S
C875 C877 1.372 . S
C875 H892 0.931 . S
C876 C873 1.382 . S
C876 C877 1.390 . S
C876 H893 0.931 . S
C877 C875 1.372 . S
C877 C876 1.390 . S
C877 H894 0.929 . S
C878 C873 1.390 . S
C878 C874 1.392 . S
C878 H895 0.930 . S
C879 O864 1.255 . S
C879 O865 1.257 1_556 S
C880 Eu816 2.787 . S
C880 O860 1.252 . S
C880 O863 1.268 . S
C880 C873 1.506 . S
C881 C848 1.439 . S
C881 H858 0.931 . S
C881 C882 1.374 . S
C882 C853 1.387 . S
C882 H859 0.931 . S
C882 C881 1.374 . S
C883 O867 1.249 . S
C883 O868 1.277 . S
C884 C887 1.382 1_545 S
C884 C888 1.390 . S
C884 C891 1.506 . S
C885 C886 1.367 1_545 S
C885 C888 1.392 . S
C886 C885 1.367 1_565 S
C886 C889 1.394 . S
C886 H896 0.940 . S
C887 C884 1.382 1_565 S
C887 C889 1.390 . S
C887 H897 0.931 . S
C888 C884 1.390 . S
C888 C885 1.392 . S
C888 H898 0.930 . S
C889 C886 1.394 . S
C889 C887 1.390 . S
C889 H899 0.929 . S
C890 O870 1.255 . S
C890 O871 1.257 . S
C891 Eu827 2.787 . S
C891 O866 1.252 . S
C891 O869 1.268 . S
C891 C884 1.506 . S
H892 C875 0.931 . S
H893 C876 0.931 . S
H894 C877 0.929 . S
H895 C878 0.930 . S
H896 C886 0.940 . S
H897 C887 0.931 . S
H898 C888 0.930 . S
H899 C889 0.929 . S
Eu900 N929 2.600 . S
Eu900 N935 2.562 . S
Eu900 O944 2.462 . S
Eu900 O945 2.373 . S
Eu900 O947 2.432 . S
Eu900 O948 2.291 . S
Eu900 O952 2.335 . S
Eu900 O955 2.372 . S
Eu900 C964 2.787 . S
C901 N902 1.365 . S
C901 C904 1.405 . S
C901 C908 1.448 . S
N902 C901 1.365 . S
N902 C905 1.319 . S
N902 Eu911 2.600 . S
C903 C905 1.397 . S
C903 C906 1.367 . S
C903 H923 0.931 . S
C904 C901 1.405 . S
C904 C906 1.403 . S
C904 C910 1.439 . S
C905 N902 1.319 . S
C905 C903 1.397 . S
C905 H916 0.930 . S
C906 C903 1.367 . S
C906 C904 1.403 . S
C906 H927 0.929 . S
C907 C908 1.430 . S
C907 C909 1.387 . S
C907 C913 1.404 . S
C908 C901 1.448 . S
C908 C907 1.430 . S
C908 N912 1.351 . S
C909 C907 1.387 . S
C909 C910 1.374 . S
C909 H924 0.931 . S
C910 C904 1.439 . S
C910 C909 1.374 . S
C910 H925 0.931 . S
Eu911 N902 2.600 . S
Eu911 N912 2.562 . S
Eu911 O946 2.335 . S
Eu911 O949 2.372 . S
Eu911 O950 2.462 . S
Eu911 O951 2.373 . S
Eu911 O953 2.432 . S
Eu911 O954 2.291 . S
Eu911 C975 2.787 . S
N912 C908 1.351 . S
N912 Eu911 2.562 . S
N912 C914 1.325 . S
C913 C907 1.404 . S
C913 C915 1.366 . S
C913 H921 0.930 . S
C914 N912 1.325 . S
C914 C915 1.416 . S
C914 H920 0.929 . S
C915 C913 1.366 . S
C915 C914 1.416 . S
C915 H917 0.930 . S
H916 C905 0.930 . S
H917 C915 0.930 . S
H918 C933 0.930 . S
H919 C940 0.930 . S
H920 C914 0.929 . S
H921 C913 0.930 . S
H922 C936 0.929 . S
H923 C903 0.931 . S
H924 C909 0.931 . S
H925 C910 0.931 . S
H926 C931 0.931 . S
H927 C906 0.929 . S
H928 C939 0.930 . S
N929 Eu900 2.600 . S
N929 C930 1.365 . S
N929 C933 1.319 . S
C930 N929 1.365 . S
C930 C932 1.405 . S
C930 C938 1.448 . S
C931 H926 0.931 . S
C931 C933 1.397 . S
C931 C934 1.367 . S
C932 C930 1.405 . S
C932 C934 1.403 . S
C932 C965 1.439 . S
C933 H918 0.930 . S
C933 N929 1.319 . S
C933 C931 1.397 . S
C934 C931 1.367 . S
C934 C932 1.403 . S
C934 H941 0.929 . S
N935 Eu900 2.562 . S
N935 C936 1.325 . S
N935 C938 1.351 . S
C936 H922 0.929 . S
C936 N935 1.325 . S
C936 C940 1.416 . S
C937 C938 1.430 . S
C937 C939 1.404 . S
C937 C966 1.387 . S
C938 C930 1.448 . S
C938 N935 1.351 . S
C938 C937 1.430 . S
C939 H928 0.930 . S
C939 C937 1.404 . S
C939 C940 1.366 . S
C940 H919 0.930 . S
C940 C936 1.416 . S
C940 C939 1.366 . S
H941 C934 0.929 . S
H942 C965 0.931 . S
H943 C966 0.931 . S
O944 Eu900 2.462 . S
O944 C964 1.252 . S
O945 Eu900 2.373 . S
O945 C956 1.249 . S
O946 Eu911 2.335 . S
O946 C956 1.264 . S
O947 Eu900 2.432 . S
O947 C964 1.268 . S
O948 Eu900 2.291 . S
O948 C963 1.255 . S
O949 Eu911 2.372 . S
O949 C963 1.257 . S
O950 Eu911 2.462 . S
O950 C975 1.252 . S
O951 Eu911 2.373 . S
O951 C967 1.249 . S
O952 Eu900 2.335 . S
O952 C967 1.264 . S
O953 Eu911 2.432 . S
O953 C975 1.268 . S
O954 Eu911 2.291 . S
O954 C974 1.255 . S
O955 Eu900 2.372 . S
O955 C974 1.257 . S
C956 O945 1.249 . S
C956 O946 1.264 . S
C957 C960 1.382 . S
C957 C962 1.390 . S
C957 C964 1.506 . S
C958 C959 1.398 . S
C958 C962 1.392 . S
C959 C958 1.398 . S
C959 C961 1.372 . S
C959 H976 0.931 . S
C960 C957 1.382 . S
C960 C961 1.390 . S
C960 H977 0.931 . S
C961 C959 1.372 . S
C961 C960 1.390 . S
C961 H978 0.929 . S
C962 C957 1.390 . S
C962 C958 1.392 . S
C962 H979 0.930 . S
C963 O948 1.255 . S
C963 O949 1.257 . S
C964 Eu900 2.787 . S
C964 O944 1.252 . S
C964 O947 1.268 . S
C964 C957 1.506 . S
C965 C932 1.439 . S
C965 H942 0.931 . S
C965 C966 1.374 . S
C966 C937 1.387 . S
C966 H943 0.931 . S
C966 C965 1.374 . S
C967 O951 1.249 . S
C967 O952 1.264 . S
C968 C971 1.382 . S
C968 C972 1.390 . S
C968 C975 1.506 . S
C969 C970 1.398 . S
C969 C972 1.392 . S
C970 C969 1.398 . S
C970 C973 1.372 . S
C970 H980 0.931 . S
C971 C968 1.382 . S
C971 C973 1.390 . S
C971 H981 0.931 . S
C972 C968 1.390 . S
C972 C969 1.392 . S
C972 H982 0.930 . S
C973 C970 1.372 . S
C973 C971 1.390 . S
C973 H983 0.929 . S
C974 O954 1.255 . S
C974 O955 1.257 . S
C975 Eu911 2.787 . S
C975 O950 1.252 . S
C975 O953 1.268 . S
C975 C968 1.506 . S
H976 C959 0.931 . S
H977 C960 0.931 . S
H978 C961 0.929 . S
H979 C962 0.930 . S
H980 C970 0.931 . S
H981 C971 0.931 . S
H982 C972 0.930 . S
H983 C973 0.929 . S
Eu984 N1013 2.600 1_554 S
Eu984 N1019 2.562 1_554 S
Eu984 O1028 2.462 . S
Eu984 O1029 2.373 1_554 S
Eu984 O1031 2.432 . S
Eu984 O1032 2.291 . S
Eu984 O1036 2.335 . S
Eu984 O1039 2.372 . S
Eu984 C1048 2.787 . S
C985 N986 1.365 . S
C985 C988 1.405 . S
C985 C992 1.448 . S
N986 C985 1.365 . S
N986 C989 1.319 . S
N986 Eu995 2.600 . S
C987 C989 1.397 . S
C987 C990 1.367 . S
C987 H1007 0.931 . S
C988 C985 1.405 . S
C988 C990 1.403 . S
C988 C994 1.439 . S
C989 N986 1.319 . S
C989 C987 1.397 . S
C989 H1000 0.930 . S
C990 C987 1.367 . S
C990 C988 1.403 . S
C990 H1011 0.929 . S
C991 C992 1.430 . S
C991 C993 1.387 . S
C991 C997 1.404 . S
C992 C985 1.448 . S
C992 C991 1.430 . S
C992 N996 1.351 . S
C993 C991 1.387 . S
C993 C994 1.374 . S
C993 H1008 0.931 . S
C994 C988 1.439 . S
C994 C993 1.374 . S
C994 H1009 0.931 . S
Eu995 N986 2.600 . S
Eu995 N996 2.562 . S
Eu995 O1030 2.335 1_554 S
Eu995 O1033 2.372 . S
Eu995 O1034 2.462 . S
Eu995 O1035 2.373 . S
Eu995 O1037 2.432 . S
Eu995 O1038 2.291 . S
Eu995 C1059 2.752 1_554 S
N996 C992 1.351 . S
N996 Eu995 2.562 . S
N996 C998 1.325 . S
C997 C991 1.404 . S
C997 C999 1.366 . S
C997 H1005 0.930 . S
C998 N996 1.325 . S
C998 C999 1.416 . S
C998 H1004 0.929 . S
C999 C997 1.366 . S
C999 C998 1.416 . S
C999 H1001 0.930 . S
H1000 C989 0.930 . S
H1001 C999 0.930 . S
H1002 C1017 0.930 . S
H1003 C1024 0.930 . S
H1004 C998 0.929 . S
H1005 C997 0.930 . S
H1006 C1020 0.929 . S
H1007 C987 0.931 . S
H1008 C993 0.931 . S
H1009 C994 0.931 . S
H1010 C1015 0.931 . S
H1011 C990 0.929 . S
H1012 C1023 0.930 . S
N1013 Eu984 2.600 1_556 S
N1013 C1014 1.365 . S
N1013 C1017 1.319 . S
C1014 N1013 1.365 . S
C1014 C1016 1.405 . S
C1014 C1022 1.448 . S
C1015 H1010 0.931 . S
C1015 C1017 1.397 . S
C1015 C1018 1.367 . S
C1016 C1014 1.405 . S
C1016 C1018 1.403 . S
C1016 C1049 1.439 . S
C1017 H1002 0.930 . S
C1017 N1013 1.319 . S
C1017 C1015 1.397 . S
C1018 C1015 1.367 . S
C1018 C1016 1.403 . S
C1018 H1025 0.929 . S
N1019 Eu984 2.562 1_556 S
N1019 C1020 1.325 . S
N1019 C1022 1.351 . S
C1020 H1006 0.929 . S
C1020 N1019 1.325 . S
C1020 C1024 1.416 . S
C1021 C1022 1.430 . S
C1021 C1023 1.404 . S
C1021 C1050 1.387 . S
C1022 C1014 1.448 . S
C1022 N1019 1.351 . S
C1022 C1021 1.430 . S
C1023 H1012 0.930 . S
C1023 C1021 1.404 . S
C1023 C1024 1.366 . S
C1024 H1003 0.930 . S
C1024 C1020 1.416 . S
C1024 C1023 1.366 . S
H1025 C1018 0.929 . S
H1026 C1049 0.931 . S
H1027 C1050 0.931 . S
O1028 Eu984 2.462 . S
O1028 C1048 1.252 . S
O1029 Eu984 2.373 1_556 S
O1029 C1040 1.249 . S
O1030 Eu995 2.335 1_556 S
O1030 C1040 1.264 . S
O1031 Eu984 2.432 . S
O1031 C1048 1.268 . S
O1032 Eu984 2.291 . S
O1032 C1047 1.255 . S
O1033 Eu995 2.372 . S
O1033 C1047 1.257 . S
O1034 Eu995 2.462 . S
O1034 C1059 1.248 1_554 S
O1035 Eu995 2.373 . S
O1035 C1051 1.249 . S
O1036 Eu984 2.335 . S
O1036 C1051 1.264 . S
O1037 Eu995 2.432 . S
O1037 C1059 1.243 1_554 S
O1038 Eu995 2.291 . S
O1038 C1058 1.255 . S
O1039 Eu984 2.372 . S
O1039 C1058 1.257 . S
C1040 O1029 1.249 . S
C1040 O1030 1.264 . S
C1041 C1044 1.382 . S
C1041 C1046 1.390 . S
C1041 C1048 1.506 . S
C1042 C1043 1.398 . S
C1042 C1046 1.392 . S
C1043 C1042 1.398 . S
C1043 C1045 1.372 . S
C1043 H1060 0.931 . S
C1044 C1041 1.382 . S
C1044 C1045 1.390 . S
C1044 H1061 0.931 . S
C1045 C1043 1.372 . S
C1045 C1044 1.390 . S
C1045 H1062 0.929 . S
C1046 C1041 1.390 . S
C1046 C1042 1.392 . S
C1046 H1063 0.930 . S
C1047 O1032 1.255 . S
C1047 O1033 1.257 . S
C1048 Eu984 2.787 . S
C1048 O1028 1.252 . S
C1048 O1031 1.268 . S
C1048 C1041 1.506 . S
C1049 C1016 1.439 . S
C1049 H1026 0.931 . S
C1049 C1050 1.374 . S
C1050 C1021 1.387 . S
C1050 H1027 0.931 . S
C1050 C1049 1.374 . S
C1051 O1035 1.249 . S
C1051 O1036 1.264 . S
C1052 C1055 1.382 . S
C1052 C1056 1.390 . S
C1052 C1059 1.541 . S
C1053 C1054 1.398 . S
C1053 C1056 1.392 . S
C1054 C1053 1.398 . S
C1054 C1057 1.372 . S
C1054 H1064 0.931 . S
C1055 C1052 1.382 . S
C1055 C1057 1.390 . S
C1055 H1065 0.931 . S
C1056 C1052 1.390 . S
C1056 C1053 1.392 . S
C1056 H1066 0.930 . S
C1057 C1054 1.372 . S
C1057 C1055 1.390 . S
C1057 H1067 0.929 . S
C1058 O1038 1.255 . S
C1058 O1039 1.257 . S
C1059 Eu995 2.752 1_556 S
C1059 O1034 1.248 1_556 S
C1059 O1037 1.243 1_556 S
C1059 C1052 1.541 . S
H1060 C1043 0.931 . S
H1061 C1044 0.931 . S
H1062 C1045 0.929 . S
H1063 C1046 0.930 . S
H1064 C1054 0.931 . S
H1065 C1055 0.931 . S
H1066 C1056 0.930 . S
H1067 C1057 0.929 . S
Eu1068 N1097 2.600 . S
Eu1068 N1103 2.562 . S
Eu1068 O1112 2.462 . S
Eu1068 O1113 2.373 . S
Eu1068 O1115 2.432 . S
Eu1068 O1116 2.291 . S
Eu1068 O1120 2.335 . S
Eu1068 O1123 2.372 . S
Eu1068 C1132 2.787 . S
C1069 N1070 1.365 . S
C1069 C1072 1.405 . S
C1069 C1076 1.448 . S
N1070 C1069 1.365 . S
N1070 C1073 1.319 . S
N1070 Eu1079 2.600 . S
C1071 C1073 1.397 . S
C1071 C1074 1.367 . S
C1071 H1091 0.931 . S
C1072 C1069 1.405 . S
C1072 C1074 1.403 . S
C1072 C1078 1.439 . S
C1073 N1070 1.319 . S
C1073 C1071 1.397 . S
C1073 H1084 0.930 . S
C1074 C1071 1.367 . S
C1074 C1072 1.403 . S
C1074 H1095 0.929 . S
C1075 C1076 1.430 . S
C1075 C1077 1.387 . S
C1075 C1081 1.404 . S
C1076 C1069 1.448 . S
C1076 C1075 1.430 . S
C1076 N1080 1.351 . S
C1077 C1075 1.387 . S
C1077 C1078 1.374 . S
C1077 H1092 0.931 . S
C1078 C1072 1.439 . S
C1078 C1077 1.374 . S
C1078 H1093 0.931 . S
Eu1079 N1070 2.600 . S
Eu1079 N1080 2.562 . S
Eu1079 O1114 2.335 . S
Eu1079 O1117 2.372 . S
Eu1079 O1118 2.462 . S
Eu1079 O1119 2.373 . S
Eu1079 O1121 2.432 . S
Eu1079 O1122 2.291 . S
Eu1079 C1143 2.787 . S
N1080 C1076 1.351 . S
N1080 Eu1079 2.562 . S
N1080 C1082 1.325 . S
C1081 C1075 1.404 . S
C1081 C1083 1.366 . S
C1081 H1089 0.930 . S
C1082 N1080 1.325 . S
C1082 C1083 1.416 . S
C1082 H1088 0.929 . S
C1083 C1081 1.366 . S
C1083 C1082 1.416 . S
C1083 H1085 0.930 . S
H1084 C1073 0.930 . S
H1085 C1083 0.930 . S
H1086 C1101 0.930 . S
H1087 C1108 0.930 . S
H1088 C1082 0.929 . S
H1089 C1081 0.930 . S
H1090 C1104 0.929 . S
H1091 C1071 0.931 . S
H1092 C1077 0.931 . S
H1093 C1078 0.931 . S
H1094 C1099 0.931 . S
H1095 C1074 0.929 . S
H1096 C1107 0.930 . S
N1097 Eu1068 2.600 . S
N1097 C1098 1.365 . S
N1097 C1101 1.319 . S
C1098 N1097 1.365 . S
C1098 C1100 1.405 . S
C1098 C1106 1.448 . S
C1099 H1094 0.931 . S
C1099 C1101 1.397 . S
C1099 C1102 1.367 . S
C1100 C1098 1.405 . S
C1100 C1102 1.403 . S
C1100 C1133 1.439 . S
C1101 H1086 0.930 . S
C1101 N1097 1.319 . S
C1101 C1099 1.397 . S
C1102 C1099 1.367 . S
C1102 C1100 1.403 . S
C1102 H1109 0.929 . S
N1103 Eu1068 2.562 . S
N1103 C1104 1.325 . S
N1103 C1106 1.351 . S
C1104 H1090 0.929 . S
C1104 N1103 1.325 . S
C1104 C1108 1.416 . S
C1105 C1106 1.430 . S
C1105 C1107 1.404 . S
C1105 C1134 1.387 . S
C1106 C1098 1.448 . S
C1106 N1103 1.351 . S
C1106 C1105 1.430 . S
C1107 H1096 0.930 . S
C1107 C1105 1.404 . S
C1107 C1108 1.366 . S
C1108 H1087 0.930 . S
C1108 C1104 1.416 . S
C1108 C1107 1.366 . S
H1109 C1102 0.929 . S
H1110 C1133 0.931 . S
H1111 C1134 0.931 . S
O1112 Eu1068 2.462 . S
O1112 C1132 1.252 . S
O1113 Eu1068 2.373 . S
O1113 C1124 1.249 . S
O1114 Eu1079 2.335 . S
O1114 C1124 1.264 . S
O1115 Eu1068 2.432 . S
O1115 C1132 1.268 . S
O1116 Eu1068 2.291 . S
O1116 C1131 1.255 . S
O1117 Eu1079 2.372 . S
O1117 C1131 1.257 . S
O1118 Eu1079 2.462 . S
O1118 C1143 1.252 . S
O1119 Eu1079 2.373 . S
O1119 C1135 1.249 . S
O1120 Eu1068 2.335 . S
O1120 C1135 1.264 . S
O1121 Eu1079 2.432 . S
O1121 C1143 1.268 . S
O1122 Eu1079 2.291 . S
O1122 C1142 1.255 . S
O1123 Eu1068 2.372 . S
O1123 C1142 1.257 . S
C1124 O1113 1.249 . S
C1124 O1114 1.264 . S
C1125 C1128 1.382 . S
C1125 C1130 1.390 . S
C1125 C1132 1.506 . S
C1126 C1127 1.398 . S
C1126 C1130 1.392 . S
C1127 C1126 1.398 . S
C1127 C1129 1.372 . S
C1127 H1144 0.931 . S
C1128 C1125 1.382 . S
C1128 C1129 1.390 . S
C1128 H1145 0.931 . S
C1129 C1127 1.372 . S
C1129 C1128 1.390 . S
C1129 H1146 0.929 . S
C1130 C1125 1.390 . S
C1130 C1126 1.392 . S
C1130 H1147 0.930 . S
C1131 O1116 1.255 . S
C1131 O1117 1.257 . S
C1132 Eu1068 2.787 . S
C1132 O1112 1.252 . S
C1132 O1115 1.268 . S
C1132 C1125 1.506 . S
C1133 C1100 1.439 . S
C1133 H1110 0.931 . S
C1133 C1134 1.374 . S
C1134 C1105 1.387 . S
C1134 H1111 0.931 . S
C1134 C1133 1.374 . S
C1135 O1119 1.249 . S
C1135 O1120 1.264 . S
C1136 C1139 1.382 . S
C1136 C1140 1.390 . S
C1136 C1143 1.506 . S
C1137 C1138 1.398 . S
C1137 C1140 1.392 . S
C1138 C1137 1.398 . S
C1138 C1141 1.372 . S
C1138 H1148 0.931 . S
C1139 C1136 1.382 . S
C1139 C1141 1.390 . S
C1139 H1149 0.931 . S
C1140 C1136 1.390 . S
C1140 C1137 1.392 . S
C1140 H1150 0.930 . S
C1141 C1138 1.372 . S
C1141 C1139 1.390 . S
C1141 H1151 0.929 . S
C1142 O1122 1.255 . S
C1142 O1123 1.257 . S
C1143 Eu1079 2.787 . S
C1143 O1118 1.252 . S
C1143 O1121 1.268 . S
C1143 C1136 1.506 . S
H1144 C1127 0.931 . S
H1145 C1128 0.931 . S
H1146 C1129 0.929 . S
H1147 C1130 0.930 . S
H1148 C1138 0.931 . S
H1149 C1139 0.931 . S
H1150 C1140 0.930 . S
H1151 C1141 0.929 . S
Eu1152 N1181 2.600 1_455 S
Eu1152 N1187 2.562 1_455 S
Eu1152 O1196 2.462 . S
Eu1152 O1197 2.373 1_455 S
Eu1152 O1199 2.432 . S
Eu1152 O1200 2.291 . S
Eu1152 O1204 2.335 . S
Eu1152 O1207 2.372 . S
Eu1152 C1216 2.787 . S
C1153 N1154 1.365 . S
C1153 C1156 1.405 . S
C1153 C1160 1.448 . S
N1154 C1153 1.365 . S
N1154 C1157 1.319 . S
N1154 Eu1163 2.600 . S
C1155 C1157 1.397 . S
C1155 C1158 1.367 . S
C1155 H1175 0.931 . S
C1156 C1153 1.405 . S
C1156 C1158 1.403 . S
C1156 C1162 1.439 . S
C1157 N1154 1.319 . S
C1157 C1155 1.397 . S
C1157 H1168 0.930 . S
C1158 C1155 1.367 . S
C1158 C1156 1.403 . S
C1158 H1179 0.929 . S
C1159 C1160 1.430 . S
C1159 C1161 1.387 . S
C1159 C1165 1.404 . S
C1160 C1153 1.448 . S
C1160 C1159 1.430 . S
C1160 N1164 1.351 . S
C1161 C1159 1.387 . S
C1161 C1162 1.374 . S
C1161 H1176 0.931 . S
C1162 C1156 1.439 . S
C1162 C1161 1.374 . S
C1162 H1177 0.931 . S
Eu1163 N1154 2.600 . S
Eu1163 N1164 2.562 . S
Eu1163 O1198 2.335 1_455 S
Eu1163 O1201 2.372 . S
Eu1163 O1202 2.462 . S
Eu1163 O1203 2.373 . S
Eu1163 O1205 2.432 . S
Eu1163 O1206 2.291 . S
Eu1163 C1227 2.787 1_455 S
N1164 C1160 1.351 . S
N1164 Eu1163 2.562 . S
N1164 C1166 1.325 . S
C1165 C1159 1.404 . S
C1165 C1167 1.366 . S
C1165 H1173 0.930 . S
C1166 N1164 1.325 . S
C1166 C1167 1.416 . S
C1166 H1172 0.929 . S
C1167 C1165 1.366 . S
C1167 C1166 1.416 . S
C1167 H1169 0.930 . S
H1168 C1157 0.930 . S
H1169 C1167 0.930 . S
H1170 C1185 0.928 1_455 S
H1171 C1192 0.930 . S
H1172 C1166 0.929 . S
H1173 C1165 0.930 . S
H1174 C1188 0.929 . S
H1175 C1155 0.931 . S
H1176 C1161 0.931 . S
H1177 C1162 0.931 . S
H1178 C1183 0.931 . S
H1179 C1158 0.929 . S
H1180 C1191 0.930 . S
N1181 Eu1152 2.600 1_655 S
N1181 C1182 1.365 . S
N1181 C1185 1.319 . S
C1182 N1181 1.365 . S
C1182 C1184 1.405 . S
C1182 C1190 1.448 . S
C1183 H1178 0.931 . S
C1183 C1185 1.397 . S
C1183 C1186 1.367 . S
C1184 C1182 1.405 . S
C1184 C1186 1.403 . S
C1184 C1217 1.439 . S
C1185 H1170 0.928 1_655 S
C1185 N1181 1.319 . S
C1185 C1183 1.397 . S
C1186 C1183 1.367 . S
C1186 C1184 1.403 . S
C1186 H1193 0.929 . S
N1187 Eu1152 2.562 1_655 S
N1187 C1188 1.325 . S
N1187 C1190 1.351 . S
C1188 H1174 0.929 . S
C1188 N1187 1.325 . S
C1188 C1192 1.416 . S
C1189 C1190 1.430 . S
C1189 C1191 1.404 . S
C1189 C1218 1.387 . S
C1190 C1182 1.448 . S
C1190 N1187 1.351 . S
C1190 C1189 1.430 . S
C1191 H1180 0.930 . S
C1191 C1189 1.404 . S
C1191 C1192 1.366 . S
C1192 H1171 0.930 . S
C1192 C1188 1.416 . S
C1192 C1191 1.366 . S
H1193 C1186 0.929 . S
H1194 C1217 0.931 . S
H1195 C1218 0.931 . S
O1196 Eu1152 2.462 . S
O1196 C1216 1.252 . S
O1197 Eu1152 2.373 1_655 S
O1197 C1208 1.249 . S
O1198 Eu1163 2.335 1_655 S
O1198 C1208 1.264 . S
O1199 Eu1152 2.432 . S
O1199 C1216 1.268 . S
O1200 Eu1152 2.291 . S
O1200 C1215 1.255 . S
O1201 Eu1163 2.372 . S
O1201 C1215 1.257 . S
O1202 Eu1163 2.462 . S
O1202 C1227 1.252 1_455 S
O1203 Eu1163 2.373 . S
O1203 C1219 1.249 . S
O1204 Eu1152 2.335 . S
O1204 C1219 1.264 . S
O1205 Eu1163 2.432 . S
O1205 C1227 1.268 1_455 S
O1206 Eu1163 2.291 . S
O1206 C1226 1.255 . S
O1207 Eu1152 2.372 . S
O1207 C1226 1.257 . S
C1208 O1197 1.249 . S
C1208 O1198 1.264 . S
C1209 C1212 1.382 . S
C1209 C1214 1.390 . S
C1209 C1216 1.506 . S
C1210 C1211 1.398 . S
C1210 C1214 1.392 . S
C1211 C1210 1.398 . S
C1211 C1213 1.372 . S
C1211 H1228 0.931 . S
C1212 C1209 1.382 . S
C1212 C1213 1.390 . S
C1212 H1229 0.931 . S
C1213 C1211 1.372 . S
C1213 C1212 1.390 . S
C1213 H1230 0.929 . S
C1214 C1209 1.390 . S
C1214 C1210 1.392 . S
C1214 H1231 0.930 . S
C1215 O1200 1.255 . S
C1215 O1201 1.257 . S
C1216 Eu1152 2.787 . S
C1216 O1196 1.252 . S
C1216 O1199 1.268 . S
C1216 C1209 1.506 . S
C1217 C1184 1.439 . S
C1217 H1194 0.931 . S
C1217 C1218 1.374 . S
C1218 C1189 1.387 . S
C1218 H1195 0.931 . S
C1218 C1217 1.374 . S
C1219 O1203 1.249 . S
C1219 O1204 1.264 . S
C1220 C1223 1.382 . S
C1220 C1224 1.390 . S
C1220 C1227 1.506 . S
C1221 C1222 1.398 . S
C1221 C1224 1.392 . S
C1222 C1221 1.398 . S
C1222 C1225 1.372 . S
C1222 H1232 0.931 . S
C1223 C1220 1.382 . S
C1223 C1225 1.390 . S
C1223 H1233 0.931 . S
C1224 C1220 1.390 . S
C1224 C1221 1.392 . S
C1224 H1234 0.930 . S
C1225 C1222 1.372 . S
C1225 C1223 1.390 . S
C1225 H1235 0.929 . S
C1226 O1206 1.255 . S
C1226 O1207 1.257 . S
C1227 Eu1163 2.787 1_655 S
C1227 O1202 1.252 1_655 S
C1227 O1205 1.268 1_655 S
C1227 C1220 1.506 . S
H1228 C1211 0.931 . S
H1229 C1212 0.931 . S
H1230 C1213 0.929 . S
H1231 C1214 0.930 . S
H1232 C1222 0.931 . S
H1233 C1223 0.931 . S
H1234 C1224 0.930 . S
H1235 C1225 0.929 . S
Eu1236 N1265 2.600 . S
Eu1236 N1271 2.562 . S
Eu1236 O1280 2.462 . S
Eu1236 O1281 2.373 . S
Eu1236 O1283 2.432 . S
Eu1236 O1284 2.291 . S
Eu1236 O1288 2.335 . S
Eu1236 O1291 2.372 . S
Eu1236 C1300 2.787 . S
C1237 N1238 1.365 . S
C1237 C1240 1.405 . S
C1237 C1244 1.448 . S
N1238 C1237 1.365 . S
N1238 C1241 1.319 . S
N1238 Eu1247 2.600 . S
C1239 C1241 1.397 . S
C1239 C1242 1.367 . S
C1239 H1259 0.931 . S
C1240 C1237 1.405 . S
C1240 C1242 1.403 . S
C1240 C1246 1.439 . S
C1241 N1238 1.319 . S
C1241 C1239 1.397 . S
C1241 H1252 0.930 . S
C1242 C1239 1.367 . S
C1242 C1240 1.403 . S
C1242 H1263 0.929 . S
C1243 C1244 1.430 . S
C1243 C1245 1.387 . S
C1243 C1249 1.404 . S
C1244 C1237 1.448 . S
C1244 C1243 1.430 . S
C1244 N1248 1.351 . S
C1245 C1243 1.387 . S
C1245 C1246 1.374 . S
C1245 H1260 0.931 . S
C1246 C1240 1.439 . S
C1246 C1245 1.374 . S
C1246 H1261 0.931 . S
Eu1247 N1238 2.600 . S
Eu1247 N1248 2.562 . S
Eu1247 O1282 2.335 . S
Eu1247 O1285 2.372 . S
Eu1247 O1286 2.462 . S
Eu1247 O1287 2.373 . S
Eu1247 O1289 2.432 . S
Eu1247 O1290 2.291 . S
Eu1247 C1311 2.787 . S
N1248 C1244 1.351 . S
N1248 Eu1247 2.562 . S
N1248 C1250 1.325 . S
C1249 C1243 1.404 . S
C1249 C1251 1.366 . S
C1249 H1257 0.930 . S
C1250 N1248 1.325 . S
C1250 C1251 1.416 . S
C1250 H1256 0.929 . S
C1251 C1249 1.366 . S
C1251 C1250 1.416 . S
C1251 H1253 0.930 . S
H1252 C1241 0.930 . S
H1253 C1251 0.930 . S
H1254 C1269 0.930 . S
H1255 C1276 0.930 . S
H1256 C1250 0.929 . S
H1257 C1249 0.930 . S
H1258 C1272 0.929 . S
H1259 C1239 0.931 . S
H1260 C1245 0.931 . S
H1261 C1246 0.931 . S
H1262 C1267 0.931 . S
H1263 C1242 0.929 . S
H1264 C1275 0.930 . S
N1265 Eu1236 2.600 . S
N1265 C1266 1.365 . S
N1265 C1269 1.319 . S
C1266 N1265 1.365 . S
C1266 C1268 1.405 . S
C1266 C1274 1.448 . S
C1267 H1262 0.931 . S
C1267 C1269 1.397 . S
C1267 C1270 1.367 . S
C1268 C1266 1.405 . S
C1268 C1270 1.403 . S
C1268 C1301 1.439 . S
C1269 H1254 0.930 . S
C1269 N1265 1.319 . S
C1269 C1267 1.397 . S
C1270 C1267 1.367 . S
C1270 C1268 1.403 . S
C1270 H1277 0.929 . S
N1271 Eu1236 2.562 . S
N1271 C1272 1.325 . S
N1271 C1274 1.351 . S
C1272 H1258 0.929 . S
C1272 N1271 1.325 . S
C1272 C1276 1.416 . S
C1273 C1274 1.430 . S
C1273 C1275 1.404 . S
C1273 C1302 1.387 . S
C1274 C1266 1.448 . S
C1274 N1271 1.351 . S
C1274 C1273 1.430 . S
C1275 H1264 0.930 . S
C1275 C1273 1.404 . S
C1275 C1276 1.366 . S
C1276 H1255 0.930 . S
C1276 C1272 1.416 . S
C1276 C1275 1.366 . S
H1277 C1270 0.929 . S
H1278 C1301 0.931 . S
H1279 C1302 0.931 . S
O1280 Eu1236 2.462 . S
O1280 C1300 1.252 . S
O1281 Eu1236 2.373 . S
O1281 C1292 1.249 . S
O1282 Eu1247 2.335 . S
O1282 C1292 1.264 . S
O1283 Eu1236 2.432 . S
O1283 C1300 1.268 . S
O1284 Eu1236 2.291 . S
O1284 C1299 1.255 . S
O1285 Eu1247 2.372 . S
O1285 C1299 1.257 . S
O1286 Eu1247 2.462 . S
O1286 C1311 1.252 . S
O1287 Eu1247 2.373 . S
O1287 C1303 1.249 . S
O1288 Eu1236 2.335 . S
O1288 C1303 1.264 . S
O1289 Eu1247 2.432 . S
O1289 C1311 1.268 . S
O1290 Eu1247 2.291 . S
O1290 C1310 1.255 . S
O1291 Eu1236 2.372 . S
O1291 C1310 1.257 . S
C1292 O1281 1.249 . S
C1292 O1282 1.264 . S
C1293 C1296 1.382 . S
C1293 C1298 1.390 . S
C1293 C1300 1.506 . S
C1294 C1295 1.398 . S
C1294 C1298 1.392 . S
C1295 C1294 1.398 . S
C1295 C1297 1.372 . S
C1295 H1312 0.931 . S
C1296 C1293 1.382 . S
C1296 C1297 1.390 . S
C1296 H1313 0.931 . S
C1297 C1295 1.372 . S
C1297 C1296 1.390 . S
C1297 H1314 0.929 . S
C1298 C1293 1.390 . S
C1298 C1294 1.392 . S
C1298 H1315 0.930 . S
C1299 O1284 1.255 . S
C1299 O1285 1.257 . S
C1300 Eu1236 2.787 . S
C1300 O1280 1.252 . S
C1300 O1283 1.268 . S
C1300 C1293 1.506 . S
C1301 C1268 1.439 . S
C1301 H1278 0.931 . S
C1301 C1302 1.374 . S
C1302 C1273 1.387 . S
C1302 H1279 0.931 . S
C1302 C1301 1.374 . S
C1303 O1287 1.249 . S
C1303 O1288 1.264 . S
C1304 C1307 1.382 . S
C1304 C1308 1.390 . S
C1304 C1311 1.506 . S
C1305 C1306 1.398 . S
C1305 C1308 1.392 . S
C1306 C1305 1.398 . S
C1306 C1309 1.372 . S
C1306 H1316 0.931 . S
C1307 C1304 1.382 . S
C1307 C1309 1.390 . S
C1307 H1317 0.931 . S
C1308 C1304 1.390 . S
C1308 C1305 1.392 . S
C1308 H1318 0.930 . S
C1309 C1306 1.372 . S
C1309 C1307 1.390 . S
C1309 H1319 0.929 . S
C1310 O1290 1.255 . S
C1310 O1291 1.257 . S
C1311 Eu1247 2.787 . S
C1311 O1286 1.252 . S
C1311 O1289 1.268 . S
C1311 C1304 1.506 . S
H1312 C1295 0.931 . S
H1313 C1296 0.931 . S
H1314 C1297 0.929 . S
H1315 C1298 0.930 . S
H1316 C1306 0.931 . S
H1317 C1307 0.931 . S
H1318 C1308 0.930 . S
H1319 C1309 0.929 . S
Eu1320 N1349 2.600 . S
Eu1320 N1355 2.562 . S
Eu1320 O1364 2.462 . S
Eu1320 O1365 2.373 . S
Eu1320 O1367 2.432 . S
Eu1320 O1368 2.291 . S
Eu1320 O1372 2.335 . S
Eu1320 O1375 2.372 . S
Eu1320 C1384 2.787 . S
C1321 N1322 1.365 . S
C1321 C1324 1.405 . S
C1321 C1328 1.448 . S
N1322 C1321 1.365 . S
N1322 C1325 1.319 . S
N1322 Eu1331 2.600 . S
C1323 C1325 1.397 . S
C1323 C1326 1.367 . S
C1323 H1343 0.931 . S
C1324 C1321 1.405 . S
C1324 C1326 1.403 . S
C1324 C1330 1.439 . S
C1325 N1322 1.319 . S
C1325 C1323 1.397 . S
C1325 H1336 0.930 . S
C1326 C1323 1.367 . S
C1326 C1324 1.403 . S
C1326 H1347 0.929 . S
C1327 C1328 1.430 . S
C1327 C1329 1.387 . S
C1327 C1333 1.404 . S
C1328 C1321 1.448 . S
C1328 C1327 1.430 . S
C1328 N1332 1.351 . S
C1329 C1327 1.387 . S
C1329 C1330 1.374 . S
C1329 H1344 0.931 . S
C1330 C1324 1.439 . S
C1330 C1329 1.374 . S
C1330 H1345 0.931 . S
Eu1331 N1322 2.600 . S
Eu1331 N1332 2.562 . S
Eu1331 O1366 2.335 . S
Eu1331 O1369 2.372 . S
Eu1331 O1370 2.462 . S
Eu1331 O1371 2.373 . S
Eu1331 O1373 2.432 . S
Eu1331 O1374 2.291 . S
Eu1331 C1395 2.787 . S
N1332 C1328 1.351 . S
N1332 Eu1331 2.562 . S
N1332 C1334 1.325 . S
C1333 C1327 1.404 . S
C1333 C1335 1.366 . S
C1333 H1341 0.930 . S
C1334 N1332 1.325 . S
C1334 C1335 1.416 . S
C1334 H1340 0.929 . S
C1335 C1333 1.366 . S
C1335 C1334 1.416 . S
C1335 H1337 0.930 . S
H1336 C1325 0.930 . S
H1337 C1335 0.930 . S
H1338 C1353 0.930 . S
H1339 C1360 0.930 . S
H1340 C1334 0.929 . S
H1341 C1333 0.930 . S
H1342 C1356 0.929 . S
H1343 C1323 0.931 . S
H1344 C1329 0.931 . S
H1345 C1330 0.931 . S
H1346 C1351 0.931 . S
H1347 C1326 0.929 . S
H1348 C1359 0.930 . S
N1349 Eu1320 2.600 . S
N1349 C1350 1.365 . S
N1349 C1353 1.319 . S
C1350 N1349 1.365 . S
C1350 C1352 1.405 . S
C1350 C1358 1.448 . S
C1351 H1346 0.931 . S
C1351 C1353 1.397 . S
C1351 C1354 1.367 . S
C1352 C1350 1.405 . S
C1352 C1354 1.403 . S
C1352 C1385 1.439 . S
C1353 H1338 0.930 . S
C1353 N1349 1.319 . S
C1353 C1351 1.397 . S
C1354 C1351 1.367 . S
C1354 C1352 1.403 . S
C1354 H1361 0.929 . S
N1355 Eu1320 2.562 . S
N1355 C1356 1.325 . S
N1355 C1358 1.351 . S
C1356 H1342 0.929 . S
C1356 N1355 1.325 . S
C1356 C1360 1.416 . S
C1357 C1358 1.430 . S
C1357 C1359 1.404 . S
C1357 C1386 1.387 . S
C1358 C1350 1.448 . S
C1358 N1355 1.351 . S
C1358 C1357 1.430 . S
C1359 H1348 0.930 . S
C1359 C1357 1.404 . S
C1359 C1360 1.366 . S
C1360 H1339 0.930 . S
C1360 C1356 1.416 . S
C1360 C1359 1.366 . S
H1361 C1354 0.929 . S
H1362 C1385 0.931 . S
H1363 C1386 0.931 . S
O1364 Eu1320 2.462 . S
O1364 C1384 1.252 . S
O1365 Eu1320 2.373 . S
O1365 C1376 1.249 . S
O1366 Eu1331 2.335 . S
O1366 C1376 1.264 . S
O1367 Eu1320 2.432 . S
O1367 C1384 1.268 . S
O1368 Eu1320 2.291 . S
O1368 C1383 1.255 . S
O1369 Eu1331 2.372 . S
O1369 C1383 1.257 . S
O1370 Eu1331 2.462 . S
O1370 C1395 1.252 . S
O1371 Eu1331 2.373 . S
O1371 C1387 1.249 . S
O1372 Eu1320 2.335 . S
O1372 C1387 1.264 . S
O1373 Eu1331 2.432 . S
O1373 C1395 1.268 . S
O1374 Eu1331 2.291 . S
O1374 C1394 1.255 . S
O1375 Eu1320 2.372 . S
O1375 C1394 1.257 . S
C1376 O1365 1.249 . S
C1376 O1366 1.264 . S
C1377 C1380 1.382 . S
C1377 C1382 1.390 . S
C1377 C1384 1.506 . S
C1378 C1379 1.398 . S
C1378 C1382 1.392 . S
C1379 C1378 1.398 . S
C1379 C1381 1.372 . S
C1379 H1396 0.931 . S
C1380 C1377 1.382 . S
C1380 C1381 1.390 . S
C1380 H1397 0.931 . S
C1381 C1379 1.372 . S
C1381 C1380 1.390 . S
C1381 H1398 0.929 . S
C1382 C1377 1.390 . S
C1382 C1378 1.392 . S
C1382 H1399 0.930 . S
C1383 O1368 1.255 . S
C1383 O1369 1.257 . S
C1384 Eu1320 2.787 . S
C1384 O1364 1.252 . S
C1384 O1367 1.268 . S
C1384 C1377 1.506 . S
C1385 C1352 1.439 . S
C1385 H1362 0.931 . S
C1385 C1386 1.374 . S
C1386 C1357 1.387 . S
C1386 H1363 0.931 . S
C1386 C1385 1.374 . S
C1387 O1371 1.249 . S
C1387 O1372 1.264 . S
C1388 C1391 1.382 . S
C1388 C1392 1.390 . S
C1388 C1395 1.506 . S
C1389 C1390 1.398 . S
C1389 C1392 1.392 . S
C1390 C1389 1.398 . S
C1390 C1393 1.372 . S
C1390 H1400 0.931 . S
C1391 C1388 1.382 . S
C1391 C1393 1.390 . S
C1391 H1401 0.931 . S
C1392 C1388 1.390 . S
C1392 C1389 1.392 . S
C1392 H1402 0.930 . S
C1393 C1390 1.372 . S
C1393 C1391 1.390 . S
C1393 H1403 0.929 . S
C1394 O1374 1.255 . S
C1394 O1375 1.257 . S
C1395 Eu1331 2.787 . S
C1395 O1370 1.252 . S
C1395 O1373 1.268 . S
C1395 C1388 1.506 . S
H1396 C1379 0.931 . S
H1397 C1380 0.931 . S
H1398 C1381 0.929 . S
H1399 C1382 0.930 . S
H1400 C1390 0.931 . S
H1401 C1391 0.931 . S
H1402 C1392 0.930 . S
H1403 C1393 0.929 . S
Eu1404 N1433 2.600 . S
Eu1404 N1439 2.562 . S
Eu1404 O1448 2.462 . S
Eu1404 O1449 2.373 . S
Eu1404 O1451 2.432 . S
Eu1404 O1452 2.291 . S
Eu1404 O1456 2.335 . S
Eu1404 O1459 2.372 . S
Eu1404 C1468 2.787 . S
C1405 N1406 1.365 . S
C1405 C1408 1.405 . S
C1405 C1412 1.448 . S
N1406 C1405 1.365 . S
N1406 C1409 1.319 . S
N1406 Eu1415 2.600 . S
C1407 C1409 1.397 . S
C1407 C1410 1.367 . S
C1407 H1427 0.931 . S
C1408 C1405 1.405 . S
C1408 C1410 1.403 . S
C1408 C1414 1.439 . S
C1409 N1406 1.319 . S
C1409 C1407 1.397 . S
C1409 H1420 0.930 . S
C1410 C1407 1.367 . S
C1410 C1408 1.403 . S
C1410 H1431 0.929 . S
C1411 C1412 1.430 . S
C1411 C1413 1.387 . S
C1411 C1417 1.404 . S
C1412 C1405 1.448 . S
C1412 C1411 1.430 . S
C1412 N1416 1.351 . S
C1413 C1411 1.387 . S
C1413 C1414 1.374 . S
C1413 H1428 0.931 . S
C1414 C1408 1.439 . S
C1414 C1413 1.374 . S
C1414 H1429 0.931 . S
Eu1415 N1406 2.600 . S
Eu1415 N1416 2.562 . S
Eu1415 O1450 2.335 . S
Eu1415 O1453 2.372 . S
Eu1415 O1454 2.462 . S
Eu1415 O1455 2.373 . S
Eu1415 O1457 2.432 . S
Eu1415 O1458 2.291 . S
Eu1415 C1479 2.787 . S
N1416 C1412 1.351 . S
N1416 Eu1415 2.562 . S
N1416 C1418 1.325 . S
C1417 C1411 1.404 . S
C1417 C1419 1.366 . S
C1417 H1425 0.930 . S
C1418 N1416 1.325 . S
C1418 C1419 1.416 . S
C1418 H1424 0.929 . S
C1419 C1417 1.366 . S
C1419 C1418 1.416 . S
C1419 H1421 0.930 . S
H1420 C1409 0.930 . S
H1421 C1419 0.930 . S
H1422 C1437 0.930 . S
H1423 C1444 0.930 . S
H1424 C1418 0.929 . S
H1425 C1417 0.930 . S
H1426 C1440 0.929 . S
H1427 C1407 0.931 . S
H1428 C1413 0.931 . S
H1429 C1414 0.931 . S
H1430 C1435 0.931 . S
H1431 C1410 0.929 . S
H1432 C1443 0.930 . S
N1433 Eu1404 2.600 . S
N1433 C1434 1.365 . S
N1433 C1437 1.319 . S
C1434 N1433 1.365 . S
C1434 C1436 1.405 . S
C1434 C1442 1.448 . S
C1435 H1430 0.931 . S
C1435 C1437 1.397 . S
C1435 C1438 1.367 . S
C1436 C1434 1.405 . S
C1436 C1438 1.403 . S
C1436 C1469 1.439 . S
C1437 H1422 0.930 . S
C1437 N1433 1.319 . S
C1437 C1435 1.397 . S
C1438 C1435 1.367 . S
C1438 C1436 1.403 . S
C1438 H1445 0.929 . S
N1439 Eu1404 2.562 . S
N1439 C1440 1.325 . S
N1439 C1442 1.351 . S
C1440 H1426 0.929 . S
C1440 N1439 1.325 . S
C1440 C1444 1.416 . S
C1441 C1442 1.430 . S
C1441 C1443 1.404 . S
C1441 C1470 1.387 . S
C1442 C1434 1.448 . S
C1442 N1439 1.351 . S
C1442 C1441 1.430 . S
C1443 H1432 0.930 . S
C1443 C1441 1.404 . S
C1443 C1444 1.366 . S
C1444 H1423 0.930 . S
C1444 C1440 1.416 . S
C1444 C1443 1.366 . S
H1445 C1438 0.929 . S
H1446 C1469 0.931 . S
H1447 C1470 0.931 . S
O1448 Eu1404 2.462 . S
O1448 C1468 1.252 . S
O1449 Eu1404 2.373 . S
O1449 C1460 1.249 . S
O1450 Eu1415 2.335 . S
O1450 C1460 1.264 . S
O1451 Eu1404 2.432 . S
O1451 C1468 1.268 . S
O1452 Eu1404 2.291 . S
O1452 C1467 1.255 . S
O1453 Eu1415 2.372 . S
O1453 C1467 1.257 . S
O1454 Eu1415 2.462 . S
O1454 C1479 1.252 . S
O1455 Eu1415 2.373 . S
O1455 C1471 1.249 . S
O1456 Eu1404 2.335 . S
O1456 C1471 1.264 . S
O1457 Eu1415 2.432 . S
O1457 C1479 1.268 . S
O1458 Eu1415 2.291 . S
O1458 C1478 1.255 . S
O1459 Eu1404 2.372 . S
O1459 C1478 1.257 . S
C1460 O1449 1.249 . S
C1460 O1450 1.264 . S
C1461 C1464 1.382 . S
C1461 C1466 1.390 . S
C1461 C1468 1.506 . S
C1462 C1463 1.398 . S
C1462 C1466 1.392 . S
C1463 C1462 1.398 . S
C1463 C1465 1.372 . S
C1463 H1480 0.931 . S
C1464 C1461 1.382 . S
C1464 C1465 1.390 . S
C1464 H1481 0.931 . S
C1465 C1463 1.372 . S
C1465 C1464 1.390 . S
C1465 H1482 0.929 . S
C1466 C1461 1.390 . S
C1466 C1462 1.392 . S
C1466 H1483 0.930 . S
C1467 O1452 1.255 . S
C1467 O1453 1.257 . S
C1468 Eu1404 2.787 . S
C1468 O1448 1.252 . S
C1468 O1451 1.268 . S
C1468 C1461 1.506 . S
C1469 C1436 1.439 . S
C1469 H1446 0.931 . S
C1469 C1470 1.374 . S
C1470 C1441 1.387 . S
C1470 H1447 0.931 . S
C1470 C1469 1.374 . S
C1471 O1455 1.249 . S
C1471 O1456 1.264 . S
C1472 C1475 1.382 . S
C1472 C1476 1.390 . S
C1472 C1479 1.506 . S
C1473 C1474 1.398 . S
C1473 C1476 1.392 . S
C1474 C1473 1.398 . S
C1474 C1477 1.372 . S
C1474 H1484 0.931 . S
C1475 C1472 1.382 . S
C1475 C1477 1.390 . S
C1475 H1485 0.931 . S
C1476 C1472 1.390 . S
C1476 C1473 1.392 . S
C1476 H1486 0.930 . S
C1477 C1474 1.372 . S
C1477 C1475 1.390 . S
C1477 H1487 0.929 . S
C1478 O1458 1.255 . S
C1478 O1459 1.257 . S
C1479 Eu1415 2.787 . S
C1479 O1454 1.252 . S
C1479 O1457 1.268 . S
C1479 C1472 1.506 . S
H1480 C1463 0.931 . S
H1481 C1464 0.931 . S
H1482 C1465 0.929 . S
H1483 C1466 0.930 . S
H1484 C1474 0.931 . S
H1485 C1475 0.931 . S
H1486 C1476 0.930 . S
H1487 C1477 0.929 . S
Eu1488 N1517 2.600 . S
Eu1488 N1523 2.562 . S
Eu1488 O1532 2.462 . S
Eu1488 O1533 2.373 . S
Eu1488 O1535 2.432 . S
Eu1488 O1536 2.291 . S
Eu1488 O1540 2.335 . S
Eu1488 O1543 2.372 . S
Eu1488 C1552 2.787 . S
C1489 N1490 1.365 . S
C1489 C1492 1.405 . S
C1489 C1496 1.448 . S
N1490 C1489 1.365 . S
N1490 C1493 1.319 . S
N1490 Eu1499 2.600 . S
C1491 C1493 1.397 . S
C1491 C1494 1.367 . S
C1491 H1511 0.931 . S
C1492 C1489 1.405 . S
C1492 C1494 1.403 . S
C1492 C1498 1.439 . S
C1493 N1490 1.319 . S
C1493 C1491 1.397 . S
C1493 H1504 0.930 . S
C1494 C1491 1.367 . S
C1494 C1492 1.403 . S
C1494 H1515 0.929 . S
C1495 C1496 1.430 . S
C1495 C1497 1.387 . S
C1495 C1501 1.404 . S
C1496 C1489 1.448 . S
C1496 C1495 1.430 . S
C1496 N1500 1.351 . S
C1497 C1495 1.387 . S
C1497 C1498 1.374 . S
C1497 H1512 0.931 . S
C1498 C1492 1.439 . S
C1498 C1497 1.374 . S
C1498 H1513 0.931 . S
Eu1499 N1490 2.600 . S
Eu1499 N1500 2.562 . S
Eu1499 O1534 2.335 . S
Eu1499 O1537 2.372 . S
Eu1499 O1538 2.462 . S
Eu1499 O1539 2.373 . S
Eu1499 O1541 2.432 . S
Eu1499 O1542 2.291 . S
Eu1499 C1563 2.787 . S
N1500 C1496 1.351 . S
N1500 Eu1499 2.562 . S
N1500 C1502 1.325 . S
C1501 C1495 1.404 . S
C1501 C1503 1.366 . S
C1501 H1509 0.930 . S
C1502 N1500 1.325 . S
C1502 C1503 1.416 . S
C1502 H1508 0.929 . S
C1503 C1501 1.366 . S
C1503 C1502 1.416 . S
C1503 H1505 0.930 . S
H1504 C1493 0.930 . S
H1505 C1503 0.930 . S
H1506 C1521 0.930 . S
H1507 C1528 0.930 . S
H1508 C1502 0.929 . S
H1509 C1501 0.930 . S
H1510 C1524 0.929 . S
H1511 C1491 0.931 . S
H1512 C1497 0.931 . S
H1513 C1498 0.931 . S
H1514 C1519 0.931 . S
H1515 C1494 0.929 . S
H1516 C1527 0.930 . S
N1517 Eu1488 2.600 . S
N1517 C1518 1.365 . S
N1517 C1521 1.319 . S
C1518 N1517 1.365 . S
C1518 C1520 1.405 . S
C1518 C1526 1.448 . S
C1519 H1514 0.931 . S
C1519 C1521 1.397 . S
C1519 C1522 1.367 . S
C1520 C1518 1.405 . S
C1520 C1522 1.403 . S
C1520 C1553 1.439 . S
C1521 H1506 0.930 . S
C1521 N1517 1.319 . S
C1521 C1519 1.397 . S
C1522 C1519 1.367 . S
C1522 C1520 1.403 . S
C1522 H1529 0.929 . S
N1523 Eu1488 2.562 . S
N1523 C1524 1.325 . S
N1523 C1526 1.351 . S
C1524 H1510 0.929 . S
C1524 N1523 1.325 . S
C1524 C1528 1.416 . S
C1525 C1526 1.430 . S
C1525 C1527 1.404 . S
C1525 C1554 1.387 . S
C1526 C1518 1.448 . S
C1526 N1523 1.351 . S
C1526 C1525 1.430 . S
C1527 H1516 0.930 . S
C1527 C1525 1.404 . S
C1527 C1528 1.366 . S
C1528 H1507 0.930 . S
C1528 C1524 1.416 . S
C1528 C1527 1.366 . S
H1529 C1522 0.929 . S
H1530 C1553 0.931 . S
H1531 C1554 0.931 . S
O1532 Eu1488 2.462 . S
O1532 C1552 1.252 . S
O1533 Eu1488 2.373 . S
O1533 C1544 1.249 . S
O1534 Eu1499 2.335 . S
O1534 C1544 1.264 . S
O1535 Eu1488 2.432 . S
O1535 C1552 1.268 . S
O1536 Eu1488 2.291 . S
O1536 C1551 1.255 . S
O1537 Eu1499 2.372 . S
O1537 C1551 1.257 . S
O1538 Eu1499 2.462 . S
O1538 C1563 1.252 . S
O1539 Eu1499 2.373 . S
O1539 C1555 1.249 . S
O1540 Eu1488 2.335 . S
O1540 C1555 1.264 . S
O1541 Eu1499 2.432 . S
O1541 C1563 1.268 . S
O1542 Eu1499 2.291 . S
O1542 C1562 1.255 . S
O1543 Eu1488 2.372 . S
O1543 C1562 1.257 . S
C1544 O1533 1.249 . S
C1544 O1534 1.264 . S
C1545 C1548 1.382 . S
C1545 C1550 1.390 . S
C1545 C1552 1.506 . S
C1546 C1547 1.398 . S
C1546 C1550 1.392 . S
C1547 C1546 1.398 . S
C1547 C1549 1.372 . S
C1547 H1564 0.931 . S
C1548 C1545 1.382 . S
C1548 C1549 1.390 . S
C1548 H1565 0.931 . S
C1549 C1547 1.372 . S
C1549 C1548 1.390 . S
C1549 H1566 0.929 . S
C1550 C1545 1.390 . S
C1550 C1546 1.392 . S
C1550 H1567 0.930 . S
C1551 O1536 1.255 . S
C1551 O1537 1.257 . S
C1552 Eu1488 2.787 . S
C1552 O1532 1.252 . S
C1552 O1535 1.268 . S
C1552 C1545 1.506 . S
C1553 C1520 1.439 . S
C1553 H1530 0.931 . S
C1553 C1554 1.374 . S
C1554 C1525 1.387 . S
C1554 H1531 0.931 . S
C1554 C1553 1.374 . S
C1555 O1539 1.249 . S
C1555 O1540 1.264 . S
C1556 C1559 1.382 . S
C1556 C1560 1.390 . S
C1556 C1563 1.506 . S
C1557 C1558 1.398 . S
C1557 C1560 1.392 . S
C1558 C1557 1.398 . S
C1558 C1561 1.372 . S
C1558 H1568 0.931 . S
C1559 C1556 1.382 . S
C1559 C1561 1.390 . S
C1559 H1569 0.931 . S
C1560 C1556 1.390 . S
C1560 C1557 1.392 . S
C1560 H1570 0.930 . S
C1561 C1558 1.372 . S
C1561 C1559 1.390 . S
C1561 H1571 0.929 . S
C1562 O1542 1.255 . S
C1562 O1543 1.257 . S
C1563 Eu1499 2.787 . S
C1563 O1538 1.252 . S
C1563 O1541 1.268 . S
C1563 C1556 1.506 . S
H1564 C1547 0.931 . S
H1565 C1548 0.931 . S
H1566 C1549 0.929 . S
H1567 C1550 0.930 . S
H1568 C1558 0.931 . S
H1569 C1559 0.931 . S
H1570 C1560 0.930 . S
H1571 C1561 0.929 . S
Eu1572 N1601 2.600 . S
Eu1572 N1607 2.562 . S
Eu1572 O1616 2.462 . S
Eu1572 O1617 2.373 1_655 S
Eu1572 O1619 2.432 . S
Eu1572 O1620 2.291 . S
Eu1572 O1624 2.335 1_655 S
Eu1572 O1627 2.372 1_655 S
Eu1572 C1636 2.787 . S
C1573 N1574 1.365 1_554 S
C1573 C1576 1.405 1_554 S
C1573 C1580 1.448 . S
N1574 C1573 1.365 1_556 S
N1574 C1577 1.319 . S
N1574 Eu1583 2.600 1_556 S
C1575 C1577 1.397 . S
C1575 C1578 1.367 . S
C1575 H1595 0.931 . S
C1576 C1573 1.405 1_556 S
C1576 C1578 1.403 . S
C1576 C1582 1.439 . S
C1577 N1574 1.319 . S
C1577 C1575 1.397 . S
C1577 H1588 0.930 . S
C1578 C1575 1.367 . S
C1578 C1576 1.403 . S
C1578 H1599 0.929 . S
C1579 C1580 1.430 . S
C1579 C1581 1.387 . S
C1579 C1585 1.404 . S
C1580 C1573 1.448 . S
C1580 C1579 1.430 . S
C1580 N1584 1.351 . S
C1581 C1579 1.387 . S
C1581 C1582 1.374 1_554 S
C1581 H1596 0.931 . S
C1582 C1576 1.439 . S
C1582 C1581 1.374 1_556 S
C1582 H1597 0.931 . S
Eu1583 N1574 2.600 1_554 S
Eu1583 N1584 2.562 . S
Eu1583 O1618 2.335 . S
Eu1583 O1621 2.372 1_554 S
Eu1583 O1622 2.462 . S
Eu1583 O1623 2.373 . S
Eu1583 O1625 2.432 . S
Eu1583 O1626 2.291 . S
Eu1583 C1647 2.787 . S
N1584 C1580 1.351 . S
N1584 Eu1583 2.562 . S
N1584 C1586 1.325 . S
C1585 C1579 1.404 . S
C1585 C1587 1.366 . S
C1585 H1593 0.930 . S
C1586 N1584 1.325 . S
C1586 C1587 1.416 . S
C1586 H1592 0.929 . S
C1587 C1585 1.366 . S
C1587 C1586 1.416 . S
C1587 H1589 0.930 . S
H1588 C1577 0.930 . S
H1589 C1587 0.930 . S
H1590 C1605 0.930 . S
H1591 C1612 0.875 1_556 S
H1592 C1586 0.929 . S
H1593 C1585 0.930 . S
H1594 C1608 0.929 . S
H1595 C1575 0.931 . S
H1596 C1581 0.931 . S
H1597 C1582 0.931 . S
H1598 C1603 0.931 . S
H1599 C1578 0.929 . S
H1600 C1611 0.930 . S
N1601 Eu1572 2.600 . S
N1601 C1602 1.365 . S
N1601 C1605 1.319 . S
C1602 N1601 1.365 . S
C1602 C1604 1.405 . S
C1602 C1610 1.448 . S
C1603 H1598 0.931 . S
C1603 C1605 1.397 . S
C1603 C1606 1.367 . S
C1604 C1602 1.405 . S
C1604 C1606 1.403 . S
C1604 C1637 1.439 . S
C1605 H1590 0.930 . S
C1605 N1601 1.319 . S
C1605 C1603 1.397 . S
C1606 C1603 1.367 . S
C1606 C1604 1.403 . S
C1606 H1613 0.929 . S
N1607 Eu1572 2.562 . S
N1607 C1608 1.325 . S
N1607 C1610 1.351 . S
C1608 H1594 0.929 . S
C1608 N1607 1.325 . S
C1608 C1612 1.416 . S
C1609 C1610 1.430 . S
C1609 C1611 1.404 . S
C1609 C1638 1.387 . S
C1610 C1602 1.448 . S
C1610 N1607 1.351 . S
C1610 C1609 1.430 . S
C1611 H1600 0.930 . S
C1611 C1609 1.404 . S
C1611 C1612 1.366 . S
C1612 H1591 0.875 1_554 S
C1612 C1608 1.416 . S
C1612 C1611 1.366 . S
H1613 C1606 0.929 . S
H1614 C1637 0.931 . S
H1615 C1638 0.931 . S
O1616 Eu1572 2.462 . S
O1616 C1636 1.252 . S
O1617 Eu1572 2.373 1_455 S
O1617 C1628 1.249 . S
O1618 Eu1583 2.335 . S
O1618 C1628 1.264 . S
O1619 Eu1572 2.432 . S
O1619 C1636 1.268 . S
O1620 Eu1572 2.291 . S
O1620 C1635 1.255 . S
O1621 Eu1583 2.372 1_556 S
O1621 C1635 1.258 1_456 S
O1622 Eu1583 2.462 . S
O1622 C1647 1.252 . S
O1623 Eu1583 2.373 . S
O1623 C1639 1.249 . S
O1624 Eu1572 2.335 1_455 S
O1624 C1639 1.264 . S
O1625 Eu1583 2.432 . S
O1625 C1647 1.268 . S
O1626 Eu1583 2.291 . S
O1626 C1646 1.255 . S
O1627 Eu1572 2.372 1_455 S
O1627 C1646 1.257 . S
C1628 O1617 1.249 . S
C1628 O1618 1.264 . S
C1629 C1632 1.382 . S
C1629 C1634 1.390 . S
C1629 C1636 1.506 . S
C1630 C1631 1.398 . S
C1630 C1634 1.392 . S
C1631 C1630 1.398 . S
C1631 C1633 1.372 . S
C1631 H1648 0.931 . S
C1632 C1629 1.382 . S
C1632 C1633 1.390 . S
C1632 H1649 0.931 . S
C1633 C1631 1.372 . S
C1633 C1632 1.390 . S
C1633 H1650 0.929 . S
C1634 C1629 1.390 . S
C1634 C1630 1.392 . S
C1634 H1651 0.930 . S
C1635 O1620 1.255 . S
C1635 O1621 1.258 1_654 S
C1636 Eu1572 2.787 . S
C1636 O1616 1.252 . S
C1636 O1619 1.268 . S
C1636 C1629 1.506 . S
C1637 C1604 1.439 . S
C1637 H1614 0.931 . S
C1637 C1638 1.374 . S
C1638 C1609 1.387 . S
C1638 H1615 0.931 . S
C1638 C1637 1.374 . S
C1639 O1623 1.249 . S
C1639 O1624 1.264 . S
C1640 C1643 1.382 1_554 S
C1640 C1644 1.390 . S
C1640 C1647 1.506 . S
C1641 C1642 1.398 . S
C1641 C1644 1.392 . S
C1642 C1641 1.398 . S
C1642 C1645 1.372 1_554 S
C1642 H1652 0.931 . S
C1643 C1640 1.382 1_556 S
C1643 C1645 1.390 . S
C1643 H1653 0.931 . S
C1644 C1640 1.390 . S
C1644 C1641 1.392 . S
C1644 H1654 0.930 . S
C1645 C1642 1.372 1_556 S
C1645 C1643 1.390 . S
C1645 H1655 0.929 . S
C1646 O1626 1.255 . S
C1646 O1627 1.257 . S
C1647 Eu1583 2.787 . S
C1647 O1622 1.252 . S
C1647 O1625 1.268 . S
C1647 C1640 1.506 . S
H1648 C1631 0.931 . S
H1649 C1632 0.931 . S
H1650 C1633 0.929 . S
H1651 C1634 0.930 . S
H1652 C1642 0.931 . S
H1653 C1643 0.931 . S
H1654 C1644 0.930 . S
H1655 C1645 0.929 . S
H1656 C1674 0.951 . S
H1657 C1676 0.949 1_655 S
H1658 C1678 0.950 . S
H1659 C1679 0.950 . S
H1660 C1681 0.950 . S
H1661 C1684 0.949 . S
H1662 C1685 0.950 . S
H1663 C1687 0.950 . S
H1664 C1688 0.950 . S
H1665 C1689 0.951 . S
H1666 C1691 0.951 . S
H1667 C1693 0.950 . S
H1668 C1694 0.950 . S
H1669 C1696 0.950 1_655 S
H1670 C1699 0.950 . S
H1671 C1700 0.950 . S
H1672 C1702 0.950 . S
H1673 C1703 0.950 . S
C1674 H1656 0.951 . S
C1674 C1675 1.366 1_655 S
C1674 C1676 1.385 1_655 S
C1675 C1674 1.366 1_455 S
C1675 C1679 1.385 . S
C1676 H1657 0.949 1_455 S
C1676 C1674 1.385 1_455 S
C1676 C1677 1.370 . S
C1677 C1676 1.370 . S
C1677 C1678 1.414 . S
C1677 C1680 1.499 . S
C1678 H1658 0.950 . S
C1678 C1677 1.414 . S
C1678 C1679 1.374 . S
C1679 H1659 0.950 . S
C1679 C1675 1.385 . S
C1679 C1678 1.374 . S
C1680 C1677 1.499 . S
C1680 C1681 1.373 . S
C1680 C1682 1.425 . S
C1681 H1660 0.950 . S
C1681 C1680 1.373 . S
C1681 C1697 1.377 . S
C1682 C1680 1.425 . S
C1682 C1683 1.469 1_455 S
C1682 C1696 1.396 . S
C1683 C1682 1.469 1_655 S
C1683 C1684 1.397 . S
C1683 C1688 1.363 . S
C1684 H1661 0.949 . S
C1684 C1683 1.397 . S
C1684 C1685 1.334 . S
C1685 H1662 0.950 . S
C1685 C1684 1.334 . S
C1685 C1686 1.287 . S
C1686 C1685 1.287 . S
C1686 C1687 1.524 . S
C1686 H1705 0.913 . S
C1687 H1663 0.950 . S
C1687 C1686 1.524 . S
C1687 C1688 1.415 . S
C1688 H1664 0.950 . S
C1688 C1683 1.363 . S
C1688 C1687 1.415 . S
C1689 H1665 0.951 . S
C1689 C1690 1.366 . S
C1689 C1691 1.388 . S
C1690 C1689 1.366 . S
C1690 C1694 1.385 . S
C1691 H1666 0.951 . S
C1691 C1689 1.388 . S
C1691 C1692 1.366 . S
C1692 C1691 1.366 . S
C1692 C1693 1.414 1_554 S
C1692 C1695 1.480 1_554 S
C1693 H1667 0.950 . S
C1693 C1692 1.414 1_556 S
C1693 C1694 1.374 1_556 S
C1694 H1668 0.950 . S
C1694 C1690 1.385 . S
C1694 C1693 1.374 1_554 S
C1695 C1692 1.480 1_556 S
C1695 C1696 1.381 . S
C1695 C1697 1.399 . S
C1696 H1669 0.950 1_455 S
C1696 C1682 1.396 . S
C1696 C1695 1.381 . S
C1697 C1681 1.377 . S
C1697 C1695 1.399 . S
C1697 C1698 1.524 1_556 S
C1698 C1697 1.524 1_554 S
C1698 C1699 1.397 1_554 S
C1698 C1703 1.363 . S
C1699 H1670 0.950 . S
C1699 C1698 1.397 1_556 S
C1699 C1700 1.334 . S
C1700 H1671 0.950 . S
C1700 C1699 1.334 . S
C1700 C1701 1.287 1_556 S
C1701 C1700 1.287 1_554 S
C1701 C1702 1.524 . S
C1701 H1704 0.999 . S
C1702 H1672 0.950 . S
C1702 C1701 1.524 . S
C1702 C1703 1.415 . S
C1703 H1673 0.950 . S
C1703 C1698 1.363 . S
C1703 C1702 1.415 . S
H1704 C1701 0.999 . S
H1705 C1686 0.913 . S
H1706 C1724 0.951 . S
H1707 C1726 0.951 . S
H1708 C1728 0.950 . S
H1709 C1729 0.950 . S
H1710 C1731 0.950 . S
H1711 C1734 0.950 . S
H1712 C1735 0.950 . S
H1713 C1737 0.950 . S
H1714 C1738 0.950 . S
H1715 C1739 0.951 . S
H1716 C1741 0.951 . S
H1717 C1743 0.950 . S
H1718 C1744 0.950 . S
H1719 C1746 0.950 . S
H1720 C1749 0.950 . S
H1721 C1750 0.950 . S
H1722 C1752 0.950 . S
H1723 C1753 0.950 . S
C1724 H1706 0.951 . S
C1724 C1725 1.366 . S
C1724 C1726 1.388 . S
C1725 C1724 1.366 . S
C1725 C1729 1.385 . S
C1726 H1707 0.951 . S
C1726 C1724 1.388 . S
C1726 C1727 1.366 . S
C1727 C1726 1.366 . S
C1727 C1728 1.414 . S
C1727 C1730 1.499 . S
C1728 H1708 0.950 . S
C1728 C1727 1.414 . S
C1728 C1729 1.374 . S
C1729 H1709 0.950 . S
C1729 C1725 1.385 . S
C1729 C1728 1.374 . S
C1730 C1727 1.499 . S
C1730 C1731 1.373 . S
C1730 C1732 1.389 . S
C1731 H1710 0.950 . S
C1731 C1730 1.373 . S
C1731 C1747 1.377 . S
C1732 C1730 1.389 . S
C1732 C1733 1.524 . S
C1732 C1746 1.377 . S
C1733 C1732 1.524 . S
C1733 C1734 1.397 . S
C1733 C1738 1.363 . S
C1734 H1711 0.950 . S
C1734 C1733 1.397 . S
C1734 C1735 1.334 . S
C1735 H1712 0.950 . S
C1735 C1734 1.334 . S
C1735 C1736 1.287 . S
C1736 C1735 1.287 . S
C1736 C1737 1.524 . S
C1736 H1755 0.913 . S
C1737 H1713 0.950 . S
C1737 C1736 1.524 . S
C1737 C1738 1.415 . S
C1738 H1714 0.950 . S
C1738 C1733 1.363 . S
C1738 C1737 1.415 . S
C1739 H1715 0.951 . S
C1739 C1740 1.366 . S
C1739 C1741 1.388 . S
C1740 C1739 1.366 . S
C1740 C1744 1.385 . S
C1741 H1716 0.951 . S
C1741 C1739 1.388 . S
C1741 C1742 1.366 . S
C1742 C1741 1.366 . S
C1742 C1743 1.414 . S
C1742 C1745 1.499 . S
C1743 H1717 0.950 . S
C1743 C1742 1.414 . S
C1743 C1744 1.374 . S
C1744 H1718 0.950 . S
C1744 C1740 1.385 . S
C1744 C1743 1.374 . S
C1745 C1742 1.499 . S
C1745 C1746 1.373 . S
C1745 C1747 1.389 . S
C1746 H1719 0.950 . S
C1746 C1732 1.377 . S
C1746 C1745 1.373 . S
C1747 C1731 1.377 . S
C1747 C1745 1.389 . S
C1747 C1748 1.524 . S
C1748 C1747 1.524 . S
C1748 C1749 1.397 . S
C1748 C1753 1.363 . S
C1749 H1720 0.950 . S
C1749 C1748 1.397 . S
C1749 C1750 1.334 . S
C1750 H1721 0.950 . S
C1750 C1749 1.334 . S
C1750 C1751 1.287 . S
C1751 C1750 1.287 . S
C1751 C1752 1.524 . S
C1751 H1754 0.999 . S
C1752 H1722 0.950 . S
C1752 C1751 1.524 . S
C1752 C1753 1.415 . S
C1753 H1723 0.950 . S
C1753 C1748 1.363 . S
C1753 C1752 1.415 . S
H1754 C1751 0.999 . S
H1755 C1736 0.913 . S
H1756 C1774 0.951 . S
H1757 C1776 0.951 . S
H1758 C1778 0.950 . S
H1759 C1779 0.950 . S
H1760 C1781 0.950 . S
H1761 C1784 0.950 . S
H1762 C1785 0.950 . S
H1763 C1787 0.950 . S
H1764 C1788 0.950 . S
H1765 C1789 0.951 . S
H1766 C1791 0.951 . S
H1767 C1793 0.950 . S
H1768 C1794 0.950 . S
H1769 C1796 0.950 . S
H1770 C1799 0.950 . S
H1771 C1800 0.950 . S
H1772 C1802 0.950 . S
H1773 C1803 0.950 . S
C1774 H1756 0.951 . S
C1774 C1775 1.366 . S
C1774 C1776 1.388 . S
C1775 C1774 1.366 . S
C1775 C1779 1.385 . S
C1776 H1757 0.951 . S
C1776 C1774 1.388 . S
C1776 C1777 1.366 . S
C1777 C1776 1.366 . S
C1777 C1778 1.414 . S
C1777 C1780 1.499 . S
C1778 H1758 0.950 . S
C1778 C1777 1.414 . S
C1778 C1779 1.374 . S
C1779 H1759 0.950 . S
C1779 C1775 1.385 . S
C1779 C1778 1.374 . S
C1780 C1777 1.499 . S
C1780 C1781 1.373 . S
C1780 C1782 1.389 . S
C1781 H1760 0.950 . S
C1781 C1780 1.373 . S
C1781 C1797 1.377 . S
C1782 C1780 1.389 . S
C1782 C1783 1.524 . S
C1782 C1796 1.377 . S
C1783 C1782 1.524 . S
C1783 C1784 1.397 . S
C1783 C1788 1.363 . S
C1784 H1761 0.950 . S
C1784 C1783 1.397 . S
C1784 C1785 1.334 . S
C1785 H1762 0.950 . S
C1785 C1784 1.334 . S
C1785 C1786 1.287 . S
C1786 C1785 1.287 . S
C1786 C1787 1.524 . S
C1786 H1805 0.913 . S
C1787 H1763 0.950 . S
C1787 C1786 1.524 . S
C1787 C1788 1.415 . S
C1788 H1764 0.950 . S
C1788 C1783 1.363 . S
C1788 C1787 1.415 . S
C1789 H1765 0.951 . S
C1789 C1790 1.366 . S
C1789 C1791 1.388 . S
C1790 C1789 1.366 . S
C1790 C1794 1.385 . S
C1791 H1766 0.951 . S
C1791 C1789 1.388 . S
C1791 C1792 1.366 . S
C1792 C1791 1.366 . S
C1792 C1793 1.414 . S
C1792 C1795 1.499 . S
C1793 H1767 0.950 . S
C1793 C1792 1.414 . S
C1793 C1794 1.374 . S
C1794 H1768 0.950 . S
C1794 C1790 1.385 . S
C1794 C1793 1.374 . S
C1795 C1792 1.499 . S
C1795 C1796 1.373 . S
C1795 C1797 1.389 . S
C1796 H1769 0.950 . S
C1796 C1782 1.377 . S
C1796 C1795 1.373 . S
C1797 C1781 1.377 . S
C1797 C1795 1.389 . S
C1797 C1798 1.524 . S
C1798 C1797 1.524 . S
C1798 C1799 1.397 . S
C1798 C1803 1.363 . S
C1799 H1770 0.950 . S
C1799 C1798 1.397 . S
C1799 C1800 1.334 . S
C1800 H1771 0.950 . S
C1800 C1799 1.334 . S
C1800 C1801 1.287 . S
C1801 C1800 1.287 . S
C1801 C1802 1.524 . S
C1801 H1804 0.999 . S
C1802 H1772 0.950 . S
C1802 C1801 1.524 . S
C1802 C1803 1.415 . S
C1803 H1773 0.950 . S
C1803 C1798 1.363 . S
C1803 C1802 1.415 . S
H1804 C1801 0.999 . S
H1805 C1786 0.913 . S
H1806 C1824 0.951 . S
H1807 C1826 0.951 . S
H1808 C1828 0.950 . S
H1809 C1829 0.950 . S
H1810 C1831 0.950 . S
H1811 C1834 0.950 . S
H1812 C1835 0.950 . S
H1813 C1837 0.950 . S
H1814 C1838 0.950 . S
H1815 C1839 0.951 . S
H1816 C1841 0.951 . S
H1817 C1843 0.950 . S
H1818 C1844 0.950 . S
H1819 C1846 0.950 . S
H1820 C1849 0.950 . S
H1821 C1850 0.950 . S
H1822 C1852 0.950 . S
H1823 C1853 0.950 . S
C1824 H1806 0.951 . S
C1824 C1825 1.366 . S
C1824 C1826 1.388 . S
C1825 C1824 1.366 . S
C1825 C1829 1.385 . S
C1826 H1807 0.951 . S
C1826 C1824 1.388 . S
C1826 C1827 1.366 . S
C1827 C1826 1.366 . S
C1827 C1828 1.414 . S
C1827 C1830 1.499 . S
C1828 H1808 0.950 . S
C1828 C1827 1.414 . S
C1828 C1829 1.374 . S
C1829 H1809 0.950 . S
C1829 C1825 1.385 . S
C1829 C1828 1.374 . S
C1830 C1827 1.499 . S
C1830 C1831 1.373 . S
C1830 C1832 1.389 . S
C1831 H1810 0.950 . S
C1831 C1830 1.373 . S
C1831 C1847 1.377 . S
C1832 C1830 1.389 . S
C1832 C1833 1.524 . S
C1832 C1846 1.377 . S
C1833 C1832 1.524 . S
C1833 C1834 1.397 . S
C1833 C1838 1.363 . S
C1834 H1811 0.950 . S
C1834 C1833 1.397 . S
C1834 C1835 1.334 . S
C1835 H1812 0.950 . S
C1835 C1834 1.334 . S
C1835 C1836 1.287 . S
C1836 C1835 1.287 . S
C1836 C1837 1.524 . S
C1836 H1855 0.913 . S
C1837 H1813 0.950 . S
C1837 C1836 1.524 . S
C1837 C1838 1.415 . S
C1838 H1814 0.950 . S
C1838 C1833 1.363 . S
C1838 C1837 1.415 . S
C1839 H1815 0.951 . S
C1839 C1840 1.366 . S
C1839 C1841 1.388 . S
C1840 C1839 1.366 . S
C1840 C1844 1.385 . S
C1841 H1816 0.951 . S
C1841 C1839 1.388 . S
C1841 C1842 1.366 . S
C1842 C1841 1.366 . S
C1842 C1843 1.414 . S
C1842 C1845 1.499 . S
C1843 H1817 0.950 . S
C1843 C1842 1.414 . S
C1843 C1844 1.374 . S
C1844 H1818 0.950 . S
C1844 C1840 1.385 . S
C1844 C1843 1.374 . S
C1845 C1842 1.499 . S
C1845 C1846 1.373 . S
C1845 C1847 1.389 . S
C1846 H1819 0.950 . S
C1846 C1832 1.377 . S
C1846 C1845 1.373 . S
C1847 C1831 1.377 . S
C1847 C1845 1.389 . S
C1847 C1848 1.524 . S
C1848 C1847 1.524 . S
C1848 C1849 1.397 . S
C1848 C1853 1.363 . S
C1849 H1820 0.950 . S
C1849 C1848 1.397 . S
C1849 C1850 1.334 . S
C1850 H1821 0.950 . S
C1850 C1849 1.334 . S
C1850 C1851 1.287 . S
C1851 C1850 1.287 . S
C1851 C1852 1.524 . S
C1851 H1854 0.999 . S
C1852 H1822 0.950 . S
C1852 C1851 1.524 . S
C1852 C1853 1.415 . S
C1853 H1823 0.950 . S
C1853 C1848 1.363 . S
C1853 C1852 1.415 . S
H1854 C1851 0.999 . S
H1855 C1836 0.913 . S
H1856 C1874 0.951 . S
H1857 C1876 0.951 . S
H1858 C1878 0.950 . S
H1859 C1879 0.950 . S
H1860 C1881 0.950 . S
H1861 C1884 0.950 . S
H1862 C1885 0.950 . S
H1863 C1887 0.950 . S
H1864 C1888 0.950 . S
H1865 C1889 0.951 . S
H1866 C1891 0.951 . S
H1867 C1893 0.950 . S
H1868 C1894 0.950 . S
H1869 C1896 0.950 . S
H1870 C1899 0.950 . S
H1871 C1900 0.950 . S
H1872 C1902 0.950 . S
H1873 C1903 0.950 . S
C1874 H1856 0.951 . S
C1874 C1875 1.366 . S
C1874 C1876 1.388 . S
C1875 C1874 1.366 . S
C1875 C1879 1.385 . S
C1876 H1857 0.951 . S
C1876 C1874 1.388 . S
C1876 C1877 1.366 . S
C1877 C1876 1.366 . S
C1877 C1878 1.414 . S
C1877 C1880 1.499 . S
C1878 H1858 0.950 . S
C1878 C1877 1.414 . S
C1878 C1879 1.374 . S
C1879 H1859 0.950 . S
C1879 C1875 1.385 . S
C1879 C1878 1.374 . S
C1880 C1877 1.499 . S
C1880 C1881 1.373 . S
C1880 C1882 1.389 . S
C1881 H1860 0.950 . S
C1881 C1880 1.373 . S
C1881 C1897 1.377 . S
C1882 C1880 1.389 . S
C1882 C1883 1.524 . S
C1882 C1896 1.377 . S
C1883 C1882 1.524 . S
C1883 C1884 1.397 . S
C1883 C1888 1.363 . S
C1884 H1861 0.950 . S
C1884 C1883 1.397 . S
C1884 C1885 1.334 . S
C1885 H1862 0.950 . S
C1885 C1884 1.334 . S
C1885 C1886 1.287 . S
C1886 C1885 1.287 . S
C1886 C1887 1.524 . S
C1886 H1905 0.913 . S
C1887 H1863 0.950 . S
C1887 C1886 1.524 . S
C1887 C1888 1.415 . S
C1888 H1864 0.950 . S
C1888 C1883 1.363 . S
C1888 C1887 1.415 . S
C1889 H1865 0.951 . S
C1889 C1890 1.366 . S
C1889 C1891 1.388 . S
C1890 C1889 1.366 . S
C1890 C1894 1.385 . S
C1891 H1866 0.951 . S
C1891 C1889 1.388 . S
C1891 C1892 1.366 . S
C1892 C1891 1.366 . S
C1892 C1893 1.414 . S
C1892 C1895 1.499 . S
C1893 H1867 0.950 . S
C1893 C1892 1.414 . S
C1893 C1894 1.374 . S
C1894 H1868 0.950 . S
C1894 C1890 1.385 . S
C1894 C1893 1.374 . S
C1895 C1892 1.499 . S
C1895 C1896 1.373 . S
C1895 C1897 1.389 . S
C1896 H1869 0.950 . S
C1896 C1882 1.377 . S
C1896 C1895 1.373 . S
C1897 C1881 1.377 . S
C1897 C1895 1.389 . S
C1897 C1898 1.524 . S
C1898 C1897 1.524 . S
C1898 C1899 1.397 1_455 S
C1898 C1903 1.363 . S
C1899 H1870 0.950 . S
C1899 C1898 1.397 1_655 S
C1899 C1900 1.334 . S
C1900 H1871 0.950 . S
C1900 C1899 1.334 . S
C1900 C1901 1.287 . S
C1901 C1900 1.287 . S
C1901 C1902 1.524 1_655 S
C1901 H1904 0.999 . S
C1902 H1872 0.950 . S
C1902 C1901 1.524 1_455 S
C1902 C1903 1.415 . S
C1903 H1873 0.950 . S
C1903 C1898 1.363 . S
C1903 C1902 1.415 . S
H1904 C1901 0.999 . S
H1905 C1886 0.913 . S
H1906 C1924 0.951 . S
H1907 C1926 0.951 . S
H1908 C1928 0.950 . S
H1909 C1929 0.950 . S
H1910 C1931 0.950 . S
H1911 C1934 0.950 . S
H1912 C1935 0.950 . S
H1913 C1937 0.950 . S
H1914 C1938 0.950 . S
H1915 C1939 0.951 . S
H1916 C1941 0.951 . S
H1917 C1943 0.950 . S
H1918 C1944 0.950 . S
H1919 C1946 0.950 . S
H1920 C1949 0.950 . S
H1921 C1950 0.950 . S
H1922 C1952 0.950 . S
H1923 C1953 0.950 . S
C1924 H1906 0.951 . S
C1924 C1925 1.366 . S
C1924 C1926 1.388 . S
C1925 C1924 1.366 . S
C1925 C1929 1.385 . S
C1926 H1907 0.951 . S
C1926 C1924 1.388 . S
C1926 C1927 1.366 . S
C1927 C1926 1.366 . S
C1927 C1928 1.414 . S
C1927 C1930 1.499 . S
C1928 H1908 0.950 . S
C1928 C1927 1.414 . S
C1928 C1929 1.374 . S
C1929 H1909 0.950 . S
C1929 C1925 1.385 . S
C1929 C1928 1.374 . S
C1930 C1927 1.499 . S
C1930 C1931 1.373 . S
C1930 C1932 1.389 . S
C1931 H1910 0.950 . S
C1931 C1930 1.373 . S
C1931 C1947 1.377 . S
C1932 C1930 1.389 . S
C1932 C1933 1.524 . S
C1932 C1946 1.377 . S
C1933 C1932 1.524 . S
C1933 C1934 1.397 . S
C1933 C1938 1.363 . S
C1934 H1911 0.950 . S
C1934 C1933 1.397 . S
C1934 C1935 1.334 . S
C1935 H1912 0.950 . S
C1935 C1934 1.334 . S
C1935 C1936 1.287 . S
C1936 C1935 1.287 . S
C1936 C1937 1.524 . S
C1936 H1955 0.913 . S
C1937 H1913 0.950 . S
C1937 C1936 1.524 . S
C1937 C1938 1.415 . S
C1938 H1914 0.950 . S
C1938 C1933 1.363 . S
C1938 C1937 1.415 . S
C1939 H1915 0.951 . S
C1939 C1940 1.366 . S
C1939 C1941 1.388 . S
C1940 C1939 1.366 . S
C1940 C1944 1.385 . S
C1941 H1916 0.951 . S
C1941 C1939 1.388 . S
C1941 C1942 1.366 . S
C1942 C1941 1.366 . S
C1942 C1943 1.414 . S
C1942 C1945 1.499 . S
C1943 H1917 0.950 . S
C1943 C1942 1.414 . S
C1943 C1944 1.374 . S
C1944 H1918 0.950 . S
C1944 C1940 1.385 . S
C1944 C1943 1.374 . S
C1945 C1942 1.499 . S
C1945 C1946 1.373 . S
C1945 C1947 1.389 . S
C1946 H1919 0.950 . S
C1946 C1932 1.377 . S
C1946 C1945 1.373 . S
C1947 C1931 1.377 . S
C1947 C1945 1.389 . S
C1947 C1948 1.524 . S
C1948 C1947 1.524 . S
C1948 C1949 1.397 . S
C1948 C1953 1.363 . S
C1949 H1920 0.950 . S
C1949 C1948 1.397 . S
C1949 C1950 1.334 . S
C1950 H1921 0.950 . S
C1950 C1949 1.334 . S
C1950 C1951 1.287 . S
C1951 C1950 1.287 . S
C1951 C1952 1.524 . S
C1951 H1954 0.999 . S
C1952 H1922 0.950 . S
C1952 C1951 1.524 . S
C1952 C1953 1.415 . S
C1953 H1923 0.950 . S
C1953 C1948 1.363 . S
C1953 C1952 1.415 . S
H1954 C1951 0.999 . S
H1955 C1936 0.913 . S
H1956 C1974 0.951 . S
H1957 C1976 0.951 . S
H1958 C1978 0.950 . S
H1959 C1979 0.950 . S
H1960 C1981 0.950 . S
H1961 C1984 0.950 . S
H1962 C1985 0.950 . S
H1963 C1987 0.950 . S
H1964 C1988 0.950 . S
H1965 C1989 0.951 . S
H1966 C1991 0.951 . S
H1967 C1993 0.950 . S
H1968 C1994 0.950 . S
H1969 C1996 0.950 . S
H1970 C1999 0.950 . S
H1971 C2000 0.950 . S
H1972 C2002 0.950 . S
H1973 C2003 0.950 . S
C1974 H1956 0.951 . S
C1974 C1975 1.366 . S
C1974 C1976 1.388 . S
C1975 C1974 1.366 . S
C1975 C1979 1.385 . S
C1976 H1957 0.951 . S
C1976 C1974 1.388 . S
C1976 C1977 1.366 . S
C1977 C1976 1.366 . S
C1977 C1978 1.414 . S
C1977 C1980 1.499 . S
C1978 H1958 0.950 . S
C1978 C1977 1.414 . S
C1978 C1979 1.374 . S
C1979 H1959 0.950 . S
C1979 C1975 1.385 . S
C1979 C1978 1.374 . S
C1980 C1977 1.499 . S
C1980 C1981 1.373 . S
C1980 C1982 1.389 . S
C1981 H1960 0.950 . S
C1981 C1980 1.373 . S
C1981 C1997 1.377 . S
C1982 C1980 1.389 . S
C1982 C1983 1.524 . S
C1982 C1996 1.377 . S
C1983 C1982 1.524 . S
C1983 C1984 1.397 . S
C1983 C1988 1.363 . S
C1984 H1961 0.950 . S
C1984 C1983 1.397 . S
C1984 C1985 1.334 . S
C1985 H1962 0.950 . S
C1985 C1984 1.334 . S
C1985 C1986 1.287 . S
C1986 C1985 1.287 . S
C1986 C1987 1.524 . S
C1986 H2005 0.913 . S
C1987 H1963 0.950 . S
C1987 C1986 1.524 . S
C1987 C1988 1.415 . S
C1988 H1964 0.950 . S
C1988 C1983 1.363 . S
C1988 C1987 1.415 . S
C1989 H1965 0.951 . S
C1989 C1990 1.366 . S
C1989 C1991 1.388 . S
C1990 C1989 1.366 . S
C1990 C1994 1.385 . S
C1991 H1966 0.951 . S
C1991 C1989 1.388 . S
C1991 C1992 1.366 . S
C1992 C1991 1.366 . S
C1992 C1993 1.414 . S
C1992 C1995 1.499 . S
C1993 H1967 0.950 . S
C1993 C1992 1.414 . S
C1993 C1994 1.374 . S
C1994 H1968 0.950 . S
C1994 C1990 1.385 . S
C1994 C1993 1.374 . S
C1995 C1992 1.499 . S
C1995 C1996 1.373 . S
C1995 C1997 1.389 . S
C1996 H1969 0.950 . S
C1996 C1982 1.377 . S
C1996 C1995 1.373 . S
C1997 C1981 1.377 . S
C1997 C1995 1.389 . S
C1997 C1998 1.524 . S
C1998 C1997 1.524 . S
C1998 C1999 1.397 . S
C1998 C2003 1.363 . S
C1999 H1970 0.950 . S
C1999 C1998 1.397 . S
C1999 C2000 1.334 . S
C2000 H1971 0.950 . S
C2000 C1999 1.334 . S
C2000 C2001 1.287 . S
C2001 C2000 1.287 . S
C2001 C2002 1.524 . S
C2001 H2004 0.999 . S
C2002 H1972 0.950 . S
C2002 C2001 1.524 . S
C2002 C2003 1.415 . S
C2003 H1973 0.950 . S
C2003 C1998 1.363 . S
C2003 C2002 1.415 . S
H2004 C2001 0.999 . S
H2005 C1986 0.913 . S
H2006 C2024 0.951 . S
H2007 C2026 0.951 . S
H2008 C2028 0.950 . S
H2009 C2029 0.950 . S
H2010 C2031 0.950 . S
H2011 C2034 0.950 . S
H2012 C2035 0.950 . S
H2013 C2037 0.950 . S
H2014 C2038 0.950 . S
H2015 C2039 0.951 . S
H2016 C2041 0.951 . S
H2017 C2043 0.950 . S
H2018 C2044 0.950 . S
H2019 C2046 0.950 . S
H2020 C2049 0.950 . S
H2021 C2050 0.950 . S
H2022 C2052 0.950 . S
H2023 C2053 0.950 . S
C2024 H2006 0.951 . S
C2024 C2025 1.366 . S
C2024 C2026 1.388 . S
C2025 C2024 1.366 . S
C2025 C2029 1.385 . S
C2026 H2007 0.951 . S
C2026 C2024 1.388 . S
C2026 C2027 1.366 . S
C2027 C2026 1.366 . S
C2027 C2028 1.414 . S
C2027 C2030 1.499 . S
C2028 H2008 0.950 . S
C2028 C2027 1.414 . S
C2028 C2029 1.374 . S
C2029 H2009 0.950 . S
C2029 C2025 1.385 . S
C2029 C2028 1.374 . S
C2030 C2027 1.499 . S
C2030 C2031 1.373 . S
C2030 C2032 1.389 . S
C2031 H2010 0.950 . S
C2031 C2030 1.373 . S
C2031 C2047 1.377 . S
C2032 C2030 1.389 . S
C2032 C2033 1.524 . S
C2032 C2046 1.377 . S
C2033 C2032 1.524 . S
C2033 C2034 1.397 . S
C2033 C2038 1.363 . S
C2034 H2011 0.950 . S
C2034 C2033 1.397 . S
C2034 C2035 1.334 . S
C2035 H2012 0.950 . S
C2035 C2034 1.334 . S
C2035 C2036 1.287 . S
C2036 C2035 1.287 . S
C2036 C2037 1.524 . S
C2036 H2055 0.913 . S
C2037 H2013 0.950 . S
C2037 C2036 1.524 . S
C2037 C2038 1.415 . S
C2038 H2014 0.950 . S
C2038 C2033 1.363 . S
C2038 C2037 1.415 . S
C2039 H2015 0.951 . S
C2039 C2040 1.366 . S
C2039 C2041 1.388 . S
C2040 C2039 1.366 . S
C2040 C2044 1.385 . S
C2041 H2016 0.951 . S
C2041 C2039 1.388 . S
C2041 C2042 1.366 . S
C2042 C2041 1.366 . S
C2042 C2043 1.414 . S
C2042 C2045 1.499 . S
C2043 H2017 0.950 . S
C2043 C2042 1.414 . S
C2043 C2044 1.374 . S
C2044 H2018 0.950 . S
C2044 C2040 1.385 . S
C2044 C2043 1.374 . S
C2045 C2042 1.499 . S
C2045 C2046 1.373 . S
C2045 C2047 1.389 . S
C2046 H2019 0.950 . S
C2046 C2032 1.377 . S
C2046 C2045 1.373 . S
C2047 C2031 1.377 . S
C2047 C2045 1.389 . S
C2047 C2048 1.524 . S
C2048 C2047 1.524 . S
C2048 C2049 1.397 . S
C2048 C2053 1.363 . S
C2049 H2020 0.950 . S
C2049 C2048 1.397 . S
C2049 C2050 1.334 . S
C2050 H2021 0.950 . S
C2050 C2049 1.334 . S
C2050 C2051 1.287 . S
C2051 C2050 1.287 . S
C2051 C2052 1.524 . S
C2051 H2054 0.999 . S
C2052 H2022 0.950 . S
C2052 C2051 1.524 . S
C2052 C2053 1.415 . S
C2053 H2023 0.950 . S
C2053 C2048 1.363 . S
C2053 C2052 1.415 . S
H2054 C2051 0.999 . S
H2055 C2036 0.913 . S
H2056 C2074 0.951 . S
H2057 C2076 0.951 . S
H2058 C2078 0.950 . S
H2059 C2079 0.950 . S
H2060 C2081 0.950 . S
H2061 C2084 0.950 . S
H2062 C2085 0.950 . S
H2063 C2087 0.950 . S
H2064 C2088 0.950 . S
H2065 C2089 0.951 . S
H2066 C2091 0.951 . S
H2067 C2093 0.950 . S
H2068 C2094 0.950 1_655 S
H2069 C2096 0.950 . S
H2070 C2099 0.950 . S
H2071 C2100 0.950 . S
H2072 C2102 0.950 . S
H2073 C2103 0.950 . S
C2074 H2056 0.951 . S
C2074 C2075 1.366 . S
C2074 C2076 1.388 . S
C2075 C2074 1.366 . S
C2075 C2079 1.385 . S
C2076 H2057 0.951 . S
C2076 C2074 1.388 . S
C2076 C2077 1.366 . S
C2077 C2076 1.366 . S
C2077 C2078 1.414 . S
C2077 C2080 1.499 . S
C2078 H2058 0.950 . S
C2078 C2077 1.414 . S
C2078 C2079 1.374 . S
C2079 H2059 0.950 . S
C2079 C2075 1.385 . S
C2079 C2078 1.374 . S
C2080 C2077 1.499 . S
C2080 C2081 1.373 . S
C2080 C2082 1.389 . S
C2081 H2060 0.950 . S
C2081 C2080 1.373 . S
C2081 C2097 1.377 . S
C2082 C2080 1.389 . S
C2082 C2083 1.524 . S
C2082 C2096 1.377 . S
C2083 C2082 1.524 . S
C2083 C2084 1.397 1_545 S
C2083 C2088 1.363 . S
C2084 H2061 0.950 . S
C2084 C2083 1.397 1_565 S
C2084 C2085 1.334 . S
C2085 H2062 0.950 . S
C2085 C2084 1.334 . S
C2085 C2086 1.287 . S
C2086 C2085 1.287 . S
C2086 C2087 1.524 1_565 S
C2086 H2105 0.913 . S
C2087 H2063 0.950 . S
C2087 C2086 1.524 1_545 S
C2087 C2088 1.415 . S
C2088 H2064 0.950 . S
C2088 C2083 1.363 . S
C2088 C2087 1.415 . S
C2089 H2065 0.951 . S
C2089 C2090 1.366 . S
C2089 C2091 1.388 . S
C2090 C2089 1.366 . S
C2090 C2094 1.385 . S
C2091 H2066 0.951 . S
C2091 C2089 1.388 . S
C2091 C2092 1.366 1_455 S
C2092 C2091 1.366 1_655 S
C2092 C2093 1.414 . S
C2092 C2095 1.499 . S
C2093 H2067 0.950 . S
C2093 C2092 1.414 . S
C2093 C2094 1.374 1_655 S
C2094 H2068 0.950 1_455 S
C2094 C2090 1.385 . S
C2094 C2093 1.374 1_455 S
C2095 C2092 1.499 . S
C2095 C2096 1.373 . S
C2095 C2097 1.389 . S
C2096 H2069 0.950 . S
C2096 C2082 1.377 . S
C2096 C2095 1.373 . S
C2097 C2081 1.377 . S
C2097 C2095 1.389 . S
C2097 C2098 1.524 1_655 S
C2098 C2097 1.524 1_455 S
C2098 C2099 1.397 . S
C2098 C2103 1.363 . S
C2099 H2070 0.950 . S
C2099 C2098 1.397 . S
C2099 C2100 1.334 . S
C2100 H2071 0.950 . S
C2100 C2099 1.334 . S
C2100 C2101 1.287 . S
C2101 C2100 1.287 . S
C2101 C2102 1.524 . S
C2101 H2104 0.999 . S
C2102 H2072 0.950 . S
C2102 C2101 1.524 . S
C2102 C2103 1.415 . S
C2103 H2073 0.950 . S
C2103 C2098 1.363 . S
C2103 C2102 1.415 . S
H2104 C2101 0.999 . S
H2105 C2086 0.913 . S
H2106 C2124 0.951 . S
H2107 C2126 0.951 . S
H2108 C2128 0.950 . S
H2109 C2129 0.950 . S
H2110 C2131 0.950 . S
H2111 C2134 0.950 . S
H2112 C2135 0.950 . S
H2113 C2137 0.950 . S
H2114 C2138 0.950 . S
H2115 C2139 0.951 . S
H2116 C2141 0.951 . S
H2117 C2143 0.950 . S
H2118 C2144 0.950 . S
H2119 C2146 0.950 . S
H2120 C2149 0.950 . S
H2121 C2150 0.950 . S
H2122 C2152 0.950 . S
H2123 C2153 0.950 . S
C2124 H2106 0.951 . S
C2124 C2125 1.366 . S
C2124 C2126 1.388 . S
C2125 C2124 1.366 . S
C2125 C2129 1.385 . S
C2126 H2107 0.951 . S
C2126 C2124 1.388 . S
C2126 C2127 1.366 . S
C2127 C2126 1.366 . S
C2127 C2128 1.414 . S
C2127 C2130 1.499 . S
C2128 H2108 0.950 . S
C2128 C2127 1.414 . S
C2128 C2129 1.374 . S
C2129 H2109 0.950 . S
C2129 C2125 1.385 . S
C2129 C2128 1.374 . S
C2130 C2127 1.499 . S
C2130 C2131 1.373 . S
C2130 C2132 1.389 . S
C2131 H2110 0.950 . S
C2131 C2130 1.373 . S
C2131 C2147 1.377 . S
C2132 C2130 1.389 . S
C2132 C2133 1.524 . S
C2132 C2146 1.377 . S
C2133 C2132 1.524 . S
C2133 C2134 1.397 . S
C2133 C2138 1.363 . S
C2134 H2111 0.950 . S
C2134 C2133 1.397 . S
C2134 C2135 1.334 . S
C2135 H2112 0.950 . S
C2135 C2134 1.334 . S
C2135 C2136 1.287 . S
C2136 C2135 1.287 . S
C2136 C2137 1.524 . S
C2136 H2155 0.913 . S
C2137 H2113 0.950 . S
C2137 C2136 1.524 . S
C2137 C2138 1.415 . S
C2138 H2114 0.950 . S
C2138 C2133 1.363 . S
C2138 C2137 1.415 . S
C2139 H2115 0.951 . S
C2139 C2140 1.366 . S
C2139 C2141 1.388 . S
C2140 C2139 1.366 . S
C2140 C2144 1.385 . S
C2141 H2116 0.951 . S
C2141 C2139 1.388 . S
C2141 C2142 1.366 . S
C2142 C2141 1.366 . S
C2142 C2143 1.414 . S
C2142 C2145 1.499 . S
C2143 H2117 0.950 . S
C2143 C2142 1.414 . S
C2143 C2144 1.374 . S
C2144 H2118 0.950 . S
C2144 C2140 1.385 . S
C2144 C2143 1.374 . S
C2145 C2142 1.499 . S
C2145 C2146 1.373 . S
C2145 C2147 1.389 . S
C2146 H2119 0.950 . S
C2146 C2132 1.377 . S
C2146 C2145 1.373 . S
C2147 C2131 1.377 . S
C2147 C2145 1.389 . S
C2147 C2148 1.524 . S
C2148 C2147 1.524 . S
C2148 C2149 1.397 . S
C2148 C2153 1.363 . S
C2149 H2120 0.950 . S
C2149 C2148 1.397 . S
C2149 C2150 1.334 . S
C2150 H2121 0.950 . S
C2150 C2149 1.334 . S
C2150 C2151 1.287 . S
C2151 C2150 1.287 . S
C2151 C2152 1.524 . S
C2151 H2154 0.999 . S
C2152 H2122 0.950 . S
C2152 C2151 1.524 . S
C2152 C2153 1.415 . S
C2153 H2123 0.950 . S
C2153 C2148 1.363 . S
C2153 C2152 1.415 . S
H2154 C2151 0.999 . S
H2155 C2136 0.913 . S
H2156 C2174 0.951 . S
H2157 C2176 0.951 . S
H2158 C2178 0.950 . S
H2159 C2179 0.950 . S
H2160 C2181 0.950 . S
H2161 C2184 0.950 . S
H2162 C2185 0.950 . S
H2163 C2187 0.950 . S
H2164 C2188 0.950 . S
H2165 C2189 0.951 . S
H2166 C2191 0.951 . S
H2167 C2193 0.950 . S
H2168 C2194 0.950 . S
H2169 C2196 0.950 . S
H2170 C2199 0.950 . S
H2171 C2200 0.950 . S
H2172 C2202 0.950 . S
H2173 C2203 0.950 . S
C2174 H2156 0.951 . S
C2174 C2175 1.366 . S
C2174 C2176 1.388 . S
C2175 C2174 1.366 . S
C2175 C2179 1.385 . S
C2176 H2157 0.951 . S
C2176 C2174 1.388 . S
C2176 C2177 1.366 . S
C2177 C2176 1.366 . S
C2177 C2178 1.414 . S
C2177 C2180 1.499 . S
C2178 H2158 0.950 . S
C2178 C2177 1.414 . S
C2178 C2179 1.374 . S
C2179 H2159 0.950 . S
C2179 C2175 1.385 . S
C2179 C2178 1.374 . S
C2180 C2177 1.499 . S
C2180 C2181 1.373 . S
C2180 C2182 1.389 . S
C2181 H2160 0.950 . S
C2181 C2180 1.373 . S
C2181 C2197 1.377 . S
C2182 C2180 1.389 . S
C2182 C2183 1.524 . S
C2182 C2196 1.377 . S
C2183 C2182 1.524 . S
C2183 C2184 1.397 . S
C2183 C2188 1.363 . S
C2184 H2161 0.950 . S
C2184 C2183 1.397 . S
C2184 C2185 1.334 . S
C2185 H2162 0.950 . S
C2185 C2184 1.334 . S
C2185 C2186 1.287 . S
C2186 C2185 1.287 . S
C2186 C2187 1.524 . S
C2186 H2205 0.913 . S
C2187 H2163 0.950 . S
C2187 C2186 1.524 . S
C2187 C2188 1.415 . S
C2188 H2164 0.950 . S
C2188 C2183 1.363 . S
C2188 C2187 1.415 . S
C2189 H2165 0.951 . S
C2189 C2190 1.366 . S
C2189 C2191 1.388 . S
C2190 C2189 1.366 . S
C2190 C2194 1.385 . S
C2191 H2166 0.951 . S
C2191 C2189 1.388 . S
C2191 C2192 1.366 . S
C2192 C2191 1.366 . S
C2192 C2193 1.414 . S
C2192 C2195 1.499 . S
C2193 H2167 0.950 . S
C2193 C2192 1.414 . S
C2193 C2194 1.374 . S
C2194 H2168 0.950 . S
C2194 C2190 1.385 . S
C2194 C2193 1.374 . S
C2195 C2192 1.499 . S
C2195 C2196 1.373 . S
C2195 C2197 1.389 . S
C2196 H2169 0.950 . S
C2196 C2182 1.377 . S
C2196 C2195 1.373 . S
C2197 C2181 1.377 . S
C2197 C2195 1.389 . S
C2197 C2198 1.524 1_545 S
C2198 C2197 1.524 1_565 S
C2198 C2199 1.397 . S
C2198 C2203 1.363 . S
C2199 H2170 0.950 . S
C2199 C2198 1.397 . S
C2199 C2200 1.334 . S
C2200 H2171 0.950 . S
C2200 C2199 1.334 . S
C2200 C2201 1.287 . S
C2201 C2200 1.287 . S
C2201 C2202 1.524 . S
C2201 H2204 0.999 . S
C2202 H2172 0.950 . S
C2202 C2201 1.524 . S
C2202 C2203 1.415 . S
C2203 H2173 0.950 . S
C2203 C2198 1.363 . S
C2203 C2202 1.415 . S
H2204 C2201 0.999 . S
H2205 C2186 0.913 . S
H2206 C2224 0.951 . S
H2207 C2226 0.951 . S
H2208 C2228 0.950 . S
H2209 C2229 0.950 . S
H2210 C2231 0.950 . S
H2211 C2234 0.950 . S
H2212 C2235 0.950 . S
H2213 C2237 0.950 . S
H2214 C2238 0.950 . S
H2215 C2239 0.951 . S
H2216 C2241 0.951 . S
H2217 C2243 0.950 . S
H2218 C2244 0.950 . S
H2219 C2246 0.950 . S
H2220 C2249 0.950 . S
H2221 C2250 0.950 . S
H2222 C2252 0.950 . S
H2223 C2253 0.950 . S
C2224 H2206 0.951 . S
C2224 C2225 1.366 . S
C2224 C2226 1.388 . S
C2225 C2224 1.366 . S
C2225 C2229 1.385 . S
C2226 H2207 0.951 . S
C2226 C2224 1.388 . S
C2226 C2227 1.366 . S
C2227 C2226 1.366 . S
C2227 C2228 1.414 . S
C2227 C2230 1.499 . S
C2228 H2208 0.950 . S
C2228 C2227 1.414 . S
C2228 C2229 1.374 . S
C2229 H2209 0.950 . S
C2229 C2225 1.385 . S
C2229 C2228 1.374 . S
C2230 C2227 1.499 . S
C2230 C2231 1.373 . S
C2230 C2232 1.389 . S
C2231 H2210 0.950 . S
C2231 C2230 1.373 . S
C2231 C2247 1.377 . S
C2232 C2230 1.389 . S
C2232 C2233 1.524 . S
C2232 C2246 1.377 . S
C2233 C2232 1.524 . S
C2233 C2234 1.397 . S
C2233 C2238 1.363 . S
C2234 H2211 0.950 . S
C2234 C2233 1.397 . S
C2234 C2235 1.334 . S
C2235 H2212 0.950 . S
C2235 C2234 1.334 . S
C2235 C2236 1.287 . S
C2236 C2235 1.287 . S
C2236 C2237 1.524 . S
C2236 H2255 0.913 . S
C2237 H2213 0.950 . S
C2237 C2236 1.524 . S
C2237 C2238 1.415 . S
C2238 H2214 0.950 . S
C2238 C2233 1.363 . S
C2238 C2237 1.415 . S
C2239 H2215 0.951 . S
C2239 C2240 1.366 . S
C2239 C2241 1.388 . S
C2240 C2239 1.366 . S
C2240 C2244 1.385 . S
C2241 H2216 0.951 . S
C2241 C2239 1.388 . S
C2241 C2242 1.366 . S
C2242 C2241 1.366 . S
C2242 C2243 1.414 . S
C2242 C2245 1.499 . S
C2243 H2217 0.950 . S
C2243 C2242 1.414 . S
C2243 C2244 1.374 . S
C2244 H2218 0.950 . S
C2244 C2240 1.385 . S
C2244 C2243 1.374 . S
C2245 C2242 1.499 . S
C2245 C2246 1.373 . S
C2245 C2247 1.389 . S
C2246 H2219 0.950 . S
C2246 C2232 1.377 . S
C2246 C2245 1.373 . S
C2247 C2231 1.377 . S
C2247 C2245 1.389 . S
C2247 C2248 1.524 . S
C2248 C2247 1.524 . S
C2248 C2249 1.397 . S
C2248 C2253 1.363 . S
C2249 H2220 0.950 . S
C2249 C2248 1.397 . S
C2249 C2250 1.334 . S
C2250 H2221 0.950 . S
C2250 C2249 1.334 . S
C2250 C2251 1.287 . S
C2251 C2250 1.287 . S
C2251 C2252 1.524 . S
C2251 H2254 0.999 . S
C2252 H2222 0.950 . S
C2252 C2251 1.524 . S
C2252 C2253 1.415 . S
C2253 H2223 0.950 . S
C2253 C2248 1.363 . S
C2253 C2252 1.415 . S
H2254 C2251 0.999 . S
H2255 C2236 0.913 . S
H2256 C2274 0.951 . S
H2257 C2276 0.951 . S
H2258 C2278 0.950 . S
H2259 C2279 0.950 . S
H2260 C2281 0.950 . S
H2261 C2284 0.950 . S
H2262 C2285 0.950 . S
H2263 C2287 0.950 . S
H2264 C2288 0.950 . S
H2265 C2289 0.951 . S
H2266 C2291 0.951 . S
H2267 C2293 0.950 . S
H2268 C2294 0.950 . S
H2269 C2296 0.950 . S
H2270 C2299 0.950 1_655 S
H2271 C2300 0.950 . S
H2272 C2302 0.950 . S
H2273 C2303 0.950 1_545 S
C2274 H2256 0.951 . S
C2274 C2275 1.366 . S
C2274 C2276 1.388 . S
C2275 C2274 1.366 . S
C2275 C2279 1.385 . S
C2276 H2257 0.951 . S
C2276 C2274 1.388 . S
C2276 C2277 1.366 . S
C2277 C2276 1.366 . S
C2277 C2278 1.414 . S
C2277 C2280 1.499 . S
C2278 H2258 0.950 . S
C2278 C2277 1.414 . S
C2278 C2279 1.374 . S
C2279 H2259 0.950 . S
C2279 C2275 1.385 . S
C2279 C2278 1.374 . S
C2280 C2277 1.499 . S
C2280 C2281 1.373 . S
C2280 C2282 1.389 . S
C2281 H2260 0.950 . S
C2281 C2280 1.373 . S
C2281 C2297 1.377 . S
C2282 C2280 1.389 . S
C2282 C2283 1.524 . S
C2282 C2296 1.377 . S
C2283 C2282 1.524 . S
C2283 C2284 1.397 . S
C2283 C2288 1.363 . S
C2284 H2261 0.950 . S
C2284 C2283 1.397 . S
C2284 C2285 1.334 . S
C2285 H2262 0.950 . S
C2285 C2284 1.334 . S
C2285 C2286 1.287 . S
C2286 C2285 1.287 . S
C2286 C2287 1.524 . S
C2286 H2305 0.913 . S
C2287 H2263 0.950 . S
C2287 C2286 1.524 . S
C2287 C2288 1.415 . S
C2288 H2264 0.950 . S
C2288 C2283 1.363 . S
C2288 C2287 1.415 . S
C2289 H2265 0.951 . S
C2289 C2290 1.366 . S
C2289 C2291 1.388 . S
C2290 C2289 1.366 . S
C2290 C2294 1.385 1_455 S
C2291 H2266 0.951 . S
C2291 C2289 1.388 . S
C2291 C2292 1.366 1_455 S
C2292 C2291 1.366 1_655 S
C2292 C2293 1.414 . S
C2292 C2295 1.499 . S
C2293 H2267 0.950 . S
C2293 C2292 1.414 . S
C2293 C2294 1.374 . S
C2294 H2268 0.950 . S
C2294 C2290 1.385 1_655 S
C2294 C2293 1.374 . S
C2295 C2292 1.499 . S
C2295 C2296 1.373 . S
C2295 C2297 1.389 . S
C2296 H2269 0.950 . S
C2296 C2282 1.377 . S
C2296 C2295 1.373 . S
C2297 C2281 1.377 . S
C2297 C2295 1.389 . S
C2297 C2298 1.524 1_645 S
C2298 C2297 1.524 1_465 S
C2298 C2299 1.397 . S
C2298 C2303 1.363 . S
C2299 H2270 0.950 1_455 S
C2299 C2298 1.397 . S
C2299 C2300 1.334 . S
C2300 H2271 0.950 . S
C2300 C2299 1.334 . S
C2300 C2301 1.287 . S
C2301 C2300 1.287 . S
C2301 C2302 1.524 . S
C2301 H2304 0.999 . S
C2302 H2272 0.950 . S
C2302 C2301 1.524 . S
C2302 C2303 1.415 . S
C2303 H2273 0.950 1_565 S
C2303 C2298 1.363 . S
C2303 C2302 1.415 . S
H2304 C2301 0.999 . S
H2305 C2286 0.913 . S
H2306 C2324 0.951 . S
H2307 C2326 0.951 . S
H2308 C2328 0.950 . S
H2309 C2329 0.950 . S
H2310 C2331 0.950 . S
H2311 C2334 0.950 . S
H2312 C2335 0.950 . S
H2313 C2337 0.950 . S
H2314 C2338 0.950 . S
H2315 C2339 0.951 . S
H2316 C2341 0.951 . S
H2317 C2343 0.950 . S
H2318 C2344 0.950 . S
H2319 C2346 0.950 . S
H2320 C2349 0.950 . S
H2321 C2350 0.950 . S
H2322 C2352 0.950 . S
H2323 C2353 0.950 . S
C2324 H2306 0.951 . S
C2324 C2325 1.366 . S
C2324 C2326 1.388 . S
C2325 C2324 1.366 . S
C2325 C2329 1.385 . S
C2326 H2307 0.951 . S
C2326 C2324 1.388 . S
C2326 C2327 1.366 . S
C2327 C2326 1.366 . S
C2327 C2328 1.414 . S
C2327 C2330 1.499 . S
C2328 H2308 0.950 . S
C2328 C2327 1.414 . S
C2328 C2329 1.374 . S
C2329 H2309 0.950 . S
C2329 C2325 1.385 . S
C2329 C2328 1.374 . S
C2330 C2327 1.499 . S
C2330 C2331 1.373 . S
C2330 C2332 1.389 . S
C2331 H2310 0.950 . S
C2331 C2330 1.373 . S
C2331 C2347 1.377 . S
C2332 C2330 1.389 . S
C2332 C2333 1.524 . S
C2332 C2346 1.377 . S
C2333 C2332 1.524 . S
C2333 C2334 1.397 . S
C2333 C2338 1.363 . S
C2334 H2311 0.950 . S
C2334 C2333 1.397 . S
C2334 C2335 1.334 . S
C2335 H2312 0.950 . S
C2335 C2334 1.334 . S
C2335 C2336 1.287 . S
C2336 C2335 1.287 . S
C2336 C2337 1.524 . S
C2336 H2355 0.913 . S
C2337 H2313 0.950 . S
C2337 C2336 1.524 . S
C2337 C2338 1.415 . S
C2338 H2314 0.950 . S
C2338 C2333 1.363 . S
C2338 C2337 1.415 . S
C2339 H2315 0.951 . S
C2339 C2340 1.366 . S
C2339 C2341 1.388 . S
C2340 C2339 1.366 . S
C2340 C2344 1.385 . S
C2341 H2316 0.951 . S
C2341 C2339 1.388 . S
C2341 C2342 1.366 . S
C2342 C2341 1.366 . S
C2342 C2343 1.414 . S
C2342 C2345 1.499 . S
C2343 H2317 0.950 . S
C2343 C2342 1.414 . S
C2343 C2344 1.374 . S
C2344 H2318 0.950 . S
C2344 C2340 1.385 . S
C2344 C2343 1.374 . S
C2345 C2342 1.499 . S
C2345 C2346 1.373 . S
C2345 C2347 1.389 . S
C2346 H2319 0.950 . S
C2346 C2332 1.377 . S
C2346 C2345 1.373 . S
C2347 C2331 1.377 . S
C2347 C2345 1.389 . S
C2347 C2348 1.524 . S
C2348 C2347 1.524 . S
C2348 C2349 1.397 . S
C2348 C2353 1.363 . S
C2349 H2320 0.950 . S
C2349 C2348 1.397 . S
C2349 C2350 1.334 . S
C2350 H2321 0.950 . S
C2350 C2349 1.334 . S
C2350 C2351 1.287 . S
C2351 C2350 1.287 . S
C2351 C2352 1.524 . S
C2351 H2354 0.999 . S
C2352 H2322 0.950 . S
C2352 C2351 1.524 . S
C2352 C2353 1.415 . S
C2353 H2323 0.950 . S
C2353 C2348 1.363 . S
C2353 C2352 1.415 . S
H2354 C2351 0.999 . S
H2355 C2336 0.913 . S
H2356 C2374 0.951 . S
H2357 C2376 0.951 . S
H2358 C2378 0.950 . S
H2359 C2379 0.950 . S
H2360 C2381 0.950 . S
H2361 C2384 0.950 . S
H2362 C2385 0.950 . S
H2363 C2387 0.950 . S
H2364 C2388 0.950 . S
H2365 C2389 0.951 . S
H2366 C2391 0.951 . S
H2367 C2393 0.950 . S
H2368 C2394 0.950 . S
H2369 C2396 0.950 . S
H2370 C2399 0.950 . S
H2371 C2400 0.950 . S
H2372 C2402 0.950 . S
H2373 C2403 0.950 1_565 S
C2374 H2356 0.951 . S
C2374 C2375 1.366 . S
C2374 C2376 1.388 . S
C2375 C2374 1.366 . S
C2375 C2379 1.385 . S
C2376 H2357 0.951 . S
C2376 C2374 1.388 . S
C2376 C2377 1.366 . S
C2377 C2376 1.366 . S
C2377 C2378 1.414 . S
C2377 C2380 1.499 . S
C2378 H2358 0.950 . S
C2378 C2377 1.414 . S
C2378 C2379 1.374 . S
C2379 H2359 0.950 . S
C2379 C2375 1.385 . S
C2379 C2378 1.374 . S
C2380 C2377 1.499 . S
C2380 C2381 1.373 . S
C2380 C2382 1.389 . S
C2381 H2360 0.950 . S
C2381 C2380 1.373 . S
C2381 C2397 1.377 . S
C2382 C2380 1.389 . S
C2382 C2383 1.524 . S
C2382 C2396 1.377 . S
C2383 C2382 1.524 . S
C2383 C2384 1.397 . S
C2383 C2388 1.363 . S
C2384 H2361 0.950 . S
C2384 C2383 1.397 . S
C2384 C2385 1.334 . S
C2385 H2362 0.950 . S
C2385 C2384 1.334 . S
C2385 C2386 1.287 . S
C2386 C2385 1.287 . S
C2386 C2387 1.524 . S
C2386 H2405 0.913 . S
C2387 H2363 0.950 . S
C2387 C2386 1.524 . S
C2387 C2388 1.415 . S
C2388 H2364 0.950 . S
C2388 C2383 1.363 . S
C2388 C2387 1.415 . S
C2389 H2365 0.951 . S
C2389 C2390 1.366 . S
C2389 C2391 1.388 . S
C2390 C2389 1.366 . S
C2390 C2394 1.385 . S
C2391 H2366 0.951 . S
C2391 C2389 1.388 . S
C2391 C2392 1.366 . S
C2392 C2391 1.366 . S
C2392 C2393 1.414 . S
C2392 C2395 1.499 . S
C2393 H2367 0.950 . S
C2393 C2392 1.414 . S
C2393 C2394 1.374 . S
C2394 H2368 0.950 . S
C2394 C2390 1.385 . S
C2394 C2393 1.374 . S
C2395 C2392 1.499 . S
C2395 C2396 1.373 . S
C2395 C2397 1.389 . S
C2396 H2369 0.950 . S
C2396 C2382 1.377 . S
C2396 C2395 1.373 . S
C2397 C2381 1.377 . S
C2397 C2395 1.389 . S
C2397 C2398 1.524 . S
C2398 C2397 1.524 . S
C2398 C2399 1.397 . S
C2398 C2403 1.363 . S
C2399 H2370 0.950 . S
C2399 C2398 1.397 . S
C2399 C2400 1.334 . S
C2400 H2371 0.950 . S
C2400 C2399 1.334 . S
C2400 C2401 1.287 1_545 S
C2401 C2400 1.287 1_565 S
C2401 C2402 1.524 . S
C2401 H2404 0.999 . S
C2402 H2372 0.950 . S
C2402 C2401 1.524 . S
C2402 C2403 1.415 1_565 S
C2403 H2373 0.950 1_545 S
C2403 C2398 1.363 . S
C2403 C2402 1.415 1_545 S
H2404 C2401 0.999 . S
H2405 C2386 0.913 . S
H2406 C2424 0.951 . S
H2407 C2426 0.951 . S
H2408 C2428 0.950 . S
H2409 C2429 0.950 . S
H2410 C2431 0.950 . S
H2411 C2434 0.950 . S
H2412 C2435 0.950 . S
H2413 C2437 0.950 . S
H2414 C2438 0.950 . S
H2415 C2439 0.951 . S
H2416 C2441 0.951 . S
H2417 C2443 0.950 . S
H2418 C2444 0.950 . S
H2419 C2446 0.950 . S
H2420 C2449 0.950 . S
H2421 C2450 0.950 . S
H2422 C2452 0.950 . S
H2423 C2453 0.950 . S
C2424 H2406 0.951 . S
C2424 C2425 1.366 . S
C2424 C2426 1.388 . S
C2425 C2424 1.366 . S
C2425 C2429 1.385 . S
C2426 H2407 0.951 . S
C2426 C2424 1.388 . S
C2426 C2427 1.366 . S
C2427 C2426 1.366 . S
C2427 C2428 1.414 . S
C2427 C2430 1.499 . S
C2428 H2408 0.950 . S
C2428 C2427 1.414 . S
C2428 C2429 1.374 . S
C2429 H2409 0.950 . S
C2429 C2425 1.385 . S
C2429 C2428 1.374 . S
C2430 C2427 1.499 . S
C2430 C2431 1.373 . S
C2430 C2432 1.389 . S
C2431 H2410 0.950 . S
C2431 C2430 1.373 . S
C2431 C2447 1.377 . S
C2432 C2430 1.389 . S
C2432 C2433 1.524 . S
C2432 C2446 1.377 . S
C2433 C2432 1.524 . S
C2433 C2434 1.397 . S
C2433 C2438 1.363 . S
C2434 H2411 0.950 . S
C2434 C2433 1.397 . S
C2434 C2435 1.334 . S
C2435 H2412 0.950 . S
C2435 C2434 1.334 . S
C2435 C2436 1.287 . S
C2436 C2435 1.287 . S
C2436 C2437 1.524 . S
C2436 H2455 0.913 . S
C2437 H2413 0.950 . S
C2437 C2436 1.524 . S
C2437 C2438 1.415 . S
C2438 H2414 0.950 . S
C2438 C2433 1.363 . S
C2438 C2437 1.415 . S
C2439 H2415 0.951 . S
C2439 C2440 1.366 . S
C2439 C2441 1.388 . S
C2440 C2439 1.366 . S
C2440 C2444 1.385 . S
C2441 H2416 0.951 . S
C2441 C2439 1.388 . S
C2441 C2442 1.366 . S
C2442 C2441 1.366 . S
C2442 C2443 1.414 . S
C2442 C2445 1.499 . S
C2443 H2417 0.950 . S
C2443 C2442 1.414 . S
C2443 C2444 1.374 . S
C2444 H2418 0.950 . S
C2444 C2440 1.385 . S
C2444 C2443 1.374 . S
C2445 C2442 1.499 . S
C2445 C2446 1.373 . S
C2445 C2447 1.389 . S
C2446 H2419 0.950 . S
C2446 C2432 1.377 . S
C2446 C2445 1.373 . S
C2447 C2431 1.377 . S
C2447 C2445 1.389 . S
C2447 C2448 1.524 . S
C2448 C2447 1.524 . S
C2448 C2449 1.397 . S
C2448 C2453 1.363 . S
C2449 H2420 0.950 . S
C2449 C2448 1.397 . S
C2449 C2450 1.334 . S
C2450 H2421 0.950 . S
C2450 C2449 1.334 . S
C2450 C2451 1.287 . S
C2451 C2450 1.287 . S
C2451 C2452 1.524 . S
C2451 H2454 0.999 . S
C2452 H2422 0.950 . S
C2452 C2451 1.524 . S
C2452 C2453 1.415 . S
C2453 H2423 0.950 . S
C2453 C2448 1.363 . S
C2453 C2452 1.415 . S
H2454 C2451 0.999 . S
H2455 C2436 0.913 . S
H2456 C2474 0.951 1_556 S
H2457 C2476 0.951 . S
H2458 C2478 0.950 . S
H2459 C2479 0.950 . S
H2460 C2481 0.950 . S
H2461 C2484 0.950 . S
H2462 C2485 0.950 . S
H2463 C2487 0.950 . S
H2464 C2488 0.950 . S
H2465 C2489 0.951 . S
H2466 C2491 0.951 . S
H2467 C2493 0.950 . S
H2468 C2494 0.950 . S
H2469 C2496 0.950 1_545 S
H2470 C2499 0.950 . S
H2471 C2500 0.950 . S
H2472 C2502 0.950 . S
H2473 C2503 0.950 . S
C2474 H2456 0.951 1_554 S
C2474 C2475 1.366 . S
C2474 C2476 1.388 . S
C2475 C2474 1.366 . S
C2475 C2479 1.385 . S
C2476 H2457 0.951 . S
C2476 C2474 1.388 . S
C2476 C2477 1.366 . S
C2477 C2476 1.366 . S
C2477 C2478 1.414 . S
C2477 C2480 1.499 . S
C2478 H2458 0.950 . S
C2478 C2477 1.414 . S
C2478 C2479 1.374 . S
C2479 H2459 0.950 . S
C2479 C2475 1.385 . S
C2479 C2478 1.374 . S
C2480 C2477 1.499 . S
C2480 C2481 1.373 . S
C2480 C2482 1.389 . S
C2481 H2460 0.950 . S
C2481 C2480 1.373 . S
C2481 C2497 1.377 . S
C2482 C2480 1.389 . S
C2482 C2483 1.524 . S
C2482 C2496 1.377 . S
C2483 C2482 1.524 . S
C2483 C2484 1.397 . S
C2483 C2488 1.363 1_565 S
C2484 H2461 0.950 . S
C2484 C2483 1.397 . S
C2484 C2485 1.334 . S
C2485 H2462 0.950 . S
C2485 C2484 1.334 . S
C2485 C2486 1.287 1_565 S
C2486 C2485 1.287 1_545 S
C2486 C2487 1.524 . S
C2486 H2505 0.913 . S
C2487 H2463 0.950 . S
C2487 C2486 1.524 . S
C2487 C2488 1.415 . S
C2488 H2464 0.950 . S
C2488 C2483 1.363 1_545 S
C2488 C2487 1.415 . S
C2489 H2465 0.951 . S
C2489 C2490 1.366 1_565 S
C2489 C2491 1.388 . S
C2490 C2489 1.366 1_545 S
C2490 C2494 1.385 . S
C2491 H2466 0.951 . S
C2491 C2489 1.388 . S
C2491 C2492 1.366 . S
C2492 C2491 1.366 . S
C2492 C2493 1.414 1_565 S
C2492 C2495 1.499 . S
C2493 H2467 0.950 . S
C2493 C2492 1.414 1_545 S
C2493 C2494 1.374 . S
C2494 H2468 0.950 . S
C2494 C2490 1.385 . S
C2494 C2493 1.374 . S
C2495 C2492 1.499 . S
C2495 C2496 1.373 . S
C2495 C2497 1.389 . S
C2496 H2469 0.950 1_565 S
C2496 C2482 1.377 . S
C2496 C2495 1.373 . S
C2497 C2481 1.377 . S
C2497 C2495 1.389 . S
C2497 C2498 1.524 . S
C2498 C2497 1.524 . S
C2498 C2499 1.397 1_554 S
C2498 C2503 1.363 . S
C2499 H2470 0.950 . S
C2499 C2498 1.397 1_556 S
C2499 C2500 1.334 . S
C2500 H2471 0.950 . S
C2500 C2499 1.334 . S
C2500 C2501 1.287 . S
C2501 C2500 1.287 . S
C2501 C2502 1.524 . S
C2501 H2504 0.999 . S
C2502 H2472 0.950 . S
C2502 C2501 1.524 . S
C2502 C2503 1.415 1_556 S
C2503 H2473 0.950 . S
C2503 C2498 1.363 . S
C2503 C2502 1.415 1_554 S
H2504 C2501 0.999 . S
H2505 C2486 0.913 . S
H2506 C2524 0.951 . S
H2507 C2526 0.951 . S
H2508 C2528 0.950 . S
H2509 C2529 0.950 . S
H2510 C2531 0.950 . S
H2511 C2534 0.950 1_556 S
H2512 C2535 0.950 . S
H2513 C2537 0.950 . S
H2514 C2538 0.950 . S
H2515 C2539 0.951 . S
H2516 C2541 0.951 . S
H2517 C2543 0.950 . S
H2518 C2544 0.950 . S
H2519 C2546 0.950 . S
H2520 C2549 0.950 . S
H2521 C2550 0.950 1_554 S
H2522 C2552 0.950 . S
H2523 C2553 0.950 . S
C2524 H2506 0.951 . S
C2524 C2525 1.394 . S
C2524 C2526 1.388 . S
C2525 C2524 1.394 . S
C2525 C2529 1.361 1_554 S
C2526 H2507 0.951 . S
C2526 C2524 1.388 . S
C2526 C2527 1.366 . S
C2527 C2526 1.366 . S
C2527 C2528 1.414 1_554 S
C2527 C2530 1.499 . S
C2528 H2508 0.950 . S
C2528 C2527 1.414 1_556 S
C2528 C2529 1.374 . S
C2529 H2509 0.950 . S
C2529 C2525 1.361 1_556 S
C2529 C2528 1.374 . S
C2530 C2527 1.499 . S
C2530 C2531 1.373 1_554 S
C2530 C2532 1.389 . S
C2531 H2510 0.950 . S
C2531 C2530 1.373 1_556 S
C2531 C2547 1.377 . S
C2532 C2530 1.389 . S
C2532 C2533 1.524 . S
C2532 C2546 1.377 . S
C2533 C2532 1.524 . S
C2533 C2534 1.397 . S
C2533 C2538 1.363 . S
C2534 H2511 0.950 1_554 S
C2534 C2533 1.397 . S
C2534 C2535 1.334 . S
C2535 H2512 0.950 . S
C2535 C2534 1.334 . S
C2535 C2536 1.287 . S
C2536 C2535 1.287 . S
C2536 C2537 1.524 . S
C2536 H2555 0.913 . S
C2537 H2513 0.950 . S
C2537 C2536 1.524 . S
C2537 C2538 1.415 . S
C2538 H2514 0.950 . S
C2538 C2533 1.363 . S
C2538 C2537 1.415 . S
C2539 H2515 0.951 . S
C2539 C2540 1.366 1_556 S
C2539 C2541 1.388 . S
C2540 C2539 1.366 1_554 S
C2540 C2544 1.385 . S
C2541 H2516 0.951 . S
C2541 C2539 1.388 . S
C2541 C2542 1.366 1_556 S
C2542 C2541 1.366 1_554 S
C2542 C2543 1.414 . S
C2542 C2545 1.499 . S
C2543 H2517 0.950 . S
C2543 C2542 1.414 . S
C2543 C2544 1.374 . S
C2544 H2518 0.950 . S
C2544 C2540 1.385 . S
C2544 C2543 1.374 . S
C2545 C2542 1.499 . S
C2545 C2546 1.373 . S
C2545 C2547 1.389 1_554 S
C2546 H2519 0.950 . S
C2546 C2532 1.377 . S
C2546 C2545 1.373 . S
C2547 C2531 1.377 . S
C2547 C2545 1.389 1_556 S
C2547 C2548 1.524 . S
C2548 C2547 1.524 . S
C2548 C2549 1.397 1_556 S
C2548 C2553 1.363 . S
C2549 H2520 0.950 . S
C2549 C2548 1.397 1_554 S
C2549 C2550 1.334 1_554 S
C2550 H2521 0.950 1_556 S
C2550 C2549 1.334 1_556 S
C2550 C2551 1.287 . S
C2551 C2550 1.287 . S
C2551 C2552 1.524 . S
C2551 H2554 0.999 . S
C2552 H2522 0.950 . S
C2552 C2551 1.524 . S
C2552 C2553 1.415 . S
C2553 H2523 0.950 . S
C2553 C2548 1.363 . S
C2553 C2552 1.415 . S
H2554 C2551 0.999 . S
H2555 C2536 0.913 . S
H2556 C2574 0.951 . S
H2557 C2576 0.951 . S
H2558 C2578 0.950 . S
H2559 C2579 0.950 . S
H2560 C2581 0.950 . S
H2561 C2584 0.950 . S
H2562 C2585 0.950 . S
H2563 C2587 0.950 . S
H2564 C2588 0.950 . S
H2565 C2589 0.951 . S
H2566 C2591 0.951 . S
H2567 C2593 0.950 . S
H2568 C2594 0.950 . S
H2569 C2596 0.950 . S
H2570 C2599 0.950 . S
H2571 C2600 0.950 . S
H2572 C2602 0.950 . S
H2573 C2603 0.950 . S
C2574 H2556 0.951 . S
C2574 C2575 1.366 . S
C2574 C2576 1.388 . S
C2575 C2574 1.366 . S
C2575 C2579 1.385 . S
C2576 H2557 0.951 . S
C2576 C2574 1.388 . S
C2576 C2577 1.366 . S
C2577 C2576 1.366 . S
C2577 C2578 1.414 . S
C2577 C2580 1.499 . S
C2578 H2558 0.950 . S
C2578 C2577 1.414 . S
C2578 C2579 1.374 . S
C2579 H2559 0.950 . S
C2579 C2575 1.385 . S
C2579 C2578 1.374 . S
C2580 C2577 1.499 . S
C2580 C2581 1.373 . S
C2580 C2582 1.389 . S
C2581 H2560 0.950 . S
C2581 C2580 1.373 . S
C2581 C2597 1.377 . S
C2582 C2580 1.389 . S
C2582 C2583 1.524 . S
C2582 C2596 1.377 . S
C2583 C2582 1.524 . S
C2583 C2584 1.397 . S
C2583 C2588 1.363 . S
C2584 H2561 0.950 . S
C2584 C2583 1.397 . S
C2584 C2585 1.334 . S
C2585 H2562 0.950 . S
C2585 C2584 1.334 . S
C2585 C2586 1.287 . S
C2586 C2585 1.287 . S
C2586 C2587 1.524 . S
C2586 H2605 0.913 . S
C2587 H2563 0.950 . S
C2587 C2586 1.524 . S
C2587 C2588 1.415 . S
C2588 H2564 0.950 . S
C2588 C2583 1.363 . S
C2588 C2587 1.415 . S
C2589 H2565 0.951 . S
C2589 C2590 1.366 . S
C2589 C2591 1.388 . S
C2590 C2589 1.366 . S
C2590 C2594 1.385 . S
C2591 H2566 0.951 . S
C2591 C2589 1.388 . S
C2591 C2592 1.366 . S
C2592 C2591 1.366 . S
C2592 C2593 1.414 . S
C2592 C2595 1.499 . S
C2593 H2567 0.950 . S
C2593 C2592 1.414 . S
C2593 C2594 1.374 . S
C2594 H2568 0.950 . S
C2594 C2590 1.385 . S
C2594 C2593 1.374 . S
C2595 C2592 1.499 . S
C2595 C2596 1.373 . S
C2595 C2597 1.389 . S
C2596 H2569 0.950 . S
C2596 C2582 1.377 . S
C2596 C2595 1.373 . S
C2597 C2581 1.377 . S
C2597 C2595 1.389 . S
C2597 C2598 1.524 . S
C2598 C2597 1.524 . S
C2598 C2599 1.397 . S
C2598 C2603 1.363 . S
C2599 H2570 0.950 . S
C2599 C2598 1.397 . S
C2599 C2600 1.334 . S
C2600 H2571 0.950 . S
C2600 C2599 1.334 . S
C2600 C2601 1.287 . S
C2601 C2600 1.287 . S
C2601 C2602 1.524 . S
C2601 H2604 0.999 . S
C2602 H2572 0.950 . S
C2602 C2601 1.524 . S
C2602 C2603 1.415 . S
C2603 H2573 0.950 . S
C2603 C2598 1.363 . S
C2603 C2602 1.415 . S
H2604 C2601 0.999 . S
H2605 C2586 0.913 . S
H2606 C2624 0.951 . S
H2607 C2626 0.951 . S
H2608 C2628 0.950 . S
H2609 C2629 0.950 . S
H2610 C2631 0.950 . S
H2611 C2634 0.950 . S
H2612 C2635 0.950 . S
H2613 C2637 0.950 . S
H2614 C2638 0.950 . S
H2615 C2639 0.951 . S
H2616 C2641 0.951 . S
H2617 C2643 0.950 . S
H2618 C2644 0.950 . S
H2619 C2646 0.950 . S
H2620 C2649 0.950 . S
H2621 C2650 0.950 . S
H2622 C2652 0.950 . S
H2623 C2653 0.950 . S
C2624 H2606 0.951 . S
C2624 C2625 1.366 . S
C2624 C2626 1.388 . S
C2625 C2624 1.366 . S
C2625 C2629 1.385 . S
C2626 H2607 0.951 . S
C2626 C2624 1.388 . S
C2626 C2627 1.366 . S
C2627 C2626 1.366 . S
C2627 C2628 1.414 . S
C2627 C2630 1.499 . S
C2628 H2608 0.950 . S
C2628 C2627 1.414 . S
C2628 C2629 1.374 . S
C2629 H2609 0.950 . S
C2629 C2625 1.385 . S
C2629 C2628 1.374 . S
C2630 C2627 1.499 . S
C2630 C2631 1.373 . S
C2630 C2632 1.389 . S
C2631 H2610 0.950 . S
C2631 C2630 1.373 . S
C2631 C2647 1.377 . S
C2632 C2630 1.389 . S
C2632 C2633 1.524 . S
C2632 C2646 1.377 . S
C2633 C2632 1.524 . S
C2633 C2634 1.397 . S
C2633 C2638 1.363 . S
C2634 H2611 0.950 . S
C2634 C2633 1.397 . S
C2634 C2635 1.334 . S
C2635 H2612 0.950 . S
C2635 C2634 1.334 . S
C2635 C2636 1.287 . S
C2636 C2635 1.287 . S
C2636 C2637 1.524 . S
C2636 H2655 0.913 . S
C2637 H2613 0.950 . S
C2637 C2636 1.524 . S
C2637 C2638 1.415 . S
C2638 H2614 0.950 . S
C2638 C2633 1.363 . S
C2638 C2637 1.415 . S
C2639 H2615 0.951 . S
C2639 C2640 1.366 . S
C2639 C2641 1.388 . S
C2640 C2639 1.366 . S
C2640 C2644 1.385 . S
C2641 H2616 0.951 . S
C2641 C2639 1.388 . S
C2641 C2642 1.366 . S
C2642 C2641 1.366 . S
C2642 C2643 1.414 . S
C2642 C2645 1.499 . S
C2643 H2617 0.950 . S
C2643 C2642 1.414 . S
C2643 C2644 1.374 . S
C2644 H2618 0.950 . S
C2644 C2640 1.385 . S
C2644 C2643 1.374 . S
C2645 C2642 1.499 . S
C2645 C2646 1.373 . S
C2645 C2647 1.389 . S
C2646 H2619 0.950 . S
C2646 C2632 1.377 . S
C2646 C2645 1.373 . S
C2647 C2631 1.377 . S
C2647 C2645 1.389 . S
C2647 C2648 1.524 . S
C2648 C2647 1.524 . S
C2648 C2649 1.397 . S
C2648 C2653 1.363 . S
C2649 H2620 0.950 . S
C2649 C2648 1.397 . S
C2649 C2650 1.334 . S
C2650 H2621 0.950 . S
C2650 C2649 1.334 . S
C2650 C2651 1.287 . S
C2651 C2650 1.287 . S
C2651 C2652 1.524 . S
C2651 H2654 0.999 . S
C2652 H2622 0.950 . S
C2652 C2651 1.524 . S
C2652 C2653 1.415 . S
C2653 H2623 0.950 . S
C2653 C2648 1.363 . S
C2653 C2652 1.415 . S
H2654 C2651 0.999 . S
H2655 C2636 0.913 . S
H2656 C2674 0.951 . S
H2657 C2676 0.951 . S
H2658 C2678 0.950 . S
H2659 C2679 0.950 . S
H2660 C2681 0.950 . S
H2661 C2684 0.950 . S
H2662 C2685 0.950 . S
H2663 C2687 0.950 . S
H2664 C2688 0.950 . S
H2665 C2689 0.951 . S
H2666 C2691 0.951 . S
H2667 C2693 0.950 . S
H2668 C2694 0.950 . S
H2669 C2696 0.950 . S
H2670 C2699 0.950 . S
H2671 C2700 0.950 . S
H2672 C2702 0.950 . S
H2673 C2703 0.950 . S
C2674 H2656 0.951 . S
C2674 C2675 1.366 . S
C2674 C2676 1.388 . S
C2675 C2674 1.366 . S
C2675 C2679 1.385 . S
C2676 H2657 0.951 . S
C2676 C2674 1.388 . S
C2676 C2677 1.366 . S
C2677 C2676 1.366 . S
C2677 C2678 1.414 . S
C2677 C2680 1.499 . S
C2678 H2658 0.950 . S
C2678 C2677 1.414 . S
C2678 C2679 1.374 . S
C2679 H2659 0.950 . S
C2679 C2675 1.385 . S
C2679 C2678 1.374 . S
C2680 C2677 1.499 . S
C2680 C2681 1.373 . S
C2680 C2682 1.389 . S
C2681 H2660 0.950 . S
C2681 C2680 1.373 . S
C2681 C2697 1.377 . S
C2682 C2680 1.389 . S
C2682 C2683 1.524 . S
C2682 C2696 1.377 . S
C2683 C2682 1.524 . S
C2683 C2684 1.397 . S
C2683 C2688 1.363 . S
C2684 H2661 0.950 . S
C2684 C2683 1.397 . S
C2684 C2685 1.334 . S
C2685 H2662 0.950 . S
C2685 C2684 1.334 . S
C2685 C2686 1.287 . S
C2686 C2685 1.287 . S
C2686 C2687 1.524 . S
C2686 H2705 0.913 . S
C2687 H2663 0.950 . S
C2687 C2686 1.524 . S
C2687 C2688 1.415 . S
C2688 H2664 0.950 . S
C2688 C2683 1.363 . S
C2688 C2687 1.415 . S
C2689 H2665 0.951 . S
C2689 C2690 1.366 . S
C2689 C2691 1.388 . S
C2690 C2689 1.366 . S
C2690 C2694 1.385 . S
C2691 H2666 0.951 . S
C2691 C2689 1.388 . S
C2691 C2692 1.366 . S
C2692 C2691 1.366 . S
C2692 C2693 1.414 . S
C2692 C2695 1.499 . S
C2693 H2667 0.950 . S
C2693 C2692 1.414 . S
C2693 C2694 1.374 . S
C2694 H2668 0.950 . S
C2694 C2690 1.385 . S
C2694 C2693 1.374 . S
C2695 C2692 1.499 . S
C2695 C2696 1.373 . S
C2695 C2697 1.389 . S
C2696 H2669 0.950 . S
C2696 C2682 1.377 . S
C2696 C2695 1.373 . S
C2697 C2681 1.377 . S
C2697 C2695 1.389 . S
C2697 C2698 1.524 . S
C2698 C2697 1.524 . S
C2698 C2699 1.397 . S
C2698 C2703 1.363 . S
C2699 H2670 0.950 . S
C2699 C2698 1.397 . S
C2699 C2700 1.334 . S
C2700 H2671 0.950 . S
C2700 C2699 1.334 . S
C2700 C2701 1.287 . S
C2701 C2700 1.287 . S
C2701 C2702 1.524 . S
C2701 H2704 0.999 . S
C2702 H2672 0.950 . S
C2702 C2701 1.524 . S
C2702 C2703 1.415 . S
C2703 H2673 0.950 . S
C2703 C2698 1.363 . S
C2703 C2702 1.415 . S
H2704 C2701 0.999 . S
H2705 C2686 0.913 . S
H2706 C2724 0.951 . S
H2707 C2726 0.951 . S
H2708 C2728 0.950 . S
H2709 C2729 0.950 . S
H2710 C2731 0.950 . S
H2711 C2734 0.950 . S
H2712 C2735 0.950 . S
H2713 C2737 0.950 . S
H2714 C2738 0.950 . S
H2715 C2739 0.951 . S
H2716 C2741 0.951 . S
H2717 C2743 0.950 . S
H2718 C2744 0.950 . S
H2719 C2746 0.950 . S
H2720 C2749 0.950 . S
H2721 C2750 0.950 . S
H2722 C2752 0.950 . S
H2723 C2753 0.950 . S
C2724 H2706 0.951 . S
C2724 C2725 1.366 . S
C2724 C2726 1.388 . S
C2725 C2724 1.366 . S
C2725 C2729 1.385 . S
C2726 H2707 0.951 . S
C2726 C2724 1.388 . S
C2726 C2727 1.366 . S
C2727 C2726 1.366 . S
C2727 C2728 1.414 . S
C2727 C2730 1.499 . S
C2728 H2708 0.950 . S
C2728 C2727 1.414 . S
C2728 C2729 1.374 . S
C2729 H2709 0.950 . S
C2729 C2725 1.385 . S
C2729 C2728 1.374 . S
C2730 C2727 1.499 . S
C2730 C2731 1.373 . S
C2730 C2732 1.389 . S
C2731 H2710 0.950 . S
C2731 C2730 1.373 . S
C2731 C2747 1.377 . S
C2732 C2730 1.389 . S
C2732 C2733 1.524 . S
C2732 C2746 1.377 . S
C2733 C2732 1.524 . S
C2733 C2734 1.397 . S
C2733 C2738 1.363 . S
C2734 H2711 0.950 . S
C2734 C2733 1.397 . S
C2734 C2735 1.334 . S
C2735 H2712 0.950 . S
C2735 C2734 1.334 . S
C2735 C2736 1.287 . S
C2736 C2735 1.287 . S
C2736 C2737 1.524 . S
C2736 H2755 0.913 . S
C2737 H2713 0.950 . S
C2737 C2736 1.524 . S
C2737 C2738 1.415 . S
C2738 H2714 0.950 . S
C2738 C2733 1.363 . S
C2738 C2737 1.415 . S
C2739 H2715 0.951 . S
C2739 C2740 1.366 . S
C2739 C2741 1.388 . S
C2740 C2739 1.366 . S
C2740 C2744 1.385 . S
C2741 H2716 0.951 . S
C2741 C2739 1.388 . S
C2741 C2742 1.366 . S
C2742 C2741 1.366 . S
C2742 C2743 1.414 . S
C2742 C2745 1.499 . S
C2743 H2717 0.950 . S
C2743 C2742 1.414 . S
C2743 C2744 1.374 . S
C2744 H2718 0.950 . S
C2744 C2740 1.385 . S
C2744 C2743 1.374 . S
C2745 C2742 1.499 . S
C2745 C2746 1.373 . S
C2745 C2747 1.389 . S
C2746 H2719 0.950 . S
C2746 C2732 1.377 . S
C2746 C2745 1.373 . S
C2747 C2731 1.377 . S
C2747 C2745 1.389 . S
C2747 C2748 1.524 . S
C2748 C2747 1.524 . S
C2748 C2749 1.397 . S
C2748 C2753 1.363 . S
C2749 H2720 0.950 . S
C2749 C2748 1.397 . S
C2749 C2750 1.334 . S
C2750 H2721 0.950 . S
C2750 C2749 1.334 . S
C2750 C2751 1.287 . S
C2751 C2750 1.287 . S
C2751 C2752 1.524 . S
C2751 H2754 0.999 . S
C2752 H2722 0.950 . S
C2752 C2751 1.524 . S
C2752 C2753 1.415 . S
C2753 H2723 0.950 . S
C2753 C2748 1.363 . S
C2753 C2752 1.415 . S
H2754 C2751 0.999 . S
H2755 C2736 0.913 . S
H2756 C2774 0.951 . S
H2757 C2776 0.951 . S
H2758 C2778 0.950 . S
H2759 C2779 0.950 . S
H2760 C2781 0.950 . S
H2761 C2784 0.950 . S
H2762 C2785 0.950 . S
H2763 C2787 0.950 . S
H2764 C2788 0.950 . S
H2765 C2789 0.951 . S
H2766 C2791 0.951 . S
H2767 C2793 0.950 . S
H2768 C2794 0.950 . S
H2769 C2796 0.950 . S
H2770 C2799 0.950 . S
H2771 C2800 0.950 . S
H2772 C2802 0.950 . S
H2773 C2803 0.950 . S
C2774 H2756 0.951 . S
C2774 C2775 1.366 . S
C2774 C2776 1.388 . S
C2775 C2774 1.366 . S
C2775 C2779 1.385 . S
C2776 H2757 0.951 . S
C2776 C2774 1.388 . S
C2776 C2777 1.366 . S
C2777 C2776 1.366 . S
C2777 C2778 1.414 . S
C2777 C2780 1.499 . S
C2778 H2758 0.950 . S
C2778 C2777 1.414 . S
C2778 C2779 1.374 . S
C2779 H2759 0.950 . S
C2779 C2775 1.385 . S
C2779 C2778 1.374 . S
C2780 C2777 1.499 . S
C2780 C2781 1.373 . S
C2780 C2782 1.389 . S
C2781 H2760 0.950 . S
C2781 C2780 1.373 . S
C2781 C2797 1.377 . S
C2782 C2780 1.389 . S
C2782 C2783 1.524 . S
C2782 C2796 1.377 . S
C2783 C2782 1.524 . S
C2783 C2784 1.397 . S
C2783 C2788 1.363 . S
C2784 H2761 0.950 . S
C2784 C2783 1.397 . S
C2784 C2785 1.334 . S
C2785 H2762 0.950 . S
C2785 C2784 1.334 . S
C2785 C2786 1.287 . S
C2786 C2785 1.287 . S
C2786 C2787 1.524 . S
C2786 H2805 0.913 . S
C2787 H2763 0.950 . S
C2787 C2786 1.524 . S
C2787 C2788 1.415 . S
C2788 H2764 0.950 . S
C2788 C2783 1.363 . S
C2788 C2787 1.415 . S
C2789 H2765 0.951 . S
C2789 C2790 1.366 . S
C2789 C2791 1.388 . S
C2790 C2789 1.366 . S
C2790 C2794 1.385 . S
C2791 H2766 0.951 . S
C2791 C2789 1.388 . S
C2791 C2792 1.366 . S
C2792 C2791 1.366 . S
C2792 C2793 1.414 . S
C2792 C2795 1.499 . S
C2793 H2767 0.950 . S
C2793 C2792 1.414 . S
C2793 C2794 1.374 . S
C2794 H2768 0.950 . S
C2794 C2790 1.385 . S
C2794 C2793 1.374 . S
C2795 C2792 1.499 . S
C2795 C2796 1.373 . S
C2795 C2797 1.389 . S
C2796 H2769 0.950 . S
C2796 C2782 1.377 . S
C2796 C2795 1.373 . S
C2797 C2781 1.377 . S
C2797 C2795 1.389 . S
C2797 C2798 1.524 . S
C2798 C2797 1.524 . S
C2798 C2799 1.397 . S
C2798 C2803 1.363 . S
C2799 H2770 0.950 . S
C2799 C2798 1.397 . S
C2799 C2800 1.334 . S
C2800 H2771 0.950 . S
C2800 C2799 1.334 . S
C2800 C2801 1.287 . S
C2801 C2800 1.287 . S
C2801 C2802 1.524 . S
C2801 H2804 0.999 . S
C2802 H2772 0.950 . S
C2802 C2801 1.524 . S
C2802 C2803 1.415 . S
C2803 H2773 0.950 . S
C2803 C2798 1.363 . S
C2803 C2802 1.415 . S
H2804 C2801 0.999 . S
H2805 C2786 0.913 . S
H2806 C2824 0.951 . S
H2807 C2826 0.951 . S
H2808 C2828 0.950 . S
H2809 C2829 0.950 . S
H2810 C2831 0.950 . S
H2811 C2834 0.950 . S
H2812 C2835 0.950 . S
H2813 C2837 0.950 . S
H2814 C2838 0.950 . S
H2815 C2839 0.951 . S
H2816 C2841 0.951 . S
H2817 C2843 0.950 . S
H2818 C2844 0.950 . S
H2819 C2846 0.950 . S
H2820 C2849 0.950 . S
H2821 C2850 0.950 . S
H2822 C2852 0.950 . S
H2823 C2853 0.950 . S
C2824 H2806 0.951 . S
C2824 C2825 1.366 . S
C2824 C2826 1.388 . S
C2825 C2824 1.366 . S
C2825 C2829 1.385 . S
C2826 H2807 0.951 . S
C2826 C2824 1.388 . S
C2826 C2827 1.366 . S
C2827 C2826 1.366 . S
C2827 C2828 1.414 . S
C2827 C2830 1.499 . S
C2828 H2808 0.950 . S
C2828 C2827 1.414 . S
C2828 C2829 1.374 . S
C2829 H2809 0.950 . S
C2829 C2825 1.385 . S
C2829 C2828 1.374 . S
C2830 C2827 1.499 . S
C2830 C2831 1.373 . S
C2830 C2832 1.389 . S
C2831 H2810 0.950 . S
C2831 C2830 1.373 . S
C2831 C2847 1.377 . S
C2832 C2830 1.389 . S
C2832 C2833 1.524 . S
C2832 C2846 1.377 . S
C2833 C2832 1.524 . S
C2833 C2834 1.397 . S
C2833 C2838 1.363 . S
C2834 H2811 0.950 . S
C2834 C2833 1.397 . S
C2834 C2835 1.334 . S
C2835 H2812 0.950 . S
C2835 C2834 1.334 . S
C2835 C2836 1.287 . S
C2836 C2835 1.287 . S
C2836 C2837 1.524 . S
C2836 H2855 0.913 . S
C2837 H2813 0.950 . S
C2837 C2836 1.524 . S
C2837 C2838 1.415 . S
C2838 H2814 0.950 . S
C2838 C2833 1.363 . S
C2838 C2837 1.415 . S
C2839 H2815 0.951 . S
C2839 C2840 1.366 . S
C2839 C2841 1.388 . S
C2840 C2839 1.366 . S
C2840 C2844 1.385 . S
C2841 H2816 0.951 . S
C2841 C2839 1.388 . S
C2841 C2842 1.366 . S
C2842 C2841 1.366 . S
C2842 C2843 1.414 . S
C2842 C2845 1.499 . S
C2843 H2817 0.950 . S
C2843 C2842 1.414 . S
C2843 C2844 1.374 . S
C2844 H2818 0.950 . S
C2844 C2840 1.385 . S
C2844 C2843 1.374 . S
C2845 C2842 1.499 . S
C2845 C2846 1.373 . S
C2845 C2847 1.389 . S
C2846 H2819 0.950 . S
C2846 C2832 1.377 . S
C2846 C2845 1.373 . S
C2847 C2831 1.377 . S
C2847 C2845 1.389 . S
C2847 C2848 1.524 . S
C2848 C2847 1.524 . S
C2848 C2849 1.397 . S
C2848 C2853 1.363 . S
C2849 H2820 0.950 . S
C2849 C2848 1.397 . S
C2849 C2850 1.334 . S
C2850 H2821 0.950 . S
C2850 C2849 1.334 . S
C2850 C2851 1.287 . S
C2851 C2850 1.287 . S
C2851 C2852 1.524 . S
C2851 H2854 0.999 . S
C2852 H2822 0.950 . S
C2852 C2851 1.524 . S
C2852 C2853 1.415 . S
C2853 H2823 0.950 . S
C2853 C2848 1.363 . S
C2853 C2852 1.415 . S
H2854 C2851 0.999 . S
H2855 C2836 0.913 . S
H2856 C2874 0.951 . S
H2857 C2876 0.951 . S
H2858 C2878 0.950 . S
H2859 C2879 0.950 . S
H2860 C2881 0.950 . S
H2861 C2884 0.950 . S
H2862 C2885 0.950 . S
H2863 C2887 0.950 . S
H2864 C2888 0.950 . S
H2865 C2889 0.951 . S
H2866 C2891 0.951 . S
H2867 C2893 0.950 . S
H2868 C2894 0.950 . S
H2869 C2896 0.950 . S
H2870 C2899 0.950 . S
H2871 C2900 0.950 . S
H2872 C2902 0.950 . S
H2873 C2903 0.950 . S
C2874 H2856 0.951 . S
C2874 C2875 1.366 . S
C2874 C2876 1.388 . S
C2875 C2874 1.366 . S
C2875 C2879 1.385 . S
C2876 H2857 0.951 . S
C2876 C2874 1.388 . S
C2876 C2877 1.366 . S
C2877 C2876 1.366 . S
C2877 C2878 1.414 . S
C2877 C2880 1.499 . S
C2878 H2858 0.950 . S
C2878 C2877 1.414 . S
C2878 C2879 1.374 . S
C2879 H2859 0.950 . S
C2879 C2875 1.385 . S
C2879 C2878 1.374 . S
C2880 C2877 1.499 . S
C2880 C2881 1.373 . S
C2880 C2882 1.389 . S
C2881 H2860 0.950 . S
C2881 C2880 1.373 . S
C2881 C2897 1.377 . S
C2882 C2880 1.389 . S
C2882 C2883 1.524 . S
C2882 C2896 1.377 . S
C2883 C2882 1.524 . S
C2883 C2884 1.397 . S
C2883 C2888 1.363 . S
C2884 H2861 0.950 . S
C2884 C2883 1.397 . S
C2884 C2885 1.334 . S
C2885 H2862 0.950 . S
C2885 C2884 1.334 . S
C2885 C2886 1.287 . S
C2886 C2885 1.287 . S
C2886 C2887 1.524 . S
C2886 H2905 0.913 . S
C2887 H2863 0.950 . S
C2887 C2886 1.524 . S
C2887 C2888 1.415 . S
C2888 H2864 0.950 . S
C2888 C2883 1.363 . S
C2888 C2887 1.415 . S
C2889 H2865 0.951 . S
C2889 C2890 1.366 . S
C2889 C2891 1.388 . S
C2890 C2889 1.366 . S
C2890 C2894 1.385 . S
C2891 H2866 0.951 . S
C2891 C2889 1.388 . S
C2891 C2892 1.366 . S
C2892 C2891 1.366 . S
C2892 C2893 1.414 . S
C2892 C2895 1.499 . S
C2893 H2867 0.950 . S
C2893 C2892 1.414 . S
C2893 C2894 1.374 . S
C2894 H2868 0.950 . S
C2894 C2890 1.385 . S
C2894 C2893 1.374 . S
C2895 C2892 1.499 . S
C2895 C2896 1.373 . S
C2895 C2897 1.389 . S
C2896 H2869 0.950 . S
C2896 C2882 1.377 . S
C2896 C2895 1.373 . S
C2897 C2881 1.377 . S
C2897 C2895 1.389 . S
C2897 C2898 1.524 . S
C2898 C2897 1.524 . S
C2898 C2899 1.397 . S
C2898 C2903 1.363 . S
C2899 H2870 0.950 . S
C2899 C2898 1.397 . S
C2899 C2900 1.334 . S
C2900 H2871 0.950 . S
C2900 C2899 1.334 . S
C2900 C2901 1.287 . S
C2901 C2900 1.287 . S
C2901 C2902 1.524 . S
C2901 H2904 0.999 . S
C2902 H2872 0.950 . S
C2902 C2901 1.524 . S
C2902 C2903 1.415 . S
C2903 H2873 0.950 . S
C2903 C2898 1.363 . S
C2903 C2902 1.415 . S
H2904 C2901 0.999 . S
H2905 C2886 0.913 . S
H2906 C2924 0.951 . S
H2907 C2926 0.951 . S
H2908 C2928 0.950 . S
H2909 C2929 0.950 . S
H2910 C2931 0.950 . S
H2911 C2934 0.950 . S
H2912 C2935 0.950 . S
H2913 C2937 0.950 . S
H2914 C2938 0.950 . S
H2915 C2939 0.951 . S
H2916 C2941 0.951 . S
H2917 C2943 0.950 . S
H2918 C2944 0.950 . S
H2919 C2946 0.950 . S
H2920 C2949 0.950 . S
H2921 C2950 0.950 . S
H2922 C2952 0.950 . S
H2923 C2953 0.950 . S
C2924 H2906 0.951 . S
C2924 C2925 1.366 . S
C2924 C2926 1.388 . S
C2925 C2924 1.366 . S
C2925 C2929 1.385 . S
C2926 H2907 0.951 . S
C2926 C2924 1.388 . S
C2926 C2927 1.366 . S
C2927 C2926 1.366 . S
C2927 C2928 1.414 . S
C2927 C2930 1.499 . S
C2928 H2908 0.950 . S
C2928 C2927 1.414 . S
C2928 C2929 1.374 . S
C2929 H2909 0.950 . S
C2929 C2925 1.385 . S
C2929 C2928 1.374 . S
C2930 C2927 1.499 . S
C2930 C2931 1.373 . S
C2930 C2932 1.389 . S
C2931 H2910 0.950 . S
C2931 C2930 1.373 . S
C2931 C2947 1.377 . S
C2932 C2930 1.389 . S
C2932 C2933 1.524 . S
C2932 C2946 1.377 . S
C2933 C2932 1.524 . S
C2933 C2934 1.397 . S
C2933 C2938 1.363 . S
C2934 H2911 0.950 . S
C2934 C2933 1.397 . S
C2934 C2935 1.334 . S
C2935 H2912 0.950 . S
C2935 C2934 1.334 . S
C2935 C2936 1.287 . S
C2936 C2935 1.287 . S
C2936 C2937 1.524 . S
C2936 H2955 0.913 . S
C2937 H2913 0.950 . S
C2937 C2936 1.524 . S
C2937 C2938 1.415 . S
C2938 H2914 0.950 . S
C2938 C2933 1.363 . S
C2938 C2937 1.415 . S
C2939 H2915 0.951 . S
C2939 C2940 1.366 . S
C2939 C2941 1.388 . S
C2940 C2939 1.366 . S
C2940 C2944 1.385 . S
C2941 H2916 0.951 . S
C2941 C2939 1.388 . S
C2941 C2942 1.366 . S
C2942 C2941 1.366 . S
C2942 C2943 1.414 . S
C2942 C2945 1.499 . S
C2943 H2917 0.950 . S
C2943 C2942 1.414 . S
C2943 C2944 1.374 . S
C2944 H2918 0.950 . S
C2944 C2940 1.385 . S
C2944 C2943 1.374 . S
C2945 C2942 1.499 . S
C2945 C2946 1.373 . S
C2945 C2947 1.389 . S
C2946 H2919 0.950 . S
C2946 C2932 1.377 . S
C2946 C2945 1.373 . S
C2947 C2931 1.377 . S
C2947 C2945 1.389 . S
C2947 C2948 1.524 . S
C2948 C2947 1.524 . S
C2948 C2949 1.397 . S
C2948 C2953 1.363 . S
C2949 H2920 0.950 . S
C2949 C2948 1.397 . S
C2949 C2950 1.334 . S
C2950 H2921 0.950 . S
C2950 C2949 1.334 . S
C2950 C2951 1.287 . S
C2951 C2950 1.287 . S
C2951 C2952 1.524 . S
C2951 H2954 0.999 . S
C2952 H2922 0.950 . S
C2952 C2951 1.524 . S
C2952 C2953 1.415 . S
C2953 H2923 0.950 . S
C2953 C2948 1.363 . S
C2953 C2952 1.415 . S
H2954 C2951 0.999 . S
H2955 C2936 0.913 . S
H2956 C2974 0.951 . S
H2957 C2976 0.951 . S
H2958 C2978 0.950 . S
H2959 C2979 0.950 . S
H2960 C2981 0.950 . S
H2961 C2984 0.950 . S
H2962 C2985 0.950 . S
H2963 C2987 0.950 . S
H2964 C2988 0.950 . S
H2965 C2989 0.951 . S
H2966 C2991 0.951 . S
H2967 C2993 0.950 . S
H2968 C2994 0.950 . S
H2969 C2996 0.950 . S
H2970 C2999 0.950 . S
H2971 C3000 0.950 . S
H2972 C3002 0.950 . S
H2973 C3003 0.950 . S
C2974 H2956 0.951 . S
C2974 C2975 1.366 . S
C2974 C2976 1.388 . S
C2975 C2974 1.366 . S
C2975 C2979 1.385 . S
C2976 H2957 0.951 . S
C2976 C2974 1.388 . S
C2976 C2977 1.366 . S
C2977 C2976 1.366 . S
C2977 C2978 1.414 . S
C2977 C2980 1.499 . S
C2978 H2958 0.950 . S
C2978 C2977 1.414 . S
C2978 C2979 1.374 . S
C2979 H2959 0.950 . S
C2979 C2975 1.385 . S
C2979 C2978 1.374 . S
C2980 C2977 1.499 . S
C2980 C2981 1.373 . S
C2980 C2982 1.389 . S
C2981 H2960 0.950 . S
C2981 C2980 1.373 . S
C2981 C2997 1.377 . S
C2982 C2980 1.389 . S
C2982 C2983 1.524 . S
C2982 C2996 1.377 . S
C2983 C2982 1.524 . S
C2983 C2984 1.397 . S
C2983 C2988 1.363 . S
C2984 H2961 0.950 . S
C2984 C2983 1.397 . S
C2984 C2985 1.334 . S
C2985 H2962 0.950 . S
C2985 C2984 1.334 . S
C2985 C2986 1.287 . S
C2986 C2985 1.287 . S
C2986 C2987 1.524 . S
C2986 H3005 0.913 . S
C2987 H2963 0.950 . S
C2987 C2986 1.524 . S
C2987 C2988 1.415 . S
C2988 H2964 0.950 . S
C2988 C2983 1.363 . S
C2988 C2987 1.415 . S
C2989 H2965 0.951 . S
C2989 C2990 1.366 . S
C2989 C2991 1.388 . S
C2990 C2989 1.366 . S
C2990 C2994 1.385 . S
C2991 H2966 0.951 . S
C2991 C2989 1.388 . S
C2991 C2992 1.366 . S
C2992 C2991 1.366 . S
C2992 C2993 1.414 . S
C2992 C2995 1.499 . S
C2993 H2967 0.950 . S
C2993 C2992 1.414 . S
C2993 C2994 1.374 . S
C2994 H2968 0.950 . S
C2994 C2990 1.385 . S
C2994 C2993 1.374 . S
C2995 C2992 1.499 . S
C2995 C2996 1.373 . S
C2995 C2997 1.389 . S
C2996 H2969 0.950 . S
C2996 C2982 1.377 . S
C2996 C2995 1.373 . S
C2997 C2981 1.377 . S
C2997 C2995 1.389 . S
C2997 C2998 1.524 . S
C2998 C2997 1.524 . S
C2998 C2999 1.397 . S
C2998 C3003 1.363 . S
C2999 H2970 0.950 . S
C2999 C2998 1.397 . S
C2999 C3000 1.334 . S
C3000 H2971 0.950 . S
C3000 C2999 1.334 . S
C3000 C3001 1.287 . S
C3001 C3000 1.287 . S
C3001 C3002 1.524 . S
C3001 H3004 0.999 . S
C3002 H2972 0.950 . S
C3002 C3001 1.524 . S
C3002 C3003 1.415 . S
C3003 H2973 0.950 . S
C3003 C2998 1.363 . S
C3003 C3002 1.415 . S
H3004 C3001 0.999 . S
H3005 C2986 0.913 . S
H3006 C3024 0.951 . S
H3007 C3026 0.951 . S
H3008 C3028 0.950 . S
H3009 C3029 0.950 . S
H3010 C3031 0.950 . S
H3011 C3034 0.950 . S
H3012 C3035 0.950 . S
H3013 C3037 0.950 . S
H3014 C3038 0.950 . S
H3015 C3039 0.951 . S
H3016 C3041 0.951 . S
H3017 C3043 0.950 . S
H3018 C3044 0.950 . S
H3019 C3046 0.950 . S
H3020 C3049 0.950 . S
H3021 C3050 0.950 . S
H3022 C3052 0.950 . S
H3023 C3053 0.950 . S
C3024 H3006 0.951 . S
C3024 C3025 1.366 . S
C3024 C3026 1.388 . S
C3025 C3024 1.366 . S
C3025 C3029 1.385 . S
C3026 H3007 0.951 . S
C3026 C3024 1.388 . S
C3026 C3027 1.366 . S
C3027 C3026 1.366 . S
C3027 C3028 1.414 . S
C3027 C3030 1.499 . S
C3028 H3008 0.950 . S
C3028 C3027 1.414 . S
C3028 C3029 1.374 . S
C3029 H3009 0.950 . S
C3029 C3025 1.385 . S
C3029 C3028 1.374 . S
C3030 C3027 1.499 . S
C3030 C3031 1.373 . S
C3030 C3032 1.389 . S
C3031 H3010 0.950 . S
C3031 C3030 1.373 . S
C3031 C3047 1.377 . S
C3032 C3030 1.389 . S
C3032 C3033 1.524 . S
C3032 C3046 1.377 . S
C3033 C3032 1.524 . S
C3033 C3034 1.397 . S
C3033 C3038 1.363 . S
C3034 H3011 0.950 . S
C3034 C3033 1.397 . S
C3034 C3035 1.334 . S
C3035 H3012 0.950 . S
C3035 C3034 1.334 . S
C3035 C3036 1.287 . S
C3036 C3035 1.287 . S
C3036 C3037 1.524 . S
C3036 H3055 0.913 . S
C3037 H3013 0.950 . S
C3037 C3036 1.524 . S
C3037 C3038 1.415 . S
C3038 H3014 0.950 . S
C3038 C3033 1.363 . S
C3038 C3037 1.415 . S
C3039 H3015 0.951 . S
C3039 C3040 1.366 . S
C3039 C3041 1.388 . S
C3040 C3039 1.366 . S
C3040 C3044 1.385 . S
C3041 H3016 0.951 . S
C3041 C3039 1.388 . S
C3041 C3042 1.366 . S
C3042 C3041 1.366 . S
C3042 C3043 1.414 . S
C3042 C3045 1.499 . S
C3043 H3017 0.950 . S
C3043 C3042 1.414 . S
C3043 C3044 1.374 . S
C3044 H3018 0.950 . S
C3044 C3040 1.385 . S
C3044 C3043 1.374 . S
C3045 C3042 1.499 . S
C3045 C3046 1.373 . S
C3045 C3047 1.389 . S
C3046 H3019 0.950 . S
C3046 C3032 1.377 . S
C3046 C3045 1.373 . S
C3047 C3031 1.377 . S
C3047 C3045 1.389 . S
C3047 C3048 1.524 . S
C3048 C3047 1.524 . S
C3048 C3049 1.397 . S
C3048 C3053 1.363 . S
C3049 H3020 0.950 . S
C3049 C3048 1.397 . S
C3049 C3050 1.334 . S
C3050 H3021 0.950 . S
C3050 C3049 1.334 . S
C3050 C3051 1.287 . S
C3051 C3050 1.287 . S
C3051 C3052 1.524 . S
C3051 H3054 0.999 . S
C3052 H3022 0.950 . S
C3052 C3051 1.524 . S
C3052 C3053 1.415 . S
C3053 H3023 0.950 . S
C3053 C3048 1.363 . S
C3053 C3052 1.415 . S
H3054 C3051 0.999 . S
H3055 C3036 0.913 . S
H3056 C3074 0.951 . S
H3057 C3076 0.951 . S
H3058 C3078 0.950 . S
H3059 C3079 0.950 . S
H3060 C3081 0.950 . S
H3061 C3084 0.950 . S
H3062 C3085 0.950 . S
H3063 C3087 0.950 . S
H3064 C3088 0.950 . S
H3065 C3089 0.951 . S
H3066 C3091 0.951 . S
H3067 C3093 0.950 . S
H3068 C3094 0.950 . S
H3069 C3096 0.950 . S
H3070 C3099 0.950 . S
H3071 C3100 0.950 . S
H3072 C3102 0.950 . S
H3073 C3103 0.950 . S
C3074 H3056 0.951 . S
C3074 C3075 1.366 . S
C3074 C3076 1.388 . S
C3075 C3074 1.366 . S
C3075 C3079 1.385 . S
C3076 H3057 0.951 . S
C3076 C3074 1.388 . S
C3076 C3077 1.366 . S
C3077 C3076 1.366 . S
C3077 C3078 1.414 . S
C3077 C3080 1.499 . S
C3078 H3058 0.950 . S
C3078 C3077 1.414 . S
C3078 C3079 1.374 . S
C3079 H3059 0.950 . S
C3079 C3075 1.385 . S
C3079 C3078 1.374 . S
C3080 C3077 1.499 . S
C3080 C3081 1.373 . S
C3080 C3082 1.389 . S
C3081 H3060 0.950 . S
C3081 C3080 1.373 . S
C3081 C3097 1.377 . S
C3082 C3080 1.389 . S
C3082 C3083 1.524 . S
C3082 C3096 1.377 . S
C3083 C3082 1.524 . S
C3083 C3084 1.397 . S
C3083 C3088 1.363 1_455 S
C3084 H3061 0.950 . S
C3084 C3083 1.397 . S
C3084 C3085 1.334 1_455 S
C3085 H3062 0.950 . S
C3085 C3084 1.334 1_655 S
C3085 C3086 1.287 . S
C3086 C3085 1.287 . S
C3086 C3087 1.524 . S
C3086 H3105 0.913 . S
C3087 H3063 0.950 . S
C3087 C3086 1.524 . S
C3087 C3088 1.415 . S
C3088 H3064 0.950 . S
C3088 C3083 1.363 1_655 S
C3088 C3087 1.415 . S
C3089 H3065 0.951 . S
C3089 C3090 1.366 . S
C3089 C3091 1.388 . S
C3090 C3089 1.366 . S
C3090 C3094 1.385 . S
C3091 H3066 0.951 . S
C3091 C3089 1.388 . S
C3091 C3092 1.366 . S
C3092 C3091 1.366 . S
C3092 C3093 1.414 . S
C3092 C3095 1.499 . S
C3093 H3067 0.950 . S
C3093 C3092 1.414 . S
C3093 C3094 1.374 . S
C3094 H3068 0.950 . S
C3094 C3090 1.385 . S
C3094 C3093 1.374 . S
C3095 C3092 1.499 . S
C3095 C3096 1.373 . S
C3095 C3097 1.389 . S
C3096 H3069 0.950 . S
C3096 C3082 1.377 . S
C3096 C3095 1.373 . S
C3097 C3081 1.377 . S
C3097 C3095 1.389 . S
C3097 C3098 1.524 . S
C3098 C3097 1.524 . S
C3098 C3099 1.397 . S
C3098 C3103 1.363 . S
C3099 H3070 0.950 . S
C3099 C3098 1.397 . S
C3099 C3100 1.334 . S
C3100 H3071 0.950 . S
C3100 C3099 1.334 . S
C3100 C3101 1.287 . S
C3101 C3100 1.287 . S
C3101 C3102 1.524 . S
C3101 H3104 0.999 . S
C3102 H3072 0.950 . S
C3102 C3101 1.524 . S
C3102 C3103 1.415 . S
C3103 H3073 0.950 . S
C3103 C3098 1.363 . S
C3103 C3102 1.415 . S
H3104 C3101 0.999 . S
H3105 C3086 0.913 . S
H3106 C3124 0.951 . S
H3107 C3126 0.951 . S
H3108 C3128 0.950 . S
H3109 C3129 0.950 . S
H3110 C3131 0.950 . S
H3111 C3134 0.950 . S
H3112 C3135 0.950 . S
H3113 C3137 0.950 . S
H3114 C3138 0.950 . S
H3115 C3139 0.951 . S
H3116 C3141 0.951 . S
H3117 C3143 0.950 . S
H3118 C3144 0.950 . S
H3119 C3146 0.950 . S
H3120 C3149 0.950 . S
H3121 C3150 0.950 . S
H3122 C3152 0.950 . S
H3123 C3153 0.950 . S
C3124 H3106 0.951 . S
C3124 C3125 1.366 . S
C3124 C3126 1.388 . S
C3125 C3124 1.366 . S
C3125 C3129 1.385 . S
C3126 H3107 0.951 . S
C3126 C3124 1.388 . S
C3126 C3127 1.366 . S
C3127 C3126 1.366 . S
C3127 C3128 1.414 . S
C3127 C3130 1.499 . S
C3128 H3108 0.950 . S
C3128 C3127 1.414 . S
C3128 C3129 1.374 . S
C3129 H3109 0.950 . S
C3129 C3125 1.385 . S
C3129 C3128 1.374 . S
C3130 C3127 1.499 . S
C3130 C3131 1.373 . S
C3130 C3132 1.389 . S
C3131 H3110 0.950 . S
C3131 C3130 1.373 . S
C3131 C3147 1.377 . S
C3132 C3130 1.389 . S
C3132 C3133 1.524 . S
C3132 C3146 1.377 . S
C3133 C3132 1.524 . S
C3133 C3134 1.397 . S
C3133 C3138 1.363 . S
C3134 H3111 0.950 . S
C3134 C3133 1.397 . S
C3134 C3135 1.334 . S
C3135 H3112 0.950 . S
C3135 C3134 1.334 . S
C3135 C3136 1.287 . S
C3136 C3135 1.287 . S
C3136 C3137 1.524 . S
C3136 H3155 0.913 . S
C3137 H3113 0.950 . S
C3137 C3136 1.524 . S
C3137 C3138 1.415 . S
C3138 H3114 0.950 . S
C3138 C3133 1.363 . S
C3138 C3137 1.415 . S
C3139 H3115 0.951 . S
C3139 C3140 1.366 . S
C3139 C3141 1.388 . S
C3140 C3139 1.366 . S
C3140 C3144 1.385 . S
C3141 H3116 0.951 . S
C3141 C3139 1.388 . S
C3141 C3142 1.366 . S
C3142 C3141 1.366 . S
C3142 C3143 1.414 . S
C3142 C3145 1.499 . S
C3143 H3117 0.950 . S
C3143 C3142 1.414 . S
C3143 C3144 1.374 . S
C3144 H3118 0.950 . S
C3144 C3140 1.385 . S
C3144 C3143 1.374 . S
C3145 C3142 1.499 . S
C3145 C3146 1.373 . S
C3145 C3147 1.389 . S
C3146 H3119 0.950 . S
C3146 C3132 1.377 . S
C3146 C3145 1.373 . S
C3147 C3131 1.377 . S
C3147 C3145 1.389 . S
C3147 C3148 1.524 . S
C3148 C3147 1.524 . S
C3148 C3149 1.397 . S
C3148 C3153 1.363 . S
C3149 H3120 0.950 . S
C3149 C3148 1.397 . S
C3149 C3150 1.334 . S
C3150 H3121 0.950 . S
C3150 C3149 1.334 . S
C3150 C3151 1.287 . S
C3151 C3150 1.287 . S
C3151 C3152 1.524 . S
C3151 H3154 0.999 . S
C3152 H3122 0.950 . S
C3152 C3151 1.524 . S
C3152 C3153 1.415 . S
C3153 H3123 0.950 . S
C3153 C3148 1.363 . S
C3153 C3152 1.415 . S
H3154 C3151 0.999 . S
H3155 C3136 0.913 . S
H3156 C3174 0.951 . S
H3157 C3176 0.951 . S
H3158 C3178 0.950 . S
H3159 C3179 0.950 . S
H3160 C3181 0.950 . S
H3161 C3184 0.950 . S
H3162 C3185 0.950 . S
H3163 C3187 0.950 . S
H3164 C3188 0.950 . S
H3165 C3189 0.951 . S
H3166 C3191 0.951 . S
H3167 C3193 0.950 . S
H3168 C3194 0.950 . S
H3169 C3196 0.950 . S
H3170 C3199 0.950 . S
H3171 C3200 0.950 . S
H3172 C3202 0.950 . S
H3173 C3203 0.950 . S
C3174 H3156 0.951 . S
C3174 C3175 1.366 . S
C3174 C3176 1.388 . S
C3175 C3174 1.366 . S
C3175 C3179 1.385 . S
C3176 H3157 0.951 . S
C3176 C3174 1.388 . S
C3176 C3177 1.366 . S
C3177 C3176 1.366 . S
C3177 C3178 1.414 . S
C3177 C3180 1.499 . S
C3178 H3158 0.950 . S
C3178 C3177 1.414 . S
C3178 C3179 1.374 . S
C3179 H3159 0.950 . S
C3179 C3175 1.385 . S
C3179 C3178 1.374 . S
C3180 C3177 1.499 . S
C3180 C3181 1.373 . S
C3180 C3182 1.389 . S
C3181 H3160 0.950 . S
C3181 C3180 1.373 . S
C3181 C3197 1.377 . S
C3182 C3180 1.389 . S
C3182 C3183 1.524 . S
C3182 C3196 1.377 . S
C3183 C3182 1.524 . S
C3183 C3184 1.397 . S
C3183 C3188 1.363 . S
C3184 H3161 0.950 . S
C3184 C3183 1.397 . S
C3184 C3185 1.334 . S
C3185 H3162 0.950 . S
C3185 C3184 1.334 . S
C3185 C3186 1.287 . S
C3186 C3185 1.287 . S
C3186 C3187 1.524 . S
C3186 H3205 0.913 . S
C3187 H3163 0.950 . S
C3187 C3186 1.524 . S
C3187 C3188 1.415 . S
C3188 H3164 0.950 . S
C3188 C3183 1.363 . S
C3188 C3187 1.415 . S
C3189 H3165 0.951 . S
C3189 C3190 1.366 . S
C3189 C3191 1.388 . S
C3190 C3189 1.366 . S
C3190 C3194 1.385 . S
C3191 H3166 0.951 . S
C3191 C3189 1.388 . S
C3191 C3192 1.366 . S
C3192 C3191 1.366 . S
C3192 C3193 1.414 . S
C3192 C3195 1.499 . S
C3193 H3167 0.950 . S
C3193 C3192 1.414 . S
C3193 C3194 1.374 . S
C3194 H3168 0.950 . S
C3194 C3190 1.385 . S
C3194 C3193 1.374 . S
C3195 C3192 1.499 . S
C3195 C3196 1.373 . S
C3195 C3197 1.389 . S
C3196 H3169 0.950 . S
C3196 C3182 1.377 . S
C3196 C3195 1.373 . S
C3197 C3181 1.377 . S
C3197 C3195 1.389 . S
C3197 C3198 1.524 . S
C3198 C3197 1.524 . S
C3198 C3199 1.397 . S
C3198 C3203 1.363 . S
C3199 H3170 0.950 . S
C3199 C3198 1.397 . S
C3199 C3200 1.334 . S
C3200 H3171 0.950 . S
C3200 C3199 1.334 . S
C3200 C3201 1.287 . S
C3201 C3200 1.287 . S
C3201 C3202 1.524 . S
C3201 H3204 0.999 . S
C3202 H3172 0.950 . S
C3202 C3201 1.524 . S
C3202 C3203 1.415 . S
C3203 H3173 0.950 . S
C3203 C3198 1.363 . S
C3203 C3202 1.415 . S
H3204 C3201 0.999 . S
H3205 C3186 0.913 . S
H3206 C3224 0.951 . S
H3207 C3226 0.951 . S
H3208 C3228 0.950 . S
H3209 C3229 0.950 . S
H3210 C3231 0.950 . S
H3211 C3234 0.950 . S
H3212 C3235 0.950 . S
H3213 C3237 0.950 . S
H3214 C3238 0.950 . S
H3215 C3239 0.951 . S
H3216 C3241 0.951 . S
H3217 C3243 0.950 . S
H3218 C3244 0.950 . S
H3219 C3246 0.950 . S
H3220 C3249 0.950 . S
H3221 C3250 0.950 . S
H3222 C3252 0.950 . S
H3223 C3253 0.950 . S
C3224 H3206 0.951 . S
C3224 C3225 1.366 . S
C3224 C3226 1.388 . S
C3225 C3224 1.366 . S
C3225 C3229 1.385 . S
C3226 H3207 0.951 . S
C3226 C3224 1.388 . S
C3226 C3227 1.366 . S
C3227 C3226 1.366 . S
C3227 C3228 1.414 . S
C3227 C3230 1.499 . S
C3228 H3208 0.950 . S
C3228 C3227 1.414 . S
C3228 C3229 1.374 . S
C3229 H3209 0.950 . S
C3229 C3225 1.385 . S
C3229 C3228 1.374 . S
C3230 C3227 1.499 . S
C3230 C3231 1.373 . S
C3230 C3232 1.389 . S
C3231 H3210 0.950 . S
C3231 C3230 1.373 . S
C3231 C3247 1.377 . S
C3232 C3230 1.389 . S
C3232 C3233 1.524 . S
C3232 C3246 1.377 . S
C3233 C3232 1.524 . S
C3233 C3234 1.397 . S
C3233 C3238 1.363 . S
C3234 H3211 0.950 . S
C3234 C3233 1.397 . S
C3234 C3235 1.334 . S
C3235 H3212 0.950 . S
C3235 C3234 1.334 . S
C3235 C3236 1.287 . S
C3236 C3235 1.287 . S
C3236 C3237 1.524 . S
C3236 H3255 0.913 . S
C3237 H3213 0.950 . S
C3237 C3236 1.524 . S
C3237 C3238 1.415 . S
C3238 H3214 0.950 . S
C3238 C3233 1.363 . S
C3238 C3237 1.415 . S
C3239 H3215 0.951 . S
C3239 C3240 1.366 . S
C3239 C3241 1.388 . S
C3240 C3239 1.366 . S
C3240 C3244 1.385 . S
C3241 H3216 0.951 . S
C3241 C3239 1.388 . S
C3241 C3242 1.366 . S
C3242 C3241 1.366 . S
C3242 C3243 1.414 . S
C3242 C3245 1.499 . S
C3243 H3217 0.950 . S
C3243 C3242 1.414 . S
C3243 C3244 1.374 . S
C3244 H3218 0.950 . S
C3244 C3240 1.385 . S
C3244 C3243 1.374 . S
C3245 C3242 1.499 . S
C3245 C3246 1.373 . S
C3245 C3247 1.389 . S
C3246 H3219 0.950 . S
C3246 C3232 1.377 . S
C3246 C3245 1.373 . S
C3247 C3231 1.377 . S
C3247 C3245 1.389 . S
C3247 C3248 1.524 . S
C3248 C3247 1.524 . S
C3248 C3249 1.397 . S
C3248 C3253 1.363 . S
C3249 H3220 0.950 . S
C3249 C3248 1.397 . S
C3249 C3250 1.334 . S
C3250 H3221 0.950 . S
C3250 C3249 1.334 . S
C3250 C3251 1.287 . S
C3251 C3250 1.287 . S
C3251 C3252 1.524 . S
C3251 H3254 0.999 . S
C3252 H3222 0.950 . S
C3252 C3251 1.524 . S
C3252 C3253 1.415 . S
C3253 H3223 0.950 . S
C3253 C3248 1.363 . S
C3253 C3252 1.415 . S
H3254 C3251 0.999 . S
H3255 C3236 0.913 . S
H3256 C3274 0.951 . S
H3257 C3276 0.951 . S
H3258 C3278 0.950 . S
H3259 C3279 0.950 . S
H3260 C3281 0.950 . S
H3261 C3284 0.950 . S
H3262 C3285 0.950 . S
H3263 C3287 0.950 . S
H3264 C3288 0.950 . S
H3265 C3289 0.951 . S
H3266 C3291 0.951 . S
H3267 C3293 0.950 . S
H3268 C3294 0.950 . S
H3269 C3296 0.950 . S
H3270 C3299 0.950 1_545 S
H3271 C3300 0.950 . S
H3272 C3302 0.950 . S
H3273 C3303 0.950 . S
C3274 H3256 0.951 . S
C3274 C3275 1.366 . S
C3274 C3276 1.388 . S
C3275 C3274 1.366 . S
C3275 C3279 1.385 . S
C3276 H3257 0.951 . S
C3276 C3274 1.388 . S
C3276 C3277 1.366 . S
C3277 C3276 1.366 . S
C3277 C3278 1.414 . S
C3277 C3280 1.499 . S
C3278 H3258 0.950 . S
C3278 C3277 1.414 . S
C3278 C3279 1.374 . S
C3279 H3259 0.950 . S
C3279 C3275 1.385 . S
C3279 C3278 1.374 . S
C3280 C3277 1.499 . S
C3280 C3281 1.373 . S
C3280 C3282 1.389 . S
C3281 H3260 0.950 . S
C3281 C3280 1.373 . S
C3281 C3297 1.377 . S
C3282 C3280 1.389 . S
C3282 C3283 1.524 . S
C3282 C3296 1.377 . S
C3283 C3282 1.524 . S
C3283 C3284 1.397 . S
C3283 C3288 1.363 . S
C3284 H3261 0.950 . S
C3284 C3283 1.397 . S
C3284 C3285 1.334 . S
C3285 H3262 0.950 . S
C3285 C3284 1.334 . S
C3285 C3286 1.287 . S
C3286 C3285 1.287 . S
C3286 C3287 1.524 . S
C3286 H3305 0.913 . S
C3287 H3263 0.950 . S
C3287 C3286 1.524 . S
C3287 C3288 1.415 . S
C3288 H3264 0.950 . S
C3288 C3283 1.363 . S
C3288 C3287 1.415 . S
C3289 H3265 0.951 . S
C3289 C3290 1.366 . S
C3289 C3291 1.388 . S
C3290 C3289 1.366 . S
C3290 C3294 1.385 . S
C3291 H3266 0.951 . S
C3291 C3289 1.388 . S
C3291 C3292 1.366 . S
C3292 C3291 1.366 . S
C3292 C3293 1.414 . S
C3292 C3295 1.499 . S
C3293 H3267 0.950 . S
C3293 C3292 1.414 . S
C3293 C3294 1.374 . S
C3294 H3268 0.950 . S
C3294 C3290 1.385 . S
C3294 C3293 1.374 . S
C3295 C3292 1.499 . S
C3295 C3296 1.373 . S
C3295 C3297 1.389 . S
C3296 H3269 0.950 . S
C3296 C3282 1.377 . S
C3296 C3295 1.373 . S
C3297 C3281 1.377 . S
C3297 C3295 1.389 . S
C3297 C3298 1.524 . S
C3298 C3297 1.524 . S
C3298 C3299 1.397 1_545 S
C3298 C3303 1.363 1_545 S
C3299 H3270 0.950 1_565 S
C3299 C3298 1.397 1_565 S
C3299 C3300 1.334 . S
C3300 H3271 0.950 . S
C3300 C3299 1.334 . S
C3300 C3301 1.287 . S
C3301 C3300 1.287 . S
C3301 C3302 1.524 . S
C3301 H3304 0.999 . S
C3302 H3272 0.950 . S
C3302 C3301 1.524 . S
C3302 C3303 1.415 . S
C3303 H3273 0.950 . S
C3303 C3298 1.363 1_565 S
C3303 C3302 1.415 . S
H3304 C3301 0.999 . S
H3305 C3286 0.913 . S
H3306 C3324 0.951 . S
H3307 C3326 0.951 . S
H3308 C3328 0.950 . S
H3309 C3329 0.950 . S
H3310 C3331 0.950 . S
H3311 C3334 0.950 . S
H3312 C3335 0.950 . S
H3313 C3337 0.950 . S
H3314 C3338 0.950 . S
H3315 C3339 0.951 . S
H3316 C3341 0.951 . S
H3317 C3343 0.950 . S
H3318 C3344 0.950 . S
H3319 C3346 0.950 . S
H3320 C3349 0.950 . S
H3321 C3350 0.950 . S
H3322 C3352 0.950 . S
H3323 C3353 0.950 . S
C3324 H3306 0.951 . S
C3324 C3325 1.366 . S
C3324 C3326 1.388 . S
C3325 C3324 1.366 . S
C3325 C3329 1.385 . S
C3326 H3307 0.951 . S
C3326 C3324 1.388 . S
C3326 C3327 1.366 . S
C3327 C3326 1.366 . S
C3327 C3328 1.414 . S
C3327 C3330 1.499 . S
C3328 H3308 0.950 . S
C3328 C3327 1.414 . S
C3328 C3329 1.374 . S
C3329 H3309 0.950 . S
C3329 C3325 1.385 . S
C3329 C3328 1.374 . S
C3330 C3327 1.499 . S
C3330 C3331 1.373 . S
C3330 C3332 1.389 . S
C3331 H3310 0.950 . S
C3331 C3330 1.373 . S
C3331 C3347 1.377 . S
C3332 C3330 1.389 . S
C3332 C3333 1.524 . S
C3332 C3346 1.377 . S
C3333 C3332 1.524 . S
C3333 C3334 1.397 . S
C3333 C3338 1.363 . S
C3334 H3311 0.950 . S
C3334 C3333 1.397 . S
C3334 C3335 1.334 . S
C3335 H3312 0.950 . S
C3335 C3334 1.334 . S
C3335 C3336 1.287 . S
C3336 C3335 1.287 . S
C3336 C3337 1.524 . S
C3336 H3355 0.913 . S
C3337 H3313 0.950 . S
C3337 C3336 1.524 . S
C3337 C3338 1.415 . S
C3338 H3314 0.950 . S
C3338 C3333 1.363 . S
C3338 C3337 1.415 . S
C3339 H3315 0.951 . S
C3339 C3340 1.366 . S
C3339 C3341 1.388 . S
C3340 C3339 1.366 . S
C3340 C3344 1.385 . S
C3341 H3316 0.951 . S
C3341 C3339 1.388 . S
C3341 C3342 1.366 . S
C3342 C3341 1.366 . S
C3342 C3343 1.414 . S
C3342 C3345 1.499 . S
C3343 H3317 0.950 . S
C3343 C3342 1.414 . S
C3343 C3344 1.374 . S
C3344 H3318 0.950 . S
C3344 C3340 1.385 . S
C3344 C3343 1.374 . S
C3345 C3342 1.499 . S
C3345 C3346 1.373 . S
C3345 C3347 1.389 . S
C3346 H3319 0.950 . S
C3346 C3332 1.377 . S
C3346 C3345 1.373 . S
C3347 C3331 1.377 . S
C3347 C3345 1.389 . S
C3347 C3348 1.524 . S
C3348 C3347 1.524 . S
C3348 C3349 1.397 . S
C3348 C3353 1.363 . S
C3349 H3320 0.950 . S
C3349 C3348 1.397 . S
C3349 C3350 1.334 . S
C3350 H3321 0.950 . S
C3350 C3349 1.334 . S
C3350 C3351 1.287 . S
C3351 C3350 1.287 . S
C3351 C3352 1.524 . S
C3351 H3354 0.999 . S
C3352 H3322 0.950 . S
C3352 C3351 1.524 . S
C3352 C3353 1.415 . S
C3353 H3323 0.950 . S
C3353 C3348 1.363 . S
C3353 C3352 1.415 . S
H3354 C3351 0.999 . S
H3355 C3336 0.913 . S
H3356 C3374 0.951 . S
H3357 C3376 0.951 . S
H3358 C3378 0.950 1_565 S
H3359 C3379 0.950 1_565 S
H3360 C3381 0.950 . S
H3361 C3384 0.950 . S
H3362 C3385 0.950 . S
H3363 C3387 0.950 . S
H3364 C3388 0.950 . S
H3365 C3389 0.951 . S
H3366 C3391 0.951 1_565 S
H3367 C3393 0.950 . S
H3368 C3394 0.950 . S
H3369 C3396 0.950 . S
H3370 C3399 0.950 . S
H3371 C3400 0.950 . S
H3372 C3402 0.950 . S
H3373 C3403 0.950 . S
C3374 H3356 0.951 . S
C3374 C3375 1.366 . S
C3374 C3376 1.388 . S
C3375 C3374 1.366 . S
C3375 C3379 1.385 . S
C3376 H3357 0.951 . S
C3376 C3374 1.388 . S
C3376 C3377 1.366 . S
C3377 C3376 1.366 . S
C3377 C3378 1.414 . S
C3377 C3380 1.499 . S
C3378 H3358 0.950 1_545 S
C3378 C3377 1.414 . S
C3378 C3379 1.374 . S
C3379 H3359 0.950 1_545 S
C3379 C3375 1.385 . S
C3379 C3378 1.374 . S
C3380 C3377 1.499 . S
C3380 C3381 1.373 1_545 S
C3380 C3382 1.389 . S
C3381 H3360 0.950 . S
C3381 C3380 1.373 1_565 S
C3381 C3397 1.369 . S
C3382 C3380 1.389 . S
C3382 C3383 1.524 . S
C3382 C3396 1.377 . S
C3383 C3382 1.524 . S
C3383 C3384 1.397 . S
C3383 C3388 1.363 . S
C3384 H3361 0.950 . S
C3384 C3383 1.397 . S
C3384 C3385 1.334 . S
C3385 H3362 0.950 . S
C3385 C3384 1.334 . S
C3385 C3386 1.287 . S
C3386 C3385 1.287 . S
C3386 C3387 1.524 . S
C3386 H3405 0.913 . S
C3387 H3363 0.950 . S
C3387 C3386 1.524 . S
C3387 C3388 1.415 . S
C3388 H3364 0.950 . S
C3388 C3383 1.363 . S
C3388 C3387 1.415 . S
C3389 H3365 0.951 . S
C3389 C3390 1.366 . S
C3389 C3391 1.388 . S
C3390 C3389 1.366 . S
C3390 C3394 1.385 . S
C3391 H3366 0.951 1_545 S
C3391 C3389 1.388 . S
C3391 C3392 1.366 . S
C3392 C3391 1.366 . S
C3392 C3393 1.414 . S
C3392 C3395 1.499 . S
C3393 H3367 0.950 . S
C3393 C3392 1.414 . S
C3393 C3394 1.374 . S
C3394 H3368 0.950 . S
C3394 C3390 1.385 . S
C3394 C3393 1.374 . S
C3395 C3392 1.499 . S
C3395 C3396 1.373 . S
C3395 C3397 1.347 1_545 S
C3396 H3369 0.950 . S
C3396 C3382 1.377 . S
C3396 C3395 1.373 . S
C3397 C3381 1.369 . S
C3397 C3395 1.347 1_565 S
C3397 C3398 1.578 . S
C3398 C3397 1.578 . S
C3398 C3399 1.397 . S
C3398 C3403 1.363 . S
C3399 H3370 0.950 . S
C3399 C3398 1.397 . S
C3399 C3400 1.334 . S
C3400 H3371 0.950 . S
C3400 C3399 1.334 . S
C3400 C3401 1.287 . S
C3401 C3400 1.287 . S
C3401 C3402 1.524 . S
C3401 H3404 0.999 . S
C3402 H3372 0.950 . S
C3402 C3401 1.524 . S
C3402 C3403 1.415 . S
C3403 H3373 0.950 . S
C3403 C3398 1.363 . S
C3403 C3402 1.415 . S
H3404 C3401 0.999 . S
H3405 C3386 0.913 . S
H3406 C3424 0.951 . S
H3407 C3426 0.951 . S
H3408 C3428 0.950 . S
H3409 C3429 0.950 . S
H3410 C3431 0.950 . S
H3411 C3434 0.950 . S
H3412 C3435 0.950 . S
H3413 C3437 0.950 . S
H3414 C3438 0.950 . S
H3415 C3439 0.951 . S
H3416 C3441 0.951 . S
H3417 C3443 0.950 . S
H3418 C3444 0.950 . S
H3419 C3446 0.950 . S
H3420 C3449 0.950 . S
H3421 C3450 0.950 . S
H3422 C3452 0.950 . S
H3423 C3453 0.950 . S
C3424 H3406 0.951 . S
C3424 C3425 1.366 . S
C3424 C3426 1.388 . S
C3425 C3424 1.366 . S
C3425 C3429 1.385 . S
C3426 H3407 0.951 . S
C3426 C3424 1.388 . S
C3426 C3427 1.366 . S
C3427 C3426 1.366 . S
C3427 C3428 1.414 . S
C3427 C3430 1.499 . S
C3428 H3408 0.950 . S
C3428 C3427 1.414 . S
C3428 C3429 1.374 . S
C3429 H3409 0.950 . S
C3429 C3425 1.385 . S
C3429 C3428 1.374 . S
C3430 C3427 1.499 . S
C3430 C3431 1.373 . S
C3430 C3432 1.389 . S
C3431 H3410 0.950 . S
C3431 C3430 1.373 . S
C3431 C3447 1.377 . S
C3432 C3430 1.389 . S
C3432 C3433 1.524 . S
C3432 C3446 1.377 . S
C3433 C3432 1.524 . S
C3433 C3434 1.397 . S
C3433 C3438 1.363 . S
C3434 H3411 0.950 . S
C3434 C3433 1.397 . S
C3434 C3435 1.334 . S
C3435 H3412 0.950 . S
C3435 C3434 1.334 . S
C3435 C3436 1.287 . S
C3436 C3435 1.287 . S
C3436 C3437 1.524 . S
C3436 H3455 0.913 . S
C3437 H3413 0.950 . S
C3437 C3436 1.524 . S
C3437 C3438 1.415 . S
C3438 H3414 0.950 . S
C3438 C3433 1.363 . S
C3438 C3437 1.415 . S
C3439 H3415 0.951 . S
C3439 C3440 1.366 . S
C3439 C3441 1.388 . S
C3440 C3439 1.366 . S
C3440 C3444 1.385 . S
C3441 H3416 0.951 . S
C3441 C3439 1.388 . S
C3441 C3442 1.366 . S
C3442 C3441 1.366 . S
C3442 C3443 1.414 . S
C3442 C3445 1.499 . S
C3443 H3417 0.950 . S
C3443 C3442 1.414 . S
C3443 C3444 1.374 . S
C3444 H3418 0.950 . S
C3444 C3440 1.385 . S
C3444 C3443 1.374 . S
C3445 C3442 1.499 . S
C3445 C3446 1.373 . S
C3445 C3447 1.389 . S
C3446 H3419 0.950 . S
C3446 C3432 1.377 . S
C3446 C3445 1.373 . S
C3447 C3431 1.377 . S
C3447 C3445 1.389 . S
C3447 C3448 1.524 . S
C3448 C3447 1.524 . S
C3448 C3449 1.397 . S
C3448 C3453 1.363 . S
C3449 H3420 0.950 . S
C3449 C3448 1.397 . S
C3449 C3450 1.334 . S
C3450 H3421 0.950 . S
C3450 C3449 1.334 . S
C3450 C3451 1.287 . S
C3451 C3450 1.287 . S
C3451 C3452 1.524 . S
C3451 H3454 0.999 . S
C3452 H3422 0.950 . S
C3452 C3451 1.524 . S
C3452 C3453 1.415 . S
C3453 H3423 0.950 . S
C3453 C3448 1.363 . S
C3453 C3452 1.415 . S
H3454 C3451 0.999 . S
H3455 C3436 0.913 . S
H3456 C3474 0.951 . S
H3457 C3476 0.951 . S
H3458 C3478 0.950 . S
H3459 C3479 0.950 . S
H3460 C3481 0.950 . S
H3461 C3484 0.950 . S
H3462 C3485 0.950 . S
H3463 C3487 0.950 . S
H3464 C3488 0.950 . S
H3465 C3489 0.951 . S
H3466 C3491 0.951 . S
H3467 C3493 0.950 . S
H3468 C3494 0.950 . S
H3469 C3496 0.950 1_565 S
H3470 C3499 0.950 . S
H3471 C3500 0.950 . S
H3472 C3502 0.950 . S
H3473 C3503 0.950 . S
C3474 H3456 0.951 . S
C3474 C3475 1.366 . S
C3474 C3476 1.388 . S
C3475 C3474 1.366 . S
C3475 C3479 1.385 . S
C3476 H3457 0.951 . S
C3476 C3474 1.388 . S
C3476 C3477 1.366 . S
C3477 C3476 1.366 . S
C3477 C3478 1.414 . S
C3477 C3480 1.499 . S
C3478 H3458 0.950 . S
C3478 C3477 1.414 . S
C3478 C3479 1.374 . S
C3479 H3459 0.950 . S
C3479 C3475 1.385 . S
C3479 C3478 1.374 . S
C3480 C3477 1.499 . S
C3480 C3481 1.373 . S
C3480 C3482 1.389 . S
C3481 H3460 0.950 . S
C3481 C3480 1.373 . S
C3481 C3497 1.377 . S
C3482 C3480 1.389 . S
C3482 C3483 1.524 1_545 S
C3482 C3496 1.377 . S
C3483 C3482 1.524 1_565 S
C3483 C3484 1.397 . S
C3483 C3488 1.363 . S
C3484 H3461 0.950 . S
C3484 C3483 1.397 . S
C3484 C3485 1.334 . S
C3485 H3462 0.950 . S
C3485 C3484 1.334 . S
C3485 C3486 1.287 . S
C3486 C3485 1.287 . S
C3486 C3487 1.524 . S
C3486 H3505 0.913 . S
C3487 H3463 0.950 . S
C3487 C3486 1.524 . S
C3487 C3488 1.415 . S
C3488 H3464 0.950 . S
C3488 C3483 1.363 . S
C3488 C3487 1.415 . S
C3489 H3465 0.951 . S
C3489 C3490 1.366 . S
C3489 C3491 1.388 . S
C3490 C3489 1.366 . S
C3490 C3494 1.385 . S
C3491 H3466 0.951 . S
C3491 C3489 1.388 . S
C3491 C3492 1.366 . S
C3492 C3491 1.366 . S
C3492 C3493 1.414 . S
C3492 C3495 1.499 . S
C3493 H3467 0.950 . S
C3493 C3492 1.414 . S
C3493 C3494 1.374 . S
C3494 H3468 0.950 . S
C3494 C3490 1.385 . S
C3494 C3493 1.374 . S
C3495 C3492 1.499 . S
C3495 C3496 1.373 . S
C3495 C3497 1.389 . S
C3496 H3469 0.950 1_545 S
C3496 C3482 1.377 . S
C3496 C3495 1.373 . S
C3497 C3481 1.377 . S
C3497 C3495 1.389 . S
C3497 C3498 1.524 . S
C3498 C3497 1.524 . S
C3498 C3499 1.397 . S
C3498 C3503 1.363 . S
C3499 H3470 0.950 . S
C3499 C3498 1.397 . S
C3499 C3500 1.334 . S
C3500 H3471 0.950 . S
C3500 C3499 1.334 . S
C3500 C3501 1.287 . S
C3501 C3500 1.287 . S
C3501 C3502 1.524 . S
C3501 H3504 0.999 . S
C3502 H3472 0.950 . S
C3502 C3501 1.524 . S
C3502 C3503 1.415 . S
C3503 H3473 0.950 . S
C3503 C3498 1.363 . S
C3503 C3502 1.415 . S
H3504 C3501 0.999 . S
H3505 C3486 0.913 . S
H3506 C3524 0.951 . S
H3507 C3526 0.951 . S
H3508 C3528 0.950 . S
H3509 C3529 0.950 . S
H3510 C3531 0.950 . S
H3511 C3534 0.950 . S
H3512 C3535 0.950 . S
H3513 C3537 0.950 . S
H3514 C3538 0.950 . S
H3515 C3539 0.951 . S
H3516 C3541 0.951 . S
H3517 C3543 0.950 . S
H3518 C3544 0.950 . S
H3519 C3546 0.950 . S
H3520 C3549 0.950 . S
H3521 C3550 0.950 . S
H3522 C3552 0.950 . S
H3523 C3553 0.950 . S
C3524 H3506 0.951 . S
C3524 C3525 1.366 . S
C3524 C3526 1.388 . S
C3525 C3524 1.366 . S
C3525 C3529 1.385 . S
C3526 H3507 0.951 . S
C3526 C3524 1.388 . S
C3526 C3527 1.366 . S
C3527 C3526 1.366 . S
C3527 C3528 1.414 . S
C3527 C3530 1.499 . S
C3528 H3508 0.950 . S
C3528 C3527 1.414 . S
C3528 C3529 1.374 . S
C3529 H3509 0.950 . S
C3529 C3525 1.385 . S
C3529 C3528 1.374 . S
C3530 C3527 1.499 . S
C3530 C3531 1.373 . S
C3530 C3532 1.389 . S
C3531 H3510 0.950 . S
C3531 C3530 1.373 . S
C3531 C3547 1.377 . S
C3532 C3530 1.389 . S
C3532 C3533 1.524 . S
C3532 C3546 1.377 . S
C3533 C3532 1.524 . S
C3533 C3534 1.397 . S
C3533 C3538 1.363 . S
C3534 H3511 0.950 . S
C3534 C3533 1.397 . S
C3534 C3535 1.334 . S
C3535 H3512 0.950 . S
C3535 C3534 1.334 . S
C3535 C3536 1.287 . S
C3536 C3535 1.287 . S
C3536 C3537 1.524 . S
C3536 H3555 0.913 . S
C3537 H3513 0.950 . S
C3537 C3536 1.524 . S
C3537 C3538 1.415 . S
C3538 H3514 0.950 . S
C3538 C3533 1.363 . S
C3538 C3537 1.415 . S
C3539 H3515 0.951 . S
C3539 C3540 1.366 . S
C3539 C3541 1.388 . S
C3540 C3539 1.366 . S
C3540 C3544 1.385 . S
C3541 H3516 0.951 . S
C3541 C3539 1.388 . S
C3541 C3542 1.366 . S
C3542 C3541 1.366 . S
C3542 C3543 1.414 . S
C3542 C3545 1.499 . S
C3543 H3517 0.950 . S
C3543 C3542 1.414 . S
C3543 C3544 1.374 . S
C3544 H3518 0.950 . S
C3544 C3540 1.385 . S
C3544 C3543 1.374 . S
C3545 C3542 1.499 . S
C3545 C3546 1.373 . S
C3545 C3547 1.389 . S
C3546 H3519 0.950 . S
C3546 C3532 1.377 . S
C3546 C3545 1.373 . S
C3547 C3531 1.377 . S
C3547 C3545 1.389 . S
C3547 C3548 1.524 . S
C3548 C3547 1.524 . S
C3548 C3549 1.397 . S
C3548 C3553 1.363 . S
C3549 H3520 0.950 . S
C3549 C3548 1.397 . S
C3549 C3550 1.334 . S
C3550 H3521 0.950 . S
C3550 C3549 1.334 . S
C3550 C3551 1.287 . S
C3551 C3550 1.287 . S
C3551 C3552 1.524 . S
C3551 H3554 0.999 . S
C3552 H3522 0.950 . S
C3552 C3551 1.524 . S
C3552 C3553 1.415 . S
C3553 H3523 0.950 . S
C3553 C3548 1.363 . S
C3553 C3552 1.415 . S
H3554 C3551 0.999 . S
H3555 C3536 0.913 . S
H3556 C3574 0.948 1_565 S
H3557 C3576 0.951 . S
H3558 C3578 0.950 . S
H3559 C3579 0.950 . S
H3560 C3581 0.950 . S
H3561 C3584 0.950 . S
H3562 C3585 0.950 . S
H3563 C3587 0.950 . S
H3564 C3588 0.950 . S
H3565 C3589 0.951 . S
H3566 C3591 0.951 . S
H3567 C3593 0.950 . S
H3568 C3594 0.950 . S
H3569 C3596 0.950 1_565 S
H3570 C3599 0.950 . S
H3571 C3600 0.950 . S
H3572 C3602 0.950 . S
H3573 C3603 0.950 . S
C3574 H3556 0.948 1_545 S
C3574 C3575 1.366 . S
C3574 C3576 1.388 . S
C3575 C3574 1.366 . S
C3575 C3579 1.385 . S
C3576 H3557 0.951 . S
C3576 C3574 1.388 . S
C3576 C3577 1.366 . S
C3577 C3576 1.366 . S
C3577 C3578 1.414 . S
C3577 C3580 1.499 . S
C3578 H3558 0.950 . S
C3578 C3577 1.414 . S
C3578 C3579 1.374 . S
C3579 H3559 0.950 . S
C3579 C3575 1.385 . S
C3579 C3578 1.374 . S
C3580 C3577 1.499 . S
C3580 C3581 1.373 . S
C3580 C3582 1.389 . S
C3581 H3560 0.950 . S
C3581 C3580 1.373 . S
C3581 C3597 1.377 . S
C3582 C3580 1.389 . S
C3582 C3583 1.524 1_545 S
C3582 C3596 1.377 . S
C3583 C3582 1.524 1_565 S
C3583 C3584 1.397 . S
C3583 C3588 1.363 . S
C3584 H3561 0.950 . S
C3584 C3583 1.397 . S
C3584 C3585 1.334 . S
C3585 H3562 0.950 . S
C3585 C3584 1.334 . S
C3585 C3586 1.287 . S
C3586 C3585 1.287 . S
C3586 C3587 1.524 . S
C3586 H3605 0.913 . S
C3587 H3563 0.950 . S
C3587 C3586 1.524 . S
C3587 C3588 1.415 . S
C3588 H3564 0.950 . S
C3588 C3583 1.363 . S
C3588 C3587 1.415 . S
C3589 H3565 0.951 . S
C3589 C3590 1.366 . S
C3589 C3591 1.388 . S
C3590 C3589 1.366 . S
C3590 C3594 1.385 . S
C3591 H3566 0.951 . S
C3591 C3589 1.388 . S
C3591 C3592 1.366 . S
C3592 C3591 1.366 . S
C3592 C3593 1.414 . S
C3592 C3595 1.499 . S
C3593 H3567 0.950 . S
C3593 C3592 1.414 . S
C3593 C3594 1.374 . S
C3594 H3568 0.950 . S
C3594 C3590 1.385 . S
C3594 C3593 1.374 . S
C3595 C3592 1.499 . S
C3595 C3596 1.373 . S
C3595 C3597 1.389 . S
C3596 H3569 0.950 1_545 S
C3596 C3582 1.377 . S
C3596 C3595 1.373 . S
C3597 C3581 1.377 . S
C3597 C3595 1.389 . S
C3597 C3598 1.524 . S
C3598 C3597 1.524 . S
C3598 C3599 1.397 . S
C3598 C3603 1.363 . S
C3599 H3570 0.950 . S
C3599 C3598 1.397 . S
C3599 C3600 1.334 . S
C3600 H3571 0.950 . S
C3600 C3599 1.334 . S
C3600 C3601 1.287 . S
C3601 C3600 1.287 . S
C3601 C3602 1.524 . S
C3601 H3604 0.999 . S
C3602 H3572 0.950 . S
C3602 C3601 1.524 . S
C3602 C3603 1.415 . S
C3603 H3573 0.950 . S
C3603 C3598 1.363 . S
C3603 C3602 1.415 . S
H3604 C3601 0.999 . S
H3605 C3586 0.913 . S
H3606 C3624 0.951 . S
H3607 C3626 0.951 . S
H3608 C3628 0.950 . S
H3609 C3629 0.950 . S
H3610 C3631 0.950 . S
H3611 C3634 0.950 . S
H3612 C3635 0.950 . S
H3613 C3637 0.950 . S
H3614 C3638 0.950 . S
H3615 C3639 0.951 . S
H3616 C3641 0.951 . S
H3617 C3643 0.950 . S
H3618 C3644 0.950 . S
H3619 C3646 0.950 . S
H3620 C3649 0.950 . S
H3621 C3650 0.950 . S
H3622 C3652 0.950 . S
H3623 C3653 0.950 . S
C3624 H3606 0.951 . S
C3624 C3625 1.366 . S
C3624 C3626 1.388 . S
C3625 C3624 1.366 . S
C3625 C3629 1.385 . S
C3626 H3607 0.951 . S
C3626 C3624 1.388 . S
C3626 C3627 1.366 . S
C3627 C3626 1.366 . S
C3627 C3628 1.414 . S
C3627 C3630 1.499 . S
C3628 H3608 0.950 . S
C3628 C3627 1.414 . S
C3628 C3629 1.374 . S
C3629 H3609 0.950 . S
C3629 C3625 1.385 . S
C3629 C3628 1.374 . S
C3630 C3627 1.499 . S
C3630 C3631 1.373 . S
C3630 C3632 1.389 . S
C3631 H3610 0.950 . S
C3631 C3630 1.373 . S
C3631 C3647 1.377 . S
C3632 C3630 1.389 . S
C3632 C3633 1.524 . S
C3632 C3646 1.377 . S
C3633 C3632 1.524 . S
C3633 C3634 1.397 . S
C3633 C3638 1.363 . S
C3634 H3611 0.950 . S
C3634 C3633 1.397 . S
C3634 C3635 1.334 . S
C3635 H3612 0.950 . S
C3635 C3634 1.334 . S
C3635 C3636 1.287 . S
C3636 C3635 1.287 . S
C3636 C3637 1.524 . S
C3636 H3655 0.913 . S
C3637 H3613 0.950 . S
C3637 C3636 1.524 . S
C3637 C3638 1.415 . S
C3638 H3614 0.950 . S
C3638 C3633 1.363 . S
C3638 C3637 1.415 . S
C3639 H3615 0.951 . S
C3639 C3640 1.366 . S
C3639 C3641 1.388 . S
C3640 C3639 1.366 . S
C3640 C3644 1.385 . S
C3641 H3616 0.951 . S
C3641 C3639 1.388 . S
C3641 C3642 1.366 . S
C3642 C3641 1.366 . S
C3642 C3643 1.414 . S
C3642 C3645 1.499 . S
C3643 H3617 0.950 . S
C3643 C3642 1.414 . S
C3643 C3644 1.374 . S
C3644 H3618 0.950 . S
C3644 C3640 1.385 . S
C3644 C3643 1.374 . S
C3645 C3642 1.499 . S
C3645 C3646 1.373 . S
C3645 C3647 1.389 . S
C3646 H3619 0.950 . S
C3646 C3632 1.377 . S
C3646 C3645 1.373 . S
C3647 C3631 1.377 . S
C3647 C3645 1.389 . S
C3647 C3648 1.524 . S
C3648 C3647 1.524 . S
C3648 C3649 1.397 . S
C3648 C3653 1.363 . S
C3649 H3620 0.950 . S
C3649 C3648 1.397 . S
C3649 C3650 1.334 . S
C3650 H3621 0.950 . S
C3650 C3649 1.334 . S
C3650 C3651 1.287 . S
C3651 C3650 1.287 . S
C3651 C3652 1.524 . S
C3651 H3654 0.999 . S
C3652 H3622 0.950 . S
C3652 C3651 1.524 . S
C3652 C3653 1.415 . S
C3653 H3623 0.950 . S
C3653 C3648 1.363 . S
C3653 C3652 1.415 . S
H3654 C3651 0.999 . S
H3655 C3636 0.913 . S
H3656 C3674 0.951 . S
H3657 C3676 0.951 . S
H3658 C3678 0.950 . S
H3659 C3679 0.950 . S
H3660 C3681 0.950 . S
H3661 C3684 0.950 . S
H3662 C3685 0.950 . S
H3663 C3687 0.950 . S
H3664 C3688 0.950 . S
H3665 C3689 0.951 . S
H3666 C3691 0.951 . S
H3667 C3693 0.950 . S
H3668 C3694 0.950 . S
H3669 C3696 0.950 . S
H3670 C3699 0.950 . S
H3671 C3700 0.950 . S
H3672 C3702 0.950 . S
H3673 C3703 0.950 . S
C3674 H3656 0.951 . S
C3674 C3675 1.366 . S
C3674 C3676 1.388 . S
C3675 C3674 1.366 . S
C3675 C3679 1.385 . S
C3676 H3657 0.951 . S
C3676 C3674 1.388 . S
C3676 C3677 1.366 . S
C3677 C3676 1.366 . S
C3677 C3678 1.414 . S
C3677 C3680 1.499 . S
C3678 H3658 0.950 . S
C3678 C3677 1.414 . S
C3678 C3679 1.374 . S
C3679 H3659 0.950 . S
C3679 C3675 1.385 . S
C3679 C3678 1.374 . S
C3680 C3677 1.499 . S
C3680 C3681 1.373 . S
C3680 C3682 1.389 . S
C3681 H3660 0.950 . S
C3681 C3680 1.373 . S
C3681 C3697 1.377 . S
C3682 C3680 1.389 . S
C3682 C3683 1.524 . S
C3682 C3696 1.377 . S
C3683 C3682 1.524 . S
C3683 C3684 1.397 . S
C3683 C3688 1.363 . S
C3684 H3661 0.950 . S
C3684 C3683 1.397 . S
C3684 C3685 1.334 . S
C3685 H3662 0.950 . S
C3685 C3684 1.334 . S
C3685 C3686 1.287 . S
C3686 C3685 1.287 . S
C3686 C3687 1.524 . S
C3686 H3705 0.913 . S
C3687 H3663 0.950 . S
C3687 C3686 1.524 . S
C3687 C3688 1.415 . S
C3688 H3664 0.950 . S
C3688 C3683 1.363 . S
C3688 C3687 1.415 . S
C3689 H3665 0.951 . S
C3689 C3690 1.366 . S
C3689 C3691 1.388 . S
C3690 C3689 1.366 . S
C3690 C3694 1.385 . S
C3691 H3666 0.951 . S
C3691 C3689 1.388 . S
C3691 C3692 1.366 . S
C3692 C3691 1.366 . S
C3692 C3693 1.414 . S
C3692 C3695 1.499 . S
C3693 H3667 0.950 . S
C3693 C3692 1.414 . S
C3693 C3694 1.374 . S
C3694 H3668 0.950 . S
C3694 C3690 1.385 . S
C3694 C3693 1.374 . S
C3695 C3692 1.499 . S
C3695 C3696 1.373 . S
C3695 C3697 1.389 . S
C3696 H3669 0.950 . S
C3696 C3682 1.377 . S
C3696 C3695 1.373 . S
C3697 C3681 1.377 . S
C3697 C3695 1.389 . S
C3697 C3698 1.524 . S
C3698 C3697 1.524 . S
C3698 C3699 1.397 . S
C3698 C3703 1.363 . S
C3699 H3670 0.950 . S
C3699 C3698 1.397 . S
C3699 C3700 1.334 . S
C3700 H3671 0.950 . S
C3700 C3699 1.334 . S
C3700 C3701 1.287 . S
C3701 C3700 1.287 . S
C3701 C3702 1.524 . S
C3701 H3704 0.999 . S
C3702 H3672 0.950 . S
C3702 C3701 1.524 . S
C3702 C3703 1.415 . S
C3703 H3673 0.950 . S
C3703 C3698 1.363 . S
C3703 C3702 1.415 . S
H3704 C3701 0.999 . S
H3705 C3686 0.913 . S
H3706 C3724 0.951 . S
H3707 C3726 0.951 . S
H3708 C3728 0.950 . S
H3709 C3729 0.950 . S
H3710 C3731 0.950 . S
H3711 C3734 0.950 . S
H3712 C3735 0.950 . S
H3713 C3737 0.950 . S
H3714 C3738 0.950 . S
H3715 C3739 0.951 . S
H3716 C3741 0.951 . S
H3717 C3743 0.950 . S
H3718 C3744 0.950 . S
H3719 C3746 0.950 . S
H3720 C3749 0.950 . S
H3721 C3750 0.950 . S
H3722 C3752 0.950 . S
H3723 C3753 0.950 . S
C3724 H3706 0.951 . S
C3724 C3725 1.366 . S
C3724 C3726 1.388 . S
C3725 C3724 1.366 . S
C3725 C3729 1.385 . S
C3726 H3707 0.951 . S
C3726 C3724 1.388 . S
C3726 C3727 1.366 . S
C3727 C3726 1.366 . S
C3727 C3728 1.414 . S
C3727 C3730 1.499 . S
C3728 H3708 0.950 . S
C3728 C3727 1.414 . S
C3728 C3729 1.374 . S
C3729 H3709 0.950 . S
C3729 C3725 1.385 . S
C3729 C3728 1.374 . S
C3730 C3727 1.499 . S
C3730 C3731 1.373 . S
C3730 C3732 1.389 . S
C3731 H3710 0.950 . S
C3731 C3730 1.373 . S
C3731 C3747 1.377 . S
C3732 C3730 1.389 . S
C3732 C3733 1.524 1_554 S
C3732 C3746 1.377 . S
C3733 C3732 1.524 1_556 S
C3733 C3734 1.397 . S
C3733 C3738 1.363 . S
C3734 H3711 0.950 . S
C3734 C3733 1.397 . S
C3734 C3735 1.334 . S
C3735 H3712 0.950 . S
C3735 C3734 1.334 . S
C3735 C3736 1.287 . S
C3736 C3735 1.287 . S
C3736 C3737 1.524 . S
C3736 H3755 0.913 . S
C3737 H3713 0.950 . S
C3737 C3736 1.524 . S
C3737 C3738 1.415 . S
C3738 H3714 0.950 . S
C3738 C3733 1.363 . S
C3738 C3737 1.415 . S
C3739 H3715 0.951 . S
C3739 C3740 1.366 . S
C3739 C3741 1.388 . S
C3740 C3739 1.366 . S
C3740 C3744 1.385 . S
C3741 H3716 0.951 . S
C3741 C3739 1.388 . S
C3741 C3742 1.366 . S
C3742 C3741 1.366 . S
C3742 C3743 1.414 . S
C3742 C3745 1.499 . S
C3743 H3717 0.950 . S
C3743 C3742 1.414 . S
C3743 C3744 1.374 . S
C3744 H3718 0.950 . S
C3744 C3740 1.385 . S
C3744 C3743 1.374 . S
C3745 C3742 1.499 . S
C3745 C3746 1.373 . S
C3745 C3747 1.389 . S
C3746 H3719 0.950 . S
C3746 C3732 1.377 . S
C3746 C3745 1.373 . S
C3747 C3731 1.377 . S
C3747 C3745 1.389 . S
C3747 C3748 1.524 . S
C3748 C3747 1.524 . S
C3748 C3749 1.397 . S
C3748 C3753 1.363 . S
C3749 H3720 0.950 . S
C3749 C3748 1.397 . S
C3749 C3750 1.334 . S
C3750 H3721 0.950 . S
C3750 C3749 1.334 . S
C3750 C3751 1.287 . S
C3751 C3750 1.287 . S
C3751 C3752 1.524 . S
C3751 H3754 0.999 . S
C3752 H3722 0.950 . S
C3752 C3751 1.524 . S
C3752 C3753 1.415 . S
C3753 H3723 0.950 . S
C3753 C3748 1.363 . S
C3753 C3752 1.415 . S
H3754 C3751 0.999 . S
H3755 C3736 0.913 . S
H3756 C3774 0.951 . S
H3757 C3776 0.951 . S
H3758 C3778 0.950 . S
H3759 C3779 0.950 . S
H3760 C3781 0.950 . S
H3761 C3784 0.950 . S
H3762 C3785 0.950 . S
H3763 C3787 0.950 . S
H3764 C3788 0.950 . S
H3765 C3789 0.951 . S
H3766 C3791 0.951 . S
H3767 C3793 0.950 . S
H3768 C3794 0.950 . S
H3769 C3796 0.950 . S
H3770 C3799 0.950 . S
H3771 C3800 0.950 . S
H3772 C3802 0.950 . S
H3773 C3803 0.950 . S
C3774 H3756 0.951 . S
C3774 C3775 1.366 . S
C3774 C3776 1.388 . S
C3775 C3774 1.366 . S
C3775 C3779 1.385 . S
C3776 H3757 0.951 . S
C3776 C3774 1.388 . S
C3776 C3777 1.366 . S
C3777 C3776 1.366 . S
C3777 C3778 1.414 . S
C3777 C3780 1.499 . S
C3778 H3758 0.950 . S
C3778 C3777 1.414 . S
C3778 C3779 1.374 . S
C3779 H3759 0.950 . S
C3779 C3775 1.385 . S
C3779 C3778 1.374 . S
C3780 C3777 1.499 . S
C3780 C3781 1.373 . S
C3780 C3782 1.389 . S
C3781 H3760 0.950 . S
C3781 C3780 1.373 . S
C3781 C3797 1.377 . S
C3782 C3780 1.389 . S
C3782 C3783 1.524 . S
C3782 C3796 1.377 . S
C3783 C3782 1.524 . S
C3783 C3784 1.397 . S
C3783 C3788 1.363 . S
C3784 H3761 0.950 . S
C3784 C3783 1.397 . S
C3784 C3785 1.334 . S
C3785 H3762 0.950 . S
C3785 C3784 1.334 . S
C3785 C3786 1.287 . S
C3786 C3785 1.287 . S
C3786 C3787 1.524 . S
C3786 H3805 0.913 . S
C3787 H3763 0.950 . S
C3787 C3786 1.524 . S
C3787 C3788 1.415 . S
C3788 H3764 0.950 . S
C3788 C3783 1.363 . S
C3788 C3787 1.415 . S
C3789 H3765 0.951 . S
C3789 C3790 1.366 . S
C3789 C3791 1.388 . S
C3790 C3789 1.366 . S
C3790 C3794 1.385 . S
C3791 H3766 0.951 . S
C3791 C3789 1.388 . S
C3791 C3792 1.366 . S
C3792 C3791 1.366 . S
C3792 C3793 1.414 . S
C3792 C3795 1.499 . S
C3793 H3767 0.950 . S
C3793 C3792 1.414 . S
C3793 C3794 1.374 . S
C3794 H3768 0.950 . S
C3794 C3790 1.385 . S
C3794 C3793 1.374 . S
C3795 C3792 1.499 . S
C3795 C3796 1.373 . S
C3795 C3797 1.389 . S
C3796 H3769 0.950 . S
C3796 C3782 1.377 . S
C3796 C3795 1.373 . S
C3797 C3781 1.377 . S
C3797 C3795 1.389 . S
C3797 C3798 1.524 . S
C3798 C3797 1.524 . S
C3798 C3799 1.397 . S
C3798 C3803 1.363 . S
C3799 H3770 0.950 . S
C3799 C3798 1.397 . S
C3799 C3800 1.334 . S
C3800 H3771 0.950 . S
C3800 C3799 1.334 . S
C3800 C3801 1.287 . S
C3801 C3800 1.287 . S
C3801 C3802 1.524 . S
C3801 H3804 0.999 . S
C3802 H3772 0.950 . S
C3802 C3801 1.524 . S
C3802 C3803 1.415 . S
C3803 H3773 0.950 . S
C3803 C3798 1.363 . S
C3803 C3802 1.415 . S
H3804 C3801 0.999 . S
H3805 C3786 0.913 . S
H3806 C3824 0.951 . S
H3807 C3826 0.951 . S
H3808 C3828 0.950 . S
H3809 C3829 0.950 . S
H3810 C3831 0.950 . S
H3811 C3834 0.950 . S
H3812 C3835 0.950 . S
H3813 C3837 0.950 . S
H3814 C3838 0.950 . S
H3815 C3839 0.951 . S
H3816 C3841 0.951 . S
H3817 C3843 0.950 . S
H3818 C3844 0.950 . S
H3819 C3846 0.950 . S
H3820 C3849 0.950 . S
H3821 C3850 0.950 . S
H3822 C3852 0.950 . S
H3823 C3853 0.950 . S
C3824 H3806 0.951 . S
C3824 C3825 1.366 . S
C3824 C3826 1.388 . S
C3825 C3824 1.366 . S
C3825 C3829 1.385 . S
C3826 H3807 0.951 . S
C3826 C3824 1.388 . S
C3826 C3827 1.366 . S
C3827 C3826 1.366 . S
C3827 C3828 1.414 . S
C3827 C3830 1.499 . S
C3828 H3808 0.950 . S
C3828 C3827 1.414 . S
C3828 C3829 1.374 . S
C3829 H3809 0.950 . S
C3829 C3825 1.385 . S
C3829 C3828 1.374 . S
C3830 C3827 1.499 . S
C3830 C3831 1.373 . S
C3830 C3832 1.389 . S
C3831 H3810 0.950 . S
C3831 C3830 1.373 . S
C3831 C3847 1.377 . S
C3832 C3830 1.389 . S
C3832 C3833 1.524 . S
C3832 C3846 1.377 . S
C3833 C3832 1.524 . S
C3833 C3834 1.397 . S
C3833 C3838 1.363 . S
C3834 H3811 0.950 . S
C3834 C3833 1.397 . S
C3834 C3835 1.334 . S
C3835 H3812 0.950 . S
C3835 C3834 1.334 . S
C3835 C3836 1.287 . S
C3836 C3835 1.287 . S
C3836 C3837 1.524 . S
C3836 H3855 0.913 . S
C3837 H3813 0.950 . S
C3837 C3836 1.524 . S
C3837 C3838 1.415 . S
C3838 H3814 0.950 . S
C3838 C3833 1.363 . S
C3838 C3837 1.415 . S
C3839 H3815 0.951 . S
C3839 C3840 1.366 . S
C3839 C3841 1.388 . S
C3840 C3839 1.366 . S
C3840 C3844 1.385 . S
C3841 H3816 0.951 . S
C3841 C3839 1.388 . S
C3841 C3842 1.366 . S
C3842 C3841 1.366 . S
C3842 C3843 1.414 . S
C3842 C3845 1.499 . S
C3843 H3817 0.950 . S
C3843 C3842 1.414 . S
C3843 C3844 1.374 . S
C3844 H3818 0.950 . S
C3844 C3840 1.385 . S
C3844 C3843 1.374 . S
C3845 C3842 1.499 . S
C3845 C3846 1.373 . S
C3845 C3847 1.389 . S
C3846 H3819 0.950 . S
C3846 C3832 1.377 . S
C3846 C3845 1.373 . S
C3847 C3831 1.377 . S
C3847 C3845 1.389 . S
C3847 C3848 1.524 . S
C3848 C3847 1.524 . S
C3848 C3849 1.397 . S
C3848 C3853 1.363 . S
C3849 H3820 0.950 . S
C3849 C3848 1.397 . S
C3849 C3850 1.334 . S
C3850 H3821 0.950 . S
C3850 C3849 1.334 . S
C3850 C3851 1.287 . S
C3851 C3850 1.287 . S
C3851 C3852 1.524 . S
C3851 H3854 0.999 . S
C3852 H3822 0.950 . S
C3852 C3851 1.524 . S
C3852 C3853 1.415 . S
C3853 H3823 0.950 . S
C3853 C3848 1.363 . S
C3853 C3852 1.415 . S
H3854 C3851 0.999 . S
H3855 C3836 0.913 . S
H3856 C3874 0.951 1_545 S
H3857 C3876 0.951 . S
H3858 C3878 0.950 . S
H3859 C3879 0.950 . S
H3860 C3881 0.950 . S
H3861 C3884 0.950 . S
H3862 C3885 0.950 . S
H3863 C3887 0.950 . S
H3864 C3888 0.950 . S
H3865 C3889 0.951 . S
H3866 C3891 0.951 . S
H3867 C3893 0.950 . S
H3868 C3894 0.950 . S
H3869 C3896 0.950 . S
H3870 C3899 0.950 . S
H3871 C3900 0.950 . S
H3872 C3902 0.950 . S
H3873 C3903 0.950 . S
C3874 H3856 0.951 1_565 S
C3874 C3875 1.366 . S
C3874 C3876 1.388 . S
C3875 C3874 1.366 . S
C3875 C3879 1.385 . S
C3876 H3857 0.951 . S
C3876 C3874 1.388 . S
C3876 C3877 1.366 . S
C3877 C3876 1.366 . S
C3877 C3878 1.414 . S
C3877 C3880 1.499 . S
C3878 H3858 0.950 . S
C3878 C3877 1.414 . S
C3878 C3879 1.374 . S
C3879 H3859 0.950 . S
C3879 C3875 1.385 . S
C3879 C3878 1.374 . S
C3880 C3877 1.499 . S
C3880 C3881 1.373 . S
C3880 C3882 1.389 . S
C3881 H3860 0.950 . S
C3881 C3880 1.373 . S
C3881 C3897 1.377 . S
C3882 C3880 1.389 . S
C3882 C3883 1.524 . S
C3882 C3896 1.377 . S
C3883 C3882 1.524 . S
C3883 C3884 1.397 . S
C3883 C3888 1.363 . S
C3884 H3861 0.950 . S
C3884 C3883 1.397 . S
C3884 C3885 1.334 . S
C3885 H3862 0.950 . S
C3885 C3884 1.334 . S
C3885 C3886 1.287 . S
C3886 C3885 1.287 . S
C3886 C3887 1.524 . S
C3886 H3905 0.913 1_565 S
C3887 H3863 0.950 . S
C3887 C3886 1.524 . S
C3887 C3888 1.415 . S
C3888 H3864 0.950 . S
C3888 C3883 1.363 . S
C3888 C3887 1.415 . S
C3889 H3865 0.951 . S
C3889 C3890 1.366 . S
C3889 C3891 1.388 . S
C3890 C3889 1.366 . S
C3890 C3894 1.385 . S
C3891 H3866 0.951 . S
C3891 C3889 1.388 . S
C3891 C3892 1.366 . S
C3892 C3891 1.366 . S
C3892 C3893 1.414 . S
C3892 C3895 1.499 . S
C3893 H3867 0.950 . S
C3893 C3892 1.414 . S
C3893 C3894 1.374 . S
C3894 H3868 0.950 . S
C3894 C3890 1.385 . S
C3894 C3893 1.374 . S
C3895 C3892 1.499 . S
C3895 C3896 1.373 . S
C3895 C3897 1.389 . S
C3896 H3869 0.950 . S
C3896 C3882 1.377 . S
C3896 C3895 1.373 . S
C3897 C3881 1.377 . S
C3897 C3895 1.389 . S
C3897 C3898 1.524 . S
C3898 C3897 1.524 . S
C3898 C3899 1.397 . S
C3898 C3903 1.363 . S
C3899 H3870 0.950 . S
C3899 C3898 1.397 . S
C3899 C3900 1.334 . S
C3900 H3871 0.950 . S
C3900 C3899 1.334 . S
C3900 C3901 1.287 . S
C3901 C3900 1.287 . S
C3901 C3902 1.524 . S
C3901 H3904 0.999 . S
C3902 H3872 0.950 . S
C3902 C3901 1.524 . S
C3902 C3903 1.415 . S
C3903 H3873 0.950 . S
C3903 C3898 1.363 . S
C3903 C3902 1.415 . S
H3904 C3901 0.999 . S
H3905 C3886 0.913 1_545 S
H3906 C3924 0.951 . S
H3907 C3926 0.951 . S
H3908 C3928 0.950 . S
H3909 C3929 0.950 . S
H3910 C3931 0.950 . S
H3911 C3934 0.950 . S
H3912 C3935 0.950 . S
H3913 C3937 0.950 . S
H3914 C3938 0.950 . S
H3915 C3939 0.951 . S
H3916 C3941 0.951 . S
H3917 C3943 0.950 . S
H3918 C3944 0.950 . S
H3919 C3946 0.950 . S
H3920 C3949 0.950 . S
H3921 C3950 0.950 . S
H3922 C3952 0.950 . S
H3923 C3953 0.950 . S
C3924 H3906 0.951 . S
C3924 C3925 1.366 . S
C3924 C3926 1.388 . S
C3925 C3924 1.366 . S
C3925 C3929 1.385 . S
C3926 H3907 0.951 . S
C3926 C3924 1.388 . S
C3926 C3927 1.366 . S
C3927 C3926 1.366 . S
C3927 C3928 1.414 . S
C3927 C3930 1.499 . S
C3928 H3908 0.950 . S
C3928 C3927 1.414 . S
C3928 C3929 1.374 . S
C3929 H3909 0.950 . S
C3929 C3925 1.385 . S
C3929 C3928 1.374 . S
C3930 C3927 1.499 . S
C3930 C3931 1.373 . S
C3930 C3932 1.389 . S
C3931 H3910 0.950 . S
C3931 C3930 1.373 . S
C3931 C3947 1.377 . S
C3932 C3930 1.389 . S
C3932 C3933 1.524 . S
C3932 C3946 1.377 . S
C3933 C3932 1.524 . S
C3933 C3934 1.397 . S
C3933 C3938 1.363 . S
C3934 H3911 0.950 . S
C3934 C3933 1.397 . S
C3934 C3935 1.334 . S
C3935 H3912 0.950 . S
C3935 C3934 1.334 . S
C3935 C3936 1.287 . S
C3936 C3935 1.287 . S
C3936 C3937 1.524 . S
C3936 H3955 0.913 . S
C3937 H3913 0.950 . S
C3937 C3936 1.524 . S
C3937 C3938 1.415 . S
C3938 H3914 0.950 . S
C3938 C3933 1.363 . S
C3938 C3937 1.415 . S
C3939 H3915 0.951 . S
C3939 C3940 1.366 . S
C3939 C3941 1.388 . S
C3940 C3939 1.366 . S
C3940 C3944 1.385 . S
C3941 H3916 0.951 . S
C3941 C3939 1.388 . S
C3941 C3942 1.366 . S
C3942 C3941 1.366 . S
C3942 C3943 1.414 . S
C3942 C3945 1.499 . S
C3943 H3917 0.950 . S
C3943 C3942 1.414 . S
C3943 C3944 1.374 . S
C3944 H3918 0.950 . S
C3944 C3940 1.385 . S
C3944 C3943 1.374 . S
C3945 C3942 1.499 . S
C3945 C3946 1.373 . S
C3945 C3947 1.389 . S
C3946 H3919 0.950 . S
C3946 C3932 1.377 . S
C3946 C3945 1.373 . S
C3947 C3931 1.377 . S
C3947 C3945 1.389 . S
C3947 C3948 1.524 . S
C3948 C3947 1.524 . S
C3948 C3949 1.397 . S
C3948 C3953 1.363 . S
C3949 H3920 0.950 . S
C3949 C3948 1.397 . S
C3949 C3950 1.334 . S
C3950 H3921 0.950 . S
C3950 C3949 1.334 . S
C3950 C3951 1.287 . S
C3951 C3950 1.287 . S
C3951 C3952 1.524 . S
C3951 H3954 0.999 . S
C3952 H3922 0.950 . S
C3952 C3951 1.524 . S
C3952 C3953 1.415 . S
C3953 H3923 0.950 . S
C3953 C3948 1.363 . S
C3953 C3952 1.415 . S
H3954 C3951 0.999 . S
H3955 C3936 0.913 . S
H3956 C3974 0.951 . S
H3957 C3976 0.951 . S
H3958 C3978 0.950 . S
H3959 C3979 0.950 . S
H3960 C3981 0.950 . S
H3961 C3984 0.950 . S
H3962 C3985 0.950 . S
H3963 C3987 0.950 . S
H3964 C3988 0.950 . S
H3965 C3989 0.951 . S
H3966 C3991 0.951 . S
H3967 C3993 0.950 . S
H3968 C3994 0.950 . S
H3969 C3996 0.950 . S
H3970 C3999 0.950 . S
H3971 C4000 0.950 . S
H3972 C4002 0.950 . S
H3973 C4003 0.950 . S
C3974 H3956 0.951 . S
C3974 C3975 1.366 . S
C3974 C3976 1.388 . S
C3975 C3974 1.366 . S
C3975 C3979 1.385 . S
C3976 H3957 0.951 . S
C3976 C3974 1.388 . S
C3976 C3977 1.366 . S
C3977 C3976 1.366 . S
C3977 C3978 1.414 . S
C3977 C3980 1.499 . S
C3978 H3958 0.950 . S
C3978 C3977 1.414 . S
C3978 C3979 1.374 . S
C3979 H3959 0.950 . S
C3979 C3975 1.385 . S
C3979 C3978 1.374 . S
C3980 C3977 1.499 . S
C3980 C3981 1.373 . S
C3980 C3982 1.389 . S
C3981 H3960 0.950 . S
C3981 C3980 1.373 . S
C3981 C3997 1.377 . S
C3982 C3980 1.389 . S
C3982 C3983 1.524 . S
C3982 C3996 1.377 . S
C3983 C3982 1.524 . S
C3983 C3984 1.397 . S
C3983 C3988 1.363 . S
C3984 H3961 0.950 . S
C3984 C3983 1.397 . S
C3984 C3985 1.334 . S
C3985 H3962 0.950 . S
C3985 C3984 1.334 . S
C3985 C3986 1.287 . S
C3986 C3985 1.287 . S
C3986 C3987 1.524 . S
C3986 H4005 0.913 . S
C3987 H3963 0.950 . S
C3987 C3986 1.524 . S
C3987 C3988 1.415 . S
C3988 H3964 0.950 . S
C3988 C3983 1.363 . S
C3988 C3987 1.415 . S
C3989 H3965 0.951 . S
C3989 C3990 1.366 . S
C3989 C3991 1.388 . S
C3990 C3989 1.366 . S
C3990 C3994 1.385 . S
C3991 H3966 0.951 . S
C3991 C3989 1.388 . S
C3991 C3992 1.366 . S
C3992 C3991 1.366 . S
C3992 C3993 1.414 . S
C3992 C3995 1.499 . S
C3993 H3967 0.950 . S
C3993 C3992 1.414 . S
C3993 C3994 1.374 . S
C3994 H3968 0.950 . S
C3994 C3990 1.385 . S
C3994 C3993 1.374 . S
C3995 C3992 1.499 . S
C3995 C3996 1.373 . S
C3995 C3997 1.389 . S
C3996 H3969 0.950 . S
C3996 C3982 1.377 . S
C3996 C3995 1.373 . S
C3997 C3981 1.377 . S
C3997 C3995 1.389 . S
C3997 C3998 1.524 . S
C3998 C3997 1.524 . S
C3998 C3999 1.397 . S
C3998 C4003 1.363 . S
C3999 H3970 0.950 . S
C3999 C3998 1.397 . S
C3999 C4000 1.334 . S
C4000 H3971 0.950 . S
C4000 C3999 1.334 . S
C4000 C4001 1.287 . S
C4001 C4000 1.287 . S
C4001 C4002 1.524 . S
C4001 H4004 0.999 . S
C4002 H3972 0.950 . S
C4002 C4001 1.524 . S
C4002 C4003 1.415 . S
C4003 H3973 0.950 . S
C4003 C3998 1.363 . S
C4003 C4002 1.415 . S
H4004 C4001 0.999 . S
H4005 C3986 0.913 . S
H4006 C4024 0.951 . S
H4007 C4026 0.951 . S
H4008 C4028 0.950 . S
H4009 C4029 0.950 . S
H4010 C4031 0.950 . S
H4011 C4034 0.950 . S
H4012 C4035 0.950 . S
H4013 C4037 0.950 . S
H4014 C4038 0.950 . S
H4015 C4039 0.951 . S
H4016 C4041 0.951 . S
H4017 C4043 0.950 . S
H4018 C4044 0.950 . S
H4019 C4046 0.950 . S
H4020 C4049 0.950 . S
H4021 C4050 0.950 . S
H4022 C4052 0.950 . S
H4023 C4053 0.950 . S
C4024 H4006 0.951 . S
C4024 C4025 1.366 . S
C4024 C4026 1.388 . S
C4025 C4024 1.366 . S
C4025 C4029 1.385 . S
C4026 H4007 0.951 . S
C4026 C4024 1.388 . S
C4026 C4027 1.366 . S
C4027 C4026 1.366 . S
C4027 C4028 1.414 . S
C4027 C4030 1.499 . S
C4028 H4008 0.950 . S
C4028 C4027 1.414 . S
C4028 C4029 1.374 . S
C4029 H4009 0.950 . S
C4029 C4025 1.385 . S
C4029 C4028 1.374 . S
C4030 C4027 1.499 . S
C4030 C4031 1.373 . S
C4030 C4032 1.389 . S
C4031 H4010 0.950 . S
C4031 C4030 1.373 . S
C4031 C4047 1.377 . S
C4032 C4030 1.389 . S
C4032 C4033 1.524 . S
C4032 C4046 1.377 . S
C4033 C4032 1.524 . S
C4033 C4034 1.397 . S
C4033 C4038 1.363 . S
C4034 H4011 0.950 . S
C4034 C4033 1.397 . S
C4034 C4035 1.334 . S
C4035 H4012 0.950 . S
C4035 C4034 1.334 . S
C4035 C4036 1.287 . S
C4036 C4035 1.287 . S
C4036 C4037 1.524 . S
C4036 H4055 0.913 . S
C4037 H4013 0.950 . S
C4037 C4036 1.524 . S
C4037 C4038 1.415 . S
C4038 H4014 0.950 . S
C4038 C4033 1.363 . S
C4038 C4037 1.415 . S
C4039 H4015 0.951 . S
C4039 C4040 1.366 . S
C4039 C4041 1.388 . S
C4040 C4039 1.366 . S
C4040 C4044 1.385 . S
C4041 H4016 0.951 . S
C4041 C4039 1.388 . S
C4041 C4042 1.366 . S
C4042 C4041 1.366 . S
C4042 C4043 1.414 . S
C4042 C4045 1.499 . S
C4043 H4017 0.950 . S
C4043 C4042 1.414 . S
C4043 C4044 1.374 . S
C4044 H4018 0.950 . S
C4044 C4040 1.385 . S
C4044 C4043 1.374 . S
C4045 C4042 1.499 . S
C4045 C4046 1.373 . S
C4045 C4047 1.389 . S
C4046 H4019 0.950 . S
C4046 C4032 1.377 . S
C4046 C4045 1.373 . S
C4047 C4031 1.377 . S
C4047 C4045 1.389 . S
C4047 C4048 1.524 . S
C4048 C4047 1.524 . S
C4048 C4049 1.397 . S
C4048 C4053 1.363 . S
C4049 H4020 0.950 . S
C4049 C4048 1.397 . S
C4049 C4050 1.334 . S
C4050 H4021 0.950 . S
C4050 C4049 1.334 . S
C4050 C4051 1.287 . S
C4051 C4050 1.287 . S
C4051 C4052 1.524 . S
C4051 H4054 0.999 . S
C4052 H4022 0.950 . S
C4052 C4051 1.524 . S
C4052 C4053 1.415 . S
C4053 H4023 0.950 . S
C4053 C4048 1.363 . S
C4053 C4052 1.415 . S
H4054 C4051 0.999 . S
H4055 C4036 0.913 . S
H4056 C4074 0.951 . S
H4057 C4076 0.951 . S
H4058 C4078 0.950 . S
H4059 C4079 0.950 . S
H4060 C4081 0.950 . S
H4061 C4084 0.950 . S
H4062 C4085 0.950 . S
H4063 C4087 0.950 . S
H4064 C4088 0.950 . S
H4065 C4089 0.951 . S
H4066 C4091 0.951 . S
H4067 C4093 0.950 . S
H4068 C4094 0.950 . S
H4069 C4096 0.950 . S
H4070 C4099 0.950 . S
H4071 C4100 0.950 . S
H4072 C4102 0.950 . S
H4073 C4103 0.950 . S
C4074 H4056 0.951 . S
C4074 C4075 1.366 . S
C4074 C4076 1.388 . S
C4075 C4074 1.366 . S
C4075 C4079 1.385 . S
C4076 H4057 0.951 . S
C4076 C4074 1.388 . S
C4076 C4077 1.366 . S
C4077 C4076 1.366 . S
C4077 C4078 1.414 . S
C4077 C4080 1.499 . S
C4078 H4058 0.950 . S
C4078 C4077 1.414 . S
C4078 C4079 1.374 . S
C4079 H4059 0.950 . S
C4079 C4075 1.385 . S
C4079 C4078 1.374 . S
C4080 C4077 1.499 . S
C4080 C4081 1.373 . S
C4080 C4082 1.389 . S
C4081 H4060 0.950 . S
C4081 C4080 1.373 . S
C4081 C4097 1.377 . S
C4082 C4080 1.389 . S
C4082 C4083 1.524 . S
C4082 C4096 1.377 . S
C4083 C4082 1.524 . S
C4083 C4084 1.397 . S
C4083 C4088 1.363 . S
C4084 H4061 0.950 . S
C4084 C4083 1.397 . S
C4084 C4085 1.334 . S
C4085 H4062 0.950 . S
C4085 C4084 1.334 . S
C4085 C4086 1.287 . S
C4086 C4085 1.287 . S
C4086 C4087 1.524 . S
C4086 H4105 0.913 . S
C4087 H4063 0.950 . S
C4087 C4086 1.524 . S
C4087 C4088 1.415 . S
C4088 H4064 0.950 . S
C4088 C4083 1.363 . S
C4088 C4087 1.415 . S
C4089 H4065 0.951 . S
C4089 C4090 1.366 . S
C4089 C4091 1.388 . S
C4090 C4089 1.366 . S
C4090 C4094 1.385 . S
C4091 H4066 0.951 . S
C4091 C4089 1.388 . S
C4091 C4092 1.366 . S
C4092 C4091 1.366 . S
C4092 C4093 1.414 . S
C4092 C4095 1.499 . S
C4093 H4067 0.950 . S
C4093 C4092 1.414 . S
C4093 C4094 1.374 . S
C4094 H4068 0.950 . S
C4094 C4090 1.385 . S
C4094 C4093 1.374 . S
C4095 C4092 1.499 . S
C4095 C4096 1.373 . S
C4095 C4097 1.389 . S
C4096 H4069 0.950 . S
C4096 C4082 1.377 . S
C4096 C4095 1.373 . S
C4097 C4081 1.377 . S
C4097 C4095 1.389 . S
C4097 C4098 1.524 . S
C4098 C4097 1.524 . S
C4098 C4099 1.397 . S
C4098 C4103 1.363 . S
C4099 H4070 0.950 . S
C4099 C4098 1.397 . S
C4099 C4100 1.334 . S
C4100 H4071 0.950 . S
C4100 C4099 1.334 . S
C4100 C4101 1.287 . S
C4101 C4100 1.287 . S
C4101 C4102 1.524 . S
C4101 H4104 0.999 . S
C4102 H4072 0.950 . S
C4102 C4101 1.524 . S
C4102 C4103 1.415 . S
C4103 H4073 0.950 . S
C4103 C4098 1.363 . S
C4103 C4102 1.415 . S
H4104 C4101 0.999 . S
H4105 C4086 0.913 . S
H4106 C4124 0.951 . S
H4107 C4126 0.951 . S
H4108 C4128 0.950 . S
H4109 C4129 0.950 . S
H4110 C4131 0.950 . S
H4111 C4134 0.950 . S
H4112 C4135 0.950 . S
H4113 C4137 0.950 . S
H4114 C4138 0.950 . S
H4115 C4139 0.951 . S
H4116 C4141 0.951 . S
H4117 C4143 0.950 . S
H4118 C4144 0.950 . S
H4119 C4146 0.950 . S
H4120 C4149 0.950 . S
H4121 C4150 0.950 . S
H4122 C4152 0.950 . S
H4123 C4153 0.950 . S
C4124 H4106 0.951 . S
C4124 C4125 1.366 . S
C4124 C4126 1.388 . S
C4125 C4124 1.366 . S
C4125 C4129 1.385 . S
C4126 H4107 0.951 . S
C4126 C4124 1.388 . S
C4126 C4127 1.366 . S
C4127 C4126 1.366 . S
C4127 C4128 1.414 . S
C4127 C4130 1.499 . S
C4128 H4108 0.950 . S
C4128 C4127 1.414 . S
C4128 C4129 1.374 . S
C4129 H4109 0.950 . S
C4129 C4125 1.385 . S
C4129 C4128 1.374 . S
C4130 C4127 1.499 . S
C4130 C4131 1.373 . S
C4130 C4132 1.389 . S
C4131 H4110 0.950 . S
C4131 C4130 1.373 . S
C4131 C4147 1.377 . S
C4132 C4130 1.389 . S
C4132 C4133 1.524 . S
C4132 C4146 1.377 . S
C4133 C4132 1.524 . S
C4133 C4134 1.397 . S
C4133 C4138 1.363 . S
C4134 H4111 0.950 . S
C4134 C4133 1.397 . S
C4134 C4135 1.334 . S
C4135 H4112 0.950 . S
C4135 C4134 1.334 . S
C4135 C4136 1.287 . S
C4136 C4135 1.287 . S
C4136 C4137 1.524 . S
C4136 H4155 0.913 . S
C4137 H4113 0.950 . S
C4137 C4136 1.524 . S
C4137 C4138 1.415 . S
C4138 H4114 0.950 . S
C4138 C4133 1.363 . S
C4138 C4137 1.415 . S
C4139 H4115 0.951 . S
C4139 C4140 1.366 . S
C4139 C4141 1.388 . S
C4140 C4139 1.366 . S
C4140 C4144 1.385 . S
C4141 H4116 0.951 . S
C4141 C4139 1.388 . S
C4141 C4142 1.366 . S
C4142 C4141 1.366 . S
C4142 C4143 1.414 . S
C4142 C4145 1.499 . S
C4143 H4117 0.950 . S
C4143 C4142 1.414 . S
C4143 C4144 1.374 . S
C4144 H4118 0.950 . S
C4144 C4140 1.385 . S
C4144 C4143 1.374 . S
C4145 C4142 1.499 . S
C4145 C4146 1.373 . S
C4145 C4147 1.389 . S
C4146 H4119 0.950 . S
C4146 C4132 1.377 . S
C4146 C4145 1.373 . S
C4147 C4131 1.377 . S
C4147 C4145 1.389 . S
C4147 C4148 1.524 . S
C4148 C4147 1.524 . S
C4148 C4149 1.397 . S
C4148 C4153 1.363 . S
C4149 H4120 0.950 . S
C4149 C4148 1.397 . S
C4149 C4150 1.334 . S
C4150 H4121 0.950 . S
C4150 C4149 1.334 . S
C4150 C4151 1.287 . S
C4151 C4150 1.287 . S
C4151 C4152 1.524 . S
C4151 H4154 0.999 . S
C4152 H4122 0.950 . S
C4152 C4151 1.524 . S
C4152 C4153 1.415 . S
C4153 H4123 0.950 . S
C4153 C4148 1.363 . S
C4153 C4152 1.415 . S
H4154 C4151 0.999 . S
H4155 C4136 0.913 . S
H4156 C4174 0.951 . S
H4157 C4176 0.951 . S
H4158 C4178 0.950 . S
H4159 C4179 0.950 . S
H4160 C4181 0.950 . S
H4161 C4184 0.950 . S
H4162 C4185 0.950 . S
H4163 C4187 0.950 . S
H4164 C4188 0.950 1_554 S
H4165 C4189 0.951 . S
H4166 C4191 0.947 1_556 S
H4167 C4193 0.950 . S
H4168 C4194 0.962 . S
H4169 C4196 0.950 . S
H4170 C4199 0.950 . S
H4171 C4200 0.950 . S
H4172 C4202 0.950 . S
H4173 C4203 0.950 . S
C4174 H4156 0.951 . S
C4174 C4175 1.366 1_655 S
C4174 C4176 1.388 . S
C4175 C4174 1.366 1_455 S
C4175 C4179 1.385 . S
C4176 H4157 0.951 . S
C4176 C4174 1.388 . S
C4176 C4177 1.366 1_655 S
C4177 C4176 1.366 1_455 S
C4177 C4178 1.414 . S
C4177 C4180 1.499 . S
C4178 H4158 0.950 . S
C4178 C4177 1.414 . S
C4178 C4179 1.374 . S
C4179 H4159 0.950 . S
C4179 C4175 1.385 . S
C4179 C4178 1.374 . S
C4180 C4177 1.499 . S
C4180 C4181 1.373 . S
C4180 C4182 1.389 1_455 S
C4181 H4160 0.950 . S
C4181 C4180 1.373 . S
C4181 C4197 1.377 . S
C4182 C4180 1.389 1_655 S
C4182 C4183 1.524 . S
C4182 C4196 1.377 . S
C4183 C4182 1.524 . S
C4183 C4184 1.397 . S
C4183 C4188 1.363 . S
C4184 H4161 0.950 . S
C4184 C4183 1.397 . S
C4184 C4185 1.334 . S
C4185 H4162 0.950 . S
C4185 C4184 1.334 . S
C4185 C4186 1.287 . S
C4186 C4185 1.287 . S
C4186 C4187 1.524 . S
C4186 H4205 0.913 . S
C4187 H4163 0.950 . S
C4187 C4186 1.524 . S
C4187 C4188 1.415 . S
C4188 H4164 0.950 1_556 S
C4188 C4183 1.363 . S
C4188 C4187 1.415 . S
C4189 H4165 0.951 . S
C4189 C4190 1.366 . S
C4189 C4191 1.389 . S
C4190 C4189 1.366 . S
C4190 C4194 1.376 1_455 S
C4191 H4166 0.947 1_554 S
C4191 C4189 1.389 . S
C4191 C4192 1.368 . S
C4192 C4191 1.368 . S
C4192 C4193 1.414 1_455 S
C4192 C4195 1.494 1_554 S
C4193 H4167 0.950 . S
C4193 C4192 1.414 1_655 S
C4193 C4194 1.371 . S
C4194 H4168 0.962 . S
C4194 C4190 1.376 1_655 S
C4194 C4193 1.371 . S
C4195 C4192 1.494 1_556 S
C4195 C4196 1.376 1_455 S
C4195 C4197 1.393 . S
C4196 H4169 0.950 . S
C4196 C4182 1.377 . S
C4196 C4195 1.376 1_655 S
C4197 C4181 1.377 . S
C4197 C4195 1.393 . S
C4197 C4198 1.524 1_556 S
C4198 C4197 1.524 1_554 S
C4198 C4199 1.397 . S
C4198 C4203 1.363 1_554 S
C4199 H4170 0.950 . S
C4199 C4198 1.397 . S
C4199 C4200 1.334 . S
C4200 H4171 0.950 . S
C4200 C4199 1.334 . S
C4200 C4201 1.287 . S
C4201 C4200 1.287 . S
C4201 C4202 1.524 1_554 S
C4201 H4204 0.999 . S
C4202 H4172 0.950 . S
C4202 C4201 1.524 1_556 S
C4202 C4203 1.415 . S
C4203 H4173 0.950 . S
C4203 C4198 1.363 1_556 S
C4203 C4202 1.415 . S
H4204 C4201 0.999 . S
H4205 C4186 0.913 . S
H4206 C4224 0.951 . S
H4207 C4226 0.951 . S
H4208 C4228 0.950 . S
H4209 C4229 0.950 . S
H4210 C4231 0.950 . S
H4211 C4234 0.950 . S
H4212 C4235 0.950 . S
H4213 C4237 0.950 . S
H4214 C4238 0.950 . S
H4215 C4239 0.951 . S
H4216 C4241 0.951 . S
H4217 C4243 0.950 . S
H4218 C4244 0.950 . S
H4219 C4246 0.950 . S
H4220 C4249 0.950 . S
H4221 C4250 0.950 . S
H4222 C4252 0.950 . S
H4223 C4253 0.950 . S
C4224 H4206 0.951 . S
C4224 C4225 1.399 . S
C4224 C4226 1.388 . S
C4225 C4224 1.399 . S
C4225 C4229 1.381 1_655 S
C4226 H4207 0.951 . S
C4226 C4224 1.388 . S
C4226 C4227 1.366 . S
C4227 C4226 1.366 . S
C4227 C4228 1.414 . S
C4227 C4230 1.499 . S
C4228 H4208 0.950 . S
C4228 C4227 1.414 . S
C4228 C4229 1.374 1_655 S
C4229 H4209 0.950 . S
C4229 C4225 1.381 1_455 S
C4229 C4228 1.374 1_455 S
C4230 C4227 1.499 . S
C4230 C4231 1.373 . S
C4230 C4232 1.389 . S
C4231 H4210 0.950 . S
C4231 C4230 1.373 . S
C4231 C4247 1.377 . S
C4232 C4230 1.389 . S
C4232 C4233 1.524 . S
C4232 C4246 1.377 . S
C4233 C4232 1.524 . S
C4233 C4234 1.397 . S
C4233 C4238 1.363 . S
C4234 H4211 0.950 . S
C4234 C4233 1.397 . S
C4234 C4235 1.334 . S
C4235 H4212 0.950 . S
C4235 C4234 1.334 . S
C4235 C4236 1.287 . S
C4236 C4235 1.287 . S
C4236 C4237 1.524 . S
C4236 H4255 0.913 . S
C4237 H4213 0.950 . S
C4237 C4236 1.524 . S
C4237 C4238 1.415 . S
C4238 H4214 0.950 . S
C4238 C4233 1.363 . S
C4238 C4237 1.415 . S
C4239 H4215 0.951 . S
C4239 C4240 1.366 . S
C4239 C4241 1.388 . S
C4240 C4239 1.366 . S
C4240 C4244 1.385 . S
C4241 H4216 0.951 . S
C4241 C4239 1.388 . S
C4241 C4242 1.366 . S
C4242 C4241 1.366 . S
C4242 C4243 1.414 . S
C4242 C4245 1.499 . S
C4243 H4217 0.950 . S
C4243 C4242 1.414 . S
C4243 C4244 1.374 . S
C4244 H4218 0.950 . S
C4244 C4240 1.385 . S
C4244 C4243 1.374 . S
C4245 C4242 1.499 . S
C4245 C4246 1.373 . S
C4245 C4247 1.389 . S
C4246 H4219 0.950 . S
C4246 C4232 1.377 . S
C4246 C4245 1.373 . S
C4247 C4231 1.377 . S
C4247 C4245 1.389 . S
C4247 C4248 1.524 . S
C4248 C4247 1.524 . S
C4248 C4249 1.397 . S
C4248 C4253 1.363 . S
C4249 H4220 0.950 . S
C4249 C4248 1.397 . S
C4249 C4250 1.334 . S
C4250 H4221 0.950 . S
C4250 C4249 1.334 . S
C4250 C4251 1.287 . S
C4251 C4250 1.287 . S
C4251 C4252 1.524 . S
C4251 H4254 0.999 . S
C4252 H4222 0.950 . S
C4252 C4251 1.524 . S
C4252 C4253 1.415 . S
C4253 H4223 0.950 . S
C4253 C4248 1.363 . S
C4253 C4252 1.415 . S
H4254 C4251 0.999 . S
H4255 C4236 0.913 . S
H4256 C4274 0.951 . S
H4257 C4276 0.951 . S
H4258 C4278 0.950 . S
H4259 C4279 0.950 . S
H4260 C4281 0.950 . S
H4261 C4284 0.950 . S
H4262 C4285 0.950 . S
H4263 C4287 0.950 . S
H4264 C4288 0.950 . S
H4265 C4289 0.951 . S
H4266 C4291 0.951 . S
H4267 C4293 0.950 . S
H4268 C4294 0.950 . S
H4269 C4296 0.950 . S
H4270 C4299 0.950 . S
H4271 C4300 0.950 . S
H4272 C4302 0.950 . S
H4273 C4303 0.950 . S
C4274 H4256 0.951 . S
C4274 C4275 1.366 . S
C4274 C4276 1.388 . S
C4275 C4274 1.366 . S
C4275 C4279 1.385 . S
C4276 H4257 0.951 . S
C4276 C4274 1.388 . S
C4276 C4277 1.366 . S
C4277 C4276 1.366 . S
C4277 C4278 1.414 . S
C4277 C4280 1.499 . S
C4278 H4258 0.950 . S
C4278 C4277 1.414 . S
C4278 C4279 1.374 . S
C4279 H4259 0.950 . S
C4279 C4275 1.385 . S
C4279 C4278 1.374 . S
C4280 C4277 1.499 . S
C4280 C4281 1.373 . S
C4280 C4282 1.389 . S
C4281 H4260 0.950 . S
C4281 C4280 1.373 . S
C4281 C4297 1.377 . S
C4282 C4280 1.389 . S
C4282 C4283 1.524 . S
C4282 C4296 1.377 . S
C4283 C4282 1.524 . S
C4283 C4284 1.397 . S
C4283 C4288 1.363 . S
C4284 H4261 0.950 . S
C4284 C4283 1.397 . S
C4284 C4285 1.334 . S
C4285 H4262 0.950 . S
C4285 C4284 1.334 . S
C4285 C4286 1.287 . S
C4286 C4285 1.287 . S
C4286 C4287 1.524 . S
C4286 H4305 0.913 . S
C4287 H4263 0.950 . S
C4287 C4286 1.524 . S
C4287 C4288 1.415 . S
C4288 H4264 0.950 . S
C4288 C4283 1.363 . S
C4288 C4287 1.415 . S
C4289 H4265 0.951 . S
C4289 C4290 1.366 . S
C4289 C4291 1.388 . S
C4290 C4289 1.366 . S
C4290 C4294 1.385 . S
C4291 H4266 0.951 . S
C4291 C4289 1.388 . S
C4291 C4292 1.366 . S
C4292 C4291 1.366 . S
C4292 C4293 1.414 . S
C4292 C4295 1.499 . S
C4293 H4267 0.950 . S
C4293 C4292 1.414 . S
C4293 C4294 1.374 . S
C4294 H4268 0.950 . S
C4294 C4290 1.385 . S
C4294 C4293 1.374 . S
C4295 C4292 1.499 . S
C4295 C4296 1.373 . S
C4295 C4297 1.389 . S
C4296 H4269 0.950 . S
C4296 C4282 1.377 . S
C4296 C4295 1.373 . S
C4297 C4281 1.377 . S
C4297 C4295 1.389 . S
C4297 C4298 1.524 . S
C4298 C4297 1.524 . S
C4298 C4299 1.397 . S
C4298 C4303 1.363 . S
C4299 H4270 0.950 . S
C4299 C4298 1.397 . S
C4299 C4300 1.334 . S
C4300 H4271 0.950 . S
C4300 C4299 1.334 . S
C4300 C4301 1.287 . S
C4301 C4300 1.287 . S
C4301 C4302 1.524 . S
C4301 H4304 0.999 . S
C4302 H4272 0.950 . S
C4302 C4301 1.524 . S
C4302 C4303 1.415 . S
C4303 H4273 0.950 . S
C4303 C4298 1.363 . S
C4303 C4302 1.415 . S
H4304 C4301 0.999 . S
H4305 C4286 0.913 . S
H4306 C4324 0.951 . S
H4307 C4326 0.951 . S
H4308 C4328 0.950 . S
H4309 C4329 0.950 . S
H4310 C4331 0.950 . S
H4311 C4334 0.950 . S
H4312 C4335 0.950 . S
H4313 C4337 0.950 . S
H4314 C4338 0.950 . S
H4315 C4339 0.951 . S
H4316 C4341 0.951 . S
H4317 C4343 0.950 . S
H4318 C4344 0.950 . S
H4319 C4346 0.950 . S
H4320 C4349 0.950 . S
H4321 C4350 0.950 . S
H4322 C4352 0.950 . S
H4323 C4353 0.950 . S
C4324 H4306 0.951 . S
C4324 C4325 1.366 . S
C4324 C4326 1.388 . S
C4325 C4324 1.366 . S
C4325 C4329 1.385 . S
C4326 H4307 0.951 . S
C4326 C4324 1.388 . S
C4326 C4327 1.366 . S
C4327 C4326 1.366 . S
C4327 C4328 1.414 . S
C4327 C4330 1.499 . S
C4328 H4308 0.950 . S
C4328 C4327 1.414 . S
C4328 C4329 1.374 . S
C4329 H4309 0.950 . S
C4329 C4325 1.385 . S
C4329 C4328 1.374 . S
C4330 C4327 1.499 . S
C4330 C4331 1.373 . S
C4330 C4332 1.389 . S
C4331 H4310 0.950 . S
C4331 C4330 1.373 . S
C4331 C4347 1.377 . S
C4332 C4330 1.389 . S
C4332 C4333 1.524 . S
C4332 C4346 1.377 . S
C4333 C4332 1.524 . S
C4333 C4334 1.397 . S
C4333 C4338 1.363 . S
C4334 H4311 0.950 . S
C4334 C4333 1.397 . S
C4334 C4335 1.334 . S
C4335 H4312 0.950 . S
C4335 C4334 1.334 . S
C4335 C4336 1.287 . S
C4336 C4335 1.287 . S
C4336 C4337 1.524 . S
C4336 H4355 0.913 . S
C4337 H4313 0.950 . S
C4337 C4336 1.524 . S
C4337 C4338 1.415 . S
C4338 H4314 0.950 . S
C4338 C4333 1.363 . S
C4338 C4337 1.415 . S
C4339 H4315 0.951 . S
C4339 C4340 1.366 . S
C4339 C4341 1.388 . S
C4340 C4339 1.366 . S
C4340 C4344 1.385 . S
C4341 H4316 0.951 . S
C4341 C4339 1.388 . S
C4341 C4342 1.366 . S
C4342 C4341 1.366 . S
C4342 C4343 1.414 . S
C4342 C4345 1.499 . S
C4343 H4317 0.950 . S
C4343 C4342 1.414 . S
C4343 C4344 1.374 . S
C4344 H4318 0.950 . S
C4344 C4340 1.385 . S
C4344 C4343 1.374 . S
C4345 C4342 1.499 . S
C4345 C4346 1.373 . S
C4345 C4347 1.389 . S
C4346 H4319 0.950 . S
C4346 C4332 1.377 . S
C4346 C4345 1.373 . S
C4347 C4331 1.377 . S
C4347 C4345 1.389 . S
C4347 C4348 1.524 . S
C4348 C4347 1.524 . S
C4348 C4349 1.397 . S
C4348 C4353 1.363 . S
C4349 H4320 0.950 . S
C4349 C4348 1.397 . S
C4349 C4350 1.334 . S
C4350 H4321 0.950 . S
C4350 C4349 1.334 . S
C4350 C4351 1.287 . S
C4351 C4350 1.287 . S
C4351 C4352 1.524 . S
C4351 H4354 0.999 . S
C4352 H4322 0.950 . S
C4352 C4351 1.524 . S
C4352 C4353 1.415 . S
C4353 H4323 0.950 . S
C4353 C4348 1.363 . S
C4353 C4352 1.415 . S
H4354 C4351 0.999 . S
H4355 C4336 0.913 . S
H4356 C4374 0.951 . S
H4357 C4376 0.951 . S
H4358 C4378 0.950 . S
H4359 C4379 0.950 . S
H4360 C4381 0.950 . S
H4361 C4384 0.950 . S
H4362 C4385 0.950 . S
H4363 C4387 0.950 . S
H4364 C4388 0.950 . S
H4365 C4389 0.951 . S
H4366 C4391 0.951 . S
H4367 C4393 0.950 . S
H4368 C4394 0.950 . S
H4369 C4396 0.950 . S
H4370 C4399 0.950 . S
H4371 C4400 0.950 . S
H4372 C4402 0.950 . S
H4373 C4403 0.950 . S
C4374 H4356 0.951 . S
C4374 C4375 1.366 1_655 S
C4374 C4376 1.388 . S
C4375 C4374 1.366 1_455 S
C4375 C4379 1.385 . S
C4376 H4357 0.951 . S
C4376 C4374 1.388 . S
C4376 C4377 1.366 1_655 S
C4377 C4376 1.366 1_455 S
C4377 C4378 1.414 . S
C4377 C4380 1.499 . S
C4378 H4358 0.950 . S
C4378 C4377 1.414 . S
C4378 C4379 1.374 . S
C4379 H4359 0.950 . S
C4379 C4375 1.385 . S
C4379 C4378 1.374 . S
C4380 C4377 1.499 . S
C4380 C4381 1.373 . S
C4380 C4382 1.389 1_455 S
C4381 H4360 0.950 . S
C4381 C4380 1.373 . S
C4381 C4397 1.377 . S
C4382 C4380 1.389 1_655 S
C4382 C4383 1.524 . S
C4382 C4396 1.377 . S
C4383 C4382 1.524 . S
C4383 C4384 1.397 . S
C4383 C4388 1.363 . S
C4384 H4361 0.950 . S
C4384 C4383 1.397 . S
C4384 C4385 1.334 . S
C4385 H4362 0.950 . S
C4385 C4384 1.334 . S
C4385 C4386 1.287 . S
C4386 C4385 1.287 . S
C4386 C4387 1.524 . S
C4386 H4405 0.913 . S
C4387 H4363 0.950 . S
C4387 C4386 1.524 . S
C4387 C4388 1.415 . S
C4388 H4364 0.950 . S
C4388 C4383 1.363 . S
C4388 C4387 1.415 . S
C4389 H4365 0.951 . S
C4389 C4390 1.366 . S
C4389 C4391 1.388 . S
C4390 C4389 1.366 . S
C4390 C4394 1.385 1_455 S
C4391 H4366 0.951 . S
C4391 C4389 1.388 . S
C4391 C4392 1.366 . S
C4392 C4391 1.366 . S
C4392 C4393 1.414 1_455 S
C4392 C4395 1.499 . S
C4393 H4367 0.950 . S
C4393 C4392 1.414 1_655 S
C4393 C4394 1.374 . S
C4394 H4368 0.950 . S
C4394 C4390 1.385 1_655 S
C4394 C4393 1.374 . S
C4395 C4392 1.499 . S
C4395 C4396 1.373 1_455 S
C4395 C4397 1.389 . S
C4396 H4369 0.950 . S
C4396 C4382 1.377 . S
C4396 C4395 1.373 1_655 S
C4397 C4381 1.377 . S
C4397 C4395 1.389 . S
C4397 C4398 1.524 . S
C4398 C4397 1.524 . S
C4398 C4399 1.397 . S
C4398 C4403 1.363 . S
C4399 H4370 0.950 . S
C4399 C4398 1.397 . S
C4399 C4400 1.334 . S
C4400 H4371 0.950 . S
C4400 C4399 1.334 . S
C4400 C4401 1.287 . S
C4401 C4400 1.287 . S
C4401 C4402 1.524 . S
C4401 H4404 0.999 . S
C4402 H4372 0.950 . S
C4402 C4401 1.524 . S
C4402 C4403 1.415 . S
C4403 H4373 0.950 . S
C4403 C4398 1.363 . S
C4403 C4402 1.415 . S
H4404 C4401 0.999 . S
H4405 C4386 0.913 . S
H4406 C4424 0.951 . S
H4407 C4426 0.951 . S
H4408 C4428 0.950 . S
H4409 C4429 0.950 . S
H4410 C4431 0.950 . S
H4411 C4434 0.950 . S
H4412 C4435 0.950 . S
H4413 C4437 0.950 . S
H4414 C4438 0.950 . S
H4415 C4439 0.951 . S
H4416 C4441 0.951 . S
H4417 C4443 0.950 . S
H4418 C4444 0.950 . S
H4419 C4446 0.950 . S
H4420 C4449 0.950 . S
H4421 C4450 0.950 . S
H4422 C4452 0.950 . S
H4423 C4453 0.950 . S
C4424 H4406 0.951 . S
C4424 C4425 1.366 . S
C4424 C4426 1.388 . S
C4425 C4424 1.366 . S
C4425 C4429 1.385 . S
C4426 H4407 0.951 . S
C4426 C4424 1.388 . S
C4426 C4427 1.366 . S
C4427 C4426 1.366 . S
C4427 C4428 1.414 . S
C4427 C4430 1.499 . S
C4428 H4408 0.950 . S
C4428 C4427 1.414 . S
C4428 C4429 1.374 . S
C4429 H4409 0.950 . S
C4429 C4425 1.385 . S
C4429 C4428 1.374 . S
C4430 C4427 1.499 . S
C4430 C4431 1.373 . S
C4430 C4432 1.389 . S
C4431 H4410 0.950 . S
C4431 C4430 1.373 . S
C4431 C4447 1.377 . S
C4432 C4430 1.389 . S
C4432 C4433 1.524 . S
C4432 C4446 1.377 . S
C4433 C4432 1.524 . S
C4433 C4434 1.397 . S
C4433 C4438 1.363 . S
C4434 H4411 0.950 . S
C4434 C4433 1.397 . S
C4434 C4435 1.334 . S
C4435 H4412 0.950 . S
C4435 C4434 1.334 . S
C4435 C4436 1.287 . S
C4436 C4435 1.287 . S
C4436 C4437 1.524 . S
C4436 H4455 0.913 . S
C4437 H4413 0.950 . S
C4437 C4436 1.524 . S
C4437 C4438 1.415 . S
C4438 H4414 0.950 . S
C4438 C4433 1.363 . S
C4438 C4437 1.415 . S
C4439 H4415 0.951 . S
C4439 C4440 1.366 . S
C4439 C4441 1.388 . S
C4440 C4439 1.366 . S
C4440 C4444 1.385 . S
C4441 H4416 0.951 . S
C4441 C4439 1.388 . S
C4441 C4442 1.366 . S
C4442 C4441 1.366 . S
C4442 C4443 1.414 . S
C4442 C4445 1.499 . S
C4443 H4417 0.950 . S
C4443 C4442 1.414 . S
C4443 C4444 1.374 . S
C4444 H4418 0.950 . S
C4444 C4440 1.385 . S
C4444 C4443 1.374 . S
C4445 C4442 1.499 . S
C4445 C4446 1.373 . S
C4445 C4447 1.389 . S
C4446 H4419 0.950 . S
C4446 C4432 1.377 . S
C4446 C4445 1.373 . S
C4447 C4431 1.377 . S
C4447 C4445 1.389 . S
C4447 C4448 1.524 . S
C4448 C4447 1.524 . S
C4448 C4449 1.397 . S
C4448 C4453 1.363 . S
C4449 H4420 0.950 . S
C4449 C4448 1.397 . S
C4449 C4450 1.334 . S
C4450 H4421 0.950 . S
C4450 C4449 1.334 . S
C4450 C4451 1.287 . S
C4451 C4450 1.287 . S
C4451 C4452 1.524 . S
C4451 H4454 0.999 . S
C4452 H4422 0.950 . S
C4452 C4451 1.524 . S
C4452 C4453 1.415 . S
C4453 H4423 0.950 . S
C4453 C4448 1.363 . S
C4453 C4452 1.415 . S
H4454 C4451 0.999 . S
H4455 C4436 0.913 . S
H4456 C4474 0.951 . S
H4457 C4476 0.951 . S
H4458 C4478 0.950 . S
H4459 C4479 0.950 . S
H4460 C4481 0.950 . S
H4461 C4484 0.950 . S
H4462 C4485 0.950 . S
H4463 C4487 0.950 . S
H4464 C4488 0.950 . S
H4465 C4489 0.951 . S
H4466 C4491 0.951 . S
H4467 C4493 0.950 . S
H4468 C4494 0.950 . S
H4469 C4496 0.950 . S
H4470 C4499 0.950 . S
H4471 C4500 0.950 . S
H4472 C4502 0.950 . S
H4473 C4503 0.950 . S
C4474 H4456 0.951 . S
C4474 C4475 1.366 . S
C4474 C4476 1.388 . S
C4475 C4474 1.366 . S
C4475 C4479 1.385 . S
C4476 H4457 0.951 . S
C4476 C4474 1.388 . S
C4476 C4477 1.366 . S
C4477 C4476 1.366 . S
C4477 C4478 1.414 . S
C4477 C4480 1.499 . S
C4478 H4458 0.950 . S
C4478 C4477 1.414 . S
C4478 C4479 1.374 . S
C4479 H4459 0.950 . S
C4479 C4475 1.385 . S
C4479 C4478 1.374 . S
C4480 C4477 1.499 . S
C4480 C4481 1.373 . S
C4480 C4482 1.389 . S
C4481 H4460 0.950 . S
C4481 C4480 1.373 . S
C4481 C4497 1.377 . S
C4482 C4480 1.389 . S
C4482 C4483 1.524 . S
C4482 C4496 1.377 . S
C4483 C4482 1.524 . S
C4483 C4484 1.397 . S
C4483 C4488 1.363 . S
C4484 H4461 0.950 . S
C4484 C4483 1.397 . S
C4484 C4485 1.334 . S
C4485 H4462 0.950 . S
C4485 C4484 1.334 . S
C4485 C4486 1.287 . S
C4486 C4485 1.287 . S
C4486 C4487 1.524 . S
C4486 H4505 0.913 . S
C4487 H4463 0.950 . S
C4487 C4486 1.524 . S
C4487 C4488 1.415 . S
C4488 H4464 0.950 . S
C4488 C4483 1.363 . S
C4488 C4487 1.415 . S
C4489 H4465 0.951 . S
C4489 C4490 1.366 . S
C4489 C4491 1.388 . S
C4490 C4489 1.366 . S
C4490 C4494 1.385 . S
C4491 H4466 0.951 . S
C4491 C4489 1.388 . S
C4491 C4492 1.366 . S
C4492 C4491 1.366 . S
C4492 C4493 1.414 . S
C4492 C4495 1.499 . S
C4493 H4467 0.950 . S
C4493 C4492 1.414 . S
C4493 C4494 1.374 . S
C4494 H4468 0.950 . S
C4494 C4490 1.385 . S
C4494 C4493 1.374 . S
C4495 C4492 1.499 . S
C4495 C4496 1.373 . S
C4495 C4497 1.389 . S
C4496 H4469 0.950 . S
C4496 C4482 1.377 . S
C4496 C4495 1.373 . S
C4497 C4481 1.377 . S
C4497 C4495 1.389 . S
C4497 C4498 1.524 . S
C4498 C4497 1.524 . S
C4498 C4499 1.397 . S
C4498 C4503 1.363 . S
C4499 H4470 0.950 . S
C4499 C4498 1.397 . S
C4499 C4500 1.334 . S
C4500 H4471 0.950 . S
C4500 C4499 1.334 . S
C4500 C4501 1.287 . S
C4501 C4500 1.287 . S
C4501 C4502 1.524 . S
C4501 H4504 0.999 . S
C4502 H4472 0.950 . S
C4502 C4501 1.524 . S
C4502 C4503 1.415 . S
C4503 H4473 0.950 . S
C4503 C4498 1.363 . S
C4503 C4502 1.415 . S
H4504 C4501 0.999 . S
H4505 C4486 0.913 . S
H4506 C4524 0.951 . S
H4507 C4526 0.951 . S
H4508 C4528 0.950 . S
H4509 C4529 0.950 1_554 S
H4510 C4531 0.950 . S
H4511 C4534 0.950 . S
H4512 C4535 0.950 . S
H4513 C4537 0.950 . S
H4514 C4538 0.950 . S
H4515 C4539 0.951 . S
H4516 C4541 0.951 . S
H4517 C4543 0.950 . S
H4518 C4544 0.950 . S
H4519 C4546 0.950 . S
H4520 C4549 0.950 . S
H4521 C4550 0.950 . S
H4522 C4552 0.950 . S
H4523 C4553 0.950 . S
C4524 H4506 0.951 . S
C4524 C4525 1.366 1_556 S
C4524 C4526 1.388 . S
C4525 C4524 1.366 1_554 S
C4525 C4529 1.385 1_554 S
C4526 H4507 0.951 . S
C4526 C4524 1.388 . S
C4526 C4527 1.366 . S
C4527 C4526 1.366 . S
C4527 C4528 1.414 . S
C4527 C4530 1.499 . S
C4528 H4508 0.950 . S
C4528 C4527 1.414 . S
C4528 C4529 1.374 . S
C4529 H4509 0.950 1_556 S
C4529 C4525 1.385 1_556 S
C4529 C4528 1.374 . S
C4530 C4527 1.499 . S
C4530 C4531 1.373 . S
C4530 C4532 1.389 . S
C4531 H4510 0.950 . S
C4531 C4530 1.373 . S
C4531 C4547 1.377 . S
C4532 C4530 1.389 . S
C4532 C4533 1.524 . S
C4532 C4546 1.377 . S
C4533 C4532 1.524 . S
C4533 C4534 1.397 . S
C4533 C4538 1.363 . S
C4534 H4511 0.950 . S
C4534 C4533 1.397 . S
C4534 C4535 1.334 . S
C4535 H4512 0.950 . S
C4535 C4534 1.334 . S
C4535 C4536 1.287 . S
C4536 C4535 1.287 . S
C4536 C4537 1.524 . S
C4536 H4555 0.913 . S
C4537 H4513 0.950 . S
C4537 C4536 1.524 . S
C4537 C4538 1.415 . S
C4538 H4514 0.950 . S
C4538 C4533 1.363 . S
C4538 C4537 1.415 . S
C4539 H4515 0.951 . S
C4539 C4540 1.366 . S
C4539 C4541 1.388 . S
C4540 C4539 1.366 . S
C4540 C4544 1.385 . S
C4541 H4516 0.951 . S
C4541 C4539 1.388 . S
C4541 C4542 1.366 . S
C4542 C4541 1.366 . S
C4542 C4543 1.414 . S
C4542 C4545 1.499 . S
C4543 H4517 0.950 . S
C4543 C4542 1.414 . S
C4543 C4544 1.374 . S
C4544 H4518 0.950 . S
C4544 C4540 1.385 . S
C4544 C4543 1.374 . S
C4545 C4542 1.499 . S
C4545 C4546 1.373 . S
C4545 C4547 1.389 . S
C4546 H4519 0.950 . S
C4546 C4532 1.377 . S
C4546 C4545 1.373 . S
C4547 C4531 1.377 . S
C4547 C4545 1.389 . S
C4547 C4548 1.524 . S
C4548 C4547 1.524 . S
C4548 C4549 1.397 . S
C4548 C4553 1.363 . S
C4549 H4520 0.950 . S
C4549 C4548 1.397 . S
C4549 C4550 1.334 . S
C4550 H4521 0.950 . S
C4550 C4549 1.334 . S
C4550 C4551 1.287 . S
C4551 C4550 1.287 . S
C4551 C4552 1.524 . S
C4551 H4554 0.999 . S
C4552 H4522 0.950 . S
C4552 C4551 1.524 . S
C4552 C4553 1.415 . S
C4553 H4523 0.950 . S
C4553 C4548 1.363 . S
C4553 C4552 1.415 . S
H4554 C4551 0.999 . S
H4555 C4536 0.913 . S
H4556 C4574 0.951 . S
H4557 C4576 0.951 . S
H4558 C4578 0.950 . S
H4559 C4579 0.950 . S
H4560 C4581 0.950 . S
H4561 C4584 0.950 . S
H4562 C4585 0.950 . S
H4563 C4587 0.950 . S
H4564 C4588 0.950 . S
H4565 C4589 0.951 . S
H4566 C4591 0.951 . S
H4567 C4593 0.950 . S
H4568 C4594 0.950 . S
H4569 C4596 0.950 . S
H4570 C4599 0.950 . S
H4571 C4600 0.950 . S
H4572 C4602 0.950 . S
H4573 C4603 0.950 . S
C4574 H4556 0.951 . S
C4574 C4575 1.366 . S
C4574 C4576 1.388 . S
C4575 C4574 1.366 . S
C4575 C4579 1.385 . S
C4576 H4557 0.951 . S
C4576 C4574 1.388 . S
C4576 C4577 1.366 . S
C4577 C4576 1.366 . S
C4577 C4578 1.414 . S
C4577 C4580 1.499 . S
C4578 H4558 0.950 . S
C4578 C4577 1.414 . S
C4578 C4579 1.374 . S
C4579 H4559 0.950 . S
C4579 C4575 1.385 . S
C4579 C4578 1.374 . S
C4580 C4577 1.499 . S
C4580 C4581 1.373 . S
C4580 C4582 1.389 . S
C4581 H4560 0.950 . S
C4581 C4580 1.373 . S
C4581 C4597 1.377 . S
C4582 C4580 1.389 . S
C4582 C4583 1.524 . S
C4582 C4596 1.377 . S
C4583 C4582 1.524 . S
C4583 C4584 1.397 . S
C4583 C4588 1.363 . S
C4584 H4561 0.950 . S
C4584 C4583 1.397 . S
C4584 C4585 1.334 . S
C4585 H4562 0.950 . S
C4585 C4584 1.334 . S
C4585 C4586 1.287 . S
C4586 C4585 1.287 . S
C4586 C4587 1.524 . S
C4586 H4605 0.913 . S
C4587 H4563 0.950 . S
C4587 C4586 1.524 . S
C4587 C4588 1.415 . S
C4588 H4564 0.950 . S
C4588 C4583 1.363 . S
C4588 C4587 1.415 . S
C4589 H4565 0.951 . S
C4589 C4590 1.366 . S
C4589 C4591 1.388 . S
C4590 C4589 1.366 . S
C4590 C4594 1.385 . S
C4591 H4566 0.951 . S
C4591 C4589 1.388 . S
C4591 C4592 1.366 . S
C4592 C4591 1.366 . S
C4592 C4593 1.414 . S
C4592 C4595 1.499 . S
C4593 H4567 0.950 . S
C4593 C4592 1.414 . S
C4593 C4594 1.374 . S
C4594 H4568 0.950 . S
C4594 C4590 1.385 . S
C4594 C4593 1.374 . S
C4595 C4592 1.499 . S
C4595 C4596 1.373 . S
C4595 C4597 1.389 . S
C4596 H4569 0.950 . S
C4596 C4582 1.377 . S
C4596 C4595 1.373 . S
C4597 C4581 1.377 . S
C4597 C4595 1.389 . S
C4597 C4598 1.524 . S
C4598 C4597 1.524 . S
C4598 C4599 1.397 . S
C4598 C4603 1.363 . S
C4599 H4570 0.950 . S
C4599 C4598 1.397 . S
C4599 C4600 1.334 . S
C4600 H4571 0.950 . S
C4600 C4599 1.334 . S
C4600 C4601 1.287 . S
C4601 C4600 1.287 . S
C4601 C4602 1.524 . S
C4601 H4604 0.999 . S
C4602 H4572 0.950 . S
C4602 C4601 1.524 . S
C4602 C4603 1.415 . S
C4603 H4573 0.950 . S
C4603 C4598 1.363 . S
C4603 C4602 1.415 . S
H4604 C4601 0.999 . S
H4605 C4586 0.913 . S
H4606 C4624 0.951 . S
H4607 C4626 0.951 . S
H4608 C4628 0.950 . S
H4609 C4629 0.950 . S
H4610 C4631 0.950 . S
H4611 C4634 0.950 . S
H4612 C4635 0.950 . S
H4613 C4637 0.950 . S
H4614 C4638 0.950 . S
H4615 C4639 0.951 . S
H4616 C4641 0.951 . S
H4617 C4643 0.950 . S
H4618 C4644 0.950 . S
H4619 C4646 0.950 . S
H4620 C4649 0.950 . S
H4621 C4650 0.950 . S
H4622 C4652 0.950 . S
H4623 C4653 0.950 . S
C4624 H4606 0.951 . S
C4624 C4625 1.366 . S
C4624 C4626 1.388 . S
C4625 C4624 1.366 . S
C4625 C4629 1.385 . S
C4626 H4607 0.951 . S
C4626 C4624 1.388 . S
C4626 C4627 1.366 . S
C4627 C4626 1.366 . S
C4627 C4628 1.414 . S
C4627 C4630 1.499 . S
C4628 H4608 0.950 . S
C4628 C4627 1.414 . S
C4628 C4629 1.374 . S
C4629 H4609 0.950 . S
C4629 C4625 1.385 . S
C4629 C4628 1.374 . S
C4630 C4627 1.499 . S
C4630 C4631 1.373 . S
C4630 C4632 1.389 . S
C4631 H4610 0.950 . S
C4631 C4630 1.373 . S
C4631 C4647 1.377 . S
C4632 C4630 1.389 . S
C4632 C4633 1.524 . S
C4632 C4646 1.377 . S
C4633 C4632 1.524 . S
C4633 C4634 1.397 . S
C4633 C4638 1.363 . S
C4634 H4611 0.950 . S
C4634 C4633 1.397 . S
C4634 C4635 1.334 . S
C4635 H4612 0.950 . S
C4635 C4634 1.334 . S
C4635 C4636 1.287 . S
C4636 C4635 1.287 . S
C4636 C4637 1.524 . S
C4636 H4655 0.913 . S
C4637 H4613 0.950 . S
C4637 C4636 1.524 . S
C4637 C4638 1.415 . S
C4638 H4614 0.950 . S
C4638 C4633 1.363 . S
C4638 C4637 1.415 . S
C4639 H4615 0.951 . S
C4639 C4640 1.366 . S
C4639 C4641 1.388 . S
C4640 C4639 1.366 . S
C4640 C4644 1.385 . S
C4641 H4616 0.951 . S
C4641 C4639 1.388 . S
C4641 C4642 1.366 . S
C4642 C4641 1.366 . S
C4642 C4643 1.414 . S
C4642 C4645 1.499 . S
C4643 H4617 0.950 . S
C4643 C4642 1.414 . S
C4643 C4644 1.374 . S
C4644 H4618 0.950 . S
C4644 C4640 1.385 . S
C4644 C4643 1.374 . S
C4645 C4642 1.499 . S
C4645 C4646 1.373 . S
C4645 C4647 1.389 . S
C4646 H4619 0.950 . S
C4646 C4632 1.377 . S
C4646 C4645 1.373 . S
C4647 C4631 1.377 . S
C4647 C4645 1.389 . S
C4647 C4648 1.524 . S
C4648 C4647 1.524 . S
C4648 C4649 1.397 . S
C4648 C4653 1.363 . S
C4649 H4620 0.950 . S
C4649 C4648 1.397 . S
C4649 C4650 1.334 . S
C4650 H4621 0.950 . S
C4650 C4649 1.334 . S
C4650 C4651 1.287 . S
C4651 C4650 1.287 . S
C4651 C4652 1.524 . S
C4651 H4654 0.999 . S
C4652 H4622 0.950 . S
C4652 C4651 1.524 . S
C4652 C4653 1.415 . S
C4653 H4623 0.950 . S
C4653 C4648 1.363 . S
C4653 C4652 1.415 . S
H4654 C4651 0.999 . S
H4655 C4636 0.913 . S
H4656 C4674 0.951 . S
H4657 C4676 0.951 . S
H4658 C4678 0.950 . S
H4659 C4679 0.950 . S
H4660 C4681 0.950 . S
H4661 C4684 0.950 . S
H4662 C4685 0.950 . S
H4663 C4687 0.950 . S
H4664 C4688 0.950 . S
H4665 C4689 0.951 . S
H4666 C4691 0.951 . S
H4667 C4693 0.950 . S
H4668 C4694 0.950 . S
H4669 C4696 0.950 . S
H4670 C4699 0.950 . S
H4671 C4700 0.950 . S
H4672 C4702 0.950 . S
H4673 C4703 0.950 . S
C4674 H4656 0.951 . S
C4674 C4675 1.366 . S
C4674 C4676 1.388 . S
C4675 C4674 1.366 . S
C4675 C4679 1.385 . S
C4676 H4657 0.951 . S
C4676 C4674 1.388 . S
C4676 C4677 1.366 . S
C4677 C4676 1.366 . S
C4677 C4678 1.414 . S
C4677 C4680 1.499 . S
C4678 H4658 0.950 . S
C4678 C4677 1.414 . S
C4678 C4679 1.374 . S
C4679 H4659 0.950 . S
C4679 C4675 1.385 . S
C4679 C4678 1.374 . S
C4680 C4677 1.499 . S
C4680 C4681 1.373 . S
C4680 C4682 1.389 . S
C4681 H4660 0.950 . S
C4681 C4680 1.373 . S
C4681 C4697 1.377 . S
C4682 C4680 1.389 . S
C4682 C4683 1.524 . S
C4682 C4696 1.377 . S
C4683 C4682 1.524 . S
C4683 C4684 1.397 . S
C4683 C4688 1.363 . S
C4684 H4661 0.950 . S
C4684 C4683 1.397 . S
C4684 C4685 1.334 . S
C4685 H4662 0.950 . S
C4685 C4684 1.334 . S
C4685 C4686 1.287 . S
C4686 C4685 1.287 . S
C4686 C4687 1.524 . S
C4686 H4705 0.913 . S
C4687 H4663 0.950 . S
C4687 C4686 1.524 . S
C4687 C4688 1.415 . S
C4688 H4664 0.950 . S
C4688 C4683 1.363 . S
C4688 C4687 1.415 . S
C4689 H4665 0.951 . S
C4689 C4690 1.366 . S
C4689 C4691 1.388 . S
C4690 C4689 1.366 . S
C4690 C4694 1.385 . S
C4691 H4666 0.951 . S
C4691 C4689 1.388 . S
C4691 C4692 1.366 . S
C4692 C4691 1.366 . S
C4692 C4693 1.414 . S
C4692 C4695 1.499 . S
C4693 H4667 0.950 . S
C4693 C4692 1.414 . S
C4693 C4694 1.374 . S
C4694 H4668 0.950 . S
C4694 C4690 1.385 . S
C4694 C4693 1.374 . S
C4695 C4692 1.499 . S
C4695 C4696 1.373 . S
C4695 C4697 1.389 . S
C4696 H4669 0.950 . S
C4696 C4682 1.377 . S
C4696 C4695 1.373 . S
C4697 C4681 1.377 . S
C4697 C4695 1.389 . S
C4697 C4698 1.524 . S
C4698 C4697 1.524 . S
C4698 C4699 1.397 . S
C4698 C4703 1.363 . S
C4699 H4670 0.950 . S
C4699 C4698 1.397 . S
C4699 C4700 1.334 . S
C4700 H4671 0.950 . S
C4700 C4699 1.334 . S
C4700 C4701 1.287 . S
C4701 C4700 1.287 . S
C4701 C4702 1.524 . S
C4701 H4704 0.999 . S
C4702 H4672 0.950 . S
C4702 C4701 1.524 . S
C4702 C4703 1.415 . S
C4703 H4673 0.950 . S
C4703 C4698 1.363 . S
C4703 C4702 1.415 . S
H4704 C4701 0.999 . S
H4705 C4686 0.913 . S
H4706 C4724 0.951 . S
H4707 C4726 0.951 . S
H4708 C4728 0.950 . S
H4709 C4729 0.950 . S
H4710 C4731 0.950 . S
H4711 C4734 0.950 . S
H4712 C4735 0.950 . S
H4713 C4737 0.950 . S
H4714 C4738 0.950 . S
H4715 C4739 0.951 . S
H4716 C4741 0.951 . S
H4717 C4743 0.950 . S
H4718 C4744 0.950 . S
H4719 C4746 0.950 . S
H4720 C4749 0.950 . S
H4721 C4750 0.950 . S
H4722 C4752 0.950 . S
H4723 C4753 0.950 . S
C4724 H4706 0.951 . S
C4724 C4725 1.366 . S
C4724 C4726 1.388 . S
C4725 C4724 1.366 . S
C4725 C4729 1.385 . S
C4726 H4707 0.951 . S
C4726 C4724 1.388 . S
C4726 C4727 1.366 . S
C4727 C4726 1.366 . S
C4727 C4728 1.414 . S
C4727 C4730 1.499 . S
C4728 H4708 0.950 . S
C4728 C4727 1.414 . S
C4728 C4729 1.374 . S
C4729 H4709 0.950 . S
C4729 C4725 1.385 . S
C4729 C4728 1.374 . S
C4730 C4727 1.499 . S
C4730 C4731 1.373 . S
C4730 C4732 1.389 . S
C4731 H4710 0.950 . S
C4731 C4730 1.373 . S
C4731 C4747 1.377 . S
C4732 C4730 1.389 . S
C4732 C4733 1.524 . S
C4732 C4746 1.377 . S
C4733 C4732 1.524 . S
C4733 C4734 1.397 . S
C4733 C4738 1.363 . S
C4734 H4711 0.950 . S
C4734 C4733 1.397 . S
C4734 C4735 1.334 . S
C4735 H4712 0.950 . S
C4735 C4734 1.334 . S
C4735 C4736 1.287 . S
C4736 C4735 1.287 . S
C4736 C4737 1.524 . S
C4736 H4755 0.913 . S
C4737 H4713 0.950 . S
C4737 C4736 1.524 . S
C4737 C4738 1.415 . S
C4738 H4714 0.950 . S
C4738 C4733 1.363 . S
C4738 C4737 1.415 . S
C4739 H4715 0.951 . S
C4739 C4740 1.366 . S
C4739 C4741 1.388 . S
C4740 C4739 1.366 . S
C4740 C4744 1.385 . S
C4741 H4716 0.951 . S
C4741 C4739 1.388 . S
C4741 C4742 1.366 . S
C4742 C4741 1.366 . S
C4742 C4743 1.414 . S
C4742 C4745 1.499 . S
C4743 H4717 0.950 . S
C4743 C4742 1.414 . S
C4743 C4744 1.374 . S
C4744 H4718 0.950 . S
C4744 C4740 1.385 . S
C4744 C4743 1.374 . S
C4745 C4742 1.499 . S
C4745 C4746 1.373 . S
C4745 C4747 1.389 . S
C4746 H4719 0.950 . S
C4746 C4732 1.377 . S
C4746 C4745 1.373 . S
C4747 C4731 1.377 . S
C4747 C4745 1.389 . S
C4747 C4748 1.524 . S
C4748 C4747 1.524 . S
C4748 C4749 1.397 . S
C4748 C4753 1.363 . S
C4749 H4720 0.950 . S
C4749 C4748 1.397 . S
C4749 C4750 1.334 . S
C4750 H4721 0.950 . S
C4750 C4749 1.334 . S
C4750 C4751 1.287 . S
C4751 C4750 1.287 . S
C4751 C4752 1.524 . S
C4751 H4754 0.999 . S
C4752 H4722 0.950 . S
C4752 C4751 1.524 . S
C4752 C4753 1.415 . S
C4753 H4723 0.950 . S
C4753 C4748 1.363 . S
C4753 C4752 1.415 . S
H4754 C4751 0.999 . S
H4755 C4736 0.913 . S
H4756 C4774 0.951 . S
H4757 C4776 0.951 . S
H4758 C4778 0.950 . S
H4759 C4779 0.950 . S
H4760 C4781 0.950 . S
H4761 C4784 0.950 . S
H4762 C4785 0.950 . S
H4763 C4787 0.950 . S
H4764 C4788 0.950 . S
H4765 C4789 0.951 . S
H4766 C4791 0.951 . S
H4767 C4793 0.950 . S
H4768 C4794 0.950 . S
H4769 C4796 0.950 . S
H4770 C4799 0.950 . S
H4771 C4800 0.950 . S
H4772 C4802 0.950 . S
H4773 C4803 0.950 . S
C4774 H4756 0.951 . S
C4774 C4775 1.366 . S
C4774 C4776 1.388 . S
C4775 C4774 1.366 . S
C4775 C4779 1.385 . S
C4776 H4757 0.951 . S
C4776 C4774 1.388 . S
C4776 C4777 1.366 . S
C4777 C4776 1.366 . S
C4777 C4778 1.414 . S
C4777 C4780 1.499 . S
C4778 H4758 0.950 . S
C4778 C4777 1.414 . S
C4778 C4779 1.374 . S
C4779 H4759 0.950 . S
C4779 C4775 1.385 . S
C4779 C4778 1.374 . S
C4780 C4777 1.499 . S
C4780 C4781 1.373 . S
C4780 C4782 1.389 . S
C4781 H4760 0.950 . S
C4781 C4780 1.373 . S
C4781 C4797 1.377 . S
C4782 C4780 1.389 . S
C4782 C4783 1.524 . S
C4782 C4796 1.377 . S
C4783 C4782 1.524 . S
C4783 C4784 1.397 . S
C4783 C4788 1.363 . S
C4784 H4761 0.950 . S
C4784 C4783 1.397 . S
C4784 C4785 1.334 . S
C4785 H4762 0.950 . S
C4785 C4784 1.334 . S
C4785 C4786 1.287 . S
C4786 C4785 1.287 . S
C4786 C4787 1.524 . S
C4786 H4805 0.913 . S
C4787 H4763 0.950 . S
C4787 C4786 1.524 . S
C4787 C4788 1.415 . S
C4788 H4764 0.950 . S
C4788 C4783 1.363 . S
C4788 C4787 1.415 . S
C4789 H4765 0.951 . S
C4789 C4790 1.366 . S
C4789 C4791 1.388 . S
C4790 C4789 1.366 . S
C4790 C4794 1.385 . S
C4791 H4766 0.951 . S
C4791 C4789 1.388 . S
C4791 C4792 1.366 . S
C4792 C4791 1.366 . S
C4792 C4793 1.414 . S
C4792 C4795 1.499 . S
C4793 H4767 0.950 . S
C4793 C4792 1.414 . S
C4793 C4794 1.374 . S
C4794 H4768 0.950 . S
C4794 C4790 1.385 . S
C4794 C4793 1.374 . S
C4795 C4792 1.499 . S
C4795 C4796 1.373 . S
C4795 C4797 1.389 . S
C4796 H4769 0.950 . S
C4796 C4782 1.377 . S
C4796 C4795 1.373 . S
C4797 C4781 1.377 . S
C4797 C4795 1.389 . S
C4797 C4798 1.524 . S
C4798 C4797 1.524 . S
C4798 C4799 1.397 . S
C4798 C4803 1.363 . S
C4799 H4770 0.950 . S
C4799 C4798 1.397 . S
C4799 C4800 1.334 . S
C4800 H4771 0.950 . S
C4800 C4799 1.334 . S
C4800 C4801 1.287 . S
C4801 C4800 1.287 . S
C4801 C4802 1.524 . S
C4801 H4804 0.999 . S
C4802 H4772 0.950 . S
C4802 C4801 1.524 . S
C4802 C4803 1.415 . S
C4803 H4773 0.950 . S
C4803 C4798 1.363 . S
C4803 C4802 1.415 . S
H4804 C4801 0.999 . S
H4805 C4786 0.913 . S
H4806 C4824 0.951 . S
H4807 C4826 0.951 . S
H4808 C4828 0.950 . S
H4809 C4829 0.950 . S
H4810 C4831 0.950 . S
H4811 C4834 0.950 . S
H4812 C4835 0.950 . S
H4813 C4837 0.950 . S
H4814 C4838 0.950 . S
H4815 C4839 0.951 . S
H4816 C4841 0.951 . S
H4817 C4843 0.950 . S
H4818 C4844 0.950 . S
H4819 C4846 0.950 . S
H4820 C4849 0.950 . S
H4821 C4850 0.950 . S
H4822 C4852 0.950 . S
H4823 C4853 0.950 . S
C4824 H4806 0.951 . S
C4824 C4825 1.366 . S
C4824 C4826 1.388 . S
C4825 C4824 1.366 . S
C4825 C4829 1.385 . S
C4826 H4807 0.951 . S
C4826 C4824 1.388 . S
C4826 C4827 1.366 . S
C4827 C4826 1.366 . S
C4827 C4828 1.414 . S
C4827 C4830 1.499 . S
C4828 H4808 0.950 . S
C4828 C4827 1.414 . S
C4828 C4829 1.374 . S
C4829 H4809 0.950 . S
C4829 C4825 1.385 . S
C4829 C4828 1.374 . S
C4830 C4827 1.499 . S
C4830 C4831 1.373 . S
C4830 C4832 1.389 . S
C4831 H4810 0.950 . S
C4831 C4830 1.373 . S
C4831 C4847 1.377 . S
C4832 C4830 1.389 . S
C4832 C4833 1.524 . S
C4832 C4846 1.377 . S
C4833 C4832 1.524 . S
C4833 C4834 1.397 . S
C4833 C4838 1.363 . S
C4834 H4811 0.950 . S
C4834 C4833 1.397 . S
C4834 C4835 1.334 . S
C4835 H4812 0.950 . S
C4835 C4834 1.334 . S
C4835 C4836 1.287 . S
C4836 C4835 1.287 . S
C4836 C4837 1.524 . S
C4836 H4855 0.913 . S
C4837 H4813 0.950 . S
C4837 C4836 1.524 . S
C4837 C4838 1.415 . S
C4838 H4814 0.950 . S
C4838 C4833 1.363 . S
C4838 C4837 1.415 . S
C4839 H4815 0.951 . S
C4839 C4840 1.366 . S
C4839 C4841 1.388 . S
C4840 C4839 1.366 . S
C4840 C4844 1.385 . S
C4841 H4816 0.951 . S
C4841 C4839 1.388 . S
C4841 C4842 1.366 . S
C4842 C4841 1.366 . S
C4842 C4843 1.414 . S
C4842 C4845 1.499 . S
C4843 H4817 0.950 . S
C4843 C4842 1.414 . S
C4843 C4844 1.374 . S
C4844 H4818 0.950 . S
C4844 C4840 1.385 . S
C4844 C4843 1.374 . S
C4845 C4842 1.499 . S
C4845 C4846 1.373 . S
C4845 C4847 1.389 . S
C4846 H4819 0.950 . S
C4846 C4832 1.377 . S
C4846 C4845 1.373 . S
C4847 C4831 1.377 . S
C4847 C4845 1.389 . S
C4847 C4848 1.524 . S
C4848 C4847 1.524 . S
C4848 C4849 1.397 . S
C4848 C4853 1.363 . S
C4849 H4820 0.950 . S
C4849 C4848 1.397 . S
C4849 C4850 1.334 . S
C4850 H4821 0.950 . S
C4850 C4849 1.334 . S
C4850 C4851 1.287 . S
C4851 C4850 1.287 . S
C4851 C4852 1.524 . S
C4851 H4854 0.999 . S
C4852 H4822 0.950 . S
C4852 C4851 1.524 . S
C4852 C4853 1.415 . S
C4853 H4823 0.950 . S
C4853 C4848 1.363 . S
C4853 C4852 1.415 . S
H4854 C4851 0.999 . S
H4855 C4836 0.913 . S
H4856 C4874 0.951 . S
H4857 C4876 0.951 . S
H4858 C4878 0.950 . S
H4859 C4879 0.950 . S
H4860 C4881 0.950 . S
H4861 C4884 0.950 . S
H4862 C4885 0.950 . S
H4863 C4887 0.950 . S
H4864 C4888 0.950 . S
H4865 C4889 0.951 . S
H4866 C4891 0.951 . S
H4867 C4893 0.950 . S
H4868 C4894 0.950 . S
H4869 C4896 0.950 . S
H4870 C4899 0.950 . S
H4871 C4900 0.950 . S
H4872 C4902 0.950 . S
H4873 C4903 0.950 . S
C4874 H4856 0.951 . S
C4874 C4875 1.366 . S
C4874 C4876 1.388 . S
C4875 C4874 1.366 . S
C4875 C4879 1.385 . S
C4876 H4857 0.951 . S
C4876 C4874 1.388 . S
C4876 C4877 1.366 . S
C4877 C4876 1.366 . S
C4877 C4878 1.414 . S
C4877 C4880 1.499 . S
C4878 H4858 0.950 . S
C4878 C4877 1.414 . S
C4878 C4879 1.374 . S
C4879 H4859 0.950 . S
C4879 C4875 1.385 . S
C4879 C4878 1.374 . S
C4880 C4877 1.499 . S
C4880 C4881 1.373 . S
C4880 C4882 1.389 . S
C4881 H4860 0.950 . S
C4881 C4880 1.373 . S
C4881 C4897 1.377 . S
C4882 C4880 1.389 . S
C4882 C4883 1.524 . S
C4882 C4896 1.377 . S
C4883 C4882 1.524 . S
C4883 C4884 1.397 . S
C4883 C4888 1.363 . S
C4884 H4861 0.950 . S
C4884 C4883 1.397 . S
C4884 C4885 1.334 . S
C4885 H4862 0.950 . S
C4885 C4884 1.334 . S
C4885 C4886 1.287 . S
C4886 C4885 1.287 . S
C4886 C4887 1.524 . S
C4886 H4905 0.913 . S
C4887 H4863 0.950 . S
C4887 C4886 1.524 . S
C4887 C4888 1.415 . S
C4888 H4864 0.950 . S
C4888 C4883 1.363 . S
C4888 C4887 1.415 . S
C4889 H4865 0.951 . S
C4889 C4890 1.366 . S
C4889 C4891 1.388 . S
C4890 C4889 1.366 . S
C4890 C4894 1.385 . S
C4891 H4866 0.951 . S
C4891 C4889 1.388 . S
C4891 C4892 1.366 . S
C4892 C4891 1.366 . S
C4892 C4893 1.414 . S
C4892 C4895 1.499 . S
C4893 H4867 0.950 . S
C4893 C4892 1.414 . S
C4893 C4894 1.374 . S
C4894 H4868 0.950 . S
C4894 C4890 1.385 . S
C4894 C4893 1.374 . S
C4895 C4892 1.499 . S
C4895 C4896 1.373 . S
C4895 C4897 1.389 . S
C4896 H4869 0.950 . S
C4896 C4882 1.377 . S
C4896 C4895 1.373 . S
C4897 C4881 1.377 . S
C4897 C4895 1.389 . S
C4897 C4898 1.524 . S
C4898 C4897 1.524 . S
C4898 C4899 1.397 . S
C4898 C4903 1.363 . S
C4899 H4870 0.950 . S
C4899 C4898 1.397 . S
C4899 C4900 1.334 . S
C4900 H4871 0.950 . S
C4900 C4899 1.334 . S
C4900 C4901 1.287 . S
C4901 C4900 1.287 . S
C4901 C4902 1.524 . S
C4901 H4904 0.999 . S
C4902 H4872 0.950 . S
C4902 C4901 1.524 . S
C4902 C4903 1.415 . S
C4903 H4873 0.950 . S
C4903 C4898 1.363 . S
C4903 C4902 1.415 . S
H4904 C4901 0.999 . S
H4905 C4886 0.913 . S
H4906 C4924 0.951 . S
H4907 C4926 0.951 . S
H4908 C4928 0.950 . S
H4909 C4929 0.950 . S
H4910 C4931 0.950 . S
H4911 C4934 0.950 . S
H4912 C4935 0.950 . S
H4913 C4937 0.950 . S
H4914 C4938 0.950 . S
H4915 C4939 0.951 . S
H4916 C4941 0.951 . S
H4917 C4943 0.950 . S
H4918 C4944 0.950 . S
H4919 C4946 0.950 . S
H4920 C4949 0.950 . S
H4921 C4950 0.950 . S
H4922 C4952 0.950 . S
H4923 C4953 0.950 . S
C4924 H4906 0.951 . S
C4924 C4925 1.366 . S
C4924 C4926 1.388 . S
C4925 C4924 1.366 . S
C4925 C4929 1.385 . S
C4926 H4907 0.951 . S
C4926 C4924 1.388 . S
C4926 C4927 1.366 . S
C4927 C4926 1.366 . S
C4927 C4928 1.414 . S
C4927 C4930 1.499 . S
C4928 H4908 0.950 . S
C4928 C4927 1.414 . S
C4928 C4929 1.374 . S
C4929 H4909 0.950 . S
C4929 C4925 1.385 . S
C4929 C4928 1.374 . S
C4930 C4927 1.499 . S
C4930 C4931 1.373 . S
C4930 C4932 1.389 . S
C4931 H4910 0.950 . S
C4931 C4930 1.373 . S
C4931 C4947 1.377 . S
C4932 C4930 1.389 . S
C4932 C4933 1.524 . S
C4932 C4946 1.377 . S
C4933 C4932 1.524 . S
C4933 C4934 1.397 . S
C4933 C4938 1.363 . S
C4934 H4911 0.950 . S
C4934 C4933 1.397 . S
C4934 C4935 1.334 . S
C4935 H4912 0.950 . S
C4935 C4934 1.334 . S
C4935 C4936 1.287 . S
C4936 C4935 1.287 . S
C4936 C4937 1.524 . S
C4936 H4955 0.913 . S
C4937 H4913 0.950 . S
C4937 C4936 1.524 . S
C4937 C4938 1.415 . S
C4938 H4914 0.950 . S
C4938 C4933 1.363 . S
C4938 C4937 1.415 . S
C4939 H4915 0.951 . S
C4939 C4940 1.366 . S
C4939 C4941 1.388 . S
C4940 C4939 1.366 . S
C4940 C4944 1.385 . S
C4941 H4916 0.951 . S
C4941 C4939 1.388 . S
C4941 C4942 1.366 . S
C4942 C4941 1.366 . S
C4942 C4943 1.414 . S
C4942 C4945 1.499 . S
C4943 H4917 0.950 . S
C4943 C4942 1.414 . S
C4943 C4944 1.374 . S
C4944 H4918 0.950 . S
C4944 C4940 1.385 . S
C4944 C4943 1.374 . S
C4945 C4942 1.499 . S
C4945 C4946 1.373 . S
C4945 C4947 1.389 . S
C4946 H4919 0.950 . S
C4946 C4932 1.377 . S
C4946 C4945 1.373 . S
C4947 C4931 1.377 . S
C4947 C4945 1.389 . S
C4947 C4948 1.524 . S
C4948 C4947 1.524 . S
C4948 C4949 1.397 . S
C4948 C4953 1.363 . S
C4949 H4920 0.950 . S
C4949 C4948 1.397 . S
C4949 C4950 1.334 . S
C4950 H4921 0.950 . S
C4950 C4949 1.334 . S
C4950 C4951 1.287 . S
C4951 C4950 1.287 . S
C4951 C4952 1.524 . S
C4951 H4954 0.999 . S
C4952 H4922 0.950 . S
C4952 C4951 1.524 . S
C4952 C4953 1.415 . S
C4953 H4923 0.950 . S
C4953 C4948 1.363 . S
C4953 C4952 1.415 . S
H4954 C4951 0.999 . S
H4955 C4936 0.913 . S
H4956 C4974 0.951 1_545 S
H4957 C4976 0.951 . S
H4958 C4978 0.950 . S
H4959 C4979 0.950 . S
H4960 C4981 0.950 . S
H4961 C4984 0.950 . S
H4962 C4985 0.950 . S
H4963 C4987 0.950 . S
H4964 C4988 0.950 . S
H4965 C4989 0.951 . S
H4966 C4991 0.951 . S
H4967 C4993 0.950 . S
H4968 C4994 0.950 . S
H4969 C4996 0.950 . S
H4970 C4999 0.950 . S
H4971 C5000 0.950 . S
H4972 C5002 0.950 . S
H4973 C5003 0.950 . S
C4974 H4956 0.951 1_565 S
C4974 C4975 1.366 . S
C4974 C4976 1.388 . S
C4975 C4974 1.366 . S
C4975 C4979 1.385 . S
C4976 H4957 0.951 . S
C4976 C4974 1.388 . S
C4976 C4977 1.366 . S
C4977 C4976 1.366 . S
C4977 C4978 1.414 . S
C4977 C4980 1.499 . S
C4978 H4958 0.950 . S
C4978 C4977 1.414 . S
C4978 C4979 1.374 . S
C4979 H4959 0.950 . S
C4979 C4975 1.385 . S
C4979 C4978 1.374 . S
C4980 C4977 1.499 . S
C4980 C4981 1.373 . S
C4980 C4982 1.389 . S
C4981 H4960 0.950 . S
C4981 C4980 1.373 . S
C4981 C4997 1.377 . S
C4982 C4980 1.389 . S
C4982 C4983 1.524 . S
C4982 C4996 1.377 . S
C4983 C4982 1.524 . S
C4983 C4984 1.397 . S
C4983 C4988 1.363 . S
C4984 H4961 0.950 . S
C4984 C4983 1.397 . S
C4984 C4985 1.334 . S
C4985 H4962 0.950 . S
C4985 C4984 1.334 . S
C4985 C4986 1.287 . S
C4986 C4985 1.287 . S
C4986 C4987 1.524 . S
C4986 H5005 0.913 . S
C4987 H4963 0.950 . S
C4987 C4986 1.524 . S
C4987 C4988 1.415 . S
C4988 H4964 0.950 . S
C4988 C4983 1.363 . S
C4988 C4987 1.415 . S
C4989 H4965 0.951 . S
C4989 C4990 1.366 . S
C4989 C4991 1.388 . S
C4990 C4989 1.366 . S
C4990 C4994 1.385 . S
C4991 H4966 0.951 . S
C4991 C4989 1.388 . S
C4991 C4992 1.366 . S
C4992 C4991 1.366 . S
C4992 C4993 1.414 . S
C4992 C4995 1.499 . S
C4993 H4967 0.950 . S
C4993 C4992 1.414 . S
C4993 C4994 1.374 . S
C4994 H4968 0.950 . S
C4994 C4990 1.385 . S
C4994 C4993 1.374 . S
C4995 C4992 1.499 . S
C4995 C4996 1.373 . S
C4995 C4997 1.389 . S
C4996 H4969 0.950 . S
C4996 C4982 1.377 . S
C4996 C4995 1.373 . S
C4997 C4981 1.377 . S
C4997 C4995 1.389 . S
C4997 C4998 1.524 . S
C4998 C4997 1.524 . S
C4998 C4999 1.397 . S
C4998 C5003 1.363 . S
C4999 H4970 0.950 . S
C4999 C4998 1.397 . S
C4999 C5000 1.334 . S
C5000 H4971 0.950 . S
C5000 C4999 1.334 . S
C5000 C5001 1.287 . S
C5001 C5000 1.287 . S
C5001 C5002 1.524 . S
C5001 H5004 0.999 . S
C5002 H4972 0.950 . S
C5002 C5001 1.524 . S
C5002 C5003 1.415 . S
C5003 H4973 0.950 . S
C5003 C4998 1.363 . S
C5003 C5002 1.415 . S
H5004 C5001 0.999 . S
H5005 C4986 0.913 . S
H5006 C5024 0.951 . S
H5007 C5026 0.951 . S
H5008 C5028 0.950 . S
H5009 C5029 0.950 . S
H5010 C5031 0.950 . S
H5011 C5034 0.950 . S
H5012 C5035 0.950 . S
H5013 C5037 0.950 . S
H5014 C5038 0.950 . S
H5015 C5039 0.951 . S
H5016 C5041 0.951 . S
H5017 C5043 0.950 . S
H5018 C5044 0.949 1_565 S
H5019 C5046 0.950 . S
H5020 C5049 0.950 . S
H5021 C5050 0.950 . S
H5022 C5052 0.950 . S
H5023 C5053 0.911 1_554 S
C5024 H5006 0.951 . S
C5024 C5025 1.366 . S
C5024 C5026 1.388 . S
C5025 C5024 1.366 . S
C5025 C5029 1.385 1_556 S
C5026 H5007 0.951 . S
C5026 C5024 1.388 . S
C5026 C5027 1.366 1_556 S
C5027 C5026 1.366 1_554 S
C5027 C5028 1.414 . S
C5027 C5030 1.499 . S
C5028 H5008 0.950 . S
C5028 C5027 1.414 . S
C5028 C5029 1.374 . S
C5029 H5009 0.950 . S
C5029 C5025 1.385 1_554 S
C5029 C5028 1.374 . S
C5030 C5027 1.499 . S
C5030 C5031 1.373 1_554 S
C5030 C5032 1.389 . S
C5031 H5010 0.950 . S
C5031 C5030 1.373 1_556 S
C5031 C5047 1.377 . S
C5032 C5030 1.389 . S
C5032 C5033 1.524 . S
C5032 C5046 1.377 . S
C5033 C5032 1.524 . S
C5033 C5034 1.397 . S
C5033 C5038 1.363 . S
C5034 H5011 0.950 . S
C5034 C5033 1.397 . S
C5034 C5035 1.334 . S
C5035 H5012 0.950 . S
C5035 C5034 1.334 . S
C5035 C5036 1.287 . S
C5036 C5035 1.287 . S
C5036 C5037 1.524 . S
C5036 H5055 0.913 . S
C5037 H5013 0.950 . S
C5037 C5036 1.524 . S
C5037 C5038 1.415 . S
C5038 H5014 0.950 . S
C5038 C5033 1.363 . S
C5038 C5037 1.415 . S
C5039 H5015 0.951 . S
C5039 C5040 1.366 . S
C5039 C5041 1.388 . S
C5040 C5039 1.366 . S
C5040 C5044 1.371 1_554 S
C5041 H5016 0.951 . S
C5041 C5039 1.388 . S
C5041 C5042 1.366 . S
C5042 C5041 1.366 . S
C5042 C5043 1.414 1_544 S
C5042 C5045 1.499 1_545 S
C5043 H5017 0.950 . S
C5043 C5042 1.414 1_566 S
C5043 C5044 1.371 1_565 S
C5044 H5018 0.949 1_545 S
C5044 C5040 1.371 1_556 S
C5044 C5043 1.371 1_545 S
C5045 C5042 1.499 1_565 S
C5045 C5046 1.373 . S
C5045 C5047 1.389 1_554 S
C5046 H5019 0.950 . S
C5046 C5032 1.377 . S
C5046 C5045 1.373 . S
C5047 C5031 1.377 . S
C5047 C5045 1.389 1_556 S
C5047 C5048 1.524 1_565 S
C5048 C5047 1.524 1_545 S
C5048 C5049 1.397 . S
C5048 C5053 1.363 . S
C5049 H5020 0.950 . S
C5049 C5048 1.397 . S
C5049 C5050 1.334 . S
C5050 H5021 0.950 . S
C5050 C5049 1.334 . S
C5050 C5051 1.287 . S
C5051 C5050 1.287 . S
C5051 C5052 1.524 . S
C5051 H5054 0.999 . S
C5052 H5022 0.950 . S
C5052 C5051 1.524 . S
C5052 C5053 1.415 . S
C5053 H5023 0.911 1_556 S
C5053 C5048 1.363 . S
C5053 C5052 1.415 . S
H5054 C5051 0.999 . S
H5055 C5036 0.913 . S
H5056 C5074 0.951 . S
H5057 C5076 0.951 . S
H5058 C5078 0.950 . S
H5059 C5079 0.950 . S
H5060 C5081 0.950 . S
H5061 C5084 0.950 . S
H5062 C5085 0.950 . S
H5063 C5087 0.950 . S
H5064 C5088 0.950 . S
H5065 C5089 0.951 . S
H5066 C5091 0.951 . S
H5067 C5093 0.950 . S
H5068 C5094 0.950 . S
H5069 C5096 0.950 . S
H5070 C5099 0.950 . S
H5071 C5100 0.950 . S
H5072 C5102 0.950 . S
H5073 C5103 0.950 . S
C5074 H5056 0.951 . S
C5074 C5075 1.366 . S
C5074 C5076 1.388 . S
C5075 C5074 1.366 . S
C5075 C5079 1.385 . S
C5076 H5057 0.951 . S
C5076 C5074 1.388 . S
C5076 C5077 1.366 . S
C5077 C5076 1.366 . S
C5077 C5078 1.414 . S
C5077 C5080 1.499 . S
C5078 H5058 0.950 . S
C5078 C5077 1.414 . S
C5078 C5079 1.374 . S
C5079 H5059 0.950 . S
C5079 C5075 1.385 . S
C5079 C5078 1.374 . S
C5080 C5077 1.499 . S
C5080 C5081 1.373 . S
C5080 C5082 1.389 . S
C5081 H5060 0.950 . S
C5081 C5080 1.373 . S
C5081 C5097 1.377 . S
C5082 C5080 1.389 . S
C5082 C5083 1.524 . S
C5082 C5096 1.377 . S
C5083 C5082 1.524 . S
C5083 C5084 1.397 . S
C5083 C5088 1.363 . S
C5084 H5061 0.950 . S
C5084 C5083 1.397 . S
C5084 C5085 1.334 . S
C5085 H5062 0.950 . S
C5085 C5084 1.334 . S
C5085 C5086 1.287 . S
C5086 C5085 1.287 . S
C5086 C5087 1.524 . S
C5086 H5105 0.913 . S
C5087 H5063 0.950 . S
C5087 C5086 1.524 . S
C5087 C5088 1.415 . S
C5088 H5064 0.950 . S
C5088 C5083 1.363 . S
C5088 C5087 1.415 . S
C5089 H5065 0.951 . S
C5089 C5090 1.366 . S
C5089 C5091 1.388 . S
C5090 C5089 1.366 . S
C5090 C5094 1.385 . S
C5091 H5066 0.951 . S
C5091 C5089 1.388 . S
C5091 C5092 1.366 . S
C5092 C5091 1.366 . S
C5092 C5093 1.414 . S
C5092 C5095 1.499 . S
C5093 H5067 0.950 . S
C5093 C5092 1.414 . S
C5093 C5094 1.374 . S
C5094 H5068 0.950 . S
C5094 C5090 1.385 . S
C5094 C5093 1.374 . S
C5095 C5092 1.499 . S
C5095 C5096 1.373 . S
C5095 C5097 1.389 . S
C5096 H5069 0.950 . S
C5096 C5082 1.377 . S
C5096 C5095 1.373 . S
C5097 C5081 1.377 . S
C5097 C5095 1.389 . S
C5097 C5098 1.524 . S
C5098 C5097 1.524 . S
C5098 C5099 1.397 . S
C5098 C5103 1.363 . S
C5099 H5070 0.950 . S
C5099 C5098 1.397 . S
C5099 C5100 1.334 . S
C5100 H5071 0.950 . S
C5100 C5099 1.334 . S
C5100 C5101 1.287 . S
C5101 C5100 1.287 . S
C5101 C5102 1.524 . S
C5101 H5104 0.999 . S
C5102 H5072 0.950 . S
C5102 C5101 1.524 . S
C5102 C5103 1.415 . S
C5103 H5073 0.950 . S
C5103 C5098 1.363 . S
C5103 C5102 1.415 . S
H5104 C5101 0.999 . S
H5105 C5086 0.913 . S
H5106 C5124 0.951 . S
H5107 C5126 0.951 . S
H5108 C5128 0.950 . S
H5109 C5129 0.950 . S
H5110 C5131 0.950 . S
H5111 C5134 0.950 . S
H5112 C5135 0.950 . S
H5113 C5137 0.950 . S
H5114 C5138 0.950 . S
H5115 C5139 0.951 . S
H5116 C5141 0.951 . S
H5117 C5143 0.950 . S
H5118 C5144 0.950 . S
H5119 C5146 0.950 . S
H5120 C5149 0.950 . S
H5121 C5150 0.950 . S
H5122 C5152 0.950 . S
H5123 C5153 0.950 . S
C5124 H5106 0.951 . S
C5124 C5125 1.366 . S
C5124 C5126 1.388 . S
C5125 C5124 1.366 . S
C5125 C5129 1.385 . S
C5126 H5107 0.951 . S
C5126 C5124 1.388 . S
C5126 C5127 1.366 . S
C5127 C5126 1.366 . S
C5127 C5128 1.414 . S
C5127 C5130 1.499 . S
C5128 H5108 0.950 . S
C5128 C5127 1.414 . S
C5128 C5129 1.374 . S
C5129 H5109 0.950 . S
C5129 C5125 1.385 . S
C5129 C5128 1.374 . S
C5130 C5127 1.499 . S
C5130 C5131 1.373 . S
C5130 C5132 1.389 . S
C5131 H5110 0.950 . S
C5131 C5130 1.373 . S
C5131 C5147 1.377 . S
C5132 C5130 1.389 . S
C5132 C5133 1.524 . S
C5132 C5146 1.377 . S
C5133 C5132 1.524 . S
C5133 C5134 1.397 1_554 S
C5133 C5138 1.363 . S
C5134 H5111 0.950 . S
C5134 C5133 1.397 1_556 S
C5134 C5135 1.334 . S
C5135 H5112 0.950 . S
C5135 C5134 1.334 . S
C5135 C5136 1.287 . S
C5136 C5135 1.287 . S
C5136 C5137 1.524 . S
C5136 H5155 0.913 . S
C5137 H5113 0.950 . S
C5137 C5136 1.524 . S
C5137 C5138 1.415 1_556 S
C5138 H5114 0.950 . S
C5138 C5133 1.363 . S
C5138 C5137 1.415 1_554 S
C5139 H5115 0.951 . S
C5139 C5140 1.366 . S
C5139 C5141 1.388 . S
C5140 C5139 1.366 . S
C5140 C5144 1.385 . S
C5141 H5116 0.951 . S
C5141 C5139 1.388 . S
C5141 C5142 1.366 . S
C5142 C5141 1.366 . S
C5142 C5143 1.414 . S
C5142 C5145 1.499 . S
C5143 H5117 0.950 . S
C5143 C5142 1.414 . S
C5143 C5144 1.374 . S
C5144 H5118 0.950 . S
C5144 C5140 1.385 . S
C5144 C5143 1.374 . S
C5145 C5142 1.499 . S
C5145 C5146 1.373 . S
C5145 C5147 1.389 . S
C5146 H5119 0.950 . S
C5146 C5132 1.377 . S
C5146 C5145 1.373 . S
C5147 C5131 1.377 . S
C5147 C5145 1.389 . S
C5147 C5148 1.524 . S
C5148 C5147 1.524 . S
C5148 C5149 1.397 . S
C5148 C5153 1.363 . S
C5149 H5120 0.950 . S
C5149 C5148 1.397 . S
C5149 C5150 1.334 . S
C5150 H5121 0.950 . S
C5150 C5149 1.334 . S
C5150 C5151 1.287 . S
C5151 C5150 1.287 . S
C5151 C5152 1.524 . S
C5151 H5154 0.999 . S
C5152 H5122 0.950 . S
C5152 C5151 1.524 . S
C5152 C5153 1.415 . S
C5153 H5123 0.950 . S
C5153 C5148 1.363 . S
C5153 C5152 1.415 . S
H5154 C5151 0.999 . S
H5155 C5136 0.913 . S
H5156 C5174 0.951 . S
H5157 C5176 0.951 . S
H5158 C5178 0.950 . S
H5159 C5179 0.950 . S
H5160 C5181 0.950 . S
H5161 C5184 0.950 . S
H5162 C5185 0.950 . S
H5163 C5187 0.950 . S
H5164 C5188 0.950 . S
H5165 C5189 0.951 . S
H5166 C5191 0.951 . S
H5167 C5193 0.950 . S
H5168 C5194 0.950 . S
H5169 C5196 0.950 . S
H5170 C5199 0.950 . S
H5171 C5200 0.950 . S
H5172 C5202 0.950 . S
H5173 C5203 0.950 . S
C5174 H5156 0.951 . S
C5174 C5175 1.366 . S
C5174 C5176 1.388 . S
C5175 C5174 1.366 . S
C5175 C5179 1.385 . S
C5176 H5157 0.951 . S
C5176 C5174 1.388 . S
C5176 C5177 1.366 . S
C5177 C5176 1.366 . S
C5177 C5178 1.414 . S
C5177 C5180 1.499 . S
C5178 H5158 0.950 . S
C5178 C5177 1.414 . S
C5178 C5179 1.374 . S
C5179 H5159 0.950 . S
C5179 C5175 1.385 . S
C5179 C5178 1.374 . S
C5180 C5177 1.499 . S
C5180 C5181 1.373 . S
C5180 C5182 1.389 . S
C5181 H5160 0.950 . S
C5181 C5180 1.373 . S
C5181 C5197 1.377 . S
C5182 C5180 1.389 . S
C5182 C5183 1.524 . S
C5182 C5196 1.377 . S
C5183 C5182 1.524 . S
C5183 C5184 1.397 . S
C5183 C5188 1.363 . S
C5184 H5161 0.950 . S
C5184 C5183 1.397 . S
C5184 C5185 1.334 . S
C5185 H5162 0.950 . S
C5185 C5184 1.334 . S
C5185 C5186 1.287 . S
C5186 C5185 1.287 . S
C5186 C5187 1.524 . S
C5186 H5205 0.913 . S
C5187 H5163 0.950 . S
C5187 C5186 1.524 . S
C5187 C5188 1.415 . S
C5188 H5164 0.950 . S
C5188 C5183 1.363 . S
C5188 C5187 1.415 . S
C5189 H5165 0.951 . S
C5189 C5190 1.366 . S
C5189 C5191 1.388 . S
C5190 C5189 1.366 . S
C5190 C5194 1.385 . S
C5191 H5166 0.951 . S
C5191 C5189 1.388 . S
C5191 C5192 1.366 . S
C5192 C5191 1.366 . S
C5192 C5193 1.414 . S
C5192 C5195 1.499 . S
C5193 H5167 0.950 . S
C5193 C5192 1.414 . S
C5193 C5194 1.374 . S
C5194 H5168 0.950 . S
C5194 C5190 1.385 . S
C5194 C5193 1.374 . S
C5195 C5192 1.499 . S
C5195 C5196 1.373 . S
C5195 C5197 1.389 . S
C5196 H5169 0.950 . S
C5196 C5182 1.377 . S
C5196 C5195 1.373 . S
C5197 C5181 1.377 . S
C5197 C5195 1.389 . S
C5197 C5198 1.524 . S
C5198 C5197 1.524 . S
C5198 C5199 1.397 . S
C5198 C5203 1.363 . S
C5199 H5170 0.950 . S
C5199 C5198 1.397 . S
C5199 C5200 1.334 . S
C5200 H5171 0.950 . S
C5200 C5199 1.334 . S
C5200 C5201 1.287 . S
C5201 C5200 1.287 . S
C5201 C5202 1.524 . S
C5201 H5204 0.999 . S
C5202 H5172 0.950 . S
C5202 C5201 1.524 . S
C5202 C5203 1.415 . S
C5203 H5173 0.950 . S
C5203 C5198 1.363 . S
C5203 C5202 1.415 . S
H5204 C5201 0.999 . S
H5205 C5186 0.913 . S
H5206 C5224 0.951 . S
H5207 C5226 0.951 . S
H5208 C5228 0.950 . S
H5209 C5229 0.950 . S
H5210 C5231 0.950 . S
H5211 C5234 0.950 . S
H5212 C5235 0.950 . S
H5213 C5237 0.950 . S
H5214 C5238 0.950 . S
H5215 C5239 0.951 . S
H5216 C5241 0.951 . S
H5217 C5243 0.950 . S
H5218 C5244 0.950 . S
H5219 C5246 0.950 . S
H5220 C5249 0.950 . S
H5221 C5250 0.950 . S
H5222 C5252 0.950 . S
H5223 C5253 0.950 . S
C5224 H5206 0.951 . S
C5224 C5225 1.366 . S
C5224 C5226 1.388 . S
C5225 C5224 1.366 . S
C5225 C5229 1.385 . S
C5226 H5207 0.951 . S
C5226 C5224 1.388 . S
C5226 C5227 1.366 . S
C5227 C5226 1.366 . S
C5227 C5228 1.414 . S
C5227 C5230 1.499 . S
C5228 H5208 0.950 . S
C5228 C5227 1.414 . S
C5228 C5229 1.374 . S
C5229 H5209 0.950 . S
C5229 C5225 1.385 . S
C5229 C5228 1.374 . S
C5230 C5227 1.499 . S
C5230 C5231 1.373 . S
C5230 C5232 1.389 . S
C5231 H5210 0.950 . S
C5231 C5230 1.373 . S
C5231 C5247 1.377 . S
C5232 C5230 1.389 . S
C5232 C5233 1.524 . S
C5232 C5246 1.377 . S
C5233 C5232 1.524 . S
C5233 C5234 1.397 . S
C5233 C5238 1.363 . S
C5234 H5211 0.950 . S
C5234 C5233 1.397 . S
C5234 C5235 1.334 . S
C5235 H5212 0.950 . S
C5235 C5234 1.334 . S
C5235 C5236 1.287 . S
C5236 C5235 1.287 . S
C5236 C5237 1.524 . S
C5236 H5255 0.913 . S
C5237 H5213 0.950 . S
C5237 C5236 1.524 . S
C5237 C5238 1.415 . S
C5238 H5214 0.950 . S
C5238 C5233 1.363 . S
C5238 C5237 1.415 . S
C5239 H5215 0.951 . S
C5239 C5240 1.366 . S
C5239 C5241 1.388 . S
C5240 C5239 1.366 . S
C5240 C5244 1.385 . S
C5241 H5216 0.951 . S
C5241 C5239 1.388 . S
C5241 C5242 1.366 . S
C5242 C5241 1.366 . S
C5242 C5243 1.414 . S
C5242 C5245 1.499 . S
C5243 H5217 0.950 . S
C5243 C5242 1.414 . S
C5243 C5244 1.374 . S
C5244 H5218 0.950 . S
C5244 C5240 1.385 . S
C5244 C5243 1.374 . S
C5245 C5242 1.499 . S
C5245 C5246 1.373 . S
C5245 C5247 1.389 . S
C5246 H5219 0.950 . S
C5246 C5232 1.377 . S
C5246 C5245 1.373 . S
C5247 C5231 1.377 . S
C5247 C5245 1.389 . S
C5247 C5248 1.524 . S
C5248 C5247 1.524 . S
C5248 C5249 1.397 . S
C5248 C5253 1.363 . S
C5249 H5220 0.950 . S
C5249 C5248 1.397 . S
C5249 C5250 1.334 . S
C5250 H5221 0.950 . S
C5250 C5249 1.334 . S
C5250 C5251 1.287 . S
C5251 C5250 1.287 . S
C5251 C5252 1.524 . S
C5251 H5254 0.999 . S
C5252 H5222 0.950 . S
C5252 C5251 1.524 . S
C5252 C5253 1.415 . S
C5253 H5223 0.950 . S
C5253 C5248 1.363 . S
C5253 C5252 1.415 . S
H5254 C5251 0.999 . S
H5255 C5236 0.913 . S
H5256 C5274 0.951 . S
H5257 C5276 0.951 . S
H5258 C5278 0.950 . S
H5259 C5279 0.950 . S
H5260 C5281 0.950 . S
H5261 C5284 0.950 . S
H5262 C5285 0.950 . S
H5263 C5287 0.950 . S
H5264 C5288 0.950 . S
H5265 C5289 0.951 . S
H5266 C5291 0.951 . S
H5267 C5293 0.950 . S
H5268 C5294 0.950 . S
H5269 C5296 0.950 . S
H5270 C5299 0.950 . S
H5271 C5300 0.950 . S
H5272 C5302 0.950 . S
H5273 C5303 0.950 . S
C5274 H5256 0.951 . S
C5274 C5275 1.366 . S
C5274 C5276 1.388 . S
C5275 C5274 1.366 . S
C5275 C5279 1.385 . S
C5276 H5257 0.951 . S
C5276 C5274 1.388 . S
C5276 C5277 1.366 . S
C5277 C5276 1.366 . S
C5277 C5278 1.414 . S
C5277 C5280 1.499 . S
C5278 H5258 0.950 . S
C5278 C5277 1.414 . S
C5278 C5279 1.374 . S
C5279 H5259 0.950 . S
C5279 C5275 1.385 . S
C5279 C5278 1.374 . S
C5280 C5277 1.499 . S
C5280 C5281 1.373 . S
C5280 C5282 1.389 . S
C5281 H5260 0.950 . S
C5281 C5280 1.373 . S
C5281 C5297 1.377 . S
C5282 C5280 1.389 . S
C5282 C5283 1.524 . S
C5282 C5296 1.377 . S
C5283 C5282 1.524 . S
C5283 C5284 1.397 . S
C5283 C5288 1.363 . S
C5284 H5261 0.950 . S
C5284 C5283 1.397 . S
C5284 C5285 1.334 . S
C5285 H5262 0.950 . S
C5285 C5284 1.334 . S
C5285 C5286 1.287 . S
C5286 C5285 1.287 . S
C5286 C5287 1.524 . S
C5286 H5305 0.913 . S
C5287 H5263 0.950 . S
C5287 C5286 1.524 . S
C5287 C5288 1.415 . S
C5288 H5264 0.950 . S
C5288 C5283 1.363 . S
C5288 C5287 1.415 . S
C5289 H5265 0.951 . S
C5289 C5290 1.366 . S
C5289 C5291 1.388 . S
C5290 C5289 1.366 . S
C5290 C5294 1.385 . S
C5291 H5266 0.951 . S
C5291 C5289 1.388 . S
C5291 C5292 1.366 . S
C5292 C5291 1.366 . S
C5292 C5293 1.414 . S
C5292 C5295 1.499 . S
C5293 H5267 0.950 . S
C5293 C5292 1.414 . S
C5293 C5294 1.374 . S
C5294 H5268 0.950 . S
C5294 C5290 1.385 . S
C5294 C5293 1.374 . S
C5295 C5292 1.499 . S
C5295 C5296 1.373 . S
C5295 C5297 1.389 . S
C5296 H5269 0.950 . S
C5296 C5282 1.377 . S
C5296 C5295 1.373 . S
C5297 C5281 1.377 . S
C5297 C5295 1.389 . S
C5297 C5298 1.524 . S
C5298 C5297 1.524 . S
C5298 C5299 1.397 . S
C5298 C5303 1.363 . S
C5299 H5270 0.950 . S
C5299 C5298 1.397 . S
C5299 C5300 1.334 . S
C5300 H5271 0.950 . S
C5300 C5299 1.334 . S
C5300 C5301 1.287 . S
C5301 C5300 1.287 . S
C5301 C5302 1.524 . S
C5301 H5304 0.999 . S
C5302 H5272 0.950 . S
C5302 C5301 1.524 . S
C5302 C5303 1.415 . S
C5303 H5273 0.950 . S
C5303 C5298 1.363 . S
C5303 C5302 1.415 . S
H5304 C5301 0.999 . S
H5305 C5286 0.913 . S
H5306 C5324 0.951 . S
H5307 C5326 0.951 . S
H5308 C5328 0.950 . S
H5309 C5329 0.950 . S
H5310 C5331 0.950 . S
H5311 C5334 0.950 . S
H5312 C5335 0.950 . S
H5313 C5337 0.950 . S
H5314 C5338 0.950 . S
H5315 C5339 0.951 . S
H5316 C5341 0.951 . S
H5317 C5343 0.950 . S
H5318 C5344 0.950 . S
H5319 C5346 0.950 . S
H5320 C5349 0.950 . S
H5321 C5350 0.950 . S
H5322 C5352 0.950 . S
H5323 C5353 0.950 . S
C5324 H5306 0.951 . S
C5324 C5325 1.366 . S
C5324 C5326 1.388 . S
C5325 C5324 1.366 . S
C5325 C5329 1.385 . S
C5326 H5307 0.951 . S
C5326 C5324 1.388 . S
C5326 C5327 1.366 . S
C5327 C5326 1.366 . S
C5327 C5328 1.414 . S
C5327 C5330 1.499 . S
C5328 H5308 0.950 . S
C5328 C5327 1.414 . S
C5328 C5329 1.374 . S
C5329 H5309 0.950 . S
C5329 C5325 1.385 . S
C5329 C5328 1.374 . S
C5330 C5327 1.499 . S
C5330 C5331 1.373 . S
C5330 C5332 1.389 . S
C5331 H5310 0.950 . S
C5331 C5330 1.373 . S
C5331 C5347 1.377 . S
C5332 C5330 1.389 . S
C5332 C5333 1.524 . S
C5332 C5346 1.377 . S
C5333 C5332 1.524 . S
C5333 C5334 1.397 . S
C5333 C5338 1.363 . S
C5334 H5311 0.950 . S
C5334 C5333 1.397 . S
C5334 C5335 1.334 . S
C5335 H5312 0.950 . S
C5335 C5334 1.334 . S
C5335 C5336 1.287 . S
C5336 C5335 1.287 . S
C5336 C5337 1.524 . S
C5336 H5355 0.913 . S
C5337 H5313 0.950 . S
C5337 C5336 1.524 . S
C5337 C5338 1.415 . S
C5338 H5314 0.950 . S
C5338 C5333 1.363 . S
C5338 C5337 1.415 . S
C5339 H5315 0.951 . S
C5339 C5340 1.366 . S
C5339 C5341 1.388 . S
C5340 C5339 1.366 . S
C5340 C5344 1.385 . S
C5341 H5316 0.951 . S
C5341 C5339 1.388 . S
C5341 C5342 1.366 . S
C5342 C5341 1.366 . S
C5342 C5343 1.414 . S
C5342 C5345 1.499 . S
C5343 H5317 0.950 . S
C5343 C5342 1.414 . S
C5343 C5344 1.374 . S
C5344 H5318 0.950 . S
C5344 C5340 1.385 . S
C5344 C5343 1.374 . S
C5345 C5342 1.499 . S
C5345 C5346 1.373 . S
C5345 C5347 1.389 . S
C5346 H5319 0.950 . S
C5346 C5332 1.377 . S
C5346 C5345 1.373 . S
C5347 C5331 1.377 . S
C5347 C5345 1.389 . S
C5347 C5348 1.524 . S
C5348 C5347 1.524 . S
C5348 C5349 1.397 . S
C5348 C5353 1.363 . S
C5349 H5320 0.950 . S
C5349 C5348 1.397 . S
C5349 C5350 1.334 . S
C5350 H5321 0.950 . S
C5350 C5349 1.334 . S
C5350 C5351 1.287 . S
C5351 C5350 1.287 . S
C5351 C5352 1.524 . S
C5351 H5354 0.999 . S
C5352 H5322 0.950 . S
C5352 C5351 1.524 . S
C5352 C5353 1.415 . S
C5353 H5323 0.950 . S
C5353 C5348 1.363 . S
C5353 C5352 1.415 . S
H5354 C5351 0.999 . S
H5355 C5336 0.913 . S
H5356 C5374 0.951 . S
H5357 C5376 0.951 . S
H5358 C5378 0.950 . S
H5359 C5379 0.950 . S
H5360 C5381 0.950 . S
H5361 C5384 0.950 . S
H5362 C5385 0.950 . S
H5363 C5387 0.950 . S
H5364 C5388 0.950 . S
H5365 C5389 0.951 . S
H5366 C5391 0.951 . S
H5367 C5393 0.950 . S
H5368 C5394 0.950 . S
H5369 C5396 0.950 . S
H5370 C5399 0.910 1_455 S
H5371 C5400 0.950 . S
H5372 C5402 0.950 . S
H5373 C5403 0.950 . S
C5374 H5356 0.951 . S
C5374 C5375 1.366 . S
C5374 C5376 1.388 . S
C5375 C5374 1.366 . S
C5375 C5379 1.385 . S
C5376 H5357 0.951 . S
C5376 C5374 1.388 . S
C5376 C5377 1.366 . S
C5377 C5376 1.366 . S
C5377 C5378 1.414 . S
C5377 C5380 1.499 . S
C5378 H5358 0.950 . S
C5378 C5377 1.414 . S
C5378 C5379 1.374 . S
C5379 H5359 0.950 . S
C5379 C5375 1.385 . S
C5379 C5378 1.374 . S
C5380 C5377 1.499 . S
C5380 C5381 1.373 . S
C5380 C5382 1.389 . S
C5381 H5360 0.950 . S
C5381 C5380 1.373 . S
C5381 C5397 1.377 . S
C5382 C5380 1.389 . S
C5382 C5383 1.524 . S
C5382 C5396 1.377 . S
C5383 C5382 1.524 . S
C5383 C5384 1.397 . S
C5383 C5388 1.363 . S
C5384 H5361 0.950 . S
C5384 C5383 1.397 . S
C5384 C5385 1.334 . S
C5385 H5362 0.950 . S
C5385 C5384 1.334 . S
C5385 C5386 1.287 . S
C5386 C5385 1.287 . S
C5386 C5387 1.524 . S
C5386 H5405 0.913 . S
C5387 H5363 0.950 . S
C5387 C5386 1.524 . S
C5387 C5388 1.415 . S
C5388 H5364 0.950 . S
C5388 C5383 1.363 . S
C5388 C5387 1.415 . S
C5389 H5365 0.951 . S
C5389 C5390 1.366 . S
C5389 C5391 1.388 . S
C5390 C5389 1.366 . S
C5390 C5394 1.385 . S
C5391 H5366 0.951 . S
C5391 C5389 1.388 . S
C5391 C5392 1.366 . S
C5392 C5391 1.366 . S
C5392 C5393 1.414 . S
C5392 C5395 1.499 . S
C5393 H5367 0.950 . S
C5393 C5392 1.414 . S
C5393 C5394 1.374 . S
C5394 H5368 0.950 . S
C5394 C5390 1.385 . S
C5394 C5393 1.374 . S
C5395 C5392 1.499 . S
C5395 C5396 1.373 . S
C5395 C5397 1.389 . S
C5396 H5369 0.950 . S
C5396 C5382 1.377 . S
C5396 C5395 1.373 . S
C5397 C5381 1.377 . S
C5397 C5395 1.389 . S
C5397 C5398 1.524 1_455 S
C5398 C5397 1.524 1_655 S
C5398 C5399 1.397 . S
C5398 C5403 1.363 . S
C5399 H5370 0.910 1_655 S
C5399 C5398 1.397 . S
C5399 C5400 1.334 . S
C5400 H5371 0.950 . S
C5400 C5399 1.334 . S
C5400 C5401 1.287 . S
C5401 C5400 1.287 . S
C5401 C5402 1.524 . S
C5401 H5404 0.999 . S
C5402 H5372 0.950 . S
C5402 C5401 1.524 . S
C5402 C5403 1.415 . S
C5403 H5373 0.950 . S
C5403 C5398 1.363 . S
C5403 C5402 1.415 . S
H5404 C5401 0.999 . S
H5405 C5386 0.913 . S
H5406 C5424 0.951 . S
H5407 C5426 0.951 . S
H5408 C5428 0.950 . S
H5409 C5429 0.950 . S
H5410 C5431 0.950 . S
H5411 C5434 0.950 . S
H5412 C5435 0.950 . S
H5413 C5437 0.950 . S
H5414 C5438 0.950 . S
H5415 C5439 0.951 . S
H5416 C5441 0.951 . S
H5417 C5443 0.950 . S
H5418 C5444 0.950 . S
H5419 C5446 0.950 . S
H5420 C5449 0.950 . S
H5421 C5450 0.950 . S
H5422 C5452 0.950 . S
H5423 C5453 0.950 . S
C5424 H5406 0.951 . S
C5424 C5425 1.366 . S
C5424 C5426 1.388 . S
C5425 C5424 1.366 . S
C5425 C5429 1.385 . S
C5426 H5407 0.951 . S
C5426 C5424 1.388 . S
C5426 C5427 1.366 . S
C5427 C5426 1.366 . S
C5427 C5428 1.414 . S
C5427 C5430 1.499 . S
C5428 H5408 0.950 . S
C5428 C5427 1.414 . S
C5428 C5429 1.374 . S
C5429 H5409 0.950 . S
C5429 C5425 1.385 . S
C5429 C5428 1.374 . S
C5430 C5427 1.499 . S
C5430 C5431 1.373 . S
C5430 C5432 1.389 . S
C5431 H5410 0.950 . S
C5431 C5430 1.373 . S
C5431 C5447 1.377 . S
C5432 C5430 1.389 . S
C5432 C5433 1.524 . S
C5432 C5446 1.377 . S
C5433 C5432 1.524 . S
C5433 C5434 1.397 . S
C5433 C5438 1.363 . S
C5434 H5411 0.950 . S
C5434 C5433 1.397 . S
C5434 C5435 1.334 . S
C5435 H5412 0.950 . S
C5435 C5434 1.334 . S
C5435 C5436 1.287 . S
C5436 C5435 1.287 . S
C5436 C5437 1.524 . S
C5436 H5455 0.913 . S
C5437 H5413 0.950 . S
C5437 C5436 1.524 . S
C5437 C5438 1.415 . S
C5438 H5414 0.950 . S
C5438 C5433 1.363 . S
C5438 C5437 1.415 . S
C5439 H5415 0.951 . S
C5439 C5440 1.366 . S
C5439 C5441 1.388 . S
C5440 C5439 1.366 . S
C5440 C5444 1.385 . S
C5441 H5416 0.951 . S
C5441 C5439 1.388 . S
C5441 C5442 1.366 . S
C5442 C5441 1.366 . S
C5442 C5443 1.414 . S
C5442 C5445 1.499 . S
C5443 H5417 0.950 . S
C5443 C5442 1.414 . S
C5443 C5444 1.374 . S
C5444 H5418 0.950 . S
C5444 C5440 1.385 . S
C5444 C5443 1.374 . S
C5445 C5442 1.499 . S
C5445 C5446 1.373 . S
C5445 C5447 1.389 . S
C5446 H5419 0.950 . S
C5446 C5432 1.377 . S
C5446 C5445 1.373 . S
C5447 C5431 1.377 . S
C5447 C5445 1.389 . S
C5447 C5448 1.524 . S
C5448 C5447 1.524 . S
C5448 C5449 1.397 . S
C5448 C5453 1.363 . S
C5449 H5420 0.950 . S
C5449 C5448 1.397 . S
C5449 C5450 1.334 . S
C5450 H5421 0.950 . S
C5450 C5449 1.334 . S
C5450 C5451 1.287 . S
C5451 C5450 1.287 . S
C5451 C5452 1.524 . S
C5451 H5454 0.999 . S
C5452 H5422 0.950 . S
C5452 C5451 1.524 . S
C5452 C5453 1.415 . S
C5453 H5423 0.950 . S
C5453 C5448 1.363 . S
C5453 C5452 1.415 . S
H5454 C5451 0.999 . S
H5455 C5436 0.913 . S
H5456 C5474 0.951 . S
H5457 C5476 0.951 . S
H5458 C5478 0.950 . S
H5459 C5479 0.950 . S
H5460 C5481 0.950 . S
H5461 C5484 0.950 . S
H5462 C5485 0.950 . S
H5463 C5487 0.950 . S
H5464 C5488 0.950 . S
H5465 C5489 0.951 . S
H5466 C5491 0.951 . S
H5467 C5493 0.950 . S
H5468 C5494 0.950 . S
H5469 C5496 0.950 . S
H5470 C5499 0.950 . S
H5471 C5500 0.950 . S
H5472 C5502 0.950 . S
H5473 C5503 0.950 . S
C5474 H5456 0.951 . S
C5474 C5475 1.366 . S
C5474 C5476 1.388 . S
C5475 C5474 1.366 . S
C5475 C5479 1.385 . S
C5476 H5457 0.951 . S
C5476 C5474 1.388 . S
C5476 C5477 1.366 . S
C5477 C5476 1.366 . S
C5477 C5478 1.414 . S
C5477 C5480 1.499 . S
C5478 H5458 0.950 . S
C5478 C5477 1.414 . S
C5478 C5479 1.374 . S
C5479 H5459 0.950 . S
C5479 C5475 1.385 . S
C5479 C5478 1.374 . S
C5480 C5477 1.499 . S
C5480 C5481 1.373 . S
C5480 C5482 1.389 . S
C5481 H5460 0.950 . S
C5481 C5480 1.373 . S
C5481 C5497 1.377 . S
C5482 C5480 1.389 . S
C5482 C5483 1.524 . S
C5482 C5496 1.377 . S
C5483 C5482 1.524 . S
C5483 C5484 1.397 . S
C5483 C5488 1.363 . S
C5484 H5461 0.950 . S
C5484 C5483 1.397 . S
C5484 C5485 1.334 . S
C5485 H5462 0.950 . S
C5485 C5484 1.334 . S
C5485 C5486 1.287 . S
C5486 C5485 1.287 . S
C5486 C5487 1.524 . S
C5486 H5505 0.913 . S
C5487 H5463 0.950 . S
C5487 C5486 1.524 . S
C5487 C5488 1.415 . S
C5488 H5464 0.950 . S
C5488 C5483 1.363 . S
C5488 C5487 1.415 . S
C5489 H5465 0.951 . S
C5489 C5490 1.366 . S
C5489 C5491 1.388 . S
C5490 C5489 1.366 . S
C5490 C5494 1.385 . S
C5491 H5466 0.951 . S
C5491 C5489 1.388 . S
C5491 C5492 1.366 . S
C5492 C5491 1.366 . S
C5492 C5493 1.414 . S
C5492 C5495 1.499 . S
C5493 H5467 0.950 . S
C5493 C5492 1.414 . S
C5493 C5494 1.374 . S
C5494 H5468 0.950 . S
C5494 C5490 1.385 . S
C5494 C5493 1.374 . S
C5495 C5492 1.499 . S
C5495 C5496 1.373 . S
C5495 C5497 1.389 . S
C5496 H5469 0.950 . S
C5496 C5482 1.377 . S
C5496 C5495 1.373 . S
C5497 C5481 1.377 . S
C5497 C5495 1.389 . S
C5497 C5498 1.524 . S
C5498 C5497 1.524 . S
C5498 C5499 1.397 . S
C5498 C5503 1.363 . S
C5499 H5470 0.950 . S
C5499 C5498 1.397 . S
C5499 C5500 1.334 . S
C5500 H5471 0.950 . S
C5500 C5499 1.334 . S
C5500 C5501 1.287 . S
C5501 C5500 1.287 . S
C5501 C5502 1.524 . S
C5501 H5504 0.999 . S
C5502 H5472 0.950 . S
C5502 C5501 1.524 . S
C5502 C5503 1.415 . S
C5503 H5473 0.950 . S
C5503 C5498 1.363 . S
C5503 C5502 1.415 . S
H5504 C5501 0.999 . S
H5505 C5486 0.913 . S
H5506 C5524 0.951 . S
H5507 C5526 0.951 . S
H5508 C5528 0.950 . S
H5509 C5529 0.950 . S
H5510 C5531 0.950 . S
H5511 C5534 0.950 . S
H5512 C5535 0.950 . S
H5513 C5537 0.950 . S
H5514 C5538 0.950 . S
H5515 C5539 0.951 . S
H5516 C5541 0.951 . S
H5517 C5543 0.950 . S
H5518 C5544 0.950 . S
H5519 C5546 0.950 . S
H5520 C5549 0.950 . S
H5521 C5550 0.950 . S
H5522 C5552 0.950 . S
H5523 C5553 0.950 . S
C5524 H5506 0.951 . S
C5524 C5525 1.366 . S
C5524 C5526 1.388 . S
C5525 C5524 1.366 . S
C5525 C5529 1.385 . S
C5526 H5507 0.951 . S
C5526 C5524 1.388 . S
C5526 C5527 1.366 . S
C5527 C5526 1.366 . S
C5527 C5528 1.414 . S
C5527 C5530 1.499 . S
C5528 H5508 0.950 . S
C5528 C5527 1.414 . S
C5528 C5529 1.374 . S
C5529 H5509 0.950 . S
C5529 C5525 1.385 . S
C5529 C5528 1.374 . S
C5530 C5527 1.499 . S
C5530 C5531 1.373 . S
C5530 C5532 1.389 . S
C5531 H5510 0.950 . S
C5531 C5530 1.373 . S
C5531 C5547 1.377 . S
C5532 C5530 1.389 . S
C5532 C5533 1.524 . S
C5532 C5546 1.377 . S
C5533 C5532 1.524 . S
C5533 C5534 1.397 . S
C5533 C5538 1.363 . S
C5534 H5511 0.950 . S
C5534 C5533 1.397 . S
C5534 C5535 1.334 . S
C5535 H5512 0.950 . S
C5535 C5534 1.334 . S
C5535 C5536 1.287 . S
C5536 C5535 1.287 . S
C5536 C5537 1.524 . S
C5536 H5555 0.913 . S
C5537 H5513 0.950 . S
C5537 C5536 1.524 . S
C5537 C5538 1.415 . S
C5538 H5514 0.950 . S
C5538 C5533 1.363 . S
C5538 C5537 1.415 . S
C5539 H5515 0.951 . S
C5539 C5540 1.366 . S
C5539 C5541 1.388 . S
C5540 C5539 1.366 . S
C5540 C5544 1.385 . S
C5541 H5516 0.951 . S
C5541 C5539 1.388 . S
C5541 C5542 1.366 . S
C5542 C5541 1.366 . S
C5542 C5543 1.414 . S
C5542 C5545 1.499 . S
C5543 H5517 0.950 . S
C5543 C5542 1.414 . S
C5543 C5544 1.374 . S
C5544 H5518 0.950 . S
C5544 C5540 1.385 . S
C5544 C5543 1.374 . S
C5545 C5542 1.499 . S
C5545 C5546 1.373 . S
C5545 C5547 1.389 . S
C5546 H5519 0.950 . S
C5546 C5532 1.377 . S
C5546 C5545 1.373 . S
C5547 C5531 1.377 . S
C5547 C5545 1.389 . S
C5547 C5548 1.524 . S
C5548 C5547 1.524 . S
C5548 C5549 1.397 . S
C5548 C5553 1.363 . S
C5549 H5520 0.950 . S
C5549 C5548 1.397 . S
C5549 C5550 1.334 . S
C5550 H5521 0.950 . S
C5550 C5549 1.334 . S
C5550 C5551 1.287 . S
C5551 C5550 1.287 . S
C5551 C5552 1.524 . S
C5551 H5554 0.999 . S
C5552 H5522 0.950 . S
C5552 C5551 1.524 . S
C5552 C5553 1.415 . S
C5553 H5523 0.950 . S
C5553 C5548 1.363 . S
C5553 C5552 1.415 . S
H5554 C5551 0.999 . S
H5555 C5536 0.913 . S
H5556 C5574 0.951 . S
H5557 C5576 0.951 . S
H5558 C5578 0.950 . S
H5559 C5579 0.950 . S
H5560 C5581 0.950 . S
H5561 C5584 0.950 . S
H5562 C5585 0.964 . S
H5563 C5587 0.950 . S
H5564 C5588 0.950 . S
H5565 C5589 0.951 . S
H5566 C5591 0.951 . S
H5567 C5593 0.912 1_655 S
H5568 C5594 0.950 1_655 S
H5569 C5596 0.950 . S
H5570 C5599 0.950 . S
H5571 C5600 0.950 . S
H5572 C5602 0.950 . S
H5573 C5603 0.950 . S
C5574 H5556 0.951 . S
C5574 C5575 1.366 . S
C5574 C5576 1.388 . S
C5575 C5574 1.366 . S
C5575 C5579 1.385 . S
C5576 H5557 0.951 . S
C5576 C5574 1.388 . S
C5576 C5577 1.366 . S
C5577 C5576 1.366 . S
C5577 C5578 1.414 . S
C5577 C5580 1.499 . S
C5578 H5558 0.950 . S
C5578 C5577 1.414 . S
C5578 C5579 1.374 . S
C5579 H5559 0.950 . S
C5579 C5575 1.385 . S
C5579 C5578 1.374 . S
C5580 C5577 1.499 . S
C5580 C5581 1.373 . S
C5580 C5582 1.389 . S
C5581 H5560 0.950 . S
C5581 C5580 1.373 . S
C5581 C5597 1.377 . S
C5582 C5580 1.389 . S
C5582 C5583 1.566 . S
C5582 C5596 1.377 . S
C5583 C5582 1.566 . S
C5583 C5584 1.427 . S
C5583 C5588 1.295 1_455 S
C5584 H5561 0.950 . S
C5584 C5583 1.427 . S
C5584 C5585 1.334 1_455 S
C5585 H5562 0.964 . S
C5585 C5584 1.334 1_655 S
C5585 C5586 1.287 . S
C5586 C5585 1.287 . S
C5586 C5587 1.524 . S
C5586 H5605 0.913 . S
C5587 H5563 0.950 . S
C5587 C5586 1.524 . S
C5587 C5588 1.415 . S
C5588 H5564 0.950 . S
C5588 C5583 1.295 1_655 S
C5588 C5587 1.415 . S
C5589 H5565 0.951 . S
C5589 C5590 1.366 . S
C5589 C5591 1.388 . S
C5590 C5589 1.366 . S
C5590 C5594 1.385 . S
C5591 H5566 0.951 . S
C5591 C5589 1.388 . S
C5591 C5592 1.366 . S
C5592 C5591 1.366 . S
C5592 C5593 1.414 . S
C5592 C5595 1.499 . S
C5593 H5567 0.912 1_455 S
C5593 C5592 1.414 . S
C5593 C5594 1.374 . S
C5594 H5568 0.950 1_455 S
C5594 C5590 1.385 . S
C5594 C5593 1.374 . S
C5595 C5592 1.499 . S
C5595 C5596 1.373 . S
C5595 C5597 1.389 . S
C5596 H5569 0.950 . S
C5596 C5582 1.377 . S
C5596 C5595 1.373 . S
C5597 C5581 1.377 . S
C5597 C5595 1.389 . S
C5597 C5598 1.524 . S
C5598 C5597 1.524 . S
C5598 C5599 1.397 . S
C5598 C5603 1.363 . S
C5599 H5570 0.950 . S
C5599 C5598 1.397 . S
C5599 C5600 1.334 . S
C5600 H5571 0.950 . S
C5600 C5599 1.334 . S
C5600 C5601 1.287 . S
C5601 C5600 1.287 . S
C5601 C5602 1.524 . S
C5601 H5604 0.999 . S
C5602 H5572 0.950 . S
C5602 C5601 1.524 . S
C5602 C5603 1.415 . S
C5603 H5573 0.950 . S
C5603 C5598 1.363 . S
C5603 C5602 1.415 . S
H5604 C5601 0.999 . S
H5605 C5586 0.913 . S
H5606 C5624 0.951 . S
H5607 C5626 0.951 . S
H5608 C5628 0.950 . S
H5609 C5629 0.950 . S
H5610 C5631 0.950 . S
H5611 C5634 0.950 . S
H5612 C5635 0.950 . S
H5613 C5637 0.950 . S
H5614 C5638 0.950 . S
H5615 C5639 0.951 . S
H5616 C5641 0.951 . S
H5617 C5643 0.950 . S
H5618 C5644 0.950 . S
H5619 C5646 0.950 . S
H5620 C5649 0.950 . S
H5621 C5650 0.950 . S
H5622 C5652 0.950 . S
H5623 C5653 0.950 . S
C5624 H5606 0.951 . S
C5624 C5625 1.366 . S
C5624 C5626 1.388 . S
C5625 C5624 1.366 . S
C5625 C5629 1.385 . S
C5626 H5607 0.951 . S
C5626 C5624 1.388 . S
C5626 C5627 1.366 . S
C5627 C5626 1.366 . S
C5627 C5628 1.414 . S
C5627 C5630 1.499 . S
C5628 H5608 0.950 . S
C5628 C5627 1.414 . S
C5628 C5629 1.374 . S
C5629 H5609 0.950 . S
C5629 C5625 1.385 . S
C5629 C5628 1.374 . S
C5630 C5627 1.499 . S
C5630 C5631 1.373 . S
C5630 C5632 1.389 . S
C5631 H5610 0.950 . S
C5631 C5630 1.373 . S
C5631 C5647 1.377 . S
C5632 C5630 1.389 . S
C5632 C5633 1.524 . S
C5632 C5646 1.377 . S
C5633 C5632 1.524 . S
C5633 C5634 1.397 . S
C5633 C5638 1.363 . S
C5634 H5611 0.950 . S
C5634 C5633 1.397 . S
C5634 C5635 1.334 . S
C5635 H5612 0.950 . S
C5635 C5634 1.334 . S
C5635 C5636 1.287 . S
C5636 C5635 1.287 . S
C5636 C5637 1.524 . S
C5636 H5655 0.913 . S
C5637 H5613 0.950 . S
C5637 C5636 1.524 . S
C5637 C5638 1.415 . S
C5638 H5614 0.950 . S
C5638 C5633 1.363 . S
C5638 C5637 1.415 . S
C5639 H5615 0.951 . S
C5639 C5640 1.366 . S
C5639 C5641 1.388 . S
C5640 C5639 1.366 . S
C5640 C5644 1.385 . S
C5641 H5616 0.951 . S
C5641 C5639 1.388 . S
C5641 C5642 1.366 . S
C5642 C5641 1.366 . S
C5642 C5643 1.414 . S
C5642 C5645 1.499 . S
C5643 H5617 0.950 . S
C5643 C5642 1.414 . S
C5643 C5644 1.374 . S
C5644 H5618 0.950 . S
C5644 C5640 1.385 . S
C5644 C5643 1.374 . S
C5645 C5642 1.499 . S
C5645 C5646 1.373 . S
C5645 C5647 1.389 . S
C5646 H5619 0.950 . S
C5646 C5632 1.377 . S
C5646 C5645 1.373 . S
C5647 C5631 1.377 . S
C5647 C5645 1.389 . S
C5647 C5648 1.524 . S
C5648 C5647 1.524 . S
C5648 C5649 1.397 . S
C5648 C5653 1.363 . S
C5649 H5620 0.950 . S
C5649 C5648 1.397 . S
C5649 C5650 1.334 . S
C5650 H5621 0.950 . S
C5650 C5649 1.334 . S
C5650 C5651 1.287 . S
C5651 C5650 1.287 . S
C5651 C5652 1.524 . S
C5651 H5654 0.999 . S
C5652 H5622 0.950 . S
C5652 C5651 1.524 . S
C5652 C5653 1.415 . S
C5653 H5623 0.950 . S
C5653 C5648 1.363 . S
C5653 C5652 1.415 . S
H5654 C5651 0.999 . S
H5655 C5636 0.913 . S
H5656 C5674 0.951 . S
H5657 C5676 0.951 . S
H5658 C5678 0.950 . S
H5659 C5679 0.950 . S
H5660 C5681 0.950 . S
H5661 C5684 0.950 . S
H5662 C5685 0.950 . S
H5663 C5687 0.950 . S
H5664 C5688 0.950 . S
H5665 C5689 0.951 . S
H5666 C5691 0.951 . S
H5667 C5693 0.950 . S
H5668 C5694 0.950 . S
H5669 C5696 0.950 . S
H5670 C5699 0.950 . S
H5671 C5700 0.950 . S
H5672 C5702 0.950 . S
H5673 C5703 0.950 . S
C5674 H5656 0.951 . S
C5674 C5675 1.366 . S
C5674 C5676 1.388 . S
C5675 C5674 1.366 . S
C5675 C5679 1.385 . S
C5676 H5657 0.951 . S
C5676 C5674 1.388 . S
C5676 C5677 1.366 . S
C5677 C5676 1.366 . S
C5677 C5678 1.414 . S
C5677 C5680 1.499 . S
C5678 H5658 0.950 . S
C5678 C5677 1.414 . S
C5678 C5679 1.374 . S
C5679 H5659 0.950 . S
C5679 C5675 1.385 . S
C5679 C5678 1.374 . S
C5680 C5677 1.499 . S
C5680 C5681 1.373 . S
C5680 C5682 1.389 . S
C5681 H5660 0.950 . S
C5681 C5680 1.373 . S
C5681 C5697 1.377 . S
C5682 C5680 1.389 . S
C5682 C5683 1.524 . S
C5682 C5696 1.377 . S
C5683 C5682 1.524 . S
C5683 C5684 1.397 . S
C5683 C5688 1.363 . S
C5684 H5661 0.950 . S
C5684 C5683 1.397 . S
C5684 C5685 1.334 . S
C5685 H5662 0.950 . S
C5685 C5684 1.334 . S
C5685 C5686 1.287 . S
C5686 C5685 1.287 . S
C5686 C5687 1.524 . S
C5686 H5705 0.913 . S
C5687 H5663 0.950 . S
C5687 C5686 1.524 . S
C5687 C5688 1.415 . S
C5688 H5664 0.950 . S
C5688 C5683 1.363 . S
C5688 C5687 1.415 . S
C5689 H5665 0.951 . S
C5689 C5690 1.366 . S
C5689 C5691 1.388 . S
C5690 C5689 1.366 . S
C5690 C5694 1.385 . S
C5691 H5666 0.951 . S
C5691 C5689 1.388 . S
C5691 C5692 1.366 . S
C5692 C5691 1.366 . S
C5692 C5693 1.414 . S
C5692 C5695 1.499 . S
C5693 H5667 0.950 . S
C5693 C5692 1.414 . S
C5693 C5694 1.374 . S
C5694 H5668 0.950 . S
C5694 C5690 1.385 . S
C5694 C5693 1.374 . S
C5695 C5692 1.499 . S
C5695 C5696 1.373 . S
C5695 C5697 1.389 . S
C5696 H5669 0.950 . S
C5696 C5682 1.377 . S
C5696 C5695 1.373 . S
C5697 C5681 1.377 . S
C5697 C5695 1.389 . S
C5697 C5698 1.524 . S
C5698 C5697 1.524 . S
C5698 C5699 1.397 . S
C5698 C5703 1.363 . S
C5699 H5670 0.950 . S
C5699 C5698 1.397 . S
C5699 C5700 1.334 . S
C5700 H5671 0.950 . S
C5700 C5699 1.334 . S
C5700 C5701 1.287 . S
C5701 C5700 1.287 . S
C5701 C5702 1.524 . S
C5701 H5704 0.999 . S
C5702 H5672 0.950 . S
C5702 C5701 1.524 . S
C5702 C5703 1.415 . S
C5703 H5673 0.950 . S
C5703 C5698 1.363 . S
C5703 C5702 1.415 . S
H5704 C5701 0.999 . S
H5705 C5686 0.913 . S
H5706 C5724 0.951 . S
H5707 C5726 0.951 . S
H5708 C5728 0.950 . S
H5709 C5729 0.950 . S
H5710 C5731 0.950 . S
H5711 C5734 0.950 . S
H5712 C5735 0.950 . S
H5713 C5737 0.950 . S
H5714 C5738 0.950 . S
H5715 C5739 0.951 . S
H5716 C5741 0.951 . S
H5717 C5743 0.950 . S
H5718 C5744 0.950 . S
H5719 C5746 0.950 . S
H5720 C5749 0.950 . S
H5721 C5750 0.950 . S
H5722 C5752 0.950 . S
H5723 C5753 0.950 . S
C5724 H5706 0.951 . S
C5724 C5725 1.366 . S
C5724 C5726 1.388 . S
C5725 C5724 1.366 . S
C5725 C5729 1.385 . S
C5726 H5707 0.951 . S
C5726 C5724 1.388 . S
C5726 C5727 1.366 . S
C5727 C5726 1.366 . S
C5727 C5728 1.414 . S
C5727 C5730 1.499 . S
C5728 H5708 0.950 . S
C5728 C5727 1.414 . S
C5728 C5729 1.374 . S
C5729 H5709 0.950 . S
C5729 C5725 1.385 . S
C5729 C5728 1.374 . S
C5730 C5727 1.499 . S
C5730 C5731 1.373 . S
C5730 C5732 1.389 . S
C5731 H5710 0.950 . S
C5731 C5730 1.373 . S
C5731 C5747 1.377 . S
C5732 C5730 1.389 . S
C5732 C5733 1.524 . S
C5732 C5746 1.377 . S
C5733 C5732 1.524 . S
C5733 C5734 1.397 . S
C5733 C5738 1.363 . S
C5734 H5711 0.950 . S
C5734 C5733 1.397 . S
C5734 C5735 1.334 . S
C5735 H5712 0.950 . S
C5735 C5734 1.334 . S
C5735 C5736 1.287 . S
C5736 C5735 1.287 . S
C5736 C5737 1.524 . S
C5736 H5755 0.913 . S
C5737 H5713 0.950 . S
C5737 C5736 1.524 . S
C5737 C5738 1.415 . S
C5738 H5714 0.950 . S
C5738 C5733 1.363 . S
C5738 C5737 1.415 . S
C5739 H5715 0.951 . S
C5739 C5740 1.366 . S
C5739 C5741 1.388 . S
C5740 C5739 1.366 . S
C5740 C5744 1.385 . S
C5741 H5716 0.951 . S
C5741 C5739 1.388 . S
C5741 C5742 1.366 . S
C5742 C5741 1.366 . S
C5742 C5743 1.414 . S
C5742 C5745 1.499 . S
C5743 H5717 0.950 . S
C5743 C5742 1.414 . S
C5743 C5744 1.374 . S
C5744 H5718 0.950 . S
C5744 C5740 1.385 . S
C5744 C5743 1.374 . S
C5745 C5742 1.499 . S
C5745 C5746 1.373 . S
C5745 C5747 1.389 . S
C5746 H5719 0.950 . S
C5746 C5732 1.377 . S
C5746 C5745 1.373 . S
C5747 C5731 1.377 . S
C5747 C5745 1.389 . S
C5747 C5748 1.524 . S
C5748 C5747 1.524 . S
C5748 C5749 1.397 . S
C5748 C5753 1.363 . S
C5749 H5720 0.950 . S
C5749 C5748 1.397 . S
C5749 C5750 1.334 . S
C5750 H5721 0.950 . S
C5750 C5749 1.334 . S
C5750 C5751 1.287 . S
C5751 C5750 1.287 . S
C5751 C5752 1.524 . S
C5751 H5754 0.999 . S
C5752 H5722 0.950 . S
C5752 C5751 1.524 . S
C5752 C5753 1.415 . S
C5753 H5723 0.950 . S
C5753 C5748 1.363 . S
C5753 C5752 1.415 . S
H5754 C5751 0.999 . S
H5755 C5736 0.913 . S
H5756 C5774 0.951 . S
H5757 C5776 0.951 . S
H5758 C5778 0.950 . S
H5759 C5779 0.950 . S
H5760 C5781 0.950 . S
H5761 C5784 0.950 . S
H5762 C5785 0.950 . S
H5763 C5787 0.950 . S
H5764 C5788 0.950 . S
H5765 C5789 0.951 . S
H5766 C5791 0.951 . S
H5767 C5793 0.950 . S
H5768 C5794 0.950 1_455 S
H5769 C5796 0.950 . S
H5770 C5799 0.950 . S
H5771 C5800 0.950 . S
H5772 C5802 0.950 . S
H5773 C5803 0.950 . S
C5774 H5756 0.951 . S
C5774 C5775 1.366 . S
C5774 C5776 1.388 . S
C5775 C5774 1.366 . S
C5775 C5779 1.385 . S
C5776 H5757 0.951 . S
C5776 C5774 1.388 . S
C5776 C5777 1.366 . S
C5777 C5776 1.366 . S
C5777 C5778 1.414 . S
C5777 C5780 1.499 . S
C5778 H5758 0.950 . S
C5778 C5777 1.414 . S
C5778 C5779 1.374 . S
C5779 H5759 0.950 . S
C5779 C5775 1.385 . S
C5779 C5778 1.374 . S
C5780 C5777 1.499 . S
C5780 C5781 1.373 . S
C5780 C5782 1.389 . S
C5781 H5760 0.950 . S
C5781 C5780 1.373 . S
C5781 C5797 1.377 . S
C5782 C5780 1.389 . S
C5782 C5783 1.524 . S
C5782 C5796 1.377 . S
C5783 C5782 1.524 . S
C5783 C5784 1.397 . S
C5783 C5788 1.363 . S
C5784 H5761 0.950 . S
C5784 C5783 1.397 . S
C5784 C5785 1.334 . S
C5785 H5762 0.950 . S
C5785 C5784 1.334 . S
C5785 C5786 1.287 . S
C5786 C5785 1.287 . S
C5786 C5787 1.524 . S
C5786 H5805 0.913 . S
C5787 H5763 0.950 . S
C5787 C5786 1.524 . S
C5787 C5788 1.415 . S
C5788 H5764 0.950 . S
C5788 C5783 1.363 . S
C5788 C5787 1.415 . S
C5789 H5765 0.951 . S
C5789 C5790 1.366 . S
C5789 C5791 1.388 . S
C5790 C5789 1.366 . S
C5790 C5794 1.385 . S
C5791 H5766 0.951 . S
C5791 C5789 1.388 . S
C5791 C5792 1.366 . S
C5792 C5791 1.366 . S
C5792 C5793 1.414 . S
C5792 C5795 1.499 . S
C5793 H5767 0.950 . S
C5793 C5792 1.414 . S
C5793 C5794 1.374 . S
C5794 H5768 0.950 1_655 S
C5794 C5790 1.385 . S
C5794 C5793 1.374 . S
C5795 C5792 1.499 . S
C5795 C5796 1.373 . S
C5795 C5797 1.389 . S
C5796 H5769 0.950 . S
C5796 C5782 1.377 . S
C5796 C5795 1.373 . S
C5797 C5781 1.377 . S
C5797 C5795 1.389 . S
C5797 C5798 1.524 . S
C5798 C5797 1.524 . S
C5798 C5799 1.397 . S
C5798 C5803 1.363 . S
C5799 H5770 0.950 . S
C5799 C5798 1.397 . S
C5799 C5800 1.334 . S
C5800 H5771 0.950 . S
C5800 C5799 1.334 . S
C5800 C5801 1.287 . S
C5801 C5800 1.287 . S
C5801 C5802 1.524 . S
C5801 H5804 0.999 . S
C5802 H5772 0.950 . S
C5802 C5801 1.524 . S
C5802 C5803 1.415 . S
C5803 H5773 0.950 . S
C5803 C5798 1.363 . S
C5803 C5802 1.415 . S
H5804 C5801 0.999 . S
H5805 C5786 0.913 . S
H5806 C5824 0.951 . S
H5807 C5826 0.951 . S
H5808 C5828 0.950 . S
H5809 C5829 0.950 . S
H5810 C5831 0.950 . S
H5811 C5834 0.950 . S
H5812 C5835 0.950 . S
H5813 C5837 0.950 . S
H5814 C5838 0.950 . S
H5815 C5839 0.951 . S
H5816 C5841 0.951 . S
H5817 C5843 0.950 . S
H5818 C5844 0.950 . S
H5819 C5846 0.950 . S
H5820 C5849 0.950 . S
H5821 C5850 0.950 . S
H5822 C5852 0.950 . S
H5823 C5853 0.950 . S
C5824 H5806 0.951 . S
C5824 C5825 1.366 . S
C5824 C5826 1.388 . S
C5825 C5824 1.366 . S
C5825 C5829 1.385 . S
C5826 H5807 0.951 . S
C5826 C5824 1.388 . S
C5826 C5827 1.366 . S
C5827 C5826 1.366 . S
C5827 C5828 1.414 . S
C5827 C5830 1.499 . S
C5828 H5808 0.950 . S
C5828 C5827 1.414 . S
C5828 C5829 1.374 . S
C5829 H5809 0.950 . S
C5829 C5825 1.385 . S
C5829 C5828 1.374 . S
C5830 C5827 1.499 . S
C5830 C5831 1.373 . S
C5830 C5832 1.389 . S
C5831 H5810 0.950 . S
C5831 C5830 1.373 . S
C5831 C5847 1.377 . S
C5832 C5830 1.389 . S
C5832 C5833 1.524 . S
C5832 C5846 1.377 . S
C5833 C5832 1.524 . S
C5833 C5834 1.397 . S
C5833 C5838 1.363 . S
C5834 H5811 0.950 . S
C5834 C5833 1.397 . S
C5834 C5835 1.334 . S
C5835 H5812 0.950 . S
C5835 C5834 1.334 . S
C5835 C5836 1.287 . S
C5836 C5835 1.287 . S
C5836 C5837 1.524 . S
C5836 H5855 0.913 . S
C5837 H5813 0.950 . S
C5837 C5836 1.524 . S
C5837 C5838 1.415 . S
C5838 H5814 0.950 . S
C5838 C5833 1.363 . S
C5838 C5837 1.415 . S
C5839 H5815 0.951 . S
C5839 C5840 1.366 . S
C5839 C5841 1.388 . S
C5840 C5839 1.366 . S
C5840 C5844 1.385 . S
C5841 H5816 0.951 . S
C5841 C5839 1.388 . S
C5841 C5842 1.366 . S
C5842 C5841 1.366 . S
C5842 C5843 1.414 . S
C5842 C5845 1.499 . S
C5843 H5817 0.950 . S
C5843 C5842 1.414 . S
C5843 C5844 1.374 . S
C5844 H5818 0.950 . S
C5844 C5840 1.385 . S
C5844 C5843 1.374 . S
C5845 C5842 1.499 . S
C5845 C5846 1.373 . S
C5845 C5847 1.389 . S
C5846 H5819 0.950 . S
C5846 C5832 1.377 . S
C5846 C5845 1.373 . S
C5847 C5831 1.377 . S
C5847 C5845 1.389 . S
C5847 C5848 1.524 . S
C5848 C5847 1.524 . S
C5848 C5849 1.397 . S
C5848 C5853 1.363 . S
C5849 H5820 0.950 . S
C5849 C5848 1.397 . S
C5849 C5850 1.334 . S
C5850 H5821 0.950 . S
C5850 C5849 1.334 . S
C5850 C5851 1.287 . S
C5851 C5850 1.287 . S
C5851 C5852 1.524 . S
C5851 H5854 0.999 . S
C5852 H5822 0.950 . S
C5852 C5851 1.524 . S
C5852 C5853 1.415 . S
C5853 H5823 0.950 . S
C5853 C5848 1.363 . S
C5853 C5852 1.415 . S
H5854 C5851 0.999 . S
H5855 C5836 0.913 . S
H5856 C5874 0.951 . S
H5857 C5876 0.951 . S
H5858 C5878 0.950 . S
H5859 C5879 0.950 . S
H5860 C5881 0.950 . S
H5861 C5884 0.950 . S
H5862 C5885 0.950 . S
H5863 C5887 0.950 . S
H5864 C5888 0.950 . S
H5865 C5889 0.951 . S
H5866 C5891 0.951 . S
H5867 C5893 0.950 . S
H5868 C5894 0.950 . S
H5869 C5896 0.950 . S
H5870 C5899 0.950 . S
H5871 C5900 0.950 . S
H5872 C5902 0.950 . S
H5873 C5903 0.950 . S
C5874 H5856 0.951 . S
C5874 C5875 1.366 . S
C5874 C5876 1.388 . S
C5875 C5874 1.366 . S
C5875 C5879 1.385 . S
C5876 H5857 0.951 . S
C5876 C5874 1.388 . S
C5876 C5877 1.366 . S
C5877 C5876 1.366 . S
C5877 C5878 1.414 . S
C5877 C5880 1.499 . S
C5878 H5858 0.950 . S
C5878 C5877 1.414 . S
C5878 C5879 1.374 . S
C5879 H5859 0.950 . S
C5879 C5875 1.385 . S
C5879 C5878 1.374 . S
C5880 C5877 1.499 . S
C5880 C5881 1.373 . S
C5880 C5882 1.389 . S
C5881 H5860 0.950 . S
C5881 C5880 1.373 . S
C5881 C5897 1.377 . S
C5882 C5880 1.389 . S
C5882 C5883 1.524 . S
C5882 C5896 1.377 . S
C5883 C5882 1.524 . S
C5883 C5884 1.397 . S
C5883 C5888 1.363 . S
C5884 H5861 0.950 . S
C5884 C5883 1.397 . S
C5884 C5885 1.334 . S
C5885 H5862 0.950 . S
C5885 C5884 1.334 . S
C5885 C5886 1.287 . S
C5886 C5885 1.287 . S
C5886 C5887 1.524 . S
C5886 H5905 0.913 . S
C5887 H5863 0.950 . S
C5887 C5886 1.524 . S
C5887 C5888 1.415 . S
C5888 H5864 0.950 . S
C5888 C5883 1.363 . S
C5888 C5887 1.415 . S
C5889 H5865 0.951 . S
C5889 C5890 1.366 . S
C5889 C5891 1.388 . S
C5890 C5889 1.366 . S
C5890 C5894 1.385 . S
C5891 H5866 0.951 . S
C5891 C5889 1.388 . S
C5891 C5892 1.366 . S
C5892 C5891 1.366 . S
C5892 C5893 1.414 . S
C5892 C5895 1.499 . S
C5893 H5867 0.950 . S
C5893 C5892 1.414 . S
C5893 C5894 1.374 . S
C5894 H5868 0.950 . S
C5894 C5890 1.385 . S
C5894 C5893 1.374 . S
C5895 C5892 1.499 . S
C5895 C5896 1.373 . S
C5895 C5897 1.389 . S
C5896 H5869 0.950 . S
C5896 C5882 1.377 . S
C5896 C5895 1.373 . S
C5897 C5881 1.377 . S
C5897 C5895 1.389 . S
C5897 C5898 1.524 . S
C5898 C5897 1.524 . S
C5898 C5899 1.397 . S
C5898 C5903 1.363 . S
C5899 H5870 0.950 . S
C5899 C5898 1.397 . S
C5899 C5900 1.334 . S
C5900 H5871 0.950 . S
C5900 C5899 1.334 . S
C5900 C5901 1.287 . S
C5901 C5900 1.287 . S
C5901 C5902 1.524 . S
C5901 H5904 0.999 . S
C5902 H5872 0.950 . S
C5902 C5901 1.524 . S
C5902 C5903 1.415 . S
C5903 H5873 0.950 . S
C5903 C5898 1.363 . S
C5903 C5902 1.415 . S
H5904 C5901 0.999 . S
H5905 C5886 0.913 . S
H5906 C5924 0.951 . S
H5907 C5926 0.951 . S
H5908 C5928 0.950 . S
H5909 C5929 0.950 . S
H5910 C5931 0.950 . S
H5911 C5934 0.950 . S
H5912 C5935 0.950 . S
H5913 C5937 0.950 . S
H5914 C5938 0.950 . S
H5915 C5939 0.951 . S
H5916 C5941 0.951 . S
H5917 C5943 0.950 . S
H5918 C5944 0.950 . S
H5919 C5946 0.950 . S
H5920 C5949 0.950 . S
H5921 C5950 0.950 . S
H5922 C5952 0.950 . S
H5923 C5953 0.950 . S
C5924 H5906 0.951 . S
C5924 C5925 1.366 . S
C5924 C5926 1.388 . S
C5925 C5924 1.366 . S
C5925 C5929 1.385 . S
C5926 H5907 0.951 . S
C5926 C5924 1.388 . S
C5926 C5927 1.366 . S
C5927 C5926 1.366 . S
C5927 C5928 1.414 . S
C5927 C5930 1.499 . S
C5928 H5908 0.950 . S
C5928 C5927 1.414 . S
C5928 C5929 1.374 . S
C5929 H5909 0.950 . S
C5929 C5925 1.385 . S
C5929 C5928 1.374 . S
C5930 C5927 1.499 . S
C5930 C5931 1.373 . S
C5930 C5932 1.389 . S
C5931 H5910 0.950 . S
C5931 C5930 1.373 . S
C5931 C5947 1.377 . S
C5932 C5930 1.389 . S
C5932 C5933 1.524 . S
C5932 C5946 1.377 . S
C5933 C5932 1.524 . S
C5933 C5934 1.397 . S
C5933 C5938 1.363 . S
C5934 H5911 0.950 . S
C5934 C5933 1.397 . S
C5934 C5935 1.334 . S
C5935 H5912 0.950 . S
C5935 C5934 1.334 . S
C5935 C5936 1.287 . S
C5936 C5935 1.287 . S
C5936 C5937 1.524 . S
C5936 H5955 0.913 . S
C5937 H5913 0.950 . S
C5937 C5936 1.524 . S
C5937 C5938 1.415 . S
C5938 H5914 0.950 . S
C5938 C5933 1.363 . S
C5938 C5937 1.415 . S
C5939 H5915 0.951 . S
C5939 C5940 1.366 . S
C5939 C5941 1.388 . S
C5940 C5939 1.366 . S
C5940 C5944 1.385 . S
C5941 H5916 0.951 . S
C5941 C5939 1.388 . S
C5941 C5942 1.366 . S
C5942 C5941 1.366 . S
C5942 C5943 1.414 . S
C5942 C5945 1.499 . S
C5943 H5917 0.950 . S
C5943 C5942 1.414 . S
C5943 C5944 1.374 . S
C5944 H5918 0.950 . S
C5944 C5940 1.385 . S
C5944 C5943 1.374 . S
C5945 C5942 1.499 . S
C5945 C5946 1.373 . S
C5945 C5947 1.389 . S
C5946 H5919 0.950 . S
C5946 C5932 1.377 . S
C5946 C5945 1.373 . S
C5947 C5931 1.377 . S
C5947 C5945 1.389 . S
C5947 C5948 1.524 . S
C5948 C5947 1.524 . S
C5948 C5949 1.397 . S
C5948 C5953 1.363 . S
C5949 H5920 0.950 . S
C5949 C5948 1.397 . S
C5949 C5950 1.334 . S
C5950 H5921 0.950 . S
C5950 C5949 1.334 . S
C5950 C5951 1.287 . S
C5951 C5950 1.287 . S
C5951 C5952 1.524 . S
C5951 H5954 0.999 . S
C5952 H5922 0.950 . S
C5952 C5951 1.524 . S
C5952 C5953 1.415 . S
C5953 H5923 0.950 . S
C5953 C5948 1.363 . S
C5953 C5952 1.415 . S
H5954 C5951 0.999 . S
H5955 C5936 0.913 . S
H5956 C5974 0.951 . S
H5957 C5976 0.951 . S
H5958 C5978 0.950 . S
H5959 C5979 0.950 . S
H5960 C5981 0.950 . S
H5961 C5984 0.950 . S
H5962 C5985 0.950 . S
H5963 C5987 0.950 . S
H5964 C5988 0.950 . S
H5965 C5989 0.951 . S
H5966 C5991 0.951 . S
H5967 C5993 0.950 . S
H5968 C5994 0.950 . S
H5969 C5996 0.950 . S
H5970 C5999 0.950 . S
H5971 C6000 0.950 . S
H5972 C6002 0.950 . S
H5973 C6003 0.950 . S
C5974 H5956 0.951 . S
C5974 C5975 1.366 . S
C5974 C5976 1.388 . S
C5975 C5974 1.366 . S
C5975 C5979 1.385 . S
C5976 H5957 0.951 . S
C5976 C5974 1.388 . S
C5976 C5977 1.366 . S
C5977 C5976 1.366 . S
C5977 C5978 1.414 . S
C5977 C5980 1.499 . S
C5978 H5958 0.950 . S
C5978 C5977 1.414 . S
C5978 C5979 1.374 . S
C5979 H5959 0.950 . S
C5979 C5975 1.385 . S
C5979 C5978 1.374 . S
C5980 C5977 1.499 . S
C5980 C5981 1.373 . S
C5980 C5982 1.389 . S
C5981 H5960 0.950 . S
C5981 C5980 1.373 . S
C5981 C5997 1.377 . S
C5982 C5980 1.389 . S
C5982 C5983 1.524 . S
C5982 C5996 1.377 . S
C5983 C5982 1.524 . S
C5983 C5984 1.397 . S
C5983 C5988 1.363 . S
C5984 H5961 0.950 . S
C5984 C5983 1.397 . S
C5984 C5985 1.334 . S
C5985 H5962 0.950 . S
C5985 C5984 1.334 . S
C5985 C5986 1.287 . S
C5986 C5985 1.287 . S
C5986 C5987 1.524 . S
C5986 H6005 0.913 . S
C5987 H5963 0.950 . S
C5987 C5986 1.524 . S
C5987 C5988 1.415 . S
C5988 H5964 0.950 . S
C5988 C5983 1.363 . S
C5988 C5987 1.415 . S
C5989 H5965 0.951 . S
C5989 C5990 1.366 . S
C5989 C5991 1.388 . S
C5990 C5989 1.366 . S
C5990 C5994 1.385 . S
C5991 H5966 0.951 . S
C5991 C5989 1.388 . S
C5991 C5992 1.366 . S
C5992 C5991 1.366 . S
C5992 C5993 1.414 . S
C5992 C5995 1.499 . S
C5993 H5967 0.950 . S
C5993 C5992 1.414 . S
C5993 C5994 1.374 . S
C5994 H5968 0.950 . S
C5994 C5990 1.385 . S
C5994 C5993 1.374 . S
C5995 C5992 1.499 . S
C5995 C5996 1.373 . S
C5995 C5997 1.389 . S
C5996 H5969 0.950 . S
C5996 C5982 1.377 . S
C5996 C5995 1.373 . S
C5997 C5981 1.377 . S
C5997 C5995 1.389 . S
C5997 C5998 1.524 . S
C5998 C5997 1.524 . S
C5998 C5999 1.397 . S
C5998 C6003 1.363 . S
C5999 H5970 0.950 . S
C5999 C5998 1.397 . S
C5999 C6000 1.334 . S
C6000 H5971 0.950 . S
C6000 C5999 1.334 . S
C6000 C6001 1.287 . S
C6001 C6000 1.287 . S
C6001 C6002 1.524 . S
C6001 H6004 0.999 . S
C6002 H5972 0.950 . S
C6002 C6001 1.524 . S
C6002 C6003 1.415 . S
C6003 H5973 0.950 . S
C6003 C5998 1.363 . S
C6003 C6002 1.415 . S
H6004 C6001 0.999 . S
H6005 C5986 0.913 . S
H6006 C6024 0.951 . S
H6007 C6026 0.951 . S
H6008 C6028 0.950 . S
H6009 C6029 0.950 . S
H6010 C6031 0.950 . S
H6011 C6034 0.950 . S
H6012 C6035 0.950 . S
H6013 C6037 0.950 . S
H6014 C6038 0.950 . S
H6015 C6039 0.951 . S
H6016 C6041 0.951 . S
H6017 C6043 0.950 . S
H6018 C6044 0.950 . S
H6019 C6046 0.950 . S
H6020 C6049 0.950 . S
H6021 C6050 0.950 . S
H6022 C6052 0.950 . S
H6023 C6053 0.950 . S
C6024 H6006 0.951 . S
C6024 C6025 1.366 . S
C6024 C6026 1.388 . S
C6025 C6024 1.366 . S
C6025 C6029 1.385 . S
C6026 H6007 0.951 . S
C6026 C6024 1.388 . S
C6026 C6027 1.366 . S
C6027 C6026 1.366 . S
C6027 C6028 1.414 . S
C6027 C6030 1.499 . S
C6028 H6008 0.950 . S
C6028 C6027 1.414 . S
C6028 C6029 1.374 . S
C6029 H6009 0.950 . S
C6029 C6025 1.385 . S
C6029 C6028 1.374 . S
C6030 C6027 1.499 . S
C6030 C6031 1.373 . S
C6030 C6032 1.389 . S
C6031 H6010 0.950 . S
C6031 C6030 1.373 . S
C6031 C6047 1.377 . S
C6032 C6030 1.389 . S
C6032 C6033 1.524 . S
C6032 C6046 1.377 . S
C6033 C6032 1.524 . S
C6033 C6034 1.397 . S
C6033 C6038 1.363 . S
C6034 H6011 0.950 . S
C6034 C6033 1.397 . S
C6034 C6035 1.334 . S
C6035 H6012 0.950 . S
C6035 C6034 1.334 . S
C6035 C6036 1.287 . S
C6036 C6035 1.287 . S
C6036 C6037 1.524 . S
C6036 H6055 0.913 . S
C6037 H6013 0.950 . S
C6037 C6036 1.524 . S
C6037 C6038 1.415 . S
C6038 H6014 0.950 . S
C6038 C6033 1.363 . S
C6038 C6037 1.415 . S
C6039 H6015 0.951 . S
C6039 C6040 1.366 . S
C6039 C6041 1.388 . S
C6040 C6039 1.366 . S
C6040 C6044 1.385 . S
C6041 H6016 0.951 . S
C6041 C6039 1.388 . S
C6041 C6042 1.366 . S
C6042 C6041 1.366 . S
C6042 C6043 1.414 . S
C6042 C6045 1.499 . S
C6043 H6017 0.950 . S
C6043 C6042 1.414 . S
C6043 C6044 1.374 . S
C6044 H6018 0.950 . S
C6044 C6040 1.385 . S
C6044 C6043 1.374 . S
C6045 C6042 1.499 . S
C6045 C6046 1.373 . S
C6045 C6047 1.389 . S
C6046 H6019 0.950 . S
C6046 C6032 1.377 . S
C6046 C6045 1.373 . S
C6047 C6031 1.377 . S
C6047 C6045 1.389 . S
C6047 C6048 1.524 . S
C6048 C6047 1.524 . S
C6048 C6049 1.397 . S
C6048 C6053 1.363 . S
C6049 H6020 0.950 . S
C6049 C6048 1.397 . S
C6049 C6050 1.334 . S
C6050 H6021 0.950 . S
C6050 C6049 1.334 . S
C6050 C6051 1.287 . S
C6051 C6050 1.287 . S
C6051 C6052 1.524 . S
C6051 H6054 0.999 . S
C6052 H6022 0.950 . S
C6052 C6051 1.524 . S
C6052 C6053 1.415 . S
C6053 H6023 0.950 . S
C6053 C6048 1.363 . S
C6053 C6052 1.415 . S
H6054 C6051 0.999 . S
H6055 C6036 0.913 . S
H6056 C6074 0.951 . S
H6057 C6076 0.951 . S
H6058 C6078 0.950 . S
H6059 C6079 0.950 . S
H6060 C6081 0.950 . S
H6061 C6084 0.950 . S
H6062 C6085 0.950 . S
H6063 C6087 0.950 . S
H6064 C6088 0.950 . S
H6065 C6089 0.951 . S
H6066 C6091 0.951 . S
H6067 C6093 0.950 . S
H6068 C6094 0.950 . S
H6069 C6096 0.950 . S
H6070 C6099 0.950 . S
H6071 C6100 0.950 . S
H6072 C6102 0.950 . S
H6073 C6103 0.950 . S
C6074 H6056 0.951 . S
C6074 C6075 1.366 . S
C6074 C6076 1.388 . S
C6075 C6074 1.366 . S
C6075 C6079 1.385 . S
C6076 H6057 0.951 . S
C6076 C6074 1.388 . S
C6076 C6077 1.366 . S
C6077 C6076 1.366 . S
C6077 C6078 1.414 . S
C6077 C6080 1.499 . S
C6078 H6058 0.950 . S
C6078 C6077 1.414 . S
C6078 C6079 1.374 . S
C6079 H6059 0.950 . S
C6079 C6075 1.385 . S
C6079 C6078 1.374 . S
C6080 C6077 1.499 . S
C6080 C6081 1.373 . S
C6080 C6082 1.389 . S
C6081 H6060 0.950 . S
C6081 C6080 1.373 . S
C6081 C6097 1.377 . S
C6082 C6080 1.389 . S
C6082 C6083 1.524 . S
C6082 C6096 1.377 . S
C6083 C6082 1.524 . S
C6083 C6084 1.397 . S
C6083 C6088 1.363 . S
C6084 H6061 0.950 . S
C6084 C6083 1.397 . S
C6084 C6085 1.334 . S
C6085 H6062 0.950 . S
C6085 C6084 1.334 . S
C6085 C6086 1.287 . S
C6086 C6085 1.287 . S
C6086 C6087 1.524 . S
C6086 H6105 0.913 . S
C6087 H6063 0.950 . S
C6087 C6086 1.524 . S
C6087 C6088 1.415 . S
C6088 H6064 0.950 . S
C6088 C6083 1.363 . S
C6088 C6087 1.415 . S
C6089 H6065 0.951 . S
C6089 C6090 1.366 . S
C6089 C6091 1.388 . S
C6090 C6089 1.366 . S
C6090 C6094 1.385 . S
C6091 H6066 0.951 . S
C6091 C6089 1.388 . S
C6091 C6092 1.366 . S
C6092 C6091 1.366 . S
C6092 C6093 1.414 . S
C6092 C6095 1.499 . S
C6093 H6067 0.950 . S
C6093 C6092 1.414 . S
C6093 C6094 1.374 . S
C6094 H6068 0.950 . S
C6094 C6090 1.385 . S
C6094 C6093 1.374 . S
C6095 C6092 1.499 . S
C6095 C6096 1.373 . S
C6095 C6097 1.389 . S
C6096 H6069 0.950 . S
C6096 C6082 1.377 . S
C6096 C6095 1.373 . S
C6097 C6081 1.377 . S
C6097 C6095 1.389 . S
C6097 C6098 1.524 . S
C6098 C6097 1.524 . S
C6098 C6099 1.397 . S
C6098 C6103 1.363 . S
C6099 H6070 0.950 . S
C6099 C6098 1.397 . S
C6099 C6100 1.334 . S
C6100 H6071 0.950 . S
C6100 C6099 1.334 . S
C6100 C6101 1.287 . S
C6101 C6100 1.287 . S
C6101 C6102 1.524 . S
C6101 H6104 0.999 . S
C6102 H6072 0.950 . S
C6102 C6101 1.524 . S
C6102 C6103 1.415 . S
C6103 H6073 0.950 . S
C6103 C6098 1.363 . S
C6103 C6102 1.415 . S
H6104 C6101 0.999 . S
H6105 C6086 0.913 . S
H6106 C6124 0.951 . S
H6107 C6126 0.951 . S
H6108 C6128 0.950 . S
H6109 C6129 0.950 . S
H6110 C6131 0.950 . S
H6111 C6134 0.950 . S
H6112 C6135 0.950 . S
H6113 C6137 0.950 . S
H6114 C6138 0.950 . S
H6115 C6139 0.951 . S
H6116 C6141 0.951 . S
H6117 C6143 0.950 . S
H6118 C6144 0.998 . S
H6119 C6146 0.950 . S
H6120 C6149 0.950 . S
H6121 C6150 0.989 . S
H6122 C6152 0.950 . S
H6123 C6153 0.950 . S
C6124 H6106 0.951 . S
C6124 C6125 1.366 . S
C6124 C6126 1.388 . S
C6125 C6124 1.366 . S
C6125 C6129 1.385 . S
C6126 H6107 0.951 . S
C6126 C6124 1.388 . S
C6126 C6127 1.366 . S
C6127 C6126 1.366 . S
C6127 C6128 1.414 . S
C6127 C6130 1.499 . S
C6128 H6108 0.950 . S
C6128 C6127 1.414 . S
C6128 C6129 1.374 . S
C6129 H6109 0.950 . S
C6129 C6125 1.385 . S
C6129 C6128 1.374 . S
C6130 C6127 1.499 . S
C6130 C6131 1.373 . S
C6130 C6132 1.389 . S
C6131 H6110 0.950 . S
C6131 C6130 1.373 . S
C6131 C6147 1.377 . S
C6132 C6130 1.389 . S
C6132 C6133 1.524 . S
C6132 C6146 1.377 . S
C6133 C6132 1.524 . S
C6133 C6134 1.397 . S
C6133 C6138 1.363 . S
C6134 H6111 0.950 . S
C6134 C6133 1.397 . S
C6134 C6135 1.334 . S
C6135 H6112 0.950 . S
C6135 C6134 1.334 . S
C6135 C6136 1.287 . S
C6136 C6135 1.287 . S
C6136 C6137 1.524 . S
C6136 H6155 0.913 . S
C6137 H6113 0.950 . S
C6137 C6136 1.524 . S
C6137 C6138 1.415 . S
C6138 H6114 0.950 . S
C6138 C6133 1.363 . S
C6138 C6137 1.415 . S
C6139 H6115 0.951 . S
C6139 C6140 1.366 . S
C6139 C6141 1.388 . S
C6140 C6139 1.366 . S
C6140 C6144 1.385 . S
C6141 H6116 0.951 . S
C6141 C6139 1.388 . S
C6141 C6142 1.366 . S
C6142 C6141 1.366 . S
C6142 C6143 1.414 . S
C6142 C6145 1.499 . S
C6143 H6117 0.950 . S
C6143 C6142 1.414 . S
C6143 C6144 1.374 . S
C6144 H6118 0.998 . S
C6144 C6140 1.385 . S
C6144 C6143 1.374 . S
C6145 C6142 1.499 . S
C6145 C6146 1.373 . S
C6145 C6147 1.389 . S
C6146 H6119 0.950 . S
C6146 C6132 1.377 . S
C6146 C6145 1.373 . S
C6147 C6131 1.377 . S
C6147 C6145 1.389 . S
C6147 C6148 1.524 . S
C6148 C6147 1.524 . S
C6148 C6149 1.397 . S
C6148 C6153 1.363 . S
C6149 H6120 0.950 . S
C6149 C6148 1.397 . S
C6149 C6150 1.315 1_565 S
C6150 H6121 0.989 . S
C6150 C6149 1.315 1_545 S
C6150 C6151 1.267 1_545 S
C6151 C6150 1.267 1_565 S
C6151 C6152 1.524 . S
C6151 H6154 0.999 1_565 S
C6152 H6122 0.950 . S
C6152 C6151 1.524 . S
C6152 C6153 1.415 . S
C6153 H6123 0.950 . S
C6153 C6148 1.363 . S
C6153 C6152 1.415 . S
H6154 C6151 0.999 1_545 S
H6155 C6136 0.913 . S
H6156 C6174 0.951 . S
H6157 C6176 0.951 . S
H6158 C6178 0.950 . S
H6159 C6179 0.950 . S
H6160 C6181 0.950 . S
H6161 C6184 0.950 . S
H6162 C6185 0.950 . S
H6163 C6187 0.950 . S
H6164 C6188 0.950 . S
H6165 C6189 0.951 . S
H6166 C6191 0.951 . S
H6167 C6193 0.950 . S
H6168 C6194 0.950 . S
H6169 C6196 0.950 . S
H6170 C6199 0.950 . S
H6171 C6200 0.950 . S
H6172 C6202 0.950 . S
H6173 C6203 0.950 . S
C6174 H6156 0.951 . S
C6174 C6175 1.366 . S
C6174 C6176 1.388 . S
C6175 C6174 1.366 . S
C6175 C6179 1.385 . S
C6176 H6157 0.951 . S
C6176 C6174 1.388 . S
C6176 C6177 1.366 . S
C6177 C6176 1.366 . S
C6177 C6178 1.414 . S
C6177 C6180 1.499 . S
C6178 H6158 0.950 . S
C6178 C6177 1.414 . S
C6178 C6179 1.374 . S
C6179 H6159 0.950 . S
C6179 C6175 1.385 . S
C6179 C6178 1.374 . S
C6180 C6177 1.499 . S
C6180 C6181 1.373 . S
C6180 C6182 1.389 . S
C6181 H6160 0.950 . S
C6181 C6180 1.373 . S
C6181 C6197 1.377 . S
C6182 C6180 1.389 . S
C6182 C6183 1.524 . S
C6182 C6196 1.377 . S
C6183 C6182 1.524 . S
C6183 C6184 1.397 . S
C6183 C6188 1.363 . S
C6184 H6161 0.950 . S
C6184 C6183 1.397 . S
C6184 C6185 1.334 . S
C6185 H6162 0.950 . S
C6185 C6184 1.334 . S
C6185 C6186 1.287 . S
C6186 C6185 1.287 . S
C6186 C6187 1.524 . S
C6186 H6205 0.913 . S
C6187 H6163 0.950 . S
C6187 C6186 1.524 . S
C6187 C6188 1.415 . S
C6188 H6164 0.950 . S
C6188 C6183 1.363 . S
C6188 C6187 1.415 . S
C6189 H6165 0.951 . S
C6189 C6190 1.366 . S
C6189 C6191 1.388 . S
C6190 C6189 1.366 . S
C6190 C6194 1.385 . S
C6191 H6166 0.951 . S
C6191 C6189 1.388 . S
C6191 C6192 1.366 . S
C6192 C6191 1.366 . S
C6192 C6193 1.414 . S
C6192 C6195 1.499 . S
C6193 H6167 0.950 . S
C6193 C6192 1.414 . S
C6193 C6194 1.374 . S
C6194 H6168 0.950 . S
C6194 C6190 1.385 . S
C6194 C6193 1.374 . S
C6195 C6192 1.499 . S
C6195 C6196 1.373 . S
C6195 C6197 1.389 . S
C6196 H6169 0.950 . S
C6196 C6182 1.377 . S
C6196 C6195 1.373 . S
C6197 C6181 1.377 . S
C6197 C6195 1.389 . S
C6197 C6198 1.524 . S
C6198 C6197 1.524 . S
C6198 C6199 1.397 . S
C6198 C6203 1.363 . S
C6199 H6170 0.950 . S
C6199 C6198 1.397 . S
C6199 C6200 1.334 . S
C6200 H6171 0.950 . S
C6200 C6199 1.334 . S
C6200 C6201 1.287 . S
C6201 C6200 1.287 . S
C6201 C6202 1.524 . S
C6201 H6204 0.999 . S
C6202 H6172 0.950 . S
C6202 C6201 1.524 . S
C6202 C6203 1.415 . S
C6203 H6173 0.950 . S
C6203 C6198 1.363 . S
C6203 C6202 1.415 . S
H6204 C6201 0.999 . S
H6205 C6186 0.913 . S
H6206 C6224 0.951 . S
H6207 C6226 0.951 . S
H6208 C6228 0.950 . S
H6209 C6229 0.950 . S
H6210 C6231 0.950 . S
H6211 C6234 0.950 . S
H6212 C6235 0.950 . S
H6213 C6237 0.950 . S
H6214 C6238 0.950 . S
H6215 C6239 0.951 . S
H6216 C6241 0.951 . S
H6217 C6243 0.950 . S
H6218 C6244 0.950 . S
H6219 C6246 0.950 1_556 S
H6220 C6249 0.950 . S
H6221 C6250 0.950 . S
H6222 C6252 0.950 . S
H6223 C6253 0.950 . S
C6224 H6206 0.951 . S
C6224 C6225 1.366 . S
C6224 C6226 1.388 . S
C6225 C6224 1.366 . S
C6225 C6229 1.385 . S
C6226 H6207 0.951 . S
C6226 C6224 1.388 . S
C6226 C6227 1.366 . S
C6227 C6226 1.366 . S
C6227 C6228 1.414 . S
C6227 C6230 1.499 . S
C6228 H6208 0.950 . S
C6228 C6227 1.414 . S
C6228 C6229 1.374 . S
C6229 H6209 0.950 . S
C6229 C6225 1.385 . S
C6229 C6228 1.374 . S
C6230 C6227 1.499 . S
C6230 C6231 1.373 . S
C6230 C6232 1.389 . S
C6231 H6210 0.950 . S
C6231 C6230 1.373 . S
C6231 C6247 1.377 . S
C6232 C6230 1.389 . S
C6232 C6233 1.524 1_554 S
C6232 C6246 1.377 . S
C6233 C6232 1.524 1_556 S
C6233 C6234 1.397 . S
C6233 C6238 1.363 . S
C6234 H6211 0.950 . S
C6234 C6233 1.397 . S
C6234 C6235 1.334 . S
C6235 H6212 0.950 . S
C6235 C6234 1.334 . S
C6235 C6236 1.287 . S
C6236 C6235 1.287 . S
C6236 C6237 1.524 . S
C6236 H6255 0.913 . S
C6237 H6213 0.950 . S
C6237 C6236 1.524 . S
C6237 C6238 1.415 . S
C6238 H6214 0.950 . S
C6238 C6233 1.363 . S
C6238 C6237 1.415 . S
C6239 H6215 0.951 . S
C6239 C6240 1.366 . S
C6239 C6241 1.388 . S
C6240 C6239 1.366 . S
C6240 C6244 1.385 . S
C6241 H6216 0.951 . S
C6241 C6239 1.388 . S
C6241 C6242 1.366 . S
C6242 C6241 1.366 . S
C6242 C6243 1.414 . S
C6242 C6245 1.499 . S
C6243 H6217 0.950 . S
C6243 C6242 1.414 . S
C6243 C6244 1.374 . S
C6244 H6218 0.950 . S
C6244 C6240 1.385 . S
C6244 C6243 1.374 . S
C6245 C6242 1.499 . S
C6245 C6246 1.373 . S
C6245 C6247 1.389 . S
C6246 H6219 0.950 1_554 S
C6246 C6232 1.377 . S
C6246 C6245 1.373 . S
C6247 C6231 1.377 . S
C6247 C6245 1.389 . S
C6247 C6248 1.524 . S
C6248 C6247 1.524 . S
C6248 C6249 1.397 . S
C6248 C6253 1.363 . S
C6249 H6220 0.950 . S
C6249 C6248 1.397 . S
C6249 C6250 1.334 . S
C6250 H6221 0.950 . S
C6250 C6249 1.334 . S
C6250 C6251 1.287 . S
C6251 C6250 1.287 . S
C6251 C6252 1.524 . S
C6251 H6254 0.999 . S
C6252 H6222 0.950 . S
C6252 C6251 1.524 . S
C6252 C6253 1.415 . S
C6253 H6223 0.950 . S
C6253 C6248 1.363 . S
C6253 C6252 1.415 . S
H6254 C6251 0.999 . S
H6255 C6236 0.913 . S
H6256 C6274 0.951 . S
H6257 C6276 0.951 . S
H6258 C6278 0.950 . S
H6259 C6279 0.950 . S
H6260 C6281 0.950 . S
H6261 C6284 0.950 . S
H6262 C6285 0.950 . S
H6263 C6287 0.950 . S
H6264 C6288 0.950 . S
H6265 C6289 0.951 . S
H6266 C6291 0.951 . S
H6267 C6293 0.950 . S
H6268 C6294 0.950 . S
H6269 C6296 0.950 . S
H6270 C6299 0.950 . S
H6271 C6300 0.950 . S
H6272 C6302 0.950 . S
H6273 C6303 0.950 . S
C6274 H6256 0.951 . S
C6274 C6275 1.366 . S
C6274 C6276 1.388 . S
C6275 C6274 1.366 . S
C6275 C6279 1.385 . S
C6276 H6257 0.951 . S
C6276 C6274 1.388 . S
C6276 C6277 1.366 . S
C6277 C6276 1.366 . S
C6277 C6278 1.414 . S
C6277 C6280 1.499 . S
C6278 H6258 0.950 . S
C6278 C6277 1.414 . S
C6278 C6279 1.374 . S
C6279 H6259 0.950 . S
C6279 C6275 1.385 . S
C6279 C6278 1.374 . S
C6280 C6277 1.499 . S
C6280 C6281 1.373 . S
C6280 C6282 1.389 . S
C6281 H6260 0.950 . S
C6281 C6280 1.373 . S
C6281 C6297 1.377 . S
C6282 C6280 1.389 . S
C6282 C6283 1.524 . S
C6282 C6296 1.377 . S
C6283 C6282 1.524 . S
C6283 C6284 1.397 . S
C6283 C6288 1.363 . S
C6284 H6261 0.950 . S
C6284 C6283 1.397 . S
C6284 C6285 1.334 . S
C6285 H6262 0.950 . S
C6285 C6284 1.334 . S
C6285 C6286 1.287 . S
C6286 C6285 1.287 . S
C6286 C6287 1.524 . S
C6286 H6305 0.913 . S
C6287 H6263 0.950 . S
C6287 C6286 1.524 . S
C6287 C6288 1.415 . S
C6288 H6264 0.950 . S
C6288 C6283 1.363 . S
C6288 C6287 1.415 . S
C6289 H6265 0.951 . S
C6289 C6290 1.366 . S
C6289 C6291 1.388 . S
C6290 C6289 1.366 . S
C6290 C6294 1.385 . S
C6291 H6266 0.951 . S
C6291 C6289 1.388 . S
C6291 C6292 1.366 . S
C6292 C6291 1.366 . S
C6292 C6293 1.414 . S
C6292 C6295 1.499 . S
C6293 H6267 0.950 . S
C6293 C6292 1.414 . S
C6293 C6294 1.374 . S
C6294 H6268 0.950 . S
C6294 C6290 1.385 . S
C6294 C6293 1.374 . S
C6295 C6292 1.499 . S
C6295 C6296 1.373 . S
C6295 C6297 1.389 . S
C6296 H6269 0.950 . S
C6296 C6282 1.377 . S
C6296 C6295 1.373 . S
C6297 C6281 1.377 . S
C6297 C6295 1.389 . S
C6297 C6298 1.524 . S
C6298 C6297 1.524 . S
C6298 C6299 1.397 . S
C6298 C6303 1.363 . S
C6299 H6270 0.950 . S
C6299 C6298 1.397 . S
C6299 C6300 1.334 . S
C6300 H6271 0.950 . S
C6300 C6299 1.334 . S
C6300 C6301 1.287 . S
C6301 C6300 1.287 . S
C6301 C6302 1.524 . S
C6301 H6304 0.999 . S
C6302 H6272 0.950 . S
C6302 C6301 1.524 . S
C6302 C6303 1.415 . S
C6303 H6273 0.950 . S
C6303 C6298 1.363 . S
C6303 C6302 1.415 . S
H6304 C6301 0.999 . S
H6305 C6286 0.913 . S
H6306 C6324 0.951 . S
H6307 C6326 0.951 . S
H6308 C6328 0.950 . S
H6309 C6329 0.950 . S
H6310 C6331 0.950 . S
H6311 C6334 0.950 . S
H6312 C6335 0.950 . S
H6313 C6337 0.950 . S
H6314 C6338 0.950 . S
H6315 C6339 0.951 . S
H6316 C6341 0.951 . S
H6317 C6343 0.950 . S
H6318 C6344 0.950 . S
H6319 C6346 0.950 . S
H6320 C6349 0.950 . S
H6321 C6350 0.950 . S
H6322 C6352 0.950 . S
H6323 C6353 0.966 . S
C6324 H6306 0.951 . S
C6324 C6325 1.366 . S
C6324 C6326 1.388 . S
C6325 C6324 1.366 . S
C6325 C6329 1.385 . S
C6326 H6307 0.951 . S
C6326 C6324 1.388 . S
C6326 C6327 1.366 . S
C6327 C6326 1.366 . S
C6327 C6328 1.414 . S
C6327 C6330 1.499 . S
C6328 H6308 0.950 . S
C6328 C6327 1.414 . S
C6328 C6329 1.374 . S
C6329 H6309 0.950 . S
C6329 C6325 1.385 . S
C6329 C6328 1.374 . S
C6330 C6327 1.499 . S
C6330 C6331 1.373 . S
C6330 C6332 1.389 . S
C6331 H6310 0.950 . S
C6331 C6330 1.373 . S
C6331 C6347 1.377 . S
C6332 C6330 1.389 . S
C6332 C6333 1.524 . S
C6332 C6346 1.377 . S
C6333 C6332 1.524 . S
C6333 C6334 1.397 . S
C6333 C6338 1.363 . S
C6334 H6311 0.950 . S
C6334 C6333 1.397 . S
C6334 C6335 1.334 . S
C6335 H6312 0.950 . S
C6335 C6334 1.334 . S
C6335 C6336 1.287 . S
C6336 C6335 1.287 . S
C6336 C6337 1.524 . S
C6336 H6355 0.913 . S
C6337 H6313 0.950 . S
C6337 C6336 1.524 . S
C6337 C6338 1.415 . S
C6338 H6314 0.950 . S
C6338 C6333 1.363 . S
C6338 C6337 1.415 . S
C6339 H6315 0.951 . S
C6339 C6340 1.366 . S
C6339 C6341 1.388 . S
C6340 C6339 1.366 . S
C6340 C6344 1.385 . S
C6341 H6316 0.951 . S
C6341 C6339 1.388 . S
C6341 C6342 1.366 . S
C6342 C6341 1.366 . S
C6342 C6343 1.414 . S
C6342 C6345 1.499 . S
C6343 H6317 0.950 . S
C6343 C6342 1.414 . S
C6343 C6344 1.374 . S
C6344 H6318 0.950 . S
C6344 C6340 1.385 . S
C6344 C6343 1.374 . S
C6345 C6342 1.499 . S
C6345 C6346 1.373 . S
C6345 C6347 1.389 . S
C6346 H6319 0.950 . S
C6346 C6332 1.377 . S
C6346 C6345 1.373 . S
C6347 C6331 1.377 . S
C6347 C6345 1.389 . S
C6347 C6348 1.524 . S
C6348 C6347 1.524 . S
C6348 C6349 1.397 1_554 S
C6348 C6353 1.364 . S
C6349 H6320 0.950 . S
C6349 C6348 1.397 1_556 S
C6349 C6350 1.334 . S
C6350 H6321 0.950 . S
C6350 C6349 1.334 . S
C6350 C6351 1.287 . S
C6351 C6350 1.287 . S
C6351 C6352 1.524 . S
C6351 H6354 0.999 . S
C6352 H6322 0.950 . S
C6352 C6351 1.524 . S
C6352 C6353 1.399 1_556 S
C6353 H6323 0.966 . S
C6353 C6348 1.364 . S
C6353 C6352 1.399 1_554 S
H6354 C6351 0.999 . S
H6355 C6336 0.913 . S
H6356 C6374 0.951 . S
H6357 C6376 0.951 . S
H6358 C6378 0.950 . S
H6359 C6379 0.950 . S
H6360 C6381 0.950 . S
H6361 C6384 0.950 . S
H6362 C6385 0.950 . S
H6363 C6387 0.950 . S
H6364 C6388 0.950 . S
H6365 C6389 0.951 . S
H6366 C6391 0.951 . S
H6367 C6393 0.950 . S
H6368 C6394 0.950 . S
H6369 C6396 0.950 . S
H6370 C6399 0.950 . S
H6371 C6400 0.950 . S
H6372 C6402 0.950 . S
H6373 C6403 0.950 . S
C6374 H6356 0.951 . S
C6374 C6375 1.366 . S
C6374 C6376 1.388 . S
C6375 C6374 1.366 . S
C6375 C6379 1.385 . S
C6376 H6357 0.951 . S
C6376 C6374 1.388 . S
C6376 C6377 1.366 . S
C6377 C6376 1.366 . S
C6377 C6378 1.414 . S
C6377 C6380 1.499 . S
C6378 H6358 0.950 . S
C6378 C6377 1.414 . S
C6378 C6379 1.374 . S
C6379 H6359 0.950 . S
C6379 C6375 1.385 . S
C6379 C6378 1.374 . S
C6380 C6377 1.499 . S
C6380 C6381 1.373 . S
C6380 C6382 1.389 . S
C6381 H6360 0.950 . S
C6381 C6380 1.373 . S
C6381 C6397 1.377 . S
C6382 C6380 1.389 . S
C6382 C6383 1.524 . S
C6382 C6396 1.377 . S
C6383 C6382 1.524 . S
C6383 C6384 1.397 . S
C6383 C6388 1.363 . S
C6384 H6361 0.950 . S
C6384 C6383 1.397 . S
C6384 C6385 1.334 . S
C6385 H6362 0.950 . S
C6385 C6384 1.334 . S
C6385 C6386 1.287 . S
C6386 C6385 1.287 . S
C6386 C6387 1.524 . S
C6386 H6405 0.913 . S
C6387 H6363 0.950 . S
C6387 C6386 1.524 . S
C6387 C6388 1.415 . S
C6388 H6364 0.950 . S
C6388 C6383 1.363 . S
C6388 C6387 1.415 . S
C6389 H6365 0.951 . S
C6389 C6390 1.366 . S
C6389 C6391 1.388 . S
C6390 C6389 1.366 . S
C6390 C6394 1.385 . S
C6391 H6366 0.951 . S
C6391 C6389 1.388 . S
C6391 C6392 1.366 . S
C6392 C6391 1.366 . S
C6392 C6393 1.414 . S
C6392 C6395 1.499 . S
C6393 H6367 0.950 . S
C6393 C6392 1.414 . S
C6393 C6394 1.374 . S
C6394 H6368 0.950 . S
C6394 C6390 1.385 . S
C6394 C6393 1.374 . S
C6395 C6392 1.499 . S
C6395 C6396 1.373 . S
C6395 C6397 1.389 . S
C6396 H6369 0.950 . S
C6396 C6382 1.377 . S
C6396 C6395 1.373 . S
C6397 C6381 1.377 . S
C6397 C6395 1.389 . S
C6397 C6398 1.524 . S
C6398 C6397 1.524 . S
C6398 C6399 1.397 . S
C6398 C6403 1.363 . S
C6399 H6370 0.950 . S
C6399 C6398 1.397 . S
C6399 C6400 1.334 . S
C6400 H6371 0.950 . S
C6400 C6399 1.334 . S
C6400 C6401 1.287 . S
C6401 C6400 1.287 . S
C6401 C6402 1.524 . S
C6401 H6404 0.999 . S
C6402 H6372 0.950 . S
C6402 C6401 1.524 . S
C6402 C6403 1.415 . S
C6403 H6373 0.950 . S
C6403 C6398 1.363 . S
C6403 C6402 1.415 . S
H6404 C6401 0.999 . S
H6405 C6386 0.913 . S
H6406 C6424 0.951 . S
H6407 C6426 0.951 . S
H6408 C6428 0.950 . S
H6409 C6429 0.950 . S
H6410 C6431 0.950 . S
H6411 C6434 0.950 . S
H6412 C6435 0.950 . S
H6413 C6437 0.950 . S
H6414 C6438 0.950 . S
H6415 C6439 0.951 . S
H6416 C6441 0.951 . S
H6417 C6443 0.950 . S
H6418 C6444 0.950 . S
H6419 C6446 0.950 . S
H6420 C6449 0.950 . S
H6421 C6450 0.950 . S
H6422 C6452 0.950 . S
H6423 C6453 0.950 . S
C6424 H6406 0.951 . S
C6424 C6425 1.366 . S
C6424 C6426 1.388 . S
C6425 C6424 1.366 . S
C6425 C6429 1.385 . S
C6426 H6407 0.951 . S
C6426 C6424 1.388 . S
C6426 C6427 1.366 . S
C6427 C6426 1.366 . S
C6427 C6428 1.414 . S
C6427 C6430 1.499 . S
C6428 H6408 0.950 . S
C6428 C6427 1.414 . S
C6428 C6429 1.374 . S
C6429 H6409 0.950 . S
C6429 C6425 1.385 . S
C6429 C6428 1.374 . S
C6430 C6427 1.499 . S
C6430 C6431 1.373 . S
C6430 C6432 1.389 . S
C6431 H6410 0.950 . S
C6431 C6430 1.373 . S
C6431 C6447 1.377 . S
C6432 C6430 1.389 . S
C6432 C6433 1.524 . S
C6432 C6446 1.377 . S
C6433 C6432 1.524 . S
C6433 C6434 1.397 . S
C6433 C6438 1.363 . S
C6434 H6411 0.950 . S
C6434 C6433 1.397 . S
C6434 C6435 1.334 . S
C6435 H6412 0.950 . S
C6435 C6434 1.334 . S
C6435 C6436 1.287 . S
C6436 C6435 1.287 . S
C6436 C6437 1.524 . S
C6436 H6455 0.913 . S
C6437 H6413 0.950 . S
C6437 C6436 1.524 . S
C6437 C6438 1.415 . S
C6438 H6414 0.950 . S
C6438 C6433 1.363 . S
C6438 C6437 1.415 . S
C6439 H6415 0.951 . S
C6439 C6440 1.366 . S
C6439 C6441 1.388 . S
C6440 C6439 1.366 . S
C6440 C6444 1.385 . S
C6441 H6416 0.951 . S
C6441 C6439 1.388 . S
C6441 C6442 1.366 . S
C6442 C6441 1.366 . S
C6442 C6443 1.414 . S
C6442 C6445 1.499 . S
C6443 H6417 0.950 . S
C6443 C6442 1.414 . S
C6443 C6444 1.374 . S
C6444 H6418 0.950 . S
C6444 C6440 1.385 . S
C6444 C6443 1.374 . S
C6445 C6442 1.499 . S
C6445 C6446 1.373 . S
C6445 C6447 1.389 . S
C6446 H6419 0.950 . S
C6446 C6432 1.377 . S
C6446 C6445 1.373 . S
C6447 C6431 1.377 . S
C6447 C6445 1.389 . S
C6447 C6448 1.524 . S
C6448 C6447 1.524 . S
C6448 C6449 1.397 . S
C6448 C6453 1.363 . S
C6449 H6420 0.950 . S
C6449 C6448 1.397 . S
C6449 C6450 1.334 . S
C6450 H6421 0.950 . S
C6450 C6449 1.334 . S
C6450 C6451 1.287 . S
C6451 C6450 1.287 . S
C6451 C6452 1.524 . S
C6451 H6454 0.999 . S
C6452 H6422 0.950 . S
C6452 C6451 1.524 . S
C6452 C6453 1.415 . S
C6453 H6423 0.950 . S
C6453 C6448 1.363 . S
C6453 C6452 1.415 . S
H6454 C6451 0.999 . S
H6455 C6436 0.913 . S
C1675 C101 1.855 . S
C1690 C368 1.851 . S
C1725 C57 1.712 . S
C1740 C470 1.719 . S
C1775 C70 1.601 . S
C1790 C536 1.598 . S
C1840 C622 1.442 . S
C1825 C82 1.538 . S
C1875 C23 1.538 . S
C1890 C706 1.441 . S
C1940 C788 1.598 . S
C1925 C29 1.602 . S
C1990 C890 1.710 . S
C1975 C49 1.704 . S
C2025 C10 1.855 . S
C2040 C956 1.853 . S
C2090 C386 1.431 . S
C2075 C218 1.463 . S
C2125 C226 0.840 . S
C2140 C454 0.821 . S
C2190 C554 1.030 . S
C2175 C251 1.031 . S
C2240 C620 1.485 . S
C2225 C159 1.489 1_556 S
C2275 C211 1.488 . S
C2290 C704 1.485 . S
C2340 C806 1.032 . S
C2325 C225 1.032 . S
C2390 C874 0.820 . S
C2375 C252 0.837 . S
C2440 C974 1.432 . S
C2425 C166 1.463 . S
C2490 C370 0.882 . S
C2475 C147 0.903 . S
C2525 C263 1.575 . S
C2540 C1058 1.570 . S
C2590 C1126 1.305 . S
C2575 C309 1.369 . S
C2640 C1208 0.653 . S
C2625 C291 0.653 . S
C2675 C108 0.903 . S
C2690 C958 0.884 . S
C2725 C121 1.372 . S
C2740 C538 1.309 . S
C2775 C302 1.580 . S
C2790 C1310 1.572 . S
C2840 C1376 0.654 . S
C2825 C276 0.653 . S
C2890 C379 2.181 1_565 S
C2875 C55 2.167 . S
C2940 C1383 2.087 . S
C2925 C96 2.108 . S
C2975 C88 2.022 . S
C2990 C547 2.026 . S
C3025 C75 1.800 . S
C3040 C1305 1.660 . S
C3090 C717 1.659 . S
C3075 C4 1.801 . S
C3125 C44 2.030 . S
C3140 C1135 2.037 . S
C3190 C879 2.086 1_565 S
C3175 C31 2.101 . S
C3240 C1471 2.182 . S
C3225 C18 2.167 . S
C3290 C375 1.804 1_556 S
C3275 C133 1.843 . S
C3340 C1389 1.053 . S
C3325 C296 1.135 . S
C3375 C107 1.355 . S
C3390 C543 1.338 . S
C3425 C264 1.873 . S
C3440 C1303 1.873 . S
C3475 C140 1.873 . S
C3490 C715 1.873 . S
C3540 C1131 1.340 . S
C3525 C289 1.356 . S
C3575 C114 1.138 . S
C3590 C885 1.055 . S
C3625 C265 1.845 . S
C3640 C1467 1.805 . S
C3675 C179 1.060 . S
C3690 C381 1.004 . S
C3725 C161 1.906 . S
C3740 C1047 1.878 . S
C3775 C244 1.555 . S
C3790 C801 1.446 . S
C3825 C224 1.076 . S
C3840 C1219 1.076 . S
C3890 C1473 1.004 . S
C3875 C257 1.060 1_565 S
C3925 C199 1.554 . S
C3940 C549 1.446 . S
C3990 C627 1.877 . S
C3975 C237 1.904 . S
C4040 C463 1.074 . S
C4025 C185 1.075 . S
C4075 C69 1.856 . S
C4090 C1544 1.854 . S
C4140 C1394 1.720 . S
C4125 C83 1.712 . S
C4175 C94 1.598 . S
C4190 C1628 1.600 . S
C4225 C56 1.507 1_655 S
C4240 C1294 1.442 . S
C4275 C42 1.548 . S
C4290 C1042 1.450 . S
C4340 C1124 1.598 . S
C4325 C3 1.602 1_655 S
C4390 C1226 1.720 . S
C4375 C16 1.712 . S
C4440 C1460 1.853 . S
C4425 C36 1.855 . S
C4490 C1562 1.431 . S
C4475 C238 1.463 . S
C4525 C174 0.837 . S
C4540 C1378 0.821 . S
C4590 C1646 1.030 . S
C4575 C186 1.032 . S
C4640 C1292 1.484 . S
C4625 C198 1.488 . S
C4690 C1040 1.486 . S
C4675 C239 1.489 . S
C4725 C173 1.031 . S
C4740 C1142 1.031 . S
C4790 C1210 0.823 . S
C4775 C187 0.839 . S
C4825 C205 1.462 . S
C4840 C1478 1.431 . S
C4890 C1546 0.880 . S
C4875 C290 0.901 . S
C4925 C122 1.579 . S
C4940 C722 1.571 . S
C4990 C790 1.309 . S
C4975 C134 1.373 1_565 S
C5040 C872 0.654 . S
C5025 C148 0.655 . S
C5090 C1462 0.879 . S
C5075 C283 0.900 . S
C5125 C270 1.370 . S
C5140 C1630 1.307 . S
C5190 C638 1.571 . S
C5175 C135 1.579 . S
C5240 C452 0.653 . S
C5225 C109 0.652 . S
C5275 C81 2.167 . S
C5290 C1555 2.181 . S
C5340 C459 2.086 . S
C5325 C68 2.101 . S
C5375 C62 2.022 . S
C5390 C1639 2.026 . S
C5425 C95 1.800 . S
C5440 C633 1.653 . S
C5475 C30 1.801 . S
C5490 C1053 1.660 . S
C5540 C799 2.026 . S
C5525 C17 2.022 . S
C5575 C5 2.102 . S
C5590 C1215 2.086 . S
C5625 C43 2.163 . S
C5640 C967 2.171 . S
C5690 C1551 1.804 . S
C5675 C304 1.843 . S
C5725 C153 1.134 . S
C5740 C465 1.047 . S
C5790 C1635 1.337 1_556 S
C5775 C278 1.355 . S
C5825 C127 1.872 . S
C5840 C631 1.872 . S
C5875 C303 1.869 . S
C5890 C1051 1.868 . S
C5940 C795 1.337 . S
C5925 C146 1.360 . S
C5975 C277 1.135 . S
C5990 C1221 1.053 . S
C6040 C963 1.803 . S
C6025 C120 1.842 . S
C6090 C1557 1.004 . S
C6075 C231 1.061 . S
C6140 C711 1.874 1_665 S
C6125 C200 1.905 . S
C6175 C212 1.557 . S
C6190 C1137 1.447 . S
C6240 C883 1.074 . S
C6225 C172 1.075 . S
C6275 C192 1.058 . S
C6290 C969 1.001 . S
C6325 C160 1.554 . S
C6340 C1641 1.446 . S
C6390 C1299 1.878 . S
C6375 C213 1.907 . S
C6440 C1387 1.076 . S
C6425 C250 1.076 . S
