# Generated by pormake.
# Topology rtl, (3,6)-cn, num edge types: 1
# Building blocks:
#     Node 0, Type 0, BuildingBlock: WUSLED_clean_sbu_0, # of connection points: 3
#     Node 1, Type 0, BuildingBlock: WUSLED_clean_sbu_0, # of connection points: 3
#     Node 2, Type 0, BuildingBlock: WUSLED_clean_sbu_0, # of connection points: 3
#     Node 3, Type 0, BuildingBlock: WUSLED_clean_sbu_0, # of connection points: 3
#     Node 4, Type 1, BuildingBlock: FUNLAD_clean_sbu_0, # of connection points: 6
#     Node 5, Type 1, BuildingBlock: FUNLAD_clean_sbu_0, # of connection points: 6
#     Edge 6, Type (0, 1), BuildingBlock: XUDNAN_clean_linker_2, # of connection points: 2
#     Edge 7, Type (0, 1), BuildingBlock: XUDNAN_clean_linker_2, # of connection points: 2
#     Edge 8, Type (0, 1), BuildingBlock: XUDNAN_clean_linker_2, # of connection points: 2
#     Edge 9, Type (0, 1), BuildingBlock: XUDNAN_clean_linker_2, # of connection points: 2
#     Edge 10, Type (0, 1), BuildingBlock: XUDNAN_clean_linker_2, # of connection points: 2
#     Edge 11, Type (0, 1), BuildingBlock: XUDNAN_clean_linker_2, # of connection points: 2
#     Edge 12, Type (0, 1), BuildingBlock: XUDNAN_clean_linker_2, # of connection points: 2
#     Edge 13, Type (0, 1), BuildingBlock: XUDNAN_clean_linker_2, # of connection points: 2
#     Edge 14, Type (0, 1), BuildingBlock: XUDNAN_clean_linker_2, # of connection points: 2
#     Edge 15, Type (0, 1), BuildingBlock: XUDNAN_clean_linker_2, # of connection points: 2
#     Edge 16, Type (0, 1), BuildingBlock: XUDNAN_clean_linker_2, # of connection points: 2
#     Edge 17, Type (0, 1), BuildingBlock: XUDNAN_clean_linker_2, # of connection points: 2
# Relax obj value: 0.025
# Max RMSD: 0.087
# Mean RMSD: 0.074
data_MOF--net-rtl--node1-WUSLED_clean_sbu_0--node2-FUNLAD_clean_sbu_0--edge1-XUDNAN_clean_linker_2
_symmetry_space_group_name_H-M    P1
_symmetry_Int_Tables_number       1
_symmetry_cell_setting            triclinic
loop_
_symmetry_equiv_pos_as_xyz
'x, y, z'
_cell_length_a     50.994612
_cell_length_b     42.365958
_cell_length_c     29.697292
_cell_angle_alpha  90.167052
_cell_angle_beta   91.322865
_cell_angle_gamma 91.007451
loop_
_atom_site_label
_atom_site_type_symbol
_atom_site_fract_x
_atom_site_fract_y
_atom_site_fract_z
_atom_type_partial_charge
C0 C 0.1468 0.81923 0.1469 0.0
C1 C 0.13213 0.84448 0.13007 0.0
C2 C 0.11993 0.85864 0.20608 0.0
C3 C 0.1189 0.86409 0.15942 0.0
C4 C 0.1335 0.83233 0.22266 0.0
C5 C 0.14698 0.81282 0.1932 0.0
U6 U 0.16615 0.80094 0.02832 0.0
O7 O 0.20478 0.79742 0.99782 0.0
O8 O 0.17757 0.7567 0.99543 0.0
C9 C 0.20143 0.76738 0.98775 0.0
C10 C 0.16308 0.80105 0.11636 0.0
C11 C 0.22304 0.74718 1.00277 0.0
C12 C 0.25038 0.72556 0.0628 0.0
C13 C 0.22823 0.74226 0.04878 0.0
C14 C 0.26195 0.71786 0.98489 0.0
C15 C 0.26773 0.71356 0.03103 0.0
C16 C 0.23981 0.73457 0.97094 0.0
C17 C 0.1287 0.84639 0.93509 0.0
C18 C 0.12219 0.8336 0.85571 0.0
C19 C 0.11439 0.88664 0.88235 0.0
C20 C 0.12146 0.87754 0.92606 0.0
C21 C 0.11432 0.86469 0.84675 0.0
C22 C 0.12941 0.82454 0.89951 0.0
C23 C 0.13428 0.83728 0.98212 0.0
O24 O 0.15035 0.78045 0.09046 0.0
O25 O 0.18032 0.81815 0.09446 0.0
O26 O 0.15684 0.84736 0.99948 0.0
O27 O 0.12829 0.80804 0.99329 0.0
H28 H 0.13164 0.84965 0.09435 0.0
H29 H 0.1084 0.88404 0.14576 0.0
H30 H 0.13472 0.82777 0.25851 0.0
H31 H 0.15819 0.79338 0.20669 0.0
H32 H 0.25407 0.72232 0.09854 0.0
H33 H 0.21548 0.75194 0.07382 0.0
H34 H 0.27503 0.70932 0.95955 0.0
H35 H 0.23617 0.73837 0.93529 0.0
H36 H 0.12259 0.81624 0.82889 0.0
H37 H 0.10811 0.91063 0.87675 0.0
H38 H 0.12074 0.89472 0.95309 0.0
H39 H 0.13513 0.80039 0.90566 0.0
C40 C 0.62024 0.6945 0.62155 0.0
C41 C 0.61177 0.66358 0.6304 0.0
C42 C 0.60475 0.67737 0.70869 0.0
C43 C 0.60412 0.65505 0.67355 0.0
C44 C 0.61328 0.70845 0.69974 0.0
C45 C 0.62111 0.71693 0.65648 0.0
U46 U 0.66046 0.74179 0.53611 0.0
O47 O 0.66601 0.78887 0.56696 0.0
O48 O 0.69555 0.75246 0.57795 0.0
C49 C 0.68974 0.78238 0.58221 0.0
C50 C 0.62815 0.70246 0.57568 0.0
C51 C 0.7108 0.80415 0.56861 0.0
C52 C 0.75154 0.83225 0.5871 0.0
C53 C 0.72923 0.81547 0.6007 0.0
C54 C 0.73662 0.82753 0.50925 0.0
C55 C 0.75577 0.83782 0.54111 0.0
C56 C 0.71438 0.81073 0.52288 0.0
C57 C 0.65362 0.7158 0.41448 0.0
C58 C 0.63807 0.70574 0.33773 0.0
C59 C 0.63921 0.66304 0.39186 0.0
C60 C 0.64868 0.68397 0.42499 0.0
C61 C 0.63409 0.67364 0.34783 0.0
C62 C 0.64793 0.72665 0.37083 0.0
C63 C 0.6651 0.7375 0.44865 0.0
O64 O 0.65233 0.69531 0.56594 0.0
O65 O 0.62103 0.73019 0.56029 0.0
O66 O 0.64863 0.75673 0.46757 0.0
O67 O 0.68151 0.72456 0.47765 0.0
H68 H 0.61099 0.64599 0.60381 0.0
H69 H 0.59728 0.63107 0.6792 0.0
H70 H 0.61413 0.72606 0.72627 0.0
H71 H 0.62781 0.74091 0.65031 0.0
H72 H 0.76603 0.83953 0.61244 0.0
H73 H 0.7269 0.81025 0.6361 0.0
H74 H 0.73911 0.83182 0.47366 0.0
H75 H 0.70043 0.80191 0.49757 0.0
H76 H 0.63431 0.71441 0.30396 0.0
H77 H 0.63598 0.63849 0.40059 0.0
H78 H 0.65253 0.67514 0.45866 0.0
H79 H 0.65146 0.75116 0.3622 0.0
C80 C 0.8829 0.20357 0.14966 0.0
C81 C 0.89188 0.17241 0.14876 0.0
C82 C 0.91343 0.18002 0.22207 0.0
C83 C 0.90686 0.16068 0.1848 0.0
C84 C 0.9044 0.21117 0.22286 0.0
C85 C 0.88919 0.22278 0.18703 0.0
U86 U 0.871 0.21266 0.02354 0.0
O87 O 0.83459 0.21393 0.98257 0.0
O88 O 0.8614 0.255 0.9841 0.0
C89 C 0.83819 0.2437 0.97154 0.0
C90 C 0.86791 0.21681 0.11135 0.0
C91 C 0.81604 0.26419 0.98096 0.0
C92 C 0.78614 0.28672 0.0342 0.0
C93 C 0.80813 0.26872 0.02539 0.0
C94 C 0.78017 0.29671 0.95432 0.0
C95 C 0.77169 0.30057 0.99873 0.0
C96 C 0.80216 0.27856 0.94553 0.0
C97 C 0.9172 0.16928 0.94437 0.0
C98 C 0.91012 0.15091 0.8672 0.0
C99 C 0.95419 0.16261 0.89544 0.0
C100 C 0.94425 0.17072 0.9372 0.0
C101 C 0.93725 0.15269 0.85995 0.0
C102 C 0.90013 0.15931 0.90905 0.0
C103 C 0.90764 0.17787 0.98916 0.0
O104 O 0.88085 0.23747 0.0871 0.0
O105 O 0.85379 0.19659 0.08687 0.0
O106 O 0.88448 0.16655 1.00014 0.0
O107 O 0.91155 0.20749 1.0012 0.0
H108 H 0.88758 0.15722 0.12002 0.0
H109 H 0.91382 0.13671 0.18304 0.0
H110 H 0.90901 0.22651 0.2513 0.0
H111 H 0.88253 0.24692 0.18828 0.0
H112 H 0.78032 0.28963 0.0688 0.0
H113 H 0.81875 0.2579 0.05318 0.0
H114 H 0.76932 0.30684 0.92628 0.0
H115 H 0.80805 0.27528 0.91103 0.0
H116 H 0.89662 0.14354 0.84034 0.0
H117 H 0.97521 0.16378 0.89107 0.0
H118 H 0.95777 0.17813 0.96405 0.0
H119 H 0.87913 0.15807 0.9137 0.0
C120 C 0.40394 0.30738 0.39207 0.0
C121 C 0.41533 0.33765 0.3968 0.0
C122 C 0.42999 0.33558 0.31955 0.0
C123 C 0.42813 0.3517 0.36075 0.0
C124 C 0.41888 0.30507 0.31517 0.0
C125 C 0.40587 0.29113 0.35117 0.0
U126 U 0.39186 0.30155 0.51698 0.0
O127 O 0.35512 0.29908 0.55393 0.0
O128 O 0.38307 0.26042 0.55957 0.0
C129 C 0.35939 0.27027 0.56823 0.0
C130 C 0.39003 0.29276 0.42959 0.0
C131 C 0.33792 0.24782 0.55784 0.0
C132 C 0.31001 0.22076 0.50231 0.0
C133 C 0.33233 0.23905 0.51302 0.0
C134 C 0.29925 0.21872 0.58137 0.0
C135 C 0.29293 0.21098 0.53626 0.0
C136 C 0.32157 0.23713 0.59204 0.0
C137 C 0.42978 0.35565 0.59785 0.0
C138 C 0.41602 0.36253 0.6749 0.0
C139 C 0.45568 0.38863 0.64948 0.0
C140 C 0.45169 0.37524 0.60677 0.0
C141 C 0.4377 0.38272 0.68382 0.0
C142 C 0.41213 0.34902 0.63225 0.0
C143 C 0.42484 0.34338 0.55219 0.0
O144 O 0.40455 0.2757 0.45702 0.0
O145 O 0.37405 0.31147 0.45068 0.0
O146 O 0.40193 0.35069 0.53437 0.0
O147 O 0.43095 0.31371 0.54576 0.0
H148 H 0.41426 0.35043 0.42834 0.0
H149 H 0.43684 0.37504 0.36526 0.0
H150 H 0.41992 0.29221 0.2837 0.0
H151 H 0.39722 0.26773 0.34704 0.0
H152 H 0.30581 0.21483 0.46735 0.0
H153 H 0.34479 0.2472 0.4862 0.0
H154 H 0.28633 0.21176 0.60817 0.0
H155 H 0.32559 0.24388 0.62677 0.0
H156 H 0.40203 0.35726 0.70085 0.0
H157 H 0.47242 0.40433 0.65524 0.0
H158 H 0.46544 0.38062 0.58048 0.0
H159 H 0.39513 0.3338 0.62586 0.0
C160 C 0.0464 0.98525 0.44881 0.0
N161 N 0.07911 0.05867 0.52599 0.0
C162 C 0.10264 0.04399 0.52552 0.0
C163 C 0.12594 0.06171 0.5234 0.0
C164 C 0.12488 0.09474 0.52114 0.0
C165 C 0.10042 0.10927 0.52299 0.0
C166 C 0.07768 0.09071 0.52569 0.0
Zn167 Zn 0.04504 0.03275 0.52278 0.0
C168 C 1.00613 0.0614 0.45898 0.0
N169 N 0.97361 0.97897 0.51304 0.0
C170 C 0.97419 0.94721 0.50645 0.0
C171 C 0.95048 0.99423 0.51672 0.0
C172 C 0.9267 0.97744 0.51378 0.0
C173 C 0.92671 0.94467 0.50663 0.0
C174 C 0.95086 0.92953 0.50298 0.0
Zn175 Zn 1.00795 1.00446 0.51707 0.0
O176 O 0.05955 1.0069 0.46907 0.0
C177 C 0.04652 0.97548 0.58076 0.0
O178 O 0.02349 0.97803 0.46194 0.0
H179 H 0.95046 0.01952 0.52171 0.0
H180 H 0.1033 0.01849 0.52554 0.0
H181 H 0.99279 0.93554 0.50384 0.0
O182 O 0.06032 0.99954 0.57017 0.0
O183 O 0.02373 0.97165 0.56317 0.0
H184 H 0.05881 0.10192 0.52643 0.0
O185 O 0.99327 0.03184 0.5725 0.0
O186 O 0.0303 0.05901 0.57537 0.0
O187 O 0.9925 0.03748 0.47041 0.0
O188 O 0.02906 0.06534 0.47589 0.0
C189 C 1.00744 0.05393 0.58997 0.0
H190 H 0.14449 0.04972 0.52183 0.0
H191 H 0.09889 0.13473 0.52187 0.0
H192 H 0.90849 0.99004 0.51632 0.0
H193 H 0.95172 0.90424 0.49801 0.0
C194 C 0.49851 0.48965 0.96144 0.0
N195 N 0.57435 0.47549 0.01307 0.0
C196 C 0.56931 0.4441 1.00702 0.0
C197 C 0.58979 0.42279 1.00613 0.0
C198 C 0.61579 0.4338 0.01133 0.0
C199 C 0.6206 0.46646 0.01505 0.0
C200 C 0.59942 0.48704 0.01608 0.0
Zn201 Zn 0.54293 0.5038 0.02409 0.0
C202 C 0.54426 0.56361 0.97371 0.0
N203 N 0.47634 0.56023 0.05175 0.0
C204 C 0.45206 0.54633 0.05019 0.0
C205 C 0.47945 0.59177 0.05938 0.0
C206 C 0.45759 0.61068 0.06532 0.0
C207 C 0.43227 0.59703 0.06311 0.0
C208 C 0.42968 0.56436 0.05566 0.0
Zn209 Zn 0.50838 0.53305 0.04016 0.0
O210 O 0.52222 0.48258 0.96968 0.0
C211 C 0.50706 0.47291 0.09006 0.0
O212 O 0.48758 0.51 0.98599 0.0
H213 H 0.4989 0.60239 0.06027 0.0
H214 H 0.54928 0.43535 1.00463 0.0
H215 H 0.44999 0.52121 0.04424 0.0
O216 O 0.52783 0.46929 0.06803 0.0
O217 O 0.4944 0.49833 0.08567 0.0
H218 H 0.60299 0.51206 0.02104 0.0
O219 O 0.52984 0.55555 0.09377 0.0
O220 O 0.56326 0.52551 0.07889 0.0
O221 O 0.52299 0.56725 0.99454 0.0
O222 O 0.55738 0.53868 0.98003 0.0
C223 C 0.55317 0.54695 0.1026 0.0
H224 H 0.58528 0.39781 1.00254 0.0
H225 H 0.6404 0.47583 0.01931 0.0
H226 H 0.46046 0.63582 0.07052 0.0
H227 H 0.41056 0.55283 0.05424 0.0
H228 H 0.2699 0.15986 0.57769 0.0
H229 H 0.25859 0.22653 0.46853 0.0
H230 H 0.21521 0.2024 0.4509 0.0
H231 H 0.237 0.09251 0.52143 0.0
H232 H 0.22256 0.07824 0.5725 0.0
H233 H 0.25347 0.09954 0.57498 0.0
H234 H 0.23417 0.13946 0.63102 0.0
H235 H 0.20321 0.11837 0.6286 0.0
H236 H 0.20459 0.1599 0.61562 0.0
H237 H 0.17207 0.17402 0.4485 0.0
H238 H 0.13232 0.14097 0.4591 0.0
H239 H 0.1715 0.09196 0.56891 0.0
C240 C 0.25833 0.1692 0.54991 0.0
C241 C 0.26766 0.19494 0.52429 0.0
C242 C 0.25202 0.2065 0.48811 0.0
C243 C 0.2273 0.19307 0.47799 0.0
C244 C 0.21858 0.16798 0.50416 0.0
C245 C 0.23365 0.15593 0.53913 0.0
C246 C 0.21933 0.12923 0.56256 0.0
C247 C 0.23396 0.09803 0.55755 0.0
C248 C 0.21507 0.13724 0.61239 0.0
C249 C 0.19368 0.1286 0.53581 0.0
C250 C 0.1937 0.15117 0.5023 0.0
C251 C 0.17186 0.15607 0.47435 0.0
C252 C 0.14937 0.13736 0.48079 0.0
C253 C 0.14894 0.114 0.51476 0.0
C254 C 0.17147 0.10944 0.54237 0.0
H255 H 0.29055 0.6612 0.99446 0.0
H256 H 0.30122 0.7314 0.1004 0.0
H257 H 0.34351 0.70781 0.12236 0.0
H258 H 0.32019 0.59582 0.0554 0.0
H259 H 0.33543 0.58028 1.00607 0.0
H260 H 0.30522 0.60149 1.0005 0.0
H261 H 0.32703 0.64004 0.9444 0.0
H262 H 0.35729 0.61899 0.94984 0.0
H263 H 0.35687 0.66082 0.96104 0.0
H264 H 0.38594 0.67861 0.12987 0.0
H265 H 0.42473 0.6448 0.12373 0.0
H266 H 0.38661 0.59419 0.01233 0.0
C267 C 0.30172 0.67157 0.02238 0.0
C268 C 0.29245 0.6981 0.04582 0.0
C269 C 0.30764 0.71077 0.08238 0.0
C270 C 0.33179 0.69766 0.09496 0.0
C271 C 0.34047 0.67178 0.07078 0.0
C272 C 0.32584 0.65876 0.03541 0.0
C273 C 0.33994 0.63149 0.01417 0.0
C274 C 0.32426 0.60043 0.01936 0.0
C275 C 0.34562 0.63826 0.96442 0.0
C276 C 0.36494 0.63152 0.04269 0.0
C277 C 0.36485 0.65489 0.07522 0.0
C278 C 0.38617 0.6601 0.10469 0.0
C279 C 0.40817 0.64093 0.10077 0.0
C280 C 0.40868 0.6168 0.06767 0.0
C281 C 0.38666 0.61208 0.03846 0.0
H282 H 0.78358 0.88793 0.57909 0.0
H283 H 0.78522 0.81946 0.47014 0.0
H284 H 0.82819 0.84087 0.44758 0.0
H285 H 0.81555 0.95264 0.51945 0.0
H286 H 0.83379 0.96623 0.56869 0.0
H287 H 0.80234 0.94683 0.57466 0.0
H288 H 0.82346 0.90595 0.62847 0.0
H289 H 0.85496 0.92517 0.62261 0.0
H290 H 0.85105 0.88369 0.60994 0.0
H291 H 0.87208 0.86735 0.43955 0.0
H292 H 0.91342 0.89854 0.44518 0.0
H293 H 0.88358 0.9494 0.5597 0.0
C294 C 0.79293 0.87753 0.55037 0.0
C295 C 0.78091 0.85215 0.5262 0.0
C296 C 0.79377 0.83931 0.48867 0.0
C297 C 0.81827 0.85116 0.47575 0.0
C298 C 0.82967 0.87594 0.50057 0.0
C299 C 0.81739 0.88912 0.53693 0.0
C300 C 0.83424 0.91503 0.5586 0.0
C301 C 0.82067 0.94708 0.55512 0.0
C302 C 0.84135 0.90696 0.60781 0.0
C303 C 0.85806 0.914 0.52913 0.0
C304 C 0.855 0.89132 0.49582 0.0
C305 C 0.87467 0.88531 0.46533 0.0
C306 C 0.89812 0.90298 0.46897 0.0
C307 C 0.90169 0.92639 0.50282 0.0
C308 C 0.88128 0.93197 0.5331 0.0
H309 H 0.7547 0.35666 0.9623 0.0
H310 H 0.73293 0.28242 0.05546 0.0
H311 H 0.69147 0.3093 0.06996 0.0
H312 H 0.72702 0.42135 0.02514 0.0
H313 H 0.71577 0.44189 0.97545 0.0
H314 H 0.74421 0.41734 0.97311 0.0
H315 H 0.72253 0.38546 0.90717 0.0
H316 H 0.69404 0.40989 0.90932 0.0
H317 H 0.69052 0.36763 0.91414 0.0
H318 H 0.65187 0.34257 0.07228 0.0
H319 H 0.61666 0.38142 0.06404 0.0
H320 H 0.66365 0.43478 0.96983 0.0
C321 C 0.74119 0.3461 0.98573 0.0
C322 C 0.74712 0.3175 1.00795 0.0
C323 C 0.72901 0.30453 0.0386 0.0
C324 C 0.70534 0.31953 0.04688 0.0
C325 C 0.70008 0.34758 0.02439 0.0
C326 C 0.71748 0.36088 0.99462 0.0
C327 C 0.70682 0.39115 0.97473 0.0
C328 C 0.72451 0.41961 0.98791 0.0
C329 C 0.70327 0.38835 0.92329 0.0
C330 C 0.68059 0.39252 0.99764 0.0
C331 C 0.67716 0.3671 0.02608 0.0
C332 C 0.65433 0.36263 0.05021 0.0
C333 C 0.63439 0.38471 0.04509 0.0
C334 C 0.63739 0.41099 0.01615 0.0
C335 C 0.66092 0.41502 0.9924 0.0
H336 H 0.0875 0.84851 0.27814 0.0
H337 H 0.12864 0.92188 0.20477 0.0
H338 H 0.11271 0.9619 0.25741 0.0
H339 H 0.03005 0.89589 0.3032 0.0
H340 H 0.02616 0.87929 0.35851 0.0
H341 H 0.0402 0.85608 0.31449 0.0
H342 H 0.08135 0.84675 0.36513 0.0
H343 H 0.06745 0.86992 0.40926 0.0
H344 H 0.09939 0.88019 0.3884 0.0
H345 H 0.09561 0.99318 0.31984 0.0
H346 H 0.07543 0.01541 0.38715 0.0
H347 H 0.04245 0.92329 0.41928 0.0
C348 C 0.09298 0.87304 0.2732 0.0
C349 C 0.10918 0.88221 0.2373 0.0
C350 C 0.11597 0.91448 0.2317 0.0
C351 C 0.10711 0.93734 0.2615 0.0
C352 C 0.09122 0.92762 0.2965 0.0
C353 C 0.08392 0.89637 0.30238 0.0
C354 C 0.06663 0.8926 0.34307 0.0
C355 C 0.03913 0.88024 0.32896 0.0
C356 C 0.07948 0.87109 0.37856 0.0
C357 C 0.06582 0.92654 0.35947 0.0
C358 C 0.08031 0.94619 0.33205 0.0
C359 C 0.08392 0.97818 0.34127 0.0
C360 C 0.07247 0.99054 0.37964 0.0
C361 C 0.05729 0.97108 0.40807 0.0
C362 C 0.05365 0.93871 0.39762 0.0
H363 H 0.61666 0.62355 0.75504 0.0
H364 H 0.5726 0.70991 0.76438 0.0
H365 H 0.55489 0.69204 0.83703 0.0
H366 H 0.56782 0.57285 0.79536 0.0
H367 H 0.58992 0.54764 0.82619 0.0
H368 H 0.60115 0.56869 0.77757 0.0
H369 H 0.6391 0.5941 0.82551 0.0
H370 H 0.62801 0.57303 0.87434 0.0
H371 H 0.63175 0.6154 0.8762 0.0
H372 H 0.53854 0.66219 0.90441 0.0
H373 H 0.52613 0.62364 0.96281 0.0
H374 H 0.58148 0.55723 0.90954 0.0
C375 C 0.60347 0.63884 0.77259 0.0
C376 C 0.59598 0.66812 0.75414 0.0
C377 C 0.57883 0.68756 0.77822 0.0
C378 C 0.56861 0.67756 0.81938 0.0
C379 C 0.57599 0.64824 0.83615 0.0
C380 C 0.59323 0.62931 0.8137 0.0
C381 C 0.59711 0.59823 0.83772 0.0
C382 C 0.58848 0.57021 0.8074 0.0
C383 C 0.62569 0.59501 0.85444 0.0
C384 C 0.57881 0.60224 0.8766 0.0
C385 C 0.5669 0.63129 0.87527 0.0
C386 C 0.54803 0.63957 0.90618 0.0
C387 C 0.54106 0.61748 0.93912 0.0
C388 C 0.55297 0.58753 0.9409 0.0
C389 C 0.57231 0.5801 0.90949 0.0
H390 H 0.90888 0.12311 0.26527 0.0
H391 H 0.95572 0.20955 0.26317 0.0
H392 H 0.98424 0.18899 0.32443 0.0
H393 H 0.91201 0.11222 0.38599 0.0
H394 H 0.91389 0.06985 0.38223 0.0
H395 H 0.89708 0.09154 0.33856 0.0
H396 H 0.92668 0.0666 0.27874 0.0
H397 H 0.94357 0.04485 0.32222 0.0
H398 H 0.96184 0.07025 0.28528 0.0
H399 H 1.00861 0.1581 0.38377 0.0
H400 H 0.026 0.12006 0.43931 0.0
H401 H 0.96248 0.05435 0.4039 0.0
C402 C 0.92518 0.13766 0.27766 0.0
C403 C 0.93013 0.16791 0.25952 0.0
C404 C 0.95146 0.18643 0.27694 0.0
C405 C 0.96781 0.1749 0.31154 0.0
C406 C 0.96243 0.14492 0.32856 0.0
C407 C 0.94154 0.12663 0.31244 0.0
C408 C 0.93996 0.09529 0.33671 0.0
C409 C 0.91421 0.09205 0.3624 0.0
C410 C 0.94321 0.06762 0.30377 0.0
C411 C 0.96337 0.09869 0.36874 0.0
C412 C 0.97613 0.12743 0.3634 0.0
C413 C 0.99869 0.1356 0.38846 0.0
C414 C 1.00844 0.11381 0.41984 0.0
C415 C 0.99554 0.0843 0.42608 0.0
C416 C 0.97266 0.07681 0.4002 0.0
H417 H 0.48311 0.38999 0.7343 0.0
H418 H 0.40017 0.41125 0.73337 0.0
H419 H 0.40627 0.43959 0.80582 0.0
H420 H 0.49043 0.37807 0.85499 0.0
H421 H 0.5227 0.39611 0.85801 0.0
H422 H 0.51148 0.37639 0.80713 0.0
H423 H 0.52079 0.42731 0.76154 0.0
H424 H 0.53199 0.44719 0.81228 0.0
H425 H 0.50601 0.46376 0.77817 0.0
H426 H 0.422 0.46815 0.87622 0.0
H427 H 0.44592 0.49302 0.94082 0.0
H428 H 0.51837 0.45237 0.89558 0.0
C429 C 0.46623 0.40057 0.74938 0.0
C430 C 0.44116 0.39841 0.72829 0.0
C431 C 0.41949 0.41231 0.74927 0.0
C432 C 0.42278 0.42857 0.79026 0.0
C433 C 0.44783 0.43053 0.80992 0.0
C434 C 0.46914 0.41672 0.79033 0.0
C435 C 0.49404 0.42262 0.81797 0.0
C436 C 0.50532 0.39144 0.83557 0.0
C437 C 0.5144 0.44134 0.79087 0.0
C438 C 0.48348 0.44226 0.85586 0.0
C439 C 0.45679 0.44658 0.85066 0.0
C440 C 0.44287 0.46473 0.88084 0.0
C441 C 0.45662 0.47882 0.91734 0.0
C442 C 0.48397 0.47454 0.92332 0.0
C443 C 0.49743 0.4559 0.89216 0.0
H444 H 0.5923 0.67782 0.28824 0.0
H445 H 0.65706 0.6181 0.32771 0.0
H446 H 0.6434 0.57938 0.26902 0.0
H447 H 0.54558 0.61441 0.26706 0.0
H448 H 0.53002 0.63335 0.21946 0.0
H449 H 0.54523 0.65689 0.26376 0.0
H450 H 0.57405 0.68556 0.20532 0.0
H451 H 0.55889 0.66215 0.16084 0.0
H452 H 0.59406 0.66268 0.16858 0.0
H453 H 0.62352 0.5479 0.20563 0.0
H454 H 0.59731 0.52399 0.1432 0.0
H455 H 0.54406 0.60281 0.14648 0.0
C456 C 0.60362 0.65665 0.28422 0.0
C457 C 0.62573 0.65084 0.31231 0.0
C458 C 0.63996 0.62278 0.30662 0.0
C459 C 0.63242 0.60076 0.27334 0.0
C460 C 0.61047 0.60707 0.24632 0.0
C461 C 0.59615 0.63418 0.2515 0.0
C462 C 0.57296 0.63472 0.21866 0.0
C463 C 0.54691 0.63484 0.24374 0.0
C464 C 0.57513 0.66295 0.18644 0.0
C465 C 0.57659 0.60374 0.19415 0.0
C466 C 0.59847 0.58832 0.21048 0.0
C467 C 0.60627 0.55964 0.19266 0.0
C468 C 0.59127 0.54629 0.15717 0.0
C469 C 0.56859 0.56147 0.14016 0.0
C470 C 0.56117 0.59054 0.15908 0.0
H471 H 0.9254 0.10096 0.80627 0.0
H472 H 0.97401 0.18602 0.81386 0.0
H473 H 0.99506 0.1711 0.74321 0.0
H474 H 0.97411 0.05074 0.76662 0.0
H475 H 0.95273 0.02815 0.72905 0.0
H476 H 0.93967 0.04655 0.77824 0.0
H477 H 0.90572 0.07583 0.72821 0.0
H478 H 0.9186 0.05737 0.67882 0.0
H479 H 0.91689 0.09977 0.68213 0.0
H480 H 1.01315 0.14568 0.6762 0.0
H481 H 0.02699 0.11156 0.6144 0.0
H482 H 0.96644 0.04265 0.64766 0.0
C483 C 0.9401 0.11671 0.79249 0.0
C484 C 0.94815 0.14463 0.81556 0.0
C485 C 0.96777 0.16438 0.79697 0.0
C486 C 0.97971 0.15621 0.75674 0.0
C487 C 0.97174 0.12827 0.73533 0.0
C488 C 0.95231 0.10885 0.75224 0.0
C489 C 0.94846 0.07937 0.72344 0.0
C490 C 0.95409 0.04944 0.75099 0.0
C491 C 0.92077 0.07802 0.70187 0.0
C492 C 0.96914 0.08504 0.68831 0.0
C493 C 0.98219 0.11351 0.69587 0.0
C494 C 1.00293 0.12349 0.66958 0.0
C495 C 1.01071 0.10382 0.63467 0.0
C496 C 0.99778 0.07444 0.62615 0.0
C497 C 0.9765 0.06511 0.65308 0.0
H498 H 0.4248 0.39603 0.28857 0.0
H499 H 0.46594 0.30899 0.26471 0.0
H500 H 0.48951 0.33444 0.20227 0.0
H501 H 0.41715 0.4184 0.17152 0.0
H502 H 0.42207 0.45994 0.18279 0.0
H503 H 0.40814 0.43468 0.22503 0.0
H504 H 0.4446 0.45277 0.28217 0.0
H505 H 0.45863 0.47806 0.24012 0.0
H506 H 0.47853 0.44881 0.26772 0.0
H507 H 0.50983 0.36992 0.14491 0.0
H508 H 0.52442 0.41238 0.09418 0.0
H509 H 0.46928 0.47613 0.15436 0.0
C510 C 0.43882 0.38237 0.27023 0.0
C511 C 0.44362 0.35057 0.28142 0.0
C512 C 0.46184 0.3333 0.25636 0.0
C513 C 0.47537 0.34758 0.22103 0.0
C514 C 0.47028 0.37903 0.21104 0.0
C515 C 0.45233 0.39617 0.23469 0.0
C516 C 0.45048 0.42962 0.21716 0.0
C517 C 0.42281 0.43602 0.19798 0.0
C518 C 0.45855 0.45373 0.25399 0.0
C519 C 0.47041 0.42872 0.18024 0.0
C520 C 0.48164 0.39934 0.17736 0.0
C521 C 0.50107 0.39296 0.14664 0.0
C522 C 0.50926 0.41727 0.11806 0.0
C523 C 0.49793 0.44754 0.12023 0.0
C524 C 0.47817 0.45319 0.15167 0.0
H525 H 0.12488 0.91965 0.80095 0.0
H526 H 0.08119 0.83101 0.79015 0.0
H527 H 0.06171 0.84822 0.71763 0.0
H528 H 0.07469 0.968 0.75998 0.0
H529 H 0.09585 0.9944 0.7294 0.0
H530 H 0.10841 0.97394 0.77811 0.0
H531 H 0.14541 0.95061 0.7305 0.0
H532 H 0.13299 0.97111 0.6816 0.0
H533 H 0.13702 0.92895 0.67968 0.0
H534 H 0.04343 0.87715 0.6509 0.0
H535 H 0.02922 0.91483 0.59237 0.0
H536 H 0.08543 0.98439 0.64529 0.0
C537 C 0.11143 0.90373 0.78307 0.0
C538 C 0.10464 0.87391 0.80115 0.0
C539 C 0.08701 0.85373 0.77665 0.0
C540 C 0.07575 0.86336 0.73553 0.0
C541 C 0.08249 0.89312 0.71912 0.0
C542 C 0.10012 0.9129 0.74186 0.0
C543 C 0.10316 0.94423 0.71785 0.0
C544 C 0.09503 0.97175 0.74814 0.0
C545 C 0.13132 0.94899 0.70143 0.0
C546 C 0.08396 0.9393 0.67869 0.0
C547 C 0.0723 0.90961 0.68001 0.0
C548 C 0.05271 0.90027 0.6491 0.0
C549 C 0.0447 0.92188 0.6161 0.0
C550 C 0.05637 0.95243 0.61409 0.0
C551 C 0.07648 0.96102 0.64553 0.0
loop_
_geom_bond_atom_site_label_1
_geom_bond_atom_site_label_2
_geom_bond_distance
_geom_bond_site_symmetry_2
_ccdc_geom_bond_type
C0 C1 1.264 . S
C0 C5 1.479 . S
C0 C10 1.465 . S
C1 C0 1.264 . S
C1 C3 1.339 . S
C1 H28 0.931 . S
C2 C3 1.395 . S
C2 C4 1.320 . S
C3 C1 1.339 . S
C3 C2 1.395 . S
C3 H29 0.929 . S
C4 C2 1.320 . S
C4 C5 1.405 . S
C4 H30 0.930 . S
C5 C0 1.479 . S
C5 C4 1.405 . S
C5 H31 0.931 . S
U6 O7 2.454 . S
U6 O8 2.458 1_554 S
U6 C9 2.984 . S
U6 C10 2.847 . S
U6 C23 2.882 1_554 S
U6 O24 2.441 . S
U6 O25 2.420 . S
U6 O26 2.455 1_554 S
U6 O27 2.449 1_554 S
O7 U6 2.454 . S
O7 C9 1.353 . S
O8 U6 2.458 1_556 S
O8 C9 1.286 1_556 S
C9 U6 2.984 . S
C9 O7 1.353 . S
C9 O8 1.286 1_554 S
C9 C11 1.363 . S
C10 C0 1.465 . S
C10 U6 2.847 . S
C10 O24 1.249 . S
C10 O25 1.202 . S
C11 C9 1.363 . S
C11 C13 1.408 . S
C11 C16 1.342 1_554 S
C12 C13 1.310 . S
C12 C15 1.461 . S
C12 H32 0.932 . S
C13 C11 1.408 . S
C13 C12 1.310 . S
C13 H33 0.930 . S
C14 C15 1.474 1_556 S
C14 C16 1.285 . S
C14 H34 0.929 . S
C15 C12 1.461 . S
C15 C14 1.474 1_554 S
C16 C11 1.342 1_556 S
C16 C14 1.285 . S
C16 H35 0.930 . S
C17 C20 1.424 . S
C17 C22 1.245 . S
C17 C23 1.428 . S
C18 C21 1.260 . S
C18 C22 1.477 . S
C18 H36 0.932 . S
C19 C20 1.384 . S
C19 C21 1.479 . S
C19 H37 0.929 . S
C20 C17 1.424 . S
C20 C19 1.384 . S
C20 H38 0.928 . S
C21 C18 1.260 . S
C21 C19 1.479 . S
C22 C17 1.245 . S
C22 C18 1.477 . S
C22 H39 0.932 . S
C23 U6 2.882 1_556 S
C23 C17 1.428 . S
C23 O26 1.301 . S
C23 O27 1.282 . S
O24 U6 2.441 . S
O24 C10 1.249 . S
O25 U6 2.420 . S
O25 C10 1.202 . S
O26 U6 2.455 1_556 S
O26 C23 1.301 . S
O27 U6 2.449 1_556 S
O27 C23 1.282 . S
H28 C1 0.931 . S
H29 C3 0.929 . S
H30 C4 0.930 . S
H31 C5 0.931 . S
H32 C12 0.932 . S
H33 C13 0.930 . S
H34 C14 0.929 . S
H35 C16 0.930 . S
H36 C18 0.932 . S
H37 C19 0.929 . S
H38 C20 0.928 . S
H39 C22 0.932 . S
C40 C41 1.264 . S
C40 C45 1.479 . S
C40 C50 1.465 . S
C41 C40 1.264 . S
C41 C43 1.339 . S
C41 H68 0.931 . S
C42 C43 1.395 . S
C42 C44 1.320 . S
C43 C41 1.339 . S
C43 C42 1.395 . S
C43 H69 0.929 . S
C44 C42 1.320 . S
C44 C45 1.405 . S
C44 H70 0.930 . S
C45 C40 1.479 . S
C45 C44 1.405 . S
C45 H71 0.931 . S
U46 O47 2.454 . S
U46 O48 2.458 . S
U46 C49 2.984 . S
U46 C50 2.847 . S
U46 C63 2.882 . S
U46 O64 2.441 . S
U46 O65 2.420 . S
U46 O66 2.455 . S
U46 O67 2.449 . S
O47 U46 2.454 . S
O47 C49 1.353 . S
O48 U46 2.458 . S
O48 C49 1.286 . S
C49 U46 2.984 . S
C49 O47 1.353 . S
C49 O48 1.286 . S
C49 C51 1.363 . S
C50 C40 1.465 . S
C50 U46 2.847 . S
C50 O64 1.249 . S
C50 O65 1.202 . S
C51 C49 1.363 . S
C51 C53 1.408 . S
C51 C56 1.342 . S
C52 C53 1.310 . S
C52 C55 1.461 . S
C52 H72 0.932 . S
C53 C51 1.408 . S
C53 C52 1.310 . S
C53 H73 0.930 . S
C54 C55 1.474 . S
C54 C56 1.285 . S
C54 H74 0.929 . S
C55 C52 1.461 . S
C55 C54 1.474 . S
C56 C51 1.342 . S
C56 C54 1.285 . S
C56 H75 0.930 . S
C57 C60 1.424 . S
C57 C62 1.245 . S
C57 C63 1.428 . S
C58 C61 1.260 . S
C58 C62 1.477 . S
C58 H76 0.932 . S
C59 C60 1.384 . S
C59 C61 1.479 . S
C59 H77 0.929 . S
C60 C57 1.424 . S
C60 C59 1.384 . S
C60 H78 0.928 . S
C61 C58 1.260 . S
C61 C59 1.479 . S
C62 C57 1.245 . S
C62 C58 1.477 . S
C62 H79 0.932 . S
C63 U46 2.882 . S
C63 C57 1.428 . S
C63 O66 1.301 . S
C63 O67 1.282 . S
O64 U46 2.441 . S
O64 C50 1.249 . S
O65 U46 2.420 . S
O65 C50 1.202 . S
O66 U46 2.455 . S
O66 C63 1.301 . S
O67 U46 2.449 . S
O67 C63 1.282 . S
H68 C41 0.931 . S
H69 C43 0.929 . S
H70 C44 0.930 . S
H71 C45 0.931 . S
H72 C52 0.932 . S
H73 C53 0.930 . S
H74 C54 0.929 . S
H75 C56 0.930 . S
H76 C58 0.932 . S
H77 C59 0.929 . S
H78 C60 0.928 . S
H79 C62 0.932 . S
C80 C81 1.264 . S
C80 C85 1.479 . S
C80 C90 1.465 . S
C81 C80 1.264 . S
C81 C83 1.339 . S
C81 H108 0.931 . S
C82 C83 1.395 . S
C82 C84 1.320 . S
C83 C81 1.339 . S
C83 C82 1.395 . S
C83 H109 0.929 . S
C84 C82 1.320 . S
C84 C85 1.405 . S
C84 H110 0.930 . S
C85 C80 1.479 . S
C85 C84 1.405 . S
C85 H111 0.931 . S
U86 O87 2.454 . S
U86 O88 2.458 1_554 S
U86 C89 2.984 . S
U86 C90 2.847 . S
U86 C103 2.882 1_554 S
U86 O104 2.441 . S
U86 O105 2.420 . S
U86 O106 2.455 1_554 S
U86 O107 2.449 1_554 S
O87 U86 2.454 . S
O87 C89 1.353 . S
O88 U86 2.458 1_556 S
O88 C89 1.286 1_556 S
C89 U86 2.984 . S
C89 O87 1.353 . S
C89 O88 1.286 1_554 S
C89 C91 1.363 . S
C90 C80 1.465 . S
C90 U86 2.847 . S
C90 O104 1.249 . S
C90 O105 1.202 . S
C91 C89 1.363 . S
C91 C93 1.408 . S
C91 C96 1.342 1_554 S
C92 C93 1.310 . S
C92 C95 1.461 . S
C92 H112 0.932 . S
C93 C91 1.408 . S
C93 C92 1.310 . S
C93 H113 0.930 . S
C94 C95 1.474 1_556 S
C94 C96 1.285 . S
C94 H114 0.929 . S
C95 C92 1.461 . S
C95 C94 1.474 1_554 S
C96 C91 1.342 1_556 S
C96 C94 1.285 . S
C96 H115 0.930 . S
C97 C100 1.424 . S
C97 C102 1.245 . S
C97 C103 1.428 . S
C98 C101 1.260 . S
C98 C102 1.477 . S
C98 H116 0.932 . S
C99 C100 1.384 . S
C99 C101 1.479 . S
C99 H117 0.929 . S
C100 C97 1.424 . S
C100 C99 1.384 . S
C100 H118 0.928 . S
C101 C98 1.260 . S
C101 C99 1.479 . S
C102 C97 1.245 . S
C102 C98 1.477 . S
C102 H119 0.932 . S
C103 U86 2.882 1_556 S
C103 C97 1.428 . S
C103 O106 1.301 . S
C103 O107 1.282 . S
O104 U86 2.441 . S
O104 C90 1.249 . S
O105 U86 2.420 . S
O105 C90 1.202 . S
O106 U86 2.455 1_556 S
O106 C103 1.301 . S
O107 U86 2.449 1_556 S
O107 C103 1.282 . S
H108 C81 0.931 . S
H109 C83 0.929 . S
H110 C84 0.930 . S
H111 C85 0.931 . S
H112 C92 0.932 . S
H113 C93 0.930 . S
H114 C94 0.929 . S
H115 C96 0.930 . S
H116 C98 0.932 . S
H117 C99 0.929 . S
H118 C100 0.928 . S
H119 C102 0.932 . S
C120 C121 1.264 . S
C120 C125 1.479 . S
C120 C130 1.465 . S
C121 C120 1.264 . S
C121 C123 1.339 . S
C121 H148 0.931 . S
C122 C123 1.395 . S
C122 C124 1.320 . S
C123 C121 1.339 . S
C123 C122 1.395 . S
C123 H149 0.929 . S
C124 C122 1.320 . S
C124 C125 1.405 . S
C124 H150 0.930 . S
C125 C120 1.479 . S
C125 C124 1.405 . S
C125 H151 0.931 . S
U126 O127 2.454 . S
U126 O128 2.458 . S
U126 C129 2.984 . S
U126 C130 2.847 . S
U126 C143 2.882 . S
U126 O144 2.441 . S
U126 O145 2.420 . S
U126 O146 2.455 . S
U126 O147 2.449 . S
O127 U126 2.454 . S
O127 C129 1.353 . S
O128 U126 2.458 . S
O128 C129 1.286 . S
C129 U126 2.984 . S
C129 O127 1.353 . S
C129 O128 1.286 . S
C129 C131 1.363 . S
C130 C120 1.465 . S
C130 U126 2.847 . S
C130 O144 1.249 . S
C130 O145 1.202 . S
C131 C129 1.363 . S
C131 C133 1.408 . S
C131 C136 1.342 . S
C132 C133 1.310 . S
C132 C135 1.461 . S
C132 H152 0.932 . S
C133 C131 1.408 . S
C133 C132 1.310 . S
C133 H153 0.930 . S
C134 C135 1.474 . S
C134 C136 1.285 . S
C134 H154 0.929 . S
C135 C132 1.461 . S
C135 C134 1.474 . S
C136 C131 1.342 . S
C136 C134 1.285 . S
C136 H155 0.930 . S
C137 C140 1.424 . S
C137 C142 1.245 . S
C137 C143 1.428 . S
C138 C141 1.260 . S
C138 C142 1.477 . S
C138 H156 0.932 . S
C139 C140 1.384 . S
C139 C141 1.479 . S
C139 H157 0.929 . S
C140 C137 1.424 . S
C140 C139 1.384 . S
C140 H158 0.928 . S
C141 C138 1.260 . S
C141 C139 1.479 . S
C142 C137 1.245 . S
C142 C138 1.477 . S
C142 H159 0.932 . S
C143 U126 2.882 . S
C143 C137 1.428 . S
C143 O146 1.301 . S
C143 O147 1.282 . S
O144 U126 2.441 . S
O144 C130 1.249 . S
O145 U126 2.420 . S
O145 C130 1.202 . S
O146 U126 2.455 . S
O146 C143 1.301 . S
O147 U126 2.449 . S
O147 C143 1.282 . S
H148 C121 0.931 . S
H149 C123 0.929 . S
H150 C124 0.930 . S
H151 C125 0.931 . S
H152 C132 0.932 . S
H153 C133 0.930 . S
H154 C134 0.929 . S
H155 C136 0.930 . S
H156 C138 0.932 . S
H157 C139 0.929 . S
H158 C140 0.928 . S
H159 C142 0.932 . S
C160 O176 1.251 . S
C160 O178 1.254 . S
N161 C162 1.333 . S
N161 C166 1.307 . S
N161 Zn167 2.020 . S
C162 N161 1.333 . S
C162 C163 1.379 . S
C162 H180 0.952 . S
C163 C162 1.379 . S
C163 C164 1.390 . S
C163 H190 0.949 . S
C164 C163 1.390 . S
C164 C165 1.357 . S
C165 C164 1.357 . S
C165 C166 1.370 . S
C165 H191 0.950 . S
C166 N161 1.307 . S
C166 C165 1.370 . S
C166 H184 0.948 . S
Zn167 N161 2.020 . S
Zn167 O176 2.039 1_545 S
Zn167 O182 2.034 1_545 S
Zn167 O186 2.025 . S
Zn167 O188 2.024 . S
C168 O187 1.246 . S
C168 O188 1.249 1_655 S
N169 C170 1.307 . S
N169 C171 1.333 . S
N169 Zn175 2.020 . S
C170 N169 1.307 . S
C170 C174 1.370 . S
C170 H181 0.948 . S
C171 N169 1.333 . S
C171 C172 1.379 . S
C171 H179 0.952 1_565 S
C172 C171 1.379 . S
C172 C173 1.390 . S
C172 H192 0.949 . S
C173 C172 1.390 . S
C173 C174 1.357 . S
C174 C170 1.370 . S
C174 C173 1.357 . S
C174 H193 0.950 . S
Zn175 N169 2.020 . S
Zn175 O178 2.025 1_655 S
Zn175 O183 2.024 1_655 S
Zn175 O185 2.039 1_565 S
Zn175 O187 2.034 1_565 S
O176 C160 1.251 . S
O176 Zn167 2.039 1_565 S
C177 O182 1.246 . S
C177 O183 1.249 . S
O178 C160 1.254 . S
O178 Zn175 2.025 1_455 S
H179 C171 0.952 1_545 S
H180 C162 0.952 . S
H181 C170 0.948 . S
O182 Zn167 2.034 1_565 S
O182 C177 1.246 . S
O183 Zn175 2.024 1_455 S
O183 C177 1.249 . S
H184 C166 0.948 . S
O185 Zn175 2.039 1_545 S
O185 C189 1.251 . S
O186 Zn167 2.025 . S
O186 C189 1.254 1_455 S
O187 C168 1.246 . S
O187 Zn175 2.034 1_545 S
O188 Zn167 2.024 . S
O188 C168 1.249 1_455 S
C189 O185 1.251 . S
C189 O186 1.254 1_655 S
H190 C163 0.949 . S
H191 C165 0.950 . S
H192 C172 0.949 . S
H193 C174 0.950 . S
C194 O210 1.251 . S
C194 O212 1.254 . S
N195 C196 1.339 . S
N195 C200 1.307 . S
N195 Zn201 2.020 . S
C196 N195 1.339 . S
C196 C197 1.379 1_554 S
C196 H214 0.946 1_554 S
C197 C196 1.379 1_556 S
C197 C198 1.387 1_556 S
C197 H224 0.952 . S
C198 C197 1.387 1_554 S
C198 C199 1.357 . S
C199 C198 1.357 . S
C199 C200 1.370 . S
C199 H225 0.950 . S
C200 N195 1.307 . S
C200 C199 1.370 . S
C200 H218 0.948 . S
Zn201 N195 2.020 . S
Zn201 O210 2.039 1_554 S
Zn201 O216 2.034 . S
Zn201 O220 2.025 . S
Zn201 O222 2.024 1_554 S
C202 O221 1.246 . S
C202 O222 1.249 . S
N203 C204 1.307 . S
N203 C205 1.333 . S
N203 Zn209 2.020 . S
C204 N203 1.307 . S
C204 C208 1.370 . S
C204 H215 0.948 1_554 S
C205 N203 1.333 . S
C205 C206 1.379 . S
C205 H213 0.952 . S
C206 C205 1.379 . S
C206 C207 1.390 . S
C206 H226 0.949 . S
C207 C206 1.390 . S
C207 C208 1.357 . S
C208 C204 1.370 . S
C208 C207 1.357 . S
C208 H227 0.950 1_554 S
Zn209 N203 2.020 . S
Zn209 O212 2.025 1_554 S
Zn209 O217 2.024 . S
Zn209 O219 2.039 . S
Zn209 O221 2.034 1_554 S
O210 C194 1.251 . S
O210 Zn201 2.039 1_556 S
C211 O216 1.246 . S
C211 O217 1.249 . S
O212 C194 1.254 . S
O212 Zn209 2.025 1_556 S
H213 C205 0.952 . S
H214 C196 0.946 1_556 S
H215 C204 0.948 1_556 S
O216 Zn201 2.034 . S
O216 C211 1.246 . S
O217 Zn209 2.024 . S
O217 C211 1.249 . S
H218 C200 0.948 . S
O219 Zn209 2.039 . S
O219 C223 1.251 . S
O220 Zn201 2.025 . S
O220 C223 1.254 . S
O221 C202 1.246 . S
O221 Zn209 2.034 1_556 S
O222 Zn201 2.024 1_556 S
O222 C202 1.249 . S
C223 O219 1.251 . S
C223 O220 1.254 . S
H224 C197 0.952 . S
H225 C199 0.950 . S
H226 C206 0.949 . S
H227 C208 0.950 1_556 S
H228 C240 0.930 . S
H229 C242 0.930 . S
H230 C243 0.930 . S
H231 C247 0.959 . S
H232 C247 0.959 . S
H233 C247 0.961 . S
H234 C248 0.960 . S
H235 C248 0.961 . S
H236 C248 0.959 . S
H237 C251 0.929 . S
H238 C252 0.931 . S
H239 C254 0.930 . S
C240 H228 0.930 . S
C240 C241 1.399 . S
C240 C245 1.399 . S
C241 C240 1.399 . S
C241 C242 1.376 . S
C242 H229 0.930 . S
C242 C241 1.376 . S
C242 C243 1.388 . S
C243 H230 0.930 . S
C243 C242 1.388 . S
C243 C244 1.390 . S
C244 C243 1.390 . S
C244 C245 1.394 . S
C244 C250 1.465 . S
C245 C240 1.399 . S
C245 C244 1.394 . S
C245 C246 1.516 . S
C246 C245 1.516 . S
C246 C247 1.502 . S
C246 C248 1.561 . S
C246 C249 1.526 . S
C247 H231 0.959 . S
C247 H232 0.959 . S
C247 H233 0.961 . S
C247 C246 1.502 . S
C248 H234 0.960 . S
C248 H235 0.961 . S
C248 H236 0.959 . S
C248 C246 1.561 . S
C249 C246 1.526 . S
C249 C250 1.396 . S
C249 C254 1.390 . S
C250 C244 1.465 . S
C250 C249 1.396 . S
C250 C251 1.399 . S
C251 H237 0.929 . S
C251 C250 1.399 . S
C251 C252 1.385 . S
C252 H238 0.931 . S
C252 C251 1.385 . S
C252 C253 1.389 . S
C253 C252 1.389 . S
C253 C254 1.387 . S
C254 H239 0.930 . S
C254 C249 1.390 . S
C254 C253 1.387 . S
H255 C267 0.930 . S
H256 C269 0.930 . S
H257 C270 0.930 . S
H258 C274 0.959 . S
H259 C274 0.959 . S
H260 C274 0.961 . S
H261 C275 0.960 . S
H262 C275 0.961 . S
H263 C275 0.959 . S
H264 C278 0.929 . S
H265 C279 0.931 . S
H266 C281 0.930 . S
C267 H255 0.930 . S
C267 C268 1.399 1_556 S
C267 C272 1.399 . S
C268 C267 1.399 1_554 S
C268 C269 1.376 . S
C269 H256 0.930 . S
C269 C268 1.376 . S
C269 C270 1.388 . S
C270 H257 0.930 . S
C270 C269 1.388 . S
C270 C271 1.390 . S
C271 C270 1.390 . S
C271 C272 1.394 1_554 S
C271 C277 1.465 . S
C272 C267 1.399 . S
C272 C271 1.394 1_556 S
C272 C273 1.516 . S
C273 C272 1.516 . S
C273 C274 1.502 . S
C273 C275 1.561 . S
C273 C276 1.526 . S
C274 H258 0.959 . S
C274 H259 0.959 . S
C274 H260 0.961 . S
C274 C273 1.502 . S
C275 H261 0.960 . S
C275 H262 0.961 . S
C275 H263 0.959 . S
C275 C273 1.561 . S
C276 C273 1.526 . S
C276 C277 1.396 1_556 S
C276 C281 1.390 . S
C277 C271 1.465 . S
C277 C276 1.396 1_554 S
C277 C278 1.399 . S
C278 H264 0.929 . S
C278 C277 1.399 . S
C278 C279 1.385 . S
C279 H265 0.931 . S
C279 C278 1.385 . S
C279 C280 1.389 . S
C280 C279 1.389 . S
C280 C281 1.387 1_554 S
C281 H266 0.930 . S
C281 C276 1.390 . S
C281 C280 1.387 1_556 S
H282 C294 0.930 . S
H283 C296 0.930 . S
H284 C297 0.930 . S
H285 C301 0.959 . S
H286 C301 0.959 . S
H287 C301 0.961 . S
H288 C302 0.960 . S
H289 C302 0.961 . S
H290 C302 0.959 . S
H291 C305 0.929 . S
H292 C306 0.931 . S
H293 C308 0.930 . S
C294 H282 0.930 . S
C294 C295 1.399 . S
C294 C299 1.399 . S
C295 C294 1.399 . S
C295 C296 1.376 . S
C296 H283 0.930 . S
C296 C295 1.376 . S
C296 C297 1.388 . S
C297 H284 0.930 . S
C297 C296 1.388 . S
C297 C298 1.390 . S
C298 C297 1.390 . S
C298 C299 1.394 . S
C298 C304 1.465 . S
C299 C294 1.399 . S
C299 C298 1.394 . S
C299 C300 1.516 . S
C300 C299 1.516 . S
C300 C301 1.502 . S
C300 C302 1.561 . S
C300 C303 1.526 . S
C301 H285 0.959 . S
C301 H286 0.959 . S
C301 H287 0.961 . S
C301 C300 1.502 . S
C302 H288 0.960 . S
C302 H289 0.961 . S
C302 H290 0.959 . S
C302 C300 1.561 . S
C303 C300 1.526 . S
C303 C304 1.396 . S
C303 C308 1.390 . S
C304 C298 1.465 . S
C304 C303 1.396 . S
C304 C305 1.399 . S
C305 H291 0.929 . S
C305 C304 1.399 . S
C305 C306 1.385 . S
C306 H292 0.931 . S
C306 C305 1.385 . S
C306 C307 1.389 . S
C307 C306 1.389 . S
C307 C308 1.387 . S
C308 H293 0.930 . S
C308 C303 1.390 . S
C308 C307 1.387 . S
H309 C321 0.930 . S
H310 C323 0.930 . S
H311 C324 0.930 . S
H312 C328 0.959 1_554 S
H313 C328 0.959 . S
H314 C328 0.961 . S
H315 C329 0.960 . S
H316 C329 0.961 . S
H317 C329 0.959 . S
H318 C332 0.929 . S
H319 C333 0.931 . S
H320 C335 0.930 . S
C321 H309 0.930 . S
C321 C322 1.399 1_556 S
C321 C326 1.399 . S
C322 C321 1.399 1_554 S
C322 C323 1.376 . S
C323 H310 0.930 . S
C323 C322 1.376 . S
C323 C324 1.388 . S
C324 H311 0.930 . S
C324 C323 1.388 . S
C324 C325 1.390 . S
C325 C324 1.390 . S
C325 C326 1.394 1_554 S
C325 C331 1.465 . S
C326 C321 1.399 . S
C326 C325 1.394 1_556 S
C326 C327 1.516 . S
C327 C326 1.516 . S
C327 C328 1.502 . S
C327 C329 1.561 . S
C327 C330 1.526 . S
C328 H312 0.959 1_556 S
C328 H313 0.959 . S
C328 H314 0.961 . S
C328 C327 1.502 . S
C329 H315 0.960 . S
C329 H316 0.961 . S
C329 H317 0.959 . S
C329 C327 1.561 . S
C330 C327 1.526 . S
C330 C331 1.396 1_556 S
C330 C335 1.390 . S
C331 C325 1.465 . S
C331 C330 1.396 1_554 S
C331 C332 1.399 . S
C332 H318 0.929 . S
C332 C331 1.399 . S
C332 C333 1.385 . S
C333 H319 0.931 . S
C333 C332 1.385 . S
C333 C334 1.389 . S
C334 C333 1.389 . S
C334 C335 1.387 1_554 S
C335 H320 0.930 . S
C335 C330 1.390 . S
C335 C334 1.387 1_556 S
H336 C348 0.930 . S
H337 C350 0.930 . S
H338 C351 0.930 . S
H339 C355 0.959 . S
H340 C355 0.959 . S
H341 C355 0.961 . S
H342 C356 0.960 . S
H343 C356 0.961 . S
H344 C356 0.959 . S
H345 C359 0.929 . S
H346 C360 0.931 . S
H347 C362 0.930 . S
C348 H336 0.930 . S
C348 C349 1.399 . S
C348 C353 1.399 . S
C349 C348 1.399 . S
C349 C350 1.376 . S
C350 H337 0.930 . S
C350 C349 1.376 . S
C350 C351 1.388 . S
C351 H338 0.930 . S
C351 C350 1.388 . S
C351 C352 1.390 . S
C352 C351 1.390 . S
C352 C353 1.394 . S
C352 C358 1.465 . S
C353 C348 1.399 . S
C353 C352 1.394 . S
C353 C354 1.516 . S
C354 C353 1.516 . S
C354 C355 1.502 . S
C354 C356 1.561 . S
C354 C357 1.526 . S
C355 H339 0.959 . S
C355 H340 0.959 . S
C355 H341 0.961 . S
C355 C354 1.502 . S
C356 H342 0.960 . S
C356 H343 0.961 . S
C356 H344 0.959 . S
C356 C354 1.561 . S
C357 C354 1.526 . S
C357 C358 1.396 . S
C357 C362 1.390 . S
C358 C352 1.465 . S
C358 C357 1.396 . S
C358 C359 1.399 . S
C359 H345 0.929 . S
C359 C358 1.399 . S
C359 C360 1.385 . S
C360 H346 0.931 . S
C360 C359 1.385 . S
C360 C361 1.389 . S
C361 C360 1.389 . S
C361 C362 1.387 . S
C362 H347 0.930 . S
C362 C357 1.390 . S
C362 C361 1.387 . S
H363 C375 0.930 . S
H364 C377 0.930 . S
H365 C378 0.930 . S
H366 C382 0.959 . S
H367 C382 0.959 . S
H368 C382 0.961 . S
H369 C383 0.960 . S
H370 C383 0.961 . S
H371 C383 0.959 . S
H372 C386 0.929 . S
H373 C387 0.931 . S
H374 C389 0.930 . S
C375 H363 0.930 . S
C375 C376 1.399 . S
C375 C380 1.399 . S
C376 C375 1.399 . S
C376 C377 1.376 . S
C377 H364 0.930 . S
C377 C376 1.376 . S
C377 C378 1.388 . S
C378 H365 0.930 . S
C378 C377 1.388 . S
C378 C379 1.390 . S
C379 C378 1.390 . S
C379 C380 1.394 . S
C379 C385 1.465 . S
C380 C375 1.399 . S
C380 C379 1.394 . S
C380 C381 1.516 . S
C381 C380 1.516 . S
C381 C382 1.502 . S
C381 C383 1.561 . S
C381 C384 1.526 . S
C382 H366 0.959 . S
C382 H367 0.959 . S
C382 H368 0.961 . S
C382 C381 1.502 . S
C383 H369 0.960 . S
C383 H370 0.961 . S
C383 H371 0.959 . S
C383 C381 1.561 . S
C384 C381 1.526 . S
C384 C385 1.396 . S
C384 C389 1.390 . S
C385 C379 1.465 . S
C385 C384 1.396 . S
C385 C386 1.399 . S
C386 H372 0.929 . S
C386 C385 1.399 . S
C386 C387 1.385 . S
C387 H373 0.931 . S
C387 C386 1.385 . S
C387 C388 1.389 . S
C388 C387 1.389 . S
C388 C389 1.387 . S
C389 H374 0.930 . S
C389 C384 1.390 . S
C389 C388 1.387 . S
H390 C402 0.930 . S
H391 C404 0.930 . S
H392 C405 0.930 . S
H393 C409 0.959 . S
H394 C409 0.959 . S
H395 C409 0.961 . S
H396 C410 0.960 . S
H397 C410 0.961 . S
H398 C410 0.959 . S
H399 C413 0.914 1_455 S
H400 C414 0.931 1_455 S
H401 C416 0.930 . S
C402 H390 0.930 . S
C402 C403 1.399 . S
C402 C407 1.399 . S
C403 C402 1.399 . S
C403 C404 1.376 . S
C404 H391 0.930 . S
C404 C403 1.376 . S
C404 C405 1.388 . S
C405 H392 0.930 . S
C405 C404 1.388 . S
C405 C406 1.390 . S
C406 C405 1.390 . S
C406 C407 1.394 . S
C406 C412 1.465 . S
C407 C402 1.399 . S
C407 C406 1.394 . S
C407 C408 1.516 . S
C408 C407 1.516 . S
C408 C409 1.502 . S
C408 C410 1.561 . S
C408 C411 1.526 . S
C409 H393 0.959 . S
C409 H394 0.959 . S
C409 H395 0.961 . S
C409 C408 1.502 . S
C410 H396 0.960 . S
C410 H397 0.961 . S
C410 H398 0.959 . S
C410 C408 1.561 . S
C411 C408 1.526 . S
C411 C412 1.396 . S
C411 C416 1.390 . S
C412 C406 1.465 . S
C412 C411 1.396 . S
C412 C413 1.399 . S
C413 H399 0.914 1_655 S
C413 C412 1.399 . S
C413 C414 1.385 . S
C414 H400 0.931 1_655 S
C414 C413 1.385 . S
C414 C415 1.389 . S
C415 C414 1.389 . S
C415 C416 1.387 . S
C416 H401 0.930 . S
C416 C411 1.390 . S
C416 C415 1.387 . S
H417 C429 0.930 . S
H418 C431 0.930 . S
H419 C432 0.930 . S
H420 C436 0.959 . S
H421 C436 0.959 . S
H422 C436 0.961 . S
H423 C437 0.960 . S
H424 C437 0.961 . S
H425 C437 0.959 . S
H426 C440 0.929 . S
H427 C441 0.931 . S
H428 C443 0.930 . S
C429 H417 0.930 . S
C429 C430 1.399 . S
C429 C434 1.399 . S
C430 C429 1.399 . S
C430 C431 1.376 . S
C431 H418 0.930 . S
C431 C430 1.376 . S
C431 C432 1.388 . S
C432 H419 0.930 . S
C432 C431 1.388 . S
C432 C433 1.390 . S
C433 C432 1.390 . S
C433 C434 1.394 . S
C433 C439 1.465 . S
C434 C429 1.399 . S
C434 C433 1.394 . S
C434 C435 1.516 . S
C435 C434 1.516 . S
C435 C436 1.502 . S
C435 C437 1.561 . S
C435 C438 1.526 . S
C436 H420 0.959 . S
C436 H421 0.959 . S
C436 H422 0.961 . S
C436 C435 1.502 . S
C437 H423 0.960 . S
C437 H424 0.961 . S
C437 H425 0.959 . S
C437 C435 1.561 . S
C438 C435 1.526 . S
C438 C439 1.396 . S
C438 C443 1.390 . S
C439 C433 1.465 . S
C439 C438 1.396 . S
C439 C440 1.399 . S
C440 H426 0.929 . S
C440 C439 1.399 . S
C440 C441 1.385 . S
C441 H427 0.931 . S
C441 C440 1.385 . S
C441 C442 1.389 . S
C442 C441 1.389 . S
C442 C443 1.387 . S
C443 H428 0.930 . S
C443 C438 1.390 . S
C443 C442 1.387 . S
H444 C456 0.930 . S
H445 C458 0.930 . S
H446 C459 0.930 . S
H447 C463 0.959 . S
H448 C463 0.959 . S
H449 C463 0.961 . S
H450 C464 0.960 . S
H451 C464 0.961 . S
H452 C464 0.959 . S
H453 C467 0.929 . S
H454 C468 0.931 . S
H455 C470 0.930 . S
C456 H444 0.930 . S
C456 C457 1.399 . S
C456 C461 1.399 . S
C457 C456 1.399 . S
C457 C458 1.376 . S
C458 H445 0.930 . S
C458 C457 1.376 . S
C458 C459 1.388 . S
C459 H446 0.930 . S
C459 C458 1.388 . S
C459 C460 1.390 . S
C460 C459 1.390 . S
C460 C461 1.394 . S
C460 C466 1.465 . S
C461 C456 1.399 . S
C461 C460 1.394 . S
C461 C462 1.516 . S
C462 C461 1.516 . S
C462 C463 1.502 . S
C462 C464 1.561 . S
C462 C465 1.526 . S
C463 H447 0.959 . S
C463 H448 0.959 . S
C463 H449 0.961 . S
C463 C462 1.502 . S
C464 H450 0.960 . S
C464 H451 0.961 . S
C464 H452 0.959 . S
C464 C462 1.561 . S
C465 C462 1.526 . S
C465 C466 1.396 . S
C465 C470 1.390 . S
C466 C460 1.465 . S
C466 C465 1.396 . S
C466 C467 1.399 . S
C467 H453 0.929 . S
C467 C466 1.399 . S
C467 C468 1.385 . S
C468 H454 0.931 . S
C468 C467 1.385 . S
C468 C469 1.389 . S
C469 C468 1.389 . S
C469 C470 1.387 . S
C470 H455 0.930 . S
C470 C465 1.390 . S
C470 C469 1.387 . S
H471 C483 0.930 . S
H472 C485 0.930 . S
H473 C486 0.930 1_455 S
H474 C490 0.959 . S
H475 C490 0.959 . S
H476 C490 0.961 . S
H477 C491 0.960 . S
H478 C491 0.961 . S
H479 C491 0.959 . S
H480 C494 0.929 . S
H481 C495 0.931 . S
H482 C497 0.930 . S
C483 H471 0.930 . S
C483 C484 1.399 . S
C483 C488 1.399 . S
C484 C483 1.399 . S
C484 C485 1.376 . S
C485 H472 0.930 . S
C485 C484 1.376 . S
C485 C486 1.388 . S
C486 H473 0.930 1_655 S
C486 C485 1.388 . S
C486 C487 1.390 . S
C487 C486 1.390 . S
C487 C488 1.394 . S
C487 C493 1.465 . S
C488 C483 1.399 . S
C488 C487 1.394 . S
C488 C489 1.516 . S
C489 C488 1.516 . S
C489 C490 1.502 . S
C489 C491 1.561 . S
C489 C492 1.526 . S
C490 H474 0.959 . S
C490 H475 0.959 . S
C490 H476 0.961 . S
C490 C489 1.502 . S
C491 H477 0.960 . S
C491 H478 0.961 . S
C491 H479 0.959 . S
C491 C489 1.561 . S
C492 C489 1.526 . S
C492 C493 1.396 . S
C492 C497 1.390 . S
C493 C487 1.465 . S
C493 C492 1.396 . S
C493 C494 1.399 1_655 S
C494 H480 0.929 . S
C494 C493 1.399 1_455 S
C494 C495 1.385 . S
C495 H481 0.931 . S
C495 C494 1.385 . S
C495 C496 1.389 1_455 S
C496 C495 1.389 1_655 S
C496 C497 1.387 . S
C497 H482 0.930 . S
C497 C492 1.390 . S
C497 C496 1.387 . S
H498 C510 0.930 . S
H499 C512 0.930 . S
H500 C513 0.930 . S
H501 C517 0.959 . S
H502 C517 0.959 . S
H503 C517 0.961 . S
H504 C518 0.960 . S
H505 C518 0.961 . S
H506 C518 0.959 . S
H507 C521 0.929 . S
H508 C522 0.931 . S
H509 C524 0.930 . S
C510 H498 0.930 . S
C510 C511 1.399 . S
C510 C515 1.399 . S
C511 C510 1.399 . S
C511 C512 1.376 . S
C512 H499 0.930 . S
C512 C511 1.376 . S
C512 C513 1.388 . S
C513 H500 0.930 . S
C513 C512 1.388 . S
C513 C514 1.390 . S
C514 C513 1.390 . S
C514 C515 1.394 . S
C514 C520 1.465 . S
C515 C510 1.399 . S
C515 C514 1.394 . S
C515 C516 1.516 . S
C516 C515 1.516 . S
C516 C517 1.502 . S
C516 C518 1.561 . S
C516 C519 1.526 . S
C517 H501 0.959 . S
C517 H502 0.959 . S
C517 H503 0.961 . S
C517 C516 1.502 . S
C518 H504 0.960 . S
C518 H505 0.961 . S
C518 H506 0.959 . S
C518 C516 1.561 . S
C519 C516 1.526 . S
C519 C520 1.396 . S
C519 C524 1.390 . S
C520 C514 1.465 . S
C520 C519 1.396 . S
C520 C521 1.399 . S
C521 H507 0.929 . S
C521 C520 1.399 . S
C521 C522 1.385 . S
C522 H508 0.931 . S
C522 C521 1.385 . S
C522 C523 1.389 . S
C523 C522 1.389 . S
C523 C524 1.387 . S
C524 H509 0.930 . S
C524 C519 1.390 . S
C524 C523 1.387 . S
H525 C537 0.930 . S
H526 C539 0.930 . S
H527 C540 0.930 . S
H528 C544 0.959 . S
H529 C544 0.959 . S
H530 C544 0.961 . S
H531 C545 0.960 . S
H532 C545 0.961 . S
H533 C545 0.959 . S
H534 C548 0.929 . S
H535 C549 0.931 . S
H536 C551 0.930 . S
C537 H525 0.930 . S
C537 C538 1.399 . S
C537 C542 1.399 . S
C538 C537 1.399 . S
C538 C539 1.376 . S
C539 H526 0.930 . S
C539 C538 1.376 . S
C539 C540 1.388 . S
C540 H527 0.930 . S
C540 C539 1.388 . S
C540 C541 1.390 . S
C541 C540 1.390 . S
C541 C542 1.394 . S
C541 C547 1.465 . S
C542 C537 1.399 . S
C542 C541 1.394 . S
C542 C543 1.516 . S
C543 C542 1.516 . S
C543 C544 1.502 . S
C543 C545 1.561 . S
C543 C546 1.526 . S
C544 H528 0.959 . S
C544 H529 0.959 . S
C544 H530 0.961 . S
C544 C543 1.502 . S
C545 H531 0.960 . S
C545 H532 0.961 . S
C545 H533 0.959 . S
C545 C543 1.561 . S
C546 C543 1.526 . S
C546 C547 1.396 . S
C546 C551 1.390 . S
C547 C541 1.465 . S
C547 C546 1.396 . S
C547 C548 1.399 . S
C548 H534 0.929 . S
C548 C547 1.399 . S
C548 C549 1.385 . S
C549 H535 0.931 . S
C549 C548 1.385 . S
C549 C550 1.389 . S
C550 C549 1.389 . S
C550 C551 1.387 . S
C551 H536 0.930 . S
C551 C546 1.390 . S
C551 C550 1.387 . S
C253 C164 1.693 . S
C241 C135 1.629 . S
C268 C15 1.557 . S
C280 C207 1.599 . S
C295 C55 1.634 . S
C307 C173 1.686 . S
C322 C95 1.550 . S
C334 C198 1.600 . S
C361 C160 1.654 . S
C349 C2 1.527 . S
C388 C202 1.749 . S
C376 C42 1.771 . S
C403 C82 1.602 . S
C415 C168 1.611 . S
C430 C141 1.600 . S
C442 C194 1.769 . S
C469 C223 1.791 . S
C457 C61 1.753 . S
C496 C189 1.676 . S
C484 C101 1.635 . S
C523 C211 1.772 . S
C511 C122 1.729 . S
C538 C21 1.606 . S
C550 C177 1.659 . S
