# Generated by pormake.
# Topology pth, (4,4)-cn, num edge types: 1
# Building blocks:
#     Node 0, Type 0, BuildingBlock: TATPOV_clean_sbu_0, # of connection points: 4
#     Node 1, Type 0, BuildingBlock: TATPOV_clean_sbu_0, # of connection points: 4
#     Node 2, Type 0, BuildingBlock: TATPOV_clean_sbu_0, # of connection points: 4
#     Node 3, Type 1, BuildingBlock: KOZSID_clean_sbu_0, # of connection points: 4
#     Node 4, Type 1, BuildingBlock: KOZSID_clean_sbu_0, # of connection points: 4
#     Node 5, Type 1, BuildingBlock: KOZSID_clean_sbu_0, # of connection points: 4
#     Edge 6, Type (0, 1), BuildingBlock: KIFKEQ_clean_linker_1, # of connection points: 2
#     Edge 7, Type (0, 1), BuildingBlock: KIFKEQ_clean_linker_1, # of connection points: 2
#     Edge 8, Type (0, 1), BuildingBlock: KIFKEQ_clean_linker_1, # of connection points: 2
#     Edge 9, Type (0, 1), BuildingBlock: KIFKEQ_clean_linker_1, # of connection points: 2
#     Edge 10, Type (0, 1), BuildingBlock: KIFKEQ_clean_linker_1, # of connection points: 2
#     Edge 11, Type (0, 1), BuildingBlock: KIFKEQ_clean_linker_1, # of connection points: 2
#     Edge 12, Type (0, 1), BuildingBlock: KIFKEQ_clean_linker_1, # of connection points: 2
#     Edge 13, Type (0, 1), BuildingBlock: KIFKEQ_clean_linker_1, # of connection points: 2
#     Edge 14, Type (0, 1), BuildingBlock: KIFKEQ_clean_linker_1, # of connection points: 2
#     Edge 15, Type (0, 1), BuildingBlock: KIFKEQ_clean_linker_1, # of connection points: 2
#     Edge 16, Type (0, 1), BuildingBlock: KIFKEQ_clean_linker_1, # of connection points: 2
#     Edge 17, Type (0, 1), BuildingBlock: KIFKEQ_clean_linker_1, # of connection points: 2
# Relax obj value: 0.036
# Max RMSD: 0.165
# Mean RMSD: 0.080
data_MOF--net-pth--node1-TATPOV_clean_sbu_0--node2-KOZSID_clean_sbu_0--edge1-KIFKEQ_clean_linker_1
_symmetry_space_group_name_H-M    P1
_symmetry_Int_Tables_number       1
_symmetry_cell_setting            triclinic
loop_
_symmetry_equiv_pos_as_xyz
'x, y, z'
_cell_length_a     27.281408
_cell_length_b     27.000211
_cell_length_c     60.017279
_cell_angle_alpha  89.836615
_cell_angle_beta   89.643984
_cell_angle_gamma 121.17119
loop_
_atom_site_label
_atom_site_type_symbol
_atom_site_fract_x
_atom_site_fract_y
_atom_site_fract_z
_atom_type_partial_charge
Zn0 Zn 0.18152 0.04056 0.01092 0.0
Zn1 Zn 0.13953 0.08947 0.03655 0.0
O2 O 0.14042 0.02847 0.05723 0.0
O3 O 0.17392 0.98674 0.03567 0.0
O4 O 0.11941 0.13521 0.05725 0.0
O5 O 0.255 0.11441 0.00458 0.0
O6 O 0.21492 0.15553 0.02242 0.0
C7 C 0.15398 0.99025 0.05431 0.0
C8 C 0.07342 0.02535 0.9958 0.0
O9 O 0.07462 0.05069 0.01384 0.0
O10 O 0.11439 0.01811 0.99063 0.0
C11 C 0.07043 0.12928 0.06013 0.0
O12 O 0.0262 0.08875 0.04926 0.0
C13 C 0.25614 0.15974 0.01074 0.0
Zn14 Zn 0.16921 0.16162 0.3401 0.0
Zn15 Zn 0.08219 0.12158 0.36845 0.0
O16 O 0.149 0.13478 0.38884 0.0
O17 O 0.22033 0.16544 0.3648 0.0
O18 O 0.01586 0.10447 0.38874 0.0
O19 O 0.16562 0.23047 0.33041 0.0
O20 O 0.08767 0.19063 0.35112 0.0
C21 C 0.2011 0.15102 0.3845 0.0
C22 C 0.07584 0.04498 0.33071 0.0
O23 O 0.05439 0.04931 0.349 0.0
O24 O 0.12239 0.08719 0.32324 0.0
C25 C 0.01026 0.09435 0.40958 0.0
O26 O 0.04957 0.08979 0.42032 0.0
C27 C 0.12131 0.2296 0.3373 0.0
Zn28 Zn 0.11839 0.95443 0.72513 0.0
Zn29 Zn 0.08374 0.01276 0.69993 0.0
O30 O 0.13796 0.00254 0.67888 0.0
O31 O 0.16688 0.95501 0.69944 0.0
O32 O 0.04666 0.0457 0.68077 0.0
O33 O 0.03785 0.88766 0.73044 0.0
O34 O 0.01137 0.94139 0.71284 0.0
C35 C 0.16852 0.97975 0.68125 0.0
C36 C 0.15357 0.07052 0.74096 0.0
O37 O 0.12987 0.07407 0.72329 0.0
O38 O 0.15223 0.02403 0.74576 0.0
C39 C 0.03188 0.02777 0.66096 0.0
O40 O 0.04577 0.99176 0.65254 0.0
C41 C 0.9986 0.89584 0.72387 0.0
C42 C 0.09868 0.66092 0.16782 0.0
C43 C 0.15361 0.70136 0.16044 0.0
C44 C 0.19051 0.69454 0.17345 0.0
C45 C 0.15617 0.65034 0.18786 0.0
N46 N 0.09946 0.62778 0.1846 0.0
Co47 Co 0.03433 0.56312 0.20173 0.0
N48 N 0.0886 0.55952 0.2231 0.0
C49 C 0.14645 0.59347 0.22315 0.0
C50 C 0.17192 0.5816 0.24024 0.0
C51 C 0.12781 0.53706 0.25172 0.0
C52 C 0.07778 0.52416 0.24083 0.0
N53 N 0.9693 0.49759 0.21866 0.0
C54 C 0.97023 0.46617 0.23614 0.0
C55 C 0.91556 0.42253 0.24234 0.0
C56 C 0.87862 0.42617 0.22813 0.0
C57 C 0.91278 0.47156 0.21411 0.0
N58 N 0.98023 0.56836 0.18067 0.0
C59 C 0.92236 0.53502 0.18076 0.0
C60 C 0.89681 0.55168 0.1653 0.0
C61 C 0.94088 0.59923 0.15501 0.0
C62 C 0.99095 0.60864 0.16477 0.0
N63 N 0.03808 0.50576 0.18212 0.0
C64 C 0.04227 0.4214 0.15583 0.0
C65 C 0.99106 0.42051 0.15891 0.0
C66 C 0.98994 0.46263 0.172 0.0
C67 C 0.09151 0.46569 0.1659 0.0
C68 C 0.08851 0.50706 0.17879 0.0
N69 N 0.03036 0.61998 0.22125 0.0
C70 C 0.97533 0.65507 0.23981 0.0
C71 C 0.02542 0.7047 0.24673 0.0
C72 C 0.07791 0.71018 0.24128 0.0
C73 C 0.07939 0.6678 0.22861 0.0
C74 C 0.97877 0.6135 0.22723 0.0
H75 H 0.12073 0.67502 0.22471 0.0
H76 H 0.93914 0.57701 0.22221 0.0
H77 H 0.94939 0.45886 0.17383 0.0
H78 H 0.12759 0.53942 0.18597 0.0
C79 C 0.17582 0.63396 0.20621 0.0
C80 C 0.04744 0.65805 0.15929 0.0
C81 C 0.02177 0.47511 0.24696 0.0
C82 C 0.89323 0.49066 0.1965 0.0
H83 H 0.16579 0.73371 0.14747 0.0
H84 H 0.23684 0.72044 0.17311 0.0
H85 H 0.21723 0.60198 0.24363 0.0
H86 H 0.13207 0.51544 0.26614 0.0
H87 H 0.9038 0.39109 0.25564 0.0
H88 H 0.83242 0.39865 0.22791 0.0
H89 H 0.85144 0.53273 0.1624 0.0
H90 H 0.93656 0.62497 0.14219 0.0
H91 H 0.95158 0.38677 0.15163 0.0
H92 H 0.13248 0.46884 0.16372 0.0
H93 H 0.93364 0.64897 0.24351 0.0
H94 H 0.11793 0.74725 0.24666 0.0
C95 C 0.48885 0.01196 0.56747 0.0
C96 C 0.4452 0.95631 0.57309 0.0
C97 C 0.451 0.91961 0.5593 0.0
C98 C 0.49769 0.95477 0.54618 0.0
N99 N 0.52292 0.01169 0.55103 0.0
Co100 Co 0.58992 0.07802 0.53527 0.0
N101 N 0.59582 0.02427 0.51386 0.0
C102 C 0.56235 0.96585 0.51341 0.0
C103 C 0.57918 0.94032 0.49796 0.0
C104 C 0.62704 0.98488 0.48821 0.0
C105 C 0.63646 0.03538 0.49824 0.0
N106 N 0.6561 0.14436 0.51915 0.0
C107 C 0.69042 0.14404 0.50278 0.0
C108 C 0.73254 0.19972 0.49652 0.0
C109 C 0.72548 0.23658 0.50981 0.0
C110 C 0.67946 0.20146 0.52329 0.0
N111 N 0.58489 0.13161 0.55703 0.0
C112 C 0.61977 0.18981 0.55805 0.0
C113 C 0.60442 0.21488 0.57433 0.0
C114 C 0.55644 0.17019 0.58409 0.0
C115 C 0.54527 0.12023 0.57315 0.0
N116 N 0.64433 0.07176 0.55524 0.0
C117 C 0.72746 0.06413 0.58034 0.0
C118 C 0.73442 0.11773 0.57486 0.0
C119 C 0.69258 0.1205 0.56262 0.0
C120 C 0.67708 0.01429 0.57359 0.0
C121 C 0.63651 0.01905 0.56114 0.0
N122 N 0.53564 0.0846 0.5153 0.0
C123 C 0.49866 0.14169 0.49996 0.0
C124 C 0.45486 0.09346 0.48921 0.0
C125 C 0.4526 0.04079 0.49141 0.0
C126 C 0.49295 0.03728 0.50453 0.0
C127 C 0.53844 0.13646 0.51264 0.0
H128 H 0.4884 0.99576 0.50586 0.0
H129 H 0.57084 0.17506 0.52019 0.0
H130 H 0.70095 0.16274 0.55897 0.0
H131 H 0.59955 0.97951 0.55623 0.0
C132 C 0.51758 0.93588 0.52867 0.0
C133 C 0.49451 0.06365 0.57755 0.0
C134 C 0.68667 0.09229 0.49355 0.0
C135 C 0.66203 0.22018 0.54178 0.0
H136 H 0.41183 0.94367 0.58554 0.0
H137 H 0.42362 0.87299 0.55856 0.0
H138 H 0.56021 0.89455 0.49476 0.0
H139 H 0.65298 0.98018 0.47569 0.0
H140 H 0.76601 0.21222 0.48414 0.0
H141 H 0.75238 0.28327 0.51031 0.0
H142 H 0.62415 0.26052 0.57796 0.0
H143 H 0.53135 0.17416 0.59722 0.0
H144 H 0.77274 0.15779 0.57942 0.0
H145 H 0.66882 0.97159 0.57781 0.0
H146 H 0.50282 0.18369 0.49835 0.0
H147 H 0.41931 0.0022 0.48334 0.0
C148 C 0.67493 0.61146 0.829 0.0
C149 C 0.71848 0.60313 0.82149 0.0
C150 C 0.72078 0.56551 0.83596 0.0
C151 C 0.6793 0.5535 0.85158 0.0
N152 N 0.65015 0.58084 0.84793 0.0
Co153 Co 0.58992 0.57947 0.86777 0.0
N154 N 0.59355 0.52382 0.88893 0.0
C155 C 0.62702 0.50059 0.88713 0.0
C156 C 0.61909 0.4627 0.90396 0.0
C157 C 0.57715 0.4606 0.9171 0.0
C158 C 0.56185 0.49742 0.90741 0.0
N159 N 0.53124 0.5796 0.88811 0.0
C160 C 0.50582 0.54809 0.90682 0.0
C161 C 0.46663 0.5608 0.91578 0.0
C162 C 0.46696 0.60153 0.90214 0.0
C163 C 0.50615 0.61131 0.8857 0.0
N164 N 0.58483 0.63341 0.84615 0.0
C165 C 0.54937 0.6544 0.84754 0.0
C166 C 0.55452 0.68929 0.82995 0.0
C167 C 0.59586 0.69086 0.81652 0.0
C168 C 0.61393 0.65705 0.82684 0.0
N169 N 0.52872 0.51282 0.85127 0.0
C170 C 0.44084 0.41705 0.82845 0.0
C171 C 0.43273 0.46084 0.8365 0.0
C172 C 0.47693 0.50806 0.8476 0.0
C173 C 0.49401 0.42238 0.83196 0.0
C174 C 0.53677 0.46992 0.84345 0.0
N175 N 0.65112 0.64636 0.88432 0.0
C176 C 0.6935 0.74421 0.8981 0.0
C177 C 0.73981 0.74222 0.90677 0.0
C178 C 0.74039 0.6911 0.90435 0.0
C179 C 0.69624 0.64432 0.89313 0.0
C180 C 0.64995 0.69616 0.88706 0.0
H181 H 0.69988 0.60715 0.89176 0.0
H182 H 0.61611 0.70067 0.88075 0.0
H183 H 0.46797 0.53996 0.85319 0.0
H184 H 0.57597 0.47097 0.84581 0.0
C185 C 0.66632 0.51616 0.86969 0.0
C186 C 0.65983 0.65 0.81791 0.0
C187 C 0.51491 0.5033 0.91577 0.0
C188 C 0.5149 0.64404 0.86639 0.0
H189 H 0.74649 0.62262 0.80721 0.0
H190 H 0.74966 0.54926 0.8353 0.0
H191 H 0.64087 0.43908 0.90628 0.0
H192 H 0.55912 0.43423 0.93196 0.0
H193 H 0.43941 0.5414 0.93029 0.0
H194 H 0.43999 0.61991 0.90351 0.0
H195 H 0.53178 0.71187 0.82741 0.0
H196 H 0.61158 0.71486 0.80103 0.0
H197 H 0.39218 0.45856 0.83457 0.0
H198 H 0.50308 0.39031 0.82574 0.0
H199 H 0.69127 0.783 0.89941 0.0
H200 H 0.77471 0.68686 0.91119 0.0
H201 H 0.15399 0.21834 0.08422 0.0
H202 H 0.97323 0.13173 0.06964 0.0
H203 H 0.14543 0.287 0.10754 0.0
H204 H 0.96447 0.20004 0.09344 0.0
H205 H 0.98872 0.37467 0.11629 0.0
H206 H 0.99348 0.30197 0.0939 0.0
H207 H 0.10481 0.29324 0.14259 0.0
H208 H 0.10019 0.36601 0.16491 0.0
C209 C 0.11227 0.21362 0.08612 0.0
C210 C 0.06429 0.16951 0.07501 0.0
C211 C 0.10731 0.25287 0.09962 0.0
C212 C 0.05425 0.24903 0.1024 0.0
C213 C 0.00611 0.20463 0.09145 0.0
C214 C 0.01106 0.16526 0.07791 0.0
C215 C 0.01377 0.35682 0.12231 0.0
C216 C 0.04432 0.37638 0.14233 0.0
C217 C 0.01643 0.31507 0.1095 0.0
C218 C 0.04965 0.29186 0.11641 0.0
C219 C 0.07961 0.31093 0.13658 0.0
C220 C 0.07701 0.3527 0.14937 0.0
H221 H 0.93714 0.1267 0.39401 0.0
H222 H 0.97523 0.06039 0.45279 0.0
H223 H 0.8616 0.13008 0.4142 0.0
H224 H 0.89765 0.06138 0.47285 0.0
H225 H 0.79131 0.12165 0.50936 0.0
H226 H 0.87046 0.12363 0.48911 0.0
H227 H 0.76914 0.07201 0.42909 0.0
H228 H 0.69174 0.0731 0.44929 0.0
C229 C 0.92887 0.11205 0.4112 0.0
C230 C 0.96221 0.09313 0.42177 0.0
C231 C 0.88524 0.11378 0.42279 0.0
C232 C 0.8732 0.09595 0.44521 0.0
C233 C 0.90623 0.07642 0.45573 0.0
C234 C 0.95043 0.07532 0.44417 0.0
C235 C 0.78667 0.11149 0.49176 0.0
C236 C 0.73574 0.09693 0.48081 0.0
C237 C 0.83157 0.11191 0.4802 0.0
C238 C 0.82621 0.09743 0.45745 0.0
C239 C 0.7753 0.08406 0.44648 0.0
C240 C 0.73076 0.0843 0.45801 0.0
H241 H 0.9498 0.78284 0.73672 0.0
H242 H 0.9132 0.91952 0.72851 0.0
H243 H 0.85664 0.72248 0.75488 0.0
H244 H 0.82046 0.85936 0.74716 0.0
H245 H 0.73185 0.76656 0.81771 0.0
H246 H 0.80497 0.82506 0.78961 0.0
H247 H 0.7446 0.67397 0.74835 0.0
H248 H 0.67018 0.6159 0.77627 0.0
C249 C 0.92141 0.79953 0.73841 0.0
C250 C 0.9389 0.85598 0.73132 0.0
C251 C 0.86803 0.7649 0.74869 0.0
C252 C 0.83163 0.78648 0.75243 0.0
C253 C 0.84789 0.84188 0.74445 0.0
C254 C 0.90081 0.8761 0.73373 0.0
C255 C 0.73317 0.7465 0.80229 0.0
C256 C 0.69612 0.68694 0.7991 0.0
C257 C 0.77482 0.7798 0.78624 0.0
C258 C 0.7805 0.75378 0.76694 0.0
C259 C 0.74113 0.69485 0.76316 0.0
C260 C 0.69869 0.66182 0.77902 0.0
H261 H 0.09744 0.97314 0.09429 0.0
H262 H 0.18063 0.90595 0.05337 0.0
H263 H 0.06653 0.89213 0.12031 0.0
H264 H 0.15035 0.82596 0.07935 0.0
H265 H 0.03421 0.65638 0.11443 0.0
H266 H 0.05913 0.73892 0.0899 0.0
H267 H 0.10433 0.85009 0.14731 0.0
H268 H 0.07839 0.7669 0.17172 0.0
C269 C 0.10982 0.94165 0.091 0.0
C270 C 0.14122 0.94589 0.07166 0.0
C271 C 0.09203 0.89524 0.10588 0.0
C272 C 0.10514 0.85213 0.10166 0.0
C273 C 0.13834 0.85767 0.08278 0.0
C274 C 0.15617 0.90393 0.06799 0.0
C275 C 0.04829 0.6983 0.12169 0.0
C276 C 0.05404 0.70569 0.1448 0.0
C277 C 0.06317 0.74561 0.10774 0.0
C278 C 0.08433 0.80117 0.11668 0.0
C279 C 0.08786 0.80786 0.13994 0.0
C280 C 0.07306 0.76047 0.15389 0.0
H281 H 0.17664 0.1205 0.42885 0.0
H282 H 0.30973 0.17314 0.37885 0.0
H283 H 0.23552 0.10512 0.45546 0.0
H284 H 0.36747 0.15737 0.40523 0.0
H285 H 0.41891 0.05142 0.44742 0.0
H286 H 0.35563 0.06641 0.42343 0.0
H287 H 0.33369 0.16346 0.4755 0.0
H288 H 0.39696 0.14824 0.49961 0.0
C289 C 0.2185 0.12938 0.4236 0.0
C290 C 0.23824 0.14775 0.40167 0.0
C291 C 0.25211 0.12054 0.43882 0.0
C292 C 0.3056 0.12922 0.43225 0.0
C293 C 0.32596 0.14932 0.4106 0.0
C294 C 0.29289 0.15875 0.39555 0.0
C295 C 0.39999 0.07528 0.45385 0.0
C296 C 0.41308 0.09891 0.47532 0.0
C297 C 0.36417 0.08425 0.44008 0.0
C298 C 0.34017 0.11649 0.44758 0.0
C299 C 0.35153 0.13837 0.46934 0.0
C300 C 0.38799 0.13 0.48304 0.0
H301 H 0.17996 0.07218 0.78472 0.0
H302 H 0.203 0.18435 0.72913 0.0
H303 H 0.24365 0.15605 0.80706 0.0
H304 H 0.26921 0.2683 0.75101 0.0
H305 H 0.36092 0.41406 0.79989 0.0
H306 H 0.28463 0.33076 0.78077 0.0
H307 H 0.34179 0.22242 0.80955 0.0
H308 H 0.41478 0.30445 0.83006 0.0
C309 C 0.1986 0.1149 0.77731 0.0
C310 C 0.1868 0.12175 0.75516 0.0
C311 C 0.23556 0.16302 0.79004 0.0
C312 C 0.26254 0.2191 0.78078 0.0
C313 C 0.2489 0.22597 0.75883 0.0
C314 C 0.21106 0.17781 0.74623 0.0
C315 C 0.35655 0.37226 0.80251 0.0
C316 C 0.39427 0.36622 0.81657 0.0
C317 C 0.31318 0.32452 0.79125 0.0
C318 C 0.30684 0.26964 0.79353 0.0
C319 C 0.34452 0.26366 0.80763 0.0
C320 C 0.38729 0.31115 0.81911 0.0
H321 H 0.96769 0.07063 0.6775 0.0
H322 H 0.00729 0.01313 0.61661 0.0
H323 H 0.89499 0.08043 0.65816 0.0
H324 H 0.93641 0.02538 0.59695 0.0
H325 H 0.76142 0.98543 0.5746 0.0
H326 H 0.83636 0.98008 0.59401 0.0
H327 H 0.87539 0.1322 0.63175 0.0
H328 H 0.79756 0.13495 0.61352 0.0
C329 C 0.96167 0.06122 0.65986 0.0
C330 C 0.99301 0.04078 0.64861 0.0
C331 C 0.92002 0.067 0.64871 0.0
C332 C 0.90922 0.05318 0.62597 0.0
C333 C 0.9424 0.03504 0.61456 0.0
C334 C 0.98349 0.02853 0.62579 0.0
C335 C 0.78521 0.01717 0.58731 0.0
C336 C 0.77308 0.06053 0.59247 0.0
C337 C 0.82907 0.01475 0.5982 0.0
C338 C 0.86251 0.056 0.61437 0.0
C339 C 0.85033 0.09932 0.61956 0.0
C340 C 0.80604 0.10136 0.60885 0.0
H341 H 0.07229 0.01782 0.95086 0.0
H342 H 0.96101 0.97462 0.00824 0.0
H343 H 0.9897 0.95971 0.92737 0.0
H344 H 0.87806 0.91357 0.985 0.0
H345 H 0.73435 0.81816 0.93565 0.0
H346 H 0.81362 0.89879 0.95525 0.0
H347 H 0.93185 0.85884 0.92367 0.0
H348 H 0.85378 0.78129 0.90327 0.0
C349 C 0.0299 0.99632 0.95836 0.0
C350 C 0.02286 -5e-05 0.98135 0.0
C351 C 0.9826 0.96265 0.94497 0.0
C352 C 0.92733 0.93062 0.95438 0.0
C353 C 0.91994 0.93772 0.97716 0.0
C354 C 0.96739 0.97255 0.99052 0.0
C355 C 0.77749 0.82747 0.9326 0.0
C356 C 0.78769 0.79296 0.91804 0.0
C357 C 0.82282 0.8733 0.944 0.0
C358 C 0.87921 0.88548 0.94106 0.0
C359 C 0.88926 0.85161 0.9261 0.0
C360 C 0.84423 0.80628 0.91466 0.0
H361 H 0.02623 0.93494 0.34751 0.0
H362 H 0.06791 0.03247 0.28608 0.0
H363 H 0.00462 0.84831 0.32654 0.0
H364 H 0.04379 0.94597 0.26505 0.0
H365 H 0.95051 0.69482 0.27983 0.0
H366 H 0.9488 0.77326 0.29947 0.0
H367 H 0.09581 0.8984 0.26084 0.0
H368 H 0.09558 0.82086 0.24064 0.0
C369 C 0.02877 0.9372 0.32948 0.0
C370 C 0.04948 0.99026 0.31836 0.0
C371 C 0.0164 0.88769 0.31745 0.0
C372 C 0.02389 0.89061 0.29414 0.0
C373 C 0.03937 0.94266 0.28302 0.0
C374 C 0.05271 0.99209 0.29502 0.0
C375 C 0.98187 0.73917 0.27537 0.0
C376 C 0.02342 0.7516 0.25876 0.0
C377 C 0.98117 0.78404 0.28674 0.0
C378 C 0.02188 0.84215 0.28164 0.0
C379 C 0.06303 0.85426 0.26493 0.0
C380 C 0.06358 0.80967 0.25358 0.0
H381 H 0.19459 0.0417 0.6421 0.0
H382 H 0.23963 0.93674 0.68134 0.0
H383 H 0.27381 0.06521 0.61643 0.0
H384 H 0.31792 0.9597 0.65565 0.0
H385 H 0.49252 0.06733 0.62275 0.0
H386 H 0.41105 0.04629 0.64684 0.0
H387 H 0.30868 0.02235 0.58863 0.0
H388 H 0.39085 0.0443 0.5647 0.0
C389 C 0.22074 0.02292 0.64507 0.0
C390 C 0.21095 0.98766 0.66389 0.0
C391 C 0.26614 0.03643 0.63037 0.0
C392 C 0.30271 0.0151 0.63424 0.0
C393 C 0.29136 0.97793 0.65251 0.0
C394 C 0.24607 0.96434 0.66713 0.0
C395 C 0.45277 0.05848 0.61526 0.0
C396 C 0.44758 0.05775 0.59205 0.0
C397 C 0.40603 0.04584 0.62894 0.0
C398 C 0.35322 0.03207 0.61962 0.0
C399 C 0.34881 0.03313 0.59631 0.0
C400 C 0.39561 0.04562 0.58264 0.0
H401 H 0.3478 0.18206 0.98483 0.0
H402 H 0.26512 0.26549 0.01515 0.0
H403 H 0.40967 0.26951 0.9634 0.0
H404 H 0.32792 0.35359 0.99356 0.0
H405 H 0.49772 0.51301 0.96013 0.0
H406 H 0.4374 0.43342 0.98625 0.0
H407 H 0.37978 0.31273 0.93165 0.0
H408 H 0.43923 0.39199 0.90579 0.0
C409 C 0.34344 0.21935 0.98726 0.0
C410 C 0.30086 0.21642 0.00148 0.0
C411 C 0.37872 0.26932 0.97487 0.0
C412 C 0.37263 0.3177 0.97652 0.0
C413 C 0.33318 0.31665 0.99194 0.0
C414 C 0.29736 0.26627 0.00429 0.0
C415 C 0.47098 0.46953 0.95382 0.0
C416 C 0.47248 0.45813 0.9311 0.0
C417 C 0.43685 0.42421 0.96867 0.0
C418 C 0.40474 0.36702 0.96095 0.0
C419 C 0.40486 0.35633 0.93806 0.0
C420 C 0.43831 0.4015 0.92327 0.0
H421 H 0.02756 0.23857 0.34683 0.0
H422 H 0.17761 0.30879 0.30418 0.0
H423 H 0.99428 0.29344 0.3258 0.0
H424 H 0.14416 0.36283 0.28337 0.0
H425 H 0.03785 0.38929 0.23382 0.0
H426 H 0.05829 0.32859 0.25764 0.0
H427 H 0.02597 0.4009 0.31605 0.0
H428 H 0.00548 0.4618 0.29195 0.0
C429 C 0.0538 0.26623 0.33322 0.0
C430 C 0.10503 0.26892 0.32707 0.0
C431 C 0.03465 0.29746 0.3212 0.0
C432 C 0.06611 0.33128 0.30272 0.0
C433 C 0.11848 0.33601 0.29726 0.0
C434 C 0.13784 0.3054 0.30933 0.0
C435 C 0.03347 0.3907 0.25173 0.0
C436 C 0.01988 0.42946 0.26122 0.0
C437 C 0.04572 0.35665 0.26534 0.0
C438 C 0.04456 0.36088 0.28865 0.0
C439 C 0.02706 0.39687 0.29812 0.0
C440 C 0.01513 0.43135 0.28444 0.0
loop_
_geom_bond_atom_site_label_1
_geom_bond_atom_site_label_2
_geom_bond_distance
_geom_bond_site_symmetry_2
_ccdc_geom_bond_type
Zn0 O3 2.031 1_545 S
Zn0 O5 2.049 1_554 S
Zn0 O10 2.067 1_554 S
Zn1 O2 1.962 . S
Zn1 O4 1.986 . S
Zn1 O6 1.996 . S
Zn1 O9 1.943 . S
O2 Zn1 1.962 . S
O2 C7 1.254 . S
O3 Zn0 2.031 1_565 S
O3 C7 1.269 1_565 S
O4 Zn1 1.986 . S
O4 C11 1.262 . S
O5 Zn0 2.049 1_556 S
O5 C13 1.260 1_556 S
O6 Zn1 1.996 . S
O6 C13 1.257 . S
C7 O2 1.254 . S
C7 O3 1.269 1_545 S
C8 O9 1.249 . S
C8 O10 1.270 1_554 S
O9 Zn1 1.943 . S
O9 C8 1.249 . S
O10 Zn0 2.067 1_556 S
O10 C8 1.270 1_556 S
C11 O4 1.262 . S
C11 O12 1.232 . S
O12 C11 1.232 . S
C13 O5 1.260 1_554 S
C13 O6 1.257 . S
Zn14 O17 2.031 . S
Zn14 O19 2.049 . S
Zn14 O24 2.067 . S
Zn15 O16 1.962 . S
Zn15 O18 1.986 1_455 S
Zn15 O20 1.996 . S
Zn15 O23 1.943 . S
O16 Zn15 1.962 . S
O16 C21 1.254 . S
O17 Zn14 2.031 . S
O17 C21 1.269 . S
O18 Zn15 1.986 1_655 S
O18 C25 1.262 . S
O19 Zn14 2.049 . S
O19 C27 1.260 . S
O20 Zn15 1.996 . S
O20 C27 1.257 . S
C21 O16 1.254 . S
C21 O17 1.269 . S
C22 O23 1.249 . S
C22 O24 1.270 . S
O23 Zn15 1.943 . S
O23 C22 1.249 . S
O24 Zn14 2.067 . S
O24 C22 1.270 . S
C25 O18 1.262 . S
C25 O26 1.232 . S
O26 C25 1.232 . S
C27 O19 1.260 . S
C27 O20 1.257 . S
Zn28 O31 2.031 1_565 S
Zn28 O33 2.049 . S
Zn28 O38 2.067 1_565 S
Zn29 O30 1.962 . S
Zn29 O32 1.986 1_455 S
Zn29 O34 1.996 1_545 S
Zn29 O37 1.943 . S
O30 Zn29 1.962 . S
O30 C35 1.254 . S
O31 Zn28 2.031 1_545 S
O31 C35 1.269 . S
O32 Zn29 1.986 1_655 S
O32 C39 1.260 . S
O33 Zn28 2.049 . S
O33 C41 1.260 . S
O34 Zn29 1.996 1_565 S
O34 C41 1.257 . S
C35 O30 1.254 . S
C35 O31 1.269 . S
C36 O37 1.249 . S
C36 O38 1.270 . S
O37 Zn29 1.943 . S
O37 C36 1.249 . S
O38 Zn28 2.067 1_545 S
O38 C36 1.270 . S
C39 O32 1.260 . S
C39 O40 1.216 1_655 S
O40 C39 1.216 1_455 S
C41 O33 1.260 . S
C41 O34 1.257 . S
C42 C43 1.443 . S
C42 N46 1.376 . S
C42 C80 1.389 . S
C43 C42 1.443 . S
C43 C44 1.340 . S
C43 H83 0.951 . S
C44 C43 1.340 . S
C44 C45 1.439 . S
C44 H84 0.950 . S
C45 C44 1.439 . S
C45 N46 1.374 . S
C45 C79 1.395 . S
N46 C42 1.376 . S
N46 C45 1.374 . S
N46 Co47 2.008 . S
Co47 N46 2.008 . S
Co47 N48 1.995 . S
Co47 N53 2.008 1_455 S
Co47 N58 1.995 . S
Co47 N63 2.282 . S
Co47 N69 2.282 . S
N48 Co47 1.995 . S
N48 C49 1.376 . S
N48 C52 1.383 . S
C49 N48 1.376 . S
C49 C50 1.446 . S
C49 C79 1.391 . S
C50 C49 1.446 . S
C50 C51 1.339 . S
C50 H85 0.949 . S
C51 C50 1.339 . S
C51 C52 1.439 . S
C51 H86 0.950 . S
C52 N48 1.383 . S
C52 C51 1.439 . S
C52 C81 1.392 . S
N53 Co47 2.008 1_655 S
N53 C54 1.376 1_655 S
N53 C57 1.374 . S
C54 N53 1.376 1_455 S
C54 C55 1.443 1_455 S
C54 C81 1.389 . S
C55 C54 1.443 1_655 S
C55 C56 1.340 . S
C55 H87 0.951 . S
C56 C55 1.340 . S
C56 C57 1.439 . S
C56 H88 0.950 . S
C57 N53 1.374 . S
C57 C56 1.439 . S
C57 C82 1.395 . S
N58 Co47 1.995 . S
N58 C59 1.376 1_455 S
N58 C62 1.383 . S
C59 N58 1.376 1_655 S
C59 C60 1.446 . S
C59 C82 1.391 . S
C60 C59 1.446 . S
C60 C61 1.339 . S
C60 H89 0.949 . S
C61 C60 1.339 . S
C61 C62 1.439 1_655 S
C61 H90 0.950 . S
C62 N58 1.383 . S
C62 C61 1.439 1_455 S
C62 C80 1.392 . S
N63 Co47 2.282 . S
N63 C66 1.332 . S
N63 C68 1.332 . S
C64 C65 1.386 . S
C64 C67 1.388 . S
C65 C64 1.386 . S
C65 C66 1.382 . S
C65 H91 0.950 1_455 S
C66 N63 1.332 . S
C66 C65 1.382 . S
C66 H77 0.952 1_455 S
C67 C64 1.388 . S
C67 C68 1.382 . S
C67 H92 0.950 . S
C68 N63 1.332 . S
C68 C67 1.382 . S
C68 H78 0.948 . S
N69 Co47 2.282 . S
N69 C73 1.332 . S
N69 C74 1.332 . S
C70 C71 1.388 . S
C70 C74 1.382 . S
C70 H93 0.950 1_455 S
C71 C70 1.388 . S
C71 C72 1.386 . S
C72 C71 1.386 . S
C72 C73 1.382 . S
C72 H94 0.950 . S
C73 N69 1.332 . S
C73 C72 1.382 . S
C73 H75 0.952 . S
C74 N69 1.332 . S
C74 C70 1.382 . S
C74 H76 0.948 1_455 S
H75 C73 0.952 . S
H76 C74 0.948 1_655 S
H77 C66 0.952 1_655 S
H78 C68 0.948 . S
C79 C45 1.395 . S
C79 C49 1.391 . S
C80 C42 1.389 . S
C80 C62 1.392 . S
C81 C52 1.392 . S
C81 C54 1.389 . S
C82 C57 1.395 . S
C82 C59 1.391 . S
H83 C43 0.951 . S
H84 C44 0.950 . S
H85 C50 0.949 . S
H86 C51 0.950 . S
H87 C55 0.951 . S
H88 C56 0.950 . S
H89 C60 0.949 . S
H90 C61 0.950 . S
H91 C65 0.950 1_655 S
H92 C67 0.950 . S
H93 C70 0.950 1_655 S
H94 C72 0.950 . S
C95 C96 1.443 1_545 S
C95 N99 1.376 . S
C95 C133 1.389 . S
C96 C95 1.443 1_565 S
C96 C97 1.340 . S
C96 H136 0.951 . S
C97 C96 1.340 . S
C97 C98 1.439 . S
C97 H137 0.950 . S
C98 C97 1.439 . S
C98 N99 1.374 1_565 S
C98 C132 1.395 . S
N99 C95 1.376 . S
N99 C98 1.374 1_545 S
N99 Co100 2.008 . S
Co100 N99 2.008 . S
Co100 N101 1.995 . S
Co100 N106 2.008 . S
Co100 N111 1.995 . S
Co100 N116 2.282 . S
Co100 N122 2.282 . S
N101 Co100 1.995 . S
N101 C102 1.376 1_545 S
N101 C105 1.383 . S
C102 N101 1.376 1_565 S
C102 C103 1.446 . S
C102 C132 1.391 . S
C103 C102 1.446 . S
C103 C104 1.339 . S
C103 H138 0.949 . S
C104 C103 1.339 . S
C104 C105 1.439 1_565 S
C104 H139 0.950 . S
C105 N101 1.383 . S
C105 C104 1.439 1_545 S
C105 C134 1.392 . S
N106 Co100 2.008 . S
N106 C107 1.376 . S
N106 C110 1.374 . S
C107 N106 1.376 . S
C107 C108 1.443 . S
C107 C134 1.389 . S
C108 C107 1.443 . S
C108 C109 1.340 . S
C108 H140 0.951 . S
C109 C108 1.340 . S
C109 C110 1.439 . S
C109 H141 0.950 . S
C110 N106 1.374 . S
C110 C109 1.439 . S
C110 C135 1.395 . S
N111 Co100 1.995 . S
N111 C112 1.376 . S
N111 C115 1.383 . S
C112 N111 1.376 . S
C112 C113 1.446 . S
C112 C135 1.391 . S
C113 C112 1.446 . S
C113 C114 1.339 . S
C113 H142 0.949 . S
C114 C113 1.339 . S
C114 C115 1.439 . S
C114 H143 0.950 . S
C115 N111 1.383 . S
C115 C114 1.439 . S
C115 C133 1.392 . S
N116 Co100 2.282 . S
N116 C119 1.332 . S
N116 C121 1.332 . S
C117 C118 1.386 . S
C117 C120 1.388 . S
C118 C117 1.386 . S
C118 C119 1.382 . S
C118 H144 0.950 . S
C119 N116 1.332 . S
C119 C118 1.382 . S
C119 H130 0.952 . S
C120 C117 1.388 . S
C120 C121 1.382 . S
C120 H145 0.950 1_545 S
C121 N116 1.332 . S
C121 C120 1.382 . S
C121 H131 0.948 . S
N122 Co100 2.282 . S
N122 C126 1.332 . S
N122 C127 1.332 . S
C123 C124 1.388 . S
C123 C127 1.382 . S
C123 H146 0.950 . S
C124 C123 1.388 . S
C124 C125 1.386 . S
C125 C124 1.386 . S
C125 C126 1.382 . S
C125 H147 0.950 . S
C126 N122 1.332 . S
C126 C125 1.382 . S
C126 H128 0.952 . S
C127 N122 1.332 . S
C127 C123 1.382 . S
C127 H129 0.948 . S
H128 C126 0.952 . S
H129 C127 0.948 . S
H130 C119 0.952 . S
H131 C121 0.948 . S
C132 C98 1.395 . S
C132 C102 1.391 . S
C133 C95 1.389 . S
C133 C115 1.392 . S
C134 C105 1.392 . S
C134 C107 1.389 . S
C135 C110 1.395 . S
C135 C112 1.391 . S
H136 C96 0.951 . S
H137 C97 0.950 . S
H138 C103 0.949 . S
H139 C104 0.950 . S
H140 C108 0.951 . S
H141 C109 0.950 . S
H142 C113 0.949 . S
H143 C114 0.950 . S
H144 C118 0.950 . S
H145 C120 0.950 1_565 S
H146 C123 0.950 . S
H147 C125 0.950 . S
C148 C149 1.443 . S
C148 N152 1.376 . S
C148 C186 1.389 . S
C149 C148 1.443 . S
C149 C150 1.340 . S
C149 H189 0.951 . S
C150 C149 1.340 . S
C150 C151 1.439 . S
C150 H190 0.950 . S
C151 C150 1.439 . S
C151 N152 1.374 . S
C151 C185 1.395 . S
N152 C148 1.376 . S
N152 C151 1.374 . S
N152 Co153 2.008 . S
Co153 N152 2.008 . S
Co153 N154 1.995 . S
Co153 N159 2.008 . S
Co153 N164 1.995 . S
Co153 N169 2.282 . S
Co153 N175 2.282 . S
N154 Co153 1.995 . S
N154 C155 1.376 . S
N154 C158 1.383 . S
C155 N154 1.376 . S
C155 C156 1.446 . S
C155 C185 1.391 . S
C156 C155 1.446 . S
C156 C157 1.339 . S
C156 H191 0.949 . S
C157 C156 1.339 . S
C157 C158 1.439 . S
C157 H192 0.950 . S
C158 N154 1.383 . S
C158 C157 1.439 . S
C158 C187 1.392 . S
N159 Co153 2.008 . S
N159 C160 1.376 . S
N159 C163 1.374 . S
C160 N159 1.376 . S
C160 C161 1.443 . S
C160 C187 1.389 . S
C161 C160 1.443 . S
C161 C162 1.340 . S
C161 H193 0.951 . S
C162 C161 1.340 . S
C162 C163 1.439 . S
C162 H194 0.950 . S
C163 N159 1.374 . S
C163 C162 1.439 . S
C163 C188 1.395 . S
N164 Co153 1.995 . S
N164 C165 1.376 . S
N164 C168 1.383 . S
C165 N164 1.376 . S
C165 C166 1.446 . S
C165 C188 1.391 . S
C166 C165 1.446 . S
C166 C167 1.339 . S
C166 H195 0.949 . S
C167 C166 1.339 . S
C167 C168 1.439 . S
C167 H196 0.950 . S
C168 N164 1.383 . S
C168 C167 1.439 . S
C168 C186 1.392 . S
N169 Co153 2.282 . S
N169 C172 1.332 . S
N169 C174 1.332 . S
C170 C171 1.386 . S
C170 C173 1.388 . S
C171 C170 1.386 . S
C171 C172 1.382 . S
C171 H197 0.950 . S
C172 N169 1.332 . S
C172 C171 1.382 . S
C172 H183 0.952 . S
C173 C170 1.388 . S
C173 C174 1.382 . S
C173 H198 0.950 . S
C174 N169 1.332 . S
C174 C173 1.382 . S
C174 H184 0.948 . S
N175 Co153 2.282 . S
N175 C179 1.332 . S
N175 C180 1.332 . S
C176 C177 1.388 . S
C176 C180 1.382 . S
C176 H199 0.950 . S
C177 C176 1.388 . S
C177 C178 1.386 . S
C178 C177 1.386 . S
C178 C179 1.382 . S
C178 H200 0.950 . S
C179 N175 1.332 . S
C179 C178 1.382 . S
C179 H181 0.952 . S
C180 N175 1.332 . S
C180 C176 1.382 . S
C180 H182 0.948 . S
H181 C179 0.952 . S
H182 C180 0.948 . S
H183 C172 0.952 . S
H184 C174 0.948 . S
C185 C151 1.395 . S
C185 C155 1.391 . S
C186 C148 1.389 . S
C186 C168 1.392 . S
C187 C158 1.392 . S
C187 C160 1.389 . S
C188 C163 1.395 . S
C188 C165 1.391 . S
H189 C149 0.951 . S
H190 C150 0.950 . S
H191 C156 0.949 . S
H192 C157 0.950 . S
H193 C161 0.951 . S
H194 C162 0.950 . S
H195 C166 0.949 . S
H196 C167 0.950 . S
H197 C171 0.950 . S
H198 C173 0.950 . S
H199 C176 0.950 . S
H200 C178 0.950 . S
H201 C209 0.950 . S
H202 C214 0.950 . S
H203 C211 0.950 . S
H204 C213 0.950 . S
H205 C215 0.950 1_655 S
H206 C217 0.940 1_655 S
H207 C219 0.950 . S
H208 C220 0.950 . S
C209 H201 0.950 . S
C209 C210 1.386 . S
C209 C211 1.391 . S
C210 C209 1.386 . S
C210 C214 1.393 . S
C211 H203 0.950 . S
C211 C209 1.391 . S
C211 C212 1.400 . S
C212 C211 1.400 . S
C212 C213 1.398 . S
C212 C218 1.491 . S
C213 H204 0.950 . S
C213 C212 1.398 . S
C213 C214 1.391 . S
C214 H202 0.950 . S
C214 C210 1.393 . S
C214 C213 1.391 . S
C215 H205 0.950 1_455 S
C215 C216 1.386 . S
C215 C217 1.391 . S
C216 C215 1.386 . S
C216 C220 1.393 . S
C217 H206 0.940 1_455 S
C217 C215 1.391 . S
C217 C218 1.400 . S
C218 C212 1.491 . S
C218 C217 1.400 . S
C218 C219 1.398 . S
C219 H207 0.950 . S
C219 C218 1.398 . S
C219 C220 1.391 . S
C220 H208 0.950 . S
C220 C216 1.393 . S
C220 C219 1.391 . S
H221 C229 0.950 . S
H222 C234 0.950 . S
H223 C231 0.950 . S
H224 C233 0.950 . S
H225 C235 0.950 . S
H226 C237 0.950 . S
H227 C239 0.950 . S
H228 C240 0.950 . S
C229 H221 0.950 . S
C229 C230 1.386 . S
C229 C231 1.391 . S
C230 C229 1.386 . S
C230 C234 1.393 . S
C231 H223 0.950 . S
C231 C229 1.391 . S
C231 C232 1.400 . S
C232 C231 1.400 . S
C232 C233 1.398 . S
C232 C238 1.491 . S
C233 H224 0.950 . S
C233 C232 1.398 . S
C233 C234 1.391 . S
C234 H222 0.950 . S
C234 C230 1.393 . S
C234 C233 1.391 . S
C235 H225 0.950 . S
C235 C236 1.386 . S
C235 C237 1.391 . S
C236 C235 1.386 . S
C236 C240 1.393 . S
C237 H226 0.950 . S
C237 C235 1.391 . S
C237 C238 1.400 . S
C238 C232 1.491 . S
C238 C237 1.400 . S
C238 C239 1.398 . S
C239 H227 0.950 . S
C239 C238 1.398 . S
C239 C240 1.391 . S
C240 H228 0.950 . S
C240 C236 1.393 . S
C240 C239 1.391 . S
H241 C249 0.950 . S
H242 C254 0.950 . S
H243 C251 0.950 . S
H244 C253 0.950 . S
H245 C255 0.950 . S
H246 C257 0.950 . S
H247 C259 0.950 . S
H248 C260 0.950 . S
C249 H241 0.950 . S
C249 C250 1.386 . S
C249 C251 1.391 . S
C250 C249 1.386 . S
C250 C254 1.393 . S
C251 H243 0.950 . S
C251 C249 1.391 . S
C251 C252 1.400 . S
C252 C251 1.400 . S
C252 C253 1.398 . S
C252 C258 1.491 . S
C253 H244 0.950 . S
C253 C252 1.398 . S
C253 C254 1.391 . S
C254 H242 0.950 . S
C254 C250 1.393 . S
C254 C253 1.391 . S
C255 H245 0.950 . S
C255 C256 1.386 . S
C255 C257 1.391 . S
C256 C255 1.386 . S
C256 C260 1.393 . S
C257 H246 0.950 . S
C257 C255 1.391 . S
C257 C258 1.400 . S
C258 C252 1.491 . S
C258 C257 1.400 . S
C258 C259 1.398 . S
C259 H247 0.950 . S
C259 C258 1.398 . S
C259 C260 1.391 . S
C260 H248 0.950 . S
C260 C256 1.393 . S
C260 C259 1.391 . S
H261 C269 0.950 . S
H262 C274 0.950 . S
H263 C271 0.950 . S
H264 C273 0.950 . S
H265 C275 0.950 . S
H266 C277 0.950 . S
H267 C279 0.950 . S
H268 C280 0.950 . S
C269 H261 0.950 . S
C269 C270 1.386 . S
C269 C271 1.391 . S
C270 C269 1.386 . S
C270 C274 1.393 . S
C271 H263 0.950 . S
C271 C269 1.391 . S
C271 C272 1.400 . S
C272 C271 1.400 . S
C272 C273 1.398 . S
C272 C278 1.491 . S
C273 H264 0.950 . S
C273 C272 1.398 . S
C273 C274 1.391 . S
C274 H262 0.950 . S
C274 C270 1.393 . S
C274 C273 1.391 . S
C275 H265 0.950 . S
C275 C276 1.386 . S
C275 C277 1.391 . S
C276 C275 1.386 . S
C276 C280 1.393 . S
C277 H266 0.950 . S
C277 C275 1.391 . S
C277 C278 1.400 . S
C278 C272 1.491 . S
C278 C277 1.400 . S
C278 C279 1.398 . S
C279 H267 0.950 . S
C279 C278 1.398 . S
C279 C280 1.391 . S
C280 H268 0.950 . S
C280 C276 1.393 . S
C280 C279 1.391 . S
H281 C289 0.950 . S
H282 C294 0.950 . S
H283 C291 0.950 . S
H284 C293 0.950 . S
H285 C295 0.950 . S
H286 C297 0.950 . S
H287 C299 0.950 . S
H288 C300 0.950 . S
C289 H281 0.950 . S
C289 C290 1.386 . S
C289 C291 1.391 . S
C290 C289 1.386 . S
C290 C294 1.393 . S
C291 H283 0.950 . S
C291 C289 1.391 . S
C291 C292 1.400 . S
C292 C291 1.400 . S
C292 C293 1.398 . S
C292 C298 1.491 . S
C293 H284 0.950 . S
C293 C292 1.398 . S
C293 C294 1.391 . S
C294 H282 0.950 . S
C294 C290 1.393 . S
C294 C293 1.391 . S
C295 H285 0.950 . S
C295 C296 1.386 . S
C295 C297 1.391 . S
C296 C295 1.386 . S
C296 C300 1.393 . S
C297 H286 0.950 . S
C297 C295 1.391 . S
C297 C298 1.400 . S
C298 C292 1.491 . S
C298 C297 1.400 . S
C298 C299 1.398 . S
C299 H287 0.950 . S
C299 C298 1.398 . S
C299 C300 1.391 . S
C300 H288 0.950 . S
C300 C296 1.393 . S
C300 C299 1.391 . S
H301 C309 0.950 . S
H302 C314 0.950 . S
H303 C311 0.950 . S
H304 C313 0.950 . S
H305 C315 0.950 . S
H306 C317 0.950 . S
H307 C319 0.950 . S
H308 C320 0.950 . S
C309 H301 0.950 . S
C309 C310 1.386 . S
C309 C311 1.391 . S
C310 C309 1.386 . S
C310 C314 1.393 . S
C311 H303 0.950 . S
C311 C309 1.391 . S
C311 C312 1.400 . S
C312 C311 1.400 . S
C312 C313 1.398 . S
C312 C318 1.491 . S
C313 H304 0.950 . S
C313 C312 1.398 . S
C313 C314 1.391 . S
C314 H302 0.950 . S
C314 C310 1.393 . S
C314 C313 1.391 . S
C315 H305 0.950 . S
C315 C316 1.386 . S
C315 C317 1.391 . S
C316 C315 1.386 . S
C316 C320 1.393 . S
C317 H306 0.950 . S
C317 C315 1.391 . S
C317 C318 1.400 . S
C318 C312 1.491 . S
C318 C317 1.400 . S
C318 C319 1.398 . S
C319 H307 0.950 . S
C319 C318 1.398 . S
C319 C320 1.391 . S
C320 H308 0.950 . S
C320 C316 1.393 . S
C320 C319 1.391 . S
H321 C329 0.950 . S
H322 C334 0.950 1_455 S
H323 C331 0.950 . S
H324 C333 0.950 . S
H325 C335 0.950 . S
H326 C337 0.950 . S
H327 C339 0.950 . S
H328 C340 0.950 . S
C329 H321 0.950 . S
C329 C330 1.386 . S
C329 C331 1.391 . S
C330 C329 1.386 . S
C330 C334 1.393 . S
C331 H323 0.950 . S
C331 C329 1.391 . S
C331 C332 1.400 . S
C332 C331 1.400 . S
C332 C333 1.398 . S
C332 C338 1.491 . S
C333 H324 0.950 . S
C333 C332 1.398 . S
C333 C334 1.391 . S
C334 H322 0.950 1_655 S
C334 C330 1.393 . S
C334 C333 1.391 . S
C335 H325 0.950 . S
C335 C336 1.386 . S
C335 C337 1.391 . S
C336 C335 1.386 . S
C336 C340 1.393 . S
C337 H326 0.950 . S
C337 C335 1.391 . S
C337 C338 1.400 . S
C338 C332 1.491 . S
C338 C337 1.400 . S
C338 C339 1.398 . S
C339 H327 0.950 . S
C339 C338 1.398 . S
C339 C340 1.391 . S
C340 H328 0.950 . S
C340 C336 1.393 . S
C340 C339 1.391 . S
H341 C349 0.955 . S
H342 C354 0.950 . S
H343 C351 0.950 . S
H344 C353 0.935 1_554 S
H345 C355 0.950 . S
H346 C357 0.950 . S
H347 C359 0.950 . S
H348 C360 0.950 . S
C349 H341 0.955 . S
C349 C350 1.386 . S
C349 C351 1.391 1_455 S
C350 C349 1.386 . S
C350 C354 1.393 1_456 S
C351 H343 0.950 . S
C351 C349 1.391 1_655 S
C351 C352 1.400 . S
C352 C351 1.400 . S
C352 C353 1.398 . S
C352 C358 1.491 . S
C353 H344 0.935 1_556 S
C353 C352 1.398 . S
C353 C354 1.391 1_556 S
C354 H342 0.950 . S
C354 C350 1.393 1_654 S
C354 C353 1.391 1_554 S
C355 H345 0.950 . S
C355 C356 1.386 . S
C355 C357 1.391 . S
C356 C355 1.386 . S
C356 C360 1.393 . S
C357 H346 0.950 . S
C357 C355 1.391 . S
C357 C358 1.400 . S
C358 C352 1.491 . S
C358 C357 1.400 . S
C358 C359 1.398 . S
C359 H347 0.950 . S
C359 C358 1.398 . S
C359 C360 1.391 . S
C360 H348 0.950 . S
C360 C356 1.393 . S
C360 C359 1.391 . S
H361 C369 0.950 1_545 S
H362 C374 0.950 . S
H363 C371 0.950 . S
H364 C373 0.950 . S
H365 C375 0.950 . S
H366 C377 0.950 . S
H367 C379 0.950 . S
H368 C380 0.950 . S
C369 H361 0.950 1_565 S
C369 C370 1.386 . S
C369 C371 1.391 . S
C370 C369 1.386 . S
C370 C374 1.393 1_455 S
C371 H363 0.950 . S
C371 C369 1.391 . S
C371 C372 1.400 . S
C372 C371 1.400 . S
C372 C373 1.398 1_455 S
C372 C378 1.491 . S
C373 H364 0.950 . S
C373 C372 1.398 1_655 S
C373 C374 1.391 . S
C374 H362 0.950 . S
C374 C370 1.393 1_655 S
C374 C373 1.391 . S
C375 H365 0.950 . S
C375 C376 1.386 1_655 S
C375 C377 1.391 . S
C376 C375 1.386 1_455 S
C376 C380 1.393 . S
C377 H366 0.950 . S
C377 C375 1.391 . S
C377 C378 1.400 1_655 S
C378 C372 1.491 . S
C378 C377 1.400 1_455 S
C378 C379 1.398 . S
C379 H367 0.950 . S
C379 C378 1.398 . S
C379 C380 1.391 . S
C380 H368 0.950 . S
C380 C376 1.393 . S
C380 C379 1.391 . S
H381 C389 0.950 . S
H382 C394 0.950 . S
H383 C391 0.950 . S
H384 C393 0.950 . S
H385 C395 0.950 1_565 S
H386 C397 0.950 1_565 S
H387 C399 0.950 . S
H388 C400 0.950 . S
C389 H381 0.950 . S
C389 C390 1.386 . S
C389 C391 1.391 . S
C390 C389 1.386 . S
C390 C394 1.393 1_545 S
C391 H383 0.950 . S
C391 C389 1.391 . S
C391 C392 1.400 . S
C392 C391 1.400 . S
C392 C393 1.398 1_545 S
C392 C398 1.491 . S
C393 H384 0.950 . S
C393 C392 1.398 1_565 S
C393 C394 1.391 . S
C394 H382 0.950 . S
C394 C390 1.393 1_565 S
C394 C393 1.391 . S
C395 H385 0.950 1_545 S
C395 C396 1.386 . S
C395 C397 1.391 . S
C396 C395 1.386 . S
C396 C400 1.393 . S
C397 H386 0.950 1_545 S
C397 C395 1.391 . S
C397 C398 1.400 . S
C398 C392 1.491 . S
C398 C397 1.400 . S
C398 C399 1.398 . S
C399 H387 0.950 . S
C399 C398 1.398 . S
C399 C400 1.391 . S
C400 H388 0.950 . S
C400 C396 1.393 . S
C400 C399 1.391 . S
H401 C409 0.950 . S
H402 C414 0.977 . S
H403 C411 0.950 . S
H404 C413 0.950 . S
H405 C415 0.950 . S
H406 C417 0.950 . S
H407 C419 0.950 . S
H408 C420 0.950 . S
C409 H401 0.950 . S
C409 C410 1.386 . S
C409 C411 1.391 . S
C410 C409 1.386 . S
C410 C414 1.393 . S
C411 H403 0.950 . S
C411 C409 1.391 . S
C411 C412 1.400 . S
C412 C411 1.400 . S
C412 C413 1.398 . S
C412 C418 1.491 . S
C413 H404 0.950 . S
C413 C412 1.398 . S
C413 C414 1.391 . S
C414 H402 0.977 . S
C414 C410 1.393 . S
C414 C413 1.391 . S
C415 H405 0.950 . S
C415 C416 1.386 . S
C415 C417 1.391 . S
C416 C415 1.386 . S
C416 C420 1.393 . S
C417 H406 0.950 . S
C417 C415 1.391 . S
C417 C418 1.400 . S
C418 C412 1.491 . S
C418 C417 1.400 . S
C418 C419 1.398 . S
C419 H407 0.950 . S
C419 C418 1.398 . S
C419 C420 1.391 . S
C420 H408 0.950 . S
C420 C416 1.393 . S
C420 C419 1.391 . S
H421 C429 0.950 . S
H422 C434 0.950 . S
H423 C431 0.950 1_655 S
H424 C433 0.950 . S
H425 C435 0.950 . S
H426 C437 0.950 . S
H427 C439 0.950 1_655 S
H428 C440 0.950 1_655 S
C429 H421 0.950 . S
C429 C430 1.386 . S
C429 C431 1.391 . S
C430 C429 1.386 . S
C430 C434 1.393 . S
C431 H423 0.950 1_455 S
C431 C429 1.391 . S
C431 C432 1.400 . S
C432 C431 1.400 . S
C432 C433 1.398 . S
C432 C438 1.491 . S
C433 H424 0.950 . S
C433 C432 1.398 . S
C433 C434 1.391 . S
C434 H422 0.950 . S
C434 C430 1.393 . S
C434 C433 1.391 . S
C435 H425 0.950 . S
C435 C436 1.386 . S
C435 C437 1.391 . S
C436 C435 1.386 . S
C436 C440 1.393 . S
C437 H426 0.950 . S
C437 C435 1.391 . S
C437 C438 1.400 . S
C438 C432 1.491 . S
C438 C437 1.400 . S
C438 C439 1.398 . S
C439 H427 0.950 1_455 S
C439 C438 1.398 . S
C439 C440 1.391 . S
C440 H428 0.950 1_455 S
C440 C436 1.393 . S
C440 C439 1.391 . S
C216 C64 1.348 . S
C210 C11 1.340 . S
C230 C25 1.397 . S
C236 C134 1.411 . S
C250 C41 1.370 1_655 S
C256 C186 1.436 . S
C270 C7 1.365 1_565 S
C276 C80 1.370 . S
C296 C124 1.429 . S
C290 C21 1.425 . S
C310 C36 1.388 . S
C316 C170 1.454 . S
C336 C117 1.402 . S
C330 C39 1.414 . S
C350 C8 1.390 1_566 S
C356 C177 1.448 . S
C376 C71 1.507 . S
C370 C22 1.461 1_565 S
C396 C133 1.430 . S
C390 C35 1.423 . S
C416 C187 1.432 . S
C410 C13 1.375 1_556 S
C430 C27 1.438 . S
C436 C81 1.488 . S
