# Generated by pormake.
# Topology pth, (4,4)-cn, num edge types: 1
# Building blocks:
#     Node 0, Type 0, BuildingBlock: KUFVIS_clean_sbu_0, # of connection points: 4
#     Node 1, Type 0, BuildingBlock: KUFVIS_clean_sbu_0, # of connection points: 4
#     Node 2, Type 0, BuildingBlock: KUFVIS_clean_sbu_0, # of connection points: 4
#     Node 3, Type 1, BuildingBlock: NAWXER_clean_sbu_0, # of connection points: 4
#     Node 4, Type 1, BuildingBlock: NAWXER_clean_sbu_0, # of connection points: 4
#     Node 5, Type 1, BuildingBlock: NAWXER_clean_sbu_0, # of connection points: 4
#     Edge 6, Type (0, 1), BuildingBlock: XUDNAN_clean_linker_2, # of connection points: 2
#     Edge 7, Type (0, 1), BuildingBlock: XUDNAN_clean_linker_2, # of connection points: 2
#     Edge 8, Type (0, 1), BuildingBlock: XUDNAN_clean_linker_2, # of connection points: 2
#     Edge 9, Type (0, 1), BuildingBlock: XUDNAN_clean_linker_2, # of connection points: 2
#     Edge 10, Type (0, 1), BuildingBlock: XUDNAN_clean_linker_2, # of connection points: 2
#     Edge 11, Type (0, 1), BuildingBlock: XUDNAN_clean_linker_2, # of connection points: 2
#     Edge 12, Type (0, 1), BuildingBlock: XUDNAN_clean_linker_2, # of connection points: 2
#     Edge 13, Type (0, 1), BuildingBlock: XUDNAN_clean_linker_2, # of connection points: 2
#     Edge 14, Type (0, 1), BuildingBlock: XUDNAN_clean_linker_2, # of connection points: 2
#     Edge 15, Type (0, 1), BuildingBlock: XUDNAN_clean_linker_2, # of connection points: 2
#     Edge 16, Type (0, 1), BuildingBlock: XUDNAN_clean_linker_2, # of connection points: 2
#     Edge 17, Type (0, 1), BuildingBlock: XUDNAN_clean_linker_2, # of connection points: 2
# Relax obj value: 0.009
# Max RMSD: 0.080
# Mean RMSD: 0.046
data_MOF--net-pth--node1-KUFVIS_clean_sbu_0--node2-NAWXER_clean_sbu_0--edge1-XUDNAN_clean_linker_2
_symmetry_space_group_name_H-M    P1
_symmetry_Int_Tables_number       1
_symmetry_cell_setting            triclinic
loop_
_symmetry_equiv_pos_as_xyz
'x, y, z'
_cell_length_a     22.384144
_cell_length_b     22.330768
_cell_length_c     57.303044
_cell_angle_alpha  90.36649
_cell_angle_beta   92.008374
_cell_angle_gamma 120.08655
loop_
_atom_site_label
_atom_site_type_symbol
_atom_site_fract_x
_atom_site_fract_y
_atom_site_fract_z
_atom_type_partial_charge
Mn0 Mn 0.08793 0.11012 0.06985 0.0
Mn1 Mn 1.01876 0.19208 0.03976 0.0
C2 C 1.00229 0.05048 0.04074 0.0
C3 C 0.09154 0.04909 0.10233 0.0
C4 C 0.1635 0.21598 0.03287 0.0
O5 O 0.11362 0.19613 0.09032 0.0
O6 O 0.052 0.23683 0.07117 0.0
C7 C 0.89794 0.16006 0.06774 0.0
N8 N 0.9246 0.15867 0.04687 0.0
C9 C 0.81247 0.10847 0.0272 0.0
C10 C 0.78393 0.11001 0.04843 0.0
C11 C 0.82683 0.13568 0.0688 0.0
C12 C 0.88376 0.13381 0.02718 0.0
H13 H 0.93063 0.1794 0.08345 0.0
C14 C 0.08874 0.23672 0.08881 0.0
O15 O 0.14549 0.08455 0.09014 0.0
O16 O 0.03551 0.04932 0.09574 0.0
N17 N 0.98307 0.15236 1.00919 0.0
C18 C 1.01768 0.14914 0.99057 0.0
C19 C 0.98167 0.12211 0.96902 0.0
C20 C 0.91065 0.09907 0.96682 0.0
C21 C 0.87605 0.10244 0.98625 0.0
C22 C 0.91473 0.13042 1.00722 0.0
H23 H 0.07234 0.16719 0.99211 0.0
O24 O 0.04369 0.02823 0.04733 0.0
O25 O 1.01239 0.10656 0.05132 0.0
O26 O 0.15915 0.16863 0.04614 0.0
O27 O 0.11548 0.23084 0.03042 0.0
C28 C 0.8045 0.07811 0.98571 0.0
C29 C 0.77271 0.08105 1.00618 0.0
H30 H 0.72903 0.09081 0.04936 0.0
H31 H 0.80512 0.13657 0.08529 0.0
H32 H 1.00861 0.1192 0.95413 0.0
H33 H 0.88304 0.07838 0.95016 0.0
H34 H 0.77323 0.05596 0.96975 0.0
H35 H 0.71745 0.06101 1.00566 0.0
Mn36 Mn 0.03126 0.09451 0.40319 0.0
Mn37 Mn 0.10882 0.22339 0.44443 0.0
C38 C 0.08822 0.08242 0.43617 0.0
C39 C 0.02269 0.03079 0.36932 0.0
C40 C 0.95377 0.12752 0.43942 0.0
O41 O 0.04377 0.18003 0.38533 0.0
O42 O 0.1011 0.26071 0.414 0.0
C43 C 0.24832 0.30253 0.42549 0.0
N44 N 0.20716 0.26872 0.44341 0.0
C45 C 0.30561 0.30694 0.47008 0.0
C46 C 0.34908 0.34338 0.45202 0.0
C47 C 0.32034 0.34027 0.42954 0.0
C48 C 0.23446 0.26859 0.46481 0.0
H49 H 0.22632 0.30093 0.40828 0.0
C50 C 0.07705 0.24319 0.39292 0.0
O51 O 0.96969 0.02957 0.37805 0.0
O52 O 0.0827 0.07281 0.37947 0.0
N53 N 0.12098 0.19559 0.47495 0.0
C54 C 0.072 0.15879 0.49064 0.0
C55 C 0.09247 0.15367 0.51364 0.0
C56 C 0.16294 0.18818 0.52051 0.0
C57 C 0.21228 0.22765 0.50431 0.0
C58 C 0.18889 0.22975 0.4815 0.0
H59 H 1.01767 0.13323 0.48568 0.0
O60 O 0.03969 0.02823 0.42487 0.0
O61 O 0.10173 0.14183 0.42818 0.0
O62 O 0.95528 0.09155 0.42249 0.0
O63 O 1.00796 0.18015 0.44815 0.0
C64 C 0.28363 0.26651 0.51009 0.0
C65 C 0.33014 0.30692 0.49309 0.0
H66 H 0.4046 0.37326 0.45516 0.0
H67 H 0.35357 0.36762 0.41545 0.0
H68 H 0.05396 0.12378 0.5261 0.0
H69 H 0.17852 0.18471 0.53832 0.0
H70 H 0.30323 0.26614 0.52761 0.0
H71 H 0.3849 0.33662 0.49774 0.0
Mn72 Mn 0.075 0.12339 0.73888 0.0
Mn73 Mn 0.99792 0.20501 0.76233 0.0
C74 C 0.11802 0.18512 0.77416 0.0
C75 C 0.15448 0.12212 0.71374 0.0
C76 C 0.93785 0.04905 0.76225 0.0
O77 O 1.01449 0.12733 0.71169 0.0
O78 O 0.98312 0.19948 0.72794 0.0
C79 C 0.08134 0.34549 0.74382 0.0
N80 N 0.05674 0.30326 0.76235 0.0
C81 C 0.10781 0.40061 0.78945 0.0
C82 C 0.13291 0.44522 0.77063 0.0
C83 C 0.12017 0.41749 0.74773 0.0
C84 C 0.07003 0.32932 0.78449 0.0
H85 H 0.07107 0.32438 0.7262 0.0
C86 C 0.98723 0.16586 0.7105 0.0
O87 O 0.10095 0.06516 0.71984 0.0
O88 O 0.16047 0.17966 0.72157 0.0
N89 N 1.00904 0.2146 0.79569 0.0
C90 C 0.9797 0.16469 0.81191 0.0
C91 C 0.98847 0.18385 0.83571 0.0
C92 C 0.02624 0.25413 0.8426 0.0
C93 C 0.05472 0.30465 0.82559 0.0
C94 C 0.04443 0.28245 0.80213 0.0
H95 H 0.94971 0.11062 0.80679 0.0
O96 O 0.13371 0.13866 0.7682 0.0
O97 O 0.07903 0.19459 0.75919 0.0
O98 O 0.99018 0.04838 0.75458 0.0
O99 O 0.93326 0.10373 0.76381 0.0
C100 C 0.09266 0.37617 0.83101 0.0
C101 C 0.11898 0.42412 0.81295 0.0
H102 H 0.16257 0.50081 0.77356 0.0
H103 H 0.13982 0.45155 0.73312 0.0
H104 H 0.96592 0.14455 0.84872 0.0
H105 H 0.03291 0.26872 0.86098 0.0
H106 H 0.1018 0.39487 0.849 0.0
H107 H 0.14804 0.47899 0.81734 0.0
C108 C 1.01531 0.66925 0.26845 0.0
C109 C 0.06071 0.53398 0.21036 0.0
O110 O 0.07897 0.69026 0.26517 0.0
Zn111 Zn 0.14227 0.66715 0.24467 0.0
O112 O 0.96863 0.61569 0.25717 0.0
Zn113 Zn 0.03132 0.59793 0.23886 0.0
O114 O 0.07894 0.56628 0.26505 0.0
O115 O 0.19004 0.64437 0.26912 0.0
O116 O 1.00101 0.52379 0.21484 0.0
O117 O 0.1145 0.58483 0.22031 0.0
O118 O 0.18682 0.75152 0.2258 0.0
O119 O 0.07386 0.68884 0.21933 0.0
C120 C 0.13852 0.58726 0.275 0.0
C121 C 0.13141 0.74336 0.21576 0.0
C122 C 0.65702 0.16265 0.59469 0.0
C123 C 0.45974 0.12182 0.5424 0.0
O124 O 0.60759 0.09973 0.5926 0.0
Zn125 Zn 0.50969 0.03754 0.57469 0.0
O126 O 0.65244 0.20977 0.58364 0.0
Zn127 Zn 0.56221 0.14902 0.56796 0.0
O128 O 0.49798 0.11712 0.59681 0.0
O129 O 0.44716 1.00394 0.60112 0.0
O130 O 0.51475 0.18007 0.54588 0.0
O131 O 0.45372 0.068 0.55223 0.0
O132 O 0.53154 0.98011 0.5539 0.0
O133 O 0.59017 0.09165 0.54669 0.0
C134 C 0.45736 0.06304 0.60788 0.0
C135 C 0.57756 0.03007 0.54262 0.0
C136 C 0.52722 0.53185 0.93066 0.0
C137 C 0.64056 0.68385 0.86488 0.0
O138 O 0.50947 0.57673 0.92593 0.0
Zn139 Zn 0.53013 0.65807 0.90335 0.0
O140 O 0.57582 0.53201 0.91962 0.0
Zn141 Zn 0.59164 0.60893 0.89876 0.0
O142 O 0.63732 0.6966 0.92228 0.0
O143 O 0.56592 0.73732 0.92471 0.0
O144 O 0.65647 0.64066 0.87322 0.0
O145 O 0.59541 0.69334 0.87473 0.0
O146 O 0.43917 0.61914 0.8881 0.0
O147 O 0.49281 0.56117 0.88013 0.0
C148 C 0.62273 0.74068 0.9308 0.0
C149 C 0.44001 0.56898 0.87773 0.0
H150 H 1.01433 0.30108 0.0972 0.0
H151 H 0.18062 0.27441 0.12677 0.0
H152 H 0.18903 0.34552 0.16138 0.0
H153 H 0.07876 0.47611 0.11741 0.0
H154 H 0.99446 0.46244 0.12359 0.0
H155 H 1.00334 0.41149 0.10095 0.0
H156 H 0.91613 0.29913 0.121 0.0
H157 H 0.90723 0.3497 0.14379 0.0
H158 H 0.93212 0.28663 0.15113 0.0
H159 H 0.18097 0.42149 0.19211 0.0
H160 H 0.15592 0.49495 0.21753 0.0
H161 H 0.98921 0.46575 0.16925 0.0
C162 C 0.05301 0.31042 0.11082 0.0
C163 C 0.0973 0.28241 0.10913 0.0
C164 C 0.1464 0.29545 0.12758 0.0
C165 C 0.15142 0.33567 0.14732 0.0
C166 C 0.10635 0.36164 0.14847 0.0
C167 C 0.05788 0.3493 0.13076 0.0
C168 C 1.0144 0.3817 0.13651 0.0
C169 C 0.02331 0.43618 0.11855 0.0
C170 C 0.93794 0.32596 0.13821 0.0
C171 C 0.04647 0.41503 0.1602 0.0
C172 C 0.09968 0.40303 0.16666 0.0
C173 C 0.13917 0.43077 0.1873 0.0
C174 C 0.12458 0.47251 0.20159 0.0
C175 C 0.0704 0.48563 0.19539 0.0
C176 C 0.03018 0.45566 0.17456 0.0
H177 H 0.92981 0.18159 0.47888 0.0
H178 H 0.82691 0.0148 0.4268 0.0
H179 H 0.72 0.96555 0.44869 0.0
H180 H 0.85236 0.07935 0.52843 0.0
H181 H 0.84536 0.14652 0.5435 0.0
H182 H 0.91326 0.16905 0.52346 0.0
H183 H 0.87305 0.24238 0.49992 0.0
H184 H 0.80589 0.22099 0.52012 0.0
H185 H 0.78424 0.2031 0.48931 0.0
H186 H 0.62304 0.93303 0.47751 0.0
H187 H 0.54482 0.92901 0.50815 0.0
H188 H 0.71396 0.11627 0.54043 0.0
C189 C 0.88475 0.13514 0.47185 0.0
C190 C 0.88717 0.10239 0.45103 0.0
C191 C 0.82666 0.04127 0.44266 0.0
C192 C 0.76563 1.01251 0.45506 0.0
C193 C 0.7657 0.04526 0.47585 0.0
C194 C 0.82366 0.10566 0.484 0.0
C195 C 0.81074 0.13154 0.5066 0.0
C196 C 0.85825 0.13159 0.52668 0.0
C197 C 0.81893 0.20376 0.50381 0.0
C198 C 0.73625 0.07689 0.50978 0.0
C199 C 0.7109 0.0269 0.4921 0.0
C200 C 0.6425 0.97195 0.49145 0.0
C201 C 0.59855 0.96957 0.50896 0.0
C202 C 0.62347 0.02226 0.52654 0.0
C203 C 0.6935 0.0753 0.52712 0.0
H204 H 0.94925 0.95462 0.78939 0.0
H205 H 0.79982 1.00113 0.75697 0.0
H206 H 0.70555 0.90036 0.77579 0.0
H207 H 0.83775 0.76183 0.78928 0.0
H208 H 0.87068 0.75604 0.81782 0.0
H209 H 0.92521 0.82421 0.79877 0.0
H210 H 0.94711 0.91573 0.83098 0.0
H211 H 0.8927 0.84806 0.85008 0.0
H212 H 0.87449 0.91625 0.84342 0.0
H213 H 0.63007 0.80428 0.80079 0.0
H214 H 0.57732 0.72247 0.83242 0.0
H215 H 0.77464 0.73828 0.85054 0.0
C216 C 0.89635 0.94199 0.7857 0.0
C217 C 0.8813 0.98453 0.77136 0.0
C218 C 0.81204 0.96854 0.76767 0.0
C219 C 0.75829 0.91132 0.77821 0.0
C220 C 0.7748 0.87106 0.79259 0.0
C221 C 0.84211 0.88571 0.79649 0.0
C222 C 0.84642 0.83929 0.81496 0.0
C223 C 0.8715 0.79256 0.80458 0.0
C224 C 0.89291 0.88241 0.83611 0.0
C225 C 0.77122 0.79741 0.82123 0.0
C226 C 0.7309 0.81604 0.80776 0.0
C227 C 0.66086 0.78861 0.81123 0.0
C228 C 0.63144 0.7423 0.8293 0.0
C229 C 0.67181 0.72375 0.84382 0.0
C230 C 0.74232 0.75039 0.83937 0.0
H231 H 0.1839 1.00463 0.11278 0.0
H232 H 1.00303 1.00432 0.13788 0.0
H233 H 1.00337 0.93672 0.17169 0.0
H234 H 0.1296 0.83101 0.12693 0.0
H235 H 0.21449 0.84641 0.13553 0.0
H236 H 0.20502 0.90099 0.11452 0.0
H237 H 0.28687 1.00913 0.14034 0.0
H238 H 0.2964 0.95478 0.16151 0.0
H239 H 0.26741 1.01327 0.17037 0.0
H240 H 1.01814 0.86517 0.20113 0.0
H241 H 0.04091 0.78507 0.22373 0.0
H242 H 0.21124 0.8264 0.18003 0.0
C243 C 0.14506 0.99115 0.12562 0.0
C244 C 0.09365 1.01017 0.12284 0.0
C245 C 0.04284 0.9904 0.13969 0.0
C246 C 0.04289 0.95236 0.15902 0.0
C247 C 0.09387 0.93407 0.16119 0.0
C248 C 0.1438 0.9522 0.14494 0.0
C249 C 0.1892 0.92095 0.15064 0.0
C250 C 0.18425 0.87193 0.13072 0.0
C251 C 0.26444 0.97795 0.15604 0.0
C252 C 0.15605 0.88137 0.17241 0.0
C253 C 0.10179 0.89085 0.17824 0.0
C254 C 0.06072 0.85771 0.19686 0.0
C255 C 0.07405 0.81222 0.20955 0.0
C256 C 0.12791 0.79979 0.20365 0.0
C257 C 0.17058 0.83597 0.18513 0.0
H258 H 0.22538 0.12544 0.43394 0.0
H259 H 0.05071 0.02116 0.4781 0.0
H260 H 0.12854 0.02285 0.51028 0.0
H261 H 0.29459 1.01323 0.45871 0.0
H262 H 0.38318 0.07706 0.4541 0.0
H263 H 0.31527 0.0701 0.43438 0.0
H264 H 0.35044 0.20244 0.44301 0.0
H265 H 0.42286 0.20299 0.45793 0.0
H266 H 0.37371 0.23198 0.47312 0.0
H267 H 0.22634 0.04993 0.53869 0.0
H268 H 0.33492 0.07518 0.55979 0.0
H269 H 0.44581 0.14895 0.49612 0.0
C270 C 0.20405 0.1033 0.45049 0.0
C271 C 0.13302 0.0763 0.45424 0.0
C272 C 0.10542 0.0438 0.47536 0.0
C273 C 0.14918 0.04465 0.49364 0.0
C274 C 0.21959 0.0747 0.48988 0.0
C275 C 0.24655 0.10044 0.4685 0.0
C276 C 0.32214 0.11978 0.46823 0.0
C277 C 0.32919 0.0669 0.45296 0.0
C278 C 0.3697 0.19363 0.46003 0.0
C279 C 0.3359 0.11202 0.49384 0.0
C280 C 0.27531 0.08386 0.50576 0.0
C281 C 0.27394 0.07125 0.52953 0.0
C282 C 0.33582 0.0864 0.54139 0.0
C283 C 0.39844 0.1151 0.52962 0.0
C284 C 0.39872 0.1285 0.50556 0.0
H285 H 0.22076 0.31767 0.77017 0.0
H286 H 0.10752 0.16276 0.82099 0.0
H287 H 0.16983 0.24993 0.85307 0.0
H288 H 0.37987 0.38133 0.80596 0.0
H289 H 0.41692 0.46887 0.79616 0.0
H290 H 0.35744 0.39771 0.77711 0.0
H291 H 0.2743 0.44979 0.77292 0.0
H292 H 0.34121 0.52237 0.78977 0.0
H293 H 0.25453 0.47969 0.79935 0.0
H294 H 0.23816 0.35716 0.8791 0.0
H295 H 0.33083 0.46565 0.89825 0.0
H296 H 0.41353 0.5438 0.8308 0.0
C297 C 0.20849 0.30284 0.7881 0.0
C298 C 0.1568 0.23515 0.79335 0.0
C299 C 0.14503 0.21543 0.81683 0.0
C300 C 0.18006 0.26451 0.83505 0.0
C301 C 0.22881 0.33192 0.82934 0.0
C302 C 0.24531 0.35026 0.80646 0.0
C303 C 0.30848 0.42187 0.80528 0.0
C304 C 0.36926 0.41714 0.79556 0.0
C305 C 0.29352 0.47112 0.79093 0.0
C306 C 0.32141 0.44302 0.83093 0.0
C307 C 0.27434 0.39068 0.84448 0.0
C308 C 0.27548 0.39833 0.86868 0.0
C309 C 0.32753 0.46025 0.87936 0.0
C310 C 0.37773 0.51306 0.86584 0.0
C311 C 0.37447 0.50458 0.84136 0.0
H312 H 0.8714 0.06858 0.6863 0.0
H313 H 0.03427 0.28305 0.68597 0.0
H314 H 0.9712 0.30545 0.65411 0.0
H315 H 0.82429 0.04804 0.62199 0.0
H316 H 0.73362 0.99446 0.62712 0.0
H317 H 0.79729 0.9934 0.64699 0.0
H318 H 0.744 0.02374 0.68135 0.0
H319 H 0.68114 0.02626 0.66159 0.0
H320 H 0.73672 0.10051 0.68018 0.0
H321 H 0.88296 0.30748 0.62562 0.0
H322 H 0.77989 0.28667 0.60142 0.0
H323 H 0.67476 0.07139 0.62125 0.0
C324 C 0.89496 0.11932 0.67873 0.0
C325 C 0.95826 0.17377 0.68807 0.0
C326 C 0.98631 0.24051 0.67864 0.0
C327 C 0.95076 0.25371 0.66062 0.0
C328 C 0.88702 0.19957 0.65229 0.0
C329 C 0.85974 0.13344 0.66084 0.0
C330 C 0.78773 0.08593 0.65043 0.0
C331 C 0.78564 0.02698 0.63576 0.0
C332 C 0.73428 0.05748 0.66953 0.0
C333 C 0.77821 0.1359 0.63517 0.0
C334 C 0.83604 0.20111 0.63628 0.0
C335 C 0.83766 0.25631 0.62438 0.0
C336 C 0.7788 0.24421 0.61079 0.0
C337 C 0.71917 0.17751 0.60936 0.0
C338 C 0.71946 0.12304 0.62179 0.0
H339 H 0.9864 0.9774 0.99985 0.0
H340 H 0.87283 0.01565 0.05186 0.0
H341 H 0.76426 0.94573 0.02834 0.0
H342 H 0.88834 0.97151 0.94712 0.0
H343 H 0.89213 0.89945 0.93477 0.0
H344 H 0.95969 0.95869 0.95511 0.0
H345 H 0.93558 0.85132 0.97991 0.0
H346 H 0.86575 0.79479 0.95976 0.0
H347 H 0.85012 0.79682 0.99032 0.0
H348 H 0.67039 0.88162 0.99741 0.0
H349 H 0.59148 0.80344 0.96563 0.0
H350 H 0.76252 0.79403 0.93605 0.0
C351 C 0.9386 0.97136 1.00606 0.0
C352 C 0.93809 1.00532 0.02685 0.0
C353 C 0.87444 0.99324 0.03524 0.0
C354 C 0.81258 0.95332 0.0221 0.0
C355 C 0.81505 0.92384 1.00096 0.0
C356 C 0.87591 0.93026 0.99333 0.0
C357 C 0.86262 0.88695 0.9712 0.0
C358 C 0.90318 0.93192 0.95088 0.0
C359 C 0.87951 0.82903 0.97557 0.0
C360 C 0.78549 0.8578 0.96715 0.0
C361 C 0.7593 0.88049 0.98437 0.0
C362 C 0.68995 0.86254 0.98398 0.0
C363 C 0.64567 0.81863 0.9658 0.0
C364 C 0.6708 0.79241 0.94852 0.0
C365 C 0.74177 0.81284 0.94917 0.0
H366 H 0.11423 0.99072 0.35481 0.0
H367 H 0.90542 0.95236 0.34239 0.0
H368 H 0.87897 0.85366 0.31607 0.0
H369 H 0.13567 0.94399 0.29516 0.0
H370 H 0.18451 0.90438 0.30532 0.0
H371 H 0.18789 0.97482 0.32195 0.0
H372 H 0.15004 0.89803 0.35834 0.0
H373 H 0.1452 0.82695 0.34169 0.0
H374 H 0.07084 0.81569 0.35663 0.0
H375 H 0.87257 0.75348 0.29279 0.0
H376 H 0.89178 0.66813 0.27136 0.0
H377 H 0.10385 0.77182 0.29922 0.0
C378 C 0.06352 0.96258 0.34613 0.0
C379 C 1.01206 0.97958 0.35064 0.0
C380 C 0.94586 0.94054 0.3392 0.0
C381 C 0.93012 0.88407 0.32426 0.0
C382 C 0.98113 0.8671 0.3208 0.0
C383 C 0.04681 0.9058 0.33112 0.0
C384 C 0.09182 0.87582 0.32479 0.0
C385 C 0.15362 0.92785 0.31098 0.0
C386 C 0.11586 0.85276 0.34667 0.0
C387 C 0.04108 0.81415 0.30951 0.0
C388 C 0.9774 0.8097 0.30744 0.0
C389 C 0.92241 0.75663 0.29421 0.0
C390 C 0.93351 0.70799 0.28225 0.0
C391 C 0.99914 0.71302 0.28359 0.0
C392 C 0.05294 0.76631 0.29777 0.0
H393 H 0.14515 0.01787 0.68475 0.0
H394 H 0.28758 0.22583 0.71181 0.0
H395 H 0.38167 0.22589 0.69078 0.0
H396 H 0.26678 0.95399 0.68537 0.0
H397 H 0.23374 0.90613 0.65803 0.0
H398 H 0.17726 0.91937 0.67634 0.0
H399 H 0.14546 0.97474 0.64205 0.0
H400 H 0.20115 0.96089 0.6236 0.0
H401 H 0.21339 0.04658 0.62741 0.0
H402 H 0.4596 0.20568 0.66715 0.0
H403 H 0.51582 0.17272 0.63773 0.0
H404 H 0.32466 0.97894 0.62356 0.0
C405 C 0.19628 0.06319 0.68628 0.0
C406 C 0.2092 0.12182 0.70003 0.0
C407 C 0.27644 0.18051 0.70136 0.0
C408 C 0.33038 0.18081 0.68963 0.0
C409 C 0.31625 0.12226 0.67641 0.0
C410 C 0.25082 0.06487 0.67429 0.0
C411 C 0.24933 1.01099 0.65749 0.0
C412 C 0.23067 0.94362 0.67006 0.0
C413 C 0.19938 0.99754 0.63639 0.0
C414 C 0.32407 0.04754 0.65039 0.0
C415 C 0.36158 0.11117 0.66192 0.0
C416 C 0.4309 0.156 0.65802 0.0
C417 C 0.46236 0.13668 0.64128 0.0
C418 C 0.42473 0.07321 0.62841 0.0
C419 C 0.35499 0.02712 0.63344 0.0
H420 H 0.19474 0.32529 1.00461 0.0
H421 H 0.27549 0.19603 0.03018 0.0
H422 H 0.37921 0.26181 1.00699 0.0
H423 H 0.25273 0.34067 0.94644 0.0
H424 H 0.27244 0.42915 0.94427 0.0
H425 H 0.20534 0.37111 0.96279 0.0
H426 H 0.26646 0.45648 0.99809 0.0
H427 H 0.33376 0.51465 0.97966 0.0
H428 H 0.35548 0.48409 1.00585 0.0
H429 H 0.47526 0.34372 0.97943 0.0
H430 H 0.55172 0.43363 0.95201 0.0
H431 H 0.40474 0.50632 0.94672 0.0
C432 C 0.23402 0.3105 1.00545 0.0
C433 C 0.22663 0.25532 0.01929 0.0
C434 C 0.27978 0.23817 0.01975 0.0
C435 C 0.33894 0.2752 1.0066 0.0
C436 C 0.34437 0.32938 0.99311 0.0
C437 C 0.2931 0.34682 0.99259 0.0
C438 C 0.31049 0.40706 0.97699 0.0
C439 C 0.25709 0.38569 0.95641 0.0
C440 C 0.31695 0.46923 0.99099 0.0
C441 C 0.37971 0.42127 0.96885 0.0
C442 C 0.39882 0.37608 0.97806 0.0
C443 C 0.46075 0.37958 0.97226 0.0
C444 C 0.5039 0.43069 0.95669 0.0
C445 C 0.48493 0.47771 0.94739 0.0
C446 C 0.42187 0.47221 0.9537 0.0
H447 H 1.01729 0.2442 0.34922 0.0
H448 H 0.18025 0.37642 0.40022 0.0
H449 H 0.2176 0.47456 0.37457 0.0
H450 H 0.11136 0.3242 0.29696 0.0
H451 H 0.03781 0.31947 0.2813 0.0
H452 H 0.02528 0.25622 0.30285 0.0
H453 H 0.94385 0.28612 0.32474 0.0
H454 H 0.95586 0.34912 0.30319 0.0
H455 H 0.97414 0.37468 0.33368 0.0
H456 H 0.24005 0.55992 0.34373 0.0
H457 H 0.23615 0.62986 0.31101 0.0
H458 H 0.05484 0.44803 0.28085 0.0
C459 C 0.061 0.29366 0.35488 0.0
C460 C 0.09603 0.30158 0.37675 0.0
C461 C 0.15241 0.36792 0.38358 0.0
C462 C 0.17452 0.42453 0.36907 0.0
C463 C 0.13937 0.41513 0.34773 0.0
C464 C 0.08316 0.35186 0.3407 0.0
C465 C 0.05213 0.35798 0.31747 0.0
C466 C 0.05695 0.31171 0.29853 0.0
C467 C 0.97705 0.34098 0.31993 0.0
C468 C 0.09954 0.4343 0.3128 0.0
C469 C 0.15024 0.46589 0.33031 0.0
C470 C 0.20046 0.53593 0.32988 0.0
C471 C 0.19809 0.57523 0.31122 0.0
C472 C 0.14516 0.54462 0.29349 0.0
C473 C 0.09575 0.47302 0.29426 0.0
loop_
_geom_bond_atom_site_label_1
_geom_bond_atom_site_label_2
_geom_bond_distance
_geom_bond_site_symmetry_2
_ccdc_geom_bond_type
Mn0 O5 2.095 . S
Mn0 O15 2.162 . S
Mn0 O16 2.297 . S
Mn0 O24 2.385 . S
Mn0 O25 2.209 1_455 S
Mn0 O26 2.094 . S
Mn1 O6 2.121 . S
Mn1 N8 2.257 1_455 S
Mn1 N17 2.282 1_454 S
Mn1 O25 2.215 1_455 S
Mn1 O27 2.117 . S
C2 O24 1.234 1_655 S
C2 O25 1.283 . S
C3 O15 1.281 . S
C3 O16 1.236 . S
C4 O26 1.240 . S
C4 O27 1.264 . S
O5 Mn0 2.095 . S
O5 C14 1.250 . S
O6 Mn1 2.121 . S
O6 C14 1.258 . S
C7 N8 1.326 . S
C7 C11 1.460 . S
C7 H13 0.929 . S
N8 Mn1 2.257 1_655 S
N8 C7 1.326 . S
N8 C12 1.362 . S
C9 C10 1.258 . S
C9 C12 1.431 . S
C9 C29 1.449 1_554 S
C10 C9 1.258 . S
C10 C11 1.477 . S
C10 H30 0.931 . S
C11 C7 1.460 . S
C11 C10 1.477 . S
C11 H31 0.930 . S
C12 N8 1.362 . S
C12 C9 1.431 . S
C12 C22 1.476 1_554 S
H13 C7 0.929 . S
C14 O5 1.250 . S
C14 O6 1.258 . S
O15 Mn0 2.162 . S
O15 C3 1.281 . S
O16 Mn0 2.297 . S
O16 C3 1.236 . S
N17 Mn1 2.282 1_656 S
N17 C18 1.328 1_655 S
N17 C22 1.318 . S
C18 N17 1.328 1_455 S
C18 C19 1.457 1_455 S
C18 H23 0.929 . S
C19 C18 1.457 1_655 S
C19 C20 1.291 . S
C19 H32 0.931 1_655 S
C20 C19 1.291 . S
C20 C21 1.373 . S
C20 H33 0.929 . S
C21 C20 1.373 . S
C21 C22 1.396 . S
C21 C28 1.403 . S
C22 C12 1.476 1_556 S
C22 N17 1.318 . S
C22 C21 1.396 . S
H23 C18 0.929 . S
O24 Mn0 2.385 . S
O24 C2 1.234 1_455 S
O25 Mn0 2.209 1_655 S
O25 Mn1 2.215 1_655 S
O25 C2 1.283 . S
O26 Mn0 2.094 . S
O26 C4 1.240 . S
O27 Mn1 2.117 . S
O27 C4 1.264 . S
C28 C21 1.403 . S
C28 C29 1.399 . S
C28 H34 0.929 . S
C29 C9 1.449 1_556 S
C29 C28 1.399 . S
C29 H35 0.930 . S
H30 C10 0.931 . S
H31 C11 0.930 . S
H32 C19 0.931 1_455 S
H33 C20 0.929 . S
H34 C28 0.929 . S
H35 C29 0.930 . S
Mn36 O41 2.095 1_455 S
Mn36 O51 2.162 1_445 S
Mn36 O52 2.297 . S
Mn36 O60 2.385 . S
Mn36 O61 2.209 . S
Mn36 O62 2.094 1_455 S
Mn37 O42 2.121 . S
Mn37 N44 2.257 . S
Mn37 N53 2.282 . S
Mn37 O61 2.215 . S
Mn37 O63 2.117 1_455 S
C38 O60 1.234 . S
C38 O61 1.283 . S
C39 O51 1.281 1_455 S
C39 O52 1.236 1_565 S
C40 O62 1.240 . S
C40 O63 1.264 . S
O41 Mn36 2.095 1_655 S
O41 C50 1.250 1_655 S
O42 Mn37 2.121 . S
O42 C50 1.258 . S
C43 N44 1.326 . S
C43 C47 1.460 . S
C43 H49 0.929 . S
N44 Mn37 2.257 . S
N44 C43 1.326 . S
N44 C48 1.362 . S
C45 C46 1.258 . S
C45 C48 1.431 . S
C45 C65 1.449 . S
C46 C45 1.258 . S
C46 C47 1.477 . S
C46 H66 0.931 . S
C47 C43 1.460 . S
C47 C46 1.477 . S
C47 H67 0.930 . S
C48 N44 1.362 . S
C48 C45 1.431 . S
C48 C58 1.476 . S
H49 C43 0.929 . S
C50 O41 1.250 1_455 S
C50 O42 1.258 . S
O51 Mn36 2.162 1_665 S
O51 C39 1.281 1_655 S
O52 Mn36 2.297 . S
O52 C39 1.236 1_545 S
N53 Mn37 2.282 . S
N53 C54 1.328 . S
N53 C58 1.318 . S
C54 N53 1.328 . S
C54 C55 1.457 . S
C54 H59 0.929 . S
C55 C54 1.457 . S
C55 C56 1.291 . S
C55 H68 0.931 . S
C56 C55 1.291 . S
C56 C57 1.373 . S
C56 H69 0.929 . S
C57 C56 1.373 . S
C57 C58 1.396 . S
C57 C64 1.403 . S
C58 C48 1.476 . S
C58 N53 1.318 . S
C58 C57 1.396 . S
H59 C54 0.929 . S
O60 Mn36 2.385 . S
O60 C38 1.234 . S
O61 Mn36 2.209 . S
O61 Mn37 2.215 . S
O61 C38 1.283 . S
O62 Mn36 2.094 1_655 S
O62 C40 1.240 . S
O63 Mn37 2.117 1_655 S
O63 C40 1.264 . S
C64 C57 1.403 . S
C64 C65 1.399 . S
C64 H70 0.929 . S
C65 C45 1.449 . S
C65 C64 1.399 . S
C65 H71 0.930 . S
H66 C46 0.931 . S
H67 C47 0.930 . S
H68 C55 0.931 . S
H69 C56 0.929 . S
H70 C64 0.929 . S
H71 C65 0.930 . S
Mn72 O77 2.095 1_455 S
Mn72 O87 2.162 . S
Mn72 O88 2.297 . S
Mn72 O96 2.385 . S
Mn72 O97 2.209 . S
Mn72 O98 2.094 1_455 S
Mn73 O78 2.121 . S
Mn73 N80 2.257 1_655 S
Mn73 N89 2.282 1_655 S
Mn73 O97 2.215 1_655 S
Mn73 O99 2.117 . S
C74 O96 1.234 . S
C74 O97 1.283 . S
C75 O87 1.281 . S
C75 O88 1.236 . S
C76 O98 1.240 . S
C76 O99 1.264 . S
O77 Mn72 2.095 1_655 S
O77 C86 1.250 . S
O78 Mn73 2.121 . S
O78 C86 1.258 . S
C79 N80 1.326 1_655 S
C79 C83 1.460 1_655 S
C79 H85 0.929 . S
N80 Mn73 2.257 1_455 S
N80 C79 1.326 1_455 S
N80 C84 1.362 . S
C81 C82 1.258 . S
C81 C84 1.431 . S
C81 C101 1.449 . S
C82 C81 1.258 . S
C82 C83 1.477 . S
C82 H102 0.931 . S
C83 C79 1.460 1_455 S
C83 C82 1.477 . S
C83 H103 0.930 . S
C84 N80 1.362 . S
C84 C81 1.431 . S
C84 C94 1.476 . S
H85 C79 0.929 . S
C86 O77 1.250 . S
C86 O78 1.258 . S
O87 Mn72 2.162 . S
O87 C75 1.281 . S
O88 Mn72 2.297 . S
O88 C75 1.236 . S
N89 Mn73 2.282 1_455 S
N89 C90 1.328 . S
N89 C94 1.318 . S
C90 N89 1.328 . S
C90 C91 1.457 . S
C90 H95 0.929 . S
C91 C90 1.457 . S
C91 C92 1.291 . S
C91 H104 0.931 . S
C92 C91 1.291 . S
C92 C93 1.373 . S
C92 H105 0.929 . S
C93 C92 1.373 . S
C93 C94 1.396 . S
C93 C100 1.403 . S
C94 C84 1.476 . S
C94 N89 1.318 . S
C94 C93 1.396 . S
H95 C90 0.929 . S
O96 Mn72 2.385 . S
O96 C74 1.234 . S
O97 Mn72 2.209 . S
O97 Mn73 2.215 1_455 S
O97 C74 1.283 . S
O98 Mn72 2.094 1_655 S
O98 C76 1.240 . S
O99 Mn73 2.117 . S
O99 C76 1.264 . S
C100 C93 1.403 . S
C100 C101 1.399 . S
C100 H106 0.929 . S
C101 C81 1.449 . S
C101 C100 1.399 . S
C101 H107 0.930 . S
H102 C82 0.931 . S
H103 C83 0.930 . S
H104 C91 0.931 . S
H105 C92 0.929 . S
H106 C100 0.929 . S
H107 C101 0.930 . S
C108 O110 1.247 . S
C108 O112 1.258 1_455 S
C109 O116 1.247 1_455 S
C109 O117 1.258 . S
O110 C108 1.247 . S
O110 Zn111 2.028 . S
Zn111 O110 2.028 . S
Zn111 O115 2.035 . S
Zn111 O117 2.035 . S
Zn111 O118 2.028 . S
O112 C108 1.258 1_655 S
O112 Zn113 2.035 . S
Zn113 O112 2.035 . S
Zn113 O114 2.028 . S
Zn113 O116 2.028 . S
Zn113 O119 2.035 . S
O114 Zn113 2.028 . S
O114 C120 1.247 1_655 S
O115 Zn111 2.035 . S
O115 C120 1.258 . S
O116 C109 1.247 1_655 S
O116 Zn113 2.028 . S
O117 C109 1.258 . S
O117 Zn111 2.035 . S
O118 Zn111 2.028 . S
O118 C121 1.247 . S
O119 Zn113 2.035 . S
O119 C121 1.258 1_655 S
C120 O114 1.247 1_455 S
C120 O115 1.258 . S
C121 O118 1.247 . S
C121 O119 1.258 1_455 S
C122 O124 1.247 . S
C122 O126 1.258 . S
C123 O130 1.247 . S
C123 O131 1.258 . S
O124 C122 1.247 . S
O124 Zn125 2.028 . S
Zn125 O124 2.028 . S
Zn125 O129 2.035 . S
Zn125 O131 2.035 . S
Zn125 O132 2.028 . S
O126 C122 1.258 . S
O126 Zn127 2.035 . S
Zn127 O126 2.035 . S
Zn127 O128 2.028 . S
Zn127 O130 2.028 . S
Zn127 O133 2.035 . S
O128 Zn127 2.028 . S
O128 C134 1.247 . S
O129 Zn125 2.035 . S
O129 C134 1.258 . S
O130 C123 1.247 . S
O130 Zn127 2.028 . S
O131 C123 1.258 . S
O131 Zn125 2.035 . S
O132 Zn125 2.028 . S
O132 C135 1.247 . S
O133 Zn127 2.035 . S
O133 C135 1.258 . S
C134 O128 1.247 . S
C134 O129 1.258 . S
C135 O132 1.247 . S
C135 O133 1.258 . S
C136 O138 1.247 . S
C136 O140 1.258 . S
C137 O144 1.247 . S
C137 O145 1.258 . S
O138 C136 1.247 . S
O138 Zn139 2.028 . S
Zn139 O138 2.028 . S
Zn139 O143 2.035 . S
Zn139 O145 2.035 . S
Zn139 O146 2.028 . S
O140 C136 1.258 . S
O140 Zn141 2.035 . S
Zn141 O140 2.035 . S
Zn141 O142 2.028 . S
Zn141 O144 2.028 . S
Zn141 O147 2.035 . S
O142 Zn141 2.028 . S
O142 C148 1.247 . S
O143 Zn139 2.035 . S
O143 C148 1.258 . S
O144 C137 1.247 . S
O144 Zn141 2.028 . S
O145 C137 1.258 . S
O145 Zn139 2.035 . S
O146 Zn139 2.028 . S
O146 C149 1.247 . S
O147 Zn141 2.035 . S
O147 C149 1.258 . S
C148 O142 1.247 . S
C148 O143 1.258 . S
C149 O146 1.247 . S
C149 O147 1.258 . S
H150 C162 0.930 1_655 S
H151 C164 0.930 . S
H152 C165 0.930 . S
H153 C169 0.959 . S
H154 C169 0.959 . S
H155 C169 0.961 . S
H156 C170 0.960 . S
H157 C170 0.961 . S
H158 C170 0.959 . S
H159 C173 0.929 . S
H160 C174 0.931 . S
H161 C176 0.930 1_655 S
C162 H150 0.930 1_455 S
C162 C163 1.399 . S
C162 C167 1.399 . S
C163 C162 1.399 . S
C163 C164 1.376 . S
C164 H151 0.930 . S
C164 C163 1.376 . S
C164 C165 1.388 . S
C165 H152 0.930 . S
C165 C164 1.388 . S
C165 C166 1.390 . S
C166 C165 1.390 . S
C166 C167 1.394 . S
C166 C172 1.465 . S
C167 C162 1.399 . S
C167 C166 1.394 . S
C167 C168 1.516 1_455 S
C168 C167 1.516 1_655 S
C168 C169 1.502 . S
C168 C170 1.561 . S
C168 C171 1.526 1_655 S
C169 H153 0.959 . S
C169 H154 0.959 . S
C169 H155 0.961 . S
C169 C168 1.502 . S
C170 H156 0.960 . S
C170 H157 0.961 . S
C170 H158 0.959 . S
C170 C168 1.561 . S
C171 C168 1.526 1_455 S
C171 C172 1.396 . S
C171 C176 1.390 . S
C172 C166 1.465 . S
C172 C171 1.396 . S
C172 C173 1.399 . S
C173 H159 0.929 . S
C173 C172 1.399 . S
C173 C174 1.385 . S
C174 H160 0.931 . S
C174 C173 1.385 . S
C174 C175 1.389 . S
C175 C174 1.389 . S
C175 C176 1.387 . S
C176 H161 0.930 1_455 S
C176 C171 1.390 . S
C176 C175 1.387 . S
H177 C189 0.930 . S
H178 C191 0.930 . S
H179 C192 0.930 . S
H180 C196 0.959 1_545 S
H181 C196 0.959 . S
H182 C196 0.961 . S
H183 C197 0.960 . S
H184 C197 0.961 . S
H185 C197 0.959 1_545 S
H186 C200 0.929 . S
H187 C201 0.931 . S
H188 C203 0.930 . S
C189 H177 0.930 . S
C189 C190 1.399 . S
C189 C194 1.399 . S
C190 C189 1.399 . S
C190 C191 1.376 . S
C191 H178 0.930 . S
C191 C190 1.376 . S
C191 C192 1.388 . S
C192 H179 0.930 . S
C192 C191 1.388 . S
C192 C193 1.390 . S
C193 C192 1.390 . S
C193 C194 1.394 . S
C193 C199 1.465 . S
C194 C189 1.399 . S
C194 C193 1.394 . S
C194 C195 1.516 . S
C195 C194 1.516 . S
C195 C196 1.502 1_545 S
C195 C197 1.561 1_545 S
C195 C198 1.526 . S
C196 H180 0.959 1_565 S
C196 H181 0.959 . S
C196 H182 0.961 . S
C196 C195 1.502 1_565 S
C197 H183 0.960 . S
C197 H184 0.961 . S
C197 H185 0.959 1_565 S
C197 C195 1.561 1_565 S
C198 C195 1.526 . S
C198 C199 1.396 . S
C198 C203 1.390 . S
C199 C193 1.465 . S
C199 C198 1.396 . S
C199 C200 1.399 . S
C200 H186 0.929 . S
C200 C199 1.399 . S
C200 C201 1.385 . S
C201 H187 0.931 . S
C201 C200 1.385 . S
C201 C202 1.389 . S
C202 C201 1.389 . S
C202 C203 1.387 . S
C203 H188 0.930 . S
C203 C198 1.390 . S
C203 C202 1.387 . S
H204 C216 0.930 . S
H205 C218 0.930 1_545 S
H206 C219 0.930 . S
H207 C223 0.959 . S
H208 C223 0.959 . S
H209 C223 0.961 . S
H210 C224 0.960 . S
H211 C224 0.961 . S
H212 C224 0.959 . S
H213 C227 0.929 . S
H214 C228 0.931 . S
H215 C230 0.930 . S
C216 H204 0.930 . S
C216 C217 1.399 . S
C216 C221 1.399 . S
C217 C216 1.399 . S
C217 C218 1.376 . S
C218 H205 0.930 1_565 S
C218 C217 1.376 . S
C218 C219 1.388 . S
C219 H206 0.930 . S
C219 C218 1.388 . S
C219 C220 1.390 . S
C220 C219 1.390 . S
C220 C221 1.394 . S
C220 C226 1.465 . S
C221 C216 1.399 . S
C221 C220 1.394 . S
C221 C222 1.516 . S
C222 C221 1.516 . S
C222 C223 1.502 . S
C222 C224 1.561 . S
C222 C225 1.526 . S
C223 H207 0.959 . S
C223 H208 0.959 . S
C223 H209 0.961 . S
C223 C222 1.502 . S
C224 H210 0.960 . S
C224 H211 0.961 . S
C224 H212 0.959 . S
C224 C222 1.561 . S
C225 C222 1.526 . S
C225 C226 1.396 . S
C225 C230 1.390 . S
C226 C220 1.465 . S
C226 C225 1.396 . S
C226 C227 1.399 . S
C227 H213 0.929 . S
C227 C226 1.399 . S
C227 C228 1.385 . S
C228 H214 0.931 . S
C228 C227 1.385 . S
C228 C229 1.389 . S
C229 C228 1.389 . S
C229 C230 1.387 . S
C230 H215 0.930 . S
C230 C225 1.390 . S
C230 C229 1.387 . S
H231 C243 0.930 . S
H232 C245 0.930 1_655 S
H233 C246 0.930 . S
H234 C250 0.959 . S
H235 C250 0.959 . S
H236 C250 0.961 . S
H237 C251 0.960 . S
H238 C251 0.961 . S
H239 C251 0.959 . S
H240 C254 0.929 . S
H241 C255 0.931 . S
H242 C257 0.930 . S
C243 H231 0.930 . S
C243 C244 1.399 . S
C243 C248 1.399 . S
C244 C243 1.399 . S
C244 C245 1.376 . S
C245 H232 0.930 1_455 S
C245 C244 1.376 . S
C245 C246 1.388 1_455 S
C246 H233 0.930 . S
C246 C245 1.388 1_655 S
C246 C247 1.390 1_655 S
C247 C246 1.390 1_455 S
C247 C248 1.394 . S
C247 C253 1.465 . S
C248 C243 1.399 . S
C248 C247 1.394 . S
C248 C249 1.516 . S
C249 C248 1.516 . S
C249 C250 1.502 . S
C249 C251 1.561 . S
C249 C252 1.526 . S
C250 H234 0.959 . S
C250 H235 0.959 . S
C250 H236 0.961 . S
C250 C249 1.502 . S
C251 H237 0.960 . S
C251 H238 0.961 . S
C251 H239 0.959 . S
C251 C249 1.561 . S
C252 C249 1.526 . S
C252 C253 1.396 . S
C252 C257 1.390 . S
C253 C247 1.465 . S
C253 C252 1.396 . S
C253 C254 1.399 1_455 S
C254 H240 0.929 . S
C254 C253 1.399 1_655 S
C254 C255 1.385 . S
C255 H241 0.931 . S
C255 C254 1.385 . S
C255 C256 1.389 1_655 S
C256 C255 1.389 1_455 S
C256 C257 1.387 . S
C257 H242 0.930 . S
C257 C252 1.390 . S
C257 C256 1.387 . S
H258 C270 0.930 . S
H259 C272 0.930 . S
H260 C273 0.930 1_565 S
H261 C277 0.959 . S
H262 C277 0.959 . S
H263 C277 0.961 . S
H264 C278 0.960 . S
H265 C278 0.961 . S
H266 C278 0.959 . S
H267 C281 0.929 1_565 S
H268 C282 0.931 . S
H269 C284 0.930 . S
C270 H258 0.930 . S
C270 C271 1.399 . S
C270 C275 1.399 . S
C271 C270 1.399 . S
C271 C272 1.376 . S
C272 H259 0.930 . S
C272 C271 1.376 . S
C272 C273 1.388 . S
C273 H260 0.930 1_545 S
C273 C272 1.388 . S
C273 C274 1.390 . S
C274 C273 1.390 . S
C274 C275 1.394 . S
C274 C280 1.465 . S
C275 C270 1.399 . S
C275 C274 1.394 . S
C275 C276 1.516 . S
C276 C275 1.516 . S
C276 C277 1.502 . S
C276 C278 1.561 . S
C276 C279 1.526 . S
C277 H261 0.959 . S
C277 H262 0.959 . S
C277 H263 0.961 . S
C277 C276 1.502 . S
C278 H264 0.960 . S
C278 H265 0.961 . S
C278 H266 0.959 . S
C278 C276 1.561 . S
C279 C276 1.526 . S
C279 C280 1.396 . S
C279 C284 1.390 . S
C280 C274 1.465 . S
C280 C279 1.396 . S
C280 C281 1.399 . S
C281 H267 0.929 1_545 S
C281 C280 1.399 . S
C281 C282 1.385 . S
C282 H268 0.931 . S
C282 C281 1.385 . S
C282 C283 1.389 . S
C283 C282 1.389 . S
C283 C284 1.387 . S
C284 H269 0.930 . S
C284 C279 1.390 . S
C284 C283 1.387 . S
H285 C297 0.930 . S
H286 C299 0.930 . S
H287 C300 0.930 . S
H288 C304 0.959 . S
H289 C304 0.959 . S
H290 C304 0.961 . S
H291 C305 0.960 . S
H292 C305 0.961 . S
H293 C305 0.959 . S
H294 C308 0.929 . S
H295 C309 0.931 . S
H296 C311 0.930 . S
C297 H285 0.930 . S
C297 C298 1.399 . S
C297 C302 1.399 . S
C298 C297 1.399 . S
C298 C299 1.376 . S
C299 H286 0.930 . S
C299 C298 1.376 . S
C299 C300 1.388 . S
C300 H287 0.930 . S
C300 C299 1.388 . S
C300 C301 1.390 . S
C301 C300 1.390 . S
C301 C302 1.394 . S
C301 C307 1.465 . S
C302 C297 1.399 . S
C302 C301 1.394 . S
C302 C303 1.516 . S
C303 C302 1.516 . S
C303 C304 1.502 . S
C303 C305 1.561 . S
C303 C306 1.526 . S
C304 H288 0.959 . S
C304 H289 0.959 . S
C304 H290 0.961 . S
C304 C303 1.502 . S
C305 H291 0.960 . S
C305 H292 0.961 . S
C305 H293 0.959 . S
C305 C303 1.561 . S
C306 C303 1.526 . S
C306 C307 1.396 . S
C306 C311 1.390 . S
C307 C301 1.465 . S
C307 C306 1.396 . S
C307 C308 1.399 . S
C308 H294 0.929 . S
C308 C307 1.399 . S
C308 C309 1.385 . S
C309 H295 0.931 . S
C309 C308 1.385 . S
C309 C310 1.389 . S
C310 C309 1.389 . S
C310 C311 1.387 . S
C311 H296 0.930 . S
C311 C306 1.390 . S
C311 C310 1.387 . S
H312 C324 0.930 . S
H313 C326 0.930 . S
H314 C327 0.930 . S
H315 C331 0.959 . S
H316 C331 0.959 1_565 S
H317 C331 0.961 1_565 S
H318 C332 0.960 . S
H319 C332 0.961 . S
H320 C332 0.959 1_545 S
H321 C335 0.929 . S
H322 C336 0.931 . S
H323 C338 0.930 . S
C324 H312 0.930 . S
C324 C325 1.399 . S
C324 C329 1.399 . S
C325 C324 1.399 . S
C325 C326 1.376 . S
C326 H313 0.930 . S
C326 C325 1.376 . S
C326 C327 1.388 . S
C327 H314 0.930 . S
C327 C326 1.388 . S
C327 C328 1.390 . S
C328 C327 1.390 . S
C328 C329 1.394 . S
C328 C334 1.465 . S
C329 C324 1.399 . S
C329 C328 1.394 . S
C329 C330 1.516 . S
C330 C329 1.516 . S
C330 C331 1.502 . S
C330 C332 1.561 1_545 S
C330 C333 1.526 . S
C331 H315 0.959 . S
C331 H316 0.959 1_545 S
C331 H317 0.961 1_545 S
C331 C330 1.502 . S
C332 H318 0.960 . S
C332 H319 0.961 . S
C332 H320 0.959 1_565 S
C332 C330 1.561 1_565 S
C333 C330 1.526 . S
C333 C334 1.396 . S
C333 C338 1.390 . S
C334 C328 1.465 . S
C334 C333 1.396 . S
C334 C335 1.399 . S
C335 H321 0.929 . S
C335 C334 1.399 . S
C335 C336 1.385 . S
C336 H322 0.931 . S
C336 C335 1.385 . S
C336 C337 1.389 . S
C337 C336 1.389 . S
C337 C338 1.387 . S
C338 H323 0.930 . S
C338 C333 1.390 . S
C338 C337 1.387 . S
H339 C351 0.930 1_545 S
H340 C353 0.930 . S
H341 C354 0.930 . S
H342 C358 0.959 . S
H343 C358 0.959 . S
H344 C358 0.961 1_545 S
H345 C359 0.960 . S
H346 C359 0.961 . S
H347 C359 0.959 . S
H348 C362 0.929 . S
H349 C363 0.931 . S
H350 C365 0.930 . S
C351 H339 0.930 1_565 S
C351 C352 1.399 1_556 S
C351 C356 1.399 . S
C352 C351 1.399 1_554 S
C352 C353 1.376 . S
C353 H340 0.930 . S
C353 C352 1.376 . S
C353 C354 1.388 . S
C354 H341 0.930 . S
C354 C353 1.388 . S
C354 C355 1.390 1_554 S
C355 C354 1.390 1_556 S
C355 C356 1.394 . S
C355 C361 1.465 . S
C356 C351 1.399 . S
C356 C355 1.394 . S
C356 C357 1.516 . S
C357 C356 1.516 . S
C357 C358 1.502 . S
C357 C359 1.561 . S
C357 C360 1.526 . S
C358 H342 0.959 . S
C358 H343 0.959 . S
C358 H344 0.961 1_565 S
C358 C357 1.502 . S
C359 H345 0.960 . S
C359 H346 0.961 . S
C359 H347 0.959 . S
C359 C357 1.561 . S
C360 C357 1.526 . S
C360 C361 1.396 . S
C360 C365 1.390 . S
C361 C355 1.465 . S
C361 C360 1.396 . S
C361 C362 1.399 . S
C362 H348 0.929 . S
C362 C361 1.399 . S
C362 C363 1.385 . S
C363 H349 0.931 . S
C363 C362 1.385 . S
C363 C364 1.389 . S
C364 C363 1.389 . S
C364 C365 1.387 . S
C365 H350 0.930 . S
C365 C360 1.390 . S
C365 C364 1.387 . S
H366 C378 0.930 . S
H367 C380 0.930 1_655 S
H368 C381 0.930 1_655 S
H369 C385 0.959 . S
H370 C385 0.959 . S
H371 C385 0.961 . S
H372 C386 0.960 . S
H373 C386 0.961 . S
H374 C386 0.959 . S
H375 C389 0.929 . S
H376 C390 0.931 . S
H377 C392 0.930 . S
C378 H366 0.930 . S
C378 C379 1.399 . S
C378 C383 1.399 . S
C379 C378 1.399 . S
C379 C380 1.376 . S
C380 H367 0.930 1_455 S
C380 C379 1.376 . S
C380 C381 1.388 . S
C381 H368 0.930 1_455 S
C381 C380 1.388 . S
C381 C382 1.390 . S
C382 C381 1.390 . S
C382 C383 1.394 . S
C382 C388 1.465 . S
C383 C378 1.399 . S
C383 C382 1.394 . S
C383 C384 1.516 . S
C384 C383 1.516 . S
C384 C385 1.502 . S
C384 C386 1.561 1_455 S
C384 C387 1.526 . S
C385 H369 0.959 . S
C385 H370 0.959 . S
C385 H371 0.961 . S
C385 C384 1.502 . S
C386 H372 0.960 . S
C386 H373 0.961 . S
C386 H374 0.959 . S
C386 C384 1.561 1_655 S
C387 C384 1.526 . S
C387 C388 1.396 . S
C387 C392 1.390 . S
C388 C382 1.465 . S
C388 C387 1.396 . S
C388 C389 1.399 . S
C389 H375 0.929 . S
C389 C388 1.399 . S
C389 C390 1.385 . S
C390 H376 0.931 . S
C390 C389 1.385 . S
C390 C391 1.389 . S
C391 C390 1.389 . S
C391 C392 1.387 . S
C392 H377 0.930 . S
C392 C387 1.390 . S
C392 C391 1.387 . S
H393 C405 0.930 . S
H394 C407 0.930 . S
H395 C408 0.930 . S
H396 C412 0.959 . S
H397 C412 0.959 1_565 S
H398 C412 0.961 1_565 S
H399 C413 0.960 . S
H400 C413 0.961 . S
H401 C413 0.959 . S
H402 C416 0.929 . S
H403 C417 0.931 . S
H404 C419 0.930 . S
C405 H393 0.930 . S
C405 C406 1.399 . S
C405 C410 1.399 . S
C406 C405 1.399 . S
C406 C407 1.376 . S
C407 H394 0.930 . S
C407 C406 1.376 . S
C407 C408 1.388 . S
C408 H395 0.930 . S
C408 C407 1.388 . S
C408 C409 1.390 . S
C409 C408 1.390 . S
C409 C410 1.394 . S
C409 C415 1.465 . S
C410 C405 1.399 . S
C410 C409 1.394 . S
C410 C411 1.516 . S
C411 C410 1.516 . S
C411 C412 1.502 . S
C411 C413 1.561 1_545 S
C411 C414 1.526 . S
C412 H396 0.959 . S
C412 H397 0.959 1_545 S
C412 H398 0.961 1_545 S
C412 C411 1.502 . S
C413 H399 0.960 . S
C413 H400 0.961 . S
C413 H401 0.959 . S
C413 C411 1.561 1_565 S
C414 C411 1.526 . S
C414 C415 1.396 . S
C414 C419 1.390 . S
C415 C409 1.465 . S
C415 C414 1.396 . S
C415 C416 1.399 . S
C416 H402 0.929 . S
C416 C415 1.399 . S
C416 C417 1.385 . S
C417 H403 0.931 . S
C417 C416 1.385 . S
C417 C418 1.389 . S
C418 C417 1.389 . S
C418 C419 1.387 . S
C419 H404 0.930 . S
C419 C414 1.390 . S
C419 C418 1.387 . S
H420 C432 0.930 . S
H421 C434 0.928 1_554 S
H422 C435 0.930 . S
H423 C439 0.959 . S
H424 C439 0.959 . S
H425 C439 0.961 1_554 S
H426 C440 0.960 . S
H427 C440 0.961 . S
H428 C440 0.959 . S
H429 C443 0.929 . S
H430 C444 0.931 . S
H431 C446 0.930 . S
C432 H420 0.930 . S
C432 C433 1.399 . S
C432 C437 1.399 1_554 S
C433 C432 1.399 . S
C433 C434 1.372 1_554 S
C434 H421 0.928 1_556 S
C434 C433 1.372 1_556 S
C434 C435 1.394 . S
C435 H422 0.930 . S
C435 C434 1.394 . S
C435 C436 1.390 . S
C436 C435 1.390 . S
C436 C437 1.394 . S
C436 C442 1.465 . S
C437 C432 1.399 1_556 S
C437 C436 1.394 . S
C437 C438 1.516 . S
C438 C437 1.516 . S
C438 C439 1.502 . S
C438 C440 1.561 1_556 S
C438 C441 1.526 . S
C439 H423 0.959 . S
C439 H424 0.959 . S
C439 H425 0.961 1_556 S
C439 C438 1.502 . S
C440 H426 0.960 . S
C440 H427 0.961 . S
C440 H428 0.959 . S
C440 C438 1.561 1_554 S
C441 C438 1.526 . S
C441 C442 1.396 . S
C441 C446 1.390 . S
C442 C436 1.465 . S
C442 C441 1.396 . S
C442 C443 1.399 . S
C443 H429 0.929 . S
C443 C442 1.399 . S
C443 C444 1.385 . S
C444 H430 0.931 . S
C444 C443 1.385 . S
C444 C445 1.389 . S
C445 C444 1.389 . S
C445 C446 1.387 . S
C446 H431 0.930 . S
C446 C441 1.390 . S
C446 C445 1.387 . S
H447 C459 0.930 . S
H448 C461 0.930 . S
H449 C462 0.930 . S
H450 C466 0.959 . S
H451 C466 0.959 . S
H452 C466 0.961 . S
H453 C467 0.960 . S
H454 C467 0.961 . S
H455 C467 0.959 . S
H456 C470 0.929 . S
H457 C471 0.931 . S
H458 C473 0.930 . S
C459 H447 0.930 . S
C459 C460 1.399 . S
C459 C464 1.399 . S
C460 C459 1.399 . S
C460 C461 1.376 . S
C461 H448 0.930 . S
C461 C460 1.376 . S
C461 C462 1.388 . S
C462 H449 0.930 . S
C462 C461 1.388 . S
C462 C463 1.390 . S
C463 C462 1.390 . S
C463 C464 1.394 . S
C463 C469 1.465 . S
C464 C459 1.399 . S
C464 C463 1.394 . S
C464 C465 1.516 . S
C465 C464 1.516 . S
C465 C466 1.502 . S
C465 C467 1.561 1_455 S
C465 C468 1.526 . S
C466 H450 0.959 . S
C466 H451 0.959 . S
C466 H452 0.961 . S
C466 C465 1.502 . S
C467 H453 0.960 . S
C467 H454 0.961 . S
C467 H455 0.959 . S
C467 C465 1.561 1_655 S
C468 C465 1.526 . S
C468 C469 1.396 . S
C468 C473 1.390 . S
C469 C463 1.465 . S
C469 C468 1.396 . S
C469 C470 1.399 . S
C470 H456 0.929 . S
C470 C469 1.399 . S
C470 C471 1.385 . S
C471 H457 0.931 . S
C471 C470 1.385 . S
C471 C472 1.389 . S
C472 C471 1.389 . S
C472 C473 1.387 . S
C473 H458 0.930 . S
C473 C468 1.390 . S
C473 C472 1.387 . S
C175 C109 1.466 . S
C163 C14 1.443 . S
C190 C40 1.429 . S
C202 C135 1.476 . S
C217 C76 1.425 1_565 S
C229 C137 1.460 . S
C244 C3 1.425 1_565 S
C256 C121 1.438 . S
C283 C123 1.473 . S
C271 C38 1.433 . S
C298 C74 1.429 . S
C310 C149 1.458 . S
C337 C122 1.429 . S
C325 C86 1.369 . S
C352 C2 1.424 1_565 S
C364 C148 1.448 . S
C391 C108 1.438 . S
C379 C39 1.429 . S
C418 C134 1.449 . S
C406 C75 1.434 . S
C445 C136 1.454 . S
C433 C4 1.455 . S
C460 C50 1.395 . S
C472 C120 1.457 . S
