# Generated by pormake.
# Topology rtl, (3,6)-cn, num edge types: 1
# Building blocks:
#     Node 0, Type 0, BuildingBlock: WUSLED_clean_sbu_0, # of connection points: 3
#     Node 1, Type 0, BuildingBlock: WUSLED_clean_sbu_0, # of connection points: 3
#     Node 2, Type 0, BuildingBlock: WUSLED_clean_sbu_0, # of connection points: 3
#     Node 3, Type 0, BuildingBlock: WUSLED_clean_sbu_0, # of connection points: 3
#     Node 4, Type 1, BuildingBlock: KUMJIN_clean_sbu_1, # of connection points: 6
#     Node 5, Type 1, BuildingBlock: KUMJIN_clean_sbu_1, # of connection points: 6
#     Edge 6, Type (0, 1), BuildingBlock: UVAHIK_clean_linker_0, # of connection points: 2
#     Edge 7, Type (0, 1), BuildingBlock: UVAHIK_clean_linker_0, # of connection points: 2
#     Edge 8, Type (0, 1), BuildingBlock: UVAHIK_clean_linker_0, # of connection points: 2
#     Edge 9, Type (0, 1), BuildingBlock: UVAHIK_clean_linker_0, # of connection points: 2
#     Edge 10, Type (0, 1), BuildingBlock: UVAHIK_clean_linker_0, # of connection points: 2
#     Edge 11, Type (0, 1), BuildingBlock: UVAHIK_clean_linker_0, # of connection points: 2
#     Edge 12, Type (0, 1), BuildingBlock: UVAHIK_clean_linker_0, # of connection points: 2
#     Edge 13, Type (0, 1), BuildingBlock: UVAHIK_clean_linker_0, # of connection points: 2
#     Edge 14, Type (0, 1), BuildingBlock: UVAHIK_clean_linker_0, # of connection points: 2
#     Edge 15, Type (0, 1), BuildingBlock: UVAHIK_clean_linker_0, # of connection points: 2
#     Edge 16, Type (0, 1), BuildingBlock: UVAHIK_clean_linker_0, # of connection points: 2
#     Edge 17, Type (0, 1), BuildingBlock: UVAHIK_clean_linker_0, # of connection points: 2
# Relax obj value: 0.016
# Max RMSD: 0.092
# Mean RMSD: 0.053
data_MOF--net-rtl--node1-WUSLED_clean_sbu_0--node2-KUMJIN_clean_sbu_1--edge1-UVAHIK_clean_linker_0
_symmetry_space_group_name_H-M    P1
_symmetry_Int_Tables_number       1
_symmetry_cell_setting            triclinic
loop_
_symmetry_equiv_pos_as_xyz
'x, y, z'
_cell_length_a     51.880366
_cell_length_b     52.349075
_cell_length_c     44.267642
_cell_angle_alpha  82.729498
_cell_angle_beta   99.502825
_cell_angle_gamma 90.513439
loop_
_atom_site_label
_atom_site_type_symbol
_atom_site_fract_x
_atom_site_fract_y
_atom_site_fract_z
_atom_type_partial_charge
C0 C 0.2047 0.8467 0.10453 0.0
C1 C 0.20162 0.87349 0.10331 0.0
C2 C 0.18169 0.86742 0.14985 0.0
C3 C 0.19036 0.88375 0.12588 0.0
C4 C 0.18478 0.84064 0.15091 0.0
C5 C 0.19624 0.83042 0.12854 0.0
U6 U 0.21161 0.84276 0.02049 0.0
O7 O 0.24604 0.83599 0.99943 0.0
O8 O 0.21353 0.80876 0.9962 0.0
C9 C 0.23729 0.81395 0.99077 0.0
C10 C 0.21624 0.83525 0.0809 0.0
C11 C 0.256 0.79212 0.99709 0.0
C12 C 0.29512 0.76991 0.02611 0.0
C13 C 0.27665 0.78994 0.02222 0.0
C14 C 0.27207 0.75367 0.98041 0.0
C15 C 0.29325 0.75173 1.00497 0.0
C16 C 0.25372 0.77367 0.9765 0.0
C17 C 0.17224 0.888 0.95553 0.0
C18 C 0.16981 0.88157 0.90172 0.0
C19 C 0.14999 0.91954 0.91484 0.0
C20 C 0.15827 0.91121 0.94622 0.0
C21 C 0.15549 0.90471 0.89222 0.0
C22 C 0.17818 0.87332 0.93311 0.0
C23 C 0.18009 0.87907 0.98861 0.0
O24 O 0.19999 0.82229 0.06265 0.0
O25 O 0.23219 0.84983 0.0662 0.0
O26 O 0.20456 0.88322 1.00011 0.0
O27 O 0.17223 0.85587 0.99781 0.0
H28 H 0.20776 0.8865 0.08487 0.0
H29 H 0.18799 0.90444 0.12425 0.0
H30 H 0.17855 0.82758 0.16925 0.0
H31 H 0.19843 0.80972 0.12993 0.0
H32 H 0.31126 0.76911 0.04516 0.0
H33 H 0.27878 0.80394 0.03848 0.0
H34 H 0.26969 0.73975 0.96405 0.0
H35 H 0.23787 0.77495 0.95704 0.0
H36 H 0.17464 0.86987 0.88488 0.0
H37 H 0.13877 0.93729 0.90833 0.0
H38 H 0.15351 0.92276 0.96324 0.0
H39 H 0.18911 0.85539 0.93991 0.0
C40 C 0.67579 0.6874 0.67965 0.0
C41 C 0.65192 0.67485 0.67261 0.0
C42 C 0.65123 0.66196 0.72751 0.0
C43 C 0.63973 0.66232 0.69629 0.0
C44 C 0.67531 0.67438 0.7343 0.0
C45 C 0.6874 0.68697 0.71063 0.0
U46 U 0.68804 0.69867 0.59601 0.0
O47 O 0.69268 0.73479 0.56594 0.0
O48 O 0.72456 0.70611 0.57748 0.0
C49 C 0.71689 0.72918 0.56375 0.0
C50 C 0.68884 0.701 0.65514 0.0
C51 C 0.73604 0.75017 0.5669 0.0
C52 C 0.77557 0.76875 0.59281 0.0
C53 C 0.75649 0.74956 0.59214 0.0
C54 C 0.75363 0.78968 0.5435 0.0
C55 C 0.77452 0.78894 0.56832 0.0
C56 C 0.73467 0.77053 0.54282 0.0
C57 C 0.65168 0.6571 0.53739 0.0
C58 C 0.65326 0.66377 0.4823 0.0
C59 C 0.63206 0.62612 0.50426 0.0
C60 C 0.63802 0.63425 0.53346 0.0
C61 C 0.63966 0.64071 0.4783 0.0
C62 C 0.65931 0.67186 0.51165 0.0
C63 C 0.65784 0.66497 0.56853 0.0
O64 O 0.70561 0.68717 0.64464 0.0
O65 O 0.67373 0.71577 0.63313 0.0
O66 O 0.64979 0.68813 0.57148 0.0
O67 O 0.68168 0.65954 0.58318 0.0
H68 H 0.64263 0.67487 0.64881 0.0
H69 H 0.6211 0.65325 0.6901 0.0
H70 H 0.68504 0.67415 0.75793 0.0
H71 H 0.7059 0.69639 0.71655 0.0
H72 H 0.7912 0.76773 0.61246 0.0
H73 H 0.75797 0.73408 0.61108 0.0
H74 H 0.75233 0.80466 0.52402 0.0
H75 H 0.71919 0.77129 0.52301 0.0
H76 H 0.65958 0.67534 0.46286 0.0
H77 H 0.62122 0.6085 0.50197 0.0
H78 H 0.63192 0.62266 0.55305 0.0
H79 H 0.66998 0.68954 0.51429 0.0
C80 C 0.82611 0.16239 0.11819 0.0
C81 C 0.83793 0.13819 0.11938 0.0
C82 C 0.8541 0.13798 0.17439 0.0
C83 C 0.85174 0.12601 0.14732 0.0
C84 C 0.84221 0.16225 0.17291 0.0
C85 C 0.82835 0.17429 0.1451 0.0
U86 U 0.80899 0.17571 0.02958 0.0
O87 O 0.77067 0.18421 1.00047 0.0
O88 O 0.80154 0.21313 1.00057 0.0
C89 C 0.77676 0.20815 0.99178 0.0
C90 C 0.81145 0.17577 0.08932 0.0
C91 C 0.75819 0.22794 0.99612 0.0
C92 C 0.7319 0.24698 0.02836 0.0
C93 C 0.74943 0.22795 0.02448 0.0
C94 C 0.73198 0.26639 0.97571 0.0
C95 C 0.72292 0.26646 1.004 0.0
C96 C 0.74941 0.24729 0.97183 0.0
C97 C 0.84415 0.1378 0.97839 0.0
C98 C 0.85862 0.14972 0.92892 0.0
C99 C 0.85145 0.10492 0.94638 0.0
C100 C 0.84404 0.11191 0.97321 0.0
C101 C 0.85934 0.12366 0.92414 0.0
C102 C 0.85108 0.15673 0.95574 0.0
C103 C 0.83871 0.14418 0.00838 0.0
O104 O 0.82519 0.19125 0.07259 0.0
O105 O 0.79478 0.16183 0.07282 0.0
O106 O 0.8156 0.13778 0.01524 0.0
O107 O 0.84649 0.16678 0.01615 0.0
H108 H 0.83653 0.12877 0.09876 0.0
H109 H 0.86087 0.10744 0.14765 0.0
H110 H 0.84334 0.17183 0.19339 0.0
H111 H 0.81932 0.19296 0.14461 0.0
H112 H 0.72515 0.24622 0.05033 0.0
H113 H 0.75611 0.2132 0.04358 0.0
H114 H 0.7259 0.2813 0.95662 0.0
H115 H 0.75614 0.24771 0.94987 0.0
H116 H 0.86477 0.16467 0.91247 0.0
H117 H 0.85127 0.08473 0.94325 0.0
H118 H 0.83873 0.09697 0.99029 0.0
H119 H 0.85133 0.17688 0.95906 0.0
C120 C 0.35166 0.33021 0.3664 0.0
C121 C 0.3758 0.34233 0.37334 0.0
C122 C 0.37589 0.35599 0.31852 0.0
C123 C 0.38785 0.355 0.34962 0.0
C124 C 0.3516 0.34396 0.31178 0.0
C125 C 0.33966 0.33118 0.33548 0.0
U126 U 0.34058 0.31857 0.45033 0.0
O127 O 0.30446 0.31137 0.46981 0.0
O128 O 0.33611 0.28241 0.48043 0.0
C129 C 0.31224 0.28836 0.48364 0.0
C130 C 0.33873 0.31655 0.39099 0.0
C131 C 0.29279 0.26759 0.48203 0.0
C132 C 0.25366 0.24777 0.45698 0.0
C133 C 0.27324 0.26643 0.45618 0.0
C134 C 0.27338 0.23092 0.50906 0.0
C135 C 0.25323 0.23009 0.4837 0.0
C136 C 0.29288 0.24945 0.5082 0.0
C137 C 0.37793 0.35851 0.50937 0.0
C138 C 0.3731 0.35191 0.5635 0.0
C139 C 0.40127 0.38555 0.5453 0.0
C140 C 0.39511 0.37872 0.51542 0.0
C141 C 0.39035 0.37224 0.56975 0.0
C142 C 0.36693 0.34513 0.53356 0.0
C143 C 0.3716 0.35169 0.47776 0.0
O144 O 0.35388 0.30145 0.41261 0.0
O145 O 0.32237 0.33047 0.40201 0.0
O146 O 0.34771 0.35749 0.46352 0.0
O147 O 0.37933 0.32863 0.47401 0.0
H148 H 0.38533 0.342 0.39709 0.0
H149 H 0.40638 0.36431 0.35567 0.0
H150 H 0.34197 0.34408 0.28812 0.0
H151 H 0.32104 0.32196 0.32963 0.0
H152 H 0.23838 0.24773 0.4371 0.0
H153 H 0.27276 0.28027 0.43571 0.0
H154 H 0.27396 0.21734 0.52977 0.0
H155 H 0.30779 0.24997 0.52838 0.0
H156 H 0.36408 0.34146 0.58166 0.0
H157 H 0.41488 0.40104 0.54933 0.0
H158 H 0.40382 0.38922 0.49701 0.0
H159 H 0.35353 0.3295 0.52926 0.0
Eu160 Eu 0.03156 0.98309 0.5064 0.0
C161 C 0.96311 0.07989 0.49477 0.0
N162 N 0.98701 0.07599 0.51274 0.0
C163 C 1.00042 0.11801 0.49356 0.0
C164 C 0.95719 0.10302 0.4748 0.0
C165 C 1.00551 0.09466 0.51277 0.0
C166 C 0.9762 0.12217 0.47438 0.0
C167 C 0.9201 0.06364 0.47678 0.0
C168 C 0.94492 0.06021 0.49553 0.0
C169 C 0.91427 0.08652 0.45654 0.0
C170 C 0.93275 0.10615 0.45556 0.0
Eu171 Eu 0.9944 0.03573 0.54345 0.0
N172 N 0.9513 0.03796 0.51484 0.0
C173 C 0.90166 0.04417 0.47936 0.0
C174 C 0.93251 0.02014 0.51948 0.0
C175 C 0.90772 0.02259 0.50128 0.0
H176 H 0.02416 0.09155 0.52772 0.0
H177 H 0.89313 0.00805 0.50462 0.0
H178 H 0.99604 0.9293 0.50662 0.0
H179 H 0.13116 0.99845 0.56482 0.0
H180 H 0.93606 0.00445 0.53786 0.0
H181 H 0.88238 0.04608 0.4654 0.0
H182 H 0.09046 0.01002 0.52901 0.0
H183 H 0.01518 0.13274 0.4935 0.0
H184 H 0.8954 0.08933 0.44178 0.0
H185 H 0.92794 0.12369 0.43986 0.0
H186 H 0.99924 0.88456 0.53271 0.0
H187 H 0.9724 0.14019 0.45932 0.0
H188 H 0.1372 0.95473 0.59372 0.0
N189 N 0.03337 0.93971 0.52884 0.0
C190 C 0.05583 0.93178 0.54813 0.0
C191 C 0.01523 0.89768 0.53739 0.0
C192 C 0.05859 0.90637 0.56336 0.0
C193 C 0.01333 0.92308 0.52293 0.0
C194 C 0.0379 0.88931 0.5578 0.0
N195 N 0.07237 0.97402 0.539 0.0
C196 C 0.09221 0.99125 0.54216 0.0
C197 C 0.09918 0.94176 0.5737 0.0
C198 C 0.0759 0.94936 0.5533 0.0
C199 C 0.11904 0.95982 0.57823 0.0
C200 C 0.11564 0.98456 0.56211 0.0
H201 H 0.03928 0.86963 0.56906 0.0
H202 H 0.08414 0.87943 0.59575 0.0
H203 H 0.11965 0.91037 0.60477 0.0
O204 O 0.05474 0.99061 0.46923 0.0
O205 O 0.03183 0.97722 0.55833 0.0
O206 O 0.03156 0.01797 0.57241 0.0
O207 O 0.03353 0.95517 0.47408 0.0
O208 O 0.04664 0.02443 0.5021 0.0
O209 O 0.03753 0.04337 0.54396 0.0
O210 O 0.97278 0.03275 0.58227 0.0
O211 O 0.99774 0.04184 0.49237 0.0
O212 O 0.99412 1.00123 0.47868 0.0
O213 O 0.99428 0.0671 0.57163 0.0
O214 O 0.98226 0.99349 0.55067 0.0
O215 O 0.98823 0.97723 0.50617 0.0
C216 C 0.03779 0.99341 0.57867 0.0
C217 C 0.03898 0.97228 0.4238 0.0
C218 C 0.04694 0.96664 0.37205 0.0
C219 C 0.0218 0.97687 0.35987 0.0
C220 C 0.01407 0.98232 0.41109 0.0
C221 C 1.00558 0.98471 0.37929 0.0
C222 C 0.0554 0.96452 0.40427 0.0
C223 C 0.05071 0.04219 0.52108 0.0
C224 C 0.0478 0.96953 0.4574 0.0
C225 C 0.08171 0.89885 0.58378 0.0
C226 C 0.10193 0.91648 0.58894 0.0
C227 C 0.98993 0.0261 0.47204 0.0
C228 C 0.99171 0.05422 0.624 0.0
C229 C 0.98568 0.05745 0.67703 0.0
C230 C 0.01249 0.052 0.68691 0.0
C231 C 0.0184 0.04912 0.63442 0.0
C232 C 0.97539 0.05852 0.64533 0.0
C233 C 0.02868 0.04791 0.66571 0.0
C234 C 0.97694 0.97657 0.53081 0.0
C235 C 0.98088 0.05467 0.59101 0.0
H236 H 0.01439 0.97836 0.33536 0.0
H237 H 1.00114 0.98808 0.42582 0.0
H238 H 0.98625 0.99241 0.36967 0.0
H239 H 0.07475 0.95696 0.41421 0.0
H240 H 0.02109 0.05137 0.71102 0.0
H241 H 0.03127 0.04623 0.61826 0.0
H242 H 0.95474 0.06239 0.6373 0.0
H243 H 0.04931 0.04393 0.67355 0.0
Eu244 Eu 0.48487 0.49448 0.99292 0.0
C245 C 0.58934 0.55113 0.02414 0.0
N246 N 0.58299 0.52803 0.03864 0.0
C247 C 0.62497 0.51058 0.03601 0.0
C248 C 0.61381 0.55462 0.01435 0.0
C249 C 0.60041 0.50796 0.04505 0.0
C250 C 0.63167 0.53398 0.02047 0.0
C251 C 0.57685 0.59508 1.00263 0.0
C252 C 0.57088 0.57104 0.01807 0.0
C253 C 0.60107 0.59851 0.9925 0.0
C254 C 0.61949 0.57835 0.99836 0.0
Eu255 Eu 0.54093 0.52494 0.05224 0.0
N256 N 0.5473 0.56702 0.02755 0.0
C257 C 0.5585 0.61516 0.99832 0.0
C258 C 0.53049 0.58725 0.02588 0.0
C259 C 0.53545 0.61136 0.01056 0.0
H260 H 0.59541 0.49 0.05739 0.0
H261 H 0.52173 0.62715 0.00876 0.0
H262 H 0.43296 0.53425 0.97561 0.0
H263 H 0.49332 0.39517 0.05072 0.0
H264 H 0.51368 0.58538 0.03723 0.0
H265 H 0.56235 0.63391 0.98661 0.0
H266 H 0.50768 0.43395 0.021 0.0
H267 H 0.63871 0.49457 0.04102 0.0
H268 H 0.60585 0.61678 0.98038 0.0
H269 H 0.6381 0.58132 0.99045 0.0
H270 H 0.38755 0.53555 0.98575 0.0
H271 H 0.65065 0.53589 0.0133 0.0
H272 H 0.44904 0.39371 0.06463 0.0
N273 N 0.44092 0.49681 0.99986 0.0
C274 C 0.43145 0.47571 0.0155 0.0
C275 C 0.39973 0.51866 0.99437 0.0
C276 C 0.40563 0.47552 0.02165 0.0
C277 C 0.42548 0.51799 0.98891 0.0
C278 C 0.38978 0.49738 0.01092 0.0
N279 N 0.47282 0.4553 0.01996 0.0
C280 C 0.48875 0.43409 0.02777 0.0
C281 C 0.43859 0.43231 0.04235 0.0
C282 C 0.44783 0.45437 0.02586 0.0
C283 C 0.45538 0.41101 0.05187 0.0
C284 C 0.48044 0.41181 0.04421 0.0
H285 H 0.36983 0.49798 0.01518 0.0
H286 H 0.37678 0.45322 0.04346 0.0
H287 H 0.40559 0.41542 0.06154 0.0
O288 O 0.49068 0.47113 0.95688 0.0
O289 O 0.47889 0.49483 0.04282 0.0
O290 O 0.51995 0.48993 0.07169 0.0
O291 O 0.45755 0.49703 0.94929 0.0
O292 O 0.52556 0.47612 1.00213 0.0
O293 O 0.54561 0.48197 0.05167 0.0
O294 O 0.5388 0.54685 0.09076 0.0
O295 O 0.54739 0.52265 1.00281 0.0
O296 O 0.50648 0.52927 0.97423 0.0
O297 O 0.57145 0.52126 0.09306 0.0
O298 O 0.49921 0.54114 0.0447 0.0
O299 O 0.4826 0.53746 0.99376 0.0
C300 C 0.49458 0.48673 0.06862 0.0
C301 C 0.45246 0.45903 0.9253 0.0
C302 C 0.43694 0.43483 0.88212 0.0
C303 C 0.4212 0.42018 0.90068 0.0
C304 C 0.43656 0.44416 0.94321 0.0
C305 C 0.42104 0.42487 0.93096 0.0
C306 C 0.45255 0.45439 0.89467 0.0
C307 C 0.54325 0.46979 0.02703 0.0
C308 C 0.46922 0.47911 0.93853 0.0
C309 C 0.39652 0.45367 0.0384 0.0
C310 C 0.41295 0.43215 0.04872 0.0
C311 C 0.53198 0.53125 0.97698 0.0
C312 C 0.55713 0.52619 0.13988 0.0
C313 C 0.56019 0.53222 0.19426 0.0
C314 C 0.55046 0.50721 0.20019 0.0
C315 C 0.54777 0.50126 0.14651 0.0
C316 C 0.56351 0.54161 0.16384 0.0
C317 C 0.54437 0.49188 0.17647 0.0
C318 C 0.48259 0.54821 0.01906 0.0
C319 C 0.55972 0.53626 0.10791 0.0
H320 H 0.40867 0.40531 0.89163 0.0
H321 H 0.43607 0.44744 0.96661 0.0
H322 H 0.40878 0.41355 0.94498 0.0
H323 H 0.46497 0.46575 0.88083 0.0
H324 H 0.54799 0.49931 0.22335 0.0
H325 H 0.54322 0.48904 0.1285 0.0
H326 H 0.57069 0.56093 0.15875 0.0
H327 H 0.53708 0.47261 0.18136 0.0
C328 C 0.22059 0.20691 0.51303 0.0
C329 C 0.23152 0.21139 0.48582 0.0
C330 C 0.20052 0.18915 0.51555 0.0
C331 C 0.17086 0.132 0.48337 0.0
H332 H 0.1131 0.14797 0.52361 0.0
C333 C 0.08212 0.06447 0.48915 0.0
C334 C 0.07125 0.06163 0.51646 0.0
C335 C 0.10125 0.08294 0.48457 0.0
C336 C 0.12923 0.14302 0.51265 0.0
H337 H 0.22972 0.20067 0.43982 0.0
H338 H 0.19449 0.16966 0.44415 0.0
H339 H 0.14684 0.17984 0.51677 0.0
H340 H 0.0724 0.07585 0.56059 0.0
H341 H 0.10597 0.10772 0.55284 0.0
H342 H 0.15346 0.09504 0.47961 0.0
C343 C 0.20164 0.17984 0.46364 0.0
C344 C 0.14858 0.16136 0.50865 0.0
C345 C 0.22167 0.19777 0.46104 0.0
C346 C 0.08015 0.07762 0.53916 0.0
C347 C 0.09935 0.09604 0.53462 0.0
C348 C 0.15156 0.11358 0.48749 0.0
C349 C 0.19083 0.1753 0.49096 0.0
C350 C 0.16973 0.15606 0.49412 0.0
C351 C 0.11013 0.09902 0.50722 0.0
C352 C 0.13053 0.11878 0.50234 0.0
H353 H 0.22744 0.21728 0.53244 0.0
H354 H 0.19287 0.18599 0.53704 0.0
H355 H 0.18704 0.12713 0.47243 0.0
H356 H 0.07566 0.05259 0.47107 0.0
H357 H 0.10877 0.08486 0.46299 0.0
C358 C 0.3222 0.72452 0.98133 0.0
C359 C 0.3136 0.73125 0.00783 0.0
C360 C 0.34109 0.70521 0.98369 0.0
C361 C 0.37157 0.64863 0.03543 0.0
H362 H 0.42418 0.65679 0.98217 0.0
C363 C 0.45746 0.57612 0.04632 0.0
C364 C 0.46366 0.56935 0.01861 0.0
C365 C 0.43963 0.5961 0.04591 0.0
C366 C 0.40948 0.6541 0.99701 0.0
H367 H 0.3183 0.72281 0.05768 0.0
H368 H 0.35172 0.68939 0.06187 0.0
H369 H 0.39259 0.69137 0.98018 0.0
H370 H 0.45631 0.57848 0.96877 0.0
H371 H 0.42503 0.61315 0.96802 0.0
H372 H 0.38855 0.61131 0.05223 0.0
C373 C 0.34354 0.6989 0.03919 0.0
C374 C 0.39134 0.67393 0.99587 0.0
C375 C 0.32459 0.71826 0.03682 0.0
C376 C 0.4518 0.5831 0.99051 0.0
C377 C 0.43404 0.60313 0.9901 0.0
C378 C 0.38978 0.6288 0.03662 0.0
C379 C 0.35202 0.69212 0.01262 0.0
C380 C 0.372 0.67138 0.01486 0.0
C381 C 0.42773 0.60988 0.01778 0.0
C382 C 0.40882 0.63122 0.01724 0.0
H383 H 0.31447 0.73435 0.95866 0.0
H384 H 0.34688 0.70032 0.9627 0.0
H385 H 0.35675 0.64585 0.0501 0.0
H386 H 0.46631 0.5659 0.06836 0.0
H387 H 0.43541 0.60099 0.06765 0.0
C388 C 0.78926 0.83459 0.55652 0.0
C389 C 0.79547 0.80867 0.56788 0.0
C390 C 0.80897 0.85278 0.55398 0.0
C391 C 0.87912 0.86505 0.58085 0.0
H392 H 0.87126 0.91432 0.50666 0.0
C393 C 0.94952 0.95072 0.56506 0.0
C394 C 0.9568 0.95683 0.5358 0.0
C395 C 0.93018 0.93248 0.56966 0.0
C396 C 0.87389 0.9006 0.52742 0.0
H397 H 0.82751 0.78175 0.58586 0.0
H398 H 0.86188 0.81348 0.58154 0.0
H399 H 0.83715 0.88293 0.51383 0.0
H400 H 0.94928 0.94864 0.48837 0.0
H401 H 0.91582 0.91664 0.49643 0.0
H402 H 0.91612 0.88249 0.59415 0.0
C403 C 0.84169 0.8198 0.57487 0.0
C404 C 0.85414 0.88278 0.53173 0.0
C405 C 0.82195 0.80158 0.57739 0.0
C406 C 0.94428 0.94427 0.51125 0.0
C407 C 0.92491 0.92608 0.51582 0.0
C408 C 0.89886 0.88295 0.57658 0.0
C409 C 0.83547 0.84558 0.56275 0.0
C410 C 0.85648 0.86474 0.55849 0.0
C411 C 0.91753 0.91998 0.54507 0.0
C412 C 0.89653 0.90093 0.54977 0.0
H413 H 0.76908 0.84087 0.54951 0.0
H414 H 0.80341 0.87255 0.54514 0.0
H415 H 0.88151 0.8516 0.60184 0.0
H416 H 0.95876 0.96007 0.58447 0.0
H417 H 0.92481 0.9285 0.5924 0.0
C418 C 0.68418 0.29595 0.98367 0.0
C419 C 0.70424 0.2868 0.00799 0.0
C420 C 0.66705 0.31545 0.98702 0.0
C421 C 0.64036 0.34769 0.04482 0.0
H422 H 0.62381 0.40272 0.97711 0.0
C423 C 0.57906 0.43832 0.05321 0.0
C424 C 0.56148 0.44813 0.02666 0.0
C425 C 0.59676 0.41851 0.0521 0.0
C426 C 0.62793 0.38736 0.99612 0.0
H427 H 0.72178 0.29113 0.05506 0.0
H428 H 0.69161 0.32497 0.06099 0.0
H429 H 0.6538 0.36835 0.97296 0.0
H430 H 0.54821 0.44403 0.97836 0.0
H431 H 0.57839 0.40935 0.9767 0.0
H432 H 0.6142 0.36659 0.06783 0.0
C433 C 0.68912 0.31687 0.03937 0.0
C434 C 0.64518 0.36765 0.99373 0.0
C435 C 0.70639 0.29743 0.03596 0.0
C436 C 0.56158 0.4372 0.99925 0.0
C437 C 0.5791 0.41738 0.9982 0.0
C438 C 0.62294 0.36737 0.04715 0.0
C439 C 0.66939 0.32626 0.01484 0.0
C440 C 0.65147 0.34748 0.01793 0.0
C441 C 0.59715 0.40795 0.02447 0.0
C442 C 0.61634 0.38736 0.0227 0.0
H443 H 0.68154 0.28788 0.96203 0.0
H444 H 0.65176 0.32193 0.96786 0.0
H445 H 0.64466 0.3323 0.06378 0.0
H446 H 0.57935 0.44608 0.07481 0.0
H447 H 0.61046 0.41183 0.07276 0.0
C448 C 0.1465 0.8671 0.18261 0.0
C449 C 0.16922 0.87819 0.17352 0.0
C450 C 0.13477 0.87706 0.20495 0.0
C451 C 0.13215 0.93542 0.24439 0.0
H452 H 0.0997 0.88861 0.30164 0.0
C453 C 0.06397 0.97118 0.32156 0.0
C454 C 0.06384 0.95772 0.35114 0.0
C455 C 0.07846 0.96198 0.30114 0.0
C456 C 0.10894 0.90199 0.28614 0.0
H457 H 0.19763 0.90829 0.18102 0.0
H458 H 0.17748 0.92543 0.22044 0.0
H459 H 0.1221 0.8715 0.26435 0.0
H460 H 0.07946 0.92416 0.3825 0.0
H461 H 0.10545 0.90865 0.34736 0.0
H462 H 0.11959 0.96587 0.26678 0.0
C463 C 0.16835 0.90936 0.20985 0.0
C464 C 0.12148 0.89217 0.26435 0.0
C465 C 0.17996 0.8995 0.18729 0.0
C466 C 0.07922 0.93518 0.36004 0.0
C467 C 0.09386 0.92607 0.33967 0.0
C468 C 0.11976 0.94524 0.26633 0.0
C469 C 0.14558 0.89826 0.21901 0.0
C470 C 0.13304 0.90875 0.24296 0.0
C471 C 0.09342 0.93916 0.30977 0.0
C472 C 0.10777 0.92868 0.28734 0.0
H473 H 0.13752 0.85091 0.17209 0.0
H474 H 0.11696 0.86833 0.21084 0.0
H475 H 0.14059 0.94884 0.22816 0.0
H476 H 0.05273 0.98883 0.31402 0.0
H477 H 0.07737 0.9725 0.27826 0.0
C478 C 0.63925 0.65922 0.78084 0.0
C479 C 0.63825 0.64875 0.75289 0.0
C480 C 0.62747 0.6467 0.80482 0.0
C481 C 0.57711 0.59874 0.82123 0.0
H482 H 0.61383 0.5945 0.90549 0.0
C483 C 0.5285 0.56079 0.92705 0.0
C484 C 0.54367 0.54434 0.95079 0.0
C485 C 0.53977 0.57364 0.90281 0.0
C486 C 0.60336 0.5954 0.88208 0.0
H487 H 0.624 0.61658 0.72864 0.0
H488 H 0.60323 0.59495 0.7703 0.0
H489 H 0.634 0.61639 0.86341 0.0
H490 H 0.58235 0.52771 0.96695 0.0
H491 H 0.60212 0.55048 0.92513 0.0
H492 H 0.54658 0.57751 0.83991 0.0
C493 C 0.61298 0.61302 0.77351 0.0
C494 C 0.61481 0.60818 0.85797 0.0
C495 C 0.62488 0.62548 0.74956 0.0
C496 C 0.57027 0.54076 0.94948 0.0
C497 C 0.58159 0.55377 0.92544 0.0
C498 C 0.56557 0.58611 0.84537 0.0
C499 C 0.61421 0.62341 0.8015 0.0
C500 C 0.60188 0.60997 0.82721 0.0
C501 C 0.5665 0.57041 0.90178 0.0
C502 C 0.57859 0.58419 0.8761 0.0
H503 H 0.64889 0.67733 0.78412 0.0
H504 H 0.62846 0.65548 0.82585 0.0
H505 H 0.56648 0.59995 0.79788 0.0
H506 H 0.50796 0.56404 0.92739 0.0
H507 H 0.52762 0.58648 0.88513 0.0
C508 C 0.88543 0.13986 0.22373 0.0
C509 C 0.86882 0.12536 0.20418 0.0
C510 C 0.89841 0.12842 0.25236 0.0
C511 C 0.91908 0.06532 0.29763 0.0
H512 H 0.92424 0.10445 0.36714 0.0
C513 C 0.95844 0.02143 0.42368 0.0
C514 C 0.97588 0.03668 0.44125 0.0
C515 C 0.94499 0.03167 0.39469 0.0
C516 C 0.92316 0.09336 0.34791 0.0
H517 H 0.85301 0.08735 0.19933 0.0
H518 H 0.87557 0.06735 0.24948 0.0
H519 H 0.90173 0.1232 0.31659 0.0
H520 H 0.99316 0.07447 0.44217 0.0
H521 H 0.96941 0.09249 0.3919 0.0
H522 H 0.94046 0.03543 0.32917 0.0
C523 C 0.87881 0.08754 0.24247 0.0
C524 C 0.9103 0.10412 0.31889 0.0
C525 C 0.86587 0.09899 0.21373 0.0
C526 C 0.97958 0.06236 0.42932 0.0
C527 C 0.96597 0.07267 0.40053 0.0
C528 C 0.93188 0.05452 0.32673 0.0
C529 C 0.89506 0.10218 0.26228 0.0
C530 C 0.90826 0.09034 0.29331 0.0
C531 C 0.94854 0.05745 0.38285 0.0
C532 C 0.93423 0.0685 0.35213 0.0
H533 H 0.8885 0.16011 0.21683 0.0
H534 H 0.91121 0.14016 0.26667 0.0
H535 H 0.91815 0.05427 0.2784 0.0
H536 H 0.955 1.00165 0.43246 0.0
H537 H 0.9315 0.01954 0.38177 0.0
C538 C 0.39899 0.40561 0.60639 0.0
C539 C 0.39693 0.37956 0.60158 0.0
C540 C 0.40523 0.41249 0.63625 0.0
C541 C 0.43476 0.38669 0.7163 0.0
H542 H 0.39773 0.44368 0.73856 0.0
C543 C 0.43642 0.40414 0.84278 0.0
C544 C 0.43659 0.42963 0.84974 0.0
C545 C 0.43389 0.39901 0.81221 0.0
C546 C 0.40856 0.42797 0.73263 0.0
H547 H 0.40014 0.34033 0.62458 0.0
H548 H 0.41053 0.35231 0.67663 0.0
H549 H 0.3884 0.43275 0.68596 0.0
H550 H 0.4349 0.46974 0.82997 0.0
H551 H 0.4308 0.4608 0.77647 0.0
H552 H 0.45471 0.38173 0.76306 0.0
C553 C 0.40759 0.36745 0.65727 0.0
C554 C 0.40318 0.42167 0.70244 0.0
C555 C 0.4013 0.36057 0.62742 0.0
C556 C 0.43497 0.4499 0.8254 0.0
C557 C 0.43233 0.44476 0.79473 0.0
C558 C 0.44014 0.39299 0.74648 0.0
C559 C 0.40962 0.3935 0.66209 0.0
C560 C 0.41603 0.4008 0.69395 0.0
C561 C 0.43143 0.41923 0.78774 0.0
C562 C 0.42694 0.41356 0.75512 0.0
H563 H 0.3955 0.42076 0.58707 0.0
H564 H 0.40685 0.43273 0.63906 0.0
H565 H 0.44539 0.3708 0.71045 0.0
H566 H 0.43796 0.38807 0.86101 0.0
H567 H 0.43306 0.37913 0.80774 0.0
C568 C 0.62411 0.64897 0.42077 0.0
C569 C 0.63331 0.6317 0.44732 0.0
C570 C 0.61672 0.64004 0.39206 0.0
C571 C 0.5951 0.58058 0.35865 0.0
H572 H 0.60937 0.61795 0.28192 0.0
C573 C 0.55054 0.54854 0.24217 0.0
C574 C 0.5671 0.54798 0.22012 0.0
C575 C 0.55808 0.56099 0.26829 0.0
C576 C 0.60534 0.60723 0.30317 0.0
H577 H 0.64323 0.59169 0.46409 0.0
H578 H 0.63051 0.5762 0.41426 0.0
H579 H 0.62483 0.63477 0.33076 0.0
H580 H 0.60417 0.56093 0.20768 0.0
H581 H 0.6175 0.58255 0.25354 0.0
H582 H 0.57617 0.55277 0.33144 0.0
C583 C 0.62836 0.59656 0.41566 0.0
C584 C 0.61398 0.617 0.33113 0.0
C585 C 0.63568 0.60545 0.44427 0.0
C586 C 0.59092 0.56114 0.22416 0.0
C587 C 0.59854 0.57354 0.25046 0.0
C588 C 0.58646 0.57087 0.3308 0.0
C589 C 0.6184 0.61365 0.38925 0.0
C590 C 0.60907 0.6037 0.35926 0.0
C591 C 0.58245 0.57312 0.2732 0.0
C592 C 0.59144 0.58403 0.30266 0.0
H593 H 0.62185 0.66928 0.42233 0.0
H594 H 0.60895 0.65372 0.37226 0.0
H595 H 0.59062 0.56999 0.37976 0.0
H596 H 0.53183 0.53902 0.23942 0.0
H597 H 0.54488 0.56082 0.28489 0.0
C598 C 0.88575 0.09395 0.90045 0.0
C599 C 0.86958 0.11591 0.897 0.0
C600 C 0.89638 0.08712 0.87554 0.0
C601 C 0.88989 0.09732 0.79011 0.0
H602 H 0.96212 0.07389 0.80704 0.0
C603 C 0.95103 0.08314 0.69407 0.0
C604 C 0.96889 0.06234 0.69999 0.0
C605 C 0.93718 0.08909 0.71698 0.0
C606 C 0.94182 0.08005 0.80192 0.0
H607 H 0.85147 0.14755 0.86417 0.0
H608 H 0.8705 0.13588 0.82077 0.0
H609 H 0.94145 0.08554 0.84886 0.0
H610 H 0.98496 0.03056 0.73392 0.0
H611 H 0.96076 0.04074 0.77362 0.0
H612 H 0.89046 0.09192 0.74298 0.0
C613 C 0.87473 0.12381 0.84278 0.0
C614 C 0.92995 0.08676 0.82596 0.0
C615 C 0.86405 0.13067 0.86777 0.0
C616 C 0.97177 0.04703 0.72883 0.0
C617 C 0.95792 0.05291 0.75163 0.0
C618 C 0.90182 0.09059 0.76597 0.0
C619 C 0.89127 0.10209 0.84646 0.0
C620 C 0.90379 0.09533 0.82046 0.0
C621 C 0.94086 0.07433 0.74627 0.0
C622 C 0.92791 0.08171 0.77163 0.0
H623 H 0.89074 0.08228 0.92264 0.0
H624 H 0.90871 0.07006 0.87914 0.0
H625 H 0.86964 0.10363 0.78509 0.0
H626 H 0.94851 0.09542 0.67216 0.0
H627 H 0.92434 0.10582 0.71211 0.0
C628 C 0.3738 0.38487 0.2681 0.0
C629 C 0.38863 0.36944 0.29316 0.0
C630 C 0.38563 0.39724 0.24408 0.0
C631 C 0.45033 0.41788 0.22412 0.0
H632 H 0.41277 0.42326 0.14018 0.0
C633 C 0.49811 0.45575 0.11748 0.0
C634 C 0.48307 0.47306 0.09461 0.0
C635 C 0.48699 0.44275 0.14177 0.0
C636 C 0.42344 0.42212 0.16352 0.0
H637 H 0.42763 0.35478 0.31235 0.0
H638 H 0.44823 0.37606 0.27035 0.0
H639 H 0.39279 0.40134 0.18229 0.0
H640 H 0.44449 0.49021 0.07928 0.0
H641 H 0.42501 0.46725 0.12119 0.0
H642 H 0.48108 0.43852 0.20514 0.0
C643 C 0.42749 0.37905 0.2695 0.0
C644 C 0.41195 0.40959 0.18774 0.0
C645 C 0.41566 0.36678 0.29362 0.0
C646 C 0.4566 0.47687 0.09639 0.0
C647 C 0.44541 0.46368 0.12042 0.0
C648 C 0.46188 0.4303 0.19985 0.0
C649 C 0.41263 0.39442 0.24433 0.0
C650 C 0.42515 0.40741 0.21843 0.0
C651 C 0.46047 0.44651 0.1435 0.0
C652 C 0.44851 0.4327 0.16927 0.0
H653 H 0.35302 0.38769 0.26723 0.0
H654 H 0.37359 0.4093 0.22549 0.0
H655 H 0.46098 0.41696 0.24743 0.0
H656 H 0.51837 0.45189 0.11637 0.0
H657 H 0.49905 0.4294 0.15891 0.0
C658 C 0.14688 0.93906 0.84645 0.0
C659 C 0.14574 0.91308 0.85892 0.0
C660 C 0.13688 0.94703 0.81539 0.0
C661 C 0.08941 0.92841 0.75068 0.0
H662 H 0.12562 0.97813 0.70065 0.0
C663 C 0.05116 0.95729 0.62103 0.0
C664 C 0.05209 0.98353 0.60965 0.0
C665 C 0.06406 0.94801 0.6506 0.0
C666 C 0.11512 0.96443 0.71438 0.0
H667 H 0.13325 0.87509 0.84842 0.0
H668 H 0.11602 0.88895 0.79418 0.0
H669 H 0.14536 0.96332 0.75389 0.0
H670 H 0.06844 0.02033 0.61974 0.0
H671 H 0.08997 0.00446 0.67184 0.0
H672 H 0.05898 0.92977 0.71149 0.0
C673 C 0.12451 0.90319 0.80849 0.0
C674 C 0.12646 0.95592 0.74489 0.0
C675 C 0.13464 0.8952 0.8395 0.0
C676 C 0.06673 1.00016 0.62818 0.0
C677 C 0.07948 0.99094 0.65786 0.0
C678 C 0.07803 0.93698 0.72025 0.0
C679 C 0.12537 0.92922 0.7961 0.0
C680 C 0.1137 0.93786 0.76342 0.0
C681 C 0.07811 0.96478 0.66958 0.0
C682 C 0.09068 0.95516 0.70171 0.0
H683 H 0.15554 0.95327 0.86072 0.0
H684 H 0.13766 0.96725 0.80664 0.0
H685 H 0.07886 0.9148 0.76447 0.0
H686 H 0.04013 0.94394 0.60726 0.0
H687 H 0.06299 0.92767 0.6586 0.0
loop_
_geom_bond_atom_site_label_1
_geom_bond_atom_site_label_2
_geom_bond_distance
_geom_bond_site_symmetry_2
_ccdc_geom_bond_type
C0 C1 1.264 . S
C0 C5 1.479 . S
C0 C10 1.465 . S
C1 C0 1.264 . S
C1 C3 1.339 . S
C1 H28 0.931 . S
C2 C3 1.395 . S
C2 C4 1.320 . S
C3 C1 1.339 . S
C3 C2 1.395 . S
C3 H29 0.929 . S
C4 C2 1.320 . S
C4 C5 1.405 . S
C4 H30 0.930 . S
C5 C0 1.479 . S
C5 C4 1.405 . S
C5 H31 0.931 . S
U6 O7 2.454 . S
U6 O8 2.458 . S
U6 C9 2.984 . S
U6 C10 2.847 . S
U6 C23 2.882 1_554 S
U6 O24 2.441 . S
U6 O25 2.420 . S
U6 O26 2.455 1_554 S
U6 O27 2.449 1_554 S
O7 U6 2.454 . S
O7 C9 1.353 . S
O8 U6 2.458 . S
O8 C9 1.286 . S
C9 U6 2.984 . S
C9 O7 1.353 . S
C9 O8 1.286 . S
C9 C11 1.363 . S
C10 C0 1.465 . S
C10 U6 2.847 . S
C10 O24 1.249 . S
C10 O25 1.202 . S
C11 C9 1.363 . S
C11 C13 1.408 . S
C11 C16 1.342 . S
C12 C13 1.310 . S
C12 C15 1.461 . S
C12 H32 0.932 . S
C13 C11 1.408 . S
C13 C12 1.310 . S
C13 H33 0.930 . S
C14 C15 1.474 . S
C14 C16 1.285 . S
C14 H34 0.929 1_554 S
C15 C12 1.461 . S
C15 C14 1.474 . S
C16 C11 1.342 . S
C16 C14 1.285 . S
C16 H35 0.930 1_554 S
C17 C20 1.424 . S
C17 C22 1.245 . S
C17 C23 1.428 . S
C18 C21 1.260 . S
C18 C22 1.477 . S
C18 H36 0.932 . S
C19 C20 1.384 . S
C19 C21 1.479 . S
C19 H37 0.929 . S
C20 C17 1.424 . S
C20 C19 1.384 . S
C20 H38 0.928 . S
C21 C18 1.260 . S
C21 C19 1.479 . S
C22 C17 1.245 . S
C22 C18 1.477 . S
C22 H39 0.932 . S
C23 U6 2.882 1_556 S
C23 C17 1.428 . S
C23 O26 1.301 . S
C23 O27 1.282 . S
O24 U6 2.441 . S
O24 C10 1.249 . S
O25 U6 2.420 . S
O25 C10 1.202 . S
O26 U6 2.455 1_556 S
O26 C23 1.301 . S
O27 U6 2.449 1_556 S
O27 C23 1.282 . S
H28 C1 0.931 . S
H29 C3 0.929 . S
H30 C4 0.930 . S
H31 C5 0.931 . S
H32 C12 0.932 . S
H33 C13 0.930 . S
H34 C14 0.929 1_556 S
H35 C16 0.930 1_556 S
H36 C18 0.932 . S
H37 C19 0.929 . S
H38 C20 0.928 . S
H39 C22 0.932 . S
C40 C41 1.264 . S
C40 C45 1.479 . S
C40 C50 1.465 . S
C41 C40 1.264 . S
C41 C43 1.339 . S
C41 H68 0.931 . S
C42 C43 1.395 . S
C42 C44 1.320 . S
C43 C41 1.339 . S
C43 C42 1.395 . S
C43 H69 0.929 . S
C44 C42 1.320 . S
C44 C45 1.405 . S
C44 H70 0.930 . S
C45 C40 1.479 . S
C45 C44 1.405 . S
C45 H71 0.931 . S
U46 O47 2.454 . S
U46 O48 2.458 . S
U46 C49 2.984 . S
U46 C50 2.847 . S
U46 C63 2.882 . S
U46 O64 2.441 . S
U46 O65 2.420 . S
U46 O66 2.455 . S
U46 O67 2.449 . S
O47 U46 2.454 . S
O47 C49 1.353 . S
O48 U46 2.458 . S
O48 C49 1.286 . S
C49 U46 2.984 . S
C49 O47 1.353 . S
C49 O48 1.286 . S
C49 C51 1.363 . S
C50 C40 1.465 . S
C50 U46 2.847 . S
C50 O64 1.249 . S
C50 O65 1.202 . S
C51 C49 1.363 . S
C51 C53 1.408 . S
C51 C56 1.342 . S
C52 C53 1.310 . S
C52 C55 1.461 . S
C52 H72 0.932 . S
C53 C51 1.408 . S
C53 C52 1.310 . S
C53 H73 0.930 . S
C54 C55 1.474 . S
C54 C56 1.285 . S
C54 H74 0.929 . S
C55 C52 1.461 . S
C55 C54 1.474 . S
C56 C51 1.342 . S
C56 C54 1.285 . S
C56 H75 0.930 . S
C57 C60 1.424 . S
C57 C62 1.245 . S
C57 C63 1.428 . S
C58 C61 1.260 . S
C58 C62 1.477 . S
C58 H76 0.932 . S
C59 C60 1.384 . S
C59 C61 1.479 . S
C59 H77 0.929 . S
C60 C57 1.424 . S
C60 C59 1.384 . S
C60 H78 0.928 . S
C61 C58 1.260 . S
C61 C59 1.479 . S
C62 C57 1.245 . S
C62 C58 1.477 . S
C62 H79 0.932 . S
C63 U46 2.882 . S
C63 C57 1.428 . S
C63 O66 1.301 . S
C63 O67 1.282 . S
O64 U46 2.441 . S
O64 C50 1.249 . S
O65 U46 2.420 . S
O65 C50 1.202 . S
O66 U46 2.455 . S
O66 C63 1.301 . S
O67 U46 2.449 . S
O67 C63 1.282 . S
H68 C41 0.931 . S
H69 C43 0.929 . S
H70 C44 0.930 . S
H71 C45 0.931 . S
H72 C52 0.932 . S
H73 C53 0.930 . S
H74 C54 0.929 . S
H75 C56 0.930 . S
H76 C58 0.932 . S
H77 C59 0.929 . S
H78 C60 0.928 . S
H79 C62 0.932 . S
C80 C81 1.264 . S
C80 C85 1.479 . S
C80 C90 1.465 . S
C81 C80 1.264 . S
C81 C83 1.339 . S
C81 H108 0.931 . S
C82 C83 1.395 . S
C82 C84 1.320 . S
C83 C81 1.339 . S
C83 C82 1.395 . S
C83 H109 0.929 . S
C84 C82 1.320 . S
C84 C85 1.405 . S
C84 H110 0.930 . S
C85 C80 1.479 . S
C85 C84 1.405 . S
C85 H111 0.931 . S
U86 O87 2.454 . S
U86 O88 2.458 1_554 S
U86 C89 2.984 . S
U86 C90 2.847 . S
U86 C103 2.882 1_554 S
U86 O104 2.441 . S
U86 O105 2.420 . S
U86 O106 2.455 1_554 S
U86 O107 2.449 1_554 S
O87 U86 2.454 . S
O87 C89 1.353 . S
O88 U86 2.458 1_556 S
O88 C89 1.286 1_556 S
C89 U86 2.984 . S
C89 O87 1.353 . S
C89 O88 1.286 1_554 S
C89 C91 1.363 . S
C90 C80 1.465 . S
C90 U86 2.847 . S
C90 O104 1.249 . S
C90 O105 1.202 . S
C91 C89 1.363 . S
C91 C93 1.408 . S
C91 C96 1.342 1_554 S
C92 C93 1.310 . S
C92 C95 1.461 1_554 S
C92 H112 0.932 . S
C93 C91 1.408 . S
C93 C92 1.310 . S
C93 H113 0.930 . S
C94 C95 1.474 . S
C94 C96 1.285 . S
C94 H114 0.929 . S
C95 C92 1.461 1_556 S
C95 C94 1.474 . S
C96 C91 1.342 1_556 S
C96 C94 1.285 . S
C96 H115 0.930 . S
C97 C100 1.424 . S
C97 C102 1.245 . S
C97 C103 1.428 . S
C98 C101 1.260 . S
C98 C102 1.477 . S
C98 H116 0.932 . S
C99 C100 1.384 . S
C99 C101 1.479 . S
C99 H117 0.929 . S
C100 C97 1.424 . S
C100 C99 1.384 . S
C100 H118 0.928 . S
C101 C98 1.260 . S
C101 C99 1.479 . S
C102 C97 1.245 . S
C102 C98 1.477 . S
C102 H119 0.932 . S
C103 U86 2.882 1_556 S
C103 C97 1.428 . S
C103 O106 1.301 . S
C103 O107 1.282 . S
O104 U86 2.441 . S
O104 C90 1.249 . S
O105 U86 2.420 . S
O105 C90 1.202 . S
O106 U86 2.455 1_556 S
O106 C103 1.301 . S
O107 U86 2.449 1_556 S
O107 C103 1.282 . S
H108 C81 0.931 . S
H109 C83 0.929 . S
H110 C84 0.930 . S
H111 C85 0.931 . S
H112 C92 0.932 . S
H113 C93 0.930 . S
H114 C94 0.929 . S
H115 C96 0.930 . S
H116 C98 0.932 . S
H117 C99 0.929 . S
H118 C100 0.928 . S
H119 C102 0.932 . S
C120 C121 1.264 . S
C120 C125 1.479 . S
C120 C130 1.465 . S
C121 C120 1.264 . S
C121 C123 1.339 . S
C121 H148 0.931 . S
C122 C123 1.395 . S
C122 C124 1.320 . S
C123 C121 1.339 . S
C123 C122 1.395 . S
C123 H149 0.929 . S
C124 C122 1.320 . S
C124 C125 1.405 . S
C124 H150 0.930 . S
C125 C120 1.479 . S
C125 C124 1.405 . S
C125 H151 0.931 . S
U126 O127 2.454 . S
U126 O128 2.458 . S
U126 C129 2.984 . S
U126 C130 2.847 . S
U126 C143 2.882 . S
U126 O144 2.441 . S
U126 O145 2.420 . S
U126 O146 2.455 . S
U126 O147 2.449 . S
O127 U126 2.454 . S
O127 C129 1.353 . S
O128 U126 2.458 . S
O128 C129 1.286 . S
C129 U126 2.984 . S
C129 O127 1.353 . S
C129 O128 1.286 . S
C129 C131 1.363 . S
C130 C120 1.465 . S
C130 U126 2.847 . S
C130 O144 1.249 . S
C130 O145 1.202 . S
C131 C129 1.363 . S
C131 C133 1.408 . S
C131 C136 1.342 . S
C132 C133 1.310 . S
C132 C135 1.461 . S
C132 H152 0.932 . S
C133 C131 1.408 . S
C133 C132 1.310 . S
C133 H153 0.930 . S
C134 C135 1.474 . S
C134 C136 1.285 . S
C134 H154 0.929 . S
C135 C132 1.461 . S
C135 C134 1.474 . S
C136 C131 1.342 . S
C136 C134 1.285 . S
C136 H155 0.930 . S
C137 C140 1.424 . S
C137 C142 1.245 . S
C137 C143 1.428 . S
C138 C141 1.260 . S
C138 C142 1.477 . S
C138 H156 0.932 . S
C139 C140 1.384 . S
C139 C141 1.479 . S
C139 H157 0.929 . S
C140 C137 1.424 . S
C140 C139 1.384 . S
C140 H158 0.928 . S
C141 C138 1.260 . S
C141 C139 1.479 . S
C142 C137 1.245 . S
C142 C138 1.477 . S
C142 H159 0.932 . S
C143 U126 2.882 . S
C143 C137 1.428 . S
C143 O146 1.301 . S
C143 O147 1.282 . S
O144 U126 2.441 . S
O144 C130 1.249 . S
O145 U126 2.420 . S
O145 C130 1.202 . S
O146 U126 2.455 . S
O146 C143 1.301 . S
O147 U126 2.449 . S
O147 C143 1.282 . S
H148 C121 0.931 . S
H149 C123 0.929 . S
H150 C124 0.930 . S
H151 C125 0.931 . S
H152 C132 0.932 . S
H153 C133 0.930 . S
H154 C134 0.929 . S
H155 C136 0.930 . S
H156 C138 0.932 . S
H157 C139 0.929 . S
H158 C140 0.928 . S
H159 C142 0.932 . S
Eu160 N189 2.600 . S
Eu160 N195 2.562 . S
Eu160 O204 2.462 . S
Eu160 O205 2.373 . S
Eu160 O207 2.432 . S
Eu160 O208 2.291 1_565 S
Eu160 O212 2.337 1_455 S
Eu160 O215 2.372 1_455 S
Eu160 C224 2.787 . S
C161 N162 1.365 . S
C161 C164 1.405 . S
C161 C168 1.448 . S
N162 C161 1.365 . S
N162 C165 1.319 1_655 S
N162 Eu171 2.600 . S
C163 C165 1.397 . S
C163 C166 1.367 1_455 S
C163 H183 0.931 . S
C164 C161 1.405 . S
C164 C166 1.403 . S
C164 C170 1.439 . S
C165 N162 1.319 1_455 S
C165 C163 1.397 . S
C165 H176 0.930 . S
C166 C163 1.367 1_655 S
C166 C164 1.403 . S
C166 H187 0.929 . S
C167 C168 1.430 . S
C167 C169 1.387 . S
C167 C173 1.404 . S
C168 C161 1.448 . S
C168 C167 1.430 . S
C168 N172 1.351 . S
C169 C167 1.387 . S
C169 C170 1.374 . S
C169 H184 0.931 . S
C170 C164 1.439 . S
C170 C169 1.374 . S
C170 H185 0.931 . S
Eu171 N162 2.600 . S
Eu171 N172 2.562 . S
Eu171 O206 2.335 1_655 S
Eu171 O209 2.372 1_655 S
Eu171 O210 2.462 . S
Eu171 O211 2.373 . S
Eu171 O213 2.432 . S
Eu171 O214 2.291 1_545 S
Eu171 C235 2.787 . S
N172 C168 1.351 . S
N172 Eu171 2.562 . S
N172 C174 1.325 . S
C173 C167 1.404 . S
C173 C175 1.366 . S
C173 H181 0.930 . S
C174 N172 1.325 . S
C174 C175 1.416 . S
C174 H180 0.929 . S
C175 C173 1.366 . S
C175 C174 1.416 . S
C175 H177 0.930 . S
H176 C165 0.930 . S
H177 C175 0.930 . S
H178 C193 0.930 1_655 S
H179 C200 0.930 . S
H180 C174 0.929 . S
H181 C173 0.930 . S
H182 C196 0.929 . S
H183 C163 0.931 . S
H184 C169 0.931 . S
H185 C170 0.931 . S
H186 C191 0.931 1_655 S
H187 C166 0.929 . S
H188 C199 0.930 . S
N189 Eu160 2.600 . S
N189 C190 1.365 . S
N189 C193 1.319 . S
C190 N189 1.365 . S
C190 C192 1.405 . S
C190 C198 1.448 . S
C191 H186 0.931 1_455 S
C191 C193 1.397 . S
C191 C194 1.367 . S
C192 C190 1.405 . S
C192 C194 1.403 . S
C192 C225 1.439 . S
C193 H178 0.930 1_455 S
C193 N189 1.319 . S
C193 C191 1.397 . S
C194 C191 1.367 . S
C194 C192 1.403 . S
C194 H201 0.929 . S
N195 Eu160 2.562 . S
N195 C196 1.325 . S
N195 C198 1.351 . S
C196 H182 0.929 . S
C196 N195 1.325 . S
C196 C200 1.416 . S
C197 C198 1.430 . S
C197 C199 1.404 . S
C197 C226 1.387 . S
C198 C190 1.448 . S
C198 N195 1.351 . S
C198 C197 1.430 . S
C199 H188 0.930 . S
C199 C197 1.404 . S
C199 C200 1.366 . S
C200 H179 0.930 . S
C200 C196 1.416 . S
C200 C199 1.366 . S
H201 C194 0.929 . S
H202 C225 0.931 . S
H203 C226 0.931 . S
O204 Eu160 2.462 . S
O204 C224 1.252 . S
O205 Eu160 2.373 . S
O205 C216 1.249 . S
O206 Eu171 2.335 1_455 S
O206 C216 1.264 1_545 S
O207 Eu160 2.432 . S
O207 C224 1.268 . S
O208 Eu160 2.291 1_545 S
O208 C223 1.255 . S
O209 Eu171 2.372 1_455 S
O209 C223 1.257 . S
O210 Eu171 2.462 . S
O210 C235 1.252 . S
O211 Eu171 2.373 . S
O211 C227 1.249 . S
O212 Eu160 2.337 1_655 S
O212 C227 1.261 1_565 S
O213 Eu171 2.432 . S
O213 C235 1.268 . S
O214 Eu171 2.291 1_565 S
O214 C234 1.255 . S
O215 Eu160 2.372 1_655 S
O215 C234 1.257 . S
C216 O205 1.249 . S
C216 O206 1.264 1_565 S
C217 C220 1.382 . S
C217 C222 1.390 . S
C217 C224 1.506 . S
C218 C219 1.398 . S
C218 C222 1.392 . S
C219 C218 1.398 . S
C219 C221 1.372 . S
C219 H236 0.931 . S
C220 C217 1.382 . S
C220 C221 1.390 . S
C220 H237 0.931 . S
C221 C219 1.372 . S
C221 C220 1.390 . S
C221 H238 0.929 . S
C222 C217 1.390 . S
C222 C218 1.392 . S
C222 H239 0.930 . S
C223 O208 1.255 . S
C223 O209 1.257 . S
C224 Eu160 2.787 . S
C224 O204 1.252 . S
C224 O207 1.268 . S
C224 C217 1.506 . S
C225 C192 1.439 . S
C225 H202 0.931 . S
C225 C226 1.374 . S
C226 C197 1.387 . S
C226 H203 0.931 . S
C226 C225 1.374 . S
C227 O211 1.249 . S
C227 O212 1.261 1_545 S
C228 C231 1.382 . S
C228 C232 1.390 . S
C228 C235 1.506 . S
C229 C230 1.398 . S
C229 C232 1.392 . S
C230 C229 1.398 . S
C230 C233 1.372 . S
C230 H240 0.931 . S
C231 C228 1.382 . S
C231 C233 1.390 . S
C231 H241 0.931 . S
C232 C228 1.390 . S
C232 C229 1.392 . S
C232 H242 0.930 . S
C233 C230 1.372 . S
C233 C231 1.390 . S
C233 H243 0.929 . S
C234 O214 1.255 . S
C234 O215 1.257 . S
C235 Eu171 2.787 . S
C235 O210 1.252 . S
C235 O213 1.268 . S
C235 C228 1.506 . S
H236 C219 0.931 . S
H237 C220 0.931 . S
H238 C221 0.929 . S
H239 C222 0.930 . S
H240 C230 0.931 . S
H241 C231 0.931 . S
H242 C232 0.930 . S
H243 C233 0.929 . S
Eu244 N273 2.600 . S
Eu244 N279 2.558 1_556 S
Eu244 O288 2.462 . S
Eu244 O289 2.373 1_556 S
Eu244 O291 2.432 . S
Eu244 O292 2.291 1_556 S
Eu244 O296 2.335 . S
Eu244 O299 2.372 . S
Eu244 C308 2.787 . S
C245 N246 1.365 . S
C245 C248 1.405 . S
C245 C252 1.448 . S
N246 C245 1.365 . S
N246 C249 1.319 . S
N246 Eu255 2.600 . S
C247 C249 1.397 . S
C247 C250 1.367 . S
C247 H267 0.931 . S
C248 C245 1.405 . S
C248 C250 1.403 . S
C248 C254 1.439 . S
C249 N246 1.319 . S
C249 C247 1.397 . S
C249 H260 0.930 . S
C250 C247 1.367 . S
C250 C248 1.403 . S
C250 H271 0.929 . S
C251 C252 1.430 . S
C251 C253 1.387 . S
C251 C257 1.404 . S
C252 C245 1.448 . S
C252 C251 1.430 . S
C252 N256 1.351 . S
C253 C251 1.387 . S
C253 C254 1.374 . S
C253 H268 0.931 . S
C254 C248 1.439 . S
C254 C253 1.374 . S
C254 H269 0.931 . S
Eu255 N246 2.600 . S
Eu255 N256 2.562 . S
Eu255 O290 2.335 . S
Eu255 O293 2.372 . S
Eu255 O294 2.462 . S
Eu255 O295 2.373 1_554 S
Eu255 O297 2.432 . S
Eu255 O298 2.291 . S
Eu255 C319 2.787 . S
N256 C252 1.351 . S
N256 Eu255 2.562 . S
N256 C258 1.325 . S
C257 C251 1.404 . S
C257 C259 1.366 . S
C257 H265 0.941 . S
C258 N256 1.325 . S
C258 C259 1.416 . S
C258 H264 0.929 . S
C259 C257 1.366 . S
C259 C258 1.416 . S
C259 H261 0.930 . S
H260 C249 0.930 . S
H261 C259 0.930 . S
H262 C277 0.930 . S
H263 C284 0.930 . S
H264 C258 0.929 . S
H265 C257 0.941 . S
H266 C280 0.929 . S
H267 C247 0.931 . S
H268 C253 0.931 . S
H269 C254 0.931 . S
H270 C275 0.931 . S
H271 C250 0.929 . S
H272 C283 0.930 . S
N273 Eu244 2.600 . S
N273 C274 1.365 1_556 S
N273 C277 1.319 . S
C274 N273 1.365 1_554 S
C274 C276 1.405 . S
C274 C282 1.448 . S
C275 H270 0.931 . S
C275 C277 1.397 . S
C275 C278 1.367 1_556 S
C276 C274 1.405 . S
C276 C278 1.403 . S
C276 C309 1.439 . S
C277 H262 0.930 . S
C277 N273 1.319 . S
C277 C275 1.397 . S
C278 C275 1.367 1_554 S
C278 C276 1.403 . S
C278 H285 0.929 . S
N279 Eu244 2.558 1_554 S
N279 C280 1.324 . S
N279 C282 1.360 . S
C280 H266 0.929 . S
C280 N279 1.324 . S
C280 C284 1.416 . S
C281 C282 1.430 . S
C281 C283 1.404 . S
C281 C310 1.387 . S
C282 C274 1.448 . S
C282 N279 1.360 . S
C282 C281 1.430 . S
C283 H272 0.930 . S
C283 C281 1.404 . S
C283 C284 1.366 . S
C284 H263 0.930 . S
C284 C280 1.416 . S
C284 C283 1.366 . S
H285 C278 0.929 . S
H286 C309 0.931 . S
H287 C310 0.931 . S
O288 Eu244 2.462 . S
O288 C308 1.252 . S
O289 Eu244 2.373 1_554 S
O289 C300 1.249 . S
O290 Eu255 2.335 . S
O290 C300 1.264 . S
O291 Eu244 2.432 . S
O291 C308 1.268 . S
O292 Eu244 2.291 1_554 S
O292 C307 1.255 . S
O293 Eu255 2.372 . S
O293 C307 1.257 . S
O294 Eu255 2.462 . S
O294 C319 1.252 . S
O295 Eu255 2.373 1_556 S
O295 C311 1.249 . S
O296 Eu244 2.335 . S
O296 C311 1.264 . S
O297 Eu255 2.432 . S
O297 C319 1.268 . S
O298 Eu255 2.291 . S
O298 C318 1.255 . S
O299 Eu244 2.372 . S
O299 C318 1.257 1_556 S
C300 O289 1.249 . S
C300 O290 1.264 . S
C301 C304 1.382 . S
C301 C306 1.390 . S
C301 C308 1.506 . S
C302 C303 1.398 . S
C302 C306 1.392 . S
C303 C302 1.398 . S
C303 C305 1.372 . S
C303 H320 0.931 . S
C304 C301 1.382 . S
C304 C305 1.390 . S
C304 H321 0.931 . S
C305 C303 1.372 . S
C305 C304 1.390 . S
C305 H322 0.929 . S
C306 C301 1.390 . S
C306 C302 1.392 . S
C306 H323 0.930 . S
C307 O292 1.255 . S
C307 O293 1.257 . S
C308 Eu244 2.787 . S
C308 O288 1.252 . S
C308 O291 1.268 . S
C308 C301 1.506 . S
C309 C276 1.439 . S
C309 H286 0.931 . S
C309 C310 1.374 . S
C310 C281 1.387 . S
C310 H287 0.931 . S
C310 C309 1.374 . S
C311 O295 1.249 . S
C311 O296 1.264 . S
C312 C315 1.382 . S
C312 C316 1.390 . S
C312 C319 1.506 . S
C313 C314 1.398 . S
C313 C316 1.392 . S
C314 C313 1.398 . S
C314 C317 1.372 . S
C314 H324 0.931 . S
C315 C312 1.382 . S
C315 C317 1.390 . S
C315 H325 0.931 . S
C316 C312 1.390 . S
C316 C313 1.392 . S
C316 H326 0.930 . S
C317 C314 1.372 . S
C317 C315 1.390 . S
C317 H327 0.929 . S
C318 O298 1.255 . S
C318 O299 1.257 1_554 S
C319 Eu255 2.787 . S
C319 O294 1.252 . S
C319 O297 1.268 . S
C319 C312 1.506 . S
H320 C303 0.931 . S
H321 C304 0.931 . S
H322 C305 0.929 . S
H323 C306 0.930 . S
H324 C314 0.931 . S
H325 C315 0.931 . S
H326 C316 0.930 . S
H327 C317 0.929 . S
C328 C329 1.349 . S
C328 C330 1.327 . S
C328 H353 0.950 . S
C329 C328 1.349 . S
C329 C345 1.349 . S
C330 C328 1.327 . S
C330 C349 1.429 . S
C330 H354 0.950 . S
C331 C348 1.574 . S
C331 C350 1.368 . S
C331 H355 0.949 . S
H332 C336 0.949 . S
C333 C334 1.349 . S
C333 C335 1.327 . S
C333 H356 0.950 . S
C334 C333 1.349 . S
C334 C346 1.349 . S
C335 C333 1.327 . S
C335 C351 1.429 . S
C335 H357 0.950 . S
C336 H332 0.949 . S
C336 C344 1.574 . S
C336 C352 1.368 . S
H337 C345 0.950 . S
H338 C343 0.950 . S
H339 C344 0.949 . S
H340 C346 0.950 . S
H341 C347 0.950 . S
H342 C348 0.949 . S
C343 H338 0.950 . S
C343 C345 1.327 . S
C343 C349 1.429 . S
C344 C336 1.574 . S
C344 H339 0.949 . S
C344 C350 1.368 . S
C345 C329 1.349 . S
C345 H337 0.950 . S
C345 C343 1.327 . S
C346 C334 1.349 . S
C346 H340 0.950 . S
C346 C347 1.327 . S
C347 H341 0.950 . S
C347 C346 1.327 . S
C347 C351 1.429 . S
C348 C331 1.574 . S
C348 H342 0.949 . S
C348 C352 1.368 . S
C349 C330 1.429 . S
C349 C343 1.429 . S
C349 C350 1.523 . S
C350 C331 1.368 . S
C350 C344 1.368 . S
C350 C349 1.523 . S
C351 C335 1.429 . S
C351 C347 1.429 . S
C351 C352 1.523 . S
C352 C336 1.368 . S
C352 C348 1.368 . S
C352 C351 1.523 . S
H353 C328 0.950 . S
H354 C330 0.950 . S
H355 C331 0.949 . S
H356 C333 0.950 . S
H357 C335 0.950 . S
C358 C359 1.349 . S
C358 C360 1.327 . S
C358 H383 0.950 . S
C359 C358 1.349 . S
C359 C375 1.349 . S
C360 C358 1.327 . S
C360 C379 1.429 . S
C360 H384 0.950 1_554 S
C361 C378 1.574 . S
C361 C380 1.368 . S
C361 H385 0.949 . S
H362 C366 0.949 1_556 S
C363 C364 1.349 . S
C363 C365 1.327 . S
C363 H386 0.950 . S
C364 C363 1.349 . S
C364 C376 1.349 . S
C365 C363 1.327 . S
C365 C381 1.429 . S
C365 H387 0.950 . S
C366 H362 0.949 1_554 S
C366 C374 1.574 . S
C366 C382 1.368 . S
H367 C375 0.950 . S
H368 C373 0.950 . S
H369 C374 0.949 1_556 S
H370 C376 0.950 1_556 S
H371 C377 0.950 1_556 S
H372 C378 0.949 . S
C373 H368 0.950 . S
C373 C375 1.327 . S
C373 C379 1.429 . S
C374 C366 1.574 . S
C374 H369 0.949 1_554 S
C374 C380 1.368 . S
C375 C359 1.349 . S
C375 H367 0.950 . S
C375 C373 1.327 . S
C376 C364 1.349 . S
C376 H370 0.950 1_554 S
C376 C377 1.327 . S
C377 H371 0.950 1_554 S
C377 C376 1.327 . S
C377 C381 1.429 . S
C378 C361 1.574 . S
C378 H372 0.949 . S
C378 C382 1.368 . S
C379 C360 1.429 . S
C379 C373 1.429 . S
C379 C380 1.523 . S
C380 C361 1.368 . S
C380 C374 1.368 . S
C380 C379 1.523 . S
C381 C365 1.429 . S
C381 C377 1.429 . S
C381 C382 1.523 . S
C382 C366 1.368 . S
C382 C378 1.368 . S
C382 C381 1.523 . S
H383 C358 0.950 . S
H384 C360 0.950 1_556 S
H385 C361 0.949 . S
H386 C363 0.950 . S
H387 C365 0.950 . S
C388 C389 1.349 . S
C388 C390 1.327 . S
C388 H413 0.950 . S
C389 C388 1.349 . S
C389 C405 1.349 . S
C390 C388 1.327 . S
C390 C409 1.429 . S
C390 H414 0.950 . S
C391 C408 1.574 . S
C391 C410 1.368 . S
C391 H415 0.949 . S
H392 C396 0.949 . S
C393 C394 1.349 . S
C393 C395 1.327 . S
C393 H416 0.950 . S
C394 C393 1.349 . S
C394 C406 1.349 . S
C395 C393 1.327 . S
C395 C411 1.429 . S
C395 H417 0.950 . S
C396 H392 0.949 . S
C396 C404 1.574 . S
C396 C412 1.368 . S
H397 C405 0.950 . S
H398 C403 0.950 . S
H399 C404 0.949 . S
H400 C406 0.950 . S
H401 C407 0.950 . S
H402 C408 0.949 . S
C403 H398 0.950 . S
C403 C405 1.327 . S
C403 C409 1.429 . S
C404 C396 1.574 . S
C404 H399 0.949 . S
C404 C410 1.368 . S
C405 C389 1.349 . S
C405 H397 0.950 . S
C405 C403 1.327 . S
C406 C394 1.349 . S
C406 H400 0.950 . S
C406 C407 1.327 . S
C407 H401 0.950 . S
C407 C406 1.327 . S
C407 C411 1.429 . S
C408 C391 1.574 . S
C408 H402 0.949 . S
C408 C412 1.368 . S
C409 C390 1.429 . S
C409 C403 1.429 . S
C409 C410 1.523 . S
C410 C391 1.368 . S
C410 C404 1.368 . S
C410 C409 1.523 . S
C411 C395 1.429 . S
C411 C407 1.429 . S
C411 C412 1.523 . S
C412 C396 1.368 . S
C412 C408 1.368 . S
C412 C411 1.523 . S
H413 C388 0.950 . S
H414 C390 0.950 . S
H415 C391 0.949 . S
H416 C393 0.950 . S
H417 C395 0.950 . S
C418 C419 1.349 . S
C418 C420 1.327 . S
C418 H443 0.950 . S
C419 C418 1.349 . S
C419 C435 1.349 1_556 S
C420 C418 1.327 . S
C420 C439 1.440 . S
C420 H444 0.950 . S
C421 C438 1.574 . S
C421 C440 1.368 . S
C421 H445 0.949 . S
H422 C426 0.949 . S
C423 C424 1.349 . S
C423 C425 1.327 . S
C423 H446 0.950 . S
C424 C423 1.349 . S
C424 C436 1.349 1_554 S
C425 C423 1.327 . S
C425 C441 1.429 . S
C425 H447 0.950 . S
C426 H422 0.949 . S
C426 C434 1.574 . S
C426 C442 1.368 1_556 S
H427 C435 0.950 . S
H428 C433 0.950 . S
H429 C434 0.949 . S
H430 C436 0.950 . S
H431 C437 0.950 . S
H432 C438 0.949 . S
C433 H428 0.950 . S
C433 C435 1.327 . S
C433 C439 1.420 1_554 S
C434 C426 1.574 . S
C434 H429 0.949 . S
C434 C440 1.368 1_556 S
C435 C419 1.349 1_554 S
C435 H427 0.950 . S
C435 C433 1.327 . S
C436 C424 1.349 1_556 S
C436 H430 0.950 . S
C436 C437 1.327 . S
C437 H431 0.950 . S
C437 C436 1.327 . S
C437 C441 1.429 1_556 S
C438 C421 1.574 . S
C438 H432 0.949 . S
C438 C442 1.368 . S
C439 C420 1.440 . S
C439 C433 1.420 1_556 S
C439 C440 1.520 1_556 S
C440 C421 1.368 . S
C440 C434 1.368 1_554 S
C440 C439 1.520 1_554 S
C441 C425 1.429 . S
C441 C437 1.429 1_554 S
C441 C442 1.523 . S
C442 C426 1.368 1_554 S
C442 C438 1.368 . S
C442 C441 1.523 . S
H443 C418 0.950 . S
H444 C420 0.950 . S
H445 C421 0.949 . S
H446 C423 0.950 . S
H447 C425 0.950 . S
C448 C449 1.349 . S
C448 C450 1.327 . S
C448 H473 0.950 . S
C449 C448 1.349 . S
C449 C465 1.349 . S
C450 C448 1.327 . S
C450 C469 1.429 . S
C450 H474 0.950 . S
C451 C468 1.574 . S
C451 C470 1.368 . S
C451 H475 0.949 . S
H452 C456 0.949 . S
C453 C454 1.349 . S
C453 C455 1.327 . S
C453 H476 0.950 . S
C454 C453 1.349 . S
C454 C466 1.349 . S
C455 C453 1.327 . S
C455 C471 1.429 . S
C455 H477 0.950 . S
C456 H452 0.949 . S
C456 C464 1.574 . S
C456 C472 1.368 . S
H457 C465 0.950 . S
H458 C463 0.950 . S
H459 C464 0.949 . S
H460 C466 0.950 . S
H461 C467 0.950 . S
H462 C468 0.949 . S
C463 H458 0.950 . S
C463 C465 1.327 . S
C463 C469 1.429 . S
C464 C456 1.574 . S
C464 H459 0.949 . S
C464 C470 1.368 . S
C465 C449 1.349 . S
C465 H457 0.950 . S
C465 C463 1.327 . S
C466 C454 1.349 . S
C466 H460 0.950 . S
C466 C467 1.327 . S
C467 H461 0.950 . S
C467 C466 1.327 . S
C467 C471 1.429 . S
C468 C451 1.574 . S
C468 H462 0.949 . S
C468 C472 1.368 . S
C469 C450 1.429 . S
C469 C463 1.429 . S
C469 C470 1.523 . S
C470 C451 1.368 . S
C470 C464 1.368 . S
C470 C469 1.523 . S
C471 C455 1.429 . S
C471 C467 1.429 . S
C471 C472 1.523 . S
C472 C456 1.368 . S
C472 C468 1.368 . S
C472 C471 1.523 . S
H473 C448 0.950 . S
H474 C450 0.950 . S
H475 C451 0.949 . S
H476 C453 0.950 . S
H477 C455 0.950 . S
C478 C479 1.349 . S
C478 C480 1.327 . S
C478 H503 0.950 . S
C479 C478 1.349 . S
C479 C495 1.349 . S
C480 C478 1.327 . S
C480 C499 1.429 . S
C480 H504 0.950 . S
C481 C498 1.574 . S
C481 C500 1.368 . S
C481 H505 0.949 . S
H482 C486 0.949 . S
C483 C484 1.349 . S
C483 C485 1.327 . S
C483 H506 0.950 . S
C484 C483 1.349 . S
C484 C496 1.349 . S
C485 C483 1.327 . S
C485 C501 1.429 . S
C485 H507 0.950 . S
C486 H482 0.949 . S
C486 C494 1.574 . S
C486 C502 1.368 . S
H487 C495 0.950 . S
H488 C493 0.950 . S
H489 C494 0.949 . S
H490 C496 0.950 . S
H491 C497 0.950 . S
H492 C498 0.949 . S
C493 H488 0.950 . S
C493 C495 1.327 . S
C493 C499 1.429 . S
C494 C486 1.574 . S
C494 H489 0.949 . S
C494 C500 1.368 . S
C495 C479 1.349 . S
C495 H487 0.950 . S
C495 C493 1.327 . S
C496 C484 1.349 . S
C496 H490 0.950 . S
C496 C497 1.327 . S
C497 H491 0.950 . S
C497 C496 1.327 . S
C497 C501 1.429 . S
C498 C481 1.574 . S
C498 H492 0.949 . S
C498 C502 1.368 . S
C499 C480 1.429 . S
C499 C493 1.429 . S
C499 C500 1.523 . S
C500 C481 1.368 . S
C500 C494 1.368 . S
C500 C499 1.523 . S
C501 C485 1.429 . S
C501 C497 1.429 . S
C501 C502 1.523 . S
C502 C486 1.368 . S
C502 C498 1.368 . S
C502 C501 1.523 . S
H503 C478 0.950 . S
H504 C480 0.950 . S
H505 C481 0.949 . S
H506 C483 0.950 . S
H507 C485 0.950 . S
C508 C509 1.349 . S
C508 C510 1.327 . S
C508 H533 0.950 . S
C509 C508 1.349 . S
C509 C525 1.349 . S
C510 C508 1.327 . S
C510 C529 1.429 . S
C510 H534 0.950 . S
C511 C528 1.574 . S
C511 C530 1.368 . S
C511 H535 0.949 . S
H512 C516 0.949 . S
C513 C514 1.349 . S
C513 C515 1.327 . S
C513 H536 0.950 1_545 S
C514 C513 1.349 . S
C514 C526 1.349 . S
C515 C513 1.327 . S
C515 C531 1.429 . S
C515 H537 0.950 . S
C516 H512 0.949 . S
C516 C524 1.574 . S
C516 C532 1.368 . S
H517 C525 0.950 . S
H518 C523 0.950 . S
H519 C524 0.949 . S
H520 C526 0.950 . S
H521 C527 0.950 . S
H522 C528 0.949 . S
C523 H518 0.950 . S
C523 C525 1.327 . S
C523 C529 1.429 . S
C524 C516 1.574 . S
C524 H519 0.949 . S
C524 C530 1.368 . S
C525 C509 1.349 . S
C525 H517 0.950 . S
C525 C523 1.327 . S
C526 C514 1.349 . S
C526 H520 0.950 . S
C526 C527 1.327 . S
C527 H521 0.950 . S
C527 C526 1.327 . S
C527 C531 1.429 . S
C528 C511 1.574 . S
C528 H522 0.949 . S
C528 C532 1.368 . S
C529 C510 1.429 . S
C529 C523 1.429 . S
C529 C530 1.523 . S
C530 C511 1.368 . S
C530 C524 1.368 . S
C530 C529 1.523 . S
C531 C515 1.429 . S
C531 C527 1.429 . S
C531 C532 1.523 . S
C532 C516 1.368 . S
C532 C528 1.368 . S
C532 C531 1.523 . S
H533 C508 0.950 . S
H534 C510 0.950 . S
H535 C511 0.949 . S
H536 C513 0.950 1_565 S
H537 C515 0.950 . S
C538 C539 1.349 . S
C538 C540 1.327 . S
C538 H563 0.950 . S
C539 C538 1.349 . S
C539 C555 1.349 . S
C540 C538 1.327 . S
C540 C559 1.429 . S
C540 H564 0.950 . S
C541 C558 1.574 . S
C541 C560 1.368 . S
C541 H565 0.949 . S
H542 C546 0.949 . S
C543 C544 1.349 . S
C543 C545 1.327 . S
C543 H566 0.950 . S
C544 C543 1.349 . S
C544 C556 1.349 . S
C545 C543 1.327 . S
C545 C561 1.429 . S
C545 H567 0.950 . S
C546 H542 0.949 . S
C546 C554 1.574 . S
C546 C562 1.368 . S
H547 C555 0.950 . S
H548 C553 0.950 . S
H549 C554 0.949 . S
H550 C556 0.950 . S
H551 C557 0.950 . S
H552 C558 0.949 . S
C553 H548 0.950 . S
C553 C555 1.327 . S
C553 C559 1.429 . S
C554 C546 1.574 . S
C554 H549 0.949 . S
C554 C560 1.368 . S
C555 C539 1.349 . S
C555 H547 0.950 . S
C555 C553 1.327 . S
C556 C544 1.349 . S
C556 H550 0.950 . S
C556 C557 1.327 . S
C557 H551 0.950 . S
C557 C556 1.327 . S
C557 C561 1.429 . S
C558 C541 1.574 . S
C558 H552 0.949 . S
C558 C562 1.368 . S
C559 C540 1.429 . S
C559 C553 1.429 . S
C559 C560 1.523 . S
C560 C541 1.368 . S
C560 C554 1.368 . S
C560 C559 1.523 . S
C561 C545 1.429 . S
C561 C557 1.429 . S
C561 C562 1.523 . S
C562 C546 1.368 . S
C562 C558 1.368 . S
C562 C561 1.523 . S
H563 C538 0.950 . S
H564 C540 0.950 . S
H565 C541 0.949 . S
H566 C543 0.950 . S
H567 C545 0.950 . S
C568 C569 1.349 . S
C568 C570 1.327 . S
C568 H593 0.950 . S
C569 C568 1.349 . S
C569 C585 1.349 . S
C570 C568 1.327 . S
C570 C589 1.429 . S
C570 H594 0.950 . S
C571 C588 1.574 . S
C571 C590 1.368 . S
C571 H595 0.949 . S
H572 C576 0.949 . S
C573 C574 1.349 . S
C573 C575 1.327 . S
C573 H596 0.950 . S
C574 C573 1.349 . S
C574 C586 1.349 . S
C575 C573 1.327 . S
C575 C591 1.429 . S
C575 H597 0.950 . S
C576 H572 0.949 . S
C576 C584 1.574 . S
C576 C592 1.368 . S
H577 C585 0.950 . S
H578 C583 0.950 . S
H579 C584 0.949 . S
H580 C586 0.950 . S
H581 C587 0.950 . S
H582 C588 0.949 . S
C583 H578 0.950 . S
C583 C585 1.327 . S
C583 C589 1.429 . S
C584 C576 1.574 . S
C584 H579 0.949 . S
C584 C590 1.368 . S
C585 C569 1.349 . S
C585 H577 0.950 . S
C585 C583 1.327 . S
C586 C574 1.349 . S
C586 H580 0.950 . S
C586 C587 1.327 . S
C587 H581 0.950 . S
C587 C586 1.327 . S
C587 C591 1.429 . S
C588 C571 1.574 . S
C588 H582 0.949 . S
C588 C592 1.368 . S
C589 C570 1.429 . S
C589 C583 1.429 . S
C589 C590 1.523 . S
C590 C571 1.368 . S
C590 C584 1.368 . S
C590 C589 1.523 . S
C591 C575 1.429 . S
C591 C587 1.429 . S
C591 C592 1.523 . S
C592 C576 1.368 . S
C592 C588 1.368 . S
C592 C591 1.523 . S
H593 C568 0.950 . S
H594 C570 0.950 . S
H595 C571 0.949 . S
H596 C573 0.950 . S
H597 C575 0.950 . S
C598 C599 1.349 . S
C598 C600 1.327 . S
C598 H623 0.950 . S
C599 C598 1.349 . S
C599 C615 1.349 . S
C600 C598 1.327 . S
C600 C619 1.429 . S
C600 H624 0.950 . S
C601 C618 1.574 . S
C601 C620 1.368 . S
C601 H625 0.949 . S
H602 C606 0.949 . S
C603 C604 1.349 . S
C603 C605 1.327 . S
C603 H626 0.950 . S
C604 C603 1.349 . S
C604 C616 1.349 . S
C605 C603 1.327 . S
C605 C621 1.429 . S
C605 H627 0.950 . S
C606 H602 0.949 . S
C606 C614 1.574 . S
C606 C622 1.368 . S
H607 C615 0.950 . S
H608 C613 0.950 . S
H609 C614 0.949 . S
H610 C616 0.950 . S
H611 C617 0.950 . S
H612 C618 0.949 . S
C613 H608 0.950 . S
C613 C615 1.327 . S
C613 C619 1.429 . S
C614 C606 1.574 . S
C614 H609 0.949 . S
C614 C620 1.368 . S
C615 C599 1.349 . S
C615 H607 0.950 . S
C615 C613 1.327 . S
C616 C604 1.349 . S
C616 H610 0.950 . S
C616 C617 1.327 . S
C617 H611 0.950 . S
C617 C616 1.327 . S
C617 C621 1.429 . S
C618 C601 1.574 . S
C618 H612 0.949 . S
C618 C622 1.368 . S
C619 C600 1.429 . S
C619 C613 1.429 . S
C619 C620 1.523 . S
C620 C601 1.368 . S
C620 C614 1.368 . S
C620 C619 1.523 . S
C621 C605 1.429 . S
C621 C617 1.429 . S
C621 C622 1.523 . S
C622 C606 1.368 . S
C622 C618 1.368 . S
C622 C621 1.523 . S
H623 C598 0.950 . S
H624 C600 0.950 . S
H625 C601 0.949 . S
H626 C603 0.950 . S
H627 C605 0.950 . S
C628 C629 1.349 . S
C628 C630 1.327 . S
C628 H653 0.950 . S
C629 C628 1.349 . S
C629 C645 1.349 . S
C630 C628 1.327 . S
C630 C649 1.429 . S
C630 H654 0.950 . S
C631 C648 1.574 . S
C631 C650 1.368 . S
C631 H655 0.949 . S
H632 C636 0.949 . S
C633 C634 1.349 . S
C633 C635 1.327 . S
C633 H656 0.950 . S
C634 C633 1.349 . S
C634 C646 1.349 . S
C635 C633 1.327 . S
C635 C651 1.429 . S
C635 H657 0.950 . S
C636 H632 0.949 . S
C636 C644 1.574 . S
C636 C652 1.368 . S
H637 C645 0.950 . S
H638 C643 0.950 . S
H639 C644 0.949 . S
H640 C646 0.950 . S
H641 C647 0.950 . S
H642 C648 0.949 . S
C643 H638 0.950 . S
C643 C645 1.327 . S
C643 C649 1.429 . S
C644 C636 1.574 . S
C644 H639 0.949 . S
C644 C650 1.368 . S
C645 C629 1.349 . S
C645 H637 0.950 . S
C645 C643 1.327 . S
C646 C634 1.349 . S
C646 H640 0.950 . S
C646 C647 1.327 . S
C647 H641 0.950 . S
C647 C646 1.327 . S
C647 C651 1.429 . S
C648 C631 1.574 . S
C648 H642 0.949 . S
C648 C652 1.368 . S
C649 C630 1.429 . S
C649 C643 1.429 . S
C649 C650 1.523 . S
C650 C631 1.368 . S
C650 C644 1.368 . S
C650 C649 1.523 . S
C651 C635 1.429 . S
C651 C647 1.429 . S
C651 C652 1.523 . S
C652 C636 1.368 . S
C652 C648 1.368 . S
C652 C651 1.523 . S
H653 C628 0.950 . S
H654 C630 0.950 . S
H655 C631 0.949 . S
H656 C633 0.950 . S
H657 C635 0.950 . S
C658 C659 1.349 . S
C658 C660 1.327 . S
C658 H683 0.950 . S
C659 C658 1.349 . S
C659 C675 1.349 . S
C660 C658 1.327 . S
C660 C679 1.429 . S
C660 H684 0.950 . S
C661 C678 1.574 . S
C661 C680 1.368 . S
C661 H685 0.949 . S
H662 C666 0.949 . S
C663 C664 1.349 . S
C663 C665 1.327 . S
C663 H686 0.950 . S
C664 C663 1.349 . S
C664 C676 1.349 . S
C665 C663 1.327 . S
C665 C681 1.429 . S
C665 H687 0.950 . S
C666 H662 0.949 . S
C666 C674 1.574 . S
C666 C682 1.368 . S
H667 C675 0.950 . S
H668 C673 0.950 . S
H669 C674 0.949 . S
H670 C676 0.950 1_545 S
H671 C677 0.950 1_545 S
H672 C678 0.949 . S
C673 H668 0.950 . S
C673 C675 1.327 . S
C673 C679 1.429 . S
C674 C666 1.574 . S
C674 H669 0.949 . S
C674 C680 1.368 . S
C675 C659 1.349 . S
C675 H667 0.950 . S
C675 C673 1.327 . S
C676 C664 1.349 . S
C676 H670 0.950 1_565 S
C676 C677 1.327 . S
C677 H671 0.950 1_565 S
C677 C676 1.327 . S
C677 C681 1.429 . S
C678 C661 1.574 . S
C678 H672 0.949 . S
C678 C682 1.368 . S
C679 C660 1.429 . S
C679 C673 1.429 . S
C679 C680 1.523 . S
C680 C661 1.368 . S
C680 C674 1.368 . S
C680 C679 1.523 . S
C681 C665 1.429 . S
C681 C677 1.429 . S
C681 C682 1.523 . S
C682 C666 1.368 . S
C682 C678 1.368 . S
C682 C681 1.523 . S
H683 C658 0.950 . S
H684 C660 0.950 . S
H685 C661 0.949 . S
H686 C663 0.950 . S
H687 C665 0.950 . S
C334 C223 1.651 . S
C329 C135 1.652 . S
C359 C15 1.640 . S
C364 C318 1.635 . S
C389 C55 1.649 . S
C394 C234 1.642 . S
C419 C95 1.650 . S
C424 C307 1.649 . S
C454 C218 1.420 . S
C449 C2 1.564 . S
C484 C311 1.613 . S
C479 C42 1.614 . S
C509 C82 1.600 . S
C514 C227 1.609 . S
C539 C141 1.522 . S
C544 C302 1.409 . S
C574 C313 1.428 . S
C569 C61 1.568 . S
C604 C229 1.450 . S
C599 C101 1.594 . S
C634 C300 1.644 . S
C629 C122 1.609 . S
C659 C21 1.642 . S
C664 C216 1.642 . S
