# Generated by pormake.
# Topology nia, (6,6)-cn, num edge types: 1
# Building blocks:
#     Node 0, Type 0, BuildingBlock: PAMTOO_clean_sbu_0, # of connection points: 6
#     Node 1, Type 0, BuildingBlock: PAMTOO_clean_sbu_0, # of connection points: 6
#     Node 2, Type 1, BuildingBlock: MIDCAF_clean_sbu_0, # of connection points: 6
#     Node 3, Type 1, BuildingBlock: MIDCAF_clean_sbu_0, # of connection points: 6
#     Edge 4, Type (0, 1), BuildingBlock: XUDNAN_clean_linker_2, # of connection points: 2
#     Edge 5, Type (0, 1), BuildingBlock: XUDNAN_clean_linker_2, # of connection points: 2
#     Edge 6, Type (0, 1), BuildingBlock: XUDNAN_clean_linker_2, # of connection points: 2
#     Edge 7, Type (0, 1), BuildingBlock: XUDNAN_clean_linker_2, # of connection points: 2
#     Edge 8, Type (0, 1), BuildingBlock: XUDNAN_clean_linker_2, # of connection points: 2
#     Edge 9, Type (0, 1), BuildingBlock: XUDNAN_clean_linker_2, # of connection points: 2
#     Edge 10, Type (0, 1), BuildingBlock: XUDNAN_clean_linker_2, # of connection points: 2
#     Edge 11, Type (0, 1), BuildingBlock: XUDNAN_clean_linker_2, # of connection points: 2
#     Edge 12, Type (0, 1), BuildingBlock: XUDNAN_clean_linker_2, # of connection points: 2
#     Edge 13, Type (0, 1), BuildingBlock: XUDNAN_clean_linker_2, # of connection points: 2
#     Edge 14, Type (0, 1), BuildingBlock: XUDNAN_clean_linker_2, # of connection points: 2
#     Edge 15, Type (0, 1), BuildingBlock: XUDNAN_clean_linker_2, # of connection points: 2
# Relax obj value: 0.175
# Max RMSD: 0.277
# Mean RMSD: 0.196
data_MOF--net-nia--node1-PAMTOO_clean_sbu_0--node2-MIDCAF_clean_sbu_0--edge1-XUDNAN_clean_linker_2
_symmetry_space_group_name_H-M    P1
_symmetry_Int_Tables_number       1
_symmetry_cell_setting            triclinic
loop_
_symmetry_equiv_pos_as_xyz
'x, y, z'
_cell_length_a     28.927595
_cell_length_b     28.911902
_cell_length_c     33.510174
_cell_angle_alpha  90.243796
_cell_angle_beta   90.890571
_cell_angle_gamma 137.10484
loop_
_atom_site_label
_atom_site_type_symbol
_atom_site_fract_x
_atom_site_fract_y
_atom_site_fract_z
_atom_type_partial_charge
Dy0 Dy 0.02907 -0.01312 0.0572 0.0
Dy1 Dy -0.01561 0.04257 1.00101 0.0
C2 C 0.11855 0.08377 0.98535 0.0
O3 O 0.08922 0.09217 0.07698 0.0
O4 O 0.01354 0.09396 0.06087 0.0
O5 O 0.10667 0.00201 0.08637 0.0
O6 O 0.00016 0.91388 0.09932 0.0
O7 O 0.89252 0.96027 0.03646 0.0
O8 O 0.94956 0.96836 0.08932 0.0
O9 O 0.97184 0.97009 0.96321 0.0
O10 O 0.95751 0.90465 1.0114 0.0
O11 O 0.92115 0.02421 0.95363 0.0
O12 O 0.00705 0.12687 0.97746 0.0
C13 C 0.06364 0.11448 0.08351 0.0
O14 O 0.09395 0.02939 1.00343 0.0
O15 O 0.09321 0.10647 0.99128 0.0
C16 C 0.07316 0.90299 0.10985 0.0
C17 C 0.09794 0.82775 0.12911 0.0
C18 C 0.14888 0.89208 0.11206 0.0
C19 C 0.13668 0.92949 0.1026 0.0
C20 C 0.02184 0.83801 0.12597 0.0
C21 C 0.03401 0.80073 0.13539 0.0
C22 C 0.06241 0.94537 0.10576 0.0
C23 C 0.89546 0.9491 0.07388 0.0
C24 C 0.952 0.91434 0.97417 0.0
C25 C 0.92076 0.10413 0.94115 0.0
C26 C 0.84626 0.12756 0.91621 0.0
C27 C 0.83457 0.09864 0.95355 0.0
C28 C 0.87159 0.08683 0.96594 0.0
C29 C 0.93322 0.1338 0.90434 0.0
C30 C 0.89629 0.14533 0.8919 0.0
C31 C 0.95717 0.08826 0.95108 0.0
H32 H 0.19844 0.91386 0.10648 0.0
H33 H 0.17754 0.97979 0.09067 0.0
H34 H 0.97282 0.81679 0.13267 0.0
H35 H -0.00595 0.75178 0.14903 0.0
H36 H 0.7969 0.08518 0.97314 0.0
H37 H 0.86138 0.06359 0.99444 0.0
H38 H 0.97069 0.14677 0.88475 0.0
H39 H 0.9058 0.16661 0.86276 0.0
Dy40 Dy 0.01116 0.97468 0.49198 0.0
Dy41 Dy 0.96189 0.01849 0.55663 0.0
C42 C 0.93059 0.88887 0.56757 0.0
O43 O 0.90852 0.92733 0.47384 0.0
O44 O 0.91825 0.00798 0.4981 0.0
O45 O -0.02091 0.89335 0.45535 0.0
O46 O 0.08034 -0.0035 0.44954 0.0
O47 O 0.04227 0.11405 0.52218 0.0
O48 O 0.04926 0.06895 0.46851 0.0
O49 O 0.0426 0.03804 0.58832 0.0
O50 O 0.09683 0.03971 0.53756 0.0
O51 O -0.01974 0.07899 0.60609 0.0
O52 O 0.87678 -0.01201 0.58512 0.0
C53 C 0.89372 0.96068 0.47167 0.0
O54 O -0.01769 0.91525 0.54607 0.0
O55 O 0.90232 0.9091 0.56397 0.0
C56 C 0.0635 0.90589 0.4278 0.0
C57 C 0.10593 0.85183 0.39534 0.0
C58 C 0.04171 0.80889 0.41229 0.0
C59 C 0.02063 0.83559 0.42828 0.0
C60 C 0.12856 0.94902 0.41204 0.0
C61 C 0.1497 0.92232 0.39615 0.0
C62 C 0.03721 0.93304 0.43762 0.0
C63 C 0.06461 0.11936 0.48658 0.0
C64 C 0.0942 0.05248 0.57481 0.0
C65 C 0.89335 0.06712 0.62555 0.0
C66 C 0.84248 0.11335 0.6559 0.0
C67 C 0.85453 0.11739 0.61483 0.0
C68 C 0.87962 0.09406 0.59967 0.0
C69 C 0.88304 0.06473 0.66648 0.0
C70 C 0.8578 0.08755 0.68156 0.0
C71 C 0.91554 0.03806 0.61135 0.0
H72 H 0.00728 0.75444 0.41266 0.0
H73 H 0.96985 0.80082 0.43975 0.0
H74 H 0.16223 0.00323 0.41052 0.0
H75 H 0.19927 0.95666 0.38301 0.0
H76 H 0.84286 0.13683 0.5944 0.0
H77 H 0.88727 0.09605 0.56792 0.0
H78 H 0.89359 0.04415 0.68683 0.0
H79 H 0.8501 0.08484 0.71336 0.0
Zn80 Zn 0.33231 0.61732 0.19935 0.0
Zn81 Zn 0.36707 0.67287 0.35132 0.0
Zn82 Zn 0.35526 0.64494 0.27458 0.0
C83 C 0.49692 0.74957 0.32196 0.0
C84 C 0.29107 0.53736 0.34649 0.0
O85 O 0.29897 0.66392 0.24822 0.0
O86 O 0.28786 0.64208 0.18327 0.0
C87 C 0.47226 0.71262 0.20938 0.0
O88 O 0.46486 0.72323 0.28804 0.0
O89 O 0.46582 0.73435 0.35373 0.0
O90 O 0.30693 0.57985 0.37179 0.0
O91 O 0.30678 0.55354 0.30953 0.0
O92 O 0.42581 0.67502 0.18287 0.0
O93 O 0.45675 0.71029 0.24587 0.0
O94 O 0.29435 0.53636 0.26801 0.0
O95 O 0.27157 0.51968 0.20297 0.0
C96 C 0.26454 0.4968 0.23688 0.0
O97 O 0.30919 0.67977 0.28899 0.0
O98 O 0.33536 0.71388 0.35244 0.0
C99 C 0.27795 0.66053 0.21293 0.0
C100 C 0.30797 0.70597 0.31972 0.0
Zn101 Zn 0.64781 0.37035 0.85513 0.0
Zn102 Zn 0.64541 0.36218 0.70282 0.0
Zn103 Zn 0.64027 0.36658 0.77794 0.0
C104 C 0.7164 0.49339 0.72029 0.0
C105 C 0.50944 0.27356 0.72076 0.0
O106 O 0.66795 0.31674 0.80101 0.0
O107 O 0.66568 0.31876 0.86703 0.0
C108 C 0.73955 0.50429 0.83228 0.0
O109 O 0.70953 0.47201 0.75571 0.0
O110 O 0.6878 0.4529 0.69064 0.0
O111 O 0.54632 0.28555 0.69336 0.0
O112 O 0.53605 0.30318 0.75528 0.0
O113 O 0.72197 0.46953 0.86282 0.0
O114 O 0.71341 0.4748 0.79767 0.0
O115 O 0.53775 0.3111 0.79789 0.0
O116 O 0.55426 0.32242 0.86358 0.0
C117 C 0.51574 0.30062 0.83345 0.0
O118 O 0.67182 0.31888 0.7593 0.0
O119 O 0.69811 0.34348 0.69573 0.0
C120 C 0.67358 0.3015 0.83559 0.0
C121 C 0.69474 0.31736 0.72713 0.0
H122 H 0.21264 0.87819 0.16738 0.0
H123 H 0.01449 0.6915 0.1196 0.0
H124 H 0.03542 0.62722 0.14297 0.0
H125 H 0.30027 0.83996 0.13897 0.0
H126 H 0.35463 0.87884 0.18314 0.0
H127 H 0.32199 0.90907 0.16454 0.0
H128 H 0.27452 0.89055 0.23371 0.0
H129 H 0.30051 0.85402 0.25303 0.0
H130 H 0.21251 0.8068 0.254 0.0
H131 H 0.07972 0.58451 0.16695 0.0
H132 H 0.14745 0.56615 0.188 0.0
H133 H 0.31666 0.77944 0.22116 0.0
C134 C 0.17381 0.82384 0.16163 0.0
C135 C 0.11177 0.78973 0.14181 0.0
C136 C 0.06195 0.71848 0.13523 0.0
C137 C 0.07337 0.68157 0.14837 0.0
C138 C 0.13476 0.71666 0.16809 0.0
C139 C 0.18439 0.78619 0.1745 0.0
C140 C 0.24707 0.81177 0.19493 0.0
C141 C 0.30967 0.86291 0.16883 0.0
C142 C 0.25943 0.84262 0.2364 0.0
C143 C 0.2255 0.74586 0.19805 0.0
C144 C 0.16017 0.6916 0.18272 0.0
C145 C 0.13044 0.62625 0.1796 0.0
C146 C 0.1691 0.6163 0.19156 0.0
C147 C 0.23627 0.67124 0.20664 0.0
C148 C 0.26465 0.73659 0.21057 0.0
H149 H 0.19702 0.06356 0.5681 0.0
H150 H 0.1153 0.10725 0.64797 0.0
H151 H 0.20505 0.1555 0.69781 0.0
H152 H 0.2502 0.0204 0.64743 0.0
H153 H 0.32634 0.0598 0.62227 0.0
H154 H 0.2519 0.02279 0.59368 0.0
H155 H 0.32212 0.13737 0.55867 0.0
H156 H 0.39669 0.17439 0.58682 0.0
H157 H 0.36894 0.21343 0.58861 0.0
H158 H 0.30937 0.21011 0.73595 0.0
H159 H 0.42385 0.26945 0.7586 0.0
H160 H 0.43511 0.18491 0.65736 0.0
C161 C 0.19783 0.08287 0.59616 0.0
C162 C 0.14904 0.08144 0.60406 0.0
C163 C 0.15182 0.10729 0.6412 0.0
C164 C 0.20248 0.13465 0.6699 0.0
C165 C 0.24968 0.13521 0.6613 0.0
C166 C 0.24788 0.10994 0.62546 0.0
C167 C 0.30714 0.12029 0.62305 0.0
C168 C 0.2824 0.05173 0.62152 0.0
C169 C 0.35133 0.16399 0.58718 0.0
C170 C 0.3438 0.15784 0.66235 0.0
C171 C 0.30926 0.16504 0.6842 0.0
C172 C 0.33604 0.20311 0.71975 0.0
C173 C 0.40069 0.23597 0.73285 0.0
C174 C 0.43739 0.23016 0.71073 0.0
C175 C 0.40771 0.18931 0.67544 0.0
H176 H 0.02344 0.17074 0.10993 0.0
H177 H 0.1632 0.1606 0.13662 0.0
H178 H 0.21021 0.23853 0.19395 0.0
H179 H 0.13508 0.33935 0.12478 0.0
H180 H 0.07759 0.33741 0.14749 0.0
H181 H 0.04485 0.26927 0.11457 0.0
H182 H 0.9662 0.18336 0.17038 0.0
H183 H 0.00018 0.25211 0.20379 0.0
H184 H 0.00257 0.1939 0.21827 0.0
H185 H 0.25933 0.33452 0.23704 0.0
H186 H 0.31035 0.44575 0.25862 0.0
H187 H 0.13593 0.3915 0.21048 0.0
C188 C 0.06295 0.18388 0.12838 0.0
C189 C 0.08973 0.15979 0.11861 0.0
C190 C 0.14184 0.17853 0.14328 0.0
C191 C 0.16841 0.22217 0.17635 0.0
C192 C 0.14182 0.24606 0.18487 0.0
C193 C 0.09003 0.22744 0.1617 0.0
C194 C 0.07729 0.26773 0.17383 0.0
C195 C 0.08421 0.30571 0.13806 0.0
C196 C 0.0074 0.2215 0.1927 0.0
C197 C 0.13404 0.316 0.20481 0.0
C198 C 0.16914 0.30098 0.21182 0.0
C199 C 0.23058 0.34514 0.23359 0.0
C200 C 0.25882 0.40791 0.24657 0.0
C201 C 0.22496 0.42508 0.23835 0.0
C202 C 0.16062 0.37744 0.21886 0.0
H203 H 0.87794 0.22913 0.64015 0.0
H204 H 0.73965 0.04475 0.70864 0.0
H205 H 0.69091 0.08006 0.73732 0.0
H206 H 0.90829 0.33895 0.71611 0.0
H207 H 0.91137 0.3881 0.68094 0.0
H208 H 0.93666 0.34931 0.66618 0.0
H209 H 0.84942 0.28703 0.60687 0.0
H210 H 0.82434 0.32616 0.62107 0.0
H211 H 0.7615 0.23494 0.61621 0.0
H212 H 0.65376 0.13263 0.75618 0.0
H213 H 0.63021 0.19895 0.76316 0.0
H214 H 0.7951 0.35081 0.68452 0.0
C215 C 0.83714 0.19608 0.66099 0.0
C216 C 0.81259 0.1343 0.67223 0.0
C217 C 0.75966 0.09268 0.69996 0.0
C218 C 0.73154 0.11215 0.71631 0.0
C219 C 0.75708 0.17348 0.70473 0.0
C220 C 0.80877 0.21494 0.67781 0.0
C221 C 0.82665 0.27808 0.67022 0.0
C222 C 0.9001 0.34241 0.68421 0.0
C223 C 0.81473 0.28172 0.62597 0.0
C224 C 0.77605 0.26495 0.69646 0.0
C225 C 0.73663 0.20452 0.71629 0.0
C226 C 0.68486 0.18047 0.74121 0.0
C227 C 0.67248 0.21886 0.7455 0.0
C228 C 0.7124 0.28091 0.72553 0.0
C229 C 0.76474 0.3041 0.70073 0.0
H230 H 0.7584 0.84734 0.05772 0.0
H231 H 0.90915 -0.01022 0.15047 0.0
H232 H 0.81793 0.94649 0.19569 0.0
H233 H 0.64083 0.85216 0.0782 0.0
H234 H 0.56646 0.76235 0.06924 0.0
H235 H 0.64379 0.80613 0.04398 0.0
H236 H 0.64179 0.72106 0.07161 0.0
H237 H 0.56438 0.67697 0.09689 0.0
H238 H 0.63728 0.70884 0.12468 0.0
H239 H 0.7093 0.89127 0.22937 0.0
H240 H 0.59214 0.82132 0.25025 0.0
H241 H 0.51348 0.70725 0.13843 0.0
C242 C 0.77198 0.8694 0.08751 0.0
C243 C 0.84049 0.92195 0.10068 0.0
C244 C 0.85668 0.94915 0.14 0.0
C245 C 0.80534 0.92514 0.1658 0.0
C246 C 0.73806 0.87304 0.15201 0.0
C247 C 0.72128 0.84482 0.11399 0.0
C248 C 0.64508 0.78734 0.10708 0.0
C249 C 0.62275 0.80297 0.07259 0.0
C250 C 0.62072 0.71955 0.09964 0.0
C251 C 0.62169 0.78839 0.14684 0.0
C252 C 0.6759 0.83846 0.17229 0.0
C253 C 0.66642 0.85074 0.21 0.0
C254 C 0.59967 0.81012 0.22206 0.0
C255 C 0.54334 0.75697 0.19706 0.0
C256 C 0.55513 0.74673 0.15879 0.0
H257 H 0.80091 0.7715 0.58822 0.0
H258 H 0.01291 0.89936 0.61702 0.0
H259 H -0.0205 0.81941 0.66888 0.0
H260 H 0.73348 0.70617 0.69009 0.0
H261 H 0.65842 0.62184 0.67116 0.0
H262 H 0.69845 0.69467 0.64139 0.0
H263 H 0.70894 0.64352 0.58323 0.0
H264 H 0.66842 0.57053 0.61265 0.0
H265 H 0.75069 0.61954 0.59239 0.0
H266 H 0.92335 0.72154 0.71414 0.0
H267 H 0.84957 0.60627 0.74143 0.0
H268 H 0.67545 0.53903 0.67954 0.0
C269 C 0.84 0.78308 0.60613 0.0
C270 C 0.90928 0.84149 0.59908 0.0
C271 C 0.95943 0.85455 0.62213 0.0
C272 C 0.94097 0.80989 0.65189 0.0
C273 C 0.87212 0.75204 0.65793 0.0
C274 C 0.82238 0.73806 0.63531 0.0
C275 C 0.75253 0.66816 0.64385 0.0
C276 C 0.70811 0.67303 0.66275 0.0
C277 C 0.71818 0.62278 0.60578 0.0
C278 C 0.77096 0.64423 0.67371 0.0
C279 C 0.83992 0.69408 0.6825 0.0
C280 C 0.86916 0.68232 0.70783 0.0
C281 C 0.8271 0.61705 0.72334 0.0
C282 C 0.75722 0.56468 0.71273 0.0
C283 C 0.72874 0.57893 0.68846 0.0
H284 H 0.22941 0.89891 0.40127 0.0
H285 H 0.02873 0.73978 0.34541 0.0
H286 H 0.06235 0.69064 0.31408 0.0
H287 H 0.32322 0.91853 0.31826 0.0
H288 H 0.38292 0.93237 0.35068 0.0
H289 H 0.34508 0.95809 0.36678 0.0
H290 H 0.30091 0.88601 0.43005 0.0
H291 H 0.33946 0.86086 0.41488 0.0
H292 H 0.25004 0.79707 0.42497 0.0
H293 H 0.11588 0.65483 0.2924 0.0
H294 H 0.18338 0.63255 0.28541 0.0
H295 H 0.3491 0.81669 0.35398 0.0
C296 C 0.19288 0.85438 0.38193 0.0
C297 C 0.12646 0.82309 0.37584 0.0
C298 C 0.07968 0.76409 0.35089 0.0
C299 C 0.09848 0.7362 0.33267 0.0
C300 C 0.16427 0.76807 0.33958 0.0
C301 C 0.21074 0.82592 0.36357 0.0
C302 C 0.27697 0.84832 0.36806 0.0
C303 C 0.3355 0.91847 0.34985 0.0
C304 C 0.29271 0.84799 0.4121 0.0
C305 C 0.25992 0.79303 0.34374 0.0
C306 C 0.19501 0.7476 0.32709 0.0
C307 C 0.16705 0.69048 0.30493 0.0
C308 C 0.20589 0.6786 0.30067 0.0
C309 C 0.27176 0.72385 0.31831 0.0
C310 C 0.29921 0.78205 0.33962 0.0
H311 H 0.19209 0.05964 0.96635 0.0
H312 H 0.16852 0.18808 0.93793 0.0
H313 H 0.2575 0.24673 0.8883 0.0
H314 H 0.37049 0.18856 0.96152 0.0
H315 H 0.37499 0.13487 0.93974 0.0
H316 H 0.30476 0.09854 0.97039 0.0
H317 H 0.22092 0.01443 0.91254 0.0
H318 H 0.29121 0.05134 0.8815 0.0
H319 H 0.22866 0.04697 0.86442 0.0
H320 H 0.35536 0.29874 0.84627 0.0
H321 H 0.46057 0.34437 0.81784 0.0
H322 H 0.42023 0.18205 0.87148 0.0
C323 C 0.20527 0.09969 0.94945 0.0
C324 C 0.17316 0.11906 0.95613 0.0
C325 C 0.19234 0.17221 0.93356 0.0
C326 C 0.24255 0.20563 0.90497 0.0
C327 C 0.27311 0.18531 0.89903 0.0
C328 C 0.25558 0.13387 0.92073 0.0
C329 C 0.30001 0.12554 0.91054 0.0
C330 C 0.33994 0.13764 0.94775 0.0
C331 C 0.25765 0.05539 0.89109 0.0
C332 C 0.3464 0.18165 0.88071 0.0
C333 C 0.32928 0.21481 0.874 0.0
C334 C 0.36828 0.27213 0.85035 0.0
C335 C 0.42748 0.29737 0.83404 0.0
C336 C 0.44622 0.26465 0.84102 0.0
C337 C 0.40485 0.2058 0.86425 0.0
H338 H 0.06875 0.21824 0.4905 0.0
H339 H 0.15623 0.16343 0.43125 0.0
H340 H 0.2207 0.26231 0.38824 0.0
H341 H 0.04919 0.27345 0.40268 0.0
H342 H 0.07145 0.34353 0.42713 0.0
H343 H 0.03343 0.26973 0.45503 0.0
H344 H 0.13494 0.34564 0.50588 0.0
H345 H 0.17285 0.41974 0.47842 0.0
H346 H 0.22019 0.40215 0.48822 0.0
H347 H 0.27529 0.36552 0.35117 0.0
H348 H 0.32074 0.47163 0.3242 0.0
H349 H 0.19591 0.45896 0.40419 0.0
C350 C 0.10228 0.2278 0.46888 0.0
C351 C 0.10738 0.18307 0.46421 0.0
C352 C 0.15112 0.19672 0.4352 0.0
C353 C 0.18805 0.25279 0.41058 0.0
C354 C 0.18075 0.29493 0.41514 0.0
C355 C 0.13943 0.28366 0.44364 0.0
C356 C 0.14046 0.33682 0.44157 0.0
C357 C 0.0694 0.3039 0.43097 0.0
C358 C 0.16882 0.37857 0.48086 0.0
C359 C 0.18888 0.37948 0.40765 0.0
C360 C 0.21123 0.35409 0.39281 0.0
C361 C 0.25729 0.3853 0.36203 0.0
C362 C 0.28176 0.44458 0.34623 0.0
C363 C 0.25943 0.47135 0.36072 0.0
C364 C 0.21262 0.43852 0.39198 0.0
H365 H 0.89185 0.23729 0.87666 0.0
H366 H 0.70967 0.04214 0.92369 0.0
H367 H 0.64284 0.0604 0.90011 0.0
H368 H 0.85808 0.32654 0.90297 0.0
H369 H 0.89159 0.37621 0.85845 0.0
H370 H 0.92343 0.34486 0.87615 0.0
H371 H 0.89501 0.28862 0.80717 0.0
H372 H 0.85815 0.3148 0.78882 0.0
H373 H 0.80889 0.22611 0.78788 0.0
H374 H 0.59837 0.10375 0.87727 0.0
H375 H 0.57979 0.17197 0.8589 0.0
H376 H 0.78921 0.33665 0.82392 0.0
C377 C 0.83766 0.19776 0.88135 0.0
C378 C 0.80592 0.13823 0.90202 0.0
C379 C 0.73519 0.08849 0.90837 0.0
C380 C 0.69669 0.09801 0.89464 0.0
C381 C 0.7296 0.15717 0.8743 0.0
C382 C 0.79847 0.20625 0.86766 0.0
C383 C 0.82224 0.26716 0.84722 0.0
C384 C 0.87704 0.33252 0.87274 0.0
C385 C 0.84759 0.27466 0.80527 0.0
C386 C 0.75649 0.24601 0.84509 0.0
C387 C 0.70344 0.18178 0.86023 0.0
C388 C 0.639 0.15338 0.86459 0.0
C389 C 0.62892 0.19231 0.85416 0.0
C390 C 0.68285 0.25843 0.83943 0.0
C391 C 0.74702 0.28532 0.83415 0.0
H392 H 0.79745 0.84215 0.42766 0.0
H393 H 0.88873 0.04475 0.44296 0.0
H394 H 0.80928 0.01803 0.39198 0.0
H395 H 0.74999 0.8193 0.31724 0.0
H396 H 0.67098 0.73121 0.32369 0.0
H397 H 0.74459 0.77056 0.3543 0.0
H398 H 0.67603 0.73506 0.41814 0.0
H399 H 0.60256 0.69533 0.38775 0.0
H400 H 0.63437 0.7595 0.42452 0.0
H401 H 0.70983 0.96507 0.34975 0.0
H402 H 0.59204 0.88642 0.32321 0.0
H403 H 0.56326 0.71769 0.33424 0.0
C404 C 0.8018 0.88135 0.41936 0.0
C405 C 0.84908 0.94542 0.43911 0.0
C406 C 0.85251 -0.00488 0.42828 0.0
C407 C 0.80819 0.98074 0.39898 0.0
C408 C 0.76091 0.91651 0.38066 0.0
C409 C 0.7573 0.86748 0.3904 0.0
C410 C 0.69547 0.79953 0.37081 0.0
C411 C 0.71654 0.77896 0.33966 0.0
C412 C 0.64941 0.74416 0.40218 0.0
C413 C 0.66249 0.81694 0.3509 0.0
C414 C 0.70235 0.88531 0.3558 0.0
C415 C 0.67906 0.91196 0.34454 0.0
C416 C 0.61235 0.86719 0.32946 0.0
C417 C 0.5703 0.797 0.3257 0.0
C418 C 0.59608 0.77182 0.33536 0.0
H419 H 0.94953 0.81827 0.97816 0.0
H420 H 0.89826 0.89565 0.90022 0.0
H421 H 0.85334 0.80794 0.84913 0.0
H422 H -0.00168 0.77294 0.89736 0.0
H423 H 0.96335 0.69835 0.92284 0.0
H424 H -0.00181 0.7719 0.95115 0.0
H425 H 0.88443 0.69785 0.98758 0.0
H426 H 0.8497 0.62426 0.95979 0.0
H427 H 0.80665 0.64774 0.95854 0.0
H428 H 0.79958 0.70184 0.81099 0.0
H429 H 0.74071 0.58655 0.79046 0.0
H430 H 0.83563 0.5848 0.89081 0.0
C431 C 0.92943 0.81716 0.9502 0.0
C432 C 0.92691 0.86332 0.94319 0.0
C433 C 0.90068 0.86065 0.90614 0.0
C434 C 0.8754 0.8113 0.87688 0.0
C435 C 0.87818 0.7661 0.88484 0.0
C436 C 0.90515 0.76913 0.9205 0.0
C437 C 0.89855 0.71235 0.92293 0.0
C438 C 0.96879 0.74059 0.9236 0.0
C439 C 0.85735 0.66793 0.95934 0.0
C440 C 0.8602 0.67459 0.88409 0.0
C441 C 0.84982 0.70681 0.86209 0.0
C442 C 0.80917 0.67719 0.82729 0.0
C443 C 0.77653 0.61201 0.81549 0.0
C444 C 0.78522 0.57771 0.83837 0.0
C445 C 0.82929 0.61056 0.87228 0.0
loop_
_geom_bond_atom_site_label_1
_geom_bond_atom_site_label_2
_geom_bond_distance
_geom_bond_site_symmetry_2
_ccdc_geom_bond_type
Dy0 O3 2.307 1_565 S
Dy0 O5 2.395 . S
Dy0 O6 2.379 . S
Dy0 O8 2.339 1_455 S
Dy0 O10 2.315 1_455 S
Dy0 O14 2.275 1_564 S
Dy0 C22 2.738 . S
Dy1 O4 2.298 1_656 S
Dy1 O7 2.275 1_546 S
Dy1 O9 2.307 1_545 S
Dy1 O11 2.395 . S
Dy1 O12 2.379 . S
Dy1 O15 2.339 1_655 S
Dy1 C31 2.738 . S
C2 O14 1.254 . S
C2 O15 1.257 . S
O3 Dy0 2.307 1_545 S
O3 C13 1.266 . S
O4 Dy1 2.298 1_454 S
O4 C13 1.236 . S
O5 Dy0 2.395 . S
O5 C22 1.255 . S
O6 Dy0 2.379 . S
O6 C22 1.249 . S
O7 Dy1 2.275 1_564 S
O7 C23 1.254 . S
O8 Dy0 2.339 1_655 S
O8 C23 1.257 . S
O9 Dy1 2.307 1_565 S
O9 C24 1.266 . S
O10 Dy0 2.315 1_655 S
O10 C24 1.210 1_554 S
O11 Dy1 2.395 . S
O11 C31 1.255 . S
O12 Dy1 2.379 . S
O12 C31 1.249 . S
C13 O3 1.266 . S
C13 O4 1.236 . S
O14 Dy0 2.275 1_546 S
O14 C2 1.254 . S
O15 Dy1 2.339 1_455 S
O15 C2 1.257 . S
C16 C19 1.344 . S
C16 C20 1.328 . S
C16 C22 1.516 . S
C17 C18 1.304 . S
C17 C21 1.323 . S
C18 C17 1.304 . S
C18 C19 1.371 . S
C18 H32 0.930 . S
C19 C16 1.344 . S
C19 C18 1.371 . S
C19 H33 0.931 . S
C20 C16 1.328 . S
C20 C21 1.433 . S
C20 H34 0.931 . S
C21 C17 1.323 . S
C21 C20 1.433 . S
C21 H35 0.933 . S
C22 Dy0 2.738 . S
C22 O5 1.255 . S
C22 O6 1.249 . S
C22 C16 1.516 . S
C23 O7 1.254 . S
C23 O8 1.257 . S
C24 O9 1.266 . S
C24 O10 1.210 1_556 S
C25 C28 1.344 . S
C25 C29 1.328 . S
C25 C31 1.516 . S
C26 C27 1.304 . S
C26 C30 1.323 . S
C27 C26 1.304 . S
C27 C28 1.371 . S
C27 H36 0.930 . S
C28 C25 1.344 . S
C28 C27 1.371 . S
C28 H37 0.931 . S
C29 C25 1.328 . S
C29 C30 1.433 . S
C29 H38 0.931 . S
C30 C26 1.323 . S
C30 C29 1.433 . S
C30 H39 0.933 . S
C31 Dy1 2.738 . S
C31 O11 1.255 . S
C31 O12 1.249 . S
C31 C25 1.516 . S
H32 C18 0.930 . S
H33 C19 0.931 . S
H34 C20 0.931 . S
H35 C21 0.933 . S
H36 C27 0.930 . S
H37 C28 0.931 . S
H38 C29 0.931 . S
H39 C30 0.933 . S
Dy40 O43 2.307 1_455 S
Dy40 O45 2.395 . S
Dy40 O46 2.379 1_565 S
Dy40 O48 2.339 1_565 S
Dy40 O50 2.298 1_565 S
Dy40 O54 2.275 1_455 S
Dy40 C62 2.738 . S
Dy41 O44 2.298 1_445 S
Dy41 O47 2.275 . S
Dy41 O49 2.307 . S
Dy41 O51 2.395 1_455 S
Dy41 O52 2.379 1_455 S
Dy41 O55 2.339 1_445 S
Dy41 C71 2.738 1_455 S
C42 O54 1.254 . S
C42 O55 1.257 . S
O43 Dy40 2.307 1_655 S
O43 C53 1.266 . S
O44 Dy41 2.298 1_665 S
O44 C53 1.236 . S
O45 Dy40 2.395 . S
O45 C62 1.255 . S
O46 Dy40 2.379 1_545 S
O46 C62 1.249 1_545 S
O47 Dy41 2.275 . S
O47 C63 1.254 . S
O48 Dy40 2.339 1_545 S
O48 C63 1.257 . S
O49 Dy41 2.307 . S
O49 C64 1.266 . S
O50 Dy40 2.298 1_545 S
O50 C64 1.236 . S
O51 Dy41 2.395 1_655 S
O51 C71 1.255 . S
O52 Dy41 2.379 1_655 S
O52 C71 1.249 . S
C53 O43 1.266 . S
C53 O44 1.236 . S
O54 Dy40 2.275 1_655 S
O54 C42 1.254 . S
O55 Dy41 2.339 1_665 S
O55 C42 1.257 . S
C56 C59 1.344 . S
C56 C60 1.328 . S
C56 C62 1.516 . S
C57 C58 1.304 . S
C57 C61 1.323 . S
C58 C57 1.304 . S
C58 C59 1.371 . S
C58 H72 0.930 . S
C59 C56 1.344 . S
C59 C58 1.371 . S
C59 H73 0.931 . S
C60 C56 1.328 . S
C60 C61 1.433 . S
C60 H74 0.931 . S
C61 C57 1.323 . S
C61 C60 1.433 . S
C61 H75 0.933 . S
C62 Dy40 2.738 . S
C62 O45 1.255 . S
C62 O46 1.249 1_565 S
C62 C56 1.516 . S
C63 O47 1.254 . S
C63 O48 1.257 . S
C64 O49 1.266 . S
C64 O50 1.236 . S
C65 C68 1.344 . S
C65 C69 1.328 . S
C65 C71 1.516 . S
C66 C67 1.304 . S
C66 C70 1.323 . S
C67 C66 1.304 . S
C67 C68 1.371 . S
C67 H76 0.930 . S
C68 C65 1.344 . S
C68 C67 1.371 . S
C68 H77 0.931 . S
C69 C65 1.328 . S
C69 C70 1.433 . S
C69 H78 0.931 . S
C70 C66 1.323 . S
C70 C69 1.433 . S
C70 H79 0.933 . S
C71 Dy41 2.738 1_655 S
C71 O51 1.255 . S
C71 O52 1.249 . S
C71 C65 1.516 . S
H72 C58 0.930 . S
H73 C59 0.931 . S
H74 C60 0.931 . S
H75 C61 0.933 . S
H76 C67 0.930 . S
H77 C68 0.931 . S
H78 C69 0.931 . S
H79 C70 0.933 . S
Zn80 O86 1.920 . S
Zn80 O92 1.898 . S
Zn80 O95 1.905 . S
Zn81 O89 1.905 . S
Zn81 O90 1.898 . S
Zn81 O98 1.920 . S
Zn82 O85 2.080 . S
Zn82 O88 2.114 . S
Zn82 O91 2.120 . S
Zn82 O93 2.120 . S
Zn82 O94 2.114 . S
Zn82 O97 2.080 . S
C83 O88 1.166 . S
C83 O89 1.182 . S
C84 O90 1.167 . S
C84 O91 1.299 . S
O85 Zn82 2.080 . S
O85 C99 1.305 . S
O86 Zn80 1.920 . S
O86 C99 1.234 . S
C87 O92 1.167 . S
C87 O93 1.299 . S
O88 Zn82 2.114 . S
O88 C83 1.166 . S
O89 Zn81 1.905 . S
O89 C83 1.182 . S
O90 Zn81 1.898 . S
O90 C84 1.167 . S
O91 Zn82 2.120 . S
O91 C84 1.299 . S
O92 Zn80 1.898 . S
O92 C87 1.167 . S
O93 Zn82 2.120 . S
O93 C87 1.299 . S
O94 Zn82 2.114 . S
O94 C96 1.166 . S
O95 Zn80 1.905 . S
O95 C96 1.182 . S
C96 O94 1.166 . S
C96 O95 1.182 . S
O97 Zn82 2.080 . S
O97 C100 1.305 . S
O98 Zn81 1.920 . S
O98 C100 1.234 . S
C99 O85 1.305 . S
C99 O86 1.234 . S
C100 O97 1.305 . S
C100 O98 1.234 . S
Zn101 O107 1.920 . S
Zn101 O113 1.898 . S
Zn101 O116 1.905 . S
Zn102 O110 1.905 . S
Zn102 O111 1.898 . S
Zn102 O119 1.920 . S
Zn103 O106 2.080 . S
Zn103 O109 2.114 . S
Zn103 O112 2.120 . S
Zn103 O114 2.120 . S
Zn103 O115 2.114 . S
Zn103 O118 2.080 . S
C104 O109 1.166 . S
C104 O110 1.182 . S
C105 O111 1.167 . S
C105 O112 1.299 . S
O106 Zn103 2.080 . S
O106 C120 1.305 . S
O107 Zn101 1.920 . S
O107 C120 1.234 . S
C108 O113 1.167 . S
C108 O114 1.299 . S
O109 Zn103 2.114 . S
O109 C104 1.166 . S
O110 Zn102 1.905 . S
O110 C104 1.182 . S
O111 Zn102 1.898 . S
O111 C105 1.167 . S
O112 Zn103 2.120 . S
O112 C105 1.299 . S
O113 Zn101 1.898 . S
O113 C108 1.167 . S
O114 Zn103 2.120 . S
O114 C108 1.299 . S
O115 Zn103 2.114 . S
O115 C117 1.166 . S
O116 Zn101 1.905 . S
O116 C117 1.182 . S
C117 O115 1.166 . S
C117 O116 1.182 . S
O118 Zn103 2.080 . S
O118 C121 1.305 . S
O119 Zn102 1.920 . S
O119 C121 1.234 . S
C120 O106 1.305 . S
C120 O107 1.234 . S
C121 O118 1.305 . S
C121 O119 1.234 . S
H122 C134 0.930 . S
H123 C136 0.930 . S
H124 C137 0.930 . S
H125 C141 0.959 . S
H126 C141 0.959 . S
H127 C141 0.961 . S
H128 C142 0.960 . S
H129 C142 0.961 . S
H130 C142 0.959 . S
H131 C145 0.929 . S
H132 C146 0.931 . S
H133 C148 0.930 . S
C134 H122 0.930 . S
C134 C135 1.399 . S
C134 C139 1.399 . S
C135 C134 1.399 . S
C135 C136 1.376 . S
C136 H123 0.930 . S
C136 C135 1.376 . S
C136 C137 1.388 . S
C137 H124 0.930 . S
C137 C136 1.388 . S
C137 C138 1.390 . S
C138 C137 1.390 . S
C138 C139 1.394 . S
C138 C144 1.465 . S
C139 C134 1.399 . S
C139 C138 1.394 . S
C139 C140 1.516 . S
C140 C139 1.516 . S
C140 C141 1.502 . S
C140 C142 1.561 . S
C140 C143 1.526 . S
C141 H125 0.959 . S
C141 H126 0.959 . S
C141 H127 0.961 . S
C141 C140 1.502 . S
C142 H128 0.960 . S
C142 H129 0.961 . S
C142 H130 0.959 . S
C142 C140 1.561 . S
C143 C140 1.526 . S
C143 C144 1.396 . S
C143 C148 1.390 . S
C144 C138 1.465 . S
C144 C143 1.396 . S
C144 C145 1.399 . S
C145 H131 0.929 . S
C145 C144 1.399 . S
C145 C146 1.385 . S
C146 H132 0.931 . S
C146 C145 1.385 . S
C146 C147 1.389 . S
C147 C146 1.389 . S
C147 C148 1.387 . S
C148 H133 0.930 . S
C148 C143 1.390 . S
C148 C147 1.387 . S
H149 C161 0.930 . S
H150 C163 0.930 . S
H151 C164 0.930 . S
H152 C168 0.959 . S
H153 C168 0.959 . S
H154 C168 0.961 . S
H155 C169 0.959 1_565 S
H156 C169 0.961 . S
H157 C169 0.959 . S
H158 C172 0.929 . S
H159 C173 0.931 . S
H160 C175 0.930 . S
C161 H149 0.930 . S
C161 C162 1.399 . S
C161 C166 1.399 . S
C162 C161 1.399 . S
C162 C163 1.376 . S
C163 H150 0.930 . S
C163 C162 1.376 . S
C163 C164 1.388 . S
C164 H151 0.930 . S
C164 C163 1.388 . S
C164 C165 1.390 . S
C165 C164 1.390 . S
C165 C166 1.394 . S
C165 C171 1.465 . S
C166 C161 1.399 . S
C166 C165 1.394 . S
C166 C167 1.516 . S
C167 C166 1.516 . S
C167 C168 1.502 . S
C167 C169 1.561 . S
C167 C170 1.526 . S
C168 H152 0.959 . S
C168 H153 0.959 . S
C168 H154 0.961 . S
C168 C167 1.502 . S
C169 H155 0.959 1_545 S
C169 H156 0.961 . S
C169 H157 0.959 . S
C169 C167 1.561 . S
C170 C167 1.526 . S
C170 C171 1.396 . S
C170 C175 1.390 . S
C171 C165 1.465 . S
C171 C170 1.396 . S
C171 C172 1.399 . S
C172 H158 0.929 . S
C172 C171 1.399 . S
C172 C173 1.385 . S
C173 H159 0.931 . S
C173 C172 1.385 . S
C173 C174 1.389 . S
C174 C173 1.389 . S
C174 C175 1.387 . S
C175 H160 0.930 . S
C175 C170 1.390 . S
C175 C174 1.387 . S
H176 C188 0.930 . S
H177 C190 0.930 . S
H178 C191 0.930 . S
H179 C195 0.959 . S
H180 C195 0.959 . S
H181 C195 0.961 . S
H182 C196 0.960 . S
H183 C196 0.961 . S
H184 C196 0.959 . S
H185 C199 0.929 . S
H186 C200 0.931 . S
H187 C202 0.930 . S
C188 H176 0.930 . S
C188 C189 1.399 . S
C188 C193 1.399 . S
C189 C188 1.399 . S
C189 C190 1.376 . S
C190 H177 0.930 . S
C190 C189 1.376 . S
C190 C191 1.388 . S
C191 H178 0.930 . S
C191 C190 1.388 . S
C191 C192 1.390 . S
C192 C191 1.390 . S
C192 C193 1.394 . S
C192 C198 1.465 . S
C193 C188 1.399 . S
C193 C192 1.394 . S
C193 C194 1.516 . S
C194 C193 1.516 . S
C194 C195 1.502 . S
C194 C196 1.561 . S
C194 C197 1.526 . S
C195 H179 0.959 . S
C195 H180 0.959 . S
C195 H181 0.961 . S
C195 C194 1.502 . S
C196 H182 0.960 . S
C196 H183 0.961 . S
C196 H184 0.959 . S
C196 C194 1.561 . S
C197 C194 1.526 . S
C197 C198 1.396 . S
C197 C202 1.390 . S
C198 C192 1.465 . S
C198 C197 1.396 . S
C198 C199 1.399 . S
C199 H185 0.929 . S
C199 C198 1.399 . S
C199 C200 1.385 . S
C200 H186 0.931 . S
C200 C199 1.385 . S
C200 C201 1.389 . S
C201 C200 1.389 . S
C201 C202 1.387 . S
C202 H187 0.930 . S
C202 C197 1.390 . S
C202 C201 1.387 . S
H203 C215 0.930 . S
H204 C217 0.930 . S
H205 C218 0.930 . S
H206 C222 0.959 . S
H207 C222 0.959 . S
H208 C222 0.961 . S
H209 C223 0.960 . S
H210 C223 0.961 . S
H211 C223 0.959 . S
H212 C226 0.929 . S
H213 C227 0.931 . S
H214 C229 0.930 . S
C215 H203 0.930 . S
C215 C216 1.399 . S
C215 C220 1.399 . S
C216 C215 1.399 . S
C216 C217 1.376 . S
C217 H204 0.930 . S
C217 C216 1.376 . S
C217 C218 1.388 . S
C218 H205 0.930 . S
C218 C217 1.388 . S
C218 C219 1.390 . S
C219 C218 1.390 . S
C219 C220 1.394 . S
C219 C225 1.465 . S
C220 C215 1.399 . S
C220 C219 1.394 . S
C220 C221 1.516 . S
C221 C220 1.516 . S
C221 C222 1.502 . S
C221 C223 1.561 . S
C221 C224 1.526 . S
C222 H206 0.959 . S
C222 H207 0.959 . S
C222 H208 0.961 . S
C222 C221 1.502 . S
C223 H209 0.960 . S
C223 H210 0.961 . S
C223 H211 0.959 . S
C223 C221 1.561 . S
C224 C221 1.526 . S
C224 C225 1.396 . S
C224 C229 1.390 . S
C225 C219 1.465 . S
C225 C224 1.396 . S
C225 C226 1.399 . S
C226 H212 0.929 . S
C226 C225 1.399 . S
C226 C227 1.385 . S
C227 H213 0.931 . S
C227 C226 1.385 . S
C227 C228 1.389 . S
C228 C227 1.389 . S
C228 C229 1.387 . S
C229 H214 0.930 . S
C229 C224 1.390 . S
C229 C228 1.387 . S
H230 C242 0.930 . S
H231 C244 0.930 1_545 S
H232 C245 0.930 . S
H233 C249 0.959 . S
H234 C249 0.959 . S
H235 C249 0.961 . S
H236 C250 0.960 . S
H237 C250 0.961 . S
H238 C250 0.959 . S
H239 C253 0.929 . S
H240 C254 0.931 . S
H241 C256 0.930 . S
C242 H230 0.930 . S
C242 C243 1.399 . S
C242 C247 1.399 . S
C243 C242 1.399 . S
C243 C244 1.376 . S
C244 H231 0.930 1_565 S
C244 C243 1.376 . S
C244 C245 1.388 . S
C245 H232 0.930 . S
C245 C244 1.388 . S
C245 C246 1.390 . S
C246 C245 1.390 . S
C246 C247 1.394 . S
C246 C252 1.465 . S
C247 C242 1.399 . S
C247 C246 1.394 . S
C247 C248 1.516 . S
C248 C247 1.516 . S
C248 C249 1.502 . S
C248 C250 1.561 . S
C248 C251 1.526 . S
C249 H233 0.959 . S
C249 H234 0.959 . S
C249 H235 0.961 . S
C249 C248 1.502 . S
C250 H236 0.960 . S
C250 H237 0.961 . S
C250 H238 0.959 . S
C250 C248 1.561 . S
C251 C248 1.526 . S
C251 C252 1.396 . S
C251 C256 1.390 . S
C252 C246 1.465 . S
C252 C251 1.396 . S
C252 C253 1.399 . S
C253 H239 0.929 . S
C253 C252 1.399 . S
C253 C254 1.385 . S
C254 H240 0.931 . S
C254 C253 1.385 . S
C254 C255 1.389 . S
C255 C254 1.389 . S
C255 C256 1.387 . S
C256 H241 0.930 . S
C256 C251 1.390 . S
C256 C255 1.387 . S
H257 C269 0.930 . S
H258 C271 0.930 1_455 S
H259 C272 0.930 . S
H260 C276 0.959 . S
H261 C276 0.959 . S
H262 C276 0.961 . S
H263 C277 0.960 . S
H264 C277 0.961 . S
H265 C277 0.959 . S
H266 C280 0.929 . S
H267 C281 0.931 . S
H268 C283 0.930 . S
C269 H257 0.930 . S
C269 C270 1.399 . S
C269 C274 1.399 . S
C270 C269 1.399 . S
C270 C271 1.376 . S
C271 H258 0.930 1_655 S
C271 C270 1.376 . S
C271 C272 1.388 . S
C272 H259 0.930 . S
C272 C271 1.388 . S
C272 C273 1.390 . S
C273 C272 1.390 . S
C273 C274 1.394 . S
C273 C279 1.465 . S
C274 C269 1.399 . S
C274 C273 1.394 . S
C274 C275 1.516 . S
C275 C274 1.516 . S
C275 C276 1.502 . S
C275 C277 1.561 . S
C275 C278 1.526 . S
C276 H260 0.959 . S
C276 H261 0.959 . S
C276 H262 0.961 . S
C276 C275 1.502 . S
C277 H263 0.960 . S
C277 H264 0.961 . S
C277 H265 0.959 . S
C277 C275 1.561 . S
C278 C275 1.526 . S
C278 C279 1.396 . S
C278 C283 1.390 . S
C279 C273 1.465 . S
C279 C278 1.396 . S
C279 C280 1.399 . S
C280 H266 0.929 . S
C280 C279 1.399 . S
C280 C281 1.385 . S
C281 H267 0.931 . S
C281 C280 1.385 . S
C281 C282 1.389 . S
C282 C281 1.389 . S
C282 C283 1.387 . S
C283 H268 0.930 . S
C283 C278 1.390 . S
C283 C282 1.387 . S
H284 C296 0.930 . S
H285 C298 0.930 . S
H286 C299 0.930 . S
H287 C303 0.959 . S
H288 C303 0.959 . S
H289 C303 0.961 1_545 S
H290 C304 0.960 . S
H291 C304 0.961 . S
H292 C304 0.959 . S
H293 C307 0.929 . S
H294 C308 0.931 . S
H295 C310 0.930 . S
C296 H284 0.930 . S
C296 C297 1.399 . S
C296 C301 1.399 . S
C297 C296 1.399 . S
C297 C298 1.376 . S
C298 H285 0.930 . S
C298 C297 1.376 . S
C298 C299 1.388 . S
C299 H286 0.930 . S
C299 C298 1.388 . S
C299 C300 1.390 . S
C300 C299 1.390 . S
C300 C301 1.394 . S
C300 C306 1.465 . S
C301 C296 1.399 . S
C301 C300 1.394 . S
C301 C302 1.516 . S
C302 C301 1.516 . S
C302 C303 1.502 . S
C302 C304 1.561 . S
C302 C305 1.526 . S
C303 H287 0.959 . S
C303 H288 0.959 . S
C303 H289 0.961 1_565 S
C303 C302 1.502 . S
C304 H290 0.960 . S
C304 H291 0.961 . S
C304 H292 0.959 . S
C304 C302 1.561 . S
C305 C302 1.526 . S
C305 C306 1.396 . S
C305 C310 1.390 . S
C306 C300 1.465 . S
C306 C305 1.396 . S
C306 C307 1.399 . S
C307 H293 0.929 . S
C307 C306 1.399 . S
C307 C308 1.385 . S
C308 H294 0.931 . S
C308 C307 1.385 . S
C308 C309 1.389 . S
C309 C308 1.389 . S
C309 C310 1.387 . S
C310 H295 0.930 . S
C310 C305 1.390 . S
C310 C309 1.387 . S
H311 C323 0.930 . S
H312 C325 0.930 . S
H313 C326 0.930 . S
H314 C330 0.959 . S
H315 C330 0.959 . S
H316 C330 0.961 . S
H317 C331 0.960 . S
H318 C331 0.961 . S
H319 C331 0.959 . S
H320 C334 0.929 . S
H321 C335 0.931 . S
H322 C337 0.930 . S
C323 H311 0.930 . S
C323 C324 1.399 . S
C323 C328 1.399 . S
C324 C323 1.399 . S
C324 C325 1.376 . S
C325 H312 0.930 . S
C325 C324 1.376 . S
C325 C326 1.388 . S
C326 H313 0.930 . S
C326 C325 1.388 . S
C326 C327 1.390 . S
C327 C326 1.390 . S
C327 C328 1.394 . S
C327 C333 1.465 . S
C328 C323 1.399 . S
C328 C327 1.394 . S
C328 C329 1.516 . S
C329 C328 1.516 . S
C329 C330 1.502 . S
C329 C331 1.561 . S
C329 C332 1.526 . S
C330 H314 0.959 . S
C330 H315 0.959 . S
C330 H316 0.961 . S
C330 C329 1.502 . S
C331 H317 0.960 . S
C331 H318 0.961 . S
C331 H319 0.959 . S
C331 C329 1.561 . S
C332 C329 1.526 . S
C332 C333 1.396 . S
C332 C337 1.390 . S
C333 C327 1.465 . S
C333 C332 1.396 . S
C333 C334 1.399 . S
C334 H320 0.929 . S
C334 C333 1.399 . S
C334 C335 1.385 . S
C335 H321 0.931 . S
C335 C334 1.385 . S
C335 C336 1.389 . S
C336 C335 1.389 . S
C336 C337 1.387 . S
C337 H322 0.930 . S
C337 C332 1.390 . S
C337 C336 1.387 . S
H338 C350 0.930 . S
H339 C352 0.930 . S
H340 C353 0.930 . S
H341 C357 0.959 . S
H342 C357 0.959 . S
H343 C357 0.961 . S
H344 C358 0.960 . S
H345 C358 0.961 . S
H346 C358 0.959 . S
H347 C361 0.929 . S
H348 C362 0.931 . S
H349 C364 0.930 . S
C350 H338 0.930 . S
C350 C351 1.399 . S
C350 C355 1.399 . S
C351 C350 1.399 . S
C351 C352 1.376 . S
C352 H339 0.930 . S
C352 C351 1.376 . S
C352 C353 1.388 . S
C353 H340 0.930 . S
C353 C352 1.388 . S
C353 C354 1.390 . S
C354 C353 1.390 . S
C354 C355 1.394 . S
C354 C360 1.465 . S
C355 C350 1.399 . S
C355 C354 1.394 . S
C355 C356 1.516 . S
C356 C355 1.516 . S
C356 C357 1.502 . S
C356 C358 1.561 . S
C356 C359 1.526 . S
C357 H341 0.959 . S
C357 H342 0.959 . S
C357 H343 0.961 . S
C357 C356 1.502 . S
C358 H344 0.960 . S
C358 H345 0.961 . S
C358 H346 0.959 . S
C358 C356 1.561 . S
C359 C356 1.526 . S
C359 C360 1.396 . S
C359 C364 1.390 . S
C360 C354 1.465 . S
C360 C359 1.396 . S
C360 C361 1.399 . S
C361 H347 0.929 . S
C361 C360 1.399 . S
C361 C362 1.385 . S
C362 H348 0.931 . S
C362 C361 1.385 . S
C362 C363 1.389 . S
C363 C362 1.389 . S
C363 C364 1.387 . S
C364 H349 0.930 . S
C364 C359 1.390 . S
C364 C363 1.387 . S
H365 C377 0.930 . S
H366 C379 0.930 . S
H367 C380 0.930 . S
H368 C384 0.959 . S
H369 C384 0.959 . S
H370 C384 0.961 . S
H371 C385 0.960 . S
H372 C385 0.961 . S
H373 C385 0.959 . S
H374 C388 0.929 . S
H375 C389 0.931 . S
H376 C391 0.930 . S
C377 H365 0.930 . S
C377 C378 1.399 . S
C377 C382 1.399 . S
C378 C377 1.399 . S
C378 C379 1.376 . S
C379 H366 0.930 . S
C379 C378 1.376 . S
C379 C380 1.388 . S
C380 H367 0.930 . S
C380 C379 1.388 . S
C380 C381 1.390 . S
C381 C380 1.390 . S
C381 C382 1.394 . S
C381 C387 1.465 . S
C382 C377 1.399 . S
C382 C381 1.394 . S
C382 C383 1.516 . S
C383 C382 1.516 . S
C383 C384 1.502 . S
C383 C385 1.561 . S
C383 C386 1.526 . S
C384 H368 0.959 . S
C384 H369 0.959 . S
C384 H370 0.961 . S
C384 C383 1.502 . S
C385 H371 0.960 . S
C385 H372 0.961 . S
C385 H373 0.959 . S
C385 C383 1.561 . S
C386 C383 1.526 . S
C386 C387 1.396 . S
C386 C391 1.390 . S
C387 C381 1.465 . S
C387 C386 1.396 . S
C387 C388 1.399 . S
C388 H374 0.929 . S
C388 C387 1.399 . S
C388 C389 1.385 . S
C389 H375 0.931 . S
C389 C388 1.385 . S
C389 C390 1.389 . S
C390 C389 1.389 . S
C390 C391 1.387 . S
C391 H376 0.930 . S
C391 C386 1.390 . S
C391 C390 1.387 . S
H392 C404 0.930 . S
H393 C406 0.930 1_545 S
H394 C407 0.930 . S
H395 C411 0.959 . S
H396 C411 0.959 . S
H397 C411 0.961 . S
H398 C412 0.960 . S
H399 C412 0.961 . S
H400 C412 0.959 . S
H401 C415 0.929 . S
H402 C416 0.931 . S
H403 C418 0.930 . S
C404 H392 0.930 . S
C404 C405 1.399 . S
C404 C409 1.399 . S
C405 C404 1.399 . S
C405 C406 1.376 . S
C406 H393 0.930 1_565 S
C406 C405 1.376 . S
C406 C407 1.388 . S
C407 H394 0.930 . S
C407 C406 1.388 . S
C407 C408 1.390 . S
C408 C407 1.390 . S
C408 C409 1.394 . S
C408 C414 1.465 . S
C409 C404 1.399 . S
C409 C408 1.394 . S
C409 C410 1.516 . S
C410 C409 1.516 . S
C410 C411 1.502 . S
C410 C412 1.561 . S
C410 C413 1.526 . S
C411 H395 0.959 . S
C411 H396 0.959 . S
C411 H397 0.961 . S
C411 C410 1.502 . S
C412 H398 0.960 . S
C412 H399 0.961 . S
C412 H400 0.959 . S
C412 C410 1.561 . S
C413 C410 1.526 . S
C413 C414 1.396 . S
C413 C418 1.390 . S
C414 C408 1.465 . S
C414 C413 1.396 . S
C414 C415 1.399 . S
C415 H401 0.929 . S
C415 C414 1.399 . S
C415 C416 1.385 . S
C416 H402 0.931 . S
C416 C415 1.385 . S
C416 C417 1.389 . S
C417 C416 1.389 . S
C417 C418 1.387 . S
C418 H403 0.930 . S
C418 C413 1.390 . S
C418 C417 1.387 . S
H419 C431 0.930 1_455 S
H420 C433 0.930 . S
H421 C434 0.930 . S
H422 C438 0.959 . S
H423 C438 0.959 1_455 S
H424 C438 0.961 1_455 S
H425 C439 0.960 1_455 S
H426 C439 0.961 . S
H427 C439 0.959 . S
H428 C442 0.929 . S
H429 C443 0.931 . S
H430 C445 0.930 . S
C431 H419 0.930 1_655 S
C431 C432 1.399 . S
C431 C436 1.399 . S
C432 C431 1.399 . S
C432 C433 1.376 . S
C433 H420 0.930 . S
C433 C432 1.376 . S
C433 C434 1.388 . S
C434 H421 0.930 . S
C434 C433 1.388 . S
C434 C435 1.390 . S
C435 C434 1.390 . S
C435 C436 1.394 . S
C435 C441 1.465 . S
C436 C431 1.399 . S
C436 C435 1.394 . S
C436 C437 1.516 . S
C437 C436 1.516 . S
C437 C438 1.502 . S
C437 C439 1.561 . S
C437 C440 1.526 . S
C438 H422 0.959 . S
C438 H423 0.959 1_655 S
C438 H424 0.961 1_655 S
C438 C437 1.502 . S
C439 H425 0.960 1_655 S
C439 H426 0.961 . S
C439 H427 0.959 . S
C439 C437 1.561 . S
C440 C437 1.526 . S
C440 C441 1.396 . S
C440 C445 1.390 . S
C441 C435 1.465 . S
C441 C440 1.396 . S
C441 C442 1.399 . S
C442 H428 0.929 . S
C442 C441 1.399 . S
C442 C443 1.385 . S
C443 H429 0.931 . S
C443 C442 1.385 . S
C443 C444 1.389 . S
C444 C443 1.389 . S
C444 C445 1.387 . S
C445 H430 0.930 . S
C445 C440 1.390 . S
C445 C444 1.387 . S
C135 C17 1.337 . S
C147 C99 1.268 . S
C162 C64 1.354 . S
C174 C105 1.135 . S
C189 C13 1.450 . S
C201 C96 1.363 . S
C216 C66 1.410 . S
C228 C121 1.281 . S
C243 C23 1.766 . S
C255 C87 1.663 . S
C282 C104 1.698 . S
C270 C42 1.856 . S
C297 C57 1.316 . S
C309 C100 1.215 . S
C336 C117 1.709 . S
C324 C2 1.810 . S
C363 C84 1.632 . S
C351 C63 1.763 . S
C390 C120 1.278 . S
C378 C26 1.360 . S
C417 C83 1.307 . S
C405 C53 1.463 . S
C444 C108 1.146 . S
C432 C24 1.352 . S
