# Generated by pormake.
# Topology cor, (4,6)-cn, num edge types: 1
# Building blocks:
#     Node 0, Type 0, BuildingBlock: TATPOV_clean_sbu_0, # of connection points: 4
#     Node 1, Type 0, BuildingBlock: TATPOV_clean_sbu_0, # of connection points: 4
#     Node 2, Type 0, BuildingBlock: TATPOV_clean_sbu_0, # of connection points: 4
#     Node 3, Type 0, BuildingBlock: TATPOV_clean_sbu_0, # of connection points: 4
#     Node 4, Type 0, BuildingBlock: TATPOV_clean_sbu_0, # of connection points: 4
#     Node 5, Type 0, BuildingBlock: TATPOV_clean_sbu_0, # of connection points: 4
#     Node 6, Type 0, BuildingBlock: TATPOV_clean_sbu_0, # of connection points: 4
#     Node 7, Type 0, BuildingBlock: TATPOV_clean_sbu_0, # of connection points: 4
#     Node 8, Type 0, BuildingBlock: TATPOV_clean_sbu_0, # of connection points: 4
#     Node 9, Type 0, BuildingBlock: TATPOV_clean_sbu_0, # of connection points: 4
#     Node 10, Type 0, BuildingBlock: TATPOV_clean_sbu_0, # of connection points: 4
#     Node 11, Type 0, BuildingBlock: TATPOV_clean_sbu_0, # of connection points: 4
#     Node 12, Type 0, BuildingBlock: TATPOV_clean_sbu_0, # of connection points: 4
#     Node 13, Type 0, BuildingBlock: TATPOV_clean_sbu_0, # of connection points: 4
#     Node 14, Type 0, BuildingBlock: TATPOV_clean_sbu_0, # of connection points: 4
#     Node 15, Type 0, BuildingBlock: TATPOV_clean_sbu_0, # of connection points: 4
#     Node 16, Type 0, BuildingBlock: TATPOV_clean_sbu_0, # of connection points: 4
#     Node 17, Type 0, BuildingBlock: TATPOV_clean_sbu_0, # of connection points: 4
#     Node 18, Type 1, BuildingBlock: MIDCAF_clean_sbu_0, # of connection points: 6
#     Node 19, Type 1, BuildingBlock: MIDCAF_clean_sbu_0, # of connection points: 6
#     Node 20, Type 1, BuildingBlock: MIDCAF_clean_sbu_0, # of connection points: 6
#     Node 21, Type 1, BuildingBlock: MIDCAF_clean_sbu_0, # of connection points: 6
#     Node 22, Type 1, BuildingBlock: MIDCAF_clean_sbu_0, # of connection points: 6
#     Node 23, Type 1, BuildingBlock: MIDCAF_clean_sbu_0, # of connection points: 6
#     Node 24, Type 1, BuildingBlock: MIDCAF_clean_sbu_0, # of connection points: 6
#     Node 25, Type 1, BuildingBlock: MIDCAF_clean_sbu_0, # of connection points: 6
#     Node 26, Type 1, BuildingBlock: MIDCAF_clean_sbu_0, # of connection points: 6
#     Node 27, Type 1, BuildingBlock: MIDCAF_clean_sbu_0, # of connection points: 6
#     Node 28, Type 1, BuildingBlock: MIDCAF_clean_sbu_0, # of connection points: 6
#     Node 29, Type 1, BuildingBlock: MIDCAF_clean_sbu_0, # of connection points: 6
#     Edge 30, Type (0, 1), BuildingBlock: ZUJKAS_clean_linker_0, # of connection points: 2
#     Edge 31, Type (0, 1), BuildingBlock: ZUJKAS_clean_linker_0, # of connection points: 2
#     Edge 32, Type (0, 1), BuildingBlock: ZUJKAS_clean_linker_0, # of connection points: 2
#     Edge 33, Type (0, 1), BuildingBlock: ZUJKAS_clean_linker_0, # of connection points: 2
#     Edge 34, Type (0, 1), BuildingBlock: ZUJKAS_clean_linker_0, # of connection points: 2
#     Edge 35, Type (0, 1), BuildingBlock: ZUJKAS_clean_linker_0, # of connection points: 2
#     Edge 36, Type (0, 1), BuildingBlock: ZUJKAS_clean_linker_0, # of connection points: 2
#     Edge 37, Type (0, 1), BuildingBlock: ZUJKAS_clean_linker_0, # of connection points: 2
#     Edge 38, Type (0, 1), BuildingBlock: ZUJKAS_clean_linker_0, # of connection points: 2
#     Edge 39, Type (0, 1), BuildingBlock: ZUJKAS_clean_linker_0, # of connection points: 2
#     Edge 40, Type (0, 1), BuildingBlock: ZUJKAS_clean_linker_0, # of connection points: 2
#     Edge 41, Type (0, 1), BuildingBlock: ZUJKAS_clean_linker_0, # of connection points: 2
#     Edge 42, Type (0, 1), BuildingBlock: ZUJKAS_clean_linker_0, # of connection points: 2
#     Edge 43, Type (0, 1), BuildingBlock: ZUJKAS_clean_linker_0, # of connection points: 2
#     Edge 44, Type (0, 1), BuildingBlock: ZUJKAS_clean_linker_0, # of connection points: 2
#     Edge 45, Type (0, 1), BuildingBlock: ZUJKAS_clean_linker_0, # of connection points: 2
#     Edge 46, Type (0, 1), BuildingBlock: ZUJKAS_clean_linker_0, # of connection points: 2
#     Edge 47, Type (0, 1), BuildingBlock: ZUJKAS_clean_linker_0, # of connection points: 2
#     Edge 48, Type (0, 1), BuildingBlock: ZUJKAS_clean_linker_0, # of connection points: 2
#     Edge 49, Type (0, 1), BuildingBlock: ZUJKAS_clean_linker_0, # of connection points: 2
#     Edge 50, Type (0, 1), BuildingBlock: ZUJKAS_clean_linker_0, # of connection points: 2
#     Edge 51, Type (0, 1), BuildingBlock: ZUJKAS_clean_linker_0, # of connection points: 2
#     Edge 52, Type (0, 1), BuildingBlock: ZUJKAS_clean_linker_0, # of connection points: 2
#     Edge 53, Type (0, 1), BuildingBlock: ZUJKAS_clean_linker_0, # of connection points: 2
#     Edge 54, Type (0, 1), BuildingBlock: ZUJKAS_clean_linker_0, # of connection points: 2
#     Edge 55, Type (0, 1), BuildingBlock: ZUJKAS_clean_linker_0, # of connection points: 2
#     Edge 56, Type (0, 1), BuildingBlock: ZUJKAS_clean_linker_0, # of connection points: 2
#     Edge 57, Type (0, 1), BuildingBlock: ZUJKAS_clean_linker_0, # of connection points: 2
#     Edge 58, Type (0, 1), BuildingBlock: ZUJKAS_clean_linker_0, # of connection points: 2
#     Edge 59, Type (0, 1), BuildingBlock: ZUJKAS_clean_linker_0, # of connection points: 2
#     Edge 60, Type (0, 1), BuildingBlock: ZUJKAS_clean_linker_0, # of connection points: 2
#     Edge 61, Type (0, 1), BuildingBlock: ZUJKAS_clean_linker_0, # of connection points: 2
#     Edge 62, Type (0, 1), BuildingBlock: ZUJKAS_clean_linker_0, # of connection points: 2
#     Edge 63, Type (0, 1), BuildingBlock: ZUJKAS_clean_linker_0, # of connection points: 2
#     Edge 64, Type (0, 1), BuildingBlock: ZUJKAS_clean_linker_0, # of connection points: 2
#     Edge 65, Type (0, 1), BuildingBlock: ZUJKAS_clean_linker_0, # of connection points: 2
#     Edge 66, Type (0, 1), BuildingBlock: ZUJKAS_clean_linker_0, # of connection points: 2
#     Edge 67, Type (0, 1), BuildingBlock: ZUJKAS_clean_linker_0, # of connection points: 2
#     Edge 68, Type (0, 1), BuildingBlock: ZUJKAS_clean_linker_0, # of connection points: 2
#     Edge 69, Type (0, 1), BuildingBlock: ZUJKAS_clean_linker_0, # of connection points: 2
#     Edge 70, Type (0, 1), BuildingBlock: ZUJKAS_clean_linker_0, # of connection points: 2
#     Edge 71, Type (0, 1), BuildingBlock: ZUJKAS_clean_linker_0, # of connection points: 2
#     Edge 72, Type (0, 1), BuildingBlock: ZUJKAS_clean_linker_0, # of connection points: 2
#     Edge 73, Type (0, 1), BuildingBlock: ZUJKAS_clean_linker_0, # of connection points: 2
#     Edge 74, Type (0, 1), BuildingBlock: ZUJKAS_clean_linker_0, # of connection points: 2
#     Edge 75, Type (0, 1), BuildingBlock: ZUJKAS_clean_linker_0, # of connection points: 2
#     Edge 76, Type (0, 1), BuildingBlock: ZUJKAS_clean_linker_0, # of connection points: 2
#     Edge 77, Type (0, 1), BuildingBlock: ZUJKAS_clean_linker_0, # of connection points: 2
#     Edge 78, Type (0, 1), BuildingBlock: ZUJKAS_clean_linker_0, # of connection points: 2
#     Edge 79, Type (0, 1), BuildingBlock: ZUJKAS_clean_linker_0, # of connection points: 2
#     Edge 80, Type (0, 1), BuildingBlock: ZUJKAS_clean_linker_0, # of connection points: 2
#     Edge 81, Type (0, 1), BuildingBlock: ZUJKAS_clean_linker_0, # of connection points: 2
#     Edge 82, Type (0, 1), BuildingBlock: ZUJKAS_clean_linker_0, # of connection points: 2
#     Edge 83, Type (0, 1), BuildingBlock: ZUJKAS_clean_linker_0, # of connection points: 2
#     Edge 84, Type (0, 1), BuildingBlock: ZUJKAS_clean_linker_0, # of connection points: 2
#     Edge 85, Type (0, 1), BuildingBlock: ZUJKAS_clean_linker_0, # of connection points: 2
#     Edge 86, Type (0, 1), BuildingBlock: ZUJKAS_clean_linker_0, # of connection points: 2
#     Edge 87, Type (0, 1), BuildingBlock: ZUJKAS_clean_linker_0, # of connection points: 2
#     Edge 88, Type (0, 1), BuildingBlock: ZUJKAS_clean_linker_0, # of connection points: 2
#     Edge 89, Type (0, 1), BuildingBlock: ZUJKAS_clean_linker_0, # of connection points: 2
#     Edge 90, Type (0, 1), BuildingBlock: ZUJKAS_clean_linker_0, # of connection points: 2
#     Edge 91, Type (0, 1), BuildingBlock: ZUJKAS_clean_linker_0, # of connection points: 2
#     Edge 92, Type (0, 1), BuildingBlock: ZUJKAS_clean_linker_0, # of connection points: 2
#     Edge 93, Type (0, 1), BuildingBlock: ZUJKAS_clean_linker_0, # of connection points: 2
#     Edge 94, Type (0, 1), BuildingBlock: ZUJKAS_clean_linker_0, # of connection points: 2
#     Edge 95, Type (0, 1), BuildingBlock: ZUJKAS_clean_linker_0, # of connection points: 2
#     Edge 96, Type (0, 1), BuildingBlock: ZUJKAS_clean_linker_0, # of connection points: 2
#     Edge 97, Type (0, 1), BuildingBlock: ZUJKAS_clean_linker_0, # of connection points: 2
#     Edge 98, Type (0, 1), BuildingBlock: ZUJKAS_clean_linker_0, # of connection points: 2
#     Edge 99, Type (0, 1), BuildingBlock: ZUJKAS_clean_linker_0, # of connection points: 2
#     Edge 100, Type (0, 1), BuildingBlock: ZUJKAS_clean_linker_0, # of connection points: 2
#     Edge 101, Type (0, 1), BuildingBlock: ZUJKAS_clean_linker_0, # of connection points: 2
# Relax obj value: 0.150
# Max RMSD: 0.187
# Mean RMSD: 0.170
data_MOF--net-cor--node1-TATPOV_clean_sbu_0--node2-MIDCAF_clean_sbu_0--edge1-ZUJKAS_clean_linker_0
_symmetry_space_group_name_H-M    P1
_symmetry_Int_Tables_number       1
_symmetry_cell_setting            triclinic
loop_
_symmetry_equiv_pos_as_xyz
'x, y, z'
_cell_length_a     49.439051
_cell_length_b     49.667946
_cell_length_c     127.57887
_cell_angle_alpha  89.705401
_cell_angle_beta   90.697636
_cell_angle_gamma 120.7919
loop_
_atom_site_label
_atom_site_type_symbol
_atom_site_fract_x
_atom_site_fract_y
_atom_site_fract_z
_atom_type_partial_charge
Zn0 Zn 0.74349 0.94801 0.25501 0.0
Zn1 Zn 0.74234 0.00147 0.2571 0.0
O2 O 0.6978 0.96602 0.25997 0.0
O3 O 0.6959 0.92156 0.25696 0.0
O4 O 0.73409 0.03691 0.2561 0.0
O5 O 0.76248 0.96099 0.24051 0.0
O6 O 0.76036 0.00383 0.24242 0.0
C7 C 0.68231 0.93627 0.25956 0.0
C8 C 0.78043 0.98919 0.27291 0.0
O9 O 0.7717 0.00795 0.26964 0.0
O10 O 0.77179 0.96376 0.26803 0.0
C11 C 0.75362 0.06493 0.25345 0.0
O12 O 0.7836 0.07412 0.25265 0.0
C13 C 0.76713 0.98682 0.23692 0.0
Zn14 Zn 0.94351 0.74102 0.2611 0.0
Zn15 Zn 0.00179 0.75029 0.25816 0.0
O16 O 0.9712 0.7035 0.25582 0.0
O17 O 0.92345 0.69388 0.25892 0.0
O18 O 0.04317 0.75152 0.25882 0.0
O19 O 0.95557 0.76086 0.27566 0.0
O20 O 0.00301 0.7697 0.27252 0.0
C21 C 0.9417 0.68428 0.25626 0.0
C22 C 0.97831 0.77943 0.24253 0.0
O23 O 0.00065 0.77512 0.2454 0.0
O24 O 0.95345 0.76832 0.24795 0.0
C25 C 0.04823 0.73313 0.25342 0.0
O26 O 0.02836 0.7167 0.24586 0.0
C27 C 0.98398 0.77213 0.27853 0.0
Zn28 Zn 0.31195 0.23377 0.25899 0.0
Zn29 Zn 0.30943 0.28659 0.25661 0.0
O30 O 0.35566 0.30129 0.25402 0.0
O31 O 0.35896 0.2591 0.25623 0.0
O32 O 0.30893 0.32673 0.2575 0.0
O33 O 0.29489 0.22696 0.27381 0.0
O34 O 0.29186 0.26904 0.27116 0.0
C35 C 0.37183 0.28796 0.254 0.0
C36 C 0.27398 0.23389 0.241 0.0
O37 O 0.28206 0.2615 0.24401 0.0
O38 O 0.28264 0.21771 0.24621 0.0
C39 C 0.32964 0.35283 0.25367 0.0
O40 O 0.35122 0.35386 0.24749 0.0
C41 C 0.28767 0.2465 0.27706 0.0
Zn42 Zn 0.27307 0.08267 0.75471 0.0
Zn43 Zn 0.27861 0.0322 0.75198 0.0
O44 O 0.32408 0.06804 0.74925 0.0
O45 O 0.31972 0.10944 0.75196 0.0
O46 O 0.2789 0.99167 0.7524 0.0
O47 O 0.25672 0.07066 0.76946 0.0
O48 O 0.26122 0.02952 0.76681 0.0
C49 C 0.33633 0.09773 0.74951 0.0
C50 C 0.23806 0.04459 0.73671 0.0
O51 O 0.24975 0.02792 0.73949 0.0
O52 O 0.24349 0.0682 0.74213 0.0
C53 C 0.30285 0.99006 0.75514 0.0
O54 O 0.33008 0.01603 0.75649 0.0
C55 C 0.25384 0.04525 0.77274 0.0
Zn56 Zn 0.07404 0.24919 0.75352 0.0
Zn57 Zn 0.02968 0.26511 0.75409 0.0
O58 O 0.06988 0.30797 0.75591 0.0
O59 O 0.10654 0.29523 0.75604 0.0
O60 O 0.99467 0.27454 0.75226 0.0
O61 O 0.06144 0.23074 0.73893 0.0
O62 O 0.02448 0.24263 0.74 0.0
C63 C 0.0987 0.31578 0.75684 0.0
C64 C 0.03234 0.22317 0.77127 0.0
O65 O 0.02061 0.23915 0.76774 0.0
O66 O 0.0538 0.22214 0.76627 0.0
C67 C 0.99578 0.28889 0.74383 0.0
O68 O 0.02028 0.2986 0.73773 0.0
C69 C 0.03795 0.23085 0.73492 0.0
Zn70 Zn 0.73853 0.79573 0.75241 0.0
Zn71 Zn 0.73214 0.73986 0.75507 0.0
O72 O 0.68772 0.73093 0.759 0.0
O73 O 0.6926 0.77678 0.75562 0.0
O74 O 0.72971 0.69791 0.75434 0.0
O75 O 0.75311 0.80125 0.73753 0.0
O76 O 0.74785 0.75505 0.73995 0.0
C77 C 0.6761 0.74872 0.75874 0.0
C78 C 0.77479 0.7928 0.77003 0.0
O79 O 0.76281 0.76425 0.76724 0.0
O80 O 0.76905 0.811 0.76472 0.0
C81 C 0.75502 0.69912 0.75164 0.0
O82 O 0.78077 0.72671 0.75074 0.0
C83 C 0.75499 0.77849 0.73405 0.0
Zn84 Zn 0.41515 0.26395 0.58957 0.0
Zn85 Zn 0.40332 0.31018 0.59199 0.0
O86 O 0.35956 0.27141 0.59463 0.0
O87 O 0.37013 0.23344 0.59351 0.0
O88 O 0.39664 0.34693 0.5917 0.0
O89 O 0.42811 0.27511 0.57443 0.0
O90 O 0.42196 0.31521 0.57723 0.0
C91 C 0.3509 0.24248 0.59536 0.0
C92 C 0.448 0.30427 0.60728 0.0
O93 O 0.43273 0.3176 0.60462 0.0
O94 O 0.44623 0.2824 0.60167 0.0
C95 C 0.37803 0.34625 0.58459 0.0
O96 O 0.36236 0.32086 0.57883 0.0
C97 C 0.42978 0.30004 0.5712 0.0
Zn98 Zn 0.60154 0.08164 0.59149 0.0
Zn99 Zn 0.6566 0.08502 0.58841 0.0
O100 O 0.62378 0.03946 0.58455 0.0
O101 O 0.57818 0.03517 0.58786 0.0
O102 O 0.69716 0.08445 0.58879 0.0
O103 O 0.61275 0.09824 0.60638 0.0
O104 O 0.65757 0.10051 0.60353 0.0
C105 C 0.5938 0.02314 0.58461 0.0
C106 C 0.63848 0.12208 0.57398 0.0
O107 O 0.65874 0.11438 0.57645 0.0
O108 O 0.61364 0.11198 0.57932 0.0
C109 C 0.72178 0.10669 0.59312 0.0
O110 O 0.72188 0.13213 0.59596 0.0
C111 C 0.6398 0.10483 0.60957 0.0
Zn112 Zn 0.94817 0.55499 0.59004 0.0
Zn113 Zn 0.95653 0.61227 0.58892 0.0
O114 O 0.0014 0.62186 0.58586 0.0
O115 O 0.99497 0.5748 0.58779 0.0
O116 O 0.95861 0.65388 0.58986 0.0
O117 O 0.92979 0.54654 0.60448 0.0
O118 O 0.93874 0.5946 0.60365 0.0
C119 C 0.01252 0.60367 0.5857 0.0
C120 C 0.91626 0.5629 0.57233 0.0
O121 O 0.92816 0.59058 0.576 0.0
O122 O 0.92041 0.54289 0.57713 0.0
C123 C 0.97055 0.67006 0.59814 0.0
O124 O 0.98392 0.66073 0.60507 0.0
C125 C 0.9291 0.56916 0.60871 0.0
Zn126 Zn 0.96714 0.43361 0.0891 0.0
Zn127 Zn 0.96367 0.37944 0.09046 0.0
O128 O 0.00912 0.40782 0.08494 0.0
O129 O 0.01259 0.45385 0.08537 0.0
O130 O 0.95862 0.33707 0.09415 0.0
O131 O 0.95497 0.43542 0.1037 0.0
O132 O 0.95409 0.39091 0.10521 0.0
C133 C 0.02489 0.43744 0.08354 0.0
C134 C 0.92364 0.38942 0.07406 0.0
O135 O 0.9318 0.37117 0.07825 0.0
O136 O 0.9349 0.41699 0.07754 0.0
C137 C 0.97938 0.32933 0.09328 0.0
O138 O 0.00628 0.34886 0.08882 0.0
C139 C 0.95114 0.4127 0.10929 0.0
Zn140 Zn 0.73107 0.59022 0.09229 0.0
Zn141 Zn 0.68382 0.60165 0.09129 0.0
O142 O 0.72217 0.6446 0.0954 0.0
O143 O 0.76155 0.63586 0.09585 0.0
O144 O 0.6493 0.61094 0.08835 0.0
O145 O 0.72391 0.57413 0.07735 0.0
O146 O 0.68408 0.58199 0.07707 0.0
C147 C 0.75128 0.65437 0.09701 0.0
C148 C 0.68158 0.55675 0.10789 0.0
O149 O 0.66896 0.57119 0.10377 0.0
O150 O 0.70703 0.56045 0.10423 0.0
C151 C 0.62316 0.58902 0.08474 0.0
O152 O 0.61871 0.56065 0.08399 0.0
C153 C 0.70055 0.57252 0.07255 0.0
Zn154 Zn 0.42861 0.14087 0.09518 0.0
Zn155 Zn 0.41169 0.08052 0.09427 0.0
O156 O 0.36997 0.0774 0.09897 0.0
O157 O 0.38451 0.12737 0.09953 0.0
O158 O 0.40207 0.03634 0.09147 0.0
O159 O 0.44076 0.14891 0.07997 0.0
O160 O 0.42875 0.09982 0.07968 0.0
C161 C 0.36358 0.09884 0.10077 0.0
C162 C 0.46261 0.12402 0.10995 0.0
O163 O 0.44518 0.09662 0.10613 0.0
O164 O 0.46051 0.14677 0.10639 0.0
C165 C 0.38873 0.02361 0.0828 0.0
O166 O 0.37821 0.03783 0.07675 0.0
C167 C 0.43879 0.12594 0.07503 0.0
Zn168 Zn 0.07143 0.60122 0.91413 0.0
Zn169 Zn 0.06874 0.6528 0.91771 0.0
O170 O 0.02418 0.61771 0.92189 0.0
O171 O 0.02582 0.57521 0.9183 0.0
O172 O 0.06767 0.69293 0.91778 0.0
O173 O 0.08351 0.61162 0.89897 0.0
O174 O 0.08281 0.6545 0.9024 0.0
C175 C 0.01102 0.58791 0.92171 0.0
C176 C 0.11187 0.64018 0.93134 0.0
O177 O 0.10029 0.65737 0.9292 0.0
O178 O 0.1044 0.61614 0.92581 0.0
C179 C 0.09267 0.71769 0.91495 0.0
O180 O 0.11817 0.71633 0.91337 0.0
C181 C 0.0874 0.63769 0.896 0.0
Zn182 Zn 0.29592 0.43791 0.92057 0.0
Zn183 Zn 0.34397 0.42778 0.91972 0.0
O184 O 0.30511 0.38369 0.91743 0.0
O185 O 0.26528 0.39156 0.91854 0.0
O186 O 0.38009 0.42007 0.92193 0.0
O187 O 0.3076 0.45742 0.93499 0.0
O188 O 0.34812 0.45096 0.93364 0.0
C189 C 0.27556 0.3732 0.91704 0.0
C190 C 0.33771 0.467 0.90264 0.0
O191 O 0.35252 0.45408 0.90625 0.0
O192 O 0.31432 0.46447 0.90753 0.0
C193 C 0.37801 0.40536 0.93037 0.0
O194 O 0.35249 0.39487 0.93602 0.0
C195 C 0.3329 0.46073 0.93878 0.0
Zn196 Zn 0.60987 0.88143 0.92625 0.0
Zn197 Zn 0.62574 0.94123 0.92452 0.0
O198 O 0.668 0.94507 0.92073 0.0
O199 O 0.65483 0.89562 0.9224 0.0
O200 O 0.63277 0.985 0.92553 0.0
O201 O 0.59662 0.87753 0.94128 0.0
O202 O 0.60997 0.9268 0.93964 0.0
C203 C 0.67507 0.92374 0.92014 0.0
C204 C 0.57722 0.89175 0.90936 0.0
O205 O 0.59418 0.92029 0.91223 0.0
O206 O 0.57831 0.87034 0.91445 0.0
C207 C 0.608 0.98571 0.92759 0.0
O208 O 0.58087 0.95916 0.92771 0.0
C209 C 0.59939 0.90215 0.94521 0.0
Zn210 Zn 0.59881 0.75694 0.40956 0.0
Zn211 Zn 0.61096 0.71205 0.41499 0.0
O212 O 0.6545 0.74622 0.40934 0.0
O213 O 0.64388 0.7828 0.40486 0.0
O214 O 0.61633 0.67751 0.42131 0.0
O215 O 0.58714 0.76222 0.42413 0.0
O216 O 0.59568 0.72419 0.42825 0.0
C217 C 0.6632 0.77325 0.40551 0.0
C218 C 0.56178 0.69935 0.39786 0.0
O219 O 0.57799 0.69039 0.40305 0.0
O220 O 0.56553 0.72621 0.3995 0.0
C221 C 0.62612 0.66097 0.4171 0.0
O222 O 0.63522 0.66613 0.40729 0.0
C223 C 0.58757 0.74377 0.4309 0.0
Zn224 Zn 0.42882 0.94629 0.41896 0.0
Zn225 Zn 0.37238 0.94083 0.4191 0.0
O226 O 0.40246 0.98448 0.42585 0.0
O227 O 0.44893 0.9886 0.42571 0.0
O228 O 0.33026 0.93888 0.41679 0.0
O229 O 0.42959 0.94215 0.40341 0.0
O230 O 0.38106 0.93272 0.40381 0.0
C231 C 0.43186 -0.00019 0.42805 0.0
C232 C 0.38313 0.89533 0.43204 0.0
O233 O 0.36482 0.9055 0.42956 0.0
O234 O 0.41046 0.90789 0.42818 0.0
C235 C 0.32791 0.96326 0.41693 0.0
O236 O 0.35272 0.99032 0.41949 0.0
C237 C 0.40404 0.93468 0.3987 0.0
Zn238 Zn 0.0731 0.48188 0.42089 0.0
Zn239 Zn 0.06408 0.42586 0.41939 0.0
O240 O 0.01981 0.41594 0.42452 0.0
O241 O 0.02921 0.46421 0.4258 0.0
O242 O 0.06069 0.38372 0.41653 0.0
O243 O 0.08197 0.49294 0.4059 0.0
O244 O 0.07669 0.44638 0.40444 0.0
C245 C 0.01059 0.43501 0.42678 0.0
C246 C 0.1119 0.47377 0.43544 0.0
O247 O 0.09704 0.44603 0.43163 0.0
O248 O 0.10731 0.49468 0.43163 0.0
C249 C 0.08554 0.38398 0.41379 0.0
O250 O 0.1122 0.41097 0.4135 0.0
C251 C 0.08212 0.47213 0.4003 0.0
Zn252 Zn 0.00626 0.02709 0.1279 0.0
Zn253 Zn 0.00496 0.02599 0.16815 0.0
Zn254 Zn 0.00532 0.02614 0.14839 0.0
C255 C 0.97447 0.96388 0.16313 0.0
C256 C 0.06744 0.05776 0.16351 0.0
O257 O 0.98362 0.05388 0.14273 0.0
O258 O 0.98764 0.05355 0.12551 0.0
C259 C 0.97047 0.96409 0.13374 0.0
O260 O 0.98248 0.97631 0.15394 0.0
O261 O 0.97971 0.98102 0.17104 0.0
O262 O 0.05003 0.04625 0.17138 0.0
O263 O 0.05515 0.05323 0.15424 0.0
O264 O 0.97961 0.98135 0.12571 0.0
O265 O 0.97824 0.97648 0.14297 0.0
O266 O 0.05526 0.0482 0.1434 0.0
O267 O 0.05218 0.0462 0.12609 0.0
C268 C 0.06857 0.05304 0.13439 0.0
O269 O 0.978 0.04831 0.1536 0.0
O270 O 0.98492 0.05045 0.17077 0.0
C271 C 0.97975 0.06252 0.13354 0.0
C272 C 0.97324 0.05586 0.16278 0.0
Zn273 Zn 0.05301 0.04149 0.34739 0.0
Zn274 Zn 0.04161 0.03487 0.38819 0.0
Zn275 Zn 0.04579 0.0373 0.36756 0.0
C276 C 0.06987 0.09813 0.38293 0.0
C277 C 0.97997 0.00119 0.37971 0.0
O278 O 0.06316 0.00563 0.36266 0.0
O279 O 0.06738 0.01164 0.34544 0.0
C280 C 0.09122 0.10146 0.35481 0.0
O281 O 0.0683 0.08642 0.37376 0.0
O282 O 0.05966 0.08034 0.39081 0.0
O283 O 0.99491 0.00726 0.38831 0.0
O284 O 0.99498 0.01177 0.37105 0.0
O285 O 0.08409 0.08627 0.34634 0.0
O286 O 0.07868 0.08753 0.36351 0.0
O287 O 0.9983 0.01933 0.36036 0.0
O288 O 0.00893 0.02677 0.34342 0.0
C289 C 0.98929 0.01798 0.35075 0.0
O290 O 0.06954 0.01196 0.37352 0.0
O291 O 0.0684 0.01626 0.39072 0.0
C292 C 0.06906 0.99825 0.35363 0.0
C293 C 0.07723 0.00762 0.38282 0.0
Zn294 Zn 0.02443 0.00087 0.88711 0.0
Zn295 Zn 0.0286 0.00347 0.84653 0.0
Zn296 Zn 0.02511 0.00192 0.86647 0.0
C297 C 0.05178 0.06455 0.85196 0.0
C298 C 0.96514 0.96667 0.85087 0.0
O299 O 0.05093 0.97876 0.87236 0.0
O300 O 0.04859 0.97978 0.88965 0.0
C301 C 0.05441 0.06379 0.88119 0.0
O302 O 0.04343 0.0511 0.861 0.0
O303 O 0.05026 0.04885 0.84401 0.0
O304 O 0.98332 0.97952 0.84324 0.0
O305 O 0.97624 0.97164 0.86031 0.0
O306 O 0.0461 0.04668 0.88926 0.0
O307 O 0.04813 0.05124 0.87199 0.0
O308 O 0.97505 0.97548 0.87122 0.0
O309 O 0.97813 0.97639 0.88854 0.0
C310 C 0.96165 0.96861 0.88024 0.0
O311 O 0.05585 0.98344 0.86155 0.0
O312 O 0.05226 0.98225 0.84425 0.0
C313 C 0.05723 0.97202 0.88152 0.0
C314 C 0.06286 0.97705 0.85256 0.0
Zn315 Zn 0.97239 0.98671 0.66263 0.0
Zn316 Zn 0.97454 0.99487 0.622 0.0
Zn317 Zn 0.97596 0.99274 0.64267 0.0
C318 C 0.94526 0.93212 0.62685 0.0
C319 C 0.03823 0.02528 0.62861 0.0
O320 O 0.95647 0.02132 0.64886 0.0
O321 O 0.9512 0.00999 0.66574 0.0
C322 C 0.93762 0.92684 0.65562 0.0
O323 O 0.95184 0.94447 0.6361 0.0
O324 O 0.9515 0.94934 0.61887 0.0
O325 O 0.02084 0.01806 0.62054 0.0
O326 O 0.02583 0.01732 0.63777 0.0
O327 O 0.9479 0.94112 0.6642 0.0
O328 O 0.9452 0.94211 0.6469 0.0
O329 O 0.02493 0.01193 0.6487 0.0
O330 O 0.01765 0.00783 0.66584 0.0
C331 C 0.0359 0.01586 0.65814 0.0
O332 O 0.95316 0.01984 0.63787 0.0
O333 O 0.95327 0.01914 0.62053 0.0
C334 C 0.94845 0.02474 0.65813 0.0
C335 C 0.94644 0.02743 0.62894 0.0
Zn336 Zn 0.66629 0.38024 0.49859 0.0
Zn337 Zn 0.65836 0.36557 0.4583 0.0
Zn338 Zn 0.6622 0.37084 0.47875 0.0
C339 C 0.72169 0.39112 0.46355 0.0
C340 C 0.62389 0.30488 0.46666 0.0
O341 O 0.63378 0.3924 0.4832 0.0
O342 O 0.64282 0.40191 0.50016 0.0
C343 C 0.72739 0.41075 0.49202 0.0
O344 O 0.71068 0.39027 0.47274 0.0
O345 O 0.70349 0.38186 0.45566 0.0
O346 O 0.6302 0.31961 0.45809 0.0
O347 O 0.63456 0.3199 0.47536 0.0
O348 O 0.712 0.40491 0.50036 0.0
O349 O 0.71307 0.40006 0.48316 0.0
O350 O 0.64133 0.32384 0.4862 0.0
O351 O 0.64516 0.33596 0.50301 0.0
C352 C 0.63724 0.31558 0.49592 0.0
O353 O 0.63996 0.39707 0.47231 0.0
O354 O 0.64081 0.39257 0.4551 0.0
C355 C 0.62894 0.40244 0.49188 0.0
C356 C 0.63475 0.40376 0.46298 0.0
Zn357 Zn 0.70865 0.35656 0.72012 0.0
Zn358 Zn 0.70308 0.35919 0.67987 0.0
Zn359 Zn 0.70533 0.35749 0.69947 0.0
C360 C 0.6413 0.32873 0.68556 0.0
C361 C 0.73651 0.42092 0.68536 0.0
O362 O 0.73154 0.3335 0.70374 0.0
O363 O 0.7325 0.33465 0.72108 0.0
C364 C 0.64483 0.32325 0.71474 0.0
O365 O 0.65483 0.33582 0.69465 0.0
O366 O 0.65755 0.33486 0.6774 0.0
O367 O 0.72361 0.40421 0.67736 0.0
O368 O 0.73292 0.4078 0.6944 0.0
O369 O 0.66281 0.33192 0.72268 0.0
O370 O 0.65648 0.33112 0.70547 0.0
O371 O 0.72972 0.40674 0.70537 0.0
O372 O 0.731 0.40235 0.7226 0.0
C373 C 0.73693 0.41934 0.71457 0.0
O374 O 0.72515 0.3293 0.69283 0.0
O375 O 0.72623 0.33867 0.67588 0.0
C376 C 0.73992 0.32722 0.7126 0.0
C377 C 0.73137 0.32519 0.68337 0.0
Zn378 Zn 0.69482 0.34437 0.2186 0.0
Zn379 Zn 0.70129 0.34257 0.17815 0.0
Zn380 Zn 0.69711 0.34317 0.19822 0.0
C381 C 0.66038 0.36398 0.18189 0.0
C382 C 0.67487 0.28093 0.18413 0.0
O383 O 0.6809 0.29511 0.20418 0.0
O384 O 0.67906 0.29971 0.22132 0.0
C385 C 0.75685 0.38605 0.21372 0.0
O386 O 0.66791 0.36158 0.19142 0.0
O387 O 0.67109 0.35583 0.1744 0.0
O388 O 0.6868 0.29784 0.17615 0.0
O389 O 0.67618 0.29357 0.19308 0.0
O390 O 0.73956 0.37412 0.22161 0.0
O391 O 0.74519 0.37704 0.20442 0.0
O392 O 0.66488 0.36006 0.20232 0.0
O393 O 0.66616 0.36083 0.21966 0.0
C394 C 0.65616 0.36558 0.21113 0.0
O395 O 0.74749 0.37188 0.19369 0.0
O396 O 0.74636 0.37301 0.17637 0.0
C397 C 0.67596 0.28308 0.21344 0.0
C398 C 0.76182 0.38103 0.18486 0.0
Zn399 Zn 0.65569 0.32515 0.9994 0.0
Zn400 Zn 0.65971 0.33128 0.95881 0.0
Zn401 Zn 0.6588 0.32886 0.97953 0.0
C402 C 0.62998 0.26817 0.96393 0.0
C403 C 0.72243 0.36315 0.96595 0.0
O404 O 0.63843 0.35711 0.98533 0.0
O405 O 0.63178 0.34598 1.00223 0.0
C406 C 0.62308 0.26418 0.99294 0.0
O407 O 0.63533 0.28014 0.97322 0.0
O408 O 0.63765 0.28572 0.95598 0.0
O409 O 0.70615 0.35545 0.95761 0.0
O410 O 0.7089 0.35489 0.97493 0.0
O411 O 0.63396 0.27963 1.00129 0.0
O412 O 0.62916 0.27841 0.98403 0.0
O413 O 0.70786 0.34938 0.9858 0.0
O414 O 0.70084 0.34888 1.00289 0.0
C415 C 0.71906 0.35549 0.99523 0.0
O416 O 0.63415 0.35373 0.9743 0.0
O417 O 0.63637 0.35358 0.95699 0.0
C418 C 0.62937 0.36035 0.99444 0.0
C419 C 0.62742 0.36058 0.96523 0.0
Zn420 Zn 0.31965 0.67946 0.82501 0.0
Zn421 Zn 0.34731 0.6955 0.78845 0.0
Zn422 Zn 0.33511 0.68878 0.80782 0.0
C423 C 0.40506 0.72237 0.79925 0.0
C424 C 0.31128 0.63108 0.79171 0.0
O425 O 0.29788 0.70111 0.81062 0.0
O426 O 0.27516 0.66693 0.82333 0.0
C427 C 0.37607 0.73395 0.82562 0.0
O428 O 0.38705 0.7166 0.80719 0.0
O429 O 0.3934 0.71481 0.79013 0.0
O430 O 0.32183 0.65084 0.78435 0.0
O431 O 0.31599 0.64069 0.80131 0.0
O432 O 0.34989 0.72238 0.83015 0.0
O433 O 0.37774 0.72121 0.81707 0.0
O434 O 0.32099 0.63934 0.81194 0.0
O435 O 0.32764 0.64618 0.82905 0.0
C436 C 0.32346 0.62954 0.82109 0.0
O437 O 0.31191 0.7134 0.80076 0.0
O438 O 0.33062 0.72263 0.78467 0.0
C439 C 0.27436 0.6856 0.8168 0.0
C440 C 0.31473 0.72599 0.79165 0.0
Zn441 Zn 0.36401 0.69271 0.04939 0.0
Zn442 Zn 0.38148 0.70369 0.00917 0.0
Zn443 Zn 0.3721 0.69822 0.02879 0.0
C444 C 0.31709 0.66882 0.01106 0.0
C445 C 0.40689 0.76409 0.01623 0.0
O446 O 0.39646 0.67444 0.03514 0.0
O447 O 0.38684 0.67023 0.05214 0.0
C448 C 0.30434 0.66009 0.03992 0.0
O449 O 0.32533 0.67561 0.02076 0.0
O450 O 0.33777 0.67657 1.00413 0.0
O451 O 0.39943 0.74899 0.00773 0.0
O452 O 0.3996 0.74928 0.02503 0.0
O453 O 0.31735 0.66797 0.04885 0.0
O454 O 0.32105 0.6694 0.03157 0.0
O455 O 0.39155 0.74589 0.0357 0.0
O456 O 0.38493 0.73786 0.05279 0.0
C457 C 0.3942 0.75647 0.04511 0.0
O458 O 0.397 0.67332 0.02406 0.0
O459 O 0.41008 0.68739 0.0076 0.0
C460 C 0.39953 0.6656 0.04437 0.0
C461 C 0.4103 0.67233 0.01555 0.0
Zn462 Zn 0.36412 0.66916 0.55257 0.0
Zn463 Zn 0.35706 0.62845 0.52078 0.0
Zn464 Zn 0.35628 0.65567 0.53451 0.0
C465 C 0.36049 0.68336 0.513 0.0
C466 C 0.29897 0.59738 0.52599 0.0
O467 O 0.36963 0.62382 0.54077 0.0
O468 O 0.3789 0.63985 0.55709 0.0
C469 C 0.40162 0.72518 0.5407 0.0
O470 O 0.37433 0.69162 0.52206 0.0
O471 O 0.34709 0.65465 0.51049 0.0
O472 O 0.31896 0.58859 0.52583 0.0
O473 O 0.30869 0.62617 0.52824 0.0
O474 O 0.3941 0.71487 0.54994 0.0
O475 O 0.39075 0.7062 0.53283 0.0
O476 O 0.31001 0.64832 0.53783 0.0
O477 O 0.31916 0.65662 0.55477 0.0
C478 C 0.30059 0.64977 0.54701 0.0
O479 O 0.40074 0.68615 0.52623 0.0
O480 O 0.40406 0.64461 0.52282 0.0
C481 C 0.37784 0.62143 0.55007 0.0
C482 C 0.41727 0.67426 0.52324 0.0
Zn483 Zn 0.32714 0.66965 0.28566 0.0
Zn484 Zn 0.32764 0.66954 0.32343 0.0
Zn485 Zn 0.32766 0.66962 0.30578 0.0
C486 C 0.37322 0.65873 0.31945 0.0
C487 C 0.27078 0.62223 0.31856 0.0
O488 O 0.27829 0.65261 0.30072 0.0
O489 O 0.28241 0.65666 0.28347 0.0
C490 C 0.37075 0.73091 0.29217 0.0
O491 O 0.35392 0.64699 0.31162 0.0
O492 O 0.37109 0.67755 0.3255 0.0
O493 O 0.29211 0.62573 0.3249 0.0
O494 O 0.27801 0.64174 0.31093 0.0
O495 O 0.35974 0.7144 0.28399 0.0
O496 O 0.36026 0.71874 0.30124 0.0
O497 O 0.34583 0.63909 0.30098 0.0
O498 O 0.34066 0.63882 0.28373 0.0
C499 C 0.34813 0.62944 0.29187 0.0
O500 O 0.35025 0.71887 0.31157 0.0
O501 O 0.3197 0.70465 0.32534 0.0
C502 C 0.26594 0.65064 0.29159 0.0
C503 C 0.33842 0.72606 0.31926 0.0
H504 H 0.2493 0.17463 0.23332 0.0
H505 H 0.22481 0.15459 0.21625 0.0
H506 H 0.23554 0.24417 0.20855 0.0
H507 H 0.25988 0.2645 0.2258 0.0
H508 H 0.17729 0.19522 0.20342 0.0
H509 H 0.26714 0.17192 0.18801 0.0
H510 H 0.25368 0.154 0.20058 0.0
H511 H 0.27409 0.19607 0.19943 0.0
C512 C 0.24648 0.19017 0.22803 0.0
C513 C 0.25672 0.22126 0.23094 0.0
C514 C 0.23278 0.17874 0.21821 0.0
C515 C 0.22926 0.19816 0.21099 0.0
C516 C 0.23852 0.22894 0.21394 0.0
H517 H 0.10504 0.11659 0.15567 0.0
H518 H 0.15285 0.15789 0.16448 0.0
C519 C 0.25223 0.24044 0.22383 0.0
C520 C 0.21417 0.18534 0.20063 0.0
H521 H 0.21481 0.14149 0.18019 0.0
C522 C 0.1859 0.18423 0.19817 0.0
C523 C 0.22562 0.17129 0.19373 0.0
C524 C 0.257 0.17368 0.19552 0.0
C525 C 0.16736 0.16705 0.18951 0.0
C526 C 0.17763 0.15089 0.18309 0.0
C527 C 0.207 0.15389 0.18512 0.0
C528 C 0.15561 0.1264 0.17565 0.0
C529 C 0.13575 0.16426 0.18779 0.0
C530 C 0.143 0.09493 0.17849 0.0
C531 C 0.11591 0.07154 0.1735 0.0
C532 C 0.10124 0.07922 0.16553 0.0
C533 C 0.11611 0.11013 0.16177 0.0
C534 C 0.14318 0.13372 0.16686 0.0
H535 H 0.13003 0.17581 0.19411 0.0
H536 H 0.13575 0.17537 0.18023 0.0
H537 H 0.11684 0.13921 0.18739 0.0
H538 H 0.15231 0.08875 0.18521 0.0
H539 H 0.10481 0.04784 0.17653 0.0
H540 H 0.76475 0.03025 0.22418 0.0
H541 H 0.78848 0.04804 0.20688 0.0
H542 H 0.82646 0.98692 0.20905 0.0
H543 H 0.80148 0.96796 0.22596 0.0
H544 H 0.84485 0.0788 0.20077 0.0
H545 H 0.7935 0.9664 0.18021 0.0
H546 H 0.77885 0.96974 0.19273 0.0
H547 H 0.81125 0.96275 0.19202 0.0
C548 C 0.77782 0.02033 0.22087 0.0
C549 C 0.781 0.99748 0.22639 0.0
C550 C 0.79135 0.0305 0.21098 0.0
C551 C 0.8086 0.01824 0.20646 0.0
C552 C 0.81218 0.99582 0.21209 0.0
H553 H 0.97501 0.09305 0.17841 0.0
H554 H 0.92947 0.09067 0.18608 0.0
C555 C 0.79815 0.98521 0.22185 0.0
C556 C 0.82509 0.03037 0.19629 0.0
H557 H 0.84735 0.00611 0.17487 0.0
C558 C 0.84476 0.06289 0.19496 0.0
C559 C 0.82407 0.01007 0.18834 0.0
C560 C 0.80041 0.97535 0.18836 0.0
C561 C 0.86595 0.07523 0.18659 0.0
C562 C 0.86861 0.05451 0.17967 0.0
C563 C 0.84628 0.02229 0.18028 0.0
C564 C 0.89738 0.06445 0.17332 0.0
C565 C 0.88588 0.11035 0.1855 0.0
C566 C 0.89544 0.05172 0.16329 0.0
C567 C 0.92179 0.05248 0.15895 0.0
C568 C 0.95032 0.06599 0.16461 0.0
C569 C 0.95322 0.08232 0.1739 0.0
C570 C 0.92701 0.08121 0.17828 0.0
H571 H 0.87161 0.1213 0.18712 0.0
H572 H 0.90525 0.11965 0.19141 0.0
H573 H 0.89604 0.11747 0.17755 0.0
H574 H 0.87296 0.03881 0.15924 0.0
H575 H 0.91889 0.03968 0.15177 0.0
H576 H 0.02016 0.79461 0.22638 0.0
H577 H 0.01893 0.81671 0.20926 0.0
H578 H 0.93858 0.82225 0.21886 0.0
H579 H 0.93921 0.79971 0.2358 0.0
H580 H 0.93035 0.79644 0.19917 0.0
H581 H 0.04648 0.90708 0.20243 0.0
H582 H 0.04708 0.87144 0.204 0.0
H583 H 0.02777 0.88206 0.21356 0.0
C584 C 0.00248 0.80089 0.22488 0.0
C585 C 0.97987 0.79548 0.2325 0.0
C586 C 0.0018 0.81353 0.21509 0.0
C587 C 0.97876 0.82133 0.21278 0.0
C588 C 0.95649 0.8163 0.22043 0.0
H589 H 0.92664 0.92309 0.17538 0.0
H590 H 0.92542 0.87986 0.18491 0.0
C591 C 0.95701 0.80354 0.23015 0.0
C592 C 0.97734 0.83467 0.20246 0.0
H593 H 0.01619 0.90034 0.18734 0.0
C594 C 0.94931 0.81898 0.19651 0.0
C595 C 0.00215 0.86393 0.19891 0.0
C596 C 0.03251 0.88232 0.20507 0.0
C597 C 0.94489 0.83241 0.18741 0.0
C598 C 0.96901 0.86241 0.1842 0.0
C599 C 0.99775 0.87723 0.18977 0.0
C600 C 0.96347 0.88115 0.17627 0.0
C601 C 0.9141 0.81473 0.18146 0.0
C602 C 0.9841 0.89524 0.16783 0.0
C603 C 0.98442 0.91977 0.16222 0.0
C604 C 0.96461 0.93091 0.16518 0.0
C605 C 0.94184 0.91464 0.17287 0.0
C606 C 0.94122 0.88993 0.17835 0.0
H607 H 0.90323 0.78902 0.18249 0.0
H608 H 0.89746 0.82143 0.18455 0.0
H609 H 0.9173 0.82028 0.17296 0.0
H610 H 0.00158 0.88894 0.16612 0.0
H611 H 0.00254 0.93229 0.15644 0.0
H612 H 0.27825 0.2033 0.29221 0.0
H613 H 0.2514 0.19503 0.30895 0.0
H614 H 0.23809 0.27271 0.30243 0.0
H615 H 0.26503 0.28138 0.28569 0.0
H616 H 0.26259 0.24619 0.32698 0.0
H617 H 0.14773 0.18499 0.30534 0.0
H618 H 0.1825 0.18723 0.30002 0.0
H619 H 0.17944 0.22162 0.30045 0.0
C620 C 0.26997 0.21888 0.29437 0.0
C621 C 0.27355 0.24282 0.28755 0.0
C622 C 0.25482 0.21424 0.30397 0.0
C623 C 0.24292 0.23334 0.3069 0.0
C624 C 0.24731 0.25787 0.30031 0.0
H625 H 0.08762 0.15245 0.34944 0.0
H626 H 0.12965 0.19753 0.34021 0.0
C627 C 0.26258 0.26265 0.29072 0.0
C628 C 0.22301 0.2253 0.3163 0.0
H629 H 0.1463 0.18265 0.32357 0.0
C630 C 0.23712 0.23271 0.32629 0.0
C631 C 0.18989 0.20822 0.31534 0.0
C632 C 0.17374 0.19987 0.30474 0.0
C633 C 0.21878 0.22231 0.33541 0.0
C634 C 0.1856 0.20324 0.33445 0.0
C635 C 0.17164 0.19738 0.32441 0.0
C636 C 0.16502 0.18505 0.34336 0.0
C637 C 0.23525 0.23158 0.34593 0.0
C638 C 0.17155 0.16465 0.34904 0.0
C639 C 0.14778 0.13958 0.35462 0.0
C640 C 0.11701 0.13415 0.35442 0.0
C641 C 0.11134 0.15655 0.34986 0.0
C642 C 0.13532 0.18209 0.34447 0.0
H643 H 0.25639 0.25549 0.3456 0.0
H644 H 0.21951 0.23105 0.35217 0.0
H645 H 0.24342 0.2152 0.34807 0.0
H646 H 0.19384 0.16572 0.34818 0.0
H647 H 0.15246 0.12214 0.35787 0.0
H648 H 0.79247 0.03287 0.2883 0.0
H649 H 0.81945 0.03898 0.3052 0.0
H650 H 0.83731 0.9657 0.29657 0.0
H651 H 0.81022 0.95913 0.27989 0.0
H652 H 0.8125 0.95785 0.31659 0.0
H653 H 0.91402 0.07907 0.31093 0.0
H654 H 0.87524 0.07344 0.30945 0.0
H655 H 0.88882 0.05604 0.30018 0.0
C656 C 0.80249 0.01835 0.28997 0.0
C657 C 0.79917 0.99553 0.28273 0.0
C658 C 0.81788 0.02185 0.29963 0.0
C659 C 0.83046 0.00282 0.30215 0.0
C660 C 0.82763 0.9805 0.29484 0.0
H661 H 0.9523 0.9727 0.33699 0.0
H662 H 0.90619 0.96747 0.32785 0.0
C663 C 0.81221 0.97689 0.28527 0.0
C664 C 0.84649 0.00544 0.31235 0.0
H665 H 0.91482 0.05207 0.32591 0.0
C666 C 0.83461 0.97866 0.31873 0.0
C667 C 0.87516 0.03269 0.31521 0.0
C668 C 0.88931 0.06195 0.30859 0.0
C669 C 0.85153 0.97779 0.32752 0.0
C670 C 0.88118 0.00427 0.32994 0.0
C671 C 0.892 0.0318 0.32404 0.0
C672 C 0.90369 0.00229 0.33724 0.0
C673 C 0.83817 0.94812 0.3339 0.0
C674 C 0.91696 0.0228 0.34582 0.0
C675 C 0.94309 0.02534 0.35121 0.0
C676 C 0.95657 0.00794 0.34789 0.0
C677 C 0.94197 0.98599 0.33978 0.0
C678 C 0.91565 0.98304 0.33455 0.0
H679 H 0.81206 0.93423 0.33329 0.0
H680 H 0.84735 0.93345 0.33088 0.0
H681 H 0.84515 0.95336 0.34228 0.0
H682 H 0.90825 0.03806 0.34796 0.0
H683 H 0.95439 0.04285 0.35732 0.0
H684 H 0.95 0.78096 0.29358 0.0
H685 H 0.97025 0.81351 0.30938 0.0
H686 H 0.0642 0.8352 0.30213 0.0
H687 H 0.04432 0.80269 0.28635 0.0
H688 H 0.01701 0.81444 0.32755 0.0
H689 H 0.05847 0.91997 0.30225 0.0
H690 H 0.02677 0.88184 0.29819 0.0
H691 H 0.06656 0.89007 0.29826 0.0
C692 C 0.97491 0.79229 0.2954 0.0
C693 C 0.99555 0.7894 0.28862 0.0
C694 C 0.98639 0.81074 0.30447 0.0
C695 C 0.01868 0.82669 0.30691 0.0
C696 C 0.03918 0.82296 0.30039 0.0
H697 H 0.11603 0.99457 0.34428 0.0
H698 H 0.10854 0.94851 0.33483 0.0
C699 C 0.02774 0.80445 0.29135 0.0
C700 C 0.03134 0.84976 0.3156 0.0
H701 H 0.06671 0.92814 0.32029 0.0
C702 C 0.02813 0.83936 0.32602 0.0
C703 C 0.04595 0.88217 0.31354 0.0
C704 C 0.04966 0.89442 0.30248 0.0
C705 C 0.03913 0.86071 0.33446 0.0
C706 C 0.05296 0.8932 0.33241 0.0
C707 C 0.05649 0.90338 0.32193 0.0
C708 C 0.06179 0.91723 0.3408 0.0
C709 C 0.03604 0.8482 0.34545 0.0
C710 C 0.03921 0.91452 0.34801 0.0
C711 C 0.04411 0.94067 0.35374 0.0
C712 C 0.07121 0.97006 0.35211 0.0
C713 C 0.09514 0.97205 0.34577 0.0
C714 C 0.09064 0.94576 0.34027 0.0
H715 H 0.03672 0.82618 0.34551 0.0
H716 H 0.05501 0.86549 0.3507 0.0
H717 H 0.01297 0.84266 0.34864 0.0
H718 H 0.01649 0.89316 0.34845 0.0
H719 H 0.02499 0.93874 0.35839 0.0
H720 H 0.7838 0.75899 0.78545 0.0
H721 H 0.80615 0.77742 0.80309 0.0
H722 H 0.82661 0.87039 0.79511 0.0
H723 H 0.80463 0.85249 0.77762 0.0
H724 H 0.86788 0.82828 0.80938 0.0
H725 H 0.77299 0.84827 0.82206 0.0
H726 H 0.76863 0.82366 0.81101 0.0
H727 H 0.78881 0.86558 0.80955 0.0
C728 C 0.79343 0.78344 0.78742 0.0
C729 C 0.7922 0.8042 0.78013 0.0
C730 C 0.80597 0.79385 0.79751 0.0
C731 C 0.81717 0.82503 0.80048 0.0
C732 C 0.81728 0.84602 0.79307 0.0
H733 H 0.92699 0.97387 0.83739 0.0
H734 H 0.88272 0.93153 0.82787 0.0
C735 C 0.80494 0.83576 0.78302 0.0
C736 C 0.82951 0.83645 0.8112 0.0
H737 H 0.82267 0.87741 0.83137 0.0
C738 C 0.85762 0.83824 0.81437 0.0
C739 C 0.81584 0.84916 0.81771 0.0
C740 C 0.78471 0.84631 0.81497 0.0
C741 C 0.87401 0.85505 0.8234 0.0
C742 C 0.86156 0.86995 0.82948 0.0
C743 C 0.83216 0.86596 0.82673 0.0
C744 C 0.88147 0.89451 0.83726 0.0
C745 C 0.90578 0.85897 0.82585 0.0
C746 C 0.89383 0.88786 0.84623 0.0
C747 C 0.91907 0.91227 0.85179 0.0
C748 C 0.93213 0.94337 0.84836 0.0
C749 C 0.91724 0.95005 0.84018 0.0
C750 C 0.89203 0.92583 0.83471 0.0
H751 H 0.91349 0.84869 0.81969 0.0
H752 H 0.92388 0.8842 0.8267 0.0
H753 H 0.90467 0.84722 0.83339 0.0
H754 H 0.88563 0.86382 0.84843 0.0
H755 H 0.93035 0.90658 0.85804 0.0
H756 H 0.24221 0.99036 0.782 0.0
H757 H 0.21587 0.96848 0.79872 0.0
H758 H 0.20931 0.05056 0.80396 0.0
H759 H 0.2355 0.07268 0.78733 0.0
H760 H 0.23004 0.00465 0.82211 0.0
H761 H 0.11588 0.96163 0.80102 0.0
H762 H 0.15066 0.96724 0.79452 0.0
H763 H 0.14751 0.00051 0.79793 0.0
C764 C 0.23558 0.00398 0.78678 0.0
C765 C 0.2407 0.03317 0.78327 0.0
C766 C 0.22071 0.99149 0.79635 0.0
C767 C 0.21083 0.00801 0.80254 0.0
C768 C 0.217 0.03762 0.79929 0.0
H769 H 0.12478 0.01424 0.85664 0.0
H770 H 0.16504 0.01357 0.84604 0.0
C771 C 0.23182 0.05012 0.78975 0.0
C772 C 0.19083 0.99317 0.81178 0.0
H773 H 0.11484 0.96121 0.81945 0.0
C774 C 0.20475 0.99459 0.82157 0.0
C775 C 0.15791 0.97962 0.81097 0.0
C776 C 0.14188 0.97687 0.80055 0.0
C777 C 0.18652 0.98421 0.83072 0.0
C778 C 0.15377 0.97273 0.83002 0.0
C779 C 0.13986 0.96977 0.82008 0.0
C780 C 0.13382 0.96766 0.83932 0.0
C781 C 0.20263 0.98613 0.84103 0.0
C782 C 0.10324 0.94127 0.83969 0.0
C783 C 0.08001 0.94206 0.84559 0.0
C784 C 0.08728 0.9689 0.85138 0.0
C785 C 0.1188 0.99307 0.85236 0.0
C786 C 0.14191 0.99266 0.84625 0.0
H787 H 0.22276 0.98247 0.8399 0.0
H788 H 0.21218 0.00989 0.84441 0.0
H789 H 0.18615 0.96856 0.84673 0.0
H790 H 0.09642 0.9216 0.83448 0.0
H791 H 0.05575 0.92331 0.84464 0.0
H792 H 0.03233 0.17106 0.77775 0.0
H793 H 0.02949 0.15289 0.79575 0.0
H794 H 0.01366 0.22554 0.80678 0.0
H795 H 0.01585 0.24359 0.78863 0.0
H796 H 0.06883 0.22169 0.81598 0.0
H797 H 0.95414 0.1101 0.8174 0.0
H798 H 0.97601 0.1156 0.80562 0.0
H799 H 0.96171 0.14151 0.80844 0.0
C800 C 0.02738 0.18265 0.78396 0.0
C801 C 0.02418 0.20865 0.78178 0.0
C802 C 0.02577 0.17226 0.79424 0.0
C803 C 0.02131 0.18784 0.80258 0.0
C804 C 0.01693 0.21311 0.80043 0.0
H805 H 0.01785 0.08914 0.85958 0.0
H806 H 0.01105 0.12894 0.85046 0.0
C807 C 0.01796 0.22322 0.79007 0.0
C808 C 0.02434 0.17912 0.81347 0.0
H809 H 0.99411 0.11547 0.82955 0.0
C810 C 0.0521 0.19883 0.81913 0.0
C811 C 0.00238 0.1495 0.81761 0.0
C812 C 0.97171 0.12799 0.81201 0.0
C813 C 0.05972 0.18848 0.82837 0.0
C814 C 0.03911 0.15765 0.83197 0.0
C815 C 0.01002 0.13911 0.82681 0.0
C816 C 0.04928 0.14198 0.83968 0.0
C817 C 0.09045 0.21004 0.83392 0.0
C818 C 0.07416 0.13742 0.83706 0.0
C819 C 0.0779 0.11464 0.8422 0.0
C820 C 0.05692 0.09613 0.85008 0.0
C821 C 0.03457 0.10337 0.85361 0.0
C822 C 0.03049 0.12591 0.84834 0.0
H823 H 0.09751 0.23497 0.83275 0.0
H824 H 0.08896 0.20503 0.84245 0.0
H825 H 0.10919 0.20672 0.8306 0.0
H826 H 0.08866 0.14908 0.83032 0.0
H827 H 0.09514 0.10931 0.83929 0.0
H828 H 0.77424 0.74071 0.72534 0.0
H829 H 0.79889 0.74706 0.7082 0.0
H830 H 0.78674 0.82534 0.7014 0.0
H831 H 0.76244 0.81947 0.71847 0.0
H832 H 0.77347 0.77261 0.68363 0.0
H833 H 0.88968 0.83478 0.70445 0.0
H834 H 0.85784 0.79853 0.70952 0.0
H835 H 0.85565 0.83341 0.71005 0.0
C836 C 0.77634 0.75895 0.72012 0.0
C837 C 0.76669 0.77982 0.72331 0.0
C838 C 0.7903 0.76243 0.71033 0.0
C839 C 0.79445 0.78657 0.70356 0.0
C840 C 0.78348 0.80642 0.70651 0.0
H841 H 0.8752 0.90184 0.6535 0.0
H842 H 0.8367 0.85561 0.66296 0.0
C843 C 0.76982 0.80317 0.7163 0.0
C844 C 0.81371 0.79408 0.69403 0.0
H845 H 0.88958 0.84019 0.6863 0.0
C846 C 0.79894 0.78678 0.68414 0.0
C847 C 0.84685 0.81212 0.69475 0.0
C848 C 0.86369 0.82032 0.70523 0.0
C849 C 0.81656 0.79862 0.67492 0.0
C850 C 0.84959 0.81913 0.67569 0.0
C851 C 0.86433 0.82447 0.6856 0.0
C852 C 0.86886 0.83944 0.66687 0.0
C853 C 0.79944 0.78948 0.66451 0.0
C854 C 0.89955 0.84524 0.66536 0.0
C855 C 0.92187 0.87238 0.66019 0.0
C856 C 0.91353 0.89349 0.65616 0.0
C857 C 0.88193 0.88546 0.65634 0.0
C858 C 0.85981 0.85883 0.66177 0.0
H859 H 0.77957 0.76482 0.66471 0.0
H860 H 0.78926 0.8045 0.6629 0.0
H861 H 0.81529 0.79207 0.658 0.0
H862 H 0.90717 0.83064 0.66915 0.0
H863 H 0.94627 0.87844 0.66028 0.0
H864 H 0.2058 0.07216 0.72963 0.0
H865 H 0.18126 0.06654 0.71248 0.0
H866 H 0.20666 0.99879 0.70357 0.0
H867 H 0.23116 0.004 0.72088 0.0
H868 H 0.21145 0.07846 0.69272 0.0
H869 H 0.11189 0.95519 0.69631 0.0
H870 H 0.13406 0.97786 0.70759 0.0
H871 H 0.15105 0.96268 0.69878 0.0
C872 C 0.20595 0.05577 0.7241 0.0
C873 C 0.22042 0.03847 0.72666 0.0
C874 C 0.19203 0.05273 0.71426 0.0
C875 C 0.19215 0.03229 0.70675 0.0
C876 C 0.20604 0.01448 0.7093 0.0
H877 H 0.07082 0.99135 0.65131 0.0
H878 H 0.11788 0.99741 0.66035 0.0
C879 C 0.21998 0.01746 0.71919 0.0
C880 C 0.17775 0.03022 0.69629 0.0
H881 H 0.112 0.98356 0.6816 0.0
C882 C 0.19001 0.05752 0.69018 0.0
C883 C 0.15006 0.00279 0.69291 0.0
C884 C 0.13574 0.97293 0.69922 0.0
C885 C 0.17422 0.05869 0.68112 0.0
C886 C 0.14523 0.03201 0.6782 0.0
C887 C 0.13428 0.004 0.68384 0.0
C888 C 0.12308 0.03409 0.67076 0.0
C889 C 0.18803 0.08887 0.67501 0.0
C890 C 0.11128 0.05358 0.67331 0.0
C891 C 0.08449 0.04997 0.66824 0.0
C892 C 0.06918 0.02702 0.66047 0.0
C893 C 0.08263 0.00957 0.65717 0.0
C894 C 0.10931 0.01286 0.66238 0.0
H895 H 0.21414 0.10225 0.67565 0.0
H896 H 0.1811 0.08447 0.6666 0.0
H897 H 0.17938 0.1037 0.67829 0.0
H898 H 0.12102 0.06965 0.67987 0.0
H899 H 0.07421 0.06334 0.67099 0.0
H900 H 0.04996 0.19077 0.72422 0.0
H901 H 0.02896 0.16657 0.70721 0.0
H902 H 0.97849 0.21603 0.70456 0.0
H903 H 0.99844 0.23936 0.72189 0.0
H904 H 0.94173 0.15916 0.69851 0.0
H905 H 0.05367 0.19979 0.67848 0.0
H906 H 0.05434 0.18066 0.69032 0.0
H907 H 0.05197 0.21572 0.69097 0.0
C908 C 0.03462 0.19675 0.71999 0.0
C909 C 0.026 0.21709 0.7244 0.0
C910 C 0.02284 0.18312 0.71019 0.0
C911 C 0.00283 0.19013 0.70441 0.0
C912 C 0.99414 0.21048 0.70879 0.0
H913 H 0.96945 0.08102 0.64813 0.0
H914 H 0.97549 0.12811 0.6565 0.0
C915 C 0.00554 0.22377 0.7187 0.0
C916 C 0.98949 0.17433 0.69416 0.0
H917 H 0.00967 0.14899 0.67251 0.0
C918 C 0.95665 0.15755 0.69269 0.0
C919 C 0.00871 0.17322 0.68624 0.0
C920 C 0.04412 0.19369 0.68655 0.0
C921 C 0.94257 0.13709 0.68414 0.0
C922 C 0.96174 0.13233 0.67712 0.0
C923 C 0.99463 0.15181 0.67796 0.0
C924 C 0.94901 0.10393 0.67034 0.0
C925 C 0.90723 0.12015 0.68293 0.0
C926 C 0.93012 0.0743 0.67489 0.0
C927 C 0.92612 0.04745 0.67002 0.0
C928 C 0.94155 0.04964 0.66061 0.0
C929 C 0.95723 0.07859 0.65538 0.0
C930 C 0.96095 0.1056 0.66023 0.0
H931 H 0.8984 0.13605 0.68489 0.0
H932 H 0.89937 0.11109 0.67485 0.0
H933 H 0.8964 0.10029 0.68853 0.0
H934 H 0.92112 0.07204 0.68274 0.0
H935 H 0.91373 0.0254 0.67421 0.0
H936 H 0.91375 0.60218 0.55757 0.0
H937 H 0.89366 0.58875 0.5395 0.0
H938 H 0.86428 0.49204 0.54537 0.0
H939 H 0.88431 0.50509 0.56329 0.0
H940 H 0.90103 0.51875 0.52653 0.0
H941 H 0.79998 0.53842 0.52971 0.0
H942 H 0.83839 0.56924 0.53388 0.0
H943 H 0.8187 0.53339 0.54118 0.0
C944 C 0.90256 0.57798 0.55506 0.0
C945 C 0.9006 0.5547 0.56189 0.0
C946 C 0.89123 0.57039 0.54472 0.0
C947 C 0.87763 0.53943 0.5411 0.0
C948 C 0.87495 0.51612 0.54799 0.0
H949 H 0.7686 0.39906 0.50188 0.0
H950 H 0.81632 0.43904 0.51062 0.0
C951 C 0.88624 0.52363 0.55826 0.0
C952 C 0.86595 0.53063 0.53019 0.0
H953 H 0.80287 0.5139 0.51457 0.0
C954 C 0.87993 0.51828 0.52379 0.0
C955 C 0.83879 0.53054 0.52657 0.0
C956 C 0.82285 0.54345 0.53316 0.0
C957 C 0.86614 0.5038 0.51418 0.0
C958 C 0.83738 0.50114 0.51101 0.0
C959 C 0.82495 0.51594 0.51698 0.0
C960 C 0.81653 0.47817 0.50295 0.0
C961 C 0.88179 0.4903 0.50775 0.0
C962 C 0.80166 0.48663 0.49524 0.0
C963 C 0.77433 0.46353 0.49016 0.0
C964 C 0.76153 0.4319 0.49284 0.0
C965 C 0.77845 0.42332 0.49958 0.0
C966 C 0.80579 0.44628 0.50458 0.0
H967 H 0.90782 0.5047 0.50861 0.0
H968 H 0.87434 0.46639 0.51064 0.0
H969 H 0.87537 0.48881 0.49932 0.0
H970 H 0.80942 0.51108 0.4939 0.0
H971 H 0.76125 0.47064 0.48514 0.0
H972 H 0.4527 0.35947 0.56369 0.0
H973 H 0.4767 0.38012 0.54666 0.0
H974 H 0.4563 0.28802 0.53746 0.0
H975 H 0.43359 0.26759 0.55464 0.0
H976 H 0.51472 0.32842 0.53433 0.0
H977 H 0.44652 0.37851 0.51742 0.0
H978 H 0.4618 0.39409 0.5302 0.0
H979 H 0.43328 0.35296 0.52869 0.0
C980 C 0.45295 0.34353 0.55798 0.0
C981 C 0.44151 0.31194 0.56054 0.0
C982 C 0.46637 0.35531 0.54818 0.0
C983 C 0.46792 0.33558 0.54066 0.0
C984 C 0.45533 0.30374 0.54309 0.0
H985 H 0.57034 0.36645 0.48356 0.0
H986 H 0.52335 0.35295 0.49365 0.0
C987 C 0.44244 0.29209 0.55294 0.0
C988 C 0.48613 0.34866 0.53086 0.0
H989 H 0.4974 0.39607 0.50974 0.0
C990 C 0.51045 0.34271 0.52888 0.0
C991 C 0.48077 0.36752 0.52373 0.0
C992 C 0.45395 0.37338 0.52506 0.0
C993 C 0.53 0.35561 0.5202 0.0
C994 C 0.5254 0.37532 0.51329 0.0
C995 C 0.50082 0.38099 0.51508 0.0
C996 C 0.54771 0.39123 0.50464 0.0
C997 C 0.55614 0.34875 0.51859 0.0
C998 C 0.57613 0.41894 0.50688 0.0
C999 C 0.60305 0.42657 0.50117 0.0
C1000 C 0.60167 0.40652 0.49317 0.0
C1001 C 0.57206 0.38231 0.48968 0.0
C1002 C 0.54514 0.37444 0.49549 0.0
H1003 H 0.5565 0.33294 0.52471 0.0
H1004 H 0.55329 0.3376 0.51082 0.0
H1005 H 0.57927 0.37093 0.5187 0.0
H1006 H 0.57854 0.4322 0.51391 0.0
H1007 H 0.6256 0.44546 0.50397 0.0
H1008 H 0.60538 0.15026 0.56875 0.0
H1009 H 0.60484 0.17417 0.55213 0.0
H1010 H 0.67735 0.15882 0.54047 0.0
H1011 H 0.67829 0.13482 0.55729 0.0
H1012 H 0.68661 0.21807 0.53554 0.0
H1013 H 0.56532 0.12578 0.52502 0.0
H1014 H 0.56734 0.14109 0.53789 0.0
H1015 H 0.58791 0.12067 0.53524 0.0
C1016 C 0.62141 0.15206 0.5627 0.0
C1017 C 0.6417 0.14034 0.56434 0.0
C1018 C 0.62084 0.1655 0.55315 0.0
C1019 C 0.6403 0.16735 0.54493 0.0
C1020 C 0.66175 0.15713 0.54666 0.0
H1021 H 0.65596 0.27676 0.48795 0.0
H1022 H 0.65531 0.23335 0.49757 0.0
C1023 C 0.66242 0.14364 0.55629 0.0
C1024 C 0.63826 0.18069 0.5347 0.0
H1025 H 0.58453 0.17616 0.5166 0.0
C1026 C 0.66457 0.20851 0.53121 0.0
C1027 C 0.60952 0.168 0.529 0.0
C1028 C 0.58103 0.13705 0.53192 0.0
C1029 C 0.66216 0.22535 0.52272 0.0
C1030 C 0.63275 0.21385 0.51754 0.0
C1031 C 0.60703 0.18495 0.52058 0.0
C1032 C 0.62716 0.23403 0.51031 0.0
C1033 C 0.69048 0.2565 0.51983 0.0
C1034 C 0.60981 0.2472 0.51393 0.0
C1035 C 0.6102 0.27183 0.5085 0.0
C1036 C 0.62765 0.28348 0.49927 0.0
C1037 C 0.64214 0.26802 0.49501 0.0
C1038 C 0.64207 0.2435 0.50055 0.0
H1039 H 0.71079 0.26335 0.52522 0.0
H1040 H 0.69783 0.2552 0.51175 0.0
H1041 H 0.68441 0.27516 0.51994 0.0
H1042 H 0.59802 0.24015 0.52141 0.0
H1043 H 0.59888 0.28339 0.51195 0.0
H1044 H 0.89024 0.51484 0.61888 0.0
H1045 H 0.86843 0.50822 0.63633 0.0
H1046 H 0.91884 0.6086 0.64057 0.0
H1047 H 0.9396 0.61541 0.62275 0.0
H1048 H 0.89575 0.52307 0.65485 0.0
H1049 H 0.83302 0.58849 0.64888 0.0
H1050 H 0.85025 0.57926 0.63815 0.0
H1051 H 0.8749 0.61023 0.64714 0.0
C1052 C 0.89664 0.53556 0.62349 0.0
C1053 C 0.9165 0.56564 0.61941 0.0
C1054 C 0.88422 0.53176 0.6335 0.0
C1055 C 0.89168 0.55789 0.63978 0.0
C1056 C 0.91207 0.58807 0.63582 0.0
H1057 H 0.79093 0.46077 0.69637 0.0
H1058 H 0.83578 0.50822 0.68899 0.0
C1059 C 0.92407 0.59192 0.62566 0.0
C1060 C 0.87752 0.55257 0.65038 0.0
H1061 H 0.82269 0.55938 0.66426 0.0
C1062 C 0.88008 0.53133 0.65701 0.0
C1063 C 0.85765 0.56396 0.6533 0.0
C1064 C 0.85352 0.5866 0.6465 0.0
C1065 C 0.86054 0.51812 0.66573 0.0
C1066 C 0.83879 0.52769 0.66822 0.0
C1067 C 0.83916 0.55191 0.66233 0.0
C1068 C 0.81081 0.50779 0.67484 0.0
C1069 C 0.8613 0.49176 0.67142 0.0
C1070 C 0.7809 0.49451 0.67011 0.0
C1071 C 0.75519 0.46837 0.67449 0.0
C1072 C 0.75892 0.45463 0.68361 0.0
C1073 C 0.78752 0.47062 0.68923 0.0
C1074 C 0.81331 0.49743 0.68491 0.0
H1075 H 0.87679 0.48476 0.66755 0.0
H1076 H 0.87039 0.49931 0.67952 0.0
H1077 H 0.8373 0.47078 0.67184 0.0
H1078 H 0.77793 0.50224 0.66245 0.0
H1079 H 0.73319 0.45693 0.6701 0.0
H1080 H 0.48124 0.27872 0.61523 0.0
H1081 H 0.50197 0.28358 0.63296 0.0
H1082 H 0.47287 0.34933 0.64066 0.0
H1083 H 0.45157 0.34445 0.62279 0.0
H1084 H 0.53752 0.36545 0.64715 0.0
H1085 H 0.44531 0.2469 0.65969 0.0
H1086 H 0.46139 0.24737 0.6471 0.0
H1087 H 0.43992 0.26727 0.64882 0.0
C1088 C 0.47937 0.29445 0.62062 0.0
C1089 C 0.46452 0.31106 0.61757 0.0
C1090 C 0.49102 0.29697 0.63079 0.0
C1091 C 0.48818 0.31616 0.63817 0.0
C1092 C 0.4748 0.33402 0.63509 0.0
H1093 H 0.60682 0.35161 0.6942 0.0
H1094 H 0.55964 0.34743 0.6859 0.0
C1095 C 0.46287 0.33136 0.62487 0.0
C1096 C 0.50017 0.31768 0.64897 0.0
H1097 H 0.4951 0.2696 0.66902 0.0
C1098 C 0.52782 0.34491 0.65215 0.0
C1099 C 0.48718 0.29086 0.65547 0.0
C1100 C 0.45662 0.26151 0.65266 0.0
C1101 C 0.54469 0.34499 0.6611 0.0
C1102 C 0.53313 0.31717 0.66711 0.0
C1103 C 0.50391 0.29089 0.66444 0.0
C1104 C 0.55414 0.3129 0.67445 0.0
C1105 C 0.57619 0.37387 0.66346 0.0
C1106 C 0.56471 0.29277 0.67141 0.0
C1107 C 0.59129 0.29499 0.67615 0.0
C1108 C 0.60756 0.31718 0.68407 0.0
C1109 C 0.59453 0.33424 0.68812 0.0
C1110 C 0.56786 0.33216 0.6833 0.0
H1111 H 0.58301 0.39234 0.65741 0.0
H1112 H 0.57522 0.3838 0.67112 0.0
H1113 H 0.59486 0.36777 0.66399 0.0
H1114 H 0.55437 0.27755 0.66466 0.0
H1115 H 0.60095 0.28158 0.67292 0.0
H1116 H 0.68697 0.10619 0.62154 0.0
H1117 H 0.70822 0.1332 0.6383 0.0
H1118 H 0.64262 0.16615 0.63729 0.0
H1119 H 0.62013 0.13764 0.62101 0.0
H1120 H 0.73865 0.18967 0.64319 0.0
H1121 H 0.63208 0.14201 0.66678 0.0
H1122 H 0.632 0.1248 0.65436 0.0
H1123 H 0.6246 0.15683 0.65499 0.0
C1124 C 0.67668 0.11868 0.62503 0.0
C1125 C 0.65162 0.11949 0.62001 0.0
C1126 C 0.68889 0.13418 0.63462 0.0
C1127 C 0.67662 0.15123 0.63929 0.0
C1128 C 0.65173 0.15215 0.63418 0.0
H1129 H 0.76211 0.32384 0.66621 0.0
H1130 H 0.75496 0.27709 0.65787 0.0
C1131 C 0.63903 0.13605 0.62477 0.0
C1132 C 0.69138 0.17038 0.64895 0.0
H1133 H 0.67283 0.19664 0.67079 0.0
C1134 C 0.72424 0.19059 0.64936 0.0
C1135 C 0.67321 0.17094 0.65736 0.0
C1136 C 0.63859 0.14712 0.65839 0.0
C1137 C 0.7388 0.21328 0.6573 0.0
C1138 C 0.71993 0.21702 0.66474 0.0
C1139 C 0.68754 0.19468 0.66497 0.0
C1140 C 0.73186 0.24632 0.67106 0.0
C1141 C 0.77424 0.23334 0.65743 0.0
C1142 C 0.72227 0.24545 0.68148 0.0
C1143 C 0.72573 0.27252 0.68624 0.0
C1144 C 0.73882 0.30079 0.68062 0.0
C1145 C 0.7518 0.30237 0.67074 0.0
C1146 C 0.74795 0.27545 0.66596 0.0
H1147 H 0.78486 0.21906 0.65537 0.0
H1148 H 0.7818 0.25195 0.6514 0.0
H1149 H 0.78359 0.24436 0.66521 0.0
H1150 H 0.70993 0.22339 0.68565 0.0
H1151 H 0.71539 0.27052 0.69385 0.0
H1152 H 0.50242 0.17969 0.11948 0.0
H1153 H 0.53872 0.18991 0.13398 0.0
H1154 H 0.51032 0.09214 0.13504 0.0
H1155 H 0.47319 0.0814 0.12042 0.0
H1156 H 0.51501 0.12017 0.15528 0.0
H1157 H 0.62196 0.19058 0.13187 0.0
H1158 H 0.59431 0.20339 0.12993 0.0
H1159 H 0.58397 0.16449 0.12594 0.0
C1160 C 0.50382 0.16023 0.12272 0.0
C1161 C 0.485 0.12972 0.1187 0.0
C1162 C 0.52471 0.16618 0.13102 0.0
C1163 C 0.52758 0.14189 0.13548 0.0
C1164 C 0.50858 0.11124 0.13165 0.0
H1165 H 0.69034 0.24112 0.17525 0.0
H1166 H 0.65347 0.19387 0.16549 0.0
C1167 C 0.4875 0.10519 0.12328 0.0
C1168 C 0.55059 0.14934 0.14415 0.0
H1169 H 0.62683 0.20233 0.15038 0.0
C1170 C 0.53968 0.13755 0.15423 0.0
C1171 C 0.5829 0.17124 0.14274 0.0
C1172 C 0.59654 0.18288 0.132 0.0
C1173 C 0.55981 0.14934 0.16305 0.0
C1174 C 0.59134 0.17409 0.16175 0.0
C1175 C 0.6027 0.18364 0.15153 0.0
C1176 C 0.61176 0.19367 0.17064 0.0
C1177 C 0.5468 0.1356 0.17366 0.0
C1178 C 0.6006 0.20769 0.17757 0.0
C1179 C 0.6217 0.23392 0.1835 0.0
C1180 C 0.65424 0.24711 0.18232 0.0
C1181 C 0.66529 0.23116 0.17634 0.0
C1182 C 0.64417 0.20432 0.17068 0.0
H1183 H 0.52974 0.11002 0.173 0.0
H1184 H 0.56568 0.13943 0.17932 0.0
H1185 H 0.53383 0.14656 0.17678 0.0
H1186 H 0.57596 0.20067 0.17758 0.0
H1187 H 0.61269 0.24618 0.18792 0.0
H1188 H 0.95153 0.37466 0.12501 0.0
H1189 H 0.93593 0.3729 0.14333 0.0
H1190 H 0.91513 0.44581 0.13683 0.0
H1191 H 0.93167 0.44854 0.11882 0.0
H1192 H 0.94374 0.45476 0.1557 0.0
H1193 H 0.84542 0.33075 0.15188 0.0
H1194 H 0.88447 0.33805 0.14983 0.0
H1195 H 0.86755 0.35315 0.1407 0.0
C1196 C 0.94375 0.39037 0.12753 0.0
C1197 C 0.94257 0.41153 0.12043 0.0
C1198 C 0.93478 0.3893 0.13799 0.0
C1199 C 0.92392 0.40892 0.14143 0.0
C1200 C 0.92353 0.43051 0.13439 0.0
H1201 H 0.80023 0.43087 0.17287 0.0
H1202 H 0.85095 0.44203 0.16624 0.0
C1203 C 0.93284 0.4319 0.12405 0.0
C1204 C 0.91089 0.4062 0.15207 0.0
H1205 H 0.84582 0.35863 0.16649 0.0
C1206 C 0.92273 0.43351 0.1582 0.0
C1207 C 0.88367 0.37839 0.15542 0.0
C1208 C 0.86931 0.34843 0.14912 0.0
C1209 C 0.90654 0.43447 0.16702 0.0
C1210 C 0.87792 0.40745 0.16979 0.0
C1211 C 0.86786 0.37934 0.16434 0.0
C1212 C 0.85458 0.40913 0.1765 0.0
C1213 C 0.91914 0.46486 0.17292 0.0
C1214 C 0.84061 0.38826 0.18491 0.0
C1215 C 0.81171 0.38229 0.18884 0.0
C1216 C 0.79625 0.39651 0.1842 0.0
C1217 C 0.81188 0.41981 0.1766 0.0
C1218 C 0.84093 0.42623 0.17283 0.0
H1219 H 0.94522 0.47921 0.17245 0.0
H1220 H 0.90941 0.4786 0.16936 0.0
H1221 H 0.91225 0.46064 0.18129 0.0
H1222 H 0.85062 0.37464 0.18778 0.0
H1223 H 0.79987 0.36396 0.19463 0.0
H1224 H 0.63417 0.55131 0.12056 0.0
H1225 H 0.61658 0.52255 0.13723 0.0
H1226 H 0.6809 0.48914 0.13315 0.0
H1227 H 0.69863 0.51762 0.11672 0.0
H1228 H 0.59093 0.45742 0.14241 0.0
H1229 H 0.70549 0.53263 0.16204 0.0
H1230 H 0.69402 0.54422 0.15012 0.0
H1231 H 0.71068 0.51938 0.14958 0.0
C1232 C 0.64434 0.5376 0.12319 0.0
C1233 C 0.66809 0.53708 0.11736 0.0
C1234 C 0.63433 0.52129 0.13272 0.0
C1235 C 0.64804 0.5044 0.13654 0.0
C1236 C 0.6706 0.50271 0.13048 0.0
H1237 H 0.62183 0.35178 0.16517 0.0
H1238 H 0.6084 0.38773 0.15717 0.0
C1239 C 0.68061 0.51892 0.12104 0.0
C1240 C 0.63948 0.48834 0.14684 0.0
H1241 H 0.67528 0.47891 0.16831 0.0
C1242 C 0.60906 0.46254 0.14825 0.0
C1243 C 0.66268 0.4957 0.15468 0.0
C1244 C 0.69494 0.52474 0.15409 0.0
C1245 C 0.60242 0.44181 0.1567 0.0
C1246 C 0.62708 0.44663 0.16366 0.0
C1247 C 0.65633 0.4746 0.16293 0.0
C1248 C 0.6257 0.42082 0.17009 0.0
C1249 C 0.56941 0.41425 0.15777 0.0
C1250 C 0.63896 0.42649 0.18026 0.0
C1251 C 0.64728 0.40592 0.18481 0.0
C1252 C 0.64247 0.37949 0.17922 0.0
C1253 C 0.62595 0.37208 0.16963 0.0
C1254 C 0.61786 0.39258 0.16509 0.0
H1255 H 0.55195 0.42134 0.15586 0.0
H1256 H 0.56564 0.39579 0.15207 0.0
H1257 H 0.5649 0.40425 0.1658 0.0
H1258 H 0.64531 0.44812 0.18429 0.0
H1259 H 0.66018 0.41234 0.19218 0.0
H1260 H 0.45261 0.17482 0.06194 0.0
H1261 H 0.47586 0.18449 0.04457 0.0
H1262 H 0.47381 0.09668 0.04593 0.0
H1263 H 0.44971 0.08639 0.06327 0.0
H1264 H 0.53314 0.19108 0.04182 0.0
H1265 H 0.44528 0.09713 0.01563 0.0
H1266 H 0.43492 0.10642 0.02807 0.0
H1267 H 0.45391 0.08382 0.02764 0.0
C1268 C 0.45657 0.15727 0.05848 0.0
C1269 C 0.4496 0.12999 0.06404 0.0
C1270 C 0.46977 0.16278 0.04853 0.0
C1271 C 0.47642 0.14124 0.04391 0.0
C1272 C 0.46834 0.11335 0.04924 0.0
H1273 H 0.63073 0.2185 1.0015 0.0
H1274 H 0.59017 0.17683 0.01223 0.0
C1275 C 0.45482 0.10765 0.05919 0.0
C1276 C 0.49548 0.15022 0.03423 0.0
H1277 H 0.49619 0.13082 0.00857 0.0
C1278 C 0.52502 0.17783 0.03456 0.0
C1279 C 0.48485 0.13289 0.02477 0.0
C1280 C 0.4529 0.10354 0.02392 0.0
C1281 C 0.54405 0.18897 0.02571 0.0
C1282 C 0.53372 0.17155 0.01626 0.0
C1283 C 0.50423 0.14377 0.01587 0.0
C1284 C 0.55283 0.18395 0.00666 0.0
C1285 C 0.57475 0.21993 0.02648 0.0
C1286 C 0.54435 0.19907 0.99912 0.0
C1287 C 0.56743 0.22236 0.99276 0.0
C1288 C 0.59908 0.23092 0.99407 0.0
C1289 C 0.60642 0.21216 1.00033 0.0
C1290 C 0.58327 0.18849 0.00652 0.0
H1291 H 0.5762 0.23315 0.03367 0.0
H1292 H 0.59465 0.2156 0.0267 0.0
H1293 H 0.57778 0.23488 0.01957 0.0
H1294 H 0.52094 0.19582 0.99908 0.0
H1295 H 0.56129 0.23673 0.98805 0.0
H1296 H 0.90959 0.34173 0.06001 0.0
H1297 H 0.88345 0.33367 0.04278 0.0
H1298 H 0.86716 0.4093 0.04924 0.0
H1299 H 0.89294 0.41749 0.06625 0.0
H1300 H 0.82172 0.32205 0.03708 0.0
H1301 H 0.91532 0.43518 0.0213 0.0
H1302 H 0.92112 0.41711 0.03277 0.0
H1303 H 0.902 0.43958 0.03385 0.0
C1304 C 0.89998 0.35627 0.0578 0.0
C1305 C 0.90362 0.38045 0.06446 0.0
C1306 C 0.88531 0.35181 0.04794 0.0
C1307 C 0.87429 0.37157 0.04462 0.0
C1308 C 0.87636 0.39443 0.05151 0.0
H1309 H 0.75715 0.40196 0.00852 0.0
H1310 H 0.8024 0.40592 0.01786 0.0
C1311 C 0.8909 0.3989 0.06128 0.0
C1312 C 0.86014 0.36863 0.03405 0.0
H1313 H 0.86377 0.41349 0.01312 0.0
C1314 C 0.83128 0.34159 0.03165 0.0
C1315 C 0.87285 0.39412 0.02695 0.0
C1316 C 0.90471 0.42301 0.02879 0.0
C1317 C 0.81341 0.34053 0.02284 0.0
C1318 C 0.82497 0.3671 0.01622 0.0
C1319 C 0.85494 0.39317 0.01819 0.0
C1320 C 0.8039 0.37034 0.0086 0.0
C1321 C 0.78115 0.312 0.02115 0.0
C1322 C 0.79124 0.35068 0.9998 0.0
C1323 C 0.76557 0.34882 0.9943 0.0
C1324 C 0.75225 0.36635 0.99767 0.0
C1325 C 0.76715 0.38836 0.00575 0.0
C1326 C 0.79289 0.39048 0.01113 0.0
H1327 H 0.77461 0.2945 0.02753 0.0
H1328 H 0.7631 0.31896 0.02064 0.0
H1329 H 0.78062 0.30061 0.01363 0.0
H1330 H 0.79967 0.3352 0.99766 0.0
H1331 H 0.75421 0.33143 0.98817 0.0
H1332 H 0.64817 0.55939 0.06085 0.0
H1333 H 0.62919 0.52822 0.04472 0.0
H1334 H 0.71192 0.52015 0.04443 0.0
H1335 H 0.73102 0.551 0.06054 0.0
H1336 H 0.65846 0.533 0.02358 0.0
H1337 H 0.63364 0.4288 0.04726 0.0
H1338 H 0.64021 0.46472 0.0531 0.0
H1339 H 0.67297 0.46174 0.0487 0.0
C1340 C 0.6626 0.55141 0.05727 0.0
C1341 C 0.69096 0.55738 0.06208 0.0
C1342 C 0.65173 0.5337 0.04803 0.0
C1343 C 0.66902 0.52166 0.04345 0.0
C1344 C 0.69813 0.52905 0.0479 0.0
H1345 H 0.66451 0.42171 0.98925 0.0
H1346 H 0.66783 0.46406 0.99989 0.0
C1347 C 0.70898 0.54667 0.05712 0.0
C1348 C 0.65545 0.49884 0.0347 0.0
H1349 H 0.63066 0.42278 0.02884 0.0
C1350 C 0.65202 0.50878 0.0247 0.0
C1351 C 0.64651 0.46717 0.03625 0.0
C1352 C 0.6482 0.45478 0.04692 0.0
C1353 C 0.64107 0.48802 0.01609 0.0
C1354 C 0.63371 0.4567 0.01755 0.0
C1355 C 0.63612 0.4467 0.02766 0.0
C1356 C 0.62577 0.43409 0.00877 0.0
C1357 C 0.63757 0.49982 0.00555 0.0
C1358 C 0.60005 0.40337 0.00974 0.0
C1359 C 0.59855 0.37909 1.00379 0.0
C1360 C 0.62241 0.38523 0.99665 0.0
C1361 C 0.64557 0.41646 0.9946 0.0
C1362 C 0.6475 0.44075 1.00072 0.0
H1363 H 0.63314 0.51949 0.00642 0.0
H1364 H 0.65977 0.50873 1.00115 0.0
H1365 H 0.61806 0.4809 1.00088 0.0
H1366 H 0.58288 0.39763 0.01584 0.0
H1367 H 0.58058 0.35515 0.00556 0.0
H1368 H 0.52657 0.83532 0.90399 0.0
H1369 H 0.50144 0.81885 0.88678 0.0
H1370 H 0.56249 0.91207 0.87481 0.0
H1371 H 0.58709 0.92906 0.89222 0.0
H1372 H 0.50496 0.88832 0.8668 0.0
H1373 H 0.53979 0.79994 0.86253 0.0
H1374 H 0.5181 0.79288 0.87438 0.0
H1375 H 0.55534 0.82883 0.87288 0.0
C1376 C 0.53441 0.85243 0.89773 0.0
C1377 C 0.55896 0.88341 0.89943 0.0
C1378 C 0.5203 0.8429 0.88785 0.0
C1379 C 0.53091 0.8639 0.87939 0.0
C1380 C 0.55427 0.89533 0.88118 0.0
H1381 H 0.43928 0.75732 0.8219 0.0
H1382 H 0.48393 0.79679 0.83244 0.0
C1383 C 0.56815 0.90505 0.89114 0.0
C1384 C 0.51718 0.85269 0.86876 0.0
H1385 H 0.49434 0.791 0.85212 0.0
C1386 C 0.50319 0.86741 0.86347 0.0
C1387 C 0.51593 0.8262 0.86414 0.0
C1388 C 0.53347 0.81134 0.86873 0.0
C1389 C 0.48545 0.85455 0.85424 0.0
C1390 C 0.48075 0.82571 0.85041 0.0
C1391 C 0.4973 0.81275 0.85513 0.0
C1392 C 0.45524 0.80618 0.84277 0.0
C1393 C 0.47123 0.87163 0.84887 0.0
C1394 C 0.42441 0.79861 0.84495 0.0
C1395 C 0.39918 0.77641 0.83896 0.0
C1396 C 0.40392 0.76068 0.8307 0.0
C1397 C 0.43487 0.76907 0.82818 0.0
C1398 C 0.46036 0.79158 0.83421 0.0
H1399 H 0.48717 0.8974 0.8496 0.0
H1400 H 0.46644 0.86546 0.84043 0.0
H1401 H 0.44882 0.86552 0.85275 0.0
H1402 H 0.41953 0.80862 0.85167 0.0
H1403 H 0.37569 0.77068 0.84111 0.0
H1404 H 0.11405 0.69784 0.88869 0.0
H1405 H 0.13866 0.71774 0.87162 0.0
H1406 H 0.11136 0.62395 0.86209 0.0
H1407 H 0.08717 0.60391 0.87914 0.0
H1408 H 0.18852 0.70604 0.86511 0.0
H1409 H 0.09114 0.66357 0.83595 0.0
H1410 H 0.08637 0.66938 0.84964 0.0
H1411 H 0.08686 0.63506 0.84556 0.0
C1412 C 0.11275 0.68137 0.88289 0.0
C1413 C 0.09887 0.64931 0.8853 0.0
C1414 C 0.12673 0.69278 0.87313 0.0
C1415 C 0.12641 0.67225 0.86556 0.0
C1416 C 0.11133 0.64009 0.86777 0.0
H1417 H 0.21244 0.64277 0.81674 0.0
H1418 H 0.17378 0.64784 0.82681 0.0
C1419 C 0.09778 0.62873 0.87755 0.0
C1420 C 0.14571 0.6845 0.856 0.0
H1421 H 0.14182 0.67691 0.82937 0.0
C1422 C 0.17849 0.70048 0.85725 0.0
C1423 C 0.13235 0.67697 0.84583 0.0
C1424 C 0.09723 0.66052 0.84411 0.0
C1425 C 0.19831 0.70676 0.84867 0.0
C1426 C 0.18494 0.69792 0.83844 0.0
C1427 C 0.15215 0.68391 0.83715 0.0
C1428 C 0.20383 0.69774 0.82947 0.0
C1429 C 0.23302 0.72015 0.85083 0.0
C1430 C 0.23251 0.72455 0.82675 0.0
C1431 C 0.255 0.72149 0.82115 0.0
C1432 C 0.24844 0.69181 0.81784 0.0
C1433 C 0.21795 0.66597 0.81914 0.0
C1434 C 0.19584 0.66886 0.82494 0.0
H1435 H 0.23826 0.71999 0.85932 0.0
H1436 H 0.24177 0.70666 0.84661 0.0
H1437 H 0.24639 0.74483 0.84812 0.0
H1438 H 0.23883 0.74726 0.8299 0.0
H1439 H 0.27858 0.74158 0.82062 0.0
H1440 H 0.32028 0.50724 0.89511 0.0
H1441 H 0.326 0.52761 0.87735 0.0
H1442 H 0.3771 0.48236 0.86866 0.0
H1443 H 0.3716 0.46171 0.8866 0.0
H1444 H 0.39048 0.56353 0.86442 0.0
H1445 H 0.29119 0.45138 0.84867 0.0
H1446 H 0.29168 0.4613 0.86229 0.0
H1447 H 0.31997 0.45192 0.85768 0.0
C1448 C 0.33313 0.50188 0.8895 0.0
C1449 C 0.34542 0.48276 0.89228 0.0
C1450 C 0.33634 0.51354 0.87934 0.0
C1451 C 0.3517 0.50624 0.8717 0.0
C1452 C 0.36504 0.4881 0.87447 0.0
H1453 H 0.36697 0.61468 0.8152 0.0
H1454 H 0.37715 0.57756 0.82476 0.0
C1455 C 0.36205 0.47652 0.88472 0.0
C1456 C 0.35243 0.51715 0.86084 0.0
H1457 H 0.30668 0.49707 0.83869 0.0
C1458 C 0.37291 0.5489 0.8586 0.0
C1459 C 0.32925 0.49789 0.85337 0.0
C1460 C 0.30667 0.46365 0.85553 0.0
C1461 C 0.36936 0.56251 0.8494 0.0
C1462 C 0.34478 0.54367 0.84221 0.0
C1463 C 0.32569 0.51139 0.84413 0.0
C1464 C 0.33478 0.5582 0.83399 0.0
C1465 C 0.39018 0.59747 0.84794 0.0
C1466 C 0.30633 0.55756 0.83534 0.0
C1467 C 0.3004 0.57836 0.82983 0.0
C1468 C 0.32265 0.59989 0.8228 0.0
C1469 C 0.34925 0.5979 0.82047 0.0
C1470 C 0.35527 0.57704 0.82603 0.0
H1471 H 0.40553 0.6091 0.85489 0.0
H1472 H 0.40552 0.60219 0.84107 0.0
H1473 H 0.37566 0.60831 0.84643 0.0
H1474 H 0.29012 0.5432 0.84141 0.0
H1475 H 0.27996 0.57982 0.83185 0.0
H1476 H 0.60801 0.95197 0.95716 0.0
H1477 H 0.58914 0.95032 0.97499 0.0
H1478 H 0.54767 0.84987 0.97537 0.0
H1479 H 0.5673 0.85148 0.9579 0.0
H1480 H 0.53294 0.92538 0.98227 0.0
H1481 H 0.58738 0.86915 1.00353 0.0
H1482 H 0.60041 0.88556 0.99063 0.0
H1483 H 0.56867 0.8455 0.9922 0.0
C1484 C 0.59531 0.92962 0.96114 0.0
C1485 C 0.58935 0.90186 0.95613 0.0
C1486 C 0.58457 0.92873 0.97133 0.0
C1487 C 0.56772 0.90009 0.97668 0.0
C1488 C 0.56171 0.87245 0.97163 0.0
H1489 H 0.40534 0.80202 1.00139 0.0
H1490 H 0.45039 0.85026 0.99561 0.0
C1491 C 0.57267 0.87335 0.96155 0.0
C1492 C 0.55346 0.89791 0.98709 0.0
H1493 H 0.53243 0.85194 0.00882 0.0
C1494 C 0.53355 0.91012 0.98826 0.0
C1495 C 0.55537 0.87965 0.99528 0.0
C1496 C 0.5795 0.86965 0.99537 0.0
C1497 C 0.51221 0.90056 0.99658 0.0
C1498 C 0.50978 0.87715 1.00357 0.0
C1499 C 0.53312 0.86897 1.00331 0.0
C1500 C 0.47992 0.85553 0.0091 0.0
C1501 C 0.4914 0.91441 0.99743 0.0
C1502 C 0.48028 0.84265 0.01895 0.0
C1503 C 0.45426 0.81415 0.02217 0.0
C1504 C 0.4277 0.7984 0.01558 0.0
C1505 C 0.42569 0.81361 0.00657 0.0
C1506 C 0.45159 0.84166 1.00331 0.0
H1507 H 0.50551 0.94016 0.9962 0.0
H1508 H 0.47313 0.90463 0.99115 0.0
H1509 H 0.47983 0.9097 0.00518 0.0
H1510 H 0.50169 0.85292 0.02363 0.0
H1511 H 0.45637 0.80291 0.02918 0.0
H1512 H 0.11958 0.67808 0.94809 0.0
H1513 H 0.14577 0.68127 0.96486 0.0
H1514 H 0.17378 0.61799 0.95311 0.0
H1515 H 0.14722 0.61415 0.93647 0.0
H1516 H 0.14607 0.60061 0.97259 0.0
H1517 H 0.23921 0.72698 0.97219 0.0
H1518 H 0.19941 0.71841 0.97061 0.0
H1519 H 0.21671 0.70685 0.96061 0.0
C1520 C 0.1318 0.66529 0.94902 0.0
C1521 C 0.13134 0.64589 0.94093 0.0
C1522 C 0.14673 0.66712 0.95862 0.0
C1523 C 0.16181 0.64993 0.96023 0.0
C1524 C 0.16214 0.63132 0.95206 0.0
H1525 H 0.28701 0.62563 0.99584 0.0
H1526 H 0.24077 0.61707 0.98595 0.0
C1527 C 0.14708 0.62929 0.94252 0.0
C1528 C 0.17669 0.65038 0.97046 0.0
H1529 H 0.23907 0.69709 0.98649 0.0
C1530 C 0.16617 0.6218 0.97571 0.0
C1531 C 0.20264 0.67808 0.9746 0.0
C1532 C 0.21541 0.70933 0.9692 0.0
C1533 C 0.18188 0.61992 0.98467 0.0
C1534 C 0.2089 0.64727 0.98844 0.0
C1535 C 0.2182 0.67617 0.98361 0.0
C1536 C 0.23096 0.64583 0.99607 0.0
C1537 C 0.17009 0.58852 0.98983 0.0
C1538 C 0.24007 0.66381 0.00531 0.0
C1539 C 0.26638 0.66833 0.01109 0.0
C1540 C 0.28423 0.65559 0.00751 0.0
C1541 C 0.27351 0.63557 0.99878 0.0
C1542 C 0.24704 0.63063 0.99313 0.0
H1543 H 0.14445 0.57265 0.98839 0.0
H1544 H 0.18253 0.57729 0.98648 0.0
H1545 H 0.17465 0.59109 0.99842 0.0
H1546 H 0.22807 0.67589 0.00766 0.0
H1547 H 0.27443 0.68414 0.01775 0.0
H1548 H 0.30687 0.48529 0.95154 0.0
H1549 H 0.32984 0.51671 0.96736 0.0
H1550 H 0.41028 0.50532 0.96493 0.0
H1551 H 0.38744 0.47359 0.94904 0.0
H1552 H 0.38238 0.50092 0.98698 0.0
H1553 H 0.41199 0.60693 0.96355 0.0
H1554 H 0.37205 0.57505 0.96211 0.0
H1555 H 0.40381 0.57053 0.95762 0.0
C1556 C 0.32927 0.48908 0.95441 0.0
C1557 C 0.34547 0.47721 0.94893 0.0
C1558 C 0.34231 0.507 0.96347 0.0
C1559 C 0.37179 0.51344 0.96726 0.0
C1560 C 0.38746 0.50051 0.96213 0.0
H1561 H 0.46131 0.67883 0.00542 0.0
H1562 H 0.46097 0.63682 0.99546 0.0
C1563 C 0.37442 0.48255 0.95303 0.0
C1564 C 0.38722 0.53609 0.97596 0.0
H1565 H 0.41518 0.61261 0.982 0.0
C1566 C 0.39005 0.52548 0.98591 0.0
C1567 C 0.39774 0.56813 0.97448 0.0
C1568 C 0.39656 0.58102 0.96385 0.0
C1569 C 0.40167 0.54601 0.99457 0.0
C1570 C 0.41025 0.57773 0.99322 0.0
C1571 C 0.4088 0.5884 0.98311 0.0
C1572 C 0.41757 0.59986 1.0021 0.0
C1573 C 0.40431 0.53344 0.00507 0.0
C1574 C 0.39504 0.59276 0.00991 0.0
C1575 C 0.39586 0.61676 0.01587 0.0
C1576 C 0.41864 0.64816 0.01385 0.0
C1577 C 0.44351 0.65477 0.00711 0.0
C1578 C 0.44314 0.63074 1.00135 0.0
H1579 H 0.40888 0.5139 1.00411 0.0
H1580 H 0.4234 0.55198 0.00999 0.0
H1581 H 0.38171 0.52406 0.00927 0.0
H1582 H 0.37481 0.56932 0.01058 0.0
H1583 H 0.37624 0.61109 0.02095 0.0
H1584 H 0.14955 0.53134 0.44415 0.0
H1585 H 0.17489 0.54355 0.46136 0.0
H1586 H 0.14373 0.44602 0.4662 0.0
H1587 H 0.11783 0.4333 0.44886 0.0
H1588 H 0.13885 0.51266 0.48113 0.0
H1589 H 0.24205 0.49893 0.47367 0.0
H1590 H 0.22246 0.5072 0.46319 0.0
H1591 H 0.20367 0.46906 0.46905 0.0
C1592 C 0.14835 0.5124 0.44877 0.0
C1593 C 0.1315 0.48126 0.44511 0.0
C1594 C 0.16278 0.51948 0.45864 0.0
C1595 C 0.16099 0.49569 0.46506 0.0
C1596 C 0.14539 0.46471 0.46133 0.0
H1597 H 0.26758 0.53395 0.52348 0.0
H1598 H 0.2272 0.50394 0.5102 0.0
C1599 C 0.13076 0.45752 0.4514 0.0
C1600 C 0.17466 0.5037 0.47579 0.0
H1601 H 0.23913 0.51768 0.49018 0.0
C1602 C 0.16058 0.5134 0.48319 0.0
C1603 C 0.2028 0.5044 0.47845 0.0
C1604 C 0.21889 0.49448 0.47071 0.0
C1605 C 0.17437 0.52458 0.49312 0.0
C1606 C 0.20345 0.52686 0.4956 0.0
C1607 C 0.21683 0.51594 0.48832 0.0
C1608 C 0.22189 0.54274 0.50525 0.0
C1609 C 0.15769 0.53394 0.5008 0.0
C1610 C 0.2312 0.57414 0.5073 0.0
C1611 C 0.25392 0.59122 0.51503 0.0
C1612 C 0.26824 0.57738 0.52068 0.0
C1613 C 0.25701 0.54528 0.51923 0.0
C1614 C 0.23406 0.52814 0.51159 0.0
H1615 H 0.13181 0.52049 0.49942 0.0
H1616 H 0.16259 0.5302 0.50903 0.0
H1617 H 0.16583 0.55915 0.49974 0.0
H1618 H 0.22272 0.5862 0.5024 0.0
H1619 H 0.26231 0.61598 0.51586 0.0
H1620 H 0.57876 0.70317 0.44693 0.0
H1621 H 0.55884 0.70224 0.46448 0.0
H1622 H 0.55508 0.78514 0.45721 0.0
H1623 H 0.57437 0.78596 0.43959 0.0
H1624 H 0.58047 0.74643 0.48104 0.0
H1625 H 0.46449 0.72146 0.46522 0.0
H1626 H 0.49283 0.71859 0.45727 0.0
H1627 H 0.49799 0.7563 0.46023 0.0
C1628 C 0.57385 0.72131 0.44907 0.0
C1629 C 0.57776 0.74439 0.4418 0.0
C1630 C 0.56257 0.7208 0.45912 0.0
C1631 C 0.55501 0.74333 0.46208 0.0
C1632 C 0.56017 0.76717 0.45501 0.0
H1633 H 0.44086 0.73323 0.51519 0.0
H1634 H 0.48114 0.7576 0.50171 0.0
C1635 C 0.57127 0.76762 0.44495 0.0
C1636 C 0.54024 0.74084 0.47237 0.0
H1637 H 0.47156 0.72623 0.48346 0.0
C1638 C 0.55674 0.74225 0.48159 0.0
C1639 C 0.50933 0.73553 0.47307 0.0
C1640 C 0.48994 0.7326 0.46344 0.0
C1641 C 0.54293 0.73797 0.49149 0.0
C1642 C 0.51167 0.73166 0.49216 0.0
C1643 C 0.49563 0.73134 0.48296 0.0
C1644 C 0.49358 0.72168 0.50205 0.0
C1645 C 0.56186 0.74002 0.50113 0.0
C1646 C 0.48812 0.6941 0.50703 0.0
C1647 C 0.46522 0.6802 0.51475 0.0
C1648 C 0.44715 0.69347 0.51759 0.0
C1649 C 0.45449 0.7225 0.51324 0.0
C1650 C 0.47741 0.73639 0.50549 0.0
H1651 H 0.58751 0.75543 0.49977 0.0
H1652 H 0.55521 0.74906 0.50797 0.0
H1653 H 0.55742 0.7163 0.50308 0.0
H1654 H 0.49979 0.68196 0.50439 0.0
H1655 H 0.46011 0.65784 0.51795 0.0
H1656 H 0.40572 0.85598 0.43396 0.0
H1657 H 0.39795 0.82044 0.44838 0.0
H1658 H 0.33452 0.84409 0.46296 0.0
H1659 H 0.34157 0.87926 0.44829 0.0
H1660 H 0.41424 0.83729 0.46842 0.0
H1661 H 0.28627 0.74971 0.46574 0.0
H1662 H 0.30723 0.777 0.45532 0.0
H1663 H 0.29569 0.78965 0.46672 0.0
C1664 C 0.38962 0.8532 0.44013 0.0
C1665 C 0.37423 0.87042 0.43999 0.0
C1666 C 0.3853 0.83294 0.4484 0.0
C1667 C 0.36566 0.82952 0.45677 0.0
C1668 C 0.34939 0.84591 0.45651 0.0
H1669 H 0.38453 0.74647 0.51585 0.0
H1670 H 0.38526 0.78388 0.50304 0.0
C1671 C 0.35343 0.86601 0.44813 0.0
C1672 C 0.36401 0.81017 0.46596 0.0
H1673 H 0.31417 0.74529 0.48017 0.0
C1674 C 0.39232 0.81722 0.47102 0.0
C1675 C 0.33545 0.78394 0.46932 0.0
C1676 C 0.30444 0.77437 0.46395 0.0
C1677 C 0.39301 0.79837 0.47914 0.0
C1678 C 0.36445 0.77216 0.48251 0.0
C1679 C 0.33603 0.76552 0.47763 0.0
C1680 C 0.36373 0.74988 0.49049 0.0
C1681 C 0.42447 0.80594 0.48369 0.0
C1682 C 0.35084 0.71826 0.48779 0.0
C1683 C 0.35008 0.69688 0.4951 0.0
C1684 C 0.36227 0.70661 0.50529 0.0
C1685 C 0.37519 0.7383 0.50803 0.0
C1686 C 0.37572 0.75972 0.5007 0.0
H1687 H 0.44428 0.82203 0.47856 0.0
H1688 H 0.42803 0.81758 0.4914 0.0
H1689 H 0.42543 0.78428 0.4849 0.0
H1690 H 0.34151 0.7101 0.47997 0.0
H1691 H 0.33989 0.67266 0.49272 0.0
H1692 H 0.06964 0.5092 0.38803 0.0
H1693 H 0.0861 0.52561 0.37005 0.0
H1694 H 0.12723 0.46718 0.36914 0.0
H1695 H 0.10957 0.44964 0.38711 0.0
H1696 H 0.14534 0.55852 0.36514 0.0
H1697 H 0.09004 0.45284 0.34006 0.0
H1698 H 0.07652 0.45294 0.35314 0.0
H1699 H 0.10999 0.44841 0.35117 0.0
C1700 C 0.08163 0.49932 0.38393 0.0
C1701 C 0.08864 0.47839 0.38899 0.0
C1702 C 0.0909 0.50863 0.37362 0.0
C1703 C 0.10774 0.49754 0.36818 0.0
C1704 C 0.1136 0.47552 0.37306 0.0
H1705 H 0.25188 0.56431 0.32576 0.0
H1706 H 0.20362 0.53059 0.33526 0.0
C1707 C 0.10377 0.46571 0.38336 0.0
C1708 C 0.12306 0.51261 0.35813 0.0
H1709 H 0.137 0.49802 0.33324 0.0
C1710 C 0.14289 0.54533 0.35808 0.0
C1711 C 0.11992 0.49543 0.34892 0.0
C1712 C 0.09769 0.46049 0.34828 0.0
C1713 C 0.16109 0.56117 0.34934 0.0
C1714 C 0.1591 0.54387 0.34029 0.0
C1715 C 0.13825 0.51127 0.34014 0.0
C1716 C 0.18256 0.55861 0.33183 0.0
C1717 C 0.18396 0.59604 0.35018 0.0
C1718 C 0.18576 0.58435 0.32609 0.0
C1719 C 0.21356 0.6038 0.32061 0.0
C1720 C 0.23822 0.59755 0.32086 0.0
C1721 C 0.23326 0.56974 0.32554 0.0
C1722 C 0.20563 0.55038 0.33095 0.0
H1723 H 0.18571 0.60498 0.35828 0.0
H1724 H 0.20783 0.60189 0.34771 0.0
H1725 H 0.17605 0.60861 0.34493 0.0
H1726 H 0.16794 0.59081 0.32656 0.0
H1727 H 0.21689 0.62515 0.31707 0.0
H1728 H 0.51212 0.70241 0.39011 0.0
H1729 H 0.47934 0.67532 0.37491 0.0
H1730 H 0.52843 0.62509 0.37105 0.0
H1731 H 0.56163 0.65233 0.38647 0.0
H1732 H 0.52539 0.65598 0.35269 0.0
H1733 H 0.4074 0.58512 0.36977 0.0
H1734 H 0.42708 0.62425 0.37493 0.0
H1735 H 0.44314 0.59942 0.37747 0.0
C1736 C 0.51565 0.6852 0.38617 0.0
C1737 C 0.5395 0.67954 0.38949 0.0
C1738 C 0.4967 0.66952 0.37751 0.0
C1739 C 0.50111 0.64784 0.37193 0.0
C1740 C 0.52441 0.64148 0.37533 0.0
H1741 H 0.36323 0.59954 0.32178 0.0
H1742 H 0.39689 0.58613 0.33221 0.0
C1743 C 0.54327 0.65697 0.38414 0.0
C1744 C 0.48331 0.63485 0.36198 0.0
H1745 H 0.40907 0.60546 0.35212 0.0
C1746 C 0.49987 0.64397 0.35252 0.0
C1747 C 0.45003 0.61846 0.36169 0.0
C1748 C 0.4309 0.60594 0.37153 0.0
C1749 C 0.48415 0.6405 0.34292 0.0
C1750 C 0.45121 0.62809 0.34284 0.0
C1751 C 0.43438 0.61544 0.35213 0.0
C1752 C 0.43497 0.63417 0.33407 0.0
C1753 C 0.50323 0.65191 0.33304 0.0
C1754 C 0.44568 0.6654 0.33127 0.0
C1755 C 0.42654 0.67297 0.32541 0.0
C1756 C 0.39636 0.6495 0.32216 0.0
C1757 C 0.38667 0.61797 0.32405 0.0
C1758 C 0.4058 0.61035 0.33006 0.0
H1759 H 0.52322 0.64768 0.33338 0.0
H1760 H 0.48865 0.64022 0.32596 0.0
H1761 H 0.51331 0.67758 0.3323 0.0
H1762 H 0.46762 0.68433 0.33444 0.0
H1763 H 0.43432 0.69747 0.32414 0.0
H1764 H 0.34923 0.8991 0.38758 0.0
H1765 H 0.34369 0.87575 0.37024 0.0
H1766 H 0.44469 0.92614 0.36716 0.0
H1767 H 0.45046 0.94882 0.38458 0.0
H1768 H 0.36387 0.89687 0.34958 0.0
H1769 H 0.42151 0.83481 0.36634 0.0
H1770 H 0.40874 0.85582 0.3744 0.0
H1771 H 0.44458 0.87678 0.3671 0.0
C1772 C 0.37023 0.90566 0.38313 0.0
C1773 C 0.40029 0.92533 0.38753 0.0
C1774 C 0.36704 0.89233 0.37321 0.0
C1775 C 0.39381 0.89866 0.36752 0.0
C1776 C 0.42374 0.92036 0.37153 0.0
H1777 H 0.39753 0.77804 0.31887 0.0
H1778 H 0.41464 0.82764 0.32795 0.0
C1779 C 0.42698 0.93336 0.38148 0.0
C1780 C 0.39044 0.88014 0.35799 0.0
H1781 H 0.40489 0.8243 0.34884 0.0
C1782 C 0.37311 0.88123 0.34936 0.0
C1783 C 0.40256 0.85976 0.3577 0.0
C1784 C 0.42016 0.85641 0.36689 0.0
C1785 C 0.36701 0.86196 0.34054 0.0
C1786 C 0.3782 0.84084 0.34043 0.0
C1787 C 0.39661 0.84074 0.34887 0.0
C1788 C 0.36768 0.81554 0.3325 0.0
C1789 C 0.34826 0.86408 0.3315 0.0
C1790 C 0.33558 0.7928 0.33168 0.0
C1791 C 0.32588 0.76464 0.32645 0.0
C1792 C 0.34806 0.75866 0.32192 0.0
C1793 C 0.37992 0.78235 0.32201 0.0
C1794 C 0.3897 0.81058 0.3273 0.0
H1795 H 0.35138 0.88785 0.33098 0.0
H1796 H 0.35516 0.85848 0.32394 0.0
H1797 H 0.32287 0.84711 0.33275 0.0
H1798 H 0.31819 0.79564 0.33581 0.0
H1799 H 0.30116 0.74663 0.32656 0.0
H1800 H 0.31421 0.0417 0.10725 0.0
H1801 H 0.26446 0.03137 0.11497 0.0
H1802 H 0.29323 0.12875 0.11126 0.0
H1803 H 0.34263 0.13932 0.1037 0.0
H1804 H 0.26926 0.10498 0.13121 0.0
H1805 H 0.18993 0.02865 0.09918 0.0
H1806 H 0.21573 0.0171 0.10501 0.0
H1807 H 0.23199 0.05277 0.0976 0.0
C1808 C 0.30978 0.06082 0.10801 0.0
C1809 C 0.33243 0.09131 0.10483 0.0
C1810 C 0.28137 0.05489 0.11242 0.0
C1811 C 0.27513 0.07931 0.11367 0.0
C1812 C 0.2976 0.1096 0.11043 0.0
H1813 H 0.10698 0.08468 0.11821 0.0
H1814 H 0.1584 0.09135 0.11458 0.0
C1815 C 0.32584 0.11553 0.10605 0.0
C1816 C 0.24525 0.07384 0.11824 0.0
H1817 H 0.16648 0.03949 0.11316 0.0
C1818 C 0.24669 0.09039 0.12734 0.0
C1819 C 0.21593 0.055 0.11312 0.0
C1820 C 0.2131 0.03749 0.10315 0.0
C1821 C 0.21969 0.08925 0.13131 0.0
C1822 C 0.19052 0.07086 0.12607 0.0
C1823 C 0.18893 0.05359 0.11715 0.0
C1824 C 0.16162 0.07074 0.12917 0.0
C1825 C 0.22278 0.1087 0.14078 0.0
C1826 C 0.14684 0.05796 0.13877 0.0
C1827 C 0.11738 0.05433 0.14091 0.0
C1828 C 0.10228 0.06324 0.13344 0.0
C1829 C 0.11801 0.07757 0.12411 0.0
C1830 C 0.14734 0.08128 0.12201 0.0
H1831 H 0.24778 0.12587 0.14277 0.0
H1832 H 0.21014 0.12157 0.13945 0.0
H1833 H 0.21198 0.09303 0.14762 0.0
H1834 H 0.15726 0.0493 0.14436 0.0
H1835 H 0.10557 0.04261 0.14806 0.0
H1836 H 0.93307 0.29045 0.1069 0.0
H1837 H 0.92774 0.2446 0.11607 0.0
H1838 H 0.0087 0.25538 0.09982 0.0
H1839 H 0.01479 0.3018 0.09089 0.0
H1840 H 0.91697 0.18932 0.10985 0.0
H1841 H 0.0335 0.25083 0.12946 0.0
H1842 H 0.01733 0.27155 0.12272 0.0
H1843 H 0.03723 0.25574 0.11552 0.0
C1844 C 0.94973 0.28305 0.10526 0.0
C1845 C 0.97454 0.3 0.09821 0.0
C1846 C 0.94667 0.25682 0.11053 0.0
C1847 C 0.96828 0.2469 0.10886 0.0
C1848 C 0.99233 0.26311 0.10153 0.0
H1849 H 0.95224 0.06986 0.11612 0.0
H1850 H 0.94512 0.11355 0.11182 0.0
C1851 C 0.99562 0.28952 0.09634 0.0
C1852 C 0.96539 0.21932 0.11461 0.0
H1853 H 0.00783 0.19463 0.12874 0.0
C1854 C 0.93674 0.19061 0.11409 0.0
C1855 C 0.9908 0.22099 0.12044 0.0
C1856 C 0.0213 0.25153 0.12218 0.0
C1857 C 0.9334 0.1633 0.1187 0.0
C1858 C 0.95966 0.16444 0.12375 0.0
C1859 C 0.98774 0.1935 0.12478 0.0
C1860 C 0.95965 0.13559 0.12708 0.0
C1861 C 0.90173 0.13348 0.11807 0.0
C1862 C 0.97024 0.1331 0.13713 0.0
C1863 C 0.97476 0.10807 0.1396 0.0
C1864 C 0.9689 0.08518 0.13203 0.0
C1865 C 0.95686 0.08699 0.12217 0.0
C1866 C 0.95249 0.11192 0.11971 0.0
H1867 H 0.88235 0.13864 0.11787 0.0
H1868 H 0.90018 0.12092 0.11071 0.0
H1869 H 0.89803 0.11776 0.12481 0.0
H1870 H 0.97619 0.15119 0.14294 0.0
H1871 H 0.98469 0.10777 0.14718 0.0
H1872 H 0.81487 0.68322 0.10036 0.0
H1873 H 0.8496 0.73429 0.10839 0.0
H1874 H 0.77138 0.74913 0.11131 0.0
H1875 H 0.73641 0.69814 0.10311 0.0
H1876 H 0.82346 0.8006 0.10394 0.0
H1877 H 0.85554 0.75706 0.13917 0.0
H1878 H 0.86307 0.74318 0.12723 0.0
H1879 H 0.82326 0.73154 0.13056 0.0
C1880 C 0.80498 0.69733 0.10267 0.0
C1881 C 0.77276 0.68647 0.10112 0.0
C1882 C 0.82486 0.72642 0.10737 0.0
C1883 C 0.81295 0.74518 0.11072 0.0
C1884 C 0.78101 0.73486 0.10891 0.0
H1885 H 0.92417 0.92085 0.14669 0.0
H1886 H 0.88452 0.86631 0.14221 0.0
C1887 C 0.76108 0.70576 0.10417 0.0
C1888 C 0.83419 0.7761 0.1157 0.0
H1889 H 0.88843 0.81203 0.13545 0.0
C1890 C 0.83736 0.80303 0.1109 0.0
C1891 C 0.85198 0.77931 0.1249 0.0
C1892 C 0.84808 0.7512 0.13083 0.0
C1893 C 0.85886 0.83307 0.11474 0.0
C1894 C 0.87813 0.83634 0.12352 0.0
C1895 C 0.87394 0.80945 0.12864 0.0
C1896 C 0.90395 0.8676 0.12698 0.0
C1897 C 0.86106 0.86115 0.10929 0.0
C1898 C 0.92869 0.88573 0.12012 0.0
C1899 C 0.95123 0.91656 0.12266 0.0
C1900 C 0.94973 0.92991 0.13217 0.0
C1901 C 0.92613 0.91111 0.13937 0.0
C1902 C 0.90335 0.88007 0.13678 0.0
H1903 H 0.83923 0.85473 0.10476 0.0
H1904 H 0.86544 0.87979 0.115 0.0
H1905 H 0.88094 0.8709 0.10372 0.0
H1906 H 0.92996 0.87632 0.11262 0.0
H1907 H 0.96933 0.93033 0.117 0.0
H1908 H 0.03374 0.32595 0.40961 0.0
H1909 H 0.03306 0.27909 0.40329 0.0
H1910 H 0.13458 0.32915 0.40414 0.0
H1911 H 0.13545 0.3762 0.41013 0.0
H1912 H 0.11296 0.29571 0.38646 0.0
H1913 H 0.04837 0.21961 0.4201 0.0
H1914 H 0.02717 0.23529 0.41354 0.0
H1915 H 0.06373 0.26127 0.4202 0.0
C1916 C 0.05591 0.32691 0.40852 0.0
C1917 C 0.08464 0.35484 0.41045 0.0
C1918 C 0.0555 0.30003 0.40494 0.0
C1919 C 0.08378 0.30031 0.40337 0.0
C1920 C 0.11244 0.32822 0.40528 0.0
H1921 H 0.09724 0.13379 0.40026 0.0
H1922 H 0.10357 0.18467 0.40433 0.0
C1923 C 0.11287 0.35513 0.40875 0.0
C1924 C 0.08373 0.27175 0.39971 0.0
H1925 H 0.05675 0.19502 0.40569 0.0
C1926 C 0.10072 0.2737 0.39068 0.0
C1927 C 0.06812 0.24305 0.40526 0.0
C1928 C 0.05109 0.23967 0.41537 0.0
C1929 C 0.10244 0.24786 0.38705 0.0
C1930 C 0.08616 0.21896 0.39247 0.0
C1931 C 0.06917 0.21706 0.40148 0.0
C1932 C 0.0869 0.19048 0.38921 0.0
C1933 C 0.12241 0.25208 0.37764 0.0
C1934 C 0.07657 0.17711 0.37918 0.0
C1935 C 0.07352 0.14809 0.37676 0.0
C1936 C 0.08017 0.13169 0.38439 0.0
C1937 C 0.09193 0.14584 0.39421 0.0
C1938 C 0.09538 0.17489 0.39657 0.0
H1939 H 0.14027 0.27716 0.37632 0.0
H1940 H 0.13472 0.23874 0.37853 0.0
H1941 H 0.10708 0.24332 0.37055 0.0
H1942 H 0.06927 0.18822 0.3734 0.0
H1943 H 0.06386 0.13754 0.36919 0.0
H1944 H 0.70898 0.75859 0.40169 0.0
H1945 H 0.76202 0.79359 0.39484 0.0
H1946 H 0.74365 0.86962 0.39387 0.0
H1947 H 0.69081 0.83493 0.40037 0.0
H1948 H 0.77308 0.86825 0.37629 0.0
H1949 H 0.83515 0.86014 0.41174 0.0
H1950 H 0.8093 0.8235 0.40533 0.0
H1951 H 0.79329 0.84479 0.41144 0.0
C1952 C 0.71634 0.78279 0.40004 0.0
C1953 C 0.69569 0.79397 0.40164 0.0
C1954 C 0.74665 0.80278 0.39614 0.0
C1955 C 0.75696 0.83437 0.39394 0.0
C1956 C 0.73625 0.84537 0.39547 0.0
H1957 H 0.94027 0.99507 0.39518 0.0
H1958 H 0.8853 0.95403 0.39711 0.0
C1959 C 0.70602 0.82546 0.39925 0.0
C1960 C 0.7895 0.8566 0.39034 0.0
H1961 H 0.86652 0.89279 0.39815 0.0
C1962 C 0.79359 0.87349 0.38102 0.0
C1963 C 0.8162 0.86354 0.39656 0.0
C1964 C 0.81341 0.84729 0.40687 0.0
C1965 C 0.82348 0.8978 0.37793 0.0
C1966 C 0.85006 0.90499 0.38425 0.0
C1967 C 0.84608 0.8873 0.39334 0.0
C1968 C 0.88195 0.93217 0.38214 0.0
C1969 C 0.82615 0.91643 0.36822 0.0
C1970 C 0.89813 0.9343 0.37289 0.0
C1971 C 0.92962 0.95823 0.37169 0.0
C1972 C 0.94544 0.97997 0.37981 0.0
C1973 C 0.92872 0.97856 0.38882 0.0
C1974 C 0.89732 0.95504 0.38994 0.0
H1975 H 0.80292 0.91262 0.3656 0.0
H1976 H 0.84238 0.94189 0.36959 0.0
H1977 H 0.8358 0.90908 0.36176 0.0
H1978 H 0.88696 0.91668 0.36682 0.0
H1979 H 0.94208 0.95847 0.36474 0.0
H1980 H 0.27786 0.91635 0.40593 0.0
H1981 H 0.23278 0.9177 0.39829 0.0
H1982 H 0.26666 0.0087 0.4121 0.0
H1983 H 0.31204 0.00792 0.41946 0.0
H1984 H 0.185 0.92158 0.40613 0.0
H1985 H 0.25713 0.02682 0.38206 0.0
H1986 H 0.2736 0.00617 0.38866 0.0
H1987 H 0.26816 0.03449 0.39563 0.0
C1988 C 0.2756 0.93657 0.40738 0.0
C1989 C 0.29875 0.96217 0.41322 0.0
C1990 C 0.24985 0.93736 0.40298 0.0
C1991 C 0.24672 0.96371 0.40435 0.0
C1992 C 0.26904 0.98857 0.41061 0.0
H1993 H 0.08676 0.98514 0.40111 0.0
H1994 H 0.1257 0.97043 0.40499 0.0
C1995 C 0.29488 0.98796 0.4149 0.0
C1996 C 0.22015 0.96534 0.39936 0.0
H1997 H 0.20361 0.01329 0.38485 0.0
C1998 C 0.18908 0.94145 0.40137 0.0
C1999 C 0.22528 0.99075 0.39287 0.0
C2000 C 0.25786 0.0158 0.38958 0.0
C2001 C 0.16316 0.94318 0.39757 0.0
C2002 C 0.16839 0.96995 0.39184 0.0
C2003 C 0.19942 0.99295 0.38935 0.0
C2004 C 0.14246 0.97587 0.38907 0.0
C2005 C 0.13045 0.91624 0.39976 0.0
C2006 C 0.13898 0.98447 0.37884 0.0
C2007 C 0.11691 0.99358 0.37661 0.0
C2008 C 0.09785 0.99424 0.38458 0.0
C2009 C 0.10085 0.98477 0.39474 0.0
C2010 C 0.12298 0.97596 0.39696 0.0
H2011 H 0.13023 0.89381 0.40044 0.0
H2012 H 0.12243 0.92035 0.40736 0.0
H2013 H 0.11343 0.91372 0.39353 0.0
H2014 H 0.15395 0.98496 0.37262 0.0
H2015 H 0.11587 0.00144 0.36878 0.0
H2016 H 0.72034 0.97773 0.91057 0.0
H2017 H 0.76707 0.9854 0.90134 0.0
H2018 H 0.74511 0.89268 0.91044 0.0
H2019 H 0.6986 0.88472 0.91956 0.0
H2020 H 0.81916 0.98248 0.9086 0.0
H2021 H 0.75294 0.89125 0.87851 0.0
H2022 H 0.73457 0.90675 0.88672 0.0
H2023 H 0.74179 0.87694 0.89163 0.0
C2024 C 0.72566 0.95912 0.9107 0.0
C2025 C 0.70557 0.93053 0.91574 0.0
C2026 C 0.75223 0.96346 0.90536 0.0
C2027 C 0.75899 0.93924 0.90495 0.0
C2028 C 0.73979 0.9113 0.91038 0.0
H2029 H 0.9247 0.93397 0.89631 0.0
H2030 H 0.87312 0.92586 0.90068 0.0
C2031 C 0.71334 0.90694 0.91569 0.0
C2032 C 0.78652 0.94315 0.89912 0.0
H2033 H 0.80796 0.90852 0.88048 0.0
C2034 C 0.8167 0.96665 0.90234 0.0
C2035 C 0.78325 0.92267 0.89086 0.0
C2036 C 0.75137 0.89818 0.88664 0.0
C2037 C 0.84371 0.9691 0.89792 0.0
C2038 C 0.8404 0.94736 0.89015 0.0
C2039 C 0.81032 0.9249 0.88652 0.0
C2040 C 0.86813 0.94656 0.88639 0.0
C2041 C 0.87571 0.99437 0.9018 0.0
C2042 C 0.88144 0.95923 0.87662 0.0
C2043 C 0.91099 0.96375 0.87405 0.0
C2044 C 0.92745 0.95573 0.88127 0.0
C2045 C 0.91265 0.94054 0.89062 0.0
C2046 C 0.88324 0.93597 0.89315 0.0
H2047 H 0.87446 0.01297 0.90618 0.0
H2048 H 0.88566 0.9838 0.90713 0.0
H2049 H 0.89211 0.00528 0.89515 0.0
H2050 H 0.86996 0.96744 0.87129 0.0
H2051 H 0.92194 0.97581 0.86684 0.0
H2052 H 0.14269 0.775 0.90981 0.0
H2053 H 0.14164 0.82121 0.90372 0.0
H2054 H 0.04069 0.77129 0.907 0.0
H2055 H 0.0416 0.72523 0.91334 0.0
H2056 H 0.11293 0.82815 0.8865 0.0
H2057 H 0.06633 0.8518 0.92236 0.0
H2058 H 0.08066 0.82492 0.92223 0.0
H2059 H 0.04154 0.81266 0.91752 0.0
C2060 C 0.12028 0.77397 0.90938 0.0
C2061 C 0.09224 0.74646 0.91214 0.0
C2062 C 0.11973 0.80037 0.90584 0.0
C2063 C 0.09115 0.79987 0.905 0.0
C2064 C 0.06311 0.7725 0.90779 0.0
H2065 H 0.04814 0.92294 0.86929 0.0
H2066 H 0.06055 0.88268 0.87419 0.0
C2067 C 0.06367 0.74613 0.91141 0.0
C2068 C 0.0906 0.82771 0.90096 0.0
H2069 H 0.06654 0.879 0.90693 0.0
C2070 C 0.103 0.83946 0.89099 0.0
C2071 C 0.07805 0.84271 0.90687 0.0
C2072 C 0.06619 0.8326 0.91788 0.0
C2073 C 0.10264 0.86542 0.88671 0.0
C2074 C 0.08892 0.87961 0.89246 0.0
C2075 C 0.07697 0.8681 0.90248 0.0
C2076 C 0.08633 0.9063 0.88835 0.0
C2077 C 0.11736 0.87765 0.87615 0.0
C2078 C 0.09718 0.93331 0.89452 0.0
C2079 C 0.0897 0.956 0.89181 0.0
C2080 C 0.07151 0.95237 0.8828 0.0
C2081 C 0.06266 0.92659 0.87618 0.0
C2082 C 0.06975 0.90354 0.87899 0.0
H2083 H 0.13508 0.87094 0.87436 0.0
H2084 H 0.09876 0.86737 0.86998 0.0
H2085 H 0.12893 0.90356 0.87575 0.0
H2086 H 0.11012 0.93608 0.90174 0.0
H2087 H 0.09681 0.97567 0.89705 0.0
H2088 H 0.28931 0.32922 0.91025 0.0
H2089 H 0.25269 0.27782 0.90258 0.0
H2090 H 0.17508 0.29187 0.90846 0.0
H2091 H 0.21134 0.34324 0.91601 0.0
H2092 H 0.20076 0.22551 0.91085 0.0
H2093 H 0.16532 0.2717 0.87709 0.0
H2094 H 0.19925 0.2963 0.88525 0.0
H2095 H 0.16039 0.28539 0.88951 0.0
C2096 C 0.26441 0.32126 0.91 0.0
C2097 C 0.25331 0.34049 0.91368 0.0
C2098 C 0.24355 0.29196 0.90556 0.0
C2099 C 0.2113 0.28144 0.90469 0.0
C2100 C 0.2 0.29994 0.90877 0.0
H2101 H 0.05333 0.09699 0.89779 0.0
H2102 H 0.09207 0.15112 0.90233 0.0
C2103 C 0.22077 0.32919 0.91319 0.0
C2104 C 0.18925 0.25086 0.89969 0.0
H2105 H 0.13327 0.21657 0.88035 0.0
C2106 C 0.18625 0.22359 0.90412 0.0
C2107 C 0.17067 0.24842 0.89079 0.0
C2108 C 0.17424 0.27703 0.88531 0.0
C2109 C 0.1642 0.19386 0.90019 0.0
C2110 C 0.14437 0.19136 0.89169 0.0
C2111 C 0.14826 0.21861 0.88694 0.0
C2112 C 0.11852 0.16043 0.88805 0.0
C2113 C 0.16202 0.16527 0.90523 0.0
C2114 C 0.11962 0.14836 0.87824 0.0
C2115 C 0.09729 0.1173 0.87557 0.0
C2116 C 0.07364 0.0981 0.88269 0.0
C2117 C 0.07144 0.11113 0.89217 0.0
C2118 C 0.0936 0.14201 0.89481 0.0
H2119 H 0.18369 0.17125 0.90978 0.0
H2120 H 0.14187 0.1547 0.9107 0.0
H2121 H 0.15796 0.1474 0.89924 0.0
H2122 H 0.13865 0.16238 0.87291 0.0
H2123 H 0.09982 0.10781 0.86828 0.0
H2124 H 0.93984 0.6929 0.58639 0.0
H2125 H 0.92884 0.73391 0.59133 0.0
H2126 H 0.9794 0.74787 0.62048 0.0
H2127 H 0.99027 0.70679 0.61569 0.0
H2128 H 0.91943 0.74199 0.62267 0.0
H2129 H 0.9915 0.82904 0.59217 0.0
H2130 H 0.96357 0.79051 0.58738 0.0
H2131 H 0.99604 0.79618 0.59549 0.0
C2132 C 0.94892 0.70492 0.5938 0.0
C2133 C 0.96606 0.69664 0.60062 0.0
C2134 C 0.94262 0.72837 0.59661 0.0
C2135 C 0.95347 0.74404 0.60624 0.0
C2136 C 0.9708 0.73603 0.61301 0.0
H2137 H 0.9574 0.89532 0.63966 0.0
H2138 H 0.95325 0.84576 0.63505 0.0
C2139 C 0.97713 0.71264 0.61022 0.0
C2140 C 0.9465 0.76856 0.60937 0.0
H2141 H 0.96123 0.84159 0.60298 0.0
C2142 C 0.92846 0.76376 0.61836 0.0
C2143 C 0.95824 0.79685 0.60371 0.0
C2144 C 0.97864 0.80371 0.5942 0.0
C2145 C 0.92184 0.78656 0.62186 0.0
C2146 C 0.93405 0.81509 0.61629 0.0
C2147 C 0.95168 0.81962 0.6072 0.0
C2148 C 0.93064 0.84147 0.62 0.0
C2149 C 0.90166 0.77978 0.63141 0.0
C2150 C 0.91871 0.85532 0.6132 0.0
C2151 C 0.92107 0.88372 0.61583 0.0
C2152 C 0.93538 0.89881 0.62533 0.0
C2153 C 0.94542 0.88389 0.63243 0.0
C2154 C 0.94319 0.85553 0.62977 0.0
H2155 H 0.88623 0.75416 0.63269 0.0
H2156 H 0.9171 0.78978 0.63843 0.0
H2157 H 0.88671 0.79044 0.63072 0.0
H2158 H 0.90899 0.84492 0.60561 0.0
H2159 H 0.91325 0.89473 0.61018 0.0
H2160 H 0.29591 0.24334 0.59376 0.0
H2161 H 0.24474 0.20532 0.60121 0.0
H2162 H 0.2855 0.15391 0.61462 0.0
H2163 H 0.3357 0.19041 0.60664 0.0
H2164 H 0.23306 0.11482 0.60703 0.0
H2165 H 0.21371 0.19719 0.63005 0.0
H2166 H 0.21811 0.20755 0.61645 0.0
H2167 H 0.25055 0.20925 0.62368 0.0
C2168 C 0.29376 0.2238 0.59826 0.0
C2169 C 0.31965 0.21968 0.59956 0.0
C2170 C 0.26466 0.20232 0.60265 0.0
C2171 C 0.26133 0.17706 0.60872 0.0
C2172 C 0.28734 0.17313 0.61 0.0
H2173 H 0.08433 0.0634 0.64285 0.0
H2174 H 0.14073 0.09759 0.63954 0.0
C2175 C 0.31604 0.19399 0.6054 0.0
C2176 C 0.23053 0.15371 0.61331 0.0
H2177 H 0.16817 0.146 0.6271 0.0
C2178 C 0.21916 0.12174 0.61154 0.0
C2179 C 0.21256 0.16243 0.61947 0.0
C2180 C 0.22456 0.19596 0.62263 0.0
C2181 C 0.18996 0.09845 0.61538 0.0
C2182 C 0.17077 0.10732 0.6207 0.0
C2183 C 0.18264 0.13915 0.62289 0.0
C2184 C 0.13745 0.0843 0.62321 0.0
C2185 C 0.18016 0.06457 0.61369 0.0
C2186 C 0.11691 0.06533 0.61522 0.0
C2187 C 0.08508 0.04518 0.61719 0.0
C2188 C 0.07274 0.04397 0.62717 0.0
C2189 C 0.09325 0.06289 0.63522 0.0
C2190 C 0.12541 0.08282 0.63327 0.0
H2191 H 0.20102 0.0617 0.61353 0.0
H2192 H 0.1641 0.0492 0.61992 0.0
H2193 H 0.16794 0.0566 0.60599 0.0
H2194 H 0.12527 0.06676 0.60731 0.0
H2195 H 0.06993 0.03117 0.61077 0.0
H2196 H 0.72263 0.05208 0.59299 0.0
H2197 H 0.76271 0.04277 0.60054 0.0
H2198 H 0.81997 0.14079 0.60846 0.0
H2199 H 0.7794 0.15011 0.60123 0.0
H2200 H 0.82161 0.06387 0.59574 0.0
H2201 H 0.81849 0.10177 0.63626 0.0
H2202 H 0.78958 0.09624 0.62641 0.0
H2203 H 0.82746 0.13178 0.62672 0.0
C2204 C 0.74381 0.07173 0.59628 0.0
C2205 C 0.74773 0.10183 0.59655 0.0
C2206 C 0.76668 0.06634 0.60064 0.0
C2207 C 0.79405 0.09091 0.60532 0.0
C2208 C 0.79863 0.12125 0.60521 0.0
H2209 H 0.95809 0.07439 0.61558 0.0
H2210 H 0.92269 0.09345 0.61099 0.0
C2211 C 0.77557 0.12661 0.60095 0.0
C2212 C 0.81802 0.0847 0.61002 0.0
H2213 H 0.85974 0.09185 0.63249 0.0
C2214 C 0.82985 0.06994 0.60379 0.0
C2215 C 0.82842 0.09212 0.62058 0.0
C2216 C 0.81511 0.10605 0.62792 0.0
C2217 C 0.85192 0.06267 0.60775 0.0
C2218 C 0.86343 0.07137 0.61815 0.0
C2219 C 0.8513 0.08569 0.62447 0.0
C2220 C 0.88772 0.0652 0.62252 0.0
C2221 C 0.86209 0.04501 0.60078 0.0
C2222 C 0.88109 0.04507 0.63115 0.0
C2223 C 0.90181 0.03476 0.63398 0.0
C2224 C 0.92915 0.04428 0.62814 0.0
C2225 C 0.93696 0.06649 0.62013 0.0
C2226 C 0.91665 0.07718 0.61745 0.0
H2227 H 0.84469 0.03237 0.59439 0.0
H2228 H 0.88484 0.06185 0.5971 0.0
H2229 H 0.86532 0.02774 0.60535 0.0
H2230 H 0.85902 0.0358 0.63525 0.0
H2231 H 0.89526 0.01755 0.64016 0.0
H2232 H 0.98141 0.46849 0.42767 0.0
H2233 H 0.93307 0.45524 0.43659 0.0
H2234 H 0.91922 0.36473 0.44478 0.0
H2235 H 0.96838 0.37795 0.43575 0.0
H2236 H 0.86384 0.36489 0.43705 0.0
H2237 H 0.9239 0.45143 0.46886 0.0
H2238 H 0.93728 0.4682 0.45612 0.0
H2239 H 0.94409 0.43779 0.46069 0.0
C2240 C 0.96819 0.44565 0.43133 0.0
C2241 C 0.97899 0.42439 0.4311 0.0
C2242 C 0.94061 0.43823 0.43649 0.0
C2243 C 0.92311 0.40943 0.4416 0.0
C2244 C 0.93277 0.38733 0.441 0.0
H2245 H 0.76093 0.38605 0.47782 0.0
H2246 H 0.8106 0.38827 0.474 0.0
C2247 C 0.96066 0.3948 0.43579 0.0
C2248 C 0.89449 0.40294 0.44732 0.0
H2249 H 0.86953 0.43575 0.46542 0.0
C2250 C 0.86503 0.37987 0.44341 0.0
C2251 C 0.89606 0.4222 0.45574 0.0
C2252 C 0.92706 0.44608 0.46068 0.0
C2253 C 0.83717 0.3772 0.44716 0.0
C2254 C 0.83898 0.39848 0.45488 0.0
C2255 C 0.86825 0.41986 0.45937 0.0
C2256 C 0.81106 0.40049 0.45767 0.0
C2257 C 0.80607 0.35224 0.44258 0.0
C2258 C 0.79595 0.40835 0.44992 0.0
C2259 C 0.76796 0.40748 0.4521 0.0
C2260 C 0.75458 0.39894 0.46211 0.0
C2261 C 0.77087 0.39317 0.47008 0.0
C2262 C 0.79903 0.39404 0.46788 0.0
H2263 H 0.80772 0.33243 0.43933 0.0
H2264 H 0.78728 0.343 0.44857 0.0
H2265 H 0.7991 0.3625 0.43609 0.0
H2266 H 0.80533 0.41423 0.44207 0.0
H2267 H 0.75608 0.41224 0.44581 0.0
H2268 H 0.64721 0.62199 0.41103 0.0
H2269 H 0.64528 0.57873 0.42098 0.0
H2270 H 0.60297 0.59857 0.44688 0.0
H2271 H 0.60467 0.64173 0.43702 0.0
H2272 H 0.67232 0.58045 0.44136 0.0
H2273 H 0.54185 0.504 0.44053 0.0
H2274 H 0.56271 0.53673 0.43172 0.0
H2275 H 0.55719 0.54342 0.44513 0.0
C2276 C 0.63751 0.61719 0.41884 0.0
C2277 C 0.62596 0.63529 0.42319 0.0
C2278 C 0.63646 0.59248 0.42453 0.0
C2279 C 0.62362 0.58519 0.43462 0.0
C2280 C 0.61252 0.60347 0.43905 0.0
H2281 H 0.64569 0.45347 0.47543 0.0
H2282 H 0.64028 0.49814 0.47013 0.0
C2283 C 0.61367 0.62825 0.4334 0.0
C2284 C 0.62191 0.55848 0.4405 0.0
H2285 H 0.57035 0.48527 0.44988 0.0
C2286 C 0.65006 0.55973 0.44331 0.0
C2287 C 0.59279 0.53145 0.44299 0.0
C2288 C 0.56184 0.52851 0.43989 0.0
C2289 C 0.6499 0.53449 0.44841 0.0
C2290 C 0.62078 0.50736 0.45084 0.0
C2291 C 0.59262 0.50627 0.44815 0.0
C2292 C 0.61926 0.47863 0.455 0.0
C2293 C 0.68087 0.5365 0.45076 0.0
C2294 C 0.6077 0.45224 0.4485 0.0
C2295 C 0.61065 0.4268 0.45151 0.0
C2296 C 0.62499 0.42707 0.46113 0.0
C2297 C 0.63433 0.45245 0.46801 0.0
C2298 C 0.63157 0.47813 0.46494 0.0
H2299 H 0.70096 0.55702 0.44693 0.0
H2300 H 0.68523 0.53869 0.45936 0.0
H2301 H 0.68018 0.51488 0.44812 0.0
H2302 H 0.59797 0.45205 0.44083 0.0
H2303 H 0.60309 0.40753 0.44606 0.0
H2304 H 0.4023 0.02737 0.43756 0.0
H2305 H 0.42711 0.0759 0.44795 0.0
H2306 H 0.51855 0.08844 0.44198 0.0
H2307 H 0.49421 0.04017 0.43183 0.0
H2308 H 0.51022 0.09822 0.46301 0.0
H2309 H 0.47652 0.1645 0.43572 0.0
H2310 H 0.44522 0.12807 0.44078 0.0
H2311 H 0.47327 0.12796 0.43201 0.0
C2312 C 0.4277 0.04061 0.43842 0.0
C2313 C 0.44627 0.02994 0.43382 0.0
C2314 C 0.44182 0.06828 0.44436 0.0
C2315 C 0.47469 0.0858 0.44571 0.0
C2316 C 0.49314 0.07518 0.44111 0.0
H2317 H 0.61995 0.26683 0.45099 0.0
H2318 H 0.58022 0.21187 0.44841 0.0
C2319 C 0.47914 0.04763 0.43524 0.0
C2320 C 0.4906 0.11579 0.4516 0.0
H2321 H 0.51156 0.19255 0.4494 0.0
C2322 C 0.51001 0.11876 0.4602 0.0
C2323 C 0.49026 0.14251 0.44789 0.0
C2324 C 0.4704 0.14088 0.43856 0.0
C2325 C 0.53054 0.14811 0.46477 0.0
C2326 C 0.53147 0.17497 0.46065 0.0
C2327 C 0.51058 0.17173 0.45254 0.0
C2328 C 0.55743 0.20693 0.46324 0.0
C2329 C 0.55269 0.15069 0.47346 0.0
C2330 C 0.55838 0.22203 0.47264 0.0
C2331 C 0.58141 0.2537 0.47419 0.0
C2332 C 0.60337 0.27045 0.46629 0.0
C2333 C 0.60316 0.2546 0.45717 0.0
C2334 C 0.58047 0.22322 0.45568 0.0
H2335 H 0.54892 0.12747 0.47583 0.0
H2336 H 0.57743 0.16571 0.47088 0.0
H2337 H 0.54942 0.16207 0.4804 0.0
H2338 H 0.54066 0.20975 0.47855 0.0
H2339 H 0.58086 0.26546 0.48123 0.0
H2340 H 0.70441 0.63953 0.74894 0.0
H2341 H 0.70472 0.59399 0.74183 0.0
H2342 H 0.80588 0.64864 0.73948 0.0
H2343 H 0.80575 0.69434 0.74638 0.0
H2344 H 0.7782 0.61517 0.72155 0.0
H2345 H 0.73119 0.53825 0.75642 0.0
H2346 H 0.70645 0.55254 0.75176 0.0
H2347 H 0.74506 0.57962 0.75692 0.0
C2348 C 0.72676 0.64175 0.74704 0.0
C2349 C 0.75506 0.67057 0.74829 0.0
C2350 C 0.72691 0.61567 0.74298 0.0
C2351 C 0.75537 0.61779 0.74021 0.0
C2352 C 0.78364 0.64643 0.74155 0.0
H2353 H 0.77489 0.45671 0.73027 0.0
H2354 H 0.78317 0.50765 0.73549 0.0
C2355 C 0.78351 0.67251 0.74556 0.0
C2356 C 0.75576 0.5904 0.73573 0.0
H2357 H 0.73512 0.51477 0.74082 0.0
C2358 C 0.76889 0.59322 0.72577 0.0
C2359 C 0.74396 0.56192 0.74129 0.0
C2360 C 0.73115 0.55789 0.75223 0.0
C2361 C 0.77022 0.56822 0.72119 0.0
C2362 C 0.75762 0.53946 0.72664 0.0
C2363 C 0.74471 0.53678 0.73662 0.0
C2364 C 0.75756 0.51168 0.7223 0.0
C2365 C 0.78564 0.57304 0.71067 0.0
C2366 C 0.74154 0.49753 0.71288 0.0
C2367 C 0.73719 0.4685 0.70979 0.0
C2368 C 0.74838 0.453 0.71615 0.0
C2369 C 0.76601 0.46812 0.72521 0.0
C2370 C 0.77063 0.49717 0.72823 0.0
H2371 H 0.80181 0.5983 0.70898 0.0
H2372 H 0.79911 0.56078 0.71025 0.0
H2373 H 0.76718 0.56337 0.70445 0.0
H2374 H 0.73074 0.50793 0.70826 0.0
H2375 H 0.72301 0.45717 0.70287 0.0
H2376 H 0.37753 0.08209 0.74115 0.0
H2377 H 0.42947 0.11793 0.73371 0.0
H2378 H 0.4207 0.19692 0.74233 0.0
H2379 H 0.36908 0.16161 0.74971 0.0
H2380 H 0.4385 0.19688 0.72093 0.0
H2381 H 0.51253 0.17809 0.74987 0.0
H2382 H 0.48027 0.14369 0.7439 0.0
H2383 H 0.4724 0.1672 0.75254 0.0
C2384 C 0.38685 0.1071 0.74158 0.0
C2385 C 0.36911 0.11895 0.74603 0.0
C2386 C 0.41649 0.12752 0.73732 0.0
C2387 C 0.42883 0.16004 0.73747 0.0
C2388 C 0.41149 0.17189 0.74209 0.0
H2389 H 0.61157 0.31986 0.73192 0.0
H2390 H 0.5578 0.27933 0.73613 0.0
C2391 C 0.38202 0.15161 0.74635 0.0
C2392 C 0.45964 0.18207 0.73273 0.0
H2393 H 0.53877 0.2141 0.7363 0.0
C2394 C 0.46047 0.20048 0.7242 0.0
C2395 C 0.48815 0.18672 0.73708 0.0
C2396 C 0.48856 0.1681 0.7464 0.0
C2397 C 0.48917 0.224 0.72005 0.0
C2398 C 0.51765 0.22902 0.72453 0.0
C2399 C 0.5168 0.21007 0.73288 0.0
C2400 C 0.54868 0.2553 0.72126 0.0
C2401 C 0.48895 0.24412 0.71119 0.0
C2402 C 0.56105 0.25564 0.71138 0.0
C2403 C 0.59191 0.27893 0.70893 0.0
C2404 C 0.61071 0.30208 0.71635 0.0
C2405 C 0.59766 0.30232 0.72605 0.0
C2406 C 0.56698 0.27916 0.72848 0.0
H2407 H 0.46504 0.24023 0.70964 0.0
H2408 H 0.50523 0.26932 0.71298 0.0
H2409 H 0.49729 0.23855 0.70394 0.0
H2410 H 0.5474 0.23716 0.70576 0.0
H2411 H 0.60158 0.27767 0.70151 0.0
H2412 H 0.99092 0.31641 0.7259 0.0
H2413 H 0.94566 0.3193 0.71955 0.0
H2414 H 0.89396 0.2706 0.74716 0.0
H2415 H 0.93932 0.26784 0.75365 0.0
H2416 H 0.88377 0.26989 0.7152 0.0
H2417 H 0.88652 0.3492 0.74626 0.0
H2418 H 0.91921 0.34351 0.74395 0.0
H2419 H 0.88559 0.31473 0.75111 0.0
C2420 C 0.97004 0.30652 0.73069 0.0
C2421 C 0.96883 0.29207 0.74033 0.0
C2422 C 0.94413 0.30807 0.72701 0.0
C2423 C 0.91656 0.29539 0.73291 0.0
C2424 C 0.91521 0.28095 0.74255 0.0
H2425 H 0.74038 0.28928 0.72778 0.0
H2426 H 0.78187 0.27768 0.73148 0.0
C2427 C 0.94114 0.27937 0.74624 0.0
C2428 C 0.88921 0.29724 0.72897 0.0
H2429 H 0.84232 0.32682 0.73481 0.0
C2430 C 0.87469 0.28239 0.71946 0.0
C2431 C 0.87761 0.31376 0.7345 0.0
C2432 C 0.89316 0.33147 0.74447 0.0
C2433 C 0.84829 0.28292 0.71548 0.0
C2434 C 0.83645 0.29906 0.72111 0.0
C2435 C 0.85127 0.31422 0.73054 0.0
C2436 C 0.80852 0.30051 0.71757 0.0
C2437 C 0.83284 0.26566 0.70545 0.0
C2438 C 0.80898 0.31602 0.70826 0.0
C2439 C 0.78495 0.32242 0.70606 0.0
C2440 C 0.7605 0.31376 0.71323 0.0
C2441 C 0.75905 0.29637 0.72215 0.0
C2442 C 0.78277 0.28977 0.72428 0.0
H2443 H 0.84002 0.24848 0.70343 0.0
H2444 H 0.80679 0.25312 0.70604 0.0
H2445 H 0.8399 0.28278 0.69894 0.0
H2446 H 0.82885 0.32492 0.70304 0.0
H2447 H 0.78684 0.33619 0.6992 0.0
H2448 H 0.41228 0.26613 0.2522 0.0
H2449 H 0.46395 0.29239 0.24407 0.0
H2450 H 0.4576 0.37489 0.23899 0.0
H2451 H 0.40553 0.34865 0.24703 0.0
H2452 H 0.47559 0.3555 0.22109 0.0
H2453 H 0.54781 0.36282 0.25562 0.0
H2454 H 0.51506 0.32388 0.2536 0.0
H2455 H 0.50808 0.35509 0.25675 0.0
C2456 C 0.42199 0.29003 0.24951 0.0
C2457 C 0.40474 0.30528 0.25029 0.0
C2458 C 0.45159 0.30503 0.24488 0.0
C2459 C 0.46468 0.33567 0.24101 0.0
C2460 C 0.44789 0.35126 0.24195 0.0
H2461 H 0.65786 0.41145 0.2229 0.0
H2462 H 0.61214 0.41402 0.22848 0.0
C2463 C 0.41821 0.33625 0.2466 0.0
C2464 C 0.49535 0.35063 0.23563 0.0
H2465 H 0.57049 0.36634 0.23879 0.0
C2466 C 0.49659 0.35848 0.22498 0.0
C2467 C 0.5228 0.35506 0.24076 0.0
C2468 C 0.52351 0.34908 0.25234 0.0
C2469 C 0.52418 0.36887 0.21916 0.0
C2470 C 0.5509 0.37087 0.22412 0.0
C2471 C 0.55004 0.36472 0.23492 0.0
C2472 C 0.57913 0.37647 0.21829 0.0
C2473 C 0.52424 0.37718 0.20778 0.0
C2474 C 0.57621 0.35609 0.21015 0.0
C2475 C 0.60258 0.35525 0.20675 0.0
C2476 C 0.6319 0.37421 0.21165 0.0
C2477 C 0.63537 0.39663 0.21903 0.0
C2478 C 0.60925 0.39799 0.22224 0.0
H2479 H 0.50789 0.38597 0.20632 0.0
H2480 H 0.54815 0.39525 0.20518 0.0
H2481 H 0.51598 0.35585 0.20292 0.0
H2482 H 0.55324 0.33883 0.2071 0.0
H2483 H 0.59938 0.33755 0.20113 0.0
H2484 H 0.69693 0.04462 0.24403 0.0
H2485 H 0.67834 0.07587 0.23525 0.0
H2486 H 0.76326 0.16051 0.24482 0.0
H2487 H 0.783 0.12899 0.25299 0.0
H2488 H 0.6625 0.11381 0.24088 0.0
H2489 H 0.76415 0.17999 0.2149 0.0
H2490 H 0.75964 0.14782 0.22281 0.0
H2491 H 0.777 0.18668 0.22831 0.0
C2492 C 0.71165 0.06992 0.24428 0.0
C2493 C 0.74149 0.08443 0.24916 0.0
C2494 C 0.701 0.0878 0.23923 0.0
C2495 C 0.71965 0.12063 0.23911 0.0
C2496 C 0.7489 0.13522 0.24442 0.0
H2497 H 0.65644 0.24921 0.23141 0.0
H2498 H 0.66237 0.20532 0.23629 0.0
C2499 C 0.76002 0.11726 0.24922 0.0
C2500 C 0.70807 0.13937 0.23361 0.0
H2501 H 0.73056 0.20134 0.2171 0.0
C2502 C 0.6773 0.13266 0.23556 0.0
C2503 C 0.72675 0.16332 0.22636 0.0
C2504 C 0.75854 0.16959 0.22288 0.0
C2505 C 0.66528 0.15005 0.23086 0.0
C2506 C 0.68511 0.17598 0.22445 0.0
C2507 C 0.71534 0.18177 0.22212 0.0
C2508 C 0.67635 0.19913 0.22088 0.0
C2509 C 0.63137 0.14013 0.23279 0.0
C2510 C 0.68225 0.21068 0.21056 0.0
C2511 C 0.67995 0.23678 0.20782 0.0
C2512 C 0.67121 0.25148 0.21532 0.0
C2513 C 0.66311 0.23842 0.22541 0.0
C2514 C 0.66614 0.21292 0.2282 0.0
H2515 H 0.61669 0.11427 0.23367 0.0
H2516 H 0.62981 0.15072 0.24023 0.0
H2517 H 0.62131 0.14744 0.22632 0.0
H2518 H 0.69033 0.20059 0.20475 0.0
H2519 H 0.68725 0.24665 0.20009 0.0
H2520 H 0.97293 0.66034 0.24596 0.0
H2521 H 0.95017 0.61006 0.23695 0.0
H2522 H 0.85855 0.58399 0.24877 0.0
H2523 H 0.88095 0.6349 0.25746 0.0
H2524 H 0.91982 0.55046 0.24225 0.0
H2525 H 0.84055 0.57326 0.21789 0.0
H2526 H 0.8712 0.60306 0.22605 0.0
H2527 H 0.8337 0.575 0.23157 0.0
C2528 C 0.94796 0.64386 0.24673 0.0
C2529 C 0.92867 0.65188 0.25231 0.0
C2530 C 0.93498 0.61508 0.24155 0.0
C2531 C 0.9025 0.59362 0.24191 0.0
C2532 C 0.88352 0.60065 0.24807 0.0
H2533 H 0.79241 0.40034 0.23144 0.0
H2534 H 0.83508 0.45184 0.23655 0.0
C2535 C 0.8964 0.62963 0.25314 0.0
C2536 C 0.88835 0.56423 0.23566 0.0
H2537 H 0.82851 0.51999 0.21849 0.0
C2538 C 0.90008 0.54394 0.23696 0.0
C2539 C 0.86342 0.55619 0.22843 0.0
C2540 C 0.85175 0.57822 0.2258 0.0
C2541 C 0.88625 0.51498 0.23171 0.0
C2542 C 0.85936 0.50566 0.22526 0.0
C2543 C 0.84891 0.52683 0.22349 0.0
C2544 C 0.83928 0.47304 0.22132 0.0
C2545 C 0.90059 0.49473 0.2332 0.0
C2546 C 0.82763 0.46726 0.21095 0.0
C2547 C 0.80248 0.43771 0.20805 0.0
C2548 C 0.78873 0.41349 0.21548 0.0
C2549 C 0.80247 0.41854 0.22553 0.0
C2550 C 0.82722 0.44805 0.22845 0.0
H2551 H 0.92653 0.5094 0.23426 0.0
H2552 H 0.89101 0.48048 0.24041 0.0
H2553 H 0.89544 0.47876 0.22644 0.0
H2554 H 0.83649 0.48617 0.2053 0.0
H2555 H 0.79215 0.43481 0.20031 0.0
H2556 H 0.6606 0.04229 0.93248 0.0
H2557 H 0.6623 0.08848 0.93998 0.0
H2558 H 0.56099 0.04142 0.9381 0.0
H2559 H 0.55904 0.99511 0.93083 0.0
H2560 H 0.6426 0.12647 0.93241 0.0
H2561 H 0.57677 0.06874 0.96847 0.0
H2562 H 0.59183 0.05075 0.95991 0.0
H2563 H 0.55543 0.04912 0.95676 0.0
C2564 C 0.6387 0.04185 0.93361 0.0
C2565 C 0.60968 0.01493 0.93112 0.0
C2566 C 0.63969 0.06821 0.93794 0.0
C2567 C 0.61171 0.06812 0.93986 0.0
C2568 C 0.58282 0.0417 0.937 0.0
H2569 H 0.59661 0.2322 0.94726 0.0
H2570 H 0.58993 0.18173 0.94224 0.0
C2571 C 0.58179 0.01534 0.93274 0.0
C2572 C 0.61269 0.09592 0.94457 0.0
H2573 H 0.58395 0.11921 0.96463 0.0
C2574 C 0.62993 0.12489 0.93949 0.0
C2575 C 0.59659 0.094 0.95392 0.0
C2576 C 0.57938 0.06405 0.96015 0.0
C2577 C 0.63078 0.15177 0.9433 0.0
C2578 C 0.61328 0.14948 0.95232 0.0
C2579 C 0.59686 0.12078 0.95762 0.0
C2580 C 0.61202 0.17687 0.95629 0.0
C2581 C 0.65072 0.18247 0.93768 0.0
C2582 C 0.6245 0.18971 0.9662 0.0
C2583 C 0.62787 0.21841 0.96918 0.0
C2584 C 0.61885 0.23462 0.96226 0.0
C2585 C 0.604 0.22036 0.95272 0.0
C2586 C 0.6004 0.19165 0.9498 0.0
H2587 H 0.66911 0.18211 0.93286 0.0
H2588 H 0.63549 0.18685 0.93234 0.0
H2589 H 0.66239 0.20228 0.94331 0.0
H2590 H 0.63335 0.1785 0.97137 0.0
H2591 H 0.6397 0.22896 0.97653 0.0
H2592 H 0.98097 0.60506 0.93579 0.0
H2593 H 0.93509 0.56987 0.9464 0.0
H2594 H 0.9258 0.49028 0.92967 0.0
H2595 H 0.97175 0.52501 0.91924 0.0
H2596 H 0.87356 0.52622 0.94178 0.0
H2597 H 0.93211 0.46757 0.95981 0.0
H2598 H 0.95338 0.50348 0.95242 0.0
H2599 H 0.93254 0.46625 0.94577 0.0
C2600 C 0.96884 0.58009 0.93427 0.0
C2601 C 0.98019 0.56779 0.92675 0.0
C2602 C 0.94278 0.56002 0.94039 0.0
C2603 C 0.92772 0.5274 0.93906 0.0
C2604 C 0.93775 0.51529 0.93108 0.0
H2605 H 0.75962 0.36327 0.95057 0.0
H2606 H 0.81296 0.40525 0.9465 0.0
C2607 C 0.96383 0.53523 0.92505 0.0
C2608 C 0.90145 0.50572 0.94594 0.0
H2609 H 0.87533 0.43972 0.96084 0.0
C2610 C 0.87418 0.50774 0.94614 0.0
C2611 C 0.90243 0.48183 0.95175 0.0
C2612 C 0.93184 0.47984 0.95253 0.0
C2613 C 0.84712 0.48516 0.95139 0.0
C2614 C 0.84747 0.46009 0.95655 0.0
C2615 C 0.87521 0.459 0.95685 0.0
C2616 C 0.81801 0.43267 0.96028 0.0
C2617 C 0.81766 0.4871 0.95088 0.0
C2618 C 0.80388 0.43364 0.96964 0.0
C2619 C 0.77342 0.40936 0.97207 0.0
C2620 C 0.75677 0.38421 0.96507 0.0
C2621 C 0.77193 0.38243 0.95609 0.0
C2622 C 0.80235 0.40637 0.95375 0.0
H2623 H 0.82117 0.50797 0.94646 0.0
H2624 H 0.79833 0.46571 0.94707 0.0
H2625 H 0.81005 0.48817 0.95894 0.0
H2626 H 0.81575 0.45384 0.97477 0.0
H2627 H 0.76212 0.41144 0.97899 0.0
H2628 H 0.38047 0.37749 0.94852 0.0
H2629 H 0.42485 0.37484 0.95581 0.0
H2630 H 0.48017 0.42325 0.92875 0.0
H2631 H 0.43586 0.42656 0.92143 0.0
H2632 H 0.45534 0.34688 0.94793 0.0
H2633 H 0.53874 0.47445 0.95283 0.0
H2634 H 0.49727 0.45828 0.95021 0.0
H2635 H 0.52342 0.46321 0.93973 0.0
C2636 C 0.40204 0.38762 0.94408 0.0
C2637 C 0.40462 0.40235 0.93439 0.0
C2638 C 0.42743 0.38611 0.94829 0.0
C2639 C 0.45604 0.39936 0.94294 0.0
C2640 C 0.45857 0.41354 0.93315 0.0
H2641 H 0.62635 0.396 0.94916 0.0
H2642 H 0.58538 0.40816 0.94511 0.0
C2643 C 0.43313 0.41514 0.92892 0.0
C2644 C 0.48271 0.39727 0.94749 0.0
H2645 H 0.55967 0.44102 0.95543 0.0
C2646 C 0.47806 0.36747 0.94966 0.0
C2647 C 0.5123 0.42419 0.94979 0.0
C2648 C 0.51825 0.45687 0.94812 0.0
C2649 C 0.50245 0.36376 0.95375 0.0
C2650 C 0.53219 0.39063 0.95589 0.0
C2651 C 0.53677 0.42048 0.95385 0.0
C2652 C 0.55943 0.38789 0.95935 0.0
C2653 C 0.49653 0.33105 0.95537 0.0
C2654 C 0.55922 0.37374 0.96895 0.0
C2655 C 0.58274 0.36677 0.97131 0.0
C2656 C 0.60677 0.37391 0.96409 0.0
C2657 C 0.60804 0.39007 0.95485 0.0
C2658 C 0.58467 0.39709 0.95253 0.0
H2659 H 0.47434 0.31302 0.9515 0.0
H2660 H 0.51632 0.32904 0.95228 0.0
H2661 H 0.49468 0.32583 0.96389 0.0
H2662 H 0.54012 0.36682 0.97439 0.0
H2663 H 0.58087 0.35396 0.97841 0.0
H2664 H 0.64504 0.70408 0.77385 0.0
H2665 H 0.60105 0.69771 0.78447 0.0
H2666 H 0.59458 0.76601 0.7653 0.0
H2667 H 0.63857 0.77282 0.75482 0.0
H2668 H 0.60124 0.77969 0.78689 0.0
H2669 H 0.50578 0.65678 0.77884 0.0
H2670 H 0.54357 0.66281 0.78275 0.0
H2671 H 0.53927 0.67757 0.77036 0.0
C2672 C 0.63358 0.717 0.77172 0.0
C2673 C 0.64529 0.739 0.76351 0.0
C2674 C 0.60854 0.71343 0.77782 0.0
C2675 C 0.59466 0.73152 0.7757 0.0
C2676 C 0.60512 0.75201 0.76712 0.0
H2677 H 0.45276 0.76712 0.78791 0.0
H2678 H 0.50379 0.77176 0.78535 0.0
C2679 C 0.63014 0.75573 0.76109 0.0
C2680 C 0.57078 0.7311 0.78273 0.0
H2681 H 0.49395 0.6867 0.79001 0.0
C2682 C 0.57788 0.75922 0.78769 0.0
C2683 C 0.54052 0.70429 0.78389 0.0
C2684 C 0.53156 0.67363 0.77865 0.0
C2685 C 0.55505 0.7617 0.79331 0.0
C2686 C 0.52424 0.73546 0.79392 0.0
C2687 C 0.51767 0.70678 0.78955 0.0
C2688 C 0.49743 0.73839 0.79747 0.0
C2689 C 0.56379 0.79264 0.79828 0.0
C2690 C 0.4774 0.71904 0.80543 0.0
C2691 C 0.4483 0.7168 0.80701 0.0
C2692 C 0.43875 0.73337 0.8005 0.0
C2693 C 0.45985 0.75449 0.79312 0.0
C2694 C 0.489 0.75709 0.79165 0.0
H2695 H 0.58936 0.80652 0.8002 0.0
H2696 H 0.55843 0.8065 0.79268 0.0
H2697 H 0.55024 0.78921 0.80555 0.0
H2698 H 0.48339 0.70426 0.80995 0.0
H2699 H 0.43212 0.69989 0.81261 0.0
H2700 H 0.24891 0.93784 0.76153 0.0
H2701 H 0.24368 0.89032 0.76927 0.0
H2702 H 0.34226 0.92562 0.76386 0.0
H2703 H 0.34795 0.97395 0.75663 0.0
H2704 H 0.24974 0.84493 0.76288 0.0
H2705 H 0.3391 0.90522 0.79402 0.0
H2706 H 0.32549 0.92559 0.78579 0.0
H2707 H 0.35625 0.91909 0.78141 0.0
C2708 C 0.26945 0.9354 0.76194 0.0
C2709 C 0.29892 0.95973 0.75854 0.0
C2710 C 0.26645 0.90823 0.7664 0.0
C2711 C 0.29276 0.90466 0.76745 0.0
C2712 C 0.32185 0.92826 0.76353 0.0
H2713 H 0.2996 0.73818 0.77244 0.0
H2714 H 0.2888 0.77918 0.7677 0.0
C2715 C 0.32502 0.95573 0.75927 0.0
C2716 C 0.28971 0.87617 0.77253 0.0
H2717 H 0.32494 0.85205 0.79036 0.0
C2718 C 0.26595 0.84653 0.76899 0.0
C2719 C 0.31005 0.87797 0.78077 0.0
C2720 C 0.33387 0.90869 0.7858 0.0
C2721 C 0.26311 0.81885 0.77304 0.0
C2722 C 0.28541 0.82081 0.78055 0.0
C2723 C 0.30806 0.85037 0.7845 0.0
C2724 C 0.28768 0.7931 0.78368 0.0
C2725 C 0.23613 0.78785 0.76922 0.0
C2726 C 0.29114 0.78723 0.79428 0.0
C2727 C 0.2982 0.76408 0.797 0.0
C2728 C 0.30164 0.74628 0.7892 0.0
C2729 C 0.29681 0.7513 0.77866 0.0
C2730 C 0.29025 0.7746 0.77593 0.0
H2731 H 0.2152 0.78975 0.76726 0.0
H2732 H 0.24314 0.78096 0.76194 0.0
H2733 H 0.22927 0.76906 0.77515 0.0
H2734 H 0.2897 0.80143 0.80041 0.0
H2735 H 0.30302 0.76159 0.80511 0.0
H2736 H 0.0941 0.36843 0.75584 0.0
H2737 H 0.13268 0.42113 0.76209 0.0
H2738 H 0.19499 0.38846 0.77164 0.0
H2739 H 0.15728 0.33627 0.76504 0.0
H2740 H 0.15466 0.44072 0.78127 0.0
H2741 H 0.25496 0.46533 0.75594 0.0
H2742 H 0.21585 0.43241 0.75369 0.0
H2743 H 0.24128 0.43018 0.76344 0.0
C2744 C 0.11626 0.37263 0.75911 0.0
C2745 C 0.12275 0.34824 0.75984 0.0
C2746 C 0.13823 0.40271 0.76273 0.0
C2747 C 0.16698 0.40892 0.7672 0.0
C2748 C 0.17343 0.38455 0.76795 0.0
H2749 H 0.28202 0.57981 0.80492 0.0
H2750 H 0.24872 0.5247 0.79986 0.0
C2751 C 0.15173 0.35464 0.7642 0.0
C2752 C 0.18966 0.44057 0.77143 0.0
H2753 H 0.26602 0.50055 0.77008 0.0
C2754 C 0.179 0.45387 0.7788 0.0
C2755 C 0.2214 0.45778 0.76817 0.0
C2756 C 0.23399 0.44584 0.7598 0.0
C2757 C 0.19902 0.48401 0.7829 0.0
C2758 C 0.23093 0.50094 0.77981 0.0
C2759 C 0.24168 0.48743 0.77255 0.0
C2760 C 0.25281 0.53383 0.78316 0.0
C2761 C 0.18543 0.49783 0.79018 0.0
C2762 C 0.26737 0.55711 0.7755 0.0
C2763 C 0.287 0.58835 0.77836 0.0
C2764 C 0.29246 0.59728 0.78898 0.0
C2765 C 0.27848 0.57386 0.79669 0.0
C2766 C 0.25907 0.54234 0.7938 0.0
H2767 H 0.1593 0.48518 0.78966 0.0
H2768 H 0.19207 0.49603 0.79838 0.0
H2769 H 0.19469 0.52294 0.78839 0.0
H2770 H 0.26301 0.55119 0.76724 0.0
H2771 H 0.29732 0.60561 0.77217 0.0
H2772 H 0.41078 0.98942 0.09279 0.0
H2773 H 0.41573 0.94664 0.08546 0.0
H2774 H 0.37304 0.95237 0.05651 0.0
H2775 H 0.36807 0.9951 0.06372 0.0
H2776 H 0.36745 0.88792 0.07715 0.0
H2777 H 0.45637 0.95947 0.04714 0.0
H2778 H 0.44795 0.97672 0.05812 0.0
H2779 H 0.42156 0.9623 0.04704 0.0
C2780 C 0.40226 0.98146 0.08489 0.0
C2781 C 0.38912 0.99578 0.07884 0.0
C2782 C 0.40521 0.9571 0.0807 0.0
C2783 C 0.39535 0.94681 0.07037 0.0
C2784 C 0.38144 0.96043 0.06442 0.0
H2785 H 0.38446 0.79599 0.03271 0.0
H2786 H 0.38798 0.84486 0.03835 0.0
C2787 C 0.37836 0.98468 0.0686 0.0
C2788 C 0.39898 0.92134 0.0659 0.0
H2789 H 0.43542 0.90453 0.04656 0.0
C2790 C 0.38243 0.89157 0.0705 0.0
C2791 C 0.41835 0.92616 0.05716 0.0
C2792 C 0.43731 0.95793 0.0521 0.0
C2793 C 0.38438 0.86634 0.06653 0.0
C2794 C 0.40409 0.8712 0.05788 0.0
C2795 C 0.4205 0.90093 0.05322 0.0
C2796 C 0.40767 0.84542 0.05365 0.0
C2797 C 0.36474 0.83449 0.0715 0.0
C2798 C 0.41936 0.83069 0.06012 0.0
C2799 C 0.41735 0.80288 0.05693 0.0
C2800 C 0.40407 0.78955 0.04713 0.0
C2801 C 0.39511 0.80588 0.04025 0.0
C2802 C 0.39688 0.83367 0.0435 0.0
H2803 H 0.34502 0.83293 0.07609 0.0
H2804 H 0.35483 0.81568 0.06548 0.0
H2805 H 0.37977 0.83013 0.07694 0.0
H2806 H 0.42848 0.83979 0.06789 0.0
H2807 H 0.42462 0.79089 0.06237 0.0
H2808 H 0.04681 0.4133 0.06886 0.0
H2809 H 0.09201 0.44394 0.0573 0.0
H2810 H 0.11703 0.52744 0.07499 0.0
H2811 H 0.07206 0.49731 0.08637 0.0
H2812 H 0.10515 0.5292 0.05253 0.0
H2813 H 0.19056 0.49025 0.06159 0.0
H2814 H 0.14952 0.46131 0.05965 0.0
H2815 H 0.16166 0.48598 0.07102 0.0
C2816 C 0.06264 0.43798 0.07047 0.0
C2817 C 0.05594 0.45301 0.07847 0.0
C2818 C 0.08829 0.45545 0.06384 0.0
C2819 C 0.10761 0.48797 0.06526 0.0
C2820 C 0.10222 0.50241 0.07372 0.0
H2821 H 0.25929 0.65767 0.05235 0.0
H2822 H 0.2067 0.61246 0.05501 0.0
C2823 C 0.07664 0.48514 0.08026 0.0
C2824 C 0.13177 0.50798 0.05753 0.0
H2825 H 0.2077 0.53413 0.05065 0.0
C2826 C 0.12735 0.52986 0.05192 0.0
C2827 C 0.16046 0.50846 0.05666 0.0
C2828 C 0.16615 0.48537 0.06254 0.0
C2829 C 0.15174 0.55369 0.04607 0.0
C2830 C 0.18128 0.55578 0.04591 0.0
C2831 C 0.18492 0.53238 0.05079 0.0
C2832 C 0.20992 0.58482 0.04256 0.0
C2833 C 0.1463 0.57747 0.04056 0.0
C2834 C 0.22871 0.58463 0.03443 0.0
C2835 C 0.25869 0.61081 0.03278 0.0
C2836 C 0.27037 0.63701 0.03943 0.0
C2837 C 0.25071 0.6378 0.0471 0.0
C2838 C 0.22068 0.612 0.04861 0.0
H2839 H 0.12094 0.56767 0.03869 0.0
H2840 H 0.15412 0.59805 0.04577 0.0
H2841 H 0.15996 0.58566 0.0332 0.0
H2842 H 0.22083 0.56374 0.02974 0.0
H2843 H 0.27363 0.60952 0.0269 0.0
H2844 H 0.56393 0.54723 0.07747 0.0
H2845 H 0.52596 0.55877 0.06935 0.0
H2846 H 0.59097 0.65773 0.07369 0.0
H2847 H 0.62879 0.64638 0.08205 0.0
H2848 H 0.53258 0.64157 0.07927 0.0
H2849 H 0.52811 0.59163 0.04012 0.0
H2850 H 0.51903 0.56399 0.05054 0.0
H2851 H 0.55774 0.5983 0.04984 0.0
C2852 C 0.57014 0.57146 0.07672 0.0
C2853 C 0.59944 0.5959 0.08039 0.0
C2854 C 0.54852 0.57803 0.07198 0.0
C2855 C 0.55592 0.60914 0.07068 0.0
C2856 C 0.58488 0.63355 0.07452 0.0
H2857 H 0.4526 0.67719 0.03391 0.0
H2858 H 0.49052 0.66187 0.03953 0.0
C2859 C 0.60643 0.62701 0.07933 0.0
C2860 C 0.53301 0.61626 0.06569 0.0
H2861 H 0.48864 0.60457 0.04354 0.0
C2862 C 0.52313 0.63362 0.07144 0.0
C2863 C 0.52106 0.60631 0.05539 0.0
C2864 C 0.53226 0.58931 0.04857 0.0
C2865 C 0.50109 0.64067 0.06729 0.0
C2866 C 0.48794 0.62938 0.05721 0.0
C2867 C 0.49841 0.61276 0.05133 0.0
C2868 C 0.46315 0.63461 0.05279 0.0
C2869 C 0.49233 0.66047 0.07373 0.0
C2870 C 0.4346 0.62304 0.05807 0.0
C2871 C 0.41308 0.63178 0.05491 0.0
C2872 C 0.41945 0.65182 0.04629 0.0
C2873 C 0.44693 0.66145 0.04051 0.0
C2874 C 0.46868 0.65289 0.04375 0.0
H2875 H 0.51055 0.67429 0.07978 0.0
H2876 H 0.48904 0.67687 0.06868 0.0
H2877 H 0.46988 0.64495 0.07781 0.0
H2878 H 0.42955 0.60829 0.06492 0.0
H2879 H 0.39192 0.62374 0.05945 0.0
H2880 H 0.05097 0.65754 0.57473 0.0
H2881 H 0.09917 0.67003 0.5654 0.0
H2882 H 0.09404 0.58693 0.5781 0.0
H2883 H 0.04599 0.57412 0.58729 0.0
H2884 H 0.15721 0.67966 0.57199 0.0
H2885 H 0.09667 0.57499 0.54652 0.0
H2886 H 0.0756 0.58865 0.55421 0.0
H2887 H 0.08946 0.56487 0.56013 0.0
C2888 C 0.06042 0.64222 0.57567 0.0
C2889 C 0.04448 0.61466 0.58167 0.0
C2890 C 0.08779 0.64926 0.57027 0.0
C2891 C 0.09952 0.62883 0.57079 0.0
C2892 C 0.08477 0.60244 0.57731 0.0
H2893 H 0.27268 0.64243 0.56579 0.0
H2894 H 0.22361 0.64028 0.56948 0.0
C2895 C 0.05747 0.59535 0.58265 0.0
C2896 C 0.12733 0.63484 0.56465 0.0
H2897 H 0.15317 0.59875 0.54824 0.0
C2898 C 0.15623 0.66228 0.56664 0.0
C2899 C 0.12592 0.61253 0.55744 0.0
C2900 C 0.09516 0.58378 0.55435 0.0
C2901 C 0.18416 0.66676 0.56228 0.0
C2902 C 0.18312 0.64298 0.55591 0.0
C2903 C 0.15395 0.61675 0.55324 0.0
C2904 C 0.21219 0.64303 0.55324 0.0
C2905 C 0.21474 0.69643 0.56483 0.0
C2906 C 0.22132 0.64372 0.54281 0.0
C2907 C 0.24963 0.64479 0.54061 0.0
C2908 C 0.26891 0.64498 0.54885 0.0
C2909 C 0.25872 0.64279 0.55924 0.0
C2910 C 0.23071 0.64175 0.56139 0.0
H2911 H 0.21077 0.71596 0.56672 0.0
H2912 H 0.22579 0.69234 0.57181 0.0
H2913 H 0.23144 0.70365 0.55822 0.0
H2914 H 0.20699 0.6442 0.5364 0.0
H2915 H 0.25683 0.64637 0.53254 0.0
H2916 H 0.33791 0.35105 0.57088 0.0
H2917 H 0.33987 0.39886 0.56489 0.0
H2918 H 0.41823 0.45386 0.58581 0.0
H2919 H 0.4165 0.40612 0.59189 0.0
H2920 H 0.33644 0.44637 0.57712 0.0
H2921 H 0.44921 0.49212 0.55584 0.0
H2922 H 0.42529 0.45154 0.55967 0.0
H2923 H 0.44921 0.48074 0.56925 0.0
C2924 C 0.35542 0.37327 0.57428 0.0
C2925 C 0.37714 0.37479 0.58183 0.0
C2926 C 0.35651 0.40055 0.57083 0.0
C2927 C 0.37951 0.42985 0.57478 0.0
C2928 C 0.40062 0.43145 0.58255 0.0
H2929 H 0.39378 0.60955 0.56937 0.0
H2930 H 0.39545 0.56331 0.57489 0.0
C2931 C 0.39942 0.40413 0.58607 0.0
C2932 C 0.38141 0.45872 0.57071 0.0
H2933 H 0.42777 0.5252 0.5566 0.0
C2934 C 0.35637 0.4636 0.57263 0.0
C2935 C 0.40731 0.48092 0.56475 0.0
C2936 C 0.43424 0.47612 0.56215 0.0
C2937 C 0.35685 0.49048 0.56892 0.0
C2938 C 0.38303 0.51297 0.56316 0.0
C2939 C 0.40783 0.50789 0.56106 0.0
C2940 C 0.38509 0.54223 0.55948 0.0
C2941 C 0.32936 0.49473 0.57115 0.0
C2942 C 0.37963 0.546 0.54891 0.0
C2943 C 0.37855 0.57246 0.54569 0.0
C2944 C 0.38309 0.59553 0.55302 0.0
C2945 C 0.39005 0.59222 0.56352 0.0
C2946 C 0.39097 0.56579 0.56671 0.0
H2947 H 0.30884 0.473 0.57425 0.0
H2948 H 0.33662 0.51364 0.57704 0.0
H2949 H 0.32195 0.50191 0.56392 0.0
H2950 H 0.37512 0.52799 0.54323 0.0
H2951 H 0.37316 0.5743 0.53756 0.0
H2952 H 0.61953 0.99146 0.57553 0.0
H2953 H 0.59214 0.94326 0.5651 0.0
H2954 H 0.50322 0.93569 0.57173 0.0
H2955 H 0.53023 0.98379 0.58209 0.0
H2956 H 0.54329 0.88195 0.57042 0.0
H2957 H 0.50481 0.93395 0.53941 0.0
H2958 H 0.53526 0.95744 0.54889 0.0
H2959 H 0.49445 0.93905 0.55238 0.0
C2960 C 0.59411 0.97937 0.57487 0.0
C2961 C 0.57713 0.99168 0.57961 0.0
C2962 C 0.57852 0.9519 0.56887 0.0
C2963 C 0.54575 0.93638 0.56742 0.0
C2964 C 0.52862 0.94777 0.57253 0.0
H2965 H 0.39013 0.77094 0.54535 0.0
H2966 H 0.42972 0.82519 0.54953 0.0
C2967 C 0.54411 0.97513 0.57854 0.0
C2968 C 0.52922 0.90814 0.56065 0.0
H2969 H 0.47913 0.87792 0.53959 0.0
C2970 C 0.52969 0.88113 0.56357 0.0
C2971 C 0.51172 0.90729 0.55166 0.0
C2972 C 0.51171 0.93607 0.54782 0.0
C2973 C 0.51147 0.8527 0.55815 0.0
C2974 C 0.49281 0.85148 0.54944 0.0
C2975 C 0.49353 0.87891 0.54623 0.0
C2976 C 0.46922 0.8212 0.54456 0.0
C2977 C 0.51088 0.82378 0.5622 0.0
C2978 C 0.4781 0.80149 0.53975 0.0
C2979 C 0.45531 0.77042 0.53726 0.0
C2980 C 0.42351 0.75896 0.53949 0.0
C2981 C 0.4145 0.7795 0.54341 0.0
C2982 C 0.43713 0.81042 0.54586 0.0
H2983 H 0.52253 0.82771 0.57 0.0
H2984 H 0.48626 0.80391 0.56282 0.0
H2985 H 0.52339 0.81693 0.55664 0.0
H2986 H 0.50272 0.8095 0.53854 0.0
H2987 H 0.4628 0.75474 0.53446 0.0
H2988 H 0.37009 0.4129 0.24711 0.0
H2989 H 0.37767 0.46147 0.25482 0.0
H2990 H 0.30376 0.40773 0.27686 0.0
H2991 H 0.29571 0.35913 0.26921 0.0
H2992 H 0.32372 0.47566 0.25826 0.0
H2993 H 0.38835 0.47371 0.29406 0.0
H2994 H 0.38809 0.45454 0.28202 0.0
H2995 H 0.35365 0.43777 0.29 0.0
C2996 C 0.35526 0.4114 0.25354 0.0
C2997 C 0.33231 0.38214 0.25754 0.0
C2998 C 0.35973 0.43913 0.25795 0.0
C2999 C 0.3416 0.43801 0.2665 0.0
C3000 C 0.31823 0.40895 0.27036 0.0
H3001 H 0.32984 0.57713 0.30377 0.0
H3002 H 0.33154 0.53061 0.29831 0.0
C3003 C 0.31354 0.38123 0.26591 0.0
C3004 C 0.34653 0.46725 0.27124 0.0
H3005 H 0.37664 0.5142 0.29285 0.0
C3006 C 0.33542 0.48424 0.26579 0.0
C3007 C 0.36141 0.47792 0.28112 0.0
C3008 C 0.37377 0.46024 0.28718 0.0
C3009 C 0.33852 0.51167 0.27002 0.0
C3010 C 0.35409 0.52289 0.27982 0.0
C3011 C 0.36501 0.50569 0.28531 0.0
C3012 C 0.35884 0.55237 0.28439 0.0
C3013 C 0.32433 0.52792 0.26406 0.0
C3014 C 0.37537 0.58043 0.27875 0.0
C3015 C 0.37406 0.60665 0.28177 0.0
C3016 C 0.35689 0.60548 0.29062 0.0
C3017 C 0.34333 0.57857 0.29694 0.0
C3018 C 0.34416 0.55201 0.2938 0.0
H3019 H 0.30603 0.51192 0.25835 0.0
H3020 H 0.31356 0.53715 0.26947 0.0
H3021 H 0.34309 0.54789 0.25961 0.0
H3022 H 0.38755 0.58141 0.27163 0.0
H3023 H 0.38494 0.62729 0.27683 0.0
H3024 H 0.637 0.87556 0.25513 0.0
H3025 H 0.58272 0.84701 0.2614 0.0
H3026 H 0.59928 0.92919 0.27834 0.0
H3027 H 0.65281 0.95817 0.27169 0.0
H3028 H 0.56264 0.83193 0.2804 0.0
H3029 H 0.51749 0.90589 0.26484 0.0
H3030 H 0.55462 0.91086 0.26083 0.0
H3031 H 0.55182 0.92777 0.27294 0.0
C3032 C 0.62886 0.88762 0.26006 0.0
C3033 C 0.64906 0.91914 0.26285 0.0
C3034 C 0.59788 0.87132 0.26365 0.0
C3035 C 0.58668 0.88609 0.27021 0.0
C3036 C 0.60694 0.91753 0.27303 0.0
H3037 H 0.41888 0.76163 0.3063 0.0
H3038 H 0.47153 0.80562 0.30255 0.0
C3039 C 0.63766 0.93401 0.26927 0.0
C3040 C 0.55449 0.86798 0.2746 0.0
H3041 H 0.48554 0.86737 0.27743 0.0
C3042 C 0.54575 0.83964 0.27971 0.0
C3043 C 0.53239 0.878 0.27367 0.0
C3044 C 0.53943 0.90712 0.26768 0.0
C3045 C 0.51547 0.82074 0.28376 0.0
C3046 C 0.49363 0.83116 0.28311 0.0
C3047 C 0.50248 0.85972 0.27812 0.0
C3048 C 0.4605 0.81099 0.28648 0.0
C3049 C 0.50687 0.78912 0.28822 0.0
C3050 C 0.43611 0.80165 0.27906 0.0
C3051 C 0.40569 0.77757 0.28137 0.0
C3052 C 0.39918 0.76222 0.2911 0.0
C3053 C 0.4229 0.77355 0.29886 0.0
C3054 C 0.45325 0.79817 0.29661 0.0
H3055 H 0.52344 0.78161 0.28569 0.0
H3056 H 0.50785 0.79047 0.2969 0.0
H3057 H 0.4827 0.77084 0.28577 0.0
H3058 H 0.44102 0.81139 0.27122 0.0
H3059 H 0.38784 0.76935 0.27524 0.0
H3060 H 0.08682 0.75588 0.27071 0.0
H3061 H 0.1207 0.73772 0.278 0.0
H3062 H 0.09677 0.67414 0.25197 0.0
H3063 H 0.06287 0.69215 0.24459 0.0
H3064 H 0.10004 0.67331 0.28359 0.0
H3065 H 0.19435 0.72184 0.25373 0.0
H3066 H 0.16748 0.73597 0.25533 0.0
H3067 H 0.15485 0.6997 0.24859 0.0
C3068 C 0.08914 0.73841 0.26643 0.0
C3069 C 0.07216 0.72552 0.25704 0.0
C3070 C 0.10835 0.72792 0.27065 0.0
C3071 C 0.11123 0.70464 0.26552 0.0
C3072 C 0.09507 0.69235 0.256 0.0
H3073 H 0.22403 0.62042 0.27581 0.0
H3074 H 0.181 0.62843 0.27054 0.0
C3075 C 0.07574 0.70272 0.25179 0.0
C3076 C 0.13043 0.69253 0.27026 0.0
H3077 H 0.19567 0.6874 0.26626 0.0
C3078 C 0.12101 0.67639 0.27983 0.0
C3079 C 0.15767 0.69659 0.26532 0.0
C3080 C 0.16945 0.71468 0.25522 0.0
C3081 C 0.13789 0.66366 0.28452 0.0
C3082 C 0.16515 0.66769 0.27957 0.0
C3083 C 0.17457 0.68401 0.27001 0.0
C3084 C 0.18511 0.65616 0.28415 0.0
C3085 C 0.12605 0.64551 0.2946 0.0
C3086 C 0.2005 0.66752 0.29386 0.0
C3087 C 0.22478 0.66241 0.29699 0.0
C3088 C 0.23431 0.6464 0.29034 0.0
C3089 C 0.21708 0.63279 0.28108 0.0
C3090 C 0.19262 0.63752 0.27804 0.0
H3091 H 0.10058 0.63666 0.29569 0.0
H3092 H 0.12988 0.62535 0.29482 0.0
H3093 H 0.13908 0.66118 0.3013 0.0
H3094 H 0.19552 0.6824 0.29864 0.0
H3095 H 0.23804 0.6736 0.30408 0.0
loop_
_geom_bond_atom_site_label_1
_geom_bond_atom_site_label_2
_geom_bond_distance
_geom_bond_site_symmetry_2
_ccdc_geom_bond_type
Zn0 O3 2.031 . S
Zn0 O5 2.049 . S
Zn0 O10 2.067 . S
Zn1 O2 1.962 1_545 S
Zn1 O4 1.986 . S
Zn1 O6 1.971 1_545 S
Zn1 O9 1.943 . S
O2 Zn1 1.962 1_565 S
O2 C7 1.254 . S
O3 Zn0 2.031 . S
O3 C7 1.269 . S
O4 Zn1 1.986 . S
O4 C11 1.262 . S
O5 Zn0 2.049 . S
O5 C13 1.260 . S
O6 Zn1 1.971 1_565 S
O6 C13 1.279 . S
C7 O2 1.254 . S
C7 O3 1.269 . S
C8 O9 1.249 . S
C8 O10 1.270 1_545 S
O9 Zn1 1.943 . S
O9 C8 1.249 . S
O10 Zn0 2.067 . S
O10 C8 1.270 1_565 S
C11 O4 1.262 . S
C11 O12 1.232 . S
O12 C11 1.232 . S
C13 O5 1.260 . S
C13 O6 1.279 . S
Zn14 O17 2.031 . S
Zn14 O19 2.049 . S
Zn14 O24 2.067 . S
Zn15 O16 1.962 1_455 S
Zn15 O18 1.986 . S
Zn15 O20 1.982 1_455 S
Zn15 O23 1.943 . S
O16 Zn15 1.962 1_655 S
O16 C21 1.254 . S
O17 Zn14 2.031 . S
O17 C21 1.269 . S
O18 Zn15 1.986 . S
O18 C25 1.262 . S
O19 Zn14 2.049 . S
O19 C27 1.260 . S
O20 Zn15 1.982 1_655 S
O20 C27 1.269 . S
C21 O16 1.254 . S
C21 O17 1.269 . S
C22 O23 1.249 . S
C22 O24 1.270 1_455 S
O23 Zn15 1.943 . S
O23 C22 1.249 . S
O24 Zn14 2.067 . S
O24 C22 1.270 1_655 S
C25 O18 1.262 . S
C25 O26 1.232 . S
O26 C25 1.232 . S
C27 O19 1.260 . S
C27 O20 1.269 . S
Zn28 O31 2.031 . S
Zn28 O33 2.049 . S
Zn28 O38 2.067 . S
Zn29 O30 1.962 . S
Zn29 O32 1.986 . S
Zn29 O34 1.996 . S
Zn29 O37 1.943 . S
O30 Zn29 1.962 . S
O30 C35 1.254 . S
O31 Zn28 2.031 . S
O31 C35 1.269 . S
O32 Zn29 1.986 . S
O32 C39 1.262 . S
O33 Zn28 2.049 . S
O33 C41 1.260 . S
O34 Zn29 1.996 . S
O34 C41 1.257 . S
C35 O30 1.254 . S
C35 O31 1.269 . S
C36 O37 1.249 . S
C36 O38 1.270 . S
O37 Zn29 1.943 . S
O37 C36 1.249 . S
O38 Zn28 2.067 . S
O38 C36 1.270 . S
C39 O32 1.262 . S
C39 O40 1.232 . S
O40 C39 1.232 . S
C41 O33 1.260 . S
C41 O34 1.257 . S
Zn42 O45 2.031 . S
Zn42 O47 2.049 . S
Zn42 O52 2.067 . S
Zn43 O44 1.962 . S
Zn43 O46 1.986 1_545 S
Zn43 O48 1.996 . S
Zn43 O51 1.943 1_545 S
O44 Zn43 1.962 . S
O44 C49 1.254 . S
O45 Zn42 2.031 . S
O45 C49 1.269 . S
O46 Zn43 1.986 1_565 S
O46 C53 1.262 . S
O47 Zn42 2.049 . S
O47 C55 1.260 . S
O48 Zn43 1.996 . S
O48 C55 1.257 . S
C49 O44 1.254 . S
C49 O45 1.269 . S
C50 O51 1.249 1_545 S
C50 O52 1.270 . S
O51 Zn43 1.943 1_565 S
O51 C50 1.249 1_565 S
O52 Zn42 2.067 . S
O52 C50 1.270 . S
C53 O46 1.262 . S
C53 O54 1.232 . S
O54 C53 1.232 . S
C55 O47 1.260 . S
C55 O48 1.257 . S
Zn56 O59 2.031 . S
Zn56 O61 2.049 . S
Zn56 O66 2.067 . S
Zn57 O58 1.962 . S
Zn57 O60 1.986 1_455 S
Zn57 O62 1.996 . S
Zn57 O65 1.943 1_455 S
O58 Zn57 1.962 . S
O58 C63 1.254 . S
O59 Zn56 2.031 . S
O59 C63 1.269 . S
O60 Zn57 1.986 1_655 S
O60 C67 1.262 . S
O61 Zn56 2.049 . S
O61 C69 1.260 . S
O62 Zn57 1.996 . S
O62 C69 1.257 . S
C63 O58 1.254 . S
C63 O59 1.269 . S
C64 O65 1.249 1_455 S
C64 O66 1.270 . S
O65 Zn57 1.943 1_655 S
O65 C64 1.249 1_655 S
O66 Zn56 2.067 . S
O66 C64 1.270 . S
C67 O60 1.262 . S
C67 O68 1.232 . S
O68 C67 1.232 . S
C69 O61 1.260 . S
C69 O62 1.257 . S
Zn70 O73 2.031 . S
Zn70 O75 2.049 . S
Zn70 O80 2.067 . S
Zn71 O72 1.962 . S
Zn71 O74 1.986 . S
Zn71 O76 1.996 . S
Zn71 O79 1.943 . S
O72 Zn71 1.962 . S
O72 C77 1.254 . S
O73 Zn70 2.031 . S
O73 C77 1.269 . S
O74 Zn71 1.986 . S
O74 C81 1.262 . S
O75 Zn70 2.049 . S
O75 C83 1.260 . S
O76 Zn71 1.996 . S
O76 C83 1.257 . S
C77 O72 1.254 . S
C77 O73 1.269 . S
C78 O79 1.249 . S
C78 O80 1.270 . S
O79 Zn71 1.943 . S
O79 C78 1.249 . S
O80 Zn70 2.067 . S
O80 C78 1.270 . S
C81 O74 1.262 . S
C81 O82 1.232 . S
O82 C81 1.232 . S
C83 O75 1.260 . S
C83 O76 1.257 . S
Zn84 O87 2.031 . S
Zn84 O89 2.049 . S
Zn84 O94 2.067 . S
Zn85 O86 1.962 . S
Zn85 O88 1.986 . S
Zn85 O90 1.996 . S
Zn85 O93 1.943 . S
O86 Zn85 1.962 . S
O86 C91 1.254 . S
O87 Zn84 2.031 . S
O87 C91 1.269 . S
O88 Zn85 1.986 . S
O88 C95 1.262 . S
O89 Zn84 2.049 . S
O89 C97 1.260 . S
O90 Zn85 1.996 . S
O90 C97 1.257 . S
C91 O86 1.254 . S
C91 O87 1.269 . S
C92 O93 1.249 . S
C92 O94 1.270 . S
O93 Zn85 1.943 . S
O93 C92 1.249 . S
O94 Zn84 2.067 . S
O94 C92 1.270 . S
C95 O88 1.262 . S
C95 O96 1.232 . S
O96 C95 1.232 . S
C97 O89 1.260 . S
C97 O90 1.257 . S
Zn98 O101 2.031 . S
Zn98 O103 2.049 . S
Zn98 O108 2.067 . S
Zn99 O100 1.962 . S
Zn99 O102 1.986 . S
Zn99 O104 1.996 . S
Zn99 O107 1.943 . S
O100 Zn99 1.962 . S
O100 C105 1.254 . S
O101 Zn98 2.031 . S
O101 C105 1.269 . S
O102 Zn99 1.986 . S
O102 C109 1.262 . S
O103 Zn98 2.049 . S
O103 C111 1.260 . S
O104 Zn99 1.996 . S
O104 C111 1.257 . S
C105 O100 1.254 . S
C105 O101 1.269 . S
C106 O107 1.249 . S
C106 O108 1.270 . S
O107 Zn99 1.943 . S
O107 C106 1.249 . S
O108 Zn98 2.067 . S
O108 C106 1.270 . S
C109 O102 1.262 . S
C109 O110 1.232 . S
O110 C109 1.232 . S
C111 O103 1.260 . S
C111 O104 1.257 . S
Zn112 O115 2.031 . S
Zn112 O117 2.049 . S
Zn112 O122 2.067 . S
Zn113 O114 1.962 1_655 S
Zn113 O116 1.986 . S
Zn113 O118 1.996 . S
Zn113 O121 1.943 . S
O114 Zn113 1.962 1_455 S
O114 C119 1.254 . S
O115 Zn112 2.031 . S
O115 C119 1.269 1_655 S
O116 Zn113 1.986 . S
O116 C123 1.262 . S
O117 Zn112 2.049 . S
O117 C125 1.260 . S
O118 Zn113 1.996 . S
O118 C125 1.257 . S
C119 O114 1.254 . S
C119 O115 1.269 1_455 S
C120 O121 1.249 . S
C120 O122 1.270 . S
O121 Zn113 1.943 . S
O121 C120 1.249 . S
O122 Zn112 2.067 . S
O122 C120 1.270 . S
C123 O116 1.262 . S
C123 O124 1.232 . S
O124 C123 1.232 . S
C125 O117 1.260 . S
C125 O118 1.257 . S
Zn126 O129 2.031 . S
Zn126 O131 2.049 . S
Zn126 O136 2.067 . S
Zn127 O128 1.962 1_655 S
Zn127 O130 1.986 . S
Zn127 O132 1.996 . S
Zn127 O135 1.943 . S
O128 Zn127 1.962 1_455 S
O128 C133 1.254 . S
O129 Zn126 2.031 . S
O129 C133 1.269 1_655 S
O130 Zn127 1.986 . S
O130 C137 1.262 . S
O131 Zn126 2.049 . S
O131 C139 1.260 . S
O132 Zn127 1.996 . S
O132 C139 1.257 . S
C133 O128 1.254 . S
C133 O129 1.269 1_455 S
C134 O135 1.249 . S
C134 O136 1.270 . S
O135 Zn127 1.943 . S
O135 C134 1.249 . S
O136 Zn126 2.067 . S
O136 C134 1.270 . S
C137 O130 1.262 . S
C137 O138 1.232 . S
O138 C137 1.232 . S
C139 O131 1.260 . S
C139 O132 1.257 . S
Zn140 O143 2.031 . S
Zn140 O145 2.049 . S
Zn140 O150 2.067 . S
Zn141 O142 1.962 . S
Zn141 O144 1.986 . S
Zn141 O146 1.996 . S
Zn141 O149 1.943 . S
O142 Zn141 1.962 . S
O142 C147 1.254 . S
O143 Zn140 2.031 . S
O143 C147 1.269 . S
O144 Zn141 1.986 . S
O144 C151 1.262 . S
O145 Zn140 2.049 . S
O145 C153 1.260 . S
O146 Zn141 1.996 . S
O146 C153 1.257 . S
C147 O142 1.254 . S
C147 O143 1.269 . S
C148 O149 1.249 . S
C148 O150 1.270 . S
O149 Zn141 1.943 . S
O149 C148 1.249 . S
O150 Zn140 2.067 . S
O150 C148 1.270 . S
C151 O144 1.262 . S
C151 O152 1.232 . S
O152 C151 1.232 . S
C153 O145 1.260 . S
C153 O146 1.257 . S
Zn154 O157 2.031 . S
Zn154 O159 2.049 . S
Zn154 O164 2.067 . S
Zn155 O156 1.962 . S
Zn155 O158 1.986 . S
Zn155 O160 1.996 . S
Zn155 O163 1.943 . S
O156 Zn155 1.962 . S
O156 C161 1.254 . S
O157 Zn154 2.031 . S
O157 C161 1.269 . S
O158 Zn155 1.986 . S
O158 C165 1.262 . S
O159 Zn154 2.049 . S
O159 C167 1.260 . S
O160 Zn155 1.996 . S
O160 C167 1.257 . S
C161 O156 1.254 . S
C161 O157 1.269 . S
C162 O163 1.249 . S
C162 O164 1.270 . S
O163 Zn155 1.943 . S
O163 C162 1.249 . S
O164 Zn154 2.067 . S
O164 C162 1.270 . S
C165 O158 1.262 . S
C165 O166 1.232 . S
O166 C165 1.232 . S
C167 O159 1.260 . S
C167 O160 1.257 . S
Zn168 O171 2.031 . S
Zn168 O173 2.049 . S
Zn168 O178 2.067 . S
Zn169 O170 1.962 . S
Zn169 O172 1.986 . S
Zn169 O174 1.996 . S
Zn169 O177 1.943 . S
O170 Zn169 1.962 . S
O170 C175 1.254 . S
O171 Zn168 2.031 . S
O171 C175 1.269 . S
O172 Zn169 1.986 . S
O172 C179 1.262 . S
O173 Zn168 2.049 . S
O173 C181 1.260 . S
O174 Zn169 1.996 . S
O174 C181 1.257 . S
C175 O170 1.254 . S
C175 O171 1.269 . S
C176 O177 1.249 . S
C176 O178 1.270 . S
O177 Zn169 1.943 . S
O177 C176 1.249 . S
O178 Zn168 2.067 . S
O178 C176 1.270 . S
C179 O172 1.262 . S
C179 O180 1.232 . S
O180 C179 1.232 . S
C181 O173 1.260 . S
C181 O174 1.257 . S
Zn182 O185 2.031 . S
Zn182 O187 2.049 . S
Zn182 O192 2.067 . S
Zn183 O184 1.962 . S
Zn183 O186 1.986 . S
Zn183 O188 1.996 . S
Zn183 O191 1.943 . S
O184 Zn183 1.962 . S
O184 C189 1.254 . S
O185 Zn182 2.031 . S
O185 C189 1.269 . S
O186 Zn183 1.986 . S
O186 C193 1.262 . S
O187 Zn182 2.049 . S
O187 C195 1.260 . S
O188 Zn183 1.996 . S
O188 C195 1.257 . S
C189 O184 1.254 . S
C189 O185 1.269 . S
C190 O191 1.249 . S
C190 O192 1.270 . S
O191 Zn183 1.943 . S
O191 C190 1.249 . S
O192 Zn182 2.067 . S
O192 C190 1.270 . S
C193 O186 1.262 . S
C193 O194 1.232 . S
O194 C193 1.232 . S
C195 O187 1.260 . S
C195 O188 1.257 . S
Zn196 O199 2.031 . S
Zn196 O201 2.049 . S
Zn196 O206 2.067 . S
Zn197 O198 1.962 . S
Zn197 O200 1.986 1_565 S
Zn197 O202 1.996 . S
Zn197 O205 1.943 . S
O198 Zn197 1.962 . S
O198 C203 1.254 . S
O199 Zn196 2.031 . S
O199 C203 1.269 . S
O200 Zn197 1.986 1_545 S
O200 C207 1.262 . S
O201 Zn196 2.049 . S
O201 C209 1.260 . S
O202 Zn197 1.996 . S
O202 C209 1.257 . S
C203 O198 1.254 . S
C203 O199 1.269 . S
C204 O205 1.249 . S
C204 O206 1.270 . S
O205 Zn197 1.943 . S
O205 C204 1.249 . S
O206 Zn196 2.067 . S
O206 C204 1.270 . S
C207 O200 1.262 . S
C207 O208 1.232 . S
O208 C207 1.232 . S
C209 O201 1.260 . S
C209 O202 1.257 . S
Zn210 O213 2.031 . S
Zn210 O215 2.049 . S
Zn210 O220 2.067 . S
Zn211 O212 1.962 . S
Zn211 O214 1.986 . S
Zn211 O216 1.996 . S
Zn211 O219 1.943 . S
O212 Zn211 1.962 . S
O212 C217 1.254 . S
O213 Zn210 2.031 . S
O213 C217 1.269 . S
O214 Zn211 1.986 . S
O214 C221 1.262 . S
O215 Zn210 2.049 . S
O215 C223 1.260 . S
O216 Zn211 1.996 . S
O216 C223 1.257 . S
C217 O212 1.254 . S
C217 O213 1.269 . S
C218 O219 1.249 . S
C218 O220 1.270 . S
O219 Zn211 1.943 . S
O219 C218 1.249 . S
O220 Zn210 2.067 . S
O220 C218 1.270 . S
C221 O214 1.262 . S
C221 O222 1.232 . S
O222 C221 1.232 . S
C223 O215 1.260 . S
C223 O216 1.257 . S
Zn224 O227 2.031 . S
Zn224 O229 2.049 . S
Zn224 O234 2.067 . S
Zn225 O226 1.962 1_565 S
Zn225 O228 1.986 . S
Zn225 O230 1.996 . S
Zn225 O233 1.943 . S
O226 Zn225 1.962 1_545 S
O226 C231 1.254 . S
O227 Zn224 2.031 . S
O227 C231 1.269 1_565 S
O228 Zn225 1.986 . S
O228 C235 1.262 . S
O229 Zn224 2.049 . S
O229 C237 1.260 . S
O230 Zn225 1.996 . S
O230 C237 1.257 . S
C231 O226 1.254 . S
C231 O227 1.269 1_545 S
C232 O233 1.249 . S
C232 O234 1.270 . S
O233 Zn225 1.943 . S
O233 C232 1.249 . S
O234 Zn224 2.067 . S
O234 C232 1.270 . S
C235 O228 1.262 . S
C235 O236 1.232 . S
O236 C235 1.232 . S
C237 O229 1.260 . S
C237 O230 1.257 . S
Zn238 O241 2.031 . S
Zn238 O243 2.049 . S
Zn238 O248 2.067 . S
Zn239 O240 1.962 . S
Zn239 O242 1.986 . S
Zn239 O244 1.996 . S
Zn239 O247 1.943 . S
O240 Zn239 1.962 . S
O240 C245 1.254 . S
O241 Zn238 2.031 . S
O241 C245 1.269 . S
O242 Zn239 1.986 . S
O242 C249 1.262 . S
O243 Zn238 2.049 . S
O243 C251 1.260 . S
O244 Zn239 1.996 . S
O244 C251 1.257 . S
C245 O240 1.254 . S
C245 O241 1.269 . S
C246 O247 1.249 . S
C246 O248 1.270 . S
O247 Zn239 1.943 . S
O247 C246 1.249 . S
O248 Zn238 2.067 . S
O248 C246 1.270 . S
C249 O242 1.262 . S
C249 O250 1.232 . S
O250 C249 1.232 . S
C251 O243 1.260 . S
C251 O244 1.257 . S
Zn252 O258 1.920 . S
Zn252 O264 1.898 1_445 S
Zn252 O267 1.905 . S
Zn253 O261 1.905 1_545 S
Zn253 O262 1.898 . S
Zn253 O270 1.920 1_455 S
Zn254 O257 2.080 . S
Zn254 O260 2.114 1_545 S
Zn254 O263 2.120 . S
Zn254 O265 2.120 1_445 S
Zn254 O266 2.114 . S
Zn254 O269 2.080 1_455 S
C255 O260 1.166 . S
C255 O261 1.182 . S
C256 O262 1.167 . S
C256 O263 1.299 . S
O257 Zn254 2.080 . S
O257 C271 1.305 . S
O258 Zn252 1.920 . S
O258 C271 1.234 . S
C259 O264 1.167 . S
C259 O265 1.299 . S
O260 Zn254 2.114 1_565 S
O260 C255 1.166 . S
O261 Zn253 1.905 1_565 S
O261 C255 1.182 . S
O262 Zn253 1.898 . S
O262 C256 1.167 . S
O263 Zn254 2.120 . S
O263 C256 1.299 . S
O264 Zn252 1.898 1_665 S
O264 C259 1.167 . S
O265 Zn254 2.120 1_665 S
O265 C259 1.299 . S
O266 Zn254 2.114 . S
O266 C268 1.166 . S
O267 Zn252 1.905 . S
O267 C268 1.182 . S
C268 O266 1.166 . S
C268 O267 1.182 . S
O269 Zn254 2.080 1_655 S
O269 C272 1.305 . S
O270 Zn253 1.920 1_655 S
O270 C272 1.234 . S
C271 O257 1.305 . S
C271 O258 1.234 . S
C272 O269 1.305 . S
C272 O270 1.234 . S
Zn273 O279 1.920 1_545 S
Zn273 O285 1.898 . S
Zn273 O288 1.905 1_445 S
Zn274 O282 1.905 . S
Zn274 O283 1.898 1_445 S
Zn274 O291 1.920 1_545 S
Zn275 O278 2.080 1_545 S
Zn275 O281 2.114 . S
Zn275 O284 2.120 1_445 S
Zn275 O286 2.120 . S
Zn275 O287 2.114 1_455 S
Zn275 O290 2.080 . S
C276 O281 1.166 . S
C276 O282 1.182 . S
C277 O283 1.167 . S
C277 O284 1.299 . S
O278 Zn275 2.080 1_565 S
O278 C292 1.305 . S
O279 Zn273 1.920 1_565 S
O279 C292 1.234 . S
C280 O285 1.167 . S
C280 O286 1.299 . S
O281 Zn275 2.114 . S
O281 C276 1.166 . S
O282 Zn274 1.905 . S
O282 C276 1.182 . S
O283 Zn274 1.898 1_665 S
O283 C277 1.167 . S
O284 Zn275 2.120 1_665 S
O284 C277 1.299 . S
O285 Zn273 1.898 . S
O285 C280 1.167 . S
O286 Zn275 2.120 . S
O286 C280 1.299 . S
O287 Zn275 2.114 1_655 S
O287 C289 1.166 . S
O288 Zn273 1.905 1_665 S
O288 C289 1.182 1_565 S
C289 O287 1.166 . S
C289 O288 1.182 1_545 S
O290 Zn275 2.080 . S
O290 C293 1.305 1_545 S
O291 Zn274 1.920 1_565 S
O291 C293 1.234 . S
C292 O278 1.305 . S
C292 O279 1.234 . S
C293 O290 1.305 1_565 S
C293 O291 1.234 . S
Zn294 O300 1.920 1_545 S
Zn294 O306 1.898 . S
Zn294 O309 1.906 1_445 S
Zn295 O303 1.905 . S
Zn295 O304 1.898 1_445 S
Zn295 O312 1.920 . S
Zn296 O299 2.080 1_545 S
Zn296 O302 2.114 . S
Zn296 O305 2.120 1_445 S
Zn296 O307 2.120 . S
Zn296 O308 2.114 1_455 S
Zn296 O311 2.080 . S
C297 O302 1.166 . S
C297 O303 1.182 . S
C298 O304 1.167 . S
C298 O305 1.299 . S
O299 Zn296 2.080 1_565 S
O299 C313 1.305 . S
O300 Zn294 1.920 1_565 S
O300 C313 1.234 . S
C301 O306 1.167 . S
C301 O307 1.299 . S
O302 Zn296 2.114 . S
O302 C297 1.166 . S
O303 Zn295 1.905 . S
O303 C297 1.182 . S
O304 Zn295 1.898 1_665 S
O304 C298 1.167 . S
O305 Zn296 2.120 1_665 S
O305 C298 1.299 . S
O306 Zn294 1.898 . S
O306 C301 1.167 . S
O307 Zn296 2.120 . S
O307 C301 1.299 . S
O308 Zn296 2.114 1_655 S
O308 C310 1.166 . S
O309 Zn294 1.906 1_665 S
O309 C310 1.180 1_565 S
C310 O308 1.166 . S
C310 O309 1.180 1_545 S
O311 Zn296 2.080 . S
O311 C314 1.305 . S
O312 Zn295 1.920 . S
O312 C314 1.234 . S
C313 O299 1.305 . S
C313 O300 1.234 . S
C314 O311 1.305 . S
C314 O312 1.234 . S
Zn315 O321 1.920 . S
Zn315 O327 1.898 1_445 S
Zn315 O330 1.905 . S
Zn316 O324 1.905 1_545 S
Zn316 O325 1.898 . S
Zn316 O333 1.920 1_455 S
Zn317 O320 2.080 . S
Zn317 O323 2.114 1_545 S
Zn317 O326 2.120 . S
Zn317 O328 2.120 1_445 S
Zn317 O329 2.114 . S
Zn317 O332 2.080 1_455 S
C318 O323 1.166 . S
C318 O324 1.182 . S
C319 O325 1.167 . S
C319 O326 1.299 . S
O320 Zn317 2.080 . S
O320 C334 1.305 . S
O321 Zn315 1.920 . S
O321 C334 1.234 . S
C322 O327 1.167 . S
C322 O328 1.299 . S
O323 Zn317 2.114 1_565 S
O323 C318 1.166 . S
O324 Zn316 1.905 1_565 S
O324 C318 1.182 . S
O325 Zn316 1.898 . S
O325 C319 1.167 . S
O326 Zn317 2.120 . S
O326 C319 1.299 . S
O327 Zn315 1.898 1_665 S
O327 C322 1.167 . S
O328 Zn317 2.120 1_665 S
O328 C322 1.299 . S
O329 Zn317 2.114 . S
O329 C331 1.166 . S
O330 Zn315 1.905 . S
O330 C331 1.182 . S
C331 O329 1.166 . S
C331 O330 1.182 . S
O332 Zn317 2.080 1_655 S
O332 C335 1.305 . S
O333 Zn316 1.920 1_655 S
O333 C335 1.234 . S
C334 O320 1.305 . S
C334 O321 1.234 . S
C335 O332 1.305 . S
C335 O333 1.234 . S
Zn336 O342 1.920 . S
Zn336 O348 1.898 . S
Zn336 O351 1.905 . S
Zn337 O345 1.905 . S
Zn337 O346 1.898 . S
Zn337 O354 1.920 . S
Zn338 O341 2.080 . S
Zn338 O344 2.114 . S
Zn338 O347 2.120 . S
Zn338 O349 2.120 . S
Zn338 O350 2.114 . S
Zn338 O353 2.080 . S
C339 O344 1.166 . S
C339 O345 1.182 . S
C340 O346 1.167 . S
C340 O347 1.299 . S
O341 Zn338 2.080 . S
O341 C355 1.305 . S
O342 Zn336 1.920 . S
O342 C355 1.234 . S
C343 O348 1.167 . S
C343 O349 1.299 . S
O344 Zn338 2.114 . S
O344 C339 1.166 . S
O345 Zn337 1.905 . S
O345 C339 1.182 . S
O346 Zn337 1.898 . S
O346 C340 1.167 . S
O347 Zn338 2.120 . S
O347 C340 1.299 . S
O348 Zn336 1.898 . S
O348 C343 1.167 . S
O349 Zn338 2.120 . S
O349 C343 1.299 . S
O350 Zn338 2.114 . S
O350 C352 1.166 . S
O351 Zn336 1.905 . S
O351 C352 1.182 . S
C352 O350 1.166 . S
C352 O351 1.182 . S
O353 Zn338 2.080 . S
O353 C356 1.305 . S
O354 Zn337 1.920 . S
O354 C356 1.234 . S
C355 O341 1.305 . S
C355 O342 1.234 . S
C356 O353 1.305 . S
C356 O354 1.234 . S
Zn357 O363 1.920 . S
Zn357 O369 1.898 . S
Zn357 O372 1.905 . S
Zn358 O366 1.905 . S
Zn358 O367 1.898 . S
Zn358 O375 1.920 . S
Zn359 O362 2.080 . S
Zn359 O365 2.114 . S
Zn359 O368 2.120 . S
Zn359 O370 2.120 . S
Zn359 O371 2.114 . S
Zn359 O374 2.080 . S
C360 O365 1.166 . S
C360 O366 1.182 . S
C361 O367 1.167 . S
C361 O368 1.299 . S
O362 Zn359 2.080 . S
O362 C376 1.305 . S
O363 Zn357 1.920 . S
O363 C376 1.234 . S
C364 O369 1.167 . S
C364 O370 1.299 . S
O365 Zn359 2.114 . S
O365 C360 1.166 . S
O366 Zn358 1.905 . S
O366 C360 1.182 . S
O367 Zn358 1.898 . S
O367 C361 1.167 . S
O368 Zn359 2.120 . S
O368 C361 1.299 . S
O369 Zn357 1.898 . S
O369 C364 1.167 . S
O370 Zn359 2.120 . S
O370 C364 1.299 . S
O371 Zn359 2.114 . S
O371 C373 1.166 . S
O372 Zn357 1.905 . S
O372 C373 1.182 . S
C373 O371 1.166 . S
C373 O372 1.182 . S
O374 Zn359 2.080 . S
O374 C377 1.305 . S
O375 Zn358 1.920 . S
O375 C377 1.234 . S
C376 O362 1.305 . S
C376 O363 1.234 . S
C377 O374 1.305 . S
C377 O375 1.234 . S
Zn378 O384 1.920 . S
Zn378 O390 1.898 . S
Zn378 O393 1.905 . S
Zn379 O387 1.905 . S
Zn379 O388 1.898 . S
Zn379 O396 1.920 . S
Zn380 O383 2.080 . S
Zn380 O386 2.114 . S
Zn380 O389 2.120 . S
Zn380 O391 2.120 . S
Zn380 O392 2.114 . S
Zn380 O395 2.080 . S
C381 O386 1.166 . S
C381 O387 1.182 . S
C382 O388 1.167 . S
C382 O389 1.299 . S
O383 Zn380 2.080 . S
O383 C397 1.305 . S
O384 Zn378 1.920 . S
O384 C397 1.234 . S
C385 O390 1.167 . S
C385 O391 1.299 . S
O386 Zn380 2.114 . S
O386 C381 1.166 . S
O387 Zn379 1.905 . S
O387 C381 1.182 . S
O388 Zn379 1.898 . S
O388 C382 1.167 . S
O389 Zn380 2.120 . S
O389 C382 1.299 . S
O390 Zn378 1.898 . S
O390 C385 1.167 . S
O391 Zn380 2.120 . S
O391 C385 1.299 . S
O392 Zn380 2.114 . S
O392 C394 1.166 . S
O393 Zn378 1.905 . S
O393 C394 1.182 . S
C394 O392 1.166 . S
C394 O393 1.182 . S
O395 Zn380 2.080 . S
O395 C398 1.305 . S
O396 Zn379 1.920 . S
O396 C398 1.234 . S
C397 O383 1.305 . S
C397 O384 1.234 . S
C398 O395 1.305 . S
C398 O396 1.234 . S
Zn399 O405 1.920 . S
Zn399 O411 1.898 . S
Zn399 O414 1.905 . S
Zn400 O408 1.905 . S
Zn400 O409 1.898 . S
Zn400 O417 1.920 . S
Zn401 O404 2.080 . S
Zn401 O407 2.114 . S
Zn401 O410 2.120 . S
Zn401 O412 2.120 . S
Zn401 O413 2.114 . S
Zn401 O416 2.080 . S
C402 O407 1.166 . S
C402 O408 1.182 . S
C403 O409 1.167 . S
C403 O410 1.299 . S
O404 Zn401 2.080 . S
O404 C418 1.354 . S
O405 Zn399 1.920 . S
O405 C418 1.177 1_554 S
C406 O411 1.133 1_556 S
C406 O412 1.328 . S
O407 Zn401 2.114 . S
O407 C402 1.166 . S
O408 Zn400 1.905 . S
O408 C402 1.182 . S
O409 Zn400 1.898 . S
O409 C403 1.167 . S
O410 Zn401 2.120 . S
O410 C403 1.299 . S
O411 Zn399 1.898 . S
O411 C406 1.133 1_554 S
O412 Zn401 2.120 . S
O412 C406 1.328 . S
O413 Zn401 2.114 . S
O413 C415 1.227 . S
O414 Zn399 1.905 . S
O414 C415 1.113 1_554 S
C415 O413 1.227 . S
C415 O414 1.113 1_556 S
O416 Zn401 2.080 . S
O416 C419 1.305 . S
O417 Zn400 1.920 . S
O417 C419 1.234 . S
C418 O404 1.354 . S
C418 O405 1.177 1_556 S
C419 O416 1.305 . S
C419 O417 1.234 . S
Zn420 O426 1.920 . S
Zn420 O432 1.898 . S
Zn420 O435 1.905 . S
Zn421 O429 1.905 . S
Zn421 O430 1.898 . S
Zn421 O438 1.920 . S
Zn422 O425 2.080 . S
Zn422 O428 2.114 . S
Zn422 O431 2.120 . S
Zn422 O433 2.120 . S
Zn422 O434 2.114 . S
Zn422 O437 2.080 . S
C423 O428 1.166 . S
C423 O429 1.182 . S
C424 O430 1.167 . S
C424 O431 1.299 . S
O425 Zn422 2.080 . S
O425 C439 1.305 . S
O426 Zn420 1.920 . S
O426 C439 1.234 . S
C427 O432 1.167 . S
C427 O433 1.299 . S
O428 Zn422 2.114 . S
O428 C423 1.166 . S
O429 Zn421 1.905 . S
O429 C423 1.182 . S
O430 Zn421 1.898 . S
O430 C424 1.167 . S
O431 Zn422 2.120 . S
O431 C424 1.299 . S
O432 Zn420 1.898 . S
O432 C427 1.167 . S
O433 Zn422 2.120 . S
O433 C427 1.299 . S
O434 Zn422 2.114 . S
O434 C436 1.166 . S
O435 Zn420 1.905 . S
O435 C436 1.182 . S
C436 O434 1.166 . S
C436 O435 1.182 . S
O437 Zn422 2.080 . S
O437 C440 1.305 . S
O438 Zn421 1.920 . S
O438 C440 1.234 . S
C439 O425 1.305 . S
C439 O426 1.234 . S
C440 O437 1.305 . S
C440 O438 1.234 . S
Zn441 O447 1.920 . S
Zn441 O453 1.898 . S
Zn441 O456 1.905 . S
Zn442 O450 1.905 . S
Zn442 O451 1.898 . S
Zn442 O459 1.920 . S
Zn443 O446 2.080 . S
Zn443 O449 2.114 . S
Zn443 O452 2.120 . S
Zn443 O454 2.120 . S
Zn443 O455 2.114 . S
Zn443 O458 2.080 . S
C444 O449 1.227 . S
C444 O450 1.113 1_554 S
C445 O451 1.133 1_554 S
C445 O452 1.328 . S
O446 Zn443 2.080 . S
O446 C460 1.305 . S
O447 Zn441 1.920 . S
O447 C460 1.234 . S
C448 O453 1.167 . S
C448 O454 1.299 . S
O449 Zn443 2.114 . S
O449 C444 1.227 . S
O450 Zn442 1.905 . S
O450 C444 1.113 1_556 S
O451 Zn442 1.898 . S
O451 C445 1.133 1_556 S
O452 Zn443 2.120 . S
O452 C445 1.328 . S
O453 Zn441 1.898 . S
O453 C448 1.167 . S
O454 Zn443 2.120 . S
O454 C448 1.299 . S
O455 Zn443 2.114 . S
O455 C457 1.166 . S
O456 Zn441 1.905 . S
O456 C457 1.182 . S
C457 O455 1.166 . S
C457 O456 1.182 . S
O458 Zn443 2.080 . S
O458 C461 1.354 . S
O459 Zn442 1.920 . S
O459 C461 1.177 1_556 S
C460 O446 1.305 . S
C460 O447 1.234 . S
C461 O458 1.354 . S
C461 O459 1.177 1_554 S
Zn462 O468 1.920 . S
Zn462 O474 1.898 . S
Zn462 O477 1.905 . S
Zn463 O471 1.905 . S
Zn463 O472 1.898 . S
Zn463 O480 1.920 . S
Zn464 O467 2.080 . S
Zn464 O470 2.114 . S
Zn464 O473 2.120 . S
Zn464 O475 2.120 . S
Zn464 O476 2.114 . S
Zn464 O479 2.080 . S
C465 O470 1.166 . S
C465 O471 1.182 . S
C466 O472 1.167 . S
C466 O473 1.299 . S
O467 Zn464 2.080 . S
O467 C481 1.305 . S
O468 Zn462 1.920 . S
O468 C481 1.234 . S
C469 O474 1.167 . S
C469 O475 1.299 . S
O470 Zn464 2.114 . S
O470 C465 1.166 . S
O471 Zn463 1.905 . S
O471 C465 1.182 . S
O472 Zn463 1.898 . S
O472 C466 1.167 . S
O473 Zn464 2.120 . S
O473 C466 1.299 . S
O474 Zn462 1.898 . S
O474 C469 1.167 . S
O475 Zn464 2.120 . S
O475 C469 1.299 . S
O476 Zn464 2.114 . S
O476 C478 1.166 . S
O477 Zn462 1.905 . S
O477 C478 1.182 . S
C478 O476 1.166 . S
C478 O477 1.182 . S
O479 Zn464 2.080 . S
O479 C482 1.305 . S
O480 Zn463 1.920 . S
O480 C482 1.234 . S
C481 O467 1.305 . S
C481 O468 1.234 . S
C482 O479 1.305 . S
C482 O480 1.234 . S
Zn483 O489 1.920 . S
Zn483 O495 1.898 . S
Zn483 O498 1.905 . S
Zn484 O492 1.905 . S
Zn484 O493 1.898 . S
Zn484 O501 1.920 . S
Zn485 O488 2.080 . S
Zn485 O491 2.114 . S
Zn485 O494 2.120 . S
Zn485 O496 2.120 . S
Zn485 O497 2.114 . S
Zn485 O500 2.080 . S
C486 O491 1.166 . S
C486 O492 1.182 . S
C487 O493 1.167 . S
C487 O494 1.299 . S
O488 Zn485 2.080 . S
O488 C502 1.305 . S
O489 Zn483 1.920 . S
O489 C502 1.234 . S
C490 O495 1.167 . S
C490 O496 1.299 . S
O491 Zn485 2.114 . S
O491 C486 1.166 . S
O492 Zn484 1.905 . S
O492 C486 1.182 . S
O493 Zn484 1.898 . S
O493 C487 1.167 . S
O494 Zn485 2.120 . S
O494 C487 1.299 . S
O495 Zn483 1.898 . S
O495 C490 1.167 . S
O496 Zn485 2.120 . S
O496 C490 1.299 . S
O497 Zn485 2.114 . S
O497 C499 1.166 . S
O498 Zn483 1.905 . S
O498 C499 1.182 . S
C499 O497 1.166 . S
C499 O498 1.182 . S
O500 Zn485 2.080 . S
O500 C503 1.305 . S
O501 Zn484 1.920 . S
O501 C503 1.234 . S
C502 O488 1.305 . S
C502 O489 1.234 . S
C503 O500 1.305 . S
C503 O501 1.234 . S
H504 C512 0.929 . S
H505 C514 0.930 . S
H506 C516 0.930 . S
H507 C519 0.929 . S
H508 C522 0.930 . S
H509 C524 0.960 . S
H510 C524 0.960 . S
H511 C524 0.960 . S
C512 H504 0.929 . S
C512 C513 1.377 . S
C512 C514 1.384 . S
C513 C512 1.377 . S
C513 C519 1.390 . S
C514 H505 0.930 . S
C514 C512 1.384 . S
C514 C515 1.372 . S
C515 C514 1.372 . S
C515 C516 1.400 . S
C515 C520 1.490 . S
C516 H506 0.930 . S
C516 C515 1.400 . S
C516 C519 1.386 . S
H517 C533 0.930 . S
H518 C534 0.931 . S
C519 H507 0.929 . S
C519 C513 1.390 . S
C519 C516 1.386 . S
C520 C515 1.490 . S
C520 C522 1.395 . S
C520 C523 1.403 . S
H521 C527 0.930 . S
C522 H508 0.930 . S
C522 C520 1.395 . S
C522 C525 1.403 . S
C523 C520 1.403 . S
C523 C524 1.524 . S
C523 C527 1.400 . S
C524 H509 0.960 . S
C524 H510 0.960 . S
C524 H511 0.960 . S
C524 C523 1.524 . S
C525 C522 1.403 . S
C525 C526 1.392 . S
C525 C529 1.495 . S
C526 C525 1.392 . S
C526 C527 1.385 . S
C526 C528 1.478 . S
C527 H521 0.930 . S
C527 C523 1.400 . S
C527 C526 1.385 . S
C528 C526 1.478 . S
C528 C530 1.381 . S
C528 C534 1.383 . S
C529 C525 1.495 . S
C529 H535 0.959 . S
C529 H536 0.961 . S
C529 H537 0.960 . S
C530 C528 1.381 . S
C530 C531 1.394 . S
C530 H538 0.930 . S
C531 C530 1.394 . S
C531 C532 1.383 . S
C531 H539 0.929 . S
C532 C531 1.383 . S
C532 C533 1.377 . S
C533 H517 0.930 . S
C533 C532 1.377 . S
C533 C534 1.379 . S
C534 H518 0.931 . S
C534 C528 1.383 . S
C534 C533 1.379 . S
H535 C529 0.959 . S
H536 C529 0.961 . S
H537 C529 0.960 . S
H538 C530 0.930 . S
H539 C531 0.929 . S
H540 C548 0.929 . S
H541 C550 0.930 . S
H542 C552 0.930 . S
H543 C555 0.929 . S
H544 C558 0.930 . S
H545 C560 0.960 . S
H546 C560 0.960 . S
H547 C560 0.960 . S
C548 H540 0.929 . S
C548 C549 1.377 . S
C548 C550 1.384 . S
C549 C548 1.377 . S
C549 C555 1.390 1_545 S
C550 H541 0.930 . S
C550 C548 1.384 . S
C550 C551 1.372 . S
C551 C550 1.372 . S
C551 C552 1.400 1_545 S
C551 C556 1.490 . S
C552 H542 0.930 . S
C552 C551 1.400 1_565 S
C552 C555 1.386 . S
H553 C569 0.930 1_565 S
H554 C570 0.931 1_565 S
C555 H543 0.929 . S
C555 C549 1.390 1_565 S
C555 C552 1.386 . S
C556 C551 1.490 . S
C556 C558 1.395 . S
C556 C559 1.403 1_545 S
H557 C563 0.930 . S
C558 H544 0.930 . S
C558 C556 1.395 . S
C558 C561 1.403 . S
C559 C556 1.403 1_565 S
C559 C560 1.524 . S
C559 C563 1.400 . S
C560 H545 0.960 . S
C560 H546 0.960 . S
C560 H547 0.960 . S
C560 C559 1.524 . S
C561 C558 1.403 . S
C561 C562 1.392 . S
C561 C565 1.495 . S
C562 C561 1.392 . S
C562 C563 1.385 1_545 S
C562 C564 1.478 . S
C563 H557 0.930 . S
C563 C559 1.400 . S
C563 C562 1.385 1_565 S
C564 C562 1.478 . S
C564 C566 1.381 . S
C564 C570 1.383 . S
C565 C561 1.495 . S
C565 H571 0.959 . S
C565 H572 0.961 . S
C565 H573 0.960 . S
C566 C564 1.381 . S
C566 C567 1.394 . S
C566 H574 0.930 . S
C567 C566 1.394 . S
C567 C568 1.383 . S
C567 H575 0.929 . S
C568 C567 1.383 . S
C568 C569 1.377 . S
C569 H553 0.930 1_545 S
C569 C568 1.377 . S
C569 C570 1.379 . S
C570 H554 0.931 1_545 S
C570 C564 1.383 . S
C570 C569 1.379 . S
H571 C565 0.959 . S
H572 C565 0.961 . S
H573 C565 0.960 . S
H574 C566 0.930 . S
H575 C567 0.929 . S
H576 C584 0.929 . S
H577 C586 0.930 . S
H578 C588 0.930 . S
H579 C591 0.929 . S
H580 C594 0.930 . S
H581 C596 0.960 . S
H582 C596 0.960 . S
H583 C596 0.960 . S
C584 H576 0.929 . S
C584 C585 1.377 . S
C584 C586 1.384 . S
C585 C584 1.377 . S
C585 C591 1.390 . S
C586 H577 0.930 . S
C586 C584 1.384 . S
C586 C587 1.372 . S
C587 C586 1.372 . S
C587 C588 1.400 . S
C587 C592 1.490 . S
C588 H578 0.930 . S
C588 C587 1.400 . S
C588 C591 1.386 . S
H589 C605 0.930 . S
H590 C606 0.931 . S
C591 H579 0.929 . S
C591 C585 1.390 . S
C591 C588 1.386 . S
C592 C587 1.490 . S
C592 C594 1.395 1_455 S
C592 C595 1.403 . S
H593 C599 0.930 . S
C594 H580 0.930 . S
C594 C592 1.395 1_655 S
C594 C597 1.403 . S
C595 C592 1.403 . S
C595 C596 1.524 . S
C595 C599 1.400 . S
C596 H581 0.960 . S
C596 H582 0.960 . S
C596 H583 0.960 . S
C596 C595 1.524 . S
C597 C594 1.403 . S
C597 C598 1.392 1_655 S
C597 C601 1.495 . S
C598 C597 1.392 1_455 S
C598 C599 1.385 . S
C598 C600 1.478 . S
C599 H593 0.930 . S
C599 C595 1.400 . S
C599 C598 1.385 . S
C600 C598 1.478 . S
C600 C602 1.381 . S
C600 C606 1.383 . S
C601 C597 1.495 . S
C601 H607 0.959 . S
C601 H608 0.961 . S
C601 H609 0.960 . S
C602 C600 1.381 . S
C602 C603 1.394 . S
C602 H610 0.930 . S
C603 C602 1.394 . S
C603 C604 1.383 . S
C603 H611 0.929 . S
C604 C603 1.383 . S
C604 C605 1.377 . S
C605 H589 0.930 . S
C605 C604 1.377 . S
C605 C606 1.379 . S
C606 H590 0.931 . S
C606 C600 1.383 . S
C606 C605 1.379 . S
H607 C601 0.959 . S
H608 C601 0.961 . S
H609 C601 0.960 . S
H610 C602 0.930 . S
H611 C603 0.929 . S
H612 C620 0.929 . S
H613 C622 0.930 . S
H614 C624 0.930 . S
H615 C627 0.929 . S
H616 C630 0.930 . S
H617 C632 0.960 . S
H618 C632 0.960 . S
H619 C632 0.960 . S
C620 H612 0.929 . S
C620 C621 1.377 . S
C620 C622 1.384 . S
C621 C620 1.377 . S
C621 C627 1.390 . S
C622 H613 0.930 . S
C622 C620 1.384 . S
C622 C623 1.372 . S
C623 C622 1.372 . S
C623 C624 1.400 . S
C623 C628 1.490 . S
C624 H614 0.930 . S
C624 C623 1.400 . S
C624 C627 1.386 . S
H625 C641 0.930 . S
H626 C642 0.931 . S
C627 H615 0.929 . S
C627 C621 1.390 . S
C627 C624 1.386 . S
C628 C623 1.490 . S
C628 C630 1.395 . S
C628 C631 1.403 . S
H629 C635 0.930 . S
C630 H616 0.930 . S
C630 C628 1.395 . S
C630 C633 1.403 . S
C631 C628 1.403 . S
C631 C632 1.524 . S
C631 C635 1.400 . S
C632 H617 0.960 . S
C632 H618 0.960 . S
C632 H619 0.960 . S
C632 C631 1.524 . S
C633 C630 1.403 . S
C633 C634 1.392 . S
C633 C637 1.495 . S
C634 C633 1.392 . S
C634 C635 1.385 . S
C634 C636 1.478 . S
C635 H629 0.930 . S
C635 C631 1.400 . S
C635 C634 1.385 . S
C636 C634 1.478 . S
C636 C638 1.381 . S
C636 C642 1.383 . S
C637 C633 1.495 . S
C637 H643 0.959 . S
C637 H644 0.961 . S
C637 H645 0.960 . S
C638 C636 1.381 . S
C638 C639 1.394 . S
C638 H646 0.930 . S
C639 C638 1.394 . S
C639 C640 1.383 . S
C639 H647 0.929 . S
C640 C639 1.383 . S
C640 C641 1.377 . S
C641 H625 0.930 . S
C641 C640 1.377 . S
C641 C642 1.379 . S
C642 H626 0.931 . S
C642 C636 1.383 . S
C642 C641 1.379 . S
H643 C637 0.959 . S
H644 C637 0.961 . S
H645 C637 0.960 . S
H646 C638 0.930 . S
H647 C639 0.929 . S
H648 C656 0.929 1_565 S
H649 C658 0.934 . S
H650 C660 0.930 . S
H651 C663 0.929 . S
H652 C666 0.930 . S
H653 C668 0.960 . S
H654 C668 0.960 . S
H655 C668 0.960 . S
C656 H648 0.929 1_545 S
C656 C657 1.377 . S
C656 C658 1.380 1_545 S
C657 C656 1.377 . S
C657 C663 1.390 . S
C658 H649 0.934 . S
C658 C656 1.380 1_565 S
C658 C659 1.371 1_565 S
C659 C658 1.371 1_545 S
C659 C660 1.400 . S
C659 C664 1.490 . S
C660 H650 0.930 . S
C660 C659 1.400 . S
C660 C663 1.386 . S
H661 C677 0.930 . S
H662 C678 0.931 . S
C663 H651 0.929 . S
C663 C657 1.390 . S
C663 C660 1.386 . S
C664 C659 1.490 . S
C664 C666 1.395 1_545 S
C664 C667 1.403 . S
H665 C671 0.930 . S
C666 H652 0.930 . S
C666 C664 1.395 1_565 S
C666 C669 1.403 . S
C667 C664 1.403 . S
C667 C668 1.524 . S
C667 C671 1.400 . S
C668 H653 0.960 . S
C668 H654 0.960 . S
C668 H655 0.960 . S
C668 C667 1.524 . S
C669 C666 1.403 . S
C669 C670 1.392 1_565 S
C669 C673 1.495 . S
C670 C669 1.392 1_545 S
C670 C671 1.385 . S
C670 C672 1.478 . S
C671 H665 0.930 . S
C671 C667 1.400 . S
C671 C670 1.385 . S
C672 C670 1.478 . S
C672 C674 1.380 1_545 S
C672 C678 1.383 . S
C673 C669 1.495 . S
C673 H679 0.959 . S
C673 H680 0.961 . S
C673 H681 0.960 . S
C674 C672 1.380 1_565 S
C674 C675 1.394 . S
C674 H682 0.930 . S
C675 C674 1.394 . S
C675 C676 1.383 . S
C675 H683 0.929 . S
C676 C675 1.383 . S
C676 C677 1.377 1_565 S
C677 H661 0.930 . S
C677 C676 1.377 1_545 S
C677 C678 1.379 . S
C678 H662 0.931 . S
C678 C672 1.383 . S
C678 C677 1.379 . S
H679 C673 0.959 . S
H680 C673 0.961 . S
H681 C673 0.960 . S
H682 C674 0.930 . S
H683 C675 0.929 . S
H684 C692 0.929 . S
H685 C694 0.930 . S
H686 C696 0.930 . S
H687 C699 0.929 . S
H688 C702 0.930 . S
H689 C704 0.960 . S
H690 C704 0.960 . S
H691 C704 0.960 . S
C692 H684 0.929 . S
C692 C693 1.377 1_655 S
C692 C694 1.384 . S
C693 C692 1.377 1_455 S
C693 C699 1.390 . S
C694 H685 0.930 . S
C694 C692 1.384 . S
C694 C695 1.372 1_655 S
C695 C694 1.372 1_455 S
C695 C696 1.400 . S
C695 C700 1.490 . S
C696 H686 0.930 . S
C696 C695 1.400 . S
C696 C699 1.386 . S
H697 C713 0.930 . S
H698 C714 0.931 . S
C699 H687 0.929 . S
C699 C693 1.390 . S
C699 C696 1.386 . S
C700 C695 1.490 . S
C700 C702 1.395 1_455 S
C700 C703 1.403 . S
H701 C707 0.930 . S
C702 H688 0.930 . S
C702 C700 1.395 1_655 S
C702 C705 1.403 . S
C703 C700 1.403 . S
C703 C704 1.524 . S
C703 C707 1.400 . S
C704 H689 0.960 . S
C704 H690 0.960 . S
C704 H691 0.960 . S
C704 C703 1.524 . S
C705 C702 1.403 . S
C705 C706 1.392 1_655 S
C705 C709 1.495 . S
C706 C705 1.392 1_455 S
C706 C707 1.385 . S
C706 C708 1.478 . S
C707 H701 0.930 . S
C707 C703 1.400 . S
C707 C706 1.385 . S
C708 C706 1.478 . S
C708 C710 1.381 1_455 S
C708 C714 1.383 . S
C709 C705 1.495 . S
C709 H715 0.959 . S
C709 H716 0.961 . S
C709 H717 0.960 . S
C710 C708 1.381 1_655 S
C710 C711 1.394 . S
C710 H718 0.930 . S
C711 C710 1.394 . S
C711 C712 1.383 1_655 S
C711 H719 0.929 . S
C712 C711 1.383 1_455 S
C712 C713 1.377 . S
C713 H697 0.930 . S
C713 C712 1.377 . S
C713 C714 1.379 . S
C714 H698 0.931 . S
C714 C708 1.383 . S
C714 C713 1.379 . S
H715 C709 0.959 . S
H716 C709 0.961 . S
H717 C709 0.960 . S
H718 C710 0.930 . S
H719 C711 0.929 . S
H720 C728 0.929 . S
H721 C730 0.930 . S
H722 C732 0.930 . S
H723 C735 0.929 . S
H724 C738 0.930 . S
H725 C740 0.960 . S
H726 C740 0.960 . S
H727 C740 0.960 . S
C728 H720 0.929 . S
C728 C729 1.377 . S
C728 C730 1.384 . S
C729 C728 1.377 . S
C729 C735 1.390 . S
C730 H721 0.930 . S
C730 C728 1.384 . S
C730 C731 1.372 . S
C731 C730 1.372 . S
C731 C732 1.400 . S
C731 C736 1.490 . S
C732 H722 0.930 . S
C732 C731 1.400 . S
C732 C735 1.386 . S
H733 C749 0.930 . S
H734 C750 0.931 . S
C735 H723 0.929 . S
C735 C729 1.390 . S
C735 C732 1.386 . S
C736 C731 1.490 . S
C736 C738 1.395 . S
C736 C739 1.403 . S
H737 C743 0.930 . S
C738 H724 0.930 . S
C738 C736 1.395 . S
C738 C741 1.403 . S
C739 C736 1.403 . S
C739 C740 1.524 . S
C739 C743 1.400 . S
C740 H725 0.960 . S
C740 H726 0.960 . S
C740 H727 0.960 . S
C740 C739 1.524 . S
C741 C738 1.403 . S
C741 C742 1.392 . S
C741 C745 1.495 . S
C742 C741 1.392 . S
C742 C743 1.385 . S
C742 C744 1.478 . S
C743 H737 0.930 . S
C743 C739 1.400 . S
C743 C742 1.385 . S
C744 C742 1.478 . S
C744 C746 1.381 . S
C744 C750 1.383 . S
C745 C741 1.495 . S
C745 H751 0.959 . S
C745 H752 0.961 . S
C745 H753 0.960 . S
C746 C744 1.381 . S
C746 C747 1.394 . S
C746 H754 0.930 . S
C747 C746 1.394 . S
C747 C748 1.383 . S
C747 H755 0.929 . S
C748 C747 1.383 . S
C748 C749 1.377 . S
C749 H733 0.930 . S
C749 C748 1.377 . S
C749 C750 1.379 . S
C750 H734 0.931 . S
C750 C744 1.383 . S
C750 C749 1.379 . S
H751 C745 0.959 . S
H752 C745 0.961 . S
H753 C745 0.960 . S
H754 C746 0.930 . S
H755 C747 0.929 . S
H756 C764 0.971 . S
H757 C766 0.930 . S
H758 C768 0.930 . S
H759 C771 0.929 . S
H760 C774 0.930 . S
H761 C776 0.960 . S
H762 C776 0.960 . S
H763 C776 0.960 . S
C764 H756 0.971 . S
C764 C765 1.349 1_565 S
C764 C766 1.372 . S
C765 C764 1.349 1_545 S
C765 C771 1.390 . S
C766 H757 0.930 . S
C766 C764 1.372 . S
C766 C767 1.372 1_565 S
C767 C766 1.372 1_545 S
C767 C768 1.400 . S
C767 C772 1.490 . S
C768 H758 0.930 . S
C768 C767 1.400 . S
C768 C771 1.386 . S
H769 C785 0.930 . S
H770 C786 0.931 . S
C771 H759 0.929 . S
C771 C765 1.390 . S
C771 C768 1.386 . S
C772 C767 1.490 . S
C772 C774 1.395 . S
C772 C775 1.403 . S
H773 C779 0.930 . S
C774 H760 0.930 . S
C774 C772 1.395 . S
C774 C777 1.403 . S
C775 C772 1.403 . S
C775 C776 1.524 . S
C775 C779 1.400 . S
C776 H761 0.960 . S
C776 H762 0.960 . S
C776 H763 0.960 . S
C776 C775 1.524 . S
C777 C774 1.403 . S
C777 C778 1.392 . S
C777 C781 1.495 1_545 S
C778 C777 1.392 . S
C778 C779 1.385 . S
C778 C780 1.478 . S
C779 H773 0.930 . S
C779 C775 1.400 . S
C779 C778 1.385 . S
C780 C778 1.478 . S
C780 C782 1.381 1_545 S
C780 C786 1.383 . S
C781 C777 1.495 1_565 S
C781 H787 0.959 . S
C781 H788 0.961 1_565 S
C781 H789 0.960 . S
C782 C780 1.381 1_565 S
C782 C783 1.394 . S
C782 H790 0.930 . S
C783 C782 1.394 . S
C783 C784 1.383 1_565 S
C783 H791 0.929 . S
C784 C783 1.383 1_545 S
C784 C785 1.377 . S
C785 H769 0.930 . S
C785 C784 1.377 . S
C785 C786 1.379 . S
C786 H770 0.931 . S
C786 C780 1.383 . S
C786 C785 1.379 . S
H787 C781 0.959 . S
H788 C781 0.961 1_545 S
H789 C781 0.960 . S
H790 C782 0.930 . S
H791 C783 0.929 . S
H792 C800 0.929 . S
H793 C802 0.930 . S
H794 C804 0.930 . S
H795 C807 0.929 . S
H796 C810 0.930 . S
H797 C812 0.960 . S
H798 C812 0.960 . S
H799 C812 0.960 . S
C800 H792 0.929 . S
C800 C801 1.377 . S
C800 C802 1.384 . S
C801 C800 1.377 . S
C801 C807 1.390 1_455 S
C802 H793 0.930 . S
C802 C800 1.384 . S
C802 C803 1.372 . S
C803 C802 1.372 . S
C803 C804 1.400 1_455 S
C803 C808 1.490 . S
C804 H794 0.930 . S
C804 C803 1.400 1_655 S
C804 C807 1.386 . S
H805 C821 0.930 1_655 S
H806 C822 0.931 1_655 S
C807 H795 0.929 . S
C807 C801 1.390 1_655 S
C807 C804 1.386 . S
C808 C803 1.490 . S
C808 C810 1.395 . S
C808 C811 1.403 1_455 S
H809 C815 0.930 . S
C810 H796 0.930 . S
C810 C808 1.395 . S
C810 C813 1.403 . S
C811 C808 1.403 1_655 S
C811 C812 1.524 . S
C811 C815 1.400 . S
C812 H797 0.960 . S
C812 H798 0.960 . S
C812 H799 0.960 . S
C812 C811 1.524 . S
C813 C810 1.403 . S
C813 C814 1.392 . S
C813 C817 1.495 . S
C814 C813 1.392 . S
C814 C815 1.385 1_455 S
C814 C816 1.478 . S
C815 H809 0.930 . S
C815 C811 1.400 . S
C815 C814 1.385 1_655 S
C816 C814 1.478 . S
C816 C818 1.381 . S
C816 C822 1.383 . S
C817 C813 1.495 . S
C817 H823 0.959 . S
C817 H824 0.961 . S
C817 H825 0.960 . S
C818 C816 1.381 . S
C818 C819 1.394 . S
C818 H826 0.930 . S
C819 C818 1.394 . S
C819 C820 1.383 . S
C819 H827 0.929 . S
C820 C819 1.383 . S
C820 C821 1.377 . S
C821 H805 0.930 1_455 S
C821 C820 1.377 . S
C821 C822 1.379 . S
C822 H806 0.931 1_455 S
C822 C816 1.383 . S
C822 C821 1.379 . S
H823 C817 0.959 . S
H824 C817 0.961 . S
H825 C817 0.960 . S
H826 C818 0.930 . S
H827 C819 0.929 . S
H828 C836 0.929 . S
H829 C838 0.930 . S
H830 C840 0.930 . S
H831 C843 0.929 . S
H832 C846 0.930 . S
H833 C848 0.960 . S
H834 C848 0.960 . S
H835 C848 0.960 . S
C836 H828 0.929 . S
C836 C837 1.377 . S
C836 C838 1.384 . S
C837 C836 1.377 . S
C837 C843 1.390 . S
C838 H829 0.930 . S
C838 C836 1.384 . S
C838 C839 1.372 . S
C839 C838 1.372 . S
C839 C840 1.400 . S
C839 C844 1.490 . S
C840 H830 0.930 . S
C840 C839 1.400 . S
C840 C843 1.386 . S
H841 C857 0.930 . S
H842 C858 0.931 . S
C843 H831 0.929 . S
C843 C837 1.390 . S
C843 C840 1.386 . S
C844 C839 1.490 . S
C844 C846 1.395 . S
C844 C847 1.403 . S
H845 C851 0.930 . S
C846 H832 0.930 . S
C846 C844 1.395 . S
C846 C849 1.403 . S
C847 C844 1.403 . S
C847 C848 1.524 . S
C847 C851 1.400 . S
C848 H833 0.960 . S
C848 H834 0.960 . S
C848 H835 0.960 . S
C848 C847 1.524 . S
C849 C846 1.403 . S
C849 C850 1.392 . S
C849 C853 1.495 . S
C850 C849 1.392 . S
C850 C851 1.385 . S
C850 C852 1.478 . S
C851 H845 0.930 . S
C851 C847 1.400 . S
C851 C850 1.385 . S
C852 C850 1.478 . S
C852 C854 1.381 . S
C852 C858 1.383 . S
C853 C849 1.495 . S
C853 H859 0.959 . S
C853 H860 0.961 . S
C853 H861 0.960 . S
C854 C852 1.381 . S
C854 C855 1.394 . S
C854 H862 0.930 . S
C855 C854 1.394 . S
C855 C856 1.383 . S
C855 H863 0.929 . S
C856 C855 1.383 . S
C856 C857 1.377 . S
C857 H841 0.930 . S
C857 C856 1.377 . S
C857 C858 1.379 . S
C858 H842 0.931 . S
C858 C852 1.383 . S
C858 C857 1.379 . S
H859 C853 0.959 . S
H860 C853 0.961 . S
H861 C853 0.960 . S
H862 C854 0.930 . S
H863 C855 0.929 . S
H864 C872 0.929 . S
H865 C874 0.930 . S
H866 C876 0.930 1_565 S
H867 C879 0.929 . S
H868 C882 0.930 . S
H869 C884 0.960 . S
H870 C884 0.960 . S
H871 C884 0.960 . S
C872 H864 0.929 . S
C872 C873 1.377 . S
C872 C874 1.384 . S
C873 C872 1.377 . S
C873 C879 1.390 1_545 S
C874 H865 0.930 . S
C874 C872 1.384 . S
C874 C875 1.372 . S
C875 C874 1.372 . S
C875 C876 1.400 . S
C875 C880 1.490 . S
C876 H866 0.930 1_545 S
C876 C875 1.400 . S
C876 C879 1.386 1_545 S
H877 C893 0.930 . S
H878 C894 0.931 . S
C879 H867 0.929 . S
C879 C873 1.390 1_565 S
C879 C876 1.386 1_565 S
C880 C875 1.490 . S
C880 C882 1.395 . S
C880 C883 1.403 1_545 S
H881 C887 0.930 . S
C882 H868 0.930 . S
C882 C880 1.395 . S
C882 C885 1.403 . S
C883 C880 1.403 1_565 S
C883 C884 1.524 . S
C883 C887 1.400 . S
C884 H869 0.960 . S
C884 H870 0.960 . S
C884 H871 0.960 . S
C884 C883 1.524 . S
C885 C882 1.403 . S
C885 C886 1.392 . S
C885 C889 1.495 . S
C886 C885 1.392 . S
C886 C887 1.385 1_545 S
C886 C888 1.478 . S
C887 H881 0.930 . S
C887 C883 1.400 . S
C887 C886 1.385 1_565 S
C888 C886 1.478 . S
C888 C890 1.381 . S
C888 C894 1.383 . S
C889 C885 1.495 . S
C889 H895 0.959 . S
C889 H896 0.961 . S
C889 H897 0.960 . S
C890 C888 1.381 . S
C890 C891 1.394 . S
C890 H898 0.930 . S
C891 C890 1.394 . S
C891 C892 1.383 . S
C891 H899 0.929 . S
C892 C891 1.383 . S
C892 C893 1.377 . S
C893 H877 0.930 . S
C893 C892 1.377 . S
C893 C894 1.379 . S
C894 H878 0.931 . S
C894 C888 1.383 . S
C894 C893 1.379 . S
H895 C889 0.959 . S
H896 C889 0.961 . S
H897 C889 0.960 . S
H898 C890 0.930 . S
H899 C891 0.929 . S
H900 C908 0.929 . S
H901 C910 0.930 . S
H902 C912 0.930 . S
H903 C915 0.929 . S
H904 C918 0.930 . S
H905 C920 0.960 . S
H906 C920 0.960 . S
H907 C920 0.960 . S
C908 H900 0.929 . S
C908 C909 1.377 . S
C908 C910 1.384 . S
C909 C908 1.377 . S
C909 C915 1.390 . S
C910 H901 0.930 . S
C910 C908 1.384 . S
C910 C911 1.372 . S
C911 C910 1.372 . S
C911 C912 1.400 . S
C911 C916 1.490 . S
C912 H902 0.930 . S
C912 C911 1.400 . S
C912 C915 1.386 . S
H913 C929 0.930 . S
H914 C930 0.931 . S
C915 H903 0.929 . S
C915 C909 1.390 . S
C915 C912 1.386 . S
C916 C911 1.490 . S
C916 C918 1.395 1_455 S
C916 C919 1.403 . S
H917 C923 0.930 . S
C918 H904 0.930 . S
C918 C916 1.395 1_655 S
C918 C921 1.403 . S
C919 C916 1.403 . S
C919 C920 1.524 . S
C919 C923 1.400 . S
C920 H905 0.960 . S
C920 H906 0.960 . S
C920 H907 0.960 . S
C920 C919 1.524 . S
C921 C918 1.403 . S
C921 C922 1.392 1_655 S
C921 C925 1.495 . S
C922 C921 1.392 1_455 S
C922 C923 1.385 . S
C922 C924 1.478 . S
C923 H917 0.930 . S
C923 C919 1.400 . S
C923 C922 1.385 . S
C924 C922 1.478 . S
C924 C926 1.381 . S
C924 C930 1.383 . S
C925 C921 1.495 . S
C925 H931 0.959 . S
C925 H932 0.961 . S
C925 H933 0.960 . S
C926 C924 1.381 . S
C926 C927 1.394 . S
C926 H934 0.930 . S
C927 C926 1.394 . S
C927 C928 1.383 . S
C927 H935 0.929 . S
C928 C927 1.383 . S
C928 C929 1.377 . S
C929 H913 0.930 . S
C929 C928 1.377 . S
C929 C930 1.379 . S
C930 H914 0.931 . S
C930 C924 1.383 . S
C930 C929 1.379 . S
H931 C925 0.959 . S
H932 C925 0.961 . S
H933 C925 0.960 . S
H934 C926 0.930 . S
H935 C927 0.929 . S
H936 C944 0.929 . S
H937 C946 0.930 . S
H938 C948 0.930 . S
H939 C951 0.929 . S
H940 C954 0.930 . S
H941 C956 0.960 . S
H942 C956 0.960 . S
H943 C956 0.960 . S
C944 H936 0.929 . S
C944 C945 1.377 . S
C944 C946 1.384 . S
C945 C944 1.377 . S
C945 C951 1.390 . S
C946 H937 0.930 . S
C946 C944 1.384 . S
C946 C947 1.372 . S
C947 C946 1.372 . S
C947 C948 1.400 . S
C947 C952 1.490 . S
C948 H938 0.930 . S
C948 C947 1.400 . S
C948 C951 1.386 . S
H949 C965 0.930 . S
H950 C966 0.931 . S
C951 H939 0.929 . S
C951 C945 1.390 . S
C951 C948 1.386 . S
C952 C947 1.490 . S
C952 C954 1.395 . S
C952 C955 1.403 . S
H953 C959 0.930 . S
C954 H940 0.930 . S
C954 C952 1.395 . S
C954 C957 1.403 . S
C955 C952 1.403 . S
C955 C956 1.524 . S
C955 C959 1.400 . S
C956 H941 0.960 . S
C956 H942 0.960 . S
C956 H943 0.960 . S
C956 C955 1.524 . S
C957 C954 1.403 . S
C957 C958 1.392 . S
C957 C961 1.495 . S
C958 C957 1.392 . S
C958 C959 1.385 . S
C958 C960 1.478 . S
C959 H953 0.930 . S
C959 C955 1.400 . S
C959 C958 1.385 . S
C960 C958 1.478 . S
C960 C962 1.381 . S
C960 C966 1.383 . S
C961 C957 1.495 . S
C961 H967 0.959 . S
C961 H968 0.961 . S
C961 H969 0.960 . S
C962 C960 1.381 . S
C962 C963 1.394 . S
C962 H970 0.930 . S
C963 C962 1.394 . S
C963 C964 1.383 . S
C963 H971 0.929 . S
C964 C963 1.383 . S
C964 C965 1.377 . S
C965 H949 0.930 . S
C965 C964 1.377 . S
C965 C966 1.379 . S
C966 H950 0.931 . S
C966 C960 1.383 . S
C966 C965 1.379 . S
H967 C961 0.959 . S
H968 C961 0.961 . S
H969 C961 0.960 . S
H970 C962 0.930 . S
H971 C963 0.929 . S
H972 C980 0.929 . S
H973 C982 0.930 . S
H974 C984 0.930 . S
H975 C987 0.929 . S
H976 C990 0.930 . S
H977 C992 0.960 . S
H978 C992 0.960 . S
H979 C992 0.960 . S
C980 H972 0.929 . S
C980 C981 1.377 . S
C980 C982 1.384 . S
C981 C980 1.377 . S
C981 C987 1.390 . S
C982 H973 0.930 . S
C982 C980 1.384 . S
C982 C983 1.372 . S
C983 C982 1.372 . S
C983 C984 1.400 . S
C983 C988 1.490 . S
C984 H974 0.930 . S
C984 C983 1.400 . S
C984 C987 1.386 . S
H985 C1001 0.930 . S
H986 C1002 0.931 . S
C987 H975 0.929 . S
C987 C981 1.390 . S
C987 C984 1.386 . S
C988 C983 1.490 . S
C988 C990 1.395 . S
C988 C991 1.403 . S
H989 C995 0.930 . S
C990 H976 0.930 . S
C990 C988 1.395 . S
C990 C993 1.403 . S
C991 C988 1.403 . S
C991 C992 1.524 . S
C991 C995 1.400 . S
C992 H977 0.960 . S
C992 H978 0.960 . S
C992 H979 0.960 . S
C992 C991 1.524 . S
C993 C990 1.403 . S
C993 C994 1.392 . S
C993 C997 1.495 . S
C994 C993 1.392 . S
C994 C995 1.385 . S
C994 C996 1.478 . S
C995 H989 0.930 . S
C995 C991 1.400 . S
C995 C994 1.385 . S
C996 C994 1.478 . S
C996 C998 1.381 . S
C996 C1002 1.383 . S
C997 C993 1.495 . S
C997 H1003 0.959 . S
C997 H1004 0.961 . S
C997 H1005 0.960 . S
C998 C996 1.381 . S
C998 C999 1.394 . S
C998 H1006 0.930 . S
C999 C998 1.394 . S
C999 C1000 1.383 . S
C999 H1007 0.929 . S
C1000 C999 1.383 . S
C1000 C1001 1.377 . S
C1001 H985 0.930 . S
C1001 C1000 1.377 . S
C1001 C1002 1.379 . S
C1002 H986 0.931 . S
C1002 C996 1.383 . S
C1002 C1001 1.379 . S
H1003 C997 0.959 . S
H1004 C997 0.961 . S
H1005 C997 0.960 . S
H1006 C998 0.930 . S
H1007 C999 0.929 . S
H1008 C1016 0.929 . S
H1009 C1018 0.930 . S
H1010 C1020 0.930 . S
H1011 C1023 0.929 . S
H1012 C1026 0.930 . S
H1013 C1028 0.960 . S
H1014 C1028 0.960 . S
H1015 C1028 0.960 . S
C1016 H1008 0.929 . S
C1016 C1017 1.377 . S
C1016 C1018 1.384 . S
C1017 C1016 1.377 . S
C1017 C1023 1.390 . S
C1018 H1009 0.930 . S
C1018 C1016 1.384 . S
C1018 C1019 1.372 . S
C1019 C1018 1.372 . S
C1019 C1020 1.400 . S
C1019 C1024 1.490 . S
C1020 H1010 0.930 . S
C1020 C1019 1.400 . S
C1020 C1023 1.386 . S
H1021 C1037 0.930 . S
H1022 C1038 0.931 . S
C1023 H1011 0.929 . S
C1023 C1017 1.390 . S
C1023 C1020 1.386 . S
C1024 C1019 1.490 . S
C1024 C1026 1.395 . S
C1024 C1027 1.403 . S
H1025 C1031 0.930 . S
C1026 H1012 0.930 . S
C1026 C1024 1.395 . S
C1026 C1029 1.403 . S
C1027 C1024 1.403 . S
C1027 C1028 1.524 . S
C1027 C1031 1.400 . S
C1028 H1013 0.960 . S
C1028 H1014 0.960 . S
C1028 H1015 0.960 . S
C1028 C1027 1.524 . S
C1029 C1026 1.403 . S
C1029 C1030 1.392 . S
C1029 C1033 1.495 . S
C1030 C1029 1.392 . S
C1030 C1031 1.385 . S
C1030 C1032 1.478 . S
C1031 H1025 0.930 . S
C1031 C1027 1.400 . S
C1031 C1030 1.385 . S
C1032 C1030 1.478 . S
C1032 C1034 1.381 . S
C1032 C1038 1.383 . S
C1033 C1029 1.495 . S
C1033 H1039 0.959 . S
C1033 H1040 0.961 . S
C1033 H1041 0.960 . S
C1034 C1032 1.381 . S
C1034 C1035 1.394 . S
C1034 H1042 0.930 . S
C1035 C1034 1.394 . S
C1035 C1036 1.383 . S
C1035 H1043 0.929 . S
C1036 C1035 1.383 . S
C1036 C1037 1.377 . S
C1037 H1021 0.930 . S
C1037 C1036 1.377 . S
C1037 C1038 1.379 . S
C1038 H1022 0.931 . S
C1038 C1032 1.383 . S
C1038 C1037 1.379 . S
H1039 C1033 0.959 . S
H1040 C1033 0.961 . S
H1041 C1033 0.960 . S
H1042 C1034 0.930 . S
H1043 C1035 0.929 . S
H1044 C1052 0.929 . S
H1045 C1054 0.930 . S
H1046 C1056 0.930 . S
H1047 C1059 0.929 . S
H1048 C1062 0.930 . S
H1049 C1064 0.960 . S
H1050 C1064 0.960 . S
H1051 C1064 0.960 . S
C1052 H1044 0.929 . S
C1052 C1053 1.377 . S
C1052 C1054 1.384 . S
C1053 C1052 1.377 . S
C1053 C1059 1.390 . S
C1054 H1045 0.930 . S
C1054 C1052 1.384 . S
C1054 C1055 1.372 . S
C1055 C1054 1.372 . S
C1055 C1056 1.400 . S
C1055 C1060 1.490 . S
C1056 H1046 0.930 . S
C1056 C1055 1.400 . S
C1056 C1059 1.386 . S
H1057 C1073 0.930 . S
H1058 C1074 0.931 . S
C1059 H1047 0.929 . S
C1059 C1053 1.390 . S
C1059 C1056 1.386 . S
C1060 C1055 1.490 . S
C1060 C1062 1.395 . S
C1060 C1063 1.403 . S
H1061 C1067 0.930 . S
C1062 H1048 0.930 . S
C1062 C1060 1.395 . S
C1062 C1065 1.403 . S
C1063 C1060 1.403 . S
C1063 C1064 1.524 . S
C1063 C1067 1.400 . S
C1064 H1049 0.960 . S
C1064 H1050 0.960 . S
C1064 H1051 0.960 . S
C1064 C1063 1.524 . S
C1065 C1062 1.403 . S
C1065 C1066 1.392 . S
C1065 C1069 1.495 . S
C1066 C1065 1.392 . S
C1066 C1067 1.385 . S
C1066 C1068 1.478 . S
C1067 H1061 0.930 . S
C1067 C1063 1.400 . S
C1067 C1066 1.385 . S
C1068 C1066 1.478 . S
C1068 C1070 1.381 . S
C1068 C1074 1.383 . S
C1069 C1065 1.495 . S
C1069 H1075 0.959 . S
C1069 H1076 0.961 . S
C1069 H1077 0.960 . S
C1070 C1068 1.381 . S
C1070 C1071 1.394 . S
C1070 H1078 0.930 . S
C1071 C1070 1.394 . S
C1071 C1072 1.383 . S
C1071 H1079 0.929 . S
C1072 C1071 1.383 . S
C1072 C1073 1.377 . S
C1073 H1057 0.930 . S
C1073 C1072 1.377 . S
C1073 C1074 1.379 . S
C1074 H1058 0.931 . S
C1074 C1068 1.383 . S
C1074 C1073 1.379 . S
H1075 C1069 0.959 . S
H1076 C1069 0.961 . S
H1077 C1069 0.960 . S
H1078 C1070 0.930 . S
H1079 C1071 0.929 . S
H1080 C1088 0.929 . S
H1081 C1090 0.930 . S
H1082 C1092 0.930 . S
H1083 C1095 0.929 . S
H1084 C1098 0.930 . S
H1085 C1100 0.960 . S
H1086 C1100 0.960 . S
H1087 C1100 0.960 . S
C1088 H1080 0.929 . S
C1088 C1089 1.377 . S
C1088 C1090 1.384 . S
C1089 C1088 1.377 . S
C1089 C1095 1.390 . S
C1090 H1081 0.930 . S
C1090 C1088 1.384 . S
C1090 C1091 1.372 . S
C1091 C1090 1.372 . S
C1091 C1092 1.400 . S
C1091 C1096 1.490 . S
C1092 H1082 0.930 . S
C1092 C1091 1.400 . S
C1092 C1095 1.386 . S
H1093 C1109 0.930 . S
H1094 C1110 0.931 . S
C1095 H1083 0.929 . S
C1095 C1089 1.390 . S
C1095 C1092 1.386 . S
C1096 C1091 1.490 . S
C1096 C1098 1.395 . S
C1096 C1099 1.403 . S
H1097 C1103 0.930 . S
C1098 H1084 0.930 . S
C1098 C1096 1.395 . S
C1098 C1101 1.403 . S
C1099 C1096 1.403 . S
C1099 C1100 1.524 . S
C1099 C1103 1.400 . S
C1100 H1085 0.960 . S
C1100 H1086 0.960 . S
C1100 H1087 0.960 . S
C1100 C1099 1.524 . S
C1101 C1098 1.403 . S
C1101 C1102 1.392 . S
C1101 C1105 1.495 . S
C1102 C1101 1.392 . S
C1102 C1103 1.385 . S
C1102 C1104 1.478 . S
C1103 H1097 0.930 . S
C1103 C1099 1.400 . S
C1103 C1102 1.385 . S
C1104 C1102 1.478 . S
C1104 C1106 1.381 . S
C1104 C1110 1.383 . S
C1105 C1101 1.495 . S
C1105 H1111 0.959 . S
C1105 H1112 0.961 . S
C1105 H1113 0.960 . S
C1106 C1104 1.381 . S
C1106 C1107 1.394 . S
C1106 H1114 0.930 . S
C1107 C1106 1.394 . S
C1107 C1108 1.383 . S
C1107 H1115 0.929 . S
C1108 C1107 1.383 . S
C1108 C1109 1.377 . S
C1109 H1093 0.930 . S
C1109 C1108 1.377 . S
C1109 C1110 1.379 . S
C1110 H1094 0.931 . S
C1110 C1104 1.383 . S
C1110 C1109 1.379 . S
H1111 C1105 0.959 . S
H1112 C1105 0.961 . S
H1113 C1105 0.960 . S
H1114 C1106 0.930 . S
H1115 C1107 0.929 . S
H1116 C1124 0.929 . S
H1117 C1126 0.930 . S
H1118 C1128 0.930 . S
H1119 C1131 0.929 . S
H1120 C1134 0.930 . S
H1121 C1136 0.960 . S
H1122 C1136 0.960 . S
H1123 C1136 0.960 . S
C1124 H1116 0.929 . S
C1124 C1125 1.377 . S
C1124 C1126 1.384 . S
C1125 C1124 1.377 . S
C1125 C1131 1.390 . S
C1126 H1117 0.930 . S
C1126 C1124 1.384 . S
C1126 C1127 1.372 . S
C1127 C1126 1.372 . S
C1127 C1128 1.400 . S
C1127 C1132 1.490 . S
C1128 H1118 0.930 . S
C1128 C1127 1.400 . S
C1128 C1131 1.386 . S
H1129 C1145 0.930 . S
H1130 C1146 0.931 . S
C1131 H1119 0.929 . S
C1131 C1125 1.390 . S
C1131 C1128 1.386 . S
C1132 C1127 1.490 . S
C1132 C1134 1.395 . S
C1132 C1135 1.403 . S
H1133 C1139 0.930 . S
C1134 H1120 0.930 . S
C1134 C1132 1.395 . S
C1134 C1137 1.403 . S
C1135 C1132 1.403 . S
C1135 C1136 1.524 . S
C1135 C1139 1.400 . S
C1136 H1121 0.960 . S
C1136 H1122 0.960 . S
C1136 H1123 0.960 . S
C1136 C1135 1.524 . S
C1137 C1134 1.403 . S
C1137 C1138 1.392 . S
C1137 C1141 1.495 . S
C1138 C1137 1.392 . S
C1138 C1139 1.385 . S
C1138 C1140 1.478 . S
C1139 H1133 0.930 . S
C1139 C1135 1.400 . S
C1139 C1138 1.385 . S
C1140 C1138 1.478 . S
C1140 C1142 1.381 . S
C1140 C1146 1.383 . S
C1141 C1137 1.495 . S
C1141 H1147 0.959 . S
C1141 H1148 0.961 . S
C1141 H1149 0.960 . S
C1142 C1140 1.381 . S
C1142 C1143 1.394 . S
C1142 H1150 0.930 . S
C1143 C1142 1.394 . S
C1143 C1144 1.383 . S
C1143 H1151 0.929 . S
C1144 C1143 1.383 . S
C1144 C1145 1.377 . S
C1145 H1129 0.930 . S
C1145 C1144 1.377 . S
C1145 C1146 1.379 . S
C1146 H1130 0.931 . S
C1146 C1140 1.383 . S
C1146 C1145 1.379 . S
H1147 C1141 0.959 . S
H1148 C1141 0.961 . S
H1149 C1141 0.960 . S
H1150 C1142 0.930 . S
H1151 C1143 0.929 . S
H1152 C1160 0.929 . S
H1153 C1162 0.930 . S
H1154 C1164 0.930 . S
H1155 C1167 0.929 . S
H1156 C1170 0.930 . S
H1157 C1172 0.960 . S
H1158 C1172 0.960 . S
H1159 C1172 0.960 . S
C1160 H1152 0.929 . S
C1160 C1161 1.377 . S
C1160 C1162 1.384 . S
C1161 C1160 1.377 . S
C1161 C1167 1.390 . S
C1162 H1153 0.930 . S
C1162 C1160 1.384 . S
C1162 C1163 1.372 . S
C1163 C1162 1.372 . S
C1163 C1164 1.400 . S
C1163 C1168 1.490 . S
C1164 H1154 0.930 . S
C1164 C1163 1.400 . S
C1164 C1167 1.386 . S
H1165 C1181 0.930 . S
H1166 C1182 0.931 . S
C1167 H1155 0.929 . S
C1167 C1161 1.390 . S
C1167 C1164 1.386 . S
C1168 C1163 1.490 . S
C1168 C1170 1.395 . S
C1168 C1171 1.403 . S
H1169 C1175 0.930 . S
C1170 H1156 0.930 . S
C1170 C1168 1.395 . S
C1170 C1173 1.403 . S
C1171 C1168 1.403 . S
C1171 C1172 1.524 . S
C1171 C1175 1.400 . S
C1172 H1157 0.960 . S
C1172 H1158 0.960 . S
C1172 H1159 0.960 . S
C1172 C1171 1.524 . S
C1173 C1170 1.403 . S
C1173 C1174 1.392 . S
C1173 C1177 1.495 . S
C1174 C1173 1.392 . S
C1174 C1175 1.385 . S
C1174 C1176 1.478 . S
C1175 H1169 0.930 . S
C1175 C1171 1.400 . S
C1175 C1174 1.385 . S
C1176 C1174 1.478 . S
C1176 C1178 1.381 . S
C1176 C1182 1.383 . S
C1177 C1173 1.495 . S
C1177 H1183 0.959 . S
C1177 H1184 0.961 . S
C1177 H1185 0.960 . S
C1178 C1176 1.381 . S
C1178 C1179 1.394 . S
C1178 H1186 0.930 . S
C1179 C1178 1.394 . S
C1179 C1180 1.383 . S
C1179 H1187 0.929 . S
C1180 C1179 1.383 . S
C1180 C1181 1.377 . S
C1181 H1165 0.930 . S
C1181 C1180 1.377 . S
C1181 C1182 1.379 . S
C1182 H1166 0.931 . S
C1182 C1176 1.383 . S
C1182 C1181 1.379 . S
H1183 C1177 0.959 . S
H1184 C1177 0.961 . S
H1185 C1177 0.960 . S
H1186 C1178 0.930 . S
H1187 C1179 0.929 . S
H1188 C1196 0.929 . S
H1189 C1198 0.930 . S
H1190 C1200 0.930 . S
H1191 C1203 0.929 . S
H1192 C1206 0.930 . S
H1193 C1208 0.960 . S
H1194 C1208 0.960 . S
H1195 C1208 0.960 . S
C1196 H1188 0.929 . S
C1196 C1197 1.377 . S
C1196 C1198 1.384 . S
C1197 C1196 1.377 . S
C1197 C1203 1.390 . S
C1198 H1189 0.930 . S
C1198 C1196 1.384 . S
C1198 C1199 1.372 . S
C1199 C1198 1.372 . S
C1199 C1200 1.400 . S
C1199 C1204 1.490 . S
C1200 H1190 0.930 . S
C1200 C1199 1.400 . S
C1200 C1203 1.386 . S
H1201 C1217 0.930 . S
H1202 C1218 0.931 . S
C1203 H1191 0.929 . S
C1203 C1197 1.390 . S
C1203 C1200 1.386 . S
C1204 C1199 1.490 . S
C1204 C1206 1.395 . S
C1204 C1207 1.403 . S
H1205 C1211 0.930 . S
C1206 H1192 0.930 . S
C1206 C1204 1.395 . S
C1206 C1209 1.403 . S
C1207 C1204 1.403 . S
C1207 C1208 1.524 . S
C1207 C1211 1.400 . S
C1208 H1193 0.960 . S
C1208 H1194 0.960 . S
C1208 H1195 0.960 . S
C1208 C1207 1.524 . S
C1209 C1206 1.403 . S
C1209 C1210 1.392 . S
C1209 C1213 1.495 . S
C1210 C1209 1.392 . S
C1210 C1211 1.385 . S
C1210 C1212 1.478 . S
C1211 H1205 0.930 . S
C1211 C1207 1.400 . S
C1211 C1210 1.385 . S
C1212 C1210 1.478 . S
C1212 C1214 1.381 . S
C1212 C1218 1.383 . S
C1213 C1209 1.495 . S
C1213 H1219 0.959 . S
C1213 H1220 0.961 . S
C1213 H1221 0.960 . S
C1214 C1212 1.381 . S
C1214 C1215 1.394 . S
C1214 H1222 0.930 . S
C1215 C1214 1.394 . S
C1215 C1216 1.383 . S
C1215 H1223 0.929 . S
C1216 C1215 1.383 . S
C1216 C1217 1.377 . S
C1217 H1201 0.930 . S
C1217 C1216 1.377 . S
C1217 C1218 1.379 . S
C1218 H1202 0.931 . S
C1218 C1212 1.383 . S
C1218 C1217 1.379 . S
H1219 C1213 0.959 . S
H1220 C1213 0.961 . S
H1221 C1213 0.960 . S
H1222 C1214 0.930 . S
H1223 C1215 0.929 . S
H1224 C1232 0.929 . S
H1225 C1234 0.930 . S
H1226 C1236 0.930 . S
H1227 C1239 0.929 . S
H1228 C1242 0.930 . S
H1229 C1244 0.960 . S
H1230 C1244 0.960 . S
H1231 C1244 0.960 . S
C1232 H1224 0.929 . S
C1232 C1233 1.377 . S
C1232 C1234 1.384 . S
C1233 C1232 1.377 . S
C1233 C1239 1.390 . S
C1234 H1225 0.930 . S
C1234 C1232 1.384 . S
C1234 C1235 1.372 . S
C1235 C1234 1.372 . S
C1235 C1236 1.400 . S
C1235 C1240 1.490 . S
C1236 H1226 0.930 . S
C1236 C1235 1.400 . S
C1236 C1239 1.386 . S
H1237 C1253 0.930 . S
H1238 C1254 0.931 . S
C1239 H1227 0.929 . S
C1239 C1233 1.390 . S
C1239 C1236 1.386 . S
C1240 C1235 1.490 . S
C1240 C1242 1.395 . S
C1240 C1243 1.403 . S
H1241 C1247 0.930 . S
C1242 H1228 0.930 . S
C1242 C1240 1.395 . S
C1242 C1245 1.403 . S
C1243 C1240 1.403 . S
C1243 C1244 1.524 . S
C1243 C1247 1.400 . S
C1244 H1229 0.960 . S
C1244 H1230 0.960 . S
C1244 H1231 0.960 . S
C1244 C1243 1.524 . S
C1245 C1242 1.403 . S
C1245 C1246 1.392 . S
C1245 C1249 1.495 . S
C1246 C1245 1.392 . S
C1246 C1247 1.385 . S
C1246 C1248 1.478 . S
C1247 H1241 0.930 . S
C1247 C1243 1.400 . S
C1247 C1246 1.385 . S
C1248 C1246 1.478 . S
C1248 C1250 1.381 . S
C1248 C1254 1.383 . S
C1249 C1245 1.495 . S
C1249 H1255 0.959 . S
C1249 H1256 0.961 . S
C1249 H1257 0.960 . S
C1250 C1248 1.381 . S
C1250 C1251 1.394 . S
C1250 H1258 0.930 . S
C1251 C1250 1.394 . S
C1251 C1252 1.383 . S
C1251 H1259 0.929 . S
C1252 C1251 1.383 . S
C1252 C1253 1.377 . S
C1253 H1237 0.930 . S
C1253 C1252 1.377 . S
C1253 C1254 1.379 . S
C1254 H1238 0.931 . S
C1254 C1248 1.383 . S
C1254 C1253 1.379 . S
H1255 C1249 0.959 . S
H1256 C1249 0.961 . S
H1257 C1249 0.960 . S
H1258 C1250 0.930 . S
H1259 C1251 0.929 . S
H1260 C1268 0.929 . S
H1261 C1270 0.930 . S
H1262 C1272 0.930 . S
H1263 C1275 0.929 . S
H1264 C1278 0.930 . S
H1265 C1280 0.960 . S
H1266 C1280 0.960 . S
H1267 C1280 0.960 . S
C1268 H1260 0.929 . S
C1268 C1269 1.377 . S
C1268 C1270 1.384 . S
C1269 C1268 1.377 . S
C1269 C1275 1.390 . S
C1270 H1261 0.930 . S
C1270 C1268 1.384 . S
C1270 C1271 1.372 . S
C1271 C1270 1.372 . S
C1271 C1272 1.400 . S
C1271 C1276 1.490 . S
C1272 H1262 0.930 . S
C1272 C1271 1.400 . S
C1272 C1275 1.386 . S
H1273 C1289 0.930 . S
H1274 C1290 0.931 . S
C1275 H1263 0.929 . S
C1275 C1269 1.390 . S
C1275 C1272 1.386 . S
C1276 C1271 1.490 . S
C1276 C1278 1.395 . S
C1276 C1279 1.403 . S
H1277 C1283 0.930 . S
C1278 H1264 0.930 . S
C1278 C1276 1.395 . S
C1278 C1281 1.403 . S
C1279 C1276 1.403 . S
C1279 C1280 1.524 . S
C1279 C1283 1.400 . S
C1280 H1265 0.960 . S
C1280 H1266 0.960 . S
C1280 H1267 0.960 . S
C1280 C1279 1.524 . S
C1281 C1278 1.403 . S
C1281 C1282 1.392 . S
C1281 C1285 1.495 . S
C1282 C1281 1.392 . S
C1282 C1283 1.385 . S
C1282 C1284 1.478 . S
C1283 H1277 0.930 . S
C1283 C1279 1.400 . S
C1283 C1282 1.385 . S
C1284 C1282 1.478 . S
C1284 C1286 1.381 . S
C1284 C1290 1.383 . S
C1285 C1281 1.495 . S
C1285 H1291 0.959 . S
C1285 H1292 0.961 . S
C1285 H1293 0.960 . S
C1286 C1284 1.381 . S
C1286 C1287 1.394 1_554 S
C1286 H1294 0.930 . S
C1287 C1286 1.394 1_556 S
C1287 C1288 1.375 1_556 S
C1287 H1295 0.929 . S
C1288 C1287 1.375 1_554 S
C1288 C1289 1.416 . S
C1289 H1273 0.930 . S
C1289 C1288 1.416 . S
C1289 C1290 1.379 . S
C1290 H1274 0.931 . S
C1290 C1284 1.383 . S
C1290 C1289 1.379 . S
H1291 C1285 0.959 . S
H1292 C1285 0.961 . S
H1293 C1285 0.960 . S
H1294 C1286 0.930 . S
H1295 C1287 0.929 . S
H1296 C1304 0.929 . S
H1297 C1306 0.930 . S
H1298 C1308 0.930 . S
H1299 C1311 0.929 . S
H1300 C1314 0.930 . S
H1301 C1316 0.960 . S
H1302 C1316 0.960 . S
H1303 C1316 0.960 . S
C1304 H1296 0.929 . S
C1304 C1305 1.377 . S
C1304 C1306 1.384 . S
C1305 C1304 1.377 . S
C1305 C1311 1.390 . S
C1306 H1297 0.930 . S
C1306 C1304 1.384 . S
C1306 C1307 1.372 . S
C1307 C1306 1.372 . S
C1307 C1308 1.400 . S
C1307 C1312 1.490 . S
C1308 H1298 0.930 . S
C1308 C1307 1.400 . S
C1308 C1311 1.386 . S
H1309 C1325 0.930 . S
H1310 C1326 0.931 . S
C1311 H1299 0.929 . S
C1311 C1305 1.390 . S
C1311 C1308 1.386 . S
C1312 C1307 1.490 . S
C1312 C1314 1.395 . S
C1312 C1315 1.403 . S
H1313 C1319 0.930 . S
C1314 H1300 0.930 . S
C1314 C1312 1.395 . S
C1314 C1317 1.403 . S
C1315 C1312 1.403 . S
C1315 C1316 1.524 . S
C1315 C1319 1.400 . S
C1316 H1301 0.960 . S
C1316 H1302 0.960 . S
C1316 H1303 0.960 . S
C1316 C1315 1.524 . S
C1317 C1314 1.403 . S
C1317 C1318 1.392 . S
C1317 C1321 1.495 . S
C1318 C1317 1.392 . S
C1318 C1319 1.385 . S
C1318 C1320 1.478 . S
C1319 H1313 0.930 . S
C1319 C1315 1.400 . S
C1319 C1318 1.385 . S
C1320 C1318 1.478 . S
C1320 C1322 1.381 . S
C1320 C1326 1.383 . S
C1321 C1317 1.495 . S
C1321 H1327 0.959 . S
C1321 H1328 0.961 . S
C1321 H1329 0.960 . S
C1322 C1320 1.381 . S
C1322 C1323 1.394 . S
C1322 H1330 0.930 . S
C1323 C1322 1.394 . S
C1323 C1324 1.383 . S
C1323 H1331 0.872 1_554 S
C1324 C1323 1.383 . S
C1324 C1325 1.377 . S
C1325 H1309 0.930 . S
C1325 C1324 1.377 . S
C1325 C1326 1.379 . S
C1326 H1310 0.931 . S
C1326 C1320 1.383 . S
C1326 C1325 1.379 . S
H1327 C1321 0.959 . S
H1328 C1321 0.961 . S
H1329 C1321 0.960 . S
H1330 C1322 0.930 . S
H1331 C1323 0.872 1_556 S
H1332 C1340 0.929 . S
H1333 C1342 0.930 . S
H1334 C1344 0.930 . S
H1335 C1347 0.929 . S
H1336 C1350 0.930 . S
H1337 C1352 0.960 . S
H1338 C1352 0.960 . S
H1339 C1352 0.960 . S
C1340 H1332 0.929 . S
C1340 C1341 1.377 . S
C1340 C1342 1.384 . S
C1341 C1340 1.377 . S
C1341 C1347 1.390 . S
C1342 H1333 0.930 . S
C1342 C1340 1.384 . S
C1342 C1343 1.372 . S
C1343 C1342 1.372 . S
C1343 C1344 1.400 . S
C1343 C1348 1.490 . S
C1344 H1334 0.930 . S
C1344 C1343 1.400 . S
C1344 C1347 1.386 . S
H1345 C1361 0.930 . S
H1346 C1362 0.931 . S
C1347 H1335 0.929 . S
C1347 C1341 1.390 . S
C1347 C1344 1.386 . S
C1348 C1343 1.490 . S
C1348 C1350 1.395 . S
C1348 C1351 1.403 . S
H1349 C1355 0.930 . S
C1350 H1336 0.930 . S
C1350 C1348 1.395 . S
C1350 C1353 1.403 . S
C1351 C1348 1.403 . S
C1351 C1352 1.524 . S
C1351 C1355 1.400 . S
C1352 H1337 0.960 . S
C1352 H1338 0.960 . S
C1352 H1339 0.960 . S
C1352 C1351 1.524 . S
C1353 C1350 1.403 . S
C1353 C1354 1.392 . S
C1353 C1357 1.495 . S
C1354 C1353 1.392 . S
C1354 C1355 1.385 . S
C1354 C1356 1.478 . S
C1355 H1349 0.930 . S
C1355 C1351 1.400 . S
C1355 C1354 1.385 . S
C1356 C1354 1.478 . S
C1356 C1358 1.381 . S
C1356 C1362 1.383 . S
C1357 C1353 1.495 . S
C1357 H1363 0.959 . S
C1357 H1364 0.961 . S
C1357 H1365 0.960 . S
C1358 C1356 1.381 . S
C1358 C1359 1.394 . S
C1358 H1366 0.930 . S
C1359 C1358 1.394 . S
C1359 C1360 1.376 1_554 S
C1359 H1367 0.929 . S
C1360 C1359 1.376 1_556 S
C1360 C1361 1.378 . S
C1361 H1345 0.930 . S
C1361 C1360 1.378 . S
C1361 C1362 1.379 1_556 S
C1362 H1346 0.931 . S
C1362 C1356 1.383 . S
C1362 C1361 1.379 1_554 S
H1363 C1357 0.959 . S
H1364 C1357 0.961 . S
H1365 C1357 0.960 . S
H1366 C1358 0.930 . S
H1367 C1359 0.929 . S
H1368 C1376 0.929 . S
H1369 C1378 0.930 . S
H1370 C1380 0.930 . S
H1371 C1383 0.929 . S
H1372 C1386 0.930 . S
H1373 C1388 0.960 . S
H1374 C1388 0.960 . S
H1375 C1388 0.960 . S
C1376 H1368 0.929 . S
C1376 C1377 1.377 . S
C1376 C1378 1.384 . S
C1377 C1376 1.377 . S
C1377 C1383 1.390 . S
C1378 H1369 0.930 . S
C1378 C1376 1.384 . S
C1378 C1379 1.372 . S
C1379 C1378 1.372 . S
C1379 C1380 1.400 . S
C1379 C1384 1.490 . S
C1380 H1370 0.930 . S
C1380 C1379 1.400 . S
C1380 C1383 1.386 . S
H1381 C1397 0.930 . S
H1382 C1398 0.931 . S
C1383 H1371 0.929 . S
C1383 C1377 1.390 . S
C1383 C1380 1.386 . S
C1384 C1379 1.490 . S
C1384 C1386 1.395 . S
C1384 C1387 1.403 . S
H1385 C1391 0.930 . S
C1386 H1372 0.930 . S
C1386 C1384 1.395 . S
C1386 C1389 1.403 . S
C1387 C1384 1.403 . S
C1387 C1388 1.524 . S
C1387 C1391 1.400 . S
C1388 H1373 0.960 . S
C1388 H1374 0.960 . S
C1388 H1375 0.960 . S
C1388 C1387 1.524 . S
C1389 C1386 1.403 . S
C1389 C1390 1.392 . S
C1389 C1393 1.495 . S
C1390 C1389 1.392 . S
C1390 C1391 1.385 . S
C1390 C1392 1.478 . S
C1391 H1385 0.930 . S
C1391 C1387 1.400 . S
C1391 C1390 1.385 . S
C1392 C1390 1.478 . S
C1392 C1394 1.381 . S
C1392 C1398 1.383 . S
C1393 C1389 1.495 . S
C1393 H1399 0.959 . S
C1393 H1400 0.961 . S
C1393 H1401 0.960 . S
C1394 C1392 1.381 . S
C1394 C1395 1.394 . S
C1394 H1402 0.930 . S
C1395 C1394 1.394 . S
C1395 C1396 1.383 . S
C1395 H1403 0.929 . S
C1396 C1395 1.383 . S
C1396 C1397 1.377 . S
C1397 H1381 0.930 . S
C1397 C1396 1.377 . S
C1397 C1398 1.379 . S
C1398 H1382 0.931 . S
C1398 C1392 1.383 . S
C1398 C1397 1.379 . S
H1399 C1393 0.959 . S
H1400 C1393 0.961 . S
H1401 C1393 0.960 . S
H1402 C1394 0.930 . S
H1403 C1395 0.929 . S
H1404 C1412 0.929 . S
H1405 C1414 0.930 . S
H1406 C1416 0.930 . S
H1407 C1419 0.929 . S
H1408 C1422 0.930 . S
H1409 C1424 0.960 . S
H1410 C1424 0.960 . S
H1411 C1424 0.960 . S
C1412 H1404 0.929 . S
C1412 C1413 1.377 . S
C1412 C1414 1.384 . S
C1413 C1412 1.377 . S
C1413 C1419 1.390 . S
C1414 H1405 0.930 . S
C1414 C1412 1.384 . S
C1414 C1415 1.372 . S
C1415 C1414 1.372 . S
C1415 C1416 1.400 . S
C1415 C1420 1.490 . S
C1416 H1406 0.930 . S
C1416 C1415 1.400 . S
C1416 C1419 1.386 . S
H1417 C1433 0.930 . S
H1418 C1434 0.931 . S
C1419 H1407 0.929 . S
C1419 C1413 1.390 . S
C1419 C1416 1.386 . S
C1420 C1415 1.490 . S
C1420 C1422 1.395 . S
C1420 C1423 1.403 . S
H1421 C1427 0.930 . S
C1422 H1408 0.930 . S
C1422 C1420 1.395 . S
C1422 C1425 1.403 . S
C1423 C1420 1.403 . S
C1423 C1424 1.524 . S
C1423 C1427 1.400 . S
C1424 H1409 0.960 . S
C1424 H1410 0.960 . S
C1424 H1411 0.960 . S
C1424 C1423 1.524 . S
C1425 C1422 1.403 . S
C1425 C1426 1.392 . S
C1425 C1429 1.495 . S
C1426 C1425 1.392 . S
C1426 C1427 1.385 . S
C1426 C1428 1.478 . S
C1427 H1421 0.930 . S
C1427 C1423 1.400 . S
C1427 C1426 1.385 . S
C1428 C1426 1.478 . S
C1428 C1430 1.381 . S
C1428 C1434 1.383 . S
C1429 C1425 1.495 . S
C1429 H1435 0.959 . S
C1429 H1436 0.961 . S
C1429 H1437 0.960 . S
C1430 C1428 1.381 . S
C1430 C1431 1.394 . S
C1430 H1438 0.930 . S
C1431 C1430 1.394 . S
C1431 C1432 1.383 . S
C1431 H1439 0.929 . S
C1432 C1431 1.383 . S
C1432 C1433 1.377 . S
C1433 H1417 0.930 . S
C1433 C1432 1.377 . S
C1433 C1434 1.379 . S
C1434 H1418 0.931 . S
C1434 C1428 1.383 . S
C1434 C1433 1.379 . S
H1435 C1429 0.959 . S
H1436 C1429 0.961 . S
H1437 C1429 0.960 . S
H1438 C1430 0.930 . S
H1439 C1431 0.929 . S
H1440 C1448 0.929 . S
H1441 C1450 0.930 . S
H1442 C1452 0.930 . S
H1443 C1455 0.929 . S
H1444 C1458 0.930 . S
H1445 C1460 0.960 . S
H1446 C1460 0.960 . S
H1447 C1460 0.960 . S
C1448 H1440 0.929 . S
C1448 C1449 1.377 . S
C1448 C1450 1.384 . S
C1449 C1448 1.377 . S
C1449 C1455 1.390 . S
C1450 H1441 0.930 . S
C1450 C1448 1.384 . S
C1450 C1451 1.372 . S
C1451 C1450 1.372 . S
C1451 C1452 1.400 . S
C1451 C1456 1.490 . S
C1452 H1442 0.930 . S
C1452 C1451 1.400 . S
C1452 C1455 1.386 . S
H1453 C1469 0.930 . S
H1454 C1470 0.931 . S
C1455 H1443 0.929 . S
C1455 C1449 1.390 . S
C1455 C1452 1.386 . S
C1456 C1451 1.490 . S
C1456 C1458 1.395 . S
C1456 C1459 1.403 . S
H1457 C1463 0.930 . S
C1458 H1444 0.930 . S
C1458 C1456 1.395 . S
C1458 C1461 1.403 . S
C1459 C1456 1.403 . S
C1459 C1460 1.524 . S
C1459 C1463 1.400 . S
C1460 H1445 0.960 . S
C1460 H1446 0.960 . S
C1460 H1447 0.960 . S
C1460 C1459 1.524 . S
C1461 C1458 1.403 . S
C1461 C1462 1.392 . S
C1461 C1465 1.495 . S
C1462 C1461 1.392 . S
C1462 C1463 1.385 . S
C1462 C1464 1.478 . S
C1463 H1457 0.930 . S
C1463 C1459 1.400 . S
C1463 C1462 1.385 . S
C1464 C1462 1.478 . S
C1464 C1466 1.381 . S
C1464 C1470 1.383 . S
C1465 C1461 1.495 . S
C1465 H1471 0.959 . S
C1465 H1472 0.961 . S
C1465 H1473 0.960 . S
C1466 C1464 1.381 . S
C1466 C1467 1.394 . S
C1466 H1474 0.930 . S
C1467 C1466 1.394 . S
C1467 C1468 1.383 . S
C1467 H1475 0.929 . S
C1468 C1467 1.383 . S
C1468 C1469 1.377 . S
C1469 H1453 0.930 . S
C1469 C1468 1.377 . S
C1469 C1470 1.379 . S
C1470 H1454 0.931 . S
C1470 C1464 1.383 . S
C1470 C1469 1.379 . S
H1471 C1465 0.959 . S
H1472 C1465 0.961 . S
H1473 C1465 0.960 . S
H1474 C1466 0.930 . S
H1475 C1467 0.929 . S
H1476 C1484 0.929 . S
H1477 C1486 0.930 . S
H1478 C1488 0.930 . S
H1479 C1491 0.929 . S
H1480 C1494 0.930 . S
H1481 C1496 0.960 . S
H1482 C1496 0.960 . S
H1483 C1496 0.960 . S
C1484 H1476 0.929 . S
C1484 C1485 1.377 . S
C1484 C1486 1.384 . S
C1485 C1484 1.377 . S
C1485 C1491 1.390 . S
C1486 H1477 0.930 . S
C1486 C1484 1.384 . S
C1486 C1487 1.372 . S
C1487 C1486 1.372 . S
C1487 C1488 1.400 . S
C1487 C1492 1.490 . S
C1488 H1478 0.930 . S
C1488 C1487 1.400 . S
C1488 C1491 1.386 . S
H1489 C1505 0.930 . S
H1490 C1506 0.931 . S
C1491 H1479 0.929 . S
C1491 C1485 1.390 . S
C1491 C1488 1.386 . S
C1492 C1487 1.490 . S
C1492 C1494 1.395 . S
C1492 C1495 1.403 . S
H1493 C1499 0.930 . S
C1494 H1480 0.930 . S
C1494 C1492 1.395 . S
C1494 C1497 1.403 . S
C1495 C1492 1.403 . S
C1495 C1496 1.524 . S
C1495 C1499 1.400 . S
C1496 H1481 0.960 . S
C1496 H1482 0.960 . S
C1496 H1483 0.960 . S
C1496 C1495 1.524 . S
C1497 C1494 1.403 . S
C1497 C1498 1.392 . S
C1497 C1501 1.495 . S
C1498 C1497 1.392 . S
C1498 C1499 1.385 . S
C1498 C1500 1.478 . S
C1499 H1493 0.930 . S
C1499 C1495 1.400 . S
C1499 C1498 1.385 . S
C1500 C1498 1.478 . S
C1500 C1502 1.381 . S
C1500 C1506 1.383 . S
C1501 C1497 1.495 . S
C1501 H1507 0.959 . S
C1501 H1508 0.961 . S
C1501 H1509 0.960 . S
C1502 C1500 1.381 . S
C1502 C1503 1.348 1_556 S
C1502 H1510 0.930 . S
C1503 C1502 1.348 1_554 S
C1503 C1504 1.375 1_554 S
C1503 H1511 0.985 . S
C1504 C1503 1.375 1_556 S
C1504 C1505 1.427 . S
C1505 H1489 0.930 . S
C1505 C1504 1.427 . S
C1505 C1506 1.379 . S
C1506 H1490 0.931 . S
C1506 C1500 1.383 . S
C1506 C1505 1.379 . S
H1507 C1501 0.959 . S
H1508 C1501 0.961 . S
H1509 C1501 0.960 . S
H1510 C1502 0.930 . S
H1511 C1503 0.985 . S
H1512 C1520 0.929 . S
H1513 C1522 0.930 . S
H1514 C1524 0.930 . S
H1515 C1527 0.929 . S
H1516 C1530 0.930 . S
H1517 C1532 0.960 . S
H1518 C1532 0.960 . S
H1519 C1532 0.960 . S
C1520 H1512 0.929 . S
C1520 C1521 1.377 . S
C1520 C1522 1.384 . S
C1521 C1520 1.377 . S
C1521 C1527 1.390 . S
C1522 H1513 0.930 . S
C1522 C1520 1.384 . S
C1522 C1523 1.372 . S
C1523 C1522 1.372 . S
C1523 C1524 1.400 . S
C1523 C1528 1.490 . S
C1524 H1514 0.930 . S
C1524 C1523 1.400 . S
C1524 C1527 1.386 . S
H1525 C1541 0.930 1_554 S
H1526 C1542 0.931 . S
C1527 H1515 0.929 . S
C1527 C1521 1.390 . S
C1527 C1524 1.386 . S
C1528 C1523 1.490 . S
C1528 C1530 1.395 . S
C1528 C1531 1.403 . S
H1529 C1535 0.930 . S
C1530 H1516 0.930 . S
C1530 C1528 1.395 . S
C1530 C1533 1.403 . S
C1531 C1528 1.403 . S
C1531 C1532 1.524 . S
C1531 C1535 1.400 . S
C1532 H1517 0.960 . S
C1532 H1518 0.960 . S
C1532 H1519 0.960 . S
C1532 C1531 1.524 . S
C1533 C1530 1.403 . S
C1533 C1534 1.392 . S
C1533 C1537 1.495 . S
C1534 C1533 1.392 . S
C1534 C1535 1.385 . S
C1534 C1536 1.478 . S
C1535 H1529 0.930 . S
C1535 C1531 1.400 . S
C1535 C1534 1.385 . S
C1536 C1534 1.478 . S
C1536 C1538 1.381 . S
C1536 C1542 1.383 . S
C1537 C1533 1.495 . S
C1537 H1543 0.959 . S
C1537 H1544 0.961 . S
C1537 H1545 0.960 . S
C1538 C1536 1.381 . S
C1538 C1539 1.394 . S
C1538 H1546 0.930 . S
C1539 C1538 1.394 . S
C1539 C1540 1.403 . S
C1539 H1547 0.929 . S
C1540 C1539 1.403 . S
C1540 C1541 1.383 . S
C1541 H1525 0.930 1_556 S
C1541 C1540 1.383 . S
C1541 C1542 1.379 . S
C1542 H1526 0.931 . S
C1542 C1536 1.383 . S
C1542 C1541 1.379 . S
H1543 C1537 0.959 . S
H1544 C1537 0.961 . S
H1545 C1537 0.960 . S
H1546 C1538 0.930 . S
H1547 C1539 0.929 . S
H1548 C1556 0.929 . S
H1549 C1558 0.930 . S
H1550 C1560 0.930 . S
H1551 C1563 0.929 . S
H1552 C1566 0.930 . S
H1553 C1568 0.960 . S
H1554 C1568 0.960 . S
H1555 C1568 0.960 . S
C1556 H1548 0.929 . S
C1556 C1557 1.377 . S
C1556 C1558 1.384 . S
C1557 C1556 1.377 . S
C1557 C1563 1.390 . S
C1558 H1549 0.930 . S
C1558 C1556 1.384 . S
C1558 C1559 1.372 . S
C1559 C1558 1.372 . S
C1559 C1560 1.400 . S
C1559 C1564 1.490 . S
C1560 H1550 0.930 . S
C1560 C1559 1.400 . S
C1560 C1563 1.386 . S
H1561 C1577 0.930 . S
H1562 C1578 0.931 . S
C1563 H1551 0.929 . S
C1563 C1557 1.390 . S
C1563 C1560 1.386 . S
C1564 C1559 1.490 . S
C1564 C1566 1.395 . S
C1564 C1567 1.403 . S
H1565 C1571 0.930 . S
C1566 H1552 0.930 . S
C1566 C1564 1.395 . S
C1566 C1569 1.403 . S
C1567 C1564 1.403 . S
C1567 C1568 1.524 . S
C1567 C1571 1.400 . S
C1568 H1553 0.960 . S
C1568 H1554 0.960 . S
C1568 H1555 0.960 . S
C1568 C1567 1.524 . S
C1569 C1566 1.403 . S
C1569 C1570 1.392 . S
C1569 C1573 1.495 . S
C1570 C1569 1.392 . S
C1570 C1571 1.385 . S
C1570 C1572 1.478 . S
C1571 H1565 0.930 . S
C1571 C1567 1.400 . S
C1571 C1570 1.385 . S
C1572 C1570 1.478 . S
C1572 C1574 1.381 . S
C1572 C1578 1.383 . S
C1573 C1569 1.495 . S
C1573 H1579 0.959 . S
C1573 H1580 0.961 . S
C1573 H1581 0.960 . S
C1574 C1572 1.381 . S
C1574 C1575 1.437 . S
C1574 H1582 0.930 . S
C1575 C1574 1.437 . S
C1575 C1576 1.377 1_556 S
C1575 H1583 0.896 1_556 S
C1576 C1575 1.377 1_554 S
C1576 C1577 1.349 1_554 S
C1577 H1561 0.930 . S
C1577 C1576 1.349 1_556 S
C1577 C1578 1.379 . S
C1578 H1562 0.931 . S
C1578 C1572 1.383 . S
C1578 C1577 1.379 . S
H1579 C1573 0.959 . S
H1580 C1573 0.961 . S
H1581 C1573 0.960 . S
H1582 C1574 0.930 . S
H1583 C1575 0.896 1_554 S
H1584 C1592 0.929 . S
H1585 C1594 0.930 . S
H1586 C1596 0.930 . S
H1587 C1599 0.929 . S
H1588 C1602 0.930 . S
H1589 C1604 0.960 . S
H1590 C1604 0.960 . S
H1591 C1604 0.960 . S
C1592 H1584 0.929 . S
C1592 C1593 1.377 . S
C1592 C1594 1.384 . S
C1593 C1592 1.377 . S
C1593 C1599 1.390 . S
C1594 H1585 0.930 . S
C1594 C1592 1.384 . S
C1594 C1595 1.372 . S
C1595 C1594 1.372 . S
C1595 C1596 1.400 . S
C1595 C1600 1.490 . S
C1596 H1586 0.930 . S
C1596 C1595 1.400 . S
C1596 C1599 1.386 . S
H1597 C1613 0.930 . S
H1598 C1614 0.931 . S
C1599 H1587 0.929 . S
C1599 C1593 1.390 . S
C1599 C1596 1.386 . S
C1600 C1595 1.490 . S
C1600 C1602 1.395 . S
C1600 C1603 1.403 . S
H1601 C1607 0.930 . S
C1602 H1588 0.930 . S
C1602 C1600 1.395 . S
C1602 C1605 1.403 . S
C1603 C1600 1.403 . S
C1603 C1604 1.524 . S
C1603 C1607 1.400 . S
C1604 H1589 0.960 . S
C1604 H1590 0.960 . S
C1604 H1591 0.960 . S
C1604 C1603 1.524 . S
C1605 C1602 1.403 . S
C1605 C1606 1.392 . S
C1605 C1609 1.495 . S
C1606 C1605 1.392 . S
C1606 C1607 1.385 . S
C1606 C1608 1.478 . S
C1607 H1601 0.930 . S
C1607 C1603 1.400 . S
C1607 C1606 1.385 . S
C1608 C1606 1.478 . S
C1608 C1610 1.381 . S
C1608 C1614 1.383 . S
C1609 C1605 1.495 . S
C1609 H1615 0.959 . S
C1609 H1616 0.961 . S
C1609 H1617 0.960 . S
C1610 C1608 1.381 . S
C1610 C1611 1.394 . S
C1610 H1618 0.930 . S
C1611 C1610 1.394 . S
C1611 C1612 1.383 . S
C1611 H1619 0.929 . S
C1612 C1611 1.383 . S
C1612 C1613 1.377 . S
C1613 H1597 0.930 . S
C1613 C1612 1.377 . S
C1613 C1614 1.379 . S
C1614 H1598 0.931 . S
C1614 C1608 1.383 . S
C1614 C1613 1.379 . S
H1615 C1609 0.959 . S
H1616 C1609 0.961 . S
H1617 C1609 0.960 . S
H1618 C1610 0.930 . S
H1619 C1611 0.929 . S
H1620 C1628 0.929 . S
H1621 C1630 0.930 . S
H1622 C1632 0.930 . S
H1623 C1635 0.929 . S
H1624 C1638 0.930 . S
H1625 C1640 0.960 . S
H1626 C1640 0.960 . S
H1627 C1640 0.960 . S
C1628 H1620 0.929 . S
C1628 C1629 1.377 . S
C1628 C1630 1.384 . S
C1629 C1628 1.377 . S
C1629 C1635 1.390 . S
C1630 H1621 0.930 . S
C1630 C1628 1.384 . S
C1630 C1631 1.372 . S
C1631 C1630 1.372 . S
C1631 C1632 1.400 . S
C1631 C1636 1.490 . S
C1632 H1622 0.930 . S
C1632 C1631 1.400 . S
C1632 C1635 1.386 . S
H1633 C1649 0.930 . S
H1634 C1650 0.931 . S
C1635 H1623 0.929 . S
C1635 C1629 1.390 . S
C1635 C1632 1.386 . S
C1636 C1631 1.490 . S
C1636 C1638 1.395 . S
C1636 C1639 1.403 . S
H1637 C1643 0.930 . S
C1638 H1624 0.930 . S
C1638 C1636 1.395 . S
C1638 C1641 1.403 . S
C1639 C1636 1.403 . S
C1639 C1640 1.524 . S
C1639 C1643 1.400 . S
C1640 H1625 0.960 . S
C1640 H1626 0.960 . S
C1640 H1627 0.960 . S
C1640 C1639 1.524 . S
C1641 C1638 1.403 . S
C1641 C1642 1.392 . S
C1641 C1645 1.495 . S
C1642 C1641 1.392 . S
C1642 C1643 1.385 . S
C1642 C1644 1.478 . S
C1643 H1637 0.930 . S
C1643 C1639 1.400 . S
C1643 C1642 1.385 . S
C1644 C1642 1.478 . S
C1644 C1646 1.381 . S
C1644 C1650 1.383 . S
C1645 C1641 1.495 . S
C1645 H1651 0.959 . S
C1645 H1652 0.961 . S
C1645 H1653 0.960 . S
C1646 C1644 1.381 . S
C1646 C1647 1.394 . S
C1646 H1654 0.930 . S
C1647 C1646 1.394 . S
C1647 C1648 1.383 . S
C1647 H1655 0.929 . S
C1648 C1647 1.383 . S
C1648 C1649 1.377 . S
C1649 H1633 0.930 . S
C1649 C1648 1.377 . S
C1649 C1650 1.379 . S
C1650 H1634 0.931 . S
C1650 C1644 1.383 . S
C1650 C1649 1.379 . S
H1651 C1645 0.959 . S
H1652 C1645 0.961 . S
H1653 C1645 0.960 . S
H1654 C1646 0.930 . S
H1655 C1647 0.929 . S
H1656 C1664 0.929 . S
H1657 C1666 0.930 . S
H1658 C1668 0.930 . S
H1659 C1671 0.929 . S
H1660 C1674 0.930 . S
H1661 C1676 0.960 . S
H1662 C1676 0.960 . S
H1663 C1676 0.960 . S
C1664 H1656 0.929 . S
C1664 C1665 1.377 . S
C1664 C1666 1.384 . S
C1665 C1664 1.377 . S
C1665 C1671 1.390 . S
C1666 H1657 0.930 . S
C1666 C1664 1.384 . S
C1666 C1667 1.372 . S
C1667 C1666 1.372 . S
C1667 C1668 1.400 . S
C1667 C1672 1.490 . S
C1668 H1658 0.930 . S
C1668 C1667 1.400 . S
C1668 C1671 1.386 . S
H1669 C1685 0.930 . S
H1670 C1686 0.931 . S
C1671 H1659 0.929 . S
C1671 C1665 1.390 . S
C1671 C1668 1.386 . S
C1672 C1667 1.490 . S
C1672 C1674 1.395 . S
C1672 C1675 1.403 . S
H1673 C1679 0.930 . S
C1674 H1660 0.930 . S
C1674 C1672 1.395 . S
C1674 C1677 1.403 . S
C1675 C1672 1.403 . S
C1675 C1676 1.524 . S
C1675 C1679 1.400 . S
C1676 H1661 0.960 . S
C1676 H1662 0.960 . S
C1676 H1663 0.960 . S
C1676 C1675 1.524 . S
C1677 C1674 1.403 . S
C1677 C1678 1.392 . S
C1677 C1681 1.495 . S
C1678 C1677 1.392 . S
C1678 C1679 1.385 . S
C1678 C1680 1.478 . S
C1679 H1673 0.930 . S
C1679 C1675 1.400 . S
C1679 C1678 1.385 . S
C1680 C1678 1.478 . S
C1680 C1682 1.381 . S
C1680 C1686 1.383 . S
C1681 C1677 1.495 . S
C1681 H1687 0.959 . S
C1681 H1688 0.961 . S
C1681 H1689 0.960 . S
C1682 C1680 1.381 . S
C1682 C1683 1.394 . S
C1682 H1690 0.930 . S
C1683 C1682 1.394 . S
C1683 C1684 1.383 . S
C1683 H1691 0.929 . S
C1684 C1683 1.383 . S
C1684 C1685 1.377 . S
C1685 H1669 0.930 . S
C1685 C1684 1.377 . S
C1685 C1686 1.379 . S
C1686 H1670 0.931 . S
C1686 C1680 1.383 . S
C1686 C1685 1.379 . S
H1687 C1681 0.959 . S
H1688 C1681 0.961 . S
H1689 C1681 0.960 . S
H1690 C1682 0.930 . S
H1691 C1683 0.929 . S
H1692 C1700 0.929 . S
H1693 C1702 0.930 . S
H1694 C1704 0.930 . S
H1695 C1707 0.929 . S
H1696 C1710 0.930 . S
H1697 C1712 0.960 . S
H1698 C1712 0.960 . S
H1699 C1712 0.960 . S
C1700 H1692 0.929 . S
C1700 C1701 1.377 . S
C1700 C1702 1.384 . S
C1701 C1700 1.377 . S
C1701 C1707 1.390 . S
C1702 H1693 0.930 . S
C1702 C1700 1.384 . S
C1702 C1703 1.372 . S
C1703 C1702 1.372 . S
C1703 C1704 1.400 . S
C1703 C1708 1.490 . S
C1704 H1694 0.930 . S
C1704 C1703 1.400 . S
C1704 C1707 1.386 . S
H1705 C1721 0.930 . S
H1706 C1722 0.931 . S
C1707 H1695 0.929 . S
C1707 C1701 1.390 . S
C1707 C1704 1.386 . S
C1708 C1703 1.490 . S
C1708 C1710 1.395 . S
C1708 C1711 1.403 . S
H1709 C1715 0.930 . S
C1710 H1696 0.930 . S
C1710 C1708 1.395 . S
C1710 C1713 1.403 . S
C1711 C1708 1.403 . S
C1711 C1712 1.524 . S
C1711 C1715 1.400 . S
C1712 H1697 0.960 . S
C1712 H1698 0.960 . S
C1712 H1699 0.960 . S
C1712 C1711 1.524 . S
C1713 C1710 1.403 . S
C1713 C1714 1.392 . S
C1713 C1717 1.495 . S
C1714 C1713 1.392 . S
C1714 C1715 1.385 . S
C1714 C1716 1.478 . S
C1715 H1709 0.930 . S
C1715 C1711 1.400 . S
C1715 C1714 1.385 . S
C1716 C1714 1.478 . S
C1716 C1718 1.381 . S
C1716 C1722 1.383 . S
C1717 C1713 1.495 . S
C1717 H1723 0.959 . S
C1717 H1724 0.961 . S
C1717 H1725 0.960 . S
C1718 C1716 1.381 . S
C1718 C1719 1.394 . S
C1718 H1726 0.930 . S
C1719 C1718 1.394 . S
C1719 C1720 1.383 . S
C1719 H1727 0.929 . S
C1720 C1719 1.383 . S
C1720 C1721 1.377 . S
C1721 H1705 0.930 . S
C1721 C1720 1.377 . S
C1721 C1722 1.379 . S
C1722 H1706 0.931 . S
C1722 C1716 1.383 . S
C1722 C1721 1.379 . S
H1723 C1717 0.959 . S
H1724 C1717 0.961 . S
H1725 C1717 0.960 . S
H1726 C1718 0.930 . S
H1727 C1719 0.929 . S
H1728 C1736 0.929 . S
H1729 C1738 0.930 . S
H1730 C1740 0.930 . S
H1731 C1743 0.929 . S
H1732 C1746 0.930 . S
H1733 C1748 0.960 . S
H1734 C1748 0.960 . S
H1735 C1748 0.960 . S
C1736 H1728 0.929 . S
C1736 C1737 1.377 . S
C1736 C1738 1.384 . S
C1737 C1736 1.377 . S
C1737 C1743 1.390 . S
C1738 H1729 0.930 . S
C1738 C1736 1.384 . S
C1738 C1739 1.372 . S
C1739 C1738 1.372 . S
C1739 C1740 1.400 . S
C1739 C1744 1.490 . S
C1740 H1730 0.930 . S
C1740 C1739 1.400 . S
C1740 C1743 1.386 . S
H1741 C1757 0.930 . S
H1742 C1758 0.931 . S
C1743 H1731 0.929 . S
C1743 C1737 1.390 . S
C1743 C1740 1.386 . S
C1744 C1739 1.490 . S
C1744 C1746 1.395 . S
C1744 C1747 1.403 . S
H1745 C1751 0.930 . S
C1746 H1732 0.930 . S
C1746 C1744 1.395 . S
C1746 C1749 1.403 . S
C1747 C1744 1.403 . S
C1747 C1748 1.524 . S
C1747 C1751 1.400 . S
C1748 H1733 0.960 . S
C1748 H1734 0.960 . S
C1748 H1735 0.960 . S
C1748 C1747 1.524 . S
C1749 C1746 1.403 . S
C1749 C1750 1.392 . S
C1749 C1753 1.495 . S
C1750 C1749 1.392 . S
C1750 C1751 1.385 . S
C1750 C1752 1.478 . S
C1751 H1745 0.930 . S
C1751 C1747 1.400 . S
C1751 C1750 1.385 . S
C1752 C1750 1.478 . S
C1752 C1754 1.381 . S
C1752 C1758 1.383 . S
C1753 C1749 1.495 . S
C1753 H1759 0.959 . S
C1753 H1760 0.961 . S
C1753 H1761 0.960 . S
C1754 C1752 1.381 . S
C1754 C1755 1.394 . S
C1754 H1762 0.930 . S
C1755 C1754 1.394 . S
C1755 C1756 1.383 . S
C1755 H1763 0.929 . S
C1756 C1755 1.383 . S
C1756 C1757 1.377 . S
C1757 H1741 0.930 . S
C1757 C1756 1.377 . S
C1757 C1758 1.379 . S
C1758 H1742 0.931 . S
C1758 C1752 1.383 . S
C1758 C1757 1.379 . S
H1759 C1753 0.959 . S
H1760 C1753 0.961 . S
H1761 C1753 0.960 . S
H1762 C1754 0.930 . S
H1763 C1755 0.929 . S
H1764 C1772 0.929 . S
H1765 C1774 0.930 . S
H1766 C1776 0.930 . S
H1767 C1779 0.929 . S
H1768 C1782 0.930 . S
H1769 C1784 0.960 . S
H1770 C1784 0.960 . S
H1771 C1784 0.960 . S
C1772 H1764 0.929 . S
C1772 C1773 1.377 . S
C1772 C1774 1.384 . S
C1773 C1772 1.377 . S
C1773 C1779 1.390 . S
C1774 H1765 0.930 . S
C1774 C1772 1.384 . S
C1774 C1775 1.372 . S
C1775 C1774 1.372 . S
C1775 C1776 1.400 . S
C1775 C1780 1.490 . S
C1776 H1766 0.930 . S
C1776 C1775 1.400 . S
C1776 C1779 1.386 . S
H1777 C1793 0.930 . S
H1778 C1794 0.931 . S
C1779 H1767 0.929 . S
C1779 C1773 1.390 . S
C1779 C1776 1.386 . S
C1780 C1775 1.490 . S
C1780 C1782 1.395 . S
C1780 C1783 1.403 . S
H1781 C1787 0.930 . S
C1782 H1768 0.930 . S
C1782 C1780 1.395 . S
C1782 C1785 1.403 . S
C1783 C1780 1.403 . S
C1783 C1784 1.524 . S
C1783 C1787 1.400 . S
C1784 H1769 0.960 . S
C1784 H1770 0.960 . S
C1784 H1771 0.960 . S
C1784 C1783 1.524 . S
C1785 C1782 1.403 . S
C1785 C1786 1.392 . S
C1785 C1789 1.495 . S
C1786 C1785 1.392 . S
C1786 C1787 1.385 . S
C1786 C1788 1.478 . S
C1787 H1781 0.930 . S
C1787 C1783 1.400 . S
C1787 C1786 1.385 . S
C1788 C1786 1.478 . S
C1788 C1790 1.381 . S
C1788 C1794 1.383 . S
C1789 C1785 1.495 . S
C1789 H1795 0.959 . S
C1789 H1796 0.961 . S
C1789 H1797 0.960 . S
C1790 C1788 1.381 . S
C1790 C1791 1.394 . S
C1790 H1798 0.930 . S
C1791 C1790 1.394 . S
C1791 C1792 1.383 . S
C1791 H1799 0.929 . S
C1792 C1791 1.383 . S
C1792 C1793 1.377 . S
C1793 H1777 0.930 . S
C1793 C1792 1.377 . S
C1793 C1794 1.379 . S
C1794 H1778 0.931 . S
C1794 C1788 1.383 . S
C1794 C1793 1.379 . S
H1795 C1789 0.959 . S
H1796 C1789 0.961 . S
H1797 C1789 0.960 . S
H1798 C1790 0.930 . S
H1799 C1791 0.929 . S
H1800 C1808 0.929 . S
H1801 C1810 0.930 . S
H1802 C1812 0.930 . S
H1803 C1815 0.929 . S
H1804 C1818 0.930 . S
H1805 C1820 0.960 . S
H1806 C1820 0.960 . S
H1807 C1820 0.960 . S
C1808 H1800 0.929 . S
C1808 C1809 1.377 . S
C1808 C1810 1.384 . S
C1809 C1808 1.377 . S
C1809 C1815 1.390 . S
C1810 H1801 0.930 . S
C1810 C1808 1.384 . S
C1810 C1811 1.372 . S
C1811 C1810 1.372 . S
C1811 C1812 1.400 . S
C1811 C1816 1.490 . S
C1812 H1802 0.930 . S
C1812 C1811 1.400 . S
C1812 C1815 1.386 . S
H1813 C1829 0.930 . S
H1814 C1830 0.931 . S
C1815 H1803 0.929 . S
C1815 C1809 1.390 . S
C1815 C1812 1.386 . S
C1816 C1811 1.490 . S
C1816 C1818 1.395 . S
C1816 C1819 1.403 . S
H1817 C1823 0.930 . S
C1818 H1804 0.930 . S
C1818 C1816 1.395 . S
C1818 C1821 1.403 . S
C1819 C1816 1.403 . S
C1819 C1820 1.524 1_545 S
C1819 C1823 1.400 . S
C1820 H1805 0.960 . S
C1820 H1806 0.960 . S
C1820 H1807 0.960 . S
C1820 C1819 1.524 1_565 S
C1821 C1818 1.403 . S
C1821 C1822 1.392 . S
C1821 C1825 1.495 . S
C1822 C1821 1.392 . S
C1822 C1823 1.385 . S
C1822 C1824 1.478 . S
C1823 H1817 0.930 . S
C1823 C1819 1.400 . S
C1823 C1822 1.385 . S
C1824 C1822 1.478 . S
C1824 C1826 1.381 . S
C1824 C1830 1.383 . S
C1825 C1821 1.495 . S
C1825 H1831 0.959 . S
C1825 H1832 0.961 . S
C1825 H1833 0.960 . S
C1826 C1824 1.381 . S
C1826 C1827 1.394 . S
C1826 H1834 0.930 . S
C1827 C1826 1.394 . S
C1827 C1828 1.383 . S
C1827 H1835 0.929 . S
C1828 C1827 1.383 . S
C1828 C1829 1.377 . S
C1829 H1813 0.930 . S
C1829 C1828 1.377 . S
C1829 C1830 1.379 . S
C1830 H1814 0.931 . S
C1830 C1824 1.383 . S
C1830 C1829 1.379 . S
H1831 C1825 0.959 . S
H1832 C1825 0.961 . S
H1833 C1825 0.960 . S
H1834 C1826 0.930 . S
H1835 C1827 0.929 . S
H1836 C1844 0.929 . S
H1837 C1846 0.930 . S
H1838 C1848 0.930 . S
H1839 C1851 0.929 . S
H1840 C1854 0.930 . S
H1841 C1856 0.960 . S
H1842 C1856 0.960 . S
H1843 C1856 0.960 . S
C1844 H1836 0.929 . S
C1844 C1845 1.377 . S
C1844 C1846 1.384 . S
C1845 C1844 1.377 . S
C1845 C1851 1.390 . S
C1846 H1837 0.930 . S
C1846 C1844 1.384 . S
C1846 C1847 1.372 . S
C1847 C1846 1.372 . S
C1847 C1848 1.400 . S
C1847 C1852 1.490 . S
C1848 H1838 0.930 . S
C1848 C1847 1.400 . S
C1848 C1851 1.386 . S
H1849 C1865 0.930 . S
H1850 C1866 0.931 . S
C1851 H1839 0.929 . S
C1851 C1845 1.390 . S
C1851 C1848 1.386 . S
C1852 C1847 1.490 . S
C1852 C1854 1.395 . S
C1852 C1855 1.403 1_655 S
H1853 C1859 0.930 . S
C1854 H1840 0.930 . S
C1854 C1852 1.395 . S
C1854 C1857 1.403 . S
C1855 C1852 1.403 1_455 S
C1855 C1856 1.524 . S
C1855 C1859 1.400 . S
C1856 H1841 0.960 . S
C1856 H1842 0.960 . S
C1856 H1843 0.960 . S
C1856 C1855 1.524 . S
C1857 C1854 1.403 . S
C1857 C1858 1.392 . S
C1857 C1861 1.495 . S
C1858 C1857 1.392 . S
C1858 C1859 1.385 1_655 S
C1858 C1860 1.478 . S
C1859 H1853 0.930 . S
C1859 C1855 1.400 . S
C1859 C1858 1.385 1_455 S
C1860 C1858 1.478 . S
C1860 C1862 1.381 . S
C1860 C1866 1.383 . S
C1861 C1857 1.495 . S
C1861 H1867 0.959 . S
C1861 H1868 0.961 . S
C1861 H1869 0.960 . S
C1862 C1860 1.381 . S
C1862 C1863 1.394 . S
C1862 H1870 0.930 . S
C1863 C1862 1.394 . S
C1863 C1864 1.383 . S
C1863 H1871 0.929 . S
C1864 C1863 1.383 . S
C1864 C1865 1.377 . S
C1865 H1849 0.930 . S
C1865 C1864 1.377 . S
C1865 C1866 1.379 . S
C1866 H1850 0.931 . S
C1866 C1860 1.383 . S
C1866 C1865 1.379 . S
H1867 C1861 0.959 . S
H1868 C1861 0.961 . S
H1869 C1861 0.960 . S
H1870 C1862 0.930 . S
H1871 C1863 0.929 . S
H1872 C1880 0.929 . S
H1873 C1882 0.930 . S
H1874 C1884 0.930 . S
H1875 C1887 0.929 . S
H1876 C1890 0.930 . S
H1877 C1892 0.960 . S
H1878 C1892 0.960 . S
H1879 C1892 0.960 . S
C1880 H1872 0.929 . S
C1880 C1881 1.377 . S
C1880 C1882 1.384 . S
C1881 C1880 1.377 . S
C1881 C1887 1.390 . S
C1882 H1873 0.930 . S
C1882 C1880 1.384 . S
C1882 C1883 1.372 . S
C1883 C1882 1.372 . S
C1883 C1884 1.400 . S
C1883 C1888 1.490 . S
C1884 H1874 0.930 . S
C1884 C1883 1.400 . S
C1884 C1887 1.386 . S
H1885 C1901 0.930 . S
H1886 C1902 0.931 . S
C1887 H1875 0.929 . S
C1887 C1881 1.390 . S
C1887 C1884 1.386 . S
C1888 C1883 1.490 . S
C1888 C1890 1.395 . S
C1888 C1891 1.403 . S
H1889 C1895 0.930 . S
C1890 H1876 0.930 . S
C1890 C1888 1.395 . S
C1890 C1893 1.403 . S
C1891 C1888 1.403 . S
C1891 C1892 1.524 . S
C1891 C1895 1.400 . S
C1892 H1877 0.960 . S
C1892 H1878 0.960 . S
C1892 H1879 0.960 . S
C1892 C1891 1.524 . S
C1893 C1890 1.403 . S
C1893 C1894 1.392 . S
C1893 C1897 1.495 . S
C1894 C1893 1.392 . S
C1894 C1895 1.385 . S
C1894 C1896 1.478 . S
C1895 H1889 0.930 . S
C1895 C1891 1.400 . S
C1895 C1894 1.385 . S
C1896 C1894 1.478 . S
C1896 C1898 1.381 . S
C1896 C1902 1.383 . S
C1897 C1893 1.495 . S
C1897 H1903 0.959 . S
C1897 H1904 0.961 . S
C1897 H1905 0.960 . S
C1898 C1896 1.381 . S
C1898 C1899 1.394 . S
C1898 H1906 0.930 . S
C1899 C1898 1.394 . S
C1899 C1900 1.383 . S
C1899 H1907 0.929 . S
C1900 C1899 1.383 . S
C1900 C1901 1.377 . S
C1901 H1885 0.930 . S
C1901 C1900 1.377 . S
C1901 C1902 1.379 . S
C1902 H1886 0.931 . S
C1902 C1896 1.383 . S
C1902 C1901 1.379 . S
H1903 C1897 0.959 . S
H1904 C1897 0.961 . S
H1905 C1897 0.960 . S
H1906 C1898 0.930 . S
H1907 C1899 0.929 . S
H1908 C1916 0.929 . S
H1909 C1918 0.930 . S
H1910 C1920 0.930 . S
H1911 C1923 0.929 . S
H1912 C1926 0.930 . S
H1913 C1928 0.960 . S
H1914 C1928 0.960 . S
H1915 C1928 0.960 1_455 S
C1916 H1908 0.929 . S
C1916 C1917 1.377 . S
C1916 C1918 1.384 . S
C1917 C1916 1.377 . S
C1917 C1923 1.390 . S
C1918 H1909 0.930 . S
C1918 C1916 1.384 . S
C1918 C1919 1.372 . S
C1919 C1918 1.372 . S
C1919 C1920 1.400 . S
C1919 C1924 1.490 . S
C1920 H1910 0.930 . S
C1920 C1919 1.400 . S
C1920 C1923 1.386 . S
H1921 C1937 0.930 . S
H1922 C1938 0.931 . S
C1923 H1911 0.929 . S
C1923 C1917 1.390 . S
C1923 C1920 1.386 . S
C1924 C1919 1.490 . S
C1924 C1926 1.395 . S
C1924 C1927 1.403 . S
H1925 C1931 0.930 . S
C1926 H1912 0.930 . S
C1926 C1924 1.395 . S
C1926 C1929 1.403 . S
C1927 C1924 1.403 . S
C1927 C1928 1.524 1_455 S
C1927 C1931 1.400 . S
C1928 H1913 0.960 . S
C1928 H1914 0.960 . S
C1928 H1915 0.960 1_655 S
C1928 C1927 1.524 1_655 S
C1929 C1926 1.403 . S
C1929 C1930 1.392 . S
C1929 C1933 1.495 . S
C1930 C1929 1.392 . S
C1930 C1931 1.385 . S
C1930 C1932 1.478 . S
C1931 H1925 0.930 . S
C1931 C1927 1.400 . S
C1931 C1930 1.385 . S
C1932 C1930 1.478 . S
C1932 C1934 1.381 . S
C1932 C1938 1.383 . S
C1933 C1929 1.495 . S
C1933 H1939 0.959 . S
C1933 H1940 0.961 . S
C1933 H1941 0.960 . S
C1934 C1932 1.381 . S
C1934 C1935 1.394 . S
C1934 H1942 0.930 . S
C1935 C1934 1.394 . S
C1935 C1936 1.383 . S
C1935 H1943 0.929 . S
C1936 C1935 1.383 . S
C1936 C1937 1.377 . S
C1937 H1921 0.930 . S
C1937 C1936 1.377 . S
C1937 C1938 1.379 . S
C1938 H1922 0.931 . S
C1938 C1932 1.383 . S
C1938 C1937 1.379 . S
H1939 C1933 0.959 . S
H1940 C1933 0.961 . S
H1941 C1933 0.960 . S
H1942 C1934 0.930 . S
H1943 C1935 0.929 . S
H1944 C1952 0.929 . S
H1945 C1954 0.930 . S
H1946 C1956 0.930 . S
H1947 C1959 0.929 . S
H1948 C1962 0.930 . S
H1949 C1964 0.960 . S
H1950 C1964 0.960 . S
H1951 C1964 0.960 . S
C1952 H1944 0.929 . S
C1952 C1953 1.377 . S
C1952 C1954 1.384 . S
C1953 C1952 1.377 . S
C1953 C1959 1.390 . S
C1954 H1945 0.930 . S
C1954 C1952 1.384 . S
C1954 C1955 1.372 . S
C1955 C1954 1.372 . S
C1955 C1956 1.400 . S
C1955 C1960 1.490 . S
C1956 H1946 0.930 . S
C1956 C1955 1.400 . S
C1956 C1959 1.386 . S
H1957 C1973 0.930 . S
H1958 C1974 0.931 . S
C1959 H1947 0.929 . S
C1959 C1953 1.390 . S
C1959 C1956 1.386 . S
C1960 C1955 1.490 . S
C1960 C1962 1.395 . S
C1960 C1963 1.403 . S
H1961 C1967 0.930 . S
C1962 H1948 0.930 . S
C1962 C1960 1.395 . S
C1962 C1965 1.403 . S
C1963 C1960 1.403 . S
C1963 C1964 1.524 . S
C1963 C1967 1.400 . S
C1964 H1949 0.960 . S
C1964 H1950 0.960 . S
C1964 H1951 0.960 . S
C1964 C1963 1.524 . S
C1965 C1962 1.403 . S
C1965 C1966 1.392 . S
C1965 C1969 1.495 . S
C1966 C1965 1.392 . S
C1966 C1967 1.385 . S
C1966 C1968 1.478 . S
C1967 H1961 0.930 . S
C1967 C1963 1.400 . S
C1967 C1966 1.385 . S
C1968 C1966 1.478 . S
C1968 C1970 1.381 . S
C1968 C1974 1.383 . S
C1969 C1965 1.495 . S
C1969 H1975 0.959 . S
C1969 H1976 0.961 . S
C1969 H1977 0.960 . S
C1970 C1968 1.381 . S
C1970 C1971 1.394 . S
C1970 H1978 0.930 . S
C1971 C1970 1.394 . S
C1971 C1972 1.383 . S
C1971 H1979 0.929 . S
C1972 C1971 1.383 . S
C1972 C1973 1.377 . S
C1973 H1957 0.930 . S
C1973 C1972 1.377 . S
C1973 C1974 1.379 . S
C1974 H1958 0.931 . S
C1974 C1968 1.383 . S
C1974 C1973 1.379 . S
H1975 C1969 0.959 . S
H1976 C1969 0.961 . S
H1977 C1969 0.960 . S
H1978 C1970 0.930 . S
H1979 C1971 0.929 . S
H1980 C1988 0.929 . S
H1981 C1990 0.930 . S
H1982 C1992 0.930 1_545 S
H1983 C1995 0.929 1_545 S
H1984 C1998 0.930 . S
H1985 C2000 0.960 . S
H1986 C2000 0.960 . S
H1987 C2000 0.960 . S
C1988 H1980 0.929 . S
C1988 C1989 1.377 . S
C1988 C1990 1.384 . S
C1989 C1988 1.377 . S
C1989 C1995 1.390 . S
C1990 H1981 0.930 . S
C1990 C1988 1.384 . S
C1990 C1991 1.372 . S
C1991 C1990 1.372 . S
C1991 C1992 1.400 . S
C1991 C1996 1.490 . S
C1992 H1982 0.930 1_565 S
C1992 C1991 1.400 . S
C1992 C1995 1.386 . S
H1993 C2009 0.930 . S
H1994 C2010 0.933 . S
C1995 H1983 0.929 1_565 S
C1995 C1989 1.390 . S
C1995 C1992 1.386 . S
C1996 C1991 1.490 . S
C1996 C1998 1.395 . S
C1996 C1999 1.403 1_565 S
H1997 C2003 0.930 . S
C1998 H1984 0.930 . S
C1998 C1996 1.395 . S
C1998 C2001 1.403 . S
C1999 C1996 1.403 1_545 S
C1999 C2000 1.524 . S
C1999 C2003 1.400 . S
C2000 H1985 0.960 . S
C2000 H1986 0.960 . S
C2000 H1987 0.960 . S
C2000 C1999 1.524 . S
C2001 C1998 1.403 . S
C2001 C2002 1.392 . S
C2001 C2005 1.495 . S
C2002 C2001 1.392 . S
C2002 C2003 1.385 1_565 S
C2002 C2004 1.478 . S
C2003 H1997 0.930 . S
C2003 C1999 1.400 . S
C2003 C2002 1.385 1_545 S
C2004 C2002 1.478 . S
C2004 C2006 1.381 . S
C2004 C2010 1.378 1_565 S
C2005 C2001 1.495 . S
C2005 H2011 0.959 . S
C2005 H2012 0.961 . S
C2005 H2013 0.960 . S
C2006 C2004 1.381 . S
C2006 C2007 1.394 . S
C2006 H2014 0.930 . S
C2007 C2006 1.394 . S
C2007 C2008 1.383 . S
C2007 H2015 0.929 . S
C2008 C2007 1.383 . S
C2008 C2009 1.377 1_565 S
C2009 H1993 0.930 . S
C2009 C2008 1.377 1_545 S
C2009 C2010 1.383 . S
C2010 H1994 0.933 . S
C2010 C2004 1.378 1_545 S
C2010 C2009 1.383 . S
H2011 C2005 0.959 . S
H2012 C2005 0.961 . S
H2013 C2005 0.960 . S
H2014 C2006 0.930 . S
H2015 C2007 0.929 . S
H2016 C2024 0.929 1_545 S
H2017 C2026 0.926 1_545 S
H2018 C2028 0.930 . S
H2019 C2031 0.929 . S
H2020 C2034 0.930 . S
H2021 C2036 0.960 . S
H2022 C2036 0.960 1_545 S
H2023 C2036 0.960 . S
C2024 H2016 0.929 1_565 S
C2024 C2025 1.377 . S
C2024 C2026 1.380 . S
C2025 C2024 1.377 . S
C2025 C2031 1.390 . S
C2026 H2017 0.926 1_565 S
C2026 C2024 1.380 . S
C2026 C2027 1.380 . S
C2027 C2026 1.380 . S
C2027 C2028 1.400 . S
C2027 C2032 1.490 . S
C2028 H2018 0.930 . S
C2028 C2027 1.400 . S
C2028 C2031 1.386 . S
H2029 C2045 0.930 . S
H2030 C2046 0.931 . S
C2031 H2019 0.929 . S
C2031 C2025 1.390 . S
C2031 C2028 1.386 . S
C2032 C2027 1.490 . S
C2032 C2034 1.395 . S
C2032 C2035 1.403 . S
H2033 C2039 0.930 . S
C2034 H2020 0.930 . S
C2034 C2032 1.395 . S
C2034 C2037 1.403 . S
C2035 C2032 1.403 . S
C2035 C2036 1.524 . S
C2035 C2039 1.400 . S
C2036 H2021 0.960 . S
C2036 H2022 0.960 1_565 S
C2036 H2023 0.960 . S
C2036 C2035 1.524 . S
C2037 C2034 1.403 . S
C2037 C2038 1.392 . S
C2037 C2041 1.495 . S
C2038 C2037 1.392 . S
C2038 C2039 1.385 . S
C2038 C2040 1.478 . S
C2039 H2033 0.930 . S
C2039 C2035 1.400 . S
C2039 C2038 1.385 . S
C2040 C2038 1.478 . S
C2040 C2042 1.381 1_565 S
C2040 C2046 1.383 . S
C2041 C2037 1.495 . S
C2041 H2047 0.959 . S
C2041 H2048 0.961 . S
C2041 H2049 0.960 . S
C2042 C2040 1.381 1_545 S
C2042 C2043 1.394 . S
C2042 H2050 0.930 . S
C2043 C2042 1.394 . S
C2043 C2044 1.383 1_545 S
C2043 H2051 0.929 . S
C2044 C2043 1.383 1_565 S
C2044 C2045 1.377 . S
C2045 H2029 0.930 . S
C2045 C2044 1.377 . S
C2045 C2046 1.379 . S
C2046 H2030 0.931 . S
C2046 C2040 1.383 . S
C2046 C2045 1.379 . S
H2047 C2041 0.959 . S
H2048 C2041 0.961 . S
H2049 C2041 0.960 . S
H2050 C2042 0.930 . S
H2051 C2043 0.929 . S
H2052 C2060 0.929 . S
H2053 C2062 0.930 . S
H2054 C2064 0.930 . S
H2055 C2067 0.929 . S
H2056 C2070 0.930 . S
H2057 C2072 0.960 . S
H2058 C2072 0.960 . S
H2059 C2072 0.960 . S
C2060 H2052 0.929 . S
C2060 C2061 1.377 . S
C2060 C2062 1.384 . S
C2061 C2060 1.377 . S
C2061 C2067 1.390 . S
C2062 H2053 0.930 . S
C2062 C2060 1.384 . S
C2062 C2063 1.372 . S
C2063 C2062 1.372 . S
C2063 C2064 1.400 . S
C2063 C2068 1.490 . S
C2064 H2054 0.930 . S
C2064 C2063 1.400 . S
C2064 C2067 1.386 . S
H2065 C2081 0.930 . S
H2066 C2082 0.931 . S
C2067 H2055 0.929 . S
C2067 C2061 1.390 . S
C2067 C2064 1.386 . S
C2068 C2063 1.490 . S
C2068 C2070 1.395 . S
C2068 C2071 1.403 . S
H2069 C2075 0.930 . S
C2070 H2056 0.930 . S
C2070 C2068 1.395 . S
C2070 C2073 1.403 . S
C2071 C2068 1.403 . S
C2071 C2072 1.524 1_455 S
C2071 C2075 1.400 . S
C2072 H2057 0.960 . S
C2072 H2058 0.960 . S
C2072 H2059 0.960 . S
C2072 C2071 1.524 1_655 S
C2073 C2070 1.403 . S
C2073 C2074 1.392 . S
C2073 C2077 1.495 . S
C2074 C2073 1.392 . S
C2074 C2075 1.385 . S
C2074 C2076 1.478 . S
C2075 H2069 0.930 . S
C2075 C2071 1.400 . S
C2075 C2074 1.385 . S
C2076 C2074 1.478 . S
C2076 C2078 1.381 . S
C2076 C2082 1.383 . S
C2077 C2073 1.495 . S
C2077 H2083 0.959 . S
C2077 H2084 0.961 . S
C2077 H2085 0.960 . S
C2078 C2076 1.381 . S
C2078 C2079 1.394 . S
C2078 H2086 0.930 . S
C2079 C2078 1.394 . S
C2079 C2080 1.383 . S
C2079 H2087 0.929 . S
C2080 C2079 1.383 . S
C2080 C2081 1.377 . S
C2081 H2065 0.930 . S
C2081 C2080 1.377 . S
C2081 C2082 1.379 . S
C2082 H2066 0.931 . S
C2082 C2076 1.383 . S
C2082 C2081 1.379 . S
H2083 C2077 0.959 . S
H2084 C2077 0.961 . S
H2085 C2077 0.960 . S
H2086 C2078 0.930 . S
H2087 C2079 0.929 . S
H2088 C2096 0.929 . S
H2089 C2098 0.930 . S
H2090 C2100 0.930 . S
H2091 C2103 0.929 . S
H2092 C2106 0.930 . S
H2093 C2108 0.960 . S
H2094 C2108 0.960 . S
H2095 C2108 0.960 . S
C2096 H2088 0.929 . S
C2096 C2097 1.377 . S
C2096 C2098 1.384 . S
C2097 C2096 1.377 . S
C2097 C2103 1.390 . S
C2098 H2089 0.930 . S
C2098 C2096 1.384 . S
C2098 C2099 1.372 . S
C2099 C2098 1.372 . S
C2099 C2100 1.400 . S
C2099 C2104 1.490 . S
C2100 H2090 0.930 . S
C2100 C2099 1.400 . S
C2100 C2103 1.386 . S
H2101 C2117 0.930 . S
H2102 C2118 0.931 . S
C2103 H2091 0.929 . S
C2103 C2097 1.390 . S
C2103 C2100 1.386 . S
C2104 C2099 1.490 . S
C2104 C2106 1.395 . S
C2104 C2107 1.403 . S
H2105 C2111 0.930 . S
C2106 H2092 0.930 . S
C2106 C2104 1.395 . S
C2106 C2109 1.403 . S
C2107 C2104 1.403 . S
C2107 C2108 1.524 . S
C2107 C2111 1.400 . S
C2108 H2093 0.960 . S
C2108 H2094 0.960 . S
C2108 H2095 0.960 . S
C2108 C2107 1.524 . S
C2109 C2106 1.403 . S
C2109 C2110 1.392 . S
C2109 C2113 1.495 . S
C2110 C2109 1.392 . S
C2110 C2111 1.385 . S
C2110 C2112 1.478 . S
C2111 H2105 0.930 . S
C2111 C2107 1.400 . S
C2111 C2110 1.385 . S
C2112 C2110 1.478 . S
C2112 C2114 1.381 . S
C2112 C2118 1.383 . S
C2113 C2109 1.495 . S
C2113 H2119 0.959 . S
C2113 H2120 0.961 . S
C2113 H2121 0.960 . S
C2114 C2112 1.381 . S
C2114 C2115 1.394 . S
C2114 H2122 0.930 . S
C2115 C2114 1.394 . S
C2115 C2116 1.383 . S
C2115 H2123 0.929 . S
C2116 C2115 1.383 . S
C2116 C2117 1.377 . S
C2117 H2101 0.930 . S
C2117 C2116 1.377 . S
C2117 C2118 1.379 . S
C2118 H2102 0.931 . S
C2118 C2112 1.383 . S
C2118 C2117 1.379 . S
H2119 C2113 0.959 . S
H2120 C2113 0.961 . S
H2121 C2113 0.960 . S
H2122 C2114 0.930 . S
H2123 C2115 0.929 . S
H2124 C2132 0.929 . S
H2125 C2134 0.930 . S
H2126 C2136 0.930 . S
H2127 C2139 0.929 . S
H2128 C2142 0.930 . S
H2129 C2144 0.960 . S
H2130 C2144 0.960 . S
H2131 C2144 0.960 1_455 S
C2132 H2124 0.929 . S
C2132 C2133 1.377 . S
C2132 C2134 1.384 . S
C2133 C2132 1.377 . S
C2133 C2139 1.390 1_655 S
C2134 H2125 0.930 . S
C2134 C2132 1.384 . S
C2134 C2135 1.372 . S
C2135 C2134 1.372 . S
C2135 C2136 1.400 1_655 S
C2135 C2140 1.490 . S
C2136 H2126 0.930 . S
C2136 C2135 1.400 1_455 S
C2136 C2139 1.386 . S
H2137 C2153 0.930 . S
H2138 C2154 0.931 . S
C2139 H2127 0.929 . S
C2139 C2133 1.390 1_455 S
C2139 C2136 1.386 . S
C2140 C2135 1.490 . S
C2140 C2142 1.395 . S
C2140 C2143 1.403 . S
H2141 C2147 0.930 . S
C2142 H2128 0.930 . S
C2142 C2140 1.395 . S
C2142 C2145 1.403 . S
C2143 C2140 1.403 . S
C2143 C2144 1.524 . S
C2143 C2147 1.400 . S
C2144 H2129 0.960 . S
C2144 H2130 0.960 . S
C2144 H2131 0.960 1_655 S
C2144 C2143 1.524 . S
C2145 C2142 1.403 . S
C2145 C2146 1.392 . S
C2145 C2149 1.495 . S
C2146 C2145 1.392 . S
C2146 C2147 1.385 . S
C2146 C2148 1.478 . S
C2147 H2141 0.930 . S
C2147 C2143 1.400 . S
C2147 C2146 1.385 . S
C2148 C2146 1.478 . S
C2148 C2150 1.381 . S
C2148 C2154 1.383 1_655 S
C2149 C2145 1.495 . S
C2149 H2155 0.959 . S
C2149 H2156 0.961 1_655 S
C2149 H2157 0.960 . S
C2150 C2148 1.381 . S
C2150 C2151 1.394 . S
C2150 H2158 0.930 . S
C2151 C2150 1.394 . S
C2151 C2152 1.383 1_655 S
C2151 H2159 0.929 . S
C2152 C2151 1.383 1_455 S
C2152 C2153 1.377 . S
C2153 H2137 0.930 . S
C2153 C2152 1.377 . S
C2153 C2154 1.379 . S
C2154 H2138 0.931 . S
C2154 C2148 1.383 1_455 S
C2154 C2153 1.379 . S
H2155 C2149 0.959 . S
H2156 C2149 0.961 1_455 S
H2157 C2149 0.960 . S
H2158 C2150 0.930 . S
H2159 C2151 0.929 . S
H2160 C2168 0.929 . S
H2161 C2170 0.930 . S
H2162 C2172 0.930 . S
H2163 C2175 0.929 . S
H2164 C2178 0.930 . S
H2165 C2180 0.960 . S
H2166 C2180 0.960 . S
H2167 C2180 0.960 . S
C2168 H2160 0.929 . S
C2168 C2169 1.377 . S
C2168 C2170 1.384 . S
C2169 C2168 1.377 . S
C2169 C2175 1.390 . S
C2170 H2161 0.930 . S
C2170 C2168 1.384 . S
C2170 C2171 1.372 . S
C2171 C2170 1.372 . S
C2171 C2172 1.400 . S
C2171 C2176 1.490 . S
C2172 H2162 0.930 . S
C2172 C2171 1.400 . S
C2172 C2175 1.386 . S
H2173 C2189 0.930 . S
H2174 C2190 0.931 . S
C2175 H2163 0.929 . S
C2175 C2169 1.390 . S
C2175 C2172 1.386 . S
C2176 C2171 1.490 . S
C2176 C2178 1.395 . S
C2176 C2179 1.403 . S
H2177 C2183 0.930 . S
C2178 H2164 0.930 . S
C2178 C2176 1.395 . S
C2178 C2181 1.403 . S
C2179 C2176 1.403 . S
C2179 C2180 1.524 . S
C2179 C2183 1.400 . S
C2180 H2165 0.960 . S
C2180 H2166 0.960 . S
C2180 H2167 0.960 . S
C2180 C2179 1.524 . S
C2181 C2178 1.403 . S
C2181 C2182 1.392 . S
C2181 C2185 1.495 . S
C2182 C2181 1.392 . S
C2182 C2183 1.385 . S
C2182 C2184 1.478 . S
C2183 H2177 0.930 . S
C2183 C2179 1.400 . S
C2183 C2182 1.385 . S
C2184 C2182 1.478 . S
C2184 C2186 1.381 . S
C2184 C2190 1.383 . S
C2185 C2181 1.495 . S
C2185 H2191 0.959 . S
C2185 H2192 0.961 . S
C2185 H2193 0.960 . S
C2186 C2184 1.381 . S
C2186 C2187 1.394 . S
C2186 H2194 0.930 . S
C2187 C2186 1.394 . S
C2187 C2188 1.383 . S
C2187 H2195 0.929 . S
C2188 C2187 1.383 . S
C2188 C2189 1.377 . S
C2189 H2173 0.930 . S
C2189 C2188 1.377 . S
C2189 C2190 1.379 . S
C2190 H2174 0.931 . S
C2190 C2184 1.383 . S
C2190 C2189 1.379 . S
H2191 C2185 0.959 . S
H2192 C2185 0.961 . S
H2193 C2185 0.960 . S
H2194 C2186 0.930 . S
H2195 C2187 0.929 . S
H2196 C2204 0.929 . S
H2197 C2206 0.930 . S
H2198 C2208 0.930 . S
H2199 C2211 0.929 . S
H2200 C2214 0.930 . S
H2201 C2216 0.960 . S
H2202 C2216 0.960 . S
H2203 C2216 0.960 . S
C2204 H2196 0.929 . S
C2204 C2205 1.377 . S
C2204 C2206 1.384 . S
C2205 C2204 1.377 . S
C2205 C2211 1.390 . S
C2206 H2197 0.930 . S
C2206 C2204 1.384 . S
C2206 C2207 1.372 . S
C2207 C2206 1.372 . S
C2207 C2208 1.400 . S
C2207 C2212 1.490 . S
C2208 H2198 0.930 . S
C2208 C2207 1.400 . S
C2208 C2211 1.386 . S
H2209 C2225 0.930 . S
H2210 C2226 0.931 . S
C2211 H2199 0.929 . S
C2211 C2205 1.390 . S
C2211 C2208 1.386 . S
C2212 C2207 1.490 . S
C2212 C2214 1.395 . S
C2212 C2215 1.403 . S
H2213 C2219 0.930 . S
C2214 H2200 0.930 . S
C2214 C2212 1.395 . S
C2214 C2217 1.403 . S
C2215 C2212 1.403 . S
C2215 C2216 1.524 . S
C2215 C2219 1.400 . S
C2216 H2201 0.960 . S
C2216 H2202 0.960 . S
C2216 H2203 0.960 . S
C2216 C2215 1.524 . S
C2217 C2214 1.403 . S
C2217 C2218 1.392 . S
C2217 C2221 1.495 1_545 S
C2218 C2217 1.392 . S
C2218 C2219 1.385 . S
C2218 C2220 1.478 . S
C2219 H2213 0.930 . S
C2219 C2215 1.400 . S
C2219 C2218 1.385 . S
C2220 C2218 1.478 . S
C2220 C2222 1.381 . S
C2220 C2226 1.383 . S
C2221 C2217 1.495 1_565 S
C2221 H2227 0.959 . S
C2221 H2228 0.961 1_565 S
C2221 H2229 0.960 . S
C2222 C2220 1.381 . S
C2222 C2223 1.394 . S
C2222 H2230 0.930 1_545 S
C2223 C2222 1.394 . S
C2223 C2224 1.383 . S
C2223 H2231 0.929 1_545 S
C2224 C2223 1.383 . S
C2224 C2225 1.377 . S
C2225 H2209 0.930 . S
C2225 C2224 1.377 . S
C2225 C2226 1.379 . S
C2226 H2210 0.931 . S
C2226 C2220 1.383 . S
C2226 C2225 1.379 . S
H2227 C2221 0.959 . S
H2228 C2221 0.961 1_545 S
H2229 C2221 0.960 . S
H2230 C2222 0.930 1_565 S
H2231 C2223 0.929 1_565 S
H2232 C2240 0.929 . S
H2233 C2242 0.930 . S
H2234 C2244 0.930 . S
H2235 C2247 0.929 . S
H2236 C2250 0.930 . S
H2237 C2252 0.960 . S
H2238 C2252 0.960 . S
H2239 C2252 0.960 . S
C2240 H2232 0.929 . S
C2240 C2241 1.377 . S
C2240 C2242 1.384 . S
C2241 C2240 1.377 . S
C2241 C2247 1.390 . S
C2242 H2233 0.930 . S
C2242 C2240 1.384 . S
C2242 C2243 1.372 . S
C2243 C2242 1.372 . S
C2243 C2244 1.400 . S
C2243 C2248 1.490 . S
C2244 H2234 0.930 . S
C2244 C2243 1.400 . S
C2244 C2247 1.386 . S
H2245 C2261 0.930 . S
H2246 C2262 0.931 . S
C2247 H2235 0.929 . S
C2247 C2241 1.390 . S
C2247 C2244 1.386 . S
C2248 C2243 1.490 . S
C2248 C2250 1.395 . S
C2248 C2251 1.403 . S
H2249 C2255 0.930 . S
C2250 H2236 0.930 . S
C2250 C2248 1.395 . S
C2250 C2253 1.403 . S
C2251 C2248 1.403 . S
C2251 C2252 1.524 . S
C2251 C2255 1.400 . S
C2252 H2237 0.960 . S
C2252 H2238 0.960 . S
C2252 H2239 0.960 . S
C2252 C2251 1.524 . S
C2253 C2250 1.403 . S
C2253 C2254 1.392 . S
C2253 C2257 1.495 . S
C2254 C2253 1.392 . S
C2254 C2255 1.385 . S
C2254 C2256 1.478 . S
C2255 H2249 0.930 . S
C2255 C2251 1.400 . S
C2255 C2254 1.385 . S
C2256 C2254 1.478 . S
C2256 C2258 1.381 . S
C2256 C2262 1.383 . S
C2257 C2253 1.495 . S
C2257 H2263 0.959 . S
C2257 H2264 0.961 . S
C2257 H2265 0.960 . S
C2258 C2256 1.381 . S
C2258 C2259 1.394 . S
C2258 H2266 0.930 . S
C2259 C2258 1.394 . S
C2259 C2260 1.383 . S
C2259 H2267 0.929 . S
C2260 C2259 1.383 . S
C2260 C2261 1.377 . S
C2261 H2245 0.930 . S
C2261 C2260 1.377 . S
C2261 C2262 1.379 . S
C2262 H2246 0.931 . S
C2262 C2256 1.383 . S
C2262 C2261 1.379 . S
H2263 C2257 0.959 . S
H2264 C2257 0.961 . S
H2265 C2257 0.960 . S
H2266 C2258 0.930 . S
H2267 C2259 0.929 . S
H2268 C2276 0.929 . S
H2269 C2278 0.930 . S
H2270 C2280 0.930 . S
H2271 C2283 0.929 . S
H2272 C2286 0.930 . S
H2273 C2288 0.960 . S
H2274 C2288 0.960 . S
H2275 C2288 0.960 . S
C2276 H2268 0.929 . S
C2276 C2277 1.377 . S
C2276 C2278 1.384 . S
C2277 C2276 1.377 . S
C2277 C2283 1.390 . S
C2278 H2269 0.930 . S
C2278 C2276 1.384 . S
C2278 C2279 1.372 . S
C2279 C2278 1.372 . S
C2279 C2280 1.400 . S
C2279 C2284 1.490 . S
C2280 H2270 0.930 . S
C2280 C2279 1.400 . S
C2280 C2283 1.386 . S
H2281 C2297 0.930 . S
H2282 C2298 0.931 . S
C2283 H2271 0.929 . S
C2283 C2277 1.390 . S
C2283 C2280 1.386 . S
C2284 C2279 1.490 . S
C2284 C2286 1.395 . S
C2284 C2287 1.403 . S
H2285 C2291 0.930 . S
C2286 H2272 0.930 . S
C2286 C2284 1.395 . S
C2286 C2289 1.403 . S
C2287 C2284 1.403 . S
C2287 C2288 1.524 . S
C2287 C2291 1.400 . S
C2288 H2273 0.960 . S
C2288 H2274 0.960 . S
C2288 H2275 0.960 . S
C2288 C2287 1.524 . S
C2289 C2286 1.403 . S
C2289 C2290 1.392 . S
C2289 C2293 1.495 . S
C2290 C2289 1.392 . S
C2290 C2291 1.385 . S
C2290 C2292 1.478 . S
C2291 H2285 0.930 . S
C2291 C2287 1.400 . S
C2291 C2290 1.385 . S
C2292 C2290 1.478 . S
C2292 C2294 1.381 . S
C2292 C2298 1.383 . S
C2293 C2289 1.495 . S
C2293 H2299 0.959 . S
C2293 H2300 0.961 . S
C2293 H2301 0.960 . S
C2294 C2292 1.381 . S
C2294 C2295 1.394 . S
C2294 H2302 0.930 . S
C2295 C2294 1.394 . S
C2295 C2296 1.383 . S
C2295 H2303 0.929 . S
C2296 C2295 1.383 . S
C2296 C2297 1.377 . S
C2297 H2281 0.930 . S
C2297 C2296 1.377 . S
C2297 C2298 1.379 . S
C2298 H2282 0.931 . S
C2298 C2292 1.383 . S
C2298 C2297 1.379 . S
H2299 C2293 0.959 . S
H2300 C2293 0.961 . S
H2301 C2293 0.960 . S
H2302 C2294 0.930 . S
H2303 C2295 0.929 . S
H2304 C2312 0.929 . S
H2305 C2314 0.930 . S
H2306 C2316 0.930 . S
H2307 C2319 0.929 . S
H2308 C2322 0.930 . S
H2309 C2324 0.960 . S
H2310 C2324 0.960 . S
H2311 C2324 0.960 . S
C2312 H2304 0.929 . S
C2312 C2313 1.377 . S
C2312 C2314 1.384 . S
C2313 C2312 1.377 . S
C2313 C2319 1.390 . S
C2314 H2305 0.930 . S
C2314 C2312 1.384 . S
C2314 C2315 1.372 . S
C2315 C2314 1.372 . S
C2315 C2316 1.400 . S
C2315 C2320 1.490 . S
C2316 H2306 0.930 . S
C2316 C2315 1.400 . S
C2316 C2319 1.386 . S
H2317 C2333 0.930 . S
H2318 C2334 0.931 . S
C2319 H2307 0.929 . S
C2319 C2313 1.390 . S
C2319 C2316 1.386 . S
C2320 C2315 1.490 . S
C2320 C2322 1.395 . S
C2320 C2323 1.403 . S
H2321 C2327 0.930 . S
C2322 H2308 0.930 . S
C2322 C2320 1.395 . S
C2322 C2325 1.403 . S
C2323 C2320 1.403 . S
C2323 C2324 1.524 . S
C2323 C2327 1.400 . S
C2324 H2309 0.960 . S
C2324 H2310 0.960 . S
C2324 H2311 0.960 . S
C2324 C2323 1.524 . S
C2325 C2322 1.403 . S
C2325 C2326 1.392 . S
C2325 C2329 1.495 . S
C2326 C2325 1.392 . S
C2326 C2327 1.385 . S
C2326 C2328 1.478 . S
C2327 H2321 0.930 . S
C2327 C2323 1.400 . S
C2327 C2326 1.385 . S
C2328 C2326 1.478 . S
C2328 C2330 1.381 . S
C2328 C2334 1.383 . S
C2329 C2325 1.495 . S
C2329 H2335 0.959 . S
C2329 H2336 0.961 . S
C2329 H2337 0.960 . S
C2330 C2328 1.381 . S
C2330 C2331 1.394 . S
C2330 H2338 0.930 . S
C2331 C2330 1.394 . S
C2331 C2332 1.383 . S
C2331 H2339 0.929 . S
C2332 C2331 1.383 . S
C2332 C2333 1.377 . S
C2333 H2317 0.930 . S
C2333 C2332 1.377 . S
C2333 C2334 1.379 . S
C2334 H2318 0.931 . S
C2334 C2328 1.383 . S
C2334 C2333 1.379 . S
H2335 C2329 0.959 . S
H2336 C2329 0.961 . S
H2337 C2329 0.960 . S
H2338 C2330 0.930 . S
H2339 C2331 0.929 . S
H2340 C2348 0.929 . S
H2341 C2350 0.930 . S
H2342 C2352 0.930 . S
H2343 C2355 0.929 . S
H2344 C2358 0.930 . S
H2345 C2360 0.960 . S
H2346 C2360 0.960 . S
H2347 C2360 0.960 . S
C2348 H2340 0.929 . S
C2348 C2349 1.377 . S
C2348 C2350 1.384 . S
C2349 C2348 1.377 . S
C2349 C2355 1.390 . S
C2350 H2341 0.930 . S
C2350 C2348 1.384 . S
C2350 C2351 1.372 . S
C2351 C2350 1.372 . S
C2351 C2352 1.400 . S
C2351 C2356 1.490 . S
C2352 H2342 0.930 . S
C2352 C2351 1.400 . S
C2352 C2355 1.386 . S
H2353 C2369 0.930 . S
H2354 C2370 0.931 . S
C2355 H2343 0.929 . S
C2355 C2349 1.390 . S
C2355 C2352 1.386 . S
C2356 C2351 1.490 . S
C2356 C2358 1.395 . S
C2356 C2359 1.403 . S
H2357 C2363 0.930 . S
C2358 H2344 0.930 . S
C2358 C2356 1.395 . S
C2358 C2361 1.403 . S
C2359 C2356 1.403 . S
C2359 C2360 1.524 . S
C2359 C2363 1.400 . S
C2360 H2345 0.960 . S
C2360 H2346 0.960 . S
C2360 H2347 0.960 . S
C2360 C2359 1.524 . S
C2361 C2358 1.403 . S
C2361 C2362 1.392 . S
C2361 C2365 1.495 . S
C2362 C2361 1.392 . S
C2362 C2363 1.385 . S
C2362 C2364 1.478 . S
C2363 H2357 0.930 . S
C2363 C2359 1.400 . S
C2363 C2362 1.385 . S
C2364 C2362 1.478 . S
C2364 C2366 1.381 . S
C2364 C2370 1.383 . S
C2365 C2361 1.495 . S
C2365 H2371 0.959 . S
C2365 H2372 0.961 . S
C2365 H2373 0.960 . S
C2366 C2364 1.381 . S
C2366 C2367 1.394 . S
C2366 H2374 0.930 . S
C2367 C2366 1.394 . S
C2367 C2368 1.383 . S
C2367 H2375 0.929 . S
C2368 C2367 1.383 . S
C2368 C2369 1.377 . S
C2369 H2353 0.930 . S
C2369 C2368 1.377 . S
C2369 C2370 1.379 . S
C2370 H2354 0.931 . S
C2370 C2364 1.383 . S
C2370 C2369 1.379 . S
H2371 C2365 0.959 . S
H2372 C2365 0.961 . S
H2373 C2365 0.960 . S
H2374 C2366 0.930 . S
H2375 C2367 0.929 . S
H2376 C2384 0.929 . S
H2377 C2386 0.930 . S
H2378 C2388 0.930 . S
H2379 C2391 0.929 . S
H2380 C2394 0.930 . S
H2381 C2396 0.960 . S
H2382 C2396 0.960 . S
H2383 C2396 0.960 . S
C2384 H2376 0.929 . S
C2384 C2385 1.377 . S
C2384 C2386 1.384 . S
C2385 C2384 1.377 . S
C2385 C2391 1.390 . S
C2386 H2377 0.930 . S
C2386 C2384 1.384 . S
C2386 C2387 1.372 . S
C2387 C2386 1.372 . S
C2387 C2388 1.400 . S
C2387 C2392 1.490 . S
C2388 H2378 0.930 . S
C2388 C2387 1.400 . S
C2388 C2391 1.386 . S
H2389 C2405 0.930 . S
H2390 C2406 0.931 . S
C2391 H2379 0.929 . S
C2391 C2385 1.390 . S
C2391 C2388 1.386 . S
C2392 C2387 1.490 . S
C2392 C2394 1.395 . S
C2392 C2395 1.403 . S
H2393 C2399 0.930 . S
C2394 H2380 0.930 . S
C2394 C2392 1.395 . S
C2394 C2397 1.403 . S
C2395 C2392 1.403 . S
C2395 C2396 1.524 . S
C2395 C2399 1.400 . S
C2396 H2381 0.960 . S
C2396 H2382 0.960 . S
C2396 H2383 0.960 . S
C2396 C2395 1.524 . S
C2397 C2394 1.403 . S
C2397 C2398 1.392 . S
C2397 C2401 1.495 . S
C2398 C2397 1.392 . S
C2398 C2399 1.385 . S
C2398 C2400 1.478 . S
C2399 H2393 0.930 . S
C2399 C2395 1.400 . S
C2399 C2398 1.385 . S
C2400 C2398 1.478 . S
C2400 C2402 1.381 . S
C2400 C2406 1.383 . S
C2401 C2397 1.495 . S
C2401 H2407 0.959 . S
C2401 H2408 0.961 . S
C2401 H2409 0.960 . S
C2402 C2400 1.381 . S
C2402 C2403 1.394 . S
C2402 H2410 0.930 . S
C2403 C2402 1.394 . S
C2403 C2404 1.383 . S
C2403 H2411 0.929 . S
C2404 C2403 1.383 . S
C2404 C2405 1.377 . S
C2405 H2389 0.930 . S
C2405 C2404 1.377 . S
C2405 C2406 1.379 . S
C2406 H2390 0.931 . S
C2406 C2400 1.383 . S
C2406 C2405 1.379 . S
H2407 C2401 0.959 . S
H2408 C2401 0.961 . S
H2409 C2401 0.960 . S
H2410 C2402 0.930 . S
H2411 C2403 0.929 . S
H2412 C2420 0.929 . S
H2413 C2422 0.930 . S
H2414 C2424 0.930 . S
H2415 C2427 0.929 . S
H2416 C2430 0.930 . S
H2417 C2432 0.960 . S
H2418 C2432 0.960 . S
H2419 C2432 0.960 . S
C2420 H2412 0.929 . S
C2420 C2421 1.377 . S
C2420 C2422 1.384 . S
C2421 C2420 1.377 . S
C2421 C2427 1.390 . S
C2422 H2413 0.930 . S
C2422 C2420 1.384 . S
C2422 C2423 1.372 . S
C2423 C2422 1.372 . S
C2423 C2424 1.400 . S
C2423 C2428 1.490 . S
C2424 H2414 0.930 . S
C2424 C2423 1.400 . S
C2424 C2427 1.386 . S
H2425 C2441 0.930 . S
H2426 C2442 0.931 . S
C2427 H2415 0.929 . S
C2427 C2421 1.390 . S
C2427 C2424 1.386 . S
C2428 C2423 1.490 . S
C2428 C2430 1.395 . S
C2428 C2431 1.403 . S
H2429 C2435 0.930 . S
C2430 H2416 0.930 . S
C2430 C2428 1.395 . S
C2430 C2433 1.403 . S
C2431 C2428 1.403 . S
C2431 C2432 1.524 . S
C2431 C2435 1.400 . S
C2432 H2417 0.960 . S
C2432 H2418 0.960 . S
C2432 H2419 0.960 . S
C2432 C2431 1.524 . S
C2433 C2430 1.403 . S
C2433 C2434 1.392 . S
C2433 C2437 1.495 . S
C2434 C2433 1.392 . S
C2434 C2435 1.385 . S
C2434 C2436 1.478 . S
C2435 H2429 0.930 . S
C2435 C2431 1.400 . S
C2435 C2434 1.385 . S
C2436 C2434 1.478 . S
C2436 C2438 1.381 . S
C2436 C2442 1.383 . S
C2437 C2433 1.495 . S
C2437 H2443 0.959 . S
C2437 H2444 0.961 . S
C2437 H2445 0.960 . S
C2438 C2436 1.381 . S
C2438 C2439 1.394 . S
C2438 H2446 0.930 . S
C2439 C2438 1.394 . S
C2439 C2440 1.383 . S
C2439 H2447 0.929 . S
C2440 C2439 1.383 . S
C2440 C2441 1.377 . S
C2441 H2425 0.930 . S
C2441 C2440 1.377 . S
C2441 C2442 1.379 . S
C2442 H2426 0.931 . S
C2442 C2436 1.383 . S
C2442 C2441 1.379 . S
H2443 C2437 0.959 . S
H2444 C2437 0.961 . S
H2445 C2437 0.960 . S
H2446 C2438 0.930 . S
H2447 C2439 0.929 . S
H2448 C2456 0.929 . S
H2449 C2458 0.930 . S
H2450 C2460 0.930 . S
H2451 C2463 0.929 . S
H2452 C2466 0.930 . S
H2453 C2468 0.960 . S
H2454 C2468 0.960 . S
H2455 C2468 0.960 . S
C2456 H2448 0.929 . S
C2456 C2457 1.377 . S
C2456 C2458 1.384 . S
C2457 C2456 1.377 . S
C2457 C2463 1.390 . S
C2458 H2449 0.930 . S
C2458 C2456 1.384 . S
C2458 C2459 1.372 . S
C2459 C2458 1.372 . S
C2459 C2460 1.400 . S
C2459 C2464 1.490 . S
C2460 H2450 0.930 . S
C2460 C2459 1.400 . S
C2460 C2463 1.386 . S
H2461 C2477 0.930 . S
H2462 C2478 0.931 . S
C2463 H2451 0.929 . S
C2463 C2457 1.390 . S
C2463 C2460 1.386 . S
C2464 C2459 1.490 . S
C2464 C2466 1.395 . S
C2464 C2467 1.403 . S
H2465 C2471 0.930 . S
C2466 H2452 0.930 . S
C2466 C2464 1.395 . S
C2466 C2469 1.403 . S
C2467 C2464 1.403 . S
C2467 C2468 1.524 . S
C2467 C2471 1.400 . S
C2468 H2453 0.960 . S
C2468 H2454 0.960 . S
C2468 H2455 0.960 . S
C2468 C2467 1.524 . S
C2469 C2466 1.403 . S
C2469 C2470 1.392 . S
C2469 C2473 1.495 . S
C2470 C2469 1.392 . S
C2470 C2471 1.385 . S
C2470 C2472 1.478 . S
C2471 H2465 0.930 . S
C2471 C2467 1.400 . S
C2471 C2470 1.385 . S
C2472 C2470 1.478 . S
C2472 C2474 1.381 . S
C2472 C2478 1.383 . S
C2473 C2469 1.495 . S
C2473 H2479 0.959 . S
C2473 H2480 0.961 . S
C2473 H2481 0.960 . S
C2474 C2472 1.381 . S
C2474 C2475 1.394 . S
C2474 H2482 0.930 . S
C2475 C2474 1.394 . S
C2475 C2476 1.383 . S
C2475 H2483 0.929 . S
C2476 C2475 1.383 . S
C2476 C2477 1.377 . S
C2477 H2461 0.930 . S
C2477 C2476 1.377 . S
C2477 C2478 1.379 . S
C2478 H2462 0.931 . S
C2478 C2472 1.383 . S
C2478 C2477 1.379 . S
H2479 C2473 0.959 . S
H2480 C2473 0.961 . S
H2481 C2473 0.960 . S
H2482 C2474 0.930 . S
H2483 C2475 0.929 . S
H2484 C2492 0.929 . S
H2485 C2494 0.930 . S
H2486 C2496 0.930 . S
H2487 C2499 0.929 . S
H2488 C2502 0.930 . S
H2489 C2504 0.960 . S
H2490 C2504 0.960 . S
H2491 C2504 0.960 . S
C2492 H2484 0.929 . S
C2492 C2493 1.377 . S
C2492 C2494 1.384 . S
C2493 C2492 1.377 . S
C2493 C2499 1.390 . S
C2494 H2485 0.930 . S
C2494 C2492 1.384 . S
C2494 C2495 1.372 . S
C2495 C2494 1.372 . S
C2495 C2496 1.400 . S
C2495 C2500 1.490 . S
C2496 H2486 0.930 . S
C2496 C2495 1.400 . S
C2496 C2499 1.386 . S
H2497 C2513 0.930 . S
H2498 C2514 0.931 . S
C2499 H2487 0.929 . S
C2499 C2493 1.390 . S
C2499 C2496 1.386 . S
C2500 C2495 1.490 . S
C2500 C2502 1.395 . S
C2500 C2503 1.403 . S
H2501 C2507 0.930 . S
C2502 H2488 0.930 . S
C2502 C2500 1.395 . S
C2502 C2505 1.403 . S
C2503 C2500 1.403 . S
C2503 C2504 1.524 . S
C2503 C2507 1.400 . S
C2504 H2489 0.960 . S
C2504 H2490 0.960 . S
C2504 H2491 0.960 . S
C2504 C2503 1.524 . S
C2505 C2502 1.403 . S
C2505 C2506 1.392 . S
C2505 C2509 1.495 . S
C2506 C2505 1.392 . S
C2506 C2507 1.385 . S
C2506 C2508 1.478 . S
C2507 H2501 0.930 . S
C2507 C2503 1.400 . S
C2507 C2506 1.385 . S
C2508 C2506 1.478 . S
C2508 C2510 1.381 . S
C2508 C2514 1.383 . S
C2509 C2505 1.495 . S
C2509 H2515 0.959 . S
C2509 H2516 0.961 . S
C2509 H2517 0.960 . S
C2510 C2508 1.381 . S
C2510 C2511 1.394 . S
C2510 H2518 0.930 . S
C2511 C2510 1.394 . S
C2511 C2512 1.383 . S
C2511 H2519 0.929 . S
C2512 C2511 1.383 . S
C2512 C2513 1.377 . S
C2513 H2497 0.930 . S
C2513 C2512 1.377 . S
C2513 C2514 1.379 . S
C2514 H2498 0.931 . S
C2514 C2508 1.383 . S
C2514 C2513 1.379 . S
H2515 C2509 0.959 . S
H2516 C2509 0.961 . S
H2517 C2509 0.960 . S
H2518 C2510 0.930 . S
H2519 C2511 0.929 . S
H2520 C2528 0.929 . S
H2521 C2530 0.930 . S
H2522 C2532 0.930 . S
H2523 C2535 0.929 . S
H2524 C2538 0.930 . S
H2525 C2540 0.960 . S
H2526 C2540 0.960 . S
H2527 C2540 0.960 . S
C2528 H2520 0.929 . S
C2528 C2529 1.377 . S
C2528 C2530 1.384 . S
C2529 C2528 1.377 . S
C2529 C2535 1.390 . S
C2530 H2521 0.930 . S
C2530 C2528 1.384 . S
C2530 C2531 1.372 . S
C2531 C2530 1.372 . S
C2531 C2532 1.400 . S
C2531 C2536 1.490 . S
C2532 H2522 0.930 . S
C2532 C2531 1.400 . S
C2532 C2535 1.386 . S
H2533 C2549 0.930 . S
H2534 C2550 0.931 . S
C2535 H2523 0.929 . S
C2535 C2529 1.390 . S
C2535 C2532 1.386 . S
C2536 C2531 1.490 . S
C2536 C2538 1.395 . S
C2536 C2539 1.403 . S
H2537 C2543 0.930 . S
C2538 H2524 0.930 . S
C2538 C2536 1.395 . S
C2538 C2541 1.403 . S
C2539 C2536 1.403 . S
C2539 C2540 1.524 . S
C2539 C2543 1.400 . S
C2540 H2525 0.960 . S
C2540 H2526 0.960 . S
C2540 H2527 0.960 . S
C2540 C2539 1.524 . S
C2541 C2538 1.403 . S
C2541 C2542 1.392 . S
C2541 C2545 1.495 . S
C2542 C2541 1.392 . S
C2542 C2543 1.385 . S
C2542 C2544 1.478 . S
C2543 H2537 0.930 . S
C2543 C2539 1.400 . S
C2543 C2542 1.385 . S
C2544 C2542 1.478 . S
C2544 C2546 1.381 . S
C2544 C2550 1.383 . S
C2545 C2541 1.495 . S
C2545 H2551 0.959 . S
C2545 H2552 0.961 . S
C2545 H2553 0.960 . S
C2546 C2544 1.381 . S
C2546 C2547 1.394 . S
C2546 H2554 0.930 . S
C2547 C2546 1.394 . S
C2547 C2548 1.383 . S
C2547 H2555 0.929 . S
C2548 C2547 1.383 . S
C2548 C2549 1.377 . S
C2549 H2533 0.930 . S
C2549 C2548 1.377 . S
C2549 C2550 1.379 . S
C2550 H2534 0.931 . S
C2550 C2544 1.383 . S
C2550 C2549 1.379 . S
H2551 C2545 0.959 . S
H2552 C2545 0.961 . S
H2553 C2545 0.960 . S
H2554 C2546 0.930 . S
H2555 C2547 0.929 . S
H2556 C2564 0.929 . S
H2557 C2566 0.930 . S
H2558 C2568 0.930 . S
H2559 C2571 0.929 . S
H2560 C2574 0.930 . S
H2561 C2576 0.960 . S
H2562 C2576 0.960 . S
H2563 C2576 0.960 . S
C2564 H2556 0.929 . S
C2564 C2565 1.377 . S
C2564 C2566 1.384 . S
C2565 C2564 1.377 . S
C2565 C2571 1.390 . S
C2566 H2557 0.930 . S
C2566 C2564 1.384 . S
C2566 C2567 1.372 . S
C2567 C2566 1.372 . S
C2567 C2568 1.400 . S
C2567 C2572 1.490 . S
C2568 H2558 0.930 . S
C2568 C2567 1.400 . S
C2568 C2571 1.386 . S
H2569 C2585 0.930 . S
H2570 C2586 0.931 . S
C2571 H2559 0.929 . S
C2571 C2565 1.390 . S
C2571 C2568 1.386 . S
C2572 C2567 1.490 . S
C2572 C2574 1.395 . S
C2572 C2575 1.403 . S
H2573 C2579 0.930 . S
C2574 H2560 0.930 . S
C2574 C2572 1.395 . S
C2574 C2577 1.403 . S
C2575 C2572 1.403 . S
C2575 C2576 1.524 . S
C2575 C2579 1.400 . S
C2576 H2561 0.960 . S
C2576 H2562 0.960 . S
C2576 H2563 0.960 . S
C2576 C2575 1.524 . S
C2577 C2574 1.403 . S
C2577 C2578 1.392 . S
C2577 C2581 1.495 . S
C2578 C2577 1.392 . S
C2578 C2579 1.385 . S
C2578 C2580 1.478 . S
C2579 H2573 0.930 . S
C2579 C2575 1.400 . S
C2579 C2578 1.385 . S
C2580 C2578 1.478 . S
C2580 C2582 1.381 . S
C2580 C2586 1.383 . S
C2581 C2577 1.495 . S
C2581 H2587 0.959 . S
C2581 H2588 0.961 . S
C2581 H2589 0.960 . S
C2582 C2580 1.381 . S
C2582 C2583 1.394 . S
C2582 H2590 0.930 . S
C2583 C2582 1.394 . S
C2583 C2584 1.383 . S
C2583 H2591 0.929 . S
C2584 C2583 1.383 . S
C2584 C2585 1.377 . S
C2585 H2569 0.930 . S
C2585 C2584 1.377 . S
C2585 C2586 1.379 . S
C2586 H2570 0.931 . S
C2586 C2580 1.383 . S
C2586 C2585 1.379 . S
H2587 C2581 0.959 . S
H2588 C2581 0.961 . S
H2589 C2581 0.960 . S
H2590 C2582 0.930 . S
H2591 C2583 0.929 . S
H2592 C2600 0.929 . S
H2593 C2602 0.930 . S
H2594 C2604 0.930 . S
H2595 C2607 0.929 . S
H2596 C2610 0.930 . S
H2597 C2612 0.960 . S
H2598 C2612 0.960 . S
H2599 C2612 0.960 . S
C2600 H2592 0.929 . S
C2600 C2601 1.377 . S
C2600 C2602 1.384 . S
C2601 C2600 1.377 . S
C2601 C2607 1.390 . S
C2602 H2593 0.930 . S
C2602 C2600 1.384 . S
C2602 C2603 1.372 . S
C2603 C2602 1.372 . S
C2603 C2604 1.400 . S
C2603 C2608 1.490 . S
C2604 H2594 0.930 . S
C2604 C2603 1.400 . S
C2604 C2607 1.386 . S
H2605 C2621 0.930 . S
H2606 C2622 0.931 . S
C2607 H2595 0.929 . S
C2607 C2601 1.390 . S
C2607 C2604 1.386 . S
C2608 C2603 1.490 . S
C2608 C2610 1.395 . S
C2608 C2611 1.403 . S
H2609 C2615 0.930 . S
C2610 H2596 0.930 . S
C2610 C2608 1.395 . S
C2610 C2613 1.403 . S
C2611 C2608 1.403 . S
C2611 C2612 1.524 . S
C2611 C2615 1.400 . S
C2612 H2597 0.960 . S
C2612 H2598 0.960 . S
C2612 H2599 0.960 . S
C2612 C2611 1.524 . S
C2613 C2610 1.403 . S
C2613 C2614 1.392 . S
C2613 C2617 1.495 . S
C2614 C2613 1.392 . S
C2614 C2615 1.385 . S
C2614 C2616 1.478 . S
C2615 H2609 0.930 . S
C2615 C2611 1.400 . S
C2615 C2614 1.385 . S
C2616 C2614 1.478 . S
C2616 C2618 1.381 . S
C2616 C2622 1.383 . S
C2617 C2613 1.495 . S
C2617 H2623 0.959 . S
C2617 H2624 0.961 . S
C2617 H2625 0.960 . S
C2618 C2616 1.381 . S
C2618 C2619 1.394 . S
C2618 H2626 0.930 . S
C2619 C2618 1.394 . S
C2619 C2620 1.383 . S
C2619 H2627 0.929 . S
C2620 C2619 1.383 . S
C2620 C2621 1.377 . S
C2621 H2605 0.930 . S
C2621 C2620 1.377 . S
C2621 C2622 1.379 . S
C2622 H2606 0.931 . S
C2622 C2616 1.383 . S
C2622 C2621 1.379 . S
H2623 C2617 0.959 . S
H2624 C2617 0.961 . S
H2625 C2617 0.960 . S
H2626 C2618 0.930 . S
H2627 C2619 0.929 . S
H2628 C2636 0.929 . S
H2629 C2638 0.930 . S
H2630 C2640 0.930 . S
H2631 C2643 0.929 . S
H2632 C2646 0.930 . S
H2633 C2648 0.960 . S
H2634 C2648 0.960 . S
H2635 C2648 0.960 . S
C2636 H2628 0.929 . S
C2636 C2637 1.377 . S
C2636 C2638 1.384 . S
C2637 C2636 1.377 . S
C2637 C2643 1.390 . S
C2638 H2629 0.930 . S
C2638 C2636 1.384 . S
C2638 C2639 1.372 . S
C2639 C2638 1.372 . S
C2639 C2640 1.400 . S
C2639 C2644 1.490 . S
C2640 H2630 0.930 . S
C2640 C2639 1.400 . S
C2640 C2643 1.386 . S
H2641 C2657 0.930 . S
H2642 C2658 0.931 . S
C2643 H2631 0.929 . S
C2643 C2637 1.390 . S
C2643 C2640 1.386 . S
C2644 C2639 1.490 . S
C2644 C2646 1.395 . S
C2644 C2647 1.403 . S
H2645 C2651 0.930 . S
C2646 H2632 0.930 . S
C2646 C2644 1.395 . S
C2646 C2649 1.403 . S
C2647 C2644 1.403 . S
C2647 C2648 1.524 . S
C2647 C2651 1.400 . S
C2648 H2633 0.960 . S
C2648 H2634 0.960 . S
C2648 H2635 0.960 . S
C2648 C2647 1.524 . S
C2649 C2646 1.403 . S
C2649 C2650 1.392 . S
C2649 C2653 1.495 . S
C2650 C2649 1.392 . S
C2650 C2651 1.385 . S
C2650 C2652 1.478 . S
C2651 H2645 0.930 . S
C2651 C2647 1.400 . S
C2651 C2650 1.385 . S
C2652 C2650 1.478 . S
C2652 C2654 1.381 . S
C2652 C2658 1.383 . S
C2653 C2649 1.495 . S
C2653 H2659 0.959 . S
C2653 H2660 0.961 . S
C2653 H2661 0.960 . S
C2654 C2652 1.381 . S
C2654 C2655 1.394 . S
C2654 H2662 0.930 . S
C2655 C2654 1.394 . S
C2655 C2656 1.383 . S
C2655 H2663 0.929 . S
C2656 C2655 1.383 . S
C2656 C2657 1.377 . S
C2657 H2641 0.930 . S
C2657 C2656 1.377 . S
C2657 C2658 1.379 . S
C2658 H2642 0.931 . S
C2658 C2652 1.383 . S
C2658 C2657 1.379 . S
H2659 C2653 0.959 . S
H2660 C2653 0.961 . S
H2661 C2653 0.960 . S
H2662 C2654 0.930 . S
H2663 C2655 0.929 . S
H2664 C2672 0.929 . S
H2665 C2674 0.930 . S
H2666 C2676 0.930 . S
H2667 C2679 0.929 . S
H2668 C2682 0.930 . S
H2669 C2684 0.960 . S
H2670 C2684 0.960 . S
H2671 C2684 0.960 . S
C2672 H2664 0.929 . S
C2672 C2673 1.377 . S
C2672 C2674 1.384 . S
C2673 C2672 1.377 . S
C2673 C2679 1.390 . S
C2674 H2665 0.930 . S
C2674 C2672 1.384 . S
C2674 C2675 1.372 . S
C2675 C2674 1.372 . S
C2675 C2676 1.400 . S
C2675 C2680 1.490 . S
C2676 H2666 0.930 . S
C2676 C2675 1.400 . S
C2676 C2679 1.386 . S
H2677 C2693 0.930 . S
H2678 C2694 0.931 . S
C2679 H2667 0.929 . S
C2679 C2673 1.390 . S
C2679 C2676 1.386 . S
C2680 C2675 1.490 . S
C2680 C2682 1.395 . S
C2680 C2683 1.403 . S
H2681 C2687 0.930 . S
C2682 H2668 0.930 . S
C2682 C2680 1.395 . S
C2682 C2685 1.403 . S
C2683 C2680 1.403 . S
C2683 C2684 1.524 . S
C2683 C2687 1.400 . S
C2684 H2669 0.960 . S
C2684 H2670 0.960 . S
C2684 H2671 0.960 . S
C2684 C2683 1.524 . S
C2685 C2682 1.403 . S
C2685 C2686 1.392 . S
C2685 C2689 1.495 . S
C2686 C2685 1.392 . S
C2686 C2687 1.385 . S
C2686 C2688 1.478 . S
C2687 H2681 0.930 . S
C2687 C2683 1.400 . S
C2687 C2686 1.385 . S
C2688 C2686 1.478 . S
C2688 C2690 1.381 . S
C2688 C2694 1.383 . S
C2689 C2685 1.495 . S
C2689 H2695 0.959 . S
C2689 H2696 0.961 . S
C2689 H2697 0.960 . S
C2690 C2688 1.381 . S
C2690 C2691 1.394 . S
C2690 H2698 0.930 . S
C2691 C2690 1.394 . S
C2691 C2692 1.383 . S
C2691 H2699 0.929 . S
C2692 C2691 1.383 . S
C2692 C2693 1.377 . S
C2693 H2677 0.930 . S
C2693 C2692 1.377 . S
C2693 C2694 1.379 . S
C2694 H2678 0.931 . S
C2694 C2688 1.383 . S
C2694 C2693 1.379 . S
H2695 C2689 0.959 . S
H2696 C2689 0.961 . S
H2697 C2689 0.960 . S
H2698 C2690 0.930 . S
H2699 C2691 0.929 . S
H2700 C2708 0.929 . S
H2701 C2710 0.930 . S
H2702 C2712 0.930 . S
H2703 C2715 0.929 . S
H2704 C2718 0.930 . S
H2705 C2720 0.960 . S
H2706 C2720 0.960 . S
H2707 C2720 0.960 . S
C2708 H2700 0.929 . S
C2708 C2709 1.377 . S
C2708 C2710 1.384 . S
C2709 C2708 1.377 . S
C2709 C2715 1.390 . S
C2710 H2701 0.930 . S
C2710 C2708 1.384 . S
C2710 C2711 1.372 . S
C2711 C2710 1.372 . S
C2711 C2712 1.400 . S
C2711 C2716 1.490 . S
C2712 H2702 0.930 . S
C2712 C2711 1.400 . S
C2712 C2715 1.386 . S
H2713 C2729 0.930 . S
H2714 C2730 0.931 . S
C2715 H2703 0.929 . S
C2715 C2709 1.390 . S
C2715 C2712 1.386 . S
C2716 C2711 1.490 . S
C2716 C2718 1.395 . S
C2716 C2719 1.403 . S
H2717 C2723 0.930 . S
C2718 H2704 0.930 . S
C2718 C2716 1.395 . S
C2718 C2721 1.403 . S
C2719 C2716 1.403 . S
C2719 C2720 1.524 . S
C2719 C2723 1.400 . S
C2720 H2705 0.960 . S
C2720 H2706 0.960 . S
C2720 H2707 0.960 . S
C2720 C2719 1.524 . S
C2721 C2718 1.403 . S
C2721 C2722 1.392 . S
C2721 C2725 1.495 . S
C2722 C2721 1.392 . S
C2722 C2723 1.385 . S
C2722 C2724 1.478 . S
C2723 H2717 0.930 . S
C2723 C2719 1.400 . S
C2723 C2722 1.385 . S
C2724 C2722 1.478 . S
C2724 C2726 1.381 . S
C2724 C2730 1.383 . S
C2725 C2721 1.495 . S
C2725 H2731 0.959 . S
C2725 H2732 0.961 . S
C2725 H2733 0.960 . S
C2726 C2724 1.381 . S
C2726 C2727 1.394 . S
C2726 H2734 0.930 . S
C2727 C2726 1.394 . S
C2727 C2728 1.383 . S
C2727 H2735 0.929 . S
C2728 C2727 1.383 . S
C2728 C2729 1.377 . S
C2729 H2713 0.930 . S
C2729 C2728 1.377 . S
C2729 C2730 1.379 . S
C2730 H2714 0.931 . S
C2730 C2724 1.383 . S
C2730 C2729 1.379 . S
H2731 C2725 0.959 . S
H2732 C2725 0.961 . S
H2733 C2725 0.960 . S
H2734 C2726 0.930 . S
H2735 C2727 0.929 . S
H2736 C2744 0.929 . S
H2737 C2746 0.930 . S
H2738 C2748 0.930 . S
H2739 C2751 0.929 . S
H2740 C2754 0.930 . S
H2741 C2756 0.960 . S
H2742 C2756 0.960 . S
H2743 C2756 0.960 . S
C2744 H2736 0.929 . S
C2744 C2745 1.377 . S
C2744 C2746 1.384 . S
C2745 C2744 1.377 . S
C2745 C2751 1.390 . S
C2746 H2737 0.930 . S
C2746 C2744 1.384 . S
C2746 C2747 1.372 . S
C2747 C2746 1.372 . S
C2747 C2748 1.400 . S
C2747 C2752 1.490 . S
C2748 H2738 0.930 . S
C2748 C2747 1.400 . S
C2748 C2751 1.386 . S
H2749 C2765 0.930 . S
H2750 C2766 0.931 . S
C2751 H2739 0.929 . S
C2751 C2745 1.390 . S
C2751 C2748 1.386 . S
C2752 C2747 1.490 . S
C2752 C2754 1.395 . S
C2752 C2755 1.403 . S
H2753 C2759 0.930 . S
C2754 H2740 0.930 . S
C2754 C2752 1.395 . S
C2754 C2757 1.403 . S
C2755 C2752 1.403 . S
C2755 C2756 1.524 . S
C2755 C2759 1.400 . S
C2756 H2741 0.960 . S
C2756 H2742 0.960 . S
C2756 H2743 0.960 . S
C2756 C2755 1.524 . S
C2757 C2754 1.403 . S
C2757 C2758 1.392 . S
C2757 C2761 1.495 . S
C2758 C2757 1.392 . S
C2758 C2759 1.385 . S
C2758 C2760 1.478 . S
C2759 H2753 0.930 . S
C2759 C2755 1.400 . S
C2759 C2758 1.385 . S
C2760 C2758 1.478 . S
C2760 C2762 1.381 . S
C2760 C2766 1.383 . S
C2761 C2757 1.495 . S
C2761 H2767 0.959 . S
C2761 H2768 0.961 . S
C2761 H2769 0.960 . S
C2762 C2760 1.381 . S
C2762 C2763 1.394 . S
C2762 H2770 0.930 . S
C2763 C2762 1.394 . S
C2763 C2764 1.383 . S
C2763 H2771 0.929 . S
C2764 C2763 1.383 . S
C2764 C2765 1.377 . S
C2765 H2749 0.930 . S
C2765 C2764 1.377 . S
C2765 C2766 1.379 . S
C2766 H2750 0.931 . S
C2766 C2760 1.383 . S
C2766 C2765 1.379 . S
H2767 C2761 0.959 . S
H2768 C2761 0.961 . S
H2769 C2761 0.960 . S
H2770 C2762 0.930 . S
H2771 C2763 0.929 . S
H2772 C2780 0.929 . S
H2773 C2782 0.930 . S
H2774 C2784 0.930 . S
H2775 C2787 0.929 . S
H2776 C2790 0.930 . S
H2777 C2792 0.960 . S
H2778 C2792 0.960 . S
H2779 C2792 0.960 . S
C2780 H2772 0.929 . S
C2780 C2781 1.377 . S
C2780 C2782 1.384 . S
C2781 C2780 1.377 . S
C2781 C2787 1.390 . S
C2782 H2773 0.930 . S
C2782 C2780 1.384 . S
C2782 C2783 1.372 . S
C2783 C2782 1.372 . S
C2783 C2784 1.400 . S
C2783 C2788 1.490 . S
C2784 H2774 0.930 . S
C2784 C2783 1.400 . S
C2784 C2787 1.386 . S
H2785 C2801 0.930 . S
H2786 C2802 0.931 . S
C2787 H2775 0.929 . S
C2787 C2781 1.390 . S
C2787 C2784 1.386 . S
C2788 C2783 1.490 . S
C2788 C2790 1.395 . S
C2788 C2791 1.403 . S
H2789 C2795 0.930 . S
C2790 H2776 0.930 . S
C2790 C2788 1.395 . S
C2790 C2793 1.403 . S
C2791 C2788 1.403 . S
C2791 C2792 1.524 . S
C2791 C2795 1.400 . S
C2792 H2777 0.960 . S
C2792 H2778 0.960 . S
C2792 H2779 0.960 . S
C2792 C2791 1.524 . S
C2793 C2790 1.403 . S
C2793 C2794 1.392 . S
C2793 C2797 1.495 . S
C2794 C2793 1.392 . S
C2794 C2795 1.385 . S
C2794 C2796 1.478 . S
C2795 H2789 0.930 . S
C2795 C2791 1.400 . S
C2795 C2794 1.385 . S
C2796 C2794 1.478 . S
C2796 C2798 1.381 . S
C2796 C2802 1.383 . S
C2797 C2793 1.495 . S
C2797 H2803 0.959 . S
C2797 H2804 0.961 . S
C2797 H2805 0.960 . S
C2798 C2796 1.381 . S
C2798 C2799 1.394 . S
C2798 H2806 0.930 . S
C2799 C2798 1.394 . S
C2799 C2800 1.383 . S
C2799 H2807 0.929 . S
C2800 C2799 1.383 . S
C2800 C2801 1.377 . S
C2801 H2785 0.930 . S
C2801 C2800 1.377 . S
C2801 C2802 1.379 . S
C2802 H2786 0.931 . S
C2802 C2796 1.383 . S
C2802 C2801 1.379 . S
H2803 C2797 0.959 . S
H2804 C2797 0.961 . S
H2805 C2797 0.960 . S
H2806 C2798 0.930 . S
H2807 C2799 0.929 . S
H2808 C2816 0.929 . S
H2809 C2818 0.930 . S
H2810 C2820 0.930 . S
H2811 C2823 0.929 . S
H2812 C2826 0.930 . S
H2813 C2828 0.960 . S
H2814 C2828 0.960 . S
H2815 C2828 0.960 . S
C2816 H2808 0.929 . S
C2816 C2817 1.377 . S
C2816 C2818 1.384 . S
C2817 C2816 1.377 . S
C2817 C2823 1.390 . S
C2818 H2809 0.930 . S
C2818 C2816 1.384 . S
C2818 C2819 1.372 . S
C2819 C2818 1.372 . S
C2819 C2820 1.400 . S
C2819 C2824 1.490 . S
C2820 H2810 0.930 . S
C2820 C2819 1.400 . S
C2820 C2823 1.386 . S
H2821 C2837 0.930 . S
H2822 C2838 0.931 . S
C2823 H2811 0.929 . S
C2823 C2817 1.390 . S
C2823 C2820 1.386 . S
C2824 C2819 1.490 . S
C2824 C2826 1.395 . S
C2824 C2827 1.403 . S
H2825 C2831 0.930 . S
C2826 H2812 0.930 . S
C2826 C2824 1.395 . S
C2826 C2829 1.403 . S
C2827 C2824 1.403 . S
C2827 C2828 1.524 . S
C2827 C2831 1.400 . S
C2828 H2813 0.960 . S
C2828 H2814 0.960 . S
C2828 H2815 0.960 . S
C2828 C2827 1.524 . S
C2829 C2826 1.403 . S
C2829 C2830 1.392 . S
C2829 C2833 1.495 . S
C2830 C2829 1.392 . S
C2830 C2831 1.385 . S
C2830 C2832 1.478 . S
C2831 H2825 0.930 . S
C2831 C2827 1.400 . S
C2831 C2830 1.385 . S
C2832 C2830 1.478 . S
C2832 C2834 1.381 . S
C2832 C2838 1.383 . S
C2833 C2829 1.495 . S
C2833 H2839 0.959 . S
C2833 H2840 0.961 . S
C2833 H2841 0.960 . S
C2834 C2832 1.381 . S
C2834 C2835 1.394 . S
C2834 H2842 0.930 . S
C2835 C2834 1.394 . S
C2835 C2836 1.383 . S
C2835 H2843 0.929 . S
C2836 C2835 1.383 . S
C2836 C2837 1.377 . S
C2837 H2821 0.930 . S
C2837 C2836 1.377 . S
C2837 C2838 1.379 . S
C2838 H2822 0.931 . S
C2838 C2832 1.383 . S
C2838 C2837 1.379 . S
H2839 C2833 0.959 . S
H2840 C2833 0.961 . S
H2841 C2833 0.960 . S
H2842 C2834 0.930 . S
H2843 C2835 0.929 . S
H2844 C2852 0.929 . S
H2845 C2854 0.930 . S
H2846 C2856 0.930 . S
H2847 C2859 0.929 . S
H2848 C2862 0.930 . S
H2849 C2864 0.960 . S
H2850 C2864 0.960 . S
H2851 C2864 0.960 . S
C2852 H2844 0.929 . S
C2852 C2853 1.377 . S
C2852 C2854 1.384 . S
C2853 C2852 1.377 . S
C2853 C2859 1.390 . S
C2854 H2845 0.930 . S
C2854 C2852 1.384 . S
C2854 C2855 1.372 . S
C2855 C2854 1.372 . S
C2855 C2856 1.400 . S
C2855 C2860 1.490 . S
C2856 H2846 0.930 . S
C2856 C2855 1.400 . S
C2856 C2859 1.386 . S
H2857 C2873 0.930 . S
H2858 C2874 0.931 . S
C2859 H2847 0.929 . S
C2859 C2853 1.390 . S
C2859 C2856 1.386 . S
C2860 C2855 1.490 . S
C2860 C2862 1.395 . S
C2860 C2863 1.403 . S
H2861 C2867 0.930 . S
C2862 H2848 0.930 . S
C2862 C2860 1.395 . S
C2862 C2865 1.403 . S
C2863 C2860 1.403 . S
C2863 C2864 1.524 . S
C2863 C2867 1.400 . S
C2864 H2849 0.960 . S
C2864 H2850 0.960 . S
C2864 H2851 0.960 . S
C2864 C2863 1.524 . S
C2865 C2862 1.403 . S
C2865 C2866 1.392 . S
C2865 C2869 1.495 . S
C2866 C2865 1.392 . S
C2866 C2867 1.385 . S
C2866 C2868 1.478 . S
C2867 H2861 0.930 . S
C2867 C2863 1.400 . S
C2867 C2866 1.385 . S
C2868 C2866 1.478 . S
C2868 C2870 1.381 . S
C2868 C2874 1.383 . S
C2869 C2865 1.495 . S
C2869 H2875 0.959 . S
C2869 H2876 0.961 . S
C2869 H2877 0.960 . S
C2870 C2868 1.381 . S
C2870 C2871 1.394 . S
C2870 H2878 0.930 . S
C2871 C2870 1.394 . S
C2871 C2872 1.383 . S
C2871 H2879 0.929 . S
C2872 C2871 1.383 . S
C2872 C2873 1.377 . S
C2873 H2857 0.930 . S
C2873 C2872 1.377 . S
C2873 C2874 1.379 . S
C2874 H2858 0.931 . S
C2874 C2868 1.383 . S
C2874 C2873 1.379 . S
H2875 C2869 0.959 . S
H2876 C2869 0.961 . S
H2877 C2869 0.960 . S
H2878 C2870 0.930 . S
H2879 C2871 0.929 . S
H2880 C2888 0.929 . S
H2881 C2890 0.930 . S
H2882 C2892 0.930 . S
H2883 C2895 0.929 . S
H2884 C2898 0.930 . S
H2885 C2900 0.960 . S
H2886 C2900 0.960 . S
H2887 C2900 0.960 . S
C2888 H2880 0.929 . S
C2888 C2889 1.377 . S
C2888 C2890 1.384 . S
C2889 C2888 1.377 . S
C2889 C2895 1.390 . S
C2890 H2881 0.930 . S
C2890 C2888 1.384 . S
C2890 C2891 1.372 . S
C2891 C2890 1.372 . S
C2891 C2892 1.400 . S
C2891 C2896 1.490 . S
C2892 H2882 0.930 . S
C2892 C2891 1.400 . S
C2892 C2895 1.386 . S
H2893 C2909 0.930 . S
H2894 C2910 0.931 . S
C2895 H2883 0.929 . S
C2895 C2889 1.390 . S
C2895 C2892 1.386 . S
C2896 C2891 1.490 . S
C2896 C2898 1.395 . S
C2896 C2899 1.403 . S
H2897 C2903 0.930 . S
C2898 H2884 0.930 . S
C2898 C2896 1.395 . S
C2898 C2901 1.403 . S
C2899 C2896 1.403 . S
C2899 C2900 1.524 . S
C2899 C2903 1.400 . S
C2900 H2885 0.960 . S
C2900 H2886 0.960 . S
C2900 H2887 0.960 . S
C2900 C2899 1.524 . S
C2901 C2898 1.403 . S
C2901 C2902 1.392 . S
C2901 C2905 1.495 . S
C2902 C2901 1.392 . S
C2902 C2903 1.385 . S
C2902 C2904 1.478 . S
C2903 H2897 0.930 . S
C2903 C2899 1.400 . S
C2903 C2902 1.385 . S
C2904 C2902 1.478 . S
C2904 C2906 1.381 . S
C2904 C2910 1.383 . S
C2905 C2901 1.495 . S
C2905 H2911 0.959 . S
C2905 H2912 0.961 . S
C2905 H2913 0.960 . S
C2906 C2904 1.381 . S
C2906 C2907 1.394 . S
C2906 H2914 0.930 . S
C2907 C2906 1.394 . S
C2907 C2908 1.383 . S
C2907 H2915 0.929 . S
C2908 C2907 1.383 . S
C2908 C2909 1.377 . S
C2909 H2893 0.930 . S
C2909 C2908 1.377 . S
C2909 C2910 1.379 . S
C2910 H2894 0.931 . S
C2910 C2904 1.383 . S
C2910 C2909 1.379 . S
H2911 C2905 0.959 . S
H2912 C2905 0.961 . S
H2913 C2905 0.960 . S
H2914 C2906 0.930 . S
H2915 C2907 0.929 . S
H2916 C2924 0.929 . S
H2917 C2926 0.930 . S
H2918 C2928 0.930 . S
H2919 C2931 0.929 . S
H2920 C2934 0.930 . S
H2921 C2936 0.960 . S
H2922 C2936 0.960 . S
H2923 C2936 0.960 . S
C2924 H2916 0.929 . S
C2924 C2925 1.377 . S
C2924 C2926 1.384 . S
C2925 C2924 1.377 . S
C2925 C2931 1.390 . S
C2926 H2917 0.930 . S
C2926 C2924 1.384 . S
C2926 C2927 1.372 . S
C2927 C2926 1.372 . S
C2927 C2928 1.400 . S
C2927 C2932 1.490 . S
C2928 H2918 0.930 . S
C2928 C2927 1.400 . S
C2928 C2931 1.386 . S
H2929 C2945 0.930 . S
H2930 C2946 0.931 . S
C2931 H2919 0.929 . S
C2931 C2925 1.390 . S
C2931 C2928 1.386 . S
C2932 C2927 1.490 . S
C2932 C2934 1.395 . S
C2932 C2935 1.403 . S
H2933 C2939 0.930 . S
C2934 H2920 0.930 . S
C2934 C2932 1.395 . S
C2934 C2937 1.403 . S
C2935 C2932 1.403 . S
C2935 C2936 1.524 . S
C2935 C2939 1.400 . S
C2936 H2921 0.960 . S
C2936 H2922 0.960 . S
C2936 H2923 0.960 . S
C2936 C2935 1.524 . S
C2937 C2934 1.403 . S
C2937 C2938 1.392 . S
C2937 C2941 1.495 . S
C2938 C2937 1.392 . S
C2938 C2939 1.385 . S
C2938 C2940 1.478 . S
C2939 H2933 0.930 . S
C2939 C2935 1.400 . S
C2939 C2938 1.385 . S
C2940 C2938 1.478 . S
C2940 C2942 1.381 . S
C2940 C2946 1.383 . S
C2941 C2937 1.495 . S
C2941 H2947 0.959 . S
C2941 H2948 0.961 . S
C2941 H2949 0.960 . S
C2942 C2940 1.381 . S
C2942 C2943 1.394 . S
C2942 H2950 0.930 . S
C2943 C2942 1.394 . S
C2943 C2944 1.383 . S
C2943 H2951 0.929 . S
C2944 C2943 1.383 . S
C2944 C2945 1.377 . S
C2945 H2929 0.930 . S
C2945 C2944 1.377 . S
C2945 C2946 1.379 . S
C2946 H2930 0.931 . S
C2946 C2940 1.383 . S
C2946 C2945 1.379 . S
H2947 C2941 0.959 . S
H2948 C2941 0.961 . S
H2949 C2941 0.960 . S
H2950 C2942 0.930 . S
H2951 C2943 0.929 . S
H2952 C2960 0.929 . S
H2953 C2962 0.930 . S
H2954 C2964 0.930 . S
H2955 C2967 0.929 . S
H2956 C2970 0.930 . S
H2957 C2972 0.960 . S
H2958 C2972 0.960 . S
H2959 C2972 0.960 . S
C2960 H2952 0.929 . S
C2960 C2961 1.377 . S
C2960 C2962 1.384 . S
C2961 C2960 1.377 . S
C2961 C2967 1.390 . S
C2962 H2953 0.930 . S
C2962 C2960 1.384 . S
C2962 C2963 1.372 . S
C2963 C2962 1.372 . S
C2963 C2964 1.400 . S
C2963 C2968 1.490 . S
C2964 H2954 0.930 . S
C2964 C2963 1.400 . S
C2964 C2967 1.386 . S
H2965 C2981 0.930 . S
H2966 C2982 0.931 . S
C2967 H2955 0.929 . S
C2967 C2961 1.390 . S
C2967 C2964 1.386 . S
C2968 C2963 1.490 . S
C2968 C2970 1.395 . S
C2968 C2971 1.403 . S
H2969 C2975 0.930 . S
C2970 H2956 0.930 . S
C2970 C2968 1.395 . S
C2970 C2973 1.403 . S
C2971 C2968 1.403 . S
C2971 C2972 1.524 . S
C2971 C2975 1.400 . S
C2972 H2957 0.960 . S
C2972 H2958 0.960 . S
C2972 H2959 0.960 . S
C2972 C2971 1.524 . S
C2973 C2970 1.403 . S
C2973 C2974 1.392 . S
C2973 C2977 1.495 . S
C2974 C2973 1.392 . S
C2974 C2975 1.385 . S
C2974 C2976 1.478 . S
C2975 H2969 0.930 . S
C2975 C2971 1.400 . S
C2975 C2974 1.385 . S
C2976 C2974 1.478 . S
C2976 C2978 1.381 . S
C2976 C2982 1.383 . S
C2977 C2973 1.495 . S
C2977 H2983 0.959 . S
C2977 H2984 0.961 . S
C2977 H2985 0.960 . S
C2978 C2976 1.381 . S
C2978 C2979 1.394 . S
C2978 H2986 0.930 . S
C2979 C2978 1.394 . S
C2979 C2980 1.383 . S
C2979 H2987 0.929 . S
C2980 C2979 1.383 . S
C2980 C2981 1.377 . S
C2981 H2965 0.930 . S
C2981 C2980 1.377 . S
C2981 C2982 1.379 . S
C2982 H2966 0.931 . S
C2982 C2976 1.383 . S
C2982 C2981 1.379 . S
H2983 C2977 0.959 . S
H2984 C2977 0.961 . S
H2985 C2977 0.960 . S
H2986 C2978 0.930 . S
H2987 C2979 0.929 . S
H2988 C2996 0.929 . S
H2989 C2998 0.930 . S
H2990 C3000 0.930 . S
H2991 C3003 0.929 . S
H2992 C3006 0.930 . S
H2993 C3008 0.960 . S
H2994 C3008 0.960 . S
H2995 C3008 0.960 . S
C2996 H2988 0.929 . S
C2996 C2997 1.377 . S
C2996 C2998 1.384 . S
C2997 C2996 1.377 . S
C2997 C3003 1.390 . S
C2998 H2989 0.930 . S
C2998 C2996 1.384 . S
C2998 C2999 1.372 . S
C2999 C2998 1.372 . S
C2999 C3000 1.400 . S
C2999 C3004 1.490 . S
C3000 H2990 0.930 . S
C3000 C2999 1.400 . S
C3000 C3003 1.386 . S
H3001 C3017 0.930 . S
H3002 C3018 0.931 . S
C3003 H2991 0.929 . S
C3003 C2997 1.390 . S
C3003 C3000 1.386 . S
C3004 C2999 1.490 . S
C3004 C3006 1.395 . S
C3004 C3007 1.403 . S
H3005 C3011 0.930 . S
C3006 H2992 0.930 . S
C3006 C3004 1.395 . S
C3006 C3009 1.403 . S
C3007 C3004 1.403 . S
C3007 C3008 1.524 . S
C3007 C3011 1.400 . S
C3008 H2993 0.960 . S
C3008 H2994 0.960 . S
C3008 H2995 0.960 . S
C3008 C3007 1.524 . S
C3009 C3006 1.403 . S
C3009 C3010 1.392 . S
C3009 C3013 1.495 . S
C3010 C3009 1.392 . S
C3010 C3011 1.385 . S
C3010 C3012 1.478 . S
C3011 H3005 0.930 . S
C3011 C3007 1.400 . S
C3011 C3010 1.385 . S
C3012 C3010 1.478 . S
C3012 C3014 1.381 . S
C3012 C3018 1.383 . S
C3013 C3009 1.495 . S
C3013 H3019 0.959 . S
C3013 H3020 0.961 . S
C3013 H3021 0.960 . S
C3014 C3012 1.381 . S
C3014 C3015 1.394 . S
C3014 H3022 0.930 . S
C3015 C3014 1.394 . S
C3015 C3016 1.383 . S
C3015 H3023 0.929 . S
C3016 C3015 1.383 . S
C3016 C3017 1.377 . S
C3017 H3001 0.930 . S
C3017 C3016 1.377 . S
C3017 C3018 1.379 . S
C3018 H3002 0.931 . S
C3018 C3012 1.383 . S
C3018 C3017 1.379 . S
H3019 C3013 0.959 . S
H3020 C3013 0.961 . S
H3021 C3013 0.960 . S
H3022 C3014 0.930 . S
H3023 C3015 0.929 . S
H3024 C3032 0.929 . S
H3025 C3034 0.930 . S
H3026 C3036 0.930 . S
H3027 C3039 0.929 . S
H3028 C3042 0.930 . S
H3029 C3044 0.960 . S
H3030 C3044 0.960 . S
H3031 C3044 0.960 . S
C3032 H3024 0.929 . S
C3032 C3033 1.377 . S
C3032 C3034 1.384 . S
C3033 C3032 1.377 . S
C3033 C3039 1.390 . S
C3034 H3025 0.930 . S
C3034 C3032 1.384 . S
C3034 C3035 1.372 . S
C3035 C3034 1.372 . S
C3035 C3036 1.400 . S
C3035 C3040 1.490 . S
C3036 H3026 0.930 . S
C3036 C3035 1.400 . S
C3036 C3039 1.386 . S
H3037 C3053 0.930 . S
H3038 C3054 0.931 . S
C3039 H3027 0.929 . S
C3039 C3033 1.390 . S
C3039 C3036 1.386 . S
C3040 C3035 1.490 . S
C3040 C3042 1.395 . S
C3040 C3043 1.403 . S
H3041 C3047 0.930 . S
C3042 H3028 0.930 . S
C3042 C3040 1.395 . S
C3042 C3045 1.403 . S
C3043 C3040 1.403 . S
C3043 C3044 1.524 . S
C3043 C3047 1.400 . S
C3044 H3029 0.960 . S
C3044 H3030 0.960 . S
C3044 H3031 0.960 . S
C3044 C3043 1.524 . S
C3045 C3042 1.403 . S
C3045 C3046 1.392 . S
C3045 C3049 1.495 . S
C3046 C3045 1.392 . S
C3046 C3047 1.385 . S
C3046 C3048 1.478 . S
C3047 H3041 0.930 . S
C3047 C3043 1.400 . S
C3047 C3046 1.385 . S
C3048 C3046 1.478 . S
C3048 C3050 1.381 . S
C3048 C3054 1.383 . S
C3049 C3045 1.495 . S
C3049 H3055 0.959 . S
C3049 H3056 0.961 . S
C3049 H3057 0.960 . S
C3050 C3048 1.381 . S
C3050 C3051 1.394 . S
C3050 H3058 0.930 . S
C3051 C3050 1.394 . S
C3051 C3052 1.383 . S
C3051 H3059 0.929 . S
C3052 C3051 1.383 . S
C3052 C3053 1.377 . S
C3053 H3037 0.930 . S
C3053 C3052 1.377 . S
C3053 C3054 1.379 . S
C3054 H3038 0.931 . S
C3054 C3048 1.383 . S
C3054 C3053 1.379 . S
H3055 C3049 0.959 . S
H3056 C3049 0.961 . S
H3057 C3049 0.960 . S
H3058 C3050 0.930 . S
H3059 C3051 0.929 . S
H3060 C3068 0.929 . S
H3061 C3070 0.930 . S
H3062 C3072 0.930 . S
H3063 C3075 0.929 . S
H3064 C3078 0.930 . S
H3065 C3080 0.960 . S
H3066 C3080 0.960 . S
H3067 C3080 0.960 . S
C3068 H3060 0.929 . S
C3068 C3069 1.377 . S
C3068 C3070 1.384 . S
C3069 C3068 1.377 . S
C3069 C3075 1.390 . S
C3070 H3061 0.930 . S
C3070 C3068 1.384 . S
C3070 C3071 1.372 . S
C3071 C3070 1.372 . S
C3071 C3072 1.400 . S
C3071 C3076 1.490 . S
C3072 H3062 0.930 . S
C3072 C3071 1.400 . S
C3072 C3075 1.386 . S
H3073 C3089 0.930 . S
H3074 C3090 0.931 . S
C3075 H3063 0.929 . S
C3075 C3069 1.390 . S
C3075 C3072 1.386 . S
C3076 C3071 1.490 . S
C3076 C3078 1.395 . S
C3076 C3079 1.403 . S
H3077 C3083 0.930 . S
C3078 H3064 0.930 . S
C3078 C3076 1.395 . S
C3078 C3081 1.403 . S
C3079 C3076 1.403 . S
C3079 C3080 1.524 . S
C3079 C3083 1.400 . S
C3080 H3065 0.960 . S
C3080 H3066 0.960 . S
C3080 H3067 0.960 . S
C3080 C3079 1.524 . S
C3081 C3078 1.403 . S
C3081 C3082 1.392 . S
C3081 C3085 1.495 . S
C3082 C3081 1.392 . S
C3082 C3083 1.385 . S
C3082 C3084 1.478 . S
C3083 H3077 0.930 . S
C3083 C3079 1.400 . S
C3083 C3082 1.385 . S
C3084 C3082 1.478 . S
C3084 C3086 1.381 . S
C3084 C3090 1.383 . S
C3085 C3081 1.495 . S
C3085 H3091 0.959 . S
C3085 H3092 0.961 . S
C3085 H3093 0.960 . S
C3086 C3084 1.381 . S
C3086 C3087 1.394 . S
C3086 H3094 0.930 . S
C3087 C3086 1.394 . S
C3087 C3088 1.383 . S
C3087 H3095 0.929 . S
C3088 C3087 1.383 . S
C3088 C3089 1.377 . S
C3089 H3073 0.930 . S
C3089 C3088 1.377 . S
C3089 C3090 1.379 . S
C3090 H3074 0.931 . S
C3090 C3084 1.383 . S
C3090 C3089 1.379 . S
H3091 C3085 0.959 . S
H3092 C3085 0.961 . S
H3093 C3085 0.960 . S
H3094 C3086 0.930 . S
H3095 C3087 0.929 . S
C513 C36 1.203 . S
C532 C256 1.074 . S
C549 C13 1.134 1_545 S
C568 C272 1.034 . S
C604 C255 1.168 . S
C585 C22 1.234 . S
C640 C280 1.090 . S
C621 C41 1.135 . S
C657 C8 1.206 . S
C676 C289 1.103 1_565 S
C712 C292 1.069 . S
C693 C27 1.107 1_455 S
C729 C78 1.205 . S
C748 C298 1.050 . S
C784 C314 1.099 . S
C765 C55 1.129 . S
C820 C297 1.175 . S
C801 C64 1.219 . S
C837 C83 1.140 . S
C856 C322 1.091 . S
C892 C331 1.118 . S
C873 C50 1.196 . S
C928 C334 1.018 . S
C909 C69 1.107 . S
C964 C343 1.137 . S
C945 C120 1.206 . S
C1000 C355 0.975 . S
C981 C97 1.136 . S
C1036 C352 1.081 . S
C1017 C106 1.220 . S
C1053 C125 1.133 . S
C1072 C361 1.045 . S
C1108 C360 1.046 . S
C1089 C92 1.194 . S
C1125 C111 1.118 . S
C1144 C377 1.041 . S
C1180 C382 1.154 . S
C1161 C162 1.189 . S
C1216 C398 1.098 . S
C1197 C139 1.127 . S
C1233 C148 1.225 . S
C1252 C381 1.151 . S
C1288 C406 0.983 1_554 S
C1269 C167 1.146 . S
C1324 C415 1.032 1_554 S
C1305 C134 1.207 . S
C1341 C153 1.109 . S
C1360 C418 1.065 . S
C1377 C204 1.190 . S
C1396 C427 1.103 . S
C1432 C439 0.978 . S
C1413 C181 1.137 . S
C1468 C436 1.082 . S
C1449 C190 1.220 . S
C1485 C209 1.145 . S
C1504 C445 1.020 1_556 S
C1540 C444 1.130 1_556 S
C1521 C176 1.194 . S
C1557 C195 1.107 . S
C1576 C461 1.082 . S
C1612 C466 1.158 . S
C1593 C246 1.189 . S
C1648 C482 1.069 . S
C1629 C223 1.136 . S
C1665 C232 1.219 . S
C1684 C465 1.174 . S
C1720 C487 0.965 . S
C1701 C251 1.141 . S
C1756 C486 1.162 . S
C1737 C218 1.191 . S
C1792 C503 1.085 . S
C1773 C237 1.114 . S
C1828 C268 1.382 . S
C1809 C161 1.466 . S
C1845 C137 1.494 . S
C1864 C271 1.427 1_655 S
C1900 C259 1.332 . S
C1881 C147 1.464 . S
C1917 C249 1.426 . S
C1936 C276 1.371 . S
C1953 C217 1.365 . S
C1972 C277 1.283 . S
C2008 C293 1.350 . S
C1989 C235 1.439 . S
C2044 C310 1.341 1_565 S
C2025 C203 1.467 . S
C2080 C313 1.409 . S
C2061 C179 1.496 . S
C2097 C189 1.465 . S
C2116 C301 1.348 . S
C2152 C318 1.373 . S
C2133 C123 1.430 . S
C2169 C91 1.367 . S
C2188 C319 1.245 . S
C2205 C109 1.438 . S
C2224 C335 1.315 . S
C2241 C245 1.464 1_655 S
C2260 C339 1.342 . S
C2277 C221 1.497 . S
C2296 C356 1.409 . S
C2332 C340 1.402 . S
C2313 C231 1.468 . S
C2368 C373 1.376 . S
C2349 C81 1.427 . S
C2404 C364 1.297 . S
C2385 C49 1.367 . S
C2421 C67 1.440 . S
C2440 C376 1.377 . S
C2476 C394 1.381 . S
C2457 C35 1.463 . S
C2512 C397 1.383 . S
C2493 C11 1.495 . S
C2529 C21 1.465 . S
C2548 C385 1.350 . S
C2584 C402 1.307 . S
C2565 C207 1.427 . S
C2620 C403 1.239 . S
C2601 C175 1.363 1_655 S
C2656 C419 1.321 . S
C2637 C193 1.438 . S
C2692 C423 1.407 . S
C2673 C77 1.468 . S
C2728 C440 1.424 . S
C2709 C53 1.494 . S
C2745 C63 1.466 . S
C2764 C424 1.361 . S
C2781 C165 1.427 1_565 S
C2800 C457 1.326 . S
C2817 C133 1.365 . S
C2836 C448 1.290 . S
C2872 C460 1.314 . S
C2853 C151 1.442 . S
C2889 C119 1.466 . S
C2908 C478 1.334 . S
C2925 C95 1.494 . S
C2944 C481 1.369 . S
C2980 C469 1.344 . S
C2961 C105 1.465 1_565 S
C3016 C499 1.316 . S
C2997 C39 1.427 . S
C3052 C490 1.284 . S
C3033 C7 1.366 . S
C3069 C25 1.441 . S
C3088 C502 1.363 . S
