# Generated by pormake.
# Topology pth, (4,4)-cn, num edge types: 1
# Building blocks:
#     Node 0, Type 0, BuildingBlock: KUFVIS_clean_sbu_0, # of connection points: 4
#     Node 1, Type 0, BuildingBlock: KUFVIS_clean_sbu_0, # of connection points: 4
#     Node 2, Type 0, BuildingBlock: KUFVIS_clean_sbu_0, # of connection points: 4
#     Node 3, Type 1, BuildingBlock: NAWXER_clean_sbu_0, # of connection points: 4
#     Node 4, Type 1, BuildingBlock: NAWXER_clean_sbu_0, # of connection points: 4
#     Node 5, Type 1, BuildingBlock: NAWXER_clean_sbu_0, # of connection points: 4
#     Edge 6, Type (0, 1), BuildingBlock: KIFKEQ_clean_linker_1, # of connection points: 2
#     Edge 7, Type (0, 1), BuildingBlock: KIFKEQ_clean_linker_1, # of connection points: 2
#     Edge 8, Type (0, 1), BuildingBlock: KIFKEQ_clean_linker_1, # of connection points: 2
#     Edge 9, Type (0, 1), BuildingBlock: KIFKEQ_clean_linker_1, # of connection points: 2
#     Edge 10, Type (0, 1), BuildingBlock: KIFKEQ_clean_linker_1, # of connection points: 2
#     Edge 11, Type (0, 1), BuildingBlock: KIFKEQ_clean_linker_1, # of connection points: 2
#     Edge 12, Type (0, 1), BuildingBlock: KIFKEQ_clean_linker_1, # of connection points: 2
#     Edge 13, Type (0, 1), BuildingBlock: KIFKEQ_clean_linker_1, # of connection points: 2
#     Edge 14, Type (0, 1), BuildingBlock: KIFKEQ_clean_linker_1, # of connection points: 2
#     Edge 15, Type (0, 1), BuildingBlock: KIFKEQ_clean_linker_1, # of connection points: 2
#     Edge 16, Type (0, 1), BuildingBlock: KIFKEQ_clean_linker_1, # of connection points: 2
#     Edge 17, Type (0, 1), BuildingBlock: KIFKEQ_clean_linker_1, # of connection points: 2
# Relax obj value: 0.009
# Max RMSD: 0.080
# Mean RMSD: 0.046
data_MOF--net-pth--node1-KUFVIS_clean_sbu_0--node2-NAWXER_clean_sbu_0--edge1-KIFKEQ_clean_linker_1
_symmetry_space_group_name_H-M    P1
_symmetry_Int_Tables_number       1
_symmetry_cell_setting            triclinic
loop_
_symmetry_equiv_pos_as_xyz
'x, y, z'
_cell_length_a     22.857769
_cell_length_b     22.833058
_cell_length_c     58.433746
_cell_angle_alpha  90.374211
_cell_angle_beta   91.675167
_cell_angle_gamma 119.88426
loop_
_atom_site_label
_atom_site_type_symbol
_atom_site_fract_x
_atom_site_fract_y
_atom_site_fract_z
_atom_type_partial_charge
Mn0 Mn 0.05698 0.11286 0.06944 0.0
Mn1 Mn 0.99693 0.1934 0.03643 0.0
C2 C 0.98436 0.05714 0.03847 0.0
C3 C 0.04644 0.04494 0.10063 0.0
C4 C 0.13853 0.21492 0.03289 0.0
O5 O 0.07738 0.19502 0.08955 0.0
O6 O 0.0329 0.24234 0.06634 0.0
C7 C 0.88127 0.169 0.06435 0.0
N8 N 0.90564 0.16344 0.04395 0.0
C9 C 0.79408 0.10699 0.02621 0.0
C10 C 0.76783 0.11252 0.047 0.0
C11 C 0.81162 0.14357 0.06615 0.0
C12 C 0.86396 0.13361 0.02542 0.0
H13 H 0.91473 0.19251 0.07914 0.0
C14 C 0.06321 0.24136 0.08503 0.0
O15 O 0.1045 0.08306 0.09164 0.0
O16 O 0.9956 0.04926 0.09232 0.0
N17 N 0.9603 0.15173 1.00701 0.0
C18 C 0.99345 0.14843 0.98847 0.0
C19 C 0.95672 0.11759 0.968 0.0
C20 C 0.88648 0.09107 0.96674 0.0
C21 C 0.85366 0.09615 0.98592 0.0
C22 C 0.89299 0.12795 1.00579 0.0
H23 H 0.04742 0.16863 0.98936 0.0
O24 O 0.02359 0.03614 0.04684 0.0
O25 O 0.98829 0.10996 0.04857 0.0
O26 O 0.13412 0.17375 0.04839 0.0
O27 O 0.09026 0.22567 0.02728 0.0
C28 C 0.78333 0.06985 0.98622 0.0
C29 C 0.75355 0.07515 1.00637 0.0
H30 H 0.71409 0.09264 0.04849 0.0
H31 H 0.7917 0.14772 0.08228 0.0
H32 H 0.98243 0.11398 0.95326 0.0
H33 H 0.85822 0.06667 0.951 0.0
H34 H 0.75158 0.04474 0.97114 0.0
H35 H 0.69933 0.05402 1.00648 0.0
Mn36 Mn 0.04961 0.11252 0.40284 0.0
Mn37 Mn 0.14463 0.25618 0.43339 0.0
C38 C 0.11303 0.11221 0.43411 0.0
C39 C 0.04965 0.04704 0.37172 0.0
C40 C 0.99331 0.16849 0.43861 0.0
O41 O 0.04972 0.18311 0.38211 0.0
O42 O 0.11666 0.2773 0.40315 0.0
C43 C 0.26298 0.31409 0.404 0.0
N44 N 0.23615 0.29248 0.42485 0.0
C45 C 0.34395 0.3171 0.44136 0.0
C46 C 0.37286 0.34014 0.4201 0.0
C47 C 0.33216 0.33856 0.40134 0.0
C48 C 0.27483 0.29377 0.44302 0.0
H49 H 0.23173 0.31239 0.3895 0.0
C50 C 0.07942 0.2469 0.38526 0.0
O51 O 0.99283 0.03731 0.37965 0.0
O52 O 0.10399 0.09509 0.38132 0.0
N53 N 0.17519 0.24375 0.46284 0.0
C54 C 0.13894 0.21718 0.4819 0.0
C55 C 0.17189 0.21363 0.50207 0.0
C56 C 0.24171 0.23772 0.50246 0.0
C57 C 0.27808 0.26565 0.48272 0.0
C58 C 0.24263 0.26841 0.46318 0.0
H59 H 0.08519 0.19815 0.48164 0.0
O60 O 0.06302 0.05624 0.42593 0.0
O61 O 0.12511 0.16667 0.42334 0.0
O62 O 0.98245 0.122 0.42372 0.0
O63 O 0.05166 0.21967 0.44319 0.0
C64 C 0.34786 0.28971 0.48153 0.0
C65 C 0.38076 0.31531 0.46086 0.0
H66 H 0.42611 0.35863 0.41794 0.0
H67 H 0.35403 0.35588 0.38485 0.0
H68 H 0.14345 0.19195 0.51723 0.0
H69 H 0.26681 0.23418 0.51797 0.0
H70 H 0.37657 0.28801 0.49634 0.0
H71 H 0.43427 0.33291 0.46008 0.0
Mn72 Mn 0.06416 0.10637 0.73726 0.0
Mn73 Mn 0.98461 0.1683 0.7687 0.0
C74 C 0.11984 0.17792 0.76842 0.0
C75 C 0.13144 0.1164 0.70644 0.0
C76 C 0.95828 0.02455 0.77231 0.0
O77 O 0.98277 0.08777 0.7165 0.0
O78 O 0.93822 0.13672 0.73816 0.0
C79 C 0.01608 0.28853 0.7414 0.0
N80 N 0.01833 0.26111 0.7618 0.0
C81 C 0.07486 0.37053 0.78067 0.0
C82 C 0.07277 0.39994 0.75989 0.0
C83 C 0.04337 0.35875 0.74017 0.0
C84 C 0.04661 0.30025 0.78087 0.0
H85 H 0.99372 0.25702 0.7262 0.0
C86 C 0.93836 0.10498 0.72 0.0
O87 O 0.09269 0.05826 0.71547 0.0
O88 O 0.12861 0.16776 0.71462 0.0
N89 N 0.02395 0.20068 0.79872 0.0
C90 C 0.02432 0.16464 0.81717 0.0
C91 C 0.05332 0.19849 0.83817 0.0
C92 C 0.08102 0.26885 0.84005 0.0
C93 C 0.07907 0.30469 0.82092 0.0
C94 C 0.04907 0.26817 0.80048 0.0
H95 H 1.00308 0.11056 0.81582 0.0
O96 O 0.1404 0.1384 0.76048 0.0
O97 O 0.0677 0.17495 0.75775 0.0
O98 O 1.00186 0.02903 0.75816 0.0
O99 O 0.94787 0.07322 0.77712 0.0
C100 C 0.10675 0.37534 0.82122 0.0
C101 C 0.10483 0.40827 0.80109 0.0
H102 H 0.09404 0.4541 0.75884 0.0
H103 H 0.04185 0.38111 0.72405 0.0
H104 H 0.05455 0.17046 0.85286 0.0
H105 H 0.10394 0.29486 0.85621 0.0
H106 H 0.13042 0.40495 0.83676 0.0
H107 H 0.12709 0.46271 0.80146 0.0
C108 C 0.10502 0.72856 0.26598 0.0
C109 C 0.11161 0.58413 0.20419 0.0
O110 O 0.15908 0.73707 0.25715 0.0
Zn111 Zn 0.11558 0.65976 0.23556 0.0
O112 O 0.04774 0.67962 0.25895 0.0
Zn113 Zn 1.00453 0.5987 0.2345 0.0
O114 O 0.96401 0.52014 0.25482 0.0
O115 O 0.07521 0.57846 0.25801 0.0
O116 O 0.05273 0.56909 0.21054 0.0
O117 O 0.16356 0.63309 0.2141 0.0
O118 O 0.06524 0.69566 0.21423 0.0
O119 O 0.95452 0.6297 0.21428 0.0
C120 C 0.01914 0.52927 0.26422 0.0
C121 C 1.00623 0.68291 0.20756 0.0
C122 C 0.59084 0.05488 0.59997 0.0
C123 C 0.43829 0.06029 0.53975 0.0
O124 O 0.54254 1.00245 0.59002 0.0
Zn125 Zn 0.51113 0.05042 0.56968 0.0
O126 O 0.6026 0.11358 0.59412 0.0
Zn127 Zn 0.56753 0.16113 0.57104 0.0
O128 O 0.53688 0.20792 0.59161 0.0
O129 O 0.47696 0.09668 0.59346 0.0
O130 O 0.48601 0.11747 0.54721 0.0
O131 O 0.43215 1.00613 0.54812 0.0
O132 O 0.59214 0.09588 0.54706 0.0
O133 O 0.64353 0.20696 0.5508 0.0
C134 C 0.48905 0.15524 0.60023 0.0
C135 C 0.63856 0.15427 0.5412 0.0
C136 C 0.52815 0.50181 0.9369 0.0
C137 C 0.66697 0.64945 0.87597 0.0
O138 O 0.51313 0.54622 0.93031 0.0
Zn139 Zn 0.54016 0.62256 0.90575 0.0
O140 O 0.57391 0.49598 0.92693 0.0
Zn141 Zn 0.59765 0.56983 0.90536 0.0
O142 O 0.63609 0.6566 0.9278 0.0
O143 O 0.57066 0.70233 0.92558 0.0
O144 O 0.67157 0.5998 0.88372 0.0
O145 O 0.62043 0.66019 0.88286 0.0
O146 O 0.459 0.58706 0.88562 0.0
O147 O 0.51046 0.52743 0.88339 0.0
C148 C 0.62298 0.70272 0.93399 0.0
C149 C 0.46166 0.53688 0.87724 0.0
H150 H 0.11618 0.25657 0.12929 0.0
H151 H 0.0537 0.35466 0.07904 0.0
H152 H 0.13883 0.34664 0.15734 0.0
H153 H 0.07692 0.44369 0.10673 0.0
H154 H 0.01839 0.51773 0.1703 0.0
H155 H 0.01608 0.43968 0.14154 0.0
H156 H 0.21121 0.47608 0.16667 0.0
H157 H 0.21353 0.55551 0.19599 0.0
C158 C 0.10793 0.29743 0.12413 0.0
C159 C 0.08194 0.29748 0.10197 0.0
C160 C 0.12141 0.34924 0.14014 0.0
C161 C 0.10904 0.40188 0.13429 0.0
C162 C 0.08598 0.4033 0.11188 0.0
C163 C 0.07257 0.35195 0.09599 0.0
C164 C 0.0613 0.50982 0.16964 0.0
C165 C 0.11622 0.5429 0.18541 0.0
C166 C 0.06006 0.46518 0.15305 0.0
C167 C 0.11351 0.45178 0.15177 0.0
C168 C 0.16918 0.48532 0.16733 0.0
C169 C 0.17084 0.53115 0.18392 0.0
H170 H 0.85552 0.08063 0.43277 0.0
H171 H 1.00365 0.24934 0.47475 0.0
H172 H 0.76557 0.07954 0.45499 0.0
H173 H 0.91528 0.24707 0.49683 0.0
H174 H 0.74441 0.26739 0.52315 0.0
H175 H 0.82491 0.27098 0.49576 0.0
H176 H 0.72093 0.05275 0.49278 0.0
H177 H 0.6399 0.04915 0.5194 0.0
C178 C 0.869 0.11721 0.44668 0.0
C179 C 0.937 0.16501 0.45183 0.0
C180 C 0.81753 0.11663 0.45944 0.0
C181 C 0.8331 0.16375 0.4776 0.0
C182 C 0.90104 0.21115 0.48266 0.0
C183 C 0.95202 0.21187 0.47 0.0
C184 C 0.73848 0.2203 0.51648 0.0
C185 C 0.68606 0.15813 0.52368 0.0
C186 C 0.78472 0.22222 0.50084 0.0
C187 C 0.77976 0.16204 0.49215 0.0
C188 C 0.726 0.10004 0.49884 0.0
C189 C 0.67979 0.09812 0.51435 0.0
H190 H 0.82859 0.97332 0.78367 0.0
H191 H 0.9924 0.93041 0.78716 0.0
H192 H 0.76159 0.8766 0.80704 0.0
H193 H 0.92518 0.83334 0.81153 0.0
H194 H 0.74342 0.63244 0.84314 0.0
H195 H 0.81629 0.71745 0.81559 0.0
H196 H 0.77667 0.8643 0.84781 0.0
H197 H 0.7043 0.78086 0.87438 0.0
C198 C 0.85019 0.94287 0.7894 0.0
C199 C 0.91615 0.96012 0.78393 0.0
C200 C 0.81184 0.88746 0.80286 0.0
C201 C 0.83869 0.84827 0.81165 0.0
C202 C 0.90322 0.86273 0.80506 0.0
C203 C 0.94166 0.91825 0.79119 0.0
C204 C 0.75097 0.68312 0.84428 0.0
C205 C 0.71694 0.69955 0.86055 0.0
C206 C 0.79259 0.73168 0.82859 0.0
C207 C 0.80073 0.79709 0.82913 0.0
C208 C 0.76974 0.81388 0.84636 0.0
C209 C 0.72828 0.76589 0.86169 0.0
H210 H 0.14226 0.02065 0.11992 0.0
H211 H 0.92887 0.9527 0.12002 0.0
H212 H 0.12571 0.93158 0.14606 0.0
H213 H 0.91242 0.86386 0.14662 0.0
H214 H 0.91009 0.66778 0.17423 0.0
H215 H 0.91614 0.7565 0.14892 0.0
H216 H 0.09854 0.90377 0.18545 0.0
H217 H 0.09328 0.81647 0.20995 0.0
C218 C 0.09192 0.98725 0.12576 0.0
C219 C 0.03707 0.9942 0.11801 0.0
C220 C 0.08234 0.93611 0.14079 0.0
C221 C 0.01766 0.89059 0.14854 0.0
C222 C 0.96272 0.89762 0.14085 0.0
C223 C 0.97235 0.94899 0.12579 0.0
C224 C 0.95082 0.71931 0.17689 0.0
C225 C 1.00183 0.73488 0.19376 0.0
C226 C 0.95439 0.7701 0.16246 0.0
C227 C 1.00877 0.83704 0.16485 0.0
C228 C 0.05719 0.8526 0.18263 0.0
C229 C 0.05391 0.80237 0.19676 0.0
H230 H 0.08803 0.05091 0.47508 0.0
H231 H 0.24499 0.15779 0.42733 0.0
H232 H 0.16623 0.03233 0.49938 0.0
H233 H 0.32292 0.13818 0.45104 0.0
H234 H 0.46169 0.16335 0.51212 0.0
H235 H 0.38289 0.17484 0.48683 0.0
H236 H 0.22846 0.97102 0.50123 0.0
H237 H 0.30816 0.96012 0.52758 0.0
C238 C 0.13969 0.07111 0.47003 0.0
C239 C 0.16179 0.10836 0.45 0.0
C240 C 0.18409 0.05963 0.48368 0.0
C241 C 0.25093 0.08385 0.4772 0.0
C242 C 0.27224 0.11991 0.4568 0.0
C243 C 0.22798 0.13175 0.4433 0.0
C244 C 0.41109 0.12051 0.50986 0.0
C245 C 0.39103 0.06084 0.52202 0.0
C246 C 0.3659 0.12709 0.49516 0.0
C247 C 0.29922 0.07405 0.49202 0.0
C248 C 0.27937 0.01321 0.50354 0.0
C249 C 0.32505 1.00657 0.5184 0.0
H250 H 0.17237 0.31335 0.76458 0.0
H251 H 0.16695 0.16197 0.80953 0.0
H252 H 0.25105 0.40263 0.79159 0.0
H253 H 0.24515 0.25059 0.83662 0.0
H254 H 0.35077 0.53858 0.85767 0.0
H255 H 0.26275 0.45204 0.83188 0.0
H256 H 0.36537 0.3365 0.83494 0.0
H257 H 0.45194 0.4213 0.86036 0.0
C258 C 0.187 0.29939 0.78053 0.0
C259 C 0.16238 0.23111 0.78544 0.0
C260 C 0.23195 0.3503 0.79593 0.0
C261 C 0.25411 0.33362 0.81625 0.0
C262 C 0.22927 0.26505 0.82105 0.0
C263 C 0.18446 0.21435 0.80565 0.0
C264 C 0.35435 0.49468 0.85278 0.0
C265 C 0.40838 0.48694 0.86115 0.0
C266 C 0.30411 0.44527 0.83802 0.0
C267 C 0.30677 0.38709 0.83164 0.0
C268 C 0.36109 0.38 0.83988 0.0
C269 C 0.41114 0.42915 0.85437 0.0
H270 H 0.92297 0.05177 0.67608 0.0
H271 H 0.82609 0.11589 0.72484 0.0
H272 H 0.83259 0.02889 0.64751 0.0
H273 H 0.73682 0.09227 0.69672 0.0
H274 H 0.66126 0.14982 0.63276 0.0
H275 H 0.74137 0.153 0.66136 0.0
H276 H 0.70221 0.9564 0.6381 0.0
H277 H 0.62074 0.95326 0.60875 0.0
C278 C 0.88237 0.06041 0.68079 0.0
C279 C 0.88272 0.08696 0.70266 0.0
C280 C 0.8304 0.04676 0.6645 0.0
C281 C 0.77803 0.05943 0.66983 0.0
C282 C 0.77703 0.08302 0.69197 0.0
C283 C 0.82857 0.09674 0.7081 0.0
C284 C 0.66911 0.10683 0.6337 0.0
C285 C 0.63455 0.05121 0.61845 0.0
C286 C 0.71495 0.10859 0.65023 0.0
C287 C 0.72794 0.05486 0.65207 0.0
C288 C 0.69325 0.99863 0.63698 0.0
C289 C 0.64631 0.99653 0.62038 0.0
H290 H 0.99758 1.00623 0.99836 0.0
H291 H 0.84951 1.007 0.04219 0.0
H292 H 0.90724 0.92468 0.9724 0.0
H293 H 0.7585 0.92512 0.01623 0.0
H294 H 0.62028 0.81532 0.95039 0.0
H295 H 0.70704 0.9073 0.97499 0.0
H296 H 0.82192 0.80401 0.97783 0.0
H297 H 0.73694 0.7135 0.95365 0.0
C298 C 0.94556 0.98953 1.00218 0.0
C299 C 0.93018 0.01403 0.02178 0.0
C300 C 0.89392 0.94285 0.98744 0.0
C301 C 0.82582 0.91861 0.99231 0.0
C302 C 0.81048 0.94366 0.01189 0.0
C303 C 0.86235 0.99046 0.02666 0.0
C304 C 0.66394 0.8123 0.9564 0.0
C305 C 0.67172 0.75717 0.94993 0.0
C306 C 0.71346 0.86483 0.97045 0.0
C307 C 0.77166 0.86318 0.978 0.0
C308 C 0.77841 0.80743 0.97188 0.0
C309 C 0.7292 0.75521 0.9581 0.0
H310 H 0.16506 0.0646 0.35397 0.0
H311 H 0.94896 0.93098 0.34978 0.0
H312 H 0.18081 0.98908 0.32926 0.0
H313 H 0.96459 0.85577 0.32368 0.0
H314 H 0.01857 0.69914 0.30029 0.0
H315 H 1.00361 0.77753 0.32441 0.0
H316 H 0.17111 0.9452 0.29243 0.0
H317 H 0.18762 0.86588 0.26902 0.0
C318 C 0.12048 0.01943 0.34741 0.0
C319 C 0.05556 1.00362 0.35403 0.0
C320 C 0.12969 0.97615 0.333 0.0
C321 C 0.07421 0.91588 0.32445 0.0
C322 C 1.00876 0.90113 0.3303 0.0
C323 C 0.99953 0.94449 0.34504 0.0
C324 C 0.05298 0.75284 0.29876 0.0
C325 C 0.10471 0.77653 0.28296 0.0
C326 C 0.04369 0.79787 0.31232 0.0
C327 C 0.0853 0.86796 0.31021 0.0
C328 C 0.13837 0.89161 0.29476 0.0
C329 C 0.14828 0.8463 0.2814 0.0
H330 H 0.13978 0.01822 0.68216 0.0
H331 H 0.23664 0.23465 0.69197 0.0
H332 H 0.22769 0.03252 0.65645 0.0
H333 H 0.32637 0.24912 0.66705 0.0
H334 H 0.44858 0.24977 0.6049 0.0
H335 H 0.35992 0.24234 0.6294 0.0
H336 H 0.34129 0.06073 0.65877 0.0
H337 H 0.42699 0.0669 0.63379 0.0
C338 C 0.17983 0.06888 0.67879 0.0
C339 C 0.18129 0.12518 0.68917 0.0
C340 C 0.23078 0.07722 0.66421 0.0
C341 C 0.28517 0.14205 0.65991 0.0
C342 C 0.28533 0.19849 0.66978 0.0
C343 C 0.23386 0.19015 0.68415 0.0
C344 C 0.42601 0.20897 0.61687 0.0
C345 C 0.44432 0.15871 0.61734 0.0
C346 C 0.37507 0.20449 0.63089 0.0
C347 C 0.34213 0.15004 0.6458 0.0
C348 C 0.36354 0.10207 0.64701 0.0
C349 C 0.41341 0.10604 0.63286 0.0
H350 H 0.17472 0.32416 1.0063 0.0
H351 H 0.24771 0.19383 0.03169 0.0
H352 H 0.27831 0.38945 0.98635 0.0
H353 H 0.35288 0.26042 0.01126 0.0
H354 H 0.47837 0.36495 0.94141 0.0
H355 H 0.38942 0.29111 0.96738 0.0
H356 H 0.4008 0.46679 1.00002 0.0
H357 H 0.48797 0.53956 0.97421 0.0
C358 C 0.21282 0.30923 0.00766 0.0
C359 C 0.20272 0.25372 0.02077 0.0
C360 C 0.27254 0.34708 0.99627 0.0
C361 C 0.32402 0.33053 0.99746 0.0
C362 C 0.31399 0.27432 0.01012 0.0
C363 C 0.25401 0.23653 0.02187 0.0
C364 C 0.46328 0.38753 0.95467 0.0
C365 C 0.48931 0.45778 0.95567 0.0
C366 C 0.41239 0.3454 0.96947 0.0
C367 C 0.38738 0.3733 0.98538 0.0
C368 C 0.41819 0.44385 0.98764 0.0
C369 C 0.46827 0.4855 0.97292 0.0
H370 H 1.0038 0.20216 0.34494 0.0
H371 H 0.12682 0.38334 0.38614 0.0
H372 H 0.98304 0.26852 0.31668 0.0
H373 H 0.10486 0.44904 0.35813 0.0
H374 H 0.12867 0.55345 0.29051 0.0
H375 H 0.13883 0.48446 0.31963 0.0
H376 H 0.92708 0.33739 0.30971 0.0
H377 H 0.91673 0.40718 0.27967 0.0
C378 C 0.02638 0.25607 0.34804 0.0
C379 C 0.06771 0.28741 0.36778 0.0
C380 C 1.01377 0.29394 0.33191 0.0
C381 C 0.0423 0.36407 0.33509 0.0
C382 C 0.08279 0.3952 0.35498 0.0
C383 C 0.09543 0.35746 0.37107 0.0
C384 C 0.08381 0.50651 0.2944 0.0
C385 C 0.02172 0.48588 0.28261 0.0
C386 C 0.08972 0.46711 0.31136 0.0
C387 C 0.03378 0.40563 0.31718 0.0
C388 C 0.97127 0.38451 0.30551 0.0
C389 C 0.96519 0.42452 0.28843 0.0
loop_
_geom_bond_atom_site_label_1
_geom_bond_atom_site_label_2
_geom_bond_distance
_geom_bond_site_symmetry_2
_ccdc_geom_bond_type
Mn0 O5 2.095 . S
Mn0 O15 2.162 . S
Mn0 O16 2.297 . S
Mn0 O24 2.385 . S
Mn0 O25 2.209 1_455 S
Mn0 O26 2.094 . S
Mn1 O6 2.121 . S
Mn1 N8 2.257 1_455 S
Mn1 N17 2.262 1_454 S
Mn1 O25 2.215 1_455 S
Mn1 O27 2.117 . S
C2 O24 1.234 1_655 S
C2 O25 1.283 . S
C3 O15 1.281 . S
C3 O16 1.236 . S
C4 O26 1.240 . S
C4 O27 1.264 . S
O5 Mn0 2.095 . S
O5 C14 1.250 . S
O6 Mn1 2.121 . S
O6 C14 1.258 . S
C7 N8 1.326 . S
C7 C11 1.460 . S
C7 H13 0.929 . S
N8 Mn1 2.257 1_655 S
N8 C7 1.326 . S
N8 C12 1.362 . S
C9 C10 1.258 . S
C9 C12 1.431 . S
C9 C29 1.449 1_554 S
C10 C9 1.258 . S
C10 C11 1.477 . S
C10 H30 0.931 . S
C11 C7 1.460 . S
C11 C10 1.477 . S
C11 H31 0.930 . S
C12 N8 1.362 . S
C12 C9 1.431 . S
C12 C22 1.476 1_554 S
H13 C7 0.929 . S
C14 O5 1.250 . S
C14 O6 1.258 . S
O15 Mn0 2.162 . S
O15 C3 1.281 . S
O16 Mn0 2.297 . S
O16 C3 1.236 . S
N17 Mn1 2.262 1_656 S
N17 C18 1.343 1_655 S
N17 C22 1.323 . S
C18 N17 1.343 1_455 S
C18 C19 1.457 1_455 S
C18 H23 0.929 . S
C19 C18 1.457 1_655 S
C19 C20 1.291 . S
C19 H32 0.931 1_655 S
C20 C19 1.291 . S
C20 C21 1.373 . S
C20 H33 0.929 . S
C21 C20 1.373 . S
C21 C22 1.396 . S
C21 C28 1.403 . S
C22 C12 1.476 1_556 S
C22 N17 1.323 . S
C22 C21 1.396 . S
H23 C18 0.929 . S
O24 Mn0 2.385 . S
O24 C2 1.234 1_455 S
O25 Mn0 2.209 1_655 S
O25 Mn1 2.215 1_655 S
O25 C2 1.283 . S
O26 Mn0 2.094 . S
O26 C4 1.240 . S
O27 Mn1 2.117 . S
O27 C4 1.264 . S
C28 C21 1.403 . S
C28 C29 1.399 . S
C28 H34 0.929 . S
C29 C9 1.449 1_556 S
C29 C28 1.399 . S
C29 H35 0.930 . S
H30 C10 0.931 . S
H31 C11 0.930 . S
H32 C19 0.931 1_455 S
H33 C20 0.929 . S
H34 C28 0.929 . S
H35 C29 0.930 . S
Mn36 O41 2.095 1_455 S
Mn36 O51 2.162 1_445 S
Mn36 O52 2.297 . S
Mn36 O60 2.385 . S
Mn36 O61 2.209 . S
Mn36 O62 2.094 1_455 S
Mn37 O42 2.121 . S
Mn37 N44 2.257 . S
Mn37 N53 2.282 . S
Mn37 O61 2.215 . S
Mn37 O63 2.117 1_455 S
C38 O60 1.234 . S
C38 O61 1.283 . S
C39 O51 1.281 1_455 S
C39 O52 1.236 1_565 S
C40 O62 1.240 . S
C40 O63 1.264 . S
O41 Mn36 2.095 1_655 S
O41 C50 1.250 1_655 S
O42 Mn37 2.121 . S
O42 C50 1.258 . S
C43 N44 1.326 . S
C43 C47 1.460 . S
C43 H49 0.929 . S
N44 Mn37 2.257 . S
N44 C43 1.326 . S
N44 C48 1.362 . S
C45 C46 1.258 . S
C45 C48 1.431 . S
C45 C65 1.449 . S
C46 C45 1.258 . S
C46 C47 1.477 . S
C46 H66 0.931 . S
C47 C43 1.460 . S
C47 C46 1.477 . S
C47 H67 0.930 . S
C48 N44 1.362 . S
C48 C45 1.431 . S
C48 C58 1.476 . S
H49 C43 0.929 . S
C50 O41 1.250 1_455 S
C50 O42 1.258 . S
O51 Mn36 2.162 1_665 S
O51 C39 1.281 1_655 S
O52 Mn36 2.297 . S
O52 C39 1.236 1_545 S
N53 Mn37 2.282 . S
N53 C54 1.328 . S
N53 C58 1.318 . S
C54 N53 1.328 . S
C54 C55 1.457 . S
C54 H59 0.929 . S
C55 C54 1.457 . S
C55 C56 1.291 . S
C55 H68 0.931 . S
C56 C55 1.291 . S
C56 C57 1.373 . S
C56 H69 0.929 . S
C57 C56 1.373 . S
C57 C58 1.396 . S
C57 C64 1.403 . S
C58 C48 1.476 . S
C58 N53 1.318 . S
C58 C57 1.396 . S
H59 C54 0.929 . S
O60 Mn36 2.385 . S
O60 C38 1.234 . S
O61 Mn36 2.209 . S
O61 Mn37 2.215 . S
O61 C38 1.283 . S
O62 Mn36 2.094 1_655 S
O62 C40 1.240 . S
O63 Mn37 2.117 1_655 S
O63 C40 1.264 . S
C64 C57 1.403 . S
C64 C65 1.399 . S
C64 H70 0.929 . S
C65 C45 1.449 . S
C65 C64 1.399 . S
C65 H71 0.930 . S
H66 C46 0.931 . S
H67 C47 0.930 . S
H68 C55 0.931 . S
H69 C56 0.929 . S
H70 C64 0.929 . S
H71 C65 0.930 . S
Mn72 O77 2.095 1_455 S
Mn72 O87 2.162 . S
Mn72 O88 2.297 . S
Mn72 O96 2.385 . S
Mn72 O97 2.209 . S
Mn72 O98 2.094 1_455 S
Mn73 O78 2.121 . S
Mn73 N80 2.257 1_655 S
Mn73 N89 2.282 1_655 S
Mn73 O97 2.215 1_655 S
Mn73 O99 2.117 . S
C74 O96 1.234 . S
C74 O97 1.283 . S
C75 O87 1.281 . S
C75 O88 1.236 . S
C76 O98 1.240 . S
C76 O99 1.264 . S
O77 Mn72 2.095 1_655 S
O77 C86 1.250 . S
O78 Mn73 2.121 . S
O78 C86 1.258 . S
C79 N80 1.326 1_655 S
C79 C83 1.460 1_655 S
C79 H85 0.929 . S
N80 Mn73 2.257 1_455 S
N80 C79 1.326 1_455 S
N80 C84 1.362 . S
C81 C82 1.258 . S
C81 C84 1.431 . S
C81 C101 1.449 . S
C82 C81 1.258 . S
C82 C83 1.477 . S
C82 H102 0.931 . S
C83 C79 1.460 1_455 S
C83 C82 1.477 . S
C83 H103 0.930 . S
C84 N80 1.362 . S
C84 C81 1.431 . S
C84 C94 1.476 . S
H85 C79 0.929 . S
C86 O77 1.250 . S
C86 O78 1.258 . S
O87 Mn72 2.162 . S
O87 C75 1.281 . S
O88 Mn72 2.297 . S
O88 C75 1.236 . S
N89 Mn73 2.282 1_455 S
N89 C90 1.328 . S
N89 C94 1.318 . S
C90 N89 1.328 . S
C90 C91 1.457 . S
C90 H95 0.929 . S
C91 C90 1.457 . S
C91 C92 1.291 . S
C91 H104 0.931 . S
C92 C91 1.291 . S
C92 C93 1.373 . S
C92 H105 0.929 . S
C93 C92 1.373 . S
C93 C94 1.396 . S
C93 C100 1.403 . S
C94 C84 1.476 . S
C94 N89 1.318 . S
C94 C93 1.396 . S
H95 C90 0.929 . S
O96 Mn72 2.385 . S
O96 C74 1.234 . S
O97 Mn72 2.209 . S
O97 Mn73 2.215 1_455 S
O97 C74 1.283 . S
O98 Mn72 2.094 1_655 S
O98 C76 1.240 . S
O99 Mn73 2.117 . S
O99 C76 1.264 . S
C100 C93 1.403 . S
C100 C101 1.399 . S
C100 H106 0.929 . S
C101 C81 1.449 . S
C101 C100 1.399 . S
C101 H107 0.930 . S
H102 C82 0.931 . S
H103 C83 0.930 . S
H104 C91 0.931 . S
H105 C92 0.929 . S
H106 C100 0.929 . S
H107 C101 0.930 . S
C108 O110 1.247 . S
C108 O112 1.258 1_455 S
C109 O116 1.247 1_455 S
C109 O117 1.258 . S
O110 C108 1.247 . S
O110 Zn111 2.028 . S
Zn111 O110 2.028 . S
Zn111 O115 2.035 . S
Zn111 O117 2.035 . S
Zn111 O118 2.028 . S
O112 C108 1.258 1_655 S
O112 Zn113 2.035 . S
Zn113 O112 2.035 . S
Zn113 O114 2.028 . S
Zn113 O116 2.028 . S
Zn113 O119 2.035 . S
O114 Zn113 2.028 . S
O114 C120 1.247 1_655 S
O115 Zn111 2.035 . S
O115 C120 1.258 . S
O116 C109 1.247 1_655 S
O116 Zn113 2.028 . S
O117 C109 1.258 . S
O117 Zn111 2.035 . S
O118 Zn111 2.028 . S
O118 C121 1.247 . S
O119 Zn113 2.035 . S
O119 C121 1.258 1_655 S
C120 O114 1.247 1_455 S
C120 O115 1.258 . S
C121 O118 1.247 . S
C121 O119 1.258 1_455 S
C122 O124 1.247 . S
C122 O126 1.258 . S
C123 O130 1.247 . S
C123 O131 1.258 . S
O124 C122 1.247 . S
O124 Zn125 2.028 . S
Zn125 O124 2.028 . S
Zn125 O129 2.035 . S
Zn125 O131 2.035 . S
Zn125 O132 2.028 . S
O126 C122 1.258 . S
O126 Zn127 2.035 . S
Zn127 O126 2.035 . S
Zn127 O128 2.028 . S
Zn127 O130 2.028 . S
Zn127 O133 2.035 . S
O128 Zn127 2.028 . S
O128 C134 1.247 . S
O129 Zn125 2.035 . S
O129 C134 1.258 . S
O130 C123 1.247 . S
O130 Zn127 2.028 . S
O131 C123 1.258 . S
O131 Zn125 2.035 . S
O132 Zn125 2.028 . S
O132 C135 1.247 . S
O133 Zn127 2.035 . S
O133 C135 1.258 . S
C134 O128 1.247 . S
C134 O129 1.258 . S
C135 O132 1.247 . S
C135 O133 1.258 . S
C136 O138 1.247 . S
C136 O140 1.258 . S
C137 O144 1.247 . S
C137 O145 1.258 . S
O138 C136 1.247 . S
O138 Zn139 2.028 . S
Zn139 O138 2.028 . S
Zn139 O143 2.035 . S
Zn139 O145 2.035 . S
Zn139 O146 2.028 . S
O140 C136 1.258 . S
O140 Zn141 2.035 . S
Zn141 O140 2.035 . S
Zn141 O142 2.028 . S
Zn141 O144 2.028 . S
Zn141 O147 2.035 . S
O142 Zn141 2.028 . S
O142 C148 1.247 . S
O143 Zn139 2.035 . S
O143 C148 1.258 . S
O144 C137 1.247 . S
O144 Zn141 2.028 . S
O145 C137 1.258 . S
O145 Zn139 2.035 . S
O146 Zn139 2.028 . S
O146 C149 1.247 . S
O147 Zn141 2.035 . S
O147 C149 1.258 . S
C148 O142 1.247 . S
C148 O143 1.258 . S
C149 O146 1.247 . S
C149 O147 1.258 . S
H150 C158 0.950 . S
H151 C163 0.950 . S
H152 C160 0.950 . S
H153 C162 0.950 . S
H154 C164 0.950 . S
H155 C166 0.950 . S
H156 C168 0.950 . S
H157 C169 0.950 . S
C158 H150 0.950 . S
C158 C159 1.386 . S
C158 C160 1.391 . S
C159 C158 1.386 . S
C159 C163 1.393 1_455 S
C160 H152 0.950 . S
C160 C158 1.391 . S
C160 C161 1.400 . S
C161 C160 1.400 . S
C161 C162 1.398 1_455 S
C161 C167 1.491 . S
C162 H153 0.950 . S
C162 C161 1.398 1_655 S
C162 C163 1.391 . S
C163 H151 0.950 . S
C163 C159 1.393 1_655 S
C163 C162 1.391 . S
C164 H154 0.950 . S
C164 C165 1.386 1_655 S
C164 C166 1.391 . S
C165 C164 1.386 1_455 S
C165 C169 1.393 . S
C166 H155 0.950 . S
C166 C164 1.391 . S
C166 C167 1.400 1_655 S
C167 C161 1.491 . S
C167 C166 1.400 1_455 S
C167 C168 1.398 . S
C168 H156 0.950 . S
C168 C167 1.398 . S
C168 C169 1.391 . S
C169 H157 0.950 . S
C169 C165 1.393 . S
C169 C168 1.391 . S
H170 C178 0.950 . S
H171 C183 0.950 . S
H172 C180 0.950 . S
H173 C182 0.950 . S
H174 C184 0.950 . S
H175 C186 0.950 . S
H176 C188 0.950 . S
H177 C189 0.950 . S
C178 H170 0.950 . S
C178 C179 1.386 . S
C178 C180 1.391 . S
C179 C178 1.386 . S
C179 C183 1.393 . S
C180 H172 0.950 . S
C180 C178 1.391 . S
C180 C181 1.400 . S
C181 C180 1.400 . S
C181 C182 1.398 . S
C181 C187 1.491 . S
C182 H173 0.950 . S
C182 C181 1.398 . S
C182 C183 1.391 . S
C183 H171 0.950 . S
C183 C179 1.393 . S
C183 C182 1.391 . S
C184 H174 0.950 . S
C184 C185 1.386 . S
C184 C186 1.391 . S
C185 C184 1.386 . S
C185 C189 1.393 . S
C186 H175 0.950 . S
C186 C184 1.391 . S
C186 C187 1.400 . S
C187 C181 1.491 . S
C187 C186 1.400 . S
C187 C188 1.398 . S
C188 H176 0.950 . S
C188 C187 1.398 . S
C188 C189 1.391 . S
C189 H177 0.950 . S
C189 C185 1.393 . S
C189 C188 1.391 . S
H190 C198 0.950 1_545 S
H191 C203 0.950 . S
H192 C200 0.950 . S
H193 C202 0.950 . S
H194 C204 0.950 . S
H195 C206 0.950 . S
H196 C208 0.950 . S
H197 C209 0.950 . S
C198 H190 0.950 1_565 S
C198 C199 1.386 . S
C198 C200 1.391 . S
C199 C198 1.386 . S
C199 C203 1.393 . S
C200 H192 0.950 . S
C200 C198 1.391 . S
C200 C201 1.400 . S
C201 C200 1.400 . S
C201 C202 1.398 . S
C201 C207 1.491 . S
C202 H193 0.950 . S
C202 C201 1.398 . S
C202 C203 1.391 . S
C203 H191 0.950 . S
C203 C199 1.393 . S
C203 C202 1.391 . S
C204 H194 0.950 . S
C204 C205 1.386 . S
C204 C206 1.391 . S
C205 C204 1.386 . S
C205 C209 1.393 . S
C206 H195 0.950 . S
C206 C204 1.391 . S
C206 C207 1.400 . S
C207 C201 1.491 . S
C207 C206 1.400 . S
C207 C208 1.398 . S
C208 H196 0.950 . S
C208 C207 1.398 . S
C208 C209 1.391 . S
C209 H197 0.950 . S
C209 C205 1.393 . S
C209 C208 1.391 . S
H210 C218 0.950 . S
H211 C223 0.948 . S
H212 C220 0.950 . S
H213 C222 0.950 1_655 S
H214 C224 0.950 1_655 S
H215 C226 0.950 1_655 S
H216 C228 0.950 . S
H217 C229 0.950 . S
C218 H210 0.950 . S
C218 C219 1.386 . S
C218 C220 1.391 . S
C219 C218 1.386 . S
C219 C223 1.393 . S
C220 H212 0.950 . S
C220 C218 1.391 . S
C220 C221 1.400 . S
C221 C220 1.400 . S
C221 C222 1.398 . S
C221 C227 1.491 . S
C222 H213 0.950 1_455 S
C222 C221 1.398 . S
C222 C223 1.391 . S
C223 H211 0.948 . S
C223 C219 1.393 . S
C223 C222 1.391 . S
C224 H214 0.950 1_455 S
C224 C225 1.386 . S
C224 C226 1.391 . S
C225 C224 1.386 . S
C225 C229 1.393 . S
C226 H215 0.950 1_455 S
C226 C224 1.391 . S
C226 C227 1.400 . S
C227 C221 1.491 . S
C227 C226 1.400 . S
C227 C228 1.398 . S
C228 H216 0.950 . S
C228 C227 1.398 . S
C228 C229 1.391 . S
C229 H217 0.950 . S
C229 C225 1.393 . S
C229 C228 1.391 . S
H230 C238 0.950 . S
H231 C243 0.950 . S
H232 C240 0.950 . S
H233 C242 0.950 . S
H234 C244 0.950 . S
H235 C246 0.950 . S
H236 C248 0.950 . S
H237 C249 0.950 . S
C238 H230 0.950 . S
C238 C239 1.386 . S
C238 C240 1.391 . S
C239 C238 1.386 . S
C239 C243 1.393 . S
C240 H232 0.950 . S
C240 C238 1.391 . S
C240 C241 1.400 . S
C241 C240 1.400 . S
C241 C242 1.398 . S
C241 C247 1.491 . S
C242 H233 0.950 . S
C242 C241 1.398 . S
C242 C243 1.391 . S
C243 H231 0.950 . S
C243 C239 1.393 . S
C243 C242 1.391 . S
C244 H234 0.950 . S
C244 C245 1.386 . S
C244 C246 1.391 . S
C245 C244 1.386 . S
C245 C249 1.393 . S
C246 H235 0.950 . S
C246 C244 1.391 . S
C246 C247 1.400 . S
C247 C241 1.491 . S
C247 C246 1.400 . S
C247 C248 1.398 . S
C248 H236 0.950 . S
C248 C247 1.398 . S
C248 C249 1.391 . S
C249 H237 0.950 . S
C249 C245 1.393 . S
C249 C248 1.391 . S
H250 C258 0.950 . S
H251 C263 0.950 . S
H252 C260 0.950 . S
H253 C262 0.950 . S
H254 C264 0.950 . S
H255 C266 0.950 . S
H256 C268 0.950 . S
H257 C269 0.950 . S
C258 H250 0.950 . S
C258 C259 1.386 . S
C258 C260 1.391 . S
C259 C258 1.386 . S
C259 C263 1.393 . S
C260 H252 0.950 . S
C260 C258 1.391 . S
C260 C261 1.400 . S
C261 C260 1.400 . S
C261 C262 1.398 . S
C261 C267 1.491 . S
C262 H253 0.950 . S
C262 C261 1.398 . S
C262 C263 1.391 . S
C263 H251 0.950 . S
C263 C259 1.393 . S
C263 C262 1.391 . S
C264 H254 0.950 . S
C264 C265 1.386 . S
C264 C266 1.391 . S
C265 C264 1.386 . S
C265 C269 1.393 . S
C266 H255 0.950 . S
C266 C264 1.391 . S
C266 C267 1.400 . S
C267 C261 1.491 . S
C267 C266 1.400 . S
C267 C268 1.398 . S
C268 H256 0.950 . S
C268 C267 1.398 . S
C268 C269 1.391 . S
C269 H257 0.950 . S
C269 C265 1.393 . S
C269 C268 1.391 . S
H270 C278 0.950 . S
H271 C283 0.950 . S
H272 C280 0.950 . S
H273 C282 0.950 . S
H274 C284 0.950 . S
H275 C286 0.950 . S
H276 C288 0.950 . S
H277 C289 0.950 . S
C278 H270 0.950 . S
C278 C279 1.386 . S
C278 C280 1.391 . S
C279 C278 1.386 . S
C279 C283 1.393 . S
C280 H272 0.950 . S
C280 C278 1.391 . S
C280 C281 1.400 . S
C281 C280 1.400 . S
C281 C282 1.398 . S
C281 C287 1.491 . S
C282 H273 0.950 . S
C282 C281 1.398 . S
C282 C283 1.391 . S
C283 H271 0.950 . S
C283 C279 1.393 . S
C283 C282 1.391 . S
C284 H274 0.950 . S
C284 C285 1.386 . S
C284 C286 1.391 . S
C285 C284 1.386 . S
C285 C289 1.393 . S
C286 H275 0.950 . S
C286 C284 1.391 . S
C286 C287 1.400 . S
C287 C281 1.491 . S
C287 C286 1.400 . S
C287 C288 1.398 . S
C288 H276 0.950 . S
C288 C287 1.398 . S
C288 C289 1.391 . S
C289 H277 0.950 . S
C289 C285 1.393 . S
C289 C288 1.391 . S
H290 C298 0.950 . S
H291 C303 0.950 . S
H292 C300 0.950 . S
H293 C302 0.950 . S
H294 C304 0.950 . S
H295 C306 0.950 . S
H296 C308 0.950 . S
H297 C309 0.950 . S
C298 H290 0.950 . S
C298 C299 1.386 . S
C298 C300 1.391 1_554 S
C299 C298 1.386 . S
C299 C303 1.393 . S
C300 H292 0.950 . S
C300 C298 1.391 1_556 S
C300 C301 1.400 . S
C301 C300 1.400 . S
C301 C302 1.398 1_556 S
C301 C307 1.491 . S
C302 H293 0.950 . S
C302 C301 1.398 1_554 S
C302 C303 1.391 . S
C303 H291 0.950 . S
C303 C299 1.393 . S
C303 C302 1.391 . S
C304 H294 0.950 . S
C304 C305 1.386 . S
C304 C306 1.391 . S
C305 C304 1.386 . S
C305 C309 1.393 . S
C306 H295 0.950 . S
C306 C304 1.391 . S
C306 C307 1.400 . S
C307 C301 1.491 . S
C307 C306 1.400 . S
C307 C308 1.398 . S
C308 H296 0.950 . S
C308 C307 1.398 . S
C308 C309 1.391 . S
C309 H297 0.950 . S
C309 C305 1.393 . S
C309 C308 1.391 . S
H310 C318 0.950 1_545 S
H311 C323 0.950 . S
H312 C320 0.950 . S
H313 C322 0.950 . S
H314 C324 0.950 . S
H315 C326 0.950 . S
H316 C328 0.950 . S
H317 C329 0.950 . S
C318 H310 0.950 1_565 S
C318 C319 1.386 . S
C318 C320 1.391 . S
C319 C318 1.386 . S
C319 C323 1.393 1_455 S
C320 H312 0.950 . S
C320 C318 1.391 . S
C320 C321 1.400 . S
C321 C320 1.400 . S
C321 C322 1.398 1_455 S
C321 C327 1.491 . S
C322 H313 0.950 . S
C322 C321 1.398 1_655 S
C322 C323 1.391 . S
C323 H311 0.950 . S
C323 C319 1.393 1_655 S
C323 C322 1.391 . S
C324 H314 0.950 . S
C324 C325 1.386 1_655 S
C324 C326 1.391 . S
C325 C324 1.386 1_455 S
C325 C329 1.393 . S
C326 H315 0.950 . S
C326 C324 1.391 . S
C326 C327 1.400 1_655 S
C327 C321 1.491 . S
C327 C326 1.400 1_455 S
C327 C328 1.398 . S
C328 H316 0.950 . S
C328 C327 1.398 . S
C328 C329 1.391 . S
C329 H317 0.950 . S
C329 C325 1.393 . S
C329 C328 1.391 . S
H330 C338 0.950 . S
H331 C343 0.950 . S
H332 C340 0.950 . S
H333 C342 0.950 . S
H334 C344 0.950 . S
H335 C346 0.950 . S
H336 C348 0.950 . S
H337 C349 0.950 . S
C338 H330 0.950 . S
C338 C339 1.386 . S
C338 C340 1.391 . S
C339 C338 1.386 . S
C339 C343 1.393 . S
C340 H332 0.950 . S
C340 C338 1.391 . S
C340 C341 1.400 . S
C341 C340 1.400 . S
C341 C342 1.398 . S
C341 C347 1.491 . S
C342 H333 0.950 . S
C342 C341 1.398 . S
C342 C343 1.391 . S
C343 H331 0.950 . S
C343 C339 1.393 . S
C343 C342 1.391 . S
C344 H334 0.950 . S
C344 C345 1.386 . S
C344 C346 1.391 . S
C345 C344 1.386 . S
C345 C349 1.393 . S
C346 H335 0.950 . S
C346 C344 1.391 . S
C346 C347 1.400 . S
C347 C341 1.491 . S
C347 C346 1.400 . S
C347 C348 1.398 . S
C348 H336 0.950 . S
C348 C347 1.398 . S
C348 C349 1.391 . S
C349 H337 0.950 . S
C349 C345 1.393 . S
C349 C348 1.391 . S
H350 C358 0.950 . S
H351 C363 0.950 . S
H352 C360 0.950 . S
H353 C362 0.950 . S
H354 C364 0.950 . S
H355 C366 0.950 . S
H356 C368 0.950 . S
H357 C369 0.950 . S
C358 H350 0.950 . S
C358 C359 1.386 . S
C358 C360 1.391 1_554 S
C359 C358 1.386 . S
C359 C363 1.393 . S
C360 H352 0.950 . S
C360 C358 1.391 1_556 S
C360 C361 1.400 . S
C361 C360 1.400 . S
C361 C362 1.398 1_556 S
C361 C367 1.491 . S
C362 H353 0.950 . S
C362 C361 1.398 1_554 S
C362 C363 1.391 . S
C363 H351 0.950 . S
C363 C359 1.393 . S
C363 C362 1.391 . S
C364 H354 0.950 . S
C364 C365 1.386 . S
C364 C366 1.391 . S
C365 C364 1.386 . S
C365 C369 1.393 . S
C366 H355 0.950 . S
C366 C364 1.391 . S
C366 C367 1.400 . S
C367 C361 1.491 . S
C367 C366 1.400 . S
C367 C368 1.398 . S
C368 H356 0.950 . S
C368 C367 1.398 . S
C368 C369 1.391 . S
C369 H357 0.950 . S
C369 C365 1.393 . S
C369 C368 1.391 . S
H370 C378 0.950 . S
H371 C383 0.950 . S
H372 C380 0.950 . S
H373 C382 0.950 . S
H374 C384 0.950 . S
H375 C386 0.950 . S
H376 C388 0.950 . S
H377 C389 0.950 . S
C378 H370 0.950 . S
C378 C379 1.386 1_655 S
C378 C380 1.391 . S
C379 C378 1.386 1_455 S
C379 C383 1.393 . S
C380 H372 0.950 . S
C380 C378 1.391 . S
C380 C381 1.400 1_655 S
C381 C380 1.400 1_455 S
C381 C382 1.398 . S
C381 C387 1.491 . S
C382 H373 0.950 . S
C382 C381 1.398 . S
C382 C383 1.391 . S
C383 H371 0.950 . S
C383 C379 1.393 . S
C383 C382 1.391 . S
C384 H374 0.950 . S
C384 C385 1.386 . S
C384 C386 1.391 . S
C385 C384 1.386 . S
C385 C389 1.393 1_455 S
C386 H375 0.950 . S
C386 C384 1.391 . S
C386 C387 1.400 . S
C387 C381 1.491 . S
C387 C386 1.400 . S
C387 C388 1.398 1_455 S
C388 H376 0.950 . S
C388 C387 1.398 1_655 S
C388 C389 1.391 . S
C389 H377 0.950 . S
C389 C385 1.393 1_655 S
C389 C388 1.391 . S
C165 C109 1.470 . S
C159 C14 1.420 . S
C179 C40 1.462 . S
C185 C135 1.475 . S
C199 C76 1.441 1_565 S
C205 C137 1.458 . S
C219 C3 1.436 1_565 S
C225 C121 1.436 . S
C245 C123 1.479 . S
C239 C38 1.467 . S
C259 C74 1.448 . S
C265 C149 1.458 . S
C285 C122 1.437 . S
C279 C86 1.387 . S
C299 C2 1.442 1_565 S
C305 C148 1.460 . S
C325 C108 1.439 . S
C319 C39 1.439 . S
C345 C134 1.445 . S
C339 C75 1.445 . S
C365 C136 1.461 . S
C359 C4 1.445 . S
C379 C50 1.420 . S
C385 C120 1.469 . S
