# Generated by pormake.
# Topology dag, (6,3)-cn, num edge types: 1
# Building blocks:
#     Node 0, Type 0, BuildingBlock: IZENUY_clean_sbu_0, # of connection points: 6
#     Node 1, Type 0, BuildingBlock: IZENUY_clean_sbu_0, # of connection points: 6
#     Node 2, Type 0, BuildingBlock: IZENUY_clean_sbu_0, # of connection points: 6
#     Node 3, Type 0, BuildingBlock: IZENUY_clean_sbu_0, # of connection points: 6
#     Node 4, Type 1, BuildingBlock: OLANEW_clean_sbu_2, # of connection points: 3
#     Node 5, Type 1, BuildingBlock: OLANEW_clean_sbu_2, # of connection points: 3
#     Node 6, Type 1, BuildingBlock: OLANEW_clean_sbu_2, # of connection points: 3
#     Node 7, Type 1, BuildingBlock: OLANEW_clean_sbu_2, # of connection points: 3
#     Node 8, Type 1, BuildingBlock: OLANEW_clean_sbu_2, # of connection points: 3
#     Node 9, Type 1, BuildingBlock: OLANEW_clean_sbu_2, # of connection points: 3
#     Node 10, Type 1, BuildingBlock: OLANEW_clean_sbu_2, # of connection points: 3
#     Node 11, Type 1, BuildingBlock: OLANEW_clean_sbu_2, # of connection points: 3
#     Edge 12, Type (0, 1), BuildingBlock: OJICUG_clean_linker_0, # of connection points: 2
#     Edge 13, Type (0, 1), BuildingBlock: OJICUG_clean_linker_0, # of connection points: 2
#     Edge 14, Type (0, 1), BuildingBlock: OJICUG_clean_linker_0, # of connection points: 2
#     Edge 15, Type (0, 1), BuildingBlock: OJICUG_clean_linker_0, # of connection points: 2
#     Edge 16, Type (0, 1), BuildingBlock: OJICUG_clean_linker_0, # of connection points: 2
#     Edge 17, Type (0, 1), BuildingBlock: OJICUG_clean_linker_0, # of connection points: 2
#     Edge 18, Type (0, 1), BuildingBlock: OJICUG_clean_linker_0, # of connection points: 2
#     Edge 19, Type (0, 1), BuildingBlock: OJICUG_clean_linker_0, # of connection points: 2
#     Edge 20, Type (0, 1), BuildingBlock: OJICUG_clean_linker_0, # of connection points: 2
#     Edge 21, Type (0, 1), BuildingBlock: OJICUG_clean_linker_0, # of connection points: 2
#     Edge 22, Type (0, 1), BuildingBlock: OJICUG_clean_linker_0, # of connection points: 2
#     Edge 23, Type (0, 1), BuildingBlock: OJICUG_clean_linker_0, # of connection points: 2
#     Edge 24, Type (0, 1), BuildingBlock: OJICUG_clean_linker_0, # of connection points: 2
#     Edge 25, Type (0, 1), BuildingBlock: OJICUG_clean_linker_0, # of connection points: 2
#     Edge 26, Type (0, 1), BuildingBlock: OJICUG_clean_linker_0, # of connection points: 2
#     Edge 27, Type (0, 1), BuildingBlock: OJICUG_clean_linker_0, # of connection points: 2
#     Edge 28, Type (0, 1), BuildingBlock: OJICUG_clean_linker_0, # of connection points: 2
#     Edge 29, Type (0, 1), BuildingBlock: OJICUG_clean_linker_0, # of connection points: 2
#     Edge 30, Type (0, 1), BuildingBlock: OJICUG_clean_linker_0, # of connection points: 2
#     Edge 31, Type (0, 1), BuildingBlock: OJICUG_clean_linker_0, # of connection points: 2
#     Edge 32, Type (0, 1), BuildingBlock: OJICUG_clean_linker_0, # of connection points: 2
#     Edge 33, Type (0, 1), BuildingBlock: OJICUG_clean_linker_0, # of connection points: 2
#     Edge 34, Type (0, 1), BuildingBlock: OJICUG_clean_linker_0, # of connection points: 2
#     Edge 35, Type (0, 1), BuildingBlock: OJICUG_clean_linker_0, # of connection points: 2
# Relax obj value: 0.128
# Max RMSD: 0.158
# Mean RMSD: 0.122
data_MOF--net-dag--node1-IZENUY_clean_sbu_0--node2-OLANEW_clean_sbu_2--edge1-OJICUG_clean_linker_0
_symmetry_space_group_name_H-M    P1
_symmetry_Int_Tables_number       1
_symmetry_cell_setting            triclinic
loop_
_symmetry_equiv_pos_as_xyz
'x, y, z'
_cell_length_a     32.444399
_cell_length_b     30.259038
_cell_length_c     27.894787
_cell_angle_alpha  92.191877
_cell_angle_beta   94.624984
_cell_angle_gamma 91.240523
loop_
_atom_site_label
_atom_site_type_symbol
_atom_site_fract_x
_atom_site_fract_y
_atom_site_fract_z
_atom_type_partial_charge
Fe0 Fe 0.178 0.90909 0.03488 0.0
Fe1 Fe 0.08582 0.9265 0.04241 0.0
O2 O 0.12601 0.88949 0.03195 0.0
Fe3 Fe 0.11387 0.83303 0.0186 0.0
O4 O 0.16242 0.81235 0.04828 0.0
O5 O 0.19377 0.87204 0.08213 0.0
O6 O 0.17137 0.95133 0.08348 0.0
C7 C 0.14422 0.95325 0.1139 0.0
C8 C 0.17159 0.84749 0.95479 0.0
O9 O 0.10784 0.93841 0.10336 0.0
C10 C 0.05003 0.87773 0.96523 0.0
O11 O 0.166 0.94756 0.98774 0.0
O12 O 0.11243 0.97556 0.01998 0.0
O13 O 0.13528 0.83537 0.9614 0.0
O14 O 0.19358 0.87005 0.98708 0.0
C15 C 0.05975 0.84802 0.08603 0.0
O16 O 0.06167 0.91591 0.98172 0.0
O17 O 0.06348 0.84348 0.98577 0.0
C18 C 0.14065 0.97819 0.99115 0.0
O19 O 0.05161 0.88468 0.06713 0.0
O20 O 0.09113 0.82723 0.0752 0.0
C21 C 0.18895 0.83057 0.07921 0.0
Fe22 Fe 0.72262 0.59762 0.4728 0.0
Fe23 Fe 0.66515 0.67549 0.45196 0.0
O24 O 0.67223 0.61823 0.46068 0.0
Fe25 Fe 0.62909 0.58166 0.45808 0.0
O26 O 0.64175 0.56619 0.51962 0.0
O27 O 0.70701 0.55306 0.51108 0.0
O28 O 0.73057 0.63245 0.52694 0.0
C29 C 0.72809 0.67397 0.52855 0.0
C30 C 0.68822 0.53319 0.41058 0.0
O31 O 0.71023 0.6938 0.49355 0.0
C32 C 0.6035 0.63382 0.38467 0.0
O33 O 0.74737 0.63843 0.43698 0.0
O34 O 0.69596 0.67314 0.39997 0.0
O35 O 0.65602 0.53473 0.4332 0.0
O36 O 0.71755 0.56105 0.41938 0.0
C37 C 0.60298 0.65607 0.50927 0.0
O38 O 0.61827 0.66745 0.40954 0.0
O39 O 0.61335 0.59541 0.39669 0.0
C40 C 0.73257 0.65934 0.40137 0.0
O41 O 0.63397 0.68075 0.5035 0.0
O42 O 0.59472 0.62194 0.48249 0.0
C43 C 0.6757 0.55054 0.53509 0.0
Fe44 Fe 0.8607 0.19592 0.01036 0.0
Fe45 Fe 0.8871 0.10004 1.00067 0.0
O46 O 0.84763 0.13915 1.00066 0.0
Fe47 Fe 0.79567 0.12011 0.98974 0.0
O48 O 0.77775 0.16921 0.9584 0.0
O49 O 0.83415 0.21003 0.95373 0.0
O50 O 0.90826 0.19238 0.97761 0.0
C51 C 0.91859 0.16327 0.94679 0.0
C52 C 0.78901 0.18293 0.06186 0.0
O53 O 0.9066 0.12347 0.94844 0.0
C54 C 0.83275 0.05867 0.05315 0.0
O55 O 0.8887 0.18656 0.06846 0.0
O56 O 0.92456 0.13239 0.04048 0.0
O57 O 0.7825 0.1432 0.04715 0.0
O58 O 0.81491 0.20796 0.04337 0.0
C59 C 0.834 0.06937 0.92467 0.0
O60 O 0.86859 0.07572 0.05308 0.0
O61 O 0.80463 0.06752 0.02058 0.0
C62 C 0.91936 0.16173 0.07251 0.0
O63 O 0.85758 0.05973 0.96054 0.0
O64 O 0.80633 0.09716 0.93053 0.0
C65 C 0.79724 0.19982 0.93949 0.0
Fe66 Fe 0.3837 0.41647 0.56664 0.0
Fe67 Fe 0.29866 0.37283 0.57545 0.0
O68 O 0.35325 0.36942 0.57771 0.0
Fe69 Fe 0.3778 0.31909 0.59097 0.0
O70 O 0.40635 0.34416 0.64429 0.0
O71 O 0.42787 0.40175 0.60706 0.0
O72 O 0.3652 0.44698 0.61711 0.0
C73 C 0.32774 0.45538 0.62107 0.0
C74 C 0.42324 0.35272 0.51734 0.0
O75 O 0.29921 0.43131 0.59858 0.0
C76 C 0.31179 0.28826 0.53124 0.0
O77 O 0.34499 0.44033 0.52464 0.0
O78 O 0.29583 0.38909 0.51285 0.0
O79 O 0.42088 0.32844 0.55312 0.0
O80 O 0.40411 0.38856 0.51524 0.0
C81 C 0.3136 0.32165 0.65395 0.0
O82 O 0.28884 0.31528 0.55196 0.0
O83 O 0.35062 0.29101 0.53903 0.0
C84 C 0.31492 0.42244 0.49899 0.0
O85 O 0.29787 0.3565 0.63771 0.0
O86 O 0.33924 0.30042 0.63074 0.0
C87 C 0.42855 0.37881 0.644 0.0
O88 O 0.1979 0.01469 0.3353 0.0
Cd89 Cd 0.20818 0.04017 0.42006 0.0
O90 O 0.16839 0.07591 0.31299 0.0
Cd91 Cd 0.1304 0.1148 0.26309 0.0
O92 O 0.08366 0.14058 0.21178 0.0
C93 C 0.04927 0.15534 0.22344 0.0
O94 O 0.04148 0.15699 0.26896 0.0
C95 C 0.18011 0.03715 0.30247 0.0
C96 C 0.24083 0.12543 0.44207 0.0
O97 O 0.26442 0.09262 0.43571 0.0
O98 O 0.20161 0.11831 0.43613 0.0
O99 O 0.26184 0.64754 0.696 0.0
Cd100 Cd 0.26157 0.72879 0.7011 0.0
O101 O 0.32687 0.66273 0.68925 0.0
Cd102 Cd 0.39066 0.65521 0.67143 0.0
O103 O 0.45098 0.6525 0.64255 0.0
C104 C 0.47094 0.68645 0.63054 0.0
O105 O 0.45547 0.72583 0.63676 0.0
C106 C 0.29766 0.63389 0.68898 0.0
C107 C 0.2344 0.76834 0.78431 0.0
O108 O 0.20914 0.75646 0.74815 0.0
O109 O 0.27286 0.76055 0.78172 0.0
O110 O 0.93505 0.69931 0.15011 0.0
Cd111 Cd 0.8776 0.64748 0.15983 0.0
O112 O 0.89829 0.75384 0.17527 0.0
Cd113 Cd 0.88334 0.82199 0.19219 0.0
O114 O 0.86725 0.88984 0.17945 0.0
C115 C 0.83455 0.89738 0.15314 0.0
O116 O 0.81004 0.86396 0.1372 0.0
C117 C 0.93146 0.74049 0.15875 0.0
C118 C 0.83333 0.66358 0.24025 0.0
O119 O 0.86682 0.64174 0.24286 0.0
O120 O 0.821 0.679 0.19954 0.0
O121 O 0.6696 0.41044 0.70086 0.0
Cd122 Cd 0.64511 0.36258 0.76163 0.0
O123 O 0.66819 0.47053 0.74804 0.0
Cd124 Cd 0.64747 0.43392 0.80808 0.0
O125 O 0.58486 0.40616 0.8002 0.0
C126 C 0.55949 0.4345 0.78435 0.0
O127 O 0.57245 0.47592 0.7836 0.0
C128 C 0.67398 0.4522 0.70733 0.0
C129 C 0.70181 0.30973 0.81061 0.0
O130 O 0.67834 0.29386 0.77459 0.0
O131 O 0.69948 0.35094 0.82227 0.0
O132 O 0.64056 0.35934 0.28068 0.0
Cd133 Cd 0.61415 0.28784 0.24698 0.0
O134 O 0.66682 0.33278 0.34837 0.0
Cd135 Cd 0.6207 0.27898 0.3431 0.0
O136 O 0.56455 0.27853 0.38185 0.0
C137 C 0.5448 0.31442 0.38142 0.0
O138 O 0.55743 0.34658 0.35538 0.0
C139 C 0.66331 0.36447 0.31984 0.0
C140 C 0.67242 0.25293 0.18871 0.0
O141 O 0.64694 0.28192 0.17331 0.0
O142 O 0.66996 0.2396 0.23147 0.0
O143 O 0.22977 0.16137 0.94892 0.0
Cd144 Cd 0.26532 0.23147 0.9325 0.0
O145 O 0.19665 0.1544 0.87736 0.0
Cd146 Cd 0.14476 0.12889 0.82963 0.0
O147 O 0.07871 0.1368 0.83224 0.0
C148 C 0.06848 0.17208 0.85403 0.0
O149 O 0.09754 0.2014 0.86927 0.0
C150 C 0.20402 0.14017 0.91939 0.0
C151 C 0.27407 0.25475 0.83742 0.0
O152 O 0.29933 0.22882 0.85933 0.0
O153 O 0.24339 0.26839 0.85968 0.0
O154 O 0.42155 0.67247 0.2774 0.0
Cd155 Cd 0.34478 0.66812 0.26184 0.0
O156 O 0.42521 0.59981 0.27731 0.0
Cd157 Cd 0.35887 0.58378 0.27379 0.0
O158 O 0.32138 0.55002 0.32384 0.0
C159 C 0.31536 0.50826 0.32175 0.0
O160 O 0.32759 0.48514 0.2849 0.0
C161 C 0.44311 0.63779 0.28118 0.0
C162 C 0.29998 0.72388 0.19864 0.0
O163 O 0.31211 0.73703 0.24183 0.0
O164 O 0.31073 0.68533 0.18438 0.0
O165 O 0.88621 0.82211 0.82751 0.0
Cd166 Cd 0.81592 0.8208 0.78651 0.0
O167 O 0.89645 0.88491 0.79423 0.0
Cd168 Cd 0.92285 0.94692 0.7714 0.0
O169 O 0.92287 0.00808 0.73147 0.0
C170 C 0.90288 0.0422 0.74271 0.0
O171 O 0.90176 0.07569 0.71407 0.0
C172 C 0.90929 0.85605 0.82353 0.0
C173 C 0.79718 0.77209 0.69984 0.0
O174 O 0.8073 0.81329 0.69983 0.0
O175 O 0.79784 0.75366 0.74054 0.0
C176 C 0.16986 0.01885 0.16649 0.0
C177 C 0.15422 0.97511 0.16167 0.0
H178 H 0.18922 0.07353 0.21531 0.0
C179 C 0.14684 0.95233 0.20311 0.0
H180 H 0.17548 0.03708 0.13487 0.0
C181 C 0.15568 0.97257 0.24876 0.0
C182 C 0.17064 0.01655 0.2538 0.0
H183 H 0.13473 0.91859 0.20014 0.0
H184 H 0.15023 0.95403 0.2802 0.0
C185 C 0.17738 0.03971 0.21228 0.0
C186 C 0.56146 0.70958 0.55585 0.0
C187 C 0.57417 0.66638 0.54603 0.0
H188 H 0.51811 0.75005 0.59045 0.0
C189 C 0.55591 0.63097 0.56837 0.0
H190 H 0.57514 0.73735 0.53896 0.0
C191 C 0.52385 0.63803 0.59771 0.0
C192 C 0.5089 0.68071 0.60512 0.0
H193 H 0.56564 0.59736 0.56193 0.0
H194 H 0.50976 0.60963 0.61306 0.0
C195 C 0.52879 0.7167 0.5851 0.0
C196 C 0.85619 0.0157 0.12414 0.0
C197 C 0.82737 0.02123 0.08459 0.0
H198 H 0.88063 0.97242 0.17738 0.0
C199 C 0.79678 0.98823 0.07256 0.0
H200 H 0.87969 0.04094 0.13481 0.0
C201 C 0.79736 0.94871 0.09701 0.0
C202 C 0.82844 0.94178 0.13392 0.0
H203 H 0.77401 0.99172 0.04243 0.0
H204 H 0.7749 0.92276 0.08519 0.0
C205 C 0.85669 0.97642 0.1486 0.0
C206 C 0.46731 0.43744 0.69416 0.0
C207 C 0.45769 0.39227 0.68539 0.0
H208 H 0.50594 0.48625 0.73361 0.0
C209 C 0.47771 0.36115 0.71453 0.0
H210 H 0.45165 0.46218 0.67282 0.0
C211 C 0.5094 0.37495 0.74935 0.0
C212 C 0.52086 0.42008 0.75585 0.0
H213 H 0.4705 0.32614 0.70863 0.0
H214 H 0.52617 0.35017 0.76945 0.0
C215 C 0.49826 0.45123 0.72928 0.0
C216 C 0.67005 0.4885 0.33587 0.0
C217 C 0.69339 0.4936 0.38026 0.0
H218 H 0.64323 0.44326 0.28082 0.0
C219 C 0.71272 0.45697 0.40054 0.0
H220 H 0.65429 0.51642 0.32027 0.0
C221 C 0.70583 0.41488 0.3786 0.0
C222 C 0.67954 0.40905 0.33609 0.0
H223 H 0.73018 0.46033 0.43534 0.0
H224 H 0.71872 0.38665 0.39669 0.0
C225 C 0.66359 0.44657 0.31356 0.0
C226 C 0.95894 0.14212 0.87767 0.0
C227 C 0.95213 0.1724 0.91558 0.0
H228 H 1.00103 0.11849 0.82805 0.0
C229 C 0.98096 0.20716 0.92726 0.0
H230 H 0.93685 0.11542 0.86724 0.0
C231 C 0.01783 0.20898 0.90459 0.0
C232 C 0.02635 0.17606 0.86998 0.0
H233 H 0.97645 0.23108 0.95615 0.0
H234 H 0.04069 0.23453 0.91644 0.0
C235 C 0.99572 0.14387 0.85516 0.0
C236 C 0.30099 0.489 0.45206 0.0
C237 C 0.30256 0.44274 0.4531 0.0
H238 H 0.30241 0.54604 0.4095 0.0
C239 C 0.30096 0.41773 0.40958 0.0
H240 H 0.30223 0.50891 0.48531 0.0
C241 C 0.30188 0.43904 0.36587 0.0
C242 C 0.304 0.48558 0.36524 0.0
H243 H 0.3026 0.38201 0.40964 0.0
H244 H 0.30367 0.41908 0.33308 0.0
C245 C 0.30123 0.51021 0.40857 0.0
C246 C 1.0006 0.83024 0.91048 0.0
C247 C 0.01647 0.87261 0.9255 0.0
H248 H 0.95488 0.79195 0.86637 0.0
C249 C 0.99888 0.90959 0.90332 0.0
H250 H 0.01342 0.80091 0.92636 0.0
C251 C 0.96529 0.90431 0.86836 0.0
C252 C 0.9485 0.86198 0.85486 0.0
H253 H 0.01032 0.94273 0.91383 0.0
H254 H 0.95135 0.9335 0.85369 0.0
C255 C 0.967 0.82504 0.87588 0.0
C256 C 0.88013 0.02889 0.87199 0.0
C257 C 0.84602 0.05632 0.87615 0.0
H258 H 0.92635 0.00571 0.82786 0.0
C259 C 0.82876 0.07651 0.8349 0.0
H260 H 0.89472 0.01336 0.90313 0.0
C261 C 0.84649 0.07083 0.79097 0.0
C262 C 0.88164 0.04483 0.78758 0.0
H263 H 0.80288 0.09832 0.83702 0.0
H264 H 0.83337 0.08769 0.75997 0.0
C265 C 0.89806 0.02382 0.82848 0.0
C266 C 0.47366 0.30142 0.48183 0.0
C267 C 0.4523 0.34142 0.48051 0.0
H268 H 0.51927 0.26122 0.45136 0.0
C269 C 0.45973 0.37092 0.44426 0.0
H270 H 0.46846 0.27774 0.509 0.0
C271 C 0.48887 0.36143 0.41128 0.0
C272 C 0.51114 0.32209 0.41351 0.0
H273 H 0.44366 0.40186 0.44188 0.0
H274 H 0.49447 0.38541 0.38454 0.0
C275 C 0.50269 0.29182 0.44864 0.0
C276 C 0.1516 0.06036 0.99816 0.0
C277 C 0.15049 0.02088 0.96984 0.0
H278 H 0.1703 0.12899 0.00458 0.0
C279 C 0.16385 0.02186 0.92316 0.0
H280 H 0.14205 0.06042 0.0345 0.0
C281 C 0.17891 0.06138 0.90554 0.0
C282 C 0.18228 0.10025 0.93494 0.0
H283 H 0.16359 0.99179 0.90077 0.0
H284 H 0.19001 0.06099 0.86993 0.0
C285 C 0.168 0.09948 0.98118 0.0
C286 C 0.55063 0.60096 0.3219 0.0
C287 C 0.56719 0.63833 0.34892 0.0
H288 H 0.49901 0.57179 0.2786 0.0
C289 C 0.54529 0.67801 0.34629 0.0
H290 H 0.56673 0.56997 0.32247 0.0
C291 C 0.50614 0.6791 0.32081 0.0
C292 C 0.48807 0.64052 0.29746 0.0
H293 H 0.55708 0.70753 0.36648 0.0
H294 H 0.48893 0.70933 0.32224 0.0
C295 C 0.51165 0.60204 0.29661 0.0
C296 C 0.27843 0.5161 0.63871 0.0
C297 C 0.31823 0.49857 0.64445 0.0
H298 H 0.24079 0.57267 0.64833 0.0
C299 C 0.35026 0.52474 0.66906 0.0
H300 H 0.25303 0.49693 0.62007 0.0
C301 C 0.34327 0.5681 0.685 0.0
C302 C 0.30414 0.58649 0.67676 0.0
H303 H 0.3812 0.51219 0.6749 0.0
H304 H 0.36869 0.58725 0.70349 0.0
C305 C 0.27145 0.55956 0.65483 0.0
C306 C 0.03715 0.78347 0.1321 0.0
C307 C 0.02811 0.8244 0.1119 0.0
H308 H 0.01371 0.72527 0.16295 0.0
C309 C 0.98741 0.83964 0.11192 0.0
H310 H 0.06812 0.7707 0.13293 0.0
C311 C 0.95611 0.81339 0.12919 0.0
C312 C 0.96492 0.77154 0.14716 0.0
H313 H 0.97923 0.87079 0.09628 0.0
H314 H 0.92469 0.82476 0.12557 0.0
C315 C 0.00593 0.75733 0.14927 0.0
C316 C 0.65717 0.54271 0.61924 0.0
C317 C 0.67808 0.52675 0.58027 0.0
H318 H 0.64097 0.53228 0.69087 0.0
C319 C 0.70068 0.48785 0.58476 0.0
H320 H 0.63984 0.57287 0.61669 0.0
C321 C 0.7006 0.46405 0.62682 0.0
C322 C 0.67917 0.47971 0.66559 0.0
H323 H 0.71707 0.47499 0.5551 0.0
H324 H 0.71671 0.43311 0.62878 0.0
C325 C 0.65824 0.51977 0.66179 0.0
C326 C 0.94425 0.17691 0.15928 0.0
C327 C 0.95268 0.16909 0.11119 0.0
H328 H 0.96857 0.17847 0.23323 0.0
C329 C 0.99362 0.16237 0.1003 0.0
H330 H 0.91284 0.18199 0.16844 0.0
C331 C 0.02527 0.16053 0.13683 0.0
C332 C 0.01668 0.16491 0.18527 0.0
H333 H 1.00098 0.15677 0.06336 0.0
H334 H 0.05618 0.15363 0.12699 0.0
C335 C 0.9761 0.17464 0.1962 0.0
C336 C 0.23984 0.8218 0.15098 0.0
C337 C 0.21732 0.80306 0.10962 0.0
H338 H 0.28329 0.81169 0.21142 0.0
C339 C 0.22296 0.75821 0.09727 0.0
H340 H 0.23625 0.85622 0.16165 0.0
C341 C 0.25053 0.73284 0.12545 0.0
C342 C 0.27266 0.75148 0.16711 0.0
H343 H 0.20635 0.74275 0.06554 0.0
H344 H 0.25399 0.69836 0.11497 0.0
C345 C 0.26688 0.79627 0.17954 0.0
C346 C 0.75399 0.74551 0.57098 0.0
C347 C 0.74797 0.69936 0.57116 0.0
H348 H 0.77501 0.80468 0.61125 0.0
C349 C 0.76033 0.6773 0.61326 0.0
H350 H 0.74496 0.76349 0.53913 0.0
C351 C 0.77723 0.70084 0.65452 0.0
C352 C 0.78264 0.74701 0.65468 0.0
H353 H 0.75609 0.64178 0.6148 0.0
H354 H 0.78553 0.68282 0.68657 0.0
C355 C 0.77141 0.76907 0.61224 0.0
C356 C 0.7469 0.17572 0.13251 0.0
C357 C 0.7617 0.20187 0.09672 0.0
H358 H 0.70756 0.17182 0.19052 0.0
C359 C 0.74796 0.24533 0.09243 0.0
H360 H 0.75704 0.14208 0.13648 0.0
C361 C 0.71883 0.26184 0.12234 0.0
C362 C 0.70382 0.23562 0.15793 0.0
H363 H 0.75861 0.26603 0.06485 0.0
H364 H 0.70808 0.29516 0.11764 0.0
C365 C 0.71867 0.1927 0.16336 0.0
C366 C 0.26961 0.32237 0.72481 0.0
C367 C 0.30134 0.30367 0.69976 0.0
H368 H 0.23562 0.32122 0.78771 0.0
C369 C 0.32243 0.26755 0.71948 0.0
H370 H 0.25269 0.35013 0.71067 0.0
C371 C 0.31282 0.25119 0.76346 0.0
C372 C 0.28164 0.27023 0.78894 0.0
H373 H 0.34707 0.25221 0.70136 0.0
H374 H 0.3303 0.22388 0.77778 0.0
C375 C 0.25974 0.30567 0.76886 0.0
C376 C 0.74319 0.68226 0.31708 0.0
C377 C 0.75923 0.6667 0.36148 0.0
H378 H 0.75418 0.69376 0.24366 0.0
C379 C 0.80084 0.65418 0.36646 0.0
H380 H 0.71129 0.69211 0.31203 0.0
C381 C 0.82516 0.65488 0.32752 0.0
C382 C 0.80867 0.66831 0.28252 0.0
H383 H 0.81447 0.64235 0.40017 0.0
H384 H 0.85664 0.64366 0.33247 0.0
C385 C 0.76775 0.68313 0.27793 0.0
C386 C 0.74157 0.20894 0.87363 0.0
C387 C 0.77502 0.22708 0.90361 0.0
H388 H 0.69278 0.22081 0.81962 0.0
C389 C 0.78595 0.27199 0.90043 0.0
H390 H 0.73271 0.17432 0.87518 0.0
C391 C 0.76269 0.29875 0.86935 0.0
C392 C 0.72874 0.2808 0.84003 0.0
H393 H 0.81156 0.28685 0.92325 0.0
H394 H 0.77093 0.3336 0.86871 0.0
C395 C 0.71893 0.23546 0.84168 0.0
C396 C 0.3186 0.2163 0.4852 0.0
C397 C 0.29313 0.249 0.50333 0.0
H398 H 0.32211 0.15194 0.45154 0.0
C399 C 0.24997 0.24226 0.49705 0.0
H400 H 0.35197 0.22041 0.48899 0.0
C401 C 0.23281 0.20289 0.47519 0.0
C402 C 0.25845 0.16935 0.45933 0.0
H403 H 0.22942 0.26682 0.51028 0.0
H404 H 0.19951 0.19812 0.47231 0.0
C405 C 0.30148 0.17694 0.46363 0.0
C406 C 0.16168 0.81533 0.87113 0.0
C407 C 0.1889 0.83064 0.91033 0.0
H408 H 0.1546 0.78387 0.80111 0.0
C409 C 0.23169 0.82681 0.90722 0.0
H410 H 0.12851 0.8181 0.87215 0.0
C411 C 0.24675 0.80668 0.8662 0.0
C412 C 0.21926 0.79048 0.82755 0.0
H413 H 0.25338 0.83817 0.93692 0.0
H414 H 0.27984 0.80347 0.86497 0.0
C415 C 0.17664 0.79563 0.8303 0.0
loop_
_geom_bond_atom_site_label_1
_geom_bond_atom_site_label_2
_geom_bond_distance
_geom_bond_site_symmetry_2
_ccdc_geom_bond_type
Fe0 O2 1.919 . S
Fe0 O5 1.997 . S
Fe0 O6 2.002 . S
Fe0 O11 1.976 1_554 S
Fe0 O14 1.996 1_554 S
Fe1 O2 1.919 . S
Fe1 O9 1.997 . S
Fe1 O12 1.996 1_554 S
Fe1 O16 1.976 1_554 S
Fe1 O19 2.002 . S
O2 Fe0 1.919 . S
O2 Fe1 1.919 . S
O2 Fe3 1.917 1_554 S
Fe3 O2 1.917 1_556 S
Fe3 O4 2.002 1_556 S
Fe3 O13 1.976 . S
Fe3 O17 1.996 . S
Fe3 O20 1.997 1_556 S
O4 Fe3 2.002 1_554 S
O4 C21 1.295 . S
O5 Fe0 1.997 . S
O5 C21 1.235 . S
O6 Fe0 2.002 . S
O6 C7 1.295 . S
C7 O6 1.295 . S
C7 O9 1.235 . S
C8 O13 1.287 . S
C8 O14 1.255 . S
O9 Fe1 1.997 . S
O9 C7 1.235 . S
C10 O16 1.287 . S
C10 O17 1.255 . S
O11 Fe0 1.976 1_556 S
O11 C18 1.287 . S
O12 Fe1 1.996 1_556 S
O12 C18 1.255 . S
O13 Fe3 1.976 . S
O13 C8 1.287 . S
O14 Fe0 1.996 1_556 S
O14 C8 1.255 . S
C15 O19 1.295 . S
C15 O20 1.235 . S
O16 Fe1 1.976 1_556 S
O16 C10 1.287 . S
O17 Fe3 1.996 . S
O17 C10 1.255 . S
C18 O11 1.287 . S
C18 O12 1.255 . S
O19 Fe1 2.002 . S
O19 C15 1.295 . S
O20 Fe3 1.997 1_554 S
O20 C15 1.235 . S
C21 O4 1.295 . S
C21 O5 1.235 . S
Fe22 O24 1.918 . S
Fe22 O27 1.997 . S
Fe22 O28 2.002 . S
Fe22 O33 1.976 . S
Fe22 O36 1.996 . S
Fe23 O24 1.918 . S
Fe23 O31 1.997 . S
Fe23 O34 1.996 . S
Fe23 O38 1.976 . S
Fe23 O41 2.002 . S
O24 Fe22 1.918 . S
O24 Fe23 1.918 . S
O24 Fe25 1.918 . S
Fe25 O24 1.918 . S
Fe25 O26 2.002 . S
Fe25 O35 1.976 . S
Fe25 O39 1.996 . S
Fe25 O42 1.997 . S
O26 Fe25 2.002 . S
O26 C43 1.295 . S
O27 Fe22 1.997 . S
O27 C43 1.235 . S
O28 Fe22 2.002 . S
O28 C29 1.295 . S
C29 O28 1.295 . S
C29 O31 1.235 . S
C30 O35 1.287 . S
C30 O36 1.255 . S
O31 Fe23 1.997 . S
O31 C29 1.235 . S
C32 O38 1.287 . S
C32 O39 1.255 . S
O33 Fe22 1.976 . S
O33 C40 1.287 . S
O34 Fe23 1.996 . S
O34 C40 1.255 . S
O35 Fe25 1.976 . S
O35 C30 1.287 . S
O36 Fe22 1.996 . S
O36 C30 1.255 . S
C37 O41 1.295 . S
C37 O42 1.235 . S
O38 Fe23 1.976 . S
O38 C32 1.287 . S
O39 Fe25 1.996 . S
O39 C32 1.255 . S
C40 O33 1.287 . S
C40 O34 1.255 . S
O41 Fe23 2.002 . S
O41 C37 1.295 . S
O42 Fe25 1.997 . S
O42 C37 1.235 . S
C43 O26 1.295 . S
C43 O27 1.235 . S
Fe44 O46 1.918 . S
Fe44 O49 1.997 . S
Fe44 O50 2.002 . S
Fe44 O55 1.976 . S
Fe44 O58 1.996 . S
Fe45 O46 1.918 . S
Fe45 O53 1.997 1_554 S
Fe45 O56 1.996 . S
Fe45 O60 1.976 . S
Fe45 O63 2.002 1_554 S
O46 Fe44 1.918 . S
O46 Fe45 1.918 . S
O46 Fe47 1.918 . S
Fe47 O46 1.918 . S
Fe47 O48 2.002 1_554 S
Fe47 O57 1.976 . S
Fe47 O61 1.996 . S
Fe47 O64 1.997 1_554 S
O48 Fe47 2.002 1_556 S
O48 C65 1.295 . S
O49 Fe44 1.997 . S
O49 C65 1.235 1_554 S
O50 Fe44 2.002 . S
O50 C51 1.295 1_554 S
C51 O50 1.295 1_556 S
C51 O53 1.235 . S
C52 O57 1.287 . S
C52 O58 1.255 . S
O53 Fe45 1.997 1_556 S
O53 C51 1.235 . S
C54 O60 1.287 . S
C54 O61 1.255 . S
O55 Fe44 1.976 . S
O55 C62 1.287 . S
O56 Fe45 1.996 . S
O56 C62 1.255 . S
O57 Fe47 1.976 . S
O57 C52 1.287 . S
O58 Fe44 1.996 . S
O58 C52 1.255 . S
C59 O63 1.295 . S
C59 O64 1.235 . S
O60 Fe45 1.976 . S
O60 C54 1.287 . S
O61 Fe47 1.996 . S
O61 C54 1.255 . S
C62 O55 1.287 . S
C62 O56 1.255 . S
O63 Fe45 2.002 1_556 S
O63 C59 1.295 . S
O64 Fe47 1.997 1_556 S
O64 C59 1.235 . S
C65 O48 1.295 . S
C65 O49 1.235 1_556 S
Fe66 O68 1.918 . S
Fe66 O71 1.997 . S
Fe66 O72 2.002 . S
Fe66 O77 1.976 . S
Fe66 O80 1.996 . S
Fe67 O68 1.918 . S
Fe67 O75 1.997 . S
Fe67 O78 1.996 . S
Fe67 O82 1.976 . S
Fe67 O85 2.002 . S
O68 Fe66 1.918 . S
O68 Fe67 1.918 . S
O68 Fe69 1.918 . S
Fe69 O68 1.918 . S
Fe69 O70 2.002 . S
Fe69 O79 1.976 . S
Fe69 O83 1.996 . S
Fe69 O86 1.997 . S
O70 Fe69 2.002 . S
O70 C87 1.295 . S
O71 Fe66 1.997 . S
O71 C87 1.235 . S
O72 Fe66 2.002 . S
O72 C73 1.295 . S
C73 O72 1.295 . S
C73 O75 1.235 . S
C74 O79 1.287 . S
C74 O80 1.255 . S
O75 Fe67 1.997 . S
O75 C73 1.235 . S
C76 O82 1.287 . S
C76 O83 1.255 . S
O77 Fe66 1.976 . S
O77 C84 1.287 . S
O78 Fe67 1.996 . S
O78 C84 1.255 . S
O79 Fe69 1.976 . S
O79 C74 1.287 . S
O80 Fe66 1.996 . S
O80 C74 1.255 . S
C81 O85 1.295 . S
C81 O86 1.235 . S
O82 Fe67 1.976 . S
O82 C76 1.287 . S
O83 Fe69 1.996 . S
O83 C76 1.255 . S
C84 O77 1.287 . S
C84 O78 1.255 . S
O85 Fe67 2.002 . S
O85 C81 1.295 . S
O86 Fe69 1.997 . S
O86 C81 1.235 . S
C87 O70 1.295 . S
C87 O71 1.235 . S
O88 Cd89 2.300 . S
O88 C95 1.275 . S
Cd89 O88 2.300 . S
Cd89 O97 2.381 . S
Cd89 O98 2.378 . S
O90 Cd91 2.385 . S
O90 C95 1.255 . S
Cd91 O90 2.385 . S
Cd91 O92 2.317 . S
O92 Cd91 2.317 . S
O92 C93 1.232 . S
C93 O92 1.232 . S
C93 O94 1.218 . S
O94 C93 1.218 . S
C95 O88 1.275 . S
C95 O90 1.255 . S
C96 O97 1.258 . S
C96 O98 1.256 . S
O97 Cd89 2.381 . S
O97 C96 1.258 . S
O98 Cd89 2.378 . S
O98 C96 1.256 . S
O99 Cd100 2.300 . S
O99 C106 1.275 . S
Cd100 O99 2.300 . S
Cd100 O108 2.381 . S
Cd100 O109 2.378 . S
O101 Cd102 2.385 . S
O101 C106 1.255 . S
Cd102 O101 2.385 . S
Cd102 O103 2.317 . S
O103 Cd102 2.317 . S
O103 C104 1.232 . S
C104 O103 1.232 . S
C104 O105 1.218 . S
O105 C104 1.218 . S
C106 O99 1.275 . S
C106 O101 1.255 . S
C107 O108 1.258 . S
C107 O109 1.256 . S
O108 Cd100 2.381 . S
O108 C107 1.258 . S
O109 Cd100 2.378 . S
O109 C107 1.256 . S
O110 Cd111 2.300 . S
O110 C117 1.275 . S
Cd111 O110 2.300 . S
Cd111 O119 2.381 . S
Cd111 O120 2.378 . S
O112 Cd113 2.385 . S
O112 C117 1.255 . S
Cd113 O112 2.385 . S
Cd113 O114 2.317 . S
O114 Cd113 2.317 . S
O114 C115 1.232 . S
C115 O114 1.232 . S
C115 O116 1.218 . S
O116 C115 1.218 . S
C117 O110 1.275 . S
C117 O112 1.255 . S
C118 O119 1.258 . S
C118 O120 1.256 . S
O119 Cd111 2.381 . S
O119 C118 1.258 . S
O120 Cd111 2.378 . S
O120 C118 1.256 . S
O121 Cd122 2.300 . S
O121 C128 1.275 . S
Cd122 O121 2.300 . S
Cd122 O130 2.381 . S
Cd122 O131 2.378 . S
O123 Cd124 2.385 . S
O123 C128 1.255 . S
Cd124 O123 2.385 . S
Cd124 O125 2.317 . S
O125 Cd124 2.317 . S
O125 C126 1.232 . S
C126 O125 1.232 . S
C126 O127 1.218 . S
O127 C126 1.218 . S
C128 O121 1.275 . S
C128 O123 1.255 . S
C129 O130 1.258 . S
C129 O131 1.256 . S
O130 Cd122 2.381 . S
O130 C129 1.258 . S
O131 Cd122 2.378 . S
O131 C129 1.256 . S
O132 Cd133 2.300 . S
O132 C139 1.275 . S
Cd133 O132 2.300 . S
Cd133 O141 2.381 . S
Cd133 O142 2.378 . S
O134 Cd135 2.385 . S
O134 C139 1.255 . S
Cd135 O134 2.385 . S
Cd135 O136 2.317 . S
O136 Cd135 2.317 . S
O136 C137 1.232 . S
C137 O136 1.232 . S
C137 O138 1.218 . S
O138 C137 1.218 . S
C139 O132 1.275 . S
C139 O134 1.255 . S
C140 O141 1.258 . S
C140 O142 1.256 . S
O141 Cd133 2.381 . S
O141 C140 1.258 . S
O142 Cd133 2.378 . S
O142 C140 1.256 . S
O143 Cd144 2.300 . S
O143 C150 1.275 . S
Cd144 O143 2.300 . S
Cd144 O152 2.381 . S
Cd144 O153 2.378 . S
O145 Cd146 2.385 . S
O145 C150 1.255 . S
Cd146 O145 2.385 . S
Cd146 O147 2.317 . S
O147 Cd146 2.317 . S
O147 C148 1.232 . S
C148 O147 1.232 . S
C148 O149 1.218 . S
O149 C148 1.218 . S
C150 O143 1.275 . S
C150 O145 1.255 . S
C151 O152 1.258 . S
C151 O153 1.256 . S
O152 Cd144 2.381 . S
O152 C151 1.258 . S
O153 Cd144 2.378 . S
O153 C151 1.256 . S
O154 Cd155 2.300 . S
O154 C161 1.275 . S
Cd155 O154 2.300 . S
Cd155 O163 2.381 . S
Cd155 O164 2.378 . S
O156 Cd157 2.385 . S
O156 C161 1.255 . S
Cd157 O156 2.385 . S
Cd157 O158 2.317 . S
O158 Cd157 2.317 . S
O158 C159 1.232 . S
C159 O158 1.232 . S
C159 O160 1.218 . S
O160 C159 1.218 . S
C161 O154 1.275 . S
C161 O156 1.255 . S
C162 O163 1.258 . S
C162 O164 1.256 . S
O163 Cd155 2.381 . S
O163 C162 1.258 . S
O164 Cd155 2.378 . S
O164 C162 1.256 . S
O165 Cd166 2.300 . S
O165 C172 1.275 . S
Cd166 O165 2.300 . S
Cd166 O174 2.381 . S
Cd166 O175 2.378 . S
O167 Cd168 2.385 . S
O167 C172 1.255 . S
Cd168 O167 2.385 . S
Cd168 O169 2.317 . S
O169 Cd168 2.317 . S
O169 C170 1.232 . S
C170 O169 1.232 . S
C170 O171 1.218 . S
O171 C170 1.218 . S
C172 O165 1.275 . S
C172 O167 1.255 . S
C173 O174 1.258 . S
C173 O175 1.256 . S
O174 Cd166 2.381 . S
O174 C173 1.258 . S
O175 Cd166 2.378 . S
O175 C173 1.256 . S
C176 C177 1.387 . S
C176 H180 0.951 . S
C176 C185 1.390 1_565 S
C177 C176 1.387 . S
C177 C179 1.387 . S
H178 C185 0.950 . S
C179 C177 1.387 . S
C179 C181 1.390 . S
C179 H183 0.950 . S
H180 C176 0.951 . S
C181 C179 1.390 . S
C181 C182 1.387 1_565 S
C181 H184 0.950 . S
C182 C181 1.387 1_545 S
C182 C185 1.387 . S
H183 C179 0.950 . S
H184 C181 0.950 . S
C185 C176 1.390 1_545 S
C185 H178 0.950 . S
C185 C182 1.387 . S
C186 C187 1.387 . S
C186 H190 0.950 . S
C186 C195 1.390 . S
C187 C186 1.387 . S
C187 C189 1.387 . S
H188 C195 0.950 . S
C189 C187 1.387 . S
C189 C191 1.390 . S
C189 H193 0.950 . S
H190 C186 0.950 . S
C191 C189 1.390 . S
C191 C192 1.387 . S
C191 H194 0.950 . S
C192 C191 1.387 . S
C192 C195 1.387 . S
H193 C189 0.950 . S
H194 C191 0.950 . S
C195 C186 1.390 . S
C195 H188 0.950 . S
C195 C192 1.387 . S
C196 C197 1.386 1_565 S
C196 H200 0.950 1_565 S
C196 C205 1.390 . S
C197 C196 1.386 1_545 S
C197 C199 1.385 1_545 S
H198 C205 0.950 . S
C199 C197 1.385 1_565 S
C199 C201 1.390 . S
C199 H203 0.950 1_554 S
H200 C196 0.950 1_545 S
C201 C199 1.390 . S
C201 C202 1.387 . S
C201 H204 0.950 . S
C202 C201 1.387 . S
C202 C205 1.387 . S
H203 C199 0.950 1_556 S
H204 C201 0.950 . S
C205 C196 1.390 . S
C205 H198 0.950 . S
C205 C202 1.387 . S
C206 C207 1.387 . S
C206 H210 0.950 . S
C206 C215 1.390 . S
C207 C206 1.387 . S
C207 C209 1.387 . S
H208 C215 0.950 . S
C209 C207 1.387 . S
C209 C211 1.390 . S
C209 H213 0.950 . S
H210 C206 0.950 . S
C211 C209 1.390 . S
C211 C212 1.387 . S
C211 H214 0.950 . S
C212 C211 1.387 . S
C212 C215 1.387 . S
H213 C209 0.950 . S
H214 C211 0.950 . S
C215 C206 1.390 . S
C215 H208 0.950 . S
C215 C212 1.387 . S
C216 C217 1.387 . S
C216 H220 0.950 . S
C216 C225 1.390 . S
C217 C216 1.387 . S
C217 C219 1.387 . S
H218 C225 0.950 . S
C219 C217 1.387 . S
C219 C221 1.390 . S
C219 H223 0.950 . S
H220 C216 0.950 . S
C221 C219 1.390 . S
C221 C222 1.387 . S
C221 H224 0.950 . S
C222 C221 1.387 . S
C222 C225 1.387 . S
H223 C219 0.950 . S
H224 C221 0.950 . S
C225 C216 1.390 . S
C225 H218 0.950 . S
C225 C222 1.387 . S
C226 C227 1.387 . S
C226 H230 0.950 . S
C226 C235 1.390 1_655 S
C227 C226 1.387 . S
C227 C229 1.391 1_556 S
H228 C235 0.950 . S
C229 C227 1.391 1_554 S
C229 C231 1.384 1_655 S
C229 H233 0.953 . S
H230 C226 0.950 . S
C231 C229 1.384 1_455 S
C231 C232 1.387 1_554 S
C231 H234 0.950 . S
C232 C231 1.387 1_556 S
C232 C235 1.387 . S
H233 C229 0.953 . S
H234 C231 0.950 . S
C235 C226 1.390 1_455 S
C235 H228 0.950 . S
C235 C232 1.387 . S
C236 C237 1.387 . S
C236 H240 0.950 . S
C236 C245 1.390 . S
C237 C236 1.387 . S
C237 C239 1.387 . S
H238 C245 0.950 . S
C239 C237 1.387 . S
C239 C241 1.390 . S
C239 H243 0.950 . S
H240 C236 0.950 . S
C241 C239 1.390 . S
C241 C242 1.387 . S
C241 H244 0.950 . S
C242 C241 1.387 . S
C242 C245 1.387 . S
H243 C239 0.950 . S
H244 C241 0.950 . S
C245 C236 1.390 . S
C245 H238 0.950 . S
C245 C242 1.387 . S
C246 C247 1.387 . S
C246 H250 0.950 . S
C246 C255 1.390 1_455 S
C247 C246 1.387 . S
C247 C249 1.387 . S
H248 C255 0.950 . S
C249 C247 1.387 . S
C249 C251 1.390 1_455 S
C249 H253 0.950 . S
H250 C246 0.950 . S
C251 C249 1.390 1_655 S
C251 C252 1.387 . S
C251 H254 0.950 . S
C252 C251 1.387 . S
C252 C255 1.387 . S
H253 C249 0.950 . S
H254 C251 0.950 . S
C255 C246 1.390 1_655 S
C255 H248 0.950 . S
C255 C252 1.387 . S
C256 C257 1.387 . S
C256 H260 0.950 . S
C256 C265 1.390 1_545 S
C257 C256 1.387 . S
C257 C259 1.387 . S
H258 C265 0.950 . S
C259 C257 1.387 . S
C259 C261 1.390 . S
C259 H263 0.950 . S
H260 C256 0.950 . S
C261 C259 1.390 . S
C261 C262 1.387 . S
C261 H264 0.950 . S
C262 C261 1.387 . S
C262 C265 1.387 1_545 S
H263 C259 0.950 . S
H264 C261 0.950 . S
C265 C256 1.390 1_565 S
C265 H258 0.950 . S
C265 C262 1.387 1_565 S
C266 C267 1.387 . S
C266 H270 0.950 . S
C266 C275 1.390 . S
C267 C266 1.387 . S
C267 C269 1.387 . S
H268 C275 0.950 . S
C269 C267 1.387 . S
C269 C271 1.390 . S
C269 H273 0.950 . S
H270 C266 0.950 . S
C271 C269 1.390 . S
C271 C272 1.387 . S
C271 H274 0.950 . S
C272 C271 1.387 . S
C272 C275 1.387 . S
H273 C269 0.950 . S
H274 C271 0.950 . S
C275 C266 1.390 . S
C275 H268 0.950 . S
C275 C272 1.387 . S
C276 C277 1.387 . S
C276 H280 0.950 1_556 S
C276 C285 1.390 . S
C277 C276 1.387 . S
C277 C279 1.387 . S
H278 C285 0.950 1_554 S
C279 C277 1.387 . S
C279 C281 1.390 . S
C279 H283 0.950 . S
H280 C276 0.950 1_554 S
C281 C279 1.390 . S
C281 C282 1.387 . S
C281 H284 0.950 . S
C282 C281 1.387 . S
C282 C285 1.387 . S
H283 C279 0.950 . S
H284 C281 0.950 . S
C285 C276 1.390 . S
C285 H278 0.950 1_556 S
C285 C282 1.387 . S
C286 C287 1.387 . S
C286 H290 0.950 . S
C286 C295 1.390 . S
C287 C286 1.387 . S
C287 C289 1.387 . S
H288 C295 0.950 . S
C289 C287 1.387 . S
C289 C291 1.390 . S
C289 H293 0.950 . S
H290 C286 0.950 . S
C291 C289 1.390 . S
C291 C292 1.387 . S
C291 H294 0.950 . S
C292 C291 1.387 . S
C292 C295 1.387 . S
H293 C289 0.950 . S
H294 C291 0.950 . S
C295 C286 1.390 . S
C295 H288 0.950 . S
C295 C292 1.387 . S
C296 C297 1.387 . S
C296 H300 0.950 . S
C296 C305 1.390 . S
C297 C296 1.387 . S
C297 C299 1.387 . S
H298 C305 0.950 . S
C299 C297 1.387 . S
C299 C301 1.390 . S
C299 H303 0.950 . S
H300 C296 0.950 . S
C301 C299 1.390 . S
C301 C302 1.387 . S
C301 H304 0.950 . S
C302 C301 1.387 . S
C302 C305 1.387 . S
H303 C299 0.950 . S
H304 C301 0.950 . S
C305 C296 1.390 . S
C305 H298 0.950 . S
C305 C302 1.387 . S
C306 C307 1.387 1_655 S
C306 H310 0.950 1_554 S
C306 C315 1.390 . S
C307 C306 1.387 1_455 S
C307 C309 1.387 1_455 S
H308 C315 0.950 . S
C309 C307 1.387 1_655 S
C309 C311 1.390 . S
C309 H313 0.950 1_655 S
H310 C306 0.950 1_556 S
C311 C309 1.390 . S
C311 C312 1.387 . S
C311 H314 0.950 . S
C312 C311 1.387 . S
C312 C315 1.387 . S
H313 C309 0.950 1_455 S
H314 C311 0.950 . S
C315 C306 1.390 . S
C315 H308 0.950 . S
C315 C312 1.387 . S
C316 C317 1.387 . S
C316 H320 0.950 . S
C316 C325 1.390 . S
C317 C316 1.387 . S
C317 C319 1.387 . S
H318 C325 0.950 . S
C319 C317 1.387 . S
C319 C321 1.390 . S
C319 H323 0.950 . S
H320 C316 0.950 . S
C321 C319 1.390 . S
C321 C322 1.387 . S
C321 H324 0.950 . S
C322 C321 1.387 . S
C322 C325 1.387 . S
H323 C319 0.950 . S
H324 C321 0.950 . S
C325 C316 1.390 . S
C325 H318 0.950 . S
C325 C322 1.387 . S
C326 C327 1.387 . S
C326 H330 0.950 . S
C326 C335 1.390 1_655 S
C327 C326 1.387 . S
C327 C329 1.387 . S
H328 C335 0.950 . S
C329 C327 1.387 . S
C329 C331 1.390 . S
C329 H333 0.950 . S
H330 C326 0.950 . S
C331 C329 1.390 . S
C331 C332 1.387 1_655 S
C331 H334 0.950 . S
C332 C331 1.387 1_455 S
C332 C335 1.387 . S
H333 C329 0.950 . S
H334 C331 0.950 . S
C335 C326 1.390 1_455 S
C335 H328 0.950 . S
C335 C332 1.387 . S
C336 C337 1.387 . S
C336 H340 0.950 . S
C336 C345 1.390 . S
C337 C336 1.387 . S
C337 C339 1.387 . S
H338 C345 0.950 . S
C339 C337 1.387 . S
C339 C341 1.390 . S
C339 H343 0.950 . S
H340 C336 0.950 . S
C341 C339 1.390 . S
C341 C342 1.387 . S
C341 H344 0.950 . S
C342 C341 1.387 . S
C342 C345 1.387 . S
H343 C339 0.950 . S
H344 C341 0.950 . S
C345 C336 1.390 . S
C345 H338 0.950 . S
C345 C342 1.387 . S
C346 C347 1.387 . S
C346 H350 0.950 . S
C346 C355 1.390 . S
C347 C346 1.387 . S
C347 C349 1.387 . S
H348 C355 0.950 . S
C349 C347 1.387 . S
C349 C351 1.390 . S
C349 H353 0.950 . S
H350 C346 0.950 . S
C351 C349 1.390 . S
C351 C352 1.387 . S
C351 H354 0.950 . S
C352 C351 1.387 . S
C352 C355 1.387 . S
H353 C349 0.950 . S
H354 C351 0.950 . S
C355 C346 1.390 . S
C355 H348 0.950 . S
C355 C352 1.387 . S
C356 C357 1.387 . S
C356 H360 0.950 . S
C356 C365 1.390 . S
C357 C356 1.387 . S
C357 C359 1.387 . S
H358 C365 0.950 . S
C359 C357 1.387 . S
C359 C361 1.390 . S
C359 H363 0.950 . S
H360 C356 0.950 . S
C361 C359 1.390 . S
C361 C362 1.387 . S
C361 H364 0.950 . S
C362 C361 1.387 . S
C362 C365 1.387 . S
H363 C359 0.950 . S
H364 C361 0.950 . S
C365 C356 1.390 . S
C365 H358 0.950 . S
C365 C362 1.387 . S
C366 C367 1.387 . S
C366 H370 0.950 . S
C366 C375 1.390 . S
C367 C366 1.387 . S
C367 C369 1.387 . S
H368 C375 0.950 . S
C369 C367 1.387 . S
C369 C371 1.390 . S
C369 H373 0.950 . S
H370 C366 0.950 . S
C371 C369 1.390 . S
C371 C372 1.387 . S
C371 H374 0.950 . S
C372 C371 1.387 . S
C372 C375 1.387 . S
H373 C369 0.950 . S
H374 C371 0.950 . S
C375 C366 1.390 . S
C375 H368 0.950 . S
C375 C372 1.387 . S
C376 C377 1.387 . S
C376 H380 0.950 . S
C376 C385 1.390 . S
C377 C376 1.387 . S
C377 C379 1.387 . S
H378 C385 0.950 . S
C379 C377 1.387 . S
C379 C381 1.390 . S
C379 H383 0.950 . S
H380 C376 0.950 . S
C381 C379 1.390 . S
C381 C382 1.387 . S
C381 H384 0.950 . S
C382 C381 1.387 . S
C382 C385 1.387 . S
H383 C379 0.950 . S
H384 C381 0.950 . S
C385 C376 1.390 . S
C385 H378 0.950 . S
C385 C382 1.387 . S
C386 C387 1.387 . S
C386 H390 0.950 . S
C386 C395 1.390 . S
C387 C386 1.387 . S
C387 C389 1.387 . S
H388 C395 0.950 . S
C389 C387 1.387 . S
C389 C391 1.390 . S
C389 H393 0.950 1_556 S
H390 C386 0.950 . S
C391 C389 1.390 . S
C391 C392 1.387 . S
C391 H394 0.950 . S
C392 C391 1.387 . S
C392 C395 1.387 . S
H393 C389 0.950 1_554 S
H394 C391 0.950 . S
C395 C386 1.390 . S
C395 H388 0.950 . S
C395 C392 1.387 . S
C396 C397 1.387 . S
C396 H400 0.950 . S
C396 C405 1.390 . S
C397 C396 1.387 . S
C397 C399 1.387 . S
H398 C405 0.950 . S
C399 C397 1.387 . S
C399 C401 1.390 . S
C399 H403 0.950 . S
H400 C396 0.950 . S
C401 C399 1.390 . S
C401 C402 1.387 . S
C401 H404 0.950 . S
C402 C401 1.387 . S
C402 C405 1.387 . S
H403 C399 0.950 . S
H404 C401 0.950 . S
C405 C396 1.390 . S
C405 H398 0.950 . S
C405 C402 1.387 . S
C406 C407 1.387 . S
C406 H410 0.950 . S
C406 C415 1.390 . S
C407 C406 1.387 . S
C407 C409 1.387 . S
H408 C415 0.950 . S
C409 C407 1.387 . S
C409 C411 1.390 . S
C409 H413 0.950 . S
H410 C406 0.950 . S
C411 C409 1.390 . S
C411 C412 1.387 . S
C411 H414 0.950 . S
C412 C411 1.387 . S
C412 C415 1.387 . S
H413 C409 0.950 . S
H414 C411 0.950 . S
C415 C406 1.390 . S
C415 H408 0.950 . S
C415 C412 1.387 . S
C177 C7 1.651 . S
C182 C95 1.530 . S
C187 C37 1.494 . S
C192 C104 1.129 . S
C197 C54 1.318 . S
C202 C115 0.992 . S
C212 C126 1.150 . S
C207 C87 1.223 . S
C222 C139 1.361 . S
C217 C30 1.359 . S
C227 C51 1.318 . S
C232 C148 0.931 . S
C237 C84 1.196 . S
C242 C159 1.081 . S
C247 C10 1.701 . S
C252 C172 1.578 . S
C257 C59 1.302 . S
C262 C170 0.919 1_545 S
C272 C137 1.192 . S
C267 C74 1.418 . S
C282 C150 1.591 . S
C277 C18 1.685 1_545 S
C287 C32 1.699 . S
C292 C161 1.701 . S
C302 C106 1.444 . S
C297 C73 1.460 . S
C307 C15 1.743 . S
C312 C117 1.655 . S
C322 C128 1.572 . S
C317 C43 1.576 . S
C332 C93 0.903 . S
C327 C62 1.284 . S
C342 C162 1.480 . S
C337 C21 1.453 . S
C352 C173 1.491 . S
C347 C29 1.544 . S
C357 C52 1.399 . S
C362 C140 1.384 . S
C372 C151 1.457 . S
C367 C81 1.553 . S
C382 C118 1.564 . S
C377 C40 1.669 . S
C387 C65 1.431 . S
C392 C129 1.420 . S
C402 C96 1.423 . S
C397 C76 1.495 . S
C412 C107 1.444 . S
C407 C8 1.490 . S
