# Generated by pormake.
# Topology gar, (4,6)-cn, num edge types: 1
# Building blocks:
#     Node 0, Type 0, BuildingBlock: AZAVOO_clean_sbu_0, # of connection points: 4
#     Node 1, Type 0, BuildingBlock: AZAVOO_clean_sbu_0, # of connection points: 4
#     Node 2, Type 0, BuildingBlock: AZAVOO_clean_sbu_0, # of connection points: 4
#     Node 3, Type 0, BuildingBlock: AZAVOO_clean_sbu_0, # of connection points: 4
#     Node 4, Type 0, BuildingBlock: AZAVOO_clean_sbu_0, # of connection points: 4
#     Node 5, Type 0, BuildingBlock: AZAVOO_clean_sbu_0, # of connection points: 4
#     Node 6, Type 0, BuildingBlock: AZAVOO_clean_sbu_0, # of connection points: 4
#     Node 7, Type 0, BuildingBlock: AZAVOO_clean_sbu_0, # of connection points: 4
#     Node 8, Type 0, BuildingBlock: AZAVOO_clean_sbu_0, # of connection points: 4
#     Node 9, Type 0, BuildingBlock: AZAVOO_clean_sbu_0, # of connection points: 4
#     Node 10, Type 0, BuildingBlock: AZAVOO_clean_sbu_0, # of connection points: 4
#     Node 11, Type 0, BuildingBlock: AZAVOO_clean_sbu_0, # of connection points: 4
#     Node 12, Type 0, BuildingBlock: AZAVOO_clean_sbu_0, # of connection points: 4
#     Node 13, Type 0, BuildingBlock: AZAVOO_clean_sbu_0, # of connection points: 4
#     Node 14, Type 0, BuildingBlock: AZAVOO_clean_sbu_0, # of connection points: 4
#     Node 15, Type 0, BuildingBlock: AZAVOO_clean_sbu_0, # of connection points: 4
#     Node 16, Type 0, BuildingBlock: AZAVOO_clean_sbu_0, # of connection points: 4
#     Node 17, Type 0, BuildingBlock: AZAVOO_clean_sbu_0, # of connection points: 4
#     Node 18, Type 0, BuildingBlock: AZAVOO_clean_sbu_0, # of connection points: 4
#     Node 19, Type 0, BuildingBlock: AZAVOO_clean_sbu_0, # of connection points: 4
#     Node 20, Type 0, BuildingBlock: AZAVOO_clean_sbu_0, # of connection points: 4
#     Node 21, Type 0, BuildingBlock: AZAVOO_clean_sbu_0, # of connection points: 4
#     Node 22, Type 0, BuildingBlock: AZAVOO_clean_sbu_0, # of connection points: 4
#     Node 23, Type 0, BuildingBlock: AZAVOO_clean_sbu_0, # of connection points: 4
#     Node 24, Type 1, BuildingBlock: KUMBUR_clean_sbu_1, # of connection points: 6
#     Node 25, Type 1, BuildingBlock: KUMBUR_clean_sbu_1, # of connection points: 6
#     Node 26, Type 1, BuildingBlock: KUMBUR_clean_sbu_1, # of connection points: 6
#     Node 27, Type 1, BuildingBlock: KUMBUR_clean_sbu_1, # of connection points: 6
#     Node 28, Type 1, BuildingBlock: KUMBUR_clean_sbu_1, # of connection points: 6
#     Node 29, Type 1, BuildingBlock: KUMBUR_clean_sbu_1, # of connection points: 6
#     Node 30, Type 1, BuildingBlock: KUMBUR_clean_sbu_1, # of connection points: 6
#     Node 31, Type 1, BuildingBlock: KUMBUR_clean_sbu_1, # of connection points: 6
#     Node 32, Type 1, BuildingBlock: KUMBUR_clean_sbu_1, # of connection points: 6
#     Node 33, Type 1, BuildingBlock: KUMBUR_clean_sbu_1, # of connection points: 6
#     Node 34, Type 1, BuildingBlock: KUMBUR_clean_sbu_1, # of connection points: 6
#     Node 35, Type 1, BuildingBlock: KUMBUR_clean_sbu_1, # of connection points: 6
#     Node 36, Type 1, BuildingBlock: KUMBUR_clean_sbu_1, # of connection points: 6
#     Node 37, Type 1, BuildingBlock: KUMBUR_clean_sbu_1, # of connection points: 6
#     Node 38, Type 1, BuildingBlock: KUMBUR_clean_sbu_1, # of connection points: 6
#     Node 39, Type 1, BuildingBlock: KUMBUR_clean_sbu_1, # of connection points: 6
#     Edge 40, Type (0, 1), BuildingBlock: XIVTED_clean_linker_0, # of connection points: 2
#     Edge 41, Type (0, 1), BuildingBlock: XIVTED_clean_linker_0, # of connection points: 2
#     Edge 42, Type (0, 1), BuildingBlock: XIVTED_clean_linker_0, # of connection points: 2
#     Edge 43, Type (0, 1), BuildingBlock: XIVTED_clean_linker_0, # of connection points: 2
#     Edge 44, Type (0, 1), BuildingBlock: XIVTED_clean_linker_0, # of connection points: 2
#     Edge 45, Type (0, 1), BuildingBlock: XIVTED_clean_linker_0, # of connection points: 2
#     Edge 46, Type (0, 1), BuildingBlock: XIVTED_clean_linker_0, # of connection points: 2
#     Edge 47, Type (0, 1), BuildingBlock: XIVTED_clean_linker_0, # of connection points: 2
#     Edge 48, Type (0, 1), BuildingBlock: XIVTED_clean_linker_0, # of connection points: 2
#     Edge 49, Type (0, 1), BuildingBlock: XIVTED_clean_linker_0, # of connection points: 2
#     Edge 50, Type (0, 1), BuildingBlock: XIVTED_clean_linker_0, # of connection points: 2
#     Edge 51, Type (0, 1), BuildingBlock: XIVTED_clean_linker_0, # of connection points: 2
#     Edge 52, Type (0, 1), BuildingBlock: XIVTED_clean_linker_0, # of connection points: 2
#     Edge 53, Type (0, 1), BuildingBlock: XIVTED_clean_linker_0, # of connection points: 2
#     Edge 54, Type (0, 1), BuildingBlock: XIVTED_clean_linker_0, # of connection points: 2
#     Edge 55, Type (0, 1), BuildingBlock: XIVTED_clean_linker_0, # of connection points: 2
#     Edge 56, Type (0, 1), BuildingBlock: XIVTED_clean_linker_0, # of connection points: 2
#     Edge 57, Type (0, 1), BuildingBlock: XIVTED_clean_linker_0, # of connection points: 2
#     Edge 58, Type (0, 1), BuildingBlock: XIVTED_clean_linker_0, # of connection points: 2
#     Edge 59, Type (0, 1), BuildingBlock: XIVTED_clean_linker_0, # of connection points: 2
#     Edge 60, Type (0, 1), BuildingBlock: XIVTED_clean_linker_0, # of connection points: 2
#     Edge 61, Type (0, 1), BuildingBlock: XIVTED_clean_linker_0, # of connection points: 2
#     Edge 62, Type (0, 1), BuildingBlock: XIVTED_clean_linker_0, # of connection points: 2
#     Edge 63, Type (0, 1), BuildingBlock: XIVTED_clean_linker_0, # of connection points: 2
#     Edge 64, Type (0, 1), BuildingBlock: XIVTED_clean_linker_0, # of connection points: 2
#     Edge 65, Type (0, 1), BuildingBlock: XIVTED_clean_linker_0, # of connection points: 2
#     Edge 66, Type (0, 1), BuildingBlock: XIVTED_clean_linker_0, # of connection points: 2
#     Edge 67, Type (0, 1), BuildingBlock: XIVTED_clean_linker_0, # of connection points: 2
#     Edge 68, Type (0, 1), BuildingBlock: XIVTED_clean_linker_0, # of connection points: 2
#     Edge 69, Type (0, 1), BuildingBlock: XIVTED_clean_linker_0, # of connection points: 2
#     Edge 70, Type (0, 1), BuildingBlock: XIVTED_clean_linker_0, # of connection points: 2
#     Edge 71, Type (0, 1), BuildingBlock: XIVTED_clean_linker_0, # of connection points: 2
#     Edge 72, Type (0, 1), BuildingBlock: XIVTED_clean_linker_0, # of connection points: 2
#     Edge 73, Type (0, 1), BuildingBlock: XIVTED_clean_linker_0, # of connection points: 2
#     Edge 74, Type (0, 1), BuildingBlock: XIVTED_clean_linker_0, # of connection points: 2
#     Edge 75, Type (0, 1), BuildingBlock: XIVTED_clean_linker_0, # of connection points: 2
#     Edge 76, Type (0, 1), BuildingBlock: XIVTED_clean_linker_0, # of connection points: 2
#     Edge 77, Type (0, 1), BuildingBlock: XIVTED_clean_linker_0, # of connection points: 2
#     Edge 78, Type (0, 1), BuildingBlock: XIVTED_clean_linker_0, # of connection points: 2
#     Edge 79, Type (0, 1), BuildingBlock: XIVTED_clean_linker_0, # of connection points: 2
#     Edge 80, Type (0, 1), BuildingBlock: XIVTED_clean_linker_0, # of connection points: 2
#     Edge 81, Type (0, 1), BuildingBlock: XIVTED_clean_linker_0, # of connection points: 2
#     Edge 82, Type (0, 1), BuildingBlock: XIVTED_clean_linker_0, # of connection points: 2
#     Edge 83, Type (0, 1), BuildingBlock: XIVTED_clean_linker_0, # of connection points: 2
#     Edge 84, Type (0, 1), BuildingBlock: XIVTED_clean_linker_0, # of connection points: 2
#     Edge 85, Type (0, 1), BuildingBlock: XIVTED_clean_linker_0, # of connection points: 2
#     Edge 86, Type (0, 1), BuildingBlock: XIVTED_clean_linker_0, # of connection points: 2
#     Edge 87, Type (0, 1), BuildingBlock: XIVTED_clean_linker_0, # of connection points: 2
#     Edge 88, Type (0, 1), BuildingBlock: XIVTED_clean_linker_0, # of connection points: 2
#     Edge 89, Type (0, 1), BuildingBlock: XIVTED_clean_linker_0, # of connection points: 2
#     Edge 90, Type (0, 1), BuildingBlock: XIVTED_clean_linker_0, # of connection points: 2
#     Edge 91, Type (0, 1), BuildingBlock: XIVTED_clean_linker_0, # of connection points: 2
#     Edge 92, Type (0, 1), BuildingBlock: XIVTED_clean_linker_0, # of connection points: 2
#     Edge 93, Type (0, 1), BuildingBlock: XIVTED_clean_linker_0, # of connection points: 2
#     Edge 94, Type (0, 1), BuildingBlock: XIVTED_clean_linker_0, # of connection points: 2
#     Edge 95, Type (0, 1), BuildingBlock: XIVTED_clean_linker_0, # of connection points: 2
#     Edge 96, Type (0, 1), BuildingBlock: XIVTED_clean_linker_0, # of connection points: 2
#     Edge 97, Type (0, 1), BuildingBlock: XIVTED_clean_linker_0, # of connection points: 2
#     Edge 98, Type (0, 1), BuildingBlock: XIVTED_clean_linker_0, # of connection points: 2
#     Edge 99, Type (0, 1), BuildingBlock: XIVTED_clean_linker_0, # of connection points: 2
#     Edge 100, Type (0, 1), BuildingBlock: XIVTED_clean_linker_0, # of connection points: 2
#     Edge 101, Type (0, 1), BuildingBlock: XIVTED_clean_linker_0, # of connection points: 2
#     Edge 102, Type (0, 1), BuildingBlock: XIVTED_clean_linker_0, # of connection points: 2
#     Edge 103, Type (0, 1), BuildingBlock: XIVTED_clean_linker_0, # of connection points: 2
#     Edge 104, Type (0, 1), BuildingBlock: XIVTED_clean_linker_0, # of connection points: 2
#     Edge 105, Type (0, 1), BuildingBlock: XIVTED_clean_linker_0, # of connection points: 2
#     Edge 106, Type (0, 1), BuildingBlock: XIVTED_clean_linker_0, # of connection points: 2
#     Edge 107, Type (0, 1), BuildingBlock: XIVTED_clean_linker_0, # of connection points: 2
#     Edge 108, Type (0, 1), BuildingBlock: XIVTED_clean_linker_0, # of connection points: 2
#     Edge 109, Type (0, 1), BuildingBlock: XIVTED_clean_linker_0, # of connection points: 2
#     Edge 110, Type (0, 1), BuildingBlock: XIVTED_clean_linker_0, # of connection points: 2
#     Edge 111, Type (0, 1), BuildingBlock: XIVTED_clean_linker_0, # of connection points: 2
#     Edge 112, Type (0, 1), BuildingBlock: XIVTED_clean_linker_0, # of connection points: 2
#     Edge 113, Type (0, 1), BuildingBlock: XIVTED_clean_linker_0, # of connection points: 2
#     Edge 114, Type (0, 1), BuildingBlock: XIVTED_clean_linker_0, # of connection points: 2
#     Edge 115, Type (0, 1), BuildingBlock: XIVTED_clean_linker_0, # of connection points: 2
#     Edge 116, Type (0, 1), BuildingBlock: XIVTED_clean_linker_0, # of connection points: 2
#     Edge 117, Type (0, 1), BuildingBlock: XIVTED_clean_linker_0, # of connection points: 2
#     Edge 118, Type (0, 1), BuildingBlock: XIVTED_clean_linker_0, # of connection points: 2
#     Edge 119, Type (0, 1), BuildingBlock: XIVTED_clean_linker_0, # of connection points: 2
#     Edge 120, Type (0, 1), BuildingBlock: XIVTED_clean_linker_0, # of connection points: 2
#     Edge 121, Type (0, 1), BuildingBlock: XIVTED_clean_linker_0, # of connection points: 2
#     Edge 122, Type (0, 1), BuildingBlock: XIVTED_clean_linker_0, # of connection points: 2
#     Edge 123, Type (0, 1), BuildingBlock: XIVTED_clean_linker_0, # of connection points: 2
#     Edge 124, Type (0, 1), BuildingBlock: XIVTED_clean_linker_0, # of connection points: 2
#     Edge 125, Type (0, 1), BuildingBlock: XIVTED_clean_linker_0, # of connection points: 2
#     Edge 126, Type (0, 1), BuildingBlock: XIVTED_clean_linker_0, # of connection points: 2
#     Edge 127, Type (0, 1), BuildingBlock: XIVTED_clean_linker_0, # of connection points: 2
#     Edge 128, Type (0, 1), BuildingBlock: XIVTED_clean_linker_0, # of connection points: 2
#     Edge 129, Type (0, 1), BuildingBlock: XIVTED_clean_linker_0, # of connection points: 2
#     Edge 130, Type (0, 1), BuildingBlock: XIVTED_clean_linker_0, # of connection points: 2
#     Edge 131, Type (0, 1), BuildingBlock: XIVTED_clean_linker_0, # of connection points: 2
#     Edge 132, Type (0, 1), BuildingBlock: XIVTED_clean_linker_0, # of connection points: 2
#     Edge 133, Type (0, 1), BuildingBlock: XIVTED_clean_linker_0, # of connection points: 2
#     Edge 134, Type (0, 1), BuildingBlock: XIVTED_clean_linker_0, # of connection points: 2
#     Edge 135, Type (0, 1), BuildingBlock: XIVTED_clean_linker_0, # of connection points: 2
# Relax obj value: 0.101
# Max RMSD: 0.211
# Mean RMSD: 0.152
data_MOF--net-gar--node1-AZAVOO_clean_sbu_0--node2-KUMBUR_clean_sbu_1--edge1-XIVTED_clean_linker_0
_symmetry_space_group_name_H-M    P1
_symmetry_Int_Tables_number       1
_symmetry_cell_setting            triclinic
loop_
_symmetry_equiv_pos_as_xyz
'x, y, z'
_cell_length_a     61.213757
_cell_length_b     58.993504
_cell_length_c     56.199721
_cell_angle_alpha  98.602856
_cell_angle_beta   95.924792
_cell_angle_gamma 102.52574
loop_
_atom_site_label
_atom_site_type_symbol
_atom_site_fract_x
_atom_site_fract_y
_atom_site_fract_z
_atom_type_partial_charge
Mg0 Mg 0.04134 0.30656 0.34208 0.0
O1 O 0.04583 0.34227 0.37044 0.0
O2 O 0.0166 0.33481 0.39132 0.0
Mg3 Mg 0.99235 0.29913 0.37838 0.0
C4 C 0.03454 0.3485 0.38736 0.0
C5 C 0.09075 0.29844 0.32922 0.0
O6 O 0.07913 0.2771 0.32995 0.0
O7 O 0.05018 0.28517 0.37258 0.0
O8 O 0.01929 0.28115 0.39124 0.0
O9 O 0.0144 0.31678 0.31421 0.0
O10 O 1.00495 0.29863 0.34342 0.0
C11 C 0.03862 0.27716 0.38865 0.0
C12 C 0.99833 0.30729 0.32533 0.0
O13 O 0.08068 0.31541 0.33339 0.0
Mg14 Mg 0.02124 0.75849 0.71151 0.0
O15 O 0.02566 0.73005 0.68007 0.0
O16 O 0.99124 0.7193 0.65821 0.0
Mg17 Mg 0.96689 0.74228 0.66992 0.0
C18 C 0.01139 0.71675 0.66256 0.0
C19 C 0.07279 0.76002 0.73563 0.0
O20 O 0.06112 0.74338 0.74555 0.0
O21 O 0.02187 0.78596 0.68594 0.0
O22 O 0.98966 0.77525 0.6601 0.0
O23 O 1.00154 0.77874 0.73767 0.0
O24 O 0.98443 0.75087 0.70763 0.0
C25 C 0.00899 0.7892 0.66796 0.0
C26 C 0.98258 0.7662 0.72555 0.0
O27 O 0.06182 0.77041 0.72175 0.0
Mg28 Mg 0.54342 0.80654 0.84332 0.0
O29 O 0.54792 0.84103 0.87353 0.0
O30 O 0.51881 0.83188 0.89418 0.0
Mg31 Mg 0.4951 0.79604 0.87998 0.0
C32 C 0.53657 0.84624 0.89077 0.0
C33 C 0.58976 0.80017 0.8212 0.0
O34 O 0.57491 0.78069 0.81076 0.0
O35 O 0.55315 0.78416 0.8718 0.0
O36 O 0.52273 0.77806 0.8912 0.0
O37 O 0.51641 0.81824 0.81709 0.0
O38 O 0.50715 0.79808 0.84496 0.0
C39 C 0.54219 0.77501 0.88763 0.0
C40 C 0.50044 0.80795 0.82786 0.0
O41 O 0.58268 0.81552 0.8353 0.0
Mg42 Mg 0.5189 0.25615 0.20859 0.0
O43 O 0.52319 0.22784 0.17667 0.0
O44 O 0.48893 0.21712 0.1546 0.0
Mg45 Mg 0.46464 0.24022 0.16669 0.0
C46 C 0.50911 0.21461 0.15894 0.0
C47 C 0.571 0.26476 0.23845 0.0
O48 O 0.55975 0.25794 0.25583 0.0
O49 O 0.51981 0.28402 0.18324 0.0
O50 O 0.48761 0.2731 0.15726 0.0
O51 O 0.49948 0.27611 0.2356 0.0
O52 O 0.48201 0.24981 0.20452 0.0
C53 C 0.50688 0.28715 0.1652 0.0
C54 C 0.48035 0.26475 0.22294 0.0
O55 O 0.55968 0.26685 0.21868 0.0
Mg56 Mg 0.06983 0.80695 0.12154 0.0
O57 O 0.06512 0.76954 0.09586 0.0
O58 O 0.0302 0.76127 0.07583 0.0
Mg59 Mg 0.01319 0.79242 0.08559 0.0
C60 C 0.04866 0.75524 0.0813 0.0
C61 C 0.11491 0.81371 0.15639 0.0
O62 O 0.10084 0.82078 0.17033 0.0
O63 O 0.07236 0.83438 0.09342 0.0
O64 O 0.03664 0.82479 0.07475 0.0
O65 O 0.05272 0.78861 0.14987 0.0
O66 O 0.0343 0.80169 0.12146 0.0
C67 C 0.05644 0.83853 0.07887 0.0
C68 C 0.03372 0.79139 0.13999 0.0
O69 O 0.10827 0.80798 0.13348 0.0
Mg70 Mg 0.50341 0.76775 0.4307 0.0
O71 O 0.5089 0.80424 0.45718 0.0
O72 O 0.47972 0.80059 0.47795 0.0
Mg73 Mg 0.45621 0.76281 0.46402 0.0
C74 C 0.49777 0.81319 0.47269 0.0
C75 C 0.54566 0.76483 0.40572 0.0
O76 O 0.53086 0.74543 0.39498 0.0
O77 O 0.51129 0.74299 0.45845 0.0
O78 O 0.47907 0.73717 0.47422 0.0
O79 O 0.48511 0.78348 0.40347 0.0
O80 O 0.46724 0.76172 0.4273 0.0
C81 C 0.49789 0.73172 0.47117 0.0
C82 C 0.46621 0.77435 0.41048 0.0
O83 O 0.54019 0.77805 0.42304 0.0
Mg84 Mg 0.56747 0.30977 0.62323 0.0
O85 O 0.56275 0.27239 0.59819 0.0
O86 O 0.52852 0.26441 0.57668 0.0
Mg87 Mg 0.51121 0.29522 0.58701 0.0
C88 C 0.54675 0.25824 0.58295 0.0
C89 C 0.61265 0.31701 0.65746 0.0
O90 O 0.59849 0.3237 0.67151 0.0
O91 O 0.57049 0.33642 0.59458 0.0
O92 O 0.53486 0.32713 0.57573 0.0
O93 O 0.55051 0.29093 0.65115 0.0
O94 O 0.53212 0.30455 0.62306 0.0
C95 C 0.55479 0.34057 0.57978 0.0
C96 C 0.53151 0.29381 0.6413 0.0
O97 O 0.60588 0.31106 0.63461 0.0
Mg98 Mg 1.00101 0.2636 0.92813 0.0
O99 O 0.00769 0.30009 0.95504 0.0
O100 O 0.97744 0.29719 0.97414 0.0
Mg101 Mg 0.95381 0.2594 0.96132 0.0
C102 C 0.99605 0.30942 0.96967 0.0
C103 C 0.0426 0.26023 0.90224 0.0
O104 O 0.02652 0.24309 0.88918 0.0
O105 O 0.00843 0.23894 0.95576 0.0
O106 O 0.97641 0.23337 0.97188 0.0
O107 O 0.98324 0.28008 0.90108 0.0
O108 O 0.96482 0.25853 0.92469 0.0
C109 C 0.99519 0.22786 0.9687 0.0
C110 C 0.96418 0.27147 0.90809 0.0
O111 O 0.03794 0.27236 0.92093 0.0
Mg112 Mg 0.39836 0.0368 0.30693 0.0
O113 O 0.37754 0.99994 0.3053 0.0
O114 O 0.36016 0.99912 0.33838 0.0
Mg115 Mg 0.37245 0.03519 0.36275 0.0
C116 C 0.36403 0.98923 0.31797 0.0
C117 C 0.41013 0.01113 0.26162 0.0
O118 O 0.41575 0.99957 0.27862 0.0
O119 O 0.3663 0.04735 0.29933 0.0
O120 O 0.35206 0.04978 0.33456 0.0
O121 O 0.4279 0.02774 0.32462 0.0
O122 O 0.40251 0.04185 0.34408 0.0
C123 C 0.35132 0.05182 0.31219 0.0
C124 C 0.42004 0.03306 0.34471 0.0
O125 O 0.40106 0.02824 0.26713 0.0
Mg126 Mg 0.27266 0.17431 0.50634 0.0
O127 O 0.27643 0.19999 0.54315 0.0
O128 O 0.31251 0.22004 0.5501 0.0
Mg129 Mg 0.3305 0.20982 0.51764 0.0
C130 C 0.29296 0.21497 0.5567 0.0
C131 C 0.22871 0.14042 0.50148 0.0
O132 O 0.24397 0.12851 0.4965 0.0
O133 O 0.27121 0.20228 0.48262 0.0
O134 O 0.30756 0.22181 0.48885 0.0
O135 O 0.28425 0.14871 0.52622 0.0
O136 O 0.30728 0.17465 0.51017 0.0
C137 C 0.28736 0.21798 0.47793 0.0
C138 C 0.30451 0.15762 0.52233 0.0
O139 O 0.23463 0.16286 0.5057 0.0
Mg140 Mg 0.1344 0.04934 0.79531 0.0
O141 O 0.16059 0.08466 0.80119 0.0
O142 O 0.18339 0.08799 0.83591 0.0
Mg143 Mg 0.17171 0.05531 0.85281 0.0
C144 C 0.17747 0.09589 0.81693 0.0
C145 C 0.11266 0.03502 0.74111 0.0
O146 O 0.10905 0.0145 0.7483 0.0
O147 O 0.1613 0.03015 0.78453 0.0
O148 O 0.18126 0.03237 0.82088 0.0
O149 O 0.11078 0.06414 0.81802 0.0
O150 O 0.13786 0.04859 0.83236 0.0
C151 C 0.17702 0.02496 0.79794 0.0
C152 C 0.12134 0.0581 0.83636 0.0
O153 O 0.12338 0.05331 0.75619 0.0
Mg154 Mg 0.30421 0.95962 0.01552 0.0
O155 O 0.3095 0.93487 0.98247 0.0
O156 O 0.3402 0.9216 0.99194 0.0
Mg157 Mg 0.35354 0.93663 0.03159 0.0
C158 C 0.32349 0.92248 0.97685 0.0
C159 C 0.2668 0.97534 0.98566 0.0
O160 O 0.284 0.99241 0.98387 0.0
O161 O 0.2894 0.92809 0.03215 0.0
O162 O 0.32074 0.91534 0.04064 0.0
O163 O 0.32783 0.98975 0.00518 0.0
O164 O 0.3376 0.96627 0.0295 0.0
C165 C 0.29951 0.91341 0.04008 0.0
C166 C 0.34348 0.98338 0.01804 0.0
O167 O 0.27015 0.95897 0.99678 0.0
Mg168 Mg 0.30224 0.40244 0.04772 0.0
O169 O 0.29943 0.3759 0.01184 0.0
O170 O 0.32846 0.35889 0.01571 0.0
Mg171 Mg 0.34993 0.37468 0.05294 0.0
C172 C 0.31087 0.36163 0.00324 0.0
C173 C 0.25588 0.41683 0.05075 0.0
O174 O 0.26392 0.4226 0.07399 0.0
O175 O 0.29083 0.37429 0.07124 0.0
O176 O 0.32211 0.36065 0.07532 0.0
O177 O 0.32359 0.42989 0.03147 0.0
O178 O 0.33733 0.40694 0.05366 0.0
C179 C 0.30244 0.3614 0.08066 0.0
C180 C 0.34092 0.42328 0.04073 0.0
O181 O 0.26684 0.40671 0.03621 0.0
Mg182 Mg 0.78633 0.11448 0.03838 0.0
O183 O 0.77219 0.13284 0.07069 0.0
O184 O 0.80056 0.16502 0.08488 0.0
Mg185 Mg 0.83153 0.16606 0.06571 0.0
C186 C 0.78082 0.15242 0.08524 0.0
C187 C 0.73348 0.08284 0.01974 0.0
O188 O 0.7203 0.06806 0.00144 0.0
O189 O 0.78118 0.14293 0.01794 0.0
O190 O 0.81046 0.17346 0.0328 0.0
O191 O 0.80122 0.0923 0.06091 0.0
O192 O 0.81794 0.12813 0.05636 0.0
C193 C 0.79249 0.16373 0.01794 0.0
C194 C 0.81901 0.10966 0.06553 0.0
O195 O 0.75397 0.09064 0.01761 0.0
Mg196 Mg 0.17771 0.53287 0.2468 0.0
O197 O 0.19586 0.57065 0.2622 0.0
O198 O 0.21017 0.57582 0.30123 0.0
Mg199 Mg 0.20151 0.53898 0.31052 0.0
C200 C 0.20655 0.58383 0.28175 0.0
C201 C 0.16701 0.55979 0.20792 0.0
O202 O 0.16328 0.57223 0.22784 0.0
O203 O 0.2109 0.5243 0.24382 0.0
O204 O 0.22396 0.52689 0.283 0.0
O205 O 0.14625 0.53881 0.2577 0.0
O206 O 0.17178 0.52801 0.28177 0.0
C207 C 0.22596 0.52276 0.26042 0.0
C208 C 0.15302 0.53458 0.2788 0.0
O209 O 0.1752 0.54196 0.20951 0.0
Mg210 Mg 0.80583 0.89694 0.5467 0.0
O211 O 0.80289 0.86927 0.51162 0.0
O212 O 0.83439 0.85617 0.51598 0.0
Mg213 Mg 0.85558 0.87295 0.55305 0.0
C214 C 0.81598 0.85672 0.50335 0.0
C215 C 0.76873 0.92086 0.5413 0.0
O216 O 0.78744 0.93728 0.54889 0.0
O217 O 0.79651 0.87014 0.57169 0.0
O218 O 0.82888 0.85872 0.57686 0.0
O219 O 0.82486 0.92414 0.52831 0.0
O220 O 0.84086 0.90351 0.55162 0.0
C221 C 0.80905 0.85878 0.58214 0.0
C222 C 0.84302 0.91906 0.53769 0.0
O223 O 0.7698 0.89939 0.53786 0.0
Mg224 Mg 0.94339 0.0276 0.26952 0.0
O225 O 0.91642 0.99313 0.26969 0.0
O226 O 0.90191 1.00016 0.30428 0.0
Mg227 Mg 0.91789 0.03688 0.32549 0.0
C228 C 0.90278 0.98669 0.28457 0.0
C229 C 0.95944 0.03573 0.22301 0.0
O230 O 0.96602 0.05545 0.23894 0.0
O231 O 0.91571 0.04624 0.25916 0.0
O232 O 0.9017 0.05121 0.29439 0.0
O233 O 0.96949 0.01458 0.29156 0.0
O234 O 0.94728 0.03607 0.30699 0.0
C235 C 0.90187 0.05352 0.27218 0.0
C236 C 0.96277 0.02492 0.31048 0.0
O237 O 0.94784 0.01768 0.22964 0.0
Mg238 Mg 0.27894 0.61501 0.54391 0.0
O239 O 0.28527 0.64393 0.57691 0.0
O240 O 0.31722 0.67039 0.57527 0.0
Mg241 Mg 0.33272 0.65616 0.54269 0.0
C242 C 0.29982 0.6632 0.58525 0.0
C243 C 0.23612 0.58145 0.5515 0.0
O244 O 0.24878 0.56661 0.54598 0.0
O245 O 0.26949 0.6403 0.51998 0.0
O246 O 0.30349 0.6631 0.51861 0.0
O247 O 0.29719 0.5941 0.56472 0.0
O248 O 0.313 0.62059 0.54358 0.0
C249 C 0.28212 0.65709 0.51229 0.0
C250 C 0.3152 0.60617 0.55825 0.0
O251 O 0.24351 0.60319 0.5512 0.0
Mg252 Mg 0.44613 0.52883 0.76985 0.0
O253 O 0.41819 0.49432 0.76663 0.0
O254 O 0.40171 0.49984 0.80021 0.0
Mg255 Mg 0.41832 0.53459 0.82489 0.0
C256 C 0.40327 0.48744 0.78007 0.0
C257 C 0.45338 0.53876 0.71814 0.0
O258 O 0.45123 0.55923 0.72925 0.0
O259 O 0.4193 0.54914 0.76111 0.0
O260 O 0.40467 0.55282 0.79596 0.0
O261 O 0.47136 0.51349 0.79047 0.0
O262 O 0.44834 0.53289 0.80745 0.0
C263 C 0.40568 0.5566 0.77432 0.0
C264 C 0.46337 0.52091 0.80984 0.0
O265 O 0.45135 0.52153 0.72965 0.0
Mg266 Mg 0.6751 0.0394 0.72925 0.0
O267 O 0.6952 0.07228 0.75248 0.0
O268 O 0.69786 0.07545 0.79253 0.0
Mg269 Mg 0.67968 0.03761 0.79464 0.0
C270 C 0.70236 0.08402 0.77363 0.0
C271 C 0.68962 0.06308 0.6812 0.0
O272 O 0.70643 0.0718 0.66993 0.0
O273 O 0.70393 0.02282 0.73589 0.0
O274 O 0.70764 0.02506 0.77626 0.0
O275 O 0.64396 0.05323 0.73512 0.0
O276 O 0.65831 0.03167 0.75851 0.0
C277 C 0.71442 0.02045 0.75572 0.0
C278 C 0.64371 0.04371 0.75446 0.0
O279 O 0.69389 0.05413 0.69975 0.0
Mg280 Mg 0.77182 0.67583 0.00665 0.0
O281 O 0.77635 0.70004 0.04451 0.0
O282 O 0.81215 0.72089 0.05114 0.0
Mg283 Mg 0.82986 0.71196 0.01815 0.0
C284 C 0.79282 0.71508 0.05807 0.0
C285 C 0.72173 0.64909 0.99073 0.0
O286 O 0.73058 0.64219 0.97139 0.0
O287 O 0.76974 0.70552 0.98445 0.0
O288 O 0.80635 0.72392 0.99064 0.0
O289 O 0.78516 0.64874 0.02394 0.0
O290 O 0.80634 0.67716 0.0093 0.0
C291 C 0.78623 0.72105 0.97994 0.0
C292 C 0.80497 0.65924 0.02001 0.0
O293 O 0.73404 0.66455 0.00786 0.0
Mg294 Mg 0.89397 0.53421 0.81024 0.0
O295 O 0.86444 0.50227 0.80389 0.0
O296 O 0.84863 0.50137 0.83793 0.0
Mg297 Mg 0.86617 0.53464 0.86478 0.0
C298 C 0.85006 0.49236 0.8162 0.0
C299 C 0.89412 0.50934 0.75788 0.0
O300 O 0.88857 0.49073 0.76817 0.0
O301 O 0.87084 0.55743 0.80677 0.0
O302 O 0.85335 0.55807 0.83989 0.0
O303 O 0.91554 0.51288 0.8239 0.0
O304 O 0.89651 0.53379 0.84663 0.0
C305 C 0.857 0.56451 0.8197 0.0
C306 C 0.90894 0.51867 0.84469 0.0
O307 O 0.89666 0.52975 0.77035 0.0
Mg308 Mg 0.80663 0.44984 0.51817 0.0
O309 O 0.80881 0.42621 0.4828 0.0
O310 O 0.84035 0.41327 0.48814 0.0
Mg311 Mg 0.85654 0.42609 0.52718 0.0
C312 C 0.82261 0.41453 0.47486 0.0
C313 C 0.76665 0.46314 0.48957 0.0
O314 O 0.78307 0.47791 0.48262 0.0
O315 O 0.79386 0.41767 0.53471 0.0
O316 O 0.82522 0.4041 0.53837 0.0
O317 O 0.82818 0.48016 0.50606 0.0
O318 O 0.84095 0.45631 0.52801 0.0
C319 C 0.80437 0.40238 0.54027 0.0
C320 C 0.84509 0.47326 0.51592 0.0
O321 O 0.77132 0.44945 0.50366 0.0
Mg322 Mg 0.63492 0.5455 0.29345 0.0
O323 O 0.66176 0.58036 0.29895 0.0
O324 O 0.68397 0.58313 0.33394 0.0
Mg325 Mg 0.6705 0.55159 0.35202 0.0
C326 C 0.67882 0.59108 0.31472 0.0
C327 C 0.604 0.54502 0.24626 0.0
O328 O 0.58942 0.5403 0.26148 0.0
O329 O 0.66184 0.52557 0.28438 0.0
O330 O 0.68007 0.52697 0.32153 0.0
O331 O 0.61104 0.5616 0.31474 0.0
O332 O 0.6373 0.54584 0.33057 0.0
C333 C 0.67648 0.51962 0.29858 0.0
C334 C 0.62098 0.55591 0.33367 0.0
O335 O 0.62497 0.54829 0.25378 0.0
Tb336 Tb 0.06138 0.05266 0.04196 0.0
C337 C 0.99802 0.96432 0.97529 0.0
N338 N 1.00674 0.98678 0.97222 0.0
C339 C 0.01629 0.97202 0.9334 0.0
C340 C 0.99919 0.9448 0.95801 0.0
C341 C 0.01476 0.9908 0.95102 0.0
C342 C 0.0088 0.94891 0.93707 0.0
C343 C 0.97829 0.93784 0.99939 0.0
C344 C 0.98762 0.96089 0.99571 0.0
C345 C 0.98008 0.91837 0.98263 0.0
C346 C 0.99045 0.92184 0.96196 0.0
Tb347 Tb 1.00324 0.01584 0.0025 0.0
N348 N 0.98616 0.98012 0.01161 0.0
C349 C 0.96701 0.93499 0.01954 0.0
C350 C 0.97365 0.97729 0.0303 0.0
C351 C 0.96438 0.95481 0.03483 0.0
H352 H 0.01932 0.00834 0.94703 0.0
H353 H 0.95487 0.9528 0.0499 0.0
H354 H 0.05503 0.06256 0.10095 0.0
H355 H 0.10703 0.10993 0.988 0.0
H356 H 0.97009 0.99223 0.04146 0.0
H357 H 0.95964 0.91757 0.02299 0.0
H358 H 0.08953 0.07175 0.99868 0.0
H359 H 0.02292 0.9754 0.91682 0.0
H360 H 0.97313 0.90055 0.98525 0.0
H361 H 0.99134 0.90664 0.94897 0.0
H362 H 0.05868 0.09717 0.13302 0.0
H363 H 0.00992 0.93439 0.92333 0.0
H364 H 0.10827 0.14703 0.01589 0.0
N365 N 0.06471 0.08303 0.07387 0.0
C366 C 0.07332 0.10494 0.06933 0.0
C367 C 0.06264 0.09964 0.11511 0.0
C368 C 0.07602 0.12519 0.08723 0.0
C369 C 0.06047 0.08009 0.09684 0.0
C370 C 0.07009 0.12232 0.11018 0.0
N371 N 0.07917 0.08694 0.03098 0.0
C372 C 0.08921 0.08776 0.01041 0.0
C373 C 0.09125 0.12921 0.04224 0.0
C374 C 0.08094 0.10696 0.04721 0.0
C375 C 0.1002 0.13028 0.02038 0.0
C376 C 0.0995 0.1094 0.00457 0.0
H377 H 0.07192 0.13743 0.12443 0.0
H378 H 0.0873 0.16332 0.09542 0.0
H379 H 0.10056 0.16683 0.05596 0.0
O380 O 0.09464 0.05118 0.03777 0.0
O381 O 0.04463 0.07284 0.01893 0.0
O382 O 1.00666 0.05466 0.01575 0.0
O383 O 0.08282 0.04933 0.07224 0.0
O384 O 0.06072 0.03226 0.00565 0.0
O385 O 0.02822 0.03603 0.98444 0.0
O386 O 0.96819 0.01108 0.00066 0.0
O387 O 0.02937 0.99609 0.01075 0.0
O388 O 0.04751 0.01622 0.04821 0.0
O389 O 0.98469 0.01935 0.97014 0.0
O390 O 1.00339 0.02073 0.04185 0.0
O391 O 0.03128 0.05392 0.05946 0.0
C392 C 0.02313 0.07339 0.01497 0.0
C393 C 0.10894 0.02685 0.06158 0.0
C394 C 0.13268 1.00172 0.04585 0.0
C395 C 0.1275 0.9876 0.06349 0.0
C396 C 0.1043 0.01299 0.07955 0.0
C397 C 0.11338 0.9933 0.08029 0.0
C398 C 0.1232 0.02115 0.04494 0.0
C399 C 0.04954 0.03552 0.98568 0.0
C400 C 0.09911 0.04721 0.05967 0.0
C401 C 0.08531 0.14753 0.08198 0.0
C402 C 0.09289 0.14954 0.05952 0.0
C403 C 0.04049 0.99633 0.03227 0.0
C404 C 0.95459 0.03686 0.97799 0.0
C405 C 0.93479 0.06478 0.99692 0.0
C406 C 0.93452 0.07509 0.97594 0.0
C407 C 0.95398 0.04713 0.95703 0.0
C408 C 0.94492 0.04579 0.99781 0.0
C409 C 0.94406 0.06623 0.95609 0.0
C410 C 0.01326 0.03749 0.06027 0.0
C411 C 0.96606 0.01756 0.97961 0.0
H412 H 0.1348 0.97259 0.06471 0.0
H413 H 0.09356 0.0172 0.09288 0.0
H414 H 0.10961 0.98254 0.09402 0.0
H415 H 0.12687 0.03185 0.03109 0.0
H416 H 0.92656 0.08966 0.9747 0.0
H417 H 0.96136 0.04053 0.94149 0.0
H418 H 0.94553 0.03823 0.01423 0.0
H419 H 0.94368 0.07413 0.93992 0.0
Tb420 Tb 0.27128 0.78081 0.30747 0.0
C421 C 0.32735 0.74043 0.22148 0.0
N422 N 0.33275 0.75779 0.24147 0.0
C423 C 0.36662 0.74531 0.25269 0.0
C424 C 0.34092 0.72422 0.21687 0.0
C425 C 0.35275 0.76112 0.25629 0.0
C426 C 0.36051 0.72654 0.23311 0.0
C427 C 0.30268 0.72238 0.18367 0.0
C428 C 0.30859 0.7395 0.20505 0.0
C429 C 0.31575 0.70575 0.17933 0.0
C430 C 0.33482 0.70665 0.19591 0.0
Tb431 Tb 0.30805 0.78188 0.24555 0.0
N432 N 0.29612 0.75558 0.21013 0.0
C433 C 0.28403 0.72277 0.16719 0.0
C434 C 0.27878 0.75696 0.1935 0.0
C435 C 0.27222 0.74036 0.17199 0.0
H436 H 0.35866 0.77633 0.27041 0.0
H437 H 0.25824 0.7413 0.15901 0.0
H438 H 0.2207 0.79014 0.29522 0.0
H439 H 0.33761 0.82064 0.38356 0.0
H440 H 0.27028 0.7711 0.19654 0.0
H441 H 0.27895 0.70996 0.1505 0.0
H442 H 0.31629 0.78901 0.35091 0.0
H443 H 0.38226 0.7479 0.26476 0.0
H444 H 0.31145 0.69235 0.16307 0.0
H445 H 0.34498 0.69396 0.19213 0.0
H446 H 0.20048 0.82098 0.30742 0.0
H447 H 0.37142 0.71447 0.23023 0.0
H448 H 0.3229 0.85601 0.39523 0.0
N449 N 0.25065 0.80715 0.31962 0.0
C450 C 0.26082 0.82539 0.33772 0.0
C451 C 0.21752 0.82252 0.31603 0.0
C452 C 0.25002 0.84346 0.3453 0.0
C453 C 0.22906 0.80512 0.30911 0.0
C454 C 0.22814 0.84194 0.33404 0.0
N455 N 0.2912 0.80725 0.34115 0.0
C456 C 0.31035 0.80482 0.35434 0.0
C457 C 0.29312 0.84382 0.36816 0.0
C458 C 0.28203 0.8256 0.34873 0.0
C459 C 0.31381 0.84241 0.38019 0.0
C460 C 0.32221 0.82255 0.37357 0.0
H461 H 0.2192 0.85544 0.33933 0.0
H462 H 0.25341 0.87639 0.36997 0.0
H463 H 0.29121 0.87666 0.39014 0.0
O464 O 0.26813 0.7587 0.33336 0.0
O465 O 0.27844 0.81436 0.29513 0.0
O466 O 0.30846 0.8063 0.27892 0.0
O467 O 0.24042 0.75581 0.30535 0.0
O468 O 0.30442 0.77035 0.31033 0.0
O469 O 0.327 0.78821 0.28342 0.0
O470 O 0.30486 0.80782 0.22458 0.0
O471 O 0.28784 0.74622 0.2443 0.0
O472 O 0.28422 0.76592 0.27772 0.0
O473 O 0.33738 0.79877 0.23258 0.0
O474 O 0.27253 0.78606 0.23996 0.0
O475 O 0.25041 0.7787 0.27198 0.0
C476 C 0.29447 0.82002 0.2819 0.0
C477 C 0.23191 0.74803 0.34421 0.0
C478 C 0.2248 0.73761 0.38353 0.0
C479 C 0.20468 0.74536 0.38142 0.0
C480 C 0.21183 0.7559 0.34235 0.0
C481 C 0.1983 0.75451 0.36092 0.0
C482 C 0.23815 0.73881 0.36473 0.0
C483 C 0.32442 0.77798 0.30304 0.0
C484 C 0.24693 0.74918 0.32542 0.0
C485 C 0.26132 0.8622 0.36397 0.0
C486 C 0.28286 0.86238 0.37539 0.0
C487 C 0.27904 0.74555 0.26389 0.0
C488 C 0.33609 0.82847 0.20722 0.0
C489 C 0.332 0.84772 0.17249 0.0
C490 C 0.35544 0.85713 0.17589 0.0
C491 C 0.3595 0.83801 0.21073 0.0
C492 C 0.32234 0.83375 0.18837 0.0
C493 C 0.3691 0.85249 0.19518 0.0
C494 C 0.2533 0.78328 0.24972 0.0
C495 C 0.32605 0.81133 0.22155 0.0
H496 H 0.19411 0.74464 0.39573 0.0
H497 H 0.20656 0.76304 0.32666 0.0
H498 H 0.18285 0.76061 0.35945 0.0
H499 H 0.25348 0.73238 0.36598 0.0
H500 H 0.3631 0.8679 0.16356 0.0
H501 H 0.37036 0.83399 0.2252 0.0
H502 H 0.30429 0.826 0.18522 0.0
H503 H 0.38718 0.85973 0.19779 0.0
Tb504 Tb 0.50211 0.03413 0.55003 0.0
C505 C 0.57919 0.08263 0.49403 0.0
N506 N 0.56764 0.0596 0.48916 0.0
C507 C 0.56212 0.06137 0.44657 0.0
C508 C 0.58154 0.09627 0.47547 0.0
C509 C 0.56074 0.04845 0.46551 0.0
C510 C 0.57207 0.08552 0.45164 0.0
C511 C 0.60509 0.1147 0.5224 0.0
C512 C 0.59081 0.09187 0.51721 0.0
C513 C 0.60613 0.12891 0.50443 0.0
C514 C 0.59432 0.11974 0.48102 0.0
Tb515 Tb 0.56513 0.04195 0.52284 0.0
N516 N 0.58946 0.07773 0.5342 0.0
C517 C 0.61871 0.12205 0.54509 0.0
C518 C 0.60419 0.08381 0.55535 0.0
C519 C 0.61867 0.1063 0.56139 0.0
H520 H 0.55404 0.02956 0.46105 0.0
H521 H 0.6298 0.11143 0.57853 0.0
H522 H 0.51423 0.01664 0.60371 0.0
H523 H 0.43788 0.99471 0.47304 0.0
H524 H 0.60437 0.07137 0.56759 0.0
H525 H 0.62997 0.13946 0.54976 0.0
H526 H 0.46692 0.02703 0.49918 0.0
H527 H 0.55587 0.05261 0.42802 0.0
H528 H 0.61673 0.14667 0.50816 0.0
H529 H 0.59604 0.13058 0.46706 0.0
H530 H 0.50189 0.98194 0.62184 0.0
H531 H 0.57347 0.0954 0.43686 0.0
H532 H 0.42564 0.9568 0.48725 0.0
N533 N 0.49276 1.00271 0.56968 0.0
C534 C 0.4756 0.98468 0.55747 0.0
C535 C 0.49456 0.98235 0.60357 0.0
C536 C 0.46799 0.96431 0.56745 0.0
C537 C 0.50176 1.00207 0.59286 0.0
C538 C 0.47778 0.96328 0.59075 0.0
N539 N 0.4733 0.00665 0.52584 0.0
C540 C 0.46284 0.01006 0.50452 0.0
C541 C 0.44862 0.96793 0.52103 0.0
C542 C 0.46593 0.98652 0.53461 0.0
C543 C 0.43892 0.9707 0.49829 0.0
C544 C 0.44587 0.99201 0.49015 0.0
H545 H 0.47233 0.94799 0.59911 0.0
H546 H 0.44501 0.92978 0.56118 0.0
H547 H 0.42815 0.93287 0.52046 0.0
O548 O 0.47081 0.0439 0.54734 0.0
O549 O 0.51407 1.00084 0.53861 0.0
O550 O 0.54281 1.00563 0.51299 0.0
O551 O 0.49471 0.05391 0.58109 0.0
O552 O 0.51159 0.04618 0.51649 0.0
O553 O 0.53545 0.02842 0.49572 0.0
O554 O 0.58492 0.02389 0.54245 0.0
O555 O 0.55871 0.07397 0.54529 0.0
O556 O 0.51959 0.06751 0.53853 0.0
O557 O 0.59377 0.03468 0.50917 0.0
O558 O 0.54501 0.03697 0.5504 0.0
O559 O 0.52871 0.04388 0.58108 0.0
C560 C 0.52673 0.99241 0.52293 0.0
C561 C 0.4599 0.06712 0.58172 0.0
C562 C 0.42856 0.08625 0.57976 0.0
C563 C 0.43097 0.0907 0.60526 0.0
C564 C 0.46222 0.07188 0.6072 0.0
C565 C 0.44778 0.08362 0.61888 0.0
C566 C 0.44311 0.0745 0.56796 0.0
C567 C 0.5156 0.03325 0.497 0.0
C568 C 0.47537 0.05494 0.56975 0.0
C569 C 0.45095 0.94563 0.55387 0.0
C570 C 0.44137 0.94739 0.53067 0.0
C571 C 0.53996 0.0818 0.54632 0.0
C572 C 0.60052 0.99888 0.51588 0.0
C573 C 0.62345 0.97001 0.51298 0.0
C574 C 0.60716 0.95544 0.49428 0.0
C575 C 0.58488 0.98454 0.49658 0.0
C576 C 0.61978 0.99161 0.52404 0.0
C577 C 0.58795 0.96271 0.48619 0.0
C578 C 0.5474 0.04192 0.57379 0.0
C579 C 0.59795 0.02242 0.52568 0.0
H580 H 0.41987 0.0998 0.61463 0.0
H581 H 0.47514 0.06644 0.61812 0.0
H582 H 0.44961 0.0872 0.63853 0.0
H583 H 0.44125 0.07104 0.54826 0.0
H584 H 0.60969 0.93887 0.4852 0.0
H585 H 0.57074 0.99064 0.489 0.0
H586 H 0.63213 1.00304 0.53852 0.0
H587 H 0.5758 0.95174 0.47132 0.0
Tb588 Tb 0.31932 0.27467 0.78206 0.0
C589 C 0.23959 0.30113 0.72325 0.0
N590 N 0.25441 0.31448 0.7425 0.0
C591 C 0.25852 0.34801 0.72249 0.0
C592 C 0.23392 0.31069 0.70258 0.0
C593 C 0.26371 0.33771 0.74253 0.0
C594 C 0.24361 0.33444 0.70238 0.0
C595 C 0.21568 0.263 0.7042 0.0
C596 C 0.23078 0.27753 0.72401 0.0
C597 C 0.20997 0.27242 0.68352 0.0
C598 C 0.21907 0.2962 0.68271 0.0
Tb599 Tb 0.26127 0.2959 0.77422 0.0
N600 N 0.23705 0.26889 0.74416 0.0
C601 C 0.20653 0.23953 0.7059 0.0
C602 C 0.22679 0.24654 0.74657 0.0
C603 C 0.21185 0.23138 0.72733 0.0
H604 H 0.27465 0.34848 0.75825 0.0
H605 H 0.20407 0.21356 0.72926 0.0
H606 H 0.30604 0.21816 0.78791 0.0
H607 H 0.37126 0.35289 0.84101 0.0
H608 H 0.22917 0.24047 0.76348 0.0
H609 H 0.19484 0.22778 0.6911 0.0
H610 H 0.34722 0.33064 0.80354 0.0
H611 H 0.26593 0.36645 0.72263 0.0
H612 H 0.19845 0.26149 0.6681 0.0
H613 H 0.21454 0.3032 0.66663 0.0
H614 H 0.31335 0.19471 0.81938 0.0
H615 H 0.23968 0.34245 0.68684 0.0
H616 H 0.3808 0.33219 0.87439 0.0
N617 N 0.32512 0.25073 0.80913 0.0
C618 C 0.33895 0.26163 0.8301 0.0
C619 C 0.32053 0.21354 0.82268 0.0
C620 C 0.34388 0.24885 0.8484 0.0
C621 C 0.31614 0.22695 0.80503 0.0
C622 C 0.33441 0.22453 0.84449 0.0
N623 N 0.34152 0.29781 0.81592 0.0
C624 C 0.35043 0.32144 0.8181 0.0
C625 C 0.36168 0.29788 0.85519 0.0
C626 C 0.34769 0.28589 0.83349 0.0
C627 C 0.36997 0.32231 0.85799 0.0
C628 C 0.36449 0.33409 0.83926 0.0
H629 H 0.33777 0.21408 0.85813 0.0
H630 H 0.36185 0.25122 0.88433 0.0
H631 H 0.37746 0.29409 0.89024 0.0
O632 O 0.3468 0.28634 0.76346 0.0
O633 O 0.30482 0.28449 0.81564 0.0
O634 O 0.28459 0.31183 0.80771 0.0
O635 O 0.34144 0.25267 0.7748 0.0
O636 O 0.31956 0.30697 0.76698 0.0
O637 O 0.29235 0.32346 0.78363 0.0
O638 O 0.23216 0.28806 0.79237 0.0
O639 O 0.27732 0.2879 0.74127 0.0
O640 O 0.29534 0.25875 0.74893 0.0
O641 O 0.24427 0.32243 0.7825 0.0
O642 O 0.26234 0.26497 0.79125 0.0
O643 O 0.28782 0.2475 0.77238 0.0
C644 C 0.2944 0.30105 0.82301 0.0
C645 C 0.35946 0.2561 0.73996 0.0
C646 C 0.38645 0.2544 0.71104 0.0
C647 C 0.37134 0.23456 0.69675 0.0
C648 C 0.34485 0.23584 0.72572 0.0
C649 C 0.35066 0.22533 0.70411 0.0
C650 C 0.38042 0.26529 0.73261 0.0
C651 C 0.31068 0.32505 0.77305 0.0
C652 C 0.35363 0.26688 0.76315 0.0
C653 C 0.35788 0.26074 0.87004 0.0
C654 C 0.36677 0.28517 0.87341 0.0
C655 C 0.28598 0.26997 0.73365 0.0
C656 C 0.2112 0.31878 0.80291 0.0
C657 C 0.17992 0.3164 0.827 0.0
C658 C 0.17903 0.33946 0.8241 0.0
C659 C 0.20978 0.34179 0.80035 0.0
C660 C 0.19596 0.30591 0.81608 0.0
C661 C 0.19379 0.35196 0.81082 0.0
C662 C 0.27072 0.2466 0.78486 0.0
C663 C 0.2294 0.30938 0.79262 0.0
H664 H 0.37573 0.226 0.68009 0.0
H665 H 0.32914 0.22791 0.73159 0.0
H666 H 0.33924 0.20977 0.6932 0.0
H667 H 0.39206 0.28062 0.74372 0.0
H668 H 0.16666 0.34778 0.83194 0.0
H669 H 0.22118 0.35213 0.79036 0.0
H670 H 0.19691 0.2882 0.81833 0.0
H671 H 0.19289 0.36969 0.8087 0.0
Tb672 Tb 0.04127 1.00238 0.52271 0.0
C673 C 0.0193 0.09205 0.58182 0.0
N674 N 0.00751 0.07524 0.56291 0.0
C675 C 0.97402 0.07248 0.58212 0.0
C676 C 0.009 0.09915 0.60206 0.0
C677 C 0.98491 0.0661 0.56239 0.0
C678 C 0.98614 0.08893 0.60214 0.0
C679 C 0.05469 0.11943 0.60028 0.0
C680 C 0.04189 0.10208 0.58091 0.0
C681 C 0.0445 0.12646 0.62053 0.0
C682 C 0.02174 0.11634 0.62142 0.0
Tb683 Tb 0.02711 0.06768 0.53145 0.0
N684 N 0.05141 0.09446 0.5613 0.0
C685 C 0.07745 0.12891 0.59888 0.0
C686 C 0.07342 0.10414 0.55957 0.0
C687 C 0.08682 0.12127 0.57841 0.0
H688 H 0.97491 0.05438 0.54662 0.0
H689 H 0.1043 0.1288 0.57697 0.0
H690 H 0.09526 0.01056 0.51196 0.0
H691 H 0.96694 0.93973 0.47415 0.0
H692 H 0.08063 0.09933 0.54351 0.0
H693 H 0.08788 0.1422 0.61342 0.0
H694 H 0.99036 0.96751 0.50965 0.0
H695 H 0.95617 0.06498 0.58169 0.0
H696 H 0.0541 0.13969 0.63562 0.0
H697 H 0.01411 0.122 0.63714 0.0
H698 H 0.11507 1.00437 0.47655 0.0
H699 H 0.9776 0.09393 0.61734 0.0
H700 H 0.98288 0.93254 0.43571 0.0
N701 N 0.06238 0.996 0.49202 0.0
C702 C 0.0506 0.98236 0.471 0.0
C703 C 0.09685 0.99851 0.47457 0.0
C704 C 0.06136 0.97724 0.45053 0.0
C705 C 0.08545 1.00263 0.49451 0.0
C706 C 0.08469 0.98618 0.45232 0.0
N707 N 0.01834 0.97702 0.49087 0.0
C708 C 0.9971 0.96486 0.49276 0.0
C709 C 0.01546 0.95619 0.44998 0.0
C710 C 0.02797 0.97199 0.47062 0.0
C711 C 0.99308 0.94485 0.45116 0.0
C712 C 0.98398 0.94893 0.4728 0.0
H713 H 0.09362 0.98267 0.43701 0.0
H714 H 0.05663 0.9586 0.41338 0.0
H715 H 0.01641 0.94014 0.41293 0.0
O716 O 0.03016 0.97912 0.54663 0.0
O717 O 0.01877 0.01132 0.49423 0.0
O718 O 0.03346 0.05079 0.49626 0.0
O719 O 0.05685 0.97443 0.52609 0.0
O720 O 0.01377 0.01046 0.54173 0.0
O721 O 0.99874 0.0367 0.52272 0.0
O722 O 0.03346 0.1019 0.52262 0.0
O723 O 0.03594 0.05317 0.56444 0.0
O724 O 0.0598 0.02882 0.55369 0.0
O725 O 1.00012 0.0792 0.51503 0.0
O726 O 0.05764 0.06437 0.51552 0.0
O727 O 0.07073 0.03301 0.52811 0.0
C728 C 0.02273 0.03004 0.48389 0.0
C729 C 0.05728 0.96021 0.56318 0.0
C730 C 0.0594 0.93338 0.5924 0.0
C731 C 0.08183 0.94609 0.60093 0.0
C732 C 0.07958 0.97255 0.57228 0.0
C733 C 0.09168 0.96555 0.5911 0.0
C734 C 0.04719 0.94068 0.57335 0.0
C735 C 0.99638 0.01759 0.5326 0.0
C736 C 0.0449 0.96672 0.54225 0.0
C737 C 0.0487 0.96254 0.42937 0.0
C738 C 0.0258 0.95196 0.42913 0.0
C739 C 0.05116 0.04128 0.57008 0.0
C740 C 0.01063 0.10448 0.48678 0.0
C741 C 0.01882 0.13208 0.45833 0.0
C742 C 1.00533 0.1147 0.43952 0.0
C743 C 0.99727 0.0876 0.46748 0.0
C744 C 0.02127 0.12688 0.48211 0.0
C745 C 0.99463 0.09277 0.44414 0.0
C746 C 0.0738 0.05332 0.51998 0.0
C747 C 0.013 0.09885 0.5117 0.0
H748 H 0.09208 0.94079 0.61497 0.0
H749 H 0.08765 0.9876 0.56479 0.0
H750 H 0.10892 0.97509 0.59791 0.0
H751 H 0.02993 0.93126 0.56636 0.0
H752 H 1.0026 0.11824 0.42122 0.0
H753 H 0.98877 0.07031 0.47033 0.0
H754 H 0.03149 0.14009 0.49687 0.0
H755 H 0.98404 0.0797 0.42957 0.0
Tb756 Tb 0.29216 0.81641 0.7623 0.0
C757 C 0.24003 0.7418 0.81749 0.0
N758 N 0.26127 0.7558 0.82389 0.0
C759 C 0.25527 0.76225 0.86561 0.0
C760 C 0.22541 0.73779 0.83498 0.0
C761 C 0.26921 0.76567 0.84764 0.0
C762 C 0.23324 0.74834 0.85926 0.0
C763 C 0.21097 0.71699 0.78587 0.0
C764 C 0.23287 0.73152 0.79319 0.0
C765 C 0.19633 0.71301 0.80325 0.0
C766 C 0.20351 0.72338 0.82773 0.0
Tb767 Tb 0.28207 0.75932 0.79274 0.0
N768 N 0.2472 0.73642 0.77667 0.0
C769 C 0.20445 0.70697 0.76126 0.0
C770 C 0.24135 0.72573 0.75292 0.0
C771 C 0.21979 0.71118 0.74477 0.0
H772 H 0.28647 0.77563 0.85294 0.0
H773 H 0.21512 0.70301 0.72583 0.0
H774 H 0.29273 0.79945 0.70301 0.0
H775 H 0.35248 0.87885 0.83142 0.0
H776 H 0.25326 0.72796 0.74026 0.0
H777 H 0.18775 0.69569 0.75489 0.0
H778 H 0.31551 0.85267 0.81421 0.0
H779 H 0.2616 0.77013 0.8844 0.0
H780 H 0.1794 0.70194 0.79796 0.0
H781 H 0.19201 0.72012 0.84091 0.0
H782 H 0.32034 0.80433 0.67419 0.0
H783 H 0.22251 0.74568 0.87326 0.0
H784 H 0.38293 0.88506 0.80566 0.0
N785 N 0.3157 0.82 0.73342 0.0
C786 C 0.3364 0.83485 0.74112 0.0
C787 C 0.32518 0.81276 0.69305 0.0
C788 C 0.35255 0.83874 0.72513 0.0
C789 C 0.3097 0.80952 0.70957 0.0
C790 C 0.34677 0.82728 0.70089 0.0
N791 N 0.32556 0.84145 0.7803 0.0
C792 C 0.32896 0.85385 0.80339 0.0
C793 C 0.36265 0.86161 0.77397 0.0
C794 C 0.34142 0.8461 0.76527 0.0
C795 C 0.36684 0.87298 0.79826 0.0
C796 C 0.34978 0.86936 0.81292 0.0
H797 H 0.35871 0.82981 0.68802 0.0
H798 H 0.38651 0.85711 0.72181 0.0
H799 H 0.39533 0.87715 0.76452 0.0
O800 O 0.27934 0.84603 0.77361 0.0
O801 O 0.32238 0.80194 0.77094 0.0
O802 O 0.3169 0.78159 0.80288 0.0
O803 O 0.2865 0.83795 0.73705 0.0
O804 O 0.28144 0.81777 0.79862 0.0
O805 O 0.29732 0.79191 0.81739 0.0
O806 O 0.29123 0.7284 0.77796 0.0
O807 O 0.25247 0.77489 0.7851 0.0
O808 O 0.25769 0.79358 0.75212 0.0
O809 O 0.28985 0.73694 0.81633 0.0
O810 O 0.29442 0.7598 0.75783 0.0
O811 O 0.27768 0.78346 0.73711 0.0
C812 C 0.33035 0.79302 0.78932 0.0
C813 C 0.256 0.85527 0.74235 0.0
C814 C 0.2305 0.88154 0.74076 0.0
C815 C 0.2149 0.86388 0.72393 0.0
C816 C 0.24045 0.83795 0.72526 0.0
C817 C 0.21991 0.84221 0.71625 0.0
C818 C 0.25101 0.87699 0.75001 0.0
C819 C 0.29022 0.81134 0.81816 0.0
C820 C 0.27775 0.85127 0.7519 0.0
C821 C 0.37385 0.85395 0.73381 0.0
C822 C 0.37888 0.86536 0.75815 0.0
C823 C 0.24438 0.78338 0.76647 0.0
C824 C 0.31859 0.71882 0.8045 0.0
C825 C 0.34523 0.69455 0.79583 0.0
C826 C 0.36191 0.71074 0.81293 0.0
C827 C 0.33535 0.73466 0.82174 0.0
C828 C 0.32358 0.69879 0.79162 0.0
C829 C 0.35694 0.73067 0.8258 0.0
C830 C 0.28469 0.76405 0.73772 0.0
C831 C 0.29605 0.72323 0.79932 0.0
H832 H 0.19879 0.86674 0.71682 0.0
H833 H 0.24433 0.82127 0.71871 0.0
H834 H 0.20789 0.82873 0.7032 0.0
H835 H 0.26336 0.89048 0.76279 0.0
H836 H 0.37863 0.70768 0.81683 0.0
H837 H 0.33174 0.75007 0.83211 0.0
H838 H 0.31064 0.68659 0.77828 0.0
H839 H 0.36979 0.74293 0.83911 0.0
Tb840 Tb 0.55132 0.05885 0.99847 0.0
C841 C 0.59131 0.01124 0.07795 0.0
N842 N 0.57439 1.00154 0.05925 0.0
C843 C 0.58994 0.96776 0.05056 0.0
C844 C 0.60855 0.99964 0.08344 0.0
C845 C 0.57329 0.97998 0.04573 0.0
C846 C 0.60769 0.97765 0.06946 0.0
C847 C 0.60932 0.0441 0.11027 0.0
C848 C 0.59173 0.03329 0.09105 0.0
C849 C 0.62658 0.03264 0.11578 0.0
C850 C 0.62619 0.01047 0.10242 0.0
Tb851 Tb 0.54789 0.02261 0.05364 0.0
N852 N 0.57496 0.04409 0.08489 0.0
C853 C 0.60891 0.06597 0.12357 0.0
C854 C 0.57361 0.06452 0.09914 0.0
C855 C 0.59079 0.07604 0.11821 0.0
H856 H 0.55926 0.97187 0.03169 0.0
H857 H 0.58976 0.09242 0.12912 0.0
H858 H 0.54486 0.1122 0.01963 0.0
H859 H 0.50371 0.9907 0.92434 0.0
H860 H 0.55904 0.07172 0.0968 0.0
H861 H 0.6221 0.07486 0.13847 0.0
H862 H 0.53604 0.01008 0.95543 0.0
H863 H 0.58897 0.95064 0.03982 0.0
H864 H 0.64026 0.04073 0.13043 0.0
H865 H 0.63963 1.00187 0.10688 0.0
H866 H 0.51687 0.13575 0.01298 0.0
H867 H 0.62061 0.96816 0.07311 0.0
H868 H 0.47271 0.01057 0.9165 0.0
N869 N 0.52674 0.08241 0.99342 0.0
C870 C 0.50867 0.07351 0.97579 0.0
C871 C 0.51427 0.11818 0.00251 0.0
C872 C 0.49243 0.08651 0.97108 0.0
C873 C 0.52995 0.10462 0.00649 0.0
C874 C 0.49538 0.10907 0.98479 0.0
N875 N 0.52237 0.03908 0.96817 0.0
C876 C 0.52205 0.01818 0.95377 0.0
C877 C 0.4879 0.04113 0.94431 0.0
C878 C 0.50638 0.05107 0.96276 0.0
C879 C 0.48661 0.01881 0.93088 0.0
C880 C 0.50397 0.00746 0.93539 0.0
H881 H 0.48328 0.11964 0.98173 0.0
H882 H 0.46112 0.08626 0.94907 0.0
H883 H 0.45721 0.04656 0.92551 0.0
O884 O 0.56911 0.05575 0.9683 0.0
O885 O 0.51859 0.04878 0.01099 0.0
O886 O 0.51931 0.01413 0.02471 0.0
O887 O 0.56718 0.08964 0.98673 0.0
O888 O 0.56114 0.02429 0.99382 0.0
O889 O 0.53955 1.00152 0.01708 0.0
O890 O 0.52893 0.02365 0.08272 0.0
O891 O 0.5799 0.03341 0.03982 0.0
O892 O 0.57971 0.06874 0.02766 0.0
O893 O 0.53595 0.99115 0.06633 0.0
O894 O 0.53644 0.05578 0.05795 0.0
O895 O 0.55753 0.08001 0.03546 0.0
C896 C 0.50837 0.02878 0.01647 0.0
C897 C 0.56605 0.08479 0.94405 0.0
C898 C 0.57018 0.08459 0.90116 0.0
C899 C 0.55339 0.09742 0.89931 0.0
C900 C 0.54967 0.09805 0.94173 0.0
C901 C 0.54328 0.10409 0.91947 0.0
C902 C 0.57627 0.0781 0.92366 0.0
C903 C 0.55111 1.00351 0.99863 0.0
C904 C 0.57277 0.07819 0.96764 0.0
C905 C 0.47381 0.07656 0.95295 0.0
C906 C 0.47156 0.05393 0.93959 0.0
C907 C 0.59 0.05502 0.03854 0.0
C908 C 0.50138 0.98893 0.08185 0.0
C909 C 0.469 0.98294 0.10374 0.0
C910 C 0.45615 0.9672 0.08336 0.0
C911 C 0.48867 0.9726 0.06181 0.0
C912 C 0.49149 0.99397 0.10269 0.0
C913 C 0.46604 0.96201 0.06251 0.0
C914 C 0.54484 0.07683 0.05291 0.0
C915 C 0.52498 1.00095 0.0818 0.0
H916 H 0.54793 0.10221 0.8822 0.0
H917 H 0.54185 0.10399 0.95708 0.0
H918 H 0.5305 0.1141 0.91786 0.0
H919 H 0.58923 0.06828 0.92547 0.0
H920 H 0.43876 0.95841 0.08383 0.0
H921 H 0.49619 0.96804 0.0457 0.0
H922 H 0.5014 1.00646 0.11823 0.0
H923 H 0.45624 0.94955 0.04697 0.0
Tb924 Tb 0.27371 0.2591 0.26164 0.0
C925 C 0.35589 0.33568 0.30694 0.0
N926 N 0.33794 0.32461 0.3166 0.0
C927 C 0.36264 0.32132 0.35124 0.0
C928 C 0.37814 0.33905 0.31864 0.0
C929 C 0.3409 0.31825 0.33888 0.0
C930 C 0.38137 0.33155 0.34097 0.0
C931 C 0.37003 0.35508 0.27467 0.0
C932 C 0.35179 0.34365 0.28527 0.0
C933 C 0.3923 0.35759 0.28569 0.0
C934 C 0.39634 0.34972 0.3077 0.0
Tb935 Tb 0.30331 0.32238 0.29615 0.0
N936 N 0.32996 0.34148 0.27547 0.0
C937 C 0.36533 0.36446 0.25382 0.0
C938 C 0.32548 0.35286 0.25669 0.0
C939 C 0.34297 0.36373 0.24508 0.0
H940 H 0.32654 0.31095 0.34721 0.0
H941 H 0.3392 0.37212 0.22979 0.0
H942 H 0.26682 0.26511 0.20302 0.0
H943 H 0.2145 0.21216 0.31165 0.0
H944 H 0.30861 0.35442 0.25102 0.0
H945 H 0.37886 0.3733 0.24506 0.0
H946 H 0.25235 0.23052 0.30254 0.0
H947 H 0.36493 0.31595 0.36874 0.0
H948 H 0.40651 0.36617 0.27769 0.0
H949 H 0.41359 0.35221 0.31624 0.0
H950 H 0.23562 0.26612 0.17234 0.0
H951 H 0.39821 0.33386 0.35057 0.0
H952 H 0.18025 0.21365 0.28485 0.0
N953 N 0.24605 0.25922 0.23075 0.0
C954 C 0.22446 0.25169 0.23506 0.0
C955 C 0.23223 0.2626 0.19013 0.0
C956 C 0.20586 0.25045 0.21747 0.0
C957 C 0.25003 0.26285 0.20794 0.0
C958 C 0.21002 0.25688 0.1951 0.0
N959 N 0.2395 0.24311 0.27186 0.0
C960 C 0.23747 0.23147 0.29106 0.0
C961 C 0.19916 0.23256 0.26042 0.0
C962 C 0.22107 0.24283 0.25613 0.0
C963 C 0.1968 0.22184 0.28094 0.0
C964 C 0.21609 0.22095 0.29611 0.0
H965 H 0.19622 0.25615 0.18107 0.0
H966 H 0.16932 0.24061 0.20902 0.0
H967 H 0.16346 0.22495 0.2467 0.0
O968 O 0.28454 0.22948 0.26957 0.0
O969 O 0.25429 0.27786 0.28563 0.0
O970 O 0.26644 0.31689 0.28346 0.0
O971 O 0.26607 0.2289 0.23453 0.0
O972 O 0.29015 0.26112 0.29903 0.0
O973 O 0.28931 0.29795 0.31916 0.0
O974 O 0.31272 0.35901 0.30701 0.0
O975 O 0.32374 0.2952 0.29036 0.0
O976 O 0.30808 0.27307 0.2534 0.0
O977 O 0.29468 0.33717 0.32928 0.0
O978 O 0.28467 0.32046 0.25983 0.0
O979 O 0.28921 0.28511 0.24067 0.0
C980 C 0.25041 0.29907 0.28679 0.0
C981 C 0.29369 0.20701 0.2362 0.0
C982 C 0.31401 0.17631 0.23565 0.0
C983 C 0.32614 0.18513 0.21782 0.0
C984 C 0.30606 0.21643 0.21879 0.0
C985 C 0.32217 0.2053 0.20948 0.0
C986 C 0.29762 0.18708 0.24434 0.0
C987 C 0.28969 0.27579 0.31908 0.0
C988 C 0.27738 0.21786 0.24762 0.0
C989 C 0.18383 0.24153 0.22223 0.0
C990 C 0.18049 0.23255 0.24366 0.0
C991 C 0.32613 0.28316 0.26939 0.0
C992 C 0.28426 0.37261 0.32551 0.0
C993 C 0.26596 0.39941 0.3068 0.0
C994 C 0.24924 0.39617 0.32211 0.0
C995 C 0.26771 0.36972 0.34108 0.0
C996 C 0.28338 0.38775 0.30867 0.0
C997 C 0.25025 0.38148 0.33932 0.0
C998 C 0.28587 0.3062 0.2399 0.0
C999 C 0.3013 0.35853 0.32523 0.0
H1000 H 0.33882 0.17676 0.21081 0.0
H1001 H 0.30335 0.23223 0.21255 0.0
H1002 H 0.33173 0.21242 0.19602 0.0
H1003 H 0.28796 0.18001 0.25787 0.0
H1004 H 0.23571 0.40531 0.32108 0.0
H1005 H 0.26804 0.35808 0.35423 0.0
H1006 H 0.29596 0.39014 0.29644 0.0
H1007 H 0.23745 0.37911 0.35124 0.0
Tb1008 Tb 0.54733 0.50358 0.02399 0.0
C1009 C 0.51662 0.5874 0.08065 0.0
N1010 N 0.50506 0.57194 0.06064 0.0
C1011 C 0.47086 0.56836 0.07856 0.0
C1012 C 0.50574 0.59372 0.10066 0.0
C1013 C 0.48243 0.56251 0.05922 0.0
C1014 C 0.48256 0.58399 0.0994 0.0
C1015 C 0.55235 0.61198 0.10193 0.0
C1016 C 0.53967 0.59626 0.08132 0.0
C1017 C 0.54157 0.61842 0.12191 0.0
C1018 C 0.51834 0.6093 0.12128 0.0
Tb1019 Tb 0.52573 0.56376 0.0304 0.0
N1020 N 0.54966 0.58907 0.0619 0.0
C1021 C 0.57545 0.62085 0.10176 0.0
C1022 C 0.57184 0.59889 0.06107 0.0
C1023 C 0.58516 0.61451 0.08111 0.0
H1024 H 0.47315 0.5509 0.04298 0.0
H1025 H 0.60283 0.62196 0.08045 0.0
H1026 H 0.60067 0.51798 0.01373 0.0
H1027 H 0.47316 0.44176 0.97222 0.0
H1028 H 0.57926 0.59552 0.04486 0.0
H1029 H 0.5858 0.63301 0.11723 0.0
H1030 H 0.49508 0.46912 0.00819 0.0
H1031 H 0.45291 0.56089 0.07734 0.0
H1032 H 0.55106 0.63045 0.13793 0.0
H1033 H 0.51028 0.61438 0.13686 0.0
H1034 H 0.62235 0.50935 0.9803 0.0
H1035 H 0.47356 0.58843 0.11438 0.0
H1036 H 0.49172 0.43173 0.9363 0.0
N1037 N 0.56953 0.49595 0.995 0.0
C1038 C 0.55899 0.48014 0.9748 0.0
C1039 C 0.6045 0.50112 0.97845 0.0
C1040 C 0.57076 0.47454 0.95532 0.0
C1041 C 0.59208 0.50621 0.99725 0.0
C1042 C 0.59378 0.48531 0.95734 0.0
N1043 N 0.52523 0.47676 0.99228 0.0
C1044 C 0.50315 0.46601 0.9924 0.0
C1045 C 0.52438 0.45406 0.95256 0.0
C1046 C 0.5361 0.47014 0.97341 0.0
C1047 C 0.50135 0.44417 0.95198 0.0
C1048 C 0.49078 0.44993 0.97214 0.0
H1049 H 0.60344 0.48148 0.94277 0.0
H1050 H 0.56786 0.45415 0.91923 0.0
H1051 H 0.52728 0.43617 0.91684 0.0
O1052 O 0.53816 0.47613 0.04486 0.0
O1053 O 0.53878 0.51649 0.99017 0.0
O1054 O 0.51162 0.53737 0.99772 0.0
O1055 O 0.57149 0.48552 0.03379 0.0
O1056 O 0.51543 0.50402 0.03887 0.0
O1057 O 0.49961 0.53106 0.02141 0.0
O1058 O 0.53563 0.59318 0.01278 0.0
O1059 O 0.53238 0.54872 0.06345 0.0
O1060 O 0.56145 0.53165 0.05503 0.0
O1061 O 0.50128 0.58194 0.02086 0.0
O1062 O 0.5559 0.56239 0.01277 0.0
O1063 O 0.57258 0.53718 0.03181 0.0
C1064 C 0.52198 0.52546 0.98275 0.0
C1065 C 0.56652 0.45409 0.05715 0.0
C1066 C 0.56213 0.42254 0.08141 0.0
C1067 C 0.58485 0.42204 0.08034 0.0
C1068 C 0.5892 0.45302 0.05653 0.0
C1069 C 0.5982 0.4371 0.06796 0.0
C1070 C 0.55279 0.43852 0.06951 0.0
C1071 C 0.49792 0.51231 0.03183 0.0
C1072 C 0.55826 0.47202 0.04517 0.0
C1073 C 0.55913 0.45863 0.93443 0.0
C1074 C 0.53601 0.44842 0.93306 0.0
C1075 C 0.54977 0.54053 0.07064 0.0
C1076 C 0.5083 0.61596 0.00088 0.0
C1077 C 0.51516 0.64865 0.97845 0.0
C1078 C 0.49343 0.65184 0.98107 0.0
C1079 C 0.48658 0.61954 0.00317 0.0
C1080 C 0.52267 0.63064 0.98837 0.0
C1081 C 0.47925 0.63734 0.99333 0.0
C1082 C 0.57348 0.5539 0.0186 0.0
C1083 C 0.51533 0.59681 0.01158 0.0
H1084 H 0.59231 0.40978 0.08905 0.0
H1085 H 0.6002 0.46462 0.04725 0.0
H1086 H 0.61568 0.4365 0.06729 0.0
H1087 H 0.53531 0.43912 0.07028 0.0
H1088 H 0.48744 0.66565 0.97361 0.0
H1089 H 0.47518 0.60858 0.01267 0.0
H1090 H 0.53947 0.62816 0.9864 0.0
H1091 H 0.46251 0.63995 0.99526 0.0
Tb1092 Tb 0.78908 0.31284 0.25564 0.0
C1093 C 0.7425 0.24325 0.32005 0.0
N1094 N 0.76335 0.25811 0.32372 0.0
C1095 C 0.76021 0.26882 0.36592 0.0
C1096 C 0.72948 0.24088 0.33918 0.0
C1097 C 0.77252 0.2705 0.34639 0.0
C1098 C 0.73854 0.25404 0.36229 0.0
C1099 C 0.71265 0.21473 0.29233 0.0
C1100 C 0.73418 0.23033 0.29694 0.0
C1101 C 0.69956 0.21237 0.31131 0.0
C1102 C 0.70794 0.22541 0.33467 0.0
Tb1103 Tb 0.78179 0.25871 0.29043 0.0
N1104 N 0.74706 0.23359 0.27885 0.0
C1105 C 0.70497 0.20197 0.26878 0.0
C1106 C 0.74009 0.2204 0.25619 0.0
C1107 C 0.71885 0.20468 0.25069 0.0
H1108 H 0.78964 0.28105 0.34967 0.0
H1109 H 0.71332 0.19446 0.23257 0.0
H1110 H 0.79687 0.28888 0.20069 0.0
H1111 H 0.84089 0.38425 0.32368 0.0
H1112 H 0.75093 0.22155 0.24245 0.0
H1113 H 0.68852 0.18977 0.26448 0.0
H1114 H 0.80607 0.35511 0.30521 0.0
H1115 H 0.76755 0.27869 0.38382 0.0
H1116 H 0.68294 0.20048 0.30813 0.0
H1117 H 0.69767 0.22336 0.34915 0.0
H1118 H 0.82661 0.29466 0.1743 0.0
H1119 H 0.72907 0.25269 0.37749 0.0
H1120 H 0.87378 0.39023 0.30124 0.0
N1121 N 0.81557 0.31538 0.22997 0.0
C1122 C 0.83473 0.33263 0.23795 0.0
C1123 C 0.82917 0.30534 0.19223 0.0
C1124 C 0.85212 0.33662 0.22342 0.0
C1125 C 0.81245 0.30189 0.20736 0.0
C1126 C 0.84911 0.32273 0.20029 0.0
N1127 N 0.8201 0.34116 0.27483 0.0
C1128 C 0.8208 0.35575 0.29631 0.0
C1129 C 0.85715 0.36318 0.27041 0.0
C1130 C 0.83724 0.34561 0.26127 0.0
C1131 C 0.85876 0.37657 0.29355 0.0
C1132 C 0.84033 0.3731 0.30637 0.0
H1133 H 0.86208 0.32527 0.18855 0.0
H1134 H 0.88566 0.35721 0.22173 0.0
H1135 H 0.89003 0.38053 0.26279 0.0
O1136 O 0.77725 0.34435 0.26029 0.0
O1137 O 0.81903 0.29707 0.26167 0.0
O1138 O 0.81569 0.28281 0.29733 0.0
O1139 O 0.77996 0.32592 0.22447 0.0
O1140 O 0.77869 0.31722 0.29211 0.0
O1141 O 0.79727 0.29346 0.31059 0.0
O1142 O 0.79336 0.2279 0.27888 0.0
O1143 O 0.75064 0.27178 0.28271 0.0
O1144 O 0.75441 0.29057 0.24952 0.0
O1145 O 0.79347 0.24162 0.31726 0.0
O1146 O 0.78969 0.25414 0.25317 0.0
O1147 O 0.77338 0.27879 0.23299 0.0
C1148 C 0.82827 0.29093 0.28134 0.0
C1149 C 0.76626 0.36134 0.22492 0.0
C1150 C 0.75043 0.396 0.22642 0.0
C1151 C 0.74879 0.39323 0.20093 0.0
C1152 C 0.76476 0.35921 0.19955 0.0
C1153 C 0.75606 0.37508 0.18768 0.0
C1154 C 0.7592 0.37986 0.23836 0.0
C1155 C 0.78773 0.31124 0.31175 0.0
C1156 C 0.77462 0.34375 0.2369 0.0
C1157 C 0.87206 0.35394 0.23259 0.0
C1158 C 0.87459 0.36715 0.25603 0.0
C1159 C 0.74191 0.28035 0.26448 0.0
C1160 C 0.80752 0.2066 0.30914 0.0
C1161 C 0.82307 0.17232 0.30009 0.0
C1162 C 0.82592 0.17103 0.3249 0.0
C1163 C 0.81053 0.20512 0.33398 0.0
C1164 C 0.81395 0.19017 0.29216 0.0
C1165 C 0.81972 0.18742 0.34176 0.0
C1166 C 0.77934 0.25879 0.23351 0.0
C1167 C 0.79805 0.22559 0.30144 0.0
H1168 H 0.74152 0.40487 0.19106 0.0
H1169 H 0.77012 0.34513 0.18877 0.0
H1170 H 0.75474 0.37316 0.16809 0.0
H1171 H 0.76059 0.3817 0.25797 0.0
H1172 H 0.83301 0.15731 0.3312 0.0
H1173 H 0.8058 0.21765 0.34744 0.0
H1174 H 0.8118 0.19112 0.27296 0.0
H1175 H 0.82201 0.1864 0.36089 0.0
Tb1176 Tb 0.04445 0.56239 0.49669 0.0
C1177 C 0.08566 0.50902 0.57696 0.0
N1178 N 0.0683 0.49948 0.55883 0.0
C1179 C 0.08456 0.46637 0.5484 0.0
C1180 C 0.10371 0.49812 0.58103 0.0
C1181 C 0.06703 0.47786 0.54525 0.0
C1182 C 0.10318 0.47671 0.56615 0.0
C1183 C 0.10216 0.53976 0.61155 0.0
C1184 C 0.08493 0.52946 0.59184 0.0
C1185 C 0.12068 0.52958 0.61523 0.0
C1186 C 0.12146 0.50876 0.59996 0.0
Tb1187 Tb 0.04089 0.52002 0.554 0.0
N1188 N 0.06683 0.53874 0.58748 0.0
C1189 C 0.09995 0.55961 0.62727 0.0
C1190 C 0.06373 0.5569 0.604 0.0
C1191 C 0.08041 0.56793 0.62372 0.0
H1192 H 0.05237 0.46909 0.53218 0.0
H1193 H 0.078 0.5826 0.63641 0.0
H1194 H 0.02179 0.60372 0.52395 0.0
H1195 H 0.02166 0.50819 0.40693 0.0
H1196 H 0.04823 0.56274 0.60264 0.0
H1197 H 0.11279 0.56807 0.64264 0.0
H1198 H 0.04758 0.52857 0.44413 0.0
H1199 H 0.08358 0.44943 0.53731 0.0
H1200 H 0.13423 0.53737 0.63009 0.0
H1201 H 0.13562 0.50082 0.60322 0.0
H1202 H 0.98625 0.61661 0.51823 0.0
H1203 H 0.11671 0.46775 0.56864 0.0
H1204 H 0.98281 0.51411 0.40086 0.0
N1205 N 0.01266 0.57641 0.49281 0.0
C1206 C 0.99721 0.56587 0.47304 0.0
C1207 C 0.98904 0.60222 0.50546 0.0
C1208 C 0.97671 0.57281 0.46891 0.0
C1209 C 0.0091 0.5947 0.50878 0.0
C1210 C 0.97267 0.5911 0.48555 0.0
N1211 N 0.02276 0.54332 0.46061 0.0
C1212 C 0.03031 0.5303 0.44234 0.0
C1213 C 0.98716 0.53802 0.43513 0.0
C1214 C 1.0023 0.54854 0.45654 0.0
C1215 C 0.99392 0.52254 0.41758 0.0
C1216 C 0.01581 0.51911 0.42096 0.0
H1217 H 0.95713 0.59695 0.48303 0.0
H1218 H 0.9451 0.56637 0.44494 0.0
H1219 H 0.95432 0.536 0.41521 0.0
O1220 O 0.0692 0.57211 0.47483 0.0
O1221 O 0.0167 0.5485 0.51605 0.0
O1222 O 0.01269 0.51152 0.52481 0.0
O1223 O 0.04994 0.59655 0.48809 0.0
O1224 O 0.04725 0.52482 0.48629 0.0
O1225 O 0.04125 0.50112 0.51711 0.0
O1226 O 0.01431 0.52022 0.5748 0.0
O1227 O 0.05674 0.54148 0.53215 0.0
O1228 O 0.07829 0.5635 0.51353 0.0
O1229 O 0.02503 0.48812 0.56329 0.0
O1230 O 0.03458 0.55615 0.56121 0.0
O1231 O 0.05041 0.58196 0.5351 0.0
C1232 C 1.00568 0.52634 0.51229 0.0
C1233 C 0.05936 0.59648 0.44821 0.0
C1234 C 0.06661 0.59025 0.40624 0.0
C1235 C 0.05113 0.60363 0.40022 0.0
C1236 C 0.04394 0.60986 0.44199 0.0
C1237 C 0.03989 0.61338 0.41806 0.0
C1238 C 0.07058 0.5868 0.43024 0.0
C1239 C 0.04463 0.50439 0.49462 0.0
C1240 C 0.06387 0.59205 0.4731 0.0
C1241 C 0.96106 0.56147 0.44828 0.0
C1242 C 0.96627 0.5441 0.43142 0.0
C1243 C 0.07734 0.55052 0.52981 0.0
C1244 C 0.01404 0.49372 0.60204 0.0
C1245 C 0.99667 0.49182 0.63861 0.0
C1246 C 0.01531 0.48526 0.64981 0.0
C1247 C 0.03295 0.48753 0.61341 0.0
C1248 C 0.99603 0.496 0.61479 0.0
C1249 C 0.03347 0.48322 0.6372 0.0
C1250 C 0.04203 0.57752 0.5555 0.0
C1251 C 0.01287 0.49829 0.57715 0.0
H1252 H 0.04794 0.60681 0.38183 0.0
H1253 H 0.03499 0.61751 0.45553 0.0
H1254 H 0.02803 0.62373 0.41333 0.0
H1255 H 0.08222 0.57614 0.43489 0.0
H1256 H 0.01588 0.48205 0.66832 0.0
H1257 H 0.04726 0.48602 0.60396 0.0
H1258 H 0.98155 0.50109 0.60623 0.0
H1259 H 0.04798 0.47838 0.6459 0.0
Tb1260 Tb 0.82229 0.77491 0.2817 0.0
C1261 C 0.73683 0.80033 0.23068 0.0
N1262 N 0.7518 0.81241 0.25038 0.0
C1263 C 0.75292 0.84858 0.23543 0.0
C1264 C 0.72989 0.81189 0.21207 0.0
C1265 C 0.75939 0.83632 0.25335 0.0
C1266 C 0.73826 0.8363 0.21459 0.0
C1267 C 0.71347 0.76299 0.20865 0.0
C1268 C 0.72869 0.77618 0.22905 0.0
C1269 C 0.70672 0.77438 0.1899 0.0
C1270 C 0.71487 0.79876 0.19162 0.0
Tb1271 Tb 0.76093 0.79048 0.27822 0.0
N1272 N 0.73583 0.76567 0.2474 0.0
C1273 C 0.70539 0.73877 0.20777 0.0
C1274 C 0.72715 0.74227 0.24713 0.0
C1275 C 0.71209 0.72842 0.22721 0.0
H1276 H 0.76996 0.84617 0.26976 0.0
H1277 H 0.70545 0.70982 0.227 0.0
H1278 H 0.81091 0.7181 0.29017 0.0
H1279 H 0.88387 0.85057 0.33228 0.0
H1280 H 0.73117 0.73418 0.26239 0.0
H1281 H 0.69368 0.728 0.1924 0.0
H1282 H 0.85683 0.82735 0.29661 0.0
H1283 H 0.75908 0.86753 0.23782 0.0
H1284 H 0.69508 0.76451 0.17404 0.0
H1285 H 0.70941 0.80731 0.17708 0.0
H1286 H 0.81485 0.6973 0.3244 0.0
H1287 H 0.73329 0.84585 0.20072 0.0
H1288 H 0.88953 0.83317 0.36927 0.0
N1289 N 0.82642 0.75227 0.31103 0.0
C1290 C 0.83968 0.76405 0.33209 0.0
C1291 C 0.82154 0.71618 0.32698 0.0
C1292 C 0.84342 0.75255 0.35187 0.0
C1293 C 0.81878 0.72827 0.30771 0.0
C1294 C 0.83351 0.72846 0.34933 0.0
N1295 N 0.84682 0.79783 0.31382 0.0
C1296 C 0.85911 0.81986 0.31282 0.0
C1297 C 0.86593 0.79986 0.354 0.0
C1298 C 0.85081 0.78738 0.33326 0.0
C1299 C 0.8777 0.82298 0.3537 0.0
C1300 C 0.8745 0.83291 0.33288 0.0
H1301 H 0.83591 0.71897 0.36411 0.0
H1302 H 0.86047 0.75674 0.38859 0.0
H1303 H 0.8802 0.79818 0.39044 0.0
O1304 O 0.84547 0.78547 0.25778 0.0
O1305 O 0.81428 0.79859 0.31229 0.0
O1306 O 0.77708 0.78217 0.31127 0.0
O1307 O 0.84829 0.75728 0.2769 0.0
O1308 O 0.81774 0.80576 0.26619 0.0
O1309 O 0.79081 0.82007 0.2861 0.0
O1310 O 0.7283 0.78359 0.28829 0.0
O1311 O 0.77578 0.78487 0.24398 0.0
O1312 O 0.79695 0.75778 0.25004 0.0
O1313 O 0.75196 0.81716 0.30169 0.0
O1314 O 0.76371 0.75779 0.29088 0.0
O1315 O 0.79263 0.74445 0.27361 0.0
C1316 C 0.79635 0.79457 0.32337 0.0
C1317 C 0.86218 0.75599 0.23931 0.0
C1318 C 0.88817 0.75165 0.2096 0.0
C1319 C 0.87345 0.73009 0.19827 0.0
C1320 C 0.84812 0.73412 0.2281 0.0
C1321 C 0.85363 0.72139 0.20754 0.0
C1322 C 0.88238 0.76461 0.23019 0.0
C1323 C 0.80908 0.82321 0.27522 0.0
C1324 C 0.85649 0.76944 0.2611 0.0
C1325 C 0.8576 0.76522 0.37313 0.0
C1326 C 0.86891 0.7888 0.37415 0.0
C1327 C 0.78558 0.76808 0.23549 0.0
C1328 C 0.71281 0.81561 0.30286 0.0
C1329 C 0.67829 0.81926 0.3199 0.0
C1330 C 0.67773 0.83876 0.30839 0.0
C1331 C 0.71189 0.83499 0.29144 0.0
C1332 C 0.69589 0.80767 0.31686 0.0
C1333 C 0.69435 0.84644 0.29417 0.0
C1334 C 0.77393 0.741 0.28378 0.0
C1335 C 0.73185 0.80418 0.30206 0.0
H1336 H 0.87755 0.71966 0.18253 0.0
H1337 H 0.83301 0.72679 0.23545 0.0
H1338 H 0.84263 0.70458 0.1989 0.0
H1339 H 0.8935 0.78133 0.23906 0.0
H1340 H 0.66429 0.84793 0.31016 0.0
H1341 H 0.72479 0.84146 0.28072 0.0
H1342 H 0.69683 0.79288 0.32598 0.0
H1343 H 0.69373 0.86145 0.28538 0.0
Tb1344 Tb 0.7691 0.28648 0.80846 0.0
C1345 C 0.8186 0.24461 0.71624 0.0
N1346 N 0.82602 0.25878 0.73819 0.0
C1347 C 0.85372 0.23676 0.74648 0.0
C1348 C 0.82812 0.2255 0.7087 0.0
C1349 C 0.84377 0.25556 0.75308 0.0
C1350 C 0.84573 0.22151 0.72428 0.0
C1351 C 0.79444 0.23643 0.67762 0.0
C1352 C 0.80183 0.24984 0.70115 0.0
C1353 C 0.80328 0.21683 0.67019 0.0
C1354 C 0.82006 0.21135 0.68574 0.0
Tb1355 Tb 0.80806 0.28824 0.7479 0.0
N1356 N 0.7939 0.26903 0.70896 0.0
C1357 C 0.77912 0.2437 0.66194 0.0
C1358 C 0.78051 0.27731 0.69297 0.0
C1359 C 0.7725 0.26451 0.6695 0.0
H1360 H 0.85021 0.26737 0.7701 0.0
H1361 H 0.76147 0.2709 0.65715 0.0
H1362 H 0.71729 0.29207 0.78943 0.0
H1363 H 0.82839 0.32882 0.88931 0.0
H1364 H 0.77606 0.29395 0.69804 0.0
H1365 H 0.77308 0.23394 0.64368 0.0
H1366 H 0.81438 0.30045 0.85156 0.0
H1367 H 0.86759 0.2341 0.75847 0.0
H1368 H 0.79767 0.20618 0.65226 0.0
H1369 H 0.82706 0.19649 0.67962 0.0
H1370 H 0.69247 0.31801 0.80157 0.0
H1371 H 0.85353 0.20702 0.71916 0.0
H1372 H 0.80575 0.35654 0.90426 0.0
N1373 N 0.74435 0.30938 0.81775 0.0
C1374 C 0.75084 0.32559 0.83859 0.0
C1375 C 0.70896 0.32054 0.81199 0.0
C1376 C 0.73681 0.34036 0.84662 0.0
C1377 C 0.72336 0.30615 0.80488 0.0
C1378 C 0.71578 0.33786 0.83283 0.0
N1379 N 0.7845 0.31253 0.84374 0.0
C1380 C 0.8045 0.31271 0.85715 0.0
C1381 C 0.77872 0.34343 0.87406 0.0
C1382 C 0.77145 0.32704 0.85221 0.0
C1383 C 0.79957 0.34422 0.88736 0.0
C1384 C 0.81243 0.32868 0.87892 0.0
H1385 H 0.7045 0.34886 0.8384 0.0
H1386 H 0.7335 0.36838 0.87472 0.0
H1387 H 0.77024 0.37112 0.89871 0.0
O1388 O 0.76968 0.26348 0.83345 0.0
O1389 O 0.7865 0.32274 0.80859 0.0
O1390 O 0.79449 0.30256 0.7775 0.0
O1391 O 0.73835 0.26469 0.81322 0.0
O1392 O 0.803 0.27753 0.81204 0.0
O1393 O 0.82667 0.29453 0.78524 0.0
O1394 O 0.81269 0.31902 0.733 0.0
O1395 O 0.79751 0.2534 0.75693 0.0
O1396 O 0.76868 0.26294 0.77448 0.0
O1397 O 0.84127 0.30616 0.74537 0.0
O1398 O 0.77267 0.29183 0.73951 0.0
O1399 O 0.75114 0.28978 0.77262 0.0
C1400 C 0.7967 0.32337 0.78986 0.0
C1401 C 0.73822 0.25985 0.85419 0.0
C1402 C 0.73815 0.25197 0.89535 0.0
C1403 C 0.724 0.26742 0.89998 0.0
C1404 C 0.72352 0.27482 0.85878 0.0
C1405 C 0.7166 0.27867 0.88164 0.0
C1406 C 0.74521 0.24829 0.87246 0.0
C1407 C 0.82319 0.28492 0.805 0.0
C1408 C 0.74776 0.25718 0.83128 0.0
C1409 C 0.74403 0.35686 0.86829 0.0
C1410 C 0.76494 0.35839 0.88197 0.0
C1411 C 0.78185 0.24845 0.77072 0.0
C1412 C 0.8417 0.32079 0.70849 0.0
C1413 C 0.83369 0.32354 0.66571 0.0
C1414 C 0.85498 0.31937 0.66209 0.0
C1415 C 0.86294 0.3168 0.70458 0.0
C1416 C 0.82722 0.32415 0.68894 0.0
C1417 C 0.86947 0.31603 0.68145 0.0
C1418 C 0.75392 0.29228 0.74969 0.0
C1419 C 0.8341 0.32034 0.73251 0.0
H1420 H 0.71839 0.27045 0.9176 0.0
H1421 H 0.71749 0.28369 0.84492 0.0
H1422 H 0.70548 0.2904 0.88514 0.0
H1423 H 0.75663 0.23681 0.86904 0.0
H1424 H 0.86068 0.31926 0.64448 0.0
H1425 H 0.8744 0.31409 0.71933 0.0
H1426 H 0.81069 0.327 0.69167 0.0
H1427 H 0.88587 0.31296 0.67854 0.0
Tb1428 Tb 0.77562 0.76099 0.76272 0.0
C1429 C 0.85694 0.84114 0.82118 0.0
N1430 N 0.83744 0.82947 0.8278 0.0
C1431 C 0.85718 0.82963 0.86709 0.0
C1432 C 0.87764 0.84602 0.83673 0.0
C1433 C 0.83709 0.82541 0.85112 0.0
C1434 C 0.87764 0.83948 0.85965 0.0
C1435 C 0.87569 0.86265 0.79244 0.0
C1436 C 0.85594 0.84971 0.79948 0.0
C1437 C 0.8965 0.86641 0.80726 0.0
C1438 C 0.89747 0.85816 0.82938 0.0
Tb1439 Tb 0.80589 0.82381 0.79994 0.0
N1440 N 0.83553 0.84562 0.78541 0.0
C1441 C 0.87389 0.87148 0.77073 0.0
C1442 C 0.83356 0.85525 0.76484 0.0
C1443 C 0.85271 0.86795 0.75701 0.0
H1444 H 0.82125 0.81895 0.85751 0.0
H1445 H 0.85106 0.87528 0.74055 0.0
H1446 H 0.75743 0.77759 0.71153 0.0
H1447 H 0.73476 0.69655 0.8135 0.0
H1448 H 0.81726 0.85378 0.75476 0.0
H1449 H 0.88868 0.88143 0.76465 0.0
H1450 H 0.76726 0.72351 0.80236 0.0
H1451 H 0.85681 0.82564 0.88525 0.0
H1452 H 0.91189 0.87609 0.80203 0.0
H1453 H 0.91356 0.86182 0.84096 0.0
H1454 H 0.7213 0.77165 0.68515 0.0
H1455 H 0.89318 0.84297 0.87215 0.0
H1456 H 0.69652 0.69121 0.79114 0.0
N1457 N 0.74331 0.75722 0.73685 0.0
C1458 C 0.72465 0.74251 0.7419 0.0
C1459 C 0.72195 0.76357 0.70119 0.0
C1460 C 0.70367 0.73828 0.72701 0.0
C1461 C 0.74239 0.7672 0.71642 0.0
C1462 C 0.70245 0.74922 0.70661 0.0
N1463 N 0.74737 0.7351 0.77524 0.0
C1464 C 0.75054 0.72194 0.79289 0.0
C1465 C 0.70776 0.71558 0.76722 0.0
C1466 C 0.7267 0.73137 0.76185 0.0
C1467 C 0.71066 0.70345 0.78643 0.0
C1468 C 0.73221 0.70642 0.79911 0.0
H1469 H 0.68665 0.74637 0.69472 0.0
H1470 H 0.66837 0.71982 0.72165 0.0
H1471 H 0.67195 0.69991 0.7568 0.0
O1472 O 0.78363 0.72817 0.76087 0.0
O1473 O 0.75315 0.78564 0.76705 0.0
O1474 O 0.76935 0.81082 0.80293 0.0
O1475 O 0.77599 0.74216 0.72776 0.0
O1476 O 0.7748 0.76619 0.80197 0.0
O1477 O 0.80805 0.79306 0.81699 0.0
O1478 O 0.80908 0.86015 0.80505 0.0
O1479 O 0.82713 0.80748 0.77673 0.0
O1480 O 0.8129 0.76777 0.77523 0.0
O1481 O 0.79744 0.84039 0.83234 0.0
O1482 O 0.78725 0.82236 0.76352 0.0
O1483 O 0.79264 0.78743 0.74378 0.0
C1484 C 0.75132 0.79949 0.7871 0.0
C1485 C 0.784 0.70329 0.72268 0.0
C1486 C 0.79357 0.66554 0.72161 0.0
C1487 C 0.79324 0.66308 0.69638 0.0
C1488 C 0.78316 0.70068 0.69733 0.0
C1489 C 0.7877 0.68052 0.68423 0.0
C1490 C 0.78875 0.68545 0.73458 0.0
C1491 C 0.79095 0.77649 0.81987 0.0
C1492 C 0.78086 0.72473 0.73719 0.0
C1493 C 0.68466 0.72316 0.73279 0.0
C1494 C 0.6867 0.71187 0.75284 0.0
C1495 C 0.82957 0.78566 0.77305 0.0
C1496 C 0.78246 0.87318 0.82709 0.0
C1497 C 0.76366 0.9015 0.81255 0.0
C1498 C 0.7462 0.89506 0.82629 0.0
C1499 C 0.76544 0.86732 0.84162 0.0
C1500 C 0.78177 0.89083 0.81324 0.0
C1501 C 0.74728 0.87818 0.84107 0.0
C1502 C 0.78965 0.8087 0.74352 0.0
C1503 C 0.80067 0.86077 0.82538 0.0
H1504 H 0.79743 0.64786 0.68624 0.0
H1505 H 0.77938 0.71429 0.68775 0.0
H1506 H 0.78734 0.67863 0.66474 0.0
H1507 H 0.78971 0.68744 0.75421 0.0
H1508 H 0.73203 0.90333 0.82585 0.0
H1509 H 0.76597 0.85416 0.85305 0.0
H1510 H 0.79504 0.89593 0.80233 0.0
H1511 H 0.734 0.87338 0.85196 0.0
Tb1512 Tb 0.56376 0.55356 0.54173 0.0
C1513 C 0.49726 0.46615 0.48558 0.0
N1514 N 0.50763 0.48667 0.47904 0.0
C1515 C 0.5153 0.46524 0.44237 0.0
C1516 C 0.49637 0.44422 0.47111 0.0
C1517 C 0.51597 0.48658 0.45742 0.0
C1518 C 0.50561 0.44396 0.44931 0.0
C1519 C 0.47835 0.44627 0.51524 0.0
C1520 C 0.48824 0.46724 0.50738 0.0
C1521 C 0.47776 0.42436 0.50106 0.0
C1522 C 0.48662 0.42333 0.479 0.0
Tb1523 Tb 0.50512 0.51999 0.50356 0.0
N1524 N 0.48895 0.4888 0.52065 0.0
C1525 C 0.46902 0.44795 0.53695 0.0
C1526 C 0.4783 0.49039 0.54081 0.0
C1527 C 0.46876 0.47009 0.54962 0.0
H1528 H 0.52271 0.50285 0.45139 0.0
H1529 H 0.46069 0.47153 0.56586 0.0
H1530 H 0.55488 0.55899 0.59996 0.0
H1531 H 0.60969 0.61647 0.49417 0.0
H1532 H 0.47612 0.50703 0.54966 0.0
H1533 H 0.46136 0.43224 0.54368 0.0
H1534 H 0.59152 0.57672 0.50108 0.0
H1535 H 0.52206 0.46523 0.42532 0.0
H1536 H 0.47027 0.40807 0.50686 0.0
H1537 H 0.48591 0.40629 0.4682 0.0
H1538 H 0.55458 0.59113 0.63312 0.0
H1539 H 0.5052 0.42746 0.43764 0.0
H1540 H 0.6091 0.65172 0.524 0.0
N1541 N 0.56371 0.58174 0.57455 0.0
C1542 C 0.57171 0.60442 0.57185 0.0
C1543 C 0.55905 0.59514 0.61582 0.0
C1544 C 0.57298 0.62345 0.59079 0.0
C1545 C 0.55864 0.57688 0.59667 0.0
C1546 C 0.5659 0.61855 0.61275 0.0
N1547 N 0.57966 0.58953 0.53345 0.0
C1548 C 0.59081 0.59204 0.51381 0.0
C1549 C 0.59069 0.63144 0.54779 0.0
C1550 C 0.5804 0.60845 0.55073 0.0
C1551 C 0.60093 0.63434 0.52692 0.0
C1552 C 0.60129 0.6145 0.51003 0.0
H1553 H 0.56661 0.63266 0.62776 0.0
H1554 H 0.58319 0.66146 0.60184 0.0
H1555 H 0.59875 0.66844 0.56416 0.0
O1556 O 0.59265 0.54414 0.53103 0.0
O1557 O 0.54628 0.57496 0.52053 0.0
O1558 O 0.50806 0.55831 0.51681 0.0
O1559 O 0.59182 0.55826 0.5685 0.0
O1560 O 0.56217 0.53517 0.50445 0.0
O1561 O 0.52937 0.53847 0.48334 0.0
O1562 O 0.46987 0.5094 0.49526 0.0
O1563 O 0.53162 0.49995 0.51157 0.0
O1564 O 0.54979 0.51808 0.54932 0.0
O1565 O 0.48995 0.52487 0.47001 0.0
O1566 O 0.50314 0.53908 0.53968 0.0
O1567 O 0.53679 0.53761 0.56103 0.0
C1568 C 0.52506 0.57651 0.51656 0.0
C1569 C 0.61186 0.52865 0.55987 0.0
C1570 C 0.63501 0.50108 0.54952 0.0
C1571 C 0.6277 0.48904 0.56811 0.0
C1572 C 0.60462 0.51666 0.57848 0.0
C1573 C 0.61258 0.49688 0.58253 0.0
C1574 C 0.62687 0.52075 0.54554 0.0
C1575 C 0.55097 0.53917 0.48493 0.0
C1576 C 0.60284 0.54816 0.55323 0.0
C1577 C 0.58219 0.6466 0.58756 0.0
C1578 C 0.59108 0.65058 0.56611 0.0
C1579 C 0.54211 0.49872 0.53298 0.0
C1580 C 0.45567 0.53548 0.47365 0.0
C1581 C 0.4338 0.56113 0.49251 0.0
C1582 C 0.43124 0.57022 0.47093 0.0
C1583 C 0.45284 0.54447 0.4521 0.0
C1584 C 0.44614 0.54394 0.4938 0.0
C1585 C 0.44072 0.56186 0.45082 0.0
C1586 C 0.516 0.54022 0.56028 0.0
C1587 C 0.4697 0.51844 0.47554 0.0
H1588 H 0.63389 0.47385 0.5717 0.0
H1589 H 0.59265 0.5223 0.58954 0.0
H1590 H 0.60695 0.48756 0.5968 0.0
H1591 H 0.63177 0.52971 0.53071 0.0
H1592 H 0.42153 0.58339 0.46945 0.0
H1593 H 0.46024 0.53826 0.43642 0.0
H1594 H 0.4485 0.53742 0.51071 0.0
H1595 H 0.43861 0.56882 0.43419 0.0
Tb1596 Tb 1.00227 0.53015 0.04104 0.0
C1597 C 0.08578 0.58295 0.99978 0.0
N1598 N 0.06772 0.56474 0.99032 0.0
C1599 C 0.06245 0.58174 0.9546 0.0
C1600 C 0.0924 0.60175 0.98728 0.0
C1601 C 0.05641 0.56355 0.96774 0.0
C1602 C 0.08042 0.601 0.96446 0.0
C1603 C 0.11541 0.60201 0.03336 0.0
C1604 C 0.09713 0.58306 0.02255 0.0
C1605 C 0.12189 0.62095 0.02111 0.0
C1606 C 0.11047 0.62078 0.9981 0.0
Tb1607 Tb 0.06101 0.53548 0.01273 0.0
N1608 N 0.09042 0.56443 0.0339 0.0
C1609 C 0.12686 0.60114 0.05597 0.0
C1610 C 0.10265 0.56267 0.05494 0.0
C1611 C 0.12064 0.58121 0.06664 0.0
H1612 H 0.04297 0.5485 0.95949 0.0
H1613 H 0.13005 0.57985 0.08356 0.0
H1614 H 0.0194 0.53498 0.10146 0.0
H1615 H 0.9338 0.46704 0.98301 0.0
H1616 H 0.09931 0.54655 0.06203 0.0
H1617 H 0.14098 0.61537 0.06492 0.0
H1618 H 0.96208 0.50506 0.99572 0.0
H1619 H 0.05334 0.58082 0.93678 0.0
H1620 H 0.13586 0.63571 0.02917 0.0
H1621 H 0.11573 0.63547 0.98885 0.0
H1622 H 0.01821 0.5082 0.13087 0.0
H1623 H 0.08498 0.6151 0.95425 0.0
H1624 H 0.93165 0.43649 0.00908 0.0
N1625 N 1.00161 0.50817 0.07156 0.0
C1626 C 0.98799 0.48602 0.06539 0.0
C1627 C 0.01003 0.50158 0.11236 0.0
C1628 C 0.9858 0.47042 0.08219 0.0
C1629 C 0.01118 0.51659 0.09527 0.0
C1630 C 0.99768 0.47823 0.10566 0.0
N1631 N 0.97667 0.49533 0.02737 0.0
C1632 C 0.96159 0.49156 0.00669 0.0
C1633 C 0.9587 0.45779 0.03658 0.0
C1634 C 0.97463 0.47964 0.04285 0.0
C1635 C 0.94418 0.45305 0.01453 0.0
C1636 C 0.94539 0.4702 0.99971 0.0
H1637 H 0.99647 0.46677 0.11908 0.0
H1638 H 0.96927 0.43569 0.08805 0.0
H1639 H 0.9455 0.42468 0.04812 0.0
O1640 O 0.9774 0.54698 0.02844 0.0
O1641 O 0.00778 0.49809 0.01805 0.0
O1642 O 0.04618 0.50207 0.0248 0.0
O1643 O 0.97814 0.5365 0.06338 0.0
O1644 O 0.00855 0.54244 0.00726 0.0
O1645 O 0.03039 0.52185 0.98696 0.0
O1646 O 0.09255 0.52642 0.01295 0.0
O1647 O 0.04904 0.56898 0.02151 0.0
O1648 O 0.02602 0.56528 0.05199 0.0
O1649 O 0.06738 0.51658 0.98033 0.0
O1650 O 0.05749 0.52438 0.0477 0.0
O1651 O 0.03346 0.54409 0.06619 0.0
C1652 C 0.02552 0.4887 0.0181 0.0
C1653 C 0.96525 0.57051 0.05956 0.0
C1654 C 0.94249 0.59959 0.06115 0.0
C1655 C 0.95831 0.61411 0.08027 0.0
C1656 C 0.9805 0.58485 0.07916 0.0
C1657 C 0.97718 0.6067 0.08924 0.0
C1658 C 0.94615 0.57781 0.05071 0.0
C1659 C 0.01177 0.52918 0.98782 0.0
C1660 C 0.96875 0.54766 0.04862 0.0
C1661 C 0.97098 0.44799 0.07546 0.0
C1662 C 0.95739 0.44173 0.05274 0.0
C1663 C 0.03929 0.57838 0.0394 0.0
C1664 C 0.10276 0.50451 0.97726 0.0
C1665 C 0.13463 0.48568 0.97725 0.0
C1666 C 0.13059 0.48097 0.95165 0.0
C1667 C 0.09926 0.49978 0.95179 0.0
C1668 C 0.12057 0.4976 0.98997 0.0
C1669 C 0.11316 0.48813 0.9391 0.0
C1670 C 0.0519 0.53622 0.06679 0.0
C1671 C 0.08735 0.51595 0.99039 0.0
H1672 H 0.95577 0.63092 0.0887 0.0
H1673 H 0.9949 0.57907 0.08675 0.0
H1674 H 0.9891 0.6178 0.10423 0.0
H1675 H 0.93419 0.56658 0.03577 0.0
H1676 H 0.14064 0.47135 0.9412 0.0
H1677 H 0.08571 0.50501 0.94166 0.0
H1678 H 0.12338 0.50141 0.00967 0.0
H1679 H 0.11027 0.48439 0.91943 0.0
H1680 H 0.0338 0.21024 0.96732 0.0
H1681 H 0.98284 0.08868 0.01415 0.0
H1682 H 0.96767 0.19462 0.9896 0.0
H1683 H 0.05148 0.11004 1.00025 0.0
H1684 H 0.97604 0.12605 0.00379 0.0
H1685 H 0.03997 0.1732 0.97845 0.0
C1686 C 0.02061 0.19925 0.97477 0.0
C1687 C 1.00022 0.20612 0.97764 0.0
C1688 C 0.99265 0.1226 0.00314 0.0
C1689 C 1.0071 0.16269 0.99017 0.0
C1690 C 0.9965 0.10109 0.00894 0.0
C1691 C 0.0179 0.09592 0.00841 0.0
C1692 C 0.01025 0.13929 0.99656 0.0
C1693 C 0.03485 0.11308 0.00151 0.0
C1694 C 0.02412 0.17788 0.98107 0.0
C1695 C 0.98379 0.19053 0.9872 0.0
N1696 N 0.0307 0.13368 0.99593 0.0
N1697 N 0.98752 0.16974 0.99294 0.0
H1698 H 0.13653 0.83408 0.20187 0.0
H1699 H 0.23307 0.76103 0.20333 0.0
H1700 H 0.14378 0.78661 0.13854 0.0
H1701 H 0.2281 0.81493 0.26186 0.0
H1702 H 0.20106 0.76961 0.17891 0.0
H1703 H 0.17023 0.82694 0.22346 0.0
C1704 C 0.1453 0.82224 0.19235 0.0
C1705 C 0.13712 0.81098 0.16821 0.0
C1706 C 0.20695 0.77955 0.1971 0.0
C1707 C 0.17614 0.80235 0.19333 0.0
C1708 C 0.22537 0.77477 0.21101 0.0
C1709 C 0.23328 0.78722 0.23478 0.0
C1710 C 0.19626 0.79689 0.20706 0.0
C1711 C 0.22223 0.80444 0.24393 0.0
C1712 C 0.16465 0.81813 0.2048 0.0
C1713 C 0.14946 0.79584 0.15703 0.0
N1714 N 0.20439 0.80871 0.23016 0.0
N1715 N 0.16821 0.79183 0.16971 0.0
H1716 H 0.48184 0.83833 0.51007 0.0
H1717 H 0.53509 0.96653 0.48099 0.0
H1718 H 0.5271 0.8489 0.4567 0.0
H1719 H 0.50797 0.95709 0.54748 0.0
H1720 H 0.53015 0.92374 0.47031 0.0
H1721 H 0.48886 0.88128 0.52241 0.0
C1722 C 0.49348 0.84957 0.50107 0.0
C1723 C 0.504 0.83955 0.48235 0.0
C1724 C 0.52529 0.93098 0.48728 0.0
C1725 C 0.51177 0.88944 0.49624 0.0
C1726 C 0.52837 0.95559 0.49359 0.0
C1727 C 0.52246 0.96589 0.51555 0.0
C1728 C 0.5156 0.91604 0.50265 0.0
C1729 C 0.51267 0.95027 0.53032 0.0
C1730 C 0.49742 0.87424 0.50814 0.0
C1731 C 0.51872 0.85547 0.47138 0.0
N1732 N 0.50952 0.92634 0.52362 0.0
N1733 N 0.52197 0.87939 0.4783 0.0
H1734 H 0.52424 0.27046 0.67965 0.0
H1735 H 0.39545 0.28123 0.67639 0.0
H1736 H 0.49023 0.30167 0.62664 0.0
H1737 H 0.42706 0.24612 0.72715 0.0
H1738 H 0.43102 0.29088 0.65953 0.0
H1739 H 0.48947 0.26224 0.6982 0.0
C1740 C 0.50943 0.27539 0.67177 0.0
C1741 C 0.51016 0.28667 0.65147 0.0
C1742 C 0.43031 0.28121 0.67447 0.0
C1743 C 0.47042 0.27766 0.67283 0.0
C1744 C 0.41008 0.27589 0.68416 0.0
C1745 C 0.40857 0.26311 0.70323 0.0
C1746 C 0.44908 0.27344 0.68377 0.0
C1747 C 0.42778 0.25627 0.71258 0.0
C1748 C 0.48961 0.2708 0.68244 0.0
C1749 C 0.49047 0.2928 0.64215 0.0
N1750 N 0.44726 0.26141 0.70267 0.0
N1751 N 0.47149 0.28829 0.65293 0.0
H1752 H 0.04407 0.82799 0.6848 0.0
H1753 H 0.02949 0.89136 0.56987 0.0
H1754 H 0.99056 0.79864 0.62472 0.0
H1755 H 0.06631 0.92722 0.63991 0.0
H1756 H 0.01644 0.85625 0.58784 0.0
H1757 H 0.05487 0.86303 0.6664 0.0
C1758 C 0.03462 0.82882 0.66768 0.0
C1759 C 0.0163 0.81025 0.65639 0.0
C1760 C 0.02736 0.87187 0.59921 0.0
C1761 C 0.02868 0.85055 0.6351 0.0
C1762 C 0.03472 0.89203 0.58902 0.0
C1763 C 0.04941 0.91237 0.60321 0.0
C1764 C 0.0349 0.87191 0.62372 0.0
C1765 C 0.05562 0.91189 0.62793 0.0
C1766 C 0.04074 0.84894 0.65723 0.0
C1767 C 1.00472 0.81251 0.63419 0.0
N1768 N 0.04854 0.89202 0.63725 0.0
N1769 N 0.01114 0.83221 0.62424 0.0
H1770 H 0.47887 0.82746 0.79243 0.0
H1771 H 0.35491 0.78692 0.83097 0.0
H1772 H 0.46449 0.78596 0.84833 0.0
H1773 H 0.36413 0.80694 0.76138 0.0
H1774 H 0.39565 0.79064 0.83966 0.0
H1775 H 0.43792 0.82455 0.78275 0.0
C1776 C 0.4673 0.81799 0.80289 0.0
C1777 C 0.47561 0.80738 0.82166 0.0
C1778 C 0.38883 0.7943 0.82247 0.0
C1779 C 0.4284 0.80403 0.81066 0.0
C1780 C 0.36538 0.79193 0.81736 0.0
C1781 C 0.35564 0.79624 0.79519 0.0
C1782 C 0.40314 0.80163 0.80559 0.0
C1783 C 0.3706 0.80357 0.7788 0.0
C1784 C 0.44384 0.81626 0.79728 0.0
C1785 C 0.45941 0.79507 0.83422 0.0
N1786 N 0.39344 0.8061 0.78433 0.0
N1787 N 0.4369 0.79389 0.82864 0.0
H1788 H 0.55184 0.2093 0.15083 0.0
H1789 H 0.50753 0.07833 0.07516 0.0
H1790 H 0.48111 0.17478 0.13148 0.0
H1791 H 0.57091 0.12248 0.06564 0.0
H1792 H 0.49955 0.11197 0.10096 0.0
H1793 H 0.56116 0.17626 0.12466 0.0
C1794 C 0.53829 0.19483 0.14116 0.0
C1795 C 0.51562 0.19498 0.14334 0.0
C1796 C 0.51519 0.11436 0.09319 0.0
C1797 C 0.52622 0.15699 0.1137 0.0
C1798 C 0.51979 0.09514 0.07849 0.0
C1799 C 0.53986 0.09761 0.06804 0.0
C1800 C 0.53093 0.13628 0.09801 0.0
C1801 C 0.55512 0.11986 0.07309 0.0
C1802 C 0.54362 0.17604 0.12616 0.0
C1803 C 0.49881 0.17566 0.1303 0.0
N1804 N 0.55043 0.1383 0.08785 0.0
N1805 N 0.50444 0.15748 0.11628 0.0
H1806 H 0.11531 0.26492 0.32582 0.0
H1807 H 0.22868 0.3365 0.28374 0.0
H1808 H 0.12244 0.33804 0.31956 0.0
H1809 H 0.22052 0.2699 0.3083 0.0
H1810 H 0.19068 0.33866 0.29435 0.0
H1811 H 0.15329 0.2671 0.31624 0.0
C1812 C 0.12478 0.28162 0.32248 0.0
C1813 C 0.11507 0.30131 0.32369 0.0
C1814 C 0.1972 0.32348 0.29721 0.0
C1815 C 0.16003 0.30394 0.31231 0.0
C1816 C 0.219 0.32223 0.29114 0.0
C1817 C 0.2279 0.30248 0.2942 0.0
C1818 C 0.18399 0.30481 0.30637 0.0
C1819 C 0.21439 0.28492 0.30438 0.0
C1820 C 0.14681 0.28284 0.31699 0.0
C1821 C 0.12889 0.32231 0.31901 0.0
N1822 N 0.19344 0.2864 0.30975 0.0
N1823 N 0.1505 0.32304 0.31348 0.0
H1824 H 0.95245 0.99759 0.18567 0.0
H1825 H 0.01202 0.07537 0.09422 0.0
H1826 H 0.98166 0.07254 0.20404 0.0
H1827 H 0.99415 0.99931 0.07957 0.0
H1828 H 0.99844 0.07467 0.13359 0.0
H1829 H 0.96475 0.99774 0.14542 0.0
C1830 C 0.96136 0.01405 0.18124 0.0
C1831 C 0.96603 0.03506 0.19829 0.0
C1832 C 0.99732 0.05811 0.1217 0.0
C1833 C 0.98009 0.03539 0.15238 0.0
C1834 C 1.00514 0.05852 0.09927 0.0
C1835 C 1.004 0.03738 0.08352 0.0
C1836 C 0.98816 0.03637 0.12842 0.0
C1837 C 0.99474 0.01603 0.09086 0.0
C1838 C 0.96842 0.01413 0.15831 0.0
C1839 C 0.97768 0.05588 0.19156 0.0
N1840 N 0.98717 0.01605 0.11278 0.0
N1841 N 0.98426 0.05551 0.16921 0.0
H1842 H 0.23767 0.64927 0.49164 0.0
H1843 H 0.26691 0.7483 0.40948 0.0
H1844 H 0.30387 0.69472 0.49418 0.0
H1845 H 0.19959 0.70538 0.40639 0.0
H1846 H 0.27996 0.72996 0.44248 0.0
H1847 H 0.22251 0.67062 0.46214 0.0
C1848 C 0.24898 0.66375 0.48612 0.0
C1849 C 0.27211 0.67009 0.49529 0.0
C1850 C 0.26228 0.7246 0.43476 0.0
C1851 C 0.25492 0.69449 0.46171 0.0
C1852 C 0.25485 0.73504 0.41587 0.0
C1853 C 0.23218 0.72818 0.40511 0.0
C1854 C 0.24697 0.70705 0.44293 0.0
C1855 C 0.21719 0.7112 0.41431 0.0
C1856 C 0.24032 0.67592 0.46931 0.0
C1857 C 0.28596 0.68905 0.48754 0.0
N1858 N 0.22489 0.70102 0.43262 0.0
N1859 N 0.27717 0.70046 0.47117 0.0
H1860 H 0.65136 0.02927 0.68078 0.0
H1861 H 0.56911 0.08435 0.60102 0.0
H1862 H 0.6759 0.09612 0.65873 0.0
H1863 H 0.57141 0.01123 0.5851 0.0
H1864 H 0.60261 0.09168 0.63207 0.0
H1865 H 0.6147 0.02545 0.65624 0.0
C1866 C 0.64878 0.0434 0.67133 0.0
C1867 C 0.66652 0.06289 0.67138 0.0
C1868 C 0.59572 0.0741 0.62165 0.0
C1869 C 0.62518 0.05874 0.64384 0.0
C1870 C 0.57693 0.07001 0.60398 0.0
C1871 C 0.56845 0.04743 0.59015 0.0
C1872 C 0.60506 0.05516 0.62603 0.0
C1873 C 0.57828 0.02905 0.59494 0.0
C1874 C 0.62806 0.04113 0.65727 0.0
C1875 C 0.66256 0.08072 0.6588 0.0
N1876 N 0.59615 0.03328 0.61264 0.0
N1877 N 0.64222 0.07819 0.64535 0.0
H1878 H 0.32635 0.32497 0.98034 0.0
H1879 H 0.27954 0.33826 0.84599 0.0
H1880 H 0.28344 0.37202 0.96627 0.0
H1881 H 0.31049 0.2819 0.86113 0.0
H1882 H 0.28138 0.35138 0.88972 0.0
H1883 H 0.32112 0.30934 0.93681 0.0
C1884 C 0.31561 0.33187 0.96816 0.0
C1885 C 0.30534 0.34991 0.97716 0.0
C1886 C 0.28781 0.33616 0.88347 0.0
C1887 C 0.29955 0.33222 0.92691 0.0
C1888 C 0.28683 0.32866 0.85844 0.0
C1889 C 0.29526 0.30912 0.84966 0.0
C1890 C 0.2974 0.32418 0.90004 0.0
C1891 C 0.30429 0.29736 0.86686 0.0
C1892 C 0.31266 0.32293 0.94323 0.0
C1893 C 0.29163 0.35807 0.96031 0.0
N1894 N 0.30525 0.30513 0.89112 0.0
N1895 N 0.28932 0.34935 0.93605 0.0
H1896 H 0.97176 0.0611 0.3482 0.0
H1897 H 0.99179 0.99369 0.45379 0.0
H1898 H 0.9759 0.98871 0.32936 0.0
H1899 H 0.03488 0.06219 0.45443 0.0
H1900 H 0.97921 0.99078 0.41036 0.0
H1901 H 0.98807 0.06175 0.38993 0.0
C1902 C 0.97605 0.04531 0.35295 0.0
C1903 C 0.97265 0.02484 0.33543 0.0
C1904 C 0.99161 1.00627 0.42006 0.0
C1905 C 0.99052 0.02529 0.38318 0.0
C1906 C 0.99897 0.00786 0.44475 0.0
C1907 C 0.01483 0.02793 0.45768 0.0
C1908 C 0.9995 0.02532 0.40855 0.0
C1909 C 0.02269 0.04633 0.44522 0.0
C1910 C 0.98536 0.04573 0.37669 0.0
C1911 C 0.97848 1.00485 0.34242 0.0
N1912 N 0.0147 0.04473 0.42142 0.0
N1913 N 0.98687 1.00542 0.36599 0.0
H1914 H 0.30034 0.70982 0.59188 0.0
H1915 H 0.30384 0.72639 0.73209 0.0
H1916 H 0.29054 0.64934 0.62766 0.0
H1917 H 0.26509 0.76475 0.69154 0.0
H1918 H 0.30522 0.70084 0.69437 0.0
H1919 H 0.29373 0.73395 0.62891 0.0
C1920 C 0.2969 0.70176 0.60763 0.0
C1921 C 0.29611 0.6778 0.60709 0.0
C1922 C 0.29646 0.7149 0.69383 0.0
C1923 C 0.28891 0.70494 0.64892 0.0
C1924 C 0.29569 0.72957 0.71528 0.0
C1925 C 0.28485 0.74821 0.7149 0.0
C1926 C 0.28675 0.71919 0.67182 0.0
C1927 C 0.27435 0.75118 0.69255 0.0
C1928 C 0.29295 0.71537 0.62849 0.0
C1929 C 0.29131 0.66785 0.62761 0.0
N1930 N 0.2759 0.73701 0.67171 0.0
N1931 N 0.28822 0.68161 0.64796 0.0
H1932 H 0.62441 0.08165 0.76407 0.0
H1933 H 0.58206 0.043 0.88576 0.0
H1934 H 0.63257 0.01798 0.78926 0.0
H1935 H 0.58332 0.11166 0.86719 0.0
H1936 H 0.59847 0.03251 0.84901 0.0
H1937 H 0.60603 0.0916 0.79983 0.0
C1938 C 0.622 0.06962 0.77688 0.0
C1939 C 0.62998 0.04899 0.77373 0.0
C1940 C 0.59514 0.04988 0.85298 0.0
C1941 C 0.60937 0.0603 0.81463 0.0
C1942 C 0.58592 0.05593 0.87408 0.0
C1943 C 0.58115 0.0782 0.87954 0.0
C1944 C 0.5996 0.06617 0.83718 0.0
C1945 C 0.58629 0.09412 0.86349 0.0
C1946 C 0.61173 0.07538 0.79738 0.0
C1947 C 0.62673 0.03414 0.79105 0.0
N1948 N 0.59517 0.08779 0.84304 0.0
N1949 N 0.61675 0.0401 0.81073 0.0
H1950 H 0.31547 0.32416 0.09622 0.0
H1951 H 0.26596 0.33978 0.22304 0.0
H1952 H 0.27375 0.37307 0.11289 0.0
H1953 H 0.30759 0.29173 0.20275 0.0
H1954 H 0.26687 0.3516 0.18278 0.0
H1955 H 0.30998 0.31043 0.13437 0.0
C1956 C 0.30479 0.33175 0.10773 0.0
C1957 C 0.29506 0.3498 0.10122 0.0
C1958 C 0.27572 0.33841 0.18718 0.0
C1959 C 0.28907 0.33446 0.14565 0.0
C1960 C 0.27531 0.33178 0.21018 0.0
C1961 C 0.28662 0.31467 0.21626 0.0
C1962 C 0.28757 0.32786 0.17021 0.0
C1963 C 0.29844 0.30484 0.19886 0.0
C1964 C 0.30177 0.32399 0.12969 0.0
C1965 C 0.28142 0.35896 0.11702 0.0
N1966 N 0.29856 0.31152 0.17678 0.0
N1967 N 0.27904 0.35139 0.13864 0.0
H1968 H 0.25303 0.01584 0.98178 0.0
H1969 H 0.13545 0.95918 0.02081 0.0
H1970 H 0.22792 0.94136 0.98063 0.0
H1971 H 0.16619 0.03383 0.03238 0.0
H1972 H 0.16421 0.95193 0.99542 0.0
H1973 H 0.21573 0.02197 0.98803 0.0
C1974 C 0.23947 1.00067 0.98201 0.0
C1975 C 0.2436 0.97816 0.98133 0.0
C1976 C 0.1644 0.96992 0.00322 0.0
C1977 C 0.20126 0.98506 0.98891 0.0
C1978 C 0.14817 0.97401 0.01788 0.0
C1979 C 0.1487 0.99705 0.02897 0.0
C1980 C 0.18127 0.98902 0.99981 0.0
C1981 C 0.16516 0.01575 0.02413 0.0
C1982 C 0.21824 1.0042 0.98578 0.0
C1983 C 0.22547 0.95909 0.98162 0.0
N1984 N 0.18097 0.01129 0.01013 0.0
N1985 N 0.20515 0.96304 0.98593 0.0
H1986 H 0.68746 0.6229 0.95576 0.0
H1987 H 0.61396 0.56361 0.0478 0.0
H1988 H 0.70442 0.64591 0.03338 0.0
H1989 H 0.58282 0.57362 0.97896 0.0
H1990 H 0.64995 0.58793 0.04096 0.0
H1991 H 0.65101 0.59924 0.96214 0.0
C1992 C 0.68345 0.62313 0.9741 0.0
C1993 C 0.69892 0.63649 0.99406 0.0
C1994 C 0.63523 0.58467 0.02734 0.0
C1995 C 0.65769 0.6091 0.00143 0.0
C1996 C 0.61484 0.57066 0.03109 0.0
C1997 C 0.59557 0.56664 0.01383 0.0
C1998 C 0.63638 0.59417 0.00592 0.0
C1999 C 0.59739 0.57642 0.99267 0.0
C2000 C 0.6627 0.60965 0.9777 0.0
C2001 C 0.69291 0.63604 0.01747 0.0
N2002 N 0.61753 0.58963 0.98918 0.0
N2003 N 0.67285 0.62234 0.02054 0.0
H2004 H 0.6884 0.51222 0.25295 0.0
H2005 H 0.72786 0.39538 0.26645 0.0
H2006 H 0.69231 0.48789 0.32164 0.0
H2007 H 0.75469 0.44099 0.21765 0.0
H2008 H 0.71133 0.42659 0.28547 0.0
H2009 H 0.70856 0.48285 0.23704 0.0
C2010 C 0.69353 0.50072 0.26463 0.0
C2011 C 0.68888 0.50251 0.28863 0.0
C2012 C 0.72098 0.42969 0.27067 0.0
C2013 C 0.7115 0.46892 0.27061 0.0
C2014 C 0.73053 0.41198 0.2599 0.0
C2015 C 0.74236 0.41539 0.24008 0.0
C2016 C 0.72302 0.45069 0.2613 0.0
C2017 C 0.74511 0.43726 0.23232 0.0
C2018 C 0.70509 0.4841 0.25565 0.0
C2019 C 0.69584 0.48721 0.3031 0.0
N2020 N 0.73523 0.45395 0.24271 0.0
N2021 N 0.70664 0.47085 0.29379 0.0
H2022 H 0.88323 0.46191 0.53458 0.0
H2023 H 0.97621 0.55471 0.51709 0.0
H2024 H 0.85996 0.50574 0.4872 0.0
H2025 H 0.98021 0.48364 0.48977 0.0
H2026 H 0.93503 0.54212 0.50957 0.0
H2027 H 0.9209 0.47378 0.52412 0.0
C2028 C 0.88585 0.47364 0.52158 0.0
C2029 C 0.8682 0.48217 0.51106 0.0
C2030 C 0.94499 0.52957 0.50431 0.0
C2031 C 0.91158 0.49666 0.50007 0.0
C2032 C 0.96843 0.53673 0.50841 0.0
C2033 C 0.98149 0.52025 0.50349 0.0
C2034 C 0.93484 0.50563 0.49645 0.0
C2035 C 0.97059 0.49682 0.49366 0.0
C2036 C 0.9074 0.48043 0.51572 0.0
C2037 C 0.87309 0.49855 0.49546 0.0
N2038 N 0.94776 0.49 0.49108 0.0
N2039 N 0.8946 0.50564 0.49066 0.0
H2040 H 0.33268 0.08521 0.33533 0.0
H2041 H 0.31192 0.13221 0.21148 0.0
H2042 H 0.33393 0.04539 0.26469 0.0
H2043 H 0.32314 0.17445 0.28321 0.0
H2044 H 0.31208 0.09712 0.23001 0.0
H2045 H 0.31804 0.11404 0.31559 0.0
C2046 C 0.32902 0.08208 0.31567 0.0
C2047 C 0.33502 0.06343 0.3015 0.0
C2048 C 0.31449 0.1141 0.24165 0.0
C2049 C 0.31911 0.09634 0.27898 0.0
C2050 C 0.31484 0.13403 0.23109 0.0
C2051 C 0.31787 0.15599 0.24594 0.0
C2052 C 0.31717 0.11641 0.2671 0.0
C2053 C 0.32094 0.15767 0.27125 0.0
C2054 C 0.32098 0.09867 0.30441 0.0
C2055 C 0.32996 0.06 0.27614 0.0
N2056 N 0.32051 0.13808 0.28107 0.0
N2057 N 0.32276 0.0767 0.2656 0.0
H2058 H 0.30218 0.12039 0.54576 0.0
H2059 H 0.43243 0.11785 0.54842 0.0
H2060 H 0.34912 0.17018 0.51537 0.0
H2061 H 0.38379 0.07182 0.58054 0.0
H2062 H 0.402 0.13492 0.53199 0.0
H2063 H 0.33191 0.10072 0.55551 0.0
C2064 C 0.31885 0.12736 0.54133 0.0
C2065 C 0.32323 0.1471 0.52994 0.0
C2066 C 0.39799 0.12088 0.54237 0.0
C2067 C 0.35753 0.12441 0.54094 0.0
C2068 C 0.41524 0.11107 0.55154 0.0
C2069 C 0.41042 0.09367 0.56598 0.0
C2070 C 0.37596 0.11302 0.54772 0.0
C2071 C 0.38808 0.08541 0.56968 0.0
C2072 C 0.33585 0.11599 0.54678 0.0
C2073 C 0.34512 0.15512 0.52438 0.0
N2074 N 0.37171 0.09527 0.56076 0.0
N2075 N 0.36156 0.14375 0.53001 0.0
H2076 H 0.70846 0.62538 0.348 0.0
H2077 H 0.76195 0.69931 0.2515 0.0
H2078 H 0.68325 0.60648 0.27131 0.0
H2079 H 0.76133 0.73 0.32592 0.0
H2080 H 0.73895 0.66171 0.25863 0.0
H2081 H 0.73368 0.66091 0.34032 0.0
C2082 C 0.70823 0.62869 0.32954 0.0
C2083 C 0.69364 0.61299 0.31029 0.0
C2084 C 0.74413 0.67664 0.27342 0.0
C2085 C 0.72274 0.65343 0.30136 0.0
C2086 C 0.75741 0.69787 0.26944 0.0
C2087 C 0.76354 0.71747 0.28824 0.0
C2088 C 0.73751 0.67512 0.29647 0.0
C2089 C 0.75691 0.71512 0.31104 0.0
C2090 C 0.72261 0.64897 0.32519 0.0
C2091 C 0.69408 0.61822 0.28671 0.0
N2092 N 0.7443 0.6943 0.31456 0.0
N2093 N 0.70851 0.63796 0.28287 0.0
H2094 H 0.84212 0.4681 0.76919 0.0
H2095 H 0.83458 0.34933 0.81725 0.0
H2096 H 0.83339 0.45977 0.84301 0.0
H2097 H 0.78732 0.34729 0.75415 0.0
H2098 H 0.84808 0.39191 0.81967 0.0
H2099 H 0.83208 0.42483 0.7571 0.0
C2100 C 0.83767 0.45725 0.7827 0.0
C2101 C 0.83867 0.46749 0.80718 0.0
C2102 C 0.83536 0.38193 0.80476 0.0
C2103 C 0.82837 0.4188 0.79369 0.0
C2104 C 0.82793 0.35778 0.80321 0.0
C2105 C 0.81024 0.34515 0.78526 0.0
C2106 C 0.82485 0.39324 0.7883 0.0
C2107 C 0.80143 0.35668 0.76785 0.0
C2108 C 0.83216 0.43274 0.7758 0.0
C2109 C 0.83279 0.4527 0.82397 0.0
N2110 N 0.80868 0.38042 0.76994 0.0
N2111 N 0.82831 0.42904 0.81698 0.0
H2112 H 0.03555 0.84693 0.03639 0.0
H2113 H 0.05745 0.98748 0.07694 0.0
H2114 H 0.08049 0.88391 0.10117 0.0
H2115 H 0.03322 0.95208 0.00321 0.0
H2116 H 0.06433 0.95029 0.08727 0.0
H2117 H 0.03287 0.8849 0.02503 0.0
C2118 C 0.04534 0.86301 0.04803 0.0
C2119 C 0.05874 0.8618 0.06959 0.0
C2120 C 0.05749 0.95062 0.06881 0.0
C2121 C 0.05489 0.90617 0.05696 0.0
C2122 C 0.05363 0.97202 0.0628 0.0
C2123 C 0.0447 0.97339 0.03901 0.0
C2124 C 0.05197 0.92988 0.05111 0.0
C2125 C 0.03976 0.95224 0.02184 0.0
C2126 C 0.04363 0.88483 0.04156 0.0
C2127 C 0.07043 0.88363 0.08408 0.0
N2128 N 0.04325 0.93161 0.02822 0.0
N2129 N 0.06803 0.9047 0.07769 0.0
H2130 H 0.91992 0.25083 0.91278 0.0
H2131 H 0.8675 0.30721 0.8048 0.0
H2132 H 0.95912 0.29922 0.87408 0.0
H2133 H 0.82608 0.2592 0.84217 0.0
H2134 H 0.90092 0.30468 0.83089 0.0
H2135 H 0.88523 0.2542 0.88856 0.0
C2136 C 0.92126 0.26235 0.89942 0.0
C2137 C 0.94259 0.27477 0.89556 0.0
C2138 C 0.88456 0.29469 0.83349 0.0
C2139 C 0.90289 0.27855 0.86755 0.0
C2140 C 0.86535 0.29607 0.81846 0.0
C2141 C 0.84375 0.28339 0.82111 0.0
C2142 C 0.88242 0.28049 0.85152 0.0
C2143 C 0.8423 0.26938 0.8394 0.0
C2144 C 0.90143 0.26418 0.8855 0.0
C2145 C 0.94317 0.28928 0.87781 0.0
N2146 N 0.8613 0.2683 0.85384 0.0
N2147 N 0.92376 0.29068 0.86453 0.0
H2148 H 0.51452 0.22261 0.55303 0.0
H2149 H 0.57668 0.11746 0.56924 0.0
H2150 H 0.58025 0.23483 0.59527 0.0
H2151 H 0.50787 0.10659 0.53558 0.0
H2152 H 0.5798 0.16024 0.57654 0.0
H2153 H 0.51348 0.1806 0.54402 0.0
C2154 C 0.52896 0.21664 0.56021 0.0
C2155 C 0.54759 0.23277 0.57493 0.0
C2156 C 0.56403 0.14853 0.5675 0.0
C2157 C 0.54631 0.18372 0.56465 0.0
C2158 C 0.56228 0.12399 0.56314 0.0
C2159 C 0.54207 0.1081 0.55146 0.0
C2160 C 0.54541 0.15754 0.56018 0.0
C2161 C 0.52384 0.11789 0.54461 0.0
C2162 C 0.52825 0.19241 0.55512 0.0
C2163 C 0.56556 0.22338 0.58372 0.0
N2164 N 0.52597 0.14176 0.54899 0.0
N2165 N 0.56446 0.19964 0.57851 0.0
H2166 H 0.56406 0.73822 0.37292 0.0
H2167 H 0.66085 0.84615 0.35371 0.0
H2168 H 0.5763 0.80802 0.41569 0.0
H2169 H 0.6554 0.77391 0.32071 0.0
H2170 H 0.6302 0.83272 0.37678 0.0
H2171 H 0.59767 0.75101 0.354 0.0
C2172 C 0.57392 0.75622 0.37851 0.0
C2173 C 0.56727 0.77206 0.39594 0.0
C2174 C 0.63578 0.81979 0.3646 0.0
C2175 C 0.60584 0.78695 0.37405 0.0
C2176 C 0.65318 0.82746 0.35131 0.0
C2177 C 0.66057 0.81116 0.33506 0.0
C2178 C 0.62547 0.79562 0.3615 0.0
C2179 C 0.65031 0.7871 0.33305 0.0
C2180 C 0.59316 0.76351 0.36767 0.0
C2181 C 0.58079 0.79516 0.40241 0.0
N2182 N 0.63318 0.7801 0.34593 0.0
N2183 N 0.59931 0.80196 0.39132 0.0
H2184 H 0.05936 0.24133 0.37448 0.0
H2185 H 0.02009 0.17617 0.48377 0.0
H2186 H 0.03182 0.27315 0.435 0.0
H2187 H 0.04081 0.14178 0.41962 0.0
H2188 H 0.03145 0.21406 0.47013 0.0
H2189 H 0.06007 0.20724 0.39467 0.0
C2190 C 0.05425 0.24154 0.39238 0.0
C2191 C 0.04556 0.26013 0.40307 0.0
C2192 C 0.03379 0.19826 0.45918 0.0
C2193 C 0.04579 0.221 0.42605 0.0
C2194 C 0.02745 0.17663 0.46708 0.0
C2195 C 0.0292 0.15568 0.45268 0.0
C2196 C 0.04205 0.199 0.43675 0.0
C2197 C 0.03875 0.15741 0.4311 0.0
C2198 C 0.05435 0.22194 0.40379 0.0
C2199 C 0.03864 0.25918 0.42608 0.0
N2200 N 0.04457 0.17857 0.42369 0.0
N2201 N 0.03867 0.2399 0.43664 0.0
H2202 H 0.59911 0.26629 0.28033 0.0
H2203 H 0.71588 0.28566 0.22339 0.0
H2204 H 0.60163 0.27143 0.20489 0.0
H2205 H 0.70985 0.2693 0.29502 0.0
H2206 H 0.67497 0.28242 0.21655 0.0
H2207 H 0.63986 0.2698 0.28623 0.0
C2208 C 0.60816 0.26821 0.2649 0.0
C2209 C 0.59651 0.26849 0.24199 0.0
C2210 C 0.68255 0.27949 0.23375 0.0
C2211 C 0.64403 0.27247 0.24879 0.0
C2212 C 0.70604 0.28137 0.23774 0.0
C2213 C 0.71666 0.27775 0.25989 0.0
C2214 C 0.66927 0.27417 0.25209 0.0
C2215 C 0.70267 0.27212 0.2776 0.0
C2216 C 0.63161 0.27016 0.26834 0.0
C2217 C 0.60963 0.27119 0.22292 0.0
N2218 N 0.67993 0.27064 0.27337 0.0
N2219 N 0.63253 0.27302 0.22673 0.0
H2220 H 0.52346 0.85673 0.93492 0.0
H2221 H 0.57686 0.99628 0.96129 0.0
H2222 H 0.56344 0.88955 0.88491 0.0
H2223 H 0.52509 0.95944 0.99768 0.0
H2224 H 0.57581 0.9585 0.93485 0.0
H2225 H 0.52847 0.89481 0.96029 0.0
C2226 C 0.53348 0.87197 0.92923 0.0
C2227 C 0.54282 0.86971 0.90741 0.0
C2228 C 0.5648 0.9588 0.94872 0.0
C2229 C 0.54861 0.91425 0.93696 0.0
C2230 C 0.56539 0.98034 0.96384 0.0
C2231 C 0.55125 0.98116 0.98205 0.0
C2232 C 0.55011 0.93793 0.95199 0.0
C2233 C 0.53659 0.9599 0.98426 0.0
C2234 C 0.53628 0.8939 0.94385 0.0
C2235 C 0.55589 0.89035 0.90151 0.0
N2236 N 0.53652 0.93938 0.96961 0.0
N2237 N 0.55829 0.91182 0.91612 0.0
H2238 H 0.94181 0.73326 0.71476 0.0
H2239 H 0.86545 0.81852 0.76378 0.0
H2240 H 0.97076 0.80471 0.75137 0.0
H2241 H 0.84491 0.74396 0.76371 0.0
H2242 H 0.90209 0.8139 0.75376 0.0
H2243 H 0.90488 0.73679 0.72657 0.0
C2244 C 0.94045 0.74979 0.72514 0.0
C2245 C 0.9597 0.76873 0.73201 0.0
C2246 C 0.88973 0.79851 0.75612 0.0
C2247 C 0.91692 0.77296 0.74538 0.0
C2248 C 0.86866 0.80117 0.76223 0.0
C2249 C 0.85192 0.78185 0.76575 0.0
C2250 C 0.89434 0.77607 0.75241 0.0
C2251 C 0.85717 0.75956 0.76171 0.0
C2252 C 0.91929 0.75169 0.73201 0.0
C2253 C 0.95661 0.78958 0.74564 0.0
N2254 N 0.87774 0.75728 0.75515 0.0
N2255 N 0.93575 0.79119 0.75158 0.0
H2256 H 0.14002 0.04548 0.87723 0.0
H2257 H 0.03597 0.05712 0.94919 0.0
H2258 H 0.084 0.07242 0.84999 0.0
H2259 H 0.0894 0.02543 0.97403 0.0
H2260 H 0.05473 0.06541 0.91424 0.0
H2261 H 0.12365 0.04157 0.91449 0.0
C2262 C 0.12447 0.051 0.87921 0.0
C2263 C 0.11339 0.05935 0.86039 0.0
C2264 C 0.06242 0.05668 0.92731 0.0
C2265 C 0.09428 0.05442 0.90301 0.0
C2266 C 0.05166 0.05182 0.94725 0.0
C2267 C 0.0611 0.04043 0.96451 0.0
C2268 C 0.08284 0.05017 0.92451 0.0
C2269 C 0.08155 0.03421 0.96114 0.0
C2270 C 0.11503 0.04856 0.90049 0.0
C2271 C 0.09316 0.06598 0.86403 0.0
N2272 N 0.09174 0.03915 0.9415 0.0
N2273 N 0.08417 0.0632 0.88485 0.0
H2274 H 0.8044 0.35621 0.52983 0.0
H2275 H 0.80761 0.35596 0.66814 0.0
H2276 H 0.78128 0.40645 0.57883 0.0
H2277 H 0.82541 0.30244 0.61766 0.0
H2278 H 0.78741 0.36774 0.63437 0.0
H2279 H 0.80035 0.32931 0.5589 0.0
C2280 C 0.79762 0.36111 0.5464 0.0
C2281 C 0.79354 0.38356 0.55232 0.0
C2282 C 0.79533 0.3531 0.63067 0.0
C2283 C 0.78993 0.35362 0.58607 0.0
C2284 C 0.80689 0.3463 0.65 0.0
C2285 C 0.81873 0.32853 0.64568 0.0
C2286 C 0.79595 0.34235 0.6068 0.0
C2287 C 0.81718 0.31677 0.62175 0.0
C2288 C 0.79545 0.34587 0.56309 0.0
C2289 C 0.78473 0.38925 0.57382 0.0
N2290 N 0.80639 0.3242 0.60316 0.0
N2291 N 0.78388 0.37463 0.59037 0.0
H2292 H 0.41404 0.05085 0.39046 0.0
H2293 H 0.50707 0.99821 0.45772 0.0
H2294 H 0.45086 0.0067 0.35082 0.0
H2295 H 0.49293 0.0653 0.48437 0.0
H2296 H 0.48102 0.99489 0.42034 0.0
H2297 H 0.43641 0.0487 0.42827 0.0
C2298 C 0.42661 0.04045 0.38977 0.0
C2299 C 0.431 0.02928 0.3676 0.0
C2300 C 0.48369 0.01026 0.43447 0.0
C2301 C 0.45643 0.02687 0.41039 0.0
C2302 C 0.49855 0.01222 0.45554 0.0
C2303 C 0.5017 0.03185 0.47399 0.0
C2304 C 0.47204 0.02802 0.43223 0.0
C2305 C 0.49056 0.04972 0.47057 0.0
C2306 C 0.43941 0.03936 0.41125 0.0
C2307 C 0.44732 0.0159 0.36762 0.0
N2308 N 0.47596 0.04725 0.45011 0.0
N2309 N 0.45965 0.01517 0.38879 0.0
H2310 H 0.82456 0.72242 0.09756 0.0
H2311 H 0.76477 0.78445 0.19723 0.0
H2312 H 0.75611 0.72737 0.07718 0.0
H2313 H 0.80281 0.73343 0.21214 0.0
H2314 H 0.76452 0.77144 0.15342 0.0
H2315 H 0.82114 0.73514 0.14017 0.0
C2316 C 0.80888 0.72649 0.10202 0.0
C2317 C 0.79062 0.72392 0.08373 0.0
C2318 C 0.7729 0.76318 0.16644 0.0
C2319 C 0.78674 0.73885 0.13263 0.0
C2320 C 0.77303 0.77054 0.19146 0.0
C2321 C 0.78414 0.76028 0.20868 0.0
C2322 C 0.78455 0.74598 0.15866 0.0
C2323 C 0.79463 0.74239 0.19984 0.0
C2324 C 0.80691 0.7336 0.12636 0.0
C2325 C 0.77057 0.72911 0.09072 0.0
N2326 N 0.79488 0.73611 0.17563 0.0
N2327 N 0.76922 0.7366 0.11464 0.0
H2328 H 0.11198 0.07499 0.72153 0.0
H2329 H 0.05475 1.00302 0.58962 0.0
H2330 H 0.09236 0.99896 0.70368 0.0
H2331 H 0.06376 0.07794 0.60917 0.0
H2332 H 0.0699 1.00149 0.63108 0.0
H2333 H 0.09582 0.07698 0.68032 0.0
C2334 C 0.10435 0.05872 0.70896 0.0
C2335 C 0.10355 0.03676 0.71611 0.0
C2336 C 0.0685 0.01834 0.62645 0.0
C2337 C 0.08503 0.03893 0.66896 0.0
C2338 C 0.06008 0.01918 0.60269 0.0
C2339 C 0.05833 0.04063 0.59585 0.0
C2340 C 0.07527 0.03926 0.6437 0.0
C2341 C 0.06463 0.06106 0.61369 0.0
C2342 C 0.09505 0.05988 0.68547 0.0
C2343 C 0.09337 0.01628 0.69904 0.0
N2344 N 0.07299 0.05993 0.63681 0.0
N2345 N 0.08459 0.01788 0.67631 0.0
H2346 H 0.84976 0.39109 0.45085 0.0
H2347 H 0.76245 0.34183 0.3287 0.0
H2348 H 0.78441 0.40784 0.44165 0.0
H2349 H 0.8226 0.31766 0.34758 0.0
H2350 H 0.77088 0.36898 0.36807 0.0
H2351 H 0.84101 0.3673 0.41056 0.0
C2352 C 0.83354 0.38981 0.44033 0.0
C2353 C 0.81772 0.40131 0.44976 0.0
C2354 C 0.78211 0.35763 0.3635 0.0
C2355 C 0.80749 0.37386 0.40341 0.0
C2356 C 0.77732 0.34223 0.34115 0.0
C2357 C 0.79172 0.32741 0.33513 0.0
C2358 C 0.80152 0.35819 0.37952 0.0
C2359 C 0.81085 0.32855 0.35166 0.0
C2360 C 0.82853 0.37615 0.41727 0.0
C2361 C 0.79707 0.39917 0.4351 0.0
N2362 N 0.81517 0.34366 0.37306 0.0
N2363 N 0.79247 0.38554 0.4126 0.0
H2364 H 0.39606 0.02614 0.22002 0.0
H2365 H 0.48862 0.98188 0.14895 0.0
H2366 H 0.43965 0.98493 0.24834 0.0
H2367 H 0.42832 0.99339 0.11054 0.0
H2368 H 0.47343 0.98885 0.18706 0.0
H2369 H 0.40978 0.01927 0.18062 0.0
C2370 C 0.40838 0.01555 0.21789 0.0
C2371 C 0.41674 1.00604 0.23738 0.0
C2372 C 0.46347 0.98976 0.17029 0.0
C2373 C 0.43257 0.99852 0.19289 0.0
C2374 C 0.47217 0.98595 0.1486 0.0
C2375 C 0.45962 0.98703 0.12667 0.0
C2376 C 0.44213 0.99485 0.17008 0.0
C2377 C 0.43835 0.99219 0.12714 0.0
C2378 C 0.41613 0.01164 0.19549 0.0
C2379 C 0.43267 0.99248 0.23377 0.0
N2380 N 0.43023 0.99604 0.14862 0.0
N2381 N 0.44022 0.9893 0.212 0.0
H2382 H 0.74983 0.71239 0.94337 0.0
H2383 H 0.82555 0.77814 0.85574 0.0
H2384 H 0.81697 0.75655 0.96721 0.0
H2385 H 0.75292 0.75739 0.83871 0.0
H2386 H 0.82258 0.76791 0.896 0.0
H2387 H 0.74989 0.72697 0.90459 0.0
C2388 C 0.76435 0.72551 0.94076 0.0
C2389 C 0.78346 0.73313 0.9587 0.0
C2390 C 0.80724 0.76573 0.88355 0.0
C2391 C 0.78386 0.7493 0.91408 0.0
C2392 C 0.80894 0.77176 0.86059 0.0
C2393 C 0.78946 0.76923 0.844 0.0
C2394 C 0.7859 0.75645 0.8899 0.0
C2395 C 0.76842 0.75971 0.85094 0.0
C2396 C 0.76444 0.73367 0.91851 0.0
C2397 C 0.80188 0.74996 0.954 0.0
N2398 N 0.76718 0.75359 0.87331 0.0
N2399 N 0.80172 0.75718 0.93215 0.0
H2400 H 0.8289 0.06896 0.07592 0.0
H2401 H 0.937 0.11034 0.01782 0.0
H2402 H 0.85975 0.14184 0.07503 0.0
H2403 H 0.90812 0.0381 0.0234 0.0
H2404 H 0.91544 0.12344 0.04919 0.0
H2405 H 0.86471 0.059 0.0701 0.0
C2406 C 0.84345 0.08306 0.07554 0.0
C2407 C 0.84112 0.10604 0.07466 0.0
C2408 C 0.91418 0.10473 0.04394 0.0
C2409 C 0.88182 0.09472 0.06731 0.0
C2410 C 0.92627 0.09728 0.02583 0.0
C2411 C 0.92391 0.07315 0.01766 0.0
C2412 C 0.89941 0.08787 0.05364 0.0
C2413 C 0.91031 0.05691 0.02907 0.0
C2414 C 0.86391 0.07732 0.07196 0.0
C2415 C 0.86062 0.12368 0.07475 0.0
N2416 N 0.89826 0.06456 0.04618 0.0
N2417 N 0.88004 0.11753 0.07014 0.0
H2418 H 0.35364 0.45679 0.01297 0.0
H2419 H 0.48583 0.47763 0.05876 0.0
H2420 H 0.38086 0.41612 0.06125 0.0
H2421 H 0.45785 0.51571 0.00813 0.0
H2422 H 0.44767 0.45452 0.05978 0.0
H2423 H 0.39199 0.47799 0.01045 0.0
C2424 C 0.3677 0.45217 0.02287 0.0
C2425 C 0.36405 0.43468 0.03734 0.0
C2426 C 0.44991 0.46799 0.04851 0.0
C2427 C 0.40803 0.45902 0.03474 0.0
C2428 C 0.47167 0.48121 0.04798 0.0
C2429 C 0.47501 0.49876 0.03352 0.0
C2430 C 0.43141 0.4724 0.03451 0.0
C2431 C 0.45607 0.50259 0.0198 0.0
C2432 C 0.38961 0.46432 0.02149 0.0
C2433 C 0.38291 0.42944 0.04981 0.0
N2434 N 0.43511 0.48953 0.02066 0.0
N2435 N 0.40411 0.44166 0.04833 0.0
H2436 H 0.41857 0.59206 0.74894 0.0
H2437 H 0.31874 0.64976 0.78867 0.0
H2438 H 0.36305 0.55783 0.78223 0.0
H2439 H 0.38289 0.68951 0.77528 0.0
H2440 H 0.32954 0.61325 0.77389 0.0
H2441 H 0.40018 0.62479 0.74603 0.0
C2442 C 0.40212 0.59106 0.75478 0.0
C2443 C 0.39231 0.57246 0.76599 0.0
C2444 C 0.34109 0.62997 0.77383 0.0
C2445 C 0.37145 0.6096 0.763 0.0
C2446 C 0.33491 0.65081 0.78214 0.0
C2447 C 0.35014 0.67264 0.78356 0.0
C2448 C 0.36262 0.63102 0.76689 0.0
C2449 C 0.3709 0.67298 0.77497 0.0
C2450 C 0.39176 0.60979 0.75335 0.0
C2451 C 0.37117 0.57204 0.77364 0.0
N2452 N 0.37667 0.65244 0.76726 0.0
N2453 N 0.36155 0.59052 0.77227 0.0
H2454 H 0.21118 0.60707 0.57632 0.0
H2455 H 0.09907 0.51599 0.5199 0.0
H2456 H 0.2092 0.5368 0.53958 0.0
H2457 H 0.10205 0.58061 0.56863 0.0
H2458 H 0.13888 0.51904 0.53415 0.0
H2459 H 0.17154 0.5944 0.58086 0.0
C2460 C 0.20239 0.58887 0.56942 0.0
C2461 C 0.21321 0.57305 0.55706 0.0
C2462 C 0.13071 0.53216 0.54239 0.0
C2463 C 0.16785 0.55846 0.56198 0.0
C2464 C 0.10803 0.5303 0.53435 0.0
C2465 C 0.09758 0.54787 0.54358 0.0
C2466 C 0.14298 0.55226 0.55894 0.0
C2467 C 0.10974 0.56659 0.56153 0.0
C2468 C 0.1798 0.58158 0.57218 0.0
C2469 C 0.2013 0.54959 0.54894 0.0
N2470 N 0.13199 0.56849 0.56846 0.0
N2471 N 0.17903 0.54308 0.55108 0.0
H2472 H 0.75196 0.02852 0.78887 0.0
H2473 H 0.73318 0.89927 0.77331 0.0
H2474 H 0.71835 0.98516 0.72072 0.0
H2475 H 0.79426 0.94299 0.81638 0.0
H2476 H 0.73177 0.93032 0.74925 0.0
H2477 H 0.77414 0.99966 0.79453 0.0
C2478 C 0.74989 0.01327 0.77471 0.0
C2479 C 0.7329 0.00858 0.7548 0.0
C2480 C 0.74581 0.93295 0.76358 0.0
C2481 C 0.7574 0.97538 0.76141 0.0
C2482 C 0.74629 0.91547 0.77751 0.0
C2483 C 0.76332 0.91928 0.79719 0.0
C2484 C 0.76213 0.95446 0.76998 0.0
C2485 C 0.78051 0.93997 0.80164 0.0
C2486 C 0.76259 0.99684 0.77784 0.0
C2487 C 0.73104 0.98898 0.73662 0.0
N2488 N 0.77919 0.95718 0.78848 0.0
N2489 N 0.74258 0.9725 0.74079 0.0
H2490 H 0.7261 0.89194 0.53143 0.0
H2491 H 0.66616 0.99845 0.52193 0.0
H2492 H 0.76206 0.9651 0.54233 0.0
H2493 H 0.62951 0.92646 0.51866 0.0
H2494 H 0.70155 0.98651 0.52964 0.0
H2495 H 0.69041 0.90405 0.52595 0.0
C2496 C 0.72648 0.91052 0.53262 0.0
C2497 C 0.74702 0.92756 0.53739 0.0
C2498 C 0.68577 0.97333 0.52737 0.0
C2499 C 0.70643 0.94149 0.53122 0.0
C2500 C 0.66555 0.98018 0.52317 0.0
C2501 C 0.64488 0.96338 0.51962 0.0
C2502 C 0.6853 0.94951 0.5279 0.0
C2503 C 0.64511 0.93989 0.52097 0.0
C2504 C 0.70613 0.91743 0.52958 0.0
C2505 C 0.74659 0.95139 0.53879 0.0
N2506 N 0.66504 0.93361 0.5249 0.0
N2507 N 0.7266 0.95765 0.53568 0.0
H2508 H 0.3613 0.47467 0.79223 0.0
H2509 H 0.34615 0.33642 0.74732 0.0
H2510 H 0.40952 0.44677 0.7531 0.0
H2511 H 0.30436 0.36766 0.79348 0.0
H2512 H 0.36755 0.37613 0.74494 0.0
H2513 H 0.33763 0.43514 0.78741 0.0
C2514 C 0.3668 0.46017 0.78237 0.0
C2515 C 0.38754 0.46396 0.7733 0.0
C2516 C 0.35355 0.3742 0.75537 0.0
C2517 C 0.36053 0.41835 0.76797 0.0
C2518 C 0.34136 0.35159 0.75678 0.0
C2519 C 0.3233 0.34871 0.77046 0.0
C2520 C 0.34756 0.39398 0.76769 0.0
C2521 C 0.31791 0.36894 0.78244 0.0
C2522 C 0.35328 0.43754 0.77967 0.0
C2523 C 0.39365 0.44456 0.76038 0.0
N2524 N 0.32998 0.39064 0.78076 0.0
N2525 N 0.3803 0.42243 0.75835 0.0
H2526 H 0.23246 0.61826 0.31835 0.0
H2527 H 0.24398 0.71626 0.23361 0.0
H2528 H 0.19999 0.60693 0.24409 0.0
H2529 H 0.28271 0.72643 0.30447 0.0
H2530 H 0.22327 0.67769 0.23974 0.0
H2531 H 0.24717 0.65978 0.31613 0.0
C2532 C 0.22828 0.62449 0.30168 0.0
C2533 C 0.215 0.60908 0.28137 0.0
C2534 C 0.23598 0.68854 0.25419 0.0
C2535 C 0.23162 0.65631 0.27876 0.0
C2536 C 0.24765 0.71047 0.25069 0.0
C2537 C 0.26445 0.72447 0.26887 0.0
C2538 C 0.24159 0.68057 0.27585 0.0
C2539 C 0.26922 0.71632 0.29047 0.0
C2540 C 0.23665 0.64816 0.30043 0.0
C2541 C 0.21013 0.61809 0.26022 0.0
N2542 N 0.25787 0.69473 0.29338 0.0
N2543 N 0.2185 0.64109 0.25946 0.0
H2544 H 0.46956 0.69868 0.4912 0.0
H2545 H 0.55463 0.61272 0.5026 0.0
H2546 H 0.53636 0.71331 0.47043 0.0
H2547 H 0.48525 0.59296 0.5145 0.0
H2548 H 0.54878 0.65015 0.49323 0.0
H2549 H 0.47547 0.66146 0.50189 0.0
C2550 C 0.48566 0.69437 0.48915 0.0
C2551 C 0.50254 0.70976 0.48 0.0
C2552 C 0.53476 0.63777 0.49795 0.0
C2553 C 0.50938 0.66622 0.49231 0.0
C2554 C 0.53819 0.61627 0.50364 0.0
C2555 C 0.52069 0.59944 0.51008 0.0
C2556 C 0.51346 0.64301 0.49839 0.0
C2557 C 0.49946 0.60519 0.50995 0.0
C2558 C 0.48893 0.67283 0.49517 0.0
C2559 C 0.52281 0.70246 0.47753 0.0
N2560 N 0.49651 0.62636 0.50435 0.0
N2561 N 0.52563 0.68147 0.48365 0.0
H2562 H 0.63398 0.33751 0.70294 0.0
H2563 H 0.73546 0.27116 0.70247 0.0
H2564 H 0.64275 0.29194 0.6389 0.0
H2565 H 0.72776 0.32293 0.76168 0.0
H2566 H 0.70255 0.27831 0.67819 0.0
H2567 H 0.66873 0.33214 0.72392 0.0
C2568 C 0.6433 0.32645 0.69315 0.0
C2569 C 0.63525 0.31519 0.669 0.0
C2570 C 0.70807 0.28809 0.6965 0.0
C2571 C 0.67553 0.30866 0.69338 0.0
C2572 C 0.72696 0.28413 0.71032 0.0
C2573 C 0.73425 0.29628 0.73431 0.0
C2574 C 0.69635 0.30433 0.70676 0.0
C2575 C 0.72235 0.31262 0.74362 0.0
C2576 C 0.66326 0.32336 0.70524 0.0
C2577 C 0.6483 0.30111 0.65743 0.0
N2578 N 0.70407 0.31607 0.72994 0.0
N2579 N 0.66769 0.29809 0.66977 0.0
H2580 H 0.03738 0.34203 0.97299 0.0
H2581 H 0.98638 0.45571 0.99756 0.0
H2582 H 0.9687 0.33778 0.98658 0.0
H2583 H 0.0568 0.46081 0.02041 0.0
H2584 H 0.97994 0.41282 0.98812 0.0
H2585 H 0.04541 0.38536 0.98509 0.0
C2586 C 0.02402 0.35005 0.9787 0.0
C2587 C 1.00233 0.33583 0.97896 0.0
C2588 C 0.99681 0.42323 0.99536 0.0
C2589 C 0.01133 0.38585 0.99217 0.0
C2590 C 1.00045 0.44789 0.00111 0.0
C2591 C 0.02196 0.46224 0.01088 0.0
C2592 C 0.01499 0.41239 0.9984 0.0
C2593 C 0.0398 0.45069 0.01338 0.0
C2594 C 0.02864 0.37487 0.98559 0.0
C2595 C 0.98576 0.34764 0.98632 0.0
N2596 N 0.03595 0.42661 0.00712 0.0
N2597 N 0.99051 0.37171 0.99229 0.0
H2598 H 0.02838 0.77955 0.18481 0.0
H2599 H 0.89366 0.75474 0.1626 0.0
H2600 H 0.9905 0.78861 0.11922 0.0
H2601 H 0.93136 0.7671 0.23436 0.0
H2602 H 0.92914 0.76443 0.14587 0.0
H2603 H 0.99316 0.77168 0.20273 0.0
C2604 C 0.01265 0.77958 0.17405 0.0
C2605 C 0.01241 0.78453 0.15035 0.0
C2606 C 0.92971 0.7652 0.1653 0.0
C2607 C 0.97213 0.77569 0.17079 0.0
C2608 C 0.90946 0.75964 0.17484 0.0
C2609 C 0.90958 0.76003 0.19987 0.0
C2610 C 0.95036 0.77091 0.18081 0.0
C2611 C 0.93053 0.76669 0.21496 0.0
C2612 C 0.99261 0.77531 0.18438 0.0
C2613 C 0.99157 0.78472 0.13743 0.0
N2614 N 0.95012 0.77164 0.20516 0.0
N2615 N 0.97232 0.78027 0.14776 0.0
H2616 H 0.54263 0.32564 0.18087 0.0
H2617 H 0.52348 0.38744 0.06519 0.0
H2618 H 0.48725 0.29668 0.12267 0.0
H2619 H 0.57227 0.41933 0.12871 0.0
H2620 H 0.50848 0.35481 0.08613 0.0
H2621 H 0.55323 0.36027 0.16181 0.0
C2622 C 0.53271 0.32649 0.16405 0.0
C2623 C 0.51399 0.3081 0.15343 0.0
C2624 C 0.52222 0.36916 0.09563 0.0
C2625 C 0.52606 0.34796 0.1314 0.0
C2626 C 0.53058 0.38789 0.08377 0.0
C2627 C 0.5491 0.40607 0.09528 0.0
C2628 C 0.53258 0.36865 0.11907 0.0
C2629 C 0.55798 0.40561 0.11921 0.0
C2630 C 0.53871 0.34638 0.15321 0.0
C2631 C 0.50177 0.31038 0.13161 0.0
N2632 N 0.54982 0.38714 0.13018 0.0
N2633 N 0.50806 0.32985 0.1213 0.0
H2634 H 0.96236 0.28603 0.34607 0.0
H2635 H 0.862 0.30472 0.2529 0.0
H2636 H 0.97654 0.32473 0.288 0.0
H2637 H 0.85312 0.28392 0.32221 0.0
H2638 H 0.90311 0.31065 0.26329 0.0
H2639 H 0.92234 0.28342 0.33563 0.0
C2640 C 0.95726 0.29443 0.33133 0.0
C2641 C 0.97343 0.30623 0.31844 0.0
C2642 C 0.89217 0.30491 0.27627 0.0
C2643 C 0.92633 0.30233 0.30548 0.0
C2644 C 0.86855 0.30172 0.27042 0.0
C2645 C 0.85367 0.29426 0.28678 0.0
C2646 C 0.90123 0.30009 0.29852 0.0
C2647 C 0.86357 0.2898 0.30888 0.0
C2648 C 0.93408 0.29268 0.32519 0.0
C2649 C 0.96499 0.31572 0.29878 0.0
N2650 N 0.88644 0.29265 0.31395 0.0
N2651 N 0.94215 0.3135 0.29288 0.0
H2652 H 0.05349 0.71216 0.65158 0.0
H2653 H 0.00953 0.57809 0.58525 0.0
H2654 H 0.98313 0.6754 0.63924 0.0
H2655 H 0.06683 0.62359 0.56428 0.0
H2656 H 1.00314 0.61205 0.61194 0.0
H2657 H 0.06209 0.67832 0.62592 0.0
C2658 C 0.0399 0.69701 0.64358 0.0
C2659 C 0.01753 0.69671 0.64745 0.0
C2660 C 0.01716 0.61459 0.60157 0.0
C2661 C 0.02731 0.65795 0.61863 0.0
C2662 C 0.02091 0.5952 0.58642 0.0
C2663 C 0.03876 0.59799 0.57247 0.0
C2664 C 0.03156 0.63698 0.60321 0.0
C2665 C 0.05282 0.62068 0.57462 0.0
C2666 C 0.0448 0.67779 0.6289 0.0
C2667 C 1.00058 0.67658 0.6366 0.0
N2668 N 0.04901 0.63931 0.58981 0.0
N2669 N 1.00583 0.65801 0.6229 0.0
H2670 H 0.60501 0.77638 0.78329 0.0
H2671 H 0.7385 0.82035 0.82955 0.0
H2672 H 0.63063 0.8295 0.84736 0.0
H2673 H 0.71006 0.78358 0.75726 0.0
H2674 H 0.70036 0.82312 0.83795 0.0
H2675 H 0.64357 0.77749 0.77538 0.0
C2676 C 0.61871 0.78847 0.79576 0.0
C2677 C 0.61408 0.80293 0.81608 0.0
C2678 C 0.70245 0.81444 0.82023 0.0
C2679 C 0.65938 0.80404 0.80703 0.0
C2680 C 0.72437 0.81299 0.81531 0.0
C2681 C 0.72795 0.80172 0.79254 0.0
C2682 C 0.68351 0.8041 0.80245 0.0
C2683 C 0.70852 0.79208 0.77519 0.0
C2684 C 0.64094 0.78907 0.79113 0.0
C2685 C 0.63303 0.81811 0.83136 0.0
N2686 N 0.68743 0.79333 0.78053 0.0
N2687 N 0.65471 0.81812 0.82665 0.0
H2688 H 0.47207 0.50491 0.69466 0.0
H2689 H 0.48221 0.56097 0.57389 0.0
H2690 H 0.45036 0.56835 0.68554 0.0
H2691 H 0.52558 0.51757 0.5975 0.0
H2692 H 0.46509 0.55932 0.6115 0.0
H2693 H 0.48629 0.50444 0.65538 0.0
C2694 C 0.47005 0.51857 0.68429 0.0
C2695 C 0.4601 0.53675 0.69345 0.0
C2696 C 0.47838 0.5502 0.60841 0.0
C2697 C 0.47625 0.53628 0.64855 0.0
C2698 C 0.4881 0.55113 0.587 0.0
C2699 C 0.50549 0.53965 0.58279 0.0
C2700 C 0.48582 0.53731 0.62542 0.0
C2701 C 0.51245 0.52698 0.60024 0.0
C2702 C 0.47829 0.51838 0.66197 0.0
C2703 C 0.45803 0.55407 0.67925 0.0
N2704 N 0.50255 0.52608 0.62074 0.0
N2705 N 0.46602 0.5534 0.65752 0.0
H2706 H 0.76145 0.14601 0.97747 0.0
H2707 H 0.75784 0.27074 0.94195 0.0
H2708 H 0.80488 0.21117 0.01769 0.0
H2709 H 0.73568 0.20506 0.89115 0.0
H2710 H 0.77132 0.2494 0.97253 0.0
H2711 H 0.74783 0.16781 0.94794 0.0
C2712 C 0.76812 0.16492 0.98011 0.0
C2713 C 0.78437 0.17683 1.00002 0.0
C2714 C 0.7635 0.23973 0.95467 0.0
C2715 C 0.76877 0.20179 0.96637 0.0
C2716 C 0.7557 0.25181 0.93738 0.0
C2717 C 0.74565 0.23951 0.9142 0.0
C2718 C 0.76089 0.21524 0.94867 0.0
C2719 C 0.74344 0.21509 0.90888 0.0
C2720 C 0.76039 0.17731 0.9632 0.0
C2721 C 0.79244 0.20132 0.0025 0.0
N2722 N 0.75094 0.2037 0.92606 0.0
N2723 N 0.78446 0.21307 0.98586 0.0
H2724 H 0.16573 0.53296 0.16359 0.0
H2725 H 0.06315 0.57611 0.10101 0.0
H2726 H 0.14187 0.59134 0.19898 0.0
H2727 H 0.0753 0.50661 0.08318 0.0
H2728 H 0.09517 0.58609 0.13393 0.0
H2729 H 0.13772 0.5291 0.12829 0.0
C2730 C 0.15494 0.5453 0.16373 0.0
C2731 C 0.15558 0.562 0.18447 0.0
C2732 C 0.09063 0.56862 0.1229 0.0
C2733 C 0.12334 0.55733 0.14458 0.0
C2734 C 0.07225 0.56284 0.1045 0.0
C2735 C 0.06696 0.54063 0.08956 0.0
C2736 C 0.10351 0.55201 0.12598 0.0
C2737 C 0.07916 0.52398 0.09437 0.0
C2738 C 0.13882 0.54292 0.14371 0.0
C2739 C 0.14153 0.57784 0.18352 0.0
N2740 N 0.09712 0.53012 0.11206 0.0
N2741 N 0.12558 0.57483 0.16399 0.0
H2742 H 0.84707 0.84578 0.47506 0.0
H2743 H 0.76415 0.78486 0.35356 0.0
H2744 H 0.77569 0.84261 0.47162 0.0
H2745 H 0.83147 0.8262 0.35355 0.0
H2746 H 0.76766 0.79929 0.39747 0.0
H2747 H 0.84149 0.83094 0.43145 0.0
C2748 C 0.83011 0.8416 0.46525 0.0
C2749 C 0.81179 0.84536 0.47721 0.0
C2750 C 0.78168 0.80504 0.38779 0.0
C2751 C 0.80535 0.82824 0.42692 0.0
C2752 C 0.77975 0.79682 0.36274 0.0
C2753 C 0.79787 0.80375 0.34984 0.0
C2754 C 0.80201 0.81998 0.40014 0.0
C2755 C 0.81748 0.81953 0.36278 0.0
C2756 C 0.82701 0.83333 0.44025 0.0
C2757 C 0.79029 0.83994 0.46323 0.0
N2758 N 0.81915 0.82685 0.38718 0.0
N2759 N 0.78762 0.83149 0.43883 0.0
H2760 H 0.43872 0.51439 0.84709 0.0
H2761 H 0.54338 0.51272 0.94389 0.0
H2762 H 0.50511 0.51555 0.82739 0.0
H2763 H 0.48043 0.52748 0.96197 0.0
H2764 H 0.52853 0.50715 0.90058 0.0
H2765 H 0.45256 0.51228 0.88849 0.0
C2766 C 0.45628 0.51437 0.85148 0.0
C2767 C 0.47094 0.51592 0.83391 0.0
C2768 C 0.518 0.51149 0.91409 0.0
C2769 C 0.48697 0.51305 0.88149 0.0
C2770 C 0.5264 0.51457 0.93877 0.0
C2771 C 0.51318 0.52075 0.95656 0.0
C2772 C 0.49619 0.51442 0.90726 0.0
C2773 C 0.49135 0.52303 0.94893 0.0
C2774 C 0.46418 0.51295 0.87518 0.0
C2775 C 0.49331 0.51458 0.8405 0.0
N2776 N 0.48359 0.51992 0.9249 0.0
N2777 N 0.50077 0.5135 0.86391 0.0
H2778 H 0.77532 0.13652 0.12746 0.0
H2779 H 0.75577 0.26005 0.18962 0.0
H2780 H 0.76176 0.18968 0.08708 0.0
H2781 H 0.7918 0.21678 0.22616 0.0
H2782 H 0.74807 0.23003 0.15276 0.0
H2783 H 0.76965 0.16071 0.16473 0.0
C2784 C 0.77004 0.15276 0.12632 0.0
C2785 C 0.7687 0.16113 0.10434 0.0
C2786 C 0.75751 0.22712 0.16895 0.0
C2787 C 0.76315 0.18915 0.14664 0.0
C2788 C 0.76208 0.24429 0.18992 0.0
C2789 C 0.77472 0.24108 0.21094 0.0
C2790 C 0.7654 0.2065 0.16911 0.0
C2791 C 0.78218 0.22014 0.21035 0.0
C2792 C 0.76721 0.16673 0.14758 0.0
C2793 C 0.7626 0.18261 0.10377 0.0
N2794 N 0.77742 0.20367 0.18977 0.0
N2795 N 0.76033 0.1961 0.12473 0.0
H2796 H 0.16643 0.54037 0.32809 0.0
H2797 H 0.04967 0.56856 0.35951 0.0
H2798 H 0.10967 0.53816 0.2746 0.0
H2799 H 0.11089 0.58744 0.41109 0.0
H2800 H 0.06995 0.5512 0.32927 0.0
H2801 H 0.14445 0.55105 0.36026 0.0
C2802 C 0.14934 0.54192 0.32313 0.0
C2803 C 0.13994 0.53877 0.29872 0.0
C2804 C 0.0789 0.55907 0.34726 0.0
C2805 C 0.11486 0.55077 0.33509 0.0
C2806 C 0.06739 0.56916 0.36442 0.0
C2807 C 0.07865 0.57965 0.38773 0.0
C2808 C 0.10181 0.55946 0.35348 0.0
C2809 C 0.1015 0.57939 0.39335 0.0
C2810 C 0.13684 0.54806 0.34144 0.0
C2811 C 0.11768 0.54082 0.29323 0.0
N2812 N 0.11238 0.56951 0.37628 0.0
N2813 N 0.10593 0.5468 0.31128 0.0
H2814 H 0.77645 0.86792 0.61028 0.0
H2815 H 0.81568 0.79599 0.71037 0.0
H2816 H 0.82728 0.82764 0.60432 0.0
H2817 H 0.76972 0.84104 0.7235 0.0
H2818 H 0.81812 0.80648 0.67054 0.0
H2819 H 0.77102 0.85652 0.64998 0.0
C2820 C 0.78614 0.8563 0.61702 0.0
C2821 C 0.80236 0.84871 0.60381 0.0
C2822 C 0.8075 0.81423 0.682 0.0
C2823 C 0.79648 0.836 0.64944 0.0
C2824 C 0.80609 0.80824 0.70488 0.0
C2825 C 0.79241 0.81762 0.72036 0.0
C2826 C 0.79507 0.82974 0.67412 0.0
C2827 C 0.78059 0.83355 0.7122 0.0
C2828 C 0.78319 0.85004 0.63983 0.0
C2829 C 0.81461 0.83397 0.61373 0.0
N2830 N 0.78209 0.83905 0.68952 0.0
N2831 N 0.81147 0.82823 0.63585 0.0
H2832 H 0.75224 0.50198 0.4801 0.0
H2833 H 0.63672 0.45616 0.53 0.0
H2834 H 0.72847 0.43089 0.49258 0.0
H2835 H 0.67006 0.52937 0.53386 0.0
H2836 H 0.66476 0.44478 0.50557 0.0
H2837 H 0.71567 0.50986 0.48722 0.0
C2838 C 0.73908 0.48782 0.48355 0.0
C2839 C 0.74342 0.46596 0.48635 0.0
C2840 C 0.66566 0.46333 0.51152 0.0
C2841 C 0.702 0.47488 0.49487 0.0
C2842 C 0.64989 0.46979 0.52569 0.0
C2843 C 0.65126 0.49368 0.53422 0.0
C2844 C 0.68281 0.48091 0.5059 0.0
C2845 C 0.66828 0.51071 0.52757 0.0
C2846 C 0.71831 0.49236 0.48781 0.0
C2847 C 0.72584 0.44817 0.49078 0.0
N2848 N 0.68349 0.50398 0.51395 0.0
N2849 N 0.70597 0.45316 0.49539 0.0
H2850 H 0.21579 0.0951 0.5083 0.0
H2851 H 0.08478 0.08855 0.49392 0.0
H2852 H 0.18964 0.15634 0.50045 0.0
H2853 H 0.11487 0.04603 0.53776 0.0
H2854 H 0.12245 0.11038 0.48988 0.0
H2855 H 0.17807 0.07355 0.51269 0.0
C2856 C 0.20208 0.104 0.50739 0.0
C2857 C 0.2058 0.12754 0.50392 0.0
C2858 C 0.12075 0.09618 0.50025 0.0
C2859 C 0.16267 0.10286 0.50881 0.0
C2860 C 0.09929 0.0836 0.50251 0.0
C2861 C 0.09663 0.06521 0.51605 0.0
C2862 C 0.13972 0.09003 0.51112 0.0
C2863 C 0.11608 0.05967 0.52673 0.0
C2864 C 0.18062 0.0917 0.51005 0.0
C2865 C 0.18745 0.13822 0.50311 0.0
N2866 N 0.13687 0.07196 0.52391 0.0
N2867 N 0.16655 0.1257 0.50534 0.0
H2868 H 0.17148 1.00188 0.75067 0.0
H2869 H 0.23918 0.90816 0.7865 0.0
H2870 H 0.20931 0.00763 0.82153 0.0
H2871 H 0.21053 0.90773 0.71286 0.0
H2872 H 0.2297 0.94575 0.79919 0.0
H2873 H 0.18714 0.96859 0.73574 0.0
C2874 C 0.18333 0.99642 0.76299 0.0
C2875 C 0.18893 0.00747 0.78744 0.0
C2876 C 0.2256 0.93751 0.78022 0.0
C2877 C 0.20662 0.96927 0.77058 0.0
C2878 C 0.23107 0.91608 0.77295 0.0
C2879 C 0.22545 0.90469 0.74861 0.0
C2880 C 0.2143 0.94758 0.76306 0.0
C2881 C 0.21472 0.91565 0.7319 0.0
C2882 C 0.19221 0.97737 0.75447 0.0
C2883 C 0.20437 0.99961 0.80257 0.0
N2884 N 0.20935 0.93643 0.73947 0.0
N2885 N 0.21246 0.98083 0.79395 0.0
H2886 H 0.36305 0.01402 0.98964 0.0
H2887 H 0.48115 0.98564 0.01522 0.0
H2888 H 0.37869 0.97544 0.04622 0.0
H2889 H 0.47944 0.05761 0.01037 0.0
H2890 H 0.44042 0.97638 0.01566 0.0
H2891 H 0.4038 0.02652 0.98744 0.0
C2892 C 0.37498 0.00825 0.00157 0.0
C2893 C 0.36753 0.99318 0.01767 0.0
C2894 C 0.44906 0.99415 0.01436 0.0
C2895 C 0.41328 0.0068 0.0148 0.0
C2896 C 0.47222 0.99949 0.01436 0.0
C2897 C 0.48367 0.02254 0.01355 0.0
C2898 C 0.43729 0.01184 0.01276 0.0
C2899 C 0.47118 0.03961 0.01112 0.0
C2900 C 0.39804 0.01533 1.00026 0.0
C2901 C 0.3836 0.98636 0.03293 0.0
N2902 N 0.44845 0.03391 0.01083 0.0
N2903 N 0.40574 0.99293 0.03085 0.0
H2904 H 0.81235 0.566 0.81547 0.0
H2905 H 0.83517 0.65736 0.72543 0.0
H2906 H 0.87849 0.60281 0.80439 0.0
H2907 H 0.77053 0.6388 0.75053 0.0
H2908 H 0.85058 0.63531 0.75364 0.0
H2909 H 0.79557 0.59197 0.79248 0.0
C2910 C 0.82325 0.57996 0.80874 0.0
C2911 C 0.84664 0.58234 0.81134 0.0
C2912 C 0.83295 0.63583 0.75289 0.0
C2913 C 0.82799 0.61128 0.78511 0.0
C2914 C 0.82415 0.64803 0.73651 0.0
C2915 C 0.80155 0.64914 0.73539 0.0
C2916 C 0.81894 0.6246 0.76806 0.0
C2917 C 0.78798 0.63771 0.75071 0.0
C2918 C 0.81377 0.59458 0.79555 0.0
C2919 C 0.86029 0.60038 0.80232 0.0
N2920 N 0.79688 0.62568 0.76645 0.0
N2921 N 0.85073 0.61403 0.78934 0.0
H2922 H 0.84864 0.67944 0.01593 0.0
H2923 H 0.89869 0.57372 0.05333 0.0
H2924 H 0.80762 0.61917 0.0383 0.0
H2925 H 0.93965 0.64233 0.0501 0.0
H2926 H 0.86465 0.58781 0.04294 0.0
H2927 H 0.8818 0.66416 0.02445 0.0
C2928 C 0.84659 0.66312 0.02293 0.0
C2929 C 0.82531 0.65074 0.02672 0.0
C2930 C 0.88111 0.59973 0.04447 0.0
C2931 C 0.86332 0.6328 0.03598 0.0
C2932 C 0.90048 0.59166 0.05018 0.0
C2933 C 0.92192 0.60701 0.05276 0.0
C2934 C 0.88331 0.62318 0.0411 0.0
C2935 C 0.92339 0.63009 0.04862 0.0
C2936 C 0.86558 0.65432 0.02766 0.0
C2937 C 0.82375 0.6294 0.03536 0.0
N2938 N 0.90433 0.63748 0.04302 0.0
N2939 N 0.84253 0.62102 0.03963 0.0
H2940 H 0.20255 0.13295 0.85079 0.0
H2941 H 0.26347 0.20306 0.75662 0.0
H2942 H 0.18399 0.10974 0.77334 0.0
H2943 H 0.25053 0.23874 0.82461 0.0
H2944 H 0.24053 0.16588 0.76434 0.0
H2945 H 0.22629 0.16962 0.84325 0.0
C2946 C 0.20348 0.13559 0.83221 0.0
C2947 C 0.19122 0.11838 0.81265 0.0
C2948 C 0.24286 0.18187 0.77757 0.0
C2949 C 0.21861 0.15989 0.80399 0.0
C2950 C 0.25606 0.20293 0.77331 0.0
C2951 C 0.25885 0.22381 0.79008 0.0
C2952 C 0.23291 0.18173 0.79898 0.0
C2953 C 0.24869 0.22293 0.81126 0.0
C2954 C 0.21696 0.15647 0.82796 0.0
C2955 C 0.19301 0.12267 0.78893 0.0
N2956 N 0.23624 0.20216 0.81521 0.0
N2957 N 0.20664 0.14295 0.78523 0.0
H2958 H 0.37563 0.95842 0.283 0.0
H2959 H 0.27115 0.85397 0.29058 0.0
H2960 H 0.32517 0.96447 0.33046 0.0
H2961 H 0.33381 0.84237 0.26793 0.0
H2962 H 0.28619 0.89634 0.29462 0.0
H2963 H 0.35588 0.91728 0.26771 0.0
C2964 C 0.36034 0.95113 0.2901 0.0
C2965 C 0.35215 0.96468 0.30827 0.0
C2966 C 0.29644 0.88445 0.28835 0.0
C2967 C 0.32948 0.9181 0.29059 0.0
C2968 C 0.2879 0.86032 0.28599 0.0
C2969 C 0.30146 0.84476 0.27933 0.0
C2970 C 0.31856 0.89293 0.28385 0.0
C2971 C 0.32287 0.85382 0.27324 0.0
C2972 C 0.34912 0.92774 0.28134 0.0
C2973 C 0.33224 0.95448 0.31675 0.0
N2974 N 0.33093 0.87746 0.27594 0.0
N2975 N 0.32158 0.9317 0.30784 0.0
H2976 H 0.53473 0.3488 0.53675 0.0
H2977 H 0.55648 0.48877 0.5777 0.0
H2978 H 0.57914 0.38567 0.60194 0.0
H2979 H 0.53692 0.4552 0.50277 0.0
H2980 H 0.56247 0.45135 0.58792 0.0
H2981 H 0.53288 0.38684 0.52495 0.0
C2982 C 0.54457 0.36485 0.54838 0.0
C2983 C 0.55758 0.36364 0.5702 0.0
C2984 C 0.55673 0.45208 0.56923 0.0
C2985 C 0.55466 0.40797 0.55708 0.0
C2986 C 0.55331 0.47359 0.56329 0.0
C2987 C 0.54574 0.47546 0.53922 0.0
C2988 C 0.55217 0.43172 0.55117 0.0
C2989 C 0.54195 0.45477 0.52163 0.0
C2990 C 0.54335 0.38669 0.54165 0.0
C2991 C 0.56937 0.38541 0.58467 0.0
N2992 N 0.54493 0.43393 0.52794 0.0
N2993 N 0.5674 0.40647 0.57805 0.0
H2994 H 0.4226 0.7503 0.4132 0.0
H2995 H 0.3668 0.80704 0.30767 0.0
H2996 H 0.46004 0.80256 0.37721 0.0
H2997 H 0.32942 0.74893 0.33635 0.0
H2998 H 0.40054 0.80693 0.33488 0.0
H2999 H 0.38772 0.75127 0.38774 0.0
C3000 C 0.42348 0.76219 0.40021 0.0
C3001 C 0.44438 0.77638 0.39744 0.0
C3002 C 0.385 0.79414 0.33526 0.0
C3003 C 0.4045 0.77743 0.36804 0.0
C3004 C 0.3657 0.79409 0.31955 0.0
C3005 C 0.34521 0.77775 0.3194 0.0
C3006 C 0.38395 0.77789 0.35129 0.0
C3007 C 0.34484 0.76177 0.33571 0.0
C3008 C 0.40357 0.76262 0.38555 0.0
C3009 C 0.44441 0.79128 0.38009 0.0
N3010 N 0.36386 0.76225 0.35097 0.0
N3011 N 0.42491 0.79136 0.36611 0.0
H3012 H 0.08454 0.73512 0.0694 0.0
H3013 H 0.02544 0.60429 0.07739 0.0
H3014 H 0.01375 0.71639 0.07647 0.0
H3015 H 0.06138 0.61419 0.0165 0.0
H3016 H 0.0277 0.64665 0.08597 0.0
H3017 H 0.08358 0.69255 0.05835 0.0
C3018 C 0.06882 0.72219 0.06857 0.0
C3019 C 0.04912 0.72963 0.07361 0.0
C3020 C 0.03524 0.63957 0.07079 0.0
C3021 C 0.04816 0.68076 0.06184 0.0
C3022 C 0.03368 0.61517 0.06562 0.0
C3023 C 0.04269 0.605 0.04571 0.0
C3024 C 0.04687 0.6546 0.05672 0.0
C3025 C 0.05426 0.6208 0.03208 0.0
C3026 C 0.06828 0.69789 0.06221 0.0
C3027 C 0.02931 0.71177 0.07242 0.0
N3028 N 0.05618 0.64469 0.0379 0.0
N3029 N 0.02943 0.68842 0.06708 0.0
H3030 H 0.07927 0.29644 0.92267 0.0
H3031 H 0.15102 0.27251 0.81385 0.0
H3032 H 0.05736 0.23764 0.86306 0.0
H3033 H 0.17126 0.33241 0.87223 0.0
H3034 H 0.11913 0.25638 0.83441 0.0
H3035 H 0.11521 0.30728 0.90697 0.0
C3036 C 0.08206 0.28569 0.90641 0.0
C3037 C 0.06517 0.26617 0.89412 0.0
C3038 C 0.13074 0.2729 0.84289 0.0
C3039 C 0.10633 0.27851 0.87595 0.0
C3040 C 0.14904 0.28196 0.83126 0.0
C3041 C 0.16362 0.30391 0.84126 0.0
C3042 C 0.1271 0.28588 0.86467 0.0
C3043 C 0.16021 0.31556 0.86377 0.0
C3044 C 0.10261 0.29189 0.89742 0.0
C3045 C 0.06981 0.2529 0.87311 0.0
N3046 N 0.14222 0.30655 0.87457 0.0
N3047 N 0.08985 0.25939 0.86462 0.0
H3048 H 0.55496 0.78024 0.93611 0.0
H3049 H 0.51988 0.64225 0.93038 0.0
H3050 H 0.54496 0.7306 0.86925 0.0
H3051 H 0.54084 0.69248 0.99711 0.0
H3052 H 0.53456 0.67343 0.90771 0.0
H3053 H 0.55598 0.74821 0.95892 0.0
C3054 C 0.5539 0.76267 0.92629 0.0
C3055 C 0.55038 0.75807 0.90085 0.0
C3056 C 0.53658 0.67753 0.92736 0.0
C3057 C 0.55024 0.721 0.9267 0.0
C3058 C 0.52836 0.65969 0.94027 0.0
C3059 C 0.52947 0.66487 0.96558 0.0
C3060 C 0.5456 0.70074 0.93992 0.0
C3061 C 0.53998 0.68781 0.9776 0.0
C3062 C 0.55421 0.74431 0.93928 0.0
C3063 C 0.54827 0.73489 0.8889 0.0
N3064 N 0.54737 0.70497 0.96465 0.0
N3065 N 0.5478 0.71711 0.90191 0.0
H3066 H 0.09918 0.74846 0.77208 0.0
H3067 H 0.21859 0.78832 0.72474 0.0
H3068 H 0.10515 0.78348 0.71019 0.0
H3069 H 0.21187 0.77169 0.79609 0.0
H3070 H 0.17763 0.78485 0.7174 0.0
H3071 H 0.14019 0.75458 0.77922 0.0
C3072 C 0.10907 0.75757 0.75996 0.0
C3073 C 0.09833 0.76548 0.74048 0.0
C3074 C 0.18512 0.78202 0.73469 0.0
C3075 C 0.14614 0.77238 0.74855 0.0
C3076 C 0.20867 0.78424 0.73902 0.0
C3077 C 0.21913 0.78072 0.76128 0.0
C3078 C 0.17156 0.77567 0.75251 0.0
C3079 C 0.20489 0.77449 0.7786 0.0
C3080 C 0.13266 0.76107 0.76411 0.0
C3081 C 0.11246 0.77716 0.72554 0.0
N3082 N 0.18206 0.77208 0.77382 0.0
N3083 N 0.1355 0.78008 0.72976 0.0
H3084 H 0.05662 0.39197 0.37709 0.0
H3085 H 0.02198 0.45993 0.49652 0.0
H3086 H 0.02677 0.35953 0.43364 0.0
H3087 H 0.06594 0.49825 0.45328 0.0
H3088 H 0.02251 0.42332 0.47096 0.0
H3089 H 0.06036 0.43118 0.40239 0.0
C3090 C 0.05127 0.39302 0.39491 0.0
C3091 C 0.04118 0.37234 0.40311 0.0
C3092 C 0.03214 0.43963 0.4669 0.0
C3093 C 0.04501 0.41692 0.43181 0.0
C3094 C 0.03188 0.4607 0.48163 0.0
C3095 C 0.04415 0.48238 0.47735 0.0
C3096 C 0.0446 0.43981 0.44726 0.0
C3097 C 0.0561 0.48201 0.45722 0.0
C3098 C 0.05324 0.41538 0.40925 0.0
C3099 C 0.03439 0.37485 0.4263 0.0
N3100 N 0.05606 0.46105 0.4429 0.0
N3101 N 0.03626 0.39653 0.43958 0.0
H3102 H 0.43781 0.24821 0.19568 0.0
H3103 H 0.36695 0.29088 0.29988 0.0
H3104 H 0.47038 0.28929 0.26514 0.0
H3105 H 0.33834 0.26869 0.22456 0.0
H3106 H 0.40429 0.28833 0.28872 0.0
H3107 H 0.40117 0.25298 0.20683 0.0
C3108 C 0.43742 0.25837 0.21325 0.0
C3109 C 0.45765 0.26848 0.2293 0.0
C3110 C 0.38989 0.28412 0.27457 0.0
C3111 C 0.41491 0.27369 0.24259 0.0
C3112 C 0.36849 0.28589 0.28094 0.0
C3113 C 0.34925 0.28076 0.26319 0.0
C3114 C 0.39229 0.2764 0.2502 0.0
C3115 C 0.35245 0.27304 0.23904 0.0
C3116 C 0.4163 0.26107 0.21965 0.0
C3117 C 0.45551 0.28127 0.25195 0.0
N3118 N 0.3733 0.27105 0.23336 0.0
N3119 N 0.43472 0.28334 0.25791 0.0
H3120 H 0.58429 0.57248 0.34601 0.0
H3121 H 0.59174 0.53074 0.47536 0.0
H3122 H 0.63819 0.54371 0.37539 0.0
H3123 H 0.53626 0.55727 0.44594 0.0
H3124 H 0.61021 0.53791 0.43979 0.0
H3125 H 0.56785 0.57025 0.38381 0.0
C3126 C 0.59288 0.56611 0.36053 0.0
C3127 C 0.61267 0.55832 0.3575 0.0
C3128 C 0.59402 0.54224 0.44112 0.0
C3129 C 0.59384 0.55538 0.40057 0.0
C3130 C 0.58347 0.53812 0.46143 0.0
C3131 C 0.56242 0.54333 0.46356 0.0
C3132 C 0.58346 0.55168 0.42281 0.0
C3133 C 0.55244 0.55282 0.44493 0.0
C3134 C 0.58343 0.56469 0.38203 0.0
C3135 C 0.623 0.55005 0.37686 0.0
N3136 N 0.56304 0.55668 0.42533 0.0
N3137 N 0.6134 0.54865 0.39745 0.0
H3138 H 0.29806 0.86685 0.03142 0.0
H3139 H 0.29929 0.87245 0.17216 0.0
H3140 H 0.27604 0.91994 0.07784 0.0
H3141 H 0.33199 0.82972 0.12543 0.0
H3142 H 0.27803 0.88052 0.13606 0.0
H3143 H 0.29521 0.84246 0.06287 0.0
C3144 C 0.29158 0.87281 0.04787 0.0
C3145 C 0.28767 0.89544 0.05244 0.0
C3146 C 0.2895 0.86898 0.13373 0.0
C3147 C 0.28561 0.86851 0.08882 0.0
C3148 C 0.30169 0.86458 0.15422 0.0
C3149 C 0.31772 0.85106 0.1514 0.0
C3150 C 0.29339 0.85955 0.1105 0.0
C3151 C 0.32014 0.84078 0.12808 0.0
C3152 C 0.29021 0.85907 0.06593 0.0
C3153 C 0.27935 0.90256 0.07389 0.0
N3154 N 0.30826 0.84545 0.10845 0.0
N3155 N 0.27933 0.88944 0.09178 0.0
H3156 H 0.89687 0.52574 0.89011 0.0
H3157 H 1.00607 0.49259 0.9499 0.0
H3158 H 0.93946 0.49139 0.84786 0.0
H3159 H 0.97681 0.54937 0.97902 0.0
H3160 H 0.97491 0.48066 0.91598 0.0
H3161 H 0.91788 0.52026 0.92702 0.0
C3162 C 0.91027 0.51655 0.88853 0.0
C3163 C 0.91703 0.50979 0.86602 0.0
C3164 C 0.97529 0.49549 0.93008 0.0
C3165 C 0.94126 0.50395 0.90802 0.0
C3166 C 0.9931 0.50247 0.94914 0.0
C3167 C 0.99392 0.52202 0.96707 0.0
C3168 C 0.95835 0.50809 0.92932 0.0
C3169 C 0.97673 0.53417 0.96555 0.0
C3170 C 0.92227 0.51347 0.90961 0.0
C3171 C 0.93418 0.49747 0.86501 0.0
N3172 N 0.95961 0.52697 0.94696 0.0
N3173 N 0.94622 0.49547 0.88588 0.0
H3174 H 0.25579 0.22731 0.57451 0.0
H3175 H 0.29612 0.22991 0.71113 0.0
H3176 H 0.32434 0.22378 0.5969 0.0
H3177 H 0.27259 0.2904 0.69491 0.0
H3178 H 0.29783 0.21797 0.66793 0.0
H3179 H 0.25263 0.24164 0.61744 0.0
C3180 C 0.27015 0.22962 0.58838 0.0
C3181 C 0.29044 0.22458 0.58207 0.0
C3182 C 0.29214 0.23378 0.6739 0.0
C3183 C 0.28665 0.24006 0.63091 0.0
C3184 C 0.29147 0.24082 0.69861 0.0
C3185 C 0.28484 0.26161 0.70699 0.0
C3186 C 0.28514 0.24696 0.65709 0.0
C3187 C 0.27776 0.27424 0.68945 0.0
C3188 C 0.26834 0.23782 0.61275 0.0
C3189 C 0.30848 0.22774 0.60083 0.0
N3190 N 0.27795 0.26666 0.6653 0.0
N3191 N 0.30605 0.2349 0.62437 0.0
H3192 H 0.56046 0.54005 0.22519 0.0
H3193 H 0.59212 0.54107 0.09134 0.0
H3194 H 0.62908 0.55251 0.20914 0.0
H3195 H 0.52664 0.54737 0.10954 0.0
H3196 H 0.60553 0.54399 0.13428 0.0
H3197 H 0.54729 0.54109 0.18288 0.0
C3198 C 0.57279 0.5431 0.21281 0.0
C3199 C 0.59594 0.54615 0.22077 0.0
C3200 C 0.58825 0.54484 0.12896 0.0
C3201 C 0.5809 0.54732 0.17224 0.0
C3202 C 0.58053 0.54308 0.1044 0.0
C3203 C 0.55814 0.54375 0.09683 0.0
C3204 C 0.57343 0.54697 0.14616 0.0
C3205 C 0.54401 0.54672 0.11461 0.0
C3206 C 0.56523 0.54376 0.18867 0.0
C3207 C 0.61109 0.55002 0.20385 0.0
N3208 N 0.55183 0.54798 0.13848 0.0
N3209 N 0.60329 0.55037 0.18039 0.0
H3210 H 0.3479 0.89167 0.95923 0.0
H3211 H 0.26861 0.84632 0.8314 0.0
H3212 H 0.28944 0.91842 0.93948 0.0
H3213 H 0.31969 0.81254 0.85821 0.0
H3214 H 0.27688 0.87437 0.86983 0.0
H3215 H 0.33918 0.86447 0.92066 0.0
C3216 C 0.3333 0.89195 0.94673 0.0
C3217 C 0.31934 0.90732 0.95268 0.0
C3218 C 0.28613 0.86069 0.86732 0.0
C3219 C 0.30917 0.87602 0.90848 0.0
C3220 C 0.28139 0.8447 0.84547 0.0
C3221 C 0.2934 0.82706 0.84176 0.0
C3222 C 0.3031 0.85907 0.88537 0.0
C3223 C 0.30984 0.82571 0.86045 0.0
C3224 C 0.32827 0.8763 0.92474 0.0
C3225 C 0.30066 0.90686 0.93569 0.0
N3226 N 0.31428 0.84159 0.88141 0.0
N3227 N 0.29608 0.89139 0.91434 0.0
H3228 H 0.89132 0.46878 0.72588 0.0
H3229 H 0.98965 0.53295 0.66076 0.0
H3230 H 0.91566 0.54447 0.73605 0.0
H3231 H 0.96159 0.45789 0.64572 0.0
H3232 H 0.95911 0.53802 0.68445 0.0
H3233 H 0.91238 0.46476 0.69156 0.0
C3234 C 0.90076 0.48456 0.72061 0.0
C3235 C 0.90222 0.50694 0.73415 0.0
C3236 C 0.9594 0.52044 0.67575 0.0
C3237 C 0.92656 0.50249 0.6953 0.0
C3238 C 0.97685 0.51761 0.66243 0.0
C3239 C 0.97803 0.49499 0.6519 0.0
C3240 C 0.94319 0.50044 0.67843 0.0
C3241 C 0.9612 0.47554 0.6541 0.0
C3242 C 0.91282 0.48227 0.70106 0.0
C3243 C 0.91438 0.52684 0.72634 0.0
N3244 N 0.94447 0.47868 0.66736 0.0
N3245 N 0.92646 0.52411 0.70768 0.0
H3246 H 0.30707 0.26237 0.47089 0.0
H3247 H 0.28657 0.23048 0.32819 0.0
H3248 H 0.26107 0.19731 0.43468 0.0
H3249 H 0.29005 0.3015 0.36409 0.0
H3250 H 0.28304 0.21712 0.36727 0.0
H3251 H 0.30641 0.27684 0.43206 0.0
C3252 C 0.29651 0.25134 0.45487 0.0
C3253 C 0.28388 0.22875 0.45607 0.0
C3254 C 0.28453 0.23561 0.36643 0.0
C3255 C 0.2839 0.2447 0.41154 0.0
C3256 C 0.28659 0.24327 0.34416 0.0
C3257 C 0.28848 0.26715 0.34264 0.0
C3258 C 0.28506 0.25203 0.38747 0.0
C3259 C 0.28868 0.28292 0.3642 0.0
C3260 C 0.29623 0.25954 0.43275 0.0
C3261 C 0.27075 0.215 0.43466 0.0
N3262 N 0.28724 0.27513 0.3857 0.0
N3263 N 0.27142 0.22301 0.41318 0.0
H3264 H 0.35598 0.63783 0.56727 0.0
H3265 H 0.40902 0.53327 0.51949 0.0
H3266 H 0.32475 0.56433 0.56386 0.0
H3267 H 0.43377 0.60604 0.513 0.0
H3268 H 0.38608 0.54564 0.54974 0.0
H3269 H 0.39206 0.62771 0.56301 0.0
C3270 C 0.35689 0.61961 0.56617 0.0
C3271 C 0.33739 0.60172 0.56484 0.0
C3272 C 0.39692 0.55895 0.54211 0.0
C3273 C 0.37824 0.58998 0.55963 0.0
C3274 C 0.40997 0.55192 0.52484 0.0
C3275 C 0.42274 0.56869 0.51332 0.0
C3276 C 0.3966 0.58285 0.54768 0.0
C3277 C 0.42354 0.59256 0.52096 0.0
C3278 C 0.37747 0.61383 0.56384 0.0
C3279 C 0.33947 0.57853 0.56446 0.0
N3280 N 0.41031 0.59892 0.53741 0.0
N3281 N 0.3595 0.57315 0.56106 0.0
H3282 H 0.85322 0.9525 0.50908 0.0
H3283 H 0.98474 0.98401 0.56029 0.0
H3284 H 0.88398 0.91479 0.55806 0.0
H3285 H 0.95643 0.01847 0.50623 0.0
H3286 H 0.94759 0.95861 0.55951 0.0
H3287 H 0.89071 0.97647 0.50692 0.0
C3288 C 0.86787 0.94908 0.51914 0.0
C3289 C 0.86551 0.93168 0.53382 0.0
C3290 C 0.94944 0.97172 0.54781 0.0
C3291 C 0.90825 0.95913 0.53166 0.0
C3292 C 0.97065 0.9863 0.5483 0.0
C3293 C 0.97364 1.00334 0.53326 0.0
C3294 C 0.93099 0.97427 0.53229 0.0
C3295 C 0.95479 1.00559 0.51819 0.0
C3296 C 0.88923 0.9628 0.51796 0.0
C3297 C 0.88501 0.92798 0.54649 0.0
N3298 N 0.93419 0.99117 0.51807 0.0
N3299 N 0.90555 0.94172 0.54524 0.0
H3300 H 0.91235 0.09153 0.24969 0.0
H3301 H 0.80039 0.12705 0.28464 0.0
H3302 H 0.85716 0.0467 0.27457 0.0
H3303 H 0.86106 0.17734 0.27823 0.0
H3304 H 0.81615 0.09514 0.26601 0.0
H3305 H 0.88913 0.1203 0.24572 0.0
C3306 C 0.89503 0.08737 0.25333 0.0
C3307 C 0.88655 0.06693 0.26256 0.0
C3308 C 0.82582 0.11318 0.26804 0.0
C3309 C 0.86019 0.09947 0.25831 0.0
C3310 C 0.81677 0.13131 0.27851 0.0
C3311 C 0.8296 0.15457 0.28294 0.0
C3312 C 0.84801 0.11843 0.26245 0.0
C3313 C 0.85078 0.15946 0.27499 0.0
C3314 C 0.88188 0.10381 0.25128 0.0
C3315 C 0.86423 0.06238 0.26748 0.0
N3316 N 0.8596 0.14141 0.26551 0.0
N3317 N 0.85189 0.07866 0.26557 0.0
H3318 H 0.7258 0.05797 0.05572 0.0
H3319 H 0.61325 0.10102 0.05193 0.0
H3320 H 0.71707 0.12155 0.0312 0.0
H3321 H 0.62112 0.02966 0.04785 0.0
H3322 H 0.65416 0.11551 0.06402 0.0
H3323 H 0.69206 0.05668 0.07563 0.0
C3324 C 0.7175 0.07244 0.05581 0.0
C3325 C 0.72375 0.08962 0.04153 0.0
C3326 C 0.64673 0.09674 0.06127 0.0
C3327 C 0.68481 0.08763 0.06295 0.0
C3328 C 0.62352 0.08844 0.05407 0.0
C3329 C 0.61392 0.06409 0.04866 0.0
C3330 C 0.66026 0.08051 0.0631 0.0
C3331 C 0.62779 0.04855 0.0521 0.0
C3332 C 0.6981 0.07156 0.06689 0.0
C3333 C 0.71246 0.10788 0.0419 0.0
N3334 N 0.65031 0.05702 0.05886 0.0
N3335 N 0.69294 0.106 0.05172 0.0
H3336 H 0.26819 0.52734 0.28424 0.0
H3337 H 0.23109 0.40105 0.2733 0.0
H3338 H 0.22156 0.48819 0.2213 0.0
H3339 H 0.30112 0.43387 0.30031 0.0
H3340 H 0.23033 0.43143 0.24827 0.0
H3341 H 0.28642 0.49453 0.28373 0.0
C3342 C 0.26249 0.51225 0.26964 0.0
C3343 C 0.24289 0.50994 0.25343 0.0
C3344 C 0.24609 0.43157 0.25907 0.0
C3345 C 0.2628 0.4722 0.25334 0.0
C3346 C 0.24635 0.41452 0.27364 0.0
C3347 C 0.26594 0.41557 0.28932 0.0
C3348 C 0.26539 0.45005 0.26086 0.0
C3349 C 0.28555 0.43284 0.28872 0.0
C3350 C 0.27285 0.49347 0.26932 0.0
C3351 C 0.23632 0.4903 0.23457 0.0
N3352 N 0.28463 0.44986 0.27519 0.0
N3353 N 0.24563 0.47158 0.23568 0.0
H3354 H 0.22414 0.43289 0.07542 0.0
H3355 H 0.17646 0.48539 0.96432 0.0
H3356 H 0.24382 0.42113 0.00384 0.0
H3357 H 0.13544 0.46778 0.02006 0.0
H3358 H 0.20501 0.46791 0.98273 0.0
H3359 H 0.19438 0.4507 0.05896 0.0
C3360 C 0.22209 0.43388 0.05625 0.0
C3361 C 0.23645 0.42547 0.04097 0.0
C3362 C 0.18975 0.46788 0.99093 0.0
C3363 C 0.203 0.44624 0.02233 0.0
C3364 C 0.17337 0.47779 0.98039 0.0
C3365 C 0.15318 0.47759 0.99024 0.0
C3366 C 0.18625 0.458 0.01181 0.0
C3367 C 0.15068 0.46832 0.01175 0.0
C3368 C 0.20516 0.44404 0.04693 0.0
C3369 C 0.2331 0.42723 0.01629 0.0
N3370 N 0.16701 0.45881 0.02181 0.0
N3371 N 0.21689 0.43763 0.00782 0.0
H3372 H 0.90503 0.94735 0.25212 0.0
H3373 H 0.80377 0.86439 0.3008 0.0
H3374 H 0.8658 0.97146 0.306 0.0
H3375 H 0.84262 0.8374 0.24809 0.0
H3376 H 0.82506 0.9042 0.3004 0.0
H3377 H 0.88102 0.90731 0.24772 0.0
C3378 C 0.89129 0.9443 0.26282 0.0
C3379 C 0.88759 0.96276 0.27963 0.0
C3380 C 0.8289 0.88962 0.28879 0.0
C3381 C 0.8602 0.91721 0.27475 0.0
C3382 C 0.81663 0.86684 0.28893 0.0
C3383 C 0.8213 0.84752 0.27436 0.0
C3384 C 0.84614 0.8932 0.27409 0.0
C3385 C 0.83845 0.85181 0.25964 0.0
C3386 C 0.87766 0.92146 0.26038 0.0
C3387 C 0.86954 0.95779 0.29304 0.0
N3388 N 0.85032 0.87421 0.25994 0.0
N3389 N 0.85665 0.93556 0.29037 0.0
H3390 H 0.72074 0.11801 0.81445 0.0
H3391 H 0.76676 0.21298 0.73288 0.0
H3392 H 0.71558 0.10471 0.736 0.0
H3393 H 0.77825 0.22837 0.8111 0.0
H3394 H 0.74922 0.17216 0.73448 0.0
H3395 H 0.74277 0.15826 0.81475 0.0
C3396 C 0.72425 0.12348 0.79741 0.0
C3397 C 0.71614 0.10807 0.77523 0.0
C3398 C 0.75548 0.18441 0.7514 0.0
C3399 C 0.74113 0.15351 0.77541 0.0
C3400 C 0.76551 0.2076 0.75041 0.0
C3401 C 0.77315 0.22385 0.77193 0.0
C3402 C 0.75313 0.1776 0.77412 0.0
C3403 C 0.77147 0.21637 0.79425 0.0
C3404 C 0.73681 0.14634 0.79757 0.0
C3405 C 0.72126 0.11594 0.75362 0.0
N3406 N 0.76141 0.19365 0.79485 0.0
N3407 N 0.73332 0.13807 0.7543 0.0
loop_
_geom_bond_atom_site_label_1
_geom_bond_atom_site_label_2
_geom_bond_distance
_geom_bond_site_symmetry_2
_ccdc_geom_bond_type
Mg0 O1 2.028 . S
Mg0 O7 1.986 . S
Mg0 O9 2.114 . S
Mg0 O10 2.251 . S
Mg0 O13 2.010 . S
O1 Mg0 2.028 . S
O1 C4 1.250 . S
O2 Mg3 2.028 1_455 S
O2 C4 1.248 . S
Mg3 O2 2.028 1_655 S
Mg3 O8 2.032 1_655 S
Mg3 O10 2.079 1_655 S
C4 O1 1.250 . S
C4 O2 1.248 . S
C5 O6 1.264 . S
C5 O13 1.249 . S
O6 C5 1.264 . S
O7 Mg0 1.986 . S
O7 C11 1.246 . S
O8 Mg3 2.032 1_455 S
O8 C11 1.259 . S
O9 Mg0 2.114 . S
O9 C12 1.256 . S
O10 Mg0 2.251 . S
O10 Mg3 2.079 1_455 S
O10 C12 1.273 . S
C11 O7 1.246 . S
C11 O8 1.259 . S
C12 O9 1.256 . S
C12 O10 1.273 . S
O13 Mg0 2.010 . S
O13 C5 1.249 . S
Mg14 O15 2.028 . S
Mg14 O21 1.986 . S
Mg14 O23 2.114 . S
Mg14 O24 2.251 1_455 S
Mg14 O27 2.010 . S
O15 Mg14 2.028 . S
O15 C18 1.250 . S
O16 Mg17 2.028 . S
O16 C18 1.248 1_655 S
Mg17 O16 2.028 . S
Mg17 O22 2.032 . S
Mg17 O24 2.079 . S
C18 O15 1.250 . S
C18 O16 1.248 1_455 S
C19 O20 1.264 . S
C19 O27 1.249 . S
O20 C19 1.264 . S
O21 Mg14 1.986 . S
O21 C25 1.246 . S
O22 Mg17 2.032 . S
O22 C25 1.259 1_655 S
O23 Mg14 2.114 . S
O23 C26 1.252 1_455 S
O24 Mg14 2.251 1_655 S
O24 Mg17 2.079 . S
O24 C26 1.273 . S
C25 O21 1.246 . S
C25 O22 1.259 1_455 S
C26 O23 1.252 1_655 S
C26 O24 1.273 . S
O27 Mg14 2.010 . S
O27 C19 1.249 . S
Mg28 O29 2.028 . S
Mg28 O35 1.986 . S
Mg28 O37 2.114 . S
Mg28 O38 2.251 . S
Mg28 O41 2.010 . S
O29 Mg28 2.028 . S
O29 C32 1.250 . S
O30 Mg31 2.028 . S
O30 C32 1.248 . S
Mg31 O30 2.028 . S
Mg31 O36 2.032 . S
Mg31 O38 2.079 . S
C32 O29 1.250 . S
C32 O30 1.248 . S
C33 O34 1.264 . S
C33 O41 1.249 . S
O34 C33 1.264 . S
O35 Mg28 1.986 . S
O35 C39 1.246 . S
O36 Mg31 2.032 . S
O36 C39 1.259 . S
O37 Mg28 2.114 . S
O37 C40 1.252 . S
O38 Mg28 2.251 . S
O38 Mg31 2.079 . S
O38 C40 1.273 . S
C39 O35 1.246 . S
C39 O36 1.259 . S
C40 O37 1.252 . S
C40 O38 1.273 . S
O41 Mg28 2.010 . S
O41 C33 1.249 . S
Mg42 O43 2.028 . S
Mg42 O49 1.986 . S
Mg42 O51 2.114 . S
Mg42 O52 2.251 . S
Mg42 O55 2.010 . S
O43 Mg42 2.028 . S
O43 C46 1.250 . S
O44 Mg45 2.028 . S
O44 C46 1.248 . S
Mg45 O44 2.028 . S
Mg45 O50 2.032 . S
Mg45 O52 2.079 . S
C46 O43 1.250 . S
C46 O44 1.248 . S
C47 O48 1.264 . S
C47 O55 1.249 . S
O48 C47 1.264 . S
O49 Mg42 1.986 . S
O49 C53 1.246 . S
O50 Mg45 2.032 . S
O50 C53 1.259 . S
O51 Mg42 2.114 . S
O51 C54 1.252 . S
O52 Mg42 2.251 . S
O52 Mg45 2.079 . S
O52 C54 1.273 . S
C53 O49 1.246 . S
C53 O50 1.259 . S
C54 O51 1.252 . S
C54 O52 1.273 . S
O55 Mg42 2.010 . S
O55 C47 1.249 . S
Mg56 O57 2.028 . S
Mg56 O63 1.986 . S
Mg56 O65 2.114 . S
Mg56 O66 2.251 . S
Mg56 O69 2.010 . S
O57 Mg56 2.028 . S
O57 C60 1.250 . S
O58 Mg59 2.028 . S
O58 C60 1.248 . S
Mg59 O58 2.028 . S
Mg59 O64 2.032 . S
Mg59 O66 2.079 . S
C60 O57 1.250 . S
C60 O58 1.248 . S
C61 O62 1.264 . S
C61 O69 1.249 . S
O62 C61 1.264 . S
O63 Mg56 1.986 . S
O63 C67 1.246 . S
O64 Mg59 2.032 . S
O64 C67 1.259 . S
O65 Mg56 2.114 . S
O65 C68 1.252 . S
O66 Mg56 2.251 . S
O66 Mg59 2.079 . S
O66 C68 1.273 . S
C67 O63 1.246 . S
C67 O64 1.259 . S
C68 O65 1.252 . S
C68 O66 1.273 . S
O69 Mg56 2.010 . S
O69 C61 1.249 . S
Mg70 O71 2.028 . S
Mg70 O77 1.986 . S
Mg70 O79 2.114 . S
Mg70 O80 2.251 . S
Mg70 O83 2.010 . S
O71 Mg70 2.028 . S
O71 C74 1.250 . S
O72 Mg73 2.028 . S
O72 C74 1.248 . S
Mg73 O72 2.028 . S
Mg73 O78 2.032 . S
Mg73 O80 2.079 . S
C74 O71 1.250 . S
C74 O72 1.248 . S
C75 O76 1.264 . S
C75 O83 1.249 . S
O76 C75 1.264 . S
O77 Mg70 1.986 . S
O77 C81 1.246 . S
O78 Mg73 2.032 . S
O78 C81 1.259 . S
O79 Mg70 2.114 . S
O79 C82 1.252 . S
O80 Mg70 2.251 . S
O80 Mg73 2.079 . S
O80 C82 1.273 . S
C81 O77 1.246 . S
C81 O78 1.259 . S
C82 O79 1.252 . S
C82 O80 1.273 . S
O83 Mg70 2.010 . S
O83 C75 1.249 . S
Mg84 O85 2.028 . S
Mg84 O91 1.986 . S
Mg84 O93 2.114 . S
Mg84 O94 2.251 . S
Mg84 O97 2.010 . S
O85 Mg84 2.028 . S
O85 C88 1.250 . S
O86 Mg87 2.028 . S
O86 C88 1.248 . S
Mg87 O86 2.028 . S
Mg87 O92 2.032 . S
Mg87 O94 2.079 . S
C88 O85 1.250 . S
C88 O86 1.248 . S
C89 O90 1.264 . S
C89 O97 1.249 . S
O90 C89 1.264 . S
O91 Mg84 1.986 . S
O91 C95 1.246 . S
O92 Mg87 2.032 . S
O92 C95 1.259 . S
O93 Mg84 2.114 . S
O93 C96 1.252 . S
O94 Mg84 2.251 . S
O94 Mg87 2.079 . S
O94 C96 1.273 . S
C95 O91 1.246 . S
C95 O92 1.259 . S
C96 O93 1.252 . S
C96 O94 1.273 . S
O97 Mg84 2.010 . S
O97 C89 1.249 . S
Mg98 O99 2.028 1_655 S
Mg98 O105 1.986 1_655 S
Mg98 O107 2.114 . S
Mg98 O108 2.251 . S
Mg98 O111 2.010 1_655 S
O99 Mg98 2.028 1_455 S
O99 C102 1.255 . S
O100 Mg101 2.028 . S
O100 C102 1.241 1_655 S
Mg101 O100 2.028 . S
Mg101 O106 2.032 . S
Mg101 O108 2.079 . S
C102 O99 1.255 . S
C102 O100 1.241 1_455 S
C103 O104 1.264 . S
C103 O111 1.249 . S
O104 C103 1.264 . S
O105 Mg98 1.986 1_455 S
O105 C109 1.246 1_455 S
O106 Mg101 2.032 . S
O106 C109 1.259 . S
O107 Mg98 2.114 . S
O107 C110 1.252 . S
O108 Mg98 2.251 . S
O108 Mg101 2.079 . S
O108 C110 1.273 . S
C109 O105 1.246 1_655 S
C109 O106 1.259 . S
C110 O107 1.252 . S
C110 O108 1.273 . S
O111 Mg98 2.010 1_455 S
O111 C103 1.249 . S
Mg112 O113 2.028 1_545 S
Mg112 O119 1.986 . S
Mg112 O121 2.114 . S
Mg112 O122 2.251 . S
Mg112 O125 2.010 . S
O113 Mg112 2.028 1_565 S
O113 C116 1.250 . S
O114 Mg115 2.028 1_565 S
O114 C116 1.248 . S
Mg115 O114 2.028 1_545 S
Mg115 O120 2.032 . S
Mg115 O122 2.079 . S
C116 O113 1.250 . S
C116 O114 1.248 . S
C117 O118 1.264 . S
C117 O125 1.249 . S
O118 C117 1.264 . S
O119 Mg112 1.986 . S
O119 C123 1.246 . S
O120 Mg115 2.032 . S
O120 C123 1.259 . S
O121 Mg112 2.114 . S
O121 C124 1.252 . S
O122 Mg112 2.251 . S
O122 Mg115 2.079 . S
O122 C124 1.273 . S
C123 O119 1.246 . S
C123 O120 1.259 . S
C124 O121 1.252 . S
C124 O122 1.273 . S
O125 Mg112 2.010 . S
O125 C117 1.249 . S
Mg126 O127 2.028 . S
Mg126 O133 1.986 . S
Mg126 O135 2.114 . S
Mg126 O136 2.251 . S
Mg126 O139 2.010 . S
O127 Mg126 2.028 . S
O127 C130 1.250 . S
O128 Mg129 2.028 . S
O128 C130 1.248 . S
Mg129 O128 2.028 . S
Mg129 O134 2.032 . S
Mg129 O136 2.079 . S
C130 O127 1.250 . S
C130 O128 1.248 . S
C131 O132 1.264 . S
C131 O139 1.249 . S
O132 C131 1.264 . S
O133 Mg126 1.986 . S
O133 C137 1.246 . S
O134 Mg129 2.032 . S
O134 C137 1.259 . S
O135 Mg126 2.114 . S
O135 C138 1.252 . S
O136 Mg126 2.251 . S
O136 Mg129 2.079 . S
O136 C138 1.273 . S
C137 O133 1.246 . S
C137 O134 1.259 . S
C138 O135 1.252 . S
C138 O136 1.273 . S
O139 Mg126 2.010 . S
O139 C131 1.249 . S
Mg140 O141 2.028 . S
Mg140 O147 1.986 . S
Mg140 O149 2.114 . S
Mg140 O150 2.251 . S
Mg140 O153 2.010 . S
O141 Mg140 2.028 . S
O141 C144 1.250 . S
O142 Mg143 2.028 . S
O142 C144 1.248 . S
Mg143 O142 2.028 . S
Mg143 O148 2.032 . S
Mg143 O150 2.079 . S
C144 O141 1.250 . S
C144 O142 1.248 . S
C145 O146 1.264 . S
C145 O153 1.249 . S
O146 C145 1.264 . S
O147 Mg140 1.986 . S
O147 C151 1.246 . S
O148 Mg143 2.032 . S
O148 C151 1.259 . S
O149 Mg140 2.114 . S
O149 C152 1.252 . S
O150 Mg140 2.251 . S
O150 Mg143 2.079 . S
O150 C152 1.273 . S
C151 O147 1.246 . S
C151 O148 1.259 . S
C152 O149 1.252 . S
C152 O150 1.273 . S
O153 Mg140 2.010 . S
O153 C145 1.249 . S
Mg154 O155 2.028 1_554 S
Mg154 O161 1.986 . S
Mg154 O163 2.114 1_554 S
Mg154 O164 2.251 . S
Mg154 O167 2.010 . S
O155 Mg154 2.028 1_556 S
O155 C158 1.250 . S
O156 Mg157 2.028 1_556 S
O156 C158 1.248 . S
Mg157 O156 2.028 1_554 S
Mg157 O162 2.032 . S
Mg157 O164 2.079 . S
C158 O155 1.250 . S
C158 O156 1.248 . S
C159 O160 1.264 . S
C159 O167 1.249 . S
O160 C159 1.264 . S
O161 Mg154 1.986 . S
O161 C165 1.246 . S
O162 Mg157 2.032 . S
O162 C165 1.259 . S
O163 Mg154 2.114 1_556 S
O163 C166 1.252 1_556 S
O164 Mg154 2.251 . S
O164 Mg157 2.079 . S
O164 C166 1.273 . S
C165 O161 1.246 . S
C165 O162 1.259 . S
C166 O163 1.252 1_554 S
C166 O164 1.273 . S
O167 Mg154 2.010 . S
O167 C159 1.249 . S
Mg168 O169 2.028 . S
Mg168 O175 1.986 . S
Mg168 O177 2.114 . S
Mg168 O178 2.251 . S
Mg168 O181 2.010 . S
O169 Mg168 2.028 . S
O169 C172 1.250 . S
O170 Mg171 2.028 . S
O170 C172 1.248 . S
Mg171 O170 2.028 . S
Mg171 O176 2.032 . S
Mg171 O178 2.079 . S
C172 O169 1.250 . S
C172 O170 1.248 . S
C173 O174 1.264 . S
C173 O181 1.249 . S
O174 C173 1.264 . S
O175 Mg168 1.986 . S
O175 C179 1.246 . S
O176 Mg171 2.032 . S
O176 C179 1.259 . S
O177 Mg168 2.114 . S
O177 C180 1.252 . S
O178 Mg168 2.251 . S
O178 Mg171 2.079 . S
O178 C180 1.273 . S
C179 O175 1.246 . S
C179 O176 1.259 . S
C180 O177 1.252 . S
C180 O178 1.273 . S
O181 Mg168 2.010 . S
O181 C173 1.249 . S
Mg182 O183 2.028 . S
Mg182 O189 1.986 . S
Mg182 O191 2.114 . S
Mg182 O192 2.251 . S
Mg182 O195 2.010 . S
O183 Mg182 2.028 . S
O183 C186 1.250 . S
O184 Mg185 2.028 . S
O184 C186 1.248 . S
Mg185 O184 2.028 . S
Mg185 O190 2.032 . S
Mg185 O192 2.079 . S
C186 O183 1.250 . S
C186 O184 1.248 . S
C187 O188 1.264 . S
C187 O195 1.249 . S
O188 C187 1.264 . S
O189 Mg182 1.986 . S
O189 C193 1.246 . S
O190 Mg185 2.032 . S
O190 C193 1.259 . S
O191 Mg182 2.114 . S
O191 C194 1.252 . S
O192 Mg182 2.251 . S
O192 Mg185 2.079 . S
O192 C194 1.273 . S
C193 O189 1.246 . S
C193 O190 1.259 . S
C194 O191 1.252 . S
C194 O192 1.273 . S
O195 Mg182 2.010 . S
O195 C187 1.249 . S
Mg196 O197 2.028 . S
Mg196 O203 1.986 . S
Mg196 O205 2.114 . S
Mg196 O206 2.251 . S
Mg196 O209 2.010 . S
O197 Mg196 2.028 . S
O197 C200 1.250 . S
O198 Mg199 2.028 . S
O198 C200 1.248 . S
Mg199 O198 2.028 . S
Mg199 O204 2.032 . S
Mg199 O206 2.079 . S
C200 O197 1.250 . S
C200 O198 1.248 . S
C201 O202 1.264 . S
C201 O209 1.249 . S
O202 C201 1.264 . S
O203 Mg196 1.986 . S
O203 C207 1.246 . S
O204 Mg199 2.032 . S
O204 C207 1.259 . S
O205 Mg196 2.114 . S
O205 C208 1.252 . S
O206 Mg196 2.251 . S
O206 Mg199 2.079 . S
O206 C208 1.273 . S
C207 O203 1.246 . S
C207 O204 1.259 . S
C208 O205 1.252 . S
C208 O206 1.273 . S
O209 Mg196 2.010 . S
O209 C201 1.249 . S
Mg210 O211 2.028 . S
Mg210 O217 1.986 . S
Mg210 O219 2.114 . S
Mg210 O220 2.251 . S
Mg210 O223 2.010 . S
O211 Mg210 2.028 . S
O211 C214 1.250 . S
O212 Mg213 2.028 . S
O212 C214 1.248 . S
Mg213 O212 2.028 . S
Mg213 O218 2.032 . S
Mg213 O220 2.079 . S
C214 O211 1.250 . S
C214 O212 1.248 . S
C215 O216 1.264 . S
C215 O223 1.249 . S
O216 C215 1.264 . S
O217 Mg210 1.986 . S
O217 C221 1.246 . S
O218 Mg213 2.032 . S
O218 C221 1.259 . S
O219 Mg210 2.114 . S
O219 C222 1.252 . S
O220 Mg210 2.251 . S
O220 Mg213 2.079 . S
O220 C222 1.273 . S
C221 O217 1.246 . S
C221 O218 1.259 . S
C222 O219 1.252 . S
C222 O220 1.273 . S
O223 Mg210 2.010 . S
O223 C215 1.249 . S
Mg224 O225 2.028 1_545 S
Mg224 O231 1.986 . S
Mg224 O233 2.114 . S
Mg224 O234 2.251 . S
Mg224 O237 2.010 . S
O225 Mg224 2.028 1_565 S
O225 C228 1.250 . S
O226 Mg227 2.028 1_565 S
O226 C228 1.248 . S
Mg227 O226 2.028 1_545 S
Mg227 O232 2.032 . S
Mg227 O234 2.079 . S
C228 O225 1.250 . S
C228 O226 1.248 . S
C229 O230 1.264 . S
C229 O237 1.249 . S
O230 C229 1.264 . S
O231 Mg224 1.986 . S
O231 C235 1.246 . S
O232 Mg227 2.032 . S
O232 C235 1.259 . S
O233 Mg224 2.114 . S
O233 C236 1.252 . S
O234 Mg224 2.251 . S
O234 Mg227 2.079 . S
O234 C236 1.273 . S
C235 O231 1.246 . S
C235 O232 1.259 . S
C236 O233 1.252 . S
C236 O234 1.273 . S
O237 Mg224 2.010 . S
O237 C229 1.249 . S
Mg238 O239 2.028 . S
Mg238 O245 1.986 . S
Mg238 O247 2.114 . S
Mg238 O248 2.251 . S
Mg238 O251 2.010 . S
O239 Mg238 2.028 . S
O239 C242 1.250 . S
O240 Mg241 2.028 . S
O240 C242 1.248 . S
Mg241 O240 2.028 . S
Mg241 O246 2.032 . S
Mg241 O248 2.079 . S
C242 O239 1.250 . S
C242 O240 1.248 . S
C243 O244 1.264 . S
C243 O251 1.249 . S
O244 C243 1.264 . S
O245 Mg238 1.986 . S
O245 C249 1.246 . S
O246 Mg241 2.032 . S
O246 C249 1.259 . S
O247 Mg238 2.114 . S
O247 C250 1.252 . S
O248 Mg238 2.251 . S
O248 Mg241 2.079 . S
O248 C250 1.273 . S
C249 O245 1.246 . S
C249 O246 1.259 . S
C250 O247 1.252 . S
C250 O248 1.273 . S
O251 Mg238 2.010 . S
O251 C243 1.249 . S
Mg252 O253 2.028 . S
Mg252 O259 1.986 . S
Mg252 O261 2.114 . S
Mg252 O262 2.251 . S
Mg252 O265 2.010 . S
O253 Mg252 2.028 . S
O253 C256 1.250 . S
O254 Mg255 2.028 . S
O254 C256 1.248 . S
Mg255 O254 2.028 . S
Mg255 O260 2.032 . S
Mg255 O262 2.079 . S
C256 O253 1.250 . S
C256 O254 1.248 . S
C257 O258 1.264 . S
C257 O265 1.249 . S
O258 C257 1.264 . S
O259 Mg252 1.986 . S
O259 C263 1.246 . S
O260 Mg255 2.032 . S
O260 C263 1.259 . S
O261 Mg252 2.114 . S
O261 C264 1.252 . S
O262 Mg252 2.251 . S
O262 Mg255 2.079 . S
O262 C264 1.273 . S
C263 O259 1.246 . S
C263 O260 1.259 . S
C264 O261 1.252 . S
C264 O262 1.273 . S
O265 Mg252 2.010 . S
O265 C257 1.249 . S
Mg266 O267 2.028 . S
Mg266 O273 1.986 . S
Mg266 O275 2.114 . S
Mg266 O276 2.251 . S
Mg266 O279 2.010 . S
O267 Mg266 2.028 . S
O267 C270 1.250 . S
O268 Mg269 2.028 . S
O268 C270 1.248 . S
Mg269 O268 2.028 . S
Mg269 O274 2.032 . S
Mg269 O276 2.079 . S
C270 O267 1.250 . S
C270 O268 1.248 . S
C271 O272 1.264 . S
C271 O279 1.249 . S
O272 C271 1.264 . S
O273 Mg266 1.986 . S
O273 C277 1.246 . S
O274 Mg269 2.032 . S
O274 C277 1.259 . S
O275 Mg266 2.114 . S
O275 C278 1.252 . S
O276 Mg266 2.251 . S
O276 Mg269 2.079 . S
O276 C278 1.273 . S
C277 O273 1.246 . S
C277 O274 1.259 . S
C278 O275 1.252 . S
C278 O276 1.273 . S
O279 Mg266 2.010 . S
O279 C271 1.249 . S
Mg280 O281 2.060 . S
Mg280 O287 1.960 1_554 S
Mg280 O289 2.132 . S
Mg280 O290 2.252 . S
Mg280 O293 2.012 1_554 S
O281 Mg280 2.060 . S
O281 C284 1.250 . S
O282 Mg283 2.028 . S
O282 C284 1.248 . S
Mg283 O282 2.028 . S
Mg283 O288 2.032 1_554 S
Mg283 O290 2.079 . S
C284 O281 1.250 . S
C284 O282 1.248 . S
C285 O286 1.264 . S
C285 O293 1.249 . S
O286 C285 1.264 . S
O287 Mg280 1.960 1_556 S
O287 C291 1.246 . S
O288 Mg283 2.032 1_556 S
O288 C291 1.259 . S
O289 Mg280 2.132 . S
O289 C292 1.252 . S
O290 Mg280 2.252 . S
O290 Mg283 2.079 . S
O290 C292 1.273 . S
C291 O287 1.246 . S
C291 O288 1.259 . S
C292 O289 1.252 . S
C292 O290 1.273 . S
O293 Mg280 2.012 1_556 S
O293 C285 1.249 . S
Mg294 O295 2.028 . S
Mg294 O301 1.986 . S
Mg294 O303 2.114 . S
Mg294 O304 2.251 . S
Mg294 O307 2.010 . S
O295 Mg294 2.028 . S
O295 C298 1.250 . S
O296 Mg297 2.028 . S
O296 C298 1.248 . S
Mg297 O296 2.028 . S
Mg297 O302 2.032 . S
Mg297 O304 2.079 . S
C298 O295 1.250 . S
C298 O296 1.248 . S
C299 O300 1.264 . S
C299 O307 1.249 . S
O300 C299 1.264 . S
O301 Mg294 1.986 . S
O301 C305 1.246 . S
O302 Mg297 2.032 . S
O302 C305 1.259 . S
O303 Mg294 2.114 . S
O303 C306 1.252 . S
O304 Mg294 2.251 . S
O304 Mg297 2.079 . S
O304 C306 1.273 . S
C305 O301 1.246 . S
C305 O302 1.259 . S
C306 O303 1.252 . S
C306 O304 1.273 . S
O307 Mg294 2.010 . S
O307 C299 1.249 . S
Mg308 O309 2.028 . S
Mg308 O315 1.986 . S
Mg308 O317 2.114 . S
Mg308 O318 2.251 . S
Mg308 O321 2.010 . S
O309 Mg308 2.028 . S
O309 C312 1.250 . S
O310 Mg311 2.028 . S
O310 C312 1.248 . S
Mg311 O310 2.028 . S
Mg311 O316 2.032 . S
Mg311 O318 2.079 . S
C312 O309 1.250 . S
C312 O310 1.248 . S
C313 O314 1.264 . S
C313 O321 1.249 . S
O314 C313 1.264 . S
O315 Mg308 1.986 . S
O315 C319 1.246 . S
O316 Mg311 2.032 . S
O316 C319 1.259 . S
O317 Mg308 2.114 . S
O317 C320 1.252 . S
O318 Mg308 2.251 . S
O318 Mg311 2.079 . S
O318 C320 1.273 . S
C319 O315 1.246 . S
C319 O316 1.259 . S
C320 O317 1.252 . S
C320 O318 1.273 . S
O321 Mg308 2.010 . S
O321 C313 1.249 . S
Mg322 O323 2.028 . S
Mg322 O329 1.986 . S
Mg322 O331 2.114 . S
Mg322 O332 2.251 . S
Mg322 O335 2.010 . S
O323 Mg322 2.028 . S
O323 C326 1.250 . S
O324 Mg325 2.028 . S
O324 C326 1.248 . S
Mg325 O324 2.028 . S
Mg325 O330 2.032 . S
Mg325 O332 2.079 . S
C326 O323 1.250 . S
C326 O324 1.248 . S
C327 O328 1.264 . S
C327 O335 1.249 . S
O328 C327 1.264 . S
O329 Mg322 1.986 . S
O329 C333 1.246 . S
O330 Mg325 2.032 . S
O330 C333 1.259 . S
O331 Mg322 2.114 . S
O331 C334 1.252 . S
O332 Mg322 2.251 . S
O332 Mg325 2.079 . S
O332 C334 1.273 . S
C333 O329 1.246 . S
C333 O330 1.259 . S
C334 O331 1.252 . S
C334 O332 1.273 . S
O335 Mg322 2.010 . S
O335 C327 1.249 . S
Tb336 N365 2.617 . S
Tb336 N371 2.572 . S
Tb336 O380 2.465 . S
Tb336 O381 2.387 . S
Tb336 O383 2.428 . S
Tb336 O384 2.308 1_554 S
Tb336 O388 2.361 . S
Tb336 O391 2.393 . S
Tb336 C400 2.802 . S
C337 N338 1.379 . S
C337 C340 1.416 . S
C337 C344 1.424 . S
N338 C337 1.379 . S
N338 C341 1.334 . S
N338 Tb347 2.617 1_566 S
C339 C341 1.390 . S
C339 C342 1.339 . S
C339 H359 0.930 . S
C340 C337 1.416 . S
C340 C342 1.416 . S
C340 C346 1.448 . S
C341 N338 1.334 . S
C341 C339 1.390 . S
C341 H352 0.930 . S
C342 C339 1.339 . S
C342 C340 1.416 . S
C342 H363 0.930 . S
C343 C344 1.413 1_554 S
C343 C345 1.427 1_554 S
C343 C349 1.416 . S
C344 C337 1.424 . S
C344 C343 1.413 1_556 S
C344 N348 1.361 1_556 S
C345 C343 1.427 1_556 S
C345 C346 1.328 . S
C345 H360 0.929 . S
C346 C340 1.448 . S
C346 C345 1.328 . S
C346 H361 0.930 . S
Tb347 N338 2.617 1_544 S
Tb347 N348 2.572 1_545 S
Tb347 O382 2.349 1_655 S
Tb347 O385 2.393 1_654 S
Tb347 O386 2.465 . S
Tb347 O387 2.387 1_645 S
Tb347 O389 2.428 1_554 S
Tb347 O390 2.308 1_655 S
Tb347 C411 2.802 1_554 S
N348 C344 1.361 1_554 S
N348 Tb347 2.572 1_565 S
N348 C350 1.340 . S
C349 C343 1.416 . S
C349 C351 1.332 . S
C349 H357 0.931 . S
C350 N348 1.340 . S
C350 C351 1.407 . S
C350 H356 0.930 . S
C351 C349 1.332 . S
C351 C350 1.407 . S
C351 H353 0.929 . S
H352 C341 0.930 . S
H353 C351 0.929 . S
H354 C369 0.930 . S
H355 C376 0.951 . S
H356 C350 0.930 . S
H357 C349 0.931 . S
H358 C372 0.930 1_556 S
H359 C339 0.930 . S
H360 C345 0.929 . S
H361 C346 0.930 . S
H362 C367 0.930 . S
H363 C342 0.930 . S
H364 C375 0.931 . S
N365 Tb336 2.617 . S
N365 C366 1.379 . S
N365 C369 1.334 . S
C366 N365 1.379 . S
C366 C368 1.416 . S
C366 C374 1.424 . S
C367 H362 0.930 . S
C367 C369 1.390 . S
C367 C370 1.339 . S
C368 C366 1.416 . S
C368 C370 1.416 . S
C368 C401 1.448 . S
C369 H354 0.930 . S
C369 N365 1.334 . S
C369 C367 1.390 . S
C370 C367 1.339 . S
C370 C368 1.416 . S
C370 H377 0.930 . S
N371 Tb336 2.572 . S
N371 C372 1.340 . S
N371 C374 1.361 . S
C372 H358 0.930 1_554 S
C372 N371 1.340 . S
C372 C376 1.397 1_554 S
C373 C374 1.413 . S
C373 C375 1.416 . S
C373 C402 1.427 . S
C374 C366 1.424 . S
C374 N371 1.361 . S
C374 C373 1.413 . S
C375 H364 0.931 . S
C375 C373 1.416 . S
C375 C376 1.321 1_554 S
C376 H355 0.951 . S
C376 C372 1.397 1_556 S
C376 C375 1.321 1_556 S
H377 C370 0.930 . S
H378 C401 0.930 . S
H379 C402 0.929 . S
O380 Tb336 2.465 . S
O380 C400 1.264 . S
O381 Tb336 2.387 . S
O381 C392 1.264 . S
O382 Tb347 2.349 1_455 S
O382 C392 1.243 . S
O383 Tb336 2.428 . S
O383 C400 1.256 . S
O384 Tb336 2.308 1_556 S
O384 C399 1.266 . S
O385 Tb347 2.393 1_456 S
O385 C399 1.248 . S
O386 Tb347 2.465 . S
O386 C411 1.264 1_554 S
O387 Tb347 2.387 1_465 S
O387 C403 1.264 . S
O388 Tb336 2.361 . S
O388 C403 1.236 1_545 S
O389 Tb347 2.428 1_556 S
O389 C411 1.256 . S
O390 Tb347 2.308 1_455 S
O390 C410 1.266 . S
O391 Tb336 2.393 . S
O391 C410 1.248 . S
C392 O381 1.264 . S
C392 O382 1.243 . S
C393 C396 1.399 . S
C393 C398 1.383 . S
C393 C400 1.496 . S
C394 C395 1.399 . S
C394 C398 1.389 . S
C395 C394 1.399 . S
C395 C397 1.380 . S
C395 H412 0.929 . S
C396 C393 1.399 . S
C396 C397 1.392 . S
C396 H413 0.929 . S
C397 C395 1.380 . S
C397 C396 1.392 . S
C397 H414 0.929 . S
C398 C393 1.383 . S
C398 C394 1.389 . S
C398 H415 0.931 . S
C399 O384 1.266 . S
C399 O385 1.248 . S
C400 Tb336 2.802 . S
C400 O380 1.264 . S
C400 O383 1.256 . S
C400 C393 1.496 . S
C401 C368 1.448 . S
C401 H378 0.930 . S
C401 C402 1.328 . S
C402 C373 1.427 . S
C402 H379 0.929 . S
C402 C401 1.328 . S
C403 O387 1.264 . S
C403 O388 1.236 1_565 S
C404 C407 1.399 . S
C404 C408 1.383 1_556 S
C404 C411 1.496 . S
C405 C406 1.399 1_554 S
C405 C408 1.389 . S
C406 C405 1.399 1_556 S
C406 C409 1.380 . S
C406 H416 0.929 . S
C407 C404 1.399 . S
C407 C409 1.392 . S
C407 H417 0.929 . S
C408 C404 1.383 1_554 S
C408 C405 1.389 . S
C408 H418 0.931 . S
C409 C406 1.380 . S
C409 C407 1.392 . S
C409 H419 0.929 . S
C410 O390 1.266 . S
C410 O391 1.248 . S
C411 Tb347 2.802 1_556 S
C411 O386 1.264 1_556 S
C411 O389 1.256 . S
C411 C404 1.496 . S
H412 C395 0.929 . S
H413 C396 0.929 . S
H414 C397 0.929 . S
H415 C398 0.931 . S
H416 C406 0.929 . S
H417 C407 0.929 . S
H418 C408 0.931 . S
H419 C409 0.929 . S
Tb420 N449 2.617 . S
Tb420 N455 2.572 . S
Tb420 O464 2.465 . S
Tb420 O465 2.387 . S
Tb420 O467 2.428 . S
Tb420 O468 2.308 . S
Tb420 O472 2.349 . S
Tb420 O475 2.393 . S
Tb420 C484 2.802 . S
C421 N422 1.379 . S
C421 C424 1.416 . S
C421 C428 1.424 . S
N422 C421 1.379 . S
N422 C425 1.334 . S
N422 Tb431 2.617 . S
C423 C425 1.390 . S
C423 C426 1.339 . S
C423 H443 0.930 . S
C424 C421 1.416 . S
C424 C426 1.416 . S
C424 C430 1.448 . S
C425 N422 1.334 . S
C425 C423 1.390 . S
C425 H436 0.930 . S
C426 C423 1.339 . S
C426 C424 1.416 . S
C426 H447 0.930 . S
C427 C428 1.413 . S
C427 C429 1.427 . S
C427 C433 1.416 . S
C428 C421 1.424 . S
C428 C427 1.413 . S
C428 N432 1.361 . S
C429 C427 1.427 . S
C429 C430 1.328 . S
C429 H444 0.929 . S
C430 C424 1.448 . S
C430 C429 1.328 . S
C430 H445 0.930 . S
Tb431 N422 2.617 . S
Tb431 N432 2.572 . S
Tb431 O466 2.349 . S
Tb431 O469 2.393 . S
Tb431 O470 2.465 . S
Tb431 O471 2.387 . S
Tb431 O473 2.428 . S
Tb431 O474 2.308 . S
Tb431 C495 2.802 . S
N432 C428 1.361 . S
N432 Tb431 2.572 . S
N432 C434 1.340 . S
C433 C427 1.416 . S
C433 C435 1.332 . S
C433 H441 0.931 . S
C434 N432 1.340 . S
C434 C435 1.407 . S
C434 H440 0.930 . S
C435 C433 1.332 . S
C435 C434 1.407 . S
C435 H437 0.929 . S
H436 C425 0.930 . S
H437 C435 0.929 . S
H438 C453 0.930 . S
H439 C460 0.929 . S
H440 C434 0.930 . S
H441 C433 0.931 . S
H442 C456 0.930 . S
H443 C423 0.930 . S
H444 C429 0.929 . S
H445 C430 0.930 . S
H446 C451 0.930 . S
H447 C426 0.930 . S
H448 C459 0.931 . S
N449 Tb420 2.617 . S
N449 C450 1.379 . S
N449 C453 1.334 . S
C450 N449 1.379 . S
C450 C452 1.416 . S
C450 C458 1.424 . S
C451 H446 0.930 . S
C451 C453 1.390 . S
C451 C454 1.339 . S
C452 C450 1.416 . S
C452 C454 1.416 . S
C452 C485 1.448 . S
C453 H438 0.930 . S
C453 N449 1.334 . S
C453 C451 1.390 . S
C454 C451 1.339 . S
C454 C452 1.416 . S
C454 H461 0.930 . S
N455 Tb420 2.572 . S
N455 C456 1.340 . S
N455 C458 1.361 . S
C456 H442 0.930 . S
C456 N455 1.340 . S
C456 C460 1.407 . S
C457 C458 1.413 . S
C457 C459 1.416 . S
C457 C486 1.427 . S
C458 C450 1.424 . S
C458 N455 1.361 . S
C458 C457 1.413 . S
C459 H448 0.931 . S
C459 C457 1.416 . S
C459 C460 1.332 . S
C460 H439 0.929 . S
C460 C456 1.407 . S
C460 C459 1.332 . S
H461 C454 0.930 . S
H462 C485 0.930 . S
H463 C486 0.929 . S
O464 Tb420 2.465 . S
O464 C484 1.264 . S
O465 Tb420 2.387 . S
O465 C476 1.264 . S
O466 Tb431 2.349 . S
O466 C476 1.243 . S
O467 Tb420 2.428 . S
O467 C484 1.256 . S
O468 Tb420 2.308 . S
O468 C483 1.266 . S
O469 Tb431 2.393 . S
O469 C483 1.248 . S
O470 Tb431 2.465 . S
O470 C495 1.264 . S
O471 Tb431 2.387 . S
O471 C487 1.264 . S
O472 Tb420 2.349 . S
O472 C487 1.243 . S
O473 Tb431 2.428 . S
O473 C495 1.256 . S
O474 Tb431 2.308 . S
O474 C494 1.266 . S
O475 Tb420 2.393 . S
O475 C494 1.248 . S
C476 O465 1.264 . S
C476 O466 1.243 . S
C477 C480 1.399 . S
C477 C482 1.383 . S
C477 C484 1.496 . S
C478 C479 1.399 . S
C478 C482 1.389 . S
C479 C478 1.399 . S
C479 C481 1.380 . S
C479 H496 0.929 . S
C480 C477 1.399 . S
C480 C481 1.392 . S
C480 H497 0.929 . S
C481 C479 1.380 . S
C481 C480 1.392 . S
C481 H498 0.929 . S
C482 C477 1.383 . S
C482 C478 1.389 . S
C482 H499 0.931 . S
C483 O468 1.266 . S
C483 O469 1.248 . S
C484 Tb420 2.802 . S
C484 O464 1.264 . S
C484 O467 1.256 . S
C484 C477 1.496 . S
C485 C452 1.448 . S
C485 H462 0.930 . S
C485 C486 1.328 . S
C486 C457 1.427 . S
C486 H463 0.929 . S
C486 C485 1.328 . S
C487 O471 1.264 . S
C487 O472 1.243 . S
C488 C491 1.399 . S
C488 C492 1.383 . S
C488 C495 1.496 . S
C489 C490 1.399 . S
C489 C492 1.389 . S
C490 C489 1.399 . S
C490 C493 1.380 . S
C490 H500 0.929 . S
C491 C488 1.399 . S
C491 C493 1.392 . S
C491 H501 0.929 . S
C492 C488 1.383 . S
C492 C489 1.389 . S
C492 H502 0.931 . S
C493 C490 1.380 . S
C493 C491 1.392 . S
C493 H503 0.929 . S
C494 O474 1.266 . S
C494 O475 1.248 . S
C495 Tb431 2.802 . S
C495 O470 1.264 . S
C495 O473 1.256 . S
C495 C488 1.496 . S
H496 C479 0.929 . S
H497 C480 0.929 . S
H498 C481 0.929 . S
H499 C482 0.931 . S
H500 C490 0.929 . S
H501 C491 0.929 . S
H502 C492 0.931 . S
H503 C493 0.929 . S
Tb504 N533 2.617 . S
Tb504 N539 2.572 1_545 S
Tb504 O548 2.465 . S
Tb504 O549 2.387 1_545 S
Tb504 O551 2.428 . S
Tb504 O552 2.308 . S
Tb504 O556 2.349 . S
Tb504 O559 2.393 . S
Tb504 C568 2.802 . S
C505 N506 1.379 . S
C505 C508 1.416 . S
C505 C512 1.424 . S
N506 C505 1.379 . S
N506 C509 1.334 . S
N506 Tb515 2.617 . S
C507 C509 1.390 . S
C507 C510 1.339 . S
C507 H527 0.930 . S
C508 C505 1.416 . S
C508 C510 1.416 . S
C508 C514 1.448 . S
C509 N506 1.334 . S
C509 C507 1.390 . S
C509 H520 0.930 . S
C510 C507 1.339 . S
C510 C508 1.416 . S
C510 H531 0.930 . S
C511 C512 1.413 . S
C511 C513 1.427 . S
C511 C517 1.416 . S
C512 C505 1.424 . S
C512 C511 1.413 . S
C512 N516 1.361 . S
C513 C511 1.427 . S
C513 C514 1.328 . S
C513 H528 0.929 . S
C514 C508 1.448 . S
C514 C513 1.328 . S
C514 H529 0.930 . S
Tb515 N506 2.617 . S
Tb515 N516 2.572 . S
Tb515 O550 2.349 1_545 S
Tb515 O553 2.393 . S
Tb515 O554 2.465 . S
Tb515 O555 2.387 . S
Tb515 O557 2.428 . S
Tb515 O558 2.308 . S
Tb515 C579 2.802 . S
N516 C512 1.361 . S
N516 Tb515 2.572 . S
N516 C518 1.340 . S
C517 C511 1.416 . S
C517 C519 1.332 . S
C517 H525 0.931 . S
C518 N516 1.340 . S
C518 C519 1.407 . S
C518 H524 0.930 . S
C519 C517 1.332 . S
C519 C518 1.407 . S
C519 H521 0.929 . S
H520 C509 0.930 . S
H521 C519 0.929 . S
H522 C537 0.930 . S
H523 C544 0.929 . S
H524 C518 0.930 . S
H525 C517 0.931 . S
H526 C540 0.930 . S
H527 C507 0.930 . S
H528 C513 0.929 . S
H529 C514 0.930 . S
H530 C535 0.930 . S
H531 C510 0.930 . S
H532 C543 0.931 . S
N533 Tb504 2.617 . S
N533 C534 1.379 1_545 S
N533 C537 1.334 . S
C534 N533 1.379 1_565 S
C534 C536 1.416 . S
C534 C542 1.424 . S
C535 H530 0.930 . S
C535 C537 1.390 1_565 S
C535 C538 1.339 . S
C536 C534 1.416 . S
C536 C538 1.416 . S
C536 C569 1.448 . S
C537 H522 0.930 . S
C537 N533 1.334 . S
C537 C535 1.390 1_545 S
C538 C535 1.339 . S
C538 C536 1.416 . S
C538 H545 0.930 . S
N539 Tb504 2.572 1_565 S
N539 C540 1.340 . S
N539 C542 1.361 . S
C540 H526 0.930 . S
C540 N539 1.340 . S
C540 C544 1.407 . S
C541 C542 1.413 . S
C541 C543 1.416 . S
C541 C570 1.427 . S
C542 C534 1.424 . S
C542 N539 1.361 . S
C542 C541 1.413 . S
C543 H532 0.931 . S
C543 C541 1.416 . S
C543 C544 1.332 . S
C544 H523 0.929 . S
C544 C540 1.407 . S
C544 C543 1.332 . S
H545 C538 0.930 . S
H546 C569 0.930 . S
H547 C570 0.929 . S
O548 Tb504 2.465 . S
O548 C568 1.264 . S
O549 Tb504 2.387 1_565 S
O549 C560 1.264 . S
O550 Tb515 2.349 1_565 S
O550 C560 1.243 . S
O551 Tb504 2.428 . S
O551 C568 1.256 . S
O552 Tb504 2.308 . S
O552 C567 1.266 . S
O553 Tb515 2.393 . S
O553 C567 1.248 . S
O554 Tb515 2.465 . S
O554 C579 1.264 . S
O555 Tb515 2.387 . S
O555 C571 1.264 . S
O556 Tb504 2.349 . S
O556 C571 1.243 . S
O557 Tb515 2.428 . S
O557 C579 1.256 . S
O558 Tb515 2.308 . S
O558 C578 1.266 . S
O559 Tb504 2.393 . S
O559 C578 1.248 . S
C560 O549 1.264 . S
C560 O550 1.243 . S
C561 C564 1.399 . S
C561 C566 1.383 . S
C561 C568 1.496 . S
C562 C563 1.399 . S
C562 C566 1.389 . S
C563 C562 1.399 . S
C563 C565 1.380 . S
C563 H580 0.929 . S
C564 C561 1.399 . S
C564 C565 1.392 . S
C564 H581 0.929 . S
C565 C563 1.380 . S
C565 C564 1.392 . S
C565 H582 0.929 . S
C566 C561 1.383 . S
C566 C562 1.389 . S
C566 H583 0.931 . S
C567 O552 1.266 . S
C567 O553 1.248 . S
C568 Tb504 2.802 . S
C568 O548 1.264 . S
C568 O551 1.256 . S
C568 C561 1.496 . S
C569 C536 1.448 . S
C569 H546 0.930 . S
C569 C570 1.328 . S
C570 C541 1.427 . S
C570 H547 0.929 . S
C570 C569 1.328 . S
C571 O555 1.264 . S
C571 O556 1.243 . S
C572 C575 1.399 . S
C572 C576 1.383 . S
C572 C579 1.496 1_565 S
C573 C574 1.399 . S
C573 C576 1.389 . S
C574 C573 1.399 . S
C574 C577 1.380 . S
C574 H584 0.929 . S
C575 C572 1.399 . S
C575 C577 1.392 . S
C575 H585 0.929 . S
C576 C572 1.383 . S
C576 C573 1.389 . S
C576 H586 0.931 . S
C577 C574 1.380 . S
C577 C575 1.392 . S
C577 H587 0.929 . S
C578 O558 1.266 . S
C578 O559 1.248 . S
C579 Tb515 2.802 . S
C579 O554 1.264 . S
C579 O557 1.256 . S
C579 C572 1.496 1_545 S
H580 C563 0.929 . S
H581 C564 0.929 . S
H582 C565 0.929 . S
H583 C566 0.931 . S
H584 C574 0.929 . S
H585 C575 0.929 . S
H586 C576 0.931 . S
H587 C577 0.929 . S
Tb588 N617 2.617 . S
Tb588 N623 2.572 . S
Tb588 O632 2.465 . S
Tb588 O633 2.387 . S
Tb588 O635 2.428 . S
Tb588 O636 2.308 . S
Tb588 O640 2.349 . S
Tb588 O643 2.393 . S
Tb588 C652 2.802 . S
C589 N590 1.379 . S
C589 C592 1.416 . S
C589 C596 1.424 . S
N590 C589 1.379 . S
N590 C593 1.334 . S
N590 Tb599 2.617 . S
C591 C593 1.390 . S
C591 C594 1.339 . S
C591 H611 0.930 . S
C592 C589 1.416 . S
C592 C594 1.416 . S
C592 C598 1.448 . S
C593 N590 1.334 . S
C593 C591 1.390 . S
C593 H604 0.930 . S
C594 C591 1.339 . S
C594 C592 1.416 . S
C594 H615 0.930 . S
C595 C596 1.413 . S
C595 C597 1.427 . S
C595 C601 1.416 . S
C596 C589 1.424 . S
C596 C595 1.413 . S
C596 N600 1.361 . S
C597 C595 1.427 . S
C597 C598 1.328 . S
C597 H612 0.929 . S
C598 C592 1.448 . S
C598 C597 1.328 . S
C598 H613 0.930 . S
Tb599 N590 2.617 . S
Tb599 N600 2.572 . S
Tb599 O634 2.349 . S
Tb599 O637 2.393 . S
Tb599 O638 2.465 . S
Tb599 O639 2.387 . S
Tb599 O641 2.428 . S
Tb599 O642 2.308 . S
Tb599 C663 2.802 . S
N600 C596 1.361 . S
N600 Tb599 2.572 . S
N600 C602 1.340 . S
C601 C595 1.416 . S
C601 C603 1.332 . S
C601 H609 0.931 . S
C602 N600 1.340 . S
C602 C603 1.407 . S
C602 H608 0.930 . S
C603 C601 1.332 . S
C603 C602 1.407 . S
C603 H605 0.929 . S
H604 C593 0.930 . S
H605 C603 0.929 . S
H606 C621 0.930 . S
H607 C628 0.929 . S
H608 C602 0.930 . S
H609 C601 0.931 . S
H610 C624 0.930 . S
H611 C591 0.930 . S
H612 C597 0.929 . S
H613 C598 0.930 . S
H614 C619 0.930 . S
H615 C594 0.930 . S
H616 C627 0.931 . S
N617 Tb588 2.617 . S
N617 C618 1.379 . S
N617 C621 1.334 . S
C618 N617 1.379 . S
C618 C620 1.416 . S
C618 C626 1.424 . S
C619 H614 0.930 . S
C619 C621 1.390 . S
C619 C622 1.339 . S
C620 C618 1.416 . S
C620 C622 1.416 . S
C620 C653 1.448 . S
C621 H606 0.930 . S
C621 N617 1.334 . S
C621 C619 1.390 . S
C622 C619 1.339 . S
C622 C620 1.416 . S
C622 H629 0.930 . S
N623 Tb588 2.572 . S
N623 C624 1.340 . S
N623 C626 1.361 . S
C624 H610 0.930 . S
C624 N623 1.340 . S
C624 C628 1.407 . S
C625 C626 1.413 . S
C625 C627 1.416 . S
C625 C654 1.427 . S
C626 C618 1.424 . S
C626 N623 1.361 . S
C626 C625 1.413 . S
C627 H616 0.931 . S
C627 C625 1.416 . S
C627 C628 1.332 . S
C628 H607 0.929 . S
C628 C624 1.407 . S
C628 C627 1.332 . S
H629 C622 0.930 . S
H630 C653 0.930 . S
H631 C654 0.929 . S
O632 Tb588 2.465 . S
O632 C652 1.264 . S
O633 Tb588 2.387 . S
O633 C644 1.264 . S
O634 Tb599 2.349 . S
O634 C644 1.243 . S
O635 Tb588 2.428 . S
O635 C652 1.256 . S
O636 Tb588 2.308 . S
O636 C651 1.266 . S
O637 Tb599 2.393 . S
O637 C651 1.248 . S
O638 Tb599 2.465 . S
O638 C663 1.264 . S
O639 Tb599 2.387 . S
O639 C655 1.264 . S
O640 Tb588 2.349 . S
O640 C655 1.243 . S
O641 Tb599 2.428 . S
O641 C663 1.256 . S
O642 Tb599 2.308 . S
O642 C662 1.266 . S
O643 Tb588 2.393 . S
O643 C662 1.248 . S
C644 O633 1.264 . S
C644 O634 1.243 . S
C645 C648 1.399 . S
C645 C650 1.383 . S
C645 C652 1.496 . S
C646 C647 1.399 . S
C646 C650 1.389 . S
C647 C646 1.399 . S
C647 C649 1.380 . S
C647 H664 0.929 . S
C648 C645 1.399 . S
C648 C649 1.392 . S
C648 H665 0.929 . S
C649 C647 1.380 . S
C649 C648 1.392 . S
C649 H666 0.929 . S
C650 C645 1.383 . S
C650 C646 1.389 . S
C650 H667 0.931 . S
C651 O636 1.266 . S
C651 O637 1.248 . S
C652 Tb588 2.802 . S
C652 O632 1.264 . S
C652 O635 1.256 . S
C652 C645 1.496 . S
C653 C620 1.448 . S
C653 H630 0.930 . S
C653 C654 1.328 . S
C654 C625 1.427 . S
C654 H631 0.929 . S
C654 C653 1.328 . S
C655 O639 1.264 . S
C655 O640 1.243 . S
C656 C659 1.399 . S
C656 C660 1.383 . S
C656 C663 1.496 . S
C657 C658 1.399 . S
C657 C660 1.389 . S
C658 C657 1.399 . S
C658 C661 1.380 . S
C658 H668 0.929 . S
C659 C656 1.399 . S
C659 C661 1.392 . S
C659 H669 0.929 . S
C660 C656 1.383 . S
C660 C657 1.389 . S
C660 H670 0.931 . S
C661 C658 1.380 . S
C661 C659 1.392 . S
C661 H671 0.929 . S
C662 O642 1.266 . S
C662 O643 1.248 . S
C663 Tb599 2.802 . S
C663 O638 1.264 . S
C663 O641 1.256 . S
C663 C656 1.496 . S
H664 C647 0.929 . S
H665 C648 0.929 . S
H666 C649 0.929 . S
H667 C650 0.931 . S
H668 C658 0.929 . S
H669 C659 0.929 . S
H670 C660 0.931 . S
H671 C661 0.929 . S
Tb672 N701 2.617 . S
Tb672 N707 2.572 . S
Tb672 O716 2.465 . S
Tb672 O717 2.387 1_565 S
Tb672 O719 2.428 . S
Tb672 O720 2.273 1_465 S
Tb672 O724 2.349 1_565 S
Tb672 O727 2.393 1_565 S
Tb672 C736 2.802 . S
C673 N674 1.376 1_455 S
C673 C676 1.407 1_455 S
C673 C680 1.436 . S
N674 C673 1.376 1_655 S
N674 C677 1.334 . S
N674 Tb683 2.617 1_655 S
C675 C677 1.390 . S
C675 C678 1.339 . S
C675 H695 0.930 . S
C676 C673 1.407 1_655 S
C676 C678 1.416 . S
C676 C682 1.448 1_655 S
C677 N674 1.334 . S
C677 C675 1.390 . S
C677 H688 0.930 . S
C678 C675 1.339 . S
C678 C676 1.416 . S
C678 H699 0.930 . S
C679 C680 1.413 . S
C679 C681 1.427 . S
C679 C685 1.416 . S
C680 C673 1.436 . S
C680 C679 1.413 . S
C680 N684 1.361 . S
C681 C679 1.427 . S
C681 C682 1.328 . S
C681 H696 0.929 . S
C682 C676 1.448 1_455 S
C682 C681 1.328 . S
C682 H697 0.930 1_455 S
Tb683 N674 2.617 1_455 S
Tb683 N684 2.572 . S
Tb683 O718 2.349 . S
Tb683 O721 2.393 1_455 S
Tb683 O722 2.465 . S
Tb683 O723 2.387 . S
Tb683 O725 2.428 1_455 S
Tb683 O726 2.308 . S
Tb683 C747 2.802 . S
N684 C680 1.361 . S
N684 Tb683 2.572 . S
N684 C686 1.340 . S
C685 C679 1.416 . S
C685 C687 1.332 . S
C685 H693 0.931 . S
C686 N684 1.340 . S
C686 C687 1.407 . S
C686 H692 0.930 . S
C687 C685 1.332 . S
C687 C686 1.407 . S
C687 H689 0.929 . S
H688 C677 0.930 . S
H689 C687 0.929 . S
H690 C705 0.930 1_545 S
H691 C712 0.929 . S
H692 C686 0.930 . S
H693 C685 0.931 . S
H694 C708 0.930 . S
H695 C675 0.930 . S
H696 C681 0.929 . S
H697 C682 0.930 1_655 S
H698 C703 0.930 . S
H699 C678 0.930 . S
H700 C711 0.931 . S
N701 Tb672 2.617 . S
N701 C702 1.379 . S
N701 C705 1.334 . S
C702 N701 1.379 . S
C702 C704 1.416 . S
C702 C710 1.424 . S
C703 H698 0.930 . S
C703 C705 1.390 . S
C703 C706 1.339 . S
C704 C702 1.416 . S
C704 C706 1.416 . S
C704 C737 1.448 . S
C705 H690 0.930 1_565 S
C705 N701 1.334 . S
C705 C703 1.390 . S
C706 C703 1.339 . S
C706 C704 1.416 . S
C706 H713 0.930 . S
N707 Tb672 2.572 . S
N707 C708 1.340 1_455 S
N707 C710 1.361 . S
C708 H694 0.930 . S
C708 N707 1.340 1_655 S
C708 C712 1.407 . S
C709 C710 1.413 . S
C709 C711 1.416 1_455 S
C709 C738 1.427 . S
C710 C702 1.424 . S
C710 N707 1.361 . S
C710 C709 1.413 . S
C711 H700 0.931 . S
C711 C709 1.416 1_655 S
C711 C712 1.332 . S
C712 H691 0.929 . S
C712 C708 1.407 . S
C712 C711 1.332 . S
H713 C706 0.930 . S
H714 C737 0.930 . S
H715 C738 0.929 . S
O716 Tb672 2.465 . S
O716 C736 1.264 . S
O717 Tb672 2.387 1_545 S
O717 C728 1.264 . S
O718 Tb683 2.349 . S
O718 C728 1.243 . S
O719 Tb672 2.428 . S
O719 C736 1.256 . S
O720 Tb672 2.273 1_645 S
O720 C735 1.298 . S
O721 Tb683 2.393 1_655 S
O721 C735 1.248 . S
O722 Tb683 2.465 . S
O722 C747 1.264 . S
O723 Tb683 2.387 . S
O723 C739 1.264 . S
O724 Tb672 2.349 1_545 S
O724 C739 1.243 . S
O725 Tb683 2.428 1_655 S
O725 C747 1.256 1_655 S
O726 Tb683 2.308 . S
O726 C746 1.266 . S
O727 Tb672 2.393 1_545 S
O727 C746 1.248 . S
C728 O717 1.264 . S
C728 O718 1.243 . S
C729 C732 1.399 . S
C729 C734 1.383 . S
C729 C736 1.496 . S
C730 C731 1.399 . S
C730 C734 1.389 . S
C731 C730 1.399 . S
C731 C733 1.380 . S
C731 H748 0.929 . S
C732 C729 1.399 . S
C732 C733 1.392 . S
C732 H749 0.929 . S
C733 C731 1.380 . S
C733 C732 1.392 . S
C733 H750 0.929 . S
C734 C729 1.383 . S
C734 C730 1.389 . S
C734 H751 0.931 . S
C735 O720 1.298 . S
C735 O721 1.248 . S
C736 Tb672 2.802 . S
C736 O716 1.264 . S
C736 O719 1.256 . S
C736 C729 1.496 . S
C737 C704 1.448 . S
C737 H714 0.930 . S
C737 C738 1.328 . S
C738 C709 1.427 . S
C738 H715 0.929 . S
C738 C737 1.328 . S
C739 O723 1.264 . S
C739 O724 1.243 . S
C740 C743 1.399 1_455 S
C740 C744 1.383 . S
C740 C747 1.496 . S
C741 C742 1.399 1_455 S
C741 C744 1.389 . S
C742 C741 1.399 1_655 S
C742 C745 1.380 . S
C742 H752 0.929 . S
C743 C740 1.399 1_655 S
C743 C745 1.392 . S
C743 H753 0.929 . S
C744 C740 1.383 . S
C744 C741 1.389 . S
C744 H754 0.931 . S
C745 C742 1.380 . S
C745 C743 1.392 . S
C745 H755 0.929 . S
C746 O726 1.266 . S
C746 O727 1.248 . S
C747 Tb683 2.802 . S
C747 O722 1.264 . S
C747 O725 1.256 1_455 S
C747 C740 1.496 . S
H748 C731 0.929 . S
H749 C732 0.929 . S
H750 C733 0.929 . S
H751 C734 0.931 . S
H752 C742 0.929 . S
H753 C743 0.929 . S
H754 C744 0.931 . S
H755 C745 0.929 . S
Tb756 N785 2.617 . S
Tb756 N791 2.572 . S
Tb756 O800 2.465 . S
Tb756 O801 2.387 . S
Tb756 O803 2.428 . S
Tb756 O804 2.308 . S
Tb756 O808 2.349 . S
Tb756 O811 2.393 . S
Tb756 C820 2.802 . S
C757 N758 1.379 . S
C757 C760 1.416 . S
C757 C764 1.424 . S
N758 C757 1.379 . S
N758 C761 1.334 . S
N758 Tb767 2.617 . S
C759 C761 1.390 . S
C759 C762 1.339 . S
C759 H779 0.930 . S
C760 C757 1.416 . S
C760 C762 1.416 . S
C760 C766 1.448 . S
C761 N758 1.334 . S
C761 C759 1.390 . S
C761 H772 0.930 . S
C762 C759 1.339 . S
C762 C760 1.416 . S
C762 H783 0.930 . S
C763 C764 1.413 . S
C763 C765 1.427 . S
C763 C769 1.416 . S
C764 C757 1.424 . S
C764 C763 1.413 . S
C764 N768 1.361 . S
C765 C763 1.427 . S
C765 C766 1.328 . S
C765 H780 0.929 . S
C766 C760 1.448 . S
C766 C765 1.328 . S
C766 H781 0.930 . S
Tb767 N758 2.617 . S
Tb767 N768 2.572 . S
Tb767 O802 2.349 . S
Tb767 O805 2.393 . S
Tb767 O806 2.465 . S
Tb767 O807 2.387 . S
Tb767 O809 2.428 . S
Tb767 O810 2.308 . S
Tb767 C831 2.802 . S
N768 C764 1.361 . S
N768 Tb767 2.572 . S
N768 C770 1.340 . S
C769 C763 1.416 . S
C769 C771 1.332 . S
C769 H777 0.931 . S
C770 N768 1.340 . S
C770 C771 1.407 . S
C770 H776 0.930 . S
C771 C769 1.332 . S
C771 C770 1.407 . S
C771 H773 0.929 . S
H772 C761 0.930 . S
H773 C771 0.929 . S
H774 C789 0.930 . S
H775 C796 0.929 . S
H776 C770 0.930 . S
H777 C769 0.931 . S
H778 C792 0.930 . S
H779 C759 0.930 . S
H780 C765 0.929 . S
H781 C766 0.930 . S
H782 C787 0.930 . S
H783 C762 0.930 . S
H784 C795 0.931 . S
N785 Tb756 2.617 . S
N785 C786 1.379 . S
N785 C789 1.334 . S
C786 N785 1.379 . S
C786 C788 1.416 . S
C786 C794 1.424 . S
C787 H782 0.930 . S
C787 C789 1.390 . S
C787 C790 1.339 . S
C788 C786 1.416 . S
C788 C790 1.416 . S
C788 C821 1.448 . S
C789 H774 0.930 . S
C789 N785 1.334 . S
C789 C787 1.390 . S
C790 C787 1.339 . S
C790 C788 1.416 . S
C790 H797 0.930 . S
N791 Tb756 2.572 . S
N791 C792 1.340 . S
N791 C794 1.361 . S
C792 H778 0.930 . S
C792 N791 1.340 . S
C792 C796 1.407 . S
C793 C794 1.413 . S
C793 C795 1.416 . S
C793 C822 1.427 . S
C794 C786 1.424 . S
C794 N791 1.361 . S
C794 C793 1.413 . S
C795 H784 0.931 . S
C795 C793 1.416 . S
C795 C796 1.332 . S
C796 H775 0.929 . S
C796 C792 1.407 . S
C796 C795 1.332 . S
H797 C790 0.930 . S
H798 C821 0.930 . S
H799 C822 0.929 . S
O800 Tb756 2.465 . S
O800 C820 1.264 . S
O801 Tb756 2.387 . S
O801 C812 1.264 . S
O802 Tb767 2.349 . S
O802 C812 1.243 . S
O803 Tb756 2.428 . S
O803 C820 1.256 . S
O804 Tb756 2.308 . S
O804 C819 1.266 . S
O805 Tb767 2.393 . S
O805 C819 1.248 . S
O806 Tb767 2.465 . S
O806 C831 1.264 . S
O807 Tb767 2.387 . S
O807 C823 1.264 . S
O808 Tb756 2.349 . S
O808 C823 1.243 . S
O809 Tb767 2.428 . S
O809 C831 1.256 . S
O810 Tb767 2.308 . S
O810 C830 1.266 . S
O811 Tb756 2.393 . S
O811 C830 1.248 . S
C812 O801 1.264 . S
C812 O802 1.243 . S
C813 C816 1.399 . S
C813 C818 1.383 . S
C813 C820 1.496 . S
C814 C815 1.399 . S
C814 C818 1.389 . S
C815 C814 1.399 . S
C815 C817 1.380 . S
C815 H832 0.929 . S
C816 C813 1.399 . S
C816 C817 1.392 . S
C816 H833 0.929 . S
C817 C815 1.380 . S
C817 C816 1.392 . S
C817 H834 0.929 . S
C818 C813 1.383 . S
C818 C814 1.389 . S
C818 H835 0.931 . S
C819 O804 1.266 . S
C819 O805 1.248 . S
C820 Tb756 2.802 . S
C820 O800 1.264 . S
C820 O803 1.256 . S
C820 C813 1.496 . S
C821 C788 1.448 . S
C821 H798 0.930 . S
C821 C822 1.328 . S
C822 C793 1.427 . S
C822 H799 0.929 . S
C822 C821 1.328 . S
C823 O807 1.264 . S
C823 O808 1.243 . S
C824 C827 1.399 . S
C824 C828 1.383 . S
C824 C831 1.496 . S
C825 C826 1.399 . S
C825 C828 1.389 . S
C826 C825 1.399 . S
C826 C829 1.380 . S
C826 H836 0.929 . S
C827 C824 1.399 . S
C827 C829 1.392 . S
C827 H837 0.929 . S
C828 C824 1.383 . S
C828 C825 1.389 . S
C828 H838 0.931 . S
C829 C826 1.380 . S
C829 C827 1.392 . S
C829 H839 0.929 . S
C830 O810 1.266 . S
C830 O811 1.248 . S
C831 Tb767 2.802 . S
C831 O806 1.264 . S
C831 O809 1.256 . S
C831 C824 1.496 . S
H832 C815 0.929 . S
H833 C816 0.929 . S
H834 C817 0.929 . S
H835 C818 0.931 . S
H836 C826 0.929 . S
H837 C827 0.929 . S
H838 C828 0.931 . S
H839 C829 0.929 . S
Tb840 N869 2.617 . S
Tb840 N875 2.572 . S
Tb840 O884 2.465 . S
Tb840 O885 2.387 1_556 S
Tb840 O887 2.428 . S
Tb840 O888 2.308 . S
Tb840 O892 2.349 1_556 S
Tb840 O895 2.393 1_556 S
Tb840 C904 2.802 . S
C841 N842 1.379 . S
C841 C844 1.416 . S
C841 C848 1.424 1_565 S
N842 C841 1.379 . S
N842 C845 1.334 . S
N842 Tb851 2.617 1_565 S
C843 C845 1.390 . S
C843 C846 1.339 . S
C843 H863 0.930 . S
C844 C841 1.416 . S
C844 C846 1.416 . S
C844 C850 1.448 . S
C845 N842 1.334 . S
C845 C843 1.390 . S
C845 H856 0.930 . S
C846 C843 1.339 . S
C846 C844 1.416 . S
C846 H867 0.930 . S
C847 C848 1.413 . S
C847 C849 1.427 . S
C847 C853 1.416 . S
C848 C841 1.424 1_545 S
C848 C847 1.413 . S
C848 N852 1.361 . S
C849 C847 1.427 . S
C849 C850 1.328 1_545 S
C849 H864 0.929 . S
C850 C844 1.448 . S
C850 C849 1.328 1_565 S
C850 H865 0.930 . S
Tb851 N842 2.617 1_545 S
Tb851 N852 2.572 . S
Tb851 O886 2.349 . S
Tb851 O889 2.393 1_545 S
Tb851 O890 2.465 . S
Tb851 O891 2.387 . S
Tb851 O893 2.428 1_545 S
Tb851 O894 2.308 . S
Tb851 C915 2.802 1_545 S
N852 C848 1.361 . S
N852 Tb851 2.572 . S
N852 C854 1.340 . S
C853 C847 1.416 . S
C853 C855 1.332 . S
C853 H861 0.931 . S
C854 N852 1.340 . S
C854 C855 1.407 . S
C854 H860 0.930 . S
C855 C853 1.332 . S
C855 C854 1.407 . S
C855 H857 0.929 . S
H856 C845 0.930 . S
H857 C855 0.929 . S
H858 C873 0.930 1_554 S
H859 C880 0.929 . S
H860 C854 0.930 . S
H861 C853 0.931 . S
H862 C876 0.930 1_565 S
H863 C843 0.930 . S
H864 C849 0.929 . S
H865 C850 0.930 . S
H866 C871 0.930 . S
H867 C846 0.930 . S
H868 C879 0.931 1_565 S
N869 Tb840 2.617 . S
N869 C870 1.379 . S
N869 C873 1.334 . S
C870 N869 1.379 . S
C870 C872 1.416 . S
C870 C878 1.424 . S
C871 H866 0.930 . S
C871 C873 1.390 . S
C871 C874 1.339 . S
C872 C870 1.416 . S
C872 C874 1.416 . S
C872 C905 1.448 . S
C873 H858 0.930 1_556 S
C873 N869 1.334 . S
C873 C871 1.390 . S
C874 C871 1.339 . S
C874 C872 1.416 . S
C874 H881 0.930 . S
N875 Tb840 2.572 . S
N875 C876 1.340 . S
N875 C878 1.361 . S
C876 H862 0.930 1_545 S
C876 N875 1.340 . S
C876 C880 1.407 1_545 S
C877 C878 1.413 . S
C877 C879 1.416 . S
C877 C906 1.427 . S
C878 C870 1.424 . S
C878 N875 1.361 . S
C878 C877 1.413 . S
C879 H868 0.931 1_545 S
C879 C877 1.416 . S
C879 C880 1.332 1_545 S
C880 H859 0.929 . S
C880 C876 1.407 1_565 S
C880 C879 1.332 1_565 S
H881 C874 0.930 . S
H882 C905 0.930 . S
H883 C906 0.929 . S
O884 Tb840 2.465 . S
O884 C904 1.264 . S
O885 Tb840 2.387 1_554 S
O885 C896 1.264 . S
O886 Tb851 2.349 . S
O886 C896 1.243 . S
O887 Tb840 2.428 . S
O887 C904 1.256 . S
O888 Tb840 2.308 . S
O888 C903 1.249 1_546 S
O889 Tb851 2.393 1_565 S
O889 C903 1.295 . S
O890 Tb851 2.465 . S
O890 C915 1.264 1_545 S
O891 Tb851 2.387 . S
O891 C907 1.264 . S
O892 Tb840 2.349 1_554 S
O892 C907 1.243 . S
O893 Tb851 2.428 1_565 S
O893 C915 1.256 . S
O894 Tb851 2.308 . S
O894 C914 1.266 . S
O895 Tb840 2.393 1_554 S
O895 C914 1.248 . S
C896 O885 1.264 . S
C896 O886 1.243 . S
C897 C900 1.399 . S
C897 C902 1.383 . S
C897 C904 1.496 . S
C898 C899 1.399 . S
C898 C902 1.389 . S
C899 C898 1.399 . S
C899 C901 1.380 . S
C899 H916 0.929 . S
C900 C897 1.399 . S
C900 C901 1.392 . S
C900 H917 0.929 . S
C901 C899 1.380 . S
C901 C900 1.392 . S
C901 H918 0.929 . S
C902 C897 1.383 . S
C902 C898 1.389 . S
C902 H919 0.931 . S
C903 O888 1.249 1_564 S
C903 O889 1.295 . S
C904 Tb840 2.802 . S
C904 O884 1.264 . S
C904 O887 1.256 . S
C904 C897 1.496 . S
C905 C872 1.448 . S
C905 H882 0.930 . S
C905 C906 1.328 . S
C906 C877 1.427 . S
C906 H883 0.929 . S
C906 C905 1.328 . S
C907 O891 1.264 . S
C907 O892 1.243 . S
C908 C911 1.399 . S
C908 C912 1.383 1_565 S
C908 C915 1.496 . S
C909 C910 1.433 . S
C909 C912 1.380 1_565 S
C910 C909 1.433 . S
C910 C913 1.380 . S
C910 H920 0.929 . S
C911 C908 1.399 . S
C911 C913 1.392 . S
C911 H921 0.929 . S
C912 C908 1.383 1_545 S
C912 C909 1.380 1_545 S
C912 H922 0.931 . S
C913 C910 1.380 . S
C913 C911 1.392 . S
C913 H923 0.929 . S
C914 O894 1.266 . S
C914 O895 1.248 . S
C915 Tb851 2.802 1_565 S
C915 O890 1.264 1_565 S
C915 O893 1.256 . S
C915 C908 1.496 . S
H916 C899 0.929 . S
H917 C900 0.929 . S
H918 C901 0.929 . S
H919 C902 0.931 . S
H920 C910 0.929 . S
H921 C911 0.929 . S
H922 C912 0.931 . S
H923 C913 0.929 . S
Tb924 N953 2.617 . S
Tb924 N959 2.572 . S
Tb924 O968 2.465 . S
Tb924 O969 2.387 . S
Tb924 O971 2.428 . S
Tb924 O972 2.308 . S
Tb924 O976 2.349 . S
Tb924 O979 2.393 . S
Tb924 C988 2.802 . S
C925 N926 1.379 . S
C925 C928 1.416 . S
C925 C932 1.424 . S
N926 C925 1.379 . S
N926 C929 1.334 . S
N926 Tb935 2.617 . S
C927 C929 1.390 . S
C927 C930 1.339 . S
C927 H947 0.930 . S
C928 C925 1.416 . S
C928 C930 1.416 . S
C928 C934 1.448 . S
C929 N926 1.334 . S
C929 C927 1.390 . S
C929 H940 0.930 . S
C930 C927 1.339 . S
C930 C928 1.416 . S
C930 H951 0.930 . S
C931 C932 1.413 . S
C931 C933 1.427 . S
C931 C937 1.416 . S
C932 C925 1.424 . S
C932 C931 1.413 . S
C932 N936 1.361 . S
C933 C931 1.427 . S
C933 C934 1.328 . S
C933 H948 0.929 . S
C934 C928 1.448 . S
C934 C933 1.328 . S
C934 H949 0.930 . S
Tb935 N926 2.617 . S
Tb935 N936 2.572 . S
Tb935 O970 2.349 . S
Tb935 O973 2.393 . S
Tb935 O974 2.465 . S
Tb935 O975 2.387 . S
Tb935 O977 2.428 . S
Tb935 O978 2.308 . S
Tb935 C999 2.802 . S
N936 C932 1.361 . S
N936 Tb935 2.572 . S
N936 C938 1.340 . S
C937 C931 1.416 . S
C937 C939 1.332 . S
C937 H945 0.931 . S
C938 N936 1.340 . S
C938 C939 1.407 . S
C938 H944 0.930 . S
C939 C937 1.332 . S
C939 C938 1.407 . S
C939 H941 0.929 . S
H940 C929 0.930 . S
H941 C939 0.929 . S
H942 C957 0.930 . S
H943 C964 0.929 . S
H944 C938 0.930 . S
H945 C937 0.931 . S
H946 C960 0.930 . S
H947 C927 0.930 . S
H948 C933 0.929 . S
H949 C934 0.930 . S
H950 C955 0.930 . S
H951 C930 0.930 . S
H952 C963 0.931 . S
N953 Tb924 2.617 . S
N953 C954 1.379 . S
N953 C957 1.334 . S
C954 N953 1.379 . S
C954 C956 1.416 . S
C954 C962 1.424 . S
C955 H950 0.930 . S
C955 C957 1.390 . S
C955 C958 1.339 . S
C956 C954 1.416 . S
C956 C958 1.416 . S
C956 C989 1.448 . S
C957 H942 0.930 . S
C957 N953 1.334 . S
C957 C955 1.390 . S
C958 C955 1.339 . S
C958 C956 1.416 . S
C958 H965 0.930 . S
N959 Tb924 2.572 . S
N959 C960 1.340 . S
N959 C962 1.361 . S
C960 H946 0.930 . S
C960 N959 1.340 . S
C960 C964 1.407 . S
C961 C962 1.413 . S
C961 C963 1.416 . S
C961 C990 1.427 . S
C962 C954 1.424 . S
C962 N959 1.361 . S
C962 C961 1.413 . S
C963 H952 0.931 . S
C963 C961 1.416 . S
C963 C964 1.332 . S
C964 H943 0.929 . S
C964 C960 1.407 . S
C964 C963 1.332 . S
H965 C958 0.930 . S
H966 C989 0.930 . S
H967 C990 0.929 . S
O968 Tb924 2.465 . S
O968 C988 1.264 . S
O969 Tb924 2.387 . S
O969 C980 1.264 . S
O970 Tb935 2.349 . S
O970 C980 1.243 . S
O971 Tb924 2.428 . S
O971 C988 1.256 . S
O972 Tb924 2.308 . S
O972 C987 1.266 . S
O973 Tb935 2.393 . S
O973 C987 1.248 . S
O974 Tb935 2.465 . S
O974 C999 1.264 . S
O975 Tb935 2.387 . S
O975 C991 1.264 . S
O976 Tb924 2.349 . S
O976 C991 1.243 . S
O977 Tb935 2.428 . S
O977 C999 1.256 . S
O978 Tb935 2.308 . S
O978 C998 1.266 . S
O979 Tb924 2.393 . S
O979 C998 1.248 . S
C980 O969 1.264 . S
C980 O970 1.243 . S
C981 C984 1.399 . S
C981 C986 1.383 . S
C981 C988 1.496 . S
C982 C983 1.399 . S
C982 C986 1.389 . S
C983 C982 1.399 . S
C983 C985 1.380 . S
C983 H1000 0.929 . S
C984 C981 1.399 . S
C984 C985 1.392 . S
C984 H1001 0.929 . S
C985 C983 1.380 . S
C985 C984 1.392 . S
C985 H1002 0.929 . S
C986 C981 1.383 . S
C986 C982 1.389 . S
C986 H1003 0.931 . S
C987 O972 1.266 . S
C987 O973 1.248 . S
C988 Tb924 2.802 . S
C988 O968 1.264 . S
C988 O971 1.256 . S
C988 C981 1.496 . S
C989 C956 1.448 . S
C989 H966 0.930 . S
C989 C990 1.328 . S
C990 C961 1.427 . S
C990 H967 0.929 . S
C990 C989 1.328 . S
C991 O975 1.264 . S
C991 O976 1.243 . S
C992 C995 1.399 . S
C992 C996 1.383 . S
C992 C999 1.496 . S
C993 C994 1.399 . S
C993 C996 1.389 . S
C994 C993 1.399 . S
C994 C997 1.380 . S
C994 H1004 0.929 . S
C995 C992 1.399 . S
C995 C997 1.392 . S
C995 H1005 0.929 . S
C996 C992 1.383 . S
C996 C993 1.389 . S
C996 H1006 0.931 . S
C997 C994 1.380 . S
C997 C995 1.392 . S
C997 H1007 0.929 . S
C998 O978 1.266 . S
C998 O979 1.248 . S
C999 Tb935 2.802 . S
C999 O974 1.264 . S
C999 O977 1.256 . S
C999 C992 1.496 . S
H1000 C983 0.929 . S
H1001 C984 0.929 . S
H1002 C985 0.929 . S
H1003 C986 0.931 . S
H1004 C994 0.929 . S
H1005 C995 0.929 . S
H1006 C996 0.931 . S
H1007 C997 0.929 . S
Tb1008 N1037 2.617 1_554 S
Tb1008 N1043 2.572 1_554 S
Tb1008 O1052 2.465 . S
Tb1008 O1053 2.387 1_554 S
Tb1008 O1055 2.428 . S
Tb1008 O1056 2.308 . S
Tb1008 O1060 2.349 . S
Tb1008 O1063 2.393 . S
Tb1008 C1072 2.802 . S
C1009 N1010 1.379 . S
C1009 C1012 1.416 . S
C1009 C1016 1.424 . S
N1010 C1009 1.379 . S
N1010 C1013 1.334 . S
N1010 Tb1019 2.617 . S
C1011 C1013 1.390 . S
C1011 C1014 1.339 . S
C1011 H1031 0.930 . S
C1012 C1009 1.416 . S
C1012 C1014 1.416 . S
C1012 C1018 1.448 . S
C1013 N1010 1.334 . S
C1013 C1011 1.390 . S
C1013 H1024 0.930 . S
C1014 C1011 1.339 . S
C1014 C1012 1.416 . S
C1014 H1035 0.930 . S
C1015 C1016 1.413 . S
C1015 C1017 1.427 . S
C1015 C1021 1.416 . S
C1016 C1009 1.424 . S
C1016 C1015 1.413 . S
C1016 N1020 1.361 . S
C1017 C1015 1.427 . S
C1017 C1018 1.328 . S
C1017 H1032 0.929 . S
C1018 C1012 1.448 . S
C1018 C1017 1.328 . S
C1018 H1033 0.930 . S
Tb1019 N1010 2.617 . S
Tb1019 N1020 2.572 . S
Tb1019 O1054 2.349 1_554 S
Tb1019 O1057 2.393 . S
Tb1019 O1058 2.465 . S
Tb1019 O1059 2.387 . S
Tb1019 O1061 2.428 . S
Tb1019 O1062 2.308 . S
Tb1019 C1083 2.802 . S
N1020 C1016 1.361 . S
N1020 Tb1019 2.572 . S
N1020 C1022 1.340 . S
C1021 C1015 1.416 . S
C1021 C1023 1.332 . S
C1021 H1029 0.931 . S
C1022 N1020 1.340 . S
C1022 C1023 1.407 . S
C1022 H1028 0.930 . S
C1023 C1021 1.332 . S
C1023 C1022 1.407 . S
C1023 H1025 0.929 . S
H1024 C1013 0.930 . S
H1025 C1023 0.929 . S
H1026 C1041 0.937 . S
H1027 C1048 0.929 . S
H1028 C1022 0.930 . S
H1029 C1021 0.931 . S
H1030 C1044 0.930 . S
H1031 C1011 0.930 . S
H1032 C1017 0.929 . S
H1033 C1018 0.930 . S
H1034 C1039 0.930 . S
H1035 C1014 0.930 . S
H1036 C1047 0.931 . S
N1037 Tb1008 2.617 1_556 S
N1037 C1038 1.379 . S
N1037 C1041 1.334 . S
C1038 N1037 1.379 . S
C1038 C1040 1.416 . S
C1038 C1046 1.424 . S
C1039 H1034 0.930 . S
C1039 C1041 1.390 . S
C1039 C1042 1.339 . S
C1040 C1038 1.416 . S
C1040 C1042 1.416 . S
C1040 C1073 1.448 . S
C1041 H1026 0.937 . S
C1041 N1037 1.334 . S
C1041 C1039 1.390 . S
C1042 C1039 1.339 . S
C1042 C1040 1.416 . S
C1042 H1049 0.930 . S
N1043 Tb1008 2.572 1_556 S
N1043 C1044 1.340 . S
N1043 C1046 1.361 . S
C1044 H1030 0.930 . S
C1044 N1043 1.340 . S
C1044 C1048 1.407 . S
C1045 C1046 1.413 . S
C1045 C1047 1.416 . S
C1045 C1074 1.427 . S
C1046 C1038 1.424 . S
C1046 N1043 1.361 . S
C1046 C1045 1.413 . S
C1047 H1036 0.931 . S
C1047 C1045 1.416 . S
C1047 C1048 1.332 . S
C1048 H1027 0.929 . S
C1048 C1044 1.407 . S
C1048 C1047 1.332 . S
H1049 C1042 0.930 . S
H1050 C1073 0.930 . S
H1051 C1074 0.929 . S
O1052 Tb1008 2.465 . S
O1052 C1072 1.264 . S
O1053 Tb1008 2.387 1_556 S
O1053 C1064 1.264 . S
O1054 Tb1019 2.349 1_556 S
O1054 C1064 1.243 . S
O1055 Tb1008 2.428 . S
O1055 C1072 1.256 . S
O1056 Tb1008 2.308 . S
O1056 C1071 1.266 . S
O1057 Tb1019 2.393 . S
O1057 C1071 1.248 . S
O1058 Tb1019 2.465 . S
O1058 C1083 1.264 . S
O1059 Tb1019 2.387 . S
O1059 C1075 1.264 . S
O1060 Tb1008 2.349 . S
O1060 C1075 1.243 . S
O1061 Tb1019 2.428 . S
O1061 C1083 1.256 . S
O1062 Tb1019 2.308 . S
O1062 C1082 1.266 . S
O1063 Tb1008 2.393 . S
O1063 C1082 1.248 . S
C1064 O1053 1.264 . S
C1064 O1054 1.243 . S
C1065 C1068 1.399 . S
C1065 C1070 1.383 . S
C1065 C1072 1.496 . S
C1066 C1067 1.399 . S
C1066 C1070 1.389 . S
C1067 C1066 1.399 . S
C1067 C1069 1.380 . S
C1067 H1084 0.929 . S
C1068 C1065 1.399 . S
C1068 C1069 1.392 . S
C1068 H1085 0.929 . S
C1069 C1067 1.380 . S
C1069 C1068 1.392 . S
C1069 H1086 0.929 . S
C1070 C1065 1.383 . S
C1070 C1066 1.389 . S
C1070 H1087 0.931 . S
C1071 O1056 1.266 . S
C1071 O1057 1.248 . S
C1072 Tb1008 2.802 . S
C1072 O1052 1.264 . S
C1072 O1055 1.256 . S
C1072 C1065 1.496 . S
C1073 C1040 1.448 . S
C1073 H1050 0.930 . S
C1073 C1074 1.328 . S
C1074 C1045 1.427 . S
C1074 H1051 0.929 . S
C1074 C1073 1.328 . S
C1075 O1059 1.264 . S
C1075 O1060 1.243 . S
C1076 C1079 1.399 . S
C1076 C1080 1.383 . S
C1076 C1083 1.496 1_556 S
C1077 C1078 1.399 . S
C1077 C1080 1.389 . S
C1078 C1077 1.399 . S
C1078 C1081 1.380 . S
C1078 H1088 0.929 . S
C1079 C1076 1.399 . S
C1079 C1081 1.392 . S
C1079 H1089 0.929 . S
C1080 C1076 1.383 . S
C1080 C1077 1.389 . S
C1080 H1090 0.931 . S
C1081 C1078 1.380 . S
C1081 C1079 1.392 . S
C1081 H1091 0.929 . S
C1082 O1062 1.266 . S
C1082 O1063 1.248 . S
C1083 Tb1019 2.802 . S
C1083 O1058 1.264 . S
C1083 O1061 1.256 . S
C1083 C1076 1.496 1_554 S
H1084 C1067 0.929 . S
H1085 C1068 0.929 . S
H1086 C1069 0.929 . S
H1087 C1070 0.931 . S
H1088 C1078 0.929 . S
H1089 C1079 0.929 . S
H1090 C1080 0.931 . S
H1091 C1081 0.929 . S
Tb1092 N1121 2.617 . S
Tb1092 N1127 2.572 . S
Tb1092 O1136 2.465 . S
Tb1092 O1137 2.387 . S
Tb1092 O1139 2.428 . S
Tb1092 O1140 2.308 . S
Tb1092 O1144 2.349 . S
Tb1092 O1147 2.393 . S
Tb1092 C1156 2.802 . S
C1093 N1094 1.379 . S
C1093 C1096 1.416 . S
C1093 C1100 1.424 . S
N1094 C1093 1.379 . S
N1094 C1097 1.334 . S
N1094 Tb1103 2.617 . S
C1095 C1097 1.390 . S
C1095 C1098 1.339 . S
C1095 H1115 0.930 . S
C1096 C1093 1.416 . S
C1096 C1098 1.416 . S
C1096 C1102 1.448 . S
C1097 N1094 1.334 . S
C1097 C1095 1.390 . S
C1097 H1108 0.930 . S
C1098 C1095 1.339 . S
C1098 C1096 1.416 . S
C1098 H1119 0.930 . S
C1099 C1100 1.413 . S
C1099 C1101 1.427 . S
C1099 C1105 1.416 . S
C1100 C1093 1.424 . S
C1100 C1099 1.413 . S
C1100 N1104 1.361 . S
C1101 C1099 1.427 . S
C1101 C1102 1.328 . S
C1101 H1116 0.929 . S
C1102 C1096 1.448 . S
C1102 C1101 1.328 . S
C1102 H1117 0.930 . S
Tb1103 N1094 2.617 . S
Tb1103 N1104 2.572 . S
Tb1103 O1138 2.349 . S
Tb1103 O1141 2.393 . S
Tb1103 O1142 2.465 . S
Tb1103 O1143 2.387 . S
Tb1103 O1145 2.428 . S
Tb1103 O1146 2.308 . S
Tb1103 C1167 2.802 . S
N1104 C1100 1.361 . S
N1104 Tb1103 2.572 . S
N1104 C1106 1.340 . S
C1105 C1099 1.416 . S
C1105 C1107 1.332 . S
C1105 H1113 0.931 . S
C1106 N1104 1.340 . S
C1106 C1107 1.407 . S
C1106 H1112 0.930 . S
C1107 C1105 1.332 . S
C1107 C1106 1.407 . S
C1107 H1109 0.929 . S
H1108 C1097 0.930 . S
H1109 C1107 0.929 . S
H1110 C1125 0.930 . S
H1111 C1132 0.929 . S
H1112 C1106 0.930 . S
H1113 C1105 0.931 . S
H1114 C1128 0.930 . S
H1115 C1095 0.930 . S
H1116 C1101 0.929 . S
H1117 C1102 0.930 . S
H1118 C1123 0.930 . S
H1119 C1098 0.930 . S
H1120 C1131 0.931 . S
N1121 Tb1092 2.617 . S
N1121 C1122 1.379 . S
N1121 C1125 1.334 . S
C1122 N1121 1.379 . S
C1122 C1124 1.416 . S
C1122 C1130 1.424 . S
C1123 H1118 0.930 . S
C1123 C1125 1.390 . S
C1123 C1126 1.339 . S
C1124 C1122 1.416 . S
C1124 C1126 1.416 . S
C1124 C1157 1.448 . S
C1125 H1110 0.930 . S
C1125 N1121 1.334 . S
C1125 C1123 1.390 . S
C1126 C1123 1.339 . S
C1126 C1124 1.416 . S
C1126 H1133 0.930 . S
N1127 Tb1092 2.572 . S
N1127 C1128 1.340 . S
N1127 C1130 1.361 . S
C1128 H1114 0.930 . S
C1128 N1127 1.340 . S
C1128 C1132 1.407 . S
C1129 C1130 1.413 . S
C1129 C1131 1.416 . S
C1129 C1158 1.427 . S
C1130 C1122 1.424 . S
C1130 N1127 1.361 . S
C1130 C1129 1.413 . S
C1131 H1120 0.931 . S
C1131 C1129 1.416 . S
C1131 C1132 1.332 . S
C1132 H1111 0.929 . S
C1132 C1128 1.407 . S
C1132 C1131 1.332 . S
H1133 C1126 0.930 . S
H1134 C1157 0.930 . S
H1135 C1158 0.929 . S
O1136 Tb1092 2.465 . S
O1136 C1156 1.264 . S
O1137 Tb1092 2.387 . S
O1137 C1148 1.264 . S
O1138 Tb1103 2.349 . S
O1138 C1148 1.243 . S
O1139 Tb1092 2.428 . S
O1139 C1156 1.256 . S
O1140 Tb1092 2.308 . S
O1140 C1155 1.266 . S
O1141 Tb1103 2.393 . S
O1141 C1155 1.248 . S
O1142 Tb1103 2.465 . S
O1142 C1167 1.264 . S
O1143 Tb1103 2.387 . S
O1143 C1159 1.264 . S
O1144 Tb1092 2.349 . S
O1144 C1159 1.243 . S
O1145 Tb1103 2.428 . S
O1145 C1167 1.256 . S
O1146 Tb1103 2.308 . S
O1146 C1166 1.266 . S
O1147 Tb1092 2.393 . S
O1147 C1166 1.248 . S
C1148 O1137 1.264 . S
C1148 O1138 1.243 . S
C1149 C1152 1.399 . S
C1149 C1154 1.383 . S
C1149 C1156 1.496 . S
C1150 C1151 1.399 . S
C1150 C1154 1.389 . S
C1151 C1150 1.399 . S
C1151 C1153 1.380 . S
C1151 H1168 0.929 . S
C1152 C1149 1.399 . S
C1152 C1153 1.392 . S
C1152 H1169 0.929 . S
C1153 C1151 1.380 . S
C1153 C1152 1.392 . S
C1153 H1170 0.929 . S
C1154 C1149 1.383 . S
C1154 C1150 1.389 . S
C1154 H1171 0.931 . S
C1155 O1140 1.266 . S
C1155 O1141 1.248 . S
C1156 Tb1092 2.802 . S
C1156 O1136 1.264 . S
C1156 O1139 1.256 . S
C1156 C1149 1.496 . S
C1157 C1124 1.448 . S
C1157 H1134 0.930 . S
C1157 C1158 1.328 . S
C1158 C1129 1.427 . S
C1158 H1135 0.929 . S
C1158 C1157 1.328 . S
C1159 O1143 1.264 . S
C1159 O1144 1.243 . S
C1160 C1163 1.399 . S
C1160 C1164 1.383 . S
C1160 C1167 1.496 . S
C1161 C1162 1.399 . S
C1161 C1164 1.389 . S
C1162 C1161 1.399 . S
C1162 C1165 1.380 . S
C1162 H1172 0.929 . S
C1163 C1160 1.399 . S
C1163 C1165 1.392 . S
C1163 H1173 0.929 . S
C1164 C1160 1.383 . S
C1164 C1161 1.389 . S
C1164 H1174 0.931 . S
C1165 C1162 1.380 . S
C1165 C1163 1.392 . S
C1165 H1175 0.929 . S
C1166 O1146 1.266 . S
C1166 O1147 1.248 . S
C1167 Tb1103 2.802 . S
C1167 O1142 1.264 . S
C1167 O1145 1.256 . S
C1167 C1160 1.496 . S
H1168 C1151 0.929 . S
H1169 C1152 0.929 . S
H1170 C1153 0.929 . S
H1171 C1154 0.931 . S
H1172 C1162 0.929 . S
H1173 C1163 0.929 . S
H1174 C1164 0.931 . S
H1175 C1165 0.929 . S
Tb1176 N1205 2.580 1_455 S
Tb1176 N1211 2.572 1_455 S
Tb1176 O1220 2.465 . S
Tb1176 O1221 2.387 1_455 S
Tb1176 O1223 2.428 . S
Tb1176 O1224 2.308 . S
Tb1176 O1228 2.349 . S
Tb1176 O1231 2.393 . S
Tb1176 C1240 2.802 . S
C1177 N1178 1.379 . S
C1177 C1180 1.416 . S
C1177 C1184 1.424 . S
N1178 C1177 1.379 . S
N1178 C1181 1.334 . S
N1178 Tb1187 2.617 . S
C1179 C1181 1.390 . S
C1179 C1182 1.339 . S
C1179 H1199 0.930 . S
C1180 C1177 1.416 . S
C1180 C1182 1.416 . S
C1180 C1186 1.448 . S
C1181 N1178 1.334 . S
C1181 C1179 1.390 . S
C1181 H1192 0.930 . S
C1182 C1179 1.339 . S
C1182 C1180 1.416 . S
C1182 H1203 0.930 . S
C1183 C1184 1.413 . S
C1183 C1185 1.427 . S
C1183 C1189 1.416 . S
C1184 C1177 1.424 . S
C1184 C1183 1.413 . S
C1184 N1188 1.361 . S
C1185 C1183 1.427 . S
C1185 C1186 1.328 . S
C1185 H1200 0.929 . S
C1186 C1180 1.448 . S
C1186 C1185 1.328 . S
C1186 H1201 0.930 . S
Tb1187 N1178 2.617 . S
Tb1187 N1188 2.572 . S
Tb1187 O1222 2.349 1_455 S
Tb1187 O1225 2.393 . S
Tb1187 O1226 2.465 . S
Tb1187 O1227 2.387 . S
Tb1187 O1229 2.428 . S
Tb1187 O1230 2.308 . S
Tb1187 C1251 2.802 . S
N1188 C1184 1.361 . S
N1188 Tb1187 2.572 . S
N1188 C1190 1.340 . S
C1189 C1183 1.416 . S
C1189 C1191 1.332 . S
C1189 H1197 0.931 . S
C1190 N1188 1.340 . S
C1190 C1191 1.407 . S
C1190 H1196 0.930 . S
C1191 C1189 1.332 . S
C1191 C1190 1.407 . S
C1191 H1193 0.929 . S
H1192 C1181 0.930 . S
H1193 C1191 0.929 . S
H1194 C1209 0.964 . S
H1195 C1216 0.929 . S
H1196 C1190 0.930 . S
H1197 C1189 0.931 . S
H1198 C1212 0.930 1_455 S
H1199 C1179 0.930 . S
H1200 C1185 0.929 . S
H1201 C1186 0.930 . S
H1202 C1207 0.930 . S
H1203 C1182 0.930 . S
H1204 C1215 0.931 . S
N1205 Tb1176 2.580 1_655 S
N1205 C1206 1.413 . S
N1205 C1209 1.357 1_655 S
C1206 N1205 1.413 . S
C1206 C1208 1.416 . S
C1206 C1214 1.424 . S
C1207 H1202 0.930 . S
C1207 C1209 1.349 1_655 S
C1207 C1210 1.339 . S
C1208 C1206 1.416 . S
C1208 C1210 1.416 . S
C1208 C1241 1.448 . S
C1209 H1194 0.964 . S
C1209 N1205 1.357 1_455 S
C1209 C1207 1.349 1_455 S
C1210 C1207 1.339 . S
C1210 C1208 1.416 . S
C1210 H1217 0.930 . S
N1211 Tb1176 2.572 1_655 S
N1211 C1212 1.340 . S
N1211 C1214 1.361 . S
C1212 H1198 0.930 1_655 S
C1212 N1211 1.340 . S
C1212 C1216 1.407 . S
C1213 C1214 1.413 . S
C1213 C1215 1.416 . S
C1213 C1242 1.427 . S
C1214 C1206 1.424 . S
C1214 N1211 1.361 . S
C1214 C1213 1.413 . S
C1215 H1204 0.931 . S
C1215 C1213 1.416 . S
C1215 C1216 1.332 . S
C1216 H1195 0.929 . S
C1216 C1212 1.407 . S
C1216 C1215 1.332 . S
H1217 C1210 0.930 . S
H1218 C1241 0.930 . S
H1219 C1242 0.929 . S
O1220 Tb1176 2.465 . S
O1220 C1240 1.264 . S
O1221 Tb1176 2.387 1_655 S
O1221 C1232 1.264 . S
O1222 Tb1187 2.349 1_655 S
O1222 C1232 1.243 . S
O1223 Tb1176 2.428 . S
O1223 C1240 1.256 . S
O1224 Tb1176 2.308 . S
O1224 C1239 1.266 . S
O1225 Tb1187 2.393 . S
O1225 C1239 1.248 . S
O1226 Tb1187 2.465 . S
O1226 C1251 1.264 . S
O1227 Tb1187 2.387 . S
O1227 C1243 1.264 . S
O1228 Tb1176 2.349 . S
O1228 C1243 1.243 . S
O1229 Tb1187 2.428 . S
O1229 C1251 1.256 . S
O1230 Tb1187 2.308 . S
O1230 C1250 1.266 . S
O1231 Tb1176 2.393 . S
O1231 C1250 1.248 . S
C1232 O1221 1.264 . S
C1232 O1222 1.243 . S
C1233 C1236 1.399 . S
C1233 C1238 1.383 . S
C1233 C1240 1.496 . S
C1234 C1235 1.399 . S
C1234 C1238 1.389 . S
C1235 C1234 1.399 . S
C1235 C1237 1.380 . S
C1235 H1252 0.929 . S
C1236 C1233 1.399 . S
C1236 C1237 1.392 . S
C1236 H1253 0.929 . S
C1237 C1235 1.380 . S
C1237 C1236 1.392 . S
C1237 H1254 0.929 . S
C1238 C1233 1.383 . S
C1238 C1234 1.389 . S
C1238 H1255 0.931 . S
C1239 O1224 1.266 . S
C1239 O1225 1.248 . S
C1240 Tb1176 2.802 . S
C1240 O1220 1.264 . S
C1240 O1223 1.256 . S
C1240 C1233 1.496 . S
C1241 C1208 1.448 . S
C1241 H1218 0.930 . S
C1241 C1242 1.328 . S
C1242 C1213 1.427 . S
C1242 H1219 0.929 . S
C1242 C1241 1.328 . S
C1243 O1227 1.264 . S
C1243 O1228 1.243 . S
C1244 C1247 1.399 . S
C1244 C1248 1.383 . S
C1244 C1251 1.496 1_655 S
C1245 C1246 1.399 . S
C1245 C1248 1.389 . S
C1246 C1245 1.399 . S
C1246 C1249 1.380 . S
C1246 H1256 0.929 . S
C1247 C1244 1.399 . S
C1247 C1249 1.392 . S
C1247 H1257 0.929 . S
C1248 C1244 1.383 . S
C1248 C1245 1.389 . S
C1248 H1258 0.931 . S
C1249 C1246 1.380 . S
C1249 C1247 1.392 . S
C1249 H1259 0.929 . S
C1250 O1230 1.266 . S
C1250 O1231 1.248 . S
C1251 Tb1187 2.802 . S
C1251 O1226 1.264 . S
C1251 O1229 1.256 . S
C1251 C1244 1.496 1_455 S
H1252 C1235 0.929 . S
H1253 C1236 0.929 . S
H1254 C1237 0.929 . S
H1255 C1238 0.931 . S
H1256 C1246 0.929 . S
H1257 C1247 0.929 . S
H1258 C1248 0.931 . S
H1259 C1249 0.929 . S
Tb1260 N1289 2.617 . S
Tb1260 N1295 2.572 . S
Tb1260 O1304 2.465 . S
Tb1260 O1305 2.387 . S
Tb1260 O1307 2.428 . S
Tb1260 O1308 2.308 . S
Tb1260 O1312 2.349 . S
Tb1260 O1315 2.393 . S
Tb1260 C1324 2.802 . S
C1261 N1262 1.379 . S
C1261 C1264 1.416 . S
C1261 C1268 1.424 . S
N1262 C1261 1.379 . S
N1262 C1265 1.334 . S
N1262 Tb1271 2.617 . S
C1263 C1265 1.390 . S
C1263 C1266 1.339 . S
C1263 H1283 0.930 . S
C1264 C1261 1.416 . S
C1264 C1266 1.416 . S
C1264 C1270 1.448 . S
C1265 N1262 1.334 . S
C1265 C1263 1.390 . S
C1265 H1276 0.930 . S
C1266 C1263 1.339 . S
C1266 C1264 1.416 . S
C1266 H1287 0.930 . S
C1267 C1268 1.413 . S
C1267 C1269 1.427 . S
C1267 C1273 1.416 . S
C1268 C1261 1.424 . S
C1268 C1267 1.413 . S
C1268 N1272 1.361 . S
C1269 C1267 1.427 . S
C1269 C1270 1.328 . S
C1269 H1284 0.929 . S
C1270 C1264 1.448 . S
C1270 C1269 1.328 . S
C1270 H1285 0.930 . S
Tb1271 N1262 2.617 . S
Tb1271 N1272 2.572 . S
Tb1271 O1306 2.349 . S
Tb1271 O1309 2.393 . S
Tb1271 O1310 2.465 . S
Tb1271 O1311 2.387 . S
Tb1271 O1313 2.428 . S
Tb1271 O1314 2.308 . S
Tb1271 C1335 2.802 . S
N1272 C1268 1.361 . S
N1272 Tb1271 2.572 . S
N1272 C1274 1.340 . S
C1273 C1267 1.416 . S
C1273 C1275 1.332 . S
C1273 H1281 0.931 . S
C1274 N1272 1.340 . S
C1274 C1275 1.407 . S
C1274 H1280 0.930 . S
C1275 C1273 1.332 . S
C1275 C1274 1.407 . S
C1275 H1277 0.929 . S
H1276 C1265 0.930 . S
H1277 C1275 0.929 . S
H1278 C1293 0.930 . S
H1279 C1300 0.929 . S
H1280 C1274 0.930 . S
H1281 C1273 0.931 . S
H1282 C1296 0.930 . S
H1283 C1263 0.930 . S
H1284 C1269 0.929 . S
H1285 C1270 0.930 . S
H1286 C1291 0.930 . S
H1287 C1266 0.930 . S
H1288 C1299 0.931 . S
N1289 Tb1260 2.617 . S
N1289 C1290 1.379 . S
N1289 C1293 1.334 . S
C1290 N1289 1.379 . S
C1290 C1292 1.416 . S
C1290 C1298 1.424 . S
C1291 H1286 0.930 . S
C1291 C1293 1.390 . S
C1291 C1294 1.339 . S
C1292 C1290 1.416 . S
C1292 C1294 1.416 . S
C1292 C1325 1.448 . S
C1293 H1278 0.930 . S
C1293 N1289 1.334 . S
C1293 C1291 1.390 . S
C1294 C1291 1.339 . S
C1294 C1292 1.416 . S
C1294 H1301 0.930 . S
N1295 Tb1260 2.572 . S
N1295 C1296 1.340 . S
N1295 C1298 1.361 . S
C1296 H1282 0.930 . S
C1296 N1295 1.340 . S
C1296 C1300 1.407 . S
C1297 C1298 1.413 . S
C1297 C1299 1.416 . S
C1297 C1326 1.427 . S
C1298 C1290 1.424 . S
C1298 N1295 1.361 . S
C1298 C1297 1.413 . S
C1299 H1288 0.931 . S
C1299 C1297 1.416 . S
C1299 C1300 1.332 . S
C1300 H1279 0.929 . S
C1300 C1296 1.407 . S
C1300 C1299 1.332 . S
H1301 C1294 0.930 . S
H1302 C1325 0.930 . S
H1303 C1326 0.929 . S
O1304 Tb1260 2.465 . S
O1304 C1324 1.264 . S
O1305 Tb1260 2.387 . S
O1305 C1316 1.264 . S
O1306 Tb1271 2.349 . S
O1306 C1316 1.243 . S
O1307 Tb1260 2.428 . S
O1307 C1324 1.256 . S
O1308 Tb1260 2.308 . S
O1308 C1323 1.266 . S
O1309 Tb1271 2.393 . S
O1309 C1323 1.248 . S
O1310 Tb1271 2.465 . S
O1310 C1335 1.264 . S
O1311 Tb1271 2.387 . S
O1311 C1327 1.264 . S
O1312 Tb1260 2.349 . S
O1312 C1327 1.243 . S
O1313 Tb1271 2.428 . S
O1313 C1335 1.256 . S
O1314 Tb1271 2.308 . S
O1314 C1334 1.266 . S
O1315 Tb1260 2.393 . S
O1315 C1334 1.248 . S
C1316 O1305 1.264 . S
C1316 O1306 1.243 . S
C1317 C1320 1.399 . S
C1317 C1322 1.383 . S
C1317 C1324 1.496 . S
C1318 C1319 1.399 . S
C1318 C1322 1.389 . S
C1319 C1318 1.399 . S
C1319 C1321 1.380 . S
C1319 H1336 0.929 . S
C1320 C1317 1.399 . S
C1320 C1321 1.392 . S
C1320 H1337 0.929 . S
C1321 C1319 1.380 . S
C1321 C1320 1.392 . S
C1321 H1338 0.929 . S
C1322 C1317 1.383 . S
C1322 C1318 1.389 . S
C1322 H1339 0.931 . S
C1323 O1308 1.266 . S
C1323 O1309 1.248 . S
C1324 Tb1260 2.802 . S
C1324 O1304 1.264 . S
C1324 O1307 1.256 . S
C1324 C1317 1.496 . S
C1325 C1292 1.448 . S
C1325 H1302 0.930 . S
C1325 C1326 1.328 . S
C1326 C1297 1.427 . S
C1326 H1303 0.929 . S
C1326 C1325 1.328 . S
C1327 O1311 1.264 . S
C1327 O1312 1.243 . S
C1328 C1331 1.399 . S
C1328 C1332 1.383 . S
C1328 C1335 1.496 . S
C1329 C1330 1.399 . S
C1329 C1332 1.389 . S
C1330 C1329 1.399 . S
C1330 C1333 1.380 . S
C1330 H1340 0.929 . S
C1331 C1328 1.399 . S
C1331 C1333 1.392 . S
C1331 H1341 0.929 . S
C1332 C1328 1.383 . S
C1332 C1329 1.389 . S
C1332 H1342 0.931 . S
C1333 C1330 1.380 . S
C1333 C1331 1.392 . S
C1333 H1343 0.929 . S
C1334 O1314 1.266 . S
C1334 O1315 1.248 . S
C1335 Tb1271 2.802 . S
C1335 O1310 1.264 . S
C1335 O1313 1.256 . S
C1335 C1328 1.496 . S
H1336 C1319 0.929 . S
H1337 C1320 0.929 . S
H1338 C1321 0.929 . S
H1339 C1322 0.931 . S
H1340 C1330 0.929 . S
H1341 C1331 0.929 . S
H1342 C1332 0.931 . S
H1343 C1333 0.929 . S
Tb1344 N1373 2.617 . S
Tb1344 N1379 2.572 . S
Tb1344 O1388 2.465 . S
Tb1344 O1389 2.387 . S
Tb1344 O1391 2.428 . S
Tb1344 O1392 2.308 . S
Tb1344 O1396 2.349 . S
Tb1344 O1399 2.393 . S
Tb1344 C1408 2.802 . S
C1345 N1346 1.379 . S
C1345 C1348 1.416 . S
C1345 C1352 1.424 . S
N1346 C1345 1.379 . S
N1346 C1349 1.334 . S
N1346 Tb1355 2.617 . S
C1347 C1349 1.390 . S
C1347 C1350 1.339 . S
C1347 H1367 0.930 . S
C1348 C1345 1.416 . S
C1348 C1350 1.416 . S
C1348 C1354 1.448 . S
C1349 N1346 1.334 . S
C1349 C1347 1.390 . S
C1349 H1360 0.930 . S
C1350 C1347 1.339 . S
C1350 C1348 1.416 . S
C1350 H1371 0.930 . S
C1351 C1352 1.413 . S
C1351 C1353 1.427 . S
C1351 C1357 1.416 . S
C1352 C1345 1.424 . S
C1352 C1351 1.413 . S
C1352 N1356 1.361 . S
C1353 C1351 1.427 . S
C1353 C1354 1.328 . S
C1353 H1368 0.929 . S
C1354 C1348 1.448 . S
C1354 C1353 1.328 . S
C1354 H1369 0.930 . S
Tb1355 N1346 2.617 . S
Tb1355 N1356 2.572 . S
Tb1355 O1390 2.349 . S
Tb1355 O1393 2.393 . S
Tb1355 O1394 2.465 . S
Tb1355 O1395 2.387 . S
Tb1355 O1397 2.428 . S
Tb1355 O1398 2.308 . S
Tb1355 C1419 2.802 . S
N1356 C1352 1.361 . S
N1356 Tb1355 2.572 . S
N1356 C1358 1.340 . S
C1357 C1351 1.416 . S
C1357 C1359 1.332 . S
C1357 H1365 0.931 . S
C1358 N1356 1.340 . S
C1358 C1359 1.407 . S
C1358 H1364 0.930 . S
C1359 C1357 1.332 . S
C1359 C1358 1.407 . S
C1359 H1361 0.929 . S
H1360 C1349 0.930 . S
H1361 C1359 0.929 . S
H1362 C1377 0.930 . S
H1363 C1384 0.929 . S
H1364 C1358 0.930 . S
H1365 C1357 0.931 . S
H1366 C1380 0.930 . S
H1367 C1347 0.930 . S
H1368 C1353 0.929 . S
H1369 C1354 0.930 . S
H1370 C1375 0.930 . S
H1371 C1350 0.930 . S
H1372 C1383 0.931 . S
N1373 Tb1344 2.617 . S
N1373 C1374 1.379 . S
N1373 C1377 1.334 . S
C1374 N1373 1.379 . S
C1374 C1376 1.416 . S
C1374 C1382 1.424 . S
C1375 H1370 0.930 . S
C1375 C1377 1.390 . S
C1375 C1378 1.339 . S
C1376 C1374 1.416 . S
C1376 C1378 1.416 . S
C1376 C1409 1.448 . S
C1377 H1362 0.930 . S
C1377 N1373 1.334 . S
C1377 C1375 1.390 . S
C1378 C1375 1.339 . S
C1378 C1376 1.416 . S
C1378 H1385 0.930 . S
N1379 Tb1344 2.572 . S
N1379 C1380 1.340 . S
N1379 C1382 1.361 . S
C1380 H1366 0.930 . S
C1380 N1379 1.340 . S
C1380 C1384 1.407 . S
C1381 C1382 1.413 . S
C1381 C1383 1.416 . S
C1381 C1410 1.427 . S
C1382 C1374 1.424 . S
C1382 N1379 1.361 . S
C1382 C1381 1.413 . S
C1383 H1372 0.931 . S
C1383 C1381 1.416 . S
C1383 C1384 1.332 . S
C1384 H1363 0.929 . S
C1384 C1380 1.407 . S
C1384 C1383 1.332 . S
H1385 C1378 0.930 . S
H1386 C1409 0.930 . S
H1387 C1410 0.929 . S
O1388 Tb1344 2.465 . S
O1388 C1408 1.264 . S
O1389 Tb1344 2.387 . S
O1389 C1400 1.264 . S
O1390 Tb1355 2.349 . S
O1390 C1400 1.243 . S
O1391 Tb1344 2.428 . S
O1391 C1408 1.256 . S
O1392 Tb1344 2.308 . S
O1392 C1407 1.266 . S
O1393 Tb1355 2.393 . S
O1393 C1407 1.248 . S
O1394 Tb1355 2.465 . S
O1394 C1419 1.264 . S
O1395 Tb1355 2.387 . S
O1395 C1411 1.264 . S
O1396 Tb1344 2.349 . S
O1396 C1411 1.243 . S
O1397 Tb1355 2.428 . S
O1397 C1419 1.256 . S
O1398 Tb1355 2.308 . S
O1398 C1418 1.266 . S
O1399 Tb1344 2.393 . S
O1399 C1418 1.248 . S
C1400 O1389 1.264 . S
C1400 O1390 1.243 . S
C1401 C1404 1.399 . S
C1401 C1406 1.383 . S
C1401 C1408 1.496 . S
C1402 C1403 1.399 . S
C1402 C1406 1.389 . S
C1403 C1402 1.399 . S
C1403 C1405 1.380 . S
C1403 H1420 0.929 . S
C1404 C1401 1.399 . S
C1404 C1405 1.392 . S
C1404 H1421 0.929 . S
C1405 C1403 1.380 . S
C1405 C1404 1.392 . S
C1405 H1422 0.929 . S
C1406 C1401 1.383 . S
C1406 C1402 1.389 . S
C1406 H1423 0.931 . S
C1407 O1392 1.266 . S
C1407 O1393 1.248 . S
C1408 Tb1344 2.802 . S
C1408 O1388 1.264 . S
C1408 O1391 1.256 . S
C1408 C1401 1.496 . S
C1409 C1376 1.448 . S
C1409 H1386 0.930 . S
C1409 C1410 1.328 . S
C1410 C1381 1.427 . S
C1410 H1387 0.929 . S
C1410 C1409 1.328 . S
C1411 O1395 1.264 . S
C1411 O1396 1.243 . S
C1412 C1415 1.399 . S
C1412 C1416 1.383 . S
C1412 C1419 1.496 . S
C1413 C1414 1.399 . S
C1413 C1416 1.389 . S
C1414 C1413 1.399 . S
C1414 C1417 1.380 . S
C1414 H1424 0.929 . S
C1415 C1412 1.399 . S
C1415 C1417 1.392 . S
C1415 H1425 0.929 . S
C1416 C1412 1.383 . S
C1416 C1413 1.389 . S
C1416 H1426 0.931 . S
C1417 C1414 1.380 . S
C1417 C1415 1.392 . S
C1417 H1427 0.929 . S
C1418 O1398 1.266 . S
C1418 O1399 1.248 . S
C1419 Tb1355 2.802 . S
C1419 O1394 1.264 . S
C1419 O1397 1.256 . S
C1419 C1412 1.496 . S
H1420 C1403 0.929 . S
H1421 C1404 0.929 . S
H1422 C1405 0.929 . S
H1423 C1406 0.931 . S
H1424 C1414 0.929 . S
H1425 C1415 0.929 . S
H1426 C1416 0.931 . S
H1427 C1417 0.929 . S
Tb1428 N1457 2.617 . S
Tb1428 N1463 2.572 . S
Tb1428 O1472 2.465 . S
Tb1428 O1473 2.387 . S
Tb1428 O1475 2.428 . S
Tb1428 O1476 2.308 . S
Tb1428 O1480 2.349 . S
Tb1428 O1483 2.393 . S
Tb1428 C1492 2.802 . S
C1429 N1430 1.379 . S
C1429 C1432 1.416 . S
C1429 C1436 1.424 . S
N1430 C1429 1.379 . S
N1430 C1433 1.334 . S
N1430 Tb1439 2.617 . S
C1431 C1433 1.390 . S
C1431 C1434 1.339 . S
C1431 H1451 0.930 . S
C1432 C1429 1.416 . S
C1432 C1434 1.416 . S
C1432 C1438 1.448 . S
C1433 N1430 1.334 . S
C1433 C1431 1.390 . S
C1433 H1444 0.930 . S
C1434 C1431 1.339 . S
C1434 C1432 1.416 . S
C1434 H1455 0.930 . S
C1435 C1436 1.413 . S
C1435 C1437 1.427 . S
C1435 C1441 1.416 . S
C1436 C1429 1.424 . S
C1436 C1435 1.413 . S
C1436 N1440 1.361 . S
C1437 C1435 1.427 . S
C1437 C1438 1.328 . S
C1437 H1452 0.929 . S
C1438 C1432 1.448 . S
C1438 C1437 1.328 . S
C1438 H1453 0.930 . S
Tb1439 N1430 2.617 . S
Tb1439 N1440 2.572 . S
Tb1439 O1474 2.349 . S
Tb1439 O1477 2.393 . S
Tb1439 O1478 2.465 . S
Tb1439 O1479 2.387 . S
Tb1439 O1481 2.428 . S
Tb1439 O1482 2.308 . S
Tb1439 C1503 2.802 . S
N1440 C1436 1.361 . S
N1440 Tb1439 2.572 . S
N1440 C1442 1.340 . S
C1441 C1435 1.416 . S
C1441 C1443 1.332 . S
C1441 H1449 0.931 . S
C1442 N1440 1.340 . S
C1442 C1443 1.407 . S
C1442 H1448 0.930 . S
C1443 C1441 1.332 . S
C1443 C1442 1.407 . S
C1443 H1445 0.929 . S
H1444 C1433 0.930 . S
H1445 C1443 0.929 . S
H1446 C1461 0.930 . S
H1447 C1468 0.929 . S
H1448 C1442 0.930 . S
H1449 C1441 0.931 . S
H1450 C1464 0.930 . S
H1451 C1431 0.930 . S
H1452 C1437 0.929 . S
H1453 C1438 0.930 . S
H1454 C1459 0.930 . S
H1455 C1434 0.930 . S
H1456 C1467 0.931 . S
N1457 Tb1428 2.617 . S
N1457 C1458 1.379 . S
N1457 C1461 1.334 . S
C1458 N1457 1.379 . S
C1458 C1460 1.416 . S
C1458 C1466 1.424 . S
C1459 H1454 0.930 . S
C1459 C1461 1.390 . S
C1459 C1462 1.339 . S
C1460 C1458 1.416 . S
C1460 C1462 1.416 . S
C1460 C1493 1.448 . S
C1461 H1446 0.930 . S
C1461 N1457 1.334 . S
C1461 C1459 1.390 . S
C1462 C1459 1.339 . S
C1462 C1460 1.416 . S
C1462 H1469 0.930 . S
N1463 Tb1428 2.572 . S
N1463 C1464 1.340 . S
N1463 C1466 1.361 . S
C1464 H1450 0.930 . S
C1464 N1463 1.340 . S
C1464 C1468 1.407 . S
C1465 C1466 1.413 . S
C1465 C1467 1.416 . S
C1465 C1494 1.427 . S
C1466 C1458 1.424 . S
C1466 N1463 1.361 . S
C1466 C1465 1.413 . S
C1467 H1456 0.931 . S
C1467 C1465 1.416 . S
C1467 C1468 1.332 . S
C1468 H1447 0.929 . S
C1468 C1464 1.407 . S
C1468 C1467 1.332 . S
H1469 C1462 0.930 . S
H1470 C1493 0.930 . S
H1471 C1494 0.929 . S
O1472 Tb1428 2.465 . S
O1472 C1492 1.264 . S
O1473 Tb1428 2.387 . S
O1473 C1484 1.264 . S
O1474 Tb1439 2.349 . S
O1474 C1484 1.243 . S
O1475 Tb1428 2.428 . S
O1475 C1492 1.256 . S
O1476 Tb1428 2.308 . S
O1476 C1491 1.266 . S
O1477 Tb1439 2.393 . S
O1477 C1491 1.248 . S
O1478 Tb1439 2.465 . S
O1478 C1503 1.264 . S
O1479 Tb1439 2.387 . S
O1479 C1495 1.264 . S
O1480 Tb1428 2.349 . S
O1480 C1495 1.243 . S
O1481 Tb1439 2.428 . S
O1481 C1503 1.256 . S
O1482 Tb1439 2.308 . S
O1482 C1502 1.266 . S
O1483 Tb1428 2.393 . S
O1483 C1502 1.248 . S
C1484 O1473 1.264 . S
C1484 O1474 1.243 . S
C1485 C1488 1.399 . S
C1485 C1490 1.383 . S
C1485 C1492 1.496 . S
C1486 C1487 1.399 . S
C1486 C1490 1.389 . S
C1487 C1486 1.399 . S
C1487 C1489 1.380 . S
C1487 H1504 0.929 . S
C1488 C1485 1.399 . S
C1488 C1489 1.392 . S
C1488 H1505 0.929 . S
C1489 C1487 1.380 . S
C1489 C1488 1.392 . S
C1489 H1506 0.929 . S
C1490 C1485 1.383 . S
C1490 C1486 1.389 . S
C1490 H1507 0.931 . S
C1491 O1476 1.266 . S
C1491 O1477 1.248 . S
C1492 Tb1428 2.802 . S
C1492 O1472 1.264 . S
C1492 O1475 1.256 . S
C1492 C1485 1.496 . S
C1493 C1460 1.448 . S
C1493 H1470 0.930 . S
C1493 C1494 1.328 . S
C1494 C1465 1.427 . S
C1494 H1471 0.929 . S
C1494 C1493 1.328 . S
C1495 O1479 1.264 . S
C1495 O1480 1.243 . S
C1496 C1499 1.399 . S
C1496 C1500 1.383 . S
C1496 C1503 1.496 . S
C1497 C1498 1.399 . S
C1497 C1500 1.389 . S
C1498 C1497 1.399 . S
C1498 C1501 1.380 . S
C1498 H1508 0.929 . S
C1499 C1496 1.399 . S
C1499 C1501 1.392 . S
C1499 H1509 0.929 . S
C1500 C1496 1.383 . S
C1500 C1497 1.389 . S
C1500 H1510 0.931 . S
C1501 C1498 1.380 . S
C1501 C1499 1.392 . S
C1501 H1511 0.929 . S
C1502 O1482 1.266 . S
C1502 O1483 1.248 . S
C1503 Tb1439 2.802 . S
C1503 O1478 1.264 . S
C1503 O1481 1.256 . S
C1503 C1496 1.496 . S
H1504 C1487 0.929 . S
H1505 C1488 0.929 . S
H1506 C1489 0.929 . S
H1507 C1490 0.931 . S
H1508 C1498 0.929 . S
H1509 C1499 0.929 . S
H1510 C1500 0.931 . S
H1511 C1501 0.929 . S
Tb1512 N1541 2.617 . S
Tb1512 N1547 2.572 . S
Tb1512 O1556 2.465 . S
Tb1512 O1557 2.387 . S
Tb1512 O1559 2.428 . S
Tb1512 O1560 2.308 . S
Tb1512 O1564 2.349 . S
Tb1512 O1567 2.393 . S
Tb1512 C1576 2.802 . S
C1513 N1514 1.379 . S
C1513 C1516 1.416 . S
C1513 C1520 1.424 . S
N1514 C1513 1.379 . S
N1514 C1517 1.334 . S
N1514 Tb1523 2.617 . S
C1515 C1517 1.390 . S
C1515 C1518 1.339 . S
C1515 H1535 0.930 . S
C1516 C1513 1.416 . S
C1516 C1518 1.416 . S
C1516 C1522 1.448 . S
C1517 N1514 1.334 . S
C1517 C1515 1.390 . S
C1517 H1528 0.930 . S
C1518 C1515 1.339 . S
C1518 C1516 1.416 . S
C1518 H1539 0.930 . S
C1519 C1520 1.413 . S
C1519 C1521 1.427 . S
C1519 C1525 1.416 . S
C1520 C1513 1.424 . S
C1520 C1519 1.413 . S
C1520 N1524 1.361 . S
C1521 C1519 1.427 . S
C1521 C1522 1.328 . S
C1521 H1536 0.929 . S
C1522 C1516 1.448 . S
C1522 C1521 1.328 . S
C1522 H1537 0.930 . S
Tb1523 N1514 2.617 . S
Tb1523 N1524 2.572 . S
Tb1523 O1558 2.349 . S
Tb1523 O1561 2.393 . S
Tb1523 O1562 2.465 . S
Tb1523 O1563 2.387 . S
Tb1523 O1565 2.428 . S
Tb1523 O1566 2.308 . S
Tb1523 C1587 2.802 . S
N1524 C1520 1.361 . S
N1524 Tb1523 2.572 . S
N1524 C1526 1.340 . S
C1525 C1519 1.416 . S
C1525 C1527 1.332 . S
C1525 H1533 0.931 . S
C1526 N1524 1.340 . S
C1526 C1527 1.407 . S
C1526 H1532 0.930 . S
C1527 C1525 1.332 . S
C1527 C1526 1.407 . S
C1527 H1529 0.929 . S
H1528 C1517 0.930 . S
H1529 C1527 0.929 . S
H1530 C1545 0.930 . S
H1531 C1552 0.929 . S
H1532 C1526 0.930 . S
H1533 C1525 0.931 . S
H1534 C1548 0.930 . S
H1535 C1515 0.930 . S
H1536 C1521 0.929 . S
H1537 C1522 0.930 . S
H1538 C1543 0.930 . S
H1539 C1518 0.930 . S
H1540 C1551 0.931 . S
N1541 Tb1512 2.617 . S
N1541 C1542 1.379 . S
N1541 C1545 1.334 . S
C1542 N1541 1.379 . S
C1542 C1544 1.416 . S
C1542 C1550 1.424 . S
C1543 H1538 0.930 . S
C1543 C1545 1.390 . S
C1543 C1546 1.339 . S
C1544 C1542 1.416 . S
C1544 C1546 1.416 . S
C1544 C1577 1.448 . S
C1545 H1530 0.930 . S
C1545 N1541 1.334 . S
C1545 C1543 1.390 . S
C1546 C1543 1.339 . S
C1546 C1544 1.416 . S
C1546 H1553 0.930 . S
N1547 Tb1512 2.572 . S
N1547 C1548 1.340 . S
N1547 C1550 1.361 . S
C1548 H1534 0.930 . S
C1548 N1547 1.340 . S
C1548 C1552 1.407 . S
C1549 C1550 1.413 . S
C1549 C1551 1.416 . S
C1549 C1578 1.427 . S
C1550 C1542 1.424 . S
C1550 N1547 1.361 . S
C1550 C1549 1.413 . S
C1551 H1540 0.931 . S
C1551 C1549 1.416 . S
C1551 C1552 1.332 . S
C1552 H1531 0.929 . S
C1552 C1548 1.407 . S
C1552 C1551 1.332 . S
H1553 C1546 0.930 . S
H1554 C1577 0.930 . S
H1555 C1578 0.929 . S
O1556 Tb1512 2.465 . S
O1556 C1576 1.264 . S
O1557 Tb1512 2.387 . S
O1557 C1568 1.264 . S
O1558 Tb1523 2.349 . S
O1558 C1568 1.243 . S
O1559 Tb1512 2.428 . S
O1559 C1576 1.256 . S
O1560 Tb1512 2.308 . S
O1560 C1575 1.266 . S
O1561 Tb1523 2.393 . S
O1561 C1575 1.248 . S
O1562 Tb1523 2.465 . S
O1562 C1587 1.264 . S
O1563 Tb1523 2.387 . S
O1563 C1579 1.264 . S
O1564 Tb1512 2.349 . S
O1564 C1579 1.243 . S
O1565 Tb1523 2.428 . S
O1565 C1587 1.256 . S
O1566 Tb1523 2.308 . S
O1566 C1586 1.266 . S
O1567 Tb1512 2.393 . S
O1567 C1586 1.248 . S
C1568 O1557 1.264 . S
C1568 O1558 1.243 . S
C1569 C1572 1.399 . S
C1569 C1574 1.383 . S
C1569 C1576 1.496 . S
C1570 C1571 1.399 . S
C1570 C1574 1.389 . S
C1571 C1570 1.399 . S
C1571 C1573 1.380 . S
C1571 H1588 0.929 . S
C1572 C1569 1.399 . S
C1572 C1573 1.392 . S
C1572 H1589 0.929 . S
C1573 C1571 1.380 . S
C1573 C1572 1.392 . S
C1573 H1590 0.929 . S
C1574 C1569 1.383 . S
C1574 C1570 1.389 . S
C1574 H1591 0.931 . S
C1575 O1560 1.266 . S
C1575 O1561 1.248 . S
C1576 Tb1512 2.802 . S
C1576 O1556 1.264 . S
C1576 O1559 1.256 . S
C1576 C1569 1.496 . S
C1577 C1544 1.448 . S
C1577 H1554 0.930 . S
C1577 C1578 1.328 . S
C1578 C1549 1.427 . S
C1578 H1555 0.929 . S
C1578 C1577 1.328 . S
C1579 O1563 1.264 . S
C1579 O1564 1.243 . S
C1580 C1583 1.399 . S
C1580 C1584 1.383 . S
C1580 C1587 1.496 . S
C1581 C1582 1.399 . S
C1581 C1584 1.389 . S
C1582 C1581 1.399 . S
C1582 C1585 1.380 . S
C1582 H1592 0.929 . S
C1583 C1580 1.399 . S
C1583 C1585 1.392 . S
C1583 H1593 0.929 . S
C1584 C1580 1.383 . S
C1584 C1581 1.389 . S
C1584 H1594 0.931 . S
C1585 C1582 1.380 . S
C1585 C1583 1.392 . S
C1585 H1595 0.929 . S
C1586 O1566 1.266 . S
C1586 O1567 1.248 . S
C1587 Tb1523 2.802 . S
C1587 O1562 1.264 . S
C1587 O1565 1.256 . S
C1587 C1580 1.496 . S
H1588 C1571 0.929 . S
H1589 C1572 0.929 . S
H1590 C1573 0.929 . S
H1591 C1574 0.931 . S
H1592 C1582 0.929 . S
H1593 C1583 0.929 . S
H1594 C1584 0.931 . S
H1595 C1585 0.929 . S
Tb1596 N1625 2.617 . S
Tb1596 N1631 2.572 . S
Tb1596 O1640 2.465 . S
Tb1596 O1641 2.387 1_655 S
Tb1596 O1643 2.428 . S
Tb1596 O1644 2.284 1_554 S
Tb1596 O1648 2.349 1_655 S
Tb1596 O1651 2.393 1_655 S
Tb1596 C1660 2.802 . S
C1597 N1598 1.379 . S
C1597 C1600 1.416 . S
C1597 C1604 1.424 1_556 S
N1598 C1597 1.379 . S
N1598 C1601 1.334 . S
N1598 Tb1607 2.617 1_556 S
C1599 C1601 1.390 . S
C1599 C1602 1.339 . S
C1599 H1619 0.930 . S
C1600 C1597 1.416 . S
C1600 C1602 1.416 . S
C1600 C1606 1.448 . S
C1601 N1598 1.334 . S
C1601 C1599 1.390 . S
C1601 H1612 0.930 . S
C1602 C1599 1.339 . S
C1602 C1600 1.416 . S
C1602 H1623 0.930 . S
C1603 C1604 1.413 . S
C1603 C1605 1.427 1_554 S
C1603 C1609 1.416 . S
C1604 C1597 1.424 1_554 S
C1604 C1603 1.413 . S
C1604 N1608 1.361 . S
C1605 C1603 1.427 1_556 S
C1605 C1606 1.328 . S
C1605 H1620 0.929 1_556 S
C1606 C1600 1.448 . S
C1606 C1605 1.328 . S
C1606 H1621 0.930 . S
Tb1607 N1598 2.617 1_554 S
Tb1607 N1608 2.572 . S
Tb1607 O1642 2.349 . S
Tb1607 O1645 2.393 1_554 S
Tb1607 O1646 2.465 . S
Tb1607 O1647 2.387 . S
Tb1607 O1649 2.428 1_554 S
Tb1607 O1650 2.308 . S
Tb1607 C1671 2.802 1_554 S
N1608 C1604 1.361 . S
N1608 Tb1607 2.572 . S
N1608 C1610 1.340 . S
C1609 C1603 1.416 . S
C1609 C1611 1.332 . S
C1609 H1617 0.931 . S
C1610 N1608 1.340 . S
C1610 C1611 1.407 . S
C1610 H1616 0.930 . S
C1611 C1609 1.332 . S
C1611 C1610 1.407 . S
C1611 H1613 0.929 . S
H1612 C1601 0.930 . S
H1613 C1611 0.929 . S
H1614 C1629 0.930 1_455 S
H1615 C1636 0.929 . S
H1616 C1610 0.930 . S
H1617 C1609 0.931 . S
H1618 C1632 0.930 1_556 S
H1619 C1599 0.930 . S
H1620 C1605 0.929 1_554 S
H1621 C1606 0.930 . S
H1622 C1627 0.930 . S
H1623 C1602 0.930 . S
H1624 C1635 0.931 . S
N1625 Tb1596 2.617 . S
N1625 C1626 1.379 . S
N1625 C1629 1.334 . S
C1626 N1625 1.379 . S
C1626 C1628 1.416 . S
C1626 C1634 1.424 . S
C1627 H1622 0.930 . S
C1627 C1629 1.390 . S
C1627 C1630 1.339 . S
C1628 C1626 1.416 . S
C1628 C1630 1.416 . S
C1628 C1661 1.448 . S
C1629 H1614 0.930 1_655 S
C1629 N1625 1.334 . S
C1629 C1627 1.390 . S
C1630 C1627 1.339 . S
C1630 C1628 1.416 . S
C1630 H1637 0.930 . S
N1631 Tb1596 2.572 . S
N1631 C1632 1.340 . S
N1631 C1634 1.361 . S
C1632 H1618 0.930 1_554 S
C1632 N1631 1.340 . S
C1632 C1636 1.407 1_554 S
C1633 C1634 1.413 . S
C1633 C1635 1.416 . S
C1633 C1662 1.427 . S
C1634 C1626 1.424 . S
C1634 N1631 1.361 . S
C1634 C1633 1.413 . S
C1635 H1624 0.931 . S
C1635 C1633 1.416 . S
C1635 C1636 1.332 1_554 S
C1636 H1615 0.929 . S
C1636 C1632 1.407 1_556 S
C1636 C1635 1.332 1_556 S
H1637 C1630 0.930 . S
H1638 C1661 0.930 . S
H1639 C1662 0.929 . S
O1640 Tb1596 2.465 . S
O1640 C1660 1.264 . S
O1641 Tb1596 2.387 1_455 S
O1641 C1652 1.264 . S
O1642 Tb1607 2.349 . S
O1642 C1652 1.243 . S
O1643 Tb1596 2.428 . S
O1643 C1660 1.256 . S
O1644 Tb1596 2.284 1_556 S
O1644 C1659 1.284 1_655 S
O1645 Tb1607 2.393 1_556 S
O1645 C1659 1.248 . S
O1646 Tb1607 2.465 . S
O1646 C1671 1.264 1_554 S
O1647 Tb1607 2.387 . S
O1647 C1663 1.264 . S
O1648 Tb1596 2.349 1_455 S
O1648 C1663 1.243 . S
O1649 Tb1607 2.428 1_556 S
O1649 C1671 1.256 . S
O1650 Tb1607 2.308 . S
O1650 C1670 1.266 . S
O1651 Tb1596 2.393 1_455 S
O1651 C1670 1.248 . S
C1652 O1641 1.264 . S
C1652 O1642 1.243 . S
C1653 C1656 1.399 . S
C1653 C1658 1.383 . S
C1653 C1660 1.496 . S
C1654 C1655 1.399 . S
C1654 C1658 1.389 . S
C1655 C1654 1.399 . S
C1655 C1657 1.380 . S
C1655 H1672 0.929 . S
C1656 C1653 1.399 . S
C1656 C1657 1.392 . S
C1656 H1673 0.929 . S
C1657 C1655 1.380 . S
C1657 C1656 1.392 . S
C1657 H1674 0.929 . S
C1658 C1653 1.383 . S
C1658 C1654 1.389 . S
C1658 H1675 0.931 . S
C1659 O1644 1.284 1_455 S
C1659 O1645 1.248 . S
C1660 Tb1596 2.802 . S
C1660 O1640 1.264 . S
C1660 O1643 1.256 . S
C1660 C1653 1.496 . S
C1661 C1628 1.448 . S
C1661 H1638 0.930 . S
C1661 C1662 1.328 . S
C1662 C1633 1.427 . S
C1662 H1639 0.929 . S
C1662 C1661 1.328 . S
C1663 O1647 1.264 . S
C1663 O1648 1.243 . S
C1664 C1667 1.399 . S
C1664 C1668 1.383 1_556 S
C1664 C1671 1.496 . S
C1665 C1666 1.399 1_554 S
C1665 C1668 1.389 . S
C1666 C1665 1.399 1_556 S
C1666 C1669 1.380 . S
C1666 H1676 0.929 . S
C1667 C1664 1.399 . S
C1667 C1669 1.392 . S
C1667 H1677 0.929 . S
C1668 C1664 1.383 1_554 S
C1668 C1665 1.389 . S
C1668 H1678 0.931 . S
C1669 C1666 1.380 . S
C1669 C1667 1.392 . S
C1669 H1679 0.929 . S
C1670 O1650 1.266 . S
C1670 O1651 1.248 . S
C1671 Tb1607 2.802 1_556 S
C1671 O1646 1.264 1_556 S
C1671 O1649 1.256 . S
C1671 C1664 1.496 . S
H1672 C1655 0.929 . S
H1673 C1656 0.929 . S
H1674 C1657 0.929 . S
H1675 C1658 0.931 . S
H1676 C1666 0.929 . S
H1677 C1667 0.929 . S
H1678 C1668 0.931 . S
H1679 C1669 0.929 . S
H1680 C1686 0.930 . S
H1681 C1690 0.930 . S
H1682 C1695 0.929 . S
H1683 C1693 0.929 . S
H1684 C1688 0.929 . S
H1685 C1694 0.929 . S
C1686 H1680 0.930 . S
C1686 C1687 1.317 1_455 S
C1686 C1694 1.378 . S
C1687 C1686 1.317 1_655 S
C1687 C1695 1.468 . S
C1688 H1684 0.929 . S
C1688 C1690 1.378 . S
C1688 C1692 1.335 1_654 S
C1689 C1692 1.479 . S
C1689 C1694 1.350 . S
C1689 N1697 1.427 1_455 S
C1690 H1681 0.930 . S
C1690 C1688 1.378 . S
C1690 C1691 1.367 1_655 S
C1691 C1690 1.367 1_455 S
C1691 C1693 1.433 . S
C1692 C1688 1.335 1_456 S
C1692 C1689 1.479 . S
C1692 N1696 1.432 1_556 S
C1693 H1683 0.929 . S
C1693 C1691 1.433 . S
C1693 N1696 1.398 . S
C1694 H1685 0.929 . S
C1694 C1686 1.378 . S
C1694 C1689 1.350 . S
C1695 H1682 0.929 . S
C1695 C1687 1.468 . S
C1695 N1697 1.384 . S
N1696 C1692 1.432 1_554 S
N1696 C1693 1.398 . S
N1697 C1689 1.427 1_655 S
N1697 C1695 1.384 . S
H1698 C1704 0.930 . S
H1699 C1708 0.930 . S
H1700 C1713 0.929 . S
H1701 C1711 0.929 . S
H1702 C1706 0.929 . S
H1703 C1712 0.929 . S
C1704 H1698 0.930 . S
C1704 C1705 1.367 . S
C1704 C1712 1.378 . S
C1705 C1704 1.367 . S
C1705 C1713 1.433 . S
C1706 H1702 0.929 . S
C1706 C1708 1.378 . S
C1706 C1710 1.350 . S
C1707 C1710 1.463 . S
C1707 C1712 1.350 . S
C1707 N1715 1.427 . S
C1708 H1699 0.930 . S
C1708 C1706 1.378 . S
C1708 C1709 1.367 . S
C1709 C1708 1.367 . S
C1709 C1711 1.433 . S
C1710 C1706 1.350 . S
C1710 C1707 1.463 . S
C1710 N1714 1.427 . S
C1711 H1701 0.929 . S
C1711 C1709 1.433 . S
C1711 N1714 1.384 . S
C1712 H1703 0.929 . S
C1712 C1704 1.378 . S
C1712 C1707 1.350 . S
C1713 H1700 0.929 . S
C1713 C1705 1.433 . S
C1713 N1715 1.384 . S
N1714 C1710 1.427 . S
N1714 C1711 1.384 . S
N1715 C1707 1.427 . S
N1715 C1713 1.384 . S
H1716 C1722 0.930 . S
H1717 C1726 0.930 . S
H1718 C1731 0.929 . S
H1719 C1729 0.929 . S
H1720 C1724 0.929 . S
H1721 C1730 0.929 . S
C1722 H1716 0.930 . S
C1722 C1723 1.367 . S
C1722 C1730 1.378 . S
C1723 C1722 1.367 . S
C1723 C1731 1.433 . S
C1724 H1720 0.929 . S
C1724 C1726 1.378 . S
C1724 C1728 1.350 . S
C1725 C1728 1.463 . S
C1725 C1730 1.350 . S
C1725 N1733 1.427 . S
C1726 H1717 0.930 . S
C1726 C1724 1.378 . S
C1726 C1727 1.367 . S
C1727 C1726 1.367 . S
C1727 C1729 1.433 . S
C1728 C1724 1.350 . S
C1728 C1725 1.463 . S
C1728 N1732 1.427 . S
C1729 H1719 0.929 . S
C1729 C1727 1.433 . S
C1729 N1732 1.384 . S
C1730 H1721 0.929 . S
C1730 C1722 1.378 . S
C1730 C1725 1.350 . S
C1731 H1718 0.929 . S
C1731 C1723 1.433 . S
C1731 N1733 1.384 . S
N1732 C1728 1.427 . S
N1732 C1729 1.384 . S
N1733 C1725 1.427 . S
N1733 C1731 1.384 . S
H1734 C1740 0.930 . S
H1735 C1744 0.930 . S
H1736 C1749 0.929 . S
H1737 C1747 0.929 . S
H1738 C1742 0.929 . S
H1739 C1748 0.929 . S
C1740 H1734 0.930 . S
C1740 C1741 1.367 . S
C1740 C1748 1.378 . S
C1741 C1740 1.367 . S
C1741 C1749 1.433 . S
C1742 H1738 0.929 . S
C1742 C1744 1.378 . S
C1742 C1746 1.350 . S
C1743 C1746 1.463 . S
C1743 C1748 1.350 . S
C1743 N1751 1.427 . S
C1744 H1735 0.930 . S
C1744 C1742 1.378 . S
C1744 C1745 1.367 . S
C1745 C1744 1.367 . S
C1745 C1747 1.433 . S
C1746 C1742 1.350 . S
C1746 C1743 1.463 . S
C1746 N1750 1.427 . S
C1747 H1737 0.929 . S
C1747 C1745 1.433 . S
C1747 N1750 1.384 . S
C1748 H1739 0.929 . S
C1748 C1740 1.378 . S
C1748 C1743 1.350 . S
C1749 H1736 0.929 . S
C1749 C1741 1.433 . S
C1749 N1751 1.384 . S
N1750 C1746 1.427 . S
N1750 C1747 1.384 . S
N1751 C1743 1.427 . S
N1751 C1749 1.384 . S
H1752 C1758 0.930 . S
H1753 C1762 0.930 . S
H1754 C1767 0.929 . S
H1755 C1765 0.929 . S
H1756 C1760 0.929 . S
H1757 C1766 0.929 . S
C1758 H1752 0.930 . S
C1758 C1759 1.367 . S
C1758 C1766 1.378 . S
C1759 C1758 1.367 . S
C1759 C1767 1.433 . S
C1760 H1756 0.929 . S
C1760 C1762 1.378 . S
C1760 C1764 1.350 . S
C1761 C1764 1.463 . S
C1761 C1766 1.350 . S
C1761 N1769 1.427 . S
C1762 H1753 0.930 . S
C1762 C1760 1.378 . S
C1762 C1763 1.367 . S
C1763 C1762 1.367 . S
C1763 C1765 1.433 . S
C1764 C1760 1.350 . S
C1764 C1761 1.463 . S
C1764 N1768 1.427 . S
C1765 H1755 0.929 . S
C1765 C1763 1.433 . S
C1765 N1768 1.384 . S
C1766 H1757 0.929 . S
C1766 C1758 1.378 . S
C1766 C1761 1.350 . S
C1767 H1754 0.929 . S
C1767 C1759 1.433 . S
C1767 N1769 1.384 . S
N1768 C1764 1.427 . S
N1768 C1765 1.384 . S
N1769 C1761 1.427 . S
N1769 C1767 1.384 . S
H1770 C1776 0.930 . S
H1771 C1780 0.930 . S
H1772 C1785 0.929 . S
H1773 C1783 0.929 . S
H1774 C1778 0.929 . S
H1775 C1784 0.929 . S
C1776 H1770 0.930 . S
C1776 C1777 1.367 . S
C1776 C1784 1.378 . S
C1777 C1776 1.367 . S
C1777 C1785 1.433 . S
C1778 H1774 0.929 . S
C1778 C1780 1.378 . S
C1778 C1782 1.350 . S
C1779 C1782 1.463 . S
C1779 C1784 1.350 . S
C1779 N1787 1.427 . S
C1780 H1771 0.930 . S
C1780 C1778 1.378 . S
C1780 C1781 1.367 . S
C1781 C1780 1.367 . S
C1781 C1783 1.433 . S
C1782 C1778 1.350 . S
C1782 C1779 1.463 . S
C1782 N1786 1.427 . S
C1783 H1773 0.929 . S
C1783 C1781 1.433 . S
C1783 N1786 1.384 . S
C1784 H1775 0.929 . S
C1784 C1776 1.378 . S
C1784 C1779 1.350 . S
C1785 H1772 0.929 . S
C1785 C1777 1.433 . S
C1785 N1787 1.384 . S
N1786 C1782 1.427 . S
N1786 C1783 1.384 . S
N1787 C1779 1.427 . S
N1787 C1785 1.384 . S
H1788 C1794 0.930 . S
H1789 C1798 0.930 . S
H1790 C1803 0.929 . S
H1791 C1801 0.929 . S
H1792 C1796 0.929 . S
H1793 C1802 0.929 . S
C1794 H1788 0.930 . S
C1794 C1795 1.367 . S
C1794 C1802 1.378 . S
C1795 C1794 1.367 . S
C1795 C1803 1.433 . S
C1796 H1792 0.929 . S
C1796 C1798 1.378 . S
C1796 C1800 1.350 . S
C1797 C1800 1.463 . S
C1797 C1802 1.350 . S
C1797 N1805 1.427 . S
C1798 H1789 0.930 . S
C1798 C1796 1.378 . S
C1798 C1799 1.367 . S
C1799 C1798 1.367 . S
C1799 C1801 1.433 . S
C1800 C1796 1.350 . S
C1800 C1797 1.463 . S
C1800 N1804 1.427 . S
C1801 H1791 0.929 . S
C1801 C1799 1.433 . S
C1801 N1804 1.384 . S
C1802 H1793 0.929 . S
C1802 C1794 1.378 . S
C1802 C1797 1.350 . S
C1803 H1790 0.929 . S
C1803 C1795 1.433 . S
C1803 N1805 1.384 . S
N1804 C1800 1.427 . S
N1804 C1801 1.384 . S
N1805 C1797 1.427 . S
N1805 C1803 1.384 . S
H1806 C1812 0.930 . S
H1807 C1816 0.930 . S
H1808 C1821 0.929 . S
H1809 C1819 0.929 . S
H1810 C1814 0.929 . S
H1811 C1820 0.929 . S
C1812 H1806 0.930 . S
C1812 C1813 1.367 . S
C1812 C1820 1.378 . S
C1813 C1812 1.367 . S
C1813 C1821 1.433 . S
C1814 H1810 0.929 . S
C1814 C1816 1.378 . S
C1814 C1818 1.350 . S
C1815 C1818 1.463 . S
C1815 C1820 1.350 . S
C1815 N1823 1.427 . S
C1816 H1807 0.930 . S
C1816 C1814 1.378 . S
C1816 C1817 1.367 . S
C1817 C1816 1.367 . S
C1817 C1819 1.433 . S
C1818 C1814 1.350 . S
C1818 C1815 1.463 . S
C1818 N1822 1.427 . S
C1819 H1809 0.929 . S
C1819 C1817 1.433 . S
C1819 N1822 1.384 . S
C1820 H1811 0.929 . S
C1820 C1812 1.378 . S
C1820 C1815 1.350 . S
C1821 H1808 0.929 . S
C1821 C1813 1.433 . S
C1821 N1823 1.384 . S
N1822 C1818 1.427 . S
N1822 C1819 1.384 . S
N1823 C1815 1.427 . S
N1823 C1821 1.384 . S
H1824 C1830 0.930 . S
H1825 C1834 0.930 . S
H1826 C1839 0.929 . S
H1827 C1837 0.929 . S
H1828 C1832 0.929 . S
H1829 C1838 0.929 1_565 S
C1830 H1824 0.930 . S
C1830 C1831 1.367 1_565 S
C1830 C1838 1.378 1_565 S
C1831 C1830 1.367 1_545 S
C1831 C1839 1.433 . S
C1832 H1828 0.929 . S
C1832 C1834 1.378 . S
C1832 C1836 1.350 1_455 S
C1833 C1836 1.463 . S
C1833 C1838 1.350 . S
C1833 N1841 1.427 . S
C1834 H1825 0.930 . S
C1834 C1832 1.378 . S
C1834 C1835 1.367 . S
C1835 C1834 1.367 . S
C1835 C1837 1.433 1_455 S
C1836 C1832 1.350 1_655 S
C1836 C1833 1.463 . S
C1836 N1840 1.427 . S
C1837 H1827 0.929 . S
C1837 C1835 1.433 1_655 S
C1837 N1840 1.384 . S
C1838 H1829 0.929 1_545 S
C1838 C1830 1.378 1_545 S
C1838 C1833 1.350 . S
C1839 H1826 0.929 . S
C1839 C1831 1.433 . S
C1839 N1841 1.384 . S
N1840 C1836 1.427 . S
N1840 C1837 1.384 . S
N1841 C1833 1.427 . S
N1841 C1839 1.384 . S
H1842 C1848 0.930 . S
H1843 C1852 0.930 . S
H1844 C1857 0.929 . S
H1845 C1855 0.929 . S
H1846 C1850 0.929 . S
H1847 C1856 0.929 . S
C1848 H1842 0.930 . S
C1848 C1849 1.367 . S
C1848 C1856 1.378 . S
C1849 C1848 1.367 . S
C1849 C1857 1.433 . S
C1850 H1846 0.929 . S
C1850 C1852 1.378 . S
C1850 C1854 1.350 . S
C1851 C1854 1.463 . S
C1851 C1856 1.350 . S
C1851 N1859 1.427 . S
C1852 H1843 0.930 . S
C1852 C1850 1.378 . S
C1852 C1853 1.367 . S
C1853 C1852 1.367 . S
C1853 C1855 1.433 . S
C1854 C1850 1.350 . S
C1854 C1851 1.463 . S
C1854 N1858 1.427 . S
C1855 H1845 0.929 . S
C1855 C1853 1.433 . S
C1855 N1858 1.384 . S
C1856 H1847 0.929 . S
C1856 C1848 1.378 . S
C1856 C1851 1.350 . S
C1857 H1844 0.929 . S
C1857 C1849 1.433 . S
C1857 N1859 1.384 . S
N1858 C1854 1.427 . S
N1858 C1855 1.384 . S
N1859 C1851 1.427 . S
N1859 C1857 1.384 . S
H1860 C1866 0.930 . S
H1861 C1870 0.930 . S
H1862 C1875 0.929 . S
H1863 C1873 0.929 . S
H1864 C1868 0.929 . S
H1865 C1874 0.929 . S
C1866 H1860 0.930 . S
C1866 C1867 1.367 . S
C1866 C1874 1.378 . S
C1867 C1866 1.367 . S
C1867 C1875 1.433 . S
C1868 H1864 0.929 . S
C1868 C1870 1.378 . S
C1868 C1872 1.350 . S
C1869 C1872 1.463 . S
C1869 C1874 1.350 . S
C1869 N1877 1.427 . S
C1870 H1861 0.930 . S
C1870 C1868 1.378 . S
C1870 C1871 1.367 . S
C1871 C1870 1.367 . S
C1871 C1873 1.433 . S
C1872 C1868 1.350 . S
C1872 C1869 1.463 . S
C1872 N1876 1.427 . S
C1873 H1863 0.929 . S
C1873 C1871 1.433 . S
C1873 N1876 1.384 . S
C1874 H1865 0.929 . S
C1874 C1866 1.378 . S
C1874 C1869 1.350 . S
C1875 H1862 0.929 . S
C1875 C1867 1.433 . S
C1875 N1877 1.384 . S
N1876 C1872 1.427 . S
N1876 C1873 1.384 . S
N1877 C1869 1.427 . S
N1877 C1875 1.384 . S
H1878 C1884 0.930 . S
H1879 C1888 0.930 . S
H1880 C1893 0.929 . S
H1881 C1891 0.929 . S
H1882 C1886 0.929 . S
H1883 C1892 0.929 . S
C1884 H1878 0.930 . S
C1884 C1885 1.367 . S
C1884 C1892 1.378 . S
C1885 C1884 1.367 . S
C1885 C1893 1.433 . S
C1886 H1882 0.929 . S
C1886 C1888 1.378 . S
C1886 C1890 1.350 . S
C1887 C1890 1.463 . S
C1887 C1892 1.350 . S
C1887 N1895 1.427 . S
C1888 H1879 0.930 . S
C1888 C1886 1.378 . S
C1888 C1889 1.367 . S
C1889 C1888 1.367 . S
C1889 C1891 1.433 . S
C1890 C1886 1.350 . S
C1890 C1887 1.463 . S
C1890 N1894 1.427 . S
C1891 H1881 0.929 . S
C1891 C1889 1.433 . S
C1891 N1894 1.384 . S
C1892 H1883 0.929 . S
C1892 C1884 1.378 . S
C1892 C1887 1.350 . S
C1893 H1880 0.929 . S
C1893 C1885 1.433 . S
C1893 N1895 1.384 . S
N1894 C1890 1.427 . S
N1894 C1891 1.384 . S
N1895 C1887 1.427 . S
N1895 C1893 1.384 . S
H1896 C1902 0.930 . S
H1897 C1906 0.897 1_565 S
H1898 C1911 0.929 . S
H1899 C1909 0.929 . S
H1900 C1904 0.925 . S
H1901 C1910 0.929 . S
C1902 H1896 0.930 . S
C1902 C1903 1.367 . S
C1902 C1910 1.378 . S
C1903 C1902 1.367 . S
C1903 C1911 1.433 1_545 S
C1904 H1900 0.925 . S
C1904 C1906 1.384 1_565 S
C1904 C1908 1.355 1_565 S
C1905 C1908 1.463 . S
C1905 C1910 1.350 . S
C1905 N1913 1.427 1_545 S
C1906 H1897 0.897 1_545 S
C1906 C1904 1.384 1_545 S
C1906 C1907 1.388 1_655 S
C1907 C1906 1.388 1_455 S
C1907 C1909 1.430 . S
C1908 C1904 1.355 1_545 S
C1908 C1905 1.463 . S
C1908 N1912 1.427 . S
C1909 H1899 0.929 . S
C1909 C1907 1.430 . S
C1909 N1912 1.384 1_455 S
C1910 H1901 0.929 . S
C1910 C1902 1.378 . S
C1910 C1905 1.350 . S
C1911 H1898 0.929 . S
C1911 C1903 1.433 1_565 S
C1911 N1913 1.384 . S
N1912 C1908 1.427 . S
N1912 C1909 1.384 1_655 S
N1913 C1905 1.427 1_565 S
N1913 C1911 1.384 . S
H1914 C1920 0.930 . S
H1915 C1924 0.930 . S
H1916 C1929 0.929 . S
H1917 C1927 0.929 . S
H1918 C1922 0.929 . S
H1919 C1928 0.929 . S
C1920 H1914 0.930 . S
C1920 C1921 1.367 . S
C1920 C1928 1.378 . S
C1921 C1920 1.367 . S
C1921 C1929 1.433 . S
C1922 H1918 0.929 . S
C1922 C1924 1.378 . S
C1922 C1926 1.350 . S
C1923 C1926 1.463 . S
C1923 C1928 1.350 . S
C1923 N1931 1.427 . S
C1924 H1915 0.930 . S
C1924 C1922 1.378 . S
C1924 C1925 1.367 . S
C1925 C1924 1.367 . S
C1925 C1927 1.433 . S
C1926 C1922 1.350 . S
C1926 C1923 1.463 . S
C1926 N1930 1.427 . S
C1927 H1917 0.929 . S
C1927 C1925 1.433 . S
C1927 N1930 1.384 . S
C1928 H1919 0.929 . S
C1928 C1920 1.378 . S
C1928 C1923 1.350 . S
C1929 H1916 0.929 . S
C1929 C1921 1.433 . S
C1929 N1931 1.384 . S
N1930 C1926 1.427 . S
N1930 C1927 1.384 . S
N1931 C1923 1.427 . S
N1931 C1929 1.384 . S
H1932 C1938 0.930 . S
H1933 C1942 0.930 . S
H1934 C1947 0.929 . S
H1935 C1945 0.929 . S
H1936 C1940 0.929 . S
H1937 C1946 0.929 . S
C1938 H1932 0.930 . S
C1938 C1939 1.367 . S
C1938 C1946 1.378 . S
C1939 C1938 1.367 . S
C1939 C1947 1.433 . S
C1940 H1936 0.929 . S
C1940 C1942 1.378 . S
C1940 C1944 1.350 . S
C1941 C1944 1.463 . S
C1941 C1946 1.350 . S
C1941 N1949 1.427 . S
C1942 H1933 0.930 . S
C1942 C1940 1.378 . S
C1942 C1943 1.367 . S
C1943 C1942 1.367 . S
C1943 C1945 1.433 . S
C1944 C1940 1.350 . S
C1944 C1941 1.463 . S
C1944 N1948 1.427 . S
C1945 H1935 0.929 . S
C1945 C1943 1.433 . S
C1945 N1948 1.384 . S
C1946 H1937 0.929 . S
C1946 C1938 1.378 . S
C1946 C1941 1.350 . S
C1947 H1934 0.929 . S
C1947 C1939 1.433 . S
C1947 N1949 1.384 . S
N1948 C1944 1.427 . S
N1948 C1945 1.384 . S
N1949 C1941 1.427 . S
N1949 C1947 1.384 . S
H1950 C1956 0.930 . S
H1951 C1960 0.930 . S
H1952 C1965 0.929 . S
H1953 C1963 0.929 . S
H1954 C1958 0.929 . S
H1955 C1964 0.929 . S
C1956 H1950 0.930 . S
C1956 C1957 1.367 . S
C1956 C1964 1.378 . S
C1957 C1956 1.367 . S
C1957 C1965 1.433 . S
C1958 H1954 0.929 . S
C1958 C1960 1.378 . S
C1958 C1962 1.350 . S
C1959 C1962 1.463 . S
C1959 C1964 1.350 . S
C1959 N1967 1.427 . S
C1960 H1951 0.930 . S
C1960 C1958 1.378 . S
C1960 C1961 1.367 . S
C1961 C1960 1.367 . S
C1961 C1963 1.433 . S
C1962 C1958 1.350 . S
C1962 C1959 1.463 . S
C1962 N1966 1.427 . S
C1963 H1953 0.929 . S
C1963 C1961 1.433 . S
C1963 N1966 1.384 . S
C1964 H1955 0.929 . S
C1964 C1956 1.378 . S
C1964 C1959 1.350 . S
C1965 H1952 0.929 . S
C1965 C1957 1.433 . S
C1965 N1967 1.384 . S
N1966 C1962 1.427 . S
N1966 C1963 1.384 . S
N1967 C1959 1.427 . S
N1967 C1965 1.384 . S
H1968 C1974 0.930 . S
H1969 C1978 0.930 1_556 S
H1970 C1983 0.929 . S
H1971 C1981 0.929 . S
H1972 C1976 0.929 . S
H1973 C1982 0.929 . S
C1974 H1968 0.930 . S
C1974 C1975 1.367 1_554 S
C1974 C1982 1.378 . S
C1975 C1974 1.367 1_556 S
C1975 C1983 1.433 . S
C1976 H1972 0.929 . S
C1976 C1978 1.378 1_556 S
C1976 C1980 1.350 1_556 S
C1977 C1980 1.463 . S
C1977 C1982 1.350 . S
C1977 N1985 1.427 1_554 S
C1978 H1969 0.930 1_554 S
C1978 C1976 1.378 1_554 S
C1978 C1979 1.364 . S
C1979 C1978 1.364 . S
C1979 C1981 1.433 1_565 S
C1980 C1976 1.350 1_554 S
C1980 C1977 1.463 . S
C1980 N1984 1.427 . S
C1981 H1971 0.929 . S
C1981 C1979 1.433 1_545 S
C1981 N1984 1.384 1_545 S
C1982 H1973 0.929 . S
C1982 C1974 1.378 . S
C1982 C1977 1.350 . S
C1983 H1970 0.929 . S
C1983 C1975 1.433 . S
C1983 N1985 1.384 . S
N1984 C1980 1.427 . S
N1984 C1981 1.384 1_565 S
N1985 C1977 1.427 1_556 S
N1985 C1983 1.384 . S
H1986 C1992 0.930 . S
H1987 C1996 0.930 . S
H1988 C2001 0.929 . S
H1989 C1999 0.933 . S
H1990 C1994 0.929 . S
H1991 C2000 0.929 . S
C1992 H1986 0.930 . S
C1992 C1993 1.367 1_556 S
C1992 C2000 1.378 . S
C1993 C1992 1.367 1_554 S
C1993 C2001 1.433 . S
C1994 H1990 0.929 . S
C1994 C1996 1.378 . S
C1994 C1998 1.350 . S
C1995 C1998 1.463 . S
C1995 C2000 1.350 1_554 S
C1995 N2003 1.427 . S
C1996 H1987 0.930 . S
C1996 C1994 1.378 . S
C1996 C1997 1.367 . S
C1997 C1996 1.367 . S
C1997 C1999 1.427 1_554 S
C1998 C1994 1.350 . S
C1998 C1995 1.463 . S
C1998 N2002 1.427 1_554 S
C1999 H1989 0.933 . S
C1999 C1997 1.427 1_556 S
C1999 N2002 1.386 . S
C2000 H1991 0.929 . S
C2000 C1992 1.378 . S
C2000 C1995 1.350 1_556 S
C2001 H1988 0.929 . S
C2001 C1993 1.433 . S
C2001 N2003 1.384 . S
N2002 C1998 1.427 1_556 S
N2002 C1999 1.386 . S
N2003 C1995 1.427 . S
N2003 C2001 1.384 . S
H2004 C2010 0.930 . S
H2005 C2014 0.930 . S
H2006 C2019 0.929 . S
H2007 C2017 0.929 . S
H2008 C2012 0.929 . S
H2009 C2018 0.929 . S
C2010 H2004 0.930 . S
C2010 C2011 1.367 . S
C2010 C2018 1.378 . S
C2011 C2010 1.367 . S
C2011 C2019 1.433 . S
C2012 H2008 0.929 . S
C2012 C2014 1.378 . S
C2012 C2016 1.350 . S
C2013 C2016 1.463 . S
C2013 C2018 1.350 . S
C2013 N2021 1.427 . S
C2014 H2005 0.930 . S
C2014 C2012 1.378 . S
C2014 C2015 1.367 . S
C2015 C2014 1.367 . S
C2015 C2017 1.433 . S
C2016 C2012 1.350 . S
C2016 C2013 1.463 . S
C2016 N2020 1.427 . S
C2017 H2007 0.929 . S
C2017 C2015 1.433 . S
C2017 N2020 1.384 . S
C2018 H2009 0.929 . S
C2018 C2010 1.378 . S
C2018 C2013 1.350 . S
C2019 H2006 0.929 . S
C2019 C2011 1.433 . S
C2019 N2021 1.384 . S
N2020 C2016 1.427 . S
N2020 C2017 1.384 . S
N2021 C2013 1.427 . S
N2021 C2019 1.384 . S
H2022 C2028 0.930 . S
H2023 C2032 0.930 . S
H2024 C2037 0.929 . S
H2025 C2035 0.929 . S
H2026 C2030 0.929 . S
H2027 C2036 0.929 . S
C2028 H2022 0.930 . S
C2028 C2029 1.367 . S
C2028 C2036 1.378 . S
C2029 C2028 1.367 . S
C2029 C2037 1.433 . S
C2030 H2026 0.929 . S
C2030 C2032 1.378 . S
C2030 C2034 1.350 . S
C2031 C2034 1.463 . S
C2031 C2036 1.350 . S
C2031 N2039 1.427 . S
C2032 H2023 0.930 . S
C2032 C2030 1.378 . S
C2032 C2033 1.367 . S
C2033 C2032 1.367 . S
C2033 C2035 1.433 . S
C2034 C2030 1.350 . S
C2034 C2031 1.463 . S
C2034 N2038 1.427 . S
C2035 H2025 0.929 . S
C2035 C2033 1.433 . S
C2035 N2038 1.384 . S
C2036 H2027 0.929 . S
C2036 C2028 1.378 . S
C2036 C2031 1.350 . S
C2037 H2024 0.929 . S
C2037 C2029 1.433 . S
C2037 N2039 1.384 . S
N2038 C2034 1.427 . S
N2038 C2035 1.384 . S
N2039 C2031 1.427 . S
N2039 C2037 1.384 . S
H2040 C2046 0.930 . S
H2041 C2050 0.930 . S
H2042 C2055 0.929 . S
H2043 C2053 0.929 . S
H2044 C2048 0.929 . S
H2045 C2054 0.929 . S
C2046 H2040 0.930 . S
C2046 C2047 1.367 . S
C2046 C2054 1.378 . S
C2047 C2046 1.367 . S
C2047 C2055 1.433 . S
C2048 H2044 0.929 . S
C2048 C2050 1.378 . S
C2048 C2052 1.350 . S
C2049 C2052 1.463 . S
C2049 C2054 1.350 . S
C2049 N2057 1.427 . S
C2050 H2041 0.930 . S
C2050 C2048 1.378 . S
C2050 C2051 1.367 . S
C2051 C2050 1.367 . S
C2051 C2053 1.433 . S
C2052 C2048 1.350 . S
C2052 C2049 1.463 . S
C2052 N2056 1.427 . S
C2053 H2043 0.929 . S
C2053 C2051 1.433 . S
C2053 N2056 1.384 . S
C2054 H2045 0.929 . S
C2054 C2046 1.378 . S
C2054 C2049 1.350 . S
C2055 H2042 0.929 . S
C2055 C2047 1.433 . S
C2055 N2057 1.384 . S
N2056 C2052 1.427 . S
N2056 C2053 1.384 . S
N2057 C2049 1.427 . S
N2057 C2055 1.384 . S
H2058 C2064 0.930 . S
H2059 C2068 0.930 . S
H2060 C2073 0.929 . S
H2061 C2071 0.929 . S
H2062 C2066 0.929 . S
H2063 C2072 0.929 . S
C2064 H2058 0.930 . S
C2064 C2065 1.367 . S
C2064 C2072 1.378 . S
C2065 C2064 1.367 . S
C2065 C2073 1.433 . S
C2066 H2062 0.929 . S
C2066 C2068 1.378 . S
C2066 C2070 1.350 . S
C2067 C2070 1.463 . S
C2067 C2072 1.350 . S
C2067 N2075 1.427 . S
C2068 H2059 0.930 . S
C2068 C2066 1.378 . S
C2068 C2069 1.367 . S
C2069 C2068 1.367 . S
C2069 C2071 1.433 . S
C2070 C2066 1.350 . S
C2070 C2067 1.463 . S
C2070 N2074 1.427 . S
C2071 H2061 0.929 . S
C2071 C2069 1.433 . S
C2071 N2074 1.384 . S
C2072 H2063 0.929 . S
C2072 C2064 1.378 . S
C2072 C2067 1.350 . S
C2073 H2060 0.929 . S
C2073 C2065 1.433 . S
C2073 N2075 1.384 . S
N2074 C2070 1.427 . S
N2074 C2071 1.384 . S
N2075 C2067 1.427 . S
N2075 C2073 1.384 . S
H2076 C2082 0.930 . S
H2077 C2086 0.930 . S
H2078 C2091 0.929 . S
H2079 C2089 0.929 . S
H2080 C2084 0.929 . S
H2081 C2090 0.929 . S
C2082 H2076 0.930 . S
C2082 C2083 1.367 . S
C2082 C2090 1.378 . S
C2083 C2082 1.367 . S
C2083 C2091 1.433 . S
C2084 H2080 0.929 . S
C2084 C2086 1.378 . S
C2084 C2088 1.350 . S
C2085 C2088 1.463 . S
C2085 C2090 1.350 . S
C2085 N2093 1.427 . S
C2086 H2077 0.930 . S
C2086 C2084 1.378 . S
C2086 C2087 1.367 . S
C2087 C2086 1.367 . S
C2087 C2089 1.433 . S
C2088 C2084 1.350 . S
C2088 C2085 1.463 . S
C2088 N2092 1.427 . S
C2089 H2079 0.929 . S
C2089 C2087 1.433 . S
C2089 N2092 1.384 . S
C2090 H2081 0.929 . S
C2090 C2082 1.378 . S
C2090 C2085 1.350 . S
C2091 H2078 0.929 . S
C2091 C2083 1.433 . S
C2091 N2093 1.384 . S
N2092 C2088 1.427 . S
N2092 C2089 1.384 . S
N2093 C2085 1.427 . S
N2093 C2091 1.384 . S
H2094 C2100 0.930 . S
H2095 C2104 0.930 . S
H2096 C2109 0.929 . S
H2097 C2107 0.929 . S
H2098 C2102 0.929 . S
H2099 C2108 0.929 . S
C2100 H2094 0.930 . S
C2100 C2101 1.367 . S
C2100 C2108 1.378 . S
C2101 C2100 1.367 . S
C2101 C2109 1.433 . S
C2102 H2098 0.929 . S
C2102 C2104 1.378 . S
C2102 C2106 1.350 . S
C2103 C2106 1.463 . S
C2103 C2108 1.350 . S
C2103 N2111 1.427 . S
C2104 H2095 0.930 . S
C2104 C2102 1.378 . S
C2104 C2105 1.367 . S
C2105 C2104 1.367 . S
C2105 C2107 1.433 . S
C2106 C2102 1.350 . S
C2106 C2103 1.463 . S
C2106 N2110 1.427 . S
C2107 H2097 0.929 . S
C2107 C2105 1.433 . S
C2107 N2110 1.384 . S
C2108 H2099 0.929 . S
C2108 C2100 1.378 . S
C2108 C2103 1.350 . S
C2109 H2096 0.929 . S
C2109 C2101 1.433 . S
C2109 N2111 1.384 . S
N2110 C2106 1.427 . S
N2110 C2107 1.384 . S
N2111 C2103 1.427 . S
N2111 C2109 1.384 . S
H2112 C2118 0.930 . S
H2113 C2122 0.930 . S
H2114 C2127 0.929 . S
H2115 C2125 0.929 1_556 S
H2116 C2120 0.929 . S
H2117 C2126 0.929 . S
C2118 H2112 0.930 . S
C2118 C2119 1.367 . S
C2118 C2126 1.378 . S
C2119 C2118 1.367 . S
C2119 C2127 1.433 . S
C2120 H2116 0.929 . S
C2120 C2122 1.378 . S
C2120 C2124 1.350 . S
C2121 C2124 1.463 . S
C2121 C2126 1.350 . S
C2121 N2129 1.427 . S
C2122 H2113 0.930 . S
C2122 C2120 1.378 . S
C2122 C2123 1.367 . S
C2123 C2122 1.367 . S
C2123 C2125 1.433 . S
C2124 C2120 1.350 . S
C2124 C2121 1.463 . S
C2124 N2128 1.427 . S
C2125 H2115 0.929 1_554 S
C2125 C2123 1.433 . S
C2125 N2128 1.384 . S
C2126 H2117 0.929 . S
C2126 C2118 1.378 . S
C2126 C2121 1.350 . S
C2127 H2114 0.929 . S
C2127 C2119 1.433 . S
C2127 N2129 1.384 . S
N2128 C2124 1.427 . S
N2128 C2125 1.384 . S
N2129 C2121 1.427 . S
N2129 C2127 1.384 . S
H2130 C2136 0.930 . S
H2131 C2140 0.930 . S
H2132 C2145 0.929 . S
H2133 C2143 0.929 . S
H2134 C2138 0.929 . S
H2135 C2144 0.929 . S
C2136 H2130 0.930 . S
C2136 C2137 1.367 . S
C2136 C2144 1.378 . S
C2137 C2136 1.367 . S
C2137 C2145 1.433 . S
C2138 H2134 0.929 . S
C2138 C2140 1.378 . S
C2138 C2142 1.350 . S
C2139 C2142 1.463 . S
C2139 C2144 1.350 . S
C2139 N2147 1.427 . S
C2140 H2131 0.930 . S
C2140 C2138 1.378 . S
C2140 C2141 1.367 . S
C2141 C2140 1.367 . S
C2141 C2143 1.433 . S
C2142 C2138 1.350 . S
C2142 C2139 1.463 . S
C2142 N2146 1.427 . S
C2143 H2133 0.929 . S
C2143 C2141 1.433 . S
C2143 N2146 1.384 . S
C2144 H2135 0.929 . S
C2144 C2136 1.378 . S
C2144 C2139 1.350 . S
C2145 H2132 0.929 . S
C2145 C2137 1.433 . S
C2145 N2147 1.384 . S
N2146 C2142 1.427 . S
N2146 C2143 1.384 . S
N2147 C2139 1.427 . S
N2147 C2145 1.384 . S
H2148 C2154 0.930 . S
H2149 C2158 0.930 . S
H2150 C2163 0.929 . S
H2151 C2161 0.929 . S
H2152 C2156 0.929 . S
H2153 C2162 0.929 . S
C2154 H2148 0.930 . S
C2154 C2155 1.367 . S
C2154 C2162 1.378 . S
C2155 C2154 1.367 . S
C2155 C2163 1.433 . S
C2156 H2152 0.929 . S
C2156 C2158 1.378 . S
C2156 C2160 1.350 . S
C2157 C2160 1.463 . S
C2157 C2162 1.350 . S
C2157 N2165 1.427 . S
C2158 H2149 0.930 . S
C2158 C2156 1.378 . S
C2158 C2159 1.367 . S
C2159 C2158 1.367 . S
C2159 C2161 1.433 . S
C2160 C2156 1.350 . S
C2160 C2157 1.463 . S
C2160 N2164 1.427 . S
C2161 H2151 0.929 . S
C2161 C2159 1.433 . S
C2161 N2164 1.384 . S
C2162 H2153 0.929 . S
C2162 C2154 1.378 . S
C2162 C2157 1.350 . S
C2163 H2150 0.929 . S
C2163 C2155 1.433 . S
C2163 N2165 1.384 . S
N2164 C2160 1.427 . S
N2164 C2161 1.384 . S
N2165 C2157 1.427 . S
N2165 C2163 1.384 . S
H2166 C2172 0.930 . S
H2167 C2176 0.930 . S
H2168 C2181 0.929 . S
H2169 C2179 0.929 . S
H2170 C2174 0.929 . S
H2171 C2180 0.929 . S
C2172 H2166 0.930 . S
C2172 C2173 1.367 . S
C2172 C2180 1.378 . S
C2173 C2172 1.367 . S
C2173 C2181 1.433 . S
C2174 H2170 0.929 . S
C2174 C2176 1.378 . S
C2174 C2178 1.350 . S
C2175 C2178 1.463 . S
C2175 C2180 1.350 . S
C2175 N2183 1.427 . S
C2176 H2167 0.930 . S
C2176 C2174 1.378 . S
C2176 C2177 1.367 . S
C2177 C2176 1.367 . S
C2177 C2179 1.433 . S
C2178 C2174 1.350 . S
C2178 C2175 1.463 . S
C2178 N2182 1.427 . S
C2179 H2169 0.929 . S
C2179 C2177 1.433 . S
C2179 N2182 1.384 . S
C2180 H2171 0.929 . S
C2180 C2172 1.378 . S
C2180 C2175 1.350 . S
C2181 H2168 0.929 . S
C2181 C2173 1.433 . S
C2181 N2183 1.384 . S
N2182 C2178 1.427 . S
N2182 C2179 1.384 . S
N2183 C2175 1.427 . S
N2183 C2181 1.384 . S
H2184 C2190 0.930 . S
H2185 C2194 0.930 . S
H2186 C2199 0.929 . S
H2187 C2197 0.929 . S
H2188 C2192 0.929 . S
H2189 C2198 0.929 . S
C2190 H2184 0.930 . S
C2190 C2191 1.367 . S
C2190 C2198 1.378 . S
C2191 C2190 1.367 . S
C2191 C2199 1.433 . S
C2192 H2188 0.929 . S
C2192 C2194 1.378 . S
C2192 C2196 1.350 . S
C2193 C2196 1.463 . S
C2193 C2198 1.350 . S
C2193 N2201 1.427 . S
C2194 H2185 0.930 . S
C2194 C2192 1.378 . S
C2194 C2195 1.367 . S
C2195 C2194 1.367 . S
C2195 C2197 1.433 . S
C2196 C2192 1.350 . S
C2196 C2193 1.463 . S
C2196 N2200 1.427 . S
C2197 H2187 0.929 . S
C2197 C2195 1.433 . S
C2197 N2200 1.384 . S
C2198 H2189 0.929 . S
C2198 C2190 1.378 . S
C2198 C2193 1.350 . S
C2199 H2186 0.929 . S
C2199 C2191 1.433 . S
C2199 N2201 1.384 . S
N2200 C2196 1.427 . S
N2200 C2197 1.384 . S
N2201 C2193 1.427 . S
N2201 C2199 1.384 . S
H2202 C2208 0.930 . S
H2203 C2212 0.930 . S
H2204 C2217 0.929 . S
H2205 C2215 0.929 . S
H2206 C2210 0.929 . S
H2207 C2216 0.929 . S
C2208 H2202 0.930 . S
C2208 C2209 1.367 . S
C2208 C2216 1.378 . S
C2209 C2208 1.367 . S
C2209 C2217 1.433 . S
C2210 H2206 0.929 . S
C2210 C2212 1.378 . S
C2210 C2214 1.350 . S
C2211 C2214 1.463 . S
C2211 C2216 1.350 . S
C2211 N2219 1.427 . S
C2212 H2203 0.930 . S
C2212 C2210 1.378 . S
C2212 C2213 1.367 . S
C2213 C2212 1.367 . S
C2213 C2215 1.433 . S
C2214 C2210 1.350 . S
C2214 C2211 1.463 . S
C2214 N2218 1.427 . S
C2215 H2205 0.929 . S
C2215 C2213 1.433 . S
C2215 N2218 1.384 . S
C2216 H2207 0.929 . S
C2216 C2208 1.378 . S
C2216 C2211 1.350 . S
C2217 H2204 0.929 . S
C2217 C2209 1.433 . S
C2217 N2219 1.384 . S
N2218 C2214 1.427 . S
N2218 C2215 1.384 . S
N2219 C2211 1.427 . S
N2219 C2217 1.384 . S
H2220 C2226 0.930 . S
H2221 C2230 0.930 . S
H2222 C2235 0.929 . S
H2223 C2233 0.929 . S
H2224 C2228 0.929 . S
H2225 C2234 0.929 . S
C2226 H2220 0.930 . S
C2226 C2227 1.367 . S
C2226 C2234 1.378 . S
C2227 C2226 1.367 . S
C2227 C2235 1.433 . S
C2228 H2224 0.929 . S
C2228 C2230 1.378 . S
C2228 C2232 1.350 . S
C2229 C2232 1.463 . S
C2229 C2234 1.350 . S
C2229 N2237 1.427 . S
C2230 H2221 0.930 . S
C2230 C2228 1.378 . S
C2230 C2231 1.367 . S
C2231 C2230 1.367 . S
C2231 C2233 1.433 . S
C2232 C2228 1.350 . S
C2232 C2229 1.463 . S
C2232 N2236 1.427 . S
C2233 H2223 0.929 . S
C2233 C2231 1.433 . S
C2233 N2236 1.384 . S
C2234 H2225 0.929 . S
C2234 C2226 1.378 . S
C2234 C2229 1.350 . S
C2235 H2222 0.929 . S
C2235 C2227 1.433 . S
C2235 N2237 1.384 . S
N2236 C2232 1.427 . S
N2236 C2233 1.384 . S
N2237 C2229 1.427 . S
N2237 C2235 1.384 . S
H2238 C2244 0.930 . S
H2239 C2248 0.930 . S
H2240 C2253 0.929 . S
H2241 C2251 0.929 . S
H2242 C2246 0.929 . S
H2243 C2252 0.929 . S
C2244 H2238 0.930 . S
C2244 C2245 1.367 . S
C2244 C2252 1.378 . S
C2245 C2244 1.367 . S
C2245 C2253 1.433 . S
C2246 H2242 0.929 . S
C2246 C2248 1.378 . S
C2246 C2250 1.350 . S
C2247 C2250 1.463 . S
C2247 C2252 1.350 . S
C2247 N2255 1.427 . S
C2248 H2239 0.930 . S
C2248 C2246 1.378 . S
C2248 C2249 1.367 . S
C2249 C2248 1.367 . S
C2249 C2251 1.433 . S
C2250 C2246 1.350 . S
C2250 C2247 1.463 . S
C2250 N2254 1.427 . S
C2251 H2241 0.929 . S
C2251 C2249 1.433 . S
C2251 N2254 1.384 . S
C2252 H2243 0.929 . S
C2252 C2244 1.378 . S
C2252 C2247 1.350 . S
C2253 H2240 0.929 . S
C2253 C2245 1.433 . S
C2253 N2255 1.384 . S
N2254 C2250 1.427 . S
N2254 C2251 1.384 . S
N2255 C2247 1.427 . S
N2255 C2253 1.384 . S
H2256 C2262 0.930 . S
H2257 C2266 0.930 . S
H2258 C2271 0.929 . S
H2259 C2269 0.929 1_565 S
H2260 C2264 0.929 . S
H2261 C2270 0.929 . S
C2262 H2256 0.930 . S
C2262 C2263 1.367 . S
C2262 C2270 1.378 . S
C2263 C2262 1.367 . S
C2263 C2271 1.433 . S
C2264 H2260 0.929 . S
C2264 C2266 1.378 . S
C2264 C2268 1.350 . S
C2265 C2268 1.463 . S
C2265 C2270 1.350 . S
C2265 N2273 1.427 . S
C2266 H2257 0.930 . S
C2266 C2264 1.378 . S
C2266 C2267 1.367 . S
C2267 C2266 1.367 . S
C2267 C2269 1.433 . S
C2268 C2264 1.350 . S
C2268 C2265 1.463 . S
C2268 N2272 1.427 . S
C2269 H2259 0.929 1_545 S
C2269 C2267 1.433 . S
C2269 N2272 1.384 . S
C2270 H2261 0.929 . S
C2270 C2262 1.378 . S
C2270 C2265 1.350 . S
C2271 H2258 0.929 . S
C2271 C2263 1.433 . S
C2271 N2273 1.384 . S
N2272 C2268 1.427 . S
N2272 C2269 1.384 . S
N2273 C2265 1.427 . S
N2273 C2271 1.384 . S
H2274 C2280 0.930 . S
H2275 C2284 0.930 . S
H2276 C2289 0.929 . S
H2277 C2287 0.929 . S
H2278 C2282 0.929 . S
H2279 C2288 0.929 . S
C2280 H2274 0.930 . S
C2280 C2281 1.367 . S
C2280 C2288 1.378 . S
C2281 C2280 1.367 . S
C2281 C2289 1.433 . S
C2282 H2278 0.929 . S
C2282 C2284 1.378 . S
C2282 C2286 1.350 . S
C2283 C2286 1.463 . S
C2283 C2288 1.350 . S
C2283 N2291 1.427 . S
C2284 H2275 0.930 . S
C2284 C2282 1.378 . S
C2284 C2285 1.367 . S
C2285 C2284 1.367 . S
C2285 C2287 1.433 . S
C2286 C2282 1.350 . S
C2286 C2283 1.463 . S
C2286 N2290 1.427 . S
C2287 H2277 0.929 . S
C2287 C2285 1.433 . S
C2287 N2290 1.384 . S
C2288 H2279 0.929 . S
C2288 C2280 1.378 . S
C2288 C2283 1.350 . S
C2289 H2276 0.929 . S
C2289 C2281 1.433 . S
C2289 N2291 1.384 . S
N2290 C2286 1.427 . S
N2290 C2287 1.384 . S
N2291 C2283 1.427 . S
N2291 C2289 1.384 . S
H2292 C2298 0.930 . S
H2293 C2302 0.930 1_565 S
H2294 C2307 0.929 . S
H2295 C2305 0.929 . S
H2296 C2300 0.929 1_565 S
H2297 C2306 0.929 . S
C2298 H2292 0.930 . S
C2298 C2299 1.367 . S
C2298 C2306 1.378 . S
C2299 C2298 1.367 . S
C2299 C2307 1.433 1_545 S
C2300 H2296 0.929 1_545 S
C2300 C2302 1.378 . S
C2300 C2304 1.350 . S
C2301 C2304 1.463 . S
C2301 C2306 1.350 . S
C2301 N2309 1.427 1_545 S
C2302 H2293 0.930 1_545 S
C2302 C2300 1.378 . S
C2302 C2303 1.367 . S
C2303 C2302 1.367 . S
C2303 C2305 1.433 . S
C2304 C2300 1.350 . S
C2304 C2301 1.463 . S
C2304 N2308 1.427 . S
C2305 H2295 0.929 . S
C2305 C2303 1.433 . S
C2305 N2308 1.384 . S
C2306 H2297 0.929 . S
C2306 C2298 1.378 . S
C2306 C2301 1.350 . S
C2307 H2294 0.929 . S
C2307 C2299 1.433 1_565 S
C2307 N2309 1.384 . S
N2308 C2304 1.427 . S
N2308 C2305 1.384 . S
N2309 C2301 1.427 1_565 S
N2309 C2307 1.384 . S
H2310 C2316 0.930 . S
H2311 C2320 0.930 . S
H2312 C2325 0.929 . S
H2313 C2323 0.929 . S
H2314 C2318 0.929 . S
H2315 C2324 0.929 . S
C2316 H2310 0.930 . S
C2316 C2317 1.367 . S
C2316 C2324 1.378 . S
C2317 C2316 1.367 . S
C2317 C2325 1.433 . S
C2318 H2314 0.929 . S
C2318 C2320 1.378 . S
C2318 C2322 1.350 . S
C2319 C2322 1.463 . S
C2319 C2324 1.350 . S
C2319 N2327 1.427 . S
C2320 H2311 0.930 . S
C2320 C2318 1.378 . S
C2320 C2321 1.367 . S
C2321 C2320 1.367 . S
C2321 C2323 1.433 . S
C2322 C2318 1.350 . S
C2322 C2319 1.463 . S
C2322 N2326 1.427 . S
C2323 H2313 0.929 . S
C2323 C2321 1.433 . S
C2323 N2326 1.384 . S
C2324 H2315 0.929 . S
C2324 C2316 1.378 . S
C2324 C2319 1.350 . S
C2325 H2312 0.929 . S
C2325 C2317 1.433 . S
C2325 N2327 1.384 . S
N2326 C2322 1.427 . S
N2326 C2323 1.384 . S
N2327 C2319 1.427 . S
N2327 C2325 1.384 . S
H2328 C2334 0.930 . S
H2329 C2338 0.930 . S
H2330 C2343 0.929 . S
H2331 C2341 0.929 . S
H2332 C2336 0.929 . S
H2333 C2342 0.929 . S
C2334 H2328 0.930 . S
C2334 C2335 1.367 . S
C2334 C2342 1.378 . S
C2335 C2334 1.367 . S
C2335 C2343 1.433 . S
C2336 H2332 0.929 . S
C2336 C2338 1.378 . S
C2336 C2340 1.350 . S
C2337 C2340 1.463 . S
C2337 C2342 1.350 . S
C2337 N2345 1.427 . S
C2338 H2329 0.930 . S
C2338 C2336 1.378 . S
C2338 C2339 1.367 . S
C2339 C2338 1.367 . S
C2339 C2341 1.433 . S
C2340 C2336 1.350 . S
C2340 C2337 1.463 . S
C2340 N2344 1.427 . S
C2341 H2331 0.929 . S
C2341 C2339 1.433 . S
C2341 N2344 1.384 . S
C2342 H2333 0.929 . S
C2342 C2334 1.378 . S
C2342 C2337 1.350 . S
C2343 H2330 0.929 . S
C2343 C2335 1.433 . S
C2343 N2345 1.384 . S
N2344 C2340 1.427 . S
N2344 C2341 1.384 . S
N2345 C2337 1.427 . S
N2345 C2343 1.384 . S
H2346 C2352 0.930 . S
H2347 C2356 0.930 . S
H2348 C2361 0.929 . S
H2349 C2359 0.929 . S
H2350 C2354 0.929 . S
H2351 C2360 0.929 . S
C2352 H2346 0.930 . S
C2352 C2353 1.367 . S
C2352 C2360 1.378 . S
C2353 C2352 1.367 . S
C2353 C2361 1.433 . S
C2354 H2350 0.929 . S
C2354 C2356 1.378 . S
C2354 C2358 1.350 . S
C2355 C2358 1.463 . S
C2355 C2360 1.350 . S
C2355 N2363 1.427 . S
C2356 H2347 0.930 . S
C2356 C2354 1.378 . S
C2356 C2357 1.367 . S
C2357 C2356 1.367 . S
C2357 C2359 1.433 . S
C2358 C2354 1.350 . S
C2358 C2355 1.463 . S
C2358 N2362 1.427 . S
C2359 H2349 0.929 . S
C2359 C2357 1.433 . S
C2359 N2362 1.384 . S
C2360 H2351 0.929 . S
C2360 C2352 1.378 . S
C2360 C2355 1.350 . S
C2361 H2348 0.929 . S
C2361 C2353 1.433 . S
C2361 N2363 1.384 . S
N2362 C2358 1.427 . S
N2362 C2359 1.384 . S
N2363 C2355 1.427 . S
N2363 C2361 1.384 . S
H2364 C2370 0.930 . S
H2365 C2374 0.930 . S
H2366 C2379 0.929 . S
H2367 C2377 0.929 . S
H2368 C2372 0.929 . S
H2369 C2378 0.929 . S
C2370 H2364 0.930 . S
C2370 C2371 1.367 . S
C2370 C2378 1.378 . S
C2371 C2370 1.367 . S
C2371 C2379 1.433 1_545 S
C2372 H2368 0.929 . S
C2372 C2374 1.378 . S
C2372 C2376 1.350 1_565 S
C2373 C2376 1.463 . S
C2373 C2378 1.350 . S
C2373 N2381 1.427 1_545 S
C2374 H2365 0.930 . S
C2374 C2372 1.378 . S
C2374 C2375 1.367 1_565 S
C2375 C2374 1.367 1_545 S
C2375 C2377 1.433 . S
C2376 C2372 1.350 1_545 S
C2376 C2373 1.463 . S
C2376 N2380 1.427 . S
C2377 H2367 0.929 . S
C2377 C2375 1.433 . S
C2377 N2380 1.384 . S
C2378 H2369 0.929 . S
C2378 C2370 1.378 . S
C2378 C2373 1.350 . S
C2379 H2366 0.929 . S
C2379 C2371 1.433 1_565 S
C2379 N2381 1.384 . S
N2380 C2376 1.427 . S
N2380 C2377 1.384 . S
N2381 C2373 1.427 1_565 S
N2381 C2379 1.384 . S
H2382 C2388 0.930 . S
H2383 C2392 0.930 . S
H2384 C2397 0.929 . S
H2385 C2395 0.929 . S
H2386 C2390 0.929 . S
H2387 C2396 0.929 . S
C2388 H2382 0.930 . S
C2388 C2389 1.367 . S
C2388 C2396 1.378 . S
C2389 C2388 1.367 . S
C2389 C2397 1.433 . S
C2390 H2386 0.929 . S
C2390 C2392 1.378 . S
C2390 C2394 1.350 . S
C2391 C2394 1.463 . S
C2391 C2396 1.350 . S
C2391 N2399 1.427 . S
C2392 H2383 0.930 . S
C2392 C2390 1.378 . S
C2392 C2393 1.367 . S
C2393 C2392 1.367 . S
C2393 C2395 1.433 . S
C2394 C2390 1.350 . S
C2394 C2391 1.463 . S
C2394 N2398 1.427 . S
C2395 H2385 0.929 . S
C2395 C2393 1.433 . S
C2395 N2398 1.384 . S
C2396 H2387 0.929 . S
C2396 C2388 1.378 . S
C2396 C2391 1.350 . S
C2397 H2384 0.929 . S
C2397 C2389 1.433 . S
C2397 N2399 1.384 . S
N2398 C2394 1.427 . S
N2398 C2395 1.384 . S
N2399 C2391 1.427 . S
N2399 C2397 1.384 . S
H2400 C2406 0.930 . S
H2401 C2410 0.930 1_556 S
H2402 C2415 0.929 . S
H2403 C2413 0.929 . S
H2404 C2408 0.929 . S
H2405 C2414 0.929 . S
C2406 H2400 0.930 . S
C2406 C2407 1.367 . S
C2406 C2414 1.378 . S
C2407 C2406 1.367 . S
C2407 C2415 1.433 . S
C2408 H2404 0.929 . S
C2408 C2410 1.378 . S
C2408 C2412 1.350 . S
C2409 C2412 1.463 . S
C2409 C2414 1.350 . S
C2409 N2417 1.427 . S
C2410 H2401 0.930 1_554 S
C2410 C2408 1.378 . S
C2410 C2411 1.367 . S
C2411 C2410 1.367 . S
C2411 C2413 1.433 . S
C2412 C2408 1.350 . S
C2412 C2409 1.463 . S
C2412 N2416 1.427 . S
C2413 H2403 0.929 . S
C2413 C2411 1.433 . S
C2413 N2416 1.384 . S
C2414 H2405 0.929 . S
C2414 C2406 1.378 . S
C2414 C2409 1.350 . S
C2415 H2402 0.929 . S
C2415 C2407 1.433 . S
C2415 N2417 1.384 . S
N2416 C2412 1.427 . S
N2416 C2413 1.384 . S
N2417 C2409 1.427 . S
N2417 C2415 1.384 . S
H2418 C2424 0.930 . S
H2419 C2428 0.930 . S
H2420 C2433 0.929 . S
H2421 C2431 0.929 . S
H2422 C2426 0.929 . S
H2423 C2432 0.929 . S
C2424 H2418 0.930 . S
C2424 C2425 1.367 . S
C2424 C2432 1.378 . S
C2425 C2424 1.367 . S
C2425 C2433 1.433 . S
C2426 H2422 0.929 . S
C2426 C2428 1.378 . S
C2426 C2430 1.350 . S
C2427 C2430 1.463 . S
C2427 C2432 1.350 . S
C2427 N2435 1.427 . S
C2428 H2419 0.930 . S
C2428 C2426 1.378 . S
C2428 C2429 1.367 . S
C2429 C2428 1.367 . S
C2429 C2431 1.433 . S
C2430 C2426 1.350 . S
C2430 C2427 1.463 . S
C2430 N2434 1.427 . S
C2431 H2421 0.929 . S
C2431 C2429 1.433 . S
C2431 N2434 1.384 . S
C2432 H2423 0.929 . S
C2432 C2424 1.378 . S
C2432 C2427 1.350 . S
C2433 H2420 0.929 . S
C2433 C2425 1.433 . S
C2433 N2435 1.384 . S
N2434 C2430 1.427 . S
N2434 C2431 1.384 . S
N2435 C2427 1.427 . S
N2435 C2433 1.384 . S
H2436 C2442 0.930 . S
H2437 C2446 0.930 . S
H2438 C2451 0.929 . S
H2439 C2449 0.929 . S
H2440 C2444 0.929 . S
H2441 C2450 0.929 . S
C2442 H2436 0.930 . S
C2442 C2443 1.367 . S
C2442 C2450 1.378 . S
C2443 C2442 1.367 . S
C2443 C2451 1.433 . S
C2444 H2440 0.929 . S
C2444 C2446 1.378 . S
C2444 C2448 1.350 . S
C2445 C2448 1.463 . S
C2445 C2450 1.350 . S
C2445 N2453 1.427 . S
C2446 H2437 0.930 . S
C2446 C2444 1.378 . S
C2446 C2447 1.367 . S
C2447 C2446 1.367 . S
C2447 C2449 1.433 . S
C2448 C2444 1.350 . S
C2448 C2445 1.463 . S
C2448 N2452 1.427 . S
C2449 H2439 0.929 . S
C2449 C2447 1.433 . S
C2449 N2452 1.384 . S
C2450 H2441 0.929 . S
C2450 C2442 1.378 . S
C2450 C2445 1.350 . S
C2451 H2438 0.929 . S
C2451 C2443 1.433 . S
C2451 N2453 1.384 . S
N2452 C2448 1.427 . S
N2452 C2449 1.384 . S
N2453 C2445 1.427 . S
N2453 C2451 1.384 . S
H2454 C2460 0.930 . S
H2455 C2464 0.930 . S
H2456 C2469 0.929 . S
H2457 C2467 0.929 . S
H2458 C2462 0.929 . S
H2459 C2468 0.929 . S
C2460 H2454 0.930 . S
C2460 C2461 1.367 . S
C2460 C2468 1.378 . S
C2461 C2460 1.367 . S
C2461 C2469 1.433 . S
C2462 H2458 0.929 . S
C2462 C2464 1.378 . S
C2462 C2466 1.350 . S
C2463 C2466 1.463 . S
C2463 C2468 1.350 . S
C2463 N2471 1.427 . S
C2464 H2455 0.930 . S
C2464 C2462 1.378 . S
C2464 C2465 1.367 . S
C2465 C2464 1.367 . S
C2465 C2467 1.433 . S
C2466 C2462 1.350 . S
C2466 C2463 1.463 . S
C2466 N2470 1.427 . S
C2467 H2457 0.929 . S
C2467 C2465 1.433 . S
C2467 N2470 1.384 . S
C2468 H2459 0.929 . S
C2468 C2460 1.378 . S
C2468 C2463 1.350 . S
C2469 H2456 0.929 . S
C2469 C2461 1.433 . S
C2469 N2471 1.384 . S
N2470 C2466 1.427 . S
N2470 C2467 1.384 . S
N2471 C2463 1.427 . S
N2471 C2469 1.384 . S
H2472 C2478 0.930 . S
H2473 C2482 0.930 . S
H2474 C2487 0.929 . S
H2475 C2485 0.929 . S
H2476 C2480 0.929 . S
H2477 C2486 0.929 1_545 S
C2478 H2472 0.930 . S
C2478 C2479 1.367 . S
C2478 C2486 1.378 1_545 S
C2479 C2478 1.367 . S
C2479 C2487 1.433 1_545 S
C2480 H2476 0.929 . S
C2480 C2482 1.378 . S
C2480 C2484 1.350 . S
C2481 C2484 1.463 . S
C2481 C2486 1.350 . S
C2481 N2489 1.427 . S
C2482 H2473 0.930 . S
C2482 C2480 1.378 . S
C2482 C2483 1.367 . S
C2483 C2482 1.367 . S
C2483 C2485 1.433 . S
C2484 C2480 1.350 . S
C2484 C2481 1.463 . S
C2484 N2488 1.427 . S
C2485 H2475 0.929 . S
C2485 C2483 1.433 . S
C2485 N2488 1.384 . S
C2486 H2477 0.929 1_565 S
C2486 C2478 1.378 1_565 S
C2486 C2481 1.350 . S
C2487 H2474 0.929 . S
C2487 C2479 1.433 1_565 S
C2487 N2489 1.384 . S
N2488 C2484 1.427 . S
N2488 C2485 1.384 . S
N2489 C2481 1.427 . S
N2489 C2487 1.384 . S
H2490 C2496 0.930 . S
H2491 C2500 0.930 . S
H2492 C2505 0.929 . S
H2493 C2503 0.929 . S
H2494 C2498 0.929 . S
H2495 C2504 0.929 . S
C2496 H2490 0.930 . S
C2496 C2497 1.367 . S
C2496 C2504 1.378 . S
C2497 C2496 1.367 . S
C2497 C2505 1.433 . S
C2498 H2494 0.929 . S
C2498 C2500 1.378 . S
C2498 C2502 1.350 . S
C2499 C2502 1.463 . S
C2499 C2504 1.350 . S
C2499 N2507 1.427 . S
C2500 H2491 0.930 . S
C2500 C2498 1.378 . S
C2500 C2501 1.367 . S
C2501 C2500 1.367 . S
C2501 C2503 1.433 . S
C2502 C2498 1.350 . S
C2502 C2499 1.463 . S
C2502 N2506 1.427 . S
C2503 H2493 0.929 . S
C2503 C2501 1.433 . S
C2503 N2506 1.384 . S
C2504 H2495 0.929 . S
C2504 C2496 1.378 . S
C2504 C2499 1.350 . S
C2505 H2492 0.929 . S
C2505 C2497 1.433 . S
C2505 N2507 1.384 . S
N2506 C2502 1.427 . S
N2506 C2503 1.384 . S
N2507 C2499 1.427 . S
N2507 C2505 1.384 . S
H2508 C2514 0.930 . S
H2509 C2518 0.930 . S
H2510 C2523 0.929 . S
H2511 C2521 0.929 . S
H2512 C2516 0.929 . S
H2513 C2522 0.929 . S
C2514 H2508 0.930 . S
C2514 C2515 1.367 . S
C2514 C2522 1.378 . S
C2515 C2514 1.367 . S
C2515 C2523 1.433 . S
C2516 H2512 0.929 . S
C2516 C2518 1.378 . S
C2516 C2520 1.350 . S
C2517 C2520 1.463 . S
C2517 C2522 1.350 . S
C2517 N2525 1.427 . S
C2518 H2509 0.930 . S
C2518 C2516 1.378 . S
C2518 C2519 1.367 . S
C2519 C2518 1.367 . S
C2519 C2521 1.433 . S
C2520 C2516 1.350 . S
C2520 C2517 1.463 . S
C2520 N2524 1.427 . S
C2521 H2511 0.929 . S
C2521 C2519 1.433 . S
C2521 N2524 1.384 . S
C2522 H2513 0.929 . S
C2522 C2514 1.378 . S
C2522 C2517 1.350 . S
C2523 H2510 0.929 . S
C2523 C2515 1.433 . S
C2523 N2525 1.384 . S
N2524 C2520 1.427 . S
N2524 C2521 1.384 . S
N2525 C2517 1.427 . S
N2525 C2523 1.384 . S
H2526 C2532 0.930 . S
H2527 C2536 0.930 . S
H2528 C2541 0.929 . S
H2529 C2539 0.929 . S
H2530 C2534 0.929 . S
H2531 C2540 0.929 . S
C2532 H2526 0.930 . S
C2532 C2533 1.367 . S
C2532 C2540 1.378 . S
C2533 C2532 1.367 . S
C2533 C2541 1.433 . S
C2534 H2530 0.929 . S
C2534 C2536 1.378 . S
C2534 C2538 1.350 . S
C2535 C2538 1.463 . S
C2535 C2540 1.350 . S
C2535 N2543 1.427 . S
C2536 H2527 0.930 . S
C2536 C2534 1.378 . S
C2536 C2537 1.367 . S
C2537 C2536 1.367 . S
C2537 C2539 1.433 . S
C2538 C2534 1.350 . S
C2538 C2535 1.463 . S
C2538 N2542 1.427 . S
C2539 H2529 0.929 . S
C2539 C2537 1.433 . S
C2539 N2542 1.384 . S
C2540 H2531 0.929 . S
C2540 C2532 1.378 . S
C2540 C2535 1.350 . S
C2541 H2528 0.929 . S
C2541 C2533 1.433 . S
C2541 N2543 1.384 . S
N2542 C2538 1.427 . S
N2542 C2539 1.384 . S
N2543 C2535 1.427 . S
N2543 C2541 1.384 . S
H2544 C2550 0.930 . S
H2545 C2554 0.930 . S
H2546 C2559 0.929 . S
H2547 C2557 0.929 . S
H2548 C2552 0.929 . S
H2549 C2558 0.929 . S
C2550 H2544 0.930 . S
C2550 C2551 1.367 . S
C2550 C2558 1.378 . S
C2551 C2550 1.367 . S
C2551 C2559 1.433 . S
C2552 H2548 0.929 . S
C2552 C2554 1.378 . S
C2552 C2556 1.350 . S
C2553 C2556 1.463 . S
C2553 C2558 1.350 . S
C2553 N2561 1.427 . S
C2554 H2545 0.930 . S
C2554 C2552 1.378 . S
C2554 C2555 1.367 . S
C2555 C2554 1.367 . S
C2555 C2557 1.433 . S
C2556 C2552 1.350 . S
C2556 C2553 1.463 . S
C2556 N2560 1.427 . S
C2557 H2547 0.929 . S
C2557 C2555 1.433 . S
C2557 N2560 1.384 . S
C2558 H2549 0.929 . S
C2558 C2550 1.378 . S
C2558 C2553 1.350 . S
C2559 H2546 0.929 . S
C2559 C2551 1.433 . S
C2559 N2561 1.384 . S
N2560 C2556 1.427 . S
N2560 C2557 1.384 . S
N2561 C2553 1.427 . S
N2561 C2559 1.384 . S
H2562 C2568 0.930 . S
H2563 C2572 0.930 . S
H2564 C2577 0.929 . S
H2565 C2575 0.929 . S
H2566 C2570 0.929 . S
H2567 C2576 0.929 . S
C2568 H2562 0.930 . S
C2568 C2569 1.367 . S
C2568 C2576 1.378 . S
C2569 C2568 1.367 . S
C2569 C2577 1.433 . S
C2570 H2566 0.929 . S
C2570 C2572 1.378 . S
C2570 C2574 1.350 . S
C2571 C2574 1.463 . S
C2571 C2576 1.350 . S
C2571 N2579 1.427 . S
C2572 H2563 0.930 . S
C2572 C2570 1.378 . S
C2572 C2573 1.367 . S
C2573 C2572 1.367 . S
C2573 C2575 1.433 . S
C2574 C2570 1.350 . S
C2574 C2571 1.463 . S
C2574 N2578 1.427 . S
C2575 H2565 0.929 . S
C2575 C2573 1.433 . S
C2575 N2578 1.384 . S
C2576 H2567 0.929 . S
C2576 C2568 1.378 . S
C2576 C2571 1.350 . S
C2577 H2564 0.929 . S
C2577 C2569 1.433 . S
C2577 N2579 1.384 . S
N2578 C2574 1.427 . S
N2578 C2575 1.384 . S
N2579 C2571 1.427 . S
N2579 C2577 1.384 . S
H2580 C2586 0.930 . S
H2581 C2590 0.930 . S
H2582 C2595 0.929 . S
H2583 C2593 0.929 . S
H2584 C2588 0.929 . S
H2585 C2594 0.929 1_554 S
C2586 H2580 0.930 . S
C2586 C2587 1.367 . S
C2586 C2594 1.378 . S
C2587 C2586 1.367 . S
C2587 C2595 1.433 1_455 S
C2588 H2584 0.929 . S
C2588 C2590 1.378 . S
C2588 C2592 1.350 1_655 S
C2589 C2592 1.463 . S
C2589 C2594 1.350 . S
C2589 N2597 1.427 1_455 S
C2590 H2581 0.930 . S
C2590 C2588 1.378 . S
C2590 C2591 1.367 1_656 S
C2591 C2590 1.367 1_454 S
C2591 C2593 1.433 . S
C2592 C2588 1.350 1_455 S
C2592 C2589 1.463 . S
C2592 N2596 1.427 1_556 S
C2593 H2583 0.929 . S
C2593 C2591 1.433 . S
C2593 N2596 1.384 . S
C2594 H2585 0.929 1_556 S
C2594 C2586 1.378 . S
C2594 C2589 1.350 . S
C2595 H2582 0.929 . S
C2595 C2587 1.433 1_655 S
C2595 N2597 1.384 . S
N2596 C2592 1.427 1_554 S
N2596 C2593 1.384 . S
N2597 C2589 1.427 1_655 S
N2597 C2595 1.384 . S
H2598 C2604 0.930 . S
H2599 C2608 0.930 . S
H2600 C2613 0.929 . S
H2601 C2611 0.929 . S
H2602 C2606 0.929 . S
H2603 C2612 0.929 . S
C2604 H2598 0.930 . S
C2604 C2605 1.367 . S
C2604 C2612 1.378 1_455 S
C2605 C2604 1.367 . S
C2605 C2613 1.433 1_455 S
C2606 H2602 0.929 . S
C2606 C2608 1.378 . S
C2606 C2610 1.350 . S
C2607 C2610 1.463 . S
C2607 C2612 1.350 . S
C2607 N2615 1.427 . S
C2608 H2599 0.930 . S
C2608 C2606 1.378 . S
C2608 C2609 1.367 . S
C2609 C2608 1.367 . S
C2609 C2611 1.433 . S
C2610 C2606 1.350 . S
C2610 C2607 1.463 . S
C2610 N2614 1.427 . S
C2611 H2601 0.929 . S
C2611 C2609 1.433 . S
C2611 N2614 1.384 . S
C2612 H2603 0.929 . S
C2612 C2604 1.378 1_655 S
C2612 C2607 1.350 . S
C2613 H2600 0.929 . S
C2613 C2605 1.433 1_655 S
C2613 N2615 1.384 . S
N2614 C2610 1.427 . S
N2614 C2611 1.384 . S
N2615 C2607 1.427 . S
N2615 C2613 1.384 . S
H2616 C2622 0.930 . S
H2617 C2626 0.930 . S
H2618 C2631 0.929 . S
H2619 C2629 0.929 . S
H2620 C2624 0.929 . S
H2621 C2630 0.929 . S
C2622 H2616 0.930 . S
C2622 C2623 1.367 . S
C2622 C2630 1.378 . S
C2623 C2622 1.367 . S
C2623 C2631 1.433 . S
C2624 H2620 0.929 . S
C2624 C2626 1.378 . S
C2624 C2628 1.350 . S
C2625 C2628 1.463 . S
C2625 C2630 1.350 . S
C2625 N2633 1.427 . S
C2626 H2617 0.930 . S
C2626 C2624 1.378 . S
C2626 C2627 1.367 . S
C2627 C2626 1.367 . S
C2627 C2629 1.433 . S
C2628 C2624 1.350 . S
C2628 C2625 1.463 . S
C2628 N2632 1.427 . S
C2629 H2619 0.929 . S
C2629 C2627 1.433 . S
C2629 N2632 1.384 . S
C2630 H2621 0.929 . S
C2630 C2622 1.378 . S
C2630 C2625 1.350 . S
C2631 H2618 0.929 . S
C2631 C2623 1.433 . S
C2631 N2633 1.384 . S
N2632 C2628 1.427 . S
N2632 C2629 1.384 . S
N2633 C2625 1.427 . S
N2633 C2631 1.384 . S
H2634 C2640 0.930 . S
H2635 C2644 0.930 . S
H2636 C2649 0.929 . S
H2637 C2647 0.929 . S
H2638 C2642 0.929 . S
H2639 C2648 0.929 . S
C2640 H2634 0.930 . S
C2640 C2641 1.367 . S
C2640 C2648 1.378 . S
C2641 C2640 1.367 . S
C2641 C2649 1.433 . S
C2642 H2638 0.929 . S
C2642 C2644 1.378 . S
C2642 C2646 1.350 . S
C2643 C2646 1.463 . S
C2643 C2648 1.350 . S
C2643 N2651 1.427 . S
C2644 H2635 0.930 . S
C2644 C2642 1.378 . S
C2644 C2645 1.367 . S
C2645 C2644 1.367 . S
C2645 C2647 1.433 . S
C2646 C2642 1.350 . S
C2646 C2643 1.463 . S
C2646 N2650 1.427 . S
C2647 H2637 0.929 . S
C2647 C2645 1.433 . S
C2647 N2650 1.384 . S
C2648 H2639 0.929 . S
C2648 C2640 1.378 . S
C2648 C2643 1.350 . S
C2649 H2636 0.929 . S
C2649 C2641 1.433 . S
C2649 N2651 1.384 . S
N2650 C2646 1.427 . S
N2650 C2647 1.384 . S
N2651 C2643 1.427 . S
N2651 C2649 1.384 . S
H2652 C2658 0.930 . S
H2653 C2662 0.930 1_655 S
H2654 C2667 0.929 . S
H2655 C2665 0.929 . S
H2656 C2660 0.929 1_655 S
H2657 C2666 0.929 . S
C2658 H2652 0.930 . S
C2658 C2659 1.367 . S
C2658 C2666 1.378 . S
C2659 C2658 1.367 . S
C2659 C2667 1.433 1_455 S
C2660 H2656 0.929 1_455 S
C2660 C2662 1.378 . S
C2660 C2664 1.350 . S
C2661 C2664 1.463 . S
C2661 C2666 1.350 . S
C2661 N2669 1.394 1_455 S
C2662 H2653 0.930 1_455 S
C2662 C2660 1.378 . S
C2662 C2663 1.367 . S
C2663 C2662 1.367 . S
C2663 C2665 1.433 . S
C2664 C2660 1.350 . S
C2664 C2661 1.463 . S
C2664 N2668 1.427 . S
C2665 H2655 0.929 . S
C2665 C2663 1.433 . S
C2665 N2668 1.384 . S
C2666 H2657 0.929 . S
C2666 C2658 1.378 . S
C2666 C2661 1.350 . S
C2667 H2654 0.929 . S
C2667 C2659 1.433 1_655 S
C2667 N2669 1.398 . S
N2668 C2664 1.427 . S
N2668 C2665 1.384 . S
N2669 C2661 1.394 1_655 S
N2669 C2667 1.398 . S
H2670 C2676 0.930 . S
H2671 C2680 0.930 . S
H2672 C2685 0.929 . S
H2673 C2683 0.929 . S
H2674 C2678 0.929 . S
H2675 C2684 0.929 . S
C2676 H2670 0.930 . S
C2676 C2677 1.367 . S
C2676 C2684 1.378 . S
C2677 C2676 1.367 . S
C2677 C2685 1.433 . S
C2678 H2674 0.929 . S
C2678 C2680 1.378 . S
C2678 C2682 1.350 . S
C2679 C2682 1.463 . S
C2679 C2684 1.350 . S
C2679 N2687 1.427 . S
C2680 H2671 0.930 . S
C2680 C2678 1.378 . S
C2680 C2681 1.367 . S
C2681 C2680 1.367 . S
C2681 C2683 1.433 . S
C2682 C2678 1.350 . S
C2682 C2679 1.463 . S
C2682 N2686 1.427 . S
C2683 H2673 0.929 . S
C2683 C2681 1.433 . S
C2683 N2686 1.384 . S
C2684 H2675 0.929 . S
C2684 C2676 1.378 . S
C2684 C2679 1.350 . S
C2685 H2672 0.929 . S
C2685 C2677 1.433 . S
C2685 N2687 1.384 . S
N2686 C2682 1.427 . S
N2686 C2683 1.384 . S
N2687 C2679 1.427 . S
N2687 C2685 1.384 . S
H2688 C2694 0.930 . S
H2689 C2698 0.930 . S
H2690 C2703 0.929 . S
H2691 C2701 0.929 . S
H2692 C2696 0.929 . S
H2693 C2702 0.929 . S
C2694 H2688 0.930 . S
C2694 C2695 1.367 . S
C2694 C2702 1.378 . S
C2695 C2694 1.367 . S
C2695 C2703 1.433 . S
C2696 H2692 0.929 . S
C2696 C2698 1.378 . S
C2696 C2700 1.350 . S
C2697 C2700 1.463 . S
C2697 C2702 1.350 . S
C2697 N2705 1.427 . S
C2698 H2689 0.930 . S
C2698 C2696 1.378 . S
C2698 C2699 1.367 . S
C2699 C2698 1.367 . S
C2699 C2701 1.433 . S
C2700 C2696 1.350 . S
C2700 C2697 1.463 . S
C2700 N2704 1.427 . S
C2701 H2691 0.929 . S
C2701 C2699 1.433 . S
C2701 N2704 1.384 . S
C2702 H2693 0.929 . S
C2702 C2694 1.378 . S
C2702 C2697 1.350 . S
C2703 H2690 0.929 . S
C2703 C2695 1.433 . S
C2703 N2705 1.384 . S
N2704 C2700 1.427 . S
N2704 C2701 1.384 . S
N2705 C2697 1.427 . S
N2705 C2703 1.384 . S
H2706 C2712 0.930 . S
H2707 C2716 0.930 . S
H2708 C2721 0.929 . S
H2709 C2719 0.929 . S
H2710 C2714 0.929 . S
H2711 C2720 0.929 . S
C2712 H2706 0.930 . S
C2712 C2713 1.367 1_556 S
C2712 C2720 1.378 . S
C2713 C2712 1.367 1_554 S
C2713 C2721 1.433 . S
C2714 H2710 0.929 . S
C2714 C2716 1.378 . S
C2714 C2718 1.350 . S
C2715 C2718 1.463 . S
C2715 C2720 1.350 . S
C2715 N2723 1.427 . S
C2716 H2707 0.930 . S
C2716 C2714 1.378 . S
C2716 C2717 1.367 . S
C2717 C2716 1.367 . S
C2717 C2719 1.433 . S
C2718 C2714 1.350 . S
C2718 C2715 1.463 . S
C2718 N2722 1.427 . S
C2719 H2709 0.929 . S
C2719 C2717 1.433 . S
C2719 N2722 1.384 . S
C2720 H2711 0.929 . S
C2720 C2712 1.378 . S
C2720 C2715 1.350 . S
C2721 H2708 0.929 . S
C2721 C2713 1.433 . S
C2721 N2723 1.384 1_554 S
N2722 C2718 1.427 . S
N2722 C2719 1.384 . S
N2723 C2715 1.427 . S
N2723 C2721 1.384 1_556 S
H2724 C2730 0.930 . S
H2725 C2734 0.930 . S
H2726 C2739 0.929 . S
H2727 C2737 0.929 . S
H2728 C2732 0.929 . S
H2729 C2738 0.929 . S
C2730 H2724 0.930 . S
C2730 C2731 1.367 . S
C2730 C2738 1.378 . S
C2731 C2730 1.367 . S
C2731 C2739 1.433 . S
C2732 H2728 0.929 . S
C2732 C2734 1.378 . S
C2732 C2736 1.350 . S
C2733 C2736 1.463 . S
C2733 C2738 1.350 . S
C2733 N2741 1.427 . S
C2734 H2725 0.930 . S
C2734 C2732 1.378 . S
C2734 C2735 1.367 . S
C2735 C2734 1.367 . S
C2735 C2737 1.433 . S
C2736 C2732 1.350 . S
C2736 C2733 1.463 . S
C2736 N2740 1.427 . S
C2737 H2727 0.929 . S
C2737 C2735 1.433 . S
C2737 N2740 1.384 . S
C2738 H2729 0.929 . S
C2738 C2730 1.378 . S
C2738 C2733 1.350 . S
C2739 H2726 0.929 . S
C2739 C2731 1.433 . S
C2739 N2741 1.384 . S
N2740 C2736 1.427 . S
N2740 C2737 1.384 . S
N2741 C2733 1.427 . S
N2741 C2739 1.384 . S
H2742 C2748 0.930 . S
H2743 C2752 0.930 . S
H2744 C2757 0.929 . S
H2745 C2755 0.929 . S
H2746 C2750 0.929 . S
H2747 C2756 0.929 . S
C2748 H2742 0.930 . S
C2748 C2749 1.367 . S
C2748 C2756 1.378 . S
C2749 C2748 1.367 . S
C2749 C2757 1.433 . S
C2750 H2746 0.929 . S
C2750 C2752 1.378 . S
C2750 C2754 1.350 . S
C2751 C2754 1.463 . S
C2751 C2756 1.350 . S
C2751 N2759 1.427 . S
C2752 H2743 0.930 . S
C2752 C2750 1.378 . S
C2752 C2753 1.367 . S
C2753 C2752 1.367 . S
C2753 C2755 1.433 . S
C2754 C2750 1.350 . S
C2754 C2751 1.463 . S
C2754 N2758 1.427 . S
C2755 H2745 0.929 . S
C2755 C2753 1.433 . S
C2755 N2758 1.384 . S
C2756 H2747 0.929 . S
C2756 C2748 1.378 . S
C2756 C2751 1.350 . S
C2757 H2744 0.929 . S
C2757 C2749 1.433 . S
C2757 N2759 1.384 . S
N2758 C2754 1.427 . S
N2758 C2755 1.384 . S
N2759 C2751 1.427 . S
N2759 C2757 1.384 . S
H2760 C2766 0.930 . S
H2761 C2770 0.930 . S
H2762 C2775 0.929 . S
H2763 C2773 0.929 . S
H2764 C2768 0.929 . S
H2765 C2774 0.929 . S
C2766 H2760 0.930 . S
C2766 C2767 1.367 . S
C2766 C2774 1.378 . S
C2767 C2766 1.367 . S
C2767 C2775 1.433 . S
C2768 H2764 0.929 . S
C2768 C2770 1.378 . S
C2768 C2772 1.350 . S
C2769 C2772 1.463 . S
C2769 C2774 1.350 . S
C2769 N2777 1.427 . S
C2770 H2761 0.930 . S
C2770 C2768 1.378 . S
C2770 C2771 1.367 . S
C2771 C2770 1.367 . S
C2771 C2773 1.433 . S
C2772 C2768 1.350 . S
C2772 C2769 1.463 . S
C2772 N2776 1.427 . S
C2773 H2763 0.929 . S
C2773 C2771 1.433 . S
C2773 N2776 1.384 . S
C2774 H2765 0.929 . S
C2774 C2766 1.378 . S
C2774 C2769 1.350 . S
C2775 H2762 0.929 . S
C2775 C2767 1.433 . S
C2775 N2777 1.384 . S
N2776 C2772 1.427 . S
N2776 C2773 1.384 . S
N2777 C2769 1.427 . S
N2777 C2775 1.384 . S
H2778 C2784 0.930 . S
H2779 C2788 0.930 . S
H2780 C2793 0.929 . S
H2781 C2791 0.929 . S
H2782 C2786 0.929 . S
H2783 C2792 0.929 . S
C2784 H2778 0.930 . S
C2784 C2785 1.367 . S
C2784 C2792 1.378 . S
C2785 C2784 1.367 . S
C2785 C2793 1.433 . S
C2786 H2782 0.929 . S
C2786 C2788 1.378 . S
C2786 C2790 1.350 . S
C2787 C2790 1.463 . S
C2787 C2792 1.350 . S
C2787 N2795 1.427 . S
C2788 H2779 0.930 . S
C2788 C2786 1.378 . S
C2788 C2789 1.367 . S
C2789 C2788 1.367 . S
C2789 C2791 1.433 . S
C2790 C2786 1.350 . S
C2790 C2787 1.463 . S
C2790 N2794 1.427 . S
C2791 H2781 0.929 . S
C2791 C2789 1.433 . S
C2791 N2794 1.384 . S
C2792 H2783 0.929 . S
C2792 C2784 1.378 . S
C2792 C2787 1.350 . S
C2793 H2780 0.929 . S
C2793 C2785 1.433 . S
C2793 N2795 1.384 . S
N2794 C2790 1.427 . S
N2794 C2791 1.384 . S
N2795 C2787 1.427 . S
N2795 C2793 1.384 . S
H2796 C2802 0.930 . S
H2797 C2806 0.930 . S
H2798 C2811 0.929 . S
H2799 C2809 0.929 . S
H2800 C2804 0.929 . S
H2801 C2810 0.929 . S
C2802 H2796 0.930 . S
C2802 C2803 1.367 . S
C2802 C2810 1.378 . S
C2803 C2802 1.367 . S
C2803 C2811 1.433 . S
C2804 H2800 0.929 . S
C2804 C2806 1.378 . S
C2804 C2808 1.350 . S
C2805 C2808 1.463 . S
C2805 C2810 1.350 . S
C2805 N2813 1.427 . S
C2806 H2797 0.930 . S
C2806 C2804 1.378 . S
C2806 C2807 1.367 . S
C2807 C2806 1.367 . S
C2807 C2809 1.433 . S
C2808 C2804 1.350 . S
C2808 C2805 1.463 . S
C2808 N2812 1.427 . S
C2809 H2799 0.929 . S
C2809 C2807 1.433 . S
C2809 N2812 1.384 . S
C2810 H2801 0.929 . S
C2810 C2802 1.378 . S
C2810 C2805 1.350 . S
C2811 H2798 0.929 . S
C2811 C2803 1.433 . S
C2811 N2813 1.384 . S
N2812 C2808 1.427 . S
N2812 C2809 1.384 . S
N2813 C2805 1.427 . S
N2813 C2811 1.384 . S
H2814 C2820 0.930 . S
H2815 C2824 0.930 . S
H2816 C2829 0.929 . S
H2817 C2827 0.929 . S
H2818 C2822 0.929 . S
H2819 C2828 0.929 . S
C2820 H2814 0.930 . S
C2820 C2821 1.367 . S
C2820 C2828 1.378 . S
C2821 C2820 1.367 . S
C2821 C2829 1.433 . S
C2822 H2818 0.929 . S
C2822 C2824 1.378 . S
C2822 C2826 1.350 . S
C2823 C2826 1.463 . S
C2823 C2828 1.350 . S
C2823 N2831 1.427 . S
C2824 H2815 0.930 . S
C2824 C2822 1.378 . S
C2824 C2825 1.367 . S
C2825 C2824 1.367 . S
C2825 C2827 1.433 . S
C2826 C2822 1.350 . S
C2826 C2823 1.463 . S
C2826 N2830 1.427 . S
C2827 H2817 0.929 . S
C2827 C2825 1.433 . S
C2827 N2830 1.384 . S
C2828 H2819 0.929 . S
C2828 C2820 1.378 . S
C2828 C2823 1.350 . S
C2829 H2816 0.929 . S
C2829 C2821 1.433 . S
C2829 N2831 1.384 . S
N2830 C2826 1.427 . S
N2830 C2827 1.384 . S
N2831 C2823 1.427 . S
N2831 C2829 1.384 . S
H2832 C2838 0.930 . S
H2833 C2842 0.930 . S
H2834 C2847 0.929 . S
H2835 C2845 0.929 . S
H2836 C2840 0.929 . S
H2837 C2846 0.929 . S
C2838 H2832 0.930 . S
C2838 C2839 1.367 . S
C2838 C2846 1.378 . S
C2839 C2838 1.367 . S
C2839 C2847 1.433 . S
C2840 H2836 0.929 . S
C2840 C2842 1.378 . S
C2840 C2844 1.350 . S
C2841 C2844 1.463 . S
C2841 C2846 1.350 . S
C2841 N2849 1.427 . S
C2842 H2833 0.930 . S
C2842 C2840 1.378 . S
C2842 C2843 1.367 . S
C2843 C2842 1.367 . S
C2843 C2845 1.433 . S
C2844 C2840 1.350 . S
C2844 C2841 1.463 . S
C2844 N2848 1.427 . S
C2845 H2835 0.929 . S
C2845 C2843 1.433 . S
C2845 N2848 1.384 . S
C2846 H2837 0.929 . S
C2846 C2838 1.378 . S
C2846 C2841 1.350 . S
C2847 H2834 0.929 . S
C2847 C2839 1.433 . S
C2847 N2849 1.384 . S
N2848 C2844 1.427 . S
N2848 C2845 1.384 . S
N2849 C2841 1.427 . S
N2849 C2847 1.384 . S
H2850 C2856 0.930 . S
H2851 C2860 0.930 . S
H2852 C2865 0.929 . S
H2853 C2863 0.929 . S
H2854 C2858 0.929 . S
H2855 C2864 0.929 . S
C2856 H2850 0.930 . S
C2856 C2857 1.367 . S
C2856 C2864 1.378 . S
C2857 C2856 1.367 . S
C2857 C2865 1.433 . S
C2858 H2854 0.929 . S
C2858 C2860 1.378 . S
C2858 C2862 1.350 . S
C2859 C2862 1.463 . S
C2859 C2864 1.350 . S
C2859 N2867 1.427 . S
C2860 H2851 0.930 . S
C2860 C2858 1.378 . S
C2860 C2861 1.367 . S
C2861 C2860 1.367 . S
C2861 C2863 1.433 . S
C2862 C2858 1.350 . S
C2862 C2859 1.463 . S
C2862 N2866 1.427 . S
C2863 H2853 0.929 . S
C2863 C2861 1.433 . S
C2863 N2866 1.384 . S
C2864 H2855 0.929 . S
C2864 C2856 1.378 . S
C2864 C2859 1.350 . S
C2865 H2852 0.929 . S
C2865 C2857 1.433 . S
C2865 N2867 1.384 . S
N2866 C2862 1.427 . S
N2866 C2863 1.384 . S
N2867 C2859 1.427 . S
N2867 C2865 1.384 . S
H2868 C2874 0.930 1_545 S
H2869 C2878 0.930 . S
H2870 C2883 0.929 . S
H2871 C2881 0.929 . S
H2872 C2876 0.929 . S
H2873 C2882 0.929 . S
C2874 H2868 0.930 1_565 S
C2874 C2875 1.367 . S
C2874 C2882 1.378 . S
C2875 C2874 1.367 . S
C2875 C2883 1.433 . S
C2876 H2872 0.929 . S
C2876 C2878 1.378 . S
C2876 C2880 1.350 . S
C2877 C2880 1.463 . S
C2877 C2882 1.350 . S
C2877 N2885 1.427 . S
C2878 H2869 0.930 . S
C2878 C2876 1.378 . S
C2878 C2879 1.367 . S
C2879 C2878 1.367 . S
C2879 C2881 1.433 . S
C2880 C2876 1.350 . S
C2880 C2877 1.463 . S
C2880 N2884 1.427 . S
C2881 H2871 0.929 . S
C2881 C2879 1.433 . S
C2881 N2884 1.384 . S
C2882 H2873 0.929 . S
C2882 C2874 1.378 . S
C2882 C2877 1.350 . S
C2883 H2870 0.929 . S
C2883 C2875 1.433 . S
C2883 N2885 1.384 . S
N2884 C2880 1.427 . S
N2884 C2881 1.384 . S
N2885 C2877 1.427 . S
N2885 C2883 1.384 . S
H2886 C2892 0.930 . S
H2887 C2896 0.930 . S
H2888 C2901 0.929 . S
H2889 C2899 0.902 1_556 S
H2890 C2894 0.929 . S
H2891 C2900 0.929 1_545 S
C2892 H2886 0.930 . S
C2892 C2893 1.367 1_556 S
C2892 C2900 1.378 . S
C2893 C2892 1.367 1_554 S
C2893 C2901 1.433 . S
C2894 H2890 0.929 . S
C2894 C2896 1.378 . S
C2894 C2898 1.350 . S
C2895 C2898 1.463 . S
C2895 C2900 1.350 1_554 S
C2895 N2903 1.427 . S
C2896 H2887 0.930 . S
C2896 C2894 1.378 . S
C2896 C2897 1.367 1_565 S
C2897 C2896 1.367 1_545 S
C2897 C2899 1.460 . S
C2898 C2894 1.350 . S
C2898 C2895 1.463 . S
C2898 N2902 1.427 1_564 S
C2899 H2889 0.902 1_554 S
C2899 C2897 1.460 . S
C2899 N2902 1.386 1_554 S
C2900 H2891 0.929 1_565 S
C2900 C2892 1.378 . S
C2900 C2895 1.350 1_556 S
C2901 H2888 0.929 . S
C2901 C2893 1.433 . S
C2901 N2903 1.384 . S
N2902 C2898 1.427 1_546 S
N2902 C2899 1.386 1_556 S
N2903 C2895 1.427 . S
N2903 C2901 1.384 . S
H2904 C2910 0.930 . S
H2905 C2914 0.930 . S
H2906 C2919 0.929 . S
H2907 C2917 0.929 . S
H2908 C2912 0.929 . S
H2909 C2918 0.929 . S
C2910 H2904 0.930 . S
C2910 C2911 1.367 . S
C2910 C2918 1.378 . S
C2911 C2910 1.367 . S
C2911 C2919 1.433 . S
C2912 H2908 0.929 . S
C2912 C2914 1.378 . S
C2912 C2916 1.350 . S
C2913 C2916 1.463 . S
C2913 C2918 1.350 . S
C2913 N2921 1.427 . S
C2914 H2905 0.930 . S
C2914 C2912 1.378 . S
C2914 C2915 1.367 . S
C2915 C2914 1.367 . S
C2915 C2917 1.433 . S
C2916 C2912 1.350 . S
C2916 C2913 1.463 . S
C2916 N2920 1.427 . S
C2917 H2907 0.929 . S
C2917 C2915 1.433 . S
C2917 N2920 1.384 . S
C2918 H2909 0.929 . S
C2918 C2910 1.378 . S
C2918 C2913 1.350 . S
C2919 H2906 0.929 . S
C2919 C2911 1.433 . S
C2919 N2921 1.384 . S
N2920 C2916 1.427 . S
N2920 C2917 1.384 . S
N2921 C2913 1.427 . S
N2921 C2919 1.384 . S
H2922 C2928 0.930 1_556 S
H2923 C2932 0.930 . S
H2924 C2937 0.929 . S
H2925 C2935 0.929 . S
H2926 C2930 0.929 . S
H2927 C2936 0.929 1_556 S
C2928 H2922 0.930 1_554 S
C2928 C2929 1.367 . S
C2928 C2936 1.378 . S
C2929 C2928 1.367 . S
C2929 C2937 1.433 . S
C2930 H2926 0.929 . S
C2930 C2932 1.378 . S
C2930 C2934 1.350 . S
C2931 C2934 1.463 . S
C2931 C2936 1.350 . S
C2931 N2939 1.427 . S
C2932 H2923 0.930 . S
C2932 C2930 1.378 . S
C2932 C2933 1.367 . S
C2933 C2932 1.367 . S
C2933 C2935 1.433 . S
C2934 C2930 1.350 . S
C2934 C2931 1.463 . S
C2934 N2938 1.427 . S
C2935 H2925 0.929 . S
C2935 C2933 1.433 . S
C2935 N2938 1.384 . S
C2936 H2927 0.929 1_554 S
C2936 C2928 1.378 . S
C2936 C2931 1.350 . S
C2937 H2924 0.929 . S
C2937 C2929 1.433 . S
C2937 N2939 1.384 . S
N2938 C2934 1.427 . S
N2938 C2935 1.384 . S
N2939 C2931 1.427 . S
N2939 C2937 1.384 . S
H2940 C2946 0.930 . S
H2941 C2950 0.930 . S
H2942 C2955 0.929 . S
H2943 C2953 0.929 . S
H2944 C2948 0.929 . S
H2945 C2954 0.929 . S
C2946 H2940 0.930 . S
C2946 C2947 1.367 . S
C2946 C2954 1.378 . S
C2947 C2946 1.367 . S
C2947 C2955 1.433 . S
C2948 H2944 0.929 . S
C2948 C2950 1.378 . S
C2948 C2952 1.350 . S
C2949 C2952 1.463 . S
C2949 C2954 1.350 . S
C2949 N2957 1.427 . S
C2950 H2941 0.930 . S
C2950 C2948 1.378 . S
C2950 C2951 1.367 . S
C2951 C2950 1.367 . S
C2951 C2953 1.433 . S
C2952 C2948 1.350 . S
C2952 C2949 1.463 . S
C2952 N2956 1.427 . S
C2953 H2943 0.929 . S
C2953 C2951 1.433 . S
C2953 N2956 1.384 . S
C2954 H2945 0.929 . S
C2954 C2946 1.378 . S
C2954 C2949 1.350 . S
C2955 H2942 0.929 . S
C2955 C2947 1.433 . S
C2955 N2957 1.384 . S
N2956 C2952 1.427 . S
N2956 C2953 1.384 . S
N2957 C2949 1.427 . S
N2957 C2955 1.384 . S
H2958 C2964 0.930 . S
H2959 C2968 0.930 . S
H2960 C2973 0.929 . S
H2961 C2971 0.929 . S
H2962 C2966 0.929 . S
H2963 C2972 0.929 . S
C2964 H2958 0.930 . S
C2964 C2965 1.367 . S
C2964 C2972 1.378 . S
C2965 C2964 1.367 . S
C2965 C2973 1.433 . S
C2966 H2962 0.929 . S
C2966 C2968 1.378 . S
C2966 C2970 1.350 . S
C2967 C2970 1.463 . S
C2967 C2972 1.350 . S
C2967 N2975 1.427 . S
C2968 H2959 0.930 . S
C2968 C2966 1.378 . S
C2968 C2969 1.367 . S
C2969 C2968 1.367 . S
C2969 C2971 1.433 . S
C2970 C2966 1.350 . S
C2970 C2967 1.463 . S
C2970 N2974 1.427 . S
C2971 H2961 0.929 . S
C2971 C2969 1.433 . S
C2971 N2974 1.384 . S
C2972 H2963 0.929 . S
C2972 C2964 1.378 . S
C2972 C2967 1.350 . S
C2973 H2960 0.929 . S
C2973 C2965 1.433 . S
C2973 N2975 1.384 . S
N2974 C2970 1.427 . S
N2974 C2971 1.384 . S
N2975 C2967 1.427 . S
N2975 C2973 1.384 . S
H2976 C2982 0.930 . S
H2977 C2986 0.930 . S
H2978 C2991 0.929 . S
H2979 C2989 0.929 . S
H2980 C2984 0.929 . S
H2981 C2990 0.929 . S
C2982 H2976 0.930 . S
C2982 C2983 1.367 . S
C2982 C2990 1.378 . S
C2983 C2982 1.367 . S
C2983 C2991 1.433 . S
C2984 H2980 0.929 . S
C2984 C2986 1.378 . S
C2984 C2988 1.350 . S
C2985 C2988 1.463 . S
C2985 C2990 1.350 . S
C2985 N2993 1.427 . S
C2986 H2977 0.930 . S
C2986 C2984 1.378 . S
C2986 C2987 1.367 . S
C2987 C2986 1.367 . S
C2987 C2989 1.433 . S
C2988 C2984 1.350 . S
C2988 C2985 1.463 . S
C2988 N2992 1.427 . S
C2989 H2979 0.929 . S
C2989 C2987 1.433 . S
C2989 N2992 1.384 . S
C2990 H2981 0.929 . S
C2990 C2982 1.378 . S
C2990 C2985 1.350 . S
C2991 H2978 0.929 . S
C2991 C2983 1.433 . S
C2991 N2993 1.384 . S
N2992 C2988 1.427 . S
N2992 C2989 1.384 . S
N2993 C2985 1.427 . S
N2993 C2991 1.384 . S
H2994 C3000 0.930 . S
H2995 C3004 0.930 . S
H2996 C3009 0.929 . S
H2997 C3007 0.929 . S
H2998 C3002 0.929 . S
H2999 C3008 0.929 . S
C3000 H2994 0.930 . S
C3000 C3001 1.367 . S
C3000 C3008 1.378 . S
C3001 C3000 1.367 . S
C3001 C3009 1.433 . S
C3002 H2998 0.929 . S
C3002 C3004 1.378 . S
C3002 C3006 1.350 . S
C3003 C3006 1.463 . S
C3003 C3008 1.350 . S
C3003 N3011 1.427 . S
C3004 H2995 0.930 . S
C3004 C3002 1.378 . S
C3004 C3005 1.367 . S
C3005 C3004 1.367 . S
C3005 C3007 1.433 . S
C3006 C3002 1.350 . S
C3006 C3003 1.463 . S
C3006 N3010 1.427 . S
C3007 H2997 0.929 . S
C3007 C3005 1.433 . S
C3007 N3010 1.384 . S
C3008 H2999 0.929 . S
C3008 C3000 1.378 . S
C3008 C3003 1.350 . S
C3009 H2996 0.929 . S
C3009 C3001 1.433 . S
C3009 N3011 1.384 . S
N3010 C3006 1.427 . S
N3010 C3007 1.384 . S
N3011 C3003 1.427 . S
N3011 C3009 1.384 . S
H3012 C3018 0.930 . S
H3013 C3022 0.930 . S
H3014 C3027 0.929 . S
H3015 C3025 0.929 . S
H3016 C3020 0.929 . S
H3017 C3026 0.929 . S
C3018 H3012 0.930 . S
C3018 C3019 1.367 . S
C3018 C3026 1.378 . S
C3019 C3018 1.367 . S
C3019 C3027 1.433 . S
C3020 H3016 0.929 . S
C3020 C3022 1.378 . S
C3020 C3024 1.350 . S
C3021 C3024 1.463 . S
C3021 C3026 1.350 . S
C3021 N3029 1.427 . S
C3022 H3013 0.930 . S
C3022 C3020 1.378 . S
C3022 C3023 1.367 . S
C3023 C3022 1.367 . S
C3023 C3025 1.433 . S
C3024 C3020 1.350 . S
C3024 C3021 1.463 . S
C3024 N3028 1.427 . S
C3025 H3015 0.929 . S
C3025 C3023 1.433 . S
C3025 N3028 1.384 . S
C3026 H3017 0.929 . S
C3026 C3018 1.378 . S
C3026 C3021 1.350 . S
C3027 H3014 0.929 . S
C3027 C3019 1.433 . S
C3027 N3029 1.384 . S
N3028 C3024 1.427 . S
N3028 C3025 1.384 . S
N3029 C3021 1.427 . S
N3029 C3027 1.384 . S
H3030 C3036 0.930 . S
H3031 C3040 0.930 . S
H3032 C3045 0.929 . S
H3033 C3043 0.929 . S
H3034 C3038 0.929 . S
H3035 C3044 0.929 . S
C3036 H3030 0.930 . S
C3036 C3037 1.367 . S
C3036 C3044 1.378 . S
C3037 C3036 1.367 . S
C3037 C3045 1.433 . S
C3038 H3034 0.929 . S
C3038 C3040 1.378 . S
C3038 C3042 1.350 . S
C3039 C3042 1.463 . S
C3039 C3044 1.350 . S
C3039 N3047 1.427 . S
C3040 H3031 0.930 . S
C3040 C3038 1.378 . S
C3040 C3041 1.367 . S
C3041 C3040 1.367 . S
C3041 C3043 1.433 . S
C3042 C3038 1.350 . S
C3042 C3039 1.463 . S
C3042 N3046 1.427 . S
C3043 H3033 0.929 . S
C3043 C3041 1.433 . S
C3043 N3046 1.384 . S
C3044 H3035 0.929 . S
C3044 C3036 1.378 . S
C3044 C3039 1.350 . S
C3045 H3032 0.929 . S
C3045 C3037 1.433 . S
C3045 N3047 1.384 . S
N3046 C3042 1.427 . S
N3046 C3043 1.384 . S
N3047 C3039 1.427 . S
N3047 C3045 1.384 . S
H3048 C3054 0.930 . S
H3049 C3058 0.930 . S
H3050 C3063 0.929 . S
H3051 C3061 0.929 . S
H3052 C3056 0.929 . S
H3053 C3062 0.929 . S
C3054 H3048 0.930 . S
C3054 C3055 1.367 . S
C3054 C3062 1.378 . S
C3055 C3054 1.367 . S
C3055 C3063 1.433 . S
C3056 H3052 0.929 . S
C3056 C3058 1.378 . S
C3056 C3060 1.350 . S
C3057 C3060 1.463 . S
C3057 C3062 1.350 . S
C3057 N3065 1.427 . S
C3058 H3049 0.930 . S
C3058 C3056 1.378 . S
C3058 C3059 1.367 . S
C3059 C3058 1.367 . S
C3059 C3061 1.433 . S
C3060 C3056 1.350 . S
C3060 C3057 1.463 . S
C3060 N3064 1.427 . S
C3061 H3051 0.929 . S
C3061 C3059 1.433 . S
C3061 N3064 1.384 . S
C3062 H3053 0.929 . S
C3062 C3054 1.378 . S
C3062 C3057 1.350 . S
C3063 H3050 0.929 . S
C3063 C3055 1.433 . S
C3063 N3065 1.384 . S
N3064 C3060 1.427 . S
N3064 C3061 1.384 . S
N3065 C3057 1.427 . S
N3065 C3063 1.384 . S
H3066 C3072 0.930 . S
H3067 C3076 0.930 . S
H3068 C3081 0.929 . S
H3069 C3079 0.929 . S
H3070 C3074 0.929 . S
H3071 C3080 0.929 . S
C3072 H3066 0.930 . S
C3072 C3073 1.367 . S
C3072 C3080 1.378 . S
C3073 C3072 1.367 . S
C3073 C3081 1.433 . S
C3074 H3070 0.929 . S
C3074 C3076 1.378 . S
C3074 C3078 1.350 . S
C3075 C3078 1.463 . S
C3075 C3080 1.350 . S
C3075 N3083 1.427 . S
C3076 H3067 0.930 . S
C3076 C3074 1.378 . S
C3076 C3077 1.367 . S
C3077 C3076 1.367 . S
C3077 C3079 1.433 . S
C3078 C3074 1.350 . S
C3078 C3075 1.463 . S
C3078 N3082 1.427 . S
C3079 H3069 0.929 . S
C3079 C3077 1.433 . S
C3079 N3082 1.384 . S
C3080 H3071 0.929 . S
C3080 C3072 1.378 . S
C3080 C3075 1.350 . S
C3081 H3068 0.929 . S
C3081 C3073 1.433 . S
C3081 N3083 1.384 . S
N3082 C3078 1.427 . S
N3082 C3079 1.384 . S
N3083 C3075 1.427 . S
N3083 C3081 1.384 . S
H3084 C3090 0.930 . S
H3085 C3094 0.930 . S
H3086 C3099 0.929 . S
H3087 C3097 0.929 . S
H3088 C3092 0.929 . S
H3089 C3098 0.929 . S
C3090 H3084 0.930 . S
C3090 C3091 1.367 . S
C3090 C3098 1.378 . S
C3091 C3090 1.367 . S
C3091 C3099 1.433 . S
C3092 H3088 0.929 . S
C3092 C3094 1.378 . S
C3092 C3096 1.350 . S
C3093 C3096 1.463 . S
C3093 C3098 1.350 . S
C3093 N3101 1.427 . S
C3094 H3085 0.930 . S
C3094 C3092 1.378 . S
C3094 C3095 1.367 . S
C3095 C3094 1.367 . S
C3095 C3097 1.433 . S
C3096 C3092 1.350 . S
C3096 C3093 1.463 . S
C3096 N3100 1.427 . S
C3097 H3087 0.929 . S
C3097 C3095 1.433 . S
C3097 N3100 1.384 . S
C3098 H3089 0.929 . S
C3098 C3090 1.378 . S
C3098 C3093 1.350 . S
C3099 H3086 0.929 . S
C3099 C3091 1.433 . S
C3099 N3101 1.384 . S
N3100 C3096 1.427 . S
N3100 C3097 1.384 . S
N3101 C3093 1.427 . S
N3101 C3099 1.384 . S
H3102 C3108 0.930 . S
H3103 C3112 0.930 . S
H3104 C3117 0.929 . S
H3105 C3115 0.929 . S
H3106 C3110 0.929 . S
H3107 C3116 0.929 . S
C3108 H3102 0.930 . S
C3108 C3109 1.367 . S
C3108 C3116 1.378 . S
C3109 C3108 1.367 . S
C3109 C3117 1.433 . S
C3110 H3106 0.929 . S
C3110 C3112 1.378 . S
C3110 C3114 1.350 . S
C3111 C3114 1.463 . S
C3111 C3116 1.350 . S
C3111 N3119 1.427 . S
C3112 H3103 0.930 . S
C3112 C3110 1.378 . S
C3112 C3113 1.367 . S
C3113 C3112 1.367 . S
C3113 C3115 1.433 . S
C3114 C3110 1.350 . S
C3114 C3111 1.463 . S
C3114 N3118 1.427 . S
C3115 H3105 0.929 . S
C3115 C3113 1.433 . S
C3115 N3118 1.384 . S
C3116 H3107 0.929 . S
C3116 C3108 1.378 . S
C3116 C3111 1.350 . S
C3117 H3104 0.929 . S
C3117 C3109 1.433 . S
C3117 N3119 1.384 . S
N3118 C3114 1.427 . S
N3118 C3115 1.384 . S
N3119 C3111 1.427 . S
N3119 C3117 1.384 . S
H3120 C3126 0.930 . S
H3121 C3130 0.930 . S
H3122 C3135 0.929 . S
H3123 C3133 0.929 . S
H3124 C3128 0.929 . S
H3125 C3134 0.929 . S
C3126 H3120 0.930 . S
C3126 C3127 1.367 . S
C3126 C3134 1.378 . S
C3127 C3126 1.367 . S
C3127 C3135 1.433 . S
C3128 H3124 0.929 . S
C3128 C3130 1.378 . S
C3128 C3132 1.350 . S
C3129 C3132 1.463 . S
C3129 C3134 1.350 . S
C3129 N3137 1.427 . S
C3130 H3121 0.930 . S
C3130 C3128 1.378 . S
C3130 C3131 1.367 . S
C3131 C3130 1.367 . S
C3131 C3133 1.433 . S
C3132 C3128 1.350 . S
C3132 C3129 1.463 . S
C3132 N3136 1.427 . S
C3133 H3123 0.929 . S
C3133 C3131 1.433 . S
C3133 N3136 1.384 . S
C3134 H3125 0.929 . S
C3134 C3126 1.378 . S
C3134 C3129 1.350 . S
C3135 H3122 0.929 . S
C3135 C3127 1.433 . S
C3135 N3137 1.384 . S
N3136 C3132 1.427 . S
N3136 C3133 1.384 . S
N3137 C3129 1.427 . S
N3137 C3135 1.384 . S
H3138 C3144 0.930 . S
H3139 C3148 0.930 . S
H3140 C3153 0.929 . S
H3141 C3151 0.929 . S
H3142 C3146 0.929 . S
H3143 C3152 0.929 . S
C3144 H3138 0.930 . S
C3144 C3145 1.367 . S
C3144 C3152 1.378 . S
C3145 C3144 1.367 . S
C3145 C3153 1.433 . S
C3146 H3142 0.929 . S
C3146 C3148 1.378 . S
C3146 C3150 1.350 . S
C3147 C3150 1.463 . S
C3147 C3152 1.350 . S
C3147 N3155 1.427 . S
C3148 H3139 0.930 . S
C3148 C3146 1.378 . S
C3148 C3149 1.367 . S
C3149 C3148 1.367 . S
C3149 C3151 1.433 . S
C3150 C3146 1.350 . S
C3150 C3147 1.463 . S
C3150 N3154 1.427 . S
C3151 H3141 0.929 . S
C3151 C3149 1.433 . S
C3151 N3154 1.384 . S
C3152 H3143 0.929 . S
C3152 C3144 1.378 . S
C3152 C3147 1.350 . S
C3153 H3140 0.929 . S
C3153 C3145 1.433 . S
C3153 N3155 1.384 . S
N3154 C3150 1.427 . S
N3154 C3151 1.384 . S
N3155 C3147 1.427 . S
N3155 C3153 1.384 . S
H3156 C3162 0.930 . S
H3157 C3166 0.930 1_455 S
H3158 C3171 0.929 . S
H3159 C3169 0.929 . S
H3160 C3164 0.929 . S
H3161 C3170 0.929 . S
C3162 H3156 0.930 . S
C3162 C3163 1.367 . S
C3162 C3170 1.378 . S
C3163 C3162 1.367 . S
C3163 C3171 1.433 . S
C3164 H3160 0.929 . S
C3164 C3166 1.378 . S
C3164 C3168 1.350 . S
C3165 C3168 1.463 . S
C3165 C3170 1.350 . S
C3165 N3173 1.427 . S
C3166 H3157 0.930 1_655 S
C3166 C3164 1.378 . S
C3166 C3167 1.367 . S
C3167 C3166 1.367 . S
C3167 C3169 1.433 . S
C3168 C3164 1.350 . S
C3168 C3165 1.463 . S
C3168 N3172 1.427 . S
C3169 H3159 0.929 . S
C3169 C3167 1.433 . S
C3169 N3172 1.384 . S
C3170 H3161 0.929 . S
C3170 C3162 1.378 . S
C3170 C3165 1.350 . S
C3171 H3158 0.929 . S
C3171 C3163 1.433 . S
C3171 N3173 1.384 . S
N3172 C3168 1.427 . S
N3172 C3169 1.384 . S
N3173 C3165 1.427 . S
N3173 C3171 1.384 . S
H3174 C3180 0.930 . S
H3175 C3184 0.930 . S
H3176 C3189 0.929 . S
H3177 C3187 0.929 . S
H3178 C3182 0.929 . S
H3179 C3188 0.929 . S
C3180 H3174 0.930 . S
C3180 C3181 1.367 . S
C3180 C3188 1.378 . S
C3181 C3180 1.367 . S
C3181 C3189 1.433 . S
C3182 H3178 0.929 . S
C3182 C3184 1.378 . S
C3182 C3186 1.350 . S
C3183 C3186 1.463 . S
C3183 C3188 1.350 . S
C3183 N3191 1.427 . S
C3184 H3175 0.930 . S
C3184 C3182 1.378 . S
C3184 C3185 1.367 . S
C3185 C3184 1.367 . S
C3185 C3187 1.433 . S
C3186 C3182 1.350 . S
C3186 C3183 1.463 . S
C3186 N3190 1.427 . S
C3187 H3177 0.929 . S
C3187 C3185 1.433 . S
C3187 N3190 1.384 . S
C3188 H3179 0.929 . S
C3188 C3180 1.378 . S
C3188 C3183 1.350 . S
C3189 H3176 0.929 . S
C3189 C3181 1.433 . S
C3189 N3191 1.384 . S
N3190 C3186 1.427 . S
N3190 C3187 1.384 . S
N3191 C3183 1.427 . S
N3191 C3189 1.384 . S
H3192 C3198 0.930 . S
H3193 C3202 0.930 . S
H3194 C3207 0.929 . S
H3195 C3205 0.929 . S
H3196 C3200 0.929 . S
H3197 C3206 0.929 . S
C3198 H3192 0.930 . S
C3198 C3199 1.367 . S
C3198 C3206 1.378 . S
C3199 C3198 1.367 . S
C3199 C3207 1.433 . S
C3200 H3196 0.929 . S
C3200 C3202 1.378 . S
C3200 C3204 1.350 . S
C3201 C3204 1.463 . S
C3201 C3206 1.350 . S
C3201 N3209 1.427 . S
C3202 H3193 0.930 . S
C3202 C3200 1.378 . S
C3202 C3203 1.367 . S
C3203 C3202 1.367 . S
C3203 C3205 1.433 . S
C3204 C3200 1.350 . S
C3204 C3201 1.463 . S
C3204 N3208 1.427 . S
C3205 H3195 0.929 . S
C3205 C3203 1.433 . S
C3205 N3208 1.384 . S
C3206 H3197 0.929 . S
C3206 C3198 1.378 . S
C3206 C3201 1.350 . S
C3207 H3194 0.929 . S
C3207 C3199 1.433 . S
C3207 N3209 1.384 . S
N3208 C3204 1.427 . S
N3208 C3205 1.384 . S
N3209 C3201 1.427 . S
N3209 C3207 1.384 . S
H3210 C3216 0.930 . S
H3211 C3220 0.930 . S
H3212 C3225 0.929 . S
H3213 C3223 0.929 . S
H3214 C3218 0.929 . S
H3215 C3224 0.929 . S
C3216 H3210 0.930 . S
C3216 C3217 1.367 . S
C3216 C3224 1.378 . S
C3217 C3216 1.367 . S
C3217 C3225 1.433 . S
C3218 H3214 0.929 . S
C3218 C3220 1.378 . S
C3218 C3222 1.350 . S
C3219 C3222 1.463 . S
C3219 C3224 1.350 . S
C3219 N3227 1.427 . S
C3220 H3211 0.930 . S
C3220 C3218 1.378 . S
C3220 C3221 1.367 . S
C3221 C3220 1.367 . S
C3221 C3223 1.433 . S
C3222 C3218 1.350 . S
C3222 C3219 1.463 . S
C3222 N3226 1.427 . S
C3223 H3213 0.929 . S
C3223 C3221 1.433 . S
C3223 N3226 1.384 . S
C3224 H3215 0.929 . S
C3224 C3216 1.378 . S
C3224 C3219 1.350 . S
C3225 H3212 0.929 . S
C3225 C3217 1.433 . S
C3225 N3227 1.384 . S
N3226 C3222 1.427 . S
N3226 C3223 1.384 . S
N3227 C3219 1.427 . S
N3227 C3225 1.384 . S
H3228 C3234 0.930 . S
H3229 C3238 0.930 . S
H3230 C3243 0.929 . S
H3231 C3241 0.929 . S
H3232 C3236 0.929 . S
H3233 C3242 0.929 . S
C3234 H3228 0.930 . S
C3234 C3235 1.367 . S
C3234 C3242 1.378 . S
C3235 C3234 1.367 . S
C3235 C3243 1.433 . S
C3236 H3232 0.929 . S
C3236 C3238 1.378 . S
C3236 C3240 1.350 . S
C3237 C3240 1.463 . S
C3237 C3242 1.350 . S
C3237 N3245 1.427 . S
C3238 H3229 0.930 . S
C3238 C3236 1.378 . S
C3238 C3239 1.367 . S
C3239 C3238 1.367 . S
C3239 C3241 1.433 . S
C3240 C3236 1.350 . S
C3240 C3237 1.463 . S
C3240 N3244 1.427 . S
C3241 H3231 0.929 . S
C3241 C3239 1.433 . S
C3241 N3244 1.384 . S
C3242 H3233 0.929 . S
C3242 C3234 1.378 . S
C3242 C3237 1.350 . S
C3243 H3230 0.929 . S
C3243 C3235 1.433 . S
C3243 N3245 1.384 . S
N3244 C3240 1.427 . S
N3244 C3241 1.384 . S
N3245 C3237 1.427 . S
N3245 C3243 1.384 . S
H3246 C3252 0.930 . S
H3247 C3256 0.930 . S
H3248 C3261 0.929 . S
H3249 C3259 0.929 . S
H3250 C3254 0.929 . S
H3251 C3260 0.929 . S
C3252 H3246 0.930 . S
C3252 C3253 1.367 . S
C3252 C3260 1.378 . S
C3253 C3252 1.367 . S
C3253 C3261 1.433 . S
C3254 H3250 0.929 . S
C3254 C3256 1.378 . S
C3254 C3258 1.350 . S
C3255 C3258 1.463 . S
C3255 C3260 1.350 . S
C3255 N3263 1.427 . S
C3256 H3247 0.930 . S
C3256 C3254 1.378 . S
C3256 C3257 1.367 . S
C3257 C3256 1.367 . S
C3257 C3259 1.433 . S
C3258 C3254 1.350 . S
C3258 C3255 1.463 . S
C3258 N3262 1.427 . S
C3259 H3249 0.929 . S
C3259 C3257 1.433 . S
C3259 N3262 1.384 . S
C3260 H3251 0.929 . S
C3260 C3252 1.378 . S
C3260 C3255 1.350 . S
C3261 H3248 0.929 . S
C3261 C3253 1.433 . S
C3261 N3263 1.384 . S
N3262 C3258 1.427 . S
N3262 C3259 1.384 . S
N3263 C3255 1.427 . S
N3263 C3261 1.384 . S
H3264 C3270 0.930 . S
H3265 C3274 0.930 . S
H3266 C3279 0.929 . S
H3267 C3277 0.929 . S
H3268 C3272 0.929 . S
H3269 C3278 0.929 . S
C3270 H3264 0.930 . S
C3270 C3271 1.367 . S
C3270 C3278 1.378 . S
C3271 C3270 1.367 . S
C3271 C3279 1.433 . S
C3272 H3268 0.929 . S
C3272 C3274 1.378 . S
C3272 C3276 1.350 . S
C3273 C3276 1.463 . S
C3273 C3278 1.350 . S
C3273 N3281 1.427 . S
C3274 H3265 0.930 . S
C3274 C3272 1.378 . S
C3274 C3275 1.367 . S
C3275 C3274 1.367 . S
C3275 C3277 1.433 . S
C3276 C3272 1.350 . S
C3276 C3273 1.463 . S
C3276 N3280 1.427 . S
C3277 H3267 0.929 . S
C3277 C3275 1.433 . S
C3277 N3280 1.384 . S
C3278 H3269 0.929 . S
C3278 C3270 1.378 . S
C3278 C3273 1.350 . S
C3279 H3266 0.929 . S
C3279 C3271 1.433 . S
C3279 N3281 1.384 . S
N3280 C3276 1.427 . S
N3280 C3277 1.384 . S
N3281 C3273 1.427 . S
N3281 C3279 1.384 . S
H3282 C3288 0.930 . S
H3283 C3292 0.930 . S
H3284 C3297 0.929 . S
H3285 C3295 0.905 1_545 S
H3286 C3290 0.929 . S
H3287 C3296 0.929 . S
C3288 H3282 0.930 . S
C3288 C3289 1.367 . S
C3288 C3296 1.378 . S
C3289 C3288 1.367 . S
C3289 C3297 1.433 . S
C3290 H3286 0.929 . S
C3290 C3292 1.378 . S
C3290 C3294 1.350 . S
C3291 C3294 1.463 . S
C3291 C3296 1.350 . S
C3291 N3299 1.427 . S
C3292 H3283 0.930 . S
C3292 C3290 1.378 . S
C3292 C3293 1.367 . S
C3293 C3292 1.367 . S
C3293 C3295 1.433 . S
C3294 C3290 1.350 . S
C3294 C3291 1.463 . S
C3294 N3298 1.427 . S
C3295 H3285 0.905 1_565 S
C3295 C3293 1.433 . S
C3295 N3298 1.384 . S
C3296 H3287 0.929 . S
C3296 C3288 1.378 . S
C3296 C3291 1.350 . S
C3297 H3284 0.929 . S
C3297 C3289 1.433 . S
C3297 N3299 1.384 . S
N3298 C3294 1.427 . S
N3298 C3295 1.384 . S
N3299 C3291 1.427 . S
N3299 C3297 1.384 . S
H3300 C3306 0.930 . S
H3301 C3310 0.930 . S
H3302 C3315 0.929 . S
H3303 C3313 0.929 . S
H3304 C3308 0.929 . S
H3305 C3314 0.929 . S
C3306 H3300 0.930 . S
C3306 C3307 1.367 . S
C3306 C3314 1.378 . S
C3307 C3306 1.367 . S
C3307 C3315 1.433 . S
C3308 H3304 0.929 . S
C3308 C3310 1.378 . S
C3308 C3312 1.350 . S
C3309 C3312 1.463 . S
C3309 C3314 1.350 . S
C3309 N3317 1.427 . S
C3310 H3301 0.930 . S
C3310 C3308 1.378 . S
C3310 C3311 1.367 . S
C3311 C3310 1.367 . S
C3311 C3313 1.433 . S
C3312 C3308 1.350 . S
C3312 C3309 1.463 . S
C3312 N3316 1.427 . S
C3313 H3303 0.929 . S
C3313 C3311 1.433 . S
C3313 N3316 1.384 . S
C3314 H3305 0.929 . S
C3314 C3306 1.378 . S
C3314 C3309 1.350 . S
C3315 H3302 0.929 . S
C3315 C3307 1.433 . S
C3315 N3317 1.384 . S
N3316 C3312 1.427 . S
N3316 C3313 1.384 . S
N3317 C3309 1.427 . S
N3317 C3315 1.384 . S
H3318 C3324 0.930 . S
H3319 C3328 0.930 . S
H3320 C3333 0.929 . S
H3321 C3331 0.929 . S
H3322 C3326 0.929 . S
H3323 C3332 0.929 . S
C3324 H3318 0.930 . S
C3324 C3325 1.367 . S
C3324 C3332 1.378 . S
C3325 C3324 1.367 . S
C3325 C3333 1.433 . S
C3326 H3322 0.929 . S
C3326 C3328 1.378 . S
C3326 C3330 1.350 . S
C3327 C3330 1.463 . S
C3327 C3332 1.350 . S
C3327 N3335 1.427 . S
C3328 H3319 0.930 . S
C3328 C3326 1.378 . S
C3328 C3329 1.367 . S
C3329 C3328 1.367 . S
C3329 C3331 1.433 . S
C3330 C3326 1.350 . S
C3330 C3327 1.463 . S
C3330 N3334 1.427 . S
C3331 H3321 0.929 . S
C3331 C3329 1.433 . S
C3331 N3334 1.384 . S
C3332 H3323 0.929 . S
C3332 C3324 1.378 . S
C3332 C3327 1.350 . S
C3333 H3320 0.929 . S
C3333 C3325 1.433 . S
C3333 N3335 1.384 . S
N3334 C3330 1.427 . S
N3334 C3331 1.384 . S
N3335 C3327 1.427 . S
N3335 C3333 1.384 . S
H3336 C3342 0.930 . S
H3337 C3346 0.930 . S
H3338 C3351 0.929 . S
H3339 C3349 0.929 . S
H3340 C3344 0.929 . S
H3341 C3350 0.929 . S
C3342 H3336 0.930 . S
C3342 C3343 1.367 . S
C3342 C3350 1.378 . S
C3343 C3342 1.367 . S
C3343 C3351 1.433 . S
C3344 H3340 0.929 . S
C3344 C3346 1.378 . S
C3344 C3348 1.350 . S
C3345 C3348 1.463 . S
C3345 C3350 1.350 . S
C3345 N3353 1.427 . S
C3346 H3337 0.930 . S
C3346 C3344 1.378 . S
C3346 C3347 1.367 . S
C3347 C3346 1.367 . S
C3347 C3349 1.433 . S
C3348 C3344 1.350 . S
C3348 C3345 1.463 . S
C3348 N3352 1.427 . S
C3349 H3339 0.929 . S
C3349 C3347 1.433 . S
C3349 N3352 1.384 . S
C3350 H3341 0.929 . S
C3350 C3342 1.378 . S
C3350 C3345 1.350 . S
C3351 H3338 0.929 . S
C3351 C3343 1.433 . S
C3351 N3353 1.384 . S
N3352 C3348 1.427 . S
N3352 C3349 1.384 . S
N3353 C3345 1.427 . S
N3353 C3351 1.384 . S
H3354 C3360 0.930 . S
H3355 C3364 0.930 . S
H3356 C3369 0.929 1_556 S
H3357 C3367 0.929 . S
H3358 C3362 0.931 . S
H3359 C3368 0.929 . S
C3360 H3354 0.930 . S
C3360 C3361 1.367 . S
C3360 C3368 1.378 . S
C3361 C3360 1.367 . S
C3361 C3369 1.433 . S
C3362 H3358 0.931 . S
C3362 C3364 1.378 . S
C3362 C3366 1.346 1_556 S
C3363 C3366 1.463 . S
C3363 C3368 1.350 . S
C3363 N3371 1.427 . S
C3364 H3355 0.930 . S
C3364 C3362 1.378 . S
C3364 C3365 1.367 1_556 S
C3365 C3364 1.367 1_554 S
C3365 C3367 1.433 . S
C3366 C3362 1.346 1_554 S
C3366 C3363 1.463 . S
C3366 N3370 1.427 . S
C3367 H3357 0.929 . S
C3367 C3365 1.433 . S
C3367 N3370 1.384 . S
C3368 H3359 0.929 . S
C3368 C3360 1.378 . S
C3368 C3363 1.350 . S
C3369 H3356 0.929 1_554 S
C3369 C3361 1.433 . S
C3369 N3371 1.384 . S
N3370 C3366 1.427 . S
N3370 C3367 1.384 . S
N3371 C3363 1.427 . S
N3371 C3369 1.384 . S
H3372 C3378 0.930 . S
H3373 C3382 0.930 . S
H3374 C3387 0.929 . S
H3375 C3385 0.929 . S
H3376 C3380 0.929 . S
H3377 C3386 0.929 . S
C3378 H3372 0.930 . S
C3378 C3379 1.367 . S
C3378 C3386 1.378 . S
C3379 C3378 1.367 . S
C3379 C3387 1.433 . S
C3380 H3376 0.929 . S
C3380 C3382 1.378 . S
C3380 C3384 1.350 . S
C3381 C3384 1.463 . S
C3381 C3386 1.350 . S
C3381 N3389 1.427 . S
C3382 H3373 0.930 . S
C3382 C3380 1.378 . S
C3382 C3383 1.367 . S
C3383 C3382 1.367 . S
C3383 C3385 1.433 . S
C3384 C3380 1.350 . S
C3384 C3381 1.463 . S
C3384 N3388 1.427 . S
C3385 H3375 0.929 . S
C3385 C3383 1.433 . S
C3385 N3388 1.384 . S
C3386 H3377 0.929 . S
C3386 C3378 1.378 . S
C3386 C3381 1.350 . S
C3387 H3374 0.929 . S
C3387 C3379 1.433 . S
C3387 N3389 1.384 . S
N3388 C3384 1.427 . S
N3388 C3385 1.384 . S
N3389 C3381 1.427 . S
N3389 C3387 1.384 . S
H3390 C3396 0.930 . S
H3391 C3400 0.930 . S
H3392 C3405 0.929 . S
H3393 C3403 0.929 . S
H3394 C3398 0.929 . S
H3395 C3404 0.929 . S
C3396 H3390 0.930 . S
C3396 C3397 1.367 . S
C3396 C3404 1.378 . S
C3397 C3396 1.367 . S
C3397 C3405 1.433 . S
C3398 H3394 0.929 . S
C3398 C3400 1.378 . S
C3398 C3402 1.350 . S
C3399 C3402 1.463 . S
C3399 C3404 1.350 . S
C3399 N3407 1.427 . S
C3400 H3391 0.930 . S
C3400 C3398 1.378 . S
C3400 C3401 1.367 . S
C3401 C3400 1.367 . S
C3401 C3403 1.433 . S
C3402 C3398 1.350 . S
C3402 C3399 1.463 . S
C3402 N3406 1.427 . S
C3403 H3393 0.929 . S
C3403 C3401 1.433 . S
C3403 N3406 1.384 . S
C3404 H3395 0.929 . S
C3404 C3396 1.378 . S
C3404 C3399 1.350 . S
C3405 H3392 0.929 . S
C3405 C3397 1.433 . S
C3405 N3407 1.384 . S
N3406 C3402 1.427 . S
N3406 C3403 1.384 . S
N3407 C3399 1.427 . S
N3407 C3405 1.384 . S
C1687 C109 2.069 . S
C1691 C392 2.050 . S
C1705 C61 1.601 . S
C1709 C494 1.822 . S
C1723 C74 1.839 . S
C1727 C560 1.888 . S
C1745 C646 1.405 . S
C1741 C96 1.505 . S
C1759 C25 1.432 . S
C1763 C730 1.331 . S
C1781 C812 1.890 . S
C1777 C40 1.862 . S
C1799 C914 1.924 . S
C1795 C46 1.920 . S
C1813 C5 1.739 . S
C1817 C980 2.118 . S
C1835 C410 1.592 . S
C1831 C229 1.336 . S
C1849 C249 0.866 . S
C1853 C478 0.852 . S
C1871 C578 0.978 . S
C1867 C271 0.839 . S
C1889 C644 1.731 . S
C1885 C172 1.686 1_556 S
C1903 C236 1.556 . S
C1907 C728 1.574 . S
C1925 C830 1.274 . S
C1921 C242 1.259 . S
C1943 C898 0.858 . S
C1939 C278 0.876 . S
C1961 C998 1.683 . S
C1957 C179 1.720 . S
C1979 C394 0.965 1_565 S
C1975 C159 0.813 1_556 S
C1993 C285 1.396 1_554 S
C1997 C1082 1.579 . S
C2015 C1150 1.205 . S
C2011 C333 1.276 . S
C2033 C1232 0.791 . S
C2029 C320 0.783 . S
C2047 C123 0.957 . S
C2051 C982 0.919 . S
C2065 C138 1.399 . S
C2069 C562 1.328 . S
C2083 C326 1.722 . S
C2087 C1334 1.718 . S
C2105 C1400 0.838 . S
C2101 C298 0.840 . S
C2123 C403 2.024 . S
C2119 C67 1.960 . S
C2141 C1407 1.744 . S
C2137 C110 1.760 . S
C2155 C88 1.826 . S
C2159 C571 1.863 . S
C2173 C75 1.158 . S
C2177 C1329 1.297 . S
C2195 C741 1.287 . S
C2191 C11 1.385 . S
C2209 C47 1.630 . S
C2213 C1159 1.842 . S
C2231 C903 1.768 1_556 S
C2227 C32 1.704 . S
C2249 C1495 2.124 . S
C2245 C26 2.100 . S
C2267 C399 1.656 . S
C2263 C152 1.702 . S
C2285 C1413 0.847 . S
C2281 C319 0.847 . S
C2299 C124 0.959 . S
C2303 C567 0.944 . S
C2317 C284 1.718 . S
C2321 C1327 1.738 . S
C2335 C145 1.332 . S
C2339 C739 1.498 . S
C2357 C1155 1.138 . S
C2353 C312 1.117 . S
C2371 C117 0.731 . S
C2375 C909 0.689 1_545 S
C2389 C291 1.588 . S
C2393 C1491 1.574 . S
C2407 C194 1.029 . S
C2411 C405 0.996 . S
C2425 C180 1.562 . S
C2429 C1071 1.540 . S
C2443 C263 1.173 . S
C2447 C825 1.138 . S
C2461 C243 0.766 . S
C2465 C1243 0.728 . S
C2483 C1497 0.961 . S
C2479 C277 0.939 . S
C2497 C215 1.172 . S
C2501 C573 1.291 . S
C2519 C651 1.621 . S
C2515 C256 1.556 . S
C2537 C487 0.893 . S
C2533 C200 0.872 . S
C2551 C81 2.049 . S
C2555 C1568 2.052 . S
C2573 C1418 1.822 . S
C2569 C89 1.601 . S
C2587 C102 1.849 . S
C2591 C1652 1.892 . S
C2605 C68 1.504 . S
C2609 C1318 1.388 . S
C2623 C53 1.430 . S
C2627 C1066 1.324 . S
C2645 C1148 1.891 . S
C2641 C12 1.852 1_655 S
C2663 C1250 1.924 . S
C2659 C18 1.919 . S
C2681 C1484 2.119 . S
C2677 C33 1.738 . S
C2699 C1586 1.598 . S
C2695 C257 1.335 . S
C2713 C193 0.864 . S
C2717 C1402 0.845 . S
C2735 C1670 0.973 . S
C2731 C201 0.846 . S
C2753 C1316 1.727 . S
C2749 C214 1.679 . S
C2771 C1064 1.557 . S
C2767 C264 1.552 . S
C2785 C186 1.261 . S
C2789 C1166 1.264 . S
C2807 C1234 0.832 . S
C2803 C208 0.873 . S
C2821 C221 1.721 . S
C2825 C1502 1.674 . S
C2843 C1570 0.957 . S
C2839 C313 0.816 . S
C2857 C131 1.399 . S
C2861 C746 1.581 . S
C2879 C814 1.210 . S
C2875 C151 1.278 1_565 S
C2897 C896 0.792 . S
C2893 C166 0.798 . S
C2915 C1486 0.927 . S
C2911 C305 0.959 . S
C2929 C292 1.402 . S
C2933 C1654 1.315 . S
C2951 C662 1.716 . S
C2947 C144 1.723 . S
C2969 C476 0.835 . S
C2965 C116 0.835 . S
C2983 C95 1.958 . S
C2987 C1579 2.024 . S
C3005 C483 1.744 . S
C3001 C82 1.760 . S
C3019 C60 1.834 . S
C3023 C1663 1.862 . S
C3037 C103 1.191 . S
C3041 C657 1.316 . S
C3055 C39 1.384 . S
C3059 C1077 1.286 . S
C3077 C823 1.840 . S
C3073 C19 1.644 . S
C3091 C4 1.717 . S
C3095 C1239 1.790 . S
C3109 C54 2.093 . S
C3113 C991 2.122 . S
C3131 C1575 1.666 . S
C3127 C334 1.708 . S
C3145 C165 0.850 . S
C3149 C489 0.836 . S
C3167 C1659 0.945 1_655 S
C3163 C306 0.961 . S
C3181 C130 1.724 . S
C3185 C655 1.739 . S
C3199 C327 1.306 . S
C3203 C1075 1.502 . S
C3221 C819 1.142 . S
C3217 C158 1.117 . S
C3235 C299 0.767 . S
C3239 C1245 0.746 . S
C3257 C987 1.571 . S
C3253 C137 1.582 . S
C3275 C1581 1.007 . S
C3271 C250 1.019 . S
C3293 C735 1.543 1_565 S
C3289 C222 1.560 . S
C3307 C235 1.180 . S
C3311 C1161 1.126 . S
C3329 C907 0.734 . S
C3325 C187 0.742 . S
C3343 C207 0.956 . S
C3347 C993 0.946 . S
C3361 C173 1.166 . S
C3365 C1665 1.289 . S
C3383 C1323 1.614 . S
C3379 C228 1.562 . S
C3401 C1411 0.893 . S
C3397 C270 0.872 . S
