# Generated by pormake.
# Topology ssa, (4,4)-cn, num edge types: 1
# Building blocks:
#     Node 0, Type 0, BuildingBlock: NAWXER_clean_sbu_0, # of connection points: 4
#     Node 1, Type 0, BuildingBlock: NAWXER_clean_sbu_0, # of connection points: 4
#     Node 2, Type 0, BuildingBlock: NAWXER_clean_sbu_0, # of connection points: 4
#     Node 3, Type 0, BuildingBlock: NAWXER_clean_sbu_0, # of connection points: 4
#     Node 4, Type 0, BuildingBlock: NAWXER_clean_sbu_0, # of connection points: 4
#     Node 5, Type 0, BuildingBlock: NAWXER_clean_sbu_0, # of connection points: 4
#     Node 6, Type 1, BuildingBlock: ESEHIV_clean_sbu_0, # of connection points: 4
#     Node 7, Type 1, BuildingBlock: ESEHIV_clean_sbu_0, # of connection points: 4
#     Node 8, Type 1, BuildingBlock: ESEHIV_clean_sbu_0, # of connection points: 4
#     Node 9, Type 1, BuildingBlock: ESEHIV_clean_sbu_0, # of connection points: 4
#     Node 10, Type 1, BuildingBlock: ESEHIV_clean_sbu_0, # of connection points: 4
#     Node 11, Type 1, BuildingBlock: ESEHIV_clean_sbu_0, # of connection points: 4
#     Edge 12, Type (0, 1), BuildingBlock: OJICUG_clean_linker_0, # of connection points: 2
#     Edge 13, Type (0, 1), BuildingBlock: OJICUG_clean_linker_0, # of connection points: 2
#     Edge 14, Type (0, 1), BuildingBlock: OJICUG_clean_linker_0, # of connection points: 2
#     Edge 15, Type (0, 1), BuildingBlock: OJICUG_clean_linker_0, # of connection points: 2
#     Edge 16, Type (0, 1), BuildingBlock: OJICUG_clean_linker_0, # of connection points: 2
#     Edge 17, Type (0, 1), BuildingBlock: OJICUG_clean_linker_0, # of connection points: 2
#     Edge 18, Type (0, 1), BuildingBlock: OJICUG_clean_linker_0, # of connection points: 2
#     Edge 19, Type (0, 1), BuildingBlock: OJICUG_clean_linker_0, # of connection points: 2
#     Edge 20, Type (0, 1), BuildingBlock: OJICUG_clean_linker_0, # of connection points: 2
#     Edge 21, Type (0, 1), BuildingBlock: OJICUG_clean_linker_0, # of connection points: 2
#     Edge 22, Type (0, 1), BuildingBlock: OJICUG_clean_linker_0, # of connection points: 2
#     Edge 23, Type (0, 1), BuildingBlock: OJICUG_clean_linker_0, # of connection points: 2
#     Edge 24, Type (0, 1), BuildingBlock: OJICUG_clean_linker_0, # of connection points: 2
#     Edge 25, Type (0, 1), BuildingBlock: OJICUG_clean_linker_0, # of connection points: 2
#     Edge 26, Type (0, 1), BuildingBlock: OJICUG_clean_linker_0, # of connection points: 2
#     Edge 27, Type (0, 1), BuildingBlock: OJICUG_clean_linker_0, # of connection points: 2
#     Edge 28, Type (0, 1), BuildingBlock: OJICUG_clean_linker_0, # of connection points: 2
#     Edge 29, Type (0, 1), BuildingBlock: OJICUG_clean_linker_0, # of connection points: 2
#     Edge 30, Type (0, 1), BuildingBlock: OJICUG_clean_linker_0, # of connection points: 2
#     Edge 31, Type (0, 1), BuildingBlock: OJICUG_clean_linker_0, # of connection points: 2
#     Edge 32, Type (0, 1), BuildingBlock: OJICUG_clean_linker_0, # of connection points: 2
#     Edge 33, Type (0, 1), BuildingBlock: OJICUG_clean_linker_0, # of connection points: 2
#     Edge 34, Type (0, 1), BuildingBlock: OJICUG_clean_linker_0, # of connection points: 2
#     Edge 35, Type (0, 1), BuildingBlock: OJICUG_clean_linker_0, # of connection points: 2
# Relax obj value: 0.048
# Max RMSD: 0.097
# Mean RMSD: 0.064
data_MOF--net-ssa--node1-NAWXER_clean_sbu_0--node2-ESEHIV_clean_sbu_0--edge1-OJICUG_clean_linker_0
_symmetry_space_group_name_H-M    P1
_symmetry_Int_Tables_number       1
_symmetry_cell_setting            triclinic
loop_
_symmetry_equiv_pos_as_xyz
'x, y, z'
_cell_length_a     34.600789
_cell_length_b     34.644521
_cell_length_c     24.973043
_cell_angle_alpha  89.498187
_cell_angle_beta   90.140135
_cell_angle_gamma 119.78997
loop_
_atom_site_label
_atom_site_type_symbol
_atom_site_fract_x
_atom_site_fract_y
_atom_site_fract_z
_atom_type_partial_charge
C0 C 0.10185 0.61908 0.03547 0.0
C1 C 0.05756 0.47368 0.95844 0.0
O2 O 0.07012 0.58636 0.06064 0.0
Zn3 Zn 1.0309 0.51615 0.05569 0.0
O4 O 0.11799 0.61177 0.99358 0.0
Zn5 Zn 0.08125 0.54716 0.99503 0.0
O6 O 1.01674 0.53653 0.97265 0.0
O7 O 0.97078 0.50722 0.04104 0.0
O8 O 0.08846 0.51104 0.94119 0.0
O9 O 1.03503 0.47204 0.99989 0.0
O10 O 0.0464 0.4975 0.12271 0.0
O11 O 0.10355 0.52947 0.06735 0.0
C12 C 0.97775 0.52128 0.99278 0.0
C13 C 0.08729 0.51096 0.11278 0.0
C14 C 0.5167 0.06936 0.6073 0.0
C15 C 0.53358 0.96606 0.48416 0.0
O16 O 0.50421 0.02852 0.61648 0.0
Zn17 Zn 0.52313 1.01541 0.54832 0.0
O18 O 0.53482 0.08675 0.56217 0.0
Zn19 Zn 0.55286 0.06729 0.48885 0.0
O20 O 0.5145 0.07428 0.43711 0.0
O21 O 0.47743 1.02042 0.49598 0.0
O22 O 0.54803 1.00557 0.46575 0.0
O23 O 0.51599 0.95646 0.53062 0.0
O24 O 0.59359 0.0573 0.55382 0.0
O25 O 0.61678 0.10712 0.48834 0.0
C26 C 0.47761 0.04386 0.45598 0.0
C27 C 0.62532 0.09076 0.52953 0.0
C28 C 0.53319 0.44305 1.01233 0.0
C29 C 0.53973 0.55791 0.13678 0.0
O30 O 0.51987 0.46863 0.99236 0.0
Zn31 Zn 0.51006 0.52272 1.01602 0.0
O32 O 0.54496 0.44745 0.06131 0.0
Zn33 Zn 0.5364 0.4985 0.07742 0.0
O34 O 0.46597 0.46826 0.0766 0.0
O35 O 0.44574 0.49754 1.01109 0.0
O36 O 0.55102 0.52874 0.14691 0.0
O37 O 0.5246 0.55882 0.09012 0.0
O38 O 0.5501 0.56813 0.96563 0.0
O39 O 0.58455 0.54911 1.02611 0.0
C40 C 0.4353 0.47032 0.05016 0.0
C41 C 0.58603 0.5726 0.98541 0.0
C42 C 0.09142 0.61925 0.4654 0.0
C43 C 0.97888 0.49315 0.57524 0.0
O44 O 0.1067 0.61495 0.51063 0.0
Zn45 Zn 0.08224 0.57096 0.57985 0.0
O46 O 0.05106 0.59197 0.45362 0.0
Zn47 Zn 1.03374 0.55487 0.51806 0.0
O48 O 1.03494 0.59908 0.57742 0.0
O49 O 0.08618 0.61018 0.63775 0.0
O50 O 0.97326 0.50422 0.52829 0.0
O51 O 1.0173 0.51505 0.59718 0.0
O52 O 0.11919 0.54293 0.57992 0.0
O53 O 0.07194 0.52228 0.51255 0.0
C54 C 0.05547 0.61721 0.62083 0.0
C55 C 0.10289 0.51987 0.53794 0.0
C56 C 0.61172 0.97901 0.05311 0.0
C57 C 0.51152 1.02191 0.96685 0.0
O58 O 0.61136 1.01225 0.07457 0.0
Zn59 Zn 0.58345 0.05383 0.06142 0.0
O60 O 0.59157 0.96401 1.0089 0.0
Zn61 Zn 0.5658 1.00289 1.00232 0.0
O62 O 0.61975 0.06636 0.97757 0.0
O63 O 0.63406 0.11318 0.04349 0.0
O64 O 0.52062 0.99314 0.94849 0.0
O65 O 0.53319 0.04591 1.00668 0.0
O66 O 0.54775 0.04069 0.12696 0.0
O67 O 0.52438 0.98306 0.07317 0.0
C68 C 0.64261 0.10573 0.99639 0.0
C69 C 0.52044 0.99988 0.11694 0.0
C70 C 0.5977 0.50915 0.61838 0.0
C71 C 0.48215 0.50103 0.49221 0.0
O72 O 0.57102 0.52093 0.63825 0.0
Zn73 Zn 0.5152 0.52831 0.61408 0.0
O74 O 0.59336 0.49745 0.56951 0.0
Zn75 Zn 0.54086 0.50378 0.55331 0.0
O76 O 0.56941 0.57407 0.55515 0.0
O77 O 0.53821 0.59203 0.62008 0.0
O78 O 0.51162 0.49006 0.48296 0.0
O79 O 0.48018 0.51496 0.53898 0.0
O80 O 0.4701 0.48704 0.6635 0.0
O81 O 0.49077 0.45391 0.60404 0.0
C82 C 0.56596 0.60368 0.58163 0.0
C83 C 0.46683 0.45162 0.64437 0.0
Cu84 Cu 0.25959 0.45815 0.30507 0.0
N85 N 0.25808 0.41932 0.25291 0.0
N86 N 0.28128 0.40248 0.17795 0.0
C87 C 0.28041 0.43474 0.20666 0.0
C88 C 0.25792 0.36485 0.20725 0.0
C89 C 0.24312 0.37529 0.25345 0.0
O90 O 0.32047 0.4897 0.33618 0.0
C91 C 0.19537 0.46716 0.2506 0.0
O92 O 0.17575 0.42422 0.26063 0.0
H93 H 0.29935 0.46985 0.1968 0.0
H94 H 0.22568 0.35314 0.28661 0.0
N95 N 0.22242 0.43033 0.3638 0.0
N96 N 0.18144 0.42987 0.43308 0.0
C97 C 0.19274 0.4416 0.38154 0.0
C98 C 0.23027 0.41064 0.40593 0.0
C99 C 0.20504 0.41046 0.44898 0.0
C100 C 0.34304 0.46947 0.33891 0.0
O101 O 0.32737 0.43079 0.31556 0.0
H102 H 0.18372 0.46292 0.35939 0.0
H103 H 0.25586 0.40137 0.40698 0.0
O104 O 0.23531 0.49187 0.26731 0.0
H105 H 0.25423 0.33278 0.19764 0.0
H106 H 0.20632 0.39984 0.48952 0.0
Cu107 Cu 0.83709 0.27002 0.76558 0.0
N108 N 0.82792 0.23368 0.70703 0.0
N109 N 0.78978 0.18792 0.64063 0.0
C110 C 0.78798 0.20125 0.69063 0.0
C111 C 0.83258 0.2127 0.6249 0.0
C112 C 0.85622 0.24079 0.66631 0.0
O113 O 0.78449 0.23901 0.81302 0.0
C114 C 0.8451 0.33654 0.68914 0.0
O115 O 0.81585 0.30316 0.66042 0.0
H116 H 0.75746 0.1906 0.71291 0.0
H117 H 0.89067 0.267 0.66519 0.0
N118 N 0.8877 0.27866 0.80198 0.0
N119 N 0.95279 0.31631 0.84425 0.0
C120 C 0.92338 0.31878 0.81094 0.0
C121 C 0.89479 0.24944 0.83003 0.0
C122 C 0.93492 0.2727 0.8566 0.0
C123 C 0.78514 0.24185 0.86408 0.0
O124 O 0.82187 0.27146 0.88767 0.0
H125 H 0.92599 0.3496 0.79678 0.0
H126 H 0.87131 0.2142 0.83335 0.0
O127 O 0.85272 0.32918 0.73718 0.0
H128 H 0.84522 0.21217 0.58547 0.0
H129 H 0.94871 0.25897 0.88489 0.0
Cu130 Cu 0.58948 0.78481 0.31755 0.0
N131 N 0.62619 0.82208 0.2628 0.0
N132 N 0.64633 0.86893 0.19303 0.0
C133 C 0.62268 0.8552 0.23895 0.0
C134 C 0.66536 0.84343 0.18735 0.0
C135 C 0.65302 0.81464 0.23069 0.0
O136 O 0.55455 0.81073 0.34736 0.0
C137 C 0.57669 0.70122 0.28445 0.0
O138 O 0.61446 0.71572 0.31016 0.0
H139 H 0.60043 0.86661 0.2526 0.0
H140 H 0.66063 0.78816 0.23651 0.0
N141 N 0.62239 0.78272 0.37549 0.0
N142 N 0.63417 0.75775 0.45296 0.0
C143 C 0.60364 0.75795 0.41956 0.0
C144 C 0.66656 0.79963 0.38128 0.0
C145 C 0.67392 0.78382 0.42902 0.0
C146 C 0.57826 0.84969 0.36685 0.0
O147 O 0.6218 0.86868 0.36335 0.0
H148 H 0.56797 0.73756 0.42485 0.0
H149 H 0.69128 0.81986 0.35162 0.0
O150 O 0.55756 0.72485 0.28488 0.0
H151 H 0.6852 0.8444 0.15337 0.0
H152 H 0.70569 0.7892 0.44362 0.0
Cu153 Cu 0.82179 0.59137 0.80873 0.0
N154 N 0.8746 0.63144 0.77379 0.0
N155 N 0.94141 0.65958 0.7347 0.0
C156 C 0.91051 0.62674 0.7658 0.0
C157 C 0.9244 0.68628 0.723 0.0
C158 C 0.8833 0.66897 0.74749 0.0
O159 O 0.83693 0.55825 0.86114 0.0
C160 C 0.73674 0.52798 0.76467 0.0
O161 O 0.72659 0.51335 0.81425 0.0
H162 H 0.91296 0.59844 0.77967 0.0
H163 H 0.86055 0.68181 0.74456 0.0
N164 N 0.80175 0.62416 0.847 0.0
N165 N 0.75532 0.64174 0.88814 0.0
C166 C 0.75944 0.61562 0.8515 0.0
C167 C 0.82547 0.65748 0.88123 0.0
C168 C 0.79687 0.66824 0.90694 0.0
C169 C 0.85135 0.53206 0.84873 0.0
O170 O 0.84906 0.52005 0.79853 0.0
H171 H 0.7316 0.58873 0.83127 0.0
H172 H 0.86065 0.67128 0.88898 0.0
O173 O 0.77667 0.55769 0.75388 0.0
H174 H 0.93973 0.7152 0.69693 0.0
H175 H 0.80557 0.69207 0.93887 0.0
Cu176 Cu 0.27092 0.84063 0.26951 0.0
N177 N 0.23467 0.82709 0.20918 0.0
N178 N 0.19203 0.78534 0.14247 0.0
C179 C 0.21338 0.78628 0.18787 0.0
C180 C 0.2 0.82713 0.1343 0.0
C181 C 0.22631 0.853 0.17602 0.0
O182 O 0.24266 0.78824 0.3181 0.0
C183 C 0.34855 0.89464 0.21409 0.0
O184 O 0.32416 0.91292 0.20252 0.0
H185 H 0.21397 0.75777 0.20506 0.0
H186 H 0.23875 0.88817 0.18144 0.0
N187 N 0.27714 0.89021 0.30618 0.0
N188 N 0.31459 0.95409 0.35034 0.0
C189 C 0.31728 0.92357 0.32044 0.0
C190 C 0.24746 0.89951 0.32903 0.0
C191 C 0.2707 0.93892 0.35717 0.0
C192 C 0.20064 0.77076 0.32574 0.0
O193 O 0.17968 0.78909 0.30214 0.0
H194 H 0.3482 0.924 0.31251 0.0
H195 H 0.21171 0.87826 0.3275 0.0
O196 O 0.33144 0.85918 0.24289 0.0
H197 H 0.1873 0.83788 0.10117 0.0
H198 H 0.25663 0.95423 0.38216 0.0
Cu199 Cu 0.45889 0.22271 0.82175 0.0
N200 N 0.42055 0.23928 0.78841 0.0
N201 N 0.40063 0.28473 0.74836 0.0
C202 C 0.43067 0.28171 0.77981 0.0
C203 C 0.36991 0.24247 0.73673 0.0
C204 C 0.38192 0.2144 0.76223 0.0
O205 O 0.49296 0.26864 0.87543 0.0
C206 C 0.46666 0.17361 0.74056 0.0
O207 O 0.42336 0.15455 0.74693 0.0
H208 H 0.4611 0.31018 0.79308 0.0
H209 H 0.36469 0.17854 0.7597 0.0
N210 N 0.42827 0.16894 0.85892 0.0
N211 N 0.41822 0.10409 0.89018 0.0
C212 C 0.44527 0.14168 0.86325 0.0
C213 C 0.38892 0.1482 0.88486 0.0
C214 C 0.38288 0.10809 0.90497 0.0
C215 C 0.52179 0.30896 0.865 0.0
O216 O 0.5365 0.32005 0.81562 0.0
H217 H 0.4778 0.14993 0.84808 0.0
H218 H 0.36661 0.16141 0.88929 0.0
O219 O 0.49154 0.20899 0.76705 0.0
H220 H 0.34196 0.23275 0.70999 0.0
H221 H 0.35512 0.08411 0.92892 0.0
C222 C 0.16275 0.52676 0.14657 0.0
C223 C 0.11592 0.50398 0.15207 0.0
H224 H 0.22508 0.53408 0.17438 0.0
C225 C 0.09667 0.47282 0.19392 0.0
H226 H 0.17878 0.55125 0.11497 0.0
C227 C 0.12314 0.46282 0.22734 0.0
C228 C 0.16969 0.48429 0.22067 0.0
H229 H 0.0609 0.45474 0.19955 0.0
H230 H 0.10691 0.43721 0.25775 0.0
C231 C 0.18942 0.51731 0.18086 0.0
C232 C 0.70646 0.14956 0.52943 0.0
C233 C 0.67036 0.11226 0.5535 0.0
H234 H 0.77374 0.20289 0.53858 0.0
C235 C 0.67647 0.09758 0.60389 0.0
H236 H 0.70285 0.16161 0.49062 0.0
C237 C 0.71659 0.12132 0.63118 0.0
C238 C 0.7518 0.15979 0.60845 0.0
H239 H 0.64955 0.06885 0.62362 0.0
H240 H 0.71974 0.11055 0.671 0.0
C241 C 0.74703 0.173 0.55663 0.0
C242 C 0.52765 0.62045 0.16806 0.0
C243 C 0.54497 0.59169 0.17742 0.0
H244 H 0.52304 0.67696 0.19478 0.0
C245 C 0.56877 0.59685 0.22498 0.0
H246 H 0.50884 0.61734 0.13205 0.0
C247 C 0.57692 0.63108 0.26074 0.0
C248 C 0.56113 0.66092 0.25043 0.0
H249 H 0.58243 0.57536 0.23383 0.0
H250 H 0.59679 0.63491 0.29599 0.0
C251 C 0.53541 0.65448 0.20425 0.0
C252 C 1.03099 0.63129 0.70885 0.0
C253 C 0.03762 0.63997 0.65365 0.0
H254 H 0.99452 0.6309 0.7784 0.0
C255 C 1.01803 0.66225 0.62803 0.0
H256 H 0.04534 0.61373 0.72942 0.0
C257 C 0.98925 0.67224 0.65596 0.0
C258 C 0.97888 0.65941 0.70986 0.0
H259 H 1.02256 0.66918 0.5854 0.0
H260 H 0.97229 0.68657 0.63412 0.0
C261 C 1.00154 0.64064 0.73667 0.0
C262 C 0.4589 0.92546 0.14867 0.0
C263 C 0.48112 0.97234 0.15156 0.0
H264 H 0.39968 0.86357 0.16767 0.0
C265 C 0.46183 0.99227 0.1819 0.0
H266 H 0.47301 0.90907 0.12566 0.0
C267 C 0.41968 0.96624 0.20494 0.0
C268 C 0.39634 0.91967 0.19938 0.0
H269 H 0.47783 0.02814 0.18474 0.0
H270 H 0.40437 0.98278 0.22522 0.0
C271 C 0.41705 0.8993 0.17288 0.0
C272 C 0.42173 0.36884 0.64157 0.0
C273 C 0.44008 0.40821 0.67149 0.0
H274 H 0.39335 0.29795 0.64324 0.0
C275 C 0.43887 0.40537 0.72763 0.0
H276 H 0.42239 0.3702 0.5982 0.0
C277 C 0.42313 0.36413 0.75322 0.0
C278 C 0.40728 0.32505 0.72315 0.0
H279 H 0.45323 0.43523 0.7516 0.0
H280 H 0.42538 0.36288 0.7964 0.0
C281 C 0.40493 0.32754 0.66724 0.0
C282 C 0.56669 0.9485 0.4052 0.0
C283 C 0.53987 0.93349 0.4515 0.0
H284 H 0.59914 0.93357 0.34239 0.0
C285 C 0.52123 0.88827 0.46621 0.0
H286 H 0.58164 0.98288 0.39222 0.0
C287 C 0.53062 0.85944 0.43633 0.0
C288 C 0.55927 0.87549 0.39169 0.0
H289 H 0.50032 0.87545 0.50146 0.0
H290 H 0.51753 0.8254 0.44983 0.0
C291 C 0.57659 0.92012 0.37623 0.0
C292 C 0.63349 0.60182 0.90334 0.0
C293 C 0.62954 0.60056 0.95933 0.0
H294 H 0.67754 0.61621 0.83641 0.0
C295 C 0.66831 0.61955 0.9907 0.0
H296 H 0.60408 0.58705 0.8783 0.0
C297 C 0.71014 0.63655 0.96686 0.0
C298 C 0.71396 0.6341 0.91119 0.0
H299 H 0.66609 0.61896 1.03401 0.0
H300 H 0.73907 0.64835 0.9924 0.0
C301 C 0.67541 0.61813 0.87947 0.0
C302 C 0.1669 0.68185 0.43543 0.0
C303 C 0.12036 0.65652 0.42806 0.0
H304 H 0.22912 0.73726 0.40853 0.0
C305 C 0.10146 0.66794 0.38525 0.0
H306 H 0.18269 0.6739 0.46783 0.0
C307 C 0.12793 0.70438 0.3519 0.0
C308 C 0.17428 0.73023 0.35967 0.0
H309 H 0.06591 0.64933 0.37813 0.0
H310 H 0.11182 0.71249 0.32001 0.0
C311 C 0.19362 0.71806 0.40131 0.0
C312 C 0.44941 0.03724 0.9783 0.0
C313 C 0.47682 0.02956 0.94359 0.0
H314 H 0.40787 0.06643 0.98772 0.0
C315 C 0.47697 0.03853 0.88883 0.0
H316 H 0.44887 0.03047 1.02084 0.0
C317 C 0.45394 0.05962 0.87017 0.0
C318 C 0.43006 0.07133 0.90588 0.0
H319 H 0.49811 0.03321 0.86149 0.0
H320 H 0.45746 0.0698 0.82856 0.0
C321 C 0.4258 0.05758 0.95946 0.0
C322 C 0.42127 0.51522 0.45835 0.0
C323 C 0.44965 0.49737 0.45013 0.0
H324 H 0.36602 0.52156 0.42925 0.0
C325 C 0.44554 0.47487 0.40209 0.0
H326 H 0.42368 0.53315 0.49466 0.0
C327 C 0.41249 0.46828 0.36477 0.0
C328 C 0.38289 0.48445 0.37395 0.0
H329 H 0.46685 0.46094 0.39406 0.0
H330 H 0.40921 0.44917 0.32924 0.0
C331 C 0.38845 0.50906 0.42059 0.0
C332 C 1.02057 0.39126 0.9545 0.0
C333 C 0.04214 0.43251 0.92763 0.0
H334 H 0.9755 0.32133 0.94852 0.0
C335 C 0.04037 0.43354 0.87153 0.0
H336 H 1.02149 0.38962 0.99781 0.0
C337 C 1.01347 0.39441 0.84338 0.0
C338 C 0.98863 0.35369 0.87082 0.0
H339 H 0.05641 0.46492 0.84989 0.0
H340 H 1.00983 0.39633 0.80051 0.0
C341 C 0.99435 0.35212 0.92629 0.0
C342 C 0.90833 0.52718 0.97809 0.0
C343 C 0.94167 0.51921 0.95812 0.0
H344 H 0.85372 0.53808 0.95914 0.0
C345 C 0.94231 0.51173 0.90295 0.0
H346 H 0.90706 0.53318 1.02037 0.0
C347 C 0.91132 0.51338 0.86827 0.0
C348 C 0.87935 0.52365 0.88749 0.0
H349 H 0.96736 0.50518 0.88631 0.0
H350 H 0.91382 0.50856 0.82589 0.0
C351 C 0.87784 0.53 0.943 0.0
C352 C 0.39491 1.00847 0.45989 0.0
C353 C 0.4347 0.03206 0.43033 0.0
H354 H 0.32406 0.9657 0.45674 0.0
C355 C 0.43234 0.03794 0.37505 0.0
H356 H 0.39578 1.00391 0.50277 0.0
C357 C 0.39123 1.01602 0.34901 0.0
C358 C 0.35202 0.98858 0.37793 0.0
H359 H 0.46239 0.05598 0.35132 0.0
H360 H 0.39035 1.01728 0.30572 0.0
C361 C 0.3538 0.9871 0.43385 0.0
C362 C 0.54521 0.41967 0.9223 0.0
C363 C 0.53525 0.40968 0.97698 0.0
H364 H 0.55018 0.39653 0.84485 0.0
C365 C 0.52462 0.36711 0.99571 0.0
H366 H 0.55379 0.45224 0.9066 0.0
C367 C 0.52163 0.33457 0.95982 0.0
C368 C 0.53047 0.34434 0.90477 0.0
H369 H 0.51662 0.35836 0.03755 0.0
H370 H 0.51144 0.30148 0.97496 0.0
C371 C 0.54341 0.38771 0.88687 0.0
C372 C 0.10112 0.46734 0.46904 0.0
C373 C 0.12006 0.49158 0.51606 0.0
H374 H 0.10582 0.42815 0.40636 0.0
C375 C 0.15642 0.49012 0.53927 0.0
H376 H 0.07278 0.46716 0.45026 0.0
C377 C 0.17495 0.46698 0.51408 0.0
C378 C 0.15753 0.4453 0.46525 0.0
H379 H 0.17159 0.50821 0.57561 0.0
H380 H 0.20442 0.46827 0.53095 0.0
C381 C 0.11977 0.44472 0.4439 0.0
C382 C 0.71065 0.18215 0.9848 0.0
C383 C 0.67802 0.14181 0.96251 0.0
H384 H 0.76987 0.2451 0.97157 0.0
C385 C 0.67969 0.13588 0.90695 0.0
H386 H 0.71046 0.18802 1.0273 0.0
C387 C 0.71331 0.16891 0.87478 0.0
C388 C 0.74674 0.20869 0.89727 0.0
H389 H 0.65499 0.10547 0.88813 0.0
H390 H 0.71374 0.16267 0.83242 0.0
C391 C 0.74474 0.21495 0.95272 0.0
C392 C 0.63012 0.66466 0.53293 0.0
C393 C 0.59024 0.64994 0.56162 0.0
H394 H 0.67601 0.7115 0.47615 0.0
C395 C 0.56994 0.67634 0.56172 0.0
H396 H 0.64652 0.64494 0.53239 0.0
C397 C 0.58663 0.71424 0.52893 0.0
C398 C 0.62419 0.72661 0.49636 0.0
H399 H 0.53909 0.66565 0.58329 0.0
H400 H 0.56861 0.73232 0.52636 0.0
C401 C 0.64716 0.70288 0.50091 0.0
C402 C 0.47261 0.07602 0.68268 0.0
C403 C 0.50802 0.09655 0.64622 0.0
H404 H 0.4318 0.08452 0.74016 0.0
C405 C 0.5327 0.14351 0.64427 0.0
H406 H 0.45285 0.0401 0.68519 0.0
C407 C 0.52127 0.16925 0.67694 0.0
C408 C 0.48418 0.14844 0.71104 0.0
H409 H 0.56036 0.16038 0.61666 0.0
H410 H 0.54 0.20518 0.67364 0.0
C411 C 0.46051 0.1016 0.71406 0.0
C412 C 0.37679 0.40754 0.10374 0.0
C413 C 0.38919 0.445 0.07067 0.0
H414 H 0.33172 0.36387 0.16353 0.0
C415 C 0.36016 0.46216 0.06566 0.0
H416 H 0.3984 0.39338 0.108 0.0
C417 C 0.32201 0.44528 0.0978 0.0
C418 C 0.31205 0.41071 0.13485 0.0
H419 H 0.36883 0.49097 0.04052 0.0
H420 H 0.30191 0.46124 0.09647 0.0
C421 C 0.33841 0.39037 0.1353 0.0
C422 C 0.90247 0.42446 0.5798 0.0
C423 C 0.94212 0.45526 0.60522 0.0
H424 H 0.84055 0.36312 0.58634 0.0
C425 C 0.94724 0.44883 0.66002 0.0
H426 H 0.89724 0.42842 0.5378 0.0
C427 C 0.91458 0.41175 0.68807 0.0
C428 C 0.8759 0.37971 0.66206 0.0
H429 H 0.97706 0.47209 0.68125 0.0
H430 H 0.92058 0.40737 0.72967 0.0
C431 C 0.86987 0.38705 0.6078 0.0
C432 C 0.62736 0.91567 0.06609 0.0
C433 C 0.629 0.95456 0.08512 0.0
H434 H 0.63241 0.85781 0.0861 0.0
C435 C 0.64183 0.96706 0.13862 0.0
H436 H 0.61754 0.90506 1.02522 0.0
C437 C 0.64934 0.93974 0.17326 0.0
C438 C 0.64535 0.89983 0.1551 0.0
H439 H 0.64364 0.9968 0.15486 0.0
H440 H 0.65685 0.94898 0.2149 0.0
C441 C 0.63588 0.88868 0.10079 0.0
C442 C 0.67546 0.52172 0.6344 0.0
C443 C 0.63256 0.50914 0.65354 0.0
H444 H 0.74247 0.53817 0.65453 0.0
C445 C 0.62361 0.49931 0.70839 0.0
H446 H 0.68343 0.52971 0.5924 0.0
C447 C 0.65684 0.50301 0.74356 0.0
C448 C 0.70044 0.51779 0.72521 0.0
H449 H 0.59086 0.48931 0.72441 0.0
H450 H 0.64872 0.49617 0.7857 0.0
C451 C 0.70925 0.52661 0.67001 0.0
C452 C 0.10853 0.66855 0.11086 0.0
C453 C 0.12147 0.66402 0.05896 0.0
H454 H 0.12147 0.71131 0.17798 0.0
C455 C 0.15506 0.70191 1.03256 0.0
H456 H 0.08276 0.64023 0.13249 0.0
C457 C 0.17656 0.74301 0.05873 0.0
C458 C 0.1651 0.74638 0.11166 0.0
H459 H 0.16567 0.69949 0.99257 0.0
H460 H 0.20367 0.77151 0.03893 0.0
C461 C 0.13046 0.70916 0.13703 0.0
loop_
_geom_bond_atom_site_label_1
_geom_bond_atom_site_label_2
_geom_bond_distance
_geom_bond_site_symmetry_2
_ccdc_geom_bond_type
C0 O2 1.247 . S
C0 O4 1.258 . S
C1 O8 1.247 1_655 S
C1 O9 1.258 . S
O2 C0 1.247 . S
O2 Zn3 2.028 1_455 S
Zn3 O2 2.028 1_655 S
Zn3 O7 2.035 1_554 S
Zn3 O9 2.035 1_554 S
Zn3 O10 2.028 1_655 S
O4 C0 1.258 . S
O4 Zn5 2.035 1_554 S
Zn5 O4 2.035 1_556 S
Zn5 O6 2.028 . S
Zn5 O8 2.028 . S
Zn5 O11 2.035 1_556 S
O6 Zn5 2.028 . S
O6 C12 1.247 1_455 S
O7 Zn3 2.035 1_556 S
O7 C12 1.258 . S
O8 C1 1.247 1_455 S
O8 Zn5 2.028 . S
O9 C1 1.258 . S
O9 Zn3 2.035 1_556 S
O10 Zn3 2.028 1_455 S
O10 C13 1.247 . S
O11 Zn5 2.035 1_554 S
O11 C13 1.258 . S
C12 O6 1.247 1_655 S
C12 O7 1.258 . S
C13 O10 1.247 . S
C13 O11 1.258 . S
C14 O16 1.247 . S
C14 O18 1.258 . S
C15 O22 1.247 1_565 S
C15 O23 1.258 . S
O16 C14 1.247 . S
O16 Zn17 2.028 1_545 S
Zn17 O16 2.028 1_565 S
Zn17 O21 2.035 . S
Zn17 O23 2.035 . S
Zn17 O24 2.028 1_565 S
O18 C14 1.258 . S
O18 Zn19 2.035 . S
Zn19 O18 2.035 . S
Zn19 O20 2.028 . S
Zn19 O22 2.028 . S
Zn19 O25 2.035 . S
O20 Zn19 2.028 . S
O20 C26 1.247 1_545 S
O21 Zn17 2.035 . S
O21 C26 1.258 . S
O22 C15 1.247 1_545 S
O22 Zn19 2.028 . S
O23 C15 1.258 . S
O23 Zn17 2.035 . S
O24 Zn17 2.028 1_545 S
O24 C27 1.247 . S
O25 Zn19 2.035 . S
O25 C27 1.258 . S
C26 O20 1.247 1_565 S
C26 O21 1.258 . S
C27 O24 1.247 . S
C27 O25 1.258 . S
C28 O30 1.247 . S
C28 O32 1.258 . S
C29 O36 1.247 . S
C29 O37 1.258 . S
O30 C28 1.247 . S
O30 Zn31 2.028 . S
Zn31 O30 2.028 . S
Zn31 O35 2.035 1_556 S
Zn31 O37 2.035 1_556 S
Zn31 O38 2.028 . S
O32 C28 1.258 . S
O32 Zn33 2.035 1_556 S
Zn33 O32 2.035 1_554 S
Zn33 O34 2.028 . S
Zn33 O36 2.028 . S
Zn33 O39 2.035 1_554 S
O34 Zn33 2.028 . S
O34 C40 1.247 . S
O35 Zn31 2.035 1_554 S
O35 C40 1.258 . S
O36 C29 1.247 . S
O36 Zn33 2.028 . S
O37 C29 1.258 . S
O37 Zn31 2.035 1_554 S
O38 Zn31 2.028 . S
O38 C41 1.247 . S
O39 Zn33 2.035 1_556 S
O39 C41 1.258 . S
C40 O34 1.247 . S
C40 O35 1.258 . S
C41 O38 1.247 . S
C41 O39 1.258 . S
C42 O44 1.247 . S
C42 O46 1.258 . S
C43 O50 1.247 . S
C43 O51 1.258 . S
O44 C42 1.247 . S
O44 Zn45 2.028 . S
Zn45 O44 2.028 . S
Zn45 O49 2.035 1_455 S
Zn45 O51 2.035 1_455 S
Zn45 O52 2.028 . S
O46 C42 1.258 . S
O46 Zn47 2.035 1_455 S
Zn47 O46 2.035 1_655 S
Zn47 O48 2.028 . S
Zn47 O50 2.028 . S
Zn47 O53 2.035 1_655 S
O48 Zn47 2.028 . S
O48 C54 1.247 . S
O49 Zn45 2.035 1_655 S
O49 C54 1.258 . S
O50 C43 1.247 . S
O50 Zn47 2.028 . S
O51 C43 1.258 . S
O51 Zn45 2.035 1_655 S
O52 Zn45 2.028 . S
O52 C55 1.247 . S
O53 Zn47 2.035 1_455 S
O53 C55 1.258 . S
C54 O48 1.247 . S
C54 O49 1.258 . S
C55 O52 1.247 . S
C55 O53 1.258 . S
C56 O58 1.247 . S
C56 O60 1.258 . S
C57 O64 1.247 . S
C57 O65 1.258 . S
O58 C56 1.247 . S
O58 Zn59 2.028 1_565 S
Zn59 O58 2.028 1_545 S
Zn59 O63 2.035 1_554 S
Zn59 O65 2.035 1_554 S
Zn59 O66 2.028 1_545 S
O60 C56 1.258 . S
O60 Zn61 2.035 1_554 S
Zn61 O60 2.035 1_556 S
Zn61 O62 2.028 1_565 S
Zn61 O64 2.028 1_565 S
Zn61 O67 2.035 1_556 S
O62 Zn61 2.028 1_545 S
O62 C68 1.247 . S
O63 Zn59 2.035 1_556 S
O63 C68 1.258 . S
O64 C57 1.247 . S
O64 Zn61 2.028 1_545 S
O65 C57 1.258 . S
O65 Zn59 2.035 1_556 S
O66 Zn59 2.028 1_565 S
O66 C69 1.247 . S
O67 Zn61 2.035 1_554 S
O67 C69 1.258 . S
C68 O62 1.247 . S
C68 O63 1.258 . S
C69 O66 1.247 . S
C69 O67 1.258 . S
C70 O72 1.247 . S
C70 O74 1.258 . S
C71 O78 1.247 . S
C71 O79 1.258 . S
O72 C70 1.247 . S
O72 Zn73 2.028 . S
Zn73 O72 2.028 . S
Zn73 O77 2.035 . S
Zn73 O79 2.035 . S
Zn73 O80 2.028 . S
O74 C70 1.258 . S
O74 Zn75 2.035 . S
Zn75 O74 2.035 . S
Zn75 O76 2.028 . S
Zn75 O78 2.028 . S
Zn75 O81 2.035 . S
O76 Zn75 2.028 . S
O76 C82 1.247 . S
O77 Zn73 2.035 . S
O77 C82 1.258 . S
O78 C71 1.247 . S
O78 Zn75 2.028 . S
O79 C71 1.258 . S
O79 Zn73 2.035 . S
O80 Zn73 2.028 . S
O80 C83 1.247 . S
O81 Zn75 2.035 . S
O81 C83 1.258 . S
C82 O76 1.247 . S
C82 O77 1.258 . S
C83 O80 1.247 . S
C83 O81 1.258 . S
Cu84 N85 1.999 . S
Cu84 O90 1.974 . S
Cu84 N95 1.985 . S
Cu84 O104 1.959 . S
N85 Cu84 1.999 . S
N85 C87 1.263 . S
N85 C89 1.389 . S
N86 C87 1.358 . S
N86 C88 1.400 . S
C87 N85 1.263 . S
C87 N86 1.358 . S
C87 H93 0.930 . S
C88 N86 1.400 . S
C88 C89 1.351 . S
C88 H105 0.930 . S
C89 N85 1.389 . S
C89 C88 1.351 . S
C89 H94 0.930 . S
O90 Cu84 1.974 . S
O90 C100 1.282 . S
C91 O92 1.261 . S
C91 O104 1.251 . S
O92 C91 1.261 . S
H93 C87 0.930 . S
H94 C89 0.930 . S
N95 Cu84 1.985 . S
N95 C97 1.335 . S
N95 C98 1.390 . S
N96 C97 1.345 . S
N96 C99 1.336 . S
C97 N95 1.335 . S
C97 N96 1.345 . S
C97 H102 0.930 . S
C98 N95 1.390 . S
C98 C99 1.346 . S
C98 H103 0.930 . S
C99 N96 1.336 . S
C99 C98 1.346 . S
C99 H106 0.929 . S
C100 O90 1.282 . S
C100 O101 1.216 . S
O101 C100 1.216 . S
H102 C97 0.930 . S
H103 C98 0.930 . S
O104 Cu84 1.959 . S
O104 C91 1.251 . S
H105 C88 0.930 . S
H106 C99 0.929 . S
Cu107 N108 1.999 . S
Cu107 O113 1.974 . S
Cu107 N118 1.985 . S
Cu107 O127 1.959 . S
N108 Cu107 1.999 . S
N108 C110 1.263 . S
N108 C112 1.389 . S
N109 C110 1.358 . S
N109 C111 1.400 . S
C110 N108 1.263 . S
C110 N109 1.358 . S
C110 H116 0.930 . S
C111 N109 1.400 . S
C111 C112 1.351 . S
C111 H128 0.930 . S
C112 N108 1.389 . S
C112 C111 1.351 . S
C112 H117 0.930 . S
O113 Cu107 1.974 . S
O113 C123 1.282 . S
C114 O115 1.261 . S
C114 O127 1.251 . S
O115 C114 1.261 . S
H116 C110 0.930 . S
H117 C112 0.930 . S
N118 Cu107 1.985 . S
N118 C120 1.335 . S
N118 C121 1.390 . S
N119 C120 1.345 . S
N119 C122 1.336 . S
C120 N118 1.335 . S
C120 N119 1.345 . S
C120 H125 0.930 . S
C121 N118 1.390 . S
C121 C122 1.346 . S
C121 H126 0.930 . S
C122 N119 1.336 . S
C122 C121 1.346 . S
C122 H129 0.929 . S
C123 O113 1.282 . S
C123 O124 1.216 . S
O124 C123 1.216 . S
H125 C120 0.930 . S
H126 C121 0.930 . S
O127 Cu107 1.959 . S
O127 C114 1.251 . S
H128 C111 0.930 . S
H129 C122 0.929 . S
Cu130 N131 1.999 . S
Cu130 O136 1.974 . S
Cu130 N141 1.985 . S
Cu130 O150 1.959 . S
N131 Cu130 1.999 . S
N131 C133 1.263 . S
N131 C135 1.389 . S
N132 C133 1.358 . S
N132 C134 1.400 . S
C133 N131 1.263 . S
C133 N132 1.358 . S
C133 H139 0.930 . S
C134 N132 1.400 . S
C134 C135 1.351 . S
C134 H151 0.930 . S
C135 N131 1.389 . S
C135 C134 1.351 . S
C135 H140 0.930 . S
O136 Cu130 1.974 . S
O136 C146 1.282 . S
C137 O138 1.261 . S
C137 O150 1.251 . S
O138 C137 1.261 . S
H139 C133 0.930 . S
H140 C135 0.930 . S
N141 Cu130 1.985 . S
N141 C143 1.335 . S
N141 C144 1.390 . S
N142 C143 1.345 . S
N142 C145 1.336 . S
C143 N141 1.335 . S
C143 N142 1.345 . S
C143 H148 0.930 . S
C144 N141 1.390 . S
C144 C145 1.346 . S
C144 H149 0.930 . S
C145 N142 1.336 . S
C145 C144 1.346 . S
C145 H152 0.929 . S
C146 O136 1.282 . S
C146 O147 1.216 . S
O147 C146 1.216 . S
H148 C143 0.930 . S
H149 C144 0.930 . S
O150 Cu130 1.959 . S
O150 C137 1.251 . S
H151 C134 0.930 . S
H152 C145 0.929 . S
Cu153 N154 1.999 . S
Cu153 O159 1.974 . S
Cu153 N164 1.985 . S
Cu153 O173 1.959 . S
N154 Cu153 1.999 . S
N154 C156 1.263 . S
N154 C158 1.389 . S
N155 C156 1.358 . S
N155 C157 1.400 . S
C156 N154 1.263 . S
C156 N155 1.358 . S
C156 H162 0.930 . S
C157 N155 1.400 . S
C157 C158 1.351 . S
C157 H174 0.930 . S
C158 N154 1.389 . S
C158 C157 1.351 . S
C158 H163 0.930 . S
O159 Cu153 1.974 . S
O159 C169 1.282 . S
C160 O161 1.261 . S
C160 O173 1.251 . S
O161 C160 1.261 . S
H162 C156 0.930 . S
H163 C158 0.930 . S
N164 Cu153 1.985 . S
N164 C166 1.335 . S
N164 C167 1.390 . S
N165 C166 1.345 . S
N165 C168 1.336 . S
C166 N164 1.335 . S
C166 N165 1.345 . S
C166 H171 0.930 . S
C167 N164 1.390 . S
C167 C168 1.346 . S
C167 H172 0.930 . S
C168 N165 1.336 . S
C168 C167 1.346 . S
C168 H175 0.929 . S
C169 O159 1.282 . S
C169 O170 1.216 . S
O170 C169 1.216 . S
H171 C166 0.930 . S
H172 C167 0.930 . S
O173 Cu153 1.959 . S
O173 C160 1.251 . S
H174 C157 0.930 . S
H175 C168 0.929 . S
Cu176 N177 1.999 . S
Cu176 O182 1.974 . S
Cu176 N187 1.985 . S
Cu176 O196 1.959 . S
N177 Cu176 1.999 . S
N177 C179 1.263 . S
N177 C181 1.389 . S
N178 C179 1.358 . S
N178 C180 1.400 . S
C179 N177 1.263 . S
C179 N178 1.358 . S
C179 H185 0.930 . S
C180 N178 1.400 . S
C180 C181 1.351 . S
C180 H197 0.930 . S
C181 N177 1.389 . S
C181 C180 1.351 . S
C181 H186 0.930 . S
O182 Cu176 1.974 . S
O182 C192 1.282 . S
C183 O184 1.261 . S
C183 O196 1.251 . S
O184 C183 1.261 . S
H185 C179 0.930 . S
H186 C181 0.930 . S
N187 Cu176 1.985 . S
N187 C189 1.335 . S
N187 C190 1.390 . S
N188 C189 1.345 . S
N188 C191 1.336 . S
C189 N187 1.335 . S
C189 N188 1.345 . S
C189 H194 0.930 . S
C190 N187 1.390 . S
C190 C191 1.346 . S
C190 H195 0.930 . S
C191 N188 1.336 . S
C191 C190 1.346 . S
C191 H198 0.929 . S
C192 O182 1.282 . S
C192 O193 1.216 . S
O193 C192 1.216 . S
H194 C189 0.930 . S
H195 C190 0.930 . S
O196 Cu176 1.959 . S
O196 C183 1.251 . S
H197 C180 0.930 . S
H198 C191 0.929 . S
Cu199 N200 1.999 . S
Cu199 O205 1.974 . S
Cu199 N210 1.985 . S
Cu199 O219 1.959 . S
N200 Cu199 1.999 . S
N200 C202 1.263 . S
N200 C204 1.389 . S
N201 C202 1.358 . S
N201 C203 1.400 . S
C202 N200 1.263 . S
C202 N201 1.358 . S
C202 H208 0.930 . S
C203 N201 1.400 . S
C203 C204 1.351 . S
C203 H220 0.930 . S
C204 N200 1.389 . S
C204 C203 1.351 . S
C204 H209 0.930 . S
O205 Cu199 1.974 . S
O205 C215 1.282 . S
C206 O207 1.261 . S
C206 O219 1.251 . S
O207 C206 1.261 . S
H208 C202 0.930 . S
H209 C204 0.930 . S
N210 Cu199 1.985 . S
N210 C212 1.335 . S
N210 C213 1.390 . S
N211 C212 1.345 . S
N211 C214 1.336 . S
C212 N210 1.335 . S
C212 N211 1.345 . S
C212 H217 0.930 . S
C213 N210 1.390 . S
C213 C214 1.346 . S
C213 H218 0.930 . S
C214 N211 1.336 . S
C214 C213 1.346 . S
C214 H221 0.929 . S
C215 O205 1.282 . S
C215 O216 1.216 . S
O216 C215 1.216 . S
H217 C212 0.930 . S
H218 C213 0.930 . S
O219 Cu199 1.959 . S
O219 C206 1.251 . S
H220 C203 0.930 . S
H221 C214 0.929 . S
C222 C223 1.387 . S
C222 H226 0.950 . S
C222 C231 1.390 . S
C223 C222 1.387 . S
C223 C225 1.387 . S
H224 C231 0.950 . S
C225 C223 1.387 . S
C225 C227 1.390 . S
C225 H229 0.950 . S
H226 C222 0.950 . S
C227 C225 1.390 . S
C227 C228 1.387 . S
C227 H230 0.950 . S
C228 C227 1.387 . S
C228 C231 1.387 . S
H229 C225 0.950 . S
H230 C227 0.950 . S
C231 C222 1.390 . S
C231 H224 0.950 . S
C231 C228 1.387 . S
C232 C233 1.387 . S
C232 H236 0.950 . S
C232 C241 1.390 . S
C233 C232 1.387 . S
C233 C235 1.387 . S
H234 C241 0.950 . S
C235 C233 1.387 . S
C235 C237 1.390 . S
C235 H239 0.950 . S
H236 C232 0.950 . S
C237 C235 1.390 . S
C237 C238 1.387 . S
C237 H240 0.950 . S
C238 C237 1.387 . S
C238 C241 1.387 . S
H239 C235 0.950 . S
H240 C237 0.950 . S
C241 C232 1.390 . S
C241 H234 0.950 . S
C241 C238 1.387 . S
C242 C243 1.387 . S
C242 H246 0.950 . S
C242 C251 1.390 . S
C243 C242 1.387 . S
C243 C245 1.387 . S
H244 C251 0.950 . S
C245 C243 1.387 . S
C245 C247 1.390 . S
C245 H249 0.950 . S
H246 C242 0.950 . S
C247 C245 1.390 . S
C247 C248 1.387 . S
C247 H250 0.950 . S
C248 C247 1.387 . S
C248 C251 1.387 . S
H249 C245 0.950 . S
H250 C247 0.950 . S
C251 C242 1.390 . S
C251 H244 0.950 . S
C251 C248 1.387 . S
C252 C253 1.387 . S
C252 H256 0.950 . S
C252 C261 1.390 . S
C253 C252 1.387 . S
C253 C255 1.387 . S
H254 C261 0.950 . S
C255 C253 1.387 . S
C255 C257 1.390 . S
C255 H259 0.950 . S
H256 C252 0.950 . S
C257 C255 1.390 . S
C257 C258 1.387 . S
C257 H260 0.950 . S
C258 C257 1.387 . S
C258 C261 1.387 . S
H259 C255 0.950 . S
H260 C257 0.950 . S
C261 C252 1.390 . S
C261 H254 0.950 . S
C261 C258 1.387 . S
C262 C263 1.387 . S
C262 H266 0.950 . S
C262 C271 1.390 . S
C263 C262 1.387 . S
C263 C265 1.387 . S
H264 C271 0.950 . S
C265 C263 1.387 . S
C265 C267 1.390 . S
C265 H269 0.950 . S
H266 C262 0.950 . S
C267 C265 1.390 . S
C267 C268 1.387 . S
C267 H270 0.950 . S
C268 C267 1.387 . S
C268 C271 1.387 . S
H269 C265 0.950 . S
H270 C267 0.950 . S
C271 C262 1.390 . S
C271 H264 0.950 . S
C271 C268 1.387 . S
C272 C273 1.387 . S
C272 H276 0.950 . S
C272 C281 1.390 . S
C273 C272 1.387 . S
C273 C275 1.387 . S
H274 C281 0.950 . S
C275 C273 1.387 . S
C275 C277 1.390 . S
C275 H279 0.950 . S
H276 C272 0.950 . S
C277 C275 1.390 . S
C277 C278 1.387 . S
C277 H280 0.950 . S
C278 C277 1.387 . S
C278 C281 1.387 . S
H279 C275 0.950 . S
H280 C277 0.950 . S
C281 C272 1.390 . S
C281 H274 0.950 . S
C281 C278 1.387 . S
C282 C283 1.387 . S
C282 H286 0.950 . S
C282 C291 1.390 . S
C283 C282 1.387 . S
C283 C285 1.387 . S
H284 C291 0.950 . S
C285 C283 1.387 . S
C285 C287 1.390 . S
C285 H289 0.950 . S
H286 C282 0.950 . S
C287 C285 1.390 . S
C287 C288 1.387 . S
C287 H290 0.950 . S
C288 C287 1.387 . S
C288 C291 1.387 . S
H289 C285 0.950 . S
H290 C287 0.950 . S
C291 C282 1.390 . S
C291 H284 0.950 . S
C291 C288 1.387 . S
C292 C293 1.387 . S
C292 H296 0.950 . S
C292 C301 1.390 . S
C293 C292 1.387 . S
C293 C295 1.387 . S
H294 C301 0.950 . S
C295 C293 1.387 . S
C295 C297 1.390 . S
C295 H299 0.950 . S
H296 C292 0.950 . S
C297 C295 1.390 . S
C297 C298 1.387 . S
C297 H300 0.950 . S
C298 C297 1.387 . S
C298 C301 1.387 . S
H299 C295 0.950 . S
H300 C297 0.950 . S
C301 C292 1.390 . S
C301 H294 0.950 . S
C301 C298 1.387 . S
C302 C303 1.387 . S
C302 H306 0.950 . S
C302 C311 1.390 . S
C303 C302 1.387 . S
C303 C305 1.387 . S
H304 C311 0.950 . S
C305 C303 1.387 . S
C305 C307 1.390 . S
C305 H309 0.950 . S
H306 C302 0.950 . S
C307 C305 1.390 . S
C307 C308 1.387 . S
C307 H310 0.950 . S
C308 C307 1.387 . S
C308 C311 1.387 . S
H309 C305 0.950 . S
H310 C307 0.950 . S
C311 C302 1.390 . S
C311 H304 0.950 . S
C311 C308 1.387 . S
C312 C313 1.387 . S
C312 H316 0.950 . S
C312 C321 1.390 . S
C313 C312 1.387 . S
C313 C315 1.387 . S
H314 C321 0.950 . S
C315 C313 1.387 . S
C315 C317 1.390 . S
C315 H319 0.950 . S
H316 C312 0.950 . S
C317 C315 1.390 . S
C317 C318 1.387 . S
C317 H320 0.950 . S
C318 C317 1.387 . S
C318 C321 1.387 . S
H319 C315 0.950 . S
H320 C317 0.950 . S
C321 C312 1.390 . S
C321 H314 0.950 . S
C321 C318 1.387 . S
C322 C323 1.387 . S
C322 H326 0.950 . S
C322 C331 1.390 . S
C323 C322 1.387 . S
C323 C325 1.387 . S
H324 C331 0.950 . S
C325 C323 1.387 . S
C325 C327 1.390 . S
C325 H329 0.950 . S
H326 C322 0.950 . S
C327 C325 1.390 . S
C327 C328 1.387 . S
C327 H330 0.950 . S
C328 C327 1.387 . S
C328 C331 1.387 . S
H329 C325 0.950 . S
H330 C327 0.950 . S
C331 C322 1.390 . S
C331 H324 0.950 . S
C331 C328 1.387 . S
C332 C333 1.387 . S
C332 H336 0.950 . S
C332 C341 1.390 . S
C333 C332 1.387 . S
C333 C335 1.387 . S
H334 C341 0.950 . S
C335 C333 1.387 . S
C335 C337 1.390 . S
C335 H339 0.950 . S
H336 C332 0.950 . S
C337 C335 1.390 . S
C337 C338 1.387 . S
C337 H340 0.950 . S
C338 C337 1.387 . S
C338 C341 1.387 . S
H339 C335 0.950 . S
H340 C337 0.950 . S
C341 C332 1.390 . S
C341 H334 0.950 . S
C341 C338 1.387 . S
C342 C343 1.387 . S
C342 H346 0.950 . S
C342 C351 1.390 . S
C343 C342 1.387 . S
C343 C345 1.387 . S
H344 C351 0.950 . S
C345 C343 1.387 . S
C345 C347 1.390 . S
C345 H349 0.950 . S
H346 C342 0.950 . S
C347 C345 1.390 . S
C347 C348 1.387 . S
C347 H350 0.950 . S
C348 C347 1.387 . S
C348 C351 1.387 . S
H349 C345 0.950 . S
H350 C347 0.950 . S
C351 C342 1.390 . S
C351 H344 0.950 . S
C351 C348 1.387 . S
C352 C353 1.387 . S
C352 H356 0.950 . S
C352 C361 1.390 . S
C353 C352 1.387 . S
C353 C355 1.387 . S
H354 C361 0.950 . S
C355 C353 1.387 . S
C355 C357 1.390 . S
C355 H359 0.950 1_565 S
H356 C352 0.950 . S
C357 C355 1.390 . S
C357 C358 1.387 . S
C357 H360 0.950 . S
C358 C357 1.387 . S
C358 C361 1.387 . S
H359 C355 0.950 1_545 S
H360 C357 0.950 . S
C361 C352 1.390 . S
C361 H354 0.950 . S
C361 C358 1.387 . S
C362 C363 1.387 . S
C362 H366 0.950 . S
C362 C371 1.390 . S
C363 C362 1.387 . S
C363 C365 1.387 . S
H364 C371 0.950 . S
C365 C363 1.387 . S
C365 C367 1.390 . S
C365 H369 0.950 . S
H366 C362 0.950 . S
C367 C365 1.390 . S
C367 C368 1.387 . S
C367 H370 0.950 . S
C368 C367 1.387 . S
C368 C371 1.387 . S
H369 C365 0.950 . S
H370 C367 0.950 . S
C371 C362 1.390 . S
C371 H364 0.950 . S
C371 C368 1.387 . S
C372 C373 1.387 . S
C372 H376 0.950 . S
C372 C381 1.390 . S
C373 C372 1.387 . S
C373 C375 1.387 . S
H374 C381 0.950 . S
C375 C373 1.387 . S
C375 C377 1.390 . S
C375 H379 0.950 . S
H376 C372 0.950 . S
C377 C375 1.390 . S
C377 C378 1.387 . S
C377 H380 0.950 . S
C378 C377 1.387 . S
C378 C381 1.387 . S
H379 C375 0.950 . S
H380 C377 0.950 . S
C381 C372 1.390 . S
C381 H374 0.950 . S
C381 C378 1.387 . S
C382 C383 1.387 . S
C382 H386 0.950 . S
C382 C391 1.390 . S
C383 C382 1.387 . S
C383 C385 1.387 . S
H384 C391 0.950 . S
C385 C383 1.387 . S
C385 C387 1.390 . S
C385 H389 0.950 . S
H386 C382 0.950 . S
C387 C385 1.390 . S
C387 C388 1.387 . S
C387 H390 0.950 . S
C388 C387 1.387 . S
C388 C391 1.387 . S
H389 C385 0.950 . S
H390 C387 0.950 . S
C391 C382 1.390 . S
C391 H384 0.950 . S
C391 C388 1.387 . S
C392 C393 1.387 . S
C392 H396 0.950 . S
C392 C401 1.390 . S
C393 C392 1.387 . S
C393 C395 1.387 . S
H394 C401 0.950 . S
C395 C393 1.387 . S
C395 C397 1.390 . S
C395 H399 0.950 . S
H396 C392 0.950 . S
C397 C395 1.390 . S
C397 C398 1.387 . S
C397 H400 0.950 . S
C398 C397 1.387 . S
C398 C401 1.387 . S
H399 C395 0.950 . S
H400 C397 0.950 . S
C401 C392 1.390 . S
C401 H394 0.950 . S
C401 C398 1.387 . S
C402 C403 1.387 . S
C402 H406 0.950 . S
C402 C411 1.390 . S
C403 C402 1.387 . S
C403 C405 1.387 . S
H404 C411 0.950 . S
C405 C403 1.387 . S
C405 C407 1.390 . S
C405 H409 0.950 . S
H406 C402 0.950 . S
C407 C405 1.390 . S
C407 C408 1.387 . S
C407 H410 0.950 . S
C408 C407 1.387 . S
C408 C411 1.387 . S
H409 C405 0.950 . S
H410 C407 0.950 . S
C411 C402 1.390 . S
C411 H404 0.950 . S
C411 C408 1.387 . S
C412 C413 1.387 . S
C412 H416 0.950 . S
C412 C421 1.390 . S
C413 C412 1.387 . S
C413 C415 1.387 . S
H414 C421 0.950 . S
C415 C413 1.387 . S
C415 C417 1.390 . S
C415 H419 0.950 . S
H416 C412 0.950 . S
C417 C415 1.390 . S
C417 C418 1.387 . S
C417 H420 0.950 . S
C418 C417 1.387 . S
C418 C421 1.387 . S
H419 C415 0.950 . S
H420 C417 0.950 . S
C421 C412 1.390 . S
C421 H414 0.950 . S
C421 C418 1.387 . S
C422 C423 1.387 . S
C422 H426 0.950 . S
C422 C431 1.390 . S
C423 C422 1.387 . S
C423 C425 1.387 . S
H424 C431 0.950 . S
C425 C423 1.387 . S
C425 C427 1.390 . S
C425 H429 0.950 . S
H426 C422 0.950 . S
C427 C425 1.390 . S
C427 C428 1.387 . S
C427 H430 0.950 . S
C428 C427 1.387 . S
C428 C431 1.387 . S
H429 C425 0.950 . S
H430 C427 0.950 . S
C431 C422 1.390 . S
C431 H424 0.950 . S
C431 C428 1.387 . S
C432 C433 1.387 . S
C432 H436 0.950 . S
C432 C441 1.390 . S
C433 C432 1.387 . S
C433 C435 1.387 . S
H434 C441 0.950 . S
C435 C433 1.387 . S
C435 C437 1.390 . S
C435 H439 0.950 . S
H436 C432 0.950 . S
C437 C435 1.390 . S
C437 C438 1.387 . S
C437 H440 0.950 . S
C438 C437 1.387 . S
C438 C441 1.387 . S
H439 C435 0.950 . S
H440 C437 0.950 . S
C441 C432 1.390 . S
C441 H434 0.950 . S
C441 C438 1.387 . S
C442 C443 1.387 . S
C442 H446 0.950 . S
C442 C451 1.390 . S
C443 C442 1.387 . S
C443 C445 1.387 . S
H444 C451 0.950 . S
C445 C443 1.387 . S
C445 C447 1.390 . S
C445 H449 0.950 . S
H446 C442 0.950 . S
C447 C445 1.390 . S
C447 C448 1.387 . S
C447 H450 0.950 . S
C448 C447 1.387 . S
C448 C451 1.387 . S
H449 C445 0.950 . S
H450 C447 0.950 . S
C451 C442 1.390 . S
C451 H444 0.950 . S
C451 C448 1.387 . S
C452 C453 1.387 . S
C452 H456 0.950 . S
C452 C461 1.390 . S
C453 C452 1.387 . S
C453 C455 1.387 . S
H454 C461 0.950 . S
C455 C453 1.387 . S
C455 C457 1.390 . S
C455 H459 0.950 . S
H456 C452 0.950 . S
C457 C455 1.390 . S
C457 C458 1.387 . S
C457 H460 0.950 . S
C458 C457 1.387 . S
C458 C461 1.387 . S
H459 C455 0.950 . S
H460 C457 0.950 . S
C461 C452 1.390 . S
C461 H454 0.950 . S
C461 C458 1.387 . S
C223 C13 2.086 . S
C228 C91 2.040 . S
C233 C27 1.475 . S
C238 N109 1.478 . S
C248 C137 2.038 . S
C243 C29 2.085 . S
C258 N155 1.479 . S
C253 C54 1.478 . S
C268 C183 2.039 . S
C263 C69 2.086 . S
C278 N201 1.477 . S
C273 C83 1.475 . S
C283 C15 2.078 . S
C288 C146 2.069 . S
C293 C41 1.475 . S
C298 N165 1.370 . S
C308 C192 2.069 . S
C303 C42 2.078 . S
C318 N211 1.368 . S
C313 C57 1.473 . S
C323 C71 2.078 . S
C328 C100 2.069 . S
C338 N119 1.367 . S
C333 C1 1.473 . S
C348 C169 1.860 . S
C343 C12 1.928 . S
C353 C26 1.290 . S
C358 N188 1.260 . S
C368 C215 1.859 . S
C363 C28 1.928 . S
C373 C55 1.288 . S
C378 N96 1.259 . S
C383 C68 1.929 . S
C388 C123 1.861 . S
C393 C82 1.288 . S
C398 N142 1.261 . S
C403 C14 1.940 . S
C408 C206 1.911 . S
C418 N86 1.177 . S
C413 C40 1.289 . S
C423 C43 1.941 . S
C428 C114 1.912 . S
C433 C56 1.291 . S
C438 N132 1.182 . S
C443 C70 1.941 . S
C448 C160 1.912 . S
C453 C0 1.290 . S
C458 N178 1.177 . S
