# Generated by pormake.
# Topology ssb, (4,4)-cn, num edge types: 1
# Building blocks:
#     Node 0, Type 0, BuildingBlock: NAWXER_clean_sbu_0, # of connection points: 4
#     Node 1, Type 0, BuildingBlock: NAWXER_clean_sbu_0, # of connection points: 4
#     Node 2, Type 0, BuildingBlock: NAWXER_clean_sbu_0, # of connection points: 4
#     Node 3, Type 0, BuildingBlock: NAWXER_clean_sbu_0, # of connection points: 4
#     Node 4, Type 0, BuildingBlock: NAWXER_clean_sbu_0, # of connection points: 4
#     Node 5, Type 0, BuildingBlock: NAWXER_clean_sbu_0, # of connection points: 4
#     Node 6, Type 0, BuildingBlock: NAWXER_clean_sbu_0, # of connection points: 4
#     Node 7, Type 0, BuildingBlock: NAWXER_clean_sbu_0, # of connection points: 4
#     Node 8, Type 1, BuildingBlock: NAWXER_clean_sbu_0, # of connection points: 4
#     Node 9, Type 1, BuildingBlock: NAWXER_clean_sbu_0, # of connection points: 4
#     Node 10, Type 1, BuildingBlock: NAWXER_clean_sbu_0, # of connection points: 4
#     Node 11, Type 1, BuildingBlock: NAWXER_clean_sbu_0, # of connection points: 4
#     Node 12, Type 1, BuildingBlock: NAWXER_clean_sbu_0, # of connection points: 4
#     Node 13, Type 1, BuildingBlock: NAWXER_clean_sbu_0, # of connection points: 4
#     Node 14, Type 1, BuildingBlock: NAWXER_clean_sbu_0, # of connection points: 4
#     Node 15, Type 1, BuildingBlock: NAWXER_clean_sbu_0, # of connection points: 4
#     Edge 16, Type (0, 1), BuildingBlock: XUDNAN_clean_linker_2, # of connection points: 2
#     Edge 17, Type (0, 1), BuildingBlock: XUDNAN_clean_linker_2, # of connection points: 2
#     Edge 18, Type (0, 1), BuildingBlock: XUDNAN_clean_linker_2, # of connection points: 2
#     Edge 19, Type (0, 1), BuildingBlock: XUDNAN_clean_linker_2, # of connection points: 2
#     Edge 20, Type (0, 1), BuildingBlock: XUDNAN_clean_linker_2, # of connection points: 2
#     Edge 21, Type (0, 1), BuildingBlock: XUDNAN_clean_linker_2, # of connection points: 2
#     Edge 22, Type (0, 1), BuildingBlock: XUDNAN_clean_linker_2, # of connection points: 2
#     Edge 23, Type (0, 1), BuildingBlock: XUDNAN_clean_linker_2, # of connection points: 2
#     Edge 24, Type (0, 1), BuildingBlock: XUDNAN_clean_linker_2, # of connection points: 2
#     Edge 25, Type (0, 1), BuildingBlock: XUDNAN_clean_linker_2, # of connection points: 2
#     Edge 26, Type (0, 1), BuildingBlock: XUDNAN_clean_linker_2, # of connection points: 2
#     Edge 27, Type (0, 1), BuildingBlock: XUDNAN_clean_linker_2, # of connection points: 2
#     Edge 28, Type (0, 1), BuildingBlock: XUDNAN_clean_linker_2, # of connection points: 2
#     Edge 29, Type (0, 1), BuildingBlock: XUDNAN_clean_linker_2, # of connection points: 2
#     Edge 30, Type (0, 1), BuildingBlock: XUDNAN_clean_linker_2, # of connection points: 2
#     Edge 31, Type (0, 1), BuildingBlock: XUDNAN_clean_linker_2, # of connection points: 2
#     Edge 32, Type (0, 1), BuildingBlock: XUDNAN_clean_linker_2, # of connection points: 2
#     Edge 33, Type (0, 1), BuildingBlock: XUDNAN_clean_linker_2, # of connection points: 2
#     Edge 34, Type (0, 1), BuildingBlock: XUDNAN_clean_linker_2, # of connection points: 2
#     Edge 35, Type (0, 1), BuildingBlock: XUDNAN_clean_linker_2, # of connection points: 2
#     Edge 36, Type (0, 1), BuildingBlock: XUDNAN_clean_linker_2, # of connection points: 2
#     Edge 37, Type (0, 1), BuildingBlock: XUDNAN_clean_linker_2, # of connection points: 2
#     Edge 38, Type (0, 1), BuildingBlock: XUDNAN_clean_linker_2, # of connection points: 2
#     Edge 39, Type (0, 1), BuildingBlock: XUDNAN_clean_linker_2, # of connection points: 2
#     Edge 40, Type (0, 1), BuildingBlock: XUDNAN_clean_linker_2, # of connection points: 2
#     Edge 41, Type (0, 1), BuildingBlock: XUDNAN_clean_linker_2, # of connection points: 2
#     Edge 42, Type (0, 1), BuildingBlock: XUDNAN_clean_linker_2, # of connection points: 2
#     Edge 43, Type (0, 1), BuildingBlock: XUDNAN_clean_linker_2, # of connection points: 2
#     Edge 44, Type (0, 1), BuildingBlock: XUDNAN_clean_linker_2, # of connection points: 2
#     Edge 45, Type (0, 1), BuildingBlock: XUDNAN_clean_linker_2, # of connection points: 2
#     Edge 46, Type (0, 1), BuildingBlock: XUDNAN_clean_linker_2, # of connection points: 2
#     Edge 47, Type (0, 1), BuildingBlock: XUDNAN_clean_linker_2, # of connection points: 2
# Relax obj value: 0.002
# Max RMSD: 0.009
# Mean RMSD: 0.008
data_MOF--net-ssb--node1-NAWXER_clean_sbu_0--node2-NAWXER_clean_sbu_0--edge1-XUDNAN_clean_linker_2
_symmetry_space_group_name_H-M    P1
_symmetry_Int_Tables_number       1
_symmetry_cell_setting            triclinic
loop_
_symmetry_equiv_pos_as_xyz
'x, y, z'
_cell_length_a     44.126736
_cell_length_b     44.070773
_cell_length_c     37.39794
_cell_angle_alpha  90.537549
_cell_angle_beta   89.609301
_cell_angle_gamma 89.999257
loop_
_atom_site_label
_atom_site_type_symbol
_atom_site_fract_x
_atom_site_fract_y
_atom_site_fract_z
_atom_type_partial_charge
C0 C 0.2202 0.31563 0.33555 0.0
C1 C 0.30975 0.28022 0.2707 0.0
O2 O 0.21408 0.30211 0.30602 0.0
Zn3 Zn 0.23711 0.28196 0.26174 0.0
O4 O 0.24764 0.32069 0.3438 0.0
Zn5 Zn 0.26595 0.2996 0.30308 0.0
O6 O 0.25955 0.3292 0.25886 0.0
O7 O 0.22736 0.30789 0.22138 0.0
O8 O 0.3093 0.29323 0.30122 0.0
O9 O 0.28497 0.27505 0.25399 0.0
O10 O 0.22133 0.24053 0.26505 0.0
O11 O 0.25053 0.25409 0.3102 0.0
C12 C 0.24477 0.32988 0.22949 0.0
C13 C 0.23381 0.23426 0.29469 0.0
C14 C 0.73836 0.22737 0.21862 0.0
C15 C 0.83612 0.23952 0.27848 0.0
O16 O 0.7386 0.24768 0.24328 0.0
Zn17 Zn 0.76945 0.26937 0.27844 0.0
O18 O 0.76304 0.21466 0.20907 0.0
Zn19 Zn 0.78901 0.2351 0.24442 0.0
O20 O 0.76953 0.21986 0.29402 0.0
O21 O 0.75015 0.25919 0.32354 0.0
O22 O 0.8306 0.22237 0.2517 0.0
O23 O 0.81568 0.25798 0.28987 0.0
O24 O 0.77028 0.31102 0.26237 0.0
O25 O 0.79367 0.28013 0.22453 0.0
C26 C 0.75565 0.23084 0.32145 0.0
C27 C 0.78529 0.30696 0.23363 0.0
C28 C 0.73635 0.68817 0.2807 0.0
C29 C 0.7165 0.78067 0.34928 0.0
O30 O 0.71964 0.6916 0.30826 0.0
Zn31 Zn 0.72894 0.73348 0.31743 0.0
O32 O 0.75347 0.71013 0.27061 0.0
Zn33 Zn 0.76127 0.7571 0.28683 0.0
O34 O 0.80284 0.75927 0.30212 0.0
O35 O 0.77413 0.73259 0.33869 0.0
O36 O 0.73754 0.78447 0.32592 0.0
O37 O 0.70507 0.75449 0.35333 0.0
O38 O 0.7127 0.75303 0.26856 0.0
O39 O 0.75086 0.77744 0.24326 0.0
C40 C 0.80009 0.74369 0.33029 0.0
C41 C 0.72336 0.76884 0.24277 0.0
C42 C 0.22088 0.73112 0.18551 0.0
C43 C 0.24271 0.82064 0.25969 0.0
O44 O 0.20766 0.75672 0.18547 0.0
Zn45 Zn 0.23043 0.77613 0.22371 0.0
O46 O 0.24203 0.72636 0.20811 0.0
Zn47 Zn 0.26413 0.75063 0.25051 0.0
O48 O 0.25237 0.72816 0.29342 0.0
O49 O 0.21455 0.75444 0.27128 0.0
O50 O 0.25893 0.79753 0.26776 0.0
O51 O 0.22266 0.8181 0.2355 0.0
O52 O 0.27573 0.7805 0.20266 0.0
O53 O 0.30625 0.75112 0.23357 0.0
C54 C 0.22491 0.73687 0.29541 0.0
C55 C 0.3024 0.77028 0.20873 0.0
C56 C 0.32677 0.77945 0.78936 0.0
C57 C 0.22473 0.78415 0.73932 0.0
O58 O 0.3051 0.79637 0.80002 0.0
Zn59 Zn 0.27544 0.78354 0.76465 0.0
O60 O 0.32356 0.76327 0.76102 0.0
Zn61 Zn 0.28954 0.7536 0.72246 0.0
O62 O 0.30466 0.77055 0.67812 0.0
O63 O 0.28893 0.80563 0.71635 0.0
O64 O 0.24322 0.76716 0.72176 0.0
O65 O 0.23357 0.79807 0.76735 0.0
O66 O 0.27177 0.73542 0.77569 0.0
O67 O 0.28576 0.71022 0.72685 0.0
C68 C 0.29907 0.79824 0.6853 0.0
C69 C 0.27655 0.71017 0.75915 0.0
C70 C 0.29561 0.20105 0.72313 0.0
C71 C 0.25531 0.27818 0.80581 0.0
O72 O 0.27832 0.18998 0.7474 0.0
Zn73 Zn 0.25387 0.20564 0.79394 0.0
O74 O 0.30223 0.22912 0.72425 0.0
Zn75 Zn 0.27752 0.23953 0.76605 0.0
O76 O 0.30246 0.21986 0.80956 0.0
O77 O 0.27297 0.18479 0.8328 0.0
O78 O 0.27438 0.28174 0.78059 0.0
O79 O 0.24598 0.25137 0.8133 0.0
O80 O 0.21393 0.19286 0.7815 0.0
O81 O 0.23187 0.22918 0.74691 0.0
C82 C 0.29797 0.19896 0.83265 0.0
C83 C 0.21054 0.21059 0.75522 0.0
C84 C 0.70935 0.24105 0.70745 0.0
C85 C 0.73386 0.33332 0.77436 0.0
O86 O 0.70286 0.26818 0.69922 0.0
Zn87 Zn 0.72377 0.2879 0.7385 0.0
O88 O 0.72496 0.23586 0.7355 0.0
Zn89 Zn 0.74512 0.26117 0.77823 0.0
O90 O 0.72239 0.24665 0.8195 0.0
O91 O 0.69606 0.27544 0.78299 0.0
O92 O 0.74435 0.30931 0.78893 0.0
O93 O 0.72131 0.33146 0.74388 0.0
O94 O 0.77092 0.27868 0.72838 0.0
O95 O 0.78735 0.25112 0.77325 0.0
C96 C 0.69789 0.26034 0.81196 0.0
C97 C 0.79239 0.26415 0.74364 0.0
C98 C 0.8396 0.76338 0.76593 0.0
C99 C 0.75179 0.80111 0.83545 0.0
O100 O 0.81384 0.75723 0.75203 0.0
Zn101 Zn 0.76663 0.76292 0.76397 0.0
O102 O 0.84084 0.77721 0.79594 0.0
Zn103 Zn 0.79712 0.78268 0.8024 0.0
O104 O 0.78324 0.73735 0.8135 0.0
O105 O 0.75259 0.72164 0.77075 0.0
O106 O 0.77954 0.80589 0.84276 0.0
O107 O 0.74504 0.78569 0.80747 0.0
O108 O 0.75324 0.78664 0.72351 0.0
O109 O 0.7864 0.81055 0.75772 0.0
C110 C 0.76646 0.71661 0.79982 0.0
C111 C 0.76968 0.80978 0.72983 0.0
C112 C 0.96629 0.26069 0.57861 0.0
C113 C 0.04992 0.28814 0.49988 0.0
O114 O 0.97492 0.28698 0.56946 0.0
Zn115 Zn 1.00739 0.2744 0.53767 0.0
O116 O 0.9791 0.23726 0.56467 0.0
Zn117 Zn 0.01478 0.22822 0.52659 0.0
O118 O 0.0414 0.20385 0.55444 0.0
O119 O 0.03905 0.25156 0.57293 0.0
O120 O 0.04545 0.25936 0.50056 0.0
O121 O 0.03296 0.30574 0.51818 0.0
O122 O 0.98395 0.25699 0.49081 0.0
O123 O 0.99543 0.2084 0.48702 0.0
C124 C 0.04964 0.22457 0.57609 0.0
C125 C 0.9817 0.23125 0.47462 0.0
C126 C 0.68199 0.05257 0.57175 0.0
C127 C 0.68318 0.97013 0.48359 0.0
O128 O 0.70855 0.04719 0.55909 0.0
Zn129 Zn 0.72928 0.01711 0.52036 0.0
O130 O 0.65963 0.03665 0.56136 0.0
Zn131 Zn 0.68208 0.01173 0.52758 0.0
O132 O 0.71017 0.98385 0.56125 0.0
O133 O 0.75778 0.99533 0.54877 0.0
O134 O 0.66045 0.98149 0.49991 0.0
O135 O 0.70954 0.98156 0.48864 0.0
O136 O 0.74508 0.04511 0.48574 0.0
O137 O 0.69518 0.04596 0.48973 0.0
C138 C 0.73862 0.97986 0.56638 0.0
C139 C 0.71991 0.05659 0.47668 0.0
C140 C 0.99409 0.72214 0.58229 0.0
C141 C 0.06904 0.71772 0.48404 0.0
O142 O 0.99683 0.747 0.56501 0.0
Zn143 Zn 0.02299 0.76538 0.52148 0.0
O144 O 0.00985 0.6991 0.57308 0.0
Zn145 Zn 0.03062 0.71804 0.53278 0.0
O146 O 0.05778 0.74907 0.56127 0.0
O147 O 0.04675 0.79634 0.54762 0.0
O148 O 0.06066 0.69609 0.50411 0.0
O149 O 0.0566 0.74388 0.48792 0.0
O150 O 0.99113 0.77607 0.48776 0.0
O151 O 0.99427 0.72678 0.49721 0.0
C152 C 0.0622 0.77752 0.56565 0.0
C153 C 0.98126 0.74929 0.48222 0.0
C154 C 0.30864 0.05465 0.52476 0.0
C155 C 0.29169 0.98815 0.42074 0.0
O156 O 0.32835 0.04681 0.50145 0.0
Zn157 Zn 0.30236 0.02041 0.47268 0.0
O158 O 0.28165 0.04407 0.52263 0.0
Zn159 Zn 0.25553 0.01477 0.48915 0.0
O160 O 0.2457 0.98101 0.52096 0.0
O161 O 0.29409 0.98235 0.50568 0.0
O162 O 0.26833 0.99207 0.44072 0.0
O163 O 0.31692 1.00019 0.42914 0.0
O164 O 0.27113 0.05219 0.45147 0.0
O165 O 0.22462 0.04234 0.47036 0.0
C166 C 0.27214 0.96953 0.52221 0.0
C167 C 0.24279 0.05843 0.45189 0.0
C168 C 0.48106 0.81835 0.06074 0.0
C169 C 0.56412 0.82944 0.97289 0.0
O170 O 0.49147 0.84297 0.04804 0.0
Zn171 Zn 0.522 0.82568 1.01591 0.0
O172 O 0.49261 0.79304 0.05045 0.0
Zn173 Zn 0.52726 0.77719 1.01472 0.0
O174 O 0.55591 0.75799 0.04689 0.0
O175 O 0.55513 0.80806 0.05095 0.0
O176 O 0.5577 0.80195 0.98083 0.0
O177 O 0.5487 0.85106 0.98672 0.0
O178 O 0.49491 0.80251 0.97729 0.0
O179 O 0.50471 0.75343 0.98013 0.0
C180 C 0.56637 0.78255 0.06006 0.0
C181 C 0.49026 0.7753 0.96625 0.0
C182 C 0.20845 0.55553 0.02173 0.0
C183 C 0.21617 0.46538 0.94376 0.0
O184 O 0.23579 0.54723 1.01538 0.0
Zn185 Zn 0.25932 0.51338 0.98487 0.0
O186 O 0.1868 0.5409 1.00739 0.0
Zn187 Zn 0.21132 0.51053 0.98195 0.0
O188 O 0.23152 0.48488 0.02429 0.0
O189 O 0.28098 0.4922 0.02185 0.0
O190 O 0.19205 0.47822 0.95505 0.0
O191 O 0.24205 0.47633 0.95262 0.0
O192 O 0.28166 0.53776 0.95083 0.0
O193 O 0.23246 0.53639 0.94022 0.0
C194 C 0.2581 0.47977 0.03651 0.0
C195 C 0.25921 0.54525 0.93176 0.0
C196 C 0.53993 0.24452 0.99678 0.0
C197 C 0.47114 0.23755 0.09766 0.0
O198 O 0.52571 0.26561 1.01303 0.0
Zn199 Zn 0.50439 0.24055 0.04594 0.0
O200 O 0.53581 0.21682 1.00592 0.0
Zn201 Zn 0.50902 0.19297 0.04531 0.0
O202 O 0.48098 0.16872 1.01698 0.0
O203 O 0.47281 0.21776 1.01207 0.0
O204 O 0.48091 0.21122 0.08817 0.0
O205 O 0.4786 0.26074 0.0798 0.0
O206 O 0.5404 0.22257 0.07855 0.0
O207 O 0.54056 0.17261 0.07143 0.0
C208 C 0.4661 0.1904 1.00347 0.0
C209 C 0.5518 0.19648 0.0853 0.0
C210 C 0.72334 0.54493 0.07872 0.0
C211 C 0.72279 0.47348 0.97784 0.0
O212 O 0.74971 0.54129 0.06467 0.0
Zn213 Zn 0.76985 0.51539 0.02167 0.0
O214 O 0.7008 0.53092 0.06553 0.0
Zn215 Zn 0.72231 0.50893 0.02829 0.0
O216 O 0.75021 0.47912 0.05876 0.0
O217 O 0.79813 0.48943 0.04659 0.0
O218 O 0.70028 0.48165 0.99706 0.0
O219 O 0.74928 0.48391 0.98468 0.0
O220 O 0.7848 0.54649 0.98934 0.0
O221 O 0.73493 0.54275 0.99045 0.0
C222 C 0.77848 0.47397 0.06354 0.0
C223 C 0.75909 0.55466 0.97762 0.0
H224 H 0.16938 0.28207 0.3413 0.0
H225 H 0.21601 0.3584 0.38996 0.0
H226 H 0.17498 0.36251 0.43569 0.0
H227 H 0.0918 0.30616 0.35761 0.0
H228 H 0.07936 0.2682 0.36765 0.0
H229 H 0.11042 0.274 0.33697 0.0
H230 H 0.14449 0.2393 0.3753 0.0
H231 H 0.11362 0.23345 0.40613 0.0
H232 H 0.14931 0.24789 0.42214 0.0
H233 H 0.12826 0.35695 0.47666 0.0
H234 H 0.08394 0.33934 0.51208 0.0
H235 H 0.0721 0.26406 0.43805 0.0
C236 C 0.17067 0.30018 0.36102 0.0
C237 C 0.19545 0.3204 0.36171 0.0
C238 C 0.19693 0.34298 0.3888 0.0
C239 C 0.17374 0.34547 0.41474 0.0
C240 C 0.14969 0.32485 0.41339 0.0
C241 C 0.14832 0.30245 0.38735 0.0
C242 C 0.12196 0.2812 0.39331 0.0
C243 C 0.09956 0.28249 0.36203 0.0
C244 C 0.13302 0.24854 0.3996 0.0
C245 C 0.10852 0.29501 0.42689 0.0
C246 C 0.12438 0.32049 0.43786 0.0
C247 C 0.11577 0.337 0.46829 0.0
C248 C 0.09058 0.32693 0.48816 0.0
C249 C 0.07485 0.30029 0.47782 0.0
C250 C 0.0839 0.28438 0.4467 0.0
H251 H 0.78468 0.17971 0.34162 0.0
H252 H 0.70491 0.23422 0.36422 0.0
H253 H 0.68648 0.1949 0.40622 0.0
H254 H 0.74986 0.10801 0.34244 0.0
H255 H 0.78074 0.08901 0.36421 0.0
H256 H 0.78807 0.12186 0.33724 0.0
H257 H 0.81434 0.14858 0.39072 0.0
H258 H 0.80752 0.11562 0.41774 0.0
H259 H 0.79437 0.15234 0.43275 0.0
H260 H 0.67515 0.14733 0.44149 0.0
H261 H 0.67472 0.09874 0.47386 0.0
H262 H 0.7636 0.07707 0.43028 0.0
C263 C 0.76346 0.1835 0.35571 0.0
C264 C 0.74606 0.20982 0.34972 0.0
C265 C 0.71858 0.21423 0.36873 0.0
C266 C 0.70791 0.19196 0.39237 0.0
C267 C 0.72534 0.16585 0.39699 0.0
C268 C 0.75284 0.16188 0.37973 0.0
C269 C 0.7675 0.13208 0.38952 0.0
C270 C 0.77178 0.11154 0.35638 0.0
C271 C 0.79772 0.13748 0.40884 0.0
C272 C 0.7437 0.11951 0.41458 0.0
C273 C 0.71942 0.13918 0.41829 0.0
C274 C 0.69418 0.13193 0.43907 0.0
C275 C 0.69405 0.10417 0.4571 0.0
C276 C 0.71915 0.08416 0.45455 0.0
C277 C 0.74417 0.09196 0.43283 0.0
H278 H 0.8495 0.78079 0.34002 0.0
H279 H 0.80946 0.69585 0.37427 0.0
H280 H 0.85233 0.68784 0.4152 0.0
H281 H 0.92854 0.75777 0.34435 0.0
H282 H 0.94131 0.79374 0.36197 0.0
H283 H 0.90845 0.79211 0.33367 0.0
H284 H 0.87668 0.81935 0.38283 0.0
H285 H 0.90941 0.82101 0.4113 0.0
H286 H 0.87494 0.80358 0.4271 0.0
H287 H 0.89891 0.68867 0.45175 0.0
H288 H 0.94535 0.69948 0.48538 0.0
H289 H 0.95461 0.78571 0.43102 0.0
C290 C 0.85002 0.76035 0.35586 0.0
C291 C 0.82636 0.73873 0.35379 0.0
C292 C 0.8274 0.71261 0.37544 0.0
C293 C 0.85167 0.70784 0.39866 0.0
C294 C 0.8745 0.72964 0.40029 0.0
C295 C 0.87384 0.75552 0.37977 0.0
C296 C 0.90057 0.77604 0.38821 0.0
C297 C 0.92092 0.78015 0.35507 0.0
C298 C 0.88974 0.80681 0.40326 0.0
C299 C 0.91636 0.75757 0.41661 0.0
C300 C 0.90099 0.73075 0.42275 0.0
C301 C 0.91113 0.70959 0.44726 0.0
C302 C 0.93764 0.71596 0.46615 0.0
C303 C 0.95368 0.74346 0.46085 0.0
C304 C 0.94279 0.76458 0.43576 0.0
H305 H 0.28274 0.83276 0.3138 0.0
H306 H 0.21553 0.87542 0.24649 0.0
H307 H 0.22563 0.92467 0.27618 0.0
H308 H 0.26423 0.87329 0.39304 0.0
H309 H 0.30278 0.87605 0.40837 0.0
H310 H 0.2916 0.84479 0.38012 0.0
H311 H 0.33428 0.85854 0.33514 0.0
H312 H 0.34536 0.89011 0.36311 0.0
H313 H 0.33584 0.89625 0.31695 0.0
H314 H 0.24027 0.96822 0.31585 0.0
H315 H 0.25668 1.00251 0.36473 0.0
H316 H 0.31535 0.93222 0.40532 0.0
C317 C 0.27026 0.85248 0.30507 0.0
C318 C 0.24834 0.8502 0.2777 0.0
C319 C 0.23239 0.87655 0.26736 0.0
C320 C 0.23811 0.90467 0.28393 0.0
C321 C 0.25994 0.90609 0.31068 0.0
C322 C 0.27569 0.88068 0.3213 0.0
C323 C 0.29676 0.888 0.35207 0.0
C324 C 0.28832 0.86944 0.38536 0.0
C325 C 0.33003 0.88292 0.34115 0.0
C326 C 0.29 0.92142 0.3576 0.0
C327 C 0.26888 0.93145 0.33319 0.0
C328 C 0.25725 0.96082 0.33461 0.0
C329 C 0.26679 0.98017 0.36226 0.0
C330 C 0.28793 0.97018 0.38783 0.0
C331 C 0.30012 0.94067 0.38512 0.0
H332 H 0.19201 0.74293 0.7031 0.0
H333 H 0.1911 0.83695 0.73777 0.0
H334 H 0.14746 0.84678 0.69772 0.0
H335 H 0.18065 0.75659 0.61429 0.0
H336 H 0.15746 0.72362 0.60611 0.0
H337 H 0.1849 0.72327 0.6414 0.0
H338 H 0.1431 0.70993 0.68778 0.0
H339 H 0.11558 0.70937 0.65244 0.0
H340 H 0.10965 0.73331 0.69119 0.0
H341 H 0.10667 0.84633 0.64709 0.0
H342 H 0.07144 0.83442 0.59707 0.0
H343 H 0.10329 0.74127 0.59683 0.0
C344 C 0.182 0.76539 0.70318 0.0
C345 C 0.19456 0.78909 0.72371 0.0
C346 C 0.18127 0.81832 0.72273 0.0
C347 C 0.15673 0.82414 0.69978 0.0
C348 C 0.14582 0.80038 0.67841 0.0
C349 C 0.15789 0.77147 0.68059 0.0
C350 C 0.14411 0.75005 0.65364 0.0
C351 C 0.16822 0.73768 0.62732 0.0
C352 C 0.12709 0.72415 0.67239 0.0
C353 C 0.12259 0.77133 0.63542 0.0
C354 C 0.12353 0.80029 0.64979 0.0
C355 C 0.10565 0.8236 0.63597 0.0
C356 C 0.08591 0.81675 0.6074 0.0
C357 C 0.08448 0.78691 0.59308 0.0
C358 C 0.10349 0.7643 0.6072 0.0
H359 H 0.27067 0.14732 0.70236 0.0
H360 H 0.34214 0.21063 0.67472 0.0
H361 H 0.35637 0.17792 0.62287 0.0
H362 H 0.30914 0.07766 0.67631 0.0
H363 H 0.27514 0.06077 0.6586 0.0
H364 H 0.27269 0.08786 0.69488 0.0
H365 H 0.23596 0.12082 0.65784 0.0
H366 H 0.23823 0.09384 0.62153 0.0
H367 H 0.24734 0.13313 0.61392 0.0
H368 H 0.36152 0.13786 0.57254 0.0
H369 H 0.3544 0.09731 0.52684 0.0
H370 H 0.27793 0.06275 0.58746 0.0
C371 C 0.28969 0.15414 0.68583 0.0
C372 C 0.30558 0.18134 0.69289 0.0
C373 C 0.32978 0.18977 0.66995 0.0
C374 C 0.33806 0.17128 0.64053 0.0
C375 C 0.32171 0.14463 0.63426 0.0
C376 C 0.29787 0.1363 0.65624 0.0
C377 C 0.28235 0.10791 0.64263 0.0
C378 C 0.285 0.08202 0.66972 0.0
C379 C 0.24901 0.11433 0.63343 0.0
C380 C 0.30102 0.10149 0.60939 0.0
C381 C 0.3239 0.12259 0.60508 0.0
C382 C 0.3437 0.12122 0.57579 0.0
C383 C 0.33959 0.09806 0.55004 0.0
C384 C 0.31561 0.0769 0.55355 0.0
C385 C 0.29645 0.07859 0.58393 0.0
H386 H 0.81639 0.29991 0.69089 0.0
H387 H 0.83497 0.22021 0.75444 0.0
H388 H 0.88193 0.21122 0.71962 0.0
H389 H 0.84201 0.27092 0.60788 0.0
H390 H 0.85913 0.3058 0.59311 0.0
H391 H 0.82762 0.30687 0.62393 0.0
H392 H 0.85938 0.33852 0.6688 0.0
H393 H 0.89093 0.33781 0.63796 0.0
H394 H 0.89569 0.32446 0.68299 0.0
H395 H 0.92396 0.2081 0.67424 0.0
H396 H 0.96183 0.21444 0.62593 0.0
H397 H 0.91817 0.29817 0.5945 0.0
C398 C 0.83053 0.28077 0.69774 0.0
C399 C 0.82202 0.2607 0.72532 0.0
C400 C 0.84115 0.23596 0.73357 0.0
C401 C 0.86779 0.2306 0.71384 0.0
C402 C 0.87523 0.25048 0.68638 0.0
C403 C 0.85749 0.27539 0.67875 0.0
C404 C 0.87069 0.29329 0.64791 0.0
C405 C 0.84854 0.29426 0.61635 0.0
C406 C 0.87971 0.32542 0.66016 0.0
C407 C 0.89831 0.27421 0.63895 0.0
C408 C 0.90033 0.24947 0.66127 0.0
C409 C 0.92289 0.22761 0.65694 0.0
C410 C 0.94416 0.2313 0.62931 0.0
C411 C 0.94298 0.25687 0.60671 0.0
C412 C 0.9198 0.27862 0.61172 0.0
H413 H 0.72483 0.83044 0.68524 0.0
H414 H 0.81716 0.84769 0.71914 0.0
H415 H 0.81954 0.89245 0.68022 0.0
H416 H 0.73418 0.85465 0.59286 0.0
H417 H 0.69742 0.87238 0.59111 0.0
H418 H 0.70347 0.84051 0.62003 0.0
H419 H 0.6844 0.87245 0.67421 0.0
H420 H 0.67845 0.90445 0.64549 0.0
H421 H 0.70226 0.9083 0.68424 0.0
H422 H 0.81213 0.93534 0.63817 0.0
H423 H 0.79454 0.97494 0.59685 0.0
H424 H 0.70618 0.93176 0.59241 0.0
C425 C 0.7456 0.84349 0.68408 0.0
C426 C 0.77083 0.83562 0.70507 0.0
C427 C 0.79752 0.85344 0.70335 0.0
C428 C 0.79915 0.87884 0.68126 0.0
C429 C 0.77379 0.88631 0.66128 0.0
C430 C 0.74747 0.8693 0.66253 0.0
C431 C 0.72308 0.88319 0.6395 0.0
C432 C 0.71402 0.86138 0.60907 0.0
C433 C 0.69542 0.89266 0.66222 0.0
C434 C 0.73984 0.91062 0.62528 0.0
C435 C 0.76915 0.9118 0.63792 0.0
C436 C 0.78919 0.93475 0.62813 0.0
C437 C 0.77901 0.95712 0.60468 0.0
C438 C 0.74897 0.95655 0.59166 0.0
C439 C 0.72918 0.933 0.60226 0.0
H440 H 0.85022 0.77481 0.69614 0.0
H441 H 0.89061 0.73382 0.7892 0.0
H442 H 0.93399 0.71602 0.75167 0.0
H443 H 0.87129 0.71927 0.6315 0.0
H444 H 0.87955 0.74624 0.59683 0.0
H445 H 0.85196 0.75531 0.63099 0.0
H446 H 0.88142 0.80432 0.64738 0.0
H447 H 0.90882 0.79568 0.61287 0.0
H448 H 0.92109 0.80189 0.65823 0.0
H449 H 0.9713 0.69984 0.70159 0.0
H450 H 1.00296 0.6942 0.64673 0.0
H451 H 0.93933 0.7498 0.58876 0.0
C452 C 0.86835 0.76225 0.70862 0.0
C453 C 0.8672 0.75549 0.7454 0.0
C454 C 0.89132 0.73931 0.76104 0.0
C455 C 0.91584 0.72895 0.73987 0.0
C456 C 0.91602 0.73555 0.70337 0.0
C457 C 0.89318 0.75248 0.68816 0.0
C458 C 0.89912 0.75788 0.64885 0.0
C459 C 0.87398 0.74383 0.62569 0.0
C460 C 0.90284 0.79196 0.64141 0.0
C461 C 0.92873 0.74103 0.64398 0.0
C462 C 0.93798 0.72783 0.67549 0.0
C463 C 0.96435 0.71034 0.67692 0.0
C464 C 0.98205 0.70702 0.64563 0.0
C465 C 0.97354 0.72159 0.61366 0.0
C466 C 0.9464 0.7385 0.61292 0.0
H467 H 0.26596 0.85036 0.68199 0.0
H468 H 0.33398 0.79792 0.62426 0.0
H469 H 0.33349 0.83579 0.57571 0.0
H470 H 0.22295 0.87048 0.60462 0.0
H471 H 0.21329 0.90778 0.62128 0.0
H472 H 0.21996 0.87737 0.6521 0.0
H473 H 0.26109 0.90951 0.68389 0.0
H474 H 0.25442 0.94011 0.65335 0.0
H475 H 0.29207 0.92486 0.65809 0.0
H476 H 0.32652 0.8799 0.53466 0.0
H477 H 0.31261 0.92636 0.50242 0.0
H478 H 0.2463 0.94847 0.5848 0.0
C479 C 0.28109 0.84705 0.65936 0.0
C480 C 0.30043 0.82147 0.65707 0.0
C481 C 0.31923 0.8175 0.62662 0.0
C482 C 0.31904 0.83884 0.59895 0.0
C483 C 0.2995 0.86366 0.60195 0.0
C484 C 0.28072 0.86776 0.63126 0.0
C485 C 0.26113 0.89583 0.6274 0.0
C486 C 0.22733 0.88735 0.62628 0.0
C487 C 0.26758 0.91894 0.65747 0.0
C488 C 0.27215 0.90722 0.59149 0.0
C489 C 0.29439 0.88835 0.57742 0.0
C490 C 0.309 0.89469 0.54527 0.0
C491 C 0.30097 0.92116 0.52722 0.0
C492 C 0.27827 0.94086 0.54104 0.0
C493 C 0.26339 0.93356 0.57338 0.0
H494 H 0.18735 0.25338 0.70989 0.0
H495 H 0.1722 0.1623 0.74941 0.0
H496 H 0.12886 0.1564 0.70859 0.0
H497 H 0.10698 0.27256 0.70088 0.0
H498 H 0.1131 0.29444 0.66099 0.0
H499 H 0.14258 0.29176 0.69391 0.0
H500 H 0.17974 0.27182 0.64515 0.0
H501 H 0.15034 0.27424 0.61215 0.0
H502 H 0.16967 0.23877 0.61905 0.0
H503 H 0.0902 0.15865 0.65999 0.0
H504 H 0.05498 0.17099 0.6111 0.0
H505 H 0.09239 0.26189 0.60611 0.0
C506 C 0.17473 0.23231 0.71014 0.0
C507 C 0.18316 0.20826 0.73277 0.0
C508 C 0.16604 0.18108 0.73246 0.0
C509 C 0.14146 0.17746 0.70926 0.0
C510 C 0.13397 0.20142 0.68698 0.0
C511 C 0.14974 0.22852 0.68762 0.0
C512 C 0.13677 0.25077 0.66109 0.0
C513 C 0.1241 0.27905 0.68038 0.0
C514 C 0.16055 0.25939 0.63268 0.0
C515 C 0.11159 0.23174 0.64504 0.0
C516 C 0.11059 0.20325 0.66014 0.0
C517 C 0.09045 0.18103 0.64832 0.0
C518 C 0.07066 0.18817 0.62046 0.0
C519 C 0.07084 0.21743 0.60517 0.0
C520 C 0.09148 0.2395 0.61778 0.0
H521 H 0.73897 0.18783 0.69575 0.0
H522 H 0.65646 0.23599 0.66977 0.0
H523 H 0.63811 0.19078 0.6363 0.0
H524 H 0.74748 0.152 0.60989 0.0
H525 H 0.76308 0.1176 0.62786 0.0
H526 H 0.76835 0.15309 0.65116 0.0
H527 H 0.74454 0.12979 0.70823 0.0
H528 H 0.73879 0.09433 0.6849 0.0
H529 H 0.70718 0.11333 0.70614 0.0
H530 H 0.6286 0.13927 0.60696 0.0
H531 H 0.6321 0.08934 0.57619 0.0
H532 H 0.72253 0.07712 0.61833 0.0
C533 C 0.71698 0.18879 0.6831 0.0
C534 C 0.69894 0.21517 0.6855 0.0
C535 C 0.67058 0.21591 0.66811 0.0
C536 C 0.65991 0.1903 0.64935 0.0
C537 C 0.67816 0.16444 0.64786 0.0
C538 C 0.70636 0.16379 0.6637 0.0
C539 C 0.72258 0.13416 0.65615 0.0
C540 C 0.75211 0.13954 0.635 0.0
C541 C 0.72862 0.11689 0.69093 0.0
C542 C 0.69912 0.11812 0.63356 0.0
C543 C 0.67339 0.13564 0.62962 0.0
C544 C 0.64867 0.12541 0.60982 0.0
C545 C 0.65074 0.09695 0.5927 0.0
C546 C 0.67754 0.07945 0.59501 0.0
C547 C 0.70174 0.09003 0.61621 0.0
H548 H 0.85663 0.27674 0.33196 0.0
H549 H 0.87813 0.19349 0.27425 0.0
H550 H 0.91965 0.18351 0.31667 0.0
H551 H 0.93539 0.29703 0.35574 0.0
H552 H 0.924 0.31168 0.39894 0.0
H553 H 0.89835 0.31366 0.36175 0.0
H554 H 0.85768 0.2852 0.3988 0.0
H555 H 0.88328 0.28271 0.43589 0.0
H556 H 0.86666 0.24871 0.41738 0.0
H557 H 0.95473 0.17977 0.36963 0.0
H558 H 0.98366 0.1847 0.42568 0.0
H559 H 0.93978 0.27104 0.44788 0.0
C560 C 0.87049 0.25673 0.32767 0.0
C561 C 0.86416 0.23593 0.29966 0.0
C562 C 0.88271 0.20991 0.29526 0.0
C563 C 0.90625 0.20398 0.31934 0.0
C564 C 0.91116 0.22448 0.34738 0.0
C565 C 0.8941 0.25059 0.35128 0.0
C566 C 0.90298 0.2683 0.38452 0.0
C567 C 0.91596 0.29952 0.37463 0.0
C568 C 0.87605 0.27139 0.41068 0.0
C569 C 0.92727 0.24775 0.39925 0.0
C570 C 0.93167 0.22259 0.37746 0.0
C571 C 0.95178 0.1996 0.38658 0.0
C572 C 0.96798 0.20253 0.41861 0.0
C573 C 0.9641 0.22833 0.44112 0.0
C574 C 0.94351 0.25122 0.43109 0.0
H575 H 0.74504 0.83498 0.36066 0.0
H576 H 0.66263 0.78566 0.38589 0.0
H577 H 0.64338 0.83026 0.4197 0.0
H578 H 0.75205 0.87108 0.44617 0.0
H579 H 0.76688 0.90592 0.42826 0.0
H580 H 0.77321 0.87064 0.40476 0.0
H581 H 0.74914 0.89336 0.34791 0.0
H582 H 0.74248 0.92865 0.37137 0.0
H583 H 0.71141 0.909 0.35036 0.0
H584 H 0.63319 0.88069 0.4507 0.0
H585 H 0.63507 0.93065 0.48129 0.0
H586 H 0.72503 0.94577 0.43728 0.0
C587 C 0.72286 0.83359 0.37314 0.0
C588 C 0.70524 0.80691 0.37048 0.0
C589 C 0.67653 0.80586 0.38763 0.0
C590 C 0.66534 0.83113 0.4067 0.0
C591 C 0.68324 0.85717 0.4086 0.0
C592 C 0.71155 0.85841 0.39262 0.0
C593 C 0.727 0.88843 0.40016 0.0
C594 C 0.75652 0.88372 0.42109 0.0
C595 C 0.73284 0.90589 0.36538 0.0
C596 C 0.70303 0.9039 0.42299 0.0
C597 C 0.67778 0.8857 0.42721 0.0
C598 C 0.65284 0.89513 0.44755 0.0
C599 C 0.65405 0.92361 0.46468 0.0
C600 C 0.68017 0.94214 0.46168 0.0
C601 C 0.70471 0.93219 0.44008 0.0
H602 H 0.17311 0.76516 0.31826 0.0
H603 H 0.23134 0.68858 0.34119 0.0
H604 H 0.19689 0.6739 0.39081 0.0
H605 H 0.15659 0.78429 0.40968 0.0
H606 H 0.11818 0.79568 0.4007 0.0
H607 H 0.14684 0.79909 0.36647 0.0
H608 H 0.11414 0.76654 0.32345 0.0
H609 H 0.08542 0.76293 0.3576 0.0
H610 H 0.10168 0.72944 0.33714 0.0
H611 H 0.15463 0.66735 0.43769 0.0
H612 H 0.11145 0.67195 0.48011 0.0
H613 H 0.08299 0.7544 0.42749 0.0
C614 C 0.17859 0.74516 0.33353 0.0
C615 C 0.20483 0.72784 0.3256 0.0
C616 C 0.21137 0.70216 0.34672 0.0
C617 C 0.19186 0.69362 0.37487 0.0
C618 C 0.1661 0.71119 0.38185 0.0
C619 C 0.15969 0.73663 0.36194 0.0
C620 C 0.13137 0.7525 0.37557 0.0
C621 C 0.1387 0.7848 0.3889 0.0
C622 C 0.1067 0.75286 0.34672 0.0
C623 C 0.12263 0.732 0.40622 0.0
C624 C 0.14271 0.7081 0.40929 0.0
C625 C 0.13889 0.68607 0.43553 0.0
C626 C 0.11422 0.68879 0.45944 0.0
C627 C 0.09383 0.71356 0.45726 0.0
C628 C 0.09819 0.73525 0.43006 0.0
H629 H 0.27172 0.20742 0.34116 0.0
H630 H 0.18454 0.19554 0.2902 0.0
H631 H 0.17515 0.14983 0.32723 0.0
H632 H 0.29058 0.12818 0.34653 0.0
H633 H 0.30932 0.13293 0.38888 0.0
H634 H 0.30834 0.16382 0.35778 0.0
H635 H 0.28421 0.19824 0.40691 0.0
H636 H 0.28458 0.16728 0.43797 0.0
H637 H 0.24953 0.18651 0.42849 0.0
H638 H 0.17543 0.10578 0.37338 0.0
H639 H 0.18791 0.06576 0.41748 0.0
H640 H 0.27505 0.10839 0.43551 0.0
C641 C 0.25068 0.19514 0.33752 0.0
C642 C 0.22883 0.20499 0.31288 0.0
C643 C 0.2017 0.18816 0.30876 0.0
C644 C 0.19611 0.16237 0.3299 0.0
C645 C 0.218 0.15372 0.35467 0.0
C646 C 0.24494 0.1695 0.358 0.0
C647 C 0.26529 0.15577 0.38575 0.0
C648 C 0.29513 0.1445 0.36871 0.0
C649 C 0.27123 0.1783 0.4166 0.0
C650 C 0.24572 0.12971 0.39783 0.0
C651 C 0.21837 0.12881 0.38005 0.0
C652 C 0.19685 0.10633 0.3873 0.0
C653 C 0.20396 0.08386 0.41256 0.0
C654 C 0.23243 0.08402 0.4298 0.0
C655 C 0.25313 0.1076 0.42265 0.0
H656 H 0.69629 0.77557 0.84291 0.0
H657 H 0.75058 0.85109 0.88087 0.0
H658 H 0.7066 0.86976 0.91677 0.0
H659 H 0.62516 0.81427 0.83611 0.0
H660 H 0.60344 0.78242 0.85197 0.0
H661 H 0.63871 0.77614 0.82853 0.0
H662 H 0.65905 0.74514 0.88185 0.0
H663 H 0.6237 0.75093 0.90518 0.0
H664 H 0.65879 0.76189 0.92602 0.0
H665 H 0.65495 0.88007 0.94799 0.0
H666 H 0.60438 0.87704 0.97733 0.0
H667 H 0.5864 0.79319 0.91988 0.0
C668 C 0.69897 0.79617 0.85861 0.0
C669 C 0.72675 0.8121 0.85884 0.0
C670 C 0.72948 0.83857 0.88033 0.0
C671 C 0.70455 0.84941 0.90055 0.0
C672 C 0.67727 0.83327 0.89926 0.0
C673 C 0.67467 0.80692 0.8792 0.0
C674 C 0.6438 0.7925 0.88368 0.0
C675 C 0.62678 0.79128 0.84794 0.0
C676 C 0.64651 0.76075 0.90018 0.0
C677 C 0.6292 0.8148 0.90945 0.0
C678 C 0.64854 0.83848 0.91783 0.0
C679 C 0.63972 0.8616 0.94152 0.0
C680 C 0.61086 0.85989 0.95781 0.0
C681 C 0.59145 0.83498 0.9507 0.0
C682 C 0.60069 0.81259 0.92569 0.0
H683 H 0.28748 0.70035 0.82968 0.0
H684 H 0.25867 0.65502 0.73229 0.0
H685 H 0.25287 0.60692 0.76553 0.0
H686 H 0.33188 0.63721 0.86249 0.0
H687 H 0.32228 0.64467 0.90867 0.0
H688 H 0.32367 0.6754 0.87727 0.0
H689 H 0.26849 0.69016 0.89401 0.0
H690 H 0.26697 0.65957 0.92553 0.0
H691 H 0.23897 0.66199 0.8908 0.0
H692 H 0.2464 0.56505 0.81079 0.0
H693 H 0.2438 0.5314 0.86349 0.0
H694 H 0.28188 0.60276 0.92971 0.0
C695 C 0.27982 0.6803 0.81542 0.0
C696 C 0.27311 0.68135 0.77857 0.0
C697 C 0.26378 0.6546 0.76057 0.0
C698 C 0.26044 0.62726 0.77922 0.0
C699 C 0.26722 0.62699 0.81561 0.0
C700 C 0.27714 0.65272 0.83339 0.0
C701 C 0.28364 0.64628 0.87232 0.0
C702 C 0.31737 0.65118 0.88067 0.0
C703 C 0.2633 0.66565 0.89712 0.0
C704 C 0.27522 0.61301 0.87394 0.0
C705 C 0.26556 0.60237 0.841 0.0
C706 C 0.25448 0.57295 0.83649 0.0
C707 C 0.25308 0.55404 0.86645 0.0
C708 C 0.26331 0.56442 0.90015 0.0
C709 C 0.27478 0.59413 0.90387 0.0
H710 H 0.34431 0.23524 0.85622 0.0
H711 H 0.30523 0.14558 0.86838 0.0
H712 H 0.34516 0.13267 0.91178 0.0
H713 H 0.42296 0.21388 0.86371 0.0
H714 H 0.43308 0.24716 0.88934 0.0
H715 H 0.40227 0.24877 0.85807 0.0
H716 H 0.36625 0.26765 0.90857 0.0
H717 H 0.39695 0.26618 0.93996 0.0
H718 H 0.36238 0.24571 0.9488 0.0
H719 H 0.39019 0.12942 0.9534 0.0
H720 H 0.43392 0.13763 0.99353 0.0
H721 H 0.44138 0.23035 0.95642 0.0
C722 C 0.34429 0.21282 0.86782 0.0
C723 C 0.32181 0.19131 0.85875 0.0
C724 C 0.32224 0.16239 0.87497 0.0
C725 C 0.3449 0.15482 0.89953 0.0
C726 C 0.36674 0.17655 0.90793 0.0
C727 C 0.3664 0.20508 0.89284 0.0
C728 C 0.39153 0.22482 0.90766 0.0
C729 C 0.41378 0.2342 0.87792 0.0
C730 C 0.37849 0.25273 0.92743 0.0
C731 C 0.40611 0.20295 0.93337 0.0
C732 C 0.39174 0.1751 0.93287 0.0
C733 C 0.40152 0.15119 0.95411 0.0
C734 C 0.42642 0.15601 0.97673 0.0
C735 C 0.44094 0.18464 0.97827 0.0
C736 C 0.43062 0.20826 0.95609 0.0
H737 H 0.77043 0.35153 0.82922 0.0
H738 H 0.68961 0.37649 0.77106 0.0
H739 H 0.67774 0.41538 0.8171 0.0
H740 H 0.74054 0.35747 0.91461 0.0
H741 H 0.77361 0.37382 0.93527 0.0
H742 H 0.77768 0.35006 0.89613 0.0
H743 H 0.80623 0.3929 0.86297 0.0
H744 H 0.80298 0.41657 0.90235 0.0
H745 H 0.7892 0.42998 0.86008 0.0
H746 H 0.67086 0.44604 0.8742 0.0
H747 H 0.67477 0.47347 0.93214 0.0
H748 H 0.76186 0.43108 0.95062 0.0
C749 C 0.75075 0.36584 0.82562 0.0
C750 C 0.73103 0.36115 0.79648 0.0
C751 C 0.70529 0.38004 0.79286 0.0
C752 C 0.69819 0.40196 0.81909 0.0
C753 C 0.71741 0.4051 0.84832 0.0
C754 C 0.74367 0.3882 0.85115 0.0
C755 C 0.76033 0.39569 0.88539 0.0
C756 C 0.76319 0.36758 0.90924 0.0
C757 C 0.79153 0.40962 0.8772 0.0
C758 C 0.73899 0.41891 0.90182 0.0
C759 C 0.71416 0.42376 0.88028 0.0
C760 C 0.69048 0.44284 0.89096 0.0
C761 C 0.6927 0.45804 0.92403 0.0
C762 C 0.71862 0.45438 0.94565 0.0
C763 C 0.7419 0.43441 0.93442 0.0
H764 H 0.72342 0.20825 0.14993 0.0
H765 H 0.68606 0.2252 0.25591 0.0
H766 H 0.63501 0.21333 0.23402 0.0
H767 H 0.66432 0.2435 0.10348 0.0
H768 H 0.66366 0.21713 0.06635 0.0
H769 H 0.69814 0.22297 0.09088 0.0
H770 H 0.70134 0.16532 0.10324 0.0
H771 H 0.66679 0.15933 0.07869 0.0
H772 H 0.66971 0.14641 0.12412 0.0
H773 H 0.58789 0.20512 0.20082 0.0
H774 H 0.5465 0.20138 0.15675 0.0
H775 H 0.61245 0.18967 0.07141 0.0
C776 C 0.70451 0.20874 0.16853 0.0
C777 C 0.70866 0.21754 0.20463 0.0
C778 C 0.68335 0.21863 0.22811 0.0
C779 C 0.65427 0.21174 0.21602 0.0
C780 C 0.65069 0.20382 0.18024 0.0
C781 C 0.67499 0.20224 0.1567 0.0
C782 C 0.66415 0.19561 0.11895 0.0
C783 C 0.6731 0.22134 0.09342 0.0
C784 C 0.67622 0.16483 0.10546 0.0
C785 C 0.63007 0.19455 0.125 0.0
C786 C 0.62296 0.19898 0.16072 0.0
C787 C 0.59309 0.20104 0.17287 0.0
C788 C 0.56978 0.19888 0.14779 0.0
C789 C 0.57651 0.19459 0.11116 0.0
C790 C 0.60694 0.1921 0.09956 0.0
H791 H 0.77013 0.67217 0.22143 0.0
H792 H 0.69302 0.64386 0.28568 0.0
H793 H 0.68131 0.60407 0.24104 0.0
H794 H 0.73602 0.66309 0.13763 0.0
H795 H 0.76932 0.64866 0.11505 0.0
H796 H 0.7732 0.67357 0.15316 0.0
H797 H 0.80622 0.63361 0.18511 0.0
H798 H 0.80291 0.60875 0.14683 0.0
H799 H 0.79198 0.59558 0.19055 0.0
H800 H 0.67492 0.57076 0.18634 0.0
H801 H 0.67838 0.5419 0.1294 0.0
H802 H 0.76082 0.5904 0.10219 0.0
C803 C 0.75116 0.6572 0.22654 0.0
C804 C 0.73256 0.66115 0.25718 0.0
C805 C 0.70778 0.64119 0.26261 0.0
C806 C 0.70081 0.61861 0.23727 0.0
C807 C 0.71902 0.61599 0.20682 0.0
C808 C 0.74404 0.63435 0.20169 0.0
C809 C 0.75971 0.62711 0.16645 0.0
C810 C 0.75954 0.65475 0.14162 0.0
C811 C 0.79212 0.61557 0.17261 0.0
C812 C 0.73938 0.60208 0.15236 0.0
C813 C 0.71587 0.59618 0.17588 0.0
C814 C 0.69346 0.5749 0.16793 0.0
C815 C 0.69548 0.55879 0.13542 0.0
C816 C 0.71992 0.56381 0.11146 0.0
C817 C 0.74201 0.58588 0.12011 0.0
H818 H 0.35634 0.74245 0.18873 0.0
H819 H 0.30671 0.82721 0.18258 0.0
H820 H 0.34853 0.84977 0.14785 0.0
H821 H 0.43253 0.77502 0.19438 0.0
H822 H 0.44941 0.74634 0.16592 0.0
H823 H 0.41668 0.73733 0.19288 0.0
H824 H 0.38812 0.71929 0.13623 0.0
H825 H 0.42077 0.72816 0.10917 0.0
H826 H 0.3845 0.74465 0.09895 0.0
H827 H 0.39521 0.86322 0.1129 0.0
H828 H 0.44176 0.86508 0.07583 0.0
H829 H 0.46025 0.77103 0.10144 0.0
C830 C 0.35452 0.76584 0.18038 0.0
C831 C 0.32833 0.78312 0.1885 0.0
C832 C 0.32651 0.8135 0.17656 0.0
C833 C 0.35023 0.82661 0.15698 0.0
C834 C 0.37562 0.80899 0.1491 0.0
C835 C 0.37786 0.77918 0.16008 0.0
C836 C 0.40678 0.76472 0.1458 0.0
C837 C 0.42758 0.7553 0.17659 0.0
C838 C 0.3996 0.7376 0.12107 0.0
C839 C 0.42022 0.79099 0.12501 0.0
C840 C 0.4021 0.81644 0.12771 0.0
C841 C 0.40963 0.84344 0.1106 0.0
C842 C 0.43618 0.84432 0.08967 0.0
C843 C 0.45468 0.81825 0.08563 0.0
C844 C 0.44661 0.79138 0.10393 0.0
H845 H 0.21046 0.34801 0.17176 0.0
H846 H 0.29325 0.36792 0.22955 0.0
H847 H 0.30585 0.4078 0.18634 0.0
H848 H 0.2403 0.35973 0.08344 0.0
H849 H 0.20658 0.37771 0.06685 0.0
H850 H 0.20378 0.35043 0.10228 0.0
H851 H 0.17587 0.38999 0.14223 0.0
H852 H 0.17846 0.41734 0.10685 0.0
H853 H 0.1932 0.42641 0.15049 0.0
H854 H 0.31095 0.44404 0.13552 0.0
H855 H 0.30575 0.47724 0.08295 0.0
H856 H 0.21861 0.43613 0.05972 0.0
C857 C 0.23114 0.36087 0.17536 0.0
C858 C 0.25079 0.35485 0.20413 0.0
C859 C 0.27765 0.37225 0.20795 0.0
C860 C 0.28514 0.39489 0.18342 0.0
C861 C 0.26542 0.4002 0.15532 0.0
C862 C 0.23879 0.38399 0.15134 0.0
C863 C 0.22134 0.3948 0.11908 0.0
C864 C 0.2178 0.36913 0.09127 0.0
C865 C 0.19038 0.40792 0.13035 0.0
C866 C 0.24241 0.41943 0.10557 0.0
C867 C 0.26786 0.42195 0.12666 0.0
C868 C 0.291 0.44248 0.11893 0.0
C869 C 0.28792 0.46115 0.08898 0.0
C870 C 0.26172 0.45943 0.06744 0.0
C871 C 0.23875 0.43822 0.07594 0.0
H872 H 0.32629 0.29685 0.20428 0.0
H873 H 0.35719 0.24692 0.29634 0.0
H874 H 0.40306 0.23062 0.26223 0.0
H875 H 0.35015 0.24579 0.13723 0.0
H876 H 0.36216 0.27458 0.1063 0.0
H877 H 0.33259 0.28273 0.13835 0.0
H878 H 0.36292 0.32891 0.16225 0.0
H879 H 0.3925 0.32111 0.13003 0.0
H880 H 0.40138 0.32367 0.17693 0.0
H881 H 0.44244 0.21563 0.215 0.0
H882 H 0.4759 0.20903 0.16187 0.0
H883 H 0.42115 0.27322 0.10359 0.0
C884 C 0.34295 0.28274 0.2173 0.0
C885 C 0.33848 0.27291 0.25266 0.0
C886 C 0.36057 0.25468 0.26921 0.0
C887 C 0.38648 0.24527 0.25001 0.0
C888 C 0.39003 0.25498 0.21477 0.0
C889 C 0.36915 0.2739 0.19892 0.0
C890 C 0.37827 0.28162 0.16105 0.0
C891 C 0.35437 0.2705 0.13416 0.0
C892 C 0.38413 0.31586 0.15737 0.0
C893 C 0.40729 0.26361 0.15764 0.0
C894 C 0.41355 0.24804 0.18869 0.0
C895 C 0.43807 0.22817 0.19083 0.0
C896 C 0.4568 0.22442 0.16058 0.0
C897 C 0.45116 0.24094 0.12906 0.0
C898 C 0.42619 0.26081 0.1277 0.0
H899 H 0.75046 0.35711 0.22145 0.0
H900 H 0.83495 0.31365 0.19071 0.0
H901 H 0.8448 0.35433 0.14698 0.0
H902 H 0.72943 0.37574 0.13402 0.0
H903 H 0.71177 0.41133 0.14595 0.0
H904 H 0.71338 0.38125 0.17807 0.0
H905 H 0.74026 0.41719 0.22303 0.0
H906 H 0.73863 0.44746 0.19104 0.0
H907 H 0.77451 0.43642 0.20965 0.0
H908 H 0.84431 0.39891 0.10474 0.0
H909 H 0.83149 0.44125 0.06436 0.0
H910 H 0.74564 0.45291 0.12002 0.0
C911 C 0.77136 0.35661 0.2061 0.0
C912 C 0.7922 0.33258 0.20975 0.0
C913 C 0.81883 0.33205 0.1884 0.0
C914 C 0.82465 0.35509 0.16362 0.0
C915 C 0.8034 0.37826 0.16019 0.0
C916 C 0.77717 0.37904 0.18067 0.0
C917 C 0.75663 0.40471 0.16946 0.0
C918 C 0.726 0.39252 0.15608 0.0
C919 C 0.75226 0.42781 0.20012 0.0
C920 C 0.7752 0.41799 0.13924 0.0
C921 C 0.80237 0.40283 0.13468 0.0
C922 C 0.82312 0.41099 0.10811 0.0
C923 C 0.8157 0.43505 0.08535 0.0
C924 C 0.78754 0.45018 0.08894 0.0
C925 C 0.76727 0.44161 0.11647 0.0
H926 H 0.673 0.73759 0.22237 0.0
H927 H 0.73016 0.81373 0.19314 0.0
H928 H 0.69704 0.82381 0.14144 0.0
H929 H 0.65813 0.71212 0.13147 0.0
H930 H 0.6197 0.70101 0.1414 0.0
H931 H 0.64809 0.6996 0.17574 0.0
H932 H 0.6149 0.73413 0.21655 0.0
H933 H 0.58639 0.73562 0.18241 0.0
H934 H 0.60222 0.77029 0.20015 0.0
H935 H 0.65627 0.8275 0.09599 0.0
H936 H 0.6115 0.82357 0.05725 0.0
H937 H 0.5822 0.743 0.11362 0.0
C938 C 0.67851 0.75646 0.20514 0.0
C939 C 0.70393 0.77514 0.21185 0.0
C940 C 0.71073 0.79925 0.18844 0.0
C941 C 0.69209 0.80509 0.15908 0.0
C942 C 0.66716 0.78626 0.15332 0.0
C943 C 0.66049 0.76227 0.17547 0.0
C944 C 0.63237 0.74544 0.1633 0.0
C945 C 0.64004 0.7126 0.15232 0.0
C946 C 0.60751 0.74645 0.19233 0.0
C947 C 0.62379 0.7642 0.13123 0.0
C948 C 0.6442 0.78763 0.12607 0.0
C949 C 0.64034 0.80908 0.0995 0.0
C950 C 0.61479 0.80672 0.07779 0.0
C951 C 0.59358 0.78293 0.08253 0.0
C952 C 0.59835 0.76111 0.10923 0.0
H953 H 0.25456 0.6817 0.16539 0.0
H954 H 0.16829 0.72581 0.14681 0.0
H955 H 0.15444 0.6847 0.10429 0.0
H956 H 0.26731 0.6585 0.07458 0.0
H957 H 0.28511 0.62322 0.08642 0.0
H958 H 0.28732 0.65542 0.11626 0.0
H959 H 0.26425 0.62325 0.16734 0.0
H960 H 0.26186 0.59097 0.1376 0.0
H961 H 0.22841 0.60448 0.16065 0.0
H962 H 0.15 0.63744 0.06413 0.0
H963 H 0.15719 0.59116 0.02676 0.0
H964 H 0.2474 0.58032 0.07023 0.0
C965 C 0.23266 0.68268 0.15257 0.0
C966 C 0.2124 0.70687 0.15964 0.0
C967 C 0.18416 0.70749 0.14183 0.0
C968 C 0.17607 0.68418 0.11774 0.0
C969 C 0.19659 0.66059 0.11146 0.0
C970 C 0.22444 0.65992 0.12815 0.0
C971 C 0.24304 0.63286 0.11585 0.0
C972 C 0.27242 0.64312 0.09716 0.0
C973 C 0.24977 0.61164 0.14723 0.0
C974 C 0.22134 0.61831 0.08963 0.0
C975 C 0.19451 0.63436 0.08765 0.0
C976 C 0.17099 0.62482 0.0654 0.0
C977 C 0.17521 0.59846 0.04437 0.0
C978 C 0.20289 0.58221 0.0454 0.0
C979 C 0.22605 0.59233 0.06858 0.0
H980 H 0.34728 0.81492 0.84552 0.0
H981 H 0.36821 0.73391 0.78307 0.0
H982 H 0.41172 0.72359 0.82187 0.0
H983 H 0.42577 0.83698 0.86032 0.0
H984 H 0.41856 0.85078 0.9051 0.0
H985 H 0.389 0.85197 0.87218 0.0
H986 H 0.35386 0.82131 0.91432 0.0
H987 H 0.38341 0.8198 0.94723 0.0
H988 H 0.36647 0.78519 0.93088 0.0
H989 H 0.45132 0.72017 0.86952 0.0
H990 H 0.48748 0.72721 0.91928 0.0
H991 H 0.44265 0.81156 0.94867 0.0
C992 C 0.36119 0.79518 0.83985 0.0
C993 C 0.35431 0.7753 0.81119 0.0
C994 C 0.37309 0.74967 0.80467 0.0
C995 C 0.39781 0.74346 0.82669 0.0
C996 C 0.40376 0.76325 0.85495 0.0
C997 C 0.3863 0.78883 0.86131 0.0
C998 C 0.39799 0.80663 0.89318 0.0
C999 C 0.40846 0.83847 0.88201 0.0
C1000 C 0.374 0.80832 0.92317 0.0
C1001 C 0.42457 0.78695 0.90374 0.0
C1002 C 0.42732 0.76185 0.88162 0.0
C1003 C 0.44961 0.7399 0.88685 0.0
C1004 C 0.46993 0.74398 0.91522 0.0
C1005 C 0.468 0.77 0.93756 0.0
C1006 C 0.44491 0.79161 0.93173 0.0
H1007 H 0.28343 0.3328 0.81908 0.0
H1008 H 0.2003 0.28303 0.83897 0.0
H1009 H 0.17993 0.32673 0.87337 0.0
H1010 H 0.28763 0.36585 0.90656 0.0
H1011 H 0.30305 0.40141 0.89148 0.0
H1012 H 0.31014 0.36715 0.8662 0.0
H1013 H 0.28796 0.39223 0.8097 0.0
H1014 H 0.28071 0.42655 0.83488 0.0
H1015 H 0.25026 0.40798 0.8114 0.0
H1016 H 0.16853 0.37606 0.90562 0.0
H1017 H 0.16894 0.42523 0.93809 0.0
H1018 H 0.26072 0.44147 0.90052 0.0
C1019 C 0.26083 0.33127 0.83039 0.0
C1020 C 0.24332 0.30464 0.82613 0.0
C1021 C 0.21408 0.30323 0.84192 0.0
C1022 C 0.20227 0.32798 0.86135 0.0
C1023 C 0.22012 0.35388 0.86519 0.0
C1024 C 0.24891 0.35556 0.85051 0.0
C1025 C 0.26416 0.38524 0.86056 0.0
C1026 C 0.29294 0.37956 0.88251 0.0
C1027 C 0.27118 0.40411 0.82714 0.0
C1028 C 0.23949 0.39992 0.88322 0.0
C1029 C 0.21409 0.38167 0.88511 0.0
C1030 C 0.18832 0.39051 0.90438 0.0
C1031 C 0.18871 0.41852 0.92263 0.0
C1032 C 0.21486 0.43715 0.92195 0.0
C1033 C 0.24043 0.42769 0.90169 0.0
H1034 H 0.68192 0.22004 0.86525 0.0
H1035 H 0.65638 0.3053 0.81645 0.0
H1036 H 0.61387 0.31049 0.85877 0.0
H1037 H 0.60519 0.19381 0.87978 0.0
H1038 H 0.61325 0.17631 0.92204 0.0
H1039 H 0.6426 0.17935 0.88855 0.0
H1040 H 0.67688 0.20745 0.93408 0.0
H1041 H 0.64762 0.20453 0.96769 0.0
H1042 H 0.66292 0.24115 0.95638 0.0
H1043 H 0.57525 0.30777 0.90662 0.0
H1044 H 0.53999 0.29524 0.95578 0.0
H1045 H 0.5879 0.2105 0.97224 0.0
C1046 C 0.66735 0.23974 0.86361 0.0
C1047 C 0.67236 0.26218 0.83752 0.0
C1048 C 0.65277 0.28763 0.83598 0.0
C1049 C 0.62863 0.29092 0.86001 0.0
C1050 C 0.62415 0.26844 0.88527 0.0
C1051 C 0.64267 0.24319 0.88716 0.0
C1052 C 0.63199 0.22204 0.9164 0.0
C1053 C 0.6227 0.19104 0.90075 0.0
C1054 C 0.6563 0.2186 0.94535 0.0
C1055 C 0.60471 0.23947 0.93049 0.0
C1056 C 0.60087 0.26631 0.91234 0.0
C1057 C 0.57783 0.28673 0.92097 0.0
C1058 C 0.55798 0.27947 0.94894 0.0
C1059 C 0.56113 0.25186 0.96755 0.0
C1060 C 0.58478 0.23161 0.95813 0.0
H1061 H 0.80252 0.69406 0.85238 0.0
H1062 H 0.72085 0.67476 0.79226 0.0
H1063 H 0.71131 0.62994 0.83008 0.0
H1064 H 0.8247 0.61447 0.86579 0.0
H1065 H 0.83888 0.62201 0.91007 0.0
H1066 H 0.8402 0.65123 0.87671 0.0
H1067 H 0.81043 0.68728 0.91931 0.0
H1068 H 0.80873 0.65813 0.95266 0.0
H1069 H 0.77429 0.67538 0.93705 0.0
H1070 H 0.70801 0.59081 0.87816 0.0
H1071 H 0.71337 0.55673 0.92958 0.0
H1072 H 0.79865 0.59988 0.95693 0.0
C1073 C 0.78283 0.68017 0.84682 0.0
C1074 C 0.76235 0.68789 0.81941 0.0
C1075 C 0.7369 0.66915 0.81295 0.0
C1076 C 0.73127 0.64374 0.83438 0.0
C1077 C 0.75156 0.63721 0.86171 0.0
C1078 C 0.77709 0.65459 0.86761 0.0
C1079 C 0.795 0.64306 0.89917 0.0
C1080 C 0.82656 0.63203 0.88721 0.0
C1081 C 0.79723 0.66741 0.92879 0.0
C1082 C 0.77516 0.61683 0.9107 0.0
C1083 C 0.75017 0.61397 0.88877 0.0
C1084 C 0.72767 0.59257 0.89519 0.0
C1085 C 0.73084 0.57347 0.92463 0.0
C1086 C 0.75647 0.57565 0.94719 0.0
C1087 C 0.77901 0.59751 0.93992 0.0
loop_
_geom_bond_atom_site_label_1
_geom_bond_atom_site_label_2
_geom_bond_distance
_geom_bond_site_symmetry_2
_ccdc_geom_bond_type
C0 O2 1.247 . S
C0 O4 1.258 . S
C1 O8 1.247 . S
C1 O9 1.258 . S
O2 C0 1.247 . S
O2 Zn3 2.028 . S
Zn3 O2 2.028 . S
Zn3 O7 2.035 . S
Zn3 O9 2.035 . S
Zn3 O10 2.028 . S
O4 C0 1.258 . S
O4 Zn5 2.035 . S
Zn5 O4 2.035 . S
Zn5 O6 2.028 . S
Zn5 O8 2.028 . S
Zn5 O11 2.035 . S
O6 Zn5 2.028 . S
O6 C12 1.247 . S
O7 Zn3 2.035 . S
O7 C12 1.258 . S
O8 C1 1.247 . S
O8 Zn5 2.028 . S
O9 C1 1.258 . S
O9 Zn3 2.035 . S
O10 Zn3 2.028 . S
O10 C13 1.247 . S
O11 Zn5 2.035 . S
O11 C13 1.258 . S
C12 O6 1.247 . S
C12 O7 1.258 . S
C13 O10 1.247 . S
C13 O11 1.258 . S
C14 O16 1.247 . S
C14 O18 1.258 . S
C15 O22 1.247 . S
C15 O23 1.258 . S
O16 C14 1.247 . S
O16 Zn17 2.028 . S
Zn17 O16 2.028 . S
Zn17 O21 2.035 . S
Zn17 O23 2.035 . S
Zn17 O24 2.028 . S
O18 C14 1.258 . S
O18 Zn19 2.035 . S
Zn19 O18 2.035 . S
Zn19 O20 2.028 . S
Zn19 O22 2.028 . S
Zn19 O25 2.035 . S
O20 Zn19 2.028 . S
O20 C26 1.247 . S
O21 Zn17 2.035 . S
O21 C26 1.258 . S
O22 C15 1.247 . S
O22 Zn19 2.028 . S
O23 C15 1.258 . S
O23 Zn17 2.035 . S
O24 Zn17 2.028 . S
O24 C27 1.247 . S
O25 Zn19 2.035 . S
O25 C27 1.258 . S
C26 O20 1.247 . S
C26 O21 1.258 . S
C27 O24 1.247 . S
C27 O25 1.258 . S
C28 O30 1.247 . S
C28 O32 1.258 . S
C29 O36 1.247 . S
C29 O37 1.258 . S
O30 C28 1.247 . S
O30 Zn31 2.028 . S
Zn31 O30 2.028 . S
Zn31 O35 2.035 . S
Zn31 O37 2.035 . S
Zn31 O38 2.028 . S
O32 C28 1.258 . S
O32 Zn33 2.035 . S
Zn33 O32 2.035 . S
Zn33 O34 2.028 . S
Zn33 O36 2.028 . S
Zn33 O39 2.035 . S
O34 Zn33 2.028 . S
O34 C40 1.247 . S
O35 Zn31 2.035 . S
O35 C40 1.258 . S
O36 C29 1.247 . S
O36 Zn33 2.028 . S
O37 C29 1.258 . S
O37 Zn31 2.035 . S
O38 Zn31 2.028 . S
O38 C41 1.247 . S
O39 Zn33 2.035 . S
O39 C41 1.258 . S
C40 O34 1.247 . S
C40 O35 1.258 . S
C41 O38 1.247 . S
C41 O39 1.258 . S
C42 O44 1.247 . S
C42 O46 1.258 . S
C43 O50 1.247 . S
C43 O51 1.258 . S
O44 C42 1.247 . S
O44 Zn45 2.028 . S
Zn45 O44 2.028 . S
Zn45 O49 2.035 . S
Zn45 O51 2.035 . S
Zn45 O52 2.028 . S
O46 C42 1.258 . S
O46 Zn47 2.035 . S
Zn47 O46 2.035 . S
Zn47 O48 2.028 . S
Zn47 O50 2.028 . S
Zn47 O53 2.035 . S
O48 Zn47 2.028 . S
O48 C54 1.247 . S
O49 Zn45 2.035 . S
O49 C54 1.258 . S
O50 C43 1.247 . S
O50 Zn47 2.028 . S
O51 C43 1.258 . S
O51 Zn45 2.035 . S
O52 Zn45 2.028 . S
O52 C55 1.247 . S
O53 Zn47 2.035 . S
O53 C55 1.258 . S
C54 O48 1.247 . S
C54 O49 1.258 . S
C55 O52 1.247 . S
C55 O53 1.258 . S
C56 O58 1.247 . S
C56 O60 1.258 . S
C57 O64 1.247 . S
C57 O65 1.258 . S
O58 C56 1.247 . S
O58 Zn59 2.028 . S
Zn59 O58 2.028 . S
Zn59 O63 2.035 . S
Zn59 O65 2.035 . S
Zn59 O66 2.028 . S
O60 C56 1.258 . S
O60 Zn61 2.035 . S
Zn61 O60 2.035 . S
Zn61 O62 2.028 . S
Zn61 O64 2.028 . S
Zn61 O67 2.035 . S
O62 Zn61 2.028 . S
O62 C68 1.247 . S
O63 Zn59 2.035 . S
O63 C68 1.258 . S
O64 C57 1.247 . S
O64 Zn61 2.028 . S
O65 C57 1.258 . S
O65 Zn59 2.035 . S
O66 Zn59 2.028 . S
O66 C69 1.247 . S
O67 Zn61 2.035 . S
O67 C69 1.258 . S
C68 O62 1.247 . S
C68 O63 1.258 . S
C69 O66 1.247 . S
C69 O67 1.258 . S
C70 O72 1.247 . S
C70 O74 1.258 . S
C71 O78 1.247 . S
C71 O79 1.258 . S
O72 C70 1.247 . S
O72 Zn73 2.028 . S
Zn73 O72 2.028 . S
Zn73 O77 2.035 . S
Zn73 O79 2.035 . S
Zn73 O80 2.028 . S
O74 C70 1.258 . S
O74 Zn75 2.035 . S
Zn75 O74 2.035 . S
Zn75 O76 2.028 . S
Zn75 O78 2.028 . S
Zn75 O81 2.035 . S
O76 Zn75 2.028 . S
O76 C82 1.247 . S
O77 Zn73 2.035 . S
O77 C82 1.258 . S
O78 C71 1.247 . S
O78 Zn75 2.028 . S
O79 C71 1.258 . S
O79 Zn73 2.035 . S
O80 Zn73 2.028 . S
O80 C83 1.247 . S
O81 Zn75 2.035 . S
O81 C83 1.258 . S
C82 O76 1.247 . S
C82 O77 1.258 . S
C83 O80 1.247 . S
C83 O81 1.258 . S
C84 O86 1.247 . S
C84 O88 1.258 . S
C85 O92 1.247 . S
C85 O93 1.258 . S
O86 C84 1.247 . S
O86 Zn87 2.028 . S
Zn87 O86 2.028 . S
Zn87 O91 2.035 . S
Zn87 O93 2.035 . S
Zn87 O94 2.028 . S
O88 C84 1.258 . S
O88 Zn89 2.035 . S
Zn89 O88 2.035 . S
Zn89 O90 2.028 . S
Zn89 O92 2.028 . S
Zn89 O95 2.035 . S
O90 Zn89 2.028 . S
O90 C96 1.247 . S
O91 Zn87 2.035 . S
O91 C96 1.258 . S
O92 C85 1.247 . S
O92 Zn89 2.028 . S
O93 C85 1.258 . S
O93 Zn87 2.035 . S
O94 Zn87 2.028 . S
O94 C97 1.247 . S
O95 Zn89 2.035 . S
O95 C97 1.258 . S
C96 O90 1.247 . S
C96 O91 1.258 . S
C97 O94 1.247 . S
C97 O95 1.258 . S
C98 O100 1.247 . S
C98 O102 1.258 . S
C99 O106 1.247 . S
C99 O107 1.258 . S
O100 C98 1.247 . S
O100 Zn101 2.028 . S
Zn101 O100 2.028 . S
Zn101 O105 2.035 . S
Zn101 O107 2.035 . S
Zn101 O108 2.028 . S
O102 C98 1.258 . S
O102 Zn103 2.035 . S
Zn103 O102 2.035 . S
Zn103 O104 2.028 . S
Zn103 O106 2.028 . S
Zn103 O109 2.035 . S
O104 Zn103 2.028 . S
O104 C110 1.247 . S
O105 Zn101 2.035 . S
O105 C110 1.258 . S
O106 C99 1.247 . S
O106 Zn103 2.028 . S
O107 C99 1.258 . S
O107 Zn101 2.035 . S
O108 Zn101 2.028 . S
O108 C111 1.247 . S
O109 Zn103 2.035 . S
O109 C111 1.258 . S
C110 O104 1.247 . S
C110 O105 1.258 . S
C111 O108 1.247 . S
C111 O109 1.258 . S
C112 O114 1.247 . S
C112 O116 1.258 . S
C113 O120 1.247 . S
C113 O121 1.258 . S
O114 C112 1.247 . S
O114 Zn115 2.029 . S
Zn115 O114 2.029 . S
Zn115 O119 2.034 1_655 S
Zn115 O121 2.034 1_655 S
Zn115 O122 2.029 . S
O116 C112 1.258 . S
O116 Zn117 2.028 1_655 S
Zn117 O116 2.028 1_455 S
Zn117 O118 2.035 . S
Zn117 O120 2.035 . S
Zn117 O123 2.028 1_455 S
O118 Zn117 2.035 . S
O118 C124 1.247 . S
O119 Zn115 2.034 1_455 S
O119 C124 1.258 . S
O120 C113 1.247 . S
O120 Zn117 2.035 . S
O121 C113 1.258 . S
O121 Zn115 2.034 1_455 S
O122 Zn115 2.029 . S
O122 C125 1.247 . S
O123 Zn117 2.028 1_655 S
O123 C125 1.258 . S
C124 O118 1.247 . S
C124 O119 1.258 . S
C125 O122 1.247 . S
C125 O123 1.258 . S
C126 O128 1.247 . S
C126 O130 1.258 . S
C127 O134 1.247 . S
C127 O135 1.258 . S
O128 C126 1.247 . S
O128 Zn129 2.035 . S
Zn129 O128 2.035 . S
Zn129 O133 2.028 1_545 S
Zn129 O135 2.028 1_545 S
Zn129 O136 2.035 . S
O130 C126 1.258 . S
O130 Zn131 2.034 1_545 S
Zn131 O130 2.034 1_565 S
Zn131 O132 2.029 . S
Zn131 O134 2.029 . S
Zn131 O137 2.034 1_565 S
O132 Zn131 2.029 . S
O132 C138 1.247 . S
O133 Zn129 2.028 1_565 S
O133 C138 1.258 . S
O134 C127 1.247 . S
O134 Zn131 2.029 . S
O135 C127 1.258 . S
O135 Zn129 2.028 1_565 S
O136 Zn129 2.035 . S
O136 C139 1.247 . S
O137 Zn131 2.034 1_545 S
O137 C139 1.258 . S
C138 O132 1.247 . S
C138 O133 1.258 . S
C139 O136 1.247 . S
C139 O137 1.258 . S
C140 O142 1.247 . S
C140 O144 1.258 . S
C141 O148 1.247 . S
C141 O149 1.258 . S
O142 C140 1.247 . S
O142 Zn143 2.029 . S
Zn143 O142 2.029 . S
Zn143 O147 2.034 1_655 S
Zn143 O149 2.034 1_655 S
Zn143 O150 2.029 . S
O144 C140 1.258 . S
O144 Zn145 2.028 1_655 S
Zn145 O144 2.028 1_455 S
Zn145 O146 2.035 . S
Zn145 O148 2.035 . S
Zn145 O151 2.028 1_455 S
O146 Zn145 2.035 . S
O146 C152 1.247 . S
O147 Zn143 2.034 1_455 S
O147 C152 1.258 . S
O148 C141 1.247 . S
O148 Zn145 2.035 . S
O149 C141 1.258 . S
O149 Zn143 2.034 1_455 S
O150 Zn143 2.029 . S
O150 C153 1.247 . S
O151 Zn145 2.028 1_655 S
O151 C153 1.258 . S
C152 O146 1.247 . S
C152 O147 1.258 . S
C153 O150 1.247 . S
C153 O151 1.258 . S
C154 O156 1.247 . S
C154 O158 1.258 . S
C155 O162 1.247 . S
C155 O163 1.258 . S
O156 C154 1.247 . S
O156 Zn157 2.035 . S
Zn157 O156 2.035 . S
Zn157 O161 2.028 1_545 S
Zn157 O163 2.028 1_545 S
Zn157 O164 2.035 . S
O158 C154 1.258 . S
O158 Zn159 2.034 1_545 S
Zn159 O158 2.034 1_565 S
Zn159 O160 2.029 . S
Zn159 O162 2.029 . S
Zn159 O165 2.034 1_565 S
O160 Zn159 2.029 . S
O160 C166 1.247 . S
O161 Zn157 2.028 1_565 S
O161 C166 1.258 . S
O162 C155 1.247 . S
O162 Zn159 2.029 . S
O163 C155 1.258 . S
O163 Zn157 2.028 1_565 S
O164 Zn157 2.035 . S
O164 C167 1.247 . S
O165 Zn159 2.034 1_545 S
O165 C167 1.258 . S
C166 O160 1.247 . S
C166 O161 1.258 . S
C167 O164 1.247 . S
C167 O165 1.258 . S
C168 O170 1.247 . S
C168 O172 1.258 . S
C169 O176 1.247 . S
C169 O177 1.258 . S
O170 C168 1.247 . S
O170 Zn171 2.028 . S
Zn171 O170 2.028 . S
Zn171 O175 2.035 . S
Zn171 O177 2.035 1_554 S
Zn171 O178 2.028 1_554 S
O172 C168 1.258 . S
O172 Zn173 2.035 . S
Zn173 O172 2.035 . S
Zn173 O174 2.028 . S
Zn173 O176 2.028 1_554 S
Zn173 O179 2.035 1_554 S
O174 Zn173 2.028 . S
O174 C180 1.247 . S
O175 Zn171 2.035 . S
O175 C180 1.258 . S
O176 C169 1.247 . S
O176 Zn173 2.028 1_556 S
O177 C169 1.258 . S
O177 Zn171 2.035 1_556 S
O178 Zn171 2.028 1_556 S
O178 C181 1.247 . S
O179 Zn173 2.035 1_556 S
O179 C181 1.258 . S
C180 O174 1.247 . S
C180 O175 1.258 . S
C181 O178 1.247 . S
C181 O179 1.258 . S
C182 O184 1.247 . S
C182 O186 1.258 . S
C183 O190 1.247 . S
C183 O191 1.258 . S
O184 C182 1.247 . S
O184 Zn185 2.028 . S
Zn185 O184 2.028 . S
Zn185 O189 2.035 . S
Zn185 O191 2.035 1_554 S
Zn185 O192 2.028 1_554 S
O186 C182 1.258 . S
O186 Zn187 2.035 . S
Zn187 O186 2.035 . S
Zn187 O188 2.028 . S
Zn187 O190 2.028 1_554 S
Zn187 O193 2.035 1_554 S
O188 Zn187 2.028 . S
O188 C194 1.247 . S
O189 Zn185 2.035 . S
O189 C194 1.258 . S
O190 C183 1.247 . S
O190 Zn187 2.028 1_556 S
O191 C183 1.258 . S
O191 Zn185 2.035 1_556 S
O192 Zn185 2.028 1_556 S
O192 C195 1.247 . S
O193 Zn187 2.035 1_556 S
O193 C195 1.258 . S
C194 O188 1.247 . S
C194 O189 1.258 . S
C195 O192 1.247 . S
C195 O193 1.258 . S
C196 O198 1.247 . S
C196 O200 1.258 . S
C197 O204 1.247 . S
C197 O205 1.258 . S
O198 C196 1.247 . S
O198 Zn199 2.028 1_556 S
Zn199 O198 2.028 1_554 S
Zn199 O203 2.035 1_554 S
Zn199 O205 2.035 . S
Zn199 O206 2.028 . S
O200 C196 1.258 . S
O200 Zn201 2.035 1_556 S
Zn201 O200 2.035 1_554 S
Zn201 O202 2.028 1_554 S
Zn201 O204 2.028 . S
Zn201 O207 2.035 . S
O202 Zn201 2.028 1_556 S
O202 C208 1.247 . S
O203 Zn199 2.035 1_556 S
O203 C208 1.258 . S
O204 C197 1.247 . S
O204 Zn201 2.028 . S
O205 C197 1.258 . S
O205 Zn199 2.035 . S
O206 Zn199 2.028 . S
O206 C209 1.247 . S
O207 Zn201 2.035 . S
O207 C209 1.258 . S
C208 O202 1.247 . S
C208 O203 1.258 . S
C209 O206 1.247 . S
C209 O207 1.258 . S
C210 O212 1.247 . S
C210 O214 1.258 . S
C211 O218 1.247 . S
C211 O219 1.258 . S
O212 C210 1.247 . S
O212 Zn213 2.028 . S
Zn213 O212 2.028 . S
Zn213 O217 2.035 . S
Zn213 O219 2.035 1_554 S
Zn213 O220 2.028 1_554 S
O214 C210 1.258 . S
O214 Zn215 2.035 . S
Zn215 O214 2.035 . S
Zn215 O216 2.028 . S
Zn215 O218 2.028 1_554 S
Zn215 O221 2.035 1_554 S
O216 Zn215 2.028 . S
O216 C222 1.247 . S
O217 Zn213 2.035 . S
O217 C222 1.258 . S
O218 C211 1.247 . S
O218 Zn215 2.028 1_556 S
O219 C211 1.258 . S
O219 Zn213 2.035 1_556 S
O220 Zn213 2.028 1_556 S
O220 C223 1.247 . S
O221 Zn215 2.035 1_556 S
O221 C223 1.258 . S
C222 O216 1.247 . S
C222 O217 1.258 . S
C223 O220 1.247 . S
C223 O221 1.258 . S
H224 C236 0.930 . S
H225 C238 0.930 . S
H226 C239 0.930 . S
H227 C243 0.959 . S
H228 C243 0.959 . S
H229 C243 0.961 . S
H230 C244 0.960 . S
H231 C244 0.961 . S
H232 C244 0.959 . S
H233 C247 0.929 . S
H234 C248 0.931 . S
H235 C250 0.930 . S
C236 H224 0.930 . S
C236 C237 1.399 . S
C236 C241 1.399 . S
C237 C236 1.399 . S
C237 C238 1.376 . S
C238 H225 0.930 . S
C238 C237 1.376 . S
C238 C239 1.388 . S
C239 H226 0.930 . S
C239 C238 1.388 . S
C239 C240 1.390 . S
C240 C239 1.390 . S
C240 C241 1.394 . S
C240 C246 1.465 . S
C241 C236 1.399 . S
C241 C240 1.394 . S
C241 C242 1.516 . S
C242 C241 1.516 . S
C242 C243 1.502 . S
C242 C244 1.561 . S
C242 C245 1.526 . S
C243 H227 0.959 . S
C243 H228 0.959 . S
C243 H229 0.961 . S
C243 C242 1.502 . S
C244 H230 0.960 . S
C244 H231 0.961 . S
C244 H232 0.959 . S
C244 C242 1.561 . S
C245 C242 1.526 . S
C245 C246 1.396 . S
C245 C250 1.390 . S
C246 C240 1.465 . S
C246 C245 1.396 . S
C246 C247 1.399 . S
C247 H233 0.929 . S
C247 C246 1.399 . S
C247 C248 1.385 . S
C248 H234 0.931 . S
C248 C247 1.385 . S
C248 C249 1.389 . S
C249 C248 1.389 . S
C249 C250 1.387 . S
C250 H235 0.930 . S
C250 C245 1.390 . S
C250 C249 1.387 . S
H251 C263 0.930 . S
H252 C265 0.930 . S
H253 C266 0.930 . S
H254 C270 0.959 . S
H255 C270 0.959 . S
H256 C270 0.961 . S
H257 C271 0.960 . S
H258 C271 0.961 . S
H259 C271 0.959 . S
H260 C274 0.929 . S
H261 C275 0.931 . S
H262 C277 0.930 . S
C263 H251 0.930 . S
C263 C264 1.399 . S
C263 C268 1.399 . S
C264 C263 1.399 . S
C264 C265 1.376 . S
C265 H252 0.930 . S
C265 C264 1.376 . S
C265 C266 1.388 . S
C266 H253 0.930 . S
C266 C265 1.388 . S
C266 C267 1.390 . S
C267 C266 1.390 . S
C267 C268 1.394 . S
C267 C273 1.465 . S
C268 C263 1.399 . S
C268 C267 1.394 . S
C268 C269 1.516 . S
C269 C268 1.516 . S
C269 C270 1.502 . S
C269 C271 1.561 . S
C269 C272 1.526 . S
C270 H254 0.959 . S
C270 H255 0.959 . S
C270 H256 0.961 . S
C270 C269 1.502 . S
C271 H257 0.960 . S
C271 H258 0.961 . S
C271 H259 0.959 . S
C271 C269 1.561 . S
C272 C269 1.526 . S
C272 C273 1.396 . S
C272 C277 1.390 . S
C273 C267 1.465 . S
C273 C272 1.396 . S
C273 C274 1.399 . S
C274 H260 0.929 . S
C274 C273 1.399 . S
C274 C275 1.385 . S
C275 H261 0.931 . S
C275 C274 1.385 . S
C275 C276 1.389 . S
C276 C275 1.389 . S
C276 C277 1.387 . S
C277 H262 0.930 . S
C277 C272 1.390 . S
C277 C276 1.387 . S
H278 C290 0.930 . S
H279 C292 0.930 . S
H280 C293 0.930 . S
H281 C297 0.959 . S
H282 C297 0.959 . S
H283 C297 0.961 . S
H284 C298 0.960 . S
H285 C298 0.961 . S
H286 C298 0.959 . S
H287 C301 0.929 . S
H288 C302 0.931 . S
H289 C304 0.930 . S
C290 H278 0.930 . S
C290 C291 1.399 . S
C290 C295 1.399 . S
C291 C290 1.399 . S
C291 C292 1.376 . S
C292 H279 0.930 . S
C292 C291 1.376 . S
C292 C293 1.388 . S
C293 H280 0.930 . S
C293 C292 1.388 . S
C293 C294 1.390 . S
C294 C293 1.390 . S
C294 C295 1.394 . S
C294 C300 1.465 . S
C295 C290 1.399 . S
C295 C294 1.394 . S
C295 C296 1.516 . S
C296 C295 1.516 . S
C296 C297 1.502 . S
C296 C298 1.561 . S
C296 C299 1.526 . S
C297 H281 0.959 . S
C297 H282 0.959 . S
C297 H283 0.961 . S
C297 C296 1.502 . S
C298 H284 0.960 . S
C298 H285 0.961 . S
C298 H286 0.959 . S
C298 C296 1.561 . S
C299 C296 1.526 . S
C299 C300 1.396 . S
C299 C304 1.390 . S
C300 C294 1.465 . S
C300 C299 1.396 . S
C300 C301 1.399 . S
C301 H287 0.929 . S
C301 C300 1.399 . S
C301 C302 1.385 . S
C302 H288 0.931 . S
C302 C301 1.385 . S
C302 C303 1.389 . S
C303 C302 1.389 . S
C303 C304 1.387 . S
C304 H289 0.930 . S
C304 C299 1.390 . S
C304 C303 1.387 . S
H305 C317 0.930 . S
H306 C319 0.930 . S
H307 C320 0.930 . S
H308 C324 0.959 . S
H309 C324 0.959 . S
H310 C324 0.961 . S
H311 C325 0.960 . S
H312 C325 0.961 . S
H313 C325 0.959 . S
H314 C328 0.929 . S
H315 C329 0.931 . S
H316 C331 0.930 . S
C317 H305 0.930 . S
C317 C318 1.399 . S
C317 C322 1.399 . S
C318 C317 1.399 . S
C318 C319 1.376 . S
C319 H306 0.930 . S
C319 C318 1.376 . S
C319 C320 1.388 . S
C320 H307 0.930 . S
C320 C319 1.388 . S
C320 C321 1.390 . S
C321 C320 1.390 . S
C321 C322 1.394 . S
C321 C327 1.465 . S
C322 C317 1.399 . S
C322 C321 1.394 . S
C322 C323 1.516 . S
C323 C322 1.516 . S
C323 C324 1.502 . S
C323 C325 1.561 . S
C323 C326 1.526 . S
C324 H308 0.959 . S
C324 H309 0.959 . S
C324 H310 0.961 . S
C324 C323 1.502 . S
C325 H311 0.960 . S
C325 H312 0.961 . S
C325 H313 0.959 . S
C325 C323 1.561 . S
C326 C323 1.526 . S
C326 C327 1.396 . S
C326 C331 1.390 . S
C327 C321 1.465 . S
C327 C326 1.396 . S
C327 C328 1.399 . S
C328 H314 0.929 . S
C328 C327 1.399 . S
C328 C329 1.385 . S
C329 H315 0.931 . S
C329 C328 1.385 . S
C329 C330 1.389 . S
C330 C329 1.389 . S
C330 C331 1.387 . S
C331 H316 0.930 . S
C331 C326 1.390 . S
C331 C330 1.387 . S
H332 C344 0.930 . S
H333 C346 0.930 . S
H334 C347 0.930 . S
H335 C351 0.959 . S
H336 C351 0.959 . S
H337 C351 0.961 . S
H338 C352 0.960 . S
H339 C352 0.961 . S
H340 C352 0.959 . S
H341 C355 0.929 . S
H342 C356 0.931 . S
H343 C358 0.930 . S
C344 H332 0.930 . S
C344 C345 1.399 . S
C344 C349 1.399 . S
C345 C344 1.399 . S
C345 C346 1.376 . S
C346 H333 0.930 . S
C346 C345 1.376 . S
C346 C347 1.388 . S
C347 H334 0.930 . S
C347 C346 1.388 . S
C347 C348 1.390 . S
C348 C347 1.390 . S
C348 C349 1.394 . S
C348 C354 1.465 . S
C349 C344 1.399 . S
C349 C348 1.394 . S
C349 C350 1.516 . S
C350 C349 1.516 . S
C350 C351 1.502 . S
C350 C352 1.561 . S
C350 C353 1.526 . S
C351 H335 0.959 . S
C351 H336 0.959 . S
C351 H337 0.961 . S
C351 C350 1.502 . S
C352 H338 0.960 . S
C352 H339 0.961 . S
C352 H340 0.959 . S
C352 C350 1.561 . S
C353 C350 1.526 . S
C353 C354 1.396 . S
C353 C358 1.390 . S
C354 C348 1.465 . S
C354 C353 1.396 . S
C354 C355 1.399 . S
C355 H341 0.929 . S
C355 C354 1.399 . S
C355 C356 1.385 . S
C356 H342 0.931 . S
C356 C355 1.385 . S
C356 C357 1.389 . S
C357 C356 1.389 . S
C357 C358 1.387 . S
C358 H343 0.930 . S
C358 C353 1.390 . S
C358 C357 1.387 . S
H359 C371 0.930 . S
H360 C373 0.930 . S
H361 C374 0.930 . S
H362 C378 0.959 . S
H363 C378 0.959 . S
H364 C378 0.961 . S
H365 C379 0.960 . S
H366 C379 0.961 . S
H367 C379 0.959 . S
H368 C382 0.929 . S
H369 C383 0.931 . S
H370 C385 0.930 . S
C371 H359 0.930 . S
C371 C372 1.399 . S
C371 C376 1.399 . S
C372 C371 1.399 . S
C372 C373 1.376 . S
C373 H360 0.930 . S
C373 C372 1.376 . S
C373 C374 1.388 . S
C374 H361 0.930 . S
C374 C373 1.388 . S
C374 C375 1.390 . S
C375 C374 1.390 . S
C375 C376 1.394 . S
C375 C381 1.465 . S
C376 C371 1.399 . S
C376 C375 1.394 . S
C376 C377 1.516 . S
C377 C376 1.516 . S
C377 C378 1.502 . S
C377 C379 1.561 . S
C377 C380 1.526 . S
C378 H362 0.959 . S
C378 H363 0.959 . S
C378 H364 0.961 . S
C378 C377 1.502 . S
C379 H365 0.960 . S
C379 H366 0.961 . S
C379 H367 0.959 . S
C379 C377 1.561 . S
C380 C377 1.526 . S
C380 C381 1.396 . S
C380 C385 1.390 . S
C381 C375 1.465 . S
C381 C380 1.396 . S
C381 C382 1.399 . S
C382 H368 0.929 . S
C382 C381 1.399 . S
C382 C383 1.385 . S
C383 H369 0.931 . S
C383 C382 1.385 . S
C383 C384 1.389 . S
C384 C383 1.389 . S
C384 C385 1.387 . S
C385 H370 0.930 . S
C385 C380 1.390 . S
C385 C384 1.387 . S
H386 C398 0.930 . S
H387 C400 0.930 . S
H388 C401 0.930 . S
H389 C405 0.959 . S
H390 C405 0.959 . S
H391 C405 0.961 . S
H392 C406 0.960 . S
H393 C406 0.961 . S
H394 C406 0.959 . S
H395 C409 0.929 . S
H396 C410 0.931 . S
H397 C412 0.930 . S
C398 H386 0.930 . S
C398 C399 1.399 . S
C398 C403 1.399 . S
C399 C398 1.399 . S
C399 C400 1.376 . S
C400 H387 0.930 . S
C400 C399 1.376 . S
C400 C401 1.388 . S
C401 H388 0.930 . S
C401 C400 1.388 . S
C401 C402 1.390 . S
C402 C401 1.390 . S
C402 C403 1.394 . S
C402 C408 1.465 . S
C403 C398 1.399 . S
C403 C402 1.394 . S
C403 C404 1.516 . S
C404 C403 1.516 . S
C404 C405 1.502 . S
C404 C406 1.561 . S
C404 C407 1.526 . S
C405 H389 0.959 . S
C405 H390 0.959 . S
C405 H391 0.961 . S
C405 C404 1.502 . S
C406 H392 0.960 . S
C406 H393 0.961 . S
C406 H394 0.959 . S
C406 C404 1.561 . S
C407 C404 1.526 . S
C407 C408 1.396 . S
C407 C412 1.390 . S
C408 C402 1.465 . S
C408 C407 1.396 . S
C408 C409 1.399 . S
C409 H395 0.929 . S
C409 C408 1.399 . S
C409 C410 1.385 . S
C410 H396 0.931 . S
C410 C409 1.385 . S
C410 C411 1.389 . S
C411 C410 1.389 . S
C411 C412 1.387 . S
C412 H397 0.930 . S
C412 C407 1.390 . S
C412 C411 1.387 . S
H413 C425 0.930 . S
H414 C427 0.930 . S
H415 C428 0.930 . S
H416 C432 0.959 . S
H417 C432 0.959 . S
H418 C432 0.961 . S
H419 C433 0.960 . S
H420 C433 0.961 . S
H421 C433 0.959 . S
H422 C436 0.929 . S
H423 C437 0.931 . S
H424 C439 0.930 . S
C425 H413 0.930 . S
C425 C426 1.399 . S
C425 C430 1.399 . S
C426 C425 1.399 . S
C426 C427 1.376 . S
C427 H414 0.930 . S
C427 C426 1.376 . S
C427 C428 1.388 . S
C428 H415 0.930 . S
C428 C427 1.388 . S
C428 C429 1.390 . S
C429 C428 1.390 . S
C429 C430 1.394 . S
C429 C435 1.465 . S
C430 C425 1.399 . S
C430 C429 1.394 . S
C430 C431 1.516 . S
C431 C430 1.516 . S
C431 C432 1.502 . S
C431 C433 1.561 . S
C431 C434 1.526 . S
C432 H416 0.959 . S
C432 H417 0.959 . S
C432 H418 0.961 . S
C432 C431 1.502 . S
C433 H419 0.960 . S
C433 H420 0.961 . S
C433 H421 0.959 . S
C433 C431 1.561 . S
C434 C431 1.526 . S
C434 C435 1.396 . S
C434 C439 1.390 . S
C435 C429 1.465 . S
C435 C434 1.396 . S
C435 C436 1.399 . S
C436 H422 0.929 . S
C436 C435 1.399 . S
C436 C437 1.385 . S
C437 H423 0.931 . S
C437 C436 1.385 . S
C437 C438 1.389 . S
C438 C437 1.389 . S
C438 C439 1.387 . S
C439 H424 0.930 . S
C439 C434 1.390 . S
C439 C438 1.387 . S
H440 C452 0.930 . S
H441 C454 0.930 . S
H442 C455 0.930 . S
H443 C459 0.959 . S
H444 C459 0.959 . S
H445 C459 0.961 . S
H446 C460 0.960 . S
H447 C460 0.961 . S
H448 C460 0.959 . S
H449 C463 0.929 . S
H450 C464 0.931 . S
H451 C466 0.930 . S
C452 H440 0.930 . S
C452 C453 1.399 . S
C452 C457 1.399 . S
C453 C452 1.399 . S
C453 C454 1.376 . S
C454 H441 0.930 . S
C454 C453 1.376 . S
C454 C455 1.388 . S
C455 H442 0.930 . S
C455 C454 1.388 . S
C455 C456 1.390 . S
C456 C455 1.390 . S
C456 C457 1.394 . S
C456 C462 1.465 . S
C457 C452 1.399 . S
C457 C456 1.394 . S
C457 C458 1.516 . S
C458 C457 1.516 . S
C458 C459 1.502 . S
C458 C460 1.561 . S
C458 C461 1.526 . S
C459 H443 0.959 . S
C459 H444 0.959 . S
C459 H445 0.961 . S
C459 C458 1.502 . S
C460 H446 0.960 . S
C460 H447 0.961 . S
C460 H448 0.959 . S
C460 C458 1.561 . S
C461 C458 1.526 . S
C461 C462 1.396 . S
C461 C466 1.390 . S
C462 C456 1.465 . S
C462 C461 1.396 . S
C462 C463 1.399 . S
C463 H449 0.929 . S
C463 C462 1.399 . S
C463 C464 1.385 . S
C464 H450 0.931 . S
C464 C463 1.385 . S
C464 C465 1.389 . S
C465 C464 1.389 . S
C465 C466 1.387 . S
C466 H451 0.930 . S
C466 C461 1.390 . S
C466 C465 1.387 . S
H467 C479 0.930 . S
H468 C481 0.930 . S
H469 C482 0.930 . S
H470 C486 0.959 . S
H471 C486 0.959 . S
H472 C486 0.961 . S
H473 C487 0.960 . S
H474 C487 0.961 . S
H475 C487 0.959 . S
H476 C490 0.929 . S
H477 C491 0.931 . S
H478 C493 0.930 . S
C479 H467 0.930 . S
C479 C480 1.399 . S
C479 C484 1.399 . S
C480 C479 1.399 . S
C480 C481 1.376 . S
C481 H468 0.930 . S
C481 C480 1.376 . S
C481 C482 1.388 . S
C482 H469 0.930 . S
C482 C481 1.388 . S
C482 C483 1.390 . S
C483 C482 1.390 . S
C483 C484 1.394 . S
C483 C489 1.465 . S
C484 C479 1.399 . S
C484 C483 1.394 . S
C484 C485 1.516 . S
C485 C484 1.516 . S
C485 C486 1.502 . S
C485 C487 1.561 . S
C485 C488 1.526 . S
C486 H470 0.959 . S
C486 H471 0.959 . S
C486 H472 0.961 . S
C486 C485 1.502 . S
C487 H473 0.960 . S
C487 H474 0.961 . S
C487 H475 0.959 . S
C487 C485 1.561 . S
C488 C485 1.526 . S
C488 C489 1.396 . S
C488 C493 1.390 . S
C489 C483 1.465 . S
C489 C488 1.396 . S
C489 C490 1.399 . S
C490 H476 0.929 . S
C490 C489 1.399 . S
C490 C491 1.385 . S
C491 H477 0.931 . S
C491 C490 1.385 . S
C491 C492 1.389 . S
C492 C491 1.389 . S
C492 C493 1.387 . S
C493 H478 0.930 . S
C493 C488 1.390 . S
C493 C492 1.387 . S
H494 C506 0.930 . S
H495 C508 0.930 . S
H496 C509 0.930 . S
H497 C513 0.959 . S
H498 C513 0.959 . S
H499 C513 0.961 . S
H500 C514 0.960 . S
H501 C514 0.961 . S
H502 C514 0.959 . S
H503 C517 0.929 . S
H504 C518 0.931 . S
H505 C520 0.930 . S
C506 H494 0.930 . S
C506 C507 1.399 . S
C506 C511 1.399 . S
C507 C506 1.399 . S
C507 C508 1.376 . S
C508 H495 0.930 . S
C508 C507 1.376 . S
C508 C509 1.388 . S
C509 H496 0.930 . S
C509 C508 1.388 . S
C509 C510 1.390 . S
C510 C509 1.390 . S
C510 C511 1.394 . S
C510 C516 1.465 . S
C511 C506 1.399 . S
C511 C510 1.394 . S
C511 C512 1.516 . S
C512 C511 1.516 . S
C512 C513 1.502 . S
C512 C514 1.561 . S
C512 C515 1.526 . S
C513 H497 0.959 . S
C513 H498 0.959 . S
C513 H499 0.961 . S
C513 C512 1.502 . S
C514 H500 0.960 . S
C514 H501 0.961 . S
C514 H502 0.959 . S
C514 C512 1.561 . S
C515 C512 1.526 . S
C515 C516 1.396 . S
C515 C520 1.390 . S
C516 C510 1.465 . S
C516 C515 1.396 . S
C516 C517 1.399 . S
C517 H503 0.929 . S
C517 C516 1.399 . S
C517 C518 1.385 . S
C518 H504 0.931 . S
C518 C517 1.385 . S
C518 C519 1.389 . S
C519 C518 1.389 . S
C519 C520 1.387 . S
C520 H505 0.930 . S
C520 C515 1.390 . S
C520 C519 1.387 . S
H521 C533 0.930 . S
H522 C535 0.930 . S
H523 C536 0.930 . S
H524 C540 0.959 . S
H525 C540 0.959 . S
H526 C540 0.961 . S
H527 C541 0.960 . S
H528 C541 0.961 . S
H529 C541 0.959 . S
H530 C544 0.929 . S
H531 C545 0.931 . S
H532 C547 0.930 . S
C533 H521 0.930 . S
C533 C534 1.399 . S
C533 C538 1.399 . S
C534 C533 1.399 . S
C534 C535 1.376 . S
C535 H522 0.930 . S
C535 C534 1.376 . S
C535 C536 1.388 . S
C536 H523 0.930 . S
C536 C535 1.388 . S
C536 C537 1.390 . S
C537 C536 1.390 . S
C537 C538 1.394 . S
C537 C543 1.465 . S
C538 C533 1.399 . S
C538 C537 1.394 . S
C538 C539 1.516 . S
C539 C538 1.516 . S
C539 C540 1.502 . S
C539 C541 1.561 . S
C539 C542 1.526 . S
C540 H524 0.959 . S
C540 H525 0.959 . S
C540 H526 0.961 . S
C540 C539 1.502 . S
C541 H527 0.960 . S
C541 H528 0.961 . S
C541 H529 0.959 . S
C541 C539 1.561 . S
C542 C539 1.526 . S
C542 C543 1.396 . S
C542 C547 1.390 . S
C543 C537 1.465 . S
C543 C542 1.396 . S
C543 C544 1.399 . S
C544 H530 0.929 . S
C544 C543 1.399 . S
C544 C545 1.385 . S
C545 H531 0.931 . S
C545 C544 1.385 . S
C545 C546 1.389 . S
C546 C545 1.389 . S
C546 C547 1.387 . S
C547 H532 0.930 . S
C547 C542 1.390 . S
C547 C546 1.387 . S
H548 C560 0.930 . S
H549 C562 0.930 . S
H550 C563 0.930 . S
H551 C567 0.959 . S
H552 C567 0.959 . S
H553 C567 0.961 . S
H554 C568 0.960 . S
H555 C568 0.961 . S
H556 C568 0.959 . S
H557 C571 0.929 . S
H558 C572 0.931 . S
H559 C574 0.930 . S
C560 H548 0.930 . S
C560 C561 1.399 . S
C560 C565 1.399 . S
C561 C560 1.399 . S
C561 C562 1.376 . S
C562 H549 0.930 . S
C562 C561 1.376 . S
C562 C563 1.388 . S
C563 H550 0.930 . S
C563 C562 1.388 . S
C563 C564 1.390 . S
C564 C563 1.390 . S
C564 C565 1.394 . S
C564 C570 1.465 . S
C565 C560 1.399 . S
C565 C564 1.394 . S
C565 C566 1.516 . S
C566 C565 1.516 . S
C566 C567 1.502 . S
C566 C568 1.561 . S
C566 C569 1.526 . S
C567 H551 0.959 . S
C567 H552 0.959 . S
C567 H553 0.961 . S
C567 C566 1.502 . S
C568 H554 0.960 . S
C568 H555 0.961 . S
C568 H556 0.959 . S
C568 C566 1.561 . S
C569 C566 1.526 . S
C569 C570 1.396 . S
C569 C574 1.390 . S
C570 C564 1.465 . S
C570 C569 1.396 . S
C570 C571 1.399 . S
C571 H557 0.929 . S
C571 C570 1.399 . S
C571 C572 1.385 . S
C572 H558 0.931 . S
C572 C571 1.385 . S
C572 C573 1.389 . S
C573 C572 1.389 . S
C573 C574 1.387 . S
C574 H559 0.930 . S
C574 C569 1.390 . S
C574 C573 1.387 . S
H575 C587 0.930 . S
H576 C589 0.930 . S
H577 C590 0.930 . S
H578 C594 0.959 . S
H579 C594 0.959 . S
H580 C594 0.961 . S
H581 C595 0.960 . S
H582 C595 0.961 . S
H583 C595 0.959 . S
H584 C598 0.929 . S
H585 C599 0.931 . S
H586 C601 0.930 . S
C587 H575 0.930 . S
C587 C588 1.399 . S
C587 C592 1.399 . S
C588 C587 1.399 . S
C588 C589 1.376 . S
C589 H576 0.930 . S
C589 C588 1.376 . S
C589 C590 1.388 . S
C590 H577 0.930 . S
C590 C589 1.388 . S
C590 C591 1.390 . S
C591 C590 1.390 . S
C591 C592 1.394 . S
C591 C597 1.465 . S
C592 C587 1.399 . S
C592 C591 1.394 . S
C592 C593 1.516 . S
C593 C592 1.516 . S
C593 C594 1.502 . S
C593 C595 1.561 . S
C593 C596 1.526 . S
C594 H578 0.959 . S
C594 H579 0.959 . S
C594 H580 0.961 . S
C594 C593 1.502 . S
C595 H581 0.960 . S
C595 H582 0.961 . S
C595 H583 0.959 . S
C595 C593 1.561 . S
C596 C593 1.526 . S
C596 C597 1.396 . S
C596 C601 1.390 . S
C597 C591 1.465 . S
C597 C596 1.396 . S
C597 C598 1.399 . S
C598 H584 0.929 . S
C598 C597 1.399 . S
C598 C599 1.385 . S
C599 H585 0.931 . S
C599 C598 1.385 . S
C599 C600 1.389 . S
C600 C599 1.389 . S
C600 C601 1.387 . S
C601 H586 0.930 . S
C601 C596 1.390 . S
C601 C600 1.387 . S
H602 C614 0.930 . S
H603 C616 0.930 . S
H604 C617 0.930 . S
H605 C621 0.959 . S
H606 C621 0.959 . S
H607 C621 0.961 . S
H608 C622 0.960 . S
H609 C622 0.961 . S
H610 C622 0.959 . S
H611 C625 0.929 . S
H612 C626 0.931 . S
H613 C628 0.930 . S
C614 H602 0.930 . S
C614 C615 1.399 . S
C614 C619 1.399 . S
C615 C614 1.399 . S
C615 C616 1.376 . S
C616 H603 0.930 . S
C616 C615 1.376 . S
C616 C617 1.388 . S
C617 H604 0.930 . S
C617 C616 1.388 . S
C617 C618 1.390 . S
C618 C617 1.390 . S
C618 C619 1.394 . S
C618 C624 1.465 . S
C619 C614 1.399 . S
C619 C618 1.394 . S
C619 C620 1.516 . S
C620 C619 1.516 . S
C620 C621 1.502 . S
C620 C622 1.561 . S
C620 C623 1.526 . S
C621 H605 0.959 . S
C621 H606 0.959 . S
C621 H607 0.961 . S
C621 C620 1.502 . S
C622 H608 0.960 . S
C622 H609 0.961 . S
C622 H610 0.959 . S
C622 C620 1.561 . S
C623 C620 1.526 . S
C623 C624 1.396 . S
C623 C628 1.390 . S
C624 C618 1.465 . S
C624 C623 1.396 . S
C624 C625 1.399 . S
C625 H611 0.929 . S
C625 C624 1.399 . S
C625 C626 1.385 . S
C626 H612 0.931 . S
C626 C625 1.385 . S
C626 C627 1.389 . S
C627 C626 1.389 . S
C627 C628 1.387 . S
C628 H613 0.930 . S
C628 C623 1.390 . S
C628 C627 1.387 . S
H629 C641 0.930 . S
H630 C643 0.930 . S
H631 C644 0.930 . S
H632 C648 0.959 . S
H633 C648 0.959 . S
H634 C648 0.961 . S
H635 C649 0.960 . S
H636 C649 0.961 . S
H637 C649 0.959 . S
H638 C652 0.929 . S
H639 C653 0.931 . S
H640 C655 0.930 . S
C641 H629 0.930 . S
C641 C642 1.399 . S
C641 C646 1.399 . S
C642 C641 1.399 . S
C642 C643 1.376 . S
C643 H630 0.930 . S
C643 C642 1.376 . S
C643 C644 1.388 . S
C644 H631 0.930 . S
C644 C643 1.388 . S
C644 C645 1.390 . S
C645 C644 1.390 . S
C645 C646 1.394 . S
C645 C651 1.465 . S
C646 C641 1.399 . S
C646 C645 1.394 . S
C646 C647 1.516 . S
C647 C646 1.516 . S
C647 C648 1.502 . S
C647 C649 1.561 . S
C647 C650 1.526 . S
C648 H632 0.959 . S
C648 H633 0.959 . S
C648 H634 0.961 . S
C648 C647 1.502 . S
C649 H635 0.960 . S
C649 H636 0.961 . S
C649 H637 0.959 . S
C649 C647 1.561 . S
C650 C647 1.526 . S
C650 C651 1.396 . S
C650 C655 1.390 . S
C651 C645 1.465 . S
C651 C650 1.396 . S
C651 C652 1.399 . S
C652 H638 0.929 . S
C652 C651 1.399 . S
C652 C653 1.385 . S
C653 H639 0.931 . S
C653 C652 1.385 . S
C653 C654 1.389 . S
C654 C653 1.389 . S
C654 C655 1.387 . S
C655 H640 0.930 . S
C655 C650 1.390 . S
C655 C654 1.387 . S
H656 C668 0.930 . S
H657 C670 0.930 . S
H658 C671 0.930 . S
H659 C675 0.959 . S
H660 C675 0.959 . S
H661 C675 0.961 . S
H662 C676 0.960 . S
H663 C676 0.961 . S
H664 C676 0.959 . S
H665 C679 0.929 . S
H666 C680 0.931 . S
H667 C682 0.930 . S
C668 H656 0.930 . S
C668 C669 1.399 . S
C668 C673 1.399 . S
C669 C668 1.399 . S
C669 C670 1.376 . S
C670 H657 0.930 . S
C670 C669 1.376 . S
C670 C671 1.388 . S
C671 H658 0.930 . S
C671 C670 1.388 . S
C671 C672 1.390 . S
C672 C671 1.390 . S
C672 C673 1.394 . S
C672 C678 1.465 . S
C673 C668 1.399 . S
C673 C672 1.394 . S
C673 C674 1.516 . S
C674 C673 1.516 . S
C674 C675 1.502 . S
C674 C676 1.561 . S
C674 C677 1.526 . S
C675 H659 0.959 . S
C675 H660 0.959 . S
C675 H661 0.961 . S
C675 C674 1.502 . S
C676 H662 0.960 . S
C676 H663 0.961 . S
C676 H664 0.959 . S
C676 C674 1.561 . S
C677 C674 1.526 . S
C677 C678 1.396 . S
C677 C682 1.390 . S
C678 C672 1.465 . S
C678 C677 1.396 . S
C678 C679 1.399 . S
C679 H665 0.929 . S
C679 C678 1.399 . S
C679 C680 1.385 . S
C680 H666 0.931 . S
C680 C679 1.385 . S
C680 C681 1.389 . S
C681 C680 1.389 . S
C681 C682 1.387 . S
C682 H667 0.930 . S
C682 C677 1.390 . S
C682 C681 1.387 . S
H683 C695 0.930 . S
H684 C697 0.930 . S
H685 C698 0.930 . S
H686 C702 0.959 . S
H687 C702 0.959 . S
H688 C702 0.961 . S
H689 C703 0.960 . S
H690 C703 0.961 . S
H691 C703 0.959 . S
H692 C706 0.929 . S
H693 C707 0.931 . S
H694 C709 0.930 . S
C695 H683 0.930 . S
C695 C696 1.399 . S
C695 C700 1.399 . S
C696 C695 1.399 . S
C696 C697 1.376 . S
C697 H684 0.930 . S
C697 C696 1.376 . S
C697 C698 1.388 . S
C698 H685 0.930 . S
C698 C697 1.388 . S
C698 C699 1.390 . S
C699 C698 1.390 . S
C699 C700 1.394 . S
C699 C705 1.465 . S
C700 C695 1.399 . S
C700 C699 1.394 . S
C700 C701 1.516 . S
C701 C700 1.516 . S
C701 C702 1.502 . S
C701 C703 1.561 . S
C701 C704 1.526 . S
C702 H686 0.959 . S
C702 H687 0.959 . S
C702 H688 0.961 . S
C702 C701 1.502 . S
C703 H689 0.960 . S
C703 H690 0.961 . S
C703 H691 0.959 . S
C703 C701 1.561 . S
C704 C701 1.526 . S
C704 C705 1.396 . S
C704 C709 1.390 . S
C705 C699 1.465 . S
C705 C704 1.396 . S
C705 C706 1.399 . S
C706 H692 0.929 . S
C706 C705 1.399 . S
C706 C707 1.385 . S
C707 H693 0.931 . S
C707 C706 1.385 . S
C707 C708 1.389 . S
C708 C707 1.389 . S
C708 C709 1.387 . S
C709 H694 0.930 . S
C709 C704 1.390 . S
C709 C708 1.387 . S
H710 C722 0.930 . S
H711 C724 0.930 . S
H712 C725 0.930 . S
H713 C729 0.959 . S
H714 C729 0.959 . S
H715 C729 0.961 . S
H716 C730 0.960 . S
H717 C730 0.961 . S
H718 C730 0.959 . S
H719 C733 0.929 . S
H720 C734 0.931 . S
H721 C736 0.930 . S
C722 H710 0.930 . S
C722 C723 1.399 . S
C722 C727 1.399 . S
C723 C722 1.399 . S
C723 C724 1.376 . S
C724 H711 0.930 . S
C724 C723 1.376 . S
C724 C725 1.388 . S
C725 H712 0.930 . S
C725 C724 1.388 . S
C725 C726 1.390 . S
C726 C725 1.390 . S
C726 C727 1.394 . S
C726 C732 1.465 . S
C727 C722 1.399 . S
C727 C726 1.394 . S
C727 C728 1.516 . S
C728 C727 1.516 . S
C728 C729 1.502 . S
C728 C730 1.561 . S
C728 C731 1.526 . S
C729 H713 0.959 . S
C729 H714 0.959 . S
C729 H715 0.961 . S
C729 C728 1.502 . S
C730 H716 0.960 . S
C730 H717 0.961 . S
C730 H718 0.959 . S
C730 C728 1.561 . S
C731 C728 1.526 . S
C731 C732 1.396 . S
C731 C736 1.390 . S
C732 C726 1.465 . S
C732 C731 1.396 . S
C732 C733 1.399 . S
C733 H719 0.929 . S
C733 C732 1.399 . S
C733 C734 1.385 . S
C734 H720 0.931 . S
C734 C733 1.385 . S
C734 C735 1.389 . S
C735 C734 1.389 . S
C735 C736 1.387 . S
C736 H721 0.930 . S
C736 C731 1.390 . S
C736 C735 1.387 . S
H737 C749 0.930 . S
H738 C751 0.930 . S
H739 C752 0.930 . S
H740 C756 0.959 . S
H741 C756 0.959 . S
H742 C756 0.961 . S
H743 C757 0.960 . S
H744 C757 0.961 . S
H745 C757 0.959 . S
H746 C760 0.929 . S
H747 C761 0.931 . S
H748 C763 0.930 . S
C749 H737 0.930 . S
C749 C750 1.399 . S
C749 C754 1.399 . S
C750 C749 1.399 . S
C750 C751 1.376 . S
C751 H738 0.930 . S
C751 C750 1.376 . S
C751 C752 1.388 . S
C752 H739 0.930 . S
C752 C751 1.388 . S
C752 C753 1.390 . S
C753 C752 1.390 . S
C753 C754 1.394 . S
C753 C759 1.465 . S
C754 C749 1.399 . S
C754 C753 1.394 . S
C754 C755 1.516 . S
C755 C754 1.516 . S
C755 C756 1.502 . S
C755 C757 1.561 . S
C755 C758 1.526 . S
C756 H740 0.959 . S
C756 H741 0.959 . S
C756 H742 0.961 . S
C756 C755 1.502 . S
C757 H743 0.960 . S
C757 H744 0.961 . S
C757 H745 0.959 . S
C757 C755 1.561 . S
C758 C755 1.526 . S
C758 C759 1.396 . S
C758 C763 1.390 . S
C759 C753 1.465 . S
C759 C758 1.396 . S
C759 C760 1.399 . S
C760 H746 0.929 . S
C760 C759 1.399 . S
C760 C761 1.385 . S
C761 H747 0.931 . S
C761 C760 1.385 . S
C761 C762 1.389 . S
C762 C761 1.389 . S
C762 C763 1.387 . S
C763 H748 0.930 . S
C763 C758 1.390 . S
C763 C762 1.387 . S
H764 C776 0.930 . S
H765 C778 0.930 . S
H766 C779 0.930 . S
H767 C783 0.959 . S
H768 C783 0.959 . S
H769 C783 0.961 . S
H770 C784 0.960 . S
H771 C784 0.961 . S
H772 C784 0.959 . S
H773 C787 0.929 . S
H774 C788 0.931 . S
H775 C790 0.930 . S
C776 H764 0.930 . S
C776 C777 1.399 . S
C776 C781 1.399 . S
C777 C776 1.399 . S
C777 C778 1.376 . S
C778 H765 0.930 . S
C778 C777 1.376 . S
C778 C779 1.388 . S
C779 H766 0.930 . S
C779 C778 1.388 . S
C779 C780 1.390 . S
C780 C779 1.390 . S
C780 C781 1.394 . S
C780 C786 1.465 . S
C781 C776 1.399 . S
C781 C780 1.394 . S
C781 C782 1.516 . S
C782 C781 1.516 . S
C782 C783 1.502 . S
C782 C784 1.561 . S
C782 C785 1.526 . S
C783 H767 0.959 . S
C783 H768 0.959 . S
C783 H769 0.961 . S
C783 C782 1.502 . S
C784 H770 0.960 . S
C784 H771 0.961 . S
C784 H772 0.959 . S
C784 C782 1.561 . S
C785 C782 1.526 . S
C785 C786 1.396 . S
C785 C790 1.390 . S
C786 C780 1.465 . S
C786 C785 1.396 . S
C786 C787 1.399 . S
C787 H773 0.929 . S
C787 C786 1.399 . S
C787 C788 1.385 . S
C788 H774 0.931 . S
C788 C787 1.385 . S
C788 C789 1.389 . S
C789 C788 1.389 . S
C789 C790 1.387 . S
C790 H775 0.930 . S
C790 C785 1.390 . S
C790 C789 1.387 . S
H791 C803 0.930 . S
H792 C805 0.930 . S
H793 C806 0.930 . S
H794 C810 0.959 . S
H795 C810 0.959 . S
H796 C810 0.961 . S
H797 C811 0.960 . S
H798 C811 0.961 . S
H799 C811 0.959 . S
H800 C814 0.929 . S
H801 C815 0.931 . S
H802 C817 0.930 . S
C803 H791 0.930 . S
C803 C804 1.399 . S
C803 C808 1.399 . S
C804 C803 1.399 . S
C804 C805 1.376 . S
C805 H792 0.930 . S
C805 C804 1.376 . S
C805 C806 1.388 . S
C806 H793 0.930 . S
C806 C805 1.388 . S
C806 C807 1.390 . S
C807 C806 1.390 . S
C807 C808 1.394 . S
C807 C813 1.465 . S
C808 C803 1.399 . S
C808 C807 1.394 . S
C808 C809 1.516 . S
C809 C808 1.516 . S
C809 C810 1.502 . S
C809 C811 1.561 . S
C809 C812 1.526 . S
C810 H794 0.959 . S
C810 H795 0.959 . S
C810 H796 0.961 . S
C810 C809 1.502 . S
C811 H797 0.960 . S
C811 H798 0.961 . S
C811 H799 0.959 . S
C811 C809 1.561 . S
C812 C809 1.526 . S
C812 C813 1.396 . S
C812 C817 1.390 . S
C813 C807 1.465 . S
C813 C812 1.396 . S
C813 C814 1.399 . S
C814 H800 0.929 . S
C814 C813 1.399 . S
C814 C815 1.385 . S
C815 H801 0.931 . S
C815 C814 1.385 . S
C815 C816 1.389 . S
C816 C815 1.389 . S
C816 C817 1.387 . S
C817 H802 0.930 . S
C817 C812 1.390 . S
C817 C816 1.387 . S
H818 C830 0.930 . S
H819 C832 0.930 . S
H820 C833 0.930 . S
H821 C837 0.959 . S
H822 C837 0.959 . S
H823 C837 0.961 . S
H824 C838 0.960 . S
H825 C838 0.961 . S
H826 C838 0.959 . S
H827 C841 0.929 . S
H828 C842 0.931 . S
H829 C844 0.930 . S
C830 H818 0.930 . S
C830 C831 1.399 . S
C830 C835 1.399 . S
C831 C830 1.399 . S
C831 C832 1.376 . S
C832 H819 0.930 . S
C832 C831 1.376 . S
C832 C833 1.388 . S
C833 H820 0.930 . S
C833 C832 1.388 . S
C833 C834 1.390 . S
C834 C833 1.390 . S
C834 C835 1.394 . S
C834 C840 1.465 . S
C835 C830 1.399 . S
C835 C834 1.394 . S
C835 C836 1.516 . S
C836 C835 1.516 . S
C836 C837 1.502 . S
C836 C838 1.561 . S
C836 C839 1.526 . S
C837 H821 0.959 . S
C837 H822 0.959 . S
C837 H823 0.961 . S
C837 C836 1.502 . S
C838 H824 0.960 . S
C838 H825 0.961 . S
C838 H826 0.959 . S
C838 C836 1.561 . S
C839 C836 1.526 . S
C839 C840 1.396 . S
C839 C844 1.390 . S
C840 C834 1.465 . S
C840 C839 1.396 . S
C840 C841 1.399 . S
C841 H827 0.929 . S
C841 C840 1.399 . S
C841 C842 1.385 . S
C842 H828 0.931 . S
C842 C841 1.385 . S
C842 C843 1.389 . S
C843 C842 1.389 . S
C843 C844 1.387 . S
C844 H829 0.930 . S
C844 C839 1.390 . S
C844 C843 1.387 . S
H845 C857 0.930 . S
H846 C859 0.930 . S
H847 C860 0.930 . S
H848 C864 0.959 . S
H849 C864 0.959 . S
H850 C864 0.961 . S
H851 C865 0.960 . S
H852 C865 0.961 . S
H853 C865 0.959 . S
H854 C868 0.929 . S
H855 C869 0.931 . S
H856 C871 0.930 . S
C857 H845 0.930 . S
C857 C858 1.399 . S
C857 C862 1.399 . S
C858 C857 1.399 . S
C858 C859 1.376 . S
C859 H846 0.930 . S
C859 C858 1.376 . S
C859 C860 1.388 . S
C860 H847 0.930 . S
C860 C859 1.388 . S
C860 C861 1.390 . S
C861 C860 1.390 . S
C861 C862 1.394 . S
C861 C867 1.465 . S
C862 C857 1.399 . S
C862 C861 1.394 . S
C862 C863 1.516 . S
C863 C862 1.516 . S
C863 C864 1.502 . S
C863 C865 1.561 . S
C863 C866 1.526 . S
C864 H848 0.959 . S
C864 H849 0.959 . S
C864 H850 0.961 . S
C864 C863 1.502 . S
C865 H851 0.960 . S
C865 H852 0.961 . S
C865 H853 0.959 . S
C865 C863 1.561 . S
C866 C863 1.526 . S
C866 C867 1.396 . S
C866 C871 1.390 . S
C867 C861 1.465 . S
C867 C866 1.396 . S
C867 C868 1.399 . S
C868 H854 0.929 . S
C868 C867 1.399 . S
C868 C869 1.385 . S
C869 H855 0.931 . S
C869 C868 1.385 . S
C869 C870 1.389 . S
C870 C869 1.389 . S
C870 C871 1.387 . S
C871 H856 0.930 . S
C871 C866 1.390 . S
C871 C870 1.387 . S
H872 C884 0.930 . S
H873 C886 0.930 . S
H874 C887 0.930 . S
H875 C891 0.959 . S
H876 C891 0.959 . S
H877 C891 0.961 . S
H878 C892 0.960 . S
H879 C892 0.961 . S
H880 C892 0.959 . S
H881 C895 0.929 . S
H882 C896 0.931 . S
H883 C898 0.930 . S
C884 H872 0.930 . S
C884 C885 1.399 . S
C884 C889 1.399 . S
C885 C884 1.399 . S
C885 C886 1.376 . S
C886 H873 0.930 . S
C886 C885 1.376 . S
C886 C887 1.388 . S
C887 H874 0.930 . S
C887 C886 1.388 . S
C887 C888 1.390 . S
C888 C887 1.390 . S
C888 C889 1.394 . S
C888 C894 1.465 . S
C889 C884 1.399 . S
C889 C888 1.394 . S
C889 C890 1.516 . S
C890 C889 1.516 . S
C890 C891 1.502 . S
C890 C892 1.561 . S
C890 C893 1.526 . S
C891 H875 0.959 . S
C891 H876 0.959 . S
C891 H877 0.961 . S
C891 C890 1.502 . S
C892 H878 0.960 . S
C892 H879 0.961 . S
C892 H880 0.959 . S
C892 C890 1.561 . S
C893 C890 1.526 . S
C893 C894 1.396 . S
C893 C898 1.390 . S
C894 C888 1.465 . S
C894 C893 1.396 . S
C894 C895 1.399 . S
C895 H881 0.929 . S
C895 C894 1.399 . S
C895 C896 1.385 . S
C896 H882 0.931 . S
C896 C895 1.385 . S
C896 C897 1.389 . S
C897 C896 1.389 . S
C897 C898 1.387 . S
C898 H883 0.930 . S
C898 C893 1.390 . S
C898 C897 1.387 . S
H899 C911 0.930 . S
H900 C913 0.930 . S
H901 C914 0.930 . S
H902 C918 0.959 . S
H903 C918 0.959 . S
H904 C918 0.961 . S
H905 C919 0.960 . S
H906 C919 0.961 . S
H907 C919 0.959 . S
H908 C922 0.929 . S
H909 C923 0.931 . S
H910 C925 0.930 . S
C911 H899 0.930 . S
C911 C912 1.399 . S
C911 C916 1.399 . S
C912 C911 1.399 . S
C912 C913 1.376 . S
C913 H900 0.930 . S
C913 C912 1.376 . S
C913 C914 1.388 . S
C914 H901 0.930 . S
C914 C913 1.388 . S
C914 C915 1.390 . S
C915 C914 1.390 . S
C915 C916 1.394 . S
C915 C921 1.465 . S
C916 C911 1.399 . S
C916 C915 1.394 . S
C916 C917 1.516 . S
C917 C916 1.516 . S
C917 C918 1.502 . S
C917 C919 1.561 . S
C917 C920 1.526 . S
C918 H902 0.959 . S
C918 H903 0.959 . S
C918 H904 0.961 . S
C918 C917 1.502 . S
C919 H905 0.960 . S
C919 H906 0.961 . S
C919 H907 0.959 . S
C919 C917 1.561 . S
C920 C917 1.526 . S
C920 C921 1.396 . S
C920 C925 1.390 . S
C921 C915 1.465 . S
C921 C920 1.396 . S
C921 C922 1.399 . S
C922 H908 0.929 . S
C922 C921 1.399 . S
C922 C923 1.385 . S
C923 H909 0.931 . S
C923 C922 1.385 . S
C923 C924 1.389 . S
C924 C923 1.389 . S
C924 C925 1.387 . S
C925 H910 0.930 . S
C925 C920 1.390 . S
C925 C924 1.387 . S
H926 C938 0.930 . S
H927 C940 0.930 . S
H928 C941 0.930 . S
H929 C945 0.959 . S
H930 C945 0.959 . S
H931 C945 0.961 . S
H932 C946 0.960 . S
H933 C946 0.961 . S
H934 C946 0.959 . S
H935 C949 0.929 . S
H936 C950 0.931 . S
H937 C952 0.930 . S
C938 H926 0.930 . S
C938 C939 1.399 . S
C938 C943 1.399 . S
C939 C938 1.399 . S
C939 C940 1.376 . S
C940 H927 0.930 . S
C940 C939 1.376 . S
C940 C941 1.388 . S
C941 H928 0.930 . S
C941 C940 1.388 . S
C941 C942 1.390 . S
C942 C941 1.390 . S
C942 C943 1.394 . S
C942 C948 1.465 . S
C943 C938 1.399 . S
C943 C942 1.394 . S
C943 C944 1.516 . S
C944 C943 1.516 . S
C944 C945 1.502 . S
C944 C946 1.561 . S
C944 C947 1.526 . S
C945 H929 0.959 . S
C945 H930 0.959 . S
C945 H931 0.961 . S
C945 C944 1.502 . S
C946 H932 0.960 . S
C946 H933 0.961 . S
C946 H934 0.959 . S
C946 C944 1.561 . S
C947 C944 1.526 . S
C947 C948 1.396 . S
C947 C952 1.390 . S
C948 C942 1.465 . S
C948 C947 1.396 . S
C948 C949 1.399 . S
C949 H935 0.929 . S
C949 C948 1.399 . S
C949 C950 1.385 . S
C950 H936 0.931 . S
C950 C949 1.385 . S
C950 C951 1.389 . S
C951 C950 1.389 . S
C951 C952 1.387 . S
C952 H937 0.930 . S
C952 C947 1.390 . S
C952 C951 1.387 . S
H953 C965 0.930 . S
H954 C967 0.930 . S
H955 C968 0.930 . S
H956 C972 0.959 . S
H957 C972 0.959 . S
H958 C972 0.961 . S
H959 C973 0.960 . S
H960 C973 0.961 . S
H961 C973 0.959 . S
H962 C976 0.929 . S
H963 C977 0.931 . S
H964 C979 0.930 . S
C965 H953 0.930 . S
C965 C966 1.399 . S
C965 C970 1.399 . S
C966 C965 1.399 . S
C966 C967 1.376 . S
C967 H954 0.930 . S
C967 C966 1.376 . S
C967 C968 1.388 . S
C968 H955 0.930 . S
C968 C967 1.388 . S
C968 C969 1.390 . S
C969 C968 1.390 . S
C969 C970 1.394 . S
C969 C975 1.465 . S
C970 C965 1.399 . S
C970 C969 1.394 . S
C970 C971 1.516 . S
C971 C970 1.516 . S
C971 C972 1.502 . S
C971 C973 1.561 . S
C971 C974 1.526 . S
C972 H956 0.959 . S
C972 H957 0.959 . S
C972 H958 0.961 . S
C972 C971 1.502 . S
C973 H959 0.960 . S
C973 H960 0.961 . S
C973 H961 0.959 . S
C973 C971 1.561 . S
C974 C971 1.526 . S
C974 C975 1.396 . S
C974 C979 1.390 . S
C975 C969 1.465 . S
C975 C974 1.396 . S
C975 C976 1.399 . S
C976 H962 0.929 . S
C976 C975 1.399 . S
C976 C977 1.385 . S
C977 H963 0.931 . S
C977 C976 1.385 . S
C977 C978 1.389 . S
C978 C977 1.389 . S
C978 C979 1.387 . S
C979 H964 0.930 . S
C979 C974 1.390 . S
C979 C978 1.387 . S
H980 C992 0.930 . S
H981 C994 0.930 . S
H982 C995 0.930 . S
H983 C999 0.959 . S
H984 C999 0.959 . S
H985 C999 0.961 . S
H986 C1000 0.960 . S
H987 C1000 0.961 . S
H988 C1000 0.959 . S
H989 C1003 0.929 . S
H990 C1004 0.931 . S
H991 C1006 0.930 . S
C992 H980 0.930 . S
C992 C993 1.399 . S
C992 C997 1.399 . S
C993 C992 1.399 . S
C993 C994 1.376 . S
C994 H981 0.930 . S
C994 C993 1.376 . S
C994 C995 1.388 . S
C995 H982 0.930 . S
C995 C994 1.388 . S
C995 C996 1.390 . S
C996 C995 1.390 . S
C996 C997 1.394 . S
C996 C1002 1.465 . S
C997 C992 1.399 . S
C997 C996 1.394 . S
C997 C998 1.516 . S
C998 C997 1.516 . S
C998 C999 1.502 . S
C998 C1000 1.561 . S
C998 C1001 1.526 . S
C999 H983 0.959 . S
C999 H984 0.959 . S
C999 H985 0.961 . S
C999 C998 1.502 . S
C1000 H986 0.960 . S
C1000 H987 0.961 . S
C1000 H988 0.959 . S
C1000 C998 1.561 . S
C1001 C998 1.526 . S
C1001 C1002 1.396 . S
C1001 C1006 1.390 . S
C1002 C996 1.465 . S
C1002 C1001 1.396 . S
C1002 C1003 1.399 . S
C1003 H989 0.929 . S
C1003 C1002 1.399 . S
C1003 C1004 1.385 . S
C1004 H990 0.931 . S
C1004 C1003 1.385 . S
C1004 C1005 1.389 . S
C1005 C1004 1.389 . S
C1005 C1006 1.387 . S
C1006 H991 0.930 . S
C1006 C1001 1.390 . S
C1006 C1005 1.387 . S
H1007 C1019 0.930 . S
H1008 C1021 0.930 . S
H1009 C1022 0.930 . S
H1010 C1026 0.959 . S
H1011 C1026 0.959 . S
H1012 C1026 0.961 . S
H1013 C1027 0.960 . S
H1014 C1027 0.961 . S
H1015 C1027 0.959 . S
H1016 C1030 0.929 . S
H1017 C1031 0.931 . S
H1018 C1033 0.930 . S
C1019 H1007 0.930 . S
C1019 C1020 1.399 . S
C1019 C1024 1.399 . S
C1020 C1019 1.399 . S
C1020 C1021 1.376 . S
C1021 H1008 0.930 . S
C1021 C1020 1.376 . S
C1021 C1022 1.388 . S
C1022 H1009 0.930 . S
C1022 C1021 1.388 . S
C1022 C1023 1.390 . S
C1023 C1022 1.390 . S
C1023 C1024 1.394 . S
C1023 C1029 1.465 . S
C1024 C1019 1.399 . S
C1024 C1023 1.394 . S
C1024 C1025 1.516 . S
C1025 C1024 1.516 . S
C1025 C1026 1.502 . S
C1025 C1027 1.561 . S
C1025 C1028 1.526 . S
C1026 H1010 0.959 . S
C1026 H1011 0.959 . S
C1026 H1012 0.961 . S
C1026 C1025 1.502 . S
C1027 H1013 0.960 . S
C1027 H1014 0.961 . S
C1027 H1015 0.959 . S
C1027 C1025 1.561 . S
C1028 C1025 1.526 . S
C1028 C1029 1.396 . S
C1028 C1033 1.390 . S
C1029 C1023 1.465 . S
C1029 C1028 1.396 . S
C1029 C1030 1.399 . S
C1030 H1016 0.929 . S
C1030 C1029 1.399 . S
C1030 C1031 1.385 . S
C1031 H1017 0.931 . S
C1031 C1030 1.385 . S
C1031 C1032 1.389 . S
C1032 C1031 1.389 . S
C1032 C1033 1.387 . S
C1033 H1018 0.930 . S
C1033 C1028 1.390 . S
C1033 C1032 1.387 . S
H1034 C1046 0.930 . S
H1035 C1048 0.930 . S
H1036 C1049 0.930 . S
H1037 C1053 0.959 . S
H1038 C1053 0.959 . S
H1039 C1053 0.961 . S
H1040 C1054 0.960 . S
H1041 C1054 0.961 . S
H1042 C1054 0.959 . S
H1043 C1057 0.929 . S
H1044 C1058 0.931 . S
H1045 C1060 0.930 . S
C1046 H1034 0.930 . S
C1046 C1047 1.399 . S
C1046 C1051 1.399 . S
C1047 C1046 1.399 . S
C1047 C1048 1.376 . S
C1048 H1035 0.930 . S
C1048 C1047 1.376 . S
C1048 C1049 1.388 . S
C1049 H1036 0.930 . S
C1049 C1048 1.388 . S
C1049 C1050 1.390 . S
C1050 C1049 1.390 . S
C1050 C1051 1.394 . S
C1050 C1056 1.465 . S
C1051 C1046 1.399 . S
C1051 C1050 1.394 . S
C1051 C1052 1.516 . S
C1052 C1051 1.516 . S
C1052 C1053 1.502 . S
C1052 C1054 1.561 . S
C1052 C1055 1.526 . S
C1053 H1037 0.959 . S
C1053 H1038 0.959 . S
C1053 H1039 0.961 . S
C1053 C1052 1.502 . S
C1054 H1040 0.960 . S
C1054 H1041 0.961 . S
C1054 H1042 0.959 . S
C1054 C1052 1.561 . S
C1055 C1052 1.526 . S
C1055 C1056 1.396 . S
C1055 C1060 1.390 . S
C1056 C1050 1.465 . S
C1056 C1055 1.396 . S
C1056 C1057 1.399 . S
C1057 H1043 0.929 . S
C1057 C1056 1.399 . S
C1057 C1058 1.385 . S
C1058 H1044 0.931 . S
C1058 C1057 1.385 . S
C1058 C1059 1.389 . S
C1059 C1058 1.389 . S
C1059 C1060 1.387 . S
C1060 H1045 0.930 . S
C1060 C1055 1.390 . S
C1060 C1059 1.387 . S
H1061 C1073 0.930 . S
H1062 C1075 0.930 . S
H1063 C1076 0.930 . S
H1064 C1080 0.959 . S
H1065 C1080 0.959 . S
H1066 C1080 0.961 . S
H1067 C1081 0.960 . S
H1068 C1081 0.961 . S
H1069 C1081 0.959 . S
H1070 C1084 0.929 . S
H1071 C1085 0.931 . S
H1072 C1087 0.930 . S
C1073 H1061 0.930 . S
C1073 C1074 1.399 . S
C1073 C1078 1.399 . S
C1074 C1073 1.399 . S
C1074 C1075 1.376 . S
C1075 H1062 0.930 . S
C1075 C1074 1.376 . S
C1075 C1076 1.388 . S
C1076 H1063 0.930 . S
C1076 C1075 1.388 . S
C1076 C1077 1.390 . S
C1077 C1076 1.390 . S
C1077 C1078 1.394 . S
C1077 C1083 1.465 . S
C1078 C1073 1.399 . S
C1078 C1077 1.394 . S
C1078 C1079 1.516 . S
C1079 C1078 1.516 . S
C1079 C1080 1.502 . S
C1079 C1081 1.561 . S
C1079 C1082 1.526 . S
C1080 H1064 0.959 . S
C1080 H1065 0.959 . S
C1080 H1066 0.961 . S
C1080 C1079 1.502 . S
C1081 H1067 0.960 . S
C1081 H1068 0.961 . S
C1081 H1069 0.959 . S
C1081 C1079 1.561 . S
C1082 C1079 1.526 . S
C1082 C1083 1.396 . S
C1082 C1087 1.390 . S
C1083 C1077 1.465 . S
C1083 C1082 1.396 . S
C1083 C1084 1.399 . S
C1084 H1070 0.929 . S
C1084 C1083 1.399 . S
C1084 C1085 1.385 . S
C1085 H1071 0.931 . S
C1085 C1084 1.385 . S
C1085 C1086 1.389 . S
C1086 C1085 1.389 . S
C1086 C1087 1.387 . S
C1087 H1072 0.930 . S
C1087 C1082 1.390 . S
C1087 C1086 1.387 . S
C249 C113 1.561 . S
C237 C0 1.551 . S
C276 C139 1.543 . S
C264 C26 1.544 . S
C303 C153 1.563 . S
C291 C40 1.551 . S
C330 C155 1.545 . S
C318 C43 1.548 . S
C345 C57 1.549 . S
C357 C152 1.561 . S
C384 C154 1.546 . S
C372 C70 1.543 . S
C411 C112 1.529 . S
C399 C97 1.563 . S
C438 C138 1.542 . S
C426 C111 1.548 . S
C465 C140 1.561 . S
C453 C98 1.545 . S
C492 C166 1.539 . S
C480 C68 1.562 . S
C519 C124 1.538 . S
C507 C83 1.559 . S
C546 C126 1.559 . S
C534 C84 1.547 . S
C573 C125 1.533 . S
C561 C15 1.560 . S
C600 C127 1.554 . S
C588 C29 1.555 . S
C627 C141 1.530 . S
C615 C54 1.562 . S
C654 C167 1.551 . S
C642 C13 1.545 . S
C681 C169 1.526 . S
C669 C99 1.561 . S
C696 C69 1.552 . S
C708 C195 1.562 . S
C723 C82 1.557 . S
C735 C208 1.531 . S
C750 C85 1.563 . S
C762 C211 1.542 . S
C777 C14 1.558 . S
C789 C209 1.525 . S
C804 C28 1.563 . S
C816 C210 1.542 . S
C831 C55 1.550 . S
C843 C168 1.561 . S
C870 C194 1.552 . S
C858 C12 1.542 . S
C897 C197 1.559 . S
C885 C1 1.542 . S
C912 C27 1.547 . S
C924 C222 1.548 . S
C939 C41 1.545 . S
C951 C180 1.555 . S
C966 C42 1.560 . S
C978 C182 1.528 . S
C1005 C181 1.535 . S
C993 C56 1.564 . S
C1032 C183 1.561 . S
C1020 C71 1.550 . S
C1047 C96 1.564 . S
C1059 C196 1.531 . S
C1086 C223 1.533 . S
C1074 C110 1.560 . S
