# Generated by pormake.
# Topology apo, (3,6)-cn, num edge types: 1
# Building blocks:
#     Node 0, Type 0, BuildingBlock: WUSLED_clean_sbu_0, # of connection points: 3
#     Node 1, Type 0, BuildingBlock: WUSLED_clean_sbu_0, # of connection points: 3
#     Node 2, Type 0, BuildingBlock: WUSLED_clean_sbu_0, # of connection points: 3
#     Node 3, Type 0, BuildingBlock: WUSLED_clean_sbu_0, # of connection points: 3
#     Node 4, Type 0, BuildingBlock: WUSLED_clean_sbu_0, # of connection points: 3
#     Node 5, Type 0, BuildingBlock: WUSLED_clean_sbu_0, # of connection points: 3
#     Node 6, Type 0, BuildingBlock: WUSLED_clean_sbu_0, # of connection points: 3
#     Node 7, Type 0, BuildingBlock: WUSLED_clean_sbu_0, # of connection points: 3
#     Node 8, Type 1, BuildingBlock: MIDCAF_clean_sbu_0, # of connection points: 6
#     Node 9, Type 1, BuildingBlock: MIDCAF_clean_sbu_0, # of connection points: 6
#     Node 10, Type 1, BuildingBlock: MIDCAF_clean_sbu_0, # of connection points: 6
#     Node 11, Type 1, BuildingBlock: MIDCAF_clean_sbu_0, # of connection points: 6
#     Edge 12, Type (0, 1), BuildingBlock: AJUNOK_clean_linker_0, # of connection points: 2
#     Edge 13, Type (0, 1), BuildingBlock: AJUNOK_clean_linker_0, # of connection points: 2
#     Edge 14, Type (0, 1), BuildingBlock: AJUNOK_clean_linker_0, # of connection points: 2
#     Edge 15, Type (0, 1), BuildingBlock: AJUNOK_clean_linker_0, # of connection points: 2
#     Edge 16, Type (0, 1), BuildingBlock: AJUNOK_clean_linker_0, # of connection points: 2
#     Edge 17, Type (0, 1), BuildingBlock: AJUNOK_clean_linker_0, # of connection points: 2
#     Edge 18, Type (0, 1), BuildingBlock: AJUNOK_clean_linker_0, # of connection points: 2
#     Edge 19, Type (0, 1), BuildingBlock: AJUNOK_clean_linker_0, # of connection points: 2
#     Edge 20, Type (0, 1), BuildingBlock: AJUNOK_clean_linker_0, # of connection points: 2
#     Edge 21, Type (0, 1), BuildingBlock: AJUNOK_clean_linker_0, # of connection points: 2
#     Edge 22, Type (0, 1), BuildingBlock: AJUNOK_clean_linker_0, # of connection points: 2
#     Edge 23, Type (0, 1), BuildingBlock: AJUNOK_clean_linker_0, # of connection points: 2
#     Edge 24, Type (0, 1), BuildingBlock: AJUNOK_clean_linker_0, # of connection points: 2
#     Edge 25, Type (0, 1), BuildingBlock: AJUNOK_clean_linker_0, # of connection points: 2
#     Edge 26, Type (0, 1), BuildingBlock: AJUNOK_clean_linker_0, # of connection points: 2
#     Edge 27, Type (0, 1), BuildingBlock: AJUNOK_clean_linker_0, # of connection points: 2
#     Edge 28, Type (0, 1), BuildingBlock: AJUNOK_clean_linker_0, # of connection points: 2
#     Edge 29, Type (0, 1), BuildingBlock: AJUNOK_clean_linker_0, # of connection points: 2
#     Edge 30, Type (0, 1), BuildingBlock: AJUNOK_clean_linker_0, # of connection points: 2
#     Edge 31, Type (0, 1), BuildingBlock: AJUNOK_clean_linker_0, # of connection points: 2
#     Edge 32, Type (0, 1), BuildingBlock: AJUNOK_clean_linker_0, # of connection points: 2
#     Edge 33, Type (0, 1), BuildingBlock: AJUNOK_clean_linker_0, # of connection points: 2
#     Edge 34, Type (0, 1), BuildingBlock: AJUNOK_clean_linker_0, # of connection points: 2
#     Edge 35, Type (0, 1), BuildingBlock: AJUNOK_clean_linker_0, # of connection points: 2
# Relax obj value: 0.081
# Max RMSD: 0.098
# Mean RMSD: 0.087
data_MOF--net-apo--node1-WUSLED_clean_sbu_0--node2-MIDCAF_clean_sbu_0--edge1-AJUNOK_clean_linker_0
_symmetry_space_group_name_H-M    P1
_symmetry_Int_Tables_number       1
_symmetry_cell_setting            triclinic
loop_
_symmetry_equiv_pos_as_xyz
'x, y, z'
_cell_length_a     35.724577
_cell_length_b     42.905754
_cell_length_c     36.402079
_cell_angle_alpha  89.925819
_cell_angle_beta   90.274925
_cell_angle_gamma 90.179008
loop_
_atom_site_label
_atom_site_type_symbol
_atom_site_fract_x
_atom_site_fract_y
_atom_site_fract_z
_atom_type_partial_charge
C0 C 0.37998 0.40657 0.35493 0.0
C1 C 0.38101 0.43111 0.38038 0.0
C2 C 0.42459 0.45984 0.34162 0.0
C3 C 0.40291 0.4575 0.37369 0.0
C4 C 0.42435 0.43483 0.31668 0.0
C5 C 0.40207 0.40848 0.32323 0.0
U6 U 0.33718 0.34569 0.41862 0.0
O7 O 0.28001 0.32731 0.42237 0.0
O8 O 0.32619 0.29564 0.409 0.0
C9 C 0.28975 0.29929 0.41148 0.0
C10 C 0.35593 0.37905 0.36105 0.0
C11 C 0.26672 0.28564 0.38172 0.0
C12 C 0.22013 0.29129 0.33313 0.0
C13 C 0.24644 0.30455 0.35713 0.0
C14 C 0.23617 0.23994 0.35581 0.0
C15 C 0.214 0.25892 0.33295 0.0
C16 C 0.26222 0.25321 0.38001 0.0
C17 C 0.36613 0.35154 0.52196 0.0
C18 C 0.37699 0.31324 0.57025 0.0
C19 C 0.37482 0.36814 0.58529 0.0
C20 C 0.36745 0.37519 0.54848 0.0
C21 C 0.38094 0.33716 0.59648 0.0
C22 C 0.36964 0.32035 0.53329 0.0
C23 C 0.366 0.36063 0.48279 0.0
O24 O 0.37346 0.35338 0.37058 0.0
O25 O 0.32531 0.38389 0.38011 0.0
O26 O 0.33514 0.37317 0.46978 0.0
O27 O 0.38222 0.34151 0.4596 0.0
H28 H 0.36453 0.43009 0.40527 0.0
H29 H 0.40224 0.47642 0.39335 0.0
H30 H 0.44135 0.4356 0.29214 0.0
H31 H 0.40197 0.38963 0.30344 0.0
H32 H 0.20328 0.30645 0.31596 0.0
H33 H 0.2496 0.32966 0.35764 0.0
H34 H 0.23153 0.21499 0.35687 0.0
H35 H 0.27751 0.23821 0.39872 0.0
H36 H 0.38159 0.28916 0.57798 0.0
H37 H 0.37861 0.38725 0.60435 0.0
H38 H 0.36505 0.39941 0.54034 0.0
H39 H 0.36862 0.30163 0.51338 0.0
C40 C 0.18987 0.20122 1.02276 0.0
C41 C 0.16782 0.17468 1.02916 0.0
C42 C 0.15918 0.18996 0.093 0.0
C43 C 0.15263 0.16913 0.06383 0.0
C44 C 0.18095 0.21677 0.08647 0.0
C45 C 0.19636 0.22228 0.05161 0.0
U46 U 0.19255 0.17757 0.92361 0.0
O47 O 0.19409 0.20386 0.87171 0.0
O48 O 0.23898 0.17085 0.88482 0.0
C49 C 0.22662 0.19229 0.86201 0.0
C50 C 0.20541 0.20673 0.98582 0.0
C51 C 0.25467 0.215 0.8491 0.0
C52 C 0.29124 0.26226 0.8576 0.0
C53 C 0.26465 0.24091 0.87045 0.0
C54 C 0.29848 0.23196 0.80201 0.0
C55 C 0.30829 0.25816 0.82312 0.0
C56 C 0.27177 0.21064 0.81485 0.0
C57 C 0.1268 0.10772 0.90177 0.0
C58 C 0.12702 0.07486 0.84741 0.0
C59 C 0.08161 0.06573 0.89549 0.0
C60 C 0.09627 0.0908 0.9153 0.0
C61 C 0.09702 0.0572 0.86149 0.0
C62 C 0.14181 0.1 0.86741 0.0
C63 C 0.14381 0.13162 0.92548 0.0
O64 O 0.2268 0.18424 0.97341 0.0
O65 O 0.18118 0.21665 0.96118 0.0
O66 O 0.17959 0.12813 0.93291 0.0
O67 O 0.1344 0.16066 0.91882 0.0
H68 H 0.16212 0.15831 1.00717 0.0
H69 H 0.13506 0.14877 0.06762 0.0
H70 H 0.18613 0.23336 0.10834 0.0
H71 H 0.21316 0.24299 0.04713 0.0
H72 H 0.29898 0.28173 0.875 0.0
H73 H 0.25202 0.24452 0.89711 0.0
H74 H 0.31133 0.22808 0.77552 0.0
H75 H 0.26448 0.19069 0.79803 0.0
H76 H 0.13961 0.06871 0.82141 0.0
H77 H 0.05936 0.0521 0.90775 0.0
H78 H 0.08457 0.09628 0.94193 0.0
H79 H 0.16551 0.11282 0.85661 0.0
C80 C 0.86905 0.10711 0.72167 0.0
C81 C 0.88155 0.08869 0.6924 0.0
C82 C 0.9131 0.05389 0.73532 0.0
C83 C 0.90335 0.06229 0.69918 0.0
C84 C 0.90146 0.07298 0.76449 0.0
C85 C 0.87949 0.09935 0.75769 0.0
U86 U 0.82649 0.16454 0.65464 0.0
O87 O 0.76962 0.18353 0.65025 0.0
O88 O 0.81728 0.21517 0.6592 0.0
C89 C 0.78068 0.21214 0.65757 0.0
C90 C 0.84494 0.13421 0.71467 0.0
C91 C 0.75927 0.2289 0.68589 0.0
C92 C 0.72133 0.22983 0.74138 0.0
C93 C 0.744 0.21357 0.71657 0.0
C94 C 0.73013 0.27699 0.7058 0.0
C95 C 0.71398 0.26173 0.73612 0.0
C96 C 0.75257 0.26077 0.68107 0.0
C97 C 0.85736 0.15231 0.55272 0.0
C98 C 0.86068 0.18853 0.50126 0.0
C99 C 0.87581 0.13411 0.49236 0.0
C100 C 0.86775 0.1281 0.52917 0.0
C101 C 0.87361 0.16456 0.47814 0.0
C102 C 0.85281 0.18249 0.53837 0.0
C103 C 0.85566 0.14563 0.59241 0.0
O104 O 0.86246 0.15946 0.70357 0.0
O105 O 0.81436 0.12829 0.69565 0.0
O106 O 0.82394 0.13468 0.60533 0.0
O107 O 0.87201 0.16588 0.61435 0.0
H108 H 0.87396 0.09448 0.66436 0.0
H109 H 0.91173 0.04796 0.67617 0.0
H110 H 0.90916 0.06742 0.79255 0.0
H111 H 0.87038 0.11353 0.78056 0.0
H112 H 0.70903 0.21741 0.76428 0.0
H113 H 0.7489 0.18893 0.72089 0.0
H114 H 0.72413 0.30128 0.70021 0.0
H115 H 0.76388 0.27299 0.65751 0.0
H116 H 0.85794 0.21213 0.49103 0.0
H117 H 0.886 0.11512 0.47562 0.0
H118 H 0.8715 0.10467 0.53972 0.0
H119 H 0.8446 0.20151 0.5561 0.0
C120 C 0.68024 0.30739 0.05775 0.0
C121 C 0.64246 0.31573 0.05427 0.0
C122 C 0.64546 0.30895 0.98791 0.0
C123 C 0.62523 0.31633 1.01978 0.0
C124 C 0.68347 0.30104 0.99127 0.0
C125 C 0.70071 0.30016 1.02602 0.0
U126 U 0.68447 0.33643 0.1559 0.0
O127 O 0.69401 0.31183 0.20822 0.0
O128 O 0.73203 0.34939 0.19142 0.0
C129 C 0.72538 0.32686 0.21507 0.0
C130 C 0.69832 0.30685 0.0943 0.0
C131 C 0.75768 0.30709 0.22439 0.0
C132 C 0.80806 0.27282 0.20583 0.0
C133 C 0.77709 0.29118 0.19684 0.0
C134 C 0.8003 0.28555 0.27016 0.0
C135 C 0.82011 0.26987 0.24255 0.0
C136 C 0.76932 0.30405 0.26111 0.0
C137 C 0.61019 0.39934 0.18006 0.0
C138 C 0.61319 0.44525 0.21918 0.0
C139 C 0.554 0.42935 0.19235 0.0
C140 C 0.57151 0.4038 0.17603 0.0
C141 C 0.57488 0.45097 0.21304 0.0
C142 C 0.6307 0.41962 0.20287 0.0
C143 C 0.62884 0.37635 0.15625 0.0
O144 O 0.7155 0.33274 0.10384 0.0
O145 O 0.67798 0.29498 0.12093 0.0
O146 O 0.62454 0.34672 0.16449 0.0
O147 O 0.66291 0.38341 0.14553 0.0
H148 H 0.62622 0.32183 0.07826 0.0
H149 H 0.59603 0.32294 1.01795 0.0
H150 H 0.69966 0.29522 0.96716 0.0
H151 H 0.72998 0.29386 1.02813 0.0
H152 H 0.82262 0.2608 0.18401 0.0
H153 H 0.76837 0.29309 0.16837 0.0
H154 H 0.8092 0.28399 0.29859 0.0
H155 H 0.7546 0.31618 0.28273 0.0
H156 H 0.63019 0.46175 0.23441 0.0
H157 H 0.52447 0.43314 0.18719 0.0
H158 H 0.55516 0.38848 0.15852 0.0
H159 H 0.66061 0.4167 0.20639 0.0
C160 C 0.65115 0.61046 0.72524 0.0
C161 C 0.61434 0.60828 0.7116 0.0
C162 C 0.60573 0.5585 0.74292 0.0
C163 C 0.59185 0.58259 0.72045 0.0
C164 C 0.64244 0.56101 0.75682 0.0
C165 C 0.66477 0.5868 0.74825 0.0
U166 U 0.69493 0.66567 0.65446 0.0
O167 O 0.70741 0.71592 0.65837 0.0
O168 O 0.75285 0.68241 0.64953 0.0
C169 C 0.74373 0.71149 0.65638 0.0
C170 C 0.67616 0.6366 0.71522 0.0
C171 C 0.7668 0.72781 0.68404 0.0
C172 C 0.80521 0.72824 0.73957 0.0
C173 C 0.78075 0.71262 0.7155 0.0
C174 C 0.80069 0.77457 0.70175 0.0
C175 C 0.81594 0.75926 0.73256 0.0
C176 C 0.77644 0.759 0.67779 0.0
C177 C 0.66412 0.65549 0.55251 0.0
C178 C 0.66556 0.6929 0.5021 0.0
C179 C 0.64753 0.63934 0.4906 0.0
C180 C 0.65333 0.63224 0.52764 0.0
C181 C 0.65237 0.66996 0.47751 0.0
C182 C 0.67127 0.68574 0.53938 0.0
C183 C 0.66434 0.64788 0.59206 0.0
O184 O 0.7056 0.62905 0.69566 0.0
O185 O 0.65996 0.66239 0.70389 0.0
O186 O 0.64913 0.66848 0.6141 0.0
O187 O 0.69511 0.63547 0.60543 0.0
H188 H 0.60311 0.62613 0.69365 0.0
H189 H 0.56376 0.58128 0.70919 0.0
H190 H 0.65451 0.54248 0.7732 0.0
H191 H 0.69312 0.58792 0.75892 0.0
H192 H 0.81617 0.71594 0.76327 0.0
H193 H 0.77339 0.68856 0.72101 0.0
H194 H 0.80871 0.79831 0.69528 0.0
H195 H 0.76599 0.77113 0.65371 0.0
H196 H 0.67017 0.71658 0.49281 0.0
H197 H 0.63703 0.62116 0.47266 0.0
H198 H 0.64768 0.60876 0.53719 0.0
H199 H 0.67993 0.70402 0.55811 0.0
C200 C 0.84853 0.81153 0.05444 0.0
C201 C 0.881 0.82975 0.05138 0.0
C202 C 0.87929 0.82475 0.98474 0.0
C203 C 0.89625 0.83618 1.01701 0.0
C204 C 0.84705 0.80602 0.98778 0.0
C205 C 0.83172 0.79951 1.02247 0.0
U206 U 0.84414 0.83608 0.15308 0.0
O207 O 0.797 0.84433 0.1905 0.0
O208 O 0.84012 0.81019 0.20518 0.0
C209 C 0.80762 0.82248 0.21364 0.0
C210 C 0.83158 0.80681 0.0909 0.0
C211 C 0.77839 0.80011 0.22457 0.0
C212 C 0.73306 0.75998 0.20898 0.0
C213 C 0.76044 0.78144 0.19827 0.0
C214 C 0.74111 0.77557 0.27248 0.0
C215 C 0.72311 0.75671 0.2462 0.0
C216 C 0.76854 0.79711 0.2617 0.0
C217 C 0.91132 0.9047 0.17592 0.0
C218 C 0.90893 0.93849 0.22938 0.0
C219 C 0.95506 0.9478 0.18201 0.0
C220 C 0.94178 0.92192 0.16268 0.0
C221 C 0.93803 0.957 0.21497 0.0
C222 C 0.89553 0.91257 0.20988 0.0
C223 C 0.89465 0.88075 0.15204 0.0
O224 O 0.85448 0.79627 0.11641 0.0
O225 O 0.81102 0.83018 0.10235 0.0
O226 O 0.85931 0.88497 0.14323 0.0
O227 O 0.90275 0.85158 0.15962 0.0
H228 H 0.89432 0.83941 0.07566 0.0
H229 H 0.92134 0.85039 1.01563 0.0
H230 H 0.83319 0.79715 0.96341 0.0
H231 H 0.80644 0.78559 1.02429 0.0
H232 H 0.71944 0.74599 0.18803 0.0
H233 H 0.76767 0.78343 0.16949 0.0
H234 H 0.73445 0.77331 0.30135 0.0
H235 H 0.78227 0.8113 0.28239 0.0
H236 H 0.8957 0.94471 0.25504 0.0
H237 H 0.9773 0.96165 0.17005 0.0
H238 H 0.95426 0.91617 0.13648 0.0
H239 H 0.87205 0.89941 0.22057 0.0
C240 C 0.15737 0.90803 0.34702 0.0
C241 C 0.12973 0.91809 0.37158 0.0
C242 C 0.11676 0.96304 0.33261 0.0
C243 C 0.10952 0.94537 0.36439 0.0
C244 C 0.14399 0.9525 0.30782 0.0
C245 C 0.16403 0.9252 0.31493 0.0
U246 U 0.19302 0.84537 0.41296 0.0
O247 O 0.20281 0.79533 0.40324 0.0
O248 O 0.24934 0.82581 0.42008 0.0
C249 C 0.23908 0.79797 0.40869 0.0
C250 C 0.18036 0.88042 0.35503 0.0
C251 C 0.26337 0.78311 0.38111 0.0
C252 C 0.30898 0.78595 0.33163 0.0
C253 C 0.28323 0.80058 0.35488 0.0
C254 C 0.29408 0.7362 0.35953 0.0
C255 C 0.31502 0.7536 0.33401 0.0
C256 C 0.26851 0.7508 0.38271 0.0
C257 C 0.15426 0.84683 0.51311 0.0
C258 C 0.17576 0.84362 0.57681 0.0
C259 C 0.11191 0.82982 0.56132 0.0
C260 C 0.11901 0.83608 0.52436 0.0
C261 C 0.13983 0.83428 0.5882 0.0
C262 C 0.1829 0.84994 0.53962 0.0
C263 C 0.1586 0.85811 0.4748 0.0
O264 O 0.20851 0.88508 0.37775 0.0
O265 O 0.16179 0.85459 0.36188 0.0
O266 O 0.14389 0.84063 0.4488 0.0
O267 O 0.19085 0.87065 0.46553 0.0
H268 H 0.12438 0.9052 0.39664 0.0
H269 H 0.08928 0.95328 0.38435 0.0
H270 H 0.15019 0.96571 0.28319 0.0
H271 H 0.18527 0.91779 0.2957 0.0
H272 H 0.32485 0.79999 0.31244 0.0
H273 H 0.27963 0.8256 0.35306 0.0
H274 H 0.2988 0.71145 0.36297 0.0
H275 H 0.25367 0.73692 0.40286 0.0
H276 H 0.19802 0.84689 0.59674 0.0
H277 H 0.08377 0.8231 0.56906 0.0
H278 H 0.09626 0.83382 0.50473 0.0
H279 H 0.2104 0.85827 0.5319 0.0
C280 C 0.34959 0.71323 1.01966 0.0
C281 C 0.32812 0.71566 0.0518 0.0
C282 C 0.38411 0.70951 0.08964 0.0
C283 C 0.34521 0.71371 0.08654 0.0
C284 C 0.40549 0.70742 0.05741 0.0
C285 C 0.38846 0.70907 1.02286 0.0
U286 U 0.34004 0.67941 0.92402 0.0
O287 O 0.29068 0.66783 0.89037 0.0
O288 O 0.33212 0.70125 0.86969 0.0
C289 C 0.29921 0.6881 0.86459 0.0
C290 C 0.33122 0.71358 0.98311 0.0
C291 C 0.26874 0.70923 0.85358 0.0
C292 C 0.21974 0.74575 0.86956 0.0
C293 C 0.24999 0.72707 0.8799 0.0
C294 C 0.22724 0.72983 0.80619 0.0
C295 C 0.20778 0.74709 0.83268 0.0
C296 C 0.25748 0.71097 0.81662 0.0
C297 C 0.40463 0.6074 0.90686 0.0
C298 C 0.44805 0.58452 0.86288 0.0
C299 C 0.41365 0.55133 0.90472 0.0
C300 C 0.39612 0.57732 0.91959 0.0
C301 C 0.44034 0.55465 0.87682 0.0
C302 C 0.43046 0.6108 0.87796 0.0
C303 C 0.38967 0.63439 0.92741 0.0
O304 O 0.35236 0.72209 0.95531 0.0
O305 O 0.31026 0.68914 0.97569 0.0
O306 O 0.35513 0.63162 0.93927 0.0
O307 O 0.39782 0.66268 0.91589 0.0
H308 H 0.29807 0.71868 0.05 0.0
H309 H 0.32809 0.71548 0.11091 0.0
H310 H 0.43544 0.7037 0.05892 0.0
H311 H 0.40572 0.70665 0.99866 0.0
H312 H 0.20541 0.75901 0.8905 0.0
H313 H 0.25839 0.72617 0.90853 0.0
H314 H 0.21841 0.7302 0.77769 0.0
H315 H 0.27168 0.69732 0.79594 0.0
H316 H 0.46869 0.58763 0.84147 0.0
H317 H 0.40702 0.5285 0.91576 0.0
H318 H 0.37678 0.5739 0.94209 0.0
H319 H 0.43797 0.63371 0.86781 0.0
Zn320 Zn 0.04251 0.14719 0.34415 0.0
Zn321 Zn 0.9884 0.14218 0.22218 0.0
Zn322 Zn 1.0141 0.14516 0.28314 0.0
C323 C 0.06017 0.15937 0.21031 0.0
C324 C 0.97764 0.08406 0.24852 0.0
O325 O 0.97076 0.16517 0.32052 0.0
O326 O 0.9967 0.15123 0.37328 0.0
C327 C 0.08195 0.19004 0.30595 0.0
O328 O 0.05566 0.16627 0.24448 0.0
O329 O 0.03556 0.14362 0.19364 0.0
O330 O 0.96127 0.10191 0.22613 0.0
O331 O 1.00314 0.09512 0.27008 0.0
O332 O 0.07267 0.18534 0.33884 0.0
O333 O 0.06604 0.1744 0.27996 0.0
O334 O 0.0283 0.09642 0.29886 0.0
O335 O 0.06899 0.10647 0.34316 0.0
C336 C 0.05372 0.08718 0.32163 0.0
O337 O 0.9611 0.17282 0.28415 0.0
O338 O 0.95867 0.18091 0.22438 0.0
C339 C 0.96925 0.16229 0.35578 0.0
C340 C 0.9471 0.18726 0.25618 0.0
Zn341 Zn 0.547 0.37351 0.73206 0.0
Zn342 Zn 0.48228 0.3695 0.85738 0.0
Zn343 Zn 0.51492 0.37054 0.79496 0.0
C344 C 0.49231 0.43173 0.84294 0.0
C345 C 0.43237 0.34088 0.81082 0.0
O346 O 0.56789 0.3428 0.79888 0.0
O347 O 0.59225 0.34972 0.74366 0.0
C348 C 0.54345 0.43437 0.75393 0.0
O349 O 0.50588 0.41977 0.81335 0.0
O350 O 0.48115 0.41422 0.8685 0.0
O351 O 0.43454 0.35017 0.84357 0.0
O352 O 0.45963 0.34587 0.78836 0.0
O353 O 0.553 0.41882 0.72617 0.0
O354 O 0.52855 0.42045 0.78179 0.0
O355 O 0.47552 0.3499 0.75331 0.0
O356 O 0.50869 0.35242 0.70229 0.0
C357 C 0.47887 0.34493 0.71851 0.0
O358 O 0.55236 0.3449 0.83434 0.0
O359 O 0.51818 0.34374 0.88479 0.0
C360 C 0.59413 0.33797 0.77534 0.0
C361 C 0.54796 0.33686 0.86825 0.0
Zn362 Zn 0.04251 0.87558 0.84673 0.0
Zn363 Zn 0.98427 0.87195 0.72484 0.0
Zn364 Zn 0.0144 0.87148 0.78939 0.0
C365 C 0.98264 0.933 0.74709 0.0
C366 C 0.93893 0.83426 0.76891 0.0
O367 O 0.06744 0.8437 0.78787 0.0
O368 O 0.06855 0.83513 0.84745 0.0
C369 C 0.05414 0.93221 0.82181 0.0
O370 O 0.99995 0.92035 0.77448 0.0
O371 O 0.97216 0.91673 0.72011 0.0
O372 O 0.94287 0.84308 0.7361 0.0
O373 O 0.96221 0.84311 0.79398 0.0
O374 O 0.07352 0.91365 0.8408 0.0
O375 O 0.02601 0.92157 0.80328 0.0
O376 O 0.97475 0.85057 0.82977 0.0
O377 O 0.9959 0.87883 0.87584 0.0
C378 C 0.97105 0.86101 0.86277 0.0
O379 O 0.05636 0.85024 0.7514 0.0
O380 O 0.02732 0.85549 0.69785 0.0
C381 C 0.08056 0.82873 0.81585 0.0
C382 C 0.05567 0.84721 0.71612 0.0
Zn383 Zn 0.54638 0.64077 0.21531 0.0
Zn384 Zn 0.48854 0.64477 0.34576 0.0
Zn385 Zn 0.51774 0.64426 0.28036 0.0
C386 C 0.55956 0.67007 0.35392 0.0
C387 C 0.48789 0.5831 0.32515 0.0
O388 O 0.47934 0.66957 0.24178 0.0
O389 O 0.509 0.6659 0.18871 0.0
C390 C 0.59952 0.67136 0.25828 0.0
O391 O 0.56043 0.66458 0.31907 0.0
O392 O 0.53062 0.66379 0.37221 0.0
O393 O 0.47931 0.59964 0.35244 0.0
O394 O 0.50287 0.59574 0.29655 0.0
O395 O 0.59481 0.66056 0.22637 0.0
O396 O 0.57384 0.66771 0.28278 0.0
O397 O 0.52411 0.59412 0.26425 0.0
O398 O 0.54609 0.59534 0.20761 0.0
C399 C 0.53566 0.57988 0.23522 0.0
O400 O 0.46558 0.67317 0.27765 0.0
O401 O 0.44558 0.67174 0.33515 0.0
C402 C 0.4814 0.67532 0.20702 0.0
C403 C 0.44191 0.68121 0.30255 0.0
C404 C 0.1218 0.02018 0.32097 0.0
C405 C 0.09894 0.99396 0.3271 0.0
C406 C 0.10655 0.0501 0.31839 0.0
C407 C 0.06781 0.05494 0.32122 0.0
H408 H 0.15192 0.01769 0.31932 0.0
H409 H 0.12532 0.06972 0.31456 0.0
S410 S 0.99554 0.99429 0.33643 0.0
N411 N 0.03533 0.97476 0.33511 0.0
N412 N 1.00672 0.03135 0.33034 0.0
C413 C 0.04442 0.02903 0.32657 0.0
C414 C 0.05999 0.99844 0.32955 0.0
C415 C 0.4787 0.50807 0.89153 0.0
C416 C 0.46119 0.52666 0.86474 0.0
C417 C 0.49151 0.47818 0.88322 0.0
C418 C 0.48746 0.4657 0.84773 0.0
H419 H 0.48067 0.51607 0.91973 0.0
H420 H 0.50292 0.46409 0.90528 0.0
S421 S 0.44767 0.50638 0.76665 0.0
N422 N 0.44381 0.53186 0.80043 0.0
N423 N 0.46772 0.47524 0.78473 0.0
C424 C 0.47276 0.48492 0.81991 0.0
C425 C 0.45967 0.51557 0.82844 0.0
C426 C 0.56697 0.51464 0.71803 0.0
C427 C 0.58374 0.52931 0.74851 0.0
C428 C 0.55168 0.48465 0.72082 0.0
C429 C 0.55238 0.46809 0.75421 0.0
H430 H 0.56757 0.52562 0.69121 0.0
H431 H 0.5407 0.47377 0.69618 0.0
S432 S 0.58921 0.49732 0.84316 0.0
N433 N 0.59646 0.52632 0.81413 0.0
N434 N 0.56924 0.46928 0.81893 0.0
C435 C 0.56704 0.48311 0.78542 0.0
C436 C 0.5824 0.51385 0.78265 0.0
C437 C 0.98567 0.99695 0.23495 0.0
C438 C 0.94788 0.98778 0.23125 0.0
C439 C 0.99544 0.02792 0.24331 0.0
C440 C 0.96773 0.05068 0.2481 0.0
H441 H 1.00784 0.98037 0.22984 0.0
H442 H 0.02476 0.03443 0.24397 0.0
S443 S 0.86505 0.03858 0.24413 0.0
N444 N 0.88279 1.00395 0.23515 0.0
N445 N 0.90128 0.06182 0.25115 0.0
C446 C 0.93001 0.04151 0.24647 0.0
C447 C 0.92003 0.01011 0.23812 0.0
C448 C 0.96538 0.01691 0.72098 0.0
C449 C 0.93383 0.02445 0.74228 0.0
C450 C 0.98274 0.98771 0.72411 0.0
C451 C 0.96948 0.96533 0.74902 0.0
H452 H 0.97608 0.03339 0.70103 0.0
H453 H 1.00592 0.98224 0.70616 0.0
S454 S 0.88794 0.97293 0.8107 0.0
N455 N 0.89007 1.00668 0.78893 0.0
N456 N 0.92325 0.95213 0.79506 0.0
C457 C 0.93866 0.9727 0.77102 0.0
C458 C 0.9208 1.00225 0.76772 0.0
C459 C 0.54094 0.49922 0.19461 0.0
C460 C 0.55852 0.48178 0.22249 0.0
C461 C 0.53145 0.53049 0.19998 0.0
C462 C 0.53873 0.54553 0.23355 0.0
H463 H 0.53656 0.48926 0.16759 0.0
H464 H 0.51974 0.54339 0.17707 0.0
S465 S 0.57994 0.50928 0.31685 0.0
N466 N 0.57945 0.48096 0.28613 0.0
N467 N 0.56184 0.54005 0.2961 0.0
C468 C 0.55394 0.52789 0.26251 0.0
C469 C 0.56387 0.49595 0.25698 0.0
C470 C 0.46635 0.50318 0.36308 0.0
C471 C 0.44621 0.48891 0.3343 0.0
C472 C 0.4817 0.53304 0.35908 0.0
C473 C 0.47799 0.54966 0.32599 0.0
H474 H 0.46911 0.49162 0.38945 0.0
H475 H 0.49551 0.54365 0.38251 0.0
S476 S 0.4299 0.52236 0.24148 0.0
N477 N 0.42497 0.49329 0.27087 0.0
N478 N 0.45422 0.54939 0.2634 0.0
C479 C 0.45988 0.53509 0.29628 0.0
C480 C 0.44396 0.50468 0.30039 0.0
C481 C 0.11163 1.00544 0.83368 0.0
C482 C 0.08469 0.02775 0.84348 0.0
C483 C 0.10111 0.975 0.82415 0.0
C484 C 0.06329 0.96578 0.82364 0.0
H485 H 0.14118 0.01086 0.83576 0.0
H486 H 0.12291 0.9581 0.81884 0.0
S487 S 0.98179 0.01602 0.84377 0.0
N488 N 0.01834 0.0393 0.84874 0.0
N489 N 0.99879 0.98171 0.83199 0.0
C490 C 0.03596 0.98829 0.8311 0.0
C491 C 0.04663 0.01936 0.84077 0.0
C492 C 0.1185 0.20717 0.14538 0.0
C493 C 0.14119 0.18417 0.12924 0.0
C494 C 0.09474 0.1999 0.17495 0.0
C495 C 0.09317 0.16952 0.18932 0.0
H496 H 0.11698 0.23024 0.13338 0.0
H497 H 0.07541 0.21745 0.18461 0.0
S498 S 0.15166 0.1026 0.16152 0.0
N499 N 0.16442 0.13107 0.13363 0.0
N500 N 0.11926 0.11746 0.1885 0.0
C501 C 0.11796 0.14717 0.17559 0.0
C502 C 0.14216 0.1545 0.14574 0.0
C503 C 0.43204 0.31368 0.6342 0.0
C504 C 0.39865 0.33096 0.63297 0.0
C505 C 0.45602 0.31523 0.66466 0.0
C506 C 0.44751 0.33394 0.69519 0.0
H507 H 0.44164 0.30128 0.61013 0.0
H508 H 0.48303 0.3039 0.66289 0.0
S509 S 0.35956 0.37771 0.70937 0.0
N510 N 0.35502 0.36264 0.66782 0.0
N511 N 0.40065 0.3659 0.72497 0.0
C512 C 0.41223 0.34821 0.69631 0.0
C513 C 0.3877 0.34671 0.66513 0.0
C514 C 0.59154 0.29458 0.94756 0.0
C515 C 0.62608 0.30999 0.95168 0.0
C516 C 0.56803 0.3008 0.91759 0.0
C517 C 0.57815 0.32262 0.89049 0.0
H518 H 0.58153 0.27906 0.96892 0.0
H519 H 0.54046 0.29021 0.9171 0.0
S520 S 0.66763 0.3663 0.88602 0.0
N521 N 0.67106 0.34554 0.92416 0.0
N522 N 0.62661 0.3573 0.86768 0.0
C523 C 0.61406 0.33599 0.89238 0.0
C524 C 0.63811 0.32968 0.92309 0.0
C525 C 0.88342 0.15001 0.41194 0.0
C526 C 0.88963 0.17112 0.44107 0.0
C527 C 0.90662 0.14983 0.38086 0.0
C528 C 0.93634 0.17111 0.37755 0.0
H529 H 0.86243 0.13187 0.41452 0.0
H530 H 0.90343 0.13117 0.36105 0.0
S531 S 0.96135 0.23395 0.44286 0.0
N532 N 0.92552 0.21603 0.4622 0.0
N533 N 0.96821 0.21594 0.40342 0.0
C534 C 0.94035 0.19431 0.40441 0.0
C535 C 0.9171 0.19437 0.43621 0.0
C536 C 0.90495 0.86515 0.94247 0.0
C537 C 0.89529 0.83377 0.94852 0.0
C538 C 0.92685 0.87401 0.91251 0.0
C539 C 0.93977 0.85195 0.88706 0.0
H540 H 0.89711 0.88287 0.96218 0.0
H541 H 0.93549 0.89818 0.91038 0.0
S542 S 0.91784 0.76751 0.88709 0.0
N543 N 0.89693 0.78097 0.92424 0.0
N544 N 0.9379 0.79792 0.86732 0.0
C545 C 0.92754 0.82095 0.89069 0.0
C546 C 0.90532 0.81178 0.92159 0.0
C547 C 0.64517 0.65761 0.41023 0.0
C548 C 0.63844 0.67796 0.4399 0.0
C549 C 0.62283 0.6584 0.3783 0.0
C550 C 0.59296 0.67945 0.3752 0.0
H551 H 0.66565 0.63917 0.41303 0.0
H552 H 0.62615 0.64012 0.35809 0.0
S553 S 0.5686 0.74184 0.44097 0.0
N554 N 0.60354 0.72313 0.46093 0.0
N555 N 0.56195 0.72446 0.40102 0.0
C556 C 0.58921 0.70244 0.40232 0.0
C557 C 0.61184 0.70174 0.43473 0.0
C558 C 0.43605 0.72293 0.13317 0.0
C559 C 0.40304 0.70597 0.12594 0.0
C560 C 0.45953 0.71507 0.16269 0.0
C561 C 0.45072 0.69022 0.18632 0.0
H562 H 0.44501 0.7411 0.11447 0.0
H563 H 0.48617 0.72704 0.1654 0.0
S564 S 0.36628 0.64013 0.18131 0.0
N565 N 0.36142 0.66463 0.14657 0.0
N566 N 0.40574 0.65002 0.20216 0.0
C567 C 0.41641 0.67474 0.1813 0.0
C568 C 0.39247 0.68261 0.15106 0.0
C569 C 0.10548 0.80826 0.63982 0.0
C570 C 0.12933 0.8324 0.6278 0.0
C571 C 0.08519 0.81094 0.67256 0.0
C572 C 0.0885 0.83755 0.69477 0.0
H573 H 0.09991 0.78843 0.6222 0.0
H574 H 0.06401 0.79356 0.6786 0.0
S575 S 0.15178 0.9047 0.67942 0.0
N576 N 0.1587 0.88191 0.64358 0.0
N577 N 0.12091 0.88641 0.70537 0.0
C578 C 0.11549 0.85998 0.68547 0.0
C579 C 0.13594 0.85751 0.65193 0.0
C580 C 0.14498 0.25771 0.32407 0.0
C581 C 0.18021 0.24553 0.31489 0.0
C582 C 0.11211 0.24095 0.31681 0.0
C583 C 0.11322 0.21172 0.29951 0.0
H584 H 0.14293 0.27893 0.34006 0.0
H585 H 0.08595 0.2497 0.32759 0.0
S586 S 0.19747 0.17248 0.26339 0.0
N587 N 0.21378 0.20461 0.28281 0.0
N588 N 0.15156 0.17329 0.2687 0.0
C589 C 0.14769 0.2009 0.28648 0.0
C590 C 0.18137 0.21774 0.29439 0.0
C591 C 0.37297 0.26939 0.79929 0.0
C592 C 0.33765 0.2804 0.81047 0.0
C593 C 0.40336 0.28994 0.79459 0.0
C594 C 0.39929 0.32204 0.80094 0.0
H595 H 0.3779 0.24458 0.79686 0.0
H596 H 0.43082 0.28034 0.78933 0.0
S597 S 0.31123 0.36322 0.82282 0.0
N598 N 0.29918 0.32604 0.82148 0.0
N599 N 0.35645 0.36435 0.81365 0.0
C600 C 0.36344 0.33354 0.80857 0.0
C601 C 0.33256 0.31279 0.81312 0.0
C602 C 0.6501 0.26598 0.76392 0.0
C603 C 0.68623 0.27857 0.75915 0.0
C604 C 0.6202 0.2848 0.77535 0.0
C605 C 0.62555 0.31671 0.78235 0.0
H606 H 0.64404 0.24232 0.75534 0.0
H607 H 0.59214 0.27516 0.77467 0.0
S608 S 0.7159 0.35916 0.78204 0.0
N609 N 0.72678 0.32341 0.76922 0.0
N610 N 0.67028 0.3589 0.78917 0.0
C611 C 0.66215 0.32859 0.7818 0.0
C612 C 0.69261 0.30946 0.77057 0.0
C613 C 0.88662 0.25579 0.23051 0.0
C614 C 0.85399 0.25112 0.25122 0.0
C615 C 0.91751 0.23611 0.23441 0.0
C616 C 0.91722 0.21094 0.25925 0.0
H617 H 0.88787 0.27429 0.21026 0.0
H618 H 0.94141 0.23996 0.21672 0.0
S619 S 0.8394 0.18947 0.32133 0.0
N620 N 0.82381 0.22034 0.29886 0.0
N621 N 0.88214 0.18314 0.30595 0.0
C622 C 0.88561 0.2069 0.28156 0.0
C623 C 0.85393 0.22705 0.27759 0.0
C624 C 0.84054 0.80684 0.7645 0.0
C625 C 0.84537 0.77536 0.75471 0.0
C626 C 0.87111 0.82545 0.77497 0.0
C627 C 0.90744 0.81313 0.77643 0.0
H628 H 0.81347 0.81783 0.76106 0.0
H629 H 0.86686 0.85028 0.77833 0.0
S630 S 0.93446 0.73126 0.75948 0.0
N631 N 0.88886 0.73189 0.75178 0.0
N632 N 0.94607 0.76701 0.77196 0.0
C633 C 0.91203 0.78105 0.77087 0.0
C634 C 0.881 0.76205 0.75993 0.0
C635 C 0.69611 0.7031 0.24191 0.0
C636 C 0.69431 0.73325 0.25686 0.0
C637 C 0.66645 0.68204 0.24575 0.0
C638 C 0.63373 0.69013 0.26484 0.0
H639 H 0.72001 0.69619 0.22562 0.0
H640 H 0.66825 0.6598 0.23178 0.0
S641 S 0.61669 0.76469 0.3131 0.0
N642 N 0.65853 0.76912 0.29461 0.0
N643 N 0.60268 0.7292 0.30194 0.0
C644 C 0.63274 0.71916 0.28261 0.0
C645 C 0.66305 0.74082 0.27856 0.0
C646 C 0.3826 0.75127 0.31629 0.0
C647 C 0.34634 0.73841 0.31394 0.0
C648 C 0.41422 0.73358 0.30722 0.0
C649 C 0.41067 0.70259 0.29524 0.0
H650 H 0.3869 0.77404 0.32846 0.0
H651 H 0.44171 0.74317 0.31308 0.0
S652 S 0.32207 0.6601 0.27774 0.0
N653 N 0.30865 0.69453 0.29298 0.0
N654 N 0.3683 0.66106 0.27729 0.0
C655 C 0.37463 0.69059 0.28924 0.0
C656 C 0.34239 0.70859 0.29823 0.0
C657 C 0.14114 0.76098 0.84364 0.0
C658 C 0.17381 0.76532 0.82292 0.0
C659 C 0.1101 0.78033 0.83889 0.0
C660 C 0.11031 0.8049 0.81322 0.0
H661 H 0.13999 0.74305 0.8646 0.0
H662 H 0.08621 0.77682 0.85668 0.0
S663 S 0.18791 0.82475 0.75011 0.0
N664 N 0.20376 0.79468 0.77392 0.0
N665 N 0.14516 0.8314 0.76528 0.0
C666 C 0.14188 0.80841 0.79071 0.0
C667 C 0.17372 0.78853 0.79551 0.0
loop_
_geom_bond_atom_site_label_1
_geom_bond_atom_site_label_2
_geom_bond_distance
_geom_bond_site_symmetry_2
_ccdc_geom_bond_type
C0 C1 1.264 . S
C0 C5 1.479 . S
C0 C10 1.465 . S
C1 C0 1.264 . S
C1 C3 1.339 . S
C1 H28 0.931 . S
C2 C3 1.395 . S
C2 C4 1.320 . S
C3 C1 1.339 . S
C3 C2 1.395 . S
C3 H29 0.929 . S
C4 C2 1.320 . S
C4 C5 1.405 . S
C4 H30 0.930 . S
C5 C0 1.479 . S
C5 C4 1.405 . S
C5 H31 0.931 . S
U6 O7 2.454 . S
U6 O8 2.458 . S
U6 C9 2.984 . S
U6 C10 2.847 . S
U6 C23 2.882 . S
U6 O24 2.441 . S
U6 O25 2.420 . S
U6 O26 2.455 . S
U6 O27 2.449 . S
O7 U6 2.454 . S
O7 C9 1.353 . S
O8 U6 2.458 . S
O8 C9 1.286 . S
C9 U6 2.984 . S
C9 O7 1.353 . S
C9 O8 1.286 . S
C9 C11 1.363 . S
C10 C0 1.465 . S
C10 U6 2.847 . S
C10 O24 1.249 . S
C10 O25 1.202 . S
C11 C9 1.363 . S
C11 C13 1.408 . S
C11 C16 1.342 . S
C12 C13 1.310 . S
C12 C15 1.461 . S
C12 H32 0.932 . S
C13 C11 1.408 . S
C13 C12 1.310 . S
C13 H33 0.930 . S
C14 C15 1.474 . S
C14 C16 1.285 . S
C14 H34 0.929 . S
C15 C12 1.461 . S
C15 C14 1.474 . S
C16 C11 1.342 . S
C16 C14 1.285 . S
C16 H35 0.930 . S
C17 C20 1.424 . S
C17 C22 1.245 . S
C17 C23 1.428 . S
C18 C21 1.260 . S
C18 C22 1.477 . S
C18 H36 0.932 . S
C19 C20 1.384 . S
C19 C21 1.479 . S
C19 H37 0.929 . S
C20 C17 1.424 . S
C20 C19 1.384 . S
C20 H38 0.928 . S
C21 C18 1.260 . S
C21 C19 1.479 . S
C22 C17 1.245 . S
C22 C18 1.477 . S
C22 H39 0.932 . S
C23 U6 2.882 . S
C23 C17 1.428 . S
C23 O26 1.301 . S
C23 O27 1.282 . S
O24 U6 2.441 . S
O24 C10 1.249 . S
O25 U6 2.420 . S
O25 C10 1.202 . S
O26 U6 2.455 . S
O26 C23 1.301 . S
O27 U6 2.449 . S
O27 C23 1.282 . S
H28 C1 0.931 . S
H29 C3 0.929 . S
H30 C4 0.930 . S
H31 C5 0.931 . S
H32 C12 0.932 . S
H33 C13 0.930 . S
H34 C14 0.929 . S
H35 C16 0.930 . S
H36 C18 0.932 . S
H37 C19 0.929 . S
H38 C20 0.928 . S
H39 C22 0.932 . S
C40 C41 1.264 . S
C40 C45 1.479 1_556 S
C40 C50 1.465 . S
C41 C40 1.264 . S
C41 C43 1.339 1_556 S
C41 H68 0.931 . S
C42 C43 1.395 . S
C42 C44 1.320 . S
C43 C41 1.339 1_554 S
C43 C42 1.395 . S
C43 H69 0.929 . S
C44 C42 1.320 . S
C44 C45 1.405 . S
C44 H70 0.930 . S
C45 C40 1.479 1_554 S
C45 C44 1.405 . S
C45 H71 0.931 . S
U46 O47 2.454 . S
U46 O48 2.458 . S
U46 C49 2.984 . S
U46 C50 2.847 . S
U46 C63 2.882 . S
U46 O64 2.441 . S
U46 O65 2.420 . S
U46 O66 2.455 . S
U46 O67 2.449 . S
O47 U46 2.454 . S
O47 C49 1.353 . S
O48 U46 2.458 . S
O48 C49 1.286 . S
C49 U46 2.984 . S
C49 O47 1.353 . S
C49 O48 1.286 . S
C49 C51 1.363 . S
C50 C40 1.465 . S
C50 U46 2.847 . S
C50 O64 1.249 . S
C50 O65 1.202 . S
C51 C49 1.363 . S
C51 C53 1.408 . S
C51 C56 1.342 . S
C52 C53 1.310 . S
C52 C55 1.461 . S
C52 H72 0.932 . S
C53 C51 1.408 . S
C53 C52 1.310 . S
C53 H73 0.930 . S
C54 C55 1.474 . S
C54 C56 1.285 . S
C54 H74 0.929 . S
C55 C52 1.461 . S
C55 C54 1.474 . S
C56 C51 1.342 . S
C56 C54 1.285 . S
C56 H75 0.930 . S
C57 C60 1.424 . S
C57 C62 1.245 . S
C57 C63 1.428 . S
C58 C61 1.260 . S
C58 C62 1.477 . S
C58 H76 0.932 . S
C59 C60 1.384 . S
C59 C61 1.479 . S
C59 H77 0.929 . S
C60 C57 1.424 . S
C60 C59 1.384 . S
C60 H78 0.928 . S
C61 C58 1.260 . S
C61 C59 1.479 . S
C62 C57 1.245 . S
C62 C58 1.477 . S
C62 H79 0.932 . S
C63 U46 2.882 . S
C63 C57 1.428 . S
C63 O66 1.301 . S
C63 O67 1.282 . S
O64 U46 2.441 . S
O64 C50 1.249 . S
O65 U46 2.420 . S
O65 C50 1.202 . S
O66 U46 2.455 . S
O66 C63 1.301 . S
O67 U46 2.449 . S
O67 C63 1.282 . S
H68 C41 0.931 . S
H69 C43 0.929 . S
H70 C44 0.930 . S
H71 C45 0.931 . S
H72 C52 0.932 . S
H73 C53 0.930 . S
H74 C54 0.929 . S
H75 C56 0.930 . S
H76 C58 0.932 . S
H77 C59 0.929 . S
H78 C60 0.928 . S
H79 C62 0.932 . S
C80 C81 1.264 . S
C80 C85 1.479 . S
C80 C90 1.465 . S
C81 C80 1.264 . S
C81 C83 1.339 . S
C81 H108 0.931 . S
C82 C83 1.395 . S
C82 C84 1.320 . S
C83 C81 1.339 . S
C83 C82 1.395 . S
C83 H109 0.929 . S
C84 C82 1.320 . S
C84 C85 1.405 . S
C84 H110 0.930 . S
C85 C80 1.479 . S
C85 C84 1.405 . S
C85 H111 0.931 . S
U86 O87 2.454 . S
U86 O88 2.458 . S
U86 C89 2.984 . S
U86 C90 2.847 . S
U86 C103 2.882 . S
U86 O104 2.441 . S
U86 O105 2.420 . S
U86 O106 2.455 . S
U86 O107 2.449 . S
O87 U86 2.454 . S
O87 C89 1.353 . S
O88 U86 2.458 . S
O88 C89 1.286 . S
C89 U86 2.984 . S
C89 O87 1.353 . S
C89 O88 1.286 . S
C89 C91 1.363 . S
C90 C80 1.465 . S
C90 U86 2.847 . S
C90 O104 1.249 . S
C90 O105 1.202 . S
C91 C89 1.363 . S
C91 C93 1.408 . S
C91 C96 1.342 . S
C92 C93 1.310 . S
C92 C95 1.461 . S
C92 H112 0.932 . S
C93 C91 1.408 . S
C93 C92 1.310 . S
C93 H113 0.930 . S
C94 C95 1.474 . S
C94 C96 1.285 . S
C94 H114 0.929 . S
C95 C92 1.461 . S
C95 C94 1.474 . S
C96 C91 1.342 . S
C96 C94 1.285 . S
C96 H115 0.930 . S
C97 C100 1.424 . S
C97 C102 1.245 . S
C97 C103 1.428 . S
C98 C101 1.260 . S
C98 C102 1.477 . S
C98 H116 0.932 . S
C99 C100 1.384 . S
C99 C101 1.479 . S
C99 H117 0.929 . S
C100 C97 1.424 . S
C100 C99 1.384 . S
C100 H118 0.928 . S
C101 C98 1.260 . S
C101 C99 1.479 . S
C102 C97 1.245 . S
C102 C98 1.477 . S
C102 H119 0.932 . S
C103 U86 2.882 . S
C103 C97 1.428 . S
C103 O106 1.301 . S
C103 O107 1.282 . S
O104 U86 2.441 . S
O104 C90 1.249 . S
O105 U86 2.420 . S
O105 C90 1.202 . S
O106 U86 2.455 . S
O106 C103 1.301 . S
O107 U86 2.449 . S
O107 C103 1.282 . S
H108 C81 0.931 . S
H109 C83 0.929 . S
H110 C84 0.930 . S
H111 C85 0.931 . S
H112 C92 0.932 . S
H113 C93 0.930 . S
H114 C94 0.929 . S
H115 C96 0.930 . S
H116 C98 0.932 . S
H117 C99 0.929 . S
H118 C100 0.928 . S
H119 C102 0.932 . S
C120 C121 1.264 . S
C120 C125 1.479 1_554 S
C120 C130 1.465 . S
C121 C120 1.264 . S
C121 C123 1.339 1_554 S
C121 H148 0.931 . S
C122 C123 1.395 . S
C122 C124 1.320 . S
C123 C121 1.339 1_556 S
C123 C122 1.395 . S
C123 H149 0.929 . S
C124 C122 1.320 . S
C124 C125 1.405 . S
C124 H150 0.930 . S
C125 C120 1.479 1_556 S
C125 C124 1.405 . S
C125 H151 0.927 1_556 S
U126 O127 2.454 . S
U126 O128 2.458 . S
U126 C129 2.984 . S
U126 C130 2.847 . S
U126 C143 2.882 . S
U126 O144 2.441 . S
U126 O145 2.420 . S
U126 O146 2.455 . S
U126 O147 2.449 . S
O127 U126 2.454 . S
O127 C129 1.353 . S
O128 U126 2.458 . S
O128 C129 1.286 . S
C129 U126 2.984 . S
C129 O127 1.353 . S
C129 O128 1.286 . S
C129 C131 1.363 . S
C130 C120 1.465 . S
C130 U126 2.847 . S
C130 O144 1.249 . S
C130 O145 1.202 . S
C131 C129 1.363 . S
C131 C133 1.408 . S
C131 C136 1.342 . S
C132 C133 1.310 . S
C132 C135 1.461 . S
C132 H152 0.932 . S
C133 C131 1.408 . S
C133 C132 1.310 . S
C133 H153 0.930 . S
C134 C135 1.474 . S
C134 C136 1.285 . S
C134 H154 0.929 . S
C135 C132 1.461 . S
C135 C134 1.474 . S
C136 C131 1.342 . S
C136 C134 1.285 . S
C136 H155 0.930 . S
C137 C140 1.424 . S
C137 C142 1.245 . S
C137 C143 1.428 . S
C138 C141 1.260 . S
C138 C142 1.477 . S
C138 H156 0.932 . S
C139 C140 1.384 . S
C139 C141 1.479 . S
C139 H157 0.929 . S
C140 C137 1.424 . S
C140 C139 1.384 . S
C140 H158 0.928 . S
C141 C138 1.260 . S
C141 C139 1.479 . S
C142 C137 1.245 . S
C142 C138 1.477 . S
C142 H159 0.932 . S
C143 U126 2.882 . S
C143 C137 1.428 . S
C143 O146 1.301 . S
C143 O147 1.282 . S
O144 U126 2.441 . S
O144 C130 1.249 . S
O145 U126 2.420 . S
O145 C130 1.202 . S
O146 U126 2.455 . S
O146 C143 1.301 . S
O147 U126 2.449 . S
O147 C143 1.282 . S
H148 C121 0.931 . S
H149 C123 0.929 . S
H150 C124 0.930 . S
H151 C125 0.927 1_554 S
H152 C132 0.932 . S
H153 C133 0.930 . S
H154 C134 0.929 . S
H155 C136 0.930 . S
H156 C138 0.932 . S
H157 C139 0.929 . S
H158 C140 0.928 . S
H159 C142 0.932 . S
C160 C161 1.264 . S
C160 C165 1.479 . S
C160 C170 1.465 . S
C161 C160 1.264 . S
C161 C163 1.339 . S
C161 H188 0.931 . S
C162 C163 1.395 . S
C162 C164 1.320 . S
C163 C161 1.339 . S
C163 C162 1.395 . S
C163 H189 0.929 . S
C164 C162 1.320 . S
C164 C165 1.405 . S
C164 H190 0.930 . S
C165 C160 1.479 . S
C165 C164 1.405 . S
C165 H191 0.931 . S
U166 O167 2.454 . S
U166 O168 2.458 . S
U166 C169 2.984 . S
U166 C170 2.847 . S
U166 C183 2.882 . S
U166 O184 2.441 . S
U166 O185 2.420 . S
U166 O186 2.455 . S
U166 O187 2.449 . S
O167 U166 2.454 . S
O167 C169 1.353 . S
O168 U166 2.458 . S
O168 C169 1.286 . S
C169 U166 2.984 . S
C169 O167 1.353 . S
C169 O168 1.286 . S
C169 C171 1.363 . S
C170 C160 1.465 . S
C170 U166 2.847 . S
C170 O184 1.249 . S
C170 O185 1.202 . S
C171 C169 1.363 . S
C171 C173 1.408 . S
C171 C176 1.342 . S
C172 C173 1.310 . S
C172 C175 1.461 . S
C172 H192 0.932 . S
C173 C171 1.408 . S
C173 C172 1.310 . S
C173 H193 0.930 . S
C174 C175 1.474 . S
C174 C176 1.285 . S
C174 H194 0.929 . S
C175 C172 1.461 . S
C175 C174 1.474 . S
C176 C171 1.342 . S
C176 C174 1.285 . S
C176 H195 0.930 . S
C177 C180 1.424 . S
C177 C182 1.245 . S
C177 C183 1.428 . S
C178 C181 1.260 . S
C178 C182 1.477 . S
C178 H196 0.932 . S
C179 C180 1.384 . S
C179 C181 1.479 . S
C179 H197 0.929 . S
C180 C177 1.424 . S
C180 C179 1.384 . S
C180 H198 0.928 . S
C181 C178 1.260 . S
C181 C179 1.479 . S
C182 C177 1.245 . S
C182 C178 1.477 . S
C182 H199 0.932 . S
C183 U166 2.882 . S
C183 C177 1.428 . S
C183 O186 1.301 . S
C183 O187 1.282 . S
O184 U166 2.441 . S
O184 C170 1.249 . S
O185 U166 2.420 . S
O185 C170 1.202 . S
O186 U166 2.455 . S
O186 C183 1.301 . S
O187 U166 2.449 . S
O187 C183 1.282 . S
H188 C161 0.931 . S
H189 C163 0.929 . S
H190 C164 0.930 . S
H191 C165 0.931 . S
H192 C172 0.932 . S
H193 C173 0.930 . S
H194 C174 0.929 . S
H195 C176 0.930 . S
H196 C178 0.932 . S
H197 C179 0.929 . S
H198 C180 0.928 . S
H199 C182 0.932 . S
C200 C201 1.265 1_554 S
C200 C205 1.480 1_554 S
C200 C210 1.462 . S
C201 C200 1.265 1_556 S
C201 C203 1.339 . S
C201 H228 0.927 1_556 S
C202 C203 1.395 . S
C202 C204 1.320 . S
C203 C201 1.339 . S
C203 C202 1.395 . S
C203 H229 0.929 . S
C204 C202 1.320 . S
C204 C205 1.405 . S
C204 H230 0.930 . S
C205 C200 1.480 1_556 S
C205 C204 1.405 . S
C205 H231 0.931 . S
U206 O207 2.454 . S
U206 O208 2.458 . S
U206 C209 2.984 . S
U206 C210 2.847 . S
U206 C223 2.882 . S
U206 O224 2.441 . S
U206 O225 2.420 . S
U206 O226 2.455 . S
U206 O227 2.449 . S
O207 U206 2.454 . S
O207 C209 1.353 . S
O208 U206 2.458 . S
O208 C209 1.286 . S
C209 U206 2.984 . S
C209 O207 1.353 . S
C209 O208 1.286 . S
C209 C211 1.363 . S
C210 C200 1.462 . S
C210 U206 2.847 . S
C210 O224 1.249 . S
C210 O225 1.202 . S
C211 C209 1.363 . S
C211 C213 1.408 . S
C211 C216 1.342 . S
C212 C213 1.310 . S
C212 C215 1.461 . S
C212 H232 0.932 . S
C213 C211 1.408 . S
C213 C212 1.310 . S
C213 H233 0.930 . S
C214 C215 1.474 . S
C214 C216 1.285 . S
C214 H234 0.929 . S
C215 C212 1.461 . S
C215 C214 1.474 . S
C216 C211 1.342 . S
C216 C214 1.285 . S
C216 H235 0.930 . S
C217 C220 1.424 . S
C217 C222 1.245 . S
C217 C223 1.428 . S
C218 C221 1.260 . S
C218 C222 1.477 . S
C218 H236 0.932 . S
C219 C220 1.384 . S
C219 C221 1.479 . S
C219 H237 0.929 . S
C220 C217 1.424 . S
C220 C219 1.384 . S
C220 H238 0.928 . S
C221 C218 1.260 . S
C221 C219 1.479 . S
C222 C217 1.245 . S
C222 C218 1.477 . S
C222 H239 0.932 . S
C223 U206 2.882 . S
C223 C217 1.428 . S
C223 O226 1.301 . S
C223 O227 1.282 . S
O224 U206 2.441 . S
O224 C210 1.249 . S
O225 U206 2.420 . S
O225 C210 1.202 . S
O226 U206 2.455 . S
O226 C223 1.301 . S
O227 U206 2.449 . S
O227 C223 1.282 . S
H228 C201 0.927 1_554 S
H229 C203 0.929 . S
H230 C204 0.930 . S
H231 C205 0.931 . S
H232 C212 0.932 . S
H233 C213 0.930 . S
H234 C214 0.929 . S
H235 C216 0.930 . S
H236 C218 0.932 . S
H237 C219 0.929 . S
H238 C220 0.928 . S
H239 C222 0.932 . S
C240 C241 1.264 . S
C240 C245 1.479 . S
C240 C250 1.465 . S
C241 C240 1.264 . S
C241 C243 1.339 . S
C241 H268 0.931 . S
C242 C243 1.395 . S
C242 C244 1.320 . S
C243 C241 1.339 . S
C243 C242 1.395 . S
C243 H269 0.929 . S
C244 C242 1.320 . S
C244 C245 1.405 . S
C244 H270 0.930 . S
C245 C240 1.479 . S
C245 C244 1.405 . S
C245 H271 0.931 . S
U246 O247 2.454 . S
U246 O248 2.458 . S
U246 C249 2.984 . S
U246 C250 2.847 . S
U246 C263 2.882 . S
U246 O264 2.441 . S
U246 O265 2.420 . S
U246 O266 2.455 . S
U246 O267 2.449 . S
O247 U246 2.454 . S
O247 C249 1.353 . S
O248 U246 2.458 . S
O248 C249 1.286 . S
C249 U246 2.984 . S
C249 O247 1.353 . S
C249 O248 1.286 . S
C249 C251 1.363 . S
C250 C240 1.465 . S
C250 U246 2.847 . S
C250 O264 1.249 . S
C250 O265 1.202 . S
C251 C249 1.363 . S
C251 C253 1.408 . S
C251 C256 1.342 . S
C252 C253 1.310 . S
C252 C255 1.461 . S
C252 H272 0.932 . S
C253 C251 1.408 . S
C253 C252 1.310 . S
C253 H273 0.930 . S
C254 C255 1.474 . S
C254 C256 1.285 . S
C254 H274 0.929 . S
C255 C252 1.461 . S
C255 C254 1.474 . S
C256 C251 1.342 . S
C256 C254 1.285 . S
C256 H275 0.930 . S
C257 C260 1.424 . S
C257 C262 1.245 . S
C257 C263 1.428 . S
C258 C261 1.260 . S
C258 C262 1.477 . S
C258 H276 0.932 . S
C259 C260 1.384 . S
C259 C261 1.479 . S
C259 H277 0.929 . S
C260 C257 1.424 . S
C260 C259 1.384 . S
C260 H278 0.928 . S
C261 C258 1.260 . S
C261 C259 1.479 . S
C262 C257 1.245 . S
C262 C258 1.477 . S
C262 H279 0.932 . S
C263 U246 2.882 . S
C263 C257 1.428 . S
C263 O266 1.301 . S
C263 O267 1.282 . S
O264 U246 2.441 . S
O264 C250 1.249 . S
O265 U246 2.420 . S
O265 C250 1.202 . S
O266 U246 2.455 . S
O266 C263 1.301 . S
O267 U246 2.449 . S
O267 C263 1.282 . S
H268 C241 0.931 . S
H269 C243 0.929 . S
H270 C244 0.930 . S
H271 C245 0.931 . S
H272 C252 0.932 . S
H273 C253 0.930 . S
H274 C254 0.929 . S
H275 C256 0.930 . S
H276 C258 0.932 . S
H277 C259 0.929 . S
H278 C260 0.928 . S
H279 C262 0.932 . S
C280 C281 1.264 1_556 S
C280 C285 1.479 1_556 S
C280 C290 1.465 . S
C281 C280 1.264 1_554 S
C281 C283 1.339 . S
C281 H308 0.931 1_554 S
C282 C283 1.395 . S
C282 C284 1.320 . S
C283 C281 1.339 . S
C283 C282 1.395 . S
C283 H309 0.929 . S
C284 C282 1.320 . S
C284 C285 1.405 . S
C284 H310 0.930 . S
C285 C280 1.479 1_554 S
C285 C284 1.405 . S
C285 H311 0.931 . S
U286 O287 2.454 . S
U286 O288 2.458 . S
U286 C289 2.984 . S
U286 C290 2.847 . S
U286 C303 2.882 . S
U286 O304 2.441 . S
U286 O305 2.420 . S
U286 O306 2.455 . S
U286 O307 2.449 . S
O287 U286 2.454 . S
O287 C289 1.353 . S
O288 U286 2.458 . S
O288 C289 1.286 . S
C289 U286 2.984 . S
C289 O287 1.353 . S
C289 O288 1.286 . S
C289 C291 1.363 . S
C290 C280 1.465 . S
C290 U286 2.847 . S
C290 O304 1.249 . S
C290 O305 1.202 . S
C291 C289 1.363 . S
C291 C293 1.408 . S
C291 C296 1.342 . S
C292 C293 1.310 . S
C292 C295 1.461 . S
C292 H312 0.932 . S
C293 C291 1.408 . S
C293 C292 1.310 . S
C293 H313 0.930 . S
C294 C295 1.474 . S
C294 C296 1.285 . S
C294 H314 0.929 . S
C295 C292 1.461 . S
C295 C294 1.474 . S
C296 C291 1.342 . S
C296 C294 1.285 . S
C296 H315 0.930 . S
C297 C300 1.424 . S
C297 C302 1.245 . S
C297 C303 1.428 . S
C298 C301 1.260 . S
C298 C302 1.477 . S
C298 H316 0.932 . S
C299 C300 1.384 . S
C299 C301 1.479 . S
C299 H317 0.929 . S
C300 C297 1.424 . S
C300 C299 1.384 . S
C300 H318 0.928 . S
C301 C298 1.260 . S
C301 C299 1.479 . S
C302 C297 1.245 . S
C302 C298 1.477 . S
C302 H319 0.932 . S
C303 U286 2.882 . S
C303 C297 1.428 . S
C303 O306 1.301 . S
C303 O307 1.282 . S
O304 U286 2.441 . S
O304 C290 1.249 . S
O305 U286 2.420 . S
O305 C290 1.202 . S
O306 U286 2.455 . S
O306 C303 1.301 . S
O307 U286 2.449 . S
O307 C303 1.282 . S
H308 C281 0.931 1_556 S
H309 C283 0.929 . S
H310 C284 0.930 . S
H311 C285 0.931 . S
H312 C292 0.932 . S
H313 C293 0.930 . S
H314 C294 0.929 . S
H315 C296 0.930 . S
H316 C298 0.932 . S
H317 C299 0.929 . S
H318 C300 0.928 . S
H319 C302 0.932 . S
Zn320 O326 1.920 1_455 S
Zn320 O332 1.898 . S
Zn320 O335 1.905 . S
Zn321 O329 1.905 1_655 S
Zn321 O330 1.898 . S
Zn321 O338 1.920 . S
Zn322 O325 2.080 1_455 S
Zn322 O328 2.114 . S
Zn322 O331 2.120 1_455 S
Zn322 O333 2.120 . S
Zn322 O334 2.114 . S
Zn322 O337 2.080 1_455 S
C323 O328 1.166 . S
C323 O329 1.182 . S
C324 O330 1.167 . S
C324 O331 1.299 . S
O325 Zn322 2.080 1_655 S
O325 C339 1.305 . S
O326 Zn320 1.920 1_655 S
O326 C339 1.234 . S
C327 O332 1.167 . S
C327 O333 1.299 . S
O328 Zn322 2.114 . S
O328 C323 1.166 . S
O329 Zn321 1.905 1_455 S
O329 C323 1.182 . S
O330 Zn321 1.898 . S
O330 C324 1.167 . S
O331 Zn322 2.120 1_655 S
O331 C324 1.299 . S
O332 Zn320 1.898 . S
O332 C327 1.167 . S
O333 Zn322 2.120 . S
O333 C327 1.299 . S
O334 Zn322 2.114 . S
O334 C336 1.166 . S
O335 Zn320 1.905 . S
O335 C336 1.182 . S
C336 O334 1.166 . S
C336 O335 1.182 . S
O337 Zn322 2.080 1_655 S
O337 C340 1.305 . S
O338 Zn321 1.920 . S
O338 C340 1.234 . S
C339 O325 1.305 . S
C339 O326 1.234 . S
C340 O337 1.305 . S
C340 O338 1.234 . S
Zn341 O347 1.920 . S
Zn341 O353 1.898 . S
Zn341 O356 1.905 . S
Zn342 O350 1.905 . S
Zn342 O351 1.898 . S
Zn342 O359 1.920 . S
Zn343 O346 2.080 . S
Zn343 O349 2.114 . S
Zn343 O352 2.120 . S
Zn343 O354 2.120 . S
Zn343 O355 2.114 . S
Zn343 O358 2.080 . S
C344 O349 1.166 . S
C344 O350 1.182 . S
C345 O351 1.167 . S
C345 O352 1.299 . S
O346 Zn343 2.080 . S
O346 C360 1.305 . S
O347 Zn341 1.920 . S
O347 C360 1.234 . S
C348 O353 1.167 . S
C348 O354 1.299 . S
O349 Zn343 2.114 . S
O349 C344 1.166 . S
O350 Zn342 1.905 . S
O350 C344 1.182 . S
O351 Zn342 1.898 . S
O351 C345 1.167 . S
O352 Zn343 2.120 . S
O352 C345 1.299 . S
O353 Zn341 1.898 . S
O353 C348 1.167 . S
O354 Zn343 2.120 . S
O354 C348 1.299 . S
O355 Zn343 2.114 . S
O355 C357 1.166 . S
O356 Zn341 1.905 . S
O356 C357 1.182 . S
C357 O355 1.166 . S
C357 O356 1.182 . S
O358 Zn343 2.080 . S
O358 C361 1.305 . S
O359 Zn342 1.920 . S
O359 C361 1.234 . S
C360 O346 1.305 . S
C360 O347 1.234 . S
C361 O358 1.305 . S
C361 O359 1.234 . S
Zn362 O368 1.920 . S
Zn362 O374 1.898 . S
Zn362 O377 1.905 . S
Zn363 O371 1.905 . S
Zn363 O372 1.898 . S
Zn363 O380 1.920 1_655 S
Zn364 O367 2.080 . S
Zn364 O370 2.114 1_455 S
Zn364 O373 2.120 1_455 S
Zn364 O375 2.120 . S
Zn364 O376 2.114 1_455 S
Zn364 O379 2.080 . S
C365 O370 1.166 . S
C365 O371 1.182 . S
C366 O372 1.167 . S
C366 O373 1.299 . S
O367 Zn364 2.080 . S
O367 C381 1.305 . S
O368 Zn362 1.920 . S
O368 C381 1.234 . S
C369 O374 1.167 . S
C369 O375 1.299 . S
O370 Zn364 2.114 1_655 S
O370 C365 1.166 . S
O371 Zn363 1.905 . S
O371 C365 1.182 . S
O372 Zn363 1.898 . S
O372 C366 1.167 . S
O373 Zn364 2.120 1_655 S
O373 C366 1.299 . S
O374 Zn362 1.898 . S
O374 C369 1.167 . S
O375 Zn364 2.120 . S
O375 C369 1.299 . S
O376 Zn364 2.114 1_655 S
O376 C378 1.166 . S
O377 Zn362 1.905 . S
O377 C378 1.182 1_455 S
C378 O376 1.166 . S
C378 O377 1.182 1_655 S
O379 Zn364 2.080 . S
O379 C382 1.305 . S
O380 Zn363 1.920 1_455 S
O380 C382 1.234 . S
C381 O367 1.305 . S
C381 O368 1.234 . S
C382 O379 1.305 . S
C382 O380 1.234 . S
Zn383 O389 1.920 . S
Zn383 O395 1.898 . S
Zn383 O398 1.905 . S
Zn384 O392 1.905 . S
Zn384 O393 1.898 . S
Zn384 O401 1.920 . S
Zn385 O388 2.080 . S
Zn385 O391 2.114 . S
Zn385 O394 2.120 . S
Zn385 O396 2.120 . S
Zn385 O397 2.114 . S
Zn385 O400 2.080 . S
C386 O391 1.166 . S
C386 O392 1.182 . S
C387 O393 1.167 . S
C387 O394 1.299 . S
O388 Zn385 2.080 . S
O388 C402 1.305 . S
O389 Zn383 1.920 . S
O389 C402 1.234 . S
C390 O395 1.167 . S
C390 O396 1.299 . S
O391 Zn385 2.114 . S
O391 C386 1.166 . S
O392 Zn384 1.905 . S
O392 C386 1.182 . S
O393 Zn384 1.898 . S
O393 C387 1.167 . S
O394 Zn385 2.120 . S
O394 C387 1.299 . S
O395 Zn383 1.898 . S
O395 C390 1.167 . S
O396 Zn385 2.120 . S
O396 C390 1.299 . S
O397 Zn385 2.114 . S
O397 C399 1.166 . S
O398 Zn383 1.905 . S
O398 C399 1.182 . S
C399 O397 1.166 . S
C399 O398 1.182 . S
O400 Zn385 2.080 . S
O400 C403 1.305 . S
O401 Zn384 1.920 . S
O401 C403 1.234 . S
C402 O388 1.305 . S
C402 O389 1.234 . S
C403 O400 1.305 . S
C403 O401 1.234 . S
C404 C405 1.369 . S
C404 C406 1.419 . S
C404 H408 0.930 . S
C405 C404 1.369 . S
C405 C414 1.429 . S
C406 C404 1.419 . S
C406 C407 1.363 . S
C406 H409 0.929 . S
C407 C406 1.363 . S
C407 C413 1.428 . S
H408 C404 0.930 . S
H409 C406 0.929 . S
S410 N411 1.613 1_655 S
S410 N412 1.610 1_665 S
N411 S410 1.613 1_455 S
N411 C414 1.350 1_565 S
N412 S410 1.610 1_445 S
N412 C413 1.351 . S
C413 C407 1.428 . S
C413 N412 1.351 . S
C413 C414 1.434 . S
C414 C405 1.429 . S
C414 N411 1.350 1_545 S
C414 C413 1.434 . S
C415 C416 1.369 . S
C415 C417 1.419 . S
C415 H419 0.930 . S
C416 C415 1.369 . S
C416 C425 1.429 . S
C417 C415 1.419 . S
C417 C418 1.363 . S
C417 H420 0.929 . S
C418 C417 1.363 . S
C418 C424 1.428 . S
H419 C415 0.930 . S
H420 C417 0.929 . S
S421 N422 1.613 . S
S421 N423 1.610 . S
N422 S421 1.613 . S
N422 C425 1.350 . S
N423 S421 1.610 . S
N423 C424 1.351 . S
C424 C418 1.428 . S
C424 N423 1.351 . S
C424 C425 1.434 . S
C425 C416 1.429 . S
C425 N422 1.350 . S
C425 C424 1.434 . S
C426 C427 1.369 . S
C426 C428 1.419 . S
C426 H430 0.930 . S
C427 C426 1.369 . S
C427 C436 1.429 . S
C428 C426 1.419 . S
C428 C429 1.363 . S
C428 H431 0.929 . S
C429 C428 1.363 . S
C429 C435 1.428 . S
H430 C426 0.930 . S
H431 C428 0.929 . S
S432 N433 1.613 . S
S432 N434 1.610 . S
N433 S432 1.613 . S
N433 C436 1.350 . S
N434 S432 1.610 . S
N434 C435 1.351 . S
C435 C429 1.428 . S
C435 N434 1.351 . S
C435 C436 1.434 . S
C436 C427 1.429 . S
C436 N433 1.350 . S
C436 C435 1.434 . S
C437 C438 1.369 1_545 S
C437 C439 1.419 . S
C437 H441 0.930 1_545 S
C438 C437 1.369 1_565 S
C438 C447 1.429 1_565 S
C439 C437 1.419 . S
C439 C440 1.363 . S
C439 H442 0.929 . S
C440 C439 1.363 . S
C440 C446 1.428 . S
H441 C437 0.930 1_565 S
H442 C439 0.929 . S
S443 N444 1.613 . S
S443 N445 1.610 . S
N444 S443 1.613 . S
N444 C447 1.350 . S
N445 S443 1.610 . S
N445 C446 1.351 . S
C446 C440 1.428 . S
C446 N445 1.351 . S
C446 C447 1.434 . S
C447 C438 1.429 1_545 S
C447 N444 1.350 . S
C447 C446 1.434 . S
C448 C449 1.369 . S
C448 C450 1.419 . S
C448 H452 0.930 1_565 S
C449 C448 1.369 . S
C449 C458 1.429 . S
C450 C448 1.419 . S
C450 C451 1.363 . S
C450 H453 0.929 . S
C451 C450 1.363 . S
C451 C457 1.428 . S
H452 C448 0.930 1_545 S
H453 C450 0.929 . S
S454 N455 1.613 . S
S454 N456 1.610 . S
N455 S454 1.613 . S
N455 C458 1.350 . S
N456 S454 1.610 . S
N456 C457 1.351 . S
C457 C451 1.428 . S
C457 N456 1.351 . S
C457 C458 1.434 . S
C458 C449 1.429 . S
C458 N455 1.350 . S
C458 C457 1.434 . S
C459 C460 1.369 . S
C459 C461 1.419 . S
C459 H463 0.930 . S
C460 C459 1.369 . S
C460 C469 1.429 . S
C461 C459 1.419 . S
C461 C462 1.363 . S
C461 H464 0.929 . S
C462 C461 1.363 . S
C462 C468 1.428 . S
H463 C459 0.930 . S
H464 C461 0.929 . S
S465 N466 1.613 . S
S465 N467 1.610 . S
N466 S465 1.613 . S
N466 C469 1.350 . S
N467 S465 1.610 . S
N467 C468 1.351 . S
C468 C462 1.428 . S
C468 N467 1.351 . S
C468 C469 1.434 . S
C469 C460 1.429 . S
C469 N466 1.350 . S
C469 C468 1.434 . S
C470 C471 1.369 . S
C470 C472 1.419 . S
C470 H474 0.930 . S
C471 C470 1.369 . S
C471 C480 1.429 . S
C472 C470 1.419 . S
C472 C473 1.363 . S
C472 H475 0.929 . S
C473 C472 1.363 . S
C473 C479 1.428 . S
H474 C470 0.930 . S
H475 C472 0.929 . S
S476 N477 1.613 . S
S476 N478 1.610 . S
N477 S476 1.613 . S
N477 C480 1.350 . S
N478 S476 1.610 . S
N478 C479 1.351 . S
C479 C473 1.428 . S
C479 N478 1.351 . S
C479 C480 1.434 . S
C480 C471 1.429 . S
C480 N477 1.350 . S
C480 C479 1.434 . S
C481 C482 1.369 1_565 S
C481 C483 1.419 . S
C481 H485 0.930 . S
C482 C481 1.369 1_545 S
C482 C491 1.429 1_545 S
C483 C481 1.419 . S
C483 C484 1.363 . S
C483 H486 0.929 . S
C484 C483 1.363 . S
C484 C490 1.428 . S
H485 C481 0.930 . S
H486 C483 0.929 . S
S487 N488 1.613 1_655 S
S487 N489 1.610 1_645 S
N488 S487 1.613 1_455 S
N488 C491 1.350 1_545 S
N489 S487 1.610 1_465 S
N489 C490 1.351 . S
C490 C484 1.428 . S
C490 N489 1.351 . S
C490 C491 1.434 . S
C491 C482 1.429 1_565 S
C491 N488 1.350 1_565 S
C491 C490 1.434 . S
C492 C493 1.369 . S
C492 C494 1.419 . S
C492 H496 0.930 . S
C493 C492 1.369 . S
C493 C502 1.429 . S
C494 C492 1.419 . S
C494 C495 1.363 . S
C494 H497 0.929 . S
C495 C494 1.363 . S
C495 C501 1.428 . S
H496 C492 0.930 . S
H497 C494 0.929 . S
S498 N499 1.613 . S
S498 N500 1.610 . S
N499 S498 1.613 . S
N499 C502 1.350 . S
N500 S498 1.610 . S
N500 C501 1.351 . S
C501 C495 1.428 . S
C501 N500 1.351 . S
C501 C502 1.434 . S
C502 C493 1.429 . S
C502 N499 1.350 . S
C502 C501 1.434 . S
C503 C504 1.369 . S
C503 C505 1.419 . S
C503 H507 0.930 . S
C504 C503 1.369 . S
C504 C513 1.429 . S
C505 C503 1.419 . S
C505 C506 1.363 . S
C505 H508 0.929 . S
C506 C505 1.363 . S
C506 C512 1.428 . S
H507 C503 0.930 . S
H508 C505 0.929 . S
S509 N510 1.613 . S
S509 N511 1.610 . S
N510 S509 1.613 . S
N510 C513 1.350 . S
N511 S509 1.610 . S
N511 C512 1.351 . S
C512 C506 1.428 . S
C512 N511 1.351 . S
C512 C513 1.434 . S
C513 C504 1.429 . S
C513 N510 1.350 . S
C513 C512 1.434 . S
C514 C515 1.369 . S
C514 C516 1.419 . S
C514 H518 0.930 . S
C515 C514 1.369 . S
C515 C524 1.429 . S
C516 C514 1.419 . S
C516 C517 1.363 . S
C516 H519 0.929 . S
C517 C516 1.363 . S
C517 C523 1.428 . S
H518 C514 0.930 . S
H519 C516 0.929 . S
S520 N521 1.613 . S
S520 N522 1.610 . S
N521 S520 1.613 . S
N521 C524 1.350 . S
N522 S520 1.610 . S
N522 C523 1.351 . S
C523 C517 1.428 . S
C523 N522 1.351 . S
C523 C524 1.434 . S
C524 C515 1.429 . S
C524 N521 1.350 . S
C524 C523 1.434 . S
C525 C526 1.369 . S
C525 C527 1.419 . S
C525 H529 0.930 . S
C526 C525 1.369 . S
C526 C535 1.429 . S
C527 C525 1.419 . S
C527 C528 1.363 . S
C527 H530 0.929 . S
C528 C527 1.363 . S
C528 C534 1.428 . S
H529 C525 0.930 . S
H530 C527 0.929 . S
S531 N532 1.613 . S
S531 N533 1.610 . S
N532 S531 1.613 . S
N532 C535 1.350 . S
N533 S531 1.610 . S
N533 C534 1.351 . S
C534 C528 1.428 . S
C534 N533 1.351 . S
C534 C535 1.434 . S
C535 C526 1.429 . S
C535 N532 1.350 . S
C535 C534 1.434 . S
C536 C537 1.369 . S
C536 C538 1.419 . S
C536 H540 0.930 . S
C537 C536 1.369 . S
C537 C546 1.429 . S
C538 C536 1.419 . S
C538 C539 1.363 . S
C538 H541 0.929 . S
C539 C538 1.363 . S
C539 C545 1.428 . S
H540 C536 0.930 . S
H541 C538 0.929 . S
S542 N543 1.613 . S
S542 N544 1.610 . S
N543 S542 1.613 . S
N543 C546 1.350 . S
N544 S542 1.610 . S
N544 C545 1.351 . S
C545 C539 1.428 . S
C545 N544 1.351 . S
C545 C546 1.434 . S
C546 C537 1.429 . S
C546 N543 1.350 . S
C546 C545 1.434 . S
C547 C548 1.369 . S
C547 C549 1.419 . S
C547 H551 0.930 . S
C548 C547 1.369 . S
C548 C557 1.429 . S
C549 C547 1.419 . S
C549 C550 1.363 . S
C549 H552 0.929 . S
C550 C549 1.363 . S
C550 C556 1.428 . S
H551 C547 0.930 . S
H552 C549 0.929 . S
S553 N554 1.613 . S
S553 N555 1.610 . S
N554 S553 1.613 . S
N554 C557 1.350 . S
N555 S553 1.610 . S
N555 C556 1.351 . S
C556 C550 1.428 . S
C556 N555 1.351 . S
C556 C557 1.434 . S
C557 C548 1.429 . S
C557 N554 1.350 . S
C557 C556 1.434 . S
C558 C559 1.369 . S
C558 C560 1.419 . S
C558 H562 0.930 . S
C559 C558 1.369 . S
C559 C568 1.429 . S
C560 C558 1.419 . S
C560 C561 1.363 . S
C560 H563 0.929 . S
C561 C560 1.363 . S
C561 C567 1.428 . S
H562 C558 0.930 . S
H563 C560 0.929 . S
S564 N565 1.613 . S
S564 N566 1.610 . S
N565 S564 1.613 . S
N565 C568 1.350 . S
N566 S564 1.610 . S
N566 C567 1.351 . S
C567 C561 1.428 . S
C567 N566 1.351 . S
C567 C568 1.434 . S
C568 C559 1.429 . S
C568 N565 1.350 . S
C568 C567 1.434 . S
C569 C570 1.369 . S
C569 C571 1.419 . S
C569 H573 0.930 . S
C570 C569 1.369 . S
C570 C579 1.429 . S
C571 C569 1.419 . S
C571 C572 1.363 . S
C571 H574 0.929 . S
C572 C571 1.363 . S
C572 C578 1.428 . S
H573 C569 0.930 . S
H574 C571 0.929 . S
S575 N576 1.613 . S
S575 N577 1.610 . S
N576 S575 1.613 . S
N576 C579 1.350 . S
N577 S575 1.610 . S
N577 C578 1.351 . S
C578 C572 1.428 . S
C578 N577 1.351 . S
C578 C579 1.434 . S
C579 C570 1.429 . S
C579 N576 1.350 . S
C579 C578 1.434 . S
C580 C581 1.369 . S
C580 C582 1.419 . S
C580 H584 0.930 . S
C581 C580 1.369 . S
C581 C590 1.429 . S
C582 C580 1.419 . S
C582 C583 1.363 . S
C582 H585 0.929 . S
C583 C582 1.363 . S
C583 C589 1.428 . S
H584 C580 0.930 . S
H585 C582 0.929 . S
S586 N587 1.613 . S
S586 N588 1.610 . S
N587 S586 1.613 . S
N587 C590 1.350 . S
N588 S586 1.610 . S
N588 C589 1.351 . S
C589 C583 1.428 . S
C589 N588 1.351 . S
C589 C590 1.434 . S
C590 C581 1.429 . S
C590 N587 1.350 . S
C590 C589 1.434 . S
C591 C592 1.369 . S
C591 C593 1.419 . S
C591 H595 0.930 . S
C592 C591 1.369 . S
C592 C601 1.429 . S
C593 C591 1.419 . S
C593 C594 1.363 . S
C593 H596 0.929 . S
C594 C593 1.363 . S
C594 C600 1.428 . S
H595 C591 0.930 . S
H596 C593 0.929 . S
S597 N598 1.613 . S
S597 N599 1.610 . S
N598 S597 1.613 . S
N598 C601 1.350 . S
N599 S597 1.610 . S
N599 C600 1.351 . S
C600 C594 1.428 . S
C600 N599 1.351 . S
C600 C601 1.434 . S
C601 C592 1.429 . S
C601 N598 1.350 . S
C601 C600 1.434 . S
C602 C603 1.369 . S
C602 C604 1.419 . S
C602 H606 0.930 . S
C603 C602 1.369 . S
C603 C612 1.429 . S
C604 C602 1.419 . S
C604 C605 1.363 . S
C604 H607 0.929 . S
C605 C604 1.363 . S
C605 C611 1.428 . S
H606 C602 0.930 . S
H607 C604 0.929 . S
S608 N609 1.613 . S
S608 N610 1.610 . S
N609 S608 1.613 . S
N609 C612 1.350 . S
N610 S608 1.610 . S
N610 C611 1.351 . S
C611 C605 1.428 . S
C611 N610 1.351 . S
C611 C612 1.434 . S
C612 C603 1.429 . S
C612 N609 1.350 . S
C612 C611 1.434 . S
C613 C614 1.369 . S
C613 C615 1.419 . S
C613 H617 0.930 . S
C614 C613 1.369 . S
C614 C623 1.429 . S
C615 C613 1.419 . S
C615 C616 1.363 . S
C615 H618 0.929 . S
C616 C615 1.363 . S
C616 C622 1.428 . S
H617 C613 0.930 . S
H618 C615 0.929 . S
S619 N620 1.613 . S
S619 N621 1.610 . S
N620 S619 1.613 . S
N620 C623 1.350 . S
N621 S619 1.610 . S
N621 C622 1.351 . S
C622 C616 1.428 . S
C622 N621 1.351 . S
C622 C623 1.434 . S
C623 C614 1.429 . S
C623 N620 1.350 . S
C623 C622 1.434 . S
C624 C625 1.369 . S
C624 C626 1.419 . S
C624 H628 0.930 . S
C625 C624 1.369 . S
C625 C634 1.429 . S
C626 C624 1.419 . S
C626 C627 1.363 . S
C626 H629 0.929 . S
C627 C626 1.363 . S
C627 C633 1.428 . S
H628 C624 0.930 . S
H629 C626 0.929 . S
S630 N631 1.613 . S
S630 N632 1.610 . S
N631 S630 1.613 . S
N631 C634 1.350 . S
N632 S630 1.610 . S
N632 C633 1.351 . S
C633 C627 1.428 . S
C633 N632 1.351 . S
C633 C634 1.434 . S
C634 C625 1.429 . S
C634 N631 1.350 . S
C634 C633 1.434 . S
C635 C636 1.369 . S
C635 C637 1.419 . S
C635 H639 0.930 . S
C636 C635 1.369 . S
C636 C645 1.429 . S
C637 C635 1.419 . S
C637 C638 1.363 . S
C637 H640 0.929 . S
C638 C637 1.363 . S
C638 C644 1.428 . S
H639 C635 0.930 . S
H640 C637 0.929 . S
S641 N642 1.613 . S
S641 N643 1.610 . S
N642 S641 1.613 . S
N642 C645 1.350 . S
N643 S641 1.610 . S
N643 C644 1.351 . S
C644 C638 1.428 . S
C644 N643 1.351 . S
C644 C645 1.434 . S
C645 C636 1.429 . S
C645 N642 1.350 . S
C645 C644 1.434 . S
C646 C647 1.369 . S
C646 C648 1.419 . S
C646 H650 0.930 . S
C647 C646 1.369 . S
C647 C656 1.429 . S
C648 C646 1.419 . S
C648 C649 1.363 . S
C648 H651 0.929 . S
C649 C648 1.363 . S
C649 C655 1.428 . S
H650 C646 0.930 . S
H651 C648 0.929 . S
S652 N653 1.613 . S
S652 N654 1.610 . S
N653 S652 1.613 . S
N653 C656 1.350 . S
N654 S652 1.610 . S
N654 C655 1.351 . S
C655 C649 1.428 . S
C655 N654 1.351 . S
C655 C656 1.434 . S
C656 C647 1.429 . S
C656 N653 1.350 . S
C656 C655 1.434 . S
C657 C658 1.369 . S
C657 C659 1.419 . S
C657 H661 0.930 . S
C658 C657 1.369 . S
C658 C667 1.429 . S
C659 C657 1.419 . S
C659 C660 1.363 . S
C659 H662 0.929 . S
C660 C659 1.363 . S
C660 C666 1.428 . S
H661 C657 0.930 . S
H662 C659 0.929 . S
S663 N664 1.613 . S
S663 N665 1.610 . S
N664 S663 1.613 . S
N664 C667 1.350 . S
N665 S663 1.610 . S
N665 C666 1.351 . S
C666 C660 1.428 . S
C666 N665 1.351 . S
C666 C667 1.434 . S
C667 C658 1.429 . S
C667 N664 1.350 . S
C667 C666 1.434 . S
C405 C242 1.529 1_545 S
C407 C336 1.513 . S
C418 C344 1.544 . S
C416 C301 1.485 . S
C429 C348 1.492 . S
C427 C162 1.517 . S
C438 C221 1.470 . S
C440 C324 1.524 . S
C451 C365 1.511 . S
C449 C82 1.498 1_565 S
C462 C399 1.549 . S
C460 C141 1.535 . S
C471 C2 1.478 . S
C473 C387 1.489 . S
C482 C61 1.519 . S
C484 C369 1.527 . S
C495 C323 1.362 . S
C493 C42 1.511 . S
C506 C357 1.370 . S
C504 C21 1.455 . S
C517 C361 1.366 . S
C515 C122 1.508 . S
C528 C339 1.365 . S
C526 C101 1.465 . S
C539 C378 1.365 . S
C537 C202 1.483 . S
C548 C181 1.485 . S
C550 C386 1.363 . S
C561 C402 1.358 . S
C559 C282 1.478 . S
C570 C261 1.482 . S
C572 C382 1.364 . S
C583 C327 1.313 . S
C581 C15 1.516 . S
C594 C345 1.324 . S
C592 C55 1.520 . S
C603 C95 1.501 . S
C605 C360 1.312 . S
C616 C340 1.325 . S
C614 C135 1.504 . S
C627 C366 1.317 . S
C625 C175 1.516 . S
C636 C215 1.514 . S
C638 C390 1.326 . S
C647 C255 1.502 . S
C649 C403 1.318 . S
C658 C295 1.502 . S
C660 C381 1.322 . S
