# Generated by pormake.
# Topology gar, (4,6)-cn, num edge types: 1
# Building blocks:
#     Node 0, Type 0, BuildingBlock: CEKHIL_clean_sbu_0, # of connection points: 4
#     Node 1, Type 0, BuildingBlock: CEKHIL_clean_sbu_0, # of connection points: 4
#     Node 2, Type 0, BuildingBlock: CEKHIL_clean_sbu_0, # of connection points: 4
#     Node 3, Type 0, BuildingBlock: CEKHIL_clean_sbu_0, # of connection points: 4
#     Node 4, Type 0, BuildingBlock: CEKHIL_clean_sbu_0, # of connection points: 4
#     Node 5, Type 0, BuildingBlock: CEKHIL_clean_sbu_0, # of connection points: 4
#     Node 6, Type 0, BuildingBlock: CEKHIL_clean_sbu_0, # of connection points: 4
#     Node 7, Type 0, BuildingBlock: CEKHIL_clean_sbu_0, # of connection points: 4
#     Node 8, Type 0, BuildingBlock: CEKHIL_clean_sbu_0, # of connection points: 4
#     Node 9, Type 0, BuildingBlock: CEKHIL_clean_sbu_0, # of connection points: 4
#     Node 10, Type 0, BuildingBlock: CEKHIL_clean_sbu_0, # of connection points: 4
#     Node 11, Type 0, BuildingBlock: CEKHIL_clean_sbu_0, # of connection points: 4
#     Node 12, Type 0, BuildingBlock: CEKHIL_clean_sbu_0, # of connection points: 4
#     Node 13, Type 0, BuildingBlock: CEKHIL_clean_sbu_0, # of connection points: 4
#     Node 14, Type 0, BuildingBlock: CEKHIL_clean_sbu_0, # of connection points: 4
#     Node 15, Type 0, BuildingBlock: CEKHIL_clean_sbu_0, # of connection points: 4
#     Node 16, Type 0, BuildingBlock: CEKHIL_clean_sbu_0, # of connection points: 4
#     Node 17, Type 0, BuildingBlock: CEKHIL_clean_sbu_0, # of connection points: 4
#     Node 18, Type 0, BuildingBlock: CEKHIL_clean_sbu_0, # of connection points: 4
#     Node 19, Type 0, BuildingBlock: CEKHIL_clean_sbu_0, # of connection points: 4
#     Node 20, Type 0, BuildingBlock: CEKHIL_clean_sbu_0, # of connection points: 4
#     Node 21, Type 0, BuildingBlock: CEKHIL_clean_sbu_0, # of connection points: 4
#     Node 22, Type 0, BuildingBlock: CEKHIL_clean_sbu_0, # of connection points: 4
#     Node 23, Type 0, BuildingBlock: CEKHIL_clean_sbu_0, # of connection points: 4
#     Node 24, Type 1, BuildingBlock: KUMJIN_clean_sbu_1, # of connection points: 6
#     Node 25, Type 1, BuildingBlock: KUMJIN_clean_sbu_1, # of connection points: 6
#     Node 26, Type 1, BuildingBlock: KUMJIN_clean_sbu_1, # of connection points: 6
#     Node 27, Type 1, BuildingBlock: KUMJIN_clean_sbu_1, # of connection points: 6
#     Node 28, Type 1, BuildingBlock: KUMJIN_clean_sbu_1, # of connection points: 6
#     Node 29, Type 1, BuildingBlock: KUMJIN_clean_sbu_1, # of connection points: 6
#     Node 30, Type 1, BuildingBlock: KUMJIN_clean_sbu_1, # of connection points: 6
#     Node 31, Type 1, BuildingBlock: KUMJIN_clean_sbu_1, # of connection points: 6
#     Node 32, Type 1, BuildingBlock: KUMJIN_clean_sbu_1, # of connection points: 6
#     Node 33, Type 1, BuildingBlock: KUMJIN_clean_sbu_1, # of connection points: 6
#     Node 34, Type 1, BuildingBlock: KUMJIN_clean_sbu_1, # of connection points: 6
#     Node 35, Type 1, BuildingBlock: KUMJIN_clean_sbu_1, # of connection points: 6
#     Node 36, Type 1, BuildingBlock: KUMJIN_clean_sbu_1, # of connection points: 6
#     Node 37, Type 1, BuildingBlock: KUMJIN_clean_sbu_1, # of connection points: 6
#     Node 38, Type 1, BuildingBlock: KUMJIN_clean_sbu_1, # of connection points: 6
#     Node 39, Type 1, BuildingBlock: KUMJIN_clean_sbu_1, # of connection points: 6
#     Edge 40, Type (0, 1), BuildingBlock: TEMPAE_clean_linker_10, # of connection points: 2
#     Edge 41, Type (0, 1), BuildingBlock: TEMPAE_clean_linker_10, # of connection points: 2
#     Edge 42, Type (0, 1), BuildingBlock: TEMPAE_clean_linker_10, # of connection points: 2
#     Edge 43, Type (0, 1), BuildingBlock: TEMPAE_clean_linker_10, # of connection points: 2
#     Edge 44, Type (0, 1), BuildingBlock: TEMPAE_clean_linker_10, # of connection points: 2
#     Edge 45, Type (0, 1), BuildingBlock: TEMPAE_clean_linker_10, # of connection points: 2
#     Edge 46, Type (0, 1), BuildingBlock: TEMPAE_clean_linker_10, # of connection points: 2
#     Edge 47, Type (0, 1), BuildingBlock: TEMPAE_clean_linker_10, # of connection points: 2
#     Edge 48, Type (0, 1), BuildingBlock: TEMPAE_clean_linker_10, # of connection points: 2
#     Edge 49, Type (0, 1), BuildingBlock: TEMPAE_clean_linker_10, # of connection points: 2
#     Edge 50, Type (0, 1), BuildingBlock: TEMPAE_clean_linker_10, # of connection points: 2
#     Edge 51, Type (0, 1), BuildingBlock: TEMPAE_clean_linker_10, # of connection points: 2
#     Edge 52, Type (0, 1), BuildingBlock: TEMPAE_clean_linker_10, # of connection points: 2
#     Edge 53, Type (0, 1), BuildingBlock: TEMPAE_clean_linker_10, # of connection points: 2
#     Edge 54, Type (0, 1), BuildingBlock: TEMPAE_clean_linker_10, # of connection points: 2
#     Edge 55, Type (0, 1), BuildingBlock: TEMPAE_clean_linker_10, # of connection points: 2
#     Edge 56, Type (0, 1), BuildingBlock: TEMPAE_clean_linker_10, # of connection points: 2
#     Edge 57, Type (0, 1), BuildingBlock: TEMPAE_clean_linker_10, # of connection points: 2
#     Edge 58, Type (0, 1), BuildingBlock: TEMPAE_clean_linker_10, # of connection points: 2
#     Edge 59, Type (0, 1), BuildingBlock: TEMPAE_clean_linker_10, # of connection points: 2
#     Edge 60, Type (0, 1), BuildingBlock: TEMPAE_clean_linker_10, # of connection points: 2
#     Edge 61, Type (0, 1), BuildingBlock: TEMPAE_clean_linker_10, # of connection points: 2
#     Edge 62, Type (0, 1), BuildingBlock: TEMPAE_clean_linker_10, # of connection points: 2
#     Edge 63, Type (0, 1), BuildingBlock: TEMPAE_clean_linker_10, # of connection points: 2
#     Edge 64, Type (0, 1), BuildingBlock: TEMPAE_clean_linker_10, # of connection points: 2
#     Edge 65, Type (0, 1), BuildingBlock: TEMPAE_clean_linker_10, # of connection points: 2
#     Edge 66, Type (0, 1), BuildingBlock: TEMPAE_clean_linker_10, # of connection points: 2
#     Edge 67, Type (0, 1), BuildingBlock: TEMPAE_clean_linker_10, # of connection points: 2
#     Edge 68, Type (0, 1), BuildingBlock: TEMPAE_clean_linker_10, # of connection points: 2
#     Edge 69, Type (0, 1), BuildingBlock: TEMPAE_clean_linker_10, # of connection points: 2
#     Edge 70, Type (0, 1), BuildingBlock: TEMPAE_clean_linker_10, # of connection points: 2
#     Edge 71, Type (0, 1), BuildingBlock: TEMPAE_clean_linker_10, # of connection points: 2
#     Edge 72, Type (0, 1), BuildingBlock: TEMPAE_clean_linker_10, # of connection points: 2
#     Edge 73, Type (0, 1), BuildingBlock: TEMPAE_clean_linker_10, # of connection points: 2
#     Edge 74, Type (0, 1), BuildingBlock: TEMPAE_clean_linker_10, # of connection points: 2
#     Edge 75, Type (0, 1), BuildingBlock: TEMPAE_clean_linker_10, # of connection points: 2
#     Edge 76, Type (0, 1), BuildingBlock: TEMPAE_clean_linker_10, # of connection points: 2
#     Edge 77, Type (0, 1), BuildingBlock: TEMPAE_clean_linker_10, # of connection points: 2
#     Edge 78, Type (0, 1), BuildingBlock: TEMPAE_clean_linker_10, # of connection points: 2
#     Edge 79, Type (0, 1), BuildingBlock: TEMPAE_clean_linker_10, # of connection points: 2
#     Edge 80, Type (0, 1), BuildingBlock: TEMPAE_clean_linker_10, # of connection points: 2
#     Edge 81, Type (0, 1), BuildingBlock: TEMPAE_clean_linker_10, # of connection points: 2
#     Edge 82, Type (0, 1), BuildingBlock: TEMPAE_clean_linker_10, # of connection points: 2
#     Edge 83, Type (0, 1), BuildingBlock: TEMPAE_clean_linker_10, # of connection points: 2
#     Edge 84, Type (0, 1), BuildingBlock: TEMPAE_clean_linker_10, # of connection points: 2
#     Edge 85, Type (0, 1), BuildingBlock: TEMPAE_clean_linker_10, # of connection points: 2
#     Edge 86, Type (0, 1), BuildingBlock: TEMPAE_clean_linker_10, # of connection points: 2
#     Edge 87, Type (0, 1), BuildingBlock: TEMPAE_clean_linker_10, # of connection points: 2
#     Edge 88, Type (0, 1), BuildingBlock: TEMPAE_clean_linker_10, # of connection points: 2
#     Edge 89, Type (0, 1), BuildingBlock: TEMPAE_clean_linker_10, # of connection points: 2
#     Edge 90, Type (0, 1), BuildingBlock: TEMPAE_clean_linker_10, # of connection points: 2
#     Edge 91, Type (0, 1), BuildingBlock: TEMPAE_clean_linker_10, # of connection points: 2
#     Edge 92, Type (0, 1), BuildingBlock: TEMPAE_clean_linker_10, # of connection points: 2
#     Edge 93, Type (0, 1), BuildingBlock: TEMPAE_clean_linker_10, # of connection points: 2
#     Edge 94, Type (0, 1), BuildingBlock: TEMPAE_clean_linker_10, # of connection points: 2
#     Edge 95, Type (0, 1), BuildingBlock: TEMPAE_clean_linker_10, # of connection points: 2
#     Edge 96, Type (0, 1), BuildingBlock: TEMPAE_clean_linker_10, # of connection points: 2
#     Edge 97, Type (0, 1), BuildingBlock: TEMPAE_clean_linker_10, # of connection points: 2
#     Edge 98, Type (0, 1), BuildingBlock: TEMPAE_clean_linker_10, # of connection points: 2
#     Edge 99, Type (0, 1), BuildingBlock: TEMPAE_clean_linker_10, # of connection points: 2
#     Edge 100, Type (0, 1), BuildingBlock: TEMPAE_clean_linker_10, # of connection points: 2
#     Edge 101, Type (0, 1), BuildingBlock: TEMPAE_clean_linker_10, # of connection points: 2
#     Edge 102, Type (0, 1), BuildingBlock: TEMPAE_clean_linker_10, # of connection points: 2
#     Edge 103, Type (0, 1), BuildingBlock: TEMPAE_clean_linker_10, # of connection points: 2
#     Edge 104, Type (0, 1), BuildingBlock: TEMPAE_clean_linker_10, # of connection points: 2
#     Edge 105, Type (0, 1), BuildingBlock: TEMPAE_clean_linker_10, # of connection points: 2
#     Edge 106, Type (0, 1), BuildingBlock: TEMPAE_clean_linker_10, # of connection points: 2
#     Edge 107, Type (0, 1), BuildingBlock: TEMPAE_clean_linker_10, # of connection points: 2
#     Edge 108, Type (0, 1), BuildingBlock: TEMPAE_clean_linker_10, # of connection points: 2
#     Edge 109, Type (0, 1), BuildingBlock: TEMPAE_clean_linker_10, # of connection points: 2
#     Edge 110, Type (0, 1), BuildingBlock: TEMPAE_clean_linker_10, # of connection points: 2
#     Edge 111, Type (0, 1), BuildingBlock: TEMPAE_clean_linker_10, # of connection points: 2
#     Edge 112, Type (0, 1), BuildingBlock: TEMPAE_clean_linker_10, # of connection points: 2
#     Edge 113, Type (0, 1), BuildingBlock: TEMPAE_clean_linker_10, # of connection points: 2
#     Edge 114, Type (0, 1), BuildingBlock: TEMPAE_clean_linker_10, # of connection points: 2
#     Edge 115, Type (0, 1), BuildingBlock: TEMPAE_clean_linker_10, # of connection points: 2
#     Edge 116, Type (0, 1), BuildingBlock: TEMPAE_clean_linker_10, # of connection points: 2
#     Edge 117, Type (0, 1), BuildingBlock: TEMPAE_clean_linker_10, # of connection points: 2
#     Edge 118, Type (0, 1), BuildingBlock: TEMPAE_clean_linker_10, # of connection points: 2
#     Edge 119, Type (0, 1), BuildingBlock: TEMPAE_clean_linker_10, # of connection points: 2
#     Edge 120, Type (0, 1), BuildingBlock: TEMPAE_clean_linker_10, # of connection points: 2
#     Edge 121, Type (0, 1), BuildingBlock: TEMPAE_clean_linker_10, # of connection points: 2
#     Edge 122, Type (0, 1), BuildingBlock: TEMPAE_clean_linker_10, # of connection points: 2
#     Edge 123, Type (0, 1), BuildingBlock: TEMPAE_clean_linker_10, # of connection points: 2
#     Edge 124, Type (0, 1), BuildingBlock: TEMPAE_clean_linker_10, # of connection points: 2
#     Edge 125, Type (0, 1), BuildingBlock: TEMPAE_clean_linker_10, # of connection points: 2
#     Edge 126, Type (0, 1), BuildingBlock: TEMPAE_clean_linker_10, # of connection points: 2
#     Edge 127, Type (0, 1), BuildingBlock: TEMPAE_clean_linker_10, # of connection points: 2
#     Edge 128, Type (0, 1), BuildingBlock: TEMPAE_clean_linker_10, # of connection points: 2
#     Edge 129, Type (0, 1), BuildingBlock: TEMPAE_clean_linker_10, # of connection points: 2
#     Edge 130, Type (0, 1), BuildingBlock: TEMPAE_clean_linker_10, # of connection points: 2
#     Edge 131, Type (0, 1), BuildingBlock: TEMPAE_clean_linker_10, # of connection points: 2
#     Edge 132, Type (0, 1), BuildingBlock: TEMPAE_clean_linker_10, # of connection points: 2
#     Edge 133, Type (0, 1), BuildingBlock: TEMPAE_clean_linker_10, # of connection points: 2
#     Edge 134, Type (0, 1), BuildingBlock: TEMPAE_clean_linker_10, # of connection points: 2
#     Edge 135, Type (0, 1), BuildingBlock: TEMPAE_clean_linker_10, # of connection points: 2
# Relax obj value: 0.067
# Max RMSD: 0.179
# Mean RMSD: 0.109
data_MOF--net-gar--node1-CEKHIL_clean_sbu_0--node2-KUMJIN_clean_sbu_1--edge1-TEMPAE_clean_linker_10
_symmetry_space_group_name_H-M    P1
_symmetry_Int_Tables_number       1
_symmetry_cell_setting            triclinic
loop_
_symmetry_equiv_pos_as_xyz
'x, y, z'
_cell_length_a     61.154122
_cell_length_b     60.460123
_cell_length_c     55.993382
_cell_angle_alpha  96.201671
_cell_angle_beta   96.336284
_cell_angle_gamma 101.11072
loop_
_atom_site_label
_atom_site_type_symbol
_atom_site_fract_x
_atom_site_fract_y
_atom_site_fract_z
_atom_type_partial_charge
Co0 Co 0.05994 0.32548 0.36517 0.0
O1 O 0.09319 0.32825 0.37234 0.0
O2 O 0.07517 0.31696 0.33632 0.0
C3 C 0.05844 0.36008 0.38736 0.0
O4 O 0.02503 0.32081 0.3504 0.0
Co5 Co 0.02931 0.32461 0.40665 0.0
O6 O 1.00489 0.32655 0.38121 0.0
C7 C 0.04857 0.28463 0.39264 0.0
C8 C 0.0946 0.32116 0.34998 0.0
C9 C 1.00598 0.32271 0.3586 0.0
O10 O 0.05528 0.29296 0.37371 0.0
O11 O 0.03965 0.29538 0.40857 0.0
O12 O 0.06402 0.35927 0.36554 0.0
O13 O 0.05572 0.34072 0.3953 0.0
Co14 Co 0.02293 0.76182 0.69966 0.0
O15 O 0.99004 0.76155 0.69226 0.0
O16 O 1.00435 0.7545 0.72678 0.0
C17 C 0.03266 0.796 0.68526 0.0
O18 O 0.05732 0.76272 0.71456 0.0
Co19 Co 0.05496 0.76491 0.65978 0.0
O20 O 0.08029 0.77137 0.68636 0.0
C21 C 0.02555 0.72036 0.66311 0.0
C22 C 0.98643 0.75786 0.71392 0.0
C23 C 0.07757 0.76766 0.70788 0.0
O24 O 0.01923 0.72823 0.68341 0.0
O25 O 0.03773 0.73294 0.6506 0.0
O26 O 0.02772 0.79528 0.70714 0.0
O27 O 0.03097 0.7765 0.67279 0.0
Co28 Co 0.56162 0.82559 0.86701 0.0
O29 O 0.59469 0.82762 0.87377 0.0
O30 O 0.57627 0.81707 0.83777 0.0
C31 C 0.56107 0.86023 0.88965 0.0
O32 O 0.52674 0.82177 0.85289 0.0
Co33 Co 0.5323 0.82536 0.90976 0.0
O34 O 0.50787 0.82777 0.88469 0.0
C35 C 0.54887 0.78418 0.89357 0.0
C36 C 0.59576 0.82079 0.85127 0.0
C37 C 0.50817 0.82409 0.86189 0.0
O38 O 0.55628 0.79285 0.87508 0.0
O39 O 0.54052 0.79508 0.9099 0.0
O40 O 0.56627 0.85946 0.86768 0.0
O41 O 0.55828 0.84082 0.89742 0.0
Co42 Co 0.52179 0.26078 0.19936 0.0
O43 O 0.48914 0.26093 0.19184 0.0
O44 O 0.50296 0.2534 0.22634 0.0
C45 C 0.53186 0.29511 0.18531 0.0
O46 O 0.55616 0.26114 0.21373 0.0
Co47 Co 0.55236 0.26339 0.15799 0.0
O48 O 0.57785 0.26926 0.1843 0.0
C49 C 0.52383 0.21893 0.16292 0.0
C50 C 0.48528 0.25715 0.21337 0.0
C51 C 0.576 0.26546 0.20601 0.0
O52 O 0.51771 0.22721 0.18313 0.0
O53 O 0.53567 0.23116 0.14983 0.0
O54 O 0.52702 0.29428 0.20721 0.0
O55 O 0.52961 0.27564 0.17262 0.0
Co56 Co 0.06773 0.80645 0.1188 0.0
O57 O 0.03511 0.80327 0.11302 0.0
O58 O 0.054 0.79804 0.14702 0.0
C59 C 0.07362 0.84257 0.10349 0.0
O60 O 0.10047 0.80948 0.13615 0.0
Co61 Co 0.09672 0.80488 0.08532 0.0
O62 O 0.12339 0.80529 0.10896 0.0
C63 C 0.07417 0.75994 0.09143 0.0
C64 C 0.03484 0.79876 0.13514 0.0
C65 C 0.12011 0.80754 0.13091 0.0
O66 O 0.06458 0.77141 0.10668 0.0
O67 O 0.08851 0.7706 0.07966 0.0
O68 O 0.07055 0.83982 0.12554 0.0
O69 O 0.07345 0.82337 0.09001 0.0
Co70 Co 0.51607 0.78093 0.44493 0.0
O71 O 0.54896 0.78736 0.45062 0.0
O72 O 0.52849 0.77159 0.41603 0.0
C73 C 0.51302 0.81758 0.46213 0.0
O74 O 0.48274 0.77359 0.42802 0.0
Co75 Co 0.48607 0.77631 0.47953 0.0
O76 O 0.46194 0.78269 0.4559 0.0
C77 C 0.50713 0.73724 0.47232 0.0
C78 C 0.54834 0.77924 0.42802 0.0
C79 C 0.46411 0.77839 0.43371 0.0
O80 O 0.51585 0.74837 0.4558 0.0
O81 O 0.49398 0.74586 0.48504 0.0
O82 O 0.5169 0.8128 0.44011 0.0
O83 O 0.51183 0.80028 0.47452 0.0
Co84 Co 0.56687 0.30475 0.61772 0.0
O85 O 0.53404 0.30006 0.61139 0.0
O86 O 0.55319 0.29713 0.64615 0.0
C87 C 0.57174 0.34054 0.60188 0.0
O88 O 0.59959 0.30902 0.63545 0.0
Co89 Co 0.59649 0.30423 0.58439 0.0
O90 O 0.62261 0.30367 0.60861 0.0
C91 C 0.57311 0.25898 0.58896 0.0
C92 C 0.53391 0.29679 0.63392 0.0
C93 C 0.61917 0.30661 0.63047 0.0
O94 O 0.56498 0.26981 0.60613 0.0
O95 O 0.58592 0.27035 0.57615 0.0
O96 O 0.5686 0.33793 0.62391 0.0
O97 O 0.57225 0.3214 0.58872 0.0
Co98 Co 0.01562 0.28104 0.9444 0.0
O99 O 0.04844 0.28688 0.95054 0.0
O100 O 0.02804 0.27187 0.91558 0.0
C101 C 0.0126 0.31757 0.96164 0.0
O102 O 0.9825 0.27432 0.92733 0.0
Co103 Co 0.98554 0.27657 0.97937 0.0
O104 O 0.95998 0.27875 0.95506 0.0
C105 C 1.00708 0.23786 0.97235 0.0
C106 C 0.04784 0.27909 0.92784 0.0
C107 C 0.96291 0.27605 0.93294 0.0
O108 O 0.01481 0.24833 0.95493 0.0
O109 O 0.99482 0.24705 0.98581 0.0
O110 O 0.01694 0.31301 0.93977 0.0
O111 O 1.01132 0.30022 0.97396 0.0
Co112 Co 0.39437 0.02748 0.31854 0.0
O113 O 0.39824 0.05918 0.31884 0.0
O114 O 0.3658 0.03361 0.30834 0.0
C115 C 0.41422 0.02962 0.35433 0.0
O116 O 0.38443 0.99384 0.3163 0.0
Co117 Co 0.4363 1.00456 0.32186 0.0
O118 O 0.41362 0.97632 0.32087 0.0
C119 C 0.41807 0.01837 0.27571 0.0
C120 C 0.37676 0.05462 0.3116 0.0
C121 C 0.39264 0.97601 0.31711 0.0
O122 O 0.40111 0.02402 0.2844 0.0
O123 O 0.43422 0.01229 0.28813 0.0
O124 O 0.39317 0.03088 0.35326 0.0
O125 O 0.42255 0.02867 0.33425 0.0
Co126 Co 0.27487 0.18066 0.51354 0.0
O127 O 0.3075 0.18668 0.51797 0.0
O128 O 0.28525 0.15457 0.52313 0.0
C129 C 0.27172 0.19474 0.47708 0.0
O130 O 0.24148 0.16577 0.50997 0.0
Co131 Co 0.24614 0.21588 0.51111 0.0
O132 O 0.21924 0.19099 0.5081 0.0
C133 C 0.26972 0.21169 0.55869 0.0
C134 C 0.30549 0.16591 0.52295 0.0
C135 C 0.22191 0.1707 0.50854 0.0
O136 O 0.27489 0.19328 0.5491 0.0
O137 O 0.26 0.22424 0.54593 0.0
O138 O 0.27479 0.17424 0.47843 0.0
O139 O 0.27161 0.20668 0.49771 0.0
Co140 Co 0.14771 0.05499 0.80174 0.0
O141 O 0.14208 0.02203 0.7978 0.0
O142 O 0.17386 0.04476 0.79285 0.0
C143 C 0.13343 0.0579 0.83803 0.0
O144 O 0.16223 0.08869 0.80458 0.0
Co145 Co 0.1137 0.08463 0.80469 0.0
O146 O 0.13848 0.1119 0.80969 0.0
C147 C 0.11752 0.06098 0.75661 0.0
C148 C 0.16274 0.02432 0.79324 0.0
C149 C 0.15818 0.10879 0.80757 0.0
O150 O 0.13502 0.05434 0.76609 0.0
O151 O 0.10594 0.07176 0.76952 0.0
O152 O 0.15407 0.05585 0.83706 0.0
O153 O 0.1218 0.05802 0.81726 0.0
Co154 Co 0.30327 0.94065 0.99359 0.0
O155 O 0.27149 0.93501 0.99004 0.0
O156 O 0.29495 0.96819 0.00472 0.0
C157 C 0.30597 0.92383 0.95747 0.0
O158 O 0.33651 0.9524 0.9995 0.0
Co159 Co 0.32765 0.89943 0.99128 0.0
O160 O 0.35506 0.92364 0.99555 0.0
C161 C 0.30779 0.91305 0.03463 0.0
C162 C 0.27458 0.95628 0.99898 0.0
C163 C 0.35449 0.94462 0.99962 0.0
O164 O 0.30397 0.93128 0.02683 0.0
O165 O 0.31503 0.89756 0.02238 0.0
O166 O 0.30291 0.94459 0.95952 0.0
O167 O 0.30494 0.91356 0.9764 0.0
Co168 Co 0.30638 0.3961 0.04175 0.0
O169 O 0.27391 0.38988 0.03795 0.0
O170 O 0.29618 0.42328 0.05225 0.0
C171 C 0.30851 0.3789 0.00393 0.0
O172 O 0.34005 0.41064 0.04709 0.0
Co173 Co 0.33439 0.36001 0.04119 0.0
O174 O 0.3594 0.3844 0.03588 0.0
C175 C 0.31341 0.36983 0.08499 0.0
C176 C 0.27598 0.41125 0.04596 0.0
C177 C 0.35836 0.40505 0.04171 0.0
O178 O 0.30681 0.38643 0.07566 0.0
O179 O 0.32403 0.35661 0.07377 0.0
O180 O 0.30575 0.3997 0.00749 0.0
O181 O 0.30888 0.36855 0.02308 0.0
Co182 Co 0.78243 0.13451 0.05599 0.0
O183 O 0.81413 0.13924 0.06292 0.0
O184 O 0.78982 0.10713 0.06532 0.0
C185 C 0.78195 0.14994 0.02186 0.0
O186 O 0.74896 0.12394 0.0502 0.0
Co187 Co 0.75997 0.17697 0.0539 0.0
O188 O 0.7318 0.15369 0.04864 0.0
C189 C 0.78215 0.16618 0.09921 0.0
C190 C 0.81051 0.1184 0.06767 0.0
C191 C 0.73135 0.13249 0.04825 0.0
O192 O 0.78095 0.14566 0.09017 0.0
O193 O 0.77746 0.18178 0.08705 0.0
O194 O 0.78401 0.12891 0.02131 0.0
O195 O 0.78223 0.16113 0.04279 0.0
Co196 Co 0.19175 0.54691 0.25933 0.0
O197 O 0.1883 0.51517 0.25442 0.0
O198 O 0.21894 0.54013 0.2492 0.0
C199 C 0.17802 0.54683 0.29438 0.0
O200 O 0.20032 0.58093 0.2632 0.0
Co201 Co 0.14874 0.56777 0.26467 0.0
O202 O 0.17063 0.59709 0.26885 0.0
C203 C 0.15651 0.54242 0.221 0.0
C204 C 0.20893 0.5192 0.24998 0.0
C205 C 0.19137 0.59832 0.26668 0.0
O206 O 0.17787 0.54652 0.22587 0.0
O207 O 0.1438 0.54185 0.23764 0.0
O208 O 0.19932 0.54709 0.29425 0.0
O209 O 0.1662 0.54599 0.27381 0.0
Co210 Co 0.80689 0.89471 0.54091 0.0
O211 O 0.77446 0.88822 0.53618 0.0
O212 O 0.79627 0.92137 0.5524 0.0
C213 C 0.80991 0.87885 0.5028 0.0
O214 O 0.84043 0.90931 0.54743 0.0
Co215 Co 0.83517 0.85875 0.53938 0.0
O216 O 0.85946 0.88373 0.53347 0.0
C217 C 0.81311 0.86683 0.58283 0.0
C218 C 0.77621 0.90926 0.54524 0.0
C219 C 0.85843 0.90414 0.54066 0.0
O220 O 0.80684 0.8839 0.57422 0.0
O221 O 0.82373 0.85386 0.57124 0.0
O222 O 0.80699 0.89955 0.50698 0.0
O223 O 0.80991 0.86786 0.52148 0.0
Co224 Co 0.93428 0.02165 0.27396 0.0
O225 O 0.93996 0.05447 0.2785 0.0
O226 O 0.90794 0.03194 0.261 0.0
C227 C 0.94936 0.01958 0.31268 0.0
O228 O 0.9201 0.98751 0.26773 0.0
Co229 Co 0.96996 0.99327 0.2786 0.0
O230 O 0.94496 0.96819 0.28257 0.0
C231 C 0.96478 0.01636 0.23479 0.0
C232 C 0.91932 0.05238 0.26863 0.0
C233 C 0.9249 0.96918 0.27467 0.0
O234 O 0.94656 0.02167 0.24123 0.0
O235 O 0.97701 1.00627 0.24815 0.0
O236 O 0.92865 0.02172 0.30788 0.0
O237 O 0.96049 0.01937 0.29435 0.0
Co238 Co 0.28091 0.63633 0.55613 0.0
O239 O 0.3125 0.63979 0.56301 0.0
O240 O 0.28704 0.60885 0.56657 0.0
C241 C 0.28155 0.64984 0.52096 0.0
O242 O 0.24733 0.62688 0.5502 0.0
Co243 Co 0.2596 0.67901 0.55004 0.0
O244 O 0.23107 0.65627 0.54272 0.0
C245 C 0.28073 0.67055 0.59725 0.0
C246 C 0.30798 0.61899 0.56773 0.0
C247 C 0.23007 0.63535 0.54484 0.0
O248 O 0.27978 0.64963 0.58975 0.0
O249 O 0.27617 0.6852 0.58364 0.0
O250 O 0.28238 0.62865 0.52172 0.0
O251 O 0.28196 0.66224 0.54122 0.0
Co252 Co 0.43498 0.52253 0.77386 0.0
O253 O 0.44084 0.55538 0.77877 0.0
O254 O 0.40839 0.53302 0.76226 0.0
C255 C 0.45132 0.51945 0.81188 0.0
O256 O 0.42063 0.48867 0.76757 0.0
Co257 Co 0.47088 0.49431 0.77505 0.0
O258 O 0.4462 0.46782 0.7761 0.0
C259 C 0.46387 0.51863 0.73295 0.0
C260 C 0.41999 0.55342 0.76961 0.0
C261 C 0.42586 0.46952 0.77084 0.0
O262 O 0.44552 0.52263 0.74029 0.0
O263 O 0.47745 0.50931 0.7455 0.0
O264 O 0.43071 0.52213 0.80809 0.0
O265 O 0.46182 0.51972 0.79301 0.0
Co266 Co 0.69264 0.04657 0.75735 0.0
O267 O 0.68984 0.01499 0.7472 0.0
O268 O 0.72113 0.04168 0.74983 0.0
C269 C 0.67461 0.0421 0.78949 0.0
O270 O 0.70191 0.08027 0.76739 0.0
Co271 Co 0.65099 0.06907 0.76137 0.0
O272 O 0.67324 0.09622 0.77697 0.0
C273 C 0.66436 0.05398 0.71401 0.0
C274 C 0.71111 0.02038 0.74521 0.0
C275 C 0.69401 0.09734 0.77546 0.0
O276 O 0.68345 0.05112 0.72343 0.0
O277 O 0.64891 0.05882 0.72603 0.0
O278 O 0.69583 0.04141 0.79122 0.0
O279 O 0.66501 0.04402 0.76839 0.0
Co280 Co 0.77646 0.67937 0.01176 0.0
O281 O 0.80891 0.68597 0.01416 0.0
O282 O 0.78779 0.65338 0.02024 0.0
C283 C 0.77151 0.69423 0.97597 0.0
O284 O 0.74347 0.66404 0.00992 0.0
Co285 Co 0.74672 0.71353 0.01212 0.0
O286 O 0.72024 0.68781 0.00443 0.0
C287 C 0.77235 0.70877 0.05832 0.0
C288 C 0.80758 0.66526 0.01908 0.0
C289 C 0.72354 0.66792 0.00643 0.0
O290 O 0.7779 0.69109 0.04763 0.0
O291 O 0.76147 0.72134 0.04688 0.0
O292 O 0.77472 0.67366 0.97641 0.0
O293 O 0.77202 0.70568 0.99705 0.0
Co294 Co 0.89388 0.52952 0.82156 0.0
O295 O 0.90001 0.56143 0.82302 0.0
O296 O 0.86676 0.53774 0.80982 0.0
C297 C 0.91091 0.53037 0.85809 0.0
O298 O 0.88168 0.49623 0.81811 0.0
Co299 Co 0.93218 0.50248 0.82743 0.0
O300 O 0.90761 0.47768 0.83271 0.0
C301 C 0.92024 0.52029 0.78136 0.0
C302 C 0.87882 0.55829 0.81484 0.0
C303 C 0.8875 0.47844 0.82474 0.0
O304 O 0.90303 0.52665 0.78861 0.0
O305 O 0.9342 0.51169 0.79429 0.0
O306 O 0.89001 0.5322 0.85543 0.0
O307 O 0.92082 0.52872 0.83902 0.0
Co308 Co 0.79888 0.43935 0.49462 0.0
O309 O 0.76741 0.43588 0.49127 0.0
O310 O 0.79257 0.46702 0.50861 0.0
C311 C 0.79962 0.42531 0.45737 0.0
O312 O 0.83224 0.44857 0.50016 0.0
Co313 Co 0.82066 0.39672 0.486 0.0
O314 O 0.84833 0.42001 0.48676 0.0
C315 C 0.80404 0.40887 0.53247 0.0
C316 C 0.77174 0.4569 0.50126 0.0
C317 C 0.84938 0.44062 0.49536 0.0
O318 O 0.79905 0.42718 0.52616 0.0
O319 O 0.81139 0.39436 0.51884 0.0
O320 O 0.79866 0.44655 0.4618 0.0
O321 O 0.79832 0.41307 0.47479 0.0
Co322 Co 0.64781 0.55076 0.30264 0.0
O323 O 0.64228 0.51774 0.29965 0.0
O324 O 0.67392 0.54024 0.29429 0.0
C325 C 0.63297 0.55469 0.33847 0.0
O326 O 0.6625 0.58423 0.30489 0.0
Co327 Co 0.61411 0.58098 0.30406 0.0
O328 O 0.63946 0.60787 0.31161 0.0
C329 C 0.61792 0.55563 0.2569 0.0
C330 C 0.66297 0.51982 0.29517 0.0
C331 C 0.65896 0.60441 0.30895 0.0
O332 O 0.63566 0.54967 0.26678 0.0
O333 O 0.60603 0.56653 0.26927 0.0
O334 O 0.6536 0.55232 0.3381 0.0
O335 O 0.62173 0.55449 0.3174 0.0
Eu336 Eu 0.0716 0.05404 0.05065 0.0
C337 C 1.00156 0.97575 0.98616 0.0
N338 N 0.0126 0.99667 0.98246 0.0
C339 C 0.01747 0.98152 0.94241 0.0
C340 C 0.9987 0.95675 0.96827 0.0
C341 C 0.01965 0.99991 0.96053 0.0
C342 C 1.00723 0.95979 0.94641 0.0
C343 C 0.97873 0.9526 0.01084 0.0
C344 C 0.99172 0.97362 0.00725 0.0
C345 C 0.97671 0.93346 0.99354 0.0
C346 C 0.98667 0.93553 0.97231 0.0
Eu347 Eu 0.01478 0.02646 0.0145 0.0
N348 N 0.99371 0.99243 0.02358 0.0
C349 C 0.96735 0.95168 0.03121 0.0
C350 C 0.98111 0.99209 0.04215 0.0
C351 C 0.96818 0.97165 0.04666 0.0
H352 H 0.02622 0.01668 0.95638 0.0
H353 H 0.95849 0.97139 0.06172 0.0
H354 H 0.06881 0.06376 0.11094 0.0
H355 H 0.10787 0.11183 0.9903 0.0
H356 H 0.9805 1.00773 0.05304 0.0
H357 H 0.9571 0.93589 0.03455 0.0
H358 H 0.09176 0.07501 0.00236 0.0
H359 H 0.02327 0.98421 0.92517 0.0
H360 H 0.9669 0.91714 0.99605 0.0
H361 H 0.9844 0.92074 0.9588 0.0
H362 H 0.07719 0.09621 0.14332 0.0
H363 H 1.00527 0.94563 0.93217 0.0
H364 H 0.11493 0.14658 0.02008 0.0
N365 N 0.07739 0.08393 0.08307 0.0
C366 C 0.08663 0.1049 0.07779 0.0
C367 C 0.0796 0.09895 0.12492 0.0
C368 C 0.09232 0.12384 0.09603 0.0
C369 C 0.07436 0.08064 0.10635 0.0
C370 C 0.08845 0.12066 0.11972 0.0
N371 N 0.08636 0.08874 0.03709 0.0
C372 C 0.09306 0.09005 0.01478 0.0
C373 C 0.1017 0.12875 0.04863 0.0
C374 C 0.0914 0.10734 0.05429 0.0
C375 C 0.10701 0.13044 0.02511 0.0
C376 C 0.10291 0.11093 0.0082 0.0
H377 H 0.09275 0.13477 0.13423 0.0
H378 H 0.10673 0.15991 0.10409 0.0
H379 H 0.1148 0.16421 0.06262 0.0
O380 O 0.10303 0.0459 0.04121 0.0
O381 O 0.04922 0.08003 0.04044 0.0
O382 O 0.02754 0.06257 0.00515 0.0
O383 O 0.1009 0.0602 0.07786 0.0
O384 O 0.07161 0.03551 0.01242 0.0
O385 O 0.04024 0.04285 0.9922 0.0
O386 O 0.9854 0.04014 0.02151 0.0
O387 O 0.0344 0.99935 0.02798 0.0
O388 O 0.06067 0.01751 0.06035 0.0
O389 O 0.98685 0.02203 0.98554 0.0
O390 O 0.01335 0.03975 0.05432 0.0
O391 O 0.04761 0.03952 0.07577 0.0
C392 C 0.03665 0.08139 0.01999 0.0
C393 C 0.12452 0.03447 0.07313 0.0
C394 C 0.15402 0.01362 0.06993 0.0
C395 C 0.14937 1.00422 0.0911 0.0
C396 C 0.11932 0.02471 0.09406 0.0
C397 C 0.13186 0.00966 0.10304 0.0
C398 C 0.14167 0.02872 0.06111 0.0
C399 C 0.06043 0.03888 0.99219 0.0
C400 C 0.1129 0.05109 0.06355 0.0
C401 C 0.10224 0.14521 0.09028 0.0
C402 C 0.10687 0.14766 0.06666 0.0
C403 C 0.0489 0.99848 0.04723 0.0
C404 C 0.95329 0.03642 0.99081 0.0
C405 C 0.92072 0.0516 0.9991 0.0
C406 C 0.91038 0.04313 0.97529 0.0
C407 C 0.94299 0.02805 0.96706 0.0
C408 C 0.94225 0.04837 0.00659 0.0
C409 C 0.92159 0.03151 0.95934 0.0
C410 C 0.02604 0.03928 0.07481 0.0
C411 C 0.97551 0.03283 0.99938 0.0
H412 H 0.15905 0.99253 0.09812 0.0
H413 H 0.10581 0.02882 0.10354 0.0
H414 H 0.12805 1.00227 0.11924 0.0
H415 H 0.14566 0.03629 0.04497 0.0
H416 H 0.89357 0.0452 0.96912 0.0
H417 H 0.95141 0.01884 0.95453 0.0
H418 H 0.95047 0.05529 0.02476 0.0
H419 H 0.9136 0.02501 0.94104 0.0
Eu420 Eu 0.27049 0.78702 0.31272 0.0
C421 C 0.32457 0.7514 0.22419 0.0
N422 N 0.33296 0.76783 0.24323 0.0
C423 C 0.36614 0.75263 0.25005 0.0
C424 C 0.33648 0.73438 0.21775 0.0
C425 C 0.35347 0.76885 0.25609 0.0
C426 C 0.35755 0.73522 0.2309 0.0
C427 C 0.29428 0.73411 0.19208 0.0
C428 C 0.30375 0.75137 0.21155 0.0
C429 C 0.30585 0.71682 0.18591 0.0
C430 C 0.32695 0.71702 0.19863 0.0
Eu431 Eu 0.31024 0.79355 0.25397 0.0
N432 N 0.29289 0.76827 0.21814 0.0
C433 C 0.27356 0.73484 0.17921 0.0
C434 C 0.27347 0.76987 0.20435 0.0
C435 C 0.26332 0.75301 0.18512 0.0
H436 H 0.36001 0.78213 0.2711 0.0
H437 H 0.24769 0.7542 0.1747 0.0
H438 H 0.21999 0.79865 0.2966 0.0
H439 H 0.33373 0.82498 0.39156 0.0
H440 H 0.26564 0.78415 0.20746 0.0
H441 H 0.26566 0.72183 0.16426 0.0
H442 H 0.31605 0.79619 0.35744 0.0
H443 H 0.38241 0.75345 0.26031 0.0
H444 H 0.29873 0.70336 0.17114 0.0
H445 H 0.33576 0.70368 0.19354 0.0
H446 H 0.1972 0.82608 0.30965 0.0
H447 H 0.36728 0.72252 0.22644 0.0
H448 H 0.3142 0.85524 0.40532 0.0
N449 N 0.24683 0.81141 0.32521 0.0
C450 C 0.25463 0.82638 0.34574 0.0
C451 C 0.21339 0.82645 0.31985 0.0
C452 C 0.24244 0.84278 0.3534 0.0
C453 C 0.22639 0.81099 0.31245 0.0
C454 C 0.22153 0.84256 0.34027 0.0
N455 N 0.28736 0.81073 0.34971 0.0
C456 C 0.3075 0.80956 0.36225 0.0
C457 C 0.28495 0.84281 0.37831 0.0
C458 C 0.27556 0.82619 0.35824 0.0
C459 C 0.30632 0.84262 0.39002 0.0
C460 C 0.31746 0.82569 0.38219 0.0
H461 H 0.21161 0.85481 0.34565 0.0
H462 H 0.2427 0.87215 0.3794 0.0
H463 H 0.28001 0.87235 0.40099 0.0
O464 O 0.26961 0.75868 0.33352 0.0
O465 O 0.2834 0.82416 0.31249 0.0
O466 O 0.29507 0.80573 0.28411 0.0
O467 O 0.23844 0.76693 0.31856 0.0
O468 O 0.30672 0.77903 0.31736 0.0
O469 O 0.33017 0.79873 0.2924 0.0
O470 O 0.31144 0.82172 0.23348 0.0
O471 O 0.30248 0.75828 0.26393 0.0
O472 O 0.2719 0.76723 0.27687 0.0
O473 O 0.3426 0.81533 0.25066 0.0
O474 O 0.27451 0.80164 0.2467 0.0
O475 O 0.25062 0.78863 0.27514 0.0
C476 C 0.29481 0.8255 0.29493 0.0
C477 C 0.24043 0.75541 0.35735 0.0
C478 C 0.24504 0.74356 0.39708 0.0
C479 C 0.23 0.75679 0.40483 0.0
C480 C 0.22528 0.76864 0.36499 0.0
C481 C 0.22006 0.76921 0.3887 0.0
C482 C 0.25006 0.74288 0.37341 0.0
C483 C 0.32705 0.78773 0.31158 0.0
C484 C 0.24789 0.75548 0.33349 0.0
C485 C 0.2517 0.85923 0.37346 0.0
C486 C 0.27295 0.85934 0.38577 0.0
C487 C 0.2848 0.75264 0.27457 0.0
C488 C 0.34178 0.82831 0.21206 0.0
C489 C 0.3357 0.83897 0.17173 0.0
C490 C 0.35319 0.82858 0.16503 0.0
C491 C 0.35928 0.81795 0.20538 0.0
C492 C 0.33037 0.83898 0.19526 0.0
C493 C 0.36501 0.81825 0.18191 0.0
C494 C 0.25431 0.79684 0.25432 0.0
C495 C 0.33326 0.82657 0.23531 0.0
H496 H 0.22574 0.7572 0.42312 0.0
H497 H 0.2177 0.77869 0.35288 0.0
H498 H 0.20837 0.77933 0.39458 0.0
H499 H 0.26196 0.73289 0.36759 0.0
H500 H 0.35788 0.82872 0.14695 0.0
H501 H 0.3682 0.80936 0.21803 0.0
H502 H 0.3166 0.84665 0.20031 0.0
H503 H 0.37849 0.8103 0.17672 0.0
Eu504 Eu 0.509 0.03654 0.54591 0.0
C505 C 0.58868 0.08454 0.49783 0.0
N506 N 0.57483 0.06376 0.49035 0.0
C507 C 0.56912 0.07355 0.4499 0.0
C508 C 0.59197 0.10102 0.48174 0.0
C509 C 0.56651 0.05768 0.46624 0.0
C510 C 0.58148 0.09546 0.45779 0.0
C511 C 0.61587 0.1102 0.52873 0.0
C512 C 0.60094 0.08908 0.5211 0.0
C513 C 0.61815 0.12683 0.51306 0.0
C514 C 0.60632 0.12224 0.48964 0.0
Eu515 Eu 0.57258 0.0389 0.52071 0.0
N516 N 0.59845 0.07286 0.53628 0.0
C517 C 0.6284 0.11391 0.55182 0.0
C518 C 0.61164 0.07587 0.5582 0.0
C519 C 0.62648 0.09657 0.56649 0.0
H520 H 0.55839 0.04048 0.45888 0.0
H521 H 0.63641 0.09914 0.58417 0.0
H522 H 0.5196 0.0405 0.60855 0.0
H523 H 0.44186 0.97709 0.48593 0.0
H524 H 0.61035 0.0625 0.56945 0.0
H525 H 0.63993 0.12995 0.55831 0.0
H526 H 0.46922 0.01339 0.49895 0.0
H527 H 0.56202 0.06868 0.43105 0.0
H528 H 0.62944 0.14318 0.51869 0.0
H529 H 0.60883 0.13505 0.47754 0.0
H530 H 0.51394 0.01479 0.63929 0.0
H531 H 0.58371 0.10761 0.44493 0.0
H532 H 0.43701 0.94789 0.5137 0.0
N533 N 0.50304 0.01538 0.57887 0.0
C534 C 0.48881 0.9947 0.57257 0.0
C535 C 0.50716 1.00876 0.62052 0.0
C536 C 0.48448 0.97971 0.58997 0.0
C537 C 0.51076 0.02315 0.60279 0.0
C538 C 0.49442 0.98676 0.61399 0.0
N539 N 0.48073 1.00393 0.53271 0.0
C540 C 0.46761 1.00042 0.51077 0.0
C541 C 0.46154 0.96818 0.54258 0.0
C542 C 0.47719 0.98897 0.54908 0.0
C543 C 0.4492 0.96366 0.51934 0.0
C544 C 0.45193 0.98006 0.50356 0.0
H545 H 0.4915 0.97573 0.62784 0.0
H546 H 0.46643 0.94678 0.59624 0.0
H547 H 0.44649 0.93665 0.55478 0.0
O548 O 0.47931 0.04846 0.53106 0.0
O549 O 0.51361 1.00127 0.52593 0.0
O550 O 0.55171 1.0022 0.52111 0.0
O551 O 0.49409 0.05919 0.56863 0.0
O552 O 0.52706 0.04672 0.51543 0.0
O553 O 0.54394 0.02677 0.49128 0.0
O554 O 0.60343 0.02662 0.53352 0.0
O555 O 0.56683 0.07171 0.54468 0.0
O556 O 0.52862 0.07106 0.53774 0.0
O557 O 0.59137 0.02504 0.49491 0.0
O558 O 0.5558 0.02455 0.5507 0.0
O559 O 0.5386 0.04502 0.57495 0.0
C560 C 0.53043 0.99099 0.52054 0.0
C561 C 0.45575 0.05926 0.55918 0.0
C562 C 0.42338 0.0769 0.56137 0.0
C563 C 0.41586 0.06238 0.57811 0.0
C564 C 0.44793 0.04465 0.57563 0.0
C565 C 0.42801 0.04625 0.58503 0.0
C566 C 0.44329 0.07508 0.55177 0.0
C567 C 0.52577 0.03319 0.49569 0.0
C568 C 0.47799 0.06011 0.55166 0.0
C569 C 0.46969 0.95856 0.58315 0.0
C570 C 0.45827 0.9528 0.55955 0.0
C571 C 0.54957 0.08231 0.54529 0.0
C572 C 0.62527 0.01158 0.50327 0.0
C573 C 0.65421 0.98955 0.50912 0.0
C574 C 0.65875 0.99144 0.48533 0.0
C575 C 0.6302 0.01345 0.47951 0.0
C576 C 0.63753 0.99974 0.51826 0.0
C577 C 0.64684 1.00342 0.47065 0.0
C578 C 0.55601 0.03636 0.57144 0.0
C579 C 0.60637 0.0209 0.51115 0.0
H580 H 0.4005 0.06342 0.58571 0.0
H581 H 0.45748 0.03245 0.58163 0.0
H582 H 0.42211 0.03518 0.59796 0.0
H583 H 0.44955 0.08658 0.53931 0.0
H584 H 0.67162 0.98363 0.47815 0.0
H585 H 0.62103 0.0225 0.46761 0.0
H586 H 0.6338 0.99797 0.53651 0.0
H587 H 0.65041 1.00482 0.4523 0.0
Eu588 Eu 0.32426 0.27675 0.78753 0.0
C589 C 0.23958 0.30934 0.73593 0.0
N590 N 0.25477 0.31981 0.75537 0.0
C591 C 0.25762 0.35537 0.73947 0.0
C592 C 0.23322 0.3215 0.71712 0.0
C593 C 0.2633 0.34265 0.75775 0.0
C594 C 0.24269 0.34472 0.71895 0.0
C595 C 0.21371 0.27519 0.71554 0.0
C596 C 0.23007 0.28642 0.735 0.0
C597 C 0.2077 0.28712 0.69652 0.0
C598 C 0.21748 0.31019 0.69727 0.0
Eu599 Eu 0.26431 0.29631 0.78427 0.0
N600 N 0.23687 0.27509 0.75318 0.0
C601 C 0.20389 0.25229 0.71584 0.0
C602 C 0.22674 0.25315 0.75415 0.0
C603 C 0.21029 0.24129 0.73538 0.0
H604 H 0.27434 0.35125 0.77382 0.0
H605 H 0.20249 0.22375 0.73606 0.0
H606 H 0.31273 0.22184 0.79887 0.0
H607 H 0.38387 0.35003 0.83709 0.0
H608 H 0.23101 0.24502 0.76966 0.0
H609 H 0.19126 0.24305 0.70123 0.0
H610 H 0.35584 0.32866 0.80306 0.0
H611 H 0.26466 0.37342 0.7413 0.0
H612 H 0.1954 0.27871 0.68123 0.0
H613 H 0.21254 0.31922 0.68256 0.0
H614 H 0.32136 0.20023 0.83218 0.0
H615 H 0.23829 0.35465 0.70485 0.0
H616 H 0.39421 0.3309 0.87238 0.0
N617 N 0.33171 0.25356 0.81741 0.0
C618 C 0.34638 0.26436 0.83719 0.0
C619 C 0.32833 0.21828 0.8339 0.0
C620 C 0.35225 0.25241 0.85638 0.0
C621 C 0.32318 0.23072 0.81518 0.0
C622 C 0.34277 0.22919 0.85467 0.0
N623 N 0.3493 0.29885 0.81987 0.0
C624 C 0.35963 0.32069 0.81884 0.0
C625 C 0.37178 0.29878 0.85795 0.0
C626 C 0.35582 0.28745 0.83819 0.0
C627 C 0.38178 0.32163 0.8576 0.0
C628 C 0.37587 0.33255 0.83781 0.0
H629 H 0.34683 0.21944 0.86906 0.0
H630 H 0.37212 0.25501 0.89147 0.0
H631 H 0.38935 0.29546 0.89272 0.0
O632 O 0.35166 0.2892 0.76683 0.0
O633 O 0.31258 0.28924 0.82366 0.0
O634 O 0.29034 0.3147 0.81512 0.0
O635 O 0.34926 0.25665 0.78001 0.0
O636 O 0.31944 0.30742 0.76863 0.0
O637 O 0.29532 0.3247 0.78906 0.0
O638 O 0.23749 0.2836 0.80571 0.0
O639 O 0.27398 0.28205 0.74752 0.0
O640 O 0.3008 0.25982 0.75384 0.0
O641 O 0.24507 0.31907 0.80055 0.0
O642 O 0.27117 0.2658 0.802 0.0
O643 O 0.29354 0.24767 0.78025 0.0
C644 C 0.30163 0.30505 0.83067 0.0
C645 C 0.36817 0.26158 0.7455 0.0
C646 C 0.39729 0.26256 0.71864 0.0
C647 C 0.38642 0.24078 0.7073 0.0
C648 C 0.35738 0.24 0.73342 0.0
C649 C 0.36652 0.2297 0.7145 0.0
C650 C 0.38805 0.27303 0.73776 0.0
C651 C 0.31271 0.32569 0.77713 0.0
C652 C 0.36019 0.27109 0.76763 0.0
C653 C 0.36752 0.2639 0.87651 0.0
C654 C 0.37734 0.28696 0.87723 0.0
C655 C 0.28637 0.26773 0.73957 0.0
C656 C 0.20824 0.3047 0.80859 0.0
C657 C 0.1744 0.3034 0.82849 0.0
C658 C 0.16508 0.31388 0.80979 0.0
C659 C 0.19827 0.31465 0.78983 0.0
C660 C 0.19604 0.29867 0.82776 0.0
C661 C 0.17686 0.31925 0.79052 0.0
C662 C 0.27537 0.24718 0.79093 0.0
C663 C 0.23221 0.30344 0.80989 0.0
H664 H 0.39341 0.23233 0.69279 0.0
H665 H 0.34214 0.23085 0.73896 0.0
H666 H 0.35832 0.2129 0.70559 0.0
H667 H 0.39665 0.28961 0.74705 0.0
H668 H 0.14856 0.31783 0.81006 0.0
H669 H 0.20732 0.31954 0.775 0.0
H670 H 0.20367 0.29123 0.84248 0.0
H671 H 0.16949 0.32734 0.77625 0.0
Eu672 Eu 0.05307 1.00724 0.5286 0.0
C673 C 0.02185 0.09034 0.58383 0.0
N674 N 1.01051 0.07602 0.56406 0.0
C675 C 0.9759 0.07439 0.58076 0.0
C676 C 1.01054 0.097 0.60313 0.0
C677 C 0.98783 0.0682 0.5621 0.0
C678 C 0.98731 0.08877 0.60142 0.0
C679 C 0.0571 0.11322 0.60508 0.0
C680 C 0.04491 0.09833 0.58481 0.0
C681 C 0.0459 0.11969 0.62444 0.0
C682 C 0.0227 0.11162 0.62346 0.0
Eu683 Eu 0.03222 0.06622 0.53395 0.0
N684 N 0.05545 0.09133 0.56606 0.0
C685 C 0.08017 0.12131 0.60518 0.0
C686 C 0.07761 0.10009 0.56549 0.0
C687 C 0.09038 0.11498 0.58513 0.0
H688 H 0.97883 0.05753 0.54595 0.0
H689 H 0.10807 0.12163 0.58474 0.0
H690 H 0.1067 0.01866 0.51662 0.0
H691 H 0.97838 0.95135 0.47621 0.0
H692 H 0.0854 0.09598 0.54983 0.0
H693 H 0.09013 0.13277 0.62041 0.0
H694 H 0.99988 0.97829 0.51079 0.0
H695 H 0.95791 0.06815 0.57915 0.0
H696 H 0.05502 0.13104 0.6402 0.0
H697 H 0.0143 0.11686 0.63849 0.0
H698 H 0.12824 1.00842 0.48397 0.0
H699 H 0.97801 0.09352 0.61585 0.0
H700 H 0.99776 0.93858 0.44237 0.0
N701 N 0.07552 0.99861 0.49873 0.0
C702 C 0.06484 0.98327 0.47941 0.0
C703 C 0.1104 1.00137 0.48238 0.0
C704 C 0.07665 0.97667 0.46052 0.0
C705 C 0.09805 1.00739 0.5007 0.0
C706 C 0.09965 0.98603 0.46214 0.0
N707 N 0.03069 0.98187 0.4962 0.0
C708 C 1.00834 0.97337 0.49594 0.0
C709 C 0.03039 0.95867 0.45831 0.0
C710 C 0.04192 0.97437 0.47831 0.0
C711 C 1.00724 0.95053 0.4575 0.0
C712 C 0.99621 0.95782 0.47647 0.0
H713 H 0.10929 0.98139 0.44798 0.0
H714 H 0.07398 0.95582 0.4259 0.0
H715 H 0.03354 0.94008 0.42398 0.0
O716 O 0.04303 0.97883 0.55022 0.0
O717 O 0.04062 0.01934 0.49257 0.0
O718 O 0.01435 0.03965 0.50307 0.0
O719 O 0.07623 0.98593 0.53835 0.0
O720 O 0.02213 0.00943 0.54741 0.0
O721 O 1.00437 0.03463 0.52886 0.0
O722 O 0.04251 0.09361 0.51102 0.0
O723 O 0.04326 0.05309 0.56965 0.0
O724 O 0.07042 0.03326 0.56049 0.0
O725 O 1.00949 0.08759 0.52348 0.0
O726 O 0.06251 0.063 0.51456 0.0
O727 O 0.08066 0.03914 0.53454 0.0
C728 C 0.02401 0.02962 0.4865 0.0
C729 C 0.06961 0.95389 0.56082 0.0
C730 C 0.06521 0.92338 0.58658 0.0
C731 C 0.08566 0.91843 0.58087 0.0
C732 C 0.09001 0.9483 0.55553 0.0
C733 C 0.0979 0.93076 0.56545 0.0
C734 C 0.05699 0.94116 0.57642 0.0
C735 C 1.00379 0.01665 0.54035 0.0
C736 C 0.06253 0.97313 0.54981 0.0
C737 C 0.06519 0.96103 0.44061 0.0
C738 C 0.04216 0.95201 0.43955 0.0
C739 C 0.06018 0.04351 0.57632 0.0
C740 C 0.01491 0.11652 0.49711 0.0
C741 C 0.02065 0.1491 0.47425 0.0
C742 C 0.99736 0.14806 0.47143 0.0
C743 C 0.99166 0.11596 0.49369 0.0
C744 C 0.02953 0.13311 0.48701 0.0
C745 C 0.98303 0.13159 0.48099 0.0
C746 C 0.08103 0.05654 0.52229 0.0
C747 C 0.02294 0.09924 0.5108 0.0
H748 H 0.09219 0.90486 0.58843 0.0
H749 H 0.10006 0.95754 0.54361 0.0
H750 H 0.11364 0.92674 0.56119 0.0
H751 H 0.04125 0.94516 0.5808 0.0
H752 H 0.99022 0.16012 0.46171 0.0
H753 H 0.97996 0.10333 0.50083 0.0
H754 H 0.04749 0.13378 0.48932 0.0
H755 H 0.9651 0.13096 0.47861 0.0
Eu756 Eu 0.29605 0.82213 0.76526 0.0
C757 C 0.24628 0.74096 0.81916 0.0
N758 N 0.26663 0.75537 0.82634 0.0
C759 C 0.25814 0.76016 0.86719 0.0
C760 C 0.23071 0.73655 0.83576 0.0
C761 C 0.27309 0.76402 0.85023 0.0
C762 C 0.23675 0.74666 0.85987 0.0
C763 C 0.22026 0.71466 0.78778 0.0
C764 C 0.24112 0.7298 0.79534 0.0
C765 C 0.20458 0.71097 0.80415 0.0
C766 C 0.2098 0.72181 0.82805 0.0
Eu767 Eu 0.28996 0.75964 0.79547 0.0
N768 N 0.25638 0.73381 0.77952 0.0
C769 C 0.21583 0.70344 0.76399 0.0
C770 C 0.25271 0.72189 0.75687 0.0
C771 C 0.23226 0.70685 0.74858 0.0
H772 H 0.28991 0.7735 0.8567 0.0
H773 H 0.22932 0.69768 0.73043 0.0
H774 H 0.28975 0.80494 0.70288 0.0
H775 H 0.35637 0.89455 0.81475 0.0
H776 H 0.26564 0.72352 0.74541 0.0
H777 H 0.2 0.6917 0.75754 0.0
H778 H 0.32049 0.866 0.80601 0.0
H779 H 0.26326 0.76733 0.886 0.0
H780 H 0.18844 0.69948 0.7986 0.0
H781 H 0.19764 0.7184 0.84057 0.0
H782 H 0.31417 0.80518 0.67117 0.0
H783 H 0.22528 0.74359 0.87315 0.0
H784 H 0.38455 0.89477 0.78632 0.0
N785 N 0.31587 0.82302 0.73084 0.0
C786 C 0.33686 0.83659 0.73523 0.0
C787 C 0.32091 0.81371 0.68923 0.0
C788 C 0.35101 0.83825 0.71691 0.0
C789 C 0.30725 0.81314 0.70765 0.0
C790 C 0.34306 0.82587 0.69402 0.0
N791 N 0.32965 0.84919 0.77467 0.0
C792 C 0.33329 0.86546 0.79429 0.0
C793 C 0.36404 0.86672 0.76126 0.0
C794 C 0.34359 0.85054 0.75736 0.0
C795 C 0.36904 0.88207 0.78268 0.0
C796 C 0.35328 0.88185 0.79894 0.0
H797 H 0.35346 0.82662 0.67955 0.0
H798 H 0.38332 0.85427 0.70775 0.0
H799 H 0.39458 0.87937 0.74647 0.0
O800 O 0.27935 0.84784 0.78197 0.0
O801 O 0.33012 0.81581 0.78481 0.0
O802 O 0.32656 0.78 0.7987 0.0
O803 O 0.28843 0.84931 0.74582 0.0
O804 O 0.28503 0.80975 0.79924 0.0
O805 O 0.30215 0.78955 0.82339 0.0
O806 O 0.30188 0.7284 0.78194 0.0
O807 O 0.25636 0.76997 0.77956 0.0
O808 O 0.25999 0.80029 0.75597 0.0
O809 O 0.30366 0.74023 0.82072 0.0
O810 O 0.30354 0.7741 0.76407 0.0
O811 O 0.28388 0.79084 0.73868 0.0
C812 C 0.3389 0.79971 0.79484 0.0
C813 C 0.25684 0.86374 0.75385 0.0
C814 C 0.23284 0.89139 0.75345 0.0
C815 C 0.21943 0.87849 0.73278 0.0
C816 C 0.24293 0.85065 0.73352 0.0
C817 C 0.22434 0.85808 0.72304 0.0
C818 C 0.25149 0.88392 0.76409 0.0
C819 C 0.29871 0.80913 0.81853 0.0
C820 C 0.27827 0.85798 0.76258 0.0
C821 C 0.37217 0.85306 0.72153 0.0
C822 C 0.37858 0.8674 0.74356 0.0
C823 C 0.24758 0.78345 0.76527 0.0
C824 C 0.31845 0.70677 0.81213 0.0
C825 C 0.33768 0.67538 0.80496 0.0
C826 C 0.34035 0.67401 0.82994 0.0
C827 C 0.32125 0.70481 0.83709 0.0
C828 C 0.32682 0.69194 0.79592 0.0
C829 C 0.33217 0.68862 0.84586 0.0
C830 C 0.29093 0.77277 0.74369 0.0
C831 C 0.30809 0.72542 0.80429 0.0
H832 H 0.20509 0.8842 0.7243 0.0
H833 H 0.24684 0.83507 0.72531 0.0
H834 H 0.21392 0.84817 0.70713 0.0
H835 H 0.26222 0.89418 0.77968 0.0
H836 H 0.34884 0.6615 0.83715 0.0
H837 H 0.31519 0.71599 0.85008 0.0
H838 H 0.325 0.69325 0.77668 0.0
H839 H 0.33433 0.68744 0.86509 0.0
Eu840 Eu 0.54082 0.05794 0.99973 0.0
C841 C 0.57782 1.00371 0.09085 0.0
N842 N 0.56214 0.99488 0.07142 0.0
C843 C 0.57843 0.96205 0.06537 0.0
C844 C 0.59496 0.99223 0.09797 0.0
C845 C 0.562 0.97426 0.05878 0.0
C846 C 0.59512 0.97116 0.08493 0.0
C847 C 0.59267 0.03389 0.124 0.0
C848 C 0.57663 0.02425 0.1036 0.0
C849 C 0.61023 0.02293 0.13072 0.0
C850 C 0.61133 1.00209 0.11779 0.0
Eu851 Eu 0.53649 0.01722 0.05923 0.0
N852 N 0.55946 0.03445 0.0965 0.0
C853 C 0.59034 0.05402 0.13733 0.0
C854 C 0.55616 0.05304 0.11078 0.0
C855 C 0.57174 0.06336 0.13097 0.0
H856 H 0.54927 0.96724 0.04349 0.0
H857 H 0.56922 0.07839 0.14179 0.0
H858 H 0.53082 0.10906 0.02021 0.0
H859 H 0.50335 1.00095 0.91632 0.0
H860 H 0.5414 0.05993 0.1073 0.0
H861 H 0.60234 0.062 0.15304 0.0
H862 H 0.53141 0.01583 0.95207 0.0
H863 H 0.57831 0.94572 0.05524 0.0
H864 H 0.62282 0.03021 0.14617 0.0
H865 H 0.62477 0.99365 0.12339 0.0
H866 H 0.50366 0.13304 0.01057 0.0
H867 H 0.60794 0.96175 0.08989 0.0
H868 H 0.47329 0.02163 0.90546 0.0
N869 N 0.51644 0.08287 0.99112 0.0
C870 C 0.50103 0.07626 0.97088 0.0
C871 C 0.50259 0.117 0.9994 0.0
C872 C 0.48517 0.0895 0.96467 0.0
C873 C 0.5178 0.10319 0.005 0.0
C874 C 0.48605 0.11002 0.9793 0.0
N875 N 0.51619 0.04336 0.96324 0.0
C876 C 0.51784 0.02446 0.94842 0.0
C877 C 0.48479 0.04838 0.93575 0.0
C878 C 0.50087 0.05593 0.95654 0.0
C879 C 0.48539 0.02805 0.92153 0.0
C880 C 0.50223 0.01625 0.92768 0.0
H881 H 0.4742 0.12071 0.9751 0.0
H882 H 0.45652 0.09172 0.93925 0.0
H883 H 0.45614 0.05571 0.91399 0.0
O884 O 0.56586 0.05789 0.97538 0.0
O885 O 0.50456 0.04409 0.00178 0.0
O886 O 0.52513 0.03143 0.02798 0.0
O887 O 0.56017 0.09004 0.99209 0.0
O888 O 0.54731 0.02096 0.99297 0.0
O889 O 0.53458 0.99674 0.02155 0.0
O890 O 0.50604 0.01497 0.07592 0.0
O891 O 0.57076 0.02511 0.04833 0.0
O892 O 0.5635 0.05677 0.03435 0.0
O893 O 0.5156 0.98406 0.06185 0.0
O894 O 0.52878 0.05325 0.06637 0.0
O895 O 0.54165 0.07754 0.0381 0.0
C896 C 0.50504 0.03192 0.01887 0.0
C897 C 0.57065 0.08811 0.95268 0.0
C898 C 0.58602 0.08681 0.9149 0.0
C899 C 0.57325 0.10219 0.90697 0.0
C900 C 0.55737 0.10315 0.94475 0.0
C901 C 0.5588 0.11023 0.92189 0.0
C902 C 0.58478 0.07998 0.93766 0.0
C903 C 0.5421 1.00055 1.00057 0.0
C904 C 0.57015 0.07995 0.97614 0.0
C905 C 0.46894 0.08185 0.94417 0.0
C906 C 0.46872 0.06133 0.92979 0.0
C907 C 0.577 0.04256 0.03706 0.0
C908 C 0.49998 0.9852 0.09864 0.0
C909 C 0.48573 0.99184 0.13674 0.0
C910 C 0.49999 0.97893 0.14737 0.0
C911 C 0.5143 0.97229 0.10923 0.0
C912 C 0.48528 0.9943 0.1123 0.0
C913 C 0.51401 0.96891 0.13349 0.0
C914 C 0.53348 0.07366 0.05884 0.0
C915 C 0.50259 0.99299 0.07516 0.0
H916 H 0.57428 0.10769 0.88927 0.0
H917 H 0.54601 0.10938 0.95608 0.0
H918 H 0.54871 0.12191 0.91574 0.0
H919 H 0.59498 0.06827 0.94375 0.0
H920 H 0.5003 0.97668 0.16633 0.0
H921 H 0.52616 0.96546 0.09911 0.0
H922 H 0.47459 1.00472 0.10431 0.0
H923 H 0.5251 0.95908 0.14173 0.0
Eu924 Eu 0.2754 0.25837 0.26542 0.0
C925 C 0.35709 0.32925 0.32277 0.0
N926 N 0.33705 0.319 0.32901 0.0
C927 C 0.35456 0.31871 0.36946 0.0
C928 C 0.37677 0.33427 0.3398 0.0
C929 C 0.33554 0.314 0.35204 0.0
C930 C 0.37528 0.32884 0.36332 0.0
C931 C 0.37874 0.34526 0.29248 0.0
C932 C 0.35802 0.33498 0.29932 0.0
C933 C 0.39826 0.35017 0.30945 0.0
C934 C 0.39726 0.3448 0.33304 0.0
Eu935 Eu 0.30562 0.31664 0.29963 0.0
N936 N 0.33882 0.3303 0.28317 0.0
C937 C 0.37927 0.35048 0.26879 0.0
C938 C 0.33919 0.33639 0.26045 0.0
C939 C 0.35938 0.34607 0.25273 0.0
H940 H 0.31955 0.30762 0.35749 0.0
H941 H 0.35948 0.35066 0.23457 0.0
H942 H 0.26818 0.26196 0.20523 0.0
H943 H 0.21667 0.21552 0.32006 0.0
H944 H 0.324 0.33472 0.24847 0.0
H945 H 0.39487 0.35828 0.26285 0.0
H946 H 0.25304 0.23644 0.31139 0.0
H947 H 0.35311 0.31498 0.38777 0.0
H948 H 0.41425 0.3582 0.30451 0.0
H949 H 0.41248 0.34886 0.34594 0.0
H950 H 0.23752 0.25485 0.17145 0.0
H951 H 0.38997 0.33269 0.37696 0.0
H952 H 0.18339 0.20805 0.28864 0.0
N953 N 0.24688 0.25366 0.23186 0.0
C954 C 0.22584 0.24365 0.23571 0.0
C955 C 0.23389 0.25212 0.18952 0.0
C956 C 0.2079 0.23795 0.2165 0.0
C957 C 0.25122 0.25697 0.20895 0.0
C958 C 0.21207 0.24281 0.19335 0.0
N959 N 0.24039 0.24199 0.27635 0.0
C960 C 0.2386 0.23376 0.29794 0.0
C961 C 0.20149 0.2251 0.26238 0.0
C962 C 0.22261 0.23725 0.25842 0.0
C963 C 0.19931 0.21751 0.28494 0.0
C964 C 0.21803 0.22168 0.30273 0.0
H965 H 0.19877 0.23854 0.17813 0.0
H966 H 0.17272 0.22207 0.2061 0.0
H967 H 0.16712 0.21088 0.24626 0.0
O968 O 0.28666 0.22827 0.27553 0.0
O969 O 0.24983 0.27717 0.28258 0.0
O970 O 0.26758 0.31252 0.30281 0.0
O971 O 0.26833 0.22758 0.23984 0.0
O972 O 0.29289 0.25927 0.30392 0.0
O973 O 0.28944 0.29278 0.32443 0.0
O974 O 0.30813 0.35219 0.29508 0.0
O975 O 0.3292 0.29173 0.28924 0.0
O976 O 0.31088 0.26993 0.25417 0.0
O977 O 0.30918 0.34216 0.33108 0.0
O978 O 0.28654 0.31731 0.26212 0.0
O979 O 0.28961 0.28375 0.2413 0.0
C980 C 0.24909 0.29669 0.29547 0.0
C981 C 0.29546 0.20549 0.24307 0.0
C982 C 0.31604 0.17559 0.24449 0.0
C983 C 0.32487 0.18096 0.22326 0.0
C984 C 0.3045 0.21145 0.22206 0.0
C985 C 0.31914 0.19902 0.21212 0.0
C986 C 0.30131 0.18774 0.25415 0.0
C987 C 0.28993 0.27115 0.32396 0.0
C988 C 0.27962 0.21696 0.25398 0.0
C989 C 0.18665 0.22659 0.22066 0.0
C990 C 0.18346 0.22017 0.24352 0.0
C991 C 0.32996 0.27917 0.26846 0.0
C992 C 0.29058 0.37166 0.32319 0.0
C993 C 0.2696 0.39934 0.31102 0.0
C994 C 0.25646 0.39572 0.32975 0.0
C995 C 0.27746 0.36791 0.3421 0.0
C996 C 0.2867 0.38764 0.30796 0.0
C997 C 0.2605 0.38003 0.34537 0.0
C998 C 0.28715 0.30481 0.24155 0.0
C999 C 0.3075 0.35839 0.31801 0.0
H1000 H 0.33629 0.17141 0.21558 0.0
H1001 H 0.30016 0.22545 0.21333 0.0
H1002 H 0.32598 0.20334 0.19582 0.0
H1003 H 0.29416 0.18319 0.27033 0.0
H1004 H 0.24325 0.40504 0.33228 0.0
H1005 H 0.2801 0.35553 0.35414 0.0
H1006 H 0.2967 0.39072 0.29333 0.0
H1007 H 0.2504 0.37715 0.35987 0.0
Eu1008 Eu 0.55254 0.50607 0.02859 0.0
C1009 C 0.51662 0.58611 0.08338 0.0
N1010 N 0.5074 0.57145 0.06302 0.0
C1011 C 0.47186 0.56457 0.07819 0.0
C1012 C 0.50391 0.59 0.10235 0.0
C1013 C 0.48508 0.56146 0.05976 0.0
C1014 C 0.48138 0.57865 0.09973 0.0
C1015 C 0.54838 0.61429 0.10496 0.0
C1016 C 0.53863 0.59798 0.08481 0.0
C1017 C 0.53606 0.61761 0.1243 0.0
C1018 C 0.5139 0.60545 0.12303 0.0
Eu1019 Eu 0.53198 0.56598 0.03404 0.0
N1020 N 0.55036 0.59392 0.06615 0.0
C1021 C 0.5701 0.62699 0.10482 0.0
C1022 C 0.5707 0.60731 0.06503 0.0
C1023 C 0.58114 0.62377 0.08454 0.0
H1024 H 0.47724 0.55135 0.04284 0.0
H1025 H 0.59752 0.63414 0.08379 0.0
H1026 H 0.60591 0.51462 0.01574 0.0
H1027 H 0.47599 0.45139 0.97831 0.0
H1028 H 0.57849 0.60563 0.04877 0.0
H1029 H 0.5782 0.63972 0.11994 0.0
H1030 H 0.49889 0.47745 0.01266 0.0
H1031 H 0.45426 0.55629 0.07565 0.0
H1032 H 0.54338 0.62983 0.14012 0.0
H1033 H 0.50445 0.60849 0.13789 0.0
H1034 H 0.62644 0.50274 0.98283 0.0
H1035 H 0.47105 0.58114 0.1139 0.0
H1036 H 0.49404 0.43805 0.94361 0.0
N1037 N 0.57401 0.49579 0.99837 0.0
C1038 C 0.56257 0.48067 0.97924 0.0
C1039 C 0.60847 0.49653 0.98151 0.0
C1040 C 0.57376 0.47317 0.96018 0.0
C1041 C 0.5967 0.50347 0.99999 0.0
C1042 C 0.59695 0.48141 0.96146 0.0
N1043 N 0.52896 0.48091 0.99676 0.0
C1044 C 0.50667 0.47278 0.99723 0.0
C1045 C 0.52724 0.45725 0.95879 0.0
C1046 C 0.53951 0.47282 0.97855 0.0
C1047 C 0.50406 0.44987 0.95853 0.0
C1048 C 0.49378 0.45751 0.97797 0.0
H1049 H 0.60613 0.47606 0.94716 0.0
H1050 H 0.56986 0.45189 0.92564 0.0
H1051 H 0.5292 0.43796 0.92443 0.0
O1052 O 0.54179 0.47673 0.04879 0.0
O1053 O 0.54296 0.51969 0.99258 0.0
O1054 O 0.51607 0.53941 0.00217 0.0
O1055 O 0.57585 0.48527 0.03933 0.0
O1056 O 0.52236 0.50991 0.04818 0.0
O1057 O 0.50546 0.5334 0.02653 0.0
O1058 O 0.54103 0.59123 0.00866 0.0
O1059 O 0.54659 0.55552 0.07002 0.0
O1060 O 0.56997 0.53064 0.06136 0.0
O1061 O 0.50966 0.58826 0.02461 0.0
O1062 O 0.56603 0.56668 0.0209 0.0
O1063 O 0.58139 0.53688 0.03388 0.0
C1064 C 0.52673 0.53025 0.98594 0.0
C1065 C 0.56872 0.45245 0.06049 0.0
C1066 C 0.56464 0.42232 0.08668 0.0
C1067 C 0.58504 0.41732 0.08088 0.0
C1068 C 0.58907 0.44682 0.05506 0.0
C1069 C 0.59709 0.42944 0.06515 0.0
C1070 C 0.55628 0.43994 0.07635 0.0
C1071 C 0.50423 0.51678 0.03989 0.0
C1072 C 0.5617 0.47178 0.04965 0.0
C1073 C 0.56154 0.45776 0.94048 0.0
C1074 C 0.53838 0.44979 0.93981 0.0
C1075 C 0.56164 0.54357 0.07678 0.0
C1076 C 0.51503 0.61624 0.99691 0.0
C1077 C 0.52157 0.64793 0.97299 0.0
C1078 C 0.49895 0.64948 0.97275 0.0
C1079 C 0.49243 0.61825 0.99617 0.0
C1080 C 0.52971 0.63114 0.98504 0.0
C1081 C 0.48452 0.63472 0.9842 0.0
C1082 C 0.58305 0.55668 0.02563 0.0
C1083 C 0.52236 0.59841 0.01019 0.0
H1084 H 0.59167 0.40387 0.08857 0.0
H1085 H 0.59897 0.45592 0.04293 0.0
H1086 H 0.6128 0.42538 0.06081 0.0
H1087 H 0.54062 0.44402 0.08087 0.0
H1088 H 0.49245 0.66229 0.96368 0.0
H1089 H 0.48071 0.60702 0.00487 0.0
H1090 H 0.54719 0.62991 0.98541 0.0
H1091 H 0.46711 0.63609 0.98386 0.0
Eu1092 Eu 0.79384 0.31738 0.26182 0.0
C1093 C 0.74757 0.23188 0.32093 0.0
N1094 N 0.76733 0.24709 0.32811 0.0
C1095 C 0.76148 0.24686 0.36976 0.0
C1096 C 0.73348 0.22442 0.33807 0.0
C1097 C 0.77498 0.2536 0.35221 0.0
C1098 C 0.74046 0.23252 0.36264 0.0
C1099 C 0.72172 0.20647 0.28888 0.0
C1100 C 0.74177 0.22286 0.29653 0.0
C1101 C 0.70734 0.19972 0.30582 0.0
C1102 C 0.71319 0.20868 0.33031 0.0
Eu1103 Eu 0.78822 0.25767 0.29657 0.0
N1104 N 0.75567 0.23005 0.28026 0.0
C1105 C 0.71664 0.19735 0.26437 0.0
C1106 C 0.75131 0.22037 0.25663 0.0
C1107 C 0.73164 0.20416 0.24824 0.0
H1108 H 0.79161 0.26396 0.35796 0.0
H1109 H 0.72815 0.19683 0.22936 0.0
H1110 H 0.7905 0.30192 0.20135 0.0
H1111 H 0.85818 0.37796 0.32401 0.0
H1112 H 0.76292 0.22501 0.24424 0.0
H1113 H 0.70136 0.18481 0.25781 0.0
H1114 H 0.82224 0.35032 0.31183 0.0
H1115 H 0.76741 0.25252 0.38879 0.0
H1116 H 0.69176 0.18737 0.30019 0.0
H1117 H 0.70208 0.20297 0.34321 0.0
H1118 H 0.8142 0.30891 0.16904 0.0
H1119 H 0.73009 0.2272 0.37631 0.0
H1120 H 0.88393 0.38698 0.29366 0.0
N1121 N 0.81463 0.32276 0.22913 0.0
C1122 C 0.83462 0.33794 0.23447 0.0
C1123 C 0.82024 0.31698 0.18742 0.0
C1124 C 0.84858 0.34263 0.21644 0.0
C1125 C 0.80699 0.3128 0.20589 0.0
C1126 C 0.84122 0.33177 0.19274 0.0
N1127 N 0.82747 0.34416 0.2751 0.0
C1128 C 0.83315 0.35451 0.29845 0.0
C1129 C 0.86191 0.36459 0.26418 0.0
C1130 C 0.84114 0.34905 0.25802 0.0
C1131 C 0.86805 0.37506 0.2882 0.0
C1132 C 0.85357 0.37002 0.30539 0.0
H1133 H 0.85143 0.33497 0.17836 0.0
H1134 H 0.88028 0.36177 0.2089 0.0
H1135 H 0.89203 0.38078 0.25072 0.0
O1136 O 0.78048 0.34689 0.27509 0.0
O1137 O 0.82789 0.30829 0.27716 0.0
O1138 O 0.82224 0.28387 0.30691 0.0
O1139 O 0.77692 0.3355 0.23656 0.0
O1140 O 0.789 0.31485 0.29997 0.0
O1141 O 0.78804 0.28662 0.32433 0.0
O1142 O 0.80028 0.2265 0.2832 0.0
O1143 O 0.75367 0.26518 0.28108 0.0
O1144 O 0.75795 0.29652 0.25956 0.0
O1145 O 0.8073 0.24172 0.3213 0.0
O1146 O 0.80228 0.26955 0.26422 0.0
O1147 O 0.7827 0.28493 0.23727 0.0
C1148 C 0.83567 0.29792 0.29528 0.0
C1149 C 0.77166 0.37286 0.24809 0.0
C1150 C 0.75212 0.40442 0.25029 0.0
C1151 C 0.76429 0.41357 0.23248 0.0
C1152 C 0.78382 0.38237 0.23054 0.0
C1153 C 0.78014 0.40268 0.22285 0.0
C1154 C 0.75612 0.38415 0.25827 0.0
C1155 C 0.78676 0.30726 0.32066 0.0
C1156 C 0.77239 0.34982 0.25347 0.0
C1157 C 0.8693 0.35808 0.22251 0.0
C1158 C 0.87597 0.36898 0.24631 0.0
C1159 C 0.74527 0.27946 0.26786 0.0
C1160 C 0.82083 0.20756 0.31299 0.0
C1161 C 0.84048 0.17666 0.30532 0.0
C1162 C 0.84324 0.17494 0.3302 0.0
C1163 C 0.82365 0.20534 0.33786 0.0
C1164 C 0.82921 0.193 0.29656 0.0
C1165 C 0.83483 0.18919 0.34635 0.0
C1166 C 0.79013 0.26742 0.24337 0.0
C1167 C 0.80946 0.22547 0.30514 0.0
H1168 H 0.76156 0.42921 0.22604 0.0
H1169 H 0.79568 0.37377 0.22232 0.0
H1170 H 0.7893 0.40981 0.20905 0.0
H1171 H 0.74636 0.37659 0.27148 0.0
H1172 H 0.85194 0.16246 0.33713 0.0
H1173 H 0.81725 0.21617 0.3509 0.0
H1174 H 0.82715 0.19442 0.27736 0.0
H1175 H 0.83699 0.18773 0.36553 0.0
Eu1176 Eu 0.04123 0.55883 0.50183 0.0
C1177 C 0.08548 0.50732 0.58735 0.0
N1178 N 0.06762 0.49726 0.5705 0.0
C1179 C 0.08152 0.46283 0.56644 0.0
C1180 C 0.10243 0.49548 0.59404 0.0
C1181 C 0.06527 0.47531 0.56016 0.0
C1182 C 0.10024 0.47297 0.58338 0.0
C1183 C 0.10561 0.54063 0.61471 0.0
C1184 C 0.08707 0.52975 0.59734 0.0
C1185 C 0.12266 0.52897 0.62121 0.0
C1186 C 0.12106 0.50646 0.61094 0.0
Eu1187 Eu 0.04136 0.5194 0.55978 0.0
N1188 N 0.07036 0.54072 0.59047 0.0
C1189 C 0.10625 0.56274 0.62548 0.0
C1190 C 0.07004 0.56144 0.60279 0.0
C1191 C 0.08815 0.57299 0.61985 0.0
H1192 H 0.05086 0.46741 0.54698 0.0
H1193 H 0.08789 0.58962 0.62904 0.0
H1194 H 0.02809 0.60746 0.52367 0.0
H1195 H 1.0076 0.50491 0.41511 0.0
H1196 H 0.05573 0.56909 0.60057 0.0
H1197 H 0.12019 0.57167 0.63886 0.0
H1198 H 0.03619 0.5214 0.45003 0.0
H1199 H 0.07966 0.44544 0.55811 0.0
H1200 H 0.13704 0.53714 0.63442 0.0
H1201 H 0.1343 0.49766 0.61624 0.0
H1202 H 0.99791 0.62874 0.51639 0.0
H1203 H 0.11289 0.4633 0.58809 0.0
H1204 H 0.97303 0.52019 0.40841 0.0
N1205 N 0.01426 0.5812 0.49455 0.0
C1206 C 0.99795 0.57339 0.47539 0.0
C1207 C 0.99763 0.61312 0.50482 0.0
C1208 C 0.98029 0.58488 0.47064 0.0
C1209 C 0.01465 0.60099 0.50896 0.0
C1210 C 0.98023 0.60491 0.48572 0.0
N1211 N 0.01669 0.54365 0.46529 0.0
C1212 C 0.02064 0.52737 0.44834 0.0
C1213 C 0.98261 0.54558 0.44013 0.0
C1214 C 0.99903 0.55386 0.46052 0.0
C1215 C 0.98528 0.52709 0.42424 0.0
C1216 C 1.00471 0.51835 0.42802 0.0
H1217 H 0.967 0.61429 0.48262 0.0
H1218 H 0.94955 0.58457 0.44719 0.0
H1219 H 0.95162 0.5502 0.4204 0.0
O1220 O 0.06806 0.56085 0.47966 0.0
O1221 O 1.00794 0.55117 0.51464 0.0
O1222 O 0.01623 0.51967 0.52735 0.0
O1223 O 0.05908 0.59235 0.49511 0.0
O1224 O 0.04428 0.52107 0.49174 0.0
O1225 O 0.03959 0.4977 0.52285 0.0
O1226 O 0.02409 0.51818 0.5913 0.0
O1227 O 0.0747 0.52453 0.54607 0.0
O1228 O 0.06025 0.55161 0.53437 0.0
O1229 O 0.02093 0.48691 0.5663 0.0
O1230 O 0.03014 0.55429 0.56586 0.0
O1231 O 0.04743 0.57857 0.54048 0.0
C1232 C 1.00243 0.53356 0.5257 0.0
C1233 C 0.08843 0.59554 0.46899 0.0
C1234 C 0.10922 0.59647 0.43469 0.0
C1235 C 0.11866 0.61958 0.44237 0.0
C1236 C 0.09773 0.61861 0.4766 0.0
C1237 C 0.11291 0.63057 0.46329 0.0
C1238 C 0.09414 0.58461 0.44808 0.0
C1239 C 0.04279 0.50103 0.50021 0.0
C1240 C 0.07152 0.58294 0.48148 0.0
C1241 C 0.96338 0.57611 0.451 0.0
C1242 C 0.96452 0.55648 0.4358 0.0
C1243 C 0.07677 0.54127 0.53375 0.0
C1244 C 1.00158 0.48455 0.60194 0.0
C1245 C 0.98086 0.48657 0.63606 0.0
C1246 C 0.97603 0.46279 0.63429 0.0
C1247 C 0.99655 0.46073 0.59983 0.0
C1248 C 0.99345 0.49737 0.6199 0.0
C1249 C 0.98375 0.44989 0.61603 0.0
C1250 C 0.0362 0.57495 0.55926 0.0
C1251 C 0.016 0.49645 0.58634 0.0
H1252 H 0.1306 0.62902 0.43235 0.0
H1253 H 0.09328 0.62732 0.49272 0.0
H1254 H 0.12023 0.64835 0.46921 0.0
H1255 H 0.08634 0.56694 0.44177 0.0
H1256 H 0.96629 0.4543 0.64694 0.0
H1257 H 1.00277 0.45058 0.586 0.0
H1258 H 0.99714 0.51582 0.62166 0.0
H1259 H 0.98 0.43152 0.61458 0.0
Eu1260 Eu 0.82138 0.77689 0.2855 0.0
C1261 C 0.74407 0.81561 0.22828 0.0
N1262 N 0.75699 0.82367 0.25004 0.0
C1263 C 0.76486 0.86109 0.23827 0.0
C1264 C 0.74172 0.82999 0.21034 0.0
C1265 C 0.76641 0.84632 0.25564 0.0
C1266 C 0.75275 0.85283 0.2154 0.0
C1267 C 0.71792 0.7846 0.20236 0.0
C1268 C 0.73234 0.79312 0.22422 0.0
C1269 C 0.71611 0.79872 0.18426 0.0
C1270 C 0.72805 0.82131 0.18819 0.0
Eu1271 Eu 0.75956 0.79625 0.27686 0.0
N1272 N 0.73485 0.77956 0.2417 0.0
C1273 C 0.70573 0.76213 0.1994 0.0
C1274 C 0.72174 0.75834 0.23972 0.0
C1275 C 0.70737 0.74906 0.21836 0.0
H1276 H 0.77489 0.85327 0.27358 0.0
H1277 H 0.69731 0.73202 0.2167 0.0
H1278 H 0.81444 0.72212 0.2981 0.0
H1279 H 0.88345 0.85123 0.32972 0.0
H1280 H 0.72181 0.74885 0.25488 0.0
H1281 H 0.69457 0.75493 0.18284 0.0
H1282 H 0.85489 0.82849 0.29706 0.0
H1283 H 0.77276 0.87892 0.24265 0.0
H1284 H 0.70535 0.7924 0.16723 0.0
H1285 H 0.72623 0.83207 0.17414 0.0
H1286 H 0.82522 0.70187 0.33184 0.0
H1287 H 0.75141 0.86439 0.20207 0.0
H1288 H 0.89495 0.83397 0.36593 0.0
N1289 N 0.83167 0.75487 0.31591 0.0
C1290 C 0.84678 0.76643 0.33495 0.0
C1291 C 0.83116 0.72008 0.33311 0.0
C1292 C 0.85395 0.75528 0.35434 0.0
C1293 C 0.82476 0.73175 0.31419 0.0
C1294 C 0.84554 0.73194 0.35346 0.0
N1295 N 0.84905 0.79957 0.31552 0.0
C1296 C 0.85928 0.82119 0.31314 0.0
C1297 C 0.87258 0.80139 0.35341 0.0
C1298 C 0.85603 0.78926 0.33453 0.0
C1299 C 0.88223 0.82406 0.35177 0.0
C1300 C 0.87571 0.83392 0.33142 0.0
H1301 H 0.85063 0.7228 0.36801 0.0
H1302 H 0.87525 0.75933 0.38878 0.0
H1303 H 0.89151 0.7997 0.38799 0.0
O1304 O 0.84766 0.78706 0.26149 0.0
O1305 O 0.8149 0.79874 0.31905 0.0
O1306 O 0.77728 0.80202 0.31562 0.0
O1307 O 0.84241 0.75402 0.27458 0.0
O1308 O 0.81379 0.80604 0.26589 0.0
O1309 O 0.79126 0.8238 0.28758 0.0
O1310 O 0.7311 0.78374 0.296 0.0
O1311 O 0.77324 0.78263 0.24265 0.0
O1312 O 0.79537 0.75777 0.25446 0.0
O1313 O 0.73482 0.81687 0.28417 0.0
O1314 O 0.7571 0.75962 0.28253 0.0
O1315 O 0.79181 0.7493 0.29088 0.0
C1316 C 0.79718 0.8037 0.32834 0.0
C1317 C 0.87192 0.76008 0.24939 0.0
C1318 C 0.90371 0.76592 0.22598 0.0
C1319 C 0.90573 0.74337 0.22739 0.0
C1320 C 0.87448 0.7375 0.25024 0.0
C1321 C 0.89123 0.72931 0.23941 0.0
C1322 C 0.88674 0.77446 0.23709 0.0
C1323 C 0.8094 0.82465 0.27684 0.0
C1324 C 0.85395 0.76766 0.26203 0.0
C1325 C 0.86974 0.76758 0.37364 0.0
C1326 C 0.87905 0.79055 0.37316 0.0
C1327 C 0.78456 0.76653 0.23748 0.0
C1328 C 0.71641 0.81153 0.31894 0.0
C1329 C 0.68813 0.81189 0.34677 0.0
C1330 C 0.70177 0.83167 0.36018 0.0
C1331 C 0.72982 0.83108 0.33299 0.0
C1332 C 0.69565 0.80167 0.32617 0.0
C1333 C 0.72249 0.84105 0.35343 0.0
C1334 C 0.76965 0.74529 0.28881 0.0
C1335 C 0.72331 0.80232 0.29602 0.0
H1336 H 0.91865 0.73658 0.21906 0.0
H1337 H 0.86353 0.72597 0.25943 0.0
H1338 H 0.89297 0.71193 0.24034 0.0
H1339 H 0.88513 0.79189 0.23617 0.0
H1340 H 0.69636 0.83987 0.37602 0.0
H1341 H 0.74586 0.83885 0.32796 0.0
H1342 H 0.68511 0.78663 0.31541 0.0
H1343 H 0.73285 0.85625 0.36401 0.0
Eu1344 Eu 0.76997 0.28509 0.81121 0.0
C1345 C 0.82674 0.25019 0.72501 0.0
N1346 N 0.83405 0.26659 0.74436 0.0
C1347 C 0.86856 0.25368 0.75151 0.0
C1348 C 0.84014 0.23458 0.71838 0.0
C1349 C 0.85458 0.26855 0.75764 0.0
C1350 C 0.86131 0.23661 0.73181 0.0
C1351 C 0.79705 0.23074 0.69304 0.0
C1352 C 0.80532 0.2483 0.71258 0.0
C1353 C 0.81042 0.21528 0.68635 0.0
C1354 C 0.8319 0.21721 0.69896 0.0
Eu1355 Eu 0.80951 0.2907 0.75428 0.0
N1356 N 0.79243 0.26317 0.71992 0.0
C1357 C 0.77551 0.22911 0.68079 0.0
C1358 C 0.77172 0.262 0.70717 0.0
C1359 C 0.76291 0.24494 0.68776 0.0
H1360 H 0.86028 0.28172 0.77291 0.0
H1361 H 0.74639 0.24414 0.67806 0.0
H1362 H 0.71879 0.29539 0.79889 0.0
H1363 H 0.83714 0.32764 0.88541 0.0
H1364 H 0.76168 0.27411 0.71118 0.0
H1365 H 0.76857 0.21586 0.66576 0.0
H1366 H 0.8165 0.29583 0.85597 0.0
H1367 H 0.88486 0.25533 0.76205 0.0
H1368 H 0.80425 0.2017 0.67147 0.0
H1369 H 0.84195 0.20504 0.69366 0.0
H1370 H 0.69729 0.32461 0.81033 0.0
H1371 H 0.8721 0.22496 0.72725 0.0
H1372 H 0.82058 0.36123 0.89478 0.0
N1373 N 0.74785 0.31108 0.82363 0.0
C1374 C 0.75762 0.32858 0.84116 0.0
C1375 C 0.71427 0.32598 0.8191 0.0
C1376 C 0.74622 0.34599 0.84782 0.0
C1377 C 0.72644 0.30945 0.81268 0.0
C1378 C 0.72425 0.34444 0.83663 0.0
N1379 N 0.78982 0.31223 0.84487 0.0
C1380 C 0.80962 0.31083 0.85803 0.0
C1381 C 0.79023 0.34772 0.86962 0.0
C1382 C 0.77942 0.32944 0.85172 0.0
C1383 C 0.81167 0.34749 0.88103 0.0
C1384 C 0.82114 0.32866 0.87565 0.0
H1385 H 0.71489 0.35741 0.84133 0.0
H1386 H 0.74878 0.37813 0.87028 0.0
H1387 H 0.78732 0.37965 0.88941 0.0
O1388 O 0.76874 0.25917 0.83495 0.0
O1389 O 0.77521 0.31972 0.80006 0.0
O1390 O 0.80528 0.30985 0.78886 0.0
O1391 O 0.73764 0.26519 0.81747 0.0
O1392 O 0.8057 0.27605 0.81767 0.0
O1393 O 0.82921 0.2951 0.79273 0.0
O1394 O 0.81015 0.3185 0.73286 0.0
O1395 O 0.80265 0.25512 0.76307 0.0
O1396 O 0.77347 0.26539 0.77657 0.0
O1397 O 0.84143 0.30976 0.74642 0.0
O1398 O 0.77354 0.29837 0.74643 0.0
O1399 O 0.7493 0.28361 0.77352 0.0
C1400 C 0.79305 0.32508 0.78998 0.0
C1401 C 0.7388 0.25497 0.85719 0.0
C1402 C 0.74264 0.24306 0.89702 0.0
C1403 C 0.72837 0.25718 0.90471 0.0
C1404 C 0.72441 0.26908 0.86475 0.0
C1405 C 0.7191 0.26999 0.88847 0.0
C1406 C 0.74755 0.24185 0.8733 0.0
C1407 C 0.82603 0.28317 0.81115 0.0
C1408 C 0.74698 0.25487 0.83367 0.0
C1409 C 0.75718 0.36448 0.8651 0.0
C1410 C 0.77916 0.36539 0.87591 0.0
C1411 C 0.78594 0.25037 0.77499 0.0
C1412 C 0.8386 0.32254 0.7081 0.0
C1413 C 0.83228 0.33482 0.66879 0.0
C1414 C 0.84912 0.32409 0.66091 0.0
C1415 C 0.85552 0.31182 0.70035 0.0
C1416 C 0.82729 0.33415 0.69233 0.0
C1417 C 0.86079 0.31272 0.67677 0.0
C1418 C 0.75311 0.29308 0.75341 0.0
C1419 C 0.83173 0.32156 0.73214 0.0
H1420 H 0.72423 0.25805 0.92306 0.0
H1421 H 0.7176 0.27958 0.8526 0.0
H1422 H 0.708 0.28082 0.89433 0.0
H1423 H 0.75891 0.23117 0.86758 0.0
H1424 H 0.85342 0.3248 0.64271 0.0
H1425 H 0.86454 0.3027 0.71233 0.0
H1426 H 0.81418 0.34241 0.69826 0.0
H1427 H 0.87388 0.30457 0.67078 0.0
Eu1428 Eu 0.77631 0.75896 0.76542 0.0
C1429 C 0.85688 0.83 0.82311 0.0
N1430 N 0.83661 0.82024 0.82925 0.0
C1431 C 0.85356 0.82034 0.87 0.0
C1432 C 0.87637 0.83504 0.84039 0.0
C1433 C 0.83469 0.8157 0.85237 0.0
C1434 C 0.8745 0.83 0.86399 0.0
C1435 C 0.87898 0.84576 0.79302 0.0
C1436 C 0.85816 0.83548 0.7996 0.0
C1437 C 0.89835 0.85058 0.8102 0.0
C1438 C 0.89704 0.84533 0.8338 0.0
Eu1439 Eu 0.80564 0.81737 0.79915 0.0
N1440 N 0.83908 0.83102 0.78329 0.0
C1441 C 0.87968 0.85138 0.76948 0.0
C1442 C 0.83955 0.83769 0.76083 0.0
C1443 C 0.85984 0.84745 0.75337 0.0
H1444 H 0.81852 0.80969 0.85773 0.0
H1445 H 0.86005 0.85252 0.73542 0.0
H1446 H 0.76837 0.76546 0.70562 0.0
H1447 H 0.71824 0.71565 0.82033 0.0
H1448 H 0.82433 0.83655 0.74897 0.0
H1449 H 0.89535 0.8593 0.76377 0.0
H1450 H 0.75441 0.73702 0.81168 0.0
H1451 H 0.85184 0.81693 0.88836 0.0
H1452 H 0.91442 0.85864 0.80548 0.0
H1453 H 0.91212 0.84944 0.8469 0.0
H1454 H 0.7374 0.75836 0.67233 0.0
H1455 H 0.88905 0.83385 0.8778 0.0
H1456 H 0.68502 0.70749 0.7888 0.0
N1457 N 0.74759 0.75512 0.73226 0.0
C1458 C 0.72675 0.74446 0.73609 0.0
C1459 C 0.73407 0.7548 0.69027 0.0
C1460 C 0.70867 0.73892 0.71703 0.0
C1461 C 0.75158 0.75952 0.7095 0.0
C1462 C 0.71248 0.74465 0.69408 0.0
N1463 N 0.74156 0.74245 0.77662 0.0
C1464 C 0.73992 0.7343 0.79826 0.0
C1465 C 0.70281 0.72497 0.7626 0.0
C1466 C 0.72377 0.73752 0.75867 0.0
C1467 C 0.70081 0.71725 0.78513 0.0
C1468 C 0.71949 0.72187 0.80301 0.0
H1469 H 0.69906 0.74054 0.67897 0.0
H1470 H 0.6736 0.72261 0.70669 0.0
H1471 H 0.66848 0.71047 0.74655 0.0
O1472 O 0.78612 0.72803 0.77498 0.0
O1473 O 0.75028 0.7782 0.78108 0.0
O1474 O 0.7682 0.81178 0.80495 0.0
O1475 O 0.76923 0.72879 0.73895 0.0
O1476 O 0.79375 0.7602 0.80402 0.0
O1477 O 0.78956 0.79363 0.82411 0.0
O1478 O 0.80493 0.85193 0.79219 0.0
O1479 O 0.82983 0.79276 0.78948 0.0
O1480 O 0.81204 0.77038 0.75456 0.0
O1481 O 0.81068 0.84466 0.82909 0.0
O1482 O 0.78676 0.81696 0.76122 0.0
O1483 O 0.79173 0.78375 0.74167 0.0
C1484 C 0.74959 0.79675 0.79576 0.0
C1485 C 0.79501 0.70511 0.74253 0.0
C1486 C 0.81672 0.67631 0.7463 0.0
C1487 C 0.82315 0.67864 0.72327 0.0
C1488 C 0.80168 0.70804 0.71962 0.0
C1489 C 0.81571 0.69468 0.71001 0.0
C1490 C 0.80264 0.6894 0.75571 0.0
C1491 C 0.79055 0.77213 0.82393 0.0
C1492 C 0.77945 0.7173 0.75309 0.0
C1493 C 0.68762 0.72701 0.72114 0.0
C1494 C 0.68471 0.72004 0.74383 0.0
C1495 C 0.83096 0.78009 0.7689 0.0
C1496 C 0.79113 0.87381 0.82251 0.0
C1497 C 0.76741 0.90035 0.81241 0.0
C1498 C 0.76459 0.90431 0.83705 0.0
C1499 C 0.78792 0.87774 0.84693 0.0
C1500 C 0.78029 0.88462 0.80531 0.0
C1501 C 0.77448 0.89274 0.85406 0.0
C1502 C 0.7886 0.80445 0.74112 0.0
C1503 C 0.80688 0.85971 0.81516 0.0
H1504 H 0.83393 0.66822 0.71574 0.0
H1505 H 0.79592 0.72034 0.70911 0.0
H1506 H 0.8207 0.69666 0.69229 0.0
H1507 H 0.79721 0.687 0.77327 0.0
H1508 H 0.75532 0.9168 0.84344 0.0
H1509 H 0.7961 0.86955 0.86059 0.0
H1510 H 0.7823 0.88108 0.78639 0.0
H1511 H 0.77226 0.89592 0.87294 0.0
Eu1512 Eu 0.56933 0.55222 0.54964 0.0
C1513 C 0.49796 0.47366 0.48688 0.0
N1514 N 0.50831 0.4946 0.48242 0.0
C1515 C 0.50893 0.47983 0.44104 0.0
C1516 C 0.49303 0.45489 0.46846 0.0
C1517 C 0.51334 0.498 0.45974 0.0
C1518 C 0.49884 0.45817 0.44543 0.0
C1519 C 0.4807 0.44963 0.51476 0.0
C1520 C 0.49176 0.47102 0.5098 0.0
C1521 C 0.47598 0.43093 0.49648 0.0
C1522 C 0.48212 0.43355 0.47342 0.0
Eu1523 Eu 0.51242 0.52418 0.51486 0.0
N1524 N 0.49677 0.48932 0.52735 0.0
C1525 C 0.47456 0.44769 0.53793 0.0
C1526 C 0.48957 0.48782 0.54941 0.0
C1527 C 0.47884 0.46693 0.55526 0.0
H1528 H 0.51995 0.51479 0.4556 0.0
H1529 H 0.47345 0.46581 0.57295 0.0
H1530 H 0.55808 0.56423 0.60729 0.0
H1531 H 0.612 0.60701 0.4907 0.0
H1532 H 0.49132 0.50276 0.56221 0.0
H1533 H 0.46608 0.43153 0.54245 0.0
H1534 H 0.59219 0.57119 0.5019 0.0
H1535 H 0.51294 0.48263 0.42311 0.0
H1536 H 0.4675 0.41438 0.49997 0.0
H1537 H 0.4782 0.41897 0.45947 0.0
H1538 H 0.56549 0.59722 0.63868 0.0
H1539 H 0.49523 0.44419 0.43079 0.0
H1540 H 0.6194 0.64206 0.52003 0.0
N1541 N 0.57116 0.58299 0.58002 0.0
C1542 C 0.58246 0.60337 0.57506 0.0
C1543 C 0.57001 0.59926 0.62077 0.0
C1544 C 0.58793 0.62252 0.59304 0.0
C1545 C 0.56524 0.58063 0.6026 0.0
C1546 C 0.58139 0.62028 0.61599 0.0
N1547 N 0.58481 0.58611 0.53529 0.0
C1548 C 0.59333 0.58656 0.51382 0.0
C1549 C 0.60203 0.62567 0.54716 0.0
C1550 C 0.5895 0.60495 0.55222 0.0
C1551 C 0.60961 0.62649 0.52451 0.0
C1552 C 0.60534 0.60681 0.50783 0.0
H1553 H 0.58547 0.63456 0.63031 0.0
H1554 H 0.60484 0.65789 0.6016 0.0
H1555 H 0.61713 0.66064 0.56154 0.0
O1556 O 0.60328 0.5493 0.54367 0.0
O1557 O 0.54634 0.5778 0.53981 0.0
O1558 O 0.52399 0.56048 0.50476 0.0
O1559 O 0.59596 0.55862 0.58 0.0
O1560 O 0.56919 0.53392 0.51132 0.0
O1561 O 0.537 0.54025 0.49129 0.0
O1562 O 0.48084 0.53119 0.52455 0.0
O1563 O 0.53312 0.4973 0.52676 0.0
O1564 O 0.56107 0.515 0.55772 0.0
O1565 O 0.48344 0.51953 0.48717 0.0
O1566 O 0.51356 0.54234 0.55334 0.0
O1567 O 0.5453 0.53503 0.5731 0.0
C1568 C 0.53391 0.57932 0.51931 0.0
C1569 C 0.62905 0.5448 0.57711 0.0
C1570 C 0.65978 0.52593 0.5712 0.0
C1571 C 0.66846 0.5323 0.59584 0.0
C1572 C 0.63766 0.55096 0.60176 0.0
C1573 C 0.65722 0.54454 0.6111 0.0
C1574 C 0.63988 0.53186 0.56206 0.0
C1575 C 0.55751 0.53702 0.49122 0.0
C1576 C 0.61124 0.5551 0.5666 0.0
C1577 C 0.60031 0.64311 0.58789 0.0
C1578 C 0.60731 0.64469 0.56506 0.0
C1579 C 0.54864 0.49615 0.54494 0.0
C1580 C 0.45891 0.54441 0.49435 0.0
C1581 C 0.43266 0.56837 0.50345 0.0
C1582 C 0.43318 0.57555 0.48042 0.0
C1583 C 0.45947 0.55163 0.47135 0.0
C1584 C 0.44575 0.55305 0.51029 0.0
C1585 C 0.44667 0.56727 0.46451 0.0
C1586 C 0.52474 0.53806 0.57313 0.0
C1587 C 0.47111 0.52736 0.50213 0.0
H1588 H 0.68417 0.52832 0.60316 0.0
H1589 H 0.62973 0.56143 0.6136 0.0
H1590 H 0.66405 0.54965 0.62999 0.0
H1591 H 0.63329 0.52705 0.54302 0.0
H1592 H 0.42283 0.58712 0.47453 0.0
H1593 H 0.46958 0.54514 0.45864 0.0
H1594 H 0.44555 0.5476 0.52813 0.0
H1595 H 0.44693 0.5727 0.44673 0.0
Eu1596 Eu 1.01062 0.53472 0.04878 0.0
C1597 C 0.08747 0.58382 0.99193 0.0
N1598 N 0.07297 0.56327 0.98567 0.0
C1599 C 0.06389 0.57276 0.94568 0.0
C1600 C 0.08969 0.60003 0.97553 0.0
C1601 C 0.06236 0.55713 0.96236 0.0
C1602 C 0.07724 0.59445 0.95244 0.0
C1603 C 0.11709 0.60897 0.02064 0.0
C1604 C 0.10121 0.58833 0.0143 0.0
C1605 C 0.11844 0.62546 0.00477 0.0
C1606 C 0.10479 0.62101 0.98231 0.0
Eu1607 Eu 0.07163 0.53945 0.01682 0.0
N1608 N 0.09929 0.5724 0.02977 0.0
C1609 C 0.13156 0.61218 0.04251 0.0
C1610 C 0.11445 0.57459 0.05002 0.0
C1611 C 0.13057 0.59469 0.05699 0.0
H1612 H 0.053 0.5401 0.95603 0.0
H1613 H 0.14237 0.59657 0.07332 0.0
H1614 H 0.02646 0.53512 0.10973 0.0
H1615 H 0.9463 0.47391 0.98657 0.0
H1616 H 0.11428 0.56068 0.06056 0.0
H1617 H 0.14407 0.62776 0.04794 0.0
H1618 H 0.97276 0.51036 1.00036 0.0
H1619 H 0.05505 0.56791 0.92746 0.0
H1620 H 0.13038 0.64151 0.00945 0.0
H1621 H 0.10648 0.63371 0.97001 0.0
H1622 H 0.02118 0.50861 0.13965 0.0
H1623 H 0.07854 0.60643 0.93935 0.0
H1624 H 0.9411 0.44457 0.01418 0.0
N1625 N 1.00732 0.51145 0.08013 0.0
C1626 C 0.99264 0.49103 0.07367 0.0
C1627 C 0.01338 0.50331 0.12107 0.0
C1628 C 0.98865 0.47559 0.09068 0.0
C1629 C 0.01674 0.51816 0.10375 0.0
C1630 C 0.99956 0.48183 0.11445 0.0
N1631 N 0.98424 0.50094 0.03411 0.0
C1632 C 0.97145 0.49734 0.01197 0.0
C1633 C 0.96516 0.46489 0.04346 0.0
C1634 C 0.98068 0.48574 0.05027 0.0
C1635 C 0.95313 0.46041 0.02007 0.0
C1636 C 0.95608 0.47686 0.00438 0.0
H1637 H 0.99685 0.47046 0.12802 0.0
H1638 H 0.97038 0.44262 0.09657 0.0
H1639 H 0.95005 0.4332 0.05525 0.0
O1640 O 0.98058 0.54788 0.0351 0.0
O1641 O 0.01791 0.50037 0.03067 0.0
O1642 O 0.05069 0.50266 0.01174 0.0
O1643 O 0.99104 0.54794 0.07398 0.0
O1644 O 0.02514 0.54755 0.0171 0.0
O1645 O 0.0407 0.52788 0.9906 0.0
O1646 O 0.1009 0.52478 0.0296 0.0
O1647 O 0.06502 0.57407 0.03598 0.0
O1648 O 0.03173 0.57154 0.05417 0.0
O1649 O 0.09143 0.52726 0.99108 0.0
O1650 O 0.05993 0.52726 0.05043 0.0
O1651 O 0.04142 0.54585 0.07526 0.0
C1652 C 0.03207 0.49093 0.01835 0.0
C1653 C 0.95769 0.56218 0.06482 0.0
C1654 C 0.9283 0.58355 0.05803 0.0
C1655 C 0.92373 0.58216 0.08189 0.0
C1656 C 0.9527 0.56084 0.08865 0.0
C1657 C 0.93584 0.57078 0.09707 0.0
C1658 C 0.94522 0.57342 0.04931 0.0
C1659 C 0.02308 0.53469 0.99667 0.0
C1660 C 0.97671 0.55275 0.05739 0.0
C1661 C 0.9735 0.45467 0.08373 0.0
C1662 C 0.96186 0.44931 0.0602 0.0
C1663 C 0.05062 0.58346 0.04818 0.0
C1664 C 0.12418 0.51173 0.9997 0.0
C1665 C 0.15259 0.48893 0.00543 0.0
C1666 C 0.1579 0.49177 0.98203 0.0
C1667 C 0.12991 0.51443 0.97638 0.0
C1668 C 0.13584 0.49917 0.01448 0.0
C1669 C 0.14668 0.50453 0.96767 0.0
C1670 C 0.06023 0.54111 0.0699 0.0
C1671 C 0.10524 0.52122 0.00731 0.0
H1672 H 0.91074 0.58998 0.08876 0.0
H1673 H 0.96199 0.55225 0.10098 0.0
H1674 H 0.93227 0.5698 0.11548 0.0
H1675 H 0.94895 0.57476 0.03097 0.0
H1676 H 0.17086 0.4841 0.97489 0.0
H1677 H 0.1213 0.52408 0.96466 0.0
H1678 H 0.13154 0.49682 0.03244 0.0
H1679 H 0.15088 0.50663 0.94966 0.0
C1680 C 0.99817 0.2004 0.99079 0.0
C1681 C 1.01215 0.21454 0.97757 0.0
C1682 C 1.00258 0.17923 0.99708 0.0
C1683 C 0.02197 0.17135 0.99082 0.0
C1684 C 0.03629 0.18552 0.97752 0.0
C1685 C 0.03115 0.20647 0.97089 0.0
C1686 C 0.98627 0.16522 0.0107 0.0
C1687 C 0.05733 0.17862 0.97043 0.0
C1688 C 0.04205 0.12541 0.02779 0.0
C1689 C 0.03357 0.10463 0.01252 0.0
C1690 C 0.039 0.14689 0.02087 0.0
C1691 C 0.02686 0.14838 0.99797 0.0
C1692 C 0.01848 0.12745 0.9824 0.0
C1693 C 0.02188 0.10626 0.98972 0.0
C1694 C 0.04869 0.16813 0.0384 0.0
C1695 C 1.00536 0.12731 0.95794 0.0
H1696 H 0.98339 0.20587 0.99624 0.0
H1697 H 0.04244 0.21684 0.96093 0.0
H1698 H 0.98057 0.1477 1.00095 0.0
H1699 H 0.99479 0.16385 0.02886 0.0
H1700 H 0.97128 0.17266 0.01305 0.0
H1701 H 0.06764 0.19183 0.96169 0.0
H1702 H 0.06771 0.17526 0.98666 0.0
H1703 H 0.05277 0.16258 0.95767 0.0
H1704 H 0.05097 0.12497 0.04548 0.0
H1705 H 0.01512 0.09076 0.97739 0.0
H1706 H 0.03487 0.17593 0.04438 0.0
H1707 H 0.05933 0.18078 0.02932 0.0
H1708 H 0.05899 0.16467 0.05466 0.0
H1709 H 0.98922 0.13248 0.9604 0.0
H1710 H 1.00165 0.11027 0.94692 0.0
H1711 H 0.01479 0.13979 0.94769 0.0
C1712 C 0.15532 0.79374 0.14466 0.0
C1713 C 0.13904 0.80636 0.1503 0.0
C1714 C 0.17332 0.79198 0.16205 0.0
C1715 C 0.1759 0.80366 0.1859 0.0
C1716 C 0.15953 0.81647 0.19182 0.0
C1717 C 0.14119 0.81736 0.17418 0.0
C1718 C 0.18955 0.77735 0.15484 0.0
C1719 C 0.16176 0.82978 0.21667 0.0
C1720 C 0.21299 0.78481 0.23713 0.0
C1721 C 0.23409 0.7992 0.23749 0.0
C1722 C 0.19408 0.78605 0.22063 0.0
C1723 C 0.19582 0.80259 0.20433 0.0
C1724 C 0.217 0.81752 0.20505 0.0
C1725 C 0.23581 0.81541 0.2212 0.0
C1726 C 0.17232 0.76919 0.22025 0.0
C1727 C 0.2199 0.83575 0.18859 0.0
H1728 H 0.15378 0.78479 0.12651 0.0
H1729 H 0.12885 0.82717 0.17894 0.0
H1730 H 0.20674 0.78791 0.15643 0.0
H1731 H 0.19022 0.76433 0.16729 0.0
H1732 H 0.1848 0.76859 0.13596 0.0
H1733 H 0.14732 0.83812 0.21898 0.0
H1734 H 0.16313 0.81851 0.23089 0.0
H1735 H 0.17746 0.84306 0.21967 0.0
H1736 H 0.21138 0.77202 0.24935 0.0
H1737 H 0.25192 0.82667 0.22123 0.0
H1738 H 0.16726 0.75924 0.20196 0.0
H1739 H 0.1587 0.77828 0.22402 0.0
H1740 H 0.17366 0.7572 0.23379 0.0
H1741 H 0.21884 0.82779 0.16959 0.0
H1742 H 0.23635 0.84786 0.19349 0.0
H1743 H 0.20624 0.84541 0.18934 0.0
C1744 C 0.50349 0.84949 0.4917 0.0
C1745 C 0.51553 0.84255 0.47314 0.0
C1746 C 0.50493 0.87303 0.50033 0.0
C1747 C 0.51919 0.89064 0.49084 0.0
C1748 C 0.53186 0.88359 0.47264 0.0
C1749 C 0.52965 0.8601 0.46393 0.0
C1750 C 0.4908 0.87911 0.51946 0.0
C1751 C 0.5479 0.90102 0.46218 0.0
C1752 C 0.50872 0.95287 0.49605 0.0
C1753 C 0.52597 0.96503 0.51421 0.0
C1754 C 0.50645 0.9291 0.48827 0.0
C1755 C 0.52091 0.91623 0.49963 0.0
C1756 C 0.53766 0.92831 0.5188 0.0
C1757 C 0.54025 0.95226 0.52535 0.0
C1758 C 0.48889 0.91785 0.46722 0.0
C1759 C 0.55299 0.91591 0.53257 0.0
H1760 H 0.49237 0.83652 0.49906 0.0
H1761 H 0.5393 0.85541 0.44979 0.0
H1762 H 0.50168 0.8898 0.53534 0.0
H1763 H 0.47894 0.88929 0.5122 0.0
H1764 H 0.48099 0.86382 0.52561 0.0
H1765 H 0.55657 0.89312 0.44816 0.0
H1766 H 0.53868 0.91306 0.454 0.0
H1767 H 0.56081 0.91109 0.47684 0.0
H1768 H 0.49738 0.96206 0.48718 0.0
H1769 H 0.55354 0.96108 0.53954 0.0
H1770 H 0.47731 0.90339 0.47277 0.0
H1771 H 0.49713 0.91081 0.45229 0.0
H1772 H 0.4789 0.92984 0.46016 0.0
H1773 H 0.54284 0.90318 0.542 0.0
H1774 H 0.56574 0.92759 0.54627 0.0
H1775 H 0.56178 0.90652 0.5199 0.0
C1776 C 0.51373 0.30927 0.66754 0.0
C1777 C 0.5134 0.29495 0.646 0.0
C1778 C 0.49493 0.30738 0.68017 0.0
C1779 C 0.47568 0.29002 0.67167 0.0
C1780 C 0.47522 0.27567 0.64969 0.0
C1781 C 0.49394 0.27862 0.63686 0.0
C1782 C 0.49598 0.32364 0.70291 0.0
C1783 C 0.45525 0.25669 0.64017 0.0
C1784 C 0.43806 0.26487 0.71608 0.0
C1785 C 0.41862 0.27335 0.71051 0.0
C1786 C 0.45711 0.27099 0.70436 0.0
C1787 C 0.45664 0.28582 0.68643 0.0
C1788 C 0.43743 0.29543 0.68175 0.0
C1789 C 0.41861 0.28905 0.69384 0.0
C1790 C 0.47727 0.26058 0.71024 0.0
C1791 C 0.43647 0.3118 0.66333 0.0
H1792 H 0.52874 0.32209 0.67449 0.0
H1793 H 0.49373 0.26754 0.62023 0.0
H1794 H 0.47992 0.32954 0.70351 0.0
H1795 H 0.49871 0.31484 0.71902 0.0
H1796 H 0.5099 0.33874 0.7043 0.0
H1797 H 0.45751 0.24697 0.62293 0.0
H1798 H 0.45249 0.24477 0.65382 0.0
H1799 H 0.43983 0.26367 0.63709 0.0
H1800 H 0.43797 0.25261 0.72887 0.0
H1801 H 0.40348 0.29544 0.6894 0.0
H1802 H 0.49266 0.2741 0.71541 0.0
H1803 H 0.47986 0.24972 0.69394 0.0
H1804 H 0.47533 0.25007 0.72527 0.0
H1805 H 0.45089 0.32648 0.66803 0.0
H1806 H 0.4206 0.31824 0.66223 0.0
H1807 H 0.4379 0.30333 0.64515 0.0
C1808 C 0.02286 0.83301 0.67676 0.0
C1809 C 0.03661 0.81713 0.67374 0.0
C1810 C 0.02437 0.85151 0.66326 0.0
C1811 C 0.04054 0.85464 0.64696 0.0
C1812 C 0.05488 0.8389 0.6444 0.0
C1813 C 0.05241 0.82012 0.65743 0.0
C1814 C 1.00813 0.86723 0.66579 0.0
C1815 C 0.07285 0.84188 0.62787 0.0
C1816 C 0.0377 0.88947 0.59413 0.0
C1817 C 0.05352 0.9094 0.60343 0.0
C1818 C 0.03215 0.87202 0.60857 0.0
C1819 C 0.0429 0.87448 0.63279 0.0
C1820 C 0.05776 0.89526 0.64265 0.0
C1821 C 0.06286 0.91244 0.62786 0.0
C1822 C 0.01603 0.8503 0.59732 0.0
C1823 C 0.06973 0.89865 0.66824 0.0
H1824 H 1.01021 0.83037 0.68887 0.0
H1825 H 0.06291 0.80773 0.6549 0.0
H1826 H 0.01738 0.88515 0.67025 0.0
H1827 H 0.99725 0.86591 0.64825 0.0
H1828 H 0.99724 0.86315 0.68 0.0
H1829 H 0.08302 0.82852 0.62842 0.0
H1830 H 0.06506 0.84137 0.60892 0.0
H1831 H 0.08429 0.85875 0.63317 0.0
H1832 H 0.0309 0.88685 0.57508 0.0
H1833 H 0.07549 0.92763 0.63489 0.0
H1834 H 1.00367 0.84484 0.60971 0.0
H1835 H 0.02548 0.83655 0.59423 0.0
H1836 H 1.00681 0.85219 0.57966 0.0
H1837 H 0.05742 0.89504 0.68118 0.0
H1838 H 0.07978 0.9162 0.67366 0.0
H1839 H 0.08116 0.88652 0.66986 0.0
C1840 C 0.47696 0.80778 0.82495 0.0
C1841 C 0.4851 0.82225 0.84694 0.0
C1842 C 0.45378 0.80386 0.81446 0.0
C1843 C 0.43799 0.81437 0.82611 0.0
C1844 C 0.44638 0.82936 0.84783 0.0
C1845 C 0.46937 0.8332 0.85757 0.0
C1846 C 0.44604 0.78811 0.79104 0.0
C1847 C 0.43081 0.84086 0.86154 0.0
C1848 C 0.37982 0.82093 0.79489 0.0
C1849 C 0.36437 0.80347 0.80244 0.0
C1850 C 0.40352 0.8241 0.80153 0.0
C1851 C 0.4127 0.80959 0.81646 0.0
C1852 C 0.39722 0.7918 0.82404 0.0
C1853 C 0.37363 0.78891 0.8169 0.0
C1854 C 0.41882 0.84321 0.79257 0.0
C1855 C 0.40554 0.77576 0.83999 0.0
H1856 H 0.48839 0.79886 0.81638 0.0
H1857 H 0.47494 0.84455 0.8744 0.0
H1858 H 0.43255 0.77379 0.7937 0.0
H1859 H 0.43874 0.79735 0.77713 0.0
H1860 H 0.45995 0.78109 0.78406 0.0
H1861 H 0.4398 0.8523 0.87799 0.0
H1862 H 0.42212 0.85095 0.84969 0.0
H1863 H 0.41766 0.82781 0.86715 0.0
H1864 H 0.37345 0.83206 0.78347 0.0
H1865 H 0.36236 0.77517 0.823 0.0
H1866 H 0.4313 0.83636 0.78262 0.0
H1867 H 0.42832 0.85543 0.80818 0.0
H1868 H 0.40943 0.85255 0.78043 0.0
H1869 H 0.41596 0.76579 0.83009 0.0
H1870 H 0.39154 0.76373 0.8457 0.0
H1871 H 0.41637 0.78549 0.85645 0.0
C1872 C 0.53421 0.18067 0.16147 0.0
C1873 C 0.51902 0.19402 0.15371 0.0
C1874 C 0.53586 0.16024 0.14735 0.0
C1875 C 0.52204 0.15273 0.12468 0.0
C1876 C 0.50593 0.1656 0.11736 0.0
C1877 C 0.50481 0.18603 0.13172 0.0
C1878 C 0.55353 0.14754 0.15598 0.0
C1879 C 0.49064 0.15842 0.0936 0.0
C1880 C 0.54241 0.11602 0.07428 0.0
C1881 C 0.53052 0.09392 0.07563 0.0
C1882 C 0.53998 0.13507 0.09012 0.0
C1883 C 0.5252 0.1323 0.10799 0.0
C1884 C 0.51313 0.11003 0.10941 0.0
C1885 C 0.51591 0.09128 0.09336 0.0
C1886 C 0.55337 0.15827 0.08772 0.0
C1887 C 0.49719 0.10596 0.12796 0.0
H1888 H 0.54603 0.18711 0.17776 0.0
H1889 H 0.49369 0.19658 0.12496 0.0
H1890 H 0.54618 0.12913 0.15481 0.0
H1891 H 0.56695 0.14933 0.14408 0.0
H1892 H 0.56132 0.15402 0.17494 0.0
H1893 H 0.47818 0.1694 0.09102 0.0
H1894 H 0.50079 0.15916 0.07835 0.0
H1895 H 0.4815 0.14055 0.09267 0.0
H1896 H 0.55394 0.11847 0.06097 0.0
H1897 H 0.50643 0.07444 0.09465 0.0
H1898 H 0.56405 0.16572 0.10513 0.0
H1899 H 0.54183 0.16985 0.08363 0.0
H1900 H 0.56432 0.15767 0.0732 0.0
H1901 H 0.50673 0.11031 0.14645 0.0
H1902 H 0.4879 0.08801 0.12581 0.0
H1903 H 0.48484 0.11717 0.12652 0.0
C1904 C 0.11947 0.31274 0.31647 0.0
C1905 C 0.11709 0.31775 0.34121 0.0
C1906 C 0.14044 0.30982 0.30854 0.0
C1907 C 0.16014 0.31134 0.32549 0.0
C1908 C 0.15768 0.31604 0.35047 0.0
C1909 C 0.1367 0.31938 0.35785 0.0
C1910 C 0.14135 0.30496 0.28174 0.0
C1911 C 0.17732 0.3172 0.36973 0.0
C1912 C 0.20874 0.28237 0.30541 0.0
C1913 C 0.22628 0.30062 0.30288 0.0
C1914 C 0.18777 0.28551 0.31289 0.0
C1915 C 0.18298 0.30766 0.31736 0.0
C1916 C 0.20044 0.32622 0.31431 0.0
C1917 C 0.22163 0.32257 0.3077 0.0
C1918 C 0.17073 0.26485 0.31624 0.0
C1919 C 0.19652 0.35014 0.31741 0.0
H1920 H 0.10487 0.31123 0.30308 0.0
H1921 H 0.13564 0.32303 0.377 0.0
H1922 H 0.15701 0.3149 0.27672 0.0
H1923 H 0.14133 0.28667 0.27695 0.0
H1924 H 0.12667 0.30893 0.27075 0.0
H1925 H 0.17275 0.31973 0.38834 0.0
H1926 H 0.18382 0.30129 0.3674 0.0
H1927 H 0.19121 0.33142 0.36782 0.0
H1928 H 0.21156 0.26536 0.30208 0.0
H1929 H 0.2345 0.33708 0.30576 0.0
H1930 H 0.15615 0.26206 0.30182 0.0
H1931 H 0.16438 0.26747 0.33393 0.0
H1932 H 0.17781 0.24924 0.31543 0.0
H1933 H 0.18201 0.35139 0.30422 0.0
H1934 H 0.21143 0.36284 0.31457 0.0
H1935 H 0.19222 0.35453 0.33581 0.0
C1936 C 0.96089 0.03263 0.19446 0.0
C1937 C 0.97269 0.02182 0.21111 0.0
C1938 C 0.96884 0.03722 0.17224 0.0
C1939 C 0.98907 0.03094 0.16643 0.0
C1940 C 1.00119 0.02053 0.18342 0.0
C1941 C 0.99289 0.01608 0.20524 0.0
C1942 C 0.9554 0.04843 0.15475 0.0
C1943 C 0.02307 0.01398 0.17858 0.0
C1944 C 1.00191 0.0175 0.1017 0.0
C1945 C 0.01565 0.03782 0.09776 0.0
C1946 C 0.9919 0.0157 0.12312 0.0
C1947 C 0.99723 0.03403 0.14227 0.0
C1948 C 1.01197 0.05434 0.13886 0.0
C1949 C 0.02032 0.05623 0.11641 0.0
C1950 C 0.97592 0.99389 0.12542 0.0
C1951 C 0.01928 0.07397 0.15902 0.0
H1952 H 0.9454 0.03736 0.19867 0.0
H1953 H 1.00246 1.00793 0.21778 0.0
H1954 H 0.96617 0.06392 0.15013 0.0
H1955 H 0.94946 0.0367 0.13762 0.0
H1956 H 0.94062 0.05323 0.1622 0.0
H1957 H 0.03099 1.00692 0.19406 0.0
H1958 H 0.02015 1.00106 0.1623 0.0
H1959 H 0.03509 0.02904 0.17483 0.0
H1960 H 0.99942 1.00269 0.08833 0.0
H1961 H 0.03071 0.07209 0.1136 0.0
H1962 H 0.96005 0.99769 0.13105 0.0
H1963 H 0.98342 0.98512 0.13963 0.0
H1964 H 0.97183 0.9821 0.10815 0.0
H1965 H 1.0049 0.08217 0.16198 0.0
H1966 H 0.03331 0.08701 0.15484 0.0
H1967 H 0.02477 0.06788 0.17625 0.0
C1968 C 0.25781 0.66571 0.49253 0.0
C1969 C 0.27813 0.65918 0.49853 0.0
C1970 C 0.25559 0.67961 0.47459 0.0
C1971 C 0.27426 0.6869 0.46248 0.0
C1972 C 0.29465 0.6796 0.46786 0.0
C1973 C 0.29636 0.66567 0.48607 0.0
C1974 C 0.23358 0.68723 0.46935 0.0
C1975 C 0.31489 0.6875 0.45545 0.0
C1976 C 0.25409 0.70676 0.40504 0.0
C1977 C 0.25521 0.72974 0.41314 0.0
C1978 C 0.26243 0.69283 0.42042 0.0
C1979 C 0.27198 0.70227 0.44432 0.0
C1980 C 0.27486 0.72586 0.45193 0.0
C1981 C 0.26617 0.73939 0.43618 0.0
C1982 C 0.25911 0.6677 0.41184 0.0
C1983 C 0.28537 0.7365 0.47725 0.0
H1984 H 0.24389 0.66062 0.50246 0.0
H1985 H 0.31221 0.66089 0.49145 0.0
H1986 H 0.2363 0.70596 0.47393 0.0
H1987 H 0.22705 0.683 0.44976 0.0
H1988 H 0.22053 0.67923 0.47987 0.0
H1989 H 0.32849 0.67815 0.4597 0.0
H1990 H 0.31015 0.68536 0.43551 0.0
H1991 H 0.3216 0.7059 0.46146 0.0
H1992 H 0.24575 0.69945 0.38703 0.0
H1993 H 0.26752 0.75736 0.44202 0.0
H1994 H 0.24519 0.65828 0.42028 0.0
H1995 H 0.27445 0.66129 0.41745 0.0
H1996 H 0.25483 0.6638 0.39183 0.0
H1997 H 0.27249 0.7339 0.48973 0.0
H1998 H 0.29181 0.75509 0.47808 0.0
H1999 H 0.29938 0.72856 0.48389 0.0
C2000 C 0.64169 0.02763 0.68135 0.0
C2001 C 0.65779 0.04766 0.68836 0.0
C2002 C 0.62695 0.02508 0.66007 0.0
C2003 C 0.6295 0.04261 0.6452 0.0
C2004 C 0.64774 0.06148 0.65067 0.0
C2005 C 0.66163 0.06407 0.67276 0.0
C2006 C 0.6071 1.00517 0.65522 0.0
C2007 C 0.65119 0.07989 0.63443 0.0
C2008 C 0.59127 0.0258 0.58673 0.0
C2009 C 0.57467 0.03832 0.59051 0.0
C2010 C 0.6104 0.02881 0.60355 0.0
C2011 C 0.61142 0.04241 0.62582 0.0
C2012 C 0.5939 0.05388 0.63058 0.0
C2013 C 0.57595 0.05228 0.61238 0.0
C2014 C 0.62944 0.01751 0.59747 0.0
C2015 C 0.59364 0.06697 0.65509 0.0
H2016 H 0.6389 0.01525 0.69396 0.0
H2017 H 0.67405 0.07965 0.6787 0.0
H2018 H 0.59122 0.01147 0.65555 0.0
H2019 H 0.60638 0.99566 0.63701 0.0
H2020 H 0.60775 0.99315 0.66883 0.0
H2021 H 0.66821 0.09099 0.63893 0.0
H2022 H 0.64878 0.07232 0.61512 0.0
H2023 H 0.63858 0.09067 0.63654 0.0
H2024 H 0.58962 0.01398 0.57038 0.0
H2025 H 0.56273 0.06147 0.61547 0.0
H2026 H 0.63056 1.00359 0.6086 0.0
H2027 H 0.64569 0.02997 0.60166 0.0
H2028 H 0.62721 0.01028 0.57806 0.0
H2029 H 0.59359 0.05536 0.66915 0.0
H2030 H 0.57869 0.07486 0.65562 0.0
H2031 H 0.60898 0.08056 0.66 0.0
C2032 C 0.31016 0.34428 0.97514 0.0
C2033 C 0.3081 0.36708 0.97897 0.0
C2034 C 0.30885 0.33281 0.95151 0.0
C2035 C 0.30542 0.34436 0.9311 0.0
C2036 C 0.3033 0.36738 0.9349 0.0
C2037 C 0.30469 0.37841 0.95867 0.0
C2038 C 0.31118 0.30831 0.94839 0.0
C2039 C 0.29945 0.38036 0.91377 0.0
C2040 C 0.32339 0.32408 0.87062 0.0
C2041 C 0.30287 0.3134 0.85683 0.0
C2042 C 0.32453 0.33378 0.89487 0.0
C2043 C 0.30456 0.3327 0.90579 0.0
C2044 C 0.28372 0.32155 0.89197 0.0
C2045 C 0.28313 0.31224 0.86762 0.0
C2046 C 0.34705 0.34591 0.90855 0.0
C2047 C 0.26201 0.31961 0.9028 0.0
H2048 H 0.3127 0.33532 0.99064 0.0
H2049 H 0.3029 0.39596 0.96132 0.0
H2050 H 0.29636 0.29768 0.93645 0.0
H2051 H 0.32623 0.30678 0.93944 0.0
H2052 H 0.3128 0.30142 0.96595 0.0
H2053 H 0.29852 0.39826 0.9197 0.0
H2054 H 0.31322 0.38037 0.90242 0.0
H2055 H 0.28353 0.37189 0.90212 0.0
H2056 H 0.33845 0.32575 0.86211 0.0
H2057 H 0.26716 0.30411 0.85693 0.0
H2058 H 0.35037 0.33864 0.92561 0.0
H2059 H 0.34689 0.36414 0.91359 0.0
H2060 H 0.36107 0.34474 0.89776 0.0
H2061 H 0.26271 0.30966 0.91829 0.0
H2062 H 0.24715 0.31119 0.88942 0.0
H2063 H 0.25966 0.33671 0.90995 0.0
C2064 C 0.98279 0.03267 0.34462 0.0
C2065 C 0.96055 0.02059 0.33789 0.0
C2066 C 0.99355 0.03484 0.36859 0.0
C2067 C 0.98221 0.02376 0.38617 0.0
C2068 C 0.95986 0.01113 0.37929 0.0
C2069 C 0.94914 0.01013 0.35541 0.0
C2070 C 0.01698 0.04923 0.37511 0.0
C2071 C 0.94733 0.99851 0.39714 0.0
C2072 C 0.01847 0.01267 0.44221 0.0
C2073 C 0.0143 0.02848 0.46051 0.0
C2074 C 1.00784 0.01061 0.41815 0.0
C2075 C 0.9936 0.0256 0.41176 0.0
C2076 C 0.99031 0.04245 0.42989 0.0
C2077 C 1.00031 0.0434 0.45398 0.0
C2078 C 1.01152 0.99208 0.39964 0.0
C2079 C 0.97645 0.05972 0.42382 0.0
H2080 H 0.99161 0.04103 0.33122 0.0
H2081 H 0.93196 1.00075 0.3503 0.0
H2082 H 0.01807 0.06114 0.39193 0.0
H2083 H 0.02916 0.03816 0.3786 0.0
H2084 H 0.02217 0.05924 0.36042 0.0
H2085 H 0.93071 0.9882 0.38861 0.0
H2086 H 0.95745 0.98708 0.40516 0.0
H2087 H 0.94467 0.01075 0.41223 0.0
H2088 H 0.02979 1.00166 0.44667 0.0
H2089 H 0.99736 0.05615 0.46773 0.0
H2090 H 0.01965 0.99965 0.38484 0.0
H2091 H 0.99509 0.98123 0.39135 0.0
H2092 H 0.02221 0.98114 0.40766 0.0
H2093 H 0.98378 0.06952 0.40992 0.0
H2094 H 0.97563 0.07185 0.43993 0.0
H2095 H 0.95907 0.05103 0.41599 0.0
C2096 C 0.30225 0.69915 0.62931 0.0
C2097 C 0.28689 0.67858 0.62277 0.0
C2098 C 0.30361 0.71132 0.65206 0.0
C2099 C 0.28932 0.70227 0.66838 0.0
C2100 C 0.27554 0.68028 0.6628 0.0
C2101 C 0.27446 0.66848 0.63969 0.0
C2102 C 0.31845 0.73486 0.6575 0.0
C2103 C 0.26038 0.67032 0.68019 0.0
C2104 C 0.30411 0.73896 0.7278 0.0
C2105 C 0.28922 0.75372 0.72514 0.0
C2106 C 0.30264 0.72032 0.71046 0.0
C2107 C 0.28681 0.71738 0.68953 0.0
C2108 C 0.27138 0.73196 0.68694 0.0
C2109 C 0.2727 0.75004 0.70504 0.0
C2110 C 0.31888 0.70463 0.71385 0.0
C2111 C 0.2546 0.72948 0.66438 0.0
H2112 H 0.31188 0.70655 0.61592 0.0
H2113 H 0.26255 0.65247 0.63423 0.0
H2114 H 0.30783 0.7478 0.65875 0.0
H2115 H 0.32924 0.73681 0.67517 0.0
H2116 H 0.32945 0.7386 0.64329 0.0
H2117 H 0.25449 0.65165 0.67536 0.0
H2118 H 0.26909 0.67397 0.69908 0.0
H2119 H 0.24541 0.6782 0.67966 0.0
H2120 H 0.31712 0.7421 0.74327 0.0
H2121 H 0.26116 0.76151 0.70327 0.0
H2122 H 0.33182 0.70786 0.70154 0.0
H2123 H 0.30996 0.68661 0.70916 0.0
H2124 H 0.32752 0.70715 0.73276 0.0
H2125 H 0.26366 0.73419 0.64896 0.0
H2126 H 0.24219 0.74053 0.66659 0.0
H2127 H 0.24537 0.7116 0.65956 0.0
C2128 C 0.64195 0.05099 0.80747 0.0
C2129 C 0.66278 0.04459 0.81059 0.0
C2130 C 0.63097 0.05582 0.82718 0.0
C2131 C 0.64065 0.05321 0.85051 0.0
C2132 C 0.66101 0.04543 0.85378 0.0
C2133 C 0.67212 0.04146 0.83363 0.0
C2134 C 0.60946 0.06459 0.82303 0.0
C2135 C 0.67098 0.04141 0.87842 0.0
C2136 C 0.62039 0.09212 0.89526 0.0
C2137 C 0.60105 0.07773 0.89989 0.0
C2138 C 0.63508 0.08363 0.88113 0.0
C2139 C 0.62984 0.06038 0.87127 0.0
C2140 C 0.61111 0.04547 0.87737 0.0
C2141 C 0.59685 0.0544 0.89181 0.0
C2142 C 0.65519 0.09987 0.8752 0.0
C2143 C 0.60516 0.02058 0.86716 0.0
H2144 H 0.63436 0.05295 0.78964 0.0
H2145 H 0.68805 0.03606 0.8359 0.0
H2146 H 0.59554 0.05334 0.8297 0.0
H2147 H 0.61165 0.08181 0.83329 0.0
H2148 H 0.60435 0.06566 0.80359 0.0
H2149 H 0.68804 0.03763 0.87829 0.0
H2150 H 0.67195 0.0564 0.89209 0.0
H2151 H 0.6599 0.02679 0.88433 0.0
H2152 H 0.6238 0.11001 0.90245 0.0
H2153 H 0.58205 0.04334 0.89617 0.0
H2154 H 0.65209 0.10293 0.85605 0.0
H2155 H 0.67043 0.09246 0.87722 0.0
H2156 H 0.65859 0.11648 0.88699 0.0
H2157 H 0.59704 0.01869 0.84812 0.0
H2158 H 0.5933 0.01057 0.8776 0.0
H2159 H 0.62046 0.01327 0.86706 0.0
C2160 C 0.3254 0.36529 0.12814 0.0
C2161 C 0.30804 0.36491 0.10943 0.0
C2162 C 0.32086 0.35749 0.15029 0.0
C2163 C 0.29842 0.34815 0.15358 0.0
C2164 C 0.28076 0.34817 0.13484 0.0
C2165 C 0.28575 0.35689 0.11318 0.0
C2166 C 0.34023 0.35845 0.16983 0.0
C2167 C 0.25669 0.33785 0.13713 0.0
C2168 C 0.294 0.3039 0.1977 0.0
C2169 C 0.28825 0.31551 0.2185 0.0
C2170 C 0.29606 0.31387 0.17623 0.0
C2171 C 0.2938 0.33671 0.17569 0.0
C2172 C 0.28836 0.34874 0.19669 0.0
C2173 C 0.2853 0.33792 0.2176 0.0
C2174 C 0.30113 0.29999 0.15421 0.0
C2175 C 0.28682 0.3734 0.19753 0.0
H2176 H 0.34266 0.37136 0.12525 0.0
H2177 H 0.2723 0.35624 0.09862 0.0
H2178 H 0.33631 0.36526 0.18772 0.0
H2179 H 0.34311 0.34104 0.17119 0.0
H2180 H 0.35605 0.36918 0.16605 0.0
H2181 H 0.24485 0.3394 0.12116 0.0
H2182 H 0.25512 0.31955 0.1391 0.0
H2183 H 0.25161 0.34619 0.15365 0.0
H2184 H 0.29754 0.2871 0.19823 0.0
H2185 H 0.28135 0.34734 0.23359 0.0
H2186 H 0.31844 0.30681 0.15058 0.0
H2187 H 0.28943 0.30115 0.13798 0.0
H2188 H 0.2997 0.28178 0.15657 0.0
H2189 H 0.30388 0.38388 0.19769 0.0
H2190 H 0.27985 0.37958 0.21389 0.0
H2191 H 0.2762 0.37612 0.18117 0.0
C2192 C 0.23899 0.95305 0.01527 0.0
C2193 C 0.25572 0.96591 0.00455 0.0
C2194 C 0.22209 0.96282 0.02374 0.0
C2195 C 0.22181 0.98564 0.02047 0.0
C2196 C 0.23795 0.99823 0.00826 0.0
C2197 C 0.25521 0.98825 1.00082 0.0
C2198 C 0.20525 0.94913 0.03718 0.0
C2199 C 0.23753 0.02237 0.00396 0.0
C2200 C 0.16685 0.99955 0.03204 0.0
C2201 C 0.17182 1.00803 0.05672 0.0
C2202 C 0.1836 0.99369 0.01923 0.0
C2203 C 0.20552 0.99654 0.03164 0.0
C2204 C 0.2109 1.00651 0.05614 0.0
C2205 C 0.19377 0.01208 0.06853 0.0
C2206 C 0.17759 0.98311 0.99303 0.0
C2207 C 0.23431 0.00983 0.06971 0.0
H2208 H 0.23985 0.93577 0.01822 0.0
H2209 H 0.26836 0.99788 0.99231 0.0
H2210 H 0.20651 0.95761 0.05602 0.0
H2211 H 0.1879 0.94816 0.0283 0.0
H2212 H 0.20793 0.93154 0.03795 0.0
H2213 H 0.24883 0.02819 0.99064 0.0
H2214 H 0.22021 0.024 0.99729 0.0
H2215 H 0.24304 0.03388 0.02128 0.0
H2216 H 0.14974 0.99686 0.02302 0.0
H2217 H 0.19743 0.01931 0.08748 0.0
H2218 H 0.17705 0.96456 0.99178 0.0
H2219 H 0.19052 0.99034 0.98199 0.0
H2220 H 0.16094 0.98562 0.98504 0.0
H2221 H 0.23796 0.99302 0.07288 0.0
H2222 H 0.23623 0.02054 0.08754 0.0
H2223 H 0.24705 0.01784 0.05891 0.0
C2224 C 0.68244 0.64999 0.99614 0.0
C2225 C 0.70401 0.64899 0.00681 0.0
C2226 C 0.66359 0.63309 0.99806 0.0
C2227 C 0.66623 0.61488 0.01134 0.0
C2228 C 0.68805 0.61342 0.02161 0.0
C2229 C 0.70668 0.63036 0.01906 0.0
C2230 C 0.64069 0.63522 0.9866 0.0
C2231 C 0.69164 0.59428 0.03585 0.0
C2232 C 0.61621 0.58792 0.04075 0.0
C2233 C 0.60567 0.56957 0.02326 0.0
C2234 C 0.63575 0.60288 0.03698 0.0
C2235 C 0.646 0.59841 0.01597 0.0
C2236 C 0.63642 0.57865 0.99924 0.0
C2237 C 0.61602 0.56477 0.00278 0.0
C2238 C 0.64496 0.62392 0.05508 0.0
C2239 C 0.64731 0.57253 0.97725 0.0
H2240 H 0.68025 0.66418 0.98647 0.0
H2241 H 0.72326 0.62941 0.02745 0.0
H2242 H 0.63208 0.61914 0.9751 0.0
H2243 H 0.63015 0.63839 1.001 0.0
H2244 H 0.64167 0.6493 0.97528 0.0
H2245 H 0.7097 0.59514 0.0421 0.0
H2246 H 0.68259 0.59481 0.05195 0.0
H2247 H 0.68456 0.57765 0.02457 0.0
H2248 H 0.60892 0.59083 0.05725 0.0
H2249 H 0.60796 0.55045 0.98931 0.0
H2250 H 0.64507 0.63932 0.04591 0.0
H2251 H 0.66258 0.62418 0.06254 0.0
H2252 H 0.6349 0.625 0.07036 0.0
H2253 H 0.64489 0.58437 0.96385 0.0
H2254 H 0.64002 0.55488 0.96844 0.0
H2255 H 0.66569 0.57423 0.98225 0.0
C2256 C 0.69682 0.50421 0.2881 0.0
C2257 C 0.67419 0.50029 0.29195 0.0
C2258 C 0.70797 0.48623 0.28441 0.0
C2259 C 0.69622 0.46366 0.28447 0.0
C2260 C 0.67367 0.45959 0.28939 0.0
C2261 C 0.66286 0.478 0.29305 0.0
C2262 C 0.73214 0.49138 0.27956 0.0
C2263 C 0.66094 0.43579 0.29038 0.0
C2264 C 0.71925 0.42274 0.24342 0.0
C2265 C 0.73492 0.41594 0.25973 0.0
C2266 C 0.70529 0.43696 0.25153 0.0
C2267 C 0.70699 0.44453 0.27662 0.0
C2268 C 0.72145 0.43617 0.29339 0.0
C2269 C 0.73528 0.42189 0.2847 0.0
C2270 C 0.68997 0.44527 0.23304 0.0
C2271 C 0.72369 0.44363 0.3203 0.0
H2272 H 0.70586 0.5214 0.28762 0.0
H2273 H 0.6455 0.47492 0.29648 0.0
H2274 H 0.74272 0.48357 0.2922 0.0
H2275 H 0.73328 0.48388 0.26086 0.0
H2276 H 0.73925 0.50993 0.28156 0.0
H2277 H 0.64368 0.43549 0.29498 0.0
H2278 H 0.65974 0.4252 0.27263 0.0
H2279 H 0.67017 0.42781 0.30411 0.0
H2280 H 0.71859 0.41765 0.22414 0.0
H2281 H 0.74729 0.41649 0.29737 0.0
H2282 H 0.69617 0.46372 0.23266 0.0
H2283 H 0.67271 0.44303 0.23808 0.0
H2284 H 0.68913 0.43622 0.21451 0.0
H2285 H 0.73611 0.45996 0.32498 0.0
H2286 H 0.72978 0.43096 0.33086 0.0
H2287 H 0.70749 0.44638 0.32597 0.0
C2288 C 0.89036 0.44948 0.49382 0.0
C2289 C 0.87124 0.45602 0.50135 0.0
C2290 C 0.91133 0.46396 0.49997 0.0
C2291 C 0.91292 0.48523 0.514 0.0
C2292 C 0.89379 0.49198 0.52172 0.0
C2293 C 0.87303 0.47725 0.5152 0.0
C2294 C 0.9317 0.45661 0.4913 0.0
C2295 C 0.89528 0.5148 0.53655 0.0
C2296 C 0.9716 0.51094 0.54274 0.0
C2297 C 0.97871 0.52464 0.52544 0.0
C2298 C 0.94943 0.49904 0.54022 0.0
C2299 C 0.93463 0.50082 0.51962 0.0
C2300 C 0.94139 0.51582 0.50293 0.0
C2301 C 0.96347 0.5278 0.50624 0.0
C2302 C 0.94228 0.48353 0.55863 0.0
C2303 C 0.92605 0.51775 0.48049 0.0
H2304 H 0.88894 0.43314 0.48304 0.0
H2305 H 0.85825 0.48236 0.52115 0.0
H2306 H 0.93974 0.46898 0.47998 0.0
H2307 H 0.94432 0.45634 0.50704 0.0
H2308 H 0.92741 0.43947 0.48047 0.0
H2309 H 0.87886 0.51687 0.5422 0.0
H2310 H 0.90779 0.51694 0.553 0.0
H2311 H 0.90114 0.52866 0.52583 0.0
H2312 H 0.98349 0.50904 0.55774 0.0
H2313 H 0.96908 0.53839 0.49282 0.0
H2314 H 0.9402 0.46556 0.55051 0.0
H2315 H 0.92583 0.48583 0.56394 0.0
H2316 H 0.95482 0.48664 0.5752 0.0
H2317 H 0.92455 0.50246 0.46705 0.0
H2318 H 0.93262 0.53298 0.47192 0.0
H2319 H 0.90891 0.51858 0.48473 0.0
C2320 C 0.37745 0.09026 0.29515 0.0
C2321 C 0.36571 0.07262 0.30575 0.0
C2322 C 0.36681 0.10699 0.28748 0.0
C2323 C 0.34419 0.10608 0.29128 0.0
C2324 C 0.33264 0.08893 0.3032 0.0
C2325 C 0.34354 0.07191 0.30995 0.0
C2326 C 0.37948 0.12505 0.27449 0.0
C2327 C 0.30874 0.08816 0.30809 0.0
C2328 C 0.32987 0.16161 0.28176 0.0
C2329 C 0.32171 0.15724 0.25698 0.0
C2330 C 0.33533 0.14425 0.2941 0.0
C2331 C 0.33256 0.12239 0.28106 0.0
C2332 C 0.32282 0.11757 0.25649 0.0
C2333 C 0.31756 0.13528 0.2446 0.0
C2334 C 0.34567 0.14967 0.32039 0.0
C2335 C 0.31971 0.09423 0.24227 0.0
H2336 H 0.39465 0.09043 0.29192 0.0
H2337 H 0.33482 0.05814 0.31849 0.0
H2338 H 0.37071 0.12421 0.25587 0.0
H2339 H 0.38001 0.1422 0.28412 0.0
H2340 H 0.39702 0.12311 0.27315 0.0
H2341 H 0.30379 0.07625 0.32127 0.0
H2342 H 0.30648 0.10531 0.31521 0.0
H2343 H 0.29714 0.08248 0.29092 0.0
H2344 H 0.33257 0.17873 0.29125 0.0
H2345 H 0.3105 0.1321 0.22561 0.0
H2346 H 0.36412 0.15096 0.32161 0.0
H2347 H 0.33897 0.13593 0.3309 0.0
H2348 H 0.34258 0.16603 0.32897 0.0
H2349 H 0.33637 0.09096 0.23866 0.0
H2350 H 0.30888 0.09261 0.22462 0.0
H2351 H 0.31216 0.08089 0.25278 0.0
C2352 C 0.34705 0.16712 0.52741 0.0
C2353 C 0.325 0.15501 0.52716 0.0
C2354 C 0.36546 0.15654 0.53137 0.0
C2355 C 0.36162 0.13337 0.53501 0.0
C2356 C 0.33936 0.12098 0.5342 0.0
C2357 C 0.32137 0.13196 0.53037 0.0
C2358 C 0.38899 0.17016 0.53194 0.0
C2359 C 0.33453 0.0962 0.53792 0.0
C2360 C 0.40402 0.09549 0.52982 0.0
C2361 C 0.41046 0.09402 0.55432 0.0
C2362 C 0.38908 0.1094 0.52309 0.0
C2363 C 0.38067 0.1222 0.54135 0.0
C2364 C 0.38846 0.12197 0.56607 0.0
C2365 C 0.40326 0.10787 0.57224 0.0
C2366 C 0.38112 0.10919 0.49655 0.0
C2367 C 0.38008 0.13557 0.58606 0.0
H2368 H 0.34993 0.18487 0.52469 0.0
H2369 H 0.30437 0.1224 0.52996 0.0
H2370 H 0.39894 0.17047 0.54983 0.0
H2371 H 0.39758 0.162 0.51806 0.0
H2372 H 0.38913 0.18795 0.52856 0.0
H2373 H 0.31623 0.08868 0.53534 0.0
H2374 H 0.34268 0.0862 0.52509 0.0
H2375 H 0.34167 0.0944 0.55654 0.0
H2376 H 0.40971 0.08486 0.51595 0.0
H2377 H 0.4087 0.1071 0.59118 0.0
H2378 H 0.3819 0.12677 0.49222 0.0
H2379 H 0.3633 0.10008 0.49229 0.0
H2380 H 0.39123 0.10062 0.48465 0.0
H2381 H 0.38249 0.15368 0.5831 0.0
H2382 H 0.38883 0.13458 0.60427 0.0
H2383 H 0.36179 0.12912 0.58586 0.0
C2384 C 0.67688 0.64604 0.31845 0.0
C2385 C 0.67789 0.62399 0.3086 0.0
C2386 C 0.69396 0.66481 0.31663 0.0
C2387 C 0.71239 0.66158 0.30432 0.0
C2388 C 0.71384 0.6393 0.29489 0.0
C2389 C 0.69671 0.62079 0.29731 0.0
C2390 C 0.69181 0.68825 0.32708 0.0
C2391 C 0.73315 0.63512 0.28157 0.0
C2392 C 0.73921 0.71138 0.27412 0.0
C2393 C 0.75741 0.72227 0.29151 0.0
C2394 C 0.7246 0.6916 0.278 0.0
C2395 C 0.7289 0.6817 0.29936 0.0
C2396 C 0.74842 0.69157 0.3161 0.0
C2397 C 0.76236 0.71194 0.3121 0.0
C2398 C 0.7041 0.68179 0.25957 0.0
C2399 C 0.75408 0.6812 0.3387 0.0
H2400 H 0.66256 0.64867 0.32737 0.0
H2401 H 0.69771 0.60385 0.28956 0.0
H2402 H 0.70754 0.69708 0.33885 0.0
H2403 H 0.68917 0.69853 0.31216 0.0
H2404 H 0.67757 0.68773 0.33786 0.0
H2405 H 0.73226 0.61674 0.27599 0.0
H2406 H 0.73314 0.64383 0.26511 0.0
H2407 H 0.74939 0.64239 0.2932 0.0
H2408 H 0.73624 0.71851 0.25748 0.0
H2409 H 0.77656 0.72022 0.32549 0.0
H2410 H 0.68864 0.68169 0.26827 0.0
H2411 H 0.70416 0.66392 0.25264 0.0
H2412 H 0.7032 0.69162 0.24395 0.0
H2413 H 0.74213 0.68412 0.35167 0.0
H2414 H 0.77144 0.68869 0.34773 0.0
H2415 H 0.75235 0.66255 0.3344 0.0
C2416 C 0.86992 0.4411 0.83531 0.0
C2417 C 0.87054 0.45759 0.81967 0.0
C2418 C 0.85427 0.42061 0.82954 0.0
C2419 C 0.8397 0.41665 0.80735 0.0
C2420 C 0.8399 0.43352 0.79183 0.0
C2421 C 0.85522 0.45406 0.7984 0.0
C2422 C 0.85403 0.40284 0.84659 0.0
C2423 C 0.82492 0.42937 0.76775 0.0
C2424 C 0.82473 0.35488 0.7838 0.0
C2425 C 0.80308 0.34894 0.79003 0.0
C2426 C 0.83619 0.3774 0.78754 0.0
C2427 C 0.82611 0.39395 0.79919 0.0
C2428 C 0.80396 0.38829 0.80482 0.0
C2429 C 0.79242 0.36574 0.79963 0.0
C2430 C 0.85962 0.38317 0.78056 0.0
C2431 C 0.79313 0.40555 0.81801 0.0
H2432 H 0.8817 0.44421 0.85186 0.0
H2433 H 0.85593 0.46697 0.78631 0.0
H2434 H 0.83655 0.3958 0.8496 0.0
H2435 H 0.86091 0.38854 0.83841 0.0
H2436 H 0.86425 0.40979 0.86442 0.0
H2437 H 0.82637 0.44481 0.75844 0.0
H2438 H 0.82949 0.41564 0.75571 0.0
H2439 H 0.80709 0.42357 0.77031 0.0
H2440 H 0.83328 0.34185 0.77731 0.0
H2441 H 0.77569 0.3611 0.80465 0.0
H2442 H 0.87216 0.38704 0.79713 0.0
H2443 H 0.86163 0.39848 0.77107 0.0
H2444 H 0.86352 0.36895 0.76859 0.0
H2445 H 0.80119 0.40957 0.83716 0.0
H2446 H 0.77482 0.39914 0.81788 0.0
H2447 H 0.79564 0.42164 0.80989 0.0
C2448 C 0.05013 0.87333 0.0974 0.0
C2449 C 0.06941 0.86449 0.09327 0.0
C2450 C 0.04617 0.89416 0.08938 0.0
C2451 C 0.06209 0.90777 0.07728 0.0
C2452 C 0.0817 0.89901 0.07322 0.0
C2453 C 0.08492 0.87772 0.08082 0.0
C2454 C 0.0247 0.90164 0.09396 0.0
C2455 C 0.09973 0.9125 0.0612 0.0
C2456 C 0.0439 0.95436 0.03939 0.0
C2457 C 0.0519 0.97514 0.05488 0.0
C2458 C 0.04717 0.93283 0.04617 0.0
C2459 C 0.05848 0.9311 0.06946 0.0
C2460 C 0.06624 0.95201 0.08529 0.0
C2461 C 0.06311 0.97333 0.07789 0.0
C2462 C 0.03856 0.91176 0.02808 0.0
C2463 C 0.07789 0.95193 0.11044 0.0
H2464 H 0.03783 0.86373 0.10693 0.0
H2465 H 0.1001 0.87177 0.07763 0.0
H2466 H 0.02862 0.91868 0.10491 0.0
H2467 H 0.015 0.90317 0.07647 0.0
H2468 H 0.01392 0.88957 0.10357 0.0
H2469 H 0.11347 0.90333 0.05812 0.0
H2470 H 0.09237 0.91647 0.04356 0.0
H2471 H 0.10705 0.92894 0.07274 0.0
H2472 H 0.03524 0.95487 0.02157 0.0
H2473 H 0.06939 0.98876 0.09047 0.0
H2474 H 0.02613 0.89952 0.0357 0.0
H2475 H 0.05264 0.90329 0.02442 0.0
H2476 H 0.0305 0.91558 0.01065 0.0
H2477 H 0.0663 0.94158 0.12083 0.0
H2478 H 0.08355 0.96933 0.12055 0.0
H2479 H 0.0927 0.94395 0.10943 0.0
C2480 C 0.94595 0.27779 0.88928 0.0
C2481 C 0.94318 0.27525 0.91358 0.0
C2482 C 0.92746 0.27855 0.87175 0.0
C2483 C 0.90541 0.27664 0.87835 0.0
C2484 C 0.90254 0.27363 0.9027 0.0
C2485 C 0.92123 0.27303 0.91979 0.0
C2486 C 0.93161 0.28183 0.84618 0.0
C2487 C 0.87961 0.27134 0.9109 0.0
C2488 C 0.86092 0.30101 0.84075 0.0
C2489 C 0.84648 0.28139 0.82789 0.0
C2490 C 0.87988 0.29971 0.85716 0.0
C2491 C 0.88543 0.2783 0.86022 0.0
C2492 C 0.87122 0.25849 0.84659 0.0
C2493 C 0.85183 0.26024 0.83102 0.0
C2494 C 0.89378 0.32132 0.87161 0.0
C2495 C 0.87664 0.23536 0.84825 0.0
H2496 H 0.96267 0.27967 0.88401 0.0
H2497 H 0.91857 0.27096 0.9383 0.0
H2498 H 0.91983 0.26865 0.83302 0.0
H2499 H 0.92838 0.2986 0.84225 0.0
H2500 H 0.94913 0.28109 0.84319 0.0
H2501 H 0.88003 0.26915 0.93038 0.0
H2502 H 0.87273 0.28665 0.90786 0.0
H2503 H 0.86784 0.25649 0.90003 0.0
H2504 H 0.85697 0.31745 0.83847 0.0
H2505 H 0.84099 0.24501 0.82093 0.0
H2506 H 0.91137 0.3237 0.86758 0.0
H2507 H 0.89421 0.3201 0.89129 0.0
H2508 H 0.88708 0.33655 0.86767 0.0
H2509 H 0.89308 0.23493 0.84178 0.0
H2510 H 0.86365 0.22153 0.83724 0.0
H2511 H 0.87821 0.23197 0.86737 0.0
C2512 C 0.55549 0.21779 0.59668 0.0
C2513 C 0.56864 0.23276 0.58355 0.0
C2514 C 0.55223 0.19351 0.59125 0.0
C2515 C 0.56229 0.18331 0.5722 0.0
C2516 C 0.57537 0.19835 0.55889 0.0
C2517 C 0.57834 0.22236 0.56464 0.0
C2518 C 0.53804 0.17866 0.6061 0.0
C2519 C 0.58615 0.18904 0.5381 0.0
C2520 C 0.57195 0.1208 0.56849 0.0
C2521 C 0.5535 0.10821 0.55202 0.0
C2522 C 0.5747 0.14476 0.57556 0.0
C2523 C 0.55899 0.15718 0.56572 0.0
C2524 C 0.54061 0.14455 0.5487 0.0
C2525 C 0.53796 0.12058 0.54249 0.0
C2526 C 0.59447 0.15681 0.59389 0.0
C2527 C 0.52351 0.15632 0.53687 0.0
H2528 H 0.54776 0.22501 0.61131 0.0
H2529 H 0.5885 0.23313 0.55401 0.0
H2530 H 0.52399 0.16689 0.5941 0.0
H2531 H 0.54834 0.16806 0.61537 0.0
H2532 H 0.53095 0.18874 0.61994 0.0
H2533 H 0.59621 0.2027 0.52969 0.0
H2534 H 0.59729 0.17778 0.54443 0.0
H2535 H 0.57295 0.17857 0.52397 0.0
H2536 H 0.58402 0.11181 0.57641 0.0
H2537 H 0.5236 0.11148 0.52973 0.0
H2538 H 0.58842 0.1655 0.60959 0.0
H2539 H 0.60526 0.1701 0.58574 0.0
H2540 H 0.60486 0.14498 0.60053 0.0
H2541 H 0.51309 0.16176 0.55049 0.0
H2542 H 0.51219 0.14507 0.52161 0.0
H2543 H 0.53198 0.1718 0.52993 0.0
C2544 C 0.5903 0.79041 0.42809 0.0
C2545 C 0.56893 0.77995 0.41582 0.0
C2546 C 0.60946 0.79291 0.41592 0.0
C2547 C 0.60726 0.78487 0.39083 0.0
C2548 C 0.58588 0.77348 0.37862 0.0
C2549 C 0.56704 0.77119 0.39122 0.0
C2550 C 0.63198 0.80483 0.42975 0.0
C2551 C 0.58279 0.76426 0.35205 0.0
C2552 C 0.65036 0.81717 0.35609 0.0
C2553 C 0.66589 0.80297 0.35439 0.0
C2554 C 0.63089 0.81104 0.36709 0.0
C2555 C 0.62685 0.79024 0.37696 0.0
C2556 C 0.64196 0.77528 0.37426 0.0
C2557 C 0.6613 0.78181 0.36294 0.0
C2558 C 0.61506 0.82729 0.36893 0.0
C2559 C 0.63846 0.75296 0.38447 0.0
H2560 H 0.592 0.79717 0.44709 0.0
H2561 H 0.55067 0.76293 0.38155 0.0
H2562 H 0.64463 0.79417 0.42721 0.0
H2563 H 0.63791 0.82102 0.42258 0.0
H2564 H 0.63125 0.80867 0.44947 0.0
H2565 H 0.56522 0.75527 0.34531 0.0
H2566 H 0.58741 0.77837 0.34122 0.0
H2567 H 0.59415 0.7523 0.34884 0.0
H2568 H 0.65385 0.83349 0.34941 0.0
H2569 H 0.67338 0.77088 0.36186 0.0
H2570 H 0.61474 0.83342 0.38827 0.0
H2571 H 0.5977 0.81844 0.36117 0.0
H2572 H 0.62002 0.84226 0.35934 0.0
H2573 H 0.64404 0.75623 0.4043 0.0
H2574 H 0.64831 0.74123 0.37622 0.0
H2575 H 0.62045 0.74441 0.38163 0.0
C2576 C 0.0306 0.24466 0.39449 0.0
C2577 C 0.05037 0.26134 0.39695 0.0
C2578 C 0.02988 0.22492 0.40582 0.0
C2579 C 0.04938 0.22189 0.42026 0.0
C2580 C 0.0698 0.23799 0.42141 0.0
C2581 C 0.07003 0.2576 0.40981 0.0
C2582 C 1.00772 0.20829 0.40396 0.0
C2583 C 0.091 0.23526 0.43627 0.0
C2584 C 0.03483 0.19021 0.47328 0.0
C2585 C 0.03468 0.1677 0.464 0.0
C2586 C 0.04098 0.20819 0.45984 0.0
C2587 C 0.04739 0.20364 0.43652 0.0
C2588 C 0.04919 0.18118 0.42798 0.0
C2589 C 0.04262 0.16339 0.44177 0.0
C2590 C 0.03865 0.23174 0.46977 0.0
C2591 C 0.05625 0.17556 0.40346 0.0
H2592 H 0.01527 0.24782 0.38506 0.0
H2593 H 0.08517 0.27079 0.41228 0.0
H2594 H 1.00992 0.19066 0.39909 0.0
H2595 H 1.00142 0.20913 0.42182 0.0
H2596 H 0.99474 0.21191 0.39027 0.0
H2597 H 0.10589 0.24811 0.43368 0.0
H2598 H 0.08896 0.23702 0.45579 0.0
H2599 H 0.09423 0.21801 0.43137 0.0
H2600 H 0.0284 0.19348 0.49032 0.0
H2601 H 0.04215 0.14596 0.43434 0.0
H2602 H 0.02445 0.2365 0.45877 0.0
H2603 H 0.05407 0.24443 0.46856 0.0
H2604 H 0.03542 0.23282 0.48896 0.0
H2605 H 0.04175 0.17417 0.38922 0.0
H2606 H 0.06193 0.15914 0.40194 0.0
H2607 H 0.06998 0.18916 0.39981 0.0
C2608 C 0.60734 0.27597 0.24356 0.0
C2609 C 0.59849 0.264 0.22037 0.0
C2610 C 0.63048 0.27801 0.25346 0.0
C2611 C 0.64563 0.26817 0.24 0.0
C2612 C 0.63646 0.25549 0.21707 0.0
C2613 C 0.6135 0.25355 0.20783 0.0
C2614 C 0.63896 0.29154 0.27804 0.0
C2615 C 0.65121 0.24454 0.20161 0.0
C2616 C 0.71036 0.29221 0.24863 0.0
C2617 C 0.71962 0.27657 0.26154 0.0
C2618 C 0.68674 0.29014 0.24243 0.0
C2619 C 0.67112 0.27177 0.24887 0.0
C2620 C 0.68029 0.25603 0.26209 0.0
C2621 C 0.70405 0.25875 0.26841 0.0
C2622 C 0.67849 0.30767 0.22859 0.0
C2623 C 0.66495 0.23612 0.26967 0.0
H2624 H 0.59655 0.28465 0.25352 0.0
H2625 H 0.60735 0.24431 0.1899 0.0
H2626 H 0.64908 0.28214 0.28933 0.0
H2627 H 0.65014 0.30778 0.27589 0.0
H2628 H 0.62501 0.29546 0.28777 0.0
H2629 H 0.64165 0.23473 0.18447 0.0
H2630 H 0.66476 0.25781 0.19702 0.0
H2631 H 0.65942 0.23294 0.21183 0.0
H2632 H 0.72166 0.30634 0.24322 0.0
H2633 H 0.71038 0.24676 0.27878 0.0
H2634 H 0.66649 0.31536 0.23853 0.0
H2635 H 0.66933 0.2994 0.21066 0.0
H2636 H 0.69244 0.32145 0.2257 0.0
H2637 H 0.65467 0.24244 0.28298 0.0
H2638 H 0.67441 0.22432 0.278 0.0
H2639 H 0.65316 0.22649 0.25382 0.0
C2640 C 0.54633 0.87916 0.92532 0.0
C2641 C 0.55781 0.88124 0.90493 0.0
C2642 C 0.54359 0.89837 0.94063 0.0
C2643 C 0.55296 0.92064 0.93607 0.0
C2644 C 0.56467 0.92289 0.91557 0.0
C2645 C 0.56673 0.9033 0.90019 0.0
C2646 C 0.5305 0.89477 0.96171 0.0
C2647 C 0.57543 0.94608 0.9101 0.0
C2648 C 0.52914 0.97096 0.9635 0.0
C2649 C 0.5448 0.98015 0.98414 0.0
C2650 C 0.53173 0.95196 0.94769 0.0
C2651 C 0.55031 0.94141 0.95261 0.0
C2652 C 0.56594 0.95043 0.97378 0.0
C2653 C 0.56296 0.96953 0.98921 0.0
C2654 C 0.51436 0.94299 0.92576 0.0
C2655 C 0.58581 0.93983 0.98031 0.0
H2656 H 0.53928 0.86234 0.92935 0.0
H2657 H 0.57582 0.90528 0.88474 0.0
H2658 H 0.54121 0.90265 0.97896 0.0
H2659 H 0.51593 0.90322 0.95996 0.0
H2660 H 0.52419 0.87647 0.96288 0.0
H2661 H 0.5837 0.94516 0.89343 0.0
H2662 H 0.5626 0.95667 0.90787 0.0
H2663 H 0.58819 0.95482 0.92557 0.0
H2664 H 0.51463 0.97848 0.95983 0.0
H2665 H 0.57498 0.97628 0.00529 0.0
H2666 H 0.50617 0.92515 0.92688 0.0
H2667 H 0.52256 0.9429 0.90905 0.0
H2668 H 0.50118 0.95328 0.92404 0.0
H2669 H 0.57984 0.9226 0.98519 0.0
H2670 H 0.59762 0.95006 0.99585 0.0
H2671 H 0.5951 0.93785 0.96452 0.0
C2672 C 0.94815 0.74265 0.72921 0.0
C2673 C 0.96425 0.76091 0.72378 0.0
C2674 C 0.92695 0.74556 0.73664 0.0
C2675 C 0.92101 0.7674 0.73935 0.0
C2676 C 0.93743 0.78591 0.7342 0.0
C2677 C 0.95826 0.78244 0.72636 0.0
C2678 C 0.9106 0.72496 0.74134 0.0
C2679 C 0.93296 0.80966 0.73695 0.0
C2680 C 0.85703 0.77134 0.73695 0.0
C2681 C 0.85407 0.77704 0.76142 0.0
C2682 C 0.87829 0.76865 0.72968 0.0
C2683 C 0.89783 0.77083 0.74706 0.0
C2684 C 0.89489 0.77653 0.77182 0.0
C2685 C 0.87358 0.77982 0.77852 0.0
C2686 C 0.87986 0.76362 0.70304 0.0
C2687 C 0.91428 0.77866 0.7916 0.0
H2688 H 0.9519 0.7258 0.72712 0.0
H2689 H 0.97008 0.79689 0.72226 0.0
H2690 H 0.9057 0.72783 0.75975 0.0
H2691 H 0.89505 0.72212 0.72819 0.0
H2692 H 0.91767 0.70935 0.73975 0.0
H2693 H 0.94669 0.82225 0.73157 0.0
H2694 H 0.91693 0.81007 0.72576 0.0
H2695 H 0.93109 0.81493 0.75609 0.0
H2696 H 0.84263 0.76933 0.72317 0.0
H2697 H 0.87213 0.78418 0.79748 0.0
H2698 H 0.88425 0.74674 0.69923 0.0
H2699 H 0.89348 0.77642 0.69782 0.0
H2700 H 0.86388 0.76368 0.69152 0.0
H2701 H 0.91847 0.76171 0.79269 0.0
H2702 H 0.91034 0.78524 0.80959 0.0
H2703 H 0.92945 0.79011 0.78743 0.0
C2704 C 0.13468 0.06458 0.88359 0.0
C2705 C 0.12267 0.05563 0.86064 0.0
C2706 C 0.12461 0.06207 0.90499 0.0
C2707 C 0.10231 0.04933 0.90364 0.0
C2708 C 0.09033 0.03984 0.88048 0.0
C2709 C 0.10044 0.04352 0.85936 0.0
C2710 C 0.13777 0.07332 0.92905 0.0
C2711 C 0.06682 0.02561 0.87794 0.0
C2712 C 0.08521 0.02663 0.96204 0.0
C2713 C 0.07127 0.04113 0.96962 0.0
C2714 C 0.09487 0.02866 0.94032 0.0
C2715 C 0.0914 0.04629 0.92636 0.0
C2716 C 0.07752 0.06115 0.93423 0.0
C2717 C 0.06729 0.05807 0.95534 0.0
C2718 C 0.10855 0.0117 0.93216 0.0
C2719 C 0.07402 0.08082 0.92083 0.0
H2720 H 0.15185 0.07395 0.88479 0.0
H2721 H 0.09111 0.03627 0.84175 0.0
H2722 H 0.1278 0.0839 0.93888 0.0
H2723 H 0.14114 0.06018 0.94052 0.0
H2724 H 0.15408 0.08423 0.92694 0.0
H2725 H 0.06076 0.01735 0.85904 0.0
H2726 H 0.06624 0.01222 0.89009 0.0
H2727 H 0.05504 0.03643 0.88345 0.0
H2728 H 0.0881 0.01333 0.97276 0.0
H2729 H 0.05667 0.06949 0.96117 0.0
H2730 H 0.12628 0.02044 0.93244 0.0
H2731 H 0.10207 1.00392 0.9132 0.0
H2732 H 0.10817 0.99794 0.94385 0.0
H2733 H 0.09031 0.09298 0.92189 0.0
H2734 H 0.06175 0.09004 0.92843 0.0
H2735 H 0.06801 0.07485 0.90136 0.0
C2736 C 0.78395 0.40175 0.56777 0.0
C2737 C 0.80394 0.40525 0.55753 0.0
C2738 C 0.78338 0.39298 0.58989 0.0
C2739 C 0.80328 0.38799 0.60141 0.0
C2740 C 0.82395 0.39388 0.59213 0.0
C2741 C 0.82394 0.40244 0.57013 0.0
C2742 C 0.76132 0.38731 0.59983 0.0
C2743 C 0.84566 0.38893 0.60394 0.0
C2744 C 0.81879 0.36975 0.66077 0.0
C2745 C 0.82007 0.34729 0.65287 0.0
C2746 C 0.80993 0.38288 0.64471 0.0
C2747 C 0.80247 0.37314 0.62043 0.0
C2748 C 0.80104 0.34963 0.61333 0.0
C2749 C 0.81014 0.33696 0.62972 0.0
C2750 C 0.81143 0.40781 0.6529 0.0
C2751 C 0.79283 0.33857 0.58757 0.0
H2752 H 0.76861 0.40428 0.55773 0.0
H2753 H 0.83936 0.40565 0.56197 0.0
H2754 H 0.75565 0.36858 0.59831 0.0
H2755 H 0.76343 0.39406 0.61935 0.0
H2756 H 0.74796 0.39431 0.58999 0.0
H2757 H 0.86044 0.39659 0.5955 0.0
H2758 H 0.84868 0.39552 0.62353 0.0
H2759 H 0.84454 0.37027 0.6022 0.0
H2760 H 0.82615 0.37753 0.67898 0.0
H2761 H 0.81049 0.3193 0.6241 0.0
H2762 H 0.79748 0.41413 0.64335 0.0
H2763 H 0.82748 0.41771 0.64869 0.0
H2764 H 0.8112 0.41111 0.67277 0.0
H2765 H 0.77782 0.34456 0.58001 0.0
H2766 H 0.78855 0.31973 0.58633 0.0
H2767 H 0.80625 0.34321 0.5761 0.0
C2768 C 0.44995 0.02485 0.37506 0.0
C2769 C 0.42813 0.02827 0.37661 0.0
C2770 C 0.46457 0.02491 0.39573 0.0
C2771 C 0.45698 0.02828 0.41844 0.0
C2772 C 0.43484 0.03121 0.42033 0.0
C2773 C 0.42048 0.03123 0.39913 0.0
C2774 C 0.48831 0.02204 0.3932 0.0
C2775 C 0.42664 0.03482 0.44464 0.0
C2776 C 0.49565 0.01066 0.46546 0.0
C2777 C 0.50788 0.0318 0.47648 0.0
C2778 C 0.47721 0.00936 0.44807 0.0
C2779 C 0.47291 0.02967 0.44007 0.0
C2780 C 0.48618 0.05109 0.45035 0.0
C2781 C 0.5032 0.05191 0.46922 0.0
C2782 C 0.4625 0.98644 0.43815 0.0
C2783 C 0.4834 0.07284 0.4405 0.0
H2784 H 0.45593 0.0226 0.35764 0.0
H2785 H 0.40358 0.03396 0.40017 0.0
H2786 H 0.50065 0.03674 0.4036 0.0
H2787 H 0.49142 1.00655 0.40076 0.0
H2788 H 0.49158 0.02055 0.37403 0.0
H2789 H 0.40829 0.03443 0.44282 0.0
H2790 H 0.43039 0.02161 0.45585 0.0
H2791 H 0.43563 0.05154 0.45459 0.0
H2792 H 0.49984 0.99536 0.47132 0.0
H2793 H 0.51348 0.06815 0.47762 0.0
H2794 H 0.46417 0.98211 0.41877 0.0
H2795 H 0.44459 0.98699 0.43919 0.0
H2796 H 0.46689 0.97268 0.44821 0.0
H2797 H 0.4879 0.07223 0.42179 0.0
H2798 H 0.49426 0.08812 0.4517 0.0
H2799 H 0.46566 0.07471 0.43945 0.0
C2800 C 0.76691 0.70115 0.10072 0.0
C2801 C 0.77787 0.71477 0.08508 0.0
C2802 C 0.76911 0.70861 0.12584 0.0
C2803 C 0.78306 0.72996 0.13571 0.0
C2804 C 0.79511 0.74314 0.12004 0.0
C2805 C 0.79206 0.73559 0.09494 0.0
C2806 C 0.75553 0.69421 0.14161 0.0
C2807 C 0.81077 0.76558 0.12971 0.0
C2808 C 0.76972 0.76267 0.19288 0.0
C2809 C 0.78427 0.75714 0.21144 0.0
C2810 C 0.76888 0.75363 0.16844 0.0
C2811 C 0.7837 0.73932 0.16191 0.0
C2812 C 0.79907 0.73427 0.18041 0.0
C2813 C 0.79892 0.74289 0.20488 0.0
C2814 C 0.75198 0.75934 0.14955 0.0
C2815 C 0.81572 0.71975 0.17444 0.0
H2816 H 0.75569 0.68518 0.09311 0.0
H2817 H 0.80051 0.74617 0.08288 0.0
H2818 H 0.76662 0.69111 0.1574 0.0
H2819 H 0.7431 0.70342 0.14879 0.0
H2820 H 0.74638 0.67756 0.13155 0.0
H2821 H 0.82012 0.773 0.11555 0.0
H2822 H 0.80107 0.7779 0.13696 0.0
H2823 H 0.82307 0.76333 0.14491 0.0
H2824 H 0.75883 0.77406 0.19737 0.0
H2825 H 0.81059 0.73871 0.21885 0.0
H2826 H 0.74097 0.74346 0.13974 0.0
H2827 H 0.76077 0.76834 0.13598 0.0
H2828 H 0.74124 0.7702 0.15757 0.0
H2829 H 0.80673 0.70184 0.16903 0.0
H2830 H 0.82876 0.72035 0.19012 0.0
H2831 H 0.82419 0.72534 0.15893 0.0
C2832 C 0.11923 0.04277 0.71358 0.0
C2833 C 0.11016 0.05695 0.72966 0.0
C2834 C 0.11164 0.03929 0.68831 0.0
C2835 C 0.09483 0.05047 0.67877 0.0
C2836 C 0.08576 0.06476 0.69493 0.0
C2837 C 0.0934 0.06773 0.7199 0.0
C2838 C 0.1216 0.02368 0.67178 0.0
C2839 C 0.06787 0.07709 0.68584 0.0
C2840 C 0.08851 0.06124 0.61238 0.0
C2841 C 0.06892 0.04539 0.60241 0.0
C2842 C 0.09732 0.06285 0.63703 0.0
C2843 C 0.08671 0.0477 0.65198 0.0
C2844 C 0.06719 0.03119 0.64166 0.0
C2845 C 0.05845 0.03038 0.61709 0.0
C2846 C 0.11776 0.08107 0.64718 0.0
C2847 C 0.05556 0.01433 0.65656 0.0
H2848 H 0.1321 0.03426 0.72071 0.0
H2849 H 0.08618 0.07881 0.73184 0.0
H2850 H 0.10803 0.01057 0.66064 0.0
H2851 H 0.13085 0.03355 0.65909 0.0
H2852 H 0.13334 0.01503 0.68199 0.0
H2853 H 0.06285 0.088 0.70066 0.0
H2854 H 0.07402 0.0879 0.67217 0.0
H2855 H 0.0527 0.0646 0.67678 0.0
H2856 H 0.09689 0.07251 0.6009 0.0
H2857 H 0.04355 0.01778 0.60922 0.0
H2858 H 0.13139 0.07323 0.65504 0.0
H2859 H 0.11358 0.09259 0.66203 0.0
H2860 H 0.12414 0.0914 0.63319 0.0
H2861 H 0.06727 1.00363 0.66295 0.0
H2862 H 0.04021 1.00303 0.64612 0.0
H2863 H 0.05079 0.02336 0.67288 0.0
C2864 C 0.81745 0.40623 0.42745 0.0
C2865 C 0.79856 0.4141 0.43349 0.0
C2866 C 0.81501 0.38776 0.40962 0.0
C2867 C 0.79312 0.37715 0.39841 0.0
C2868 C 0.77409 0.38561 0.40399 0.0
C2869 C 0.77714 0.40446 0.42141 0.0
C2870 C 0.83559 0.37925 0.40326 0.0
C2871 C 0.75053 0.37409 0.39247 0.0
C2872 C 0.78592 0.3464 0.33645 0.0
C2873 C 0.78571 0.32404 0.34094 0.0
C2874 C 0.78935 0.36393 0.35518 0.0
C2875 C 0.79024 0.35859 0.379 0.0
C2876 C 0.78794 0.33588 0.38395 0.0
C2877 C 0.78628 0.31871 0.36467 0.0
C2878 C 0.79262 0.38817 0.34941 0.0
C2879 C 0.78785 0.3298 0.4094 0.0
H2880 H 0.83383 0.41361 0.4377 0.0
H2881 H 0.76264 0.41036 0.42718 0.0
H2882 H 0.83414 0.36131 0.40658 0.0
H2883 H 0.83684 0.37971 0.38369 0.0
H2884 H 0.85135 0.38952 0.41395 0.0
H2885 H 0.73751 0.38227 0.39994 0.0
H2886 H 0.74881 0.37451 0.37261 0.0
H2887 H 0.74719 0.35594 0.39539 0.0
H2888 H 0.78458 0.35065 0.31828 0.0
H2889 H 0.78573 0.30141 0.36825 0.0
H2890 H 0.80851 0.3985 0.35971 0.0
H2891 H 0.77868 0.39601 0.35492 0.0
H2892 H 0.79328 0.38921 0.32979 0.0
H2893 H 0.80533 0.33368 0.41887 0.0
H2894 H 0.78081 0.31143 0.40943 0.0
H2895 H 0.77793 0.3399 0.41993 0.0
C2896 C 0.42508 0.99774 0.23857 0.0
C2897 C 0.41876 0.01685 0.24975 0.0
C2898 C 0.43171 0.99757 0.21567 0.0
C2899 C 0.43166 0.01701 0.20364 0.0
C2900 C 0.4228 0.03534 0.21371 0.0
C2901 C 0.41639 0.03508 0.237 0.0
C2902 C 0.44111 0.97759 0.20572 0.0
C2903 C 0.4219 0.05588 0.20086 0.0
C2904 C 0.48166 0.01786 0.17243 0.0
C2905 C 0.47178 1.00347 0.15122 0.0
C2906 C 0.46825 0.02608 0.18843 0.0
C2907 C 0.44455 0.01911 0.18307 0.0
C2908 C 0.43466 1.00732 0.16007 0.0
C2909 C 0.44853 0.99956 0.14425 0.0
C2910 C 0.47949 0.03916 0.21259 0.0
C2911 C 0.40951 0.99996 0.15357 0.0
H2912 H 0.42634 0.9835 0.24854 0.0
H2913 H 0.4112 0.04971 0.24584 0.0
H2914 H 0.43352 0.97134 0.18671 0.0
H2915 H 0.45954 0.98296 0.20593 0.0
H2916 H 0.43806 0.96318 0.21651 0.0
H2917 H 0.41116 0.06668 0.20903 0.0
H2918 H 0.4391 0.06631 0.20196 0.0
H2919 H 0.41541 0.05063 0.18137 0.0
H2920 H 0.4998 0.02157 0.17715 0.0
H2921 H 0.44106 0.98891 0.12737 0.0
H2922 H 0.47953 0.02726 0.22636 0.0
H2923 H 0.47032 0.05236 0.2188 0.0
H2924 H 0.49721 0.04746 0.21172 0.0
H2925 H 0.40381 0.98338 0.1601 0.0
H2926 H 0.40459 0.99767 0.13362 0.0
H2927 H 0.40065 0.0124 0.16221 0.0
C2928 C 0.75583 0.7095 0.93907 0.0
C2929 C 0.77438 0.70585 0.95401 0.0
C2930 C 0.75861 0.72044 0.91817 0.0
C2931 C 0.78052 0.72828 0.91218 0.0
C2932 C 0.79932 0.72488 0.92756 0.0
C2933 C 0.79601 0.71356 0.94808 0.0
C2934 C 0.73805 0.72345 0.90238 0.0
C2935 C 0.823 0.73365 0.92265 0.0
C2936 C 0.78895 0.73796 0.84679 0.0
C2937 C 0.78881 0.76122 0.84687 0.0
C2938 C 0.7858 0.72705 0.8676 0.0
C2939 C 0.78377 0.7398 0.88976 0.0
C2940 C 0.78459 0.76348 0.89029 0.0
C2941 C 0.78628 0.77366 0.86879 0.0
C2942 C 0.78416 0.70168 0.86567 0.0
C2943 C 0.78344 0.7782 0.91349 0.0
H2944 H 0.7391 0.70362 0.94364 0.0
H2945 H 0.81042 0.71092 0.95971 0.0
H2946 H 0.73838 0.74182 0.90209 0.0
H2947 H 0.73804 0.71579 0.88345 0.0
H2948 H 0.72219 0.71558 0.90883 0.0
H2949 H 0.83582 0.72945 0.93611 0.0
H2950 H 0.82535 0.72641 0.90428 0.0
H2951 H 0.82602 0.75241 0.92311 0.0
H2952 H 0.79076 0.72799 0.83012 0.0
H2953 H 0.78561 0.79147 0.8693 0.0
H2954 H 0.76811 0.69345 0.87146 0.0
H2955 H 0.79803 0.69783 0.87798 0.0
H2956 H 0.78494 0.69398 0.84693 0.0
H2957 H 0.76572 0.77601 0.91702 0.0
H2958 H 0.78987 0.7965 0.91241 0.0
H2959 H 0.7933 0.77328 0.92918 0.0
C2960 C 0.85099 0.12059 0.07857 0.0
C2961 C 0.82936 0.10725 0.07167 0.0
C2962 C 0.86978 0.1118 0.0739 0.0
C2963 C 0.8664 0.08949 0.06171 0.0
C2964 C 0.84482 0.07503 0.05794 0.0
C2965 C 0.8264 0.08414 0.06332 0.0
C2966 C 0.89269 0.12738 0.07895 0.0
C2967 C 0.84067 0.05108 0.04488 0.0
C2968 C 0.89654 0.07899 0.00834 0.0
C2969 C 0.90909 0.06357 0.01632 0.0
C2970 C 0.88346 0.08869 0.0236 0.0
C2971 C 0.88356 0.0832 0.04757 0.0
C2972 C 0.89775 0.06931 0.05648 0.0
C2973 C 0.91019 0.05929 0.04057 0.0
C2974 C 0.86846 0.10358 0.01347 0.0
C2975 C 0.89885 0.06417 0.08235 0.0
H2976 H 0.85315 0.13844 0.08554 0.0
H2977 H 0.80957 0.07387 0.05821 0.0
H2978 H 0.90612 0.11784 0.08307 0.0
H2979 H 0.89615 0.1358 0.06271 0.0
H2980 H 0.89349 0.14089 0.09433 0.0
H2981 H 0.82341 0.04146 0.04568 0.0
H2982 H 0.84291 0.05169 0.02553 0.0
H2983 H 0.85293 0.04165 0.05275 0.0
H2984 H 0.89643 0.08293 0.9899 0.0
H2985 H 0.92006 0.04746 0.04688 0.0
H2986 H 0.87169 0.12027 0.025 0.0
H2987 H 0.85056 0.09543 0.01339 0.0
H2988 H 0.87103 0.10661 0.99466 0.0
H2989 H 0.90117 0.08011 0.09506 0.0
H2990 H 0.91275 0.05538 0.08725 0.0
H2991 H 0.88278 0.0532 0.085 0.0
C2992 C 0.38066 0.4454 0.05346 0.0
C2993 C 0.37908 0.42299 0.0425 0.0
C2994 C 0.40045 0.46211 0.05437 0.0
C2995 C 0.41895 0.45642 0.0437 0.0
C2996 C 0.41731 0.43396 0.03235 0.0
C2997 C 0.39754 0.41758 0.03203 0.0
C2998 C 0.40161 0.48585 0.06673 0.0
C2999 C 0.43649 0.42716 0.02052 0.0
C3000 C 0.46342 0.50192 0.02453 0.0
C3001 C 0.4818 0.50322 0.04238 0.0
C3002 C 0.44272 0.48719 0.02503 0.0
C3003 C 0.44011 0.47378 0.04417 0.0
C3004 C 0.45836 0.47573 0.06278 0.0
C3005 C 0.47905 0.49023 0.06152 0.0
C3006 C 0.42397 0.48524 0.00448 0.0
C3007 C 0.45615 0.46218 0.08382 0.0
H3008 H 0.36654 0.44984 0.06158 0.0
H3009 H 0.39653 0.40045 0.02331 0.0
H3010 H 0.41678 0.49116 0.0805 0.0
H3011 H 0.40312 0.49802 0.05324 0.0
H3012 H 0.38652 0.48718 0.07572 0.0
H3013 H 0.43223 0.40925 0.01163 0.0
H3014 H 0.44122 0.43841 0.00671 0.0
H3015 H 0.45149 0.42922 0.0343 0.0
H3016 H 0.46552 0.5117 0.0095 0.0
H3017 H 0.49317 0.49125 0.07541 0.0
H3018 H 0.4086 0.48865 0.01169 0.0
H3019 H 0.41976 0.46765 0.99477 0.0
H3020 H 0.42851 0.4972 0.99124 0.0
H3021 H 0.44243 0.46642 0.09371 0.0
H3022 H 0.47192 0.46555 0.09675 0.0
H3023 H 0.45156 0.44372 0.0771 0.0
C3024 C 0.39546 0.57652 0.74965 0.0
C3025 C 0.40918 0.57315 0.77009 0.0
C3026 C 0.38375 0.59438 0.75069 0.0
C3027 C 0.38501 0.60838 0.77298 0.0
C3028 C 0.39891 0.60493 0.79367 0.0
C3029 C 0.4112 0.58763 0.79181 0.0
C3030 C 0.3698 0.59812 0.72809 0.0
C3031 C 0.39996 0.61877 0.81808 0.0
C3032 C 0.36731 0.66526 0.78126 0.0
C3033 C 0.34641 0.65884 0.78932 0.0
C3034 C 0.37951 0.64877 0.77406 0.0
C3035 C 0.37062 0.62553 0.77535 0.0
C3036 C 0.34875 0.61899 0.78173 0.0
C3037 C 0.33685 0.63575 0.78842 0.0
C3038 C 0.40263 0.65633 0.767 0.0
C3039 C 0.33876 0.5945 0.7838 0.0
H3040 H 0.39396 0.56522 0.73288 0.0
H3041 H 0.42153 0.58466 0.80769 0.0
H3042 H 0.35183 0.59564 0.73075 0.0
H3043 H 0.37512 0.6159 0.72441 0.0
H3044 H 0.37135 0.58638 0.71196 0.0
H3045 H 0.41185 0.61415 0.83226 0.0
H3046 H 0.4052 0.63716 0.81679 0.0
H3047 H 0.38301 0.61607 0.82397 0.0
H3048 H 0.37484 0.68318 0.7824 0.0
H3049 H 0.3208 0.63095 0.79501 0.0
H3050 H 0.40484 0.64538 0.75059 0.0
H3051 H 0.41556 0.65463 0.78184 0.0
H3052 H 0.40574 0.67433 0.76347 0.0
H3053 H 0.33907 0.58345 0.76675 0.0
H3054 H 0.32114 0.59217 0.78784 0.0
H3055 H 0.34899 0.58861 0.7985 0.0
C3056 C 0.20523 0.60001 0.55238 0.0
C3057 C 0.20802 0.62016 0.54174 0.0
C3058 C 0.18401 0.58596 0.55067 0.0
C3059 C 0.16551 0.59222 0.53773 0.0
C3060 C 0.1683 0.61225 0.52656 0.0
C3061 C 0.18962 0.62609 0.52876 0.0
C3062 C 0.18128 0.56481 0.56312 0.0
C3063 C 0.14865 0.61933 0.51285 0.0
C3064 C 0.11228 0.54858 0.51643 0.0
C3065 C 0.09908 0.55436 0.53386 0.0
C3066 C 0.13429 0.5608 0.51753 0.0
C3067 C 0.14291 0.57852 0.53685 0.0
C3068 C 0.12959 0.58399 0.55479 0.0
C3069 C 0.10758 0.5719 0.55286 0.0
C3070 C 0.14819 0.55497 0.49801 0.0
C3071 C 0.13853 0.60243 0.57599 0.0
H3072 H 0.21949 0.59553 0.56258 0.0
H3073 H 0.19188 0.6416 0.52041 0.0
H3074 H 0.16944 0.5657 0.57668 0.0
H3075 H 0.17394 0.54959 0.54968 0.0
H3076 H 0.1975 0.56243 0.57247 0.0
H3077 H 0.15394 0.63486 0.50423 0.0
H3078 H 0.13972 0.60537 0.49857 0.0
H3079 H 0.13647 0.6227 0.52538 0.0
H3080 H 0.10534 0.53473 0.50199 0.0
H3081 H 0.09706 0.5759 0.5664 0.0
H3082 H 0.16388 0.55058 0.50627 0.0
H3083 H 0.15317 0.56996 0.4885 0.0
H3084 H 0.13896 0.5405 0.48442 0.0
H3085 H 0.15238 0.59765 0.58751 0.0
H3086 H 0.12536 0.60534 0.58745 0.0
H3087 H 0.14558 0.61868 0.5695 0.0
C3088 C 0.71402 0.98134 0.73047 0.0
C3089 C 0.72399 1.00262 0.74342 0.0
C3090 C 0.7225 0.96217 0.7352 0.0
C3091 C 0.74044 0.96457 0.75411 0.0
C3092 C 0.75183 0.98641 0.7656 0.0
C3093 C 0.7437 1.00537 0.75957 0.0
C3094 C 0.71082 0.93923 0.72173 0.0
C3095 C 0.77071 0.98959 0.78632 0.0
C3096 C 0.73842 0.9213 0.79742 0.0
C3097 C 0.75831 0.91372 0.7945 0.0
C3098 C 0.73176 0.93724 0.78352 0.0
C3099 C 0.74456 0.94458 0.7652 0.0
C3100 C 0.76311 0.93507 0.76019 0.0
C3101 C 0.77024 0.92024 0.77539 0.0
C3102 C 0.7121 0.94751 0.78981 0.0
C3103 C 0.77616 0.9416 0.73972 0.0
H3104 H 0.69875 0.97945 0.7179 0.0
H3105 H 0.75116 0.02195 0.76967 0.0
H3106 H 0.72292 0.92794 0.71914 0.0
H3107 H 0.69802 0.93094 0.7323 0.0
H3108 H 0.70209 0.9409 0.70373 0.0
H3109 H 0.7778 1.00781 0.79308 0.0
H3110 H 0.76445 0.98113 0.80162 0.0
H3111 H 0.78447 0.9816 0.7806 0.0
H3112 H 0.72856 0.9156 0.81136 0.0
H3113 H 0.78573 0.91471 0.77283 0.0
H3114 H 0.69931 0.9454 0.77366 0.0
H3115 H 0.71795 0.96603 0.79581 0.0
H3116 H 0.70391 0.93969 0.8045 0.0
H3117 H 0.76454 0.94219 0.72322 0.0
H3118 H 0.78713 0.92951 0.73523 0.0
H3119 H 0.78693 0.95881 0.7449 0.0
C3120 C 0.75138 0.92986 0.52309 0.0
C3121 C 0.75668 0.91991 0.54377 0.0
C3122 C 0.733 0.9405 0.52101 0.0
C3123 C 0.71972 0.94118 0.54018 0.0
C3124 C 0.72502 0.93099 0.5611 0.0
C3125 C 0.74356 0.92039 0.56266 0.0
C3126 C 0.72789 0.95113 0.49835 0.0
C3127 C 0.71107 0.93127 0.58169 0.0
C3128 C 0.68743 0.98833 0.53789 0.0
C3129 C 0.66741 0.97677 0.52373 0.0
C3130 C 0.70413 0.97658 0.54516 0.0
C3131 C 0.70048 0.9528 0.53808 0.0
C3132 C 0.67936 0.94084 0.52571 0.0
C3133 C 0.66305 0.95306 0.51855 0.0
C3134 C 0.72647 0.98992 0.5582 0.0
C3135 C 0.6748 0.91553 0.51779 0.0
H3136 H 0.76171 0.92933 0.50857 0.0
H3137 H 0.74785 0.91257 0.57859 0.0
H3138 H 0.71056 0.94348 0.48944 0.0
H3139 H 0.72878 0.9696 0.50316 0.0
H3140 H 0.73977 0.94887 0.48507 0.0
H3141 H 0.71785 0.92325 0.59703 0.0
H3142 H 0.71035 0.94902 0.58844 0.0
H3143 H 0.69355 0.92207 0.57511 0.0
H3144 H 0.69077 1.00674 0.54146 0.0
H3145 H 0.64758 0.94431 0.50727 0.0
H3146 H 0.73921 0.99078 0.54548 0.0
H3147 H 0.7324 0.98139 0.57349 0.0
H3148 H 0.72556 1.00757 0.56528 0.0
H3149 H 0.68332 0.91211 0.50169 0.0
H3150 H 0.65652 0.9083 0.51279 0.0
H3151 H 0.68155 0.90656 0.53227 0.0
C3152 C 0.3849 0.45067 0.76837 0.0
C3153 C 0.40756 0.44887 0.76904 0.0
C3154 C 0.36775 0.43138 0.76832 0.0
C3155 C 0.37334 0.40976 0.76896 0.0
C3156 C 0.39604 0.40776 0.76896 0.0
C3157 C 0.41281 0.42727 0.769 0.0
C3158 C 0.34373 0.4342 0.76811 0.0
C3159 C 0.40273 0.38502 0.76944 0.0
C3160 C 0.33526 0.3637 0.79534 0.0
C3161 C 0.3261 0.34817 0.77463 0.0
C3162 C 0.35063 0.38384 0.79376 0.0
C3163 C 0.35575 0.38927 0.77072 0.0
C3164 C 0.34516 0.3743 0.74959 0.0
C3165 C 0.3309 0.35361 0.75186 0.0
C3166 C 0.36224 0.39868 0.81683 0.0
C3167 C 0.34908 0.38004 0.72464 0.0
H3168 H 0.38057 0.46723 0.76842 0.0
H3169 H 0.43015 0.42558 0.76928 0.0
H3170 H 0.3325 0.42179 0.75373 0.0
H3171 H 0.33795 0.43069 0.78567 0.0
H3172 H 0.3418 0.45163 0.76512 0.0
H3173 H 0.42111 0.38634 0.76951 0.0
H3174 H 0.39773 0.37758 0.78579 0.0
H3175 H 0.3938 0.37302 0.75339 0.0
H3176 H 0.33153 0.35935 0.81296 0.0
H3177 H 0.32344 0.34169 0.73584 0.0
H3178 H 0.35921 0.41617 0.81674 0.0
H3179 H 0.38068 0.39986 0.81801 0.0
H3180 H 0.35646 0.39199 0.83328 0.0
H3181 H 0.34361 0.39614 0.72183 0.0
H3182 H 0.33977 0.36648 0.71007 0.0
H3183 H 0.36727 0.38277 0.7229 0.0
C3184 C 0.22584 0.62267 0.25693 0.0
C3185 C 0.20582 0.62073 0.26734 0.0
C3186 C 0.23972 0.6439 0.2571 0.0
C3187 C 0.23343 0.66337 0.26818 0.0
C3188 C 0.21323 0.6616 0.27858 0.0
C3189 C 0.19955 0.64018 0.27794 0.0
C3190 C 0.2611 0.64551 0.24557 0.0
C3191 C 0.20611 0.6823 0.29032 0.0
C3192 C 0.27776 0.71607 0.29027 0.0
C3193 C 0.27411 0.72903 0.27172 0.0
C3194 C 0.2648 0.69422 0.28911 0.0
C3195 C 0.24804 0.6857 0.26896 0.0
C3196 C 0.24475 0.69876 0.24991 0.0
C3197 C 0.25801 0.72045 0.25155 0.0
C3198 C 0.2685 0.68055 0.30968 0.0
C3199 C 0.22695 0.69012 0.22823 0.0
H3200 H 0.23056 0.60764 0.24838 0.0
H3201 H 0.18406 0.63864 0.28595 0.0
H3202 H 0.26132 0.65731 0.23169 0.0
H3203 H 0.27587 0.65259 0.25951 0.0
H3204 H 0.26306 0.62874 0.23684 0.0
H3205 H 0.18997 0.67786 0.29778 0.0
H3206 H 0.21925 0.69147 0.30524 0.0
H3207 H 0.20419 0.69422 0.27686 0.0
H3208 H 0.29014 0.72332 0.30593 0.0
H3209 H 0.25534 0.73105 0.23748 0.0
H3210 H 0.27231 0.66405 0.30262 0.0
H3211 H 0.25294 0.67673 0.31828 0.0
H3212 H 0.28248 0.68964 0.32381 0.0
H3213 H 0.23076 0.67491 0.21793 0.0
H3214 H 0.22583 0.70312 0.21581 0.0
H3215 H 0.21025 0.68484 0.23424 0.0
C3216 C 0.49476 0.69613 0.48173 0.0
C3217 C 0.51205 0.71376 0.4772 0.0
C3218 C 0.49876 0.6747 0.48785 0.0
C3219 C 0.5209 0.67022 0.49075 0.0
C3220 C 0.53854 0.68805 0.48645 0.0
C3221 C 0.53394 0.70909 0.47942 0.0
C3222 C 0.47901 0.65674 0.49145 0.0
C3223 C 0.56254 0.685 0.48953 0.0
C3224 C 0.53307 0.62207 0.5295 0.0
C3225 C 0.5313 0.60281 0.51211 0.0
C3226 C 0.52978 0.64364 0.52297 0.0
C3227 C 0.52536 0.64709 0.49817 0.0
C3228 C 0.52444 0.62788 0.48055 0.0
C3229 C 0.52692 0.60628 0.48761 0.0
C3230 C 0.53068 0.66279 0.54289 0.0
C3231 C 0.52061 0.63001 0.45392 0.0
H3232 H 0.47776 0.69903 0.48028 0.0
H3233 H 0.54774 0.72226 0.47647 0.0
H3234 H 0.47867 0.64065 0.47969 0.0
H3235 H 0.48078 0.65313 0.5105 0.0
H3236 H 0.46271 0.66197 0.48729 0.0
H3237 H 0.57464 0.7007 0.48744 0.0
H3238 H 0.56696 0.68009 0.5077 0.0
H3239 H 0.56445 0.67101 0.4759 0.0
H3240 H 0.53647 0.62016 0.54849 0.0
H3241 H 0.52569 0.59203 0.47367 0.0
H3242 H 0.51424 0.66809 0.54179 0.0
H3243 H 0.54357 0.67776 0.54057 0.0
H3244 H 0.53463 0.65791 0.56119 0.0
H3245 H 0.5031 0.63203 0.44892 0.0
H3246 H 0.52335 0.61489 0.44241 0.0
H3247 H 0.53201 0.64535 0.44983 0.0
C3248 C 0.64721 0.2858 0.64941 0.0
C3249 C 0.63761 0.30518 0.6502 0.0
C3250 C 0.66513 0.28397 0.66693 0.0
C3251 C 0.67453 0.30226 0.6856 0.0
C3252 C 0.66483 0.3219 0.68654 0.0
C3253 C 0.64635 0.32297 0.66916 0.0
C3254 C 0.67412 0.26238 0.66529 0.0
C3255 C 0.67441 0.3421 0.70555 0.0
C3256 C 0.71077 0.28934 0.74155 0.0
C3257 C 0.73297 0.29629 0.73653 0.0
C3258 C 0.69185 0.29182 0.72572 0.0
C3259 C 0.69473 0.30092 0.70363 0.0
C3260 C 0.71705 0.30802 0.69845 0.0
C3261 C 0.73569 0.30599 0.71496 0.0
C3262 C 0.66864 0.28436 0.73257 0.0
C3263 C 0.7213 0.31742 0.67512 0.0
H3264 H 0.6405 0.27185 0.63503 0.0
H3265 H 0.63922 0.33808 0.66996 0.0
H3266 H 0.69209 0.26621 0.66258 0.0
H3267 H 0.67318 0.25497 0.68253 0.0
H3268 H 0.66468 0.24944 0.65021 0.0
H3269 H 0.6644 0.35558 0.70487 0.0
H3270 H 0.67515 0.33673 0.7239 0.0
H3271 H 0.6919 0.34944 0.70283 0.0
H3272 H 0.70803 0.28166 0.75783 0.0
H3273 H 0.75253 0.3117 0.71063 0.0
H3274 H 0.65897 0.26994 0.71923 0.0
H3275 H 0.65939 0.29843 0.73206 0.0
H3276 H 0.66914 0.279 0.75095 0.0
H3277 H 0.71422 0.30408 0.65951 0.0
H3278 H 0.73951 0.32338 0.6742 0.0
H3279 H 0.71268 0.33179 0.67306 0.0
C3280 C 0.0333 0.35915 0.96806 0.0
C3281 C 0.01536 0.34241 0.97281 0.0
C3282 C 0.0357 0.38273 0.97646 0.0
C3283 C 0.01932 0.39065 0.9894 0.0
C3284 C 1.00105 0.37382 0.99418 0.0
C3285 C 0.99949 0.35016 0.98627 0.0
C3286 C 0.05597 0.39926 0.97143 0.0
C3287 C 0.9826 0.38092 0.007 0.0
C3288 C 0.03491 0.45099 0.02753 0.0
C3289 C 0.02712 0.46516 0.0116 0.0
C3290 C 0.03223 0.42706 0.02081 0.0
C3291 C 0.02125 0.41635 0.99746 0.0
C3292 C 0.01291 0.43064 0.98152 0.0
C3293 C 0.01605 0.45458 0.98863 0.0
C3294 C 0.04183 0.41329 0.03863 0.0
C3295 C 1.00092 0.42069 0.95658 0.0
H3296 H 0.04575 0.35374 0.9577 0.0
H3297 H 0.98529 0.33777 0.98981 0.0
H3298 H 0.05056 0.41174 0.96016 0.0
H3299 H 0.06527 0.40897 0.98871 0.0
H3300 H 0.06764 0.39062 0.9619 0.0
H3301 H 0.96997 0.3661 0.01031 0.0
H3302 H 0.98977 0.39143 0.02461 0.0
H3303 H 0.97393 0.39161 0.99589 0.0
H3304 H 0.04363 0.45877 0.04524 0.0
H3305 H 1.01 0.46512 0.976 0.0
H3306 H 0.05515 0.40576 0.03097 0.0
H3307 H 0.02859 0.39902 0.04186 0.0
H3308 H 0.04916 0.4237 0.0563 0.0
H3309 H 0.01302 0.41488 0.94524 0.0
H3310 H 0.99313 0.43321 0.94737 0.0
H3311 H 0.98763 0.40562 0.95769 0.0
C3312 C 1.00847 0.77787 0.16005 0.0
C3313 C 0.01424 0.7962 0.14708 0.0
C3314 C 0.98964 0.77583 0.17263 0.0
C3315 C 0.97684 0.79309 0.17318 0.0
C3316 C 0.98302 0.81195 0.16055 0.0
C3317 C 1.00139 0.81305 0.14725 0.0
C3318 C 0.98333 0.75507 0.18518 0.0
C3319 C 0.97058 0.83122 0.1616 0.0
C3320 C 0.91707 0.77413 0.18703 0.0
C3321 C 0.91972 0.77936 0.21231 0.0
C3322 C 0.93523 0.77968 0.1739 0.0
C3323 C 0.95662 0.79085 0.18633 0.0
C3324 C 0.95892 0.79776 0.21169 0.0
C3325 C 0.94047 0.79176 0.22441 0.0
C3326 C 0.93196 0.77175 0.147 0.0
C3327 C 0.98127 0.80992 0.22572 0.0
H3328 H 0.01855 0.76496 0.16007 0.0
H3329 H 1.00624 0.82753 0.13771 0.0
H3330 H 0.98416 0.76021 0.20493 0.0
H3331 H 0.96576 0.74623 0.1783 0.0
H3332 H 0.99455 0.74286 0.18237 0.0
H3333 H 0.97717 0.84446 0.15043 0.0
H3334 H 0.95241 0.82469 0.15527 0.0
H3335 H 0.9721 0.83924 0.18067 0.0
H3336 H 0.90119 0.76405 0.17777 0.0
H3337 H 0.94273 0.79528 0.24403 0.0
H3338 H 0.94142 0.75808 0.14336 0.0
H3339 H 0.93872 0.78586 0.13702 0.0
H3340 H 0.91398 0.76504 0.1397 0.0
H3341 H 0.99233 0.79756 0.22815 0.0
H3342 H 0.97935 0.81798 0.24395 0.0
H3343 H 0.98985 0.82318 0.21571 0.0
C3344 C 0.52256 0.33241 0.17734 0.0
C3345 C 0.53605 0.31633 0.17403 0.0
C3346 C 0.52418 0.351 0.16398 0.0
C3347 C 0.54023 0.35402 0.14753 0.0
C3348 C 0.55436 0.33811 0.14474 0.0
C3349 C 0.55176 0.31923 0.15762 0.0
C3350 C 0.50817 0.36694 0.16679 0.0
C3351 C 0.57221 0.34097 0.12804 0.0
C3352 C 0.53706 0.3887 0.09466 0.0
C3353 C 0.55309 0.40853 0.10374 0.0
C3354 C 0.53156 0.37134 0.10921 0.0
C3355 C 0.54256 0.37381 0.13333 0.0
C3356 C 0.55762 0.39452 0.143 0.0
C3357 C 0.56268 0.41161 0.1281 0.0
C3358 C 0.51524 0.34969 0.09817 0.0
C3359 C 0.56983 0.39791 0.16849 0.0
H3360 H 0.50998 0.32984 0.18954 0.0
H3361 H 0.56207 0.3067 0.15488 0.0
H3362 H 0.51759 0.38479 0.17121 0.0
H3363 H 0.49715 0.36573 0.14938 0.0
H3364 H 0.49742 0.36296 0.18115 0.0
H3365 H 0.58229 0.32753 0.12848 0.0
H3366 H 0.5643 0.34048 0.10914 0.0
H3367 H 0.58374 0.35779 0.13326 0.0
H3368 H 0.53005 0.38606 0.07567 0.0
H3369 H 0.57545 0.42674 0.13496 0.0
H3370 H 0.50302 0.34436 0.11074 0.0
H3371 H 0.52455 0.33585 0.09496 0.0
H3372 H 0.50587 0.3516 0.08061 0.0
H3373 H 0.55767 0.39441 0.1816 0.0
H3374 H 0.57998 0.41544 0.17378 0.0
H3375 H 0.5812 0.38572 0.16997 0.0
C3376 C 0.97253 0.30078 0.3269 0.0
C3377 C 0.98339 0.32059 0.34272 0.0
C3378 C 0.94906 0.29681 0.31759 0.0
C3379 C 0.9356 0.31283 0.32412 0.0
C3380 C 0.94677 0.33309 0.33939 0.0
C3381 C 0.97003 0.33658 0.34836 0.0
C3382 C 0.93842 0.27498 0.30135 0.0
C3383 C 0.93385 0.35083 0.34739 0.0
C3384 C 0.87676 0.31276 0.28852 0.0
C3385 C 0.86128 0.30184 0.30267 0.0
C3386 C 0.90055 0.31601 0.29487 0.0
C3387 C 0.90988 0.30827 0.31613 0.0
C3388 C 0.89434 0.29719 0.33045 0.0
C3389 C 0.87062 0.29403 0.32358 0.0
C3390 C 0.91578 0.32778 0.27863 0.0
C3391 C 0.90277 0.28858 0.35329 0.0
H3392 H 0.98203 0.28778 0.32281 0.0
H3393 H 0.97771 0.35172 0.36092 0.0
H3394 H 0.92487 0.2651 0.30989 0.0
H3395 H 0.93053 0.27884 0.2839 0.0
H3396 H 0.9508 0.26424 0.29759 0.0
H3397 H 0.94497 0.36626 0.35805 0.0
H3398 H 0.9246 0.35594 0.33142 0.0
H3399 H 0.9212 0.34358 0.35872 0.0
H3400 H 0.87029 0.31861 0.27209 0.0
H3401 H 0.85933 0.28542 0.33484 0.0
H3402 H 0.92666 0.31637 0.27202 0.0
H3403 H 0.92702 0.34324 0.28901 0.0
H3404 H 0.90624 0.33278 0.26276 0.0
H3405 H 0.91188 0.27486 0.34863 0.0
H3406 H 0.8889 0.2818 0.36346 0.0
H3407 H 0.91485 0.30243 0.36535 0.0
C3408 C 0.03168 0.68012 0.66264 0.0
C3409 C 0.02009 0.69564 0.65266 0.0
C3410 C 0.03338 0.65952 0.64875 0.0
C3411 C 0.02336 0.65411 0.62408 0.0
C3412 C 1.01074 0.66924 0.61437 0.0
C3413 C 1.00942 0.68966 0.62858 0.0
C3414 C 0.04723 0.64429 0.66005 0.0
C3415 C 0.99955 0.66445 0.58841 0.0
C3416 C 0.04736 0.61657 0.57754 0.0
C3417 C 0.03282 0.59521 0.57574 0.0
C3418 C 0.04487 0.63549 0.59355 0.0
C3419 C 0.027 0.63349 0.60795 0.0
C3420 C 1.01212 0.61199 0.60601 0.0
C3421 C 0.01539 0.59319 0.59033 0.0
C3422 C 0.06151 0.6577 0.59505 0.0
C3423 C 0.99259 0.60886 0.62044 0.0
H3424 H 0.04085 0.68485 0.68076 0.0
H3425 H 1.0011 0.70178 0.62029 0.0
H3426 H 0.03786 0.62637 0.65681 0.0
H3427 H 0.06282 0.64497 0.65146 0.0
H3428 H 0.052 0.64942 0.67989 0.0
H3429 H 0.98932 0.67711 0.58386 0.0
H3430 H 0.01248 0.66466 0.57597 0.0
H3431 H 0.98852 0.64724 0.58498 0.0
H3432 H 0.06106 0.61843 0.56669 0.0
H3433 H 1.00399 0.57687 0.58923 0.0
H3434 H 0.0693 0.66349 0.61411 0.0
H3435 H 0.05271 0.67099 0.58912 0.0
H3436 H 0.07505 0.65632 0.58363 0.0
H3437 H 0.99896 0.61124 0.64007 0.0
H3438 H 0.9815 0.59172 0.61561 0.0
H3439 H 0.98239 0.62187 0.61739 0.0
C3440 C 0.62082 0.81454 0.81742 0.0
C3441 C 0.61801 0.81717 0.84223 0.0
C3442 C 0.64173 0.81174 0.80935 0.0
C3443 C 0.66081 0.81076 0.82615 0.0
C3444 C 0.65783 0.81289 0.85115 0.0
C3445 C 0.637 0.81636 0.85874 0.0
C3446 C 0.64327 0.80976 0.78255 0.0
C3447 C 0.67671 0.81114 0.87013 0.0
C3448 C 0.70843 0.78217 0.80303 0.0
C3449 C 0.72676 0.80045 0.80317 0.0
C3450 C 0.68745 0.78515 0.81056 0.0
C3451 C 0.68356 0.80725 0.81784 0.0
C3452 C 0.70183 0.8259 0.81749 0.0
C3453 C 0.72296 0.82231 0.81072 0.0
C3454 C 0.66941 0.76435 0.81095 0.0
C3455 C 0.69892 0.84995 0.82371 0.0
H3456 H 0.60667 0.815 0.80415 0.0
H3457 H 0.63552 0.8181 0.87792 0.0
H3458 H 0.65957 0.81966 0.77896 0.0
H3459 H 0.64225 0.7917 0.77543 0.0
H3460 H 0.62939 0.81575 0.77237 0.0
H3461 H 0.67163 0.81167 0.8886 0.0
H3462 H 0.68246 0.79503 0.86572 0.0
H3463 H 0.69127 0.8253 0.87027 0.0
H3464 H 0.71059 0.76522 0.79752 0.0
H3465 H 0.73649 0.83686 0.8109 0.0
H3466 H 0.65524 0.76374 0.79656 0.0
H3467 H 0.6627 0.76511 0.82858 0.0
H3468 H 0.67569 0.74837 0.80794 0.0
H3469 H 0.68519 0.85325 0.81076 0.0
H3470 H 0.71451 0.86269 0.82301 0.0
H3471 H 0.69393 0.85234 0.8421 0.0
C3472 C 0.49246 0.53608 0.70811 0.0
C3473 C 0.47029 0.52497 0.70922 0.0
C3474 C 0.50027 0.53983 0.68584 0.0
C3475 C 0.48583 0.53163 0.66377 0.0
C3476 C 0.46319 0.52083 0.66476 0.0
C3477 C 0.45559 0.51793 0.68746 0.0
C3478 C 0.52426 0.55209 0.68598 0.0
C3479 C 0.44735 0.51117 0.64181 0.0
C3480 C 0.50243 0.55273 0.60452 0.0
C3481 C 0.51422 0.53645 0.5959 0.0
C3482 C 0.49328 0.55155 0.6266 0.0
C3483 C 0.49498 0.53305 0.63986 0.0
C3484 C 0.50633 0.51624 0.63071 0.0
C3485 C 0.51629 0.51849 0.60932 0.0
C3486 C 0.48227 0.57039 0.63603 0.0
C3487 C 0.50802 0.49579 0.64354 0.0
H3488 H 0.50389 0.54162 0.72484 0.0
H3489 H 0.43853 0.50907 0.68812 0.0
H3490 H 0.53401 0.54024 0.67784 0.0
H3491 H 0.52474 0.56622 0.67482 0.0
H3492 H 0.53272 0.5591 0.70459 0.0
H3493 H 0.42992 0.50477 0.64545 0.0
H3494 H 0.44706 0.52421 0.62935 0.0
H3495 H 0.45341 0.49692 0.63226 0.0
H3496 H 0.50102 0.5668 0.59438 0.0
H3497 H 0.52528 0.50578 0.60267 0.0
H3498 H 0.49078 0.57816 0.65439 0.0
H3499 H 0.46445 0.56343 0.63777 0.0
H3500 H 0.48286 0.58392 0.62403 0.0
H3501 H 0.51908 0.50122 0.6611 0.0
H3502 H 0.51496 0.48297 0.63265 0.0
H3503 H 0.49121 0.48759 0.64753 0.0
C3504 C 0.75877 0.16989 0.99729 0.0
C3505 C 0.77775 0.16035 1.00021 0.0
C3506 C 0.75585 0.18324 0.97895 0.0
C3507 C 0.77268 0.18743 0.96363 0.0
C3508 C 0.79189 0.17765 0.9664 0.0
C3509 C 0.79409 0.16386 0.9847 0.0
C3510 C 0.735 0.19327 0.97637 0.0
C3511 C 0.81052 0.18266 0.95097 0.0
C3512 C 0.74894 0.20566 0.90643 0.0
C3513 C 0.75244 0.22914 0.91329 0.0
C3514 C 0.75725 0.19181 0.92199 0.0
C3515 C 0.76955 0.20192 0.94466 0.0
C3516 C 0.77483 0.22585 0.95074 0.0
C3517 C 0.76585 0.23927 0.93501 0.0
C3518 C 0.75124 0.16632 0.91506 0.0
C3519 C 0.78861 0.23719 0.97448 0.0
H3520 H 0.74637 0.1672 0.00964 0.0
H3521 H 0.80905 0.15684 0.9877 0.0
H3522 H 0.7398 0.21208 0.98013 0.0
H3523 H 0.7262 0.18882 0.95754 0.0
H3524 H 0.72304 0.1872 0.98898 0.0
H3525 H 0.82297 0.17165 0.95356 0.0
H3526 H 0.80364 0.18039 0.93149 0.0
H3527 H 0.81942 0.20067 0.95589 0.0
H3528 H 0.73887 0.19804 0.88929 0.0
H3529 H 0.76908 0.25758 0.93977 0.0
H3530 H 0.7385 0.15885 0.9262 0.0
H3531 H 0.76619 0.15872 0.91877 0.0
H3532 H 0.74424 0.16143 0.89562 0.0
H3533 H 0.77759 0.23677 0.98896 0.0
H3534 H 0.79622 0.25525 0.97352 0.0
H3535 H 0.80221 0.22818 0.97977 0.0
C3536 C 0.15446 0.53621 0.17617 0.0
C3537 C 0.14631 0.54437 0.19701 0.0
C3538 C 0.14313 0.53724 0.15337 0.0
C3539 C 0.12362 0.54658 0.15209 0.0
C3540 C 0.11626 0.55603 0.17312 0.0
C3541 C 0.12793 0.555 0.19537 0.0
C3542 C 0.15136 0.52768 0.13079 0.0
C3543 C 0.09526 0.56589 0.17235 0.0
C3544 C 0.09245 0.56253 0.09791 0.0
C3545 C 0.0772 0.54218 0.08984 0.0
C3546 C 0.10955 0.56342 0.11672 0.0
C3547 C 0.10917 0.54433 0.12924 0.0
C3548 C 0.0925 0.52423 0.12217 0.0
C3549 C 0.0771 0.52311 0.10171 0.0
C3550 C 0.12779 0.58465 0.12328 0.0
C3551 C 0.09014 0.50452 0.13684 0.0
H3552 H 0.16904 0.52846 0.17773 0.0
H3553 H 0.1223 0.56214 0.21165 0.0
H3554 H 0.13929 0.51202 0.12208 0.0
H3555 H 0.15229 0.54006 0.11748 0.0
H3556 H 0.16814 0.52341 0.13479 0.0
H3557 H 0.09242 0.57301 0.19062 0.0
H3558 H 0.09634 0.57963 0.16066 0.0
H3559 H 0.08037 0.55247 0.16448 0.0
H3560 H 0.09136 0.57743 0.08903 0.0
H3561 H 0.06432 0.50779 0.09563 0.0
H3562 H 0.14409 0.58051 0.11949 0.0
H3563 H 0.12966 0.591 0.14288 0.0
H3564 H 0.12449 0.59852 0.1128 0.0
H3565 H 0.10526 0.49694 0.13693 0.0
H3566 H 0.07508 0.491 0.12962 0.0
H3567 H 0.08875 0.51056 0.15595 0.0
C3568 C 0.80958 0.88028 0.45797 0.0
C3569 C 0.81006 0.86772 0.47766 0.0
C3570 C 0.80824 0.8698 0.43395 0.0
C3571 C 0.80721 0.84607 0.42929 0.0
C3572 C 0.80799 0.83336 0.44913 0.0
C3573 C 0.80948 0.84432 0.473 0.0
C3574 C 0.80755 0.88408 0.41347 0.0
C3575 C 0.807 0.80809 0.44513 0.0
C3576 C 0.78101 0.81577 0.36607 0.0
C3577 C 0.79997 0.81394 0.35445 0.0
C3578 C 0.78312 0.82593 0.39032 0.0
C3579 C 0.80476 0.83451 0.40364 0.0
C3580 C 0.82397 0.83247 0.39221 0.0
C3581 C 0.82133 0.82244 0.36782 0.0
C3582 C 0.7621 0.82771 0.40158 0.0
C3583 C 0.84739 0.84134 0.40557 0.0
H3584 H 0.81 0.89837 0.46129 0.0
H3585 H 0.80979 0.83443 0.48802 0.0
H3586 H 0.82116 0.88204 0.40238 0.0
H3587 H 0.79135 0.87823 0.40137 0.0
H3588 H 0.80942 0.90243 0.42009 0.0
H3589 H 0.80717 0.8005 0.46234 0.0
H3590 H 0.79153 0.79943 0.43282 0.0
H3591 H 0.82156 0.80467 0.43622 0.0
H3592 H 0.76435 0.80923 0.35618 0.0
H3593 H 0.83607 0.82175 0.3591 0.0
H3594 H 0.7612 0.84586 0.40558 0.0
H3595 H 0.76256 0.82057 0.41902 0.0
H3596 H 0.74658 0.81864 0.38956 0.0
H3597 H 0.85071 0.86019 0.40895 0.0
H3598 H 0.86048 0.83619 0.39524 0.0
H3599 H 0.84897 0.83511 0.42348 0.0
C3600 C 0.45169 0.51009 0.85475 0.0
C3601 C 0.46312 0.5198 0.83678 0.0
C3602 C 0.46266 0.51098 0.87852 0.0
C3603 C 0.48536 0.52278 0.88492 0.0
C3604 C 0.49684 0.53284 0.86683 0.0
C3605 C 0.48577 0.5308 0.84296 0.0
C3606 C 0.44996 0.49922 0.8968 0.0
C3607 C 0.52076 0.54616 0.87276 0.0
C3608 C 0.50399 0.54405 0.95252 0.0
C3609 C 0.5175 0.52891 0.95969 0.0
C3610 C 0.49413 0.5427 0.92826 0.0
C3611 C 0.49688 0.52513 0.91062 0.0
C3612 C 0.51068 0.50992 0.91765 0.0
C3613 C 0.52128 0.51243 0.94182 0.0
C3614 C 0.4808 0.56022 0.92154 0.0
C3615 C 0.51357 0.49038 0.89992 0.0
H3616 H 0.43421 0.50151 0.85011 0.0
H3617 H 0.49465 0.53856 0.82926 0.0
H3618 H 0.45983 0.48783 0.90532 0.0
H3619 H 0.4475 0.512 0.91147 0.0
H3620 H 0.43322 0.48901 0.8885 0.0
H3621 H 0.52665 0.55462 0.8573 0.0
H3622 H 0.52223 0.55931 0.88863 0.0
H3623 H 0.53212 0.53464 0.87769 0.0
H3624 H 0.50127 0.55724 0.96591 0.0
H3625 H 0.53217 0.50115 0.94672 0.0
H3626 H 0.46289 0.55194 0.91585 0.0
H3627 H 0.48709 0.56811 0.90594 0.0
H3628 H 0.48178 0.57388 0.93683 0.0
H3629 H 0.49759 0.47749 0.89621 0.0
H3630 H 0.52718 0.48209 0.90703 0.0
H3631 H 0.51734 0.49609 0.88239 0.0
C3632 C 0.77575 0.16462 0.14148 0.0
C3633 C 0.78961 0.1726 0.12471 0.0
C3634 C 0.77861 0.17657 0.16474 0.0
C3635 C 0.79551 0.19657 0.17048 0.0
C3636 C 0.81139 0.20265 0.15458 0.0
C3637 C 0.80817 0.1904 0.13161 0.0
C3638 C 0.76185 0.16963 0.18184 0.0
C3639 C 0.82959 0.22399 0.16031 0.0
C3640 C 0.77847 0.24692 0.20218 0.0
C3641 C 0.79183 0.24962 0.22458 0.0
C3642 C 0.77935 0.22935 0.18439 0.0
C3643 C 0.79336 0.21389 0.18974 0.0
C3644 C 0.80668 0.21641 0.21241 0.0
C3645 C 0.80622 0.23475 0.22941 0.0
C3646 C 0.76561 0.22762 0.15983 0.0
C3647 C 0.82108 0.19968 0.21888 0.0
H3648 H 0.76145 0.15065 0.13572 0.0
H3649 H 0.81883 0.19609 0.11827 0.0
H3650 H 0.77021 0.17245 0.20086 0.0
H3651 H 0.7489 0.1802 0.18078 0.0
H3652 H 0.75321 0.1515 0.17713 0.0
H3653 H 0.84215 0.22453 0.14738 0.0
H3654 H 0.82184 0.23909 0.15931 0.0
H3655 H 0.83845 0.22535 0.17895 0.0
H3656 H 0.76738 0.25851 0.19857 0.0
H3657 H 0.81708 0.23732 0.24652 0.0
H3658 H 0.75318 0.21127 0.15605 0.0
H3659 H 0.7767 0.22797 0.14541 0.0
H3660 H 0.75639 0.24169 0.15858 0.0
H3661 H 0.81003 0.18385 0.22241 0.0
H3662 H 0.83341 0.20642 0.23537 0.0
H3663 H 0.83033 0.19502 0.20379 0.0
C3664 C 0.14416 0.53816 0.31395 0.0
C3665 C 0.16717 0.54773 0.31611 0.0
C3666 C 0.13194 0.5418 0.333 0.0
C3667 C 0.14313 0.55564 0.3544 0.0
C3668 C 0.16669 0.56414 0.35723 0.0
C3669 C 0.17858 0.55992 0.3379 0.0
C3670 C 0.10693 0.53219 0.32935 0.0
C3671 C 0.179 0.57895 0.38006 0.0
C3672 C 0.11559 0.59465 0.3916 0.0
C3673 C 0.11506 0.58448 0.41285 0.0
C3674 C 0.12307 0.58436 0.37143 0.0
C3675 C 0.13014 0.56355 0.37283 0.0
C3676 C 0.12767 0.55217 0.39337 0.0
C3677 C 0.12029 0.56292 0.41337 0.0
C3678 C 0.12479 0.59646 0.34925 0.0
C3679 C 0.13411 0.5294 0.39473 0.0
H3680 H 0.13548 0.52846 0.29697 0.0
H3681 H 0.19638 0.56728 0.3393 0.0
H3682 H 0.10083 0.52763 0.34646 0.0
H3683 H 0.09792 0.54514 0.32288 0.0
H3684 H 0.10239 0.51688 0.31548 0.0
H3685 H 0.19743 0.58343 0.37967 0.0
H3686 H 0.17259 0.59492 0.38243 0.0
H3687 H 0.17584 0.57013 0.3961 0.0
H3688 H 0.11069 0.61091 0.39101 0.0
H3689 H 0.11955 0.55489 0.42975 0.0
H3690 H 0.11678 0.58468 0.33269 0.0
H3691 H 0.14276 0.60233 0.34724 0.0
H3692 H 0.1167 0.61143 0.35033 0.0
H3693 H 0.12727 0.51769 0.37776 0.0
H3694 H 0.12794 0.52129 0.41029 0.0
H3695 H 0.15269 0.53168 0.39676 0.0
C3696 C 0.78669 0.84725 0.60873 0.0
C3697 C 0.80742 0.86122 0.6069 0.0
C3698 C 0.78223 0.83884 0.63064 0.0
C3699 C 0.79883 0.84469 0.65137 0.0
C3700 C 0.81952 0.85949 0.64973 0.0
C3701 C 0.82362 0.86741 0.6275 0.0
C3702 C 0.76009 0.82295 0.63132 0.0
C3703 C 0.83776 0.86617 0.67121 0.0
C3704 C 0.7832 0.83492 0.71458 0.0
C3705 C 0.79011 0.81449 0.71785 0.0
C3706 C 0.78564 0.8448 0.69301 0.0
C3707 C 0.79529 0.8341 0.67416 0.0
C3708 C 0.80217 0.81341 0.67736 0.0
C3709 C 0.79959 0.80397 0.69905 0.0
C3710 C 0.77815 0.86689 0.69052 0.0
C3711 C 0.81253 0.80129 0.65792 0.0
H3712 H 0.77427 0.8422 0.59271 0.0
H3713 H 0.83975 0.878 0.62604 0.0
H3714 H 0.76308 0.80603 0.635 0.0
H3715 H 0.75159 0.82948 0.64627 0.0
H3716 H 0.74862 0.82072 0.61402 0.0
H3717 H 0.85187 0.87954 0.66783 0.0
H3718 H 0.83082 0.87245 0.68752 0.0
H3719 H 0.84451 0.85104 0.67534 0.0
H3720 H 0.77601 0.84329 0.72897 0.0
H3721 H 0.80542 0.78842 0.7014 0.0
H3722 H 0.76565 0.86483 0.67407 0.0
H3723 H 0.79272 0.88022 0.68824 0.0
H3724 H 0.77055 0.87287 0.70651 0.0
H3725 H 0.80058 0.7969 0.64089 0.0
H3726 H 0.81715 0.78542 0.66322 0.0
H3727 H 0.82787 0.81263 0.65394 0.0
C3728 C 0.75778 0.4905 0.51659 0.0
C3729 C 0.7535 0.46867 0.50378 0.0
C3730 C 0.74001 0.5006 0.52187 0.0
C3731 C 0.71777 0.48834 0.51407 0.0
C3732 C 0.71346 0.46736 0.49896 0.0
C3733 C 0.73155 0.45766 0.49397 0.0
C3734 C 0.74502 0.52323 0.53789 0.0
C3735 C 0.68982 0.45433 0.48991 0.0
C3736 C 0.68186 0.49667 0.56244 0.0
C3737 C 0.67206 0.51413 0.55473 0.0
C3738 C 0.69595 0.48713 0.54848 0.0
C3739 C 0.69972 0.49504 0.52611 0.0
C3740 C 0.68839 0.51124 0.51716 0.0
C3741 C 0.67482 0.52095 0.53184 0.0
C3742 C 0.70794 0.46976 0.55849 0.0
C3743 C 0.69183 0.51944 0.49301 0.0
H3744 H 0.77488 0.49914 0.52363 0.0
H3745 H 0.72838 0.441 0.48335 0.0
H3746 H 0.73471 0.53479 0.53057 0.0
H3747 H 0.74066 0.5206 0.55624 0.0
H3748 H 0.76306 0.5317 0.5397 0.0
H3749 H 0.68952 0.43917 0.47665 0.0
H3750 H 0.68143 0.44856 0.5054 0.0
H3751 H 0.67981 0.4655 0.48125 0.0
H3752 H 0.67913 0.49103 0.5798 0.0
H3753 H 0.66722 0.53453 0.52585 0.0
H3754 H 0.7263 0.4769 0.56224 0.0
H3755 H 0.70534 0.4543 0.54505 0.0
H3756 H 0.70207 0.46466 0.57557 0.0
H3757 H 0.70774 0.53233 0.49512 0.0
H3758 H 0.67788 0.52739 0.48608 0.0
H3759 H 0.69322 0.50531 0.47925 0.0
C3760 C 0.18562 0.15715 0.52401 0.0
C3761 C 0.20203 0.15253 0.5097 0.0
C3762 C 0.16696 0.14022 0.52624 0.0
C3763 C 0.16418 0.11821 0.51322 0.0
C3764 C 0.18074 0.11338 0.49874 0.0
C3765 C 0.1997 0.13049 0.4975 0.0
C3766 C 0.15017 0.14594 0.54254 0.0
C3767 C 0.17807 0.09035 0.48404 0.0
C3768 C 0.12275 0.07044 0.53356 0.0
C3769 C 0.10289 0.07043 0.5184 0.0
C3770 C 0.14298 0.08551 0.53175 0.0
C3771 C 0.14345 0.10069 0.5141 0.0
C3772 C 0.12361 0.10011 0.49818 0.0
C3773 C 0.10359 0.08515 0.50064 0.0
C3774 C 0.16362 0.08579 0.54934 0.0
C3775 C 0.12332 0.11581 0.47897 0.0
H3776 H 0.18763 0.174 0.53393 0.0
H3777 H 0.21242 0.1268 0.48653 0.0
H3778 H 0.1335 0.14428 0.53166 0.0
H3779 H 0.14805 0.13379 0.55603 0.0
H3780 H 0.15536 0.16348 0.55238 0.0
H3781 H 0.19304 0.08877 0.47492 0.0
H3782 H 0.17507 0.07669 0.49575 0.0
H3783 H 0.16315 0.08746 0.47 0.0
H3784 H 0.1223 0.05931 0.54751 0.0
H3785 H 0.08833 0.08524 0.48882 0.0
H3786 H 0.16879 0.1026 0.56073 0.0
H3787 H 0.17782 0.08331 0.53934 0.0
H3788 H 0.16071 0.0724 0.56143 0.0
H3789 H 0.1259 0.13364 0.48773 0.0
H3790 H 0.10719 0.11175 0.46656 0.0
H3791 H 0.13728 0.11478 0.46808 0.0
C3792 C 0.16264 0.98444 0.77623 0.0
C3793 C 0.17385 1.0049 0.79012 0.0
C3794 C 0.17384 0.96647 0.77205 0.0
C3795 C 0.19643 0.96888 0.7828 0.0
C3796 C 0.20745 0.98923 0.7977 0.0
C3797 C 0.19613 1.00719 0.8008 0.0
C3798 C 0.16173 0.94515 0.75563 0.0
C3799 C 0.2313 0.99221 0.80995 0.0
C3800 C 0.21695 0.91368 0.78453 0.0
C3801 C 0.22717 0.91274 0.76341 0.0
C3802 C 0.20758 0.93237 0.7917 0.0
C3803 C 0.20876 0.95045 0.77745 0.0
C3804 C 0.22049 0.95016 0.75702 0.0
C3805 C 0.22942 0.93115 0.75012 0.0
C3806 C 0.19534 0.93216 0.81368 0.0
C3807 C 0.22245 0.96928 0.7416 0.0
H3808 H 0.14543 0.98282 0.76794 0.0
H3809 H 0.20467 0.02302 0.81178 0.0
H3810 H 0.17091 0.94245 0.73989 0.0
H3811 H 0.16136 0.93015 0.76547 0.0
H3812 H 0.14419 0.94596 0.74876 0.0
H3813 H 0.23638 1.00785 0.82333 0.0
H3814 H 0.23328 0.97734 0.81937 0.0
H3815 H 0.24299 0.99326 0.79611 0.0
H3816 H 0.21525 0.89928 0.79466 0.0
H3817 H 0.23746 0.93026 0.73382 0.0
H3818 H 0.17702 0.92985 0.80782 0.0
H3819 H 0.20078 0.94862 0.82566 0.0
H3820 H 0.19816 0.91823 0.82431 0.0
H3821 H 0.20563 0.96937 0.73193 0.0
H3822 H 0.23411 0.96758 0.72797 0.0
H3823 H 0.22846 0.98595 0.7531 0.0
C3824 C 0.385 0.97469 0.99198 0.0
C3825 C 0.37537 0.96057 0.00773 0.0
C3826 C 0.40608 0.9888 0.99926 0.0
C3827 C 0.41713 0.98868 0.02286 0.0
C3828 C 0.40646 0.97581 0.03945 0.0
C3829 C 0.38556 0.96158 0.03152 0.0
C3830 C 0.4172 1.00241 0.98113 0.0
C3831 C 0.41776 0.976 0.06489 0.0
C3832 C 0.47865 0.99679 0.02051 0.0
C3833 C 0.48495 0.02025 0.02668 0.0
C3834 C 0.45665 0.98578 0.02132 0.0
C3835 C 0.44105 0.99889 0.02844 0.0
C3836 C 0.44805 0.02232 0.03697 0.0
C3837 C 0.47015 0.0329 0.03567 0.0
C3838 C 0.44961 0.96071 0.01194 0.0
C3839 C 0.43186 0.03664 0.04499 0.0
H3840 H 0.3765 0.97391 0.97376 0.0
H3841 H 0.37739 0.95085 0.04365 0.0
H3842 H 0.42419 0.02024 0.98937 0.0
H3843 H 0.4314 0.995 0.97556 0.0
H3844 H 0.40534 1.00248 0.96462 0.0
H3845 H 0.40599 0.96743 0.07642 0.0
H3846 H 0.43202 0.96715 0.06424 0.0
H3847 H 0.42479 0.99372 0.07355 0.0
H3848 H 0.49034 0.98738 0.01315 0.0
H3849 H 0.47547 0.05121 0.04022 0.0
H3850 H 0.43907 0.95841 0.99404 0.0
H3851 H 0.43936 0.95158 0.02438 0.0
H3852 H 0.46429 0.9527 0.00972 0.0
H3853 H 0.42312 0.04197 0.02882 0.0
H3854 H 0.44081 0.05224 0.05718 0.0
H3855 H 0.41891 0.02698 0.05444 0.0
C3856 C 0.84816 0.57863 0.81818 0.0
C3857 C 0.86906 0.57749 0.81096 0.0
C3858 C 0.83811 0.59666 0.81308 0.0
C3859 C 0.84904 0.61279 0.79957 0.0
C3860 C 0.87076 0.6122 0.79339 0.0
C3861 C 0.88074 0.59455 0.79961 0.0
C3862 C 0.81538 0.59754 0.82078 0.0
C3863 C 0.88267 0.62907 0.77856 0.0
C3864 C 0.81873 0.63687 0.751 0.0
C3865 C 0.82376 0.65974 0.76068 0.0
C3866 C 0.82506 0.62074 0.76467 0.0
C3867 C 0.83674 0.62807 0.78831 0.0
C3868 C 0.8404 0.65093 0.79882 0.0
C3869 C 0.83385 0.6667 0.78471 0.0
C3870 C 0.8208 0.59623 0.75319 0.0
C3871 C 0.85245 0.65883 0.82426 0.0
H3872 H 0.83966 0.56537 0.82753 0.0
H3873 H 0.89707 0.59332 0.79435 0.0
H3874 H 0.81341 0.61532 0.82516 0.0
H3875 H 0.80205 0.58907 0.80575 0.0
H3876 H 0.8127 0.58852 0.83682 0.0
H3877 H 0.89988 0.62655 0.77626 0.0
H3878 H 0.87287 0.62731 0.76031 0.0
H3879 H 0.88395 0.64671 0.78728 0.0
H3880 H 0.81008 0.6317 0.73268 0.0
H3881 H 0.8371 0.68452 0.79218 0.0
H3882 H 0.81295 0.58477 0.76545 0.0
H3883 H 0.83703 0.59154 0.75007 0.0
H3884 H 0.8097 0.59317 0.73556 0.0
H3885 H 0.84547 0.64735 0.83698 0.0
H3886 H 0.85121 0.6765 0.83081 0.0
H3887 H 0.87051 0.65821 0.8247 0.0
C3888 C 0.83101 0.64355 0.04206 0.0
C3889 C 0.82739 0.65504 0.02211 0.0
C3890 C 0.84907 0.63246 0.04459 0.0
C3891 C 0.86318 0.63213 0.02615 0.0
C3892 C 0.85929 0.64341 0.00572 0.0
C3893 C 0.84159 0.65514 0.00415 0.0
C3894 C 0.85304 0.62113 0.06699 0.0
C3895 C 0.87343 0.64257 0.98532 0.0
C3896 C 0.9196 0.61989 0.04821 0.0
C3897 C 0.91517 0.59618 0.04314 0.0
C3898 C 0.90329 0.63213 0.04114 0.0
C3899 C 0.88219 0.62022 0.02871 0.0
C3900 C 0.87848 0.59643 0.02164 0.0
C3901 C 0.8951 0.58462 0.02907 0.0
C3902 C 0.90782 0.65744 0.04914 0.0
C3903 C 0.85624 0.58315 0.00828 0.0
H3904 H 0.81981 0.64345 0.05579 0.0
H3905 H 0.8383 0.66365 0.98845 0.0
H3906 H 0.85162 0.60262 0.06182 0.0
H3907 H 0.87032 0.62812 0.07644 0.0
H3908 H 0.84088 0.62355 0.0799 0.0
H3909 H 0.86865 0.6528 0.97103 0.0
H3910 H 0.89149 0.64889 0.9924 0.0
H3911 H 0.87149 0.62468 0.97696 0.0
H3912 H 0.93509 0.62863 0.05946 0.0
H3913 H 0.89167 0.5662 0.0256 0.0
H3914 H 0.89753 0.66101 0.06366 0.0
H3915 H 0.90292 0.66652 0.03388 0.0
H3916 H 0.92581 0.66444 0.05623 0.0
H3917 H 0.84364 0.58114 0.02112 0.0
H3918 H 0.85754 0.56593 1.00017 0.0
H3919 H 0.84989 0.5923 0.99374 0.0
C3920 C 0.1719 0.15011 0.80387 0.0
C3921 C 0.17671 0.12867 0.80662 0.0
C3922 C 0.18887 0.16866 0.80117 0.0
C3923 C 0.21141 0.16593 0.80157 0.0
C3924 C 0.21651 0.14445 0.80468 0.0
C3925 C 0.19913 0.12607 0.807 0.0
C3926 C 0.18259 0.19113 0.79749 0.0
C3927 C 0.24037 0.14095 0.80574 0.0
C3928 C 0.25208 0.20895 0.77378 0.0
C3929 C 0.26137 0.22509 0.79398 0.0
C3930 C 0.23579 0.18959 0.77593 0.0
C3931 C 0.2296 0.1857 0.79906 0.0
C3932 C 0.24009 0.20135 0.8197 0.0
C3933 C 0.2554 0.22112 0.81682 0.0
C3934 C 0.22443 0.17392 0.75331 0.0
C3935 C 0.23467 0.19755 0.84479 0.0
H3936 H 0.15469 0.15233 0.80327 0.0
H3937 H 0.20314 0.10963 0.80909 0.0
H3938 H 0.19185 0.20457 0.81214 0.0
H3939 H 0.1875 0.19629 0.78009 0.0
H3940 H 0.16428 0.19042 0.79732 0.0
H3941 H 0.24155 0.1231 0.80763 0.0
H3942 H 0.24745 0.14559 0.78912 0.0
H3943 H 0.25105 0.1523 0.82134 0.0
H3944 H 0.25646 0.21226 0.75607 0.0
H3945 H 0.26267 0.23361 0.83246 0.0
H3946 H 0.2061 0.17355 0.75116 0.0
H3947 H 0.2266 0.15632 0.75486 0.0
H3948 H 0.23116 0.1793 0.73673 0.0
H3949 H 0.21723 0.19957 0.84638 0.0
H3950 H 0.24626 0.20972 0.85914 0.0
H3951 H 0.23566 0.17998 0.84811 0.0
C3952 C 0.3543 0.95228 0.31311 0.0
C3953 C 0.37701 0.95426 0.31009 0.0
C3954 C 0.33905 0.93176 0.30551 0.0
C3955 C 0.34691 0.91316 0.29459 0.0
C3956 C 0.36937 0.91559 0.28985 0.0
C3957 C 0.38432 0.93614 0.29796 0.0
C3958 C 0.31506 0.92948 0.31074 0.0
C3959 C 0.3779 0.89598 0.27769 0.0
C3960 C 0.32473 0.85658 0.31286 0.0
C3961 C 0.30962 0.84632 0.29249 0.0
C3962 C 0.33653 0.87868 0.31385 0.0
C3963 C 0.33358 0.89024 0.29347 0.0
C3964 C 0.31864 0.87968 0.27247 0.0
C3965 C 0.30615 0.85777 0.27254 0.0
C3966 C 0.35177 0.88973 0.33692 0.0
C3967 C 0.31523 0.89163 0.25046 0.0
H3968 H 0.3486 0.96657 0.32198 0.0
H3969 H 0.40171 0.93804 0.29475 0.0
H3970 H 0.30315 0.92072 0.29461 0.0
H3971 H 0.31241 0.91896 0.32565 0.0
H3972 H 0.31092 0.94625 0.31622 0.0
H3973 H 0.39482 0.90155 0.27227 0.0
H3974 H 0.37894 0.88318 0.29033 0.0
H3975 H 0.36607 0.88747 0.26137 0.0
H3976 H 0.3266 0.84753 0.32845 0.0
H3977 H 0.29329 0.84997 0.25751 0.0
H3978 H 0.34683 0.90567 0.34395 0.0
H3979 H 0.3694 0.89426 0.33316 0.0
H3980 H 0.35116 0.87848 0.35137 0.0
H3981 H 0.30373 0.90343 0.25374 0.0
H3982 H 0.30762 0.87937 0.23406 0.0
H3983 H 0.33134 0.90183 0.24678 0.0
C3984 C 0.57947 0.37206 0.57366 0.0
C3985 C 0.5675 0.36231 0.59146 0.0
C3986 C 0.5764 0.3932 0.56558 0.0
C3987 C 0.56036 0.40518 0.57462 0.0
C3988 C 0.54768 0.39489 0.59191 0.0
C3989 C 0.55165 0.37427 0.60029 0.0
C3990 C 0.5909 0.40309 0.54769 0.0
C3991 C 0.52956 0.40565 0.60155 0.0
C3992 C 0.56614 0.47097 0.57311 0.0
C3993 C 0.55162 0.47273 0.55222 0.0
C3994 C 0.56913 0.44958 0.5803 0.0
C3995 C 0.55728 0.42853 0.5667 0.0
C3996 C 0.54239 0.43016 0.54571 0.0
C3997 C 0.54 0.45182 0.53871 0.0
C3998 C 0.5853 0.44958 0.60267 0.0
C3999 C 0.52886 0.40889 0.53034 0.0
H4000 H 0.59187 0.36353 0.56653 0.0
H4001 H 0.54194 0.36726 0.61379 0.0
H4002 H 0.5802 0.40592 0.53145 0.0
H4003 H 0.60119 0.41991 0.55598 0.0
H4004 H 0.60232 0.39193 0.54186 0.0
H4005 H 0.52056 0.39548 0.61422 0.0
H4006 H 0.53699 0.42294 0.61114 0.0
H4007 H 0.51715 0.40752 0.58626 0.0
H4008 H 0.57537 0.48651 0.58409 0.0
H4009 H 0.52901 0.45225 0.52235 0.0
H4010 H 0.59845 0.44018 0.5979 0.0
H4011 H 0.57629 0.44065 0.61615 0.0
H4012 H 0.59358 0.46705 0.61126 0.0
H4013 H 0.54021 0.40021 0.52041 0.0
H4014 H 0.51575 0.41262 0.51689 0.0
H4015 H 0.52062 0.39689 0.5419 0.0
C4016 C 0.42761 0.79057 0.42064 0.0
C4017 C 0.44459 0.77902 0.41456 0.0
C4018 C 0.40921 0.79196 0.40349 0.0
C4019 C 0.40689 0.78105 0.3793 0.0
C4020 C 0.42387 0.76917 0.37298 0.0
C4021 C 0.44255 0.76859 0.39042 0.0
C4022 C 0.39221 0.80532 0.4114 0.0
C4023 C 0.42226 0.7569 0.34772 0.0
C4024 C 0.34682 0.76835 0.34347 0.0
C4025 C 0.34775 0.78549 0.3282 0.0
C4026 C 0.36588 0.76634 0.35945 0.0
C4027 C 0.38669 0.78208 0.36093 0.0
C4028 C 0.38775 0.79937 0.34549 0.0
C4029 C 0.36855 0.8007 0.32931 0.0
C4030 C 0.3637 0.74722 0.37482 0.0
C4031 C 0.40908 0.817 0.34656 0.0
H4032 H 0.42885 0.79897 0.43898 0.0
H4033 H 0.45537 0.75963 0.3852 0.0
H4034 H 0.39007 0.81808 0.39898 0.0
H4035 H 0.37562 0.79373 0.41052 0.0
H4036 H 0.39717 0.81426 0.43019 0.0
H4037 H 0.43506 0.74622 0.34627 0.0
H4038 H 0.40529 0.74592 0.34217 0.0
H4039 H 0.4247 0.76946 0.3347 0.0
H4040 H 0.33109 0.7563 0.34287 0.0
H4041 H 0.36972 0.81414 0.31789 0.0
H4042 H 0.36623 0.75426 0.39428 0.0
H4043 H 0.37694 0.73733 0.37202 0.0
H4044 H 0.347 0.73549 0.37058 0.0
H4045 H 0.41303 0.8272 0.36478 0.0
H4046 H 0.40773 0.8287 0.33271 0.0
H4047 H 0.42341 0.80866 0.34382 0.0
C4048 C 0.08812 0.72258 0.08875 0.0
C4049 C 0.06986 0.73378 0.08768 0.0
C4050 C 0.0853 0.69848 0.08342 0.0
C4051 C 0.06363 0.68445 0.07543 0.0
C4052 C 0.04503 0.69566 0.07418 0.0
C4053 C 0.04827 0.7198 0.08073 0.0
C4054 C 0.10579 0.68806 0.08637 0.0
C4055 C 0.02154 0.68221 0.06539 0.0
C4056 C 0.06179 0.62469 0.03908 0.0
C4057 C 0.05536 0.60929 0.05548 0.0
C4058 C 0.06396 0.64871 0.045 0.0
C4059 C 0.06062 0.65836 0.06844 0.0
C4060 C 0.05479 0.64281 0.08526 0.0
C4061 C 0.05178 0.61883 0.07849 0.0
C4062 C 0.06919 0.66375 0.02572 0.0
C4063 C 0.05212 0.65153 0.11081 0.0
H4064 H 0.10494 0.73282 0.09399 0.0
H4065 H 0.03388 0.72784 0.07942 0.0
H4066 H 0.1026 0.67332 0.09665 0.0
H4067 H 0.10961 0.68168 0.06831 0.0
H4068 H 0.12083 0.70047 0.09592 0.0
H4069 H 1.0097 0.69338 0.06072 0.0
H4070 H 0.02145 0.66981 0.04922 0.0
H4071 H 0.01524 0.67246 0.07978 0.0
H4072 H 0.06427 0.61787 0.0211 0.0
H4073 H 0.04685 0.60743 0.09151 0.0
H4074 H 0.08573 0.67546 0.0313 0.0
H4075 H 0.05637 0.67437 0.02344 0.0
H4076 H 0.06961 0.65381 0.00794 0.0
H4077 H 0.06808 0.66288 0.11972 0.0
H4078 H 0.04762 0.63755 0.12187 0.0
H4079 H 0.03891 0.66177 0.11064 0.0
C4080 C 0.08956 0.28118 0.92901 0.0
C4081 C 0.06839 0.27986 0.91577 0.0
C4082 C 0.10904 0.28275 0.91738 0.0
C4083 C 0.10741 0.28391 0.89209 0.0
C4084 C 0.08598 0.2823 0.87868 0.0
C4085 C 0.06678 0.27998 0.89059 0.0
C4086 C 0.13138 0.28367 0.93228 0.0
C4087 C 0.08336 0.28372 0.85176 0.0
C4088 C 0.15466 0.3159 0.86255 0.0
C4089 C 0.16119 0.29819 0.84867 0.0
C4090 C 0.13828 0.31141 0.8781 0.0
C4091 C 0.12798 0.28861 0.87969 0.0
C4092 C 0.1356 0.27063 0.86686 0.0
C4093 C 0.15223 0.27565 0.85156 0.0
C4094 C 0.13082 0.33113 0.89144 0.0
C4095 C 0.12539 0.24611 0.86838 0.0
H4096 H 0.0909 0.28093 0.94844 0.0
H4097 H 0.05051 0.27907 0.88022 0.0
H4098 H 0.14121 0.27278 0.9227 0.0
H4099 H 0.14132 0.30136 0.9351 0.0
H4100 H 0.12929 0.27813 0.95033 0.0
H4101 H 0.06556 0.2824 0.844 0.0
H4102 H 0.09337 0.3001 0.84818 0.0
H4103 H 0.08989 0.2699 0.84209 0.0
H4104 H 0.16164 0.33334 0.86033 0.0
H4105 H 0.15724 0.26196 0.84075 0.0
H4106 H 0.13125 0.32934 0.91098 0.0
H4107 H 0.11319 0.33117 0.88421 0.0
H4108 H 0.14153 0.34777 0.88962 0.0
H4109 H 0.12755 0.24281 0.88752 0.0
H4110 H 0.1331 0.23411 0.85728 0.0
H4111 H 0.10705 0.24255 0.86212 0.0
C4112 C 0.52841 0.74647 0.90012 0.0
C4113 C 0.54879 0.76022 0.8968 0.0
C4114 C 0.52787 0.7264 0.91067 0.0
C4115 C 0.5483 0.71985 0.91827 0.0
C4116 C 0.56888 0.73285 0.91343 0.0
C4117 C 0.5689 0.75298 0.90274 0.0
C4118 C 0.50549 0.71321 0.91538 0.0
C4119 C 0.59093 0.72625 0.92091 0.0
C4120 C 0.54216 0.68733 0.97225 0.0
C4121 C 0.53585 0.66482 0.96093 0.0
C4122 C 0.54814 0.70539 0.95882 0.0
C4123 C 0.54787 0.70081 0.93339 0.0
C4124 C 0.54351 0.6779 0.92228 0.0
C4125 C 0.53737 0.66015 0.93617 0.0
C4126 C 0.55244 0.72946 0.97153 0.0
C4127 C 0.54315 0.67216 0.89533 0.0
H4128 H 0.51289 0.75227 0.89586 0.0
H4129 H 0.5847 0.76385 0.90068 0.0
H4130 H 0.50345 0.69492 0.90853 0.0
H4131 H 0.5048 0.71457 0.9352 0.0
H4132 H 0.49109 0.71955 0.9067 0.0
H4133 H 0.60525 0.73707 0.9143 0.0
H4134 H 0.59424 0.72782 0.94097 0.0
H4135 H 0.5901 0.7082 0.91381 0.0
H4136 H 0.54052 0.69095 0.9913 0.0
H4137 H 0.53201 0.64279 0.92729 0.0
H4138 H 0.53789 0.73723 0.9663 0.0
H4139 H 0.56752 0.73996 0.96598 0.0
H4140 H 0.55487 0.73014 0.99158 0.0
H4141 H 0.52699 0.6744 0.88579 0.0
H4142 H 0.5447 0.65428 0.89045 0.0
H4143 H 0.55692 0.68366 0.88867 0.0
C4144 C 0.11046 0.74915 0.71957 0.0
C4145 C 0.09955 0.7675 0.72382 0.0
C4146 C 0.13382 0.75077 0.72744 0.0
C4147 C 0.14748 0.77139 0.7401 0.0
C4148 C 0.13643 0.7898 0.74515 0.0
C4149 C 0.11304 0.78777 0.73676 0.0
C4150 C 0.1442 0.73061 0.72093 0.0
C4151 C 0.14962 0.81222 0.75852 0.0
C4152 C 0.20683 0.77023 0.77413 0.0
C4153 C 0.22192 0.77935 0.75861 0.0
C4154 C 0.18301 0.76782 0.76863 0.0
C4155 C 0.17327 0.77406 0.74663 0.0
C4156 C 0.18848 0.78285 0.73072 0.0
C4157 C 0.21221 0.78561 0.73696 0.0
C4158 C 0.16822 0.759 0.7868 0.0
C4159 C 0.17967 0.78921 0.70673 0.0
H4160 H 0.10089 0.73369 0.70868 0.0
H4161 H 0.10556 0.80257 0.73931 0.0
H4162 H 0.15742 0.7353 0.70923 0.0
H4163 H 0.15244 0.72556 0.73754 0.0
H4164 H 0.1316 0.71571 0.71124 0.0
H4165 H 0.13848 0.82373 0.76422 0.0
H4166 H 0.16035 0.80946 0.7748 0.0
H4167 H 0.16093 0.82081 0.74661 0.0
H4168 H 0.2137 0.76559 0.7911 0.0
H4169 H 0.22327 0.79256 0.72455 0.0
H4170 H 0.15644 0.743 0.77856 0.0
H4171 H 0.15791 0.77152 0.79202 0.0
H4172 H 0.1781 0.75568 0.80342 0.0
H4173 H 0.16864 0.77404 0.69556 0.0
H4174 H 0.1934 0.79603 0.69641 0.0
H4175 H 0.16931 0.80218 0.70963 0.0
C4176 C 0.06666 0.40309 0.39965 0.0
C4177 C 0.05523 0.38121 0.40249 0.0
C4178 C 0.06495 0.42267 0.41527 0.0
C4179 C 0.05096 0.42071 0.43398 0.0
C4180 C 0.03893 0.39868 0.43643 0.0
C4181 C 0.04147 0.37938 0.42107 0.0
C4182 C 0.07859 0.4455 0.41211 0.0
C4183 C 0.02317 0.39545 0.45529 0.0
C4184 C 0.06046 0.46727 0.48946 0.0
C4185 C 0.04474 0.48056 0.48317 0.0
C4186 C 0.0628 0.44808 0.47371 0.0
C4187 C 0.04891 0.44151 0.45095 0.0
C4188 C 0.03266 0.45464 0.44478 0.0
C4189 C 0.0308 0.47382 0.46085 0.0
C4190 C 0.08033 0.43489 0.48145 0.0
C4191 C 0.01703 0.4483 0.42119 0.0
H4192 H 0.07754 0.40484 0.38565 0.0
H4193 H 0.03243 0.36271 0.42355 0.0
H4194 H 0.06735 0.45755 0.40887 0.0
H4195 H 0.09022 0.4527 0.42899 0.0
H4196 H 0.0886 0.44439 0.39679 0.0
H4197 H 0.01497 0.37733 0.45499 0.0
H4198 H 0.03244 0.40194 0.47365 0.0
H4199 H 1.0099 0.40541 0.45217 0.0
H4200 H 0.07125 0.47213 0.50667 0.0
H4201 H 0.0179 0.48316 0.45619 0.0
H4202 H 0.09233 0.43482 0.46796 0.0
H4203 H 0.07225 0.41693 0.4821 0.0
H4204 H 0.08989 0.44211 0.49955 0.0
H4205 H 0.02689 0.44998 0.40577 0.0
H4206 H 1.00436 0.45918 0.41963 0.0
H4207 H 1.0081 0.43027 0.41947 0.0
C4208 C 0.45176 0.27716 0.21512 0.0
C4209 C 0.46284 0.26006 0.22263 0.0
C4210 C 0.43099 0.28066 0.22295 0.0
C4211 C 0.41961 0.26621 0.23821 0.0
C4212 C 0.43056 0.24869 0.24565 0.0
C4213 C 0.4519 0.24615 0.23831 0.0
C4214 C 0.42136 0.30028 0.21504 0.0
C4215 C 0.41938 0.23208 0.26103 0.0
C4216 C 0.37367 0.28513 0.27552 0.0
C4217 C 0.35291 0.27563 0.26082 0.0
C4218 C 0.39499 0.28255 0.26843 0.0
C4219 C 0.39648 0.26936 0.24613 0.0
C4220 C 0.37557 0.2594 0.23136 0.0
C4221 C 0.3545 0.26279 0.23861 0.0
C4222 C 0.41613 0.29434 0.28493 0.0
C4223 C 0.37537 0.24497 0.20762 0.0
H4224 H 0.45969 0.28836 0.20326 0.0
H4225 H 0.45969 0.23272 0.24435 0.0
H4226 H 0.40439 0.29391 0.2046 0.0
H4227 H 0.41939 0.3117 0.23121 0.0
H4228 H 0.43214 0.31036 0.20366 0.0
H4229 H 0.42974 0.21958 0.26574 0.0
H4230 H 0.41604 0.24131 0.27801 0.0
H4231 H 0.40289 0.22273 0.25115 0.0
H4232 H 0.37338 0.29474 0.29288 0.0
H4233 H 0.3391 0.25519 0.22668 0.0
H4234 H 0.42682 0.30624 0.2751 0.0
H4235 H 0.426 0.2817 0.29039 0.0
H4236 H 0.41254 0.30404 0.30154 0.0
H4237 H 0.38416 0.25545 0.1951 0.0
H4238 H 0.35804 0.23726 0.19869 0.0
H4239 H 0.3846 0.23117 0.21061 0.0
C4240 C 0.63353 0.56203 0.38394 0.0
C4241 C 0.62172 0.55328 0.36085 0.0
C4242 C 0.62296 0.56014 0.4051 0.0
C4243 C 0.6003 0.54823 0.40338 0.0
C4244 C 0.58844 0.53913 0.38006 0.0
C4245 C 0.5991 0.54217 0.35918 0.0
C4246 C 0.63605 0.57101 0.42933 0.0
C4247 C 0.56453 0.52581 0.37712 0.0
C4248 C 0.58182 0.52464 0.46076 0.0
C4249 C 0.56816 0.53936 0.46856 0.0
C4250 C 0.59183 0.52695 0.43932 0.0
C4251 C 0.58907 0.5451 0.42587 0.0
C4252 C 0.57551 0.56022 0.43399 0.0
C4253 C 0.56487 0.55685 0.45482 0.0
C4254 C 0.6052 0.50977 0.43093 0.0
C4255 C 0.57286 0.58049 0.42122 0.0
H4256 H 0.65099 0.57067 0.38544 0.0
H4257 H 0.58988 0.53513 0.34147 0.0
H4258 H 0.6261 0.58144 0.43939 0.0
H4259 H 0.63939 0.55763 0.44046 0.0
H4260 H 0.65239 0.58198 0.42741 0.0
H4261 H 0.55827 0.51823 0.35804 0.0
H4262 H 0.5633 0.51196 0.38872 0.0
H4263 H 0.5533 0.53707 0.38311 0.0
H4264 H 0.58427 0.51099 0.47116 0.0
H4265 H 0.55457 0.5685 0.46093 0.0
H4266 H 0.62312 0.51818 0.43186 0.0
H4267 H 0.59902 0.50261 0.41174 0.0
H4268 H 0.60415 0.49559 0.4421 0.0
H4269 H 0.5894 0.59238 0.42302 0.0
H4270 H 0.56065 0.58979 0.42881 0.0
H4271 H 0.56725 0.57516 0.40158 0.0
C4272 C 0.28593 0.90319 0.06785 0.0
C4273 C 0.30663 0.91045 0.05986 0.0
C4274 C 0.28502 0.89313 0.08922 0.0
C4275 C 0.3053 0.89033 0.10218 0.0
C4276 C 0.32632 0.89973 0.09518 0.0
C4277 C 0.32667 0.90985 0.07405 0.0
C4278 C 0.26249 0.88383 0.09676 0.0
C4279 C 0.34839 0.89689 0.10835 0.0
C4280 C 0.319 0.87189 0.16211 0.0
C4281 C 0.32316 0.85035 0.1546 0.0
C4282 C 0.30982 0.88426 0.14541 0.0
C4283 C 0.30514 0.87491 0.12075 0.0
C4284 C 0.30676 0.85214 0.11361 0.0
C4285 C 0.3159 0.8401 0.13073 0.0
C4286 C 0.30791 0.90833 0.15369 0.0
C4287 C 0.30157 0.84146 0.08742 0.0
H4288 H 0.27053 0.90369 0.05646 0.0
H4289 H 0.34258 0.91548 0.06743 0.0
H4290 H 0.2594 0.865 0.09478 0.0
H4291 H 0.26234 0.88989 0.11615 0.0
H4292 H 0.24849 0.88892 0.08573 0.0
H4293 H 0.36315 0.90677 0.10155 0.0
H4294 H 0.34954 0.90239 0.12806 0.0
H4295 H 0.34943 0.87867 0.10589 0.0
H4296 H 0.32433 0.87976 0.18071 0.0
H4297 H 0.31833 0.82309 0.12521 0.0
H4298 H 0.29344 0.91298 0.1431 0.0
H4299 H 0.32341 0.9202 0.15093 0.0
H4300 H 0.30606 0.91076 0.17327 0.0
H4301 H 0.28612 0.84574 0.07846 0.0
H4302 H 0.29938 0.82265 0.08566 0.0
H4303 H 0.31567 0.84817 0.07756 0.0
C4304 C 0.94597 0.54382 0.88462 0.0
C4305 C 0.92374 0.53185 0.88145 0.0
C4306 C 0.96009 0.54358 0.90559 0.0
C4307 C 0.9515 0.53084 0.92342 0.0
C4308 C 0.92879 0.51935 0.92073 0.0
C4309 C 0.91486 0.52017 0.89951 0.0
C4310 C 0.98434 0.55615 0.90812 0.0
C4311 C 0.91964 0.50565 0.93977 0.0
C4312 C 0.99871 0.5144 0.96013 0.0
C4313 C 1.00353 0.5323 0.97909 0.0
C4314 C 0.98033 0.51257 0.94255 0.0
C4315 C 0.96692 0.52912 0.94438 0.0
C4316 C 0.97121 0.54664 0.96409 0.0
C4317 C 0.9899 0.54829 0.9811 0.0
C4318 C 0.97628 0.49401 0.92122 0.0
C4319 C 0.95723 0.56465 0.96621 0.0
H4320 H 0.95243 0.55301 0.87041 0.0
H4321 H 0.89754 0.5109 0.89654 0.0
H4322 H 0.98876 0.56799 0.9253 0.0
H4323 H 0.99567 0.54386 0.90873 0.0
H4324 H 0.98777 0.56608 0.89287 0.0
H4325 H 0.90147 0.49789 0.93489 0.0
H4326 H 0.92903 0.49191 0.9423 0.0
H4327 H 0.9221 0.51665 0.95746 0.0
H4328 H 1.00952 0.50217 0.95882 0.0
H4329 H 0.99415 0.56244 0.99558 0.0
H4330 H 0.98082 0.50157 0.90478 0.0
H4331 H 0.95824 0.48559 0.9175 0.0
H4332 H 0.98642 0.48092 0.92426 0.0
H4333 H 0.9614 0.57667 0.95295 0.0
H4334 H 0.96042 0.5745 0.98463 0.0
H4335 H 0.93904 0.55691 0.96196 0.0
C4336 C 0.27476 0.24172 0.59464 0.0
C4337 C 0.27436 0.219 0.58559 0.0
C4338 C 0.2772 0.24918 0.61966 0.0
C4339 C 0.27914 0.23359 0.63653 0.0
C4340 C 0.27922 0.21066 0.62766 0.0
C4341 C 0.27698 0.20366 0.60235 0.0
C4342 C 0.2775 0.27385 0.62801 0.0
C4343 C 0.28096 0.19336 0.64491 0.0
C4344 C 0.3035 0.25836 0.70214 0.0
C4345 C 0.28409 0.2593 0.71316 0.0
C4346 C 0.30217 0.24989 0.67743 0.0
C4347 C 0.28086 0.24149 0.6633 0.0
C4348 C 0.26119 0.24195 0.67453 0.0
C4349 C 0.26307 0.25105 0.69918 0.0
C4350 C 0.32365 0.25029 0.66638 0.0
C4351 C 0.2381 0.2328 0.6605 0.0
H4352 H 0.27302 0.25387 0.58203 0.0
H4353 H 0.27658 0.18605 0.59571 0.0
H4354 H 0.26322 0.27517 0.63832 0.0
H4355 H 0.29321 0.28153 0.64041 0.0
H4356 H 0.27634 0.28395 0.61266 0.0
H4357 H 0.2825 0.17671 0.63547 0.0
H4358 H 0.29568 0.19963 0.65909 0.0
H4359 H 0.26576 0.19076 0.65426 0.0
H4360 H 0.31985 0.26463 0.71285 0.0
H4361 H 0.24811 0.25108 0.7077 0.0
H4362 H 0.32397 0.26091 0.6514 0.0
H4363 H 0.32444 0.23288 0.6585 0.0
H4364 H 0.33888 0.25716 0.67983 0.0
H4365 H 0.2349 0.24364 0.64627 0.0
H4366 H 0.22461 0.2323 0.67232 0.0
H4367 H 0.23708 0.21539 0.65124 0.0
C4368 C 0.626 0.55078 0.21322 0.0
C4369 C 0.61058 0.55049 0.23008 0.0
C4370 C 0.6188 0.54906 0.18801 0.0
C4371 C 0.59558 0.54654 0.17934 0.0
C4372 C 0.57995 0.54512 0.19628 0.0
C4373 C 0.58761 0.54732 0.22124 0.0
C4374 C 0.6361 0.55081 0.1707 0.0
C4375 C 0.55503 0.54162 0.18808 0.0
C4376 C 0.57567 0.56526 0.11864 0.0
C4377 C 0.57026 0.5447 0.10302 0.0
C4378 C 0.58445 0.56619 0.14324 0.0
C4379 C 0.58749 0.54596 0.15276 0.0
C4380 C 0.58178 0.52508 0.13701 0.0
C4381 C 0.57364 0.52479 0.11238 0.0
C4382 C 0.59056 0.5889 0.15907 0.0
C4383 C 0.58411 0.50294 0.14614 0.0
H4384 H 0.64378 0.55335 0.21977 0.0
H4385 H 0.57549 0.5468 0.23402 0.0
H4386 H 0.63183 0.53595 0.15632 0.0
H4387 H 0.63602 0.56623 0.16161 0.0
H4388 H 0.65333 0.55175 0.18 0.0
H4389 H 0.54497 0.53994 0.20338 0.0
H4390 H 0.5514 0.55617 0.17896 0.0
H4391 H 0.5494 0.52608 0.17466 0.0
H4392 H 0.57366 0.58071 0.11146 0.0
H4393 H 0.56948 0.50879 0.10043 0.0
H4394 H 0.60842 0.5921 0.16734 0.0
H4395 H 0.58017 0.58878 0.1741 0.0
H4396 H 0.58805 0.60315 0.1488 0.0
H4397 H 0.60218 0.50271 0.15059 0.0
H4398 H 0.57624 0.48796 0.13251 0.0
H4399 H 0.57628 0.5012 0.16299 0.0
C4400 C 0.29934 0.9145 0.91295 0.0
C4401 C 0.31063 0.91215 0.93529 0.0
C4402 C 0.29945 0.89896 0.89262 0.0
C4403 C 0.31075 0.88087 0.89537 0.0
C4404 C 0.32341 0.8795 0.91757 0.0
C4405 C 0.3236 0.89561 0.93718 0.0
C4406 C 0.28632 0.90097 0.86876 0.0
C4407 C 0.33527 0.86008 0.92117 0.0
C4408 C 0.28547 0.8273 0.85354 0.0
C4409 C 0.30209 0.8269 0.83849 0.0
C4410 C 0.28854 0.84449 0.87297 0.0
C4411 C 0.30785 0.86222 0.87579 0.0
C4412 C 0.32485 0.86145 0.86079 0.0
C4413 C 0.32222 0.84286 0.843 0.0
C4414 C 0.27137 0.84348 0.89049 0.0
C4415 C 0.34514 0.88059 0.86266 0.0
H4416 H 0.28932 0.92741 0.91172 0.0
H4417 H 0.33286 0.89436 0.95438 0.0
H4418 H 0.29597 0.89768 0.85354 0.0
H4419 H 0.27037 0.88806 0.86556 0.0
H4420 H 0.28211 0.91802 0.86853 0.0
H4421 H 0.34379 0.86139 0.94001 0.0
H4422 H 0.32297 0.84364 0.91698 0.0
H4423 H 0.34805 0.85969 0.90864 0.0
H4424 H 0.27037 0.81401 0.85033 0.0
H4425 H 0.33547 0.84126 0.83199 0.0
H4426 H 0.26188 0.85719 0.88846 0.0
H4427 H 0.27985 0.84617 0.90946 0.0
H4428 H 0.25918 0.82691 0.88747 0.0
H4429 H 0.33984 0.89495 0.85444 0.0
H4430 H 0.35859 0.87534 0.85298 0.0
H4431 H 0.35227 0.8871 0.88175 0.0
C4432 C 0.93419 0.54251 0.74981 0.0
C4433 C 0.92387 0.52183 0.75648 0.0
C4434 C 0.94306 0.54296 0.72782 0.0
C4435 C 0.94121 0.52223 0.71264 0.0
C4436 C 0.92891 0.50163 0.71857 0.0
C4437 C 0.92047 0.50172 0.74065 0.0
C4438 C 0.95589 0.56513 0.72179 0.0
C4439 C 0.92661 0.47912 0.70285 0.0
C4440 C 0.9542 0.50948 0.64987 0.0
C4441 C 0.97322 0.50035 0.6551 0.0
C4442 C 0.94481 0.5198 0.66864 0.0
C4443 C 0.95491 0.5208 0.69279 0.0
C4444 C 0.9758 0.51422 0.69766 0.0
C4445 C 0.98465 0.50376 0.67859 0.0
C4446 C 0.92276 0.527 0.66283 0.0
C4447 C 0.98737 0.51555 0.72321 0.0
H4448 H 0.93669 0.55795 0.76248 0.0
H4449 H 0.91244 0.48584 0.74625 0.0
H4450 H 0.97387 0.56441 0.72172 0.0
H4451 H 0.94935 0.56802 0.70337 0.0
H4452 H 0.95477 0.57985 0.73499 0.0
H4453 H 0.91457 0.46527 0.70887 0.0
H4454 H 0.92085 0.48048 0.68369 0.0
H4455 H 0.94322 0.47421 0.70356 0.0
H4456 H 0.94593 0.50726 0.63136 0.0
H4457 H 0.99983 0.4972 0.68216 0.0
H4458 H 0.92158 0.54206 0.67543 0.0
H4459 H 0.90876 0.51291 0.66483 0.0
H4460 H 0.92043 0.53097 0.64392 0.0
H4461 H 0.98688 0.53182 0.73415 0.0
H4462 H 1.00518 0.51393 0.72349 0.0
H4463 H 0.97848 0.50153 0.73205 0.0
C4464 C 0.25656 0.21289 0.44214 0.0
C4465 C 0.27443 0.20555 0.45458 0.0
C4466 C 0.25914 0.22319 0.42083 0.0
C4467 C 0.28037 0.22711 0.41217 0.0
C4468 C 0.29862 0.22019 0.42518 0.0
C4469 C 0.2953 0.20911 0.44585 0.0
C4470 C 0.23907 0.22988 0.40759 0.0
C4471 C 0.32194 0.22545 0.41796 0.0
C4472 C 0.28644 0.23647 0.3462 0.0
C4473 C 0.28823 0.26009 0.34682 0.0
C4474 C 0.28298 0.22554 0.36694 0.0
C4475 C 0.28352 0.2386 0.38973 0.0
C4476 C 0.28661 0.26259 0.39078 0.0
C4477 C 0.28767 0.27279 0.36927 0.0
C4478 C 0.27796 0.19988 0.36421 0.0
C4479 C 0.28867 0.27781 0.41449 0.0
H4480 H 0.24044 0.21026 0.4489 0.0
H4481 H 0.30927 0.2038 0.45568 0.0
H4482 H 0.24154 0.24867 0.40966 0.0
H4483 H 0.23727 0.22373 0.38792 0.0
H4484 H 0.22321 0.22301 0.41464 0.0
H4485 H 0.33419 0.21835 0.42942 0.0
H4486 H 0.3218 0.21863 0.39876 0.0
H4487 H 0.32786 0.24417 0.41966 0.0
H4488 H 0.28673 0.22625 0.32914 0.0
H4489 H 0.2882 0.29086 0.37029 0.0
H4490 H 0.2625 0.19363 0.37226 0.0
H4491 H 0.29191 0.19381 0.37407 0.0
H4492 H 0.27555 0.19217 0.34492 0.0
H4493 H 0.27187 0.28107 0.41746 0.0
H4494 H 0.29989 0.29453 0.41403 0.0
H4495 H 0.29537 0.27017 0.43015 0.0
C4496 C 0.3253 0.59381 0.5434 0.0
C4497 C 0.32524 0.60598 0.566 0.0
C4498 C 0.34486 0.58753 0.53724 0.0
C4499 C 0.36431 0.59276 0.5547 0.0
C4500 C 0.36373 0.60341 0.57831 0.0
C4501 C 0.34417 0.61059 0.58351 0.0
C4502 C 0.34513 0.57695 0.51153 0.0
C4503 C 0.38407 0.60847 0.59742 0.0
C4504 C 0.4052 0.55983 0.53251 0.0
C4505 C 0.41765 0.57572 0.52002 0.0
C4506 C 0.38927 0.56597 0.54645 0.0
C4507 C 0.3854 0.58826 0.54723 0.0
C4508 C 0.39903 0.60482 0.53619 0.0
C4509 C 0.41519 0.59831 0.52278 0.0
C4510 C 0.37516 0.54811 0.55842 0.0
C4511 C 0.39509 0.62873 0.53635 0.0
H4512 H 0.31065 0.59112 0.52974 0.0
H4513 H 0.34396 0.62064 0.60071 0.0
H4514 H 0.35769 0.58805 0.50283 0.0
H4515 H 0.35015 0.56028 0.51156 0.0
H4516 H 0.3285 0.57433 0.50022 0.0
H4517 H 0.37973 0.61348 0.6157 0.0
H4518 H 0.39192 0.59341 0.59798 0.0
H4519 H 0.3968 0.62257 0.59293 0.0
H4520 H 0.407 0.54226 0.53039 0.0
H4521 H 0.42527 0.61068 0.51364 0.0
H4522 H 0.35838 0.54217 0.54743 0.0
H4523 H 0.37248 0.5553 0.57671 0.0
H4524 H 0.38301 0.53315 0.56012 0.0
H4525 H 0.38033 0.62857 0.52283 0.0
H4526 H 0.40982 0.64047 0.53156 0.0
H4527 H 0.39137 0.63552 0.5543 0.0
C4528 C 0.88365 0.94149 0.55914 0.0
C4529 C 0.87876 0.92231 0.54141 0.0
C4530 C 0.90352 0.95812 0.56037 0.0
C4531 C 0.91844 0.95585 0.54302 0.0
C4532 C 0.91312 0.93691 0.52462 0.0
C4533 C 0.89354 0.92027 0.52424 0.0
C4534 C 0.90877 0.97791 0.58045 0.0
C4535 C 0.9283 0.93401 0.50549 0.0
C4536 C 0.96163 1.00648 0.53103 0.0
C4537 C 0.98162 1.00259 0.54313 0.0
C4538 C 0.94083 0.99189 0.53153 0.0
C4539 C 0.93996 0.97283 0.54432 0.0
C4540 C 0.95999 0.96914 0.55708 0.0
C4541 C 0.98051 0.98409 0.55642 0.0
C4542 C 0.91991 0.9964 0.51763 0.0
C4543 C 0.95983 0.94907 0.57099 0.0
H4544 H 0.87227 0.94316 0.57245 0.0
H4545 H 0.88966 0.90568 0.51028 0.0
H4546 H 0.92533 0.97847 0.59109 0.0
H4547 H 0.90996 0.99412 0.57262 0.0
H4548 H 0.89582 0.97689 0.59296 0.0
H4549 H 0.92107 0.91909 0.49158 0.0
H4550 H 0.93143 0.94945 0.49628 0.0
H4551 H 0.94483 0.9318 0.51411 0.0
H4552 H 0.96226 0.02054 0.52048 0.0
H4553 H 0.99582 0.9809 0.56586 0.0
H4554 H 0.90686 0.99735 0.52976 0.0
H4555 H 0.91287 0.98215 0.50292 0.0
H4556 H 0.92325 0.01247 0.50947 0.0
H4557 H 0.94862 0.94987 0.5852 0.0
H4558 H 0.97687 0.94845 0.57974 0.0
H4559 H 0.95305 0.93298 0.55865 0.0
C4560 C 0.89901 0.07894 0.24852 0.0
C4561 C 0.90824 0.07188 0.26967 0.0
C4562 C 0.88771 0.09714 0.24983 0.0
C4563 C 0.88491 0.10773 0.2728 0.0
C4564 C 0.89399 0.10029 0.29419 0.0
C4565 C 0.90589 0.0827 0.29232 0.0
C4566 C 0.87889 0.10512 0.22675 0.0
C4567 C 0.89069 0.11054 0.31905 0.0
C4568 C 0.8724 0.16638 0.2863 0.0
C4569 C 0.84968 0.16088 0.28935 0.0
C4570 C 0.88381 0.14931 0.27894 0.0
C4571 C 0.87215 0.1263 0.27482 0.0
C4572 C 0.84872 0.12099 0.27602 0.0
C4573 C 0.83775 0.13843 0.28324 0.0
C4574 C 0.90874 0.15567 0.2778 0.0
C4575 C 0.83572 0.0967 0.27204 0.0
H4576 H 0.90087 0.07041 0.23104 0.0
H4577 H 0.91279 0.07686 0.30861 0.0
H4578 H 0.86049 0.10403 0.22571 0.0
H4579 H 0.8868 0.12325 0.22671 0.0
H4580 H 0.88234 0.09502 0.21033 0.0
H4581 H 0.8986 0.10259 0.3338 0.0
H4582 H 0.89798 0.12905 0.32196 0.0
H4583 H 0.87246 0.10843 0.32045 0.0
H4584 H 0.88164 0.18375 0.29154 0.0
H4585 H 0.82025 0.13428 0.28611 0.0
H4586 H 0.91311 0.14655 0.2613 0.0
H4587 H 0.91807 0.15056 0.29372 0.0
H4588 H 0.91455 0.17426 0.27787 0.0
H4589 H 0.83876 0.08773 0.25478 0.0
H4590 H 0.81733 0.09562 0.27166 0.0
H4591 H 0.84157 0.08757 0.28687 0.0
C4592 C 0.70699 0.09394 0.03924 0.0
C4593 C 0.70968 0.11715 0.04751 0.0
C4594 C 0.6864 0.07914 0.03904 0.0
C4595 C 0.6685 0.08791 0.04749 0.0
C4596 C 0.67146 0.11104 0.05702 0.0
C4597 C 0.69206 0.12551 0.05668 0.0
C4598 C 0.68353 0.05432 0.02928 0.0
C4599 C 0.65275 0.12054 0.06709 0.0
C4600 C 0.60924 0.06302 0.02025 0.0
C4601 C 0.60105 0.05134 0.03853 0.0
C4602 C 0.63158 0.07416 0.0225 0.0
C4603 C 0.64593 0.07365 0.0439 0.0
C4604 C 0.63805 0.06103 0.0622 0.0
C4605 C 0.61557 0.04977 0.05913 0.0
C4606 C 0.63951 0.08728 0.00244 0.0
C4607 C 0.65264 0.05974 0.08538 0.0
H4608 H 0.72082 0.08744 0.03255 0.0
H4609 H 0.69443 0.14333 0.06384 0.0
H4610 H 0.677 0.04355 0.04283 0.0
H4611 H 0.67095 0.0501 0.01272 0.0
H4612 H 0.69953 0.04993 0.02471 0.0
H4613 H 0.65845 0.13851 0.07561 0.0
H4614 H 0.63879 0.11966 0.05233 0.0
H4615 H 0.64592 0.11017 0.08083 0.0
H4616 H 0.59818 0.06368 0.00433 0.0
H4617 H 0.60922 0.04069 0.0734 0.0
H4618 H 0.6549 0.0823 0.9968 0.0
H4619 H 0.64387 0.10575 0.00913 0.0
H4620 H 0.62652 0.08444 0.98627 0.0
H4621 H 0.65429 0.04184 0.08605 0.0
H4622 H 0.64428 0.06466 0.10119 0.0
H4623 H 0.66971 0.07061 0.08739 0.0
C4624 C 0.23698 0.49673 0.23811 0.0
C4625 C 0.22159 0.50173 0.25341 0.0
C4626 C 0.24834 0.47917 0.24218 0.0
C4627 C 0.2443 0.46729 0.26222 0.0
C4628 C 0.22913 0.47297 0.27803 0.0
C4629 C 0.21787 0.49006 0.27325 0.0
C4630 C 0.2641 0.47298 0.22489 0.0
C4631 C 0.22467 0.46108 0.30004 0.0
C4632 C 0.24872 0.4098 0.27528 0.0
C4633 C 0.266 0.41573 0.29471 0.0
C4634 C 0.24353 0.4263 0.26129 0.0
C4635 C 0.25573 0.44895 0.26759 0.0
C4636 C 0.27488 0.45425 0.28542 0.0
C4637 C 0.27984 0.43734 0.29888 0.0
C4638 C 0.22309 0.42019 0.24225 0.0
C4639 C 0.28795 0.47834 0.29284 0.0
H4640 H 0.23967 0.50607 0.22285 0.0
H4641 H 0.20623 0.49456 0.28534 0.0
H4642 H 0.28024 0.47127 0.23494 0.0
H4643 H 0.25644 0.45625 0.2141 0.0
H4644 H 0.26761 0.48575 0.21222 0.0
H4645 H 0.21279 0.46831 0.31068 0.0
H4646 H 0.21743 0.44275 0.29434 0.0
H4647 H 0.2406 0.46247 0.31221 0.0
H4648 H 0.23858 0.39267 0.27191 0.0
H4649 H 0.29356 0.44138 0.31371 0.0
H4650 H 0.22563 0.42988 0.2267 0.0
H4651 H 0.20841 0.42462 0.25024 0.0
H4652 H 0.21899 0.40171 0.23552 0.0
H4653 H 0.29028 0.48737 0.2768 0.0
H4654 H 0.30469 0.47885 0.30312 0.0
H4655 H 0.2784 0.48773 0.30465 0.0
C4656 C 0.25506 0.43776 0.02806 0.0
C4657 C 0.25654 0.42211 0.04449 0.0
C4658 C 0.23613 0.44754 0.02499 0.0
C4659 C 0.2187 0.44208 0.03941 0.0
C4660 C 0.22046 0.42668 0.05653 0.0
C4661 C 0.23926 0.41647 0.05854 0.0
C4662 C 0.2346 0.4633 0.00596 0.0
C4663 C 0.20239 0.42085 0.07246 0.0
C4664 C 0.18159 0.48539 0.03876 0.0
C4665 C 0.16495 0.47498 0.01954 0.0
C4666 C 0.19837 0.47403 0.04701 0.0
C4667 C 0.19834 0.45192 0.03559 0.0
C4668 C 0.18026 0.44064 0.01775 0.0
C4669 C 0.16372 0.45234 0.01 0.0
C4670 C 0.21724 0.48646 0.0663 0.0
C4671 C 0.17965 0.41724 0.00483 0.0
H4672 H 0.26845 0.4418 0.01706 0.0
H4673 H 0.24058 0.40428 0.0712 0.0
H4674 H 0.21914 0.45676 0.99281 0.0
H4675 H 0.23346 0.48037 0.01457 0.0
H4676 H 0.24933 0.4652 0.99581 0.0
H4677 H 0.20733 0.41038 0.08646 0.0
H4678 H 0.1986 0.43662 0.08162 0.0
H4679 H 0.18667 0.41129 0.06119 0.0
H4680 H 0.18257 0.503 0.04593 0.0
H4681 H 0.15081 0.44444 0.99502 0.0
H4682 H 0.23256 0.49203 0.05777 0.0
H4683 H 0.22136 0.47506 0.07962 0.0
H4684 H 0.21297 0.50172 0.07607 0.0
H4685 H 0.19189 0.41858 0.99156 0.0
H4686 H 0.16273 0.40935 0.99486 0.0
H4687 H 0.18451 0.40579 0.01773 0.0
C4688 C 0.8847 0.94738 0.26231 0.0
C4689 C 0.90669 0.94848 0.27358 0.0
C4690 C 0.86757 0.92789 0.26176 0.0
C4691 C 0.87239 0.90915 0.27305 0.0
C4692 C 0.89449 0.91023 0.28447 0.0
C4693 C 0.91128 0.92971 0.28451 0.0
C4694 C 0.8443 0.92733 0.24916 0.0
C4695 C 0.90043 0.89075 0.29679 0.0
C4696 C 0.82585 0.8657 0.29258 0.0
C4697 C 0.82386 0.84698 0.27478 0.0
C4698 C 0.84118 0.88622 0.29195 0.0
C4699 C 0.85457 0.88823 0.27284 0.0
C4700 C 0.85201 0.86958 0.25438 0.0
C4701 C 0.83684 0.84919 0.25567 0.0
C4702 C 0.84362 0.90547 0.31222 0.0
C4703 C 0.86559 0.87101 0.23345 0.0
H4704 H 0.88086 0.96171 0.25383 0.0
H4705 H 0.92807 0.9303 0.29342 0.0
H4706 H 0.83873 0.91195 0.23552 0.0
H4707 H 0.83217 0.9263 0.26255 0.0
H4708 H 0.84353 0.9426 0.23997 0.0
H4709 H 0.91824 0.89442 0.30537 0.0
H4710 H 0.88943 0.88702 0.31094 0.0
H4711 H 0.8975 0.87517 0.28343 0.0
H4712 H 0.81603 0.86402 0.30751 0.0
H4713 H 0.8353 0.83484 0.24175 0.0
H4714 H 0.84084 0.9211 0.30472 0.0
H4715 H 0.86098 0.90928 0.32202 0.0
H4716 H 0.83162 0.90146 0.32544 0.0
H4717 H 0.86181 0.88477 0.2231 0.0
H4718 H 0.86202 0.85484 0.22088 0.0
H4719 H 0.88383 0.87535 0.2403 0.0
C4720 C 0.70074 0.13946 0.78169 0.0
C4721 C 0.70937 0.1196 0.78008 0.0
C4722 C 0.71483 0.16061 0.78201 0.0
C4723 C 0.73796 0.1617 0.78083 0.0
C4724 C 0.74699 0.14191 0.78025 0.0
C4725 C 0.73254 0.12099 0.77997 0.0
C4726 C 0.70482 0.18162 0.78253 0.0
C4727 C 0.77171 0.14279 0.77902 0.0
C4728 C 0.76624 0.21279 0.75511 0.0
C4729 C 0.77639 0.2269 0.77636 0.0
C4730 C 0.75447 0.19086 0.75621 0.0
C4731 C 0.75253 0.18355 0.77919 0.0
C4732 C 0.76363 0.19755 0.80062 0.0
C4733 C 0.77601 0.21907 0.79882 0.0
C4734 C 0.74337 0.17598 0.73295 0.0
C4735 C 0.76146 0.19034 0.82541 0.0
H4736 H 0.68284 0.13845 0.7816 0.0
H4737 H 0.73931 0.10566 0.77884 0.0
H4738 H 0.71405 0.19475 0.79751 0.0
H4739 H 0.70652 0.18897 0.76534 0.0
H4740 H 0.68672 0.17793 0.78486 0.0
H4741 H 0.77601 0.12574 0.77867 0.0
H4742 H 0.77659 0.15005 0.76253 0.0
H4743 H 0.78196 0.15413 0.79488 0.0
H4744 H 0.76698 0.21916 0.73776 0.0
H4745 H 0.78506 0.22985 0.81492 0.0
H4746 H 0.72483 0.17335 0.73208 0.0
H4747 H 0.74782 0.159 0.7324 0.0
H4748 H 0.74837 0.18356 0.71664 0.0
H4749 H 0.74407 0.19009 0.82949 0.0
H4750 H 0.77331 0.20207 0.83989 0.0
H4751 H 0.76452 0.17289 0.82592 0.0
loop_
_geom_bond_atom_site_label_1
_geom_bond_atom_site_label_2
_geom_bond_distance
_geom_bond_site_symmetry_2
_ccdc_geom_bond_type
Co0 O1 2.216 . S
Co0 O2 2.091 . S
Co0 O4 2.004 . S
Co0 O10 2.021 . S
Co0 O12 2.137 . S
Co0 O13 2.244 . S
O1 Co0 2.216 . S
O1 C8 1.247 . S
O2 Co0 2.091 . S
O2 C8 1.261 . S
C3 O12 1.247 . S
C3 O13 1.272 . S
O4 Co0 2.004 . S
O4 C9 1.259 1_455 S
Co5 O6 2.061 1_455 S
Co5 O11 2.052 . S
Co5 O13 2.135 . S
O6 Co5 2.061 1_655 S
O6 C9 1.235 . S
C7 O10 1.238 . S
C7 O11 1.241 . S
C8 O1 1.247 . S
C8 O2 1.261 . S
C9 O4 1.259 1_655 S
C9 O6 1.235 . S
O10 Co0 2.021 . S
O10 C7 1.238 . S
O11 Co5 2.052 . S
O11 C7 1.241 . S
O12 Co0 2.137 . S
O12 C3 1.247 . S
O13 Co0 2.244 . S
O13 C3 1.272 . S
O13 Co5 2.135 . S
Co14 O15 2.216 1_455 S
Co14 O16 2.091 1_455 S
Co14 O18 2.004 . S
Co14 O24 2.021 . S
Co14 O26 2.137 . S
Co14 O27 2.244 . S
O15 Co14 2.216 1_655 S
O15 C22 1.247 . S
O16 Co14 2.091 1_655 S
O16 C22 1.261 . S
C17 O26 1.247 . S
C17 O27 1.272 . S
O18 Co14 2.004 . S
O18 C23 1.259 . S
Co19 O20 2.061 . S
Co19 O25 2.052 . S
Co19 O27 2.135 . S
O20 Co19 2.061 . S
O20 C23 1.235 . S
C21 O24 1.238 . S
C21 O25 1.241 . S
C22 O15 1.247 . S
C22 O16 1.261 . S
C23 O18 1.259 . S
C23 O20 1.235 . S
O24 Co14 2.021 . S
O24 C21 1.238 . S
O25 Co19 2.052 . S
O25 C21 1.241 . S
O26 Co14 2.137 . S
O26 C17 1.247 . S
O27 Co14 2.244 . S
O27 C17 1.272 . S
O27 Co19 2.135 . S
Co28 O29 2.216 . S
Co28 O30 2.091 . S
Co28 O32 2.004 . S
Co28 O38 2.021 . S
Co28 O40 2.137 . S
Co28 O41 2.244 . S
O29 Co28 2.216 . S
O29 C36 1.247 . S
O30 Co28 2.091 . S
O30 C36 1.261 . S
C31 O40 1.247 . S
C31 O41 1.272 . S
O32 Co28 2.004 . S
O32 C37 1.259 . S
Co33 O34 2.061 . S
Co33 O39 2.052 . S
Co33 O41 2.135 . S
O34 Co33 2.061 . S
O34 C37 1.235 . S
C35 O38 1.238 . S
C35 O39 1.241 . S
C36 O29 1.247 . S
C36 O30 1.261 . S
C37 O32 1.259 . S
C37 O34 1.235 . S
O38 Co28 2.021 . S
O38 C35 1.238 . S
O39 Co33 2.052 . S
O39 C35 1.241 . S
O40 Co28 2.137 . S
O40 C31 1.247 . S
O41 Co28 2.244 . S
O41 C31 1.272 . S
O41 Co33 2.135 . S
Co42 O43 2.216 . S
Co42 O44 2.091 . S
Co42 O46 2.004 . S
Co42 O52 2.021 . S
Co42 O54 2.137 . S
Co42 O55 2.244 . S
O43 Co42 2.216 . S
O43 C50 1.247 . S
O44 Co42 2.091 . S
O44 C50 1.261 . S
C45 O54 1.247 . S
C45 O55 1.272 . S
O46 Co42 2.004 . S
O46 C51 1.259 . S
Co47 O48 2.061 . S
Co47 O53 2.052 . S
Co47 O55 2.135 . S
O48 Co47 2.061 . S
O48 C51 1.235 . S
C49 O52 1.238 . S
C49 O53 1.241 . S
C50 O43 1.247 . S
C50 O44 1.261 . S
C51 O46 1.259 . S
C51 O48 1.235 . S
O52 Co42 2.021 . S
O52 C49 1.238 . S
O53 Co47 2.052 . S
O53 C49 1.241 . S
O54 Co42 2.137 . S
O54 C45 1.247 . S
O55 Co42 2.244 . S
O55 C45 1.272 . S
O55 Co47 2.135 . S
Co56 O57 2.216 . S
Co56 O58 2.091 . S
Co56 O60 2.004 . S
Co56 O66 2.021 . S
Co56 O68 2.137 . S
Co56 O69 2.244 . S
O57 Co56 2.216 . S
O57 C64 1.247 . S
O58 Co56 2.091 . S
O58 C64 1.261 . S
C59 O68 1.247 . S
C59 O69 1.272 . S
O60 Co56 2.004 . S
O60 C65 1.259 . S
Co61 O62 2.061 . S
Co61 O67 2.052 . S
Co61 O69 2.135 . S
O62 Co61 2.061 . S
O62 C65 1.235 . S
C63 O66 1.238 . S
C63 O67 1.241 . S
C64 O57 1.247 . S
C64 O58 1.261 . S
C65 O60 1.259 . S
C65 O62 1.235 . S
O66 Co56 2.021 . S
O66 C63 1.238 . S
O67 Co61 2.052 . S
O67 C63 1.241 . S
O68 Co56 2.137 . S
O68 C59 1.247 . S
O69 Co56 2.244 . S
O69 C59 1.272 . S
O69 Co61 2.135 . S
Co70 O71 2.216 . S
Co70 O72 2.091 . S
Co70 O74 2.004 . S
Co70 O80 2.021 . S
Co70 O82 2.137 . S
Co70 O83 2.244 . S
O71 Co70 2.216 . S
O71 C78 1.247 . S
O72 Co70 2.091 . S
O72 C78 1.261 . S
C73 O82 1.247 . S
C73 O83 1.272 . S
O74 Co70 2.004 . S
O74 C79 1.259 . S
Co75 O76 2.061 . S
Co75 O81 2.052 . S
Co75 O83 2.135 . S
O76 Co75 2.061 . S
O76 C79 1.235 . S
C77 O80 1.238 . S
C77 O81 1.241 . S
C78 O71 1.247 . S
C78 O72 1.261 . S
C79 O74 1.259 . S
C79 O76 1.235 . S
O80 Co70 2.021 . S
O80 C77 1.238 . S
O81 Co75 2.052 . S
O81 C77 1.241 . S
O82 Co70 2.137 . S
O82 C73 1.247 . S
O83 Co70 2.244 . S
O83 C73 1.272 . S
O83 Co75 2.135 . S
Co84 O85 2.216 . S
Co84 O86 2.091 . S
Co84 O88 2.004 . S
Co84 O94 2.021 . S
Co84 O96 2.137 . S
Co84 O97 2.244 . S
O85 Co84 2.216 . S
O85 C92 1.247 . S
O86 Co84 2.091 . S
O86 C92 1.261 . S
C87 O96 1.247 . S
C87 O97 1.272 . S
O88 Co84 2.004 . S
O88 C93 1.259 . S
Co89 O90 2.061 . S
Co89 O95 2.052 . S
Co89 O97 2.135 . S
O90 Co89 2.061 . S
O90 C93 1.235 . S
C91 O94 1.238 . S
C91 O95 1.241 . S
C92 O85 1.247 . S
C92 O86 1.261 . S
C93 O88 1.259 . S
C93 O90 1.235 . S
O94 Co84 2.021 . S
O94 C91 1.238 . S
O95 Co89 2.052 . S
O95 C91 1.241 . S
O96 Co84 2.137 . S
O96 C87 1.247 . S
O97 Co84 2.244 . S
O97 C87 1.272 . S
O97 Co89 2.135 . S
Co98 O99 2.216 . S
Co98 O100 2.091 . S
Co98 O102 2.004 1_455 S
Co98 O108 2.021 1_455 S
Co98 O110 2.137 . S
Co98 O111 2.244 1_455 S
O99 Co98 2.216 . S
O99 C106 1.247 . S
O100 Co98 2.091 . S
O100 C106 1.261 . S
C101 O110 1.247 . S
C101 O111 1.272 1_455 S
O102 Co98 2.004 1_655 S
O102 C107 1.259 . S
Co103 O104 2.061 . S
Co103 O109 2.052 . S
Co103 O111 2.135 . S
O104 Co103 2.061 . S
O104 C107 1.235 . S
C105 O108 1.238 . S
C105 O109 1.241 . S
C106 O99 1.247 . S
C106 O100 1.261 . S
C107 O102 1.259 . S
C107 O104 1.235 . S
O108 Co98 2.021 1_655 S
O108 C105 1.238 . S
O109 Co103 2.052 . S
O109 C105 1.241 . S
O110 Co98 2.137 . S
O110 C101 1.247 . S
O111 Co98 2.244 1_655 S
O111 C101 1.272 1_655 S
O111 Co103 2.135 . S
Co112 O113 2.216 . S
Co112 O114 2.091 . S
Co112 O116 2.004 1_545 S
Co112 O122 2.021 . S
Co112 O124 2.137 . S
Co112 O125 2.244 . S
O113 Co112 2.216 . S
O113 C120 1.247 . S
O114 Co112 2.091 . S
O114 C120 1.261 . S
C115 O124 1.247 . S
C115 O125 1.272 . S
O116 Co112 2.004 1_565 S
O116 C121 1.259 . S
Co117 O118 2.061 . S
Co117 O123 2.052 . S
Co117 O125 2.135 1_565 S
O118 Co117 2.061 . S
O118 C121 1.235 . S
C119 O122 1.238 . S
C119 O123 1.241 1_545 S
C120 O113 1.247 . S
C120 O114 1.261 . S
C121 O116 1.259 . S
C121 O118 1.235 . S
O122 Co112 2.021 . S
O122 C119 1.238 . S
O123 Co117 2.052 . S
O123 C119 1.241 1_565 S
O124 Co112 2.137 . S
O124 C115 1.247 . S
O125 Co112 2.244 . S
O125 C115 1.272 . S
O125 Co117 2.135 1_545 S
Co126 O127 2.216 . S
Co126 O128 2.091 . S
Co126 O130 2.004 . S
Co126 O136 2.021 . S
Co126 O138 2.137 . S
Co126 O139 2.244 . S
O127 Co126 2.216 . S
O127 C134 1.247 . S
O128 Co126 2.091 . S
O128 C134 1.261 . S
C129 O138 1.247 . S
C129 O139 1.272 . S
O130 Co126 2.004 . S
O130 C135 1.259 . S
Co131 O132 2.061 . S
Co131 O137 2.052 . S
Co131 O139 2.135 . S
O132 Co131 2.061 . S
O132 C135 1.235 . S
C133 O136 1.238 . S
C133 O137 1.241 . S
C134 O127 1.247 . S
C134 O128 1.261 . S
C135 O130 1.259 . S
C135 O132 1.235 . S
O136 Co126 2.021 . S
O136 C133 1.238 . S
O137 Co131 2.052 . S
O137 C133 1.241 . S
O138 Co126 2.137 . S
O138 C129 1.247 . S
O139 Co126 2.244 . S
O139 C129 1.272 . S
O139 Co131 2.135 . S
Co140 O141 2.216 . S
Co140 O142 2.091 . S
Co140 O144 2.004 . S
Co140 O150 2.021 . S
Co140 O152 2.137 . S
Co140 O153 2.244 . S
O141 Co140 2.216 . S
O141 C148 1.247 . S
O142 Co140 2.091 . S
O142 C148 1.261 . S
C143 O152 1.247 . S
C143 O153 1.272 . S
O144 Co140 2.004 . S
O144 C149 1.259 . S
Co145 O146 2.061 . S
Co145 O151 2.052 . S
Co145 O153 2.135 . S
O146 Co145 2.061 . S
O146 C149 1.235 . S
C147 O150 1.238 . S
C147 O151 1.241 . S
C148 O141 1.247 . S
C148 O142 1.261 . S
C149 O144 1.259 . S
C149 O146 1.235 . S
O150 Co140 2.021 . S
O150 C147 1.238 . S
O151 Co145 2.052 . S
O151 C147 1.241 . S
O152 Co140 2.137 . S
O152 C143 1.247 . S
O153 Co140 2.244 . S
O153 C143 1.272 . S
O153 Co145 2.135 . S
Co154 O155 2.216 . S
Co154 O156 2.091 1_556 S
Co154 O158 2.002 . S
Co154 O164 2.021 1_556 S
Co154 O166 2.137 . S
Co154 O167 2.244 . S
O155 Co154 2.216 . S
O155 C162 1.247 . S
O156 Co154 2.091 1_554 S
O156 C162 1.261 1_554 S
C157 O166 1.247 . S
C157 O167 1.272 . S
O158 Co154 2.002 . S
O158 C163 1.256 1_556 S
Co159 O160 2.061 1_556 S
Co159 O165 2.052 1_556 S
Co159 O167 2.135 . S
O160 Co159 2.061 1_554 S
O160 C163 1.235 . S
C161 O164 1.238 . S
C161 O165 1.241 . S
C162 O155 1.247 . S
C162 O156 1.261 1_556 S
C163 O158 1.256 1_554 S
C163 O160 1.235 . S
O164 Co154 2.021 1_554 S
O164 C161 1.238 . S
O165 Co159 2.052 1_554 S
O165 C161 1.241 . S
O166 Co154 2.137 . S
O166 C157 1.247 . S
O167 Co154 2.244 . S
O167 C157 1.272 . S
O167 Co159 2.135 . S
Co168 O169 2.216 . S
Co168 O170 2.091 . S
Co168 O172 2.004 . S
Co168 O178 2.021 . S
Co168 O180 2.137 . S
Co168 O181 2.244 . S
O169 Co168 2.216 . S
O169 C176 1.247 . S
O170 Co168 2.091 . S
O170 C176 1.261 . S
C171 O180 1.247 . S
C171 O181 1.272 . S
O172 Co168 2.004 . S
O172 C177 1.259 . S
Co173 O174 2.061 . S
Co173 O179 2.052 . S
Co173 O181 2.135 . S
O174 Co173 2.061 . S
O174 C177 1.235 . S
C175 O178 1.238 . S
C175 O179 1.241 . S
C176 O169 1.247 . S
C176 O170 1.261 . S
C177 O172 1.259 . S
C177 O174 1.235 . S
O178 Co168 2.021 . S
O178 C175 1.238 . S
O179 Co173 2.052 . S
O179 C175 1.241 . S
O180 Co168 2.137 . S
O180 C171 1.247 . S
O181 Co168 2.244 . S
O181 C171 1.272 . S
O181 Co173 2.135 . S
Co182 O183 2.216 . S
Co182 O184 2.091 . S
Co182 O186 2.004 . S
Co182 O192 2.021 . S
Co182 O194 2.137 . S
Co182 O195 2.244 . S
O183 Co182 2.216 . S
O183 C190 1.247 . S
O184 Co182 2.091 . S
O184 C190 1.261 . S
C185 O194 1.247 . S
C185 O195 1.272 . S
O186 Co182 2.004 . S
O186 C191 1.259 . S
Co187 O188 2.061 . S
Co187 O193 2.052 . S
Co187 O195 2.135 . S
O188 Co187 2.061 . S
O188 C191 1.235 . S
C189 O192 1.238 . S
C189 O193 1.241 . S
C190 O183 1.247 . S
C190 O184 1.261 . S
C191 O186 1.259 . S
C191 O188 1.235 . S
O192 Co182 2.021 . S
O192 C189 1.238 . S
O193 Co187 2.052 . S
O193 C189 1.241 . S
O194 Co182 2.137 . S
O194 C185 1.247 . S
O195 Co182 2.244 . S
O195 C185 1.272 . S
O195 Co187 2.135 . S
Co196 O197 2.216 . S
Co196 O198 2.091 . S
Co196 O200 2.004 . S
Co196 O206 2.021 . S
Co196 O208 2.137 . S
Co196 O209 2.244 . S
O197 Co196 2.216 . S
O197 C204 1.247 . S
O198 Co196 2.091 . S
O198 C204 1.261 . S
C199 O208 1.247 . S
C199 O209 1.272 . S
O200 Co196 2.004 . S
O200 C205 1.259 . S
Co201 O202 2.061 . S
Co201 O207 2.052 . S
Co201 O209 2.135 . S
O202 Co201 2.061 . S
O202 C205 1.235 . S
C203 O206 1.238 . S
C203 O207 1.241 . S
C204 O197 1.247 . S
C204 O198 1.261 . S
C205 O200 1.259 . S
C205 O202 1.235 . S
O206 Co196 2.021 . S
O206 C203 1.238 . S
O207 Co201 2.052 . S
O207 C203 1.241 . S
O208 Co196 2.137 . S
O208 C199 1.247 . S
O209 Co196 2.244 . S
O209 C199 1.272 . S
O209 Co201 2.135 . S
Co210 O211 2.216 . S
Co210 O212 2.091 . S
Co210 O214 2.004 . S
Co210 O220 2.021 . S
Co210 O222 2.137 . S
Co210 O223 2.244 . S
O211 Co210 2.216 . S
O211 C218 1.247 . S
O212 Co210 2.091 . S
O212 C218 1.261 . S
C213 O222 1.247 . S
C213 O223 1.272 . S
O214 Co210 2.004 . S
O214 C219 1.259 . S
Co215 O216 2.061 . S
Co215 O221 2.052 . S
Co215 O223 2.135 . S
O216 Co215 2.061 . S
O216 C219 1.235 . S
C217 O220 1.238 . S
C217 O221 1.241 . S
C218 O211 1.247 . S
C218 O212 1.261 . S
C219 O214 1.259 . S
C219 O216 1.235 . S
O220 Co210 2.021 . S
O220 C217 1.238 . S
O221 Co215 2.052 . S
O221 C217 1.241 . S
O222 Co210 2.137 . S
O222 C213 1.247 . S
O223 Co210 2.244 . S
O223 C213 1.272 . S
O223 Co215 2.135 . S
Co224 O225 2.216 . S
Co224 O226 2.091 . S
Co224 O228 2.004 1_545 S
Co224 O234 2.021 . S
Co224 O236 2.137 . S
Co224 O237 2.244 . S
O225 Co224 2.216 . S
O225 C232 1.247 . S
O226 Co224 2.091 . S
O226 C232 1.261 . S
C227 O236 1.247 . S
C227 O237 1.272 . S
O228 Co224 2.004 1_565 S
O228 C233 1.259 . S
Co229 O230 2.061 . S
Co229 O235 2.052 1_565 S
Co229 O237 2.135 1_565 S
O230 Co229 2.061 . S
O230 C233 1.235 . S
C231 O234 1.238 . S
C231 O235 1.241 . S
C232 O225 1.247 . S
C232 O226 1.261 . S
C233 O228 1.259 . S
C233 O230 1.235 . S
O234 Co224 2.021 . S
O234 C231 1.238 . S
O235 Co229 2.052 1_545 S
O235 C231 1.241 . S
O236 Co224 2.137 . S
O236 C227 1.247 . S
O237 Co224 2.244 . S
O237 C227 1.272 . S
O237 Co229 2.135 1_545 S
Co238 O239 2.216 . S
Co238 O240 2.091 . S
Co238 O242 2.004 . S
Co238 O248 2.021 . S
Co238 O250 2.137 . S
Co238 O251 2.244 . S
O239 Co238 2.216 . S
O239 C246 1.247 . S
O240 Co238 2.091 . S
O240 C246 1.261 . S
C241 O250 1.247 . S
C241 O251 1.272 . S
O242 Co238 2.004 . S
O242 C247 1.259 . S
Co243 O244 2.061 . S
Co243 O249 2.052 . S
Co243 O251 2.135 . S
O244 Co243 2.061 . S
O244 C247 1.235 . S
C245 O248 1.238 . S
C245 O249 1.241 . S
C246 O239 1.247 . S
C246 O240 1.261 . S
C247 O242 1.259 . S
C247 O244 1.235 . S
O248 Co238 2.021 . S
O248 C245 1.238 . S
O249 Co243 2.052 . S
O249 C245 1.241 . S
O250 Co238 2.137 . S
O250 C241 1.247 . S
O251 Co238 2.244 . S
O251 C241 1.272 . S
O251 Co243 2.135 . S
Co252 O253 2.216 . S
Co252 O254 2.091 . S
Co252 O256 2.004 . S
Co252 O262 2.021 . S
Co252 O264 2.137 . S
Co252 O265 2.244 . S
O253 Co252 2.216 . S
O253 C260 1.247 . S
O254 Co252 2.091 . S
O254 C260 1.261 . S
C255 O264 1.247 . S
C255 O265 1.272 . S
O256 Co252 2.004 . S
O256 C261 1.259 . S
Co257 O258 2.061 . S
Co257 O263 2.052 . S
Co257 O265 2.135 . S
O258 Co257 2.061 . S
O258 C261 1.235 . S
C259 O262 1.238 . S
C259 O263 1.241 . S
C260 O253 1.247 . S
C260 O254 1.261 . S
C261 O256 1.259 . S
C261 O258 1.235 . S
O262 Co252 2.021 . S
O262 C259 1.238 . S
O263 Co257 2.052 . S
O263 C259 1.241 . S
O264 Co252 2.137 . S
O264 C255 1.247 . S
O265 Co252 2.244 . S
O265 C255 1.272 . S
O265 Co257 2.135 . S
Co266 O267 2.216 . S
Co266 O268 2.091 . S
Co266 O270 2.004 . S
Co266 O276 2.021 . S
Co266 O278 2.137 . S
Co266 O279 2.244 . S
O267 Co266 2.216 . S
O267 C274 1.247 . S
O268 Co266 2.091 . S
O268 C274 1.261 . S
C269 O278 1.247 . S
C269 O279 1.272 . S
O270 Co266 2.004 . S
O270 C275 1.259 . S
Co271 O272 2.061 . S
Co271 O277 2.052 . S
Co271 O279 2.135 . S
O272 Co271 2.061 . S
O272 C275 1.235 . S
C273 O276 1.238 . S
C273 O277 1.241 . S
C274 O267 1.247 . S
C274 O268 1.261 . S
C275 O270 1.259 . S
C275 O272 1.235 . S
O276 Co266 2.021 . S
O276 C273 1.238 . S
O277 Co271 2.052 . S
O277 C273 1.241 . S
O278 Co266 2.137 . S
O278 C269 1.247 . S
O279 Co266 2.244 . S
O279 C269 1.272 . S
O279 Co271 2.135 . S
Co280 O281 2.216 . S
Co280 O282 2.091 . S
Co280 O284 2.004 . S
Co280 O290 2.021 . S
Co280 O292 2.137 1_554 S
Co280 O293 2.244 1_554 S
O281 Co280 2.216 . S
O281 C288 1.247 . S
O282 Co280 2.091 . S
O282 C288 1.261 . S
C283 O292 1.247 . S
C283 O293 1.272 . S
O284 Co280 2.004 . S
O284 C289 1.259 . S
Co285 O286 2.061 . S
Co285 O291 2.052 . S
Co285 O293 2.135 1_554 S
O286 Co285 2.061 . S
O286 C289 1.235 . S
C287 O290 1.238 . S
C287 O291 1.241 . S
C288 O281 1.247 . S
C288 O282 1.261 . S
C289 O284 1.259 . S
C289 O286 1.235 . S
O290 Co280 2.021 . S
O290 C287 1.238 . S
O291 Co285 2.052 . S
O291 C287 1.241 . S
O292 Co280 2.137 1_556 S
O292 C283 1.247 . S
O293 Co280 2.244 1_556 S
O293 C283 1.272 . S
O293 Co285 2.135 1_556 S
Co294 O295 2.216 . S
Co294 O296 2.091 . S
Co294 O298 2.004 . S
Co294 O304 2.021 . S
Co294 O306 2.137 . S
Co294 O307 2.244 . S
O295 Co294 2.216 . S
O295 C302 1.247 . S
O296 Co294 2.091 . S
O296 C302 1.261 . S
C297 O306 1.247 . S
C297 O307 1.272 . S
O298 Co294 2.004 . S
O298 C303 1.259 . S
Co299 O300 2.061 . S
Co299 O305 2.052 . S
Co299 O307 2.135 . S
O300 Co299 2.061 . S
O300 C303 1.235 . S
C301 O304 1.238 . S
C301 O305 1.241 . S
C302 O295 1.247 . S
C302 O296 1.261 . S
C303 O298 1.259 . S
C303 O300 1.235 . S
O304 Co294 2.021 . S
O304 C301 1.238 . S
O305 Co299 2.052 . S
O305 C301 1.241 . S
O306 Co294 2.137 . S
O306 C297 1.247 . S
O307 Co294 2.244 . S
O307 C297 1.272 . S
O307 Co299 2.135 . S
Co308 O309 2.216 . S
Co308 O310 2.091 . S
Co308 O312 2.004 . S
Co308 O318 2.021 . S
Co308 O320 2.137 . S
Co308 O321 2.244 . S
O309 Co308 2.216 . S
O309 C316 1.247 . S
O310 Co308 2.091 . S
O310 C316 1.261 . S
C311 O320 1.247 . S
C311 O321 1.272 . S
O312 Co308 2.004 . S
O312 C317 1.259 . S
Co313 O314 2.061 . S
Co313 O319 2.052 . S
Co313 O321 2.135 . S
O314 Co313 2.061 . S
O314 C317 1.235 . S
C315 O318 1.238 . S
C315 O319 1.241 . S
C316 O309 1.247 . S
C316 O310 1.261 . S
C317 O312 1.259 . S
C317 O314 1.235 . S
O318 Co308 2.021 . S
O318 C315 1.238 . S
O319 Co313 2.052 . S
O319 C315 1.241 . S
O320 Co308 2.137 . S
O320 C311 1.247 . S
O321 Co308 2.244 . S
O321 C311 1.272 . S
O321 Co313 2.135 . S
Co322 O323 2.216 . S
Co322 O324 2.091 . S
Co322 O326 2.004 . S
Co322 O332 2.021 . S
Co322 O334 2.137 . S
Co322 O335 2.244 . S
O323 Co322 2.216 . S
O323 C330 1.247 . S
O324 Co322 2.091 . S
O324 C330 1.261 . S
C325 O334 1.247 . S
C325 O335 1.272 . S
O326 Co322 2.004 . S
O326 C331 1.259 . S
Co327 O328 2.061 . S
Co327 O333 2.052 . S
Co327 O335 2.135 . S
O328 Co327 2.061 . S
O328 C331 1.235 . S
C329 O332 1.238 . S
C329 O333 1.241 . S
C330 O323 1.247 . S
C330 O324 1.261 . S
C331 O326 1.259 . S
C331 O328 1.235 . S
O332 Co322 2.021 . S
O332 C329 1.238 . S
O333 Co327 2.052 . S
O333 C329 1.241 . S
O334 Co322 2.137 . S
O334 C325 1.247 . S
O335 Co322 2.244 . S
O335 C325 1.272 . S
O335 Co327 2.135 . S
Eu336 N365 2.600 . S
Eu336 N371 2.562 . S
Eu336 O380 2.462 . S
Eu336 O381 2.373 . S
Eu336 O383 2.432 . S
Eu336 O384 2.291 . S
Eu336 O388 2.335 . S
Eu336 O391 2.372 . S
Eu336 C400 2.787 . S
C337 N338 1.365 . S
C337 C340 1.405 . S
C337 C344 1.448 1_556 S
N338 C337 1.365 . S
N338 C341 1.319 . S
N338 Eu347 2.600 1_566 S
C339 C341 1.397 . S
C339 C342 1.367 . S
C339 H359 0.931 . S
C340 C337 1.405 . S
C340 C342 1.403 . S
C340 C346 1.439 . S
C341 N338 1.319 . S
C341 C339 1.397 . S
C341 H352 0.919 1_565 S
C342 C339 1.367 . S
C342 C340 1.403 . S
C342 H363 0.929 . S
C343 C344 1.430 . S
C343 C345 1.387 1_554 S
C343 C349 1.404 . S
C344 C337 1.448 1_554 S
C344 C343 1.430 . S
C344 N348 1.351 . S
C345 C343 1.387 1_556 S
C345 C346 1.374 . S
C345 H360 0.931 1_556 S
C346 C340 1.439 . S
C346 C345 1.374 . S
C346 H361 0.931 . S
Eu347 N338 2.600 1_544 S
Eu347 N348 2.562 1_545 S
Eu347 O382 2.335 1_655 S
Eu347 O385 2.372 1_654 S
Eu347 O386 2.462 . S
Eu347 O387 2.373 1_645 S
Eu347 O389 2.432 1_554 S
Eu347 O390 2.291 1_655 S
Eu347 C411 2.787 . S
N348 C344 1.351 . S
N348 Eu347 2.562 1_565 S
N348 C350 1.325 . S
C349 C343 1.404 . S
C349 C351 1.366 . S
C349 H357 0.930 . S
C350 N348 1.325 . S
C350 C351 1.416 . S
C350 H356 0.929 . S
C351 C349 1.366 . S
C351 C350 1.416 . S
C351 H353 0.930 . S
H352 C341 0.919 1_545 S
H353 C351 0.930 . S
H354 C369 0.930 . S
H355 C376 0.930 1_556 S
H356 C350 0.929 . S
H357 C349 0.930 . S
H358 C372 0.929 . S
H359 C339 0.931 . S
H360 C345 0.931 1_554 S
H361 C346 0.931 . S
H362 C367 0.931 . S
H363 C342 0.929 . S
H364 C375 0.930 . S
N365 Eu336 2.600 . S
N365 C366 1.365 . S
N365 C369 1.319 . S
C366 N365 1.365 . S
C366 C368 1.405 . S
C366 C374 1.448 . S
C367 H362 0.931 . S
C367 C369 1.397 . S
C367 C370 1.367 . S
C368 C366 1.405 . S
C368 C370 1.403 . S
C368 C401 1.439 . S
C369 H354 0.930 . S
C369 N365 1.319 . S
C369 C367 1.397 . S
C370 C367 1.367 . S
C370 C368 1.403 . S
C370 H377 0.929 . S
N371 Eu336 2.562 . S
N371 C372 1.325 . S
N371 C374 1.351 . S
C372 H358 0.929 . S
C372 N371 1.325 . S
C372 C376 1.416 . S
C373 C374 1.430 . S
C373 C375 1.404 . S
C373 C402 1.387 . S
C374 C366 1.448 . S
C374 N371 1.351 . S
C374 C373 1.430 . S
C375 H364 0.930 . S
C375 C373 1.404 . S
C375 C376 1.366 . S
C376 H355 0.930 1_554 S
C376 C372 1.416 . S
C376 C375 1.366 . S
H377 C370 0.929 . S
H378 C401 0.931 . S
H379 C402 0.931 . S
O380 Eu336 2.462 . S
O380 C400 1.252 . S
O381 Eu336 2.373 . S
O381 C392 1.249 . S
O382 Eu347 2.335 1_455 S
O382 C392 1.264 . S
O383 Eu336 2.432 . S
O383 C400 1.268 . S
O384 Eu336 2.291 . S
O384 C399 1.255 1_554 S
O385 Eu347 2.372 1_456 S
O385 C399 1.257 . S
O386 Eu347 2.462 . S
O386 C411 1.252 . S
O387 Eu347 2.373 1_465 S
O387 C403 1.249 . S
O388 Eu336 2.335 . S
O388 C403 1.264 1_545 S
O389 Eu347 2.432 1_556 S
O389 C411 1.268 1_556 S
O390 Eu347 2.291 1_455 S
O390 C410 1.255 . S
O391 Eu336 2.372 . S
O391 C410 1.257 . S
C392 O381 1.249 . S
C392 O382 1.264 . S
C393 C396 1.382 . S
C393 C398 1.390 . S
C393 C400 1.506 . S
C394 C395 1.398 . S
C394 C398 1.392 . S
C395 C394 1.398 . S
C395 C397 1.372 . S
C395 H412 0.931 . S
C396 C393 1.382 . S
C396 C397 1.390 . S
C396 H413 0.931 . S
C397 C395 1.372 . S
C397 C396 1.390 . S
C397 H414 0.929 . S
C398 C393 1.390 . S
C398 C394 1.392 . S
C398 H415 0.930 . S
C399 O384 1.255 1_556 S
C399 O385 1.257 . S
C400 Eu336 2.787 . S
C400 O380 1.252 . S
C400 O383 1.268 . S
C400 C393 1.506 . S
C401 C368 1.439 . S
C401 H378 0.931 . S
C401 C402 1.374 . S
C402 C373 1.387 . S
C402 H379 0.931 . S
C402 C401 1.374 . S
C403 O387 1.249 . S
C403 O388 1.264 1_565 S
C404 C407 1.382 1_554 S
C404 C408 1.390 . S
C404 C411 1.506 . S
C405 C406 1.398 1_554 S
C405 C408 1.392 . S
C406 C405 1.398 1_556 S
C406 C409 1.372 . S
C406 H416 0.931 . S
C407 C404 1.382 1_556 S
C407 C409 1.390 . S
C407 H417 0.931 . S
C408 C404 1.390 . S
C408 C405 1.392 . S
C408 H418 0.930 . S
C409 C406 1.372 . S
C409 C407 1.390 . S
C409 H419 0.929 . S
C410 O390 1.255 . S
C410 O391 1.257 . S
C411 Eu347 2.787 . S
C411 O386 1.252 . S
C411 O389 1.268 1_554 S
C411 C404 1.506 . S
H412 C395 0.931 . S
H413 C396 0.931 . S
H414 C397 0.929 . S
H415 C398 0.930 . S
H416 C406 0.931 . S
H417 C407 0.931 . S
H418 C408 0.930 . S
H419 C409 0.929 . S
Eu420 N449 2.600 . S
Eu420 N455 2.562 . S
Eu420 O464 2.462 . S
Eu420 O465 2.373 . S
Eu420 O467 2.432 . S
Eu420 O468 2.291 . S
Eu420 O472 2.335 . S
Eu420 O475 2.372 . S
Eu420 C484 2.787 . S
C421 N422 1.365 . S
C421 C424 1.405 . S
C421 C428 1.448 . S
N422 C421 1.365 . S
N422 C425 1.319 . S
N422 Eu431 2.600 . S
C423 C425 1.397 . S
C423 C426 1.367 . S
C423 H443 0.931 . S
C424 C421 1.405 . S
C424 C426 1.403 . S
C424 C430 1.439 . S
C425 N422 1.319 . S
C425 C423 1.397 . S
C425 H436 0.930 . S
C426 C423 1.367 . S
C426 C424 1.403 . S
C426 H447 0.929 . S
C427 C428 1.430 . S
C427 C429 1.387 . S
C427 C433 1.404 . S
C428 C421 1.448 . S
C428 C427 1.430 . S
C428 N432 1.351 . S
C429 C427 1.387 . S
C429 C430 1.374 . S
C429 H444 0.931 . S
C430 C424 1.439 . S
C430 C429 1.374 . S
C430 H445 0.931 . S
Eu431 N422 2.600 . S
Eu431 N432 2.562 . S
Eu431 O466 2.335 . S
Eu431 O469 2.372 . S
Eu431 O470 2.462 . S
Eu431 O471 2.373 . S
Eu431 O473 2.432 . S
Eu431 O474 2.291 . S
Eu431 C495 2.787 . S
N432 C428 1.351 . S
N432 Eu431 2.562 . S
N432 C434 1.325 . S
C433 C427 1.404 . S
C433 C435 1.366 . S
C433 H441 0.930 . S
C434 N432 1.325 . S
C434 C435 1.416 . S
C434 H440 0.929 . S
C435 C433 1.366 . S
C435 C434 1.416 . S
C435 H437 0.930 . S
H436 C425 0.930 . S
H437 C435 0.930 . S
H438 C453 0.930 . S
H439 C460 0.930 . S
H440 C434 0.929 . S
H441 C433 0.930 . S
H442 C456 0.929 . S
H443 C423 0.931 . S
H444 C429 0.931 . S
H445 C430 0.931 . S
H446 C451 0.931 . S
H447 C426 0.929 . S
H448 C459 0.930 . S
N449 Eu420 2.600 . S
N449 C450 1.365 . S
N449 C453 1.319 . S
C450 N449 1.365 . S
C450 C452 1.405 . S
C450 C458 1.448 . S
C451 H446 0.931 . S
C451 C453 1.397 . S
C451 C454 1.367 . S
C452 C450 1.405 . S
C452 C454 1.403 . S
C452 C485 1.439 . S
C453 H438 0.930 . S
C453 N449 1.319 . S
C453 C451 1.397 . S
C454 C451 1.367 . S
C454 C452 1.403 . S
C454 H461 0.929 . S
N455 Eu420 2.562 . S
N455 C456 1.325 . S
N455 C458 1.351 . S
C456 H442 0.929 . S
C456 N455 1.325 . S
C456 C460 1.416 . S
C457 C458 1.430 . S
C457 C459 1.404 . S
C457 C486 1.387 . S
C458 C450 1.448 . S
C458 N455 1.351 . S
C458 C457 1.430 . S
C459 H448 0.930 . S
C459 C457 1.404 . S
C459 C460 1.366 . S
C460 H439 0.930 . S
C460 C456 1.416 . S
C460 C459 1.366 . S
H461 C454 0.929 . S
H462 C485 0.931 . S
H463 C486 0.931 . S
O464 Eu420 2.462 . S
O464 C484 1.252 . S
O465 Eu420 2.373 . S
O465 C476 1.249 . S
O466 Eu431 2.335 . S
O466 C476 1.264 . S
O467 Eu420 2.432 . S
O467 C484 1.268 . S
O468 Eu420 2.291 . S
O468 C483 1.255 . S
O469 Eu431 2.372 . S
O469 C483 1.257 . S
O470 Eu431 2.462 . S
O470 C495 1.252 . S
O471 Eu431 2.373 . S
O471 C487 1.249 . S
O472 Eu420 2.335 . S
O472 C487 1.264 . S
O473 Eu431 2.432 . S
O473 C495 1.268 . S
O474 Eu431 2.291 . S
O474 C494 1.255 . S
O475 Eu420 2.372 . S
O475 C494 1.257 . S
C476 O465 1.249 . S
C476 O466 1.264 . S
C477 C480 1.382 . S
C477 C482 1.390 . S
C477 C484 1.506 . S
C478 C479 1.398 . S
C478 C482 1.392 . S
C479 C478 1.398 . S
C479 C481 1.372 . S
C479 H496 0.931 . S
C480 C477 1.382 . S
C480 C481 1.390 . S
C480 H497 0.931 . S
C481 C479 1.372 . S
C481 C480 1.390 . S
C481 H498 0.929 . S
C482 C477 1.390 . S
C482 C478 1.392 . S
C482 H499 0.930 . S
C483 O468 1.255 . S
C483 O469 1.257 . S
C484 Eu420 2.787 . S
C484 O464 1.252 . S
C484 O467 1.268 . S
C484 C477 1.506 . S
C485 C452 1.439 . S
C485 H462 0.931 . S
C485 C486 1.374 . S
C486 C457 1.387 . S
C486 H463 0.931 . S
C486 C485 1.374 . S
C487 O471 1.249 . S
C487 O472 1.264 . S
C488 C491 1.382 . S
C488 C492 1.390 . S
C488 C495 1.506 . S
C489 C490 1.398 . S
C489 C492 1.392 . S
C490 C489 1.398 . S
C490 C493 1.372 . S
C490 H500 0.931 . S
C491 C488 1.382 . S
C491 C493 1.390 . S
C491 H501 0.931 . S
C492 C488 1.390 . S
C492 C489 1.392 . S
C492 H502 0.930 . S
C493 C490 1.372 . S
C493 C491 1.390 . S
C493 H503 0.929 . S
C494 O474 1.255 . S
C494 O475 1.257 . S
C495 Eu431 2.787 . S
C495 O470 1.252 . S
C495 O473 1.268 . S
C495 C488 1.506 . S
H496 C479 0.931 . S
H497 C480 0.931 . S
H498 C481 0.929 . S
H499 C482 0.930 . S
H500 C490 0.931 . S
H501 C491 0.931 . S
H502 C492 0.930 . S
H503 C493 0.929 . S
Eu504 N533 2.579 1_545 S
Eu504 N539 2.562 1_545 S
Eu504 O548 2.462 . S
Eu504 O549 2.373 1_545 S
Eu504 O551 2.432 . S
Eu504 O552 2.291 . S
Eu504 O556 2.335 . S
Eu504 O559 2.372 . S
Eu504 C568 2.787 . S
C505 N506 1.365 . S
C505 C508 1.405 . S
C505 C512 1.448 . S
N506 C505 1.365 . S
N506 C509 1.319 . S
N506 Eu515 2.600 . S
C507 C509 1.397 . S
C507 C510 1.367 . S
C507 H527 0.931 . S
C508 C505 1.405 . S
C508 C510 1.403 . S
C508 C514 1.439 . S
C509 N506 1.319 . S
C509 C507 1.397 . S
C509 H520 0.930 . S
C510 C507 1.367 . S
C510 C508 1.403 . S
C510 H531 0.929 . S
C511 C512 1.430 . S
C511 C513 1.387 . S
C511 C517 1.404 . S
C512 C505 1.448 . S
C512 C511 1.430 . S
C512 N516 1.351 . S
C513 C511 1.387 . S
C513 C514 1.374 . S
C513 H528 0.931 . S
C514 C508 1.439 . S
C514 C513 1.374 . S
C514 H529 0.931 . S
Eu515 N506 2.600 . S
Eu515 N516 2.562 . S
Eu515 O550 2.335 1_545 S
Eu515 O553 2.372 . S
Eu515 O554 2.462 . S
Eu515 O555 2.373 . S
Eu515 O557 2.432 . S
Eu515 O558 2.291 . S
Eu515 C579 2.787 . S
N516 C512 1.351 . S
N516 Eu515 2.562 . S
N516 C518 1.325 . S
C517 C511 1.404 . S
C517 C519 1.366 . S
C517 H525 0.930 . S
C518 N516 1.325 . S
C518 C519 1.416 . S
C518 H524 0.929 . S
C519 C517 1.366 . S
C519 C518 1.416 . S
C519 H521 0.930 . S
H520 C509 0.930 . S
H521 C519 0.930 . S
H522 C537 0.930 . S
H523 C544 0.930 . S
H524 C518 0.929 . S
H525 C517 0.930 . S
H526 C540 0.929 . S
H527 C507 0.931 . S
H528 C513 0.931 . S
H529 C514 0.931 . S
H530 C535 0.931 . S
H531 C510 0.929 . S
H532 C543 0.930 . S
N533 Eu504 2.579 1_565 S
N533 C534 1.389 . S
N533 C537 1.320 1_565 S
C534 N533 1.389 . S
C534 C536 1.405 . S
C534 C542 1.448 . S
C535 H530 0.931 . S
C535 C537 1.397 1_565 S
C535 C538 1.367 . S
C536 C534 1.405 . S
C536 C538 1.403 . S
C536 C569 1.439 . S
C537 H522 0.930 . S
C537 N533 1.320 1_545 S
C537 C535 1.397 1_545 S
C538 C535 1.367 . S
C538 C536 1.403 . S
C538 H545 0.929 . S
N539 Eu504 2.562 1_565 S
N539 C540 1.325 . S
N539 C542 1.351 . S
C540 H526 0.929 . S
C540 N539 1.325 . S
C540 C544 1.416 . S
C541 C542 1.430 . S
C541 C543 1.404 . S
C541 C570 1.387 . S
C542 C534 1.448 . S
C542 N539 1.351 . S
C542 C541 1.430 . S
C543 H532 0.930 . S
C543 C541 1.404 . S
C543 C544 1.366 . S
C544 H523 0.930 . S
C544 C540 1.416 . S
C544 C543 1.366 . S
H545 C538 0.929 . S
H546 C569 0.931 . S
H547 C570 0.931 . S
O548 Eu504 2.462 . S
O548 C568 1.252 . S
O549 Eu504 2.373 1_565 S
O549 C560 1.249 . S
O550 Eu515 2.335 1_565 S
O550 C560 1.264 . S
O551 Eu504 2.432 . S
O551 C568 1.268 . S
O552 Eu504 2.291 . S
O552 C567 1.255 . S
O553 Eu515 2.372 . S
O553 C567 1.257 . S
O554 Eu515 2.462 . S
O554 C579 1.252 . S
O555 Eu515 2.373 . S
O555 C571 1.249 . S
O556 Eu504 2.335 . S
O556 C571 1.264 . S
O557 Eu515 2.432 . S
O557 C579 1.268 . S
O558 Eu515 2.291 . S
O558 C578 1.255 . S
O559 Eu504 2.372 . S
O559 C578 1.257 . S
C560 O549 1.249 . S
C560 O550 1.264 . S
C561 C564 1.382 . S
C561 C566 1.390 . S
C561 C568 1.506 . S
C562 C563 1.398 . S
C562 C566 1.392 . S
C563 C562 1.398 . S
C563 C565 1.372 . S
C563 H580 0.931 . S
C564 C561 1.382 . S
C564 C565 1.390 . S
C564 H581 0.931 . S
C565 C563 1.372 . S
C565 C564 1.390 . S
C565 H582 0.929 . S
C566 C561 1.390 . S
C566 C562 1.392 . S
C566 H583 0.930 . S
C567 O552 1.255 . S
C567 O553 1.257 . S
C568 Eu504 2.787 . S
C568 O548 1.252 . S
C568 O551 1.268 . S
C568 C561 1.506 . S
C569 C536 1.439 . S
C569 H546 0.931 . S
C569 C570 1.374 . S
C570 C541 1.387 . S
C570 H547 0.931 . S
C570 C569 1.374 . S
C571 O555 1.249 . S
C571 O556 1.264 . S
C572 C575 1.382 . S
C572 C576 1.390 . S
C572 C579 1.506 1_565 S
C573 C574 1.398 . S
C573 C576 1.392 . S
C574 C573 1.398 . S
C574 C577 1.372 . S
C574 H584 0.931 . S
C575 C572 1.382 . S
C575 C577 1.390 . S
C575 H585 0.931 . S
C576 C572 1.390 . S
C576 C573 1.392 . S
C576 H586 0.930 . S
C577 C574 1.372 . S
C577 C575 1.390 . S
C577 H587 0.929 . S
C578 O558 1.255 . S
C578 O559 1.257 . S
C579 Eu515 2.787 . S
C579 O554 1.252 . S
C579 O557 1.268 . S
C579 C572 1.506 1_545 S
H580 C563 0.931 . S
H581 C564 0.931 . S
H582 C565 0.929 . S
H583 C566 0.930 . S
H584 C574 0.931 . S
H585 C575 0.931 . S
H586 C576 0.930 . S
H587 C577 0.929 . S
Eu588 N617 2.600 . S
Eu588 N623 2.562 . S
Eu588 O632 2.462 . S
Eu588 O633 2.373 . S
Eu588 O635 2.432 . S
Eu588 O636 2.291 . S
Eu588 O640 2.335 . S
Eu588 O643 2.372 . S
Eu588 C652 2.787 . S
C589 N590 1.365 . S
C589 C592 1.405 . S
C589 C596 1.448 . S
N590 C589 1.365 . S
N590 C593 1.319 . S
N590 Eu599 2.600 . S
C591 C593 1.397 . S
C591 C594 1.367 . S
C591 H611 0.931 . S
C592 C589 1.405 . S
C592 C594 1.403 . S
C592 C598 1.439 . S
C593 N590 1.319 . S
C593 C591 1.397 . S
C593 H604 0.930 . S
C594 C591 1.367 . S
C594 C592 1.403 . S
C594 H615 0.929 . S
C595 C596 1.430 . S
C595 C597 1.387 . S
C595 C601 1.404 . S
C596 C589 1.448 . S
C596 C595 1.430 . S
C596 N600 1.351 . S
C597 C595 1.387 . S
C597 C598 1.374 . S
C597 H612 0.931 . S
C598 C592 1.439 . S
C598 C597 1.374 . S
C598 H613 0.931 . S
Eu599 N590 2.600 . S
Eu599 N600 2.562 . S
Eu599 O634 2.335 . S
Eu599 O637 2.372 . S
Eu599 O638 2.462 . S
Eu599 O639 2.373 . S
Eu599 O641 2.432 . S
Eu599 O642 2.291 . S
Eu599 C663 2.787 . S
N600 C596 1.351 . S
N600 Eu599 2.562 . S
N600 C602 1.325 . S
C601 C595 1.404 . S
C601 C603 1.366 . S
C601 H609 0.930 . S
C602 N600 1.325 . S
C602 C603 1.416 . S
C602 H608 0.929 . S
C603 C601 1.366 . S
C603 C602 1.416 . S
C603 H605 0.930 . S
H604 C593 0.930 . S
H605 C603 0.930 . S
H606 C621 0.930 . S
H607 C628 0.930 . S
H608 C602 0.929 . S
H609 C601 0.930 . S
H610 C624 0.929 . S
H611 C591 0.931 . S
H612 C597 0.931 . S
H613 C598 0.931 . S
H614 C619 0.931 . S
H615 C594 0.929 . S
H616 C627 0.930 . S
N617 Eu588 2.600 . S
N617 C618 1.365 . S
N617 C621 1.319 . S
C618 N617 1.365 . S
C618 C620 1.405 . S
C618 C626 1.448 . S
C619 H614 0.931 . S
C619 C621 1.397 . S
C619 C622 1.367 . S
C620 C618 1.405 . S
C620 C622 1.403 . S
C620 C653 1.439 . S
C621 H606 0.930 . S
C621 N617 1.319 . S
C621 C619 1.397 . S
C622 C619 1.367 . S
C622 C620 1.403 . S
C622 H629 0.929 . S
N623 Eu588 2.562 . S
N623 C624 1.325 . S
N623 C626 1.351 . S
C624 H610 0.929 . S
C624 N623 1.325 . S
C624 C628 1.416 . S
C625 C626 1.430 . S
C625 C627 1.404 . S
C625 C654 1.387 . S
C626 C618 1.448 . S
C626 N623 1.351 . S
C626 C625 1.430 . S
C627 H616 0.930 . S
C627 C625 1.404 . S
C627 C628 1.366 . S
C628 H607 0.930 . S
C628 C624 1.416 . S
C628 C627 1.366 . S
H629 C622 0.929 . S
H630 C653 0.931 . S
H631 C654 0.931 . S
O632 Eu588 2.462 . S
O632 C652 1.252 . S
O633 Eu588 2.373 . S
O633 C644 1.249 . S
O634 Eu599 2.335 . S
O634 C644 1.264 . S
O635 Eu588 2.432 . S
O635 C652 1.268 . S
O636 Eu588 2.291 . S
O636 C651 1.255 . S
O637 Eu599 2.372 . S
O637 C651 1.257 . S
O638 Eu599 2.462 . S
O638 C663 1.252 . S
O639 Eu599 2.373 . S
O639 C655 1.249 . S
O640 Eu588 2.335 . S
O640 C655 1.264 . S
O641 Eu599 2.432 . S
O641 C663 1.268 . S
O642 Eu599 2.291 . S
O642 C662 1.255 . S
O643 Eu588 2.372 . S
O643 C662 1.257 . S
C644 O633 1.249 . S
C644 O634 1.264 . S
C645 C648 1.382 . S
C645 C650 1.390 . S
C645 C652 1.506 . S
C646 C647 1.398 . S
C646 C650 1.392 . S
C647 C646 1.398 . S
C647 C649 1.372 . S
C647 H664 0.931 . S
C648 C645 1.382 . S
C648 C649 1.390 . S
C648 H665 0.931 . S
C649 C647 1.372 . S
C649 C648 1.390 . S
C649 H666 0.929 . S
C650 C645 1.390 . S
C650 C646 1.392 . S
C650 H667 0.930 . S
C651 O636 1.255 . S
C651 O637 1.257 . S
C652 Eu588 2.787 . S
C652 O632 1.252 . S
C652 O635 1.268 . S
C652 C645 1.506 . S
C653 C620 1.439 . S
C653 H630 0.931 . S
C653 C654 1.374 . S
C654 C625 1.387 . S
C654 H631 0.931 . S
C654 C653 1.374 . S
C655 O639 1.249 . S
C655 O640 1.264 . S
C656 C659 1.382 . S
C656 C660 1.390 . S
C656 C663 1.506 . S
C657 C658 1.398 . S
C657 C660 1.392 . S
C658 C657 1.398 . S
C658 C661 1.372 . S
C658 H668 0.931 . S
C659 C656 1.382 . S
C659 C661 1.390 . S
C659 H669 0.931 . S
C660 C656 1.390 . S
C660 C657 1.392 . S
C660 H670 0.930 . S
C661 C658 1.372 . S
C661 C659 1.390 . S
C661 H671 0.929 . S
C662 O642 1.255 . S
C662 O643 1.257 . S
C663 Eu599 2.787 . S
C663 O638 1.252 . S
C663 O641 1.268 . S
C663 C656 1.506 . S
H664 C647 0.931 . S
H665 C648 0.931 . S
H666 C649 0.929 . S
H667 C650 0.930 . S
H668 C658 0.931 . S
H669 C659 0.931 . S
H670 C660 0.930 . S
H671 C661 0.929 . S
Eu672 N701 2.600 . S
Eu672 N707 2.562 . S
Eu672 O716 2.462 . S
Eu672 O717 2.373 1_565 S
Eu672 O719 2.432 . S
Eu672 O720 2.291 1_565 S
Eu672 O724 2.335 1_565 S
Eu672 O727 2.372 1_565 S
Eu672 C736 2.787 . S
C673 N674 1.365 1_455 S
C673 C676 1.405 1_455 S
C673 C680 1.448 . S
N674 C673 1.365 1_655 S
N674 C677 1.319 . S
N674 Eu683 2.600 1_655 S
C675 C677 1.397 . S
C675 C678 1.367 . S
C675 H695 0.931 . S
C676 C673 1.405 1_655 S
C676 C678 1.403 . S
C676 C682 1.439 1_655 S
C677 N674 1.319 . S
C677 C675 1.397 . S
C677 H688 0.930 . S
C678 C675 1.367 . S
C678 C676 1.403 . S
C678 H699 0.929 . S
C679 C680 1.430 . S
C679 C681 1.387 . S
C679 C685 1.404 . S
C680 C673 1.448 . S
C680 C679 1.430 . S
C680 N684 1.351 . S
C681 C679 1.387 . S
C681 C682 1.374 . S
C681 H696 0.931 . S
C682 C676 1.439 1_455 S
C682 C681 1.374 . S
C682 H697 0.917 1_455 S
Eu683 N674 2.600 1_455 S
Eu683 N684 2.562 . S
Eu683 O718 2.335 . S
Eu683 O721 2.372 1_455 S
Eu683 O722 2.462 . S
Eu683 O723 2.373 . S
Eu683 O725 2.432 1_455 S
Eu683 O726 2.291 . S
Eu683 C747 2.787 . S
N684 C680 1.351 . S
N684 Eu683 2.562 . S
N684 C686 1.325 . S
C685 C679 1.404 . S
C685 C687 1.366 . S
C685 H693 0.930 . S
C686 N684 1.325 . S
C686 C687 1.416 . S
C686 H692 0.929 . S
C687 C685 1.366 . S
C687 C686 1.416 . S
C687 H689 0.930 . S
H688 C677 0.930 . S
H689 C687 0.930 . S
H690 C705 0.930 1_545 S
H691 C712 0.930 . S
H692 C686 0.929 . S
H693 C685 0.930 . S
H694 C708 0.921 1_655 S
H695 C675 0.931 . S
H696 C681 0.931 . S
H697 C682 0.917 1_655 S
H698 C703 0.931 . S
H699 C678 0.929 . S
H700 C711 0.930 . S
N701 Eu672 2.600 . S
N701 C702 1.365 . S
N701 C705 1.319 . S
C702 N701 1.365 . S
C702 C704 1.405 . S
C702 C710 1.448 . S
C703 H698 0.931 . S
C703 C705 1.397 . S
C703 C706 1.367 . S
C704 C702 1.405 . S
C704 C706 1.403 . S
C704 C737 1.439 . S
C705 H690 0.930 1_565 S
C705 N701 1.319 . S
C705 C703 1.397 . S
C706 C703 1.367 . S
C706 C704 1.403 . S
C706 H713 0.929 . S
N707 Eu672 2.562 . S
N707 C708 1.338 . S
N707 C710 1.351 . S
C708 H694 0.921 1_455 S
C708 N707 1.338 . S
C708 C712 1.411 1_455 S
C709 C710 1.430 . S
C709 C711 1.404 1_455 S
C709 C738 1.387 . S
C710 C702 1.448 . S
C710 N707 1.351 . S
C710 C709 1.430 . S
C711 H700 0.930 . S
C711 C709 1.404 1_655 S
C711 C712 1.366 . S
C712 H691 0.930 . S
C712 C708 1.411 1_655 S
C712 C711 1.366 . S
H713 C706 0.929 . S
H714 C737 0.931 . S
H715 C738 0.931 . S
O716 Eu672 2.462 . S
O716 C736 1.252 . S
O717 Eu672 2.373 1_545 S
O717 C728 1.249 . S
O718 Eu683 2.335 . S
O718 C728 1.264 . S
O719 Eu672 2.432 . S
O719 C736 1.268 . S
O720 Eu672 2.291 1_545 S
O720 C735 1.255 1_455 S
O721 Eu683 2.372 1_655 S
O721 C735 1.257 . S
O722 Eu683 2.462 . S
O722 C747 1.252 . S
O723 Eu683 2.373 . S
O723 C739 1.249 . S
O724 Eu672 2.335 1_545 S
O724 C739 1.264 . S
O725 Eu683 2.432 1_655 S
O725 C747 1.268 1_655 S
O726 Eu683 2.291 . S
O726 C746 1.255 . S
O727 Eu672 2.372 1_545 S
O727 C746 1.257 . S
C728 O717 1.249 . S
C728 O718 1.264 . S
C729 C732 1.382 . S
C729 C734 1.390 . S
C729 C736 1.506 . S
C730 C731 1.398 . S
C730 C734 1.392 . S
C731 C730 1.398 . S
C731 C733 1.372 . S
C731 H748 0.931 . S
C732 C729 1.382 . S
C732 C733 1.390 . S
C732 H749 0.931 . S
C733 C731 1.372 . S
C733 C732 1.390 . S
C733 H750 0.929 . S
C734 C729 1.390 . S
C734 C730 1.392 . S
C734 H751 0.930 . S
C735 O720 1.255 1_655 S
C735 O721 1.257 . S
C736 Eu672 2.787 . S
C736 O716 1.252 . S
C736 O719 1.268 . S
C736 C729 1.506 . S
C737 C704 1.439 . S
C737 H714 0.931 . S
C737 C738 1.374 . S
C738 C709 1.387 . S
C738 H715 0.931 . S
C738 C737 1.374 . S
C739 O723 1.249 . S
C739 O724 1.264 . S
C740 C743 1.382 1_455 S
C740 C744 1.390 . S
C740 C747 1.506 . S
C741 C742 1.387 1_455 S
C741 C744 1.392 . S
C742 C741 1.387 1_655 S
C742 C745 1.380 . S
C742 H752 0.934 . S
C743 C740 1.382 1_655 S
C743 C745 1.390 . S
C743 H753 0.931 . S
C744 C740 1.390 . S
C744 C741 1.392 . S
C744 H754 0.930 . S
C745 C742 1.380 . S
C745 C743 1.390 . S
C745 H755 0.929 . S
C746 O726 1.255 . S
C746 O727 1.257 . S
C747 Eu683 2.787 . S
C747 O722 1.252 . S
C747 O725 1.268 1_455 S
C747 C740 1.506 . S
H748 C731 0.931 . S
H749 C732 0.931 . S
H750 C733 0.929 . S
H751 C734 0.930 . S
H752 C742 0.934 . S
H753 C743 0.931 . S
H754 C744 0.930 . S
H755 C745 0.929 . S
Eu756 N785 2.600 . S
Eu756 N791 2.562 . S
Eu756 O800 2.462 . S
Eu756 O801 2.373 . S
Eu756 O803 2.432 . S
Eu756 O804 2.291 . S
Eu756 O808 2.335 . S
Eu756 O811 2.372 . S
Eu756 C820 2.787 . S
C757 N758 1.365 . S
C757 C760 1.405 . S
C757 C764 1.448 . S
N758 C757 1.365 . S
N758 C761 1.319 . S
N758 Eu767 2.600 . S
C759 C761 1.397 . S
C759 C762 1.367 . S
C759 H779 0.931 . S
C760 C757 1.405 . S
C760 C762 1.403 . S
C760 C766 1.439 . S
C761 N758 1.319 . S
C761 C759 1.397 . S
C761 H772 0.930 . S
C762 C759 1.367 . S
C762 C760 1.403 . S
C762 H783 0.929 . S
C763 C764 1.430 . S
C763 C765 1.387 . S
C763 C769 1.404 . S
C764 C757 1.448 . S
C764 C763 1.430 . S
C764 N768 1.351 . S
C765 C763 1.387 . S
C765 C766 1.374 . S
C765 H780 0.931 . S
C766 C760 1.439 . S
C766 C765 1.374 . S
C766 H781 0.931 . S
Eu767 N758 2.600 . S
Eu767 N768 2.562 . S
Eu767 O802 2.335 . S
Eu767 O805 2.372 . S
Eu767 O806 2.462 . S
Eu767 O807 2.373 . S
Eu767 O809 2.432 . S
Eu767 O810 2.291 . S
Eu767 C831 2.787 . S
N768 C764 1.351 . S
N768 Eu767 2.562 . S
N768 C770 1.325 . S
C769 C763 1.404 . S
C769 C771 1.366 . S
C769 H777 0.930 . S
C770 N768 1.325 . S
C770 C771 1.416 . S
C770 H776 0.929 . S
C771 C769 1.366 . S
C771 C770 1.416 . S
C771 H773 0.930 . S
H772 C761 0.930 . S
H773 C771 0.930 . S
H774 C789 0.930 . S
H775 C796 0.930 . S
H776 C770 0.929 . S
H777 C769 0.930 . S
H778 C792 0.929 . S
H779 C759 0.931 . S
H780 C765 0.931 . S
H781 C766 0.931 . S
H782 C787 0.931 . S
H783 C762 0.929 . S
H784 C795 0.930 . S
N785 Eu756 2.600 . S
N785 C786 1.365 . S
N785 C789 1.319 . S
C786 N785 1.365 . S
C786 C788 1.405 . S
C786 C794 1.448 . S
C787 H782 0.931 . S
C787 C789 1.397 . S
C787 C790 1.367 . S
C788 C786 1.405 . S
C788 C790 1.403 . S
C788 C821 1.439 . S
C789 H774 0.930 . S
C789 N785 1.319 . S
C789 C787 1.397 . S
C790 C787 1.367 . S
C790 C788 1.403 . S
C790 H797 0.929 . S
N791 Eu756 2.562 . S
N791 C792 1.325 . S
N791 C794 1.351 . S
C792 H778 0.929 . S
C792 N791 1.325 . S
C792 C796 1.416 . S
C793 C794 1.430 . S
C793 C795 1.404 . S
C793 C822 1.387 . S
C794 C786 1.448 . S
C794 N791 1.351 . S
C794 C793 1.430 . S
C795 H784 0.930 . S
C795 C793 1.404 . S
C795 C796 1.366 . S
C796 H775 0.930 . S
C796 C792 1.416 . S
C796 C795 1.366 . S
H797 C790 0.929 . S
H798 C821 0.931 . S
H799 C822 0.931 . S
O800 Eu756 2.462 . S
O800 C820 1.252 . S
O801 Eu756 2.373 . S
O801 C812 1.249 . S
O802 Eu767 2.335 . S
O802 C812 1.264 . S
O803 Eu756 2.432 . S
O803 C820 1.268 . S
O804 Eu756 2.291 . S
O804 C819 1.255 . S
O805 Eu767 2.372 . S
O805 C819 1.257 . S
O806 Eu767 2.462 . S
O806 C831 1.252 . S
O807 Eu767 2.373 . S
O807 C823 1.249 . S
O808 Eu756 2.335 . S
O808 C823 1.264 . S
O809 Eu767 2.432 . S
O809 C831 1.268 . S
O810 Eu767 2.291 . S
O810 C830 1.255 . S
O811 Eu756 2.372 . S
O811 C830 1.257 . S
C812 O801 1.249 . S
C812 O802 1.264 . S
C813 C816 1.382 . S
C813 C818 1.390 . S
C813 C820 1.506 . S
C814 C815 1.398 . S
C814 C818 1.392 . S
C815 C814 1.398 . S
C815 C817 1.372 . S
C815 H832 0.931 . S
C816 C813 1.382 . S
C816 C817 1.390 . S
C816 H833 0.931 . S
C817 C815 1.372 . S
C817 C816 1.390 . S
C817 H834 0.929 . S
C818 C813 1.390 . S
C818 C814 1.392 . S
C818 H835 0.930 . S
C819 O804 1.255 . S
C819 O805 1.257 . S
C820 Eu756 2.787 . S
C820 O800 1.252 . S
C820 O803 1.268 . S
C820 C813 1.506 . S
C821 C788 1.439 . S
C821 H798 0.931 . S
C821 C822 1.374 . S
C822 C793 1.387 . S
C822 H799 0.931 . S
C822 C821 1.374 . S
C823 O807 1.249 . S
C823 O808 1.264 . S
C824 C827 1.382 . S
C824 C828 1.390 . S
C824 C831 1.506 . S
C825 C826 1.398 . S
C825 C828 1.392 . S
C826 C825 1.398 . S
C826 C829 1.372 . S
C826 H836 0.931 . S
C827 C824 1.382 . S
C827 C829 1.390 . S
C827 H837 0.931 . S
C828 C824 1.390 . S
C828 C825 1.392 . S
C828 H838 0.930 . S
C829 C826 1.372 . S
C829 C827 1.390 . S
C829 H839 0.929 . S
C830 O810 1.255 . S
C830 O811 1.257 . S
C831 Eu767 2.787 . S
C831 O806 1.252 . S
C831 O809 1.268 . S
C831 C824 1.506 . S
H832 C815 0.931 . S
H833 C816 0.931 . S
H834 C817 0.929 . S
H835 C818 0.930 . S
H836 C826 0.931 . S
H837 C827 0.931 . S
H838 C828 0.930 . S
H839 C829 0.929 . S
Eu840 N869 2.600 . S
Eu840 N875 2.562 . S
Eu840 O884 2.462 . S
Eu840 O885 2.373 1_556 S
Eu840 O887 2.432 . S
Eu840 O888 2.289 1_556 S
Eu840 O892 2.335 1_556 S
Eu840 O895 2.372 1_556 S
Eu840 C904 2.787 . S
C841 N842 1.365 . S
C841 C844 1.405 . S
C841 C848 1.448 1_565 S
N842 C841 1.365 . S
N842 C845 1.319 . S
N842 Eu851 2.600 1_565 S
C843 C845 1.397 . S
C843 C846 1.367 . S
C843 H863 0.931 . S
C844 C841 1.405 . S
C844 C846 1.403 . S
C844 C850 1.439 . S
C845 N842 1.319 . S
C845 C843 1.397 . S
C845 H856 0.930 . S
C846 C843 1.367 . S
C846 C844 1.403 . S
C846 H867 0.929 . S
C847 C848 1.430 . S
C847 C849 1.387 . S
C847 C853 1.404 . S
C848 C841 1.448 1_545 S
C848 C847 1.430 . S
C848 N852 1.351 . S
C849 C847 1.387 . S
C849 C850 1.374 1_545 S
C849 H864 0.931 . S
C850 C844 1.439 . S
C850 C849 1.374 1_565 S
C850 H865 0.931 . S
Eu851 N842 2.600 1_545 S
Eu851 N852 2.562 . S
Eu851 O886 2.335 . S
Eu851 O889 2.372 1_545 S
Eu851 O890 2.462 . S
Eu851 O891 2.373 . S
Eu851 O893 2.432 1_545 S
Eu851 O894 2.291 . S
Eu851 C915 2.787 . S
N852 C848 1.351 . S
N852 Eu851 2.562 . S
N852 C854 1.325 . S
C853 C847 1.404 . S
C853 C855 1.366 . S
C853 H861 0.930 . S
C854 N852 1.325 . S
C854 C855 1.416 . S
C854 H860 0.929 . S
C855 C853 1.366 . S
C855 C854 1.416 . S
C855 H857 0.930 . S
H856 C845 0.930 . S
H857 C855 0.930 . S
H858 C873 0.930 1_554 S
H859 C880 0.930 . S
H860 C854 0.929 . S
H861 C853 0.930 . S
H862 C876 0.959 . S
H863 C843 0.931 . S
H864 C849 0.931 . S
H865 C850 0.931 . S
H866 C871 0.931 . S
H867 C846 0.929 . S
H868 C879 0.936 . S
N869 Eu840 2.600 . S
N869 C870 1.365 . S
N869 C873 1.319 . S
C870 N869 1.365 . S
C870 C872 1.405 . S
C870 C878 1.448 . S
C871 H866 0.931 . S
C871 C873 1.397 . S
C871 C874 1.367 . S
C872 C870 1.405 . S
C872 C874 1.403 . S
C872 C905 1.439 . S
C873 H858 0.930 1_556 S
C873 N869 1.319 . S
C873 C871 1.397 . S
C874 C871 1.367 . S
C874 C872 1.403 . S
C874 H881 0.929 . S
N875 Eu840 2.562 . S
N875 C876 1.325 . S
N875 C878 1.351 . S
C876 H862 0.959 . S
C876 N875 1.325 . S
C876 C880 1.416 1_545 S
C877 C878 1.430 . S
C877 C879 1.404 . S
C877 C906 1.387 . S
C878 C870 1.448 . S
C878 N875 1.351 . S
C878 C877 1.430 . S
C879 H868 0.936 . S
C879 C877 1.404 . S
C879 C880 1.366 1_545 S
C880 H859 0.930 . S
C880 C876 1.416 1_565 S
C880 C879 1.366 1_565 S
H881 C874 0.929 . S
H882 C905 0.931 . S
H883 C906 0.931 . S
O884 Eu840 2.462 . S
O884 C904 1.252 . S
O885 Eu840 2.373 1_554 S
O885 C896 1.249 . S
O886 Eu851 2.335 . S
O886 C896 1.264 . S
O887 Eu840 2.432 . S
O887 C904 1.268 . S
O888 Eu840 2.289 1_554 S
O888 C903 1.259 1_545 S
O889 Eu851 2.372 1_565 S
O889 C903 1.257 . S
O890 Eu851 2.462 . S
O890 C915 1.252 . S
O891 Eu851 2.373 . S
O891 C907 1.249 . S
O892 Eu840 2.335 1_554 S
O892 C907 1.264 . S
O893 Eu851 2.432 1_565 S
O893 C915 1.268 1_565 S
O894 Eu851 2.291 . S
O894 C914 1.255 . S
O895 Eu840 2.372 1_554 S
O895 C914 1.257 . S
C896 O885 1.249 . S
C896 O886 1.264 . S
C897 C900 1.382 . S
C897 C902 1.390 . S
C897 C904 1.506 . S
C898 C899 1.398 . S
C898 C902 1.392 . S
C899 C898 1.398 . S
C899 C901 1.372 . S
C899 H916 0.931 . S
C900 C897 1.382 . S
C900 C901 1.390 . S
C900 H917 0.931 . S
C901 C899 1.372 . S
C901 C900 1.390 . S
C901 H918 0.929 . S
C902 C897 1.390 . S
C902 C898 1.392 . S
C902 H919 0.930 . S
C903 O888 1.259 1_565 S
C903 O889 1.257 . S
C904 Eu840 2.787 . S
C904 O884 1.252 . S
C904 O887 1.268 . S
C904 C897 1.506 . S
C905 C872 1.439 . S
C905 H882 0.931 . S
C905 C906 1.374 . S
C906 C877 1.387 . S
C906 H883 0.931 . S
C906 C905 1.374 . S
C907 O891 1.249 . S
C907 O892 1.264 . S
C908 C911 1.382 . S
C908 C912 1.390 1_565 S
C908 C915 1.506 1_565 S
C909 C910 1.398 1_545 S
C909 C912 1.392 . S
C910 C909 1.398 1_565 S
C910 C913 1.372 . S
C910 H920 0.931 . S
C911 C908 1.382 . S
C911 C913 1.390 . S
C911 H921 0.931 . S
C912 C908 1.390 1_545 S
C912 C909 1.392 . S
C912 H922 0.930 . S
C913 C910 1.372 . S
C913 C911 1.390 . S
C913 H923 0.929 . S
C914 O894 1.255 . S
C914 O895 1.257 . S
C915 Eu851 2.787 . S
C915 O890 1.252 . S
C915 O893 1.268 1_545 S
C915 C908 1.506 1_545 S
H916 C899 0.931 . S
H917 C900 0.931 . S
H918 C901 0.929 . S
H919 C902 0.930 . S
H920 C910 0.931 . S
H921 C911 0.931 . S
H922 C912 0.930 . S
H923 C913 0.929 . S
Eu924 N953 2.600 . S
Eu924 N959 2.562 . S
Eu924 O968 2.462 . S
Eu924 O969 2.373 . S
Eu924 O971 2.432 . S
Eu924 O972 2.291 . S
Eu924 O976 2.335 . S
Eu924 O979 2.372 . S
Eu924 C988 2.787 . S
C925 N926 1.365 . S
C925 C928 1.405 . S
C925 C932 1.448 . S
N926 C925 1.365 . S
N926 C929 1.319 . S
N926 Eu935 2.600 . S
C927 C929 1.397 . S
C927 C930 1.367 . S
C927 H947 0.931 . S
C928 C925 1.405 . S
C928 C930 1.403 . S
C928 C934 1.439 . S
C929 N926 1.319 . S
C929 C927 1.397 . S
C929 H940 0.930 . S
C930 C927 1.367 . S
C930 C928 1.403 . S
C930 H951 0.929 . S
C931 C932 1.430 . S
C931 C933 1.387 . S
C931 C937 1.404 . S
C932 C925 1.448 . S
C932 C931 1.430 . S
C932 N936 1.351 . S
C933 C931 1.387 . S
C933 C934 1.374 . S
C933 H948 0.931 . S
C934 C928 1.439 . S
C934 C933 1.374 . S
C934 H949 0.931 . S
Eu935 N926 2.600 . S
Eu935 N936 2.562 . S
Eu935 O970 2.335 . S
Eu935 O973 2.372 . S
Eu935 O974 2.462 . S
Eu935 O975 2.373 . S
Eu935 O977 2.432 . S
Eu935 O978 2.291 . S
Eu935 C999 2.787 . S
N936 C932 1.351 . S
N936 Eu935 2.562 . S
N936 C938 1.325 . S
C937 C931 1.404 . S
C937 C939 1.366 . S
C937 H945 0.930 . S
C938 N936 1.325 . S
C938 C939 1.416 . S
C938 H944 0.929 . S
C939 C937 1.366 . S
C939 C938 1.416 . S
C939 H941 0.930 . S
H940 C929 0.930 . S
H941 C939 0.930 . S
H942 C957 0.930 . S
H943 C964 0.930 . S
H944 C938 0.929 . S
H945 C937 0.930 . S
H946 C960 0.929 . S
H947 C927 0.931 . S
H948 C933 0.931 . S
H949 C934 0.931 . S
H950 C955 0.931 . S
H951 C930 0.929 . S
H952 C963 0.930 . S
N953 Eu924 2.600 . S
N953 C954 1.365 . S
N953 C957 1.319 . S
C954 N953 1.365 . S
C954 C956 1.405 . S
C954 C962 1.448 . S
C955 H950 0.931 . S
C955 C957 1.397 . S
C955 C958 1.367 . S
C956 C954 1.405 . S
C956 C958 1.403 . S
C956 C989 1.439 . S
C957 H942 0.930 . S
C957 N953 1.319 . S
C957 C955 1.397 . S
C958 C955 1.367 . S
C958 C956 1.403 . S
C958 H965 0.929 . S
N959 Eu924 2.562 . S
N959 C960 1.325 . S
N959 C962 1.351 . S
C960 H946 0.929 . S
C960 N959 1.325 . S
C960 C964 1.416 . S
C961 C962 1.430 . S
C961 C963 1.404 . S
C961 C990 1.387 . S
C962 C954 1.448 . S
C962 N959 1.351 . S
C962 C961 1.430 . S
C963 H952 0.930 . S
C963 C961 1.404 . S
C963 C964 1.366 . S
C964 H943 0.930 . S
C964 C960 1.416 . S
C964 C963 1.366 . S
H965 C958 0.929 . S
H966 C989 0.931 . S
H967 C990 0.931 . S
O968 Eu924 2.462 . S
O968 C988 1.252 . S
O969 Eu924 2.373 . S
O969 C980 1.249 . S
O970 Eu935 2.335 . S
O970 C980 1.264 . S
O971 Eu924 2.432 . S
O971 C988 1.268 . S
O972 Eu924 2.291 . S
O972 C987 1.255 . S
O973 Eu935 2.372 . S
O973 C987 1.257 . S
O974 Eu935 2.462 . S
O974 C999 1.252 . S
O975 Eu935 2.373 . S
O975 C991 1.249 . S
O976 Eu924 2.335 . S
O976 C991 1.264 . S
O977 Eu935 2.432 . S
O977 C999 1.268 . S
O978 Eu935 2.291 . S
O978 C998 1.255 . S
O979 Eu924 2.372 . S
O979 C998 1.257 . S
C980 O969 1.249 . S
C980 O970 1.264 . S
C981 C984 1.382 . S
C981 C986 1.390 . S
C981 C988 1.506 . S
C982 C983 1.398 . S
C982 C986 1.392 . S
C983 C982 1.398 . S
C983 C985 1.372 . S
C983 H1000 0.931 . S
C984 C981 1.382 . S
C984 C985 1.390 . S
C984 H1001 0.931 . S
C985 C983 1.372 . S
C985 C984 1.390 . S
C985 H1002 0.929 . S
C986 C981 1.390 . S
C986 C982 1.392 . S
C986 H1003 0.930 . S
C987 O972 1.255 . S
C987 O973 1.257 . S
C988 Eu924 2.787 . S
C988 O968 1.252 . S
C988 O971 1.268 . S
C988 C981 1.506 . S
C989 C956 1.439 . S
C989 H966 0.931 . S
C989 C990 1.374 . S
C990 C961 1.387 . S
C990 H967 0.931 . S
C990 C989 1.374 . S
C991 O975 1.249 . S
C991 O976 1.264 . S
C992 C995 1.382 . S
C992 C996 1.390 . S
C992 C999 1.506 . S
C993 C994 1.398 . S
C993 C996 1.392 . S
C994 C993 1.398 . S
C994 C997 1.372 . S
C994 H1004 0.931 . S
C995 C992 1.382 . S
C995 C997 1.390 . S
C995 H1005 0.931 . S
C996 C992 1.390 . S
C996 C993 1.392 . S
C996 H1006 0.930 . S
C997 C994 1.372 . S
C997 C995 1.390 . S
C997 H1007 0.929 . S
C998 O978 1.255 . S
C998 O979 1.257 . S
C999 Eu935 2.787 . S
C999 O974 1.252 . S
C999 O977 1.268 . S
C999 C992 1.506 . S
H1000 C983 0.931 . S
H1001 C984 0.931 . S
H1002 C985 0.929 . S
H1003 C986 0.930 . S
H1004 C994 0.931 . S
H1005 C995 0.931 . S
H1006 C996 0.930 . S
H1007 C997 0.929 . S
Eu1008 N1037 2.600 1_554 S
Eu1008 N1043 2.562 1_554 S
Eu1008 O1052 2.462 . S
Eu1008 O1053 2.373 1_554 S
Eu1008 O1055 2.432 . S
Eu1008 O1056 2.291 . S
Eu1008 O1060 2.335 . S
Eu1008 O1063 2.372 . S
Eu1008 C1072 2.787 . S
C1009 N1010 1.365 . S
C1009 C1012 1.405 . S
C1009 C1016 1.448 . S
N1010 C1009 1.365 . S
N1010 C1013 1.319 . S
N1010 Eu1019 2.600 . S
C1011 C1013 1.397 . S
C1011 C1014 1.367 . S
C1011 H1031 0.931 . S
C1012 C1009 1.405 . S
C1012 C1014 1.403 . S
C1012 C1018 1.439 . S
C1013 N1010 1.319 . S
C1013 C1011 1.397 . S
C1013 H1024 0.930 . S
C1014 C1011 1.367 . S
C1014 C1012 1.403 . S
C1014 H1035 0.929 . S
C1015 C1016 1.430 . S
C1015 C1017 1.387 . S
C1015 C1021 1.404 . S
C1016 C1009 1.448 . S
C1016 C1015 1.430 . S
C1016 N1020 1.351 . S
C1017 C1015 1.387 . S
C1017 C1018 1.374 . S
C1017 H1032 0.931 . S
C1018 C1012 1.439 . S
C1018 C1017 1.374 . S
C1018 H1033 0.931 . S
Eu1019 N1010 2.600 . S
Eu1019 N1020 2.562 . S
Eu1019 O1054 2.335 1_554 S
Eu1019 O1057 2.372 . S
Eu1019 O1058 2.462 . S
Eu1019 O1059 2.373 . S
Eu1019 O1061 2.432 . S
Eu1019 O1062 2.291 . S
Eu1019 C1083 2.787 . S
N1020 C1016 1.351 . S
N1020 Eu1019 2.562 . S
N1020 C1022 1.325 . S
C1021 C1015 1.404 . S
C1021 C1023 1.366 . S
C1021 H1029 0.930 . S
C1022 N1020 1.325 . S
C1022 C1023 1.416 . S
C1022 H1028 0.929 . S
C1023 C1021 1.366 . S
C1023 C1022 1.416 . S
C1023 H1025 0.930 . S
H1024 C1013 0.930 . S
H1025 C1023 0.930 . S
H1026 C1041 0.930 1_554 S
H1027 C1048 0.930 . S
H1028 C1022 0.929 . S
H1029 C1021 0.930 . S
H1030 C1044 0.929 1_554 S
H1031 C1011 0.931 . S
H1032 C1017 0.931 . S
H1033 C1018 0.931 . S
H1034 C1039 0.931 . S
H1035 C1014 0.929 . S
H1036 C1047 0.930 . S
N1037 Eu1008 2.600 1_556 S
N1037 C1038 1.365 . S
N1037 C1041 1.319 . S
C1038 N1037 1.365 . S
C1038 C1040 1.405 . S
C1038 C1046 1.448 . S
C1039 H1034 0.931 . S
C1039 C1041 1.397 . S
C1039 C1042 1.367 . S
C1040 C1038 1.405 . S
C1040 C1042 1.403 . S
C1040 C1073 1.439 . S
C1041 H1026 0.930 1_556 S
C1041 N1037 1.319 . S
C1041 C1039 1.397 . S
C1042 C1039 1.367 . S
C1042 C1040 1.403 . S
C1042 H1049 0.929 . S
N1043 Eu1008 2.562 1_556 S
N1043 C1044 1.325 . S
N1043 C1046 1.351 . S
C1044 H1030 0.929 1_556 S
C1044 N1043 1.325 . S
C1044 C1048 1.416 . S
C1045 C1046 1.430 . S
C1045 C1047 1.404 . S
C1045 C1074 1.387 . S
C1046 C1038 1.448 . S
C1046 N1043 1.351 . S
C1046 C1045 1.430 . S
C1047 H1036 0.930 . S
C1047 C1045 1.404 . S
C1047 C1048 1.366 . S
C1048 H1027 0.930 . S
C1048 C1044 1.416 . S
C1048 C1047 1.366 . S
H1049 C1042 0.929 . S
H1050 C1073 0.931 . S
H1051 C1074 0.931 . S
O1052 Eu1008 2.462 . S
O1052 C1072 1.252 . S
O1053 Eu1008 2.373 1_556 S
O1053 C1064 1.249 . S
O1054 Eu1019 2.335 1_556 S
O1054 C1064 1.264 . S
O1055 Eu1008 2.432 . S
O1055 C1072 1.268 . S
O1056 Eu1008 2.291 . S
O1056 C1071 1.255 . S
O1057 Eu1019 2.372 . S
O1057 C1071 1.257 . S
O1058 Eu1019 2.462 . S
O1058 C1083 1.252 . S
O1059 Eu1019 2.373 . S
O1059 C1075 1.249 . S
O1060 Eu1008 2.335 . S
O1060 C1075 1.264 . S
O1061 Eu1019 2.432 . S
O1061 C1083 1.268 . S
O1062 Eu1019 2.291 . S
O1062 C1082 1.255 . S
O1063 Eu1008 2.372 . S
O1063 C1082 1.257 . S
C1064 O1053 1.249 . S
C1064 O1054 1.264 . S
C1065 C1068 1.382 . S
C1065 C1070 1.390 . S
C1065 C1072 1.506 . S
C1066 C1067 1.398 . S
C1066 C1070 1.392 . S
C1067 C1066 1.398 . S
C1067 C1069 1.372 . S
C1067 H1084 0.931 . S
C1068 C1065 1.382 . S
C1068 C1069 1.390 . S
C1068 H1085 0.931 . S
C1069 C1067 1.372 . S
C1069 C1068 1.390 . S
C1069 H1086 0.929 . S
C1070 C1065 1.390 . S
C1070 C1066 1.392 . S
C1070 H1087 0.930 . S
C1071 O1056 1.255 . S
C1071 O1057 1.257 . S
C1072 Eu1008 2.787 . S
C1072 O1052 1.252 . S
C1072 O1055 1.268 . S
C1072 C1065 1.506 . S
C1073 C1040 1.439 . S
C1073 H1050 0.931 . S
C1073 C1074 1.374 . S
C1074 C1045 1.387 . S
C1074 H1051 0.931 . S
C1074 C1073 1.374 . S
C1075 O1059 1.249 . S
C1075 O1060 1.264 . S
C1076 C1079 1.382 . S
C1076 C1080 1.390 . S
C1076 C1083 1.506 1_556 S
C1077 C1078 1.398 . S
C1077 C1080 1.392 . S
C1078 C1077 1.398 . S
C1078 C1081 1.372 . S
C1078 H1088 0.931 . S
C1079 C1076 1.382 . S
C1079 C1081 1.390 . S
C1079 H1089 0.920 1_556 S
C1080 C1076 1.390 . S
C1080 C1077 1.392 . S
C1080 H1090 0.930 . S
C1081 C1078 1.372 . S
C1081 C1079 1.390 . S
C1081 H1091 0.929 . S
C1082 O1062 1.255 . S
C1082 O1063 1.257 . S
C1083 Eu1019 2.787 . S
C1083 O1058 1.252 . S
C1083 O1061 1.268 . S
C1083 C1076 1.506 1_554 S
H1084 C1067 0.931 . S
H1085 C1068 0.931 . S
H1086 C1069 0.929 . S
H1087 C1070 0.930 . S
H1088 C1078 0.931 . S
H1089 C1079 0.920 1_554 S
H1090 C1080 0.930 . S
H1091 C1081 0.929 . S
Eu1092 N1121 2.600 . S
Eu1092 N1127 2.562 . S
Eu1092 O1136 2.462 . S
Eu1092 O1137 2.373 . S
Eu1092 O1139 2.432 . S
Eu1092 O1140 2.291 . S
Eu1092 O1144 2.335 . S
Eu1092 O1147 2.372 . S
Eu1092 C1156 2.787 . S
C1093 N1094 1.365 . S
C1093 C1096 1.405 . S
C1093 C1100 1.448 . S
N1094 C1093 1.365 . S
N1094 C1097 1.319 . S
N1094 Eu1103 2.600 . S
C1095 C1097 1.397 . S
C1095 C1098 1.367 . S
C1095 H1115 0.931 . S
C1096 C1093 1.405 . S
C1096 C1098 1.403 . S
C1096 C1102 1.439 . S
C1097 N1094 1.319 . S
C1097 C1095 1.397 . S
C1097 H1108 0.930 . S
C1098 C1095 1.367 . S
C1098 C1096 1.403 . S
C1098 H1119 0.929 . S
C1099 C1100 1.430 . S
C1099 C1101 1.387 . S
C1099 C1105 1.404 . S
C1100 C1093 1.448 . S
C1100 C1099 1.430 . S
C1100 N1104 1.351 . S
C1101 C1099 1.387 . S
C1101 C1102 1.374 . S
C1101 H1116 0.931 . S
C1102 C1096 1.439 . S
C1102 C1101 1.374 . S
C1102 H1117 0.931 . S
Eu1103 N1094 2.600 . S
Eu1103 N1104 2.562 . S
Eu1103 O1138 2.335 . S
Eu1103 O1141 2.372 . S
Eu1103 O1142 2.462 . S
Eu1103 O1143 2.373 . S
Eu1103 O1145 2.432 . S
Eu1103 O1146 2.291 . S
Eu1103 C1167 2.787 . S
N1104 C1100 1.351 . S
N1104 Eu1103 2.562 . S
N1104 C1106 1.325 . S
C1105 C1099 1.404 . S
C1105 C1107 1.366 . S
C1105 H1113 0.930 . S
C1106 N1104 1.325 . S
C1106 C1107 1.416 . S
C1106 H1112 0.929 . S
C1107 C1105 1.366 . S
C1107 C1106 1.416 . S
C1107 H1109 0.930 . S
H1108 C1097 0.930 . S
H1109 C1107 0.930 . S
H1110 C1125 0.930 . S
H1111 C1132 0.930 . S
H1112 C1106 0.929 . S
H1113 C1105 0.930 . S
H1114 C1128 0.929 . S
H1115 C1095 0.931 . S
H1116 C1101 0.931 . S
H1117 C1102 0.931 . S
H1118 C1123 0.931 . S
H1119 C1098 0.929 . S
H1120 C1131 0.930 . S
N1121 Eu1092 2.600 . S
N1121 C1122 1.365 . S
N1121 C1125 1.319 . S
C1122 N1121 1.365 . S
C1122 C1124 1.405 . S
C1122 C1130 1.448 . S
C1123 H1118 0.931 . S
C1123 C1125 1.397 . S
C1123 C1126 1.367 . S
C1124 C1122 1.405 . S
C1124 C1126 1.403 . S
C1124 C1157 1.439 . S
C1125 H1110 0.930 . S
C1125 N1121 1.319 . S
C1125 C1123 1.397 . S
C1126 C1123 1.367 . S
C1126 C1124 1.403 . S
C1126 H1133 0.929 . S
N1127 Eu1092 2.562 . S
N1127 C1128 1.325 . S
N1127 C1130 1.351 . S
C1128 H1114 0.929 . S
C1128 N1127 1.325 . S
C1128 C1132 1.416 . S
C1129 C1130 1.430 . S
C1129 C1131 1.404 . S
C1129 C1158 1.387 . S
C1130 C1122 1.448 . S
C1130 N1127 1.351 . S
C1130 C1129 1.430 . S
C1131 H1120 0.930 . S
C1131 C1129 1.404 . S
C1131 C1132 1.366 . S
C1132 H1111 0.930 . S
C1132 C1128 1.416 . S
C1132 C1131 1.366 . S
H1133 C1126 0.929 . S
H1134 C1157 0.931 . S
H1135 C1158 0.931 . S
O1136 Eu1092 2.462 . S
O1136 C1156 1.252 . S
O1137 Eu1092 2.373 . S
O1137 C1148 1.249 . S
O1138 Eu1103 2.335 . S
O1138 C1148 1.264 . S
O1139 Eu1092 2.432 . S
O1139 C1156 1.268 . S
O1140 Eu1092 2.291 . S
O1140 C1155 1.255 . S
O1141 Eu1103 2.372 . S
O1141 C1155 1.257 . S
O1142 Eu1103 2.462 . S
O1142 C1167 1.252 . S
O1143 Eu1103 2.373 . S
O1143 C1159 1.249 . S
O1144 Eu1092 2.335 . S
O1144 C1159 1.264 . S
O1145 Eu1103 2.432 . S
O1145 C1167 1.268 . S
O1146 Eu1103 2.291 . S
O1146 C1166 1.255 . S
O1147 Eu1092 2.372 . S
O1147 C1166 1.257 . S
C1148 O1137 1.249 . S
C1148 O1138 1.264 . S
C1149 C1152 1.382 . S
C1149 C1154 1.390 . S
C1149 C1156 1.506 . S
C1150 C1151 1.398 . S
C1150 C1154 1.392 . S
C1151 C1150 1.398 . S
C1151 C1153 1.372 . S
C1151 H1168 0.931 . S
C1152 C1149 1.382 . S
C1152 C1153 1.390 . S
C1152 H1169 0.931 . S
C1153 C1151 1.372 . S
C1153 C1152 1.390 . S
C1153 H1170 0.929 . S
C1154 C1149 1.390 . S
C1154 C1150 1.392 . S
C1154 H1171 0.930 . S
C1155 O1140 1.255 . S
C1155 O1141 1.257 . S
C1156 Eu1092 2.787 . S
C1156 O1136 1.252 . S
C1156 O1139 1.268 . S
C1156 C1149 1.506 . S
C1157 C1124 1.439 . S
C1157 H1134 0.931 . S
C1157 C1158 1.374 . S
C1158 C1129 1.387 . S
C1158 H1135 0.931 . S
C1158 C1157 1.374 . S
C1159 O1143 1.249 . S
C1159 O1144 1.264 . S
C1160 C1163 1.382 . S
C1160 C1164 1.390 . S
C1160 C1167 1.506 . S
C1161 C1162 1.398 . S
C1161 C1164 1.392 . S
C1162 C1161 1.398 . S
C1162 C1165 1.372 . S
C1162 H1172 0.931 . S
C1163 C1160 1.382 . S
C1163 C1165 1.390 . S
C1163 H1173 0.931 . S
C1164 C1160 1.390 . S
C1164 C1161 1.392 . S
C1164 H1174 0.930 . S
C1165 C1162 1.372 . S
C1165 C1163 1.390 . S
C1165 H1175 0.929 . S
C1166 O1146 1.255 . S
C1166 O1147 1.257 . S
C1167 Eu1103 2.787 . S
C1167 O1142 1.252 . S
C1167 O1145 1.268 . S
C1167 C1160 1.506 . S
H1168 C1151 0.931 . S
H1169 C1152 0.931 . S
H1170 C1153 0.929 . S
H1171 C1154 0.930 . S
H1172 C1162 0.931 . S
H1173 C1163 0.931 . S
H1174 C1164 0.930 . S
H1175 C1165 0.929 . S
Eu1176 N1205 2.600 1_455 S
Eu1176 N1211 2.562 1_455 S
Eu1176 O1220 2.462 . S
Eu1176 O1221 2.373 1_455 S
Eu1176 O1223 2.432 . S
Eu1176 O1224 2.291 . S
Eu1176 O1228 2.335 . S
Eu1176 O1231 2.372 . S
Eu1176 C1240 2.787 . S
C1177 N1178 1.365 . S
C1177 C1180 1.405 . S
C1177 C1184 1.448 . S
N1178 C1177 1.365 . S
N1178 C1181 1.319 . S
N1178 Eu1187 2.600 . S
C1179 C1181 1.397 . S
C1179 C1182 1.367 . S
C1179 H1199 0.931 . S
C1180 C1177 1.405 . S
C1180 C1182 1.403 . S
C1180 C1186 1.439 . S
C1181 N1178 1.319 . S
C1181 C1179 1.397 . S
C1181 H1192 0.930 . S
C1182 C1179 1.367 . S
C1182 C1180 1.403 . S
C1182 H1203 0.929 . S
C1183 C1184 1.430 . S
C1183 C1185 1.387 . S
C1183 C1189 1.404 . S
C1184 C1177 1.448 . S
C1184 C1183 1.430 . S
C1184 N1188 1.351 . S
C1185 C1183 1.387 . S
C1185 C1186 1.374 . S
C1185 H1200 0.931 . S
C1186 C1180 1.439 . S
C1186 C1185 1.374 . S
C1186 H1201 0.931 . S
Eu1187 N1178 2.600 . S
Eu1187 N1188 2.562 . S
Eu1187 O1222 2.335 1_455 S
Eu1187 O1225 2.372 . S
Eu1187 O1226 2.462 . S
Eu1187 O1227 2.373 . S
Eu1187 O1229 2.432 . S
Eu1187 O1230 2.291 . S
Eu1187 C1251 2.787 . S
N1188 C1184 1.351 . S
N1188 Eu1187 2.562 . S
N1188 C1190 1.325 . S
C1189 C1183 1.404 . S
C1189 C1191 1.366 . S
C1189 H1197 0.930 . S
C1190 N1188 1.325 . S
C1190 C1191 1.416 . S
C1190 H1196 0.929 . S
C1191 C1189 1.366 . S
C1191 C1190 1.416 . S
C1191 H1193 0.930 . S
H1192 C1181 0.930 . S
H1193 C1191 0.930 . S
H1194 C1209 0.907 1_455 S
H1195 C1216 0.930 . S
H1196 C1190 0.929 . S
H1197 C1189 0.930 . S
H1198 C1212 0.929 1_455 S
H1199 C1179 0.931 . S
H1200 C1185 0.931 . S
H1201 C1186 0.931 . S
H1202 C1207 0.931 . S
H1203 C1182 0.929 . S
H1204 C1215 0.930 . S
N1205 Eu1176 2.600 1_655 S
N1205 C1206 1.365 . S
N1205 C1209 1.313 . S
C1206 N1205 1.365 . S
C1206 C1208 1.405 . S
C1206 C1214 1.448 . S
C1207 H1202 0.931 . S
C1207 C1209 1.425 . S
C1207 C1210 1.367 . S
C1208 C1206 1.405 . S
C1208 C1210 1.403 . S
C1208 C1241 1.439 . S
C1209 H1194 0.907 1_655 S
C1209 N1205 1.313 . S
C1209 C1207 1.425 . S
C1210 C1207 1.367 . S
C1210 C1208 1.403 . S
C1210 H1217 0.929 . S
N1211 Eu1176 2.562 1_655 S
N1211 C1212 1.325 . S
N1211 C1214 1.351 . S
C1212 H1198 0.929 1_655 S
C1212 N1211 1.325 . S
C1212 C1216 1.416 . S
C1213 C1214 1.430 . S
C1213 C1215 1.404 . S
C1213 C1242 1.387 . S
C1214 C1206 1.448 . S
C1214 N1211 1.351 . S
C1214 C1213 1.430 . S
C1215 H1204 0.930 . S
C1215 C1213 1.404 . S
C1215 C1216 1.366 . S
C1216 H1195 0.930 . S
C1216 C1212 1.416 . S
C1216 C1215 1.366 . S
H1217 C1210 0.929 . S
H1218 C1241 0.931 . S
H1219 C1242 0.931 . S
O1220 Eu1176 2.462 . S
O1220 C1240 1.252 . S
O1221 Eu1176 2.373 1_655 S
O1221 C1232 1.249 . S
O1222 Eu1187 2.335 1_655 S
O1222 C1232 1.264 . S
O1223 Eu1176 2.432 . S
O1223 C1240 1.268 . S
O1224 Eu1176 2.291 . S
O1224 C1239 1.255 . S
O1225 Eu1187 2.372 . S
O1225 C1239 1.257 . S
O1226 Eu1187 2.462 . S
O1226 C1251 1.252 . S
O1227 Eu1187 2.373 . S
O1227 C1243 1.249 . S
O1228 Eu1176 2.335 . S
O1228 C1243 1.264 . S
O1229 Eu1187 2.432 . S
O1229 C1251 1.268 . S
O1230 Eu1187 2.291 . S
O1230 C1250 1.255 . S
O1231 Eu1176 2.372 . S
O1231 C1250 1.257 . S
C1232 O1221 1.249 . S
C1232 O1222 1.264 . S
C1233 C1236 1.382 . S
C1233 C1238 1.390 . S
C1233 C1240 1.506 . S
C1234 C1235 1.398 . S
C1234 C1238 1.392 . S
C1235 C1234 1.398 . S
C1235 C1237 1.372 . S
C1235 H1252 0.931 . S
C1236 C1233 1.382 . S
C1236 C1237 1.390 . S
C1236 H1253 0.931 . S
C1237 C1235 1.372 . S
C1237 C1236 1.390 . S
C1237 H1254 0.929 . S
C1238 C1233 1.390 . S
C1238 C1234 1.392 . S
C1238 H1255 0.930 . S
C1239 O1224 1.255 . S
C1239 O1225 1.257 . S
C1240 Eu1176 2.787 . S
C1240 O1220 1.252 . S
C1240 O1223 1.268 . S
C1240 C1233 1.506 . S
C1241 C1208 1.439 . S
C1241 H1218 0.931 . S
C1241 C1242 1.374 . S
C1242 C1213 1.387 . S
C1242 H1219 0.931 . S
C1242 C1241 1.374 . S
C1243 O1227 1.249 . S
C1243 O1228 1.264 . S
C1244 C1247 1.382 . S
C1244 C1248 1.390 . S
C1244 C1251 1.506 1_655 S
C1245 C1246 1.398 . S
C1245 C1248 1.392 . S
C1246 C1245 1.398 . S
C1246 C1249 1.372 . S
C1246 H1256 0.931 . S
C1247 C1244 1.382 . S
C1247 C1249 1.390 . S
C1247 H1257 0.931 . S
C1248 C1244 1.390 . S
C1248 C1245 1.392 . S
C1248 H1258 0.930 . S
C1249 C1246 1.372 . S
C1249 C1247 1.390 . S
C1249 H1259 0.929 . S
C1250 O1230 1.255 . S
C1250 O1231 1.257 . S
C1251 Eu1187 2.787 . S
C1251 O1226 1.252 . S
C1251 O1229 1.268 . S
C1251 C1244 1.506 1_455 S
H1252 C1235 0.931 . S
H1253 C1236 0.931 . S
H1254 C1237 0.929 . S
H1255 C1238 0.930 . S
H1256 C1246 0.931 . S
H1257 C1247 0.931 . S
H1258 C1248 0.930 . S
H1259 C1249 0.929 . S
Eu1260 N1289 2.600 . S
Eu1260 N1295 2.562 . S
Eu1260 O1304 2.462 . S
Eu1260 O1305 2.373 . S
Eu1260 O1307 2.432 . S
Eu1260 O1308 2.291 . S
Eu1260 O1312 2.335 . S
Eu1260 O1315 2.372 . S
Eu1260 C1324 2.787 . S
C1261 N1262 1.365 . S
C1261 C1264 1.405 . S
C1261 C1268 1.448 . S
N1262 C1261 1.365 . S
N1262 C1265 1.319 . S
N1262 Eu1271 2.600 . S
C1263 C1265 1.397 . S
C1263 C1266 1.367 . S
C1263 H1283 0.931 . S
C1264 C1261 1.405 . S
C1264 C1266 1.403 . S
C1264 C1270 1.439 . S
C1265 N1262 1.319 . S
C1265 C1263 1.397 . S
C1265 H1276 0.930 . S
C1266 C1263 1.367 . S
C1266 C1264 1.403 . S
C1266 H1287 0.929 . S
C1267 C1268 1.430 . S
C1267 C1269 1.387 . S
C1267 C1273 1.404 . S
C1268 C1261 1.448 . S
C1268 C1267 1.430 . S
C1268 N1272 1.351 . S
C1269 C1267 1.387 . S
C1269 C1270 1.374 . S
C1269 H1284 0.931 . S
C1270 C1264 1.439 . S
C1270 C1269 1.374 . S
C1270 H1285 0.931 . S
Eu1271 N1262 2.600 . S
Eu1271 N1272 2.562 . S
Eu1271 O1306 2.335 . S
Eu1271 O1309 2.372 . S
Eu1271 O1310 2.462 . S
Eu1271 O1311 2.373 . S
Eu1271 O1313 2.432 . S
Eu1271 O1314 2.291 . S
Eu1271 C1335 2.787 . S
N1272 C1268 1.351 . S
N1272 Eu1271 2.562 . S
N1272 C1274 1.325 . S
C1273 C1267 1.404 . S
C1273 C1275 1.366 . S
C1273 H1281 0.930 . S
C1274 N1272 1.325 . S
C1274 C1275 1.416 . S
C1274 H1280 0.929 . S
C1275 C1273 1.366 . S
C1275 C1274 1.416 . S
C1275 H1277 0.930 . S
H1276 C1265 0.930 . S
H1277 C1275 0.930 . S
H1278 C1293 0.930 . S
H1279 C1300 0.930 . S
H1280 C1274 0.929 . S
H1281 C1273 0.930 . S
H1282 C1296 0.929 . S
H1283 C1263 0.931 . S
H1284 C1269 0.931 . S
H1285 C1270 0.931 . S
H1286 C1291 0.931 . S
H1287 C1266 0.929 . S
H1288 C1299 0.930 . S
N1289 Eu1260 2.600 . S
N1289 C1290 1.365 . S
N1289 C1293 1.319 . S
C1290 N1289 1.365 . S
C1290 C1292 1.405 . S
C1290 C1298 1.448 . S
C1291 H1286 0.931 . S
C1291 C1293 1.397 . S
C1291 C1294 1.367 . S
C1292 C1290 1.405 . S
C1292 C1294 1.403 . S
C1292 C1325 1.439 . S
C1293 H1278 0.930 . S
C1293 N1289 1.319 . S
C1293 C1291 1.397 . S
C1294 C1291 1.367 . S
C1294 C1292 1.403 . S
C1294 H1301 0.929 . S
N1295 Eu1260 2.562 . S
N1295 C1296 1.325 . S
N1295 C1298 1.351 . S
C1296 H1282 0.929 . S
C1296 N1295 1.325 . S
C1296 C1300 1.416 . S
C1297 C1298 1.430 . S
C1297 C1299 1.404 . S
C1297 C1326 1.387 . S
C1298 C1290 1.448 . S
C1298 N1295 1.351 . S
C1298 C1297 1.430 . S
C1299 H1288 0.930 . S
C1299 C1297 1.404 . S
C1299 C1300 1.366 . S
C1300 H1279 0.930 . S
C1300 C1296 1.416 . S
C1300 C1299 1.366 . S
H1301 C1294 0.929 . S
H1302 C1325 0.931 . S
H1303 C1326 0.931 . S
O1304 Eu1260 2.462 . S
O1304 C1324 1.252 . S
O1305 Eu1260 2.373 . S
O1305 C1316 1.249 . S
O1306 Eu1271 2.335 . S
O1306 C1316 1.264 . S
O1307 Eu1260 2.432 . S
O1307 C1324 1.268 . S
O1308 Eu1260 2.291 . S
O1308 C1323 1.255 . S
O1309 Eu1271 2.372 . S
O1309 C1323 1.257 . S
O1310 Eu1271 2.462 . S
O1310 C1335 1.252 . S
O1311 Eu1271 2.373 . S
O1311 C1327 1.249 . S
O1312 Eu1260 2.335 . S
O1312 C1327 1.264 . S
O1313 Eu1271 2.432 . S
O1313 C1335 1.268 . S
O1314 Eu1271 2.291 . S
O1314 C1334 1.255 . S
O1315 Eu1260 2.372 . S
O1315 C1334 1.257 . S
C1316 O1305 1.249 . S
C1316 O1306 1.264 . S
C1317 C1320 1.382 . S
C1317 C1322 1.390 . S
C1317 C1324 1.506 . S
C1318 C1319 1.398 . S
C1318 C1322 1.392 . S
C1319 C1318 1.398 . S
C1319 C1321 1.372 . S
C1319 H1336 0.931 . S
C1320 C1317 1.382 . S
C1320 C1321 1.390 . S
C1320 H1337 0.931 . S
C1321 C1319 1.372 . S
C1321 C1320 1.390 . S
C1321 H1338 0.929 . S
C1322 C1317 1.390 . S
C1322 C1318 1.392 . S
C1322 H1339 0.930 . S
C1323 O1308 1.255 . S
C1323 O1309 1.257 . S
C1324 Eu1260 2.787 . S
C1324 O1304 1.252 . S
C1324 O1307 1.268 . S
C1324 C1317 1.506 . S
C1325 C1292 1.439 . S
C1325 H1302 0.931 . S
C1325 C1326 1.374 . S
C1326 C1297 1.387 . S
C1326 H1303 0.931 . S
C1326 C1325 1.374 . S
C1327 O1311 1.249 . S
C1327 O1312 1.264 . S
C1328 C1331 1.382 . S
C1328 C1332 1.390 . S
C1328 C1335 1.506 . S
C1329 C1330 1.398 . S
C1329 C1332 1.392 . S
C1330 C1329 1.398 . S
C1330 C1333 1.372 . S
C1330 H1340 0.931 . S
C1331 C1328 1.382 . S
C1331 C1333 1.390 . S
C1331 H1341 0.931 . S
C1332 C1328 1.390 . S
C1332 C1329 1.392 . S
C1332 H1342 0.930 . S
C1333 C1330 1.372 . S
C1333 C1331 1.390 . S
C1333 H1343 0.929 . S
C1334 O1314 1.255 . S
C1334 O1315 1.257 . S
C1335 Eu1271 2.787 . S
C1335 O1310 1.252 . S
C1335 O1313 1.268 . S
C1335 C1328 1.506 . S
H1336 C1319 0.931 . S
H1337 C1320 0.931 . S
H1338 C1321 0.929 . S
H1339 C1322 0.930 . S
H1340 C1330 0.931 . S
H1341 C1331 0.931 . S
H1342 C1332 0.930 . S
H1343 C1333 0.929 . S
Eu1344 N1373 2.600 . S
Eu1344 N1379 2.562 . S
Eu1344 O1388 2.462 . S
Eu1344 O1389 2.373 . S
Eu1344 O1391 2.432 . S
Eu1344 O1392 2.291 . S
Eu1344 O1396 2.335 . S
Eu1344 O1399 2.372 . S
Eu1344 C1408 2.787 . S
C1345 N1346 1.365 . S
C1345 C1348 1.405 . S
C1345 C1352 1.448 . S
N1346 C1345 1.365 . S
N1346 C1349 1.319 . S
N1346 Eu1355 2.600 . S
C1347 C1349 1.397 . S
C1347 C1350 1.367 . S
C1347 H1367 0.931 . S
C1348 C1345 1.405 . S
C1348 C1350 1.403 . S
C1348 C1354 1.439 . S
C1349 N1346 1.319 . S
C1349 C1347 1.397 . S
C1349 H1360 0.930 . S
C1350 C1347 1.367 . S
C1350 C1348 1.403 . S
C1350 H1371 0.929 . S
C1351 C1352 1.430 . S
C1351 C1353 1.387 . S
C1351 C1357 1.404 . S
C1352 C1345 1.448 . S
C1352 C1351 1.430 . S
C1352 N1356 1.351 . S
C1353 C1351 1.387 . S
C1353 C1354 1.374 . S
C1353 H1368 0.931 . S
C1354 C1348 1.439 . S
C1354 C1353 1.374 . S
C1354 H1369 0.931 . S
Eu1355 N1346 2.600 . S
Eu1355 N1356 2.562 . S
Eu1355 O1390 2.335 . S
Eu1355 O1393 2.372 . S
Eu1355 O1394 2.462 . S
Eu1355 O1395 2.373 . S
Eu1355 O1397 2.432 . S
Eu1355 O1398 2.291 . S
Eu1355 C1419 2.787 . S
N1356 C1352 1.351 . S
N1356 Eu1355 2.562 . S
N1356 C1358 1.325 . S
C1357 C1351 1.404 . S
C1357 C1359 1.366 . S
C1357 H1365 0.930 . S
C1358 N1356 1.325 . S
C1358 C1359 1.416 . S
C1358 H1364 0.929 . S
C1359 C1357 1.366 . S
C1359 C1358 1.416 . S
C1359 H1361 0.930 . S
H1360 C1349 0.930 . S
H1361 C1359 0.930 . S
H1362 C1377 0.930 . S
H1363 C1384 0.930 . S
H1364 C1358 0.929 . S
H1365 C1357 0.930 . S
H1366 C1380 0.929 . S
H1367 C1347 0.931 . S
H1368 C1353 0.931 . S
H1369 C1354 0.931 . S
H1370 C1375 0.931 . S
H1371 C1350 0.929 . S
H1372 C1383 0.930 . S
N1373 Eu1344 2.600 . S
N1373 C1374 1.365 . S
N1373 C1377 1.319 . S
C1374 N1373 1.365 . S
C1374 C1376 1.405 . S
C1374 C1382 1.448 . S
C1375 H1370 0.931 . S
C1375 C1377 1.397 . S
C1375 C1378 1.367 . S
C1376 C1374 1.405 . S
C1376 C1378 1.403 . S
C1376 C1409 1.439 . S
C1377 H1362 0.930 . S
C1377 N1373 1.319 . S
C1377 C1375 1.397 . S
C1378 C1375 1.367 . S
C1378 C1376 1.403 . S
C1378 H1385 0.929 . S
N1379 Eu1344 2.562 . S
N1379 C1380 1.325 . S
N1379 C1382 1.351 . S
C1380 H1366 0.929 . S
C1380 N1379 1.325 . S
C1380 C1384 1.416 . S
C1381 C1382 1.430 . S
C1381 C1383 1.404 . S
C1381 C1410 1.387 . S
C1382 C1374 1.448 . S
C1382 N1379 1.351 . S
C1382 C1381 1.430 . S
C1383 H1372 0.930 . S
C1383 C1381 1.404 . S
C1383 C1384 1.366 . S
C1384 H1363 0.930 . S
C1384 C1380 1.416 . S
C1384 C1383 1.366 . S
H1385 C1378 0.929 . S
H1386 C1409 0.931 . S
H1387 C1410 0.931 . S
O1388 Eu1344 2.462 . S
O1388 C1408 1.252 . S
O1389 Eu1344 2.373 . S
O1389 C1400 1.249 . S
O1390 Eu1355 2.335 . S
O1390 C1400 1.264 . S
O1391 Eu1344 2.432 . S
O1391 C1408 1.268 . S
O1392 Eu1344 2.291 . S
O1392 C1407 1.255 . S
O1393 Eu1355 2.372 . S
O1393 C1407 1.257 . S
O1394 Eu1355 2.462 . S
O1394 C1419 1.252 . S
O1395 Eu1355 2.373 . S
O1395 C1411 1.249 . S
O1396 Eu1344 2.335 . S
O1396 C1411 1.264 . S
O1397 Eu1355 2.432 . S
O1397 C1419 1.268 . S
O1398 Eu1355 2.291 . S
O1398 C1418 1.255 . S
O1399 Eu1344 2.372 . S
O1399 C1418 1.257 . S
C1400 O1389 1.249 . S
C1400 O1390 1.264 . S
C1401 C1404 1.382 . S
C1401 C1406 1.390 . S
C1401 C1408 1.506 . S
C1402 C1403 1.398 . S
C1402 C1406 1.392 . S
C1403 C1402 1.398 . S
C1403 C1405 1.372 . S
C1403 H1420 0.931 . S
C1404 C1401 1.382 . S
C1404 C1405 1.390 . S
C1404 H1421 0.931 . S
C1405 C1403 1.372 . S
C1405 C1404 1.390 . S
C1405 H1422 0.929 . S
C1406 C1401 1.390 . S
C1406 C1402 1.392 . S
C1406 H1423 0.930 . S
C1407 O1392 1.255 . S
C1407 O1393 1.257 . S
C1408 Eu1344 2.787 . S
C1408 O1388 1.252 . S
C1408 O1391 1.268 . S
C1408 C1401 1.506 . S
C1409 C1376 1.439 . S
C1409 H1386 0.931 . S
C1409 C1410 1.374 . S
C1410 C1381 1.387 . S
C1410 H1387 0.931 . S
C1410 C1409 1.374 . S
C1411 O1395 1.249 . S
C1411 O1396 1.264 . S
C1412 C1415 1.382 . S
C1412 C1416 1.390 . S
C1412 C1419 1.506 . S
C1413 C1414 1.398 . S
C1413 C1416 1.392 . S
C1414 C1413 1.398 . S
C1414 C1417 1.372 . S
C1414 H1424 0.931 . S
C1415 C1412 1.382 . S
C1415 C1417 1.390 . S
C1415 H1425 0.931 . S
C1416 C1412 1.390 . S
C1416 C1413 1.392 . S
C1416 H1426 0.930 . S
C1417 C1414 1.372 . S
C1417 C1415 1.390 . S
C1417 H1427 0.929 . S
C1418 O1398 1.255 . S
C1418 O1399 1.257 . S
C1419 Eu1355 2.787 . S
C1419 O1394 1.252 . S
C1419 O1397 1.268 . S
C1419 C1412 1.506 . S
H1420 C1403 0.931 . S
H1421 C1404 0.931 . S
H1422 C1405 0.929 . S
H1423 C1406 0.930 . S
H1424 C1414 0.931 . S
H1425 C1415 0.931 . S
H1426 C1416 0.930 . S
H1427 C1417 0.929 . S
Eu1428 N1457 2.600 . S
Eu1428 N1463 2.562 . S
Eu1428 O1472 2.462 . S
Eu1428 O1473 2.373 . S
Eu1428 O1475 2.432 . S
Eu1428 O1476 2.291 . S
Eu1428 O1480 2.335 . S
Eu1428 O1483 2.372 . S
Eu1428 C1492 2.787 . S
C1429 N1430 1.365 . S
C1429 C1432 1.405 . S
C1429 C1436 1.448 . S
N1430 C1429 1.365 . S
N1430 C1433 1.319 . S
N1430 Eu1439 2.600 . S
C1431 C1433 1.397 . S
C1431 C1434 1.367 . S
C1431 H1451 0.931 . S
C1432 C1429 1.405 . S
C1432 C1434 1.403 . S
C1432 C1438 1.439 . S
C1433 N1430 1.319 . S
C1433 C1431 1.397 . S
C1433 H1444 0.930 . S
C1434 C1431 1.367 . S
C1434 C1432 1.403 . S
C1434 H1455 0.929 . S
C1435 C1436 1.430 . S
C1435 C1437 1.387 . S
C1435 C1441 1.404 . S
C1436 C1429 1.448 . S
C1436 C1435 1.430 . S
C1436 N1440 1.351 . S
C1437 C1435 1.387 . S
C1437 C1438 1.374 . S
C1437 H1452 0.931 . S
C1438 C1432 1.439 . S
C1438 C1437 1.374 . S
C1438 H1453 0.931 . S
Eu1439 N1430 2.600 . S
Eu1439 N1440 2.562 . S
Eu1439 O1474 2.335 . S
Eu1439 O1477 2.372 . S
Eu1439 O1478 2.462 . S
Eu1439 O1479 2.373 . S
Eu1439 O1481 2.432 . S
Eu1439 O1482 2.291 . S
Eu1439 C1503 2.787 . S
N1440 C1436 1.351 . S
N1440 Eu1439 2.562 . S
N1440 C1442 1.325 . S
C1441 C1435 1.404 . S
C1441 C1443 1.366 . S
C1441 H1449 0.930 . S
C1442 N1440 1.325 . S
C1442 C1443 1.416 . S
C1442 H1448 0.929 . S
C1443 C1441 1.366 . S
C1443 C1442 1.416 . S
C1443 H1445 0.930 . S
H1444 C1433 0.930 . S
H1445 C1443 0.930 . S
H1446 C1461 0.930 . S
H1447 C1468 0.930 . S
H1448 C1442 0.929 . S
H1449 C1441 0.930 . S
H1450 C1464 0.929 . S
H1451 C1431 0.931 . S
H1452 C1437 0.931 . S
H1453 C1438 0.931 . S
H1454 C1459 0.931 . S
H1455 C1434 0.929 . S
H1456 C1467 0.930 . S
N1457 Eu1428 2.600 . S
N1457 C1458 1.365 . S
N1457 C1461 1.319 . S
C1458 N1457 1.365 . S
C1458 C1460 1.405 . S
C1458 C1466 1.448 . S
C1459 H1454 0.931 . S
C1459 C1461 1.397 . S
C1459 C1462 1.367 . S
C1460 C1458 1.405 . S
C1460 C1462 1.403 . S
C1460 C1493 1.439 . S
C1461 H1446 0.930 . S
C1461 N1457 1.319 . S
C1461 C1459 1.397 . S
C1462 C1459 1.367 . S
C1462 C1460 1.403 . S
C1462 H1469 0.929 . S
N1463 Eu1428 2.562 . S
N1463 C1464 1.325 . S
N1463 C1466 1.351 . S
C1464 H1450 0.929 . S
C1464 N1463 1.325 . S
C1464 C1468 1.416 . S
C1465 C1466 1.430 . S
C1465 C1467 1.404 . S
C1465 C1494 1.387 . S
C1466 C1458 1.448 . S
C1466 N1463 1.351 . S
C1466 C1465 1.430 . S
C1467 H1456 0.930 . S
C1467 C1465 1.404 . S
C1467 C1468 1.366 . S
C1468 H1447 0.930 . S
C1468 C1464 1.416 . S
C1468 C1467 1.366 . S
H1469 C1462 0.929 . S
H1470 C1493 0.931 . S
H1471 C1494 0.931 . S
O1472 Eu1428 2.462 . S
O1472 C1492 1.252 . S
O1473 Eu1428 2.373 . S
O1473 C1484 1.249 . S
O1474 Eu1439 2.335 . S
O1474 C1484 1.264 . S
O1475 Eu1428 2.432 . S
O1475 C1492 1.268 . S
O1476 Eu1428 2.291 . S
O1476 C1491 1.255 . S
O1477 Eu1439 2.372 . S
O1477 C1491 1.257 . S
O1478 Eu1439 2.462 . S
O1478 C1503 1.252 . S
O1479 Eu1439 2.373 . S
O1479 C1495 1.249 . S
O1480 Eu1428 2.335 . S
O1480 C1495 1.264 . S
O1481 Eu1439 2.432 . S
O1481 C1503 1.268 . S
O1482 Eu1439 2.291 . S
O1482 C1502 1.255 . S
O1483 Eu1428 2.372 . S
O1483 C1502 1.257 . S
C1484 O1473 1.249 . S
C1484 O1474 1.264 . S
C1485 C1488 1.382 . S
C1485 C1490 1.390 . S
C1485 C1492 1.506 . S
C1486 C1487 1.398 . S
C1486 C1490 1.392 . S
C1487 C1486 1.398 . S
C1487 C1489 1.372 . S
C1487 H1504 0.931 . S
C1488 C1485 1.382 . S
C1488 C1489 1.390 . S
C1488 H1505 0.931 . S
C1489 C1487 1.372 . S
C1489 C1488 1.390 . S
C1489 H1506 0.929 . S
C1490 C1485 1.390 . S
C1490 C1486 1.392 . S
C1490 H1507 0.930 . S
C1491 O1476 1.255 . S
C1491 O1477 1.257 . S
C1492 Eu1428 2.787 . S
C1492 O1472 1.252 . S
C1492 O1475 1.268 . S
C1492 C1485 1.506 . S
C1493 C1460 1.439 . S
C1493 H1470 0.931 . S
C1493 C1494 1.374 . S
C1494 C1465 1.387 . S
C1494 H1471 0.931 . S
C1494 C1493 1.374 . S
C1495 O1479 1.249 . S
C1495 O1480 1.264 . S
C1496 C1499 1.382 . S
C1496 C1500 1.390 . S
C1496 C1503 1.506 . S
C1497 C1498 1.398 . S
C1497 C1500 1.392 . S
C1498 C1497 1.398 . S
C1498 C1501 1.372 . S
C1498 H1508 0.931 . S
C1499 C1496 1.382 . S
C1499 C1501 1.390 . S
C1499 H1509 0.931 . S
C1500 C1496 1.390 . S
C1500 C1497 1.392 . S
C1500 H1510 0.930 . S
C1501 C1498 1.372 . S
C1501 C1499 1.390 . S
C1501 H1511 0.929 . S
C1502 O1482 1.255 . S
C1502 O1483 1.257 . S
C1503 Eu1439 2.787 . S
C1503 O1478 1.252 . S
C1503 O1481 1.268 . S
C1503 C1496 1.506 . S
H1504 C1487 0.931 . S
H1505 C1488 0.931 . S
H1506 C1489 0.929 . S
H1507 C1490 0.930 . S
H1508 C1498 0.931 . S
H1509 C1499 0.931 . S
H1510 C1500 0.930 . S
H1511 C1501 0.929 . S
Eu1512 N1541 2.600 . S
Eu1512 N1547 2.562 . S
Eu1512 O1556 2.462 . S
Eu1512 O1557 2.373 . S
Eu1512 O1559 2.432 . S
Eu1512 O1560 2.291 . S
Eu1512 O1564 2.335 . S
Eu1512 O1567 2.372 . S
Eu1512 C1576 2.787 . S
C1513 N1514 1.365 . S
C1513 C1516 1.405 . S
C1513 C1520 1.448 . S
N1514 C1513 1.365 . S
N1514 C1517 1.319 . S
N1514 Eu1523 2.600 . S
C1515 C1517 1.397 . S
C1515 C1518 1.367 . S
C1515 H1535 0.931 . S
C1516 C1513 1.405 . S
C1516 C1518 1.403 . S
C1516 C1522 1.439 . S
C1517 N1514 1.319 . S
C1517 C1515 1.397 . S
C1517 H1528 0.930 . S
C1518 C1515 1.367 . S
C1518 C1516 1.403 . S
C1518 H1539 0.929 . S
C1519 C1520 1.430 . S
C1519 C1521 1.387 . S
C1519 C1525 1.404 . S
C1520 C1513 1.448 . S
C1520 C1519 1.430 . S
C1520 N1524 1.351 . S
C1521 C1519 1.387 . S
C1521 C1522 1.374 . S
C1521 H1536 0.931 . S
C1522 C1516 1.439 . S
C1522 C1521 1.374 . S
C1522 H1537 0.931 . S
Eu1523 N1514 2.600 . S
Eu1523 N1524 2.562 . S
Eu1523 O1558 2.335 . S
Eu1523 O1561 2.372 . S
Eu1523 O1562 2.462 . S
Eu1523 O1563 2.373 . S
Eu1523 O1565 2.432 . S
Eu1523 O1566 2.291 . S
Eu1523 C1587 2.787 . S
N1524 C1520 1.351 . S
N1524 Eu1523 2.562 . S
N1524 C1526 1.325 . S
C1525 C1519 1.404 . S
C1525 C1527 1.366 . S
C1525 H1533 0.930 . S
C1526 N1524 1.325 . S
C1526 C1527 1.416 . S
C1526 H1532 0.929 . S
C1527 C1525 1.366 . S
C1527 C1526 1.416 . S
C1527 H1529 0.930 . S
H1528 C1517 0.930 . S
H1529 C1527 0.930 . S
H1530 C1545 0.930 . S
H1531 C1552 0.930 . S
H1532 C1526 0.929 . S
H1533 C1525 0.930 . S
H1534 C1548 0.929 . S
H1535 C1515 0.931 . S
H1536 C1521 0.931 . S
H1537 C1522 0.931 . S
H1538 C1543 0.931 . S
H1539 C1518 0.929 . S
H1540 C1551 0.930 . S
N1541 Eu1512 2.600 . S
N1541 C1542 1.365 . S
N1541 C1545 1.319 . S
C1542 N1541 1.365 . S
C1542 C1544 1.405 . S
C1542 C1550 1.448 . S
C1543 H1538 0.931 . S
C1543 C1545 1.397 . S
C1543 C1546 1.367 . S
C1544 C1542 1.405 . S
C1544 C1546 1.403 . S
C1544 C1577 1.439 . S
C1545 H1530 0.930 . S
C1545 N1541 1.319 . S
C1545 C1543 1.397 . S
C1546 C1543 1.367 . S
C1546 C1544 1.403 . S
C1546 H1553 0.929 . S
N1547 Eu1512 2.562 . S
N1547 C1548 1.325 . S
N1547 C1550 1.351 . S
C1548 H1534 0.929 . S
C1548 N1547 1.325 . S
C1548 C1552 1.416 . S
C1549 C1550 1.430 . S
C1549 C1551 1.404 . S
C1549 C1578 1.387 . S
C1550 C1542 1.448 . S
C1550 N1547 1.351 . S
C1550 C1549 1.430 . S
C1551 H1540 0.930 . S
C1551 C1549 1.404 . S
C1551 C1552 1.366 . S
C1552 H1531 0.930 . S
C1552 C1548 1.416 . S
C1552 C1551 1.366 . S
H1553 C1546 0.929 . S
H1554 C1577 0.931 . S
H1555 C1578 0.931 . S
O1556 Eu1512 2.462 . S
O1556 C1576 1.252 . S
O1557 Eu1512 2.373 . S
O1557 C1568 1.249 . S
O1558 Eu1523 2.335 . S
O1558 C1568 1.264 . S
O1559 Eu1512 2.432 . S
O1559 C1576 1.268 . S
O1560 Eu1512 2.291 . S
O1560 C1575 1.255 . S
O1561 Eu1523 2.372 . S
O1561 C1575 1.257 . S
O1562 Eu1523 2.462 . S
O1562 C1587 1.252 . S
O1563 Eu1523 2.373 . S
O1563 C1579 1.249 . S
O1564 Eu1512 2.335 . S
O1564 C1579 1.264 . S
O1565 Eu1523 2.432 . S
O1565 C1587 1.268 . S
O1566 Eu1523 2.291 . S
O1566 C1586 1.255 . S
O1567 Eu1512 2.372 . S
O1567 C1586 1.257 . S
C1568 O1557 1.249 . S
C1568 O1558 1.264 . S
C1569 C1572 1.382 . S
C1569 C1574 1.390 . S
C1569 C1576 1.506 . S
C1570 C1571 1.398 . S
C1570 C1574 1.392 . S
C1571 C1570 1.398 . S
C1571 C1573 1.372 . S
C1571 H1588 0.931 . S
C1572 C1569 1.382 . S
C1572 C1573 1.390 . S
C1572 H1589 0.931 . S
C1573 C1571 1.372 . S
C1573 C1572 1.390 . S
C1573 H1590 0.929 . S
C1574 C1569 1.390 . S
C1574 C1570 1.392 . S
C1574 H1591 0.930 . S
C1575 O1560 1.255 . S
C1575 O1561 1.257 . S
C1576 Eu1512 2.787 . S
C1576 O1556 1.252 . S
C1576 O1559 1.268 . S
C1576 C1569 1.506 . S
C1577 C1544 1.439 . S
C1577 H1554 0.931 . S
C1577 C1578 1.374 . S
C1578 C1549 1.387 . S
C1578 H1555 0.931 . S
C1578 C1577 1.374 . S
C1579 O1563 1.249 . S
C1579 O1564 1.264 . S
C1580 C1583 1.382 . S
C1580 C1584 1.390 . S
C1580 C1587 1.506 . S
C1581 C1582 1.398 . S
C1581 C1584 1.392 . S
C1582 C1581 1.398 . S
C1582 C1585 1.372 . S
C1582 H1592 0.931 . S
C1583 C1580 1.382 . S
C1583 C1585 1.390 . S
C1583 H1593 0.931 . S
C1584 C1580 1.390 . S
C1584 C1581 1.392 . S
C1584 H1594 0.930 . S
C1585 C1582 1.372 . S
C1585 C1583 1.390 . S
C1585 H1595 0.929 . S
C1586 O1566 1.255 . S
C1586 O1567 1.257 . S
C1587 Eu1523 2.787 . S
C1587 O1562 1.252 . S
C1587 O1565 1.268 . S
C1587 C1580 1.506 . S
H1588 C1571 0.931 . S
H1589 C1572 0.931 . S
H1590 C1573 0.929 . S
H1591 C1574 0.930 . S
H1592 C1582 0.931 . S
H1593 C1583 0.931 . S
H1594 C1584 0.930 . S
H1595 C1585 0.929 . S
Eu1596 N1625 2.610 . S
Eu1596 N1631 2.588 . S
Eu1596 O1640 2.497 . S
Eu1596 O1641 2.351 1_655 S
Eu1596 O1643 2.460 . S
Eu1596 O1644 2.278 1_655 S
Eu1596 O1648 2.324 1_655 S
Eu1596 O1651 2.343 1_655 S
Eu1596 C1660 2.822 . S
C1597 N1598 1.365 . S
C1597 C1600 1.405 . S
C1597 C1604 1.448 1_556 S
N1598 C1597 1.365 . S
N1598 C1601 1.319 . S
N1598 Eu1607 2.600 1_556 S
C1599 C1601 1.397 . S
C1599 C1602 1.367 . S
C1599 H1619 0.931 . S
C1600 C1597 1.405 . S
C1600 C1602 1.403 . S
C1600 C1606 1.439 . S
C1601 N1598 1.319 . S
C1601 C1599 1.397 . S
C1601 H1612 0.930 . S
C1602 C1599 1.367 . S
C1602 C1600 1.403 . S
C1602 H1623 0.929 . S
C1603 C1604 1.430 . S
C1603 C1605 1.387 . S
C1603 C1609 1.404 . S
C1604 C1597 1.448 1_554 S
C1604 C1603 1.430 . S
C1604 N1608 1.351 . S
C1605 C1603 1.387 . S
C1605 C1606 1.374 1_554 S
C1605 H1620 0.931 . S
C1606 C1600 1.439 . S
C1606 C1605 1.374 1_556 S
C1606 H1621 0.931 . S
Eu1607 N1598 2.600 1_554 S
Eu1607 N1608 2.562 . S
Eu1607 O1642 2.335 . S
Eu1607 O1645 2.372 1_554 S
Eu1607 O1646 2.462 . S
Eu1607 O1647 2.373 . S
Eu1607 O1649 2.432 1_554 S
Eu1607 O1650 2.291 . S
Eu1607 C1671 2.787 . S
N1608 C1604 1.351 . S
N1608 Eu1607 2.562 . S
N1608 C1610 1.325 . S
C1609 C1603 1.404 . S
C1609 C1611 1.366 . S
C1609 H1617 0.930 . S
C1610 N1608 1.325 . S
C1610 C1611 1.416 . S
C1610 H1616 0.929 . S
C1611 C1609 1.366 . S
C1611 C1610 1.416 . S
C1611 H1613 0.930 . S
H1612 C1601 0.930 . S
H1613 C1611 0.930 . S
H1614 C1629 0.930 1_455 S
H1615 C1636 0.930 1_556 S
H1616 C1610 0.929 . S
H1617 C1609 0.930 . S
H1618 C1632 0.929 . S
H1619 C1599 0.931 . S
H1620 C1605 0.931 . S
H1621 C1606 0.931 . S
H1622 C1627 0.931 1_455 S
H1623 C1602 0.929 . S
H1624 C1635 0.930 . S
N1625 Eu1596 2.610 . S
N1625 C1626 1.365 . S
N1625 C1629 1.319 . S
C1626 N1625 1.365 . S
C1626 C1628 1.405 . S
C1626 C1634 1.448 . S
C1627 H1622 0.931 1_655 S
C1627 C1629 1.397 . S
C1627 C1630 1.367 . S
C1628 C1626 1.405 . S
C1628 C1630 1.403 . S
C1628 C1661 1.439 . S
C1629 H1614 0.930 1_655 S
C1629 N1625 1.319 . S
C1629 C1627 1.397 . S
C1630 C1627 1.367 . S
C1630 C1628 1.403 . S
C1630 H1637 0.929 . S
N1631 Eu1596 2.588 . S
N1631 C1632 1.325 . S
N1631 C1634 1.351 . S
C1632 H1618 0.929 . S
C1632 N1631 1.325 . S
C1632 C1636 1.416 . S
C1633 C1634 1.430 . S
C1633 C1635 1.404 . S
C1633 C1662 1.387 . S
C1634 C1626 1.448 . S
C1634 N1631 1.351 . S
C1634 C1633 1.430 . S
C1635 H1624 0.930 . S
C1635 C1633 1.404 . S
C1635 C1636 1.366 . S
C1636 H1615 0.930 1_554 S
C1636 C1632 1.416 . S
C1636 C1635 1.366 . S
H1637 C1630 0.929 . S
H1638 C1661 0.931 . S
H1639 C1662 0.931 . S
O1640 Eu1596 2.497 . S
O1640 C1660 1.252 . S
O1641 Eu1596 2.351 1_455 S
O1641 C1652 1.249 . S
O1642 Eu1607 2.335 . S
O1642 C1652 1.264 . S
O1643 Eu1596 2.460 . S
O1643 C1660 1.268 . S
O1644 Eu1596 2.278 1_455 S
O1644 C1659 1.274 1_554 S
O1645 Eu1607 2.372 1_556 S
O1645 C1659 1.257 . S
O1646 Eu1607 2.462 . S
O1646 C1671 1.252 . S
O1647 Eu1607 2.373 . S
O1647 C1663 1.249 . S
O1648 Eu1596 2.324 1_455 S
O1648 C1663 1.264 . S
O1649 Eu1607 2.432 1_556 S
O1649 C1671 1.268 1_556 S
O1650 Eu1607 2.291 . S
O1650 C1670 1.255 . S
O1651 Eu1596 2.343 1_455 S
O1651 C1670 1.257 . S
C1652 O1641 1.249 . S
C1652 O1642 1.264 . S
C1653 C1656 1.382 . S
C1653 C1658 1.390 . S
C1653 C1660 1.506 . S
C1654 C1655 1.398 . S
C1654 C1658 1.392 . S
C1655 C1654 1.398 . S
C1655 C1657 1.372 . S
C1655 H1672 0.931 . S
C1656 C1653 1.382 . S
C1656 C1657 1.390 . S
C1656 H1673 0.931 . S
C1657 C1655 1.372 . S
C1657 C1656 1.390 . S
C1657 H1674 0.929 . S
C1658 C1653 1.390 . S
C1658 C1654 1.392 . S
C1658 H1675 0.930 . S
C1659 O1644 1.274 1_556 S
C1659 O1645 1.257 . S
C1660 Eu1596 2.822 . S
C1660 O1640 1.252 . S
C1660 O1643 1.268 . S
C1660 C1653 1.506 . S
C1661 C1628 1.439 . S
C1661 H1638 0.931 . S
C1661 C1662 1.374 . S
C1662 C1633 1.387 . S
C1662 H1639 0.931 . S
C1662 C1661 1.374 . S
C1663 O1647 1.249 . S
C1663 O1648 1.264 . S
C1664 C1667 1.382 1_554 S
C1664 C1668 1.390 . S
C1664 C1671 1.506 . S
C1665 C1666 1.398 1_554 S
C1665 C1668 1.392 . S
C1666 C1665 1.398 1_556 S
C1666 C1669 1.372 . S
C1666 H1676 0.931 . S
C1667 C1664 1.382 1_556 S
C1667 C1669 1.390 . S
C1667 H1677 0.931 . S
C1668 C1664 1.390 . S
C1668 C1665 1.392 . S
C1668 H1678 0.930 . S
C1669 C1666 1.372 . S
C1669 C1667 1.390 . S
C1669 H1679 0.929 . S
C1670 O1650 1.255 . S
C1670 O1651 1.257 . S
C1671 Eu1607 2.787 . S
C1671 O1646 1.252 . S
C1671 O1649 1.268 1_554 S
C1671 C1664 1.506 . S
H1672 C1655 0.931 . S
H1673 C1656 0.931 . S
H1674 C1657 0.929 . S
H1675 C1658 0.930 . S
H1676 C1666 0.931 . S
H1677 C1667 0.931 . S
H1678 C1668 0.930 . S
H1679 C1669 0.929 . S
C1680 C1681 1.355 1_655 S
C1680 C1682 1.394 . S
C1680 H1696 0.931 . S
C1681 C1680 1.355 1_455 S
C1681 C1685 1.429 . S
C1682 C1680 1.394 . S
C1682 C1683 1.369 1_655 S
C1682 C1686 1.531 1_556 S
C1683 C1682 1.369 1_455 S
C1683 C1684 1.410 . S
C1683 C1691 1.514 . S
C1684 C1683 1.410 . S
C1684 C1685 1.392 . S
C1684 C1687 1.511 . S
C1685 C1681 1.429 . S
C1685 C1684 1.392 . S
C1685 H1697 0.929 . S
C1686 C1682 1.531 1_554 S
C1686 H1698 0.955 1_554 S
C1686 H1699 0.962 . S
C1686 H1700 0.960 1_554 S
C1687 C1684 1.511 . S
C1687 H1701 0.961 . S
C1687 H1702 0.961 . S
C1687 H1703 0.961 . S
C1688 C1689 1.370 . S
C1688 C1690 1.363 . S
C1688 H1704 0.931 . S
C1689 C1688 1.370 . S
C1689 C1693 1.408 1_554 S
C1690 C1688 1.363 . S
C1690 C1691 1.350 1_554 S
C1690 C1694 1.524 . S
C1691 C1683 1.514 . S
C1691 C1690 1.350 1_556 S
C1691 C1692 1.413 . S
C1692 C1691 1.413 . S
C1692 C1693 1.404 . S
C1692 C1695 1.539 1_455 S
C1693 C1689 1.408 1_556 S
C1693 C1692 1.404 . S
C1693 H1705 0.930 . S
C1694 C1690 1.524 . S
C1694 H1706 0.956 . S
C1694 H1707 0.961 . S
C1694 H1708 0.961 . S
C1695 C1692 1.539 1_655 S
C1695 H1709 0.958 . S
C1695 H1710 0.961 1_655 S
C1695 H1711 0.960 1_655 S
H1696 C1680 0.931 . S
H1697 C1685 0.929 . S
H1698 C1686 0.955 1_556 S
H1699 C1686 0.962 . S
H1700 C1686 0.960 1_556 S
H1701 C1687 0.961 . S
H1702 C1687 0.961 . S
H1703 C1687 0.961 . S
H1704 C1688 0.931 . S
H1705 C1693 0.930 . S
H1706 C1694 0.956 . S
H1707 C1694 0.961 . S
H1708 C1694 0.961 . S
H1709 C1695 0.958 . S
H1710 C1695 0.961 1_455 S
H1711 C1695 0.960 1_455 S
C1712 C1713 1.391 . S
C1712 C1714 1.394 . S
C1712 H1728 0.931 . S
C1713 C1712 1.391 . S
C1713 C1717 1.376 . S
C1714 C1712 1.394 . S
C1714 C1715 1.369 . S
C1714 C1718 1.531 . S
C1715 C1714 1.369 . S
C1715 C1716 1.410 . S
C1715 C1723 1.503 . S
C1716 C1715 1.410 . S
C1716 C1717 1.392 . S
C1716 C1719 1.511 . S
C1717 C1713 1.376 . S
C1717 C1716 1.392 . S
C1717 H1729 0.929 . S
C1718 C1714 1.531 . S
C1718 H1730 0.960 . S
C1718 H1731 0.962 . S
C1718 H1732 0.960 . S
C1719 C1716 1.511 . S
C1719 H1733 0.961 . S
C1719 H1734 0.961 . S
C1719 H1735 0.961 . S
C1720 C1721 1.370 . S
C1720 C1722 1.363 . S
C1720 H1736 0.931 . S
C1721 C1720 1.370 . S
C1721 C1725 1.408 . S
C1722 C1720 1.363 . S
C1722 C1723 1.370 . S
C1722 C1726 1.524 . S
C1723 C1715 1.503 . S
C1723 C1722 1.370 . S
C1723 C1724 1.403 . S
C1724 C1723 1.403 . S
C1724 C1725 1.404 . S
C1724 C1727 1.539 . S
C1725 C1721 1.408 . S
C1725 C1724 1.404 . S
C1725 H1737 0.930 . S
C1726 C1722 1.524 . S
C1726 H1738 0.956 . S
C1726 H1739 0.961 . S
C1726 H1740 0.961 . S
C1727 C1724 1.539 . S
C1727 H1741 0.958 . S
C1727 H1742 0.961 . S
C1727 H1743 0.960 . S
H1728 C1712 0.931 . S
H1729 C1717 0.929 . S
H1730 C1718 0.960 . S
H1731 C1718 0.962 . S
H1732 C1718 0.960 . S
H1733 C1719 0.961 . S
H1734 C1719 0.961 . S
H1735 C1719 0.961 . S
H1736 C1720 0.931 . S
H1737 C1725 0.930 . S
H1738 C1726 0.956 . S
H1739 C1726 0.961 . S
H1740 C1726 0.961 . S
H1741 C1727 0.958 . S
H1742 C1727 0.961 . S
H1743 C1727 0.960 . S
C1744 C1745 1.391 . S
C1744 C1746 1.394 . S
C1744 H1760 0.931 . S
C1745 C1744 1.391 . S
C1745 C1749 1.376 . S
C1746 C1744 1.394 . S
C1746 C1747 1.369 . S
C1746 C1750 1.531 . S
C1747 C1746 1.369 . S
C1747 C1748 1.410 . S
C1747 C1755 1.503 . S
C1748 C1747 1.410 . S
C1748 C1749 1.392 . S
C1748 C1751 1.511 . S
C1749 C1745 1.376 . S
C1749 C1748 1.392 . S
C1749 H1761 0.929 . S
C1750 C1746 1.531 . S
C1750 H1762 0.960 . S
C1750 H1763 0.962 . S
C1750 H1764 0.960 . S
C1751 C1748 1.511 . S
C1751 H1765 0.961 . S
C1751 H1766 0.961 . S
C1751 H1767 0.961 . S
C1752 C1753 1.370 . S
C1752 C1754 1.363 . S
C1752 H1768 0.931 . S
C1753 C1752 1.370 . S
C1753 C1757 1.408 . S
C1754 C1752 1.363 . S
C1754 C1755 1.370 . S
C1754 C1758 1.524 . S
C1755 C1747 1.503 . S
C1755 C1754 1.370 . S
C1755 C1756 1.403 . S
C1756 C1755 1.403 . S
C1756 C1757 1.404 . S
C1756 C1759 1.539 . S
C1757 C1753 1.408 . S
C1757 C1756 1.404 . S
C1757 H1769 0.930 . S
C1758 C1754 1.524 . S
C1758 H1770 0.956 . S
C1758 H1771 0.961 . S
C1758 H1772 0.961 . S
C1759 C1756 1.539 . S
C1759 H1773 0.958 . S
C1759 H1774 0.961 . S
C1759 H1775 0.960 . S
H1760 C1744 0.931 . S
H1761 C1749 0.929 . S
H1762 C1750 0.960 . S
H1763 C1750 0.962 . S
H1764 C1750 0.960 . S
H1765 C1751 0.961 . S
H1766 C1751 0.961 . S
H1767 C1751 0.961 . S
H1768 C1752 0.931 . S
H1769 C1757 0.930 . S
H1770 C1758 0.956 . S
H1771 C1758 0.961 . S
H1772 C1758 0.961 . S
H1773 C1759 0.958 . S
H1774 C1759 0.961 . S
H1775 C1759 0.960 . S
C1776 C1777 1.391 . S
C1776 C1778 1.394 . S
C1776 H1792 0.931 . S
C1777 C1776 1.391 . S
C1777 C1781 1.376 . S
C1778 C1776 1.394 . S
C1778 C1779 1.369 . S
C1778 C1782 1.531 . S
C1779 C1778 1.369 . S
C1779 C1780 1.410 . S
C1779 C1787 1.503 . S
C1780 C1779 1.410 . S
C1780 C1781 1.392 . S
C1780 C1783 1.511 . S
C1781 C1777 1.376 . S
C1781 C1780 1.392 . S
C1781 H1793 0.929 . S
C1782 C1778 1.531 . S
C1782 H1794 0.960 . S
C1782 H1795 0.962 . S
C1782 H1796 0.960 . S
C1783 C1780 1.511 . S
C1783 H1797 0.961 . S
C1783 H1798 0.961 . S
C1783 H1799 0.961 . S
C1784 C1785 1.370 . S
C1784 C1786 1.363 . S
C1784 H1800 0.931 . S
C1785 C1784 1.370 . S
C1785 C1789 1.408 . S
C1786 C1784 1.363 . S
C1786 C1787 1.370 . S
C1786 C1790 1.524 . S
C1787 C1779 1.503 . S
C1787 C1786 1.370 . S
C1787 C1788 1.403 . S
C1788 C1787 1.403 . S
C1788 C1789 1.404 . S
C1788 C1791 1.539 . S
C1789 C1785 1.408 . S
C1789 C1788 1.404 . S
C1789 H1801 0.930 . S
C1790 C1786 1.524 . S
C1790 H1802 0.956 . S
C1790 H1803 0.961 . S
C1790 H1804 0.961 . S
C1791 C1788 1.539 . S
C1791 H1805 0.958 . S
C1791 H1806 0.961 . S
C1791 H1807 0.960 . S
H1792 C1776 0.931 . S
H1793 C1781 0.929 . S
H1794 C1782 0.960 . S
H1795 C1782 0.962 . S
H1796 C1782 0.960 . S
H1797 C1783 0.961 . S
H1798 C1783 0.961 . S
H1799 C1783 0.961 . S
H1800 C1784 0.931 . S
H1801 C1789 0.930 . S
H1802 C1790 0.956 . S
H1803 C1790 0.961 . S
H1804 C1790 0.961 . S
H1805 C1791 0.958 . S
H1806 C1791 0.961 . S
H1807 C1791 0.960 . S
C1808 C1809 1.391 . S
C1808 C1810 1.394 . S
C1808 H1824 0.931 1_455 S
C1809 C1808 1.391 . S
C1809 C1813 1.376 . S
C1810 C1808 1.394 . S
C1810 C1811 1.369 . S
C1810 C1814 1.531 1_455 S
C1811 C1810 1.369 . S
C1811 C1812 1.410 . S
C1811 C1819 1.503 . S
C1812 C1811 1.410 . S
C1812 C1813 1.392 . S
C1812 C1815 1.511 . S
C1813 C1809 1.376 . S
C1813 C1812 1.392 . S
C1813 H1825 0.929 . S
C1814 C1810 1.531 1_655 S
C1814 H1826 0.960 1_655 S
C1814 H1827 0.962 . S
C1814 H1828 0.960 . S
C1815 C1812 1.511 . S
C1815 H1829 0.961 . S
C1815 H1830 0.961 . S
C1815 H1831 0.961 . S
C1816 C1817 1.370 . S
C1816 C1818 1.363 . S
C1816 H1832 0.931 . S
C1817 C1816 1.370 . S
C1817 C1821 1.408 . S
C1818 C1816 1.363 . S
C1818 C1819 1.370 . S
C1818 C1822 1.524 . S
C1819 C1811 1.503 . S
C1819 C1818 1.370 . S
C1819 C1820 1.403 . S
C1820 C1819 1.403 . S
C1820 C1821 1.404 . S
C1820 C1823 1.539 . S
C1821 C1817 1.408 . S
C1821 C1820 1.404 . S
C1821 H1833 0.930 . S
C1822 C1818 1.524 . S
C1822 H1834 0.956 1_455 S
C1822 H1835 0.961 . S
C1822 H1836 0.961 . S
C1823 C1820 1.539 . S
C1823 H1837 0.958 . S
C1823 H1838 0.961 . S
C1823 H1839 0.960 . S
H1824 C1808 0.931 1_655 S
H1825 C1813 0.929 . S
H1826 C1814 0.960 1_455 S
H1827 C1814 0.962 . S
H1828 C1814 0.960 . S
H1829 C1815 0.961 . S
H1830 C1815 0.961 . S
H1831 C1815 0.961 . S
H1832 C1816 0.931 . S
H1833 C1821 0.930 . S
H1834 C1822 0.956 1_655 S
H1835 C1822 0.961 . S
H1836 C1822 0.961 . S
H1837 C1823 0.958 . S
H1838 C1823 0.961 . S
H1839 C1823 0.960 . S
C1840 C1841 1.391 . S
C1840 C1842 1.394 . S
C1840 H1856 0.931 . S
C1841 C1840 1.391 . S
C1841 C1845 1.376 . S
C1842 C1840 1.394 . S
C1842 C1843 1.369 . S
C1842 C1846 1.531 . S
C1843 C1842 1.369 . S
C1843 C1844 1.410 . S
C1843 C1851 1.503 . S
C1844 C1843 1.410 . S
C1844 C1845 1.392 . S
C1844 C1847 1.511 . S
C1845 C1841 1.376 . S
C1845 C1844 1.392 . S
C1845 H1857 0.929 . S
C1846 C1842 1.531 . S
C1846 H1858 0.960 . S
C1846 H1859 0.962 . S
C1846 H1860 0.960 . S
C1847 C1844 1.511 . S
C1847 H1861 0.961 . S
C1847 H1862 0.961 . S
C1847 H1863 0.961 . S
C1848 C1849 1.370 . S
C1848 C1850 1.363 . S
C1848 H1864 0.931 . S
C1849 C1848 1.370 . S
C1849 C1853 1.408 . S
C1850 C1848 1.363 . S
C1850 C1851 1.370 . S
C1850 C1854 1.524 . S
C1851 C1843 1.503 . S
C1851 C1850 1.370 . S
C1851 C1852 1.403 . S
C1852 C1851 1.403 . S
C1852 C1853 1.404 . S
C1852 C1855 1.539 . S
C1853 C1849 1.408 . S
C1853 C1852 1.404 . S
C1853 H1865 0.930 . S
C1854 C1850 1.524 . S
C1854 H1866 0.956 . S
C1854 H1867 0.961 . S
C1854 H1868 0.961 . S
C1855 C1852 1.539 . S
C1855 H1869 0.958 . S
C1855 H1870 0.961 . S
C1855 H1871 0.960 . S
H1856 C1840 0.931 . S
H1857 C1845 0.929 . S
H1858 C1846 0.960 . S
H1859 C1846 0.962 . S
H1860 C1846 0.960 . S
H1861 C1847 0.961 . S
H1862 C1847 0.961 . S
H1863 C1847 0.961 . S
H1864 C1848 0.931 . S
H1865 C1853 0.930 . S
H1866 C1854 0.956 . S
H1867 C1854 0.961 . S
H1868 C1854 0.961 . S
H1869 C1855 0.958 . S
H1870 C1855 0.961 . S
H1871 C1855 0.960 . S
C1872 C1873 1.391 . S
C1872 C1874 1.394 . S
C1872 H1888 0.931 . S
C1873 C1872 1.391 . S
C1873 C1877 1.376 . S
C1874 C1872 1.394 . S
C1874 C1875 1.369 . S
C1874 C1878 1.531 . S
C1875 C1874 1.369 . S
C1875 C1876 1.410 . S
C1875 C1883 1.503 . S
C1876 C1875 1.410 . S
C1876 C1877 1.392 . S
C1876 C1879 1.511 . S
C1877 C1873 1.376 . S
C1877 C1876 1.392 . S
C1877 H1889 0.929 . S
C1878 C1874 1.531 . S
C1878 H1890 0.960 . S
C1878 H1891 0.962 . S
C1878 H1892 0.960 . S
C1879 C1876 1.511 . S
C1879 H1893 0.961 . S
C1879 H1894 0.961 . S
C1879 H1895 0.961 . S
C1880 C1881 1.370 . S
C1880 C1882 1.363 . S
C1880 H1896 0.931 . S
C1881 C1880 1.370 . S
C1881 C1885 1.408 . S
C1882 C1880 1.363 . S
C1882 C1883 1.370 . S
C1882 C1886 1.524 . S
C1883 C1875 1.503 . S
C1883 C1882 1.370 . S
C1883 C1884 1.403 . S
C1884 C1883 1.403 . S
C1884 C1885 1.404 . S
C1884 C1887 1.539 . S
C1885 C1881 1.408 . S
C1885 C1884 1.404 . S
C1885 H1897 0.930 . S
C1886 C1882 1.524 . S
C1886 H1898 0.956 . S
C1886 H1899 0.961 . S
C1886 H1900 0.961 . S
C1887 C1884 1.539 . S
C1887 H1901 0.958 . S
C1887 H1902 0.961 . S
C1887 H1903 0.960 . S
H1888 C1872 0.931 . S
H1889 C1877 0.929 . S
H1890 C1878 0.960 . S
H1891 C1878 0.962 . S
H1892 C1878 0.960 . S
H1893 C1879 0.961 . S
H1894 C1879 0.961 . S
H1895 C1879 0.961 . S
H1896 C1880 0.931 . S
H1897 C1885 0.930 . S
H1898 C1886 0.956 . S
H1899 C1886 0.961 . S
H1900 C1886 0.961 . S
H1901 C1887 0.958 . S
H1902 C1887 0.961 . S
H1903 C1887 0.960 . S
C1904 C1905 1.391 . S
C1904 C1906 1.394 . S
C1904 H1920 0.931 . S
C1905 C1904 1.391 . S
C1905 C1909 1.376 . S
C1906 C1904 1.394 . S
C1906 C1907 1.369 . S
C1906 C1910 1.531 . S
C1907 C1906 1.369 . S
C1907 C1908 1.410 . S
C1907 C1915 1.503 . S
C1908 C1907 1.410 . S
C1908 C1909 1.392 . S
C1908 C1911 1.511 . S
C1909 C1905 1.376 . S
C1909 C1908 1.392 . S
C1909 H1921 0.929 . S
C1910 C1906 1.531 . S
C1910 H1922 0.960 . S
C1910 H1923 0.962 . S
C1910 H1924 0.960 . S
C1911 C1908 1.511 . S
C1911 H1925 0.961 . S
C1911 H1926 0.961 . S
C1911 H1927 0.961 . S
C1912 C1913 1.370 . S
C1912 C1914 1.363 . S
C1912 H1928 0.931 . S
C1913 C1912 1.370 . S
C1913 C1917 1.408 . S
C1914 C1912 1.363 . S
C1914 C1915 1.370 . S
C1914 C1918 1.524 . S
C1915 C1907 1.503 . S
C1915 C1914 1.370 . S
C1915 C1916 1.403 . S
C1916 C1915 1.403 . S
C1916 C1917 1.404 . S
C1916 C1919 1.539 . S
C1917 C1913 1.408 . S
C1917 C1916 1.404 . S
C1917 H1929 0.930 . S
C1918 C1914 1.524 . S
C1918 H1930 0.956 . S
C1918 H1931 0.961 . S
C1918 H1932 0.961 . S
C1919 C1916 1.539 . S
C1919 H1933 0.958 . S
C1919 H1934 0.961 . S
C1919 H1935 0.960 . S
H1920 C1904 0.931 . S
H1921 C1909 0.929 . S
H1922 C1910 0.960 . S
H1923 C1910 0.962 . S
H1924 C1910 0.960 . S
H1925 C1911 0.961 . S
H1926 C1911 0.961 . S
H1927 C1911 0.961 . S
H1928 C1912 0.931 . S
H1929 C1917 0.930 . S
H1930 C1918 0.956 . S
H1931 C1918 0.961 . S
H1932 C1918 0.961 . S
H1933 C1919 0.958 . S
H1934 C1919 0.961 . S
H1935 C1919 0.960 . S
C1936 C1937 1.391 . S
C1936 C1938 1.394 . S
C1936 H1952 0.931 . S
C1937 C1936 1.391 . S
C1937 C1941 1.376 . S
C1938 C1936 1.394 . S
C1938 C1939 1.369 . S
C1938 C1942 1.531 . S
C1939 C1938 1.369 . S
C1939 C1940 1.410 . S
C1939 C1947 1.503 . S
C1940 C1939 1.410 . S
C1940 C1941 1.392 . S
C1940 C1943 1.511 1_655 S
C1941 C1937 1.376 . S
C1941 C1940 1.392 . S
C1941 H1953 0.899 1_545 S
C1942 C1938 1.531 . S
C1942 H1954 0.960 . S
C1942 H1955 0.962 . S
C1942 H1956 0.960 . S
C1943 C1940 1.511 1_455 S
C1943 H1957 0.961 1_545 S
C1943 H1958 0.961 . S
C1943 H1959 0.961 . S
C1944 C1945 1.370 1_655 S
C1944 C1946 1.363 . S
C1944 H1960 0.931 . S
C1945 C1944 1.370 1_455 S
C1945 C1949 1.408 . S
C1946 C1944 1.363 . S
C1946 C1947 1.370 . S
C1946 C1950 1.524 1_545 S
C1947 C1939 1.503 . S
C1947 C1946 1.370 . S
C1947 C1948 1.403 1_655 S
C1948 C1947 1.403 1_455 S
C1948 C1949 1.404 . S
C1948 C1951 1.539 . S
C1949 C1945 1.408 . S
C1949 C1948 1.404 . S
C1949 H1961 0.930 . S
C1950 C1946 1.524 1_565 S
C1950 H1962 0.949 1_565 S
C1950 H1963 0.961 . S
C1950 H1964 0.961 . S
C1951 C1948 1.539 . S
C1951 H1965 0.958 . S
C1951 H1966 0.961 . S
C1951 H1967 0.960 . S
H1952 C1936 0.931 . S
H1953 C1941 0.899 1_565 S
H1954 C1942 0.960 . S
H1955 C1942 0.962 . S
H1956 C1942 0.960 . S
H1957 C1943 0.961 1_565 S
H1958 C1943 0.961 . S
H1959 C1943 0.961 . S
H1960 C1944 0.931 . S
H1961 C1949 0.930 . S
H1962 C1950 0.949 1_545 S
H1963 C1950 0.961 . S
H1964 C1950 0.961 . S
H1965 C1951 0.958 . S
H1966 C1951 0.961 . S
H1967 C1951 0.960 . S
C1968 C1969 1.391 . S
C1968 C1970 1.394 . S
C1968 H1984 0.931 . S
C1969 C1968 1.391 . S
C1969 C1973 1.376 . S
C1970 C1968 1.394 . S
C1970 C1971 1.369 . S
C1970 C1974 1.531 . S
C1971 C1970 1.369 . S
C1971 C1972 1.410 . S
C1971 C1979 1.503 . S
C1972 C1971 1.410 . S
C1972 C1973 1.392 . S
C1972 C1975 1.511 . S
C1973 C1969 1.376 . S
C1973 C1972 1.392 . S
C1973 H1985 0.929 . S
C1974 C1970 1.531 . S
C1974 H1986 0.960 . S
C1974 H1987 0.962 . S
C1974 H1988 0.960 . S
C1975 C1972 1.511 . S
C1975 H1989 0.961 . S
C1975 H1990 0.961 . S
C1975 H1991 0.961 . S
C1976 C1977 1.370 . S
C1976 C1978 1.363 . S
C1976 H1992 0.931 . S
C1977 C1976 1.370 . S
C1977 C1981 1.408 . S
C1978 C1976 1.363 . S
C1978 C1979 1.370 . S
C1978 C1982 1.524 . S
C1979 C1971 1.503 . S
C1979 C1978 1.370 . S
C1979 C1980 1.403 . S
C1980 C1979 1.403 . S
C1980 C1981 1.404 . S
C1980 C1983 1.539 . S
C1981 C1977 1.408 . S
C1981 C1980 1.404 . S
C1981 H1993 0.930 . S
C1982 C1978 1.524 . S
C1982 H1994 0.956 . S
C1982 H1995 0.961 . S
C1982 H1996 0.961 . S
C1983 C1980 1.539 . S
C1983 H1997 0.958 . S
C1983 H1998 0.961 . S
C1983 H1999 0.960 . S
H1984 C1968 0.931 . S
H1985 C1973 0.929 . S
H1986 C1974 0.960 . S
H1987 C1974 0.962 . S
H1988 C1974 0.960 . S
H1989 C1975 0.961 . S
H1990 C1975 0.961 . S
H1991 C1975 0.961 . S
H1992 C1976 0.931 . S
H1993 C1981 0.930 . S
H1994 C1982 0.956 . S
H1995 C1982 0.961 . S
H1996 C1982 0.961 . S
H1997 C1983 0.958 . S
H1998 C1983 0.961 . S
H1999 C1983 0.960 . S
C2000 C2001 1.391 . S
C2000 C2002 1.394 . S
C2000 H2016 0.931 . S
C2001 C2000 1.391 . S
C2001 C2005 1.376 . S
C2002 C2000 1.394 . S
C2002 C2003 1.369 . S
C2002 C2006 1.531 . S
C2003 C2002 1.369 . S
C2003 C2004 1.410 . S
C2003 C2011 1.503 . S
C2004 C2003 1.410 . S
C2004 C2005 1.392 . S
C2004 C2007 1.511 . S
C2005 C2001 1.376 . S
C2005 C2004 1.392 . S
C2005 H2017 0.929 . S
C2006 C2002 1.531 . S
C2006 H2018 0.960 . S
C2006 H2019 0.962 1_545 S
C2006 H2020 0.960 1_545 S
C2007 C2004 1.511 . S
C2007 H2021 0.961 . S
C2007 H2022 0.961 . S
C2007 H2023 0.961 . S
C2008 C2009 1.370 . S
C2008 C2010 1.363 . S
C2008 H2024 0.931 . S
C2009 C2008 1.370 . S
C2009 C2013 1.408 . S
C2010 C2008 1.363 . S
C2010 C2011 1.370 . S
C2010 C2014 1.524 . S
C2011 C2003 1.503 . S
C2011 C2010 1.370 . S
C2011 C2012 1.403 . S
C2012 C2011 1.403 . S
C2012 C2013 1.404 . S
C2012 C2015 1.539 . S
C2013 C2009 1.408 . S
C2013 C2012 1.404 . S
C2013 H2025 0.930 . S
C2014 C2010 1.524 . S
C2014 H2026 0.956 . S
C2014 H2027 0.961 . S
C2014 H2028 0.961 . S
C2015 C2012 1.539 . S
C2015 H2029 0.958 . S
C2015 H2030 0.961 . S
C2015 H2031 0.960 . S
H2016 C2000 0.931 . S
H2017 C2005 0.929 . S
H2018 C2006 0.960 . S
H2019 C2006 0.962 1_565 S
H2020 C2006 0.960 1_565 S
H2021 C2007 0.961 . S
H2022 C2007 0.961 . S
H2023 C2007 0.961 . S
H2024 C2008 0.931 . S
H2025 C2013 0.930 . S
H2026 C2014 0.956 . S
H2027 C2014 0.961 . S
H2028 C2014 0.961 . S
H2029 C2015 0.958 . S
H2030 C2015 0.961 . S
H2031 C2015 0.960 . S
C2032 C2033 1.391 . S
C2032 C2034 1.394 . S
C2032 H2048 0.931 . S
C2033 C2032 1.391 . S
C2033 C2037 1.376 . S
C2034 C2032 1.394 . S
C2034 C2035 1.369 . S
C2034 C2038 1.531 . S
C2035 C2034 1.369 . S
C2035 C2036 1.410 . S
C2035 C2043 1.503 . S
C2036 C2035 1.410 . S
C2036 C2037 1.392 . S
C2036 C2039 1.511 . S
C2037 C2033 1.376 . S
C2037 C2036 1.392 . S
C2037 H2049 0.929 . S
C2038 C2034 1.531 . S
C2038 H2050 0.960 . S
C2038 H2051 0.962 . S
C2038 H2052 0.960 . S
C2039 C2036 1.511 . S
C2039 H2053 0.961 . S
C2039 H2054 0.961 . S
C2039 H2055 0.961 . S
C2040 C2041 1.370 . S
C2040 C2042 1.363 . S
C2040 H2056 0.931 . S
C2041 C2040 1.370 . S
C2041 C2045 1.408 . S
C2042 C2040 1.363 . S
C2042 C2043 1.370 . S
C2042 C2046 1.524 . S
C2043 C2035 1.503 . S
C2043 C2042 1.370 . S
C2043 C2044 1.403 . S
C2044 C2043 1.403 . S
C2044 C2045 1.404 . S
C2044 C2047 1.539 . S
C2045 C2041 1.408 . S
C2045 C2044 1.404 . S
C2045 H2057 0.930 . S
C2046 C2042 1.524 . S
C2046 H2058 0.956 . S
C2046 H2059 0.961 . S
C2046 H2060 0.961 . S
C2047 C2044 1.539 . S
C2047 H2061 0.958 . S
C2047 H2062 0.961 . S
C2047 H2063 0.960 . S
H2048 C2032 0.931 . S
H2049 C2037 0.929 . S
H2050 C2038 0.960 . S
H2051 C2038 0.962 . S
H2052 C2038 0.960 . S
H2053 C2039 0.961 . S
H2054 C2039 0.961 . S
H2055 C2039 0.961 . S
H2056 C2040 0.931 . S
H2057 C2045 0.930 . S
H2058 C2046 0.956 . S
H2059 C2046 0.961 . S
H2060 C2046 0.961 . S
H2061 C2047 0.958 . S
H2062 C2047 0.961 . S
H2063 C2047 0.960 . S
C2064 C2065 1.391 . S
C2064 C2066 1.394 . S
C2064 H2080 0.931 . S
C2065 C2064 1.391 . S
C2065 C2069 1.376 . S
C2066 C2064 1.394 . S
C2066 C2067 1.369 . S
C2066 C2070 1.531 1_655 S
C2067 C2066 1.369 . S
C2067 C2068 1.410 . S
C2067 C2075 1.503 . S
C2068 C2067 1.410 . S
C2068 C2069 1.392 . S
C2068 C2071 1.511 1_545 S
C2069 C2065 1.376 . S
C2069 C2068 1.392 . S
C2069 H2081 0.929 1_545 S
C2070 C2066 1.531 1_455 S
C2070 H2082 0.960 . S
C2070 H2083 0.962 . S
C2070 H2084 0.960 . S
C2071 C2068 1.511 1_565 S
C2071 H2085 0.961 . S
C2071 H2086 0.961 . S
C2071 H2087 0.961 1_565 S
C2072 C2073 1.370 . S
C2072 C2074 1.363 1_455 S
C2072 H2088 0.931 1_545 S
C2073 C2072 1.370 . S
C2073 C2077 1.408 1_455 S
C2074 C2072 1.363 1_655 S
C2074 C2075 1.370 . S
C2074 C2078 1.526 1_545 S
C2075 C2067 1.503 . S
C2075 C2074 1.370 . S
C2075 C2076 1.403 . S
C2076 C2075 1.403 . S
C2076 C2077 1.404 . S
C2076 C2079 1.539 . S
C2077 C2073 1.408 1_655 S
C2077 C2076 1.404 . S
C2077 H2089 0.930 . S
C2078 C2074 1.526 1_565 S
C2078 H2090 0.953 1_655 S
C2078 H2091 0.965 . S
C2078 H2092 0.957 1_655 S
C2079 C2076 1.539 . S
C2079 H2093 0.958 . S
C2079 H2094 0.961 . S
C2079 H2095 0.960 . S
H2080 C2064 0.931 . S
H2081 C2069 0.929 1_565 S
H2082 C2070 0.960 . S
H2083 C2070 0.962 . S
H2084 C2070 0.960 . S
H2085 C2071 0.961 . S
H2086 C2071 0.961 . S
H2087 C2071 0.961 1_545 S
H2088 C2072 0.931 1_565 S
H2089 C2077 0.930 . S
H2090 C2078 0.953 1_455 S
H2091 C2078 0.965 . S
H2092 C2078 0.957 1_455 S
H2093 C2079 0.958 . S
H2094 C2079 0.961 . S
H2095 C2079 0.960 . S
C2096 C2097 1.391 . S
C2096 C2098 1.394 . S
C2096 H2112 0.931 . S
C2097 C2096 1.391 . S
C2097 C2101 1.376 . S
C2098 C2096 1.394 . S
C2098 C2099 1.369 . S
C2098 C2102 1.531 . S
C2099 C2098 1.369 . S
C2099 C2100 1.410 . S
C2099 C2107 1.503 . S
C2100 C2099 1.410 . S
C2100 C2101 1.392 . S
C2100 C2103 1.511 . S
C2101 C2097 1.376 . S
C2101 C2100 1.392 . S
C2101 H2113 0.929 . S
C2102 C2098 1.531 . S
C2102 H2114 0.960 . S
C2102 H2115 0.962 . S
C2102 H2116 0.960 . S
C2103 C2100 1.511 . S
C2103 H2117 0.961 . S
C2103 H2118 0.961 . S
C2103 H2119 0.961 . S
C2104 C2105 1.370 . S
C2104 C2106 1.363 . S
C2104 H2120 0.931 . S
C2105 C2104 1.370 . S
C2105 C2109 1.408 . S
C2106 C2104 1.363 . S
C2106 C2107 1.370 . S
C2106 C2110 1.524 . S
C2107 C2099 1.503 . S
C2107 C2106 1.370 . S
C2107 C2108 1.403 . S
C2108 C2107 1.403 . S
C2108 C2109 1.404 . S
C2108 C2111 1.539 . S
C2109 C2105 1.408 . S
C2109 C2108 1.404 . S
C2109 H2121 0.930 . S
C2110 C2106 1.524 . S
C2110 H2122 0.956 . S
C2110 H2123 0.961 . S
C2110 H2124 0.961 . S
C2111 C2108 1.539 . S
C2111 H2125 0.958 . S
C2111 H2126 0.961 . S
C2111 H2127 0.960 . S
H2112 C2096 0.931 . S
H2113 C2101 0.929 . S
H2114 C2102 0.960 . S
H2115 C2102 0.962 . S
H2116 C2102 0.960 . S
H2117 C2103 0.961 . S
H2118 C2103 0.961 . S
H2119 C2103 0.961 . S
H2120 C2104 0.931 . S
H2121 C2109 0.930 . S
H2122 C2110 0.956 . S
H2123 C2110 0.961 . S
H2124 C2110 0.961 . S
H2125 C2111 0.958 . S
H2126 C2111 0.961 . S
H2127 C2111 0.960 . S
C2128 C2129 1.391 . S
C2128 C2130 1.394 . S
C2128 H2144 0.931 . S
C2129 C2128 1.391 . S
C2129 C2133 1.376 . S
C2130 C2128 1.394 . S
C2130 C2131 1.369 . S
C2130 C2134 1.531 . S
C2131 C2130 1.369 . S
C2131 C2132 1.410 . S
C2131 C2139 1.503 . S
C2132 C2131 1.410 . S
C2132 C2133 1.392 . S
C2132 C2135 1.511 . S
C2133 C2129 1.376 . S
C2133 C2132 1.392 . S
C2133 H2145 0.929 . S
C2134 C2130 1.531 . S
C2134 H2146 0.960 . S
C2134 H2147 0.962 . S
C2134 H2148 0.960 . S
C2135 C2132 1.511 . S
C2135 H2149 0.961 . S
C2135 H2150 0.961 . S
C2135 H2151 0.961 . S
C2136 C2137 1.370 . S
C2136 C2138 1.363 . S
C2136 H2152 0.931 . S
C2137 C2136 1.370 . S
C2137 C2141 1.408 . S
C2138 C2136 1.363 . S
C2138 C2139 1.370 . S
C2138 C2142 1.524 . S
C2139 C2131 1.503 . S
C2139 C2138 1.370 . S
C2139 C2140 1.403 . S
C2140 C2139 1.403 . S
C2140 C2141 1.404 . S
C2140 C2143 1.539 . S
C2141 C2137 1.408 . S
C2141 C2140 1.404 . S
C2141 H2153 0.930 . S
C2142 C2138 1.524 . S
C2142 H2154 0.956 . S
C2142 H2155 0.961 . S
C2142 H2156 0.961 . S
C2143 C2140 1.539 . S
C2143 H2157 0.958 . S
C2143 H2158 0.961 1_545 S
C2143 H2159 0.960 . S
H2144 C2128 0.931 . S
H2145 C2133 0.929 . S
H2146 C2134 0.960 . S
H2147 C2134 0.962 . S
H2148 C2134 0.960 . S
H2149 C2135 0.961 . S
H2150 C2135 0.961 . S
H2151 C2135 0.961 . S
H2152 C2136 0.931 . S
H2153 C2141 0.930 . S
H2154 C2142 0.956 . S
H2155 C2142 0.961 . S
H2156 C2142 0.961 . S
H2157 C2143 0.958 . S
H2158 C2143 0.961 1_565 S
H2159 C2143 0.960 . S
C2160 C2161 1.391 . S
C2160 C2162 1.394 . S
C2160 H2176 0.931 . S
C2161 C2160 1.391 . S
C2161 C2165 1.376 . S
C2162 C2160 1.394 . S
C2162 C2163 1.369 . S
C2162 C2166 1.531 . S
C2163 C2162 1.369 . S
C2163 C2164 1.410 . S
C2163 C2171 1.503 . S
C2164 C2163 1.410 . S
C2164 C2165 1.392 . S
C2164 C2167 1.511 . S
C2165 C2161 1.376 . S
C2165 C2164 1.392 . S
C2165 H2177 0.929 . S
C2166 C2162 1.531 . S
C2166 H2178 0.960 . S
C2166 H2179 0.962 . S
C2166 H2180 0.960 . S
C2167 C2164 1.511 . S
C2167 H2181 0.961 . S
C2167 H2182 0.961 . S
C2167 H2183 0.961 . S
C2168 C2169 1.370 . S
C2168 C2170 1.363 . S
C2168 H2184 0.931 . S
C2169 C2168 1.370 . S
C2169 C2173 1.408 . S
C2170 C2168 1.363 . S
C2170 C2171 1.370 . S
C2170 C2174 1.524 . S
C2171 C2163 1.503 . S
C2171 C2170 1.370 . S
C2171 C2172 1.403 . S
C2172 C2171 1.403 . S
C2172 C2173 1.404 . S
C2172 C2175 1.539 . S
C2173 C2169 1.408 . S
C2173 C2172 1.404 . S
C2173 H2185 0.930 . S
C2174 C2170 1.524 . S
C2174 H2186 0.956 . S
C2174 H2187 0.961 . S
C2174 H2188 0.961 . S
C2175 C2172 1.539 . S
C2175 H2189 0.958 . S
C2175 H2190 0.961 . S
C2175 H2191 0.960 . S
H2176 C2160 0.931 . S
H2177 C2165 0.929 . S
H2178 C2166 0.960 . S
H2179 C2166 0.962 . S
H2180 C2166 0.960 . S
H2181 C2167 0.961 . S
H2182 C2167 0.961 . S
H2183 C2167 0.961 . S
H2184 C2168 0.931 . S
H2185 C2173 0.930 . S
H2186 C2174 0.956 . S
H2187 C2174 0.961 . S
H2188 C2174 0.961 . S
H2189 C2175 0.958 . S
H2190 C2175 0.961 . S
H2191 C2175 0.960 . S
C2192 C2193 1.391 . S
C2192 C2194 1.394 . S
C2192 H2208 0.931 . S
C2193 C2192 1.391 . S
C2193 C2197 1.376 1_554 S
C2194 C2192 1.394 . S
C2194 C2195 1.369 . S
C2194 C2198 1.531 . S
C2195 C2194 1.369 . S
C2195 C2196 1.410 . S
C2195 C2203 1.503 . S
C2196 C2195 1.410 . S
C2196 C2197 1.392 1_554 S
C2196 C2199 1.511 1_565 S
C2197 C2193 1.376 1_556 S
C2197 C2196 1.392 1_556 S
C2197 H2209 0.929 . S
C2198 C2194 1.531 . S
C2198 H2210 0.960 . S
C2198 H2211 0.962 . S
C2198 H2212 0.960 . S
C2199 C2196 1.511 1_545 S
C2199 H2213 0.961 1_554 S
C2199 H2214 0.963 . S
C2199 H2215 0.961 . S
C2200 C2201 1.362 1_565 S
C2200 C2202 1.363 . S
C2200 H2216 0.931 . S
C2201 C2200 1.362 1_545 S
C2201 C2205 1.407 . S
C2202 C2200 1.363 . S
C2202 C2203 1.370 . S
C2202 C2206 1.524 1_554 S
C2203 C2195 1.503 . S
C2203 C2202 1.370 . S
C2203 C2204 1.403 . S
C2204 C2203 1.403 . S
C2204 C2205 1.404 1_565 S
C2204 C2207 1.540 1_565 S
C2205 C2201 1.407 . S
C2205 C2204 1.404 1_545 S
C2205 H2217 0.930 . S
C2206 C2202 1.524 1_556 S
C2206 H2218 0.956 . S
C2206 H2219 0.961 . S
C2206 H2220 0.961 . S
C2207 C2204 1.540 1_545 S
C2207 H2221 0.945 1_545 S
C2207 H2222 0.976 . S
C2207 H2223 0.958 1_545 S
H2208 C2192 0.931 . S
H2209 C2197 0.929 . S
H2210 C2198 0.960 . S
H2211 C2198 0.962 . S
H2212 C2198 0.960 . S
H2213 C2199 0.961 1_556 S
H2214 C2199 0.963 . S
H2215 C2199 0.961 . S
H2216 C2200 0.931 . S
H2217 C2205 0.930 . S
H2218 C2206 0.956 . S
H2219 C2206 0.961 . S
H2220 C2206 0.961 . S
H2221 C2207 0.945 1_565 S
H2222 C2207 0.976 . S
H2223 C2207 0.958 1_565 S
C2224 C2225 1.391 1_556 S
C2224 C2226 1.394 . S
C2224 H2240 0.931 . S
C2225 C2224 1.391 1_554 S
C2225 C2229 1.376 . S
C2226 C2224 1.394 . S
C2226 C2227 1.369 1_556 S
C2226 C2230 1.531 . S
C2227 C2226 1.369 1_554 S
C2227 C2228 1.410 . S
C2227 C2235 1.503 . S
C2228 C2227 1.410 . S
C2228 C2229 1.392 . S
C2228 C2231 1.511 . S
C2229 C2225 1.376 . S
C2229 C2228 1.392 . S
C2229 H2241 0.929 . S
C2230 C2226 1.531 . S
C2230 H2242 0.960 . S
C2230 H2243 0.962 . S
C2230 H2244 0.960 . S
C2231 C2228 1.511 . S
C2231 H2245 0.961 . S
C2231 H2246 0.961 . S
C2231 H2247 0.961 . S
C2232 C2233 1.370 . S
C2232 C2234 1.363 . S
C2232 H2248 0.931 . S
C2233 C2232 1.370 . S
C2233 C2237 1.408 . S
C2234 C2232 1.363 . S
C2234 C2235 1.370 . S
C2234 C2238 1.524 . S
C2235 C2227 1.503 . S
C2235 C2234 1.370 . S
C2235 C2236 1.403 1_554 S
C2236 C2235 1.403 1_556 S
C2236 C2237 1.404 1_556 S
C2236 C2239 1.539 . S
C2237 C2233 1.408 . S
C2237 C2236 1.404 1_554 S
C2237 H2249 0.930 1_554 S
C2238 C2234 1.524 . S
C2238 H2250 0.956 . S
C2238 H2251 0.961 . S
C2238 H2252 0.961 . S
C2239 C2236 1.539 . S
C2239 H2253 0.958 . S
C2239 H2254 0.961 . S
C2239 H2255 0.960 . S
H2240 C2224 0.931 . S
H2241 C2229 0.929 . S
H2242 C2230 0.960 . S
H2243 C2230 0.962 . S
H2244 C2230 0.960 . S
H2245 C2231 0.961 . S
H2246 C2231 0.961 . S
H2247 C2231 0.961 . S
H2248 C2232 0.931 . S
H2249 C2237 0.930 1_556 S
H2250 C2238 0.956 . S
H2251 C2238 0.961 . S
H2252 C2238 0.961 . S
H2253 C2239 0.958 . S
H2254 C2239 0.961 . S
H2255 C2239 0.960 . S
C2256 C2257 1.391 . S
C2256 C2258 1.394 . S
C2256 H2272 0.931 . S
C2257 C2256 1.391 . S
C2257 C2261 1.376 . S
C2258 C2256 1.394 . S
C2258 C2259 1.369 . S
C2258 C2262 1.531 . S
C2259 C2258 1.369 . S
C2259 C2260 1.410 . S
C2259 C2267 1.503 . S
C2260 C2259 1.410 . S
C2260 C2261 1.392 . S
C2260 C2263 1.511 . S
C2261 C2257 1.376 . S
C2261 C2260 1.392 . S
C2261 H2273 0.929 . S
C2262 C2258 1.531 . S
C2262 H2274 0.960 . S
C2262 H2275 0.962 . S
C2262 H2276 0.960 . S
C2263 C2260 1.511 . S
C2263 H2277 0.961 . S
C2263 H2278 0.961 . S
C2263 H2279 0.961 . S
C2264 C2265 1.370 . S
C2264 C2266 1.363 . S
C2264 H2280 0.931 . S
C2265 C2264 1.370 . S
C2265 C2269 1.408 . S
C2266 C2264 1.363 . S
C2266 C2267 1.370 . S
C2266 C2270 1.524 . S
C2267 C2259 1.503 . S
C2267 C2266 1.370 . S
C2267 C2268 1.403 . S
C2268 C2267 1.403 . S
C2268 C2269 1.404 . S
C2268 C2271 1.539 . S
C2269 C2265 1.408 . S
C2269 C2268 1.404 . S
C2269 H2281 0.930 . S
C2270 C2266 1.524 . S
C2270 H2282 0.956 . S
C2270 H2283 0.961 . S
C2270 H2284 0.961 . S
C2271 C2268 1.539 . S
C2271 H2285 0.958 . S
C2271 H2286 0.961 . S
C2271 H2287 0.960 . S
H2272 C2256 0.931 . S
H2273 C2261 0.929 . S
H2274 C2262 0.960 . S
H2275 C2262 0.962 . S
H2276 C2262 0.960 . S
H2277 C2263 0.961 . S
H2278 C2263 0.961 . S
H2279 C2263 0.961 . S
H2280 C2264 0.931 . S
H2281 C2269 0.930 . S
H2282 C2270 0.956 . S
H2283 C2270 0.961 . S
H2284 C2270 0.961 . S
H2285 C2271 0.958 . S
H2286 C2271 0.961 . S
H2287 C2271 0.960 . S
C2288 C2289 1.391 . S
C2288 C2290 1.394 . S
C2288 H2304 0.931 . S
C2289 C2288 1.391 . S
C2289 C2293 1.376 . S
C2290 C2288 1.394 . S
C2290 C2291 1.369 . S
C2290 C2294 1.531 . S
C2291 C2290 1.369 . S
C2291 C2292 1.410 . S
C2291 C2299 1.503 . S
C2292 C2291 1.410 . S
C2292 C2293 1.392 . S
C2292 C2295 1.511 . S
C2293 C2289 1.376 . S
C2293 C2292 1.392 . S
C2293 H2305 0.929 . S
C2294 C2290 1.531 . S
C2294 H2306 0.960 . S
C2294 H2307 0.962 . S
C2294 H2308 0.960 . S
C2295 C2292 1.511 . S
C2295 H2309 0.961 . S
C2295 H2310 0.961 . S
C2295 H2311 0.961 . S
C2296 C2297 1.370 . S
C2296 C2298 1.363 . S
C2296 H2312 0.931 . S
C2297 C2296 1.370 . S
C2297 C2301 1.408 . S
C2298 C2296 1.363 . S
C2298 C2299 1.370 . S
C2298 C2302 1.524 . S
C2299 C2291 1.503 . S
C2299 C2298 1.370 . S
C2299 C2300 1.403 . S
C2300 C2299 1.403 . S
C2300 C2301 1.404 . S
C2300 C2303 1.539 . S
C2301 C2297 1.408 . S
C2301 C2300 1.404 . S
C2301 H2313 0.930 . S
C2302 C2298 1.524 . S
C2302 H2314 0.956 . S
C2302 H2315 0.961 . S
C2302 H2316 0.961 . S
C2303 C2300 1.539 . S
C2303 H2317 0.958 . S
C2303 H2318 0.961 . S
C2303 H2319 0.960 . S
H2304 C2288 0.931 . S
H2305 C2293 0.929 . S
H2306 C2294 0.960 . S
H2307 C2294 0.962 . S
H2308 C2294 0.960 . S
H2309 C2295 0.961 . S
H2310 C2295 0.961 . S
H2311 C2295 0.961 . S
H2312 C2296 0.931 . S
H2313 C2301 0.930 . S
H2314 C2302 0.956 . S
H2315 C2302 0.961 . S
H2316 C2302 0.961 . S
H2317 C2303 0.958 . S
H2318 C2303 0.961 . S
H2319 C2303 0.960 . S
C2320 C2321 1.391 . S
C2320 C2322 1.394 . S
C2320 H2336 0.931 . S
C2321 C2320 1.391 . S
C2321 C2325 1.376 . S
C2322 C2320 1.394 . S
C2322 C2323 1.369 . S
C2322 C2326 1.531 . S
C2323 C2322 1.369 . S
C2323 C2324 1.410 . S
C2323 C2331 1.503 . S
C2324 C2323 1.410 . S
C2324 C2325 1.392 . S
C2324 C2327 1.511 . S
C2325 C2321 1.376 . S
C2325 C2324 1.392 . S
C2325 H2337 0.929 . S
C2326 C2322 1.531 . S
C2326 H2338 0.960 . S
C2326 H2339 0.962 . S
C2326 H2340 0.960 . S
C2327 C2324 1.511 . S
C2327 H2341 0.961 . S
C2327 H2342 0.961 . S
C2327 H2343 0.961 . S
C2328 C2329 1.370 . S
C2328 C2330 1.363 . S
C2328 H2344 0.931 . S
C2329 C2328 1.370 . S
C2329 C2333 1.408 . S
C2330 C2328 1.363 . S
C2330 C2331 1.370 . S
C2330 C2334 1.524 . S
C2331 C2323 1.503 . S
C2331 C2330 1.370 . S
C2331 C2332 1.403 . S
C2332 C2331 1.403 . S
C2332 C2333 1.404 . S
C2332 C2335 1.539 . S
C2333 C2329 1.408 . S
C2333 C2332 1.404 . S
C2333 H2345 0.930 . S
C2334 C2330 1.524 . S
C2334 H2346 0.956 . S
C2334 H2347 0.961 . S
C2334 H2348 0.961 . S
C2335 C2332 1.539 . S
C2335 H2349 0.958 . S
C2335 H2350 0.961 . S
C2335 H2351 0.960 . S
H2336 C2320 0.931 . S
H2337 C2325 0.929 . S
H2338 C2326 0.960 . S
H2339 C2326 0.962 . S
H2340 C2326 0.960 . S
H2341 C2327 0.961 . S
H2342 C2327 0.961 . S
H2343 C2327 0.961 . S
H2344 C2328 0.931 . S
H2345 C2333 0.930 . S
H2346 C2334 0.956 . S
H2347 C2334 0.961 . S
H2348 C2334 0.961 . S
H2349 C2335 0.958 . S
H2350 C2335 0.961 . S
H2351 C2335 0.960 . S
C2352 C2353 1.391 . S
C2352 C2354 1.394 . S
C2352 H2368 0.931 . S
C2353 C2352 1.391 . S
C2353 C2357 1.376 . S
C2354 C2352 1.394 . S
C2354 C2355 1.369 . S
C2354 C2358 1.531 . S
C2355 C2354 1.369 . S
C2355 C2356 1.410 . S
C2355 C2363 1.503 . S
C2356 C2355 1.410 . S
C2356 C2357 1.392 . S
C2356 C2359 1.511 . S
C2357 C2353 1.376 . S
C2357 C2356 1.392 . S
C2357 H2369 0.929 . S
C2358 C2354 1.531 . S
C2358 H2370 0.960 . S
C2358 H2371 0.962 . S
C2358 H2372 0.960 . S
C2359 C2356 1.511 . S
C2359 H2373 0.961 . S
C2359 H2374 0.961 . S
C2359 H2375 0.961 . S
C2360 C2361 1.370 . S
C2360 C2362 1.363 . S
C2360 H2376 0.931 . S
C2361 C2360 1.370 . S
C2361 C2365 1.408 . S
C2362 C2360 1.363 . S
C2362 C2363 1.370 . S
C2362 C2366 1.524 . S
C2363 C2355 1.503 . S
C2363 C2362 1.370 . S
C2363 C2364 1.403 . S
C2364 C2363 1.403 . S
C2364 C2365 1.404 . S
C2364 C2367 1.539 . S
C2365 C2361 1.408 . S
C2365 C2364 1.404 . S
C2365 H2377 0.930 . S
C2366 C2362 1.524 . S
C2366 H2378 0.956 . S
C2366 H2379 0.961 . S
C2366 H2380 0.961 . S
C2367 C2364 1.539 . S
C2367 H2381 0.958 . S
C2367 H2382 0.961 . S
C2367 H2383 0.960 . S
H2368 C2352 0.931 . S
H2369 C2357 0.929 . S
H2370 C2358 0.960 . S
H2371 C2358 0.962 . S
H2372 C2358 0.960 . S
H2373 C2359 0.961 . S
H2374 C2359 0.961 . S
H2375 C2359 0.961 . S
H2376 C2360 0.931 . S
H2377 C2365 0.930 . S
H2378 C2366 0.956 . S
H2379 C2366 0.961 . S
H2380 C2366 0.961 . S
H2381 C2367 0.958 . S
H2382 C2367 0.961 . S
H2383 C2367 0.960 . S
C2384 C2385 1.391 . S
C2384 C2386 1.394 . S
C2384 H2400 0.931 . S
C2385 C2384 1.391 . S
C2385 C2389 1.376 . S
C2386 C2384 1.394 . S
C2386 C2387 1.369 . S
C2386 C2390 1.531 . S
C2387 C2386 1.369 . S
C2387 C2388 1.410 . S
C2387 C2395 1.503 . S
C2388 C2387 1.410 . S
C2388 C2389 1.392 . S
C2388 C2391 1.511 . S
C2389 C2385 1.376 . S
C2389 C2388 1.392 . S
C2389 H2401 0.929 . S
C2390 C2386 1.531 . S
C2390 H2402 0.960 . S
C2390 H2403 0.962 . S
C2390 H2404 0.960 . S
C2391 C2388 1.511 . S
C2391 H2405 0.961 . S
C2391 H2406 0.961 . S
C2391 H2407 0.961 . S
C2392 C2393 1.370 . S
C2392 C2394 1.363 . S
C2392 H2408 0.931 . S
C2393 C2392 1.370 . S
C2393 C2397 1.408 . S
C2394 C2392 1.363 . S
C2394 C2395 1.370 . S
C2394 C2398 1.524 . S
C2395 C2387 1.503 . S
C2395 C2394 1.370 . S
C2395 C2396 1.403 . S
C2396 C2395 1.403 . S
C2396 C2397 1.404 . S
C2396 C2399 1.539 . S
C2397 C2393 1.408 . S
C2397 C2396 1.404 . S
C2397 H2409 0.930 . S
C2398 C2394 1.524 . S
C2398 H2410 0.956 . S
C2398 H2411 0.961 . S
C2398 H2412 0.961 . S
C2399 C2396 1.539 . S
C2399 H2413 0.958 . S
C2399 H2414 0.961 . S
C2399 H2415 0.960 . S
H2400 C2384 0.931 . S
H2401 C2389 0.929 . S
H2402 C2390 0.960 . S
H2403 C2390 0.962 . S
H2404 C2390 0.960 . S
H2405 C2391 0.961 . S
H2406 C2391 0.961 . S
H2407 C2391 0.961 . S
H2408 C2392 0.931 . S
H2409 C2397 0.930 . S
H2410 C2398 0.956 . S
H2411 C2398 0.961 . S
H2412 C2398 0.961 . S
H2413 C2399 0.958 . S
H2414 C2399 0.961 . S
H2415 C2399 0.960 . S
C2416 C2417 1.391 . S
C2416 C2418 1.394 . S
C2416 H2432 0.931 . S
C2417 C2416 1.391 . S
C2417 C2421 1.376 . S
C2418 C2416 1.394 . S
C2418 C2419 1.369 . S
C2418 C2422 1.531 . S
C2419 C2418 1.369 . S
C2419 C2420 1.410 . S
C2419 C2427 1.503 . S
C2420 C2419 1.410 . S
C2420 C2421 1.392 . S
C2420 C2423 1.511 . S
C2421 C2417 1.376 . S
C2421 C2420 1.392 . S
C2421 H2433 0.929 . S
C2422 C2418 1.531 . S
C2422 H2434 0.960 . S
C2422 H2435 0.962 . S
C2422 H2436 0.960 . S
C2423 C2420 1.511 . S
C2423 H2437 0.961 . S
C2423 H2438 0.961 . S
C2423 H2439 0.961 . S
C2424 C2425 1.370 . S
C2424 C2426 1.363 . S
C2424 H2440 0.931 . S
C2425 C2424 1.370 . S
C2425 C2429 1.408 . S
C2426 C2424 1.363 . S
C2426 C2427 1.370 . S
C2426 C2430 1.524 . S
C2427 C2419 1.503 . S
C2427 C2426 1.370 . S
C2427 C2428 1.403 . S
C2428 C2427 1.403 . S
C2428 C2429 1.404 . S
C2428 C2431 1.539 . S
C2429 C2425 1.408 . S
C2429 C2428 1.404 . S
C2429 H2441 0.930 . S
C2430 C2426 1.524 . S
C2430 H2442 0.956 . S
C2430 H2443 0.961 . S
C2430 H2444 0.961 . S
C2431 C2428 1.539 . S
C2431 H2445 0.958 . S
C2431 H2446 0.961 . S
C2431 H2447 0.960 . S
H2432 C2416 0.931 . S
H2433 C2421 0.929 . S
H2434 C2422 0.960 . S
H2435 C2422 0.962 . S
H2436 C2422 0.960 . S
H2437 C2423 0.961 . S
H2438 C2423 0.961 . S
H2439 C2423 0.961 . S
H2440 C2424 0.931 . S
H2441 C2429 0.930 . S
H2442 C2430 0.956 . S
H2443 C2430 0.961 . S
H2444 C2430 0.961 . S
H2445 C2431 0.958 . S
H2446 C2431 0.961 . S
H2447 C2431 0.960 . S
C2448 C2449 1.391 . S
C2448 C2450 1.394 . S
C2448 H2464 0.931 . S
C2449 C2448 1.391 . S
C2449 C2453 1.376 . S
C2450 C2448 1.394 . S
C2450 C2451 1.369 . S
C2450 C2454 1.531 . S
C2451 C2450 1.369 . S
C2451 C2452 1.410 . S
C2451 C2459 1.503 . S
C2452 C2451 1.410 . S
C2452 C2453 1.392 . S
C2452 C2455 1.511 . S
C2453 C2449 1.376 . S
C2453 C2452 1.392 . S
C2453 H2465 0.929 . S
C2454 C2450 1.531 . S
C2454 H2466 0.960 . S
C2454 H2467 0.962 . S
C2454 H2468 0.960 . S
C2455 C2452 1.511 . S
C2455 H2469 0.961 . S
C2455 H2470 0.961 . S
C2455 H2471 0.961 . S
C2456 C2457 1.370 . S
C2456 C2458 1.363 . S
C2456 H2472 0.931 . S
C2457 C2456 1.370 . S
C2457 C2461 1.408 . S
C2458 C2456 1.363 . S
C2458 C2459 1.370 . S
C2458 C2462 1.524 . S
C2459 C2451 1.503 . S
C2459 C2458 1.370 . S
C2459 C2460 1.403 . S
C2460 C2459 1.403 . S
C2460 C2461 1.404 . S
C2460 C2463 1.539 . S
C2461 C2457 1.408 . S
C2461 C2460 1.404 . S
C2461 H2473 0.930 . S
C2462 C2458 1.524 . S
C2462 H2474 0.956 . S
C2462 H2475 0.961 . S
C2462 H2476 0.961 . S
C2463 C2460 1.539 . S
C2463 H2477 0.958 . S
C2463 H2478 0.961 . S
C2463 H2479 0.960 . S
H2464 C2448 0.931 . S
H2465 C2453 0.929 . S
H2466 C2454 0.960 . S
H2467 C2454 0.962 . S
H2468 C2454 0.960 . S
H2469 C2455 0.961 . S
H2470 C2455 0.961 . S
H2471 C2455 0.961 . S
H2472 C2456 0.931 . S
H2473 C2461 0.930 . S
H2474 C2462 0.956 . S
H2475 C2462 0.961 . S
H2476 C2462 0.961 . S
H2477 C2463 0.958 . S
H2478 C2463 0.961 . S
H2479 C2463 0.960 . S
C2480 C2481 1.391 . S
C2480 C2482 1.394 . S
C2480 H2496 0.931 . S
C2481 C2480 1.391 . S
C2481 C2485 1.376 . S
C2482 C2480 1.394 . S
C2482 C2483 1.369 . S
C2482 C2486 1.531 . S
C2483 C2482 1.369 . S
C2483 C2484 1.410 . S
C2483 C2491 1.503 . S
C2484 C2483 1.410 . S
C2484 C2485 1.392 . S
C2484 C2487 1.511 . S
C2485 C2481 1.376 . S
C2485 C2484 1.392 . S
C2485 H2497 0.929 . S
C2486 C2482 1.531 . S
C2486 H2498 0.960 . S
C2486 H2499 0.962 . S
C2486 H2500 0.960 . S
C2487 C2484 1.511 . S
C2487 H2501 0.961 . S
C2487 H2502 0.961 . S
C2487 H2503 0.961 . S
C2488 C2489 1.370 . S
C2488 C2490 1.363 . S
C2488 H2504 0.931 . S
C2489 C2488 1.370 . S
C2489 C2493 1.408 . S
C2490 C2488 1.363 . S
C2490 C2491 1.370 . S
C2490 C2494 1.524 . S
C2491 C2483 1.503 . S
C2491 C2490 1.370 . S
C2491 C2492 1.403 . S
C2492 C2491 1.403 . S
C2492 C2493 1.404 . S
C2492 C2495 1.539 . S
C2493 C2489 1.408 . S
C2493 C2492 1.404 . S
C2493 H2505 0.930 . S
C2494 C2490 1.524 . S
C2494 H2506 0.956 . S
C2494 H2507 0.961 . S
C2494 H2508 0.961 . S
C2495 C2492 1.539 . S
C2495 H2509 0.958 . S
C2495 H2510 0.961 . S
C2495 H2511 0.960 . S
H2496 C2480 0.931 . S
H2497 C2485 0.929 . S
H2498 C2486 0.960 . S
H2499 C2486 0.962 . S
H2500 C2486 0.960 . S
H2501 C2487 0.961 . S
H2502 C2487 0.961 . S
H2503 C2487 0.961 . S
H2504 C2488 0.931 . S
H2505 C2493 0.930 . S
H2506 C2494 0.956 . S
H2507 C2494 0.961 . S
H2508 C2494 0.961 . S
H2509 C2495 0.958 . S
H2510 C2495 0.961 . S
H2511 C2495 0.960 . S
C2512 C2513 1.391 . S
C2512 C2514 1.394 . S
C2512 H2528 0.931 . S
C2513 C2512 1.391 . S
C2513 C2517 1.376 . S
C2514 C2512 1.394 . S
C2514 C2515 1.369 . S
C2514 C2518 1.531 . S
C2515 C2514 1.369 . S
C2515 C2516 1.410 . S
C2515 C2523 1.503 . S
C2516 C2515 1.410 . S
C2516 C2517 1.392 . S
C2516 C2519 1.511 . S
C2517 C2513 1.376 . S
C2517 C2516 1.392 . S
C2517 H2529 0.929 . S
C2518 C2514 1.531 . S
C2518 H2530 0.960 . S
C2518 H2531 0.962 . S
C2518 H2532 0.960 . S
C2519 C2516 1.511 . S
C2519 H2533 0.961 . S
C2519 H2534 0.961 . S
C2519 H2535 0.961 . S
C2520 C2521 1.370 . S
C2520 C2522 1.363 . S
C2520 H2536 0.931 . S
C2521 C2520 1.370 . S
C2521 C2525 1.408 . S
C2522 C2520 1.363 . S
C2522 C2523 1.370 . S
C2522 C2526 1.524 . S
C2523 C2515 1.503 . S
C2523 C2522 1.370 . S
C2523 C2524 1.403 . S
C2524 C2523 1.403 . S
C2524 C2525 1.404 . S
C2524 C2527 1.539 . S
C2525 C2521 1.408 . S
C2525 C2524 1.404 . S
C2525 H2537 0.930 . S
C2526 C2522 1.524 . S
C2526 H2538 0.956 . S
C2526 H2539 0.961 . S
C2526 H2540 0.961 . S
C2527 C2524 1.539 . S
C2527 H2541 0.958 . S
C2527 H2542 0.961 . S
C2527 H2543 0.960 . S
H2528 C2512 0.931 . S
H2529 C2517 0.929 . S
H2530 C2518 0.960 . S
H2531 C2518 0.962 . S
H2532 C2518 0.960 . S
H2533 C2519 0.961 . S
H2534 C2519 0.961 . S
H2535 C2519 0.961 . S
H2536 C2520 0.931 . S
H2537 C2525 0.930 . S
H2538 C2526 0.956 . S
H2539 C2526 0.961 . S
H2540 C2526 0.961 . S
H2541 C2527 0.958 . S
H2542 C2527 0.961 . S
H2543 C2527 0.960 . S
C2544 C2545 1.391 . S
C2544 C2546 1.394 . S
C2544 H2560 0.931 . S
C2545 C2544 1.391 . S
C2545 C2549 1.376 . S
C2546 C2544 1.394 . S
C2546 C2547 1.369 . S
C2546 C2550 1.531 . S
C2547 C2546 1.369 . S
C2547 C2548 1.410 . S
C2547 C2555 1.503 . S
C2548 C2547 1.410 . S
C2548 C2549 1.392 . S
C2548 C2551 1.511 . S
C2549 C2545 1.376 . S
C2549 C2548 1.392 . S
C2549 H2561 0.929 . S
C2550 C2546 1.531 . S
C2550 H2562 0.960 . S
C2550 H2563 0.962 . S
C2550 H2564 0.960 . S
C2551 C2548 1.511 . S
C2551 H2565 0.961 . S
C2551 H2566 0.961 . S
C2551 H2567 0.961 . S
C2552 C2553 1.370 . S
C2552 C2554 1.363 . S
C2552 H2568 0.931 . S
C2553 C2552 1.370 . S
C2553 C2557 1.408 . S
C2554 C2552 1.363 . S
C2554 C2555 1.370 . S
C2554 C2558 1.524 . S
C2555 C2547 1.503 . S
C2555 C2554 1.370 . S
C2555 C2556 1.403 . S
C2556 C2555 1.403 . S
C2556 C2557 1.404 . S
C2556 C2559 1.539 . S
C2557 C2553 1.408 . S
C2557 C2556 1.404 . S
C2557 H2569 0.930 . S
C2558 C2554 1.524 . S
C2558 H2570 0.956 . S
C2558 H2571 0.961 . S
C2558 H2572 0.961 . S
C2559 C2556 1.539 . S
C2559 H2573 0.958 . S
C2559 H2574 0.961 . S
C2559 H2575 0.960 . S
H2560 C2544 0.931 . S
H2561 C2549 0.929 . S
H2562 C2550 0.960 . S
H2563 C2550 0.962 . S
H2564 C2550 0.960 . S
H2565 C2551 0.961 . S
H2566 C2551 0.961 . S
H2567 C2551 0.961 . S
H2568 C2552 0.931 . S
H2569 C2557 0.930 . S
H2570 C2558 0.956 . S
H2571 C2558 0.961 . S
H2572 C2558 0.961 . S
H2573 C2559 0.958 . S
H2574 C2559 0.961 . S
H2575 C2559 0.960 . S
C2576 C2577 1.391 . S
C2576 C2578 1.394 . S
C2576 H2592 0.931 . S
C2577 C2576 1.391 . S
C2577 C2581 1.376 . S
C2578 C2576 1.394 . S
C2578 C2579 1.369 . S
C2578 C2582 1.531 1_455 S
C2579 C2578 1.369 . S
C2579 C2580 1.410 . S
C2579 C2587 1.503 . S
C2580 C2579 1.410 . S
C2580 C2581 1.392 . S
C2580 C2583 1.511 . S
C2581 C2577 1.376 . S
C2581 C2580 1.392 . S
C2581 H2593 0.929 . S
C2582 C2578 1.531 1_655 S
C2582 H2594 0.960 . S
C2582 H2595 0.962 . S
C2582 H2596 0.960 . S
C2583 C2580 1.511 . S
C2583 H2597 0.961 . S
C2583 H2598 0.961 . S
C2583 H2599 0.961 . S
C2584 C2585 1.370 . S
C2584 C2586 1.363 . S
C2584 H2600 0.931 . S
C2585 C2584 1.370 . S
C2585 C2589 1.408 . S
C2586 C2584 1.363 . S
C2586 C2587 1.370 . S
C2586 C2590 1.524 . S
C2587 C2579 1.503 . S
C2587 C2586 1.370 . S
C2587 C2588 1.403 . S
C2588 C2587 1.403 . S
C2588 C2589 1.404 . S
C2588 C2591 1.539 . S
C2589 C2585 1.408 . S
C2589 C2588 1.404 . S
C2589 H2601 0.930 . S
C2590 C2586 1.524 . S
C2590 H2602 0.956 . S
C2590 H2603 0.961 . S
C2590 H2604 0.961 . S
C2591 C2588 1.539 . S
C2591 H2605 0.958 . S
C2591 H2606 0.961 . S
C2591 H2607 0.960 . S
H2592 C2576 0.931 . S
H2593 C2581 0.929 . S
H2594 C2582 0.960 . S
H2595 C2582 0.962 . S
H2596 C2582 0.960 . S
H2597 C2583 0.961 . S
H2598 C2583 0.961 . S
H2599 C2583 0.961 . S
H2600 C2584 0.931 . S
H2601 C2589 0.930 . S
H2602 C2590 0.956 . S
H2603 C2590 0.961 . S
H2604 C2590 0.961 . S
H2605 C2591 0.958 . S
H2606 C2591 0.961 . S
H2607 C2591 0.960 . S
C2608 C2609 1.391 . S
C2608 C2610 1.394 . S
C2608 H2624 0.931 . S
C2609 C2608 1.391 . S
C2609 C2613 1.376 . S
C2610 C2608 1.394 . S
C2610 C2611 1.369 . S
C2610 C2614 1.531 . S
C2611 C2610 1.369 . S
C2611 C2612 1.410 . S
C2611 C2619 1.503 . S
C2612 C2611 1.410 . S
C2612 C2613 1.392 . S
C2612 C2615 1.511 . S
C2613 C2609 1.376 . S
C2613 C2612 1.392 . S
C2613 H2625 0.929 . S
C2614 C2610 1.531 . S
C2614 H2626 0.960 . S
C2614 H2627 0.962 . S
C2614 H2628 0.960 . S
C2615 C2612 1.511 . S
C2615 H2629 0.961 . S
C2615 H2630 0.961 . S
C2615 H2631 0.961 . S
C2616 C2617 1.370 . S
C2616 C2618 1.363 . S
C2616 H2632 0.931 . S
C2617 C2616 1.370 . S
C2617 C2621 1.408 . S
C2618 C2616 1.363 . S
C2618 C2619 1.370 . S
C2618 C2622 1.524 . S
C2619 C2611 1.503 . S
C2619 C2618 1.370 . S
C2619 C2620 1.403 . S
C2620 C2619 1.403 . S
C2620 C2621 1.404 . S
C2620 C2623 1.539 . S
C2621 C2617 1.408 . S
C2621 C2620 1.404 . S
C2621 H2633 0.930 . S
C2622 C2618 1.524 . S
C2622 H2634 0.956 . S
C2622 H2635 0.961 . S
C2622 H2636 0.961 . S
C2623 C2620 1.539 . S
C2623 H2637 0.958 . S
C2623 H2638 0.961 . S
C2623 H2639 0.960 . S
H2624 C2608 0.931 . S
H2625 C2613 0.929 . S
H2626 C2614 0.960 . S
H2627 C2614 0.962 . S
H2628 C2614 0.960 . S
H2629 C2615 0.961 . S
H2630 C2615 0.961 . S
H2631 C2615 0.961 . S
H2632 C2616 0.931 . S
H2633 C2621 0.930 . S
H2634 C2622 0.956 . S
H2635 C2622 0.961 . S
H2636 C2622 0.961 . S
H2637 C2623 0.958 . S
H2638 C2623 0.961 . S
H2639 C2623 0.960 . S
C2640 C2641 1.391 . S
C2640 C2642 1.394 . S
C2640 H2656 0.931 . S
C2641 C2640 1.391 . S
C2641 C2645 1.376 . S
C2642 C2640 1.394 . S
C2642 C2643 1.369 . S
C2642 C2646 1.531 . S
C2643 C2642 1.369 . S
C2643 C2644 1.410 . S
C2643 C2651 1.503 . S
C2644 C2643 1.410 . S
C2644 C2645 1.392 . S
C2644 C2647 1.511 . S
C2645 C2641 1.376 . S
C2645 C2644 1.392 . S
C2645 H2657 0.929 . S
C2646 C2642 1.531 . S
C2646 H2658 0.960 . S
C2646 H2659 0.962 . S
C2646 H2660 0.960 . S
C2647 C2644 1.511 . S
C2647 H2661 0.961 . S
C2647 H2662 0.961 . S
C2647 H2663 0.961 . S
C2648 C2649 1.370 . S
C2648 C2650 1.363 . S
C2648 H2664 0.931 . S
C2649 C2648 1.370 . S
C2649 C2653 1.408 . S
C2650 C2648 1.363 . S
C2650 C2651 1.370 . S
C2650 C2654 1.524 . S
C2651 C2643 1.503 . S
C2651 C2650 1.370 . S
C2651 C2652 1.403 . S
C2652 C2651 1.403 . S
C2652 C2653 1.404 . S
C2652 C2655 1.539 . S
C2653 C2649 1.408 . S
C2653 C2652 1.404 . S
C2653 H2665 0.930 1_556 S
C2654 C2650 1.524 . S
C2654 H2666 0.956 . S
C2654 H2667 0.961 . S
C2654 H2668 0.961 . S
C2655 C2652 1.539 . S
C2655 H2669 0.958 . S
C2655 H2670 0.961 . S
C2655 H2671 0.960 . S
H2656 C2640 0.931 . S
H2657 C2645 0.929 . S
H2658 C2646 0.960 . S
H2659 C2646 0.962 . S
H2660 C2646 0.960 . S
H2661 C2647 0.961 . S
H2662 C2647 0.961 . S
H2663 C2647 0.961 . S
H2664 C2648 0.931 . S
H2665 C2653 0.930 1_554 S
H2666 C2654 0.956 . S
H2667 C2654 0.961 . S
H2668 C2654 0.961 . S
H2669 C2655 0.958 . S
H2670 C2655 0.961 . S
H2671 C2655 0.960 . S
C2672 C2673 1.391 . S
C2672 C2674 1.394 . S
C2672 H2688 0.931 . S
C2673 C2672 1.391 . S
C2673 C2677 1.376 . S
C2674 C2672 1.394 . S
C2674 C2675 1.369 . S
C2674 C2678 1.531 . S
C2675 C2674 1.369 . S
C2675 C2676 1.410 . S
C2675 C2683 1.503 . S
C2676 C2675 1.410 . S
C2676 C2677 1.392 . S
C2676 C2679 1.511 . S
C2677 C2673 1.376 . S
C2677 C2676 1.392 . S
C2677 H2689 0.929 . S
C2678 C2674 1.531 . S
C2678 H2690 0.960 . S
C2678 H2691 0.962 . S
C2678 H2692 0.960 . S
C2679 C2676 1.511 . S
C2679 H2693 0.961 . S
C2679 H2694 0.961 . S
C2679 H2695 0.961 . S
C2680 C2681 1.370 . S
C2680 C2682 1.363 . S
C2680 H2696 0.931 . S
C2681 C2680 1.370 . S
C2681 C2685 1.408 . S
C2682 C2680 1.363 . S
C2682 C2683 1.370 . S
C2682 C2686 1.524 . S
C2683 C2675 1.503 . S
C2683 C2682 1.370 . S
C2683 C2684 1.403 . S
C2684 C2683 1.403 . S
C2684 C2685 1.404 . S
C2684 C2687 1.539 . S
C2685 C2681 1.408 . S
C2685 C2684 1.404 . S
C2685 H2697 0.930 . S
C2686 C2682 1.524 . S
C2686 H2698 0.956 . S
C2686 H2699 0.961 . S
C2686 H2700 0.961 . S
C2687 C2684 1.539 . S
C2687 H2701 0.958 . S
C2687 H2702 0.961 . S
C2687 H2703 0.960 . S
H2688 C2672 0.931 . S
H2689 C2677 0.929 . S
H2690 C2678 0.960 . S
H2691 C2678 0.962 . S
H2692 C2678 0.960 . S
H2693 C2679 0.961 . S
H2694 C2679 0.961 . S
H2695 C2679 0.961 . S
H2696 C2680 0.931 . S
H2697 C2685 0.930 . S
H2698 C2686 0.956 . S
H2699 C2686 0.961 . S
H2700 C2686 0.961 . S
H2701 C2687 0.958 . S
H2702 C2687 0.961 . S
H2703 C2687 0.960 . S
C2704 C2705 1.391 . S
C2704 C2706 1.394 . S
C2704 H2720 0.931 . S
C2705 C2704 1.391 . S
C2705 C2709 1.376 . S
C2706 C2704 1.394 . S
C2706 C2707 1.369 . S
C2706 C2710 1.531 . S
C2707 C2706 1.369 . S
C2707 C2708 1.410 . S
C2707 C2715 1.503 . S
C2708 C2707 1.410 . S
C2708 C2709 1.392 . S
C2708 C2711 1.511 . S
C2709 C2705 1.376 . S
C2709 C2708 1.392 . S
C2709 H2721 0.929 . S
C2710 C2706 1.531 . S
C2710 H2722 0.960 . S
C2710 H2723 0.962 . S
C2710 H2724 0.960 . S
C2711 C2708 1.511 . S
C2711 H2725 0.961 . S
C2711 H2726 0.961 . S
C2711 H2727 0.961 . S
C2712 C2713 1.370 . S
C2712 C2714 1.363 . S
C2712 H2728 0.931 . S
C2713 C2712 1.370 . S
C2713 C2717 1.408 . S
C2714 C2712 1.363 . S
C2714 C2715 1.370 . S
C2714 C2718 1.524 . S
C2715 C2707 1.503 . S
C2715 C2714 1.370 . S
C2715 C2716 1.403 . S
C2716 C2715 1.403 . S
C2716 C2717 1.404 . S
C2716 C2719 1.539 . S
C2717 C2713 1.408 . S
C2717 C2716 1.404 . S
C2717 H2729 0.930 . S
C2718 C2714 1.524 . S
C2718 H2730 0.956 . S
C2718 H2731 0.961 1_545 S
C2718 H2732 0.961 1_545 S
C2719 C2716 1.539 . S
C2719 H2733 0.958 . S
C2719 H2734 0.961 . S
C2719 H2735 0.960 . S
H2720 C2704 0.931 . S
H2721 C2709 0.929 . S
H2722 C2710 0.960 . S
H2723 C2710 0.962 . S
H2724 C2710 0.960 . S
H2725 C2711 0.961 . S
H2726 C2711 0.961 . S
H2727 C2711 0.961 . S
H2728 C2712 0.931 . S
H2729 C2717 0.930 . S
H2730 C2718 0.956 . S
H2731 C2718 0.961 1_565 S
H2732 C2718 0.961 1_565 S
H2733 C2719 0.958 . S
H2734 C2719 0.961 . S
H2735 C2719 0.960 . S
C2736 C2737 1.391 . S
C2736 C2738 1.394 . S
C2736 H2752 0.931 . S
C2737 C2736 1.391 . S
C2737 C2741 1.376 . S
C2738 C2736 1.394 . S
C2738 C2739 1.369 . S
C2738 C2742 1.531 . S
C2739 C2738 1.369 . S
C2739 C2740 1.410 . S
C2739 C2747 1.503 . S
C2740 C2739 1.410 . S
C2740 C2741 1.392 . S
C2740 C2743 1.511 . S
C2741 C2737 1.376 . S
C2741 C2740 1.392 . S
C2741 H2753 0.929 . S
C2742 C2738 1.531 . S
C2742 H2754 0.960 . S
C2742 H2755 0.962 . S
C2742 H2756 0.960 . S
C2743 C2740 1.511 . S
C2743 H2757 0.961 . S
C2743 H2758 0.961 . S
C2743 H2759 0.961 . S
C2744 C2745 1.370 . S
C2744 C2746 1.363 . S
C2744 H2760 0.931 . S
C2745 C2744 1.370 . S
C2745 C2749 1.408 . S
C2746 C2744 1.363 . S
C2746 C2747 1.370 . S
C2746 C2750 1.524 . S
C2747 C2739 1.503 . S
C2747 C2746 1.370 . S
C2747 C2748 1.403 . S
C2748 C2747 1.403 . S
C2748 C2749 1.404 . S
C2748 C2751 1.539 . S
C2749 C2745 1.408 . S
C2749 C2748 1.404 . S
C2749 H2761 0.930 . S
C2750 C2746 1.524 . S
C2750 H2762 0.956 . S
C2750 H2763 0.961 . S
C2750 H2764 0.961 . S
C2751 C2748 1.539 . S
C2751 H2765 0.958 . S
C2751 H2766 0.961 . S
C2751 H2767 0.960 . S
H2752 C2736 0.931 . S
H2753 C2741 0.929 . S
H2754 C2742 0.960 . S
H2755 C2742 0.962 . S
H2756 C2742 0.960 . S
H2757 C2743 0.961 . S
H2758 C2743 0.961 . S
H2759 C2743 0.961 . S
H2760 C2744 0.931 . S
H2761 C2749 0.930 . S
H2762 C2750 0.956 . S
H2763 C2750 0.961 . S
H2764 C2750 0.961 . S
H2765 C2751 0.958 . S
H2766 C2751 0.961 . S
H2767 C2751 0.960 . S
C2768 C2769 1.391 . S
C2768 C2770 1.394 . S
C2768 H2784 0.931 . S
C2769 C2768 1.391 . S
C2769 C2773 1.376 . S
C2770 C2768 1.394 . S
C2770 C2771 1.369 . S
C2770 C2774 1.531 . S
C2771 C2770 1.369 . S
C2771 C2772 1.410 . S
C2771 C2779 1.503 . S
C2772 C2771 1.410 . S
C2772 C2773 1.392 . S
C2772 C2775 1.511 . S
C2773 C2769 1.376 . S
C2773 C2772 1.392 . S
C2773 H2785 0.929 . S
C2774 C2770 1.531 . S
C2774 H2786 0.960 . S
C2774 H2787 0.962 1_545 S
C2774 H2788 0.960 . S
C2775 C2772 1.511 . S
C2775 H2789 0.961 . S
C2775 H2790 0.961 . S
C2775 H2791 0.961 . S
C2776 C2777 1.370 . S
C2776 C2778 1.363 . S
C2776 H2792 0.931 1_545 S
C2777 C2776 1.370 . S
C2777 C2781 1.408 . S
C2778 C2776 1.363 . S
C2778 C2779 1.370 . S
C2778 C2782 1.524 1_545 S
C2779 C2771 1.503 . S
C2779 C2778 1.370 . S
C2779 C2780 1.403 . S
C2780 C2779 1.403 . S
C2780 C2781 1.404 . S
C2780 C2783 1.539 . S
C2781 C2777 1.408 . S
C2781 C2780 1.404 . S
C2781 H2793 0.930 . S
C2782 C2778 1.524 1_565 S
C2782 H2794 0.956 . S
C2782 H2795 0.961 . S
C2782 H2796 0.961 . S
C2783 C2780 1.539 . S
C2783 H2797 0.958 . S
C2783 H2798 0.961 . S
C2783 H2799 0.960 . S
H2784 C2768 0.931 . S
H2785 C2773 0.929 . S
H2786 C2774 0.960 . S
H2787 C2774 0.962 1_565 S
H2788 C2774 0.960 . S
H2789 C2775 0.961 . S
H2790 C2775 0.961 . S
H2791 C2775 0.961 . S
H2792 C2776 0.931 1_565 S
H2793 C2781 0.930 . S
H2794 C2782 0.956 . S
H2795 C2782 0.961 . S
H2796 C2782 0.961 . S
H2797 C2783 0.958 . S
H2798 C2783 0.961 . S
H2799 C2783 0.960 . S
C2800 C2801 1.391 . S
C2800 C2802 1.394 . S
C2800 H2816 0.931 . S
C2801 C2800 1.391 . S
C2801 C2805 1.376 . S
C2802 C2800 1.394 . S
C2802 C2803 1.369 . S
C2802 C2806 1.531 . S
C2803 C2802 1.369 . S
C2803 C2804 1.410 . S
C2803 C2811 1.503 . S
C2804 C2803 1.410 . S
C2804 C2805 1.392 . S
C2804 C2807 1.511 . S
C2805 C2801 1.376 . S
C2805 C2804 1.392 . S
C2805 H2817 0.929 . S
C2806 C2802 1.531 . S
C2806 H2818 0.960 . S
C2806 H2819 0.962 . S
C2806 H2820 0.960 . S
C2807 C2804 1.511 . S
C2807 H2821 0.961 . S
C2807 H2822 0.961 . S
C2807 H2823 0.961 . S
C2808 C2809 1.370 . S
C2808 C2810 1.363 . S
C2808 H2824 0.931 . S
C2809 C2808 1.370 . S
C2809 C2813 1.408 . S
C2810 C2808 1.363 . S
C2810 C2811 1.370 . S
C2810 C2814 1.524 . S
C2811 C2803 1.503 . S
C2811 C2810 1.370 . S
C2811 C2812 1.403 . S
C2812 C2811 1.403 . S
C2812 C2813 1.404 . S
C2812 C2815 1.539 . S
C2813 C2809 1.408 . S
C2813 C2812 1.404 . S
C2813 H2825 0.930 . S
C2814 C2810 1.524 . S
C2814 H2826 0.956 . S
C2814 H2827 0.961 . S
C2814 H2828 0.961 . S
C2815 C2812 1.539 . S
C2815 H2829 0.958 . S
C2815 H2830 0.961 . S
C2815 H2831 0.960 . S
H2816 C2800 0.931 . S
H2817 C2805 0.929 . S
H2818 C2806 0.960 . S
H2819 C2806 0.962 . S
H2820 C2806 0.960 . S
H2821 C2807 0.961 . S
H2822 C2807 0.961 . S
H2823 C2807 0.961 . S
H2824 C2808 0.931 . S
H2825 C2813 0.930 . S
H2826 C2814 0.956 . S
H2827 C2814 0.961 . S
H2828 C2814 0.961 . S
H2829 C2815 0.958 . S
H2830 C2815 0.961 . S
H2831 C2815 0.960 . S
C2832 C2833 1.391 . S
C2832 C2834 1.394 . S
C2832 H2848 0.931 . S
C2833 C2832 1.391 . S
C2833 C2837 1.376 . S
C2834 C2832 1.394 . S
C2834 C2835 1.369 . S
C2834 C2838 1.531 . S
C2835 C2834 1.369 . S
C2835 C2836 1.410 . S
C2835 C2843 1.503 . S
C2836 C2835 1.410 . S
C2836 C2837 1.392 . S
C2836 C2839 1.511 . S
C2837 C2833 1.376 . S
C2837 C2836 1.392 . S
C2837 H2849 0.929 . S
C2838 C2834 1.531 . S
C2838 H2850 0.957 1_545 S
C2838 H2851 0.962 . S
C2838 H2852 0.960 1_545 S
C2839 C2836 1.511 . S
C2839 H2853 0.961 . S
C2839 H2854 0.961 . S
C2839 H2855 0.961 . S
C2840 C2841 1.370 . S
C2840 C2842 1.363 . S
C2840 H2856 0.931 . S
C2841 C2840 1.370 . S
C2841 C2845 1.408 . S
C2842 C2840 1.363 . S
C2842 C2843 1.370 . S
C2842 C2846 1.524 . S
C2843 C2835 1.503 . S
C2843 C2842 1.370 . S
C2843 C2844 1.403 . S
C2844 C2843 1.403 . S
C2844 C2845 1.404 . S
C2844 C2847 1.521 1_545 S
C2845 C2841 1.408 . S
C2845 C2844 1.404 . S
C2845 H2857 0.930 . S
C2846 C2842 1.524 . S
C2846 H2858 0.956 . S
C2846 H2859 0.961 . S
C2846 H2860 0.961 . S
C2847 C2844 1.521 1_565 S
C2847 H2861 0.985 . S
C2847 H2862 0.960 . S
C2847 H2863 0.953 1_565 S
H2848 C2832 0.931 . S
H2849 C2837 0.929 . S
H2850 C2838 0.957 1_565 S
H2851 C2838 0.962 . S
H2852 C2838 0.960 1_565 S
H2853 C2839 0.961 . S
H2854 C2839 0.961 . S
H2855 C2839 0.961 . S
H2856 C2840 0.931 . S
H2857 C2845 0.930 . S
H2858 C2846 0.956 . S
H2859 C2846 0.961 . S
H2860 C2846 0.961 . S
H2861 C2847 0.985 . S
H2862 C2847 0.960 . S
H2863 C2847 0.953 1_545 S
C2864 C2865 1.391 . S
C2864 C2866 1.394 . S
C2864 H2880 0.931 . S
C2865 C2864 1.391 . S
C2865 C2869 1.376 . S
C2866 C2864 1.394 . S
C2866 C2867 1.369 . S
C2866 C2870 1.531 . S
C2867 C2866 1.369 . S
C2867 C2868 1.410 . S
C2867 C2875 1.503 . S
C2868 C2867 1.410 . S
C2868 C2869 1.392 . S
C2868 C2871 1.511 . S
C2869 C2865 1.376 . S
C2869 C2868 1.392 . S
C2869 H2881 0.929 . S
C2870 C2866 1.531 . S
C2870 H2882 0.960 . S
C2870 H2883 0.962 . S
C2870 H2884 0.960 . S
C2871 C2868 1.511 . S
C2871 H2885 0.961 . S
C2871 H2886 0.961 . S
C2871 H2887 0.961 . S
C2872 C2873 1.370 . S
C2872 C2874 1.363 . S
C2872 H2888 0.931 . S
C2873 C2872 1.370 . S
C2873 C2877 1.408 . S
C2874 C2872 1.363 . S
C2874 C2875 1.370 . S
C2874 C2878 1.524 . S
C2875 C2867 1.503 . S
C2875 C2874 1.370 . S
C2875 C2876 1.403 . S
C2876 C2875 1.403 . S
C2876 C2877 1.404 . S
C2876 C2879 1.539 . S
C2877 C2873 1.408 . S
C2877 C2876 1.404 . S
C2877 H2889 0.930 . S
C2878 C2874 1.524 . S
C2878 H2890 0.956 . S
C2878 H2891 0.961 . S
C2878 H2892 0.961 . S
C2879 C2876 1.539 . S
C2879 H2893 0.958 . S
C2879 H2894 0.961 . S
C2879 H2895 0.960 . S
H2880 C2864 0.931 . S
H2881 C2869 0.929 . S
H2882 C2870 0.960 . S
H2883 C2870 0.962 . S
H2884 C2870 0.960 . S
H2885 C2871 0.961 . S
H2886 C2871 0.961 . S
H2887 C2871 0.961 . S
H2888 C2872 0.931 . S
H2889 C2877 0.930 . S
H2890 C2878 0.956 . S
H2891 C2878 0.961 . S
H2892 C2878 0.961 . S
H2893 C2879 0.958 . S
H2894 C2879 0.961 . S
H2895 C2879 0.960 . S
C2896 C2897 1.391 1_565 S
C2896 C2898 1.394 . S
C2896 H2912 0.931 . S
C2897 C2896 1.391 1_545 S
C2897 C2901 1.376 . S
C2898 C2896 1.394 . S
C2898 C2899 1.369 1_565 S
C2898 C2902 1.531 . S
C2899 C2898 1.369 1_545 S
C2899 C2900 1.410 . S
C2899 C2907 1.503 . S
C2900 C2899 1.410 . S
C2900 C2901 1.392 . S
C2900 C2903 1.511 . S
C2901 C2897 1.376 . S
C2901 C2900 1.392 . S
C2901 H2913 0.929 . S
C2902 C2898 1.531 . S
C2902 H2914 0.960 . S
C2902 H2915 0.962 . S
C2902 H2916 0.960 . S
C2903 C2900 1.511 . S
C2903 H2917 0.961 . S
C2903 H2918 0.961 . S
C2903 H2919 0.961 . S
C2904 C2905 1.370 . S
C2904 C2906 1.363 . S
C2904 H2920 0.931 . S
C2905 C2904 1.370 . S
C2905 C2909 1.408 1_545 S
C2906 C2904 1.363 . S
C2906 C2907 1.370 . S
C2906 C2910 1.524 . S
C2907 C2899 1.503 . S
C2907 C2906 1.370 . S
C2907 C2908 1.403 1_545 S
C2908 C2907 1.403 1_565 S
C2908 C2909 1.404 . S
C2908 C2911 1.539 . S
C2909 C2905 1.408 1_565 S
C2909 C2908 1.404 . S
C2909 H2921 0.930 . S
C2910 C2906 1.524 . S
C2910 H2922 0.956 . S
C2910 H2923 0.961 . S
C2910 H2924 0.961 . S
C2911 C2908 1.539 . S
C2911 H2925 0.958 . S
C2911 H2926 0.961 . S
C2911 H2927 0.960 . S
H2912 C2896 0.931 . S
H2913 C2901 0.929 . S
H2914 C2902 0.960 . S
H2915 C2902 0.962 . S
H2916 C2902 0.960 . S
H2917 C2903 0.961 . S
H2918 C2903 0.961 . S
H2919 C2903 0.961 . S
H2920 C2904 0.931 . S
H2921 C2909 0.930 . S
H2922 C2910 0.956 . S
H2923 C2910 0.961 . S
H2924 C2910 0.961 . S
H2925 C2911 0.958 . S
H2926 C2911 0.961 . S
H2927 C2911 0.960 . S
C2928 C2929 1.391 . S
C2928 C2930 1.394 . S
C2928 H2944 0.931 . S
C2929 C2928 1.391 . S
C2929 C2933 1.376 . S
C2930 C2928 1.394 . S
C2930 C2931 1.369 . S
C2930 C2934 1.531 . S
C2931 C2930 1.369 . S
C2931 C2932 1.410 . S
C2931 C2939 1.503 . S
C2932 C2931 1.410 . S
C2932 C2933 1.392 . S
C2932 C2935 1.511 . S
C2933 C2929 1.376 . S
C2933 C2932 1.392 . S
C2933 H2945 0.929 . S
C2934 C2930 1.531 . S
C2934 H2946 0.960 . S
C2934 H2947 0.962 . S
C2934 H2948 0.960 . S
C2935 C2932 1.511 . S
C2935 H2949 0.961 . S
C2935 H2950 0.961 . S
C2935 H2951 0.961 . S
C2936 C2937 1.370 . S
C2936 C2938 1.363 . S
C2936 H2952 0.931 . S
C2937 C2936 1.370 . S
C2937 C2941 1.408 . S
C2938 C2936 1.363 . S
C2938 C2939 1.370 . S
C2938 C2942 1.524 . S
C2939 C2931 1.503 . S
C2939 C2938 1.370 . S
C2939 C2940 1.403 . S
C2940 C2939 1.403 . S
C2940 C2941 1.404 . S
C2940 C2943 1.539 . S
C2941 C2937 1.408 . S
C2941 C2940 1.404 . S
C2941 H2953 0.930 . S
C2942 C2938 1.524 . S
C2942 H2954 0.956 . S
C2942 H2955 0.961 . S
C2942 H2956 0.961 . S
C2943 C2940 1.539 . S
C2943 H2957 0.958 . S
C2943 H2958 0.961 . S
C2943 H2959 0.960 . S
H2944 C2928 0.931 . S
H2945 C2933 0.929 . S
H2946 C2934 0.960 . S
H2947 C2934 0.962 . S
H2948 C2934 0.960 . S
H2949 C2935 0.961 . S
H2950 C2935 0.961 . S
H2951 C2935 0.961 . S
H2952 C2936 0.931 . S
H2953 C2941 0.930 . S
H2954 C2942 0.956 . S
H2955 C2942 0.961 . S
H2956 C2942 0.961 . S
H2957 C2943 0.958 . S
H2958 C2943 0.961 . S
H2959 C2943 0.960 . S
C2960 C2961 1.391 . S
C2960 C2962 1.394 . S
C2960 H2976 0.931 . S
C2961 C2960 1.391 . S
C2961 C2965 1.376 . S
C2962 C2960 1.394 . S
C2962 C2963 1.369 . S
C2962 C2966 1.531 . S
C2963 C2962 1.369 . S
C2963 C2964 1.410 . S
C2963 C2971 1.503 . S
C2964 C2963 1.410 . S
C2964 C2965 1.392 . S
C2964 C2967 1.511 . S
C2965 C2961 1.376 . S
C2965 C2964 1.392 . S
C2965 H2977 0.929 . S
C2966 C2962 1.531 . S
C2966 H2978 0.960 . S
C2966 H2979 0.962 . S
C2966 H2980 0.960 . S
C2967 C2964 1.511 . S
C2967 H2981 0.961 . S
C2967 H2982 0.961 . S
C2967 H2983 0.961 . S
C2968 C2969 1.370 . S
C2968 C2970 1.363 . S
C2968 H2984 0.931 1_554 S
C2969 C2968 1.370 . S
C2969 C2973 1.408 . S
C2970 C2968 1.363 . S
C2970 C2971 1.370 . S
C2970 C2974 1.524 . S
C2971 C2963 1.503 . S
C2971 C2970 1.370 . S
C2971 C2972 1.403 . S
C2972 C2971 1.403 . S
C2972 C2973 1.404 . S
C2972 C2975 1.539 . S
C2973 C2969 1.408 . S
C2973 C2972 1.404 . S
C2973 H2985 0.930 . S
C2974 C2970 1.524 . S
C2974 H2986 0.956 . S
C2974 H2987 0.961 . S
C2974 H2988 0.961 1_554 S
C2975 C2972 1.539 . S
C2975 H2989 0.958 . S
C2975 H2990 0.961 . S
C2975 H2991 0.960 . S
H2976 C2960 0.931 . S
H2977 C2965 0.929 . S
H2978 C2966 0.960 . S
H2979 C2966 0.962 . S
H2980 C2966 0.960 . S
H2981 C2967 0.961 . S
H2982 C2967 0.961 . S
H2983 C2967 0.961 . S
H2984 C2968 0.931 1_556 S
H2985 C2973 0.930 . S
H2986 C2974 0.956 . S
H2987 C2974 0.961 . S
H2988 C2974 0.961 1_556 S
H2989 C2975 0.958 . S
H2990 C2975 0.961 . S
H2991 C2975 0.960 . S
C2992 C2993 1.391 . S
C2992 C2994 1.394 . S
C2992 H3008 0.931 . S
C2993 C2992 1.391 . S
C2993 C2997 1.376 . S
C2994 C2992 1.394 . S
C2994 C2995 1.369 . S
C2994 C2998 1.531 . S
C2995 C2994 1.369 . S
C2995 C2996 1.410 . S
C2995 C3003 1.503 . S
C2996 C2995 1.410 . S
C2996 C2997 1.392 . S
C2996 C2999 1.511 . S
C2997 C2993 1.376 . S
C2997 C2996 1.392 . S
C2997 H3009 0.929 . S
C2998 C2994 1.531 . S
C2998 H3010 0.960 . S
C2998 H3011 0.962 . S
C2998 H3012 0.960 . S
C2999 C2996 1.511 . S
C2999 H3013 0.961 . S
C2999 H3014 0.961 . S
C2999 H3015 0.961 . S
C3000 C3001 1.370 . S
C3000 C3002 1.363 . S
C3000 H3016 0.931 . S
C3001 C3000 1.370 . S
C3001 C3005 1.408 . S
C3002 C3000 1.363 . S
C3002 C3003 1.370 . S
C3002 C3006 1.524 . S
C3003 C2995 1.503 . S
C3003 C3002 1.370 . S
C3003 C3004 1.403 . S
C3004 C3003 1.403 . S
C3004 C3005 1.404 . S
C3004 C3007 1.539 . S
C3005 C3001 1.408 . S
C3005 C3004 1.404 . S
C3005 H3017 0.930 . S
C3006 C3002 1.524 . S
C3006 H3018 0.956 . S
C3006 H3019 0.961 . S
C3006 H3020 0.961 1_554 S
C3007 C3004 1.539 . S
C3007 H3021 0.958 . S
C3007 H3022 0.961 . S
C3007 H3023 0.960 . S
H3008 C2992 0.931 . S
H3009 C2997 0.929 . S
H3010 C2998 0.960 . S
H3011 C2998 0.962 . S
H3012 C2998 0.960 . S
H3013 C2999 0.961 . S
H3014 C2999 0.961 . S
H3015 C2999 0.961 . S
H3016 C3000 0.931 . S
H3017 C3005 0.930 . S
H3018 C3006 0.956 . S
H3019 C3006 0.961 . S
H3020 C3006 0.961 1_556 S
H3021 C3007 0.958 . S
H3022 C3007 0.961 . S
H3023 C3007 0.960 . S
C3024 C3025 1.391 . S
C3024 C3026 1.394 . S
C3024 H3040 0.931 . S
C3025 C3024 1.391 . S
C3025 C3029 1.376 . S
C3026 C3024 1.394 . S
C3026 C3027 1.369 . S
C3026 C3030 1.531 . S
C3027 C3026 1.369 . S
C3027 C3028 1.410 . S
C3027 C3035 1.503 . S
C3028 C3027 1.410 . S
C3028 C3029 1.392 . S
C3028 C3031 1.511 . S
C3029 C3025 1.376 . S
C3029 C3028 1.392 . S
C3029 H3041 0.929 . S
C3030 C3026 1.531 . S
C3030 H3042 0.960 . S
C3030 H3043 0.962 . S
C3030 H3044 0.960 . S
C3031 C3028 1.511 . S
C3031 H3045 0.961 . S
C3031 H3046 0.961 . S
C3031 H3047 0.961 . S
C3032 C3033 1.370 . S
C3032 C3034 1.363 . S
C3032 H3048 0.931 . S
C3033 C3032 1.370 . S
C3033 C3037 1.408 . S
C3034 C3032 1.363 . S
C3034 C3035 1.370 . S
C3034 C3038 1.524 . S
C3035 C3027 1.503 . S
C3035 C3034 1.370 . S
C3035 C3036 1.403 . S
C3036 C3035 1.403 . S
C3036 C3037 1.404 . S
C3036 C3039 1.539 . S
C3037 C3033 1.408 . S
C3037 C3036 1.404 . S
C3037 H3049 0.930 . S
C3038 C3034 1.524 . S
C3038 H3050 0.956 . S
C3038 H3051 0.961 . S
C3038 H3052 0.961 . S
C3039 C3036 1.539 . S
C3039 H3053 0.958 . S
C3039 H3054 0.961 . S
C3039 H3055 0.960 . S
H3040 C3024 0.931 . S
H3041 C3029 0.929 . S
H3042 C3030 0.960 . S
H3043 C3030 0.962 . S
H3044 C3030 0.960 . S
H3045 C3031 0.961 . S
H3046 C3031 0.961 . S
H3047 C3031 0.961 . S
H3048 C3032 0.931 . S
H3049 C3037 0.930 . S
H3050 C3038 0.956 . S
H3051 C3038 0.961 . S
H3052 C3038 0.961 . S
H3053 C3039 0.958 . S
H3054 C3039 0.961 . S
H3055 C3039 0.960 . S
C3056 C3057 1.391 . S
C3056 C3058 1.394 . S
C3056 H3072 0.931 . S
C3057 C3056 1.391 . S
C3057 C3061 1.376 . S
C3058 C3056 1.394 . S
C3058 C3059 1.369 . S
C3058 C3062 1.531 . S
C3059 C3058 1.369 . S
C3059 C3060 1.410 . S
C3059 C3067 1.503 . S
C3060 C3059 1.410 . S
C3060 C3061 1.392 . S
C3060 C3063 1.511 . S
C3061 C3057 1.376 . S
C3061 C3060 1.392 . S
C3061 H3073 0.929 . S
C3062 C3058 1.531 . S
C3062 H3074 0.960 . S
C3062 H3075 0.962 . S
C3062 H3076 0.960 . S
C3063 C3060 1.511 . S
C3063 H3077 0.961 . S
C3063 H3078 0.961 . S
C3063 H3079 0.961 . S
C3064 C3065 1.370 . S
C3064 C3066 1.363 . S
C3064 H3080 0.931 . S
C3065 C3064 1.370 . S
C3065 C3069 1.408 . S
C3066 C3064 1.363 . S
C3066 C3067 1.370 . S
C3066 C3070 1.524 . S
C3067 C3059 1.503 . S
C3067 C3066 1.370 . S
C3067 C3068 1.403 . S
C3068 C3067 1.403 . S
C3068 C3069 1.404 . S
C3068 C3071 1.539 . S
C3069 C3065 1.408 . S
C3069 C3068 1.404 . S
C3069 H3081 0.930 . S
C3070 C3066 1.524 . S
C3070 H3082 0.956 . S
C3070 H3083 0.961 . S
C3070 H3084 0.961 . S
C3071 C3068 1.539 . S
C3071 H3085 0.958 . S
C3071 H3086 0.961 . S
C3071 H3087 0.960 . S
H3072 C3056 0.931 . S
H3073 C3061 0.929 . S
H3074 C3062 0.960 . S
H3075 C3062 0.962 . S
H3076 C3062 0.960 . S
H3077 C3063 0.961 . S
H3078 C3063 0.961 . S
H3079 C3063 0.961 . S
H3080 C3064 0.931 . S
H3081 C3069 0.930 . S
H3082 C3070 0.956 . S
H3083 C3070 0.961 . S
H3084 C3070 0.961 . S
H3085 C3071 0.958 . S
H3086 C3071 0.961 . S
H3087 C3071 0.960 . S
C3088 C3089 1.430 . S
C3088 C3090 1.394 . S
C3088 H3104 0.931 . S
C3089 C3088 1.430 . S
C3089 C3093 1.379 1_565 S
C3090 C3088 1.394 . S
C3090 C3091 1.369 . S
C3090 C3094 1.531 . S
C3091 C3090 1.369 . S
C3091 C3092 1.410 . S
C3091 C3099 1.503 . S
C3092 C3091 1.410 . S
C3092 C3093 1.392 1_565 S
C3092 C3095 1.511 . S
C3093 C3089 1.379 1_545 S
C3093 C3092 1.392 1_545 S
C3093 H3105 0.929 . S
C3094 C3090 1.531 . S
C3094 H3106 0.960 . S
C3094 H3107 0.962 . S
C3094 H3108 0.960 . S
C3095 C3092 1.511 . S
C3095 H3109 0.961 1_565 S
C3095 H3110 0.961 . S
C3095 H3111 0.961 . S
C3096 C3097 1.370 . S
C3096 C3098 1.363 . S
C3096 H3112 0.931 . S
C3097 C3096 1.370 . S
C3097 C3101 1.408 . S
C3098 C3096 1.363 . S
C3098 C3099 1.370 . S
C3098 C3102 1.524 . S
C3099 C3091 1.503 . S
C3099 C3098 1.370 . S
C3099 C3100 1.403 . S
C3100 C3099 1.403 . S
C3100 C3101 1.404 . S
C3100 C3103 1.539 . S
C3101 C3097 1.408 . S
C3101 C3100 1.404 . S
C3101 H3113 0.930 . S
C3102 C3098 1.524 . S
C3102 H3114 0.956 . S
C3102 H3115 0.961 . S
C3102 H3116 0.961 . S
C3103 C3100 1.539 . S
C3103 H3117 0.958 . S
C3103 H3118 0.961 . S
C3103 H3119 0.960 . S
H3104 C3088 0.931 . S
H3105 C3093 0.929 . S
H3106 C3094 0.960 . S
H3107 C3094 0.962 . S
H3108 C3094 0.960 . S
H3109 C3095 0.961 1_545 S
H3110 C3095 0.961 . S
H3111 C3095 0.961 . S
H3112 C3096 0.931 . S
H3113 C3101 0.930 . S
H3114 C3102 0.956 . S
H3115 C3102 0.961 . S
H3116 C3102 0.961 . S
H3117 C3103 0.958 . S
H3118 C3103 0.961 . S
H3119 C3103 0.960 . S
C3120 C3121 1.391 . S
C3120 C3122 1.394 . S
C3120 H3136 0.931 . S
C3121 C3120 1.391 . S
C3121 C3125 1.376 . S
C3122 C3120 1.394 . S
C3122 C3123 1.369 . S
C3122 C3126 1.531 . S
C3123 C3122 1.369 . S
C3123 C3124 1.410 . S
C3123 C3131 1.503 . S
C3124 C3123 1.410 . S
C3124 C3125 1.392 . S
C3124 C3127 1.511 . S
C3125 C3121 1.376 . S
C3125 C3124 1.392 . S
C3125 H3137 0.929 . S
C3126 C3122 1.531 . S
C3126 H3138 0.960 . S
C3126 H3139 0.962 . S
C3126 H3140 0.960 . S
C3127 C3124 1.511 . S
C3127 H3141 0.961 . S
C3127 H3142 0.961 . S
C3127 H3143 0.961 . S
C3128 C3129 1.370 . S
C3128 C3130 1.363 . S
C3128 H3144 0.931 . S
C3129 C3128 1.370 . S
C3129 C3133 1.408 . S
C3130 C3128 1.363 . S
C3130 C3131 1.370 . S
C3130 C3134 1.524 . S
C3131 C3123 1.503 . S
C3131 C3130 1.370 . S
C3131 C3132 1.403 . S
C3132 C3131 1.403 . S
C3132 C3133 1.404 . S
C3132 C3135 1.539 . S
C3133 C3129 1.408 . S
C3133 C3132 1.404 . S
C3133 H3145 0.930 . S
C3134 C3130 1.524 . S
C3134 H3146 0.956 . S
C3134 H3147 0.961 . S
C3134 H3148 0.961 . S
C3135 C3132 1.539 . S
C3135 H3149 0.958 . S
C3135 H3150 0.961 . S
C3135 H3151 0.960 . S
H3136 C3120 0.931 . S
H3137 C3125 0.929 . S
H3138 C3126 0.960 . S
H3139 C3126 0.962 . S
H3140 C3126 0.960 . S
H3141 C3127 0.961 . S
H3142 C3127 0.961 . S
H3143 C3127 0.961 . S
H3144 C3128 0.931 . S
H3145 C3133 0.930 . S
H3146 C3134 0.956 . S
H3147 C3134 0.961 . S
H3148 C3134 0.961 . S
H3149 C3135 0.958 . S
H3150 C3135 0.961 . S
H3151 C3135 0.960 . S
C3152 C3153 1.391 . S
C3152 C3154 1.394 . S
C3152 H3168 0.931 . S
C3153 C3152 1.391 . S
C3153 C3157 1.376 . S
C3154 C3152 1.394 . S
C3154 C3155 1.369 . S
C3154 C3158 1.531 . S
C3155 C3154 1.369 . S
C3155 C3156 1.410 . S
C3155 C3163 1.503 . S
C3156 C3155 1.410 . S
C3156 C3157 1.392 . S
C3156 C3159 1.511 . S
C3157 C3153 1.376 . S
C3157 C3156 1.392 . S
C3157 H3169 0.929 . S
C3158 C3154 1.531 . S
C3158 H3170 0.960 . S
C3158 H3171 0.962 . S
C3158 H3172 0.960 . S
C3159 C3156 1.511 . S
C3159 H3173 0.961 . S
C3159 H3174 0.961 . S
C3159 H3175 0.961 . S
C3160 C3161 1.370 . S
C3160 C3162 1.363 . S
C3160 H3176 0.931 . S
C3161 C3160 1.370 . S
C3161 C3165 1.408 . S
C3162 C3160 1.363 . S
C3162 C3163 1.370 . S
C3162 C3166 1.524 . S
C3163 C3155 1.503 . S
C3163 C3162 1.370 . S
C3163 C3164 1.403 . S
C3164 C3163 1.403 . S
C3164 C3165 1.404 . S
C3164 C3167 1.539 . S
C3165 C3161 1.408 . S
C3165 C3164 1.404 . S
C3165 H3177 0.930 . S
C3166 C3162 1.524 . S
C3166 H3178 0.956 . S
C3166 H3179 0.961 . S
C3166 H3180 0.961 . S
C3167 C3164 1.539 . S
C3167 H3181 0.958 . S
C3167 H3182 0.961 . S
C3167 H3183 0.960 . S
H3168 C3152 0.931 . S
H3169 C3157 0.929 . S
H3170 C3158 0.960 . S
H3171 C3158 0.962 . S
H3172 C3158 0.960 . S
H3173 C3159 0.961 . S
H3174 C3159 0.961 . S
H3175 C3159 0.961 . S
H3176 C3160 0.931 . S
H3177 C3165 0.930 . S
H3178 C3166 0.956 . S
H3179 C3166 0.961 . S
H3180 C3166 0.961 . S
H3181 C3167 0.958 . S
H3182 C3167 0.961 . S
H3183 C3167 0.960 . S
C3184 C3185 1.391 . S
C3184 C3186 1.394 . S
C3184 H3200 0.931 . S
C3185 C3184 1.391 . S
C3185 C3189 1.376 . S
C3186 C3184 1.394 . S
C3186 C3187 1.369 . S
C3186 C3190 1.531 . S
C3187 C3186 1.369 . S
C3187 C3188 1.410 . S
C3187 C3195 1.503 . S
C3188 C3187 1.410 . S
C3188 C3189 1.392 . S
C3188 C3191 1.511 . S
C3189 C3185 1.376 . S
C3189 C3188 1.392 . S
C3189 H3201 0.929 . S
C3190 C3186 1.531 . S
C3190 H3202 0.960 . S
C3190 H3203 0.962 . S
C3190 H3204 0.960 . S
C3191 C3188 1.511 . S
C3191 H3205 0.961 . S
C3191 H3206 0.961 . S
C3191 H3207 0.961 . S
C3192 C3193 1.370 . S
C3192 C3194 1.363 . S
C3192 H3208 0.931 . S
C3193 C3192 1.370 . S
C3193 C3197 1.408 . S
C3194 C3192 1.363 . S
C3194 C3195 1.370 . S
C3194 C3198 1.524 . S
C3195 C3187 1.503 . S
C3195 C3194 1.370 . S
C3195 C3196 1.403 . S
C3196 C3195 1.403 . S
C3196 C3197 1.404 . S
C3196 C3199 1.539 . S
C3197 C3193 1.408 . S
C3197 C3196 1.404 . S
C3197 H3209 0.930 . S
C3198 C3194 1.524 . S
C3198 H3210 0.956 . S
C3198 H3211 0.961 . S
C3198 H3212 0.961 . S
C3199 C3196 1.539 . S
C3199 H3213 0.958 . S
C3199 H3214 0.961 . S
C3199 H3215 0.960 . S
H3200 C3184 0.931 . S
H3201 C3189 0.929 . S
H3202 C3190 0.960 . S
H3203 C3190 0.962 . S
H3204 C3190 0.960 . S
H3205 C3191 0.961 . S
H3206 C3191 0.961 . S
H3207 C3191 0.961 . S
H3208 C3192 0.931 . S
H3209 C3197 0.930 . S
H3210 C3198 0.956 . S
H3211 C3198 0.961 . S
H3212 C3198 0.961 . S
H3213 C3199 0.958 . S
H3214 C3199 0.961 . S
H3215 C3199 0.960 . S
C3216 C3217 1.391 . S
C3216 C3218 1.394 . S
C3216 H3232 0.931 . S
C3217 C3216 1.391 . S
C3217 C3221 1.376 . S
C3218 C3216 1.394 . S
C3218 C3219 1.369 . S
C3218 C3222 1.531 . S
C3219 C3218 1.369 . S
C3219 C3220 1.410 . S
C3219 C3227 1.503 . S
C3220 C3219 1.410 . S
C3220 C3221 1.392 . S
C3220 C3223 1.511 . S
C3221 C3217 1.376 . S
C3221 C3220 1.392 . S
C3221 H3233 0.929 . S
C3222 C3218 1.531 . S
C3222 H3234 0.960 . S
C3222 H3235 0.962 . S
C3222 H3236 0.960 . S
C3223 C3220 1.511 . S
C3223 H3237 0.961 . S
C3223 H3238 0.961 . S
C3223 H3239 0.961 . S
C3224 C3225 1.370 . S
C3224 C3226 1.363 . S
C3224 H3240 0.931 . S
C3225 C3224 1.370 . S
C3225 C3229 1.408 . S
C3226 C3224 1.363 . S
C3226 C3227 1.370 . S
C3226 C3230 1.524 . S
C3227 C3219 1.503 . S
C3227 C3226 1.370 . S
C3227 C3228 1.403 . S
C3228 C3227 1.403 . S
C3228 C3229 1.404 . S
C3228 C3231 1.539 . S
C3229 C3225 1.408 . S
C3229 C3228 1.404 . S
C3229 H3241 0.930 . S
C3230 C3226 1.524 . S
C3230 H3242 0.956 . S
C3230 H3243 0.961 . S
C3230 H3244 0.961 . S
C3231 C3228 1.539 . S
C3231 H3245 0.958 . S
C3231 H3246 0.961 . S
C3231 H3247 0.960 . S
H3232 C3216 0.931 . S
H3233 C3221 0.929 . S
H3234 C3222 0.960 . S
H3235 C3222 0.962 . S
H3236 C3222 0.960 . S
H3237 C3223 0.961 . S
H3238 C3223 0.961 . S
H3239 C3223 0.961 . S
H3240 C3224 0.931 . S
H3241 C3229 0.930 . S
H3242 C3230 0.956 . S
H3243 C3230 0.961 . S
H3244 C3230 0.961 . S
H3245 C3231 0.958 . S
H3246 C3231 0.961 . S
H3247 C3231 0.960 . S
C3248 C3249 1.391 . S
C3248 C3250 1.394 . S
C3248 H3264 0.931 . S
C3249 C3248 1.391 . S
C3249 C3253 1.376 . S
C3250 C3248 1.394 . S
C3250 C3251 1.369 . S
C3250 C3254 1.531 . S
C3251 C3250 1.369 . S
C3251 C3252 1.410 . S
C3251 C3259 1.503 . S
C3252 C3251 1.410 . S
C3252 C3253 1.392 . S
C3252 C3255 1.511 . S
C3253 C3249 1.376 . S
C3253 C3252 1.392 . S
C3253 H3265 0.929 . S
C3254 C3250 1.531 . S
C3254 H3266 0.960 . S
C3254 H3267 0.962 . S
C3254 H3268 0.960 . S
C3255 C3252 1.511 . S
C3255 H3269 0.961 . S
C3255 H3270 0.961 . S
C3255 H3271 0.961 . S
C3256 C3257 1.370 . S
C3256 C3258 1.363 . S
C3256 H3272 0.931 . S
C3257 C3256 1.370 . S
C3257 C3261 1.408 . S
C3258 C3256 1.363 . S
C3258 C3259 1.370 . S
C3258 C3262 1.524 . S
C3259 C3251 1.503 . S
C3259 C3258 1.370 . S
C3259 C3260 1.403 . S
C3260 C3259 1.403 . S
C3260 C3261 1.404 . S
C3260 C3263 1.539 . S
C3261 C3257 1.408 . S
C3261 C3260 1.404 . S
C3261 H3273 0.930 . S
C3262 C3258 1.524 . S
C3262 H3274 0.956 . S
C3262 H3275 0.961 . S
C3262 H3276 0.961 . S
C3263 C3260 1.539 . S
C3263 H3277 0.958 . S
C3263 H3278 0.961 . S
C3263 H3279 0.960 . S
H3264 C3248 0.931 . S
H3265 C3253 0.929 . S
H3266 C3254 0.960 . S
H3267 C3254 0.962 . S
H3268 C3254 0.960 . S
H3269 C3255 0.961 . S
H3270 C3255 0.961 . S
H3271 C3255 0.961 . S
H3272 C3256 0.931 . S
H3273 C3261 0.930 . S
H3274 C3262 0.956 . S
H3275 C3262 0.961 . S
H3276 C3262 0.961 . S
H3277 C3263 0.958 . S
H3278 C3263 0.961 . S
H3279 C3263 0.960 . S
C3280 C3281 1.391 . S
C3280 C3282 1.394 . S
C3280 H3296 0.931 . S
C3281 C3280 1.391 . S
C3281 C3285 1.376 1_455 S
C3282 C3280 1.394 . S
C3282 C3283 1.369 . S
C3282 C3286 1.531 . S
C3283 C3282 1.369 . S
C3283 C3284 1.410 1_455 S
C3283 C3291 1.514 . S
C3284 C3283 1.410 1_655 S
C3284 C3285 1.392 . S
C3284 C3287 1.511 1_556 S
C3285 C3281 1.376 1_655 S
C3285 C3284 1.392 . S
C3285 H3297 0.929 . S
C3286 C3282 1.531 . S
C3286 H3298 0.960 . S
C3286 H3299 0.962 . S
C3286 H3300 0.960 . S
C3287 C3284 1.511 1_554 S
C3287 H3301 0.961 . S
C3287 H3302 0.961 . S
C3287 H3303 0.961 1_554 S
C3288 C3289 1.370 . S
C3288 C3290 1.363 . S
C3288 H3304 0.931 . S
C3289 C3288 1.370 . S
C3289 C3293 1.408 1_554 S
C3290 C3288 1.363 . S
C3290 C3291 1.331 1_554 S
C3290 C3294 1.524 . S
C3291 C3283 1.514 . S
C3291 C3290 1.331 1_556 S
C3291 C3292 1.433 . S
C3292 C3291 1.433 . S
C3292 C3293 1.404 . S
C3292 C3295 1.539 1_455 S
C3293 C3289 1.408 1_556 S
C3293 C3292 1.404 . S
C3293 H3305 0.930 . S
C3294 C3290 1.524 . S
C3294 H3306 0.956 . S
C3294 H3307 0.961 . S
C3294 H3308 0.961 . S
C3295 C3292 1.539 1_655 S
C3295 H3309 0.958 1_655 S
C3295 H3310 0.961 . S
C3295 H3311 0.960 . S
H3296 C3280 0.931 . S
H3297 C3285 0.929 . S
H3298 C3286 0.960 . S
H3299 C3286 0.962 . S
H3300 C3286 0.960 . S
H3301 C3287 0.961 . S
H3302 C3287 0.961 . S
H3303 C3287 0.961 1_556 S
H3304 C3288 0.931 . S
H3305 C3293 0.930 . S
H3306 C3294 0.956 . S
H3307 C3294 0.961 . S
H3308 C3294 0.961 . S
H3309 C3295 0.958 1_455 S
H3310 C3295 0.961 . S
H3311 C3295 0.960 . S
C3312 C3313 1.391 . S
C3312 C3314 1.394 . S
C3312 H3328 0.958 . S
C3313 C3312 1.391 . S
C3313 C3317 1.376 . S
C3314 C3312 1.394 . S
C3314 C3315 1.369 . S
C3314 C3318 1.531 . S
C3315 C3314 1.369 . S
C3315 C3316 1.410 . S
C3315 C3323 1.503 . S
C3316 C3315 1.410 . S
C3316 C3317 1.392 . S
C3316 C3319 1.511 . S
C3317 C3313 1.376 . S
C3317 C3316 1.392 . S
C3317 H3329 0.929 . S
C3318 C3314 1.531 . S
C3318 H3330 0.960 . S
C3318 H3331 0.962 . S
C3318 H3332 0.960 . S
C3319 C3316 1.511 . S
C3319 H3333 0.961 . S
C3319 H3334 0.961 . S
C3319 H3335 0.961 . S
C3320 C3321 1.370 . S
C3320 C3322 1.363 . S
C3320 H3336 0.931 . S
C3321 C3320 1.370 . S
C3321 C3325 1.408 . S
C3322 C3320 1.363 . S
C3322 C3323 1.370 . S
C3322 C3326 1.524 . S
C3323 C3315 1.503 . S
C3323 C3322 1.370 . S
C3323 C3324 1.403 . S
C3324 C3323 1.403 . S
C3324 C3325 1.404 . S
C3324 C3327 1.539 . S
C3325 C3321 1.408 . S
C3325 C3324 1.404 . S
C3325 H3337 0.930 . S
C3326 C3322 1.524 . S
C3326 H3338 0.956 . S
C3326 H3339 0.961 . S
C3326 H3340 0.961 . S
C3327 C3324 1.539 . S
C3327 H3341 0.958 . S
C3327 H3342 0.961 . S
C3327 H3343 0.960 . S
H3328 C3312 0.958 . S
H3329 C3317 0.929 . S
H3330 C3318 0.960 . S
H3331 C3318 0.962 . S
H3332 C3318 0.960 . S
H3333 C3319 0.961 . S
H3334 C3319 0.961 . S
H3335 C3319 0.961 . S
H3336 C3320 0.931 . S
H3337 C3325 0.930 . S
H3338 C3326 0.956 . S
H3339 C3326 0.961 . S
H3340 C3326 0.961 . S
H3341 C3327 0.958 . S
H3342 C3327 0.961 . S
H3343 C3327 0.960 . S
C3344 C3345 1.391 . S
C3344 C3346 1.394 . S
C3344 H3360 0.931 . S
C3345 C3344 1.391 . S
C3345 C3349 1.376 . S
C3346 C3344 1.394 . S
C3346 C3347 1.369 . S
C3346 C3350 1.531 . S
C3347 C3346 1.369 . S
C3347 C3348 1.410 . S
C3347 C3355 1.503 . S
C3348 C3347 1.410 . S
C3348 C3349 1.392 . S
C3348 C3351 1.511 . S
C3349 C3345 1.376 . S
C3349 C3348 1.392 . S
C3349 H3361 0.929 . S
C3350 C3346 1.531 . S
C3350 H3362 0.960 . S
C3350 H3363 0.962 . S
C3350 H3364 0.960 . S
C3351 C3348 1.511 . S
C3351 H3365 0.961 . S
C3351 H3366 0.961 . S
C3351 H3367 0.961 . S
C3352 C3353 1.370 . S
C3352 C3354 1.363 . S
C3352 H3368 0.931 . S
C3353 C3352 1.370 . S
C3353 C3357 1.408 . S
C3354 C3352 1.363 . S
C3354 C3355 1.370 . S
C3354 C3358 1.524 . S
C3355 C3347 1.503 . S
C3355 C3354 1.370 . S
C3355 C3356 1.403 . S
C3356 C3355 1.403 . S
C3356 C3357 1.404 . S
C3356 C3359 1.539 . S
C3357 C3353 1.408 . S
C3357 C3356 1.404 . S
C3357 H3369 0.930 . S
C3358 C3354 1.524 . S
C3358 H3370 0.956 . S
C3358 H3371 0.961 . S
C3358 H3372 0.961 . S
C3359 C3356 1.539 . S
C3359 H3373 0.958 . S
C3359 H3374 0.961 . S
C3359 H3375 0.960 . S
H3360 C3344 0.931 . S
H3361 C3349 0.929 . S
H3362 C3350 0.960 . S
H3363 C3350 0.962 . S
H3364 C3350 0.960 . S
H3365 C3351 0.961 . S
H3366 C3351 0.961 . S
H3367 C3351 0.961 . S
H3368 C3352 0.931 . S
H3369 C3357 0.930 . S
H3370 C3358 0.956 . S
H3371 C3358 0.961 . S
H3372 C3358 0.961 . S
H3373 C3359 0.958 . S
H3374 C3359 0.961 . S
H3375 C3359 0.960 . S
C3376 C3377 1.391 . S
C3376 C3378 1.394 . S
C3376 H3392 0.931 . S
C3377 C3376 1.391 . S
C3377 C3381 1.376 . S
C3378 C3376 1.394 . S
C3378 C3379 1.369 . S
C3378 C3382 1.531 . S
C3379 C3378 1.369 . S
C3379 C3380 1.410 . S
C3379 C3387 1.503 . S
C3380 C3379 1.410 . S
C3380 C3381 1.392 . S
C3380 C3383 1.511 . S
C3381 C3377 1.376 . S
C3381 C3380 1.392 . S
C3381 H3393 0.929 . S
C3382 C3378 1.531 . S
C3382 H3394 0.960 . S
C3382 H3395 0.962 . S
C3382 H3396 0.960 . S
C3383 C3380 1.511 . S
C3383 H3397 0.961 . S
C3383 H3398 0.961 . S
C3383 H3399 0.961 . S
C3384 C3385 1.370 . S
C3384 C3386 1.363 . S
C3384 H3400 0.931 . S
C3385 C3384 1.370 . S
C3385 C3389 1.408 . S
C3386 C3384 1.363 . S
C3386 C3387 1.370 . S
C3386 C3390 1.524 . S
C3387 C3379 1.503 . S
C3387 C3386 1.370 . S
C3387 C3388 1.403 . S
C3388 C3387 1.403 . S
C3388 C3389 1.404 . S
C3388 C3391 1.539 . S
C3389 C3385 1.408 . S
C3389 C3388 1.404 . S
C3389 H3401 0.930 . S
C3390 C3386 1.524 . S
C3390 H3402 0.956 . S
C3390 H3403 0.961 . S
C3390 H3404 0.961 . S
C3391 C3388 1.539 . S
C3391 H3405 0.958 . S
C3391 H3406 0.961 . S
C3391 H3407 0.960 . S
H3392 C3376 0.931 . S
H3393 C3381 0.929 . S
H3394 C3382 0.960 . S
H3395 C3382 0.962 . S
H3396 C3382 0.960 . S
H3397 C3383 0.961 . S
H3398 C3383 0.961 . S
H3399 C3383 0.961 . S
H3400 C3384 0.931 . S
H3401 C3389 0.930 . S
H3402 C3390 0.956 . S
H3403 C3390 0.961 . S
H3404 C3390 0.961 . S
H3405 C3391 0.958 . S
H3406 C3391 0.961 . S
H3407 C3391 0.960 . S
C3408 C3409 1.391 . S
C3408 C3410 1.394 . S
C3408 H3424 0.931 . S
C3409 C3408 1.391 . S
C3409 C3413 1.376 . S
C3410 C3408 1.394 . S
C3410 C3411 1.369 . S
C3410 C3414 1.531 . S
C3411 C3410 1.369 . S
C3411 C3412 1.437 . S
C3411 C3419 1.503 . S
C3412 C3411 1.437 . S
C3412 C3413 1.382 . S
C3412 C3415 1.496 1_455 S
C3413 C3409 1.376 . S
C3413 C3412 1.382 . S
C3413 H3425 0.929 1_455 S
C3414 C3410 1.531 . S
C3414 H3426 0.960 . S
C3414 H3427 0.962 . S
C3414 H3428 0.960 . S
C3415 C3412 1.496 1_655 S
C3415 H3429 0.961 . S
C3415 H3430 0.961 . S
C3415 H3431 0.961 . S
C3416 C3417 1.370 . S
C3416 C3418 1.363 . S
C3416 H3432 0.931 . S
C3417 C3416 1.370 . S
C3417 C3421 1.415 . S
C3418 C3416 1.363 . S
C3418 C3419 1.370 . S
C3418 C3422 1.524 . S
C3419 C3411 1.503 . S
C3419 C3418 1.370 . S
C3419 C3420 1.403 1_455 S
C3420 C3419 1.403 1_655 S
C3420 C3421 1.401 1_655 S
C3420 C3423 1.539 . S
C3421 C3417 1.415 . S
C3421 C3420 1.401 1_455 S
C3421 H3433 0.926 1_455 S
C3422 C3418 1.524 . S
C3422 H3434 0.956 . S
C3422 H3435 0.961 . S
C3422 H3436 0.961 . S
C3423 C3420 1.539 . S
C3423 H3437 0.958 . S
C3423 H3438 0.961 . S
C3423 H3439 0.960 . S
H3424 C3408 0.931 . S
H3425 C3413 0.929 1_655 S
H3426 C3414 0.960 . S
H3427 C3414 0.962 . S
H3428 C3414 0.960 . S
H3429 C3415 0.961 . S
H3430 C3415 0.961 . S
H3431 C3415 0.961 . S
H3432 C3416 0.931 . S
H3433 C3421 0.926 1_655 S
H3434 C3422 0.956 . S
H3435 C3422 0.961 . S
H3436 C3422 0.961 . S
H3437 C3423 0.958 . S
H3438 C3423 0.961 . S
H3439 C3423 0.960 . S
C3440 C3441 1.391 . S
C3440 C3442 1.394 . S
C3440 H3456 0.931 . S
C3441 C3440 1.391 . S
C3441 C3445 1.376 . S
C3442 C3440 1.394 . S
C3442 C3443 1.369 . S
C3442 C3446 1.531 . S
C3443 C3442 1.369 . S
C3443 C3444 1.410 . S
C3443 C3451 1.503 . S
C3444 C3443 1.410 . S
C3444 C3445 1.392 . S
C3444 C3447 1.511 . S
C3445 C3441 1.376 . S
C3445 C3444 1.392 . S
C3445 H3457 0.929 . S
C3446 C3442 1.531 . S
C3446 H3458 0.960 . S
C3446 H3459 0.962 . S
C3446 H3460 0.960 . S
C3447 C3444 1.511 . S
C3447 H3461 0.961 . S
C3447 H3462 0.961 . S
C3447 H3463 0.961 . S
C3448 C3449 1.370 . S
C3448 C3450 1.363 . S
C3448 H3464 0.931 . S
C3449 C3448 1.370 . S
C3449 C3453 1.408 . S
C3450 C3448 1.363 . S
C3450 C3451 1.370 . S
C3450 C3454 1.524 . S
C3451 C3443 1.503 . S
C3451 C3450 1.370 . S
C3451 C3452 1.403 . S
C3452 C3451 1.403 . S
C3452 C3453 1.404 . S
C3452 C3455 1.539 . S
C3453 C3449 1.408 . S
C3453 C3452 1.404 . S
C3453 H3465 0.930 . S
C3454 C3450 1.524 . S
C3454 H3466 0.956 . S
C3454 H3467 0.961 . S
C3454 H3468 0.961 . S
C3455 C3452 1.539 . S
C3455 H3469 0.958 . S
C3455 H3470 0.961 . S
C3455 H3471 0.960 . S
H3456 C3440 0.931 . S
H3457 C3445 0.929 . S
H3458 C3446 0.960 . S
H3459 C3446 0.962 . S
H3460 C3446 0.960 . S
H3461 C3447 0.961 . S
H3462 C3447 0.961 . S
H3463 C3447 0.961 . S
H3464 C3448 0.931 . S
H3465 C3453 0.930 . S
H3466 C3454 0.956 . S
H3467 C3454 0.961 . S
H3468 C3454 0.961 . S
H3469 C3455 0.958 . S
H3470 C3455 0.961 . S
H3471 C3455 0.960 . S
C3472 C3473 1.391 . S
C3472 C3474 1.394 . S
C3472 H3488 0.931 . S
C3473 C3472 1.391 . S
C3473 C3477 1.376 . S
C3474 C3472 1.394 . S
C3474 C3475 1.369 . S
C3474 C3478 1.531 . S
C3475 C3474 1.369 . S
C3475 C3476 1.410 . S
C3475 C3483 1.503 . S
C3476 C3475 1.410 . S
C3476 C3477 1.392 . S
C3476 C3479 1.511 . S
C3477 C3473 1.376 . S
C3477 C3476 1.392 . S
C3477 H3489 0.929 . S
C3478 C3474 1.531 . S
C3478 H3490 0.960 . S
C3478 H3491 0.962 . S
C3478 H3492 0.960 . S
C3479 C3476 1.511 . S
C3479 H3493 0.961 . S
C3479 H3494 0.961 . S
C3479 H3495 0.961 . S
C3480 C3481 1.370 . S
C3480 C3482 1.363 . S
C3480 H3496 0.931 . S
C3481 C3480 1.370 . S
C3481 C3485 1.408 . S
C3482 C3480 1.363 . S
C3482 C3483 1.370 . S
C3482 C3486 1.524 . S
C3483 C3475 1.503 . S
C3483 C3482 1.370 . S
C3483 C3484 1.403 . S
C3484 C3483 1.403 . S
C3484 C3485 1.404 . S
C3484 C3487 1.539 . S
C3485 C3481 1.408 . S
C3485 C3484 1.404 . S
C3485 H3497 0.930 . S
C3486 C3482 1.524 . S
C3486 H3498 0.956 . S
C3486 H3499 0.961 . S
C3486 H3500 0.961 . S
C3487 C3484 1.539 . S
C3487 H3501 0.958 . S
C3487 H3502 0.961 . S
C3487 H3503 0.960 . S
H3488 C3472 0.931 . S
H3489 C3477 0.929 . S
H3490 C3478 0.960 . S
H3491 C3478 0.962 . S
H3492 C3478 0.960 . S
H3493 C3479 0.961 . S
H3494 C3479 0.961 . S
H3495 C3479 0.961 . S
H3496 C3480 0.931 . S
H3497 C3485 0.930 . S
H3498 C3486 0.956 . S
H3499 C3486 0.961 . S
H3500 C3486 0.961 . S
H3501 C3487 0.958 . S
H3502 C3487 0.961 . S
H3503 C3487 0.960 . S
C3504 C3505 1.391 . S
C3504 C3506 1.394 1_554 S
C3504 H3520 0.931 . S
C3505 C3504 1.391 . S
C3505 C3509 1.376 1_554 S
C3506 C3504 1.394 1_556 S
C3506 C3507 1.369 . S
C3506 C3510 1.531 . S
C3507 C3506 1.369 . S
C3507 C3508 1.410 . S
C3507 C3515 1.503 . S
C3508 C3507 1.410 . S
C3508 C3509 1.392 . S
C3508 C3511 1.511 . S
C3509 C3505 1.376 1_556 S
C3509 C3508 1.392 . S
C3509 H3521 0.929 1_556 S
C3510 C3506 1.531 . S
C3510 H3522 0.960 . S
C3510 H3523 0.962 . S
C3510 H3524 0.960 . S
C3511 C3508 1.511 . S
C3511 H3525 0.961 . S
C3511 H3526 0.961 . S
C3511 H3527 0.961 . S
C3512 C3513 1.370 . S
C3512 C3514 1.363 . S
C3512 H3528 0.931 . S
C3513 C3512 1.370 . S
C3513 C3517 1.408 . S
C3514 C3512 1.363 . S
C3514 C3515 1.370 . S
C3514 C3518 1.524 . S
C3515 C3507 1.503 . S
C3515 C3514 1.370 . S
C3515 C3516 1.403 . S
C3516 C3515 1.403 . S
C3516 C3517 1.404 . S
C3516 C3519 1.539 . S
C3517 C3513 1.408 . S
C3517 C3516 1.404 . S
C3517 H3529 0.930 . S
C3518 C3514 1.524 . S
C3518 H3530 0.956 . S
C3518 H3531 0.961 . S
C3518 H3532 0.961 . S
C3519 C3516 1.539 . S
C3519 H3533 0.958 . S
C3519 H3534 0.961 . S
C3519 H3535 0.960 . S
H3520 C3504 0.931 . S
H3521 C3509 0.929 1_554 S
H3522 C3510 0.960 . S
H3523 C3510 0.962 . S
H3524 C3510 0.960 . S
H3525 C3511 0.961 . S
H3526 C3511 0.961 . S
H3527 C3511 0.961 . S
H3528 C3512 0.931 . S
H3529 C3517 0.930 . S
H3530 C3518 0.956 . S
H3531 C3518 0.961 . S
H3532 C3518 0.961 . S
H3533 C3519 0.958 . S
H3534 C3519 0.961 . S
H3535 C3519 0.960 . S
C3536 C3537 1.391 . S
C3536 C3538 1.394 . S
C3536 H3552 0.931 . S
C3537 C3536 1.391 . S
C3537 C3541 1.376 . S
C3538 C3536 1.394 . S
C3538 C3539 1.369 . S
C3538 C3542 1.531 . S
C3539 C3538 1.369 . S
C3539 C3540 1.410 . S
C3539 C3547 1.503 . S
C3540 C3539 1.410 . S
C3540 C3541 1.392 . S
C3540 C3543 1.511 . S
C3541 C3537 1.376 . S
C3541 C3540 1.392 . S
C3541 H3553 0.929 . S
C3542 C3538 1.531 . S
C3542 H3554 0.960 . S
C3542 H3555 0.962 . S
C3542 H3556 0.960 . S
C3543 C3540 1.511 . S
C3543 H3557 0.961 . S
C3543 H3558 0.961 . S
C3543 H3559 0.961 . S
C3544 C3545 1.370 . S
C3544 C3546 1.363 . S
C3544 H3560 0.931 . S
C3545 C3544 1.370 . S
C3545 C3549 1.408 . S
C3546 C3544 1.363 . S
C3546 C3547 1.370 . S
C3546 C3550 1.524 . S
C3547 C3539 1.503 . S
C3547 C3546 1.370 . S
C3547 C3548 1.403 . S
C3548 C3547 1.403 . S
C3548 C3549 1.404 . S
C3548 C3551 1.539 . S
C3549 C3545 1.408 . S
C3549 C3548 1.404 . S
C3549 H3561 0.930 . S
C3550 C3546 1.524 . S
C3550 H3562 0.956 . S
C3550 H3563 0.961 . S
C3550 H3564 0.961 . S
C3551 C3548 1.539 . S
C3551 H3565 0.958 . S
C3551 H3566 0.961 . S
C3551 H3567 0.960 . S
H3552 C3536 0.931 . S
H3553 C3541 0.929 . S
H3554 C3542 0.960 . S
H3555 C3542 0.962 . S
H3556 C3542 0.960 . S
H3557 C3543 0.961 . S
H3558 C3543 0.961 . S
H3559 C3543 0.961 . S
H3560 C3544 0.931 . S
H3561 C3549 0.930 . S
H3562 C3550 0.956 . S
H3563 C3550 0.961 . S
H3564 C3550 0.961 . S
H3565 C3551 0.958 . S
H3566 C3551 0.961 . S
H3567 C3551 0.960 . S
C3568 C3569 1.391 . S
C3568 C3570 1.394 . S
C3568 H3584 0.931 . S
C3569 C3568 1.391 . S
C3569 C3573 1.376 . S
C3570 C3568 1.394 . S
C3570 C3571 1.369 . S
C3570 C3574 1.531 . S
C3571 C3570 1.369 . S
C3571 C3572 1.410 . S
C3571 C3579 1.503 . S
C3572 C3571 1.410 . S
C3572 C3573 1.392 . S
C3572 C3575 1.511 . S
C3573 C3569 1.376 . S
C3573 C3572 1.392 . S
C3573 H3585 0.929 . S
C3574 C3570 1.531 . S
C3574 H3586 0.960 . S
C3574 H3587 0.962 . S
C3574 H3588 0.960 . S
C3575 C3572 1.511 . S
C3575 H3589 0.961 . S
C3575 H3590 0.961 . S
C3575 H3591 0.961 . S
C3576 C3577 1.370 . S
C3576 C3578 1.363 . S
C3576 H3592 0.931 . S
C3577 C3576 1.370 . S
C3577 C3581 1.408 . S
C3578 C3576 1.363 . S
C3578 C3579 1.370 . S
C3578 C3582 1.524 . S
C3579 C3571 1.503 . S
C3579 C3578 1.370 . S
C3579 C3580 1.403 . S
C3580 C3579 1.403 . S
C3580 C3581 1.404 . S
C3580 C3583 1.539 . S
C3581 C3577 1.408 . S
C3581 C3580 1.404 . S
C3581 H3593 0.930 . S
C3582 C3578 1.524 . S
C3582 H3594 0.956 . S
C3582 H3595 0.961 . S
C3582 H3596 0.961 . S
C3583 C3580 1.539 . S
C3583 H3597 0.958 . S
C3583 H3598 0.961 . S
C3583 H3599 0.960 . S
H3584 C3568 0.931 . S
H3585 C3573 0.929 . S
H3586 C3574 0.960 . S
H3587 C3574 0.962 . S
H3588 C3574 0.960 . S
H3589 C3575 0.961 . S
H3590 C3575 0.961 . S
H3591 C3575 0.961 . S
H3592 C3576 0.931 . S
H3593 C3581 0.930 . S
H3594 C3582 0.956 . S
H3595 C3582 0.961 . S
H3596 C3582 0.961 . S
H3597 C3583 0.958 . S
H3598 C3583 0.961 . S
H3599 C3583 0.960 . S
C3600 C3601 1.391 . S
C3600 C3602 1.394 . S
C3600 H3616 0.931 . S
C3601 C3600 1.391 . S
C3601 C3605 1.376 . S
C3602 C3600 1.394 . S
C3602 C3603 1.369 . S
C3602 C3606 1.531 . S
C3603 C3602 1.369 . S
C3603 C3604 1.410 . S
C3603 C3611 1.503 . S
C3604 C3603 1.410 . S
C3604 C3605 1.392 . S
C3604 C3607 1.511 . S
C3605 C3601 1.376 . S
C3605 C3604 1.392 . S
C3605 H3617 0.929 . S
C3606 C3602 1.531 . S
C3606 H3618 0.960 . S
C3606 H3619 0.962 . S
C3606 H3620 0.960 . S
C3607 C3604 1.511 . S
C3607 H3621 0.961 . S
C3607 H3622 0.961 . S
C3607 H3623 0.961 . S
C3608 C3609 1.370 . S
C3608 C3610 1.363 . S
C3608 H3624 0.931 . S
C3609 C3608 1.370 . S
C3609 C3613 1.408 . S
C3610 C3608 1.363 . S
C3610 C3611 1.370 . S
C3610 C3614 1.524 . S
C3611 C3603 1.503 . S
C3611 C3610 1.370 . S
C3611 C3612 1.403 . S
C3612 C3611 1.403 . S
C3612 C3613 1.404 . S
C3612 C3615 1.539 . S
C3613 C3609 1.408 . S
C3613 C3612 1.404 . S
C3613 H3625 0.930 . S
C3614 C3610 1.524 . S
C3614 H3626 0.956 . S
C3614 H3627 0.961 . S
C3614 H3628 0.961 . S
C3615 C3612 1.539 . S
C3615 H3629 0.958 . S
C3615 H3630 0.961 . S
C3615 H3631 0.960 . S
H3616 C3600 0.931 . S
H3617 C3605 0.929 . S
H3618 C3606 0.960 . S
H3619 C3606 0.962 . S
H3620 C3606 0.960 . S
H3621 C3607 0.961 . S
H3622 C3607 0.961 . S
H3623 C3607 0.961 . S
H3624 C3608 0.931 . S
H3625 C3613 0.930 . S
H3626 C3614 0.956 . S
H3627 C3614 0.961 . S
H3628 C3614 0.961 . S
H3629 C3615 0.958 . S
H3630 C3615 0.961 . S
H3631 C3615 0.960 . S
C3632 C3633 1.391 . S
C3632 C3634 1.394 . S
C3632 H3648 0.931 . S
C3633 C3632 1.391 . S
C3633 C3637 1.376 . S
C3634 C3632 1.394 . S
C3634 C3635 1.369 . S
C3634 C3638 1.531 . S
C3635 C3634 1.369 . S
C3635 C3636 1.410 . S
C3635 C3643 1.503 . S
C3636 C3635 1.410 . S
C3636 C3637 1.392 . S
C3636 C3639 1.511 . S
C3637 C3633 1.376 . S
C3637 C3636 1.392 . S
C3637 H3649 0.929 . S
C3638 C3634 1.531 . S
C3638 H3650 0.960 . S
C3638 H3651 0.962 . S
C3638 H3652 0.960 . S
C3639 C3636 1.511 . S
C3639 H3653 0.961 . S
C3639 H3654 0.961 . S
C3639 H3655 0.961 . S
C3640 C3641 1.370 . S
C3640 C3642 1.363 . S
C3640 H3656 0.931 . S
C3641 C3640 1.370 . S
C3641 C3645 1.408 . S
C3642 C3640 1.363 . S
C3642 C3643 1.370 . S
C3642 C3646 1.524 . S
C3643 C3635 1.503 . S
C3643 C3642 1.370 . S
C3643 C3644 1.403 . S
C3644 C3643 1.403 . S
C3644 C3645 1.404 . S
C3644 C3647 1.539 . S
C3645 C3641 1.408 . S
C3645 C3644 1.404 . S
C3645 H3657 0.930 . S
C3646 C3642 1.524 . S
C3646 H3658 0.956 . S
C3646 H3659 0.961 . S
C3646 H3660 0.961 . S
C3647 C3644 1.539 . S
C3647 H3661 0.958 . S
C3647 H3662 0.961 . S
C3647 H3663 0.960 . S
H3648 C3632 0.931 . S
H3649 C3637 0.929 . S
H3650 C3638 0.960 . S
H3651 C3638 0.962 . S
H3652 C3638 0.960 . S
H3653 C3639 0.961 . S
H3654 C3639 0.961 . S
H3655 C3639 0.961 . S
H3656 C3640 0.931 . S
H3657 C3645 0.930 . S
H3658 C3646 0.956 . S
H3659 C3646 0.961 . S
H3660 C3646 0.961 . S
H3661 C3647 0.958 . S
H3662 C3647 0.961 . S
H3663 C3647 0.960 . S
C3664 C3665 1.391 . S
C3664 C3666 1.394 . S
C3664 H3680 0.931 . S
C3665 C3664 1.391 . S
C3665 C3669 1.376 . S
C3666 C3664 1.394 . S
C3666 C3667 1.369 . S
C3666 C3670 1.531 . S
C3667 C3666 1.369 . S
C3667 C3668 1.410 . S
C3667 C3675 1.503 . S
C3668 C3667 1.410 . S
C3668 C3669 1.392 . S
C3668 C3671 1.511 . S
C3669 C3665 1.376 . S
C3669 C3668 1.392 . S
C3669 H3681 0.929 . S
C3670 C3666 1.531 . S
C3670 H3682 0.960 . S
C3670 H3683 0.962 . S
C3670 H3684 0.960 . S
C3671 C3668 1.511 . S
C3671 H3685 0.961 . S
C3671 H3686 0.961 . S
C3671 H3687 0.961 . S
C3672 C3673 1.370 . S
C3672 C3674 1.363 . S
C3672 H3688 0.931 . S
C3673 C3672 1.370 . S
C3673 C3677 1.408 . S
C3674 C3672 1.363 . S
C3674 C3675 1.370 . S
C3674 C3678 1.524 . S
C3675 C3667 1.503 . S
C3675 C3674 1.370 . S
C3675 C3676 1.403 . S
C3676 C3675 1.403 . S
C3676 C3677 1.404 . S
C3676 C3679 1.539 . S
C3677 C3673 1.408 . S
C3677 C3676 1.404 . S
C3677 H3689 0.930 . S
C3678 C3674 1.524 . S
C3678 H3690 0.956 . S
C3678 H3691 0.961 . S
C3678 H3692 0.961 . S
C3679 C3676 1.539 . S
C3679 H3693 0.958 . S
C3679 H3694 0.961 . S
C3679 H3695 0.960 . S
H3680 C3664 0.931 . S
H3681 C3669 0.929 . S
H3682 C3670 0.960 . S
H3683 C3670 0.962 . S
H3684 C3670 0.960 . S
H3685 C3671 0.961 . S
H3686 C3671 0.961 . S
H3687 C3671 0.961 . S
H3688 C3672 0.931 . S
H3689 C3677 0.930 . S
H3690 C3678 0.956 . S
H3691 C3678 0.961 . S
H3692 C3678 0.961 . S
H3693 C3679 0.958 . S
H3694 C3679 0.961 . S
H3695 C3679 0.960 . S
C3696 C3697 1.391 . S
C3696 C3698 1.394 . S
C3696 H3712 0.931 . S
C3697 C3696 1.391 . S
C3697 C3701 1.376 . S
C3698 C3696 1.394 . S
C3698 C3699 1.369 . S
C3698 C3702 1.531 . S
C3699 C3698 1.369 . S
C3699 C3700 1.410 . S
C3699 C3707 1.503 . S
C3700 C3699 1.410 . S
C3700 C3701 1.392 . S
C3700 C3703 1.511 . S
C3701 C3697 1.376 . S
C3701 C3700 1.392 . S
C3701 H3713 0.929 . S
C3702 C3698 1.531 . S
C3702 H3714 0.960 . S
C3702 H3715 0.962 . S
C3702 H3716 0.960 . S
C3703 C3700 1.511 . S
C3703 H3717 0.961 . S
C3703 H3718 0.961 . S
C3703 H3719 0.961 . S
C3704 C3705 1.370 . S
C3704 C3706 1.363 . S
C3704 H3720 0.931 . S
C3705 C3704 1.370 . S
C3705 C3709 1.408 . S
C3706 C3704 1.363 . S
C3706 C3707 1.370 . S
C3706 C3710 1.524 . S
C3707 C3699 1.503 . S
C3707 C3706 1.370 . S
C3707 C3708 1.403 . S
C3708 C3707 1.403 . S
C3708 C3709 1.404 . S
C3708 C3711 1.539 . S
C3709 C3705 1.408 . S
C3709 C3708 1.404 . S
C3709 H3721 0.930 . S
C3710 C3706 1.524 . S
C3710 H3722 0.956 . S
C3710 H3723 0.961 . S
C3710 H3724 0.961 . S
C3711 C3708 1.539 . S
C3711 H3725 0.958 . S
C3711 H3726 0.961 . S
C3711 H3727 0.960 . S
H3712 C3696 0.931 . S
H3713 C3701 0.929 . S
H3714 C3702 0.960 . S
H3715 C3702 0.962 . S
H3716 C3702 0.960 . S
H3717 C3703 0.961 . S
H3718 C3703 0.961 . S
H3719 C3703 0.961 . S
H3720 C3704 0.931 . S
H3721 C3709 0.930 . S
H3722 C3710 0.956 . S
H3723 C3710 0.961 . S
H3724 C3710 0.961 . S
H3725 C3711 0.958 . S
H3726 C3711 0.961 . S
H3727 C3711 0.960 . S
C3728 C3729 1.391 . S
C3728 C3730 1.394 . S
C3728 H3744 0.931 . S
C3729 C3728 1.391 . S
C3729 C3733 1.376 . S
C3730 C3728 1.394 . S
C3730 C3731 1.369 . S
C3730 C3734 1.531 . S
C3731 C3730 1.369 . S
C3731 C3732 1.410 . S
C3731 C3739 1.503 . S
C3732 C3731 1.410 . S
C3732 C3733 1.392 . S
C3732 C3735 1.511 . S
C3733 C3729 1.376 . S
C3733 C3732 1.392 . S
C3733 H3745 0.929 . S
C3734 C3730 1.531 . S
C3734 H3746 0.960 . S
C3734 H3747 0.962 . S
C3734 H3748 0.960 . S
C3735 C3732 1.511 . S
C3735 H3749 0.961 . S
C3735 H3750 0.961 . S
C3735 H3751 0.961 . S
C3736 C3737 1.370 . S
C3736 C3738 1.363 . S
C3736 H3752 0.931 . S
C3737 C3736 1.370 . S
C3737 C3741 1.408 . S
C3738 C3736 1.363 . S
C3738 C3739 1.370 . S
C3738 C3742 1.524 . S
C3739 C3731 1.503 . S
C3739 C3738 1.370 . S
C3739 C3740 1.403 . S
C3740 C3739 1.403 . S
C3740 C3741 1.404 . S
C3740 C3743 1.539 . S
C3741 C3737 1.408 . S
C3741 C3740 1.404 . S
C3741 H3753 0.930 . S
C3742 C3738 1.524 . S
C3742 H3754 0.956 . S
C3742 H3755 0.961 . S
C3742 H3756 0.961 . S
C3743 C3740 1.539 . S
C3743 H3757 0.958 . S
C3743 H3758 0.961 . S
C3743 H3759 0.960 . S
H3744 C3728 0.931 . S
H3745 C3733 0.929 . S
H3746 C3734 0.960 . S
H3747 C3734 0.962 . S
H3748 C3734 0.960 . S
H3749 C3735 0.961 . S
H3750 C3735 0.961 . S
H3751 C3735 0.961 . S
H3752 C3736 0.931 . S
H3753 C3741 0.930 . S
H3754 C3742 0.956 . S
H3755 C3742 0.961 . S
H3756 C3742 0.961 . S
H3757 C3743 0.958 . S
H3758 C3743 0.961 . S
H3759 C3743 0.960 . S
C3760 C3761 1.391 . S
C3760 C3762 1.394 . S
C3760 H3776 0.931 . S
C3761 C3760 1.391 . S
C3761 C3765 1.376 . S
C3762 C3760 1.394 . S
C3762 C3763 1.369 . S
C3762 C3766 1.531 . S
C3763 C3762 1.369 . S
C3763 C3764 1.410 . S
C3763 C3771 1.503 . S
C3764 C3763 1.410 . S
C3764 C3765 1.392 . S
C3764 C3767 1.511 . S
C3765 C3761 1.376 . S
C3765 C3764 1.392 . S
C3765 H3777 0.929 . S
C3766 C3762 1.531 . S
C3766 H3778 0.960 . S
C3766 H3779 0.962 . S
C3766 H3780 0.960 . S
C3767 C3764 1.511 . S
C3767 H3781 0.961 . S
C3767 H3782 0.961 . S
C3767 H3783 0.961 . S
C3768 C3769 1.370 . S
C3768 C3770 1.363 . S
C3768 H3784 0.931 . S
C3769 C3768 1.370 . S
C3769 C3773 1.408 . S
C3770 C3768 1.363 . S
C3770 C3771 1.370 . S
C3770 C3774 1.524 . S
C3771 C3763 1.503 . S
C3771 C3770 1.370 . S
C3771 C3772 1.403 . S
C3772 C3771 1.403 . S
C3772 C3773 1.404 . S
C3772 C3775 1.539 . S
C3773 C3769 1.408 . S
C3773 C3772 1.404 . S
C3773 H3785 0.930 . S
C3774 C3770 1.524 . S
C3774 H3786 0.956 . S
C3774 H3787 0.961 . S
C3774 H3788 0.961 . S
C3775 C3772 1.539 . S
C3775 H3789 0.958 . S
C3775 H3790 0.961 . S
C3775 H3791 0.960 . S
H3776 C3760 0.931 . S
H3777 C3765 0.929 . S
H3778 C3766 0.960 . S
H3779 C3766 0.962 . S
H3780 C3766 0.960 . S
H3781 C3767 0.961 . S
H3782 C3767 0.961 . S
H3783 C3767 0.961 . S
H3784 C3768 0.931 . S
H3785 C3773 0.930 . S
H3786 C3774 0.956 . S
H3787 C3774 0.961 . S
H3788 C3774 0.961 . S
H3789 C3775 0.958 . S
H3790 C3775 0.961 . S
H3791 C3775 0.960 . S
C3792 C3793 1.391 . S
C3792 C3794 1.394 . S
C3792 H3808 0.931 . S
C3793 C3792 1.391 . S
C3793 C3797 1.376 . S
C3794 C3792 1.394 . S
C3794 C3795 1.369 . S
C3794 C3798 1.531 . S
C3795 C3794 1.369 . S
C3795 C3796 1.410 . S
C3795 C3803 1.503 . S
C3796 C3795 1.410 . S
C3796 C3797 1.392 . S
C3796 C3799 1.511 . S
C3797 C3793 1.376 . S
C3797 C3796 1.392 . S
C3797 H3809 0.929 1_565 S
C3798 C3794 1.531 . S
C3798 H3810 0.960 . S
C3798 H3811 0.962 . S
C3798 H3812 0.960 . S
C3799 C3796 1.511 . S
C3799 H3813 0.961 . S
C3799 H3814 0.961 . S
C3799 H3815 0.961 . S
C3800 C3801 1.370 . S
C3800 C3802 1.363 . S
C3800 H3816 0.931 . S
C3801 C3800 1.370 . S
C3801 C3805 1.408 . S
C3802 C3800 1.363 . S
C3802 C3803 1.370 . S
C3802 C3806 1.524 . S
C3803 C3795 1.503 . S
C3803 C3802 1.370 . S
C3803 C3804 1.403 . S
C3804 C3803 1.403 . S
C3804 C3805 1.404 . S
C3804 C3807 1.539 . S
C3805 C3801 1.408 . S
C3805 C3804 1.404 . S
C3805 H3817 0.930 . S
C3806 C3802 1.524 . S
C3806 H3818 0.956 . S
C3806 H3819 0.961 . S
C3806 H3820 0.961 . S
C3807 C3804 1.539 . S
C3807 H3821 0.958 . S
C3807 H3822 0.961 . S
C3807 H3823 0.960 . S
H3808 C3792 0.931 . S
H3809 C3797 0.929 1_545 S
H3810 C3798 0.960 . S
H3811 C3798 0.962 . S
H3812 C3798 0.960 . S
H3813 C3799 0.961 . S
H3814 C3799 0.961 . S
H3815 C3799 0.961 . S
H3816 C3800 0.931 . S
H3817 C3805 0.930 . S
H3818 C3806 0.956 . S
H3819 C3806 0.961 . S
H3820 C3806 0.961 . S
H3821 C3807 0.958 . S
H3822 C3807 0.961 . S
H3823 C3807 0.960 . S
C3824 C3825 1.391 1_556 S
C3824 C3826 1.394 . S
C3824 H3840 0.931 . S
C3825 C3824 1.391 1_554 S
C3825 C3829 1.376 . S
C3826 C3824 1.394 . S
C3826 C3827 1.369 1_556 S
C3826 C3830 1.531 . S
C3827 C3826 1.369 1_554 S
C3827 C3828 1.410 . S
C3827 C3835 1.503 . S
C3828 C3827 1.410 . S
C3828 C3829 1.392 . S
C3828 C3831 1.511 . S
C3829 C3825 1.376 . S
C3829 C3828 1.392 . S
C3829 H3841 0.929 . S
C3830 C3826 1.531 . S
C3830 H3842 0.960 1_565 S
C3830 H3843 0.962 . S
C3830 H3844 0.988 . S
C3831 C3828 1.511 . S
C3831 H3845 0.961 . S
C3831 H3846 0.961 . S
C3831 H3847 0.961 . S
C3832 C3833 1.370 1_565 S
C3832 C3834 1.363 . S
C3832 H3848 0.931 . S
C3833 C3832 1.370 1_545 S
C3833 C3837 1.408 . S
C3834 C3832 1.363 . S
C3834 C3835 1.370 . S
C3834 C3838 1.524 1_554 S
C3835 C3827 1.503 . S
C3835 C3834 1.370 . S
C3835 C3836 1.403 1_565 S
C3836 C3835 1.403 1_545 S
C3836 C3837 1.404 . S
C3836 C3839 1.539 . S
C3837 C3833 1.408 . S
C3837 C3836 1.404 . S
C3837 H3849 0.930 . S
C3838 C3834 1.524 1_556 S
C3838 H3850 0.956 . S
C3838 H3851 0.961 1_556 S
C3838 H3852 0.961 . S
C3839 C3836 1.539 . S
C3839 H3853 0.958 . S
C3839 H3854 0.961 . S
C3839 H3855 0.960 . S
H3840 C3824 0.931 . S
H3841 C3829 0.929 . S
H3842 C3830 0.960 1_545 S
H3843 C3830 0.962 . S
H3844 C3830 0.988 . S
H3845 C3831 0.961 . S
H3846 C3831 0.961 . S
H3847 C3831 0.961 . S
H3848 C3832 0.931 . S
H3849 C3837 0.930 . S
H3850 C3838 0.956 . S
H3851 C3838 0.961 1_554 S
H3852 C3838 0.961 . S
H3853 C3839 0.958 . S
H3854 C3839 0.961 . S
H3855 C3839 0.960 . S
C3856 C3857 1.391 . S
C3856 C3858 1.394 . S
C3856 H3872 0.931 . S
C3857 C3856 1.391 . S
C3857 C3861 1.376 . S
C3858 C3856 1.394 . S
C3858 C3859 1.369 . S
C3858 C3862 1.531 . S
C3859 C3858 1.369 . S
C3859 C3860 1.410 . S
C3859 C3867 1.503 . S
C3860 C3859 1.410 . S
C3860 C3861 1.392 . S
C3860 C3863 1.511 . S
C3861 C3857 1.376 . S
C3861 C3860 1.392 . S
C3861 H3873 0.929 . S
C3862 C3858 1.531 . S
C3862 H3874 0.960 . S
C3862 H3875 0.962 . S
C3862 H3876 0.960 . S
C3863 C3860 1.511 . S
C3863 H3877 0.961 . S
C3863 H3878 0.961 . S
C3863 H3879 0.961 . S
C3864 C3865 1.370 . S
C3864 C3866 1.363 . S
C3864 H3880 0.931 . S
C3865 C3864 1.370 . S
C3865 C3869 1.408 . S
C3866 C3864 1.363 . S
C3866 C3867 1.370 . S
C3866 C3870 1.524 . S
C3867 C3859 1.503 . S
C3867 C3866 1.370 . S
C3867 C3868 1.403 . S
C3868 C3867 1.403 . S
C3868 C3869 1.404 . S
C3868 C3871 1.539 . S
C3869 C3865 1.408 . S
C3869 C3868 1.404 . S
C3869 H3881 0.930 . S
C3870 C3866 1.524 . S
C3870 H3882 0.956 . S
C3870 H3883 0.961 . S
C3870 H3884 0.961 . S
C3871 C3868 1.539 . S
C3871 H3885 0.958 . S
C3871 H3886 0.961 . S
C3871 H3887 0.960 . S
H3872 C3856 0.931 . S
H3873 C3861 0.929 . S
H3874 C3862 0.960 . S
H3875 C3862 0.962 . S
H3876 C3862 0.960 . S
H3877 C3863 0.961 . S
H3878 C3863 0.961 . S
H3879 C3863 0.961 . S
H3880 C3864 0.931 . S
H3881 C3869 0.930 . S
H3882 C3870 0.956 . S
H3883 C3870 0.961 . S
H3884 C3870 0.961 . S
H3885 C3871 0.958 . S
H3886 C3871 0.961 . S
H3887 C3871 0.960 . S
C3888 C3889 1.391 . S
C3888 C3890 1.394 . S
C3888 H3904 0.931 . S
C3889 C3888 1.391 . S
C3889 C3893 1.408 . S
C3890 C3888 1.394 . S
C3890 C3891 1.369 . S
C3890 C3894 1.531 . S
C3891 C3890 1.369 . S
C3891 C3892 1.410 . S
C3891 C3899 1.503 . S
C3892 C3891 1.410 . S
C3892 C3893 1.397 . S
C3892 C3895 1.511 1_554 S
C3893 C3889 1.408 . S
C3893 C3892 1.397 . S
C3893 H3905 0.893 1_554 S
C3894 C3890 1.531 . S
C3894 H3906 0.960 . S
C3894 H3907 0.962 . S
C3894 H3908 0.960 . S
C3895 C3892 1.511 1_556 S
C3895 H3909 0.961 . S
C3895 H3910 0.961 . S
C3895 H3911 0.961 . S
C3896 C3897 1.370 . S
C3896 C3898 1.363 . S
C3896 H3912 0.931 . S
C3897 C3896 1.370 . S
C3897 C3901 1.408 . S
C3898 C3896 1.363 . S
C3898 C3899 1.370 . S
C3898 C3902 1.524 . S
C3899 C3891 1.503 . S
C3899 C3898 1.370 . S
C3899 C3900 1.403 . S
C3900 C3899 1.403 . S
C3900 C3901 1.404 . S
C3900 C3903 1.539 . S
C3901 C3897 1.408 . S
C3901 C3900 1.404 . S
C3901 H3913 0.930 . S
C3902 C3898 1.524 . S
C3902 H3914 0.956 . S
C3902 H3915 0.961 . S
C3902 H3916 0.961 . S
C3903 C3900 1.539 . S
C3903 H3917 0.958 . S
C3903 H3918 0.961 . S
C3903 H3919 0.960 . S
H3904 C3888 0.931 . S
H3905 C3893 0.893 1_556 S
H3906 C3894 0.960 . S
H3907 C3894 0.962 . S
H3908 C3894 0.960 . S
H3909 C3895 0.961 . S
H3910 C3895 0.961 . S
H3911 C3895 0.961 . S
H3912 C3896 0.931 . S
H3913 C3901 0.930 . S
H3914 C3902 0.956 . S
H3915 C3902 0.961 . S
H3916 C3902 0.961 . S
H3917 C3903 0.958 . S
H3918 C3903 0.961 . S
H3919 C3903 0.960 . S
C3920 C3921 1.391 . S
C3920 C3922 1.394 . S
C3920 H3936 0.931 . S
C3921 C3920 1.391 . S
C3921 C3925 1.376 . S
C3922 C3920 1.394 . S
C3922 C3923 1.369 . S
C3922 C3926 1.531 . S
C3923 C3922 1.369 . S
C3923 C3924 1.410 . S
C3923 C3931 1.503 . S
C3924 C3923 1.410 . S
C3924 C3925 1.392 . S
C3924 C3927 1.511 . S
C3925 C3921 1.376 . S
C3925 C3924 1.392 . S
C3925 H3937 0.929 . S
C3926 C3922 1.531 . S
C3926 H3938 0.960 . S
C3926 H3939 0.962 . S
C3926 H3940 0.960 . S
C3927 C3924 1.511 . S
C3927 H3941 0.961 . S
C3927 H3942 0.961 . S
C3927 H3943 0.961 . S
C3928 C3929 1.370 . S
C3928 C3930 1.363 . S
C3928 H3944 0.931 . S
C3929 C3928 1.370 . S
C3929 C3933 1.408 . S
C3930 C3928 1.363 . S
C3930 C3931 1.370 . S
C3930 C3934 1.524 . S
C3931 C3923 1.503 . S
C3931 C3930 1.370 . S
C3931 C3932 1.403 . S
C3932 C3931 1.403 . S
C3932 C3933 1.404 . S
C3932 C3935 1.539 . S
C3933 C3929 1.408 . S
C3933 C3932 1.404 . S
C3933 H3945 0.930 . S
C3934 C3930 1.524 . S
C3934 H3946 0.956 . S
C3934 H3947 0.961 . S
C3934 H3948 0.961 . S
C3935 C3932 1.539 . S
C3935 H3949 0.958 . S
C3935 H3950 0.961 . S
C3935 H3951 0.960 . S
H3936 C3920 0.931 . S
H3937 C3925 0.929 . S
H3938 C3926 0.960 . S
H3939 C3926 0.962 . S
H3940 C3926 0.960 . S
H3941 C3927 0.961 . S
H3942 C3927 0.961 . S
H3943 C3927 0.961 . S
H3944 C3928 0.931 . S
H3945 C3933 0.930 . S
H3946 C3934 0.956 . S
H3947 C3934 0.961 . S
H3948 C3934 0.961 . S
H3949 C3935 0.958 . S
H3950 C3935 0.961 . S
H3951 C3935 0.960 . S
C3952 C3953 1.391 . S
C3952 C3954 1.394 . S
C3952 H3968 0.931 . S
C3953 C3952 1.391 . S
C3953 C3957 1.376 . S
C3954 C3952 1.394 . S
C3954 C3955 1.369 . S
C3954 C3958 1.531 . S
C3955 C3954 1.369 . S
C3955 C3956 1.410 . S
C3955 C3963 1.503 . S
C3956 C3955 1.410 . S
C3956 C3957 1.392 . S
C3956 C3959 1.511 . S
C3957 C3953 1.376 . S
C3957 C3956 1.392 . S
C3957 H3969 0.929 . S
C3958 C3954 1.531 . S
C3958 H3970 0.960 . S
C3958 H3971 0.962 . S
C3958 H3972 0.960 . S
C3959 C3956 1.511 . S
C3959 H3973 0.961 . S
C3959 H3974 0.961 . S
C3959 H3975 0.961 . S
C3960 C3961 1.370 . S
C3960 C3962 1.363 . S
C3960 H3976 0.931 . S
C3961 C3960 1.370 . S
C3961 C3965 1.408 . S
C3962 C3960 1.363 . S
C3962 C3963 1.370 . S
C3962 C3966 1.524 . S
C3963 C3955 1.503 . S
C3963 C3962 1.370 . S
C3963 C3964 1.403 . S
C3964 C3963 1.403 . S
C3964 C3965 1.404 . S
C3964 C3967 1.539 . S
C3965 C3961 1.408 . S
C3965 C3964 1.404 . S
C3965 H3977 0.930 . S
C3966 C3962 1.524 . S
C3966 H3978 0.956 . S
C3966 H3979 0.961 . S
C3966 H3980 0.961 . S
C3967 C3964 1.539 . S
C3967 H3981 0.958 . S
C3967 H3982 0.961 . S
C3967 H3983 0.960 . S
H3968 C3952 0.931 . S
H3969 C3957 0.929 . S
H3970 C3958 0.960 . S
H3971 C3958 0.962 . S
H3972 C3958 0.960 . S
H3973 C3959 0.961 . S
H3974 C3959 0.961 . S
H3975 C3959 0.961 . S
H3976 C3960 0.931 . S
H3977 C3965 0.930 . S
H3978 C3966 0.956 . S
H3979 C3966 0.961 . S
H3980 C3966 0.961 . S
H3981 C3967 0.958 . S
H3982 C3967 0.961 . S
H3983 C3967 0.960 . S
C3984 C3985 1.391 . S
C3984 C3986 1.394 . S
C3984 H4000 0.931 . S
C3985 C3984 1.391 . S
C3985 C3989 1.376 . S
C3986 C3984 1.394 . S
C3986 C3987 1.369 . S
C3986 C3990 1.531 . S
C3987 C3986 1.369 . S
C3987 C3988 1.410 . S
C3987 C3995 1.503 . S
C3988 C3987 1.410 . S
C3988 C3989 1.392 . S
C3988 C3991 1.511 . S
C3989 C3985 1.376 . S
C3989 C3988 1.392 . S
C3989 H4001 0.929 . S
C3990 C3986 1.531 . S
C3990 H4002 0.960 . S
C3990 H4003 0.962 . S
C3990 H4004 0.960 . S
C3991 C3988 1.511 . S
C3991 H4005 0.961 . S
C3991 H4006 0.961 . S
C3991 H4007 0.961 . S
C3992 C3993 1.370 . S
C3992 C3994 1.363 . S
C3992 H4008 0.931 . S
C3993 C3992 1.370 . S
C3993 C3997 1.408 . S
C3994 C3992 1.363 . S
C3994 C3995 1.370 . S
C3994 C3998 1.524 . S
C3995 C3987 1.503 . S
C3995 C3994 1.370 . S
C3995 C3996 1.403 . S
C3996 C3995 1.403 . S
C3996 C3997 1.404 . S
C3996 C3999 1.539 . S
C3997 C3993 1.408 . S
C3997 C3996 1.404 . S
C3997 H4009 0.930 . S
C3998 C3994 1.524 . S
C3998 H4010 0.956 . S
C3998 H4011 0.961 . S
C3998 H4012 0.961 . S
C3999 C3996 1.539 . S
C3999 H4013 0.958 . S
C3999 H4014 0.961 . S
C3999 H4015 0.960 . S
H4000 C3984 0.931 . S
H4001 C3989 0.929 . S
H4002 C3990 0.960 . S
H4003 C3990 0.962 . S
H4004 C3990 0.960 . S
H4005 C3991 0.961 . S
H4006 C3991 0.961 . S
H4007 C3991 0.961 . S
H4008 C3992 0.931 . S
H4009 C3997 0.930 . S
H4010 C3998 0.956 . S
H4011 C3998 0.961 . S
H4012 C3998 0.961 . S
H4013 C3999 0.958 . S
H4014 C3999 0.961 . S
H4015 C3999 0.960 . S
C4016 C4017 1.391 . S
C4016 C4018 1.394 . S
C4016 H4032 0.931 . S
C4017 C4016 1.391 . S
C4017 C4021 1.376 . S
C4018 C4016 1.394 . S
C4018 C4019 1.369 . S
C4018 C4022 1.531 . S
C4019 C4018 1.369 . S
C4019 C4020 1.410 . S
C4019 C4027 1.503 . S
C4020 C4019 1.410 . S
C4020 C4021 1.392 . S
C4020 C4023 1.511 . S
C4021 C4017 1.376 . S
C4021 C4020 1.392 . S
C4021 H4033 0.929 . S
C4022 C4018 1.531 . S
C4022 H4034 0.960 . S
C4022 H4035 0.962 . S
C4022 H4036 0.960 . S
C4023 C4020 1.511 . S
C4023 H4037 0.961 . S
C4023 H4038 0.961 . S
C4023 H4039 0.961 . S
C4024 C4025 1.370 . S
C4024 C4026 1.363 . S
C4024 H4040 0.931 . S
C4025 C4024 1.370 . S
C4025 C4029 1.408 . S
C4026 C4024 1.363 . S
C4026 C4027 1.370 . S
C4026 C4030 1.524 . S
C4027 C4019 1.503 . S
C4027 C4026 1.370 . S
C4027 C4028 1.403 . S
C4028 C4027 1.403 . S
C4028 C4029 1.404 . S
C4028 C4031 1.539 . S
C4029 C4025 1.408 . S
C4029 C4028 1.404 . S
C4029 H4041 0.930 . S
C4030 C4026 1.524 . S
C4030 H4042 0.956 . S
C4030 H4043 0.961 . S
C4030 H4044 0.961 . S
C4031 C4028 1.539 . S
C4031 H4045 0.958 . S
C4031 H4046 0.961 . S
C4031 H4047 0.960 . S
H4032 C4016 0.931 . S
H4033 C4021 0.929 . S
H4034 C4022 0.960 . S
H4035 C4022 0.962 . S
H4036 C4022 0.960 . S
H4037 C4023 0.961 . S
H4038 C4023 0.961 . S
H4039 C4023 0.961 . S
H4040 C4024 0.931 . S
H4041 C4029 0.930 . S
H4042 C4030 0.956 . S
H4043 C4030 0.961 . S
H4044 C4030 0.961 . S
H4045 C4031 0.958 . S
H4046 C4031 0.961 . S
H4047 C4031 0.960 . S
C4048 C4049 1.391 . S
C4048 C4050 1.394 . S
C4048 H4064 0.931 . S
C4049 C4048 1.391 . S
C4049 C4053 1.376 . S
C4050 C4048 1.394 . S
C4050 C4051 1.369 . S
C4050 C4054 1.531 . S
C4051 C4050 1.369 . S
C4051 C4052 1.410 . S
C4051 C4059 1.503 . S
C4052 C4051 1.410 . S
C4052 C4053 1.392 . S
C4052 C4055 1.511 . S
C4053 C4049 1.376 . S
C4053 C4052 1.392 . S
C4053 H4065 0.929 . S
C4054 C4050 1.531 . S
C4054 H4066 0.960 . S
C4054 H4067 0.962 . S
C4054 H4068 0.960 . S
C4055 C4052 1.511 . S
C4055 H4069 0.961 1_455 S
C4055 H4070 0.961 . S
C4055 H4071 0.961 1_455 S
C4056 C4057 1.370 . S
C4056 C4058 1.363 . S
C4056 H4072 0.931 . S
C4057 C4056 1.370 . S
C4057 C4061 1.408 . S
C4058 C4056 1.363 . S
C4058 C4059 1.370 . S
C4058 C4062 1.524 . S
C4059 C4051 1.503 . S
C4059 C4058 1.370 . S
C4059 C4060 1.403 . S
C4060 C4059 1.403 . S
C4060 C4061 1.404 . S
C4060 C4063 1.539 . S
C4061 C4057 1.408 . S
C4061 C4060 1.404 . S
C4061 H4073 0.930 . S
C4062 C4058 1.524 . S
C4062 H4074 0.956 . S
C4062 H4075 0.961 . S
C4062 H4076 0.961 . S
C4063 C4060 1.539 . S
C4063 H4077 0.958 . S
C4063 H4078 0.961 . S
C4063 H4079 0.960 . S
H4064 C4048 0.931 . S
H4065 C4053 0.929 . S
H4066 C4054 0.960 . S
H4067 C4054 0.962 . S
H4068 C4054 0.960 . S
H4069 C4055 0.961 1_655 S
H4070 C4055 0.961 . S
H4071 C4055 0.961 1_655 S
H4072 C4056 0.931 . S
H4073 C4061 0.930 . S
H4074 C4062 0.956 . S
H4075 C4062 0.961 . S
H4076 C4062 0.961 . S
H4077 C4063 0.958 . S
H4078 C4063 0.961 . S
H4079 C4063 0.960 . S
C4080 C4081 1.391 . S
C4080 C4082 1.394 . S
C4080 H4096 0.931 . S
C4081 C4080 1.391 . S
C4081 C4085 1.376 . S
C4082 C4080 1.394 . S
C4082 C4083 1.369 . S
C4082 C4086 1.531 . S
C4083 C4082 1.369 . S
C4083 C4084 1.410 . S
C4083 C4091 1.503 . S
C4084 C4083 1.410 . S
C4084 C4085 1.392 . S
C4084 C4087 1.511 . S
C4085 C4081 1.376 . S
C4085 C4084 1.392 . S
C4085 H4097 0.929 . S
C4086 C4082 1.531 . S
C4086 H4098 0.960 . S
C4086 H4099 0.962 . S
C4086 H4100 0.960 . S
C4087 C4084 1.511 . S
C4087 H4101 0.961 . S
C4087 H4102 0.961 . S
C4087 H4103 0.961 . S
C4088 C4089 1.370 . S
C4088 C4090 1.363 . S
C4088 H4104 0.931 . S
C4089 C4088 1.370 . S
C4089 C4093 1.408 . S
C4090 C4088 1.363 . S
C4090 C4091 1.370 . S
C4090 C4094 1.524 . S
C4091 C4083 1.503 . S
C4091 C4090 1.370 . S
C4091 C4092 1.403 . S
C4092 C4091 1.403 . S
C4092 C4093 1.404 . S
C4092 C4095 1.539 . S
C4093 C4089 1.408 . S
C4093 C4092 1.404 . S
C4093 H4105 0.930 . S
C4094 C4090 1.524 . S
C4094 H4106 0.956 . S
C4094 H4107 0.961 . S
C4094 H4108 0.961 . S
C4095 C4092 1.539 . S
C4095 H4109 0.958 . S
C4095 H4110 0.961 . S
C4095 H4111 0.960 . S
H4096 C4080 0.931 . S
H4097 C4085 0.929 . S
H4098 C4086 0.960 . S
H4099 C4086 0.962 . S
H4100 C4086 0.960 . S
H4101 C4087 0.961 . S
H4102 C4087 0.961 . S
H4103 C4087 0.961 . S
H4104 C4088 0.931 . S
H4105 C4093 0.930 . S
H4106 C4094 0.956 . S
H4107 C4094 0.961 . S
H4108 C4094 0.961 . S
H4109 C4095 0.958 . S
H4110 C4095 0.961 . S
H4111 C4095 0.960 . S
C4112 C4113 1.391 . S
C4112 C4114 1.394 . S
C4112 H4128 0.931 . S
C4113 C4112 1.391 . S
C4113 C4117 1.376 . S
C4114 C4112 1.394 . S
C4114 C4115 1.369 . S
C4114 C4118 1.531 . S
C4115 C4114 1.369 . S
C4115 C4116 1.410 . S
C4115 C4123 1.503 . S
C4116 C4115 1.410 . S
C4116 C4117 1.392 . S
C4116 C4119 1.511 . S
C4117 C4113 1.376 . S
C4117 C4116 1.392 . S
C4117 H4129 0.929 . S
C4118 C4114 1.531 . S
C4118 H4130 0.960 . S
C4118 H4131 0.962 . S
C4118 H4132 0.960 . S
C4119 C4116 1.511 . S
C4119 H4133 0.961 . S
C4119 H4134 0.961 . S
C4119 H4135 0.961 . S
C4120 C4121 1.370 . S
C4120 C4122 1.363 . S
C4120 H4136 0.931 . S
C4121 C4120 1.370 . S
C4121 C4125 1.408 . S
C4122 C4120 1.363 . S
C4122 C4123 1.370 . S
C4122 C4126 1.524 . S
C4123 C4115 1.503 . S
C4123 C4122 1.370 . S
C4123 C4124 1.403 . S
C4124 C4123 1.403 . S
C4124 C4125 1.404 . S
C4124 C4127 1.539 . S
C4125 C4121 1.408 . S
C4125 C4124 1.404 . S
C4125 H4137 0.930 . S
C4126 C4122 1.524 . S
C4126 H4138 0.956 . S
C4126 H4139 0.961 . S
C4126 H4140 0.961 . S
C4127 C4124 1.539 . S
C4127 H4141 0.958 . S
C4127 H4142 0.961 . S
C4127 H4143 0.960 . S
H4128 C4112 0.931 . S
H4129 C4117 0.929 . S
H4130 C4118 0.960 . S
H4131 C4118 0.962 . S
H4132 C4118 0.960 . S
H4133 C4119 0.961 . S
H4134 C4119 0.961 . S
H4135 C4119 0.961 . S
H4136 C4120 0.931 . S
H4137 C4125 0.930 . S
H4138 C4126 0.956 . S
H4139 C4126 0.961 . S
H4140 C4126 0.961 . S
H4141 C4127 0.958 . S
H4142 C4127 0.961 . S
H4143 C4127 0.960 . S
C4144 C4145 1.391 . S
C4144 C4146 1.394 . S
C4144 H4160 0.931 . S
C4145 C4144 1.391 . S
C4145 C4149 1.376 . S
C4146 C4144 1.394 . S
C4146 C4147 1.369 . S
C4146 C4150 1.531 . S
C4147 C4146 1.369 . S
C4147 C4148 1.410 . S
C4147 C4155 1.503 . S
C4148 C4147 1.410 . S
C4148 C4149 1.392 . S
C4148 C4151 1.511 . S
C4149 C4145 1.376 . S
C4149 C4148 1.392 . S
C4149 H4161 0.929 . S
C4150 C4146 1.531 . S
C4150 H4162 0.960 . S
C4150 H4163 0.962 . S
C4150 H4164 0.960 . S
C4151 C4148 1.511 . S
C4151 H4165 0.961 . S
C4151 H4166 0.961 . S
C4151 H4167 0.961 . S
C4152 C4153 1.370 . S
C4152 C4154 1.363 . S
C4152 H4168 0.931 . S
C4153 C4152 1.370 . S
C4153 C4157 1.408 . S
C4154 C4152 1.363 . S
C4154 C4155 1.370 . S
C4154 C4158 1.524 . S
C4155 C4147 1.503 . S
C4155 C4154 1.370 . S
C4155 C4156 1.403 . S
C4156 C4155 1.403 . S
C4156 C4157 1.404 . S
C4156 C4159 1.539 . S
C4157 C4153 1.408 . S
C4157 C4156 1.404 . S
C4157 H4169 0.930 . S
C4158 C4154 1.524 . S
C4158 H4170 0.956 . S
C4158 H4171 0.961 . S
C4158 H4172 0.961 . S
C4159 C4156 1.539 . S
C4159 H4173 0.958 . S
C4159 H4174 0.961 . S
C4159 H4175 0.960 . S
H4160 C4144 0.931 . S
H4161 C4149 0.929 . S
H4162 C4150 0.960 . S
H4163 C4150 0.962 . S
H4164 C4150 0.960 . S
H4165 C4151 0.961 . S
H4166 C4151 0.961 . S
H4167 C4151 0.961 . S
H4168 C4152 0.931 . S
H4169 C4157 0.930 . S
H4170 C4158 0.956 . S
H4171 C4158 0.961 . S
H4172 C4158 0.961 . S
H4173 C4159 0.958 . S
H4174 C4159 0.961 . S
H4175 C4159 0.960 . S
C4176 C4177 1.391 . S
C4176 C4178 1.394 . S
C4176 H4192 0.931 . S
C4177 C4176 1.391 . S
C4177 C4181 1.376 . S
C4178 C4176 1.394 . S
C4178 C4179 1.369 . S
C4178 C4182 1.531 . S
C4179 C4178 1.369 . S
C4179 C4180 1.410 . S
C4179 C4187 1.503 . S
C4180 C4179 1.410 . S
C4180 C4181 1.392 . S
C4180 C4183 1.511 . S
C4181 C4177 1.376 . S
C4181 C4180 1.392 . S
C4181 H4193 0.929 . S
C4182 C4178 1.531 . S
C4182 H4194 0.960 . S
C4182 H4195 0.962 . S
C4182 H4196 0.960 . S
C4183 C4180 1.511 . S
C4183 H4197 0.961 . S
C4183 H4198 0.961 . S
C4183 H4199 0.961 1_455 S
C4184 C4185 1.370 . S
C4184 C4186 1.363 . S
C4184 H4200 0.931 . S
C4185 C4184 1.370 . S
C4185 C4189 1.408 . S
C4186 C4184 1.363 . S
C4186 C4187 1.370 . S
C4186 C4190 1.524 . S
C4187 C4179 1.503 . S
C4187 C4186 1.370 . S
C4187 C4188 1.403 . S
C4188 C4187 1.403 . S
C4188 C4189 1.404 . S
C4188 C4191 1.539 . S
C4189 C4185 1.408 . S
C4189 C4188 1.404 . S
C4189 H4201 0.930 . S
C4190 C4186 1.524 . S
C4190 H4202 0.956 . S
C4190 H4203 0.961 . S
C4190 H4204 0.961 . S
C4191 C4188 1.539 . S
C4191 H4205 0.958 . S
C4191 H4206 0.961 1_455 S
C4191 H4207 0.960 . S
H4192 C4176 0.931 . S
H4193 C4181 0.929 . S
H4194 C4182 0.960 . S
H4195 C4182 0.962 . S
H4196 C4182 0.960 . S
H4197 C4183 0.961 . S
H4198 C4183 0.961 . S
H4199 C4183 0.961 1_655 S
H4200 C4184 0.931 . S
H4201 C4189 0.930 . S
H4202 C4190 0.956 . S
H4203 C4190 0.961 . S
H4204 C4190 0.961 . S
H4205 C4191 0.958 . S
H4206 C4191 0.961 1_655 S
H4207 C4191 0.960 . S
C4208 C4209 1.391 . S
C4208 C4210 1.394 . S
C4208 H4224 0.931 . S
C4209 C4208 1.391 . S
C4209 C4213 1.376 . S
C4210 C4208 1.394 . S
C4210 C4211 1.369 . S
C4210 C4214 1.531 . S
C4211 C4210 1.369 . S
C4211 C4212 1.410 . S
C4211 C4219 1.503 . S
C4212 C4211 1.410 . S
C4212 C4213 1.392 . S
C4212 C4215 1.511 . S
C4213 C4209 1.376 . S
C4213 C4212 1.392 . S
C4213 H4225 0.929 . S
C4214 C4210 1.531 . S
C4214 H4226 0.960 . S
C4214 H4227 0.962 . S
C4214 H4228 0.960 . S
C4215 C4212 1.511 . S
C4215 H4229 0.961 . S
C4215 H4230 0.961 . S
C4215 H4231 0.961 . S
C4216 C4217 1.370 . S
C4216 C4218 1.363 . S
C4216 H4232 0.931 . S
C4217 C4216 1.370 . S
C4217 C4221 1.408 . S
C4218 C4216 1.363 . S
C4218 C4219 1.370 . S
C4218 C4222 1.524 . S
C4219 C4211 1.503 . S
C4219 C4218 1.370 . S
C4219 C4220 1.403 . S
C4220 C4219 1.403 . S
C4220 C4221 1.404 . S
C4220 C4223 1.539 . S
C4221 C4217 1.408 . S
C4221 C4220 1.404 . S
C4221 H4233 0.930 . S
C4222 C4218 1.524 . S
C4222 H4234 0.956 . S
C4222 H4235 0.961 . S
C4222 H4236 0.961 . S
C4223 C4220 1.539 . S
C4223 H4237 0.958 . S
C4223 H4238 0.961 . S
C4223 H4239 0.960 . S
H4224 C4208 0.931 . S
H4225 C4213 0.929 . S
H4226 C4214 0.960 . S
H4227 C4214 0.962 . S
H4228 C4214 0.960 . S
H4229 C4215 0.961 . S
H4230 C4215 0.961 . S
H4231 C4215 0.961 . S
H4232 C4216 0.931 . S
H4233 C4221 0.930 . S
H4234 C4222 0.956 . S
H4235 C4222 0.961 . S
H4236 C4222 0.961 . S
H4237 C4223 0.958 . S
H4238 C4223 0.961 . S
H4239 C4223 0.960 . S
C4240 C4241 1.391 . S
C4240 C4242 1.394 . S
C4240 H4256 0.931 . S
C4241 C4240 1.391 . S
C4241 C4245 1.376 . S
C4242 C4240 1.394 . S
C4242 C4243 1.369 . S
C4242 C4246 1.531 . S
C4243 C4242 1.369 . S
C4243 C4244 1.410 . S
C4243 C4251 1.503 . S
C4244 C4243 1.410 . S
C4244 C4245 1.392 . S
C4244 C4247 1.511 . S
C4245 C4241 1.376 . S
C4245 C4244 1.392 . S
C4245 H4257 0.929 . S
C4246 C4242 1.531 . S
C4246 H4258 0.960 . S
C4246 H4259 0.962 . S
C4246 H4260 0.960 . S
C4247 C4244 1.511 . S
C4247 H4261 0.961 . S
C4247 H4262 0.961 . S
C4247 H4263 0.961 . S
C4248 C4249 1.370 . S
C4248 C4250 1.363 . S
C4248 H4264 0.931 . S
C4249 C4248 1.370 . S
C4249 C4253 1.408 . S
C4250 C4248 1.363 . S
C4250 C4251 1.370 . S
C4250 C4254 1.524 . S
C4251 C4243 1.503 . S
C4251 C4250 1.370 . S
C4251 C4252 1.403 . S
C4252 C4251 1.403 . S
C4252 C4253 1.404 . S
C4252 C4255 1.539 . S
C4253 C4249 1.408 . S
C4253 C4252 1.404 . S
C4253 H4265 0.930 . S
C4254 C4250 1.524 . S
C4254 H4266 0.956 . S
C4254 H4267 0.961 . S
C4254 H4268 0.961 . S
C4255 C4252 1.539 . S
C4255 H4269 0.958 . S
C4255 H4270 0.961 . S
C4255 H4271 0.960 . S
H4256 C4240 0.931 . S
H4257 C4245 0.929 . S
H4258 C4246 0.960 . S
H4259 C4246 0.962 . S
H4260 C4246 0.960 . S
H4261 C4247 0.961 . S
H4262 C4247 0.961 . S
H4263 C4247 0.961 . S
H4264 C4248 0.931 . S
H4265 C4253 0.930 . S
H4266 C4254 0.956 . S
H4267 C4254 0.961 . S
H4268 C4254 0.961 . S
H4269 C4255 0.958 . S
H4270 C4255 0.961 . S
H4271 C4255 0.960 . S
C4272 C4273 1.391 . S
C4272 C4274 1.394 . S
C4272 H4288 0.931 . S
C4273 C4272 1.391 . S
C4273 C4277 1.376 . S
C4274 C4272 1.394 . S
C4274 C4275 1.369 . S
C4274 C4278 1.531 . S
C4275 C4274 1.369 . S
C4275 C4276 1.410 . S
C4275 C4283 1.503 . S
C4276 C4275 1.410 . S
C4276 C4277 1.392 . S
C4276 C4279 1.511 . S
C4277 C4273 1.376 . S
C4277 C4276 1.392 . S
C4277 H4289 0.929 . S
C4278 C4274 1.531 . S
C4278 H4290 0.960 . S
C4278 H4291 0.962 . S
C4278 H4292 0.960 . S
C4279 C4276 1.511 . S
C4279 H4293 0.961 . S
C4279 H4294 0.961 . S
C4279 H4295 0.961 . S
C4280 C4281 1.370 . S
C4280 C4282 1.363 . S
C4280 H4296 0.931 . S
C4281 C4280 1.370 . S
C4281 C4285 1.408 . S
C4282 C4280 1.363 . S
C4282 C4283 1.370 . S
C4282 C4286 1.524 . S
C4283 C4275 1.503 . S
C4283 C4282 1.370 . S
C4283 C4284 1.403 . S
C4284 C4283 1.403 . S
C4284 C4285 1.404 . S
C4284 C4287 1.539 . S
C4285 C4281 1.408 . S
C4285 C4284 1.404 . S
C4285 H4297 0.930 . S
C4286 C4282 1.524 . S
C4286 H4298 0.956 . S
C4286 H4299 0.961 . S
C4286 H4300 0.961 . S
C4287 C4284 1.539 . S
C4287 H4301 0.958 . S
C4287 H4302 0.961 . S
C4287 H4303 0.960 . S
H4288 C4272 0.931 . S
H4289 C4277 0.929 . S
H4290 C4278 0.960 . S
H4291 C4278 0.962 . S
H4292 C4278 0.960 . S
H4293 C4279 0.961 . S
H4294 C4279 0.961 . S
H4295 C4279 0.961 . S
H4296 C4280 0.931 . S
H4297 C4285 0.930 . S
H4298 C4286 0.956 . S
H4299 C4286 0.961 . S
H4300 C4286 0.961 . S
H4301 C4287 0.958 . S
H4302 C4287 0.961 . S
H4303 C4287 0.960 . S
C4304 C4305 1.391 . S
C4304 C4306 1.394 . S
C4304 H4320 0.931 . S
C4305 C4304 1.391 . S
C4305 C4309 1.376 . S
C4306 C4304 1.394 . S
C4306 C4307 1.369 . S
C4306 C4310 1.531 . S
C4307 C4306 1.369 . S
C4307 C4308 1.410 . S
C4307 C4315 1.503 . S
C4308 C4307 1.410 . S
C4308 C4309 1.392 . S
C4308 C4311 1.511 . S
C4309 C4305 1.376 . S
C4309 C4308 1.392 . S
C4309 H4321 0.929 . S
C4310 C4306 1.531 . S
C4310 H4322 0.960 . S
C4310 H4323 0.962 . S
C4310 H4324 0.960 . S
C4311 C4308 1.511 . S
C4311 H4325 0.961 . S
C4311 H4326 0.961 . S
C4311 H4327 0.961 . S
C4312 C4313 1.370 . S
C4312 C4314 1.363 . S
C4312 H4328 0.938 . S
C4313 C4312 1.370 . S
C4313 C4317 1.408 . S
C4314 C4312 1.363 . S
C4314 C4315 1.370 . S
C4314 C4318 1.524 . S
C4315 C4307 1.503 . S
C4315 C4314 1.370 . S
C4315 C4316 1.403 . S
C4316 C4315 1.403 . S
C4316 C4317 1.404 . S
C4316 C4319 1.539 . S
C4317 C4313 1.408 . S
C4317 C4316 1.404 . S
C4317 H4329 0.930 . S
C4318 C4314 1.524 . S
C4318 H4330 0.956 . S
C4318 H4331 0.961 . S
C4318 H4332 0.961 . S
C4319 C4316 1.539 . S
C4319 H4333 0.958 . S
C4319 H4334 0.961 . S
C4319 H4335 0.960 . S
H4320 C4304 0.931 . S
H4321 C4309 0.929 . S
H4322 C4310 0.960 . S
H4323 C4310 0.962 . S
H4324 C4310 0.960 . S
H4325 C4311 0.961 . S
H4326 C4311 0.961 . S
H4327 C4311 0.961 . S
H4328 C4312 0.938 . S
H4329 C4317 0.930 . S
H4330 C4318 0.956 . S
H4331 C4318 0.961 . S
H4332 C4318 0.961 . S
H4333 C4319 0.958 . S
H4334 C4319 0.961 . S
H4335 C4319 0.960 . S
C4336 C4337 1.391 . S
C4336 C4338 1.394 . S
C4336 H4352 0.931 . S
C4337 C4336 1.391 . S
C4337 C4341 1.376 . S
C4338 C4336 1.394 . S
C4338 C4339 1.369 . S
C4338 C4342 1.531 . S
C4339 C4338 1.369 . S
C4339 C4340 1.410 . S
C4339 C4347 1.503 . S
C4340 C4339 1.410 . S
C4340 C4341 1.392 . S
C4340 C4343 1.511 . S
C4341 C4337 1.376 . S
C4341 C4340 1.392 . S
C4341 H4353 0.929 . S
C4342 C4338 1.531 . S
C4342 H4354 0.960 . S
C4342 H4355 0.962 . S
C4342 H4356 0.960 . S
C4343 C4340 1.511 . S
C4343 H4357 0.961 . S
C4343 H4358 0.961 . S
C4343 H4359 0.961 . S
C4344 C4345 1.370 . S
C4344 C4346 1.363 . S
C4344 H4360 0.931 . S
C4345 C4344 1.370 . S
C4345 C4349 1.408 . S
C4346 C4344 1.363 . S
C4346 C4347 1.370 . S
C4346 C4350 1.524 . S
C4347 C4339 1.503 . S
C4347 C4346 1.370 . S
C4347 C4348 1.403 . S
C4348 C4347 1.403 . S
C4348 C4349 1.404 . S
C4348 C4351 1.539 . S
C4349 C4345 1.408 . S
C4349 C4348 1.404 . S
C4349 H4361 0.930 . S
C4350 C4346 1.524 . S
C4350 H4362 0.956 . S
C4350 H4363 0.961 . S
C4350 H4364 0.961 . S
C4351 C4348 1.539 . S
C4351 H4365 0.958 . S
C4351 H4366 0.961 . S
C4351 H4367 0.960 . S
H4352 C4336 0.931 . S
H4353 C4341 0.929 . S
H4354 C4342 0.960 . S
H4355 C4342 0.962 . S
H4356 C4342 0.960 . S
H4357 C4343 0.961 . S
H4358 C4343 0.961 . S
H4359 C4343 0.961 . S
H4360 C4344 0.931 . S
H4361 C4349 0.930 . S
H4362 C4350 0.956 . S
H4363 C4350 0.961 . S
H4364 C4350 0.961 . S
H4365 C4351 0.958 . S
H4366 C4351 0.961 . S
H4367 C4351 0.960 . S
C4368 C4369 1.391 . S
C4368 C4370 1.394 . S
C4368 H4384 0.931 . S
C4369 C4368 1.391 . S
C4369 C4373 1.376 . S
C4370 C4368 1.394 . S
C4370 C4371 1.369 . S
C4370 C4374 1.531 . S
C4371 C4370 1.369 . S
C4371 C4372 1.410 . S
C4371 C4379 1.503 . S
C4372 C4371 1.410 . S
C4372 C4373 1.392 . S
C4372 C4375 1.511 . S
C4373 C4369 1.376 . S
C4373 C4372 1.392 . S
C4373 H4385 0.929 . S
C4374 C4370 1.531 . S
C4374 H4386 0.960 . S
C4374 H4387 0.962 . S
C4374 H4388 0.960 . S
C4375 C4372 1.511 . S
C4375 H4389 0.961 . S
C4375 H4390 0.961 . S
C4375 H4391 0.961 . S
C4376 C4377 1.370 . S
C4376 C4378 1.363 . S
C4376 H4392 0.931 . S
C4377 C4376 1.370 . S
C4377 C4381 1.408 . S
C4378 C4376 1.363 . S
C4378 C4379 1.370 . S
C4378 C4382 1.524 . S
C4379 C4371 1.503 . S
C4379 C4378 1.370 . S
C4379 C4380 1.403 . S
C4380 C4379 1.403 . S
C4380 C4381 1.404 . S
C4380 C4383 1.539 . S
C4381 C4377 1.408 . S
C4381 C4380 1.404 . S
C4381 H4393 0.930 . S
C4382 C4378 1.524 . S
C4382 H4394 0.956 . S
C4382 H4395 0.961 . S
C4382 H4396 0.961 . S
C4383 C4380 1.539 . S
C4383 H4397 0.958 . S
C4383 H4398 0.961 . S
C4383 H4399 0.960 . S
H4384 C4368 0.931 . S
H4385 C4373 0.929 . S
H4386 C4374 0.960 . S
H4387 C4374 0.962 . S
H4388 C4374 0.960 . S
H4389 C4375 0.961 . S
H4390 C4375 0.961 . S
H4391 C4375 0.961 . S
H4392 C4376 0.931 . S
H4393 C4381 0.930 . S
H4394 C4382 0.956 . S
H4395 C4382 0.961 . S
H4396 C4382 0.961 . S
H4397 C4383 0.958 . S
H4398 C4383 0.961 . S
H4399 C4383 0.960 . S
C4400 C4401 1.391 . S
C4400 C4402 1.394 . S
C4400 H4416 0.931 . S
C4401 C4400 1.391 . S
C4401 C4405 1.376 . S
C4402 C4400 1.394 . S
C4402 C4403 1.369 . S
C4402 C4406 1.531 . S
C4403 C4402 1.369 . S
C4403 C4404 1.410 . S
C4403 C4411 1.503 . S
C4404 C4403 1.410 . S
C4404 C4405 1.392 . S
C4404 C4407 1.511 . S
C4405 C4401 1.376 . S
C4405 C4404 1.392 . S
C4405 H4417 0.929 . S
C4406 C4402 1.531 . S
C4406 H4418 0.960 . S
C4406 H4419 0.962 . S
C4406 H4420 0.960 . S
C4407 C4404 1.511 . S
C4407 H4421 0.961 . S
C4407 H4422 0.961 . S
C4407 H4423 0.961 . S
C4408 C4409 1.370 . S
C4408 C4410 1.363 . S
C4408 H4424 0.931 . S
C4409 C4408 1.370 . S
C4409 C4413 1.408 . S
C4410 C4408 1.363 . S
C4410 C4411 1.370 . S
C4410 C4414 1.524 . S
C4411 C4403 1.503 . S
C4411 C4410 1.370 . S
C4411 C4412 1.403 . S
C4412 C4411 1.403 . S
C4412 C4413 1.404 . S
C4412 C4415 1.539 . S
C4413 C4409 1.408 . S
C4413 C4412 1.404 . S
C4413 H4425 0.930 . S
C4414 C4410 1.524 . S
C4414 H4426 0.956 . S
C4414 H4427 0.961 . S
C4414 H4428 0.961 . S
C4415 C4412 1.539 . S
C4415 H4429 0.958 . S
C4415 H4430 0.961 . S
C4415 H4431 0.960 . S
H4416 C4400 0.931 . S
H4417 C4405 0.929 . S
H4418 C4406 0.960 . S
H4419 C4406 0.962 . S
H4420 C4406 0.960 . S
H4421 C4407 0.961 . S
H4422 C4407 0.961 . S
H4423 C4407 0.961 . S
H4424 C4408 0.931 . S
H4425 C4413 0.930 . S
H4426 C4414 0.956 . S
H4427 C4414 0.961 . S
H4428 C4414 0.961 . S
H4429 C4415 0.958 . S
H4430 C4415 0.961 . S
H4431 C4415 0.960 . S
C4432 C4433 1.391 . S
C4432 C4434 1.394 . S
C4432 H4448 0.931 . S
C4433 C4432 1.391 . S
C4433 C4437 1.376 . S
C4434 C4432 1.394 . S
C4434 C4435 1.369 . S
C4434 C4438 1.531 . S
C4435 C4434 1.369 . S
C4435 C4436 1.410 . S
C4435 C4443 1.503 . S
C4436 C4435 1.410 . S
C4436 C4437 1.392 . S
C4436 C4439 1.511 . S
C4437 C4433 1.376 . S
C4437 C4436 1.392 . S
C4437 H4449 0.929 . S
C4438 C4434 1.531 . S
C4438 H4450 0.960 . S
C4438 H4451 0.962 . S
C4438 H4452 0.960 . S
C4439 C4436 1.511 . S
C4439 H4453 0.961 . S
C4439 H4454 0.961 . S
C4439 H4455 0.961 . S
C4440 C4441 1.370 . S
C4440 C4442 1.363 . S
C4440 H4456 0.931 . S
C4441 C4440 1.370 . S
C4441 C4445 1.408 . S
C4442 C4440 1.363 . S
C4442 C4443 1.370 . S
C4442 C4446 1.524 . S
C4443 C4435 1.503 . S
C4443 C4442 1.370 . S
C4443 C4444 1.403 . S
C4444 C4443 1.403 . S
C4444 C4445 1.404 . S
C4444 C4447 1.539 . S
C4445 C4441 1.408 . S
C4445 C4444 1.404 . S
C4445 H4457 0.930 . S
C4446 C4442 1.524 . S
C4446 H4458 0.956 . S
C4446 H4459 0.961 . S
C4446 H4460 0.961 . S
C4447 C4444 1.539 . S
C4447 H4461 0.958 . S
C4447 H4462 0.961 . S
C4447 H4463 0.960 . S
H4448 C4432 0.931 . S
H4449 C4437 0.929 . S
H4450 C4438 0.960 . S
H4451 C4438 0.962 . S
H4452 C4438 0.960 . S
H4453 C4439 0.961 . S
H4454 C4439 0.961 . S
H4455 C4439 0.961 . S
H4456 C4440 0.931 . S
H4457 C4445 0.930 . S
H4458 C4446 0.956 . S
H4459 C4446 0.961 . S
H4460 C4446 0.961 . S
H4461 C4447 0.958 . S
H4462 C4447 0.961 . S
H4463 C4447 0.960 . S
C4464 C4465 1.391 . S
C4464 C4466 1.394 . S
C4464 H4480 0.931 . S
C4465 C4464 1.391 . S
C4465 C4469 1.376 . S
C4466 C4464 1.394 . S
C4466 C4467 1.369 . S
C4466 C4470 1.531 . S
C4467 C4466 1.369 . S
C4467 C4468 1.410 . S
C4467 C4475 1.503 . S
C4468 C4467 1.410 . S
C4468 C4469 1.392 . S
C4468 C4471 1.511 . S
C4469 C4465 1.376 . S
C4469 C4468 1.392 . S
C4469 H4481 0.929 . S
C4470 C4466 1.531 . S
C4470 H4482 0.960 . S
C4470 H4483 0.962 . S
C4470 H4484 0.960 . S
C4471 C4468 1.511 . S
C4471 H4485 0.961 . S
C4471 H4486 0.961 . S
C4471 H4487 0.961 . S
C4472 C4473 1.370 . S
C4472 C4474 1.363 . S
C4472 H4488 0.931 . S
C4473 C4472 1.370 . S
C4473 C4477 1.408 . S
C4474 C4472 1.363 . S
C4474 C4475 1.370 . S
C4474 C4478 1.524 . S
C4475 C4467 1.503 . S
C4475 C4474 1.370 . S
C4475 C4476 1.403 . S
C4476 C4475 1.403 . S
C4476 C4477 1.404 . S
C4476 C4479 1.539 . S
C4477 C4473 1.408 . S
C4477 C4476 1.404 . S
C4477 H4489 0.930 . S
C4478 C4474 1.524 . S
C4478 H4490 0.956 . S
C4478 H4491 0.961 . S
C4478 H4492 0.961 . S
C4479 C4476 1.539 . S
C4479 H4493 0.958 . S
C4479 H4494 0.961 . S
C4479 H4495 0.960 . S
H4480 C4464 0.931 . S
H4481 C4469 0.929 . S
H4482 C4470 0.960 . S
H4483 C4470 0.962 . S
H4484 C4470 0.960 . S
H4485 C4471 0.961 . S
H4486 C4471 0.961 . S
H4487 C4471 0.961 . S
H4488 C4472 0.931 . S
H4489 C4477 0.930 . S
H4490 C4478 0.956 . S
H4491 C4478 0.961 . S
H4492 C4478 0.961 . S
H4493 C4479 0.958 . S
H4494 C4479 0.961 . S
H4495 C4479 0.960 . S
C4496 C4497 1.391 . S
C4496 C4498 1.394 . S
C4496 H4512 0.931 . S
C4497 C4496 1.391 . S
C4497 C4501 1.376 . S
C4498 C4496 1.394 . S
C4498 C4499 1.369 . S
C4498 C4502 1.531 . S
C4499 C4498 1.369 . S
C4499 C4500 1.410 . S
C4499 C4507 1.503 . S
C4500 C4499 1.410 . S
C4500 C4501 1.392 . S
C4500 C4503 1.511 . S
C4501 C4497 1.376 . S
C4501 C4500 1.392 . S
C4501 H4513 0.929 . S
C4502 C4498 1.531 . S
C4502 H4514 0.960 . S
C4502 H4515 0.962 . S
C4502 H4516 0.960 . S
C4503 C4500 1.511 . S
C4503 H4517 0.961 . S
C4503 H4518 0.961 . S
C4503 H4519 0.961 . S
C4504 C4505 1.370 . S
C4504 C4506 1.363 . S
C4504 H4520 0.931 . S
C4505 C4504 1.370 . S
C4505 C4509 1.408 . S
C4506 C4504 1.363 . S
C4506 C4507 1.370 . S
C4506 C4510 1.524 . S
C4507 C4499 1.503 . S
C4507 C4506 1.370 . S
C4507 C4508 1.403 . S
C4508 C4507 1.403 . S
C4508 C4509 1.404 . S
C4508 C4511 1.539 . S
C4509 C4505 1.408 . S
C4509 C4508 1.404 . S
C4509 H4521 0.930 . S
C4510 C4506 1.524 . S
C4510 H4522 0.956 . S
C4510 H4523 0.961 . S
C4510 H4524 0.961 . S
C4511 C4508 1.539 . S
C4511 H4525 0.958 . S
C4511 H4526 0.961 . S
C4511 H4527 0.960 . S
H4512 C4496 0.931 . S
H4513 C4501 0.929 . S
H4514 C4502 0.960 . S
H4515 C4502 0.962 . S
H4516 C4502 0.960 . S
H4517 C4503 0.961 . S
H4518 C4503 0.961 . S
H4519 C4503 0.961 . S
H4520 C4504 0.931 . S
H4521 C4509 0.930 . S
H4522 C4510 0.956 . S
H4523 C4510 0.961 . S
H4524 C4510 0.961 . S
H4525 C4511 0.958 . S
H4526 C4511 0.961 . S
H4527 C4511 0.960 . S
C4528 C4529 1.391 . S
C4528 C4530 1.394 . S
C4528 H4544 0.931 . S
C4529 C4528 1.391 . S
C4529 C4533 1.376 . S
C4530 C4528 1.394 . S
C4530 C4531 1.369 . S
C4530 C4534 1.531 . S
C4531 C4530 1.369 . S
C4531 C4532 1.410 . S
C4531 C4539 1.503 . S
C4532 C4531 1.410 . S
C4532 C4533 1.392 . S
C4532 C4535 1.511 . S
C4533 C4529 1.376 . S
C4533 C4532 1.392 . S
C4533 H4545 0.929 . S
C4534 C4530 1.531 . S
C4534 H4546 0.960 . S
C4534 H4547 0.962 . S
C4534 H4548 0.960 . S
C4535 C4532 1.511 . S
C4535 H4549 0.961 . S
C4535 H4550 0.961 . S
C4535 H4551 0.961 . S
C4536 C4537 1.370 . S
C4536 C4538 1.363 . S
C4536 H4552 0.931 1_565 S
C4537 C4536 1.370 . S
C4537 C4541 1.408 . S
C4538 C4536 1.363 . S
C4538 C4539 1.370 . S
C4538 C4542 1.524 . S
C4539 C4531 1.503 . S
C4539 C4538 1.370 . S
C4539 C4540 1.403 . S
C4540 C4539 1.403 . S
C4540 C4541 1.404 . S
C4540 C4543 1.539 . S
C4541 C4537 1.408 . S
C4541 C4540 1.404 . S
C4541 H4553 0.930 . S
C4542 C4538 1.524 . S
C4542 H4554 0.956 . S
C4542 H4555 0.961 . S
C4542 H4556 0.961 . S
C4543 C4540 1.539 . S
C4543 H4557 0.958 . S
C4543 H4558 0.961 . S
C4543 H4559 0.960 . S
H4544 C4528 0.931 . S
H4545 C4533 0.929 . S
H4546 C4534 0.960 . S
H4547 C4534 0.962 . S
H4548 C4534 0.960 . S
H4549 C4535 0.961 . S
H4550 C4535 0.961 . S
H4551 C4535 0.961 . S
H4552 C4536 0.931 1_545 S
H4553 C4541 0.930 . S
H4554 C4542 0.956 . S
H4555 C4542 0.961 . S
H4556 C4542 0.961 . S
H4557 C4543 0.958 . S
H4558 C4543 0.961 . S
H4559 C4543 0.960 . S
C4560 C4561 1.391 . S
C4560 C4562 1.394 . S
C4560 H4576 0.931 . S
C4561 C4560 1.391 . S
C4561 C4565 1.376 . S
C4562 C4560 1.394 . S
C4562 C4563 1.369 . S
C4562 C4566 1.531 . S
C4563 C4562 1.369 . S
C4563 C4564 1.410 . S
C4563 C4571 1.503 . S
C4564 C4563 1.410 . S
C4564 C4565 1.392 . S
C4564 C4567 1.511 . S
C4565 C4561 1.376 . S
C4565 C4564 1.392 . S
C4565 H4577 0.929 . S
C4566 C4562 1.531 . S
C4566 H4578 0.960 . S
C4566 H4579 0.962 . S
C4566 H4580 0.960 . S
C4567 C4564 1.511 . S
C4567 H4581 0.961 . S
C4567 H4582 0.961 . S
C4567 H4583 0.961 . S
C4568 C4569 1.370 . S
C4568 C4570 1.363 . S
C4568 H4584 0.931 . S
C4569 C4568 1.370 . S
C4569 C4573 1.408 . S
C4570 C4568 1.363 . S
C4570 C4571 1.370 . S
C4570 C4574 1.524 . S
C4571 C4563 1.503 . S
C4571 C4570 1.370 . S
C4571 C4572 1.403 . S
C4572 C4571 1.403 . S
C4572 C4573 1.404 . S
C4572 C4575 1.539 . S
C4573 C4569 1.408 . S
C4573 C4572 1.404 . S
C4573 H4585 0.930 . S
C4574 C4570 1.524 . S
C4574 H4586 0.956 . S
C4574 H4587 0.961 . S
C4574 H4588 0.961 . S
C4575 C4572 1.539 . S
C4575 H4589 0.958 . S
C4575 H4590 0.961 . S
C4575 H4591 0.960 . S
H4576 C4560 0.931 . S
H4577 C4565 0.929 . S
H4578 C4566 0.960 . S
H4579 C4566 0.962 . S
H4580 C4566 0.960 . S
H4581 C4567 0.961 . S
H4582 C4567 0.961 . S
H4583 C4567 0.961 . S
H4584 C4568 0.931 . S
H4585 C4573 0.930 . S
H4586 C4574 0.956 . S
H4587 C4574 0.961 . S
H4588 C4574 0.961 . S
H4589 C4575 0.958 . S
H4590 C4575 0.961 . S
H4591 C4575 0.960 . S
C4592 C4593 1.391 . S
C4592 C4594 1.394 . S
C4592 H4608 0.931 . S
C4593 C4592 1.391 . S
C4593 C4597 1.376 . S
C4594 C4592 1.394 . S
C4594 C4595 1.369 . S
C4594 C4598 1.531 . S
C4595 C4594 1.369 . S
C4595 C4596 1.410 . S
C4595 C4603 1.503 . S
C4596 C4595 1.410 . S
C4596 C4597 1.392 . S
C4596 C4599 1.511 . S
C4597 C4593 1.376 . S
C4597 C4596 1.392 . S
C4597 H4609 0.929 . S
C4598 C4594 1.531 . S
C4598 H4610 0.960 . S
C4598 H4611 0.962 . S
C4598 H4612 0.960 . S
C4599 C4596 1.511 . S
C4599 H4613 0.961 . S
C4599 H4614 0.961 . S
C4599 H4615 0.961 . S
C4600 C4601 1.370 . S
C4600 C4602 1.363 . S
C4600 H4616 0.931 . S
C4601 C4600 1.370 . S
C4601 C4605 1.408 . S
C4602 C4600 1.363 . S
C4602 C4603 1.370 . S
C4602 C4606 1.524 . S
C4603 C4595 1.503 . S
C4603 C4602 1.370 . S
C4603 C4604 1.403 . S
C4604 C4603 1.403 . S
C4604 C4605 1.404 . S
C4604 C4607 1.539 . S
C4605 C4601 1.408 . S
C4605 C4604 1.404 . S
C4605 H4617 0.930 . S
C4606 C4602 1.524 . S
C4606 H4618 0.956 . S
C4606 H4619 0.961 . S
C4606 H4620 0.961 1_554 S
C4607 C4604 1.539 . S
C4607 H4621 0.958 . S
C4607 H4622 0.961 . S
C4607 H4623 0.960 . S
H4608 C4592 0.931 . S
H4609 C4597 0.929 . S
H4610 C4598 0.960 . S
H4611 C4598 0.962 . S
H4612 C4598 0.960 . S
H4613 C4599 0.961 . S
H4614 C4599 0.961 . S
H4615 C4599 0.961 . S
H4616 C4600 0.931 . S
H4617 C4605 0.930 . S
H4618 C4606 0.956 . S
H4619 C4606 0.961 . S
H4620 C4606 0.961 1_556 S
H4621 C4607 0.958 . S
H4622 C4607 0.961 . S
H4623 C4607 0.960 . S
C4624 C4625 1.391 . S
C4624 C4626 1.394 . S
C4624 H4640 0.931 . S
C4625 C4624 1.391 . S
C4625 C4629 1.376 . S
C4626 C4624 1.394 . S
C4626 C4627 1.369 . S
C4626 C4630 1.531 . S
C4627 C4626 1.369 . S
C4627 C4628 1.410 . S
C4627 C4635 1.503 . S
C4628 C4627 1.410 . S
C4628 C4629 1.392 . S
C4628 C4631 1.511 . S
C4629 C4625 1.376 . S
C4629 C4628 1.392 . S
C4629 H4641 0.929 . S
C4630 C4626 1.531 . S
C4630 H4642 0.960 . S
C4630 H4643 0.962 . S
C4630 H4644 0.960 . S
C4631 C4628 1.511 . S
C4631 H4645 0.961 . S
C4631 H4646 0.961 . S
C4631 H4647 0.961 . S
C4632 C4633 1.370 . S
C4632 C4634 1.363 . S
C4632 H4648 0.931 . S
C4633 C4632 1.370 . S
C4633 C4637 1.408 . S
C4634 C4632 1.363 . S
C4634 C4635 1.370 . S
C4634 C4638 1.524 . S
C4635 C4627 1.503 . S
C4635 C4634 1.370 . S
C4635 C4636 1.403 . S
C4636 C4635 1.403 . S
C4636 C4637 1.404 . S
C4636 C4639 1.539 . S
C4637 C4633 1.408 . S
C4637 C4636 1.404 . S
C4637 H4649 0.930 . S
C4638 C4634 1.524 . S
C4638 H4650 0.956 . S
C4638 H4651 0.961 . S
C4638 H4652 0.961 . S
C4639 C4636 1.539 . S
C4639 H4653 0.958 . S
C4639 H4654 0.961 . S
C4639 H4655 0.960 . S
H4640 C4624 0.931 . S
H4641 C4629 0.929 . S
H4642 C4630 0.960 . S
H4643 C4630 0.962 . S
H4644 C4630 0.960 . S
H4645 C4631 0.961 . S
H4646 C4631 0.961 . S
H4647 C4631 0.961 . S
H4648 C4632 0.931 . S
H4649 C4637 0.930 . S
H4650 C4638 0.956 . S
H4651 C4638 0.961 . S
H4652 C4638 0.961 . S
H4653 C4639 0.958 . S
H4654 C4639 0.961 . S
H4655 C4639 0.960 . S
C4656 C4657 1.391 . S
C4656 C4658 1.394 . S
C4656 H4672 0.931 . S
C4657 C4656 1.391 . S
C4657 C4661 1.376 . S
C4658 C4656 1.394 . S
C4658 C4659 1.369 . S
C4658 C4662 1.520 1_554 S
C4659 C4658 1.369 . S
C4659 C4660 1.410 . S
C4659 C4667 1.503 . S
C4660 C4659 1.410 . S
C4660 C4661 1.392 . S
C4660 C4663 1.511 . S
C4661 C4657 1.376 . S
C4661 C4660 1.392 . S
C4661 H4673 0.929 . S
C4662 C4658 1.520 1_556 S
C4662 H4674 0.964 . S
C4662 H4675 0.959 1_556 S
C4662 H4676 0.971 . S
C4663 C4660 1.511 . S
C4663 H4677 0.961 . S
C4663 H4678 0.961 . S
C4663 H4679 0.961 . S
C4664 C4665 1.370 . S
C4664 C4666 1.363 . S
C4664 H4680 0.931 . S
C4665 C4664 1.370 . S
C4665 C4669 1.408 . S
C4666 C4664 1.363 . S
C4666 C4667 1.370 . S
C4666 C4670 1.524 . S
C4667 C4659 1.503 . S
C4667 C4666 1.370 . S
C4667 C4668 1.403 . S
C4668 C4667 1.403 . S
C4668 C4669 1.404 . S
C4668 C4671 1.528 1_554 S
C4669 C4665 1.408 . S
C4669 C4668 1.404 . S
C4669 H4681 0.930 . S
C4670 C4666 1.524 . S
C4670 H4682 0.956 . S
C4670 H4683 0.961 . S
C4670 H4684 0.961 . S
C4671 C4668 1.528 1_556 S
C4671 H4685 0.984 . S
C4671 H4686 0.961 . S
C4671 H4687 0.946 1_556 S
H4672 C4656 0.931 . S
H4673 C4661 0.929 . S
H4674 C4662 0.964 . S
H4675 C4662 0.959 1_554 S
H4676 C4662 0.971 . S
H4677 C4663 0.961 . S
H4678 C4663 0.961 . S
H4679 C4663 0.961 . S
H4680 C4664 0.931 . S
H4681 C4669 0.930 . S
H4682 C4670 0.956 . S
H4683 C4670 0.961 . S
H4684 C4670 0.961 . S
H4685 C4671 0.984 . S
H4686 C4671 0.961 . S
H4687 C4671 0.946 1_554 S
C4688 C4689 1.391 . S
C4688 C4690 1.394 . S
C4688 H4704 0.931 . S
C4689 C4688 1.391 . S
C4689 C4693 1.376 . S
C4690 C4688 1.394 . S
C4690 C4691 1.369 . S
C4690 C4694 1.531 . S
C4691 C4690 1.369 . S
C4691 C4692 1.410 . S
C4691 C4699 1.503 . S
C4692 C4691 1.410 . S
C4692 C4693 1.392 . S
C4692 C4695 1.511 . S
C4693 C4689 1.376 . S
C4693 C4692 1.392 . S
C4693 H4705 0.929 . S
C4694 C4690 1.531 . S
C4694 H4706 0.960 . S
C4694 H4707 0.962 . S
C4694 H4708 0.960 . S
C4695 C4692 1.511 . S
C4695 H4709 0.961 . S
C4695 H4710 0.961 . S
C4695 H4711 0.961 . S
C4696 C4697 1.370 . S
C4696 C4698 1.363 . S
C4696 H4712 0.931 . S
C4697 C4696 1.370 . S
C4697 C4701 1.408 . S
C4698 C4696 1.363 . S
C4698 C4699 1.370 . S
C4698 C4702 1.524 . S
C4699 C4691 1.503 . S
C4699 C4698 1.370 . S
C4699 C4700 1.403 . S
C4700 C4699 1.403 . S
C4700 C4701 1.404 . S
C4700 C4703 1.539 . S
C4701 C4697 1.408 . S
C4701 C4700 1.404 . S
C4701 H4713 0.930 . S
C4702 C4698 1.524 . S
C4702 H4714 0.956 . S
C4702 H4715 0.961 . S
C4702 H4716 0.961 . S
C4703 C4700 1.539 . S
C4703 H4717 0.958 . S
C4703 H4718 0.961 . S
C4703 H4719 0.960 . S
H4704 C4688 0.931 . S
H4705 C4693 0.929 . S
H4706 C4694 0.960 . S
H4707 C4694 0.962 . S
H4708 C4694 0.960 . S
H4709 C4695 0.961 . S
H4710 C4695 0.961 . S
H4711 C4695 0.961 . S
H4712 C4696 0.931 . S
H4713 C4701 0.930 . S
H4714 C4702 0.956 . S
H4715 C4702 0.961 . S
H4716 C4702 0.961 . S
H4717 C4703 0.958 . S
H4718 C4703 0.961 . S
H4719 C4703 0.960 . S
C4720 C4721 1.391 . S
C4720 C4722 1.394 . S
C4720 H4736 0.931 . S
C4721 C4720 1.391 . S
C4721 C4725 1.376 . S
C4722 C4720 1.394 . S
C4722 C4723 1.369 . S
C4722 C4726 1.531 . S
C4723 C4722 1.369 . S
C4723 C4724 1.410 . S
C4723 C4731 1.503 . S
C4724 C4723 1.410 . S
C4724 C4725 1.392 . S
C4724 C4727 1.511 . S
C4725 C4721 1.376 . S
C4725 C4724 1.392 . S
C4725 H4737 0.929 . S
C4726 C4722 1.531 . S
C4726 H4738 0.960 . S
C4726 H4739 0.962 . S
C4726 H4740 0.960 . S
C4727 C4724 1.511 . S
C4727 H4741 0.961 . S
C4727 H4742 0.961 . S
C4727 H4743 0.961 . S
C4728 C4729 1.370 . S
C4728 C4730 1.363 . S
C4728 H4744 0.931 . S
C4729 C4728 1.370 . S
C4729 C4733 1.408 . S
C4730 C4728 1.363 . S
C4730 C4731 1.370 . S
C4730 C4734 1.524 . S
C4731 C4723 1.503 . S
C4731 C4730 1.370 . S
C4731 C4732 1.403 . S
C4732 C4731 1.403 . S
C4732 C4733 1.404 . S
C4732 C4735 1.539 . S
C4733 C4729 1.408 . S
C4733 C4732 1.404 . S
C4733 H4745 0.930 . S
C4734 C4730 1.524 . S
C4734 H4746 0.956 . S
C4734 H4747 0.961 . S
C4734 H4748 0.961 . S
C4735 C4732 1.539 . S
C4735 H4749 0.958 . S
C4735 H4750 0.961 . S
C4735 H4751 0.960 . S
H4736 C4720 0.931 . S
H4737 C4725 0.929 . S
H4738 C4726 0.960 . S
H4739 C4726 0.962 . S
H4740 C4726 0.960 . S
H4741 C4727 0.961 . S
H4742 C4727 0.961 . S
H4743 C4727 0.961 . S
H4744 C4728 0.931 . S
H4745 C4733 0.930 . S
H4746 C4734 0.956 . S
H4747 C4734 0.961 . S
H4748 C4734 0.961 . S
H4749 C4735 0.958 . S
H4750 C4735 0.961 . S
H4751 C4735 0.960 . S
C1681 C105 2.141 1_455 S
C1689 C392 2.156 . S
C1713 C65 1.906 . S
C1721 C494 1.897 . S
C1745 C73 1.882 . S
C1753 C560 1.892 . S
C1785 C646 1.413 . S
C1777 C92 1.501 . S
C1809 C17 1.554 . S
C1817 C730 1.430 . S
C1849 C812 1.858 . S
C1841 C37 1.809 . S
C1881 C914 1.910 . S
C1873 C49 1.842 . S
C1905 C8 2.092 . S
C1913 C980 2.086 . S
C1945 C410 1.689 . S
C1937 C231 1.698 . S
C1969 C241 0.946 . S
C1977 C478 0.925 . S
C2009 C578 1.151 . S
C2001 C273 1.073 . S
C2041 C644 1.634 . S
C2033 C171 1.636 1_556 S
C2065 C227 1.615 . S
C2073 C728 1.622 . S
C2105 C830 1.157 . S
C2097 C245 1.084 . S
C2137 C898 0.938 . S
C2129 C269 0.944 . S
C2169 C998 1.683 . S
C2161 C175 1.712 . S
C2201 C394 0.994 . S
C2193 C162 1.003 1_554 S
C2225 C289 1.706 . S
C2233 C1082 1.687 . S
C2265 C1150 1.348 . S
C2257 C330 1.391 . S
C2297 C1232 0.844 . S
C2289 C317 0.848 . S
C2321 C120 0.969 . S
C2329 C982 0.955 . S
C2353 C134 1.396 . S
C2361 C562 1.325 . S
C2385 C331 1.667 . S
C2393 C1334 1.650 . S
C2425 C1400 0.780 . S
C2417 C303 0.800 . S
C2457 C403 2.180 . S
C2449 C59 2.142 . S
C2489 C1407 1.941 . S
C2481 C107 1.947 . S
C2513 C91 1.929 . S
C2521 C571 1.943 . S
C2545 C78 1.528 . S
C2553 C1329 1.445 . S
C2585 C741 1.480 . S
C2577 C7 1.563 . S
C2609 C51 1.866 . S
C2617 C1159 1.905 . S
C2649 C903 1.949 1_556 S
C2641 C31 1.955 . S
C2681 C1495 2.119 . S
C2673 C22 2.098 . S
C2713 C399 1.713 . S
C2705 C143 1.765 . S
C2745 C1413 0.939 . S
C2737 C315 0.938 . S
C2769 C115 1.189 . S
C2777 C567 1.198 . S
C2801 C287 1.665 . S
C2809 C1327 1.679 . S
C2833 C147 1.641 . S
C2841 C739 1.669 . S
C2873 C1155 1.201 . S
C2865 C311 1.194 . S
C2897 C119 0.984 . S
C2905 C909 0.926 . S
C2929 C283 1.748 . S
C2937 C1491 1.710 . S
C2961 C190 1.053 . S
C2969 C405 1.025 . S
C2993 C177 1.734 . S
C3001 C1071 1.727 . S
C3025 C260 1.370 . S
C3033 C825 1.333 . S
C3057 C247 0.871 . S
C3065 C1243 0.888 . S
C3097 C1497 0.988 . S
C3089 C274 0.964 1_565 S
C3121 C218 1.416 . S
C3129 C573 1.340 . S
C3161 C651 1.690 . S
C3153 C261 1.701 . S
C3193 C487 0.823 . S
C3185 C205 0.810 . S
C3217 C77 2.160 . S
C3225 C1568 2.157 . S
C3257 C1418 1.895 . S
C3249 C93 1.902 . S
C3281 C101 1.858 . S
C3289 C1652 1.896 . S
C3313 C64 1.474 1_655 S
C3321 C1318 1.411 . S
C3345 C45 1.554 . S
C3353 C1066 1.430 . S
C3385 C1148 1.859 . S
C3377 C9 1.801 . S
C3417 C1250 1.910 . S
C3409 C21 1.841 . S
C3449 C1484 2.086 . S
C3441 C36 2.092 . S
C3481 C1586 1.676 . S
C3473 C259 1.691 . S
C3505 C185 0.945 . S
C3513 C1402 0.928 . S
C3545 C1670 1.165 . S
C3537 C203 1.109 . S
C3577 C1316 1.640 . S
C3569 C213 1.630 . S
C3609 C1064 1.626 . S
C3601 C255 1.622 . S
C3633 C189 1.172 . S
C3641 C1166 1.175 . S
C3673 C1234 0.935 . S
C3665 C199 0.950 . S
C3697 C217 1.677 . S
C3705 C1502 1.668 . S
C3737 C1570 1.022 . S
C3729 C316 1.040 . S
C3761 C135 1.700 . S
C3769 C746 1.693 . S
C3801 C814 1.322 . S
C3793 C148 1.372 1_565 S
C3833 C896 0.839 . S
C3825 C163 0.864 . S
C3865 C1486 0.983 . S
C3857 C302 1.017 . S
C3889 C288 1.384 . S
C3897 C1654 1.351 . S
C3929 C662 1.654 . S
C3921 C149 1.667 . S
C3961 C476 0.775 . S
C3953 C121 0.787 . S
C3985 C87 2.151 . S
C3993 C1579 2.184 . S
C4025 C483 1.931 . S
C4017 C79 1.926 . S
C4049 C63 1.922 . S
C4057 C1663 1.945 . S
C4081 C106 1.523 . S
C4089 C657 1.444 . S
C4113 C35 1.558 . S
C4121 C1077 1.473 . S
C4153 C823 1.903 . S
C4145 C23 1.836 . S
C4177 C3 1.952 . S
C4185 C1239 1.944 . S
C4209 C50 2.099 . S
C4217 C991 2.116 . S
C4249 C1575 1.713 . S
C4241 C325 1.765 . S
C4273 C161 0.934 . S
C4281 C489 0.931 . S
C4313 C1659 1.197 1_655 S
C4305 C297 1.203 . S
C4337 C133 1.626 . S
C4345 C655 1.683 . S
C4369 C329 1.654 . S
C4377 C1075 1.669 . S
C4409 C819 1.191 . S
C4401 C157 1.225 . S
C4433 C301 0.924 . S
C4441 C1245 0.924 . S
C4473 C987 1.712 . S
C4465 C129 1.746 . S
C4505 C1581 1.001 . S
C4497 C246 1.025 . S
C4537 C735 1.725 1_565 S
C4529 C219 1.728 . S
C4561 C232 1.373 . S
C4569 C1161 1.337 . S
C4601 C907 0.887 . S
C4593 C191 0.897 . S
C4625 C204 0.966 . S
C4633 C993 0.960 . S
C4657 C176 1.411 . S
C4665 C1665 1.336 . S
C4697 C1323 1.690 . S
C4689 C233 1.698 . S
C4729 C1411 0.818 . S
C4721 C275 0.807 . S
