# Generated by pormake.
# Topology ssb, (4,4)-cn, num edge types: 1
# Building blocks:
#     Node 0, Type 0, BuildingBlock: ESEHIV_clean_sbu_0, # of connection points: 4
#     Node 1, Type 0, BuildingBlock: ESEHIV_clean_sbu_0, # of connection points: 4
#     Node 2, Type 0, BuildingBlock: ESEHIV_clean_sbu_0, # of connection points: 4
#     Node 3, Type 0, BuildingBlock: ESEHIV_clean_sbu_0, # of connection points: 4
#     Node 4, Type 0, BuildingBlock: ESEHIV_clean_sbu_0, # of connection points: 4
#     Node 5, Type 0, BuildingBlock: ESEHIV_clean_sbu_0, # of connection points: 4
#     Node 6, Type 0, BuildingBlock: ESEHIV_clean_sbu_0, # of connection points: 4
#     Node 7, Type 0, BuildingBlock: ESEHIV_clean_sbu_0, # of connection points: 4
#     Node 8, Type 1, BuildingBlock: NAWXER_clean_sbu_0, # of connection points: 4
#     Node 9, Type 1, BuildingBlock: NAWXER_clean_sbu_0, # of connection points: 4
#     Node 10, Type 1, BuildingBlock: NAWXER_clean_sbu_0, # of connection points: 4
#     Node 11, Type 1, BuildingBlock: NAWXER_clean_sbu_0, # of connection points: 4
#     Node 12, Type 1, BuildingBlock: NAWXER_clean_sbu_0, # of connection points: 4
#     Node 13, Type 1, BuildingBlock: NAWXER_clean_sbu_0, # of connection points: 4
#     Node 14, Type 1, BuildingBlock: NAWXER_clean_sbu_0, # of connection points: 4
#     Node 15, Type 1, BuildingBlock: NAWXER_clean_sbu_0, # of connection points: 4
#     Edge 16, Type (0, 1), BuildingBlock: CIFDUS_clean_linker_0, # of connection points: 2
#     Edge 17, Type (0, 1), BuildingBlock: CIFDUS_clean_linker_0, # of connection points: 2
#     Edge 18, Type (0, 1), BuildingBlock: CIFDUS_clean_linker_0, # of connection points: 2
#     Edge 19, Type (0, 1), BuildingBlock: CIFDUS_clean_linker_0, # of connection points: 2
#     Edge 20, Type (0, 1), BuildingBlock: CIFDUS_clean_linker_0, # of connection points: 2
#     Edge 21, Type (0, 1), BuildingBlock: CIFDUS_clean_linker_0, # of connection points: 2
#     Edge 22, Type (0, 1), BuildingBlock: CIFDUS_clean_linker_0, # of connection points: 2
#     Edge 23, Type (0, 1), BuildingBlock: CIFDUS_clean_linker_0, # of connection points: 2
#     Edge 24, Type (0, 1), BuildingBlock: CIFDUS_clean_linker_0, # of connection points: 2
#     Edge 25, Type (0, 1), BuildingBlock: CIFDUS_clean_linker_0, # of connection points: 2
#     Edge 26, Type (0, 1), BuildingBlock: CIFDUS_clean_linker_0, # of connection points: 2
#     Edge 27, Type (0, 1), BuildingBlock: CIFDUS_clean_linker_0, # of connection points: 2
#     Edge 28, Type (0, 1), BuildingBlock: CIFDUS_clean_linker_0, # of connection points: 2
#     Edge 29, Type (0, 1), BuildingBlock: CIFDUS_clean_linker_0, # of connection points: 2
#     Edge 30, Type (0, 1), BuildingBlock: CIFDUS_clean_linker_0, # of connection points: 2
#     Edge 31, Type (0, 1), BuildingBlock: CIFDUS_clean_linker_0, # of connection points: 2
#     Edge 32, Type (0, 1), BuildingBlock: CIFDUS_clean_linker_0, # of connection points: 2
#     Edge 33, Type (0, 1), BuildingBlock: CIFDUS_clean_linker_0, # of connection points: 2
#     Edge 34, Type (0, 1), BuildingBlock: CIFDUS_clean_linker_0, # of connection points: 2
#     Edge 35, Type (0, 1), BuildingBlock: CIFDUS_clean_linker_0, # of connection points: 2
#     Edge 36, Type (0, 1), BuildingBlock: CIFDUS_clean_linker_0, # of connection points: 2
#     Edge 37, Type (0, 1), BuildingBlock: CIFDUS_clean_linker_0, # of connection points: 2
#     Edge 38, Type (0, 1), BuildingBlock: CIFDUS_clean_linker_0, # of connection points: 2
#     Edge 39, Type (0, 1), BuildingBlock: CIFDUS_clean_linker_0, # of connection points: 2
#     Edge 40, Type (0, 1), BuildingBlock: CIFDUS_clean_linker_0, # of connection points: 2
#     Edge 41, Type (0, 1), BuildingBlock: CIFDUS_clean_linker_0, # of connection points: 2
#     Edge 42, Type (0, 1), BuildingBlock: CIFDUS_clean_linker_0, # of connection points: 2
#     Edge 43, Type (0, 1), BuildingBlock: CIFDUS_clean_linker_0, # of connection points: 2
#     Edge 44, Type (0, 1), BuildingBlock: CIFDUS_clean_linker_0, # of connection points: 2
#     Edge 45, Type (0, 1), BuildingBlock: CIFDUS_clean_linker_0, # of connection points: 2
#     Edge 46, Type (0, 1), BuildingBlock: CIFDUS_clean_linker_0, # of connection points: 2
#     Edge 47, Type (0, 1), BuildingBlock: CIFDUS_clean_linker_0, # of connection points: 2
# Relax obj value: 0.003
# Max RMSD: 0.103
# Mean RMSD: 0.052
data_MOF--net-ssb--node1-ESEHIV_clean_sbu_0--node2-NAWXER_clean_sbu_0--edge1-CIFDUS_clean_linker_0
_symmetry_space_group_name_H-M    P1
_symmetry_Int_Tables_number       1
_symmetry_cell_setting            triclinic
loop_
_symmetry_equiv_pos_as_xyz
'x, y, z'
_cell_length_a     40.800912
_cell_length_b     40.854776
_cell_length_c     34.385848
_cell_angle_alpha  90.034016
_cell_angle_beta   89.807162
_cell_angle_gamma 89.923991
loop_
_atom_site_label
_atom_site_type_symbol
_atom_site_fract_x
_atom_site_fract_y
_atom_site_fract_z
_atom_type_partial_charge
Cu0 Cu 0.28107 0.2923 0.3053 0.0
N1 N 0.27182 0.24733 0.30852 0.0
N2 N 0.27094 0.19707 0.33454 0.0
C3 C 0.28418 0.22734 0.33598 0.0
C4 C 0.24938 0.198 0.3049 0.0
C5 C 0.25004 0.22901 0.28882 0.0
O6 O 0.26533 0.30928 0.35528 0.0
C7 C 0.33935 0.27971 0.26729 0.0
O8 O 0.3207 0.25632 0.25338 0.0
H9 H 0.3017 0.23528 0.35758 0.0
H10 H 0.23522 0.23761 0.26493 0.0
N11 N 0.25961 0.31301 0.26409 0.0
N12 N 0.25093 0.35006 0.21721 0.0
C13 C 0.27227 0.3382 0.24367 0.0
C14 C 0.22919 0.30862 0.25015 0.0
C15 C 0.2238 0.33135 0.22119 0.0
C16 C 0.24242 0.33037 0.35899 0.0
O17 O 0.23335 0.34752 0.32858 0.0
H18 H 0.29623 0.34841 0.24933 0.0
H19 H 0.21178 0.29093 0.26107 0.0
O20 O 0.32768 0.29846 0.29362 0.0
H21 H 0.2342 0.17777 0.29557 0.0
H22 H 0.2014 0.33405 0.20475 0.0
Cu23 Cu 0.8175 0.26811 0.26886 0.0
N24 N 0.79258 0.24556 0.23174 0.0
N25 N 0.74906 0.23559 0.19375 0.0
C26 C 0.76446 0.25744 0.21691 0.0
C27 C 0.76842 0.20874 0.19412 0.0
C28 C 0.79519 0.21492 0.21762 0.0
O29 O 0.81364 0.3148 0.25646 0.0
C30 C 0.81051 0.22668 0.33085 0.0
O31 O 0.82563 0.20792 0.30551 0.0
H32 H 0.7549 0.28135 0.2244 0.0
H33 H 0.81455 0.1979 0.22473 0.0
N34 N 0.86232 0.25795 0.27029 0.0
N35 N 0.91071 0.25652 0.30053 0.0
C36 C 0.88187 0.27223 0.29669 0.0
C37 C 0.87966 0.23241 0.25624 0.0
C38 C 0.90955 0.23132 0.27521 0.0
C39 C 0.83269 0.32612 0.23015 0.0
O40 O 0.85428 0.3064 0.21409 0.0
H41 H 0.87383 0.29207 0.31532 0.0
H42 H 0.87037 0.21438 0.23611 0.0
O43 O 0.80185 0.25546 0.32064 0.0
H44 H 0.76357 0.18612 0.1788 0.0
H45 H 0.92824 0.21268 0.27199 0.0
Cu46 Cu 0.77984 0.80281 0.29872 0.0
N47 N 0.80202 0.78608 0.25543 0.0
N48 N 0.81462 0.74874 0.20999 0.0
C49 C 0.7945 0.75685 0.2397 0.0
C50 C 0.83581 0.77406 0.20701 0.0
C51 C 0.82798 0.79707 0.23511 0.0
O52 O 0.73584 0.78414 0.29267 0.0
C53 C 0.83083 0.81003 0.35094 0.0
O54 O 0.83763 0.83301 0.3255 0.0
H55 H 0.77521 0.74131 0.2509 0.0
H56 H 0.84066 0.8198 0.24074 0.0
N57 N 0.77529 0.84851 0.29945 0.0
N58 N 0.76382 0.89768 0.32465 0.0
C59 C 0.76113 0.86499 0.32897 0.0
C60 C 0.78717 0.87155 0.27525 0.0
C61 C 0.78026 0.90198 0.29088 0.0
C62 C 0.71972 0.79776 0.26526 0.0
O63 O 0.73267 0.82302 0.24739 0.0
H64 H 0.75064 0.85311 0.35423 0.0
H65 H 0.80081 0.86661 0.24888 0.0
O66 O 0.80567 0.79194 0.3452 0.0
H67 H 0.85566 0.77586 0.18618 0.0
H68 H 0.78741 0.92538 0.27882 0.0
Cu69 Cu 0.27614 0.80431 0.26484 0.0
N70 N 0.29922 0.8275 0.2263 0.0
N71 N 0.33895 0.83668 0.18229 0.0
C72 C 0.32381 0.81438 0.20519 0.0
C73 C 0.32305 0.86512 0.18936 0.0
C74 C 0.29858 0.85939 0.21651 0.0
O75 O 0.2728 0.75917 0.24627 0.0
C76 C 0.31992 0.83096 0.32191 0.0
O77 O 0.33742 0.84129 0.29227 0.0
H78 H 0.33137 0.7891 0.20811 0.0
H79 H 0.28236 0.87744 0.22922 0.0
N80 N 0.23289 0.81812 0.27276 0.0
N81 N 0.18314 0.81855 0.30046 0.0
C82 C 0.2127 0.80378 0.29873 0.0
C83 C 0.21555 0.84284 0.25721 0.0
C84 C 0.18485 0.84324 0.27437 0.0
C85 C 0.25296 0.75564 0.2179 0.0
O86 O 0.23772 0.78163 0.20454 0.0
H87 H 0.22008 0.7835 0.31699 0.0
H88 H 0.22459 0.85955 0.23531 0.0
O89 O 0.29619 0.81128 0.31586 0.0
H90 H 0.32887 0.8885 0.1763 0.0
H91 H 0.1654 0.86051 0.26826 0.0
Cu92 Cu 0.31532 0.78333 0.77748 0.0
N93 N 0.36061 0.7754 0.77449 0.0
N94 N 0.41142 0.76786 0.79715 0.0
C95 C 0.37936 0.77029 0.80612 0.0
C96 C 0.4131 0.77189 0.75821 0.0
C97 C 0.38159 0.77628 0.74421 0.0
O98 O 0.30114 0.76002 0.82441 0.0
C99 C 0.32963 0.85153 0.7706 0.0
O100 O 0.35969 0.84356 0.78035 0.0
H101 H 0.36979 0.76995 0.83552 0.0
H102 H 0.37462 0.78095 0.7144 0.0
N103 N 0.2915 0.76785 0.73487 0.0
N104 N 0.25089 0.76696 0.69115 0.0
C105 C 0.26437 0.78293 0.72148 0.0
C106 C 0.29558 0.74136 0.71211 0.0
C107 C 0.27043 0.74067 0.68519 0.0
C108 C 0.31101 0.73034 0.82616 0.0
O109 O 0.32622 0.71777 0.79589 0.0
H110 H 0.25423 0.80486 0.7345 0.0
H111 H 0.31524 0.72375 0.71499 0.0
O112 O 0.3069 0.83045 0.77478 0.0
H113 H 0.4355 0.77231 0.74126 0.0
H114 H 0.26692 0.72231 0.66288 0.0
Cu115 Cu 0.28753 0.27454 0.79371 0.0
N116 N 0.2893 0.32011 0.80138 0.0
N117 N 0.28391 0.36772 0.83293 0.0
C118 C 0.28345 0.3348 0.8358 0.0
C119 C 0.29057 0.37418 0.79528 0.0
C120 C 0.29417 0.3447 0.77589 0.0
O121 O 0.31024 0.25477 0.83808 0.0
C122 C 0.22815 0.27922 0.75845 0.0
O123 O 0.24537 0.30202 0.74102 0.0
H124 H 0.27852 0.32154 0.86243 0.0
H125 H 0.29952 0.34146 0.7453 0.0
N126 N 0.30879 0.25976 0.74868 0.0
N127 N 0.32043 0.22422 0.70103 0.0
C128 C 0.30046 0.23156 0.73114 0.0
C129 C 0.33503 0.27095 0.72891 0.0
C130 C 0.34238 0.2489 0.6995 0.0
C131 C 0.33966 0.265 0.84122 0.0
O132 O 0.35035 0.2861 0.81532 0.0
H133 H 0.28062 0.21614 0.7412 0.0
H134 H 0.34823 0.29314 0.73576 0.0
O135 O 0.24158 0.26256 0.78547 0.0
H136 H 0.29326 0.3984 0.78293 0.0
H137 H 0.36224 0.25087 0.67868 0.0
Cu138 Cu 0.7572 0.32276 0.7718 0.0
N139 N 0.7779 0.34444 0.73043 0.0
N140 N 0.81794 0.35651 0.68788 0.0
C141 C 0.80749 0.33587 0.71604 0.0
C142 C 0.79375 0.37898 0.6845 0.0
C143 C 0.76915 0.3715 0.71076 0.0
O144 O 0.76151 0.27591 0.76112 0.0
C145 C 0.76856 0.36761 0.82834 0.0
O146 O 0.75192 0.38449 0.80257 0.0
H147 H 0.82149 0.31539 0.72706 0.0
H148 H 0.74686 0.38524 0.71565 0.0
N149 N 0.71258 0.33237 0.77915 0.0
N150 N 0.66691 0.33797 0.81499 0.0
C151 C 0.69777 0.32611 0.81333 0.0
C152 C 0.6903 0.34882 0.75796 0.0
C153 C 0.66203 0.35231 0.78006 0.0
C154 C 0.74115 0.26355 0.73712 0.0
O155 O 0.71785 0.2823 0.7231 0.0
H156 H 0.71027 0.31437 0.83727 0.0
H157 H 0.69447 0.35826 0.72901 0.0
O158 O 0.77678 0.33822 0.82021 0.0
H159 H 0.79375 0.39948 0.66459 0.0
H160 H 0.63979 0.36461 0.77115 0.0
Cu161 Cu 0.7933 0.77675 0.77833 0.0
N162 N 0.78144 0.7328 0.78607 0.0
N163 N 0.77903 0.68459 0.81682 0.0
C164 C 0.79142 0.71518 0.81699 0.0
C165 C 0.76054 0.68281 0.78441 0.0
C166 C 0.76224 0.71251 0.76535 0.0
O167 O 0.77963 0.7989 0.82634 0.0
C168 C 0.84645 0.75682 0.73581 0.0
O169 O 0.82265 0.7391 0.72118 0.0
H170 H 0.80678 0.72501 0.83978 0.0
H171 H 0.75038 0.71864 0.7383 0.0
N172 N 0.77192 0.79847 0.73756 0.0
N173 N 0.76006 0.83993 0.69717 0.0
C174 C 0.78087 0.82827 0.72438 0.0
C175 C 0.74446 0.7909 0.71802 0.0
C176 C 0.73717 0.8163 0.69305 0.0
C177 C 0.74893 0.79569 0.83282 0.0
O178 O 0.73113 0.77937 0.8077 0.0
H179 H 0.80157 0.84164 0.73585 0.0
H180 H 0.72999 0.76912 0.72245 0.0
O181 O 0.83972 0.77643 0.76374 0.0
H182 H 0.74685 0.66154 0.7751 0.0
H183 H 0.7163 0.81735 0.67376 0.0
C184 C 0.99045 0.32213 0.58399 0.0
C185 C 0.09263 0.33214 0.50859 0.0
O186 O 1.00339 0.34786 0.57 0.0
Zn187 Zn 0.04197 0.32759 0.54698 0.0
O188 O 1.00517 0.29457 0.57938 0.0
Zn189 Zn 0.04956 0.27642 0.55195 0.0
O190 O 0.07443 0.25864 0.59548 0.0
O191 O 0.07024 0.31242 0.59651 0.0
O192 O 0.08695 0.30257 0.51935 0.0
O193 O 0.07267 0.35464 0.51836 0.0
O194 O 0.02156 0.29876 0.50087 0.0
O195 O 0.0323 0.24682 0.51251 0.0
C196 C 0.08094 0.28581 0.61176 0.0
C197 C 0.01955 0.2686 0.49086 0.0
C198 C 0.74317 0.10384 0.6045 0.0
C199 C 0.75645 0.03119 0.49145 0.0
O200 O 0.773 0.09537 0.59839 0.0
Zn201 Zn 0.79964 0.06445 0.55916 0.0
O202 O 0.72069 0.09159 0.58349 0.0
Zn203 Zn 0.74802 0.06522 0.54921 0.0
O204 O 0.76427 0.02546 0.58474 0.0
O205 O 0.81769 0.0296 0.59167 0.0
O206 O 0.72924 0.04118 0.50533 0.0
O207 O 0.78323 0.03822 0.50891 0.0
O208 O 0.82804 0.09596 0.53356 0.0
O209 O 0.77575 0.10225 0.51887 0.0
C210 C 0.79119 0.01426 0.59851 0.0
C211 C 0.80571 0.11121 0.51508 0.0
C212 C 0.9918 0.74127 0.5829 0.0
C213 C 0.06122 0.75779 0.466 0.0
O214 O 1.00228 0.77046 0.57771 0.0
Zn215 Zn 0.03156 0.79798 0.5384 0.0
O216 O 1.00014 0.71884 0.55898 0.0
Zn217 Zn 0.02685 0.74594 0.52404 0.0
O218 O 0.06718 0.75775 0.55962 0.0
O219 O 0.06956 0.81067 0.5714 0.0
O220 O 0.04957 0.73024 0.47668 0.0
O221 O 0.05569 0.78319 0.48677 0.0
O222 O 0.99812 0.82777 0.51627 0.0
O223 O 0.98985 0.77615 0.50034 0.0
C224 C 0.08155 0.78203 0.57569 0.0
C225 C 0.98093 0.80613 0.49896 0.0
C226 C 0.3367 0.06097 0.57529 0.0
C227 C 0.33774 0.96544 0.48823 0.0
O228 O 0.36168 0.04713 0.56023 0.0
Zn229 Zn 0.33808 0.01279 0.53319 0.0
O230 O 0.30812 0.04888 0.56923 0.0
Zn231 Zn 0.28635 1.00875 0.53728 0.0
O232 O 0.26684 0.9822 0.57822 0.0
O233 O 0.3208 0.98315 0.58096 0.0
O234 O 0.30884 0.97276 0.50016 0.0
O235 O 0.36192 0.98232 0.49992 0.0
O236 O 0.31103 0.04187 0.49204 0.0
O237 O 0.25836 0.03267 0.50115 0.0
C238 C 0.29323 0.97348 0.59487 0.0
C239 C 0.2811 0.04751 0.48291 0.0
C240 C 0.50773 0.82752 0.06464 0.0
C241 C 0.61236 0.80605 0.99553 0.0
O242 O 0.52569 0.84894 0.04811 0.0
Zn243 Zn 0.56043 0.81904 0.03006 0.0
O244 O 0.51699 0.79754 0.06467 0.0
Zn245 Zn 0.55638 0.7676 0.0439 0.0
O246 O 0.57612 0.75133 0.09253 0.0
O247 O 0.58142 0.8046 0.08419 0.0
O248 O 0.59861 0.78074 1.01039 0.0
O249 O 0.59884 0.83394 0.99995 0.0
O250 O 0.53469 0.79031 0.988 0.0
O251 O 0.53238 0.73906 1.00818 0.0
C252 C 0.58602 0.77896 0.10496 0.0
C253 C 0.52539 0.76068 0.98282 0.0
C254 C 0.26346 0.59349 0.09006 0.0
C255 C 0.25842 0.51366 0.98228 0.0
O256 O 0.29104 0.58106 0.08002 0.0
Zn257 Zn 0.31088 0.54776 0.0386 0.0
O258 O 0.23759 0.5853 0.07179 0.0
Zn259 Zn 0.25823 0.55483 0.03501 0.0
O260 O 0.27411 0.51622 0.07252 0.0
O261 O 0.32814 0.51322 0.07248 0.0
O262 O 0.23409 0.53019 0.99489 0.0
O263 O 0.28693 0.51854 0.99647 0.0
O264 O 0.33843 0.57627 1.006 0.0
O265 O 0.28586 0.58768 1.00042 0.0
C266 C 0.30052 0.50248 0.08436 0.0
C267 C 0.31567 0.59374 0.99144 0.0
C268 C 0.56194 0.29774 1.00451 0.0
C269 C 0.48633 0.27844 0.11476 0.0
O270 O 0.54944 0.32019 1.02571 0.0
Zn271 Zn 0.52419 0.29056 0.05955 0.0
O272 O 0.55448 0.26773 1.01074 0.0
Zn273 Zn 0.52475 0.2384 0.04846 0.0
O274 O 0.49244 0.2201 1.01198 0.0
O275 O 0.48949 0.27384 1.01778 0.0
O276 O 0.49537 0.25269 0.09637 0.0
O277 O 0.49685 0.30618 0.10347 0.0
O278 O 0.5635 0.264 0.08678 0.0
O279 O 0.55865 0.21151 0.07274 0.0
C280 C 0.47956 0.24722 1.00208 0.0
C281 C 0.57427 0.23455 0.08941 0.0
C282 C 0.78611 0.57867 0.10059 0.0
C283 C 0.77247 0.48516 1.01179 0.0
O284 O 0.81319 0.56803 0.08641 0.0
Zn285 Zn 0.82975 0.52953 0.04888 0.0
O286 O 0.75969 0.56354 0.09288 0.0
Zn287 Zn 0.77805 0.5302 0.05843 0.0
O288 O 0.80403 0.49767 0.09623 0.0
O289 O 0.85653 0.50162 0.08196 0.0
O290 O 0.74991 0.49987 0.03066 0.0
O291 O 0.80238 0.49388 1.01639 0.0
O292 O 0.849 0.5552 1.00651 0.0
O293 O 0.79512 0.559 1.01034 0.0
C294 C 0.83373 0.48875 0.10211 0.0
C295 C 0.82211 0.56656 0.99345 0.0
H296 H 0.19448 0.37399 0.37905 0.0
H297 H 0.24181 0.28537 0.41796 0.0
H298 H 0.20056 0.27899 0.46893 0.0
H299 H 0.14804 0.29565 0.49858 0.0
H300 H 0.10136 0.38489 0.46083 0.0
H301 H 0.14529 0.39392 0.41354 0.0
C302 C 0.19612 0.35356 0.39907 0.0
C303 C 0.22117 0.33007 0.3943 0.0
C304 C 0.17213 0.3499 0.42833 0.0
C305 C 0.22293 0.30389 0.4208 0.0
C306 C 0.19915 0.30006 0.44987 0.0
C307 C 0.14762 0.31723 0.48024 0.0
C308 C 0.12118 0.33935 0.48298 0.0
C309 C 0.17315 0.32242 0.45325 0.0
C310 C 0.12132 0.36742 0.45934 0.0
C311 C 0.14642 0.37257 0.43217 0.0
H312 H 0.8551 0.1939 0.37258 0.0
H313 H 0.75615 0.23061 0.37787 0.0
H314 H 0.74672 0.19994 0.43837 0.0
H315 H 0.76505 0.15764 0.48501 0.0
H316 H 0.86468 0.12218 0.47967 0.0
H317 H 0.87566 0.15784 0.42414 0.0
C318 C 0.83163 0.19559 0.38741 0.0
C319 C 0.80617 0.21409 0.37077 0.0
C320 C 0.82654 0.17796 0.4219 0.0
C321 C 0.77605 0.21655 0.3903 0.0
C322 C 0.77065 0.19882 0.42466 0.0
C323 C 0.78931 0.15808 0.47205 0.0
C324 C 0.8139 0.13689 0.48615 0.0
C325 C 0.79544 0.17867 0.44004 0.0
C326 C 0.84532 0.13812 0.4694 0.0
C327 C 0.85156 0.15838 0.43749 0.0
H328 H 0.87319 0.85451 0.38067 0.0
H329 H 0.83959 0.75525 0.39616 0.0
H330 H 0.88185 0.74637 0.4456 0.0
H331 H 0.93096 0.76547 0.48023 0.0
H332 H 0.96424 0.86489 0.46533 0.0
H333 H 0.9191 0.87522 0.42001 0.0
C334 C 0.87491 0.83095 0.39505 0.0
C335 C 0.85346 0.80538 0.38432 0.0
C336 C 0.89924 0.82609 0.42339 0.0
C337 C 0.85574 0.77527 0.40375 0.0
C338 C 0.88001 0.77018 0.43189 0.0
C339 C 0.92823 0.78954 0.46734 0.0
C340 C 0.95127 0.81432 0.47584 0.0
C341 C 0.9023 0.7952 0.44131 0.0
C342 C 0.94696 0.84544 0.45935 0.0
C343 C 0.92125 0.85125 0.43326 0.0
H344 H 0.36841 0.87219 0.34607 0.0
H345 H 0.27649 0.82985 0.38278 0.0
H346 H 0.27489 0.86655 0.43876 0.0
H347 H 0.29663 0.91449 0.47358 0.0
H348 H 0.38898 0.95625 0.43786 0.0
H349 H 0.39336 0.91598 0.38542 0.0
C350 C 0.3483 0.87056 0.36667 0.0
C351 C 0.32246 0.8484 0.35983 0.0
C352 C 0.34736 0.89198 0.39879 0.0
C353 C 0.29674 0.84656 0.38712 0.0
C354 C 0.29566 0.86777 0.41908 0.0
C355 C 0.31788 0.9146 0.45455 0.0
C356 C 0.34224 0.93867 0.45937 0.0
C357 C 0.32034 0.89121 0.42457 0.0
C358 C 0.36984 0.9381 0.43479 0.0
C359 C 0.37231 0.91511 0.40469 0.0
H360 H 0.20785 0.72566 0.65821 0.0
H361 H 0.22643 0.82797 0.67874 0.0
H362 H 0.17533 0.84245 0.64568 0.0
H363 H 0.12491 0.82569 0.61004 0.0
H364 H 0.10766 0.72251 0.59134 0.0
H365 H 0.15823 0.70906 0.62419 0.0
C366 C 0.20091 0.75114 0.65515 0.0
C367 C 0.22108 0.7756 0.67085 0.0
C368 C 0.17142 0.75926 0.63639 0.0
C369 C 0.21128 0.80854 0.66721 0.0
C370 C 0.18205 0.81687 0.64817 0.0
C371 C 0.13217 0.80031 0.61333 0.0
C372 C 0.11223 0.77532 0.59789 0.0
C373 C 0.16177 0.7924 0.63262 0.0
C374 C 0.12226 0.7425 0.60258 0.0
C375 C 0.15137 0.7346 0.62144 0.0
H376 H 0.37081 0.19104 0.66782 0.0
H377 H 0.26558 0.19232 0.67996 0.0
H378 H 0.26156 0.14173 0.6427 0.0
H379 H 0.28762 0.09679 0.60753 0.0
H380 H 0.39284 0.09443 0.59459 0.0
H381 H 0.39718 0.14567 0.63122 0.0
C382 C 0.34704 0.18037 0.66191 0.0
C383 C 0.31854 0.19539 0.67685 0.0
C384 C 0.3449 0.15097 0.64055 0.0
C385 C 0.2879 0.18106 0.6693 0.0
C386 C 0.28557 0.15216 0.64788 0.0
C387 C 0.31159 0.10734 0.61273 0.0
C388 C 0.33987 0.0916 0.59837 0.0
C389 C 0.31388 0.13676 0.63365 0.0
C390 C 0.37064 0.10588 0.60537 0.0
C391 C 0.37314 0.13526 0.62626 0.0
H392 H 0.85674 0.30359 0.67553 0.0
H393 H 0.8497 0.4073 0.65334 0.0
H394 H 0.9022 0.40593 0.61923 0.0
H395 H 0.95073 0.37543 0.59608 0.0
H396 H 0.95776 0.27178 0.61906 0.0
H397 H 0.90512 0.27322 0.6528 0.0
C398 C 0.86672 0.326 0.66358 0.0
C399 C 0.84899 0.35551 0.66722 0.0
C400 C 0.89717 0.32511 0.64413 0.0
C401 C 0.86235 0.38412 0.65075 0.0
C402 C 0.8926 0.38341 0.63137 0.0
C403 C 0.94081 0.35315 0.60852 0.0
C404 C 0.95842 0.32355 0.60496 0.0
C405 C 0.91029 0.35406 0.62792 0.0
C406 C 0.94495 0.29495 0.62126 0.0
C407 C 0.91474 0.29571 0.6406 0.0
H408 H 0.81291 0.87928 0.68597 0.0
H409 H 0.7086 0.87307 0.66657 0.0
H410 H 0.70921 0.92644 0.6353 0.0
H411 H 0.73896 0.97485 0.61304 0.0
H412 H 0.84319 0.9821 0.63214 0.0
H413 H 0.8428 0.92873 0.66454 0.0
C414 C 0.79025 0.88966 0.67523 0.0
C415 C 0.76077 0.87178 0.67862 0.0
C416 C 0.79068 0.92073 0.65733 0.0
C417 C 0.73177 0.88571 0.66394 0.0
C418 C 0.73202 0.91648 0.64624 0.0
C419 C 0.76165 0.96495 0.62444 0.0
C420 C 0.79107 0.98266 0.62012 0.0
C421 C 0.7613 0.93417 0.6427 0.0
C422 C 0.82016 0.96916 0.63505 0.0
C423 C 0.81996 0.93856 0.65352 0.0
H424 H 0.8697 0.70913 0.68849 0.0
H425 H 0.89626 0.80198 0.73919 0.0
H426 H 0.94581 0.80343 0.69872 0.0
H427 H 0.97806 0.78113 0.64416 0.0
H428 H 0.95075 0.68872 0.59275 0.0
H429 H 0.90509 0.68409 0.63875 0.0
C430 C 0.88651 0.72956 0.69108 0.0
C431 C 0.87905 0.75566 0.71653 0.0
C432 C 0.91466 0.73035 0.66743 0.0
C433 C 0.90135 0.78164 0.71988 0.0
C434 C 0.92958 0.78253 0.69655 0.0
C435 C 0.96239 0.75972 0.64327 0.0
C436 C 0.96765 0.73545 0.61462 0.0
C437 C 0.93596 0.75746 0.66948 0.0
C438 C 0.94732 0.70774 0.61434 0.0
C439 C 0.92107 0.7052 0.64052 0.0
H440 H 0.27561 0.86678 0.72672 0.0
H441 H 0.37229 0.90142 0.75647 0.0
H442 H 0.36891 0.94293 0.70578 0.0
H443 H 0.3409 0.96617 0.64911 0.0
H444 H 0.24412 0.93241 0.61911 0.0
H445 H 0.2452 0.89387 0.67363 0.0
C446 C 0.29568 0.88383 0.72272 0.0
C447 C 0.3243 0.88068 0.74539 0.0
C448 C 0.2938 0.90752 0.69297 0.0
C449 C 0.35003 0.90305 0.7395 0.0
C450 C 0.34821 0.92676 0.71029 0.0
C451 C 0.31994 0.95052 0.6546 0.0
C452 C 0.29264 0.95192 0.62971 0.0
C453 C 0.32064 0.92861 0.68615 0.0
C454 C 0.26549 0.9318 0.63769 0.0
C455 C 0.26612 0.90971 0.66888 0.0
H456 H 0.18205 0.32321 0.74155 0.0
H457 H 0.20225 0.21984 0.73746 0.0
H458 H 0.15557 0.21175 0.69343 0.0
H459 H 0.11418 0.23594 0.64874 0.0
H460 H 0.09607 0.34012 0.65346 0.0
H461 H 0.13652 0.34595 0.70459 0.0
C462 C 0.17553 0.29875 0.73195 0.0
C463 C 0.1953 0.27215 0.74274 0.0
C464 C 0.14941 0.29457 0.70606 0.0
C465 C 0.18695 0.24059 0.73002 0.0
C466 C 0.16058 0.2361 0.70438 0.0
C467 C 0.11873 0.25981 0.66139 0.0
C468 C 0.10241 0.28763 0.64659 0.0
C469 C 0.14241 0.26315 0.691 0.0
C470 C 0.10848 0.31832 0.66368 0.0
C471 C 0.13164 0.32174 0.69307 0.0
H472 H 0.69586 0.22768 0.69863 0.0
H473 H 0.7958 0.22427 0.73901 0.0
H474 H 0.80441 0.17274 0.70393 0.0
H475 H 0.78496 0.13164 0.6568 0.0
H476 H 0.68493 0.13566 0.61642 0.0
H477 H 0.67491 0.18384 0.65681 0.0
C478 C 0.71946 0.2155 0.70016 0.0
C479 C 0.74527 0.23003 0.72112 0.0
C480 C 0.72426 0.18609 0.6797 0.0
C481 C 0.77553 0.21367 0.72314 0.0
C482 C 0.7805 0.18429 0.70288 0.0
C483 C 0.76082 0.14278 0.65716 0.0
C484 C 0.73582 0.13014 0.63318 0.0
C485 C 0.75527 0.17071 0.6803 0.0
C486 C 0.70466 0.14482 0.63439 0.0
C487 C 0.69893 0.17249 0.6574 0.0
H488 H 0.94132 0.21232 0.34631 0.0
H489 H 0.93235 0.31546 0.32262 0.0
H490 H 0.96662 0.32817 0.37877 0.0
H491 H 0.99595 0.31034 0.4366 0.0
H492 H 1.00435 0.20736 0.46265 0.0
H493 H 0.97361 0.19411 0.40357 0.0
C494 C 0.94752 0.23747 0.35312 0.0
C495 C 0.93449 0.263 0.33039 0.0
C496 C 0.96673 0.2446 0.38608 0.0
C497 C 0.94212 0.29553 0.33982 0.0
C498 C 0.9616 0.30277 0.37193 0.0
C499 C 0.99122 0.28492 0.42943 0.0
C500 C 1.00227 0.2599 0.4543 0.0
C501 C 0.97347 0.27755 0.39568 0.0
C502 C 0.99606 0.22714 0.44416 0.0
C503 C 0.97847 0.21955 0.41036 0.0
H504 H 0.79684 0.95274 0.34138 0.0
H505 H 0.71109 0.89712 0.37247 0.0
H506 H 0.6988 0.93569 0.42513 0.0
H507 H 0.71504 0.98324 0.46558 0.0
H508 H 0.80315 0.036 0.43619 0.0
H509 H 0.81163 1.00113 0.37946 0.0
C510 C 0.77514 0.94944 0.35921 0.0
C511 C 0.75491 0.92215 0.35304 0.0
C512 C 0.76872 0.97124 0.38993 0.0
C513 C 0.72717 0.91783 0.37689 0.0
C514 C 0.72012 0.93991 0.40694 0.0
C515 C 0.73572 0.98733 0.4463 0.0
C516 C 0.75843 0.0121 0.45499 0.0
C517 C 0.74107 0.96641 0.41425 0.0
C518 C 0.78543 0.01694 0.43015 0.0
C519 C 0.79033 0.99701 0.39772 0.0
H520 H 0.16712 0.75944 0.33089 0.0
H521 H 0.13971 0.86148 0.33097 0.0
H522 H 0.09784 0.85072 0.38 0.0
H523 H 0.07152 0.81347 0.42582 0.0
H524 H 0.09798 0.71124 0.42719 0.0
H525 H 0.13754 0.72082 0.37437 0.0
C526 C 0.15194 0.77928 0.34163 0.0
C527 C 0.15679 0.81134 0.32734 0.0
C528 C 0.12779 0.77288 0.37008 0.0
C529 C 0.13645 0.83662 0.34109 0.0
C530 C 0.11258 0.8305 0.36935 0.0
C531 C 0.08575 0.79313 0.41445 0.0
C532 C 0.08203 0.7617 0.43075 0.0
C533 C 0.1084 0.79889 0.38444 0.0
C534 C 0.10033 0.73563 0.41518 0.0
C535 C 0.12309 0.74118 0.38515 0.0
H536 H 0.22847 0.15105 0.36038 0.0
H537 H 0.32916 0.18235 0.36687 0.0
H538 H 0.34131 0.13802 0.41221 0.0
H539 H 0.32325 0.09136 0.45116 0.0
H540 H 0.22217 0.06062 0.44745 0.0
H541 H 0.21027 0.10351 0.39971 0.0
C542 C 0.2531 0.1479 0.37146 0.0
C543 C 0.2779 0.17002 0.36026 0.0
C544 C 0.25982 0.12251 0.39806 0.0
C545 C 0.30961 0.16592 0.37532 0.0
C546 C 0.31658 0.14049 0.40114 0.0
C547 C 0.29861 0.09379 0.43978 0.0
C548 C 0.27367 0.07261 0.45285 0.0
C549 C 0.29186 0.11879 0.41291 0.0
C550 C 0.24185 0.07651 0.43795 0.0
C551 C 0.23503 0.10107 0.41064 0.0
H552 H 0.72898 0.75649 0.89018 0.0
H553 H 0.72993 0.8573 0.8543 0.0
H554 H 0.68867 0.87069 0.90415 0.0
H555 H 0.64709 0.85167 0.95241 0.0
H556 H 0.64681 0.74976 0.98598 0.0
H557 H 0.69284 0.739 0.94304 0.0
C558 C 0.72099 0.78162 0.89434 0.0
C559 C 0.73287 0.80602 0.86932 0.0
C560 C 0.69673 0.78879 0.92217 0.0
C561 C 0.72172 0.83831 0.87402 0.0
C562 C 0.69776 0.84581 0.90212 0.0
C563 C 0.6574 0.82724 0.95071 0.0
C564 C 0.64293 0.80153 0.97215 0.0
C565 C 0.68422 0.82098 0.92553 0.0
C566 C 0.65691 0.77005 0.96963 0.0
C567 C 0.68342 0.76377 0.94504 0.0
H568 H 0.35446 0.68519 0.8509 0.0
H569 H 0.26299 0.73128 0.88229 0.0
H570 H 0.2575 0.69401 0.93795 0.0
H571 H 0.27688 0.64579 0.97443 0.0
H572 H 0.36937 0.60105 0.9441 0.0
H573 H 0.37657 0.64072 0.89136 0.0
C574 C 0.33335 0.68716 0.87004 0.0
C575 C 0.30881 0.71056 0.86218 0.0
C576 C 0.33062 0.66593 0.90202 0.0
C577 C 0.28206 0.71339 0.88768 0.0
C578 C 0.27891 0.69201 0.91936 0.0
C579 C 0.29878 0.64486 0.95647 0.0
C580 C 0.32241 0.62017 0.96288 0.0
C581 C 0.30274 0.6678 0.92633 0.0
C582 C 0.35084 0.61969 0.93979 0.0
C583 C 0.35485 0.64227 0.90951 0.0
H584 H 0.40018 0.28823 0.85448 0.0
H585 H 0.3296 0.21979 0.9004 0.0
H586 H 0.36764 0.20583 0.95332 0.0
H587 H 0.42101 0.21517 0.98793 0.0
H588 H 0.48845 0.28632 0.94105 0.0
H589 H 0.45174 0.29682 0.88689 0.0
C590 C 0.39291 0.2701 0.87585 0.0
C591 C 0.36195 0.25513 0.87337 0.0
C592 C 0.41456 0.26262 0.90607 0.0
C593 C 0.35323 0.23177 0.9016 0.0
C594 C 0.37502 0.22378 0.93184 0.0
C595 C 0.42765 0.23258 0.96548 0.0
C596 C 0.45743 0.2499 0.96829 0.0
C597 C 0.40578 0.23924 0.93456 0.0
C598 C 0.46565 0.27277 0.93945 0.0
C599 C 0.44467 0.27884 0.90851 0.0
H600 H 0.72442 0.40255 0.86861 0.0
H601 H 0.82305 0.36516 0.87495 0.0
H602 H 0.83225 0.39676 0.93482 0.0
H603 H 0.81353 0.43915 0.9813 0.0
H604 H 0.71409 0.47497 0.97517 0.0
H605 H 0.70368 0.43944 0.91938 0.0
C606 C 0.74784 0.40108 0.88339 0.0
C607 C 0.77325 0.38205 0.86728 0.0
C608 C 0.75274 0.41909 0.9176 0.0
C609 C 0.80323 0.37973 0.8869 0.0
C610 C 0.80847 0.39792 0.92093 0.0
C611 C 0.78945 0.43888 0.96804 0.0
C612 C 0.76471 0.46004 0.98208 0.0
C613 C 0.78364 0.41833 0.93596 0.0
C614 C 0.73354 0.45903 0.96495 0.0
C615 C 0.72763 0.43884 0.93291 0.0
H616 H 0.70631 0.18847 0.17012 0.0
H617 H 0.72119 0.29309 0.17274 0.0
H618 H 0.66816 0.3016 0.14241 0.0
H619 H 0.61769 0.27991 0.11476 0.0
H620 H 0.60251 0.17553 0.10908 0.0
H621 H 0.65554 0.16644 0.14068 0.0
C622 C 0.69815 0.21311 0.16378 0.0
C623 C 0.71792 0.24008 0.17423 0.0
C624 C 0.66745 0.21795 0.1458 0.0
C625 C 0.70651 0.27183 0.16591 0.0
C626 C 0.67614 0.27678 0.14828 0.0
C627 C 0.62577 0.25509 0.12057 0.0
C628 C 0.60589 0.22845 0.10971 0.0
C629 C 0.65636 0.25008 0.13825 0.0
C630 C 0.61716 0.19652 0.11719 0.0
C631 C 0.64755 0.19132 0.13522 0.0
H632 H 0.76281 0.70865 0.19753 0.0
H633 H 0.86593 0.72019 0.17272 0.0
H634 H 0.86613 0.66842 0.13737 0.0
H635 H 0.83739 0.61961 0.11399 0.0
H636 H 0.7343 0.60759 0.13867 0.0
H637 H 0.73396 0.6595 0.17425 0.0
C638 C 0.78543 0.69977 0.18472 0.0
C639 C 0.81437 0.71849 0.18802 0.0
C640 C 0.78544 0.66973 0.16459 0.0
C641 C 0.84323 0.7067 0.1704 0.0
C642 C 0.84342 0.67689 0.15038 0.0
C643 C 0.81481 0.62816 0.12731 0.0
C644 C 0.78592 0.6095 0.12373 0.0
C645 C 0.81472 0.65816 0.1474 0.0
C646 C 0.75692 0.62128 0.14099 0.0
C647 C 0.7567 0.65104 0.16129 0.0
H648 H 0.38428 0.88129 0.1579 0.0
H649 H 0.35773 0.77921 0.15 0.0
H650 H 0.40709 0.76798 0.1126 0.0
H651 H 0.45864 0.7862 0.08397 0.0
H652 H 0.48574 0.8881 0.08907 0.0
H653 H 0.43509 0.90039 0.12504 0.0
C654 C 0.38903 0.85667 0.14763 0.0
C655 C 0.36726 0.83106 0.15754 0.0
C656 C 0.41764 0.8503 0.1256 0.0
C657 C 0.37417 0.79931 0.14387 0.0
C658 C 0.40241 0.79285 0.12216 0.0
C659 C 0.45356 0.81119 0.09284 0.0
C660 C 0.47621 0.83614 0.0841 0.0
C661 C 0.4245 0.81801 0.11332 0.0
C662 C 0.46882 0.8684 0.0954 0.0
C663 C 0.43987 0.8754 0.11609 0.0
H664 H 0.30832 0.37618 0.19145 0.0
H665 H 0.20322 0.38842 0.18695 0.0
H666 H 0.20978 0.43637 0.14593 0.0
H667 H 0.24471 0.47506 0.11175 0.0
H668 H 0.34992 0.46451 0.11564 0.0
H669 H 0.34389 0.41599 0.15709 0.0
C670 C 0.28684 0.38943 0.18177 0.0
C671 C 0.25525 0.37835 0.19237 0.0
C672 C 0.29078 0.41743 0.15822 0.0
C673 C 0.22778 0.39579 0.17894 0.0
C674 C 0.2315 0.42348 0.15563 0.0
C675 C 0.26648 0.46233 0.12164 0.0
C676 C 0.29778 0.47359 0.11054 0.0
C677 C 0.26282 0.43451 0.14514 0.0
C678 C 0.32554 0.45652 0.12374 0.0
C679 C 0.32208 0.42872 0.1474 0.0
H680 H 0.37972 0.23471 0.23675 0.0
H681 H 0.36942 0.33878 0.25258 0.0
H682 H 0.41573 0.34827 0.20804 0.0
H683 H 0.45565 0.32643 0.15908 0.0
H684 H 0.4641 0.22156 0.14526 0.0
H685 H 0.4223 0.21313 0.1943 0.0
C686 C 0.38801 0.25949 0.23104 0.0
C687 C 0.37119 0.28597 0.24784 0.0
C688 C 0.41415 0.26465 0.20519 0.0
C689 C 0.38224 0.31794 0.24032 0.0
C690 C 0.40848 0.32335 0.21449 0.0
C691 C 0.44857 0.30178 0.16713 0.0
C692 C 0.46286 0.27475 0.1478 0.0
C693 C 0.42411 0.29685 0.19585 0.0
C694 C 0.45344 0.24296 0.159 0.0
C695 C 0.42946 0.23798 0.18724 0.0
H696 H 0.87813 0.3608 0.19008 0.0
H697 H 0.77946 0.36718 0.2349 0.0
H698 H 0.7719 0.41958 0.2014 0.0
H699 H 0.79186 0.46103 0.15477 0.0
H700 H 0.89085 0.45437 0.11063 0.0
H701 H 0.8998 0.40479 0.14879 0.0
C702 C 0.85504 0.3738 0.19288 0.0
C703 C 0.82926 0.3599 0.21467 0.0
C704 C 0.85089 0.4038 0.17348 0.0
C705 C 0.7997 0.3773 0.21837 0.0
C706 C 0.79532 0.40719 0.19902 0.0
C707 C 0.81555 0.44897 0.15381 0.0
C708 C 0.84055 0.46135 0.12945 0.0
C709 C 0.82052 0.42031 0.1758 0.0
C710 C 0.87114 0.44548 0.12897 0.0
C711 C 0.87624 0.41699 0.15069 0.0
H712 H 0.66547 0.83077 0.24747 0.0
H713 H 0.70825 0.73458 0.24172 0.0
H714 H 0.66713 0.71802 0.19347 0.0
H715 H 0.6247 0.73461 0.14486 0.0
H716 H 0.58515 0.83258 0.15043 0.0
H717 H 0.61884 0.8446 0.20672 0.0
C718 C 0.66497 0.80579 0.23672 0.0
C719 C 0.68957 0.78387 0.24828 0.0
C720 C 0.64216 0.79701 0.20815 0.0
C721 C 0.68909 0.75169 0.23382 0.0
C722 C 0.6659 0.74244 0.20571 0.0
C723 C 0.62301 0.75827 0.159 0.0
C724 C 0.60281 0.78285 0.14296 0.0
C725 C 0.64316 0.76539 0.19137 0.0
C726 C 0.60089 0.81342 0.16165 0.0
C727 C 0.62011 0.82035 0.19398 0.0
H728 H 0.2935 0.70211 0.21566 0.0
H729 H 0.20038 0.73818 0.17481 0.0
H730 H 0.19353 0.68965 0.13448 0.0
H731 H 0.21626 0.63931 0.10579 0.0
H732 H 0.31048 0.6043 0.14444 0.0
H733 H 0.31437 0.64947 0.19048 0.0
C734 C 0.27149 0.69902 0.19845 0.0
C735 C 0.24766 0.72386 0.19807 0.0
C736 C 0.26795 0.67123 0.17449 0.0
C737 C 0.21932 0.71958 0.17537 0.0
C738 C 0.21533 0.6918 0.15222 0.0
C739 C 0.23736 0.64128 0.12475 0.0
C740 C 0.26308 0.61855 0.12136 0.0
C741 C 0.23984 0.66781 0.15076 0.0
C742 C 0.29038 0.6216 0.1461 0.0
C743 C 0.29269 0.64749 0.17251 0.0
H744 H 0.41387 0.73022 0.86132 0.0
H745 H 0.46836 0.80124 0.79499 0.0
H746 H 0.51017 0.80346 0.84585 0.0
H747 H 0.52849 0.78887 0.91173 0.0
H748 H 0.4756 0.71607 0.97732 0.0
H749 H 0.43603 0.71051 0.92417 0.0
C750 C 0.43514 0.74587 0.85795 0.0
C751 C 0.43796 0.76579 0.82465 0.0
C752 C 0.4592 0.74676 0.88722 0.0
C753 C 0.46578 0.78564 0.82025 0.0
C754 C 0.48954 0.78704 0.84944 0.0
C755 C 0.50856 0.77143 0.91413 0.0
C756 C 0.50479 0.7531 0.94853 0.0
C757 C 0.48613 0.76825 0.88339 0.0
C758 C 0.47909 0.73035 0.9511 0.0
C759 C 0.45634 0.72736 0.92083 0.0
H760 H 0.24764 0.42313 0.83337 0.0
H761 H 0.31202 0.36376 0.90303 0.0
H762 H 0.30811 0.40314 0.9564 0.0
H763 H 0.2885 0.45542 0.9821 0.0
H764 H 0.22159 0.51435 0.9153 0.0
H765 H 0.22374 0.47406 0.86207 0.0
C766 C 0.26069 0.419 0.86033 0.0
C767 C 0.28036 0.39082 0.86431 0.0
C768 C 0.25768 0.4415 0.8913 0.0
C769 C 0.29677 0.38526 0.89949 0.0
C770 C 0.29456 0.40777 0.9299 0.0
C771 C 0.27409 0.45927 0.95601 0.0
C772 C 0.25507 0.48782 0.95239 0.0
C773 C 0.27534 0.43605 0.926 0.0
C774 C 0.23624 0.49242 0.91875 0.0
C775 C 0.23772 0.46953 0.88826 0.0
H776 H 0.66796 0.29325 0.87231 0.0
H777 H 0.616 0.37885 0.83265 0.0
H778 H 0.57983 0.37594 0.88961 0.0
H779 H 0.5622 0.34778 0.9507 0.0
H780 H 0.6154 0.26211 0.98805 0.0
H781 H 0.65248 0.26707 0.93283 0.0
C782 C 0.64911 0.31166 0.87622 0.0
C783 C 0.64496 0.3363 0.84811 0.0
C784 C 0.62871 0.30999 0.90904 0.0
C785 C 0.61966 0.35937 0.85349 0.0
C786 C 0.5991 0.35787 0.88629 0.0
C787 C 0.58229 0.33065 0.94696 0.0
C788 C 0.58613 0.30466 0.97346 0.0
C789 C 0.60333 0.3332 0.91433 0.0
C790 C 0.6119 0.28226 0.96799 0.0
C791 C 0.63307 0.285 0.93635 0.0
H792 H 0.8332 0.6725 0.85949 0.0
H793 H 0.7336 0.64122 0.84091 0.0
H794 H 0.73874 0.60115 0.89323 0.0
H795 H 0.77062 0.57652 0.94576 0.0
H796 H 0.8709 0.60587 0.96397 0.0
H797 H 0.86657 0.6451 0.91019 0.0
C798 C 0.81268 0.65687 0.86699 0.0
C799 C 0.78297 0.65994 0.84647 0.0
C800 C 0.81595 0.63362 0.897 0.0
C801 C 0.75674 0.63918 0.85603 0.0
C802 C 0.75963 0.61639 0.88608 0.0
C803 C 0.79162 0.59143 0.93795 0.0
C804 C 0.82097 0.58851 0.95911 0.0
C805 C 0.78899 0.61361 0.90695 0.0
C806 C 0.84806 0.60764 0.94816 0.0
C807 C 0.84551 0.63016 0.91753 0.0
loop_
_geom_bond_atom_site_label_1
_geom_bond_atom_site_label_2
_geom_bond_distance
_geom_bond_site_symmetry_2
_ccdc_geom_bond_type
Cu0 N1 1.999 . S
Cu0 O6 1.974 . S
Cu0 N11 1.985 . S
Cu0 O20 1.959 . S
N1 Cu0 1.999 . S
N1 C3 1.263 . S
N1 C5 1.389 . S
N2 C3 1.358 . S
N2 C4 1.400 . S
C3 N1 1.263 . S
C3 N2 1.358 . S
C3 H9 0.930 . S
C4 N2 1.400 . S
C4 C5 1.351 . S
C4 H21 0.930 . S
C5 N1 1.389 . S
C5 C4 1.351 . S
C5 H10 0.930 . S
O6 Cu0 1.974 . S
O6 C16 1.282 . S
C7 O8 1.261 . S
C7 O20 1.251 . S
O8 C7 1.261 . S
H9 C3 0.930 . S
H10 C5 0.930 . S
N11 Cu0 1.985 . S
N11 C13 1.335 . S
N11 C14 1.390 . S
N12 C13 1.345 . S
N12 C15 1.336 . S
C13 N11 1.335 . S
C13 N12 1.345 . S
C13 H18 0.930 . S
C14 N11 1.390 . S
C14 C15 1.346 . S
C14 H19 0.930 . S
C15 N12 1.336 . S
C15 C14 1.346 . S
C15 H22 0.929 . S
C16 O6 1.282 . S
C16 O17 1.216 . S
O17 C16 1.216 . S
H18 C13 0.930 . S
H19 C14 0.930 . S
O20 Cu0 1.959 . S
O20 C7 1.251 . S
H21 C4 0.930 . S
H22 C15 0.929 . S
Cu23 N24 1.999 . S
Cu23 O29 1.974 . S
Cu23 N34 1.985 . S
Cu23 O43 1.959 . S
N24 Cu23 1.999 . S
N24 C26 1.263 . S
N24 C28 1.389 . S
N25 C26 1.358 . S
N25 C27 1.400 . S
C26 N24 1.263 . S
C26 N25 1.358 . S
C26 H32 0.930 . S
C27 N25 1.400 . S
C27 C28 1.351 . S
C27 H44 0.930 . S
C28 N24 1.389 . S
C28 C27 1.351 . S
C28 H33 0.930 . S
O29 Cu23 1.974 . S
O29 C39 1.282 . S
C30 O31 1.261 . S
C30 O43 1.251 . S
O31 C30 1.261 . S
H32 C26 0.930 . S
H33 C28 0.930 . S
N34 Cu23 1.985 . S
N34 C36 1.335 . S
N34 C37 1.390 . S
N35 C36 1.345 . S
N35 C38 1.336 . S
C36 N34 1.335 . S
C36 N35 1.345 . S
C36 H41 0.930 . S
C37 N34 1.390 . S
C37 C38 1.346 . S
C37 H42 0.930 . S
C38 N35 1.336 . S
C38 C37 1.346 . S
C38 H45 0.929 . S
C39 O29 1.282 . S
C39 O40 1.216 . S
O40 C39 1.216 . S
H41 C36 0.930 . S
H42 C37 0.930 . S
O43 Cu23 1.959 . S
O43 C30 1.251 . S
H44 C27 0.930 . S
H45 C38 0.929 . S
Cu46 N47 1.999 . S
Cu46 O52 1.974 . S
Cu46 N57 1.985 . S
Cu46 O66 1.959 . S
N47 Cu46 1.999 . S
N47 C49 1.263 . S
N47 C51 1.389 . S
N48 C49 1.358 . S
N48 C50 1.400 . S
C49 N47 1.263 . S
C49 N48 1.358 . S
C49 H55 0.930 . S
C50 N48 1.400 . S
C50 C51 1.351 . S
C50 H67 0.930 . S
C51 N47 1.389 . S
C51 C50 1.351 . S
C51 H56 0.930 . S
O52 Cu46 1.974 . S
O52 C62 1.282 . S
C53 O54 1.261 . S
C53 O66 1.251 . S
O54 C53 1.261 . S
H55 C49 0.930 . S
H56 C51 0.930 . S
N57 Cu46 1.985 . S
N57 C59 1.335 . S
N57 C60 1.390 . S
N58 C59 1.345 . S
N58 C61 1.336 . S
C59 N57 1.335 . S
C59 N58 1.345 . S
C59 H64 0.930 . S
C60 N57 1.390 . S
C60 C61 1.346 . S
C60 H65 0.930 . S
C61 N58 1.336 . S
C61 C60 1.346 . S
C61 H68 0.929 . S
C62 O52 1.282 . S
C62 O63 1.216 . S
O63 C62 1.216 . S
H64 C59 0.930 . S
H65 C60 0.930 . S
O66 Cu46 1.959 . S
O66 C53 1.251 . S
H67 C50 0.930 . S
H68 C61 0.929 . S
Cu69 N70 1.999 . S
Cu69 O75 1.974 . S
Cu69 N80 1.985 . S
Cu69 O89 1.959 . S
N70 Cu69 1.999 . S
N70 C72 1.263 . S
N70 C74 1.389 . S
N71 C72 1.358 . S
N71 C73 1.400 . S
C72 N70 1.263 . S
C72 N71 1.358 . S
C72 H78 0.930 . S
C73 N71 1.400 . S
C73 C74 1.351 . S
C73 H90 0.930 . S
C74 N70 1.389 . S
C74 C73 1.351 . S
C74 H79 0.930 . S
O75 Cu69 1.974 . S
O75 C85 1.282 . S
C76 O77 1.261 . S
C76 O89 1.251 . S
O77 C76 1.261 . S
H78 C72 0.930 . S
H79 C74 0.930 . S
N80 Cu69 1.985 . S
N80 C82 1.335 . S
N80 C83 1.390 . S
N81 C82 1.345 . S
N81 C84 1.336 . S
C82 N80 1.335 . S
C82 N81 1.345 . S
C82 H87 0.930 . S
C83 N80 1.390 . S
C83 C84 1.346 . S
C83 H88 0.930 . S
C84 N81 1.336 . S
C84 C83 1.346 . S
C84 H91 0.929 . S
C85 O75 1.282 . S
C85 O86 1.216 . S
O86 C85 1.216 . S
H87 C82 0.930 . S
H88 C83 0.930 . S
O89 Cu69 1.959 . S
O89 C76 1.251 . S
H90 C73 0.930 . S
H91 C84 0.929 . S
Cu92 N93 1.999 . S
Cu92 O98 1.974 . S
Cu92 N103 1.985 . S
Cu92 O112 1.959 . S
N93 Cu92 1.999 . S
N93 C95 1.263 . S
N93 C97 1.389 . S
N94 C95 1.358 . S
N94 C96 1.400 . S
C95 N93 1.263 . S
C95 N94 1.358 . S
C95 H101 0.930 . S
C96 N94 1.400 . S
C96 C97 1.351 . S
C96 H113 0.930 . S
C97 N93 1.389 . S
C97 C96 1.351 . S
C97 H102 0.930 . S
O98 Cu92 1.974 . S
O98 C108 1.282 . S
C99 O100 1.261 . S
C99 O112 1.251 . S
O100 C99 1.261 . S
H101 C95 0.930 . S
H102 C97 0.930 . S
N103 Cu92 1.985 . S
N103 C105 1.335 . S
N103 C106 1.390 . S
N104 C105 1.345 . S
N104 C107 1.336 . S
C105 N103 1.335 . S
C105 N104 1.345 . S
C105 H110 0.930 . S
C106 N103 1.390 . S
C106 C107 1.346 . S
C106 H111 0.930 . S
C107 N104 1.336 . S
C107 C106 1.346 . S
C107 H114 0.929 . S
C108 O98 1.282 . S
C108 O109 1.216 . S
O109 C108 1.216 . S
H110 C105 0.930 . S
H111 C106 0.930 . S
O112 Cu92 1.959 . S
O112 C99 1.251 . S
H113 C96 0.930 . S
H114 C107 0.929 . S
Cu115 N116 1.999 . S
Cu115 O121 1.974 . S
Cu115 N126 1.985 . S
Cu115 O135 1.959 . S
N116 Cu115 1.999 . S
N116 C118 1.263 . S
N116 C120 1.389 . S
N117 C118 1.358 . S
N117 C119 1.400 . S
C118 N116 1.263 . S
C118 N117 1.358 . S
C118 H124 0.930 . S
C119 N117 1.400 . S
C119 C120 1.351 . S
C119 H136 0.930 . S
C120 N116 1.389 . S
C120 C119 1.351 . S
C120 H125 0.930 . S
O121 Cu115 1.974 . S
O121 C131 1.282 . S
C122 O123 1.261 . S
C122 O135 1.251 . S
O123 C122 1.261 . S
H124 C118 0.930 . S
H125 C120 0.930 . S
N126 Cu115 1.985 . S
N126 C128 1.335 . S
N126 C129 1.390 . S
N127 C128 1.345 . S
N127 C130 1.336 . S
C128 N126 1.335 . S
C128 N127 1.345 . S
C128 H133 0.930 . S
C129 N126 1.390 . S
C129 C130 1.346 . S
C129 H134 0.930 . S
C130 N127 1.336 . S
C130 C129 1.346 . S
C130 H137 0.929 . S
C131 O121 1.282 . S
C131 O132 1.216 . S
O132 C131 1.216 . S
H133 C128 0.930 . S
H134 C129 0.930 . S
O135 Cu115 1.959 . S
O135 C122 1.251 . S
H136 C119 0.930 . S
H137 C130 0.929 . S
Cu138 N139 1.999 . S
Cu138 O144 1.974 . S
Cu138 N149 1.985 . S
Cu138 O158 1.959 . S
N139 Cu138 1.999 . S
N139 C141 1.263 . S
N139 C143 1.389 . S
N140 C141 1.358 . S
N140 C142 1.400 . S
C141 N139 1.263 . S
C141 N140 1.358 . S
C141 H147 0.930 . S
C142 N140 1.400 . S
C142 C143 1.351 . S
C142 H159 0.930 . S
C143 N139 1.389 . S
C143 C142 1.351 . S
C143 H148 0.930 . S
O144 Cu138 1.974 . S
O144 C154 1.282 . S
C145 O146 1.261 . S
C145 O158 1.251 . S
O146 C145 1.261 . S
H147 C141 0.930 . S
H148 C143 0.930 . S
N149 Cu138 1.985 . S
N149 C151 1.335 . S
N149 C152 1.390 . S
N150 C151 1.345 . S
N150 C153 1.336 . S
C151 N149 1.335 . S
C151 N150 1.345 . S
C151 H156 0.930 . S
C152 N149 1.390 . S
C152 C153 1.346 . S
C152 H157 0.930 . S
C153 N150 1.336 . S
C153 C152 1.346 . S
C153 H160 0.929 . S
C154 O144 1.282 . S
C154 O155 1.216 . S
O155 C154 1.216 . S
H156 C151 0.930 . S
H157 C152 0.930 . S
O158 Cu138 1.959 . S
O158 C145 1.251 . S
H159 C142 0.930 . S
H160 C153 0.929 . S
Cu161 N162 1.999 . S
Cu161 O167 1.974 . S
Cu161 N172 1.985 . S
Cu161 O181 1.959 . S
N162 Cu161 1.999 . S
N162 C164 1.263 . S
N162 C166 1.389 . S
N163 C164 1.358 . S
N163 C165 1.400 . S
C164 N162 1.263 . S
C164 N163 1.358 . S
C164 H170 0.930 . S
C165 N163 1.400 . S
C165 C166 1.351 . S
C165 H182 0.930 . S
C166 N162 1.389 . S
C166 C165 1.351 . S
C166 H171 0.930 . S
O167 Cu161 1.974 . S
O167 C177 1.282 . S
C168 O169 1.261 . S
C168 O181 1.251 . S
O169 C168 1.261 . S
H170 C164 0.930 . S
H171 C166 0.930 . S
N172 Cu161 1.985 . S
N172 C174 1.335 . S
N172 C175 1.390 . S
N173 C174 1.345 . S
N173 C176 1.336 . S
C174 N172 1.335 . S
C174 N173 1.345 . S
C174 H179 0.930 . S
C175 N172 1.390 . S
C175 C176 1.346 . S
C175 H180 0.930 . S
C176 N173 1.336 . S
C176 C175 1.346 . S
C176 H183 0.929 . S
C177 O167 1.282 . S
C177 O178 1.216 . S
O178 C177 1.216 . S
H179 C174 0.930 . S
H180 C175 0.930 . S
O181 Cu161 1.959 . S
O181 C168 1.251 . S
H182 C165 0.930 . S
H183 C176 0.929 . S
C184 O186 1.247 . S
C184 O188 1.258 . S
C185 O192 1.247 . S
C185 O193 1.258 . S
O186 C184 1.247 . S
O186 Zn187 2.028 . S
Zn187 O186 2.028 . S
Zn187 O191 2.035 . S
Zn187 O193 2.035 . S
Zn187 O194 2.028 . S
O188 C184 1.258 . S
O188 Zn189 2.035 . S
Zn189 O188 2.035 . S
Zn189 O190 2.028 . S
Zn189 O192 2.028 . S
Zn189 O195 2.035 . S
O190 Zn189 2.028 . S
O190 C196 1.247 . S
O191 Zn187 2.035 . S
O191 C196 1.258 . S
O192 C185 1.247 . S
O192 Zn189 2.028 . S
O193 C185 1.258 . S
O193 Zn187 2.035 . S
O194 Zn187 2.028 . S
O194 C197 1.247 . S
O195 Zn189 2.035 . S
O195 C197 1.258 . S
C196 O190 1.247 . S
C196 O191 1.258 . S
C197 O194 1.247 . S
C197 O195 1.258 . S
C198 O200 1.247 . S
C198 O202 1.258 . S
C199 O206 1.247 . S
C199 O207 1.258 . S
O200 C198 1.247 . S
O200 Zn201 2.028 . S
Zn201 O200 2.028 . S
Zn201 O205 2.035 . S
Zn201 O207 2.035 . S
Zn201 O208 2.028 . S
O202 C198 1.258 . S
O202 Zn203 2.035 . S
Zn203 O202 2.035 . S
Zn203 O204 2.028 . S
Zn203 O206 2.028 . S
Zn203 O209 2.035 . S
O204 Zn203 2.028 . S
O204 C210 1.247 . S
O205 Zn201 2.035 . S
O205 C210 1.258 . S
O206 C199 1.247 . S
O206 Zn203 2.028 . S
O207 C199 1.258 . S
O207 Zn201 2.035 . S
O208 Zn201 2.028 . S
O208 C211 1.247 . S
O209 Zn203 2.035 . S
O209 C211 1.258 . S
C210 O204 1.247 . S
C210 O205 1.258 . S
C211 O208 1.247 . S
C211 O209 1.258 . S
C212 O214 1.247 . S
C212 O216 1.258 . S
C213 O220 1.247 . S
C213 O221 1.258 . S
O214 C212 1.247 . S
O214 Zn215 2.028 1_655 S
Zn215 O214 2.028 1_455 S
Zn215 O219 2.035 . S
Zn215 O221 2.035 . S
Zn215 O222 2.028 1_455 S
O216 C212 1.258 . S
O216 Zn217 2.035 1_655 S
Zn217 O216 2.035 1_455 S
Zn217 O218 2.028 . S
Zn217 O220 2.028 . S
Zn217 O223 2.035 1_455 S
O218 Zn217 2.028 . S
O218 C224 1.247 . S
O219 Zn215 2.035 . S
O219 C224 1.258 . S
O220 C213 1.247 . S
O220 Zn217 2.028 . S
O221 C213 1.258 . S
O221 Zn215 2.035 . S
O222 Zn215 2.028 1_655 S
O222 C225 1.247 . S
O223 Zn217 2.035 1_655 S
O223 C225 1.258 . S
C224 O218 1.247 . S
C224 O219 1.258 . S
C225 O222 1.247 . S
C225 O223 1.258 . S
C226 O228 1.247 . S
C226 O230 1.258 . S
C227 O234 1.247 . S
C227 O235 1.258 . S
O228 C226 1.247 . S
O228 Zn229 2.028 . S
Zn229 O228 2.028 . S
Zn229 O233 2.035 1_545 S
Zn229 O235 2.035 1_545 S
Zn229 O236 2.028 . S
O230 C226 1.258 . S
O230 Zn231 2.035 . S
Zn231 O230 2.035 . S
Zn231 O232 2.028 1_545 S
Zn231 O234 2.028 1_545 S
Zn231 O237 2.035 . S
O232 Zn231 2.028 1_565 S
O232 C238 1.247 . S
O233 Zn229 2.035 1_565 S
O233 C238 1.258 . S
O234 C227 1.247 . S
O234 Zn231 2.028 1_565 S
O235 C227 1.258 . S
O235 Zn229 2.035 1_565 S
O236 Zn229 2.028 . S
O236 C239 1.247 . S
O237 Zn231 2.035 . S
O237 C239 1.258 . S
C238 O232 1.247 . S
C238 O233 1.258 . S
C239 O236 1.247 . S
C239 O237 1.258 . S
C240 O242 1.247 . S
C240 O244 1.258 . S
C241 O248 1.247 . S
C241 O249 1.258 . S
O242 C240 1.247 . S
O242 Zn243 2.046 . S
Zn243 O242 2.046 . S
Zn243 O247 2.053 . S
Zn243 O249 2.018 1_554 S
Zn243 O250 2.010 1_554 S
O244 C240 1.258 . S
O244 Zn245 2.035 . S
Zn245 O244 2.035 . S
Zn245 O246 2.028 . S
Zn245 O248 2.028 1_554 S
Zn245 O251 2.035 1_554 S
O246 Zn245 2.028 . S
O246 C252 1.247 . S
O247 Zn243 2.053 . S
O247 C252 1.258 . S
O248 C241 1.247 . S
O248 Zn245 2.028 1_556 S
O249 C241 1.258 . S
O249 Zn243 2.018 1_556 S
O250 Zn243 2.010 1_556 S
O250 C253 1.247 . S
O251 Zn245 2.035 1_556 S
O251 C253 1.258 . S
C252 O246 1.247 . S
C252 O247 1.258 . S
C253 O250 1.247 . S
C253 O251 1.258 . S
C254 O256 1.247 . S
C254 O258 1.258 . S
C255 O262 1.247 . S
C255 O263 1.258 . S
O256 C254 1.247 . S
O256 Zn257 2.028 . S
Zn257 O256 2.028 . S
Zn257 O261 2.035 . S
Zn257 O263 2.035 1_554 S
Zn257 O264 2.028 1_554 S
O258 C254 1.258 . S
O258 Zn259 2.035 . S
Zn259 O258 2.035 . S
Zn259 O260 2.028 . S
Zn259 O262 2.028 1_554 S
Zn259 O265 2.035 1_554 S
O260 Zn259 2.028 . S
O260 C266 1.247 . S
O261 Zn257 2.035 . S
O261 C266 1.258 . S
O262 C255 1.247 . S
O262 Zn259 2.028 1_556 S
O263 C255 1.258 . S
O263 Zn257 2.035 1_556 S
O264 Zn257 2.028 1_556 S
O264 C267 1.247 . S
O265 Zn259 2.035 1_556 S
O265 C267 1.258 . S
C266 O260 1.247 . S
C266 O261 1.258 . S
C267 O264 1.247 . S
C267 O265 1.258 . S
C268 O270 1.247 . S
C268 O272 1.258 . S
C269 O276 1.247 . S
C269 O277 1.258 . S
O270 C268 1.247 . S
O270 Zn271 2.028 1_556 S
Zn271 O270 2.028 1_554 S
Zn271 O275 2.035 1_554 S
Zn271 O277 2.035 . S
Zn271 O278 2.028 . S
O272 C268 1.258 . S
O272 Zn273 2.035 1_556 S
Zn273 O272 2.035 1_554 S
Zn273 O274 2.028 1_554 S
Zn273 O276 2.028 . S
Zn273 O279 2.035 . S
O274 Zn273 2.028 1_556 S
O274 C280 1.247 . S
O275 Zn271 2.035 1_556 S
O275 C280 1.258 . S
O276 C269 1.247 . S
O276 Zn273 2.028 . S
O277 C269 1.258 . S
O277 Zn271 2.035 . S
O278 Zn271 2.028 . S
O278 C281 1.247 . S
O279 Zn273 2.035 . S
O279 C281 1.258 . S
C280 O274 1.247 . S
C280 O275 1.258 . S
C281 O278 1.247 . S
C281 O279 1.258 . S
C282 O284 1.247 . S
C282 O286 1.258 . S
C283 O290 1.247 . S
C283 O291 1.258 . S
O284 C282 1.247 . S
O284 Zn285 2.028 . S
Zn285 O284 2.028 . S
Zn285 O289 2.035 . S
Zn285 O291 2.035 1_554 S
Zn285 O292 2.028 1_554 S
O286 C282 1.258 . S
O286 Zn287 2.035 . S
Zn287 O286 2.035 . S
Zn287 O288 2.028 . S
Zn287 O290 2.028 1_554 S
Zn287 O293 2.035 1_554 S
O288 Zn287 2.028 . S
O288 C294 1.247 . S
O289 Zn285 2.035 . S
O289 C294 1.258 . S
O290 C283 1.247 . S
O290 Zn287 2.028 1_556 S
O291 C283 1.258 . S
O291 Zn285 2.035 1_556 S
O292 Zn285 2.028 1_556 S
O292 C295 1.247 . S
O293 Zn287 2.035 1_556 S
O293 C295 1.258 . S
C294 O288 1.247 . S
C294 O289 1.258 . S
C295 O292 1.247 . S
C295 O293 1.258 . S
H296 C302 0.930 . S
H297 C305 0.930 . S
H298 C306 0.930 . S
H299 C307 0.930 . S
H300 C310 0.930 . S
H301 C311 0.930 . S
C302 H296 0.930 . S
C302 C303 1.355 . S
C302 C304 1.415 . S
C303 C302 1.355 . S
C303 C305 1.419 . S
C304 C302 1.415 . S
C304 C309 1.425 . S
C304 C311 1.409 . S
C305 H297 0.930 . S
C305 C303 1.419 . S
C305 C306 1.362 . S
C306 H298 0.930 . S
C306 C305 1.362 . S
C306 C309 1.409 . S
C307 H299 0.930 . S
C307 C308 1.355 . S
C307 C309 1.415 . S
C308 C307 1.355 . S
C308 C310 1.419 . S
C309 C304 1.425 . S
C309 C306 1.409 . S
C309 C307 1.415 . S
C310 H300 0.930 . S
C310 C308 1.419 . S
C310 C311 1.362 . S
C311 H301 0.930 . S
C311 C304 1.409 . S
C311 C310 1.362 . S
H312 C318 0.930 . S
H313 C321 0.930 . S
H314 C322 0.930 . S
H315 C323 0.930 . S
H316 C326 0.930 . S
H317 C327 0.930 . S
C318 H312 0.930 . S
C318 C319 1.355 . S
C318 C320 1.415 . S
C319 C318 1.355 . S
C319 C321 1.419 . S
C320 C318 1.415 . S
C320 C325 1.425 . S
C320 C327 1.409 . S
C321 H313 0.930 . S
C321 C319 1.419 . S
C321 C322 1.362 . S
C322 H314 0.930 . S
C322 C321 1.362 . S
C322 C325 1.409 . S
C323 H315 0.930 . S
C323 C324 1.355 . S
C323 C325 1.415 . S
C324 C323 1.355 . S
C324 C326 1.419 . S
C325 C320 1.425 . S
C325 C322 1.409 . S
C325 C323 1.415 . S
C326 H316 0.930 . S
C326 C324 1.419 . S
C326 C327 1.362 . S
C327 H317 0.930 . S
C327 C320 1.409 . S
C327 C326 1.362 . S
H328 C334 0.930 . S
H329 C337 0.930 . S
H330 C338 0.930 . S
H331 C339 0.930 . S
H332 C342 0.930 . S
H333 C343 0.930 . S
C334 H328 0.930 . S
C334 C335 1.355 . S
C334 C336 1.415 . S
C335 C334 1.355 . S
C335 C337 1.419 . S
C336 C334 1.415 . S
C336 C341 1.425 . S
C336 C343 1.409 . S
C337 H329 0.930 . S
C337 C335 1.419 . S
C337 C338 1.362 . S
C338 H330 0.930 . S
C338 C337 1.362 . S
C338 C341 1.409 . S
C339 H331 0.930 . S
C339 C340 1.355 . S
C339 C341 1.415 . S
C340 C339 1.355 . S
C340 C342 1.419 . S
C341 C336 1.425 . S
C341 C338 1.409 . S
C341 C339 1.415 . S
C342 H332 0.930 . S
C342 C340 1.419 . S
C342 C343 1.362 . S
C343 H333 0.930 . S
C343 C336 1.409 . S
C343 C342 1.362 . S
H344 C350 0.930 . S
H345 C353 0.930 . S
H346 C354 0.930 . S
H347 C355 0.930 . S
H348 C358 0.930 . S
H349 C359 0.930 . S
C350 H344 0.930 . S
C350 C351 1.355 . S
C350 C352 1.415 . S
C351 C350 1.355 . S
C351 C353 1.419 . S
C352 C350 1.415 . S
C352 C357 1.425 . S
C352 C359 1.409 . S
C353 H345 0.930 . S
C353 C351 1.419 . S
C353 C354 1.362 . S
C354 H346 0.930 . S
C354 C353 1.362 . S
C354 C357 1.409 . S
C355 H347 0.930 . S
C355 C356 1.355 . S
C355 C357 1.415 . S
C356 C355 1.355 . S
C356 C358 1.419 . S
C357 C352 1.425 . S
C357 C354 1.409 . S
C357 C355 1.415 . S
C358 H348 0.930 . S
C358 C356 1.419 . S
C358 C359 1.362 . S
C359 H349 0.930 . S
C359 C352 1.409 . S
C359 C358 1.362 . S
H360 C366 0.930 . S
H361 C369 0.930 . S
H362 C370 0.930 . S
H363 C371 0.930 . S
H364 C374 0.930 . S
H365 C375 0.930 . S
C366 H360 0.930 . S
C366 C367 1.355 . S
C366 C368 1.415 . S
C367 C366 1.355 . S
C367 C369 1.419 . S
C368 C366 1.415 . S
C368 C373 1.425 . S
C368 C375 1.409 . S
C369 H361 0.930 . S
C369 C367 1.419 . S
C369 C370 1.362 . S
C370 H362 0.930 . S
C370 C369 1.362 . S
C370 C373 1.409 . S
C371 H363 0.930 . S
C371 C372 1.355 . S
C371 C373 1.415 . S
C372 C371 1.355 . S
C372 C374 1.419 . S
C373 C368 1.425 . S
C373 C370 1.409 . S
C373 C371 1.415 . S
C374 H364 0.930 . S
C374 C372 1.419 . S
C374 C375 1.362 . S
C375 H365 0.930 . S
C375 C368 1.409 . S
C375 C374 1.362 . S
H376 C382 0.930 . S
H377 C385 0.930 . S
H378 C386 0.930 . S
H379 C387 0.930 . S
H380 C390 0.930 . S
H381 C391 0.930 . S
C382 H376 0.930 . S
C382 C383 1.355 . S
C382 C384 1.415 . S
C383 C382 1.355 . S
C383 C385 1.419 . S
C384 C382 1.415 . S
C384 C389 1.425 . S
C384 C391 1.409 . S
C385 H377 0.930 . S
C385 C383 1.419 . S
C385 C386 1.362 . S
C386 H378 0.930 . S
C386 C385 1.362 . S
C386 C389 1.409 . S
C387 H379 0.930 . S
C387 C388 1.355 . S
C387 C389 1.415 . S
C388 C387 1.355 . S
C388 C390 1.419 . S
C389 C384 1.425 . S
C389 C386 1.409 . S
C389 C387 1.415 . S
C390 H380 0.930 . S
C390 C388 1.419 . S
C390 C391 1.362 . S
C391 H381 0.930 . S
C391 C384 1.409 . S
C391 C390 1.362 . S
H392 C398 0.930 . S
H393 C401 0.930 . S
H394 C402 0.930 . S
H395 C403 0.930 . S
H396 C406 0.930 . S
H397 C407 0.930 . S
C398 H392 0.930 . S
C398 C399 1.355 . S
C398 C400 1.415 . S
C399 C398 1.355 . S
C399 C401 1.419 . S
C400 C398 1.415 . S
C400 C405 1.425 . S
C400 C407 1.409 . S
C401 H393 0.930 . S
C401 C399 1.419 . S
C401 C402 1.362 . S
C402 H394 0.930 . S
C402 C401 1.362 . S
C402 C405 1.409 . S
C403 H395 0.930 . S
C403 C404 1.355 . S
C403 C405 1.415 . S
C404 C403 1.355 . S
C404 C406 1.419 . S
C405 C400 1.425 . S
C405 C402 1.409 . S
C405 C403 1.415 . S
C406 H396 0.930 . S
C406 C404 1.419 . S
C406 C407 1.362 . S
C407 H397 0.930 . S
C407 C400 1.409 . S
C407 C406 1.362 . S
H408 C414 0.930 . S
H409 C417 0.930 . S
H410 C418 0.930 . S
H411 C419 0.930 . S
H412 C422 0.930 . S
H413 C423 0.930 . S
C414 H408 0.930 . S
C414 C415 1.355 . S
C414 C416 1.415 . S
C415 C414 1.355 . S
C415 C417 1.419 . S
C416 C414 1.415 . S
C416 C421 1.425 . S
C416 C423 1.409 . S
C417 H409 0.930 . S
C417 C415 1.419 . S
C417 C418 1.362 . S
C418 H410 0.930 . S
C418 C417 1.362 . S
C418 C421 1.409 . S
C419 H411 0.930 . S
C419 C420 1.355 . S
C419 C421 1.415 . S
C420 C419 1.355 . S
C420 C422 1.419 . S
C421 C416 1.425 . S
C421 C418 1.409 . S
C421 C419 1.415 . S
C422 H412 0.930 . S
C422 C420 1.419 . S
C422 C423 1.362 . S
C423 H413 0.930 . S
C423 C416 1.409 . S
C423 C422 1.362 . S
H424 C430 0.930 . S
H425 C433 0.930 . S
H426 C434 0.930 . S
H427 C435 0.930 . S
H428 C438 0.930 . S
H429 C439 0.930 . S
C430 H424 0.930 . S
C430 C431 1.355 . S
C430 C432 1.415 . S
C431 C430 1.355 . S
C431 C433 1.419 . S
C432 C430 1.415 . S
C432 C437 1.425 . S
C432 C439 1.409 . S
C433 H425 0.930 . S
C433 C431 1.419 . S
C433 C434 1.362 . S
C434 H426 0.930 . S
C434 C433 1.362 . S
C434 C437 1.409 . S
C435 H427 0.930 . S
C435 C436 1.355 . S
C435 C437 1.415 . S
C436 C435 1.355 . S
C436 C438 1.419 . S
C437 C432 1.425 . S
C437 C434 1.409 . S
C437 C435 1.415 . S
C438 H428 0.930 . S
C438 C436 1.419 . S
C438 C439 1.362 . S
C439 H429 0.930 . S
C439 C432 1.409 . S
C439 C438 1.362 . S
H440 C446 0.930 . S
H441 C449 0.930 . S
H442 C450 0.930 . S
H443 C451 0.930 . S
H444 C454 0.930 . S
H445 C455 0.930 . S
C446 H440 0.930 . S
C446 C447 1.355 . S
C446 C448 1.415 . S
C447 C446 1.355 . S
C447 C449 1.419 . S
C448 C446 1.415 . S
C448 C453 1.425 . S
C448 C455 1.409 . S
C449 H441 0.930 . S
C449 C447 1.419 . S
C449 C450 1.362 . S
C450 H442 0.930 . S
C450 C449 1.362 . S
C450 C453 1.409 . S
C451 H443 0.930 . S
C451 C452 1.355 . S
C451 C453 1.415 . S
C452 C451 1.355 . S
C452 C454 1.419 . S
C453 C448 1.425 . S
C453 C450 1.409 . S
C453 C451 1.415 . S
C454 H444 0.930 . S
C454 C452 1.419 . S
C454 C455 1.362 . S
C455 H445 0.930 . S
C455 C448 1.409 . S
C455 C454 1.362 . S
H456 C462 0.930 . S
H457 C465 0.930 . S
H458 C466 0.930 . S
H459 C467 0.930 . S
H460 C470 0.930 . S
H461 C471 0.930 . S
C462 H456 0.930 . S
C462 C463 1.355 . S
C462 C464 1.415 . S
C463 C462 1.355 . S
C463 C465 1.419 . S
C464 C462 1.415 . S
C464 C469 1.425 . S
C464 C471 1.409 . S
C465 H457 0.930 . S
C465 C463 1.419 . S
C465 C466 1.362 . S
C466 H458 0.930 . S
C466 C465 1.362 . S
C466 C469 1.409 . S
C467 H459 0.930 . S
C467 C468 1.355 . S
C467 C469 1.415 . S
C468 C467 1.355 . S
C468 C470 1.419 . S
C469 C464 1.425 . S
C469 C466 1.409 . S
C469 C467 1.415 . S
C470 H460 0.930 . S
C470 C468 1.419 . S
C470 C471 1.362 . S
C471 H461 0.930 . S
C471 C464 1.409 . S
C471 C470 1.362 . S
H472 C478 0.930 . S
H473 C481 0.930 . S
H474 C482 0.930 . S
H475 C483 0.930 . S
H476 C486 0.930 . S
H477 C487 0.930 . S
C478 H472 0.930 . S
C478 C479 1.355 . S
C478 C480 1.415 . S
C479 C478 1.355 . S
C479 C481 1.419 . S
C480 C478 1.415 . S
C480 C485 1.425 . S
C480 C487 1.409 . S
C481 H473 0.930 . S
C481 C479 1.419 . S
C481 C482 1.362 . S
C482 H474 0.930 . S
C482 C481 1.362 . S
C482 C485 1.409 . S
C483 H475 0.930 . S
C483 C484 1.355 . S
C483 C485 1.415 . S
C484 C483 1.355 . S
C484 C486 1.419 . S
C485 C480 1.425 . S
C485 C482 1.409 . S
C485 C483 1.415 . S
C486 H476 0.930 . S
C486 C484 1.419 . S
C486 C487 1.362 . S
C487 H477 0.930 . S
C487 C480 1.409 . S
C487 C486 1.362 . S
H488 C494 0.930 . S
H489 C497 0.930 . S
H490 C498 0.930 . S
H491 C499 0.930 . S
H492 C502 0.930 . S
H493 C503 0.930 . S
C494 H488 0.930 . S
C494 C495 1.355 . S
C494 C496 1.415 . S
C495 C494 1.355 . S
C495 C497 1.419 . S
C496 C494 1.415 . S
C496 C501 1.425 . S
C496 C503 1.409 . S
C497 H489 0.930 . S
C497 C495 1.419 . S
C497 C498 1.362 . S
C498 H490 0.930 . S
C498 C497 1.362 . S
C498 C501 1.409 . S
C499 H491 0.930 . S
C499 C500 1.355 . S
C499 C501 1.415 . S
C500 C499 1.355 . S
C500 C502 1.419 . S
C501 C496 1.425 . S
C501 C498 1.409 . S
C501 C499 1.415 . S
C502 H492 0.930 . S
C502 C500 1.419 . S
C502 C503 1.362 . S
C503 H493 0.930 . S
C503 C496 1.409 . S
C503 C502 1.362 . S
H504 C510 0.930 . S
H505 C513 0.930 . S
H506 C514 0.930 . S
H507 C515 0.930 . S
H508 C518 0.930 . S
H509 C519 0.930 . S
C510 H504 0.930 . S
C510 C511 1.355 . S
C510 C512 1.415 . S
C511 C510 1.355 . S
C511 C513 1.419 . S
C512 C510 1.415 . S
C512 C517 1.425 . S
C512 C519 1.409 . S
C513 H505 0.930 . S
C513 C511 1.419 . S
C513 C514 1.362 . S
C514 H506 0.930 . S
C514 C513 1.362 . S
C514 C517 1.409 . S
C515 H507 0.930 . S
C515 C516 1.355 . S
C515 C517 1.415 . S
C516 C515 1.355 . S
C516 C518 1.419 . S
C517 C512 1.425 . S
C517 C514 1.409 . S
C517 C515 1.415 . S
C518 H508 0.930 . S
C518 C516 1.419 . S
C518 C519 1.362 . S
C519 H509 0.930 . S
C519 C512 1.409 . S
C519 C518 1.362 . S
H520 C526 0.930 . S
H521 C529 0.930 . S
H522 C530 0.930 . S
H523 C531 0.930 . S
H524 C534 0.930 . S
H525 C535 0.930 . S
C526 H520 0.930 . S
C526 C527 1.355 . S
C526 C528 1.415 . S
C527 C526 1.355 . S
C527 C529 1.419 . S
C528 C526 1.415 . S
C528 C533 1.425 . S
C528 C535 1.409 . S
C529 H521 0.930 . S
C529 C527 1.419 . S
C529 C530 1.362 . S
C530 H522 0.930 . S
C530 C529 1.362 . S
C530 C533 1.409 . S
C531 H523 0.930 . S
C531 C532 1.355 . S
C531 C533 1.415 . S
C532 C531 1.355 . S
C532 C534 1.419 . S
C533 C528 1.425 . S
C533 C530 1.409 . S
C533 C531 1.415 . S
C534 H524 0.930 . S
C534 C532 1.419 . S
C534 C535 1.362 . S
C535 H525 0.930 . S
C535 C528 1.409 . S
C535 C534 1.362 . S
H536 C542 0.930 . S
H537 C545 0.930 . S
H538 C546 0.930 . S
H539 C547 0.930 . S
H540 C550 0.930 . S
H541 C551 0.930 . S
C542 H536 0.930 . S
C542 C543 1.355 . S
C542 C544 1.415 . S
C543 C542 1.355 . S
C543 C545 1.419 . S
C544 C542 1.415 . S
C544 C549 1.425 . S
C544 C551 1.409 . S
C545 H537 0.930 . S
C545 C543 1.419 . S
C545 C546 1.362 . S
C546 H538 0.930 . S
C546 C545 1.362 . S
C546 C549 1.409 . S
C547 H539 0.930 . S
C547 C548 1.355 . S
C547 C549 1.415 . S
C548 C547 1.355 . S
C548 C550 1.419 . S
C549 C544 1.425 . S
C549 C546 1.409 . S
C549 C547 1.415 . S
C550 H540 0.930 . S
C550 C548 1.419 . S
C550 C551 1.362 . S
C551 H541 0.930 . S
C551 C544 1.409 . S
C551 C550 1.362 . S
H552 C558 0.930 . S
H553 C561 0.930 . S
H554 C562 0.930 . S
H555 C563 0.930 . S
H556 C566 0.930 . S
H557 C567 0.930 . S
C558 H552 0.930 . S
C558 C559 1.355 . S
C558 C560 1.415 . S
C559 C558 1.355 . S
C559 C561 1.419 . S
C560 C558 1.415 . S
C560 C565 1.425 . S
C560 C567 1.409 . S
C561 H553 0.930 . S
C561 C559 1.419 . S
C561 C562 1.362 . S
C562 H554 0.930 . S
C562 C561 1.362 . S
C562 C565 1.409 . S
C563 H555 0.930 . S
C563 C564 1.355 . S
C563 C565 1.415 . S
C564 C563 1.355 . S
C564 C566 1.419 . S
C565 C560 1.425 . S
C565 C562 1.409 . S
C565 C563 1.415 . S
C566 H556 0.930 . S
C566 C564 1.419 . S
C566 C567 1.362 . S
C567 H557 0.930 . S
C567 C560 1.409 . S
C567 C566 1.362 . S
H568 C574 0.930 . S
H569 C577 0.930 . S
H570 C578 0.930 . S
H571 C579 0.930 . S
H572 C582 0.930 . S
H573 C583 0.930 . S
C574 H568 0.930 . S
C574 C575 1.355 . S
C574 C576 1.415 . S
C575 C574 1.355 . S
C575 C577 1.419 . S
C576 C574 1.415 . S
C576 C581 1.425 . S
C576 C583 1.409 . S
C577 H569 0.930 . S
C577 C575 1.419 . S
C577 C578 1.362 . S
C578 H570 0.930 . S
C578 C577 1.362 . S
C578 C581 1.409 . S
C579 H571 0.930 . S
C579 C580 1.355 . S
C579 C581 1.415 . S
C580 C579 1.355 . S
C580 C582 1.419 . S
C581 C576 1.425 . S
C581 C578 1.409 . S
C581 C579 1.415 . S
C582 H572 0.930 . S
C582 C580 1.419 . S
C582 C583 1.362 . S
C583 H573 0.930 . S
C583 C576 1.409 . S
C583 C582 1.362 . S
H584 C590 0.930 . S
H585 C593 0.930 . S
H586 C594 0.930 . S
H587 C595 0.930 . S
H588 C598 0.930 . S
H589 C599 0.930 . S
C590 H584 0.930 . S
C590 C591 1.355 . S
C590 C592 1.415 . S
C591 C590 1.355 . S
C591 C593 1.419 . S
C592 C590 1.415 . S
C592 C597 1.425 . S
C592 C599 1.409 . S
C593 H585 0.930 . S
C593 C591 1.419 . S
C593 C594 1.362 . S
C594 H586 0.930 . S
C594 C593 1.362 . S
C594 C597 1.409 . S
C595 H587 0.930 . S
C595 C596 1.355 . S
C595 C597 1.415 . S
C596 C595 1.355 . S
C596 C598 1.419 . S
C597 C592 1.425 . S
C597 C594 1.409 . S
C597 C595 1.415 . S
C598 H588 0.930 . S
C598 C596 1.419 . S
C598 C599 1.362 . S
C599 H589 0.930 . S
C599 C592 1.409 . S
C599 C598 1.362 . S
H600 C606 0.930 . S
H601 C609 0.930 . S
H602 C610 0.930 . S
H603 C611 0.930 . S
H604 C614 0.930 . S
H605 C615 0.930 . S
C606 H600 0.930 . S
C606 C607 1.355 . S
C606 C608 1.415 . S
C607 C606 1.355 . S
C607 C609 1.419 . S
C608 C606 1.415 . S
C608 C613 1.425 . S
C608 C615 1.409 . S
C609 H601 0.930 . S
C609 C607 1.419 . S
C609 C610 1.362 . S
C610 H602 0.930 . S
C610 C609 1.362 . S
C610 C613 1.409 . S
C611 H603 0.930 . S
C611 C612 1.355 . S
C611 C613 1.415 . S
C612 C611 1.355 . S
C612 C614 1.419 . S
C613 C608 1.425 . S
C613 C610 1.409 . S
C613 C611 1.415 . S
C614 H604 0.930 . S
C614 C612 1.419 . S
C614 C615 1.362 . S
C615 H605 0.930 . S
C615 C608 1.409 . S
C615 C614 1.362 . S
H616 C622 0.930 . S
H617 C625 0.930 . S
H618 C626 0.930 . S
H619 C627 0.930 . S
H620 C630 0.930 . S
H621 C631 0.930 . S
C622 H616 0.930 . S
C622 C623 1.355 . S
C622 C624 1.415 . S
C623 C622 1.355 . S
C623 C625 1.419 . S
C624 C622 1.415 . S
C624 C629 1.425 . S
C624 C631 1.409 . S
C625 H617 0.930 . S
C625 C623 1.419 . S
C625 C626 1.362 . S
C626 H618 0.930 . S
C626 C625 1.362 . S
C626 C629 1.409 . S
C627 H619 0.930 . S
C627 C628 1.355 . S
C627 C629 1.415 . S
C628 C627 1.355 . S
C628 C630 1.419 . S
C629 C624 1.425 . S
C629 C626 1.409 . S
C629 C627 1.415 . S
C630 H620 0.930 . S
C630 C628 1.419 . S
C630 C631 1.362 . S
C631 H621 0.930 . S
C631 C624 1.409 . S
C631 C630 1.362 . S
H632 C638 0.930 . S
H633 C641 0.930 . S
H634 C642 0.930 . S
H635 C643 0.930 . S
H636 C646 0.930 . S
H637 C647 0.930 . S
C638 H632 0.930 . S
C638 C639 1.355 . S
C638 C640 1.415 . S
C639 C638 1.355 . S
C639 C641 1.419 . S
C640 C638 1.415 . S
C640 C645 1.425 . S
C640 C647 1.409 . S
C641 H633 0.930 . S
C641 C639 1.419 . S
C641 C642 1.362 . S
C642 H634 0.930 . S
C642 C641 1.362 . S
C642 C645 1.409 . S
C643 H635 0.930 . S
C643 C644 1.355 . S
C643 C645 1.415 . S
C644 C643 1.355 . S
C644 C646 1.419 . S
C645 C640 1.425 . S
C645 C642 1.409 . S
C645 C643 1.415 . S
C646 H636 0.930 . S
C646 C644 1.419 . S
C646 C647 1.362 . S
C647 H637 0.930 . S
C647 C640 1.409 . S
C647 C646 1.362 . S
H648 C654 0.930 . S
H649 C657 0.930 . S
H650 C658 0.930 . S
H651 C659 0.930 . S
H652 C662 0.930 . S
H653 C663 0.930 . S
C654 H648 0.930 . S
C654 C655 1.355 . S
C654 C656 1.415 . S
C655 C654 1.355 . S
C655 C657 1.419 . S
C656 C654 1.415 . S
C656 C661 1.425 . S
C656 C663 1.409 . S
C657 H649 0.930 . S
C657 C655 1.419 . S
C657 C658 1.362 . S
C658 H650 0.930 . S
C658 C657 1.362 . S
C658 C661 1.409 . S
C659 H651 0.930 . S
C659 C660 1.355 . S
C659 C661 1.415 . S
C660 C659 1.355 . S
C660 C662 1.419 . S
C661 C656 1.425 . S
C661 C658 1.409 . S
C661 C659 1.415 . S
C662 H652 0.930 . S
C662 C660 1.419 . S
C662 C663 1.362 . S
C663 H653 0.930 . S
C663 C656 1.409 . S
C663 C662 1.362 . S
H664 C670 0.930 . S
H665 C673 0.930 . S
H666 C674 0.930 . S
H667 C675 0.930 . S
H668 C678 0.930 . S
H669 C679 0.930 . S
C670 H664 0.930 . S
C670 C671 1.355 . S
C670 C672 1.415 . S
C671 C670 1.355 . S
C671 C673 1.419 . S
C672 C670 1.415 . S
C672 C677 1.425 . S
C672 C679 1.409 . S
C673 H665 0.930 . S
C673 C671 1.419 . S
C673 C674 1.362 . S
C674 H666 0.930 . S
C674 C673 1.362 . S
C674 C677 1.409 . S
C675 H667 0.930 . S
C675 C676 1.355 . S
C675 C677 1.415 . S
C676 C675 1.355 . S
C676 C678 1.419 . S
C677 C672 1.425 . S
C677 C674 1.409 . S
C677 C675 1.415 . S
C678 H668 0.930 . S
C678 C676 1.419 . S
C678 C679 1.362 . S
C679 H669 0.930 . S
C679 C672 1.409 . S
C679 C678 1.362 . S
H680 C686 0.930 . S
H681 C689 0.930 . S
H682 C690 0.930 . S
H683 C691 0.930 . S
H684 C694 0.930 . S
H685 C695 0.930 . S
C686 H680 0.930 . S
C686 C687 1.355 . S
C686 C688 1.415 . S
C687 C686 1.355 . S
C687 C689 1.419 . S
C688 C686 1.415 . S
C688 C693 1.425 . S
C688 C695 1.409 . S
C689 H681 0.930 . S
C689 C687 1.419 . S
C689 C690 1.362 . S
C690 H682 0.930 . S
C690 C689 1.362 . S
C690 C693 1.409 . S
C691 H683 0.930 . S
C691 C692 1.355 . S
C691 C693 1.415 . S
C692 C691 1.355 . S
C692 C694 1.419 . S
C693 C688 1.425 . S
C693 C690 1.409 . S
C693 C691 1.415 . S
C694 H684 0.930 . S
C694 C692 1.419 . S
C694 C695 1.362 . S
C695 H685 0.930 . S
C695 C688 1.409 . S
C695 C694 1.362 . S
H696 C702 0.930 . S
H697 C705 0.930 . S
H698 C706 0.930 . S
H699 C707 0.930 . S
H700 C710 0.930 . S
H701 C711 0.930 . S
C702 H696 0.930 . S
C702 C703 1.355 . S
C702 C704 1.415 . S
C703 C702 1.355 . S
C703 C705 1.419 . S
C704 C702 1.415 . S
C704 C709 1.425 . S
C704 C711 1.409 . S
C705 H697 0.930 . S
C705 C703 1.419 . S
C705 C706 1.362 . S
C706 H698 0.930 . S
C706 C705 1.362 . S
C706 C709 1.409 . S
C707 H699 0.930 . S
C707 C708 1.355 . S
C707 C709 1.415 . S
C708 C707 1.355 . S
C708 C710 1.419 . S
C709 C704 1.425 . S
C709 C706 1.409 . S
C709 C707 1.415 . S
C710 H700 0.930 . S
C710 C708 1.419 . S
C710 C711 1.362 . S
C711 H701 0.930 . S
C711 C704 1.409 . S
C711 C710 1.362 . S
H712 C718 0.930 . S
H713 C721 0.930 . S
H714 C722 0.930 . S
H715 C723 0.930 . S
H716 C726 0.930 . S
H717 C727 0.930 . S
C718 H712 0.930 . S
C718 C719 1.355 . S
C718 C720 1.415 . S
C719 C718 1.355 . S
C719 C721 1.419 . S
C720 C718 1.415 . S
C720 C725 1.425 . S
C720 C727 1.409 . S
C721 H713 0.930 . S
C721 C719 1.419 . S
C721 C722 1.362 . S
C722 H714 0.930 . S
C722 C721 1.362 . S
C722 C725 1.409 . S
C723 H715 0.930 . S
C723 C724 1.355 . S
C723 C725 1.415 . S
C724 C723 1.355 . S
C724 C726 1.419 . S
C725 C720 1.425 . S
C725 C722 1.409 . S
C725 C723 1.415 . S
C726 H716 0.930 . S
C726 C724 1.419 . S
C726 C727 1.362 . S
C727 H717 0.930 . S
C727 C720 1.409 . S
C727 C726 1.362 . S
H728 C734 0.930 . S
H729 C737 0.930 . S
H730 C738 0.930 . S
H731 C739 0.930 . S
H732 C742 0.930 . S
H733 C743 0.930 . S
C734 H728 0.930 . S
C734 C735 1.355 . S
C734 C736 1.415 . S
C735 C734 1.355 . S
C735 C737 1.419 . S
C736 C734 1.415 . S
C736 C741 1.425 . S
C736 C743 1.409 . S
C737 H729 0.930 . S
C737 C735 1.419 . S
C737 C738 1.362 . S
C738 H730 0.930 . S
C738 C737 1.362 . S
C738 C741 1.409 . S
C739 H731 0.930 . S
C739 C740 1.355 . S
C739 C741 1.415 . S
C740 C739 1.355 . S
C740 C742 1.419 . S
C741 C736 1.425 . S
C741 C738 1.409 . S
C741 C739 1.415 . S
C742 H732 0.930 . S
C742 C740 1.419 . S
C742 C743 1.362 . S
C743 H733 0.930 . S
C743 C736 1.409 . S
C743 C742 1.362 . S
H744 C750 0.930 . S
H745 C753 0.930 . S
H746 C754 0.930 . S
H747 C755 0.930 . S
H748 C758 0.930 . S
H749 C759 0.930 . S
C750 H744 0.930 . S
C750 C751 1.355 . S
C750 C752 1.415 . S
C751 C750 1.355 . S
C751 C753 1.419 . S
C752 C750 1.415 . S
C752 C757 1.425 . S
C752 C759 1.409 . S
C753 H745 0.930 . S
C753 C751 1.419 . S
C753 C754 1.362 . S
C754 H746 0.930 . S
C754 C753 1.362 . S
C754 C757 1.409 . S
C755 H747 0.930 . S
C755 C756 1.355 . S
C755 C757 1.415 . S
C756 C755 1.355 . S
C756 C758 1.419 . S
C757 C752 1.425 . S
C757 C754 1.409 . S
C757 C755 1.415 . S
C758 H748 0.930 . S
C758 C756 1.419 . S
C758 C759 1.362 . S
C759 H749 0.930 . S
C759 C752 1.409 . S
C759 C758 1.362 . S
H760 C766 0.930 . S
H761 C769 0.930 . S
H762 C770 0.930 . S
H763 C771 0.930 . S
H764 C774 0.930 . S
H765 C775 0.930 . S
C766 H760 0.930 . S
C766 C767 1.355 . S
C766 C768 1.415 . S
C767 C766 1.355 . S
C767 C769 1.419 . S
C768 C766 1.415 . S
C768 C773 1.425 . S
C768 C775 1.409 . S
C769 H761 0.930 . S
C769 C767 1.419 . S
C769 C770 1.362 . S
C770 H762 0.930 . S
C770 C769 1.362 . S
C770 C773 1.409 . S
C771 H763 0.930 . S
C771 C772 1.355 . S
C771 C773 1.415 . S
C772 C771 1.355 . S
C772 C774 1.419 . S
C773 C768 1.425 . S
C773 C770 1.409 . S
C773 C771 1.415 . S
C774 H764 0.930 . S
C774 C772 1.419 . S
C774 C775 1.362 . S
C775 H765 0.930 . S
C775 C768 1.409 . S
C775 C774 1.362 . S
H776 C782 0.930 . S
H777 C785 0.930 . S
H778 C786 0.930 . S
H779 C787 0.930 . S
H780 C790 0.930 . S
H781 C791 0.930 . S
C782 H776 0.930 . S
C782 C783 1.355 . S
C782 C784 1.415 . S
C783 C782 1.355 . S
C783 C785 1.419 . S
C784 C782 1.415 . S
C784 C789 1.425 . S
C784 C791 1.409 . S
C785 H777 0.930 . S
C785 C783 1.419 . S
C785 C786 1.362 . S
C786 H778 0.930 . S
C786 C785 1.362 . S
C786 C789 1.409 . S
C787 H779 0.930 . S
C787 C788 1.355 . S
C787 C789 1.415 . S
C788 C787 1.355 . S
C788 C790 1.419 . S
C789 C784 1.425 . S
C789 C786 1.409 . S
C789 C787 1.415 . S
C790 H780 0.930 . S
C790 C788 1.419 . S
C790 C791 1.362 . S
C791 H781 0.930 . S
C791 C784 1.409 . S
C791 C790 1.362 . S
H792 C798 0.930 . S
H793 C801 0.930 . S
H794 C802 0.930 . S
H795 C803 0.930 . S
H796 C806 0.930 . S
H797 C807 0.930 . S
C798 H792 0.930 . S
C798 C799 1.355 . S
C798 C800 1.415 . S
C799 C798 1.355 . S
C799 C801 1.419 . S
C800 C798 1.415 . S
C800 C805 1.425 . S
C800 C807 1.409 . S
C801 H793 0.930 . S
C801 C799 1.419 . S
C801 C802 1.362 . S
C802 H794 0.930 . S
C802 C801 1.362 . S
C802 C805 1.409 . S
C803 H795 0.930 . S
C803 C804 1.355 . S
C803 C805 1.415 . S
C804 C803 1.355 . S
C804 C806 1.419 . S
C805 C800 1.425 . S
C805 C802 1.409 . S
C805 C803 1.415 . S
C806 H796 0.930 . S
C806 C804 1.419 . S
C806 C807 1.362 . S
C807 H797 0.930 . S
C807 C800 1.409 . S
C807 C806 1.362 . S
C308 C185 1.559 . S
C303 C16 1.568 . S
C324 C211 1.558 . S
C319 C30 1.579 . S
C340 C225 1.587 . S
C335 C53 1.587 . S
C356 C227 1.593 . S
C351 C76 1.610 . S
C367 N104 1.425 . S
C372 C224 1.453 . S
C388 C226 1.488 . S
C383 N127 1.462 . S
C404 C184 1.455 1_655 S
C399 N140 1.409 . S
C420 C210 1.459 1_565 S
C415 N173 1.398 . S
C436 C212 1.585 . S
C431 C168 1.580 . S
C452 C238 1.572 . S
C447 C99 1.584 . S
C468 C196 1.572 . S
C463 C122 1.569 . S
C484 C198 1.552 . S
C479 C154 1.543 . S
C500 C197 1.461 1_655 S
C495 N35 1.414 . S
C516 C199 1.460 1_565 S
C511 N58 1.431 . S
C532 C213 1.461 . S
C527 N81 1.440 . S
C548 C239 1.478 . S
C543 N2 1.423 . S
C564 C241 1.570 . S
C559 C177 1.558 . S
C575 C108 1.581 . S
C580 C267 1.590 . S
C591 C131 1.568 . S
C596 C280 1.584 . S
C607 C145 1.609 . S
C612 C283 1.607 . S
C623 N25 1.417 . S
C628 C281 1.477 . S
C639 N48 1.466 . S
C644 C282 1.476 . S
C655 N71 1.411 . S
C660 C240 1.476 . S
C676 C266 1.484 . S
C671 N12 1.426 . S
C692 C269 1.579 . S
C687 C7 1.574 . S
C703 C39 1.585 . S
C708 C294 1.587 . S
C719 C62 1.570 . S
C724 C252 1.569 . S
C735 C85 1.549 . S
C740 C254 1.552 . S
C756 C253 1.467 . S
C751 N94 1.417 . S
C772 C255 1.473 . S
C767 N117 1.459 . S
C783 N150 1.440 . S
C788 C268 1.478 . S
C804 C295 1.470 . S
C799 N163 1.411 . S
