# Generated by pormake.
# Topology soc, (4,6)-cn, num edge types: 1
# Building blocks:
#     Node 0, Type 0, BuildingBlock: ESEHIV_clean_sbu_0, # of connection points: 4
#     Node 1, Type 0, BuildingBlock: ESEHIV_clean_sbu_0, # of connection points: 4
#     Node 2, Type 0, BuildingBlock: ESEHIV_clean_sbu_0, # of connection points: 4
#     Node 3, Type 0, BuildingBlock: ESEHIV_clean_sbu_0, # of connection points: 4
#     Node 4, Type 0, BuildingBlock: ESEHIV_clean_sbu_0, # of connection points: 4
#     Node 5, Type 0, BuildingBlock: ESEHIV_clean_sbu_0, # of connection points: 4
#     Node 6, Type 0, BuildingBlock: ESEHIV_clean_sbu_0, # of connection points: 4
#     Node 7, Type 0, BuildingBlock: ESEHIV_clean_sbu_0, # of connection points: 4
#     Node 8, Type 0, BuildingBlock: ESEHIV_clean_sbu_0, # of connection points: 4
#     Node 9, Type 0, BuildingBlock: ESEHIV_clean_sbu_0, # of connection points: 4
#     Node 10, Type 0, BuildingBlock: ESEHIV_clean_sbu_0, # of connection points: 4
#     Node 11, Type 0, BuildingBlock: ESEHIV_clean_sbu_0, # of connection points: 4
#     Node 12, Type 1, BuildingBlock: PAMTOO_clean_sbu_0, # of connection points: 6
#     Node 13, Type 1, BuildingBlock: PAMTOO_clean_sbu_0, # of connection points: 6
#     Node 14, Type 1, BuildingBlock: PAMTOO_clean_sbu_0, # of connection points: 6
#     Node 15, Type 1, BuildingBlock: PAMTOO_clean_sbu_0, # of connection points: 6
#     Node 16, Type 1, BuildingBlock: PAMTOO_clean_sbu_0, # of connection points: 6
#     Node 17, Type 1, BuildingBlock: PAMTOO_clean_sbu_0, # of connection points: 6
#     Node 18, Type 1, BuildingBlock: PAMTOO_clean_sbu_0, # of connection points: 6
#     Node 19, Type 1, BuildingBlock: PAMTOO_clean_sbu_0, # of connection points: 6
#     Edge 20, Type (0, 1), BuildingBlock: CIFDUS_clean_linker_0, # of connection points: 2
#     Edge 21, Type (0, 1), BuildingBlock: CIFDUS_clean_linker_0, # of connection points: 2
#     Edge 22, Type (0, 1), BuildingBlock: CIFDUS_clean_linker_0, # of connection points: 2
#     Edge 23, Type (0, 1), BuildingBlock: CIFDUS_clean_linker_0, # of connection points: 2
#     Edge 24, Type (0, 1), BuildingBlock: CIFDUS_clean_linker_0, # of connection points: 2
#     Edge 25, Type (0, 1), BuildingBlock: CIFDUS_clean_linker_0, # of connection points: 2
#     Edge 26, Type (0, 1), BuildingBlock: CIFDUS_clean_linker_0, # of connection points: 2
#     Edge 27, Type (0, 1), BuildingBlock: CIFDUS_clean_linker_0, # of connection points: 2
#     Edge 28, Type (0, 1), BuildingBlock: CIFDUS_clean_linker_0, # of connection points: 2
#     Edge 29, Type (0, 1), BuildingBlock: CIFDUS_clean_linker_0, # of connection points: 2
#     Edge 30, Type (0, 1), BuildingBlock: CIFDUS_clean_linker_0, # of connection points: 2
#     Edge 31, Type (0, 1), BuildingBlock: CIFDUS_clean_linker_0, # of connection points: 2
#     Edge 32, Type (0, 1), BuildingBlock: CIFDUS_clean_linker_0, # of connection points: 2
#     Edge 33, Type (0, 1), BuildingBlock: CIFDUS_clean_linker_0, # of connection points: 2
#     Edge 34, Type (0, 1), BuildingBlock: CIFDUS_clean_linker_0, # of connection points: 2
#     Edge 35, Type (0, 1), BuildingBlock: CIFDUS_clean_linker_0, # of connection points: 2
#     Edge 36, Type (0, 1), BuildingBlock: CIFDUS_clean_linker_0, # of connection points: 2
#     Edge 37, Type (0, 1), BuildingBlock: CIFDUS_clean_linker_0, # of connection points: 2
#     Edge 38, Type (0, 1), BuildingBlock: CIFDUS_clean_linker_0, # of connection points: 2
#     Edge 39, Type (0, 1), BuildingBlock: CIFDUS_clean_linker_0, # of connection points: 2
#     Edge 40, Type (0, 1), BuildingBlock: CIFDUS_clean_linker_0, # of connection points: 2
#     Edge 41, Type (0, 1), BuildingBlock: CIFDUS_clean_linker_0, # of connection points: 2
#     Edge 42, Type (0, 1), BuildingBlock: CIFDUS_clean_linker_0, # of connection points: 2
#     Edge 43, Type (0, 1), BuildingBlock: CIFDUS_clean_linker_0, # of connection points: 2
#     Edge 44, Type (0, 1), BuildingBlock: CIFDUS_clean_linker_0, # of connection points: 2
#     Edge 45, Type (0, 1), BuildingBlock: CIFDUS_clean_linker_0, # of connection points: 2
#     Edge 46, Type (0, 1), BuildingBlock: CIFDUS_clean_linker_0, # of connection points: 2
#     Edge 47, Type (0, 1), BuildingBlock: CIFDUS_clean_linker_0, # of connection points: 2
#     Edge 48, Type (0, 1), BuildingBlock: CIFDUS_clean_linker_0, # of connection points: 2
#     Edge 49, Type (0, 1), BuildingBlock: CIFDUS_clean_linker_0, # of connection points: 2
#     Edge 50, Type (0, 1), BuildingBlock: CIFDUS_clean_linker_0, # of connection points: 2
#     Edge 51, Type (0, 1), BuildingBlock: CIFDUS_clean_linker_0, # of connection points: 2
#     Edge 52, Type (0, 1), BuildingBlock: CIFDUS_clean_linker_0, # of connection points: 2
#     Edge 53, Type (0, 1), BuildingBlock: CIFDUS_clean_linker_0, # of connection points: 2
#     Edge 54, Type (0, 1), BuildingBlock: CIFDUS_clean_linker_0, # of connection points: 2
#     Edge 55, Type (0, 1), BuildingBlock: CIFDUS_clean_linker_0, # of connection points: 2
#     Edge 56, Type (0, 1), BuildingBlock: CIFDUS_clean_linker_0, # of connection points: 2
#     Edge 57, Type (0, 1), BuildingBlock: CIFDUS_clean_linker_0, # of connection points: 2
#     Edge 58, Type (0, 1), BuildingBlock: CIFDUS_clean_linker_0, # of connection points: 2
#     Edge 59, Type (0, 1), BuildingBlock: CIFDUS_clean_linker_0, # of connection points: 2
#     Edge 60, Type (0, 1), BuildingBlock: CIFDUS_clean_linker_0, # of connection points: 2
#     Edge 61, Type (0, 1), BuildingBlock: CIFDUS_clean_linker_0, # of connection points: 2
#     Edge 62, Type (0, 1), BuildingBlock: CIFDUS_clean_linker_0, # of connection points: 2
#     Edge 63, Type (0, 1), BuildingBlock: CIFDUS_clean_linker_0, # of connection points: 2
#     Edge 64, Type (0, 1), BuildingBlock: CIFDUS_clean_linker_0, # of connection points: 2
#     Edge 65, Type (0, 1), BuildingBlock: CIFDUS_clean_linker_0, # of connection points: 2
#     Edge 66, Type (0, 1), BuildingBlock: CIFDUS_clean_linker_0, # of connection points: 2
#     Edge 67, Type (0, 1), BuildingBlock: CIFDUS_clean_linker_0, # of connection points: 2
# Relax obj value: 0.119
# Max RMSD: 0.233
# Mean RMSD: 0.151
data_MOF--net-soc--node1-ESEHIV_clean_sbu_0--node2-PAMTOO_clean_sbu_0--edge1-CIFDUS_clean_linker_0
_symmetry_space_group_name_H-M    P1
_symmetry_Int_Tables_number       1
_symmetry_cell_setting            triclinic
loop_
_symmetry_equiv_pos_as_xyz
'x, y, z'
_cell_length_a     51.69845
_cell_length_b     39.89518
_cell_length_c     37.982441
_cell_angle_alpha  92.105557
_cell_angle_beta   92.141124
_cell_angle_gamma 68.802916
loop_
_atom_site_label
_atom_site_type_symbol
_atom_site_fract_x
_atom_site_fract_y
_atom_site_fract_z
_atom_type_partial_charge
Cu0 Cu 0.08338 0.02328 0.33609 0.0
N1 N 0.09815 0.05282 0.36284 0.0
N2 N 0.12141 0.0899 0.37416 0.0
C3 C 0.11381 0.0697 0.34952 0.0
C4 C 0.11005 0.08544 0.40427 0.0
C5 C 0.09566 0.06264 0.39719 0.0
O6 O 0.11566 0.99005 0.3104 0.0
C7 C 0.03237 0.07667 0.32899 0.0
O8 O 0.03678 0.07415 0.36325 0.0
H9 H 0.1196 0.06695 0.32218 0.0
H10 H 0.08384 0.0544 0.41567 0.0
N11 N 0.06866 0.99724 0.36442 0.0
N12 N 0.041 0.96874 0.3809 0.0
C13 C 0.04728 0.98671 0.35504 0.0
C14 C 0.07632 0.98539 0.39729 0.0
C15 C 0.05926 0.96792 0.40756 0.0
C16 C 0.12628 0.95636 0.31641 0.0
O17 O 0.1124 0.94178 0.33501 0.0
H18 H 0.0363 0.99265 0.32988 0.0
H19 H 0.09327 0.98889 0.41258 0.0
O20 O 0.05136 0.05597 0.3091 0.0
H21 H 0.11143 0.09837 0.42944 0.0
H22 H 0.06052 0.95512 0.43252 0.0
Cu23 Cu 0.05091 0.05099 0.71082 0.0
N24 N 0.03432 0.02503 0.68226 0.0
N25 N 0.00912 0.99066 0.67065 0.0
C26 C 0.0227 1.00324 0.69559 0.0
C27 C 0.01239 1.00498 0.64024 0.0
C28 C 0.02817 0.02608 0.64746 0.0
O29 O 0.02105 0.08588 0.73777 0.0
C30 C 0.09922 0.99413 0.71717 0.0
O31 O 0.09539 0.99777 0.68291 0.0
H32 H 0.023 0.99825 0.72346 0.0
H33 H 0.03383 0.042 0.62892 0.0
N34 N 0.06828 0.07627 0.68615 0.0
N35 N 0.09949 0.10171 0.67742 0.0
C36 C 0.0915 0.08094 0.69842 0.0
C37 C 0.06113 0.09488 0.6562 0.0
C38 C 0.08038 0.11073 0.65079 0.0
C39 C 1.00081 0.10565 0.71867 0.0
O40 O 1.00244 0.10125 0.68429 0.0
H41 H 0.10186 0.07015 0.72304 0.0
H42 H 0.04302 0.09739 0.63981 0.0
O43 O 0.08078 0.01538 0.73724 0.0
H44 H 1.0036 1.001 0.61482 0.0
H45 H 0.08028 0.1276 0.62907 0.0
Cu46 Cu 0.30461 0.036 0.05428 0.0
N47 N 0.28049 0.0207 0.0262 0.0
N48 N 0.26668 0.98431 0.99103 0.0
C49 C 0.28753 0.98773 1.01122 0.0
C50 C 0.24563 0.01631 0.99316 0.0
C51 C 0.25411 0.03869 0.01535 0.0
O52 O 0.32546 0.9943 0.08425 0.0
C53 C 0.31061 0.07755 0.99806 0.0
O54 O 0.28396 0.08359 0.99506 0.0
H55 H 0.30802 0.9672 1.01378 0.0
H56 H 0.24226 0.06652 0.02189 0.0
N57 N 0.28448 0.072 0.08561 0.0
N58 N 0.27721 0.11173 0.13041 0.0
C59 C 0.29555 0.09118 0.10685 0.0
C60 C 0.25821 0.08056 0.09606 0.0
C61 C 0.25362 0.10523 0.12366 0.0
C62 C 0.30984 0.98128 0.10018 0.0
O63 O 0.28287 0.99654 0.09531 0.0
H64 H 0.3171 0.08859 0.10613 0.0
H65 H 0.24379 0.06854 0.08557 0.0
O66 O 0.32478 0.05702 0.02269 0.0
H67 H 0.22596 0.02325 0.97887 0.0
H68 H 0.23458 0.11697 0.13797 0.0
Cu69 Cu 0.10702 0.34574 0.04442 0.0
N70 N 0.12531 0.36225 1.01132 0.0
N71 N 0.15487 0.35964 0.96885 0.0
C72 C 0.1427 0.34123 0.98718 0.0
C73 C 0.14472 0.39364 0.98209 0.0
C74 C 0.1265 0.39516 1.00829 0.0
O75 O 0.13332 0.32691 0.08406 0.0
C76 C 0.07621 0.32566 0.9926 0.0
O77 O 0.07806 0.35446 0.97896 0.0
H78 H 0.1471 0.31263 0.98412 0.0
H79 H 0.11561 0.41837 0.02466 0.0
N80 N 0.07568 0.38133 0.06233 0.0
N81 N 0.03316 0.39738 0.0838 0.0
C82 C 0.05871 0.37189 0.08237 0.0
C83 C 0.06047 0.41438 0.05083 0.0
C84 C 0.0342 0.42457 0.06449 0.0
C85 C 0.14116 0.35025 0.10056 0.0
O86 O 0.13045 0.38376 0.09049 0.0
H87 H 0.06436 0.34529 0.09295 0.0
H88 H 0.0669 0.42844 0.03116 0.0
O89 O 0.09017 0.31366 0.02092 0.0
H90 H 0.15027 0.41574 0.97374 0.0
H91 H 0.01658 0.44845 0.05793 0.0
Cu92 Cu 0.83473 0.02329 1.01268 0.0
N93 N 0.85619 0.03785 0.98289 0.0
N94 N 0.86316 0.07293 0.94265 0.0
C95 C 0.84748 0.07093 0.96949 0.0
C96 C 0.88271 0.03969 0.93919 0.0
C97 C 0.87827 0.01803 0.96399 0.0
O98 O 0.81693 0.06561 0.04471 0.0
C99 C 0.82589 0.96999 0.96804 0.0
O100 O 0.85133 0.95278 0.97963 0.0
H101 H 0.82845 0.09216 0.97723 0.0
H102 H 0.88902 0.98936 0.96615 0.0
N103 N 0.85612 0.9871 0.04283 0.0
N104 N 0.86488 0.94719 0.08538 0.0
C105 C 0.84539 0.9745 0.06873 0.0
C106 C 0.88349 0.96741 0.04343 0.0
C107 C 0.8889 0.94235 0.06948 0.0
C108 C 0.83441 0.07339 0.06524 0.0
O109 O 0.86087 0.05386 0.06214 0.0
H110 H 0.82347 0.98422 0.07428 0.0
H111 H 0.89835 0.97043 0.02575 0.0
O112 O 0.813 1.00212 0.98001 0.0
H113 H 0.89816 0.03112 0.91901 0.0
H114 H 0.90877 0.92186 0.07591 0.0
Cu115 Cu 0.01918 0.7368 0.04183 0.0
N116 N 1.00495 0.71553 1.00506 0.0
N117 N 0.98033 0.71184 0.95633 0.0
C118 C 0.98581 0.73386 0.98094 0.0
C119 C 0.9967 0.67825 0.96551 0.0
C120 C 0.01195 0.68063 0.99549 0.0
O121 O 0.99006 0.75778 0.0767 0.0
C122 C 0.0519 0.75402 0.99605 0.0
O123 O 0.05697 0.72003 0.98783 0.0
H124 H 0.97612 0.76287 0.98159 0.0
H125 H 0.02738 0.65853 1.00893 0.0
N126 N 0.04975 0.7038 0.06503 0.0
N127 N 0.09131 0.68391 0.09267 0.0
C128 C 0.07242 0.71108 0.07495 0.0
C129 C 0.0542 0.67077 0.07692 0.0
C130 C 0.07993 0.65835 0.09389 0.0
C131 C 0.97773 0.7374 0.08701 0.0
O132 O 0.98471 0.70482 0.07305 0.0
H133 H 0.07488 0.73606 0.06913 0.0
H134 H 0.03968 0.65695 0.074 0.0
O135 O 0.03442 0.7693 0.01995 0.0
H136 H 0.99809 0.65375 0.95116 0.0
H137 H 0.08915 0.63285 0.10678 0.0
Cu138 Cu 0.5512 0.55034 0.85292 0.0
N139 N 0.56544 0.58042 0.87922 0.0
N140 N 0.59211 0.61302 0.89086 0.0
C141 C 0.58304 0.59437 0.86616 0.0
C142 C 0.57927 0.61103 0.92066 0.0
C143 C 0.56282 0.59084 0.91338 0.0
O144 O 0.5825 0.51655 0.82685 0.0
C145 C 0.49827 0.59969 0.84444 0.0
O146 O 0.50006 0.59478 0.8786 0.0
H147 H 0.58926 0.59037 0.83898 0.0
H148 H 0.5504 0.58358 0.93182 0.0
N149 N 0.53865 0.52223 0.88108 0.0
N150 N 0.51625 0.48609 0.89457 0.0
C151 C 0.51933 0.50843 0.87064 0.0
C152 C 0.54816 0.50819 0.9128 0.0
C153 C 0.53439 0.48576 0.92117 0.0
C154 C 0.60421 0.50152 0.84609 0.0
O155 O 0.60335 0.50986 0.8799 0.0
H156 H 0.50852 0.51364 0.84531 0.0
H157 H 0.56445 0.51313 0.9283 0.0
O158 O 0.51917 0.58201 0.82583 0.0
H159 H 0.5822 0.62231 0.94618 0.0
H160 H 0.53758 0.47024 0.9448 0.0
Cu161 Cu 0.581 0.52503 0.20414 0.0
N162 N 0.56227 0.49709 0.18207 0.0
N163 N 0.53092 0.47041 0.17617 0.0
C164 C 0.54107 0.49125 0.19687 0.0
C165 C 0.54645 0.46275 0.14706 0.0
C166 C 0.5657 0.47937 0.15069 0.0
O167 O 0.55087 0.56549 0.22548 0.0
C168 C 0.62393 0.46181 0.22499 0.0
O169 O 0.61521 0.4497 0.19615 0.0
H170 H 0.53349 0.50181 0.22269 0.0
H171 H 0.58133 0.47803 0.13204 0.0
N172 N 0.59843 0.54488 0.17289 0.0
N173 N 0.62362 0.57643 0.15566 0.0
C174 C 0.61424 0.56408 0.18325 0.0
C175 C 0.59767 0.54512 0.13744 0.0
C176 C 0.61328 0.56442 0.12674 0.0
C177 C 0.53303 0.58275 0.20213 0.0
O178 O 0.5383 0.57319 0.16891 0.0
H179 H 0.61879 0.56875 0.21064 0.0
H180 H 0.58609 0.53295 0.12051 0.0
O181 O 0.61103 0.49436 0.23523 0.0
H182 H 0.54393 0.4466 0.12461 0.0
H183 H 0.61619 0.56992 0.09978 0.0
Cu184 Cu 0.81555 0.52578 0.52083 0.0
N185 N 0.80082 0.56059 0.4867 0.0
N186 N 0.79936 0.60131 0.44703 0.0
C187 C 0.81466 0.57932 0.47232 0.0
C188 C 0.77499 0.59589 0.44535 0.0
C189 C 0.77601 0.57067 0.46975 0.0
O190 O 0.83647 0.54464 0.55612 0.0
C191 C 0.81563 0.4671 0.47878 0.0
O192 O 0.78904 0.4847 0.4834 0.0
H193 H 0.83554 0.57685 0.48047 0.0
H194 H 0.76003 0.55989 0.47421 0.0
N195 N 0.78869 0.51949 0.54833 0.0
N196 N 0.77323 0.49572 0.59144 0.0
C197 C 0.79525 0.49381 0.5725 0.0
C198 C 0.76148 0.53865 0.55202 0.0
C199 C 0.75178 0.52375 0.57851 0.0
C200 C 0.8238 0.57734 0.56649 0.0
O201 O 0.79989 0.59586 0.55133 0.0
H202 H 0.81599 0.47419 0.57617 0.0
H203 H 0.74972 0.56226 0.5373 0.0
O204 O 0.83295 0.47969 0.49394 0.0
H205 H 0.75788 0.60847 0.42716 0.0
H206 H 0.73087 0.53343 0.58821 0.0
Cu207 Cu 0.61263 0.82795 0.53083 0.0
N208 N 0.62568 0.85072 0.49687 0.0
N209 N 0.65323 0.85779 0.45564 0.0
C210 C 0.65126 0.83824 0.48315 0.0
C211 C 0.62783 0.88365 0.45205 0.0
C212 C 0.61093 0.8792 0.47743 0.0
O213 O 0.6426 0.80832 0.56582 0.0
C214 C 0.58925 0.77294 0.51731 0.0
O215 O 0.5931 0.76592 0.55104 0.0
H216 H 0.66773 0.81423 0.49215 0.0
H217 H 0.58914 0.89487 0.48072 0.0
N218 N 0.58141 0.85999 0.55404 0.0
N219 N 0.54148 0.87876 0.58326 0.0
C220 C 0.55851 0.85322 0.56176 0.0
C221 C 0.57862 0.89129 0.57094 0.0
C222 C 0.55398 0.90302 0.58883 0.0
C223 C 0.63861 0.80305 0.59775 0.0
O224 O 0.61359 0.80639 0.60718 0.0
H225 H 0.55456 0.82964 0.55245 0.0
H226 H 0.594 0.90385 0.5715 0.0
O227 O 0.59982 0.79393 0.50446 0.0
H228 H 0.62177 0.9041 0.43226 0.0
H229 H 0.54657 0.92665 0.60596 0.0
Cu230 Cu 0.32631 0.52271 0.55348 0.0
N231 N 0.34639 0.54083 0.523 0.0
N232 N 0.35404 0.57775 0.48444 0.0
C233 C 0.33622 0.5733 0.50755 0.0
C234 C 0.37634 0.54683 0.48559 0.0
C235 C 0.3716 0.52428 0.5092 0.0
O236 O 0.30676 0.56265 0.58438 0.0
C237 C 0.3162 0.48145 0.50133 0.0
O238 O 0.34342 0.46961 0.50343 0.0
H239 H 0.31565 0.59274 0.51222 0.0
H240 H 0.38529 0.49719 0.51482 0.0
N241 N 0.34779 0.4845 0.58279 0.0
N242 N 0.35853 0.443 0.62511 0.0
C243 C 0.33793 0.46755 0.60629 0.0
C244 C 0.37555 0.47013 0.58687 0.0
C245 C 0.38219 0.44464 0.61261 0.0
C246 C 0.32354 0.57465 0.60095 0.0
O247 O 0.35029 0.55819 0.59631 0.0
H248 H 0.31602 0.47399 0.61022 0.0
H249 H 0.39005 0.47816 0.57282 0.0
O250 O 0.30245 0.50578 0.52307 0.0
H251 H 0.39477 0.54068 0.4702 0.0
H252 H 0.40302 0.42867 0.62144 0.0
Cu253 Cu 0.51724 0.23511 0.53357 0.0
N254 N 0.546 0.20307 0.50726 0.0
N255 N 0.58558 0.18253 0.4777 0.0
C256 C 0.56731 0.21077 0.49518 0.0
C257 C 0.57526 0.15593 0.47905 0.0
C258 C 0.55087 0.16867 0.49737 0.0
O259 O 0.53432 0.26746 0.55595 0.0
C260 C 0.48281 0.25025 0.47042 0.0
O261 O 0.50545 0.22899 0.45515 0.0
H262 H 0.56952 0.23651 0.49988 0.0
H263 H 0.53765 0.15396 0.50313 0.0
N264 N 0.50769 0.21027 0.56866 0.0
N265 N 0.48346 0.19855 0.61103 0.0
C266 C 0.48266 0.21924 0.58329 0.0
C267 C 0.52488 0.1828 0.58753 0.0
C268 C 0.51 0.17554 0.61374 0.0
C269 C 0.53426 0.27436 0.58901 0.0
O270 O 0.51715 0.2662 0.6087 0.0
H271 H 0.4646 0.24174 0.57491 0.0
H272 H 0.54689 0.16985 0.5833 0.0
O273 O 0.48392 0.25795 0.5033 0.0
H274 H 0.58449 0.12921 0.46747 0.0
H275 H 0.51818 0.15528 0.63354 0.0
Dy276 Dy 0.28941 0.29992 0.3219 0.0
Dy277 Dy 0.32219 0.32809 0.26185 0.0
C278 C 0.31456 0.25209 0.25327 0.0
O279 O 0.32999 0.29753 0.34768 0.0
O280 O 0.35539 0.29329 0.29816 0.0
O281 O 0.28954 0.26245 0.36156 0.0
O282 O 0.25204 0.30821 0.35041 0.0
O283 O 0.31874 0.36362 0.30906 0.0
O284 O 0.28052 0.35844 0.33361 0.0
O285 O 0.27661 0.35121 0.24839 0.0
O286 O 0.26249 0.30912 0.27271 0.0
O287 O 0.32654 0.37147 0.23315 0.0
O288 O 0.3529 0.31624 0.22156 0.0
C289 C 0.35392 0.29038 0.33239 0.0
O290 O 0.30992 0.25199 0.28704 0.0
O291 O 0.31541 0.28045 0.23773 0.0
C292 C 0.2466 0.25564 0.37026 0.0
C293 C 0.21557 0.21075 0.37745 0.0
C294 C 0.23091 0.2084 0.34693 0.0
C295 C 0.24631 0.23066 0.34337 0.0
C296 C 0.23106 0.25845 0.40037 0.0
C297 C 0.21569 0.23632 0.40395 0.0
C298 C 0.26323 0.27865 0.36793 0.0
C299 C 0.2981 0.3751 0.33086 0.0
C300 C 0.25898 0.33438 0.2498 0.0
C301 C 0.37105 0.3612 0.21036 0.0
C302 C 0.41677 0.3821 0.19918 0.0
C303 C 0.40525 0.38598 0.23283 0.0
C304 C 0.38261 0.3755 0.23841 0.0
C305 C 0.38244 0.35736 0.1769 0.0
C306 C 0.40503 0.36767 0.17133 0.0
C307 C 0.3472 0.35003 0.2149 0.0
H308 H 0.23147 0.18887 0.32612 0.0
H309 H 0.25817 0.22815 0.31987 0.0
H310 H 0.23091 0.27772 0.4213 0.0
H311 H 0.20375 0.2394 0.42748 0.0
H312 H 0.41397 0.39668 0.25491 0.0
H313 H 0.37418 0.3785 0.26452 0.0
H314 H 0.37375 0.34646 0.15492 0.0
H315 H 0.41306 0.3648 0.14501 0.0
Dy316 Dy 0.81144 0.23829 0.30642 0.0
Dy317 Dy 0.8349 0.28573 0.25702 0.0
C318 C 0.7699 0.30739 0.26811 0.0
O319 O 0.82975 0.20307 0.25956 0.0
O320 O 0.82383 0.24688 0.21965 0.0
O321 O 0.79089 0.20027 0.3101 0.0
O322 O 0.80579 0.21989 0.35759 0.0
O323 O 0.87221 0.23575 0.26758 0.0
O324 O 0.85701 0.22142 0.31894 0.0
O325 O 0.83825 0.30503 0.31309 0.0
O326 O 0.80377 0.29042 0.33647 0.0
O327 O 0.86045 0.31729 0.25158 0.0
O328 O 0.83336 0.31308 0.20806 0.0
C329 C 0.8273 0.21342 0.22679 0.0
O330 O 0.7748 0.27365 0.27518 0.0
O331 O 0.79029 0.31951 0.26667 0.0
C332 C 0.76572 0.20477 0.36167 0.0
C333 C 0.71585 0.20837 0.39254 0.0
C334 C 0.71551 0.23165 0.36537 0.0
C335 C 0.74021 0.22991 0.35011 0.0
C336 C 0.76625 0.18195 0.38907 0.0
C337 C 0.74159 0.18374 0.40442 0.0
C338 C 0.79175 0.2008 0.34445 0.0
C339 C 0.87709 0.21798 0.29713 0.0
C340 C 0.82033 0.30894 0.33802 0.0
C341 C 0.87319 0.32664 0.19484 0.0
C342 C 0.91543 0.3355 0.15564 0.0
C343 C 0.92103 0.30496 0.17635 0.0
C344 C 0.90007 0.30059 0.19584 0.0
C345 C 0.86724 0.35621 0.17302 0.0
C346 C 0.88814 0.36062 0.15357 0.0
C347 C 0.85199 0.32617 0.21934 0.0
H348 H 0.69609 0.2507 0.3553 0.0
H349 H 0.73937 0.24776 0.32891 0.0
H350 H 0.78576 0.16243 0.39838 0.0
H351 H 0.74273 0.16587 0.42568 0.0
H352 H 0.94187 0.28524 0.17873 0.0
H353 H 0.90511 0.27765 0.21272 0.0
H354 H 0.84661 0.37665 0.17203 0.0
H355 H 0.88305 0.38409 0.13743 0.0
Dy356 Dy 0.79692 0.78202 0.24097 0.0
Dy357 Dy 0.83463 0.80837 0.30226 0.0
C358 C 0.76901 0.82685 0.31132 0.0
O359 O 0.80903 0.82334 0.21598 0.0
O360 O 0.81605 0.85433 0.26546 0.0
O361 O 0.76175 0.79234 0.20442 0.0
O362 O 0.79298 0.73877 0.2084 0.0
O363 O 0.86094 0.79116 0.25471 0.0
O364 O 0.84209 0.75165 0.23029 0.0
O365 O 0.83539 0.75414 0.31882 0.0
O366 O 0.79642 0.75244 0.28868 0.0
O367 O 0.87304 0.79613 0.3326 0.0
O368 O 0.83992 0.84803 0.33918 0.0
C369 C 0.81306 0.8512 0.23108 0.0
O370 O 0.76607 0.82153 0.2771 0.0
O371 O 0.79356 0.81971 0.32678 0.0
C372 C 0.74734 0.74245 0.19462 0.0
C373 C 0.70986 0.70534 0.19181 0.0
C374 C 0.7231 0.70962 0.22386 0.0
C375 C 0.74163 0.72802 0.22525 0.0
C376 C 0.73372 0.7391 0.16284 0.0
C377 C 0.71512 0.72081 0.16143 0.0
C378 C 0.76895 0.75847 0.19483 0.0
C379 C 0.86177 0.76538 0.23188 0.0
C380 C 0.81493 0.74192 0.31433 0.0
C381 C 0.88624 0.84602 0.34671 0.0
C382 C 0.92641 0.87908 0.34717 0.0
C383 C 0.90645 0.88483 0.31947 0.0
C384 C 0.88662 0.86838 0.3192 0.0
C385 C 0.90604 0.84015 0.37427 0.0
C386 C 0.92593 0.85641 0.37452 0.0
C387 C 0.86564 0.82831 0.34707 0.0
H388 H 0.71982 0.69779 0.24771 0.0
H389 H 0.75206 0.73017 0.25005 0.0
H390 H 0.73788 0.75004 0.13892 0.0
H391 H 0.70497 0.71866 0.13645 0.0
H392 H 0.90593 0.90236 0.29815 0.0
H393 H 0.87156 0.87318 0.29755 0.0
H394 H 0.90622 0.82277 0.39562 0.0
H395 H 0.9412 0.85073 0.39593 0.0
Dy396 Dy 0.34713 0.79507 0.31346 0.0
Dy397 Dy 0.32508 0.74674 0.25719 0.0
C398 C 0.38998 0.72955 0.26971 0.0
O399 O 0.34709 0.8183 0.25985 0.0
O400 O 0.31407 0.80026 0.23233 0.0
O401 O 0.37065 0.82958 0.32326 0.0
O402 O 0.35135 0.81475 0.36654 0.0
O403 O 0.28838 0.77941 0.28902 0.0
O404 O 0.3014 0.82683 0.30632 0.0
O405 O 0.34595 0.71073 0.30154 0.0
O406 O 0.33818 0.75361 0.34532 0.0
O407 O 0.30734 0.70581 0.24886 0.0
O408 O 0.31768 0.73008 0.20399 0.0
C409 C 0.32878 0.82116 0.23399 0.0
O410 O 0.38458 0.74678 0.30026 0.0
O411 O 0.37013 0.73251 0.24596 0.0
C412 C 0.39508 0.82093 0.37736 0.0
C413 C 0.44884 0.80404 0.40784 0.0
C414 C 0.43749 0.77708 0.40209 0.0
C415 C 0.41088 0.7854 0.38666 0.0
C416 C 0.40602 0.84797 0.38423 0.0
C417 C 0.43262 0.83964 0.39924 0.0
C418 C 0.36857 0.8298 0.3573 0.0
C419 C 0.28202 0.81304 0.29999 0.0
C420 C 0.34387 0.71983 0.33513 0.0
C421 C 0.27914 0.71148 0.19795 0.0
C422 C 0.22758 0.71338 0.16898 0.0
C423 C 0.22887 0.73907 0.19477 0.0
C424 C 0.25443 0.73814 0.2091 0.0
C425 C 0.27806 0.68621 0.1719 0.0
C426 C 0.25252 0.68715 0.15749 0.0
C427 C 0.30595 0.70842 0.21469 0.0
H428 H 0.44959 0.74941 0.40828 0.0
H429 H 0.40297 0.764 0.38111 0.0
H430 H 0.39427 0.87546 0.37702 0.0
H431 H 0.44069 0.86104 0.40373 0.0
H432 H 0.21008 0.75939 0.20452 0.0
H433 H 0.25489 0.75778 0.22937 0.0
H434 H 0.29696 0.66544 0.16303 0.0
H435 H 0.25233 0.66735 0.13729 0.0
Dy436 Dy 0.28001 0.77606 0.80312 0.0
Dy437 Dy 0.31503 0.81537 0.75562 0.0
C438 C 0.24847 0.84338 0.75551 0.0
O439 O 0.28442 0.75112 0.74869 0.0
O440 O 0.32222 0.7624 0.72961 0.0
O441 O 0.2451 0.75886 0.80659 0.0
O442 O 0.27472 0.75041 0.85036 0.0
O443 O 0.34769 0.77494 0.78871 0.0
O444 O 0.32425 0.73856 0.80539 0.0
O445 O 0.29391 0.85356 0.79868 0.0
O446 O 0.29103 0.81421 0.83957 0.0
O447 O 0.34174 0.84623 0.75472 0.0
O448 O 0.32413 0.833 0.70572 0.0
C449 C 0.30521 0.74468 0.72726 0.0
O450 O 0.24934 0.8288 0.78613 0.0
O451 O 0.27061 0.83474 0.736 0.0
C452 C 0.22836 0.75721 0.86406 0.0
C453 C 0.1836 0.7691 0.91004 0.0
C454 C 0.18123 0.79254 0.88218 0.0
C455 C 0.20339 0.7867 0.85946 0.0
C456 C 0.23091 0.73428 0.89214 0.0
C457 C 0.2089 0.7401 0.91481 0.0
C458 C 0.25132 0.74805 0.83888 0.0
C459 C 0.34728 0.74505 0.80202 0.0
C460 C 0.29025 0.84611 0.831 0.0
C461 C 0.36595 0.84516 0.70229 0.0
C462 C 0.41475 0.84431 0.66991 0.0
C463 C 0.41597 0.81853 0.69503 0.0
C464 C 0.3918 0.81901 0.71114 0.0
C465 C 0.3646 0.87036 0.67682 0.0
C466 C 0.38866 0.86999 0.66083 0.0
C467 C 0.34028 0.84851 0.72044 0.0
H468 H 0.16222 0.81533 0.87786 0.0
H469 H 0.20083 0.80489 0.83802 0.0
H470 H 0.24982 0.71119 0.89607 0.0
H471 H 0.21146 0.72105 0.93544 0.0
H472 H 0.4357 0.79851 0.70287 0.0
H473 H 0.39337 0.79937 0.73085 0.0
H474 H 0.34487 0.8908 0.66962 0.0
H475 H 0.38678 0.88982 0.64122 0.0
Dy476 Dy 0.31017 0.24685 0.77548 0.0
Dy477 Dy 0.35013 0.26976 0.83428 0.0
C478 C 0.28439 0.29376 0.84293 0.0
O479 O 0.30819 0.30231 0.76218 0.0
O480 O 0.34947 0.30189 0.78656 0.0
O481 O 0.27271 0.26298 0.74314 0.0
O482 O 0.30313 0.20874 0.738 0.0
O483 O 0.38005 0.23074 0.7975 0.0
O484 O 0.3507 0.23451 0.7497 0.0
O485 O 0.33993 0.22669 0.86113 0.0
O486 O 0.32396 0.20135 0.81362 0.0
O487 O 0.38739 0.25956 0.86696 0.0
O488 O 0.35346 0.31083 0.87054 0.0
C489 C 0.32872 0.31452 0.76368 0.0
O490 O 0.2839 0.26695 0.82233 0.0
O491 O 0.30574 0.30424 0.8438 0.0
C492 C 0.25642 0.21802 0.72097 0.0
C493 C 0.21188 0.19427 0.70658 0.0
C494 C 0.2258 0.18845 0.7397 0.0
C495 C 0.2479 0.20037 0.74689 0.0
C496 C 0.24273 0.22362 0.68798 0.0
C497 C 0.22069 0.21189 0.68082 0.0
C498 C 0.27911 0.23155 0.72736 0.0
C499 C 0.37579 0.22596 0.76364 0.0
C500 C 0.33178 0.20129 0.84717 0.0
C501 C 0.39848 0.3119 0.88161 0.0
C502 C 0.43511 0.35017 0.88741 0.0
C503 C 0.44494 0.3135 0.87739 0.0
C504 C 0.4268 0.29452 0.87449 0.0
C505 C 0.3888 0.34846 0.8919 0.0
C506 C 0.40683 0.36739 0.89459 0.0
C507 C 0.37896 0.29231 0.88016 0.0
H508 H 0.21933 0.17522 0.76018 0.0
H509 H 0.2582 0.19601 0.7726 0.0
H510 H 0.2491 0.23719 0.66767 0.0
H511 H 0.21072 0.21631 0.65492 0.0
H512 H 0.46661 0.29955 0.87153 0.0
H513 H 0.43499 0.26629 0.86682 0.0
H514 H 0.36721 0.36246 0.8982 0.0
H515 H 0.3987 0.39543 0.90297 0.0
Dy516 Dy 0.8225 0.31911 0.81848 0.0
Dy517 Dy 0.78589 0.28688 0.76021 0.0
C518 C 0.85293 0.25518 0.76364 0.0
O519 O 0.82311 0.34241 0.76571 0.0
O520 O 0.78218 0.3406 0.74172 0.0
O521 O 0.84487 0.35423 0.83374 0.0
O522 O 0.84148 0.3163 0.8707 0.0
O523 O 0.75409 0.32675 0.79428 0.0
O524 O 0.77906 0.35901 0.82117 0.0
O525 O 0.8061 0.24569 0.80058 0.0
O526 O 0.8036 0.28539 0.84589 0.0
O527 O 0.75699 0.2595 0.75115 0.0
O528 O 0.7753 0.27465 0.70669 0.0
C529 C 0.80203 0.35382 0.74303 0.0
O530 O 0.85313 0.26866 0.79569 0.0
O531 O 0.83025 0.26446 0.74342 0.0
C532 C 0.88182 0.33141 0.87616 0.0
C533 C 0.93741 0.31864 0.89911 0.0
C534 C 0.93129 0.30922 0.86446 0.0
C535 C 0.9038 0.31546 0.85312 0.0
C536 C 0.88788 0.33988 0.91094 0.0
C537 C 0.91532 0.33354 0.92233 0.0
C538 C 0.85247 0.34009 0.8646 0.0
C539 C 0.75541 0.35498 0.81232 0.0
C540 C 0.80686 0.2528 0.83443 0.0
C541 C 0.73099 0.26964 0.6969 0.0
C542 C 0.67999 0.2813 0.65964 0.0
C543 C 0.68101 0.3015 0.69059 0.0
C544 C 0.70628 0.29575 0.70904 0.0
C545 C 0.73011 0.25001 0.66582 0.0
C546 C 0.70499 0.25569 0.64744 0.0
C547 C 0.75767 0.26061 0.71687 0.0
H548 H 0.94776 0.2973 0.84595 0.0
H549 H 0.8997 0.30828 0.82627 0.0
H550 H 0.87126 0.3521 0.92921 0.0
H551 H 0.9191 0.34155 0.949 0.0
H552 H 0.66229 0.32171 0.70061 0.0
H553 H 0.70645 0.31131 0.73297 0.0
H554 H 0.74887 0.22956 0.65611 0.0
H555 H 0.70511 0.23912 0.62417 0.0
Dy556 Dy 0.80063 0.75355 0.79293 0.0
Dy557 Dy 0.82871 0.7984 0.74441 0.0
C558 C 0.82621 0.72035 0.71789 0.0
O559 O 0.84649 0.72881 0.80207 0.0
O560 O 0.85888 0.77661 0.78921 0.0
O561 O 0.79944 0.70524 0.81559 0.0
O562 O 0.77066 0.75758 0.83243 0.0
O563 O 0.8093 0.83792 0.78869 0.0
O564 O 0.80829 0.79615 0.82785 0.0
O565 O 0.78993 0.80034 0.71532 0.0
O566 O 0.76543 0.78558 0.75747 0.0
O567 O 0.82499 0.84495 0.71424 0.0
O568 O 0.86381 0.7989 0.71581 0.0
C569 C 0.86384 0.74606 0.80502 0.0
O570 O 0.80844 0.72117 0.74216 0.0
O571 O 0.83884 0.7438 0.71791 0.0
C572 C 0.75622 0.70832 0.83711 0.0
C573 C 0.71332 0.68106 0.84281 0.0
C574 C 0.72022 0.68972 0.80967 0.0
C575 C 0.74148 0.70338 0.80685 0.0
C576 C 0.74941 0.69977 0.87009 0.0
C577 C 0.72817 0.68629 0.87296 0.0
C578 C 0.77847 0.72283 0.83534 0.0
C579 C 0.8077 0.82861 0.8212 0.0
C580 C 0.76718 0.79685 0.72588 0.0
C581 C 0.86602 0.85458 0.69951 0.0
C582 C 0.89789 0.89743 0.6886 0.0
C583 C 0.89502 0.88683 0.72281 0.0
C584 C 0.87917 0.8655 0.72824 0.0
C585 C 0.86861 0.86536 0.66559 0.0
C586 C 0.88439 0.88649 0.66013 0.0
C587 C 0.85041 0.83075 0.7033 0.0
H588 H 0.709 0.68629 0.786 0.0
H589 H 0.74639 0.71013 0.78118 0.0
H590 H 0.7606 0.70347 0.89371 0.0
H591 H 0.72367 0.6794 0.89876 0.0
H592 H 0.90493 0.89509 0.74534 0.0
H593 H 0.87737 0.85731 0.75464 0.0
H594 H 0.85874 0.8569 0.6431 0.0
H595 H 0.88653 0.89353 0.63341 0.0
H596 H 0.15327 0.10915 0.42285 0.0
H597 H 0.12618 0.12113 0.31369 0.0
H598 H 0.15343 0.15869 0.30475 0.0
H599 H 0.18421 0.18951 0.32819 0.0
H600 H 0.21143 0.17721 0.43736 0.0
H601 H 0.18453 0.13917 0.44608 0.0
C602 C 0.15314 0.12018 0.39717 0.0
C603 C 0.13763 0.11217 0.36904 0.0
C604 C 0.16882 0.14196 0.3922 0.0
C605 C 0.13814 0.12634 0.33577 0.0
C606 C 0.15363 0.14806 0.33065 0.0
C607 C 0.1845 0.17822 0.3538 0.0
C608 C 0.19975 0.18652 0.38209 0.0
C609 C 0.16904 0.1561 0.35867 0.0
C610 C 0.19955 0.17188 0.41521 0.0
C611 C 0.18427 0.1499 0.42021 0.0
H612 H 0.98858 0.11585 0.36782 0.0
H613 H 0.01462 0.09595 0.26005 0.0
H614 H 0.9693 0.13913 0.24029 0.0
H615 H 0.92151 0.1823 0.25428 0.0
H616 H 0.89716 0.19866 0.363 0.0
H617 H 0.9426 0.15734 0.38156 0.0
C618 C 0.98459 0.12083 0.3399 0.0
C619 C 1.00521 0.10255 0.31551 0.0
C620 C 0.95862 0.14527 0.32888 0.0
C621 C 0.99925 0.10951 0.27948 0.0
C622 C 0.9733 0.13428 0.2682 0.0
C623 C 0.92629 0.17696 0.28202 0.0
C624 C 0.90576 0.19373 0.30718 0.0
C625 C 0.95271 0.15236 0.29272 0.0
C626 C 0.9123 0.18615 0.34298 0.0
C627 C 0.93838 0.16247 0.35371 0.0
H628 H 0.01963 0.94419 0.32387 0.0
H629 H 0.01338 0.95944 0.43667 0.0
H630 H 0.97718 0.93358 0.43616 0.0
H631 H 0.94712 0.9068 0.40377 0.0
H632 H 0.95422 0.88992 0.29107 0.0
H633 H 0.98959 0.91711 0.29141 0.0
C634 C 0.01019 0.94216 0.34831 0.0
C635 C 0.01934 0.95376 0.38028 0.0
C636 C 0.98935 0.92713 0.34784 0.0
C637 C 1.00708 0.95036 0.41175 0.0
C638 C 0.98623 0.93573 0.41145 0.0
C639 C 0.95655 0.90869 0.37927 0.0
C640 C 0.94784 0.89621 0.34744 0.0
C641 C 0.97727 0.92389 0.37968 0.0
C642 C 0.96007 0.89968 0.31593 0.0
C643 C 0.98052 0.91502 0.31612 0.0
H644 H 0.1521 0.88372 0.31896 0.0
H645 H 0.16726 0.98003 0.2961 0.0
H646 H 0.21683 0.94473 0.29026 0.0
H647 H 0.25645 0.88626 0.29372 0.0
H648 H 0.24008 0.79032 0.31464 0.0
H649 H 0.19072 0.82568 0.31956 0.0
C650 C 0.16614 0.89707 0.31237 0.0
C651 C 0.15577 0.93463 0.30801 0.0
C652 C 0.19463 0.87662 0.30919 0.0
C653 C 0.17446 0.95121 0.29936 0.0
C654 C 0.20292 0.93102 0.29631 0.0
C655 C 0.24208 0.87319 0.29964 0.0
C656 C 0.25214 0.83563 0.30428 0.0
C657 C 0.21336 0.89372 0.30166 0.0
C658 C 0.23306 0.81909 0.31114 0.0
C659 C 0.20475 0.83932 0.31387 0.0
H660 H 0.14486 0.95737 0.68022 0.0
H661 H 0.11242 0.96971 0.7849 0.0
H662 H 0.15572 0.9236 0.80592 0.0
H663 H 0.20271 0.87967 0.79412 0.0
H664 H 0.23481 0.86953 0.68929 0.0
H665 H 0.19151 0.91503 0.66876 0.0
C666 C 0.14711 0.95 0.70768 0.0
C667 C 0.12529 0.96684 0.73092 0.0
C668 C 0.17199 0.92386 0.7195 0.0
C669 C 0.12884 0.95717 0.76646 0.0
C670 C 0.15358 0.93078 0.77843 0.0
C671 C 0.20021 0.8873 0.76673 0.0
C672 C 0.22201 0.87098 0.74321 0.0
C673 C 0.17528 0.91387 0.75513 0.0
C674 C 0.21846 0.88156 0.70795 0.0
C675 C 0.19368 0.90759 0.69617 0.0
H676 H 0.10325 0.16456 0.65964 0.0
H677 H 0.14826 0.06411 0.70978 0.0
H678 H 0.18691 0.0841 0.72394 0.0
H679 H 0.20792 0.13027 0.72234 0.0
H680 H 0.16276 0.23104 0.67265 0.0
H681 H 0.1244 0.21068 0.65771 0.0
C682 C 0.12166 0.14694 0.67328 0.0
C683 C 0.12282 0.11297 0.68373 0.0
C684 C 0.14378 0.15869 0.68151 0.0
C685 C 0.14669 0.09058 0.70185 0.0
C686 C 0.16884 0.10194 0.70987 0.0
C687 C 0.18957 0.14789 0.70855 0.0
C688 C 0.18825 0.18209 0.69862 0.0
C689 C 0.16754 0.13605 0.70008 0.0
C690 C 0.16446 0.20441 0.68027 0.0
C691 C 0.14246 0.19284 0.6718 0.0
H692 H 0.95334 0.14257 0.68323 0.0
H693 H 0.99084 0.12977 0.7877 0.0
H694 H 0.94849 0.1755 0.81079 0.0
H695 H 0.90075 0.21909 0.8009 0.0
H696 H 0.86382 0.22987 0.696 0.0
H697 H 0.90621 0.18487 0.67351 0.0
C698 C 0.95241 0.14971 0.71111 0.0
C699 C 0.97537 0.13279 0.73368 0.0
C700 C 0.92808 0.17571 0.72409 0.0
C701 C 0.97353 0.14232 0.76974 0.0
C702 C 0.94932 0.16851 0.7829 0.0
C703 C 0.90199 0.21172 0.77308 0.0
C704 C 0.87903 0.22805 0.75017 0.0
C705 C 0.92646 0.18542 0.76027 0.0
C706 C 0.88102 0.21783 0.71428 0.0
C707 C 0.9053 0.19207 0.70135 0.0
H708 H 0.96009 0.99746 0.63921 0.0
H709 H 0.0205 0.93682 0.71629 0.0
H710 H 0.99112 0.90284 0.72942 0.0
H711 H 0.94824 0.89038 0.71881 0.0
H712 H 0.88686 0.95304 0.64341 0.0
H713 H 0.91665 0.98597 0.62959 0.0
C714 C 0.96689 0.9765 0.65854 0.0
C715 C 0.99244 0.96943 0.67662 0.0
C716 C 0.94967 0.95755 0.66635 0.0
C717 C 1.00084 0.94272 0.70215 0.0
C718 C 0.98407 0.92333 0.70965 0.0
C719 C 0.9412 0.91156 0.69971 0.0
C720 C 0.91538 0.91903 0.68209 0.0
C721 C 0.95835 0.93067 0.69206 0.0
C722 C 0.90681 0.94629 0.65701 0.0
C723 C 0.92379 0.96526 0.64915 0.0
H724 H 0.31382 0.14508 0.12926 0.0
H725 H 0.25234 0.12935 0.19359 0.0
H726 H 0.26085 0.16873 0.23974 0.0
H727 H 0.28415 0.21013 0.26027 0.0
H728 H 0.34424 0.22723 0.19447 0.0
H729 H 0.33866 0.18368 0.15082 0.0
C730 C 0.30258 0.14979 0.15358 0.0
C731 C 0.28244 0.13439 0.15792 0.0
C732 C 0.30757 0.17239 0.17984 0.0
C733 C 0.26765 0.14133 0.18935 0.0
C734 C 0.27268 0.16359 0.21586 0.0
C735 C 0.29648 0.20358 0.23676 0.0
C736 C 0.31473 0.22147 0.23055 0.0
C737 C 0.29242 0.17952 0.21124 0.0
C738 C 0.33015 0.21355 0.1997 0.0
C739 C 0.32684 0.18888 0.1747 0.0
H740 H 0.0224 0.33631 0.08163 0.0
H741 H 0.98891 0.44812 0.11386 0.0
H742 H 0.94844 0.43927 0.13782 0.0
H743 H 0.92412 0.39873 0.15216 0.0
H744 H 0.95812 0.28688 0.11932 0.0
H745 H 0.99728 0.29662 0.09339 0.0
C746 C 1.0064 0.35868 0.09421 0.0
C747 C 0.00884 0.39271 0.09664 0.0
C748 C 0.98343 0.3533 0.10785 0.0
C749 C 0.98747 0.4217 0.11189 0.0
C750 C 0.96445 0.41658 0.12563 0.0
C751 C 0.93988 0.37659 0.13888 0.0
C752 C 0.93824 0.34204 0.13784 0.0
C753 C 0.96237 0.38238 0.12406 0.0
C754 C 0.95907 0.31357 0.12094 0.0
C755 C 0.9814 0.31915 0.10601 0.0
H756 H 0.83315 0.96995 0.14213 0.0
H757 H 0.88543 0.87502 0.08646 0.0
H758 H 0.87326 0.83691 0.12679 0.0
H759 H 0.84595 0.83098 0.17569 0.0
H760 H 0.79709 0.92476 0.23581 0.0
H761 H 0.80935 0.96344 0.19568 0.0
C762 C 0.84194 0.94091 0.13918 0.0
C763 C 0.85995 0.92513 0.11138 0.0
C764 C 0.83518 0.91926 0.16286 0.0
C765 C 0.87165 0.88755 0.10783 0.0
C766 C 0.86454 0.86587 0.13068 0.0
C767 C 0.83803 0.85991 0.18004 0.0
C768 C 0.82026 0.87525 0.20809 0.0
C769 C 0.84602 0.88149 0.15788 0.0
C770 C 0.81056 0.91259 0.21404 0.0
C771 C 0.81761 0.93456 0.19119 0.0
H772 H 0.10627 0.74105 0.10923 0.0
H773 H 0.1363 0.62502 0.10974 0.0
H774 H 0.18105 0.6239 0.1338 0.0
H775 H 0.21179 0.6559 0.15431 0.0
H776 H 0.18199 0.77179 0.15096 0.0
H777 H 0.13703 0.77278 0.12805 0.0
C778 C 0.12259 0.71539 0.11407 0.0
C779 C 0.11773 0.68314 0.10739 0.0
C780 C 0.14839 0.7149 0.12745 0.0
C781 C 0.13918 0.65031 0.11487 0.0
C782 C 0.1649 0.64962 0.12844 0.0
C783 C 0.19557 0.68137 0.14821 0.0
C784 C 0.20034 0.71373 0.15443 0.0
C785 C 0.16976 0.68176 0.13473 0.0
C786 C 0.17885 0.7465 0.14692 0.0
C787 C 0.15315 0.74709 0.13363 0.0
H788 H 0.252 0.98894 0.92299 0.0
H789 H 0.28765 0.91409 1.00588 0.0
H790 H 0.29689 0.86341 0.96351 0.0
H791 H 0.29742 0.84113 0.90208 0.0
H792 H 0.26498 0.91722 0.8189 0.0
H793 H 0.25188 0.96684 0.86203 0.0
C794 C 0.26125 0.96145 0.93168 0.0
C795 C 0.26892 0.95487 0.96721 0.0
C796 C 0.26741 0.93287 0.90707 0.0
C797 C 0.28155 0.91938 0.97845 0.0
C798 C 0.2869 0.8906 0.9543 0.0
C799 C 0.28738 0.86858 0.89352 0.0
C800 C 0.28238 0.8756 0.85748 0.0
C801 C 0.28039 0.89708 0.91841 0.0
C802 C 0.26943 0.91123 0.84656 0.0
C803 C 0.26177 0.93961 0.87116 0.0
H804 H 0.19623 0.38289 0.95443 0.0
H805 H 0.16049 0.30351 0.9238 0.0
H806 H 0.19694 0.27679 0.88114 0.0
H807 H 0.23975 0.27481 0.85381 0.0
H808 H 0.27593 0.35377 0.88499 0.0
H809 H 0.23834 0.38204 0.92576 0.0
C810 C 0.19619 0.36006 0.93811 0.0
C811 C 0.17566 0.34518 0.94245 0.0
C812 C 0.21734 0.34469 0.91372 0.0
C813 C 0.17622 0.3152 0.92138 0.0
C814 C 0.197 0.3 0.89684 0.0
C815 C 0.23935 0.29836 0.8693 0.0
C816 C 0.26071 0.31207 0.86626 0.0
C817 C 0.21782 0.31431 0.89301 0.0
C818 C 0.25983 0.34254 0.88675 0.0
C819 C 0.23833 0.35876 0.91014 0.0
H820 H 0.83806 0.14328 0.95876 0.0
H821 H 0.87311 0.06885 0.87278 0.0
H822 H 0.85816 0.11815 0.83157 0.0
H823 H 0.83384 0.18203 0.81963 0.0
H824 H 0.79928 0.25695 0.9055 0.0
H825 H 0.81482 0.2077 0.94706 0.0
C826 C 0.84239 0.13789 0.931 0.0
C827 C 0.85661 0.1024 0.91891 0.0
C828 C 0.8335 0.16636 0.9074 0.0
C829 C 0.86251 0.0959 0.88292 0.0
C830 C 0.85371 0.12405 0.85926 0.0
C831 C 0.82947 0.18756 0.8474 0.0
C832 C 0.81509 0.22301 0.85944 0.0
C833 C 0.83891 0.15929 0.87115 0.0
C834 C 0.81014 0.22985 0.89558 0.0
C835 C 0.81909 0.20173 0.91934 0.0
H836 H 0.95392 0.67215 0.92258 0.0
H837 H 0.9635 0.77519 0.92253 0.0
H838 H 0.92953 0.79409 0.87408 0.0
H839 H 0.89559 0.78241 0.83328 0.0
H840 H 0.88566 0.67953 0.83372 0.0
H841 H 0.92167 0.65935 0.87981 0.0
C842 C 0.94889 0.69855 0.9117 0.0
C843 C 0.96117 0.72224 0.92653 0.0
C844 C 0.92929 0.7093 0.88373 0.0
C845 C 0.95406 0.75657 0.91222 0.0
C846 C 0.93474 0.76735 0.88427 0.0
C847 C 0.90158 0.75537 0.84305 0.0
C848 C 0.8879 0.73255 0.82997 0.0
C849 C 0.922 0.74409 0.87005 0.0
C850 C 0.89577 0.69773 0.8433 0.0
C851 C 0.91634 0.68616 0.86976 0.0
H852 H 0.16614 0.39331 0.13128 0.0
H853 H 0.16453 0.28618 0.13557 0.0
H854 H 0.19977 0.2723 0.18352 0.0
H855 H 0.23184 0.29064 0.22359 0.0
H856 H 0.234 0.39728 0.21603 0.0
H857 H 0.19761 0.41132 0.17022 0.0
C858 C 0.17332 0.36688 0.14268 0.0
C859 C 0.16251 0.34087 0.12976 0.0
C860 C 0.1937 0.35905 0.16983 0.0
C861 C 0.17241 0.30674 0.14488 0.0
C862 C 0.19255 0.29883 0.17237 0.0
C863 C 0.22409 0.31708 0.21217 0.0
C864 C 0.23555 0.343 0.2235 0.0
C865 C 0.20341 0.32479 0.18505 0.0
C866 C 0.22561 0.37686 0.20792 0.0
C867 C 0.20478 0.38491 0.18165 0.0
H868 H 0.10009 0.75749 0.02227 0.0
H869 H 0.04402 0.78486 0.93231 0.0
H870 H 0.0794 0.79564 0.89806 0.0
H871 H 0.12839 0.78858 0.89136 0.0
H872 H 0.18486 0.75937 0.98127 0.0
H873 H 0.14746 0.75787 0.01771 0.0
C874 C 0.09533 0.76725 0.99563 0.0
C875 C 0.0693 0.77134 0.98004 0.0
C876 C 0.11617 0.77207 0.97577 0.0
C877 C 0.06367 0.78256 0.94507 0.0
C878 C 0.08405 0.7882 0.92538 0.0
C879 C 0.13242 0.78274 0.91911 0.0
C880 C 0.15969 0.7735 0.93324 0.0
C881 C 0.11072 0.78178 0.94005 0.0
C882 C 0.16435 0.76573 0.96932 0.0
C883 C 0.14288 0.76507 0.99032 0.0
H884 H 0.29605 0.09004 0.92945 0.0
H885 H 0.35076 0.10791 1.0101 0.0
H886 H 0.36291 0.14721 0.97051 0.0
H887 H 0.35496 0.18033 0.91384 0.0
H888 H 0.30123 0.159 0.83341 0.0
H889 H 0.29188 0.1175 0.87184 0.0
C890 C 0.31101 0.10206 0.93827 0.0
C891 C 0.32243 0.09595 0.97285 0.0
C892 C 0.31787 0.12446 0.91535 0.0
C893 C 0.34184 0.11173 0.98362 0.0
C894 C 0.34857 0.13453 0.96101 0.0
C895 C 0.34142 0.16634 0.90458 0.0
C896 C 0.32875 0.17326 0.87049 0.0
C897 C 0.33627 0.14172 0.92695 0.0
C898 C 0.31142 0.15447 0.85918 0.0
C899 C 0.30593 0.13066 0.88129 0.0
H900 H 0.05487 0.33158 0.92619 0.0
H901 H 0.04617 0.29383 0.02833 0.0
H902 H 1.00287 0.28647 1.00801 0.0
H903 H 0.96521 0.29624 0.96242 0.0
H904 H 0.97464 0.33498 0.86081 0.0
H905 H 0.01991 0.336 0.87953 0.0
C906 C 0.0438 0.32103 0.94383 0.0
C907 C 0.05377 0.31331 0.97876 0.0
C908 C 0.01882 0.31734 0.93207 0.0
C909 C 0.03917 0.29962 1.00123 0.0
C910 C 0.01422 0.29578 0.98968 0.0
C911 C 0.97724 0.30473 0.94432 0.0
C912 C 0.96628 0.31566 0.91018 0.0
C913 C 1.00345 0.30547 0.95539 0.0
C914 C 0.98247 0.32606 0.88701 0.0
C915 C 0.00838 0.32689 0.8978 0.0
H916 H 0.83279 0.89976 0.96416 0.0
H917 H 0.79503 0.99777 0.90746 0.0
H918 H 0.7858 0.96332 0.85649 0.0
H919 H 0.7918 0.90365 0.82633 0.0
H920 H 0.82837 0.80717 0.88641 0.0
H921 H 0.83475 0.84244 0.93708 0.0
C922 C 0.82202 0.91378 0.9409 0.0
C923 C 0.8145 0.95143 0.93988 0.0
C924 C 0.8169 0.89379 0.91183 0.0
C925 C 0.80066 0.96897 0.90937 0.0
C926 C 0.7957 0.94911 0.87999 0.0
C927 C 0.80097 0.89043 0.85059 0.0
C928 C 0.80959 0.85245 0.85211 0.0
C929 C 0.80425 0.91127 0.88057 0.0
C930 C 0.82129 0.8361 0.8841 0.0
C931 C 0.82507 0.85632 0.91331 0.0
H932 H 0.94604 0.70097 0.10862 0.0
H933 H 0.96161 0.79926 0.1287 0.0
H934 H 0.9281 0.81569 0.17625 0.0
H935 H 0.8946 0.80176 0.21239 0.0
H936 H 0.87798 0.70448 0.18997 0.0
H937 H 0.91206 0.68782 0.14343 0.0
C938 C 0.94221 0.72604 0.12333 0.0
C939 C 0.95656 0.74874 0.11505 0.0
C940 C 0.92289 0.73531 0.15051 0.0
C941 C 0.95098 0.78123 0.13439 0.0
C942 C 0.93187 0.79055 0.16171 0.0
C943 C 0.89861 0.7767 0.19758 0.0
C944 C 0.88383 0.75421 0.20504 0.0
C945 C 0.91782 0.76768 0.17015 0.0
C946 C 0.88903 0.72223 0.18503 0.0
C947 C 0.9085 0.71273 0.15829 0.0
H948 H 0.28336 0.93683 0.11527 0.0
H949 H 0.35948 0.95484 0.13922 0.0
H950 H 0.3724 0.90703 0.18302 0.0
H951 H 0.36059 0.8614 0.21653 0.0
H952 H 0.28407 0.84486 0.18945 0.0
H953 H 0.27287 0.89078 0.14538 0.0
C954 C 0.30292 0.93033 0.12989 0.0
C955 C 0.32032 0.94974 0.12396 0.0
C956 C 0.31006 0.90306 0.15488 0.0
C957 C 0.34571 0.94036 0.14299 0.0
C958 C 0.35297 0.91314 0.16826 0.0
C959 C 0.34149 0.86785 0.20095 0.0
C960 C 0.3232 0.84942 0.20672 0.0
C961 C 0.3351 0.89453 0.17483 0.0
C962 C 0.29868 0.85817 0.18588 0.0
C963 C 0.29215 0.88461 0.16052 0.0
H964 H 0.86282 0.07566 0.12566 0.0
H965 H 0.78913 0.138 0.06716 0.0
H966 H 0.78092 0.18796 0.11065 0.0
H967 H 0.79576 0.21445 0.16559 0.0
H968 H 0.8683 0.14857 0.22417 0.0
H969 H 0.87609 0.09995 0.18031 0.0
C970 C 0.84482 0.1001 0.12234 0.0
C971 C 0.82668 0.10294 0.09292 0.0
C972 C 0.84024 0.1284 0.14747 0.0
C973 C 0.80335 0.1348 0.08954 0.0
C974 C 0.79881 0.16352 0.11435 0.0
C975 C 0.81336 0.18952 0.16847 0.0
C976 C 0.83168 0.18539 0.19805 0.0
C977 C 0.8173 0.16082 0.14336 0.0
C978 C 0.85401 0.15259 0.20174 0.0
C979 C 0.85844 0.12469 0.17665 0.0
H980 H 0.6309 0.59685 0.84076 0.0
H981 H 0.5994 0.66678 0.93111 0.0
H982 H 0.63399 0.69434 0.92398 0.0
H983 H 0.67315 0.69866 0.89195 0.0
H984 H 0.7039 0.62919 0.80115 0.0
H985 H 0.66888 0.60221 0.80793 0.0
C986 C 0.63118 0.61847 0.85865 0.0
C987 C 0.61235 0.62968 0.88643 0.0
C988 C 0.6509 0.63448 0.85416 0.0
C989 C 0.61373 0.65724 0.90975 0.0
C990 C 0.63342 0.6732 0.90555 0.0
C991 C 0.67225 0.67751 0.87372 0.0
C992 C 0.69116 0.66592 0.8461 0.0
C993 C 0.65216 0.66197 0.8779 0.0
C994 C 0.68942 0.6389 0.82238 0.0
C995 C 0.66953 0.62328 0.8264 0.0
H996 H 0.44718 0.61987 0.87102 0.0
H997 H 0.49097 0.63916 0.78428 0.0
H998 H 0.44831 0.6871 0.76397 0.0
H999 H 0.39844 0.72477 0.77224 0.0
H1000 H 0.35517 0.70168 0.85761 0.0
H1001 H 0.39776 0.65432 0.8773 0.0
C1002 C 0.44742 0.63444 0.84755 0.0
C1003 C 0.47228 0.6261 0.82931 0.0
C1004 C 0.4229 0.66158 0.83601 0.0
C1005 C 0.4721 0.64493 0.7987 0.0
C1006 C 0.44774 0.67251 0.78726 0.0
C1007 C 0.39848 0.70945 0.79526 0.0
C1008 C 0.37372 0.71702 0.81371 0.0
C1009 C 0.42304 0.68137 0.80596 0.0
C1010 C 0.37391 0.69648 0.84303 0.0
C1011 C 0.39826 0.66935 0.8543 0.0
H1012 H 0.5265 0.41939 0.91795 0.0
H1013 H 0.46555 0.50703 0.86305 0.0
H1014 H 0.43519 0.47235 0.85537 0.0
H1015 H 0.42602 0.41712 0.86409 0.0
H1016 H 0.48693 0.32897 0.91856 0.0
H1017 H 0.51742 0.36359 0.92627 0.0
C1018 C 0.50646 0.43093 0.90462 0.0
C1019 C 0.49823 0.46575 0.89117 0.0
C1020 C 0.48924 0.41065 0.89999 0.0
C1021 C 0.47241 0.48019 0.87338 0.0
C1022 C 0.45504 0.46041 0.86907 0.0
C1023 C 0.4459 0.40556 0.87783 0.0
C1024 C 0.45414 0.37058 0.89085 0.0
C1025 C 0.46325 0.42561 0.8822 0.0
C1026 C 0.4802 0.35572 0.90802 0.0
C1027 C 0.49755 0.3756 0.91264 0.0
H1028 H 0.65549 0.48452 0.87505 0.0
H1029 H 0.61143 0.45778 0.78637 0.0
H1030 H 0.65435 0.40925 0.76839 0.0
H1031 H 0.70428 0.37321 0.77946 0.0
H1032 H 0.74763 0.40267 0.86748 0.0
H1033 H 0.70497 0.45119 0.88433 0.0
C1034 C 0.65521 0.46819 0.85167 0.0
C1035 C 0.63022 0.47459 0.83222 0.0
C1036 C 0.67981 0.44061 0.84161 0.0
C1037 C 0.63038 0.4535 0.80173 0.0
C1038 C 0.65488 0.42561 0.79162 0.0
C1039 C 0.70431 0.39015 0.80244 0.0
C1040 C 0.72911 0.38402 0.82244 0.0
C1041 C 0.67968 0.41863 0.81165 0.0
C1042 C 0.72891 0.40668 0.8517 0.0
C1043 C 0.7045 0.43447 0.86135 0.0
H1044 H 0.64406 0.3894 0.22551 0.0
H1045 H 0.66381 0.4815 0.26063 0.0
H1046 H 0.71102 0.44177 0.27743 0.0
H1047 H 0.74777 0.3807 0.27774 0.0
H1048 H 0.72643 0.2892 0.24421 0.0
H1049 H 0.67888 0.32881 0.23097 0.0
C1050 C 0.65856 0.4008 0.23735 0.0
C1051 C 0.65045 0.43838 0.24169 0.0
C1052 C 0.68555 0.37786 0.2467 0.0
C1053 C 0.66943 0.45267 0.25728 0.0
C1054 C 0.69652 0.42995 0.26653 0.0
C1055 C 0.73267 0.3695 0.26756 0.0
C1056 C 0.74081 0.33201 0.26148 0.0
C1057 C 0.70502 0.39251 0.26058 0.0
C1058 C 0.72084 0.31787 0.24897 0.0
C1059 C 0.6936 0.34053 0.2414 0.0
H1060 H 0.62629 0.62356 0.20738 0.0
H1061 H 0.65961 0.57859 0.10656 0.0
H1062 H 0.68884 0.61496 0.10852 0.0
H1063 H 0.70583 0.65842 0.1395 0.0
H1064 H 0.67197 0.70415 0.23998 0.0
H1065 H 0.6426 0.66799 0.23785 0.0
C1066 C 0.6401 0.62147 0.18596 0.0
C1067 C 0.64074 0.5982 0.15689 0.0
C1068 C 0.6569 0.64248 0.18728 0.0
C1069 C 0.65844 0.59645 0.12908 0.0
C1070 C 0.67529 0.61713 0.13027 0.0
C1071 C 0.69178 0.6609 0.16076 0.0
C1072 C 0.69125 0.68406 0.1899 0.0
C1073 C 0.67472 0.64022 0.15926 0.0
C1074 C 0.67319 0.68626 0.21745 0.0
C1075 C 0.65623 0.66571 0.21617 0.0
H1076 H 0.51466 0.61877 0.2656 0.0
H1077 H 0.48917 0.60956 0.15716 0.0
H1078 H 0.44366 0.65392 0.16817 0.0
H1079 H 0.41027 0.69498 0.20803 0.0
H1080 H 0.43448 0.70672 0.31634 0.0
H1081 H 0.48085 0.6624 0.30583 0.0
C1082 C 0.49914 0.62656 0.24446 0.0
C1083 C 0.50559 0.61062 0.21061 0.0
C1084 C 0.47257 0.65276 0.25082 0.0
C1085 C 0.48511 0.62126 0.18349 0.0
C1086 C 0.45887 0.64673 0.1897 0.0
C1087 C 0.42566 0.68801 0.22939 0.0
C1088 C 0.41872 0.70421 0.26291 0.0
C1089 C 0.4523 0.66262 0.22319 0.0
C1090 C 0.43914 0.69481 0.29015 0.0
C1091 C 0.46573 0.66931 0.28421 0.0
H1092 H 0.5238 0.40941 0.15311 0.0
H1093 H 0.48683 0.50569 0.21673 0.0
H1094 H 0.44877 0.48632 0.23059 0.0
H1095 H 0.42529 0.44261 0.22366 0.0
H1096 H 0.46234 0.34625 0.16007 0.0
H1097 H 0.50072 0.36528 0.14686 0.0
C1098 C 0.50731 0.42628 0.16977 0.0
C1099 C 0.50827 0.45895 0.18385 0.0
C1100 C 0.48539 0.41499 0.17762 0.0
C1101 C 0.48688 0.48021 0.20587 0.0
C1102 C 0.46499 0.46923 0.21369 0.0
C1103 C 0.44192 0.42557 0.20724 0.0
C1104 C 0.4408 0.39311 0.19278 0.0
C1105 C 0.46401 0.43667 0.19973 0.0
C1106 C 0.46241 0.37161 0.17117 0.0
C1107 C 0.48446 0.3824 0.16369 0.0
H1108 H 0.83157 0.64069 0.56961 0.0
H1109 H 0.83297 0.55365 0.63419 0.0
H1110 H 0.83393 0.58994 0.68762 0.0
H1111 H 0.82966 0.64937 0.71585 0.0
H1112 H 0.83138 0.7343 0.64998 0.0
H1113 H 0.83389 0.69623 0.59753 0.0
C1114 C 0.83304 0.62925 0.59542 0.0
C1115 C 0.83267 0.59429 0.5979 0.0
C1116 C 0.83356 0.65032 0.62591 0.0
C1117 C 0.83397 0.58009 0.63152 0.0
C1118 C 0.83408 0.60112 0.66209 0.0
C1119 C 0.83088 0.65932 0.69002 0.0
C1120 C 0.83012 0.69488 0.68695 0.0
C1121 C 0.8331 0.63672 0.65965 0.0
C1122 C 0.83201 0.70714 0.65325 0.0
C1123 C 0.83339 0.68537 0.62313 0.0
H1124 H 0.52882 0.8204 0.59728 0.0
H1125 H 0.49784 0.93626 0.60589 0.0
H1126 H 0.45608 0.93585 0.63371 0.0
H1127 H 0.42833 0.90262 0.65581 0.0
H1128 H 0.45918 0.78676 0.64655 0.0
H1129 H 0.50096 0.78721 0.61885 0.0
C1130 C 0.51284 0.84564 0.60481 0.0
C1131 C 0.51657 0.87838 0.59925 0.0
C1132 C 0.48884 0.84519 0.62089 0.0
C1133 C 0.49574 0.91068 0.61003 0.0
C1134 C 0.47176 0.91046 0.62584 0.0
C1135 C 0.44406 0.87744 0.64747 0.0
C1136 C 0.44045 0.84468 0.6533 0.0
C1137 C 0.46808 0.87789 0.63143 0.0
C1138 C 0.46142 0.81235 0.64284 0.0
C1139 C 0.48529 0.8126 0.62677 0.0
H1140 H 0.31533 0.42153 0.63804 0.0
H1141 H 0.39666 0.41383 0.67734 0.0
H1142 H 0.39436 0.37464 0.72367 0.0
H1143 H 0.36997 0.341 0.75294 0.0
H1144 H 0.28852 0.34861 0.71432 0.0
H1145 H 0.29012 0.38936 0.66874 0.0
C1146 C 0.33247 0.41161 0.65687 0.0
C1147 C 0.35627 0.42068 0.65352 0.0
C1148 C 0.33103 0.38887 0.68396 0.0
C1149 C 0.37826 0.40704 0.67838 0.0
C1150 C 0.37692 0.38466 0.70526 0.0
C1151 C 0.35242 0.35176 0.7348 0.0
C1152 C 0.32913 0.34153 0.73742 0.0
C1153 C 0.35352 0.37514 0.70824 0.0
C1154 C 0.30675 0.35582 0.71326 0.0
C1155 C 0.30766 0.37919 0.68699 0.0
H1156 H 0.58036 0.27832 0.55874 0.0
H1157 H 0.54006 0.29115 0.65849 0.0
H1158 H 0.58072 0.29688 0.68886 0.0
H1159 H 0.62945 0.29229 0.68797 0.0
H1160 H 0.66975 0.27977 0.58826 0.0
H1161 H 0.62759 0.27961 0.55732 0.0
C1162 C 0.58022 0.28306 0.58704 0.0
C1163 C 0.55708 0.28409 0.60621 0.0
C1164 C 0.60394 0.2858 0.60456 0.0
C1165 C 0.55749 0.29011 0.64294 0.0
C1166 C 0.58085 0.29324 0.66044 0.0
C1167 C 0.62891 0.29028 0.65943 0.0
C1168 C 0.65307 0.28555 0.64067 0.0
C1169 C 0.60447 0.29025 0.64165 0.0
C1170 C 0.65181 0.28262 0.60361 0.0
C1171 C 0.62758 0.28274 0.58579 0.0
H1172 H 0.78602 0.42469 0.46318 0.0
H1173 H 0.86294 0.43674 0.43911 0.0
H1174 H 0.87161 0.38859 0.39365 0.0
H1175 H 0.85557 0.34517 0.35822 0.0
H1176 H 0.77864 0.33398 0.38486 0.0
H1177 H 0.7718 0.3796 0.43144 0.0
C1178 C 0.80487 0.41667 0.44825 0.0
C1179 C 0.82373 0.43461 0.4546 0.0
C1180 C 0.80959 0.38918 0.42221 0.0
C1181 C 0.84813 0.4234 0.43509 0.0
C1182 C 0.85295 0.396 0.40884 0.0
C1183 C 0.83737 0.35261 0.37431 0.0
C1184 C 0.81757 0.33599 0.36757 0.0
C1185 C 0.83357 0.37904 0.40172 0.0
C1186 C 0.79427 0.34599 0.38909 0.0
C1187 C 0.79028 0.37225 0.41587 0.0
H1188 H 0.65308 0.87215 0.38631 0.0
H1189 H 0.70737 0.82848 0.47558 0.0
H1190 H 0.74784 0.81653 0.43914 0.0
H1191 H 0.76797 0.81756 0.38185 0.0
H1192 H 0.71404 0.85893 0.29163 0.0
H1193 H 0.6734 0.87307 0.32852 0.0
C1194 C 0.67376 0.86036 0.39788 0.0
C1195 C 0.67707 0.85131 0.43381 0.0
C1196 C 0.69706 0.85324 0.37658 0.0
C1197 C 0.70411 0.83542 0.44807 0.0
C1198 C 0.72731 0.82874 0.42724 0.0
C1199 C 0.74736 0.83012 0.37024 0.0
C1200 C 0.74419 0.83757 0.33396 0.0
C1201 C 0.72406 0.83745 0.39146 0.0
C1202 C 0.7172 0.85307 0.31942 0.0
C1203 C 0.69391 0.8611 0.34054 0.0
H1204 H 0.37572 0.57621 0.42038 0.0
H1205 H 0.32241 0.64808 0.49702 0.0
H1206 H 0.31529 0.69908 0.45883 0.0
H1207 H 0.32388 0.72344 0.40253 0.0
H1208 H 0.37614 0.64972 0.32594 0.0
H1209 H 0.38425 0.59989 0.3652 0.0
C1210 C 0.36276 0.60303 0.42901 0.0
C1211 C 0.34976 0.60806 0.4618 0.0
C1212 C 0.35857 0.6322 0.40674 0.0
C1213 C 0.33255 0.64316 0.47192 0.0
C1214 C 0.32858 0.67245 0.45009 0.0
C1215 C 0.3372 0.69652 0.39462 0.0
C1216 C 0.34936 0.69057 0.36113 0.0
C1217 C 0.34144 0.66737 0.4173 0.0
C1218 C 0.36633 0.65529 0.35131 0.0
C1219 C 0.37104 0.62662 0.37382 0.0
H1220 H 0.47514 0.23971 0.40028 0.0
H1221 H 0.42995 0.28734 0.49386 0.0
H1222 H 0.38608 0.30313 0.45991 0.0
H1223 H 0.3604 0.30259 0.40336 0.0
H1224 H 0.40662 0.25564 0.31024 0.0
H1225 H 0.45002 0.2402 0.34436 0.0
C1226 C 0.45575 0.25369 0.41338 0.0
C1227 C 0.45601 0.26227 0.44972 0.0
C1228 C 0.43064 0.26258 0.39374 0.0
C1229 C 0.43052 0.28047 0.46597 0.0
C1230 C 0.40537 0.28937 0.44656 0.0
C1231 C 0.37997 0.28876 0.39061 0.0
C1232 C 0.3801 0.28012 0.35419 0.0
C1233 C 0.40513 0.28033 0.41042 0.0
C1234 C 0.40575 0.26267 0.3381 0.0
C1235 C 0.43067 0.25382 0.35763 0.0
H1236 H 0.68534 0.81892 0.59346 0.0
H1237 H 0.64168 0.77688 0.66397 0.0
H1238 H 0.67678 0.77247 0.71042 0.0
H1239 H 0.72005 0.78077 0.73117 0.0
H1240 H 0.76245 0.82474 0.66045 0.0
H1241 H 0.72759 0.82854 0.61443 0.0
C1242 C 0.68362 0.80846 0.61887 0.0
C1243 C 0.661 0.79794 0.62504 0.0
C1244 C 0.70354 0.80675 0.64573 0.0
C1245 C 0.65892 0.78503 0.65839 0.0
C1246 C 0.67895 0.78263 0.68505 0.0
C1247 C 0.7215 0.79159 0.70585 0.0
C1248 C 0.74397 0.80249 0.69955 0.0
C1249 C 0.7013 0.79364 0.67913 0.0
C1250 C 0.7455 0.81613 0.66631 0.0
C1251 C 0.72558 0.81821 0.63977 0.0
H1252 H 0.59809 0.23886 0.45658 0.0
H1253 H 0.63066 0.12308 0.46244 0.0
H1254 H 0.67356 0.12087 0.43613 0.0
H1255 H 0.70208 0.15175 0.41181 0.0
H1256 H 0.67018 0.26769 0.40853 0.0
H1257 H 0.62684 0.26976 0.43361 0.0
C1258 C 0.61459 0.2131 0.45255 0.0
C1259 C 0.61093 0.18119 0.4617 0.0
C1260 C 0.63942 0.21201 0.43778 0.0
C1261 C 0.63256 0.14809 0.45539 0.0
C1262 C 0.65726 0.14679 0.44051 0.0
C1263 C 0.68579 0.17753 0.41693 0.0
C1264 C 0.68951 0.20952 0.40822 0.0
C1265 C 0.66096 0.17859 0.4317 0.0
C1266 C 0.66786 0.2426 0.41447 0.0
C1267 C 0.64309 0.24384 0.42903 0.0
H1268 H 0.76539 0.66105 0.41561 0.0
H1269 H 0.85175 0.5953 0.43062 0.0
H1270 H 0.86498 0.63456 0.39298 0.0
H1271 H 0.85157 0.68639 0.3527 0.0
H1272 H 0.76459 0.74928 0.33678 0.0
H1273 H 0.75218 0.71248 0.37755 0.0
C1274 C 0.78711 0.65504 0.41049 0.0
C1275 C 0.80743 0.62503 0.42576 0.0
C1276 C 0.79452 0.67734 0.38846 0.0
C1277 C 0.83557 0.61832 0.41945 0.0
C1278 C 0.84319 0.6407 0.39772 0.0
C1279 C 0.83 0.69204 0.3585 0.0
C1280 C 0.80906 0.7202 0.34144 0.0
C1281 C 0.82281 0.67015 0.38172 0.0
C1282 C 0.78112 0.72735 0.34913 0.0
C1283 C 0.77394 0.70638 0.37252 0.0
H1284 H 0.56972 0.79531 0.45149 0.0
H1285 H 0.55536 0.73843 0.53872 0.0
H1286 H 0.51138 0.74033 0.51103 0.0
H1287 H 0.47444 0.76436 0.4651 0.0
H1288 H 0.48847 0.82424 0.3803 0.0
H1289 H 0.53493 0.81516 0.40408 0.0
C1290 C 0.5573 0.78268 0.46427 0.0
C1291 C 0.5659 0.76694 0.49734 0.0
C1292 C 0.53161 0.785 0.44885 0.0
C1293 C 0.54937 0.75074 0.51329 0.0
C1294 C 0.52405 0.75207 0.49758 0.0
C1295 C 0.48787 0.77494 0.45165 0.0
C1296 C 0.47789 0.79534 0.42122 0.0
C1297 C 0.51454 0.77012 0.46587 0.0
C1298 C 0.49548 0.809 0.40408 0.0
C1299 C 0.5221 0.80368 0.41758 0.0
H1300 H 0.32893 0.48075 0.43414 0.0
H1301 H 0.27459 0.45414 0.50184 0.0
H1302 H 0.26074 0.42202 0.45248 0.0
H1303 H 0.26985 0.39443 0.39246 0.0
H1304 H 0.32504 0.42176 0.32608 0.0
H1305 H 0.33243 0.46128 0.37236 0.0
C1306 C 0.31359 0.46854 0.43778 0.0
C1307 C 0.30293 0.46927 0.47129 0.0
C1308 C 0.30611 0.45006 0.40964 0.0
C1309 C 0.28293 0.45381 0.47603 0.0
C1310 C 0.27523 0.43528 0.44793 0.0
C1311 C 0.28295 0.4097 0.38784 0.0
C1312 C 0.29731 0.40456 0.35609 0.0
C1313 C 0.28749 0.43215 0.41491 0.0
C1314 C 0.3141 0.4247 0.35046 0.0
C1315 C 0.3184 0.44731 0.37693 0.0
H1316 H 0.4875 0.18545 0.68079 0.0
H1317 H 0.42887 0.22051 0.59376 0.0
H1318 H 0.39049 0.22985 0.63318 0.0
H1319 H 0.37351 0.23034 0.69239 0.0
H1320 H 0.43158 0.19764 0.78044 0.0
H1321 H 0.47031 0.18453 0.74048 0.0
C1322 C 0.46635 0.19467 0.6704 0.0
C1323 C 0.46107 0.20231 0.63431 0.0
C1324 C 0.44431 0.20037 0.69338 0.0
C1325 C 0.43349 0.21481 0.62141 0.0
C1326 C 0.41154 0.22 0.64393 0.0
C1327 C 0.39462 0.2199 0.70295 0.0
C1328 C 0.39956 0.21483 0.73947 0.0
C1329 C 0.4167 0.21319 0.67998 0.0
C1330 C 0.42712 0.20174 0.7525 0.0
C1331 C 0.44929 0.19432 0.72965 0.0
H1332 H 0.81552 0.46415 0.63694 0.0
H1333 H 0.73102 0.47569 0.60998 0.0
H1334 H 0.73222 0.43338 0.65564 0.0
H1335 H 0.75803 0.3912 0.70113 0.0
H1336 H 0.84273 0.37951 0.72795 0.0
H1337 H 0.84077 0.42374 0.68409 0.0
C1338 C 0.79742 0.45726 0.64092 0.0
C1339 C 0.7733 0.4727 0.61982 0.0
C1340 C 0.79836 0.43283 0.66703 0.0
C1341 C 0.74976 0.46427 0.62595 0.0
C1342 C 0.75052 0.43993 0.65189 0.0
C1343 C 0.77611 0.39827 0.69745 0.0
C1344 C 0.80061 0.38175 0.71761 0.0
C1345 C 0.77482 0.42373 0.67226 0.0
C1346 C 0.82365 0.39169 0.71276 0.0
C1347 C 0.82256 0.41695 0.68765 0.0
H1348 H 0.35185 0.61765 0.61723 0.0
H1349 H 0.27389 0.60525 0.63465 0.0
H1350 H 0.26063 0.65795 0.67505 0.0
H1351 H 0.27263 0.70584 0.70722 0.0
H1352 H 0.35092 0.71699 0.68734 0.0
H1353 H 0.36254 0.66637 0.64596 0.0
C1354 C 0.33192 0.6264 0.62986 0.0
C1355 C 0.31401 0.60743 0.62346 0.0
C1356 C 0.32454 0.65645 0.6526 0.0
C1357 C 0.28804 0.61949 0.63936 0.0
C1358 C 0.28054 0.64949 0.66248 0.0
C1359 C 0.29216 0.69726 0.6937 0.0
C1360 C 0.3109 0.71514 0.70063 0.0
C1361 C 0.29882 0.66793 0.66961 0.0
C1362 C 0.33604 0.70385 0.68265 0.0
C1363 C 0.34281 0.67479 0.65896 0.0
loop_
_geom_bond_atom_site_label_1
_geom_bond_atom_site_label_2
_geom_bond_distance
_geom_bond_site_symmetry_2
_ccdc_geom_bond_type
Cu0 N1 1.999 . S
Cu0 O6 1.974 . S
Cu0 N11 2.015 . S
Cu0 O20 1.959 . S
N1 Cu0 1.999 . S
N1 C3 1.263 . S
N1 C5 1.389 . S
N2 C3 1.358 . S
N2 C4 1.400 . S
C3 N1 1.263 . S
C3 N2 1.358 . S
C3 H9 0.930 . S
C4 N2 1.400 . S
C4 C5 1.351 . S
C4 H21 0.930 . S
C5 N1 1.389 . S
C5 C4 1.351 . S
C5 H10 0.930 . S
O6 Cu0 1.974 . S
O6 C16 1.282 1_545 S
C7 O8 1.261 . S
C7 O20 1.251 . S
O8 C7 1.261 . S
H9 C3 0.930 . S
H10 C5 0.930 . S
N11 Cu0 2.015 . S
N11 C13 1.326 . S
N11 C14 1.362 1_545 S
N12 C13 1.345 1_565 S
N12 C15 1.336 . S
C13 N11 1.326 . S
C13 N12 1.345 1_545 S
C13 H18 0.930 . S
C14 N11 1.362 1_565 S
C14 C15 1.346 . S
C14 H19 0.930 . S
C15 N12 1.336 . S
C15 C14 1.346 . S
C15 H22 0.929 . S
C16 O6 1.282 1_565 S
C16 O17 1.216 . S
O17 C16 1.216 . S
H18 C13 0.930 . S
H19 C14 0.930 . S
O20 Cu0 1.959 . S
O20 C7 1.251 . S
H21 C4 0.930 . S
H22 C15 0.929 . S
Cu23 N24 1.999 1_545 S
Cu23 O29 1.974 . S
Cu23 N34 1.985 . S
Cu23 O43 1.959 1_545 S
N24 Cu23 1.999 1_565 S
N24 C26 1.263 . S
N24 C28 1.389 . S
N25 C26 1.358 . S
N25 C27 1.400 . S
C26 N24 1.263 . S
C26 N25 1.358 . S
C26 H32 0.930 . S
C27 N25 1.400 . S
C27 C28 1.351 . S
C27 H44 0.930 . S
C28 N24 1.389 . S
C28 C27 1.351 . S
C28 H33 0.930 . S
O29 Cu23 1.974 . S
O29 C39 1.282 . S
C30 O31 1.261 . S
C30 O43 1.251 . S
O31 C30 1.261 . S
H32 C26 0.930 . S
H33 C28 0.930 . S
N34 Cu23 1.985 . S
N34 C36 1.335 . S
N34 C37 1.390 . S
N35 C36 1.345 . S
N35 C38 1.336 . S
C36 N34 1.335 . S
C36 N35 1.345 . S
C36 H41 0.930 . S
C37 N34 1.390 . S
C37 C38 1.346 . S
C37 H42 0.930 . S
C38 N35 1.336 . S
C38 C37 1.346 . S
C38 H45 0.929 . S
C39 O29 1.282 . S
C39 O40 1.216 . S
O40 C39 1.216 . S
H41 C36 0.930 . S
H42 C37 0.930 . S
O43 Cu23 1.959 1_565 S
O43 C30 1.251 . S
H44 C27 0.930 . S
H45 C38 0.929 . S
Cu46 N47 1.999 1_544 S
Cu46 O52 1.974 1_545 S
Cu46 N57 1.985 . S
Cu46 O66 1.959 1_554 S
N47 Cu46 1.999 1_566 S
N47 C49 1.263 . S
N47 C51 1.389 . S
N48 C49 1.358 . S
N48 C50 1.400 . S
C49 N47 1.263 . S
C49 N48 1.358 . S
C49 H55 0.930 . S
C50 N48 1.400 . S
C50 C51 1.351 . S
C50 H67 0.930 . S
C51 N47 1.389 . S
C51 C50 1.351 . S
C51 H56 0.930 1_565 S
O52 Cu46 1.974 1_565 S
O52 C62 1.282 . S
C53 O54 1.261 . S
C53 O66 1.251 . S
O54 C53 1.261 . S
H55 C49 0.930 . S
H56 C51 0.930 1_545 S
N57 Cu46 1.985 . S
N57 C59 1.335 . S
N57 C60 1.390 . S
N58 C59 1.345 . S
N58 C61 1.336 . S
C59 N57 1.335 . S
C59 N58 1.345 . S
C59 H64 0.930 . S
C60 N57 1.390 . S
C60 C61 1.346 . S
C60 H65 0.930 . S
C61 N58 1.336 . S
C61 C60 1.346 . S
C61 H68 0.929 . S
C62 O52 1.282 . S
C62 O63 1.216 1_565 S
O63 C62 1.216 1_545 S
H64 C59 0.930 . S
H65 C60 0.930 . S
O66 Cu46 1.959 1_556 S
O66 C53 1.251 . S
H67 C50 0.930 . S
H68 C61 0.929 . S
Cu69 N70 1.999 1_554 S
Cu69 O75 1.974 . S
Cu69 N80 1.985 . S
Cu69 O89 1.959 1_554 S
N70 Cu69 1.999 1_556 S
N70 C72 1.263 . S
N70 C74 1.389 . S
N71 C72 1.358 . S
N71 C73 1.400 . S
C72 N70 1.263 . S
C72 N71 1.358 . S
C72 H78 0.930 1_556 S
C73 N71 1.400 . S
C73 C74 1.351 . S
C73 H90 0.930 . S
C74 N70 1.389 . S
C74 C73 1.351 . S
C74 H79 0.930 . S
O75 Cu69 1.974 . S
O75 C85 1.282 . S
C76 O77 1.261 . S
C76 O89 1.251 . S
O77 C76 1.261 . S
H78 C72 0.930 1_554 S
H79 C74 0.930 . S
N80 Cu69 1.985 . S
N80 C82 1.335 . S
N80 C83 1.390 . S
N81 C82 1.345 . S
N81 C84 1.336 . S
C82 N80 1.335 . S
C82 N81 1.345 . S
C82 H87 0.930 . S
C83 N80 1.390 . S
C83 C84 1.346 . S
C83 H88 0.930 . S
C84 N81 1.336 . S
C84 C83 1.346 . S
C84 H91 0.929 . S
C85 O75 1.282 . S
C85 O86 1.216 . S
O86 C85 1.216 . S
H87 C82 0.930 . S
H88 C83 0.930 . S
O89 Cu69 1.959 1_556 S
O89 C76 1.251 . S
H90 C73 0.930 . S
H91 C84 0.929 . S
Cu92 N93 1.999 1_554 S
Cu92 O98 1.974 . S
Cu92 N103 1.985 1_545 S
Cu92 O112 1.959 1_544 S
N93 Cu92 1.999 1_556 S
N93 C95 1.263 . S
N93 C97 1.389 . S
N94 C95 1.358 . S
N94 C96 1.400 . S
C95 N93 1.263 . S
C95 N94 1.358 . S
C95 H101 0.930 . S
C96 N94 1.400 . S
C96 C97 1.351 . S
C96 H113 0.930 . S
C97 N93 1.389 . S
C97 C96 1.351 . S
C97 H102 0.930 . S
O98 Cu92 1.974 . S
O98 C108 1.282 . S
C99 O100 1.261 . S
C99 O112 1.251 . S
O100 C99 1.261 . S
H101 C95 0.930 . S
H102 C97 0.930 . S
N103 Cu92 1.985 1_565 S
N103 C105 1.335 . S
N103 C106 1.390 . S
N104 C105 1.345 . S
N104 C107 1.336 . S
C105 N103 1.335 . S
C105 N104 1.345 . S
C105 H110 0.930 . S
C106 N103 1.390 . S
C106 C107 1.346 . S
C106 H111 0.930 1_565 S
C107 N104 1.336 . S
C107 C106 1.346 . S
C107 H114 0.929 . S
C108 O98 1.282 . S
C108 O109 1.216 . S
O109 C108 1.216 . S
H110 C105 0.930 . S
H111 C106 0.930 1_545 S
O112 Cu92 1.959 1_566 S
O112 C99 1.251 . S
H113 C96 0.930 . S
H114 C107 0.929 . S
Cu115 N116 2.011 1_554 S
Cu115 O121 1.984 1_455 S
Cu115 N126 1.996 . S
Cu115 O135 1.949 1_554 S
N116 Cu115 2.011 1_556 S
N116 C118 1.231 1_455 S
N116 C120 1.395 . S
N117 C118 1.358 . S
N117 C119 1.400 . S
C118 N116 1.231 1_655 S
C118 N117 1.358 . S
C118 H124 0.930 . S
C119 N117 1.400 . S
C119 C120 1.351 1_655 S
C119 H136 0.930 . S
C120 N116 1.395 . S
C120 C119 1.351 1_455 S
C120 H125 0.930 . S
O121 Cu115 1.984 1_655 S
O121 C131 1.282 . S
C122 O123 1.261 . S
C122 O135 1.251 . S
O123 C122 1.261 . S
H124 C118 0.930 . S
H125 C120 0.930 . S
N126 Cu115 1.996 . S
N126 C128 1.335 . S
N126 C129 1.390 . S
N127 C128 1.345 . S
N127 C130 1.336 . S
C128 N126 1.335 . S
C128 N127 1.345 . S
C128 H133 0.930 . S
C129 N126 1.390 . S
C129 C130 1.346 . S
C129 H134 0.930 . S
C130 N127 1.336 . S
C130 C129 1.346 . S
C130 H137 0.929 . S
C131 O121 1.282 . S
C131 O132 1.216 . S
O132 C131 1.216 . S
H133 C128 0.930 . S
H134 C129 0.930 . S
O135 Cu115 1.949 1_556 S
O135 C122 1.251 . S
H136 C119 0.930 . S
H137 C130 0.929 . S
Cu138 N139 1.999 . S
Cu138 O144 1.974 . S
Cu138 N149 1.985 . S
Cu138 O158 1.959 . S
N139 Cu138 1.999 . S
N139 C141 1.263 . S
N139 C143 1.389 . S
N140 C141 1.358 . S
N140 C142 1.400 . S
C141 N139 1.263 . S
C141 N140 1.358 . S
C141 H147 0.930 . S
C142 N140 1.400 . S
C142 C143 1.351 . S
C142 H159 0.930 . S
C143 N139 1.389 . S
C143 C142 1.351 . S
C143 H148 0.930 . S
O144 Cu138 1.974 . S
O144 C154 1.282 . S
C145 O146 1.261 . S
C145 O158 1.251 . S
O146 C145 1.261 . S
H147 C141 0.930 . S
H148 C143 0.930 . S
N149 Cu138 1.985 . S
N149 C151 1.335 . S
N149 C152 1.390 . S
N150 C151 1.345 . S
N150 C153 1.336 . S
C151 N149 1.335 . S
C151 N150 1.345 . S
C151 H156 0.930 . S
C152 N149 1.390 . S
C152 C153 1.346 . S
C152 H157 0.930 . S
C153 N150 1.336 . S
C153 C152 1.346 . S
C153 H160 0.929 . S
C154 O144 1.282 . S
C154 O155 1.216 . S
O155 C154 1.216 . S
H156 C151 0.930 . S
H157 C152 0.930 . S
O158 Cu138 1.959 . S
O158 C145 1.251 . S
H159 C142 0.930 . S
H160 C153 0.929 . S
Cu161 N162 1.999 . S
Cu161 O167 1.974 . S
Cu161 N172 1.985 . S
Cu161 O181 1.959 . S
N162 Cu161 1.999 . S
N162 C164 1.263 . S
N162 C166 1.389 . S
N163 C164 1.358 . S
N163 C165 1.400 . S
C164 N162 1.263 . S
C164 N163 1.358 . S
C164 H170 0.930 . S
C165 N163 1.400 . S
C165 C166 1.351 . S
C165 H182 0.930 . S
C166 N162 1.389 . S
C166 C165 1.351 . S
C166 H171 0.930 . S
O167 Cu161 1.974 . S
O167 C177 1.282 . S
C168 O169 1.261 . S
C168 O181 1.251 . S
O169 C168 1.261 . S
H170 C164 0.930 . S
H171 C166 0.930 . S
N172 Cu161 1.985 . S
N172 C174 1.335 . S
N172 C175 1.390 . S
N173 C174 1.345 . S
N173 C176 1.336 . S
C174 N172 1.335 . S
C174 N173 1.345 . S
C174 H179 0.930 . S
C175 N172 1.390 . S
C175 C176 1.346 . S
C175 H180 0.930 . S
C176 N173 1.336 . S
C176 C175 1.346 . S
C176 H183 0.929 . S
C177 O167 1.282 . S
C177 O178 1.216 . S
O178 C177 1.216 . S
H179 C174 0.930 . S
H180 C175 0.930 . S
O181 Cu161 1.959 . S
O181 C168 1.251 . S
H182 C165 0.930 . S
H183 C176 0.929 . S
Cu184 N185 1.999 . S
Cu184 O190 1.974 . S
Cu184 N195 1.985 . S
Cu184 O204 1.959 . S
N185 Cu184 1.999 . S
N185 C187 1.263 . S
N185 C189 1.389 . S
N186 C187 1.358 . S
N186 C188 1.400 . S
C187 N185 1.263 . S
C187 N186 1.358 . S
C187 H193 0.930 . S
C188 N186 1.400 . S
C188 C189 1.351 . S
C188 H205 0.930 . S
C189 N185 1.389 . S
C189 C188 1.351 . S
C189 H194 0.930 . S
O190 Cu184 1.974 . S
O190 C200 1.282 . S
C191 O192 1.261 . S
C191 O204 1.251 . S
O192 C191 1.261 . S
H193 C187 0.930 . S
H194 C189 0.930 . S
N195 Cu184 1.985 . S
N195 C197 1.335 . S
N195 C198 1.390 . S
N196 C197 1.345 . S
N196 C199 1.336 . S
C197 N195 1.335 . S
C197 N196 1.345 . S
C197 H202 0.930 . S
C198 N195 1.390 . S
C198 C199 1.346 . S
C198 H203 0.930 . S
C199 N196 1.336 . S
C199 C198 1.346 . S
C199 H206 0.929 . S
C200 O190 1.282 . S
C200 O201 1.216 . S
O201 C200 1.216 . S
H202 C197 0.930 . S
H203 C198 0.930 . S
O204 Cu184 1.959 . S
O204 C191 1.251 . S
H205 C188 0.930 . S
H206 C199 0.929 . S
Cu207 N208 1.999 . S
Cu207 O213 1.974 . S
Cu207 N218 1.985 . S
Cu207 O227 1.959 . S
N208 Cu207 1.999 . S
N208 C210 1.263 . S
N208 C212 1.389 . S
N209 C210 1.358 . S
N209 C211 1.400 . S
C210 N208 1.263 . S
C210 N209 1.358 . S
C210 H216 0.930 . S
C211 N209 1.400 . S
C211 C212 1.351 . S
C211 H228 0.930 . S
C212 N208 1.389 . S
C212 C211 1.351 . S
C212 H217 0.930 . S
O213 Cu207 1.974 . S
O213 C223 1.282 . S
C214 O215 1.261 . S
C214 O227 1.251 . S
O215 C214 1.261 . S
H216 C210 0.930 . S
H217 C212 0.930 . S
N218 Cu207 1.985 . S
N218 C220 1.335 . S
N218 C221 1.390 . S
N219 C220 1.345 . S
N219 C222 1.336 . S
C220 N218 1.335 . S
C220 N219 1.345 . S
C220 H225 0.930 . S
C221 N218 1.390 . S
C221 C222 1.346 . S
C221 H226 0.930 . S
C222 N219 1.336 . S
C222 C221 1.346 . S
C222 H229 0.929 . S
C223 O213 1.282 . S
C223 O224 1.216 . S
O224 C223 1.216 . S
H225 C220 0.930 . S
H226 C221 0.930 . S
O227 Cu207 1.959 . S
O227 C214 1.251 . S
H228 C211 0.930 . S
H229 C222 0.929 . S
Cu230 N231 1.999 . S
Cu230 O236 1.974 . S
Cu230 N241 1.985 . S
Cu230 O250 1.959 . S
N231 Cu230 1.999 . S
N231 C233 1.263 . S
N231 C235 1.389 . S
N232 C233 1.358 . S
N232 C234 1.400 . S
C233 N231 1.263 . S
C233 N232 1.358 . S
C233 H239 0.930 . S
C234 N232 1.400 . S
C234 C235 1.351 . S
C234 H251 0.930 . S
C235 N231 1.389 . S
C235 C234 1.351 . S
C235 H240 0.930 . S
O236 Cu230 1.974 . S
O236 C246 1.282 . S
C237 O238 1.261 . S
C237 O250 1.251 . S
O238 C237 1.261 . S
H239 C233 0.930 . S
H240 C235 0.930 . S
N241 Cu230 1.985 . S
N241 C243 1.335 . S
N241 C244 1.390 . S
N242 C243 1.345 . S
N242 C245 1.336 . S
C243 N241 1.335 . S
C243 N242 1.345 . S
C243 H248 0.930 . S
C244 N241 1.390 . S
C244 C245 1.346 . S
C244 H249 0.930 . S
C245 N242 1.336 . S
C245 C244 1.346 . S
C245 H252 0.929 . S
C246 O236 1.282 . S
C246 O247 1.216 . S
O247 C246 1.216 . S
H248 C243 0.930 . S
H249 C244 0.930 . S
O250 Cu230 1.959 . S
O250 C237 1.251 . S
H251 C234 0.930 . S
H252 C245 0.929 . S
Cu253 N254 1.999 . S
Cu253 O259 1.974 . S
Cu253 N264 1.985 . S
Cu253 O273 1.959 . S
N254 Cu253 1.999 . S
N254 C256 1.263 . S
N254 C258 1.389 . S
N255 C256 1.358 . S
N255 C257 1.400 . S
C256 N254 1.263 . S
C256 N255 1.358 . S
C256 H262 0.930 . S
C257 N255 1.400 . S
C257 C258 1.351 . S
C257 H274 0.930 . S
C258 N254 1.389 . S
C258 C257 1.351 . S
C258 H263 0.930 . S
O259 Cu253 1.974 . S
O259 C269 1.282 . S
C260 O261 1.261 . S
C260 O273 1.251 . S
O261 C260 1.261 . S
H262 C256 0.930 . S
H263 C258 0.930 . S
N264 Cu253 1.985 . S
N264 C266 1.335 . S
N264 C267 1.390 . S
N265 C266 1.345 . S
N265 C268 1.336 . S
C266 N264 1.335 . S
C266 N265 1.345 . S
C266 H271 0.930 . S
C267 N264 1.390 . S
C267 C268 1.346 . S
C267 H272 0.930 . S
C268 N265 1.336 . S
C268 C267 1.346 . S
C268 H275 0.929 . S
C269 O259 1.282 . S
C269 O270 1.216 . S
O270 C269 1.216 . S
H271 C266 0.930 . S
H272 C267 0.930 . S
O273 Cu253 1.959 . S
O273 C260 1.251 . S
H274 C257 0.930 . S
H275 C268 0.929 . S
Dy276 O279 2.307 . S
Dy276 O281 2.395 . S
Dy276 O282 2.379 . S
Dy276 O284 2.339 . S
Dy276 O286 2.298 . S
Dy276 O290 2.275 . S
Dy276 C298 2.738 . S
Dy277 O280 2.298 . S
Dy277 O283 2.275 . S
Dy277 O285 2.307 . S
Dy277 O287 2.395 . S
Dy277 O288 2.379 . S
Dy277 O291 2.339 . S
Dy277 C307 2.738 . S
C278 O290 1.254 . S
C278 O291 1.257 . S
O279 Dy276 2.307 . S
O279 C289 1.266 . S
O280 Dy277 2.298 . S
O280 C289 1.236 . S
O281 Dy276 2.395 . S
O281 C298 1.255 . S
O282 Dy276 2.379 . S
O282 C298 1.249 . S
O283 Dy277 2.275 . S
O283 C299 1.254 . S
O284 Dy276 2.339 . S
O284 C299 1.257 . S
O285 Dy277 2.307 . S
O285 C300 1.266 . S
O286 Dy276 2.298 . S
O286 C300 1.236 . S
O287 Dy277 2.395 . S
O287 C307 1.255 . S
O288 Dy277 2.379 . S
O288 C307 1.249 . S
C289 O279 1.266 . S
C289 O280 1.236 . S
O290 Dy276 2.275 . S
O290 C278 1.254 . S
O291 Dy277 2.339 . S
O291 C278 1.257 . S
C292 C295 1.344 . S
C292 C296 1.328 . S
C292 C298 1.516 . S
C293 C294 1.304 . S
C293 C297 1.323 . S
C294 C293 1.304 . S
C294 C295 1.371 . S
C294 H308 0.930 . S
C295 C292 1.344 . S
C295 C294 1.371 . S
C295 H309 0.931 . S
C296 C292 1.328 . S
C296 C297 1.433 . S
C296 H310 0.931 . S
C297 C293 1.323 . S
C297 C296 1.433 . S
C297 H311 0.933 . S
C298 Dy276 2.738 . S
C298 O281 1.255 . S
C298 O282 1.249 . S
C298 C292 1.516 . S
C299 O283 1.254 . S
C299 O284 1.257 . S
C300 O285 1.266 . S
C300 O286 1.236 . S
C301 C304 1.344 . S
C301 C305 1.328 . S
C301 C307 1.516 . S
C302 C303 1.304 . S
C302 C306 1.323 . S
C303 C302 1.304 . S
C303 C304 1.371 . S
C303 H312 0.930 . S
C304 C301 1.344 . S
C304 C303 1.371 . S
C304 H313 0.931 . S
C305 C301 1.328 . S
C305 C306 1.433 . S
C305 H314 0.931 . S
C306 C302 1.323 . S
C306 C305 1.433 . S
C306 H315 0.933 . S
C307 Dy277 2.738 . S
C307 O287 1.255 . S
C307 O288 1.249 . S
C307 C301 1.516 . S
H308 C294 0.930 . S
H309 C295 0.931 . S
H310 C296 0.931 . S
H311 C297 0.933 . S
H312 C303 0.930 . S
H313 C304 0.931 . S
H314 C305 0.931 . S
H315 C306 0.933 . S
Dy316 O319 2.307 . S
Dy316 O321 2.395 . S
Dy316 O322 2.379 . S
Dy316 O324 2.339 . S
Dy316 O326 2.298 . S
Dy316 O330 2.275 . S
Dy316 C338 2.738 . S
Dy317 O320 2.298 . S
Dy317 O323 2.275 . S
Dy317 O325 2.307 . S
Dy317 O327 2.395 . S
Dy317 O328 2.379 . S
Dy317 O331 2.339 . S
Dy317 C347 2.738 . S
C318 O330 1.254 . S
C318 O331 1.257 . S
O319 Dy316 2.307 . S
O319 C329 1.266 . S
O320 Dy317 2.298 . S
O320 C329 1.236 . S
O321 Dy316 2.395 . S
O321 C338 1.255 . S
O322 Dy316 2.379 . S
O322 C338 1.249 . S
O323 Dy317 2.275 . S
O323 C339 1.254 . S
O324 Dy316 2.339 . S
O324 C339 1.257 . S
O325 Dy317 2.307 . S
O325 C340 1.266 . S
O326 Dy316 2.298 . S
O326 C340 1.236 . S
O327 Dy317 2.395 . S
O327 C347 1.255 . S
O328 Dy317 2.379 . S
O328 C347 1.249 . S
C329 O319 1.266 . S
C329 O320 1.236 . S
O330 Dy316 2.275 . S
O330 C318 1.254 . S
O331 Dy317 2.339 . S
O331 C318 1.257 . S
C332 C335 1.344 . S
C332 C336 1.328 . S
C332 C338 1.516 . S
C333 C334 1.304 . S
C333 C337 1.323 . S
C334 C333 1.304 . S
C334 C335 1.371 . S
C334 H348 0.930 . S
C335 C332 1.344 . S
C335 C334 1.371 . S
C335 H349 0.931 . S
C336 C332 1.328 . S
C336 C337 1.433 . S
C336 H350 0.931 . S
C337 C333 1.323 . S
C337 C336 1.433 . S
C337 H351 0.933 . S
C338 Dy316 2.738 . S
C338 O321 1.255 . S
C338 O322 1.249 . S
C338 C332 1.516 . S
C339 O323 1.254 . S
C339 O324 1.257 . S
C340 O325 1.266 . S
C340 O326 1.236 . S
C341 C344 1.344 . S
C341 C345 1.328 . S
C341 C347 1.516 . S
C342 C343 1.304 . S
C342 C346 1.323 . S
C343 C342 1.304 . S
C343 C344 1.371 . S
C343 H352 0.930 . S
C344 C341 1.344 . S
C344 C343 1.371 . S
C344 H353 0.931 . S
C345 C341 1.328 . S
C345 C346 1.433 . S
C345 H354 0.931 . S
C346 C342 1.323 . S
C346 C345 1.433 . S
C346 H355 0.933 . S
C347 Dy317 2.738 . S
C347 O327 1.255 . S
C347 O328 1.249 . S
C347 C341 1.516 . S
H348 C334 0.930 . S
H349 C335 0.931 . S
H350 C336 0.931 . S
H351 C337 0.933 . S
H352 C343 0.930 . S
H353 C344 0.931 . S
H354 C345 0.931 . S
H355 C346 0.933 . S
Dy356 O359 2.307 . S
Dy356 O361 2.395 . S
Dy356 O362 2.379 . S
Dy356 O364 2.339 . S
Dy356 O366 2.298 . S
Dy356 O370 2.275 . S
Dy356 C378 2.738 . S
Dy357 O360 2.298 . S
Dy357 O363 2.275 . S
Dy357 O365 2.307 . S
Dy357 O367 2.395 . S
Dy357 O368 2.379 . S
Dy357 O371 2.339 . S
Dy357 C387 2.738 . S
C358 O370 1.254 . S
C358 O371 1.257 . S
O359 Dy356 2.307 . S
O359 C369 1.266 . S
O360 Dy357 2.298 . S
O360 C369 1.236 . S
O361 Dy356 2.395 . S
O361 C378 1.255 . S
O362 Dy356 2.379 . S
O362 C378 1.249 . S
O363 Dy357 2.275 . S
O363 C379 1.254 . S
O364 Dy356 2.339 . S
O364 C379 1.257 . S
O365 Dy357 2.307 . S
O365 C380 1.266 . S
O366 Dy356 2.298 . S
O366 C380 1.236 . S
O367 Dy357 2.395 . S
O367 C387 1.255 . S
O368 Dy357 2.379 . S
O368 C387 1.249 . S
C369 O359 1.266 . S
C369 O360 1.236 . S
O370 Dy356 2.275 . S
O370 C358 1.254 . S
O371 Dy357 2.339 . S
O371 C358 1.257 . S
C372 C375 1.344 . S
C372 C376 1.328 . S
C372 C378 1.516 . S
C373 C374 1.304 . S
C373 C377 1.323 . S
C374 C373 1.304 . S
C374 C375 1.371 . S
C374 H388 0.930 . S
C375 C372 1.344 . S
C375 C374 1.371 . S
C375 H389 0.931 . S
C376 C372 1.328 . S
C376 C377 1.433 . S
C376 H390 0.931 . S
C377 C373 1.323 . S
C377 C376 1.433 . S
C377 H391 0.933 . S
C378 Dy356 2.738 . S
C378 O361 1.255 . S
C378 O362 1.249 . S
C378 C372 1.516 . S
C379 O363 1.254 . S
C379 O364 1.257 . S
C380 O365 1.266 . S
C380 O366 1.236 . S
C381 C384 1.344 . S
C381 C385 1.328 . S
C381 C387 1.516 . S
C382 C383 1.304 . S
C382 C386 1.323 . S
C383 C382 1.304 . S
C383 C384 1.371 . S
C383 H392 0.930 . S
C384 C381 1.344 . S
C384 C383 1.371 . S
C384 H393 0.931 . S
C385 C381 1.328 . S
C385 C386 1.433 . S
C385 H394 0.931 . S
C386 C382 1.323 . S
C386 C385 1.433 . S
C386 H395 0.933 . S
C387 Dy357 2.738 . S
C387 O367 1.255 . S
C387 O368 1.249 . S
C387 C381 1.516 . S
H388 C374 0.930 . S
H389 C375 0.931 . S
H390 C376 0.931 . S
H391 C377 0.933 . S
H392 C383 0.930 . S
H393 C384 0.931 . S
H394 C385 0.931 . S
H395 C386 0.933 . S
Dy396 O399 2.307 . S
Dy396 O401 2.395 . S
Dy396 O402 2.379 . S
Dy396 O404 2.339 . S
Dy396 O406 2.298 . S
Dy396 O410 2.275 . S
Dy396 C418 2.738 . S
Dy397 O400 2.298 . S
Dy397 O403 2.275 . S
Dy397 O405 2.307 . S
Dy397 O407 2.395 . S
Dy397 O408 2.379 . S
Dy397 O411 2.339 . S
Dy397 C427 2.738 . S
C398 O410 1.254 . S
C398 O411 1.257 . S
O399 Dy396 2.307 . S
O399 C409 1.266 . S
O400 Dy397 2.298 . S
O400 C409 1.236 . S
O401 Dy396 2.395 . S
O401 C418 1.255 . S
O402 Dy396 2.379 . S
O402 C418 1.249 . S
O403 Dy397 2.275 . S
O403 C419 1.254 . S
O404 Dy396 2.339 . S
O404 C419 1.257 . S
O405 Dy397 2.307 . S
O405 C420 1.266 . S
O406 Dy396 2.298 . S
O406 C420 1.236 . S
O407 Dy397 2.395 . S
O407 C427 1.255 . S
O408 Dy397 2.379 . S
O408 C427 1.249 . S
C409 O399 1.266 . S
C409 O400 1.236 . S
O410 Dy396 2.275 . S
O410 C398 1.254 . S
O411 Dy397 2.339 . S
O411 C398 1.257 . S
C412 C415 1.344 . S
C412 C416 1.328 . S
C412 C418 1.516 . S
C413 C414 1.304 . S
C413 C417 1.323 . S
C414 C413 1.304 . S
C414 C415 1.371 . S
C414 H428 0.930 . S
C415 C412 1.344 . S
C415 C414 1.371 . S
C415 H429 0.931 . S
C416 C412 1.328 . S
C416 C417 1.433 . S
C416 H430 0.931 . S
C417 C413 1.323 . S
C417 C416 1.433 . S
C417 H431 0.933 . S
C418 Dy396 2.738 . S
C418 O401 1.255 . S
C418 O402 1.249 . S
C418 C412 1.516 . S
C419 O403 1.254 . S
C419 O404 1.257 . S
C420 O405 1.266 . S
C420 O406 1.236 . S
C421 C424 1.344 . S
C421 C425 1.328 . S
C421 C427 1.516 . S
C422 C423 1.304 . S
C422 C426 1.323 . S
C423 C422 1.304 . S
C423 C424 1.371 . S
C423 H432 0.930 . S
C424 C421 1.344 . S
C424 C423 1.371 . S
C424 H433 0.931 . S
C425 C421 1.328 . S
C425 C426 1.433 . S
C425 H434 0.931 . S
C426 C422 1.323 . S
C426 C425 1.433 . S
C426 H435 0.933 . S
C427 Dy397 2.738 . S
C427 O407 1.255 . S
C427 O408 1.249 . S
C427 C421 1.516 . S
H428 C414 0.930 . S
H429 C415 0.931 . S
H430 C416 0.931 . S
H431 C417 0.933 . S
H432 C423 0.930 . S
H433 C424 0.931 . S
H434 C425 0.931 . S
H435 C426 0.933 . S
Dy436 O439 2.307 . S
Dy436 O441 2.395 . S
Dy436 O442 2.379 . S
Dy436 O444 2.339 . S
Dy436 O446 2.298 . S
Dy436 O450 2.275 . S
Dy436 C458 2.738 . S
Dy437 O440 2.298 . S
Dy437 O443 2.275 . S
Dy437 O445 2.307 . S
Dy437 O447 2.395 . S
Dy437 O448 2.379 . S
Dy437 O451 2.339 . S
Dy437 C467 2.738 . S
C438 O450 1.254 . S
C438 O451 1.257 . S
O439 Dy436 2.307 . S
O439 C449 1.266 . S
O440 Dy437 2.298 . S
O440 C449 1.236 . S
O441 Dy436 2.395 . S
O441 C458 1.255 . S
O442 Dy436 2.379 . S
O442 C458 1.249 . S
O443 Dy437 2.275 . S
O443 C459 1.254 . S
O444 Dy436 2.339 . S
O444 C459 1.257 . S
O445 Dy437 2.307 . S
O445 C460 1.266 . S
O446 Dy436 2.298 . S
O446 C460 1.236 . S
O447 Dy437 2.395 . S
O447 C467 1.255 . S
O448 Dy437 2.379 . S
O448 C467 1.249 . S
C449 O439 1.266 . S
C449 O440 1.236 . S
O450 Dy436 2.275 . S
O450 C438 1.254 . S
O451 Dy437 2.339 . S
O451 C438 1.257 . S
C452 C455 1.344 . S
C452 C456 1.328 . S
C452 C458 1.516 . S
C453 C454 1.304 . S
C453 C457 1.323 . S
C454 C453 1.304 . S
C454 C455 1.371 . S
C454 H468 0.930 . S
C455 C452 1.344 . S
C455 C454 1.371 . S
C455 H469 0.931 . S
C456 C452 1.328 . S
C456 C457 1.433 . S
C456 H470 0.931 . S
C457 C453 1.323 . S
C457 C456 1.433 . S
C457 H471 0.933 . S
C458 Dy436 2.738 . S
C458 O441 1.255 . S
C458 O442 1.249 . S
C458 C452 1.516 . S
C459 O443 1.254 . S
C459 O444 1.257 . S
C460 O445 1.266 . S
C460 O446 1.236 . S
C461 C464 1.344 . S
C461 C465 1.328 . S
C461 C467 1.516 . S
C462 C463 1.304 . S
C462 C466 1.323 . S
C463 C462 1.304 . S
C463 C464 1.371 . S
C463 H472 0.930 . S
C464 C461 1.344 . S
C464 C463 1.371 . S
C464 H473 0.931 . S
C465 C461 1.328 . S
C465 C466 1.433 . S
C465 H474 0.931 . S
C466 C462 1.323 . S
C466 C465 1.433 . S
C466 H475 0.933 . S
C467 Dy437 2.738 . S
C467 O447 1.255 . S
C467 O448 1.249 . S
C467 C461 1.516 . S
H468 C454 0.930 . S
H469 C455 0.931 . S
H470 C456 0.931 . S
H471 C457 0.933 . S
H472 C463 0.930 . S
H473 C464 0.931 . S
H474 C465 0.931 . S
H475 C466 0.933 . S
Dy476 O479 2.307 . S
Dy476 O481 2.395 . S
Dy476 O482 2.379 . S
Dy476 O484 2.339 . S
Dy476 O486 2.298 . S
Dy476 O490 2.275 . S
Dy476 C498 2.738 . S
Dy477 O480 2.298 . S
Dy477 O483 2.275 . S
Dy477 O485 2.307 . S
Dy477 O487 2.395 . S
Dy477 O488 2.379 . S
Dy477 O491 2.339 . S
Dy477 C507 2.738 . S
C478 O490 1.254 . S
C478 O491 1.257 . S
O479 Dy476 2.307 . S
O479 C489 1.266 . S
O480 Dy477 2.298 . S
O480 C489 1.236 . S
O481 Dy476 2.395 . S
O481 C498 1.255 . S
O482 Dy476 2.379 . S
O482 C498 1.249 . S
O483 Dy477 2.275 . S
O483 C499 1.254 . S
O484 Dy476 2.339 . S
O484 C499 1.257 . S
O485 Dy477 2.307 . S
O485 C500 1.266 . S
O486 Dy476 2.298 . S
O486 C500 1.236 . S
O487 Dy477 2.395 . S
O487 C507 1.255 . S
O488 Dy477 2.379 . S
O488 C507 1.249 . S
C489 O479 1.266 . S
C489 O480 1.236 . S
O490 Dy476 2.275 . S
O490 C478 1.254 . S
O491 Dy477 2.339 . S
O491 C478 1.257 . S
C492 C495 1.344 . S
C492 C496 1.328 . S
C492 C498 1.516 . S
C493 C494 1.304 . S
C493 C497 1.323 . S
C494 C493 1.304 . S
C494 C495 1.371 . S
C494 H508 0.930 . S
C495 C492 1.344 . S
C495 C494 1.371 . S
C495 H509 0.931 . S
C496 C492 1.328 . S
C496 C497 1.433 . S
C496 H510 0.931 . S
C497 C493 1.323 . S
C497 C496 1.433 . S
C497 H511 0.933 . S
C498 Dy476 2.738 . S
C498 O481 1.255 . S
C498 O482 1.249 . S
C498 C492 1.516 . S
C499 O483 1.254 . S
C499 O484 1.257 . S
C500 O485 1.266 . S
C500 O486 1.236 . S
C501 C504 1.344 . S
C501 C505 1.328 . S
C501 C507 1.516 . S
C502 C503 1.304 . S
C502 C506 1.323 . S
C503 C502 1.304 . S
C503 C504 1.371 . S
C503 H512 0.930 . S
C504 C501 1.344 . S
C504 C503 1.371 . S
C504 H513 0.931 . S
C505 C501 1.328 . S
C505 C506 1.433 . S
C505 H514 0.931 . S
C506 C502 1.323 . S
C506 C505 1.433 . S
C506 H515 0.933 . S
C507 Dy477 2.738 . S
C507 O487 1.255 . S
C507 O488 1.249 . S
C507 C501 1.516 . S
H508 C494 0.930 . S
H509 C495 0.931 . S
H510 C496 0.931 . S
H511 C497 0.933 . S
H512 C503 0.930 . S
H513 C504 0.931 . S
H514 C505 0.931 . S
H515 C506 0.933 . S
Dy516 O519 2.307 . S
Dy516 O521 2.395 . S
Dy516 O522 2.379 . S
Dy516 O524 2.339 . S
Dy516 O526 2.298 . S
Dy516 O530 2.275 . S
Dy516 C538 2.738 . S
Dy517 O520 2.298 . S
Dy517 O523 2.275 . S
Dy517 O525 2.307 . S
Dy517 O527 2.395 . S
Dy517 O528 2.379 . S
Dy517 O531 2.339 . S
Dy517 C547 2.738 . S
C518 O530 1.254 . S
C518 O531 1.257 . S
O519 Dy516 2.307 . S
O519 C529 1.266 . S
O520 Dy517 2.298 . S
O520 C529 1.236 . S
O521 Dy516 2.395 . S
O521 C538 1.255 . S
O522 Dy516 2.379 . S
O522 C538 1.249 . S
O523 Dy517 2.275 . S
O523 C539 1.254 . S
O524 Dy516 2.339 . S
O524 C539 1.257 . S
O525 Dy517 2.307 . S
O525 C540 1.266 . S
O526 Dy516 2.298 . S
O526 C540 1.236 . S
O527 Dy517 2.395 . S
O527 C547 1.255 . S
O528 Dy517 2.379 . S
O528 C547 1.249 . S
C529 O519 1.266 . S
C529 O520 1.236 . S
O530 Dy516 2.275 . S
O530 C518 1.254 . S
O531 Dy517 2.339 . S
O531 C518 1.257 . S
C532 C535 1.344 . S
C532 C536 1.328 . S
C532 C538 1.516 . S
C533 C534 1.304 . S
C533 C537 1.323 . S
C534 C533 1.304 . S
C534 C535 1.371 . S
C534 H548 0.930 . S
C535 C532 1.344 . S
C535 C534 1.371 . S
C535 H549 0.931 . S
C536 C532 1.328 . S
C536 C537 1.433 . S
C536 H550 0.931 . S
C537 C533 1.323 . S
C537 C536 1.433 . S
C537 H551 0.933 . S
C538 Dy516 2.738 . S
C538 O521 1.255 . S
C538 O522 1.249 . S
C538 C532 1.516 . S
C539 O523 1.254 . S
C539 O524 1.257 . S
C540 O525 1.266 . S
C540 O526 1.236 . S
C541 C544 1.344 . S
C541 C545 1.328 . S
C541 C547 1.516 . S
C542 C543 1.304 . S
C542 C546 1.323 . S
C543 C542 1.304 . S
C543 C544 1.371 . S
C543 H552 0.930 . S
C544 C541 1.344 . S
C544 C543 1.371 . S
C544 H553 0.931 . S
C545 C541 1.328 . S
C545 C546 1.433 . S
C545 H554 0.931 . S
C546 C542 1.323 . S
C546 C545 1.433 . S
C546 H555 0.933 . S
C547 Dy517 2.738 . S
C547 O527 1.255 . S
C547 O528 1.249 . S
C547 C541 1.516 . S
H548 C534 0.930 . S
H549 C535 0.931 . S
H550 C536 0.931 . S
H551 C537 0.933 . S
H552 C543 0.930 . S
H553 C544 0.931 . S
H554 C545 0.931 . S
H555 C546 0.933 . S
Dy556 O559 2.307 . S
Dy556 O561 2.395 . S
Dy556 O562 2.379 . S
Dy556 O564 2.339 . S
Dy556 O566 2.298 . S
Dy556 O570 2.275 . S
Dy556 C578 2.738 . S
Dy557 O560 2.298 . S
Dy557 O563 2.275 . S
Dy557 O565 2.307 . S
Dy557 O567 2.395 . S
Dy557 O568 2.379 . S
Dy557 O571 2.339 . S
Dy557 C587 2.738 . S
C558 O570 1.254 . S
C558 O571 1.257 . S
O559 Dy556 2.307 . S
O559 C569 1.266 . S
O560 Dy557 2.298 . S
O560 C569 1.236 . S
O561 Dy556 2.395 . S
O561 C578 1.255 . S
O562 Dy556 2.379 . S
O562 C578 1.249 . S
O563 Dy557 2.275 . S
O563 C579 1.254 . S
O564 Dy556 2.339 . S
O564 C579 1.257 . S
O565 Dy557 2.307 . S
O565 C580 1.266 . S
O566 Dy556 2.298 . S
O566 C580 1.236 . S
O567 Dy557 2.395 . S
O567 C587 1.255 . S
O568 Dy557 2.379 . S
O568 C587 1.249 . S
C569 O559 1.266 . S
C569 O560 1.236 . S
O570 Dy556 2.275 . S
O570 C558 1.254 . S
O571 Dy557 2.339 . S
O571 C558 1.257 . S
C572 C575 1.344 . S
C572 C576 1.328 . S
C572 C578 1.516 . S
C573 C574 1.304 . S
C573 C577 1.323 . S
C574 C573 1.304 . S
C574 C575 1.371 . S
C574 H588 0.930 . S
C575 C572 1.344 . S
C575 C574 1.371 . S
C575 H589 0.931 . S
C576 C572 1.328 . S
C576 C577 1.433 . S
C576 H590 0.931 . S
C577 C573 1.323 . S
C577 C576 1.433 . S
C577 H591 0.933 . S
C578 Dy556 2.738 . S
C578 O561 1.255 . S
C578 O562 1.249 . S
C578 C572 1.516 . S
C579 O563 1.254 . S
C579 O564 1.257 . S
C580 O565 1.266 . S
C580 O566 1.236 . S
C581 C584 1.344 . S
C581 C585 1.328 . S
C581 C587 1.516 . S
C582 C583 1.304 . S
C582 C586 1.323 . S
C583 C582 1.304 . S
C583 C584 1.371 . S
C583 H592 0.930 . S
C584 C581 1.344 . S
C584 C583 1.371 . S
C584 H593 0.931 . S
C585 C581 1.328 . S
C585 C586 1.433 . S
C585 H594 0.931 . S
C586 C582 1.323 . S
C586 C585 1.433 . S
C586 H595 0.933 . S
C587 Dy557 2.738 . S
C587 O567 1.255 . S
C587 O568 1.249 . S
C587 C581 1.516 . S
H588 C574 0.930 . S
H589 C575 0.931 . S
H590 C576 0.931 . S
H591 C577 0.933 . S
H592 C583 0.930 . S
H593 C584 0.931 . S
H594 C585 0.931 . S
H595 C586 0.933 . S
H596 C602 0.930 . S
H597 C605 0.930 . S
H598 C606 0.930 . S
H599 C607 0.930 . S
H600 C610 0.930 . S
H601 C611 0.930 . S
C602 H596 0.930 . S
C602 C603 1.355 . S
C602 C604 1.415 . S
C603 C602 1.355 . S
C603 C605 1.419 . S
C604 C602 1.415 . S
C604 C609 1.425 . S
C604 C611 1.409 . S
C605 H597 0.930 . S
C605 C603 1.419 . S
C605 C606 1.362 . S
C606 H598 0.930 . S
C606 C605 1.362 . S
C606 C609 1.409 . S
C607 H599 0.930 . S
C607 C608 1.355 . S
C607 C609 1.415 . S
C608 C607 1.355 . S
C608 C610 1.419 . S
C609 C604 1.425 . S
C609 C606 1.409 . S
C609 C607 1.415 . S
C610 H600 0.930 . S
C610 C608 1.419 . S
C610 C611 1.362 . S
C611 H601 0.930 . S
C611 C604 1.409 . S
C611 C610 1.362 . S
H612 C618 0.930 . S
H613 C621 0.930 . S
H614 C622 0.930 . S
H615 C623 0.930 . S
H616 C626 0.930 . S
H617 C627 0.930 . S
C618 H612 0.930 . S
C618 C619 1.355 . S
C618 C620 1.415 . S
C619 C618 1.355 . S
C619 C621 1.419 . S
C620 C618 1.415 . S
C620 C625 1.425 . S
C620 C627 1.409 . S
C621 H613 0.930 . S
C621 C619 1.419 . S
C621 C622 1.362 . S
C622 H614 0.930 . S
C622 C621 1.362 . S
C622 C625 1.409 . S
C623 H615 0.930 . S
C623 C624 1.355 . S
C623 C625 1.415 . S
C624 C623 1.355 . S
C624 C626 1.419 . S
C625 C620 1.425 . S
C625 C622 1.409 . S
C625 C623 1.415 . S
C626 H616 0.930 . S
C626 C624 1.419 . S
C626 C627 1.362 . S
C627 H617 0.930 . S
C627 C620 1.409 . S
C627 C626 1.362 . S
H628 C634 0.930 1_455 S
H629 C637 0.930 . S
H630 C638 0.930 . S
H631 C639 0.930 . S
H632 C642 0.930 . S
H633 C643 0.930 1_455 S
C634 H628 0.930 1_655 S
C634 C635 1.355 . S
C634 C636 1.415 . S
C635 C634 1.355 . S
C635 C637 1.419 . S
C636 C634 1.415 . S
C636 C641 1.425 . S
C636 C643 1.409 . S
C637 H629 0.930 . S
C637 C635 1.419 . S
C637 C638 1.362 . S
C638 H630 0.930 . S
C638 C637 1.362 . S
C638 C641 1.409 . S
C639 H631 0.930 . S
C639 C640 1.355 . S
C639 C641 1.415 . S
C640 C639 1.355 . S
C640 C642 1.419 . S
C641 C636 1.425 . S
C641 C638 1.409 . S
C641 C639 1.415 . S
C642 H632 0.930 . S
C642 C640 1.419 . S
C642 C643 1.362 . S
C643 H633 0.930 1_655 S
C643 C636 1.409 . S
C643 C642 1.362 . S
H644 C650 0.930 . S
H645 C653 0.930 . S
H646 C654 0.930 . S
H647 C655 0.930 . S
H648 C658 0.930 . S
H649 C659 0.930 . S
C650 H644 0.930 . S
C650 C651 1.355 . S
C650 C652 1.415 . S
C651 C650 1.355 . S
C651 C653 1.419 . S
C652 C650 1.415 . S
C652 C657 1.425 . S
C652 C659 1.409 . S
C653 H645 0.930 . S
C653 C651 1.419 . S
C653 C654 1.362 . S
C654 H646 0.930 . S
C654 C653 1.362 . S
C654 C657 1.409 . S
C655 H647 0.930 . S
C655 C656 1.355 . S
C655 C657 1.415 . S
C656 C655 1.355 . S
C656 C658 1.419 . S
C657 C652 1.425 . S
C657 C654 1.409 . S
C657 C655 1.415 . S
C658 H648 0.930 . S
C658 C656 1.419 . S
C658 C659 1.362 . S
C659 H649 0.930 . S
C659 C652 1.409 . S
C659 C658 1.362 . S
H660 C666 0.930 . S
H661 C669 0.930 . S
H662 C670 0.930 . S
H663 C671 0.930 . S
H664 C674 0.930 . S
H665 C675 0.930 . S
C666 H660 0.930 . S
C666 C667 1.355 . S
C666 C668 1.415 . S
C667 C666 1.355 . S
C667 C669 1.419 . S
C668 C666 1.415 . S
C668 C673 1.425 . S
C668 C675 1.409 . S
C669 H661 0.930 . S
C669 C667 1.419 . S
C669 C670 1.362 . S
C670 H662 0.930 . S
C670 C669 1.362 . S
C670 C673 1.409 . S
C671 H663 0.930 . S
C671 C672 1.355 . S
C671 C673 1.415 . S
C672 C671 1.355 . S
C672 C674 1.419 . S
C673 C668 1.425 . S
C673 C670 1.409 . S
C673 C671 1.415 . S
C674 H664 0.930 . S
C674 C672 1.419 . S
C674 C675 1.362 . S
C675 H665 0.930 . S
C675 C668 1.409 . S
C675 C674 1.362 . S
H676 C682 0.930 . S
H677 C685 0.930 . S
H678 C686 0.930 . S
H679 C687 0.930 . S
H680 C690 0.930 . S
H681 C691 0.930 . S
C682 H676 0.930 . S
C682 C683 1.355 . S
C682 C684 1.415 . S
C683 C682 1.355 . S
C683 C685 1.419 . S
C684 C682 1.415 . S
C684 C689 1.425 . S
C684 C691 1.409 . S
C685 H677 0.930 . S
C685 C683 1.419 . S
C685 C686 1.362 . S
C686 H678 0.930 . S
C686 C685 1.362 . S
C686 C689 1.409 . S
C687 H679 0.930 . S
C687 C688 1.355 . S
C687 C689 1.415 . S
C688 C687 1.355 . S
C688 C690 1.419 . S
C689 C684 1.425 . S
C689 C686 1.409 . S
C689 C687 1.415 . S
C690 H680 0.930 . S
C690 C688 1.419 . S
C690 C691 1.362 . S
C691 H681 0.930 . S
C691 C684 1.409 . S
C691 C690 1.362 . S
H692 C698 0.930 . S
H693 C701 0.930 . S
H694 C702 0.930 . S
H695 C703 0.930 . S
H696 C706 0.930 . S
H697 C707 0.930 . S
C698 H692 0.930 . S
C698 C699 1.355 . S
C698 C700 1.415 . S
C699 C698 1.355 . S
C699 C701 1.419 . S
C700 C698 1.415 . S
C700 C705 1.425 . S
C700 C707 1.409 . S
C701 H693 0.930 . S
C701 C699 1.419 . S
C701 C702 1.362 . S
C702 H694 0.930 . S
C702 C701 1.362 . S
C702 C705 1.409 . S
C703 H695 0.930 . S
C703 C704 1.355 . S
C703 C705 1.415 . S
C704 C703 1.355 . S
C704 C706 1.419 . S
C705 C700 1.425 . S
C705 C702 1.409 . S
C705 C703 1.415 . S
C706 H696 0.930 . S
C706 C704 1.419 . S
C706 C707 1.362 . S
C707 H697 0.930 . S
C707 C700 1.409 . S
C707 C706 1.362 . S
H708 C714 0.930 . S
H709 C717 0.930 . S
H710 C718 0.930 . S
H711 C719 0.930 . S
H712 C722 0.930 . S
H713 C723 0.930 . S
C714 H708 0.930 . S
C714 C715 1.355 . S
C714 C716 1.415 . S
C715 C714 1.355 . S
C715 C717 1.419 1_655 S
C716 C714 1.415 . S
C716 C721 1.425 . S
C716 C723 1.409 . S
C717 H709 0.930 . S
C717 C715 1.419 1_455 S
C717 C718 1.362 . S
C718 H710 0.930 . S
C718 C717 1.362 . S
C718 C721 1.409 1_455 S
C719 H711 0.930 . S
C719 C720 1.355 . S
C719 C721 1.415 . S
C720 C719 1.355 . S
C720 C722 1.419 . S
C721 C716 1.425 . S
C721 C718 1.409 1_655 S
C721 C719 1.415 . S
C722 H712 0.930 . S
C722 C720 1.419 . S
C722 C723 1.362 . S
C723 H713 0.930 . S
C723 C716 1.409 . S
C723 C722 1.362 . S
H724 C730 0.930 . S
H725 C733 0.930 . S
H726 C734 0.930 . S
H727 C735 0.930 . S
H728 C738 0.930 . S
H729 C739 0.930 . S
C730 H724 0.930 . S
C730 C731 1.355 . S
C730 C732 1.415 . S
C731 C730 1.355 . S
C731 C733 1.419 . S
C732 C730 1.415 . S
C732 C737 1.425 . S
C732 C739 1.409 . S
C733 H725 0.930 . S
C733 C731 1.419 . S
C733 C734 1.362 . S
C734 H726 0.930 . S
C734 C733 1.362 . S
C734 C737 1.409 . S
C735 H727 0.930 . S
C735 C736 1.355 . S
C735 C737 1.415 . S
C736 C735 1.355 . S
C736 C738 1.419 . S
C737 C732 1.425 . S
C737 C734 1.409 . S
C737 C735 1.415 . S
C738 H728 0.930 . S
C738 C736 1.419 . S
C738 C739 1.362 . S
C739 H729 0.930 . S
C739 C732 1.409 . S
C739 C738 1.362 . S
H740 C746 0.930 . S
H741 C749 0.930 1_455 S
H742 C750 0.930 . S
H743 C751 0.930 . S
H744 C754 0.930 . S
H745 C755 0.930 . S
C746 H740 0.930 . S
C746 C747 1.355 . S
C746 C748 1.415 1_455 S
C747 C746 1.355 . S
C747 C749 1.419 1_455 S
C748 C746 1.415 1_655 S
C748 C753 1.425 . S
C748 C755 1.409 . S
C749 H741 0.930 1_655 S
C749 C747 1.419 1_655 S
C749 C750 1.362 . S
C750 H742 0.930 . S
C750 C749 1.362 . S
C750 C753 1.409 . S
C751 H743 0.930 . S
C751 C752 1.355 . S
C751 C753 1.415 . S
C752 C751 1.355 . S
C752 C754 1.419 . S
C753 C748 1.425 . S
C753 C750 1.409 . S
C753 C751 1.415 . S
C754 H744 0.930 . S
C754 C752 1.419 . S
C754 C755 1.362 . S
C755 H745 0.930 . S
C755 C748 1.409 . S
C755 C754 1.362 . S
H756 C762 0.930 . S
H757 C765 0.930 . S
H758 C766 0.930 . S
H759 C767 0.930 . S
H760 C770 0.930 . S
H761 C771 0.930 . S
C762 H756 0.930 . S
C762 C763 1.355 . S
C762 C764 1.415 . S
C763 C762 1.355 . S
C763 C765 1.419 . S
C764 C762 1.415 . S
C764 C769 1.425 . S
C764 C771 1.409 . S
C765 H757 0.930 . S
C765 C763 1.419 . S
C765 C766 1.362 . S
C766 H758 0.930 . S
C766 C765 1.362 . S
C766 C769 1.409 . S
C767 H759 0.930 . S
C767 C768 1.355 . S
C767 C769 1.415 . S
C768 C767 1.355 . S
C768 C770 1.419 . S
C769 C764 1.425 . S
C769 C766 1.409 . S
C769 C767 1.415 . S
C770 H760 0.930 . S
C770 C768 1.419 . S
C770 C771 1.362 . S
C771 H761 0.930 . S
C771 C764 1.409 . S
C771 C770 1.362 . S
H772 C778 0.930 . S
H773 C781 0.930 . S
H774 C782 0.930 . S
H775 C783 0.930 . S
H776 C786 0.930 . S
H777 C787 0.930 . S
C778 H772 0.930 . S
C778 C779 1.355 . S
C778 C780 1.415 . S
C779 C778 1.355 . S
C779 C781 1.419 . S
C780 C778 1.415 . S
C780 C785 1.425 . S
C780 C787 1.409 . S
C781 H773 0.930 . S
C781 C779 1.419 . S
C781 C782 1.362 . S
C782 H774 0.930 . S
C782 C781 1.362 . S
C782 C785 1.409 . S
C783 H775 0.930 . S
C783 C784 1.355 . S
C783 C785 1.415 . S
C784 C783 1.355 . S
C784 C786 1.419 . S
C785 C780 1.425 . S
C785 C782 1.409 . S
C785 C783 1.415 . S
C786 H776 0.930 . S
C786 C784 1.419 . S
C786 C787 1.362 . S
C787 H777 0.930 . S
C787 C780 1.409 . S
C787 C786 1.362 . S
H788 C794 0.930 . S
H789 C797 0.930 . S
H790 C798 0.930 . S
H791 C799 0.930 . S
H792 C802 0.930 . S
H793 C803 0.930 . S
C794 H788 0.930 . S
C794 C795 1.355 . S
C794 C796 1.415 . S
C795 C794 1.355 . S
C795 C797 1.419 . S
C796 C794 1.415 . S
C796 C801 1.425 . S
C796 C803 1.409 . S
C797 H789 0.930 . S
C797 C795 1.419 . S
C797 C798 1.362 . S
C798 H790 0.930 . S
C798 C797 1.362 . S
C798 C801 1.409 . S
C799 H791 0.930 . S
C799 C800 1.355 . S
C799 C801 1.415 . S
C800 C799 1.355 . S
C800 C802 1.419 . S
C801 C796 1.425 . S
C801 C798 1.409 . S
C801 C799 1.415 . S
C802 H792 0.930 . S
C802 C800 1.419 . S
C802 C803 1.362 . S
C803 H793 0.930 . S
C803 C796 1.409 . S
C803 C802 1.362 . S
H804 C810 0.930 . S
H805 C813 0.930 . S
H806 C814 0.930 . S
H807 C815 0.930 . S
H808 C818 0.930 . S
H809 C819 0.930 . S
C810 H804 0.930 . S
C810 C811 1.355 . S
C810 C812 1.415 . S
C811 C810 1.355 . S
C811 C813 1.419 . S
C812 C810 1.415 . S
C812 C817 1.425 . S
C812 C819 1.409 . S
C813 H805 0.930 . S
C813 C811 1.419 . S
C813 C814 1.362 . S
C814 H806 0.930 . S
C814 C813 1.362 . S
C814 C817 1.409 . S
C815 H807 0.930 . S
C815 C816 1.355 . S
C815 C817 1.415 . S
C816 C815 1.355 . S
C816 C818 1.419 . S
C817 C812 1.425 . S
C817 C814 1.409 . S
C817 C815 1.415 . S
C818 H808 0.930 . S
C818 C816 1.419 . S
C818 C819 1.362 . S
C819 H809 0.930 . S
C819 C812 1.409 . S
C819 C818 1.362 . S
H820 C826 0.930 . S
H821 C829 0.930 . S
H822 C830 0.930 . S
H823 C831 0.930 . S
H824 C834 0.930 . S
H825 C835 0.930 . S
C826 H820 0.930 . S
C826 C827 1.355 . S
C826 C828 1.415 . S
C827 C826 1.355 . S
C827 C829 1.419 . S
C828 C826 1.415 . S
C828 C833 1.425 . S
C828 C835 1.409 . S
C829 H821 0.930 . S
C829 C827 1.419 . S
C829 C830 1.362 . S
C830 H822 0.930 . S
C830 C829 1.362 . S
C830 C833 1.409 . S
C831 H823 0.930 . S
C831 C832 1.355 . S
C831 C833 1.415 . S
C832 C831 1.355 . S
C832 C834 1.419 . S
C833 C828 1.425 . S
C833 C830 1.409 . S
C833 C831 1.415 . S
C834 H824 0.930 . S
C834 C832 1.419 . S
C834 C835 1.362 . S
C835 H825 0.930 . S
C835 C828 1.409 . S
C835 C834 1.362 . S
H836 C842 0.930 . S
H837 C845 0.930 . S
H838 C846 0.930 . S
H839 C847 0.930 . S
H840 C850 0.930 . S
H841 C851 0.930 . S
C842 H836 0.930 . S
C842 C843 1.355 . S
C842 C844 1.415 . S
C843 C842 1.355 . S
C843 C845 1.419 . S
C844 C842 1.415 . S
C844 C849 1.425 . S
C844 C851 1.409 . S
C845 H837 0.930 . S
C845 C843 1.419 . S
C845 C846 1.362 . S
C846 H838 0.930 . S
C846 C845 1.362 . S
C846 C849 1.409 . S
C847 H839 0.930 . S
C847 C848 1.355 . S
C847 C849 1.415 . S
C848 C847 1.355 . S
C848 C850 1.419 . S
C849 C844 1.425 . S
C849 C846 1.409 . S
C849 C847 1.415 . S
C850 H840 0.930 . S
C850 C848 1.419 . S
C850 C851 1.362 . S
C851 H841 0.930 . S
C851 C844 1.409 . S
C851 C850 1.362 . S
H852 C858 0.930 . S
H853 C861 0.930 . S
H854 C862 0.930 . S
H855 C863 0.930 . S
H856 C866 0.930 . S
H857 C867 0.930 . S
C858 H852 0.930 . S
C858 C859 1.355 . S
C858 C860 1.415 . S
C859 C858 1.355 . S
C859 C861 1.419 . S
C860 C858 1.415 . S
C860 C865 1.425 . S
C860 C867 1.409 . S
C861 H853 0.930 . S
C861 C859 1.419 . S
C861 C862 1.362 . S
C862 H854 0.930 . S
C862 C861 1.362 . S
C862 C865 1.409 . S
C863 H855 0.930 . S
C863 C864 1.355 . S
C863 C865 1.415 . S
C864 C863 1.355 . S
C864 C866 1.419 . S
C865 C860 1.425 . S
C865 C862 1.409 . S
C865 C863 1.415 . S
C866 H856 0.930 . S
C866 C864 1.419 . S
C866 C867 1.362 . S
C867 H857 0.930 . S
C867 C860 1.409 . S
C867 C866 1.362 . S
H868 C874 0.930 . S
H869 C877 0.930 . S
H870 C878 0.930 . S
H871 C879 0.930 . S
H872 C882 0.930 . S
H873 C883 0.930 . S
C874 H868 0.930 . S
C874 C875 1.355 . S
C874 C876 1.415 . S
C875 C874 1.355 . S
C875 C877 1.419 . S
C876 C874 1.415 . S
C876 C881 1.425 . S
C876 C883 1.409 . S
C877 H869 0.930 . S
C877 C875 1.419 . S
C877 C878 1.362 . S
C878 H870 0.930 . S
C878 C877 1.362 . S
C878 C881 1.409 . S
C879 H871 0.930 . S
C879 C880 1.355 . S
C879 C881 1.415 . S
C880 C879 1.355 . S
C880 C882 1.419 . S
C881 C876 1.425 . S
C881 C878 1.409 . S
C881 C879 1.415 . S
C882 H872 0.930 . S
C882 C880 1.419 . S
C882 C883 1.362 . S
C883 H873 0.930 . S
C883 C876 1.409 . S
C883 C882 1.362 . S
H884 C890 0.930 . S
H885 C893 0.930 . S
H886 C894 0.930 . S
H887 C895 0.930 . S
H888 C898 0.930 . S
H889 C899 0.930 . S
C890 H884 0.930 . S
C890 C891 1.355 . S
C890 C892 1.415 . S
C891 C890 1.355 . S
C891 C893 1.419 . S
C892 C890 1.415 . S
C892 C897 1.425 . S
C892 C899 1.409 . S
C893 H885 0.930 . S
C893 C891 1.419 . S
C893 C894 1.362 . S
C894 H886 0.930 . S
C894 C893 1.362 . S
C894 C897 1.409 . S
C895 H887 0.930 . S
C895 C896 1.355 . S
C895 C897 1.415 . S
C896 C895 1.355 . S
C896 C898 1.419 . S
C897 C892 1.425 . S
C897 C894 1.409 . S
C897 C895 1.415 . S
C898 H888 0.930 . S
C898 C896 1.419 . S
C898 C899 1.362 . S
C899 H889 0.930 . S
C899 C892 1.409 . S
C899 C898 1.362 . S
H900 C906 0.930 . S
H901 C909 0.916 1_554 S
H902 C910 0.930 1_554 S
H903 C911 0.930 . S
H904 C914 0.930 . S
H905 C915 0.930 1_455 S
C906 H900 0.930 . S
C906 C907 1.355 . S
C906 C908 1.415 . S
C907 C906 1.355 . S
C907 C909 1.433 . S
C908 C906 1.415 . S
C908 C913 1.425 1_455 S
C908 C915 1.409 1_455 S
C909 H901 0.916 1_556 S
C909 C907 1.433 . S
C909 C910 1.363 1_455 S
C910 H902 0.930 1_556 S
C910 C909 1.363 1_655 S
C910 C913 1.409 . S
C911 H903 0.930 . S
C911 C912 1.355 . S
C911 C913 1.415 . S
C912 C911 1.355 . S
C912 C914 1.419 . S
C913 C908 1.425 1_655 S
C913 C910 1.409 . S
C913 C911 1.415 . S
C914 H904 0.930 . S
C914 C912 1.419 . S
C914 C915 1.362 . S
C915 H905 0.930 1_655 S
C915 C908 1.409 1_655 S
C915 C914 1.362 . S
H916 C922 0.930 . S
H917 C925 0.930 . S
H918 C926 0.930 . S
H919 C927 0.930 . S
H920 C930 0.930 . S
H921 C931 0.930 . S
C922 H916 0.930 . S
C922 C923 1.355 . S
C922 C924 1.415 . S
C923 C922 1.355 . S
C923 C925 1.419 . S
C924 C922 1.415 . S
C924 C929 1.425 . S
C924 C931 1.409 . S
C925 H917 0.930 . S
C925 C923 1.419 . S
C925 C926 1.362 . S
C926 H918 0.930 . S
C926 C925 1.362 . S
C926 C929 1.409 . S
C927 H919 0.930 . S
C927 C928 1.355 . S
C927 C929 1.415 . S
C928 C927 1.355 . S
C928 C930 1.419 . S
C929 C924 1.425 . S
C929 C926 1.409 . S
C929 C927 1.415 . S
C930 H920 0.930 . S
C930 C928 1.419 . S
C930 C931 1.362 . S
C931 H921 0.930 . S
C931 C924 1.409 . S
C931 C930 1.362 . S
H932 C938 0.930 . S
H933 C941 0.930 . S
H934 C942 0.930 . S
H935 C943 0.930 . S
H936 C946 0.930 . S
H937 C947 0.930 . S
C938 H932 0.930 . S
C938 C939 1.355 . S
C938 C940 1.415 . S
C939 C938 1.355 . S
C939 C941 1.419 . S
C940 C938 1.415 . S
C940 C945 1.425 . S
C940 C947 1.409 . S
C941 H933 0.930 . S
C941 C939 1.419 . S
C941 C942 1.362 . S
C942 H934 0.930 . S
C942 C941 1.362 . S
C942 C945 1.409 . S
C943 H935 0.930 . S
C943 C944 1.355 . S
C943 C945 1.415 . S
C944 C943 1.355 . S
C944 C946 1.419 . S
C945 C940 1.425 . S
C945 C942 1.409 . S
C945 C943 1.415 . S
C946 H936 0.930 . S
C946 C944 1.419 . S
C946 C947 1.362 . S
C947 H937 0.930 . S
C947 C940 1.409 . S
C947 C946 1.362 . S
H948 C954 0.930 . S
H949 C957 0.930 . S
H950 C958 0.930 . S
H951 C959 0.930 . S
H952 C962 0.930 . S
H953 C963 0.930 . S
C954 H948 0.930 . S
C954 C955 1.355 . S
C954 C956 1.415 . S
C955 C954 1.355 . S
C955 C957 1.419 . S
C956 C954 1.415 . S
C956 C961 1.425 . S
C956 C963 1.409 . S
C957 H949 0.930 . S
C957 C955 1.419 . S
C957 C958 1.362 . S
C958 H950 0.930 . S
C958 C957 1.362 . S
C958 C961 1.409 . S
C959 H951 0.930 . S
C959 C960 1.355 . S
C959 C961 1.415 . S
C960 C959 1.355 . S
C960 C962 1.419 . S
C961 C956 1.425 . S
C961 C958 1.409 . S
C961 C959 1.415 . S
C962 H952 0.930 . S
C962 C960 1.419 . S
C962 C963 1.362 . S
C963 H953 0.930 . S
C963 C956 1.409 . S
C963 C962 1.362 . S
H964 C970 0.930 . S
H965 C973 0.930 . S
H966 C974 0.930 . S
H967 C975 0.930 . S
H968 C978 0.930 . S
H969 C979 0.930 . S
C970 H964 0.930 . S
C970 C971 1.355 . S
C970 C972 1.415 . S
C971 C970 1.355 . S
C971 C973 1.419 . S
C972 C970 1.415 . S
C972 C977 1.425 . S
C972 C979 1.409 . S
C973 H965 0.930 . S
C973 C971 1.419 . S
C973 C974 1.362 . S
C974 H966 0.930 . S
C974 C973 1.362 . S
C974 C977 1.409 . S
C975 H967 0.930 . S
C975 C976 1.355 . S
C975 C977 1.415 . S
C976 C975 1.355 . S
C976 C978 1.419 . S
C977 C972 1.425 . S
C977 C974 1.409 . S
C977 C975 1.415 . S
C978 H968 0.930 . S
C978 C976 1.419 . S
C978 C979 1.362 . S
C979 H969 0.930 . S
C979 C972 1.409 . S
C979 C978 1.362 . S
H980 C986 0.930 . S
H981 C989 0.930 . S
H982 C990 0.930 . S
H983 C991 0.930 . S
H984 C994 0.930 . S
H985 C995 0.930 . S
C986 H980 0.930 . S
C986 C987 1.355 . S
C986 C988 1.415 . S
C987 C986 1.355 . S
C987 C989 1.419 . S
C988 C986 1.415 . S
C988 C993 1.425 . S
C988 C995 1.409 . S
C989 H981 0.930 . S
C989 C987 1.419 . S
C989 C990 1.362 . S
C990 H982 0.930 . S
C990 C989 1.362 . S
C990 C993 1.409 . S
C991 H983 0.930 . S
C991 C992 1.355 . S
C991 C993 1.415 . S
C992 C991 1.355 . S
C992 C994 1.419 . S
C993 C988 1.425 . S
C993 C990 1.409 . S
C993 C991 1.415 . S
C994 H984 0.930 . S
C994 C992 1.419 . S
C994 C995 1.362 . S
C995 H985 0.930 . S
C995 C988 1.409 . S
C995 C994 1.362 . S
H996 C1002 0.930 . S
H997 C1005 0.930 . S
H998 C1006 0.930 . S
H999 C1007 0.930 . S
H1000 C1010 0.930 . S
H1001 C1011 0.930 . S
C1002 H996 0.930 . S
C1002 C1003 1.355 . S
C1002 C1004 1.415 . S
C1003 C1002 1.355 . S
C1003 C1005 1.419 . S
C1004 C1002 1.415 . S
C1004 C1009 1.425 . S
C1004 C1011 1.409 . S
C1005 H997 0.930 . S
C1005 C1003 1.419 . S
C1005 C1006 1.362 . S
C1006 H998 0.930 . S
C1006 C1005 1.362 . S
C1006 C1009 1.409 . S
C1007 H999 0.930 . S
C1007 C1008 1.355 . S
C1007 C1009 1.415 . S
C1008 C1007 1.355 . S
C1008 C1010 1.419 . S
C1009 C1004 1.425 . S
C1009 C1006 1.409 . S
C1009 C1007 1.415 . S
C1010 H1000 0.930 . S
C1010 C1008 1.419 . S
C1010 C1011 1.362 . S
C1011 H1001 0.930 . S
C1011 C1004 1.409 . S
C1011 C1010 1.362 . S
H1012 C1018 0.930 . S
H1013 C1021 0.930 . S
H1014 C1022 0.930 . S
H1015 C1023 0.930 . S
H1016 C1026 0.930 . S
H1017 C1027 0.930 . S
C1018 H1012 0.930 . S
C1018 C1019 1.355 . S
C1018 C1020 1.415 . S
C1019 C1018 1.355 . S
C1019 C1021 1.419 . S
C1020 C1018 1.415 . S
C1020 C1025 1.425 . S
C1020 C1027 1.409 . S
C1021 H1013 0.930 . S
C1021 C1019 1.419 . S
C1021 C1022 1.362 . S
C1022 H1014 0.930 . S
C1022 C1021 1.362 . S
C1022 C1025 1.409 . S
C1023 H1015 0.930 . S
C1023 C1024 1.355 . S
C1023 C1025 1.415 . S
C1024 C1023 1.355 . S
C1024 C1026 1.419 . S
C1025 C1020 1.425 . S
C1025 C1022 1.409 . S
C1025 C1023 1.415 . S
C1026 H1016 0.930 . S
C1026 C1024 1.419 . S
C1026 C1027 1.362 . S
C1027 H1017 0.930 . S
C1027 C1020 1.409 . S
C1027 C1026 1.362 . S
H1028 C1034 0.930 . S
H1029 C1037 0.930 . S
H1030 C1038 0.930 . S
H1031 C1039 0.930 . S
H1032 C1042 0.930 . S
H1033 C1043 0.930 . S
C1034 H1028 0.930 . S
C1034 C1035 1.355 . S
C1034 C1036 1.415 . S
C1035 C1034 1.355 . S
C1035 C1037 1.419 . S
C1036 C1034 1.415 . S
C1036 C1041 1.425 . S
C1036 C1043 1.409 . S
C1037 H1029 0.930 . S
C1037 C1035 1.419 . S
C1037 C1038 1.362 . S
C1038 H1030 0.930 . S
C1038 C1037 1.362 . S
C1038 C1041 1.409 . S
C1039 H1031 0.930 . S
C1039 C1040 1.355 . S
C1039 C1041 1.415 . S
C1040 C1039 1.355 . S
C1040 C1042 1.419 . S
C1041 C1036 1.425 . S
C1041 C1038 1.409 . S
C1041 C1039 1.415 . S
C1042 H1032 0.930 . S
C1042 C1040 1.419 . S
C1042 C1043 1.362 . S
C1043 H1033 0.930 . S
C1043 C1036 1.409 . S
C1043 C1042 1.362 . S
H1044 C1050 0.930 . S
H1045 C1053 0.930 . S
H1046 C1054 0.930 . S
H1047 C1055 0.930 . S
H1048 C1058 0.930 . S
H1049 C1059 0.930 . S
C1050 H1044 0.930 . S
C1050 C1051 1.355 . S
C1050 C1052 1.415 . S
C1051 C1050 1.355 . S
C1051 C1053 1.419 . S
C1052 C1050 1.415 . S
C1052 C1057 1.425 . S
C1052 C1059 1.409 . S
C1053 H1045 0.930 . S
C1053 C1051 1.419 . S
C1053 C1054 1.362 . S
C1054 H1046 0.930 . S
C1054 C1053 1.362 . S
C1054 C1057 1.409 . S
C1055 H1047 0.930 . S
C1055 C1056 1.355 . S
C1055 C1057 1.415 . S
C1056 C1055 1.355 . S
C1056 C1058 1.419 . S
C1057 C1052 1.425 . S
C1057 C1054 1.409 . S
C1057 C1055 1.415 . S
C1058 H1048 0.930 . S
C1058 C1056 1.419 . S
C1058 C1059 1.362 . S
C1059 H1049 0.930 . S
C1059 C1052 1.409 . S
C1059 C1058 1.362 . S
H1060 C1066 0.930 . S
H1061 C1069 0.930 . S
H1062 C1070 0.930 . S
H1063 C1071 0.930 . S
H1064 C1074 0.930 . S
H1065 C1075 0.930 . S
C1066 H1060 0.930 . S
C1066 C1067 1.355 . S
C1066 C1068 1.415 . S
C1067 C1066 1.355 . S
C1067 C1069 1.419 . S
C1068 C1066 1.415 . S
C1068 C1073 1.425 . S
C1068 C1075 1.409 . S
C1069 H1061 0.930 . S
C1069 C1067 1.419 . S
C1069 C1070 1.362 . S
C1070 H1062 0.930 . S
C1070 C1069 1.362 . S
C1070 C1073 1.409 . S
C1071 H1063 0.930 . S
C1071 C1072 1.355 . S
C1071 C1073 1.415 . S
C1072 C1071 1.355 . S
C1072 C1074 1.419 . S
C1073 C1068 1.425 . S
C1073 C1070 1.409 . S
C1073 C1071 1.415 . S
C1074 H1064 0.930 . S
C1074 C1072 1.419 . S
C1074 C1075 1.362 . S
C1075 H1065 0.930 . S
C1075 C1068 1.409 . S
C1075 C1074 1.362 . S
H1076 C1082 0.930 . S
H1077 C1085 0.930 . S
H1078 C1086 0.930 . S
H1079 C1087 0.930 . S
H1080 C1090 0.930 . S
H1081 C1091 0.930 . S
C1082 H1076 0.930 . S
C1082 C1083 1.355 . S
C1082 C1084 1.415 . S
C1083 C1082 1.355 . S
C1083 C1085 1.419 . S
C1084 C1082 1.415 . S
C1084 C1089 1.425 . S
C1084 C1091 1.409 . S
C1085 H1077 0.930 . S
C1085 C1083 1.419 . S
C1085 C1086 1.362 . S
C1086 H1078 0.930 . S
C1086 C1085 1.362 . S
C1086 C1089 1.409 . S
C1087 H1079 0.930 . S
C1087 C1088 1.355 . S
C1087 C1089 1.415 . S
C1088 C1087 1.355 . S
C1088 C1090 1.419 . S
C1089 C1084 1.425 . S
C1089 C1086 1.409 . S
C1089 C1087 1.415 . S
C1090 H1080 0.930 . S
C1090 C1088 1.419 . S
C1090 C1091 1.362 . S
C1091 H1081 0.930 . S
C1091 C1084 1.409 . S
C1091 C1090 1.362 . S
H1092 C1098 0.930 . S
H1093 C1101 0.930 . S
H1094 C1102 0.930 . S
H1095 C1103 0.930 . S
H1096 C1106 0.930 . S
H1097 C1107 0.930 . S
C1098 H1092 0.930 . S
C1098 C1099 1.355 . S
C1098 C1100 1.415 . S
C1099 C1098 1.355 . S
C1099 C1101 1.419 . S
C1100 C1098 1.415 . S
C1100 C1105 1.425 . S
C1100 C1107 1.409 . S
C1101 H1093 0.930 . S
C1101 C1099 1.419 . S
C1101 C1102 1.362 . S
C1102 H1094 0.930 . S
C1102 C1101 1.362 . S
C1102 C1105 1.409 . S
C1103 H1095 0.930 . S
C1103 C1104 1.355 . S
C1103 C1105 1.415 . S
C1104 C1103 1.355 . S
C1104 C1106 1.419 . S
C1105 C1100 1.425 . S
C1105 C1102 1.409 . S
C1105 C1103 1.415 . S
C1106 H1096 0.930 . S
C1106 C1104 1.419 . S
C1106 C1107 1.362 . S
C1107 H1097 0.930 . S
C1107 C1100 1.409 . S
C1107 C1106 1.362 . S
H1108 C1114 0.930 . S
H1109 C1117 0.930 . S
H1110 C1118 0.930 . S
H1111 C1119 0.930 . S
H1112 C1122 0.930 . S
H1113 C1123 0.930 . S
C1114 H1108 0.930 . S
C1114 C1115 1.355 . S
C1114 C1116 1.415 . S
C1115 C1114 1.355 . S
C1115 C1117 1.419 . S
C1116 C1114 1.415 . S
C1116 C1121 1.425 . S
C1116 C1123 1.409 . S
C1117 H1109 0.930 . S
C1117 C1115 1.419 . S
C1117 C1118 1.362 . S
C1118 H1110 0.930 . S
C1118 C1117 1.362 . S
C1118 C1121 1.409 . S
C1119 H1111 0.930 . S
C1119 C1120 1.355 . S
C1119 C1121 1.415 . S
C1120 C1119 1.355 . S
C1120 C1122 1.419 . S
C1121 C1116 1.425 . S
C1121 C1118 1.409 . S
C1121 C1119 1.415 . S
C1122 H1112 0.930 . S
C1122 C1120 1.419 . S
C1122 C1123 1.362 . S
C1123 H1113 0.930 . S
C1123 C1116 1.409 . S
C1123 C1122 1.362 . S
H1124 C1130 0.930 . S
H1125 C1133 0.930 . S
H1126 C1134 0.930 . S
H1127 C1135 0.930 . S
H1128 C1138 0.930 . S
H1129 C1139 0.930 . S
C1130 H1124 0.930 . S
C1130 C1131 1.355 . S
C1130 C1132 1.415 . S
C1131 C1130 1.355 . S
C1131 C1133 1.419 . S
C1132 C1130 1.415 . S
C1132 C1137 1.425 . S
C1132 C1139 1.409 . S
C1133 H1125 0.930 . S
C1133 C1131 1.419 . S
C1133 C1134 1.362 . S
C1134 H1126 0.930 . S
C1134 C1133 1.362 . S
C1134 C1137 1.409 . S
C1135 H1127 0.930 . S
C1135 C1136 1.355 . S
C1135 C1137 1.415 . S
C1136 C1135 1.355 . S
C1136 C1138 1.419 . S
C1137 C1132 1.425 . S
C1137 C1134 1.409 . S
C1137 C1135 1.415 . S
C1138 H1128 0.930 . S
C1138 C1136 1.419 . S
C1138 C1139 1.362 . S
C1139 H1129 0.930 . S
C1139 C1132 1.409 . S
C1139 C1138 1.362 . S
H1140 C1146 0.930 . S
H1141 C1149 0.930 . S
H1142 C1150 0.930 . S
H1143 C1151 0.930 . S
H1144 C1154 0.930 . S
H1145 C1155 0.930 . S
C1146 H1140 0.930 . S
C1146 C1147 1.355 . S
C1146 C1148 1.415 . S
C1147 C1146 1.355 . S
C1147 C1149 1.419 . S
C1148 C1146 1.415 . S
C1148 C1153 1.425 . S
C1148 C1155 1.409 . S
C1149 H1141 0.930 . S
C1149 C1147 1.419 . S
C1149 C1150 1.362 . S
C1150 H1142 0.930 . S
C1150 C1149 1.362 . S
C1150 C1153 1.409 . S
C1151 H1143 0.930 . S
C1151 C1152 1.355 . S
C1151 C1153 1.415 . S
C1152 C1151 1.355 . S
C1152 C1154 1.419 . S
C1153 C1148 1.425 . S
C1153 C1150 1.409 . S
C1153 C1151 1.415 . S
C1154 H1144 0.930 . S
C1154 C1152 1.419 . S
C1154 C1155 1.362 . S
C1155 H1145 0.930 . S
C1155 C1148 1.409 . S
C1155 C1154 1.362 . S
H1156 C1162 0.930 . S
H1157 C1165 0.930 . S
H1158 C1166 0.930 . S
H1159 C1167 0.930 . S
H1160 C1170 0.930 . S
H1161 C1171 0.930 . S
C1162 H1156 0.930 . S
C1162 C1163 1.355 . S
C1162 C1164 1.415 . S
C1163 C1162 1.355 . S
C1163 C1165 1.419 . S
C1164 C1162 1.415 . S
C1164 C1169 1.425 . S
C1164 C1171 1.409 . S
C1165 H1157 0.930 . S
C1165 C1163 1.419 . S
C1165 C1166 1.362 . S
C1166 H1158 0.930 . S
C1166 C1165 1.362 . S
C1166 C1169 1.409 . S
C1167 H1159 0.930 . S
C1167 C1168 1.355 . S
C1167 C1169 1.415 . S
C1168 C1167 1.355 . S
C1168 C1170 1.419 . S
C1169 C1164 1.425 . S
C1169 C1166 1.409 . S
C1169 C1167 1.415 . S
C1170 H1160 0.930 . S
C1170 C1168 1.419 . S
C1170 C1171 1.362 . S
C1171 H1161 0.930 . S
C1171 C1164 1.409 . S
C1171 C1170 1.362 . S
H1172 C1178 0.930 . S
H1173 C1181 0.930 . S
H1174 C1182 0.930 . S
H1175 C1183 0.930 . S
H1176 C1186 0.930 . S
H1177 C1187 0.930 . S
C1178 H1172 0.930 . S
C1178 C1179 1.355 . S
C1178 C1180 1.415 . S
C1179 C1178 1.355 . S
C1179 C1181 1.419 . S
C1180 C1178 1.415 . S
C1180 C1185 1.425 . S
C1180 C1187 1.409 . S
C1181 H1173 0.930 . S
C1181 C1179 1.419 . S
C1181 C1182 1.362 . S
C1182 H1174 0.930 . S
C1182 C1181 1.362 . S
C1182 C1185 1.409 . S
C1183 H1175 0.930 . S
C1183 C1184 1.355 . S
C1183 C1185 1.415 . S
C1184 C1183 1.355 . S
C1184 C1186 1.419 . S
C1185 C1180 1.425 . S
C1185 C1182 1.409 . S
C1185 C1183 1.415 . S
C1186 H1176 0.930 . S
C1186 C1184 1.419 . S
C1186 C1187 1.362 . S
C1187 H1177 0.930 . S
C1187 C1180 1.409 . S
C1187 C1186 1.362 . S
H1188 C1194 0.930 . S
H1189 C1197 0.930 . S
H1190 C1198 0.930 . S
H1191 C1199 0.930 . S
H1192 C1202 0.930 . S
H1193 C1203 0.930 . S
C1194 H1188 0.930 . S
C1194 C1195 1.355 . S
C1194 C1196 1.415 . S
C1195 C1194 1.355 . S
C1195 C1197 1.419 . S
C1196 C1194 1.415 . S
C1196 C1201 1.425 . S
C1196 C1203 1.409 . S
C1197 H1189 0.930 . S
C1197 C1195 1.419 . S
C1197 C1198 1.362 . S
C1198 H1190 0.930 . S
C1198 C1197 1.362 . S
C1198 C1201 1.409 . S
C1199 H1191 0.930 . S
C1199 C1200 1.355 . S
C1199 C1201 1.415 . S
C1200 C1199 1.355 . S
C1200 C1202 1.419 . S
C1201 C1196 1.425 . S
C1201 C1198 1.409 . S
C1201 C1199 1.415 . S
C1202 H1192 0.930 . S
C1202 C1200 1.419 . S
C1202 C1203 1.362 . S
C1203 H1193 0.930 . S
C1203 C1196 1.409 . S
C1203 C1202 1.362 . S
H1204 C1210 0.930 . S
H1205 C1213 0.930 . S
H1206 C1214 0.930 . S
H1207 C1215 0.930 . S
H1208 C1218 0.930 . S
H1209 C1219 0.930 . S
C1210 H1204 0.930 . S
C1210 C1211 1.355 . S
C1210 C1212 1.415 . S
C1211 C1210 1.355 . S
C1211 C1213 1.419 . S
C1212 C1210 1.415 . S
C1212 C1217 1.425 . S
C1212 C1219 1.409 . S
C1213 H1205 0.930 . S
C1213 C1211 1.419 . S
C1213 C1214 1.362 . S
C1214 H1206 0.930 . S
C1214 C1213 1.362 . S
C1214 C1217 1.409 . S
C1215 H1207 0.930 . S
C1215 C1216 1.355 . S
C1215 C1217 1.415 . S
C1216 C1215 1.355 . S
C1216 C1218 1.419 . S
C1217 C1212 1.425 . S
C1217 C1214 1.409 . S
C1217 C1215 1.415 . S
C1218 H1208 0.930 . S
C1218 C1216 1.419 . S
C1218 C1219 1.362 . S
C1219 H1209 0.930 . S
C1219 C1212 1.409 . S
C1219 C1218 1.362 . S
H1220 C1226 0.930 . S
H1221 C1229 0.930 . S
H1222 C1230 0.930 . S
H1223 C1231 0.930 . S
H1224 C1234 0.930 . S
H1225 C1235 0.930 . S
C1226 H1220 0.930 . S
C1226 C1227 1.355 . S
C1226 C1228 1.415 . S
C1227 C1226 1.355 . S
C1227 C1229 1.419 . S
C1228 C1226 1.415 . S
C1228 C1233 1.425 . S
C1228 C1235 1.409 . S
C1229 H1221 0.930 . S
C1229 C1227 1.419 . S
C1229 C1230 1.362 . S
C1230 H1222 0.930 . S
C1230 C1229 1.362 . S
C1230 C1233 1.409 . S
C1231 H1223 0.930 . S
C1231 C1232 1.355 . S
C1231 C1233 1.415 . S
C1232 C1231 1.355 . S
C1232 C1234 1.419 . S
C1233 C1228 1.425 . S
C1233 C1230 1.409 . S
C1233 C1231 1.415 . S
C1234 H1224 0.930 . S
C1234 C1232 1.419 . S
C1234 C1235 1.362 . S
C1235 H1225 0.930 . S
C1235 C1228 1.409 . S
C1235 C1234 1.362 . S
H1236 C1242 0.930 . S
H1237 C1245 0.930 . S
H1238 C1246 0.930 . S
H1239 C1247 0.930 . S
H1240 C1250 0.930 . S
H1241 C1251 0.930 . S
C1242 H1236 0.930 . S
C1242 C1243 1.355 . S
C1242 C1244 1.415 . S
C1243 C1242 1.355 . S
C1243 C1245 1.419 . S
C1244 C1242 1.415 . S
C1244 C1249 1.425 . S
C1244 C1251 1.409 . S
C1245 H1237 0.930 . S
C1245 C1243 1.419 . S
C1245 C1246 1.362 . S
C1246 H1238 0.930 . S
C1246 C1245 1.362 . S
C1246 C1249 1.409 . S
C1247 H1239 0.930 . S
C1247 C1248 1.355 . S
C1247 C1249 1.415 . S
C1248 C1247 1.355 . S
C1248 C1250 1.419 . S
C1249 C1244 1.425 . S
C1249 C1246 1.409 . S
C1249 C1247 1.415 . S
C1250 H1240 0.930 . S
C1250 C1248 1.419 . S
C1250 C1251 1.362 . S
C1251 H1241 0.930 . S
C1251 C1244 1.409 . S
C1251 C1250 1.362 . S
H1252 C1258 0.930 . S
H1253 C1261 0.930 . S
H1254 C1262 0.930 . S
H1255 C1263 0.930 . S
H1256 C1266 0.930 . S
H1257 C1267 0.930 . S
C1258 H1252 0.930 . S
C1258 C1259 1.355 . S
C1258 C1260 1.415 . S
C1259 C1258 1.355 . S
C1259 C1261 1.419 . S
C1260 C1258 1.415 . S
C1260 C1265 1.425 . S
C1260 C1267 1.409 . S
C1261 H1253 0.930 . S
C1261 C1259 1.419 . S
C1261 C1262 1.362 . S
C1262 H1254 0.930 . S
C1262 C1261 1.362 . S
C1262 C1265 1.409 . S
C1263 H1255 0.930 . S
C1263 C1264 1.355 . S
C1263 C1265 1.415 . S
C1264 C1263 1.355 . S
C1264 C1266 1.419 . S
C1265 C1260 1.425 . S
C1265 C1262 1.409 . S
C1265 C1263 1.415 . S
C1266 H1256 0.930 . S
C1266 C1264 1.419 . S
C1266 C1267 1.362 . S
C1267 H1257 0.930 . S
C1267 C1260 1.409 . S
C1267 C1266 1.362 . S
H1268 C1274 0.930 . S
H1269 C1277 0.930 . S
H1270 C1278 0.930 . S
H1271 C1279 0.930 . S
H1272 C1282 0.930 . S
H1273 C1283 0.930 . S
C1274 H1268 0.930 . S
C1274 C1275 1.355 . S
C1274 C1276 1.415 . S
C1275 C1274 1.355 . S
C1275 C1277 1.419 . S
C1276 C1274 1.415 . S
C1276 C1281 1.425 . S
C1276 C1283 1.409 . S
C1277 H1269 0.930 . S
C1277 C1275 1.419 . S
C1277 C1278 1.362 . S
C1278 H1270 0.930 . S
C1278 C1277 1.362 . S
C1278 C1281 1.409 . S
C1279 H1271 0.930 . S
C1279 C1280 1.355 . S
C1279 C1281 1.415 . S
C1280 C1279 1.355 . S
C1280 C1282 1.419 . S
C1281 C1276 1.425 . S
C1281 C1278 1.409 . S
C1281 C1279 1.415 . S
C1282 H1272 0.930 . S
C1282 C1280 1.419 . S
C1282 C1283 1.362 . S
C1283 H1273 0.930 . S
C1283 C1276 1.409 . S
C1283 C1282 1.362 . S
H1284 C1290 0.930 . S
H1285 C1293 0.930 . S
H1286 C1294 0.930 . S
H1287 C1295 0.930 . S
H1288 C1298 0.930 . S
H1289 C1299 0.930 . S
C1290 H1284 0.930 . S
C1290 C1291 1.355 . S
C1290 C1292 1.415 . S
C1291 C1290 1.355 . S
C1291 C1293 1.419 . S
C1292 C1290 1.415 . S
C1292 C1297 1.425 . S
C1292 C1299 1.409 . S
C1293 H1285 0.930 . S
C1293 C1291 1.419 . S
C1293 C1294 1.362 . S
C1294 H1286 0.930 . S
C1294 C1293 1.362 . S
C1294 C1297 1.409 . S
C1295 H1287 0.930 . S
C1295 C1296 1.355 . S
C1295 C1297 1.415 . S
C1296 C1295 1.355 . S
C1296 C1298 1.419 . S
C1297 C1292 1.425 . S
C1297 C1294 1.409 . S
C1297 C1295 1.415 . S
C1298 H1288 0.930 . S
C1298 C1296 1.419 . S
C1298 C1299 1.362 . S
C1299 H1289 0.930 . S
C1299 C1292 1.409 . S
C1299 C1298 1.362 . S
H1300 C1306 0.930 . S
H1301 C1309 0.930 . S
H1302 C1310 0.930 . S
H1303 C1311 0.930 . S
H1304 C1314 0.930 . S
H1305 C1315 0.930 . S
C1306 H1300 0.930 . S
C1306 C1307 1.355 . S
C1306 C1308 1.415 . S
C1307 C1306 1.355 . S
C1307 C1309 1.419 . S
C1308 C1306 1.415 . S
C1308 C1313 1.425 . S
C1308 C1315 1.409 . S
C1309 H1301 0.930 . S
C1309 C1307 1.419 . S
C1309 C1310 1.362 . S
C1310 H1302 0.930 . S
C1310 C1309 1.362 . S
C1310 C1313 1.409 . S
C1311 H1303 0.930 . S
C1311 C1312 1.355 . S
C1311 C1313 1.415 . S
C1312 C1311 1.355 . S
C1312 C1314 1.419 . S
C1313 C1308 1.425 . S
C1313 C1310 1.409 . S
C1313 C1311 1.415 . S
C1314 H1304 0.930 . S
C1314 C1312 1.419 . S
C1314 C1315 1.362 . S
C1315 H1305 0.930 . S
C1315 C1308 1.409 . S
C1315 C1314 1.362 . S
H1316 C1322 0.930 . S
H1317 C1325 0.930 . S
H1318 C1326 0.930 . S
H1319 C1327 0.930 . S
H1320 C1330 0.930 . S
H1321 C1331 0.930 . S
C1322 H1316 0.930 . S
C1322 C1323 1.355 . S
C1322 C1324 1.415 . S
C1323 C1322 1.355 . S
C1323 C1325 1.419 . S
C1324 C1322 1.415 . S
C1324 C1329 1.425 . S
C1324 C1331 1.409 . S
C1325 H1317 0.930 . S
C1325 C1323 1.419 . S
C1325 C1326 1.362 . S
C1326 H1318 0.930 . S
C1326 C1325 1.362 . S
C1326 C1329 1.409 . S
C1327 H1319 0.930 . S
C1327 C1328 1.355 . S
C1327 C1329 1.415 . S
C1328 C1327 1.355 . S
C1328 C1330 1.419 . S
C1329 C1324 1.425 . S
C1329 C1326 1.409 . S
C1329 C1327 1.415 . S
C1330 H1320 0.930 . S
C1330 C1328 1.419 . S
C1330 C1331 1.362 . S
C1331 H1321 0.930 . S
C1331 C1324 1.409 . S
C1331 C1330 1.362 . S
H1332 C1338 0.930 . S
H1333 C1341 0.930 . S
H1334 C1342 0.930 . S
H1335 C1343 0.930 . S
H1336 C1346 0.930 . S
H1337 C1347 0.930 . S
C1338 H1332 0.930 . S
C1338 C1339 1.355 . S
C1338 C1340 1.415 . S
C1339 C1338 1.355 . S
C1339 C1341 1.419 . S
C1340 C1338 1.415 . S
C1340 C1345 1.425 . S
C1340 C1347 1.409 . S
C1341 H1333 0.930 . S
C1341 C1339 1.419 . S
C1341 C1342 1.362 . S
C1342 H1334 0.930 . S
C1342 C1341 1.362 . S
C1342 C1345 1.409 . S
C1343 H1335 0.930 . S
C1343 C1344 1.355 . S
C1343 C1345 1.415 . S
C1344 C1343 1.355 . S
C1344 C1346 1.419 . S
C1345 C1340 1.425 . S
C1345 C1342 1.409 . S
C1345 C1343 1.415 . S
C1346 H1336 0.930 . S
C1346 C1344 1.419 . S
C1346 C1347 1.362 . S
C1347 H1337 0.930 . S
C1347 C1340 1.409 . S
C1347 C1346 1.362 . S
H1348 C1354 0.930 . S
H1349 C1357 0.930 . S
H1350 C1358 0.930 . S
H1351 C1359 0.930 . S
H1352 C1362 0.930 . S
H1353 C1363 0.930 . S
C1354 H1348 0.930 . S
C1354 C1355 1.355 . S
C1354 C1356 1.415 . S
C1355 C1354 1.355 . S
C1355 C1357 1.419 . S
C1356 C1354 1.415 . S
C1356 C1361 1.425 . S
C1356 C1363 1.409 . S
C1357 H1349 0.930 . S
C1357 C1355 1.419 . S
C1357 C1358 1.362 . S
C1358 H1350 0.930 . S
C1358 C1357 1.362 . S
C1358 C1361 1.409 . S
C1359 H1351 0.930 . S
C1359 C1360 1.355 . S
C1359 C1361 1.415 . S
C1360 C1359 1.355 . S
C1360 C1362 1.419 . S
C1361 C1356 1.425 . S
C1361 C1358 1.409 . S
C1361 C1359 1.415 . S
C1362 H1352 0.930 . S
C1362 C1360 1.419 . S
C1362 C1363 1.362 . S
C1363 H1353 0.930 . S
C1363 C1356 1.409 . S
C1363 C1362 1.362 . S
C608 C293 1.437 . S
C603 N2 1.417 . S
C624 C339 2.055 . S
C619 C7 2.028 1_655 S
C640 C382 1.460 . S
C635 N12 1.393 1_655 S
C651 C16 2.364 . S
C656 C419 2.425 . S
C672 C438 2.115 . S
C667 C30 2.102 . S
C688 C493 1.257 . S
C683 N35 1.250 . S
C699 C39 2.538 1_655 S
C704 C518 2.504 . S
C720 C582 1.231 . S
C715 N25 1.089 1_655 S
C736 C278 1.628 . S
C731 N58 1.588 . S
C747 N81 1.527 . S
C752 C342 1.522 . S
C768 C369 1.485 . S
C763 N104 1.422 . S
C779 N127 1.550 . S
C784 C422 1.517 . S
C800 C460 1.297 . S
C795 N48 1.308 . S
C816 C478 1.672 . S
C811 N71 1.667 . S
C827 N94 1.311 . S
C832 C540 1.388 . S
C848 C569 1.560 . S
C843 N117 1.507 . S
C859 C85 1.898 . S
C864 C300 1.953 . S
C875 C122 1.642 . S
C880 C453 1.639 . S
C891 C53 2.099 . S
C896 C500 2.112 . S
C912 C533 1.688 . S
C907 C76 1.712 . S
C928 C579 2.337 . S
C923 C99 2.358 . S
C944 C379 2.083 . S
C939 C131 2.078 . S
C960 C409 1.897 . S
C955 C62 1.874 . S
C971 C108 1.775 . S
C976 C329 1.763 . S
C992 C573 1.547 . S
C987 N140 1.529 . S
C1003 C145 2.042 . S
C1008 C459 2.059 . S
C1024 C502 1.348 . S
C1019 N150 1.299 . S
C1035 C154 2.327 . S
C1040 C539 2.396 . S
C1056 C318 2.131 . S
C1051 C168 2.095 . S
C1067 N173 1.194 . S
C1072 C373 1.174 . S
C1088 C398 2.505 . S
C1083 C177 2.530 . S
C1104 C302 1.362 . S
C1099 N163 1.267 . S
C1120 C558 2.078 . S
C1115 C200 2.052 . S
C1136 C462 1.716 . S
C1131 N219 1.747 . S
C1147 N242 1.667 . S
C1152 C489 1.743 . S
C1168 C542 1.820 . S
C1163 C269 1.847 . S
C1184 C340 1.638 . S
C1179 C191 1.631 . S
C1195 N209 1.994 . S
C1200 C358 1.997 . S
C1211 N232 1.677 . S
C1216 C420 1.696 . S
C1227 C260 2.016 . S
C1232 C289 2.041 . S
C1243 C223 1.538 . S
C1248 C580 1.590 . S
C1259 N255 1.379 . S
C1264 C333 1.368 . S
C1275 N186 1.692 . S
C1280 C380 1.693 . S
C1296 C413 1.411 . S
C1291 C214 1.430 . S
C1312 C299 2.043 . S
C1307 C237 2.053 . S
C1328 C499 1.635 . S
C1323 N265 1.619 . S
C1344 C529 1.546 . S
C1339 N196 1.502 . S
C1360 C449 1.461 . S
C1355 C246 1.433 . S
