# Generated by pormake.
# Topology soc, (4,6)-cn, num edge types: 1
# Building blocks:
#     Node 0, Type 0, BuildingBlock: ESEHIV_clean_sbu_0, # of connection points: 4
#     Node 1, Type 0, BuildingBlock: ESEHIV_clean_sbu_0, # of connection points: 4
#     Node 2, Type 0, BuildingBlock: ESEHIV_clean_sbu_0, # of connection points: 4
#     Node 3, Type 0, BuildingBlock: ESEHIV_clean_sbu_0, # of connection points: 4
#     Node 4, Type 0, BuildingBlock: ESEHIV_clean_sbu_0, # of connection points: 4
#     Node 5, Type 0, BuildingBlock: ESEHIV_clean_sbu_0, # of connection points: 4
#     Node 6, Type 0, BuildingBlock: ESEHIV_clean_sbu_0, # of connection points: 4
#     Node 7, Type 0, BuildingBlock: ESEHIV_clean_sbu_0, # of connection points: 4
#     Node 8, Type 0, BuildingBlock: ESEHIV_clean_sbu_0, # of connection points: 4
#     Node 9, Type 0, BuildingBlock: ESEHIV_clean_sbu_0, # of connection points: 4
#     Node 10, Type 0, BuildingBlock: ESEHIV_clean_sbu_0, # of connection points: 4
#     Node 11, Type 0, BuildingBlock: ESEHIV_clean_sbu_0, # of connection points: 4
#     Node 12, Type 1, BuildingBlock: KUMBOL_clean_sbu_0, # of connection points: 6
#     Node 13, Type 1, BuildingBlock: KUMBOL_clean_sbu_0, # of connection points: 6
#     Node 14, Type 1, BuildingBlock: KUMBOL_clean_sbu_0, # of connection points: 6
#     Node 15, Type 1, BuildingBlock: KUMBOL_clean_sbu_0, # of connection points: 6
#     Node 16, Type 1, BuildingBlock: KUMBOL_clean_sbu_0, # of connection points: 6
#     Node 17, Type 1, BuildingBlock: KUMBOL_clean_sbu_0, # of connection points: 6
#     Node 18, Type 1, BuildingBlock: KUMBOL_clean_sbu_0, # of connection points: 6
#     Node 19, Type 1, BuildingBlock: KUMBOL_clean_sbu_0, # of connection points: 6
#     Edge 20, Type (0, 1), BuildingBlock: XIVTED_clean_linker_0, # of connection points: 2
#     Edge 21, Type (0, 1), BuildingBlock: XIVTED_clean_linker_0, # of connection points: 2
#     Edge 22, Type (0, 1), BuildingBlock: XIVTED_clean_linker_0, # of connection points: 2
#     Edge 23, Type (0, 1), BuildingBlock: XIVTED_clean_linker_0, # of connection points: 2
#     Edge 24, Type (0, 1), BuildingBlock: XIVTED_clean_linker_0, # of connection points: 2
#     Edge 25, Type (0, 1), BuildingBlock: XIVTED_clean_linker_0, # of connection points: 2
#     Edge 26, Type (0, 1), BuildingBlock: XIVTED_clean_linker_0, # of connection points: 2
#     Edge 27, Type (0, 1), BuildingBlock: XIVTED_clean_linker_0, # of connection points: 2
#     Edge 28, Type (0, 1), BuildingBlock: XIVTED_clean_linker_0, # of connection points: 2
#     Edge 29, Type (0, 1), BuildingBlock: XIVTED_clean_linker_0, # of connection points: 2
#     Edge 30, Type (0, 1), BuildingBlock: XIVTED_clean_linker_0, # of connection points: 2
#     Edge 31, Type (0, 1), BuildingBlock: XIVTED_clean_linker_0, # of connection points: 2
#     Edge 32, Type (0, 1), BuildingBlock: XIVTED_clean_linker_0, # of connection points: 2
#     Edge 33, Type (0, 1), BuildingBlock: XIVTED_clean_linker_0, # of connection points: 2
#     Edge 34, Type (0, 1), BuildingBlock: XIVTED_clean_linker_0, # of connection points: 2
#     Edge 35, Type (0, 1), BuildingBlock: XIVTED_clean_linker_0, # of connection points: 2
#     Edge 36, Type (0, 1), BuildingBlock: XIVTED_clean_linker_0, # of connection points: 2
#     Edge 37, Type (0, 1), BuildingBlock: XIVTED_clean_linker_0, # of connection points: 2
#     Edge 38, Type (0, 1), BuildingBlock: XIVTED_clean_linker_0, # of connection points: 2
#     Edge 39, Type (0, 1), BuildingBlock: XIVTED_clean_linker_0, # of connection points: 2
#     Edge 40, Type (0, 1), BuildingBlock: XIVTED_clean_linker_0, # of connection points: 2
#     Edge 41, Type (0, 1), BuildingBlock: XIVTED_clean_linker_0, # of connection points: 2
#     Edge 42, Type (0, 1), BuildingBlock: XIVTED_clean_linker_0, # of connection points: 2
#     Edge 43, Type (0, 1), BuildingBlock: XIVTED_clean_linker_0, # of connection points: 2
#     Edge 44, Type (0, 1), BuildingBlock: XIVTED_clean_linker_0, # of connection points: 2
#     Edge 45, Type (0, 1), BuildingBlock: XIVTED_clean_linker_0, # of connection points: 2
#     Edge 46, Type (0, 1), BuildingBlock: XIVTED_clean_linker_0, # of connection points: 2
#     Edge 47, Type (0, 1), BuildingBlock: XIVTED_clean_linker_0, # of connection points: 2
#     Edge 48, Type (0, 1), BuildingBlock: XIVTED_clean_linker_0, # of connection points: 2
#     Edge 49, Type (0, 1), BuildingBlock: XIVTED_clean_linker_0, # of connection points: 2
#     Edge 50, Type (0, 1), BuildingBlock: XIVTED_clean_linker_0, # of connection points: 2
#     Edge 51, Type (0, 1), BuildingBlock: XIVTED_clean_linker_0, # of connection points: 2
#     Edge 52, Type (0, 1), BuildingBlock: XIVTED_clean_linker_0, # of connection points: 2
#     Edge 53, Type (0, 1), BuildingBlock: XIVTED_clean_linker_0, # of connection points: 2
#     Edge 54, Type (0, 1), BuildingBlock: XIVTED_clean_linker_0, # of connection points: 2
#     Edge 55, Type (0, 1), BuildingBlock: XIVTED_clean_linker_0, # of connection points: 2
#     Edge 56, Type (0, 1), BuildingBlock: XIVTED_clean_linker_0, # of connection points: 2
#     Edge 57, Type (0, 1), BuildingBlock: XIVTED_clean_linker_0, # of connection points: 2
#     Edge 58, Type (0, 1), BuildingBlock: XIVTED_clean_linker_0, # of connection points: 2
#     Edge 59, Type (0, 1), BuildingBlock: XIVTED_clean_linker_0, # of connection points: 2
#     Edge 60, Type (0, 1), BuildingBlock: XIVTED_clean_linker_0, # of connection points: 2
#     Edge 61, Type (0, 1), BuildingBlock: XIVTED_clean_linker_0, # of connection points: 2
#     Edge 62, Type (0, 1), BuildingBlock: XIVTED_clean_linker_0, # of connection points: 2
#     Edge 63, Type (0, 1), BuildingBlock: XIVTED_clean_linker_0, # of connection points: 2
#     Edge 64, Type (0, 1), BuildingBlock: XIVTED_clean_linker_0, # of connection points: 2
#     Edge 65, Type (0, 1), BuildingBlock: XIVTED_clean_linker_0, # of connection points: 2
#     Edge 66, Type (0, 1), BuildingBlock: XIVTED_clean_linker_0, # of connection points: 2
#     Edge 67, Type (0, 1), BuildingBlock: XIVTED_clean_linker_0, # of connection points: 2
# Relax obj value: 0.068
# Max RMSD: 0.199
# Mean RMSD: 0.141
data_MOF--net-soc--node1-ESEHIV_clean_sbu_0--node2-KUMBOL_clean_sbu_0--edge1-XIVTED_clean_linker_0
_symmetry_space_group_name_H-M    P1
_symmetry_Int_Tables_number       1
_symmetry_cell_setting            triclinic
loop_
_symmetry_equiv_pos_as_xyz
'x, y, z'
_cell_length_a     52.111926
_cell_length_b     50.17014
_cell_length_c     41.772565
_cell_angle_alpha  83.622586
_cell_angle_beta   81.956916
_cell_angle_gamma 72.670982
loop_
_atom_site_label
_atom_site_type_symbol
_atom_site_fract_x
_atom_site_fract_y
_atom_site_fract_z
_atom_type_partial_charge
Cu0 Cu 0.05104 0.03926 0.36334 0.0
N1 N 0.06686 0.0549 0.39103 0.0
N2 N 0.08809 0.08262 0.40786 0.0
C3 C 0.08216 0.07249 0.38203 0.0
C4 C 0.07613 0.07079 0.43407 0.0
C5 C 0.06305 0.05373 0.42361 0.0
O6 O 0.08074 0.01934 0.33275 0.0
C7 C 1.00492 0.07167 0.32818 0.0
O8 O 1.00699 0.04951 0.31284 0.0
H9 H 0.08773 0.07875 0.35701 0.0
H10 H 0.0509 0.04202 0.43865 0.0
N11 N 0.03616 0.0124 0.38689 0.0
N12 N 1.01175 0.98201 0.39869 0.0
C13 C 1.0134 0.00639 0.38248 0.0
C14 C 0.04913 0.99129 0.40687 0.0
C15 C 0.03414 0.97252 0.4142 0.0
C16 C 0.08113 0.99636 0.32203 0.0
O17 O 0.0586 0.98917 0.32511 0.0
H18 H 0.99935 0.0185 0.36589 0.0
H19 H 0.0689 0.9889 0.41401 0.0
O20 O 0.02223 0.07076 0.3473 0.0
H21 H 0.07643 0.07453 0.45902 0.0
H22 H 0.03976 0.95293 0.42886 0.0
Cu23 Cu 0.04618 0.04994 0.74457 0.0
N24 N 0.03245 0.03001 0.71874 0.0
N25 N 1.01063 1.0013 0.7051 0.0
C26 C 1.01531 0.01448 0.72928 0.0
C27 C 0.02531 0.009 0.67835 0.0
C28 C 0.03868 0.02664 0.6868 0.0
O29 O 1.01515 0.0761 0.76833 0.0
C30 C 0.09333 0.00861 0.74757 0.0
O31 O 0.09166 0.01556 0.71652 0.0
H32 H 1.00713 0.01225 0.75439 0.0
H33 H 0.05247 0.03582 0.67085 0.0
N34 N 0.06515 0.07322 0.72025 0.0
N35 N 0.09431 0.09893 0.71008 0.0
C36 C 0.08455 0.08113 0.73151 0.0
C37 C 0.06233 0.0866 0.69063 0.0
C38 C 0.0804 0.10236 0.68421 0.0
C39 C 0.99792 0.09075 0.74955 0.0
O40 O 1.0022 0.08562 0.7188 0.0
H41 H 0.0914 0.07373 0.75505 0.0
H42 H 0.04788 0.08543 0.67501 0.0
O43 O 0.07388 0.02151 0.76765 0.0
H44 H 0.02641 1.00231 0.65431 0.0
H45 H 0.08265 0.11576 0.66249 0.0
Cu46 Cu 0.30025 0.06281 0.10899 0.0
N47 N 0.27354 0.0536 0.09114 0.0
N48 N 0.25672 0.02651 0.06622 0.0
C49 C 0.2772 0.0279 0.08175 0.0
C50 C 0.23915 0.05246 0.06612 0.0
C51 C 0.24973 0.06927 0.08137 0.0
O52 O 0.31921 0.0275 0.13219 0.0
C53 C 0.30817 0.10359 0.06169 0.0
O54 O 0.28438 0.11623 0.07645 0.0
H55 H 0.29504 0.01068 0.08569 0.0
H56 H 0.24117 0.09147 0.08401 0.0
N57 N 0.28519 0.09022 0.13874 0.0
N58 N 0.28106 0.12536 0.16936 0.0
C59 C 0.29828 0.10543 0.15123 0.0
C60 C 0.25889 0.1007 0.14964 0.0
C61 C 0.25627 0.12243 0.16845 0.0
C62 C 0.30496 0.01962 0.15684 0.0
O63 O 0.2809 0.03644 0.16547 0.0
H64 H 0.31981 0.1027 0.14599 0.0
H65 H 0.24267 0.0934 0.14384 0.0
O66 O 0.32047 0.07878 0.07222 0.0
H67 H 0.22069 0.05912 0.0546 0.0
H68 H 0.23757 0.13521 0.18038 0.0
Cu69 Cu 0.06953 0.30033 0.10102 0.0
N70 N 0.10009 0.278 0.07681 0.0
N71 N 0.13511 0.26784 0.03769 0.0
C72 C 0.11071 0.28572 0.04706 0.0
C73 C 0.1399 0.24807 0.06262 0.0
C74 C 0.11843 0.25446 0.08669 0.0
O75 O 0.08507 0.32144 0.12696 0.0
C76 C 0.03847 0.30309 0.05288 0.0
O77 O 0.05031 0.27621 0.0584 0.0
H78 H 0.10139 0.30499 0.03341 0.0
H79 H 0.11703 0.2435 0.11035 0.0
N80 N 0.04891 0.28016 0.12906 0.0
N81 N 1.01291 0.272 0.16055 0.0
C82 C 0.02315 0.29127 0.1422 0.0
C83 C 0.05512 0.25282 0.13919 0.0
C84 C 0.0331 0.24778 0.15872 0.0
C85 C 0.09144 0.31094 0.15519 0.0
O86 O 0.08437 0.28859 0.16748 0.0
H87 H 1.01217 0.31315 0.13835 0.0
H88 H 0.07416 0.2375 0.13263 0.0
O89 O 0.04442 0.32021 0.06915 0.0
H90 H 0.15796 0.23056 0.06385 0.0
H91 H 0.03188 0.22765 0.17004 0.0
Cu92 Cu 0.79725 0.01893 0.99488 0.0
N93 N 0.81267 0.03873 0.96138 0.0
N94 N 0.81674 0.07687 0.93078 0.0
C95 C 0.80076 0.06572 0.95293 0.0
C96 C 0.83954 0.05577 0.9245 0.0
C97 C 0.83699 0.03215 0.94359 0.0
O98 O 0.77806 0.04651 0.02659 0.0
C99 C 0.79317 0.97663 0.96141 0.0
O100 O 0.81944 0.97161 0.96089 0.0
H101 H 0.78095 0.07713 0.96369 0.0
H102 H 0.8521 0.01203 0.94527 0.0
N103 N 0.82251 0.99279 0.0182 0.0
N104 N 0.83456 0.96156 0.05963 0.0
C105 C 0.81451 0.97571 0.04179 0.0
C106 C 0.84877 0.98942 0.02081 0.0
C107 C 0.85629 0.97006 0.04661 0.0
C108 C 0.79369 0.05918 0.03527 0.0
O109 O 0.81903 0.05269 0.02231 0.0
H110 H 0.79368 0.97533 0.04716 0.0
H111 H 0.86108 1.00127 1.00633 0.0
O112 O 0.77758 0.9979 0.97555 0.0
H113 H 0.85723 0.05757 0.90843 0.0
H114 H 0.87582 0.96357 0.05575 0.0
Cu115 Cu 0.03382 0.76309 0.02147 0.0
N116 N 1.01845 0.74693 0.99304 0.0
N117 N 0.99063 0.7428 0.95851 0.0
C118 C 0.99499 0.75893 0.97995 0.0
C119 C 1.01212 0.71972 0.9583 0.0
C120 C 0.02912 0.72229 0.97956 0.0
O121 O 1.0037 0.78254 0.05399 0.0
C122 C 0.08137 0.76392 0.98085 0.0
O123 O 0.0824 0.73731 0.98447 0.0
H124 H 0.98179 0.77946 0.98537 0.0
H125 H 0.04817 0.70734 0.98439 0.0
N126 N 0.05646 0.73672 0.04818 0.0
N127 N 0.08761 0.72257 0.08303 0.0
C128 C 0.07207 0.74449 0.0662 0.0
C129 C 0.0621 0.70874 0.0538 0.0
C130 C 0.0815 0.69991 0.07524 0.0
C131 C 0.9918 0.76583 0.07128 0.0
O132 O 0.99914 0.73958 0.06412 0.0
H133 H 0.07258 0.76591 0.06599 0.0
H134 H 0.05301 0.69569 0.04296 0.0
O135 O 0.06021 0.78137 0.99446 0.0
H136 H 1.01533 0.70215 0.94385 0.0
H137 H 0.09042 0.67853 0.08427 0.0
Cu138 Cu 0.53436 0.54154 0.86039 0.0
N139 N 0.55158 0.55852 0.88544 0.0
N140 N 0.57321 0.58754 0.89868 0.0
C141 C 0.56364 0.57872 0.87463 0.0
C142 C 0.5664 0.57279 0.92585 0.0
C143 C 0.55301 0.55502 0.91765 0.0
O144 O 0.56161 0.51555 0.83207 0.0
C145 C 0.48987 0.57335 0.82181 0.0
O146 O 0.49276 0.55106 0.80632 0.0
H147 H 0.56486 0.58725 0.84969 0.0
H148 H 0.54452 0.54099 0.93427 0.0
N149 N 0.5169 0.51794 0.88656 0.0
N150 N 0.49048 0.48947 0.89934 0.0
C151 C 0.49488 0.51155 0.88011 0.0
C152 C 0.52689 0.49908 0.91055 0.0
C153 C 0.51048 0.48176 0.91876 0.0
C154 C 0.58567 0.51684 0.82315 0.0
O155 O 0.59157 0.54001 0.82625 0.0
H156 H 0.48309 0.52198 0.86063 0.0
H157 H 0.54591 0.49666 0.91973 0.0
O158 O 0.50632 0.57269 0.84199 0.0
H159 H 0.57092 0.57457 0.9499 0.0
H160 H 0.51413 0.46365 0.93602 0.0
Cu161 Cu 0.55834 0.54724 0.25305 0.0
N162 N 0.54435 0.52606 0.22927 0.0
N163 N 0.52065 0.4985 0.21741 0.0
C164 C 0.52488 0.51346 0.24017 0.0
C165 C 0.53805 0.50197 0.19125 0.0
C166 C 0.5526 0.51886 0.19862 0.0
O167 O 0.52793 0.57314 0.27761 0.0
C168 C 0.60681 0.50759 0.25609 0.0
O169 O 0.60567 0.51473 0.225 0.0
H170 H 0.51458 0.51466 0.26456 0.0
H171 H 0.56847 0.52497 0.18282 0.0
N172 N 0.57532 0.57075 0.22582 0.0
N173 N 0.60201 0.59847 0.21028 0.0
C174 C 0.59306 0.58248 0.23484 0.0
C175 C 0.57267 0.57993 0.19459 0.0
C176 C 0.5893 0.59687 0.18486 0.0
C177 C 0.51012 0.58735 0.25937 0.0
O178 O 0.51361 0.58178 0.22881 0.0
H179 H 0.59955 0.57899 0.25885 0.0
H180 H 0.5594 0.57496 0.17997 0.0
O181 O 0.58696 0.5201 0.27589 0.0
H182 H 0.54019 0.49296 0.16832 0.0
H183 H 0.59154 0.60755 0.1611 0.0
Cu184 Cu 0.81909 0.56814 0.58638 0.0
N185 N 0.80565 0.58625 0.54843 0.0
N186 N 0.80604 0.6066 0.4982 0.0
C187 C 0.82054 0.59549 0.52325 0.0
C188 C 0.78096 0.6042 0.50813 0.0
C189 C 0.7808 0.59156 0.53916 0.0
O190 O 0.82151 0.59576 0.61519 0.0
C191 C 0.86504 0.51915 0.56263 0.0
O192 O 0.89147 0.50856 0.56019 0.0
H193 H 0.84179 0.59352 0.52326 0.0
H194 H 0.76386 0.58643 0.55376 0.0
N195 N 0.79735 0.54728 0.60832 0.0
N196 N 0.78648 0.51159 0.63761 0.0
C197 C 0.8065 0.52082 0.62074 0.0
C198 C 0.77061 0.55533 0.6179 0.0
C199 C 0.76379 0.53322 0.63604 0.0
C200 C 0.80443 0.62 0.61673 0.0
O201 O 0.78469 0.6269 0.59823 0.0
H202 H 0.82766 0.50902 0.61876 0.0
H203 H 0.75722 0.57602 0.61289 0.0
O204 O 0.85507 0.54299 0.57468 0.0
H205 H 0.76383 0.61141 0.49423 0.0
H206 H 0.74384 0.53318 0.64747 0.0
Cu207 Cu 0.56782 0.80681 0.58808 0.0
N208 N 0.59842 0.78616 0.5607 0.0
N209 N 0.63355 0.77823 0.52063 0.0
C210 C 0.6107 0.79692 0.53354 0.0
C211 C 0.63554 0.75477 0.54072 0.0
C212 C 0.61418 0.75972 0.5652 0.0
O213 O 0.584 0.82526 0.61579 0.0
C214 C 0.5383 0.81707 0.53784 0.0
O215 O 0.55038 0.79003 0.53826 0.0
H216 H 0.60335 0.81844 0.52405 0.0
H217 H 0.61085 0.74517 0.58533 0.0
N218 N 0.54489 0.78705 0.61439 0.0
N219 N 0.50817 0.77921 0.64598 0.0
C220 C 0.51969 0.79863 0.62967 0.0
C221 C 0.54927 0.75932 0.62104 0.0
C222 C 0.52701 0.75449 0.64033 0.0
C223 C 0.58965 0.81387 0.64385 0.0
O224 O 0.58115 0.79218 0.65536 0.0
H225 H 0.51007 0.82097 0.6289 0.0
H226 H 0.5673 0.74356 0.61228 0.0
O227 O 0.54348 0.83108 0.55855 0.0
H228 H 0.65141 0.73525 0.5382 0.0
H229 H 0.52481 0.73405 0.64895 0.0
Cu230 Cu 0.28493 0.52281 0.51884 0.0
N231 N 0.30498 0.54201 0.48858 0.0
N232 N 0.31289 0.57817 0.45575 0.0
C233 C 0.29464 0.56869 0.4766 0.0
C234 C 0.3357 0.55643 0.45467 0.0
C235 C 0.33081 0.5343 0.47493 0.0
O236 O 0.26775 0.55003 0.55041 0.0
C237 C 0.27364 0.49469 0.47389 0.0
O238 O 0.30004 0.48936 0.46844 0.0
H239 H 0.27395 0.58082 0.48306 0.0
H240 H 0.34523 0.51418 0.47941 0.0
N241 N 0.3046 0.48971 0.54118 0.0
N242 N 0.31177 0.45244 0.57759 0.0
C243 C 0.29471 0.47753 0.56876 0.0
C244 C 0.32881 0.47166 0.53231 0.0
C245 C 0.33327 0.44877 0.55464 0.0
C246 C 0.28438 0.55291 0.56846 0.0
O247 O 0.30903 0.53573 0.56614 0.0
H248 H 0.27484 0.4864 0.58133 0.0
H249 H 0.34194 0.47431 0.51056 0.0
O250 O 0.26083 0.51096 0.49579 0.0
H251 H 0.3548 0.55658 0.44074 0.0
H252 H 0.35087 0.43063 0.55376 0.0
Cu253 Cu 0.52046 0.2863 0.5193 0.0
N254 N 0.55099 0.26851 0.49142 0.0
N255 N 0.59198 0.26353 0.46338 0.0
C256 C 0.57627 0.27065 0.4915 0.0
C257 C 0.5761 0.25639 0.44499 0.0
C258 C 0.55094 0.25939 0.46232 0.0
O259 O 0.53355 0.31387 0.53749 0.0
C260 C 0.47806 0.28139 0.48763 0.0
O261 O 0.48824 0.25542 0.49903 0.0
H262 H 0.58223 0.27983 0.51044 0.0
H263 H 0.53322 0.25748 0.45314 0.0
N264 N 0.51191 0.26193 0.55407 0.0
N265 N 0.48959 0.24754 0.59946 0.0
C266 C 0.48835 0.26665 0.57372 0.0
C267 C 0.52855 0.23877 0.56749 0.0
C268 C 0.51488 0.22985 0.59541 0.0
C269 C 0.53151 0.31709 0.56776 0.0
O270 O 0.51318 0.30852 0.58747 0.0
H271 H 0.47127 0.28489 0.57027 0.0
H272 H 0.5495 0.22971 0.55835 0.0
O273 O 0.48896 0.29985 0.49355 0.0
H274 H 0.58177 0.25111 0.42004 0.0
H275 H 0.52323 0.2121 0.61184 0.0
Gd276 Gd 0.30039 0.32973 0.28013 0.0
Gd277 Gd 0.26323 0.29887 0.34992 0.0
C278 C 0.22298 0.35267 0.4347 0.0
C279 C 0.2481 0.32702 0.4788 0.0
C280 C 0.25859 0.3097 0.42499 0.0
C281 C 0.23881 0.3324 0.41358 0.0
C282 C 0.26277 0.30616 0.45801 0.0
C283 C 0.22826 0.35029 0.46713 0.0
C284 C 0.20184 0.37427 0.42284 0.0
C285 C 0.19632 0.37465 0.39102 0.0
N286 N 0.2341 0.33384 0.3822 0.0
C287 C 0.21249 0.35396 0.37106 0.0
H288 H 0.20802 0.35475 0.3465 0.0
C289 C 0.28781 0.26451 0.41587 0.0
N290 N 0.27203 0.28978 0.40439 0.0
C291 C 0.29277 0.26003 0.44838 0.0
C292 C 0.28063 0.28119 0.46942 0.0
H293 H 0.29734 0.24819 0.39953 0.0
H294 H 0.21654 0.36584 0.48362 0.0
H295 H 0.35475 0.27357 0.28461 0.0
H296 H 0.18927 0.39031 0.43824 0.0
H297 H 0.17967 0.39095 0.38178 0.0
H298 H 0.25128 0.32489 0.50415 0.0
H299 H 0.26488 0.37945 0.23028 0.0
H300 H 0.37251 0.23609 0.19393 0.0
H301 H 0.38252 0.23627 0.25008 0.0
H302 H 0.31067 0.30097 0.12731 0.0
H303 H 0.30598 0.24031 0.45715 0.0
H304 H 0.28437 0.27763 0.49463 0.0
H305 H 0.34523 0.26014 0.14838 0.0
H306 H 0.25592 0.38627 0.17277 0.0
N307 N 0.32883 0.29401 0.24869 0.0
C308 C 0.36024 0.25253 0.209 0.0
C309 C 0.366 0.25261 0.24064 0.0
C310 C 0.33926 0.27419 0.19683 0.0
C311 C 0.32384 0.29501 0.21749 0.0
C312 C 0.35024 0.27385 0.26013 0.0
N313 N 0.29077 0.33801 0.22597 0.0
C314 C 0.30413 0.3177 0.20576 0.0
C315 C 0.26936 0.3668 0.1818 0.0
C316 C 0.28162 0.34534 0.16116 0.0
C317 C 0.2745 0.36294 0.21423 0.0
C318 C 0.29965 0.32061 0.17288 0.0
H319 H 0.27768 0.34841 0.13602 0.0
O320 O 0.3071 0.37052 0.2671 0.0
O321 O 0.2776 0.33512 0.32874 0.0
O322 O 0.23526 0.32012 0.31084 0.0
O323 O 0.26184 0.32766 0.2626 0.0
O324 O 0.2699 0.36982 0.29637 0.0
O325 O 0.34087 0.33434 0.2768 0.0
O326 O 0.25739 0.25745 0.36026 0.0
O327 O 0.28594 0.29355 0.30121 0.0
O328 O 0.32812 0.31061 0.32007 0.0
O329 O 0.30219 0.29975 0.36765 0.0
O330 O 0.29417 0.2591 0.33355 0.0
O331 O 0.2231 0.29346 0.35263 0.0
C332 C 0.26463 0.36067 0.32593 0.0
C333 C 0.31406 0.2993 0.15255 0.0
C334 C 0.33378 0.27608 0.16454 0.0
C335 C 0.33327 0.3609 0.2673 0.0
C336 C 0.35009 0.37016 0.23942 0.0
C337 C 0.34764 0.36506 0.20782 0.0
C338 C 0.36913 0.38378 0.24436 0.0
C339 C 0.38574 0.39207 0.21782 0.0
C340 C 0.36371 0.37349 0.18149 0.0
C341 C 0.38261 0.38689 0.18636 0.0
C342 C 0.23855 0.32593 0.27889 0.0
C343 C 0.29896 0.26801 0.30378 0.0
C344 C 0.23119 0.26666 0.36069 0.0
C345 C 0.21522 0.25612 0.38848 0.0
C346 C 0.21328 0.26573 0.41921 0.0
C347 C 0.20182 0.23633 0.38444 0.0
C348 C 0.18661 0.22611 0.4111 0.0
C349 C 0.19876 0.25542 0.44572 0.0
C350 C 0.18564 0.2357 0.44182 0.0
C351 C 0.32506 0.30315 0.35169 0.0
H352 H 0.33338 0.35457 0.20339 0.0
H353 H 0.37134 0.38742 0.26879 0.0
H354 H 0.36154 0.36959 0.15718 0.0
H355 H 0.39464 0.39342 0.16539 0.0
H356 H 0.22293 0.28121 0.42277 0.0
H357 H 0.20289 0.22933 0.36053 0.0
H358 H 0.19766 0.26276 0.46943 0.0
H359 H 0.17486 0.22783 0.46304 0.0
Gd360 Gd 0.7821 0.27334 0.29762 0.0
Gd361 Gd 0.8152 0.30612 0.34922 0.0
C362 C 0.88303 0.33704 0.29116 0.0
C363 C 0.92241 0.30846 0.31643 0.0
C364 C 0.87781 0.30311 0.33588 0.0
C365 C 0.86649 0.32363 0.31263 0.0
C366 C 0.90578 0.29601 0.33864 0.0
C367 C 0.91106 0.3289 0.29273 0.0
C368 C 0.87088 0.35845 0.26892 0.0
C369 C 0.84288 0.36635 0.26876 0.0
N370 N 0.83933 0.33078 0.31126 0.0
C371 C 0.82732 0.35236 0.2903 0.0
H372 H 0.8058 0.35879 0.28967 0.0
C373 C 0.8708 0.27534 0.38393 0.0
N374 N 0.86133 0.29121 0.35693 0.0
C375 C 0.89838 0.26751 0.38758 0.0
C376 C 0.91606 0.27739 0.36442 0.0
H377 H 0.85707 0.26795 0.40213 0.0
H378 H 0.92408 0.33871 0.27613 0.0
H379 H 0.8008 0.21517 0.35069 0.0
H380 H 0.88289 0.36922 0.25204 0.0
H381 H 0.83325 0.38312 0.2519 0.0
H382 H 0.94397 0.30296 0.31791 0.0
H383 H 0.72937 0.3199 0.26278 0.0
H384 H 0.73024 0.19271 0.3914 0.0
H385 H 0.77973 0.18405 0.38582 0.0
H386 H 0.65834 0.2629 0.34585 0.0
H387 H 0.90593 0.25399 0.40832 0.0
H388 H 0.93741 0.27143 0.36737 0.0
H389 H 0.68534 0.22205 0.37639 0.0
H390 H 0.68007 0.33278 0.26899 0.0
N391 N 0.76388 0.24302 0.33573 0.0
C392 C 0.73941 0.20688 0.37572 0.0
C393 C 0.76731 0.20197 0.37268 0.0
C394 C 0.72365 0.23004 0.3586 0.0
C395 C 0.73654 0.24806 0.33857 0.0
C396 C 0.77925 0.22012 0.35245 0.0
N397 N 0.73402 0.28828 0.30225 0.0
C398 C 0.72121 0.2715 0.32185 0.0
C399 C 0.69128 0.3159 0.28457 0.0
C400 C 0.67782 0.3 0.30607 0.0
C401 C 0.71945 0.3091 0.28209 0.0
C402 C 0.69276 0.27701 0.32425 0.0
H403 H 0.656 0.30493 0.30742 0.0
O404 O 0.77309 0.27167 0.24872 0.0
O405 O 0.81791 0.28741 0.30228 0.0
O406 O 0.77792 0.33878 0.33217 0.0
O407 O 0.76478 0.32028 0.29024 0.0
O408 O 0.80657 0.29166 0.25637 0.0
O409 O 0.79084 0.2332 0.27638 0.0
O410 O 0.8137 0.31406 0.39989 0.0
O411 O 0.77881 0.29272 0.34454 0.0
O412 O 0.82104 0.24131 0.31196 0.0
O413 O 0.8394 0.26006 0.34938 0.0
O414 O 0.79344 0.28412 0.38946 0.0
O415 O 0.81154 0.34786 0.36235 0.0
C416 C 0.8244 0.29478 0.27304 0.0
C417 C 0.68008 0.259 0.34391 0.0
C418 C 0.69546 0.23566 0.36113 0.0
C419 C 0.78034 0.24438 0.24972 0.0
C420 C 0.76136 0.2313 0.23828 0.0
C421 C 0.73342 0.24173 0.24697 0.0
C422 C 0.7708 0.20895 0.2177 0.0
C423 C 0.75234 0.19718 0.2065 0.0
C424 C 0.71526 0.23008 0.23648 0.0
C425 C 0.72454 0.20806 0.21643 0.0
C426 C 0.76297 0.341 0.30823 0.0
C427 C 0.7745 0.28275 0.3733 0.0
C428 C 0.81167 0.34064 0.3933 0.0
C429 C 0.79294 0.3608 0.41526 0.0
C430 C 0.76508 0.36409 0.4186 0.0
C431 C 0.803 0.37794 0.43188 0.0
C432 C 0.78529 0.39853 0.45158 0.0
C433 C 0.74746 0.38421 0.43817 0.0
C434 C 0.75738 0.40131 0.45445 0.0
C435 C 0.83909 0.23919 0.33252 0.0
H436 H 0.72533 0.2593 0.2613 0.0
H437 H 0.7923 0.20089 0.21038 0.0
H438 H 0.69377 0.23857 0.24346 0.0
H439 H 0.70972 0.20017 0.20786 0.0
H440 H 0.75699 0.35126 0.40588 0.0
H441 H 0.82453 0.37565 0.42885 0.0
H442 H 0.72594 0.38663 0.44067 0.0
H443 H 0.74317 0.41653 0.46963 0.0
Gd444 Gd 0.82095 0.80732 0.32431 0.0
Gd445 Gd 0.79283 0.78072 0.26243 0.0
C446 C 0.84051 0.77309 0.1618 0.0
C447 C 0.81093 0.80951 0.12939 0.0
C448 C 0.79763 0.80107 0.18688 0.0
C449 C 0.82182 0.78038 0.18954 0.0
C450 C 0.79146 0.81508 0.15652 0.0
C451 C 0.83543 0.78851 0.13202 0.0
C452 C 0.86312 0.74976 0.16453 0.0
C453 C 0.86603 0.73368 0.19401 0.0
N454 N 0.82583 0.76553 0.21855 0.0
C455 C 0.84691 0.7417 0.22082 0.0
H456 H 0.84953 0.7292 0.24351 0.0
C457 C 0.75283 0.82087 0.2104 0.0
N458 N 0.77898 0.80527 0.21336 0.0
C459 C 0.74579 0.83539 0.18085 0.0
C460 C 0.76537 0.83302 0.15397 0.0
H461 H 0.73776 0.82296 0.2313 0.0
H462 H 0.84979 0.78356 0.11059 0.0
H463 H 0.76941 0.86625 0.3093 0.0
H464 H 0.87797 0.74349 0.14382 0.0
H465 H 0.8831 0.71521 0.19618 0.0
H466 H 0.80674 0.82039 0.10595 0.0
H467 H 0.85275 0.76329 0.38291 0.0
H468 H 0.71509 0.88257 0.39555 0.0
H469 H 0.72821 0.89486 0.33796 0.0
H470 H 0.75589 0.81033 0.47295 0.0
H471 H 0.72532 0.84848 0.17885 0.0
H472 H 0.75982 0.84417 0.13107 0.0
H473 H 0.72525 0.85066 0.44544 0.0
H474 H 0.84317 0.74868 0.44046 0.0
N475 N 0.78048 0.83696 0.34971 0.0
C476 C 0.7335 0.86974 0.38304 0.0
C477 C 0.74083 0.87671 0.35055 0.0
C478 C 0.75008 0.84639 0.39906 0.0
C479 C 0.77384 0.8303 0.38163 0.0
C480 C 0.76448 0.86016 0.33425 0.0
N481 N 0.81399 0.79288 0.37994 0.0
C482 C 0.79088 0.80735 0.39705 0.0
C483 C 0.82809 0.76495 0.42848 0.0
C484 C 0.80359 0.7783 0.44581 0.0
C485 C 0.83325 0.77303 0.39569 0.0
C486 C 0.78492 0.80025 0.43038 0.0
H487 H 0.79972 0.77219 0.47132 0.0
O488 O 0.85632 0.80847 0.34588 0.0
O489 O 0.82756 0.79465 0.27357 0.0
O490 O 0.81788 0.74403 0.29197 0.0
O491 O 0.83089 0.76085 0.33543 0.0
O492 O 0.86112 0.78331 0.29837 0.0
O493 O 0.83077 0.84643 0.32406 0.0
O494 O 0.75555 0.77023 0.2597 0.0
O495 O 0.78808 0.7898 0.31459 0.0
O496 O 0.81132 0.84083 0.28298 0.0
O497 O 0.78837 0.82621 0.24723 0.0
O498 O 0.75328 0.80141 0.29205 0.0
O499 O 0.79391 0.73824 0.25475 0.0
C500 C 0.85297 0.78323 0.27054 0.0
C501 C 0.76094 0.8157 0.44748 0.0
C502 C 0.74355 0.83872 0.43185 0.0
C503 C 0.85144 0.83551 0.34042 0.0
C504 C 0.85296 0.85132 0.3675 0.0
C505 C 0.83359 0.85399 0.39474 0.0
C506 C 0.87303 0.8652 0.3654 0.0
C507 C 0.87335 0.88202 0.39017 0.0
C508 C 0.83407 0.8702 0.41954 0.0
C509 C 0.85372 0.88426 0.41727 0.0
C510 C 0.82882 0.74039 0.31948 0.0
C511 C 0.76255 0.79972 0.31947 0.0
C512 C 0.76799 0.7445 0.25297 0.0
C513 C 0.75989 0.73474 0.22493 0.0
C514 C 0.77002 0.74202 0.19338 0.0
C515 C 0.74205 0.71801 0.22945 0.0
C516 C 0.73433 0.70881 0.20246 0.0
C517 C 0.76204 0.73363 0.16666 0.0
C518 C 0.74423 0.71731 0.17107 0.0
C519 C 0.79821 0.84491 0.25706 0.0
H520 H 0.81788 0.8439 0.39673 0.0
H521 H 0.88786 0.86357 0.34419 0.0
H522 H 0.819 0.87208 0.44047 0.0
H523 H 0.85367 0.89679 0.4368 0.0
H524 H 0.78418 0.75409 0.18929 0.0
H525 H 0.73469 0.71181 0.25385 0.0
H526 H 0.76976 0.73974 0.14242 0.0
H527 H 0.73815 0.71144 0.14976 0.0
Gd528 Gd 0.31561 0.81477 0.33671 0.0
Gd529 Gd 0.29502 0.78366 0.27206 0.0
C530 C 0.25934 0.71225 0.31245 0.0
C531 C 0.29156 0.67236 0.28732 0.0
C532 C 0.29781 0.71883 0.27592 0.0
C533 C 0.27448 0.72989 0.2963 0.0
C534 C 0.30604 0.69008 0.27041 0.0
C535 C 0.26832 0.68341 0.30837 0.0
C536 C 0.23544 0.72411 0.332 0.0
C537 C 0.22689 0.75295 0.3347 0.0
N538 N 0.26635 0.75788 0.3 0.0
C539 C 0.24253 0.76962 0.31836 0.0
H540 H 0.23563 0.79171 0.32145 0.0
C541 C 0.33148 0.72721 0.23536 0.0
N542 N 0.31165 0.73633 0.26015 0.0
C543 C 0.34045 0.69893 0.22911 0.0
C544 C 0.32804 0.68015 0.2472 0.0
H545 H 0.34081 0.74181 0.22094 0.0
H546 H 0.25709 0.66955 0.32087 0.0
H547 H 0.37418 0.8108 0.28757 0.0
H548 H 0.22332 0.71125 0.34484 0.0
H549 H 0.20832 0.76236 0.34961 0.0
H550 H 0.29781 0.65019 0.28372 0.0
H551 H 0.26747 0.85241 0.38923 0.0
H552 H 0.38528 0.89234 0.27392 0.0
H553 H 0.40094 0.84221 0.26345 0.0
H554 H 0.31036 0.94764 0.34038 0.0
H555 H 0.3568 0.69171 0.21022 0.0
H556 H 0.33493 0.65825 0.24223 0.0
H557 H 0.35122 0.93154 0.3022 0.0
H558 H 0.25116 0.90102 0.40585 0.0
N559 N 0.34318 0.84261 0.31186 0.0
C560 C 0.37342 0.87857 0.28487 0.0
C561 C 0.38234 0.85028 0.27895 0.0
C562 C 0.34951 0.88869 0.30523 0.0
C563 C 0.33468 0.86994 0.31877 0.0
C564 C 0.36705 0.83245 0.2929 0.0
N565 N 0.29758 0.8607 0.35286 0.0
C566 C 0.31125 0.87923 0.33978 0.0
C567 C 0.26787 0.89527 0.38699 0.0
C568 C 0.28036 0.91517 0.37196 0.0
C569 C 0.27712 0.86785 0.37754 0.0
C570 C 0.30261 0.90718 0.34847 0.0
H571 H 0.27319 0.93641 0.37934 0.0
O572 O 0.31282 0.80614 0.38875 0.0
O573 O 0.30579 0.77782 0.32271 0.0
O574 O 0.25939 0.82014 0.28986 0.0
O575 O 0.27403 0.84265 0.32696 0.0
O576 O 0.28835 0.79185 0.3675 0.0
O577 O 0.35105 0.80851 0.36201 0.0
O578 O 0.29808 0.79089 0.21989 0.0
O579 O 0.30597 0.81995 0.28579 0.0
O580 O 0.35193 0.77941 0.31749 0.0
O581 O 0.33808 0.75881 0.27772 0.0
O582 O 0.32166 0.80689 0.24026 0.0
O583 O 0.26001 0.78828 0.2464 0.0
C584 C 0.29191 0.7722 0.34841 0.0
C585 C 0.31689 0.92603 0.33427 0.0
C586 C 0.34022 0.91683 0.31263 0.0
C587 C 0.33721 0.80749 0.39053 0.0
C588 C 0.34007 0.82558 0.41486 0.0
C589 C 0.31755 0.83913 0.43587 0.0
C590 C 0.36564 0.82837 0.4183 0.0
C591 C 0.36887 0.84413 0.44274 0.0
C592 C 0.32039 0.85542 0.45932 0.0
C593 C 0.34577 0.85779 0.46294 0.0
C594 C 0.25545 0.84049 0.30949 0.0
C595 C 0.31975 0.82564 0.25998 0.0
C596 C 0.27409 0.78856 0.21799 0.0
C597 C 0.2725 0.76881 0.19482 0.0
C598 C 0.29557 0.75601 0.17404 0.0
C599 C 0.24797 0.76287 0.1928 0.0
C600 C 0.24673 0.74397 0.17077 0.0
C601 C 0.29452 0.73707 0.15266 0.0
C602 C 0.27037 0.73104 0.151 0.0
C603 C 0.35646 0.76071 0.29558 0.0
H604 H 0.29769 0.83697 0.43457 0.0
H605 H 0.38301 0.81793 0.40217 0.0
H606 H 0.30288 0.8657 0.47535 0.0
H607 H 0.34731 0.86953 0.48246 0.0
H608 H 0.31459 0.76057 0.17419 0.0
H609 H 0.22996 0.77288 0.20831 0.0
H610 H 0.31247 0.72729 0.13696 0.0
H611 H 0.27005 0.71684 0.13342 0.0
Gd612 Gd 0.27196 0.77967 0.77835 0.0
Gd613 Gd 0.30156 0.80526 0.83698 0.0
C614 C 0.36288 0.85085 0.78667 0.0
C615 C 0.40572 0.81644 0.79513 0.0
C616 C 0.36325 0.80693 0.81737 0.0
C617 C 0.34884 0.83262 0.80417 0.0
C618 C 0.39187 0.79905 0.81397 0.0
C619 C 0.39125 0.84228 0.78145 0.0
C620 C 0.34809 0.87745 0.77546 0.0
C621 C 0.32022 0.88599 0.7834 0.0
N622 N 0.32132 0.84036 0.80972 0.0
C623 C 0.30724 0.8675 0.80124 0.0
H624 H 0.28609 0.87612 0.80866 0.0
C625 C 0.3629 0.76821 0.85452 0.0
N626 N 0.3494 0.79035 0.83517 0.0
C627 C 0.39114 0.75927 0.85164 0.0
C628 C 0.40575 0.77436 0.83053 0.0
H629 H 0.35195 0.75724 0.87237 0.0
H630 H 0.40221 0.85584 0.76763 0.0
H631 H 0.28742 0.7109 0.81258 0.0
H632 H 0.35809 0.89195 0.76188 0.0
H633 H 0.30867 0.9071 0.77633 0.0
H634 H 0.42764 0.81044 0.79176 0.0
H635 H 0.22023 0.8333 0.75097 0.0
H636 H 0.21456 0.69419 0.85419 0.0
H637 H 0.2642 0.67955 0.84255 0.0
H638 H 0.14565 0.77749 0.82851 0.0
H639 H 0.40158 0.74103 0.86611 0.0
H640 H 0.42766 0.76757 0.82847 0.0
H641 H 0.17078 0.73062 0.84896 0.0
H642 H 0.17119 0.85075 0.76134 0.0
N643 N 0.25197 0.746 0.80829 0.0
C644 C 0.22474 0.70876 0.84114 0.0
C645 C 0.25273 0.70051 0.83482 0.0
C646 C 0.21016 0.73551 0.8301 0.0
C647 C 0.2244 0.75389 0.81332 0.0
C648 C 0.266 0.71915 0.818 0.0
N649 N 0.22399 0.79766 0.78522 0.0
C650 C 0.21012 0.78045 0.80187 0.0
C651 C 0.18183 0.83126 0.77362 0.0
C652 C 0.16748 0.81515 0.79333 0.0
C653 C 0.21002 0.82164 0.76881 0.0
C654 C 0.18147 0.78901 0.80679 0.0
H655 H 0.14557 0.82246 0.7967 0.0
O656 O 0.26307 0.79505 0.72939 0.0
O657 O 0.30323 0.80123 0.78407 0.0
O658 O 0.26648 0.84155 0.82264 0.0
O659 O 0.25957 0.82738 0.77422 0.0
O660 O 0.31403 0.77055 0.75121 0.0
O661 O 0.2674 0.75141 0.74531 0.0
O662 O 0.30413 0.78745 0.8865 0.0
O663 O 0.27066 0.7826 0.83184 0.0
O664 O 0.30775 0.74329 0.78952 0.0
O665 O 0.32056 0.75786 0.83442 0.0
O666 O 0.25813 0.8176 0.85896 0.0
O667 O 0.30434 0.83063 0.87451 0.0
C668 C 0.3223 0.78866 0.76335 0.0
C669 C 0.16754 0.77107 0.82425 0.0
C670 C 0.18184 0.74436 0.83576 0.0
C671 C 0.26445 0.77035 0.72101 0.0
C672 C 0.28057 0.76154 0.69021 0.0
C673 C 0.30073 0.77379 0.67559 0.0
C674 C 0.27624 0.73955 0.67588 0.0
C675 C 0.29237 0.7291 0.64772 0.0
C676 C 0.31656 0.76376 0.64718 0.0
C677 C 0.31261 0.74133 0.63342 0.0
C678 C 0.25444 0.84615 0.79593 0.0
C679 C 0.25078 0.79757 0.8498 0.0
C680 C 0.30202 0.8114 0.89761 0.0
C681 C 0.28074 0.8205 0.92475 0.0
C682 C 0.26115 0.80623 0.93494 0.0
C683 C 0.27934 0.84457 0.93984 0.0
C684 C 0.25857 0.85464 0.96469 0.0
C685 C 0.2404 0.81619 0.95946 0.0
C686 C 0.23902 0.8403 0.97425 0.0
C687 C 0.32287 0.73891 0.81357 0.0
H688 H 0.3045 0.79081 0.68623 0.0
H689 H 0.26098 0.72979 0.68745 0.0
H690 H 0.33218 0.7731 0.63608 0.0
H691 H 0.32541 0.73343 0.61176 0.0
H692 H 0.26163 0.78759 0.92379 0.0
H693 H 0.29421 0.85578 0.93172 0.0
H694 H 0.22533 0.80519 0.96701 0.0
H695 H 0.22292 0.84744 0.99347 0.0
Gd696 Gd 0.31406 0.29898 0.8387 0.0
Gd697 Gd 0.29967 0.2479 0.79171 0.0
C698 C 0.36357 0.20763 0.71156 0.0
C699 C 0.34095 0.22609 0.66333 0.0
C700 C 0.31798 0.23908 0.71657 0.0
C701 C 0.34057 0.22285 0.73087 0.0
C702 C 0.3177 0.24028 0.68272 0.0
C703 C 0.36385 0.20984 0.67771 0.0
C704 C 0.3854 0.19016 0.72688 0.0
C705 C 0.38369 0.18761 0.76066 0.0
N706 N 0.33971 0.22107 0.7637 0.0
C707 C 0.3605 0.20312 0.77882 0.0
H708 H 0.35969 0.20105 0.80486 0.0
C709 C 0.27189 0.26554 0.72336 0.0
N710 N 0.29581 0.25261 0.73589 0.0
C711 C 0.27067 0.2674 0.68994 0.0
C712 C 0.29378 0.25506 0.66947 0.0
H713 H 0.25402 0.27514 0.73924 0.0
H714 H 0.38146 0.19854 0.6625 0.0
H715 H 0.25136 0.34194 0.83219 0.0
H716 H 0.40344 0.17818 0.71289 0.0
H717 H 0.40032 0.17385 0.77274 0.0
H718 H 0.34122 0.22702 0.63725 0.0
H719 H 0.36429 0.27618 0.88551 0.0
H720 H 0.2117 0.35889 0.92761 0.0
H721 H 0.21103 0.36499 0.86813 0.0
H722 H 0.28163 0.31495 0.9957 0.0
H723 H 0.25191 0.27831 0.68 0.0
H724 H 0.29277 0.25645 0.64358 0.0
H725 H 0.23811 0.33977 0.97513 0.0
H726 H 0.37067 0.27308 0.9436 0.0
N727 N 0.27453 0.32206 0.87088 0.0
C728 C 0.2295 0.34863 0.91194 0.0
C729 C 0.22906 0.35218 0.87838 0.0
C730 C 0.25321 0.33271 0.92482 0.0
C731 C 0.27578 0.31971 0.90336 0.0
C732 C 0.25202 0.33904 0.85806 0.0
N733 N 0.32175 0.29463 0.8934 0.0
C734 C 0.30018 0.30565 0.91496 0.0
C735 C 0.35071 0.28212 0.93591 0.0
C736 C 0.32841 0.29196 0.95868 0.0
C737 C 0.34707 0.28395 0.90311 0.0
C738 C 0.30282 0.30429 0.94829 0.0
H739 H 0.33128 0.29056 0.98407 0.0
O740 O 0.34624 0.31825 0.84012 0.0
O741 O 0.32753 0.27264 0.79697 0.0
O742 O 0.31934 0.22496 0.8368 0.0
O743 O 0.3203 0.25883 0.87073 0.0
O744 O 0.35772 0.27623 0.82123 0.0
O745 O 0.30775 0.34314 0.82454 0.0
O746 O 0.26486 0.23357 0.78732 0.0
O747 O 0.28673 0.27326 0.83433 0.0
O748 O 0.29137 0.32119 0.79558 0.0
O749 O 0.29816 0.28727 0.75895 0.0
O750 O 0.25639 0.27206 0.80879 0.0
O751 O 0.30163 0.20417 0.80299 0.0
C752 C 0.35285 0.26554 0.79689 0.0
C753 C 0.28009 0.31604 0.96996 0.0
C754 C 0.25531 0.33018 0.95824 0.0
C755 C 0.33069 0.34341 0.83352 0.0
C756 C 0.3293 0.36467 0.8561 0.0
C757 C 0.30548 0.3753 0.87675 0.0
C758 C 0.35197 0.37408 0.85772 0.0
C759 C 0.35093 0.39353 0.88018 0.0
C760 C 0.30444 0.39436 0.89907 0.0
C761 C 0.32698 0.40338 0.90089 0.0
C762 C 0.32323 0.23254 0.86491 0.0
C763 C 0.26139 0.28061 0.83462 0.0
C764 C 0.27811 0.20731 0.79304 0.0
C765 C 0.27717 0.18797 0.76921 0.0
C766 C 0.30072 0.17452 0.7497 0.0
C767 C 0.25244 0.18336 0.76525 0.0
C768 C 0.25121 0.1657 0.74179 0.0
C769 C 0.29961 0.15716 0.72642 0.0
C770 C 0.27511 0.15277 0.72242 0.0
C771 C 0.2924 0.31373 0.76578 0.0
H772 H 0.28755 0.36904 0.87569 0.0
H773 H 0.3704 0.36605 0.84185 0.0
H774 H 0.286 0.40231 0.9149 0.0
H775 H 0.32547 0.41856 0.91811 0.0
H776 H 0.32007 0.17729 0.7524 0.0
H777 H 0.23418 0.19378 0.78013 0.0
H778 H 0.31789 0.14693 0.71151 0.0
H779 H 0.27499 0.13875 0.70454 0.0
Gd780 Gd 0.80824 0.3188 0.8314 0.0
Gd781 Gd 0.77729 0.28621 0.77539 0.0
C782 C 0.75357 0.20799 0.81901 0.0
C783 C 0.78436 0.17183 0.78658 0.0
C784 C 0.78508 0.22026 0.77581 0.0
C785 C 0.76482 0.22808 0.80091 0.0
C786 C 0.79441 0.19221 0.76757 0.0
C787 C 0.76398 0.17971 0.81231 0.0
C788 C 0.73183 0.21702 0.84281 0.0
C789 C 0.72143 0.24553 0.84746 0.0
N790 N 0.7554 0.25555 0.80682 0.0
C791 C 0.73338 0.26464 0.82901 0.0
H792 H 0.72526 0.28652 0.83323 0.0
C793 C 0.81013 0.23473 0.72912 0.0
N794 N 0.79414 0.24051 0.75786 0.0
C795 C 0.82016 0.2072 0.72001 0.0
C796 C 0.81271 0.18573 0.7397 0.0
H797 H 0.81585 0.25138 0.71386 0.0
H798 H 0.7559 0.1639 0.82628 0.0
H799 H 0.86171 0.31793 0.77542 0.0
H800 H 0.72264 0.20226 0.85726 0.0
H801 H 0.70434 0.2528 0.86546 0.0
H802 H 0.79158 0.15009 0.78097 0.0
H803 H 0.76307 0.35435 0.88869 0.0
H804 H 0.86676 0.40178 0.75602 0.0
H805 H 0.88421 0.35158 0.7459 0.0
H806 H 0.79618 0.45366 0.83061 0.0
H807 H 0.83357 0.20259 0.69783 0.0
H808 H 0.82036 0.16444 0.73251 0.0
H809 H 0.83366 0.43972 0.78739 0.0
H810 H 0.74592 0.40297 0.90543 0.0
N811 N 0.83144 0.34875 0.80183 0.0
C812 C 0.85681 0.38707 0.76918 0.0
C813 C 0.86675 0.35875 0.76344 0.0
C814 C 0.83452 0.39601 0.79235 0.0
C815 C 0.82218 0.37606 0.80875 0.0
C816 C 0.85392 0.3397 0.7803 0.0
N817 N 0.78958 0.36432 0.84877 0.0
C818 C 0.80075 0.38404 0.83291 0.0
C819 C 0.76117 0.39798 0.88485 0.0
C820 C 0.77125 0.41887 0.86757 0.0
C821 C 0.7709 0.37057 0.87541 0.0
C822 C 0.79152 0.412 0.84154 0.0
H823 H 0.76368 0.4401 0.87495 0.0
O824 O 0.81449 0.30691 0.88178 0.0
O825 O 0.79317 0.28393 0.82254 0.0
O826 O 0.74487 0.32049 0.80251 0.0
O827 O 0.76683 0.34772 0.82406 0.0
O828 O 0.78431 0.29642 0.86896 0.0
O829 O 0.84758 0.31426 0.84805 0.0
O830 O 0.76866 0.29452 0.72513 0.0
O831 O 0.79407 0.32025 0.78319 0.0
O832 O 0.84134 0.28401 0.80597 0.0
O833 O 0.82119 0.26076 0.7751 0.0
O834 O 0.80173 0.30685 0.73704 0.0
O835 O 0.73565 0.29962 0.76347 0.0
C836 C 0.78304 0.27792 0.8505 0.0
C837 C 0.8032 0.43204 0.82453 0.0
C838 C 0.82458 0.42409 0.79994 0.0
C839 C 0.83882 0.30982 0.87846 0.0
C840 C 0.84457 0.32634 0.90285 0.0
C841 C 0.82296 0.34367 0.9219 0.0
C842 C 0.87137 0.32374 0.90891 0.0
C843 C 0.87622 0.33877 0.93328 0.0
C844 C 0.82759 0.35894 0.94518 0.0
C845 C 0.85385 0.35656 0.95088 0.0
C846 C 0.74496 0.34367 0.8151 0.0
C847 C 0.80502 0.32463 0.75503 0.0
C848 C 0.74254 0.29965 0.73225 0.0
C849 C 0.72882 0.28536 0.71373 0.0
C850 C 0.73864 0.25629 0.71166 0.0
C851 C 0.70619 0.30058 0.69746 0.0
C852 C 0.69432 0.28671 0.67855 0.0
C853 C 0.72692 0.24259 0.69319 0.0
C854 C 0.70509 0.25765 0.67658 0.0
C855 C 0.84237 0.26386 0.78713 0.0
H856 H 0.80229 0.34495 0.91959 0.0
H857 H 0.88823 0.30989 0.89506 0.0
H858 H 0.81063 0.37216 0.95956 0.0
H859 H 0.85651 0.3679 0.97017 0.0
H860 H 0.75548 0.24405 0.72413 0.0
H861 H 0.6982 0.32302 0.69903 0.0
H862 H 0.73485 0.22016 0.69172 0.0
H863 H 0.69629 0.24647 0.66247 0.0
Gd864 Gd 0.80601 0.81324 0.76334 0.0
Gd865 Gd 0.76795 0.78351 0.83243 0.0
C866 C 0.73888 0.8315 0.92355 0.0
C867 C 0.76658 0.80098 0.96286 0.0
C868 C 0.77083 0.78776 0.90769 0.0
C869 C 0.75145 0.81235 0.89983 0.0
C870 C 0.77811 0.78142 0.9395 0.0
C871 C 0.74702 0.826 0.95488 0.0
C872 C 0.71806 0.85523 0.91528 0.0
C873 C 0.70966 0.85887 0.88438 0.0
N874 N 0.74393 0.81687 0.8694 0.0
C875 C 0.72266 0.83921 0.86173 0.0
H876 H 0.71608 0.8424 0.83789 0.0
C877 C 0.79764 0.74303 0.89236 0.0
N878 N 0.78133 0.76922 0.88464 0.0
C879 C 0.80564 0.73585 0.92353 0.0
C880 C 0.79613 0.75526 0.9471 0.0
H881 H 0.80516 0.72808 0.87408 0.0
H882 H 0.73781 0.8406 0.97333 0.0
H883 H 0.85782 0.75429 0.75769 0.0
H884 H 0.70796 0.87049 0.93277 0.0
H885 H 0.69326 0.8769 0.87792 0.0
H886 H 0.77213 0.79665 0.98735 0.0
H887 H 0.76972 0.86931 0.72202 0.0
H888 H 0.86706 0.72751 0.662 0.0
H889 H 0.88108 0.72033 0.71724 0.0
H890 H 0.80421 0.80259 0.60724 0.0
H891 H 0.81914 0.71537 0.92934 0.0
H892 H 0.80226 0.7496 0.97126 0.0
H893 H 0.83794 0.75817 0.62119 0.0
H894 H 0.75701 0.88319 0.66634 0.0
N895 N 0.83031 0.78025 0.72605 0.0
C896 C 0.85674 0.74253 0.67968 0.0
C897 C 0.86476 0.73846 0.7108 0.0
C898 C 0.83608 0.76643 0.67144 0.0
C899 C 0.82322 0.78524 0.69543 0.0
C900 C 0.85151 0.75783 0.73369 0.0
N901 N 0.79342 0.82825 0.71097 0.0
C902 C 0.80414 0.81006 0.68762 0.0
C903 C 0.77017 0.8625 0.67204 0.0
C904 C 0.77993 0.84346 0.64809 0.0
C905 C 0.77743 0.85464 0.70346 0.0
C906 C 0.7975 0.81701 0.65558 0.0
H907 H 0.77435 0.84963 0.62374 0.0
O908 O 0.8164 0.85256 0.7549 0.0
O909 O 0.78485 0.8185 0.81303 0.0
O910 O 0.73986 0.81052 0.79627 0.0
O911 O 0.76632 0.81361 0.74676 0.0
O912 O 0.77865 0.85405 0.78243 0.0
O913 O 0.84799 0.81349 0.75967 0.0
O914 O 0.75755 0.74425 0.84192 0.0
O915 O 0.78892 0.77826 0.78256 0.0
O916 O 0.83429 0.78585 0.79947 0.0
O917 O 0.80731 0.78366 0.84868 0.0
O918 O 0.79509 0.74268 0.81325 0.0
O919 O 0.72591 0.78334 0.83744 0.0
C920 C 0.77354 0.84454 0.81184 0.0
C921 C 0.80927 0.79778 0.63193 0.0
C922 C 0.8285 0.7725 0.63986 0.0
C923 C 0.84238 0.84055 0.75338 0.0
C924 C 0.8592 0.85045 0.72594 0.0
C925 C 0.8587 0.84353 0.69449 0.0
C926 C 0.8759 0.86683 0.731 0.0
C927 C 0.89213 0.87608 0.70467 0.0
C928 C 0.87431 0.85291 0.66837 0.0
C929 C 0.89084 0.86907 0.67332 0.0
C930 C 0.74265 0.81517 0.76417 0.0
C931 C 0.80023 0.75222 0.78386 0.0
C932 C 0.73154 0.75634 0.84429 0.0
C933 C 0.71539 0.74687 0.87272 0.0
C934 C 0.71675 0.75433 0.90364 0.0
C935 C 0.69861 0.73017 0.86918 0.0
C936 C 0.68334 0.72091 0.89652 0.0
C937 C 0.70209 0.74502 0.93074 0.0
C938 C 0.68563 0.72835 0.92733 0.0
C939 C 0.83112 0.78158 0.83162 0.0
H940 H 0.84627 0.83088 0.69009 0.0
H941 H 0.87657 0.8719 0.75536 0.0
H942 H 0.87361 0.84762 0.64414 0.0
H943 H 0.90246 0.87629 0.65242 0.0
H944 H 0.72915 0.76732 0.90689 0.0
H945 H 0.69722 0.72479 0.84519 0.0
H946 H 0.70354 0.75068 0.95455 0.0
H947 H 0.67492 0.72106 0.949 0.0
H948 H 0.07941 0.12159 0.45125 0.0
H949 H 0.20182 0.18135 0.37246 0.0
H950 H 0.12878 0.09155 0.36354 0.0
H951 H 0.13691 0.22415 0.4413 0.0
H952 H 0.17759 0.14663 0.37006 0.0
H953 H 0.10308 0.15699 0.45029 0.0
C954 C 0.09538 0.12231 0.43189 0.0
C955 C 0.10217 0.10349 0.4075 0.0
C956 C 0.16868 0.16371 0.38559 0.0
C957 C 0.12937 0.14423 0.4061 0.0
C958 C 0.18243 0.18365 0.38685 0.0
C959 C 0.17163 0.20564 0.40743 0.0
C960 C 0.14406 0.16565 0.4052 0.0
C961 C 0.14647 0.20726 0.42571 0.0
C962 C 0.10876 0.14271 0.43118 0.0
C963 C 0.12278 0.10578 0.38268 0.0
N964 N 0.13373 0.18749 0.42433 0.0
N965 N 0.13578 0.12567 0.3827 0.0
H966 H 0.96328 0.08257 0.28993 0.0
H967 H 0.87574 0.22067 0.3774 0.0
H968 H 0.99099 0.11772 0.36359 0.0
H969 H 0.85529 0.19765 0.28987 0.0
H970 H 0.91623 0.18074 0.37507 0.0
H971 H 0.92224 0.12252 0.29127 0.0
C972 C 0.96088 0.09872 0.30622 0.0
C973 C 0.98076 0.09667 0.32664 0.0
C974 C 0.90293 0.18441 0.35632 0.0
C975 C 0.93356 0.1423 0.32863 0.0
C976 C 0.87978 0.2074 0.35755 0.0
C977 C 0.8622 0.21309 0.33348 0.0
C978 C 0.90858 0.16655 0.33099 0.0
C979 C 0.86819 0.19427 0.309 0.0
C980 C 0.93739 0.1215 0.30702 0.0
C981 C 0.97637 0.11829 0.34732 0.0
N982 N 0.89086 0.17195 0.30834 0.0
N983 N 0.95328 0.14 0.34788 0.0
H984 H 1.02017 0.92585 0.40021 0.0
H985 H 0.86448 0.93716 0.39945 0.0
H986 H 0.9586 1.00492 0.39137 0.0
H987 H 0.92846 0.86229 0.37647 0.0
H988 H 0.89836 0.96192 0.40005 0.0
H989 H 0.98661 0.90159 0.39564 0.0
C990 C 0.99953 0.9381 0.39755 0.0
C991 C 0.9921 0.96746 0.39639 0.0
C992 C 0.90501 0.94014 0.39465 0.0
C993 C 0.95363 0.93983 0.39095 0.0
C994 C 0.88571 0.92598 0.39441 0.0
C995 C 0.89373 0.89762 0.38802 0.0
C996 C 0.93261 0.92574 0.38895 0.0
C997 C 0.92146 0.88418 0.38136 0.0
C998 C 0.98045 0.92425 0.39462 0.0
C999 C 0.96517 0.98228 0.39227 0.0
N1000 N 0.93994 0.89829 0.38233 0.0
N1001 N 0.94686 0.96831 0.38994 0.0
H1002 H 0.08957 0.94459 0.29983 0.0
H1003 H 0.24677 0.8943 0.32506 0.0
H1004 H 0.13269 0.99893 0.32565 0.0
H1005 H 0.20625 0.84081 0.29187 0.0
H1006 H 0.20533 0.93285 0.32429 0.0
H1007 H 0.13211 0.90703 0.29435 0.0
C1008 C 0.10802 0.94882 0.30388 0.0
C1009 C 0.1074 0.97507 0.31335 0.0
C1010 C 0.20538 0.91271 0.31723 0.0
C1011 C 0.15632 0.93178 0.30759 0.0
C1012 C 0.22905 0.89047 0.31807 0.0
C1013 C 0.22996 0.86394 0.30924 0.0
C1014 C 0.18219 0.90861 0.30749 0.0
C1015 C 0.20648 0.86078 0.29914 0.0
C1016 C 0.13233 0.92725 0.30089 0.0
C1017 C 0.13206 0.97913 0.3183 0.0
N1018 N 0.18354 0.88276 0.29874 0.0
N1019 N 0.15538 0.95769 0.31566 0.0
H1020 H 0.13715 0.98301 0.70748 0.0
H1021 H 0.21937 0.87828 0.84163 0.0
H1022 H 0.10618 0.98345 0.8089 0.0
H1023 H 0.2405 0.87487 0.73835 0.0
H1024 H 0.18044 0.91923 0.83204 0.0
H1025 H 0.177 0.9462 0.72032 0.0
C1026 C 0.13863 0.9754 0.73265 0.0
C1027 C 0.1179 0.98645 0.75711 0.0
C1028 C 0.19372 0.90964 0.81153 0.0
C1029 C 0.16442 0.94348 0.77212 0.0
C1030 C 0.21609 0.88643 0.81695 0.0
C1031 C 0.23317 0.87306 0.7907 0.0
C1032 C 0.1886 0.91974 0.77961 0.0
C1033 C 0.2278 0.88434 0.7593 0.0
C1034 C 0.16163 0.95419 0.73995 0.0
C1035 C 0.12151 0.97557 0.78922 0.0
N1036 N 0.20604 0.90686 0.75469 0.0
N1037 N 0.14431 0.95458 0.79581 0.0
H1038 H 0.12713 0.1186 0.66291 0.0
H1039 H 0.2122 0.15538 0.78898 0.0
H1040 H 0.10929 0.10824 0.7668 0.0
H1041 H 0.2315 0.16282 0.68512 0.0
H1042 H 0.17215 0.14182 0.78139 0.0
H1043 H 0.16329 0.13824 0.67059 0.0
C1044 C 0.13063 0.12062 0.68733 0.0
C1045 C 0.11516 0.11149 0.71421 0.0
C1046 C 0.18507 0.14656 0.76025 0.0
C1047 C 0.15682 0.13385 0.72323 0.0
C1048 C 0.20785 0.15451 0.76458 0.0
C1049 C 0.22541 0.16002 0.73767 0.0
C1050 C 0.17974 0.14416 0.72878 0.0
C1051 C 0.21883 0.15828 0.70661 0.0
C1052 C 0.15141 0.13174 0.69172 0.0
C1053 C 0.12093 0.11446 0.74532 0.0
N1054 N 0.19665 0.15039 0.70304 0.0
N1055 N 0.14129 0.12528 0.74895 0.0
H1056 H 0.9525 0.11197 0.72007 0.0
H1057 H 0.8809 0.24097 0.82933 0.0
H1058 H 0.98916 0.12416 0.80161 0.0
H1059 H 0.86228 0.23407 0.73387 0.0
H1060 H 0.91898 0.19793 0.82331 0.0
H1061 H 0.91639 0.15458 0.7299 0.0
C1062 C 0.95288 0.12354 0.74033 0.0
C1063 C 0.97414 0.11445 0.75986 0.0
C1064 C 0.90659 0.20598 0.80367 0.0
C1065 C 0.93244 0.16418 0.77115 0.0
C1066 C 0.88502 0.23067 0.80694 0.0
C1067 C 0.86805 0.24093 0.7822 0.0
C1068 C 0.91107 0.19148 0.77552 0.0
C1069 C 0.8742 0.22657 0.75392 0.0
C1070 C 0.9322 0.14811 0.74583 0.0
C1071 C 0.97316 0.13033 0.78598 0.0
N1072 N 0.89495 0.20262 0.75149 0.0
N1073 N 0.95271 0.15458 0.79078 0.0
H1074 H 1.01825 0.95816 0.66767 0.0
H1075 H 0.88299 0.91938 0.74443 0.0
H1076 H 0.96606 1.00016 0.7476 0.0
H1077 H 0.94348 0.87126 0.67509 0.0
H1078 H 0.91253 0.94904 0.74708 0.0
H1079 H 0.99026 0.92664 0.67027 0.0
C1080 C 1.00081 0.96086 0.68572 0.0
C1081 C 0.99445 0.98205 0.70728 0.0
C1082 C 0.91934 0.93189 0.73143 0.0
C1083 C 0.96212 0.94564 0.71061 0.0
C1084 C 0.90255 0.91483 0.73003 0.0
C1085 C 0.91053 0.89294 0.70916 0.0
C1086 C 0.94428 0.92704 0.71179 0.0
C1087 C 0.93609 0.88824 0.69095 0.0
C1088 C 0.98488 0.94267 0.68737 0.0
C1089 C 0.97181 0.98407 0.7306 0.0
N1090 N 0.95185 0.90518 0.69254 0.0
N1091 N 0.95635 0.96624 0.73151 0.0
H1092 H 0.32571 0.11984 0.19904 0.0
H1093 H 0.27369 0.27807 0.24847 0.0
H1094 H 0.25085 0.17903 0.17504 0.0
H1095 H 0.33028 0.2137 0.30137 0.0
H1096 H 0.27309 0.24408 0.21173 0.0
H1097 H 0.33467 0.15582 0.22785 0.0
C1098 C 0.31133 0.14048 0.19961 0.0
C1099 C 0.28737 0.14645 0.18499 0.0
C1100 C 0.28593 0.2374 0.23111 0.0
C1101 C 0.29758 0.18757 0.21734 0.0
C1102 C 0.28649 0.25695 0.25201 0.0
C1103 C 0.30222 0.24884 0.27799 0.0
C1104 C 0.301 0.20934 0.23631 0.0
C1105 C 0.31796 0.22082 0.28155 0.0
C1106 C 0.31639 0.1609 0.21608 0.0
C1107 C 0.26932 0.17345 0.18646 0.0
N1108 N 0.31686 0.20198 0.26104 0.0
N1109 N 0.2748 0.19298 0.20231 0.0
H1110 H 0.99778 0.24203 0.21445 0.0
H1111 H 0.83933 0.32292 0.21728 0.0
H1112 H 0.96619 0.31138 0.14641 0.0
H1113 H 0.87321 0.2616 0.29212 0.0
H1114 H 0.88524 0.31854 0.19015 0.0
H1115 H 0.95214 0.24835 0.24246 0.0
C1116 C 0.98126 0.25854 0.20528 0.0
C1117 C 0.986 0.2761 0.17785 0.0
C1118 C 0.88265 0.30616 0.21265 0.0
C1119 C 0.93331 0.28353 0.21003 0.0
C1120 C 0.85644 0.30867 0.22814 0.0
C1121 C 0.85236 0.29319 0.25755 0.0
C1122 C 0.90504 0.28741 0.22619 0.0
C1123 C 0.87524 0.27445 0.27002 0.0
C1124 C 0.95515 0.26225 0.22144 0.0
C1125 C 0.96367 0.29745 0.16753 0.0
N1126 N 0.90049 0.27215 0.25438 0.0
N1127 N 0.93837 0.30044 0.18347 0.0
H1128 H 0.86153 0.95384 0.1129 0.0
H1129 H 0.7624 0.87255 0.21442 0.0
H1130 H 0.79957 0.93057 0.07367 0.0
H1131 H 0.83789 0.8712 0.24653 0.0
H1132 H 0.77177 0.90209 0.16645 0.0
H1133 H 0.85083 0.92922 0.16496 0.0
C1134 C 0.84594 0.94331 0.1151 0.0
C1135 C 0.83121 0.94448 0.08903 0.0
C1136 C 0.7862 0.89558 0.18414 0.0
C1137 C 0.81844 0.91717 0.1484 0.0
C1138 C 0.78079 0.87877 0.21149 0.0
C1139 C 0.79968 0.86888 0.23391 0.0
C1140 C 0.81063 0.90269 0.17932 0.0
C1141 C 0.8228 0.87837 0.2297 0.0
C1142 C 0.83966 0.92956 0.14485 0.0
C1143 C 0.81103 0.93071 0.0933 0.0
N1144 N 0.82786 0.89449 0.20257 0.0
N1145 N 0.80514 0.91782 0.12243 0.0
H1146 H 0.08781 0.76619 0.11593 0.0
H1147 H 0.23796 0.69398 0.1625 0.0
H1148 H 0.13357 0.6816 0.09578 0.0
H1149 H 0.19642 0.78188 0.16895 0.0
H1150 H 0.19713 0.68696 0.14679 0.0
H1151 H 0.12454 0.77002 0.1438 0.0
C1152 C 0.10556 0.74836 0.11742 0.0
C1153 C 0.10777 0.72369 0.10291 0.0
C1154 C 0.19684 0.70773 0.15196 0.0
C1155 C 0.14994 0.72787 0.13521 0.0
C1156 C 0.22017 0.71179 0.16088 0.0
C1157 C 0.2208 0.73867 0.16658 0.0
C1158 C 0.17386 0.73071 0.1487 0.0
C1159 C 0.19691 0.7608 0.16484 0.0
C1160 C 0.1265 0.75054 0.1335 0.0
C1161 C 0.13097 0.70102 0.10651 0.0
N1162 N 0.17453 0.75638 0.15572 0.0
N1163 N 0.15127 0.70375 0.122 0.0
H1164 H 0.21191 0.01352 0.0543 0.0
H1165 H 0.30083 0.8684 0.98334 0.0
H1166 H 0.29919 0.98513 0.04218 0.0
H1167 H 0.21421 0.89851 0.98233 0.0
H1168 H 0.29964 0.91077 1.00735 0.0
H1169 H 0.21127 0.97152 0.02955 0.0
C1170 C 0.23088 0.99856 0.04637 0.0
C1171 C 0.25562 1.00267 0.05075 0.0
C1172 C 0.28084 0.90823 1.00188 0.0
C1173 C 0.25506 0.95473 0.02278 0.0
C1174 C 0.28154 0.88403 0.98803 0.0
C1175 C 0.25763 0.88 0.98055 0.0
C1176 C 0.25602 0.92866 1.00849 0.0
C1177 C 0.23312 0.90071 0.98791 0.0
C1178 C 0.23051 0.97458 0.0324 0.0
C1179 C 0.27962 0.98258 0.04013 0.0
N1180 N 0.23293 0.92424 1.00142 0.0
N1181 N 0.27871 0.95955 0.02678 0.0
H1182 H 0.19006 0.24761 0.02959 0.0
H1183 H 0.20609 0.30138 0.84144 0.0
H1184 H 0.122 0.29477 0.97911 0.0
H1185 H 0.27279 0.26076 0.8967 0.0
H1186 H 0.17468 0.29973 0.89096 0.0
H1187 H 0.22035 0.25236 0.98065 0.0
C1188 C 0.18139 0.25882 1.00818 0.0
C1189 C 0.15327 0.27064 1.00864 0.0
C1190 C 0.19624 0.29138 0.89225 0.0
C1191 C 0.1882 0.27641 0.95204 0.0
C1192 C 0.21416 0.29234 0.864 0.0
C1193 C 0.24223 0.28161 0.86489 0.0
C1194 C 0.20643 0.27913 0.92157 0.0
C1195 C 0.2515 0.26974 0.89473 0.0
C1196 C 0.1988 0.26171 0.98018 0.0
C1197 C 0.14348 0.28543 0.98007 0.0
N1198 N 0.23375 0.26881 0.9217 0.0
N1199 N 0.16086 0.28777 0.95296 0.0
H1200 H 0.83664 0.09796 0.87335 0.0
H1201 H 0.75609 0.25782 0.90472 0.0
H1202 H 0.78432 0.12211 0.96135 0.0
H1203 H 0.81921 0.23114 0.82687 0.0
H1204 H 0.76323 0.20834 0.92495 0.0
H1205 H 0.82729 0.14729 0.85403 0.0
C1206 C 0.82328 0.11363 0.88863 0.0
C1207 C 0.81126 0.10585 0.91893 0.0
C1208 C 0.77538 0.2135 0.9033 0.0
C1209 C 0.80037 0.1624 0.89711 0.0
C1210 C 0.7713 0.24163 0.89182 0.0
C1211 C 0.78646 0.24857 0.86341 0.0
C1212 C 0.79505 0.19246 0.88637 0.0
C1213 C 0.80642 0.22693 0.84807 0.0
C1214 C 0.81785 0.14179 0.87761 0.0
C1215 C 0.79374 0.12708 0.9376 0.0
N1216 N 0.80999 0.19997 0.85955 0.0
N1217 N 0.78885 0.15439 0.92641 0.0
H1218 H 0.99131 0.7261 0.89853 0.0
H1219 H 0.83125 0.78682 0.8961 0.0
H1220 H 0.93851 0.77342 0.97436 0.0
H1221 H 0.88561 0.76311 0.80944 0.0
H1222 H 0.87003 0.77788 0.92639 0.0
H1223 H 0.95287 0.73554 0.86697 0.0
C1224 C 0.97162 0.73841 0.90862 0.0
C1225 C 0.96819 0.74891 0.93928 0.0
C1226 C 0.87354 0.7746 0.90077 0.0
C1227 C 0.92394 0.75975 0.90316 0.0
C1228 C 0.85134 0.7795 0.88338 0.0
C1229 C 0.85502 0.77553 0.85005 0.0
C1230 C 0.89988 0.76534 0.88497 0.0
C1231 C 0.88171 0.76644 0.83504 0.0
C1232 C 0.9497 0.74393 0.89047 0.0
C1233 C 0.9422 0.76507 0.95082 0.0
N1234 N 0.90309 0.76151 0.85263 0.0
N1235 N 0.9211 0.76979 0.93291 0.0
H1236 H 0.09153 0.30869 0.22049 0.0
H1237 H 0.23791 0.33016 0.21248 0.0
H1238 H 0.13344 0.33359 0.13116 0.0
H1239 H 0.18594 0.32688 0.30186 0.0
H1240 H 0.20048 0.33189 0.1822 0.0
H1241 H 0.12567 0.31598 0.25035 0.0
C1242 C 0.1077 0.3162 0.20715 0.0
C1243 C 0.10942 0.32069 0.17319 0.0
C1244 C 0.19714 0.33116 0.20842 0.0
C1245 C 0.14939 0.32838 0.20746 0.0
C1246 C 0.21856 0.33035 0.22586 0.0
C1247 C 0.21525 0.32877 0.26 0.0
C1248 C 0.17211 0.32991 0.22508 0.0
C1249 C 0.18967 0.32818 0.27567 0.0
C1250 C 0.1273 0.32028 0.22428 0.0
C1251 C 0.13104 0.33021 0.15732 0.0
N1252 N 0.16929 0.32855 0.25817 0.0
N1253 N 0.15036 0.33335 0.1745 0.0
H1254 H 0.08755 0.81585 0.95281 0.0
H1255 H 0.24481 0.74895 0.88433 0.0
H1256 H 0.13151 0.72848 0.96599 0.0
H1257 H 0.19994 0.83342 0.85698 0.0
H1258 H 0.20369 0.74215 0.91676 0.0
H1259 H 0.1284 0.82417 0.92032 0.0
C1260 C 0.10566 0.79849 0.94916 0.0
C1261 C 0.10571 0.77138 0.9623 0.0
C1262 C 0.20266 0.76214 0.90342 0.0
C1263 C 0.15278 0.78073 0.92505 0.0
C1264 C 0.22616 0.76586 0.88457 0.0
C1265 C 0.22558 0.79134 0.86658 0.0
C1266 C 0.17833 0.78425 0.90509 0.0
C1267 C 0.20109 0.81308 0.86951 0.0
C1268 C 0.12901 0.80319 0.93045 0.0
C1269 C 0.13004 0.74976 0.95639 0.0
N1270 N 0.17854 0.80904 0.88804 0.0
N1271 N 0.15226 0.75488 0.93848 0.0
H1272 H 0.3323 0.08463 1.00179 0.0
H1273 H 0.32293 0.24141 0.92835 0.0
H1274 H 0.30704 0.15792 0.05622 0.0
H1275 H 0.33252 0.17482 0.86663 0.0
H1276 H 0.32581 0.20824 0.97513 0.0
H1277 H 0.34081 0.11427 0.95239 0.0
C1278 C 0.3293 0.10676 1.0035 0.0
C1279 C 0.31907 0.11887 0.03313 0.0
C1280 C 0.32759 0.20064 0.95141 0.0
C1281 C 0.3284 0.15277 0.97702 0.0
C1282 C 0.32624 0.2197 0.92436 0.0
C1283 C 0.32775 0.21115 0.89308 0.0
C1284 C 0.3302 0.17246 0.94771 0.0
C1285 C 0.33128 0.18251 0.89017 0.0
C1286 C 0.33385 0.12369 0.9753 0.0
C1287 C 0.31494 0.14772 0.03391 0.0
N1288 N 0.33221 0.16422 0.91714 0.0
N1289 N 0.31953 0.16357 1.00642 0.0
H1290 H 1.00046 0.35469 0.04197 0.0
H1291 H 0.91826 0.29019 0.93809 0.0
H1292 H 0.02831 0.27051 1.01126 0.0
H1293 H 0.89736 0.37854 0.95108 0.0
H1294 H 0.95988 0.28335 0.96273 0.0
H1295 H 0.96338 0.36487 1.00759 0.0
C1296 C 0.99903 0.3385 0.02778 0.0
C1297 C 1.01749 0.31165 0.02984 0.0
C1298 C 0.94631 0.30431 0.95993 0.0
C1299 C 0.97503 0.32298 0.9907 0.0
C1300 C 0.92259 0.30825 0.94551 0.0
C1301 C 0.90391 0.33491 0.94278 0.0
C1302 C 0.95147 0.32713 0.972 0.0
C1303 C 0.91074 0.35744 0.95332 0.0
C1304 C 0.97783 0.34426 1.0082 0.0
C1305 C 1.0145 0.29145 1.01088 0.0
N1306 N 0.93367 0.353 0.9678 0.0
N1307 N 0.99368 0.29744 0.99248 0.0
H1308 H 0.7498 0.98786 0.92527 0.0
H1309 H 0.79887 0.83156 0.86726 0.0
H1310 H 0.81494 0.92071 0.96088 0.0
H1311 H 0.7432 0.89912 0.81717 0.0
H1312 H 0.79806 0.86267 0.90817 0.0
H1313 H 0.74041 0.95478 0.892 0.0
C1314 C 0.76167 0.96609 0.92666 0.0
C1315 C 0.78326 0.95702 0.94572 0.0
C1316 C 0.78572 0.87077 0.88849 0.0
C1317 C 0.77283 0.91927 0.90783 0.0
C1318 C 0.78598 0.85279 0.86517 0.0
C1319 C 0.77066 0.86248 0.83898 0.0
C1320 C 0.77046 0.89905 0.88546 0.0
C1321 C 0.75509 0.89071 0.83718 0.0
C1322 C 0.75648 0.94728 0.9075 0.0
C1323 C 0.79824 0.92866 0.94634 0.0
N1324 N 0.75546 0.90805 0.86 0.0
N1325 N 0.79284 0.91094 0.92766 0.0
H1326 H 0.99331 0.73491 0.12837 0.0
H1327 H 0.8475 0.8186 0.21371 0.0
H1328 H 0.94596 0.81192 0.08345 0.0
H1329 H 0.90361 0.74802 0.25874 0.0
H1330 H 0.88149 0.81762 0.16593 0.0
H1331 H 0.95987 0.74059 0.17585 0.0
C1332 C 0.97597 0.75335 0.12866 0.0
C1333 C 0.97279 0.77306 0.10173 0.0
C1334 C 0.88636 0.80234 0.18624 0.0
C1335 C 0.93329 0.77951 0.15673 0.0
C1336 C 0.86683 0.80275 0.21349 0.0
C1337 C 0.87232 0.78284 0.2401 0.0
C1338 C 0.91174 0.78193 0.18553 0.0
C1339 C 0.89815 0.76342 0.23867 0.0
C1340 C 0.95668 0.75653 0.15592 0.0
C1341 C 0.94959 0.79638 0.10373 0.0
N1342 N 0.91658 0.76331 0.21199 0.0
N1343 N 0.93064 0.79883 0.13056 0.0
H1344 H 0.34316 0.97097 0.13633 0.0
H1345 H 0.28699 0.87618 0.28009 0.0
H1346 H 0.28401 1.00312 0.21626 0.0
H1347 H 0.35376 0.84065 0.2097 0.0
H1348 H 0.28724 0.92284 0.25728 0.0
H1349 H 0.34959 0.92336 0.16295 0.0
C1350 C 0.33191 0.96813 0.15967 0.0
C1351 C 0.31289 0.99115 0.17393 0.0
C1352 C 0.30207 0.90495 0.24684 0.0
C1353 C 0.31982 0.93679 0.20426 0.0
C1354 C 0.30199 0.87816 0.26009 0.0
C1355 C 0.32082 0.85436 0.24743 0.0
C1356 C 0.32069 0.90826 0.21996 0.0
C1357 C 0.33915 0.85846 0.22058 0.0
C1358 C 0.33545 0.94094 0.17477 0.0
C1359 C 0.29871 0.9861 0.20409 0.0
N1360 N 0.33864 0.88484 0.2077 0.0
N1361 N 0.30231 0.95964 0.218 0.0
H1362 H 0.75108 0.06738 0.08464 0.0
H1363 H 0.79088 0.19167 0.15339 0.0
H1364 H 0.81732 0.09927 0.04172 0.0
H1365 H 0.73315 0.15177 0.20578 0.0
H1366 H 0.79999 0.15855 0.11151 0.0
H1367 H 0.74187 0.10002 0.12765 0.0
C1368 C 0.76343 0.08143 0.08403 0.0
C1369 C 0.78504 0.08049 0.05963 0.0
C1370 C 0.78539 0.15695 0.13226 0.0
C1371 C 0.7749 0.11759 0.1087 0.0
C1372 C 0.78041 0.17572 0.15639 0.0
C1373 C 0.76106 0.17477 0.18313 0.0
C1374 C 0.77087 0.13706 0.13471 0.0
C1375 C 0.74788 0.15372 0.18533 0.0
C1376 C 0.75836 0.09987 0.10869 0.0
C1377 C 0.80056 0.09904 0.06018 0.0
N1378 N 0.75286 0.13591 0.1614 0.0
N1379 N 0.79523 0.1167 0.08421 0.0
H1380 H 0.60851 0.59824 0.84813 0.0
H1381 H 0.63381 0.72319 0.93063 0.0
H1382 H 0.57158 0.62368 0.94306 0.0
H1383 H 0.69098 0.67871 0.85565 0.0
H1384 H 0.60629 0.69171 0.92971 0.0
H1385 H 0.63443 0.63232 0.84496 0.0
C1386 C 0.60569 0.61117 0.86816 0.0
C1387 C 0.58791 0.60809 0.89595 0.0
C1388 C 0.62483 0.68886 0.91341 0.0
C1389 C 0.61735 0.64711 0.89243 0.0
C1390 C 0.6407 0.70677 0.91398 0.0
C1391 C 0.66516 0.7034 0.8936 0.0
C1392 C 0.63313 0.66747 0.892 0.0
C1393 C 0.67233 0.68224 0.87178 0.0
C1394 C 0.6206 0.63045 0.86642 0.0
C1395 C 0.58526 0.62515 0.92136 0.0
N1396 N 0.65646 0.66501 0.87164 0.0
N1397 N 0.59971 0.64396 0.91894 0.0
H1398 H 0.47151 0.61718 0.86083 0.0
H1399 H 0.34602 0.70278 0.76582 0.0
H1400 H 0.4522 0.58592 0.77782 0.0
H1401 H 0.3508 0.71345 0.86561 0.0
H1402 H 0.38633 0.6623 0.76703 0.0
H1403 H 0.42996 0.65584 0.8594 0.0
C1404 C 0.45869 0.61851 0.84208 0.0
C1405 C 0.46554 0.59811 0.81936 0.0
C1406 C 0.37853 0.67352 0.78866 0.0
C1407 C 0.41756 0.64265 0.81772 0.0
C1408 C 0.35538 0.69658 0.7881 0.0
C1409 C 0.34524 0.71219 0.81546 0.0
C1410 C 0.39188 0.66598 0.81671 0.0
C1411 C 0.35839 0.70297 0.84353 0.0
C1412 C 0.43479 0.64056 0.84146 0.0
C1413 C 0.44783 0.60107 0.79582 0.0
N1414 N 0.38111 0.68076 0.84332 0.0
N1415 N 0.42476 0.62294 0.79552 0.0
H1416 H 0.4686 0.45903 0.9472 0.0
H1417 H 0.38253 0.41262 0.83011 0.0
H1418 H 0.46812 0.4858 0.84546 0.0
H1419 H 0.37221 0.39936 0.93434 0.0
H1420 H 0.4178 0.43492 0.83431 0.0
H1421 H 0.43659 0.43305 0.94211 0.0
C1422 C 0.46179 0.45941 0.92379 0.0
C1423 C 0.47097 0.47477 0.89679 0.0
C1424 C 0.4079 0.427 0.85625 0.0
C1425 C 0.43434 0.44499 0.8907 0.0
C1426 C 0.38795 0.41406 0.85383 0.0
C1427 C 0.37432 0.4043 0.88193 0.0
C1428 C 0.41439 0.42997 0.88697 0.0
C1429 C 0.38198 0.40694 0.91208 0.0
C1430 C 0.44346 0.44464 0.9209 0.0
C1431 C 0.46129 0.47466 0.86706 0.0
N1432 N 0.40142 0.41957 0.91381 0.0
N1433 N 0.44357 0.45997 0.8648 0.0
H1434 H 0.63916 0.51245 0.80535 0.0
H1435 H 0.69193 0.3447 0.81109 0.0
H1436 H 0.58378 0.46202 0.82533 0.0
H1437 H 0.74114 0.39865 0.81955 0.0
H1438 H 0.65218 0.38634 0.80959 0.0
H1439 H 0.67685 0.46993 0.80203 0.0
C1440 C 0.63482 0.49244 0.80863 0.0
C1441 C 0.60811 0.49099 0.81586 0.0
C1442 C 0.67173 0.38888 0.81195 0.0
C1443 C 0.65164 0.44174 0.8124 0.0
C1444 C 0.69441 0.36515 0.81287 0.0
C1445 C 0.72001 0.36795 0.81596 0.0
C1446 C 0.67479 0.41564 0.81351 0.0
C1447 C 0.72193 0.3951 0.81785 0.0
C1448 C 0.65647 0.46806 0.80694 0.0
C1449 C 0.604 0.46424 0.81974 0.0
N1450 N 0.6998 0.41769 0.81646 0.0
N1451 N 0.62552 0.44067 0.81815 0.0
H1452 H 0.64928 0.47884 0.21642 0.0
H1453 H 0.73312 0.37882 0.35203 0.0
H1454 H 0.61927 0.48393 0.31796 0.0
H1455 H 0.74421 0.36373 0.2507 0.0
H1456 H 0.69518 0.4207 0.34147 0.0
H1457 H 0.68772 0.44049 0.23015 0.0
C1458 C 0.65071 0.47198 0.24179 0.0
C1459 C 0.63067 0.48473 0.26604 0.0
C1460 C 0.70602 0.40822 0.32162 0.0
C1461 C 0.67544 0.44006 0.28205 0.0
C1462 C 0.7278 0.3845 0.32752 0.0
C1463 C 0.7418 0.36773 0.30216 0.0
C1464 C 0.69856 0.41539 0.29004 0.0
C1465 C 0.73387 0.37586 0.27101 0.0
C1466 C 0.67283 0.44986 0.24959 0.0
C1467 C 0.63411 0.4747 0.29844 0.0
N1468 N 0.71291 0.39903 0.26588 0.0
N1469 N 0.6561 0.45287 0.30555 0.0
H1470 H 0.60926 0.62407 0.26086 0.0
H1471 H 0.73756 0.66531 0.1664 0.0
H1472 H 0.63895 0.60755 0.16129 0.0
H1473 H 0.68986 0.70974 0.24753 0.0
H1474 H 0.70563 0.638 0.16935 0.0
H1475 H 0.64253 0.64993 0.26121 0.0
C1476 C 0.62287 0.62578 0.23916 0.0
C1477 C 0.62135 0.61372 0.21096 0.0
C1478 C 0.70214 0.65372 0.18652 0.0
C1479 C 0.65943 0.64297 0.21128 0.0
C1480 C 0.72032 0.66945 0.18481 0.0
C1481 C 0.71619 0.69035 0.20635 0.0
C1482 C 0.67975 0.65848 0.21025 0.0
C1483 C 0.69393 0.6939 0.23042 0.0
C1484 C 0.6417 0.64063 0.23933 0.0
C1485 C 0.63926 0.61677 0.18339 0.0
N1486 N 0.67647 0.67818 0.23166 0.0
N1487 N 0.65764 0.63094 0.18429 0.0
H1488 H 0.46518 0.61056 0.22946 0.0
H1489 H 0.38896 0.73358 0.3433 0.0
H1490 H 0.50183 0.61919 0.31275 0.0
H1491 H 0.38319 0.73646 0.241 0.0
H1492 H 0.4272 0.69042 0.33801 0.0
H1493 H 0.42995 0.6536 0.24008 0.0
C1494 C 0.46577 0.62143 0.25023 0.0
C1495 C 0.48681 0.6113 0.26998 0.0
C1496 C 0.41765 0.70077 0.31677 0.0
C1497 C 0.44611 0.66137 0.28221 0.0
C1498 C 0.39603 0.72546 0.31968 0.0
C1499 C 0.38258 0.73834 0.29259 0.0
C1500 C 0.42551 0.68898 0.28664 0.0
C1501 C 0.3924 0.72685 0.26267 0.0
C1502 C 0.44562 0.64622 0.25616 0.0
C1503 C 0.48602 0.62626 0.29686 0.0
N1504 N 0.41294 0.70278 0.26061 0.0
N1505 N 0.46602 0.65074 0.30216 0.0
H1506 H 0.52626 0.45273 0.18517 0.0
H1507 H 0.38138 0.43395 0.25766 0.0
H1508 H 0.47292 0.50526 0.25647 0.0
H1509 H 0.43753 0.38178 0.18807 0.0
H1510 H 0.41502 0.45883 0.26052 0.0
H1511 H 0.4943 0.4255 0.18823 0.0
C1512 C 0.50774 0.45865 0.20141 0.0
C1513 C 0.50221 0.48157 0.22033 0.0
C1514 C 0.41998 0.44183 0.24477 0.0
C1515 C 0.46531 0.45009 0.22424 0.0
C1516 C 0.40085 0.42752 0.24327 0.0
C1517 C 0.40649 0.40593 0.22231 0.0
C1518 C 0.44495 0.43443 0.22524 0.0
C1519 C 0.43203 0.39863 0.20408 0.0
C1520 C 0.4895 0.44293 0.20333 0.0
C1521 C 0.47808 0.48773 0.24152 0.0
N1522 N 0.45016 0.41289 0.20586 0.0
N1523 N 0.46043 0.4722 0.24276 0.0
H1524 H 0.77481 0.67498 0.62004 0.0
H1525 H 0.83263 0.69868 0.77946 0.0
H1526 H 0.83758 0.6116 0.66546 0.0
H1527 H 0.77587 0.76349 0.72742 0.0
H1528 H 0.83592 0.66682 0.73749 0.0
H1529 H 0.77602 0.70779 0.65839 0.0
C1530 C 0.78893 0.6679 0.63804 0.0
C1531 C 0.80605 0.6403 0.63947 0.0
C1532 C 0.82298 0.68811 0.73502 0.0
C1533 C 0.80743 0.6781 0.68394 0.0
C1534 C 0.82114 0.70631 0.75895 0.0
C1535 C 0.80438 0.73399 0.75667 0.0
C1536 C 0.8075 0.69742 0.70881 0.0
C1537 C 0.78953 0.74261 0.72988 0.0
C1538 C 0.78963 0.68676 0.65998 0.0
C1539 C 0.82398 0.63259 0.66337 0.0
N1540 N 0.79138 0.72443 0.70713 0.0
N1541 N 0.82408 0.65129 0.68473 0.0
H1542 H 0.46291 0.825 0.64448 0.0
H1543 H 0.37029 0.74966 0.7723 0.0
H1544 H 0.4917 0.7427 0.69222 0.0
H1545 H 0.33801 0.83173 0.72642 0.0
H1546 H 0.41531 0.74876 0.74548 0.0
H1547 H 0.4182 0.82983 0.67576 0.0
C1548 C 0.46007 0.80797 0.66153 0.0
C1549 C 0.48157 0.78323 0.66513 0.0
C1550 C 0.3986 0.76726 0.74152 0.0
C1551 C 0.42977 0.78869 0.70133 0.0
C1552 C 0.37277 0.76788 0.75722 0.0
C1553 C 0.35029 0.79132 0.75299 0.0
C1554 C 0.40234 0.78994 0.72021 0.0
C1555 C 0.35484 0.8137 0.73165 0.0
C1556 C 0.43435 0.81073 0.67939 0.0
C1557 C 0.47607 0.76199 0.68778 0.0
N1558 N 0.38019 0.81249 0.71617 0.0
N1559 N 0.45102 0.7652 0.7047 0.0
H1560 H 0.33067 0.3957 0.58025 0.0
H1561 H 0.27756 0.3714 0.76717 0.0
H1562 H 0.28253 0.46406 0.63645 0.0
H1563 H 0.30456 0.30594 0.70078 0.0
H1564 H 0.28053 0.4059 0.72124 0.0
H1565 H 0.32346 0.36273 0.62577 0.0
C1566 C 0.31867 0.40383 0.60223 0.0
C1567 C 0.3073 0.43279 0.60445 0.0
C1568 C 0.28551 0.38399 0.71678 0.0
C1569 C 0.29881 0.3949 0.65703 0.0
C1570 C 0.28378 0.36424 0.74301 0.0
C1571 C 0.29073 0.33555 0.73807 0.0
C1572 C 0.29466 0.37501 0.68538 0.0
C1573 C 0.29876 0.32769 0.70605 0.0
C1574 C 0.31437 0.38494 0.6282 0.0
C1575 C 0.29155 0.44195 0.63355 0.0
N1576 N 0.30074 0.34718 0.68116 0.0
N1577 N 0.28794 0.42312 0.65875 0.0
H1578 H 0.5806 0.32172 0.53688 0.0
H1579 H 0.64338 0.31607 0.7035 0.0
H1580 H 0.53389 0.32559 0.63096 0.0
H1581 H 0.69087 0.28931 0.61368 0.0
H1582 H 0.60243 0.331 0.67523 0.0
H1583 H 0.62013 0.32134 0.56266 0.0
C1584 C 0.57844 0.32302 0.56286 0.0
C1585 C 0.55384 0.32322 0.58175 0.0
C1586 C 0.62188 0.32235 0.66158 0.0
C1587 C 0.59924 0.32284 0.61152 0.0
C1588 C 0.64525 0.31409 0.67766 0.0
C1589 C 0.67051 0.30148 0.66088 0.0
C1590 C 0.62385 0.31817 0.62843 0.0
C1591 C 0.67176 0.29895 0.62749 0.0
C1592 C 0.60112 0.32268 0.57761 0.0
C1593 C 0.55242 0.32512 0.61536 0.0
N1594 N 0.64882 0.30703 0.61244 0.0
N1595 N 0.5748 0.32459 0.62915 0.0
H1596 H 0.87652 0.46272 0.56765 0.0
H1597 H 0.76339 0.45501 0.45969 0.0
H1598 H 0.8182 0.53628 0.53137 0.0
H1599 H 0.83065 0.38465 0.48398 0.0
H1600 H 0.77986 0.48464 0.48985 0.0
H1601 H 0.8562 0.4336 0.54242 0.0
C1602 C 0.8591 0.47284 0.55476 0.0
C1603 C 0.849 0.5022 0.5519 0.0
C1604 C 0.791 0.46272 0.48861 0.0
C1605 C 0.82569 0.46865 0.52216 0.0
C1606 C 0.78156 0.44569 0.47146 0.0
C1607 C 0.7956 0.41712 0.46917 0.0
C1608 C 0.8146 0.45119 0.50396 0.0
C1609 C 0.81925 0.40652 0.48466 0.0
C1610 C 0.84757 0.45612 0.54018 0.0
C1611 C 0.82635 0.51392 0.53487 0.0
N1612 N 0.82789 0.42346 0.50138 0.0
N1613 N 0.81559 0.49717 0.52046 0.0
H1614 H 0.62476 0.81909 0.47049 0.0
H1615 H 0.77332 0.7614 0.37269 0.0
H1616 H 0.68605 0.74688 0.50476 0.0
H1617 H 0.71061 0.8309 0.33664 0.0
H1618 H 0.74251 0.75673 0.42202 0.0
H1619 H 0.65641 0.82488 0.42278 0.0
C1620 C 0.64481 0.80447 0.46827 0.0
C1621 C 0.65232 0.78233 0.49216 0.0
C1622 C 0.73547 0.77312 0.40344 0.0
C1623 C 0.68912 0.78886 0.43668 0.0
C1624 C 0.75319 0.7759 0.3753 0.0
C1625 C 0.74488 0.7971 0.35072 0.0
C1626 C 0.70895 0.79141 0.40711 0.0
C1627 C 0.71812 0.81459 0.35512 0.0
C1628 C 0.66295 0.80775 0.44075 0.0
C1629 C 0.67883 0.76406 0.48717 0.0
N1630 N 0.70131 0.8115 0.38263 0.0
N1631 N 0.69606 0.76773 0.46026 0.0
H1632 H 0.34192 0.59286 0.40055 0.0
H1633 H 0.2587 0.7561 0.39844 0.0
H1634 H 0.27492 0.62708 0.47166 0.0
H1635 H 0.32829 0.72235 0.33072 0.0
H1636 H 0.26256 0.70867 0.42363 0.0
H1637 H 0.33571 0.63958 0.37301 0.0
C1638 C 0.32596 0.61012 0.41054 0.0
C1639 C 0.30902 0.60574 0.43873 0.0
C1640 C 0.27688 0.71157 0.40309 0.0
C1641 C 0.30164 0.65971 0.40687 0.0
C1642 C 0.27464 0.73865 0.38868 0.0
C1643 C 0.29286 0.7432 0.36204 0.0
C1644 C 0.29781 0.68875 0.39113 0.0
C1645 C 0.31343 0.71985 0.35074 0.0
C1646 C 0.32233 0.63687 0.39462 0.0
C1647 C 0.28837 0.62913 0.44995 0.0
N1648 N 0.31532 0.69373 0.36528 0.0
N1649 N 0.28535 0.65498 0.43412 0.0
H1650 H 0.45948 0.32596 0.44216 0.0
H1651 H 0.33908 0.26771 0.4054 0.0
H1652 H 0.44308 0.25054 0.48818 0.0
H1653 H 0.3642 0.33118 0.34185 0.0
H1654 H 0.37482 0.26463 0.43871 0.0
H1655 H 0.42258 0.33195 0.40819 0.0
C1656 C 0.44803 0.31085 0.44539 0.0
C1657 C 0.45457 0.28767 0.46814 0.0
C1658 C 0.37263 0.2793 0.41752 0.0
C1659 C 0.41233 0.29436 0.42936 0.0
C1660 C 0.35194 0.2812 0.39854 0.0
C1661 C 0.34824 0.29989 0.37085 0.0
C1662 C 0.38998 0.29638 0.40913 0.0
C1663 C 0.36631 0.31631 0.36287 0.0
C1664 C 0.42709 0.31416 0.42583 0.0
C1665 C 0.43906 0.26867 0.47096 0.0
N1666 N 0.38624 0.31431 0.38195 0.0
N1667 N 0.41885 0.27247 0.45202 0.0
H1668 H 0.63049 0.83758 0.61936 0.0
H1669 H 0.69024 0.81922 0.79027 0.0
H1670 H 0.5937 0.80624 0.70879 0.0
H1671 H 0.73898 0.82265 0.69828 0.0
H1672 H 0.65129 0.82379 0.7614 0.0
H1673 H 0.66667 0.842 0.64871 0.0
C1674 C 0.62967 0.83224 0.64526 0.0
C1675 C 0.60901 0.8215 0.66162 0.0
C1676 C 0.67046 0.82385 0.74754 0.0
C1677 C 0.65038 0.82637 0.69529 0.0
C1678 C 0.69279 0.82128 0.76403 0.0
C1679 C 0.71816 0.82061 0.74682 0.0
C1680 C 0.67325 0.826 0.71347 0.0
C1681 C 0.71993 0.82336 0.71272 0.0
C1682 C 0.65046 0.83451 0.66193 0.0
C1683 C 0.60924 0.81453 0.69514 0.0
N1684 N 0.69787 0.82588 0.69721 0.0
N1685 N 0.62954 0.81702 0.71078 0.0
H1686 H 0.60523 0.29256 0.40838 0.0
H1687 H 0.76308 0.24764 0.42458 0.0
H1688 H 0.6375 0.24608 0.49389 0.0
H1689 H 0.7247 0.31769 0.36143 0.0
H1690 H 0.71816 0.24516 0.4498 0.0
H1691 H 0.64924 0.30063 0.38978 0.0
C1692 C 0.62174 0.28389 0.42309 0.0
C1693 C 0.61786 0.26845 0.45255 0.0
C1694 C 0.71955 0.26117 0.43055 0.0
C1695 C 0.66861 0.27692 0.43105 0.0
C1696 C 0.74516 0.26251 0.4161 0.0
C1697 C 0.74753 0.28205 0.3899 0.0
C1698 C 0.69615 0.27968 0.41887 0.0
C1699 C 0.72374 0.3015 0.38061 0.0
C1700 C 0.64682 0.28857 0.41257 0.0
C1701 C 0.63977 0.25802 0.47099 0.0
N1702 N 0.69908 0.29952 0.39465 0.0
N1703 N 0.66434 0.26205 0.45972 0.0
H1704 H 0.84853 0.62854 0.48604 0.0
H1705 H 0.80551 0.6992 0.31469 0.0
H1706 H 0.78475 0.61399 0.44085 0.0
H1707 H 0.86507 0.71785 0.3636 0.0
H1708 H 0.80551 0.65951 0.35417 0.0
H1709 H 0.86165 0.65325 0.43603 0.0
C1710 C 0.83747 0.63014 0.46551 0.0
C1711 C 0.81521 0.61943 0.46792 0.0
C1712 C 0.81896 0.67197 0.35592 0.0
C1713 C 0.83001 0.64819 0.41047 0.0
C1714 C 0.81919 0.69448 0.33318 0.0
C1715 C 0.83479 0.71228 0.33648 0.0
C1716 C 0.83444 0.66733 0.38202 0.0
C1717 C 0.8521 0.70517 0.36086 0.0
C1718 C 0.84497 0.64439 0.4369 0.0
C1719 C 0.80161 0.62247 0.44041 0.0
N1720 N 0.85111 0.68352 0.38308 0.0
N1721 N 0.80905 0.63683 0.41292 0.0
H1722 H 0.49352 0.8633 0.54513 0.0
H1723 H 0.41699 0.80238 0.43525 0.0
H1724 H 0.53355 0.79688 0.48232 0.0
H1725 H 0.38366 0.88673 0.46528 0.0
H1726 H 0.4602 0.80133 0.4514 0.0
H1727 H 0.45351 0.87438 0.51551 0.0
C1728 C 0.49416 0.85158 0.52462 0.0
C1729 C 0.51668 0.82888 0.51646 0.0
C1730 C 0.44353 0.82024 0.45412 0.0
C1731 C 0.47113 0.84097 0.48309 0.0
C1732 C 0.41873 0.82095 0.44462 0.0
C1733 C 0.39627 0.8446 0.44904 0.0
C1734 C 0.446 0.84308 0.46883 0.0
C1735 C 0.40007 0.86769 0.46215 0.0
C1736 C 0.47132 0.85778 0.50785 0.0
C1737 C 0.51642 0.81424 0.48981 0.0
N1738 N 0.4243 0.86619 0.47206 0.0
N1739 N 0.4939 0.82023 0.47446 0.0
H1740 H 0.24182 0.50893 0.42421 0.0
H1741 H 0.28656 0.35065 0.38327 0.0
H1742 H 0.27941 0.44005 0.48927 0.0
H1743 H 0.23185 0.41449 0.32755 0.0
H1744 H 0.28058 0.38316 0.42437 0.0
H1745 H 0.23326 0.47551 0.39104 0.0
C1746 C 0.24731 0.48685 0.43208 0.0
C1747 C 0.26107 0.47705 0.45948 0.0
C1748 C 0.26948 0.39011 0.40347 0.0
C1749 C 0.25238 0.43887 0.42145 0.0
C1750 C 0.27283 0.37139 0.37997 0.0
C1751 C 0.25914 0.37963 0.35233 0.0
C1752 C 0.25305 0.41775 0.39886 0.0
C1753 C 0.24244 0.40724 0.34881 0.0
C1754 C 0.24268 0.46778 0.41308 0.0
C1755 C 0.26852 0.4483 0.46837 0.0
N1756 N 0.23999 0.42544 0.37172 0.0
N1757 N 0.26439 0.43019 0.4492 0.0
H1758 H 0.43511 0.27129 0.60158 0.0
H1759 H 0.4066 0.23722 0.79364 0.0
H1760 H 0.49742 0.22499 0.66116 0.0
H1761 H 0.34519 0.28379 0.73342 0.0
H1762 H 0.44 0.2308 0.74528 0.0
H1763 H 0.40159 0.27414 0.64925 0.0
C1764 C 0.44181 0.26173 0.62463 0.0
C1765 C 0.4693 0.248 0.62716 0.0
C1766 C 0.41913 0.24219 0.74259 0.0
C1767 C 0.43079 0.25115 0.68218 0.0
C1768 C 0.40009 0.24584 0.77019 0.0
C1769 C 0.37284 0.26028 0.76747 0.0
C1770 C 0.41099 0.25363 0.71205 0.0
C1771 C 0.36564 0.27166 0.73662 0.0
C1772 C 0.42259 0.26328 0.6519 0.0
C1773 C 0.47655 0.23561 0.65777 0.0
N1774 N 0.3845 0.26804 0.7102 0.0
N1775 N 0.45749 0.23761 0.684 0.0
H1776 H 0.75683 0.49961 0.69293 0.0
H1777 H 0.83746 0.33649 0.70195 0.0
H1778 H 0.82343 0.46258 0.62276 0.0
H1779 H 0.77317 0.37571 0.77316 0.0
H1780 H 0.83451 0.3827 0.67362 0.0
H1781 H 0.76362 0.45419 0.72362 0.0
C1782 C 0.77274 0.48185 0.68388 0.0
C1783 C 0.78956 0.48481 0.6553 0.0
C1784 C 0.82132 0.38118 0.69578 0.0
C1785 C 0.7977 0.43285 0.69034 0.0
C1786 C 0.82308 0.3549 0.71193 0.0
C1787 C 0.80601 0.35242 0.74043 0.0
C1788 C 0.80189 0.40494 0.70795 0.0
C1789 C 0.78726 0.37668 0.752 0.0
C1790 C 0.7768 0.45598 0.70152 0.0
C1791 C 0.81021 0.46122 0.64489 0.0
N1792 N 0.78566 0.40191 0.73572 0.0
N1793 N 0.81366 0.43618 0.66237 0.0
H1794 H 0.24486 0.60335 0.56175 0.0
H1795 H 0.33178 0.68093 0.63529 0.0
H1796 H 0.31279 0.5602 0.61455 0.0
H1797 H 0.24623 0.71997 0.63285 0.0
H1798 H 0.32628 0.63764 0.61957 0.0
H1799 H 0.24461 0.64754 0.5824 0.0
C1800 C 0.25922 0.60304 0.57828 0.0
C1801 C 0.27911 0.57818 0.58614 0.0
C1802 C 0.3087 0.65569 0.62243 0.0
C1803 C 0.27939 0.6283 0.60879 0.0
C1804 C 0.3119 0.68042 0.63099 0.0
C1805 C 0.28944 0.70391 0.63521 0.0
C1806 C 0.28292 0.65457 0.61759 0.0
C1807 C 0.264 0.70214 0.62983 0.0
C1808 C 0.25919 0.62822 0.58981 0.0
C1809 C 0.29737 0.57895 0.60745 0.0
N1810 N 0.26139 0.67783 0.62106 0.0
N1811 N 0.29737 0.60366 0.61758 0.0
loop_
_geom_bond_atom_site_label_1
_geom_bond_atom_site_label_2
_geom_bond_distance
_geom_bond_site_symmetry_2
_ccdc_geom_bond_type
Cu0 N1 1.999 . S
Cu0 O6 1.974 . S
Cu0 N11 1.985 . S
Cu0 O20 1.959 1_455 S
N1 Cu0 1.999 . S
N1 C3 1.263 . S
N1 C5 1.389 . S
N2 C3 1.358 . S
N2 C4 1.400 . S
C3 N1 1.263 . S
C3 N2 1.358 . S
C3 H9 0.930 . S
C4 N2 1.400 . S
C4 C5 1.351 . S
C4 H21 0.930 . S
C5 N1 1.389 . S
C5 C4 1.351 . S
C5 H10 0.930 . S
O6 Cu0 1.974 . S
O6 C16 1.282 1_545 S
C7 O8 1.261 . S
C7 O20 1.251 . S
O8 C7 1.261 . S
H9 C3 0.930 . S
H10 C5 0.930 . S
N11 Cu0 1.985 . S
N11 C13 1.335 1_455 S
N11 C14 1.390 1_545 S
N12 C13 1.345 1_565 S
N12 C15 1.336 . S
C13 N11 1.335 1_655 S
C13 N12 1.345 1_545 S
C13 H18 0.930 . S
C14 N11 1.390 1_565 S
C14 C15 1.346 1_455 S
C14 H19 0.930 . S
C15 N12 1.336 . S
C15 C14 1.346 1_655 S
C15 H22 0.929 . S
C16 O6 1.282 1_565 S
C16 O17 1.216 1_565 S
O17 C16 1.216 1_545 S
H18 C13 0.930 . S
H19 C14 0.930 . S
O20 Cu0 1.959 1_655 S
O20 C7 1.251 . S
H21 C4 0.930 . S
H22 C15 0.929 . S
Cu23 N24 1.999 . S
Cu23 O29 1.974 1_455 S
Cu23 N34 1.985 . S
Cu23 O43 1.959 . S
N24 Cu23 1.999 . S
N24 C26 1.263 1_455 S
N24 C28 1.389 1_545 S
N25 C26 1.358 1_565 S
N25 C27 1.400 . S
C26 N24 1.263 1_655 S
C26 N25 1.358 1_545 S
C26 H32 0.930 . S
C27 N25 1.400 . S
C27 C28 1.351 1_655 S
C27 H44 0.930 . S
C28 N24 1.389 1_565 S
C28 C27 1.351 1_455 S
C28 H33 0.930 . S
O29 Cu23 1.974 1_655 S
O29 C39 1.282 . S
C30 O31 1.261 . S
C30 O43 1.251 . S
O31 C30 1.261 . S
H32 C26 0.930 . S
H33 C28 0.930 . S
N34 Cu23 1.985 . S
N34 C36 1.335 . S
N34 C37 1.390 . S
N35 C36 1.345 . S
N35 C38 1.336 . S
C36 N34 1.335 . S
C36 N35 1.345 . S
C36 H41 0.930 . S
C37 N34 1.390 . S
C37 C38 1.346 . S
C37 H42 0.930 . S
C38 N35 1.336 . S
C38 C37 1.346 . S
C38 H45 0.929 . S
C39 O29 1.282 . S
C39 O40 1.216 . S
O40 C39 1.216 . S
H41 C36 0.930 . S
H42 C37 0.930 . S
O43 Cu23 1.959 . S
O43 C30 1.251 . S
H44 C27 0.930 . S
H45 C38 0.929 . S
Cu46 N47 1.999 . S
Cu46 O52 1.974 . S
Cu46 N57 1.985 . S
Cu46 O66 1.959 . S
N47 Cu46 1.999 . S
N47 C49 1.263 . S
N47 C51 1.389 . S
N48 C49 1.358 . S
N48 C50 1.400 . S
C49 N47 1.263 . S
C49 N48 1.358 . S
C49 H55 0.930 . S
C50 N48 1.400 . S
C50 C51 1.351 . S
C50 H67 0.930 1_554 S
C51 N47 1.389 . S
C51 C50 1.351 . S
C51 H56 0.930 . S
O52 Cu46 1.974 . S
O52 C62 1.282 . S
C53 O54 1.261 . S
C53 O66 1.251 . S
O54 C53 1.261 . S
H55 C49 0.930 . S
H56 C51 0.930 . S
N57 Cu46 1.985 . S
N57 C59 1.335 . S
N57 C60 1.390 . S
N58 C59 1.345 . S
N58 C61 1.336 . S
C59 N57 1.335 . S
C59 N58 1.345 . S
C59 H64 0.930 . S
C60 N57 1.390 . S
C60 C61 1.346 . S
C60 H65 0.930 . S
C61 N58 1.336 . S
C61 C60 1.346 . S
C61 H68 0.929 . S
C62 O52 1.282 . S
C62 O63 1.216 . S
O63 C62 1.216 . S
H64 C59 0.930 . S
H65 C60 0.930 . S
O66 Cu46 1.959 . S
O66 C53 1.251 . S
H67 C50 0.930 1_556 S
H68 C61 0.929 . S
Cu69 N70 1.999 . S
Cu69 O75 1.974 . S
Cu69 N80 1.985 . S
Cu69 O89 1.959 . S
N70 Cu69 1.999 . S
N70 C72 1.263 . S
N70 C74 1.389 . S
N71 C72 1.358 . S
N71 C73 1.400 1_554 S
C72 N70 1.263 . S
C72 N71 1.358 . S
C72 H78 0.930 . S
C73 N71 1.400 1_556 S
C73 C74 1.351 1_556 S
C73 H90 0.930 . S
C74 N70 1.389 . S
C74 C73 1.351 1_554 S
C74 H79 0.930 . S
O75 Cu69 1.974 . S
O75 C85 1.282 . S
C76 O77 1.261 . S
C76 O89 1.251 . S
O77 C76 1.261 . S
H78 C72 0.930 . S
H79 C74 0.930 . S
N80 Cu69 1.985 . S
N80 C82 1.335 1_455 S
N80 C83 1.390 . S
N81 C82 1.345 . S
N81 C84 1.336 1_655 S
C82 N80 1.335 1_655 S
C82 N81 1.345 . S
C82 H87 0.930 . S
C83 N80 1.390 . S
C83 C84 1.346 . S
C83 H88 0.930 . S
C84 N81 1.336 1_455 S
C84 C83 1.346 . S
C84 H91 0.929 . S
C85 O75 1.282 . S
C85 O86 1.216 . S
O86 C85 1.216 . S
H87 C82 0.930 . S
H88 C83 0.930 . S
O89 Cu69 1.959 . S
O89 C76 1.251 . S
H90 C73 0.930 . S
H91 C84 0.929 . S
Cu92 N93 1.999 1_554 S
Cu92 O98 1.974 . S
Cu92 N103 1.985 1_545 S
Cu92 O112 1.959 1_544 S
N93 Cu92 1.999 1_556 S
N93 C95 1.263 . S
N93 C97 1.389 . S
N94 C95 1.358 . S
N94 C96 1.400 . S
C95 N93 1.263 . S
C95 N94 1.358 . S
C95 H101 0.930 . S
C96 N94 1.400 . S
C96 C97 1.351 . S
C96 H113 0.930 . S
C97 N93 1.389 . S
C97 C96 1.351 . S
C97 H102 0.930 . S
O98 Cu92 1.974 . S
O98 C108 1.282 . S
C99 O100 1.261 . S
C99 O112 1.251 . S
O100 C99 1.261 . S
H101 C95 0.930 . S
H102 C97 0.930 . S
N103 Cu92 1.985 1_565 S
N103 C105 1.335 . S
N103 C106 1.390 . S
N104 C105 1.345 . S
N104 C107 1.336 . S
C105 N103 1.335 . S
C105 N104 1.345 . S
C105 H110 0.930 . S
C106 N103 1.390 . S
C106 C107 1.346 . S
C106 H111 0.930 . S
C107 N104 1.336 . S
C107 C106 1.346 . S
C107 H114 0.929 . S
C108 O98 1.282 . S
C108 O109 1.216 . S
O109 C108 1.216 . S
H110 C105 0.930 . S
H111 C106 0.930 . S
O112 Cu92 1.959 1_566 S
O112 C99 1.251 . S
H113 C96 0.930 . S
H114 C107 0.929 . S
Cu115 N116 1.999 1_454 S
Cu115 O121 1.974 1_455 S
Cu115 N126 1.985 . S
Cu115 O135 1.959 1_554 S
N116 Cu115 1.999 1_656 S
N116 C118 1.263 . S
N116 C120 1.389 . S
N117 C118 1.358 . S
N117 C119 1.400 . S
C118 N116 1.263 . S
C118 N117 1.358 . S
C118 H124 0.930 . S
C119 N117 1.400 . S
C119 C120 1.351 . S
C119 H136 0.930 . S
C120 N116 1.389 . S
C120 C119 1.351 . S
C120 H125 0.930 1_655 S
O121 Cu115 1.974 1_655 S
O121 C131 1.282 . S
C122 O123 1.261 . S
C122 O135 1.251 . S
O123 C122 1.261 . S
H124 C118 0.930 . S
H125 C120 0.930 1_455 S
N126 Cu115 1.985 . S
N126 C128 1.335 . S
N126 C129 1.390 . S
N127 C128 1.345 . S
N127 C130 1.336 . S
C128 N126 1.335 . S
C128 N127 1.345 . S
C128 H133 0.930 . S
C129 N126 1.390 . S
C129 C130 1.346 . S
C129 H134 0.930 1_455 S
C130 N127 1.336 . S
C130 C129 1.346 . S
C130 H137 0.929 . S
C131 O121 1.282 . S
C131 O132 1.216 . S
O132 C131 1.216 . S
H133 C128 0.930 . S
H134 C129 0.930 1_655 S
O135 Cu115 1.959 1_556 S
O135 C122 1.251 . S
H136 C119 0.930 . S
H137 C130 0.929 . S
Cu138 N139 1.999 . S
Cu138 O144 1.974 . S
Cu138 N149 1.985 . S
Cu138 O158 1.959 . S
N139 Cu138 1.999 . S
N139 C141 1.263 . S
N139 C143 1.389 . S
N140 C141 1.358 . S
N140 C142 1.400 . S
C141 N139 1.263 . S
C141 N140 1.358 . S
C141 H147 0.930 . S
C142 N140 1.400 . S
C142 C143 1.351 . S
C142 H159 0.930 . S
C143 N139 1.389 . S
C143 C142 1.351 . S
C143 H148 0.930 . S
O144 Cu138 1.974 . S
O144 C154 1.282 . S
C145 O146 1.261 . S
C145 O158 1.251 . S
O146 C145 1.261 . S
H147 C141 0.930 . S
H148 C143 0.930 . S
N149 Cu138 1.985 . S
N149 C151 1.335 . S
N149 C152 1.390 . S
N150 C151 1.345 . S
N150 C153 1.336 . S
C151 N149 1.335 . S
C151 N150 1.345 . S
C151 H156 0.930 . S
C152 N149 1.390 . S
C152 C153 1.346 . S
C152 H157 0.930 . S
C153 N150 1.336 . S
C153 C152 1.346 . S
C153 H160 0.929 . S
C154 O144 1.282 . S
C154 O155 1.216 . S
O155 C154 1.216 . S
H156 C151 0.930 . S
H157 C152 0.930 . S
O158 Cu138 1.959 . S
O158 C145 1.251 . S
H159 C142 0.930 . S
H160 C153 0.929 . S
Cu161 N162 1.999 . S
Cu161 O167 1.974 . S
Cu161 N172 1.985 . S
Cu161 O181 1.959 . S
N162 Cu161 1.999 . S
N162 C164 1.263 . S
N162 C166 1.389 . S
N163 C164 1.358 . S
N163 C165 1.400 . S
C164 N162 1.263 . S
C164 N163 1.358 . S
C164 H170 0.930 . S
C165 N163 1.400 . S
C165 C166 1.351 . S
C165 H182 0.930 . S
C166 N162 1.389 . S
C166 C165 1.351 . S
C166 H171 0.930 . S
O167 Cu161 1.974 . S
O167 C177 1.282 . S
C168 O169 1.261 . S
C168 O181 1.251 . S
O169 C168 1.261 . S
H170 C164 0.930 . S
H171 C166 0.930 . S
N172 Cu161 1.985 . S
N172 C174 1.335 . S
N172 C175 1.390 . S
N173 C174 1.345 . S
N173 C176 1.336 . S
C174 N172 1.335 . S
C174 N173 1.345 . S
C174 H179 0.930 . S
C175 N172 1.390 . S
C175 C176 1.346 . S
C175 H180 0.930 . S
C176 N173 1.336 . S
C176 C175 1.346 . S
C176 H183 0.929 . S
C177 O167 1.282 . S
C177 O178 1.216 . S
O178 C177 1.216 . S
H179 C174 0.930 . S
H180 C175 0.930 . S
O181 Cu161 1.959 . S
O181 C168 1.251 . S
H182 C165 0.930 . S
H183 C176 0.929 . S
Cu184 N185 1.999 . S
Cu184 O190 1.974 . S
Cu184 N195 1.985 . S
Cu184 O204 1.959 . S
N185 Cu184 1.999 . S
N185 C187 1.263 . S
N185 C189 1.389 . S
N186 C187 1.358 . S
N186 C188 1.400 . S
C187 N185 1.263 . S
C187 N186 1.358 . S
C187 H193 0.930 . S
C188 N186 1.400 . S
C188 C189 1.351 . S
C188 H205 0.930 . S
C189 N185 1.389 . S
C189 C188 1.351 . S
C189 H194 0.930 . S
O190 Cu184 1.974 . S
O190 C200 1.282 . S
C191 O192 1.261 . S
C191 O204 1.251 . S
O192 C191 1.261 . S
H193 C187 0.930 . S
H194 C189 0.930 . S
N195 Cu184 1.985 . S
N195 C197 1.335 . S
N195 C198 1.390 . S
N196 C197 1.345 . S
N196 C199 1.336 . S
C197 N195 1.335 . S
C197 N196 1.345 . S
C197 H202 0.930 . S
C198 N195 1.390 . S
C198 C199 1.346 . S
C198 H203 0.930 . S
C199 N196 1.336 . S
C199 C198 1.346 . S
C199 H206 0.929 . S
C200 O190 1.282 . S
C200 O201 1.216 . S
O201 C200 1.216 . S
H202 C197 0.930 . S
H203 C198 0.930 . S
O204 Cu184 1.959 . S
O204 C191 1.251 . S
H205 C188 0.930 . S
H206 C199 0.929 . S
Cu207 N208 1.999 . S
Cu207 O213 1.974 . S
Cu207 N218 1.985 . S
Cu207 O227 1.959 . S
N208 Cu207 1.999 . S
N208 C210 1.263 . S
N208 C212 1.389 . S
N209 C210 1.358 . S
N209 C211 1.400 . S
C210 N208 1.263 . S
C210 N209 1.358 . S
C210 H216 0.930 . S
C211 N209 1.400 . S
C211 C212 1.351 . S
C211 H228 0.930 . S
C212 N208 1.389 . S
C212 C211 1.351 . S
C212 H217 0.930 . S
O213 Cu207 1.974 . S
O213 C223 1.282 . S
C214 O215 1.261 . S
C214 O227 1.251 . S
O215 C214 1.261 . S
H216 C210 0.930 . S
H217 C212 0.930 . S
N218 Cu207 1.985 . S
N218 C220 1.335 . S
N218 C221 1.390 . S
N219 C220 1.345 . S
N219 C222 1.336 . S
C220 N218 1.335 . S
C220 N219 1.345 . S
C220 H225 0.930 . S
C221 N218 1.390 . S
C221 C222 1.346 . S
C221 H226 0.930 . S
C222 N219 1.336 . S
C222 C221 1.346 . S
C222 H229 0.929 . S
C223 O213 1.282 . S
C223 O224 1.216 . S
O224 C223 1.216 . S
H225 C220 0.930 . S
H226 C221 0.930 . S
O227 Cu207 1.959 . S
O227 C214 1.251 . S
H228 C211 0.930 . S
H229 C222 0.929 . S
Cu230 N231 1.999 . S
Cu230 O236 1.974 . S
Cu230 N241 1.985 . S
Cu230 O250 1.959 . S
N231 Cu230 1.999 . S
N231 C233 1.263 . S
N231 C235 1.389 . S
N232 C233 1.358 . S
N232 C234 1.400 . S
C233 N231 1.263 . S
C233 N232 1.358 . S
C233 H239 0.930 . S
C234 N232 1.400 . S
C234 C235 1.351 . S
C234 H251 0.930 . S
C235 N231 1.389 . S
C235 C234 1.351 . S
C235 H240 0.930 . S
O236 Cu230 1.974 . S
O236 C246 1.282 . S
C237 O238 1.261 . S
C237 O250 1.251 . S
O238 C237 1.261 . S
H239 C233 0.930 . S
H240 C235 0.930 . S
N241 Cu230 1.985 . S
N241 C243 1.335 . S
N241 C244 1.390 . S
N242 C243 1.345 . S
N242 C245 1.336 . S
C243 N241 1.335 . S
C243 N242 1.345 . S
C243 H248 0.930 . S
C244 N241 1.390 . S
C244 C245 1.346 . S
C244 H249 0.930 . S
C245 N242 1.336 . S
C245 C244 1.346 . S
C245 H252 0.929 . S
C246 O236 1.282 . S
C246 O247 1.216 . S
O247 C246 1.216 . S
H248 C243 0.930 . S
H249 C244 0.930 . S
O250 Cu230 1.959 . S
O250 C237 1.251 . S
H251 C234 0.930 . S
H252 C245 0.929 . S
Cu253 N254 1.999 . S
Cu253 O259 1.974 . S
Cu253 N264 1.985 . S
Cu253 O273 1.959 . S
N254 Cu253 1.999 . S
N254 C256 1.263 . S
N254 C258 1.389 . S
N255 C256 1.358 . S
N255 C257 1.400 . S
C256 N254 1.263 . S
C256 N255 1.358 . S
C256 H262 0.930 . S
C257 N255 1.400 . S
C257 C258 1.351 . S
C257 H274 0.930 . S
C258 N254 1.389 . S
C258 C257 1.351 . S
C258 H263 0.930 . S
O259 Cu253 1.974 . S
O259 C269 1.282 . S
C260 O261 1.261 . S
C260 O273 1.251 . S
O261 C260 1.261 . S
H262 C256 0.930 . S
H263 C258 0.930 . S
N264 Cu253 1.985 . S
N264 C266 1.335 . S
N264 C267 1.390 . S
N265 C266 1.345 . S
N265 C268 1.336 . S
C266 N264 1.335 . S
C266 N265 1.345 . S
C266 H271 0.930 . S
C267 N264 1.390 . S
C267 C268 1.346 . S
C267 H272 0.930 . S
C268 N265 1.336 . S
C268 C267 1.346 . S
C268 H275 0.929 . S
C269 O259 1.282 . S
C269 O270 1.216 . S
O270 C269 1.216 . S
H271 C266 0.930 . S
H272 C267 0.930 . S
O273 Cu253 1.959 . S
O273 C260 1.251 . S
H274 C257 0.930 . S
H275 C268 0.929 . S
Gd276 N307 2.661 . S
Gd276 N313 2.601 . S
Gd276 O320 2.545 . S
Gd276 O321 2.606 . S
Gd276 O323 2.429 . S
Gd276 O324 2.545 . S
Gd276 O325 2.412 . S
Gd276 O327 2.362 . S
Gd276 O328 2.324 . S
Gd276 C335 2.828 . S
Gd277 N286 2.661 . S
Gd277 N290 2.601 . S
Gd277 O321 2.362 . S
Gd277 O322 2.324 . S
Gd277 O326 2.545 . S
Gd277 O327 2.606 . S
Gd277 O329 2.429 . S
Gd277 O330 2.545 . S
Gd277 O331 2.412 . S
Gd277 C344 2.828 . S
C278 C281 1.417 . S
C278 C283 1.431 . S
C278 C284 1.412 . S
C279 C282 1.437 . S
C279 C283 1.317 . S
C279 H298 0.929 . S
C280 C281 1.426 . S
C280 C282 1.413 . S
C280 N290 1.359 . S
C281 C278 1.417 . S
C281 C280 1.426 . S
C281 N286 1.350 . S
C282 C279 1.437 . S
C282 C280 1.413 . S
C282 C292 1.391 . S
C283 C278 1.431 . S
C283 C279 1.317 . S
C283 H294 0.930 . S
C284 C278 1.412 . S
C284 C285 1.355 . S
C284 H296 0.930 . S
C285 C284 1.355 . S
C285 C287 1.402 . S
C285 H297 0.930 . S
N286 Gd277 2.661 . S
N286 C281 1.350 . S
N286 C287 1.307 . S
C287 C285 1.402 . S
C287 N286 1.307 . S
C287 H288 0.930 . S
H288 C287 0.930 . S
C289 N290 1.334 . S
C289 C291 1.394 . S
C289 H293 0.930 . S
N290 Gd277 2.601 . S
N290 C280 1.359 . S
N290 C289 1.334 . S
C291 C289 1.394 . S
C291 C292 1.359 . S
C291 H303 0.930 . S
C292 C282 1.391 . S
C292 C291 1.359 . S
C292 H304 0.929 . S
H293 C289 0.930 . S
H294 C283 0.930 . S
H295 C312 0.930 . S
H296 C284 0.930 . S
H297 C285 0.930 . S
H298 C279 0.929 . S
H299 C317 0.930 . S
H300 C308 0.930 . S
H301 C309 0.930 . S
H302 C333 0.929 . S
H303 C291 0.930 . S
H304 C292 0.929 . S
H305 C334 0.930 . S
H306 C315 0.930 . S
N307 Gd276 2.661 . S
N307 C311 1.350 . S
N307 C312 1.307 . S
C308 H300 0.930 . S
C308 C309 1.355 . S
C308 C310 1.412 . S
C309 H301 0.930 . S
C309 C308 1.355 . S
C309 C312 1.402 . S
C310 C308 1.412 . S
C310 C311 1.417 . S
C310 C334 1.431 . S
C311 N307 1.350 . S
C311 C310 1.417 . S
C311 C314 1.426 . S
C312 H295 0.930 . S
C312 N307 1.307 . S
C312 C309 1.402 . S
N313 Gd276 2.601 . S
N313 C314 1.359 . S
N313 C317 1.334 . S
C314 C311 1.426 . S
C314 N313 1.359 . S
C314 C318 1.413 . S
C315 H306 0.930 . S
C315 C316 1.359 . S
C315 C317 1.394 . S
C316 C315 1.359 . S
C316 C318 1.391 . S
C316 H319 0.929 . S
C317 H299 0.930 . S
C317 N313 1.334 . S
C317 C315 1.394 . S
C318 C314 1.413 . S
C318 C316 1.391 . S
C318 C333 1.437 . S
H319 C316 0.929 . S
O320 Gd276 2.545 . S
O320 C335 1.258 . S
O321 Gd276 2.606 . S
O321 Gd277 2.362 . S
O321 C332 1.284 . S
O322 Gd277 2.324 . S
O322 C342 1.254 . S
O323 Gd276 2.429 . S
O323 C342 1.268 . S
O324 Gd276 2.545 . S
O324 C332 1.250 . S
O325 Gd276 2.412 . S
O325 C335 1.252 . S
O326 Gd277 2.545 . S
O326 C344 1.258 . S
O327 Gd276 2.362 . S
O327 Gd277 2.606 . S
O327 C343 1.284 . S
O328 Gd276 2.324 . S
O328 C351 1.254 . S
O329 Gd277 2.429 . S
O329 C351 1.268 . S
O330 Gd277 2.545 . S
O330 C343 1.250 . S
O331 Gd277 2.412 . S
O331 C344 1.252 . S
C332 O321 1.284 . S
C332 O324 1.250 . S
C333 H302 0.929 . S
C333 C318 1.437 . S
C333 C334 1.317 . S
C334 H305 0.930 . S
C334 C310 1.431 . S
C334 C333 1.317 . S
C335 Gd276 2.828 . S
C335 O320 1.258 . S
C335 O325 1.252 . S
C335 C336 1.497 . S
C336 C335 1.497 . S
C336 C337 1.395 . S
C336 C338 1.380 . S
C337 C336 1.395 . S
C337 C340 1.398 . S
C337 H352 0.930 . S
C338 C336 1.380 . S
C338 C339 1.391 . S
C338 H353 0.930 . S
C339 C338 1.391 . S
C339 C341 1.387 . S
C340 C337 1.398 . S
C340 C341 1.380 . S
C340 H354 0.930 . S
C341 C339 1.387 . S
C341 C340 1.380 . S
C341 H355 0.930 . S
C342 O322 1.254 . S
C342 O323 1.268 . S
C343 O327 1.284 . S
C343 O330 1.250 . S
C344 Gd277 2.828 . S
C344 O326 1.258 . S
C344 O331 1.252 . S
C344 C345 1.497 . S
C345 C344 1.497 . S
C345 C346 1.395 . S
C345 C347 1.380 . S
C346 C345 1.395 . S
C346 C349 1.398 . S
C346 H356 0.930 . S
C347 C345 1.380 . S
C347 C348 1.391 . S
C347 H357 0.930 . S
C348 C347 1.391 . S
C348 C350 1.387 . S
C349 C346 1.398 . S
C349 C350 1.380 . S
C349 H358 0.930 . S
C350 C348 1.387 . S
C350 C349 1.380 . S
C350 H359 0.930 . S
C351 O328 1.254 . S
C351 O329 1.268 . S
H352 C337 0.930 . S
H353 C338 0.930 . S
H354 C340 0.930 . S
H355 C341 0.930 . S
H356 C346 0.930 . S
H357 C347 0.930 . S
H358 C349 0.930 . S
H359 C350 0.930 . S
Gd360 N391 2.661 . S
Gd360 N397 2.601 . S
Gd360 O404 2.545 . S
Gd360 O405 2.606 . S
Gd360 O407 2.429 . S
Gd360 O408 2.545 . S
Gd360 O409 2.412 . S
Gd360 O411 2.362 . S
Gd360 O412 2.324 . S
Gd360 C419 2.828 . S
Gd361 N370 2.661 . S
Gd361 N374 2.601 . S
Gd361 O405 2.362 . S
Gd361 O406 2.324 . S
Gd361 O410 2.545 . S
Gd361 O411 2.606 . S
Gd361 O413 2.429 . S
Gd361 O414 2.545 . S
Gd361 O415 2.412 . S
Gd361 C428 2.828 . S
C362 C365 1.417 . S
C362 C367 1.431 . S
C362 C368 1.412 . S
C363 C366 1.437 . S
C363 C367 1.317 . S
C363 H382 0.929 . S
C364 C365 1.426 . S
C364 C366 1.413 . S
C364 N374 1.359 . S
C365 C362 1.417 . S
C365 C364 1.426 . S
C365 N370 1.350 . S
C366 C363 1.437 . S
C366 C364 1.413 . S
C366 C376 1.391 . S
C367 C362 1.431 . S
C367 C363 1.317 . S
C367 H378 0.930 . S
C368 C362 1.412 . S
C368 C369 1.355 . S
C368 H380 0.930 . S
C369 C368 1.355 . S
C369 C371 1.402 . S
C369 H381 0.930 . S
N370 Gd361 2.661 . S
N370 C365 1.350 . S
N370 C371 1.307 . S
C371 C369 1.402 . S
C371 N370 1.307 . S
C371 H372 0.930 . S
H372 C371 0.930 . S
C373 N374 1.334 . S
C373 C375 1.394 . S
C373 H377 0.930 . S
N374 Gd361 2.601 . S
N374 C364 1.359 . S
N374 C373 1.334 . S
C375 C373 1.394 . S
C375 C376 1.359 . S
C375 H387 0.930 . S
C376 C366 1.391 . S
C376 C375 1.359 . S
C376 H388 0.929 . S
H377 C373 0.930 . S
H378 C367 0.930 . S
H379 C396 0.930 . S
H380 C368 0.930 . S
H381 C369 0.930 . S
H382 C363 0.929 . S
H383 C401 0.930 . S
H384 C392 0.930 . S
H385 C393 0.930 . S
H386 C417 0.929 . S
H387 C375 0.930 . S
H388 C376 0.929 . S
H389 C418 0.930 . S
H390 C399 0.930 . S
N391 Gd360 2.661 . S
N391 C395 1.350 . S
N391 C396 1.307 . S
C392 H384 0.930 . S
C392 C393 1.355 . S
C392 C394 1.412 . S
C393 H385 0.930 . S
C393 C392 1.355 . S
C393 C396 1.402 . S
C394 C392 1.412 . S
C394 C395 1.417 . S
C394 C418 1.431 . S
C395 N391 1.350 . S
C395 C394 1.417 . S
C395 C398 1.426 . S
C396 H379 0.930 . S
C396 N391 1.307 . S
C396 C393 1.402 . S
N397 Gd360 2.601 . S
N397 C398 1.359 . S
N397 C401 1.334 . S
C398 C395 1.426 . S
C398 N397 1.359 . S
C398 C402 1.413 . S
C399 H390 0.930 . S
C399 C400 1.359 . S
C399 C401 1.394 . S
C400 C399 1.359 . S
C400 C402 1.391 . S
C400 H403 0.929 . S
C401 H383 0.930 . S
C401 N397 1.334 . S
C401 C399 1.394 . S
C402 C398 1.413 . S
C402 C400 1.391 . S
C402 C417 1.437 . S
H403 C400 0.929 . S
O404 Gd360 2.545 . S
O404 C419 1.258 . S
O405 Gd360 2.606 . S
O405 Gd361 2.362 . S
O405 C416 1.284 . S
O406 Gd361 2.324 . S
O406 C426 1.254 . S
O407 Gd360 2.429 . S
O407 C426 1.268 . S
O408 Gd360 2.545 . S
O408 C416 1.250 . S
O409 Gd360 2.412 . S
O409 C419 1.252 . S
O410 Gd361 2.545 . S
O410 C428 1.258 . S
O411 Gd360 2.362 . S
O411 Gd361 2.606 . S
O411 C427 1.284 . S
O412 Gd360 2.324 . S
O412 C435 1.254 . S
O413 Gd361 2.429 . S
O413 C435 1.268 . S
O414 Gd361 2.545 . S
O414 C427 1.250 . S
O415 Gd361 2.412 . S
O415 C428 1.252 . S
C416 O405 1.284 . S
C416 O408 1.250 . S
C417 H386 0.929 . S
C417 C402 1.437 . S
C417 C418 1.317 . S
C418 H389 0.930 . S
C418 C394 1.431 . S
C418 C417 1.317 . S
C419 Gd360 2.828 . S
C419 O404 1.258 . S
C419 O409 1.252 . S
C419 C420 1.497 . S
C420 C419 1.497 . S
C420 C421 1.395 . S
C420 C422 1.380 . S
C421 C420 1.395 . S
C421 C424 1.398 . S
C421 H436 0.930 . S
C422 C420 1.380 . S
C422 C423 1.391 . S
C422 H437 0.930 . S
C423 C422 1.391 . S
C423 C425 1.387 . S
C424 C421 1.398 . S
C424 C425 1.380 . S
C424 H438 0.930 . S
C425 C423 1.387 . S
C425 C424 1.380 . S
C425 H439 0.930 . S
C426 O406 1.254 . S
C426 O407 1.268 . S
C427 O411 1.284 . S
C427 O414 1.250 . S
C428 Gd361 2.828 . S
C428 O410 1.258 . S
C428 O415 1.252 . S
C428 C429 1.497 . S
C429 C428 1.497 . S
C429 C430 1.395 . S
C429 C431 1.380 . S
C430 C429 1.395 . S
C430 C433 1.398 . S
C430 H440 0.930 . S
C431 C429 1.380 . S
C431 C432 1.391 . S
C431 H441 0.930 . S
C432 C431 1.391 . S
C432 C434 1.387 . S
C433 C430 1.398 . S
C433 C434 1.380 . S
C433 H442 0.930 . S
C434 C432 1.387 . S
C434 C433 1.380 . S
C434 H443 0.930 . S
C435 O412 1.254 . S
C435 O413 1.268 . S
H436 C421 0.930 . S
H437 C422 0.930 . S
H438 C424 0.930 . S
H439 C425 0.930 . S
H440 C430 0.930 . S
H441 C431 0.930 . S
H442 C433 0.930 . S
H443 C434 0.930 . S
Gd444 N475 2.661 . S
Gd444 N481 2.601 . S
Gd444 O488 2.545 . S
Gd444 O489 2.606 . S
Gd444 O491 2.429 . S
Gd444 O492 2.545 . S
Gd444 O493 2.412 . S
Gd444 O495 2.362 . S
Gd444 O496 2.324 . S
Gd444 C503 2.828 . S
Gd445 N454 2.661 . S
Gd445 N458 2.601 . S
Gd445 O489 2.362 . S
Gd445 O490 2.324 . S
Gd445 O494 2.545 . S
Gd445 O495 2.606 . S
Gd445 O497 2.429 . S
Gd445 O498 2.545 . S
Gd445 O499 2.412 . S
Gd445 C512 2.828 . S
C446 C449 1.417 . S
C446 C451 1.431 . S
C446 C452 1.412 . S
C447 C450 1.437 . S
C447 C451 1.317 . S
C447 H466 0.929 . S
C448 C449 1.426 . S
C448 C450 1.413 . S
C448 N458 1.359 . S
C449 C446 1.417 . S
C449 C448 1.426 . S
C449 N454 1.350 . S
C450 C447 1.437 . S
C450 C448 1.413 . S
C450 C460 1.391 . S
C451 C446 1.431 . S
C451 C447 1.317 . S
C451 H462 0.930 . S
C452 C446 1.412 . S
C452 C453 1.355 . S
C452 H464 0.930 . S
C453 C452 1.355 . S
C453 C455 1.402 . S
C453 H465 0.930 . S
N454 Gd445 2.661 . S
N454 C449 1.350 . S
N454 C455 1.307 . S
C455 C453 1.402 . S
C455 N454 1.307 . S
C455 H456 0.930 . S
H456 C455 0.930 . S
C457 N458 1.334 . S
C457 C459 1.394 . S
C457 H461 0.930 . S
N458 Gd445 2.601 . S
N458 C448 1.359 . S
N458 C457 1.334 . S
C459 C457 1.394 . S
C459 C460 1.359 . S
C459 H471 0.930 . S
C460 C450 1.391 . S
C460 C459 1.359 . S
C460 H472 0.929 . S
H461 C457 0.930 . S
H462 C451 0.930 . S
H463 C480 0.930 . S
H464 C452 0.930 . S
H465 C453 0.930 . S
H466 C447 0.929 . S
H467 C485 0.930 . S
H468 C476 0.930 . S
H469 C477 0.930 . S
H470 C501 0.929 . S
H471 C459 0.930 . S
H472 C460 0.929 . S
H473 C502 0.930 . S
H474 C483 0.930 . S
N475 Gd444 2.661 . S
N475 C479 1.350 . S
N475 C480 1.307 . S
C476 H468 0.930 . S
C476 C477 1.355 . S
C476 C478 1.412 . S
C477 H469 0.930 . S
C477 C476 1.355 . S
C477 C480 1.402 . S
C478 C476 1.412 . S
C478 C479 1.417 . S
C478 C502 1.431 . S
C479 N475 1.350 . S
C479 C478 1.417 . S
C479 C482 1.426 . S
C480 H463 0.930 . S
C480 N475 1.307 . S
C480 C477 1.402 . S
N481 Gd444 2.601 . S
N481 C482 1.359 . S
N481 C485 1.334 . S
C482 C479 1.426 . S
C482 N481 1.359 . S
C482 C486 1.413 . S
C483 H474 0.930 . S
C483 C484 1.359 . S
C483 C485 1.394 . S
C484 C483 1.359 . S
C484 C486 1.391 . S
C484 H487 0.929 . S
C485 H467 0.930 . S
C485 N481 1.334 . S
C485 C483 1.394 . S
C486 C482 1.413 . S
C486 C484 1.391 . S
C486 C501 1.437 . S
H487 C484 0.929 . S
O488 Gd444 2.545 . S
O488 C503 1.258 . S
O489 Gd444 2.606 . S
O489 Gd445 2.362 . S
O489 C500 1.284 . S
O490 Gd445 2.324 . S
O490 C510 1.254 . S
O491 Gd444 2.429 . S
O491 C510 1.268 . S
O492 Gd444 2.545 . S
O492 C500 1.250 . S
O493 Gd444 2.412 . S
O493 C503 1.252 . S
O494 Gd445 2.545 . S
O494 C512 1.258 . S
O495 Gd444 2.362 . S
O495 Gd445 2.606 . S
O495 C511 1.284 . S
O496 Gd444 2.324 . S
O496 C519 1.254 . S
O497 Gd445 2.429 . S
O497 C519 1.268 . S
O498 Gd445 2.545 . S
O498 C511 1.250 . S
O499 Gd445 2.412 . S
O499 C512 1.252 . S
C500 O489 1.284 . S
C500 O492 1.250 . S
C501 H470 0.929 . S
C501 C486 1.437 . S
C501 C502 1.317 . S
C502 H473 0.930 . S
C502 C478 1.431 . S
C502 C501 1.317 . S
C503 Gd444 2.828 . S
C503 O488 1.258 . S
C503 O493 1.252 . S
C503 C504 1.497 . S
C504 C503 1.497 . S
C504 C505 1.395 . S
C504 C506 1.380 . S
C505 C504 1.395 . S
C505 C508 1.398 . S
C505 H520 0.930 . S
C506 C504 1.380 . S
C506 C507 1.391 . S
C506 H521 0.930 . S
C507 C506 1.391 . S
C507 C509 1.387 . S
C508 C505 1.398 . S
C508 C509 1.380 . S
C508 H522 0.930 . S
C509 C507 1.387 . S
C509 C508 1.380 . S
C509 H523 0.930 . S
C510 O490 1.254 . S
C510 O491 1.268 . S
C511 O495 1.284 . S
C511 O498 1.250 . S
C512 Gd445 2.828 . S
C512 O494 1.258 . S
C512 O499 1.252 . S
C512 C513 1.497 . S
C513 C512 1.497 . S
C513 C514 1.395 . S
C513 C515 1.380 . S
C514 C513 1.395 . S
C514 C517 1.398 . S
C514 H524 0.930 . S
C515 C513 1.380 . S
C515 C516 1.391 . S
C515 H525 0.930 . S
C516 C515 1.391 . S
C516 C518 1.387 . S
C517 C514 1.398 . S
C517 C518 1.380 . S
C517 H526 0.930 . S
C518 C516 1.387 . S
C518 C517 1.380 . S
C518 H527 0.930 . S
C519 O496 1.254 . S
C519 O497 1.268 . S
H520 C505 0.930 . S
H521 C506 0.930 . S
H522 C508 0.930 . S
H523 C509 0.930 . S
H524 C514 0.930 . S
H525 C515 0.930 . S
H526 C517 0.930 . S
H527 C518 0.930 . S
Gd528 N559 2.661 . S
Gd528 N565 2.601 . S
Gd528 O572 2.545 . S
Gd528 O573 2.606 . S
Gd528 O575 2.429 . S
Gd528 O576 2.545 . S
Gd528 O577 2.412 . S
Gd528 O579 2.362 . S
Gd528 O580 2.324 . S
Gd528 C587 2.828 . S
Gd529 N538 2.661 . S
Gd529 N542 2.601 . S
Gd529 O573 2.362 . S
Gd529 O574 2.324 . S
Gd529 O578 2.545 . S
Gd529 O579 2.606 . S
Gd529 O581 2.429 . S
Gd529 O582 2.545 . S
Gd529 O583 2.412 . S
Gd529 C596 2.828 . S
C530 C533 1.417 . S
C530 C535 1.431 . S
C530 C536 1.412 . S
C531 C534 1.437 . S
C531 C535 1.317 . S
C531 H550 0.929 . S
C532 C533 1.426 . S
C532 C534 1.413 . S
C532 N542 1.359 . S
C533 C530 1.417 . S
C533 C532 1.426 . S
C533 N538 1.350 . S
C534 C531 1.437 . S
C534 C532 1.413 . S
C534 C544 1.391 . S
C535 C530 1.431 . S
C535 C531 1.317 . S
C535 H546 0.930 . S
C536 C530 1.412 . S
C536 C537 1.355 . S
C536 H548 0.930 . S
C537 C536 1.355 . S
C537 C539 1.402 . S
C537 H549 0.930 . S
N538 Gd529 2.661 . S
N538 C533 1.350 . S
N538 C539 1.307 . S
C539 C537 1.402 . S
C539 N538 1.307 . S
C539 H540 0.930 . S
H540 C539 0.930 . S
C541 N542 1.334 . S
C541 C543 1.394 . S
C541 H545 0.930 . S
N542 Gd529 2.601 . S
N542 C532 1.359 . S
N542 C541 1.334 . S
C543 C541 1.394 . S
C543 C544 1.359 . S
C543 H555 0.930 . S
C544 C534 1.391 . S
C544 C543 1.359 . S
C544 H556 0.929 . S
H545 C541 0.930 . S
H546 C535 0.930 . S
H547 C564 0.930 . S
H548 C536 0.930 . S
H549 C537 0.930 . S
H550 C531 0.929 . S
H551 C569 0.930 . S
H552 C560 0.930 . S
H553 C561 0.930 . S
H554 C585 0.929 . S
H555 C543 0.930 . S
H556 C544 0.929 . S
H557 C586 0.930 . S
H558 C567 0.930 . S
N559 Gd528 2.661 . S
N559 C563 1.350 . S
N559 C564 1.307 . S
C560 H552 0.930 . S
C560 C561 1.355 . S
C560 C562 1.412 . S
C561 H553 0.930 . S
C561 C560 1.355 . S
C561 C564 1.402 . S
C562 C560 1.412 . S
C562 C563 1.417 . S
C562 C586 1.431 . S
C563 N559 1.350 . S
C563 C562 1.417 . S
C563 C566 1.426 . S
C564 H547 0.930 . S
C564 N559 1.307 . S
C564 C561 1.402 . S
N565 Gd528 2.601 . S
N565 C566 1.359 . S
N565 C569 1.334 . S
C566 C563 1.426 . S
C566 N565 1.359 . S
C566 C570 1.413 . S
C567 H558 0.930 . S
C567 C568 1.359 . S
C567 C569 1.394 . S
C568 C567 1.359 . S
C568 C570 1.391 . S
C568 H571 0.929 . S
C569 H551 0.930 . S
C569 N565 1.334 . S
C569 C567 1.394 . S
C570 C566 1.413 . S
C570 C568 1.391 . S
C570 C585 1.437 . S
H571 C568 0.929 . S
O572 Gd528 2.545 . S
O572 C587 1.258 . S
O573 Gd528 2.606 . S
O573 Gd529 2.362 . S
O573 C584 1.284 . S
O574 Gd529 2.324 . S
O574 C594 1.254 . S
O575 Gd528 2.429 . S
O575 C594 1.268 . S
O576 Gd528 2.545 . S
O576 C584 1.250 . S
O577 Gd528 2.412 . S
O577 C587 1.252 . S
O578 Gd529 2.545 . S
O578 C596 1.258 . S
O579 Gd528 2.362 . S
O579 Gd529 2.606 . S
O579 C595 1.284 . S
O580 Gd528 2.324 . S
O580 C603 1.254 . S
O581 Gd529 2.429 . S
O581 C603 1.268 . S
O582 Gd529 2.545 . S
O582 C595 1.250 . S
O583 Gd529 2.412 . S
O583 C596 1.252 . S
C584 O573 1.284 . S
C584 O576 1.250 . S
C585 H554 0.929 . S
C585 C570 1.437 . S
C585 C586 1.317 . S
C586 H557 0.930 . S
C586 C562 1.431 . S
C586 C585 1.317 . S
C587 Gd528 2.828 . S
C587 O572 1.258 . S
C587 O577 1.252 . S
C587 C588 1.497 . S
C588 C587 1.497 . S
C588 C589 1.395 . S
C588 C590 1.380 . S
C589 C588 1.395 . S
C589 C592 1.398 . S
C589 H604 0.930 . S
C590 C588 1.380 . S
C590 C591 1.391 . S
C590 H605 0.930 . S
C591 C590 1.391 . S
C591 C593 1.387 . S
C592 C589 1.398 . S
C592 C593 1.380 . S
C592 H606 0.930 . S
C593 C591 1.387 . S
C593 C592 1.380 . S
C593 H607 0.930 . S
C594 O574 1.254 . S
C594 O575 1.268 . S
C595 O579 1.284 . S
C595 O582 1.250 . S
C596 Gd529 2.828 . S
C596 O578 1.258 . S
C596 O583 1.252 . S
C596 C597 1.497 . S
C597 C596 1.497 . S
C597 C598 1.395 . S
C597 C599 1.380 . S
C598 C597 1.395 . S
C598 C601 1.398 . S
C598 H608 0.930 . S
C599 C597 1.380 . S
C599 C600 1.391 . S
C599 H609 0.930 . S
C600 C599 1.391 . S
C600 C602 1.387 . S
C601 C598 1.398 . S
C601 C602 1.380 . S
C601 H610 0.930 . S
C602 C600 1.387 . S
C602 C601 1.380 . S
C602 H611 0.930 . S
C603 O580 1.254 . S
C603 O581 1.268 . S
H604 C589 0.930 . S
H605 C590 0.930 . S
H606 C592 0.930 . S
H607 C593 0.930 . S
H608 C598 0.930 . S
H609 C599 0.930 . S
H610 C601 0.930 . S
H611 C602 0.930 . S
Gd612 N643 2.661 . S
Gd612 N649 2.601 . S
Gd612 O656 2.545 . S
Gd612 O657 2.606 . S
Gd612 O659 2.429 . S
Gd612 O660 2.545 . S
Gd612 O661 2.412 . S
Gd612 O663 2.362 . S
Gd612 O664 2.324 . S
Gd612 C671 2.828 . S
Gd613 N622 2.661 . S
Gd613 N626 2.601 . S
Gd613 O657 2.362 . S
Gd613 O658 2.324 . S
Gd613 O662 2.545 . S
Gd613 O663 2.606 . S
Gd613 O665 2.429 . S
Gd613 O666 2.545 . S
Gd613 O667 2.412 . S
Gd613 C680 2.828 . S
C614 C617 1.417 . S
C614 C619 1.431 . S
C614 C620 1.412 . S
C615 C618 1.437 . S
C615 C619 1.317 . S
C615 H634 0.929 . S
C616 C617 1.426 . S
C616 C618 1.413 . S
C616 N626 1.359 . S
C617 C614 1.417 . S
C617 C616 1.426 . S
C617 N622 1.350 . S
C618 C615 1.437 . S
C618 C616 1.413 . S
C618 C628 1.391 . S
C619 C614 1.431 . S
C619 C615 1.317 . S
C619 H630 0.930 . S
C620 C614 1.412 . S
C620 C621 1.355 . S
C620 H632 0.930 . S
C621 C620 1.355 . S
C621 C623 1.402 . S
C621 H633 0.930 . S
N622 Gd613 2.661 . S
N622 C617 1.350 . S
N622 C623 1.307 . S
C623 C621 1.402 . S
C623 N622 1.307 . S
C623 H624 0.930 . S
H624 C623 0.930 . S
C625 N626 1.334 . S
C625 C627 1.394 . S
C625 H629 0.930 . S
N626 Gd613 2.601 . S
N626 C616 1.359 . S
N626 C625 1.334 . S
C627 C625 1.394 . S
C627 C628 1.359 . S
C627 H639 0.930 . S
C628 C618 1.391 . S
C628 C627 1.359 . S
C628 H640 0.929 . S
H629 C625 0.930 . S
H630 C619 0.930 . S
H631 C648 0.930 . S
H632 C620 0.930 . S
H633 C621 0.930 . S
H634 C615 0.929 . S
H635 C653 0.930 . S
H636 C644 0.930 . S
H637 C645 0.930 . S
H638 C669 0.929 . S
H639 C627 0.930 . S
H640 C628 0.929 . S
H641 C670 0.930 . S
H642 C651 0.930 . S
N643 Gd612 2.661 . S
N643 C647 1.350 . S
N643 C648 1.307 . S
C644 H636 0.930 . S
C644 C645 1.355 . S
C644 C646 1.412 . S
C645 H637 0.930 . S
C645 C644 1.355 . S
C645 C648 1.402 . S
C646 C644 1.412 . S
C646 C647 1.417 . S
C646 C670 1.431 . S
C647 N643 1.350 . S
C647 C646 1.417 . S
C647 C650 1.426 . S
C648 H631 0.930 . S
C648 N643 1.307 . S
C648 C645 1.402 . S
N649 Gd612 2.601 . S
N649 C650 1.359 . S
N649 C653 1.334 . S
C650 C647 1.426 . S
C650 N649 1.359 . S
C650 C654 1.413 . S
C651 H642 0.930 . S
C651 C652 1.359 . S
C651 C653 1.394 . S
C652 C651 1.359 . S
C652 C654 1.391 . S
C652 H655 0.929 . S
C653 H635 0.930 . S
C653 N649 1.334 . S
C653 C651 1.394 . S
C654 C650 1.413 . S
C654 C652 1.391 . S
C654 C669 1.437 . S
H655 C652 0.929 . S
O656 Gd612 2.545 . S
O656 C671 1.258 . S
O657 Gd612 2.606 . S
O657 Gd613 2.362 . S
O657 C668 1.284 . S
O658 Gd613 2.324 . S
O658 C678 1.254 . S
O659 Gd612 2.429 . S
O659 C678 1.268 . S
O660 Gd612 2.545 . S
O660 C668 1.250 . S
O661 Gd612 2.412 . S
O661 C671 1.252 . S
O662 Gd613 2.545 . S
O662 C680 1.258 . S
O663 Gd612 2.362 . S
O663 Gd613 2.606 . S
O663 C679 1.284 . S
O664 Gd612 2.324 . S
O664 C687 1.254 . S
O665 Gd613 2.429 . S
O665 C687 1.268 . S
O666 Gd613 2.545 . S
O666 C679 1.250 . S
O667 Gd613 2.412 . S
O667 C680 1.252 . S
C668 O657 1.284 . S
C668 O660 1.250 . S
C669 H638 0.929 . S
C669 C654 1.437 . S
C669 C670 1.317 . S
C670 H641 0.930 . S
C670 C646 1.431 . S
C670 C669 1.317 . S
C671 Gd612 2.828 . S
C671 O656 1.258 . S
C671 O661 1.252 . S
C671 C672 1.497 . S
C672 C671 1.497 . S
C672 C673 1.395 . S
C672 C674 1.380 . S
C673 C672 1.395 . S
C673 C676 1.398 . S
C673 H688 0.930 . S
C674 C672 1.380 . S
C674 C675 1.391 . S
C674 H689 0.930 . S
C675 C674 1.391 . S
C675 C677 1.387 . S
C676 C673 1.398 . S
C676 C677 1.380 . S
C676 H690 0.930 . S
C677 C675 1.387 . S
C677 C676 1.380 . S
C677 H691 0.930 . S
C678 O658 1.254 . S
C678 O659 1.268 . S
C679 O663 1.284 . S
C679 O666 1.250 . S
C680 Gd613 2.828 . S
C680 O662 1.258 . S
C680 O667 1.252 . S
C680 C681 1.497 . S
C681 C680 1.497 . S
C681 C682 1.395 . S
C681 C683 1.380 . S
C682 C681 1.395 . S
C682 C685 1.398 . S
C682 H692 0.930 . S
C683 C681 1.380 . S
C683 C684 1.391 . S
C683 H693 0.930 . S
C684 C683 1.391 . S
C684 C686 1.387 . S
C685 C682 1.398 . S
C685 C686 1.380 . S
C685 H694 0.930 . S
C686 C684 1.387 . S
C686 C685 1.380 . S
C686 H695 0.930 . S
C687 O664 1.254 . S
C687 O665 1.268 . S
H688 C673 0.930 . S
H689 C674 0.930 . S
H690 C676 0.930 . S
H691 C677 0.930 . S
H692 C682 0.930 . S
H693 C683 0.930 . S
H694 C685 0.930 . S
H695 C686 0.930 . S
Gd696 N727 2.661 . S
Gd696 N733 2.601 . S
Gd696 O740 2.545 . S
Gd696 O741 2.606 . S
Gd696 O743 2.429 . S
Gd696 O744 2.545 . S
Gd696 O745 2.412 . S
Gd696 O747 2.362 . S
Gd696 O748 2.324 . S
Gd696 C755 2.828 . S
Gd697 N706 2.661 . S
Gd697 N710 2.601 . S
Gd697 O741 2.362 . S
Gd697 O742 2.324 . S
Gd697 O746 2.545 . S
Gd697 O747 2.606 . S
Gd697 O749 2.429 . S
Gd697 O750 2.545 . S
Gd697 O751 2.412 . S
Gd697 C764 2.828 . S
C698 C701 1.417 . S
C698 C703 1.431 . S
C698 C704 1.412 . S
C699 C702 1.437 . S
C699 C703 1.317 . S
C699 H718 0.929 . S
C700 C701 1.426 . S
C700 C702 1.413 . S
C700 N710 1.359 . S
C701 C698 1.417 . S
C701 C700 1.426 . S
C701 N706 1.350 . S
C702 C699 1.437 . S
C702 C700 1.413 . S
C702 C712 1.391 . S
C703 C698 1.431 . S
C703 C699 1.317 . S
C703 H714 0.930 . S
C704 C698 1.412 . S
C704 C705 1.355 . S
C704 H716 0.930 . S
C705 C704 1.355 . S
C705 C707 1.402 . S
C705 H717 0.930 . S
N706 Gd697 2.661 . S
N706 C701 1.350 . S
N706 C707 1.307 . S
C707 C705 1.402 . S
C707 N706 1.307 . S
C707 H708 0.930 . S
H708 C707 0.930 . S
C709 N710 1.334 . S
C709 C711 1.394 . S
C709 H713 0.930 . S
N710 Gd697 2.601 . S
N710 C700 1.359 . S
N710 C709 1.334 . S
C711 C709 1.394 . S
C711 C712 1.359 . S
C711 H723 0.930 . S
C712 C702 1.391 . S
C712 C711 1.359 . S
C712 H724 0.929 . S
H713 C709 0.930 . S
H714 C703 0.930 . S
H715 C732 0.930 . S
H716 C704 0.930 . S
H717 C705 0.930 . S
H718 C699 0.929 . S
H719 C737 0.930 . S
H720 C728 0.930 . S
H721 C729 0.930 . S
H722 C753 0.929 . S
H723 C711 0.930 . S
H724 C712 0.929 . S
H725 C754 0.930 . S
H726 C735 0.930 . S
N727 Gd696 2.661 . S
N727 C731 1.350 . S
N727 C732 1.307 . S
C728 H720 0.930 . S
C728 C729 1.355 . S
C728 C730 1.412 . S
C729 H721 0.930 . S
C729 C728 1.355 . S
C729 C732 1.402 . S
C730 C728 1.412 . S
C730 C731 1.417 . S
C730 C754 1.431 . S
C731 N727 1.350 . S
C731 C730 1.417 . S
C731 C734 1.426 . S
C732 H715 0.930 . S
C732 N727 1.307 . S
C732 C729 1.402 . S
N733 Gd696 2.601 . S
N733 C734 1.359 . S
N733 C737 1.334 . S
C734 C731 1.426 . S
C734 N733 1.359 . S
C734 C738 1.413 . S
C735 H726 0.930 . S
C735 C736 1.359 . S
C735 C737 1.394 . S
C736 C735 1.359 . S
C736 C738 1.391 . S
C736 H739 0.929 . S
C737 H719 0.930 . S
C737 N733 1.334 . S
C737 C735 1.394 . S
C738 C734 1.413 . S
C738 C736 1.391 . S
C738 C753 1.437 . S
H739 C736 0.929 . S
O740 Gd696 2.545 . S
O740 C755 1.258 . S
O741 Gd696 2.606 . S
O741 Gd697 2.362 . S
O741 C752 1.284 . S
O742 Gd697 2.324 . S
O742 C762 1.254 . S
O743 Gd696 2.429 . S
O743 C762 1.268 . S
O744 Gd696 2.545 . S
O744 C752 1.250 . S
O745 Gd696 2.412 . S
O745 C755 1.252 . S
O746 Gd697 2.545 . S
O746 C764 1.258 . S
O747 Gd696 2.362 . S
O747 Gd697 2.606 . S
O747 C763 1.284 . S
O748 Gd696 2.324 . S
O748 C771 1.254 . S
O749 Gd697 2.429 . S
O749 C771 1.268 . S
O750 Gd697 2.545 . S
O750 C763 1.250 . S
O751 Gd697 2.412 . S
O751 C764 1.252 . S
C752 O741 1.284 . S
C752 O744 1.250 . S
C753 H722 0.929 . S
C753 C738 1.437 . S
C753 C754 1.317 . S
C754 H725 0.930 . S
C754 C730 1.431 . S
C754 C753 1.317 . S
C755 Gd696 2.828 . S
C755 O740 1.258 . S
C755 O745 1.252 . S
C755 C756 1.497 . S
C756 C755 1.497 . S
C756 C757 1.395 . S
C756 C758 1.380 . S
C757 C756 1.395 . S
C757 C760 1.398 . S
C757 H772 0.930 . S
C758 C756 1.380 . S
C758 C759 1.391 . S
C758 H773 0.930 . S
C759 C758 1.391 . S
C759 C761 1.387 . S
C760 C757 1.398 . S
C760 C761 1.380 . S
C760 H774 0.930 . S
C761 C759 1.387 . S
C761 C760 1.380 . S
C761 H775 0.930 . S
C762 O742 1.254 . S
C762 O743 1.268 . S
C763 O747 1.284 . S
C763 O750 1.250 . S
C764 Gd697 2.828 . S
C764 O746 1.258 . S
C764 O751 1.252 . S
C764 C765 1.497 . S
C765 C764 1.497 . S
C765 C766 1.395 . S
C765 C767 1.380 . S
C766 C765 1.395 . S
C766 C769 1.398 . S
C766 H776 0.930 . S
C767 C765 1.380 . S
C767 C768 1.391 . S
C767 H777 0.930 . S
C768 C767 1.391 . S
C768 C770 1.387 . S
C769 C766 1.398 . S
C769 C770 1.380 . S
C769 H778 0.930 . S
C770 C768 1.387 . S
C770 C769 1.380 . S
C770 H779 0.930 . S
C771 O748 1.254 . S
C771 O749 1.268 . S
H772 C757 0.930 . S
H773 C758 0.930 . S
H774 C760 0.930 . S
H775 C761 0.930 . S
H776 C766 0.930 . S
H777 C767 0.930 . S
H778 C769 0.930 . S
H779 C770 0.930 . S
Gd780 N811 2.661 . S
Gd780 N817 2.601 . S
Gd780 O824 2.545 . S
Gd780 O825 2.606 . S
Gd780 O827 2.429 . S
Gd780 O828 2.545 . S
Gd780 O829 2.412 . S
Gd780 O831 2.362 . S
Gd780 O832 2.324 . S
Gd780 C839 2.828 . S
Gd781 N790 2.661 . S
Gd781 N794 2.601 . S
Gd781 O825 2.362 . S
Gd781 O826 2.324 . S
Gd781 O830 2.545 . S
Gd781 O831 2.606 . S
Gd781 O833 2.429 . S
Gd781 O834 2.545 . S
Gd781 O835 2.412 . S
Gd781 C848 2.828 . S
C782 C785 1.417 . S
C782 C787 1.431 . S
C782 C788 1.412 . S
C783 C786 1.437 . S
C783 C787 1.317 . S
C783 H802 0.929 . S
C784 C785 1.426 . S
C784 C786 1.413 . S
C784 N794 1.359 . S
C785 C782 1.417 . S
C785 C784 1.426 . S
C785 N790 1.350 . S
C786 C783 1.437 . S
C786 C784 1.413 . S
C786 C796 1.391 . S
C787 C782 1.431 . S
C787 C783 1.317 . S
C787 H798 0.930 . S
C788 C782 1.412 . S
C788 C789 1.355 . S
C788 H800 0.930 . S
C789 C788 1.355 . S
C789 C791 1.402 . S
C789 H801 0.930 . S
N790 Gd781 2.661 . S
N790 C785 1.350 . S
N790 C791 1.307 . S
C791 C789 1.402 . S
C791 N790 1.307 . S
C791 H792 0.930 . S
H792 C791 0.930 . S
C793 N794 1.334 . S
C793 C795 1.394 . S
C793 H797 0.930 . S
N794 Gd781 2.601 . S
N794 C784 1.359 . S
N794 C793 1.334 . S
C795 C793 1.394 . S
C795 C796 1.359 . S
C795 H807 0.930 . S
C796 C786 1.391 . S
C796 C795 1.359 . S
C796 H808 0.929 . S
H797 C793 0.930 . S
H798 C787 0.930 . S
H799 C816 0.930 . S
H800 C788 0.930 . S
H801 C789 0.930 . S
H802 C783 0.929 . S
H803 C821 0.930 . S
H804 C812 0.930 . S
H805 C813 0.930 . S
H806 C837 0.929 . S
H807 C795 0.930 . S
H808 C796 0.929 . S
H809 C838 0.930 . S
H810 C819 0.930 . S
N811 Gd780 2.661 . S
N811 C815 1.350 . S
N811 C816 1.307 . S
C812 H804 0.930 . S
C812 C813 1.355 . S
C812 C814 1.412 . S
C813 H805 0.930 . S
C813 C812 1.355 . S
C813 C816 1.402 . S
C814 C812 1.412 . S
C814 C815 1.417 . S
C814 C838 1.431 . S
C815 N811 1.350 . S
C815 C814 1.417 . S
C815 C818 1.426 . S
C816 H799 0.930 . S
C816 N811 1.307 . S
C816 C813 1.402 . S
N817 Gd780 2.601 . S
N817 C818 1.359 . S
N817 C821 1.334 . S
C818 C815 1.426 . S
C818 N817 1.359 . S
C818 C822 1.413 . S
C819 H810 0.930 . S
C819 C820 1.359 . S
C819 C821 1.394 . S
C820 C819 1.359 . S
C820 C822 1.391 . S
C820 H823 0.929 . S
C821 H803 0.930 . S
C821 N817 1.334 . S
C821 C819 1.394 . S
C822 C818 1.413 . S
C822 C820 1.391 . S
C822 C837 1.437 . S
H823 C820 0.929 . S
O824 Gd780 2.545 . S
O824 C839 1.258 . S
O825 Gd780 2.606 . S
O825 Gd781 2.362 . S
O825 C836 1.284 . S
O826 Gd781 2.324 . S
O826 C846 1.254 . S
O827 Gd780 2.429 . S
O827 C846 1.268 . S
O828 Gd780 2.545 . S
O828 C836 1.250 . S
O829 Gd780 2.412 . S
O829 C839 1.252 . S
O830 Gd781 2.545 . S
O830 C848 1.258 . S
O831 Gd780 2.362 . S
O831 Gd781 2.606 . S
O831 C847 1.284 . S
O832 Gd780 2.324 . S
O832 C855 1.254 . S
O833 Gd781 2.429 . S
O833 C855 1.268 . S
O834 Gd781 2.545 . S
O834 C847 1.250 . S
O835 Gd781 2.412 . S
O835 C848 1.252 . S
C836 O825 1.284 . S
C836 O828 1.250 . S
C837 H806 0.929 . S
C837 C822 1.437 . S
C837 C838 1.317 . S
C838 H809 0.930 . S
C838 C814 1.431 . S
C838 C837 1.317 . S
C839 Gd780 2.828 . S
C839 O824 1.258 . S
C839 O829 1.252 . S
C839 C840 1.497 . S
C840 C839 1.497 . S
C840 C841 1.395 . S
C840 C842 1.380 . S
C841 C840 1.395 . S
C841 C844 1.398 . S
C841 H856 0.930 . S
C842 C840 1.380 . S
C842 C843 1.391 . S
C842 H857 0.930 . S
C843 C842 1.391 . S
C843 C845 1.387 . S
C844 C841 1.398 . S
C844 C845 1.380 . S
C844 H858 0.930 . S
C845 C843 1.387 . S
C845 C844 1.380 . S
C845 H859 0.930 . S
C846 O826 1.254 . S
C846 O827 1.268 . S
C847 O831 1.284 . S
C847 O834 1.250 . S
C848 Gd781 2.828 . S
C848 O830 1.258 . S
C848 O835 1.252 . S
C848 C849 1.497 . S
C849 C848 1.497 . S
C849 C850 1.395 . S
C849 C851 1.380 . S
C850 C849 1.395 . S
C850 C853 1.398 . S
C850 H860 0.930 . S
C851 C849 1.380 . S
C851 C852 1.391 . S
C851 H861 0.930 . S
C852 C851 1.391 . S
C852 C854 1.387 . S
C853 C850 1.398 . S
C853 C854 1.380 . S
C853 H862 0.930 . S
C854 C852 1.387 . S
C854 C853 1.380 . S
C854 H863 0.930 . S
C855 O832 1.254 . S
C855 O833 1.268 . S
H856 C841 0.930 . S
H857 C842 0.930 . S
H858 C844 0.930 . S
H859 C845 0.930 . S
H860 C850 0.930 . S
H861 C851 0.930 . S
H862 C853 0.930 . S
H863 C854 0.930 . S
Gd864 N895 2.661 . S
Gd864 N901 2.601 . S
Gd864 O908 2.545 . S
Gd864 O909 2.606 . S
Gd864 O911 2.429 . S
Gd864 O912 2.545 . S
Gd864 O913 2.412 . S
Gd864 O915 2.362 . S
Gd864 O916 2.324 . S
Gd864 C923 2.828 . S
Gd865 N874 2.661 . S
Gd865 N878 2.601 . S
Gd865 O909 2.362 . S
Gd865 O910 2.324 . S
Gd865 O914 2.545 . S
Gd865 O915 2.606 . S
Gd865 O917 2.429 . S
Gd865 O918 2.545 . S
Gd865 O919 2.412 . S
Gd865 C932 2.828 . S
C866 C869 1.417 . S
C866 C871 1.431 . S
C866 C872 1.412 . S
C867 C870 1.437 . S
C867 C871 1.317 . S
C867 H886 0.929 . S
C868 C869 1.426 . S
C868 C870 1.413 . S
C868 N878 1.359 . S
C869 C866 1.417 . S
C869 C868 1.426 . S
C869 N874 1.350 . S
C870 C867 1.437 . S
C870 C868 1.413 . S
C870 C880 1.391 . S
C871 C866 1.431 . S
C871 C867 1.317 . S
C871 H882 0.930 . S
C872 C866 1.412 . S
C872 C873 1.355 . S
C872 H884 0.930 . S
C873 C872 1.355 . S
C873 C875 1.402 . S
C873 H885 0.930 . S
N874 Gd865 2.661 . S
N874 C869 1.350 . S
N874 C875 1.307 . S
C875 C873 1.402 . S
C875 N874 1.307 . S
C875 H876 0.930 . S
H876 C875 0.930 . S
C877 N878 1.334 . S
C877 C879 1.394 . S
C877 H881 0.930 . S
N878 Gd865 2.601 . S
N878 C868 1.359 . S
N878 C877 1.334 . S
C879 C877 1.394 . S
C879 C880 1.359 . S
C879 H891 0.930 . S
C880 C870 1.391 . S
C880 C879 1.359 . S
C880 H892 0.929 . S
H881 C877 0.930 . S
H882 C871 0.930 . S
H883 C900 0.930 . S
H884 C872 0.930 . S
H885 C873 0.930 . S
H886 C867 0.929 . S
H887 C905 0.930 . S
H888 C896 0.930 . S
H889 C897 0.930 . S
H890 C921 0.929 . S
H891 C879 0.930 . S
H892 C880 0.929 . S
H893 C922 0.930 . S
H894 C903 0.930 . S
N895 Gd864 2.661 . S
N895 C899 1.350 . S
N895 C900 1.307 . S
C896 H888 0.930 . S
C896 C897 1.355 . S
C896 C898 1.412 . S
C897 H889 0.930 . S
C897 C896 1.355 . S
C897 C900 1.402 . S
C898 C896 1.412 . S
C898 C899 1.417 . S
C898 C922 1.431 . S
C899 N895 1.350 . S
C899 C898 1.417 . S
C899 C902 1.426 . S
C900 H883 0.930 . S
C900 N895 1.307 . S
C900 C897 1.402 . S
N901 Gd864 2.601 . S
N901 C902 1.359 . S
N901 C905 1.334 . S
C902 C899 1.426 . S
C902 N901 1.359 . S
C902 C906 1.413 . S
C903 H894 0.930 . S
C903 C904 1.359 . S
C903 C905 1.394 . S
C904 C903 1.359 . S
C904 C906 1.391 . S
C904 H907 0.929 . S
C905 H887 0.930 . S
C905 N901 1.334 . S
C905 C903 1.394 . S
C906 C902 1.413 . S
C906 C904 1.391 . S
C906 C921 1.437 . S
H907 C904 0.929 . S
O908 Gd864 2.545 . S
O908 C923 1.258 . S
O909 Gd864 2.606 . S
O909 Gd865 2.362 . S
O909 C920 1.284 . S
O910 Gd865 2.324 . S
O910 C930 1.254 . S
O911 Gd864 2.429 . S
O911 C930 1.268 . S
O912 Gd864 2.545 . S
O912 C920 1.250 . S
O913 Gd864 2.412 . S
O913 C923 1.252 . S
O914 Gd865 2.545 . S
O914 C932 1.258 . S
O915 Gd864 2.362 . S
O915 Gd865 2.606 . S
O915 C931 1.284 . S
O916 Gd864 2.324 . S
O916 C939 1.254 . S
O917 Gd865 2.429 . S
O917 C939 1.268 . S
O918 Gd865 2.545 . S
O918 C931 1.250 . S
O919 Gd865 2.412 . S
O919 C932 1.252 . S
C920 O909 1.284 . S
C920 O912 1.250 . S
C921 H890 0.929 . S
C921 C906 1.437 . S
C921 C922 1.317 . S
C922 H893 0.930 . S
C922 C898 1.431 . S
C922 C921 1.317 . S
C923 Gd864 2.828 . S
C923 O908 1.258 . S
C923 O913 1.252 . S
C923 C924 1.497 . S
C924 C923 1.497 . S
C924 C925 1.395 . S
C924 C926 1.380 . S
C925 C924 1.395 . S
C925 C928 1.398 . S
C925 H940 0.930 . S
C926 C924 1.380 . S
C926 C927 1.391 . S
C926 H941 0.930 . S
C927 C926 1.391 . S
C927 C929 1.387 . S
C928 C925 1.398 . S
C928 C929 1.380 . S
C928 H942 0.930 . S
C929 C927 1.387 . S
C929 C928 1.380 . S
C929 H943 0.930 . S
C930 O910 1.254 . S
C930 O911 1.268 . S
C931 O915 1.284 . S
C931 O918 1.250 . S
C932 Gd865 2.828 . S
C932 O914 1.258 . S
C932 O919 1.252 . S
C932 C933 1.497 . S
C933 C932 1.497 . S
C933 C934 1.395 . S
C933 C935 1.380 . S
C934 C933 1.395 . S
C934 C937 1.398 . S
C934 H944 0.930 . S
C935 C933 1.380 . S
C935 C936 1.391 . S
C935 H945 0.930 . S
C936 C935 1.391 . S
C936 C938 1.387 . S
C937 C934 1.398 . S
C937 C938 1.380 . S
C937 H946 0.930 . S
C938 C936 1.387 . S
C938 C937 1.380 . S
C938 H947 0.930 . S
C939 O916 1.254 . S
C939 O917 1.268 . S
H940 C925 0.930 . S
H941 C926 0.930 . S
H942 C928 0.930 . S
H943 C929 0.930 . S
H944 C934 0.930 . S
H945 C935 0.930 . S
H946 C937 0.930 . S
H947 C938 0.930 . S
H948 C954 0.930 . S
H949 C958 0.930 . S
H950 C963 0.929 . S
H951 C961 0.929 . S
H952 C956 0.929 . S
H953 C962 0.929 . S
C954 H948 0.930 . S
C954 C955 1.367 . S
C954 C962 1.378 . S
C955 C954 1.367 . S
C955 C963 1.433 . S
C956 H952 0.929 . S
C956 C958 1.378 . S
C956 C960 1.350 . S
C957 C960 1.463 . S
C957 C962 1.350 . S
C957 N965 1.427 . S
C958 H949 0.930 . S
C958 C956 1.378 . S
C958 C959 1.367 . S
C959 C958 1.367 . S
C959 C961 1.433 . S
C960 C956 1.350 . S
C960 C957 1.463 . S
C960 N964 1.427 . S
C961 H951 0.929 . S
C961 C959 1.433 . S
C961 N964 1.384 . S
C962 H953 0.929 . S
C962 C954 1.378 . S
C962 C957 1.350 . S
C963 H950 0.929 . S
C963 C955 1.433 . S
C963 N965 1.384 . S
N964 C960 1.427 . S
N964 C961 1.384 . S
N965 C957 1.427 . S
N965 C963 1.384 . S
H966 C972 0.930 . S
H967 C976 0.930 . S
H968 C981 0.929 . S
H969 C979 0.929 . S
H970 C974 0.929 . S
H971 C980 0.929 . S
C972 H966 0.930 . S
C972 C973 1.367 . S
C972 C980 1.378 . S
C973 C972 1.367 . S
C973 C981 1.433 . S
C974 H970 0.929 . S
C974 C976 1.378 . S
C974 C978 1.350 . S
C975 C978 1.463 . S
C975 C980 1.350 . S
C975 N983 1.427 . S
C976 H967 0.930 . S
C976 C974 1.378 . S
C976 C977 1.367 . S
C977 C976 1.367 . S
C977 C979 1.433 . S
C978 C974 1.350 . S
C978 C975 1.463 . S
C978 N982 1.427 . S
C979 H969 0.929 . S
C979 C977 1.433 . S
C979 N982 1.384 . S
C980 H971 0.929 . S
C980 C972 1.378 . S
C980 C975 1.350 . S
C981 H968 0.929 . S
C981 C973 1.433 . S
C981 N983 1.384 . S
N982 C978 1.427 . S
N982 C979 1.384 . S
N983 C975 1.427 . S
N983 C981 1.384 . S
H984 C990 0.930 . S
H985 C994 0.930 . S
H986 C999 0.956 . S
H987 C997 0.929 . S
H988 C992 0.929 . S
H989 C998 0.929 . S
C990 H984 0.930 . S
C990 C991 1.367 . S
C990 C998 1.378 . S
C991 C990 1.367 . S
C991 C999 1.433 . S
C992 H988 0.929 . S
C992 C994 1.378 . S
C992 C996 1.350 . S
C993 C996 1.463 . S
C993 C998 1.350 . S
C993 N1001 1.427 . S
C994 H985 0.930 . S
C994 C992 1.378 . S
C994 C995 1.367 . S
C995 C994 1.367 . S
C995 C997 1.433 . S
C996 C992 1.350 . S
C996 C993 1.463 . S
C996 N1000 1.427 . S
C997 H987 0.929 . S
C997 C995 1.433 . S
C997 N1000 1.384 . S
C998 H989 0.929 . S
C998 C990 1.378 . S
C998 C993 1.350 . S
C999 H986 0.956 . S
C999 C991 1.433 . S
C999 N1001 1.384 . S
N1000 C996 1.427 . S
N1000 C997 1.384 . S
N1001 C993 1.427 . S
N1001 C999 1.384 . S
H1002 C1008 0.930 . S
H1003 C1012 0.930 . S
H1004 C1017 0.929 . S
H1005 C1015 0.929 . S
H1006 C1010 0.929 . S
H1007 C1016 0.929 . S
C1008 H1002 0.930 . S
C1008 C1009 1.367 . S
C1008 C1016 1.378 . S
C1009 C1008 1.367 . S
C1009 C1017 1.433 . S
C1010 H1006 0.929 . S
C1010 C1012 1.378 . S
C1010 C1014 1.350 . S
C1011 C1014 1.463 . S
C1011 C1016 1.350 . S
C1011 N1019 1.427 . S
C1012 H1003 0.930 . S
C1012 C1010 1.378 . S
C1012 C1013 1.367 . S
C1013 C1012 1.367 . S
C1013 C1015 1.433 . S
C1014 C1010 1.350 . S
C1014 C1011 1.463 . S
C1014 N1018 1.427 . S
C1015 H1005 0.929 . S
C1015 C1013 1.433 . S
C1015 N1018 1.384 . S
C1016 H1007 0.929 . S
C1016 C1008 1.378 . S
C1016 C1011 1.350 . S
C1017 H1004 0.929 . S
C1017 C1009 1.433 . S
C1017 N1019 1.384 . S
N1018 C1014 1.427 . S
N1018 C1015 1.384 . S
N1019 C1011 1.427 . S
N1019 C1017 1.384 . S
H1020 C1026 0.930 . S
H1021 C1030 0.930 . S
H1022 C1035 0.929 . S
H1023 C1033 0.929 . S
H1024 C1028 0.929 . S
H1025 C1034 0.929 . S
C1026 H1020 0.930 . S
C1026 C1027 1.367 . S
C1026 C1034 1.378 . S
C1027 C1026 1.367 . S
C1027 C1035 1.433 . S
C1028 H1024 0.929 . S
C1028 C1030 1.378 . S
C1028 C1032 1.350 . S
C1029 C1032 1.463 . S
C1029 C1034 1.350 . S
C1029 N1037 1.427 . S
C1030 H1021 0.930 . S
C1030 C1028 1.378 . S
C1030 C1031 1.367 . S
C1031 C1030 1.367 . S
C1031 C1033 1.433 . S
C1032 C1028 1.350 . S
C1032 C1029 1.463 . S
C1032 N1036 1.427 . S
C1033 H1023 0.929 . S
C1033 C1031 1.433 . S
C1033 N1036 1.384 . S
C1034 H1025 0.929 . S
C1034 C1026 1.378 . S
C1034 C1029 1.350 . S
C1035 H1022 0.929 . S
C1035 C1027 1.433 . S
C1035 N1037 1.384 . S
N1036 C1032 1.427 . S
N1036 C1033 1.384 . S
N1037 C1029 1.427 . S
N1037 C1035 1.384 . S
H1038 C1044 0.930 . S
H1039 C1048 0.930 . S
H1040 C1053 0.929 . S
H1041 C1051 0.929 . S
H1042 C1046 0.929 . S
H1043 C1052 0.929 . S
C1044 H1038 0.930 . S
C1044 C1045 1.367 . S
C1044 C1052 1.378 . S
C1045 C1044 1.367 . S
C1045 C1053 1.433 . S
C1046 H1042 0.929 . S
C1046 C1048 1.378 . S
C1046 C1050 1.350 . S
C1047 C1050 1.463 . S
C1047 C1052 1.350 . S
C1047 N1055 1.427 . S
C1048 H1039 0.930 . S
C1048 C1046 1.378 . S
C1048 C1049 1.367 . S
C1049 C1048 1.367 . S
C1049 C1051 1.433 . S
C1050 C1046 1.350 . S
C1050 C1047 1.463 . S
C1050 N1054 1.427 . S
C1051 H1041 0.929 . S
C1051 C1049 1.433 . S
C1051 N1054 1.384 . S
C1052 H1043 0.929 . S
C1052 C1044 1.378 . S
C1052 C1047 1.350 . S
C1053 H1040 0.929 . S
C1053 C1045 1.433 . S
C1053 N1055 1.384 . S
N1054 C1050 1.427 . S
N1054 C1051 1.384 . S
N1055 C1047 1.427 . S
N1055 C1053 1.384 . S
H1056 C1062 0.930 . S
H1057 C1066 0.930 . S
H1058 C1071 0.929 . S
H1059 C1069 0.929 . S
H1060 C1064 0.929 . S
H1061 C1070 0.929 . S
C1062 H1056 0.930 . S
C1062 C1063 1.367 . S
C1062 C1070 1.378 . S
C1063 C1062 1.367 . S
C1063 C1071 1.433 . S
C1064 H1060 0.929 . S
C1064 C1066 1.378 . S
C1064 C1068 1.350 . S
C1065 C1068 1.463 . S
C1065 C1070 1.350 . S
C1065 N1073 1.427 . S
C1066 H1057 0.930 . S
C1066 C1064 1.378 . S
C1066 C1067 1.367 . S
C1067 C1066 1.367 . S
C1067 C1069 1.433 . S
C1068 C1064 1.350 . S
C1068 C1065 1.463 . S
C1068 N1072 1.427 . S
C1069 H1059 0.929 . S
C1069 C1067 1.433 . S
C1069 N1072 1.384 . S
C1070 H1061 0.929 . S
C1070 C1062 1.378 . S
C1070 C1065 1.350 . S
C1071 H1058 0.929 . S
C1071 C1063 1.433 . S
C1071 N1073 1.384 . S
N1072 C1068 1.427 . S
N1072 C1069 1.384 . S
N1073 C1065 1.427 . S
N1073 C1071 1.384 . S
H1074 C1080 0.930 . S
H1075 C1084 0.930 . S
H1076 C1089 0.907 1_545 S
H1077 C1087 0.929 . S
H1078 C1082 0.929 . S
H1079 C1088 0.929 . S
C1080 H1074 0.930 . S
C1080 C1081 1.367 . S
C1080 C1088 1.378 . S
C1081 C1080 1.367 . S
C1081 C1089 1.438 . S
C1082 H1078 0.929 . S
C1082 C1084 1.378 . S
C1082 C1086 1.350 . S
C1083 C1086 1.463 . S
C1083 C1088 1.350 . S
C1083 N1091 1.427 . S
C1084 H1075 0.930 . S
C1084 C1082 1.378 . S
C1084 C1085 1.367 . S
C1085 C1084 1.367 . S
C1085 C1087 1.433 . S
C1086 C1082 1.350 . S
C1086 C1083 1.463 . S
C1086 N1090 1.427 . S
C1087 H1077 0.929 . S
C1087 C1085 1.433 . S
C1087 N1090 1.384 . S
C1088 H1079 0.929 . S
C1088 C1080 1.378 . S
C1088 C1083 1.350 . S
C1089 H1076 0.907 1_565 S
C1089 C1081 1.438 . S
C1089 N1091 1.402 . S
N1090 C1086 1.427 . S
N1090 C1087 1.384 . S
N1091 C1083 1.427 . S
N1091 C1089 1.402 . S
H1092 C1098 0.930 . S
H1093 C1102 0.930 . S
H1094 C1107 0.929 . S
H1095 C1105 0.929 . S
H1096 C1100 0.929 . S
H1097 C1106 0.929 . S
C1098 H1092 0.930 . S
C1098 C1099 1.367 . S
C1098 C1106 1.378 . S
C1099 C1098 1.367 . S
C1099 C1107 1.433 . S
C1100 H1096 0.929 . S
C1100 C1102 1.378 . S
C1100 C1104 1.350 . S
C1101 C1104 1.463 . S
C1101 C1106 1.350 . S
C1101 N1109 1.427 . S
C1102 H1093 0.930 . S
C1102 C1100 1.378 . S
C1102 C1103 1.367 . S
C1103 C1102 1.367 . S
C1103 C1105 1.433 . S
C1104 C1100 1.350 . S
C1104 C1101 1.463 . S
C1104 N1108 1.427 . S
C1105 H1095 0.929 . S
C1105 C1103 1.433 . S
C1105 N1108 1.384 . S
C1106 H1097 0.929 . S
C1106 C1098 1.378 . S
C1106 C1101 1.350 . S
C1107 H1094 0.929 . S
C1107 C1099 1.433 . S
C1107 N1109 1.384 . S
N1108 C1104 1.427 . S
N1108 C1105 1.384 . S
N1109 C1101 1.427 . S
N1109 C1107 1.384 . S
H1110 C1116 0.930 . S
H1111 C1120 0.930 . S
H1112 C1125 0.929 . S
H1113 C1123 0.929 . S
H1114 C1118 0.929 . S
H1115 C1124 0.929 . S
C1116 H1110 0.930 . S
C1116 C1117 1.367 . S
C1116 C1124 1.378 . S
C1117 C1116 1.367 . S
C1117 C1125 1.433 . S
C1118 H1114 0.929 . S
C1118 C1120 1.378 . S
C1118 C1122 1.350 . S
C1119 C1122 1.463 . S
C1119 C1124 1.350 . S
C1119 N1127 1.427 . S
C1120 H1111 0.930 . S
C1120 C1118 1.378 . S
C1120 C1121 1.367 . S
C1121 C1120 1.367 . S
C1121 C1123 1.433 . S
C1122 C1118 1.350 . S
C1122 C1119 1.463 . S
C1122 N1126 1.427 . S
C1123 H1113 0.929 . S
C1123 C1121 1.433 . S
C1123 N1126 1.384 . S
C1124 H1115 0.929 . S
C1124 C1116 1.378 . S
C1124 C1119 1.350 . S
C1125 H1112 0.929 . S
C1125 C1117 1.433 . S
C1125 N1127 1.384 . S
N1126 C1122 1.427 . S
N1126 C1123 1.384 . S
N1127 C1119 1.427 . S
N1127 C1125 1.384 . S
H1128 C1134 0.930 . S
H1129 C1138 0.930 . S
H1130 C1143 0.929 . S
H1131 C1141 0.929 . S
H1132 C1136 0.929 . S
H1133 C1142 0.929 . S
C1134 H1128 0.930 . S
C1134 C1135 1.367 . S
C1134 C1142 1.378 . S
C1135 C1134 1.367 . S
C1135 C1143 1.433 . S
C1136 H1132 0.929 . S
C1136 C1138 1.378 . S
C1136 C1140 1.350 . S
C1137 C1140 1.463 . S
C1137 C1142 1.350 . S
C1137 N1145 1.427 . S
C1138 H1129 0.930 . S
C1138 C1136 1.378 . S
C1138 C1139 1.367 . S
C1139 C1138 1.367 . S
C1139 C1141 1.433 . S
C1140 C1136 1.350 . S
C1140 C1137 1.463 . S
C1140 N1144 1.427 . S
C1141 H1131 0.929 . S
C1141 C1139 1.433 . S
C1141 N1144 1.384 . S
C1142 H1133 0.929 . S
C1142 C1134 1.378 . S
C1142 C1137 1.350 . S
C1143 H1130 0.929 . S
C1143 C1135 1.433 . S
C1143 N1145 1.384 . S
N1144 C1140 1.427 . S
N1144 C1141 1.384 . S
N1145 C1137 1.427 . S
N1145 C1143 1.384 . S
H1146 C1152 0.930 . S
H1147 C1156 0.930 . S
H1148 C1161 0.929 . S
H1149 C1159 0.929 . S
H1150 C1154 0.929 . S
H1151 C1160 0.929 . S
C1152 H1146 0.930 . S
C1152 C1153 1.367 . S
C1152 C1160 1.378 . S
C1153 C1152 1.367 . S
C1153 C1161 1.433 . S
C1154 H1150 0.929 . S
C1154 C1156 1.378 . S
C1154 C1158 1.350 . S
C1155 C1158 1.463 . S
C1155 C1160 1.350 . S
C1155 N1163 1.427 . S
C1156 H1147 0.930 . S
C1156 C1154 1.378 . S
C1156 C1157 1.367 . S
C1157 C1156 1.367 . S
C1157 C1159 1.433 . S
C1158 C1154 1.350 . S
C1158 C1155 1.463 . S
C1158 N1162 1.427 . S
C1159 H1149 0.929 . S
C1159 C1157 1.433 . S
C1159 N1162 1.384 . S
C1160 H1151 0.929 . S
C1160 C1152 1.378 . S
C1160 C1155 1.350 . S
C1161 H1148 0.929 . S
C1161 C1153 1.433 . S
C1161 N1163 1.384 . S
N1162 C1158 1.427 . S
N1162 C1159 1.384 . S
N1163 C1155 1.427 . S
N1163 C1161 1.384 . S
H1164 C1170 0.930 . S
H1165 C1174 0.930 . S
H1166 C1179 0.929 . S
H1167 C1177 0.929 . S
H1168 C1172 0.929 . S
H1169 C1178 0.929 . S
C1170 H1164 0.930 . S
C1170 C1171 1.367 . S
C1170 C1178 1.378 1_544 S
C1171 C1170 1.367 . S
C1171 C1179 1.433 1_545 S
C1172 H1168 0.929 . S
C1172 C1174 1.378 . S
C1172 C1176 1.350 . S
C1173 C1176 1.463 . S
C1173 C1178 1.350 . S
C1173 N1181 1.427 . S
C1174 H1165 0.930 . S
C1174 C1172 1.378 . S
C1174 C1175 1.367 . S
C1175 C1174 1.367 . S
C1175 C1177 1.433 . S
C1176 C1172 1.350 . S
C1176 C1173 1.463 . S
C1176 N1180 1.427 . S
C1177 H1167 0.929 . S
C1177 C1175 1.433 . S
C1177 N1180 1.384 . S
C1178 H1169 0.929 . S
C1178 C1170 1.378 1_566 S
C1178 C1173 1.350 . S
C1179 H1166 0.929 . S
C1179 C1171 1.433 1_565 S
C1179 N1181 1.384 1_554 S
N1180 C1176 1.427 . S
N1180 C1177 1.384 . S
N1181 C1173 1.427 . S
N1181 C1179 1.384 1_556 S
H1182 C1188 0.930 . S
H1183 C1192 0.930 . S
H1184 C1197 0.929 . S
H1185 C1195 0.929 . S
H1186 C1190 0.929 . S
H1187 C1196 0.929 . S
C1188 H1182 0.930 . S
C1188 C1189 1.367 . S
C1188 C1196 1.378 . S
C1189 C1188 1.367 . S
C1189 C1197 1.433 . S
C1190 H1186 0.929 . S
C1190 C1192 1.378 . S
C1190 C1194 1.350 . S
C1191 C1194 1.463 . S
C1191 C1196 1.350 . S
C1191 N1199 1.427 . S
C1192 H1183 0.930 . S
C1192 C1190 1.378 . S
C1192 C1193 1.367 . S
C1193 C1192 1.367 . S
C1193 C1195 1.433 . S
C1194 C1190 1.350 . S
C1194 C1191 1.463 . S
C1194 N1198 1.427 . S
C1195 H1185 0.929 . S
C1195 C1193 1.433 . S
C1195 N1198 1.384 . S
C1196 H1187 0.929 . S
C1196 C1188 1.378 . S
C1196 C1191 1.350 . S
C1197 H1184 0.929 . S
C1197 C1189 1.433 . S
C1197 N1199 1.384 . S
N1198 C1194 1.427 . S
N1198 C1195 1.384 . S
N1199 C1191 1.427 . S
N1199 C1197 1.384 . S
H1200 C1206 0.930 . S
H1201 C1210 0.930 . S
H1202 C1215 0.929 . S
H1203 C1213 0.929 . S
H1204 C1208 0.929 . S
H1205 C1214 0.929 . S
C1206 H1200 0.930 . S
C1206 C1207 1.367 . S
C1206 C1214 1.378 . S
C1207 C1206 1.367 . S
C1207 C1215 1.433 . S
C1208 H1204 0.929 . S
C1208 C1210 1.378 . S
C1208 C1212 1.350 . S
C1209 C1212 1.463 . S
C1209 C1214 1.350 . S
C1209 N1217 1.427 . S
C1210 H1201 0.930 . S
C1210 C1208 1.378 . S
C1210 C1211 1.367 . S
C1211 C1210 1.367 . S
C1211 C1213 1.433 . S
C1212 C1208 1.350 . S
C1212 C1209 1.463 . S
C1212 N1216 1.427 . S
C1213 H1203 0.929 . S
C1213 C1211 1.433 . S
C1213 N1216 1.384 . S
C1214 H1205 0.929 . S
C1214 C1206 1.378 . S
C1214 C1209 1.350 . S
C1215 H1202 0.929 . S
C1215 C1207 1.433 . S
C1215 N1217 1.384 . S
N1216 C1212 1.427 . S
N1216 C1213 1.384 . S
N1217 C1209 1.427 . S
N1217 C1215 1.384 . S
H1218 C1224 0.930 . S
H1219 C1228 0.930 . S
H1220 C1233 0.929 . S
H1221 C1231 0.929 . S
H1222 C1226 0.929 . S
H1223 C1232 0.929 . S
C1224 H1218 0.930 . S
C1224 C1225 1.367 . S
C1224 C1232 1.378 . S
C1225 C1224 1.367 . S
C1225 C1233 1.433 . S
C1226 H1222 0.929 . S
C1226 C1228 1.378 . S
C1226 C1230 1.350 . S
C1227 C1230 1.463 . S
C1227 C1232 1.350 . S
C1227 N1235 1.427 . S
C1228 H1219 0.930 . S
C1228 C1226 1.378 . S
C1228 C1229 1.367 . S
C1229 C1228 1.367 . S
C1229 C1231 1.433 . S
C1230 C1226 1.350 . S
C1230 C1227 1.463 . S
C1230 N1234 1.427 . S
C1231 H1221 0.929 . S
C1231 C1229 1.433 . S
C1231 N1234 1.384 . S
C1232 H1223 0.929 . S
C1232 C1224 1.378 . S
C1232 C1227 1.350 . S
C1233 H1220 0.929 . S
C1233 C1225 1.433 . S
C1233 N1235 1.384 . S
N1234 C1230 1.427 . S
N1234 C1231 1.384 . S
N1235 C1227 1.427 . S
N1235 C1233 1.384 . S
H1236 C1242 0.930 . S
H1237 C1246 0.930 . S
H1238 C1251 0.929 . S
H1239 C1249 0.929 . S
H1240 C1244 0.929 . S
H1241 C1250 0.929 . S
C1242 H1236 0.930 . S
C1242 C1243 1.367 . S
C1242 C1250 1.378 . S
C1243 C1242 1.367 . S
C1243 C1251 1.433 . S
C1244 H1240 0.929 . S
C1244 C1246 1.378 . S
C1244 C1248 1.350 . S
C1245 C1248 1.463 . S
C1245 C1250 1.350 . S
C1245 N1253 1.427 . S
C1246 H1237 0.930 . S
C1246 C1244 1.378 . S
C1246 C1247 1.367 . S
C1247 C1246 1.367 . S
C1247 C1249 1.433 . S
C1248 C1244 1.350 . S
C1248 C1245 1.463 . S
C1248 N1252 1.427 . S
C1249 H1239 0.929 . S
C1249 C1247 1.433 . S
C1249 N1252 1.384 . S
C1250 H1241 0.929 . S
C1250 C1242 1.378 . S
C1250 C1245 1.350 . S
C1251 H1238 0.929 . S
C1251 C1243 1.433 . S
C1251 N1253 1.384 . S
N1252 C1248 1.427 . S
N1252 C1249 1.384 . S
N1253 C1245 1.427 . S
N1253 C1251 1.384 . S
H1254 C1260 0.930 . S
H1255 C1264 0.930 . S
H1256 C1269 0.929 . S
H1257 C1267 0.929 . S
H1258 C1262 0.929 . S
H1259 C1268 0.929 . S
C1260 H1254 0.930 . S
C1260 C1261 1.367 . S
C1260 C1268 1.378 . S
C1261 C1260 1.367 . S
C1261 C1269 1.433 . S
C1262 H1258 0.929 . S
C1262 C1264 1.378 . S
C1262 C1266 1.350 . S
C1263 C1266 1.463 . S
C1263 C1268 1.350 . S
C1263 N1271 1.427 . S
C1264 H1255 0.930 . S
C1264 C1262 1.378 . S
C1264 C1265 1.367 . S
C1265 C1264 1.367 . S
C1265 C1267 1.433 . S
C1266 C1262 1.350 . S
C1266 C1263 1.463 . S
C1266 N1270 1.427 . S
C1267 H1257 0.929 . S
C1267 C1265 1.433 . S
C1267 N1270 1.384 . S
C1268 H1259 0.929 . S
C1268 C1260 1.378 . S
C1268 C1263 1.350 . S
C1269 H1256 0.929 . S
C1269 C1261 1.433 . S
C1269 N1271 1.384 . S
N1270 C1266 1.427 . S
N1270 C1267 1.384 . S
N1271 C1263 1.427 . S
N1271 C1269 1.384 . S
H1272 C1278 0.930 . S
H1273 C1282 0.930 . S
H1274 C1287 0.929 . S
H1275 C1285 0.929 . S
H1276 C1280 0.929 . S
H1277 C1286 0.929 . S
C1278 H1272 0.930 . S
C1278 C1279 1.367 1_556 S
C1278 C1286 1.378 . S
C1279 C1278 1.367 1_554 S
C1279 C1287 1.433 . S
C1280 H1276 0.929 . S
C1280 C1282 1.378 . S
C1280 C1284 1.350 . S
C1281 C1284 1.463 . S
C1281 C1286 1.350 . S
C1281 N1289 1.427 . S
C1282 H1273 0.930 . S
C1282 C1280 1.378 . S
C1282 C1283 1.367 . S
C1283 C1282 1.367 . S
C1283 C1285 1.433 . S
C1284 C1280 1.350 . S
C1284 C1281 1.463 . S
C1284 N1288 1.427 . S
C1285 H1275 0.929 . S
C1285 C1283 1.433 . S
C1285 N1288 1.384 . S
C1286 H1277 0.929 . S
C1286 C1278 1.378 . S
C1286 C1281 1.350 . S
C1287 H1274 0.929 . S
C1287 C1279 1.433 . S
C1287 N1289 1.384 1_554 S
N1288 C1284 1.427 . S
N1288 C1285 1.384 . S
N1289 C1281 1.427 . S
N1289 C1287 1.384 1_556 S
H1290 C1296 0.930 . S
H1291 C1300 0.930 . S
H1292 C1305 0.929 1_455 S
H1293 C1303 0.929 . S
H1294 C1298 0.929 . S
H1295 C1304 0.929 . S
C1296 H1290 0.930 . S
C1296 C1297 1.367 . S
C1296 C1304 1.378 1_554 S
C1297 C1296 1.367 . S
C1297 C1305 1.433 . S
C1298 H1294 0.929 . S
C1298 C1300 1.378 . S
C1298 C1302 1.350 . S
C1299 C1302 1.463 . S
C1299 C1304 1.350 . S
C1299 N1307 1.443 . S
C1300 H1291 0.930 . S
C1300 C1298 1.378 . S
C1300 C1301 1.367 . S
C1301 C1300 1.367 . S
C1301 C1303 1.433 . S
C1302 C1298 1.350 . S
C1302 C1299 1.463 . S
C1302 N1306 1.427 . S
C1303 H1293 0.929 . S
C1303 C1301 1.433 . S
C1303 N1306 1.384 . S
C1304 H1295 0.929 . S
C1304 C1296 1.378 1_556 S
C1304 C1299 1.350 . S
C1305 H1292 0.929 1_655 S
C1305 C1297 1.433 . S
C1305 N1307 1.363 1_554 S
N1306 C1302 1.427 . S
N1306 C1303 1.384 . S
N1307 C1299 1.443 . S
N1307 C1305 1.363 1_556 S
H1308 C1314 0.930 . S
H1309 C1318 0.930 . S
H1310 C1323 0.929 . S
H1311 C1321 0.929 . S
H1312 C1316 0.929 . S
H1313 C1322 0.929 . S
C1314 H1308 0.930 . S
C1314 C1315 1.367 . S
C1314 C1322 1.378 . S
C1315 C1314 1.367 . S
C1315 C1323 1.433 . S
C1316 H1312 0.929 . S
C1316 C1318 1.378 . S
C1316 C1320 1.350 . S
C1317 C1320 1.463 . S
C1317 C1322 1.350 . S
C1317 N1325 1.427 . S
C1318 H1309 0.930 . S
C1318 C1316 1.378 . S
C1318 C1319 1.367 . S
C1319 C1318 1.367 . S
C1319 C1321 1.433 . S
C1320 C1316 1.350 . S
C1320 C1317 1.463 . S
C1320 N1324 1.427 . S
C1321 H1311 0.929 . S
C1321 C1319 1.433 . S
C1321 N1324 1.384 . S
C1322 H1313 0.929 . S
C1322 C1314 1.378 . S
C1322 C1317 1.350 . S
C1323 H1310 0.929 . S
C1323 C1315 1.433 . S
C1323 N1325 1.384 . S
N1324 C1320 1.427 . S
N1324 C1321 1.384 . S
N1325 C1317 1.427 . S
N1325 C1323 1.384 . S
H1326 C1332 0.930 . S
H1327 C1336 0.930 . S
H1328 C1341 0.929 . S
H1329 C1339 0.929 . S
H1330 C1334 0.929 . S
H1331 C1340 0.929 . S
C1332 H1326 0.930 . S
C1332 C1333 1.367 . S
C1332 C1340 1.378 . S
C1333 C1332 1.367 . S
C1333 C1341 1.433 . S
C1334 H1330 0.929 . S
C1334 C1336 1.378 . S
C1334 C1338 1.350 . S
C1335 C1338 1.463 . S
C1335 C1340 1.350 . S
C1335 N1343 1.427 . S
C1336 H1327 0.930 . S
C1336 C1334 1.378 . S
C1336 C1337 1.367 . S
C1337 C1336 1.367 . S
C1337 C1339 1.433 . S
C1338 C1334 1.350 . S
C1338 C1335 1.463 . S
C1338 N1342 1.427 . S
C1339 H1329 0.929 . S
C1339 C1337 1.433 . S
C1339 N1342 1.384 . S
C1340 H1331 0.929 . S
C1340 C1332 1.378 . S
C1340 C1335 1.350 . S
C1341 H1328 0.929 . S
C1341 C1333 1.433 . S
C1341 N1343 1.384 . S
N1342 C1338 1.427 . S
N1342 C1339 1.384 . S
N1343 C1335 1.427 . S
N1343 C1341 1.384 . S
H1344 C1350 0.930 . S
H1345 C1354 0.930 . S
H1346 C1359 0.929 1_545 S
H1347 C1357 0.929 . S
H1348 C1352 0.929 . S
H1349 C1358 0.929 . S
C1350 H1344 0.930 . S
C1350 C1351 1.368 . S
C1350 C1358 1.378 . S
C1351 C1350 1.368 . S
C1351 C1359 1.434 . S
C1352 H1348 0.929 . S
C1352 C1354 1.378 . S
C1352 C1356 1.350 . S
C1353 C1356 1.463 . S
C1353 C1358 1.350 . S
C1353 N1361 1.427 . S
C1354 H1345 0.930 . S
C1354 C1352 1.378 . S
C1354 C1355 1.367 . S
C1355 C1354 1.367 . S
C1355 C1357 1.433 . S
C1356 C1352 1.350 . S
C1356 C1353 1.463 . S
C1356 N1360 1.427 . S
C1357 H1347 0.929 . S
C1357 C1355 1.433 . S
C1357 N1360 1.384 . S
C1358 H1349 0.929 . S
C1358 C1350 1.378 . S
C1358 C1353 1.350 . S
C1359 H1346 0.929 1_565 S
C1359 C1351 1.434 . S
C1359 N1361 1.384 . S
N1360 C1356 1.427 . S
N1360 C1357 1.384 . S
N1361 C1353 1.427 . S
N1361 C1359 1.384 . S
H1362 C1368 0.930 . S
H1363 C1372 0.930 . S
H1364 C1377 0.929 . S
H1365 C1375 0.929 . S
H1366 C1370 0.929 . S
H1367 C1376 0.929 . S
C1368 H1362 0.930 . S
C1368 C1369 1.367 . S
C1368 C1376 1.378 . S
C1369 C1368 1.367 . S
C1369 C1377 1.433 . S
C1370 H1366 0.929 . S
C1370 C1372 1.378 . S
C1370 C1374 1.350 . S
C1371 C1374 1.463 . S
C1371 C1376 1.350 . S
C1371 N1379 1.427 . S
C1372 H1363 0.930 . S
C1372 C1370 1.378 . S
C1372 C1373 1.367 . S
C1373 C1372 1.367 . S
C1373 C1375 1.433 . S
C1374 C1370 1.350 . S
C1374 C1371 1.463 . S
C1374 N1378 1.427 . S
C1375 H1365 0.929 . S
C1375 C1373 1.433 . S
C1375 N1378 1.384 . S
C1376 H1367 0.929 . S
C1376 C1368 1.378 . S
C1376 C1371 1.350 . S
C1377 H1364 0.929 . S
C1377 C1369 1.433 . S
C1377 N1379 1.384 . S
N1378 C1374 1.427 . S
N1378 C1375 1.384 . S
N1379 C1371 1.427 . S
N1379 C1377 1.384 . S
H1380 C1386 0.930 . S
H1381 C1390 0.930 . S
H1382 C1395 0.929 . S
H1383 C1393 0.929 . S
H1384 C1388 0.929 . S
H1385 C1394 0.929 . S
C1386 H1380 0.930 . S
C1386 C1387 1.367 . S
C1386 C1394 1.378 . S
C1387 C1386 1.367 . S
C1387 C1395 1.433 . S
C1388 H1384 0.929 . S
C1388 C1390 1.378 . S
C1388 C1392 1.350 . S
C1389 C1392 1.463 . S
C1389 C1394 1.350 . S
C1389 N1397 1.427 . S
C1390 H1381 0.930 . S
C1390 C1388 1.378 . S
C1390 C1391 1.367 . S
C1391 C1390 1.367 . S
C1391 C1393 1.433 . S
C1392 C1388 1.350 . S
C1392 C1389 1.463 . S
C1392 N1396 1.427 . S
C1393 H1383 0.929 . S
C1393 C1391 1.433 . S
C1393 N1396 1.384 . S
C1394 H1385 0.929 . S
C1394 C1386 1.378 . S
C1394 C1389 1.350 . S
C1395 H1382 0.929 . S
C1395 C1387 1.433 . S
C1395 N1397 1.384 . S
N1396 C1392 1.427 . S
N1396 C1393 1.384 . S
N1397 C1389 1.427 . S
N1397 C1395 1.384 . S
H1398 C1404 0.930 . S
H1399 C1408 0.930 . S
H1400 C1413 0.929 . S
H1401 C1411 0.929 . S
H1402 C1406 0.929 . S
H1403 C1412 0.929 . S
C1404 H1398 0.930 . S
C1404 C1405 1.367 . S
C1404 C1412 1.378 . S
C1405 C1404 1.367 . S
C1405 C1413 1.433 . S
C1406 H1402 0.929 . S
C1406 C1408 1.378 . S
C1406 C1410 1.350 . S
C1407 C1410 1.463 . S
C1407 C1412 1.350 . S
C1407 N1415 1.427 . S
C1408 H1399 0.930 . S
C1408 C1406 1.378 . S
C1408 C1409 1.367 . S
C1409 C1408 1.367 . S
C1409 C1411 1.433 . S
C1410 C1406 1.350 . S
C1410 C1407 1.463 . S
C1410 N1414 1.427 . S
C1411 H1401 0.929 . S
C1411 C1409 1.433 . S
C1411 N1414 1.384 . S
C1412 H1403 0.929 . S
C1412 C1404 1.378 . S
C1412 C1407 1.350 . S
C1413 H1400 0.929 . S
C1413 C1405 1.433 . S
C1413 N1415 1.384 . S
N1414 C1410 1.427 . S
N1414 C1411 1.384 . S
N1415 C1407 1.427 . S
N1415 C1413 1.384 . S
H1416 C1422 0.930 . S
H1417 C1426 0.930 . S
H1418 C1431 0.929 . S
H1419 C1429 0.929 . S
H1420 C1424 0.929 . S
H1421 C1430 0.929 . S
C1422 H1416 0.930 . S
C1422 C1423 1.367 . S
C1422 C1430 1.378 . S
C1423 C1422 1.367 . S
C1423 C1431 1.433 . S
C1424 H1420 0.929 . S
C1424 C1426 1.378 . S
C1424 C1428 1.350 . S
C1425 C1428 1.463 . S
C1425 C1430 1.350 . S
C1425 N1433 1.427 . S
C1426 H1417 0.930 . S
C1426 C1424 1.378 . S
C1426 C1427 1.367 . S
C1427 C1426 1.367 . S
C1427 C1429 1.433 . S
C1428 C1424 1.350 . S
C1428 C1425 1.463 . S
C1428 N1432 1.427 . S
C1429 H1419 0.929 . S
C1429 C1427 1.433 . S
C1429 N1432 1.384 . S
C1430 H1421 0.929 . S
C1430 C1422 1.378 . S
C1430 C1425 1.350 . S
C1431 H1418 0.929 . S
C1431 C1423 1.433 . S
C1431 N1433 1.384 . S
N1432 C1428 1.427 . S
N1432 C1429 1.384 . S
N1433 C1425 1.427 . S
N1433 C1431 1.384 . S
H1434 C1440 0.930 . S
H1435 C1444 0.930 . S
H1436 C1449 0.929 . S
H1437 C1447 0.929 . S
H1438 C1442 0.929 . S
H1439 C1448 0.929 . S
C1440 H1434 0.930 . S
C1440 C1441 1.367 . S
C1440 C1448 1.378 . S
C1441 C1440 1.367 . S
C1441 C1449 1.433 . S
C1442 H1438 0.929 . S
C1442 C1444 1.378 . S
C1442 C1446 1.350 . S
C1443 C1446 1.463 . S
C1443 C1448 1.350 . S
C1443 N1451 1.427 . S
C1444 H1435 0.930 . S
C1444 C1442 1.378 . S
C1444 C1445 1.367 . S
C1445 C1444 1.367 . S
C1445 C1447 1.433 . S
C1446 C1442 1.350 . S
C1446 C1443 1.463 . S
C1446 N1450 1.427 . S
C1447 H1437 0.929 . S
C1447 C1445 1.433 . S
C1447 N1450 1.384 . S
C1448 H1439 0.929 . S
C1448 C1440 1.378 . S
C1448 C1443 1.350 . S
C1449 H1436 0.929 . S
C1449 C1441 1.433 . S
C1449 N1451 1.384 . S
N1450 C1446 1.427 . S
N1450 C1447 1.384 . S
N1451 C1443 1.427 . S
N1451 C1449 1.384 . S
H1452 C1458 0.930 . S
H1453 C1462 0.930 . S
H1454 C1467 0.929 . S
H1455 C1465 0.929 . S
H1456 C1460 0.929 . S
H1457 C1466 0.929 . S
C1458 H1452 0.930 . S
C1458 C1459 1.367 . S
C1458 C1466 1.378 . S
C1459 C1458 1.367 . S
C1459 C1467 1.433 . S
C1460 H1456 0.929 . S
C1460 C1462 1.378 . S
C1460 C1464 1.350 . S
C1461 C1464 1.463 . S
C1461 C1466 1.350 . S
C1461 N1469 1.427 . S
C1462 H1453 0.930 . S
C1462 C1460 1.378 . S
C1462 C1463 1.367 . S
C1463 C1462 1.367 . S
C1463 C1465 1.433 . S
C1464 C1460 1.350 . S
C1464 C1461 1.463 . S
C1464 N1468 1.427 . S
C1465 H1455 0.929 . S
C1465 C1463 1.433 . S
C1465 N1468 1.384 . S
C1466 H1457 0.929 . S
C1466 C1458 1.378 . S
C1466 C1461 1.350 . S
C1467 H1454 0.929 . S
C1467 C1459 1.433 . S
C1467 N1469 1.384 . S
N1468 C1464 1.427 . S
N1468 C1465 1.384 . S
N1469 C1461 1.427 . S
N1469 C1467 1.384 . S
H1470 C1476 0.930 . S
H1471 C1480 0.930 . S
H1472 C1485 0.929 . S
H1473 C1483 0.929 . S
H1474 C1478 0.929 . S
H1475 C1484 0.929 . S
C1476 H1470 0.930 . S
C1476 C1477 1.367 . S
C1476 C1484 1.378 . S
C1477 C1476 1.367 . S
C1477 C1485 1.433 . S
C1478 H1474 0.929 . S
C1478 C1480 1.378 . S
C1478 C1482 1.350 . S
C1479 C1482 1.463 . S
C1479 C1484 1.350 . S
C1479 N1487 1.427 . S
C1480 H1471 0.930 . S
C1480 C1478 1.378 . S
C1480 C1481 1.367 . S
C1481 C1480 1.367 . S
C1481 C1483 1.433 . S
C1482 C1478 1.350 . S
C1482 C1479 1.463 . S
C1482 N1486 1.427 . S
C1483 H1473 0.929 . S
C1483 C1481 1.433 . S
C1483 N1486 1.384 . S
C1484 H1475 0.929 . S
C1484 C1476 1.378 . S
C1484 C1479 1.350 . S
C1485 H1472 0.929 . S
C1485 C1477 1.433 . S
C1485 N1487 1.384 . S
N1486 C1482 1.427 . S
N1486 C1483 1.384 . S
N1487 C1479 1.427 . S
N1487 C1485 1.384 . S
H1488 C1494 0.930 . S
H1489 C1498 0.930 . S
H1490 C1503 0.929 . S
H1491 C1501 0.929 . S
H1492 C1496 0.929 . S
H1493 C1502 0.929 . S
C1494 H1488 0.930 . S
C1494 C1495 1.367 . S
C1494 C1502 1.378 . S
C1495 C1494 1.367 . S
C1495 C1503 1.433 . S
C1496 H1492 0.929 . S
C1496 C1498 1.378 . S
C1496 C1500 1.350 . S
C1497 C1500 1.463 . S
C1497 C1502 1.350 . S
C1497 N1505 1.427 . S
C1498 H1489 0.930 . S
C1498 C1496 1.378 . S
C1498 C1499 1.367 . S
C1499 C1498 1.367 . S
C1499 C1501 1.433 . S
C1500 C1496 1.350 . S
C1500 C1497 1.463 . S
C1500 N1504 1.427 . S
C1501 H1491 0.929 . S
C1501 C1499 1.433 . S
C1501 N1504 1.384 . S
C1502 H1493 0.929 . S
C1502 C1494 1.378 . S
C1502 C1497 1.350 . S
C1503 H1490 0.929 . S
C1503 C1495 1.433 . S
C1503 N1505 1.384 . S
N1504 C1500 1.427 . S
N1504 C1501 1.384 . S
N1505 C1497 1.427 . S
N1505 C1503 1.384 . S
H1506 C1512 0.930 . S
H1507 C1516 0.930 . S
H1508 C1521 0.929 . S
H1509 C1519 0.929 . S
H1510 C1514 0.929 . S
H1511 C1520 0.929 . S
C1512 H1506 0.930 . S
C1512 C1513 1.367 . S
C1512 C1520 1.378 . S
C1513 C1512 1.367 . S
C1513 C1521 1.433 . S
C1514 H1510 0.929 . S
C1514 C1516 1.378 . S
C1514 C1518 1.350 . S
C1515 C1518 1.463 . S
C1515 C1520 1.350 . S
C1515 N1523 1.427 . S
C1516 H1507 0.930 . S
C1516 C1514 1.378 . S
C1516 C1517 1.367 . S
C1517 C1516 1.367 . S
C1517 C1519 1.433 . S
C1518 C1514 1.350 . S
C1518 C1515 1.463 . S
C1518 N1522 1.427 . S
C1519 H1509 0.929 . S
C1519 C1517 1.433 . S
C1519 N1522 1.384 . S
C1520 H1511 0.929 . S
C1520 C1512 1.378 . S
C1520 C1515 1.350 . S
C1521 H1508 0.929 . S
C1521 C1513 1.433 . S
C1521 N1523 1.384 . S
N1522 C1518 1.427 . S
N1522 C1519 1.384 . S
N1523 C1515 1.427 . S
N1523 C1521 1.384 . S
H1524 C1530 0.930 . S
H1525 C1534 0.930 . S
H1526 C1539 0.929 . S
H1527 C1537 0.929 . S
H1528 C1532 0.929 . S
H1529 C1538 0.929 . S
C1530 H1524 0.930 . S
C1530 C1531 1.367 . S
C1530 C1538 1.378 . S
C1531 C1530 1.367 . S
C1531 C1539 1.433 . S
C1532 H1528 0.929 . S
C1532 C1534 1.378 . S
C1532 C1536 1.350 . S
C1533 C1536 1.463 . S
C1533 C1538 1.350 . S
C1533 N1541 1.427 . S
C1534 H1525 0.930 . S
C1534 C1532 1.378 . S
C1534 C1535 1.367 . S
C1535 C1534 1.367 . S
C1535 C1537 1.433 . S
C1536 C1532 1.350 . S
C1536 C1533 1.463 . S
C1536 N1540 1.427 . S
C1537 H1527 0.929 . S
C1537 C1535 1.433 . S
C1537 N1540 1.384 . S
C1538 H1529 0.929 . S
C1538 C1530 1.378 . S
C1538 C1533 1.350 . S
C1539 H1526 0.929 . S
C1539 C1531 1.433 . S
C1539 N1541 1.384 . S
N1540 C1536 1.427 . S
N1540 C1537 1.384 . S
N1541 C1533 1.427 . S
N1541 C1539 1.384 . S
H1542 C1548 0.930 . S
H1543 C1552 0.930 . S
H1544 C1557 0.929 . S
H1545 C1555 0.929 . S
H1546 C1550 0.929 . S
H1547 C1556 0.929 . S
C1548 H1542 0.930 . S
C1548 C1549 1.367 . S
C1548 C1556 1.378 . S
C1549 C1548 1.367 . S
C1549 C1557 1.433 . S
C1550 H1546 0.929 . S
C1550 C1552 1.378 . S
C1550 C1554 1.350 . S
C1551 C1554 1.463 . S
C1551 C1556 1.350 . S
C1551 N1559 1.427 . S
C1552 H1543 0.930 . S
C1552 C1550 1.378 . S
C1552 C1553 1.367 . S
C1553 C1552 1.367 . S
C1553 C1555 1.433 . S
C1554 C1550 1.350 . S
C1554 C1551 1.463 . S
C1554 N1558 1.427 . S
C1555 H1545 0.929 . S
C1555 C1553 1.433 . S
C1555 N1558 1.384 . S
C1556 H1547 0.929 . S
C1556 C1548 1.378 . S
C1556 C1551 1.350 . S
C1557 H1544 0.929 . S
C1557 C1549 1.433 . S
C1557 N1559 1.384 . S
N1558 C1554 1.427 . S
N1558 C1555 1.384 . S
N1559 C1551 1.427 . S
N1559 C1557 1.384 . S
H1560 C1566 0.930 . S
H1561 C1570 0.930 . S
H1562 C1575 0.929 . S
H1563 C1573 0.929 . S
H1564 C1568 0.929 . S
H1565 C1574 0.929 . S
C1566 H1560 0.930 . S
C1566 C1567 1.367 . S
C1566 C1574 1.378 . S
C1567 C1566 1.367 . S
C1567 C1575 1.433 . S
C1568 H1564 0.929 . S
C1568 C1570 1.378 . S
C1568 C1572 1.350 . S
C1569 C1572 1.463 . S
C1569 C1574 1.350 . S
C1569 N1577 1.427 . S
C1570 H1561 0.930 . S
C1570 C1568 1.378 . S
C1570 C1571 1.367 . S
C1571 C1570 1.367 . S
C1571 C1573 1.433 . S
C1572 C1568 1.350 . S
C1572 C1569 1.463 . S
C1572 N1576 1.427 . S
C1573 H1563 0.929 . S
C1573 C1571 1.433 . S
C1573 N1576 1.384 . S
C1574 H1565 0.929 . S
C1574 C1566 1.378 . S
C1574 C1569 1.350 . S
C1575 H1562 0.929 . S
C1575 C1567 1.433 . S
C1575 N1577 1.384 . S
N1576 C1572 1.427 . S
N1576 C1573 1.384 . S
N1577 C1569 1.427 . S
N1577 C1575 1.384 . S
H1578 C1584 0.930 . S
H1579 C1588 0.930 . S
H1580 C1593 0.929 . S
H1581 C1591 0.929 . S
H1582 C1586 0.929 . S
H1583 C1592 0.929 . S
C1584 H1578 0.930 . S
C1584 C1585 1.367 . S
C1584 C1592 1.378 . S
C1585 C1584 1.367 . S
C1585 C1593 1.433 . S
C1586 H1582 0.929 . S
C1586 C1588 1.378 . S
C1586 C1590 1.350 . S
C1587 C1590 1.463 . S
C1587 C1592 1.350 . S
C1587 N1595 1.427 . S
C1588 H1579 0.930 . S
C1588 C1586 1.378 . S
C1588 C1589 1.367 . S
C1589 C1588 1.367 . S
C1589 C1591 1.433 . S
C1590 C1586 1.350 . S
C1590 C1587 1.463 . S
C1590 N1594 1.427 . S
C1591 H1581 0.929 . S
C1591 C1589 1.433 . S
C1591 N1594 1.384 . S
C1592 H1583 0.929 . S
C1592 C1584 1.378 . S
C1592 C1587 1.350 . S
C1593 H1580 0.929 . S
C1593 C1585 1.433 . S
C1593 N1595 1.384 . S
N1594 C1590 1.427 . S
N1594 C1591 1.384 . S
N1595 C1587 1.427 . S
N1595 C1593 1.384 . S
H1596 C1602 0.930 . S
H1597 C1606 0.930 . S
H1598 C1611 0.929 . S
H1599 C1609 0.929 . S
H1600 C1604 0.929 . S
H1601 C1610 0.929 . S
C1602 H1596 0.930 . S
C1602 C1603 1.367 . S
C1602 C1610 1.378 . S
C1603 C1602 1.367 . S
C1603 C1611 1.433 . S
C1604 H1600 0.929 . S
C1604 C1606 1.378 . S
C1604 C1608 1.350 . S
C1605 C1608 1.463 . S
C1605 C1610 1.350 . S
C1605 N1613 1.427 . S
C1606 H1597 0.930 . S
C1606 C1604 1.378 . S
C1606 C1607 1.367 . S
C1607 C1606 1.367 . S
C1607 C1609 1.433 . S
C1608 C1604 1.350 . S
C1608 C1605 1.463 . S
C1608 N1612 1.427 . S
C1609 H1599 0.929 . S
C1609 C1607 1.433 . S
C1609 N1612 1.384 . S
C1610 H1601 0.929 . S
C1610 C1602 1.378 . S
C1610 C1605 1.350 . S
C1611 H1598 0.929 . S
C1611 C1603 1.433 . S
C1611 N1613 1.384 . S
N1612 C1608 1.427 . S
N1612 C1609 1.384 . S
N1613 C1605 1.427 . S
N1613 C1611 1.384 . S
H1614 C1620 0.930 . S
H1615 C1624 0.930 . S
H1616 C1629 0.929 . S
H1617 C1627 0.929 . S
H1618 C1622 0.929 . S
H1619 C1628 0.929 . S
C1620 H1614 0.930 . S
C1620 C1621 1.367 . S
C1620 C1628 1.378 . S
C1621 C1620 1.367 . S
C1621 C1629 1.433 . S
C1622 H1618 0.929 . S
C1622 C1624 1.378 . S
C1622 C1626 1.350 . S
C1623 C1626 1.463 . S
C1623 C1628 1.350 . S
C1623 N1631 1.427 . S
C1624 H1615 0.930 . S
C1624 C1622 1.378 . S
C1624 C1625 1.367 . S
C1625 C1624 1.367 . S
C1625 C1627 1.433 . S
C1626 C1622 1.350 . S
C1626 C1623 1.463 . S
C1626 N1630 1.427 . S
C1627 H1617 0.929 . S
C1627 C1625 1.433 . S
C1627 N1630 1.384 . S
C1628 H1619 0.929 . S
C1628 C1620 1.378 . S
C1628 C1623 1.350 . S
C1629 H1616 0.929 . S
C1629 C1621 1.433 . S
C1629 N1631 1.384 . S
N1630 C1626 1.427 . S
N1630 C1627 1.384 . S
N1631 C1623 1.427 . S
N1631 C1629 1.384 . S
H1632 C1638 0.930 . S
H1633 C1642 0.930 . S
H1634 C1647 0.929 . S
H1635 C1645 0.929 . S
H1636 C1640 0.929 . S
H1637 C1646 0.929 . S
C1638 H1632 0.930 . S
C1638 C1639 1.367 . S
C1638 C1646 1.378 . S
C1639 C1638 1.367 . S
C1639 C1647 1.433 . S
C1640 H1636 0.929 . S
C1640 C1642 1.378 . S
C1640 C1644 1.350 . S
C1641 C1644 1.463 . S
C1641 C1646 1.350 . S
C1641 N1649 1.427 . S
C1642 H1633 0.930 . S
C1642 C1640 1.378 . S
C1642 C1643 1.367 . S
C1643 C1642 1.367 . S
C1643 C1645 1.433 . S
C1644 C1640 1.350 . S
C1644 C1641 1.463 . S
C1644 N1648 1.427 . S
C1645 H1635 0.929 . S
C1645 C1643 1.433 . S
C1645 N1648 1.384 . S
C1646 H1637 0.929 . S
C1646 C1638 1.378 . S
C1646 C1641 1.350 . S
C1647 H1634 0.929 . S
C1647 C1639 1.433 . S
C1647 N1649 1.384 . S
N1648 C1644 1.427 . S
N1648 C1645 1.384 . S
N1649 C1641 1.427 . S
N1649 C1647 1.384 . S
H1650 C1656 0.930 . S
H1651 C1660 0.930 . S
H1652 C1665 0.929 . S
H1653 C1663 0.929 . S
H1654 C1658 0.929 . S
H1655 C1664 0.929 . S
C1656 H1650 0.930 . S
C1656 C1657 1.367 . S
C1656 C1664 1.378 . S
C1657 C1656 1.367 . S
C1657 C1665 1.433 . S
C1658 H1654 0.929 . S
C1658 C1660 1.378 . S
C1658 C1662 1.350 . S
C1659 C1662 1.463 . S
C1659 C1664 1.350 . S
C1659 N1667 1.427 . S
C1660 H1651 0.930 . S
C1660 C1658 1.378 . S
C1660 C1661 1.367 . S
C1661 C1660 1.367 . S
C1661 C1663 1.433 . S
C1662 C1658 1.350 . S
C1662 C1659 1.463 . S
C1662 N1666 1.427 . S
C1663 H1653 0.929 . S
C1663 C1661 1.433 . S
C1663 N1666 1.384 . S
C1664 H1655 0.929 . S
C1664 C1656 1.378 . S
C1664 C1659 1.350 . S
C1665 H1652 0.929 . S
C1665 C1657 1.433 . S
C1665 N1667 1.384 . S
N1666 C1662 1.427 . S
N1666 C1663 1.384 . S
N1667 C1659 1.427 . S
N1667 C1665 1.384 . S
H1668 C1674 0.930 . S
H1669 C1678 0.930 . S
H1670 C1683 0.929 . S
H1671 C1681 0.929 . S
H1672 C1676 0.929 . S
H1673 C1682 0.929 . S
C1674 H1668 0.930 . S
C1674 C1675 1.367 . S
C1674 C1682 1.378 . S
C1675 C1674 1.367 . S
C1675 C1683 1.433 . S
C1676 H1672 0.929 . S
C1676 C1678 1.378 . S
C1676 C1680 1.350 . S
C1677 C1680 1.463 . S
C1677 C1682 1.350 . S
C1677 N1685 1.427 . S
C1678 H1669 0.930 . S
C1678 C1676 1.378 . S
C1678 C1679 1.367 . S
C1679 C1678 1.367 . S
C1679 C1681 1.433 . S
C1680 C1676 1.350 . S
C1680 C1677 1.463 . S
C1680 N1684 1.427 . S
C1681 H1671 0.929 . S
C1681 C1679 1.433 . S
C1681 N1684 1.384 . S
C1682 H1673 0.929 . S
C1682 C1674 1.378 . S
C1682 C1677 1.350 . S
C1683 H1670 0.929 . S
C1683 C1675 1.433 . S
C1683 N1685 1.384 . S
N1684 C1680 1.427 . S
N1684 C1681 1.384 . S
N1685 C1677 1.427 . S
N1685 C1683 1.384 . S
H1686 C1692 0.930 . S
H1687 C1696 0.930 . S
H1688 C1701 0.929 . S
H1689 C1699 0.929 . S
H1690 C1694 0.929 . S
H1691 C1700 0.929 . S
C1692 H1686 0.930 . S
C1692 C1693 1.367 . S
C1692 C1700 1.378 . S
C1693 C1692 1.367 . S
C1693 C1701 1.433 . S
C1694 H1690 0.929 . S
C1694 C1696 1.378 . S
C1694 C1698 1.350 . S
C1695 C1698 1.463 . S
C1695 C1700 1.350 . S
C1695 N1703 1.427 . S
C1696 H1687 0.930 . S
C1696 C1694 1.378 . S
C1696 C1697 1.367 . S
C1697 C1696 1.367 . S
C1697 C1699 1.433 . S
C1698 C1694 1.350 . S
C1698 C1695 1.463 . S
C1698 N1702 1.427 . S
C1699 H1689 0.929 . S
C1699 C1697 1.433 . S
C1699 N1702 1.384 . S
C1700 H1691 0.929 . S
C1700 C1692 1.378 . S
C1700 C1695 1.350 . S
C1701 H1688 0.929 . S
C1701 C1693 1.433 . S
C1701 N1703 1.384 . S
N1702 C1698 1.427 . S
N1702 C1699 1.384 . S
N1703 C1695 1.427 . S
N1703 C1701 1.384 . S
H1704 C1710 0.930 . S
H1705 C1714 0.930 . S
H1706 C1719 0.929 . S
H1707 C1717 0.929 . S
H1708 C1712 0.929 . S
H1709 C1718 0.929 . S
C1710 H1704 0.930 . S
C1710 C1711 1.367 . S
C1710 C1718 1.378 . S
C1711 C1710 1.367 . S
C1711 C1719 1.433 . S
C1712 H1708 0.929 . S
C1712 C1714 1.378 . S
C1712 C1716 1.350 . S
C1713 C1716 1.463 . S
C1713 C1718 1.350 . S
C1713 N1721 1.427 . S
C1714 H1705 0.930 . S
C1714 C1712 1.378 . S
C1714 C1715 1.367 . S
C1715 C1714 1.367 . S
C1715 C1717 1.433 . S
C1716 C1712 1.350 . S
C1716 C1713 1.463 . S
C1716 N1720 1.427 . S
C1717 H1707 0.929 . S
C1717 C1715 1.433 . S
C1717 N1720 1.384 . S
C1718 H1709 0.929 . S
C1718 C1710 1.378 . S
C1718 C1713 1.350 . S
C1719 H1706 0.929 . S
C1719 C1711 1.433 . S
C1719 N1721 1.384 . S
N1720 C1716 1.427 . S
N1720 C1717 1.384 . S
N1721 C1713 1.427 . S
N1721 C1719 1.384 . S
H1722 C1728 0.930 . S
H1723 C1732 0.930 . S
H1724 C1737 0.929 . S
H1725 C1735 0.929 . S
H1726 C1730 0.929 . S
H1727 C1736 0.929 . S
C1728 H1722 0.930 . S
C1728 C1729 1.367 . S
C1728 C1736 1.378 . S
C1729 C1728 1.367 . S
C1729 C1737 1.433 . S
C1730 H1726 0.929 . S
C1730 C1732 1.378 . S
C1730 C1734 1.350 . S
C1731 C1734 1.463 . S
C1731 C1736 1.350 . S
C1731 N1739 1.427 . S
C1732 H1723 0.930 . S
C1732 C1730 1.378 . S
C1732 C1733 1.367 . S
C1733 C1732 1.367 . S
C1733 C1735 1.433 . S
C1734 C1730 1.350 . S
C1734 C1731 1.463 . S
C1734 N1738 1.427 . S
C1735 H1725 0.929 . S
C1735 C1733 1.433 . S
C1735 N1738 1.384 . S
C1736 H1727 0.929 . S
C1736 C1728 1.378 . S
C1736 C1731 1.350 . S
C1737 H1724 0.929 . S
C1737 C1729 1.433 . S
C1737 N1739 1.384 . S
N1738 C1734 1.427 . S
N1738 C1735 1.384 . S
N1739 C1731 1.427 . S
N1739 C1737 1.384 . S
H1740 C1746 0.930 . S
H1741 C1750 0.930 . S
H1742 C1755 0.929 . S
H1743 C1753 0.929 . S
H1744 C1748 0.929 . S
H1745 C1754 0.929 . S
C1746 H1740 0.930 . S
C1746 C1747 1.367 . S
C1746 C1754 1.378 . S
C1747 C1746 1.367 . S
C1747 C1755 1.433 . S
C1748 H1744 0.929 . S
C1748 C1750 1.378 . S
C1748 C1752 1.350 . S
C1749 C1752 1.463 . S
C1749 C1754 1.350 . S
C1749 N1757 1.427 . S
C1750 H1741 0.930 . S
C1750 C1748 1.378 . S
C1750 C1751 1.367 . S
C1751 C1750 1.367 . S
C1751 C1753 1.433 . S
C1752 C1748 1.350 . S
C1752 C1749 1.463 . S
C1752 N1756 1.427 . S
C1753 H1743 0.929 . S
C1753 C1751 1.433 . S
C1753 N1756 1.384 . S
C1754 H1745 0.929 . S
C1754 C1746 1.378 . S
C1754 C1749 1.350 . S
C1755 H1742 0.929 . S
C1755 C1747 1.433 . S
C1755 N1757 1.384 . S
N1756 C1752 1.427 . S
N1756 C1753 1.384 . S
N1757 C1749 1.427 . S
N1757 C1755 1.384 . S
H1758 C1764 0.930 . S
H1759 C1768 0.930 . S
H1760 C1773 0.929 . S
H1761 C1771 0.929 . S
H1762 C1766 0.929 . S
H1763 C1772 0.929 . S
C1764 H1758 0.930 . S
C1764 C1765 1.367 . S
C1764 C1772 1.378 . S
C1765 C1764 1.367 . S
C1765 C1773 1.433 . S
C1766 H1762 0.929 . S
C1766 C1768 1.378 . S
C1766 C1770 1.350 . S
C1767 C1770 1.463 . S
C1767 C1772 1.350 . S
C1767 N1775 1.427 . S
C1768 H1759 0.930 . S
C1768 C1766 1.378 . S
C1768 C1769 1.367 . S
C1769 C1768 1.367 . S
C1769 C1771 1.433 . S
C1770 C1766 1.350 . S
C1770 C1767 1.463 . S
C1770 N1774 1.427 . S
C1771 H1761 0.929 . S
C1771 C1769 1.433 . S
C1771 N1774 1.384 . S
C1772 H1763 0.929 . S
C1772 C1764 1.378 . S
C1772 C1767 1.350 . S
C1773 H1760 0.929 . S
C1773 C1765 1.433 . S
C1773 N1775 1.384 . S
N1774 C1770 1.427 . S
N1774 C1771 1.384 . S
N1775 C1767 1.427 . S
N1775 C1773 1.384 . S
H1776 C1782 0.930 . S
H1777 C1786 0.930 . S
H1778 C1791 0.929 . S
H1779 C1789 0.929 . S
H1780 C1784 0.929 . S
H1781 C1790 0.929 . S
C1782 H1776 0.930 . S
C1782 C1783 1.367 . S
C1782 C1790 1.378 . S
C1783 C1782 1.367 . S
C1783 C1791 1.433 . S
C1784 H1780 0.929 . S
C1784 C1786 1.378 . S
C1784 C1788 1.350 . S
C1785 C1788 1.463 . S
C1785 C1790 1.350 . S
C1785 N1793 1.427 . S
C1786 H1777 0.930 . S
C1786 C1784 1.378 . S
C1786 C1787 1.367 . S
C1787 C1786 1.367 . S
C1787 C1789 1.433 . S
C1788 C1784 1.350 . S
C1788 C1785 1.463 . S
C1788 N1792 1.427 . S
C1789 H1779 0.929 . S
C1789 C1787 1.433 . S
C1789 N1792 1.384 . S
C1790 H1781 0.929 . S
C1790 C1782 1.378 . S
C1790 C1785 1.350 . S
C1791 H1778 0.929 . S
C1791 C1783 1.433 . S
C1791 N1793 1.384 . S
N1792 C1788 1.427 . S
N1792 C1789 1.384 . S
N1793 C1785 1.427 . S
N1793 C1791 1.384 . S
H1794 C1800 0.930 . S
H1795 C1804 0.930 . S
H1796 C1809 0.929 . S
H1797 C1807 0.929 . S
H1798 C1802 0.929 . S
H1799 C1808 0.929 . S
C1800 H1794 0.930 . S
C1800 C1801 1.367 . S
C1800 C1808 1.378 . S
C1801 C1800 1.367 . S
C1801 C1809 1.433 . S
C1802 H1798 0.929 . S
C1802 C1804 1.378 . S
C1802 C1806 1.350 . S
C1803 C1806 1.463 . S
C1803 C1808 1.350 . S
C1803 N1811 1.427 . S
C1804 H1795 0.930 . S
C1804 C1802 1.378 . S
C1804 C1805 1.367 . S
C1805 C1804 1.367 . S
C1805 C1807 1.433 . S
C1806 C1802 1.350 . S
C1806 C1803 1.463 . S
C1806 N1810 1.427 . S
C1807 H1797 0.929 . S
C1807 C1805 1.433 . S
C1807 N1810 1.384 . S
C1808 H1799 0.929 . S
C1808 C1800 1.378 . S
C1808 C1803 1.350 . S
C1809 H1796 0.929 . S
C1809 C1801 1.433 . S
C1809 N1811 1.384 . S
N1810 C1806 1.427 . S
N1810 C1807 1.384 . S
N1811 C1803 1.427 . S
N1811 C1809 1.384 . S
C959 C348 1.215 . S
C955 N2 1.328 . S
C977 C435 2.141 . S
C973 C7 2.151 . S
C995 C507 1.197 . S
C991 N12 1.375 . S
C1009 C16 1.924 . S
C1013 C594 1.956 . S
C1031 C678 2.181 . S
C1027 C30 2.192 1_565 S
C1049 C768 1.087 . S
C1045 N35 1.260 . S
C1063 C39 2.042 . S
C1067 C855 2.031 . S
C1085 C927 1.144 . S
C1081 N25 1.199 . S
C1103 C343 1.109 . S
C1099 N58 1.113 . S
C1117 N81 1.865 . S
C1121 C416 1.870 . S
C1139 C519 1.177 . S
C1135 N104 1.103 . S
C1153 N127 1.171 . S
C1157 C600 0.968 . S
C1175 C684 0.761 . S
C1171 N48 0.865 . S
C1193 C763 1.456 . S
C1189 N71 1.412 1_556 S
C1207 N94 1.429 . S
C1211 C836 1.436 . S
C1229 C939 1.538 . S
C1225 N117 1.505 . S
C1243 C85 2.114 . S
C1247 C342 2.121 . S
C1261 C122 2.378 . S
C1265 C679 2.345 . S
C1279 C53 1.755 . S
C1283 C762 1.807 . S
C1301 C843 1.246 . S
C1297 C76 1.492 1_655 S
C1319 C920 1.744 . S
C1315 C99 1.828 . S
C1337 C500 1.910 . S
C1333 C131 1.949 . S
C1355 C595 1.913 . S
C1351 C62 1.950 1_565 S
C1369 C108 1.169 . S
C1373 C423 0.984 . S
C1391 C936 1.217 . S
C1387 N140 1.385 . S
C1405 C145 2.141 . S
C1409 C687 2.133 . S
C1427 C759 1.141 . S
C1423 N150 1.273 . S
C1441 C154 1.929 . S
C1445 C846 1.958 . S
C1463 C426 2.179 . S
C1459 C168 2.190 . S
C1477 N173 1.146 . S
C1481 C516 1.012 . S
C1499 C603 2.033 . S
C1495 C177 2.048 . S
C1517 C339 1.146 . S
C1513 N163 1.222 . S
C1535 C931 1.521 . S
C1531 C200 1.575 . S
C1553 C668 2.162 . S
C1549 N219 2.165 . S
C1567 N242 1.381 . S
C1571 C771 1.465 . S
C1589 C852 1.157 . S
C1585 C269 1.468 . S
C1607 C432 0.964 . S
C1603 C191 1.145 . S
C1621 N209 1.680 . S
C1625 C511 1.715 . S
C1639 N232 1.728 . S
C1643 C584 1.743 . S
C1657 C260 2.023 . S
C1661 C351 2.016 . S
C1675 C223 1.792 . S
C1679 C930 1.797 . S
C1693 N255 1.961 . S
C1697 C427 1.943 . S
C1711 N186 1.363 . S
C1715 C510 1.420 . S
C1733 C591 0.999 . S
C1729 C214 1.167 . S
C1751 C332 1.421 . S
C1747 C237 1.499 . S
C1769 C752 1.511 . S
C1765 N265 1.473 . S
C1787 C847 1.534 . S
C1783 N196 1.534 . S
C1805 C675 0.807 . S
C1801 C246 0.853 . S
