# Generated by pormake.
# Topology ocu, (6,8)-cn, num edge types: 1
# Building blocks:
#     Node 0, Type 0, BuildingBlock: BETDEL_clean_sbu_0, # of connection points: 6
#     Node 1, Type 0, BuildingBlock: BETDEL_clean_sbu_0, # of connection points: 6
#     Node 2, Type 0, BuildingBlock: BETDEL_clean_sbu_0, # of connection points: 6
#     Node 3, Type 0, BuildingBlock: BETDEL_clean_sbu_0, # of connection points: 6
#     Node 4, Type 0, BuildingBlock: BETDEL_clean_sbu_0, # of connection points: 6
#     Node 5, Type 0, BuildingBlock: BETDEL_clean_sbu_0, # of connection points: 6
#     Node 6, Type 0, BuildingBlock: BETDEL_clean_sbu_0, # of connection points: 6
#     Node 7, Type 0, BuildingBlock: BETDEL_clean_sbu_0, # of connection points: 6
#     Node 8, Type 1, BuildingBlock: GIZVER_clean_sbu_0, # of connection points: 8
#     Node 9, Type 1, BuildingBlock: GIZVER_clean_sbu_0, # of connection points: 8
#     Node 10, Type 1, BuildingBlock: GIZVER_clean_sbu_0, # of connection points: 8
#     Node 11, Type 1, BuildingBlock: GIZVER_clean_sbu_0, # of connection points: 8
#     Node 12, Type 1, BuildingBlock: GIZVER_clean_sbu_0, # of connection points: 8
#     Node 13, Type 1, BuildingBlock: GIZVER_clean_sbu_0, # of connection points: 8
#     Edge 14, Type (0, 1), None
#     Edge 15, Type (0, 1), None
#     Edge 16, Type (0, 1), None
#     Edge 17, Type (0, 1), None
#     Edge 18, Type (0, 1), None
#     Edge 19, Type (0, 1), None
#     Edge 20, Type (0, 1), None
#     Edge 21, Type (0, 1), None
#     Edge 22, Type (0, 1), None
#     Edge 23, Type (0, 1), None
#     Edge 24, Type (0, 1), None
#     Edge 25, Type (0, 1), None
#     Edge 26, Type (0, 1), None
#     Edge 27, Type (0, 1), None
#     Edge 28, Type (0, 1), None
#     Edge 29, Type (0, 1), None
#     Edge 30, Type (0, 1), None
#     Edge 31, Type (0, 1), None
#     Edge 32, Type (0, 1), None
#     Edge 33, Type (0, 1), None
#     Edge 34, Type (0, 1), None
#     Edge 35, Type (0, 1), None
#     Edge 36, Type (0, 1), None
#     Edge 37, Type (0, 1), None
#     Edge 38, Type (0, 1), None
#     Edge 39, Type (0, 1), None
#     Edge 40, Type (0, 1), None
#     Edge 41, Type (0, 1), None
#     Edge 42, Type (0, 1), None
#     Edge 43, Type (0, 1), None
#     Edge 44, Type (0, 1), None
#     Edge 45, Type (0, 1), None
#     Edge 46, Type (0, 1), None
#     Edge 47, Type (0, 1), None
#     Edge 48, Type (0, 1), None
#     Edge 49, Type (0, 1), None
#     Edge 50, Type (0, 1), None
#     Edge 51, Type (0, 1), None
#     Edge 52, Type (0, 1), None
#     Edge 53, Type (0, 1), None
#     Edge 54, Type (0, 1), None
#     Edge 55, Type (0, 1), None
#     Edge 56, Type (0, 1), None
#     Edge 57, Type (0, 1), None
#     Edge 58, Type (0, 1), None
#     Edge 59, Type (0, 1), None
#     Edge 60, Type (0, 1), None
#     Edge 61, Type (0, 1), None
# Relax obj value: 0.158
# Max RMSD: 0.237
# Mean RMSD: 0.182
data_MOF--net-ocu--node1-BETDEL_clean_sbu_0--node2-GIZVER_clean_sbu_0--edge1-none
_symmetry_space_group_name_H-M    P1
_symmetry_Int_Tables_number       1
_symmetry_cell_setting            triclinic
loop_
_symmetry_equiv_pos_as_xyz
'x, y, z'
_cell_length_a     20.561039
_cell_length_b     21.732406
_cell_length_c     16.112406
_cell_angle_alpha  91.161296
_cell_angle_beta   94.558165
_cell_angle_gamma 117.76313
loop_
_atom_site_label
_atom_site_type_symbol
_atom_site_fract_x
_atom_site_fract_y
_atom_site_fract_z
_atom_type_partial_charge
Dy0 Dy 0.37446 0.30555 0.28947 0.0
C1 C 0.19646 0.32629 0.08049 0.0
C2 C 0.40892 0.21366 0.36164 0.0
Dy3 Dy 0.25139 0.25307 0.16238 0.0
O4 O 0.4476 0.2815 0.38117 0.0
O5 O 0.35228 0.19874 0.30954 0.0
O6 O 0.44216 0.40804 0.22952 0.0
O7 O 0.36832 0.31839 0.15792 0.0
C8 C 0.41082 0.38287 0.15368 0.0
C9 C 0.21331 0.17586 0.29675 0.0
O10 O 0.30896 0.19553 0.1021 0.0
O11 O 0.41288 0.25158 0.19624 0.0
O12 O 0.15811 0.25856 0.08611 0.0
O13 O 0.26509 0.3484 0.10555 0.0
O14 O 0.18824 0.15026 0.21969 0.0
O15 O 0.25505 0.24148 0.29483 0.0
O16 O 0.32197 0.3671 0.35173 0.0
O17 O 0.2233 0.31973 0.25093 0.0
C18 C 0.37671 0.2061 0.13138 0.0
C19 C 0.25791 0.3626 0.31821 0.0
Dy20 Dy 0.84137 0.25312 0.25672 0.0
C21 C 0.66188 0.34437 0.11625 0.0
C22 C 0.93505 0.21276 0.33475 0.0
Dy23 Dy 0.75811 0.32252 0.21306 0.0
O24 O 0.91753 0.20656 0.25429 0.0
O25 O 0.89971 0.23878 0.3729 0.0
O26 O 0.74113 0.15146 0.19827 0.0
O27 O 0.76517 0.24254 0.14507 0.0
C28 C 0.71787 0.17994 0.14105 0.0
C29 C 0.84692 0.38778 0.35033 0.0
O30 O 0.68465 0.22671 0.2817 0.0
O31 O 0.78248 0.24288 0.36686 0.0
O32 O 0.6723 0.35541 0.19679 0.0
O33 O 0.70814 0.32726 0.0872 0.0
O34 O 0.78053 0.38073 0.33578 0.0
O35 O 0.86238 0.3601 0.2904 0.0
O36 O 0.9269 0.33329 0.18793 0.0
O37 O 0.86287 0.39484 0.15346 0.0
C38 C 0.71159 0.21024 0.35003 0.0
C39 C 0.92322 0.38635 0.15343 0.0
Dy40 Dy 0.75466 0.77527 0.29581 0.0
C41 C 0.92525 0.73876 0.06416 0.0
C42 C 0.74937 0.88509 0.37385 0.0
Dy43 Dy 0.85541 0.78894 0.15402 0.0
O44 O 0.70314 0.81899 0.38242 0.0
O45 O 0.79865 0.889 0.32619 0.0
O46 O 0.67079 0.66645 0.24478 0.0
O47 O 0.74275 0.73886 0.17062 0.0
C48 C 0.69755 0.67604 0.17176 0.0
C49 C 0.91869 0.87537 0.28758 0.0
O50 O 0.78375 0.83441 0.08543 0.0
O51 O 0.70961 0.82121 0.19306 0.0
O52 O 0.95278 0.80434 0.08803 0.0
O53 O 0.85677 0.70338 0.07891 0.0
O54 O 0.93768 0.89448 0.21327 0.0
O55 O 0.86983 0.81395 0.28369 0.0
O56 O 0.81111 0.7175 0.36036 0.0
O57 O 0.86804 0.71119 0.24253 0.0
C58 C 0.72765 0.84062 0.11647 0.0
C59 C 0.85169 0.69467 0.32076 0.0
Dy60 Dy 0.35598 0.75249 0.22922 0.0
C61 C 0.1903 0.87384 0.26271 0.0
C62 C 0.42132 0.67856 0.18057 0.0
Dy63 Dy 0.26511 0.80926 0.21692 0.0
O64 O 0.45057 0.7288 0.23894 0.0
O65 O 0.35437 0.66436 0.15641 0.0
O66 O 0.44843 0.85865 0.27848 0.0
O67 O 0.34504 0.82657 0.31851 0.0
C68 C 0.40904 0.87684 0.32216 0.0
C69 C 0.22395 0.71861 0.08892 0.0
O70 O 0.36494 0.88549 0.15354 0.0
O71 O 0.38213 0.79646 0.10913 0.0
O72 O 0.16061 0.81442 0.22039 0.0
O73 O 0.26108 0.90041 0.27407 0.0
O74 O 0.23586 0.7826 0.08206 0.0
O75 O 0.24365 0.70949 0.16216 0.0
O76 O 0.29282 0.68108 0.31742 0.0
O77 O 0.20074 0.71214 0.29008 0.0
C78 C 0.39965 0.86155 0.10754 0.0
C79 C 0.22485 0.66932 0.32193 0.0
Dy80 Dy 0.36321 0.72785 0.73186 0.0
C81 C 0.18673 0.8375 0.61046 0.0
C82 C 0.45961 0.70609 0.82863 0.0
Dy83 Dy 0.28024 0.79688 0.6884 0.0
O84 O 0.44951 0.69552 0.74804 0.0
O85 O 0.41295 0.72264 0.8577 0.0
O86 O 0.34077 0.66904 0.60954 0.0
O87 O 0.25884 0.68984 0.65436 0.0
C88 C 0.27438 0.66191 0.59477 0.0
C89 C 0.40388 0.87021 0.80395 0.0
O90 O 0.19457 0.71681 0.75712 0.0
O91 O 0.25862 0.65534 0.79154 0.0
O92 O 0.20424 0.84363 0.69091 0.0
O93 O 0.22201 0.81145 0.57227 0.0
O94 O 0.38087 0.89856 0.74632 0.0
O95 O 0.35627 0.80775 0.8003 0.0
O96 O 0.43666 0.82343 0.66293 0.0
O97 O 0.3387 0.80686 0.57793 0.0
C98 C 0.19825 0.66375 0.79159 0.0
C99 C 0.4096 0.83963 0.5945 0.0
Dy100 Dy 0.26637 0.26128 0.79096 0.0
C101 C 0.37199 0.16488 0.57082 0.0
C102 C 0.1966 0.31151 0.88088 0.0
Dy103 Dy 0.36699 0.27482 0.64889 0.0
O104 O 0.16907 0.24592 0.85704 0.0
O105 O 0.26506 0.34689 0.86605 0.0
O106 O 0.18396 0.15576 0.7321 0.0
O107 O 0.2518 0.23607 0.66116 0.0
C108 C 0.2028 0.1747 0.6577 0.0
C109 C 0.42394 0.37406 0.773 0.0
O110 O 0.31037 0.33248 0.58442 0.0
O111 O 0.25357 0.33889 0.70235 0.0
O112 O 0.41832 0.23096 0.5622 0.0
O113 O 0.32281 0.16107 0.61857 0.0
O114 O 0.45085 0.38374 0.70006 0.0
O115 O 0.37883 0.31122 0.77382 0.0
O116 O 0.33812 0.21594 0.85955 0.0
O117 O 0.41202 0.22888 0.75172 0.0
C118 C 0.26982 0.35532 0.62405 0.0
C119 C 0.39412 0.20962 0.82841 0.0
Dy120 Dy 0.85603 0.24081 0.72794 0.0
C121 C 0.69952 0.37111 0.76376 0.0
C122 C 0.93083 0.17621 0.68221 0.0
Dy123 Dy 0.76526 0.29739 0.71556 0.0
O124 O 0.96051 0.23564 0.72448 0.0
O125 O 0.86005 0.14964 0.67079 0.0
O126 O 0.88579 0.26743 0.86269 0.0
O127 O 0.87756 0.34068 0.78301 0.0
C128 C 0.89768 0.33142 0.85601 0.0
C129 C 0.71237 0.17304 0.62289 0.0
O130 O 0.82838 0.36876 0.62728 0.0
O131 O 0.92055 0.33788 0.65488 0.0
O132 O 0.67017 0.32038 0.70602 0.0
O133 O 0.76674 0.38592 0.78737 0.0
O134 O 0.67296 0.19108 0.66672 0.0
O135 O 0.77626 0.22348 0.6262 0.0
O136 O 0.75646 0.16462 0.79157 0.0
O137 O 0.73949 0.25376 0.83592 0.0
C138 C 0.8964 0.38061 0.62291 0.0
C139 C 0.72194 0.18867 0.83769 0.0
Dy140 Dy 0.86995 0.79679 0.78268 0.0
C141 C 0.71253 0.8364 0.58286 0.0
C142 C 0.92484 0.72352 0.86453 0.0
Dy143 Dy 0.74685 0.74449 0.65512 0.0
O144 O 0.96317 0.79124 0.85899 0.0
O145 O 0.85622 0.70141 0.83943 0.0
O146 O 0.93348 0.89961 0.72579 0.0
O147 O 0.86626 0.8086 0.65017 0.0
C148 C 0.90835 0.87422 0.64868 0.0
C149 C 0.71067 0.66721 0.79113 0.0
O150 O 0.79946 0.68302 0.59294 0.0
O151 O 0.89796 0.73012 0.69403 0.0
O152 O 0.67369 0.76855 0.5635 0.0
O153 O 0.76926 0.85132 0.63483 0.0
O154 O 0.67929 0.64196 0.71532 0.0
O155 O 0.75292 0.73166 0.78649 0.0
O156 O 0.81239 0.85432 0.84294 0.0
O157 O 0.70863 0.79865 0.74843 0.0
C158 C 0.86344 0.68741 0.6266 0.0
C159 C 0.74476 0.84398 0.81347 0.0
Co160 Co 0.09597 0.90823 0.39917 0.0
Co161 Co 0.07947 0.9026 0.53263 0.0
Co162 Co 0.06073 0.02503 0.47263 0.0
O163 O 0.11817 0.97769 0.47714 0.0
H164 H 0.17019 1.00745 0.49355 0.0
O165 O 1.00331 0.07242 0.46805 0.0
Co166 Co 1.02537 0.1418 0.54608 0.0
Co167 Co 1.04234 0.14768 0.4128 0.0
H168 H 0.95132 0.04272 0.45144 0.0
O169 O 0.13709 0.91264 0.61832 0.0
O170 O 0.11275 0.84866 0.49163 0.0
O171 O 0.98175 0.85936 0.55803 0.0
O172 O 0.9869 0.96375 0.55783 0.0
O173 O 0.12388 0.07892 0.57182 0.0
O174 O 1.03984 0.20309 0.62434 0.0
O175 O 0.93409 0.11039 0.56734 0.0
O176 O 0.12812 0.17845 0.54095 0.0
O177 O 0.13455 0.08631 0.38743 0.0
O178 O 0.14022 0.1909 0.38775 0.0
O179 O 1.00888 0.20154 0.45368 0.0
O180 O 0.98498 0.13785 0.32689 0.0
C181 C 0.15079 0.88997 0.31986 0.0
C182 C 0.96752 0.90619 0.36306 0.0
C183 C 0.95834 0.90029 0.58102 0.0
C184 C 0.14298 0.86701 0.57039 0.0
C185 C 0.97041 0.16003 0.62521 0.0
C186 C 0.15379 0.14382 0.58239 0.0
C187 C 0.16336 0.14984 0.36447 0.0
C188 C 0.97885 0.18332 0.37484 0.0
O189 O 0.08139 0.84686 0.32092 0.0
O190 O 0.18719 0.93965 0.37766 0.0
O191 O 0.99757 0.97111 0.37348 0.0
O192 O 0.9932 0.87157 0.40455 0.0
Co193 Co 0.62589 0.90546 0.90604 0.0
Co194 Co 0.61835 0.92473 0.05839 0.0
Co195 Co 0.56081 0.02507 -0.02744 0.0
O196 O 0.63248 0.98373 -0.02442 0.0
H197 H 0.68317 1.02 -0.01578 0.0
O198 O 0.48912 0.06641 0.9695 0.0
Co199 Co 0.49567 0.14465 0.03902 0.0
Co200 Co 0.50329 0.12546 0.88675 0.0
H201 H 0.43843 0.03014 0.96082 0.0
O202 O 0.70044 0.9349 0.12122 0.0
O203 O 0.63569 0.85458 0.01367 0.0
O204 O 0.52342 0.88912 0.10119 0.0
O205 O 0.48075 0.95273 0.03218 0.0
O206 O 0.6123 0.07949 0.08005 0.0
O207 O 0.49342 0.21231 0.10424 0.0
O208 O 0.39397 0.11969 0.04225 0.0
O209 O 0.60946 0.18024 0.05832 0.0
O210 O 0.64084 0.09743 0.91294 0.0
O211 O 0.59823 0.16118 0.84414 0.0
O212 O 0.48593 0.1956 0.93139 0.0
O213 O 0.42131 0.11531 0.82375 0.0
C214 C 0.69974 0.87223 0.85546 0.0
C215 C 0.47891 0.90432 0.85533 0.0
C216 C 0.47273 0.90568 0.08144 0.0
C217 C 0.6901 0.88022 0.07622 0.0
C218 C 0.42176 0.17784 0.08947 0.0
C219 C 0.64272 0.14581 0.08982 0.0
C220 C 0.64891 0.1446 0.86386 0.0
C221 C 0.43167 0.17003 0.86868 0.0
O222 O 0.62808 0.83777 0.84078 0.0
O223 O 0.72757 0.93039 0.90268 0.0
O224 O 0.50933 0.97064 0.86508 0.0
O225 O 0.51214 0.86988 0.88688 0.0
Co226 Co 0.09748 0.39317 0.942 0.0
Co227 Co 0.12915 0.45094 0.09244 0.0
Co228 Co 0.06078 0.52502 -0.0275 0.0
O229 O 0.12677 0.48357 -0.01167 0.0
H230 H 0.17671 0.51615 -0.02151 0.0
O231 O 0.99479 0.56648 0.95672 0.0
Co232 Co 1.0242 0.65694 0.00298 0.0
Co233 Co 0.99232 0.599 0.85258 0.0
H234 H 0.94486 0.53394 0.96665 0.0
O235 O 0.20744 0.43479 0.13044 0.0
O236 O 0.1042 0.36181 0.05179 0.0
O237 O 1.05079 0.43867 0.15548 0.0
O238 O 0.98996 0.46672 0.05532 0.0
O239 O 0.12814 0.60035 0.06005 0.0
O240 O 1.04013 0.73976 0.0462 0.0
O241 O 0.93337 0.63936 0.01848 0.0
O242 O 0.12334 0.68445 -0.00935 0.0
O243 O 0.13157 0.58332 0.88967 0.0
O244 O 0.07067 0.61131 0.78951 0.0
O245 O 1.01724 0.68815 0.89313 0.0
O246 O 0.91394 0.61503 0.81464 0.0
C247 C 0.15346 0.34521 0.90214 0.0
C248 C 0.96317 0.38622 0.90429 0.0
C249 C 0.99215 0.43792 0.12301 0.0
C250 C 0.16706 0.37504 0.08947 0.0
C251 C 0.96835 0.70501 0.0429 0.0
C252 C 0.15847 0.66381 0.04062 0.0
C253 C 0.12933 0.61212 0.82199 0.0
C254 C 0.9543 0.67481 0.85557 0.0
O255 O 0.08167 0.31043 0.8987 0.0
O256 O 0.18838 0.41083 0.92668 0.0
O257 O 0.99342 0.4497 0.88494 0.0
O258 O 0.99832 0.36557 0.95417 0.0
Co259 Co 0.59574 0.40494 0.89212 0.0
Co260 Co 0.5534 0.39441 0.01402 0.0
Co261 Co 0.56072 0.52508 0.97234 0.0
O262 O 0.61298 0.47345 0.97127 0.0
H263 H 0.6626 0.497 -0.00093 0.0
O264 O 0.50846 0.57671 -0.0267 0.0
Co265 Co 0.52548 0.64504 0.05255 0.0
Co266 Co 0.56809 0.65584 0.93071 0.0
H267 H 0.45889 0.55318 0.94538 0.0
O268 O 0.59316 0.40056 0.1089 0.0
O269 O 0.59526 0.34249 -0.01348 0.0
O270 O 0.44957 0.36077 0.02816 0.0
O271 O 0.49539 0.47167 0.0669 0.0
O272 O 0.63319 0.58202 0.06948 0.0
O273 O 0.53492 0.70558 0.131 0.0
O274 O 0.43162 0.61709 0.06336 0.0
O275 O 0.62502 0.67876 0.05656 0.0
O276 O 0.62607 0.57851 0.87785 0.0
O277 O 0.67195 0.68941 0.91669 0.0
O278 O 0.52615 0.70771 0.95831 0.0
O279 O 0.52839 0.64992 0.83579 0.0
C280 C 0.65648 0.38569 0.81932 0.0
C281 C 0.47051 0.40632 0.84991 0.0
C282 C 0.44974 0.40741 0.07615 0.0
C283 C 0.61335 0.36174 0.06727 0.0
C284 C 0.46452 0.66409 0.12518 0.0
C285 C 0.65073 0.64372 0.09499 0.0
C286 C 0.67176 0.64276 0.86867 0.0
C287 C 0.50812 0.68861 0.87753 0.0
O288 O 0.58608 0.34421 0.81378 0.0
O289 O 0.68954 0.4328 0.881 0.0
O290 O 0.48827 0.46812 0.8752 0.0
O291 O 0.49623 0.3713 0.88837 0.0
Co292 Co 0.19679 0.46111 0.52097 0.0
Co293 Co 0.16109 0.46283 0.37464 0.0
Co294 Co 0.06066 0.52494 0.47245 0.0
O295 O 0.10151 0.45161 0.45995 0.0
H296 H 0.06213 0.40423 0.45759 0.0
O297 O 1.01982 0.59826 0.48494 0.0
Co298 Co 0.92458 0.58878 0.42388 0.0
Co299 Co 0.96023 0.5871 0.57023 0.0
H300 H 1.0592 0.64564 0.48729 0.0
O301 O 0.15508 0.38808 0.30951 0.0
O302 O 0.24172 0.44722 0.41561 0.0
O303 O 0.19719 0.55458 0.33925 0.0
O304 O 0.11889 0.58974 0.38582 0.0
O305 O 0.97278 0.46752 0.38956 0.0
O306 O 0.84334 0.58526 0.3638 0.0
O307 O 0.95085 0.68068 0.40173 0.0
O308 O 0.88416 0.49051 0.43348 0.0
O309 O 1.0024 0.46017 0.55909 0.0
O310 O 0.92409 0.49535 0.60559 0.0
O311 O 0.87963 0.60275 0.52921 0.0
O312 O 0.96624 0.66188 0.63534 0.0
C313 C 0.23829 0.3975 0.58027 0.0
C314 C 0.21666 0.59977 0.547 0.0
C315 C 0.17558 0.60021 0.3487 0.0
C316 C 0.21661 0.39989 0.35223 0.0
C317 C 0.88315 0.65243 0.36455 0.0
C318 C 0.90467 0.45001 0.398 0.0
C319 C 0.94568 0.44972 0.59615 0.0
C320 C 0.90473 0.65008 0.5926 0.0
O321 O 0.27806 0.46468 0.581 0.0
O322 O 0.17058 0.36922 0.54311 0.0
O323 O 0.14853 0.58232 0.55533 0.0
O324 O 0.23716 0.55933 0.51137 0.0
Co325 Co 0.67844 0.97172 0.52425 0.0
Co326 Co 0.68428 1.00904 0.37804 0.0
Co327 Co 0.56066 0.02499 0.47237 0.0
O328 O 0.61214 0.97537 0.4438 0.0
H329 H 0.5773 0.92946 0.41961 0.0
O330 O 0.50914 0.07459 0.50094 0.0
Co331 Co 0.44296 0.0783 0.42035 0.0
Co332 Co 0.43674 0.04074 0.56637 0.0
H333 H 0.54395 0.12047 0.52525 0.0
O334 O 0.68785 0.94341 0.30931 0.0
O335 O 0.74747 0.98582 0.43869 0.0
O336 O 0.71101 0.10267 0.35296 0.0
O337 O 0.62514 0.11467 0.41876 0.0
O338 O 0.50417 0.98876 0.36269 0.0
O339 O 0.38553 0.09566 0.34869 0.0
O340 O 0.48135 0.17136 0.43842 0.0
O341 O 0.39604 0.97391 0.39032 0.0
O342 O 0.49618 0.93531 0.52601 0.0
O343 O 0.40981 0.94702 0.59109 0.0
O344 O 0.37378 0.0642 0.50572 0.0
O345 O 0.43312 0.10621 0.6353 0.0
C346 C 0.69435 0.89132 0.56153 0.0
C347 C 0.68554 0.10042 0.58532 0.0
C348 C 0.67851 0.13764 0.37289 0.0
C349 C 0.72792 0.94074 0.37458 0.0
C350 C 0.42711 0.15874 0.38301 0.0
C351 C 0.43583 0.94955 0.3594 0.0
C352 C 0.4425 0.91217 0.57143 0.0
C353 C 0.39328 0.10913 0.56997 0.0
O354 O 0.73599 0.95442 0.59579 0.0
O355 O 0.64005 0.87868 0.50622 0.0
O356 O 0.61719 0.06122 0.58204 0.0
O357 O 0.72532 0.0761 0.55428 0.0
loop_
_geom_bond_atom_site_label_1
_geom_bond_atom_site_label_2
_geom_bond_distance
_geom_bond_site_symmetry_2
_ccdc_geom_bond_type
Dy0 O4 2.398 . S
Dy0 O5 2.491 . S
Dy0 O6 2.403 . S
Dy0 O7 2.664 . S
Dy0 O11 2.326 . S
Dy0 O15 2.310 . S
Dy0 O16 2.351 . S
C1 O12 1.185 . S
C1 O13 1.355 . S
C2 O4 1.185 . S
C2 O5 1.355 . S
Dy3 O7 2.310 . S
Dy3 O10 2.351 . S
Dy3 O12 2.398 . S
Dy3 O13 2.491 . S
Dy3 O14 2.403 . S
Dy3 O15 2.664 . S
Dy3 O17 2.326 . S
O4 Dy0 2.398 . S
O4 C2 1.185 . S
O5 Dy0 2.491 . S
O5 C2 1.355 . S
O6 Dy0 2.403 . S
O6 C8 1.254 . S
O7 Dy0 2.664 . S
O7 Dy3 2.310 . S
O7 C8 1.268 . S
C8 O6 1.254 . S
C8 O7 1.268 . S
C9 O14 1.254 . S
C9 O15 1.268 . S
O10 Dy3 2.351 . S
O10 C18 1.249 . S
O11 Dy0 2.326 . S
O11 C18 1.267 . S
O12 C1 1.185 . S
O12 Dy3 2.398 . S
O13 C1 1.355 . S
O13 Dy3 2.491 . S
O14 Dy3 2.403 . S
O14 C9 1.254 . S
O15 Dy0 2.310 . S
O15 Dy3 2.664 . S
O15 C9 1.268 . S
O16 Dy0 2.351 . S
O16 C19 1.249 . S
O17 Dy3 2.326 . S
O17 C19 1.267 . S
C18 O10 1.249 . S
C18 O11 1.267 . S
C19 O16 1.249 . S
C19 O17 1.267 . S
Dy20 O24 2.398 . S
Dy20 O25 2.491 . S
Dy20 O26 2.403 . S
Dy20 O27 2.664 . S
Dy20 O31 2.326 . S
Dy20 O35 2.310 . S
Dy20 O36 2.351 . S
C21 O32 1.185 . S
C21 O33 1.355 . S
C22 O24 1.185 . S
C22 O25 1.355 . S
Dy23 O27 2.310 . S
Dy23 O30 2.351 . S
Dy23 O32 2.398 . S
Dy23 O33 2.491 . S
Dy23 O34 2.403 . S
Dy23 O35 2.664 . S
Dy23 O37 2.326 . S
O24 Dy20 2.398 . S
O24 C22 1.185 . S
O25 Dy20 2.491 . S
O25 C22 1.355 . S
O26 Dy20 2.403 . S
O26 C28 1.254 . S
O27 Dy20 2.664 . S
O27 Dy23 2.310 . S
O27 C28 1.268 . S
C28 O26 1.254 . S
C28 O27 1.268 . S
C29 O34 1.254 . S
C29 O35 1.268 . S
O30 Dy23 2.351 . S
O30 C38 1.249 . S
O31 Dy20 2.326 . S
O31 C38 1.267 . S
O32 C21 1.185 . S
O32 Dy23 2.398 . S
O33 C21 1.355 . S
O33 Dy23 2.491 . S
O34 Dy23 2.403 . S
O34 C29 1.254 . S
O35 Dy20 2.310 . S
O35 Dy23 2.664 . S
O35 C29 1.268 . S
O36 Dy20 2.351 . S
O36 C39 1.249 . S
O37 Dy23 2.326 . S
O37 C39 1.267 . S
C38 O30 1.249 . S
C38 O31 1.267 . S
C39 O36 1.249 . S
C39 O37 1.267 . S
Dy40 O44 2.398 . S
Dy40 O45 2.491 . S
Dy40 O46 2.403 . S
Dy40 O47 2.664 . S
Dy40 O51 2.326 . S
Dy40 O55 2.310 . S
Dy40 O56 2.351 . S
C41 O52 1.185 . S
C41 O53 1.355 . S
C42 O44 1.185 . S
C42 O45 1.355 . S
Dy43 O47 2.310 . S
Dy43 O50 2.351 . S
Dy43 O52 2.398 . S
Dy43 O53 2.491 . S
Dy43 O54 2.403 . S
Dy43 O55 2.664 . S
Dy43 O57 2.326 . S
O44 Dy40 2.398 . S
O44 C42 1.185 . S
O45 Dy40 2.491 . S
O45 C42 1.355 . S
O46 Dy40 2.403 . S
O46 C48 1.254 . S
O47 Dy40 2.664 . S
O47 Dy43 2.310 . S
O47 C48 1.268 . S
C48 O46 1.254 . S
C48 O47 1.268 . S
C49 O54 1.254 . S
C49 O55 1.268 . S
O50 Dy43 2.351 . S
O50 C58 1.249 . S
O51 Dy40 2.326 . S
O51 C58 1.267 . S
O52 C41 1.185 . S
O52 Dy43 2.398 . S
O53 C41 1.355 . S
O53 Dy43 2.491 . S
O54 Dy43 2.403 . S
O54 C49 1.254 . S
O55 Dy40 2.310 . S
O55 Dy43 2.664 . S
O55 C49 1.268 . S
O56 Dy40 2.351 . S
O56 C59 1.249 . S
O57 Dy43 2.326 . S
O57 C59 1.267 . S
C58 O50 1.249 . S
C58 O51 1.267 . S
C59 O56 1.249 . S
C59 O57 1.267 . S
Dy60 O64 2.398 . S
Dy60 O65 2.491 . S
Dy60 O66 2.403 . S
Dy60 O67 2.664 . S
Dy60 O71 2.326 . S
Dy60 O75 2.310 . S
Dy60 O76 2.351 . S
C61 O72 1.185 . S
C61 O73 1.355 . S
C62 O64 1.185 . S
C62 O65 1.355 . S
Dy63 O67 2.310 . S
Dy63 O70 2.351 . S
Dy63 O72 2.398 . S
Dy63 O73 2.491 . S
Dy63 O74 2.403 . S
Dy63 O75 2.664 . S
Dy63 O77 2.326 . S
O64 Dy60 2.398 . S
O64 C62 1.185 . S
O65 Dy60 2.491 . S
O65 C62 1.355 . S
O66 Dy60 2.403 . S
O66 C68 1.254 . S
O67 Dy60 2.664 . S
O67 Dy63 2.310 . S
O67 C68 1.268 . S
C68 O66 1.254 . S
C68 O67 1.268 . S
C69 O74 1.254 . S
C69 O75 1.268 . S
O70 Dy63 2.351 . S
O70 C78 1.249 . S
O71 Dy60 2.326 . S
O71 C78 1.267 . S
O72 C61 1.185 . S
O72 Dy63 2.398 . S
O73 C61 1.355 . S
O73 Dy63 2.491 . S
O74 Dy63 2.403 . S
O74 C69 1.254 . S
O75 Dy60 2.310 . S
O75 Dy63 2.664 . S
O75 C69 1.268 . S
O76 Dy60 2.351 . S
O76 C79 1.249 . S
O77 Dy63 2.326 . S
O77 C79 1.267 . S
C78 O70 1.249 . S
C78 O71 1.267 . S
C79 O76 1.249 . S
C79 O77 1.267 . S
Dy80 O84 2.398 . S
Dy80 O85 2.491 . S
Dy80 O86 2.403 . S
Dy80 O87 2.664 . S
Dy80 O91 2.326 . S
Dy80 O95 2.310 . S
Dy80 O96 2.351 . S
C81 O92 1.185 . S
C81 O93 1.355 . S
C82 O84 1.185 . S
C82 O85 1.355 . S
Dy83 O87 2.310 . S
Dy83 O90 2.351 . S
Dy83 O92 2.398 . S
Dy83 O93 2.491 . S
Dy83 O94 2.403 . S
Dy83 O95 2.664 . S
Dy83 O97 2.326 . S
O84 Dy80 2.398 . S
O84 C82 1.185 . S
O85 Dy80 2.491 . S
O85 C82 1.355 . S
O86 Dy80 2.403 . S
O86 C88 1.254 . S
O87 Dy80 2.664 . S
O87 Dy83 2.310 . S
O87 C88 1.268 . S
C88 O86 1.254 . S
C88 O87 1.268 . S
C89 O94 1.254 . S
C89 O95 1.268 . S
O90 Dy83 2.351 . S
O90 C98 1.249 . S
O91 Dy80 2.326 . S
O91 C98 1.267 . S
O92 C81 1.185 . S
O92 Dy83 2.398 . S
O93 C81 1.355 . S
O93 Dy83 2.491 . S
O94 Dy83 2.403 . S
O94 C89 1.254 . S
O95 Dy80 2.310 . S
O95 Dy83 2.664 . S
O95 C89 1.268 . S
O96 Dy80 2.351 . S
O96 C99 1.249 . S
O97 Dy83 2.326 . S
O97 C99 1.267 . S
C98 O90 1.249 . S
C98 O91 1.267 . S
C99 O96 1.249 . S
C99 O97 1.267 . S
Dy100 O104 2.398 . S
Dy100 O105 2.491 . S
Dy100 O106 2.403 . S
Dy100 O107 2.664 . S
Dy100 O111 2.326 . S
Dy100 O115 2.310 . S
Dy100 O116 2.351 . S
C101 O112 1.185 . S
C101 O113 1.355 . S
C102 O104 1.185 . S
C102 O105 1.355 . S
Dy103 O107 2.310 . S
Dy103 O110 2.351 . S
Dy103 O112 2.398 . S
Dy103 O113 2.491 . S
Dy103 O114 2.403 . S
Dy103 O115 2.664 . S
Dy103 O117 2.326 . S
O104 Dy100 2.398 . S
O104 C102 1.185 . S
O105 Dy100 2.491 . S
O105 C102 1.355 . S
O106 Dy100 2.403 . S
O106 C108 1.254 . S
O107 Dy100 2.664 . S
O107 Dy103 2.310 . S
O107 C108 1.268 . S
C108 O106 1.254 . S
C108 O107 1.268 . S
C109 O114 1.254 . S
C109 O115 1.268 . S
O110 Dy103 2.351 . S
O110 C118 1.249 . S
O111 Dy100 2.326 . S
O111 C118 1.267 . S
O112 C101 1.185 . S
O112 Dy103 2.398 . S
O113 C101 1.355 . S
O113 Dy103 2.491 . S
O114 Dy103 2.403 . S
O114 C109 1.254 . S
O115 Dy100 2.310 . S
O115 Dy103 2.664 . S
O115 C109 1.268 . S
O116 Dy100 2.351 . S
O116 C119 1.249 . S
O117 Dy103 2.326 . S
O117 C119 1.267 . S
C118 O110 1.249 . S
C118 O111 1.267 . S
C119 O116 1.249 . S
C119 O117 1.267 . S
Dy120 O124 2.398 . S
Dy120 O125 2.491 . S
Dy120 O126 2.403 . S
Dy120 O127 2.664 . S
Dy120 O131 2.326 . S
Dy120 O135 2.310 . S
Dy120 O136 2.351 . S
C121 O132 1.185 . S
C121 O133 1.355 . S
C122 O124 1.185 . S
C122 O125 1.355 . S
Dy123 O127 2.310 . S
Dy123 O130 2.351 . S
Dy123 O132 2.398 . S
Dy123 O133 2.491 . S
Dy123 O134 2.403 . S
Dy123 O135 2.664 . S
Dy123 O137 2.326 . S
O124 Dy120 2.398 . S
O124 C122 1.185 . S
O125 Dy120 2.491 . S
O125 C122 1.355 . S
O126 Dy120 2.403 . S
O126 C128 1.254 . S
O127 Dy120 2.664 . S
O127 Dy123 2.310 . S
O127 C128 1.268 . S
C128 O126 1.254 . S
C128 O127 1.268 . S
C129 O134 1.254 . S
C129 O135 1.268 . S
O130 Dy123 2.351 . S
O130 C138 1.249 . S
O131 Dy120 2.326 . S
O131 C138 1.267 . S
O132 C121 1.185 . S
O132 Dy123 2.398 . S
O133 C121 1.355 . S
O133 Dy123 2.491 . S
O134 Dy123 2.403 . S
O134 C129 1.254 . S
O135 Dy120 2.310 . S
O135 Dy123 2.664 . S
O135 C129 1.268 . S
O136 Dy120 2.351 . S
O136 C139 1.249 . S
O137 Dy123 2.326 . S
O137 C139 1.267 . S
C138 O130 1.249 . S
C138 O131 1.267 . S
C139 O136 1.249 . S
C139 O137 1.267 . S
Dy140 O144 2.398 . S
Dy140 O145 2.491 . S
Dy140 O146 2.403 . S
Dy140 O147 2.664 . S
Dy140 O151 2.326 . S
Dy140 O155 2.310 . S
Dy140 O156 2.351 . S
C141 O152 1.185 . S
C141 O153 1.355 . S
C142 O144 1.185 . S
C142 O145 1.355 . S
Dy143 O147 2.310 . S
Dy143 O150 2.351 . S
Dy143 O152 2.398 . S
Dy143 O153 2.491 . S
Dy143 O154 2.403 . S
Dy143 O155 2.664 . S
Dy143 O157 2.326 . S
O144 Dy140 2.398 . S
O144 C142 1.185 . S
O145 Dy140 2.491 . S
O145 C142 1.355 . S
O146 Dy140 2.403 . S
O146 C148 1.254 . S
O147 Dy140 2.664 . S
O147 Dy143 2.310 . S
O147 C148 1.268 . S
C148 O146 1.254 . S
C148 O147 1.268 . S
C149 O154 1.254 . S
C149 O155 1.268 . S
O150 Dy143 2.351 . S
O150 C158 1.249 . S
O151 Dy140 2.326 . S
O151 C158 1.267 . S
O152 C141 1.185 . S
O152 Dy143 2.398 . S
O153 C141 1.355 . S
O153 Dy143 2.491 . S
O154 Dy143 2.403 . S
O154 C149 1.254 . S
O155 Dy140 2.310 . S
O155 Dy143 2.664 . S
O155 C149 1.268 . S
O156 Dy140 2.351 . S
O156 C159 1.249 . S
O157 Dy143 2.326 . S
O157 C159 1.267 . S
C158 O150 1.249 . S
C158 O151 1.267 . S
C159 O156 1.249 . S
C159 O157 1.267 . S
Co160 O163 2.042 . S
Co160 O170 2.264 . S
Co160 O189 2.286 . S
Co160 O190 2.069 . S
Co160 O192 2.015 1_455 S
Co161 O163 2.122 . S
Co161 O169 2.073 . S
Co161 O170 2.327 . S
Co161 O171 1.976 1_455 S
Co162 O163 2.085 1_545 S
Co162 O165 2.089 1_455 S
Co162 O172 2.109 1_445 S
Co162 O173 2.146 . S
Co162 O177 2.113 . S
Co162 O191 2.141 1_445 S
O163 Co160 2.042 . S
O163 Co161 2.122 . S
O163 Co162 2.085 1_565 S
O163 H164 0.980 . S
H164 O163 0.980 . S
O165 Co162 2.089 1_655 S
O165 Co166 2.042 . S
O165 Co167 2.122 . S
O165 H168 0.980 . S
Co166 O165 2.042 . S
Co166 O174 2.286 . S
Co166 O175 2.069 . S
Co166 O176 2.015 1_655 S
Co166 O179 2.264 . S
Co167 O165 2.122 . S
Co167 O178 1.976 1_655 S
Co167 O179 2.327 . S
Co167 O180 2.073 . S
H168 O165 0.980 . S
O169 Co161 2.073 . S
O169 C184 1.245 . S
O170 Co160 2.264 . S
O170 Co161 2.327 . S
O170 C184 1.257 . S
O171 Co161 1.976 1_655 S
O171 C183 1.251 . S
O172 Co162 2.109 1_665 S
O172 C183 1.274 . S
O173 Co162 2.146 . S
O173 C186 1.246 . S
O174 Co166 2.286 . S
O174 C185 1.259 . S
O175 Co166 2.069 . S
O175 C185 1.289 . S
O176 Co166 2.015 1_455 S
O176 C186 1.257 . S
O177 Co162 2.113 . S
O177 C187 1.274 . S
O178 Co167 1.976 1_455 S
O178 C187 1.251 . S
O179 Co166 2.264 . S
O179 Co167 2.327 . S
O179 C188 1.257 . S
O180 Co167 2.073 . S
O180 C188 1.245 . S
C181 O189 1.259 . S
C181 O190 1.289 . S
C182 O191 1.246 . S
C182 O192 1.257 . S
C183 O171 1.251 . S
C183 O172 1.274 . S
C184 O169 1.245 . S
C184 O170 1.257 . S
C185 O174 1.259 . S
C185 O175 1.289 . S
C186 O173 1.246 . S
C186 O176 1.257 . S
C187 O177 1.274 . S
C187 O178 1.251 . S
C188 O179 1.257 . S
C188 O180 1.245 . S
O189 Co160 2.286 . S
O189 C181 1.259 . S
O190 Co160 2.069 . S
O190 C181 1.289 . S
O191 Co162 2.141 1_665 S
O191 C182 1.246 . S
O192 Co160 2.015 1_655 S
O192 C182 1.257 . S
Co193 O196 2.042 1_556 S
Co193 O203 2.264 1_556 S
Co193 O222 2.286 . S
Co193 O223 2.069 . S
Co193 O225 2.015 . S
Co194 O196 2.122 . S
Co194 O202 2.073 . S
Co194 O203 2.327 . S
Co194 O204 1.976 . S
Co195 O196 2.083 1_545 S
Co195 O198 2.091 1_554 S
Co195 O205 2.110 1_545 S
Co195 O206 2.146 . S
Co195 O210 2.112 1_554 S
Co195 O224 2.141 1_544 S
O196 Co193 2.042 1_554 S
O196 Co194 2.122 . S
O196 Co195 2.083 1_565 S
O196 H197 0.980 . S
H197 O196 0.980 . S
O198 Co195 2.091 1_556 S
O198 Co199 2.042 1_556 S
O198 Co200 2.122 . S
O198 H201 0.980 . S
Co199 O198 2.042 1_554 S
Co199 O207 2.286 . S
Co199 O208 2.069 . S
Co199 O209 2.015 . S
Co199 O212 2.264 1_554 S
Co200 O198 2.122 . S
Co200 O211 1.976 . S
Co200 O212 2.327 . S
Co200 O213 2.073 . S
H201 O198 0.980 . S
O202 Co194 2.073 . S
O202 C217 1.245 . S
O203 Co193 2.264 1_554 S
O203 Co194 2.327 . S
O203 C217 1.257 . S
O204 Co194 1.976 . S
O204 C216 1.251 . S
O205 Co195 2.110 1_565 S
O205 C216 1.274 . S
O206 Co195 2.146 . S
O206 C219 1.246 . S
O207 Co199 2.286 . S
O207 C218 1.259 . S
O208 Co199 2.069 . S
O208 C218 1.289 . S
O209 Co199 2.015 . S
O209 C219 1.257 . S
O210 Co195 2.112 1_556 S
O210 C220 1.274 . S
O211 Co200 1.976 . S
O211 C220 1.251 . S
O212 Co199 2.264 1_556 S
O212 Co200 2.327 . S
O212 C221 1.257 . S
O213 Co200 2.073 . S
O213 C221 1.245 . S
C214 O222 1.259 . S
C214 O223 1.289 . S
C215 O224 1.246 . S
C215 O225 1.257 . S
C216 O204 1.251 . S
C216 O205 1.274 . S
C217 O202 1.245 . S
C217 O203 1.257 . S
C218 O207 1.259 . S
C218 O208 1.289 . S
C219 O206 1.246 . S
C219 O209 1.257 . S
C220 O210 1.274 . S
C220 O211 1.251 . S
C221 O212 1.257 . S
C221 O213 1.245 . S
O222 Co193 2.286 . S
O222 C214 1.259 . S
O223 Co193 2.069 . S
O223 C214 1.289 . S
O224 Co195 2.141 1_566 S
O224 C215 1.246 . S
O225 Co193 2.015 . S
O225 C215 1.257 . S
Co226 O229 2.042 1_556 S
Co226 O236 2.264 1_556 S
Co226 O255 2.286 . S
Co226 O256 2.069 . S
Co226 O258 2.015 1_455 S
Co227 O229 2.122 . S
Co227 O235 2.073 . S
Co227 O236 2.327 . S
Co227 O237 1.976 1_455 S
Co228 O229 2.089 . S
Co228 O231 2.085 1_454 S
Co228 O238 2.110 1_455 S
Co228 O239 2.144 . S
Co228 O243 2.112 1_554 S
Co228 O257 2.143 1_454 S
O229 Co226 2.042 1_554 S
O229 Co227 2.122 . S
O229 Co228 2.089 . S
O229 H230 0.980 . S
H230 O229 0.980 . S
O231 Co228 2.085 1_656 S
O231 Co232 2.042 1_556 S
O231 Co233 2.122 . S
O231 H234 0.980 . S
Co232 O231 2.042 1_554 S
Co232 O240 2.286 . S
Co232 O241 2.069 . S
Co232 O242 2.015 1_655 S
Co232 O245 2.264 1_554 S
Co233 O231 2.122 . S
Co233 O244 1.976 1_655 S
Co233 O245 2.327 . S
Co233 O246 2.073 . S
H234 O231 0.980 . S
O235 Co227 2.073 . S
O235 C250 1.245 . S
O236 Co226 2.264 1_554 S
O236 Co227 2.327 . S
O236 C250 1.257 . S
O237 Co227 1.976 1_655 S
O237 C249 1.251 . S
O238 Co228 2.110 1_655 S
O238 C249 1.274 . S
O239 Co228 2.144 . S
O239 C252 1.246 . S
O240 Co232 2.286 . S
O240 C251 1.259 . S
O241 Co232 2.069 . S
O241 C251 1.289 . S
O242 Co232 2.015 1_455 S
O242 C252 1.257 . S
O243 Co228 2.112 1_556 S
O243 C253 1.274 . S
O244 Co233 1.976 1_455 S
O244 C253 1.251 . S
O245 Co232 2.264 1_556 S
O245 Co233 2.327 . S
O245 C254 1.257 . S
O246 Co233 2.073 . S
O246 C254 1.245 . S
C247 O255 1.259 . S
C247 O256 1.289 . S
C248 O257 1.246 . S
C248 O258 1.257 . S
C249 O237 1.251 . S
C249 O238 1.274 . S
C250 O235 1.245 . S
C250 O236 1.257 . S
C251 O240 1.259 . S
C251 O241 1.289 . S
C252 O239 1.246 . S
C252 O242 1.257 . S
C253 O243 1.274 . S
C253 O244 1.251 . S
C254 O245 1.257 . S
C254 O246 1.245 . S
O255 Co226 2.286 . S
O255 C247 1.259 . S
O256 Co226 2.069 . S
O256 C247 1.289 . S
O257 Co228 2.143 1_656 S
O257 C248 1.246 . S
O258 Co226 2.015 1_655 S
O258 C248 1.257 . S
Co259 O262 2.042 1_556 S
Co259 O269 2.264 1_556 S
Co259 O288 2.286 . S
Co259 O289 2.069 . S
Co259 O291 2.015 . S
Co260 O262 2.122 . S
Co260 O268 2.073 . S
Co260 O269 2.327 . S
Co260 O270 1.976 . S
Co261 O262 2.087 . S
Co261 O264 2.087 1_554 S
Co261 O271 2.111 . S
Co261 O272 2.143 . S
Co261 O276 2.111 1_554 S
Co261 O290 2.143 1_554 S
O262 Co259 2.042 1_554 S
O262 Co260 2.122 . S
O262 Co261 2.087 . S
O262 H263 0.980 . S
H263 O262 0.980 . S
O264 Co261 2.087 1_556 S
O264 Co265 2.042 1_556 S
O264 Co266 2.122 . S
O264 H267 0.980 . S
Co265 O264 2.042 1_554 S
Co265 O273 2.286 . S
Co265 O274 2.069 . S
Co265 O275 2.015 . S
Co265 O278 2.264 1_554 S
Co266 O264 2.122 . S
Co266 O277 1.976 . S
Co266 O278 2.327 . S
Co266 O279 2.073 . S
H267 O264 0.980 . S
O268 Co260 2.073 . S
O268 C283 1.245 . S
O269 Co259 2.264 1_554 S
O269 Co260 2.327 . S
O269 C283 1.257 . S
O270 Co260 1.976 . S
O270 C282 1.251 . S
O271 Co261 2.111 . S
O271 C282 1.274 . S
O272 Co261 2.143 . S
O272 C285 1.246 . S
O273 Co265 2.286 . S
O273 C284 1.259 . S
O274 Co265 2.069 . S
O274 C284 1.289 . S
O275 Co265 2.015 . S
O275 C285 1.257 . S
O276 Co261 2.111 1_556 S
O276 C286 1.274 . S
O277 Co266 1.976 . S
O277 C286 1.251 . S
O278 Co265 2.264 1_556 S
O278 Co266 2.327 . S
O278 C287 1.257 . S
O279 Co266 2.073 . S
O279 C287 1.245 . S
C280 O288 1.259 . S
C280 O289 1.289 . S
C281 O290 1.246 . S
C281 O291 1.257 . S
C282 O270 1.251 . S
C282 O271 1.274 . S
C283 O268 1.245 . S
C283 O269 1.257 . S
C284 O273 1.259 . S
C284 O274 1.289 . S
C285 O272 1.246 . S
C285 O275 1.257 . S
C286 O276 1.274 . S
C286 O277 1.251 . S
C287 O278 1.257 . S
C287 O279 1.245 . S
O288 Co259 2.286 . S
O288 C280 1.259 . S
O289 Co259 2.069 . S
O289 C280 1.289 . S
O290 Co261 2.143 1_556 S
O290 C281 1.246 . S
O291 Co259 2.015 . S
O291 C281 1.257 . S
Co292 O295 2.042 . S
Co292 O302 2.264 . S
Co292 O321 2.286 . S
Co292 O322 2.069 . S
Co292 O324 2.015 . S
Co293 O295 2.122 . S
Co293 O301 2.073 . S
Co293 O302 2.327 . S
Co293 O303 1.976 . S
Co294 O295 2.089 . S
Co294 O297 2.085 1_455 S
Co294 O304 2.112 . S
Co294 O305 2.142 1_455 S
Co294 O309 2.111 1_455 S
Co294 O323 2.145 . S
O295 Co292 2.042 . S
O295 Co293 2.122 . S
O295 Co294 2.089 . S
O295 H296 0.980 . S
H296 O295 0.980 . S
O297 Co294 2.085 1_655 S
O297 Co298 2.042 . S
O297 Co299 2.122 . S
O297 H300 0.980 . S
Co298 O297 2.042 . S
Co298 O306 2.286 . S
Co298 O307 2.069 . S
Co298 O308 2.015 . S
Co298 O311 2.264 . S
Co299 O297 2.122 . S
Co299 O310 1.976 . S
Co299 O311 2.327 . S
Co299 O312 2.073 . S
H300 O297 0.980 . S
O301 Co293 2.073 . S
O301 C316 1.245 . S
O302 Co292 2.264 . S
O302 Co293 2.327 . S
O302 C316 1.257 . S
O303 Co293 1.976 . S
O303 C315 1.251 . S
O304 Co294 2.112 . S
O304 C315 1.274 . S
O305 Co294 2.142 1_655 S
O305 C318 1.246 . S
O306 Co298 2.286 . S
O306 C317 1.259 . S
O307 Co298 2.069 . S
O307 C317 1.289 . S
O308 Co298 2.015 . S
O308 C318 1.257 . S
O309 Co294 2.111 1_655 S
O309 C319 1.274 . S
O310 Co299 1.976 . S
O310 C319 1.251 . S
O311 Co298 2.264 . S
O311 Co299 2.327 . S
O311 C320 1.257 . S
O312 Co299 2.073 . S
O312 C320 1.245 . S
C313 O321 1.259 . S
C313 O322 1.289 . S
C314 O323 1.246 . S
C314 O324 1.257 . S
C315 O303 1.251 . S
C315 O304 1.274 . S
C316 O301 1.245 . S
C316 O302 1.257 . S
C317 O306 1.259 . S
C317 O307 1.289 . S
C318 O305 1.246 . S
C318 O308 1.257 . S
C319 O309 1.274 . S
C319 O310 1.251 . S
C320 O311 1.257 . S
C320 O312 1.245 . S
O321 Co292 2.286 . S
O321 C313 1.259 . S
O322 Co292 2.069 . S
O322 C313 1.289 . S
O323 Co294 2.145 . S
O323 C314 1.246 . S
O324 Co292 2.015 . S
O324 C314 1.257 . S
Co325 O328 2.042 . S
Co325 O335 2.264 . S
Co325 O354 2.286 . S
Co325 O355 2.069 . S
Co325 O357 2.015 1_565 S
Co326 O328 2.122 . S
Co326 O334 2.073 . S
Co326 O335 2.327 . S
Co326 O336 1.976 1_565 S
Co327 O328 2.083 1_545 S
Co327 O330 2.091 . S
Co327 O337 2.114 . S
Co327 O338 2.142 1_545 S
Co327 O342 2.109 1_545 S
Co327 O356 2.145 . S
O328 Co325 2.042 . S
O328 Co326 2.122 . S
O328 Co327 2.083 1_565 S
O328 H329 0.980 . S
H329 O328 0.980 . S
O330 Co327 2.091 . S
O330 Co331 2.042 . S
O330 Co332 2.122 . S
O330 H333 0.980 . S
Co331 O330 2.042 . S
Co331 O339 2.286 . S
Co331 O340 2.069 . S
Co331 O341 2.015 1_545 S
Co331 O344 2.264 . S
Co332 O330 2.122 . S
Co332 O343 1.976 1_545 S
Co332 O344 2.327 . S
Co332 O345 2.073 . S
H333 O330 0.980 . S
O334 Co326 2.073 . S
O334 C349 1.245 . S
O335 Co325 2.264 . S
O335 Co326 2.327 . S
O335 C349 1.257 . S
O336 Co326 1.976 1_545 S
O336 C348 1.251 . S
O337 Co327 2.114 . S
O337 C348 1.274 . S
O338 Co327 2.142 1_565 S
O338 C351 1.246 . S
O339 Co331 2.286 . S
O339 C350 1.259 . S
O340 Co331 2.069 . S
O340 C350 1.289 . S
O341 Co331 2.015 1_565 S
O341 C351 1.257 . S
O342 Co327 2.109 1_565 S
O342 C352 1.274 . S
O343 Co332 1.976 1_565 S
O343 C352 1.251 . S
O344 Co331 2.264 . S
O344 Co332 2.327 . S
O344 C353 1.257 . S
O345 Co332 2.073 . S
O345 C353 1.245 . S
C346 O354 1.259 . S
C346 O355 1.289 . S
C347 O356 1.246 . S
C347 O357 1.257 . S
C348 O336 1.251 . S
C348 O337 1.274 . S
C349 O334 1.245 . S
C349 O335 1.257 . S
C350 O339 1.259 . S
C350 O340 1.289 . S
C351 O338 1.246 . S
C351 O341 1.257 . S
C352 O342 1.274 . S
C352 O343 1.251 . S
C353 O344 1.257 . S
C353 O345 1.245 . S
O354 Co325 2.286 . S
O354 C346 1.259 . S
O355 Co325 2.069 . S
O355 C346 1.289 . S
O356 Co327 2.145 . S
O356 C347 1.246 . S
O357 Co325 2.015 1_545 S
O357 C347 1.257 . S
C187 C9 1.677 . S
C188 C22 1.437 . S
C182 C49 1.621 . S
C61 C181 0.706 . S
C81 C184 1.437 . S
C186 C108 1.621 . S
C122 C185 0.706 . S
C148 C183 1.676 . S
C218 C18 2.894 . S
C39 C249 1.770 . S
C217 C58 2.709 . S
C252 C69 1.121 . S
C89 C215 1.711 . S
C247 C102 1.141 . S
C139 C220 1.419 . S
C142 C254 1.312 . S
C1 C250 1.313 . S
C98 C253 1.772 . S
C221 C119 2.709 . S
C248 C128 1.121 . S
C159 C214 2.895 . S
C41 C251 1.140 . S
C216 C78 1.418 . S
C28 C219 1.711 . S
C149 C286 1.660 . S
C82 C287 1.272 . S
C281 C109 1.593 . S
C280 C121 0.843 . S
C21 C283 1.271 . S
C285 C48 1.591 . S
C62 C284 0.841 . S
C8 C282 1.658 . S
C158 C320 2.894 . S
C352 C99 1.408 . S
C118 C313 2.525 . S
C129 C347 2.005 . S
C318 C29 1.265 . S
C42 C349 2.115 . S
C315 C79 1.891 . S
C350 C2 2.095 . S
C346 C141 2.095 . S
C38 C348 1.408 . S
C59 C317 2.524 . S
C351 C68 2.005 . S
C19 C316 2.894 . S
C101 C353 2.114 . S
C319 C138 1.891 . S
C314 C88 1.265 . S
